# Generated by pormake.
# Topology llk, (3,12)-cn, num edge types: 1
# Building blocks:
#     Node 0, Type 0, BuildingBlock: PAMTOO_clean_linker_0, # of connection points: 3
#     Node 1, Type 0, BuildingBlock: PAMTOO_clean_linker_0, # of connection points: 3
#     Node 2, Type 0, BuildingBlock: PAMTOO_clean_linker_0, # of connection points: 3
#     Node 3, Type 0, BuildingBlock: PAMTOO_clean_linker_0, # of connection points: 3
#     Node 4, Type 0, BuildingBlock: PAMTOO_clean_linker_0, # of connection points: 3
#     Node 5, Type 0, BuildingBlock: PAMTOO_clean_linker_0, # of connection points: 3
#     Node 6, Type 0, BuildingBlock: PAMTOO_clean_linker_0, # of connection points: 3
#     Node 7, Type 0, BuildingBlock: PAMTOO_clean_linker_0, # of connection points: 3
#     Node 8, Type 0, BuildingBlock: PAMTOO_clean_linker_0, # of connection points: 3
#     Node 9, Type 0, BuildingBlock: PAMTOO_clean_linker_0, # of connection points: 3
#     Node 10, Type 0, BuildingBlock: PAMTOO_clean_linker_0, # of connection points: 3
#     Node 11, Type 0, BuildingBlock: PAMTOO_clean_linker_0, # of connection points: 3
#     Node 12, Type 0, BuildingBlock: PAMTOO_clean_linker_0, # of connection points: 3
#     Node 13, Type 0, BuildingBlock: PAMTOO_clean_linker_0, # of connection points: 3
#     Node 14, Type 0, BuildingBlock: PAMTOO_clean_linker_0, # of connection points: 3
#     Node 15, Type 0, BuildingBlock: PAMTOO_clean_linker_0, # of connection points: 3
#     Node 16, Type 0, BuildingBlock: PAMTOO_clean_linker_0, # of connection points: 3
#     Node 17, Type 0, BuildingBlock: PAMTOO_clean_linker_0, # of connection points: 3
#     Node 18, Type 0, BuildingBlock: PAMTOO_clean_linker_0, # of connection points: 3
#     Node 19, Type 0, BuildingBlock: PAMTOO_clean_linker_0, # of connection points: 3
#     Node 20, Type 0, BuildingBlock: PAMTOO_clean_linker_0, # of connection points: 3
#     Node 21, Type 0, BuildingBlock: PAMTOO_clean_linker_0, # of connection points: 3
#     Node 22, Type 0, BuildingBlock: PAMTOO_clean_linker_0, # of connection points: 3
#     Node 23, Type 0, BuildingBlock: PAMTOO_clean_linker_0, # of connection points: 3
#     Node 24, Type 1, BuildingBlock: EZIPEK_clean_sbu_0, # of connection points: 12
#     Node 25, Type 1, BuildingBlock: EZIPEK_clean_sbu_0, # of connection points: 12
#     Node 26, Type 1, BuildingBlock: EZIPEK_clean_sbu_0, # of connection points: 12
#     Node 27, Type 1, BuildingBlock: EZIPEK_clean_sbu_0, # of connection points: 12
#     Node 28, Type 1, BuildingBlock: EZIPEK_clean_sbu_0, # of connection points: 12
#     Node 29, Type 1, BuildingBlock: EZIPEK_clean_sbu_0, # of connection points: 12
#     Edge 30, Type (0, 1), BuildingBlock: XIVTED_clean_linker_0, # of connection points: 2
#     Edge 31, Type (0, 1), BuildingBlock: XIVTED_clean_linker_0, # of connection points: 2
#     Edge 32, Type (0, 1), BuildingBlock: XIVTED_clean_linker_0, # of connection points: 2
#     Edge 33, Type (0, 1), BuildingBlock: XIVTED_clean_linker_0, # of connection points: 2
#     Edge 34, Type (0, 1), BuildingBlock: XIVTED_clean_linker_0, # of connection points: 2
#     Edge 35, Type (0, 1), BuildingBlock: XIVTED_clean_linker_0, # of connection points: 2
#     Edge 36, Type (0, 1), BuildingBlock: XIVTED_clean_linker_0, # of connection points: 2
#     Edge 37, Type (0, 1), BuildingBlock: XIVTED_clean_linker_0, # of connection points: 2
#     Edge 38, Type (0, 1), BuildingBlock: XIVTED_clean_linker_0, # of connection points: 2
#     Edge 39, Type (0, 1), BuildingBlock: XIVTED_clean_linker_0, # of connection points: 2
#     Edge 40, Type (0, 1), BuildingBlock: XIVTED_clean_linker_0, # of connection points: 2
#     Edge 41, Type (0, 1), BuildingBlock: XIVTED_clean_linker_0, # of connection points: 2
#     Edge 42, Type (0, 1), BuildingBlock: XIVTED_clean_linker_0, # of connection points: 2
#     Edge 43, Type (0, 1), BuildingBlock: XIVTED_clean_linker_0, # of connection points: 2
#     Edge 44, Type (0, 1), BuildingBlock: XIVTED_clean_linker_0, # of connection points: 2
#     Edge 45, Type (0, 1), BuildingBlock: XIVTED_clean_linker_0, # of connection points: 2
#     Edge 46, Type (0, 1), BuildingBlock: XIVTED_clean_linker_0, # of connection points: 2
#     Edge 47, Type (0, 1), BuildingBlock: XIVTED_clean_linker_0, # of connection points: 2
#     Edge 48, Type (0, 1), BuildingBlock: XIVTED_clean_linker_0, # of connection points: 2
#     Edge 49, Type (0, 1), BuildingBlock: XIVTED_clean_linker_0, # of connection points: 2
#     Edge 50, Type (0, 1), BuildingBlock: XIVTED_clean_linker_0, # of connection points: 2
#     Edge 51, Type (0, 1), BuildingBlock: XIVTED_clean_linker_0, # of connection points: 2
#     Edge 52, Type (0, 1), BuildingBlock: XIVTED_clean_linker_0, # of connection points: 2
#     Edge 53, Type (0, 1), BuildingBlock: XIVTED_clean_linker_0, # of connection points: 2
#     Edge 54, Type (0, 1), BuildingBlock: XIVTED_clean_linker_0, # of connection points: 2
#     Edge 55, Type (0, 1), BuildingBlock: XIVTED_clean_linker_0, # of connection points: 2
#     Edge 56, Type (0, 1), BuildingBlock: XIVTED_clean_linker_0, # of connection points: 2
#     Edge 57, Type (0, 1), BuildingBlock: XIVTED_clean_linker_0, # of connection points: 2
#     Edge 58, Type (0, 1), BuildingBlock: XIVTED_clean_linker_0, # of connection points: 2
#     Edge 59, Type (0, 1), BuildingBlock: XIVTED_clean_linker_0, # of connection points: 2
#     Edge 60, Type (0, 1), BuildingBlock: XIVTED_clean_linker_0, # of connection points: 2
#     Edge 61, Type (0, 1), BuildingBlock: XIVTED_clean_linker_0, # of connection points: 2
#     Edge 62, Type (0, 1), BuildingBlock: XIVTED_clean_linker_0, # of connection points: 2
#     Edge 63, Type (0, 1), BuildingBlock: XIVTED_clean_linker_0, # of connection points: 2
#     Edge 64, Type (0, 1), BuildingBlock: XIVTED_clean_linker_0, # of connection points: 2
#     Edge 65, Type (0, 1), BuildingBlock: XIVTED_clean_linker_0, # of connection points: 2
#     Edge 66, Type (0, 1), BuildingBlock: XIVTED_clean_linker_0, # of connection points: 2
#     Edge 67, Type (0, 1), BuildingBlock: XIVTED_clean_linker_0, # of connection points: 2
#     Edge 68, Type (0, 1), BuildingBlock: XIVTED_clean_linker_0, # of connection points: 2
#     Edge 69, Type (0, 1), BuildingBlock: XIVTED_clean_linker_0, # of connection points: 2
#     Edge 70, Type (0, 1), BuildingBlock: XIVTED_clean_linker_0, # of connection points: 2
#     Edge 71, Type (0, 1), BuildingBlock: XIVTED_clean_linker_0, # of connection points: 2
#     Edge 72, Type (0, 1), BuildingBlock: XIVTED_clean_linker_0, # of connection points: 2
#     Edge 73, Type (0, 1), BuildingBlock: XIVTED_clean_linker_0, # of connection points: 2
#     Edge 74, Type (0, 1), BuildingBlock: XIVTED_clean_linker_0, # of connection points: 2
#     Edge 75, Type (0, 1), BuildingBlock: XIVTED_clean_linker_0, # of connection points: 2
#     Edge 76, Type (0, 1), BuildingBlock: XIVTED_clean_linker_0, # of connection points: 2
#     Edge 77, Type (0, 1), BuildingBlock: XIVTED_clean_linker_0, # of connection points: 2
#     Edge 78, Type (0, 1), BuildingBlock: XIVTED_clean_linker_0, # of connection points: 2
#     Edge 79, Type (0, 1), BuildingBlock: XIVTED_clean_linker_0, # of connection points: 2
#     Edge 80, Type (0, 1), BuildingBlock: XIVTED_clean_linker_0, # of connection points: 2
#     Edge 81, Type (0, 1), BuildingBlock: XIVTED_clean_linker_0, # of connection points: 2
#     Edge 82, Type (0, 1), BuildingBlock: XIVTED_clean_linker_0, # of connection points: 2
#     Edge 83, Type (0, 1), BuildingBlock: XIVTED_clean_linker_0, # of connection points: 2
#     Edge 84, Type (0, 1), BuildingBlock: XIVTED_clean_linker_0, # of connection points: 2
#     Edge 85, Type (0, 1), BuildingBlock: XIVTED_clean_linker_0, # of connection points: 2
#     Edge 86, Type (0, 1), BuildingBlock: XIVTED_clean_linker_0, # of connection points: 2
#     Edge 87, Type (0, 1), BuildingBlock: XIVTED_clean_linker_0, # of connection points: 2
#     Edge 88, Type (0, 1), BuildingBlock: XIVTED_clean_linker_0, # of connection points: 2
#     Edge 89, Type (0, 1), BuildingBlock: XIVTED_clean_linker_0, # of connection points: 2
#     Edge 90, Type (0, 1), BuildingBlock: XIVTED_clean_linker_0, # of connection points: 2
#     Edge 91, Type (0, 1), BuildingBlock: XIVTED_clean_linker_0, # of connection points: 2
#     Edge 92, Type (0, 1), BuildingBlock: XIVTED_clean_linker_0, # of connection points: 2
#     Edge 93, Type (0, 1), BuildingBlock: XIVTED_clean_linker_0, # of connection points: 2
#     Edge 94, Type (0, 1), BuildingBlock: XIVTED_clean_linker_0, # of connection points: 2
#     Edge 95, Type (0, 1), BuildingBlock: XIVTED_clean_linker_0, # of connection points: 2
#     Edge 96, Type (0, 1), BuildingBlock: XIVTED_clean_linker_0, # of connection points: 2
#     Edge 97, Type (0, 1), BuildingBlock: XIVTED_clean_linker_0, # of connection points: 2
#     Edge 98, Type (0, 1), BuildingBlock: XIVTED_clean_linker_0, # of connection points: 2
#     Edge 99, Type (0, 1), BuildingBlock: XIVTED_clean_linker_0, # of connection points: 2
#     Edge 100, Type (0, 1), BuildingBlock: XIVTED_clean_linker_0, # of connection points: 2
#     Edge 101, Type (0, 1), BuildingBlock: XIVTED_clean_linker_0, # of connection points: 2
# Relax obj value: 0.069
# Max RMSD: 0.163
# Mean RMSD: 0.123
data_MOF--net-llk--node1-EZIPEK_clean_sbu_0--node2-PAMTOO_clean_linker_0--edge1-XIVTED_clean_linker_0
_symmetry_space_group_name_H-M    P1
_symmetry_Int_Tables_number       1
_symmetry_cell_setting            triclinic
loop_
_symmetry_equiv_pos_as_xyz
'x, y, z'
_cell_length_a     46.684619
_cell_length_b     47.477252
_cell_length_c     47.061271
_cell_angle_alpha  90.036323
_cell_angle_beta   89.962042
_cell_angle_gamma 90.030007
loop_
_atom_site_label
_atom_site_type_symbol
_atom_site_fract_x
_atom_site_fract_y
_atom_site_fract_z
_atom_type_partial_charge
H0 H 0.01129 0.33677 0.25619 0.0
H1 H 0.01434 0.2599 0.30406 0.0
H2 H 0.02393 0.25766 0.21314 0.0
H3 H 0.99844 0.19456 0.24619 0.0
C4 C 0.0003 0.20836 0.26518 0.0
O5 O 0.02263 0.22713 0.26085 0.0
H6 H 0.97942 0.21956 0.26721 0.0
C7 C 0.01321 0.31401 0.25679 0.0
C8 C 0.01813 0.29927 0.23142 0.0
C9 C 0.01148 0.3001 0.28296 0.0
C10 C 0.01505 0.27087 0.28391 0.0
C11 C 0.01892 0.25541 0.25889 0.0
C12 C 0.02021 0.26956 0.23243 0.0
H13 H 0.76646 1.00781 0.33135 0.0
H14 H 0.71519 1.00922 0.2557 0.0
H15 H 0.80578 0.99365 0.24986 0.0
H16 H 0.77451 0.01985 0.18865 0.0
C17 C 0.75501 0.01984 0.20221 0.0
O18 O 0.75706 0.9976 0.22108 0.0
H19 H 0.75429 0.04042 0.21359 0.0
C20 C 0.76475 1.00635 0.30841 0.0
C21 C 0.7893 1.00038 0.29238 0.0
C22 C 0.738 1.0097 0.29547 0.0
C23 C 0.73577 1.0068 0.26596 0.0
C24 C 0.76009 1.00121 0.24946 0.0
C25 C 0.78706 0.99835 0.2626 0.0
H26 H 0.01195 0.75944 0.33098 0.0
H27 H 0.01436 0.71165 0.25354 0.0
H28 H 0.0243 0.80169 0.25092 0.0
H29 H 0.99792 0.76919 0.18795 0.0
C30 C -9e-05 0.75028 0.20172 0.0
O31 O 0.02252 0.75438 0.22033 0.0
H32 H 0.97918 0.74826 0.21331 0.0
C33 C 0.01384 0.75874 0.30802 0.0
C34 C 0.01876 0.78381 0.293 0.0
C35 C 0.01194 0.73271 0.29409 0.0
C36 C 0.01531 0.73165 0.26457 0.0
C37 C 0.01916 0.75638 0.24889 0.0
C38 C 0.02064 0.78264 0.26304 0.0
H39 H 0.33648 0.02447 0.2523 0.0
H40 H 0.2595 1.0107 0.30037 0.0
H41 H 0.256 0.01373 0.20911 0.0
H42 H 0.19087 0.02912 0.24391 0.0
C43 C 0.20649 0.02834 0.2617 0.0
O44 O 0.22602 1.0071 0.25636 0.0
H45 H 0.21705 0.0494 0.2624 0.0
C46 C 0.31344 0.02164 0.253 0.0
C47 C 0.29805 0.0201 0.22749 0.0
C48 C 0.29985 0.01863 0.27936 0.0
C49 C 0.27038 0.01318 0.28019 0.0
C50 C 0.25456 0.01171 0.25496 0.0
C51 C 0.26835 0.015 0.22854 0.0
H52 H 0.01904 0.68474 0.75259 0.0
H53 H 0.02596 0.76321 0.7077 0.0
H54 H 0.00293 0.76288 0.79625 0.0
H55 H 0.97902 0.82167 0.75786 0.0
C56 C 0.98804 0.80859 0.74043 0.0
O57 O 0.01211 0.79477 0.75052 0.0
H58 H 0.97088 0.79339 0.73435 0.0
C59 C 0.01793 0.70755 0.75254 0.0
C60 C 0.01046 0.72172 0.77763 0.0
C61 C 0.02346 0.72218 0.72727 0.0
C62 C 0.02174 0.7516 0.72708 0.0
C63 C 0.01416 0.76631 0.75172 0.0
C64 C 0.00877 0.75143 0.7772 0.0
H65 H 0.33466 0.0129 0.75634 0.0
H66 H 0.25572 0.01461 0.70954 0.0
H67 H 0.25472 0.0243 0.80042 0.0
H68 H 0.19007 0.99892 0.76927 0.0
C69 C 0.20478 0.99961 0.75071 0.0
O70 O 0.22318 0.02221 0.75388 0.0
H71 H 0.21658 0.97919 0.75049 0.0
C72 C 0.3115 0.0146 0.75598 0.0
C73 C 0.2967 0.01927 0.78146 0.0
C74 C 0.29703 0.0125 0.73002 0.0
C75 C 0.26722 0.01568 0.72949 0.0
C76 C 0.25196 0.01938 0.75486 0.0
C77 C 0.26662 0.02091 0.78094 0.0
H78 H 0.02766 0.26164 0.67843 0.0
H79 H 0.02585 0.30851 0.75645 0.0
H80 H 0.01725 0.21827 0.75813 0.0
H81 H 0.98612 0.25561 0.81639 0.0
C82 C 0.99393 0.27357 0.80339 0.0
O83 O 0.0186 0.26531 0.78926 0.0
H84 H 0.97641 0.27868 0.78816 0.0
C85 C 0.02639 0.26202 0.70144 0.0
C86 C 0.02341 0.23657 0.71629 0.0
C87 C 0.02731 0.28797 0.71558 0.0
C88 C 0.02471 0.28864 0.74517 0.0
C89 C 0.02057 0.26375 0.76053 0.0
C90 C 0.01974 0.23757 0.74612 0.0
H91 H 0.76405 0.01097 0.6798 0.0
H92 H 0.71565 0.01101 0.75745 0.0
H93 H 0.80697 0.02308 0.75977 0.0
H94 H 0.77543 0.99629 0.82296 0.0
C95 C 0.75651 0.99706 0.80866 0.0
O96 O 0.7595 0.0197 0.79044 0.0
H97 H 0.75612 0.97668 0.79687 0.0
C98 C 0.7633 0.01243 0.70279 0.0
C99 C 0.78861 0.01771 0.71784 0.0
C100 C 0.737 1.00961 0.71678 0.0
C101 C 0.73592 0.01259 0.74635 0.0
C102 C 0.76112 0.01689 0.76189 0.0
C103 C 0.78761 0.01918 0.74771 0.0
H104 H 0.26021 0.33579 0.98831 0.0
H105 H 0.31051 0.26012 0.99034 0.0
H106 H 0.2188 0.25542 0.99845 0.0
H107 H 0.25731 0.19976 0.02982 0.0
C108 C 0.27555 0.21273 0.02213 0.0
O109 O 0.26743 0.22621 0.99733 0.0
H110 H 0.28043 0.22814 0.03935 0.0
C111 C 0.26143 0.313 0.98942 0.0
C112 C 0.23611 0.29738 0.99233 0.0
C113 C 0.28828 0.29993 0.98869 0.0
C114 C 0.28992 0.27061 0.99122 0.0
C115 C 0.26506 0.25457 0.99515 0.0
C116 C 0.23803 0.26793 0.99591 0.0
H117 H 0.26227 0.68513 0.01909 0.0
H118 H 0.31131 0.76166 0.01723 0.0
H119 H 0.21954 0.76481 0.00915 0.0
H120 H 0.25753 0.8212 0.9778 0.0
C121 C 0.27593 0.80858 0.98566 0.0
O122 O 0.26774 0.79485 0.01033 0.0
H123 H 0.28132 0.79332 0.96846 0.0
C124 C 0.26311 0.70793 0.01797 0.0
C125 C 0.23753 0.72311 0.01512 0.0
C126 C 0.28975 0.72147 0.01875 0.0
C127 C 0.29091 0.75082 0.01629 0.0
C128 C 0.2658 0.76644 0.01238 0.0
C129 C 0.23898 0.75261 0.0116 0.0
H130 H 0.7641 0.33394 0.02645 0.0
H131 H 0.71479 0.25771 0.02145 0.0
H132 H 0.80653 0.2546 0.01316 0.0
H133 H 0.76954 0.19992 0.97965 0.0
C134 C 0.751 0.21229 0.98763 0.0
O135 O 0.75849 0.22476 0.01313 0.0
H136 H 0.7461 0.22835 0.97105 0.0
C137 C 0.76318 0.31119 0.02459 0.0
C138 C 0.78867 0.29603 0.02096 0.0
C139 C 0.7365 0.29774 0.02481 0.0
C140 C 0.73524 0.2685 0.02113 0.0
C141 C 0.76035 0.253 0.01662 0.0
C142 C 0.78715 0.26674 0.01632 0.0
H143 H 0.76561 0.68713 0.01928 0.0
H144 H 0.71515 0.76171 0.00686 0.0
H145 H 0.80716 0.76735 0.00878 0.0
H146 H 0.77256 0.82874 0.02741 0.0
C147 C 0.75366 0.81465 0.02536 0.0
O148 O 0.75858 0.79589 1.00338 0.0
H149 H 0.75141 0.80356 0.04612 0.0
C150 C 0.76432 0.7098 0.01667 0.0
C151 C 0.78964 0.72553 0.01498 0.0
C152 C 0.73744 0.72252 0.01407 0.0
C153 C 0.7358 0.75153 0.00902 0.0
C154 C 0.76082 0.76777 0.00748 0.0
C155 C 0.78786 0.75477 0.01019 0.0
H156 H 0.5117 0.83519 0.75408 0.0
H157 H 0.51357 0.75914 0.80339 0.0
H158 H 0.52263 0.75513 0.71245 0.0
H159 H 0.49599 0.6936 0.74626 0.0
C160 C 0.49863 0.70711 0.76537 0.0
O161 O 0.52122 0.72549 0.76071 0.0
H162 H 0.47805 0.71869 0.76812 0.0
C163 C 0.51315 0.81241 0.75512 0.0
C164 C 0.51761 0.79712 0.73003 0.0
C165 C 0.51133 0.79902 0.78156 0.0
C166 C 0.51439 0.76975 0.78304 0.0
C167 C 0.5179 0.75378 0.75827 0.0
C168 C 0.51923 0.76742 0.73155 0.0
H169 H 0.26385 0.52023 0.82873 0.0
H170 H 0.21577 0.50775 0.75208 0.0
H171 H 0.30783 0.50601 0.74962 0.0
H172 H 0.27758 0.5198 0.68504 0.0
C173 C 0.25859 0.52157 0.69917 0.0
O174 O 0.26035 0.50058 0.71948 0.0
H175 H 0.2593 0.54287 0.70911 0.0
C176 C 0.26331 0.51712 0.80592 0.0
C177 C 0.28914 0.51432 0.79095 0.0
C178 C 0.23679 0.51496 0.79219 0.0
C179 C 0.2361 0.5093 0.763 0.0
C180 C 0.2616 0.50608 0.74767 0.0
C181 C 0.28819 0.50845 0.76162 0.0
H182 H 0.52509 0.25997 0.83031 0.0
H183 H 0.52371 0.21318 0.75224 0.0
H184 H 0.51496 0.30337 0.75063 0.0
H185 H 0.48405 0.26495 0.69168 0.0
C186 C 0.49151 0.24765 0.70573 0.0
O187 O 0.51617 0.25639 0.71955 0.0
H188 H 0.47378 0.24358 0.72108 0.0
C189 C 0.52404 0.25962 0.8073 0.0
C190 C 0.52114 0.28508 0.79245 0.0
C191 C 0.52501 0.23368 0.79314 0.0
C192 C 0.52256 0.23304 0.76354 0.0
C193 C 0.51838 0.25793 0.74823 0.0
C194 C 0.51751 0.28409 0.76264 0.0
H195 H 0.83632 0.50251 0.75752 0.0
H196 H 0.75557 0.49754 0.80116 0.0
H197 H 0.75798 0.51988 0.71268 0.0
H198 H 0.69703 0.54371 0.74969 0.0
C199 C 0.71117 0.5357 0.76686 0.0
O200 O 0.72476 0.51162 0.75732 0.0
H201 H 0.72679 0.55286 0.77156 0.0
C202 C 0.81315 0.50408 0.75725 0.0
C203 C 0.79926 0.51169 0.73199 0.0
C204 C 0.79774 0.49901 0.78229 0.0
C205 C 0.76784 0.50129 0.78197 0.0
C206 C 0.75358 0.50889 0.75697 0.0
C207 C 0.7692 0.5139 0.73189 0.0
H208 H 0.50245 0.18425 0.25718 0.0
H209 H 0.51317 0.25939 0.20759 0.0
H210 H 0.51014 0.26466 0.29885 0.0
H211 H 0.48981 0.32572 0.26321 0.0
C212 C 0.49315 0.31174 0.24456 0.0
O213 O 0.51557 0.29355 0.25051 0.0
H214 H 0.47267 0.30005 0.24147 0.0
C215 C 0.50455 0.20698 0.25608 0.0
C216 C 0.50545 0.22262 0.28134 0.0
C217 C 0.5069 0.21993 0.22947 0.0
C218 C 0.51124 0.24905 0.22802 0.0
C219 C 0.51212 0.26527 0.25284 0.0
C220 C 0.50942 0.25208 0.27966 0.0
H221 H 0.83727 0.51478 0.26008 0.0
H222 H 0.76081 0.52595 0.21088 0.0
H223 H 0.75475 0.51029 0.30069 0.0
H224 H 0.69642 0.4898 0.26665 0.0
C225 C 0.70975 0.49451 0.24766 0.0
O226 O 0.72552 0.51857 0.25328 0.0
H227 H 0.72396 0.47599 0.24403 0.0
C228 C 0.81411 0.51598 0.25887 0.0
C229 C 0.79779 0.51189 0.28356 0.0
C230 C 0.80104 0.52117 0.23263 0.0
C231 C 0.77112 0.52218 0.23108 0.0
C232 C 0.75442 0.51826 0.25549 0.0
C233 C 0.76774 0.51347 0.28188 0.0
H234 H 0.51449 0.76087 0.17801 0.0
H235 H 0.51493 0.80949 0.25496 0.0
H236 H 0.52318 0.71932 0.25888 0.0
H237 H 0.4954 0.75387 0.32105 0.0
C238 C 0.49816 0.77223 0.30668 0.0
O239 O 0.52126 0.76709 0.2889 0.0
H240 H 0.47783 0.77414 0.29441 0.0
C241 C 0.51554 0.76181 0.20101 0.0
C242 C 0.51945 0.73684 0.21645 0.0
C243 C 0.51356 0.78799 0.2146 0.0
C244 C 0.51595 0.78935 0.24419 0.0
C245 C 0.51883 0.76476 0.26026 0.0
C246 C 0.5203 0.7383 0.24645 0.0
H247 H 0.26305 0.53064 0.1804 0.0
H248 H 0.21422 0.52591 0.25767 0.0
H249 H 0.30603 0.51869 0.26029 0.0
H250 H 0.269 0.4854 0.31618 0.0
C251 C 0.25066 0.49302 0.30325 0.0
O252 O 0.25822 0.51825 0.29062 0.0
H253 H 0.24621 0.47638 0.28711 0.0
C254 C 0.26224 0.52904 0.20337 0.0
C255 C 0.28784 0.5259 0.21856 0.0
C256 C 0.23562 0.52906 0.21709 0.0
C257 C 0.2346 0.52573 0.24663 0.0
C258 C 0.25985 0.52163 0.26213 0.0
C259 C 0.28655 0.52152 0.24813 0.0
H260 H 0.75917 0.8362 0.51765 0.0
H261 H 0.81009 0.76167 0.50673 0.0
H262 H 0.71818 0.75535 0.50993 0.0
H263 H 0.75382 0.69496 0.52979 0.0
C264 C 0.77272 0.70887 0.52666 0.0
O265 O 0.76706 0.72707 0.50438 0.0
H266 H 0.77576 0.72052 0.54701 0.0
C267 C 0.7606 0.81349 0.51557 0.0
C268 C 0.73538 0.79753 0.51471 0.0
C269 C 0.78759 0.8009 0.51308 0.0
C270 C 0.78939 0.77177 0.50875 0.0
C271 C 0.76453 0.75529 0.50788 0.0
C272 C 0.73738 0.76815 0.51066 0.0
H273 H 0.76326 0.18385 0.51249 0.0
H274 H 0.81103 0.26086 0.51996 0.0
H275 H 0.72087 0.26358 0.50132 0.0
H276 H 0.75985 0.32179 0.47766 0.0
C277 C 0.77756 0.30827 0.48556 0.0
O278 O 0.76811 0.29391 0.5094 0.0
H279 H 0.78292 0.29351 0.46791 0.0
C280 C 0.76394 0.20667 0.51217 0.0
C281 C 0.73878 0.22175 0.50644 0.0
C282 C 0.79005 0.22043 0.51698 0.0
C283 C 0.79101 0.24988 0.51631 0.0
C284 C 0.76626 0.26545 0.5105 0.0
C285 C 0.73998 0.25145 0.50581 0.0
H286 H 0.26269 0.8346 0.51506 0.0
H287 H 0.21572 0.75681 0.51947 0.0
H288 H 0.30443 0.75645 0.4946 0.0
H289 H 0.26556 0.70035 0.46862 0.0
C290 C 0.24818 0.71329 0.47811 0.0
O291 O 0.25819 0.72523 0.50302 0.0
H292 H 0.24266 0.72966 0.46204 0.0
C293 C 0.26203 0.81183 0.51322 0.0
C294 C 0.28665 0.79743 0.50443 0.0
C295 C 0.2364 0.79753 0.51873 0.0
C296 C 0.23548 0.7682 0.51564 0.0
C297 C 0.2599 0.75341 0.50689 0.0
C298 C 0.28566 0.76795 0.50155 0.0
H299 H 0.26547 0.18761 0.50427 0.0
H300 H 0.21548 0.26353 0.50488 0.0
H301 H 0.30693 0.2679 0.49405 0.0
H302 H 0.27422 0.32903 0.52169 0.0
C303 C 0.2551 0.31517 0.52004 0.0
O304 O 0.25864 0.29731 0.49707 0.0
H305 H 0.25375 0.30324 0.5404 0.0
C306 C 0.26426 0.21041 0.50328 0.0
C307 C 0.28934 0.2259 0.49861 0.0
C308 C 0.23764 0.22366 0.50596 0.0
C309 C 0.236 0.25299 0.50345 0.0
C310 C 0.26092 0.26901 0.49968 0.0
C311 C 0.28776 0.25552 0.49755 0.0
C312 C 0.01359 0.9434 0.57594 0.0
C313 C 0.01604 0.94032 0.43702 0.0
C314 C 0.01472 0.07974 0.57269 0.0
C315 C 0.01589 0.07654 0.43354 0.0
C316 C 0.94606 0.07859 0.50587 0.0
C317 C 0.94556 0.94188 0.50609 0.0
C318 C 0.0843 0.07824 0.50483 0.0
C319 C 0.0834 0.9411 0.50956 0.0
C320 C 0.08472 1.00703 0.43618 0.0
C321 C 0.94638 1.00801 0.43519 0.0
C322 C 0.08345 0.01243 0.57485 0.0
C323 C 0.94535 0.01206 0.57377 0.0
Eu324 Eu 0.01465 0.95663 0.5062 0.0
O325 O 0.98948 0.98446 0.48023 0.0
O326 O 0.04021 0.98547 0.53085 0.0
Eu327 Eu 0.96052 1.01019 0.50459 0.0
Eu328 Eu 0.0697 1.00971 0.50544 0.0
O329 O 0.98898 0.98556 0.53055 0.0
O330 O 0.04068 0.98428 0.48067 0.0
Eu331 Eu 0.01446 0.01128 0.5583 0.0
Eu332 Eu 0.01536 1.00873 0.4515 0.0
O333 O 0.98955 0.03573 0.52899 0.0
O334 O 0.98949 0.03476 0.47881 0.0
O335 O 0.04101 0.03437 0.47938 0.0
O336 O 0.04028 0.0355 0.52937 0.0
Eu337 Eu 0.01519 0.06356 0.50339 0.0
O338 O 0.01303 0.93388 0.54913 0.0
O339 O 0.01664 0.93224 0.46429 0.0
O340 O 0.01631 0.0879 0.54546 0.0
O341 O 0.01471 0.0862 0.4603 0.0
O342 O 0.93707 0.05188 0.50546 0.0
O343 O 0.93673 0.96863 0.50668 0.0
O344 O 0.09323 0.05153 0.5062 0.0
O345 O 0.09284 0.96769 0.50861 0.0
O346 O 0.05738 1.00655 0.42806 0.0
O347 O 0.97373 1.00864 0.42704 0.0
O348 O 0.05598 0.01315 0.58251 0.0
O349 O 0.97257 0.01135 0.58222 0.0
O350 O 0.0572 0.0868 0.50295 0.0
O351 O 0.97324 0.08718 0.50476 0.0
O352 O 0.05615 0.93291 0.50855 0.0
O353 O 0.97268 0.93321 0.50511 0.0
O354 O 0.01484 0.96697 0.42807 0.0
O355 O 0.01672 0.04936 0.42625 0.0
O356 O 0.01463 0.97053 0.58337 0.0
O357 O 0.01317 0.05309 0.58157 0.0
O358 O 0.93643 0.01207 0.54675 0.0
O359 O 0.93709 1.00825 0.46212 0.0
O360 O 0.09317 1.01063 0.54813 0.0
O361 O 0.09398 1.00872 0.46308 0.0
C362 C 0.51122 0.94453 0.07422 0.0
C363 C 0.51197 0.08093 0.07114 0.0
C364 C 0.51157 0.94136 0.93665 0.0
C365 C 0.51598 0.07775 0.93358 0.0
C366 C 0.58332 1.01084 0.93559 0.0
C367 C 0.58313 0.01413 0.07231 0.0
C368 C 0.44364 0.01179 0.93521 0.0
C369 C 0.44326 0.01238 0.07217 0.0
C370 C 0.44266 0.07881 1.00277 0.0
C371 C 0.58272 0.07956 1.00317 0.0
C372 C 0.44342 0.94248 1.00423 0.0
C373 C 0.58343 0.94352 1.00488 0.0
Eu374 Eu 0.51321 0.01227 0.05796 0.0
O375 O 0.53814 0.03711 0.02879 0.0
O376 O 0.48811 0.98642 0.02965 0.0
Eu377 Eu 0.56656 0.01145 1.004 0.0
Eu378 Eu 0.45948 1.01074 1.00372 0.0
O379 O 0.53857 0.98637 0.02996 0.0
O380 O 0.48785 0.03654 0.02857 0.0
Eu381 Eu 0.51338 0.9574 1.00499 0.0
Eu382 Eu 0.51281 0.06489 1.00281 0.0
O383 O 0.53855 0.98546 0.97899 0.0
O384 O 0.53807 0.03587 0.9782 0.0
O385 O 0.48785 0.03571 0.97788 0.0
O386 O 0.4882 0.9853 0.97894 0.0
Eu387 Eu 0.51339 1.01003 0.94978 0.0
O388 O 0.51245 0.97137 0.08257 0.0
O389 O 0.51192 0.05436 0.08042 0.0
O390 O 0.51101 0.96794 0.92738 0.0
O391 O 0.51525 0.0509 0.92523 0.0
O392 O 0.59105 0.01234 0.96279 0.0
O393 O 0.591 0.01333 0.04512 0.0
O394 O 0.43515 1.01051 0.96222 0.0
O395 O 0.43498 1.01079 0.04511 0.0
O396 O 0.46976 0.08815 1.00245 0.0
O397 O 0.55554 0.08859 1.0027 0.0
O398 O 0.47065 0.93356 1.00438 0.0
O399 O 0.55637 0.93413 0.00598 0.0
O400 O 0.47085 0.01217 0.9263 0.0
O401 O 0.55632 1.00886 0.92616 0.0
O402 O 0.47039 0.0135 0.08126 0.0
O403 O 0.55606 0.01345 0.08178 0.0
O404 O 0.51273 0.08917 0.04407 0.0
O405 O 0.51494 0.08698 0.96037 0.0
O406 O 0.51128 0.93534 0.04742 0.0
O407 O 0.5133 0.93315 0.9637 0.0
O408 O 0.59119 0.97054 1.0039 0.0
O409 O 0.59079 0.05262 1.00366 0.0
O410 O 0.43528 0.96943 1.0041 0.0
O411 O 0.43489 0.05176 1.00329 0.0
C412 C 0.01244 0.443 0.07471 0.0
C413 C 0.01097 0.44001 0.93708 0.0
C414 C 0.0127 0.58105 0.07162 0.0
C415 C 0.00901 0.57782 0.93401 0.0
C416 C 0.94249 0.5795 1.00431 0.0
C417 C 0.94246 0.4418 0.00779 0.0
C418 C 0.08058 0.57953 1.00282 0.0
C419 C 0.08073 0.44207 1.00404 0.0
C420 C 0.07888 0.51191 0.9342 0.0
C421 C 0.94008 0.50531 0.9378 0.0
C422 C 0.08138 0.51337 0.07234 0.0
C423 C 0.94297 0.51417 0.07453 0.0
Eu424 Eu 0.01149 0.45752 0.00572 0.0
O425 O 0.98542 0.48518 0.98049 0.0
O426 O 0.03736 0.48629 0.03007 0.0
Eu427 Eu 0.95695 0.51061 0.00577 0.0
Eu428 Eu 0.0656 0.51078 1.00354 0.0
O429 O 0.98617 0.48604 0.03109 0.0
O430 O 0.03632 0.48521 0.97919 0.0
Eu431 Eu 0.0121 0.51176 0.0586 0.0
Eu432 Eu 0.00997 0.5092 0.95035 0.0
O433 O 0.98648 0.53611 0.02961 0.0
O434 O 0.98508 0.53501 0.9789 0.0
O435 O 0.03619 0.5348 0.97794 0.0
O436 O 0.03697 0.53601 0.02871 0.0
Eu437 Eu 0.01142 0.56366 1.00302 0.0
O438 O 0.01139 0.43431 0.04776 0.0
O439 O 0.01148 0.43266 0.96448 0.0
O440 O 0.01254 0.5884 0.04423 0.0
O441 O 0.01108 0.58655 0.96088 0.0
O442 O 0.9333 0.5528 0.00579 0.0
O443 O 0.93345 0.46855 0.00881 0.0
O444 O 0.08953 0.55277 1.00411 0.0
O445 O 0.08956 0.46887 1.00237 0.0
O446 O 0.05164 0.50997 0.92588 0.0
O447 O 0.96706 0.5054 0.92833 0.0
O448 O 0.05437 0.51296 0.08147 0.0
O449 O 0.9703 0.51382 0.08279 0.0
O450 O 0.05329 0.58774 1.00156 0.0
O451 O 0.96976 0.58763 1.00279 0.0
O452 O 0.05352 0.43371 0.00611 0.0
O453 O 0.96967 0.43353 0.00587 0.0
O454 O 0.01044 0.46657 0.92746 0.0
O455 O 0.0076 0.55082 0.92572 0.0
O456 O 0.01311 0.47 0.08311 0.0
O457 O 0.01239 0.55451 0.08134 0.0
O458 O 0.93367 0.51275 0.04778 0.0
O459 O 0.9319 0.50785 0.96483 0.0
O460 O 0.08993 0.51252 0.04524 0.0
O461 O 0.08818 0.5127 0.96103 0.0
C462 C 0.51279 0.44295 0.07654 0.0
C463 C 0.51488 0.57918 0.07397 0.0
C464 C 0.51424 0.44045 0.93755 0.0
C465 C 0.51427 0.57675 0.93478 0.0
C466 C 0.58361 0.50854 0.93697 0.0
C467 C 0.58216 0.50857 0.07569 0.0
C468 C 0.44514 0.5107 0.93609 0.0
C469 C 0.44413 0.51091 0.07453 0.0
C470 C 0.44516 0.57869 0.00726 0.0
C471 C 0.58315 0.57819 1.00523 0.0
C472 C 0.44438 0.44187 1.00387 0.0
C473 C 0.58243 0.44111 0.00893 0.0
Eu474 Eu 0.51326 0.51082 0.05907 0.0
O475 O 0.53931 0.5354 0.03056 0.0
O476 O 0.48767 0.48517 0.03125 0.0
Eu477 Eu 0.56849 0.50973 0.00624 0.0
Eu478 Eu 0.4594 0.51024 1.0054 0.0
O479 O 0.53893 0.4853 0.03132 0.0
O480 O 0.48835 0.5356 0.03004 0.0
Eu481 Eu 0.5135 0.45639 0.00682 0.0
Eu482 Eu 0.51414 0.56343 1.00458 0.0
O483 O 0.5395 0.48422 0.98134 0.0
O484 O 0.53973 0.5343 0.9803 0.0
O485 O 0.48855 0.53471 0.97984 0.0
O486 O 0.4884 0.48449 0.98103 0.0
Eu487 Eu 0.51417 0.50879 0.95225 0.0
O488 O 0.51316 0.47007 0.08399 0.0
O489 O 0.51345 0.55246 0.0827 0.0
O490 O 0.51334 0.46713 0.92869 0.0
O491 O 0.515 0.54962 0.92728 0.0
O492 O 0.59275 0.50967 0.96393 0.0
O493 O 0.59194 0.50943 0.04894 0.0
O494 O 0.43602 0.5122 0.96301 0.0
O495 O 0.43522 0.51078 0.04751 0.0
O496 O 0.47233 0.5872 0.00575 0.0
O497 O 0.55606 0.58671 1.00326 0.0
O498 O 0.47146 0.43317 0.00564 0.0
O499 O 0.55521 0.43275 0.00827 0.0
O500 O 0.4724 0.50866 0.92787 0.0
O501 O 0.55628 0.5077 0.9288 0.0
O502 O 0.47135 0.51076 0.08303 0.0
O503 O 0.55471 0.50911 0.08338 0.0
O504 O 0.51577 0.58751 0.04677 0.0
O505 O 0.5134 0.58623 0.96162 0.0
O506 O 0.51247 0.43342 0.04972 0.0
O507 O 0.51497 0.43222 0.96477 0.0
O508 O 0.59171 0.46775 0.00831 0.0
O509 O 0.59209 0.55152 0.00717 0.0
O510 O 0.43555 0.46864 1.00337 0.0
O511 O 0.43611 0.552 0.00736 0.0
C512 C 0.01724 0.4454 0.57709 0.0
C513 C 0.01027 0.44027 0.43962 0.0
C514 C 0.01799 0.58171 0.57184 0.0
C515 C 0.00819 0.57656 0.43453 0.0
C516 C 0.94195 0.57821 0.50583 0.0
C517 C 0.9439 0.44202 0.50949 0.0
C518 C 0.08189 0.57988 0.50181 0.0
C519 C 0.08392 0.44392 0.50533 0.0
C520 C 0.08136 0.51 0.43533 0.0
C521 C 0.94176 0.50725 0.43925 0.0
C522 C 0.08485 0.51462 0.57203 0.0
C523 C 0.94522 0.5139 0.57626 0.0
Eu524 Eu 0.0138 0.45726 0.50768 0.0
O525 O 0.98783 0.48495 0.48227 0.0
O526 O 0.03928 0.48703 0.53124 0.0
Eu527 Eu 0.9594 0.51035 0.50737 0.0
Eu528 Eu 0.06644 0.51168 0.50412 0.0
O529 O 0.98876 0.48623 0.53289 0.0
O530 O 0.03808 0.48497 0.48041 0.0
Eu531 Eu 0.01461 0.51285 0.55979 0.0
Eu532 Eu 0.0119 0.50909 0.45178 0.0
O533 O 0.98807 0.53691 0.53117 0.0
O534 O 0.98694 0.53482 0.48033 0.0
O535 O 0.03727 0.53595 0.47872 0.0
O536 O 0.03818 0.53714 0.52918 0.0
Eu537 Eu 0.0121 0.56479 0.50391 0.0
O538 O 0.01682 0.43581 0.55042 0.0
O539 O 0.01222 0.43237 0.46675 0.0
O540 O 0.01524 0.58961 0.54478 0.0
O541 O 0.00848 0.58615 0.4612 0.0
O542 O 0.93439 0.55111 0.50607 0.0
O543 O 0.93561 0.46891 0.50917 0.0
O544 O 0.09013 0.55303 0.50301 0.0
O545 O 0.09145 0.471 0.50415 0.0
O546 O 0.05405 0.50838 0.42676 0.0
O547 O 0.96871 0.50699 0.42963 0.0
O548 O 0.0581 0.51354 0.58223 0.0
O549 O 0.97265 0.51498 0.58444 0.0
O550 O 0.05465 0.58877 0.50121 0.0
O551 O 0.96897 0.58776 0.5057 0.0
O552 O 0.05697 0.43433 0.50694 0.0
O553 O 0.97117 0.43319 0.50909 0.0
O554 O 0.00996 0.46671 0.43003 0.0
O555 O 0.00991 0.54962 0.42658 0.0
O556 O 0.01581 0.47235 0.58503 0.0
O557 O 0.01809 0.55524 0.58144 0.0
O558 O 0.93615 0.51173 0.54948 0.0
O559 O 0.93394 0.50872 0.46647 0.0
O560 O 0.092 0.5142 0.54463 0.0
O561 O 0.08986 0.5116 0.46229 0.0
C562 C 0.51089 0.9419 0.57498 0.0
C563 C 0.51114 0.94088 0.43755 0.0
C564 C 0.51093 0.07994 0.57453 0.0
C565 C 0.51139 0.07893 0.43705 0.0
C566 C 0.44291 0.08015 0.5047 0.0
C567 C 0.44121 0.94236 0.5049 0.0
C568 C 0.58116 0.07834 0.50545 0.0
C569 C 0.5792 0.94095 0.50692 0.0
C570 C 0.57991 1.01078 0.4372 0.0
C571 C 0.44115 0.01137 0.43724 0.0
C572 C 0.57912 1.00962 0.57555 0.0
C573 C 0.44042 1.00959 0.57397 0.0
Eu574 Eu 0.51028 0.95755 0.50623 0.0
O575 O 0.48489 0.98546 0.48049 0.0
O576 O 0.53558 0.98573 0.53159 0.0
Eu577 Eu 0.45643 0.01105 0.50564 0.0
Eu578 Eu 0.56512 1.00983 0.50627 0.0
O579 O 0.48482 0.98603 0.53134 0.0
O580 O 0.53616 0.98516 0.48069 0.0
Eu581 Eu 0.51016 0.01091 0.5602 0.0
Eu582 Eu 0.51067 1.00995 0.45177 0.0
O583 O 0.48529 0.036 0.53115 0.0
O584 O 0.4859 0.03545 0.48053 0.0
O585 O 0.53643 0.03461 0.48065 0.0
O586 O 0.53657 0.03526 0.5316 0.0
Eu587 Eu 0.51171 0.06346 0.50584 0.0
O588 O 0.50978 0.93367 0.54788 0.0
O589 O 0.51122 0.93331 0.46486 0.0
O590 O 0.51223 0.08754 0.54727 0.0
O591 O 0.51262 0.08722 0.46412 0.0
O592 O 0.43341 0.05352 0.50416 0.0
O593 O 0.43231 0.96916 0.50445 0.0
O594 O 0.5897 0.05142 0.50555 0.0
O595 O 0.58857 0.96761 0.50715 0.0
O596 O 0.55278 1.01034 0.4284 0.0
O597 O 0.46832 0.01117 0.42836 0.0
O598 O 0.55193 0.01105 0.58406 0.0
O599 O 0.46751 1.00909 0.58306 0.0
O600 O 0.55397 0.08696 0.50584 0.0
O601 O 0.47031 0.08797 0.50577 0.0
O602 O 0.5518 0.93303 0.50634 0.0
O603 O 0.46841 0.93398 0.5059 0.0
O604 O 0.51043 0.96753 0.42812 0.0
O605 O 0.51015 0.05212 0.42815 0.0
O606 O 0.51163 0.96873 0.58388 0.0
O607 O 0.50945 0.05328 0.58388 0.0
O608 O 0.43194 0.01097 0.54697 0.0
O609 O 0.43239 0.01101 0.46417 0.0
O610 O 0.58827 1.00888 0.54863 0.0
O611 O 0.58879 1.01052 0.46419 0.0
H612 H 0.18576 0.22796 0.479 0.0
H613 H 0.13859 0.07444 0.52615 0.0
H614 H 0.231 0.17929 0.54206 0.0
H615 H 0.07958 0.1329 0.48724 0.0
H616 H 0.17387 0.11222 0.52979 0.0
H617 H 0.14654 0.19369 0.48071 0.0
C618 C 0.18718 0.21037 0.49357 0.0
C619 C 0.21179 0.20615 0.51008 0.0
C620 C 0.15314 0.11679 0.52057 0.0
C621 C 0.16759 0.16675 0.51164 0.0
C622 C 0.13312 0.09518 0.51823 0.0
C623 C 0.10618 0.10053 0.50629 0.0
C624 C 0.1463 0.14382 0.51055 0.0
C625 C 0.1001 0.12789 0.49668 0.0
C626 C 0.16493 0.19075 0.4944 0.0
C627 C 0.21266 0.18293 0.52849 0.0
N628 N 0.1201 0.14851 0.49885 0.0
N629 N 0.19106 0.16388 0.52849 0.0
H630 H 0.84257 0.22845 0.49227 0.0
H631 H 0.89204 0.07264 0.52715 0.0
H632 H 0.79713 0.17354 0.54984 0.0
H633 H 0.95021 0.13469 0.49276 0.0
H634 H 0.85639 0.10946 0.53405 0.0
H635 H 0.88267 0.19524 0.49209 0.0
C636 C 0.84128 0.20971 0.50533 0.0
C637 C 0.81634 0.20347 0.52074 0.0
C638 C 0.877 0.11506 0.5251 0.0
C639 C 0.86164 0.16525 0.52008 0.0
C640 C 0.89726 0.09399 0.52087 0.0
C641 C 0.92405 0.10058 0.50916 0.0
C642 C 0.88341 0.14288 0.51724 0.0
C643 C 0.92979 0.1287 0.50184 0.0
C644 C 0.86406 0.19069 0.50505 0.0
C645 C 0.81571 0.17881 0.53713 0.0
N646 N 0.90951 0.14883 0.50581 0.0
N647 N 0.83785 0.1604 0.53605 0.0
H648 H 0.79787 0.84359 0.55043 0.0
H649 H 0.94933 0.8876 0.48697 0.0
H650 H 0.8363 0.79877 0.48024 0.0
H651 H 0.89173 0.94588 0.52824 0.0
H652 H 0.91258 0.8509 0.49051 0.0
H653 H 0.83749 0.877 0.5495 0.0
C654 C 0.81471 0.84074 0.53485 0.0
C655 C 0.81351 0.81872 0.51498 0.0
C656 C 0.90809 0.87175 0.49873 0.0
C657 C 0.85905 0.85665 0.51412 0.0
C658 C 0.92898 0.89265 0.4968 0.0
C659 C 0.92347 0.91981 0.50728 0.0
C660 C 0.88181 0.87801 0.51168 0.0
C661 C 0.89676 0.92529 0.51968 0.0
C662 C 0.83729 0.85979 0.53437 0.0
C663 C 0.83638 0.8155 0.49588 0.0
N664 N 0.87695 0.90449 0.52169 0.0
N665 N 0.85823 0.83444 0.49578 0.0
H666 H 0.23065 0.8419 0.55531 0.0
H667 H 0.07738 0.88578 0.49516 0.0
H668 H 0.18325 0.79147 0.49519 0.0
H669 H 0.13735 0.94463 0.5321 0.0
H670 H 0.11175 0.84786 0.50281 0.0
H671 H 0.19142 0.87595 0.556 0.0
C672 C 0.21174 0.83778 0.54264 0.0
C673 C 0.21035 0.81415 0.52476 0.0
C674 C 0.11734 0.86906 0.50926 0.0
C675 C 0.16562 0.85291 0.52542 0.0
C676 C 0.09779 0.89074 0.5049 0.0
C677 C 0.10464 0.91844 0.51286 0.0
C678 C 0.1438 0.87507 0.52194 0.0
C679 C 0.13138 0.92364 0.52532 0.0
C680 C 0.18947 0.85724 0.54296 0.0
C681 C 0.18518 0.80945 0.50923 0.0
N682 N 0.15002 0.90209 0.52954 0.0
N683 N 0.16388 0.82891 0.50963 0.0
H684 H 0.46879 0.17775 0.219 0.0
H685 H 0.53096 0.1354 0.0673 0.0
H686 H 0.53944 0.22265 0.18079 0.0
H687 H 0.48903 0.07708 0.12415 0.0
H688 H 0.5276 0.17195 0.10406 0.0
H689 H 0.46865 0.14531 0.17889 0.0
C690 C 0.48426 0.1808 0.20211 0.0
C691 C 0.50458 0.20254 0.20349 0.0
C692 C 0.51916 0.15113 0.10835 0.0
C693 C 0.50421 0.16574 0.15739 0.0
C694 C 0.52098 0.13034 0.08746 0.0
C695 C 0.51039 0.10318 0.09283 0.0
C696 C 0.50618 0.14473 0.13444 0.0
C697 C 0.49775 0.09765 0.11926 0.0
C698 C 0.48411 0.16232 0.17923 0.0
C699 C 0.52349 0.20609 0.18057 0.0
N700 N 0.49589 0.1183 0.13905 0.0
N701 N 0.52301 0.18768 0.15844 0.0
H702 H 0.79244 0.49806 0.17989 0.0
H703 H 0.95036 0.53414 0.12841 0.0
H704 H 0.85064 0.55118 0.22694 0.0
H705 H 0.88579 0.50131 0.07158 0.0
H706 H 0.91404 0.53919 0.16521 0.0
H707 H 0.82575 0.49876 0.13971 0.0
C708 C 0.81199 0.51024 0.18159 0.0
C709 C 0.81899 0.52428 0.2069 0.0
C710 C 0.90777 0.531 0.14466 0.0
C711 C 0.8573 0.5247 0.16139 0.0
C712 C 0.92855 0.52788 0.12369 0.0
C713 C 0.92112 0.5171 0.09695 0.0
C714 C 0.87939 0.523 0.13898 0.0
C715 C 0.89244 0.50972 0.09193 0.0
C716 C 0.83105 0.51048 0.15874 0.0
C717 C 0.84472 0.53953 0.20805 0.0
N718 N 0.8726 0.51262 0.11286 0.0
N719 N 0.86308 0.53908 0.18574 0.0
H720 H 0.5406 0.83906 0.22038 0.0
H721 H 0.489 0.89178 0.06922 0.0
H722 H 0.4775 0.79548 0.16971 0.0
H723 H 0.5283 0.94812 0.12987 0.0
H724 H 0.48637 0.85564 0.10573 0.0
H725 H 0.53732 0.87936 0.18804 0.0
C726 C 0.52577 0.83814 0.20271 0.0
C727 C 0.50962 0.81376 0.19742 0.0
C728 C 0.49541 0.87596 0.11115 0.0
C729 C 0.50615 0.85936 0.1603 0.0
C730 C 0.49713 0.89653 0.09025 0.0
C731 C 0.50909 0.9229 0.0965 0.0
C732 C 0.50607 0.8816 0.13844 0.0
C733 C 0.51891 0.92803 0.12421 0.0
C734 C 0.524 0.86106 0.18424 0.0
C735 C 0.49086 0.8136 0.17415 0.0
N736 N 0.51745 0.90741 0.14417 0.0
N737 N 0.48989 0.83591 0.15628 0.0
H738 H 0.18634 0.49807 0.22243 0.0
H739 H 0.1349 0.53591 0.0668 0.0
H740 H 0.22516 0.56381 0.17206 0.0
H741 H 0.07802 0.49759 0.12803 0.0
H742 H 0.17026 0.54281 0.10441 0.0
H743 H 0.14697 0.49559 0.18814 0.0
C744 C 0.18629 0.51236 0.20449 0.0
C745 C 0.20925 0.53086 0.1998 0.0
C746 C 0.14999 0.53296 0.1096 0.0
C747 C 0.16491 0.52758 0.16032 0.0
C748 C 0.12996 0.52875 0.0881 0.0
C749 C 0.10357 0.51612 0.09434 0.0
C750 C 0.14372 0.5241 0.13738 0.0
C751 C 0.09811 0.50753 0.12238 0.0
C752 C 0.16396 0.51078 0.18485 0.0
C753 C 0.20821 0.54876 0.17609 0.0
N754 N 0.11812 0.51152 0.14289 0.0
N755 N 0.18664 0.54637 0.157 0.0
H756 H 0.53898 0.79419 0.83279 0.0
H757 H 0.48963 0.94567 0.88317 0.0
H758 H 0.47473 0.84313 0.78913 0.0
H759 H 0.52836 0.88625 0.94103 0.0
H760 H 0.48619 0.90861 0.84753 0.0
H761 H 0.53652 0.82725 0.87271 0.0
C762 C 0.52402 0.8116 0.83182 0.0
C763 C 0.50736 0.81623 0.80746 0.0
C764 C 0.49529 0.90362 0.86808 0.0
C765 C 0.50489 0.85422 0.85256 0.0
C766 C 0.4975 0.92483 0.88835 0.0
C767 C 0.50946 0.91905 0.91502 0.0
C768 C 0.50548 0.87653 0.87437 0.0
C769 C 0.51896 0.89157 0.9207 0.0
C770 C 0.52274 0.8305 0.8545 0.0
C771 C 0.48847 0.8392 0.80722 0.0
N772 N 0.517 0.87131 0.9004 0.0
N773 N 0.48802 0.85754 0.82926 0.0
H774 H 0.18768 0.48318 0.78887 0.0
H775 H 0.13165 0.53605 0.93808 0.0
H776 H 0.22528 0.55331 0.83388 0.0
H777 H 0.0757 0.49302 0.87926 0.0
H778 H 0.16773 0.53967 0.90081 0.0
H779 H 0.14686 0.48454 0.82163 0.0
C780 C 0.18713 0.49914 0.80531 0.0
C781 C 0.21012 0.51785 0.80899 0.0
C782 C 0.14749 0.52958 0.896 0.0
C783 C 0.16403 0.51909 0.84667 0.0
C784 C 0.127 0.52728 0.91732 0.0
C785 C 0.10073 0.51409 0.91175 0.0
C786 C 0.14189 0.51822 0.86903 0.0
C787 C 0.0957 0.5034 0.88438 0.0
C788 C 0.16394 0.4998 0.82405 0.0
C789 C 0.20838 0.538 0.83075 0.0
N790 N 0.11626 0.50546 0.86402 0.0
N791 N 0.18594 0.53783 0.84901 0.0
H792 H 0.4957 0.18401 0.78636 0.0
H793 H 0.53937 0.1299 0.93917 0.0
H794 H 0.56059 0.22378 0.83797 0.0
H795 H 0.50045 0.07444 0.87748 0.0
H796 H 0.54499 0.16552 0.90244 0.0
H797 H 0.49593 0.14364 0.81882 0.0
C798 C 0.51033 0.18402 0.80421 0.0
C799 C 0.5278 0.20744 0.80981 0.0
C800 C 0.53536 0.14551 0.89685 0.0
C801 C 0.52775 0.16184 0.84707 0.0
C802 C 0.53189 0.12526 0.91788 0.0
C803 C 0.51924 0.09928 0.91136 0.0
C804 C 0.52575 0.13992 0.86917 0.0
C805 C 0.51034 0.09424 0.88333 0.0
C806 C 0.51034 0.16108 0.82276 0.0
C807 C 0.54625 0.20646 0.8333 0.0
N808 N 0.51352 0.11455 0.86323 0.0
N809 N 0.54546 0.18421 0.85127 0.0
H810 H 0.78907 0.52261 0.8347 0.0
H811 H 0.94502 0.48149 0.88528 0.0
H812 H 0.84281 0.46324 0.79016 0.0
H813 H 0.88325 0.5192 0.94211 0.0
H814 H 0.90725 0.47471 0.85027 0.0
H815 H 0.82176 0.52044 0.87531 0.0
C816 C 0.80737 0.50862 0.83374 0.0
C817 C 0.81357 0.49345 0.8089 0.0
C818 C 0.90189 0.4843 0.87047 0.0
C819 C 0.85124 0.4914 0.85479 0.0
C820 C 0.92351 0.48845 0.89036 0.0
C821 C 0.91731 0.5012 0.91652 0.0
C822 C 0.87391 0.49332 0.87658 0.0
C823 C 0.88896 0.50934 0.92214 0.0
C824 C 0.82611 0.50754 0.85682 0.0
C825 C 0.83764 0.47578 0.80869 0.0
N826 N 0.86831 0.50553 0.90218 0.0
N827 N 0.85585 0.47558 0.8311 0.0
H828 H 0.72644 0.68119 0.05266 0.0
H829 H 0.57942 0.63141 0.9836 0.0
H830 H 0.68967 0.7233 0.98005 0.0
H831 H 0.63613 0.57596 0.02964 0.0
H832 H 0.61492 0.66912 0.98783 0.0
H833 H 0.68768 0.64679 0.05115 0.0
C834 C 0.71006 0.68329 0.0365 0.0
C835 C 0.71152 0.70477 0.01609 0.0
C836 C 0.61953 0.64867 0.99692 0.0
C837 C 0.6671 0.66566 0.01443 0.0
C838 C 0.59935 0.62717 0.99457 0.0
C839 C 0.60494 0.60053 0.00625 0.0
C840 C 0.64518 0.64355 0.01146 0.0
C841 C 0.6311 0.59612 0.02011 0.0
C842 C 0.68802 0.66365 0.03565 0.0
C843 C 0.68934 0.707 0.99613 0.0
N844 N 0.65021 0.61751 0.02249 0.0
N845 N 0.66805 0.68747 0.99564 0.0
H846 H 0.34002 0.72714 0.98907 0.0
H847 H 0.39165 0.57364 0.02993 0.0
H848 H 0.29922 0.67662 0.05373 0.0
H849 H 0.449 0.63411 0.99159 0.0
H850 H 0.35612 0.61075 0.03597 0.0
H851 H 0.37997 0.69367 0.98814 0.0
C852 C 0.33972 0.70931 1.00342 0.0
C853 C 0.31609 0.70434 0.02116 0.0
C854 C 0.37653 0.61593 0.02634 0.0
C855 C 0.36115 0.66589 0.01973 0.0
C856 C 0.39671 0.5947 0.02264 0.0
C857 C 0.42324 0.6008 0.01014 0.0
C858 C 0.38276 0.64337 0.01712 0.0
C859 C 0.42878 0.62855 1.00139 0.0
C860 C 0.3624 0.69017 1.00275 0.0
C861 C 0.3167 0.68084 0.03921 0.0
N862 N 0.40858 0.64884 1.00486 0.0
N863 N 0.33867 0.66228 0.03775 0.0
H864 H 0.29726 0.34492 0.95371 0.0
H865 H 0.4482 0.38685 0.02056 0.0
H866 H 0.3383 0.29526 0.01881 0.0
H867 H 0.39099 0.44631 0.9806 0.0
H868 H 0.41234 0.34986 0.01383 0.0
H869 H 0.33663 0.37864 0.9561 0.0
C870 C 0.3147 0.34101 0.96836 0.0
C871 C 0.3143 0.31756 0.98648 0.0
C872 C 0.4077 0.37102 0.00659 0.0
C873 C 0.35938 0.35593 0.98917 0.0
C874 C 0.4281 0.39213 0.01039 0.0
C875 C 0.42247 0.41971 1.00121 0.0
C876 C 0.38174 0.3775 0.99316 0.0
C877 C 0.39608 0.4254 0.98825 0.0
C878 C 0.3371 0.36027 0.96972 0.0
C879 C 0.33779 0.3131 1.0045 0.0
N880 N 0.37672 0.40441 0.98449 0.0
N881 N 0.35935 0.3323 1.00559 0.0
H882 H 0.72663 0.34145 0.06121 0.0
H883 H 0.57787 0.38631 0.99188 0.0
H884 H 0.68701 0.29369 0.99375 0.0
H885 H 0.63566 0.44474 0.03267 0.0
H886 H 0.61294 0.34868 0.99897 0.0
H887 H 0.68759 0.37551 0.05866 0.0
C888 C 0.70952 0.33799 0.04606 0.0
C889 C 0.71029 0.31504 0.02728 0.0
C890 C 0.61788 0.36975 0.00632 0.0
C891 C 0.66562 0.35379 0.02438 0.0
C892 C 0.59795 0.39121 1.0023 0.0
C893 C 0.60399 0.41868 0.01162 0.0
C894 C 0.64375 0.37576 0.02014 0.0
C895 C 0.63031 0.42392 0.0249 0.0
C896 C 0.68733 0.35745 0.04459 0.0
C897 C 0.68723 0.31114 0.00857 0.0
N898 N 0.64919 0.40258 0.02891 0.0
N899 N 0.66588 0.33054 0.00739 0.0
H900 H 0.00026 0.7306 0.67454 0.0
H901 H 0.04199 0.57691 0.62439 0.0
H902 H 0.05889 0.67696 0.72025 0.0
H903 H 0.00399 0.63764 0.56746 0.0
H904 H 0.04855 0.61396 0.65952 0.0
H905 H 0.00276 0.69835 0.63403 0.0
C906 C 0.01415 0.71238 0.6758 0.0
C907 C 0.02902 0.70613 0.70092 0.0
C908 C 0.03894 0.61927 0.63928 0.0
C909 C 0.03146 0.66899 0.65509 0.0
C910 C 0.03493 0.59805 0.6193 0.0
C911 C 0.02214 0.60415 0.59308 0.0
C912 C 0.02976 0.64676 0.63319 0.0
C913 C 0.01388 0.63203 0.58747 0.0
C914 C 0.01542 0.69389 0.65277 0.0
C915 C 0.04655 0.68217 0.7015 0.0
N916 N 0.01756 0.6523 0.60752 0.0
N917 N 0.04696 0.66425 0.67909 0.0
H918 H 0.29166 0.03919 0.67854 0.0
H919 H 0.44467 0.98823 0.62757 0.0
H920 H 0.34053 0.97517 0.7219 0.0
H921 H 0.38459 0.02676 0.56967 0.0
H922 H 0.40696 0.98539 0.66328 0.0
H923 H 0.32485 0.03594 0.63825 0.0
C924 C 0.30904 0.02411 0.67935 0.0
C925 C 0.31372 1.00779 0.70374 0.0
C926 C 0.40197 0.99431 0.6427 0.0
C927 C 0.35184 1.00439 0.65827 0.0
C928 C 0.42355 0.99618 0.6224 0.0
C929 C 0.41777 1.00789 0.5957 0.0
C930 C 0.3745 1.00461 0.63641 0.0
C931 C 0.38992 0.01754 0.59002 0.0
C932 C 0.32803 0.02238 0.65647 0.0
C933 C 0.33661 0.98866 0.70377 0.0
N934 N 0.36932 0.01592 0.61035 0.0
N935 N 0.35505 0.98777 0.68157 0.0
H936 H 0.06373 0.29766 0.67134 0.0
H937 H 0.00138 0.44947 0.63311 0.0
H938 H 0.99814 0.33778 0.72181 0.0
H939 H 0.04106 0.39333 0.57251 0.0
H940 H 0.00729 0.41337 0.66996 0.0
H941 H 0.06372 0.33808 0.63942 0.0
C942 C 0.04944 0.31509 0.67578 0.0
C943 C 0.03048 0.31416 0.69889 0.0
C944 C 0.01472 0.40911 0.64858 0.0
C945 C 0.03053 0.3605 0.6626 0.0
C946 C 0.0114 0.42963 0.6276 0.0
C947 C 0.0205 0.42423 0.59969 0.0
C948 C 0.02766 0.38335 0.64159 0.0
C949 C 0.03336 0.39823 0.59365 0.0
C950 C 0.04947 0.33813 0.65759 0.0
C951 C 0.01301 0.33765 0.70414 0.0
N952 N 0.0366 0.37879 0.61446 0.0
N953 N 0.01323 0.35985 0.68591 0.0
H954 H 0.73003 0.9725 0.67314 0.0
H955 H 0.57424 0.02686 0.63079 0.0
H956 H 0.68474 0.03556 0.72164 0.0
H957 H 0.63333 0.98837 0.57174 0.0
H958 H 0.61047 0.02315 0.66811 0.0
H959 H 0.68986 0.97017 0.64009 0.0
C960 C 0.71148 0.98569 0.67694 0.0
C961 C 0.71087 1.00465 0.6998 0.0
C962 C 0.61541 0.01551 0.64698 0.0
C963 C 0.66492 1.00198 0.66222 0.0
C964 C 0.5948 0.01759 0.62569 0.0
C965 C 0.60091 1.00808 0.59808 0.0
C966 C 0.64209 1.0035 0.64067 0.0
C967 C 0.62787 0.99628 0.59263 0.0
C968 C 0.68863 0.98436 0.65809 0.0
C969 C 0.68606 0.02072 0.70421 0.0
N970 N 0.64747 0.99427 0.61379 0.0
N971 N 0.66408 0.01923 0.68536 0.0
H972 H 0.039 0.29479 0.33421 0.0
H973 H 0.98645 0.44425 0.38703 0.0
H974 H 0.97389 0.34326 0.29129 0.0
H975 H 0.02774 0.38529 0.44358 0.0
H976 H 0.98293 0.40741 0.35123 0.0
H977 H 0.0356 0.32688 0.37483 0.0
C978 C 0.02366 0.31187 0.33354 0.0
C979 C 0.00703 0.31669 0.30919 0.0
C980 C 0.99259 0.40243 0.37153 0.0
C981 C 0.00344 0.35358 0.35515 0.0
C982 C 0.99483 0.42353 0.39189 0.0
C983 C 0.00764 0.41785 0.41819 0.0
C984 C 0.0036 0.37555 0.37732 0.0
C985 C 0.01774 0.39052 0.42351 0.0
C986 C 0.02183 0.33023 0.35664 0.0
C987 C 0.98762 0.33922 0.30936 0.0
N988 N 0.01578 0.37037 0.40308 0.0
N989 N 0.98662 0.35704 0.33182 0.0
H990 H 0.733 0.04508 0.34105 0.0
H991 H 0.575 0.99526 0.38149 0.0
H992 H 0.68494 0.98543 0.29077 0.0
H993 H 0.63485 0.03011 0.44205 0.0
H994 H 0.61172 0.99865 0.34463 0.0
H995 H 0.69318 0.04755 0.3746 0.0
C996 C 0.71398 0.03264 0.33699 0.0
C997 C 0.71244 0.01465 0.31336 0.0
C998 C 0.61674 1.00556 0.36599 0.0
C999 C 0.66684 0.0176 0.35146 0.0
C1000 C 0.59584 1.00367 0.38703 0.0
C1001 C 0.60199 0.01224 0.41492 0.0
C1002 C 0.6438 0.01641 0.37284 0.0
C1003 C 0.62933 0.02294 0.42091 0.0
C1004 C 0.69131 0.03408 0.35611 0.0
C1005 C 0.68701 0.99958 0.30869 0.0
N1006 N 0.64924 0.02477 0.39999 0.0
N1007 N 0.66523 1.00122 0.32775 0.0
H1008 H 0.03867 0.68148 0.28851 0.0
H1009 H 0.98475 0.62885 0.43883 0.0
H1010 H 0.97455 0.725 0.33798 0.0
H1011 H 0.02532 0.57262 0.37892 0.0
H1012 H 0.98195 0.66469 0.40199 0.0
H1013 H 0.03448 0.64106 0.32057 0.0
C1014 C 0.0234 0.68236 0.30583 0.0
C1015 C 0.00726 0.70679 0.3109 0.0
C1016 C 0.99128 0.64445 0.39679 0.0
C1017 C 0.00276 0.66101 0.34775 0.0
C1018 C 0.99308 0.62405 0.41788 0.0
C1019 C 0.00551 0.59783 0.41195 0.0
C1020 C 0.00235 0.63878 0.36966 0.0
C1021 C 0.01558 0.5926 0.38434 0.0
C1022 C 0.02111 0.65936 0.32416 0.0
C1023 C 0.98793 0.70686 0.33373 0.0
N1024 N 0.01408 0.61307 0.36422 0.0
N1025 N 0.98648 0.68447 0.3515 0.0
H1026 H 0.34157 0.057 0.29127 0.0
H1027 H 0.38605 0.99213 0.44068 0.0
H1028 H 0.29735 0.98547 0.32718 0.0
H1029 H 0.44517 0.03441 0.38441 0.0
H1030 H 0.34875 0.99611 0.40422 0.0
H1031 H 0.37473 0.05636 0.33125 0.0
C1032 C 0.33877 0.04122 0.30767 0.0
C1033 C 0.31707 0.02086 0.30563 0.0
C1034 C 0.36991 1.00447 0.39998 0.0
C1035 C 0.35469 0.0203 0.35151 0.0
C1036 C 0.39114 1.00228 0.42069 0.0
C1037 C 0.41872 0.01286 0.41541 0.0
C1038 C 0.37627 0.01781 0.37417 0.0
C1039 C 0.42427 0.02571 0.38919 0.0
C1040 C 0.35767 0.04091 0.33043 0.0
C1041 C 0.31385 1.00148 0.32791 0.0
N1042 N 0.40315 0.02797 0.36958 0.0
N1043 N 0.33268 1.00152 0.34993 0.0
H1044 H 0.98486 0.21947 0.32078 0.0
H1045 H 0.03048 0.06707 0.37796 0.0
H1046 H 0.02732 0.15699 0.26949 0.0
H1047 H 0.00179 0.1333 0.43403 0.0
H1048 H 0.02893 0.09991 0.33831 0.0
H1049 H 0.99069 0.18895 0.36258 0.0
C1050 C 0.99562 0.19941 0.31839 0.0
C1051 C 0.0054 0.19063 0.29157 0.0
C1052 C 0.02307 0.1074 0.35926 0.0
C1053 C 0.01195 0.15543 0.33925 0.0
C1054 C 0.02385 0.08855 0.38205 0.0
C1055 C 0.01612 0.09724 0.40959 0.0
C1056 C 0.01423 0.13533 0.36367 0.0
C1057 C 0.00798 0.12556 0.41328 0.0
C1058 C 0.99889 0.18196 0.34223 0.0
C1059 C 0.01924 0.16446 0.2897 0.0
N1060 N 0.00705 0.14349 0.39059 0.0
N1061 N 0.02186 0.14774 0.31308 0.0
H1062 H 0.7987 0.96344 0.33522 0.0
H1063 H 0.95177 0.02433 0.37953 0.0
H1064 H 0.84096 0.02772 0.28596 0.0
H1065 H 0.89188 0.98684 0.43835 0.0
H1066 H 0.91625 0.0192 0.34149 0.0
H1067 H 0.8386 0.96376 0.36872 0.0
C1068 C 0.81676 0.97722 0.33117 0.0
C1069 C 0.81648 0.99577 0.30797 0.0
C1070 C 0.91097 0.01213 0.36273 0.0
C1071 C 0.86207 0.99652 0.34645 0.0
C1072 C 0.93117 0.01501 0.38446 0.0
C1073 C 0.92474 1.00609 0.41224 0.0
C1074 C 0.88435 0.99976 0.36869 0.0
C1075 C 0.8977 0.99425 0.41737 0.0
C1076 C 0.83938 0.97757 0.35042 0.0
C1077 C 0.84045 0.01306 0.30357 0.0
N1078 N 0.8786 0.9913 0.39578 0.0
N1079 N 0.86224 0.01325 0.32286 0.0
H1080 H 0.9928 0.83579 0.28559 0.0
H1081 H 0.03488 0.8858 0.44227 0.0
H1082 H 0.05266 0.79183 0.33935 0.0
H1083 H 0.00042 0.94397 0.3807 0.0
H1084 H 0.03802 0.84994 0.40513 0.0
H1085 H 0.99312 0.8754 0.31959 0.0
C1086 C 0.00639 0.83469 0.3042 0.0
C1087 C 0.02244 0.8103 0.30979 0.0
C1088 C 0.02982 0.87057 0.39969 0.0
C1089 C 0.02238 0.85504 0.34901 0.0
C1090 C 0.02783 0.89104 0.42099 0.0
C1091 C 0.01735 0.91803 0.41472 0.0
C1092 C 0.02091 0.87684 0.37184 0.0
C1093 C 0.00876 0.92352 0.38656 0.0
C1094 C 0.0064 0.85717 0.3237 0.0
C1095 C 0.03954 0.80997 0.33439 0.0
N1096 N 0.01055 0.90309 0.36623 0.0
N1097 N 0.03876 0.8317 0.35316 0.0
H1098 H 0.21896 0.04849 0.31527 0.0
H1099 H 0.07803 0.98189 0.3848 0.0
H1100 H 0.15965 0.99478 0.27076 0.0
H1101 H 0.1393 0.02966 0.43369 0.0
H1102 H 0.10962 0.98441 0.34384 0.0
H1103 H 0.19219 0.04024 0.35954 0.0
C1104 C 0.20028 0.03494 0.31491 0.0
C1105 C 0.19105 0.02274 0.28932 0.0
C1106 C 0.1164 0.99421 0.3635 0.0
C1107 C 0.16055 0.01301 0.3397 0.0
C1108 C 0.0983 0.99281 0.38698 0.0
C1109 C 0.10589 1.00583 0.4127 0.0
C1110 C 0.14235 1.00902 0.36542 0.0
C1111 C 0.13262 0.01932 0.41428 0.0
C1112 C 0.18509 0.03018 0.34013 0.0
C1113 C 0.16713 1.00494 0.28998 0.0
N1114 N 0.14978 0.02087 0.39083 0.0
N1115 N 0.15259 1.00082 0.31466 0.0
H1116 H 0.98633 0.79549 0.68327 0.0
H1117 H 0.02079 0.95336 0.63292 0.0
H1118 H 0.00665 0.86357 0.74032 0.0
H1119 H 0.00415 0.88574 0.57377 0.0
H1120 H 0.01733 0.92006 0.67199 0.0
H1121 H 0.99477 0.82708 0.64271 0.0
C1122 C 0.99274 0.81707 0.68721 0.0
C1123 C 0.9954 0.82708 0.71518 0.0
C1124 C 0.01452 0.91239 0.6505 0.0
C1125 C 0.00508 0.86339 0.66894 0.0
C1126 C 0.01644 0.93149 0.62801 0.0
C1127 C 0.01263 0.92255 0.59975 0.0
C1128 C 0.00859 0.8839 0.64503 0.0
C1129 C 0.00724 0.89374 0.59509 0.0
C1130 C 0.99751 0.83511 0.66408 0.0
C1131 C 0.00405 0.85511 0.71911 0.0
N1132 N 0.00524 0.87551 0.61746 0.0
N1133 N 0.00834 0.87229 0.69633 0.0
H1134 H 0.15628 0.03071 0.74229 0.0
H1135 H 0.13881 0.99183 0.57697 0.0
H1136 H 0.21582 0.97729 0.6977 0.0
H1137 H 0.07529 0.03539 0.62714 0.0
H1138 H 0.17019 0.99028 0.61897 0.0
H1139 H 0.1289 0.03646 0.69836 0.0
C1140 C 0.16344 0.0201 0.72318 0.0
C1141 C 0.18788 1.00304 0.72366 0.0
C1142 C 0.14943 1.0003 0.62064 0.0
C1143 C 0.15702 1.00974 0.67312 0.0
C1144 C 0.13162 1.00134 0.59665 0.0
C1145 C 0.10428 0.01351 0.5986 0.0
C1146 C 0.13987 0.01176 0.64656 0.0
C1147 C 0.096 0.02541 0.62468 0.0
C1148 C 0.14792 0.02341 0.69808 0.0
C1149 C 0.19674 0.99024 0.69822 0.0
N1150 N 0.11363 0.02416 0.64754 0.0
N1151 N 0.18123 0.99371 0.67396 0.0
H1152 H 0.06234 0.22275 0.67552 0.0
H1153 H 0.99287 0.07705 0.62688 0.0
H1154 H 0.98781 0.18962 0.71816 0.0
H1155 H 0.03826 0.13271 0.57008 0.0
H1156 H 0.99589 0.11305 0.6643 0.0
H1157 H 0.05999 0.1841 0.64151 0.0
C1158 C 0.04558 0.20714 0.67792 0.0
C1159 C 0.02491 0.20981 0.69952 0.0
C1160 C 0.0051 0.11734 0.64362 0.0
C1161 C 0.02226 0.16509 0.66042 0.0
C1162 C 0.00347 0.09682 0.62224 0.0
C1163 C 0.01531 0.10184 0.59518 0.0
C1164 C 0.01924 0.14286 0.63818 0.0
C1165 C 0.02865 0.12792 0.59046 0.0
C1166 C 0.04421 0.18512 0.65836 0.0
C1167 C 0.00413 0.18848 0.70186 0.0
N1168 N 0.03047 0.14728 0.61177 0.0
N1169 N 0.00321 0.16706 0.68241 0.0
H1170 H 0.79651 0.05363 0.67373 0.0
H1171 H 0.9505 0.99529 0.62922 0.0
H1172 H 0.84077 0.99112 0.7235 0.0
H1173 H 0.89059 0.03265 0.57046 0.0
H1174 H 0.91477 0.99966 0.66711 0.0
H1175 H 0.83595 0.05359 0.63969 0.0
C1176 C 0.81485 0.04021 0.6777 0.0
C1177 C 0.81527 0.02208 0.70126 0.0
C1178 C 0.90951 1.00687 0.64592 0.0
C1179 C 0.86043 0.02176 0.66221 0.0
C1180 C 0.92984 1.00443 0.62426 0.0
C1181 C 0.92349 0.01356 0.59655 0.0
C1182 C 0.88279 0.01896 0.63996 0.0
C1183 C 0.89635 0.02512 0.5914 0.0
C1184 C 0.83723 0.04005 0.65817 0.0
C1185 C 0.83966 1.00539 0.70561 0.0
N1186 N 0.87708 0.02762 0.61293 0.0
N1187 N 0.86123 1.00541 0.68605 0.0
H1188 H 0.33756 0.06016 0.21414 0.0
H1189 H 0.38884 0.99111 0.06828 0.0
H1190 H 0.2959 0.98659 0.17967 0.0
H1191 H 0.44482 0.037 0.12474 0.0
H1192 H 0.35022 0.99523 0.10344 0.0
H1193 H 0.37173 0.05907 0.1749 0.0
C1194 C 0.33535 0.044 0.19802 0.0
C1195 C 0.31414 0.02314 0.20041 0.0
C1196 C 0.37097 1.00435 0.10805 0.0
C1197 C 0.35326 0.02182 0.15541 0.0
C1198 C 0.39301 1.00207 0.08806 0.0
C1199 C 0.42014 0.01367 0.09366 0.0
C1200 C 0.37594 0.01886 0.13354 0.0
C1201 C 0.42435 0.02753 0.11964 0.0
C1202 C 0.35496 0.04332 0.17574 0.0
C1203 C 0.31194 1.00303 0.17863 0.0
N1204 N 0.40243 0.0299 0.13852 0.0
N1205 N 0.33149 1.00269 0.15709 0.0
H1206 H 0.05369 0.34391 0.22344 0.0
H1207 H 0.99461 0.38799 0.07031 0.0
H1208 H 0.99041 0.2941 0.17957 0.0
H1209 H 0.0329 0.44637 0.12947 0.0
H1210 H 0.99818 0.35073 0.10618 0.0
H1211 H 0.05286 0.37802 0.18469 0.0
C1212 C 0.0399 0.33993 0.20536 0.0
C1213 C 0.02187 0.31619 0.20492 0.0
C1214 C 0.00575 0.3717 0.11129 0.0
C1215 C 0.0207 0.35552 0.1603 0.0
C1216 C 0.00379 0.39304 0.09082 0.0
C1217 C 0.01344 0.42052 0.09682 0.0
C1218 C 0.01793 0.37763 0.13788 0.0
C1219 C 0.02499 0.42566 0.12388 0.0
C1220 C 0.0393 0.35955 0.18333 0.0
C1221 C 0.0047 0.31202 0.18077 0.0
N1222 N 0.02707 0.40443 0.14326 0.0
N1223 N 0.00436 0.33162 0.15949 0.0
H1224 H 0.70382 0.99008 0.21124 0.0
H1225 H 0.63567 0.03686 0.063 0.0
H1226 H 0.74548 0.04547 0.15149 0.0
H1227 H 0.58541 0.99675 0.12851 0.0
H1228 H 0.67645 0.03817 0.09494 0.0
H1229 H 0.66101 0.99011 0.18123 0.0
C1230 C 0.70407 1.00222 0.19182 0.0
C1231 C 0.72854 0.01759 0.18369 0.0
C1232 C 0.65654 0.02915 0.10251 0.0
C1233 C 0.6794 0.0177 0.14928 0.0
C1234 C 0.63316 0.02829 0.0842 0.0
C1235 C 0.60703 0.01647 0.09299 0.0
C1236 C 0.65414 0.01788 0.12994 0.0
C1237 C 0.60511 1.0061 0.12088 0.0
C1238 C 0.67953 1.00224 0.17471 0.0
C1239 C 0.72732 0.03299 0.15832 0.0
N1240 N 0.62847 1.00682 0.13833 0.0
N1241 N 0.70332 0.03253 0.142 0.0
H1242 H 0.02697 0.74623 0.14996 0.0
H1243 H 0.99924 0.5802 0.12894 0.0
H1244 H 0.98409 0.69523 0.21257 0.0
H1245 H 0.0271 0.63619 0.06217 0.0
H1246 H 0.99821 0.62045 0.16183 0.0
H1247 H 0.03212 0.70456 0.11957 0.0
C1248 C 0.01876 0.72617 0.15733 0.0
C1249 C 0.00477 0.72424 0.18363 0.0
C1250 C 0.00462 0.62384 0.13998 0.0
C1251 C 0.01069 0.67626 0.14906 0.0
C1252 C 0.00532 0.60083 0.1212 0.0
C1253 C 0.01311 0.60469 0.09259 0.0
C1254 C 0.01206 0.6509 0.13022 0.0
C1255 C 0.02067 0.63206 0.08388 0.0
C1256 C 0.02164 0.70238 0.13999 0.0
C1257 C 0.99484 0.69765 0.19234 0.0
N1258 N 0.01995 0.65395 0.10252 0.0
N1259 N 0.99786 0.67474 0.17507 0.0
H1260 H 0.28976 0.99253 0.83298 0.0
H1261 H 0.44812 0.032 0.88097 0.0
H1262 H 0.34277 0.05324 0.78959 0.0
H1263 H 0.38708 0.99661 0.94 0.0
H1264 H 0.4099 0.03682 0.84598 0.0
H1265 H 0.32445 0.99204 0.87239 0.0
C1266 C 0.30834 1.00616 0.83205 0.0
C1267 C 0.31366 0.02264 0.80789 0.0
C1268 C 0.40483 0.02807 0.86662 0.0
C1269 C 0.35352 0.02171 0.85222 0.0
C1270 C 0.42672 0.02508 0.88653 0.0
C1271 C 0.42084 0.01383 0.91345 0.0
C1272 C 0.37686 0.0194 0.87345 0.0
C1273 C 0.39256 1.00549 0.91952 0.0
C1274 C 0.32821 1.00573 0.85437 0.0
C1275 C 0.33814 0.03983 0.80763 0.0
N1276 N 0.37163 1.00827 0.8996 0.0
N1277 N 0.35732 0.03861 0.8292 0.0
H1278 H 0.01391 0.27423 0.85834 0.0
H1279 H 0.0013 0.44211 0.87903 0.0
H1280 H 0.98734 0.33019 0.79139 0.0
H1281 H 0.02001 0.38368 0.94678 0.0
H1282 H 0.99945 0.40237 0.84566 0.0
H1283 H 0.02003 0.31489 0.88992 0.0
C1284 C 0.0095 0.29515 0.85029 0.0
C1285 C -0.00028 0.29881 0.82237 0.0
C1286 C 0.00405 0.39831 0.86783 0.0
C1287 C 0.00671 0.34567 0.85837 0.0
C1288 C 0.00517 0.42104 0.88694 0.0
C1289 C 0.01072 0.41643 0.91595 0.0
C1290 C 0.00865 0.37069 0.87768 0.0
C1291 C 0.01547 0.38848 0.92476 0.0
C1292 C 0.01292 0.31839 0.86832 0.0
C1293 C 0.99464 0.32644 0.81289 0.0
N1294 N 0.0143 0.36684 0.90581 0.0
N1295 N 0.99801 0.34877 0.83086 0.0
H1296 H 0.70264 0.97585 0.7976 0.0
H1297 H 0.63651 0.03283 0.94355 0.0
H1298 H 0.74886 0.0265 0.85815 0.0
H1299 H 0.58503 0.99061 0.88036 0.0
H1300 H 0.67729 0.03112 0.91162 0.0
H1301 H 0.65904 0.98126 0.82645 0.0
C1302 C 0.70354 0.98808 0.81701 0.0
C1303 C 0.72943 1.00032 0.82587 0.0
C1304 C 0.65712 0.0223 0.90455 0.0
C1305 C 0.67978 1.0068 0.85879 0.0
C1306 C 0.63372 0.02318 0.92287 0.0
C1307 C 0.60725 0.01158 0.91479 0.0
C1308 C 0.65439 1.00949 0.87781 0.0
C1309 C 0.60501 0.9998 0.88749 0.0
C1310 C 0.67869 0.99122 0.8334 0.0
C1311 C 0.72943 0.01634 0.85087 0.0
N1312 N 0.62837 0.99881 0.87004 0.0
N1313 N 0.70509 0.01894 0.86652 0.0
H1314 H 0.97585 0.67563 0.78201 0.0
H1315 H 0.02562 0.63309 0.93897 0.0
H1316 H 0.03261 0.72758 0.83176 0.0
H1317 H 0.98995 0.57422 0.87865 0.0
H1318 H 0.02288 0.67019 0.90303 0.0
H1319 H 0.97421 0.64144 0.8207 0.0
C1320 C 0.98768 0.68005 0.80131 0.0
C1321 C 0.00467 0.70442 0.80349 0.0
C1322 C 0.01564 0.64917 0.89768 0.0
C1323 C 0.00299 0.66505 0.84803 0.0
C1324 C 0.01714 0.6279 0.9182 0.0
C1325 C 0.00802 0.60031 0.91191 0.0
C1326 C 0.0046 0.64306 0.87065 0.0
C1327 C 0.9974 0.59502 0.8845 0.0
C1328 C 0.98685 0.6604 0.82334 0.0
C1329 C 0.0192 0.70915 0.82917 0.0
N1330 N 0.99588 0.61618 0.86499 0.0
N1331 N 0.01823 0.68952 0.85037 0.0
H1332 H 0.19013 0.29496 0.02947 0.0
H1333 H 0.13373 0.4445 0.97929 0.0
H1334 H 0.21976 0.33638 0.95341 0.0
H1335 H 0.07775 0.38815 0.02509 0.0
H1336 H 0.1687 0.40641 0.97485 0.0
H1337 H 0.15031 0.32907 0.03219 0.0
C1338 C 0.1879 0.31076 0.01304 0.0
C1339 C 0.20848 0.31306 0.99139 0.0
C1340 C 0.14874 0.40237 0.98586 0.0
C1341 C 0.16384 0.35243 0.99485 0.0
C1342 C 0.12887 0.42419 0.98862 0.0
C1343 C 0.10274 0.41954 1.00255 0.0
C1344 C 0.14277 0.37576 0.99756 0.0
C1345 C 0.09757 0.39262 0.01402 0.0
C1346 C 0.16538 0.33034 0.01473 0.0
C1347 C 0.20467 0.33412 0.97075 0.0
N1348 N 0.11748 0.37178 0.01146 0.0
N1349 N 0.18319 0.3532 0.97325 0.0
H1350 H 0.22207 0.68395 0.0543 0.0
H1351 H 0.07713 0.63315 0.98112 0.0
H1352 H 0.19105 0.72468 0.97846 0.0
H1353 H 0.13382 0.57786 0.02719 0.0
H1354 H 0.11286 0.67101 0.98522 0.0
H1355 H 0.18294 0.65006 0.05119 0.0
C1356 C 0.20672 0.68601 0.03717 0.0
C1357 C 0.21013 0.70696 0.01634 0.0
C1358 C 0.11742 0.65056 0.99433 0.0
C1359 C 0.16506 0.66802 0.01271 0.0
C1360 C 0.09708 0.62894 0.99207 0.0
C1361 C 0.10252 0.60221 1.00379 0.0
C1362 C 0.14307 0.64562 0.00902 0.0
C1363 C 0.12877 0.59799 0.01764 0.0
C1364 C 0.1845 0.66652 0.03533 0.0
C1365 C 0.18925 0.70887 0.99493 0.0
N1366 N 0.14789 0.6195 0.02009 0.0
N1367 N 0.16765 0.68946 0.99352 0.0
H1368 H 0.33286 0.22573 0.02833 0.0
H1369 H 0.38582 0.069 0.99269 0.0
H1370 H 0.27688 0.15797 1.00336 0.0
H1371 H 0.44454 0.13631 0.01318 0.0
H1372 H 0.34626 0.10208 0.99531 0.0
H1373 H 0.3743 0.19444 0.02156 0.0
C1374 C 0.32936 0.20426 0.02135 0.0
C1375 C 0.30141 0.19423 0.01682 0.0
C1376 C 0.36775 0.10976 0.99915 0.0
C1377 C 0.34862 0.15836 0.00892 0.0
C1378 C 0.39052 0.09078 0.99772 0.0
C1379 C 0.41878 0.09971 1.00289 0.0
C1380 C 0.37293 0.13809 0.00595 0.0
C1381 C 0.4232 0.12839 0.00902 0.0
C1382 C 0.35297 0.18642 0.01749 0.0
C1383 C 0.29804 0.1664 0.00744 0.0
N1384 N 0.40053 0.14651 0.01055 0.0
N1385 N 0.32128 0.14943 1.004 0.0
H1386 H 0.83417 0.29423 0.98339 0.0
H1387 H 0.88986 0.44399 0.03335 0.0
H1388 H 0.80504 0.33495 0.06009 0.0
H1389 H 0.94561 0.38799 0.98682 0.0
H1390 H 0.85524 0.4056 0.03832 0.0
H1391 H 0.87365 0.32865 0.9805 0.0
C1392 C 0.83645 0.30995 0.99992 0.0
C1393 C 0.81609 0.31199 0.02179 0.0
C1394 C 0.87509 0.40171 0.02705 0.0
C1395 C 0.86033 0.35169 0.01814 0.0
C1396 C 0.89473 0.42369 0.02399 0.0
C1397 C 0.92067 0.41919 0.0097 0.0
C1398 C 0.88114 0.37515 0.01527 0.0
C1399 C 0.92592 0.39231 0.99818 0.0
C1400 C 0.85877 0.3297 0.99813 0.0
C1401 C 0.81994 0.33294 0.04256 0.0
N1402 N 0.90623 0.37132 1.00103 0.0
N1403 N 0.84123 0.35221 0.03996 0.0
H1404 H 0.69769 0.80245 0.03946 0.0
H1405 H 0.63872 0.95228 0.98824 0.0
H1406 H 0.74918 0.86537 0.99775 0.0
H1407 H 0.58303 0.88745 0.02127 0.0
H1408 H 0.67879 0.91982 0.99073 0.0
H1409 H 0.65506 0.83196 0.03203 0.0
C1410 C 0.69993 0.82245 0.02863 0.0
C1411 C 0.727 0.83177 0.01961 0.0
C1412 C 0.65785 0.91253 0.99735 0.0
C1413 C 0.67849 0.86558 0.01099 0.0
C1414 C 0.63483 0.93115 0.99603 0.0
C1415 C 0.60733 0.92276 1.00481 0.0
C1416 C 0.65369 0.88513 0.00775 0.0
C1417 C 0.6038 0.8949 0.0143 0.0
C1418 C 0.67565 0.83927 0.02439 0.0
C1419 C 0.72876 0.85763 1.00538 0.0
N1420 N 0.62676 0.87715 0.01575 0.0
N1421 N 0.70494 0.87371 1.00174 0.0
H1422 H 0.80502 0.6887 0.0564 0.0
H1423 H 0.94626 0.63189 0.98048 0.0
H1424 H 0.83603 0.72599 0.97873 0.0
H1425 H 0.89023 0.57964 0.0309 0.0
H1426 H 0.91206 0.67085 0.98508 0.0
H1427 H 0.84355 0.654 0.05414 0.0
C1428 C 0.82039 0.68995 0.03918 0.0
C1429 C 0.81716 0.71006 0.01753 0.0
C1430 C 0.90729 0.65083 0.99505 0.0
C1431 C 0.86119 0.6702 0.01472 0.0
C1432 C 0.92673 0.62859 0.99247 0.0
C1433 C 0.92101 0.60243 1.00528 0.0
C1434 C 0.88227 0.64709 0.01109 0.0
C1435 C 0.89537 0.59933 0.02047 0.0
C1436 C 0.84217 0.66997 0.03777 0.0
C1437 C 0.83781 0.71088 0.99585 0.0
N1438 N 0.87707 0.62147 0.02317 0.0
N1439 N 0.85887 0.69099 0.99482 0.0
H1440 H 0.27592 0.86312 1.00506 0.0
H1441 H 0.44657 0.88493 0.99471 0.0
H1442 H 0.3336 0.79703 0.97948 0.0
H1443 H 0.3861 0.95131 0.01304 0.0
H1444 H 0.40653 0.85138 0.99235 0.0
H1445 H 0.31696 0.89464 0.01168 0.0
C1446 C 0.2973 0.85528 1.00091 0.0
C1447 C 0.30136 0.82763 0.99127 0.0
C1448 C 0.40212 0.8733 0.99697 0.0
C1449 C 0.34864 0.8635 0.9989 0.0
C1450 C 0.425 0.89248 0.99839 0.0
C1451 C 0.41987 0.92116 1.00391 0.0
C1452 C 0.37387 0.88278 1.00125 0.0
C1453 C 0.39132 0.92957 0.00845 0.0
C1454 C 0.32076 0.87324 1.00465 0.0
C1455 C 0.32956 0.81834 0.98661 0.0
N1456 N 0.36957 0.91057 0.00698 0.0
N1457 N 0.35211 0.83626 0.99028 0.0
H1458 H 0.75044 0.15749 0.00578 0.0
H1459 H 0.58003 0.13681 0.99221 0.0
H1460 H 0.69367 0.22419 0.97993 0.0
H1461 H 0.63961 0.07057 0.01359 0.0
H1462 H 0.62032 0.17008 0.99013 0.0
H1463 H 0.70911 0.12622 0.01145 0.0
C1464 C 0.72919 0.16547 1.00127 0.0
C1465 C 0.72545 0.1932 0.99186 0.0
C1466 C 0.62447 0.14826 0.99536 0.0
C1467 C 0.67787 0.1577 0.99848 0.0
C1468 C 0.60145 0.12925 0.99662 0.0
C1469 C 0.6063 0.10071 1.00292 0.0
C1470 C 0.65251 0.13869 1.00056 0.0
C1471 C 0.63464 0.09222 0.00838 0.0
C1472 C 0.70557 0.14767 1.00451 0.0
C1473 C 0.69743 0.20275 0.98681 0.0
N1474 N 0.65652 0.11103 0.00702 0.0
N1475 N 0.6747 0.18499 0.99 0.0
H1476 H 0.52487 0.65531 0.76827 0.0
H1477 H 0.50129 0.63368 0.9363 0.0
H1478 H 0.48498 0.71784 0.8215 0.0
H1479 H 0.5272 0.56764 0.87868 0.0
H1480 H 0.49967 0.66655 0.896 0.0
H1481 H 0.53069 0.6248 0.80989 0.0
C1482 C 0.51748 0.66265 0.7888 0.0
C1483 C 0.5041 0.68897 0.79137 0.0
C1484 C 0.50578 0.64486 0.89226 0.0
C1485 C 0.51078 0.65422 0.83933 0.0
C1486 C 0.50679 0.62607 0.9153 0.0
C1487 C 0.51423 0.59767 0.91104 0.0
C1488 C 0.5125 0.63532 0.86473 0.0
C1489 C 0.52108 0.58917 0.88318 0.0
C1490 C 0.52073 0.64522 0.81258 0.0
C1491 C 0.49522 0.6976 0.81857 0.0
N1492 N 0.52005 0.60782 0.86125 0.0
N1493 N 0.49857 0.68025 0.84144 0.0
H1494 H 0.33703 0.48026 0.78885 0.0
H1495 H 0.39199 0.53473 0.9384 0.0
H1496 H 0.30309 0.55414 0.83029 0.0
H1497 H 0.44866 0.48976 0.88183 0.0
H1498 H 0.35675 0.53782 0.90015 0.0
H1499 H 0.37716 0.48036 0.82278 0.0
C1500 C 0.33832 0.49679 0.80466 0.0
C1501 C 0.31644 0.51694 0.80704 0.0
C1502 C 0.37695 0.52736 0.89608 0.0
C1503 C 0.3616 0.51671 0.84618 0.0
C1504 C 0.39697 0.52538 0.91798 0.0
C1505 C 0.4233 0.51198 0.91331 0.0
C1506 C 0.38302 0.51542 0.86941 0.0
C1507 C 0.42866 0.50043 0.88629 0.0
C1508 C 0.36106 0.49671 0.82412 0.0
C1509 C 0.31912 0.53781 0.82807 0.0
N1510 N 0.40859 0.5022 0.86538 0.0
N1511 N 0.34094 0.53688 0.84705 0.0
H1512 H 0.48609 0.33226 0.7894 0.0
H1513 H 0.5364 0.38713 0.9413 0.0
H1514 H 0.55905 0.29873 0.83422 0.0
H1515 H 0.49427 0.44329 0.88263 0.0
H1516 H 0.53939 0.35167 0.90368 0.0
H1517 H 0.48453 0.37164 0.82368 0.0
C1518 C 0.50203 0.3334 0.80607 0.0
C1519 C 0.52243 0.31186 0.80917 0.0
C1520 C 0.5295 0.37177 0.89902 0.0
C1521 C 0.52028 0.35623 0.84874 0.0
C1522 C 0.5276 0.39196 0.92058 0.0
C1523 C 0.51513 0.41829 0.91517 0.0
C1524 C 0.51839 0.37762 0.87187 0.0
C1525 C 0.50426 0.42334 0.88772 0.0
C1526 C 0.501 0.35572 0.82573 0.0
C1527 C 0.5425 0.31443 0.83133 0.0
N1528 N 0.50595 0.40315 0.86715 0.0
N1529 N 0.54064 0.33582 0.85039 0.0
H1530 H 0.65848 0.51072 0.76932 0.0
H1531 H 0.64047 0.52504 0.93849 0.0
H1532 H 0.72448 0.54475 0.82327 0.0
H1533 H 0.57547 0.49305 0.88175 0.0
H1534 H 0.67324 0.52932 0.89779 0.0
H1535 H 0.62926 0.50106 0.81139 0.0
C1536 C 0.66672 0.51617 0.79013 0.0
C1537 C 0.69355 0.52905 0.79289 0.0
C1538 C 0.65184 0.5212 0.89438 0.0
C1539 C 0.66046 0.51796 0.84127 0.0
C1540 C 0.63317 0.51865 0.91762 0.0
C1541 C 0.60503 0.50893 0.91358 0.0
C1542 C 0.64231 0.51387 0.86698 0.0
C1543 C 0.59677 0.50102 0.88598 0.0
C1544 C 0.65012 0.51065 0.81416 0.0
C1545 C 0.70361 0.53524 0.82031 0.0
N1546 N 0.61521 0.50379 0.86386 0.0
N1547 N 0.68696 0.52984 0.84347 0.0
H1548 H 0.48207 0.29914 0.18833 0.0
H1549 H 0.52549 0.45267 0.13245 0.0
H1550 H 0.51858 0.36392 0.2412 0.0
H1551 H 0.49986 0.38588 0.07558 0.0
H1552 H 0.52343 0.41986 0.17199 0.0
H1553 H 0.48913 0.32947 0.14654 0.0
C1554 C 0.49179 0.31968 0.19106 0.0
C1555 C 0.49945 0.32919 0.2183 0.0
C1556 C 0.51834 0.41223 0.1509 0.0
C1557 C 0.50746 0.3641 0.17066 0.0
C1558 C 0.51943 0.43106 0.12815 0.0
C1559 C 0.51268 0.42221 0.10042 0.0
C1560 C 0.5102 0.38413 0.14626 0.0
C1561 C 0.50525 0.39374 0.0965 0.0
C1562 C 0.49576 0.337 0.16724 0.0
C1563 C 0.5121 0.3559 0.22065 0.0
N1564 N 0.50401 0.37579 0.11916 0.0
N1565 N 0.51545 0.37245 0.19725 0.0
H1566 H 0.66317 0.4632 0.23401 0.0
H1567 H 0.63779 0.52834 0.07919 0.0
H1568 H 0.71343 0.53255 0.20213 0.0
H1569 H 0.57348 0.48256 0.12622 0.0
H1570 H 0.66975 0.5253 0.12079 0.0
H1571 H 0.6334 0.46554 0.19133 0.0
C1572 C 0.66782 0.47903 0.2181 0.0
C1573 C 0.69066 0.49783 0.22188 0.0
C1574 C 0.64862 0.51593 0.12184 0.0
C1575 C 0.65716 0.50024 0.17253 0.0
C1576 C 0.63051 0.51751 0.09811 0.0
C1577 C 0.60288 0.5059 0.09934 0.0
C1578 C 0.63914 0.50219 0.14662 0.0
C1579 C 0.59445 0.49215 0.12442 0.0
C1580 C 0.65093 0.4803 0.1937 0.0
C1581 C 0.69616 0.51757 0.20024 0.0
N1582 N 0.61248 0.49063 0.14694 0.0
N1583 N 0.67954 0.51824 0.17647 0.0
H1584 H 0.55607 0.72758 0.17249 0.0
H1585 H 0.49673 0.57537 0.12946 0.0
H1586 H 0.49101 0.68584 0.22203 0.0
H1587 H 0.5359 0.63317 0.07031 0.0
H1588 H 0.50001 0.61147 0.16668 0.0
H1589 H 0.55571 0.68841 0.13893 0.0
C1590 C 0.54196 0.7099 0.17653 0.0
C1591 C 0.52329 0.71018 0.19999 0.0
C1592 C 0.50786 0.6162 0.14555 0.0
C1593 C 0.52269 0.66506 0.1613 0.0
C1594 C 0.50607 0.59561 0.12426 0.0
C1595 C 0.51602 0.60119 0.09657 0.0
C1596 C 0.52019 0.64246 0.13935 0.0
C1597 C 0.52776 0.6279 0.09119 0.0
C1598 C 0.54164 0.68762 0.15722 0.0
C1599 C 0.50576 0.68649 0.20429 0.0
N1600 N 0.52967 0.64738 0.11237 0.0
N1601 N 0.50572 0.66494 0.18499 0.0
H1602 H 0.30358 0.56462 0.17904 0.0
H1603 H 0.4477 0.49047 0.12883 0.0
H1604 H 0.33386 0.48935 0.22057 0.0
H1605 H 0.391 0.535 0.07212 0.0
H1606 H 0.41215 0.49553 0.16699 0.0
H1607 H 0.34277 0.56099 0.14496 0.0
C1608 C 0.31878 0.54751 0.18122 0.0
C1609 C 0.31517 0.52695 0.20238 0.0
C1610 C 0.40755 0.50408 0.14616 0.0
C1611 C 0.36018 0.52277 0.16337 0.0
C1612 C 0.42776 0.50126 0.12439 0.0
C1613 C 0.42222 0.51228 0.09722 0.0
C1614 C 0.38198 0.51863 0.14087 0.0
C1615 C 0.39604 0.52598 0.09264 0.0
C1616 C 0.34102 0.54539 0.16166 0.0
C1617 C 0.33584 0.50559 0.20455 0.0
N1618 N 0.37702 0.52899 0.11431 0.0
N1619 N 0.35743 0.50388 0.18507 0.0
H1620 H 0.79126 0.49192 0.67756 0.0
H1621 H 0.95081 0.53161 0.6315 0.0
H1622 H 0.84795 0.54323 0.72815 0.0
H1623 H 0.88832 0.49996 0.57183 0.0
H1624 H 0.91332 0.53454 0.66758 0.0
H1625 H 0.82577 0.49445 0.63817 0.0
C1626 C 0.81068 0.50414 0.68017 0.0
C1627 C 0.81694 0.51704 0.70627 0.0
C1628 C 0.90777 0.52707 0.64655 0.0
C1629 C 0.85668 0.51953 0.66173 0.0
C1630 C 0.92925 0.52521 0.62597 0.0
C1631 C 0.9228 0.51549 0.59856 0.0
C1632 C 0.87963 0.51885 0.63985 0.0
C1633 C 0.89433 0.50769 0.59264 0.0
C1634 C 0.83046 0.5054 0.65781 0.0
C1635 C 0.84253 0.53247 0.70858 0.0
N1636 N 0.87385 0.50937 0.61315 0.0
N1637 N 0.86156 0.53299 0.68679 0.0
H1638 H 0.55505 0.83984 0.72056 0.0
H1639 H 0.49192 0.88731 0.57016 0.0
H1640 H 0.48793 0.79286 0.67925 0.0
H1641 H 0.5328 0.94412 0.62916 0.0
H1642 H 0.49581 0.84943 0.60538 0.0
H1643 H 0.55406 0.87412 0.68194 0.0
C1644 C 0.54044 0.83646 0.703 0.0
C1645 C 0.52139 0.81352 0.70325 0.0
C1646 C 0.50389 0.87019 0.61059 0.0
C1647 C 0.51994 0.85307 0.6589 0.0
C1648 C 0.50173 0.89187 0.59051 0.0
C1649 C 0.51201 0.91908 0.59668 0.0
C1650 C 0.51693 0.87552 0.6369 0.0
C1651 C 0.52438 0.92363 0.62348 0.0
C1652 C 0.53972 0.8562 0.68109 0.0
C1653 C 0.50305 0.81014 0.67985 0.0
N1654 N 0.52666 0.90207 0.64245 0.0
N1655 N 0.5026 0.82985 0.65867 0.0
H1656 H 0.2096 0.48763 0.70649 0.0
H1657 H 0.13686 0.53837 0.56218 0.0
H1658 H 0.24598 0.55093 0.6515 0.0
H1659 H 0.08845 0.49609 0.62766 0.0
H1660 H 0.17807 0.54006 0.59368 0.0
H1661 H 0.1663 0.48733 0.67716 0.0
C1662 C 0.20854 0.50155 0.68836 0.0
C1663 C 0.23159 0.51941 0.68142 0.0
C1664 C 0.15846 0.5305 0.60131 0.0
C1665 C 0.18207 0.51885 0.64762 0.0
C1666 C 0.13487 0.52941 0.58326 0.0
C1667 C 0.10913 0.51691 0.59222 0.0
C1668 C 0.15665 0.5187 0.62857 0.0
C1669 C 0.10784 0.50598 0.61993 0.0
C1670 C 0.18374 0.50134 0.67161 0.0
C1671 C 0.22884 0.53673 0.65747 0.0
N1672 N 0.13139 0.50689 0.63708 0.0
N1673 N 0.20469 0.53592 0.6414 0.0
H1674 H 0.48161 0.19186 0.71952 0.0
H1675 H 0.52597 0.13481 0.56521 0.0
H1676 H 0.51483 0.24398 0.65227 0.0
H1677 H 0.49617 0.07953 0.63179 0.0
H1678 H 0.52361 0.17424 0.59794 0.0
H1679 H 0.48848 0.1501 0.68926 0.0
C1680 C 0.49046 0.19445 0.6984 0.0
C1681 C 0.49726 0.22145 0.68817 0.0
C1682 C 0.51764 0.15354 0.60556 0.0
C1683 C 0.50528 0.17382 0.65346 0.0
C1684 C 0.51891 0.13084 0.58677 0.0
C1685 C 0.51102 0.10358 0.59553 0.0
C1686 C 0.50826 0.14936 0.63358 0.0
C1687 C 0.50244 0.10006 0.62398 0.0
C1688 C 0.49437 0.17064 0.68114 0.0
C1689 C 0.509 0.22361 0.66083 0.0
N1690 N 0.5011 0.1227 0.64192 0.0
N1691 N 0.51242 0.20022 0.64442 0.0
H1692 H 0.79159 0.53786 0.33553 0.0
H1693 H 0.9446 0.48514 0.38573 0.0
H1694 H 0.83957 0.47304 0.29244 0.0
H1695 H 0.88601 0.52506 0.44422 0.0
H1696 H 0.90627 0.48245 0.35065 0.0
H1697 H 0.82481 0.53427 0.37598 0.0
C1698 C 0.80867 0.52244 0.3349 0.0
C1699 C 0.81314 0.506 0.31051 0.0
C1700 C 0.9017 0.49166 0.37121 0.0
C1701 C 0.85138 0.50227 0.35608 0.0
C1702 C 0.92367 0.4934 0.39118 0.0
C1703 C 0.91855 0.50544 0.41791 0.0
C1704 C 0.87445 0.50243 0.37776 0.0
C1705 C 0.89087 0.51554 0.42388 0.0
C1706 C 0.82772 0.52054 0.35783 0.0
C1707 C 0.8357 0.48647 0.31066 0.0
N1708 N 0.86989 0.51406 0.40384 0.0
N1709 N 0.85419 0.48546 0.33283 0.0
H1710 H 0.48222 0.82696 0.29432 0.0
H1711 H 0.52799 0.8866 0.44694 0.0
H1712 H 0.52508 0.77783 0.35834 0.0
H1713 H 0.49637 0.94074 0.38034 0.0
H1714 H 0.52717 0.84706 0.41416 0.0
H1715 H 0.48756 0.86907 0.32436 0.0
C1716 C 0.49293 0.82511 0.31463 0.0
C1717 C 0.50293 0.7988 0.32403 0.0
C1718 C 0.52049 0.86754 0.40655 0.0
C1719 C 0.50902 0.84684 0.3586 0.0
C1720 C 0.52084 0.89028 0.42537 0.0
C1721 C 0.51201 0.91723 0.41659 0.0
C1722 C 0.511 0.87138 0.37852 0.0
C1723 C 0.50337 0.92043 0.38814 0.0
C1724 C 0.49594 0.84913 0.33179 0.0
C1725 C 0.5168 0.79762 0.35043 0.0
N1726 N 0.50285 0.89776 0.3702 0.0
N1727 N 0.5192 0.82116 0.36683 0.0
H1728 H 0.24894 0.51386 0.3574 0.0
H1729 H 0.07897 0.49566 0.37821 0.0
H1730 H 0.19373 0.48282 0.2911 0.0
H1731 H 0.13746 0.52402 0.44331 0.0
H1732 H 0.11943 0.49316 0.34476 0.0
H1733 H 0.20713 0.5201 0.38812 0.0
C1734 C 0.22792 0.50831 0.34941 0.0
C1735 C 0.22477 0.4973 0.32199 0.0
C1736 C 0.12327 0.50001 0.36638 0.0
C1737 C 0.17661 0.50454 0.35684 0.0
C1738 C 0.10016 0.50153 0.38546 0.0
C1739 C 0.10472 0.50982 0.41377 0.0
C1740 C 0.15104 0.50698 0.37568 0.0
C1741 C 0.13275 0.51715 0.42188 0.0
C1742 C 0.20402 0.51188 0.36688 0.0
C1743 C 0.19703 0.49092 0.31236 0.0
N1744 N 0.15468 0.51548 0.40304 0.0
N1745 N 0.174 0.49446 0.32982 0.0
H1746 H 0.46457 0.18404 0.29492 0.0
H1747 H 0.53375 0.13228 0.44084 0.0
H1748 H 0.53971 0.22435 0.3293 0.0
H1749 H 0.48706 0.07774 0.38396 0.0
H1750 H 0.53051 0.17026 0.40559 0.0
H1751 H 0.46566 0.15008 0.33382 0.0
C1752 C 0.48104 0.18605 0.311 0.0
C1753 C 0.50231 0.2069 0.30862 0.0
C1754 C 0.52104 0.14997 0.40087 0.0
C1755 C 0.50371 0.16782 0.35335 0.0
C1756 C 0.52281 0.12826 0.42095 0.0
C1757 C 0.51071 0.10168 0.41533 0.0
C1758 C 0.50649 0.14531 0.37522 0.0
C1759 C 0.49691 0.09774 0.38914 0.0
C1760 C 0.48176 0.1665 0.33307 0.0
C1761 C 0.5229 0.20867 0.33032 0.0
N1762 N 0.49498 0.11935 0.37022 0.0
N1763 N 0.52324 0.18921 0.3517 0.0
H1764 H 0.72101 0.83548 0.55556 0.0
H1765 H 0.57476 0.88737 0.48558 0.0
H1766 H 0.68743 0.79545 0.48037 0.0
H1767 H 0.63248 0.94204 0.53128 0.0
H1768 H 0.60993 0.84909 0.4895 0.0
H1769 H 0.68159 0.86921 0.55425 0.0
C1770 C 0.70496 0.83346 0.53906 0.0
C1771 C 0.70771 0.81282 0.51782 0.0
C1772 C 0.61482 0.86948 0.49861 0.0
C1773 C 0.66251 0.85158 0.51616 0.0
C1774 C 0.59481 0.89132 0.49645 0.0
C1775 C 0.60075 0.91801 0.50806 0.0
C1776 C 0.64065 0.87414 0.51308 0.0
C1777 C 0.6271 0.92194 0.5218 0.0
C1778 C 0.68262 0.85287 0.53821 0.0
C1779 C 0.68609 0.811 0.49715 0.0
N1780 N 0.64594 0.9002 0.52412 0.0
N1781 N 0.66446 0.83034 0.49666 0.0
H1782 H 0.68532 0.22883 0.5306 0.0
H1783 H 0.63667 0.07369 0.48689 0.0
H1784 H 0.7316 0.17668 0.47125 0.0
H1785 H 0.57664 0.134 0.52105 0.0
H1786 H 0.67271 0.11093 0.48395 0.0
H1787 H 0.64527 0.19504 0.52891 0.0
C1788 C 0.6868 0.21065 0.51676 0.0
C1789 C 0.71197 0.2054 0.50131 0.0
C1790 C 0.65162 0.11607 0.49202 0.0
C1791 C 0.66676 0.16639 0.49987 0.0
C1792 C 0.63108 0.09471 0.49392 0.0
C1793 C 0.60354 0.10063 0.50428 0.0
C1794 C 0.64485 0.14356 0.50093 0.0
C1795 C 0.59755 0.12845 0.51281 0.0
C1796 C 0.66408 0.19125 0.516 0.0
C1797 C 0.71281 0.18133 0.4839 0.0
N1798 N 0.61806 0.14882 0.51115 0.0
N1799 N 0.69082 0.1626 0.48398 0.0
H1800 H 0.8293 0.72138 0.53786 0.0
H1801 H 0.88583 0.56862 0.49243 0.0
H1802 H 0.77599 0.65683 0.50123 0.0
H1803 H 0.94292 0.63506 0.51928 0.0
H1804 H 0.84588 0.60132 0.49493 0.0
H1805 H 0.87146 0.69121 0.53038 0.0
C1806 C 0.82656 0.7009 0.52808 0.0
C1807 C 0.79912 0.69137 0.5205 0.0
C1808 C 0.86711 0.6089 0.50018 0.0
C1809 C 0.84712 0.65673 0.51193 0.0
C1810 C 0.89006 0.59014 0.49886 0.0
C1811 C 0.91795 0.59893 0.50587 0.0
C1812 C 0.87173 0.63684 0.50881 0.0
C1813 C 0.92187 0.62727 0.51369 0.0
C1814 C 0.85058 0.68369 0.52384 0.0
C1815 C 0.79672 0.66481 0.50769 0.0
N1816 N 0.899 0.64515 0.51516 0.0
N1817 N 0.82031 0.64836 0.50405 0.0
H1818 H 0.29087 0.84245 0.4691 0.0
H1819 H 0.44713 0.88744 0.52148 0.0
H1820 H 0.34085 0.79158 0.52643 0.0
H1821 H 0.38592 0.94522 0.48509 0.0
H1822 H 0.41189 0.84957 0.51749 0.0
H1823 H 0.32969 0.8769 0.46738 0.0
C1824 C 0.31034 0.83831 0.4809 0.0
C1825 C 0.31262 0.81429 0.49814 0.0
C1826 C 0.40619 0.87052 0.51038 0.0
C1827 C 0.35699 0.85384 0.49659 0.0
C1828 C 0.42628 0.8922 0.51262 0.0
C1829 C 0.41946 0.91965 0.50366 0.0
C1830 C 0.37916 0.87617 0.49877 0.0
C1831 C 0.39205 0.9245 0.4925 0.0
C1832 C 0.33237 0.85809 0.4801 0.0
C1833 C 0.33833 0.8098 0.51284 0.0
N1834 N 0.37296 0.90295 0.49027 0.0
N1835 N 0.35947 0.82959 0.51198 0.0
H1836 H 0.20002 0.30381 0.53793 0.0
H1837 H 0.13854 0.45273 0.48671 0.0
H1838 H 0.24951 0.36591 0.49271 0.0
H1839 H 0.08446 0.38822 0.52284 0.0
H1840 H 0.17892 0.42055 0.48849 0.0
H1841 H 0.1572 0.33343 0.53232 0.0
C1842 C 0.2018 0.3237 0.52679 0.0
C1843 C 0.22838 0.33272 0.51617 0.0
C1844 C 0.15826 0.41327 0.49594 0.0
C1845 C 0.1796 0.36662 0.50957 0.0
C1846 C 0.13507 0.43173 0.49503 0.0
C1847 C 0.10795 0.42333 0.50485 0.0
C1848 C 0.15463 0.38605 0.50698 0.0
C1849 C 0.10492 0.39565 0.51501 0.0
C1850 C 0.17739 0.34056 0.52357 0.0
C1851 C 0.22951 0.35842 0.50158 0.0
N1852 N 0.12803 0.37806 0.51603 0.0
N1853 N 0.20557 0.37453 0.49891 0.0
H1854 H 0.2989 0.18466 0.45996 0.0
H1855 H 0.44869 0.13434 0.52392 0.0
H1856 H 0.34016 0.22961 0.5282 0.0
H1857 H 0.38877 0.07887 0.48209 0.0
H1858 H 0.4141 0.17292 0.5196 0.0
H1859 H 0.33769 0.15019 0.46032 0.0
C1860 C 0.31655 0.18758 0.47462 0.0
C1861 C 0.31627 0.20988 0.49422 0.0
C1862 C 0.40858 0.1523 0.51141 0.0
C1863 C 0.36058 0.17024 0.49502 0.0
C1864 C 0.42826 0.13025 0.51382 0.0
C1865 C 0.42158 0.10325 0.5034 0.0
C1866 C 0.38221 0.14749 0.498 0.0
C1867 C 0.39475 0.09922 0.49064 0.0
C1868 C 0.33851 0.16775 0.475 0.0
C1869 C 0.33967 0.21277 0.51269 0.0
N1870 N 0.37615 0.12113 0.48814 0.0
N1871 N 0.36084 0.19296 0.51284 0.0
H1872 H 0.83494 0.29525 0.48006 0.0
H1873 H 0.88747 0.45048 0.52255 0.0
H1874 H 0.77877 0.36191 0.50739 0.0
H1875 H 0.94617 0.38498 0.49687 0.0
H1876 H 0.84817 0.41709 0.51956 0.0
H1877 H 0.87635 0.3262 0.4886 0.0
C1878 C 0.83139 0.31639 0.48798 0.0
C1879 C 0.80341 0.32626 0.49258 0.0
C1880 C 0.86961 0.40986 0.51468 0.0
C1881 C 0.85057 0.36173 0.50251 0.0
C1882 C 0.89222 0.42901 0.51633 0.0
C1883 C 0.92037 0.42072 0.50974 0.0
C1884 C 0.87484 0.38198 0.50621 0.0
C1885 C 0.92491 0.3924 0.50216 0.0
C1886 C 0.85499 0.33403 0.49284 0.0
C1887 C 0.79997 0.35363 0.50323 0.0
N1888 N 0.90237 0.37412 0.5004 0.0
N1889 N 0.82319 0.37043 0.50761 0.0
H1890 H 0.1909 0.72687 0.47371 0.0
H1891 H 0.13844 0.57113 0.51353 0.0
H1892 H 0.24709 0.65874 0.49689 0.0
H1893 H 0.07959 0.63681 0.48866 0.0
H1894 H 0.17771 0.60431 0.51015 0.0
H1895 H 0.14943 0.69585 0.48169 0.0
C1896 C 0.19442 0.70535 0.4805 0.0
C1897 C 0.22238 0.69507 0.48412 0.0
C1898 C 0.15626 0.61162 0.50545 0.0
C1899 C 0.17525 0.65964 0.49352 0.0
C1900 C 0.13366 0.59258 0.50732 0.0
C1901 C 0.10548 0.60099 0.50108 0.0
C1902 C 0.151 0.63952 0.49718 0.0
C1903 C 0.10091 0.6293 0.49358 0.0
C1904 C 0.17081 0.68769 0.48506 0.0
C1905 C 0.22587 0.66728 0.49345 0.0
N1906 N 0.12347 0.64752 0.49166 0.0
N1907 N 0.20264 0.65052 0.49764 0.0
loop_
_geom_bond_atom_site_label_1
_geom_bond_atom_site_label_2
_geom_bond_distance
_geom_bond_site_symmetry_2
_ccdc_geom_bond_type
H0 C7 0.929 . S
H1 C10 0.930 . S
H2 C12 0.929 . S
H3 C4 0.969 1_655 S
C4 H3 0.969 1_455 S
C4 O5 1.550 . S
C4 H6 0.973 . S
O5 C4 1.550 . S
O5 C11 1.412 . S
H6 C4 0.973 . S
C7 H0 0.929 . S
C7 C8 1.400 . S
C7 C9 1.364 . S
C8 C7 1.400 . S
C8 C12 1.377 . S
C9 C7 1.364 . S
C9 C10 1.374 . S
C10 H1 0.930 . S
C10 C9 1.374 . S
C10 C11 1.383 . S
C11 O5 1.412 . S
C11 C10 1.383 . S
C11 C12 1.394 . S
C12 H2 0.929 . S
C12 C8 1.377 . S
C12 C11 1.394 . S
H13 C20 0.928 . S
H14 C23 0.930 1_565 S
H15 C25 0.928 . S
H16 C17 0.969 . S
C17 H16 0.969 . S
C17 O18 1.550 1_545 S
C17 H19 0.973 1_545 S
O18 C17 1.550 1_565 S
O18 C24 1.412 1_565 S
H19 C17 0.973 1_565 S
C20 H13 0.928 . S
C20 C21 1.400 . S
C20 C22 1.364 . S
C21 C20 1.400 . S
C21 C25 1.378 . S
C22 C20 1.364 . S
C22 C23 1.374 . S
C23 H14 0.930 1_545 S
C23 C22 1.374 . S
C23 C24 1.384 . S
C24 O18 1.412 1_545 S
C24 C23 1.384 . S
C24 C25 1.395 . S
C25 H15 0.928 . S
C25 C21 1.378 . S
C25 C24 1.395 . S
H26 C33 0.929 . S
H27 C36 0.930 . S
H28 C38 0.929 . S
H29 C30 0.969 1_655 S
C30 H29 0.969 1_455 S
C30 O31 1.550 . S
C30 H32 0.973 . S
O31 C30 1.550 . S
O31 C37 1.412 . S
H32 C30 0.973 . S
C33 H26 0.929 . S
C33 C34 1.400 . S
C33 C35 1.364 . S
C34 C33 1.400 . S
C34 C38 1.377 . S
C35 C33 1.364 . S
C35 C36 1.374 . S
C36 H27 0.930 . S
C36 C35 1.374 . S
C36 C37 1.383 . S
C37 O31 1.412 . S
C37 C36 1.383 . S
C37 C38 1.394 . S
C38 H28 0.929 . S
C38 C34 1.377 . S
C38 C37 1.394 . S
H39 C46 0.928 . S
H40 C49 0.930 1_565 S
H41 C51 0.928 . S
H42 C43 0.969 . S
C43 H42 0.969 . S
C43 O44 1.550 1_545 S
C43 H45 0.973 1_545 S
O44 C43 1.550 1_565 S
O44 C50 1.412 1_565 S
H45 C43 0.973 1_565 S
C46 H39 0.928 . S
C46 C47 1.400 . S
C46 C48 1.364 . S
C47 C46 1.400 . S
C47 C51 1.378 . S
C48 C46 1.364 . S
C48 C49 1.374 . S
C49 H40 0.930 1_545 S
C49 C48 1.374 . S
C49 C50 1.384 . S
C50 O44 1.412 1_545 S
C50 C49 1.384 . S
C50 C51 1.396 . S
C51 H41 0.928 . S
C51 C47 1.378 . S
C51 C50 1.396 . S
H52 C59 0.929 . S
H53 C62 0.930 . S
H54 C64 0.929 . S
H55 C56 0.969 1_655 S
C56 H55 0.969 1_455 S
C56 O57 1.550 . S
C56 H58 0.973 . S
O57 C56 1.550 . S
O57 C63 1.412 . S
H58 C56 0.973 . S
C59 H52 0.929 . S
C59 C60 1.400 . S
C59 C61 1.364 . S
C60 C59 1.400 . S
C60 C64 1.377 . S
C61 C59 1.364 . S
C61 C62 1.374 . S
C62 H53 0.930 . S
C62 C61 1.374 . S
C62 C63 1.383 . S
C63 O57 1.412 . S
C63 C62 1.383 . S
C63 C64 1.394 . S
C64 H54 0.929 . S
C64 C60 1.377 . S
C64 C63 1.394 . S
H65 C72 0.928 1_545 S
H66 C75 0.931 . S
H67 C77 0.928 1_545 S
H68 C69 0.969 . S
C69 H68 0.969 . S
C69 O70 1.550 1_565 S
C69 H71 0.973 1_565 S
O70 C69 1.550 1_545 S
O70 C76 1.404 1_545 S
H71 C69 0.973 1_545 S
C72 H65 0.928 1_565 S
C72 C73 1.400 . S
C72 C74 1.364 . S
C73 C72 1.400 . S
C73 C77 1.377 . S
C74 C72 1.364 . S
C74 C75 1.374 1_565 S
C75 H66 0.931 . S
C75 C74 1.374 1_545 S
C75 C76 1.382 1_545 S
C76 O70 1.404 1_565 S
C76 C75 1.382 1_565 S
C76 C77 1.394 . S
C77 H67 0.928 1_565 S
C77 C73 1.377 . S
C77 C76 1.394 . S
H78 C85 0.929 . S
H79 C88 0.930 . S
H80 C90 0.929 . S
H81 C82 0.969 1_655 S
C82 H81 0.969 1_455 S
C82 O83 1.550 . S
C82 H84 0.973 . S
O83 C82 1.550 . S
O83 C89 1.412 . S
H84 C82 0.973 . S
C85 H78 0.929 . S
C85 C86 1.400 . S
C85 C87 1.364 . S
C86 C85 1.400 . S
C86 C90 1.377 . S
C87 C85 1.364 . S
C87 C88 1.374 . S
C88 H79 0.930 . S
C88 C87 1.374 . S
C88 C89 1.383 . S
C89 O83 1.412 . S
C89 C88 1.383 . S
C89 C90 1.394 . S
C90 H80 0.929 . S
C90 C86 1.377 . S
C90 C89 1.394 . S
H91 C98 0.928 1_545 S
H92 C101 0.931 . S
H93 C103 0.928 1_545 S
H94 C95 0.969 . S
C95 H94 0.969 . S
C95 O96 1.550 1_565 S
C95 H97 0.973 1_565 S
O96 C95 1.550 1_545 S
O96 C102 1.404 1_545 S
H97 C95 0.973 1_545 S
C98 H91 0.928 1_565 S
C98 C99 1.400 . S
C98 C100 1.364 . S
C99 C98 1.400 . S
C99 C103 1.377 . S
C100 C98 1.364 . S
C100 C101 1.374 1_565 S
C101 H92 0.931 . S
C101 C100 1.374 1_545 S
C101 C102 1.382 1_545 S
C102 O96 1.404 1_565 S
C102 C101 1.382 1_565 S
C102 C103 1.394 . S
C103 H93 0.928 1_565 S
C103 C99 1.377 . S
C103 C102 1.394 . S
H104 C111 0.928 1_556 S
H105 C114 0.930 . S
H106 C116 0.928 1_556 S
H107 C108 0.969 . S
C108 H107 0.969 . S
C108 O109 1.550 1_554 S
C108 H110 0.973 1_554 S
O109 C108 1.550 1_556 S
O109 C115 1.402 1_556 S
H110 C108 0.973 1_556 S
C111 H104 0.928 1_554 S
C111 C112 1.400 . S
C111 C113 1.364 . S
C112 C111 1.400 . S
C112 C116 1.377 . S
C113 C111 1.364 . S
C113 C114 1.374 1_554 S
C114 H105 0.930 . S
C114 C113 1.374 1_556 S
C114 C115 1.382 1_556 S
C115 O109 1.402 1_554 S
C115 C114 1.382 1_554 S
C115 C116 1.394 . S
C116 H106 0.928 1_554 S
C116 C112 1.377 . S
C116 C115 1.394 . S
H117 C124 0.928 . S
H118 C127 0.932 . S
H119 C129 0.928 . S
H120 C121 0.969 . S
C121 H120 0.969 . S
C121 O122 1.550 1_556 S
C121 H123 0.973 1_556 S
O122 C121 1.550 1_554 S
O122 C128 1.410 1_554 S
H123 C121 0.973 1_554 S
C124 H117 0.928 . S
C124 C125 1.400 . S
C124 C126 1.364 . S
C125 C124 1.400 . S
C125 C129 1.377 . S
C126 C124 1.364 . S
C126 C127 1.374 . S
C127 H118 0.932 . S
C127 C126 1.374 . S
C127 C128 1.382 1_554 S
C128 O122 1.410 1_556 S
C128 C127 1.382 1_556 S
C128 C129 1.394 1_556 S
C129 H119 0.928 . S
C129 C125 1.377 . S
C129 C128 1.394 1_554 S
H130 C137 0.928 1_554 S
H131 C140 0.931 . S
H132 C142 0.928 1_554 S
H133 C134 0.969 . S
C134 H133 0.969 . S
C134 O135 1.550 1_556 S
C134 H136 0.973 1_556 S
O135 C134 1.550 1_554 S
O135 C141 1.404 1_554 S
H136 C134 0.973 1_554 S
C137 H130 0.928 1_556 S
C137 C138 1.400 . S
C137 C139 1.364 . S
C138 C137 1.400 . S
C138 C142 1.377 . S
C139 C137 1.364 . S
C139 C140 1.374 1_556 S
C140 H131 0.931 . S
C140 C139 1.374 1_554 S
C140 C141 1.382 1_554 S
C141 O135 1.404 1_556 S
C141 C140 1.382 1_556 S
C141 C142 1.394 . S
C142 H132 0.928 1_556 S
C142 C138 1.377 . S
C142 C141 1.394 . S
H143 C150 0.928 . S
H144 C153 0.930 1_556 S
H145 C155 0.928 . S
H146 C147 0.969 . S
C147 H146 0.969 . S
C147 O148 1.550 1_554 S
C147 H149 0.973 1_554 S
O148 C147 1.550 1_556 S
O148 C154 1.412 1_556 S
H149 C147 0.973 1_556 S
C150 H143 0.928 . S
C150 C151 1.400 . S
C150 C152 1.364 . S
C151 C150 1.400 . S
C151 C155 1.378 . S
C152 C150 1.364 . S
C152 C153 1.374 . S
C153 H144 0.930 1_554 S
C153 C152 1.374 . S
C153 C154 1.383 . S
C154 O148 1.412 1_554 S
C154 C153 1.383 . S
C154 C155 1.395 . S
C155 H145 0.928 . S
C155 C151 1.378 . S
C155 C154 1.395 . S
H156 C163 0.929 . S
H157 C166 0.930 . S
H158 C168 0.929 . S
H159 C160 0.969 . S
C160 H159 0.969 . S
C160 O161 1.550 . S
C160 H162 0.973 . S
O161 C160 1.550 . S
O161 C167 1.412 . S
H162 C160 0.973 . S
C163 H156 0.929 . S
C163 C164 1.400 . S
C163 C165 1.364 . S
C164 C163 1.400 . S
C164 C168 1.377 . S
C165 C163 1.364 . S
C165 C166 1.374 . S
C166 H157 0.930 . S
C166 C165 1.374 . S
C166 C167 1.383 . S
C167 O161 1.412 . S
C167 C166 1.383 . S
C167 C168 1.394 . S
C168 H158 0.929 . S
C168 C164 1.377 . S
C168 C167 1.394 . S
H169 C176 0.929 . S
H170 C179 0.930 . S
H171 C181 0.929 . S
H172 C173 0.969 . S
C173 H172 0.969 . S
C173 O174 1.550 . S
C173 H175 0.973 . S
O174 C173 1.550 . S
O174 C180 1.412 . S
H175 C173 0.973 . S
C176 H169 0.929 . S
C176 C177 1.400 . S
C176 C178 1.364 . S
C177 C176 1.400 . S
C177 C181 1.377 . S
C178 C176 1.364 . S
C178 C179 1.374 . S
C179 H170 0.930 . S
C179 C178 1.374 . S
C179 C180 1.383 . S
C180 O174 1.412 . S
C180 C179 1.383 . S
C180 C181 1.394 . S
C181 H171 0.929 . S
C181 C177 1.377 . S
C181 C180 1.394 . S
H182 C189 0.929 . S
H183 C192 0.930 . S
H184 C194 0.929 . S
H185 C186 0.969 . S
C186 H185 0.969 . S
C186 O187 1.550 . S
C186 H188 0.973 . S
O187 C186 1.550 . S
O187 C193 1.412 . S
H188 C186 0.973 . S
C189 H182 0.929 . S
C189 C190 1.400 . S
C189 C191 1.364 . S
C190 C189 1.400 . S
C190 C194 1.377 . S
C191 C189 1.364 . S
C191 C192 1.374 . S
C192 H183 0.930 . S
C192 C191 1.374 . S
C192 C193 1.383 . S
C193 O187 1.412 . S
C193 C192 1.383 . S
C193 C194 1.394 . S
C194 H184 0.929 . S
C194 C190 1.377 . S
C194 C193 1.394 . S
H195 C202 0.929 . S
H196 C205 0.930 . S
H197 C207 0.929 . S
H198 C199 0.969 . S
C199 H198 0.969 . S
C199 O200 1.550 . S
C199 H201 0.973 . S
O200 C199 1.550 . S
O200 C206 1.412 . S
H201 C199 0.973 . S
C202 H195 0.929 . S
C202 C203 1.400 . S
C202 C204 1.364 . S
C203 C202 1.400 . S
C203 C207 1.377 . S
C204 C202 1.364 . S
C204 C205 1.374 . S
C205 H196 0.930 . S
C205 C204 1.374 . S
C205 C206 1.383 . S
C206 O200 1.412 . S
C206 C205 1.383 . S
C206 C207 1.394 . S
C207 H197 0.929 . S
C207 C203 1.377 . S
C207 C206 1.394 . S
H208 C215 0.929 . S
H209 C218 0.930 . S
H210 C220 0.929 . S
H211 C212 0.969 . S
C212 H211 0.969 . S
C212 O213 1.550 . S
C212 H214 0.973 . S
O213 C212 1.550 . S
O213 C219 1.412 . S
H214 C212 0.973 . S
C215 H208 0.929 . S
C215 C216 1.400 . S
C215 C217 1.364 . S
C216 C215 1.400 . S
C216 C220 1.377 . S
C217 C215 1.364 . S
C217 C218 1.374 . S
C218 H209 0.930 . S
C218 C217 1.374 . S
C218 C219 1.383 . S
C219 O213 1.412 . S
C219 C218 1.383 . S
C219 C220 1.394 . S
C220 H210 0.929 . S
C220 C216 1.377 . S
C220 C219 1.394 . S
H221 C228 0.929 . S
H222 C231 0.930 . S
H223 C233 0.929 . S
H224 C225 0.969 . S
C225 H224 0.969 . S
C225 O226 1.550 . S
C225 H227 0.973 . S
O226 C225 1.550 . S
O226 C232 1.412 . S
H227 C225 0.973 . S
C228 H221 0.929 . S
C228 C229 1.400 . S
C228 C230 1.364 . S
C229 C228 1.400 . S
C229 C233 1.377 . S
C230 C228 1.364 . S
C230 C231 1.374 . S
C231 H222 0.930 . S
C231 C230 1.374 . S
C231 C232 1.383 . S
C232 O226 1.412 . S
C232 C231 1.383 . S
C232 C233 1.394 . S
C233 H223 0.929 . S
C233 C229 1.377 . S
C233 C232 1.394 . S
H234 C241 0.929 . S
H235 C244 0.930 . S
H236 C246 0.929 . S
H237 C238 0.969 . S
C238 H237 0.969 . S
C238 O239 1.550 . S
C238 H240 0.973 . S
O239 C238 1.550 . S
O239 C245 1.412 . S
H240 C238 0.973 . S
C241 H234 0.929 . S
C241 C242 1.400 . S
C241 C243 1.364 . S
C242 C241 1.400 . S
C242 C246 1.377 . S
C243 C241 1.364 . S
C243 C244 1.374 . S
C244 H235 0.930 . S
C244 C243 1.374 . S
C244 C245 1.383 . S
C245 O239 1.412 . S
C245 C244 1.383 . S
C245 C246 1.394 . S
C246 H236 0.929 . S
C246 C242 1.377 . S
C246 C245 1.394 . S
H247 C254 0.929 . S
H248 C257 0.930 . S
H249 C259 0.929 . S
H250 C251 0.969 . S
C251 H250 0.969 . S
C251 O252 1.550 . S
C251 H253 0.973 . S
O252 C251 1.550 . S
O252 C258 1.412 . S
H253 C251 0.973 . S
C254 H247 0.929 . S
C254 C255 1.400 . S
C254 C256 1.364 . S
C255 C254 1.400 . S
C255 C259 1.377 . S
C256 C254 1.364 . S
C256 C257 1.374 . S
C257 H248 0.930 . S
C257 C256 1.374 . S
C257 C258 1.383 . S
C258 O252 1.412 . S
C258 C257 1.383 . S
C258 C259 1.394 . S
C259 H249 0.929 . S
C259 C255 1.377 . S
C259 C258 1.394 . S
H260 C267 0.929 . S
H261 C270 0.930 . S
H262 C272 0.929 . S
H263 C264 0.969 . S
C264 H263 0.969 . S
C264 O265 1.550 . S
C264 H266 0.973 . S
O265 C264 1.550 . S
O265 C271 1.412 . S
H266 C264 0.973 . S
C267 H260 0.929 . S
C267 C268 1.400 . S
C267 C269 1.364 . S
C268 C267 1.400 . S
C268 C272 1.377 . S
C269 C267 1.364 . S
C269 C270 1.374 . S
C270 H261 0.930 . S
C270 C269 1.374 . S
C270 C271 1.383 . S
C271 O265 1.412 . S
C271 C270 1.383 . S
C271 C272 1.394 . S
C272 H262 0.929 . S
C272 C268 1.377 . S
C272 C271 1.394 . S
H273 C280 0.929 . S
H274 C283 0.930 . S
H275 C285 0.929 . S
H276 C277 0.969 . S
C277 H276 0.969 . S
C277 O278 1.550 . S
C277 H279 0.973 . S
O278 C277 1.550 . S
O278 C284 1.412 . S
H279 C277 0.973 . S
C280 H273 0.929 . S
C280 C281 1.400 . S
C280 C282 1.364 . S
C281 C280 1.400 . S
C281 C285 1.377 . S
C282 C280 1.364 . S
C282 C283 1.374 . S
C283 H274 0.930 . S
C283 C282 1.374 . S
C283 C284 1.383 . S
C284 O278 1.412 . S
C284 C283 1.383 . S
C284 C285 1.394 . S
C285 H275 0.929 . S
C285 C281 1.377 . S
C285 C284 1.394 . S
H286 C293 0.929 . S
H287 C296 0.930 . S
H288 C298 0.929 . S
H289 C290 0.969 . S
C290 H289 0.969 . S
C290 O291 1.550 . S
C290 H292 0.973 . S
O291 C290 1.550 . S
O291 C297 1.412 . S
H292 C290 0.973 . S
C293 H286 0.929 . S
C293 C294 1.400 . S
C293 C295 1.364 . S
C294 C293 1.400 . S
C294 C298 1.377 . S
C295 C293 1.364 . S
C295 C296 1.374 . S
C296 H287 0.930 . S
C296 C295 1.374 . S
C296 C297 1.383 . S
C297 O291 1.412 . S
C297 C296 1.383 . S
C297 C298 1.394 . S
C298 H288 0.929 . S
C298 C294 1.377 . S
C298 C297 1.394 . S
H299 C306 0.929 . S
H300 C309 0.930 . S
H301 C311 0.929 . S
H302 C303 0.969 . S
C303 H302 0.969 . S
C303 O304 1.550 . S
C303 H305 0.973 . S
O304 C303 1.550 . S
O304 C310 1.412 . S
H305 C303 0.973 . S
C306 H299 0.929 . S
C306 C307 1.400 . S
C306 C308 1.364 . S
C307 C306 1.400 . S
C307 C311 1.377 . S
C308 C306 1.364 . S
C308 C309 1.374 . S
C309 H300 0.930 . S
C309 C308 1.374 . S
C309 C310 1.383 . S
C310 O304 1.412 . S
C310 C309 1.383 . S
C310 C311 1.394 . S
C311 H301 0.929 . S
C311 C307 1.377 . S
C311 C310 1.394 . S
C312 O338 1.283 . S
C312 O356 1.283 . S
C313 O339 1.283 . S
C313 O354 1.283 . S
C314 O340 1.283 . S
C314 O357 1.283 . S
C315 O341 1.283 . S
C315 O355 1.283 . S
C316 O342 1.283 . S
C316 O351 1.283 . S
C317 O343 1.283 . S
C317 O353 1.283 . S
C318 O344 1.283 . S
C318 O350 1.283 . S
C319 O345 1.283 . S
C319 O352 1.283 . S
C320 O346 1.283 . S
C320 O361 1.283 . S
C321 O347 1.283 . S
C321 O359 1.283 . S
C322 O348 1.283 . S
C322 O360 1.283 . S
C323 O349 1.283 . S
C323 O358 1.283 . S
Eu324 O325 2.370 1_455 S
Eu324 O326 2.370 . S
Eu324 O329 2.370 1_455 S
Eu324 O330 2.370 . S
Eu324 O338 2.363 . S
Eu324 O339 2.363 . S
Eu324 O352 2.363 . S
Eu324 O353 2.363 1_455 S
O325 Eu324 2.370 1_655 S
O325 Eu327 2.365 1_565 S
O325 Eu332 2.364 1_665 S
O326 Eu324 2.370 . S
O326 Eu328 2.365 1_565 S
O326 Eu331 2.366 1_565 S
Eu327 O325 2.365 1_545 S
Eu327 O329 2.365 1_545 S
Eu327 O333 2.375 . S
Eu327 O334 2.375 . S
Eu327 O342 2.371 . S
Eu327 O343 2.355 1_545 S
Eu327 O358 2.363 . S
Eu327 O359 2.363 . S
Eu328 O326 2.365 1_545 S
Eu328 O330 2.365 1_545 S
Eu328 O335 2.375 . S
Eu328 O336 2.375 . S
Eu328 O344 2.371 . S
Eu328 O345 2.355 1_545 S
Eu328 O360 2.363 . S
Eu328 O361 2.363 . S
O329 Eu324 2.370 1_655 S
O329 Eu327 2.365 1_565 S
O329 Eu331 2.366 1_665 S
O330 Eu324 2.370 . S
O330 Eu328 2.365 1_565 S
O330 Eu332 2.364 1_565 S
Eu331 O326 2.366 1_545 S
Eu331 O329 2.366 1_445 S
Eu331 O333 2.374 1_455 S
Eu331 O336 2.374 . S
Eu331 O348 2.363 . S
Eu331 O349 2.363 1_455 S
Eu331 O356 2.356 1_545 S
Eu331 O357 2.370 . S
Eu332 O325 2.364 1_445 S
Eu332 O330 2.364 1_545 S
Eu332 O334 2.376 1_455 S
Eu332 O335 2.376 . S
Eu332 O346 2.363 . S
Eu332 O347 2.363 1_455 S
Eu332 O354 2.353 1_545 S
Eu332 O355 2.373 . S
O333 Eu327 2.375 . S
O333 Eu331 2.374 1_655 S
O333 Eu337 2.370 1_655 S
O334 Eu327 2.375 . S
O334 Eu332 2.376 1_655 S
O334 Eu337 2.370 1_655 S
O335 Eu328 2.375 . S
O335 Eu332 2.376 . S
O335 Eu337 2.370 . S
O336 Eu328 2.375 . S
O336 Eu331 2.374 . S
O336 Eu337 2.370 . S
Eu337 O333 2.370 1_455 S
Eu337 O334 2.370 1_455 S
Eu337 O335 2.370 . S
Eu337 O336 2.370 . S
Eu337 O340 2.363 . S
Eu337 O341 2.363 . S
Eu337 O350 2.363 . S
Eu337 O351 2.363 1_455 S
O338 C312 1.283 . S
O338 Eu324 2.363 . S
O339 C313 1.283 . S
O339 Eu324 2.363 . S
O340 C314 1.283 . S
O340 Eu337 2.363 . S
O341 C315 1.283 . S
O341 Eu337 2.363 . S
O342 C316 1.283 . S
O342 Eu327 2.371 . S
O343 C317 1.283 . S
O343 Eu327 2.355 1_565 S
O344 C318 1.283 . S
O344 Eu328 2.371 . S
O345 C319 1.283 . S
O345 Eu328 2.355 1_565 S
O346 C320 1.283 . S
O346 Eu332 2.363 . S
O347 C321 1.283 . S
O347 Eu332 2.363 1_655 S
O348 C322 1.283 . S
O348 Eu331 2.363 . S
O349 C323 1.283 . S
O349 Eu331 2.363 1_655 S
O350 C318 1.283 . S
O350 Eu337 2.363 . S
O351 C316 1.283 . S
O351 Eu337 2.363 1_655 S
O352 C319 1.283 . S
O352 Eu324 2.363 . S
O353 C317 1.283 . S
O353 Eu324 2.363 1_655 S
O354 C313 1.283 . S
O354 Eu332 2.353 1_565 S
O355 C315 1.283 . S
O355 Eu332 2.373 . S
O356 C312 1.283 . S
O356 Eu331 2.356 1_565 S
O357 C314 1.283 . S
O357 Eu331 2.370 . S
O358 C323 1.283 . S
O358 Eu327 2.363 . S
O359 C321 1.283 . S
O359 Eu327 2.363 . S
O360 C322 1.283 . S
O360 Eu328 2.363 . S
O361 C320 1.283 . S
O361 Eu328 2.363 . S
C362 O388 1.283 . S
C362 O406 1.283 . S
C363 O389 1.283 . S
C363 O404 1.283 . S
C364 O390 1.283 . S
C364 O407 1.283 . S
C365 O391 1.283 . S
C365 O405 1.283 . S
C366 O392 1.283 . S
C366 O401 1.283 . S
C367 O393 1.283 . S
C367 O403 1.283 . S
C368 O394 1.283 . S
C368 O400 1.283 . S
C369 O395 1.283 . S
C369 O402 1.283 . S
C370 O396 1.283 . S
C370 O411 1.283 . S
C371 O397 1.283 . S
C371 O409 1.283 . S
C372 O398 1.283 . S
C372 O410 1.283 . S
C373 O399 1.283 . S
C373 O408 1.283 . S
Eu374 O375 2.377 . S
Eu374 O376 2.364 1_545 S
Eu374 O379 2.364 1_545 S
Eu374 O380 2.377 . S
Eu374 O388 2.352 1_545 S
Eu374 O389 2.374 . S
Eu374 O402 2.363 . S
Eu374 O403 2.363 . S
O375 Eu374 2.377 . S
O375 Eu377 2.379 . S
O375 Eu382 2.373 . S
O376 Eu374 2.364 1_565 S
O376 Eu378 2.370 1_565 S
O376 Eu381 2.376 . S
Eu377 O375 2.379 . S
Eu377 O379 2.370 1_545 S
Eu377 O383 2.361 1_544 S
Eu377 O384 2.370 1_554 S
Eu377 O392 2.355 1_554 S
Eu377 O393 2.370 . S
Eu377 O408 2.355 1_545 S
Eu377 O409 2.371 . S
Eu378 O376 2.370 1_545 S
Eu378 O380 2.379 . S
Eu378 O385 2.371 1_554 S
Eu378 O386 2.361 1_544 S
Eu378 O394 2.355 1_554 S
Eu378 O395 2.370 . S
Eu378 O410 2.355 1_545 S
Eu378 O411 2.371 . S
O379 Eu374 2.364 1_565 S
O379 Eu377 2.370 1_565 S
O379 Eu381 2.376 . S
O380 Eu374 2.377 . S
O380 Eu378 2.379 . S
O380 Eu382 2.373 . S
Eu381 O376 2.376 . S
Eu381 O379 2.376 . S
Eu381 O383 2.364 1_554 S
Eu381 O386 2.364 1_554 S
Eu381 O398 2.363 . S
Eu381 O399 2.363 . S
Eu381 O406 2.373 . S
Eu381 O407 2.353 1_554 S
Eu382 O375 2.373 . S
Eu382 O380 2.373 . S
Eu382 O384 2.367 1_554 S
Eu382 O385 2.367 1_554 S
Eu382 O396 2.363 . S
Eu382 O397 2.363 . S
Eu382 O404 2.368 . S
Eu382 O405 2.358 1_554 S
O383 Eu377 2.361 1_566 S
O383 Eu381 2.364 1_556 S
O383 Eu387 2.367 1_565 S
O384 Eu377 2.370 1_556 S
O384 Eu382 2.367 1_556 S
O384 Eu387 2.373 . S
O385 Eu378 2.371 1_556 S
O385 Eu382 2.367 1_556 S
O385 Eu387 2.373 . S
O386 Eu378 2.361 1_566 S
O386 Eu381 2.364 1_556 S
O386 Eu387 2.367 1_565 S
Eu387 O383 2.367 1_545 S
Eu387 O384 2.373 . S
Eu387 O385 2.373 . S
Eu387 O386 2.367 1_545 S
Eu387 O390 2.358 1_545 S
Eu387 O391 2.368 . S
Eu387 O400 2.363 . S
Eu387 O401 2.363 . S
O388 C362 1.283 . S
O388 Eu374 2.352 1_565 S
O389 C363 1.283 . S
O389 Eu374 2.374 . S
O390 C364 1.283 . S
O390 Eu387 2.358 1_565 S
O391 C365 1.283 . S
O391 Eu387 2.368 . S
O392 C366 1.283 . S
O392 Eu377 2.355 1_556 S
O393 C367 1.283 . S
O393 Eu377 2.370 . S
O394 C368 1.283 . S
O394 Eu378 2.355 1_556 S
O395 C369 1.283 . S
O395 Eu378 2.370 . S
O396 C370 1.283 . S
O396 Eu382 2.363 . S
O397 C371 1.283 . S
O397 Eu382 2.363 . S
O398 C372 1.283 . S
O398 Eu381 2.363 . S
O399 C373 1.283 . S
O399 Eu381 2.363 . S
O400 C368 1.283 . S
O400 Eu387 2.363 . S
O401 C366 1.283 . S
O401 Eu387 2.363 . S
O402 C369 1.283 . S
O402 Eu374 2.363 . S
O403 C367 1.283 . S
O403 Eu374 2.363 . S
O404 C363 1.283 . S
O404 Eu382 2.368 . S
O405 C365 1.283 . S
O405 Eu382 2.358 1_556 S
O406 C362 1.283 . S
O406 Eu381 2.373 . S
O407 C364 1.283 . S
O407 Eu381 2.353 1_556 S
O408 C373 1.283 . S
O408 Eu377 2.355 1_565 S
O409 C371 1.283 . S
O409 Eu377 2.371 . S
O410 C372 1.283 . S
O410 Eu378 2.355 1_565 S
O411 C370 1.283 . S
O411 Eu378 2.371 . S
C412 O438 1.283 . S
C412 O456 1.283 . S
C413 O439 1.283 . S
C413 O454 1.283 . S
C414 O440 1.283 . S
C414 O457 1.283 . S
C415 O441 1.283 . S
C415 O455 1.283 . S
C416 O442 1.283 . S
C416 O451 1.283 . S
C417 O443 1.283 . S
C417 O453 1.283 . S
C418 O444 1.283 . S
C418 O450 1.283 . S
C419 O445 1.283 . S
C419 O452 1.283 . S
C420 O446 1.283 . S
C420 O461 1.283 . S
C421 O447 1.283 . S
C421 O459 1.283 . S
C422 O448 1.283 . S
C422 O460 1.283 . S
C423 O449 1.283 . S
C423 O458 1.283 . S
Eu424 O425 2.367 1_454 S
Eu424 O426 2.374 . S
Eu424 O429 2.374 1_455 S
Eu424 O430 2.367 1_554 S
Eu424 O438 2.369 . S
Eu424 O439 2.357 1_554 S
Eu424 O452 2.363 . S
Eu424 O453 2.363 1_455 S
O425 Eu424 2.367 1_656 S
O425 Eu427 2.366 1_556 S
O425 Eu432 2.370 1_655 S
O426 Eu424 2.374 . S
O426 Eu428 2.375 . S
O426 Eu431 2.370 . S
Eu427 O425 2.366 1_554 S
Eu427 O429 2.375 . S
Eu427 O433 2.375 . S
Eu427 O434 2.366 1_554 S
Eu427 O442 2.363 . S
Eu427 O443 2.363 . S
Eu427 O458 2.370 . S
Eu427 O459 2.355 1_554 S
Eu428 O426 2.375 . S
Eu428 O430 2.366 1_554 S
Eu428 O435 2.366 1_554 S
Eu428 O436 2.375 . S
Eu428 O444 2.363 . S
Eu428 O445 2.363 . S
Eu428 O460 2.370 . S
Eu428 O461 2.355 1_554 S
O429 Eu424 2.374 1_655 S
O429 Eu427 2.375 . S
O429 Eu431 2.370 1_655 S
O430 Eu424 2.367 1_556 S
O430 Eu428 2.366 1_556 S
O430 Eu432 2.370 . S
Eu431 O426 2.370 . S
Eu431 O429 2.370 1_455 S
Eu431 O433 2.370 1_455 S
Eu431 O436 2.370 . S
Eu431 O448 2.363 . S
Eu431 O449 2.363 1_455 S
Eu431 O456 2.363 . S
Eu431 O457 2.363 . S
Eu432 O425 2.370 1_455 S
Eu432 O430 2.370 . S
Eu432 O434 2.370 1_455 S
Eu432 O435 2.370 . S
Eu432 O446 2.363 . S
Eu432 O447 2.363 1_455 S
Eu432 O454 2.363 . S
Eu432 O455 2.363 . S
O433 Eu427 2.375 . S
O433 Eu431 2.370 1_655 S
O433 Eu437 2.376 1_655 S
O434 Eu427 2.366 1_556 S
O434 Eu432 2.370 1_655 S
O434 Eu437 2.365 1_656 S
O435 Eu428 2.366 1_556 S
O435 Eu432 2.370 . S
O435 Eu437 2.365 1_556 S
O436 Eu428 2.375 . S
O436 Eu431 2.370 . S
O436 Eu437 2.376 . S
Eu437 O433 2.376 1_455 S
Eu437 O434 2.365 1_454 S
Eu437 O435 2.365 1_554 S
Eu437 O436 2.376 . S
Eu437 O440 2.372 . S
Eu437 O441 2.354 1_554 S
Eu437 O450 2.363 . S
Eu437 O451 2.363 1_455 S
O438 C412 1.283 . S
O438 Eu424 2.369 . S
O439 C413 1.283 . S
O439 Eu424 2.357 1_556 S
O440 C414 1.283 . S
O440 Eu437 2.372 . S
O441 C415 1.283 . S
O441 Eu437 2.354 1_556 S
O442 C416 1.283 . S
O442 Eu427 2.363 . S
O443 C417 1.283 . S
O443 Eu427 2.363 . S
O444 C418 1.283 . S
O444 Eu428 2.363 . S
O445 C419 1.283 . S
O445 Eu428 2.363 . S
O446 C420 1.283 . S
O446 Eu432 2.363 . S
O447 C421 1.283 . S
O447 Eu432 2.363 1_655 S
O448 C422 1.283 . S
O448 Eu431 2.363 . S
O449 C423 1.283 . S
O449 Eu431 2.363 1_655 S
O450 C418 1.283 . S
O450 Eu437 2.363 . S
O451 C416 1.283 . S
O451 Eu437 2.363 1_655 S
O452 C419 1.283 . S
O452 Eu424 2.363 . S
O453 C417 1.283 . S
O453 Eu424 2.363 1_655 S
O454 C413 1.283 . S
O454 Eu432 2.363 . S
O455 C415 1.283 . S
O455 Eu432 2.363 . S
O456 C412 1.283 . S
O456 Eu431 2.363 . S
O457 C414 1.283 . S
O457 Eu431 2.363 . S
O458 C423 1.283 . S
O458 Eu427 2.370 . S
O459 C421 1.283 . S
O459 Eu427 2.355 1_556 S
O460 C422 1.283 . S
O460 Eu428 2.370 . S
O461 C420 1.283 . S
O461 Eu428 2.355 1_556 S
C462 O488 1.283 . S
C462 O506 1.283 . S
C463 O489 1.283 . S
C463 O504 1.283 . S
C464 O490 1.283 . S
C464 O507 1.283 . S
C465 O491 1.283 . S
C465 O505 1.283 . S
C466 O492 1.283 . S
C466 O501 1.283 . S
C467 O493 1.283 . S
C467 O503 1.283 . S
C468 O494 1.283 . S
C468 O500 1.283 . S
C469 O495 1.283 . S
C469 O502 1.283 . S
C470 O496 1.283 . S
C470 O511 1.283 . S
C471 O497 1.283 . S
C471 O509 1.283 . S
C472 O498 1.283 . S
C472 O510 1.283 . S
C473 O499 1.283 . S
C473 O508 1.283 . S
Eu474 O475 2.370 . S
Eu474 O476 2.370 . S
Eu474 O479 2.370 . S
Eu474 O480 2.370 . S
Eu474 O488 2.363 . S
Eu474 O489 2.363 . S
Eu474 O502 2.363 . S
Eu474 O503 2.363 . S
O475 Eu474 2.370 . S
O475 Eu477 2.375 . S
O475 Eu482 2.375 . S
O476 Eu474 2.370 . S
O476 Eu478 2.375 . S
O476 Eu481 2.374 . S
Eu477 O475 2.375 . S
Eu477 O479 2.375 . S
Eu477 O483 2.366 1_554 S
Eu477 O484 2.366 1_554 S
Eu477 O492 2.355 1_554 S
Eu477 O493 2.370 . S
Eu477 O508 2.363 . S
Eu477 O509 2.363 . S
Eu478 O476 2.375 . S
Eu478 O480 2.375 . S
Eu478 O485 2.366 1_554 S
Eu478 O486 2.366 1_554 S
Eu478 O494 2.355 1_554 S
Eu478 O495 2.370 . S
Eu478 O510 2.363 . S
Eu478 O511 2.363 . S
O479 Eu474 2.370 . S
O479 Eu477 2.375 . S
O479 Eu481 2.374 . S
O480 Eu474 2.370 . S
O480 Eu478 2.375 . S
O480 Eu482 2.375 . S
Eu481 O476 2.374 . S
Eu481 O479 2.374 . S
Eu481 O483 2.367 1_554 S
Eu481 O486 2.367 1_554 S
Eu481 O498 2.363 . S
Eu481 O499 2.363 . S
Eu481 O506 2.369 . S
Eu481 O507 2.357 1_554 S
Eu482 O475 2.375 . S
Eu482 O480 2.375 . S
Eu482 O484 2.365 1_554 S
Eu482 O485 2.365 1_554 S
Eu482 O496 2.363 . S
Eu482 O497 2.363 . S
Eu482 O504 2.372 . S
Eu482 O505 2.354 1_554 S
O483 Eu477 2.366 1_556 S
O483 Eu481 2.367 1_556 S
O483 Eu487 2.370 . S
O484 Eu477 2.366 1_556 S
O484 Eu482 2.365 1_556 S
O484 Eu487 2.370 . S
O485 Eu478 2.366 1_556 S
O485 Eu482 2.365 1_556 S
O485 Eu487 2.370 . S
O486 Eu478 2.366 1_556 S
O486 Eu481 2.367 1_556 S
O486 Eu487 2.370 . S
Eu487 O483 2.370 . S
Eu487 O484 2.370 . S
Eu487 O485 2.370 . S
Eu487 O486 2.370 . S
Eu487 O490 2.363 . S
Eu487 O491 2.363 . S
Eu487 O500 2.363 . S
Eu487 O501 2.363 . S
O488 C462 1.283 . S
O488 Eu474 2.363 . S
O489 C463 1.283 . S
O489 Eu474 2.363 . S
O490 C464 1.283 . S
O490 Eu487 2.363 . S
O491 C465 1.283 . S
O491 Eu487 2.363 . S
O492 C466 1.283 . S
O492 Eu477 2.355 1_556 S
O493 C467 1.283 . S
O493 Eu477 2.370 . S
O494 C468 1.283 . S
O494 Eu478 2.355 1_556 S
O495 C469 1.283 . S
O495 Eu478 2.370 . S
O496 C470 1.283 . S
O496 Eu482 2.363 . S
O497 C471 1.283 . S
O497 Eu482 2.363 . S
O498 C472 1.283 . S
O498 Eu481 2.363 . S
O499 C473 1.283 . S
O499 Eu481 2.363 . S
O500 C468 1.283 . S
O500 Eu487 2.363 . S
O501 C466 1.283 . S
O501 Eu487 2.363 . S
O502 C469 1.283 . S
O502 Eu474 2.363 . S
O503 C467 1.283 . S
O503 Eu474 2.363 . S
O504 C463 1.283 . S
O504 Eu482 2.372 . S
O505 C465 1.283 . S
O505 Eu482 2.354 1_556 S
O506 C462 1.283 . S
O506 Eu481 2.369 . S
O507 C464 1.283 . S
O507 Eu481 2.357 1_556 S
O508 C473 1.283 . S
O508 Eu477 2.363 . S
O509 C471 1.283 . S
O509 Eu477 2.363 . S
O510 C472 1.283 . S
O510 Eu478 2.363 . S
O511 C470 1.283 . S
O511 Eu478 2.363 . S
C512 O538 1.283 . S
C512 O556 1.283 . S
C513 O539 1.283 . S
C513 O554 1.283 . S
C514 O540 1.283 . S
C514 O557 1.283 . S
C515 O541 1.283 . S
C515 O555 1.283 . S
C516 O542 1.283 . S
C516 O551 1.283 . S
C517 O543 1.283 . S
C517 O553 1.283 . S
C518 O544 1.283 . S
C518 O550 1.283 . S
C519 O545 1.283 . S
C519 O552 1.283 . S
C520 O546 1.283 . S
C520 O561 1.283 . S
C521 O547 1.283 . S
C521 O559 1.283 . S
C522 O548 1.283 . S
C522 O560 1.283 . S
C523 O549 1.283 . S
C523 O558 1.283 . S
Eu524 O525 2.370 1_455 S
Eu524 O526 2.370 . S
Eu524 O529 2.370 1_455 S
Eu524 O530 2.370 . S
Eu524 O538 2.363 . S
Eu524 O539 2.363 . S
Eu524 O552 2.363 . S
Eu524 O553 2.363 1_455 S
O525 Eu524 2.370 1_655 S
O525 Eu527 2.370 . S
O525 Eu532 2.370 1_655 S
O526 Eu524 2.370 . S
O526 Eu528 2.370 . S
O526 Eu531 2.370 . S
Eu527 O525 2.370 . S
Eu527 O529 2.370 . S
Eu527 O533 2.370 . S
Eu527 O534 2.370 . S
Eu527 O542 2.363 . S
Eu527 O543 2.363 . S
Eu527 O558 2.363 . S
Eu527 O559 2.363 . S
Eu528 O526 2.370 . S
Eu528 O530 2.370 . S
Eu528 O535 2.370 . S
Eu528 O536 2.370 . S
Eu528 O544 2.363 . S
Eu528 O545 2.363 . S
Eu528 O560 2.363 . S
Eu528 O561 2.363 . S
O529 Eu524 2.370 1_655 S
O529 Eu527 2.370 . S
O529 Eu531 2.370 1_655 S
O530 Eu524 2.370 . S
O530 Eu528 2.370 . S
O530 Eu532 2.370 . S
Eu531 O526 2.370 . S
Eu531 O529 2.370 1_455 S
Eu531 O533 2.370 1_455 S
Eu531 O536 2.370 . S
Eu531 O548 2.363 . S
Eu531 O549 2.363 1_455 S
Eu531 O556 2.363 . S
Eu531 O557 2.363 . S
Eu532 O525 2.370 1_455 S
Eu532 O530 2.370 . S
Eu532 O534 2.370 1_455 S
Eu532 O535 2.370 . S
Eu532 O546 2.363 . S
Eu532 O547 2.363 1_455 S
Eu532 O554 2.363 . S
Eu532 O555 2.363 . S
O533 Eu527 2.370 . S
O533 Eu531 2.370 1_655 S
O533 Eu537 2.370 1_655 S
O534 Eu527 2.370 . S
O534 Eu532 2.370 1_655 S
O534 Eu537 2.370 1_655 S
O535 Eu528 2.370 . S
O535 Eu532 2.370 . S
O535 Eu537 2.370 . S
O536 Eu528 2.370 . S
O536 Eu531 2.370 . S
O536 Eu537 2.370 . S
Eu537 O533 2.370 1_455 S
Eu537 O534 2.370 1_455 S
Eu537 O535 2.370 . S
Eu537 O536 2.370 . S
Eu537 O540 2.363 . S
Eu537 O541 2.363 . S
Eu537 O550 2.363 . S
Eu537 O551 2.363 1_455 S
O538 C512 1.283 . S
O538 Eu524 2.363 . S
O539 C513 1.283 . S
O539 Eu524 2.363 . S
O540 C514 1.283 . S
O540 Eu537 2.363 . S
O541 C515 1.283 . S
O541 Eu537 2.363 . S
O542 C516 1.283 . S
O542 Eu527 2.363 . S
O543 C517 1.283 . S
O543 Eu527 2.363 . S
O544 C518 1.283 . S
O544 Eu528 2.363 . S
O545 C519 1.283 . S
O545 Eu528 2.363 . S
O546 C520 1.283 . S
O546 Eu532 2.363 . S
O547 C521 1.283 . S
O547 Eu532 2.363 1_655 S
O548 C522 1.283 . S
O548 Eu531 2.363 . S
O549 C523 1.283 . S
O549 Eu531 2.363 1_655 S
O550 C518 1.283 . S
O550 Eu537 2.363 . S
O551 C516 1.283 . S
O551 Eu537 2.363 1_655 S
O552 C519 1.283 . S
O552 Eu524 2.363 . S
O553 C517 1.283 . S
O553 Eu524 2.363 1_655 S
O554 C513 1.283 . S
O554 Eu532 2.363 . S
O555 C515 1.283 . S
O555 Eu532 2.363 . S
O556 C512 1.283 . S
O556 Eu531 2.363 . S
O557 C514 1.283 . S
O557 Eu531 2.363 . S
O558 C523 1.283 . S
O558 Eu527 2.363 . S
O559 C521 1.283 . S
O559 Eu527 2.363 . S
O560 C522 1.283 . S
O560 Eu528 2.363 . S
O561 C520 1.283 . S
O561 Eu528 2.363 . S
C562 O588 1.283 . S
C562 O606 1.283 . S
C563 O589 1.283 . S
C563 O604 1.283 . S
C564 O590 1.283 . S
C564 O607 1.283 . S
C565 O591 1.283 . S
C565 O605 1.283 . S
C566 O592 1.283 . S
C566 O601 1.283 . S
C567 O593 1.283 . S
C567 O603 1.283 . S
C568 O594 1.283 . S
C568 O600 1.283 . S
C569 O595 1.283 . S
C569 O602 1.283 . S
C570 O596 1.283 . S
C570 O611 1.283 . S
C571 O597 1.283 . S
C571 O609 1.283 . S
C572 O598 1.283 . S
C572 O610 1.283 . S
C573 O599 1.283 . S
C573 O608 1.283 . S
Eu574 O575 2.370 . S
Eu574 O576 2.370 . S
Eu574 O579 2.370 . S
Eu574 O580 2.370 . S
Eu574 O588 2.363 . S
Eu574 O589 2.363 . S
Eu574 O602 2.363 . S
Eu574 O603 2.363 . S
O575 Eu574 2.370 . S
O575 Eu577 2.365 1_565 S
O575 Eu582 2.364 1_565 S
O576 Eu574 2.370 . S
O576 Eu578 2.365 1_565 S
O576 Eu581 2.366 1_565 S
Eu577 O575 2.365 1_545 S
Eu577 O579 2.365 1_545 S
Eu577 O583 2.375 . S
Eu577 O584 2.375 . S
Eu577 O592 2.371 . S
Eu577 O593 2.355 1_545 S
Eu577 O608 2.363 . S
Eu577 O609 2.363 . S
Eu578 O576 2.365 1_545 S
Eu578 O580 2.365 1_545 S
Eu578 O585 2.375 . S
Eu578 O586 2.375 . S
Eu578 O594 2.371 . S
Eu578 O595 2.355 1_545 S
Eu578 O610 2.363 . S
Eu578 O611 2.363 . S
O579 Eu574 2.370 . S
O579 Eu577 2.365 1_565 S
O579 Eu581 2.366 1_565 S
O580 Eu574 2.370 . S
O580 Eu578 2.365 1_565 S
O580 Eu582 2.364 1_565 S
Eu581 O576 2.366 1_545 S
Eu581 O579 2.366 1_545 S
Eu581 O583 2.374 . S
Eu581 O586 2.374 . S
Eu581 O598 2.363 . S
Eu581 O599 2.363 . S
Eu581 O606 2.356 1_545 S
Eu581 O607 2.370 . S
Eu582 O575 2.364 1_545 S
Eu582 O580 2.364 1_545 S
Eu582 O584 2.376 . S
Eu582 O585 2.376 . S
Eu582 O596 2.363 . S
Eu582 O597 2.363 . S
Eu582 O604 2.353 1_545 S
Eu582 O605 2.373 . S
O583 Eu577 2.375 . S
O583 Eu581 2.374 . S
O583 Eu587 2.370 . S
O584 Eu577 2.375 . S
O584 Eu582 2.376 . S
O584 Eu587 2.370 . S
O585 Eu578 2.375 . S
O585 Eu582 2.376 . S
O585 Eu587 2.370 . S
O586 Eu578 2.375 . S
O586 Eu581 2.374 . S
O586 Eu587 2.370 . S
Eu587 O583 2.370 . S
Eu587 O584 2.370 . S
Eu587 O585 2.370 . S
Eu587 O586 2.370 . S
Eu587 O590 2.363 . S
Eu587 O591 2.363 . S
Eu587 O600 2.363 . S
Eu587 O601 2.363 . S
O588 C562 1.283 . S
O588 Eu574 2.363 . S
O589 C563 1.283 . S
O589 Eu574 2.363 . S
O590 C564 1.283 . S
O590 Eu587 2.363 . S
O591 C565 1.283 . S
O591 Eu587 2.363 . S
O592 C566 1.283 . S
O592 Eu577 2.371 . S
O593 C567 1.283 . S
O593 Eu577 2.355 1_565 S
O594 C568 1.283 . S
O594 Eu578 2.371 . S
O595 C569 1.283 . S
O595 Eu578 2.355 1_565 S
O596 C570 1.283 . S
O596 Eu582 2.363 . S
O597 C571 1.283 . S
O597 Eu582 2.363 . S
O598 C572 1.283 . S
O598 Eu581 2.363 . S
O599 C573 1.283 . S
O599 Eu581 2.363 . S
O600 C568 1.283 . S
O600 Eu587 2.363 . S
O601 C566 1.283 . S
O601 Eu587 2.363 . S
O602 C569 1.283 . S
O602 Eu574 2.363 . S
O603 C567 1.283 . S
O603 Eu574 2.363 . S
O604 C563 1.283 . S
O604 Eu582 2.353 1_565 S
O605 C565 1.283 . S
O605 Eu582 2.373 . S
O606 C562 1.283 . S
O606 Eu581 2.356 1_565 S
O607 C564 1.283 . S
O607 Eu581 2.370 . S
O608 C573 1.283 . S
O608 Eu577 2.363 . S
O609 C571 1.283 . S
O609 Eu577 2.363 . S
O610 C572 1.283 . S
O610 Eu578 2.363 . S
O611 C570 1.283 . S
O611 Eu578 2.363 . S
H612 C618 0.930 . S
H613 C622 0.930 . S
H614 C627 0.929 . S
H615 C625 0.929 . S
H616 C620 0.929 . S
H617 C626 0.929 . S
C618 H612 0.930 . S
C618 C619 1.367 . S
C618 C626 1.378 . S
C619 C618 1.367 . S
C619 C627 1.433 . S
C620 H616 0.929 . S
C620 C622 1.378 . S
C620 C624 1.350 . S
C621 C624 1.463 . S
C621 C626 1.350 . S
C621 N629 1.427 . S
C622 H613 0.930 . S
C622 C620 1.378 . S
C622 C623 1.367 . S
C623 C622 1.367 . S
C623 C625 1.433 . S
C624 C620 1.350 . S
C624 C621 1.463 . S
C624 N628 1.427 . S
C625 H615 0.929 . S
C625 C623 1.433 . S
C625 N628 1.384 . S
C626 H617 0.929 . S
C626 C618 1.378 . S
C626 C621 1.350 . S
C627 H614 0.929 . S
C627 C619 1.433 . S
C627 N629 1.384 . S
N628 C624 1.427 . S
N628 C625 1.384 . S
N629 C621 1.427 . S
N629 C627 1.384 . S
H630 C636 0.930 . S
H631 C640 0.930 . S
H632 C645 0.929 . S
H633 C643 0.929 . S
H634 C638 0.929 . S
H635 C644 0.929 . S
C636 H630 0.930 . S
C636 C637 1.367 . S
C636 C644 1.378 . S
C637 C636 1.367 . S
C637 C645 1.433 . S
C638 H634 0.929 . S
C638 C640 1.378 . S
C638 C642 1.350 . S
C639 C642 1.463 . S
C639 C644 1.350 . S
C639 N647 1.427 . S
C640 H631 0.930 . S
C640 C638 1.378 . S
C640 C641 1.367 . S
C641 C640 1.367 . S
C641 C643 1.433 . S
C642 C638 1.350 . S
C642 C639 1.463 . S
C642 N646 1.427 . S
C643 H633 0.929 . S
C643 C641 1.433 . S
C643 N646 1.384 . S
C644 H635 0.929 . S
C644 C636 1.378 . S
C644 C639 1.350 . S
C645 H632 0.929 . S
C645 C637 1.433 . S
C645 N647 1.384 . S
N646 C642 1.427 . S
N646 C643 1.384 . S
N647 C639 1.427 . S
N647 C645 1.384 . S
H648 C654 0.930 . S
H649 C658 0.930 . S
H650 C663 0.929 . S
H651 C661 0.929 . S
H652 C656 0.929 . S
H653 C662 0.929 . S
C654 H648 0.930 . S
C654 C655 1.367 . S
C654 C662 1.378 . S
C655 C654 1.367 . S
C655 C663 1.433 . S
C656 H652 0.929 . S
C656 C658 1.378 . S
C656 C660 1.350 . S
C657 C660 1.463 . S
C657 C662 1.350 . S
C657 N665 1.427 . S
C658 H649 0.930 . S
C658 C656 1.378 . S
C658 C659 1.367 . S
C659 C658 1.367 . S
C659 C661 1.433 . S
C660 C656 1.350 . S
C660 C657 1.463 . S
C660 N664 1.427 . S
C661 H651 0.929 . S
C661 C659 1.433 . S
C661 N664 1.384 . S
C662 H653 0.929 . S
C662 C654 1.378 . S
C662 C657 1.350 . S
C663 H650 0.929 . S
C663 C655 1.433 . S
C663 N665 1.384 . S
N664 C660 1.427 . S
N664 C661 1.384 . S
N665 C657 1.427 . S
N665 C663 1.384 . S
H666 C672 0.930 . S
H667 C676 0.930 . S
H668 C681 0.929 . S
H669 C679 0.929 . S
H670 C674 0.929 . S
H671 C680 0.929 . S
C672 H666 0.930 . S
C672 C673 1.367 . S
C672 C680 1.378 . S
C673 C672 1.367 . S
C673 C681 1.433 . S
C674 H670 0.929 . S
C674 C676 1.378 . S
C674 C678 1.350 . S
C675 C678 1.463 . S
C675 C680 1.350 . S
C675 N683 1.427 . S
C676 H667 0.930 . S
C676 C674 1.378 . S
C676 C677 1.367 . S
C677 C676 1.367 . S
C677 C679 1.433 . S
C678 C674 1.350 . S
C678 C675 1.463 . S
C678 N682 1.427 . S
C679 H669 0.929 . S
C679 C677 1.433 . S
C679 N682 1.384 . S
C680 H671 0.929 . S
C680 C672 1.378 . S
C680 C675 1.350 . S
C681 H668 0.929 . S
C681 C673 1.433 . S
C681 N683 1.384 . S
N682 C678 1.427 . S
N682 C679 1.384 . S
N683 C675 1.427 . S
N683 C681 1.384 . S
H684 C690 0.930 . S
H685 C694 0.930 . S
H686 C699 0.929 . S
H687 C697 0.929 . S
H688 C692 0.929 . S
H689 C698 0.929 . S
C690 H684 0.930 . S
C690 C691 1.367 . S
C690 C698 1.378 . S
C691 C690 1.367 . S
C691 C699 1.433 . S
C692 H688 0.929 . S
C692 C694 1.378 . S
C692 C696 1.350 . S
C693 C696 1.463 . S
C693 C698 1.350 . S
C693 N701 1.427 . S
C694 H685 0.930 . S
C694 C692 1.378 . S
C694 C695 1.367 . S
C695 C694 1.367 . S
C695 C697 1.433 . S
C696 C692 1.350 . S
C696 C693 1.463 . S
C696 N700 1.427 . S
C697 H687 0.929 . S
C697 C695 1.433 . S
C697 N700 1.384 . S
C698 H689 0.929 . S
C698 C690 1.378 . S
C698 C693 1.350 . S
C699 H686 0.929 . S
C699 C691 1.433 . S
C699 N701 1.384 . S
N700 C696 1.427 . S
N700 C697 1.384 . S
N701 C693 1.427 . S
N701 C699 1.384 . S
H702 C708 0.930 . S
H703 C712 0.930 . S
H704 C717 0.929 . S
H705 C715 0.929 . S
H706 C710 0.929 . S
H707 C716 0.929 . S
C708 H702 0.930 . S
C708 C709 1.367 . S
C708 C716 1.378 . S
C709 C708 1.367 . S
C709 C717 1.433 . S
C710 H706 0.929 . S
C710 C712 1.378 . S
C710 C714 1.350 . S
C711 C714 1.463 . S
C711 C716 1.350 . S
C711 N719 1.427 . S
C712 H703 0.930 . S
C712 C710 1.378 . S
C712 C713 1.367 . S
C713 C712 1.367 . S
C713 C715 1.433 . S
C714 C710 1.350 . S
C714 C711 1.463 . S
C714 N718 1.427 . S
C715 H705 0.929 . S
C715 C713 1.433 . S
C715 N718 1.384 . S
C716 H707 0.929 . S
C716 C708 1.378 . S
C716 C711 1.350 . S
C717 H704 0.929 . S
C717 C709 1.433 . S
C717 N719 1.384 . S
N718 C714 1.427 . S
N718 C715 1.384 . S
N719 C711 1.427 . S
N719 C717 1.384 . S
H720 C726 0.930 . S
H721 C730 0.930 . S
H722 C735 0.929 . S
H723 C733 0.929 . S
H724 C728 0.929 . S
H725 C734 0.929 . S
C726 H720 0.930 . S
C726 C727 1.367 . S
C726 C734 1.378 . S
C727 C726 1.367 . S
C727 C735 1.433 . S
C728 H724 0.929 . S
C728 C730 1.378 . S
C728 C732 1.350 . S
C729 C732 1.463 . S
C729 C734 1.350 . S
C729 N737 1.427 . S
C730 H721 0.930 . S
C730 C728 1.378 . S
C730 C731 1.367 . S
C731 C730 1.367 . S
C731 C733 1.433 . S
C732 C728 1.350 . S
C732 C729 1.463 . S
C732 N736 1.427 . S
C733 H723 0.929 . S
C733 C731 1.433 . S
C733 N736 1.384 . S
C734 H725 0.929 . S
C734 C726 1.378 . S
C734 C729 1.350 . S
C735 H722 0.929 . S
C735 C727 1.433 . S
C735 N737 1.384 . S
N736 C732 1.427 . S
N736 C733 1.384 . S
N737 C729 1.427 . S
N737 C735 1.384 . S
H738 C744 0.930 . S
H739 C748 0.930 . S
H740 C753 0.929 . S
H741 C751 0.929 . S
H742 C746 0.929 . S
H743 C752 0.929 . S
C744 H738 0.930 . S
C744 C745 1.367 . S
C744 C752 1.378 . S
C745 C744 1.367 . S
C745 C753 1.433 . S
C746 H742 0.929 . S
C746 C748 1.378 . S
C746 C750 1.350 . S
C747 C750 1.463 . S
C747 C752 1.350 . S
C747 N755 1.427 . S
C748 H739 0.930 . S
C748 C746 1.378 . S
C748 C749 1.367 . S
C749 C748 1.367 . S
C749 C751 1.433 . S
C750 C746 1.350 . S
C750 C747 1.463 . S
C750 N754 1.427 . S
C751 H741 0.929 . S
C751 C749 1.433 . S
C751 N754 1.384 . S
C752 H743 0.929 . S
C752 C744 1.378 . S
C752 C747 1.350 . S
C753 H740 0.929 . S
C753 C745 1.433 . S
C753 N755 1.384 . S
N754 C750 1.427 . S
N754 C751 1.384 . S
N755 C747 1.427 . S
N755 C753 1.384 . S
H756 C762 0.930 . S
H757 C766 0.930 . S
H758 C771 0.929 . S
H759 C769 0.929 . S
H760 C764 0.929 . S
H761 C770 0.929 . S
C762 H756 0.930 . S
C762 C763 1.367 . S
C762 C770 1.378 . S
C763 C762 1.367 . S
C763 C771 1.433 . S
C764 H760 0.929 . S
C764 C766 1.378 . S
C764 C768 1.350 . S
C765 C768 1.463 . S
C765 C770 1.350 . S
C765 N773 1.427 . S
C766 H757 0.930 . S
C766 C764 1.378 . S
C766 C767 1.367 . S
C767 C766 1.367 . S
C767 C769 1.433 . S
C768 C764 1.350 . S
C768 C765 1.463 . S
C768 N772 1.427 . S
C769 H759 0.929 . S
C769 C767 1.433 . S
C769 N772 1.384 . S
C770 H761 0.929 . S
C770 C762 1.378 . S
C770 C765 1.350 . S
C771 H758 0.929 . S
C771 C763 1.433 . S
C771 N773 1.384 . S
N772 C768 1.427 . S
N772 C769 1.384 . S
N773 C765 1.427 . S
N773 C771 1.384 . S
H774 C780 0.930 . S
H775 C784 0.930 . S
H776 C789 0.929 . S
H777 C787 0.929 . S
H778 C782 0.929 . S
H779 C788 0.929 . S
C780 H774 0.930 . S
C780 C781 1.367 . S
C780 C788 1.378 . S
C781 C780 1.367 . S
C781 C789 1.433 . S
C782 H778 0.929 . S
C782 C784 1.378 . S
C782 C786 1.350 . S
C783 C786 1.463 . S
C783 C788 1.350 . S
C783 N791 1.427 . S
C784 H775 0.930 . S
C784 C782 1.378 . S
C784 C785 1.367 . S
C785 C784 1.367 . S
C785 C787 1.433 . S
C786 C782 1.350 . S
C786 C783 1.463 . S
C786 N790 1.427 . S
C787 H777 0.929 . S
C787 C785 1.433 . S
C787 N790 1.384 . S
C788 H779 0.929 . S
C788 C780 1.378 . S
C788 C783 1.350 . S
C789 H776 0.929 . S
C789 C781 1.433 . S
C789 N791 1.384 . S
N790 C786 1.427 . S
N790 C787 1.384 . S
N791 C783 1.427 . S
N791 C789 1.384 . S
H792 C798 0.930 . S
H793 C802 0.930 . S
H794 C807 0.929 . S
H795 C805 0.929 . S
H796 C800 0.929 . S
H797 C806 0.929 . S
C798 H792 0.930 . S
C798 C799 1.367 . S
C798 C806 1.378 . S
C799 C798 1.367 . S
C799 C807 1.433 . S
C800 H796 0.929 . S
C800 C802 1.378 . S
C800 C804 1.350 . S
C801 C804 1.463 . S
C801 C806 1.350 . S
C801 N809 1.427 . S
C802 H793 0.930 . S
C802 C800 1.378 . S
C802 C803 1.367 . S
C803 C802 1.367 . S
C803 C805 1.433 . S
C804 C800 1.350 . S
C804 C801 1.463 . S
C804 N808 1.427 . S
C805 H795 0.929 . S
C805 C803 1.433 . S
C805 N808 1.384 . S
C806 H797 0.929 . S
C806 C798 1.378 . S
C806 C801 1.350 . S
C807 H794 0.929 . S
C807 C799 1.433 . S
C807 N809 1.384 . S
N808 C804 1.427 . S
N808 C805 1.384 . S
N809 C801 1.427 . S
N809 C807 1.384 . S
H810 C816 0.930 . S
H811 C820 0.930 . S
H812 C825 0.929 . S
H813 C823 0.929 . S
H814 C818 0.929 . S
H815 C824 0.929 . S
C816 H810 0.930 . S
C816 C817 1.367 . S
C816 C824 1.378 . S
C817 C816 1.367 . S
C817 C825 1.433 . S
C818 H814 0.929 . S
C818 C820 1.378 . S
C818 C822 1.350 . S
C819 C822 1.463 . S
C819 C824 1.350 . S
C819 N827 1.427 . S
C820 H811 0.930 . S
C820 C818 1.378 . S
C820 C821 1.367 . S
C821 C820 1.367 . S
C821 C823 1.433 . S
C822 C818 1.350 . S
C822 C819 1.463 . S
C822 N826 1.427 . S
C823 H813 0.929 . S
C823 C821 1.433 . S
C823 N826 1.384 . S
C824 H815 0.929 . S
C824 C816 1.378 . S
C824 C819 1.350 . S
C825 H812 0.929 . S
C825 C817 1.433 . S
C825 N827 1.384 . S
N826 C822 1.427 . S
N826 C823 1.384 . S
N827 C819 1.427 . S
N827 C825 1.384 . S
H828 C834 0.930 . S
H829 C838 0.930 . S
H830 C843 0.929 . S
H831 C841 0.929 . S
H832 C836 0.929 . S
H833 C842 0.929 . S
C834 H828 0.930 . S
C834 C835 1.367 . S
C834 C842 1.378 . S
C835 C834 1.367 . S
C835 C843 1.433 1_554 S
C836 H832 0.929 . S
C836 C838 1.378 . S
C836 C840 1.362 . S
C837 C840 1.462 1_554 S
C837 C842 1.350 . S
C837 N845 1.427 1_554 S
C838 H829 0.930 . S
C838 C836 1.378 . S
C838 C839 1.372 . S
C839 C838 1.372 . S
C839 C841 1.428 1_556 S
C840 C836 1.362 . S
C840 C837 1.462 1_556 S
C840 N844 1.415 1_556 S
C841 H831 0.929 . S
C841 C839 1.428 1_554 S
C841 N844 1.384 . S
C842 H833 0.929 . S
C842 C834 1.378 . S
C842 C837 1.350 . S
C843 H830 0.929 . S
C843 C835 1.433 1_556 S
C843 N845 1.384 . S
N844 C840 1.415 1_554 S
N844 C841 1.384 . S
N845 C837 1.427 1_556 S
N845 C843 1.384 . S
H846 C852 0.930 . S
H847 C856 0.930 . S
H848 C861 0.929 . S
H849 C859 0.929 . S
H850 C854 0.929 . S
H851 C860 0.929 . S
C852 H846 0.930 . S
C852 C853 1.365 1_556 S
C852 C860 1.378 . S
C853 C852 1.365 1_554 S
C853 C861 1.435 . S
C854 H850 0.929 . S
C854 C856 1.378 . S
C854 C858 1.374 . S
C855 C858 1.462 1_556 S
C855 C860 1.350 . S
C855 N863 1.427 1_556 S
C856 H847 0.930 . S
C856 C854 1.378 . S
C856 C857 1.384 . S
C857 C856 1.384 . S
C857 C859 1.416 1_554 S
C858 C854 1.374 . S
C858 C855 1.462 1_554 S
C858 N862 1.403 1_554 S
C859 H849 0.929 . S
C859 C857 1.416 1_556 S
C859 N862 1.384 . S
C860 H851 0.929 . S
C860 C852 1.378 . S
C860 C855 1.350 . S
C861 H848 0.929 . S
C861 C853 1.435 . S
C861 N863 1.384 . S
N862 C858 1.403 1_556 S
N862 C859 1.384 . S
N863 C855 1.427 1_554 S
N863 C861 1.384 . S
H864 C870 0.930 . S
H865 C874 0.930 . S
H866 C879 0.929 . S
H867 C877 0.929 . S
H868 C872 0.929 . S
H869 C878 0.929 . S
C870 H864 0.930 . S
C870 C871 1.375 . S
C870 C878 1.378 . S
C871 C870 1.375 . S
C871 C879 1.425 1_556 S
C872 H868 0.929 . S
C872 C874 1.378 . S
C872 C876 1.376 . S
C873 C876 1.461 1_556 S
C873 C878 1.362 . S
C873 N881 1.415 1_556 S
C874 H865 0.930 . S
C874 C872 1.378 . S
C874 C875 1.388 . S
C875 C874 1.388 . S
C875 C877 1.412 1_554 S
C876 C872 1.376 . S
C876 C873 1.461 1_554 S
C876 N880 1.401 1_554 S
C877 H867 0.929 . S
C877 C875 1.412 1_556 S
C877 N880 1.384 . S
C878 H869 0.929 . S
C878 C870 1.378 . S
C878 C873 1.362 . S
C879 H866 0.929 . S
C879 C871 1.425 1_554 S
C879 N881 1.384 . S
N880 C876 1.401 1_556 S
N880 C877 1.384 . S
N881 C873 1.415 1_554 S
N881 C879 1.384 . S
H882 C888 0.930 . S
H883 C892 0.930 . S
H884 C897 0.929 . S
H885 C895 0.929 . S
H886 C890 0.929 . S
H887 C896 0.929 . S
C888 H882 0.930 . S
C888 C889 1.385 . S
C888 C896 1.378 . S
C889 C888 1.385 . S
C889 C897 1.415 1_554 S
C890 H886 0.929 . S
C890 C892 1.378 . S
C890 C894 1.372 . S
C891 C894 1.461 1_554 S
C891 C896 1.381 . S
C891 N899 1.396 1_554 S
C892 H883 0.930 . S
C892 C890 1.378 . S
C892 C893 1.376 . S
C893 C892 1.376 . S
C893 C895 1.424 1_556 S
C894 C890 1.372 . S
C894 C891 1.461 1_556 S
C894 N898 1.405 1_556 S
C895 H885 0.929 . S
C895 C893 1.424 1_554 S
C895 N898 1.384 . S
C896 H887 0.929 . S
C896 C888 1.378 . S
C896 C891 1.381 . S
C897 H884 0.929 . S
C897 C889 1.415 1_556 S
C897 N899 1.384 . S
N898 C894 1.405 1_554 S
N898 C895 1.384 . S
N899 C891 1.396 1_556 S
N899 C897 1.384 . S
H900 C906 0.930 . S
H901 C910 0.930 . S
H902 C915 0.929 . S
H903 C913 0.929 . S
H904 C908 0.929 . S
H905 C914 0.929 . S
C906 H900 0.930 . S
C906 C907 1.367 . S
C906 C914 1.378 . S
C907 C906 1.367 . S
C907 C915 1.433 . S
C908 H904 0.929 . S
C908 C910 1.378 . S
C908 C912 1.350 . S
C909 C912 1.463 . S
C909 C914 1.350 . S
C909 N917 1.427 . S
C910 H901 0.930 . S
C910 C908 1.378 . S
C910 C911 1.367 . S
C911 C910 1.367 . S
C911 C913 1.433 . S
C912 C908 1.350 . S
C912 C909 1.463 . S
C912 N916 1.427 . S
C913 H903 0.929 . S
C913 C911 1.433 . S
C913 N916 1.384 . S
C914 H905 0.929 . S
C914 C906 1.378 . S
C914 C909 1.350 . S
C915 H902 0.929 . S
C915 C907 1.433 . S
C915 N917 1.384 . S
N916 C912 1.427 . S
N916 C913 1.384 . S
N917 C909 1.427 . S
N917 C915 1.384 . S
H918 C924 0.930 . S
H919 C928 0.930 . S
H920 C933 0.929 . S
H921 C931 0.929 . S
H922 C926 0.929 . S
H923 C932 0.929 . S
C924 H918 0.930 . S
C924 C925 1.373 . S
C924 C932 1.378 . S
C925 C924 1.373 . S
C925 C933 1.427 1_545 S
C926 H922 0.929 . S
C926 C928 1.378 . S
C926 C930 1.351 . S
C927 C930 1.462 1_545 S
C927 C932 1.360 . S
C927 N935 1.417 1_545 S
C928 H919 0.930 . S
C928 C926 1.378 . S
C928 C929 1.368 1_565 S
C929 C928 1.368 1_545 S
C929 C931 1.432 . S
C930 C926 1.351 . S
C930 C927 1.462 1_565 S
C930 N934 1.426 1_565 S
C931 H921 0.929 . S
C931 C929 1.432 . S
C931 N934 1.384 . S
C932 H923 0.929 . S
C932 C924 1.378 . S
C932 C927 1.360 . S
C933 H920 0.929 . S
C933 C925 1.427 1_565 S
C933 N935 1.384 . S
N934 C930 1.426 1_545 S
N934 C931 1.384 . S
N935 C927 1.417 1_565 S
N935 C933 1.384 . S
H936 C942 0.930 . S
H937 C946 0.930 . S
H938 C951 0.929 . S
H939 C949 0.929 . S
H940 C944 0.929 . S
H941 C950 0.929 . S
C942 H936 0.930 . S
C942 C943 1.367 . S
C942 C950 1.378 . S
C943 C942 1.367 . S
C943 C951 1.433 1_455 S
C944 H940 0.929 . S
C944 C946 1.378 . S
C944 C948 1.350 1_655 S
C945 C948 1.463 . S
C945 C950 1.350 . S
C945 N953 1.427 1_455 S
C946 H937 0.930 . S
C946 C944 1.378 . S
C946 C947 1.367 1_655 S
C947 C946 1.367 1_455 S
C947 C949 1.433 . S
C948 C944 1.350 1_455 S
C948 C945 1.463 . S
C948 N952 1.427 . S
C949 H939 0.929 . S
C949 C947 1.433 . S
C949 N952 1.384 . S
C950 H941 0.929 . S
C950 C942 1.378 . S
C950 C945 1.350 . S
C951 H938 0.929 . S
C951 C943 1.433 1_655 S
C951 N953 1.384 . S
N952 C948 1.427 . S
N952 C949 1.384 . S
N953 C945 1.427 1_655 S
N953 C951 1.384 . S
H954 C960 0.930 . S
H955 C964 0.930 . S
H956 C969 0.929 . S
H957 C967 0.929 . S
H958 C962 0.929 . S
H959 C968 0.929 . S
C960 H954 0.930 . S
C960 C961 1.382 . S
C960 C968 1.378 . S
C961 C960 1.382 . S
C961 C969 1.418 1_565 S
C962 H958 0.929 . S
C962 C964 1.378 . S
C962 C966 1.350 . S
C963 C966 1.461 1_565 S
C963 C968 1.373 . S
C963 N971 1.404 1_565 S
C964 H955 0.930 . S
C964 C962 1.378 . S
C964 C965 1.400 . S
C965 C964 1.400 . S
C965 C967 1.400 1_545 S
C966 C962 1.350 . S
C966 C963 1.461 1_545 S
C966 N970 1.427 1_545 S
C967 H957 0.929 . S
C967 C965 1.400 1_565 S
C967 N970 1.384 . S
C968 H959 0.929 . S
C968 C960 1.378 . S
C968 C963 1.373 . S
C969 H956 0.929 . S
C969 C961 1.418 1_545 S
C969 N971 1.384 . S
N970 C966 1.427 1_565 S
N970 C967 1.384 . S
N971 C963 1.404 1_545 S
N971 C969 1.384 . S
H972 C978 0.930 . S
H973 C982 0.930 . S
H974 C987 0.929 . S
H975 C985 0.929 . S
H976 C980 0.929 . S
H977 C986 0.929 . S
C978 H972 0.930 . S
C978 C979 1.367 . S
C978 C986 1.378 . S
C979 C978 1.367 . S
C979 C987 1.433 1_455 S
C980 H976 0.929 . S
C980 C982 1.378 . S
C980 C984 1.350 1_655 S
C981 C984 1.463 . S
C981 C986 1.350 . S
C981 N989 1.427 1_455 S
C982 H973 0.930 . S
C982 C980 1.378 . S
C982 C983 1.367 1_655 S
C983 C982 1.367 1_455 S
C983 C985 1.433 . S
C984 C980 1.350 1_455 S
C984 C981 1.463 . S
C984 N988 1.427 . S
C985 H975 0.929 . S
C985 C983 1.433 . S
C985 N988 1.384 . S
C986 H977 0.929 . S
C986 C978 1.378 . S
C986 C981 1.350 . S
C987 H974 0.929 . S
C987 C979 1.433 1_655 S
C987 N989 1.384 . S
N988 C984 1.427 . S
N988 C985 1.384 . S
N989 C981 1.427 1_655 S
N989 C987 1.384 . S
H990 C996 0.930 . S
H991 C1000 0.930 . S
H992 C1005 0.929 . S
H993 C1003 0.929 . S
H994 C998 0.929 . S
H995 C1004 0.929 . S
C996 H990 0.930 . S
C996 C997 1.367 . S
C996 C1004 1.378 . S
C997 C996 1.367 . S
C997 C1005 1.433 1_545 S
C998 H994 0.929 . S
C998 C1000 1.378 . S
C998 C1002 1.363 . S
C999 C1002 1.462 1_545 S
C999 C1004 1.350 . S
C999 N1007 1.427 1_545 S
C1000 H991 0.930 . S
C1000 C998 1.378 . S
C1000 C1001 1.372 . S
C1001 C1000 1.372 . S
C1001 C1003 1.428 1_565 S
C1002 C998 1.363 . S
C1002 C999 1.462 1_565 S
C1002 N1006 1.414 1_565 S
C1003 H993 0.929 . S
C1003 C1001 1.428 1_545 S
C1003 N1006 1.384 . S
C1004 H995 0.929 . S
C1004 C996 1.378 . S
C1004 C999 1.350 . S
C1005 H992 0.929 . S
C1005 C997 1.433 1_565 S
C1005 N1007 1.384 . S
N1006 C1002 1.414 1_545 S
N1006 C1003 1.384 . S
N1007 C999 1.427 1_565 S
N1007 C1005 1.384 . S
H1008 C1014 0.930 . S
H1009 C1018 0.930 . S
H1010 C1023 0.929 . S
H1011 C1021 0.929 . S
H1012 C1016 0.929 . S
H1013 C1022 0.929 . S
C1014 H1008 0.930 . S
C1014 C1015 1.367 . S
C1014 C1022 1.378 . S
C1015 C1014 1.367 . S
C1015 C1023 1.433 1_455 S
C1016 H1012 0.929 . S
C1016 C1018 1.378 . S
C1016 C1020 1.350 1_655 S
C1017 C1020 1.463 . S
C1017 C1022 1.350 . S
C1017 N1025 1.427 1_455 S
C1018 H1009 0.930 . S
C1018 C1016 1.378 . S
C1018 C1019 1.367 1_655 S
C1019 C1018 1.367 1_455 S
C1019 C1021 1.433 . S
C1020 C1016 1.350 1_455 S
C1020 C1017 1.463 . S
C1020 N1024 1.427 . S
C1021 H1011 0.929 . S
C1021 C1019 1.433 . S
C1021 N1024 1.384 . S
C1022 H1013 0.929 . S
C1022 C1014 1.378 . S
C1022 C1017 1.350 . S
C1023 H1010 0.929 . S
C1023 C1015 1.433 1_655 S
C1023 N1025 1.384 . S
N1024 C1020 1.427 . S
N1024 C1021 1.384 . S
N1025 C1017 1.427 1_655 S
N1025 C1023 1.384 . S
H1026 C1032 0.930 . S
H1027 C1036 0.930 . S
H1028 C1041 0.929 . S
H1029 C1039 0.929 . S
H1030 C1034 0.929 . S
H1031 C1040 0.929 . S
C1032 H1026 0.930 . S
C1032 C1033 1.378 . S
C1032 C1040 1.378 . S
C1033 C1032 1.378 . S
C1033 C1041 1.423 1_545 S
C1034 H1030 0.929 . S
C1034 C1036 1.378 . S
C1034 C1038 1.350 1_565 S
C1035 C1038 1.462 . S
C1035 C1040 1.362 . S
C1035 N1043 1.416 1_545 S
C1036 H1027 0.930 . S
C1036 C1034 1.378 . S
C1036 C1037 1.366 1_565 S
C1037 C1036 1.366 1_545 S
C1037 C1039 1.434 . S
C1038 C1034 1.350 1_545 S
C1038 C1035 1.462 . S
C1038 N1042 1.428 . S
C1039 H1029 0.929 . S
C1039 C1037 1.434 . S
C1039 N1042 1.384 . S
C1040 H1031 0.929 . S
C1040 C1032 1.378 . S
C1040 C1035 1.362 . S
C1041 H1028 0.929 . S
C1041 C1033 1.423 1_565 S
C1041 N1043 1.384 . S
N1042 C1038 1.428 . S
N1042 C1039 1.384 . S
N1043 C1035 1.416 1_565 S
N1043 C1041 1.384 . S
H1044 C1050 0.930 . S
H1045 C1054 0.930 . S
H1046 C1059 0.929 . S
H1047 C1057 0.929 . S
H1048 C1052 0.929 . S
H1049 C1058 0.929 . S
C1050 H1044 0.930 . S
C1050 C1051 1.367 1_655 S
C1050 C1058 1.378 . S
C1051 C1050 1.367 1_455 S
C1051 C1059 1.433 . S
C1052 H1048 0.929 . S
C1052 C1054 1.378 . S
C1052 C1056 1.350 . S
C1053 C1056 1.463 . S
C1053 C1058 1.350 1_455 S
C1053 N1061 1.427 . S
C1054 H1045 0.930 . S
C1054 C1052 1.378 . S
C1054 C1055 1.367 . S
C1055 C1054 1.367 . S
C1055 C1057 1.433 1_455 S
C1056 C1052 1.350 . S
C1056 C1053 1.463 . S
C1056 N1060 1.427 1_455 S
C1057 H1047 0.929 . S
C1057 C1055 1.433 1_655 S
C1057 N1060 1.384 . S
C1058 H1049 0.929 . S
C1058 C1050 1.378 . S
C1058 C1053 1.350 1_655 S
C1059 H1046 0.929 . S
C1059 C1051 1.433 . S
C1059 N1061 1.384 . S
N1060 C1056 1.427 1_655 S
N1060 C1057 1.384 . S
N1061 C1053 1.427 . S
N1061 C1059 1.384 . S
H1062 C1068 0.930 . S
H1063 C1072 0.930 . S
H1064 C1077 0.929 . S
H1065 C1075 0.929 . S
H1066 C1070 0.929 . S
H1067 C1076 0.929 . S
C1068 H1062 0.930 . S
C1068 C1069 1.364 . S
C1068 C1076 1.378 . S
C1069 C1068 1.364 . S
C1069 C1077 1.436 1_565 S
C1070 H1066 0.929 . S
C1070 C1072 1.378 . S
C1070 C1074 1.350 . S
C1071 C1074 1.462 1_565 S
C1071 C1076 1.362 . S
C1071 N1079 1.416 1_565 S
C1072 H1063 0.930 . S
C1072 C1070 1.378 . S
C1072 C1073 1.402 . S
C1073 C1072 1.402 . S
C1073 C1075 1.398 1_545 S
C1074 C1070 1.350 . S
C1074 C1071 1.462 1_545 S
C1074 N1078 1.427 1_545 S
C1075 H1065 0.929 . S
C1075 C1073 1.398 1_565 S
C1075 N1078 1.384 . S
C1076 H1067 0.929 . S
C1076 C1068 1.378 . S
C1076 C1071 1.362 . S
C1077 H1064 0.929 . S
C1077 C1069 1.436 1_545 S
C1077 N1079 1.384 . S
N1078 C1074 1.427 1_565 S
N1078 C1075 1.384 . S
N1079 C1071 1.416 1_545 S
N1079 C1077 1.384 . S
H1080 C1086 0.930 . S
H1081 C1090 0.930 . S
H1082 C1095 0.929 . S
H1083 C1093 0.929 . S
H1084 C1088 0.929 . S
H1085 C1094 0.929 . S
C1086 H1080 0.930 . S
C1086 C1087 1.367 1_655 S
C1086 C1094 1.378 . S
C1087 C1086 1.367 1_455 S
C1087 C1095 1.433 . S
C1088 H1084 0.929 . S
C1088 C1090 1.378 . S
C1088 C1092 1.350 . S
C1089 C1092 1.463 . S
C1089 C1094 1.350 1_455 S
C1089 N1097 1.427 . S
C1090 H1081 0.930 . S
C1090 C1088 1.378 . S
C1090 C1091 1.367 . S
C1091 C1090 1.367 . S
C1091 C1093 1.433 1_455 S
C1092 C1088 1.350 . S
C1092 C1089 1.463 . S
C1092 N1096 1.427 1_455 S
C1093 H1083 0.929 . S
C1093 C1091 1.433 1_655 S
C1093 N1096 1.384 . S
C1094 H1085 0.929 . S
C1094 C1086 1.378 . S
C1094 C1089 1.350 1_655 S
C1095 H1082 0.929 . S
C1095 C1087 1.433 . S
C1095 N1097 1.384 . S
N1096 C1092 1.427 1_655 S
N1096 C1093 1.384 . S
N1097 C1089 1.427 . S
N1097 C1095 1.384 . S
H1098 C1104 0.930 . S
H1099 C1108 0.930 . S
H1100 C1113 0.929 . S
H1101 C1111 0.929 . S
H1102 C1106 0.929 . S
H1103 C1112 0.929 . S
C1104 H1098 0.930 . S
C1104 C1105 1.370 . S
C1104 C1112 1.378 . S
C1105 C1104 1.370 . S
C1105 C1113 1.431 1_545 S
C1106 H1102 0.929 . S
C1106 C1108 1.378 . S
C1106 C1110 1.349 1_565 S
C1107 C1110 1.462 . S
C1107 C1112 1.353 . S
C1107 N1115 1.425 1_545 S
C1108 H1099 0.930 . S
C1108 C1106 1.378 . S
C1108 C1109 1.366 1_565 S
C1109 C1108 1.366 1_545 S
C1109 C1111 1.434 . S
C1110 C1106 1.349 1_545 S
C1110 C1107 1.462 . S
C1110 N1114 1.429 . S
C1111 H1101 0.929 . S
C1111 C1109 1.434 . S
C1111 N1114 1.384 . S
C1112 H1103 0.929 . S
C1112 C1104 1.378 . S
C1112 C1107 1.353 . S
C1113 H1100 0.929 . S
C1113 C1105 1.431 1_565 S
C1113 N1115 1.384 . S
N1114 C1110 1.429 . S
N1114 C1111 1.384 . S
N1115 C1107 1.425 1_565 S
N1115 C1113 1.384 . S
H1116 C1122 0.930 . S
H1117 C1126 0.930 . S
H1118 C1131 0.929 . S
H1119 C1129 0.929 . S
H1120 C1124 0.929 . S
H1121 C1130 0.929 . S
C1122 H1116 0.930 . S
C1122 C1123 1.367 1_655 S
C1122 C1130 1.378 . S
C1123 C1122 1.367 1_455 S
C1123 C1131 1.433 . S
C1124 H1120 0.929 . S
C1124 C1126 1.378 . S
C1124 C1128 1.350 . S
C1125 C1128 1.463 . S
C1125 C1130 1.350 1_455 S
C1125 N1133 1.427 . S
C1126 H1117 0.930 . S
C1126 C1124 1.378 . S
C1126 C1127 1.367 . S
C1127 C1126 1.367 . S
C1127 C1129 1.433 1_455 S
C1128 C1124 1.350 . S
C1128 C1125 1.463 . S
C1128 N1132 1.427 1_455 S
C1129 H1119 0.929 . S
C1129 C1127 1.433 1_655 S
C1129 N1132 1.384 . S
C1130 H1121 0.929 . S
C1130 C1122 1.378 . S
C1130 C1125 1.350 1_655 S
C1131 H1118 0.929 . S
C1131 C1123 1.433 . S
C1131 N1133 1.384 . S
N1132 C1128 1.427 1_655 S
N1132 C1129 1.384 . S
N1133 C1125 1.427 . S
N1133 C1131 1.384 . S
H1134 C1140 0.930 . S
H1135 C1144 0.930 . S
H1136 C1149 0.929 . S
H1137 C1147 0.929 . S
H1138 C1142 0.929 . S
H1139 C1148 0.929 . S
C1140 H1134 0.930 . S
C1140 C1141 1.388 . S
C1140 C1148 1.378 . S
C1141 C1140 1.388 . S
C1141 C1149 1.412 1_545 S
C1142 H1138 0.929 . S
C1142 C1144 1.378 . S
C1142 C1146 1.375 . S
C1143 C1146 1.460 1_545 S
C1143 C1148 1.386 . S
C1143 N1151 1.391 1_545 S
C1144 H1135 0.930 . S
C1144 C1142 1.378 . S
C1144 C1145 1.378 . S
C1145 C1144 1.378 . S
C1145 C1147 1.422 1_565 S
C1146 C1142 1.375 . S
C1146 C1143 1.460 1_565 S
C1146 N1150 1.402 1_565 S
C1147 H1137 0.929 . S
C1147 C1145 1.422 1_545 S
C1147 N1150 1.384 . S
C1148 H1139 0.929 . S
C1148 C1140 1.378 . S
C1148 C1143 1.386 . S
C1149 H1136 0.929 . S
C1149 C1141 1.412 1_565 S
C1149 N1151 1.384 . S
N1150 C1146 1.402 1_545 S
N1150 C1147 1.384 . S
N1151 C1143 1.391 1_565 S
N1151 C1149 1.384 . S
H1152 C1158 0.930 . S
H1153 C1162 0.930 . S
H1154 C1167 0.929 . S
H1155 C1165 0.929 . S
H1156 C1160 0.929 . S
H1157 C1166 0.929 . S
C1158 H1152 0.930 . S
C1158 C1159 1.367 . S
C1158 C1166 1.378 . S
C1159 C1158 1.367 . S
C1159 C1167 1.433 . S
C1160 H1156 0.929 . S
C1160 C1162 1.378 . S
C1160 C1164 1.350 . S
C1161 C1164 1.463 . S
C1161 C1166 1.350 . S
C1161 N1169 1.427 . S
C1162 H1153 0.930 . S
C1162 C1160 1.378 . S
C1162 C1163 1.367 . S
C1163 C1162 1.367 . S
C1163 C1165 1.433 . S
C1164 C1160 1.350 . S
C1164 C1161 1.463 . S
C1164 N1168 1.427 . S
C1165 H1155 0.929 . S
C1165 C1163 1.433 . S
C1165 N1168 1.384 . S
C1166 H1157 0.929 . S
C1166 C1158 1.378 . S
C1166 C1161 1.350 . S
C1167 H1154 0.929 . S
C1167 C1159 1.433 . S
C1167 N1169 1.384 . S
N1168 C1164 1.427 . S
N1168 C1165 1.384 . S
N1169 C1161 1.427 . S
N1169 C1167 1.384 . S
H1170 C1176 0.930 . S
H1171 C1180 0.930 . S
H1172 C1185 0.929 . S
H1173 C1183 0.929 . S
H1174 C1178 0.929 . S
H1175 C1184 0.929 . S
C1176 H1170 0.930 . S
C1176 C1177 1.387 . S
C1176 C1184 1.378 . S
C1177 C1176 1.387 . S
C1177 C1185 1.413 1_545 S
C1178 H1174 0.929 . S
C1178 C1180 1.378 . S
C1178 C1182 1.374 . S
C1179 C1182 1.460 1_545 S
C1179 C1184 1.384 . S
C1179 N1187 1.393 1_545 S
C1180 H1171 0.930 . S
C1180 C1178 1.378 . S
C1180 C1181 1.377 . S
C1181 C1180 1.377 . S
C1181 C1183 1.423 1_565 S
C1182 C1178 1.374 . S
C1182 C1179 1.460 1_565 S
C1182 N1186 1.403 1_565 S
C1183 H1173 0.929 . S
C1183 C1181 1.423 1_545 S
C1183 N1186 1.384 . S
C1184 H1175 0.929 . S
C1184 C1176 1.378 . S
C1184 C1179 1.384 . S
C1185 H1172 0.929 . S
C1185 C1177 1.413 1_565 S
C1185 N1187 1.384 . S
N1186 C1182 1.403 1_545 S
N1186 C1183 1.384 . S
N1187 C1179 1.393 1_565 S
N1187 C1185 1.384 . S
H1188 C1194 0.930 . S
H1189 C1198 0.930 . S
H1190 C1203 0.929 . S
H1191 C1201 0.929 . S
H1192 C1196 0.929 . S
H1193 C1202 0.929 . S
C1194 H1188 0.930 . S
C1194 C1195 1.367 . S
C1194 C1202 1.378 . S
C1195 C1194 1.367 . S
C1195 C1203 1.433 1_545 S
C1196 H1192 0.929 . S
C1196 C1198 1.378 . S
C1196 C1200 1.360 . S
C1197 C1200 1.462 1_545 S
C1197 C1202 1.350 . S
C1197 N1205 1.427 1_545 S
C1198 H1189 0.930 . S
C1198 C1196 1.378 . S
C1198 C1199 1.369 . S
C1199 C1198 1.369 . S
C1199 C1201 1.431 1_565 S
C1200 C1196 1.360 . S
C1200 C1197 1.462 1_565 S
C1200 N1204 1.417 1_565 S
C1201 H1191 0.929 . S
C1201 C1199 1.431 1_545 S
C1201 N1204 1.384 . S
C1202 H1193 0.929 . S
C1202 C1194 1.378 . S
C1202 C1197 1.350 . S
C1203 H1190 0.929 . S
C1203 C1195 1.433 1_565 S
C1203 N1205 1.384 . S
N1204 C1200 1.417 1_545 S
N1204 C1201 1.384 . S
N1205 C1197 1.427 1_565 S
N1205 C1203 1.384 . S
H1206 C1212 0.930 . S
H1207 C1216 0.930 . S
H1208 C1221 0.929 . S
H1209 C1219 0.929 . S
H1210 C1214 0.929 . S
H1211 C1220 0.929 . S
C1212 H1206 0.930 . S
C1212 C1213 1.367 . S
C1212 C1220 1.378 . S
C1213 C1212 1.367 . S
C1213 C1221 1.433 . S
C1214 H1210 0.929 . S
C1214 C1216 1.378 . S
C1214 C1218 1.350 . S
C1215 C1218 1.463 . S
C1215 C1220 1.350 . S
C1215 N1223 1.427 . S
C1216 H1207 0.930 . S
C1216 C1214 1.378 . S
C1216 C1217 1.367 . S
C1217 C1216 1.367 . S
C1217 C1219 1.433 . S
C1218 C1214 1.350 . S
C1218 C1215 1.463 . S
C1218 N1222 1.427 . S
C1219 H1209 0.929 . S
C1219 C1217 1.433 . S
C1219 N1222 1.384 . S
C1220 H1211 0.929 . S
C1220 C1212 1.378 . S
C1220 C1215 1.350 . S
C1221 H1208 0.929 . S
C1221 C1213 1.433 . S
C1221 N1223 1.384 . S
N1222 C1218 1.427 . S
N1222 C1219 1.384 . S
N1223 C1215 1.427 . S
N1223 C1221 1.384 . S
H1224 C1230 0.930 . S
H1225 C1234 0.930 . S
H1226 C1239 0.929 . S
H1227 C1237 0.929 . S
H1228 C1232 0.929 . S
H1229 C1238 0.929 . S
C1230 H1224 0.930 . S
C1230 C1231 1.370 1_565 S
C1230 C1238 1.378 . S
C1231 C1230 1.370 1_545 S
C1231 C1239 1.430 . S
C1232 H1228 0.929 . S
C1232 C1234 1.378 . S
C1232 C1236 1.350 . S
C1233 C1236 1.462 1_565 S
C1233 C1238 1.358 . S
C1233 N1241 1.420 1_565 S
C1234 H1225 0.930 . S
C1234 C1232 1.378 . S
C1234 C1235 1.399 . S
C1235 C1234 1.399 . S
C1235 C1237 1.401 1_545 S
C1236 C1232 1.350 . S
C1236 C1233 1.462 1_545 S
C1236 N1240 1.427 1_545 S
C1237 H1227 0.929 . S
C1237 C1235 1.401 1_565 S
C1237 N1240 1.384 . S
C1238 H1229 0.929 . S
C1238 C1230 1.378 . S
C1238 C1233 1.358 . S
C1239 H1226 0.929 . S
C1239 C1231 1.430 . S
C1239 N1241 1.384 . S
N1240 C1236 1.427 1_565 S
N1240 C1237 1.384 . S
N1241 C1233 1.420 1_545 S
N1241 C1239 1.384 . S
H1242 C1248 0.930 . S
H1243 C1252 0.930 . S
H1244 C1257 0.929 . S
H1245 C1255 0.929 . S
H1246 C1250 0.929 . S
H1247 C1256 0.929 . S
C1248 H1242 0.930 . S
C1248 C1249 1.367 1_655 S
C1248 C1256 1.378 . S
C1249 C1248 1.367 1_455 S
C1249 C1257 1.433 . S
C1250 H1246 0.929 . S
C1250 C1252 1.378 . S
C1250 C1254 1.350 . S
C1251 C1254 1.463 . S
C1251 C1256 1.350 1_455 S
C1251 N1259 1.427 . S
C1252 H1243 0.930 . S
C1252 C1250 1.378 . S
C1252 C1253 1.367 . S
C1253 C1252 1.367 . S
C1253 C1255 1.433 1_455 S
C1254 C1250 1.350 . S
C1254 C1251 1.463 . S
C1254 N1258 1.427 1_455 S
C1255 H1245 0.929 . S
C1255 C1253 1.433 1_655 S
C1255 N1258 1.384 . S
C1256 H1247 0.929 . S
C1256 C1248 1.378 . S
C1256 C1251 1.350 1_655 S
C1257 H1244 0.929 . S
C1257 C1249 1.433 . S
C1257 N1259 1.384 . S
N1258 C1254 1.427 1_655 S
N1258 C1255 1.384 . S
N1259 C1251 1.427 . S
N1259 C1257 1.384 . S
H1260 C1266 0.930 . S
H1261 C1270 0.930 . S
H1262 C1275 0.929 . S
H1263 C1273 0.929 . S
H1264 C1268 0.929 . S
H1265 C1274 0.929 . S
C1266 H1260 0.930 . S
C1266 C1267 1.380 . S
C1266 C1274 1.378 . S
C1267 C1266 1.380 . S
C1267 C1275 1.420 1_565 S
C1268 H1264 0.929 . S
C1268 C1270 1.378 . S
C1268 C1272 1.350 . S
C1269 C1272 1.461 1_565 S
C1269 C1274 1.371 . S
C1269 N1277 1.406 1_565 S
C1270 H1261 0.930 . S
C1270 C1268 1.378 . S
C1270 C1271 1.396 . S
C1271 C1270 1.396 . S
C1271 C1273 1.404 1_545 S
C1272 C1268 1.350 . S
C1272 C1269 1.461 1_545 S
C1272 N1276 1.427 1_545 S
C1273 H1263 0.929 . S
C1273 C1271 1.404 1_565 S
C1273 N1276 1.384 . S
C1274 H1265 0.929 . S
C1274 C1266 1.378 . S
C1274 C1269 1.371 . S
C1275 H1262 0.929 . S
C1275 C1267 1.420 1_545 S
C1275 N1277 1.384 . S
N1276 C1272 1.427 1_565 S
N1276 C1273 1.384 . S
N1277 C1269 1.406 1_545 S
N1277 C1275 1.384 . S
H1278 C1284 0.930 . S
H1279 C1288 0.930 . S
H1280 C1293 0.929 . S
H1281 C1291 0.929 . S
H1282 C1286 0.929 . S
H1283 C1292 0.929 . S
C1284 H1278 0.930 . S
C1284 C1285 1.367 . S
C1284 C1292 1.378 . S
C1285 C1284 1.367 . S
C1285 C1293 1.433 1_455 S
C1286 H1282 0.929 . S
C1286 C1288 1.378 . S
C1286 C1290 1.350 1_655 S
C1287 C1290 1.463 . S
C1287 C1292 1.350 . S
C1287 N1295 1.427 1_455 S
C1288 H1279 0.930 . S
C1288 C1286 1.378 . S
C1288 C1289 1.367 1_655 S
C1289 C1288 1.367 1_455 S
C1289 C1291 1.433 . S
C1290 C1286 1.350 1_455 S
C1290 C1287 1.463 . S
C1290 N1294 1.427 . S
C1291 H1281 0.929 . S
C1291 C1289 1.433 . S
C1291 N1294 1.384 . S
C1292 H1283 0.929 . S
C1292 C1284 1.378 . S
C1292 C1287 1.350 . S
C1293 H1280 0.929 . S
C1293 C1285 1.433 1_655 S
C1293 N1295 1.384 . S
N1294 C1290 1.427 . S
N1294 C1291 1.384 . S
N1295 C1287 1.427 1_655 S
N1295 C1293 1.384 . S
H1296 C1302 0.930 . S
H1297 C1306 0.930 . S
H1298 C1311 0.929 . S
H1299 C1309 0.929 . S
H1300 C1304 0.929 . S
H1301 C1310 0.929 . S
C1302 H1296 0.930 . S
C1302 C1303 1.386 . S
C1302 C1310 1.378 . S
C1303 C1302 1.386 . S
C1303 C1311 1.413 1_565 S
C1304 H1300 0.929 . S
C1304 C1306 1.378 . S
C1304 C1308 1.386 . S
C1305 C1308 1.460 1_565 S
C1305 C1310 1.378 . S
C1305 N1313 1.399 1_565 S
C1306 H1297 0.930 . S
C1306 C1304 1.378 . S
C1306 C1307 1.395 . S
C1307 C1306 1.395 . S
C1307 C1309 1.405 1_545 S
C1308 C1304 1.386 . S
C1308 C1305 1.460 1_545 S
C1308 N1312 1.391 1_545 S
C1309 H1299 0.929 . S
C1309 C1307 1.405 1_565 S
C1309 N1312 1.384 . S
C1310 H1301 0.929 . S
C1310 C1302 1.378 . S
C1310 C1305 1.378 . S
C1311 H1298 0.929 . S
C1311 C1303 1.413 1_545 S
C1311 N1313 1.384 . S
N1312 C1308 1.391 1_565 S
N1312 C1309 1.384 . S
N1313 C1305 1.399 1_545 S
N1313 C1311 1.384 . S
H1314 C1320 0.930 . S
H1315 C1324 0.930 . S
H1316 C1329 0.929 . S
H1317 C1327 0.925 1_655 S
H1318 C1322 0.929 . S
H1319 C1328 0.929 . S
C1320 H1314 0.930 . S
C1320 C1321 1.367 1_655 S
C1320 C1328 1.378 . S
C1321 C1320 1.367 1_455 S
C1321 C1329 1.433 . S
C1322 H1318 0.929 . S
C1322 C1324 1.378 . S
C1322 C1326 1.350 . S
C1323 C1326 1.463 . S
C1323 C1328 1.350 1_455 S
C1323 N1331 1.427 . S
C1324 H1315 0.930 . S
C1324 C1322 1.378 . S
C1324 C1325 1.367 . S
C1325 C1324 1.367 . S
C1325 C1327 1.438 . S
C1326 C1322 1.350 . S
C1326 C1323 1.463 . S
C1326 N1330 1.416 1_455 S
C1327 H1317 0.925 1_455 S
C1327 C1325 1.438 . S
C1327 N1330 1.383 1_455 S
C1328 H1319 0.929 . S
C1328 C1320 1.378 . S
C1328 C1323 1.350 1_655 S
C1329 H1316 0.929 . S
C1329 C1321 1.433 . S
C1329 N1331 1.384 . S
N1330 C1326 1.416 1_655 S
N1330 C1327 1.383 1_655 S
N1331 C1323 1.427 . S
N1331 C1329 1.384 . S
H1332 C1338 0.930 . S
H1333 C1342 0.930 . S
H1334 C1347 0.929 . S
H1335 C1345 0.929 . S
H1336 C1340 0.929 . S
H1337 C1346 0.929 . S
C1338 H1332 0.930 . S
C1338 C1339 1.383 . S
C1338 C1346 1.378 . S
C1339 C1338 1.383 . S
C1339 C1347 1.417 1_554 S
C1340 H1336 0.929 . S
C1340 C1342 1.378 . S
C1340 C1344 1.370 . S
C1341 C1344 1.461 1_554 S
C1341 C1346 1.378 . S
C1341 N1349 1.399 1_554 S
C1342 H1333 0.930 . S
C1342 C1340 1.378 . S
C1342 C1343 1.375 . S
C1343 C1342 1.375 . S
C1343 C1345 1.425 1_556 S
C1344 C1340 1.370 . S
C1344 C1341 1.461 1_556 S
C1344 N1348 1.407 1_556 S
C1345 H1335 0.929 . S
C1345 C1343 1.425 1_554 S
C1345 N1348 1.384 . S
C1346 H1337 0.929 . S
C1346 C1338 1.378 . S
C1346 C1341 1.378 . S
C1347 H1334 0.929 . S
C1347 C1339 1.417 1_556 S
C1347 N1349 1.384 . S
N1348 C1344 1.407 1_554 S
N1348 C1345 1.384 . S
N1349 C1341 1.399 1_556 S
N1349 C1347 1.384 . S
H1350 C1356 0.930 . S
H1351 C1360 0.930 . S
H1352 C1365 0.929 . S
H1353 C1363 0.929 . S
H1354 C1358 0.929 . S
H1355 C1364 0.929 . S
C1356 H1350 0.930 . S
C1356 C1357 1.367 . S
C1356 C1364 1.378 . S
C1357 C1356 1.367 . S
C1357 C1365 1.433 1_554 S
C1358 H1354 0.929 . S
C1358 C1360 1.378 . S
C1358 C1362 1.362 . S
C1359 C1362 1.462 1_554 S
C1359 C1364 1.350 . S
C1359 N1367 1.427 1_554 S
C1360 H1351 0.930 . S
C1360 C1358 1.378 . S
C1360 C1361 1.371 . S
C1361 C1360 1.371 . S
C1361 C1363 1.429 1_556 S
C1362 C1358 1.362 . S
C1362 C1359 1.462 1_556 S
C1362 N1366 1.416 1_556 S
C1363 H1353 0.929 . S
C1363 C1361 1.429 1_554 S
C1363 N1366 1.384 . S
C1364 H1355 0.929 . S
C1364 C1356 1.378 . S
C1364 C1359 1.350 . S
C1365 H1352 0.929 . S
C1365 C1357 1.433 1_556 S
C1365 N1367 1.384 . S
N1366 C1362 1.416 1_554 S
N1366 C1363 1.384 . S
N1367 C1359 1.427 1_556 S
N1367 C1365 1.384 . S
H1368 C1374 0.930 . S
H1369 C1378 0.930 . S
H1370 C1383 0.929 . S
H1371 C1381 0.929 . S
H1372 C1376 0.929 . S
H1373 C1382 0.929 . S
C1374 H1368 0.930 . S
C1374 C1375 1.367 . S
C1374 C1382 1.378 . S
C1375 C1374 1.367 . S
C1375 C1383 1.434 1_556 S
C1376 H1372 0.929 . S
C1376 C1378 1.378 . S
C1376 C1380 1.350 . S
C1377 C1380 1.462 . S
C1377 C1382 1.350 1_554 S
C1377 N1385 1.427 . S
C1378 H1369 0.930 . S
C1378 C1376 1.378 . S
C1378 C1379 1.367 . S
C1379 C1378 1.367 . S
C1379 C1381 1.433 1_554 S
C1380 C1376 1.350 . S
C1380 C1377 1.462 . S
C1380 N1384 1.427 1_554 S
C1381 H1371 0.929 . S
C1381 C1379 1.433 1_556 S
C1381 N1384 1.384 . S
C1382 H1373 0.929 . S
C1382 C1374 1.378 . S
C1382 C1377 1.350 1_556 S
C1383 H1370 0.929 . S
C1383 C1375 1.434 1_554 S
C1383 N1385 1.384 . S
N1384 C1380 1.427 1_556 S
N1384 C1381 1.384 . S
N1385 C1377 1.427 . S
N1385 C1383 1.384 . S
H1386 C1392 0.930 . S
H1387 C1396 0.930 . S
H1388 C1401 0.929 . S
H1389 C1399 0.929 . S
H1390 C1394 0.929 . S
H1391 C1400 0.929 . S
C1392 H1386 0.930 . S
C1392 C1393 1.383 . S
C1392 C1400 1.378 . S
C1393 C1392 1.383 . S
C1393 C1401 1.417 1_556 S
C1394 H1390 0.929 . S
C1394 C1396 1.378 . S
C1394 C1398 1.381 . S
C1395 C1398 1.460 1_556 S
C1395 C1400 1.373 . S
C1395 N1403 1.404 1_556 S
C1396 H1387 0.930 . S
C1396 C1394 1.378 . S
C1396 C1397 1.391 . S
C1397 C1396 1.391 . S
C1397 C1399 1.409 1_554 S
C1398 C1394 1.381 . S
C1398 C1395 1.460 1_554 S
C1398 N1402 1.396 1_554 S
C1399 H1389 0.929 . S
C1399 C1397 1.409 1_556 S
C1399 N1402 1.384 . S
C1400 H1391 0.929 . S
C1400 C1392 1.378 . S
C1400 C1395 1.373 . S
C1401 H1388 0.929 . S
C1401 C1393 1.417 1_554 S
C1401 N1403 1.384 . S
N1402 C1398 1.396 1_556 S
N1402 C1399 1.384 . S
N1403 C1395 1.404 1_554 S
N1403 C1401 1.384 . S
H1404 C1410 0.930 . S
H1405 C1414 0.930 . S
H1406 C1419 0.929 . S
H1407 C1417 0.929 . S
H1408 C1412 0.929 . S
H1409 C1418 0.929 . S
C1410 H1404 0.930 . S
C1410 C1411 1.365 . S
C1410 C1418 1.378 . S
C1411 C1410 1.365 . S
C1411 C1419 1.435 1_556 S
C1412 H1408 0.929 . S
C1412 C1414 1.378 . S
C1412 C1416 1.350 . S
C1413 C1416 1.462 1_556 S
C1413 C1418 1.362 . S
C1413 N1421 1.416 1_556 S
C1414 H1405 0.930 . S
C1414 C1412 1.378 . S
C1414 C1415 1.402 . S
C1415 C1414 1.402 . S
C1415 C1417 1.397 1_554 S
C1416 C1412 1.350 . S
C1416 C1413 1.462 1_554 S
C1416 N1420 1.427 1_554 S
C1417 H1407 0.929 . S
C1417 C1415 1.397 1_556 S
C1417 N1420 1.384 . S
C1418 H1409 0.929 . S
C1418 C1410 1.378 . S
C1418 C1413 1.362 . S
C1419 H1406 0.929 . S
C1419 C1411 1.435 1_554 S
C1419 N1421 1.384 . S
N1420 C1416 1.427 1_556 S
N1420 C1417 1.384 . S
N1421 C1413 1.416 1_554 S
N1421 C1419 1.384 . S
H1422 C1428 0.930 . S
H1423 C1432 0.930 . S
H1424 C1437 0.929 . S
H1425 C1435 0.929 . S
H1426 C1430 0.929 . S
H1427 C1436 0.929 . S
C1428 H1422 0.930 . S
C1428 C1429 1.367 . S
C1428 C1436 1.378 . S
C1429 C1428 1.367 . S
C1429 C1437 1.433 1_554 S
C1430 H1426 0.929 . S
C1430 C1432 1.378 . S
C1430 C1434 1.361 . S
C1431 C1434 1.462 1_554 S
C1431 C1436 1.350 . S
C1431 N1439 1.427 1_554 S
C1432 H1423 0.930 . S
C1432 C1430 1.378 . S
C1432 C1433 1.371 . S
C1433 C1432 1.371 . S
C1433 C1435 1.429 1_556 S
C1434 C1430 1.361 . S
C1434 C1431 1.462 1_556 S
C1434 N1438 1.416 1_556 S
C1435 H1425 0.929 . S
C1435 C1433 1.429 1_554 S
C1435 N1438 1.384 . S
C1436 H1427 0.929 . S
C1436 C1428 1.378 . S
C1436 C1431 1.350 . S
C1437 H1424 0.929 . S
C1437 C1429 1.433 1_556 S
C1437 N1439 1.384 . S
N1438 C1434 1.416 1_554 S
N1438 C1435 1.384 . S
N1439 C1431 1.427 1_556 S
N1439 C1437 1.384 . S
H1440 C1446 0.930 . S
H1441 C1450 0.930 . S
H1442 C1455 0.929 . S
H1443 C1453 0.929 . S
H1444 C1448 0.929 . S
H1445 C1454 0.929 . S
C1446 H1440 0.930 . S
C1446 C1447 1.370 1_556 S
C1446 C1454 1.378 . S
C1447 C1446 1.370 1_554 S
C1447 C1455 1.430 . S
C1448 H1444 0.929 . S
C1448 C1450 1.378 . S
C1448 C1452 1.350 . S
C1449 C1452 1.462 1_556 S
C1449 C1454 1.357 . S
C1449 N1457 1.420 1_556 S
C1450 H1441 0.930 . S
C1450 C1448 1.378 . S
C1450 C1451 1.396 . S
C1451 C1450 1.396 . S
C1451 C1453 1.404 1_554 S
C1452 C1448 1.350 . S
C1452 C1449 1.462 1_554 S
C1452 N1456 1.427 1_554 S
C1453 H1443 0.929 . S
C1453 C1451 1.404 1_556 S
C1453 N1456 1.384 . S
C1454 H1445 0.929 . S
C1454 C1446 1.378 . S
C1454 C1449 1.357 . S
C1455 H1442 0.929 . S
C1455 C1447 1.430 . S
C1455 N1457 1.384 . S
N1456 C1452 1.427 1_556 S
N1456 C1453 1.384 . S
N1457 C1449 1.420 1_554 S
N1457 C1455 1.384 . S
H1458 C1464 0.930 . S
H1459 C1468 0.930 . S
H1460 C1473 0.929 . S
H1461 C1471 0.929 . S
H1462 C1466 0.929 . S
H1463 C1472 0.929 . S
C1464 H1458 0.930 . S
C1464 C1465 1.370 . S
C1464 C1472 1.378 . S
C1465 C1464 1.370 . S
C1465 C1473 1.430 1_554 S
C1466 H1462 0.929 . S
C1466 C1468 1.378 . S
C1466 C1470 1.353 . S
C1467 C1470 1.462 1_554 S
C1467 C1472 1.356 . S
C1467 N1475 1.421 1_554 S
C1468 H1459 0.930 . S
C1468 C1466 1.378 . S
C1468 C1469 1.366 . S
C1469 C1468 1.366 . S
C1469 C1471 1.434 1_556 S
C1470 C1466 1.353 . S
C1470 C1467 1.462 1_556 S
C1470 N1474 1.424 1_556 S
C1471 H1461 0.929 . S
C1471 C1469 1.434 1_554 S
C1471 N1474 1.384 . S
C1472 H1463 0.929 . S
C1472 C1464 1.378 . S
C1472 C1467 1.356 . S
C1473 H1460 0.929 . S
C1473 C1465 1.430 1_556 S
C1473 N1475 1.384 . S
N1474 C1470 1.424 1_554 S
N1474 C1471 1.384 . S
N1475 C1467 1.421 1_556 S
N1475 C1473 1.384 . S
H1476 C1482 0.930 . S
H1477 C1486 0.930 . S
H1478 C1491 0.929 . S
H1479 C1489 0.929 . S
H1480 C1484 0.929 . S
H1481 C1490 0.929 . S
C1482 H1476 0.930 . S
C1482 C1483 1.367 . S
C1482 C1490 1.378 . S
C1483 C1482 1.367 . S
C1483 C1491 1.433 . S
C1484 H1480 0.929 . S
C1484 C1486 1.378 . S
C1484 C1488 1.350 . S
C1485 C1488 1.463 . S
C1485 C1490 1.350 . S
C1485 N1493 1.427 . S
C1486 H1477 0.930 . S
C1486 C1484 1.378 . S
C1486 C1487 1.367 . S
C1487 C1486 1.367 . S
C1487 C1489 1.433 . S
C1488 C1484 1.350 . S
C1488 C1485 1.463 . S
C1488 N1492 1.427 . S
C1489 H1479 0.929 . S
C1489 C1487 1.433 . S
C1489 N1492 1.384 . S
C1490 H1481 0.929 . S
C1490 C1482 1.378 . S
C1490 C1485 1.350 . S
C1491 H1478 0.929 . S
C1491 C1483 1.433 . S
C1491 N1493 1.384 . S
N1492 C1488 1.427 . S
N1492 C1489 1.384 . S
N1493 C1485 1.427 . S
N1493 C1491 1.384 . S
H1494 C1500 0.930 . S
H1495 C1504 0.930 . S
H1496 C1509 0.929 . S
H1497 C1507 0.929 . S
H1498 C1502 0.929 . S
H1499 C1508 0.929 . S
C1500 H1494 0.930 . S
C1500 C1501 1.367 . S
C1500 C1508 1.378 . S
C1501 C1500 1.367 . S
C1501 C1509 1.433 . S
C1502 H1498 0.929 . S
C1502 C1504 1.378 . S
C1502 C1506 1.350 . S
C1503 C1506 1.463 . S
C1503 C1508 1.350 . S
C1503 N1511 1.427 . S
C1504 H1495 0.930 . S
C1504 C1502 1.378 . S
C1504 C1505 1.367 . S
C1505 C1504 1.367 . S
C1505 C1507 1.433 . S
C1506 C1502 1.350 . S
C1506 C1503 1.463 . S
C1506 N1510 1.427 . S
C1507 H1497 0.929 . S
C1507 C1505 1.433 . S
C1507 N1510 1.384 . S
C1508 H1499 0.929 . S
C1508 C1500 1.378 . S
C1508 C1503 1.350 . S
C1509 H1496 0.929 . S
C1509 C1501 1.433 . S
C1509 N1511 1.384 . S
N1510 C1506 1.427 . S
N1510 C1507 1.384 . S
N1511 C1503 1.427 . S
N1511 C1509 1.384 . S
H1512 C1518 0.930 . S
H1513 C1522 0.930 . S
H1514 C1527 0.929 . S
H1515 C1525 0.929 . S
H1516 C1520 0.929 . S
H1517 C1526 0.929 . S
C1518 H1512 0.930 . S
C1518 C1519 1.367 . S
C1518 C1526 1.378 . S
C1519 C1518 1.367 . S
C1519 C1527 1.433 . S
C1520 H1516 0.929 . S
C1520 C1522 1.378 . S
C1520 C1524 1.350 . S
C1521 C1524 1.463 . S
C1521 C1526 1.350 . S
C1521 N1529 1.427 . S
C1522 H1513 0.930 . S
C1522 C1520 1.378 . S
C1522 C1523 1.367 . S
C1523 C1522 1.367 . S
C1523 C1525 1.433 . S
C1524 C1520 1.350 . S
C1524 C1521 1.463 . S
C1524 N1528 1.427 . S
C1525 H1515 0.929 . S
C1525 C1523 1.433 . S
C1525 N1528 1.384 . S
C1526 H1517 0.929 . S
C1526 C1518 1.378 . S
C1526 C1521 1.350 . S
C1527 H1514 0.929 . S
C1527 C1519 1.433 . S
C1527 N1529 1.384 . S
N1528 C1524 1.427 . S
N1528 C1525 1.384 . S
N1529 C1521 1.427 . S
N1529 C1527 1.384 . S
H1530 C1536 0.930 . S
H1531 C1540 0.930 . S
H1532 C1545 0.929 . S
H1533 C1543 0.929 . S
H1534 C1538 0.929 . S
H1535 C1544 0.929 . S
C1536 H1530 0.930 . S
C1536 C1537 1.367 . S
C1536 C1544 1.378 . S
C1537 C1536 1.367 . S
C1537 C1545 1.433 . S
C1538 H1534 0.929 . S
C1538 C1540 1.378 . S
C1538 C1542 1.350 . S
C1539 C1542 1.463 . S
C1539 C1544 1.350 . S
C1539 N1547 1.427 . S
C1540 H1531 0.930 . S
C1540 C1538 1.378 . S
C1540 C1541 1.367 . S
C1541 C1540 1.367 . S
C1541 C1543 1.433 . S
C1542 C1538 1.350 . S
C1542 C1539 1.463 . S
C1542 N1546 1.427 . S
C1543 H1533 0.929 . S
C1543 C1541 1.433 . S
C1543 N1546 1.384 . S
C1544 H1535 0.929 . S
C1544 C1536 1.378 . S
C1544 C1539 1.350 . S
C1545 H1532 0.929 . S
C1545 C1537 1.433 . S
C1545 N1547 1.384 . S
N1546 C1542 1.427 . S
N1546 C1543 1.384 . S
N1547 C1539 1.427 . S
N1547 C1545 1.384 . S
H1548 C1554 0.930 . S
H1549 C1558 0.930 . S
H1550 C1563 0.929 . S
H1551 C1561 0.929 . S
H1552 C1556 0.929 . S
H1553 C1562 0.929 . S
C1554 H1548 0.930 . S
C1554 C1555 1.367 . S
C1554 C1562 1.378 . S
C1555 C1554 1.367 . S
C1555 C1563 1.433 . S
C1556 H1552 0.929 . S
C1556 C1558 1.378 . S
C1556 C1560 1.350 . S
C1557 C1560 1.463 . S
C1557 C1562 1.350 . S
C1557 N1565 1.427 . S
C1558 H1549 0.930 . S
C1558 C1556 1.378 . S
C1558 C1559 1.367 . S
C1559 C1558 1.367 . S
C1559 C1561 1.433 . S
C1560 C1556 1.350 . S
C1560 C1557 1.463 . S
C1560 N1564 1.427 . S
C1561 H1551 0.929 . S
C1561 C1559 1.433 . S
C1561 N1564 1.384 . S
C1562 H1553 0.929 . S
C1562 C1554 1.378 . S
C1562 C1557 1.350 . S
C1563 H1550 0.929 . S
C1563 C1555 1.433 . S
C1563 N1565 1.384 . S
N1564 C1560 1.427 . S
N1564 C1561 1.384 . S
N1565 C1557 1.427 . S
N1565 C1563 1.384 . S
H1566 C1572 0.930 . S
H1567 C1576 0.930 . S
H1568 C1581 0.929 . S
H1569 C1579 0.929 . S
H1570 C1574 0.929 . S
H1571 C1580 0.929 . S
C1572 H1566 0.930 . S
C1572 C1573 1.367 . S
C1572 C1580 1.378 . S
C1573 C1572 1.367 . S
C1573 C1581 1.433 . S
C1574 H1570 0.929 . S
C1574 C1576 1.378 . S
C1574 C1578 1.350 . S
C1575 C1578 1.463 . S
C1575 C1580 1.350 . S
C1575 N1583 1.427 . S
C1576 H1567 0.930 . S
C1576 C1574 1.378 . S
C1576 C1577 1.367 . S
C1577 C1576 1.367 . S
C1577 C1579 1.433 . S
C1578 C1574 1.350 . S
C1578 C1575 1.463 . S
C1578 N1582 1.427 . S
C1579 H1569 0.929 . S
C1579 C1577 1.433 . S
C1579 N1582 1.384 . S
C1580 H1571 0.929 . S
C1580 C1572 1.378 . S
C1580 C1575 1.350 . S
C1581 H1568 0.929 . S
C1581 C1573 1.433 . S
C1581 N1583 1.384 . S
N1582 C1578 1.427 . S
N1582 C1579 1.384 . S
N1583 C1575 1.427 . S
N1583 C1581 1.384 . S
H1584 C1590 0.930 . S
H1585 C1594 0.930 . S
H1586 C1599 0.929 . S
H1587 C1597 0.929 . S
H1588 C1592 0.929 . S
H1589 C1598 0.929 . S
C1590 H1584 0.930 . S
C1590 C1591 1.367 . S
C1590 C1598 1.378 . S
C1591 C1590 1.367 . S
C1591 C1599 1.433 . S
C1592 H1588 0.929 . S
C1592 C1594 1.378 . S
C1592 C1596 1.350 . S
C1593 C1596 1.463 . S
C1593 C1598 1.350 . S
C1593 N1601 1.427 . S
C1594 H1585 0.930 . S
C1594 C1592 1.378 . S
C1594 C1595 1.367 . S
C1595 C1594 1.367 . S
C1595 C1597 1.433 . S
C1596 C1592 1.350 . S
C1596 C1593 1.463 . S
C1596 N1600 1.427 . S
C1597 H1587 0.929 . S
C1597 C1595 1.433 . S
C1597 N1600 1.384 . S
C1598 H1589 0.929 . S
C1598 C1590 1.378 . S
C1598 C1593 1.350 . S
C1599 H1586 0.929 . S
C1599 C1591 1.433 . S
C1599 N1601 1.384 . S
N1600 C1596 1.427 . S
N1600 C1597 1.384 . S
N1601 C1593 1.427 . S
N1601 C1599 1.384 . S
H1602 C1608 0.930 . S
H1603 C1612 0.930 . S
H1604 C1617 0.929 . S
H1605 C1615 0.929 . S
H1606 C1610 0.929 . S
H1607 C1616 0.929 . S
C1608 H1602 0.930 . S
C1608 C1609 1.367 . S
C1608 C1616 1.378 . S
C1609 C1608 1.367 . S
C1609 C1617 1.433 . S
C1610 H1606 0.929 . S
C1610 C1612 1.378 . S
C1610 C1614 1.350 . S
C1611 C1614 1.463 . S
C1611 C1616 1.350 . S
C1611 N1619 1.427 . S
C1612 H1603 0.930 . S
C1612 C1610 1.378 . S
C1612 C1613 1.367 . S
C1613 C1612 1.367 . S
C1613 C1615 1.433 . S
C1614 C1610 1.350 . S
C1614 C1611 1.463 . S
C1614 N1618 1.427 . S
C1615 H1605 0.929 . S
C1615 C1613 1.433 . S
C1615 N1618 1.384 . S
C1616 H1607 0.929 . S
C1616 C1608 1.378 . S
C1616 C1611 1.350 . S
C1617 H1604 0.929 . S
C1617 C1609 1.433 . S
C1617 N1619 1.384 . S
N1618 C1614 1.427 . S
N1618 C1615 1.384 . S
N1619 C1611 1.427 . S
N1619 C1617 1.384 . S
H1620 C1626 0.930 . S
H1621 C1630 0.930 . S
H1622 C1635 0.929 . S
H1623 C1633 0.929 . S
H1624 C1628 0.929 . S
H1625 C1634 0.929 . S
C1626 H1620 0.930 . S
C1626 C1627 1.367 . S
C1626 C1634 1.378 . S
C1627 C1626 1.367 . S
C1627 C1635 1.433 . S
C1628 H1624 0.929 . S
C1628 C1630 1.378 . S
C1628 C1632 1.350 . S
C1629 C1632 1.463 . S
C1629 C1634 1.350 . S
C1629 N1637 1.427 . S
C1630 H1621 0.930 . S
C1630 C1628 1.378 . S
C1630 C1631 1.367 . S
C1631 C1630 1.367 . S
C1631 C1633 1.433 . S
C1632 C1628 1.350 . S
C1632 C1629 1.463 . S
C1632 N1636 1.427 . S
C1633 H1623 0.929 . S
C1633 C1631 1.433 . S
C1633 N1636 1.384 . S
C1634 H1625 0.929 . S
C1634 C1626 1.378 . S
C1634 C1629 1.350 . S
C1635 H1622 0.929 . S
C1635 C1627 1.433 . S
C1635 N1637 1.384 . S
N1636 C1632 1.427 . S
N1636 C1633 1.384 . S
N1637 C1629 1.427 . S
N1637 C1635 1.384 . S
H1638 C1644 0.930 . S
H1639 C1648 0.930 . S
H1640 C1653 0.929 . S
H1641 C1651 0.929 . S
H1642 C1646 0.929 . S
H1643 C1652 0.929 . S
C1644 H1638 0.930 . S
C1644 C1645 1.367 . S
C1644 C1652 1.378 . S
C1645 C1644 1.367 . S
C1645 C1653 1.433 . S
C1646 H1642 0.929 . S
C1646 C1648 1.378 . S
C1646 C1650 1.350 . S
C1647 C1650 1.463 . S
C1647 C1652 1.350 . S
C1647 N1655 1.427 . S
C1648 H1639 0.930 . S
C1648 C1646 1.378 . S
C1648 C1649 1.367 . S
C1649 C1648 1.367 . S
C1649 C1651 1.433 . S
C1650 C1646 1.350 . S
C1650 C1647 1.463 . S
C1650 N1654 1.427 . S
C1651 H1641 0.929 . S
C1651 C1649 1.433 . S
C1651 N1654 1.384 . S
C1652 H1643 0.929 . S
C1652 C1644 1.378 . S
C1652 C1647 1.350 . S
C1653 H1640 0.929 . S
C1653 C1645 1.433 . S
C1653 N1655 1.384 . S
N1654 C1650 1.427 . S
N1654 C1651 1.384 . S
N1655 C1647 1.427 . S
N1655 C1653 1.384 . S
H1656 C1662 0.930 . S
H1657 C1666 0.930 . S
H1658 C1671 0.929 . S
H1659 C1669 0.929 . S
H1660 C1664 0.929 . S
H1661 C1670 0.929 . S
C1662 H1656 0.930 . S
C1662 C1663 1.367 . S
C1662 C1670 1.378 . S
C1663 C1662 1.367 . S
C1663 C1671 1.433 . S
C1664 H1660 0.929 . S
C1664 C1666 1.378 . S
C1664 C1668 1.350 . S
C1665 C1668 1.463 . S
C1665 C1670 1.350 . S
C1665 N1673 1.427 . S
C1666 H1657 0.930 . S
C1666 C1664 1.378 . S
C1666 C1667 1.367 . S
C1667 C1666 1.367 . S
C1667 C1669 1.433 . S
C1668 C1664 1.350 . S
C1668 C1665 1.463 . S
C1668 N1672 1.427 . S
C1669 H1659 0.929 . S
C1669 C1667 1.433 . S
C1669 N1672 1.384 . S
C1670 H1661 0.929 . S
C1670 C1662 1.378 . S
C1670 C1665 1.350 . S
C1671 H1658 0.929 . S
C1671 C1663 1.433 . S
C1671 N1673 1.384 . S
N1672 C1668 1.427 . S
N1672 C1669 1.384 . S
N1673 C1665 1.427 . S
N1673 C1671 1.384 . S
H1674 C1680 0.930 . S
H1675 C1684 0.930 . S
H1676 C1689 0.929 . S
H1677 C1687 0.929 . S
H1678 C1682 0.929 . S
H1679 C1688 0.929 . S
C1680 H1674 0.930 . S
C1680 C1681 1.367 . S
C1680 C1688 1.378 . S
C1681 C1680 1.367 . S
C1681 C1689 1.433 . S
C1682 H1678 0.929 . S
C1682 C1684 1.378 . S
C1682 C1686 1.350 . S
C1683 C1686 1.463 . S
C1683 C1688 1.350 . S
C1683 N1691 1.427 . S
C1684 H1675 0.930 . S
C1684 C1682 1.378 . S
C1684 C1685 1.367 . S
C1685 C1684 1.367 . S
C1685 C1687 1.433 . S
C1686 C1682 1.350 . S
C1686 C1683 1.463 . S
C1686 N1690 1.427 . S
C1687 H1677 0.929 . S
C1687 C1685 1.433 . S
C1687 N1690 1.384 . S
C1688 H1679 0.929 . S
C1688 C1680 1.378 . S
C1688 C1683 1.350 . S
C1689 H1676 0.929 . S
C1689 C1681 1.433 . S
C1689 N1691 1.384 . S
N1690 C1686 1.427 . S
N1690 C1687 1.384 . S
N1691 C1683 1.427 . S
N1691 C1689 1.384 . S
H1692 C1698 0.930 . S
H1693 C1702 0.930 . S
H1694 C1707 0.929 . S
H1695 C1705 0.929 . S
H1696 C1700 0.929 . S
H1697 C1706 0.929 . S
C1698 H1692 0.930 . S
C1698 C1699 1.367 . S
C1698 C1706 1.378 . S
C1699 C1698 1.367 . S
C1699 C1707 1.433 . S
C1700 H1696 0.929 . S
C1700 C1702 1.378 . S
C1700 C1704 1.350 . S
C1701 C1704 1.463 . S
C1701 C1706 1.350 . S
C1701 N1709 1.427 . S
C1702 H1693 0.930 . S
C1702 C1700 1.378 . S
C1702 C1703 1.367 . S
C1703 C1702 1.367 . S
C1703 C1705 1.433 . S
C1704 C1700 1.350 . S
C1704 C1701 1.463 . S
C1704 N1708 1.427 . S
C1705 H1695 0.929 . S
C1705 C1703 1.433 . S
C1705 N1708 1.384 . S
C1706 H1697 0.929 . S
C1706 C1698 1.378 . S
C1706 C1701 1.350 . S
C1707 H1694 0.929 . S
C1707 C1699 1.433 . S
C1707 N1709 1.384 . S
N1708 C1704 1.427 . S
N1708 C1705 1.384 . S
N1709 C1701 1.427 . S
N1709 C1707 1.384 . S
H1710 C1716 0.930 . S
H1711 C1720 0.930 . S
H1712 C1725 0.929 . S
H1713 C1723 0.929 . S
H1714 C1718 0.929 . S
H1715 C1724 0.929 . S
C1716 H1710 0.930 . S
C1716 C1717 1.367 . S
C1716 C1724 1.378 . S
C1717 C1716 1.367 . S
C1717 C1725 1.433 . S
C1718 H1714 0.929 . S
C1718 C1720 1.378 . S
C1718 C1722 1.350 . S
C1719 C1722 1.463 . S
C1719 C1724 1.350 . S
C1719 N1727 1.427 . S
C1720 H1711 0.930 . S
C1720 C1718 1.378 . S
C1720 C1721 1.367 . S
C1721 C1720 1.367 . S
C1721 C1723 1.433 . S
C1722 C1718 1.350 . S
C1722 C1719 1.463 . S
C1722 N1726 1.427 . S
C1723 H1713 0.929 . S
C1723 C1721 1.433 . S
C1723 N1726 1.384 . S
C1724 H1715 0.929 . S
C1724 C1716 1.378 . S
C1724 C1719 1.350 . S
C1725 H1712 0.929 . S
C1725 C1717 1.433 . S
C1725 N1727 1.384 . S
N1726 C1722 1.427 . S
N1726 C1723 1.384 . S
N1727 C1719 1.427 . S
N1727 C1725 1.384 . S
H1728 C1734 0.930 . S
H1729 C1738 0.930 . S
H1730 C1743 0.929 . S
H1731 C1741 0.929 . S
H1732 C1736 0.929 . S
H1733 C1742 0.929 . S
C1734 H1728 0.930 . S
C1734 C1735 1.367 . S
C1734 C1742 1.378 . S
C1735 C1734 1.367 . S
C1735 C1743 1.433 . S
C1736 H1732 0.929 . S
C1736 C1738 1.378 . S
C1736 C1740 1.350 . S
C1737 C1740 1.463 . S
C1737 C1742 1.350 . S
C1737 N1745 1.427 . S
C1738 H1729 0.930 . S
C1738 C1736 1.378 . S
C1738 C1739 1.367 . S
C1739 C1738 1.367 . S
C1739 C1741 1.433 . S
C1740 C1736 1.350 . S
C1740 C1737 1.463 . S
C1740 N1744 1.427 . S
C1741 H1731 0.929 . S
C1741 C1739 1.433 . S
C1741 N1744 1.384 . S
C1742 H1733 0.929 . S
C1742 C1734 1.378 . S
C1742 C1737 1.350 . S
C1743 H1730 0.929 . S
C1743 C1735 1.433 . S
C1743 N1745 1.384 . S
N1744 C1740 1.427 . S
N1744 C1741 1.384 . S
N1745 C1737 1.427 . S
N1745 C1743 1.384 . S
H1746 C1752 0.930 . S
H1747 C1756 0.930 . S
H1748 C1761 0.929 . S
H1749 C1759 0.929 . S
H1750 C1754 0.929 . S
H1751 C1760 0.929 . S
C1752 H1746 0.930 . S
C1752 C1753 1.367 . S
C1752 C1760 1.378 . S
C1753 C1752 1.367 . S
C1753 C1761 1.433 . S
C1754 H1750 0.929 . S
C1754 C1756 1.378 . S
C1754 C1758 1.350 . S
C1755 C1758 1.463 . S
C1755 C1760 1.350 . S
C1755 N1763 1.427 . S
C1756 H1747 0.930 . S
C1756 C1754 1.378 . S
C1756 C1757 1.367 . S
C1757 C1756 1.367 . S
C1757 C1759 1.433 . S
C1758 C1754 1.350 . S
C1758 C1755 1.463 . S
C1758 N1762 1.427 . S
C1759 H1749 0.929 . S
C1759 C1757 1.433 . S
C1759 N1762 1.384 . S
C1760 H1751 0.929 . S
C1760 C1752 1.378 . S
C1760 C1755 1.350 . S
C1761 H1748 0.929 . S
C1761 C1753 1.433 . S
C1761 N1763 1.384 . S
N1762 C1758 1.427 . S
N1762 C1759 1.384 . S
N1763 C1755 1.427 . S
N1763 C1761 1.384 . S
H1764 C1770 0.930 . S
H1765 C1774 0.930 . S
H1766 C1779 0.929 . S
H1767 C1777 0.929 . S
H1768 C1772 0.929 . S
H1769 C1778 0.929 . S
C1770 H1764 0.930 . S
C1770 C1771 1.367 . S
C1770 C1778 1.378 . S
C1771 C1770 1.367 . S
C1771 C1779 1.433 . S
C1772 H1768 0.929 . S
C1772 C1774 1.378 . S
C1772 C1776 1.350 . S
C1773 C1776 1.463 . S
C1773 C1778 1.350 . S
C1773 N1781 1.427 . S
C1774 H1765 0.930 . S
C1774 C1772 1.378 . S
C1774 C1775 1.367 . S
C1775 C1774 1.367 . S
C1775 C1777 1.433 . S
C1776 C1772 1.350 . S
C1776 C1773 1.463 . S
C1776 N1780 1.427 . S
C1777 H1767 0.929 . S
C1777 C1775 1.433 . S
C1777 N1780 1.384 . S
C1778 H1769 0.929 . S
C1778 C1770 1.378 . S
C1778 C1773 1.350 . S
C1779 H1766 0.929 . S
C1779 C1771 1.433 . S
C1779 N1781 1.384 . S
N1780 C1776 1.427 . S
N1780 C1777 1.384 . S
N1781 C1773 1.427 . S
N1781 C1779 1.384 . S
H1782 C1788 0.930 . S
H1783 C1792 0.930 . S
H1784 C1797 0.929 . S
H1785 C1795 0.929 . S
H1786 C1790 0.929 . S
H1787 C1796 0.929 . S
C1788 H1782 0.930 . S
C1788 C1789 1.367 . S
C1788 C1796 1.378 . S
C1789 C1788 1.367 . S
C1789 C1797 1.433 . S
C1790 H1786 0.929 . S
C1790 C1792 1.378 . S
C1790 C1794 1.350 . S
C1791 C1794 1.463 . S
C1791 C1796 1.350 . S
C1791 N1799 1.427 . S
C1792 H1783 0.930 . S
C1792 C1790 1.378 . S
C1792 C1793 1.367 . S
C1793 C1792 1.367 . S
C1793 C1795 1.433 . S
C1794 C1790 1.350 . S
C1794 C1791 1.463 . S
C1794 N1798 1.427 . S
C1795 H1785 0.929 . S
C1795 C1793 1.433 . S
C1795 N1798 1.384 . S
C1796 H1787 0.929 . S
C1796 C1788 1.378 . S
C1796 C1791 1.350 . S
C1797 H1784 0.929 . S
C1797 C1789 1.433 . S
C1797 N1799 1.384 . S
N1798 C1794 1.427 . S
N1798 C1795 1.384 . S
N1799 C1791 1.427 . S
N1799 C1797 1.384 . S
H1800 C1806 0.930 . S
H1801 C1810 0.930 . S
H1802 C1815 0.929 . S
H1803 C1813 0.929 . S
H1804 C1808 0.929 . S
H1805 C1814 0.929 . S
C1806 H1800 0.930 . S
C1806 C1807 1.367 . S
C1806 C1814 1.378 . S
C1807 C1806 1.367 . S
C1807 C1815 1.433 . S
C1808 H1804 0.929 . S
C1808 C1810 1.378 . S
C1808 C1812 1.350 . S
C1809 C1812 1.463 . S
C1809 C1814 1.350 . S
C1809 N1817 1.427 . S
C1810 H1801 0.930 . S
C1810 C1808 1.378 . S
C1810 C1811 1.367 . S
C1811 C1810 1.367 . S
C1811 C1813 1.433 . S
C1812 C1808 1.350 . S
C1812 C1809 1.463 . S
C1812 N1816 1.427 . S
C1813 H1803 0.929 . S
C1813 C1811 1.433 . S
C1813 N1816 1.384 . S
C1814 H1805 0.929 . S
C1814 C1806 1.378 . S
C1814 C1809 1.350 . S
C1815 H1802 0.929 . S
C1815 C1807 1.433 . S
C1815 N1817 1.384 . S
N1816 C1812 1.427 . S
N1816 C1813 1.384 . S
N1817 C1809 1.427 . S
N1817 C1815 1.384 . S
H1818 C1824 0.930 . S
H1819 C1828 0.930 . S
H1820 C1833 0.929 . S
H1821 C1831 0.929 . S
H1822 C1826 0.929 . S
H1823 C1832 0.929 . S
C1824 H1818 0.930 . S
C1824 C1825 1.367 . S
C1824 C1832 1.378 . S
C1825 C1824 1.367 . S
C1825 C1833 1.433 . S
C1826 H1822 0.929 . S
C1826 C1828 1.378 . S
C1826 C1830 1.350 . S
C1827 C1830 1.463 . S
C1827 C1832 1.350 . S
C1827 N1835 1.427 . S
C1828 H1819 0.930 . S
C1828 C1826 1.378 . S
C1828 C1829 1.367 . S
C1829 C1828 1.367 . S
C1829 C1831 1.433 . S
C1830 C1826 1.350 . S
C1830 C1827 1.463 . S
C1830 N1834 1.427 . S
C1831 H1821 0.929 . S
C1831 C1829 1.433 . S
C1831 N1834 1.384 . S
C1832 H1823 0.929 . S
C1832 C1824 1.378 . S
C1832 C1827 1.350 . S
C1833 H1820 0.929 . S
C1833 C1825 1.433 . S
C1833 N1835 1.384 . S
N1834 C1830 1.427 . S
N1834 C1831 1.384 . S
N1835 C1827 1.427 . S
N1835 C1833 1.384 . S
H1836 C1842 0.930 . S
H1837 C1846 0.930 . S
H1838 C1851 0.929 . S
H1839 C1849 0.929 . S
H1840 C1844 0.929 . S
H1841 C1850 0.929 . S
C1842 H1836 0.930 . S
C1842 C1843 1.367 . S
C1842 C1850 1.378 . S
C1843 C1842 1.367 . S
C1843 C1851 1.433 . S
C1844 H1840 0.929 . S
C1844 C1846 1.378 . S
C1844 C1848 1.350 . S
C1845 C1848 1.463 . S
C1845 C1850 1.350 . S
C1845 N1853 1.427 . S
C1846 H1837 0.930 . S
C1846 C1844 1.378 . S
C1846 C1847 1.367 . S
C1847 C1846 1.367 . S
C1847 C1849 1.433 . S
C1848 C1844 1.350 . S
C1848 C1845 1.463 . S
C1848 N1852 1.427 . S
C1849 H1839 0.929 . S
C1849 C1847 1.433 . S
C1849 N1852 1.384 . S
C1850 H1841 0.929 . S
C1850 C1842 1.378 . S
C1850 C1845 1.350 . S
C1851 H1838 0.929 . S
C1851 C1843 1.433 . S
C1851 N1853 1.384 . S
N1852 C1848 1.427 . S
N1852 C1849 1.384 . S
N1853 C1845 1.427 . S
N1853 C1851 1.384 . S
H1854 C1860 0.930 . S
H1855 C1864 0.930 . S
H1856 C1869 0.929 . S
H1857 C1867 0.929 . S
H1858 C1862 0.929 . S
H1859 C1868 0.929 . S
C1860 H1854 0.930 . S
C1860 C1861 1.367 . S
C1860 C1868 1.378 . S
C1861 C1860 1.367 . S
C1861 C1869 1.433 . S
C1862 H1858 0.929 . S
C1862 C1864 1.378 . S
C1862 C1866 1.350 . S
C1863 C1866 1.463 . S
C1863 C1868 1.350 . S
C1863 N1871 1.427 . S
C1864 H1855 0.930 . S
C1864 C1862 1.378 . S
C1864 C1865 1.367 . S
C1865 C1864 1.367 . S
C1865 C1867 1.433 . S
C1866 C1862 1.350 . S
C1866 C1863 1.463 . S
C1866 N1870 1.427 . S
C1867 H1857 0.929 . S
C1867 C1865 1.433 . S
C1867 N1870 1.384 . S
C1868 H1859 0.929 . S
C1868 C1860 1.378 . S
C1868 C1863 1.350 . S
C1869 H1856 0.929 . S
C1869 C1861 1.433 . S
C1869 N1871 1.384 . S
N1870 C1866 1.427 . S
N1870 C1867 1.384 . S
N1871 C1863 1.427 . S
N1871 C1869 1.384 . S
H1872 C1878 0.930 . S
H1873 C1882 0.930 . S
H1874 C1887 0.929 . S
H1875 C1885 0.929 . S
H1876 C1880 0.929 . S
H1877 C1886 0.929 . S
C1878 H1872 0.930 . S
C1878 C1879 1.367 . S
C1878 C1886 1.378 . S
C1879 C1878 1.367 . S
C1879 C1887 1.433 . S
C1880 H1876 0.929 . S
C1880 C1882 1.378 . S
C1880 C1884 1.350 . S
C1881 C1884 1.463 . S
C1881 C1886 1.350 . S
C1881 N1889 1.427 . S
C1882 H1873 0.930 . S
C1882 C1880 1.378 . S
C1882 C1883 1.367 . S
C1883 C1882 1.367 . S
C1883 C1885 1.433 . S
C1884 C1880 1.350 . S
C1884 C1881 1.463 . S
C1884 N1888 1.427 . S
C1885 H1875 0.929 . S
C1885 C1883 1.433 . S
C1885 N1888 1.384 . S
C1886 H1877 0.929 . S
C1886 C1878 1.378 . S
C1886 C1881 1.350 . S
C1887 H1874 0.929 . S
C1887 C1879 1.433 . S
C1887 N1889 1.384 . S
N1888 C1884 1.427 . S
N1888 C1885 1.384 . S
N1889 C1881 1.427 . S
N1889 C1887 1.384 . S
H1890 C1896 0.930 . S
H1891 C1900 0.930 . S
H1892 C1905 0.929 . S
H1893 C1903 0.929 . S
H1894 C1898 0.929 . S
H1895 C1904 0.929 . S
C1896 H1890 0.930 . S
C1896 C1897 1.367 . S
C1896 C1904 1.378 . S
C1897 C1896 1.367 . S
C1897 C1905 1.433 . S
C1898 H1894 0.929 . S
C1898 C1900 1.378 . S
C1898 C1902 1.350 . S
C1899 C1902 1.463 . S
C1899 C1904 1.350 . S
C1899 N1907 1.427 . S
C1900 H1891 0.930 . S
C1900 C1898 1.378 . S
C1900 C1901 1.367 . S
C1901 C1900 1.367 . S
C1901 C1903 1.433 . S
C1902 C1898 1.350 . S
C1902 C1899 1.463 . S
C1902 N1906 1.427 . S
C1903 H1893 0.929 . S
C1903 C1901 1.433 . S
C1903 N1906 1.384 . S
C1904 H1895 0.929 . S
C1904 C1896 1.378 . S
C1904 C1899 1.350 . S
C1905 H1892 0.929 . S
C1905 C1897 1.433 . S
C1905 N1907 1.384 . S
N1906 C1902 1.427 . S
N1906 C1903 1.384 . S
N1907 C1899 1.427 . S
N1907 C1905 1.384 . S
C623 C318 1.577 . S
C619 C308 1.577 . S
C637 C282 1.387 . S
C641 C316 1.388 . S
C659 C317 1.388 . S
C655 C269 1.385 . S
C673 C295 1.577 . S
C677 C319 1.577 . S
C695 C363 1.524 . S
C691 C217 1.523 . S
C713 C423 1.532 . S
C709 C230 1.532 . S
C727 C243 1.531 . S
C731 C362 1.529 . S
C749 C422 1.350 . S
C745 C256 1.350 . S
C763 C165 1.525 . S
C767 C364 1.523 . S
C785 C420 1.350 . S
C781 C178 1.350 . S
C799 C191 1.531 . S
C803 C365 1.530 . S
C817 C204 1.532 . S
C821 C421 1.532 . S
C839 C471 1.577 1_556 S
C835 C152 1.578 . S
C853 C126 1.387 . S
C857 C470 1.388 . S
C871 C113 1.385 1_556 S
C875 C472 1.388 . S
C893 C473 1.577 1_556 S
C889 C139 1.577 1_554 S
C907 C61 1.525 . S
C911 C514 1.523 . S
C925 C74 1.532 1_545 S
C929 C573 1.532 . S
C943 C87 1.531 . S
C947 C512 1.531 . S
C961 C100 1.349 . S
C965 C572 1.350 . S
C983 C513 1.524 . S
C979 C9 1.524 . S
C1001 C570 1.350 1_565 S
C997 C22 1.350 . S
C1015 C35 1.531 . S
C1019 C515 1.530 . S
C1037 C571 1.533 . S
C1033 C48 1.531 . S
C1055 C315 1.492 . S
C1051 C4 1.275 . S
C1069 C21 1.404 1_565 S
C1073 C321 1.449 . S
C1087 C34 1.716 . S
C1091 C313 1.748 . S
C1105 C43 1.153 . S
C1109 C320 1.349 . S
C1123 C56 1.275 . S
C1127 C312 1.492 . S
C1145 C322 1.350 1_565 S
C1141 C69 1.164 1_545 S
C1159 C86 1.709 . S
C1163 C314 1.749 . S
C1181 C323 1.449 1_565 S
C1177 C99 1.403 1_545 S
C1199 C369 1.630 1_565 S
C1195 C47 1.592 . S
C1213 C8 1.646 . S
C1217 C412 1.690 . S
C1235 C367 1.289 . S
C1231 C17 1.109 . S
C1253 C414 1.449 . S
C1249 C30 1.240 . S
C1267 C73 1.595 . S
C1271 C368 1.630 . S
C1289 C413 1.449 . S
C1285 C82 1.252 . S
C1307 C366 1.290 . S
C1303 C95 1.108 . S
C1325 C415 1.690 . S
C1321 C60 1.647 . S
C1343 C419 1.474 1_556 S
C1339 C112 1.430 . S
C1357 C125 1.426 . S
C1361 C418 1.473 1_556 S
C1379 C370 1.430 . S
C1375 C108 1.224 1_556 S
C1397 C417 1.678 . S
C1393 C138 1.643 . S
C1411 C147 1.257 1_556 S
C1415 C373 1.449 . S
C1429 C151 1.639 . S
C1433 C416 1.678 1_556 S
C1451 C372 1.431 . S
C1447 C121 1.240 1_554 S
C1469 C371 1.451 1_556 S
C1465 C134 1.267 1_554 S
C1487 C465 1.495 . S
C1483 C160 1.302 . S
C1505 C468 1.450 . S
C1501 C177 1.412 . S
C1519 C190 1.719 . S
C1523 C464 1.749 . S
C1541 C466 1.352 . S
C1537 C199 1.178 . S
C1559 C462 1.492 . S
C1555 C212 1.274 . S
C1573 C225 1.161 . S
C1577 C467 1.351 . S
C1591 C242 1.710 . S
C1595 C463 1.749 . S
C1613 C469 1.448 . S
C1609 C255 1.398 . S
C1631 C523 1.630 . S
C1627 C203 1.597 . S
C1645 C164 1.646 . S
C1649 C562 1.690 . S
C1667 C522 1.290 . S
C1663 C173 1.113 . S
C1685 C564 1.447 . S
C1681 C186 1.225 . S
C1703 C521 1.630 . S
C1699 C229 1.596 . S
C1717 C238 1.229 . S
C1721 C563 1.446 . S
C1739 C520 1.291 . S
C1735 C251 1.125 . S
C1757 C565 1.690 . S
C1753 C216 1.646 . S
C1775 C569 1.473 . S
C1771 C268 1.423 . S
C1789 C281 1.428 . S
C1793 C568 1.474 . S
C1811 C516 1.430 . S
C1807 C264 1.230 . S
C1825 C294 1.640 . S
C1829 C567 1.678 . S
C1847 C519 1.449 . S
C1843 C303 1.240 . S
C1865 C566 1.678 . S
C1861 C307 1.636 . S
C1883 C517 1.430 . S
C1879 C277 1.235 . S
C1897 C290 1.244 . S
C1901 C518 1.449 . S
