# Generated by pormake.
# Topology zzz, (3,6)-cn, num edge types: 1
# Building blocks:
#     Node 0, Type 0, BuildingBlock: BETDAH_clean_linker_0, # of connection points: 3
#     Node 1, Type 0, BuildingBlock: BETDAH_clean_linker_0, # of connection points: 3
#     Node 2, Type 0, BuildingBlock: BETDAH_clean_linker_0, # of connection points: 3
#     Node 3, Type 0, BuildingBlock: BETDAH_clean_linker_0, # of connection points: 3
#     Node 4, Type 0, BuildingBlock: BETDAH_clean_linker_0, # of connection points: 3
#     Node 5, Type 0, BuildingBlock: BETDAH_clean_linker_0, # of connection points: 3
#     Node 6, Type 0, BuildingBlock: BETDAH_clean_linker_0, # of connection points: 3
#     Node 7, Type 0, BuildingBlock: BETDAH_clean_linker_0, # of connection points: 3
#     Node 8, Type 1, BuildingBlock: GEDQOX_clean_sbu_0, # of connection points: 6
#     Node 9, Type 1, BuildingBlock: GEDQOX_clean_sbu_0, # of connection points: 6
#     Node 10, Type 1, BuildingBlock: GEDQOX_clean_sbu_0, # of connection points: 6
#     Node 11, Type 1, BuildingBlock: GEDQOX_clean_sbu_0, # of connection points: 6
#     Edge 12, Type (0, 1), BuildingBlock: KIFKEQ_clean_linker_1, # of connection points: 2
#     Edge 13, Type (0, 1), BuildingBlock: KIFKEQ_clean_linker_1, # of connection points: 2
#     Edge 14, Type (0, 1), BuildingBlock: KIFKEQ_clean_linker_1, # of connection points: 2
#     Edge 15, Type (0, 1), BuildingBlock: KIFKEQ_clean_linker_1, # of connection points: 2
#     Edge 16, Type (0, 1), BuildingBlock: KIFKEQ_clean_linker_1, # of connection points: 2
#     Edge 17, Type (0, 1), BuildingBlock: KIFKEQ_clean_linker_1, # of connection points: 2
#     Edge 18, Type (0, 1), BuildingBlock: KIFKEQ_clean_linker_1, # of connection points: 2
#     Edge 19, Type (0, 1), BuildingBlock: KIFKEQ_clean_linker_1, # of connection points: 2
#     Edge 20, Type (0, 1), BuildingBlock: KIFKEQ_clean_linker_1, # of connection points: 2
#     Edge 21, Type (0, 1), BuildingBlock: KIFKEQ_clean_linker_1, # of connection points: 2
#     Edge 22, Type (0, 1), BuildingBlock: KIFKEQ_clean_linker_1, # of connection points: 2
#     Edge 23, Type (0, 1), BuildingBlock: KIFKEQ_clean_linker_1, # of connection points: 2
#     Edge 24, Type (0, 1), BuildingBlock: KIFKEQ_clean_linker_1, # of connection points: 2
#     Edge 25, Type (0, 1), BuildingBlock: KIFKEQ_clean_linker_1, # of connection points: 2
#     Edge 26, Type (0, 1), BuildingBlock: KIFKEQ_clean_linker_1, # of connection points: 2
#     Edge 27, Type (0, 1), BuildingBlock: KIFKEQ_clean_linker_1, # of connection points: 2
#     Edge 28, Type (0, 1), BuildingBlock: KIFKEQ_clean_linker_1, # of connection points: 2
#     Edge 29, Type (0, 1), BuildingBlock: KIFKEQ_clean_linker_1, # of connection points: 2
#     Edge 30, Type (0, 1), BuildingBlock: KIFKEQ_clean_linker_1, # of connection points: 2
#     Edge 31, Type (0, 1), BuildingBlock: KIFKEQ_clean_linker_1, # of connection points: 2
#     Edge 32, Type (0, 1), BuildingBlock: KIFKEQ_clean_linker_1, # of connection points: 2
#     Edge 33, Type (0, 1), BuildingBlock: KIFKEQ_clean_linker_1, # of connection points: 2
#     Edge 34, Type (0, 1), BuildingBlock: KIFKEQ_clean_linker_1, # of connection points: 2
#     Edge 35, Type (0, 1), BuildingBlock: KIFKEQ_clean_linker_1, # of connection points: 2
# Relax obj value: 0.130
# Max RMSD: 0.180
# Mean RMSD: 0.087
data_MOF--net-zzz--node1-GEDQOX_clean_sbu_0--node2-BETDAH_clean_linker_0--edge1-KIFKEQ_clean_linker_1
_symmetry_space_group_name_H-M    P1
_symmetry_Int_Tables_number       1
_symmetry_cell_setting            triclinic
loop_
_symmetry_equiv_pos_as_xyz
'x, y, z'
_cell_length_a     55.170009
_cell_length_b     54.500094
_cell_length_c     17.63993
_cell_angle_alpha  79.979007
_cell_angle_beta   89.023939
_cell_angle_gamma 99.625798
loop_
_atom_site_label
_atom_site_type_symbol
_atom_site_fract_x
_atom_site_fract_y
_atom_site_fract_z
_atom_type_partial_charge
H0 H 0.8456 0.53329 0.19746 0.0
H1 H 0.79182 0.54952 0.03062 0.0
H2 H 0.79357 0.58029 0.23972 0.0
C3 C 0.82935 0.54139 0.1812 0.0
C4 C 0.8203 0.5563 0.22833 0.0
C5 C 0.81954 0.53911 0.10948 0.0
C6 C 0.79916 0.55064 0.08674 0.0
C7 C 0.78934 0.56496 0.13512 0.0
C8 C 0.80044 0.56829 0.20445 0.0
N9 N 0.77001 0.57842 0.11236 0.0
C10 C 0.74873 0.56844 0.07934 0.0
H11 H 0.04393 0.83303 0.28624 0.0
H12 H 0.03816 0.77317 0.15391 0.0
H13 H 0.01294 0.75728 0.39368 0.0
C14 C 0.03944 0.81303 0.28342 0.0
C15 C 0.02861 0.7962 0.34843 0.0
C16 C 0.04267 0.80511 0.21317 0.0
C17 C 0.03602 0.77929 0.20849 0.0
C18 C 0.02588 0.76167 0.27455 0.0
C19 C 0.02161 0.77048 0.34368 0.0
N20 N 0.01859 0.73531 0.27354 0.0
C21 C 0.02533 0.72178 0.21826 0.0
H22 H 0.71266 0.01197 0.21746 0.0
H23 H 0.76781 1.0043 0.05124 0.0
H24 H 0.76377 0.9618 0.28217 0.0
C25 C 0.72897 1.00472 0.20321 0.0
C26 C 0.73772 0.98733 0.25947 0.0
C27 C 0.7393 0.01087 0.12752 0.0
C28 C 0.75975 1.00015 0.10946 0.0
C29 C 0.7688 0.9827 0.16569 0.0
C30 C 0.75733 0.97591 0.23986 0.0
N31 N 0.78749 0.9696 0.14646 0.0
C32 C 0.81086 0.98162 0.11718 0.0
H33 H 0.50044 0.72197 0.47061 0.0
H34 H 0.51691 0.79647 0.33426 0.0
H35 H 0.54543 0.78149 0.5609 0.0
C36 C 0.50861 0.74178 0.46534 0.0
C37 C 0.52272 0.74975 0.52457 0.0
C38 C 0.50665 0.75843 0.39661 0.0
C39 C 0.51821 0.78377 0.38797 0.0
C40 C 0.53181 0.79234 0.44818 0.0
C41 C 0.53438 0.77511 0.51557 0.0
N42 N 0.54359 0.81792 0.44214 0.0
C43 C 0.54033 0.83718 0.38222 0.0
H44 H 0.2175 0.52833 0.63777 0.0
H45 H 0.27109 0.51144 0.80448 0.0
H46 H 0.26654 0.4777 0.6008 0.0
C47 C 0.23336 0.51961 0.65458 0.0
C48 C 0.24132 0.50349 0.60946 0.0
C49 C 0.24361 0.52232 0.72541 0.0
C50 C 0.26342 0.51002 0.74895 0.0
C51 C 0.27221 0.49449 0.70256 0.0
C52 C 0.26058 0.49068 0.63432 0.0
N53 N 0.2908 0.48031 0.7275 0.0
C54 C 0.31401 0.49119 0.74655 0.0
H55 H 0.02658 0.22601 0.55702 0.0
H56 H 0.02616 0.28753 0.68031 0.0
H57 H 0.05105 0.3022 0.44016 0.0
C58 C 0.02959 0.2462 0.55747 0.0
C59 C 0.03919 0.26294 0.49087 0.0
C60 C 0.02491 0.25477 0.62567 0.0
C61 C 0.02952 0.28092 0.62728 0.0
C62 C 0.03856 0.29833 0.55952 0.0
C63 C 0.04361 0.28905 0.49182 0.0
N64 N 0.04314 0.32509 0.55628 0.0
C65 C 0.03977 0.33847 0.61555 0.0
H66 H 0.34888 0.04735 0.6103 0.0
H67 H 0.29353 0.06182 0.76371 0.0
H68 H 0.29997 0.09813 0.52522 0.0
C69 C 0.33285 0.05581 0.61946 0.0
C70 C 0.32524 0.07245 0.55865 0.0
C71 C 0.32191 0.05216 0.69378 0.0
C72 C 0.30174 0.06404 0.70616 0.0
C73 C 0.29331 0.08009 0.64437 0.0
C74 C 0.30566 0.0848 0.57167 0.0
N75 N 0.27416 0.0938 0.65465 0.0
C76 C 0.25279 0.08437 0.70082 0.0
H77 H 0.56484 0.34 0.34353 0.0
H78 H 0.55153 0.26392 0.47025 0.0
H79 H 0.52448 0.2805 0.24212 0.0
C80 C 0.55792 0.32001 0.34603 0.0
C81 C 0.545 0.31228 0.28431 0.0
C82 C 0.56019 0.3028 0.4134 0.0
C83 C 0.55001 0.27717 0.41786 0.0
C84 C 0.53744 0.26893 0.35534 0.0
C85 C 0.53468 0.28667 0.28936 0.0
N86 N 0.52685 0.24317 0.35765 0.0
C87 C 0.52932 0.22369 0.41789 0.0
Nd88 Nd 0.02264 0.02342 0.84122 0.0
Nd89 Nd 0.04491 0.03899 0.9965 0.0
C90 C 0.99975 0.99805 0.74007 0.0
C91 C 1.00147 0.97431 0.7116 0.0
C92 C 0.98065 0.96085 0.68357 0.0
C93 C 0.982 0.93854 0.65552 0.0
C94 C 1.0043 0.92913 0.65451 0.0
C95 C 0.02508 0.94258 0.68387 0.0
C96 C 0.02365 0.96484 0.71227 0.0
C97 C 0.07181 0.04396 0.83369 0.0
C98 C 0.04344 0.98071 0.97306 0.0
C99 C 0.07307 0.06413 0.08706 0.0
C100 C 0.06999 0.08609 0.12303 0.0
C101 C 0.08933 0.09816 0.16113 0.0
C102 C 0.08665 0.11956 0.19266 0.0
C103 C 0.06452 0.12936 0.18672 0.0
C104 C 0.0452 0.11712 0.14821 0.0
C105 C 0.04793 0.09578 0.11671 0.0
C106 C 0.99399 0.02864 0.01179 0.0
C107 C 0.02131 0.07982 0.86939 0.0
O108 O 0.99154 0.99561 0.81151 0.0
O109 O 0.01824 0.01678 0.72127 0.0
O110 O 0.05731 0.04823 0.77733 0.0
O111 O 0.06044 0.02852 0.88975 0.0
O112 O 0.03183 0.98629 0.90889 0.0
O113 O 0.05161 0.9978 0.01614 0.0
O114 O 0.07602 0.06891 0.01167 0.0
O115 O 0.05794 0.04288 0.11293 0.0
O116 O 0.00799 0.03464 0.06639 0.0
O117 O 0.00739 0.02775 0.95433 0.0
O118 O 0.0381 0.0758 0.92065 0.0
O119 O 0.00968 0.06156 0.83579 0.0
H120 H 0.96327 0.96765 0.68319 0.0
H121 H 0.96546 0.92859 0.63502 0.0
H122 H 0.04266 0.93626 0.68348 0.0
H123 H 0.03996 0.97477 0.73418 0.0
H124 H 0.10656 0.09108 0.16632 0.0
H125 H 0.10182 0.12825 0.22256 0.0
H126 H 0.02804 0.12426 0.14133 0.0
H127 H 0.03284 0.08693 0.08675 0.0
Nd128 Nd 0.5334 0.01241 0.8409 0.0
Nd129 Nd 0.52911 0.0461 0.95713 0.0
C130 C 0.53654 0.97724 0.75716 0.0
C131 C 0.55788 0.96899 0.72394 0.0
C132 C 0.57927 0.96732 0.76533 0.0
C133 C 0.60061 0.96302 0.72962 0.0
C134 C 0.60111 0.96057 0.6515 0.0
C135 C 0.57934 0.96131 0.6112 0.0
C136 C 0.55796 0.96546 0.64713 0.0
C137 C 0.54064 0.06315 0.77966 0.0
C138 C 0.58386 0.03695 0.90699 0.0
C139 C 0.52575 0.08067 0.04273 0.0
C140 C 0.50415 0.08415 0.08706 0.0
C141 C 0.50328 0.10688 0.11306 0.0
C142 C 0.48213 0.10997 0.15311 0.0
C143 C 0.46152 0.09036 0.16742 0.0
C144 C 0.46265 0.06765 0.14099 0.0
C145 C 0.48365 0.06465 0.10105 0.0
C146 C 0.5224 0.99527 0.0184 0.0
C147 C 0.47823 0.02093 0.89317 0.0
O148 O 0.53327 0.97225 0.83234 0.0
O149 O 0.53327 1.00008 0.72752 0.0
O150 O 0.55383 0.04758 0.75926 0.0
O151 O 0.52412 0.05175 0.82974 0.0
O152 O 0.57264 0.01718 0.88014 0.0
O153 O 0.57131 0.05325 0.93001 0.0
O154 O 0.52406 0.08493 0.96787 0.0
O155 O 0.53442 0.05995 0.0676 0.0
O156 O 0.50924 0.0107 0.03962 0.0
O157 O 0.53869 1.00692 0.96809 0.0
O158 O 0.48898 0.03939 0.92665 0.0
O159 O 0.49108 1.00643 0.86207 0.0
H160 H 0.57978 0.97016 0.82461 0.0
H161 H 0.61688 0.96221 0.76282 0.0
H162 H 0.57907 0.95992 0.55073 0.0
H163 H 0.54176 0.96695 0.61391 0.0
H164 H 0.51886 0.12223 0.10206 0.0
H165 H 0.48182 0.12777 0.1721 0.0
H166 H 0.44743 0.05194 0.15218 0.0
H167 H 0.48389 0.04698 0.08113 0.0
Nd168 Nd 0.51828 0.53415 0.9779 0.0
Nd169 Nd 0.54575 0.52819 0.83551 0.0
C170 C 0.48757 0.54752 0.07333 0.0
C171 C 0.48351 0.57205 0.08957 0.0
C172 C 0.46173 0.57395 0.12831 0.0
C173 C 0.45798 0.5973 0.14448 0.0
C174 C 0.47598 0.61911 0.12201 0.0
C175 C 0.49751 0.61713 0.08131 0.0
C176 C 0.50122 0.59381 0.06523 0.0
C177 C 0.56821 0.53767 0.99171 0.0
C178 C 0.53801 0.58427 0.84161 0.0
C179 C 0.57488 0.51351 0.73826 0.0
C180 C 0.57681 0.48809 0.72459 0.0
C181 C 0.59643 0.48412 0.67951 0.0
C182 C 0.59791 0.45973 0.66693 0.0
C183 C 0.57985 0.43894 0.6999 0.0
C184 C 0.56061 0.44309 0.74675 0.0
C185 C 0.55898 0.46742 0.75824 0.0
C186 C 0.49581 0.52487 0.82233 0.0
C187 C 0.52714 0.47838 0.97357 0.0
O188 O 0.48174 0.54314 0.00483 0.0
O189 O 0.50858 0.54092 0.0939 0.0
O190 O 0.55215 0.52661 0.047 0.0
O191 O 0.55787 0.5475 0.93376 0.0
O192 O 0.52179 0.57331 0.89858 0.0
O193 O 0.55283 0.57131 0.8123 0.0
O194 O 0.58162 0.51815 0.80577 0.0
O195 O 0.55429 0.52126 0.7187 0.0
O196 O 0.51188 0.53646 0.76776 0.0
O197 O 0.50618 0.51468 0.87968 0.0
O198 O 0.54329 0.48958 0.91681 0.0
O199 O 0.51193 0.49102 0.00237 0.0
H200 H 0.44774 0.55736 0.14661 0.0
H201 H 0.44108 0.59824 0.17512 0.0
H202 H 0.5119 0.63342 0.06411 0.0
H203 H 0.51811 0.59269 0.03479 0.0
H204 H 0.61039 0.49989 0.65328 0.0
H205 H 0.61279 0.45729 0.62964 0.0
H206 H 0.54661 0.42755 0.77411 0.0
H207 H 0.54362 0.47012 0.79302 0.0
Nd208 Nd 0.03161 0.54721 0.83747 0.0
Nd209 Nd 0.0346 0.51194 0.99274 0.0
C210 C 0.01884 0.57969 0.72193 0.0
C211 C 0.99619 0.57987 0.67934 0.0
C212 C 0.99078 0.60257 0.63835 0.0
C213 C 0.96902 0.60267 0.59866 0.0
C214 C 0.95232 0.58003 0.59951 0.0
C215 C 0.95784 0.55736 0.6414 0.0
C216 C 0.97951 0.55731 0.68103 0.0
C217 C 0.03858 0.499 0.82557 0.0
C218 C 0.97996 0.51657 0.93446 0.0
C219 C 0.04604 0.47465 0.09414 0.0
C220 C 0.06626 0.47545 0.14725 0.0
C221 C 0.0715 0.45339 0.19289 0.0
C222 C 0.09156 0.4547 0.24074 0.0
C223 C 0.10656 0.47811 0.24347 0.0
C224 C 0.10121 0.50006 0.19696 0.0
C225 C 0.0813 0.49874 0.14946 0.0
C226 C 0.03759 0.5608 0.02282 0.0
C227 C 0.08518 0.54604 0.90146 0.0
O228 O 0.01686 0.58225 0.79395 0.0
O229 O 0.03145 0.56207 0.71243 0.0
O230 O 0.0497 0.51946 0.78112 0.0
O231 O 0.02402 0.50434 0.87428 0.0
O232 O 0.99071 0.53326 0.87491 0.0
O233 O 0.99269 0.50449 0.98687 0.0
O234 O 0.05318 0.47876 0.02112 0.0
O235 O 0.02869 0.4873 0.10787 0.0
O236 O 0.03796 0.54098 0.075 0.0
O237 O 0.03549 0.55415 0.9578 0.0
O238 O 0.07486 0.52503 0.94769 0.0
O239 O 0.07197 0.56072 0.85879 0.0
H240 H 1.00336 0.62019 0.63709 0.0
H241 H 0.96521 0.62049 0.56777 0.0
H242 H 0.94567 0.53952 0.64238 0.0
H243 H 0.98333 0.53958 0.71271 0.0
H244 H 0.06018 0.43524 0.19131 0.0
H245 H 0.09517 0.43749 0.2762 0.0
H246 H 0.11264 0.51831 0.19646 0.0
H247 H 0.07776 0.51593 0.11373 0.0
H248 H 0.22631 0.03809 0.76081 0.0
H249 H 0.2238 0.11791 0.71743 0.0
H250 H 0.1825 0.02896 0.8032 0.0
H251 H 0.18026 0.10901 0.75957 0.0
H252 H 0.09836 0.07915 0.72167 0.0
H253 H 0.143 0.08917 0.70031 0.0
H254 H 0.15131 0.03502 0.90397 0.0
H255 H 0.10641 0.02507 0.92565 0.0
C256 C 0.21645 0.05364 0.76202 0.0
C257 C 0.22822 0.07866 0.73641 0.0
C258 C 0.19146 0.04847 0.78625 0.0
C259 C 0.17787 0.06827 0.78418 0.0
C260 C 0.19011 0.09334 0.76102 0.0
C261 C 0.21504 0.09846 0.73744 0.0
C262 C 0.10972 0.06958 0.76234 0.0
C263 C 0.09892 0.05133 0.8252 0.0
C264 C 0.1353 0.07538 0.75032 0.0
C265 C 0.15072 0.06288 0.80044 0.0
C266 C 0.13992 0.04484 0.86408 0.0
C267 C 0.11425 0.03927 0.87672 0.0
H268 H 0.57125 0.21175 0.4785 0.0
H269 H 0.49248 0.18841 0.49089 0.0
H270 H 0.5753 0.17452 0.57479 0.0
H271 H 0.4963 0.15097 0.58608 0.0
H272 H 0.50921 0.09565 0.79839 0.0
H273 H 0.50735 0.13652 0.71764 0.0
H274 H 0.57025 0.12906 0.57951 0.0
H275 H 0.57231 0.08851 0.66096 0.0
C276 C 0.55483 0.19864 0.50244 0.0
C277 C 0.53159 0.20268 0.47791 0.0
C278 C 0.55711 0.17731 0.55711 0.0
C279 C 0.53612 0.15971 0.58808 0.0
C280 C 0.5128 0.16428 0.5643 0.0
C281 C 0.51058 0.18558 0.50958 0.0
C282 C 0.52279 0.10292 0.75127 0.0
C283 C 0.5408 0.08885 0.73556 0.0
C284 C 0.52164 0.12625 0.70475 0.0
C285 C 0.53854 0.13601 0.64174 0.0
C286 C 0.55709 0.12226 0.62794 0.0
C287 C 0.55819 0.09894 0.67434 0.0
H288 H 0.3511 0.50202 0.63995 0.0
H289 H 0.33443 0.49826 0.88163 0.0
H290 H 0.39501 0.51174 0.66079 0.0
H291 H 0.37852 0.50874 0.90316 0.0
H292 H 0.45943 0.49583 0.92238 0.0
H293 H 0.41503 0.48991 0.90598 0.0
H294 H 0.42713 0.54291 0.69048 0.0
H295 H 0.4714 0.54809 0.70598 0.0
C296 C 0.35696 0.5038 0.69738 0.0
C297 C 0.33962 0.49962 0.75913 0.0
C298 C 0.3821 0.50946 0.70946 0.0
C299 C 0.39044 0.51109 0.78375 0.0
C300 C 0.37283 0.50735 0.84539 0.0
C301 C 0.34761 0.5016 0.83314 0.0
C302 C 0.45252 0.50622 0.87168 0.0
C303 C 0.46886 0.52219 0.81503 0.0
C304 C 0.42706 0.503 0.86248 0.0
C305 C 0.4174 0.5158 0.79658 0.0
C306 C 0.43386 0.53234 0.74117 0.0
C307 C 0.45926 0.53542 0.75018 0.0
H308 H 0.07827 0.36537 0.67359 0.0
H309 H 0.99943 0.35587 0.66138 0.0
H310 H 0.07814 0.40229 0.73509 0.0
H311 H 0.99911 0.39305 0.72245 0.0
H312 H 0.00667 0.45408 0.87839 0.0
H313 H 0.00655 0.41296 0.83866 0.0
H314 H 0.07141 0.44516 0.6913 0.0
H315 H 0.0715 0.48577 0.73088 0.0
C316 C 0.06083 0.37093 0.6856 0.0
C317 C 0.03885 0.35764 0.66347 0.0
C318 C 0.06074 0.39227 0.72016 0.0
C319 C 0.03863 0.40097 0.73336 0.0
C320 C 0.01647 0.38689 0.71399 0.0
C321 C 0.01662 0.36557 0.67899 0.0
C322 C 0.02102 0.45221 0.83817 0.0
C323 C 0.03909 0.47326 0.80781 0.0
C324 C 0.02087 0.42869 0.81493 0.0
C325 C 0.03901 0.42555 0.76168 0.0
C326 C 0.05734 0.44656 0.73311 0.0
C327 C 0.05731 0.47 0.75556 0.0
H328 H 0.84713 0.9827 0.21512 0.0
H329 H 0.8326 1.00008 0.97425 0.0
H330 H 0.89118 0.99485 0.18437 0.0
H331 H 0.87701 0.01314 0.94248 0.0
H332 H 0.96056 1.00703 0.91724 0.0
H333 H 0.91559 0.99697 0.93858 0.0
H334 H 0.92157 0.03091 0.14294 0.0
H335 H 0.966 0.03988 0.12314 0.0
C336 C 0.85349 0.98956 0.15552 0.0
C337 C 0.83669 0.99079 0.09709 0.0
C338 C 0.87873 0.99663 0.1377 0.0
C339 C 0.88778 1.00525 0.06083 0.0
C340 C 0.87076 1.00646 0.00216 0.0
C341 C 0.84537 0.99925 0.02023 0.0
C342 C 0.95213 0.01232 0.96644 0.0
C343 C 0.96677 0.02387 0.01913 0.0
C344 C 0.92638 1.00672 0.97854 0.0
C345 C 0.91488 0.01277 0.04325 0.0
C346 C 0.9297 0.0253 0.09373 0.0
C347 C 0.95524 0.03059 0.08213 0.0
H348 H 0.57593 0.87307 0.30512 0.0
H349 H 0.49741 0.84784 0.32641 0.0
H350 H 0.57042 0.90992 0.20993 0.0
H351 H 0.49166 0.88446 0.23019 0.0
H352 H 0.4922 0.96992 0.14075 0.0
H353 H 0.49585 0.92999 0.22331 0.0
H354 H 0.5577 0.92318 0.07952 0.0
H355 H 0.55426 0.96341 0.99766 0.0
C356 C 0.55752 0.87537 0.28842 0.0
C357 C 0.53707 0.8579 0.3225 0.0
C358 C 0.55433 0.89632 0.23371 0.0
C359 C 0.53058 0.90017 0.21239 0.0
C360 C 0.51015 0.88223 0.24592 0.0
C361 C 0.5134 0.86125 0.30056 0.0
C362 C 0.50641 0.95975 0.12638 0.0
C363 C 0.52306 0.96985 0.06322 0.0
C364 C 0.50843 0.9368 0.17344 0.0
C365 C 0.52717 0.92344 0.15834 0.0
C366 C 0.5433 0.93318 0.09344 0.0
C367 C 0.54124 0.95613 0.04628 0.0
H368 H 0.71871 0.52314 0.11759 0.0
H369 H 0.72362 0.59832 0.98577 0.0
H370 H 0.67515 0.5135 0.08919 0.0
H371 H 0.68008 0.58922 0.95867 0.0
H372 H 0.60419 0.56101 0.88209 0.0
H373 H 0.64873 0.56591 0.89398 0.0
H374 H 0.63752 0.52529 0.12864 0.0
H375 H 0.5931 0.51985 0.1157 0.0
C376 C 0.71048 0.5374 0.08135 0.0
C377 C 0.72433 0.56133 0.0531 0.0
C378 C 0.68551 0.53204 0.06574 0.0
C379 C 0.67396 0.55064 0.02206 0.0
C380 C 0.68832 0.57431 0.99159 0.0
C381 C 0.71326 0.57959 0.00712 0.0
C382 C 0.6113 0.55301 0.936 0.0
C383 C 0.59519 0.54017 0.99813 0.0
C384 C 0.63683 0.5559 0.94298 0.0
C385 C 0.64682 0.54605 0.01235 0.0
C386 C 0.63058 0.53281 0.07396 0.0
C387 C 0.60508 0.52987 0.06686 0.0
H388 H 0.99736 0.70257 0.10969 0.0
H389 H 0.06381 0.69684 0.23114 0.0
H390 H 1.00216 0.66538 0.05334 0.0
H391 H 0.06892 0.65994 0.17471 0.0
H392 H 0.0487 0.57581 0.15823 0.0
H393 H 0.04774 0.61654 0.19519 0.0
H394 H 0.02646 0.6456 0.9671 0.0
H395 H 0.02741 0.60421 0.9299 0.0
C396 C 0.01334 0.69371 0.12269 0.0
C397 C 0.03033 0.70267 0.17426 0.0
C398 C 0.01612 0.67239 0.09042 0.0
C399 C 0.03582 0.65935 0.10981 0.0
C400 C 0.05331 0.66914 0.15915 0.0
C401 C 0.05056 0.69047 0.19101 0.0
C402 C 0.04399 0.59089 0.11548 0.0
C403 C 0.03815 0.58666 0.04099 0.0
C404 C 0.0436 0.61442 0.13665 0.0
C405 C 0.03717 0.63463 0.08424 0.0
C406 C 0.03141 0.63051 0.00922 0.0
C407 C 0.03208 0.60684 0.98766 0.0
H408 H 0.98094 0.22338 0.65582 0.0
H409 H 0.05319 0.23993 0.74286 0.0
H410 H 0.97537 0.18048 0.7305 0.0
H411 H 0.04814 0.19703 0.81612 0.0
H412 H 0.99752 0.10078 0.74487 0.0
H413 H 0.99344 0.14511 0.70676 0.0
H414 H 0.02911 0.16237 0.91201 0.0
H415 H 0.03377 0.11841 0.94878 0.0
C416 C 0.9951 0.21818 0.69419 0.0
C417 C 0.01739 0.23498 0.69436 0.0
C418 C 0.99217 0.19345 0.73563 0.0
C419 C 0.01154 0.18501 0.77777 0.0
C420 C 0.03276 0.20278 0.78458 0.0
C421 C 0.03562 0.22754 0.74327 0.0
C422 C 1.00422 0.11399 0.78222 0.0
C423 C 0.01631 0.10606 0.84913 0.0
C424 C 1.00172 0.13942 0.76079 0.0
C425 C 0.01107 0.15746 0.80615 0.0
C426 C 0.02207 0.14918 0.87499 0.0
C427 C 0.02471 0.12388 0.89605 0.0
H428 H 0.34494 0.07409 0.80517 0.0
H429 H 0.3309 1.00379 0.72035 0.0
H430 H 0.38003 0.06096 0.87199 0.0
H431 H 0.36537 0.98977 0.79042 0.0
H432 H 0.45062 0.99931 0.78703 0.0
H433 H 0.4077 1.00113 0.762 0.0
H434 H 0.40154 0.03694 0.96028 0.0
H435 H 0.44485 0.03615 0.9827 0.0
C436 C 0.34855 0.05517 0.80461 0.0
C437 C 0.33528 0.03996 0.75767 0.0
C438 C 0.36884 0.0476 0.84265 0.0
C439 C 0.37609 0.02448 0.83518 0.0
C440 C 0.36086 1.00801 0.79564 0.0
C441 C 0.3408 0.01578 0.75667 0.0
C442 C 0.43996 1.00714 0.82604 0.0
C443 C 0.45123 0.01793 0.88601 0.0
C444 C 0.4152 1.00806 0.81212 0.0
C445 C 0.40098 0.01944 0.85862 0.0
C446 C 0.41193 0.02857 0.92205 0.0
C447 C 0.43678 0.02801 0.93516 0.0
H448 H 0.53915 0.29404 0.55857 0.0
H449 H 0.60303 0.33537 0.41981 0.0
H450 H 0.54769 0.32179 0.65315 0.0
H451 H 0.61117 0.36359 0.51262 0.0
H452 H 0.61954 0.41525 0.68377 0.0
H453 H 0.61946 0.37525 0.63858 0.0
H454 H 0.54029 0.36519 0.62861 0.0
H455 H 0.54037 0.40484 0.67218 0.0
C456 C 0.5556 0.30838 0.54991 0.0
C457 C 0.57016 0.31295 0.48124 0.0
C458 C 0.56034 0.32446 0.6036 0.0
C459 C 0.57967 0.34534 0.58922 0.0
C460 C 0.59608 0.34777 0.52548 0.0
C461 C 0.59137 0.33168 0.47201 0.0
C462 C 0.60213 0.40435 0.67247 0.0
C463 C 0.57998 0.41339 0.68116 0.0
C464 C 0.60208 0.38137 0.64716 0.0
C465 C 0.57988 0.36695 0.63035 0.0
C466 C 0.5577 0.37544 0.64272 0.0
C467 C 0.55775 0.39835 0.66754 0.0
H468 H 0.22031 0.49907 0.86126 0.0
H469 H 0.234 0.5705 0.70465 0.0
H470 H 0.18481 0.51113 0.91848 0.0
H471 H 0.19912 0.5835 0.76443 0.0
H472 H 0.11807 0.53187 0.00676 0.0
H473 H 0.16203 0.53348 0.98423 0.0
H474 H 0.15714 0.57203 0.75032 0.0
H475 H 0.11359 0.57156 0.77476 0.0
C476 C 0.21651 0.51799 0.84214 0.0
C477 C 0.22978 0.53381 0.77847 0.0
C478 C 0.196 0.52498 0.87475 0.0
C479 C 0.18852 0.54812 0.84487 0.0
C480 C 0.20378 0.56521 0.7874 0.0
C481 C 0.22406 0.55801 0.75398 0.0
C482 C 0.12659 0.54123 0.95114 0.0
C483 C 0.11235 0.55133 0.89215 0.0
C484 C 0.1518 0.54202 0.93798 0.0
C485 C 0.16329 0.55244 0.86493 0.0
C486 C 0.14924 0.56408 0.80769 0.0
C487 C 0.12411 0.56371 0.82141 0.0
H488 H 0.08583 0.8381 0.18453 0.0
H489 H 0.01414 0.81933 0.09567 0.0
H490 H 0.0899 0.88121 0.11226 0.0
H491 H 0.01785 0.86242 0.02423 0.0
H492 H 0.06432 0.95899 0.10295 0.0
H493 H 0.06887 0.9148 0.14037 0.0
H494 H 0.03718 0.89827 0.92882 0.0
H495 H 0.03223 0.94216 0.89197 0.0
C496 C 0.0715 0.84289 0.14629 0.0
C497 C 0.04972 0.8254 0.14531 0.0
C498 C 0.07358 0.86771 0.10619 0.0
C499 C 0.05392 0.8755 0.06423 0.0
C500 C 0.03336 0.85713 0.05598 0.0
C501 C 0.03131 0.83228 0.09618 0.0
C502 C 0.0585 0.946 0.06416 0.0
C503 C 0.04768 0.9542 0.99492 0.0
C504 C 0.06131 0.92066 0.08521 0.0
C505 C 0.05342 0.90292 0.03747 0.0
C506 C 0.04324 0.91131 0.96729 0.0
C507 C 0.04042 0.93658 0.94626 0.0
H508 H 0.71782 0.05222 0.13639 0.0
H509 H 0.72932 1.00128 0.9825 0.0
H510 H 0.68328 0.06368 0.06418 0.0
H511 H 0.69628 0.01465 0.90502 0.0
H512 H 0.61239 1.0016 0.89522 0.0
H513 H 0.65478 1.00239 0.92594 0.0
H514 H 0.65979 0.07904 0.96728 0.0
H515 H 0.61629 0.07749 0.94064 0.0
C516 C 0.71354 0.04417 0.08521 0.0
C517 C 0.72568 0.02501 0.06727 0.0
C518 C 0.69375 0.05096 0.04297 0.0
C519 C 0.68608 0.03931 0.98016 0.0
C520 C 0.7008 0.02315 0.9552 0.0
C521 C 0.7202 0.01583 0.9988 0.0
C522 C 0.62251 0.01879 0.91005 0.0
C523 C 0.61076 0.03935 0.91667 0.0
C524 C 0.64717 0.0194 0.92686 0.0
C525 C 0.6611 0.04077 0.94958 0.0
C526 C 0.64968 0.06199 0.95168 0.0
C527 C 0.62472 0.0612 0.93608 0.0
H528 H 0.45967 0.73405 0.39164 0.0
H529 H 0.52858 0.75725 0.25903 0.0
H530 H 0.44568 0.70412 0.30681 0.0
H531 H 0.51519 0.72676 0.17583 0.0
H532 H 0.48802 0.66739 0.03866 0.0
H533 H 0.48926 0.70708 0.08645 0.0
H534 H 0.45979 0.66489 0.30861 0.0
H535 H 0.45852 0.62566 0.26117 0.0
C536 C 0.47141 0.73336 0.34245 0.0
C537 C 0.49521 0.74772 0.33187 0.0
C538 C 0.46357 0.71606 0.29441 0.0
C539 C 0.47958 0.71251 0.23589 0.0
C540 C 0.50233 0.72898 0.22016 0.0
C541 C 0.51005 0.74652 0.26773 0.0
C542 C 0.48152 0.6667 0.09741 0.0
C543 C 0.47336 0.64334 0.14632 0.0
C544 C 0.48217 0.68942 0.12467 0.0
C545 C 0.47467 0.68924 0.20138 0.0
C546 C 0.46525 0.6659 0.24874 0.0
C547 C 0.46459 0.64327 0.22155 0.0
H548 H 0.83001 0.49141 0.12632 0.0
H549 H 0.84357 0.5641 0.97615 0.0
H550 H 0.86581 0.47978 0.06735 0.0
H551 H 0.87992 0.55324 0.9193 0.0
H552 H 0.95118 0.49305 0.06287 0.0
H553 H 0.90772 0.49299 0.08635 0.0
H554 H 0.90319 0.53078 0.85155 0.0
H555 H 0.94703 0.53165 0.82908 0.0
C556 C 0.84012 0.50447 0.07842 0.0
C557 C 0.83408 0.52862 0.05564 0.0
C558 C 0.8609 0.49804 0.04549 0.0
C559 C 0.8763 0.51583 0.99009 0.0
C560 C 0.8686 0.53895 0.96157 0.0
C561 C 0.84762 0.54522 0.99386 0.0
C562 C 0.94086 0.50093 0.01578 0.0
C563 C 0.95273 0.51268 0.94452 0.0
C564 C 0.91575 0.50074 0.029 0.0
C565 C 0.90178 0.51206 0.97102 0.0
C566 C 0.91338 0.52232 0.89807 0.0
C567 C 0.93855 0.52273 0.88509 0.0
H568 H 0.08322 0.25152 0.45158 0.0
H569 H 0.00808 0.24663 0.38525 0.0
H570 H 0.08996 0.22123 0.36957 0.0
H571 H 0.01474 0.21692 0.30102 0.0
H572 H 0.0238 0.13747 0.26391 0.0
H573 H 0.01888 0.17363 0.32257 0.0
H574 H 0.0933 0.20917 0.24639 0.0
H575 H 0.09826 0.17271 0.18807 0.0
C576 C 0.06849 0.24483 0.41646 0.0
C577 C 0.04529 0.2518 0.42345 0.0
C578 C 0.07225 0.22729 0.36972 0.0
C579 C 0.0528 0.2162 0.32914 0.0
C580 C 0.03004 0.22458 0.33244 0.0
C581 C 0.02629 0.242 0.37949 0.0
C582 C 0.03904 0.15311 0.25866 0.0
C583 C 0.06145 0.15202 0.22113 0.0
C584 C 0.03619 0.17401 0.29221 0.0
C585 C 0.05563 0.1946 0.28914 0.0
C586 C 0.07798 0.19363 0.25088 0.0
C587 C 0.08086 0.17265 0.21746 0.0
H588 H 0.34973 0.11853 0.48764 0.0
H589 H 0.33483 0.03982 0.46661 0.0
H590 H 0.38094 0.12694 0.38123 0.0
H591 H 0.36571 0.04813 0.36017 0.0
H592 H 0.41326 0.07342 0.1415 0.0
H593 H 0.3771 0.07224 0.22443 0.0
H594 H 0.42261 0.11238 0.37564 0.0
H595 H 0.45896 0.113 0.29408 0.0
C596 C 0.35262 0.10324 0.45854 0.0
C597 C 0.33989 0.07857 0.48475 0.0
C598 C 0.37059 0.10798 0.39833 0.0
C599 C 0.3758 0.08817 0.36269 0.0
C600 C 0.36194 0.06382 0.386 0.0
C601 C 0.3443 0.05903 0.44685 0.0
C602 C 0.4156 0.08205 0.19235 0.0
C603 C 0.43913 0.09293 0.21176 0.0
C604 C 0.39484 0.08148 0.23952 0.0
C605 C 0.39706 0.09208 0.30665 0.0
C606 C 0.42031 0.10428 0.32378 0.0
C607 C 0.44115 0.10464 0.27696 0.0
H608 H 0.57968 0.34752 0.19707 0.0
H609 H 0.50123 0.32196 0.22688 0.0
H610 H 0.57313 0.38559 0.11062 0.0
H611 H 0.49448 0.36011 0.13913 0.0
H612 H 0.4976 0.44839 0.09268 0.0
H613 H 0.50011 0.40511 0.15314 0.0
H614 H 0.55833 0.40379 0.98787 0.0
H615 H 0.55628 0.44709 0.92865 0.0
C616 C 0.56104 0.34978 0.18315 0.0
C617 C 0.54097 0.33187 0.21854 0.0
C618 C 0.55724 0.37155 0.1335 0.0
C619 C 0.53325 0.37601 0.11847 0.0
C620 C 0.51317 0.35734 0.15033 0.0
C621 C 0.51701 0.33538 0.19969 0.0
C622 C 0.51076 0.43878 0.06876 0.0
C623 C 0.52689 0.45135 0.00627 0.0
C624 C 0.51206 0.41388 0.103 0.0
C625 C 0.52951 0.40102 0.07553 0.0
C626 C 0.5449 0.41326 0.01104 0.0
C627 C 0.54363 0.4381 0.97691 0.0
H628 H 0.23025 0.53781 0.48988 0.0
H629 H 0.21967 0.45766 0.57861 0.0
H630 H 0.19943 0.53047 0.39511 0.0
H631 H 0.18832 0.45021 0.48468 0.0
H632 H 0.14125 0.44712 0.26937 0.0
H633 H 0.17718 0.45227 0.34864 0.0
H634 H 0.15504 0.5186 0.41229 0.0
H635 H 0.11947 0.51349 0.33374 0.0
C636 C 0.22164 0.51856 0.48788 0.0
C637 C 0.2272 0.49832 0.54164 0.0
C638 C 0.20384 0.51435 0.43421 0.0
C639 C 0.19101 0.48981 0.43356 0.0
C640 C 0.19788 0.46933 0.48362 0.0
C641 C 0.21587 0.47356 0.53721 0.0
C642 C 0.14402 0.46265 0.30088 0.0
C643 C 0.12766 0.48005 0.29465 0.0
C644 C 0.16462 0.46565 0.34601 0.0
C645 C 0.16923 0.48611 0.38563 0.0
C646 C 0.15248 0.50306 0.38073 0.0
C647 C 0.132 0.50008 0.33589 0.0
H648 H 0.06162 0.81845 0.43898 0.0
H649 H 0.98384 0.80083 0.40682 0.0
H650 H 0.05417 0.84773 0.52352 0.0
H651 H 0.97615 0.83014 0.49182 0.0
H652 H 0.98085 0.91345 0.53029 0.0
H653 H 0.98472 0.87669 0.47316 0.0
H654 H 0.03596 0.85515 0.64403 0.0
H655 H 0.03173 0.89173 0.70265 0.0
C656 C 0.04281 0.82009 0.45274 0.0
C657 C 0.02328 0.80708 0.41731 0.0
C658 C 0.03851 0.837 0.50088 0.0
C659 C 0.01456 0.8416 0.51392 0.0
C660 C 0.99485 0.82732 0.48229 0.0
C661 C 0.99917 0.8102 0.43465 0.0
C662 C 0.99258 0.90068 0.557 0.0
C663 C 1.006 0.90583 0.62136 0.0
C664 C 0.99479 0.87948 0.52403 0.0
C665 C 0.01061 0.86281 0.55395 0.0
C666 C 0.02377 0.86768 0.61895 0.0
C667 C 0.02143 0.8888 0.65234 0.0
H668 H 0.71737 0.9398 0.33419 0.0
H669 H 0.72696 0.01853 0.35447 0.0
H670 H 0.68741 0.92924 0.44418 0.0
H671 H 0.69686 1.00832 0.46241 0.0
H672 H 0.64735 0.98584 0.6698 0.0
H673 H 0.68475 0.98816 0.59213 0.0
H674 H 0.64542 0.93638 0.45855 0.0
H675 H 0.60828 0.93296 0.53902 0.0
C676 C 0.7136 0.95471 0.36367 0.0
C677 C 0.72437 0.97998 0.33587 0.0
C678 C 0.69623 0.94875 0.42596 0.0
C679 C 0.68948 0.96796 0.46171 0.0
C680 C 0.7017 0.99297 0.43705 0.0
C681 C 0.7189 0.99889 0.3749 0.0
C682 C 0.64678 0.97433 0.62544 0.0
C683 C 0.62462 0.9594 0.61031 0.0
C684 C 0.66823 0.9759 0.58023 0.0
C685 C 0.66808 0.96273 0.51836 0.0
C686 C 0.64631 0.94668 0.50597 0.0
C687 C 0.62486 0.94501 0.55147 0.0
H688 H 0.48777 0.71598 0.61608 0.0
H689 H 0.56639 0.7395 0.58142 0.0
H690 H 0.49386 0.67827 0.70519 0.0
H691 H 0.57265 0.70178 0.67187 0.0
H692 H 0.5104 0.61668 0.8883 0.0
H693 H 0.50901 0.66011 0.82783 0.0
H694 H 0.56573 0.65671 0.66003 0.0
H695 H 0.56746 0.61339 0.72122 0.0
C696 C 0.50637 0.71338 0.62941 0.0
C697 C 0.5266 0.73055 0.59174 0.0
C698 C 0.5099 0.69182 0.68066 0.0
C699 C 0.53376 0.68687 0.69507 0.0
C700 C 0.55404 0.70492 0.66117 0.0
C701 C 0.55049 0.72664 0.61018 0.0
C702 C 0.52281 0.62525 0.83909 0.0
C703 C 0.53886 0.6114 0.80909 0.0
C704 C 0.52196 0.65016 0.80435 0.0
C705 C 0.53714 0.66185 0.73883 0.0
C706 C 0.55398 0.64839 0.71094 0.0
C707 C 0.55482 0.62345 0.74566 0.0
H708 H 0.83835 0.60208 0.2663 0.0
H709 H 0.83346 0.52176 0.344 0.0
H710 H 0.86749 0.61033 0.36585 0.0
H711 H 0.86261 0.52989 0.44297 0.0
H712 H 0.9063 0.55233 0.64127 0.0
H713 H 0.87052 0.54836 0.56195 0.0
H714 H 0.9111 0.60319 0.3777 0.0
H715 H 0.947 0.60684 0.45603 0.0
C716 C 0.84298 0.58623 0.3061 0.0
C717 C 0.83373 0.56129 0.29756 0.0
C718 C 0.85983 0.59093 0.36246 0.0
C719 C 0.86748 0.57076 0.41177 0.0
C720 C 0.85695 0.54584 0.40628 0.0
C721 C 0.84034 0.54115 0.3495 0.0
C722 C 0.9076 0.56358 0.58386 0.0
C723 C 0.92966 0.5797 0.55476 0.0
C724 C 0.88706 0.56137 0.53865 0.0
C725 C 0.88802 0.57541 0.46359 0.0
C726 C 0.90967 0.59238 0.43574 0.0
C727 C 0.93027 0.59446 0.48072 0.0
loop_
_geom_bond_atom_site_label_1
_geom_bond_atom_site_label_2
_geom_bond_distance
_geom_bond_site_symmetry_2
_ccdc_geom_bond_type
H0 C3 0.929 . S
H1 C6 0.929 . S
H2 C8 0.930 . S
C3 H0 0.929 . S
C3 C4 1.398 . S
C3 C5 1.396 1_554 S
C4 C3 1.398 . S
C4 C8 1.407 . S
C5 C3 1.396 1_556 S
C5 C6 1.394 . S
C6 H1 0.929 . S
C6 C5 1.394 . S
C6 C7 1.382 1_556 S
C7 C6 1.382 1_554 S
C7 C8 1.392 . S
C7 N9 1.420 . S
C8 H2 0.930 . S
C8 C4 1.407 . S
C8 C7 1.392 . S
N9 C7 1.420 . S
N9 C10 1.244 1_554 S
C10 N9 1.244 1_556 S
H11 C14 0.929 . S
H12 C17 0.929 . S
H13 C19 0.930 . S
C14 H11 0.929 . S
C14 C15 1.391 1_655 S
C14 C16 1.394 1_655 S
C15 C14 1.391 1_455 S
C15 C19 1.419 . S
C16 C14 1.394 1_455 S
C16 C17 1.399 . S
C17 H12 0.929 . S
C17 C16 1.399 . S
C17 C18 1.382 . S
C18 C17 1.382 . S
C18 C19 1.392 . S
C18 N20 1.420 . S
C19 H13 0.930 . S
C19 C15 1.419 . S
C19 C18 1.392 . S
N20 C18 1.420 . S
N20 C21 1.233 1_455 S
C21 N20 1.233 1_655 S
H22 C25 0.929 . S
H23 C28 0.929 1_556 S
H24 C30 0.930 . S
C25 H22 0.929 . S
C25 C26 1.398 . S
C25 C27 1.396 . S
C26 C25 1.398 . S
C26 C30 1.407 . S
C27 C25 1.396 . S
C27 C28 1.394 . S
C28 H23 0.929 1_554 S
C28 C27 1.394 . S
C28 C29 1.382 . S
C29 C28 1.382 . S
C29 C30 1.392 . S
C29 N31 1.420 . S
C30 H24 0.930 . S
C30 C26 1.407 . S
C30 C29 1.392 . S
N31 C29 1.420 . S
N31 C32 1.244 . S
C32 N31 1.244 . S
H33 C36 0.929 . S
H34 C39 0.929 . S
H35 C41 0.930 . S
C36 H33 0.929 . S
C36 C37 1.398 . S
C36 C38 1.396 . S
C37 C36 1.398 . S
C37 C41 1.407 . S
C38 C36 1.396 . S
C38 C39 1.394 . S
C39 H34 0.929 . S
C39 C38 1.394 . S
C39 C40 1.382 . S
C40 C39 1.382 . S
C40 C41 1.392 . S
C40 N42 1.420 . S
C41 H35 0.930 . S
C41 C37 1.407 . S
C41 C40 1.392 . S
N42 C40 1.420 . S
N42 C43 1.244 . S
C43 N42 1.244 . S
H44 C47 0.929 . S
H45 C50 0.929 . S
H46 C52 0.930 . S
C47 H44 0.929 . S
C47 C48 1.398 . S
C47 C49 1.396 . S
C48 C47 1.398 . S
C48 C52 1.407 . S
C49 C47 1.396 . S
C49 C50 1.394 . S
C50 H45 0.929 . S
C50 C49 1.394 . S
C50 C51 1.382 . S
C51 C50 1.382 . S
C51 C52 1.392 . S
C51 N53 1.420 . S
C52 H46 0.930 . S
C52 C48 1.407 . S
C52 C51 1.392 . S
N53 C51 1.420 . S
N53 C54 1.244 . S
C54 N53 1.244 . S
H55 C58 0.929 . S
H56 C61 0.929 . S
H57 C63 0.930 . S
C58 H55 0.929 . S
C58 C59 1.398 . S
C58 C60 1.396 . S
C59 C58 1.398 . S
C59 C63 1.407 . S
C60 C58 1.396 . S
C60 C61 1.394 . S
C61 H56 0.929 . S
C61 C60 1.394 . S
C61 C62 1.382 . S
C62 C61 1.382 . S
C62 C63 1.392 . S
C62 N64 1.420 . S
C63 H57 0.930 . S
C63 C59 1.407 . S
C63 C62 1.392 . S
N64 C62 1.420 . S
N64 C65 1.244 . S
C65 N64 1.244 . S
H66 C69 0.929 . S
H67 C72 0.929 . S
H68 C74 0.930 . S
C69 H66 0.929 . S
C69 C70 1.398 . S
C69 C71 1.396 . S
C70 C69 1.398 . S
C70 C74 1.407 . S
C71 C69 1.396 . S
C71 C72 1.394 . S
C72 H67 0.929 . S
C72 C71 1.394 . S
C72 C73 1.382 . S
C73 C72 1.382 . S
C73 C74 1.392 . S
C73 N75 1.420 . S
C74 H68 0.930 . S
C74 C70 1.407 . S
C74 C73 1.392 . S
N75 C73 1.420 . S
N75 C76 1.244 . S
C76 N75 1.244 . S
H77 C80 0.929 . S
H78 C83 0.929 . S
H79 C85 0.930 . S
C80 H77 0.929 . S
C80 C81 1.398 . S
C80 C82 1.396 . S
C81 C80 1.398 . S
C81 C85 1.407 . S
C82 C80 1.396 . S
C82 C83 1.394 . S
C83 H78 0.929 . S
C83 C82 1.394 . S
C83 C84 1.382 . S
C84 C83 1.382 . S
C84 C85 1.392 . S
C84 N86 1.420 . S
C85 H79 0.930 . S
C85 C81 1.407 . S
C85 C84 1.392 . S
N86 C84 1.420 . S
N86 C87 1.244 . S
C87 N86 1.244 . S
Nd88 C90 2.836 1_545 S
Nd88 O108 2.496 1_445 S
Nd88 O109 2.492 1_545 S
Nd88 O110 2.487 . S
Nd88 O111 2.682 . S
Nd88 O112 2.410 1_545 S
Nd88 O117 2.414 1_455 S
Nd88 O119 2.424 . S
Nd89 C99 2.836 . S
Nd89 O111 2.414 1_554 S
Nd89 O113 2.424 1_545 S
Nd89 O114 2.500 . S
Nd89 O115 2.492 . S
Nd89 O116 2.487 1_455 S
Nd89 O117 2.682 1_454 S
Nd89 O118 2.410 1_554 S
C90 Nd88 2.836 1_565 S
C90 C91 1.498 . S
C90 O108 1.250 1_455 S
C90 O109 1.239 . S
C91 C90 1.498 . S
C91 C92 1.366 1_455 S
C91 C96 1.407 . S
C92 C91 1.366 1_655 S
C92 C93 1.392 . S
C92 H120 0.930 . S
C93 C92 1.392 . S
C93 C94 1.398 1_655 S
C93 H121 0.929 . S
C94 C93 1.398 1_455 S
C94 C95 1.352 . S
C95 C94 1.352 . S
C95 C96 1.384 . S
C95 H122 0.930 . S
C96 C91 1.407 . S
C96 C95 1.384 . S
C96 H123 0.929 . S
C97 O110 1.241 . S
C97 O111 1.273 . S
C98 O112 1.251 . S
C98 O113 1.268 1_556 S
C99 Nd89 2.836 . S
C99 C100 1.498 . S
C99 O114 1.258 . S
C99 O115 1.239 . S
C100 C99 1.498 . S
C100 C101 1.366 . S
C100 C105 1.407 . S
C101 C100 1.366 . S
C101 C102 1.392 . S
C101 H124 0.930 . S
C102 C101 1.392 . S
C102 C103 1.398 . S
C102 H125 0.929 . S
C103 C102 1.398 . S
C103 C104 1.352 . S
C104 C103 1.352 . S
C104 C105 1.384 . S
C104 H126 0.930 . S
C105 C100 1.407 . S
C105 C104 1.384 . S
C105 H127 0.929 . S
C106 O116 1.241 1_556 S
C106 O117 1.273 . S
C107 O118 1.251 . S
C107 O119 1.268 . S
O108 Nd88 2.496 1_665 S
O108 C90 1.250 1_655 S
O109 Nd88 2.492 1_565 S
O109 C90 1.239 . S
O110 Nd88 2.487 . S
O110 C97 1.241 . S
O111 Nd88 2.682 . S
O111 Nd89 2.414 1_556 S
O111 C97 1.273 . S
O112 Nd88 2.410 1_565 S
O112 C98 1.251 . S
O113 Nd89 2.424 1_565 S
O113 C98 1.268 1_554 S
O114 Nd89 2.500 . S
O114 C99 1.258 . S
O115 Nd89 2.492 . S
O115 C99 1.239 . S
O116 Nd89 2.487 1_655 S
O116 C106 1.241 1_554 S
O117 Nd88 2.414 1_655 S
O117 Nd89 2.682 1_656 S
O117 C106 1.273 . S
O118 Nd89 2.410 1_556 S
O118 C107 1.251 . S
O119 Nd88 2.424 . S
O119 C107 1.268 . S
H120 C92 0.930 . S
H121 C93 0.929 . S
H122 C95 0.930 . S
H123 C96 0.929 . S
H124 C101 0.930 . S
H125 C102 0.929 . S
H126 C104 0.930 . S
H127 C105 0.929 . S
Nd128 C130 2.836 1_545 S
Nd128 O148 2.500 1_545 S
Nd128 O149 2.492 . S
Nd128 O150 2.487 . S
Nd128 O151 2.682 . S
Nd128 O152 2.410 . S
Nd128 O157 2.414 1_545 S
Nd128 O159 2.424 . S
Nd129 C139 2.836 . S
Nd129 O151 2.414 1_554 S
Nd129 O153 2.424 1_554 S
Nd129 O154 2.500 . S
Nd129 O155 2.492 . S
Nd129 O156 2.487 1_545 S
Nd129 O157 2.682 1_544 S
Nd129 O158 2.410 1_554 S
C130 Nd128 2.836 1_565 S
C130 C131 1.498 . S
C130 O148 1.258 . S
C130 O149 1.239 1_565 S
C131 C130 1.498 . S
C131 C132 1.366 . S
C131 C136 1.407 . S
C132 C131 1.366 . S
C132 C133 1.392 . S
C132 H160 0.930 . S
C133 C132 1.392 . S
C133 C134 1.398 . S
C133 H161 0.929 . S
C134 C133 1.398 . S
C134 C135 1.352 . S
C135 C134 1.352 . S
C135 C136 1.384 . S
C135 H162 0.930 . S
C136 C131 1.407 . S
C136 C135 1.384 . S
C136 H163 0.929 1_565 S
C137 O150 1.241 . S
C137 O151 1.273 . S
C138 O152 1.251 . S
C138 O153 1.268 . S
C139 Nd129 2.836 . S
C139 C140 1.498 . S
C139 O154 1.258 . S
C139 O155 1.239 . S
C140 C139 1.498 . S
C140 C141 1.366 . S
C140 C145 1.407 . S
C141 C140 1.366 . S
C141 C142 1.392 . S
C141 H164 0.930 . S
C142 C141 1.392 . S
C142 C143 1.398 . S
C142 H165 0.929 . S
C143 C142 1.398 . S
C143 C144 1.352 . S
C144 C143 1.352 . S
C144 C145 1.384 . S
C144 H166 0.930 . S
C145 C140 1.407 . S
C145 C144 1.384 . S
C145 H167 0.929 . S
C146 O156 1.241 . S
C146 O157 1.273 1_554 S
C147 O158 1.251 . S
C147 O159 1.268 . S
O148 Nd128 2.500 1_565 S
O148 C130 1.258 . S
O149 Nd128 2.492 . S
O149 C130 1.239 1_545 S
O150 Nd128 2.487 . S
O150 C137 1.241 . S
O151 Nd128 2.682 . S
O151 Nd129 2.414 1_556 S
O151 C137 1.273 . S
O152 Nd128 2.410 . S
O152 C138 1.251 . S
O153 Nd129 2.424 1_556 S
O153 C138 1.268 . S
O154 Nd129 2.500 . S
O154 C139 1.258 . S
O155 Nd129 2.492 . S
O155 C139 1.239 . S
O156 Nd129 2.487 1_565 S
O156 C146 1.241 . S
O157 Nd128 2.414 1_565 S
O157 Nd129 2.682 1_566 S
O157 C146 1.273 1_556 S
O158 Nd129 2.410 1_556 S
O158 C147 1.251 . S
O159 Nd128 2.424 . S
O159 C147 1.268 . S
H160 C132 0.930 . S
H161 C133 0.929 . S
H162 C135 0.930 . S
H163 C136 0.929 1_545 S
H164 C141 0.930 . S
H165 C142 0.929 . S
H166 C144 0.930 . S
H167 C145 0.929 . S
Nd168 C170 2.836 . S
Nd168 O188 2.500 . S
Nd168 O189 2.492 . S
Nd168 O190 2.487 1_554 S
Nd168 O191 2.682 1_554 S
Nd168 O192 2.410 1_554 S
Nd168 O197 2.414 1_554 S
Nd168 O199 2.424 . S
Nd169 C179 2.836 . S
Nd169 O191 2.414 . S
Nd169 O193 2.424 . S
Nd169 O194 2.500 . S
Nd169 O195 2.492 . S
Nd169 O196 2.487 . S
Nd169 O197 2.682 . S
Nd169 O198 2.410 . S
C170 Nd168 2.836 . S
C170 C171 1.498 . S
C170 O188 1.258 . S
C170 O189 1.239 . S
C171 C170 1.498 . S
C171 C172 1.366 . S
C171 C176 1.407 . S
C172 C171 1.366 . S
C172 C173 1.392 . S
C172 H200 0.930 . S
C173 C172 1.392 . S
C173 C174 1.398 . S
C173 H201 0.929 . S
C174 C173 1.398 . S
C174 C175 1.352 . S
C175 C174 1.352 . S
C175 C176 1.384 . S
C175 H202 0.930 . S
C176 C171 1.407 . S
C176 C175 1.384 . S
C176 H203 0.929 . S
C177 O190 1.241 . S
C177 O191 1.273 . S
C178 O192 1.251 . S
C178 O193 1.268 . S
C179 Nd169 2.836 . S
C179 C180 1.498 . S
C179 O194 1.258 . S
C179 O195 1.239 . S
C180 C179 1.498 . S
C180 C181 1.366 . S
C180 C185 1.407 . S
C181 C180 1.366 . S
C181 C182 1.392 . S
C181 H204 0.930 . S
C182 C181 1.392 . S
C182 C183 1.398 . S
C182 H205 0.929 . S
C183 C182 1.398 . S
C183 C184 1.352 . S
C184 C183 1.352 . S
C184 C185 1.384 . S
C184 H206 0.930 . S
C185 C180 1.407 . S
C185 C184 1.384 . S
C185 H207 0.929 . S
C186 O196 1.241 . S
C186 O197 1.273 . S
C187 O198 1.251 . S
C187 O199 1.268 1_556 S
O188 Nd168 2.500 . S
O188 C170 1.258 . S
O189 Nd168 2.492 . S
O189 C170 1.239 . S
O190 Nd168 2.487 1_556 S
O190 C177 1.241 . S
O191 Nd168 2.682 1_556 S
O191 Nd169 2.414 . S
O191 C177 1.273 . S
O192 Nd168 2.410 1_556 S
O192 C178 1.251 . S
O193 Nd169 2.424 . S
O193 C178 1.268 . S
O194 Nd169 2.500 . S
O194 C179 1.258 . S
O195 Nd169 2.492 . S
O195 C179 1.239 . S
O196 Nd169 2.487 . S
O196 C186 1.241 . S
O197 Nd168 2.414 1_556 S
O197 Nd169 2.682 . S
O197 C186 1.273 . S
O198 Nd169 2.410 . S
O198 C187 1.251 . S
O199 Nd168 2.424 . S
O199 C187 1.268 1_554 S
H200 C172 0.930 . S
H201 C173 0.929 . S
H202 C175 0.930 . S
H203 C176 0.929 . S
H204 C181 0.930 . S
H205 C182 0.929 . S
H206 C184 0.930 . S
H207 C185 0.929 . S
Nd208 C210 2.836 1_455 S
Nd208 O228 2.500 1_455 S
Nd208 O229 2.492 1_455 S
Nd208 O230 2.487 . S
Nd208 O231 2.682 . S
Nd208 O232 2.410 1_455 S
Nd208 O237 2.414 . S
Nd208 O239 2.424 . S
Nd209 C219 2.836 . S
Nd209 O231 2.414 1_554 S
Nd209 O233 2.424 1_454 S
Nd209 O234 2.500 . S
Nd209 O235 2.492 . S
Nd209 O236 2.487 . S
Nd209 O237 2.682 1_554 S
Nd209 O238 2.410 1_554 S
C210 Nd208 2.836 1_655 S
C210 C211 1.498 . S
C210 O228 1.258 . S
C210 O229 1.239 . S
C211 C210 1.498 . S
C211 C212 1.366 . S
C211 C216 1.407 . S
C212 C211 1.366 . S
C212 C213 1.392 . S
C212 H240 0.930 . S
C213 C212 1.392 . S
C213 C214 1.398 . S
C213 H241 0.929 . S
C214 C213 1.398 . S
C214 C215 1.352 . S
C215 C214 1.352 . S
C215 C216 1.384 . S
C215 H242 0.930 . S
C216 C211 1.407 . S
C216 C215 1.384 . S
C216 H243 0.929 . S
C217 O230 1.241 . S
C217 O231 1.273 . S
C218 O232 1.251 . S
C218 O233 1.268 . S
C219 Nd209 2.836 . S
C219 C220 1.498 . S
C219 O234 1.258 . S
C219 O235 1.239 . S
C220 C219 1.498 . S
C220 C221 1.366 . S
C220 C225 1.407 . S
C221 C220 1.366 . S
C221 C222 1.392 . S
C221 H244 0.930 . S
C222 C221 1.392 . S
C222 C223 1.398 . S
C222 H245 0.929 . S
C223 C222 1.398 . S
C223 C224 1.352 . S
C224 C223 1.352 . S
C224 C225 1.384 . S
C224 H246 0.930 . S
C225 C220 1.407 . S
C225 C224 1.384 . S
C225 H247 0.929 . S
C226 O236 1.241 1_556 S
C226 O237 1.273 . S
C227 O238 1.251 . S
C227 O239 1.268 . S
O228 Nd208 2.500 1_655 S
O228 C210 1.258 . S
O229 Nd208 2.492 1_655 S
O229 C210 1.239 . S
O230 Nd208 2.487 . S
O230 C217 1.241 . S
O231 Nd208 2.682 . S
O231 Nd209 2.414 1_556 S
O231 C217 1.273 . S
O232 Nd208 2.410 1_655 S
O232 C218 1.251 . S
O233 Nd209 2.424 1_656 S
O233 C218 1.268 . S
O234 Nd209 2.500 . S
O234 C219 1.258 . S
O235 Nd209 2.492 . S
O235 C219 1.239 . S
O236 Nd209 2.487 . S
O236 C226 1.241 1_554 S
O237 Nd208 2.414 . S
O237 Nd209 2.682 1_556 S
O237 C226 1.273 . S
O238 Nd209 2.410 1_556 S
O238 C227 1.251 . S
O239 Nd208 2.424 . S
O239 C227 1.268 . S
H240 C212 0.930 . S
H241 C213 0.929 . S
H242 C215 0.930 . S
H243 C216 0.929 . S
H244 C221 0.930 . S
H245 C222 0.929 . S
H246 C224 0.930 . S
H247 C225 0.929 . S
H248 C256 0.950 . S
H249 C261 0.950 . S
H250 C258 0.950 . S
H251 C260 0.950 . S
H252 C262 0.950 . S
H253 C264 0.950 . S
H254 C266 0.950 . S
H255 C267 0.950 . S
C256 H248 0.950 . S
C256 C257 1.386 . S
C256 C258 1.391 . S
C257 C256 1.386 . S
C257 C261 1.393 . S
C258 H250 0.950 . S
C258 C256 1.391 . S
C258 C259 1.400 . S
C259 C258 1.400 . S
C259 C260 1.398 . S
C259 C265 1.491 . S
C260 H251 0.950 . S
C260 C259 1.398 . S
C260 C261 1.391 . S
C261 H249 0.950 . S
C261 C257 1.393 . S
C261 C260 1.391 . S
C262 H252 0.950 . S
C262 C263 1.386 . S
C262 C264 1.391 . S
C263 C262 1.386 . S
C263 C267 1.393 . S
C264 H253 0.950 . S
C264 C262 1.391 . S
C264 C265 1.400 . S
C265 C259 1.491 . S
C265 C264 1.400 . S
C265 C266 1.398 . S
C266 H254 0.950 . S
C266 C265 1.398 . S
C266 C267 1.391 . S
C267 H255 0.950 . S
C267 C263 1.393 . S
C267 C266 1.391 . S
H268 C276 0.950 . S
H269 C281 0.950 . S
H270 C278 0.950 . S
H271 C280 0.950 . S
H272 C282 0.950 . S
H273 C284 0.950 . S
H274 C286 0.950 . S
H275 C287 0.950 . S
C276 H268 0.950 . S
C276 C277 1.386 . S
C276 C278 1.391 . S
C277 C276 1.386 . S
C277 C281 1.393 . S
C278 H270 0.950 . S
C278 C276 1.391 . S
C278 C279 1.400 . S
C279 C278 1.400 . S
C279 C280 1.398 . S
C279 C285 1.491 . S
C280 H271 0.950 . S
C280 C279 1.398 . S
C280 C281 1.391 . S
C281 H269 0.950 . S
C281 C277 1.393 . S
C281 C280 1.391 . S
C282 H272 0.950 . S
C282 C283 1.386 . S
C282 C284 1.391 . S
C283 C282 1.386 . S
C283 C287 1.393 . S
C284 H273 0.950 . S
C284 C282 1.391 . S
C284 C285 1.400 . S
C285 C279 1.491 . S
C285 C284 1.400 . S
C285 C286 1.398 . S
C286 H274 0.950 . S
C286 C285 1.398 . S
C286 C287 1.391 . S
C287 H275 0.950 . S
C287 C283 1.393 . S
C287 C286 1.391 . S
H288 C296 0.950 . S
H289 C301 0.950 . S
H290 C298 0.950 . S
H291 C300 0.950 . S
H292 C302 0.950 1_554 S
H293 C304 0.950 1_554 S
H294 C306 0.950 . S
H295 C307 0.950 . S
C296 H288 0.950 . S
C296 C297 1.386 . S
C296 C298 1.391 . S
C297 C296 1.386 . S
C297 C301 1.393 . S
C298 H290 0.950 . S
C298 C296 1.391 . S
C298 C299 1.400 . S
C299 C298 1.400 . S
C299 C300 1.398 . S
C299 C305 1.491 . S
C300 H291 0.950 . S
C300 C299 1.398 . S
C300 C301 1.391 . S
C301 H289 0.950 . S
C301 C297 1.393 . S
C301 C300 1.391 . S
C302 H292 0.950 1_556 S
C302 C303 1.386 . S
C302 C304 1.391 . S
C303 C302 1.386 . S
C303 C307 1.393 . S
C304 H293 0.950 1_556 S
C304 C302 1.391 . S
C304 C305 1.400 . S
C305 C299 1.491 . S
C305 C304 1.400 . S
C305 C306 1.398 . S
C306 H294 0.950 . S
C306 C305 1.398 . S
C306 C307 1.391 . S
C307 H295 0.950 . S
C307 C303 1.393 . S
C307 C306 1.391 . S
H308 C316 0.950 . S
H309 C321 0.950 . S
H310 C318 0.950 . S
H311 C320 0.950 . S
H312 C322 0.950 1_655 S
H313 C324 0.951 . S
H314 C326 0.950 . S
H315 C327 0.950 . S
C316 H308 0.950 . S
C316 C317 1.386 . S
C316 C318 1.391 . S
C317 C316 1.386 . S
C317 C321 1.393 . S
C318 H310 0.950 . S
C318 C316 1.391 . S
C318 C319 1.400 . S
C319 C318 1.400 . S
C319 C320 1.398 . S
C319 C325 1.491 . S
C320 H311 0.950 . S
C320 C319 1.398 . S
C320 C321 1.391 . S
C321 H309 0.950 . S
C321 C317 1.393 . S
C321 C320 1.391 . S
C322 H312 0.950 1_455 S
C322 C323 1.386 . S
C322 C324 1.391 . S
C323 C322 1.386 . S
C323 C327 1.393 . S
C324 H313 0.951 . S
C324 C322 1.391 . S
C324 C325 1.400 . S
C325 C319 1.491 . S
C325 C324 1.400 . S
C325 C326 1.398 . S
C326 H314 0.950 . S
C326 C325 1.398 . S
C326 C327 1.391 . S
C327 H315 0.950 . S
C327 C323 1.393 . S
C327 C326 1.391 . S
H328 C336 0.950 . S
H329 C341 0.950 . S
H330 C338 0.950 . S
H331 C340 0.950 . S
H332 C342 0.950 . S
H333 C344 0.950 . S
H334 C346 0.950 1_545 S
H335 C347 0.950 . S
C336 H328 0.950 . S
C336 C337 1.386 . S
C336 C338 1.391 . S
C337 C336 1.386 . S
C337 C341 1.393 1_554 S
C338 H330 0.950 . S
C338 C336 1.391 . S
C338 C339 1.400 . S
C339 C338 1.400 . S
C339 C340 1.398 1_554 S
C339 C345 1.491 1_554 S
C340 H331 0.950 . S
C340 C339 1.398 1_556 S
C340 C341 1.391 . S
C341 H329 0.950 . S
C341 C337 1.393 1_556 S
C341 C340 1.391 . S
C342 H332 0.950 . S
C342 C343 1.386 . S
C342 C344 1.391 . S
C343 C342 1.386 . S
C343 C347 1.393 1_566 S
C344 H333 0.950 . S
C344 C342 1.391 . S
C344 C345 1.400 . S
C345 C339 1.491 1_556 S
C345 C344 1.400 . S
C345 C346 1.398 1_556 S
C346 H334 0.950 1_565 S
C346 C345 1.398 1_554 S
C346 C347 1.391 1_565 S
C347 H335 0.950 . S
C347 C343 1.393 1_544 S
C347 C346 1.391 1_545 S
H348 C356 0.950 . S
H349 C361 0.950 . S
H350 C358 0.950 . S
H351 C360 0.950 . S
H352 C362 0.950 1_556 S
H353 C364 0.950 . S
H354 C366 0.950 . S
H355 C367 0.950 . S
C356 H348 0.950 . S
C356 C357 1.386 . S
C356 C358 1.391 . S
C357 C356 1.386 . S
C357 C361 1.393 . S
C358 H350 0.950 . S
C358 C356 1.391 . S
C358 C359 1.400 . S
C359 C358 1.400 . S
C359 C360 1.398 . S
C359 C365 1.491 . S
C360 H351 0.950 . S
C360 C359 1.398 . S
C360 C361 1.391 . S
C361 H349 0.950 . S
C361 C357 1.393 . S
C361 C360 1.391 . S
C362 H352 0.950 1_554 S
C362 C363 1.386 . S
C362 C364 1.391 . S
C363 C362 1.386 . S
C363 C367 1.393 . S
C364 H353 0.950 . S
C364 C362 1.391 . S
C364 C365 1.400 . S
C365 C359 1.491 . S
C365 C364 1.400 . S
C365 C366 1.398 . S
C366 H354 0.950 . S
C366 C365 1.398 . S
C366 C367 1.391 . S
C367 H355 0.950 . S
C367 C363 1.393 . S
C367 C366 1.391 . S
H368 C376 0.950 1_554 S
H369 C381 0.950 . S
H370 C378 0.950 1_554 S
H371 C380 0.950 . S
H372 C382 0.950 . S
H373 C384 0.950 . S
H374 C386 0.950 . S
H375 C387 0.950 . S
C376 H368 0.950 1_556 S
C376 C377 1.386 . S
C376 C378 1.391 . S
C377 C376 1.386 . S
C377 C381 1.393 . S
C378 H370 0.950 1_556 S
C378 C376 1.391 . S
C378 C379 1.400 . S
C379 C378 1.400 . S
C379 C380 1.398 . S
C379 C385 1.491 . S
C380 H371 0.950 . S
C380 C379 1.398 . S
C380 C381 1.391 . S
C381 H369 0.950 . S
C381 C377 1.393 . S
C381 C380 1.391 . S
C382 H372 0.950 . S
C382 C383 1.386 . S
C382 C384 1.391 . S
C383 C382 1.386 . S
C383 C387 1.393 . S
C384 H373 0.950 . S
C384 C382 1.391 . S
C384 C385 1.400 . S
C385 C379 1.491 . S
C385 C384 1.400 . S
C385 C386 1.398 . S
C386 H374 0.950 . S
C386 C385 1.398 . S
C386 C387 1.391 . S
C387 H375 0.950 . S
C387 C383 1.393 . S
C387 C386 1.391 . S
H388 C396 0.950 . S
H389 C401 0.950 . S
H390 C398 0.950 . S
H391 C400 0.950 . S
H392 C402 0.950 . S
H393 C404 0.950 . S
H394 C406 0.926 1_655 S
H395 C407 0.950 1_655 S
C396 H388 0.950 . S
C396 C397 1.386 1_655 S
C396 C398 1.391 . S
C397 C396 1.386 1_455 S
C397 C401 1.393 . S
C398 H390 0.950 . S
C398 C396 1.391 . S
C398 C399 1.400 1_655 S
C399 C398 1.400 1_455 S
C399 C400 1.398 1_554 S
C399 C405 1.493 . S
C400 H391 0.950 . S
C400 C399 1.398 1_556 S
C400 C401 1.391 1_556 S
C401 H389 0.950 . S
C401 C397 1.393 . S
C401 C400 1.391 1_554 S
C402 H392 0.950 . S
C402 C403 1.386 . S
C402 C404 1.391 . S
C403 C402 1.386 . S
C403 C407 1.393 1_556 S
C404 H393 0.950 . S
C404 C402 1.391 . S
C404 C405 1.397 1_556 S
C405 C399 1.493 . S
C405 C404 1.397 1_554 S
C405 C406 1.414 . S
C406 H394 0.926 1_455 S
C406 C405 1.414 . S
C406 C407 1.400 . S
C407 H395 0.950 1_455 S
C407 C403 1.393 1_554 S
C407 C406 1.400 . S
H408 C416 0.950 . S
H409 C421 0.950 . S
H410 C418 0.950 . S
H411 C420 0.950 . S
H412 C422 0.950 . S
H413 C424 0.950 . S
H414 C426 0.950 . S
H415 C427 0.950 1_655 S
C416 H408 0.950 . S
C416 C417 1.386 . S
C416 C418 1.391 . S
C417 C416 1.386 . S
C417 C421 1.393 . S
C418 H410 0.950 . S
C418 C416 1.391 . S
C418 C419 1.400 . S
C419 C418 1.400 . S
C419 C420 1.398 . S
C419 C425 1.491 . S
C420 H411 0.950 . S
C420 C419 1.398 . S
C420 C421 1.391 . S
C421 H409 0.950 . S
C421 C417 1.393 . S
C421 C420 1.391 . S
C422 H412 0.950 . S
C422 C423 1.386 . S
C422 C424 1.391 . S
C423 C422 1.386 . S
C423 C427 1.393 . S
C424 H413 0.950 . S
C424 C422 1.391 . S
C424 C425 1.400 . S
C425 C419 1.491 . S
C425 C424 1.400 . S
C425 C426 1.398 . S
C426 H414 0.950 . S
C426 C425 1.398 . S
C426 C427 1.391 . S
C427 H415 0.950 1_455 S
C427 C423 1.393 . S
C427 C426 1.391 . S
H428 C436 0.950 . S
H429 C441 0.950 . S
H430 C438 0.950 . S
H431 C440 0.950 . S
H432 C442 0.950 . S
H433 C444 0.950 . S
H434 C446 0.950 . S
H435 C447 0.950 . S
C436 H428 0.950 . S
C436 C437 1.386 . S
C436 C438 1.391 . S
C437 C436 1.386 . S
C437 C441 1.393 . S
C438 H430 0.950 . S
C438 C436 1.391 . S
C438 C439 1.400 . S
C439 C438 1.400 . S
C439 C440 1.398 . S
C439 C445 1.491 . S
C440 H431 0.950 . S
C440 C439 1.398 . S
C440 C441 1.391 . S
C441 H429 0.950 . S
C441 C437 1.393 . S
C441 C440 1.391 . S
C442 H432 0.950 . S
C442 C443 1.386 . S
C442 C444 1.391 . S
C443 C442 1.386 . S
C443 C447 1.393 . S
C444 H433 0.950 . S
C444 C442 1.391 . S
C444 C445 1.400 . S
C445 C439 1.491 . S
C445 C444 1.400 . S
C445 C446 1.398 . S
C446 H434 0.950 . S
C446 C445 1.398 . S
C446 C447 1.391 . S
C447 H435 0.950 . S
C447 C443 1.393 . S
C447 C446 1.391 . S
H448 C456 0.950 . S
H449 C461 0.950 . S
H450 C458 0.950 . S
H451 C460 0.950 . S
H452 C462 0.950 . S
H453 C464 0.950 . S
H454 C466 0.950 . S
H455 C467 0.950 . S
C456 H448 0.950 . S
C456 C457 1.386 . S
C456 C458 1.391 . S
C457 C456 1.386 . S
C457 C461 1.393 . S
C458 H450 0.950 . S
C458 C456 1.391 . S
C458 C459 1.400 . S
C459 C458 1.400 . S
C459 C460 1.398 . S
C459 C465 1.491 . S
C460 H451 0.950 . S
C460 C459 1.398 . S
C460 C461 1.391 . S
C461 H449 0.950 . S
C461 C457 1.393 . S
C461 C460 1.391 . S
C462 H452 0.950 . S
C462 C463 1.386 . S
C462 C464 1.391 . S
C463 C462 1.386 . S
C463 C467 1.393 . S
C464 H453 0.950 . S
C464 C462 1.391 . S
C464 C465 1.400 . S
C465 C459 1.491 . S
C465 C464 1.400 . S
C465 C466 1.398 . S
C466 H454 0.950 . S
C466 C465 1.398 . S
C466 C467 1.391 . S
C467 H455 0.950 . S
C467 C463 1.393 . S
C467 C466 1.391 . S
H468 C476 0.950 . S
H469 C481 0.950 . S
H470 C478 0.950 . S
H471 C480 0.950 . S
H472 C482 0.950 . S
H473 C484 0.950 . S
H474 C486 0.950 . S
H475 C487 0.950 . S
C476 H468 0.950 . S
C476 C477 1.386 . S
C476 C478 1.391 . S
C477 C476 1.386 . S
C477 C481 1.393 . S
C478 H470 0.950 . S
C478 C476 1.391 . S
C478 C479 1.400 . S
C479 C478 1.400 . S
C479 C480 1.398 . S
C479 C485 1.491 . S
C480 H471 0.950 . S
C480 C479 1.398 . S
C480 C481 1.391 . S
C481 H469 0.950 . S
C481 C477 1.393 . S
C481 C480 1.391 . S
C482 H472 0.950 . S
C482 C483 1.386 . S
C482 C484 1.391 . S
C483 C482 1.386 . S
C483 C487 1.393 . S
C484 H473 0.950 . S
C484 C482 1.391 . S
C484 C485 1.400 . S
C485 C479 1.491 . S
C485 C484 1.400 . S
C485 C486 1.398 . S
C486 H474 0.950 . S
C486 C485 1.398 . S
C486 C487 1.391 . S
C487 H475 0.950 . S
C487 C483 1.393 . S
C487 C486 1.391 . S
H488 C496 0.950 1_556 S
H489 C501 0.950 . S
H490 C498 0.950 . S
H491 C500 0.950 . S
H492 C502 0.916 1_655 S
H493 C504 0.950 . S
H494 C506 0.950 . S
H495 C507 0.950 . S
C496 H488 0.950 1_554 S
C496 C497 1.383 . S
C496 C498 1.391 1_554 S
C497 C496 1.383 . S
C497 C501 1.395 1_455 S
C498 H490 0.950 . S
C498 C496 1.391 1_556 S
C498 C499 1.400 1_556 S
C499 C498 1.400 1_554 S
C499 C500 1.398 1_455 S
C499 C505 1.491 1_554 S
C500 H491 0.950 . S
C500 C499 1.398 1_655 S
C500 C501 1.391 . S
C501 H489 0.950 . S
C501 C497 1.395 1_655 S
C501 C500 1.391 . S
C502 H492 0.916 1_455 S
C502 C503 1.419 1_554 S
C502 C504 1.392 1_455 S
C503 C502 1.419 1_556 S
C503 C507 1.393 . S
C504 H493 0.950 . S
C504 C502 1.392 1_655 S
C504 C505 1.400 1_654 S
C505 C499 1.491 1_556 S
C505 C504 1.400 1_456 S
C505 C506 1.398 . S
C506 H494 0.950 . S
C506 C505 1.398 . S
C506 C507 1.391 . S
C507 H495 0.950 . S
C507 C503 1.393 . S
C507 C506 1.391 . S
H508 C516 0.950 . S
H509 C521 0.950 . S
H510 C518 0.950 . S
H511 C520 0.950 . S
H512 C522 0.950 . S
H513 C524 0.950 . S
H514 C526 0.950 . S
H515 C527 0.950 . S
C516 H508 0.950 . S
C516 C517 1.386 . S
C516 C518 1.391 1_554 S
C517 C516 1.386 . S
C517 C521 1.393 . S
C518 H510 0.950 . S
C518 C516 1.391 1_556 S
C518 C519 1.400 . S
C519 C518 1.400 . S
C519 C520 1.398 . S
C519 C525 1.491 . S
C520 H511 0.950 . S
C520 C519 1.398 . S
C520 C521 1.391 1_556 S
C521 H509 0.950 . S
C521 C517 1.393 . S
C521 C520 1.391 1_554 S
C522 H512 0.950 . S
C522 C523 1.386 1_565 S
C522 C524 1.391 . S
C523 C522 1.386 1_545 S
C523 C527 1.393 . S
C524 H513 0.950 . S
C524 C522 1.391 . S
C524 C525 1.400 . S
C525 C519 1.491 . S
C525 C524 1.400 . S
C525 C526 1.398 1_565 S
C526 H514 0.950 . S
C526 C525 1.398 1_545 S
C526 C527 1.391 . S
C527 H515 0.950 . S
C527 C523 1.393 . S
C527 C526 1.391 . S
H528 C536 0.950 . S
H529 C541 0.950 . S
H530 C538 0.950 . S
H531 C540 0.950 . S
H532 C542 0.950 . S
H533 C544 0.950 . S
H534 C546 0.950 . S
H535 C547 0.950 . S
C536 H528 0.950 . S
C536 C537 1.386 . S
C536 C538 1.391 . S
C537 C536 1.386 . S
C537 C541 1.393 . S
C538 H530 0.950 . S
C538 C536 1.391 . S
C538 C539 1.400 . S
C539 C538 1.400 . S
C539 C540 1.398 . S
C539 C545 1.491 . S
C540 H531 0.950 . S
C540 C539 1.398 . S
C540 C541 1.391 . S
C541 H529 0.950 . S
C541 C537 1.393 . S
C541 C540 1.391 . S
C542 H532 0.950 . S
C542 C543 1.386 . S
C542 C544 1.391 . S
C543 C542 1.386 . S
C543 C547 1.393 . S
C544 H533 0.950 . S
C544 C542 1.391 . S
C544 C545 1.400 . S
C545 C539 1.491 . S
C545 C544 1.400 . S
C545 C546 1.398 . S
C546 H534 0.950 . S
C546 C545 1.398 . S
C546 C547 1.391 . S
C547 H535 0.950 . S
C547 C543 1.393 . S
C547 C546 1.391 . S
H548 C556 0.950 . S
H549 C561 0.950 1_554 S
H550 C558 0.950 . S
H551 C560 0.950 1_554 S
H552 C562 0.950 1_554 S
H553 C564 0.950 1_554 S
H554 C566 0.950 . S
H555 C567 0.950 . S
C556 H548 0.950 . S
C556 C557 1.386 . S
C556 C558 1.391 . S
C557 C556 1.386 . S
C557 C561 1.393 . S
C558 H550 0.950 . S
C558 C556 1.391 . S
C558 C559 1.400 . S
C559 C558 1.400 . S
C559 C560 1.398 . S
C559 C565 1.491 . S
C560 H551 0.950 1_556 S
C560 C559 1.398 . S
C560 C561 1.391 . S
C561 H549 0.950 1_556 S
C561 C557 1.393 . S
C561 C560 1.391 . S
C562 H552 0.950 1_556 S
C562 C563 1.386 . S
C562 C564 1.391 . S
C563 C562 1.386 . S
C563 C567 1.393 . S
C564 H553 0.950 1_556 S
C564 C562 1.391 . S
C564 C565 1.400 . S
C565 C559 1.491 . S
C565 C564 1.400 . S
C565 C566 1.398 . S
C566 H554 0.950 . S
C566 C565 1.398 . S
C566 C567 1.391 . S
C567 H555 0.950 . S
C567 C563 1.393 . S
C567 C566 1.391 . S
H568 C576 0.950 . S
H569 C581 0.950 . S
H570 C578 0.950 . S
H571 C580 0.950 . S
H572 C582 0.950 . S
H573 C584 0.950 . S
H574 C586 0.950 . S
H575 C587 0.950 . S
C576 H568 0.950 . S
C576 C577 1.386 . S
C576 C578 1.391 . S
C577 C576 1.386 . S
C577 C581 1.393 . S
C578 H570 0.950 . S
C578 C576 1.391 . S
C578 C579 1.400 . S
C579 C578 1.400 . S
C579 C580 1.398 . S
C579 C585 1.491 . S
C580 H571 0.950 . S
C580 C579 1.398 . S
C580 C581 1.391 . S
C581 H569 0.950 . S
C581 C577 1.393 . S
C581 C580 1.391 . S
C582 H572 0.950 . S
C582 C583 1.386 . S
C582 C584 1.391 . S
C583 C582 1.386 . S
C583 C587 1.393 . S
C584 H573 0.950 . S
C584 C582 1.391 . S
C584 C585 1.400 . S
C585 C579 1.491 . S
C585 C584 1.400 . S
C585 C586 1.398 . S
C586 H574 0.950 . S
C586 C585 1.398 . S
C586 C587 1.391 . S
C587 H575 0.950 . S
C587 C583 1.393 . S
C587 C586 1.391 . S
H588 C596 0.950 . S
H589 C601 0.950 . S
H590 C598 0.950 . S
H591 C600 0.950 . S
H592 C602 0.950 . S
H593 C604 0.950 . S
H594 C606 0.950 . S
H595 C607 0.950 . S
C596 H588 0.950 . S
C596 C597 1.386 . S
C596 C598 1.391 . S
C597 C596 1.386 . S
C597 C601 1.393 . S
C598 H590 0.950 . S
C598 C596 1.391 . S
C598 C599 1.400 . S
C599 C598 1.400 . S
C599 C600 1.398 . S
C599 C605 1.491 . S
C600 H591 0.950 . S
C600 C599 1.398 . S
C600 C601 1.391 . S
C601 H589 0.950 . S
C601 C597 1.393 . S
C601 C600 1.391 . S
C602 H592 0.950 . S
C602 C603 1.386 . S
C602 C604 1.391 . S
C603 C602 1.386 . S
C603 C607 1.393 . S
C604 H593 0.950 . S
C604 C602 1.391 . S
C604 C605 1.400 . S
C605 C599 1.491 . S
C605 C604 1.400 . S
C605 C606 1.398 . S
C606 H594 0.950 . S
C606 C605 1.398 . S
C606 C607 1.391 . S
C607 H595 0.950 . S
C607 C603 1.393 . S
C607 C606 1.391 . S
H608 C616 0.950 . S
H609 C621 0.950 . S
H610 C618 0.950 . S
H611 C620 0.950 . S
H612 C622 0.950 . S
H613 C624 0.950 . S
H614 C626 0.950 . S
H615 C627 0.950 1_556 S
C616 H608 0.950 . S
C616 C617 1.386 . S
C616 C618 1.391 . S
C617 C616 1.386 . S
C617 C621 1.393 . S
C618 H610 0.950 . S
C618 C616 1.391 . S
C618 C619 1.400 . S
C619 C618 1.400 . S
C619 C620 1.398 . S
C619 C625 1.491 . S
C620 H611 0.950 . S
C620 C619 1.398 . S
C620 C621 1.391 . S
C621 H609 0.950 . S
C621 C617 1.393 . S
C621 C620 1.391 . S
C622 H612 0.950 . S
C622 C623 1.386 . S
C622 C624 1.391 . S
C623 C622 1.386 . S
C623 C627 1.393 . S
C624 H613 0.950 . S
C624 C622 1.391 . S
C624 C625 1.400 . S
C625 C619 1.491 . S
C625 C624 1.400 . S
C625 C626 1.398 . S
C626 H614 0.950 . S
C626 C625 1.398 . S
C626 C627 1.391 . S
C627 H615 0.950 1_554 S
C627 C623 1.393 . S
C627 C626 1.391 . S
H628 C636 0.950 . S
H629 C641 0.950 . S
H630 C638 0.950 . S
H631 C640 0.950 . S
H632 C642 0.950 . S
H633 C644 0.950 . S
H634 C646 0.950 . S
H635 C647 0.950 . S
C636 H628 0.950 . S
C636 C637 1.386 . S
C636 C638 1.391 . S
C637 C636 1.386 . S
C637 C641 1.393 . S
C638 H630 0.950 . S
C638 C636 1.391 . S
C638 C639 1.400 . S
C639 C638 1.400 . S
C639 C640 1.398 . S
C639 C645 1.491 . S
C640 H631 0.950 . S
C640 C639 1.398 . S
C640 C641 1.391 . S
C641 H629 0.950 . S
C641 C637 1.393 . S
C641 C640 1.391 . S
C642 H632 0.950 . S
C642 C643 1.386 . S
C642 C644 1.391 . S
C643 C642 1.386 . S
C643 C647 1.393 . S
C644 H633 0.950 . S
C644 C642 1.391 . S
C644 C645 1.400 . S
C645 C639 1.491 . S
C645 C644 1.400 . S
C645 C646 1.398 . S
C646 H634 0.950 . S
C646 C645 1.398 . S
C646 C647 1.391 . S
C647 H635 0.950 . S
C647 C643 1.393 . S
C647 C646 1.391 . S
H648 C656 0.950 . S
H649 C661 0.950 . S
H650 C658 0.950 . S
H651 C660 0.950 . S
H652 C662 0.950 . S
H653 C664 0.950 . S
H654 C666 0.950 . S
H655 C667 0.950 . S
C656 H648 0.950 . S
C656 C657 1.387 . S
C656 C658 1.391 . S
C657 C656 1.387 . S
C657 C661 1.391 1_455 S
C658 H650 0.950 . S
C658 C656 1.391 . S
C658 C659 1.400 . S
C659 C658 1.400 . S
C659 C660 1.398 1_455 S
C659 C665 1.491 . S
C660 H651 0.950 . S
C660 C659 1.398 1_655 S
C660 C661 1.391 . S
C661 H649 0.950 . S
C661 C657 1.391 1_655 S
C661 C660 1.391 . S
C662 H652 0.950 . S
C662 C663 1.386 1_655 S
C662 C664 1.391 . S
C663 C662 1.386 1_455 S
C663 C667 1.393 . S
C664 H653 0.950 . S
C664 C662 1.391 . S
C664 C665 1.400 1_655 S
C665 C659 1.491 . S
C665 C664 1.400 1_455 S
C665 C666 1.398 . S
C666 H654 0.950 . S
C666 C665 1.398 . S
C666 C667 1.391 . S
C667 H655 0.950 . S
C667 C663 1.393 . S
C667 C666 1.391 . S
H668 C676 0.950 . S
H669 C681 0.950 . S
H670 C678 0.950 . S
H671 C680 0.950 . S
H672 C682 0.950 . S
H673 C684 0.950 . S
H674 C686 0.950 . S
H675 C687 0.950 . S
C676 H668 0.950 . S
C676 C677 1.386 . S
C676 C678 1.391 . S
C677 C676 1.386 . S
C677 C681 1.393 . S
C678 H670 0.950 . S
C678 C676 1.391 . S
C678 C679 1.400 . S
C679 C678 1.400 . S
C679 C680 1.398 . S
C679 C685 1.491 . S
C680 H671 0.950 . S
C680 C679 1.398 . S
C680 C681 1.391 . S
C681 H669 0.950 . S
C681 C677 1.393 . S
C681 C680 1.391 . S
C682 H672 0.950 . S
C682 C683 1.386 . S
C682 C684 1.391 . S
C683 C682 1.386 . S
C683 C687 1.393 . S
C684 H673 0.950 . S
C684 C682 1.391 . S
C684 C685 1.400 . S
C685 C679 1.491 . S
C685 C684 1.400 . S
C685 C686 1.398 . S
C686 H674 0.950 . S
C686 C685 1.398 . S
C686 C687 1.391 . S
C687 H675 0.950 . S
C687 C683 1.393 . S
C687 C686 1.391 . S
H688 C696 0.950 . S
H689 C701 0.950 . S
H690 C698 0.950 . S
H691 C700 0.950 . S
H692 C702 0.950 . S
H693 C704 0.950 . S
H694 C706 0.950 . S
H695 C707 0.950 . S
C696 H688 0.950 . S
C696 C697 1.386 . S
C696 C698 1.391 . S
C697 C696 1.386 . S
C697 C701 1.393 . S
C698 H690 0.950 . S
C698 C696 1.391 . S
C698 C699 1.400 . S
C699 C698 1.400 . S
C699 C700 1.398 . S
C699 C705 1.491 . S
C700 H691 0.950 . S
C700 C699 1.398 . S
C700 C701 1.391 . S
C701 H689 0.950 . S
C701 C697 1.393 . S
C701 C700 1.391 . S
C702 H692 0.950 . S
C702 C703 1.386 . S
C702 C704 1.391 . S
C703 C702 1.386 . S
C703 C707 1.393 . S
C704 H693 0.950 . S
C704 C702 1.391 . S
C704 C705 1.400 . S
C705 C699 1.491 . S
C705 C704 1.400 . S
C705 C706 1.398 . S
C706 H694 0.950 . S
C706 C705 1.398 . S
C706 C707 1.391 . S
C707 H695 0.950 . S
C707 C703 1.393 . S
C707 C706 1.391 . S
H708 C716 0.950 . S
H709 C721 0.950 . S
H710 C718 0.950 . S
H711 C720 0.950 . S
H712 C722 0.950 . S
H713 C724 0.950 . S
H714 C726 0.950 . S
H715 C727 0.950 . S
C716 H708 0.950 . S
C716 C717 1.386 . S
C716 C718 1.391 . S
C717 C716 1.386 . S
C717 C721 1.393 . S
C718 H710 0.950 . S
C718 C716 1.391 . S
C718 C719 1.400 . S
C719 C718 1.400 . S
C719 C720 1.398 . S
C719 C725 1.491 . S
C720 H711 0.950 . S
C720 C719 1.398 . S
C720 C721 1.391 . S
C721 H709 0.950 . S
C721 C717 1.393 . S
C721 C720 1.391 . S
C722 H712 0.950 . S
C722 C723 1.386 . S
C722 C724 1.391 . S
C723 C722 1.386 . S
C723 C727 1.393 . S
C724 H713 0.950 . S
C724 C722 1.391 . S
C724 C725 1.400 . S
C725 C719 1.491 . S
C725 C724 1.400 . S
C725 C726 1.398 . S
C726 H714 0.950 . S
C726 C725 1.398 . S
C726 C727 1.391 . S
C727 H715 0.950 . S
C727 C723 1.393 . S
C727 C726 1.391 . S
C257 C76 1.694 . S
C263 C97 1.667 . S
C283 C137 1.290 . S
C277 C87 1.323 . S
C303 C186 1.313 . S
C297 C54 1.357 . S
C323 C217 1.658 . S
C317 C65 1.727 . S
C343 C106 1.681 1_565 S
C337 C32 1.708 . S
C357 C43 1.316 . S
C363 C146 1.288 . S
C377 C10 1.369 . S
C383 C177 1.337 . S
C397 C21 1.715 1_455 S
C403 C226 1.632 . S
C423 C107 0.930 . S
C417 C60 0.850 . S
C443 C147 1.484 . S
C437 C71 1.335 . S
C463 C183 0.757 . S
C457 C82 0.777 . S
C477 C49 1.053 . S
C483 C227 1.128 . S
C497 C16 0.906 . S
C503 C98 0.928 . S
C523 C138 1.486 . S
C517 C27 1.342 . S
C543 C174 0.753 . S
C537 C38 0.776 . S
C557 C5 1.038 . S
C563 C218 1.130 . S
C577 C59 1.618 . S
C583 C103 1.664 . S
C597 C70 1.414 . S
C603 C143 1.426 . S
C623 C187 1.941 1_554 S
C617 C81 1.795 . S
C643 C223 1.428 . S
C637 C48 1.436 . S
C657 C15 1.614 . S
C663 C94 1.664 . S
C683 C134 1.413 . S
C677 C26 1.426 . S
C703 C178 1.942 . S
C697 C37 1.781 . S
C717 C4 1.437 . S
C723 C214 1.420 . S
