# Generated by pormake.
# Topology zzz, (3,6)-cn, num edge types: 1
# Building blocks:
#     Node 0, Type 0, BuildingBlock: CUQRIR_clean_linker_1, # of connection points: 3
#     Node 1, Type 0, BuildingBlock: CUQRIR_clean_linker_1, # of connection points: 3
#     Node 2, Type 0, BuildingBlock: CUQRIR_clean_linker_1, # of connection points: 3
#     Node 3, Type 0, BuildingBlock: CUQRIR_clean_linker_1, # of connection points: 3
#     Node 4, Type 0, BuildingBlock: CUQRIR_clean_linker_1, # of connection points: 3
#     Node 5, Type 0, BuildingBlock: CUQRIR_clean_linker_1, # of connection points: 3
#     Node 6, Type 0, BuildingBlock: CUQRIR_clean_linker_1, # of connection points: 3
#     Node 7, Type 0, BuildingBlock: CUQRIR_clean_linker_1, # of connection points: 3
#     Node 8, Type 1, BuildingBlock: PAMTUU_clean_sbu_0, # of connection points: 6
#     Node 9, Type 1, BuildingBlock: PAMTUU_clean_sbu_0, # of connection points: 6
#     Node 10, Type 1, BuildingBlock: PAMTUU_clean_sbu_0, # of connection points: 6
#     Node 11, Type 1, BuildingBlock: PAMTUU_clean_sbu_0, # of connection points: 6
#     Edge 12, Type (0, 1), None
#     Edge 13, Type (0, 1), None
#     Edge 14, Type (0, 1), None
#     Edge 15, Type (0, 1), None
#     Edge 16, Type (0, 1), None
#     Edge 17, Type (0, 1), None
#     Edge 18, Type (0, 1), None
#     Edge 19, Type (0, 1), None
#     Edge 20, Type (0, 1), None
#     Edge 21, Type (0, 1), None
#     Edge 22, Type (0, 1), None
#     Edge 23, Type (0, 1), None
#     Edge 24, Type (0, 1), None
#     Edge 25, Type (0, 1), None
#     Edge 26, Type (0, 1), None
#     Edge 27, Type (0, 1), None
#     Edge 28, Type (0, 1), None
#     Edge 29, Type (0, 1), None
#     Edge 30, Type (0, 1), None
#     Edge 31, Type (0, 1), None
#     Edge 32, Type (0, 1), None
#     Edge 33, Type (0, 1), None
#     Edge 34, Type (0, 1), None
#     Edge 35, Type (0, 1), None
# Relax obj value: 0.692
# Max RMSD: 0.325
# Mean RMSD: 0.149
data_MOF--net-zzz--node1-PAMTUU_clean_sbu_0--node2-CUQRIR_clean_linker_1--edge1-none
_symmetry_space_group_name_H-M    P1
_symmetry_Int_Tables_number       1
_symmetry_cell_setting            triclinic
loop_
_symmetry_equiv_pos_as_xyz
'x, y, z'
_cell_length_a     18.584964
_cell_length_b     19.928857
_cell_length_c     7.9412796
_cell_angle_alpha  110.80731
_cell_angle_beta   78.423718
_cell_angle_gamma 95.057009
loop_
_atom_site_label
_atom_site_type_symbol
_atom_site_fract_x
_atom_site_fract_y
_atom_site_fract_z
_atom_type_partial_charge
C0 C 0.84811 0.58253 0.87612 0.0
N1 N 0.89003 0.53598 0.90587 0.0
N2 N 0.77561 0.55998 0.88495 0.0
C3 C 0.87897 0.64087 0.80636 0.0
C4 C 0.77682 0.50034 0.92923 0.0
N5 N 0.84567 0.47937 0.90465 0.0
C6 C 0.71376 0.45245 0.96927 0.0
H7 H 0.93486 0.62732 0.72559 0.0
H8 H 0.84367 0.65055 0.72028 0.0
H9 H 0.88104 0.69016 0.92563 0.0
H10 H 0.72452 0.39765 0.87449 0.0
H11 H 0.65927 0.47015 0.97009 0.0
H12 H 0.71506 0.44716 0.10301 0.0
C13 C 1.01295 0.7878 0.62552 0.0
N14 N 1.02389 0.85281 0.59683 0.0
N15 N 1.00256 0.73005 0.46719 0.0
C16 C 0.96648 0.78882 0.80267 0.0
C17 C 0.99768 0.76715 0.35764 0.0
N18 N 1.02126 0.83613 0.42261 0.0
C19 C 0.9351 0.74877 0.25609 0.0
H20 H 0.9577 0.84398 0.9024 0.0
H21 H 0.98932 0.75476 0.86128 0.0
H22 H 0.91105 0.76858 0.77564 0.0
H23 H 0.94247 0.69456 0.15212 0.0
H24 H 0.92732 0.78866 0.1942 0.0
H25 H 0.88421 0.74741 0.35552 0.0
C26 C 0.84953 1.0105 0.38599 0.0
N27 N 0.78387 1.04735 0.47805 0.0
N28 N 0.88974 1.03899 0.25517 0.0
C29 C 0.87629 0.95213 0.43329 0.0
C30 C 0.8399 0.08429 0.25787 0.0
N31 N 0.78896 0.09962 0.4101 0.0
C32 C 0.81869 0.08349 0.08267 0.0
H33 H 0.87593 0.97074 0.58282 0.0
H34 H 0.93243 0.93611 0.35631 0.0
H35 H 0.83819 0.9051 0.40007 0.0
H36 H 0.85276 1.04627 0.95906 0.0
H37 H 0.8203 0.13868 0.07951 0.0
H38 H 0.76108 0.06412 0.07841 0.0
C39 C 0.64645 0.87158 0.03886 0.0
N40 N 0.63774 0.80227 0.03725 0.0
N41 N 0.60264 0.885 0.93492 0.0
C42 C 0.70088 0.92405 0.13164 0.0
C43 C 0.57261 0.81759 0.85808 0.0
N44 N 0.59186 0.76856 0.92398 0.0
C45 C 0.52098 0.79821 0.72266 0.0
H46 H 0.72204 0.90602 0.22908 0.0
H47 H 0.67531 0.97678 0.20209 0.0
H48 H 0.74773 0.92981 0.0262 0.0
H49 H 0.55426 0.79688 0.59311 0.0
H50 H 0.47673 0.83646 0.75776 0.0
H51 H 0.49295 0.74546 0.70462 0.0
C52 C 0.36946 0.58044 0.27842 0.0
N53 N 0.29713 0.55533 0.27361 0.0
N54 N 0.39602 0.57348 0.42657 0.0
C55 C 0.40304 0.63059 0.17954 0.0
C56 C 0.33425 0.55052 0.51302 0.0
N57 N 0.27526 0.55471 0.44134 0.0
C58 C 0.32667 0.54343 0.69743 0.0
H59 H 0.41231 0.60204 0.02953 0.0
H60 H 0.45476 0.65525 0.22501 0.0
H61 H 0.36398 0.67401 0.20833 0.0
H62 H 0.34375 0.59452 0.79645 0.0
H63 H 0.27006 0.53006 0.74644 0.0
H64 H 0.3608 0.49935 0.6896 0.0
C65 C 0.15463 0.34055 0.37174 0.0
N66 N 0.13365 0.2671 0.32697 0.0
N67 N 0.16798 0.37307 0.55503 0.0
C68 C 0.19575 0.36652 0.22455 0.0
C69 C 0.16897 0.31177 0.58831 0.0
N70 N 0.13068 0.25762 0.48528 0.0
C71 C 0.22375 0.29951 0.68987 0.0
H72 H 0.23704 0.32609 0.13353 0.0
H73 H 0.22522 0.4174 0.28541 0.0
H74 H 0.1585 0.37195 0.13812 0.0
H75 H 0.21788 0.33933 0.83006 0.0
H76 H 0.27969 0.30792 0.61888 0.0
H77 H 0.21837 0.24441 0.69509 0.0
C78 C 0.30088 0.08518 0.29032 0.0
N79 N 0.36551 1.04454 0.20018 0.0
N80 N 0.26996 0.0808 0.46727 0.0
C81 C 0.2778 0.13833 0.21841 0.0
C82 C 0.32866 0.05355 0.4893 0.0
N83 N 0.37356 1.01932 0.33058 0.0
C84 C 0.35294 0.0749 0.67224 0.0
H85 H 0.32635 0.16619 0.16553 0.0
H86 H 0.24058 0.1775 0.3272 0.0
H87 H 0.25324 0.11093 0.09539 0.0
H88 H 0.31812 1.05226 0.76951 0.0
H89 H 0.35281 0.13399 0.74014 0.0
H90 H 0.4076 0.05395 0.64921 0.0
C91 C 0.47827 0.23729 0.48353 0.0
N92 N 0.50269 0.29614 0.43334 0.0
N93 N 0.51788 0.22501 0.59901 0.0
C94 C 0.40327 0.20973 0.47858 0.0
C95 C 0.56296 0.28452 0.6316 0.0
N96 N 0.55757 0.32498 0.52538 0.0
C97 C 0.62046 0.29865 0.74957 0.0
H98 H 0.37123 0.22525 0.61996 0.0
H99 H 0.40979 0.15234 0.4249 0.0
H100 H 0.37626 0.23045 0.39629 0.0
H101 H 0.64044 0.24953 0.75761 0.0
H102 H 0.59891 0.33487 0.89001 0.0
H103 H 0.66797 0.32445 0.68871 0.0
Tb104 Tb 1.04917 0.09859 0.82754 0.0
Tb105 Tb 0.12556 1.03198 0.97616 0.0
C106 C 0.96077 1.0415 0.15029 0.0
C107 C 0.92706 0.21094 0.76264 0.0
C108 C 1.05939 0.24366 0.58141 0.0
C109 C 0.99848 0.22144 0.49054 0.0
C110 C 0.93053 0.21075 0.58741 0.0
C111 C 0.97333 0.25989 0.86653 0.0
C112 C 1.04392 0.26739 0.77601 0.0
C113 C 0.93797 0.13961 0.76011 0.0
O114 O 0.10419 0.20183 0.01298 0.0
O115 O 0.12156 0.14111 0.18902 0.0
O116 O 0.19958 1.0497 0.72227 0.0
O117 O 0.14283 0.1174 0.61872 0.0
O118 O 0.1727 1.02198 0.17997 0.0
O119 O 0.21831 0.96651 0.89423 0.0
O120 O 1.05335 0.93847 0.87137 0.0
O121 O 1.04676 0.97956 0.65278 0.0
O122 O 0.97561 0.09303 0.07982 0.0
O123 O 1.0166 1.00033 0.12065 0.0
C124 C 0.12376 0.20442 0.16926 0.0
O125 O 0.99148 0.10456 0.63307 0.0
O126 O 0.94408 0.13845 0.91829 0.0
C127 C 0.20362 0.08497 0.60254 0.0
C128 C 0.19613 0.9051 0.09873 0.0
C129 C 0.08169 0.85743 0.31097 0.0
C130 C 0.15078 0.87266 0.36424 0.0
C131 C 0.20474 0.90312 0.2665 0.0
C132 C 0.13481 0.87187 0.02772 0.0
C133 C 0.07424 0.85757 0.14205 0.0
C134 C 0.21507 0.97052 0.06333 0.0
C135 C 1.03798 0.92398 0.71088 0.0
H136 H 1.00052 0.2128 0.34842 0.0
H137 H 0.89126 0.18021 0.51058 0.0
H138 H 0.9641 0.27224 0.01339 0.0
H139 H 0.08499 0.29162 0.85906 0.0
H140 H 0.16022 0.87001 0.49183 0.0
H141 H 0.24255 0.93806 0.34055 0.0
H142 H 0.13169 0.86474 0.88905 0.0
H143 H 1.02283 0.84471 0.09871 0.0
Tb144 Tb 0.54093 1.00322 0.64061 0.0
Tb145 Tb 0.59013 0.11295 0.92752 0.0
C146 C 0.5872 0.94847 0.91113 0.0
C147 C 0.45581 0.84265 0.31371 0.0
C148 C 0.37592 0.94356 0.29982 0.0
C149 C 0.40807 0.89454 0.13244 0.0
C150 C 0.44038 0.83555 0.14251 0.0
C151 C 0.39375 0.86005 0.44897 0.0
C152 C 0.35427 0.91588 0.44865 0.0
C153 C 0.51704 0.89503 0.36529 0.0
O154 O 0.4353 1.01883 0.87887 0.0
O155 O 0.48892 0.08919 0.11579 0.0
O156 O 0.53649 0.1799 0.82238 0.0
O157 O 0.51977 0.09814 0.55775 0.0
O158 O 0.57867 0.21418 0.12589 0.0
O159 O 0.68586 0.17252 -0.01309 0.0
O160 O 0.69393 0.09958 0.7317 0.0
O161 O 0.6677 0.99119 0.55709 0.0
O162 O 0.53407 0.94681 0.8267 0.0
O163 O 0.62288 1.01145 0.9663 0.0
C164 C 0.42806 0.05409 0.06383 0.0
O165 O 0.50798 0.96183 0.38589 0.0
O166 O 0.54674 0.89263 0.49597 0.0
C167 C 0.51944 0.16688 0.66297 0.0
C168 C 0.66675 0.21862 0.28687 0.0
C169 C 0.73807 0.15458 0.45425 0.0
C170 C 0.76414 0.22194 0.44157 0.0
C171 C 0.72906 0.25322 0.35051 0.0
C172 C 0.63605 0.1589 0.32818 0.0
C173 C 0.66939 0.1297 0.41969 0.0
C174 C 0.64872 0.22077 0.12668 0.0
C175 C 0.72005 1.04057 0.60473 0.0
H176 H 0.40587 0.90146 0.00512 0.0
H177 H 0.44734 0.78514 0.0306 0.0
H178 H 0.38858 0.84753 0.57288 0.0
H179 H 0.31381 0.94017 0.56896 0.0
H180 H 0.81698 0.24409 0.46984 0.0
H181 H 0.7545 0.29794 0.31195 0.0
H182 H 0.58989 0.12921 0.27232 0.0
H183 H 0.64865 0.07811 0.42062 0.0
Tb184 Tb 0.54709 0.53704 0.80523 0.0
Tb185 Tb 0.60972 0.55037 0.54948 0.0
C186 C 0.46504 0.58802 0.48455 0.0
C187 C 0.47046 0.41526 0.09749 0.0
C188 C 0.46921 0.33033 0.32839 0.0
C189 C 0.45356 0.29744 0.14667 0.0
C190 C 0.44774 0.34136 0.03718 0.0
C191 C 0.48701 0.43923 0.26935 0.0
C192 C 0.46439 0.40367 0.39361 0.0
C193 C 0.47114 0.47462 0.0148 0.0
O194 O 0.59254 0.4319 0.71618 0.0
O195 O 0.59894 0.42858 0.43701 0.0
O196 O 0.6712 0.53474 0.74762 0.0
O197 O 0.67138 0.53133 0.74595 0.0
O198 O 0.71029 0.60005 0.47185 0.0
O199 O 0.63654 0.54924 0.28262 0.0
O200 O 0.5839 0.66317 0.68121 0.0
O201 O 0.56769 0.65225 0.9531 0.0
O202 O 0.47906 0.56193 0.61459 0.0
O203 O 0.48654 0.56444 0.60158 0.0
C204 C 0.59054 0.39241 0.55124 0.0
O205 O 0.46165 0.46124 0.84753 0.0
O206 O 0.51501 0.53114 0.06697 0.0
C207 C 0.72098 0.58055 0.8187 0.0
C208 C 0.68572 0.66213 0.28558 0.0
C209 C 0.65956 0.77115 0.15771 0.0
C210 C 0.73208 0.75095 0.14031 0.0
C211 C 0.74506 0.69776 0.2103 0.0
C212 C 0.61586 0.68869 0.31843 0.0
C213 C 0.60364 0.74314 0.26007 0.0
C214 C 0.69204 0.59416 0.31681 0.0
C215 C 0.5797 0.69484 0.85537 0.0
H216 H 0.44517 0.24003 0.09225 0.0
H217 H 0.4306 0.31724 0.90606 0.0
H218 H 0.526 0.48174 0.29802 0.0
H219 H 0.46672 0.4313 0.5342 0.0
H220 H 0.77706 0.77195 0.06248 0.0
H221 H 0.79994 0.68016 0.1928 0.0
H222 H 0.5687 0.66381 0.3765 0.0
H223 H 0.54747 0.75385 0.26905 0.0
Tb224 Tb 0.12939 0.60349 -0.0051 0.0
Tb225 Tb 1.06642 0.49669 0.15072 0.0
C226 C 1.0391 0.66366 0.38101 0.0
C227 C 0.14939 0.72834 0.76415 0.0
C228 C 0.23049 0.61541 0.54418 0.0
C229 C 0.26225 0.68585 0.57869 0.0
C230 C 0.2178 0.74444 0.67617 0.0
C231 C 0.11281 0.66828 0.66352 0.0
C232 C 0.15437 0.60835 0.56676 0.0
C233 C 0.15461 0.71811 0.93341 0.0
O234 O 0.23596 0.59027 0.07504 0.0
O235 O 0.18079 0.51231 0.20746 0.0
O236 O 0.12051 0.42572 0.87425 0.0
O237 O 0.14815 0.50406 0.72443 0.0
O238 O 1.0569 0.46341 0.37476 0.0
O239 O 1.01156 0.39896 0.13831 0.0
O240 O 0.97183 0.49884 0.03577 0.0
O241 O 1.01311 0.58808 0.92622 0.0
O242 O 0.10649 0.66146 0.29291 0.0
O243 O 1.00444 0.60098 0.3221 0.0
C244 C 0.24082 0.54951 0.17063 0.0
O245 O 0.09205 0.70261 0.02025 0.0
O246 O 0.20608 0.67426 0.91762 0.0
C247 C 0.14412 0.4355 0.71495 0.0
C248 C 0.96079 0.38716 0.42446 0.0
C249 C 0.86245 0.41491 0.74793 0.0
C250 C 0.92721 0.38302 0.73023 0.0
C251 C 0.97836 0.37571 0.57423 0.0
C252 C 0.88779 0.39649 0.42186 0.0
C253 C 0.83728 0.40816 0.58395 0.0
C254 C 1.02121 0.40477 0.30026 0.0
C255 C 0.95982 0.54152 0.95321 0.0
H256 H 0.32045 0.69574 0.54447 0.0
H257 H 0.24339 0.79698 0.72547 0.0
H258 H 1.0551 0.65934 0.70498 0.0
H259 H 0.12734 0.55774 0.5208 0.0
H260 H 0.94477 0.38165 0.84978 0.0
H261 H 1.03314 0.36934 0.58102 0.0
H262 H 0.87183 0.40384 0.30568 0.0
H263 H 0.78354 0.42601 0.58728 0.0
loop_
_geom_bond_atom_site_label_1
_geom_bond_atom_site_label_2
_geom_bond_distance
_geom_bond_site_symmetry_2
_ccdc_geom_bond_type
C0 N1 1.317 . S
C0 N2 1.348 . S
C0 C3 1.485 . S
N1 C0 1.317 . S
N1 N5 1.370 . S
N2 C0 1.348 . S
N2 C4 1.346 . S
C3 C0 1.485 . S
C3 H7 0.960 . S
C3 H8 0.961 1_556 S
C3 H9 0.960 1_556 S
C4 N2 1.346 . S
C4 N5 1.307 . S
C4 C6 1.486 . S
N5 N1 1.370 . S
N5 C4 1.307 . S
C6 C4 1.486 . S
C6 H10 0.960 . S
C6 H11 0.960 . S
C6 H12 0.959 . S
H7 C3 0.960 . S
H8 C3 0.961 1_554 S
H9 C3 0.960 1_554 S
H10 C6 0.960 . S
H11 C6 0.960 . S
H12 C6 0.959 . S
C13 N14 1.317 . S
C13 N15 1.348 . S
C13 C16 1.485 . S
N14 C13 1.317 . S
N14 N18 1.371 . S
N15 C13 1.348 . S
N15 C17 1.346 1_655 S
C16 C13 1.485 . S
C16 H20 0.960 1_655 S
C16 H21 0.961 . S
C16 H22 0.960 . S
C17 N15 1.346 1_455 S
C17 N18 1.308 1_455 S
C17 C19 1.486 . S
N18 N14 1.371 . S
N18 C17 1.308 1_655 S
C19 C17 1.486 . S
C19 H23 0.960 1_455 S
C19 H24 0.960 . S
C19 H25 0.959 . S
H20 C16 0.960 1_455 S
H21 C16 0.961 . S
H22 C16 0.960 . S
H23 C19 0.960 1_655 S
H24 C19 0.960 . S
H25 C19 0.959 . S
C26 N27 1.317 . S
C26 N28 1.348 . S
C26 C29 1.485 . S
N27 C26 1.317 . S
N27 N31 1.376 . S
N28 C26 1.348 . S
N28 C30 1.344 1_565 S
C29 C26 1.485 . S
C29 H33 0.960 1_565 S
C29 H34 0.961 . S
C29 H35 0.960 . S
C30 N28 1.344 1_545 S
C30 N31 1.301 1_545 S
C30 C32 1.490 . S
N31 N27 1.376 . S
N31 C30 1.301 1_565 S
C32 C30 1.490 . S
C32 H36 0.960 1_545 S
C32 H37 0.960 . S
C32 H38 0.959 . S
H33 C29 0.960 1_545 S
H34 C29 0.961 . S
H35 C29 0.960 . S
H36 C32 0.960 1_565 S
H37 C32 0.960 . S
H38 C32 0.959 . S
C39 N40 1.317 . S
C39 N41 1.348 1_554 S
C39 C42 1.485 . S
N40 C39 1.317 . S
N40 N44 1.370 1_554 S
N41 C39 1.348 1_556 S
N41 C43 1.346 . S
C42 C39 1.485 . S
C42 H46 0.960 . S
C42 H47 0.961 . S
C42 H48 0.960 . S
C43 N41 1.346 . S
C43 N44 1.307 . S
C43 C45 1.486 . S
N44 N40 1.370 1_556 S
N44 C43 1.307 . S
C45 C43 1.486 . S
C45 H49 0.960 . S
C45 H50 0.960 . S
C45 H51 0.959 . S
H46 C42 0.960 . S
H47 C42 0.961 . S
H48 C42 0.960 . S
H49 C45 0.960 . S
H50 C45 0.960 . S
H51 C45 0.959 . S
C52 N53 1.317 . S
C52 N54 1.348 . S
C52 C55 1.485 1_554 S
N53 C52 1.317 . S
N53 N57 1.370 . S
N54 C52 1.348 . S
N54 C56 1.346 . S
C55 C52 1.485 1_556 S
C55 H59 0.960 . S
C55 H60 0.961 . S
C55 H61 0.960 . S
C56 N54 1.346 . S
C56 N57 1.307 . S
C56 C58 1.486 . S
N57 N53 1.370 . S
N57 C56 1.307 . S
C58 C56 1.486 . S
C58 H62 0.960 . S
C58 H63 0.960 . S
C58 H64 0.959 . S
H59 C55 0.960 . S
H60 C55 0.961 . S
H61 C55 0.960 . S
H62 C58 0.960 . S
H63 C58 0.960 . S
H64 C58 0.959 . S
C65 N66 1.317 . S
C65 N67 1.348 . S
C65 C68 1.485 . S
N66 C65 1.317 . S
N66 N70 1.371 . S
N67 C65 1.348 . S
N67 C69 1.346 1_655 S
C68 C65 1.485 . S
C68 H72 0.960 1_654 S
C68 H73 0.961 . S
C68 H74 0.960 1_554 S
C69 N67 1.346 1_455 S
C69 N70 1.305 1_455 S
C69 C71 1.487 . S
N70 N66 1.371 . S
N70 C69 1.305 1_655 S
C71 C69 1.487 . S
C71 H75 0.960 1_455 S
C71 H76 0.960 . S
C71 H77 0.959 . S
H72 C68 0.960 1_456 S
H73 C68 0.961 . S
H74 C68 0.960 1_556 S
H75 C71 0.960 1_655 S
H76 C71 0.960 . S
H77 C71 0.959 . S
C78 N79 1.317 . S
C78 N80 1.348 . S
C78 C81 1.485 1_554 S
N79 C78 1.317 . S
N79 N83 1.367 . S
N80 C78 1.348 . S
N80 C82 1.348 1_565 S
C81 C78 1.485 1_556 S
C81 H85 0.960 1_565 S
C81 H86 0.961 . S
C81 H87 0.960 . S
C82 N80 1.348 1_545 S
C82 N83 1.313 1_545 S
C82 C84 1.481 . S
N83 N79 1.367 . S
N83 C82 1.313 1_565 S
C84 C82 1.481 . S
C84 H88 0.960 1_545 S
C84 H89 0.960 . S
C84 H90 0.959 . S
H85 C81 0.960 1_545 S
H86 C81 0.961 . S
H87 C81 0.960 . S
H88 C84 0.960 1_565 S
H89 C84 0.960 . S
H90 C84 0.959 . S
C91 N92 1.317 . S
C91 N93 1.348 . S
C91 C94 1.485 . S
N92 C91 1.317 . S
N92 N96 1.370 . S
N93 C91 1.348 . S
N93 C95 1.345 1_556 S
C94 C91 1.485 . S
C94 H98 0.960 . S
C94 H99 0.961 . S
C94 H100 0.960 . S
C95 N93 1.345 1_554 S
C95 N96 1.304 1_554 S
C95 C97 1.490 . S
N96 N92 1.370 . S
N96 C95 1.304 1_556 S
C97 C95 1.490 . S
C97 H101 0.960 . S
C97 H102 0.960 . S
C97 H103 0.959 . S
H98 C94 0.960 . S
H99 C94 0.961 . S
H100 C94 0.960 . S
H101 C97 0.960 . S
H102 C97 0.960 . S
H103 C97 0.959 . S
Tb104 C113 2.764 . S
Tb104 O114 2.325 1_556 S
Tb104 O117 2.303 1_645 S
Tb104 O121 2.322 1_545 S
Tb104 O122 2.349 1_556 S
Tb104 O125 2.415 . S
Tb104 O126 2.399 . S
Tb105 O115 2.322 1_565 S
Tb105 O116 2.349 1_554 S
Tb105 O118 2.415 . S
Tb105 O119 2.399 . S
Tb105 O120 2.325 1_554 S
Tb105 O123 2.303 1_465 S
Tb105 C134 2.764 . S
C106 O122 1.261 . S
C106 O123 1.257 . S
C107 C110 1.358 . S
C107 C111 1.332 . S
C107 C113 1.504 . S
C108 C109 1.373 . S
C108 C112 1.308 . S
C109 C108 1.373 . S
C109 C110 1.429 . S
C109 H136 0.932 . S
C110 C107 1.358 . S
C110 C109 1.429 . S
C110 H137 0.930 . S
C111 C107 1.332 . S
C111 C112 1.394 . S
C111 H138 0.932 . S
C112 C108 1.308 . S
C112 C111 1.394 . S
C112 H139 0.929 . S
C113 Tb104 2.764 . S
C113 C107 1.504 . S
C113 O125 1.239 . S
C113 O126 1.263 . S
O114 Tb104 2.325 1_554 S
O114 C124 1.236 1_655 S
O115 Tb105 2.322 1_545 S
O115 C124 1.257 . S
O116 Tb105 2.349 1_556 S
O116 C127 1.261 . S
O117 Tb104 2.303 1_465 S
O117 C127 1.257 . S
O118 Tb105 2.415 . S
O118 C134 1.239 . S
O119 Tb105 2.399 . S
O119 C134 1.263 . S
O120 Tb105 2.325 1_556 S
O120 C135 1.236 1_455 S
O121 Tb104 2.322 1_565 S
O121 C135 1.257 . S
O122 Tb104 2.349 1_554 S
O122 C106 1.261 . S
O123 Tb105 2.303 1_645 S
O123 C106 1.257 . S
C124 O114 1.236 1_455 S
C124 O115 1.257 . S
O125 Tb104 2.415 . S
O125 C113 1.239 . S
O126 Tb104 2.399 . S
O126 C113 1.263 . S
C127 O116 1.261 . S
C127 O117 1.257 . S
C128 C131 1.358 . S
C128 C132 1.332 . S
C128 C134 1.504 . S
C129 C130 1.373 . S
C129 C133 1.308 . S
C130 C129 1.373 . S
C130 C131 1.429 . S
C130 H140 0.932 . S
C131 C128 1.358 . S
C131 C130 1.429 . S
C131 H141 0.930 . S
C132 C128 1.332 . S
C132 C133 1.394 . S
C132 H142 0.932 . S
C133 C129 1.308 . S
C133 C132 1.394 . S
C133 H143 0.929 . S
C134 Tb105 2.764 . S
C134 O118 1.239 . S
C134 O119 1.263 . S
C134 C128 1.504 . S
C135 O120 1.236 1_655 S
C135 O121 1.257 . S
H136 C109 0.932 . S
H137 C110 0.930 . S
H138 C111 0.932 . S
H139 C112 0.929 . S
H140 C130 0.932 . S
H141 C131 0.930 . S
H142 C132 0.932 . S
H143 C133 0.929 . S
Tb144 C153 2.764 . S
Tb144 O154 2.325 . S
Tb144 O157 2.303 1_565 S
Tb144 O161 2.322 . S
Tb144 O162 2.349 . S
Tb144 O165 2.414 1_565 S
Tb144 O166 2.399 . S
Tb145 O155 2.322 . S
Tb145 O156 2.349 . S
Tb145 O158 2.416 1_545 S
Tb145 O159 2.399 . S
Tb145 O160 2.325 1_554 S
Tb145 O163 2.303 1_544 S
Tb145 C174 2.764 . S
C146 O162 1.261 . S
C146 O163 1.257 . S
C147 C150 1.358 . S
C147 C151 1.332 . S
C147 C153 1.504 . S
C148 C149 1.373 . S
C148 C152 1.308 . S
C149 C148 1.373 . S
C149 C150 1.429 . S
C149 H176 0.932 . S
C150 C147 1.358 . S
C150 C149 1.429 . S
C150 H177 0.930 . S
C151 C147 1.332 . S
C151 C152 1.394 . S
C151 H178 0.932 1_565 S
C152 C148 1.308 . S
C152 C151 1.394 . S
C152 H179 0.929 1_565 S
C153 Tb144 2.764 . S
C153 C147 1.504 . S
C153 O165 1.237 1_565 S
C153 O166 1.263 . S
O154 Tb144 2.325 . S
O154 C164 1.236 1_566 S
O155 Tb145 2.322 . S
O155 C164 1.257 . S
O156 Tb145 2.349 . S
O156 C167 1.261 1_554 S
O157 Tb144 2.303 1_545 S
O157 C167 1.257 . S
O158 Tb145 2.416 1_565 S
O158 C174 1.240 1_565 S
O159 Tb145 2.399 . S
O159 C174 1.263 . S
O160 Tb145 2.325 1_556 S
O160 C175 1.236 1_545 S
O161 Tb144 2.322 . S
O161 C175 1.257 . S
O162 Tb144 2.349 . S
O162 C146 1.261 . S
O163 Tb145 2.303 1_566 S
O163 C146 1.257 . S
C164 O154 1.236 1_544 S
C164 O155 1.257 . S
O165 Tb144 2.414 1_545 S
O165 C153 1.237 1_545 S
O166 Tb144 2.399 . S
O166 C153 1.263 . S
C167 O156 1.261 1_556 S
C167 O157 1.257 . S
C168 C171 1.358 . S
C168 C172 1.332 . S
C168 C174 1.504 . S
C169 C170 1.373 . S
C169 C173 1.308 . S
C170 C169 1.373 . S
C170 C171 1.429 . S
C170 H180 0.932 . S
C171 C168 1.358 . S
C171 C170 1.429 . S
C171 H181 0.930 . S
C172 C168 1.332 . S
C172 C173 1.394 . S
C172 H182 0.932 1_545 S
C173 C169 1.308 . S
C173 C172 1.394 . S
C173 H183 0.929 1_545 S
C174 Tb145 2.764 . S
C174 O158 1.240 1_545 S
C174 O159 1.263 . S
C174 C168 1.504 . S
C175 O160 1.236 1_565 S
C175 O161 1.257 . S
H176 C149 0.932 . S
H177 C150 0.930 . S
H178 C151 0.932 1_545 S
H179 C152 0.929 1_545 S
H180 C170 0.932 . S
H181 C171 0.930 . S
H182 C172 0.932 1_565 S
H183 C173 0.929 1_565 S
Tb184 C193 2.764 . S
Tb184 O194 2.325 1_554 S
Tb184 O197 2.303 . S
Tb184 O201 2.322 . S
Tb184 O202 2.349 1_554 S
Tb184 O205 2.415 . S
Tb184 O206 2.399 . S
Tb185 O195 2.322 . S
Tb185 O196 2.349 . S
Tb185 O198 2.415 . S
Tb185 O199 2.399 . S
Tb185 O200 2.325 . S
Tb185 O203 2.303 . S
Tb185 C214 2.764 . S
C186 O202 1.261 . S
C186 O203 1.257 . S
C187 C190 1.358 . S
C187 C191 1.332 . S
C187 C193 1.504 . S
C188 C189 1.373 . S
C188 C192 1.308 . S
C189 C188 1.373 . S
C189 C190 1.429 . S
C189 H216 0.932 . S
C190 C187 1.358 . S
C190 C189 1.429 . S
C190 H217 0.930 . S
C191 C187 1.332 . S
C191 C192 1.394 . S
C191 H218 0.932 . S
C192 C188 1.308 . S
C192 C191 1.394 . S
C192 H219 0.929 . S
C193 Tb184 2.764 . S
C193 C187 1.504 . S
C193 O205 1.239 . S
C193 O206 1.263 . S
O194 Tb184 2.325 1_556 S
O194 C204 1.236 . S
O195 Tb185 2.322 . S
O195 C204 1.257 . S
O196 Tb185 2.349 . S
O196 C207 1.261 1_556 S
O197 Tb184 2.303 . S
O197 C207 1.257 . S
O198 Tb185 2.415 . S
O198 C214 1.239 . S
O199 Tb185 2.399 . S
O199 C214 1.263 . S
O200 Tb185 2.325 . S
O200 C215 1.236 . S
O201 Tb184 2.322 . S
O201 C215 1.257 1_554 S
O202 Tb184 2.349 1_556 S
O202 C186 1.261 . S
O203 Tb185 2.303 . S
O203 C186 1.257 . S
C204 O194 1.236 . S
C204 O195 1.257 . S
O205 Tb184 2.415 . S
O205 C193 1.239 . S
O206 Tb184 2.399 . S
O206 C193 1.263 . S
C207 O196 1.261 1_554 S
C207 O197 1.257 . S
C208 C211 1.358 . S
C208 C212 1.332 . S
C208 C214 1.504 . S
C209 C210 1.373 . S
C209 C213 1.308 . S
C210 C209 1.373 . S
C210 C211 1.429 . S
C210 H220 0.932 . S
C211 C208 1.358 . S
C211 C210 1.429 . S
C211 H221 0.930 . S
C212 C208 1.332 . S
C212 C213 1.394 . S
C212 H222 0.932 . S
C213 C209 1.308 . S
C213 C212 1.394 . S
C213 H223 0.929 . S
C214 Tb185 2.764 . S
C214 O198 1.239 . S
C214 O199 1.263 . S
C214 C208 1.504 . S
C215 O200 1.236 . S
C215 O201 1.257 1_556 S
H216 C189 0.932 . S
H217 C190 0.930 . S
H218 C191 0.932 . S
H219 C192 0.929 . S
H220 C210 0.932 . S
H221 C211 0.930 . S
H222 C212 0.932 . S
H223 C213 0.929 . S
Tb224 C233 2.764 . S
Tb224 O234 2.325 . S
Tb224 O237 2.303 . S
Tb224 O241 2.322 1_455 S
Tb224 O242 2.349 1_556 S
Tb224 O245 2.415 . S
Tb224 O246 2.399 . S
Tb225 O235 2.322 1_655 S
Tb225 O236 2.349 1_554 S
Tb225 O238 2.415 . S
Tb225 O239 2.399 . S
Tb225 O240 2.325 1_554 S
Tb225 O243 2.303 . S
Tb225 C254 2.764 . S
C226 O242 1.261 . S
C226 O243 1.257 1_455 S
C227 C230 1.358 . S
C227 C231 1.332 . S
C227 C233 1.504 . S
C228 C229 1.373 . S
C228 C232 1.308 . S
C229 C228 1.373 . S
C229 C230 1.429 . S
C229 H256 0.932 . S
C230 C227 1.358 . S
C230 C229 1.429 . S
C230 H257 0.930 . S
C231 C227 1.332 . S
C231 C232 1.394 . S
C231 H258 0.932 . S
C232 C228 1.308 . S
C232 C231 1.394 . S
C232 H259 0.929 . S
C233 Tb224 2.764 . S
C233 C227 1.504 . S
C233 O245 1.239 . S
C233 O246 1.263 . S
O234 Tb224 2.325 . S
O234 C244 1.236 . S
O235 Tb225 2.322 1_455 S
O235 C244 1.257 1_554 S
O236 Tb225 2.349 1_556 S
O236 C247 1.261 . S
O237 Tb224 2.303 . S
O237 C247 1.257 1_455 S
O238 Tb225 2.415 . S
O238 C254 1.239 . S
O239 Tb225 2.399 . S
O239 C254 1.263 . S
O240 Tb225 2.325 1_556 S
O240 C255 1.236 . S
O241 Tb224 2.322 1_655 S
O241 C255 1.257 . S
O242 Tb224 2.349 1_554 S
O242 C226 1.261 . S
O243 Tb225 2.303 . S
O243 C226 1.257 1_655 S
C244 O234 1.236 . S
C244 O235 1.257 1_556 S
O245 Tb224 2.415 . S
O245 C233 1.239 . S
O246 Tb224 2.399 . S
O246 C233 1.263 . S
C247 O236 1.261 . S
C247 O237 1.257 1_655 S
C248 C251 1.358 . S
C248 C252 1.332 . S
C248 C254 1.504 . S
C249 C250 1.373 . S
C249 C253 1.308 . S
C250 C249 1.373 . S
C250 C251 1.429 . S
C250 H260 0.932 . S
C251 C248 1.358 . S
C251 C250 1.429 . S
C251 H261 0.930 . S
C252 C248 1.332 . S
C252 C253 1.394 . S
C252 H262 0.932 . S
C253 C249 1.308 . S
C253 C252 1.394 . S
C253 H263 0.929 . S
C254 Tb225 2.764 . S
C254 O238 1.239 . S
C254 O239 1.263 . S
C254 C248 1.504 . S
C255 O240 1.236 . S
C255 O241 1.257 . S
H256 C229 0.932 . S
H257 C230 0.930 . S
H258 C231 0.932 . S
H259 C232 0.929 . S
H260 C250 0.932 . S
H261 C251 0.930 . S
H262 C252 0.932 . S
H263 C253 0.929 . S
N80 C127 3.799 . S
C167 N93 2.380 . S
C186 N54 3.724 . S
C247 N67 2.206 . S
C106 N28 3.808 1_545 S
N41 C146 2.412 . S
N2 C207 3.747 . S
N15 C226 2.210 1_655 S
C108 N70 3.328 . S
C148 N83 1.603 . S
C204 N96 2.177 . S
N57 C228 1.905 . S
N18 C129 3.336 1_655 S
C169 N31 1.613 1_545 S
C215 N44 2.191 . S
N5 C249 1.926 . S
N66 C124 2.684 1_655 S
N79 C164 4.152 1_565 S
C188 N92 3.727 . S
C244 N53 4.061 1_556 S
N14 C135 2.663 . S
C175 N27 4.141 . S
C209 N40 3.610 . S
N1 C255 4.079 . S
