# Generated by pormake.
# Topology tsx, (6,3)-cn, num edge types: 1
# Building blocks:
#     Node 0, Type 0, BuildingBlock: JUFBIX_clean_sbu_0, # of connection points: 6
#     Node 1, Type 0, BuildingBlock: JUFBIX_clean_sbu_0, # of connection points: 6
#     Node 2, Type 1, BuildingBlock: BELTOD_clean_linker_0, # of connection points: 3
#     Node 3, Type 1, BuildingBlock: BELTOD_clean_linker_0, # of connection points: 3
#     Node 4, Type 1, BuildingBlock: BELTOD_clean_linker_0, # of connection points: 3
#     Node 5, Type 1, BuildingBlock: BELTOD_clean_linker_0, # of connection points: 3
#     Edge 6, Type (0, 1), BuildingBlock: TEMPAE_clean_linker_10, # of connection points: 2
#     Edge 7, Type (0, 1), BuildingBlock: TEMPAE_clean_linker_10, # of connection points: 2
#     Edge 8, Type (0, 1), BuildingBlock: TEMPAE_clean_linker_10, # of connection points: 2
#     Edge 9, Type (0, 1), BuildingBlock: TEMPAE_clean_linker_10, # of connection points: 2
#     Edge 10, Type (0, 1), BuildingBlock: TEMPAE_clean_linker_10, # of connection points: 2
#     Edge 11, Type (0, 1), BuildingBlock: TEMPAE_clean_linker_10, # of connection points: 2
#     Edge 12, Type (0, 1), BuildingBlock: TEMPAE_clean_linker_10, # of connection points: 2
#     Edge 13, Type (0, 1), BuildingBlock: TEMPAE_clean_linker_10, # of connection points: 2
#     Edge 14, Type (0, 1), BuildingBlock: TEMPAE_clean_linker_10, # of connection points: 2
#     Edge 15, Type (0, 1), BuildingBlock: TEMPAE_clean_linker_10, # of connection points: 2
#     Edge 16, Type (0, 1), BuildingBlock: TEMPAE_clean_linker_10, # of connection points: 2
#     Edge 17, Type (0, 1), BuildingBlock: TEMPAE_clean_linker_10, # of connection points: 2
# Relax obj value: 0.144
# Max RMSD: 0.160
# Mean RMSD: 0.126
data_MOF--net-tsx--node1-JUFBIX_clean_sbu_0--node2-BELTOD_clean_linker_0--edge1-TEMPAE_clean_linker_10
_symmetry_space_group_name_H-M    P1
_symmetry_Int_Tables_number       1
_symmetry_cell_setting            triclinic
loop_
_symmetry_equiv_pos_as_xyz
'x, y, z'
_cell_length_a     22.701353
_cell_length_b     26.874387
_cell_length_c     40.166917
_cell_angle_alpha  92.959942
_cell_angle_beta   89.605057
_cell_angle_gamma 98.602052
loop_
_atom_site_label
_atom_site_type_symbol
_atom_site_fract_x
_atom_site_fract_y
_atom_site_fract_z
_atom_type_partial_charge
Co0 Co 0.04194 0.98749 0.01348 0.0
C1 C 0.99552 0.00613 0.95146 0.0
Co2 Co 0.96278 0.02648 0.01584 0.0
C3 C 0.12147 0.91278 0.01918 0.0
C4 C 0.15803 0.9747 0.99023 0.0
N5 N 0.10984 0.95709 0.00831 0.0
N6 N 0.17513 0.90221 0.0086 0.0
C7 C 0.19811 0.94126 0.99042 0.0
H8 H 0.09086 0.8885 0.0342 0.0
H9 H 0.163 0.00899 0.97686 0.0
C10 C 0.01059 0.00735 0.07783 0.0
N11 N 0.89478 0.05657 0.02108 0.0
C12 C 0.87914 0.09655 0.00613 0.0
C13 C 0.85163 0.04443 0.04384 0.0
N14 N 0.82844 0.1099 0.01906 0.0
C15 C 0.81109 0.07752 0.04286 0.0
C16 C 0.93733 0.92168 0.01374 0.0
O17 O 0.04927 0.98853 0.06027 0.0
O18 O 0.96913 0.02515 0.06345 0.0
O19 O 0.91499 0.9623 0.01438 0.0
O20 O 0.99358 0.92367 0.01366 0.0
O21 O 0.9577 0.02734 0.96837 0.0
H22 H 0.85071 0.01434 0.0608 0.0
H23 H 0.90563 0.11677 0.98722 0.0
O24 O 0.03463 0.98663 0.96662 0.0
O25 O 0.0892 0.05176 0.01357 0.0
O26 O 0.01105 0.09075 0.01705 0.0
C27 C 0.06724 0.09259 0.01545 0.0
H28 H 0.23989 0.9445 0.97698 0.0
H29 H 0.77251 0.07845 0.05875 0.0
Co30 Co 0.52508 0.48423 0.51179 0.0
C31 C 0.47725 0.50593 0.45078 0.0
Co32 Co 0.44734 0.5253 0.51561 0.0
C33 C 0.60935 0.41143 0.51683 0.0
C34 C 0.6373 0.47109 0.48428 0.0
N35 N 0.5928 0.45353 0.50495 0.0
N36 N 0.66276 0.40262 0.5045 0.0
C37 C 0.68006 0.44017 0.48399 0.0
H38 H 0.5828 0.38781 0.53409 0.0
H39 H 0.63817 0.50401 0.46978 0.0
C40 C 0.49606 0.5032 0.57657 0.0
N41 N 0.38018 0.55701 0.52179 0.0
C42 C 0.36937 0.60162 0.51094 0.0
C43 C 0.33237 0.54063 0.54051 0.0
N44 N 0.31685 0.61386 0.52237 0.0
C45 C 0.29349 0.57529 0.54088 0.0
C46 C 0.42005 0.41968 0.51252 0.0
O47 O 0.53408 0.48447 0.55837 0.0
O48 O 0.45431 0.52176 0.56295 0.0
O49 O 0.3982 0.46069 0.51323 0.0
O50 O 0.47625 0.42106 0.51215 0.0
O51 O 0.44153 0.52841 0.46841 0.0
H52 H 0.3266 0.50605 0.55359 0.0
H53 H 0.40037 0.62535 0.4958 0.0
O54 O 0.51545 0.4843 0.46509 0.0
O55 O 0.57326 0.54783 0.51195 0.0
O56 O 0.49744 0.58917 0.51783 0.0
C57 C 0.55331 0.58943 0.51538 0.0
H58 H 0.72008 0.44426 0.46895 0.0
H59 H 0.25127 0.57221 0.55385 0.0
P60 P 0.08714 0.07507 0.44215 0.0
H61 H 0.07335 0.15062 0.4953 0.0
H62 H 0.98743 0.18758 0.51598 0.0
H63 H 0.87153 0.08004 0.45345 0.0
H64 H 0.95765 0.04287 0.43306 0.0
H65 H 0.20322 0.04369 0.44699 0.0
H66 H 0.23681 0.96782 0.46558 0.0
H67 H 0.05545 0.90739 0.4899 0.0
H68 H 0.02224 0.98454 0.47202 0.0
H69 H 0.12825 0.13395 0.38502 0.0
H70 H 0.01998 0.99144 0.4017 0.0
O71 O 0.14306 0.12267 0.44762 0.0
H72 H 0.11346 0.11948 0.32531 0.0
H73 H 1.00065 0.97828 0.34196 0.0
C74 C 0.02225 0.09461 0.46209 0.0
C75 C 0.02937 0.13419 0.48654 0.0
C76 C 0.98008 0.1552 0.4985 0.0
C77 C 0.92271 0.13712 0.48604 0.0
C78 C 0.91529 0.09524 0.46315 0.0
C79 C 0.96463 0.07396 0.45145 0.0
C80 C 0.11051 0.02036 0.45898 0.0
C81 C 0.17081 0.01473 0.45718 0.0
C82 C 0.18998 0.97119 0.46779 0.0
C83 C 0.14897 0.9317 0.47979 0.0
C84 C 0.08826 0.93725 0.48121 0.0
C85 C 0.06921 0.98137 0.47103 0.0
C86 C 0.07519 0.06381 0.39789 0.0
C87 C 0.10071 0.09966 0.37586 0.0
C88 C 0.09151 0.09154 0.34154 0.0
C89 C 0.05525 0.04785 0.32845 0.0
C90 C 0.02952 0.01205 0.35082 0.0
C91 C 0.03995 0.01975 0.38514 0.0
P92 P 0.07065 0.94263 0.58968 0.0
H93 H 0.03207 0.86118 0.54011 0.0
H94 H 0.9335 0.8217 0.52061 0.0
H95 H 0.85264 0.92946 0.58216 0.0
H96 H 0.95162 0.96942 0.60118 0.0
H97 H 0.18818 0.97106 0.56012 0.0
H98 H 0.23742 0.04977 0.53825 0.0
H99 H 0.07575 0.11477 0.55283 0.0
H100 H 0.02598 0.03527 0.57358 0.0
H101 H 0.03145 0.87786 0.64349 0.0
H102 H 0.08674 0.0369 0.63278 0.0
O103 O 0.11493 0.89839 0.58542 0.0
H104 H 0.01228 0.89408 0.70266 0.0
H105 H 0.06529 0.05365 0.69139 0.0
C106 C 0.99899 0.91792 0.57221 0.0
C107 C 0.99327 0.87703 0.54883 0.0
C108 C 0.93695 0.85466 0.53759 0.0
C109 C 0.8855 0.87255 0.54994 0.0
C110 C 0.89161 0.91487 0.57237 0.0
C111 C 0.94805 0.93764 0.58323 0.0
C112 C 0.10351 0.99743 0.5686 0.0
C113 C 0.16284 0.00178 0.55788 0.0
C114 C 0.19094 0.04675 0.54532 0.0
C115 C 0.16041 0.08838 0.54398 0.0
C116 C 0.10025 0.08324 0.55357 0.0
C117 C 0.0718 0.03785 0.56539 0.0
C118 C 0.06064 0.95599 0.63365 0.0
C119 C 0.03945 0.91629 0.65388 0.0
C120 C 0.02782 0.92573 0.68763 0.0
C121 C 0.03671 0.97528 0.70182 0.0
C122 C 0.0584 0.015 0.68142 0.0
C123 C 0.07037 0.00543 0.64768 0.0
P124 P 0.56701 0.5565 0.94179 0.0
H125 H 0.55037 0.62113 1.0001 0.0
H126 H 0.46496 0.65803 0.0213 0.0
H127 H 0.35193 0.56584 0.94879 0.0
H128 H 0.43759 0.52888 0.92784 0.0
H129 H 0.68193 0.53979 0.96671 0.0
H130 H 0.72034 0.46589 0.98354 0.0
H131 H 0.54703 0.37692 0.96584 0.0
H132 H 0.5073 0.45328 0.95298 0.0
H133 H 0.61677 0.6158 0.88633 0.0
H134 H 0.49779 0.47694 0.89837 0.0
O135 O 0.62062 0.60558 0.94903 0.0
H136 H 0.60578 0.6043 0.82621 0.0
H137 H 0.48293 0.46703 0.83844 0.0
C138 C 0.5009 0.57309 0.96189 0.0
C139 C 0.50696 0.60773 0.98938 0.0
C140 C 0.45791 0.62871 0.00158 0.0
C141 C 0.40178 0.61541 0.98636 0.0
C142 C 0.39485 0.57745 0.96063 0.0
C143 C 0.44402 0.55628 0.94859 0.0
C144 C 0.59182 0.50216 0.95829 0.0
C145 C 0.65167 0.50476 0.96725 0.0
C146 C 0.674 0.46183 0.97623 0.0
C147 C 0.63761 0.41453 0.97507 0.0
C148 C 0.57678 0.4124 0.96715 0.0
C149 C 0.55397 0.45604 0.95932 0.0
C150 C 0.55794 0.5474 0.89712 0.0
C151 C 0.58776 0.58299 0.87615 0.0
C152 C 0.58088 0.5766 0.84158 0.0
C153 C 0.54299 0.53489 0.82716 0.0
C154 C 0.51321 0.49925 0.84838 0.0
C155 C 0.52118 0.50518 0.88291 0.0
P156 P 0.56426 0.45502 0.09016 0.0
H157 H 0.53021 0.38284 0.03466 0.0
H158 H 0.43315 0.34352 0.01292 0.0
H159 H 0.34722 0.44261 0.07893 0.0
H160 H 0.44476 0.48175 0.10047 0.0
H161 H 0.67988 0.47621 0.05711 0.0
H162 H 0.73505 0.5536 0.0363 0.0
H163 H 0.58635 0.63186 0.06063 0.0
H164 H 0.53036 0.55379 0.08046 0.0
H165 H 0.50345 0.39238 0.14021 0.0
H166 H 0.59621 0.54431 0.13671 0.0
O167 O 0.6061 0.40896 0.0867 0.0
H168 H 0.48183 0.40742 0.19917 0.0
H169 H 0.57199 0.56057 0.19496 0.0
C170 C 0.49427 0.43388 0.06979 0.0
C171 C 0.49054 0.39669 0.04391 0.0
C172 C 0.43505 0.37461 0.03134 0.0
C173 C 0.38254 0.38958 0.0446 0.0
C174 C 0.38693 0.42988 0.06864 0.0
C175 C 0.44255 0.45213 0.08099 0.0
C176 C 0.60139 0.50962 0.07067 0.0
C177 C 0.65867 0.50973 0.05745 0.0
C178 C 0.69009 0.55385 0.04547 0.0
C179 C 0.66484 0.59849 0.04701 0.0
C180 C 0.60665 0.5978 0.05924 0.0
C181 C 0.57473 0.55337 0.07048 0.0
C182 C 0.55074 0.46728 0.13388 0.0
C183 C 0.51873 0.42913 0.15208 0.0
C184 C 0.50583 0.43801 0.18572 0.0
C185 C 0.52449 0.48547 0.20183 0.0
C186 C 0.55719 0.52349 0.18349 0.0
C187 C 0.57059 0.51435 0.14991 0.0
C188 C 0.1687 0.14217 0.02087 0.0
C189 C 0.10734 0.14132 0.01654 0.0
C190 C 0.20776 0.18768 0.02321 0.0
C191 C 0.18508 0.23364 0.02074 0.0
C192 C 0.12338 0.23315 0.01552 0.0
C193 C 0.08504 0.18689 0.01372 0.0
C194 C 0.27323 0.18654 0.02913 0.0
C195 C 0.0979 0.28143 0.01232 0.0
C196 C 0.28706 0.34131 0.06348 0.0
C197 C 0.32431 0.35821 0.0371 0.0
C198 C 0.23832 0.30322 0.05807 0.0
C199 C 0.22635 0.28182 0.02544 0.0
C200 C 0.26064 0.30179 0.99831 0.0
C201 C 0.30964 0.33958 0.0045 0.0
C202 C 0.20324 0.28274 0.08775 0.0
C203 C 0.24847 0.28063 0.96308 0.0
H204 H 0.18631 0.10714 0.0231 0.0
H205 H 0.03766 0.18642 0.01014 0.0
H206 H 0.30021 0.20571 0.00909 0.0
H207 H 0.28728 0.20723 0.05308 0.0
H208 H 0.28368 0.14754 0.03 0.0
H209 H 0.04975 0.2744 0.00589 0.0
H210 H 0.10368 0.30441 0.03613 0.0
H211 H 0.12226 0.30413 0.99286 0.0
H212 H 0.29854 0.35519 0.08878 0.0
H213 H 0.33801 0.35303 0.98402 0.0
H214 H 0.2149 0.24516 0.09274 0.0
H215 H 0.15472 0.27773 0.08263 0.0
H216 H 0.21273 0.30774 0.11058 0.0
H217 H 0.2642 0.24352 0.95996 0.0
H218 H 0.27165 0.30582 0.94446 0.0
H219 H 0.19997 0.27456 0.95775 0.0
C220 C 0.16505 0.81029 0.01572 0.0
C221 C 0.20107 0.85708 0.01275 0.0
C222 C 0.19019 0.76548 0.01559 0.0
C223 C 0.25265 0.76766 0.01218 0.0
C224 C 0.2893 0.81503 0.01097 0.0
C225 C 0.26309 0.85904 0.01145 0.0
C226 C 0.1497 0.71577 0.01744 0.0
C227 C 0.35616 0.8192 0.00745 0.0
C228 C 0.34255 0.66265 0.02681 0.0
C229 C 0.35381 0.64634 0.99395 0.0
C230 C 0.30552 0.69948 0.03347 0.0
C231 C 0.27999 0.72091 0.00659 0.0
C232 C 0.28795 0.70204 0.97356 0.0
C233 C 0.32458 0.6649 0.96767 0.0
C234 C 0.29698 0.71776 0.06908 0.0
C235 C 0.26182 0.72395 0.94413 0.0
H236 H 0.11708 0.80838 0.01666 0.0
H237 H 0.29125 0.89513 0.00998 0.0
H238 H 0.1472 0.69556 0.99258 0.0
H239 H 0.16766 0.69147 0.03516 0.0
H240 H 0.10384 0.72085 0.02525 0.0
H241 H 0.3785 0.85896 0.00868 0.0
H242 H 0.37472 0.79903 0.02738 0.0
H243 H 0.36727 0.80116 0.9832 0.0
H244 H 0.36447 0.64796 0.04725 0.0
H245 H 0.33353 0.65296 0.94218 0.0
H246 H 0.24978 0.72224 0.07373 0.0
H247 H 0.32434 0.75523 0.07381 0.0
H248 H 0.31051 0.6916 0.08713 0.0
H249 H 0.21387 0.72598 0.94827 0.0
H250 H 0.26667 0.70155 0.92051 0.0
H251 H 0.28474 0.76297 0.94124 0.0
C252 C 0.91912 0.83044 0.02546 0.0
C253 C 0.89792 0.8729 0.01413 0.0
C254 C 0.88066 0.78497 0.02856 0.0
C255 C 0.82001 0.78182 0.01943 0.0
C256 C 0.79906 0.82394 0.00654 0.0
C257 C 0.83817 0.86922 0.00439 0.0
C258 C 0.90436 0.74101 0.04289 0.0
C259 C 0.73502 0.82157 0.99582 0.0
C260 C 0.73162 0.65065 0.00825 0.0
C261 C 0.70118 0.64643 0.03865 0.0
C262 C 0.76923 0.69514 0.00115 0.0
C263 C 0.77768 0.73557 0.02548 0.0
C264 C 0.74664 0.73153 0.05615 0.0
C265 C 0.70821 0.68711 0.06221 0.0
C266 C 0.80045 0.69864 0.96786 0.0
C267 C 0.75529 0.77354 0.08294 0.0
H268 H 0.96529 0.83325 0.03306 0.0
H269 H 0.82183 0.9019 0.99527 0.0
H270 H 0.8818 0.73204 0.06691 0.0
H271 H 0.8945 0.70701 0.02585 0.0
H272 H 0.9532 0.74889 0.0473 0.0
H273 H 0.72727 0.85607 0.98346 0.0
H274 H 0.7219 0.78841 0.9784 0.0
H275 H 0.70537 0.81696 0.01787 0.0
H276 H 0.72613 0.61912 0.9901 0.0
H277 H 0.68521 0.68346 0.08591 0.0
H278 H 0.84927 0.70187 0.97154 0.0
H279 H 0.79196 0.733 0.95565 0.0
H280 H 0.78571 0.66527 0.95082 0.0
H281 H 0.80282 0.78131 0.09055 0.0
H282 H 0.72769 0.76435 0.10537 0.0
H283 H 0.74367 0.80868 0.07315 0.0
C284 C 0.77674 0.15653 0.98045 0.0
C285 C 0.80151 0.15299 0.01183 0.0
C286 C 0.74732 0.19735 0.97376 0.0
C287 C 0.74456 0.23606 0.99884 0.0
C288 C 0.77064 0.2328 0.03044 0.0
C289 C 0.79799 0.19078 0.0367 0.0
C290 C 0.71867 0.19881 0.9401 0.0
C291 C 0.77037 0.27399 0.05745 0.0
C292 C 0.72341 0.3651 0.97138 0.0
C293 C 0.66408 0.36792 0.9807 0.0
C294 C 0.75009 0.32265 0.97735 0.0
C295 C 0.71614 0.28081 0.99179 0.0
C296 C 0.65577 0.28236 1.00023 0.0
C297 C 0.6307 0.32608 0.995 0.0
C298 C 0.815 0.32293 0.96861 0.0
C299 C 0.61772 0.23791 0.01495 0.0
H300 H 0.77925 0.12667 0.96153 0.0
H301 H 0.8175 0.18754 0.0609 0.0
H302 H 0.67077 0.20207 0.94326 0.0
H303 H 0.7397 0.23245 0.92719 0.0
H304 H 0.72259 0.16468 0.9239 0.0
H305 H 0.79356 0.26604 0.08042 0.0
H306 H 0.79246 0.31039 0.0483 0.0
H307 H 0.7239 0.27866 0.06398 0.0
H308 H 0.7494 0.39607 0.95918 0.0
H309 H 0.58508 0.3274 0.00248 0.0
H310 H 0.8197 0.29193 0.94992 0.0
H311 H 0.8403 0.31634 0.9911 0.0
H312 H 0.83565 0.35908 0.9584 0.0
H313 H 0.61917 0.20337 0.99877 0.0
H314 H 0.57053 0.24379 0.01803 0.0
H315 H 0.6355 0.2311 0.03969 0.0
C316 C 0.65646 0.63467 0.52278 0.0
C317 C 0.59581 0.63686 0.51789 0.0
C318 C 0.69803 0.67854 0.52648 0.0
C319 C 0.6788 0.72605 0.52475 0.0
C320 C 0.61784 0.72874 0.51915 0.0
C321 C 0.5768 0.68397 0.51606 0.0
C322 C 0.76251 0.67391 0.53285 0.0
C323 C 0.59607 0.77878 0.51663 0.0
C324 C 0.78752 0.82815 0.56853 0.0
C325 C 0.82607 0.84338 0.54235 0.0
C326 C 0.73633 0.79262 0.56277 0.0
C327 C 0.72316 0.77236 0.52996 0.0
C328 C 0.7592 0.7909 0.50307 0.0
C329 C 0.8107 0.82588 0.50963 0.0
C330 C 0.6996 0.77343 0.59221 0.0
C331 C 0.74597 0.771 0.46767 0.0
H332 H 0.67156 0.59845 0.52438 0.0
H333 H 0.53001 0.68585 0.51212 0.0
H334 H 0.79117 0.69201 0.51306 0.0
H335 H 0.77729 0.69376 0.55695 0.0
H336 H 0.76997 0.63406 0.53363 0.0
H337 H 0.54787 0.77432 0.51046 0.0
H338 H 0.60375 0.80117 0.5406 0.0
H339 H 0.62161 0.80076 0.49723 0.0
H340 H 0.79957 0.84134 0.5939 0.0
H341 H 0.84019 0.83811 0.48933 0.0
H342 H 0.70823 0.73485 0.597 0.0
H343 H 0.65135 0.77103 0.58694 0.0
H344 H 0.7105 0.79779 0.61519 0.0
H345 H 0.75835 0.73265 0.46425 0.0
H346 H 0.77131 0.79536 0.44931 0.0
H347 H 0.69769 0.76796 0.46221 0.0
C348 C 0.66432 0.31281 0.51556 0.0
C349 C 0.69464 0.36106 0.50984 0.0
C350 C 0.69519 0.27108 0.51617 0.0
C351 C 0.75758 0.27789 0.5107 0.0
C352 C 0.7886 0.32697 0.50676 0.0
C353 C 0.75686 0.36781 0.50665 0.0
C354 C 0.66068 0.21951 0.52111 0.0
C355 C 0.85509 0.33617 0.50091 0.0
C356 C 0.86345 0.18472 0.52634 0.0
C357 C 0.87262 0.16574 0.49381 0.0
C358 C 0.82228 0.21829 0.53278 0.0
C359 C 0.79047 0.23396 0.50598 0.0
C360 C 0.79705 0.21257 0.47343 0.0
C361 C 0.83777 0.17859 0.4678 0.0
C362 C 0.81554 0.23925 0.56795 0.0
C363 C 0.76452 0.2285 0.44404 0.0
H364 H 0.61628 0.30727 0.51806 0.0
H365 H 0.78078 0.40516 0.50314 0.0
H366 H 0.65778 0.19697 0.49709 0.0
H367 H 0.68384 0.19917 0.53913 0.0
H368 H 0.61472 0.22152 0.53019 0.0
H369 H 0.87283 0.37689 0.49981 0.0
H370 H 0.87868 0.32036 0.52102 0.0
H371 H 0.8657 0.31675 0.47705 0.0
H372 H 0.88975 0.17443 0.54661 0.0
H373 H 0.84501 0.16451 0.44255 0.0
H374 H 0.76789 0.23991 0.57399 0.0
H375 H 0.8387 0.27865 0.57036 0.0
H376 H 0.83483 0.21701 0.58653 0.0
H377 H 0.71635 0.22665 0.44958 0.0
H378 H 0.76972 0.20468 0.42108 0.0
H379 H 0.78216 0.26821 0.43905 0.0
C380 C 0.32269 0.3649 0.50058 0.0
C381 C 0.38059 0.37092 0.5136 0.0
C382 C 0.28446 0.31891 0.50239 0.0
C383 C 0.30404 0.2788 0.51864 0.0
C384 C 0.36256 0.28479 0.53178 0.0
C385 C 0.40044 0.33054 0.52862 0.0
C386 C 0.22309 0.31331 0.48712 0.0
C387 C 0.38462 0.24342 0.55006 0.0
C388 C 0.18992 0.18043 0.557 0.0
C389 C 0.19293 0.13808 0.53555 0.0
C390 C 0.22512 0.22676 0.55146 0.0
C391 C 0.26284 0.23116 0.5232 0.0
C392 C 0.26397 0.18905 0.50064 0.0
C393 C 0.23005 0.14268 0.50754 0.0
C394 C 0.22398 0.27029 0.57667 0.0
C395 C 0.302 0.19264 0.46963 0.0
H396 H 0.3075 0.39603 0.48871 0.0
H397 H 0.44508 0.33528 0.53892 0.0
H398 H 0.21565 0.27927 0.46993 0.0
H399 H 0.18877 0.30811 0.50692 0.0
H400 H 0.21641 0.34662 0.47313 0.0
H401 H 0.43118 0.2543 0.55903 0.0
H402 H 0.3555 0.2338 0.57182 0.0
H403 H 0.38246 0.20885 0.53353 0.0
H404 H 0.16203 0.1767 0.57902 0.0
H405 H 0.23266 0.10989 0.49108 0.0
H406 H 0.21306 0.3037 0.56429 0.0
H407 H 0.26876 0.28101 0.58808 0.0
H408 H 0.19106 0.26103 0.59685 0.0
H409 H 0.295 0.22607 0.4559 0.0
H410 H 0.29205 0.15849 0.45264 0.0
H411 H 0.34975 0.19744 0.47664 0.0
C412 C 0.30544 0.68632 0.48848 0.0
C413 C 0.29174 0.65929 0.5172 0.0
C414 C 0.28083 0.73029 0.48314 0.0
C415 C 0.24164 0.74786 0.50712 0.0
C416 C 0.22776 0.72087 0.53619 0.0
C417 C 0.25292 0.67704 0.54086 0.0
C418 C 0.29668 0.75792 0.45177 0.0
C419 C 0.18653 0.73848 0.56247 0.0
C420 C 0.22328 0.88633 0.50699 0.0
C421 C 0.16984 0.88435 0.48926 0.0
C422 C 0.24657 0.84223 0.51347 0.0
C423 C 0.21574 0.7948 0.50195 0.0
C424 C 0.16081 0.79239 0.48495 0.0
C425 C 0.13848 0.83716 0.47886 0.0
C426 C 0.30485 0.8465 0.53205 0.0
C427 C 0.12643 0.74259 0.47237 0.0
H428 H 0.33477 0.6727 0.4699 0.0
H429 H 0.24277 0.65706 0.5634 0.0
H430 H 0.25567 0.76024 0.43742 0.0
H431 H 0.31794 0.79709 0.45829 0.0
H432 H 0.32754 0.73926 0.43549 0.0
H433 H 0.17976 0.713 0.58353 0.0
H434 H 0.20491 0.77687 0.57247 0.0
H435 H 0.14253 0.7408 0.5513 0.0
H436 H 0.24732 0.92259 0.51558 0.0
H437 H 0.09745 0.83525 0.4649 0.0
H438 H 0.33873 0.83188 0.51576 0.0
H439 H 0.29929 0.82316 0.55416 0.0
H440 H 0.3221 0.88599 0.54045 0.0
H441 H 0.15337 0.7243 0.45357 0.0
H442 H 0.08328 0.74694 0.46084 0.0
H443 H 0.11757 0.71683 0.49313 0.0
C444 C 0.96363 0.01077 0.13424 0.0
C445 C 0.01478 0.00996 0.1146 0.0
C446 C 0.96737 0.01423 0.16921 0.0
C447 C 0.02382 0.01856 0.1848 0.0
C448 C 0.0756 0.01781 0.16501 0.0
C449 C 0.07033 0.01277 0.13015 0.0
C450 C 0.91098 0.01342 0.18945 0.0
C451 C 0.13675 0.02367 0.1806 0.0
C452 C 0.04185 0.08106 0.27191 0.0
C453 C 0.04477 0.03986 0.2917 0.0
C454 C 0.0351 0.07462 0.23717 0.0
C455 C 0.02914 0.02559 0.22175 0.0
C456 C 0.02997 0.98362 0.24154 0.0
C457 C 0.0386 0.99128 0.27615 0.0
C458 C 0.03542 0.12048 0.21691 0.0
C459 C 0.02244 0.93062 0.22609 0.0
H460 H 0.92055 0.0082 0.12224 0.0
H461 H 0.11001 0.01254 0.115 0.0
H462 H 0.908 0.98351 0.20769 0.0
H463 H 0.91173 0.04984 0.20386 0.0
H464 H 0.87038 0.00671 0.17359 0.0
H465 H 0.17252 0.02233 0.1617 0.0
H466 H 0.14568 0.06017 0.19525 0.0
H467 H 0.13893 0.99344 0.19813 0.0
H468 H 0.04489 0.11864 0.2835 0.0
H469 H 0.04157 0.95911 0.29088 0.0
H470 H 0.99301 0.11775 0.20293 0.0
H471 H 0.07193 0.12235 0.19829 0.0
H472 H 0.04144 0.1561 0.23265 0.0
H473 H 0.98149 0.92328 0.21058 0.0
H474 H 0.0196 0.90182 0.24514 0.0
H475 H 0.0606 0.92605 0.20941 0.0
C476 C 0.9638 0.03444 0.89649 0.0
C477 C 0.99526 0.00364 0.91454 0.0
C478 C 0.96631 0.03328 0.86142 0.0
C479 C 1.00044 0.00013 0.84417 0.0
C480 C 0.03125 0.96834 0.86233 0.0
C481 C 0.02853 0.97069 0.8972 0.0
C482 C 0.93336 0.06806 0.84286 0.0
C483 C 0.06761 0.93201 0.84495 0.0
C484 C 0.97478 0.95769 0.75317 0.0
C485 C 0.02418 0.98516 0.73783 0.0
C486 C 0.96492 0.96382 0.78758 0.0
C487 C 0.00511 0.99861 0.80715 0.0
C488 C 0.05345 0.02815 0.79163 0.0
C489 C 0.06259 0.0209 0.75722 0.0
C490 C 0.91298 0.93145 0.8032 0.0
C491 C 0.09715 0.06584 0.81161 0.0
H492 H 0.93822 0.06012 0.90976 0.0
H493 H 0.05267 0.94647 0.91092 0.0
H494 H 0.96549 0.09413 0.82866 0.0
H495 H 0.90225 0.04598 0.82452 0.0
H496 H 0.90767 0.0907 0.85986 0.0
H497 H 0.08762 0.90894 0.86272 0.0
H498 H 0.03923 0.90628 0.82707 0.0
H499 H 0.10401 0.95308 0.83045 0.0
H500 H 0.94408 0.93081 0.73831 0.0
H501 H 0.10115 0.04204 0.74574 0.0
H502 H 0.88662 0.95512 0.81895 0.0
H503 H 0.92982 0.90479 0.81967 0.0
H504 H 0.88302 0.90938 0.78424 0.0
H505 H 0.07312 0.09066 0.82793 0.0
H506 H 0.12829 0.08969 0.79542 0.0
H507 H 0.12367 0.04563 0.828 0.0
C508 C 0.45131 0.50719 0.6335 0.0
C509 C 0.50147 0.50492 0.61325 0.0
C510 C 0.45625 0.50994 0.6684 0.0
C511 C 0.51297 0.51189 0.68331 0.0
C512 C 0.56375 0.50967 0.66293 0.0
C513 C 0.55725 0.50552 0.62814 0.0
C514 C 0.40086 0.51091 0.6893 0.0
C515 C 0.62518 0.51288 0.67785 0.0
C516 C 0.53474 0.57115 0.77112 0.0
C517 C 0.53449 0.52878 0.79024 0.0
C518 C 0.52822 0.56617 0.73634 0.0
C519 C 0.51951 0.51756 0.72022 0.0
C520 C 0.51793 0.47456 0.73928 0.0
C521 C 0.52622 0.48069 0.77395 0.0
C522 C 0.53114 0.61303 0.7168 0.0
C523 C 0.50769 0.42204 0.72304 0.0
H524 H 0.40805 0.50636 0.62202 0.0
H525 H 0.5962 0.50419 0.61253 0.0
H526 H 0.3966 0.48028 0.70706 0.0
H527 H 0.40419 0.54707 0.70427 0.0
H528 H 0.35979 0.50644 0.67388 0.0
H529 H 0.66007 0.51061 0.65854 0.0
H530 H 0.63636 0.54892 0.6928 0.0
H531 H 0.62624 0.48195 0.69498 0.0
H532 H 0.5397 0.60844 0.78331 0.0
H533 H 0.52693 0.44765 0.7882 0.0
H534 H 0.48863 0.61273 0.70331 0.0
H535 H 0.56696 0.61379 0.69781 0.0
H536 H 0.53981 0.64812 0.733 0.0
H537 H 0.466 0.41645 0.70816 0.0
H538 H 0.50452 0.39245 0.74156 0.0
H539 H 0.54468 0.41691 0.70562 0.0
C540 C 0.45225 0.5413 0.39687 0.0
C541 C 0.47584 0.5046 0.41397 0.0
C542 C 0.45562 0.54189 0.36189 0.0
C543 C 0.48225 0.5044 0.3438 0.0
C544 C 0.50421 0.46634 0.36099 0.0
C545 C 0.50115 0.46716 0.39581 0.0
C546 C 0.43244 0.58341 0.34439 0.0
C547 C 0.53206 0.42519 0.34265 0.0
C548 C 0.45648 0.47334 0.25136 0.0
C549 C 0.51113 0.49463 0.23781 0.0
C550 C 0.44529 0.47809 0.2857 0.0
C551 C 0.48947 0.50537 0.30699 0.0
C552 C 0.54346 0.52911 0.29331 0.0
C553 C 0.55383 0.52314 0.25896 0.0
C554 C 0.38733 0.45194 0.29936 0.0
C555 C 0.59152 0.55888 0.31517 0.0
H556 H 0.43293 0.57044 0.41086 0.0
H557 H 0.51897 0.43839 0.4089 0.0
H558 H 0.4699 0.60691 0.33211 0.0
H559 H 0.4004 0.56721 0.32457 0.0
H560 H 0.41014 0.60809 0.36183 0.0
H561 H 0.54418 0.39697 0.35962 0.0
H562 H 0.50087 0.40543 0.32344 0.0
H563 H 0.57291 0.44189 0.32956 0.0
H564 H 0.42264 0.45222 0.23516 0.0
H565 H 0.59641 0.53936 0.24892 0.0
H566 H 0.36595 0.47847 0.31579 0.0
H567 H 0.39627 0.42077 0.31476 0.0
H568 H 0.35551 0.43607 0.27929 0.0
H569 H 0.57238 0.58621 0.33211 0.0
H570 H 0.62775 0.57974 0.30037 0.0
H571 H 0.61123 0.53296 0.33098 0.0
loop_
_geom_bond_atom_site_label_1
_geom_bond_atom_site_label_2
_geom_bond_distance
_geom_bond_site_symmetry_2
_ccdc_geom_bond_type
Co0 N5 2.057 . S
Co0 O17 2.021 . S
Co0 O20 2.062 1_455 S
Co0 O24 2.117 1_554 S
Co0 O25 2.020 1_565 S
C1 O21 1.259 1_455 S
C1 O24 1.258 1_545 S
Co2 N11 2.057 . S
Co2 O18 2.117 . S
Co2 O19 2.020 1_545 S
Co2 O21 2.021 1_554 S
Co2 O26 2.062 1_655 S
C3 N5 1.316 . S
C3 N6 1.347 . S
C3 H8 0.931 . S
C4 N5 1.375 1_556 S
C4 C7 1.350 . S
C4 H9 0.930 . S
N5 Co0 2.057 . S
N5 C3 1.316 . S
N5 C4 1.375 1_554 S
N6 C3 1.347 . S
N6 C7 1.373 1_554 S
C7 C4 1.350 . S
C7 N6 1.373 1_556 S
C7 H28 0.931 . S
H8 C3 0.931 . S
H9 C4 0.930 . S
C10 O17 1.259 1_545 S
C10 O18 1.258 1_455 S
N11 Co2 2.057 . S
N11 C12 1.316 . S
N11 C13 1.375 . S
C12 N11 1.316 . S
C12 N14 1.347 . S
C12 H23 0.931 1_554 S
C13 N11 1.375 . S
C13 C15 1.350 . S
C13 H22 0.930 . S
N14 C12 1.347 . S
N14 C15 1.373 . S
C15 C13 1.350 . S
C15 N14 1.373 . S
C15 H29 0.931 . S
C16 O19 1.256 . S
C16 O20 1.255 . S
O17 Co0 2.021 . S
O17 C10 1.259 1_565 S
O18 Co2 2.117 . S
O18 C10 1.258 1_655 S
O19 Co2 2.020 1_565 S
O19 C16 1.256 . S
O20 Co0 2.062 1_655 S
O20 C16 1.255 . S
O21 C1 1.259 1_655 S
O21 Co2 2.021 1_556 S
H22 C13 0.930 . S
H23 C12 0.931 1_556 S
O24 Co0 2.117 1_556 S
O24 C1 1.258 1_565 S
O25 Co0 2.020 1_545 S
O25 C27 1.256 . S
O26 Co2 2.062 1_455 S
O26 C27 1.255 . S
C27 O25 1.256 . S
C27 O26 1.255 . S
H28 C7 0.931 . S
H29 C15 0.931 . S
Co30 N35 2.057 . S
Co30 O47 2.021 . S
Co30 O50 2.062 . S
Co30 O54 2.117 . S
Co30 O55 2.020 . S
C31 O51 1.259 . S
C31 O54 1.258 . S
Co32 N41 2.057 . S
Co32 O48 2.117 . S
Co32 O49 2.020 . S
Co32 O51 2.021 . S
Co32 O56 2.062 . S
C33 N35 1.316 . S
C33 N36 1.347 . S
C33 H38 0.931 . S
C34 N35 1.375 . S
C34 C37 1.350 . S
C34 H39 0.930 . S
N35 Co30 2.057 . S
N35 C33 1.316 . S
N35 C34 1.375 . S
N36 C33 1.347 . S
N36 C37 1.373 . S
C37 C34 1.350 . S
C37 N36 1.373 . S
C37 H58 0.931 . S
H38 C33 0.931 . S
H39 C34 0.930 . S
C40 O47 1.259 . S
C40 O48 1.258 . S
N41 Co32 2.057 . S
N41 C42 1.316 . S
N41 C43 1.375 . S
C42 N41 1.316 . S
C42 N44 1.347 . S
C42 H53 0.931 . S
C43 N41 1.375 . S
C43 C45 1.350 . S
C43 H52 0.930 . S
N44 C42 1.347 . S
N44 C45 1.373 . S
C45 C43 1.350 . S
C45 N44 1.373 . S
C45 H59 0.931 . S
C46 O49 1.256 . S
C46 O50 1.255 . S
O47 Co30 2.021 . S
O47 C40 1.259 . S
O48 Co32 2.117 . S
O48 C40 1.258 . S
O49 Co32 2.020 . S
O49 C46 1.256 . S
O50 Co30 2.062 . S
O50 C46 1.255 . S
O51 C31 1.259 . S
O51 Co32 2.021 . S
H52 C43 0.930 . S
H53 C42 0.931 . S
O54 Co30 2.117 . S
O54 C31 1.258 . S
O55 Co30 2.020 . S
O55 C57 1.256 . S
O56 Co32 2.062 . S
O56 C57 1.255 . S
C57 O55 1.256 . S
C57 O56 1.255 . S
H58 C37 0.931 . S
H59 C45 0.931 . S
P60 O71 1.490 . S
P60 C74 1.812 . S
P60 C80 1.803 1_545 S
P60 C86 1.819 . S
H61 C75 0.941 . S
H62 C76 0.939 . S
H63 C78 0.940 . S
H64 C79 0.940 . S
H65 C81 0.939 1_545 S
H66 C82 0.942 . S
H67 C84 0.940 . S
H68 C85 0.929 1_655 S
H69 C87 0.941 . S
H70 C91 0.939 . S
O71 P60 1.490 . S
H72 C88 0.939 . S
H73 C90 0.940 . S
C74 P60 1.812 . S
C74 C75 1.389 . S
C74 C79 1.391 1_455 S
C75 H61 0.941 . S
C75 C74 1.389 . S
C75 C76 1.397 1_455 S
C76 H62 0.939 . S
C76 C75 1.397 1_655 S
C76 C77 1.378 . S
C77 C76 1.378 . S
C77 C78 1.378 . S
C78 H63 0.940 . S
C78 C77 1.378 . S
C78 C79 1.396 . S
C79 H64 0.940 . S
C79 C74 1.391 1_655 S
C79 C78 1.396 . S
C80 P60 1.803 1_565 S
C80 C81 1.378 . S
C80 C85 1.400 . S
C81 H65 0.939 1_565 S
C81 C80 1.378 . S
C81 C82 1.361 . S
C82 H66 0.942 . S
C82 C81 1.361 . S
C82 C83 1.369 . S
C83 C82 1.369 . S
C83 C84 1.404 . S
C84 H67 0.940 . S
C84 C83 1.404 . S
C84 C85 1.389 . S
C85 H68 0.929 1_455 S
C85 C80 1.400 . S
C85 C84 1.389 . S
C86 P60 1.819 . S
C86 C87 1.391 . S
C86 C91 1.391 1_545 S
C87 H69 0.941 . S
C87 C86 1.391 . S
C87 C88 1.396 . S
C88 H72 0.939 . S
C88 C87 1.396 . S
C88 C89 1.397 . S
C89 C88 1.397 . S
C89 C90 1.385 1_545 S
C90 H73 0.940 . S
C90 C89 1.385 1_565 S
C90 C91 1.388 . S
C91 H70 0.939 . S
C91 C86 1.391 1_565 S
C91 C90 1.388 . S
P92 O103 1.490 . S
P92 C106 1.812 1_455 S
P92 C112 1.803 1_565 S
P92 C118 1.819 . S
H93 C107 0.929 1_455 S
H94 C108 0.939 . S
H95 C110 0.940 . S
H96 C111 0.940 . S
H97 C113 0.939 . S
H98 C114 0.942 . S
H99 C116 0.940 . S
H100 C117 0.939 . S
H101 C119 0.941 . S
H102 C123 0.939 . S
O103 P92 1.490 . S
H104 C120 0.939 . S
H105 C122 0.940 . S
C106 P92 1.812 1_655 S
C106 C107 1.391 . S
C106 C111 1.391 . S
C107 H93 0.929 1_655 S
C107 C106 1.391 . S
C107 C108 1.406 . S
C108 H94 0.939 . S
C108 C107 1.406 . S
C108 C109 1.378 . S
C109 C108 1.378 . S
C109 C110 1.378 . S
C110 H95 0.940 . S
C110 C109 1.378 . S
C110 C111 1.396 . S
C111 H96 0.940 . S
C111 C106 1.391 . S
C111 C110 1.396 . S
C112 P92 1.803 1_545 S
C112 C113 1.378 . S
C112 C117 1.400 . S
C113 H97 0.939 . S
C113 C112 1.378 . S
C113 C114 1.361 . S
C114 H98 0.942 . S
C114 C113 1.361 . S
C114 C115 1.369 . S
C115 C114 1.369 . S
C115 C116 1.404 . S
C116 H99 0.940 . S
C116 C115 1.404 . S
C116 C117 1.389 . S
C117 H100 0.939 . S
C117 C112 1.400 . S
C117 C116 1.389 . S
C118 P92 1.819 . S
C118 C119 1.391 . S
C118 C123 1.391 1_565 S
C119 H101 0.941 . S
C119 C118 1.391 . S
C119 C120 1.396 . S
C120 H104 0.939 . S
C120 C119 1.396 . S
C120 C121 1.397 1_565 S
C121 C120 1.397 1_545 S
C121 C122 1.385 . S
C122 H105 0.940 . S
C122 C121 1.385 . S
C122 C123 1.388 . S
C123 H102 0.939 . S
C123 C118 1.391 1_545 S
C123 C122 1.388 . S
P124 O135 1.490 . S
P124 C138 1.812 . S
P124 C144 1.803 . S
P124 C150 1.819 . S
H125 C139 0.941 . S
H126 C140 0.939 1_554 S
H127 C142 0.940 . S
H128 C143 0.940 . S
H129 C145 0.939 . S
H130 C146 0.942 . S
H131 C148 0.940 . S
H132 C149 0.939 . S
H133 C151 0.941 . S
H134 C155 0.939 . S
O135 P124 1.490 . S
H136 C152 0.939 . S
H137 C154 0.940 . S
C138 P124 1.812 . S
C138 C139 1.389 . S
C138 C143 1.391 . S
C139 H125 0.941 . S
C139 C138 1.389 . S
C139 C140 1.397 . S
C140 H126 0.939 1_556 S
C140 C139 1.397 . S
C140 C141 1.378 . S
C141 C140 1.378 . S
C141 C142 1.378 . S
C142 H127 0.940 . S
C142 C141 1.378 . S
C142 C143 1.396 . S
C143 H128 0.940 . S
C143 C138 1.391 . S
C143 C142 1.396 . S
C144 P124 1.803 . S
C144 C145 1.378 . S
C144 C149 1.400 . S
C145 H129 0.939 . S
C145 C144 1.378 . S
C145 C146 1.361 . S
C146 H130 0.942 . S
C146 C145 1.361 . S
C146 C147 1.369 . S
C147 C146 1.369 . S
C147 C148 1.404 . S
C148 H131 0.940 . S
C148 C147 1.404 . S
C148 C149 1.389 . S
C149 H132 0.939 . S
C149 C144 1.400 . S
C149 C148 1.389 . S
C150 P124 1.819 . S
C150 C151 1.391 . S
C150 C155 1.391 . S
C151 H133 0.941 . S
C151 C150 1.391 . S
C151 C152 1.396 . S
C152 H136 0.939 . S
C152 C151 1.396 . S
C152 C153 1.397 . S
C153 C152 1.397 . S
C153 C154 1.385 . S
C154 H137 0.940 . S
C154 C153 1.385 . S
C154 C155 1.388 . S
C155 H134 0.939 . S
C155 C150 1.391 . S
C155 C154 1.388 . S
P156 O167 1.490 . S
P156 C170 1.812 . S
P156 C176 1.803 . S
P156 C182 1.819 . S
H157 C171 0.941 . S
H158 C172 0.939 . S
H159 C174 0.940 . S
H160 C175 0.940 . S
H161 C177 0.939 . S
H162 C178 0.942 . S
H163 C180 0.940 . S
H164 C181 0.939 . S
H165 C183 0.941 . S
H166 C187 0.939 . S
O167 P156 1.490 . S
H168 C184 0.939 . S
H169 C186 0.940 . S
C170 P156 1.812 . S
C170 C171 1.389 . S
C170 C175 1.391 . S
C171 H157 0.941 . S
C171 C170 1.389 . S
C171 C172 1.397 . S
C172 H158 0.939 . S
C172 C171 1.397 . S
C172 C173 1.378 . S
C173 C172 1.378 . S
C173 C174 1.378 . S
C174 H159 0.940 . S
C174 C173 1.378 . S
C174 C175 1.396 . S
C175 H160 0.940 . S
C175 C170 1.391 . S
C175 C174 1.396 . S
C176 P156 1.803 . S
C176 C177 1.378 . S
C176 C181 1.400 . S
C177 H161 0.939 . S
C177 C176 1.378 . S
C177 C178 1.361 . S
C178 H162 0.942 . S
C178 C177 1.361 . S
C178 C179 1.369 . S
C179 C178 1.369 . S
C179 C180 1.404 . S
C180 H163 0.940 . S
C180 C179 1.404 . S
C180 C181 1.389 . S
C181 H164 0.939 . S
C181 C176 1.400 . S
C181 C180 1.389 . S
C182 P156 1.819 . S
C182 C183 1.391 . S
C182 C187 1.391 . S
C183 H165 0.941 . S
C183 C182 1.391 . S
C183 C184 1.396 . S
C184 H168 0.939 . S
C184 C183 1.396 . S
C184 C185 1.397 . S
C185 C184 1.397 . S
C185 C186 1.385 . S
C186 H169 0.940 . S
C186 C185 1.385 . S
C186 C187 1.388 . S
C187 H166 0.939 . S
C187 C182 1.391 . S
C187 C186 1.388 . S
C188 C189 1.388 1_556 S
C188 C190 1.393 1_556 S
C188 H204 0.934 . S
C189 C188 1.388 1_554 S
C189 C193 1.376 . S
C190 C188 1.393 1_554 S
C190 C191 1.369 . S
C190 C194 1.531 1_554 S
C191 C190 1.369 . S
C191 C192 1.410 . S
C191 C199 1.503 . S
C192 C191 1.410 . S
C192 C193 1.392 . S
C192 C195 1.511 . S
C193 C189 1.376 . S
C193 C192 1.392 . S
C193 H205 0.929 . S
C194 C190 1.531 1_556 S
C194 H206 0.960 . S
C194 H207 0.968 . S
C194 H208 0.960 . S
C195 C192 1.511 . S
C195 H209 0.961 . S
C195 H210 0.961 . S
C195 H211 0.961 . S
C196 C197 1.370 . S
C196 C198 1.363 . S
C196 H212 0.931 . S
C197 C196 1.370 . S
C197 C201 1.408 . S
C198 C196 1.363 . S
C198 C199 1.370 . S
C198 C202 1.524 . S
C199 C191 1.503 . S
C199 C198 1.370 . S
C199 C200 1.403 . S
C200 C199 1.403 . S
C200 C201 1.404 . S
C200 C203 1.539 1_554 S
C201 C197 1.408 . S
C201 C200 1.404 . S
C201 H213 0.930 1_554 S
C202 C198 1.524 . S
C202 H214 0.956 . S
C202 H215 0.961 . S
C202 H216 0.961 . S
C203 C200 1.539 1_556 S
C203 H217 0.958 . S
C203 H218 0.961 . S
C203 H219 0.960 . S
H204 C188 0.934 . S
H205 C193 0.929 . S
H206 C194 0.960 . S
H207 C194 0.968 . S
H208 C194 0.960 . S
H209 C195 0.961 . S
H210 C195 0.961 . S
H211 C195 0.961 . S
H212 C196 0.931 . S
H213 C201 0.930 1_556 S
H214 C202 0.956 . S
H215 C202 0.961 . S
H216 C202 0.961 . S
H217 C203 0.958 . S
H218 C203 0.961 . S
H219 C203 0.960 . S
C220 C221 1.391 1_556 S
C220 C222 1.394 . S
C220 H236 0.931 . S
C221 C220 1.391 1_554 S
C221 C225 1.376 . S
C222 C220 1.394 . S
C222 C223 1.369 . S
C222 C226 1.531 . S
C223 C222 1.369 . S
C223 C224 1.410 1_556 S
C223 C231 1.503 . S
C224 C223 1.410 1_554 S
C224 C225 1.392 . S
C224 C227 1.511 . S
C225 C221 1.376 . S
C225 C224 1.392 . S
C225 H237 0.929 . S
C226 C222 1.531 . S
C226 H238 0.960 . S
C226 H239 0.962 . S
C226 H240 0.960 . S
C227 C224 1.511 . S
C227 H241 0.961 . S
C227 H242 0.961 . S
C227 H243 0.961 1_554 S
C228 C229 1.370 1_554 S
C228 C230 1.363 . S
C228 H244 0.931 . S
C229 C228 1.370 1_556 S
C229 C233 1.408 . S
C230 C228 1.363 . S
C230 C231 1.370 1_554 S
C230 C234 1.524 . S
C231 C223 1.503 . S
C231 C230 1.370 1_556 S
C231 C232 1.403 . S
C232 C231 1.403 . S
C232 C233 1.404 . S
C232 C235 1.539 . S
C233 C229 1.408 . S
C233 C232 1.404 . S
C233 H245 0.930 . S
C234 C230 1.524 . S
C234 H246 0.956 . S
C234 H247 0.961 . S
C234 H248 0.961 . S
C235 C232 1.539 . S
C235 H249 0.958 . S
C235 H250 0.961 . S
C235 H251 0.960 . S
H236 C220 0.931 . S
H237 C225 0.929 . S
H238 C226 0.960 . S
H239 C226 0.962 . S
H240 C226 0.960 . S
H241 C227 0.961 . S
H242 C227 0.961 . S
H243 C227 0.961 1_556 S
H244 C228 0.931 . S
H245 C233 0.930 . S
H246 C234 0.956 . S
H247 C234 0.961 . S
H248 C234 0.961 . S
H249 C235 0.958 . S
H250 C235 0.961 . S
H251 C235 0.960 . S
C252 C253 1.391 . S
C252 C254 1.394 . S
C252 H268 0.931 . S
C253 C252 1.391 . S
C253 C257 1.376 . S
C254 C252 1.394 . S
C254 C255 1.369 . S
C254 C258 1.531 . S
C255 C254 1.369 . S
C255 C256 1.410 . S
C255 C263 1.503 . S
C256 C255 1.410 . S
C256 C257 1.392 . S
C256 C259 1.511 . S
C257 C253 1.376 . S
C257 C256 1.392 . S
C257 H269 0.929 . S
C258 C254 1.531 . S
C258 H270 0.960 . S
C258 H271 0.962 . S
C258 H272 0.960 . S
C259 C256 1.511 . S
C259 H273 0.962 1_554 S
C259 H274 0.961 . S
C259 H275 0.961 . S
C260 C261 1.370 . S
C260 C262 1.363 . S
C260 H276 0.931 1_554 S
C261 C260 1.370 . S
C261 C265 1.408 . S
C262 C260 1.363 . S
C262 C263 1.370 . S
C262 C266 1.524 1_554 S
C263 C255 1.503 . S
C263 C262 1.370 . S
C263 C264 1.403 . S
C264 C263 1.403 . S
C264 C265 1.404 . S
C264 C267 1.539 . S
C265 C261 1.408 . S
C265 C264 1.404 . S
C265 H277 0.930 . S
C266 C262 1.524 1_556 S
C266 H278 0.956 . S
C266 H279 0.961 . S
C266 H280 0.961 . S
C267 C264 1.539 . S
C267 H281 0.958 . S
C267 H282 0.961 . S
C267 H283 0.960 . S
H268 C252 0.931 . S
H269 C257 0.929 . S
H270 C258 0.960 . S
H271 C258 0.962 . S
H272 C258 0.960 . S
H273 C259 0.962 1_556 S
H274 C259 0.961 . S
H275 C259 0.961 . S
H276 C260 0.931 1_556 S
H277 C265 0.930 . S
H278 C266 0.956 . S
H279 C266 0.961 . S
H280 C266 0.961 . S
H281 C267 0.958 . S
H282 C267 0.961 . S
H283 C267 0.960 . S
C284 C285 1.391 1_556 S
C284 C286 1.394 . S
C284 H300 0.931 . S
C285 C284 1.391 1_554 S
C285 C289 1.376 . S
C286 C284 1.394 . S
C286 C287 1.369 1_556 S
C286 C290 1.531 . S
C287 C286 1.369 1_554 S
C287 C288 1.410 . S
C287 C295 1.503 . S
C288 C287 1.410 . S
C288 C289 1.392 . S
C288 C291 1.511 . S
C289 C285 1.376 . S
C289 C288 1.392 . S
C289 H301 0.929 . S
C290 C286 1.531 . S
C290 H302 0.960 . S
C290 H303 0.962 . S
C290 H304 0.960 . S
C291 C288 1.511 . S
C291 H305 0.961 . S
C291 H306 0.961 . S
C291 H307 0.961 . S
C292 C293 1.370 . S
C292 C294 1.363 . S
C292 H308 0.931 . S
C293 C292 1.370 . S
C293 C297 1.408 1_556 S
C294 C292 1.363 . S
C294 C295 1.370 1_556 S
C294 C298 1.524 . S
C295 C287 1.503 . S
C295 C294 1.370 1_554 S
C295 C296 1.403 . S
C296 C295 1.403 . S
C296 C297 1.404 . S
C296 C299 1.539 . S
C297 C293 1.408 1_554 S
C297 C296 1.404 . S
C297 H309 0.930 . S
C298 C294 1.524 . S
C298 H310 0.956 . S
C298 H311 0.961 . S
C298 H312 0.961 . S
C299 C296 1.539 . S
C299 H313 0.958 . S
C299 H314 0.961 . S
C299 H315 0.960 . S
H300 C284 0.931 . S
H301 C289 0.929 . S
H302 C290 0.960 . S
H303 C290 0.962 . S
H304 C290 0.960 . S
H305 C291 0.961 . S
H306 C291 0.961 . S
H307 C291 0.961 . S
H308 C292 0.931 . S
H309 C297 0.930 . S
H310 C298 0.956 . S
H311 C298 0.961 . S
H312 C298 0.961 . S
H313 C299 0.958 . S
H314 C299 0.961 . S
H315 C299 0.960 . S
C316 C317 1.391 . S
C316 C318 1.394 . S
C316 H332 0.931 . S
C317 C316 1.391 . S
C317 C321 1.376 . S
C318 C316 1.394 . S
C318 C319 1.369 . S
C318 C322 1.531 . S
C319 C318 1.369 . S
C319 C320 1.410 . S
C319 C327 1.503 . S
C320 C319 1.410 . S
C320 C321 1.392 . S
C320 C323 1.511 . S
C321 C317 1.376 . S
C321 C320 1.392 . S
C321 H333 0.929 . S
C322 C318 1.531 . S
C322 H334 0.960 . S
C322 H335 0.962 . S
C322 H336 0.960 . S
C323 C320 1.511 . S
C323 H337 0.961 . S
C323 H338 0.961 . S
C323 H339 0.961 . S
C324 C325 1.370 . S
C324 C326 1.363 . S
C324 H340 0.931 . S
C325 C324 1.370 . S
C325 C329 1.408 . S
C326 C324 1.363 . S
C326 C327 1.370 . S
C326 C330 1.524 . S
C327 C319 1.503 . S
C327 C326 1.370 . S
C327 C328 1.403 . S
C328 C327 1.403 . S
C328 C329 1.404 . S
C328 C331 1.539 . S
C329 C325 1.408 . S
C329 C328 1.404 . S
C329 H341 0.930 . S
C330 C326 1.524 . S
C330 H342 0.956 . S
C330 H343 0.961 . S
C330 H344 0.961 . S
C331 C328 1.539 . S
C331 H345 0.958 . S
C331 H346 0.961 . S
C331 H347 0.960 . S
H332 C316 0.931 . S
H333 C321 0.929 . S
H334 C322 0.960 . S
H335 C322 0.962 . S
H336 C322 0.960 . S
H337 C323 0.961 . S
H338 C323 0.961 . S
H339 C323 0.961 . S
H340 C324 0.931 . S
H341 C329 0.930 . S
H342 C330 0.956 . S
H343 C330 0.961 . S
H344 C330 0.961 . S
H345 C331 0.958 . S
H346 C331 0.961 . S
H347 C331 0.960 . S
C348 C349 1.391 . S
C348 C350 1.394 . S
C348 H364 0.931 . S
C349 C348 1.391 . S
C349 C353 1.376 . S
C350 C348 1.394 . S
C350 C351 1.369 . S
C350 C354 1.531 . S
C351 C350 1.369 . S
C351 C352 1.410 . S
C351 C359 1.503 . S
C352 C351 1.410 . S
C352 C353 1.392 . S
C352 C355 1.511 . S
C353 C349 1.376 . S
C353 C352 1.392 . S
C353 H365 0.929 . S
C354 C350 1.531 . S
C354 H366 0.960 . S
C354 H367 0.962 . S
C354 H368 0.960 . S
C355 C352 1.511 . S
C355 H369 0.961 . S
C355 H370 0.961 . S
C355 H371 0.961 . S
C356 C357 1.370 . S
C356 C358 1.363 . S
C356 H372 0.931 . S
C357 C356 1.370 . S
C357 C361 1.408 . S
C358 C356 1.363 . S
C358 C359 1.370 . S
C358 C362 1.524 . S
C359 C351 1.503 . S
C359 C358 1.370 . S
C359 C360 1.403 . S
C360 C359 1.403 . S
C360 C361 1.404 . S
C360 C363 1.539 . S
C361 C357 1.408 . S
C361 C360 1.404 . S
C361 H373 0.930 . S
C362 C358 1.524 . S
C362 H374 0.956 . S
C362 H375 0.961 . S
C362 H376 0.961 . S
C363 C360 1.539 . S
C363 H377 0.958 . S
C363 H378 0.961 . S
C363 H379 0.960 . S
H364 C348 0.931 . S
H365 C353 0.929 . S
H366 C354 0.960 . S
H367 C354 0.962 . S
H368 C354 0.960 . S
H369 C355 0.961 . S
H370 C355 0.961 . S
H371 C355 0.961 . S
H372 C356 0.931 . S
H373 C361 0.930 . S
H374 C362 0.956 . S
H375 C362 0.961 . S
H376 C362 0.961 . S
H377 C363 0.958 . S
H378 C363 0.961 . S
H379 C363 0.960 . S
C380 C381 1.391 . S
C380 C382 1.394 . S
C380 H396 0.931 . S
C381 C380 1.391 . S
C381 C385 1.376 . S
C382 C380 1.394 . S
C382 C383 1.369 . S
C382 C386 1.531 . S
C383 C382 1.369 . S
C383 C384 1.410 . S
C383 C391 1.503 . S
C384 C383 1.410 . S
C384 C385 1.392 . S
C384 C387 1.511 . S
C385 C381 1.376 . S
C385 C384 1.392 . S
C385 H397 0.929 . S
C386 C382 1.531 . S
C386 H398 0.960 . S
C386 H399 0.962 . S
C386 H400 0.960 . S
C387 C384 1.511 . S
C387 H401 0.961 . S
C387 H402 0.961 . S
C387 H403 0.961 . S
C388 C389 1.370 . S
C388 C390 1.363 . S
C388 H404 0.931 . S
C389 C388 1.370 . S
C389 C393 1.408 . S
C390 C388 1.363 . S
C390 C391 1.370 . S
C390 C394 1.524 . S
C391 C383 1.503 . S
C391 C390 1.370 . S
C391 C392 1.403 . S
C392 C391 1.403 . S
C392 C393 1.404 . S
C392 C395 1.539 . S
C393 C389 1.408 . S
C393 C392 1.404 . S
C393 H405 0.930 . S
C394 C390 1.524 . S
C394 H406 0.956 . S
C394 H407 0.961 . S
C394 H408 0.961 . S
C395 C392 1.539 . S
C395 H409 0.958 . S
C395 H410 0.961 . S
C395 H411 0.960 . S
H396 C380 0.931 . S
H397 C385 0.929 . S
H398 C386 0.960 . S
H399 C386 0.962 . S
H400 C386 0.960 . S
H401 C387 0.961 . S
H402 C387 0.961 . S
H403 C387 0.961 . S
H404 C388 0.931 . S
H405 C393 0.930 . S
H406 C394 0.956 . S
H407 C394 0.961 . S
H408 C394 0.961 . S
H409 C395 0.958 . S
H410 C395 0.961 . S
H411 C395 0.960 . S
C412 C413 1.391 . S
C412 C414 1.394 . S
C412 H428 0.931 . S
C413 C412 1.391 . S
C413 C417 1.376 . S
C414 C412 1.394 . S
C414 C415 1.369 . S
C414 C418 1.531 . S
C415 C414 1.369 . S
C415 C416 1.410 . S
C415 C423 1.503 . S
C416 C415 1.410 . S
C416 C417 1.392 . S
C416 C419 1.511 . S
C417 C413 1.376 . S
C417 C416 1.392 . S
C417 H429 0.929 . S
C418 C414 1.531 . S
C418 H430 0.960 . S
C418 H431 0.962 . S
C418 H432 0.960 . S
C419 C416 1.511 . S
C419 H433 0.961 . S
C419 H434 0.961 . S
C419 H435 0.961 . S
C420 C421 1.370 . S
C420 C422 1.363 . S
C420 H436 0.931 . S
C421 C420 1.370 . S
C421 C425 1.408 . S
C422 C420 1.363 . S
C422 C423 1.370 . S
C422 C426 1.524 . S
C423 C415 1.503 . S
C423 C422 1.370 . S
C423 C424 1.403 . S
C424 C423 1.403 . S
C424 C425 1.404 . S
C424 C427 1.539 . S
C425 C421 1.408 . S
C425 C424 1.404 . S
C425 H437 0.930 . S
C426 C422 1.524 . S
C426 H438 0.956 . S
C426 H439 0.961 . S
C426 H440 0.961 . S
C427 C424 1.539 . S
C427 H441 0.958 . S
C427 H442 0.961 . S
C427 H443 0.960 . S
H428 C412 0.931 . S
H429 C417 0.929 . S
H430 C418 0.960 . S
H431 C418 0.962 . S
H432 C418 0.960 . S
H433 C419 0.961 . S
H434 C419 0.961 . S
H435 C419 0.961 . S
H436 C420 0.931 . S
H437 C425 0.930 . S
H438 C426 0.956 . S
H439 C426 0.961 . S
H440 C426 0.961 . S
H441 C427 0.958 . S
H442 C427 0.961 . S
H443 C427 0.960 . S
C444 C445 1.391 1_665 S
C444 C446 1.394 . S
C444 H460 0.931 . S
C445 C444 1.391 1_445 S
C445 C449 1.376 . S
C446 C444 1.394 . S
C446 C447 1.369 1_655 S
C446 C450 1.531 . S
C447 C446 1.369 1_455 S
C447 C448 1.410 1_565 S
C447 C455 1.503 . S
C448 C447 1.410 1_545 S
C448 C449 1.392 . S
C448 C451 1.511 . S
C449 C445 1.376 . S
C449 C448 1.392 . S
C449 H461 0.929 . S
C450 C446 1.531 . S
C450 H462 0.960 . S
C450 H463 0.962 . S
C450 H464 0.960 . S
C451 C448 1.511 . S
C451 H465 0.961 . S
C451 H466 0.961 . S
C451 H467 0.961 . S
C452 C453 1.370 1_645 S
C452 C454 1.363 . S
C452 H468 0.931 . S
C453 C452 1.370 1_465 S
C453 C457 1.408 . S
C454 C452 1.363 . S
C454 C455 1.370 1_645 S
C454 C458 1.524 . S
C455 C447 1.503 . S
C455 C454 1.370 1_465 S
C455 C456 1.403 . S
C456 C455 1.403 . S
C456 C457 1.404 . S
C456 C459 1.539 . S
C457 C453 1.408 . S
C457 C456 1.404 . S
C457 H469 0.930 . S
C458 C454 1.524 . S
C458 H470 0.956 . S
C458 H471 0.961 . S
C458 H472 0.961 . S
C459 C456 1.539 . S
C459 H473 0.958 . S
C459 H474 0.961 . S
C459 H475 0.960 . S
H460 C444 0.931 . S
H461 C449 0.929 . S
H462 C450 0.960 . S
H463 C450 0.962 . S
H464 C450 0.960 . S
H465 C451 0.961 . S
H466 C451 0.961 . S
H467 C451 0.961 . S
H468 C452 0.931 . S
H469 C457 0.930 . S
H470 C458 0.956 . S
H471 C458 0.961 . S
H472 C458 0.961 . S
H473 C459 0.958 . S
H474 C459 0.961 . S
H475 C459 0.960 . S
C476 C477 1.391 1_655 S
C476 C478 1.394 . S
C476 H492 0.931 . S
C477 C476 1.391 1_455 S
C477 C481 1.376 1_545 S
C478 C476 1.394 . S
C478 C479 1.369 1_655 S
C478 C482 1.531 . S
C479 C478 1.369 1_455 S
C479 C480 1.410 1_545 S
C479 C487 1.503 . S
C480 C479 1.410 1_565 S
C480 C481 1.392 . S
C480 C483 1.511 . S
C481 C477 1.376 1_565 S
C481 C480 1.392 . S
C481 H493 0.929 . S
C482 C478 1.531 . S
C482 H494 0.960 . S
C482 H495 0.962 . S
C482 H496 0.960 . S
C483 C480 1.511 . S
C483 H497 0.961 . S
C483 H498 0.961 . S
C483 H499 0.961 1_565 S
C484 C485 1.370 1_665 S
C484 C486 1.363 . S
C484 H500 0.931 . S
C485 C484 1.370 1_445 S
C485 C489 1.408 . S
C486 C484 1.363 . S
C486 C487 1.370 1_665 S
C486 C490 1.524 . S
C487 C479 1.503 . S
C487 C486 1.370 1_445 S
C487 C488 1.403 . S
C488 C487 1.403 . S
C488 C489 1.404 . S
C488 C491 1.539 . S
C489 C485 1.408 . S
C489 C488 1.404 . S
C489 H501 0.930 . S
C490 C486 1.524 . S
C490 H502 0.956 . S
C490 H503 0.961 . S
C490 H504 0.961 . S
C491 C488 1.539 . S
C491 H505 0.958 . S
C491 H506 0.961 . S
C491 H507 0.960 . S
H492 C476 0.931 . S
H493 C481 0.929 . S
H494 C482 0.960 . S
H495 C482 0.962 . S
H496 C482 0.960 . S
H497 C483 0.961 . S
H498 C483 0.961 . S
H499 C483 0.961 1_545 S
H500 C484 0.931 . S
H501 C489 0.930 . S
H502 C490 0.956 . S
H503 C490 0.961 . S
H504 C490 0.961 . S
H505 C491 0.958 . S
H506 C491 0.961 . S
H507 C491 0.960 . S
C508 C509 1.391 . S
C508 C510 1.394 . S
C508 H524 0.931 . S
C509 C508 1.391 . S
C509 C513 1.376 . S
C510 C508 1.394 . S
C510 C511 1.369 . S
C510 C514 1.531 . S
C511 C510 1.369 . S
C511 C512 1.410 . S
C511 C519 1.503 . S
C512 C511 1.410 . S
C512 C513 1.392 . S
C512 C515 1.511 . S
C513 C509 1.376 . S
C513 C512 1.392 . S
C513 H525 0.929 . S
C514 C510 1.531 . S
C514 H526 0.960 . S
C514 H527 0.962 . S
C514 H528 0.960 . S
C515 C512 1.511 . S
C515 H529 0.961 . S
C515 H530 0.961 . S
C515 H531 0.961 . S
C516 C517 1.370 . S
C516 C518 1.363 . S
C516 H532 0.931 . S
C517 C516 1.370 . S
C517 C521 1.408 . S
C518 C516 1.363 . S
C518 C519 1.370 . S
C518 C522 1.524 . S
C519 C511 1.503 . S
C519 C518 1.370 . S
C519 C520 1.403 . S
C520 C519 1.403 . S
C520 C521 1.404 . S
C520 C523 1.539 . S
C521 C517 1.408 . S
C521 C520 1.404 . S
C521 H533 0.930 . S
C522 C518 1.524 . S
C522 H534 0.956 . S
C522 H535 0.961 . S
C522 H536 0.961 . S
C523 C520 1.539 . S
C523 H537 0.958 . S
C523 H538 0.961 . S
C523 H539 0.960 . S
H524 C508 0.931 . S
H525 C513 0.929 . S
H526 C514 0.960 . S
H527 C514 0.962 . S
H528 C514 0.960 . S
H529 C515 0.961 . S
H530 C515 0.961 . S
H531 C515 0.961 . S
H532 C516 0.931 . S
H533 C521 0.930 . S
H534 C522 0.956 . S
H535 C522 0.961 . S
H536 C522 0.961 . S
H537 C523 0.958 . S
H538 C523 0.961 . S
H539 C523 0.960 . S
C540 C541 1.391 . S
C540 C542 1.394 . S
C540 H556 0.931 . S
C541 C540 1.391 . S
C541 C545 1.376 . S
C542 C540 1.394 . S
C542 C543 1.369 . S
C542 C546 1.531 . S
C543 C542 1.369 . S
C543 C544 1.410 . S
C543 C551 1.503 . S
C544 C543 1.410 . S
C544 C545 1.392 . S
C544 C547 1.511 . S
C545 C541 1.376 . S
C545 C544 1.392 . S
C545 H557 0.929 . S
C546 C542 1.531 . S
C546 H558 0.960 . S
C546 H559 0.962 . S
C546 H560 0.960 . S
C547 C544 1.511 . S
C547 H561 0.961 . S
C547 H562 0.961 . S
C547 H563 0.961 . S
C548 C549 1.370 . S
C548 C550 1.363 . S
C548 H564 0.931 . S
C549 C548 1.370 . S
C549 C553 1.408 . S
C550 C548 1.363 . S
C550 C551 1.370 . S
C550 C554 1.524 . S
C551 C543 1.503 . S
C551 C550 1.370 . S
C551 C552 1.403 . S
C552 C551 1.403 . S
C552 C553 1.404 . S
C552 C555 1.539 . S
C553 C549 1.408 . S
C553 C552 1.404 . S
C553 H565 0.930 . S
C554 C550 1.524 . S
C554 H566 0.956 . S
C554 H567 0.961 . S
C554 H568 0.961 . S
C555 C552 1.539 . S
C555 H569 0.958 . S
C555 H570 0.961 . S
C555 H571 0.960 . S
H556 C540 0.931 . S
H557 C545 0.929 . S
H558 C546 0.960 . S
H559 C546 0.962 . S
H560 C546 0.960 . S
H561 C547 0.961 . S
H562 C547 0.961 . S
H563 C547 0.961 . S
H564 C548 0.931 . S
H565 C553 0.930 . S
H566 C554 0.956 . S
H567 C554 0.961 . S
H568 C554 0.961 . S
H569 C555 0.958 . S
H570 C555 0.961 . S
H571 C555 0.960 . S
C197 C173 1.421 . S
C189 C27 1.449 . S
C221 N6 1.319 . S
C229 C141 1.361 . S
C253 C16 1.428 . S
C261 C179 1.396 . S
C285 N14 1.362 . S
C293 C147 1.377 . S
C317 C57 1.450 . S
C325 C109 1.421 . S
C349 N36 1.320 . S
C357 C77 1.364 . S
C389 C115 1.403 . S
C381 C46 1.444 . S
C421 C83 1.377 . S
C413 N44 1.364 . S
C445 C10 1.386 . S
C453 C89 1.367 1_565 S
C477 C1 1.529 . S
C485 C121 1.498 . S
C517 C153 1.365 . S
C509 C40 1.386 . S
C541 C31 1.535 . S
C549 C185 1.492 . S
