# Generated by pormake.
# Topology wbl, (4,4)-cn, num edge types: 1
# Building blocks:
#     Node 0, Type 0, BuildingBlock: MIFKUJ_clean_linker_1, # of connection points: 4
#     Node 1, Type 0, BuildingBlock: MIFKUJ_clean_linker_1, # of connection points: 4
#     Node 2, Type 0, BuildingBlock: MIFKUJ_clean_linker_1, # of connection points: 4
#     Node 3, Type 0, BuildingBlock: MIFKUJ_clean_linker_1, # of connection points: 4
#     Node 4, Type 0, BuildingBlock: MIFKUJ_clean_linker_1, # of connection points: 4
#     Node 5, Type 0, BuildingBlock: MIFKUJ_clean_linker_1, # of connection points: 4
#     Node 6, Type 0, BuildingBlock: MIFKUJ_clean_linker_1, # of connection points: 4
#     Node 7, Type 0, BuildingBlock: MIFKUJ_clean_linker_1, # of connection points: 4
#     Node 8, Type 1, BuildingBlock: NAHDIM_clean_sbu_0, # of connection points: 4
#     Node 9, Type 1, BuildingBlock: NAHDIM_clean_sbu_0, # of connection points: 4
#     Node 10, Type 1, BuildingBlock: NAHDIM_clean_sbu_0, # of connection points: 4
#     Node 11, Type 1, BuildingBlock: NAHDIM_clean_sbu_0, # of connection points: 4
#     Node 12, Type 1, BuildingBlock: NAHDIM_clean_sbu_0, # of connection points: 4
#     Node 13, Type 1, BuildingBlock: NAHDIM_clean_sbu_0, # of connection points: 4
#     Node 14, Type 1, BuildingBlock: NAHDIM_clean_sbu_0, # of connection points: 4
#     Node 15, Type 1, BuildingBlock: NAHDIM_clean_sbu_0, # of connection points: 4
#     Edge 16, Type (0, 1), BuildingBlock: CIFDUS_clean_linker_0, # of connection points: 2
#     Edge 17, Type (0, 1), BuildingBlock: CIFDUS_clean_linker_0, # of connection points: 2
#     Edge 18, Type (0, 1), BuildingBlock: CIFDUS_clean_linker_0, # of connection points: 2
#     Edge 19, Type (0, 1), BuildingBlock: CIFDUS_clean_linker_0, # of connection points: 2
#     Edge 20, Type (0, 1), BuildingBlock: CIFDUS_clean_linker_0, # of connection points: 2
#     Edge 21, Type (0, 1), BuildingBlock: CIFDUS_clean_linker_0, # of connection points: 2
#     Edge 22, Type (0, 1), BuildingBlock: CIFDUS_clean_linker_0, # of connection points: 2
#     Edge 23, Type (0, 1), BuildingBlock: CIFDUS_clean_linker_0, # of connection points: 2
#     Edge 24, Type (0, 1), BuildingBlock: CIFDUS_clean_linker_0, # of connection points: 2
#     Edge 25, Type (0, 1), BuildingBlock: CIFDUS_clean_linker_0, # of connection points: 2
#     Edge 26, Type (0, 1), BuildingBlock: CIFDUS_clean_linker_0, # of connection points: 2
#     Edge 27, Type (0, 1), BuildingBlock: CIFDUS_clean_linker_0, # of connection points: 2
#     Edge 28, Type (0, 1), BuildingBlock: CIFDUS_clean_linker_0, # of connection points: 2
#     Edge 29, Type (0, 1), BuildingBlock: CIFDUS_clean_linker_0, # of connection points: 2
#     Edge 30, Type (0, 1), BuildingBlock: CIFDUS_clean_linker_0, # of connection points: 2
#     Edge 31, Type (0, 1), BuildingBlock: CIFDUS_clean_linker_0, # of connection points: 2
#     Edge 32, Type (0, 1), BuildingBlock: CIFDUS_clean_linker_0, # of connection points: 2
#     Edge 33, Type (0, 1), BuildingBlock: CIFDUS_clean_linker_0, # of connection points: 2
#     Edge 34, Type (0, 1), BuildingBlock: CIFDUS_clean_linker_0, # of connection points: 2
#     Edge 35, Type (0, 1), BuildingBlock: CIFDUS_clean_linker_0, # of connection points: 2
#     Edge 36, Type (0, 1), BuildingBlock: CIFDUS_clean_linker_0, # of connection points: 2
#     Edge 37, Type (0, 1), BuildingBlock: CIFDUS_clean_linker_0, # of connection points: 2
#     Edge 38, Type (0, 1), BuildingBlock: CIFDUS_clean_linker_0, # of connection points: 2
#     Edge 39, Type (0, 1), BuildingBlock: CIFDUS_clean_linker_0, # of connection points: 2
#     Edge 40, Type (0, 1), BuildingBlock: CIFDUS_clean_linker_0, # of connection points: 2
#     Edge 41, Type (0, 1), BuildingBlock: CIFDUS_clean_linker_0, # of connection points: 2
#     Edge 42, Type (0, 1), BuildingBlock: CIFDUS_clean_linker_0, # of connection points: 2
#     Edge 43, Type (0, 1), BuildingBlock: CIFDUS_clean_linker_0, # of connection points: 2
#     Edge 44, Type (0, 1), BuildingBlock: CIFDUS_clean_linker_0, # of connection points: 2
#     Edge 45, Type (0, 1), BuildingBlock: CIFDUS_clean_linker_0, # of connection points: 2
#     Edge 46, Type (0, 1), BuildingBlock: CIFDUS_clean_linker_0, # of connection points: 2
#     Edge 47, Type (0, 1), BuildingBlock: CIFDUS_clean_linker_0, # of connection points: 2
# Relax obj value: 0.143
# Max RMSD: 0.133
# Mean RMSD: 0.125
data_MOF--net-wbl--node1-NAHDIM_clean_sbu_0--node2-MIFKUJ_clean_linker_1--edge1-CIFDUS_clean_linker_0
_symmetry_space_group_name_H-M    P1
_symmetry_Int_Tables_number       1
_symmetry_cell_setting            triclinic
loop_
_symmetry_equiv_pos_as_xyz
'x, y, z'
_cell_length_a     42.402391
_cell_length_b     40.995876
_cell_length_c     65.567456
_cell_angle_alpha  90.081475
_cell_angle_beta   89.996616
_cell_angle_gamma 90.055785
loop_
_atom_site_label
_atom_site_type_symbol
_atom_site_fract_x
_atom_site_fract_y
_atom_site_fract_z
_atom_type_partial_charge
H0 H 0.01357 0.1035 0.36629 0.0
H1 H 0.97876 0.13641 0.38784 0.0
H2 H 0.90033 0.07409 0.37191 0.0
H3 H 0.93534 0.04131 0.35017 0.0
H4 H 0.02198 0.03371 0.37243 0.0
H5 H 0.9818 0.11043 0.32275 0.0
H6 H 0.93675 0.13583 0.30606 0.0
H7 H 0.9132 0.04338 0.27802 0.0
H8 H 0.95663 0.01765 0.29616 0.0
H9 H 0.03296 0.95526 0.29919 0.0
H10 H 0.07411 0.92416 0.2812 0.0
H11 H 0.14521 0.98727 0.30713 0.0
H12 H 0.10431 0.01792 0.32509 0.0
H13 H 0.0176 0.02219 0.29715 0.0
H14 H 0.0475 0.94403 0.34564 0.0
H15 H 0.07745 0.90966 0.36902 0.0
H16 H 0.1132 0.99576 0.3993 0.0
H17 H 0.08319 0.0301 0.3758 0.0
C18 C 0.97694 0.07012 0.35664 0.0
C19 C 0.98879 0.09719 0.36727 0.0
C20 C 0.96889 0.11604 0.37945 0.0
C21 C 0.93689 0.10777 0.3815 0.0
C22 C 0.92495 0.08087 0.37062 0.0
C23 C 0.94482 0.06226 0.35819 0.0
C24 C -0.00124 0.04911 0.34495 0.0
C25 C 0.02142 0.0316 0.35593 0.0
C26 C 0.99673 0.04521 0.32352 0.0
C27 C 0.97204 0.06186 0.31129 0.0
C28 C 0.96671 0.09554 0.31319 0.0
C29 C 0.94118 0.11019 0.30332 0.0
C30 C 0.9209 0.0916 0.2909 0.0
C31 C 0.92769 0.05832 0.28792 0.0
C32 C 0.95282 0.04359 0.29811 0.0
C33 C 0.06568 0.98878 0.31348 0.0
C34 C 0.05743 0.96235 0.30091 0.0
C35 C 0.08087 0.94455 0.29078 0.0
C36 C 0.11273 0.95347 0.29276 0.0
C37 C 0.12079 0.9801 0.30521 0.0
C38 C 0.0975 0.99751 0.31553 0.0
C39 C 0.04134 0.00744 0.32467 0.0
C40 C 0.01828 0.02449 0.31363 0.0
C41 C 0.04232 0.0103 0.34613 0.0
C42 C 0.06323 0.98968 0.35887 0.0
C43 C 0.06237 0.95556 0.35698 0.0
C44 C 0.07947 0.93591 0.37039 0.0
C45 C 0.09756 0.95 0.38607 0.0
C46 C 0.09913 0.98419 0.38755 0.0
C47 C 0.0821 0.00383 0.3741 0.0
H48 H 0.00409 0.42642 0.54614 0.0
H49 H 0.97225 0.38169 0.53272 0.0
H50 H 0.88755 0.43134 0.55226 0.0
H51 H 0.91951 0.47682 0.56468 0.0
H52 H 0.01184 0.48906 0.5396 0.0
H53 H 0.97561 0.42428 0.59719 0.0
H54 H 0.94322 0.39974 0.62401 0.0
H55 H 0.89928 0.49316 0.63512 0.0
H56 H 0.93191 0.51755 0.60845 0.0
H57 H 0.01278 0.58917 0.5968 0.0
H58 H 0.04524 0.62302 0.6194 0.0
H59 H 0.11456 0.54589 0.62245 0.0
H60 H 0.08219 0.51262 0.59966 0.0
H61 H 0.99631 0.51832 0.6124 0.0
H62 H 0.02182 0.57295 0.54243 0.0
H63 H 0.06405 0.60707 0.52864 0.0
H64 H 0.13282 0.5356 0.54767 0.0
H65 H 0.0902 0.50142 0.56131 0.0
C66 C 0.96427 0.45475 0.55675 0.0
C67 C 0.97864 0.42798 0.54719 0.0
C68 C 0.96039 0.40224 0.53973 0.0
C69 C 0.92734 0.40263 0.54173 0.0
C70 C 0.9129 0.43024 0.5504 0.0
C71 C 0.93119 0.45612 0.55773 0.0
C72 C 0.984 0.48011 0.56671 0.0
C73 C 0.00838 0.4952 0.55554 0.0
C74 C 0.97945 0.48887 0.58742 0.0
C75 C 0.95612 0.47272 0.60085 0.0
C76 C 0.9584 0.43924 0.60504 0.0
C77 C 0.93988 0.42526 0.62037 0.0
C78 C 0.91898 0.44463 0.63183 0.0
C79 C 0.91556 0.47775 0.62679 0.0
C80 C 0.93403 0.49167 0.61149 0.0
C81 C 0.04534 0.54866 0.59646 0.0
C82 C 0.03532 0.57997 0.60202 0.0
C83 C 0.05377 0.59912 0.61503 0.0
C84 C 0.08241 0.58706 0.62284 0.0
C85 C 0.09289 0.55611 0.61651 0.0
C86 C 0.07443 0.53704 0.6035 0.0
C87 C 0.02383 0.52647 0.58544 0.0
C88 C -0.00076 0.51218 0.5964 0.0
C89 C 0.02836 0.51818 0.5648 0.0
C90 C 0.05301 0.53477 0.5528 0.0
C91 C 0.0459 0.56419 0.543 0.0
C92 C 0.07007 0.58361 0.53514 0.0
C93 C 0.10176 0.57402 0.53715 0.0
C94 C 0.10863 0.54364 0.54603 0.0
C95 C 0.08437 0.52406 0.5537 0.0
H96 H 0.50037 0.56323 0.86196 0.0
H97 H 0.46973 0.60147 0.88265 0.0
H98 H 0.38607 0.54343 0.87264 0.0
H99 H 0.41698 0.50522 0.85166 0.0
H100 H 0.50419 0.49098 0.86942 0.0
H101 H 0.46095 0.5714 0.82047 0.0
H102 H 0.41378 0.59543 0.80532 0.0
H103 H 0.38783 0.50107 0.78093 0.0
H104 H 0.43386 0.47692 0.79725 0.0
H105 H 0.51839 0.42334 0.79086 0.0
H106 H 0.56198 0.40011 0.77072 0.0
H107 H 0.62754 0.46357 0.80189 0.0
H108 H 0.58433 0.48628 0.82201 0.0
H109 H 0.49699 0.48695 0.79393 0.0
H110 H 0.53471 0.40553 0.83499 0.0
H111 H 0.56759 0.36853 0.85456 0.0
H112 H 0.59122 0.44734 0.8958 0.0
H113 H 0.56077 0.48487 0.87497 0.0
C114 C 0.46086 0.53154 0.85532 0.0
C115 C 0.47541 0.5588 0.86419 0.0
C116 C 0.45787 0.58071 0.87585 0.0
C117 C 0.42555 0.57545 0.87912 0.0
C118 C 0.41099 0.54795 0.87035 0.0
C119 C 0.42853 0.52621 0.8584 0.0
C120 C 0.48008 0.50892 0.84293 0.0
C121 C 0.50302 0.49028 0.8529 0.0
C122 C 0.47674 0.50639 0.82153 0.0
C123 C 0.45044 0.5222 0.81047 0.0
C124 C 0.44496 0.55588 0.81199 0.0
C125 C 0.41819 0.56967 0.80305 0.0
C126 C 0.39678 0.55008 0.79211 0.0
C127 C 0.40341 0.51671 0.78966 0.0
C128 C 0.42989 0.50291 0.7988 0.0
C129 C 0.54828 0.45631 0.80798 0.0
C130 C 0.54218 0.43219 0.79327 0.0
C131 C 0.56697 0.41893 0.78187 0.0
C132 C 0.59794 0.43027 0.78473 0.0
C133 C 0.60381 0.45469 0.79927 0.0
C134 C 0.57922 0.46749 0.81085 0.0
C135 C 0.5226 0.47053 0.82036 0.0
C136 C 0.49837 0.48749 0.81045 0.0
C137 C 0.52386 0.47032 0.84192 0.0
C138 C 0.54544 0.44824 0.85328 0.0
C139 C 0.5478 0.41516 0.84784 0.0
C140 C 0.5662 0.39377 0.85934 0.0
C141 C 0.58201 0.40471 0.87692 0.0
C142 C 0.57992 0.43797 0.88219 0.0
C143 C 0.56207 0.45949 0.87042 0.0
H144 H 0.46776 0.94408 0.04846 0.0
H145 H 0.43236 0.90178 0.03532 0.0
H146 H 0.35214 0.95663 0.05723 0.0
H147 H 0.38776 0.99825 0.07075 0.0
H148 H 0.47323 0.01657 0.04598 0.0
H149 H 0.45127 0.92938 0.09288 0.0
H150 H 0.42021 0.89128 0.11331 0.0
H151 H 0.37415 0.97253 0.14298 0.0
H152 H 0.40434 0.01043 0.12187 0.0
H153 H 0.46917 0.09488 0.11391 0.0
H154 H 0.49835 0.12769 0.13867 0.0
H155 H 0.57962 0.06525 0.13049 0.0
H156 H 0.55061 0.03382 0.10489 0.0
H157 H 0.4675 0.01835 0.12164 0.0
H158 H 0.48088 0.10402 0.07212 0.0
H159 H 0.51181 0.14506 0.05401 0.0
H160 H 0.57413 0.06977 0.03164 0.0
H161 H 0.5429 0.02854 0.05001 0.0
C162 C 0.43033 0.97399 0.06074 0.0
C163 C 0.44251 0.94735 0.0499 0.0
C164 C 0.42221 0.92322 0.0424 0.0
C165 C 0.38943 0.92561 0.04552 0.0
C166 C 0.37729 0.95373 0.05496 0.0
C167 C 0.39756 0.97766 0.06254 0.0
C168 C 0.45152 0.99544 0.07263 0.0
C169 C 0.47234 0.01661 0.06252 0.0
C170 C 0.44997 0.99589 0.09418 0.0
C171 C 0.42996 0.97274 0.10577 0.0
C172 C 0.43398 0.93895 0.10346 0.0
C173 C 0.41643 0.91722 0.11529 0.0
C174 C 0.39478 0.92887 0.12982 0.0
C175 C 0.39031 0.96273 0.13175 0.0
C176 C 0.40778 0.98444 0.11985 0.0
C177 C 0.50785 0.06211 0.10762 0.0
C178 C 0.49353 0.08885 0.11715 0.0
C179 C 0.51018 0.10731 0.13147 0.0
C180 C 0.54125 0.09886 0.1369 0.0
C181 C 0.55591 0.07276 0.1266 0.0
C182 C 0.53935 0.05464 0.11202 0.0
C183 C 0.48872 0.03972 0.09504 0.0
C184 C 0.46849 0.01813 0.1051 0.0
C185 C 0.49076 0.03901 0.07357 0.0
C186 C 0.50977 0.06338 0.06245 0.0
C187 C 0.50125 0.09635 0.06337 0.0
C188 C 0.51879 0.1197 0.0529 0.0
C189 C 0.54524 0.11052 0.04133 0.0
C190 C 0.5539 0.07745 0.04051 0.0
C191 C 0.53608 0.05396 0.05088 0.0
H192 H 0.03159 0.5884 0.90832 0.0
H193 H 0.0673 0.62047 0.88698 0.0
H194 H 0.08866 0.53422 0.85161 0.0
H195 H 0.05389 0.50213 0.87345 0.0
H196 H 0.99334 0.50644 0.87778 0.0
H197 H 0.01613 0.57111 0.95509 0.0
H198 H 0.06091 0.5936 0.97438 0.0
H199 H 0.12383 0.52822 0.94255 0.0
H200 H 0.07926 0.50601 0.92339 0.0
H201 H 0.97497 0.44437 0.95628 0.0
H202 H 0.93242 0.41985 0.97649 0.0
H203 H 0.86434 0.47843 0.94402 0.0
H204 H 0.90684 0.503 0.92406 0.0
H205 H 0.99414 0.50691 0.95343 0.0
H206 H 0.9528 0.42551 0.91023 0.0
H207 H 0.91757 0.39288 0.88915 0.0
H208 H 0.90263 0.47605 0.84977 0.0
H209 H 0.9355 0.50919 0.87198 0.0
C210 C 0.0402 0.5428 0.89256 0.0
C211 C 0.04445 0.57628 0.89622 0.0
C212 C 0.0646 0.59466 0.88387 0.0
C213 C 0.08078 0.57993 0.86756 0.0
C214 C 0.0769 0.54626 0.8642 0.0
C215 C 0.05681 0.52792 0.87656 0.0
C216 C 0.01707 0.52374 0.90467 0.0
C217 C 0.99333 0.5066 0.89432 0.0
C218 C 0.01777 0.52311 0.9262 0.0
C219 C 0.0445 0.53707 0.93777 0.0
C220 C 0.03961 0.5617 0.95232 0.0
C221 C 0.06512 0.57457 0.96323 0.0
C222 C 0.09571 0.56248 0.95999 0.0
C223 C 0.10043 0.53771 0.94549 0.0
C224 C 0.07507 0.52518 0.93445 0.0
C225 C 0.94399 0.47535 0.93862 0.0
C226 C 0.95085 0.45194 0.95359 0.0
C227 C 0.92658 0.43785 0.96502 0.0
C228 C 0.89514 0.44734 0.96186 0.0
C229 C 0.8884 0.47093 0.94694 0.0
C230 C 0.9126 0.48479 0.93542 0.0
C231 C 0.96962 0.49037 0.92651 0.0
C232 C 0.99382 0.50688 0.93688 0.0
C233 C 0.96976 0.4895 0.90491 0.0
C234 C 0.94663 0.47003 0.8929 0.0
C235 C 0.94115 0.43702 0.89743 0.0
C236 C 0.92139 0.41815 0.88508 0.0
C237 C 0.9073 0.4316 0.86755 0.0
C238 C 0.91251 0.46481 0.86325 0.0
C239 C 0.93172 0.4838 0.87585 0.0
H240 H 0.49009 0.54875 0.22034 0.0
H241 H 0.45688 0.58598 0.23916 0.0
H242 H 0.37784 0.56 0.20056 0.0
H243 H 0.41013 0.51905 0.18398 0.0
H244 H 0.49834 0.49169 0.2152 0.0
H245 H 0.47026 0.57401 0.16501 0.0
H246 H 0.44394 0.60706 0.13875 0.0
H247 H 0.40444 0.51977 0.11231 0.0
H248 H 0.42998 0.48685 0.13869 0.0
H249 H 0.5001 0.41467 0.14446 0.0
H250 H 0.53362 0.38464 0.12049 0.0
H251 H 0.61284 0.44529 0.13722 0.0
H252 H 0.57903 0.47581 0.16072 0.0
H253 H 0.49235 0.48468 0.1398 0.0
H254 H 0.5121 0.40834 0.20148 0.0
H255 H 0.55439 0.37299 0.21419 0.0
H256 H 0.61982 0.45352 0.21085 0.0
H257 H 0.57705 0.4892 0.19892 0.0
C258 C 0.4531 0.53155 0.20017 0.0
C259 C 0.46542 0.55041 0.21619 0.0
C260 C 0.44635 0.57241 0.22674 0.0
C261 C 0.41463 0.57724 0.22107 0.0
C262 C 0.402 0.55731 0.20555 0.0
C263 C 0.42081 0.53425 0.1956 0.0
C264 C 0.47424 0.50956 0.18825 0.0
C265 C 0.49696 0.49073 0.1987 0.0
C266 C 0.47272 0.50732 0.16665 0.0
C267 C 0.45204 0.52797 0.1538 0.0
C268 C 0.45501 0.56212 0.15402 0.0
C269 C 0.44009 0.58093 0.13906 0.0
C270 C 0.42232 0.56573 0.12369 0.0
C271 C 0.41795 0.53186 0.12415 0.0
C272 C 0.43255 0.51314 0.13915 0.0
C273 C 0.53723 0.44707 0.1546 0.0
C274 C 0.52483 0.42108 0.14322 0.0
C275 C 0.54392 0.40404 0.12954 0.0
C276 C 0.57576 0.4127 0.12706 0.0
C277 C 0.58849 0.43785 0.13908 0.0
C278 C 0.56925 0.45516 0.15259 0.0
C279 C 0.51582 0.46793 0.16673 0.0
C280 C 0.49318 0.48613 0.15633 0.0
C281 C 0.51795 0.47044 0.1881 0.0
C282 C 0.54159 0.45124 0.19934 0.0
C283 C 0.53529 0.4186 0.20416 0.0
C284 C 0.5594 0.3985 0.21134 0.0
C285 C 0.59022 0.41067 0.21339 0.0
C286 C 0.5962 0.44372 0.20938 0.0
C287 C 0.57186 0.46403 0.20268 0.0
H288 H 0.49914 0.91932 0.38835 0.0
H289 H 0.46093 0.88941 0.36766 0.0
H290 H 0.38478 0.93994 0.39799 0.0
H291 H 0.42328 0.96979 0.41879 0.0
H292 H 0.50711 0.98459 0.3882 0.0
H293 H 0.47894 0.90216 0.43618 0.0
H294 H 0.43697 0.87155 0.45278 0.0
H295 H 0.41068 0.9579 0.48674 0.0
H296 H 0.45112 0.98896 0.46879 0.0
H297 H 0.52105 0.05676 0.46304 0.0
H298 H 0.55977 0.09548 0.47691 0.0
H299 H 0.63408 0.04468 0.44496 0.0
H300 H 0.59558 0.00597 0.43144 0.0
H301 H 0.51209 0.99022 0.46374 0.0
H302 H 0.53697 0.07258 0.41375 0.0
H303 H 0.56918 0.10549 0.39068 0.0
H304 H 0.60006 0.01767 0.36004 0.0
H305 H 0.5691 0.98495 0.38377 0.0
C306 C 0.46405 0.94671 0.40511 0.0
C307 C 0.47421 0.92379 0.39064 0.0
C308 C 0.45237 0.90683 0.37879 0.0
C309 C 0.41988 0.91257 0.38107 0.0
C310 C 0.40965 0.93485 0.396 0.0
C311 C 0.43159 0.95191 0.40786 0.0
C312 C 0.48765 0.96656 0.41629 0.0
C313 C 0.50857 0.98537 0.40472 0.0
C314 C 0.48893 0.96808 0.43786 0.0
C315 C 0.4675 0.94814 0.45071 0.0
C316 C 0.4641 0.91451 0.4472 0.0
C317 C 0.4403 0.89687 0.45696 0.0
C318 C 0.41992 0.91234 0.47086 0.0
C319 C 0.42528 0.94539 0.47567 0.0
C320 C 0.44869 0.96315 0.4656 0.0
C321 C 0.5554 0.02883 0.44596 0.0
C322 C 0.54576 0.0537 0.45932 0.0
C323 C 0.56783 0.07582 0.46717 0.0
C324 C 0.59978 0.07339 0.46168 0.0
C325 C 0.60949 0.04755 0.44907 0.0
C326 C 0.58756 0.02535 0.44141 0.0
C327 C 0.53179 0.00797 0.43554 0.0
C328 C 0.51083 0.9891 0.44723 0.0
C329 C 0.53048 0.00614 0.414 0.0
C330 C 0.55087 0.02628 0.4006 0.0
C331 C 0.55116 0.06042 0.4023 0.0
C332 C 0.56931 0.07921 0.38895 0.0
C333 C 0.58718 0.06422 0.37347 0.0
C334 C 0.587 0.03 0.37196 0.0
C335 C 0.56906 0.01125 0.38539 0.0
H336 H 0.00118 0.05241 0.69592 0.0
H337 H 0.97922 0.09916 0.71393 0.0
H338 H 0.88934 0.04946 0.7181 0.0
H339 H 0.91132 0.00344 0.69906 0.0
H340 H 0.00506 0.98447 0.7057 0.0
H341 H 0.96065 0.05675 0.65573 0.0
H342 H 0.92309 0.0889 0.6361 0.0
H343 H 0.86244 0.00447 0.63063 0.0
H344 H 0.90066 0.97224 0.65 0.0
H345 H 0.97447 0.89782 0.63789 0.0
H346 H 0.00051 0.86499 0.61167 0.0
H347 H 0.08493 0.92326 0.61863 0.0
H348 H 0.05904 0.95514 0.64522 0.0
H349 H 0.96346 0.96362 0.63616 0.0
H350 H 0.01662 0.88956 0.67821 0.0
H351 H 0.06097 0.85748 0.69086 0.0
H352 H 0.10665 0.94534 0.71188 0.0
H353 H 0.06296 0.97796 0.69811 0.0
C354 C 0.9578 0.02467 0.6961 0.0
C355 C 0.97685 0.05151 0.70094 0.0
C356 C 0.96424 0.07815 0.71137 0.0
C357 C 0.9324 0.07823 0.71749 0.0
C358 C 0.91374 0.05058 0.7133 0.0
C359 C 0.92629 0.02413 0.70257 0.0
C360 C 0.97057 0.99819 0.68325 0.0
C361 C 0.99617 0.9799 0.69045 0.0
C362 C 0.95824 0.99176 0.66365 0.0
C363 C 0.93332 0.01218 0.6544 0.0
C364 C 0.93889 0.04539 0.65074 0.0
C365 C 0.91732 0.06376 0.63953 0.0
C366 C 0.88977 0.04923 0.63169 0.0
C367 C 0.88363 0.01628 0.63618 0.0
C368 C 0.90533 0.99787 0.64733 0.0
C369 C 0.01489 0.92875 0.64355 0.0
C370 C -0.00129 0.90321 0.63388 0.0
C371 C 0.01359 0.88461 0.61883 0.0
C372 C 0.04482 0.89153 0.61295 0.0
C373 C 0.0611 0.91683 0.62298 0.0
C374 C 0.04628 0.93521 0.63814 0.0
C375 C -0.00155 0.9501 0.65837 0.0
C376 C 0.97208 0.96751 0.65156 0.0
C377 C 0.01026 0.95576 0.67827 0.0
C378 C 0.03669 0.9363 0.68676 0.0
C379 C 0.03638 0.90213 0.68515 0.0
C380 C 0.06157 0.88379 0.69247 0.0
C381 C 0.08709 0.89916 0.7021 0.0
C382 C 0.08713 0.93315 0.7044 0.0
C383 C 0.06218 0.95166 0.69663 0.0
C384 C 0.246 0.65557 0.00298 0.0
O385 O 0.2672 0.63425 0.00895 0.0
O386 O 0.31511 0.67457 0.03085 0.0
Zn387 Zn 0.30131 0.69119 0.00334 0.0
O388 O 0.32176 0.66344 0.9817 0.0
C389 C 0.30745 0.75765 0.01495 0.0
O390 O 0.28954 0.74716 0.02994 0.0
O391 O 0.25463 0.68489 6e-05 0.0
C392 C 0.33279 0.67437 0.96505 0.0
O393 O 0.33169 0.70585 0.96141 0.0
C394 C 0.34333 0.66457 0.03261 0.0
O395 O 0.36215 0.6661 0.01672 0.0
O396 O 0.31483 0.73798 0.00077 0.0
C397 C 0.25149 0.83823 0.25483 0.0
O398 O 0.27445 0.85669 0.24788 0.0
O399 O 0.31591 0.81494 0.22569 0.0
Zn400 Zn 0.3031 0.79803 0.25334 0.0
O401 O 0.32803 0.82432 0.27369 0.0
C402 C 0.34103 0.74317 0.26391 0.0
O403 O 0.35549 0.7661 0.27431 0.0
O404 O 0.25721 0.80827 0.25824 0.0
C405 C 0.3202 0.82776 0.29227 0.0
O406 O 0.29428 0.81381 0.29895 0.0
C407 C 0.34368 0.80924 0.21934 0.0
O408 O 0.36254 0.79126 0.23053 0.0
O409 O 0.31546 0.7501 0.2547 0.0
C410 C 0.24848 0.84471 0.49815 0.0
O411 O 0.22255 0.86168 0.50094 0.0
O412 O 0.18166 0.81303 0.5241 0.0
Zn413 Zn 0.20093 0.79952 0.49739 0.0
O414 O 0.17874 0.82411 0.47514 0.0
C415 C 0.19908 0.73169 0.50796 0.0
O416 O 0.21326 0.74251 0.52446 0.0
O417 O 0.24632 0.81385 0.49662 0.0
C418 C 0.18399 0.81854 0.45639 0.0
O419 O 0.20349 0.79503 0.45127 0.0
C420 C 0.15178 0.81307 0.52552 0.0
O421 O 0.13493 0.80374 0.50973 0.0
O422 O 0.19348 0.75151 0.49354 0.0
C423 C 0.2474 0.65065 0.75345 0.0
O424 O 0.22175 0.63268 0.75434 0.0
O425 O 0.17875 0.67302 0.72412 0.0
Zn426 Zn 0.19959 0.69527 0.74797 0.0
O427 O 0.17761 0.68073 0.77361 0.0
C428 C 0.20173 0.75346 0.72565 0.0
O429 O 0.21475 0.7331 0.71265 0.0
O430 O 0.24463 0.68099 0.74999 0.0
C431 C 0.15618 0.69612 0.78313 0.0
O432 O 0.14701 0.72478 0.77644 0.0
C433 C 0.14948 0.67812 0.72146 0.0
O434 O 0.13435 0.69683 0.73446 0.0
O435 O 0.195 0.7433 0.74342 0.0
C436 C 0.73232 0.17743 0.51687 0.0
O437 O 0.73975 0.17553 0.53629 0.0
O438 O 0.80732 0.15891 0.53636 0.0
Zn439 Zn 0.7997 0.18569 0.51119 0.0
O440 O 0.82272 0.16374 0.48813 0.0
C441 C 0.8469 0.22898 0.52155 0.0
O442 O 0.8601 0.20016 0.52351 0.0
O443 O 0.75367 0.18449 0.504 0.0
C444 C 0.8332 0.17903 0.47271 0.0
O445 O 0.82944 0.21079 0.47164 0.0
C446 C 0.80496 0.12804 0.53558 0.0
O447 O 0.79612 0.11419 0.51842 0.0
O448 O 0.81828 0.23042 0.5158 0.0
C449 C 0.74937 0.33589 0.74622 0.0
O450 O 0.77085 0.3573 0.7408 0.0
O451 O 0.82187 0.3193 0.72207 0.0
Zn452 Zn 0.80451 0.29836 0.7476 0.0
O453 O 0.82464 0.31891 0.77248 0.0
C454 C 0.8434 0.24287 0.74576 0.0
O455 O 0.86467 0.26584 0.74836 0.0
O456 O 0.75785 0.30667 0.74957 0.0
C457 C 0.83519 0.30393 0.78801 0.0
O458 O 0.83368 0.27196 0.78879 0.0
C459 C 0.83743 0.3458 0.72253 0.0
O460 O 0.84209 0.36046 0.74011 0.0
O461 O 0.8144 0.25061 0.74549 0.0
C462 C 0.75379 0.34368 0.00736 0.0
O463 O 0.7298 0.36354 0.00996 0.0
O464 O 0.67975 0.32753 0.02864 0.0
Zn465 Zn 0.70172 0.30425 0.00533 0.0
O466 O 0.68731 0.3242 0.9788 0.0
C467 C 0.65974 0.25222 0.00538 0.0
O468 O 0.64186 0.27736 0.00093 0.0
O469 O 0.74834 0.31321 0.00623 0.0
C470 C 0.67795 0.30987 0.96271 0.0
O471 O 0.67666 0.27788 0.96206 0.0
C472 C 0.65493 0.3441 0.02532 0.0
O473 O 0.64454 0.34704 0.00655 0.0
O474 O 0.68925 0.25674 0.00746 0.0
C475 C 0.74764 0.14523 0.25674 0.0
O476 O 0.72243 0.12672 0.25513 0.0
O477 O 0.68033 0.17231 0.22681 0.0
Zn478 Zn 0.69882 0.18918 0.25318 0.0
O479 O 0.67604 0.16799 0.27671 0.0
C480 C 0.69393 0.25647 0.23986 0.0
O481 O 0.70605 0.24528 0.22279 0.0
O482 O 0.74437 0.176 0.25555 0.0
C483 C 0.65358 0.18154 0.28637 0.0
O484 O 0.64402 0.21069 0.28087 0.0
C485 C 0.65066 0.17446 0.22443 0.0
O486 O 0.63365 0.18776 0.23896 0.0
O487 O 0.69117 0.23739 0.25499 0.0
H488 H 0.12285 0.88785 0.29231 0.0
H489 H 0.15899 0.97891 0.26912 0.0
H490 H 0.20375 0.95056 0.25385 0.0
H491 H 0.2344 0.90097 0.24926 0.0
H492 H 0.20033 0.80963 0.27343 0.0
H493 H 0.15268 0.8369 0.28591 0.0
C494 C 0.14033 0.90128 0.28364 0.0
C495 C 0.13784 0.93539 0.28191 0.0
C496 C 0.16637 0.88485 0.2752 0.0
C497 C 0.16068 0.95268 0.2708 0.0
C498 C 0.18621 0.9365 0.26206 0.0
C499 C 0.21648 0.88686 0.2571 0.0
C500 C 0.22106 0.85335 0.26054 0.0
C501 C 0.18961 0.90274 0.26452 0.0
C502 C 0.19744 0.83549 0.27063 0.0
C503 C 0.17024 0.85109 0.27782 0.0
H504 H 0.10773 0.61125 0.50301 0.0
H505 H 0.15269 0.58978 0.56045 0.0
H506 H 0.1898 0.63455 0.55521 0.0
H507 H 0.20502 0.68386 0.53643 0.0
H508 H 0.15926 0.70612 0.4793 0.0
H509 H 0.12723 0.65691 0.48222 0.0
C510 C 0.12594 0.61617 0.51423 0.0
C511 C 0.12731 0.59742 0.53214 0.0
C512 C 0.1469 0.64227 0.51127 0.0
C513 C 0.15127 0.6037 0.54645 0.0
C514 C 0.17234 0.62949 0.54355 0.0
C515 C 0.18842 0.67769 0.52444 0.0
C516 C 0.18422 0.69897 0.50785 0.0
C517 C 0.16974 0.64954 0.52632 0.0
C518 C 0.16285 0.69035 0.49233 0.0
C519 C 0.14438 0.66226 0.49402 0.0
H520 H 0.38716 0.60964 0.7744 0.0
H521 H 0.33864 0.52164 0.79256 0.0
H522 H 0.28885 0.54425 0.78085 0.0
H523 H 0.25862 0.5896 0.76705 0.0
H524 H 0.30578 0.67909 0.75054 0.0
H525 H 0.35655 0.65537 0.76023 0.0
C526 C 0.36568 0.59548 0.77589 0.0
C527 C 0.36677 0.56389 0.78427 0.0
C528 C 0.33686 0.60891 0.76952 0.0
C529 C 0.3387 0.54574 0.78582 0.0
C530 C 0.31011 0.55875 0.77929 0.0
C531 C 0.27999 0.60391 0.76542 0.0
C532 C 0.27841 0.63607 0.75811 0.0
C533 C 0.30889 0.59036 0.77128 0.0
C534 C 0.30636 0.65428 0.75617 0.0
C535 C 0.33538 0.64075 0.76173 0.0
H536 H 0.39028 0.88551 0.01214 0.0
H537 H 0.34173 0.90202 0.06911 0.0
H538 H 0.31007 0.85325 0.06365 0.0
H539 H 0.29902 0.80363 0.04424 0.0
H540 H 0.34875 0.78536 0.98792 0.0
H541 H 0.37703 0.83697 0.99163 0.0
C542 C 0.3727 0.87847 0.02331 0.0
C543 C 0.36841 0.89749 0.04097 0.0
C544 C 0.35489 0.84993 0.02028 0.0
C545 C 0.34524 0.88821 0.0552 0.0
C546 C 0.32727 0.86011 0.0522 0.0
C547 C 0.31581 0.81104 0.03265 0.0
C548 C 0.32192 0.7905 0.01593 0.0
C549 C 0.33227 0.8405 0.03499 0.0
C550 C 0.34366 0.80062 0.00101 0.0
C551 C 0.35992 0.83011 0.00314 0.0
H552 H 0.11184 0.62608 0.96563 0.0
H553 H 0.14058 0.52788 0.98002 0.0
H554 H 0.18837 0.54851 0.99634 0.0
H555 H 0.22366 0.59381 0.00413 0.0
H556 H 0.19665 0.69219 0.98861 0.0
H557 H 0.14621 0.67221 0.97542 0.0
C558 C 0.12839 0.60933 0.97263 0.0
C559 C 0.12292 0.57554 0.97153 0.0
C560 C 0.15611 0.62136 0.98169 0.0
C561 C 0.14457 0.55398 0.98049 0.0
C562 C 0.17182 0.56575 0.98984 0.0
C563 C 0.20666 0.611 0.99807 0.0
C564 C 0.21403 0.64441 0.99721 0.0
C565 C 0.17812 0.59931 0.99015 0.0
C566 C 0.19162 0.66631 0.98937 0.0
C567 C 0.16281 0.6549 0.98177 0.0
H568 H 0.43601 0.63532 0.23619 0.0
H569 H 0.34991 0.58059 0.22705 0.0
H570 H 0.31933 0.62689 0.23941 0.0
H571 H 0.317 0.68407 0.25188 0.0
H572 H 0.40418 0.73476 0.26449 0.0
H573 H 0.43426 0.68812 0.25256 0.0
C574 C 0.41067 0.63269 0.23742 0.0
C575 C 0.39562 0.60414 0.23043 0.0
C576 C 0.39325 0.6588 0.24531 0.0
C577 C 0.36245 0.60235 0.23173 0.0
C578 C 0.34482 0.62878 0.23902 0.0
C579 C 0.34257 0.68463 0.25222 0.0
C580 C 0.35829 0.7129 0.25896 0.0
C581 C 0.35996 0.65732 0.24564 0.0
C582 C 0.39143 0.71328 0.25948 0.0
C583 C 0.40873 0.68667 0.25253 0.0
H584 H 0.36158 0.93769 0.47709 0.0
H585 H 0.41395 0.84775 0.48194 0.0
H586 H 0.36564 0.81872 0.49111 0.0
H587 H 0.30784 0.81861 0.4963 0.0
H588 H 0.25704 0.90971 0.49282 0.0
H589 H 0.30567 0.93856 0.48511 0.0
C590 C 0.36279 0.91191 0.48066 0.0
C591 C 0.39151 0.89504 0.47874 0.0
C592 C 0.3351 0.89546 0.48613 0.0
C593 C 0.39215 0.86137 0.48296 0.0
C594 C 0.36453 0.84473 0.4883 0.0
C595 C 0.30751 0.84479 0.49398 0.0
C596 C 0.27878 0.86188 0.49498 0.0
C597 C 0.33574 0.86146 0.48963 0.0
C598 C 0.27876 0.89586 0.49211 0.0
C599 C 0.30658 0.91246 0.48765 0.0
H600 H 0.12722 0.86287 0.67991 0.0
H601 H 0.10452 0.89049 0.74157 0.0
H602 H 0.14169 0.84978 0.7547 0.0
H603 H 0.17532 0.80191 0.74837 0.0
H604 H 0.19808 0.77489 0.68641 0.0
H605 H 0.16678 0.82026 0.67363 0.0
C606 C 0.13101 0.86028 0.6962 0.0
C607 C 0.11325 0.87915 0.70984 0.0
C608 C 0.15223 0.8369 0.70354 0.0
C609 C 0.11815 0.87604 0.7309 0.0
C610 C 0.13921 0.85272 0.73836 0.0
C611 C 0.17392 0.80633 0.73209 0.0
C612 C 0.18855 0.7847 0.71837 0.0
C613 C 0.15563 0.83234 0.7248 0.0
C614 C 0.18688 0.79099 0.69732 0.0
C615 C 0.16882 0.81685 0.68997 0.0
H616 H 0.61376 0.36648 0.78056 0.0
H617 H 0.64185 0.46362 0.76311 0.0
H618 H 0.68996 0.44218 0.74761 0.0
H619 H 0.7261 0.39687 0.74205 0.0
H620 H 0.69988 0.29971 0.76091 0.0
H621 H 0.6487 0.31999 0.77255 0.0
C622 C 0.6302 0.38275 0.77299 0.0
C623 C 0.62454 0.41652 0.77302 0.0
C624 C 0.65816 0.37032 0.76454 0.0
C625 C 0.64601 0.43755 0.76338 0.0
C626 C 0.67345 0.42532 0.75455 0.0
C627 C 0.7091 0.37999 0.74849 0.0
C628 C 0.71695 0.3469 0.75081 0.0
C629 C 0.68014 0.39189 0.75552 0.0
C630 C 0.6945 0.32536 0.75905 0.0
C631 C 0.66527 0.33695 0.76577 0.0
H632 H 0.60901 0.11931 0.04096 0.0
H633 H 0.52212 0.15843 0.01708 0.0
H634 H 0.55072 0.20415 0.00211 0.0
H635 H 0.59924 0.23531 0.99841 0.0
H636 H 0.68647 0.19798 0.0229 0.0
H637 H 0.65905 0.14885 0.03465 0.0
C638 C 0.59651 0.13758 0.03216 0.0
C639 C 0.56349 0.13578 0.03031 0.0
C640 C 0.6131 0.16412 0.0238 0.0
C641 C 0.54748 0.15964 0.01897 0.0
C642 C 0.5638 0.18571 0.01038 0.0
C643 C 0.61241 0.21632 0.00614 0.0
C644 C 0.64476 0.22048 0.00999 0.0
C645 C 0.59645 0.1886 0.01313 0.0
C646 C 0.6615 0.19542 0.0198 0.0
C647 C 0.6458 0.1674 0.02661 0.0
H648 H 0.86352 0.06277 0.28668 0.0
H649 H 0.91223 0.15364 0.27575 0.0
H650 H 0.86308 0.17833 0.26397 0.0
H651 H 0.80571 0.17442 0.25772 0.0
H652 H 0.7586 0.08223 0.26726 0.0
H653 H 0.80798 0.05762 0.27806 0.0
C654 C 0.86374 0.08776 0.28129 0.0
C655 C 0.8917 0.10623 0.28218 0.0
C656 C 0.8356 0.10164 0.27425 0.0
C657 C 0.89104 0.13889 0.27558 0.0
C658 C 0.86295 0.15301 0.26872 0.0
C659 C 0.80633 0.14891 0.26204 0.0
C660 C 0.77841 0.1303 0.26179 0.0
C661 C 0.83499 0.1347 0.26819 0.0
C662 C 0.77966 0.09719 0.26731 0.0
C663 C 0.80791 0.08305 0.27355 0.0
H664 H 0.94209 0.33913 0.54801 0.0
H665 H 0.86947 0.40074 0.52282 0.0
H666 H 0.83772 0.3526 0.51463 0.0
H667 H 0.83073 0.29269 0.51464 0.0
H668 H 0.90479 0.23196 0.5391 0.0
H669 H 0.93595 0.28007 0.54721 0.0
C670 C 0.91956 0.3421 0.54041 0.0
C671 C 0.90831 0.37355 0.53595 0.0
C672 C 0.90162 0.31442 0.53561 0.0
C673 C 0.87863 0.37685 0.52658 0.0
C674 C 0.86051 0.34932 0.52182 0.0
C675 C 0.85367 0.29004 0.52175 0.0
C676 C 0.86533 0.25873 0.52627 0.0
C677 C 0.87173 0.31794 0.52631 0.0
C678 C 0.89519 0.25571 0.5354 0.0
C679 C 0.91309 0.28323 0.54008 0.0
H680 H 0.6084 0.09714 0.50014 0.0
H681 H 0.64334 0.10477 0.43854 0.0
H682 H 0.68521 0.14138 0.44994 0.0
H683 H 0.71465 0.16688 0.47765 0.0
H684 H 0.68168 0.15755 0.53966 0.0
H685 H 0.63583 0.1267 0.5278 0.0
C686 C 0.62493 0.10726 0.48922 0.0
C687 C 0.62311 0.09796 0.4686 0.0
C688 C 0.64927 0.12797 0.49593 0.0
C689 C 0.64468 0.11112 0.45456 0.0
C690 C 0.66852 0.13215 0.46105 0.0
C691 C 0.69721 0.15862 0.48859 0.0
C692 C 0.7018 0.16427 0.50954 0.0
C693 C 0.67148 0.14011 0.48175 0.0
C694 C 0.67884 0.1534 0.52345 0.0
C695 C 0.65268 0.1356 0.51669 0.0
H696 H 0.87328 0.10296 0.71191 0.0
H697 H 0.96011 0.12043 0.74466 0.0
H698 H 0.93971 0.17246 0.75685 0.0
H699 H 0.89857 0.21456 0.75643 0.0
H700 H 0.81067 0.19567 0.72545 0.0
H701 H 0.82986 0.14204 0.71487 0.0
C702 C 0.88755 0.11765 0.72212 0.0
C703 C 0.91845 0.10785 0.72705 0.0
C704 C 0.8755 0.14733 0.72938 0.0
C705 C 0.93658 0.12764 0.74013 0.0
C706 C 0.92487 0.15736 0.74724 0.0
C707 C 0.88354 0.19855 0.74751 0.0
C708 C 0.85344 0.20912 0.74151 0.0
C709 C 0.89463 0.16773 0.74161 0.0
C710 C 0.83397 0.18803 0.73023 0.0
C711 C 0.84498 0.15745 0.7241 0.0
H712 H 0.88531 0.38304 0.9701 0.0
H713 H 0.84682 0.479 0.98057 0.0
H714 H 0.80124 0.45513 0.99771 0.0
H715 H 0.77047 0.40727 0.00711 0.0
H716 H 0.80728 0.31084 0.99563 0.0
H717 H 0.85584 0.33465 0.98199 0.0
C718 C 0.86716 0.39867 0.97644 0.0
C719 C 0.8692 0.43269 0.9739 0.0
C720 C 0.84079 0.38474 0.98607 0.0
C721 C 0.84546 0.45272 0.98205 0.0
C722 C 0.81949 0.43911 0.99192 0.0
C723 C 0.78923 0.39135 0.00187 0.0
C724 C 0.7851 0.35732 0.0022 0.0
C725 C 0.8166 0.40516 0.9936 0.0
C726 C 0.8098 0.33713 0.99549 0.0
C727 C 0.8375 0.35074 0.98758 0.0
H728 H 0.59694 0.37162 0.24633 0.0
H729 H 0.64125 0.39859 0.18968 0.0
H730 H 0.67996 0.35478 0.19379 0.0
H731 H 0.69724 0.30516 0.21169 0.0
H732 H 0.65335 0.27921 0.26885 0.0
H733 H 0.6189 0.32652 0.26655 0.0
C734 C 0.61547 0.36814 0.23513 0.0
C735 C 0.61632 0.38795 0.21772 0.0
C736 C 0.63758 0.34302 0.23762 0.0
C737 C 0.64039 0.38358 0.20326 0.0
C738 C 0.66235 0.35846 0.20555 0.0
C739 C 0.6805 0.31016 0.2238 0.0
C740 C 0.67756 0.28834 0.24022 0.0
C741 C 0.66063 0.33747 0.2224 0.0
C742 C 0.65602 0.29542 0.25594 0.0
C743 C 0.63614 0.32243 0.25462 0.0
H744 H 0.13113 0.89416 0.37975 0.0
H745 H 0.09843 0.95882 0.42724 0.0
H746 H 0.12211 0.92381 0.45308 0.0
H747 H 0.15128 0.87458 0.46227 0.0
H748 H 0.18437 0.80966 0.41502 0.0
H749 H 0.16098 0.84482 0.38902 0.0
C750 C 0.12912 0.90049 0.39576 0.0
C751 C 0.11313 0.92911 0.40155 0.0
C752 C 0.14267 0.88014 0.41058 0.0
C753 C 0.11102 0.9372 0.42235 0.0
C754 C 0.12434 0.91707 0.43715 0.0
C755 C 0.15331 0.86801 0.44629 0.0
C756 C 0.16943 0.83944 0.44061 0.0
C757 C 0.14009 0.88844 0.43145 0.0
C758 C 0.17205 0.83149 0.41982 0.0
C759 C 0.1587 0.8516 0.40494 0.0
H760 H 0.05784 0.61952 0.65523 0.0
H761 H 0.14638 0.59491 0.62665 0.0
H762 H 0.17504 0.62072 0.65473 0.0
H763 H 0.17484 0.64901 0.68789 0.0
H764 H 0.08599 0.6746 0.71578 0.0
H765 H 0.05758 0.64998 0.68732 0.0
C766 C 0.0834 0.62033 0.65491 0.0
C767 C 0.09991 0.60529 0.63884 0.0
C768 C 0.09968 0.63521 0.67105 0.0
C769 C 0.13308 0.606 0.63894 0.0
C770 C 0.14948 0.62081 0.65496 0.0
C771 C 0.14926 0.64917 0.68773 0.0
C772 C 0.13257 0.66344 0.70399 0.0
C773 C 0.13302 0.63516 0.67122 0.0
C774 C 0.09944 0.66376 0.70347 0.0
C775 C 0.08314 0.64968 0.6872 0.0
H776 H 0.38748 0.56015 0.9109 0.0
H777 H 0.42401 0.64176 0.87686 0.0
H778 H 0.39763 0.67974 0.90006 0.0
H779 H 0.36593 0.68967 0.93081 0.0
H780 H 0.33102 0.60785 0.96555 0.0
H781 H 0.3549 0.57008 0.94128 0.0
C782 C 0.38925 0.58626 0.90844 0.0
C783 C 0.40755 0.59821 0.89224 0.0
C784 C 0.37452 0.6079 0.92204 0.0
C785 C 0.41014 0.63207 0.88934 0.0
C786 C 0.39508 0.65375 0.90258 0.0
C787 C 0.36342 0.66359 0.93302 0.0
C788 C 0.34679 0.65166 0.95 0.0
C789 C 0.37752 0.64195 0.91913 0.0
C790 C 0.34385 0.61774 0.95267 0.0
C791 C 0.35744 0.59608 0.93878 0.0
H792 H 0.42039 0.87669 0.14901 0.0
H793 H 0.33338 0.93027 0.14285 0.0
H794 H 0.30901 0.89632 0.16914 0.0
H795 H 0.31376 0.854 0.1955 0.0
H796 H 0.40122 0.80099 0.20159 0.0
H797 H 0.42381 0.83172 0.17334 0.0
C798 C 0.39588 0.88051 0.15307 0.0
C799 C 0.37879 0.90608 0.14404 0.0
C800 C 0.38213 0.86109 0.16825 0.0
C801 C 0.34719 0.91103 0.14977 0.0
C802 C 0.33322 0.89158 0.16475 0.0
C803 C 0.33764 0.8489 0.1905 0.0
C804 C 0.35585 0.82543 0.20079 0.0
C805 C 0.35068 0.86696 0.17438 0.0
C806 C 0.38673 0.81908 0.19406 0.0
C807 C 0.39971 0.83667 0.17791 0.0
H808 H 0.06772 0.64004 0.85205 0.0
H809 H 0.1381 0.56403 0.85127 0.0
H810 H 0.16822 0.59403 0.82571 0.0
H811 H 0.1732 0.6403 0.80239 0.0
H812 H 0.10323 0.71673 0.80325 0.0
H813 H 0.07466 0.68836 0.83033 0.0
C814 C 0.08994 0.6303 0.84658 0.0
C815 C 0.10049 0.59968 0.85347 0.0
C816 C 0.10717 0.64769 0.83187 0.0
C817 C 0.12915 0.58726 0.84598 0.0
C818 C 0.14646 0.60446 0.83143 0.0
C819 C 0.15179 0.6509 0.80856 0.0
C820 C 0.14023 0.68047 0.80067 0.0
C821 C 0.13543 0.63442 0.82403 0.0
C822 C 0.11262 0.69397 0.809 0.0
C823 C 0.09622 0.67772 0.82445 0.0
H824 H 0.3723 0.60688 0.12017 0.0
H825 H 0.44977 0.56475 0.08683 0.0
H826 H 0.43294 0.59277 0.05578 0.0
H827 H 0.39547 0.62775 0.03798 0.0
H828 H 0.31605 0.66817 0.07043 0.0
H829 H 0.33424 0.64245 0.10199 0.0
C830 C 0.38544 0.60418 0.10608 0.0
C831 C 0.41221 0.58411 0.10559 0.0
C832 C 0.37524 0.61991 0.0882 0.0
C833 C 0.42912 0.58028 0.08737 0.0
C834 C 0.4195 0.59621 0.06968 0.0
C835 C 0.38222 0.63114 0.05197 0.0
C836 C 0.35451 0.64988 0.05187 0.0
C837 C 0.39249 0.61589 0.06989 0.0
C838 C 0.33744 0.65375 0.0701 0.0
C839 C 0.34784 0.63908 0.08815 0.0
H840 H 0.42502 0.90528 0.34022 0.0
H841 H 0.36329 0.88414 0.3908 0.0
H842 H 0.32631 0.85685 0.36768 0.0
H843 H 0.31243 0.83772 0.33314 0.0
H844 H 0.37516 0.85873 0.28292 0.0
H845 H 0.41096 0.8871 0.30593 0.0
C846 C 0.40361 0.89443 0.34623 0.0
C847 C 0.39704 0.89643 0.3672 0.0
C848 C 0.38266 0.87873 0.33292 0.0
C849 C 0.36882 0.883 0.37468 0.0
C850 C 0.34776 0.86729 0.36149 0.0
C851 C 0.33388 0.84859 0.32723 0.0
C852 C 0.3411 0.84597 0.30633 0.0
C853 C 0.35453 0.86485 0.34058 0.0
C854 C 0.36899 0.86028 0.29892 0.0
C855 C 0.38954 0.87652 0.31207 0.0
H856 H 0.1061 0.87171 0.6095 0.0
H857 H 0.01722 0.87166 0.57732 0.0
H858 H 0.04208 0.84538 0.54814 0.0
H859 H 0.08947 0.82535 0.5309 0.0
H860 H 0.17906 0.82821 0.56213 0.0
H861 H 0.15353 0.8509 0.59239 0.0
C862 C 0.09217 0.86612 0.59608 0.0
C863 C 0.0598 0.87373 0.59569 0.0
C864 C 0.10677 0.85171 0.57909 0.0
C865 C 0.04205 0.86568 0.57826 0.0
C866 C 0.0563 0.85089 0.56144 0.0
C867 C 0.10342 0.83072 0.54436 0.0
C868 C 0.13614 0.82519 0.54421 0.0
C869 C 0.0887 0.84417 0.56159 0.0
C870 C 0.15384 0.83237 0.56179 0.0
C871 C 0.13927 0.84534 0.57911 0.0
H872 H 0.63585 0.41546 0.89888 0.0
H873 H 0.56657 0.3411 0.88546 0.0
H874 H 0.5925 0.30396 0.90898 0.0
H875 H 0.63217 0.29394 0.93559 0.0
H876 H 0.69746 0.37044 0.95178 0.0
H877 H 0.67543 0.40551 0.92527 0.0
C878 C 0.62618 0.39126 0.90117 0.0
C879 C 0.59915 0.38134 0.89033 0.0
C880 C 0.6404 0.37038 0.91539 0.0
C881 C 0.5876 0.34945 0.89323 0.0
C882 C 0.60224 0.32818 0.90689 0.0
C883 C 0.6418 0.31813 0.93309 0.0
C884 C 0.66637 0.32963 0.94553 0.0
C885 C 0.62832 0.33856 0.9183 0.0
C886 C 0.67843 0.36116 0.94238 0.0
C887 C 0.66585 0.3812 0.92726 0.0
H888 H 0.60398 0.11422 0.14091 0.0
H889 H 0.51466 0.12035 0.17243 0.0
H890 H 0.5404 0.14569 0.20152 0.0
H891 H 0.58824 0.16412 0.21875 0.0
H892 H 0.67831 0.15496 0.18866 0.0
H893 H 0.65233 0.13224 0.15848 0.0
C894 C 0.59013 0.12091 0.15417 0.0
C895 C 0.55729 0.11554 0.15426 0.0
C896 C 0.60523 0.13473 0.17122 0.0
C897 C 0.5398 0.12481 0.17158 0.0
C898 C 0.55455 0.13904 0.18839 0.0
C899 C 0.60223 0.15731 0.20556 0.0
C900 C 0.63515 0.16126 0.20596 0.0
C901 C 0.58724 0.1439 0.18843 0.0
C902 C 0.65292 0.15208 0.18878 0.0
C903 C 0.63807 0.13913 0.17151 0.0
H904 H 0.8991 0.08276 0.41082 0.0
H905 H 0.9302 0.17376 0.38477 0.0
H906 H 0.89993 0.20403 0.41034 0.0
H907 H 0.86627 0.20445 0.44087 0.0
H908 H 0.83694 0.11311 0.46759 0.0
H909 H 0.86475 0.08316 0.44094 0.0
C910 C 0.89884 0.10921 0.41059 0.0
C911 C 0.91668 0.12606 0.39594 0.0
C912 C 0.88189 0.12637 0.42553 0.0
C913 C 0.91668 0.16033 0.39599 0.0
C914 C 0.89939 0.1776 0.41058 0.0
C915 C 0.86583 0.178 0.44081 0.0
C916 C 0.84959 0.16109 0.45623 0.0
C917 C 0.88221 0.16087 0.42557 0.0
C918 C 0.84937 0.12678 0.45597 0.0
C919 C 0.86523 0.10959 0.44071 0.0
H920 H 0.88924 0.38584 0.6357 0.0
H921 H 0.91338 0.47312 0.66914 0.0
H922 H 0.8897 0.45058 0.69991 0.0
H923 H 0.86377 0.40556 0.71767 0.0
H924 H 0.8395 0.31795 0.68461 0.0
H925 H 0.86179 0.34104 0.65342 0.0
C926 C 0.88929 0.39987 0.64974 0.0
C927 C 0.90294 0.43115 0.65009 0.0
C928 C 0.87578 0.38666 0.66748 0.0
C929 C 0.90259 0.44919 0.66835 0.0
C930 C 0.88927 0.43623 0.68601 0.0
C931 C 0.86332 0.39148 0.70366 0.0
C932 C 0.85015 0.36003 0.70351 0.0
C933 C 0.87603 0.40492 0.68579 0.0
C934 C 0.84953 0.34225 0.68515 0.0
C935 C 0.8623 0.35541 0.66731 0.0
H936 H 0.56849 0.12077 0.35542 0.0
H937 H 0.64563 0.05217 0.35743 0.0
H938 H 0.67289 0.0824 0.33067 0.0
H939 H 0.67419 0.12741 0.30609 0.0
H940 H 0.59796 0.1971 0.30491 0.0
H941 H 0.57124 0.16759 0.33225 0.0
C942 C 0.59152 0.11271 0.35029 0.0
C943 C 0.60486 0.08409 0.35836 0.0
C944 C 0.6072 0.13034 0.33501 0.0
C945 C 0.63453 0.07379 0.35125 0.0
C946 C 0.65022 0.09114 0.33601 0.0
C947 C 0.65174 0.13617 0.31183 0.0
C948 C 0.63798 0.16427 0.30338 0.0
C949 C 0.63661 0.11923 0.32762 0.0
C950 C 0.60905 0.17551 0.31113 0.0
C951 C 0.59373 0.15863 0.32675 0.0
H952 H 0.8625 0.02663 0.59693 0.0
H953 H 0.87154 0.11331 0.63394 0.0
H954 H 0.84419 0.14507 0.60788 0.0
H955 H 0.82147 0.14893 0.57352 0.0
H956 H 0.81209 0.06192 0.5368 0.0
H957 H 0.83514 0.02943 0.56413 0.0
C958 C 0.85783 0.05229 0.59958 0.0
C959 C 0.86932 0.06758 0.61732 0.0
C960 C 0.84216 0.07039 0.58455 0.0
C961 C 0.86344 0.10102 0.62028 0.0
C962 C 0.84771 0.11918 0.60541 0.0
C963 C 0.82417 0.1228 0.57156 0.0
C964 C 0.81542 0.10796 0.55304 0.0
C965 C 0.83763 0.10426 0.58729 0.0
C966 C 0.81877 0.07403 0.55085 0.0
C967 C 0.83204 0.05541 0.56645 0.0
H968 H 0.91692 0.36746 0.85768 0.0
H969 H 0.85531 0.44888 0.84498 0.0
H970 H 0.82807 0.41675 0.81916 0.0
H971 H 0.82265 0.36609 0.79938 0.0
H972 H 0.88104 0.28332 0.81408 0.0
H973 H 0.90808 0.31526 0.84035 0.0
C974 C 0.8971 0.37811 0.84966 0.0
C975 C 0.88862 0.41087 0.85322 0.0
C976 C 0.88093 0.35923 0.83515 0.0
C977 C 0.86307 0.4241 0.84229 0.0
C978 C 0.84725 0.40565 0.82758 0.0
C979 C 0.84123 0.35506 0.80841 0.0
C980 C 0.85009 0.32255 0.80471 0.0
C981 C 0.85625 0.37335 0.8237 0.0
C982 C 0.87384 0.30833 0.81667 0.0
C983 C 0.88935 0.3266 0.83164 0.0
H984 H 0.55906 0.40604 0.08767 0.0
H985 H 0.63517 0.3869 0.12952 0.0
H986 H 0.66673 0.3638 0.10167 0.0
H987 H 0.67242 0.34932 0.06528 0.0
H988 H 0.59626 0.37059 0.02364 0.0
H989 H 0.56496 0.39257 0.05157 0.0
C990 C 0.58243 0.39646 0.09071 0.0
C991 C 0.59471 0.39774 0.11058 0.0
C992 C 0.60045 0.38378 0.07466 0.0
C993 C 0.62529 0.38603 0.1143 0.0
C994 C 0.64327 0.37285 0.0984 0.0
C995 C 0.64899 0.35879 0.06234 0.0
C996 C 0.63671 0.35826 0.04239 0.0
C997 C 0.63109 0.37168 0.0785 0.0
C998 C 0.60636 0.37078 0.03881 0.0
C999 C 0.58836 0.38328 0.05478 0.0
loop_
_geom_bond_atom_site_label_1
_geom_bond_atom_site_label_2
_geom_bond_distance
_geom_bond_site_symmetry_2
_ccdc_geom_bond_type
H0 C19 0.949 . S
H1 C20 0.950 . S
H2 C22 0.950 . S
H3 C23 0.950 . S
H4 C25 0.950 . S
H5 C28 0.950 . S
H6 C29 0.950 . S
H7 C31 0.951 . S
H8 C32 0.949 1_565 S
H9 C34 0.949 . S
H10 C35 0.950 . S
H11 C37 0.950 . S
H12 C38 0.950 . S
H13 C40 0.950 . S
H14 C43 0.950 . S
H15 C44 0.950 . S
H16 C46 0.951 . S
H17 C47 0.949 1_545 S
C18 C19 1.376 . S
C18 C23 1.386 . S
C18 C24 1.483 . S
C19 H0 0.949 . S
C19 C18 1.376 . S
C19 C20 1.397 . S
C20 H1 0.950 . S
C20 C19 1.397 . S
C20 C21 1.391 . S
C21 C20 1.391 . S
C21 C22 1.405 . S
C22 H2 0.950 . S
C22 C21 1.405 . S
C22 C23 1.367 . S
C23 H3 0.950 . S
C23 C18 1.386 . S
C23 C22 1.367 . S
C24 C18 1.483 . S
C24 C25 1.382 1_655 S
C24 C26 1.403 . S
C25 H4 0.950 . S
C25 C24 1.382 1_455 S
C25 C41 1.411 1_545 S
C26 C24 1.403 . S
C26 C27 1.489 . S
C26 C40 1.411 1_545 S
C27 C26 1.489 . S
C27 C28 1.383 . S
C27 C32 1.382 . S
C28 H5 0.950 . S
C28 C27 1.383 . S
C28 C29 1.395 . S
C29 H6 0.950 . S
C29 C28 1.395 . S
C29 C30 1.288 . S
C30 C29 1.288 . S
C30 C31 1.392 . S
C31 H7 0.951 . S
C31 C30 1.392 . S
C31 C32 1.392 . S
C32 H8 0.949 1_545 S
C32 C27 1.382 . S
C32 C31 1.392 . S
C33 C34 1.376 . S
C33 C38 1.386 . S
C33 C39 1.483 . S
C34 H9 0.949 . S
C34 C33 1.376 . S
C34 C35 1.397 . S
C35 H10 0.950 . S
C35 C34 1.397 . S
C35 C36 1.391 . S
C36 C35 1.391 . S
C36 C37 1.405 . S
C37 H11 0.950 . S
C37 C36 1.405 . S
C37 C38 1.367 . S
C38 H12 0.950 . S
C38 C33 1.386 . S
C38 C37 1.367 . S
C39 C33 1.483 . S
C39 C40 1.382 1_455 S
C39 C41 1.403 . S
C40 H13 0.950 . S
C40 C26 1.411 1_565 S
C40 C39 1.382 1_655 S
C41 C25 1.411 1_565 S
C41 C39 1.403 . S
C41 C42 1.489 . S
C42 C41 1.489 . S
C42 C43 1.383 . S
C42 C47 1.382 . S
C43 H14 0.950 . S
C43 C42 1.383 . S
C43 C44 1.395 . S
C44 H15 0.950 . S
C44 C43 1.395 . S
C44 C45 1.288 . S
C45 C44 1.288 . S
C45 C46 1.392 . S
C46 H16 0.951 . S
C46 C45 1.392 . S
C46 C47 1.392 . S
C47 H17 0.949 1_565 S
C47 C42 1.382 . S
C47 C46 1.392 . S
H48 C67 0.949 1_455 S
H49 C68 0.950 . S
H50 C70 0.950 . S
H51 C71 0.950 . S
H52 C73 0.950 . S
H53 C76 0.950 . S
H54 C77 0.950 . S
H55 C79 0.951 . S
H56 C80 0.949 . S
H57 C82 0.949 1_655 S
H58 C83 0.950 . S
H59 C85 0.950 . S
H60 C86 0.950 . S
H61 C88 0.950 . S
H62 C91 0.950 . S
H63 C92 0.950 . S
H64 C94 0.951 . S
H65 C95 0.949 . S
C66 C67 1.376 . S
C66 C71 1.386 . S
C66 C72 1.483 . S
C67 H48 0.949 1_655 S
C67 C66 1.376 . S
C67 C68 1.397 . S
C68 H49 0.950 . S
C68 C67 1.397 . S
C68 C69 1.391 . S
C69 C68 1.391 . S
C69 C70 1.405 . S
C70 H50 0.950 . S
C70 C69 1.405 . S
C70 C71 1.367 . S
C71 H51 0.950 . S
C71 C66 1.386 . S
C71 C70 1.367 . S
C72 C66 1.483 . S
C72 C73 1.382 1_655 S
C72 C74 1.403 . S
C73 H52 0.950 . S
C73 C72 1.382 1_455 S
C73 C89 1.411 . S
C74 C72 1.403 . S
C74 C75 1.489 . S
C74 C88 1.411 . S
C75 C74 1.489 . S
C75 C76 1.383 . S
C75 C80 1.382 . S
C76 H53 0.950 . S
C76 C75 1.383 . S
C76 C77 1.395 . S
C77 H54 0.950 . S
C77 C76 1.395 . S
C77 C78 1.288 . S
C78 C77 1.288 . S
C78 C79 1.392 . S
C79 H55 0.951 . S
C79 C78 1.392 . S
C79 C80 1.392 . S
C80 H56 0.949 . S
C80 C75 1.382 . S
C80 C79 1.392 . S
C81 C82 1.376 . S
C81 C86 1.386 . S
C81 C87 1.483 . S
C82 H57 0.949 1_455 S
C82 C81 1.376 . S
C82 C83 1.397 . S
C83 H58 0.950 . S
C83 C82 1.397 . S
C83 C84 1.391 . S
C84 C83 1.391 . S
C84 C85 1.405 . S
C85 H59 0.950 . S
C85 C84 1.405 . S
C85 C86 1.367 . S
C86 H60 0.950 . S
C86 C81 1.386 . S
C86 C85 1.367 . S
C87 C81 1.483 . S
C87 C88 1.382 1_455 S
C87 C89 1.403 . S
C88 H61 0.950 . S
C88 C74 1.411 . S
C88 C87 1.382 1_655 S
C89 C73 1.411 . S
C89 C87 1.403 . S
C89 C90 1.489 . S
C90 C89 1.489 . S
C90 C91 1.383 . S
C90 C95 1.382 . S
C91 H62 0.950 . S
C91 C90 1.383 . S
C91 C92 1.395 . S
C92 H63 0.950 . S
C92 C91 1.395 . S
C92 C93 1.288 . S
C93 C92 1.288 . S
C93 C94 1.392 . S
C94 H64 0.951 . S
C94 C93 1.392 . S
C94 C95 1.392 . S
C95 H65 0.949 . S
C95 C90 1.382 . S
C95 C94 1.392 . S
H96 C115 0.949 . S
H97 C116 0.950 . S
H98 C118 0.950 . S
H99 C119 0.950 . S
H100 C121 0.950 . S
H101 C124 0.950 . S
H102 C125 0.950 . S
H103 C127 0.951 . S
H104 C128 0.949 . S
H105 C130 0.949 . S
H106 C131 0.950 . S
H107 C133 0.950 . S
H108 C134 0.950 . S
H109 C136 0.950 . S
H110 C139 0.950 . S
H111 C140 0.950 . S
H112 C142 0.951 . S
H113 C143 0.949 . S
C114 C115 1.376 . S
C114 C119 1.386 . S
C114 C120 1.483 . S
C115 H96 0.949 . S
C115 C114 1.376 . S
C115 C116 1.397 . S
C116 H97 0.950 . S
C116 C115 1.397 . S
C116 C117 1.391 . S
C117 C116 1.391 . S
C117 C118 1.405 . S
C118 H98 0.950 . S
C118 C117 1.405 . S
C118 C119 1.367 . S
C119 H99 0.950 . S
C119 C114 1.386 . S
C119 C118 1.367 . S
C120 C114 1.483 . S
C120 C121 1.382 . S
C120 C122 1.403 . S
C121 H100 0.950 . S
C121 C120 1.382 . S
C121 C137 1.411 . S
C122 C120 1.403 . S
C122 C123 1.489 . S
C122 C136 1.411 . S
C123 C122 1.489 . S
C123 C124 1.383 . S
C123 C128 1.382 . S
C124 H101 0.950 . S
C124 C123 1.383 . S
C124 C125 1.395 . S
C125 H102 0.950 . S
C125 C124 1.395 . S
C125 C126 1.288 . S
C126 C125 1.288 . S
C126 C127 1.392 . S
C127 H103 0.951 . S
C127 C126 1.392 . S
C127 C128 1.392 . S
C128 H104 0.949 . S
C128 C123 1.382 . S
C128 C127 1.392 . S
C129 C130 1.376 . S
C129 C134 1.386 . S
C129 C135 1.483 . S
C130 H105 0.949 . S
C130 C129 1.376 . S
C130 C131 1.397 . S
C131 H106 0.950 . S
C131 C130 1.397 . S
C131 C132 1.391 . S
C132 C131 1.391 . S
C132 C133 1.405 . S
C133 H107 0.950 . S
C133 C132 1.405 . S
C133 C134 1.367 . S
C134 H108 0.950 . S
C134 C129 1.386 . S
C134 C133 1.367 . S
C135 C129 1.483 . S
C135 C136 1.382 . S
C135 C137 1.403 . S
C136 H109 0.950 . S
C136 C122 1.411 . S
C136 C135 1.382 . S
C137 C121 1.411 . S
C137 C135 1.403 . S
C137 C138 1.489 . S
C138 C137 1.489 . S
C138 C139 1.383 . S
C138 C143 1.382 . S
C139 H110 0.950 . S
C139 C138 1.383 . S
C139 C140 1.395 . S
C140 H111 0.950 . S
C140 C139 1.395 . S
C140 C141 1.288 . S
C141 C140 1.288 . S
C141 C142 1.392 . S
C142 H112 0.951 . S
C142 C141 1.392 . S
C142 C143 1.392 . S
C143 H113 0.949 . S
C143 C138 1.382 . S
C143 C142 1.392 . S
H144 C163 0.949 . S
H145 C164 0.950 . S
H146 C166 0.950 . S
H147 C167 0.950 . S
H148 C169 0.950 . S
H149 C172 0.950 . S
H150 C173 0.950 . S
H151 C175 0.951 . S
H152 C176 0.949 . S
H153 C178 0.949 . S
H154 C179 0.950 . S
H155 C181 0.950 . S
H156 C182 0.950 . S
H157 C184 0.950 . S
H158 C187 0.950 . S
H159 C188 0.950 . S
H160 C190 0.951 . S
H161 C191 0.949 . S
C162 C163 1.376 . S
C162 C167 1.386 . S
C162 C168 1.483 . S
C163 H144 0.949 . S
C163 C162 1.376 . S
C163 C164 1.397 . S
C164 H145 0.950 . S
C164 C163 1.397 . S
C164 C165 1.391 . S
C165 C164 1.391 . S
C165 C166 1.405 . S
C166 H146 0.950 . S
C166 C165 1.405 . S
C166 C167 1.367 . S
C167 H147 0.950 . S
C167 C162 1.386 . S
C167 C166 1.367 . S
C168 C162 1.483 . S
C168 C169 1.382 . S
C168 C170 1.403 . S
C169 H148 0.950 . S
C169 C168 1.382 . S
C169 C185 1.411 1_565 S
C170 C168 1.403 . S
C170 C171 1.489 . S
C170 C184 1.411 1_565 S
C171 C170 1.489 . S
C171 C172 1.383 . S
C171 C176 1.382 . S
C172 H149 0.950 . S
C172 C171 1.383 . S
C172 C173 1.395 . S
C173 H150 0.950 . S
C173 C172 1.395 . S
C173 C174 1.288 . S
C174 C173 1.288 . S
C174 C175 1.392 . S
C175 H151 0.951 . S
C175 C174 1.392 . S
C175 C176 1.392 . S
C176 H152 0.949 . S
C176 C171 1.382 . S
C176 C175 1.392 . S
C177 C178 1.376 . S
C177 C182 1.386 . S
C177 C183 1.483 . S
C178 H153 0.949 . S
C178 C177 1.376 . S
C178 C179 1.397 . S
C179 H154 0.950 . S
C179 C178 1.397 . S
C179 C180 1.391 . S
C180 C179 1.391 . S
C180 C181 1.405 . S
C181 H155 0.950 . S
C181 C180 1.405 . S
C181 C182 1.367 . S
C182 H156 0.950 . S
C182 C177 1.386 . S
C182 C181 1.367 . S
C183 C177 1.483 . S
C183 C184 1.382 . S
C183 C185 1.403 . S
C184 H157 0.950 . S
C184 C170 1.411 1_545 S
C184 C183 1.382 . S
C185 C169 1.411 1_545 S
C185 C183 1.403 . S
C185 C186 1.489 . S
C186 C185 1.489 . S
C186 C187 1.383 . S
C186 C191 1.382 . S
C187 H158 0.950 . S
C187 C186 1.383 . S
C187 C188 1.395 . S
C188 H159 0.950 . S
C188 C187 1.395 . S
C188 C189 1.288 . S
C189 C188 1.288 . S
C189 C190 1.392 . S
C190 H160 0.951 . S
C190 C189 1.392 . S
C190 C191 1.392 . S
C191 H161 0.949 . S
C191 C186 1.382 . S
C191 C190 1.392 . S
H192 C211 0.949 . S
H193 C212 0.950 . S
H194 C214 0.950 . S
H195 C215 0.950 . S
H196 C217 0.950 . S
H197 C220 0.950 . S
H198 C221 0.950 . S
H199 C223 0.951 . S
H200 C224 0.949 . S
H201 C226 0.949 . S
H202 C227 0.950 . S
H203 C229 0.950 . S
H204 C230 0.950 . S
H205 C232 0.950 . S
H206 C235 0.950 . S
H207 C236 0.950 . S
H208 C238 0.951 . S
H209 C239 0.949 . S
C210 C211 1.376 . S
C210 C215 1.386 . S
C210 C216 1.483 . S
C211 H192 0.949 . S
C211 C210 1.376 . S
C211 C212 1.397 . S
C212 H193 0.950 . S
C212 C211 1.397 . S
C212 C213 1.391 . S
C213 C212 1.391 . S
C213 C214 1.405 . S
C214 H194 0.950 . S
C214 C213 1.405 . S
C214 C215 1.367 . S
C215 H195 0.950 . S
C215 C210 1.386 . S
C215 C214 1.367 . S
C216 C210 1.483 . S
C216 C217 1.382 1_455 S
C216 C218 1.403 . S
C217 H196 0.950 . S
C217 C216 1.382 1_655 S
C217 C233 1.411 . S
C218 C216 1.403 . S
C218 C219 1.489 . S
C218 C232 1.411 . S
C219 C218 1.489 . S
C219 C220 1.383 . S
C219 C224 1.382 . S
C220 H197 0.950 . S
C220 C219 1.383 . S
C220 C221 1.395 . S
C221 H198 0.950 . S
C221 C220 1.395 . S
C221 C222 1.288 . S
C222 C221 1.288 . S
C222 C223 1.392 . S
C223 H199 0.951 . S
C223 C222 1.392 . S
C223 C224 1.392 . S
C224 H200 0.949 . S
C224 C219 1.382 . S
C224 C223 1.392 . S
C225 C226 1.376 . S
C225 C230 1.386 . S
C225 C231 1.483 . S
C226 H201 0.949 . S
C226 C225 1.376 . S
C226 C227 1.397 . S
C227 H202 0.950 . S
C227 C226 1.397 . S
C227 C228 1.391 . S
C228 C227 1.391 . S
C228 C229 1.405 . S
C229 H203 0.950 . S
C229 C228 1.405 . S
C229 C230 1.367 . S
C230 H204 0.950 . S
C230 C225 1.386 . S
C230 C229 1.367 . S
C231 C225 1.483 . S
C231 C232 1.382 1_655 S
C231 C233 1.403 . S
C232 H205 0.950 . S
C232 C218 1.411 . S
C232 C231 1.382 1_455 S
C233 C217 1.411 . S
C233 C231 1.403 . S
C233 C234 1.489 . S
C234 C233 1.489 . S
C234 C235 1.383 . S
C234 C239 1.382 . S
C235 H206 0.950 . S
C235 C234 1.383 . S
C235 C236 1.395 . S
C236 H207 0.950 . S
C236 C235 1.395 . S
C236 C237 1.288 . S
C237 C236 1.288 . S
C237 C238 1.392 . S
C238 H208 0.951 . S
C238 C237 1.392 . S
C238 C239 1.392 . S
C239 H209 0.949 . S
C239 C234 1.382 . S
C239 C238 1.392 . S
H240 C259 0.949 . S
H241 C260 0.950 . S
H242 C262 0.950 . S
H243 C263 0.950 . S
H244 C265 0.950 . S
H245 C268 0.950 . S
H246 C269 0.950 . S
H247 C271 0.951 . S
H248 C272 0.949 . S
H249 C274 0.949 . S
H250 C275 0.950 . S
H251 C277 0.950 . S
H252 C278 0.950 . S
H253 C280 0.950 . S
H254 C283 0.950 . S
H255 C284 0.950 . S
H256 C286 0.951 . S
H257 C287 0.949 . S
C258 C259 1.376 . S
C258 C263 1.386 . S
C258 C264 1.483 . S
C259 H240 0.949 . S
C259 C258 1.376 . S
C259 C260 1.397 . S
C260 H241 0.950 . S
C260 C259 1.397 . S
C260 C261 1.391 . S
C261 C260 1.391 . S
C261 C262 1.405 . S
C262 H242 0.950 . S
C262 C261 1.405 . S
C262 C263 1.367 . S
C263 H243 0.950 . S
C263 C258 1.386 . S
C263 C262 1.367 . S
C264 C258 1.483 . S
C264 C265 1.382 . S
C264 C266 1.403 . S
C265 H244 0.950 . S
C265 C264 1.382 . S
C265 C281 1.411 . S
C266 C264 1.403 . S
C266 C267 1.489 . S
C266 C280 1.411 . S
C267 C266 1.489 . S
C267 C268 1.383 . S
C267 C272 1.382 . S
C268 H245 0.950 . S
C268 C267 1.383 . S
C268 C269 1.395 . S
C269 H246 0.950 . S
C269 C268 1.395 . S
C269 C270 1.288 . S
C270 C269 1.288 . S
C270 C271 1.392 . S
C271 H247 0.951 . S
C271 C270 1.392 . S
C271 C272 1.392 . S
C272 H248 0.949 . S
C272 C267 1.382 . S
C272 C271 1.392 . S
C273 C274 1.376 . S
C273 C278 1.386 . S
C273 C279 1.483 . S
C274 H249 0.949 . S
C274 C273 1.376 . S
C274 C275 1.397 . S
C275 H250 0.950 . S
C275 C274 1.397 . S
C275 C276 1.391 . S
C276 C275 1.391 . S
C276 C277 1.405 . S
C277 H251 0.950 . S
C277 C276 1.405 . S
C277 C278 1.367 . S
C278 H252 0.950 . S
C278 C273 1.386 . S
C278 C277 1.367 . S
C279 C273 1.483 . S
C279 C280 1.382 . S
C279 C281 1.403 . S
C280 H253 0.950 . S
C280 C266 1.411 . S
C280 C279 1.382 . S
C281 C265 1.411 . S
C281 C279 1.403 . S
C281 C282 1.489 . S
C282 C281 1.489 . S
C282 C283 1.383 . S
C282 C287 1.382 . S
C283 H254 0.950 . S
C283 C282 1.383 . S
C283 C284 1.395 . S
C284 H255 0.950 . S
C284 C283 1.395 . S
C284 C285 1.288 . S
C285 C284 1.288 . S
C285 C286 1.392 . S
C286 H256 0.951 . S
C286 C285 1.392 . S
C286 C287 1.392 . S
C287 H257 0.949 . S
C287 C282 1.382 . S
C287 C286 1.392 . S
H288 C307 0.949 . S
H289 C308 0.950 . S
H290 C310 0.950 . S
H291 C311 0.950 . S
H292 C313 0.950 . S
H293 C316 0.950 . S
H294 C317 0.950 . S
H295 C319 0.951 . S
H296 C320 0.949 1_545 S
H297 C322 0.949 . S
H298 C323 0.950 . S
H299 C325 0.950 . S
H300 C326 0.950 . S
H301 C328 0.950 . S
H302 C331 0.950 . S
H303 C332 0.950 . S
H304 C334 0.951 . S
H305 C335 0.949 1_565 S
C306 C307 1.376 . S
C306 C311 1.386 . S
C306 C312 1.483 . S
C307 H288 0.949 . S
C307 C306 1.376 . S
C307 C308 1.397 . S
C308 H289 0.950 . S
C308 C307 1.397 . S
C308 C309 1.391 . S
C309 C308 1.391 . S
C309 C310 1.405 . S
C310 H290 0.950 . S
C310 C309 1.405 . S
C310 C311 1.367 . S
C311 H291 0.950 . S
C311 C306 1.386 . S
C311 C310 1.367 . S
C312 C306 1.483 . S
C312 C313 1.382 . S
C312 C314 1.403 . S
C313 H292 0.950 . S
C313 C312 1.382 . S
C313 C329 1.411 1_565 S
C314 C312 1.403 . S
C314 C315 1.489 . S
C314 C328 1.411 1_565 S
C315 C314 1.489 . S
C315 C316 1.383 . S
C315 C320 1.382 . S
C316 H293 0.950 . S
C316 C315 1.383 . S
C316 C317 1.395 . S
C317 H294 0.950 . S
C317 C316 1.395 . S
C317 C318 1.288 . S
C318 C317 1.288 . S
C318 C319 1.392 . S
C319 H295 0.951 . S
C319 C318 1.392 . S
C319 C320 1.392 . S
C320 H296 0.949 1_565 S
C320 C315 1.382 . S
C320 C319 1.392 . S
C321 C322 1.376 . S
C321 C326 1.386 . S
C321 C327 1.483 . S
C322 H297 0.949 . S
C322 C321 1.376 . S
C322 C323 1.397 . S
C323 H298 0.950 . S
C323 C322 1.397 . S
C323 C324 1.391 . S
C324 C323 1.391 . S
C324 C325 1.405 . S
C325 H299 0.950 . S
C325 C324 1.405 . S
C325 C326 1.367 . S
C326 H300 0.950 . S
C326 C321 1.386 . S
C326 C325 1.367 . S
C327 C321 1.483 . S
C327 C328 1.382 . S
C327 C329 1.403 . S
C328 H301 0.950 . S
C328 C314 1.411 1_545 S
C328 C327 1.382 . S
C329 C313 1.411 1_545 S
C329 C327 1.403 . S
C329 C330 1.489 . S
C330 C329 1.489 . S
C330 C331 1.383 . S
C330 C335 1.382 . S
C331 H302 0.950 . S
C331 C330 1.383 . S
C331 C332 1.395 . S
C332 H303 0.950 . S
C332 C331 1.395 . S
C332 C333 1.288 . S
C333 C332 1.288 . S
C333 C334 1.392 . S
C334 H304 0.951 . S
C334 C333 1.392 . S
C334 C335 1.392 . S
C335 H305 0.949 1_545 S
C335 C330 1.382 . S
C335 C334 1.392 . S
H336 C355 0.949 1_455 S
H337 C356 0.950 . S
H338 C358 0.950 . S
H339 C359 0.950 . S
H340 C361 0.950 . S
H341 C364 0.950 . S
H342 C365 0.950 . S
H343 C367 0.951 . S
H344 C368 0.949 . S
H345 C370 0.949 1_655 S
H346 C371 0.950 . S
H347 C373 0.950 . S
H348 C374 0.950 . S
H349 C376 0.950 . S
H350 C379 0.950 . S
H351 C380 0.950 . S
H352 C382 0.951 . S
H353 C383 0.949 . S
C354 C355 1.376 . S
C354 C359 1.386 . S
C354 C360 1.483 . S
C355 H336 0.949 1_655 S
C355 C354 1.376 . S
C355 C356 1.397 . S
C356 H337 0.950 . S
C356 C355 1.397 . S
C356 C357 1.391 . S
C357 C356 1.391 . S
C357 C358 1.405 . S
C358 H338 0.950 . S
C358 C357 1.405 . S
C358 C359 1.367 . S
C359 H339 0.950 . S
C359 C354 1.386 . S
C359 C358 1.367 . S
C360 C354 1.483 . S
C360 C361 1.382 1_655 S
C360 C362 1.403 . S
C361 H340 0.950 . S
C361 C360 1.382 1_455 S
C361 C377 1.411 1_545 S
C362 C360 1.403 . S
C362 C363 1.489 . S
C362 C376 1.411 1_545 S
C363 C362 1.489 . S
C363 C364 1.383 . S
C363 C368 1.382 . S
C364 H341 0.950 . S
C364 C363 1.383 . S
C364 C365 1.395 . S
C365 H342 0.950 . S
C365 C364 1.395 . S
C365 C366 1.288 . S
C366 C365 1.288 . S
C366 C367 1.392 . S
C367 H343 0.951 . S
C367 C366 1.392 . S
C367 C368 1.392 . S
C368 H344 0.949 . S
C368 C363 1.382 . S
C368 C367 1.392 . S
C369 C370 1.376 . S
C369 C374 1.386 . S
C369 C375 1.483 . S
C370 H345 0.949 1_455 S
C370 C369 1.376 . S
C370 C371 1.397 . S
C371 H346 0.950 . S
C371 C370 1.397 . S
C371 C372 1.391 . S
C372 C371 1.391 . S
C372 C373 1.405 . S
C373 H347 0.950 . S
C373 C372 1.405 . S
C373 C374 1.367 . S
C374 H348 0.950 . S
C374 C369 1.386 . S
C374 C373 1.367 . S
C375 C369 1.483 . S
C375 C376 1.382 1_455 S
C375 C377 1.403 . S
C376 H349 0.950 . S
C376 C362 1.411 1_565 S
C376 C375 1.382 1_655 S
C377 C361 1.411 1_565 S
C377 C375 1.403 . S
C377 C378 1.489 . S
C378 C377 1.489 . S
C378 C379 1.383 . S
C378 C383 1.382 . S
C379 H350 0.950 . S
C379 C378 1.383 . S
C379 C380 1.395 . S
C380 H351 0.950 . S
C380 C379 1.395 . S
C380 C381 1.288 . S
C381 C380 1.288 . S
C381 C382 1.392 . S
C382 H352 0.951 . S
C382 C381 1.392 . S
C382 C383 1.392 . S
C383 H353 0.949 . S
C383 C378 1.382 . S
C383 C382 1.392 . S
C384 O385 1.160 1_556 S
C384 O391 1.185 . S
O385 C384 1.160 1_554 S
O386 Zn387 1.899 . S
O386 C394 1.284 . S
Zn387 O386 1.899 . S
Zn387 O388 2.032 1_554 S
Zn387 O391 2.086 1_554 S
Zn387 O396 1.977 . S
O388 Zn387 2.032 1_556 S
O388 C392 1.278 . S
C389 O390 1.203 . S
C389 O396 1.267 . S
O390 C389 1.203 . S
O391 C384 1.185 . S
O391 Zn387 2.086 1_556 S
C392 O388 1.278 . S
C392 O393 1.211 . S
O393 C392 1.211 . S
C394 O386 1.284 . S
C394 O395 1.273 . S
O395 C394 1.273 . S
O396 Zn387 1.977 . S
O396 C389 1.267 . S
C397 O398 1.160 . S
C397 O404 1.185 . S
O398 C397 1.160 . S
O399 Zn400 1.899 . S
O399 C407 1.284 . S
Zn400 O399 1.899 . S
Zn400 O401 2.032 . S
Zn400 O404 2.086 . S
Zn400 O409 1.977 . S
O401 Zn400 2.032 . S
O401 C405 1.278 . S
C402 O403 1.203 . S
C402 O409 1.267 . S
O403 C402 1.203 . S
O404 C397 1.185 . S
O404 Zn400 2.086 . S
C405 O401 1.278 . S
C405 O406 1.211 . S
O406 C405 1.211 . S
C407 O399 1.284 . S
C407 O408 1.273 . S
O408 C407 1.273 . S
O409 Zn400 1.977 . S
O409 C402 1.267 . S
C410 O411 1.160 . S
C410 O417 1.185 . S
O411 C410 1.160 . S
O412 Zn413 1.899 . S
O412 C420 1.284 . S
Zn413 O412 1.899 . S
Zn413 O414 2.032 . S
Zn413 O417 2.086 . S
Zn413 O422 1.977 . S
O414 Zn413 2.032 . S
O414 C418 1.278 . S
C415 O416 1.203 . S
C415 O422 1.267 . S
O416 C415 1.203 . S
O417 C410 1.185 . S
O417 Zn413 2.086 . S
C418 O414 1.278 . S
C418 O419 1.211 . S
O419 C418 1.211 . S
C420 O412 1.284 . S
C420 O421 1.273 . S
O421 C420 1.273 . S
O422 Zn413 1.977 . S
O422 C415 1.267 . S
C423 O424 1.160 . S
C423 O430 1.185 . S
O424 C423 1.160 . S
O425 Zn426 1.899 . S
O425 C433 1.284 . S
Zn426 O425 1.899 . S
Zn426 O427 2.032 . S
Zn426 O430 2.086 . S
Zn426 O435 1.977 . S
O427 Zn426 2.032 . S
O427 C431 1.278 . S
C428 O429 1.203 . S
C428 O435 1.267 . S
O429 C428 1.203 . S
O430 C423 1.185 . S
O430 Zn426 2.086 . S
C431 O427 1.278 . S
C431 O432 1.211 . S
O432 C431 1.211 . S
C433 O425 1.284 . S
C433 O434 1.273 . S
O434 C433 1.273 . S
O435 Zn426 1.977 . S
O435 C428 1.267 . S
C436 O437 1.160 . S
C436 O443 1.185 . S
O437 C436 1.160 . S
O438 Zn439 1.899 . S
O438 C446 1.284 . S
Zn439 O438 1.899 . S
Zn439 O440 2.032 . S
Zn439 O443 2.086 . S
Zn439 O448 1.977 . S
O440 Zn439 2.032 . S
O440 C444 1.278 . S
C441 O442 1.203 . S
C441 O448 1.267 . S
O442 C441 1.203 . S
O443 C436 1.185 . S
O443 Zn439 2.086 . S
C444 O440 1.278 . S
C444 O445 1.211 . S
O445 C444 1.211 . S
C446 O438 1.284 . S
C446 O447 1.273 . S
O447 C446 1.273 . S
O448 Zn439 1.977 . S
O448 C441 1.267 . S
C449 O450 1.160 . S
C449 O456 1.185 . S
O450 C449 1.160 . S
O451 Zn452 1.899 . S
O451 C459 1.284 . S
Zn452 O451 1.899 . S
Zn452 O453 2.032 . S
Zn452 O456 2.086 . S
Zn452 O461 1.977 . S
O453 Zn452 2.032 . S
O453 C457 1.278 . S
C454 O455 1.203 . S
C454 O461 1.267 . S
O455 C454 1.203 . S
O456 C449 1.185 . S
O456 Zn452 2.086 . S
C457 O453 1.278 . S
C457 O458 1.211 . S
O458 C457 1.211 . S
C459 O451 1.284 . S
C459 O460 1.273 . S
O460 C459 1.273 . S
O461 Zn452 1.977 . S
O461 C454 1.267 . S
C462 O463 1.160 1_556 S
C462 O469 1.185 . S
O463 C462 1.160 1_554 S
O464 Zn465 1.899 . S
O464 C472 1.284 . S
Zn465 O464 1.899 . S
Zn465 O466 2.032 1_554 S
Zn465 O469 2.086 1_554 S
Zn465 O474 1.977 . S
O466 Zn465 2.032 1_556 S
O466 C470 1.278 . S
C467 O468 1.203 . S
C467 O474 1.267 . S
O468 C467 1.203 . S
O469 C462 1.185 . S
O469 Zn465 2.086 1_556 S
C470 O466 1.278 . S
C470 O471 1.211 . S
O471 C470 1.211 . S
C472 O464 1.284 . S
C472 O473 1.273 . S
O473 C472 1.273 . S
O474 Zn465 1.977 . S
O474 C467 1.267 . S
C475 O476 1.160 . S
C475 O482 1.185 . S
O476 C475 1.160 . S
O477 Zn478 1.899 . S
O477 C485 1.284 . S
Zn478 O477 1.899 . S
Zn478 O479 2.032 . S
Zn478 O482 2.086 . S
Zn478 O487 1.977 . S
O479 Zn478 2.032 . S
O479 C483 1.278 . S
C480 O481 1.203 . S
C480 O487 1.267 . S
O481 C480 1.203 . S
O482 C475 1.185 . S
O482 Zn478 2.086 . S
C483 O479 1.278 . S
C483 O484 1.211 . S
O484 C483 1.211 . S
C485 O477 1.284 . S
C485 O486 1.273 . S
O486 C485 1.273 . S
O487 Zn478 1.977 . S
O487 C480 1.267 . S
H488 C494 0.930 . S
H489 C497 0.930 . S
H490 C498 0.930 . S
H491 C499 0.930 . S
H492 C502 0.930 . S
H493 C503 0.930 . S
C494 H488 0.930 . S
C494 C495 1.355 . S
C494 C496 1.415 . S
C495 C494 1.355 . S
C495 C497 1.419 . S
C496 C494 1.415 . S
C496 C501 1.425 . S
C496 C503 1.409 . S
C497 H489 0.930 . S
C497 C495 1.419 . S
C497 C498 1.362 . S
C498 H490 0.930 . S
C498 C497 1.362 . S
C498 C501 1.409 . S
C499 H491 0.930 . S
C499 C500 1.355 . S
C499 C501 1.415 . S
C500 C499 1.355 . S
C500 C502 1.419 . S
C501 C496 1.425 . S
C501 C498 1.409 . S
C501 C499 1.415 . S
C502 H492 0.930 . S
C502 C500 1.419 . S
C502 C503 1.362 . S
C503 H493 0.930 . S
C503 C496 1.409 . S
C503 C502 1.362 . S
H504 C510 0.930 . S
H505 C513 0.930 . S
H506 C514 0.930 . S
H507 C515 0.930 . S
H508 C518 0.930 . S
H509 C519 0.930 . S
C510 H504 0.930 . S
C510 C511 1.355 . S
C510 C512 1.415 . S
C511 C510 1.355 . S
C511 C513 1.419 . S
C512 C510 1.415 . S
C512 C517 1.425 . S
C512 C519 1.409 . S
C513 H505 0.930 . S
C513 C511 1.419 . S
C513 C514 1.362 . S
C514 H506 0.930 . S
C514 C513 1.362 . S
C514 C517 1.409 . S
C515 H507 0.930 . S
C515 C516 1.355 . S
C515 C517 1.415 . S
C516 C515 1.355 . S
C516 C518 1.419 . S
C517 C512 1.425 . S
C517 C514 1.409 . S
C517 C515 1.415 . S
C518 H508 0.930 . S
C518 C516 1.419 . S
C518 C519 1.362 . S
C519 H509 0.930 . S
C519 C512 1.409 . S
C519 C518 1.362 . S
H520 C526 0.930 . S
H521 C529 0.930 . S
H522 C530 0.930 . S
H523 C531 0.930 . S
H524 C534 0.930 . S
H525 C535 0.930 . S
C526 H520 0.930 . S
C526 C527 1.355 . S
C526 C528 1.415 . S
C527 C526 1.355 . S
C527 C529 1.419 . S
C528 C526 1.415 . S
C528 C533 1.425 . S
C528 C535 1.409 . S
C529 H521 0.930 . S
C529 C527 1.419 . S
C529 C530 1.362 . S
C530 H522 0.930 . S
C530 C529 1.362 . S
C530 C533 1.409 . S
C531 H523 0.930 . S
C531 C532 1.355 . S
C531 C533 1.415 . S
C532 C531 1.355 . S
C532 C534 1.419 . S
C533 C528 1.425 . S
C533 C530 1.409 . S
C533 C531 1.415 . S
C534 H524 0.930 . S
C534 C532 1.419 . S
C534 C535 1.362 . S
C535 H525 0.930 . S
C535 C528 1.409 . S
C535 C534 1.362 . S
H536 C542 0.906 1_556 S
H537 C545 0.930 . S
H538 C546 0.930 . S
H539 C547 0.930 . S
H540 C550 0.930 . S
H541 C551 0.930 . S
C542 H536 0.906 1_554 S
C542 C543 1.355 . S
C542 C544 1.415 . S
C543 C542 1.355 . S
C543 C545 1.419 . S
C544 C542 1.415 . S
C544 C549 1.425 . S
C544 C551 1.409 1_554 S
C545 H537 0.930 . S
C545 C543 1.419 . S
C545 C546 1.362 . S
C546 H538 0.930 . S
C546 C545 1.362 . S
C546 C549 1.409 . S
C547 H539 0.930 . S
C547 C548 1.355 . S
C547 C549 1.415 . S
C548 C547 1.355 . S
C548 C550 1.419 1_554 S
C549 C544 1.425 . S
C549 C546 1.409 . S
C549 C547 1.415 . S
C550 H540 0.930 . S
C550 C548 1.419 1_556 S
C550 C551 1.362 . S
C551 H541 0.930 . S
C551 C544 1.409 1_556 S
C551 C550 1.362 . S
H552 C558 0.930 . S
H553 C561 0.930 1_554 S
H554 C562 0.930 . S
H555 C563 0.895 1_554 S
H556 C566 0.930 . S
H557 C567 0.930 . S
C558 H552 0.930 . S
C558 C559 1.355 . S
C558 C560 1.415 . S
C559 C558 1.355 . S
C559 C561 1.419 . S
C560 C558 1.415 . S
C560 C565 1.425 . S
C560 C567 1.409 . S
C561 H553 0.930 1_556 S
C561 C559 1.419 . S
C561 C562 1.362 1_556 S
C562 H554 0.930 . S
C562 C561 1.362 1_554 S
C562 C565 1.409 1_554 S
C563 H555 0.895 1_556 S
C563 C564 1.376 . S
C563 C565 1.430 . S
C564 C563 1.376 . S
C564 C566 1.419 . S
C565 C560 1.425 . S
C565 C562 1.409 1_556 S
C565 C563 1.430 . S
C566 H556 0.930 . S
C566 C564 1.419 . S
C566 C567 1.362 . S
C567 H557 0.930 . S
C567 C560 1.409 . S
C567 C566 1.362 . S
H568 C574 0.930 . S
H569 C577 0.930 . S
H570 C578 0.930 . S
H571 C579 0.930 . S
H572 C582 0.930 . S
H573 C583 0.930 . S
C574 H568 0.930 . S
C574 C575 1.355 . S
C574 C576 1.415 . S
C575 C574 1.355 . S
C575 C577 1.419 . S
C576 C574 1.415 . S
C576 C581 1.425 . S
C576 C583 1.409 . S
C577 H569 0.930 . S
C577 C575 1.419 . S
C577 C578 1.362 . S
C578 H570 0.930 . S
C578 C577 1.362 . S
C578 C581 1.409 . S
C579 H571 0.930 . S
C579 C580 1.355 . S
C579 C581 1.415 . S
C580 C579 1.355 . S
C580 C582 1.419 . S
C581 C576 1.425 . S
C581 C578 1.409 . S
C581 C579 1.415 . S
C582 H572 0.930 . S
C582 C580 1.419 . S
C582 C583 1.362 . S
C583 H573 0.930 . S
C583 C576 1.409 . S
C583 C582 1.362 . S
H584 C590 0.930 . S
H585 C593 0.930 . S
H586 C594 0.930 . S
H587 C595 0.930 . S
H588 C598 0.930 . S
H589 C599 0.930 . S
C590 H584 0.930 . S
C590 C591 1.355 . S
C590 C592 1.415 . S
C591 C590 1.355 . S
C591 C593 1.419 . S
C592 C590 1.415 . S
C592 C597 1.425 . S
C592 C599 1.409 . S
C593 H585 0.930 . S
C593 C591 1.419 . S
C593 C594 1.362 . S
C594 H586 0.930 . S
C594 C593 1.362 . S
C594 C597 1.409 . S
C595 H587 0.930 . S
C595 C596 1.355 . S
C595 C597 1.415 . S
C596 C595 1.355 . S
C596 C598 1.419 . S
C597 C592 1.425 . S
C597 C594 1.409 . S
C597 C595 1.415 . S
C598 H588 0.930 . S
C598 C596 1.419 . S
C598 C599 1.362 . S
C599 H589 0.930 . S
C599 C592 1.409 . S
C599 C598 1.362 . S
H600 C606 0.930 . S
H601 C609 0.930 . S
H602 C610 0.930 . S
H603 C611 0.930 . S
H604 C614 0.930 . S
H605 C615 0.930 . S
C606 H600 0.930 . S
C606 C607 1.355 . S
C606 C608 1.415 . S
C607 C606 1.355 . S
C607 C609 1.419 . S
C608 C606 1.415 . S
C608 C613 1.425 . S
C608 C615 1.409 . S
C609 H601 0.930 . S
C609 C607 1.419 . S
C609 C610 1.362 . S
C610 H602 0.930 . S
C610 C609 1.362 . S
C610 C613 1.409 . S
C611 H603 0.930 . S
C611 C612 1.355 . S
C611 C613 1.415 . S
C612 C611 1.355 . S
C612 C614 1.419 . S
C613 C608 1.425 . S
C613 C610 1.409 . S
C613 C611 1.415 . S
C614 H604 0.930 . S
C614 C612 1.419 . S
C614 C615 1.362 . S
C615 H605 0.930 . S
C615 C608 1.409 . S
C615 C614 1.362 . S
H616 C622 0.930 . S
H617 C625 0.930 . S
H618 C626 0.930 . S
H619 C627 0.930 . S
H620 C630 0.930 . S
H621 C631 0.930 . S
C622 H616 0.930 . S
C622 C623 1.355 . S
C622 C624 1.415 . S
C623 C622 1.355 . S
C623 C625 1.419 . S
C624 C622 1.415 . S
C624 C629 1.425 . S
C624 C631 1.409 . S
C625 H617 0.930 . S
C625 C623 1.419 . S
C625 C626 1.362 . S
C626 H618 0.930 . S
C626 C625 1.362 . S
C626 C629 1.409 . S
C627 H619 0.930 . S
C627 C628 1.355 . S
C627 C629 1.415 . S
C628 C627 1.355 . S
C628 C630 1.419 . S
C629 C624 1.425 . S
C629 C626 1.409 . S
C629 C627 1.415 . S
C630 H620 0.930 . S
C630 C628 1.419 . S
C630 C631 1.362 . S
C631 H621 0.930 . S
C631 C624 1.409 . S
C631 C630 1.362 . S
H632 C638 0.930 . S
H633 C641 0.930 . S
H634 C642 0.930 . S
H635 C643 0.930 . S
H636 C646 0.930 . S
H637 C647 0.930 . S
C638 H632 0.930 . S
C638 C639 1.355 . S
C638 C640 1.415 . S
C639 C638 1.355 . S
C639 C641 1.419 . S
C640 C638 1.415 . S
C640 C645 1.425 . S
C640 C647 1.409 . S
C641 H633 0.930 . S
C641 C639 1.419 . S
C641 C642 1.362 . S
C642 H634 0.930 . S
C642 C641 1.362 . S
C642 C645 1.409 . S
C643 H635 0.930 . S
C643 C644 1.355 . S
C643 C645 1.415 . S
C644 C643 1.355 . S
C644 C646 1.419 . S
C645 C640 1.425 . S
C645 C642 1.409 . S
C645 C643 1.415 . S
C646 H636 0.930 . S
C646 C644 1.419 . S
C646 C647 1.362 . S
C647 H637 0.930 . S
C647 C640 1.409 . S
C647 C646 1.362 . S
H648 C654 0.930 . S
H649 C657 0.930 . S
H650 C658 0.930 . S
H651 C659 0.930 . S
H652 C662 0.930 . S
H653 C663 0.930 . S
C654 H648 0.930 . S
C654 C655 1.355 . S
C654 C656 1.415 . S
C655 C654 1.355 . S
C655 C657 1.419 . S
C656 C654 1.415 . S
C656 C661 1.425 . S
C656 C663 1.409 . S
C657 H649 0.930 . S
C657 C655 1.419 . S
C657 C658 1.362 . S
C658 H650 0.930 . S
C658 C657 1.362 . S
C658 C661 1.409 . S
C659 H651 0.930 . S
C659 C660 1.355 . S
C659 C661 1.415 . S
C660 C659 1.355 . S
C660 C662 1.419 . S
C661 C656 1.425 . S
C661 C658 1.409 . S
C661 C659 1.415 . S
C662 H652 0.930 . S
C662 C660 1.419 . S
C662 C663 1.362 . S
C663 H653 0.930 . S
C663 C656 1.409 . S
C663 C662 1.362 . S
H664 C670 0.930 . S
H665 C673 0.930 . S
H666 C674 0.930 . S
H667 C675 0.930 . S
H668 C678 0.930 . S
H669 C679 0.930 . S
C670 H664 0.930 . S
C670 C671 1.355 . S
C670 C672 1.415 . S
C671 C670 1.355 . S
C671 C673 1.419 . S
C672 C670 1.415 . S
C672 C677 1.425 . S
C672 C679 1.409 . S
C673 H665 0.930 . S
C673 C671 1.419 . S
C673 C674 1.362 . S
C674 H666 0.930 . S
C674 C673 1.362 . S
C674 C677 1.409 . S
C675 H667 0.930 . S
C675 C676 1.355 . S
C675 C677 1.415 . S
C676 C675 1.355 . S
C676 C678 1.419 . S
C677 C672 1.425 . S
C677 C674 1.409 . S
C677 C675 1.415 . S
C678 H668 0.930 . S
C678 C676 1.419 . S
C678 C679 1.362 . S
C679 H669 0.930 . S
C679 C672 1.409 . S
C679 C678 1.362 . S
H680 C686 0.930 . S
H681 C689 0.930 . S
H682 C690 0.930 . S
H683 C691 0.930 . S
H684 C694 0.930 . S
H685 C695 0.930 . S
C686 H680 0.930 . S
C686 C687 1.355 . S
C686 C688 1.415 . S
C687 C686 1.355 . S
C687 C689 1.419 . S
C688 C686 1.415 . S
C688 C693 1.425 . S
C688 C695 1.409 . S
C689 H681 0.930 . S
C689 C687 1.419 . S
C689 C690 1.362 . S
C690 H682 0.930 . S
C690 C689 1.362 . S
C690 C693 1.409 . S
C691 H683 0.930 . S
C691 C692 1.355 . S
C691 C693 1.415 . S
C692 C691 1.355 . S
C692 C694 1.419 . S
C693 C688 1.425 . S
C693 C690 1.409 . S
C693 C691 1.415 . S
C694 H684 0.930 . S
C694 C692 1.419 . S
C694 C695 1.362 . S
C695 H685 0.930 . S
C695 C688 1.409 . S
C695 C694 1.362 . S
H696 C702 0.930 . S
H697 C705 0.930 . S
H698 C706 0.930 . S
H699 C707 0.930 . S
H700 C710 0.930 . S
H701 C711 0.930 . S
C702 H696 0.930 . S
C702 C703 1.355 . S
C702 C704 1.415 . S
C703 C702 1.355 . S
C703 C705 1.419 . S
C704 C702 1.415 . S
C704 C709 1.425 . S
C704 C711 1.409 . S
C705 H697 0.930 . S
C705 C703 1.419 . S
C705 C706 1.362 . S
C706 H698 0.930 . S
C706 C705 1.362 . S
C706 C709 1.409 . S
C707 H699 0.930 . S
C707 C708 1.355 . S
C707 C709 1.415 . S
C708 C707 1.355 . S
C708 C710 1.419 . S
C709 C704 1.425 . S
C709 C706 1.409 . S
C709 C707 1.415 . S
C710 H700 0.930 . S
C710 C708 1.419 . S
C710 C711 1.362 . S
C711 H701 0.930 . S
C711 C704 1.409 . S
C711 C710 1.362 . S
H712 C718 0.930 . S
H713 C721 0.930 . S
H714 C722 0.930 . S
H715 C723 0.930 . S
H716 C726 0.930 . S
H717 C727 0.930 . S
C718 H712 0.930 . S
C718 C719 1.355 . S
C718 C720 1.415 . S
C719 C718 1.355 . S
C719 C721 1.419 . S
C720 C718 1.415 . S
C720 C725 1.425 . S
C720 C727 1.409 . S
C721 H713 0.930 . S
C721 C719 1.419 . S
C721 C722 1.362 . S
C722 H714 0.930 . S
C722 C721 1.362 . S
C722 C725 1.409 . S
C723 H715 0.930 . S
C723 C724 1.355 . S
C723 C725 1.415 . S
C724 C723 1.355 . S
C724 C726 1.419 . S
C725 C720 1.425 . S
C725 C722 1.409 . S
C725 C723 1.415 . S
C726 H716 0.930 . S
C726 C724 1.419 . S
C726 C727 1.362 . S
C727 H717 0.930 . S
C727 C720 1.409 . S
C727 C726 1.362 . S
H728 C734 0.930 . S
H729 C737 0.930 . S
H730 C738 0.930 . S
H731 C739 0.930 . S
H732 C742 0.930 . S
H733 C743 0.930 . S
C734 H728 0.930 . S
C734 C735 1.355 . S
C734 C736 1.415 . S
C735 C734 1.355 . S
C735 C737 1.419 . S
C736 C734 1.415 . S
C736 C741 1.425 . S
C736 C743 1.409 . S
C737 H729 0.930 . S
C737 C735 1.419 . S
C737 C738 1.362 . S
C738 H730 0.930 . S
C738 C737 1.362 . S
C738 C741 1.409 . S
C739 H731 0.930 . S
C739 C740 1.355 . S
C739 C741 1.415 . S
C740 C739 1.355 . S
C740 C742 1.419 . S
C741 C736 1.425 . S
C741 C738 1.409 . S
C741 C739 1.415 . S
C742 H732 0.930 . S
C742 C740 1.419 . S
C742 C743 1.362 . S
C743 H733 0.930 . S
C743 C736 1.409 . S
C743 C742 1.362 . S
H744 C750 0.930 . S
H745 C753 0.930 . S
H746 C754 0.930 . S
H747 C755 0.930 . S
H748 C758 0.930 . S
H749 C759 0.930 . S
C750 H744 0.930 . S
C750 C751 1.355 . S
C750 C752 1.415 . S
C751 C750 1.355 . S
C751 C753 1.419 . S
C752 C750 1.415 . S
C752 C757 1.425 . S
C752 C759 1.409 . S
C753 H745 0.930 . S
C753 C751 1.419 . S
C753 C754 1.362 . S
C754 H746 0.930 . S
C754 C753 1.362 . S
C754 C757 1.409 . S
C755 H747 0.930 . S
C755 C756 1.355 . S
C755 C757 1.415 . S
C756 C755 1.355 . S
C756 C758 1.419 . S
C757 C752 1.425 . S
C757 C754 1.409 . S
C757 C755 1.415 . S
C758 H748 0.930 . S
C758 C756 1.419 . S
C758 C759 1.362 . S
C759 H749 0.930 . S
C759 C752 1.409 . S
C759 C758 1.362 . S
H760 C766 0.930 . S
H761 C769 0.930 . S
H762 C770 0.930 . S
H763 C771 0.930 . S
H764 C774 0.930 . S
H765 C775 0.930 . S
C766 H760 0.930 . S
C766 C767 1.355 . S
C766 C768 1.415 . S
C767 C766 1.355 . S
C767 C769 1.419 . S
C768 C766 1.415 . S
C768 C773 1.425 . S
C768 C775 1.409 . S
C769 H761 0.930 . S
C769 C767 1.419 . S
C769 C770 1.362 . S
C770 H762 0.930 . S
C770 C769 1.362 . S
C770 C773 1.409 . S
C771 H763 0.930 . S
C771 C772 1.355 . S
C771 C773 1.415 . S
C772 C771 1.355 . S
C772 C774 1.419 . S
C773 C768 1.425 . S
C773 C770 1.409 . S
C773 C771 1.415 . S
C774 H764 0.930 . S
C774 C772 1.419 . S
C774 C775 1.362 . S
C775 H765 0.930 . S
C775 C768 1.409 . S
C775 C774 1.362 . S
H776 C782 0.930 . S
H777 C785 0.930 . S
H778 C786 0.930 . S
H779 C787 0.930 . S
H780 C790 0.930 . S
H781 C791 0.930 . S
C782 H776 0.930 . S
C782 C783 1.355 . S
C782 C784 1.415 . S
C783 C782 1.355 . S
C783 C785 1.419 . S
C784 C782 1.415 . S
C784 C789 1.425 . S
C784 C791 1.409 . S
C785 H777 0.930 . S
C785 C783 1.419 . S
C785 C786 1.362 . S
C786 H778 0.930 . S
C786 C785 1.362 . S
C786 C789 1.409 . S
C787 H779 0.930 . S
C787 C788 1.355 . S
C787 C789 1.415 . S
C788 C787 1.355 . S
C788 C790 1.419 . S
C789 C784 1.425 . S
C789 C786 1.409 . S
C789 C787 1.415 . S
C790 H780 0.930 . S
C790 C788 1.419 . S
C790 C791 1.362 . S
C791 H781 0.930 . S
C791 C784 1.409 . S
C791 C790 1.362 . S
H792 C798 0.930 . S
H793 C801 0.930 . S
H794 C802 0.930 . S
H795 C803 0.930 . S
H796 C806 0.930 . S
H797 C807 0.930 . S
C798 H792 0.930 . S
C798 C799 1.355 . S
C798 C800 1.415 . S
C799 C798 1.355 . S
C799 C801 1.419 . S
C800 C798 1.415 . S
C800 C805 1.425 . S
C800 C807 1.409 . S
C801 H793 0.930 . S
C801 C799 1.419 . S
C801 C802 1.362 . S
C802 H794 0.930 . S
C802 C801 1.362 . S
C802 C805 1.409 . S
C803 H795 0.930 . S
C803 C804 1.355 . S
C803 C805 1.415 . S
C804 C803 1.355 . S
C804 C806 1.419 . S
C805 C800 1.425 . S
C805 C802 1.409 . S
C805 C803 1.415 . S
C806 H796 0.930 . S
C806 C804 1.419 . S
C806 C807 1.362 . S
C807 H797 0.930 . S
C807 C800 1.409 . S
C807 C806 1.362 . S
H808 C814 0.930 . S
H809 C817 0.930 . S
H810 C818 0.930 . S
H811 C819 0.930 . S
H812 C822 0.930 . S
H813 C823 0.930 . S
C814 H808 0.930 . S
C814 C815 1.355 . S
C814 C816 1.415 . S
C815 C814 1.355 . S
C815 C817 1.419 . S
C816 C814 1.415 . S
C816 C821 1.425 . S
C816 C823 1.409 . S
C817 H809 0.930 . S
C817 C815 1.419 . S
C817 C818 1.362 . S
C818 H810 0.930 . S
C818 C817 1.362 . S
C818 C821 1.409 . S
C819 H811 0.930 . S
C819 C820 1.355 . S
C819 C821 1.415 . S
C820 C819 1.355 . S
C820 C822 1.419 . S
C821 C816 1.425 . S
C821 C818 1.409 . S
C821 C819 1.415 . S
C822 H812 0.930 . S
C822 C820 1.419 . S
C822 C823 1.362 . S
C823 H813 0.930 . S
C823 C816 1.409 . S
C823 C822 1.362 . S
H824 C830 0.930 . S
H825 C833 0.930 . S
H826 C834 0.930 . S
H827 C835 0.930 . S
H828 C838 0.930 . S
H829 C839 0.930 . S
C830 H824 0.930 . S
C830 C831 1.355 . S
C830 C832 1.415 . S
C831 C830 1.355 . S
C831 C833 1.419 . S
C832 C830 1.415 . S
C832 C837 1.425 . S
C832 C839 1.409 . S
C833 H825 0.930 . S
C833 C831 1.419 . S
C833 C834 1.362 . S
C834 H826 0.930 . S
C834 C833 1.362 . S
C834 C837 1.409 . S
C835 H827 0.930 . S
C835 C836 1.355 . S
C835 C837 1.415 . S
C836 C835 1.355 . S
C836 C838 1.419 . S
C837 C832 1.425 . S
C837 C834 1.409 . S
C837 C835 1.415 . S
C838 H828 0.930 . S
C838 C836 1.419 . S
C838 C839 1.362 . S
C839 H829 0.930 . S
C839 C832 1.409 . S
C839 C838 1.362 . S
H840 C846 0.930 . S
H841 C849 0.930 . S
H842 C850 0.930 . S
H843 C851 0.930 . S
H844 C854 0.930 . S
H845 C855 0.930 . S
C846 H840 0.930 . S
C846 C847 1.355 . S
C846 C848 1.415 . S
C847 C846 1.355 . S
C847 C849 1.419 . S
C848 C846 1.415 . S
C848 C853 1.425 . S
C848 C855 1.409 . S
C849 H841 0.930 . S
C849 C847 1.419 . S
C849 C850 1.362 . S
C850 H842 0.930 . S
C850 C849 1.362 . S
C850 C853 1.409 . S
C851 H843 0.930 . S
C851 C852 1.355 . S
C851 C853 1.415 . S
C852 C851 1.355 . S
C852 C854 1.419 . S
C853 C848 1.425 . S
C853 C850 1.409 . S
C853 C851 1.415 . S
C854 H844 0.930 . S
C854 C852 1.419 . S
C854 C855 1.362 . S
C855 H845 0.930 . S
C855 C848 1.409 . S
C855 C854 1.362 . S
H856 C862 0.930 . S
H857 C865 0.930 . S
H858 C866 0.930 . S
H859 C867 0.930 . S
H860 C870 0.930 . S
H861 C871 0.930 . S
C862 H856 0.930 . S
C862 C863 1.355 . S
C862 C864 1.415 . S
C863 C862 1.355 . S
C863 C865 1.419 . S
C864 C862 1.415 . S
C864 C869 1.425 . S
C864 C871 1.409 . S
C865 H857 0.930 . S
C865 C863 1.419 . S
C865 C866 1.362 . S
C866 H858 0.930 . S
C866 C865 1.362 . S
C866 C869 1.409 . S
C867 H859 0.930 . S
C867 C868 1.355 . S
C867 C869 1.415 . S
C868 C867 1.355 . S
C868 C870 1.419 . S
C869 C864 1.425 . S
C869 C866 1.409 . S
C869 C867 1.415 . S
C870 H860 0.930 . S
C870 C868 1.419 . S
C870 C871 1.362 . S
C871 H861 0.930 . S
C871 C864 1.409 . S
C871 C870 1.362 . S
H872 C878 0.930 . S
H873 C881 0.930 . S
H874 C882 0.930 . S
H875 C883 0.930 . S
H876 C886 0.930 . S
H877 C887 0.930 . S
C878 H872 0.930 . S
C878 C879 1.355 . S
C878 C880 1.415 . S
C879 C878 1.355 . S
C879 C881 1.419 . S
C880 C878 1.415 . S
C880 C885 1.425 . S
C880 C887 1.409 . S
C881 H873 0.930 . S
C881 C879 1.419 . S
C881 C882 1.362 . S
C882 H874 0.930 . S
C882 C881 1.362 . S
C882 C885 1.409 . S
C883 H875 0.930 . S
C883 C884 1.355 . S
C883 C885 1.415 . S
C884 C883 1.355 . S
C884 C886 1.419 . S
C885 C880 1.425 . S
C885 C882 1.409 . S
C885 C883 1.415 . S
C886 H876 0.930 . S
C886 C884 1.419 . S
C886 C887 1.362 . S
C887 H877 0.930 . S
C887 C880 1.409 . S
C887 C886 1.362 . S
H888 C894 0.930 . S
H889 C897 0.930 . S
H890 C898 0.930 . S
H891 C899 0.930 . S
H892 C902 0.930 . S
H893 C903 0.930 . S
C894 H888 0.930 . S
C894 C895 1.355 . S
C894 C896 1.415 . S
C895 C894 1.355 . S
C895 C897 1.419 . S
C896 C894 1.415 . S
C896 C901 1.425 . S
C896 C903 1.409 . S
C897 H889 0.930 . S
C897 C895 1.419 . S
C897 C898 1.362 . S
C898 H890 0.930 . S
C898 C897 1.362 . S
C898 C901 1.409 . S
C899 H891 0.930 . S
C899 C900 1.355 . S
C899 C901 1.415 . S
C900 C899 1.355 . S
C900 C902 1.419 . S
C901 C896 1.425 . S
C901 C898 1.409 . S
C901 C899 1.415 . S
C902 H892 0.930 . S
C902 C900 1.419 . S
C902 C903 1.362 . S
C903 H893 0.930 . S
C903 C896 1.409 . S
C903 C902 1.362 . S
H904 C910 0.930 . S
H905 C913 0.930 . S
H906 C914 0.930 . S
H907 C915 0.930 . S
H908 C918 0.930 . S
H909 C919 0.930 . S
C910 H904 0.930 . S
C910 C911 1.355 . S
C910 C912 1.415 . S
C911 C910 1.355 . S
C911 C913 1.419 . S
C912 C910 1.415 . S
C912 C917 1.425 . S
C912 C919 1.409 . S
C913 H905 0.930 . S
C913 C911 1.419 . S
C913 C914 1.362 . S
C914 H906 0.930 . S
C914 C913 1.362 . S
C914 C917 1.409 . S
C915 H907 0.930 . S
C915 C916 1.355 . S
C915 C917 1.415 . S
C916 C915 1.355 . S
C916 C918 1.419 . S
C917 C912 1.425 . S
C917 C914 1.409 . S
C917 C915 1.415 . S
C918 H908 0.930 . S
C918 C916 1.419 . S
C918 C919 1.362 . S
C919 H909 0.930 . S
C919 C912 1.409 . S
C919 C918 1.362 . S
H920 C926 0.930 . S
H921 C929 0.930 . S
H922 C930 0.930 . S
H923 C931 0.930 . S
H924 C934 0.930 . S
H925 C935 0.930 . S
C926 H920 0.930 . S
C926 C927 1.355 . S
C926 C928 1.415 . S
C927 C926 1.355 . S
C927 C929 1.419 . S
C928 C926 1.415 . S
C928 C933 1.425 . S
C928 C935 1.409 . S
C929 H921 0.930 . S
C929 C927 1.419 . S
C929 C930 1.362 . S
C930 H922 0.930 . S
C930 C929 1.362 . S
C930 C933 1.409 . S
C931 H923 0.930 . S
C931 C932 1.355 . S
C931 C933 1.415 . S
C932 C931 1.355 . S
C932 C934 1.419 . S
C933 C928 1.425 . S
C933 C930 1.409 . S
C933 C931 1.415 . S
C934 H924 0.930 . S
C934 C932 1.419 . S
C934 C935 1.362 . S
C935 H925 0.930 . S
C935 C928 1.409 . S
C935 C934 1.362 . S
H936 C942 0.930 . S
H937 C945 0.930 . S
H938 C946 0.930 . S
H939 C947 0.930 . S
H940 C950 0.930 . S
H941 C951 0.930 . S
C942 H936 0.930 . S
C942 C943 1.355 . S
C942 C944 1.415 . S
C943 C942 1.355 . S
C943 C945 1.419 . S
C944 C942 1.415 . S
C944 C949 1.425 . S
C944 C951 1.409 . S
C945 H937 0.930 . S
C945 C943 1.419 . S
C945 C946 1.362 . S
C946 H938 0.930 . S
C946 C945 1.362 . S
C946 C949 1.409 . S
C947 H939 0.930 . S
C947 C948 1.355 . S
C947 C949 1.415 . S
C948 C947 1.355 . S
C948 C950 1.419 . S
C949 C944 1.425 . S
C949 C946 1.409 . S
C949 C947 1.415 . S
C950 H940 0.930 . S
C950 C948 1.419 . S
C950 C951 1.362 . S
C951 H941 0.930 . S
C951 C944 1.409 . S
C951 C950 1.362 . S
H952 C958 0.930 . S
H953 C961 0.930 . S
H954 C962 0.930 . S
H955 C963 0.930 . S
H956 C966 0.930 . S
H957 C967 0.930 . S
C958 H952 0.930 . S
C958 C959 1.355 . S
C958 C960 1.415 . S
C959 C958 1.355 . S
C959 C961 1.419 . S
C960 C958 1.415 . S
C960 C965 1.425 . S
C960 C967 1.409 . S
C961 H953 0.930 . S
C961 C959 1.419 . S
C961 C962 1.362 . S
C962 H954 0.930 . S
C962 C961 1.362 . S
C962 C965 1.409 . S
C963 H955 0.930 . S
C963 C964 1.355 . S
C963 C965 1.415 . S
C964 C963 1.355 . S
C964 C966 1.419 . S
C965 C960 1.425 . S
C965 C962 1.409 . S
C965 C963 1.415 . S
C966 H956 0.930 . S
C966 C964 1.419 . S
C966 C967 1.362 . S
C967 H957 0.930 . S
C967 C960 1.409 . S
C967 C966 1.362 . S
H968 C974 0.930 . S
H969 C977 0.930 . S
H970 C978 0.930 . S
H971 C979 0.930 . S
H972 C982 0.930 . S
H973 C983 0.930 . S
C974 H968 0.930 . S
C974 C975 1.355 . S
C974 C976 1.415 . S
C975 C974 1.355 . S
C975 C977 1.419 . S
C976 C974 1.415 . S
C976 C981 1.425 . S
C976 C983 1.409 . S
C977 H969 0.930 . S
C977 C975 1.419 . S
C977 C978 1.362 . S
C978 H970 0.930 . S
C978 C977 1.362 . S
C978 C981 1.409 . S
C979 H971 0.930 . S
C979 C980 1.355 . S
C979 C981 1.415 . S
C980 C979 1.355 . S
C980 C982 1.419 . S
C981 C976 1.425 . S
C981 C978 1.409 . S
C981 C979 1.415 . S
C982 H972 0.930 . S
C982 C980 1.419 . S
C982 C983 1.362 . S
C983 H973 0.930 . S
C983 C976 1.409 . S
C983 C982 1.362 . S
H984 C990 0.930 . S
H985 C993 0.930 . S
H986 C994 0.930 . S
H987 C995 0.930 . S
H988 C998 0.930 . S
H989 C999 0.930 . S
C990 H984 0.930 . S
C990 C991 1.355 . S
C990 C992 1.415 . S
C991 C990 1.355 . S
C991 C993 1.419 . S
C992 C990 1.415 . S
C992 C997 1.425 . S
C992 C999 1.409 . S
C993 H985 0.930 . S
C993 C991 1.419 . S
C993 C994 1.362 . S
C994 H986 0.930 . S
C994 C993 1.362 . S
C994 C997 1.409 . S
C995 H987 0.930 . S
C995 C996 1.355 . S
C995 C997 1.415 . S
C996 C995 1.355 . S
C996 C998 1.419 . S
C997 C992 1.425 . S
C997 C994 1.409 . S
C997 C995 1.415 . S
C998 H988 0.930 . S
C998 C996 1.419 . S
C998 C999 1.362 . S
C999 H989 0.930 . S
C999 C992 1.409 . S
C999 C998 1.362 . S
C500 C397 1.389 . S
C495 C36 1.397 . S
C516 C415 1.332 . S
C511 C93 1.437 . S
C532 C423 1.375 . S
C527 C126 1.396 . S
C543 C165 1.398 . S
C548 C389 1.342 . S
C559 C222 1.426 . S
C564 C384 1.422 . S
C575 C261 1.451 . S
C580 C402 1.352 . S
C596 C410 1.339 . S
C591 C318 1.443 . S
C612 C428 1.347 . S
C607 C381 1.453 . S
C623 C132 1.398 . S
C628 C449 1.393 . S
C644 C467 1.426 . S
C639 C189 1.429 . S
C655 C30 1.447 . S
C660 C475 1.345 . S
C676 C441 1.330 . S
C671 C69 1.420 . S
C687 C324 1.378 . S
C692 C436 1.348 . S
C703 C357 1.449 . S
C708 C454 1.381 . S
C724 C462 1.396 . S
C719 C228 1.400 . S
C735 C285 1.436 . S
C740 C480 1.332 . S
C756 C418 1.562 . S
C751 C45 1.528 . S
C772 C433 1.517 . S
C767 C84 1.570 . S
C783 C117 1.528 . S
C788 C392 1.571 . S
C799 C174 1.493 . S
C804 C407 1.504 . S
C815 C213 1.565 . S
C820 C431 1.560 . S
C836 C394 1.531 . S
C831 C270 1.483 . S
C852 C405 1.559 . S
C847 C309 1.565 . S
C868 C420 1.534 . S
C863 C372 1.532 . S
C884 C470 1.570 . S
C879 C141 1.556 . S
C900 C485 1.535 . S
C895 C180 1.533 . S
C911 C21 1.526 . S
C916 C444 1.569 . S
C932 C459 1.529 . S
C927 C78 1.482 . S
C948 C483 1.557 . S
C943 C333 1.552 . S
C959 C366 1.548 . S
C964 C446 1.535 . S
C980 C457 1.561 . S
C975 C237 1.529 . S
C996 C472 1.511 . S
C991 C276 1.568 . S
