# Generated by pormake.
# Topology pyr, (3,6)-cn, num edge types: 1
# Building blocks:
#     Node 0, Type 0, BuildingBlock: BETDAH_clean_linker_0, # of connection points: 3
#     Node 1, Type 0, BuildingBlock: BETDAH_clean_linker_0, # of connection points: 3
#     Node 2, Type 0, BuildingBlock: BETDAH_clean_linker_0, # of connection points: 3
#     Node 3, Type 0, BuildingBlock: BETDAH_clean_linker_0, # of connection points: 3
#     Node 4, Type 0, BuildingBlock: BETDAH_clean_linker_0, # of connection points: 3
#     Node 5, Type 0, BuildingBlock: BETDAH_clean_linker_0, # of connection points: 3
#     Node 6, Type 0, BuildingBlock: BETDAH_clean_linker_0, # of connection points: 3
#     Node 7, Type 0, BuildingBlock: BETDAH_clean_linker_0, # of connection points: 3
#     Node 8, Type 1, BuildingBlock: LEVNOQ01_clean_sbu_1, # of connection points: 6
#     Node 9, Type 1, BuildingBlock: LEVNOQ01_clean_sbu_1, # of connection points: 6
#     Node 10, Type 1, BuildingBlock: LEVNOQ01_clean_sbu_1, # of connection points: 6
#     Node 11, Type 1, BuildingBlock: LEVNOQ01_clean_sbu_1, # of connection points: 6
#     Edge 12, Type (0, 1), BuildingBlock: XUDNAN_clean_linker_2, # of connection points: 2
#     Edge 13, Type (0, 1), BuildingBlock: XUDNAN_clean_linker_2, # of connection points: 2
#     Edge 14, Type (0, 1), BuildingBlock: XUDNAN_clean_linker_2, # of connection points: 2
#     Edge 15, Type (0, 1), BuildingBlock: XUDNAN_clean_linker_2, # of connection points: 2
#     Edge 16, Type (0, 1), BuildingBlock: XUDNAN_clean_linker_2, # of connection points: 2
#     Edge 17, Type (0, 1), BuildingBlock: XUDNAN_clean_linker_2, # of connection points: 2
#     Edge 18, Type (0, 1), BuildingBlock: XUDNAN_clean_linker_2, # of connection points: 2
#     Edge 19, Type (0, 1), BuildingBlock: XUDNAN_clean_linker_2, # of connection points: 2
#     Edge 20, Type (0, 1), BuildingBlock: XUDNAN_clean_linker_2, # of connection points: 2
#     Edge 21, Type (0, 1), BuildingBlock: XUDNAN_clean_linker_2, # of connection points: 2
#     Edge 22, Type (0, 1), BuildingBlock: XUDNAN_clean_linker_2, # of connection points: 2
#     Edge 23, Type (0, 1), BuildingBlock: XUDNAN_clean_linker_2, # of connection points: 2
#     Edge 24, Type (0, 1), BuildingBlock: XUDNAN_clean_linker_2, # of connection points: 2
#     Edge 25, Type (0, 1), BuildingBlock: XUDNAN_clean_linker_2, # of connection points: 2
#     Edge 26, Type (0, 1), BuildingBlock: XUDNAN_clean_linker_2, # of connection points: 2
#     Edge 27, Type (0, 1), BuildingBlock: XUDNAN_clean_linker_2, # of connection points: 2
#     Edge 28, Type (0, 1), BuildingBlock: XUDNAN_clean_linker_2, # of connection points: 2
#     Edge 29, Type (0, 1), BuildingBlock: XUDNAN_clean_linker_2, # of connection points: 2
#     Edge 30, Type (0, 1), BuildingBlock: XUDNAN_clean_linker_2, # of connection points: 2
#     Edge 31, Type (0, 1), BuildingBlock: XUDNAN_clean_linker_2, # of connection points: 2
#     Edge 32, Type (0, 1), BuildingBlock: XUDNAN_clean_linker_2, # of connection points: 2
#     Edge 33, Type (0, 1), BuildingBlock: XUDNAN_clean_linker_2, # of connection points: 2
#     Edge 34, Type (0, 1), BuildingBlock: XUDNAN_clean_linker_2, # of connection points: 2
#     Edge 35, Type (0, 1), BuildingBlock: XUDNAN_clean_linker_2, # of connection points: 2
# Relax obj value: 0.081
# Max RMSD: 0.172
# Mean RMSD: 0.135
data_MOF--net-pry--node1-LEVNOQ01_clean_sbu_1--node2-BETDAH_clean_linker_0--edge1-XUDNAN_clean_linker_2
_symmetry_space_group_name_H-M    P1
_symmetry_Int_Tables_number       1
_symmetry_cell_setting            triclinic
loop_
_symmetry_equiv_pos_as_xyz
'x, y, z'
_cell_length_a     36.158058
_cell_length_b     35.383432
_cell_length_c     36.623873
_cell_angle_alpha  92.531166
_cell_angle_beta   92.067451
_cell_angle_gamma 100.67908
loop_
_atom_site_label
_atom_site_type_symbol
_atom_site_fract_x
_atom_site_fract_y
_atom_site_fract_z
_atom_type_partial_charge
H0 H 0.18536 0.11231 0.18702 0.0
H1 H 0.17576 0.18054 0.09399 0.0
H2 H 0.09839 0.18061 0.17998 0.0
C3 C 0.17233 0.13315 0.17306 0.0
C4 C 0.14121 0.1459 0.18869 0.0
C5 C 0.18516 0.14484 0.13869 0.0
C6 C 0.16703 0.17128 0.12064 0.0
C7 C 0.13632 0.18494 0.13537 0.0
C8 C 0.1236 0.17233 0.16967 0.0
N9 N 0.11351 0.20252 0.11109 0.0
C10 C 0.10558 0.23973 0.1146 0.0
H11 H 0.44254 0.88608 0.70568 0.0
H12 H 0.37807 0.97343 0.68095 0.0
H13 H 0.38448 0.88334 0.60053 0.0
C14 C 0.42425 0.898 0.68707 0.0
C15 C 0.41479 0.88046 0.65195 0.0
C16 C 0.41073 0.9314 0.6979 0.0
C17 C 0.38791 0.94718 0.67328 0.0
C18 C 0.37793 0.92936 0.63855 0.0
C19 C 0.39114 0.89601 0.62803 0.0
N20 N 0.35927 0.94801 0.61237 0.0
C21 C 0.32042 0.94085 0.60699 0.0
H22 H 0.63394 0.38281 0.98084 0.0
H23 H 0.66425 0.44405 0.88314 0.0
H24 H 0.59291 0.33447 0.87488 0.0
C25 C 0.63294 0.38552 0.95161 0.0
C26 C 0.61342 0.35408 0.9299 0.0
C27 C 0.65498 0.41701 0.93543 0.0
C28 C 0.64856 0.42069 0.89739 0.0
C29 C 0.62402 0.39156 0.87646 0.0
C30 C 0.60767 0.35826 0.89258 0.0
N31 N 0.61901 0.39168 0.8381 0.0
C32 C 0.62663 0.42374 0.81759 0.0
H33 H 0.83636 0.67965 0.46502 0.0
H34 H 0.92263 0.65788 0.39365 0.0
H35 H 0.83446 0.56527 0.41992 0.0
C36 C 0.84905 0.65969 0.44855 0.0
C37 C 0.83265 0.62064 0.44642 0.0
C38 C 0.88318 0.67298 0.43243 0.0
C39 C 0.89673 0.64819 0.40726 0.0
C40 C 0.87791 0.60963 0.40171 0.0
C41 C 0.84699 0.59561 0.42244 0.0
N42 N 0.89136 0.58366 0.37753 0.0
C43 C 0.89659 0.59111 0.34108 0.0
H44 H 0.933 0.86524 0.84406 0.0
H45 H 0.87738 0.89747 0.93914 0.0
H46 H 0.86995 0.95758 0.84125 0.0
C47 C 0.91437 0.88223 0.8564 0.0
C48 C 0.90151 0.91098 0.83626 0.0
C49 C 0.90513 0.87606 0.89318 0.0
C50 C 0.88358 0.90044 0.91058 0.0
C51 C 0.87118 0.9299 0.89177 0.0
C52 C 0.87981 0.93459 0.85485 0.0
N53 N 0.8587 0.96035 0.91168 0.0
C54 C 0.82243 0.96051 0.92376 0.0
H55 H 0.67418 0.10492 0.36741 0.0
H56 H 0.68652 0.16602 0.47239 0.0
H57 H 0.60166 0.18573 0.39457 0.0
C58 C 0.66472 0.12485 0.38667 0.0
C59 C 0.63506 0.14372 0.37655 0.0
C60 C 0.68318 0.13298 0.42131 0.0
C61 C 0.67196 0.15953 0.44577 0.0
C62 C 0.64291 0.17863 0.43654 0.0
C63 C 0.62416 0.17072 0.40192 0.0
N64 N 0.63454 0.20572 0.46327 0.0
C65 C 0.6087 0.23012 0.46048 0.0
H66 H 0.32565 0.72162 0.16503 0.0
H67 H 0.35789 0.61117 0.17219 0.0
H68 H 0.43806 0.71335 0.20218 0.0
C69 C 0.34706 0.70458 0.1701 0.0
C70 C 0.3837 0.72311 0.18164 0.0
C71 C 0.3379 0.66445 0.16392 0.0
C72 C 0.36427 0.6423 0.17507 0.0
C73 C 0.3995 0.66023 0.19026 0.0
C74 C 0.40985 0.70037 0.19215 0.0
N75 N 0.42266 0.63805 0.20772 0.0
C76 C 0.41428 0.62822 0.243 0.0
H77 H 0.14104 0.38889 0.56395 0.0
H78 H 0.13453 0.48334 0.63985 0.0
H79 H 0.03775 0.39348 0.61746 0.0
C80 C 0.12465 0.40351 0.58218 0.0
C81 C 0.08732 0.38677 0.58841 0.0
C82 C 0.14165 0.43847 0.60019 0.0
C83 C 0.12148 0.45646 0.62549 0.0
C84 C 0.0838 0.44022 0.63123 0.0
C85 C 0.06678 0.40578 0.61252 0.0
N86 N 0.06266 0.45793 0.65611 0.0
C87 C 0.07361 0.46243 0.69285 0.0
O88 O 0.00673 0.03063 0.60993 0.0
Mg89 Mg 0.04921 0.05947 0.57874 0.0
O90 O 0.97515 -0.00095 0.56113 0.0
Mg91 Mg 0.0013 0.02842 0.50585 0.0
O92 O 0.02748 0.08521 0.53712 0.0
O93 O 0.06188 0.11757 0.58447 0.0
O94 O 0.03037 0.05554 0.45022 0.0
O95 O 0.94657 0.05665 0.50048 0.0
Mg96 Mg 0.95215 0.00234 0.43368 0.0
O97 O 0.97404 0.97294 0.47362 0.0
O98 O 0.99305 0.0319 0.40191 0.0
O99 O 0.91123 0.03154 0.4514 0.0
O100 O 0.93902 0.94422 0.42503 0.0
C101 C 0.08457 0.00468 0.53452 0.0
C102 C 0.98016 0.00504 0.59618 0.0
C103 C 0.04203 0.11759 0.55444 0.0
C104 C 0.02317 0.05262 0.41525 0.0
C105 C 0.91682 0.05382 0.47972 0.0
C106 C 0.95832 0.94184 0.45491 0.0
O107 O 0.08979 0.02951 0.561 0.0
O108 O 0.05485 -0.0007 0.51345 0.0
O109 O 0.42702 0.10074 0.05288 0.0
Mg110 Mg 0.48416 0.11971 0.06224 0.0
O111 O 0.43443 0.04008 0.05722 0.0
Mg112 Mg 0.49938 0.0342 0.04299 0.0
O113 O 0.51443 0.09441 0.02708 0.0
O114 O 0.51457 0.15703 0.02791 0.0
O115 O 0.56275 0.02578 0.02712 0.0
O116 O 0.47772 0.02003 0.98078 0.0
Mg117 Mg 0.50165 0.94686 0.01391 0.0
O118 O 0.48316 0.97294 0.05802 0.0
O119 O 0.56015 0.96333 0.01366 0.0
O120 O 0.47156 0.95743 0.9668 0.0
O121 O 0.47716 0.90938 0.05098 0.0
C122 C 0.52262 0.08398 0.12522 0.0
C123 C 0.41329 0.06579 0.05692 0.0
C124 C 0.52657 0.12742 0.0145 0.0
C125 C 0.57898 0.99732 0.01802 0.0
C126 C 0.46795 0.99088 0.95816 0.0
C127 C 0.47208 0.93933 0.07015 0.0
O128 O 0.5067 0.11044 0.11341 0.0
O129 O 0.52339 0.0532 0.10527 0.0
O130 O 0.46593 0.62048 0.61264 0.0
Mg131 Mg 0.47059 0.5651 0.62807 0.0
O132 O 0.49046 0.61544 0.55819 0.0
Mg133 Mg 0.49876 0.55182 0.54888 0.0
O134 O 0.51816 0.55127 0.60828 0.0
O135 O 0.50929 0.55865 0.66796 0.0
O136 O 0.50956 0.48807 0.53708 0.0
O137 O 0.56258 0.57378 0.54239 0.0
Mg138 Mg 0.52848 0.54793 0.47048 0.0
O139 O 0.47963 0.5575 0.48997 0.0
O140 O 0.53528 0.49237 0.48277 0.0
O141 O 0.57131 0.59425 0.48709 0.0
O142 O 0.49031 0.55486 0.43037 0.0
C143 C 0.41334 0.51462 0.58258 0.0
C144 C 0.47706 0.63484 0.58298 0.0
C145 C 0.53009 0.55074 0.64185 0.0
C146 C 0.52497 0.47316 0.51028 0.0
C147 C 0.58399 0.59102 0.51915 0.0
C148 C 0.46871 0.56074 0.4565 0.0
O149 O 0.42514 0.52086 0.61559 0.0
O150 O 0.43442 0.52683 0.55661 0.0
O151 O 0.05515 0.51632 0.07503 0.0
Mg152 Mg 0.04095 0.5723 0.07266 0.0
O153 O 0.01489 0.49499 0.02907 0.0
Mg154 Mg 0.00721 0.55768 0.0114 0.0
O155 O 0.98495 0.5737 0.06994 0.0
O156 O 0.02222 0.58317 0.12159 0.0
O157 O 0.99895 0.62306 0.99614 0.0
O158 O 0.94207 0.53363 1.00286 0.0
Mg159 Mg 0.9804 0.56022 0.93821 0.0
O160 O 0.02694 0.53926 0.95418 0.0
O161 O 0.98444 0.61879 0.93712 0.0
O162 O 0.92687 0.52946 0.94391 0.0
O163 O 0.00503 0.54048 0.89583 0.0
C164 C 0.09479 0.60508 0.03543 0.0
C165 C 0.03768 0.48838 0.05459 0.0
C166 C 0.98974 0.58079 0.10515 0.0
C167 C 0.99039 0.63888 0.96673 0.0
C168 C 0.91761 0.52467 0.97643 0.0
C169 C 0.02966 0.53261 0.91926 0.0
O170 O 0.07979 0.622 0.06007 0.0
O171 O 0.07383 0.57737 0.01713 0.0
H172 H 0.11574 0.17923 0.25201 0.0
H173 H 0.12866 0.06944 0.20135 0.0
H174 H 0.10706 0.03707 0.25674 0.0
H175 H 0.14506 0.1591 0.345 0.0
H176 H 0.11116 0.18263 0.36723 0.0
H177 H 0.12899 0.19866 0.32406 0.0
H178 H 0.06103 0.18874 0.29579 0.0
H179 H 0.04303 0.17336 0.339 0.0
H180 H 0.0303 0.14263 0.29817 0.0
H181 H 0.08651 0.01592 0.31733 0.0
H182 H 0.0566 0.00475 0.37608 0.0
H183 H 0.05068 0.12583 0.38911 0.0
C184 C 0.11387 0.14838 0.25261 0.0
C185 C 0.125 0.12718 0.22229 0.0
C186 C 0.12163 0.08672 0.22431 0.0
C187 C 0.10926 0.06793 0.25577 0.0
C188 C 0.09988 0.08965 0.28548 0.0
C189 C 0.10125 0.12883 0.28415 0.0
C190 C 0.08791 0.14455 0.31993 0.0
C191 C 0.1202 0.17294 0.34025 0.0
C192 C 0.05351 0.16342 0.31279 0.0
C193 C 0.07767 0.10785 0.34083 0.0
C194 C 0.0861 0.0769 0.32057 0.0
C195 C 0.07991 0.03995 0.33348 0.0
C196 C 0.06332 0.03398 0.36724 0.0
C197 C 0.05216 0.06443 0.38792 0.0
C198 C 0.06001 0.10217 0.37469 0.0
H199 H 0.39529 0.89914 0.76279 0.0
H200 H 0.44751 0.00505 0.71587 0.0
H201 H 0.46342 0.03557 0.77827 0.0
H202 H 0.35435 0.94494 0.83829 0.0
H203 H 0.36181 0.90896 0.86967 0.0
H204 H 0.35414 0.89625 0.82144 0.0
H205 H 0.41693 0.87075 0.82059 0.0
H206 H 0.42445 0.88265 0.86885 0.0
H207 H 0.45989 0.90181 0.83776 0.0
H208 H 0.47664 0.05254 0.8474 0.0
H209 H 0.48713 0.05309 0.91489 0.0
H210 H 0.42249 0.9369 0.91436 0.0
C211 C 0.41003 0.92877 0.76577 0.0
C212 C 0.42039 0.94983 0.73486 0.0
C213 C 0.43934 0.98863 0.7395 0.0
C214 C 0.44837 0.00613 0.77475 0.0
C215 C 0.4375 0.98458 0.80489 0.0
C216 C 0.41855 0.94678 0.80056 0.0
C217 C 0.41031 0.92944 0.83696 0.0
C218 C 0.36761 0.9193 0.84187 0.0
C219 C 0.42903 0.89409 0.84128 0.0
C220 C 0.42859 0.96281 0.8626 0.0
C221 C 0.44393 0.99462 0.84388 0.0
C222 C 0.4642 0.02796 0.8623 0.0
C223 C 0.46978 0.02818 0.90064 0.0
C224 C 0.45537 0.99513 0.91987 0.0
C225 C 0.43362 0.96271 0.90049 0.0
H226 H 0.60294 0.40537 0.74909 0.0
H227 H 0.65162 0.50129 0.82373 0.0
H228 H 0.64888 0.54625 0.77389 0.0
H229 H 0.64428 0.44483 0.66247 0.0
H230 H 0.60112 0.4259 0.63628 0.0
H231 H 0.61487 0.40073 0.67479 0.0
H232 H 0.55117 0.40306 0.70493 0.0
H233 H 0.53703 0.42605 0.66561 0.0
H234 H 0.53618 0.44874 0.71056 0.0
H235 H 0.6308 0.58013 0.72095 0.0
H236 H 0.58748 0.60064 0.67581 0.0
H237 H 0.55199 0.48304 0.63384 0.0
C238 C 0.6143 0.43578 0.75432 0.0
C239 C 0.62855 0.45031 0.78928 0.0
C240 C 0.64161 0.49005 0.79643 0.0
C241 C 0.64042 0.51551 0.76829 0.0
C242 C 0.62637 0.5003 0.73356 0.0
C243 C 0.61306 0.4613 0.72671 0.0
C244 C 0.59297 0.45268 0.6896 0.0
C245 C 0.61462 0.42968 0.66428 0.0
C246 C 0.55195 0.43145 0.69292 0.0
C247 C 0.59483 0.49315 0.67734 0.0
C248 C 0.61552 0.52018 0.70247 0.0
C249 C 0.61556 0.55941 0.70056 0.0
C250 C 0.59117 0.5709 0.67465 0.0
C251 C 0.56717 0.54313 0.65156 0.0
C252 C 0.57133 0.50453 0.65059 0.0
H253 H 0.91181 0.53655 0.2944 0.0
H254 H 0.89045 0.65295 0.30163 0.0
H255 H 0.89893 0.65794 0.23485 0.0
H256 H 0.98506 0.55424 0.2364 0.0
H257 H 0.97355 0.50826 0.21137 0.0
H258 H 0.95971 0.5128 0.25767 0.0
H259 H 0.89033 0.48545 0.23607 0.0
H260 H 0.90417 0.48174 0.18944 0.0
H261 H 0.86811 0.5087 0.20084 0.0
H262 H 0.91833 0.65291 0.16985 0.0
H263 H 0.95312 0.64084 0.11474 0.0
H264 H 0.96025 0.52739 0.15017 0.0
C265 C 0.90822 0.56275 0.28159 0.0
C266 C 0.90036 0.59432 0.30243 0.0
C267 C 0.89636 0.6285 0.28554 0.0
C268 C 0.90077 0.63138 0.24775 0.0
C269 C 0.90871 0.59961 0.22763 0.0
C270 C 0.9125 0.56597 0.24409 0.0
C271 C 0.92557 0.53771 0.21772 0.0
C272 C 0.96319 0.52772 0.23161 0.0
C273 C 0.89522 0.50125 0.2106 0.0
C274 C 0.93027 0.5613 0.18423 0.0
C275 C 0.91954 0.59659 0.19006 0.0
C276 C 0.92579 0.62501 0.16453 0.0
C277 C 0.94521 0.6179 0.13319 0.0
C278 C 0.95806 0.58285 0.12815 0.0
C279 C 0.94916 0.55375 0.15305 0.0
H280 H 0.24768 0.11963 0.16974 0.0
H281 H 0.19015 0.12768 0.06488 0.0
H282 H 0.23803 0.0989 0.03388 0.0
H283 H 0.34059 0.14161 0.14237 0.0
H284 H 0.35791 0.1068 0.16957 0.0
H285 H 0.31784 0.12626 0.18364 0.0
H286 H 0.27915 0.05702 0.18505 0.0
H287 H 0.31905 0.0374 0.17018 0.0
H288 H 0.2746 0.02538 0.14456 0.0
H289 H 0.29419 0.07249 0.01313 0.0
H290 H 0.35741 0.05734 0.00462 0.0
H291 H 0.37824 0.06342 0.12196 0.0
C292 C 0.24465 0.11489 0.14031 0.0
C293 C 0.21481 0.12675 0.12009 0.0
C294 C 0.21284 0.12017 0.08142 0.0
C295 C 0.23973 0.10308 0.06338 0.0
C296 C 0.26846 0.09173 0.08411 0.0
C297 C 0.27113 0.09736 0.12175 0.0
C298 C 0.30573 0.08375 0.13735 0.0
C299 C 0.33208 0.11658 0.15951 0.0
C300 C 0.29393 0.04882 0.16068 0.0
C301 C 0.32333 0.07196 0.10246 0.0
C302 C 0.30065 0.07568 0.07213 0.0
C303 C 0.31175 0.06868 0.03673 0.0
C304 C 0.34757 0.05947 0.0321 0.0
C305 C 0.37221 0.05745 0.06256 0.0
C306 C 0.35934 0.06277 0.09823 0.0
H307 H 0.29463 0.99692 0.57482 0.0
H308 H 0.25969 0.88315 0.61491 0.0
H309 H 0.19385 0.88275 0.5919 0.0
H310 H 0.21211 0.03302 0.5982 0.0
H311 H 0.21351 0.06169 0.55862 0.0
H312 H 0.25641 0.05094 0.57827 0.0
H313 H 0.27037 0.02233 0.51477 0.0
H314 H 0.22666 0.03169 0.49536 0.0
H315 H 0.23655 0.98357 0.49245 0.0
H316 H 0.13117 0.89732 0.56543 0.0
H317 H 0.0779 0.9281 0.54565 0.0
H318 H 0.15668 0.03059 0.52136 0.0
C319 C 0.27302 0.97193 0.57867 0.0
C320 C 0.28166 0.94003 0.59622 0.0
C321 C 0.25312 0.90779 0.60125 0.0
C322 C 0.2159 0.90729 0.58811 0.0
C323 C 0.20833 0.93913 0.5699 0.0
C324 C 0.23619 0.97097 0.56567 0.0
C325 C 0.22116 0.00234 0.54678 0.0
C326 C 0.22607 0.03914 0.57197 0.0
C327 C 0.2398 0.01044 0.51016 0.0
C328 C 0.1803 0.9835 0.54094 0.0
C329 C 0.17319 0.94693 0.55417 0.0
C330 C 0.1366 0.92558 0.55435 0.0
C331 C 0.10655 0.94293 0.5425 0.0
C332 C 0.11357 0.9811 0.53089 0.0
C333 C 0.15087 0.0008 0.52872 0.0
H334 H 0.70228 0.48531 0.91735 0.0
H335 H 0.68944 0.40017 1.00107 0.0
H336 H 0.75096 0.4278 0.02674 0.0
H337 H 0.78875 0.4707 0.89723 0.0
H338 H 0.80862 0.51968 0.88777 0.0
H339 H 0.7587 0.50273 0.88181 0.0
H340 H 0.7465 0.55792 0.92597 0.0
H341 H 0.79658 0.5754 0.93178 0.0
H342 H 0.76888 0.56431 0.97119 0.0
H343 H 0.81855 0.45504 0.03784 0.0
H344 H 0.88656 0.48017 0.03105 0.0
H345 H 0.85877 0.54072 0.93642 0.0
C346 C 0.71152 0.47238 0.94134 0.0
C347 C 0.68923 0.43991 0.95628 0.0
C348 C 0.7038 0.42539 0.9885 0.0
C349 C 0.73963 0.44084 0.00371 0.0
C350 C 0.76143 0.4707 0.98661 0.0
C351 C 0.74796 0.48648 0.95616 0.0
C352 C 0.77921 0.51372 0.93919 0.0
C353 C 0.78409 0.50091 0.89916 0.0
C354 C 0.77237 0.55531 0.94223 0.0
C355 C 0.81241 0.50889 0.96374 0.0
C356 C 0.80144 0.48497 0.99168 0.0
C357 C 0.82752 0.47442 0.01648 0.0
C358 C 0.86596 0.48861 0.01241 0.0
C359 C 0.87759 0.51199 0.98314 0.0
C360 C 0.85046 0.52265 0.95896 0.0
H361 H 0.76842 0.56638 0.43097 0.0
H362 H 0.82772 0.64437 0.5176 0.0
H363 H 0.77107 0.63494 0.5534 0.0
H364 H 0.68877 0.59277 0.42808 0.0
H365 H 0.65704 0.54688 0.42371 0.0
H366 H 0.70432 0.55061 0.40939 0.0
H367 H 0.71487 0.4971 0.45244 0.0
H368 H 0.66724 0.49311 0.46703 0.0
H369 H 0.70612 0.50209 0.50038 0.0
H370 H 0.70541 0.63288 0.57051 0.0
H371 H 0.63629 0.63092 0.57034 0.0
H372 H 0.62096 0.54957 0.47675 0.0
C373 C 0.76998 0.57987 0.45823 0.0
C374 C 0.80195 0.60695 0.47099 0.0
C375 C 0.80296 0.62445 0.50671 0.0
C376 C 0.77114 0.61881 0.52761 0.0
C377 C 0.73906 0.59409 0.51325 0.0
C378 C 0.73864 0.57357 0.48002 0.0
C379 C 0.69942 0.5521 0.46907 0.0
C380 C 0.68669 0.56122 0.43031 0.0
C381 C 0.69677 0.50852 0.47244 0.0
C382 C 0.67755 0.56842 0.49831 0.0
C383 C 0.70086 0.59139 0.52445 0.0
C384 C 0.68673 0.61381 0.55109 0.0
C385 C 0.64773 0.61297 0.55065 0.0
C386 C 0.62411 0.59057 0.5232 0.0
C387 C 0.63898 0.56712 0.49777 0.0
H388 H 0.1061 0.28291 0.05411 0.0
H389 H 0.07635 0.27925 0.16763 0.0
H390 H 0.0518 0.33972 0.16216 0.0
H391 H 0.13658 0.38628 0.05293 0.0
H392 H 0.11732 0.39014 0.00745 0.0
H393 H 0.13189 0.34624 0.01982 0.0
H394 H 0.06559 0.30798 1.00032 0.0
H395 H 0.05068 0.35186 0.98828 0.0
H396 H 0.02477 0.32133 0.02043 0.0
H397 H 0.0317 0.40049 0.14545 0.0
H398 H 0.02025 0.46074 0.11991 0.0
H399 H 0.06184 0.42747 0.01602 0.0
C400 C 0.09459 0.29513 0.07781 0.0
C401 C 0.09337 0.27667 0.11156 0.0
C402 C 0.07783 0.29312 0.1418 0.0
C403 C 0.06364 0.32733 0.1388 0.0
C404 C 0.06499 0.34481 0.10526 0.0
C405 C 0.08022 0.32951 0.07523 0.0
C406 C 0.07868 0.35482 0.04263 0.0
C407 C 0.11849 0.37029 0.02998 0.0
C408 C 0.05343 0.33267 0.01105 0.0
C409 C 0.06093 0.38713 0.05931 0.0
C410 C 0.05297 0.38025 0.09538 0.0
C411 C 0.03761 0.40605 0.11723 0.0
C412 C 0.03109 0.4402 0.10241 0.0
C413 C 0.03958 0.44871 0.06589 0.0
C414 C 0.05423 0.42142 0.04377 0.0
H415 H 0.55676 0.2924 0.9104 0.0
H416 H 0.65898 0.32616 0.97938 0.0
H417 H 0.65728 0.25867 0.99278 0.0
H418 H 0.50965 0.2229 0.96084 0.0
H419 H 0.49049 0.19099 0.92219 0.0
H420 H 0.50334 0.24158 0.91647 0.0
H421 H 0.54603 0.22607 0.86428 0.0
H422 H 0.53483 0.1753 0.87205 0.0
H423 H 0.58325 0.19989 0.87386 0.0
H424 H 0.64122 0.19048 0.00444 0.0
H425 H 0.60124 0.13343 0.02723 0.0
H426 H 0.51513 0.13975 0.94445 0.0
C427 C 0.57915 0.2856 0.92789 0.0
C428 C 0.60803 0.31477 0.94354 0.0
C429 C 0.63607 0.30464 0.96733 0.0
C430 C 0.63609 0.26615 0.97426 0.0
C431 C 0.60861 0.238 0.95644 0.0
C432 C 0.58033 0.2473 0.93415 0.0
C433 C 0.55163 0.21213 0.92163 0.0
C434 C 0.51147 0.2172 0.93092 0.0
C435 C 0.5541 0.20281 0.88051 0.0
C436 C 0.56574 0.18227 0.94394 0.0
C437 C 0.59997 0.19734 0.96217 0.0
C438 C 0.61505 0.17792 0.98968 0.0
C439 C 0.59244 0.14501 1.00211 0.0
C440 C 0.55523 0.13339 0.98763 0.0
C441 C 0.54391 0.14848 0.95519 0.0
H442 H 0.92865 0.72784 0.39379 0.0
H443 H 0.88856 0.70405 0.50236 0.0
H444 H 0.91615 0.76982 0.52411 0.0
H445 H 0.02 0.79625 0.43232 0.0
H446 H 0.01943 0.82643 0.39403 0.0
H447 H 0.00282 0.77514 0.38781 0.0
H448 H 0.93859 0.7865 0.36088 0.0
H449 H 0.95544 0.83742 0.36622 0.0
H450 H 0.91243 0.81629 0.38685 0.0
H451 H 0.93537 0.8403 0.53104 0.0
H452 H 0.94545 0.91018 0.521 0.0
H453 H 0.97907 0.88803 0.41109 0.0
C454 C 0.92687 0.73607 0.4224 0.0
C455 C 0.90539 0.71101 0.44588 0.0
C456 C 0.90359 0.72306 0.48323 0.0
C457 C 0.91986 0.76024 0.49624 0.0
C458 C 0.93956 0.78476 0.47217 0.0
C459 C 0.94401 0.77301 0.43624 0.0
C460 C 0.96389 0.80623 0.41543 0.0
C461 C 0.00391 0.80066 0.40689 0.0
C462 C 0.94119 0.81193 0.38033 0.0
C463 C 0.9653 0.83893 0.44381 0.0
C464 C 0.95265 0.82583 0.47695 0.0
C465 C 0.94672 0.85101 0.50575 0.0
C466 C 0.95252 0.89056 0.49995 0.0
C467 C 0.96334 0.90383 0.46546 0.0
C468 C 0.97141 0.87809 0.43784 0.0
H469 H 0.37776 0.80932 0.6267 0.0
H470 H 0.48934 0.87815 0.6477 0.0
H471 H 0.51756 0.82474 0.62171 0.0
H472 H 0.40212 0.7218 0.6538 0.0
H473 H 0.37072 0.69216 0.62018 0.0
H474 H 0.3601 0.73723 0.63709 0.0
H475 H 0.35623 0.75834 0.57027 0.0
H476 H 0.36804 0.71364 0.55339 0.0
H477 H 0.39609 0.75882 0.54198 0.0
H478 H 0.53346 0.76309 0.59522 0.0
H479 H 0.53614 0.69448 0.58111 0.0
H480 H 0.41445 0.66561 0.58024 0.0
C481 C 0.40811 0.81307 0.62555 0.0
C482 C 0.43154 0.84766 0.63887 0.0
C483 C 0.47111 0.85164 0.63763 0.0
C484 C 0.48727 0.82172 0.62255 0.0
C485 C 0.46339 0.78805 0.6091 0.0
C486 C 0.42467 0.78331 0.61115 0.0
C487 C 0.40546 0.743 0.59835 0.0
C488 C 0.38333 0.72234 0.62919 0.0
C489 C 0.37995 0.74351 0.56395 0.0
C490 C 0.43942 0.72554 0.58956 0.0
C491 C 0.47256 0.75222 0.59493 0.0
C492 C 0.5077 0.74207 0.59049 0.0
C493 C 0.50901 0.70324 0.58213 0.0
C494 C 0.47543 0.6754 0.57897 0.0
C495 C 0.44033 0.68682 0.5816 0.0
H496 H 0.90412 0.97683 0.79509 0.0
H497 H 0.9219 0.85849 0.78492 0.0
H498 H 0.93962 0.86819 0.72166 0.0
H499 H 0.86026 0.97309 0.7025 0.0
H500 H 0.87928 0.02297 0.69588 0.0
H501 H 0.86868 0.00735 0.74117 0.0
H502 H 0.93726 0.03539 0.76425 0.0
H503 H 0.94785 0.05162 0.71931 0.0
H504 H 0.97579 0.02087 0.74082 0.0
H505 H 0.95652 0.89124 0.65763 0.0
H506 H 0.97451 0.92737 0.60239 0.0
H507 H 0.94182 0.02825 0.65312 0.0
C508 C 0.9109 0.95234 0.77991 0.0
C509 C 0.91156 0.91679 0.79654 0.0
C510 C 0.92183 0.88652 0.77441 0.0
C511 C 0.93153 0.89149 0.73776 0.0
C512 C 0.93002 0.92659 0.7225 0.0
C513 C 0.91973 0.95642 0.74292 0.0
C514 C 0.91982 0.99121 0.71999 0.0
C515 C 0.87963 -0.00086 0.71458 0.0
C516 C 0.94681 0.02685 0.73712 0.0
C517 C 0.93375 0.97709 0.68414 0.0
C518 C 0.93868 0.93939 0.68574 0.0
C519 C 0.95214 0.92057 0.65601 0.0
C520 C 0.96181 0.94111 0.62443 0.0
C521 C 0.95844 0.98025 0.62287 0.0
C522 C 0.94359 0.99802 0.65302 0.0
H523 H 0.60969 0.07602 0.33291 0.0
H524 H 0.62408 0.20076 0.33327 0.0
H525 H 0.6005 0.19605 0.26943 0.0
H526 H 0.63623 0.06213 0.23817 0.0
H527 H 0.60157 0.01902 0.22779 0.0
H528 H 0.62041 0.03055 0.27404 0.0
H529 H 0.55308 0.02696 0.2968 0.0
H530 H 0.53407 0.01508 0.2507 0.0
H531 H 0.5225 0.05574 0.27622 0.0
H532 H 0.5816 0.18081 0.20691 0.0
H533 H 0.55435 0.15571 0.14754 0.0
H534 H 0.54319 0.03835 0.18296 0.0
C535 C 0.60772 0.10221 0.31938 0.0
C536 C 0.61864 0.13893 0.3383 0.0
C537 C 0.61551 0.17246 0.31976 0.0
C538 C 0.60249 0.17009 0.28329 0.0
C539 C 0.59239 0.13391 0.26543 0.0
C540 C 0.594 0.10035 0.28259 0.0
C541 C 0.57968 0.06545 0.25614 0.0
C542 C 0.61136 0.04294 0.2486 0.0
C543 C 0.54527 0.03927 0.27085 0.0
C544 C 0.56907 0.08509 0.22192 0.0
C545 C 0.57808 0.1246 0.22835 0.0
C546 C 0.57348 0.14999 0.20172 0.0
C547 C 0.55767 0.1351 0.16788 0.0
C548 C 0.54502 0.0949 0.16049 0.0
C549 C 0.55191 0.06918 0.1877 0.0
H550 H 0.44426 0.67052 0.30258 0.0
H551 H 0.36074 0.57131 0.26521 0.0
H552 H 0.3476 0.55639 0.32934 0.0
H553 H 0.48663 0.6289 0.36362 0.0
H554 H 0.49736 0.66817 0.39774 0.0
H555 H 0.48958 0.67805 0.35105 0.0
H556 H 0.43716 0.71505 0.37027 0.0
H557 H 0.44452 0.70405 0.41731 0.0
H558 H 0.39821 0.69126 0.39526 0.0
H559 H 0.35862 0.54038 0.39174 0.0
H560 H 0.39727 0.52201 0.44217 0.0
H561 H 0.46946 0.63371 0.44478 0.0
C562 C 0.42229 0.64654 0.30833 0.0
C563 C 0.40354 0.6218 0.2798 0.0
C564 C 0.37534 0.59033 0.28728 0.0
C565 C 0.36737 0.5821 0.32354 0.0
C566 C 0.38754 0.60604 0.3517 0.0
C567 C 0.41424 0.63803 0.34443 0.0
C568 C 0.4377 0.65428 0.37846 0.0
C569 C 0.48025 0.65742 0.37234 0.0
C570 C 0.42883 0.69348 0.39106 0.0
C571 C 0.42326 0.62378 0.40492 0.0
C572 C 0.39302 0.59715 0.38952 0.0
C573 C 0.38108 0.56168 0.40482 0.0
C574 C 0.40288 0.55146 0.43384 0.0
C575 C 0.43569 0.57692 0.44715 0.0
C576 C 0.44348 0.61471 0.43542 0.0
H577 H 0.09679 0.5277 0.73363 0.0
H578 H 0.06848 0.40387 0.73799 0.0
H579 H 0.07593 0.40973 0.80558 0.0
H580 H 0.16279 0.54798 0.8191 0.0
H581 H 0.14393 0.59031 0.83138 0.0
H582 H 0.14692 0.57603 0.78385 0.0
H583 H 0.07525 0.57445 0.77245 0.0
H584 H 0.07283 0.59012 0.81924 0.0
H585 H 0.04242 0.54651 0.80131 0.0
H586 H 0.06991 0.42914 0.86992 0.0
H587 H 0.0439 0.46007 0.92224 0.0
H588 H 0.08138 0.57153 0.8791 0.0
C589 C 0.09385 0.50194 0.74902 0.0
C590 C 0.08293 0.46542 0.73132 0.0
C591 C 0.07762 0.43205 0.75161 0.0
C592 C 0.0821 0.43516 0.78987 0.0
C593 C 0.09226 0.47183 0.80705 0.0
C594 C 0.09812 0.50469 0.78715 0.0
C595 C 0.10139 0.54068 0.81165 0.0
C596 C 0.14114 0.56518 0.81149 0.0
C597 C 0.07117 0.56424 0.80052 0.0
C598 C 0.09405 0.523 0.84819 0.0
C599 C 0.08982 0.48322 0.84524 0.0
C600 C 0.07462 0.46023 0.87313 0.0
C601 C 0.06029 0.47796 0.90309 0.0
C602 C 0.06144 0.51802 0.90448 0.0
C603 C 0.08167 0.54095 0.87881 0.0
H604 H 0.76017 0.91636 0.95293 0.0
H605 H 0.80978 0.03263 0.92727 0.0
H606 H 0.75535 0.05658 0.95255 0.0
H607 H 0.66416 0.9232 0.92992 0.0
H608 H 0.64468 0.89456 0.96658 0.0
H609 H 0.68808 0.88697 0.94753 0.0
H610 H 0.72097 0.89804 0.01211 0.0
H611 H 0.67771 0.90605 0.03129 0.0
H612 H 0.71999 0.94204 0.03853 0.0
H613 H 0.69351 0.06784 0.97961 0.0
H614 H 0.62924 0.06398 0.00291 0.0
H615 H 0.62101 0.9408 0.01173 0.0
C616 C 0.75941 0.9468 0.95265 0.0
C617 C 0.78903 0.97273 0.93796 0.0
C618 C 0.7872 0.01234 0.93821 0.0
C619 C 0.75646 0.02624 0.95267 0.0
C620 C 0.72757 0.00017 0.96703 0.0
C621 C 0.72875 0.96122 0.96706 0.0
C622 C 0.69363 0.9392 0.98335 0.0
C623 C 0.67132 0.90922 0.95516 0.0
C624 C 0.70369 0.92022 0.0184 0.0
C625 C 0.67244 0.97164 0.9919 0.0
C626 C 0.69246 0.0067 0.98262 0.0
C627 C 0.67769 0.04047 0.98716 0.0
C628 C 0.64121 0.03814 1.00066 0.0
C629 C 0.61977 0.00223 0.00935 0.0
C630 C 0.63636 0.96889 0.00549 0.0
H631 H 0.75638 0.15213 0.40232 0.0
H632 H 0.68179 0.07707 0.46936 0.0
H633 H 0.73676 0.05732 0.50009 0.0
H634 H 0.8236 0.09024 0.38875 0.0
H635 H 0.86359 0.12934 0.39114 0.0
H636 H 0.81813 0.13749 0.37559 0.0
H637 H 0.82348 0.1928 0.42549 0.0
H638 H 0.86838 0.18361 0.44205 0.0
H639 H 0.83051 0.18289 0.47284 0.0
H640 H 0.79918 0.0459 0.52344 0.0
H641 H 0.86396 0.03293 0.52873 0.0
H642 H 0.89836 0.11482 0.4465 0.0
C643 C 0.75181 0.13084 0.42286 0.0
C644 C 0.71509 0.1153 0.43312 0.0
C645 C 0.70986 0.08847 0.46079 0.0
C646 C 0.74086 0.07768 0.47874 0.0
C647 C 0.77686 0.09441 0.46893 0.0
C648 C 0.78253 0.11984 0.44116 0.0
C649 C 0.82412 0.13216 0.43483 0.0
C650 C 0.83287 0.12164 0.39525 0.0
C651 C 0.83738 0.17544 0.44437 0.0
C652 C 0.84074 0.10827 0.46218 0.0
C653 C 0.81308 0.08777 0.48248 0.0
C654 C 0.8212 0.06214 0.50812 0.0
C655 C 0.85815 0.05538 0.51141 0.0
C656 C 0.8861 0.07376 0.4888 0.0
C657 C 0.87767 0.10162 0.46503 0.0
H658 H 0.29922 0.69646 0.11117 0.0
H659 H 0.29434 0.59197 0.17064 0.0
H660 H 0.23723 0.56214 0.13373 0.0
H661 H 0.20182 0.69637 0.11467 0.0
H662 H 0.1989 0.71684 0.07066 0.0
H663 H 0.2424 0.72705 0.09772 0.0
H664 H 0.27653 0.70208 0.04315 0.0
H665 H 0.23279 0.69068 0.01624 0.0
H666 H 0.26027 0.65389 0.02377 0.0
H667 H 0.18164 0.54345 0.08923 0.0
H668 H 0.12176 0.54267 0.05486 0.0
H669 H 0.15633 0.66361 0.03482 0.0
C670 C 0.2862 0.66747 0.11713 0.0
C671 C 0.30201 0.64654 0.14373 0.0
C672 C 0.28379 0.60838 0.14971 0.0
C673 C 0.25124 0.59114 0.12887 0.0
C674 C 0.23694 0.61264 0.10265 0.0
C675 C 0.25314 0.65038 0.09767 0.0
C676 C 0.22969 0.66898 0.0713 0.0
C677 C 0.21746 0.70437 0.08971 0.0
C678 C 0.2511 0.67953 0.03656 0.0
C679 C 0.19678 0.63614 0.06321 0.0
C680 C 0.20261 0.60333 0.08006 0.0
C681 C 0.17663 0.56901 0.07618 0.0
C682 C 0.14281 0.56881 0.05638 0.0
C683 C 0.13457 0.60314 0.04237 0.0
C684 C 0.1623 0.63694 0.04486 0.0
H685 H 0.20448 0.45114 0.64616 0.0
H686 H 0.16567 0.46173 0.53442 0.0
H687 H 0.23164 0.47994 0.5164 0.0
H688 H 0.28685 0.53079 0.64767 0.0
H689 H 0.31535 0.50533 0.6753 0.0
H690 H 0.26507 0.49703 0.67955 0.0
H691 H 0.26289 0.42404 0.66647 0.0
H692 H 0.31295 0.43233 0.66083 0.0
H693 H 0.28119 0.40771 0.62467 0.0
H694 H 0.30182 0.4941 0.51006 0.0
H695 H 0.37143 0.5093 0.51749 0.0
H696 H 0.36345 0.4853 0.63257 0.0
C697 C 0.21005 0.45829 0.61817 0.0
C698 C 0.18041 0.45549 0.59159 0.0
C699 C 0.18836 0.46409 0.55502 0.0
C700 C 0.22559 0.47422 0.54457 0.0
C701 C 0.25441 0.47531 0.57103 0.0
C702 C 0.24712 0.46808 0.60719 0.0
C703 C 0.28322 0.47009 0.62994 0.0
C704 C 0.28788 0.50276 0.65987 0.0
C705 C 0.28515 0.43122 0.64643 0.0
C706 C 0.31173 0.4792 0.60085 0.0
C707 C 0.29469 0.48224 0.56708 0.0
C708 C 0.31558 0.49181 0.53639 0.0
C709 C 0.35505 0.50007 0.54076 0.0
C710 C 0.37291 0.49857 0.57557 0.0
C711 C 0.35078 0.48671 0.60553 0.0
H712 H 0.91076 0.80367 0.86627 0.0
H713 H 0.9312 0.87681 0.96582 0.0
H714 H 0.9556 0.8252 0.99725 0.0
H715 H 0.88204 0.71399 0.909 0.0
H716 H 0.90442 0.68738 0.87608 0.0
H717 H 0.88735 0.72974 0.86302 0.0
H718 H 0.95386 0.7593 0.84213 0.0
H719 H 0.97116 0.71713 0.85532 0.0
H720 H 0.99386 0.76404 0.87397 0.0
H721 H 0.97917 0.76198 0.01753 0.0
H722 H 0.99746 0.69765 0.0225 0.0
H723 H 0.96376 0.67134 0.90789 0.0
C724 C 0.92059 0.80922 0.89461 0.0
C725 C 0.91903 0.84471 0.91327 0.0
C726 C 0.93158 0.84989 0.95074 0.0
C727 C 0.94578 0.8207 0.96885 0.0
C728 C 0.94737 0.78624 0.94929 0.0
C729 C 0.93492 0.78067 0.91292 0.0
C730 C 0.93959 0.7417 0.89732 0.0
C731 C 0.90107 0.71674 0.88568 0.0
C732 C 0.9662 0.74581 0.8653 0.0
C733 C 0.95717 0.72619 0.93021 0.0
C734 C 0.96127 0.7517 0.9603 0.0
C735 C 0.97615 0.74205 0.99386 0.0
C736 C 0.98666 0.70547 0.9965 0.0
C737 C 0.98263 0.67913 0.96564 0.0
C738 C 0.96788 0.69041 0.93223 0.0
H739 H 0.35586 0.76855 0.13339 0.0
H740 H 0.43819 0.77445 0.22385 0.0
H741 H 0.45959 0.84348 0.21452 0.0
H742 H 0.4081 0.82245 0.07705 0.0
H743 H 0.37117 0.84519 0.05896 0.0
H744 H 0.3594 0.79907 0.07787 0.0
H745 H 0.31546 0.82705 0.12211 0.0
H746 H 0.3285 0.8739 0.10376 0.0
H747 H 0.33427 0.86836 0.15222 0.0
H748 H 0.48045 0.90622 0.18678 0.0
H749 H 0.50217 0.95147 0.13932 0.0
H750 H 0.40008 0.90882 0.07406 0.0
C751 C 0.37693 0.78438 0.15284 0.0
C752 C 0.39464 0.76568 0.17984 0.0
C753 C 0.424 0.7877 0.20281 0.0
C754 C 0.43593 0.82722 0.19818 0.0
C755 C 0.41744 0.84456 0.17135 0.0
C756 C 0.3883 0.82369 0.1493 0.0
C757 C 0.37621 0.84704 0.11915 0.0
C758 C 0.37897 0.82729 0.08109 0.0
C759 C 0.33624 0.85455 0.12467 0.0
C760 C 0.40522 0.88357 0.12572 0.0
C761 C 0.42824 0.88213 0.1566 0.0
C762 C 0.46187 0.90854 0.1635 0.0
C763 C 0.47388 0.93456 0.13667 0.0
C764 C 0.45224 0.93342 0.10375 0.0
C765 C 0.41609 0.91063 0.09988 0.0
H766 H 0.04627 0.32622 0.62122 0.0
H767 H 0.09317 0.36044 0.51778 0.0
H768 H 0.07308 0.29381 0.49208 0.0
H769 H 0.07764 0.24219 0.62337 0.0
H770 H 0.03725 0.2154 0.64426 0.0
H771 H 0.04872 0.26673 0.65162 0.0
H772 H 0.98142 0.27134 0.6275 0.0
H773 H 0.97015 0.21979 0.61925 0.0
H774 H 0.96471 0.25096 0.58259 0.0
H775 H 0.05883 0.22229 0.4816 0.0
H776 H 0.05451 0.15227 0.48932 0.0
H777 H 0.01357 0.16578 0.59775 0.0
C778 C 0.05083 0.32006 0.59268 0.0
C779 C 0.07082 0.34847 0.57132 0.0
C780 C 0.07781 0.33898 0.53456 0.0
C781 C 0.06616 0.30135 0.51962 0.0
C782 C 0.04709 0.27374 0.54163 0.0
C783 C 0.03929 0.28275 0.57737 0.0
C784 C 0.02327 0.24715 0.59699 0.0
C785 C 0.04823 0.24262 0.63101 0.0
C786 C 0.98245 0.24734 0.60716 0.0
C787 C 0.02495 0.21664 0.56728 0.0
C788 C 0.03809 0.23236 0.53523 0.0
C789 C 0.0473 0.20952 0.50603 0.0
C790 C 0.04461 0.16986 0.51044 0.0
C791 C 0.03317 0.15421 0.54387 0.0
C792 C 0.02149 0.1774 0.57166 0.0
H793 H 0.60461 0.29497 0.4244 0.0
H794 H 0.56606 0.2314 0.51846 0.0
H795 H 0.53805 0.28603 0.5418 0.0
H796 H 0.63149 0.38514 0.47011 0.0
H797 H 0.6157 0.41243 0.43423 0.0
H798 H 0.62945 0.36712 0.4231 0.0
H799 H 0.5645 0.34174 0.38994 0.0
H800 H 0.55069 0.38721 0.40057 0.0
H801 H 0.52208 0.34314 0.41396 0.0
H802 H 0.51937 0.35069 0.55766 0.0
H803 H 0.50766 0.41776 0.56173 0.0
H804 H 0.55792 0.43719 0.45659 0.0
C805 C 0.58916 0.29224 0.44924 0.0
C806 C 0.58652 0.25893 0.46936 0.0
C807 C 0.56738 0.25656 0.50238 0.0
C808 C 0.55167 0.2875 0.51594 0.0
C809 C 0.55528 0.32049 0.49597 0.0
C810 C 0.5731 0.32282 0.46303 0.0
C811 C 0.57432 0.36192 0.44751 0.0
C812 C 0.61517 0.38286 0.44353 0.0
C813 C 0.55153 0.35827 0.41083 0.0
C814 C 0.55527 0.38135 0.4772 0.0
C815 C 0.54437 0.3572 0.50495 0.0
C816 C 0.52732 0.36974 0.53579 0.0
C817 C 0.52085 0.40786 0.53797 0.0
C818 C 0.53148 0.43285 0.50948 0.0
C819 C 0.54901 0.41904 0.4789 0.0
loop_
_geom_bond_atom_site_label_1
_geom_bond_atom_site_label_2
_geom_bond_distance
_geom_bond_site_symmetry_2
_ccdc_geom_bond_type
H0 C3 0.929 . S
H1 C6 0.929 . S
H2 C8 0.930 . S
C3 H0 0.929 . S
C3 C4 1.398 . S
C3 C5 1.396 . S
C4 C3 1.398 . S
C4 C8 1.407 . S
C5 C3 1.396 . S
C5 C6 1.394 . S
C6 H1 0.929 . S
C6 C5 1.394 . S
C6 C7 1.382 . S
C7 C6 1.382 . S
C7 C8 1.392 . S
C7 N9 1.420 . S
C8 H2 0.930 . S
C8 C4 1.407 . S
C8 C7 1.392 . S
N9 C7 1.420 . S
N9 C10 1.244 . S
C10 N9 1.244 . S
H11 C14 0.929 . S
H12 C17 0.929 . S
H13 C19 0.930 . S
C14 H11 0.929 . S
C14 C15 1.398 . S
C14 C16 1.396 . S
C15 C14 1.398 . S
C15 C19 1.407 . S
C16 C14 1.396 . S
C16 C17 1.394 . S
C17 H12 0.929 . S
C17 C16 1.394 . S
C17 C18 1.382 . S
C18 C17 1.382 . S
C18 C19 1.392 . S
C18 N20 1.420 . S
C19 H13 0.930 . S
C19 C15 1.407 . S
C19 C18 1.392 . S
N20 C18 1.420 . S
N20 C21 1.244 . S
C21 N20 1.244 . S
H22 C25 0.929 . S
H23 C28 0.929 . S
H24 C30 0.930 . S
C25 H22 0.929 . S
C25 C26 1.398 . S
C25 C27 1.396 . S
C26 C25 1.398 . S
C26 C30 1.407 . S
C27 C25 1.396 . S
C27 C28 1.394 . S
C28 H23 0.929 . S
C28 C27 1.394 . S
C28 C29 1.382 . S
C29 C28 1.382 . S
C29 C30 1.392 . S
C29 N31 1.420 . S
C30 H24 0.930 . S
C30 C26 1.407 . S
C30 C29 1.392 . S
N31 C29 1.420 . S
N31 C32 1.244 . S
C32 N31 1.244 . S
H33 C36 0.929 . S
H34 C39 0.929 . S
H35 C41 0.930 . S
C36 H33 0.929 . S
C36 C37 1.398 . S
C36 C38 1.396 . S
C37 C36 1.398 . S
C37 C41 1.407 . S
C38 C36 1.396 . S
C38 C39 1.394 . S
C39 H34 0.929 . S
C39 C38 1.394 . S
C39 C40 1.382 . S
C40 C39 1.382 . S
C40 C41 1.392 . S
C40 N42 1.420 . S
C41 H35 0.930 . S
C41 C37 1.407 . S
C41 C40 1.392 . S
N42 C40 1.420 . S
N42 C43 1.244 . S
C43 N42 1.244 . S
H44 C47 0.929 . S
H45 C50 0.929 . S
H46 C52 0.930 . S
C47 H44 0.929 . S
C47 C48 1.398 . S
C47 C49 1.396 . S
C48 C47 1.398 . S
C48 C52 1.407 . S
C49 C47 1.396 . S
C49 C50 1.394 . S
C50 H45 0.929 . S
C50 C49 1.394 . S
C50 C51 1.382 . S
C51 C50 1.382 . S
C51 C52 1.392 . S
C51 N53 1.420 . S
C52 H46 0.930 . S
C52 C48 1.407 . S
C52 C51 1.392 . S
N53 C51 1.420 . S
N53 C54 1.244 . S
C54 N53 1.244 . S
H55 C58 0.929 . S
H56 C61 0.929 . S
H57 C63 0.930 . S
C58 H55 0.929 . S
C58 C59 1.398 . S
C58 C60 1.396 . S
C59 C58 1.398 . S
C59 C63 1.407 . S
C60 C58 1.396 . S
C60 C61 1.394 . S
C61 H56 0.929 . S
C61 C60 1.394 . S
C61 C62 1.382 . S
C62 C61 1.382 . S
C62 C63 1.392 . S
C62 N64 1.420 . S
C63 H57 0.930 . S
C63 C59 1.407 . S
C63 C62 1.392 . S
N64 C62 1.420 . S
N64 C65 1.244 . S
C65 N64 1.244 . S
H66 C69 0.929 . S
H67 C72 0.929 . S
H68 C74 0.930 . S
C69 H66 0.929 . S
C69 C70 1.398 . S
C69 C71 1.396 . S
C70 C69 1.398 . S
C70 C74 1.407 . S
C71 C69 1.396 . S
C71 C72 1.394 . S
C72 H67 0.929 . S
C72 C71 1.394 . S
C72 C73 1.382 . S
C73 C72 1.382 . S
C73 C74 1.392 . S
C73 N75 1.420 . S
C74 H68 0.930 . S
C74 C70 1.407 . S
C74 C73 1.392 . S
N75 C73 1.420 . S
N75 C76 1.244 . S
C76 N75 1.244 . S
H77 C80 0.929 . S
H78 C83 0.929 . S
H79 C85 0.930 . S
C80 H77 0.929 . S
C80 C81 1.398 . S
C80 C82 1.396 . S
C81 C80 1.398 . S
C81 C85 1.407 . S
C82 C80 1.396 . S
C82 C83 1.394 . S
C83 H78 0.929 . S
C83 C82 1.394 . S
C83 C84 1.382 . S
C84 C83 1.382 . S
C84 C85 1.392 . S
C84 N86 1.420 . S
C85 H79 0.930 . S
C85 C81 1.407 . S
C85 C84 1.392 . S
N86 C84 1.420 . S
N86 C87 1.244 . S
C87 N86 1.244 . S
O88 Mg89 1.990 . S
O88 C102 1.253 1_455 S
Mg89 O88 1.990 . S
Mg89 O92 2.180 . S
Mg89 O93 2.117 . S
Mg89 O107 2.030 . S
O90 Mg91 2.069 1_665 S
O90 C102 1.260 1_565 S
Mg91 O90 2.069 1_445 S
Mg91 O92 2.099 . S
Mg91 O94 2.079 . S
Mg91 O95 2.072 1_455 S
Mg91 O97 2.099 1_445 S
Mg91 O108 2.079 . S
O92 Mg89 2.180 . S
O92 Mg91 2.099 . S
O92 C103 1.279 . S
O93 Mg89 2.117 . S
O93 C103 1.250 . S
O94 Mg91 2.079 . S
O94 C104 1.264 . S
O95 Mg91 2.072 1_655 S
O95 C105 1.260 . S
Mg96 O97 2.180 . S
Mg96 O98 2.030 1_565 S
Mg96 O99 1.990 1_565 S
Mg96 O100 2.117 . S
O97 Mg91 2.099 1_665 S
O97 Mg96 2.180 . S
O97 C106 1.279 . S
O98 Mg96 2.030 1_545 S
O98 C104 1.248 1_655 S
O99 Mg96 1.990 1_545 S
O99 C105 1.253 . S
O100 Mg96 2.117 . S
O100 C106 1.250 . S
C101 O107 1.248 . S
C101 O108 1.264 . S
C102 O88 1.253 1_655 S
C102 O90 1.260 1_545 S
C103 O92 1.279 . S
C103 O93 1.250 . S
C104 O94 1.264 . S
C104 O98 1.248 1_455 S
C105 O95 1.260 . S
C105 O99 1.253 . S
C106 O97 1.279 . S
C106 O100 1.250 . S
O107 Mg89 2.030 . S
O107 C101 1.248 . S
O108 Mg91 2.079 . S
O108 C101 1.264 . S
O109 Mg110 1.990 . S
O109 C123 1.253 . S
Mg110 O109 1.990 . S
Mg110 O113 2.180 . S
Mg110 O114 2.117 . S
Mg110 O128 2.030 . S
O111 Mg112 2.072 . S
O111 C123 1.260 . S
Mg112 O111 2.072 . S
Mg112 O113 2.099 . S
Mg112 O115 2.079 . S
Mg112 O116 2.072 1_554 S
Mg112 O118 2.099 1_545 S
Mg112 O129 2.079 . S
O113 Mg110 2.180 . S
O113 Mg112 2.099 . S
O113 C124 1.279 . S
O114 Mg110 2.117 . S
O114 C124 1.250 . S
O115 Mg112 2.079 . S
O115 C125 1.264 . S
O116 Mg112 2.072 1_556 S
O116 C126 1.265 . S
Mg117 O118 2.180 . S
Mg117 O119 2.030 1_554 S
Mg117 O120 1.990 1_554 S
Mg117 O121 2.117 . S
O118 Mg112 2.099 1_565 S
O118 Mg117 2.180 . S
O118 C127 1.279 . S
O119 Mg117 2.030 1_556 S
O119 C125 1.248 1_566 S
O120 Mg117 1.990 1_556 S
O120 C126 1.246 1_565 S
O121 Mg117 2.117 . S
O121 C127 1.250 . S
C122 O128 1.248 . S
C122 O129 1.264 . S
C123 O109 1.253 . S
C123 O111 1.260 . S
C124 O113 1.279 . S
C124 O114 1.250 . S
C125 O115 1.264 . S
C125 O119 1.248 1_544 S
C126 O116 1.265 . S
C126 O120 1.246 1_545 S
C127 O118 1.279 . S
C127 O121 1.250 . S
O128 Mg110 2.030 . S
O128 C122 1.248 . S
O129 Mg112 2.079 . S
O129 C122 1.264 . S
O130 Mg131 1.990 . S
O130 C144 1.253 . S
Mg131 O130 1.990 . S
Mg131 O134 2.180 . S
Mg131 O135 2.117 . S
Mg131 O149 2.030 . S
O132 Mg133 2.072 . S
O132 C144 1.260 . S
Mg133 O132 2.072 . S
Mg133 O134 2.099 . S
Mg133 O136 2.079 . S
Mg133 O137 2.072 . S
Mg133 O139 2.099 . S
Mg133 O150 2.079 . S
O134 Mg131 2.180 . S
O134 Mg133 2.099 . S
O134 C145 1.279 . S
O135 Mg131 2.117 . S
O135 C145 1.250 . S
O136 Mg133 2.079 . S
O136 C146 1.264 . S
O137 Mg133 2.072 . S
O137 C147 1.260 . S
Mg138 O139 2.180 . S
Mg138 O140 2.030 . S
Mg138 O141 1.990 . S
Mg138 O142 2.117 . S
O139 Mg133 2.099 . S
O139 Mg138 2.180 . S
O139 C148 1.279 . S
O140 Mg138 2.030 . S
O140 C146 1.248 . S
O141 Mg138 1.990 . S
O141 C147 1.253 . S
O142 Mg138 2.117 . S
O142 C148 1.250 . S
C143 O149 1.248 . S
C143 O150 1.264 . S
C144 O130 1.253 . S
C144 O132 1.260 . S
C145 O134 1.279 . S
C145 O135 1.250 . S
C146 O136 1.264 . S
C146 O140 1.248 . S
C147 O137 1.260 . S
C147 O141 1.253 . S
C148 O139 1.279 . S
C148 O142 1.250 . S
O149 Mg131 2.030 . S
O149 C143 1.248 . S
O150 Mg133 2.079 . S
O150 C143 1.264 . S
O151 Mg152 1.990 . S
O151 C165 1.253 . S
Mg152 O151 1.990 . S
Mg152 O155 2.180 . S
Mg152 O156 2.117 1_455 S
Mg152 O170 2.030 . S
O153 Mg154 2.072 . S
O153 C165 1.260 . S
Mg154 O153 2.072 . S
Mg154 O155 2.099 . S
Mg154 O157 2.079 1_554 S
Mg154 O158 2.072 1_455 S
Mg154 O160 2.099 1_554 S
Mg154 O171 2.079 . S
O155 Mg152 2.180 . S
O155 Mg154 2.099 . S
O155 C166 1.279 1_455 S
O156 Mg152 2.117 1_655 S
O156 C166 1.250 . S
O157 Mg154 2.079 1_556 S
O157 C167 1.264 1_455 S
O158 Mg154 2.072 1_655 S
O158 C168 1.260 1_554 S
Mg159 O160 2.180 1_655 S
Mg159 O161 2.030 . S
Mg159 O162 1.990 . S
Mg159 O163 2.117 1_655 S
O160 Mg154 2.099 1_556 S
O160 Mg159 2.180 1_455 S
O160 C169 1.279 . S
O161 Mg159 2.030 . S
O161 C167 1.248 . S
O162 Mg159 1.990 . S
O162 C168 1.253 . S
O163 Mg159 2.117 1_455 S
O163 C169 1.250 . S
C164 O170 1.248 . S
C164 O171 1.264 . S
C165 O151 1.253 . S
C165 O153 1.260 . S
C166 O155 1.279 1_655 S
C166 O156 1.250 . S
C167 O157 1.264 1_655 S
C167 O161 1.248 . S
C168 O158 1.260 1_556 S
C168 O162 1.253 . S
C169 O160 1.279 . S
C169 O163 1.250 . S
O170 Mg152 2.030 . S
O170 C164 1.248 . S
O171 Mg154 2.079 . S
O171 C164 1.264 . S
H172 C184 0.930 . S
H173 C186 0.930 . S
H174 C187 0.930 . S
H175 C191 0.959 . S
H176 C191 0.959 . S
H177 C191 0.961 . S
H178 C192 0.960 . S
H179 C192 0.961 . S
H180 C192 0.959 . S
H181 C195 0.929 . S
H182 C196 0.931 . S
H183 C198 0.930 . S
C184 H172 0.930 . S
C184 C185 1.399 . S
C184 C189 1.399 . S
C185 C184 1.399 . S
C185 C186 1.376 . S
C186 H173 0.930 . S
C186 C185 1.376 . S
C186 C187 1.388 . S
C187 H174 0.930 . S
C187 C186 1.388 . S
C187 C188 1.390 . S
C188 C187 1.390 . S
C188 C189 1.394 . S
C188 C194 1.465 . S
C189 C184 1.399 . S
C189 C188 1.394 . S
C189 C190 1.516 . S
C190 C189 1.516 . S
C190 C191 1.502 . S
C190 C192 1.561 . S
C190 C193 1.526 . S
C191 H175 0.959 . S
C191 H176 0.959 . S
C191 H177 0.961 . S
C191 C190 1.502 . S
C192 H178 0.960 . S
C192 H179 0.961 . S
C192 H180 0.959 . S
C192 C190 1.561 . S
C193 C190 1.526 . S
C193 C194 1.396 . S
C193 C198 1.390 . S
C194 C188 1.465 . S
C194 C193 1.396 . S
C194 C195 1.399 . S
C195 H181 0.929 . S
C195 C194 1.399 . S
C195 C196 1.385 . S
C196 H182 0.931 . S
C196 C195 1.385 . S
C196 C197 1.389 . S
C197 C196 1.389 . S
C197 C198 1.387 . S
C198 H183 0.930 . S
C198 C193 1.390 . S
C198 C197 1.387 . S
H199 C211 0.930 . S
H200 C213 0.930 . S
H201 C214 0.930 1_545 S
H202 C218 0.959 . S
H203 C218 0.959 . S
H204 C218 0.961 . S
H205 C219 0.960 . S
H206 C219 0.961 . S
H207 C219 0.959 . S
H208 C222 0.929 . S
H209 C223 0.931 . S
H210 C225 0.930 . S
C211 H199 0.930 . S
C211 C212 1.399 . S
C211 C216 1.399 . S
C212 C211 1.399 . S
C212 C213 1.376 . S
C213 H200 0.930 . S
C213 C212 1.376 . S
C213 C214 1.388 . S
C214 H201 0.930 1_565 S
C214 C213 1.388 . S
C214 C215 1.390 . S
C215 C214 1.390 . S
C215 C216 1.394 . S
C215 C221 1.465 . S
C216 C211 1.399 . S
C216 C215 1.394 . S
C216 C217 1.516 . S
C217 C216 1.516 . S
C217 C218 1.502 . S
C217 C219 1.561 . S
C217 C220 1.526 . S
C218 H202 0.959 . S
C218 H203 0.959 . S
C218 H204 0.961 . S
C218 C217 1.502 . S
C219 H205 0.960 . S
C219 H206 0.961 . S
C219 H207 0.959 . S
C219 C217 1.561 . S
C220 C217 1.526 . S
C220 C221 1.396 . S
C220 C225 1.390 . S
C221 C215 1.465 . S
C221 C220 1.396 . S
C221 C222 1.399 1_565 S
C222 H208 0.929 . S
C222 C221 1.399 1_545 S
C222 C223 1.385 . S
C223 H209 0.931 . S
C223 C222 1.385 . S
C223 C224 1.397 . S
C224 C223 1.397 . S
C224 C225 1.378 1_545 S
C225 H210 0.930 . S
C225 C220 1.390 . S
C225 C224 1.378 1_565 S
H226 C238 0.930 . S
H227 C240 0.930 . S
H228 C241 0.930 . S
H229 C245 0.959 . S
H230 C245 0.959 . S
H231 C245 0.961 . S
H232 C246 0.960 . S
H233 C246 0.961 . S
H234 C246 0.959 . S
H235 C249 0.929 . S
H236 C250 0.931 . S
H237 C252 0.930 . S
C238 H226 0.930 . S
C238 C239 1.399 . S
C238 C243 1.399 . S
C239 C238 1.399 . S
C239 C240 1.376 . S
C240 H227 0.930 . S
C240 C239 1.376 . S
C240 C241 1.388 . S
C241 H228 0.930 . S
C241 C240 1.388 . S
C241 C242 1.390 . S
C242 C241 1.390 . S
C242 C243 1.394 . S
C242 C248 1.465 . S
C243 C238 1.399 . S
C243 C242 1.394 . S
C243 C244 1.516 . S
C244 C243 1.516 . S
C244 C245 1.502 . S
C244 C246 1.561 . S
C244 C247 1.526 . S
C245 H229 0.959 . S
C245 H230 0.959 . S
C245 H231 0.961 . S
C245 C244 1.502 . S
C246 H232 0.960 . S
C246 H233 0.961 . S
C246 H234 0.959 . S
C246 C244 1.561 . S
C247 C244 1.526 . S
C247 C248 1.396 . S
C247 C252 1.390 . S
C248 C242 1.465 . S
C248 C247 1.396 . S
C248 C249 1.399 . S
C249 H235 0.929 . S
C249 C248 1.399 . S
C249 C250 1.385 . S
C250 H236 0.931 . S
C250 C249 1.385 . S
C250 C251 1.389 . S
C251 C250 1.389 . S
C251 C252 1.387 . S
C252 H237 0.930 . S
C252 C247 1.390 . S
C252 C251 1.387 . S
H253 C265 0.930 . S
H254 C267 0.930 . S
H255 C268 0.930 . S
H256 C272 0.959 . S
H257 C272 0.959 . S
H258 C272 0.961 . S
H259 C273 0.960 . S
H260 C273 0.961 . S
H261 C273 0.959 . S
H262 C276 0.929 . S
H263 C277 0.931 . S
H264 C279 0.930 . S
C265 H253 0.930 . S
C265 C266 1.399 . S
C265 C270 1.399 . S
C266 C265 1.399 . S
C266 C267 1.376 . S
C267 H254 0.930 . S
C267 C266 1.376 . S
C267 C268 1.388 . S
C268 H255 0.930 . S
C268 C267 1.388 . S
C268 C269 1.390 . S
C269 C268 1.390 . S
C269 C270 1.394 . S
C269 C275 1.465 . S
C270 C265 1.399 . S
C270 C269 1.394 . S
C270 C271 1.516 . S
C271 C270 1.516 . S
C271 C272 1.502 . S
C271 C273 1.561 . S
C271 C274 1.526 . S
C272 H256 0.959 . S
C272 H257 0.959 . S
C272 H258 0.961 . S
C272 C271 1.502 . S
C273 H259 0.960 . S
C273 H260 0.961 . S
C273 H261 0.959 . S
C273 C271 1.561 . S
C274 C271 1.526 . S
C274 C275 1.396 . S
C274 C279 1.390 . S
C275 C269 1.465 . S
C275 C274 1.396 . S
C275 C276 1.399 . S
C276 H262 0.929 . S
C276 C275 1.399 . S
C276 C277 1.385 . S
C277 H263 0.931 . S
C277 C276 1.385 . S
C277 C278 1.389 . S
C278 C277 1.389 . S
C278 C279 1.387 . S
C279 H264 0.930 . S
C279 C274 1.390 . S
C279 C278 1.387 . S
H280 C292 0.930 . S
H281 C294 0.930 . S
H282 C295 0.930 . S
H283 C299 0.959 . S
H284 C299 0.959 . S
H285 C299 0.961 . S
H286 C300 0.960 . S
H287 C300 0.961 . S
H288 C300 0.959 . S
H289 C303 0.929 . S
H290 C304 0.931 . S
H291 C306 0.930 . S
C292 H280 0.930 . S
C292 C293 1.399 . S
C292 C297 1.399 . S
C293 C292 1.399 . S
C293 C294 1.376 . S
C294 H281 0.930 . S
C294 C293 1.376 . S
C294 C295 1.388 . S
C295 H282 0.930 . S
C295 C294 1.388 . S
C295 C296 1.390 . S
C296 C295 1.390 . S
C296 C297 1.394 . S
C296 C302 1.465 . S
C297 C292 1.399 . S
C297 C296 1.394 . S
C297 C298 1.516 . S
C298 C297 1.516 . S
C298 C299 1.502 . S
C298 C300 1.561 . S
C298 C301 1.526 . S
C299 H283 0.959 . S
C299 H284 0.959 . S
C299 H285 0.961 . S
C299 C298 1.502 . S
C300 H286 0.960 . S
C300 H287 0.961 . S
C300 H288 0.959 . S
C300 C298 1.561 . S
C301 C298 1.526 . S
C301 C302 1.396 . S
C301 C306 1.390 . S
C302 C296 1.465 . S
C302 C301 1.396 . S
C302 C303 1.399 . S
C303 H289 0.929 . S
C303 C302 1.399 . S
C303 C304 1.385 . S
C304 H290 0.931 . S
C304 C303 1.385 . S
C304 C305 1.389 . S
C305 C304 1.389 . S
C305 C306 1.387 . S
C306 H291 0.930 . S
C306 C301 1.390 . S
C306 C305 1.387 . S
H307 C319 0.930 1_545 S
H308 C321 0.930 . S
H309 C322 0.930 . S
H310 C326 0.959 . S
H311 C326 0.959 . S
H312 C326 0.961 . S
H313 C327 0.960 . S
H314 C327 0.961 . S
H315 C327 0.959 1_565 S
H316 C330 0.929 . S
H317 C331 0.931 . S
H318 C333 0.930 . S
C319 H307 0.930 1_565 S
C319 C320 1.399 . S
C319 C324 1.399 . S
C320 C319 1.399 . S
C320 C321 1.376 . S
C321 H308 0.930 . S
C321 C320 1.376 . S
C321 C322 1.388 . S
C322 H309 0.930 . S
C322 C321 1.388 . S
C322 C323 1.390 . S
C323 C322 1.390 . S
C323 C324 1.394 . S
C323 C329 1.465 . S
C324 C319 1.399 . S
C324 C323 1.394 . S
C324 C325 1.516 1_565 S
C325 C324 1.516 1_545 S
C325 C326 1.502 . S
C325 C327 1.561 . S
C325 C328 1.526 1_545 S
C326 H310 0.959 . S
C326 H311 0.959 . S
C326 H312 0.961 . S
C326 C325 1.502 . S
C327 H313 0.960 . S
C327 H314 0.961 . S
C327 H315 0.959 1_545 S
C327 C325 1.561 . S
C328 C325 1.526 1_565 S
C328 C329 1.396 . S
C328 C333 1.390 1_565 S
C329 C323 1.465 . S
C329 C328 1.396 . S
C329 C330 1.399 . S
C330 H316 0.929 . S
C330 C329 1.399 . S
C330 C331 1.385 . S
C331 H317 0.931 . S
C331 C330 1.385 . S
C331 C332 1.389 . S
C332 C331 1.389 . S
C332 C333 1.387 1_565 S
C333 H318 0.930 . S
C333 C328 1.390 1_545 S
C333 C332 1.387 1_545 S
H334 C346 0.930 . S
H335 C348 0.930 . S
H336 C349 0.930 . S
H337 C353 0.959 . S
H338 C353 0.959 . S
H339 C353 0.961 . S
H340 C354 0.960 . S
H341 C354 0.961 . S
H342 C354 0.959 . S
H343 C357 0.947 . S
H344 C358 0.931 . S
H345 C360 0.930 . S
C346 H334 0.930 . S
C346 C347 1.399 . S
C346 C351 1.399 . S
C347 C346 1.399 . S
C347 C348 1.376 . S
C348 H335 0.930 . S
C348 C347 1.376 . S
C348 C349 1.388 . S
C349 H336 0.930 . S
C349 C348 1.388 . S
C349 C350 1.390 . S
C350 C349 1.390 . S
C350 C351 1.394 . S
C350 C356 1.465 . S
C351 C346 1.399 . S
C351 C350 1.394 . S
C351 C352 1.516 . S
C352 C351 1.516 . S
C352 C353 1.502 . S
C352 C354 1.561 . S
C352 C355 1.526 . S
C353 H337 0.959 . S
C353 H338 0.959 . S
C353 H339 0.961 . S
C353 C352 1.502 . S
C354 H340 0.960 . S
C354 H341 0.961 . S
C354 H342 0.959 . S
C354 C352 1.561 . S
C355 C352 1.526 . S
C355 C356 1.396 . S
C355 C360 1.390 . S
C356 C350 1.465 . S
C356 C355 1.396 . S
C356 C357 1.380 1_556 S
C357 H343 0.947 . S
C357 C356 1.380 1_554 S
C357 C358 1.387 . S
C358 H344 0.931 . S
C358 C357 1.387 . S
C358 C359 1.389 1_554 S
C359 C358 1.389 1_556 S
C359 C360 1.387 . S
C360 H345 0.930 . S
C360 C355 1.390 . S
C360 C359 1.387 . S
H361 C373 0.930 . S
H362 C375 0.930 . S
H363 C376 0.930 . S
H364 C380 0.959 . S
H365 C380 0.959 . S
H366 C380 0.961 . S
H367 C381 0.960 . S
H368 C381 0.961 . S
H369 C381 0.959 . S
H370 C384 0.929 . S
H371 C385 0.931 . S
H372 C387 0.930 . S
C373 H361 0.930 . S
C373 C374 1.399 . S
C373 C378 1.399 . S
C374 C373 1.399 . S
C374 C375 1.376 . S
C375 H362 0.930 . S
C375 C374 1.376 . S
C375 C376 1.388 . S
C376 H363 0.930 . S
C376 C375 1.388 . S
C376 C377 1.390 . S
C377 C376 1.390 . S
C377 C378 1.394 . S
C377 C383 1.465 . S
C378 C373 1.399 . S
C378 C377 1.394 . S
C378 C379 1.516 . S
C379 C378 1.516 . S
C379 C380 1.502 . S
C379 C381 1.561 . S
C379 C382 1.526 . S
C380 H364 0.959 . S
C380 H365 0.959 . S
C380 H366 0.961 . S
C380 C379 1.502 . S
C381 H367 0.960 . S
C381 H368 0.961 . S
C381 H369 0.959 . S
C381 C379 1.561 . S
C382 C379 1.526 . S
C382 C383 1.396 . S
C382 C387 1.390 . S
C383 C377 1.465 . S
C383 C382 1.396 . S
C383 C384 1.399 . S
C384 H370 0.929 . S
C384 C383 1.399 . S
C384 C385 1.385 . S
C385 H371 0.931 . S
C385 C384 1.385 . S
C385 C386 1.389 . S
C386 C385 1.389 . S
C386 C387 1.387 . S
C387 H372 0.930 . S
C387 C382 1.390 . S
C387 C386 1.387 . S
H388 C400 0.930 . S
H389 C402 0.930 . S
H390 C403 0.930 . S
H391 C407 0.959 . S
H392 C407 0.959 1_556 S
H393 C407 0.961 1_556 S
H394 C408 0.960 . S
H395 C408 0.961 . S
H396 C408 0.959 1_554 S
H397 C411 0.929 . S
H398 C412 0.931 . S
H399 C414 0.922 1_556 S
C400 H388 0.930 . S
C400 C401 1.399 . S
C400 C405 1.399 . S
C401 C400 1.399 . S
C401 C402 1.376 . S
C402 H389 0.930 . S
C402 C401 1.376 . S
C402 C403 1.388 . S
C403 H390 0.930 . S
C403 C402 1.388 . S
C403 C404 1.390 . S
C404 C403 1.390 . S
C404 C405 1.394 . S
C404 C410 1.465 . S
C405 C400 1.399 . S
C405 C404 1.394 . S
C405 C406 1.516 . S
C406 C405 1.516 . S
C406 C407 1.502 . S
C406 C408 1.561 1_554 S
C406 C409 1.526 . S
C407 H391 0.959 . S
C407 H392 0.959 1_554 S
C407 H393 0.961 1_554 S
C407 C406 1.502 . S
C408 H394 0.960 . S
C408 H395 0.961 . S
C408 H396 0.959 1_556 S
C408 C406 1.561 1_556 S
C409 C406 1.526 . S
C409 C410 1.396 . S
C409 C414 1.390 . S
C410 C404 1.465 . S
C410 C409 1.396 . S
C410 C411 1.399 . S
C411 H397 0.929 . S
C411 C410 1.399 . S
C411 C412 1.385 . S
C412 H398 0.931 . S
C412 C411 1.385 . S
C412 C413 1.389 . S
C413 C412 1.389 . S
C413 C414 1.387 . S
C414 H399 0.922 1_554 S
C414 C409 1.390 . S
C414 C413 1.387 . S
H415 C427 0.930 . S
H416 C429 0.930 . S
H417 C430 0.930 1_554 S
H418 C434 0.959 . S
H419 C434 0.959 . S
H420 C434 0.961 . S
H421 C435 0.960 . S
H422 C435 0.961 . S
H423 C435 0.959 . S
H424 C438 0.929 . S
H425 C439 0.931 . S
H426 C441 0.930 . S
C427 H415 0.930 . S
C427 C428 1.399 . S
C427 C432 1.399 . S
C428 C427 1.399 . S
C428 C429 1.376 . S
C429 H416 0.930 . S
C429 C428 1.376 . S
C429 C430 1.388 . S
C430 H417 0.930 1_556 S
C430 C429 1.388 . S
C430 C431 1.390 . S
C431 C430 1.390 . S
C431 C432 1.394 . S
C431 C437 1.465 . S
C432 C427 1.399 . S
C432 C431 1.394 . S
C432 C433 1.516 . S
C433 C432 1.516 . S
C433 C434 1.502 . S
C433 C435 1.561 . S
C433 C436 1.526 . S
C434 H418 0.959 . S
C434 H419 0.959 . S
C434 H420 0.961 . S
C434 C433 1.502 . S
C435 H421 0.960 . S
C435 H422 0.961 . S
C435 H423 0.959 . S
C435 C433 1.561 . S
C436 C433 1.526 . S
C436 C437 1.396 . S
C436 C441 1.390 . S
C437 C431 1.465 . S
C437 C436 1.396 . S
C437 C438 1.399 1_556 S
C438 H424 0.929 . S
C438 C437 1.399 1_554 S
C438 C439 1.385 . S
C439 H425 0.931 . S
C439 C438 1.385 . S
C439 C440 1.389 1_554 S
C440 C439 1.389 1_556 S
C440 C441 1.387 . S
C441 H426 0.930 . S
C441 C436 1.390 . S
C441 C440 1.387 . S
H442 C454 0.930 . S
H443 C456 0.930 . S
H444 C457 0.930 . S
H445 C461 0.959 1_455 S
H446 C461 0.959 1_455 S
H447 C461 0.961 . S
H448 C462 0.960 . S
H449 C462 0.961 . S
H450 C462 0.959 . S
H451 C465 0.929 . S
H452 C466 0.931 . S
H453 C468 0.930 . S
C454 H442 0.930 . S
C454 C455 1.399 . S
C454 C459 1.399 . S
C455 C454 1.399 . S
C455 C456 1.376 . S
C456 H443 0.930 . S
C456 C455 1.376 . S
C456 C457 1.388 . S
C457 H444 0.930 . S
C457 C456 1.388 . S
C457 C458 1.390 . S
C458 C457 1.390 . S
C458 C459 1.394 . S
C458 C464 1.465 . S
C459 C454 1.399 . S
C459 C458 1.394 . S
C459 C460 1.516 . S
C460 C459 1.516 . S
C460 C461 1.502 . S
C460 C462 1.561 . S
C460 C463 1.526 . S
C461 H445 0.959 1_655 S
C461 H446 0.959 1_655 S
C461 H447 0.961 . S
C461 C460 1.502 . S
C462 H448 0.960 . S
C462 H449 0.961 . S
C462 H450 0.959 . S
C462 C460 1.561 . S
C463 C460 1.526 . S
C463 C464 1.396 . S
C463 C468 1.390 . S
C464 C458 1.465 . S
C464 C463 1.396 . S
C464 C465 1.399 . S
C465 H451 0.929 . S
C465 C464 1.399 . S
C465 C466 1.385 . S
C466 H452 0.931 . S
C466 C465 1.385 . S
C466 C467 1.389 . S
C467 C466 1.389 . S
C467 C468 1.387 . S
C468 H453 0.930 . S
C468 C463 1.390 . S
C468 C467 1.387 . S
H469 C481 0.930 . S
H470 C483 0.930 . S
H471 C484 0.930 . S
H472 C488 0.959 . S
H473 C488 0.959 . S
H474 C488 0.961 . S
H475 C489 0.960 . S
H476 C489 0.961 . S
H477 C489 0.959 . S
H478 C492 0.929 . S
H479 C493 0.931 . S
H480 C495 0.930 . S
C481 H469 0.930 . S
C481 C482 1.399 . S
C481 C486 1.399 . S
C482 C481 1.399 . S
C482 C483 1.376 . S
C483 H470 0.930 . S
C483 C482 1.376 . S
C483 C484 1.388 . S
C484 H471 0.930 . S
C484 C483 1.388 . S
C484 C485 1.390 . S
C485 C484 1.390 . S
C485 C486 1.394 . S
C485 C491 1.465 . S
C486 C481 1.399 . S
C486 C485 1.394 . S
C486 C487 1.516 . S
C487 C486 1.516 . S
C487 C488 1.502 . S
C487 C489 1.561 . S
C487 C490 1.526 . S
C488 H472 0.959 . S
C488 H473 0.959 . S
C488 H474 0.961 . S
C488 C487 1.502 . S
C489 H475 0.960 . S
C489 H476 0.961 . S
C489 H477 0.959 . S
C489 C487 1.561 . S
C490 C487 1.526 . S
C490 C491 1.396 . S
C490 C495 1.390 . S
C491 C485 1.465 . S
C491 C490 1.396 . S
C491 C492 1.399 . S
C492 H478 0.929 . S
C492 C491 1.399 . S
C492 C493 1.385 . S
C493 H479 0.931 . S
C493 C492 1.385 . S
C493 C494 1.389 . S
C494 C493 1.389 . S
C494 C495 1.387 . S
C495 H480 0.930 . S
C495 C490 1.390 . S
C495 C494 1.387 . S
H496 C508 0.930 . S
H497 C510 0.930 . S
H498 C511 0.930 . S
H499 C515 0.961 . S
H500 C515 0.958 1_545 S
H501 C515 0.960 1_545 S
H502 C516 0.960 . S
H503 C516 0.961 . S
H504 C516 0.959 . S
H505 C519 0.929 . S
H506 C520 0.925 1_455 S
H507 C522 0.930 1_545 S
C508 H496 0.930 . S
C508 C509 1.399 . S
C508 C513 1.399 . S
C509 C508 1.399 . S
C509 C510 1.376 . S
C510 H497 0.930 . S
C510 C509 1.376 . S
C510 C511 1.388 . S
C511 H498 0.930 . S
C511 C510 1.388 . S
C511 C512 1.390 . S
C512 C511 1.390 . S
C512 C513 1.394 . S
C512 C518 1.465 . S
C513 C508 1.399 . S
C513 C512 1.394 . S
C513 C514 1.516 . S
C514 C513 1.516 . S
C514 C515 1.502 . S
C514 C516 1.561 1_565 S
C514 C517 1.526 . S
C515 H499 0.961 . S
C515 H500 0.958 1_565 S
C515 H501 0.960 1_565 S
C515 C514 1.502 . S
C516 H502 0.960 . S
C516 H503 0.961 . S
C516 H504 0.959 . S
C516 C514 1.561 1_545 S
C517 C514 1.526 . S
C517 C518 1.396 . S
C517 C522 1.390 . S
C518 C512 1.465 . S
C518 C517 1.396 . S
C518 C519 1.399 . S
C519 H505 0.929 . S
C519 C518 1.399 . S
C519 C520 1.385 . S
C520 H506 0.925 1_655 S
C520 C519 1.385 . S
C520 C521 1.389 . S
C521 C520 1.389 . S
C521 C522 1.387 . S
C522 H507 0.930 1_565 S
C522 C517 1.390 . S
C522 C521 1.387 . S
H523 C535 0.930 . S
H524 C537 0.930 . S
H525 C538 0.930 . S
H526 C542 0.959 . S
H527 C542 0.959 . S
H528 C542 0.961 . S
H529 C543 0.960 . S
H530 C543 0.961 . S
H531 C543 0.959 . S
H532 C546 0.929 . S
H533 C547 0.931 . S
H534 C549 0.930 . S
C535 H523 0.930 . S
C535 C536 1.399 . S
C535 C540 1.399 . S
C536 C535 1.399 . S
C536 C537 1.376 . S
C537 H524 0.930 . S
C537 C536 1.376 . S
C537 C538 1.388 . S
C538 H525 0.930 . S
C538 C537 1.388 . S
C538 C539 1.390 . S
C539 C538 1.390 . S
C539 C540 1.394 . S
C539 C545 1.465 . S
C540 C535 1.399 . S
C540 C539 1.394 . S
C540 C541 1.516 . S
C541 C540 1.516 . S
C541 C542 1.502 . S
C541 C543 1.561 . S
C541 C544 1.526 . S
C542 H526 0.959 . S
C542 H527 0.959 . S
C542 H528 0.961 . S
C542 C541 1.502 . S
C543 H529 0.960 . S
C543 H530 0.961 . S
C543 H531 0.959 . S
C543 C541 1.561 . S
C544 C541 1.526 . S
C544 C545 1.396 . S
C544 C549 1.390 . S
C545 C539 1.465 . S
C545 C544 1.396 . S
C545 C546 1.399 . S
C546 H532 0.929 . S
C546 C545 1.399 . S
C546 C547 1.385 . S
C547 H533 0.931 . S
C547 C546 1.385 . S
C547 C548 1.389 . S
C548 C547 1.389 . S
C548 C549 1.387 . S
C549 H534 0.930 . S
C549 C544 1.390 . S
C549 C548 1.387 . S
H550 C562 0.930 . S
H551 C564 0.930 . S
H552 C565 0.930 . S
H553 C569 0.959 . S
H554 C569 0.959 . S
H555 C569 0.961 . S
H556 C570 0.960 . S
H557 C570 0.961 . S
H558 C570 0.959 . S
H559 C573 0.929 . S
H560 C574 0.931 . S
H561 C576 0.930 . S
C562 H550 0.930 . S
C562 C563 1.399 . S
C562 C567 1.399 . S
C563 C562 1.399 . S
C563 C564 1.376 . S
C564 H551 0.930 . S
C564 C563 1.376 . S
C564 C565 1.388 . S
C565 H552 0.930 . S
C565 C564 1.388 . S
C565 C566 1.390 . S
C566 C565 1.390 . S
C566 C567 1.394 . S
C566 C572 1.465 . S
C567 C562 1.399 . S
C567 C566 1.394 . S
C567 C568 1.516 . S
C568 C567 1.516 . S
C568 C569 1.502 . S
C568 C570 1.561 . S
C568 C571 1.526 . S
C569 H553 0.959 . S
C569 H554 0.959 . S
C569 H555 0.961 . S
C569 C568 1.502 . S
C570 H556 0.960 . S
C570 H557 0.961 . S
C570 H558 0.959 . S
C570 C568 1.561 . S
C571 C568 1.526 . S
C571 C572 1.396 . S
C571 C576 1.390 . S
C572 C566 1.465 . S
C572 C571 1.396 . S
C572 C573 1.399 . S
C573 H559 0.929 . S
C573 C572 1.399 . S
C573 C574 1.385 . S
C574 H560 0.931 . S
C574 C573 1.385 . S
C574 C575 1.389 . S
C575 C574 1.389 . S
C575 C576 1.387 . S
C576 H561 0.930 . S
C576 C571 1.390 . S
C576 C575 1.387 . S
H577 C589 0.930 . S
H578 C591 0.930 . S
H579 C592 0.930 . S
H580 C596 0.959 . S
H581 C596 0.959 . S
H582 C596 0.961 . S
H583 C597 0.960 . S
H584 C597 0.961 . S
H585 C597 0.959 . S
H586 C600 0.929 . S
H587 C601 0.931 . S
H588 C603 0.930 . S
C589 H577 0.930 . S
C589 C590 1.399 . S
C589 C594 1.399 . S
C590 C589 1.399 . S
C590 C591 1.376 . S
C591 H578 0.930 . S
C591 C590 1.376 . S
C591 C592 1.388 . S
C592 H579 0.930 . S
C592 C591 1.388 . S
C592 C593 1.390 . S
C593 C592 1.390 . S
C593 C594 1.394 . S
C593 C599 1.465 . S
C594 C589 1.399 . S
C594 C593 1.394 . S
C594 C595 1.516 . S
C595 C594 1.516 . S
C595 C596 1.502 . S
C595 C597 1.561 . S
C595 C598 1.526 . S
C596 H580 0.959 . S
C596 H581 0.959 . S
C596 H582 0.961 . S
C596 C595 1.502 . S
C597 H583 0.960 . S
C597 H584 0.961 . S
C597 H585 0.959 . S
C597 C595 1.561 . S
C598 C595 1.526 . S
C598 C599 1.396 . S
C598 C603 1.390 . S
C599 C593 1.465 . S
C599 C598 1.396 . S
C599 C600 1.399 . S
C600 H586 0.929 . S
C600 C599 1.399 . S
C600 C601 1.385 . S
C601 H587 0.931 . S
C601 C600 1.385 . S
C601 C602 1.389 . S
C602 C601 1.389 . S
C602 C603 1.387 . S
C603 H588 0.930 . S
C603 C598 1.390 . S
C603 C602 1.387 . S
H604 C616 0.930 . S
H605 C618 0.930 1_545 S
H606 C619 0.930 . S
H607 C623 0.959 . S
H608 C623 0.959 . S
H609 C623 0.961 . S
H610 C624 0.960 . S
H611 C624 0.961 . S
H612 C624 0.959 . S
H613 C627 0.929 . S
H614 C628 0.931 . S
H615 C630 0.927 1_554 S
C616 H604 0.930 . S
C616 C617 1.399 . S
C616 C621 1.399 . S
C617 C616 1.399 . S
C617 C618 1.376 . S
C618 H605 0.930 1_565 S
C618 C617 1.376 . S
C618 C619 1.388 1_565 S
C619 H606 0.930 . S
C619 C618 1.388 1_545 S
C619 C620 1.390 1_545 S
C620 C619 1.390 1_565 S
C620 C621 1.394 . S
C620 C626 1.453 1_565 S
C621 C616 1.399 . S
C621 C620 1.394 . S
C621 C622 1.516 . S
C622 C621 1.516 . S
C622 C623 1.502 . S
C622 C624 1.561 1_556 S
C622 C625 1.526 . S
C623 H607 0.959 . S
C623 H608 0.959 . S
C623 H609 0.961 . S
C623 C622 1.502 . S
C624 H610 0.960 . S
C624 H611 0.961 . S
C624 H612 0.959 . S
C624 C622 1.561 1_554 S
C625 C622 1.526 . S
C625 C626 1.375 1_565 S
C625 C630 1.390 . S
C626 C620 1.453 1_545 S
C626 C625 1.375 1_545 S
C626 C627 1.427 . S
C627 H613 0.929 . S
C627 C626 1.427 . S
C627 C628 1.385 . S
C628 H614 0.931 . S
C628 C627 1.385 . S
C628 C629 1.389 . S
C629 C628 1.389 . S
C629 C630 1.387 1_545 S
C630 H615 0.927 1_556 S
C630 C625 1.390 . S
C630 C629 1.387 1_565 S
H631 C643 0.930 . S
H632 C645 0.930 . S
H633 C646 0.930 . S
H634 C650 0.959 . S
H635 C650 0.959 . S
H636 C650 0.961 . S
H637 C651 0.960 . S
H638 C651 0.961 . S
H639 C651 0.959 . S
H640 C654 0.929 . S
H641 C655 0.931 . S
H642 C657 0.930 . S
C643 H631 0.930 . S
C643 C644 1.399 . S
C643 C648 1.399 . S
C644 C643 1.399 . S
C644 C645 1.376 . S
C645 H632 0.930 . S
C645 C644 1.376 . S
C645 C646 1.388 . S
C646 H633 0.930 . S
C646 C645 1.388 . S
C646 C647 1.390 . S
C647 C646 1.390 . S
C647 C648 1.394 . S
C647 C653 1.465 . S
C648 C643 1.399 . S
C648 C647 1.394 . S
C648 C649 1.516 . S
C649 C648 1.516 . S
C649 C650 1.502 . S
C649 C651 1.561 . S
C649 C652 1.526 . S
C650 H634 0.959 . S
C650 H635 0.959 . S
C650 H636 0.961 . S
C650 C649 1.502 . S
C651 H637 0.960 . S
C651 H638 0.961 . S
C651 H639 0.959 . S
C651 C649 1.561 . S
C652 C649 1.526 . S
C652 C653 1.396 . S
C652 C657 1.390 . S
C653 C647 1.465 . S
C653 C652 1.396 . S
C653 C654 1.399 . S
C654 H640 0.929 . S
C654 C653 1.399 . S
C654 C655 1.385 . S
C655 H641 0.931 . S
C655 C654 1.385 . S
C655 C656 1.389 . S
C656 C655 1.389 . S
C656 C657 1.387 . S
C657 H642 0.930 . S
C657 C652 1.390 . S
C657 C656 1.387 . S
H658 C670 0.930 . S
H659 C672 0.930 . S
H660 C673 0.930 . S
H661 C677 0.959 . S
H662 C677 0.959 . S
H663 C677 0.961 . S
H664 C678 0.960 . S
H665 C678 0.961 . S
H666 C678 0.959 . S
H667 C681 0.929 . S
H668 C682 0.931 . S
H669 C684 0.930 . S
C670 H658 0.930 . S
C670 C671 1.399 . S
C670 C675 1.399 . S
C671 C670 1.399 . S
C671 C672 1.376 . S
C672 H659 0.930 . S
C672 C671 1.376 . S
C672 C673 1.388 . S
C673 H660 0.930 . S
C673 C672 1.388 . S
C673 C674 1.390 . S
C674 C673 1.390 . S
C674 C675 1.394 . S
C674 C680 1.465 . S
C675 C670 1.399 . S
C675 C674 1.394 . S
C675 C676 1.516 . S
C676 C675 1.516 . S
C676 C677 1.502 . S
C676 C678 1.561 . S
C676 C679 1.526 . S
C677 H661 0.959 . S
C677 H662 0.959 . S
C677 H663 0.961 . S
C677 C676 1.502 . S
C678 H664 0.960 . S
C678 H665 0.961 . S
C678 H666 0.959 . S
C678 C676 1.561 . S
C679 C676 1.526 . S
C679 C680 1.396 . S
C679 C684 1.390 . S
C680 C674 1.465 . S
C680 C679 1.396 . S
C680 C681 1.399 . S
C681 H667 0.929 . S
C681 C680 1.399 . S
C681 C682 1.385 . S
C682 H668 0.931 . S
C682 C681 1.385 . S
C682 C683 1.389 . S
C683 C682 1.389 . S
C683 C684 1.387 . S
C684 H669 0.930 . S
C684 C679 1.390 . S
C684 C683 1.387 . S
H685 C697 0.930 . S
H686 C699 0.930 . S
H687 C700 0.930 . S
H688 C704 0.959 . S
H689 C704 0.959 . S
H690 C704 0.961 . S
H691 C705 0.960 . S
H692 C705 0.961 . S
H693 C705 0.959 . S
H694 C708 0.929 . S
H695 C709 0.931 . S
H696 C711 0.930 . S
C697 H685 0.930 . S
C697 C698 1.399 . S
C697 C702 1.399 . S
C698 C697 1.399 . S
C698 C699 1.376 . S
C699 H686 0.930 . S
C699 C698 1.376 . S
C699 C700 1.388 . S
C700 H687 0.930 . S
C700 C699 1.388 . S
C700 C701 1.390 . S
C701 C700 1.390 . S
C701 C702 1.394 . S
C701 C707 1.465 . S
C702 C697 1.399 . S
C702 C701 1.394 . S
C702 C703 1.516 . S
C703 C702 1.516 . S
C703 C704 1.502 . S
C703 C705 1.561 . S
C703 C706 1.526 . S
C704 H688 0.959 . S
C704 H689 0.959 . S
C704 H690 0.961 . S
C704 C703 1.502 . S
C705 H691 0.960 . S
C705 H692 0.961 . S
C705 H693 0.959 . S
C705 C703 1.561 . S
C706 C703 1.526 . S
C706 C707 1.396 . S
C706 C711 1.390 . S
C707 C701 1.465 . S
C707 C706 1.396 . S
C707 C708 1.399 . S
C708 H694 0.929 . S
C708 C707 1.399 . S
C708 C709 1.385 . S
C709 H695 0.931 . S
C709 C708 1.385 . S
C709 C710 1.389 . S
C710 C709 1.389 . S
C710 C711 1.387 . S
C711 H696 0.930 . S
C711 C706 1.390 . S
C711 C710 1.387 . S
H712 C724 0.930 . S
H713 C726 0.930 . S
H714 C727 0.930 . S
H715 C731 0.959 . S
H716 C731 0.959 . S
H717 C731 0.961 . S
H718 C732 0.960 . S
H719 C732 0.961 . S
H720 C732 0.959 . S
H721 C735 0.929 1_554 S
H722 C736 0.931 . S
H723 C738 0.930 . S
C724 H712 0.930 . S
C724 C725 1.399 . S
C724 C729 1.399 . S
C725 C724 1.399 . S
C725 C726 1.376 . S
C726 H713 0.930 . S
C726 C725 1.376 . S
C726 C727 1.388 . S
C727 H714 0.930 . S
C727 C726 1.388 . S
C727 C728 1.390 . S
C728 C727 1.390 . S
C728 C729 1.394 . S
C728 C734 1.465 . S
C729 C724 1.399 . S
C729 C728 1.394 . S
C729 C730 1.516 . S
C730 C729 1.516 . S
C730 C731 1.502 . S
C730 C732 1.561 . S
C730 C733 1.526 . S
C731 H715 0.959 . S
C731 H716 0.959 . S
C731 H717 0.961 . S
C731 C730 1.502 . S
C732 H718 0.960 . S
C732 H719 0.961 . S
C732 H720 0.959 . S
C732 C730 1.561 . S
C733 C730 1.526 . S
C733 C734 1.396 . S
C733 C738 1.390 . S
C734 C728 1.465 . S
C734 C733 1.396 . S
C734 C735 1.399 . S
C735 H721 0.929 1_556 S
C735 C734 1.399 . S
C735 C736 1.385 1_556 S
C736 H722 0.931 . S
C736 C735 1.385 1_554 S
C736 C737 1.389 1_554 S
C737 C736 1.389 1_556 S
C737 C738 1.387 . S
C738 H723 0.930 . S
C738 C733 1.390 . S
C738 C737 1.387 . S
H739 C751 0.930 . S
H740 C753 0.930 . S
H741 C754 0.930 . S
H742 C758 0.959 . S
H743 C758 0.959 . S
H744 C758 0.961 . S
H745 C759 0.960 . S
H746 C759 0.961 . S
H747 C759 0.959 . S
H748 C762 0.929 . S
H749 C763 0.931 . S
H750 C765 0.930 . S
C751 H739 0.930 . S
C751 C752 1.399 . S
C751 C756 1.399 . S
C752 C751 1.399 . S
C752 C753 1.376 . S
C753 H740 0.930 . S
C753 C752 1.376 . S
C753 C754 1.388 . S
C754 H741 0.930 . S
C754 C753 1.388 . S
C754 C755 1.390 . S
C755 C754 1.390 . S
C755 C756 1.394 . S
C755 C761 1.465 . S
C756 C751 1.399 . S
C756 C755 1.394 . S
C756 C757 1.516 . S
C757 C756 1.516 . S
C757 C758 1.502 . S
C757 C759 1.561 . S
C757 C760 1.526 . S
C758 H742 0.959 . S
C758 H743 0.959 . S
C758 H744 0.961 . S
C758 C757 1.502 . S
C759 H745 0.960 . S
C759 H746 0.961 . S
C759 H747 0.959 . S
C759 C757 1.561 . S
C760 C757 1.526 . S
C760 C761 1.396 . S
C760 C765 1.390 . S
C761 C755 1.465 . S
C761 C760 1.396 . S
C761 C762 1.399 . S
C762 H748 0.929 . S
C762 C761 1.399 . S
C762 C763 1.385 . S
C763 H749 0.931 . S
C763 C762 1.385 . S
C763 C764 1.389 . S
C764 C763 1.389 . S
C764 C765 1.387 . S
C765 H750 0.930 . S
C765 C760 1.390 . S
C765 C764 1.387 . S
H766 C778 0.930 . S
H767 C780 0.930 . S
H768 C781 0.930 . S
H769 C785 0.959 . S
H770 C785 0.959 . S
H771 C785 0.961 . S
H772 C786 0.958 1_655 S
H773 C786 0.958 1_655 S
H774 C786 0.955 1_655 S
H775 C789 0.929 . S
H776 C790 0.931 . S
H777 C792 0.930 . S
C778 H766 0.930 . S
C778 C779 1.399 . S
C778 C783 1.399 . S
C779 C778 1.399 . S
C779 C780 1.376 . S
C780 H767 0.930 . S
C780 C779 1.376 . S
C780 C781 1.388 . S
C781 H768 0.930 . S
C781 C780 1.388 . S
C781 C782 1.390 . S
C782 C781 1.390 . S
C782 C783 1.394 . S
C782 C788 1.465 . S
C783 C778 1.399 . S
C783 C782 1.394 . S
C783 C784 1.516 . S
C784 C783 1.516 . S
C784 C785 1.502 . S
C784 C786 1.570 . S
C784 C787 1.526 . S
C785 H769 0.959 . S
C785 H770 0.959 . S
C785 H771 0.961 . S
C785 C784 1.502 . S
C786 H772 0.958 1_455 S
C786 H773 0.958 1_455 S
C786 H774 0.955 1_455 S
C786 C784 1.570 . S
C787 C784 1.526 . S
C787 C788 1.396 . S
C787 C792 1.390 . S
C788 C782 1.465 . S
C788 C787 1.396 . S
C788 C789 1.399 . S
C789 H775 0.929 . S
C789 C788 1.399 . S
C789 C790 1.385 . S
C790 H776 0.931 . S
C790 C789 1.385 . S
C790 C791 1.389 . S
C791 C790 1.389 . S
C791 C792 1.387 . S
C792 H777 0.930 . S
C792 C787 1.390 . S
C792 C791 1.387 . S
H793 C805 0.930 . S
H794 C807 0.930 . S
H795 C808 0.930 . S
H796 C812 0.959 . S
H797 C812 0.959 . S
H798 C812 0.961 . S
H799 C813 0.960 . S
H800 C813 0.961 . S
H801 C813 0.959 . S
H802 C816 0.929 . S
H803 C817 0.931 . S
H804 C819 0.930 . S
C805 H793 0.930 . S
C805 C806 1.399 . S
C805 C810 1.399 . S
C806 C805 1.399 . S
C806 C807 1.376 . S
C807 H794 0.930 . S
C807 C806 1.376 . S
C807 C808 1.388 . S
C808 H795 0.930 . S
C808 C807 1.388 . S
C808 C809 1.390 . S
C809 C808 1.390 . S
C809 C810 1.394 . S
C809 C815 1.465 . S
C810 C805 1.399 . S
C810 C809 1.394 . S
C810 C811 1.516 . S
C811 C810 1.516 . S
C811 C812 1.502 . S
C811 C813 1.561 . S
C811 C814 1.526 . S
C812 H796 0.959 . S
C812 H797 0.959 . S
C812 H798 0.961 . S
C812 C811 1.502 . S
C813 H799 0.960 . S
C813 H800 0.961 . S
C813 H801 0.959 . S
C813 C811 1.561 . S
C814 C811 1.526 . S
C814 C815 1.396 . S
C814 C819 1.390 . S
C815 C809 1.465 . S
C815 C814 1.396 . S
C815 C816 1.399 . S
C816 H802 0.929 . S
C816 C815 1.399 . S
C816 C817 1.385 . S
C817 H803 0.931 . S
C817 C816 1.385 . S
C817 C818 1.389 . S
C818 C817 1.389 . S
C818 C819 1.387 . S
C819 H804 0.930 . S
C819 C814 1.390 . S
C819 C818 1.387 . S
C185 C4 1.757 . S
C197 C104 1.672 . S
C212 C16 1.758 . S
C224 C126 1.722 . S
C251 C145 0.863 . S
C239 C32 1.096 . S
C266 C43 1.562 . S
C278 C166 1.369 . S
C305 C123 2.086 . S
C293 C5 2.191 . S
C332 C101 1.415 1_565 S
C320 C21 1.434 . S
C359 C168 1.206 . S
C347 C27 1.202 . S
C386 C147 1.309 . S
C374 C37 1.340 . S
C401 C10 1.697 . S
C413 C165 1.615 . S
C440 C124 1.349 1_556 S
C428 C26 1.656 . S
C455 C38 1.408 . S
C467 C106 1.277 . S
C482 C15 1.627 . S
C494 C144 1.580 . S
C521 C102 1.807 1_565 S
C509 C48 1.895 . S
C536 C59 1.420 . S
C548 C122 1.366 . S
C563 C76 1.359 . S
C575 C148 1.183 . S
C590 C87 1.355 . S
C602 C169 1.127 . S
C617 C54 1.554 . S
C629 C125 1.534 1_556 S
C656 C105 2.047 . S
C644 C60 2.108 . S
C683 C164 1.046 . S
C671 C71 1.187 . S
C710 C143 1.373 . S
C698 C82 1.358 . S
C725 C49 1.795 . S
C737 C167 1.757 . S
C764 C127 1.061 . S
C752 C70 1.219 . S
C791 C103 1.388 . S
C779 C81 1.542 . S
C806 C65 1.481 . S
C818 C146 1.467 . S
