# Generated by pormake.
# Topology zzz, (3,6)-cn, num edge types: 1
# Building blocks:
#     Node 0, Type 0, BuildingBlock: CUQRIR_clean_linker_1, # of connection points: 3
#     Node 1, Type 0, BuildingBlock: CUQRIR_clean_linker_1, # of connection points: 3
#     Node 2, Type 0, BuildingBlock: CUQRIR_clean_linker_1, # of connection points: 3
#     Node 3, Type 0, BuildingBlock: CUQRIR_clean_linker_1, # of connection points: 3
#     Node 4, Type 0, BuildingBlock: CUQRIR_clean_linker_1, # of connection points: 3
#     Node 5, Type 0, BuildingBlock: CUQRIR_clean_linker_1, # of connection points: 3
#     Node 6, Type 0, BuildingBlock: CUQRIR_clean_linker_1, # of connection points: 3
#     Node 7, Type 0, BuildingBlock: CUQRIR_clean_linker_1, # of connection points: 3
#     Node 8, Type 1, BuildingBlock: BETFAJ_clean_sbu_0, # of connection points: 6
#     Node 9, Type 1, BuildingBlock: BETFAJ_clean_sbu_0, # of connection points: 6
#     Node 10, Type 1, BuildingBlock: BETFAJ_clean_sbu_0, # of connection points: 6
#     Node 11, Type 1, BuildingBlock: BETFAJ_clean_sbu_0, # of connection points: 6
#     Edge 12, Type (0, 1), BuildingBlock: CIFDUS_clean_linker_0, # of connection points: 2
#     Edge 13, Type (0, 1), BuildingBlock: CIFDUS_clean_linker_0, # of connection points: 2
#     Edge 14, Type (0, 1), BuildingBlock: CIFDUS_clean_linker_0, # of connection points: 2
#     Edge 15, Type (0, 1), BuildingBlock: CIFDUS_clean_linker_0, # of connection points: 2
#     Edge 16, Type (0, 1), BuildingBlock: CIFDUS_clean_linker_0, # of connection points: 2
#     Edge 17, Type (0, 1), BuildingBlock: CIFDUS_clean_linker_0, # of connection points: 2
#     Edge 18, Type (0, 1), BuildingBlock: CIFDUS_clean_linker_0, # of connection points: 2
#     Edge 19, Type (0, 1), BuildingBlock: CIFDUS_clean_linker_0, # of connection points: 2
#     Edge 20, Type (0, 1), BuildingBlock: CIFDUS_clean_linker_0, # of connection points: 2
#     Edge 21, Type (0, 1), BuildingBlock: CIFDUS_clean_linker_0, # of connection points: 2
#     Edge 22, Type (0, 1), BuildingBlock: CIFDUS_clean_linker_0, # of connection points: 2
#     Edge 23, Type (0, 1), BuildingBlock: CIFDUS_clean_linker_0, # of connection points: 2
#     Edge 24, Type (0, 1), BuildingBlock: CIFDUS_clean_linker_0, # of connection points: 2
#     Edge 25, Type (0, 1), BuildingBlock: CIFDUS_clean_linker_0, # of connection points: 2
#     Edge 26, Type (0, 1), BuildingBlock: CIFDUS_clean_linker_0, # of connection points: 2
#     Edge 27, Type (0, 1), BuildingBlock: CIFDUS_clean_linker_0, # of connection points: 2
#     Edge 28, Type (0, 1), BuildingBlock: CIFDUS_clean_linker_0, # of connection points: 2
#     Edge 29, Type (0, 1), BuildingBlock: CIFDUS_clean_linker_0, # of connection points: 2
#     Edge 30, Type (0, 1), BuildingBlock: CIFDUS_clean_linker_0, # of connection points: 2
#     Edge 31, Type (0, 1), BuildingBlock: CIFDUS_clean_linker_0, # of connection points: 2
#     Edge 32, Type (0, 1), BuildingBlock: CIFDUS_clean_linker_0, # of connection points: 2
#     Edge 33, Type (0, 1), BuildingBlock: CIFDUS_clean_linker_0, # of connection points: 2
#     Edge 34, Type (0, 1), BuildingBlock: CIFDUS_clean_linker_0, # of connection points: 2
#     Edge 35, Type (0, 1), BuildingBlock: CIFDUS_clean_linker_0, # of connection points: 2
# Relax obj value: 0.363
# Max RMSD: 0.207
# Mean RMSD: 0.159
data_MOF--net-zzz--node1-BETFAJ_clean_sbu_0--node2-CUQRIR_clean_linker_1--edge1-CIFDUS_clean_linker_0
_symmetry_space_group_name_H-M    P1
_symmetry_Int_Tables_number       1
_symmetry_cell_setting            triclinic
loop_
_symmetry_equiv_pos_as_xyz
'x, y, z'
_cell_length_a     41.579904
_cell_length_b     41.575576
_cell_length_c     10.661531
_cell_angle_alpha  89.76531
_cell_angle_beta   89.646247
_cell_angle_gamma 89.897916
loop_
_atom_site_label
_atom_site_type_symbol
_atom_site_fract_x
_atom_site_fract_y
_atom_site_fract_z
_atom_type_partial_charge
C0 C 0.77058 0.52953 0.4401 0.0
N1 N 0.79506 0.50942 0.47253 0.0
N2 N 0.75248 0.51661 0.3478 0.0
C3 C 0.76499 0.56216 0.49565 0.0
C4 C 0.76737 0.48848 0.32171 0.0
N5 N 0.79276 0.48324 0.40007 0.0
C6 C 0.76031 0.46975 0.20378 0.0
H7 H 0.77181 0.56227 0.59614 0.0
H8 H 0.73948 0.56955 0.48557 0.0
H9 H 0.78032 0.57988 0.44532 0.0
H10 H 0.74974 0.4855 0.13054 0.0
H11 H 0.74242 0.4507 0.22508 0.0
H12 H 0.78243 0.45888 0.16361 0.0
C13 C 0.04029 0.75017 0.5044 0.0
N14 N 0.06006 0.77572 0.52385 0.0
N15 N 0.05591 0.72638 0.44091 0.0
C16 C 1.00504 0.75 0.53449 0.0
C17 C 0.08581 0.73843 0.42367 0.0
N18 N 0.08832 0.76845 0.4715 0.0
C19 C 0.11238 0.72087 0.35594 0.0
H20 H 1.0006 0.76149 0.62677 0.0
H21 H 0.99544 0.72511 0.53519 0.0
H22 H 0.99217 0.76423 0.46218 0.0
H23 H 0.10936 0.72375 0.25322 0.0
H24 H 0.11104 0.69479 0.37719 0.0
H25 H 0.13631 0.73028 0.38299 0.0
C26 C 0.80048 1.02126 0.37648 0.0
N27 N 0.77838 0.04092 0.4315 0.0
N28 N 0.82605 0.03831 0.33184 0.0
C29 C 0.79579 0.98594 0.35577 0.0
C30 C 0.81816 0.06914 0.35916 0.0
N31 N 0.78917 0.0709 0.41797 0.0
C32 C 0.83663 0.09784 0.31175 0.0
H33 H 0.81936 0.97347 0.34899 0.0
H34 H 0.78279 0.98244 0.26629 0.0
H35 H 0.78118 0.9753 0.43283 0.0
H36 H 0.82981 0.11991 0.36381 0.0
H37 H 0.83149 0.10144 0.21066 0.0
H38 H 0.86282 0.09358 0.32095 0.0
C39 C 0.54601 0.79042 0.39274 0.0
N40 N 0.52571 0.76812 0.44301 0.0
N41 N 0.5296 0.8168 0.35087 0.0
C42 C 0.58165 0.78576 0.38001 0.0
C43 C 0.49851 0.80938 0.37758 0.0
N44 N 0.49598 0.77968 0.43006 0.0
C45 C 0.47005 0.82964 0.33885 0.0
H46 H 0.59107 0.77253 0.46266 0.0
H47 H 0.59413 0.80922 0.37025 0.0
H48 H 0.5867 0.77106 0.2955 0.0
H49 H 0.47161 0.83529 0.23716 0.0
H50 H 0.47026 0.85262 0.39105 0.0
H51 H 0.44679 0.81771 0.3598 0.0
C52 C 0.3055 0.50541 0.2307 0.0
N53 N 0.28548 0.52747 0.17762 0.0
N54 N 0.33238 0.51976 0.27677 0.0
C55 C 0.29762 0.47048 0.24655 0.0
C56 C 0.32761 0.55129 0.25034 0.0
N57 N 0.29913 0.55615 0.19189 0.0
C58 C 0.34948 0.57773 0.29359 0.0
H59 H 0.28108 0.46765 0.3279 0.0
H60 H 0.31971 0.45617 0.26404 0.0
H61 H 0.28517 0.46138 0.16206 0.0
H62 H 0.37468 0.57115 0.27232 0.0
H63 H 0.34733 0.58034 0.39685 0.0
H64 H 0.34376 0.60099 0.24736 0.0
C65 C 0.04424 0.29058 0.26441 0.0
N66 N 1.02325 0.26945 0.21256 0.0
N67 N 1.02841 0.31568 0.3187 0.0
C68 C 0.07993 0.28564 0.26904 0.0
C69 C 0.99697 0.30857 0.30091 0.0
N70 N 0.99383 0.28079 0.23596 0.0
C71 C 0.96942 0.3258 0.36464 0.0
H72 H 0.08583 0.27122 0.35365 0.0
H73 H 0.09259 0.30906 0.27503 0.0
H74 H 0.08837 0.27224 0.18521 0.0
H75 H 0.97399 0.35186 0.37413 0.0
H76 H 0.96651 0.31613 0.46114 0.0
H77 H 0.94664 0.32213 0.31292 0.0
C78 C 0.25617 0.03605 0.12367 0.0
N79 N 0.28493 0.05056 0.0994 0.0
N80 N 0.23674 0.05529 0.19431 0.0
C81 C 0.24845 1.00192 0.09081 0.0
C82 C 0.25492 0.08178 0.21279 0.0
N83 N 0.28437 0.07878 0.15867 0.0
C84 C 0.24472 0.1096 0.2937 0.0
H85 H 0.22208 0.99867 0.08163 0.0
H86 H 0.25709 0.98592 0.16706 0.0
H87 H 0.26076 0.99495 1.00233 0.0
H88 H 0.24668 0.10271 0.39399 0.0
H89 H 0.21916 0.11566 0.27547 0.0
H90 H 0.26001 0.13099 0.27554 0.0
C91 C 0.51709 0.24374 0.11344 0.0
N92 N 0.50442 0.27379 0.09977 0.0
N93 N 0.49737 0.22466 0.18429 0.0
C94 C 0.54906 0.23344 0.06172 0.0
C95 C 0.47225 0.24432 0.21198 0.0
N96 N 0.47675 0.27421 0.1637 0.0
C97 C 0.44391 0.2347 0.29292 0.0
H98 H 0.55325 0.24454 0.96821 0.0
H99 H 0.55051 0.20684 0.05466 0.0
H100 H 0.56826 0.24187 0.12544 0.0
H101 H 0.45252 0.22553 0.38471 0.0
H102 H 0.43042 0.21511 0.2469 0.0
H103 H 0.42678 0.2548 0.3078 0.0
Sm104 Sm 0.05674 1.02177 0.9108 0.0
Sm105 Sm 1.02185 0.03621 0.69081 0.0
C106 C 0.07973 1.00527 0.13315 0.0
C107 C 0.10183 0.98438 0.20173 0.0
C108 C 0.09534 0.97792 0.32808 0.0
C109 C 0.11358 0.9553 0.39293 0.0
C110 C 0.13826 0.93827 0.33125 0.0
C111 C 0.1471 0.94772 0.20867 0.0
C112 C 0.12876 0.97046 0.14371 0.0
C113 C 0.09839 0.03826 0.71414 0.0
C114 C 0.04326 0.96191 0.71716 0.0
C115 C 0.9973 0.05547 0.47483 0.0
C116 C 0.97224 0.07724 0.42959 0.0
C117 C 0.97761 0.09418 0.31818 0.0
C118 C 0.95624 0.11809 0.28107 0.0
C119 C 0.9291 0.12565 0.35569 0.0
C120 C 0.922 0.10598 0.45995 0.0
C121 C 0.94364 0.08214 0.49755 0.0
C122 C 0.98072 1.02119 0.89034 0.0
C123 C 0.03638 0.0964 0.88059 0.0
O124 O 0.05416 0.99199 0.0847 0.0
O125 O 0.09255 1.02725 0.06115 0.0
O126 O 0.07403 1.02027 0.70449 0.0
O127 O 0.10115 0.04757 0.82913 0.0
O128 O 0.04761 0.96906 0.83696 0.0
O129 O 0.0384 0.98546 0.63669 0.0
O130 O 1.02235 0.06905 0.52588 0.0
O131 O 0.98759 1.02986 0.53508 0.0
O132 O 1.0054 0.03868 0.89577 0.0
O133 O 0.97648 1.01176 0.77626 0.0
O134 O 0.03232 0.08846 0.76166 0.0
O135 O 0.04094 0.07337 0.96368 0.0
H136 H 0.07512 0.98927 0.37502 0.0
H137 H 0.10623 0.94909 0.48747 0.0
H138 H 0.16653 0.93566 0.1596 0.0
H139 H 0.13462 0.97596 0.04683 0.0
H140 H 0.99926 0.0901 0.26338 0.0
H141 H 0.96298 0.13261 0.20062 0.0
H142 H 0.90108 0.11071 0.51806 0.0
H143 H 0.93878 0.06868 0.5828 0.0
Sm144 Sm 0.53444 0.0459 0.88856 0.0
Sm145 Sm 0.52763 1.00574 0.67956 0.0
C146 C 0.54795 0.07584 0.10103 0.0
C147 C 0.57191 0.09812 0.15141 0.0
C148 C 0.5853 0.09145 0.26875 0.0
C149 C 0.61299 0.10736 0.30693 0.0
C150 C 0.62772 0.13037 0.22815 0.0
C151 C 0.61171 0.13992 0.11804 0.0
C152 C 0.58417 0.12363 0.07908 0.0
C153 C 0.52191 0.08155 0.67095 0.0
C154 C 0.6003 1.02841 0.72328 0.0
C155 C 0.50983 0.98206 0.46294 0.0
C156 C 0.49379 1.00034 0.36321 0.0
C157 C 0.50554 1.03077 0.32661 0.0
C158 C 0.48532 0.05287 0.2674 0.0
C159 C 0.45327 0.04489 0.24623 0.0
C160 C 0.44255 1.01354 0.2719 0.0
C161 C 0.46278 0.99123 0.32833 0.0
C162 C 0.53999 0.96906 0.89281 0.0
C163 C 0.46258 1.02702 0.82901 0.0
O164 O 0.5584 0.04699 0.07403 0.0
O165 O 0.52786 0.08712 0.01807 0.0
O166 O 0.54138 0.0584 0.68059 0.0
O167 O 0.5086 0.0868 0.77905 0.0
O168 O 0.5889 0.03783 0.83376 0.0
O169 O 0.58034 1.01771 0.6383 0.0
O170 O 0.53955 0.98988 0.48595 0.0
O171 O 0.49268 0.97852 0.56501 0.0
O172 O 0.52118 0.99296 0.88695 0.0
O173 O 0.55226 0.9634 0.78325 0.0
O174 O 0.47534 1.02537 0.7153 0.0
O175 O 0.48223 1.02899 0.92475 0.0
H176 H 0.57589 0.07215 0.32671 0.0
H177 H 0.62445 0.09913 0.39217 0.0
H178 H 0.62197 0.15808 0.05673 0.0
H179 H 0.57384 0.12954 0.98883 0.0
H180 H 0.52928 0.03861 0.35377 0.0
H181 H 0.49372 0.07703 0.24947 0.0
H182 H 0.41762 1.00728 0.25919 0.0
H183 H 0.45312 0.9681 0.35666 0.0
Sm184 Sm 0.52089 0.52797 0.92898 0.0
Sm185 Sm 0.56013 0.51609 0.71246 0.0
C186 C 0.49692 0.54486 0.14914 0.0
C187 C 0.47754 0.56816 0.21885 0.0
C188 C 0.48825 0.57787 0.33686 0.0
C189 C 0.47112 0.60076 0.40475 0.0
C190 C 0.44317 0.61484 0.35465 0.0
C191 C 0.43145 0.60342 0.23949 0.0
C192 C 0.44847 0.58019 0.17208 0.0
C193 C 0.48315 0.50964 0.7277 0.0
C194 C 0.53837 0.59055 0.74514 0.0
C195 C 0.58294 0.49533 0.49615 0.0
C196 C 0.56552 0.47464 0.40748 0.0
C197 C 0.54282 0.48814 0.32494 0.0
C198 C 0.51802 0.46928 0.27686 0.0
C199 C 0.5158 0.43685 0.31029 0.0
C200 C 0.54089 0.42264 0.3792 0.0
C201 C 0.56566 0.44128 0.42639 0.0
C202 C 0.59703 0.53057 0.92217 0.0
C203 C 0.54032 0.45434 0.88701 0.0
O204 O 0.52512 0.55435 0.10872 0.0
O205 O 0.48211 0.52577 0.07146 0.0
O206 O 0.50701 0.52855 0.72169 0.0
O207 O 0.47789 0.50095 0.84283 0.0
O208 O 0.52792 0.58086 0.85675 0.0
O209 O 0.55019 0.56944 0.66554 0.0
O210 O 0.57102 0.5241 0.51066 0.0
O211 O 0.59049 0.48203 0.60335 0.0
O212 O 0.57283 0.51243 0.91882 0.0
O213 O 0.60297 0.54163 0.81056 0.0
O214 O 0.54261 0.46379 0.76834 0.0
O215 O 0.53769 0.47649 0.97431 0.0
H216 H 0.51043 0.56836 0.37516 0.0
H217 H 0.48131 0.60913 0.49185 0.0
H218 H 0.41003 0.6137 0.19817 0.0
H219 H 0.4395 0.5725 0.08189 0.0
H220 H 0.54262 0.51374 0.30644 0.0
H221 H 0.49953 0.48024 0.22042 0.0
H222 H 0.5408 0.39714 0.40065 0.0
H223 H 0.5833 0.42991 0.48649 0.0
Sm224 Sm 1.02867 0.51169 0.91998 0.0
Sm225 Sm 0.04705 0.55162 0.73699 0.0
C226 C 1.00023 0.47465 0.08705 0.0
C227 C 0.97609 0.44878 0.07931 0.0
C228 C 0.94344 0.45583 0.0608 0.0
C229 C 0.92022 0.43274 0.08939 0.0
C230 C 0.9295 0.40351 0.14586 0.0
C231 C 0.9618 0.39411 0.13632 0.0
C232 C 0.98513 0.41683 0.10318 0.0
C233 C 0.04818 0.4763 0.71211 0.0
C234 C 0.97215 0.53498 0.73009 0.0
C235 C 0.0703 0.58388 0.54169 0.0
C236 C 0.0961 0.60455 0.49449 0.0
C237 C 0.1063 0.60035 0.37078 0.0
C238 C 0.1339 0.61565 0.32719 0.0
C239 C 0.1517 0.63591 0.40669 0.0
C240 C 0.13866 0.64334 0.52568 0.0
C241 C 0.1113 0.62734 0.57015 0.0
C242 C 1.0258 0.58797 0.94044 0.0
C243 C 0.10199 0.53101 0.94288 0.0
O244 O 0.9906 0.50399 0.06317 0.0
O245 O 1.0287 0.46828 0.04152 0.0
O246 O 1.02991 0.50058 0.70962 0.0
O247 O 0.05868 0.47177 0.82443 0.0
O248 O 0.97787 0.52631 0.8466 0.0
O249 O 0.99676 0.5417 0.6569 0.0
O250 O 0.07752 0.55385 0.56493 0.0
O251 O 0.05037 0.59613 0.62324 0.0
O252 O 0.04432 0.56379 0.94803 0.0
O253 O 1.01626 0.59132 0.826 0.0
O254 O 0.0976 0.53805 0.82293 0.0
O255 O 0.0765 0.525 0.01251 0.0
H256 H 0.93562 0.47987 0.03587 0.0
H257 H 0.89527 0.44035 0.09147 0.0
H258 H 0.96939 0.37093 0.17096 0.0
H259 H 1.01028 0.41032 0.10767 0.0
H260 H 0.09393 0.58369 0.30998 0.0
H261 H 0.14251 0.60898 0.23499 0.0
H262 H 0.15071 0.65987 0.58783 0.0
H263 H 0.10296 0.63169 0.66506 0.0
H264 H 0.23416 0.03938 0.43791 0.0
H265 H 0.17518 0.05526 0.11413 0.0
H266 H 0.12644 0.05101 0.24542 0.0
H267 H 0.10036 0.04384 0.4555 0.0
H268 H 0.16083 1.03142 0.77918 0.0
H269 H 0.20868 0.03207 0.64572 0.0
C270 C 0.21052 0.0409 0.39592 0.0
C271 C 0.2082 0.04693 0.2662 0.0
C272 C 0.1827 0.03867 0.47222 0.0
C273 C 0.17752 0.04983 0.21307 0.0
C274 C 0.14967 0.04745 0.28829 0.0
C275 C 0.12401 0.04091 0.49625 0.0
C276 C 0.12685 0.0374 0.62756 0.0
C277 C 0.15186 0.04201 0.41838 0.0
C278 C 0.1578 0.03421 0.67886 0.0
C279 C 0.18528 0.0345 0.60238 0.0
H280 H 0.54693 0.20531 0.3326 0.0
H281 H 0.45934 0.17269 0.16239 0.0
H282 H 0.45805 0.12624 0.30269 0.0
H283 H 0.47976 0.09625 0.48484 0.0
H284 H 0.57061 0.12465 0.63994 0.0
H285 H 0.5735 0.17023 0.49289 0.0
C286 C 0.52829 0.18733 0.32306 0.0
C287 C 0.50273 0.19301 0.23905 0.0
C288 C 0.52834 0.15967 0.40168 0.0
C289 C 0.47878 0.16939 0.22826 0.0
C290 C 0.47811 0.14264 0.30827 0.0
C291 C 0.5004 0.11217 0.48488 0.0
C292 C 0.52483 0.10722 0.57358 0.0
C293 C 0.50228 0.13786 0.39762 0.0
C294 C 0.55145 0.12803 0.57272 0.0
C295 C 0.55309 0.15412 0.48856 0.0
H296 H 0.3963 0.51417 0.24114 0.0
H297 H 0.32119 0.50082 0.51498 0.0
H298 H 0.36145 0.49391 0.68076 0.0
H299 H 0.41831 0.49782 0.75091 0.0
H300 H 0.49294 0.51392 0.47624 0.0
H301 H 0.45298 0.51144 0.30795 0.0
C302 C 0.3889 0.50878 0.33662 0.0
C303 C 0.35581 0.50769 0.36568 0.0
C304 C 0.41225 0.50572 0.43181 0.0
C305 C 0.34647 0.50122 0.4901 0.0
C306 C 0.36954 0.49772 0.58504 0.0
C307 C 0.42587 0.50084 0.65408 0.0
C308 C 0.4587 0.50645 0.62626 0.0
C309 C 0.40253 0.50097 0.55773 0.0
C310 C 0.46794 0.51004 0.50025 0.0
C311 C 0.4451 0.50897 0.40414 0.0
H312 H 1.02201 0.37824 0.27135 0.0
H313 H 0.06152 0.31161 0.53655 0.0
H314 H 0.07409 0.35618 0.67937 0.0
H315 H 0.06881 0.41389 0.73613 0.0
H316 H 1.02533 0.47985 0.47345 0.0
H317 H 1.019 0.43628 0.32277 0.0
C318 C 0.03374 0.37386 0.35956 0.0
C319 C 0.04079 0.34192 0.39329 0.0
C320 C 0.03969 0.39952 0.44216 0.0
C321 C 0.05612 0.33605 0.50808 0.0
C322 C 0.06297 0.36153 0.59001 0.0
C323 C 0.05833 0.41881 0.64517 0.0
C324 C 0.04751 0.45024 0.61637 0.0
C325 C 0.05415 0.39333 0.55933 0.0
C326 C 0.03382 0.45602 0.49829 0.0
C327 C 1.03016 0.43103 0.41192 0.0
H328 H 0.88994 0.03366 0.36901 0.0
H329 H 0.81659 1.02276 0.09019 0.0
H330 H 0.85787 1.01463 0.92728 0.0
H331 H 0.9154 1.01446 0.86202 0.0
H332 H 0.98862 1.02619 0.14263 0.0
H333 H 0.94712 1.02736 0.3068 0.0
C334 C 0.88315 1.02878 0.27294 0.0
C335 C 0.85031 1.02846 0.24152 0.0
C336 C 0.90711 1.02436 0.17976 0.0
C337 C 0.84171 1.02263 0.11647 0.0
C338 C 0.86534 1.01827 0.02337 0.0
C339 C 0.9223 1.01745 0.95919 0.0
C340 C 0.95518 1.02058 0.98956 0.0
C341 C 0.89821 1.01973 0.05335 0.0
C342 C 0.96358 1.02426 0.11612 0.0
C343 C 0.93987 1.0254 0.2101 0.0
H344 H 0.51739 0.88047 0.37161 0.0
H345 H 0.56465 0.81082 0.13635 0.0
H346 H 0.57484 0.85242 0.97744 0.0
H347 H 0.5656 0.90789 0.89614 0.0
H348 H 0.51183 0.97506 0.1222 0.0
H349 H 0.50699 0.93453 0.28905 0.0
C350 C 0.52978 0.87434 0.28533 0.0
C351 C 0.54019 0.8424 0.26665 0.0
C352 C 0.5338 0.89797 0.19099 0.0
C353 C 0.55694 0.83521 0.15507 0.0
C354 C 0.56233 0.85897 0.06308 0.0
C355 C 0.55325 0.9139 0.98278 0.0
C356 C 0.53926 0.94475 0.99672 0.0
C357 C 0.55024 0.89035 0.07868 0.0
C358 C 0.52303 0.95178 0.10924 0.0
C359 C 0.52042 0.92874 0.20509 0.0
H360 H 0.69262 0.49344 0.36009 0.0
H361 H 0.75066 0.56622 0.18346 0.0
H362 H 0.70678 0.5787 0.03709 0.0
H363 H 0.6535 0.56469 0.94619 0.0
H364 H 0.59561 0.49211 0.12899 0.0
H365 H 0.63728 0.48392 0.28583 0.0
C366 C 0.69512 0.51271 0.29188 0.0
C367 C 0.72457 0.52925 0.28343 0.0
C368 C 0.6699 0.51937 0.20768 0.0
C369 C 0.72797 0.5537 0.19314 0.0
C370 C 0.703 0.56048 0.10862 0.0
C371 C 0.64988 0.54738 0.02127 0.0
C372 C 0.62146 0.5288 0.0244 0.0
C373 C 0.6741 0.54287 0.11272 0.0
C374 C 0.61715 0.50667 0.12334 0.0
C375 C 0.64107 0.5019 0.21336 0.0
H376 H 0.04636 0.72385 0.19397 0.0
H377 H 0.03796 0.66809 0.53263 0.0
H378 H 1.0258 0.61969 0.40819 0.0
H379 H 1.02522 0.59177 0.20049 0.0
H380 H 0.03216 0.64963 0.86439 0.0
H381 H 0.039 0.69787 0.98947 0.0
C382 C 0.04146 0.70109 0.2403 0.0
C383 C 0.04288 0.69948 0.37193 0.0
C384 C 0.03584 0.67332 0.1684 0.0
C385 C 0.03671 0.66993 0.43144 0.0
C386 C 1.03047 0.64218 0.36028 0.0
C387 C 1.02801 0.61499 0.15507 0.0
C388 C 1.0284 0.61685 0.02274 0.0
C389 C 1.03122 0.64326 0.22833 0.0
C390 C 0.03174 0.64728 0.96564 0.0
C391 C 0.0357 0.67504 0.03721 0.0
H392 H 0.95769 0.26103 0.42839 0.0
H393 H 0.96676 0.25672 0.02695 0.0
H394 H 0.9328 0.20859 0.02325 0.0
H395 H 0.91576 0.16077 0.14323 0.0
H396 H 0.91109 0.16568 0.54719 0.0
H397 H 0.924 0.22224 0.54003 0.0
C398 C 0.95054 0.25085 0.33953 0.0
C399 C 0.96524 0.26154 0.22845 0.0
C400 C 0.93138 0.22331 0.3389 0.0
C401 C 0.95629 0.24794 0.11373 0.0
C402 C 0.93684 0.22059 0.1118 0.0
C403 C 0.91626 0.17461 0.22926 0.0
C404 C 0.91512 0.15847 0.34557 0.0
C405 C 0.92645 0.20672 0.22515 0.0
C406 C 0.91337 0.17694 0.45586 0.0
C407 C 0.92143 0.20941 0.45234 0.0
H408 H 0.3327 0.10777 0.03037 0.0
H409 H 0.30097 0.08083 0.40121 0.0
H410 H 0.35599 0.07927 0.47358 0.0
H411 H 0.4105 0.06539 0.41216 0.0
H412 H 0.4426 0.08046 0.03228 0.0
H413 H 0.39112 0.1064 0.98098 0.0
C414 C 0.33808 0.1025 0.12758 0.0
C415 C 0.31308 0.09306 0.20882 0.0
C416 C 0.37011 0.09809 0.16501 0.0
C417 C 0.3198 0.08793 0.33637 0.0
C418 C 0.35141 0.08633 0.37731 0.0
C419 C 0.40643 0.07536 0.31926 0.0
C420 C 0.42909 0.06995 0.22416 0.0
C421 C 0.37645 0.08818 0.28955 0.0
C422 C 0.42465 0.08362 0.10522 0.0
C423 C 0.39527 0.09832 0.07625 0.0
H424 H 0.45417 0.32613 0.03774 0.0
H425 H 0.46959 0.28775 0.40869 0.0
H426 H 0.46764 0.34115 0.4965 0.0
H427 H 0.48298 0.39623 0.45822 0.0
H428 H 0.4854 0.43349 0.08117 0.0
H429 H 0.45883 0.38491 1.0051 0.0
C430 C 0.45641 0.32966 0.13786 0.0
C431 C 0.46311 0.30317 0.21567 0.0
C432 C 0.45962 0.36084 0.18589 0.0
C433 C 0.46444 0.30765 0.34624 0.0
C434 C 0.4639 0.33837 0.39655 0.0
C435 C 0.47683 0.39396 0.3598 0.0
C436 C 0.48807 0.41692 0.27377 0.0
C437 C 0.46483 0.36491 0.31588 0.0
C438 C 0.47828 0.41518 0.14817 0.0
C439 C 0.4633 0.38729 0.10467 0.0
H440 H 0.28881 0.59187 0.39373 0.0
H441 H 0.26743 0.58517 1.00055 0.0
H442 H 0.22167 0.62186 0.0283 0.0
H443 H 0.18127 0.64334 0.17545 0.0
H444 H 0.2017 0.64229 0.57289 0.0
H445 H 0.2559 0.62499 0.53044 0.0
C446 C 0.27533 0.59993 0.31277 0.0
C447 C 0.28094 0.5856 0.19586 0.0
C448 C 0.24879 0.61998 0.33062 0.0
C449 C 0.263 0.59568 0.09178 0.0
C450 C 0.23687 0.61653 0.10794 0.0
C451 C 0.19769 0.63979 0.25288 0.0
C452 C 0.18632 0.64197 0.37762 0.0
C453 C 0.22829 0.62689 0.2289 0.0
C454 C 0.20884 0.63992 0.47568 0.0
C455 C 0.24004 0.6294 0.45186 0.0
H456 H 0.11996 0.81071 0.61701 0.0
H457 H 0.10693 0.78044 0.23467 0.0
H458 H 0.13342 0.82852 0.15836 0.0
H459 H 0.14538 0.88403 0.19718 0.0
H460 H 0.15001 0.91965 0.57622 0.0
H461 H 0.1416 0.86516 0.65717 0.0
C462 C 0.12384 0.81446 0.5174 0.0
C463 C 0.11151 0.79212 0.43171 0.0
C464 C 0.13672 0.84365 0.47354 0.0
C465 C 0.11677 0.79687 0.3027 0.0
C466 C 0.13145 0.82473 0.25879 0.0
C467 C 0.14617 0.87992 0.29761 0.0
C468 C 0.14746 0.90608 0.38034 0.0
C469 C 0.13955 0.84907 0.34294 0.0
C470 C 0.14831 0.89998 0.51031 0.0
C471 C 0.1433 0.86885 0.55666 0.0
H472 H 0.77065 0.09958 0.20799 0.0
H473 H 0.75862 0.10164 0.60842 0.0
H474 H 0.70697 0.12961 0.58507 0.0
H475 H 0.66062 0.14047 0.44721 0.0
H476 H 0.67366 0.13489 0.04535 0.0
H477 H 0.73029 0.1239 0.07246 0.0
C478 C 0.75757 0.10783 0.29011 0.0
C479 C 0.76764 0.09795 0.40941 0.0
C480 C 0.72791 0.1232 0.27526 0.0
C481 C 0.75062 0.10843 0.5156 0.0
C482 C 0.72113 0.12428 0.50202 0.0
C483 C 0.67607 0.13779 0.36557 0.0
C484 C 0.66249 0.1374 0.24478 0.0
C485 C 0.7086 0.12974 0.38174 0.0
C486 C 0.68308 0.1351 0.13978 0.0
C487 C 0.7156 0.1283 0.15502 0.0
H488 H 0.46643 0.74312 0.60599 0.0
H489 H 0.46475 0.76943 0.2151 0.0
H490 H 0.43339 0.72206 0.16682 0.0
H491 H 0.42488 0.66674 0.22096 0.0
H492 H 0.43756 0.63404 0.6021 0.0
H493 H 0.44639 0.68942 0.66948 0.0
C494 C 0.45859 0.73852 0.51109 0.0
C495 C 0.46865 0.759 0.41375 0.0
C496 C 0.44345 0.7094 0.48188 0.0
C497 C 0.4573 0.7539 0.29162 0.0
C498 C 0.43975 0.72653 0.26366 0.0
C499 C 0.42791 0.67161 0.32 0.0
C500 C 0.43207 0.64616 0.4053 0.0
C501 C 0.43527 0.70294 0.3559 0.0
C502 C 0.43545 0.65324 0.53361 0.0
C503 C 0.44073 0.68489 0.57205 0.0
H504 H 0.858 0.4781 0.45913 0.0
H505 H 0.77653 0.4208 0.34751 0.0
H506 H 0.81368 0.3808 0.2621 0.0
H507 H 0.8704 0.37285 0.17701 0.0
H508 H 0.94743 0.41797 0.37915 0.0
H509 H 0.90905 0.45091 0.49279 0.0
C510 C 0.84679 0.45655 0.42748 0.0
C511 C 0.81375 0.45492 0.39888 0.0
C512 C 0.86752 0.4311 0.39885 0.0
C513 C 0.80202 0.42499 0.35652 0.0
C514 C 0.82318 0.40144 0.31126 0.0
C515 C 0.87871 0.38789 0.25302 0.0
C516 C 0.91158 0.39553 0.26161 0.0
C517 C 0.85635 0.40563 0.32428 0.0
C518 C 0.92204 0.41315 0.36617 0.0
C519 C 0.90016 0.43267 0.42946 0.0
H520 H 1.02624 0.24811 0.97302 0.0
H521 H 0.03347 0.21727 0.35706 0.0
H522 H 0.03829 0.16099 0.28959 0.0
H523 H 0.03912 0.12027 0.12084 0.0
H524 H 1.02969 0.15091 0.73569 0.0
H525 H 1.02698 0.20706 0.80312 0.0
C526 C 1.02938 0.229 0.04132 0.0
C527 C 1.03005 0.23686 0.17001 0.0
C528 C 0.03146 0.19654 1.00135 0.0
C529 C 0.03352 0.21185 0.25781 0.0
C530 C 0.036 0.17967 0.21901 0.0
C531 C 0.03651 0.13915 0.05124 0.0
C532 C 0.03468 0.13095 0.92262 0.0
C533 C 0.03478 0.17163 0.09098 0.0
C534 C 1.0312 0.15612 0.83492 0.0
C535 C 1.02969 0.18841 0.87359 0.0
H536 H 0.31432 0.06424 0.87791 0.0
H537 H 0.32194 1.00494 0.20759 0.0
H538 H 0.37641 0.98874 0.14469 0.0
H539 H 0.42585 0.99945 0.01596 0.0
H540 H 0.41836 0.05917 0.68643 0.0
H541 H 0.36118 0.06839 0.7313 0.0
C542 C 0.32787 0.04738 0.9347 0.0
C543 C 0.31407 0.0359 0.04791 0.0
C544 C 0.36007 0.0396 0.90109 0.0
C545 C 0.33192 1.0141 0.1205 0.0
C546 C 0.36345 1.0055 0.08584 0.0
C547 C 0.41162 1.0143 0.95363 0.0
C548 C 0.42677 1.02913 0.84917 0.0
C549 C 0.37842 1.01932 0.97976 0.0
C550 C 0.40762 0.04762 0.76774 0.0
C551 C 0.37481 0.05296 0.79365 0.0
H552 H 0.54106 0.32234 0.18896 0.0
H553 H 0.4945 0.28824 0.85671 0.0
H554 H 0.5034 0.34042 0.75295 0.0
H555 H 0.51891 0.3986 0.76689 0.0
H556 H 0.56647 0.43135 0.10098 0.0
H557 H 0.5638 0.37737 0.1905 0.0
C558 C 0.534 0.32601 0.09225 0.0
C559 C 0.51742 0.30121 0.03022 0.0
C560 C 0.53899 0.35634 0.03359 0.0
C561 C 0.50774 0.30668 0.90568 0.0
C562 C 0.51251 0.33675 0.84694 0.0
C563 C 0.52913 0.39381 0.85838 0.0
C564 C 0.54228 0.41957 0.92775 0.0
C565 C 0.52725 0.36225 0.91121 0.0
C566 C 0.55555 0.41248 0.04604 0.0
C567 C 0.55404 0.38146 0.09786 0.0
H568 H 0.22704 0.53476 0.28728 0.0
H569 H 0.27364 0.51115 0.93884 0.0
H570 H 0.2215 0.51137 0.83125 0.0
H571 H 0.16208 0.52018 0.83507 0.0
H572 H 0.11568 0.54064 0.18848 0.0
H573 H 0.16756 0.54039 0.29389 0.0
C574 C 0.22553 0.52892 0.1885 0.0
C575 C 0.25411 0.52232 0.12139 0.0
C576 C 0.19534 0.52923 0.12732 0.0
C577 C 0.25193 0.51559 0.9927 0.0
C578 C 0.22211 0.5161 0.93106 0.0
C579 C 0.16335 0.52464 0.93501 0.0
C580 C 0.13469 0.53091 1.0029 0.0
C581 C 0.19356 0.52327 0.99689 0.0
C582 C 0.13708 0.53609 0.13304 0.0
C583 C 0.16688 0.53575 0.19397 0.0
H584 H 0.04961 0.83183 0.40286 0.0
H585 H 0.05484 0.78945 0.77017 0.0
H586 H 0.05063 0.84302 0.86659 0.0
H587 H 0.04785 0.90304 0.84498 0.0
H588 H 0.04126 0.94381 0.4728 0.0
H589 H 0.04426 0.89067 0.38133 0.0
C590 C 0.04911 0.8344 0.50401 0.0
C591 C 0.05206 0.80668 0.57941 0.0
C592 C 0.04713 0.86535 0.55836 0.0
C593 C 0.05202 0.81037 0.71042 0.0
C594 C 0.04997 0.84108 0.76532 0.0
C595 C 0.047 0.9003 0.74401 0.0
C596 C 0.04475 0.92802 0.6669 0.0
C597 C 0.04795 0.86897 0.69029 0.0
C598 C 0.04334 0.92346 0.53588 0.0
C599 C 0.04489 0.89282 0.48258 0.0
H600 H 0.75263 0.04398 0.66462 0.0
H601 H 0.7301 1.02167 0.28174 0.0
H602 H 0.6731 1.01531 0.33825 0.0
H603 H 0.62928 1.01841 0.49495 0.0
H604 H 0.65108 0.04366 0.87726 0.0
H605 H 0.70835 0.04711 0.82291 0.0
C606 C 0.73517 0.03732 0.59432 0.0
C607 C 0.74563 0.03287 0.46925 0.0
C608 C 0.7022 0.03471 0.62736 0.0
C609 C 0.72277 1.02458 0.37866 0.0
C610 C 0.69013 1.02132 0.41099 0.0
C611 C 0.64647 1.02451 0.56706 0.0
C612 C 0.63552 1.03058 0.69086 0.0
C613 C 0.67948 1.02666 0.53478 0.0
C614 C 0.65849 0.03878 0.78164 0.0
C615 C 0.69138 0.0407 0.75049 0.0
H616 H 0.52302 0.7428 0.67679 0.0
H617 H 0.54392 0.71893 0.29304 0.0
H618 H 0.55041 0.66198 0.35148 0.0
H619 H 0.54821 0.61839 0.51183 0.0
H620 H 0.52359 0.64231 0.89405 0.0
H621 H 0.52008 0.69917 0.83661 0.0
C622 C 0.52937 0.72508 0.60654 0.0
C623 C 0.53332 0.73518 0.48072 0.0
C624 C 0.53202 0.69216 0.6407 0.0
C625 C 0.54124 0.7119 0.39044 0.0
C626 C 0.54464 0.67928 0.42397 0.0
C627 C 0.54224 0.636 0.58303 0.0
C628 C 0.53638 0.62561 0.70801 0.0
C629 C 0.53981 0.66899 0.54878 0.0
C630 C 0.5283 0.64915 0.79755 0.0
C631 C 0.52633 0.68188 0.76468 0.0
H632 H 0.84276 0.55073 0.42172 0.0
H633 H 0.80816 0.48431 0.70122 0.0
H634 H 0.85942 0.48831 0.8144 0.0
H635 H 0.91663 0.50605 0.81945 0.0
H636 H 0.95202 0.56844 0.52533 0.0
H637 H 0.89863 0.57049 0.43227 0.0
C638 C 0.84622 0.53803 0.50961 0.0
C639 C 0.82172 0.51741 0.55375 0.0
C640 C 0.87639 0.5391 0.56992 0.0
C641 C 0.82659 0.50046 0.66638 0.0
C642 C 0.85608 0.50247 0.72991 0.0
C643 C 0.91256 0.52037 0.73583 0.0
C644 C 0.93861 0.537 0.67963 0.0
C645 C 0.88161 0.52089 0.68041 0.0
C646 C 0.93272 0.55519 0.57048 0.0
C647 C 0.90204 0.5565 0.51718 0.0
loop_
_geom_bond_atom_site_label_1
_geom_bond_atom_site_label_2
_geom_bond_distance
_geom_bond_site_symmetry_2
_ccdc_geom_bond_type
C0 N1 1.317 . S
C0 N2 1.348 . S
C0 C3 1.485 . S
N1 C0 1.317 . S
N1 N5 1.370 . S
N2 C0 1.348 . S
N2 C4 1.346 . S
C3 C0 1.485 . S
C3 H7 0.960 . S
C3 H8 0.961 . S
C3 H9 0.960 . S
C4 N2 1.346 . S
C4 N5 1.307 . S
C4 C6 1.486 . S
N5 N1 1.370 . S
N5 C4 1.307 . S
C6 C4 1.486 . S
C6 H10 0.960 . S
C6 H11 0.960 . S
C6 H12 0.959 . S
H7 C3 0.960 . S
H8 C3 0.961 . S
H9 C3 0.960 . S
H10 C6 0.960 . S
H11 C6 0.960 . S
H12 C6 0.959 . S
C13 N14 1.317 . S
C13 N15 1.350 . S
C13 C16 1.485 . S
N14 C13 1.317 . S
N14 N18 1.371 . S
N15 C13 1.350 . S
N15 C17 1.345 1_655 S
C16 C13 1.485 . S
C16 H20 0.960 1_655 S
C16 H21 0.961 . S
C16 H22 0.960 . S
C17 N15 1.345 1_455 S
C17 N18 1.307 1_455 S
C17 C19 1.486 . S
N18 N14 1.371 . S
N18 C17 1.307 1_655 S
C19 C17 1.486 . S
C19 H23 0.960 1_455 S
C19 H24 0.960 . S
C19 H25 0.959 . S
H20 C16 0.960 1_455 S
H21 C16 0.961 . S
H22 C16 0.960 . S
H23 C19 0.960 1_655 S
H24 C19 0.960 . S
H25 C19 0.959 . S
C26 N27 1.317 . S
C26 N28 1.350 . S
C26 C29 1.485 . S
N27 C26 1.317 . S
N27 N31 1.371 . S
N28 C26 1.350 . S
N28 C30 1.346 1_565 S
C29 C26 1.485 . S
C29 H33 0.960 1_565 S
C29 H34 0.961 . S
C29 H35 0.960 . S
C30 N28 1.346 1_545 S
C30 N31 1.307 1_545 S
C30 C32 1.486 . S
N31 N27 1.371 . S
N31 C30 1.307 1_565 S
C32 C30 1.486 . S
C32 H36 0.960 1_545 S
C32 H37 0.960 . S
C32 H38 0.959 . S
H33 C29 0.960 1_545 S
H34 C29 0.961 . S
H35 C29 0.960 . S
H36 C32 0.960 1_565 S
H37 C32 0.960 . S
H38 C32 0.959 . S
C39 N40 1.317 . S
C39 N41 1.348 . S
C39 C42 1.485 . S
N40 C39 1.317 . S
N40 N44 1.370 . S
N41 C39 1.348 . S
N41 C43 1.346 . S
C42 C39 1.485 . S
C42 H46 0.960 . S
C42 H47 0.961 . S
C42 H48 0.960 . S
C43 N41 1.346 . S
C43 N44 1.307 . S
C43 C45 1.486 . S
N44 N40 1.370 . S
N44 C43 1.307 . S
C45 C43 1.486 . S
C45 H49 0.960 . S
C45 H50 0.960 . S
C45 H51 0.959 . S
H46 C42 0.960 . S
H47 C42 0.961 . S
H48 C42 0.960 . S
H49 C45 0.960 . S
H50 C45 0.960 . S
H51 C45 0.959 . S
C52 N53 1.317 . S
C52 N54 1.348 1_556 S
C52 C55 1.485 . S
N53 C52 1.317 . S
N53 N57 1.370 1_556 S
N54 C52 1.348 1_554 S
N54 C56 1.346 . S
C55 C52 1.485 . S
C55 H59 0.960 . S
C55 H60 0.961 . S
C55 H61 0.960 . S
C56 N54 1.346 . S
C56 N57 1.307 . S
C56 C58 1.486 . S
N57 N53 1.370 1_554 S
N57 C56 1.307 . S
C58 C56 1.486 . S
C58 H62 0.960 . S
C58 H63 0.960 . S
C58 H64 0.959 . S
H59 C55 0.960 . S
H60 C55 0.961 . S
H61 C55 0.960 . S
H62 C58 0.960 . S
H63 C58 0.960 . S
H64 C58 0.959 . S
C65 N66 1.317 . S
C65 N67 1.350 1_556 S
C65 C68 1.485 . S
N66 C65 1.317 . S
N66 N70 1.370 1_556 S
N67 C65 1.350 1_554 S
N67 C69 1.345 1_655 S
C68 C65 1.485 . S
C68 H72 0.960 1_655 S
C68 H73 0.961 . S
C68 H74 0.960 . S
C69 N67 1.345 1_455 S
C69 N70 1.307 1_455 S
C69 C71 1.486 . S
N70 N66 1.370 1_554 S
N70 C69 1.307 1_655 S
C71 C69 1.486 . S
C71 H75 0.960 1_455 S
C71 H76 0.960 . S
C71 H77 0.959 . S
H72 C68 0.960 1_455 S
H73 C68 0.961 . S
H74 C68 0.960 . S
H75 C71 0.960 1_655 S
H76 C71 0.960 . S
H77 C71 0.959 . S
C78 N79 1.317 . S
C78 N80 1.350 1_556 S
C78 C81 1.485 . S
N79 C78 1.317 . S
N79 N83 1.371 1_556 S
N80 C78 1.350 1_554 S
N80 C82 1.345 1_565 S
C81 C78 1.485 . S
C81 H85 0.960 1_565 S
C81 H86 0.961 . S
C81 H87 0.960 . S
C82 N80 1.345 1_545 S
C82 N83 1.307 1_545 S
C82 C84 1.487 . S
N83 N79 1.371 1_554 S
N83 C82 1.307 1_565 S
C84 C82 1.487 . S
C84 H88 0.960 1_545 S
C84 H89 0.960 . S
C84 H90 0.959 . S
H85 C81 0.960 1_545 S
H86 C81 0.961 . S
H87 C81 0.960 . S
H88 C84 0.960 1_565 S
H89 C84 0.960 . S
H90 C84 0.959 . S
C91 N92 1.317 . S
C91 N93 1.348 1_556 S
C91 C94 1.485 . S
N92 C91 1.317 . S
N92 N96 1.370 1_556 S
N93 C91 1.348 1_554 S
N93 C95 1.346 . S
C94 C91 1.485 . S
C94 H98 0.960 . S
C94 H99 0.961 . S
C94 H100 0.960 . S
C95 N93 1.346 . S
C95 N96 1.307 . S
C95 C97 1.486 . S
N96 N92 1.370 1_554 S
N96 C95 1.307 . S
C97 C95 1.486 . S
C97 H101 0.960 . S
C97 H102 0.960 . S
C97 H103 0.959 . S
H98 C94 0.960 . S
H99 C94 0.961 . S
H100 C94 0.960 . S
H101 C97 0.960 . S
H102 C97 0.960 . S
H103 C97 0.959 . S
Sm104 C106 2.846 1_556 S
Sm104 O124 2.543 1_556 S
Sm104 O125 2.450 1_556 S
Sm104 O126 2.681 1_565 S
Sm104 O127 2.464 . S
Sm104 O128 2.396 . S
Sm104 O132 2.386 1_455 S
Sm104 O135 2.408 1_565 S
Sm105 C115 2.846 . S
Sm105 O126 2.386 1_655 S
Sm105 O129 2.408 1_545 S
Sm105 O130 2.543 . S
Sm105 O131 2.450 . S
Sm105 O132 2.681 1_545 S
Sm105 O133 2.464 . S
Sm105 O134 2.396 . S
C106 Sm104 2.846 1_554 S
C106 C107 1.506 . S
C106 O124 1.261 . S
C106 O125 1.242 . S
C107 C106 1.506 . S
C107 C108 1.358 . S
C107 C112 1.382 . S
C108 C107 1.358 . S
C108 C109 1.385 . S
C108 H136 0.930 1_455 S
C109 C108 1.385 . S
C109 C110 1.395 . S
C109 H137 0.916 1_455 S
C110 C109 1.395 . S
C110 C111 1.335 . S
C111 C110 1.335 . S
C111 C112 1.398 . S
C111 H138 0.930 . S
C112 C107 1.382 . S
C112 C111 1.398 . S
C112 H139 0.929 . S
C113 O126 1.271 1_565 S
C113 O127 1.251 . S
C114 O128 1.252 1_655 S
C114 O129 1.272 . S
C115 Sm105 2.846 . S
C115 C116 1.506 . S
C115 O130 1.261 . S
C115 O131 1.242 . S
C116 C115 1.506 . S
C116 C117 1.358 . S
C116 C121 1.382 . S
C117 C116 1.358 . S
C117 C118 1.385 . S
C117 H140 0.930 1_655 S
C118 C117 1.385 . S
C118 C119 1.395 . S
C118 H141 0.909 1_655 S
C119 C118 1.395 . S
C119 C120 1.335 . S
C120 C119 1.335 . S
C120 C121 1.398 . S
C120 H142 0.930 . S
C121 C116 1.382 . S
C121 C120 1.398 . S
C121 H143 0.929 . S
C122 O132 1.271 1_545 S
C122 O133 1.251 . S
C123 O134 1.252 1_455 S
C123 O135 1.272 . S
O124 Sm104 2.543 1_554 S
O124 C106 1.261 . S
O125 Sm104 2.450 1_554 S
O125 C106 1.242 . S
O126 Sm104 2.681 1_545 S
O126 Sm105 2.386 1_455 S
O126 C113 1.271 1_545 S
O127 Sm104 2.464 . S
O127 C113 1.251 . S
O128 Sm104 2.396 . S
O128 C114 1.252 1_455 S
O129 Sm105 2.408 1_565 S
O129 C114 1.272 . S
O130 Sm105 2.543 . S
O130 C115 1.261 . S
O131 Sm105 2.450 . S
O131 C115 1.242 . S
O132 Sm104 2.386 1_655 S
O132 Sm105 2.681 1_565 S
O132 C122 1.271 1_565 S
O133 Sm105 2.464 . S
O133 C122 1.251 . S
O134 Sm105 2.396 . S
O134 C123 1.252 1_655 S
O135 Sm104 2.408 1_545 S
O135 C123 1.272 . S
H136 C108 0.930 1_655 S
H137 C109 0.916 1_655 S
H138 C111 0.930 . S
H139 C112 0.929 . S
H140 C117 0.930 1_455 S
H141 C118 0.909 1_455 S
H142 C120 0.930 . S
H143 C121 0.929 . S
Sm144 C146 2.846 1_556 S
Sm144 O164 2.543 1_556 S
Sm144 O165 2.450 1_556 S
Sm144 O166 2.681 . S
Sm144 O167 2.464 . S
Sm144 O168 2.396 . S
Sm144 O172 2.386 1_545 S
Sm144 O175 2.408 . S
Sm145 C155 2.846 . S
Sm145 O166 2.386 1_565 S
Sm145 O169 2.408 . S
Sm145 O170 2.543 . S
Sm145 O171 2.450 . S
Sm145 O172 2.681 . S
Sm145 O173 2.464 . S
Sm145 O174 2.396 . S
C146 Sm144 2.846 1_554 S
C146 C147 1.506 . S
C146 O164 1.261 . S
C146 O165 1.242 . S
C147 C146 1.506 . S
C147 C148 1.358 . S
C147 C152 1.382 . S
C148 C147 1.358 . S
C148 C149 1.385 . S
C148 H176 0.930 1_545 S
C149 C148 1.385 . S
C149 C150 1.395 . S
C149 H177 0.929 1_545 S
C150 C149 1.395 . S
C150 C151 1.335 . S
C151 C150 1.335 . S
C151 C152 1.398 . S
C151 H178 0.930 . S
C152 C147 1.382 . S
C152 C151 1.398 . S
C152 H179 0.929 . S
C153 O166 1.271 . S
C153 O167 1.251 . S
C154 O168 1.252 1_565 S
C154 O169 1.272 . S
C155 Sm145 2.846 . S
C155 C156 1.506 . S
C155 O170 1.261 . S
C155 O171 1.242 . S
C156 C155 1.506 . S
C156 C157 1.358 . S
C156 C161 1.382 . S
C157 C156 1.358 . S
C157 C158 1.385 . S
C157 H180 0.930 1_565 S
C158 C157 1.385 . S
C158 C159 1.395 . S
C158 H181 0.929 1_565 S
C159 C158 1.395 . S
C159 C160 1.335 . S
C160 C159 1.335 . S
C160 C161 1.398 . S
C160 H182 0.930 . S
C161 C156 1.382 . S
C161 C160 1.398 . S
C161 H183 0.929 . S
C162 O172 1.271 . S
C162 O173 1.251 . S
C163 O174 1.252 1_545 S
C163 O175 1.272 . S
O164 Sm144 2.543 1_554 S
O164 C146 1.261 . S
O165 Sm144 2.450 1_554 S
O165 C146 1.242 . S
O166 Sm144 2.681 . S
O166 Sm145 2.386 1_545 S
O166 C153 1.271 . S
O167 Sm144 2.464 . S
O167 C153 1.251 . S
O168 Sm144 2.396 . S
O168 C154 1.252 1_545 S
O169 Sm145 2.408 . S
O169 C154 1.272 . S
O170 Sm145 2.543 . S
O170 C155 1.261 . S
O171 Sm145 2.450 . S
O171 C155 1.242 . S
O172 Sm144 2.386 1_565 S
O172 Sm145 2.681 . S
O172 C162 1.271 . S
O173 Sm145 2.464 . S
O173 C162 1.251 . S
O174 Sm145 2.396 . S
O174 C163 1.252 1_565 S
O175 Sm144 2.408 . S
O175 C163 1.272 . S
H176 C148 0.930 1_565 S
H177 C149 0.929 1_565 S
H178 C151 0.930 . S
H179 C152 0.929 . S
H180 C157 0.930 1_545 S
H181 C158 0.929 1_545 S
H182 C160 0.930 . S
H183 C161 0.929 . S
Sm184 C186 2.846 1_556 S
Sm184 O204 2.543 1_556 S
Sm184 O205 2.450 1_556 S
Sm184 O206 2.681 . S
Sm184 O207 2.464 . S
Sm184 O208 2.396 . S
Sm184 O212 2.386 . S
Sm184 O215 2.408 . S
Sm185 C195 2.846 . S
Sm185 O206 2.386 . S
Sm185 O209 2.408 . S
Sm185 O210 2.543 . S
Sm185 O211 2.450 . S
Sm185 O212 2.681 . S
Sm185 O213 2.464 . S
Sm185 O214 2.396 . S
C186 Sm184 2.846 1_554 S
C186 C187 1.506 . S
C186 O204 1.261 . S
C186 O205 1.242 . S
C187 C186 1.506 . S
C187 C188 1.358 . S
C187 C192 1.382 . S
C188 C187 1.358 . S
C188 C189 1.385 . S
C188 H216 0.930 . S
C189 C188 1.385 . S
C189 C190 1.395 . S
C189 H217 0.929 . S
C190 C189 1.395 . S
C190 C191 1.335 . S
C191 C190 1.335 . S
C191 C192 1.398 . S
C191 H218 0.930 . S
C192 C187 1.382 . S
C192 C191 1.398 . S
C192 H219 0.929 . S
C193 O206 1.271 . S
C193 O207 1.251 . S
C194 O208 1.252 . S
C194 O209 1.272 . S
C195 Sm185 2.846 . S
C195 C196 1.506 . S
C195 O210 1.261 . S
C195 O211 1.242 . S
C196 C195 1.506 . S
C196 C197 1.358 . S
C196 C201 1.382 . S
C197 C196 1.358 . S
C197 C198 1.385 . S
C197 H220 0.930 . S
C198 C197 1.385 . S
C198 C199 1.395 . S
C198 H221 0.929 . S
C199 C198 1.395 . S
C199 C200 1.335 . S
C200 C199 1.335 . S
C200 C201 1.398 . S
C200 H222 0.930 . S
C201 C196 1.382 . S
C201 C200 1.398 . S
C201 H223 0.929 . S
C202 O212 1.271 . S
C202 O213 1.251 . S
C203 O214 1.252 . S
C203 O215 1.272 . S
O204 Sm184 2.543 1_554 S
O204 C186 1.261 . S
O205 Sm184 2.450 1_554 S
O205 C186 1.242 . S
O206 Sm184 2.681 . S
O206 Sm185 2.386 . S
O206 C193 1.271 . S
O207 Sm184 2.464 . S
O207 C193 1.251 . S
O208 Sm184 2.396 . S
O208 C194 1.252 . S
O209 Sm185 2.408 . S
O209 C194 1.272 . S
O210 Sm185 2.543 . S
O210 C195 1.261 . S
O211 Sm185 2.450 . S
O211 C195 1.242 . S
O212 Sm184 2.386 . S
O212 Sm185 2.681 . S
O212 C202 1.271 . S
O213 Sm185 2.464 . S
O213 C202 1.251 . S
O214 Sm185 2.396 . S
O214 C203 1.252 . S
O215 Sm184 2.408 . S
O215 C203 1.272 . S
H216 C188 0.930 . S
H217 C189 0.929 . S
H218 C191 0.930 . S
H219 C192 0.929 . S
H220 C197 0.930 . S
H221 C198 0.929 . S
H222 C200 0.930 . S
H223 C201 0.929 . S
Sm224 C226 2.846 1_556 S
Sm224 O244 2.543 1_556 S
Sm224 O245 2.450 1_556 S
Sm224 O246 2.681 1_655 S
Sm224 O247 2.464 . S
Sm224 O248 2.396 . S
Sm224 O252 2.386 . S
Sm224 O255 2.408 1_655 S
Sm225 C235 2.846 . S
Sm225 O246 2.386 . S
Sm225 O249 2.408 1_455 S
Sm225 O250 2.543 . S
Sm225 O251 2.450 . S
Sm225 O252 2.681 1_455 S
Sm225 O253 2.464 . S
Sm225 O254 2.396 . S
C226 Sm224 2.846 1_554 S
C226 C227 1.506 . S
C226 O244 1.261 . S
C226 O245 1.242 . S
C227 C226 1.506 . S
C227 C228 1.358 . S
C227 C232 1.382 . S
C228 C227 1.358 . S
C228 C229 1.385 . S
C228 H256 0.930 . S
C229 C228 1.385 . S
C229 C230 1.395 . S
C229 H257 0.929 . S
C230 C229 1.395 . S
C230 C231 1.335 . S
C231 C230 1.335 . S
C231 C232 1.398 . S
C231 H258 0.930 . S
C232 C227 1.382 . S
C232 C231 1.398 . S
C232 H259 0.929 . S
C233 O246 1.264 1_655 S
C233 O247 1.264 . S
C234 O248 1.252 . S
C234 O249 1.272 . S
C235 Sm225 2.846 . S
C235 C236 1.506 . S
C235 O250 1.261 . S
C235 O251 1.242 . S
C236 C235 1.506 . S
C236 C237 1.358 . S
C236 C241 1.382 . S
C237 C236 1.358 . S
C237 C238 1.385 . S
C237 H260 0.930 . S
C238 C237 1.385 . S
C238 C239 1.395 . S
C238 H261 0.929 . S
C239 C238 1.395 . S
C239 C240 1.335 . S
C240 C239 1.335 . S
C240 C241 1.398 . S
C240 H262 0.930 . S
C241 C236 1.382 . S
C241 C240 1.398 . S
C241 H263 0.929 . S
C242 O252 1.261 1_455 S
C242 O253 1.268 . S
C243 O254 1.252 . S
C243 O255 1.272 . S
O244 Sm224 2.543 1_554 S
O244 C226 1.261 . S
O245 Sm224 2.450 1_554 S
O245 C226 1.242 . S
O246 Sm224 2.681 1_455 S
O246 Sm225 2.386 . S
O246 C233 1.264 1_455 S
O247 Sm224 2.464 . S
O247 C233 1.264 . S
O248 Sm224 2.396 . S
O248 C234 1.252 . S
O249 Sm225 2.408 1_655 S
O249 C234 1.272 . S
O250 Sm225 2.543 . S
O250 C235 1.261 . S
O251 Sm225 2.450 . S
O251 C235 1.242 . S
O252 Sm224 2.386 . S
O252 Sm225 2.681 1_655 S
O252 C242 1.261 1_655 S
O253 Sm225 2.464 . S
O253 C242 1.268 . S
O254 Sm225 2.396 . S
O254 C243 1.252 . S
O255 Sm224 2.408 1_455 S
O255 C243 1.272 . S
H256 C228 0.930 . S
H257 C229 0.929 . S
H258 C231 0.930 . S
H259 C232 0.929 . S
H260 C237 0.930 . S
H261 C238 0.929 . S
H262 C240 0.930 . S
H263 C241 0.929 . S
H264 C270 0.930 . S
H265 C273 0.930 . S
H266 C274 0.930 . S
H267 C275 0.930 . S
H268 C278 0.930 . S
H269 C279 0.930 . S
C270 H264 0.930 . S
C270 C271 1.355 1_565 S
C270 C272 1.415 . S
C271 C270 1.355 1_545 S
C271 C273 1.419 . S
C272 C270 1.415 . S
C272 C277 1.425 1_565 S
C272 C279 1.409 . S
C273 H265 0.930 . S
C273 C271 1.419 . S
C273 C274 1.362 . S
C274 H266 0.930 . S
C274 C273 1.362 . S
C274 C277 1.409 . S
C275 H267 0.930 . S
C275 C276 1.355 1_545 S
C275 C277 1.415 . S
C276 C275 1.355 1_565 S
C276 C278 1.419 . S
C277 C272 1.425 1_545 S
C277 C274 1.409 . S
C277 C275 1.415 . S
C278 H268 0.930 . S
C278 C276 1.419 . S
C278 C279 1.362 . S
C279 H269 0.930 . S
C279 C272 1.409 . S
C279 C278 1.362 . S
H280 C286 0.930 . S
H281 C289 0.930 . S
H282 C290 0.930 . S
H283 C291 0.930 . S
H284 C294 0.930 . S
H285 C295 0.930 . S
C286 H280 0.930 . S
C286 C287 1.355 . S
C286 C288 1.415 . S
C287 C286 1.355 . S
C287 C289 1.419 . S
C288 C286 1.415 . S
C288 C293 1.425 . S
C288 C295 1.409 . S
C289 H281 0.930 . S
C289 C287 1.419 . S
C289 C290 1.362 . S
C290 H282 0.930 . S
C290 C289 1.362 . S
C290 C293 1.409 . S
C291 H283 0.930 . S
C291 C292 1.355 . S
C291 C293 1.415 . S
C292 C291 1.355 . S
C292 C294 1.419 . S
C293 C288 1.425 . S
C293 C290 1.409 . S
C293 C291 1.415 . S
C294 H284 0.930 . S
C294 C292 1.419 . S
C294 C295 1.362 . S
C295 H285 0.930 . S
C295 C288 1.409 . S
C295 C294 1.362 . S
H296 C302 0.930 . S
H297 C305 0.930 . S
H298 C306 0.930 . S
H299 C307 0.930 . S
H300 C310 0.930 . S
H301 C311 0.930 . S
C302 H296 0.930 . S
C302 C303 1.355 . S
C302 C304 1.415 . S
C303 C302 1.355 . S
C303 C305 1.419 . S
C304 C302 1.415 . S
C304 C309 1.425 . S
C304 C311 1.409 . S
C305 H297 0.930 . S
C305 C303 1.419 . S
C305 C306 1.362 . S
C306 H298 0.930 . S
C306 C305 1.362 . S
C306 C309 1.409 . S
C307 H299 0.930 . S
C307 C308 1.355 . S
C307 C309 1.415 . S
C308 C307 1.355 . S
C308 C310 1.419 . S
C309 C304 1.425 . S
C309 C306 1.409 . S
C309 C307 1.415 . S
C310 H300 0.930 . S
C310 C308 1.419 . S
C310 C311 1.362 . S
C311 H301 0.930 . S
C311 C304 1.409 . S
C311 C310 1.362 . S
H312 C318 0.930 . S
H313 C321 0.930 . S
H314 C322 0.930 . S
H315 C323 0.930 . S
H316 C326 0.930 . S
H317 C327 0.930 . S
C318 H312 0.930 . S
C318 C319 1.355 1_655 S
C318 C320 1.415 . S
C319 C318 1.355 1_455 S
C319 C321 1.419 . S
C320 C318 1.415 . S
C320 C325 1.425 1_655 S
C320 C327 1.409 . S
C321 H313 0.930 . S
C321 C319 1.419 . S
C321 C322 1.362 . S
C322 H314 0.930 . S
C322 C321 1.362 . S
C322 C325 1.409 . S
C323 H315 0.930 . S
C323 C324 1.346 1_455 S
C323 C325 1.415 . S
C324 C323 1.346 1_655 S
C324 C326 1.431 . S
C325 C320 1.425 1_455 S
C325 C322 1.409 . S
C325 C323 1.415 . S
C326 H316 0.930 . S
C326 C324 1.431 . S
C326 C327 1.362 . S
C327 H317 0.930 . S
C327 C320 1.409 . S
C327 C326 1.362 . S
H328 C334 0.930 . S
H329 C337 0.931 . S
H330 C338 0.930 . S
H331 C339 0.930 1_556 S
H332 C342 0.929 . S
H333 C343 0.930 . S
C334 H328 0.930 . S
C334 C335 1.356 . S
C334 C336 1.416 . S
C335 C334 1.356 . S
C335 C337 1.417 1_545 S
C336 C334 1.416 . S
C336 C341 1.423 1_545 S
C336 C343 1.409 . S
C337 H329 0.931 . S
C337 C335 1.417 1_565 S
C337 C338 1.363 . S
C338 H330 0.930 . S
C338 C337 1.363 . S
C338 C341 1.410 . S
C339 H331 0.930 1_554 S
C339 C340 1.355 . S
C339 C341 1.417 . S
C340 C339 1.355 . S
C340 C342 1.419 1_565 S
C341 C336 1.423 1_565 S
C341 C338 1.410 . S
C341 C339 1.417 . S
C342 H332 0.929 . S
C342 C340 1.419 1_545 S
C342 C343 1.362 . S
C343 H333 0.930 . S
C343 C336 1.409 . S
C343 C342 1.362 . S
H344 C350 0.930 . S
H345 C353 0.930 . S
H346 C354 0.930 . S
H347 C355 0.930 . S
H348 C358 0.930 . S
H349 C359 0.930 . S
C350 H344 0.930 . S
C350 C351 1.355 . S
C350 C352 1.415 . S
C351 C350 1.355 . S
C351 C353 1.419 . S
C352 C350 1.415 . S
C352 C357 1.425 . S
C352 C359 1.409 . S
C353 H345 0.930 . S
C353 C351 1.419 . S
C353 C354 1.362 . S
C354 H346 0.930 . S
C354 C353 1.362 . S
C354 C357 1.409 . S
C355 H347 0.930 . S
C355 C356 1.355 . S
C355 C357 1.415 . S
C356 C355 1.355 . S
C356 C358 1.419 . S
C357 C352 1.425 . S
C357 C354 1.409 . S
C357 C355 1.415 . S
C358 H348 0.930 . S
C358 C356 1.419 . S
C358 C359 1.362 . S
C359 H349 0.930 . S
C359 C352 1.409 . S
C359 C358 1.362 . S
H360 C366 0.930 . S
H361 C369 0.930 . S
H362 C370 0.930 . S
H363 C371 0.930 1_556 S
H364 C374 0.930 . S
H365 C375 0.930 . S
C366 H360 0.930 . S
C366 C367 1.355 . S
C366 C368 1.415 . S
C367 C366 1.355 . S
C367 C369 1.419 . S
C368 C366 1.415 . S
C368 C373 1.425 . S
C368 C375 1.409 . S
C369 H361 0.930 . S
C369 C367 1.419 . S
C369 C370 1.362 . S
C370 H362 0.930 . S
C370 C369 1.362 . S
C370 C373 1.409 . S
C371 H363 0.930 1_554 S
C371 C372 1.355 . S
C371 C373 1.415 . S
C372 C371 1.355 . S
C372 C374 1.419 . S
C373 C368 1.425 . S
C373 C370 1.409 . S
C373 C371 1.415 . S
C374 H364 0.930 . S
C374 C372 1.419 . S
C374 C375 1.362 . S
C375 H365 0.930 . S
C375 C368 1.409 . S
C375 C374 1.362 . S
H376 C382 0.930 . S
H377 C385 0.930 . S
H378 C386 0.930 . S
H379 C387 0.930 . S
H380 C390 0.929 1_556 S
H381 C391 0.930 . S
C382 H376 0.930 . S
C382 C383 1.361 . S
C382 C384 1.415 . S
C383 C382 1.361 . S
C383 C385 1.413 1_655 S
C384 C382 1.415 . S
C384 C389 1.425 1_655 S
C384 C391 1.409 . S
C385 H377 0.930 . S
C385 C383 1.413 1_455 S
C385 C386 1.362 . S
C386 H378 0.930 . S
C386 C385 1.362 . S
C386 C389 1.409 . S
C387 H379 0.930 . S
C387 C388 1.355 1_455 S
C387 C389 1.415 . S
C388 C387 1.355 1_655 S
C388 C390 1.419 . S
C389 C384 1.425 1_455 S
C389 C386 1.409 . S
C389 C387 1.415 . S
C390 H380 0.929 1_554 S
C390 C388 1.419 . S
C390 C391 1.363 . S
C391 H381 0.930 . S
C391 C384 1.409 . S
C391 C390 1.363 . S
H392 C398 0.930 . S
H393 C401 0.930 . S
H394 C402 0.930 . S
H395 C403 0.930 . S
H396 C406 0.930 . S
H397 C407 0.930 . S
C398 H392 0.930 . S
C398 C399 1.352 1_455 S
C398 C400 1.415 1_455 S
C399 C398 1.352 1_655 S
C399 C401 1.426 . S
C400 C398 1.415 1_655 S
C400 C405 1.425 . S
C400 C407 1.409 1_655 S
C401 H393 0.930 . S
C401 C399 1.426 . S
C401 C402 1.362 . S
C402 H394 0.930 . S
C402 C401 1.362 . S
C402 C405 1.409 . S
C403 H395 0.930 . S
C403 C404 1.355 . S
C403 C405 1.415 . S
C404 C403 1.355 . S
C404 C406 1.419 . S
C405 C400 1.425 . S
C405 C402 1.409 . S
C405 C403 1.415 . S
C406 H396 0.930 . S
C406 C404 1.419 . S
C406 C407 1.362 1_655 S
C407 H397 0.930 . S
C407 C400 1.409 1_455 S
C407 C406 1.362 1_455 S
H408 C414 0.930 1_545 S
H409 C417 0.930 . S
H410 C418 0.930 . S
H411 C419 0.930 . S
H412 C422 0.930 . S
H413 C423 0.930 . S
C414 H408 0.930 1_565 S
C414 C415 1.354 1_565 S
C414 C416 1.415 . S
C415 C414 1.354 1_545 S
C415 C417 1.416 1_545 S
C416 C414 1.415 . S
C416 C421 1.425 . S
C416 C423 1.409 . S
C417 H409 0.930 . S
C417 C415 1.416 1_565 S
C417 C418 1.362 . S
C418 H410 0.930 . S
C418 C417 1.362 . S
C418 C421 1.409 . S
C419 H411 0.930 . S
C419 C420 1.355 . S
C419 C421 1.415 . S
C420 C419 1.355 . S
C420 C422 1.419 . S
C421 C416 1.425 . S
C421 C418 1.409 . S
C421 C419 1.415 . S
C422 H412 0.930 . S
C422 C420 1.419 . S
C422 C423 1.362 . S
C423 H413 0.930 . S
C423 C416 1.409 . S
C423 C422 1.362 . S
H424 C430 0.930 . S
H425 C433 0.930 . S
H426 C434 0.930 . S
H427 C435 0.930 . S
H428 C438 0.930 . S
H429 C439 0.930 . S
C430 H424 0.930 . S
C430 C431 1.355 . S
C430 C432 1.415 . S
C431 C430 1.355 . S
C431 C433 1.419 . S
C432 C430 1.415 . S
C432 C437 1.425 . S
C432 C439 1.409 . S
C433 H425 0.930 . S
C433 C431 1.419 . S
C433 C434 1.362 . S
C434 H426 0.930 . S
C434 C433 1.362 . S
C434 C437 1.409 . S
C435 H427 0.930 . S
C435 C436 1.355 . S
C435 C437 1.415 . S
C436 C435 1.355 . S
C436 C438 1.419 . S
C437 C432 1.425 . S
C437 C434 1.409 . S
C437 C435 1.415 . S
C438 H428 0.930 . S
C438 C436 1.419 . S
C438 C439 1.362 . S
C439 H429 0.930 . S
C439 C432 1.409 . S
C439 C438 1.362 . S
H440 C446 0.930 . S
H441 C449 0.930 . S
H442 C450 0.930 . S
H443 C451 0.930 . S
H444 C454 0.930 . S
H445 C455 0.930 . S
C446 H440 0.930 . S
C446 C447 1.355 . S
C446 C448 1.415 . S
C447 C446 1.355 . S
C447 C449 1.419 . S
C448 C446 1.415 . S
C448 C453 1.425 . S
C448 C455 1.409 . S
C449 H441 0.930 . S
C449 C447 1.419 . S
C449 C450 1.362 . S
C450 H442 0.930 . S
C450 C449 1.362 . S
C450 C453 1.409 . S
C451 H443 0.930 . S
C451 C452 1.355 . S
C451 C453 1.415 . S
C452 C451 1.355 . S
C452 C454 1.419 . S
C453 C448 1.425 . S
C453 C450 1.409 . S
C453 C451 1.415 . S
C454 H444 0.930 . S
C454 C452 1.419 . S
C454 C455 1.362 . S
C455 H445 0.930 . S
C455 C448 1.409 . S
C455 C454 1.362 . S
H456 C462 0.930 . S
H457 C465 0.930 . S
H458 C466 0.930 . S
H459 C467 0.930 . S
H460 C470 0.930 . S
H461 C471 0.930 . S
C462 H456 0.930 . S
C462 C463 1.355 1_455 S
C462 C464 1.415 . S
C463 C462 1.355 1_655 S
C463 C465 1.419 . S
C464 C462 1.415 . S
C464 C469 1.425 . S
C464 C471 1.409 . S
C465 H457 0.930 . S
C465 C463 1.419 . S
C465 C466 1.362 . S
C466 H458 0.930 . S
C466 C465 1.362 . S
C466 C469 1.409 1_655 S
C467 H459 0.930 . S
C467 C468 1.355 . S
C467 C469 1.415 . S
C468 C467 1.355 . S
C468 C470 1.419 . S
C469 C464 1.425 . S
C469 C466 1.409 1_455 S
C469 C467 1.415 . S
C470 H460 0.930 . S
C470 C468 1.419 . S
C470 C471 1.362 . S
C471 H461 0.930 . S
C471 C464 1.409 . S
C471 C470 1.362 . S
H472 C478 0.930 . S
H473 C481 0.930 . S
H474 C482 0.930 . S
H475 C483 0.930 . S
H476 C486 0.930 . S
H477 C487 0.930 . S
C478 H472 0.930 . S
C478 C479 1.345 1_565 S
C478 C480 1.415 1_565 S
C479 C478 1.345 1_545 S
C479 C481 1.443 . S
C480 C478 1.415 1_545 S
C480 C485 1.425 . S
C480 C487 1.409 1_545 S
C481 H473 0.930 . S
C481 C479 1.443 . S
C481 C482 1.362 . S
C482 H474 0.930 . S
C482 C481 1.362 . S
C482 C485 1.409 . S
C483 H475 0.930 . S
C483 C484 1.355 . S
C483 C485 1.415 . S
C484 C483 1.355 . S
C484 C486 1.419 . S
C485 C480 1.425 . S
C485 C482 1.409 . S
C485 C483 1.415 . S
C486 H476 0.930 . S
C486 C484 1.419 . S
C486 C487 1.362 1_545 S
C487 H477 0.930 . S
C487 C480 1.409 1_565 S
C487 C486 1.362 1_565 S
H488 C494 0.930 . S
H489 C497 0.930 . S
H490 C498 0.930 . S
H491 C499 0.930 . S
H492 C502 0.930 . S
H493 C503 0.930 . S
C494 H488 0.930 . S
C494 C495 1.355 . S
C494 C496 1.415 . S
C495 C494 1.355 . S
C495 C497 1.419 . S
C496 C494 1.415 . S
C496 C501 1.425 . S
C496 C503 1.409 . S
C497 H489 0.930 . S
C497 C495 1.419 . S
C497 C498 1.362 . S
C498 H490 0.930 . S
C498 C497 1.362 . S
C498 C501 1.409 . S
C499 H491 0.930 . S
C499 C500 1.355 . S
C499 C501 1.415 . S
C500 C499 1.355 . S
C500 C502 1.419 . S
C501 C496 1.425 . S
C501 C498 1.409 . S
C501 C499 1.415 . S
C502 H492 0.930 . S
C502 C500 1.419 . S
C502 C503 1.362 . S
C503 H493 0.930 . S
C503 C496 1.409 . S
C503 C502 1.362 . S
H504 C510 0.930 . S
H505 C513 0.930 . S
H506 C514 0.930 . S
H507 C515 0.930 . S
H508 C518 0.930 . S
H509 C519 0.930 . S
C510 H504 0.930 . S
C510 C511 1.355 . S
C510 C512 1.415 . S
C511 C510 1.355 . S
C511 C513 1.419 . S
C512 C510 1.415 . S
C512 C517 1.425 . S
C512 C519 1.409 . S
C513 H505 0.930 . S
C513 C511 1.419 . S
C513 C514 1.362 . S
C514 H506 0.930 . S
C514 C513 1.362 . S
C514 C517 1.409 . S
C515 H507 0.930 . S
C515 C516 1.355 . S
C515 C517 1.415 . S
C516 C515 1.355 . S
C516 C518 1.419 . S
C517 C512 1.425 . S
C517 C514 1.409 . S
C517 C515 1.415 . S
C518 H508 0.930 . S
C518 C516 1.419 . S
C518 C519 1.362 . S
C519 H509 0.930 . S
C519 C512 1.409 . S
C519 C518 1.362 . S
H520 C526 0.930 1_554 S
H521 C529 0.930 . S
H522 C530 0.930 . S
H523 C531 0.930 . S
H524 C534 0.926 1_554 S
H525 C535 0.930 . S
C526 H520 0.930 1_556 S
C526 C527 1.355 1_655 S
C526 C528 1.414 . S
C527 C526 1.355 1_455 S
C527 C529 1.419 . S
C528 C526 1.414 . S
C528 C533 1.426 1_655 S
C528 C535 1.408 1_556 S
C529 H521 0.930 . S
C529 C527 1.419 . S
C529 C530 1.362 . S
C530 H522 0.930 . S
C530 C529 1.362 . S
C530 C533 1.409 . S
C531 H523 0.930 . S
C531 C532 1.355 . S
C531 C533 1.415 . S
C532 C531 1.355 . S
C532 C534 1.424 1_455 S
C533 C528 1.426 1_455 S
C533 C530 1.409 . S
C533 C531 1.415 . S
C534 H524 0.926 1_556 S
C534 C532 1.424 1_655 S
C534 C535 1.361 1_556 S
C535 H525 0.930 . S
C535 C528 1.408 1_554 S
C535 C534 1.361 1_554 S
H536 C542 0.930 . S
H537 C545 0.930 . S
H538 C546 0.930 . S
H539 C547 0.930 . S
H540 C550 0.930 . S
H541 C551 0.930 . S
C542 H536 0.930 . S
C542 C543 1.363 . S
C542 C544 1.415 . S
C543 C542 1.363 . S
C543 C545 1.410 1_545 S
C544 C542 1.415 . S
C544 C549 1.425 1_545 S
C544 C551 1.409 . S
C545 H537 0.930 . S
C545 C543 1.410 1_565 S
C545 C546 1.362 . S
C546 H538 0.930 . S
C546 C545 1.362 . S
C546 C549 1.409 . S
C547 H539 0.930 . S
C547 C548 1.355 1_565 S
C547 C549 1.415 . S
C548 C547 1.355 1_545 S
C548 C550 1.419 . S
C549 C544 1.425 1_565 S
C549 C546 1.409 . S
C549 C547 1.415 . S
C550 H540 0.930 . S
C550 C548 1.419 . S
C550 C551 1.362 . S
C551 H541 0.930 . S
C551 C544 1.409 . S
C551 C550 1.362 . S
H552 C558 0.930 1_554 S
H553 C561 0.930 . S
H554 C562 0.930 . S
H555 C563 0.930 . S
H556 C566 0.930 . S
H557 C567 0.930 . S
C558 H552 0.930 1_556 S
C558 C559 1.355 . S
C558 C560 1.415 . S
C559 C558 1.355 . S
C559 C561 1.419 . S
C560 C558 1.415 . S
C560 C565 1.425 . S
C560 C567 1.409 1_556 S
C561 H553 0.930 . S
C561 C559 1.419 . S
C561 C562 1.362 . S
C562 H554 0.930 . S
C562 C561 1.362 . S
C562 C565 1.409 . S
C563 H555 0.930 . S
C563 C564 1.355 . S
C563 C565 1.415 . S
C564 C563 1.355 . S
C564 C566 1.419 1_556 S
C565 C560 1.425 . S
C565 C562 1.409 . S
C565 C563 1.415 . S
C566 H556 0.930 . S
C566 C564 1.419 1_554 S
C566 C567 1.362 . S
C567 H557 0.930 . S
C567 C560 1.409 1_554 S
C567 C566 1.362 . S
H568 C574 0.930 . S
H569 C577 0.930 . S
H570 C578 0.930 . S
H571 C579 0.930 . S
H572 C582 0.930 . S
H573 C583 0.930 . S
C574 H568 0.930 . S
C574 C575 1.355 . S
C574 C576 1.415 . S
C575 C574 1.355 . S
C575 C577 1.419 . S
C576 C574 1.415 . S
C576 C581 1.425 . S
C576 C583 1.409 . S
C577 H569 0.930 . S
C577 C575 1.419 . S
C577 C578 1.362 . S
C578 H570 0.930 . S
C578 C577 1.362 . S
C578 C581 1.409 . S
C579 H571 0.930 . S
C579 C580 1.355 . S
C579 C581 1.415 . S
C580 C579 1.355 . S
C580 C582 1.419 . S
C581 C576 1.425 . S
C581 C578 1.409 . S
C581 C579 1.415 . S
C582 H572 0.930 . S
C582 C580 1.419 . S
C582 C583 1.362 . S
C583 H573 0.930 . S
C583 C576 1.409 . S
C583 C582 1.362 . S
H584 C590 0.930 . S
H585 C593 0.930 . S
H586 C594 0.930 . S
H587 C595 0.930 . S
H588 C598 0.930 . S
H589 C599 0.930 . S
C590 H584 0.930 . S
C590 C591 1.374 . S
C590 C592 1.415 . S
C591 C590 1.374 . S
C591 C593 1.398 1_655 S
C592 C590 1.415 . S
C592 C597 1.425 1_655 S
C592 C599 1.409 . S
C593 H585 0.930 . S
C593 C591 1.398 1_455 S
C593 C594 1.362 . S
C594 H586 0.930 . S
C594 C593 1.362 . S
C594 C597 1.409 . S
C595 H587 0.930 . S
C595 C596 1.355 1_455 S
C595 C597 1.415 . S
C596 C595 1.355 1_655 S
C596 C598 1.419 . S
C597 C592 1.425 1_455 S
C597 C594 1.409 . S
C597 C595 1.415 . S
C598 H588 0.930 . S
C598 C596 1.419 . S
C598 C599 1.362 . S
C599 H589 0.930 . S
C599 C592 1.409 . S
C599 C598 1.362 . S
H600 C606 0.930 . S
H601 C609 0.930 . S
H602 C610 0.930 . S
H603 C611 0.930 . S
H604 C614 0.930 . S
H605 C615 0.930 . S
C606 H600 0.930 . S
C606 C607 1.355 1_545 S
C606 C608 1.415 . S
C607 C606 1.355 1_565 S
C607 C609 1.419 . S
C608 C606 1.415 . S
C608 C613 1.425 1_545 S
C608 C615 1.409 . S
C609 H601 0.930 . S
C609 C607 1.419 . S
C609 C610 1.362 . S
C610 H602 0.930 . S
C610 C609 1.362 . S
C610 C613 1.409 . S
C611 H603 0.930 . S
C611 C612 1.355 . S
C611 C613 1.415 . S
C612 C611 1.355 . S
C612 C614 1.419 1_565 S
C613 C608 1.425 1_565 S
C613 C610 1.409 . S
C613 C611 1.415 . S
C614 H604 0.930 . S
C614 C612 1.419 1_545 S
C614 C615 1.362 . S
C615 H605 0.930 . S
C615 C608 1.409 . S
C615 C614 1.362 . S
H616 C622 0.930 . S
H617 C625 0.930 . S
H618 C626 0.930 . S
H619 C627 0.930 . S
H620 C630 0.930 . S
H621 C631 0.930 . S
C622 H616 0.930 . S
C622 C623 1.355 . S
C622 C624 1.415 . S
C623 C622 1.355 . S
C623 C625 1.419 . S
C624 C622 1.415 . S
C624 C629 1.425 . S
C624 C631 1.409 . S
C625 H617 0.930 . S
C625 C623 1.419 . S
C625 C626 1.362 . S
C626 H618 0.930 . S
C626 C625 1.362 . S
C626 C629 1.409 . S
C627 H619 0.930 . S
C627 C628 1.355 . S
C627 C629 1.415 . S
C628 C627 1.355 . S
C628 C630 1.419 . S
C629 C624 1.425 . S
C629 C626 1.409 . S
C629 C627 1.415 . S
C630 H620 0.930 . S
C630 C628 1.419 . S
C630 C631 1.362 . S
C631 H621 0.930 . S
C631 C624 1.409 . S
C631 C630 1.362 . S
H632 C638 0.930 . S
H633 C641 0.930 . S
H634 C642 0.930 . S
H635 C643 0.930 . S
H636 C646 0.930 . S
H637 C647 0.930 . S
C638 H632 0.930 . S
C638 C639 1.355 . S
C638 C640 1.415 . S
C639 C638 1.355 . S
C639 C641 1.419 . S
C640 C638 1.415 . S
C640 C645 1.425 . S
C640 C647 1.409 . S
C641 H633 0.930 . S
C641 C639 1.419 . S
C641 C642 1.362 . S
C642 H634 0.930 . S
C642 C641 1.362 . S
C642 C645 1.409 . S
C643 H635 0.930 . S
C643 C644 1.355 . S
C643 C645 1.415 . S
C644 C643 1.355 . S
C644 C646 1.419 . S
C645 C640 1.425 . S
C645 C642 1.409 . S
C645 C643 1.415 . S
C646 H636 0.930 . S
C646 C644 1.419 . S
C646 C647 1.362 . S
C647 H637 0.930 . S
C647 C640 1.409 . S
C647 C646 1.362 . S
C271 N80 1.895 1_545 S
C276 C113 2.020 . S
C292 C153 2.036 . S
C287 N93 1.966 . S
C308 C193 2.053 . S
C303 N54 1.978 . S
C324 C233 2.034 . S
C319 N67 1.909 1_455 S
C340 C122 2.033 1_564 S
C335 N28 1.886 1_545 S
C351 N41 1.903 . S
C356 C162 2.040 1_554 S
C367 N2 1.911 . S
C372 C202 2.058 1_554 S
C383 N15 1.964 . S
C388 C242 2.031 1_654 S
C404 C119 0.518 . S
C399 N70 0.524 . S
C420 C159 0.567 . S
C415 N83 0.544 1_545 S
C436 C199 0.525 . S
C431 N96 0.529 . S
C447 N57 0.529 . S
C452 C239 0.544 . S
C463 N18 0.669 . S
C468 C110 0.704 . S
C484 C150 0.535 . S
C479 N31 0.525 1_545 S
C500 C190 0.709 . S
C495 N44 0.659 . S
C511 N5 0.560 . S
C516 C230 0.601 . S
C527 N66 2.299 1_455 S
C532 C123 2.353 . S
C543 N79 2.239 1_545 S
C548 C163 2.349 . S
C564 C203 2.302 . S
C559 N92 2.253 . S
C580 C243 2.368 . S
C575 N53 2.282 . S
C591 N14 2.260 . S
C596 C114 2.392 . S
C612 C154 2.317 . S
C607 N27 2.204 . S
C628 C194 2.294 . S
C623 N40 2.209 . S
C639 N1 2.241 . S
C644 C234 2.375 . S
