# Generated by pormake.
# Topology csq, (4,8)-cn, num edge types: 1
# Building blocks:
#     Node 0, Type 0, BuildingBlock: NAWXER_clean_linker_0, # of connection points: 4
#     Node 1, Type 0, BuildingBlock: NAWXER_clean_linker_0, # of connection points: 4
#     Node 2, Type 0, BuildingBlock: NAWXER_clean_linker_0, # of connection points: 4
#     Node 3, Type 0, BuildingBlock: NAWXER_clean_linker_0, # of connection points: 4
#     Node 4, Type 0, BuildingBlock: NAWXER_clean_linker_0, # of connection points: 4
#     Node 5, Type 0, BuildingBlock: NAWXER_clean_linker_0, # of connection points: 4
#     Node 6, Type 1, BuildingBlock: TAGTUT_clean_sbu_3, # of connection points: 8
#     Node 7, Type 1, BuildingBlock: TAGTUT_clean_sbu_3, # of connection points: 8
#     Node 8, Type 1, BuildingBlock: TAGTUT_clean_sbu_3, # of connection points: 8
#     Edge 9, Type (0, 1), BuildingBlock: AJUNOK_clean_linker_0, # of connection points: 2
#     Edge 10, Type (0, 1), BuildingBlock: AJUNOK_clean_linker_0, # of connection points: 2
#     Edge 11, Type (0, 1), BuildingBlock: AJUNOK_clean_linker_0, # of connection points: 2
#     Edge 12, Type (0, 1), BuildingBlock: AJUNOK_clean_linker_0, # of connection points: 2
#     Edge 13, Type (0, 1), BuildingBlock: AJUNOK_clean_linker_0, # of connection points: 2
#     Edge 14, Type (0, 1), BuildingBlock: AJUNOK_clean_linker_0, # of connection points: 2
#     Edge 15, Type (0, 1), BuildingBlock: AJUNOK_clean_linker_0, # of connection points: 2
#     Edge 16, Type (0, 1), BuildingBlock: AJUNOK_clean_linker_0, # of connection points: 2
#     Edge 17, Type (0, 1), BuildingBlock: AJUNOK_clean_linker_0, # of connection points: 2
#     Edge 18, Type (0, 1), BuildingBlock: AJUNOK_clean_linker_0, # of connection points: 2
#     Edge 19, Type (0, 1), BuildingBlock: AJUNOK_clean_linker_0, # of connection points: 2
#     Edge 20, Type (0, 1), BuildingBlock: AJUNOK_clean_linker_0, # of connection points: 2
#     Edge 21, Type (0, 1), BuildingBlock: AJUNOK_clean_linker_0, # of connection points: 2
#     Edge 22, Type (0, 1), BuildingBlock: AJUNOK_clean_linker_0, # of connection points: 2
#     Edge 23, Type (0, 1), BuildingBlock: AJUNOK_clean_linker_0, # of connection points: 2
#     Edge 24, Type (0, 1), BuildingBlock: AJUNOK_clean_linker_0, # of connection points: 2
#     Edge 25, Type (0, 1), BuildingBlock: AJUNOK_clean_linker_0, # of connection points: 2
#     Edge 26, Type (0, 1), BuildingBlock: AJUNOK_clean_linker_0, # of connection points: 2
#     Edge 27, Type (0, 1), BuildingBlock: AJUNOK_clean_linker_0, # of connection points: 2
#     Edge 28, Type (0, 1), BuildingBlock: AJUNOK_clean_linker_0, # of connection points: 2
#     Edge 29, Type (0, 1), BuildingBlock: AJUNOK_clean_linker_0, # of connection points: 2
#     Edge 30, Type (0, 1), BuildingBlock: AJUNOK_clean_linker_0, # of connection points: 2
#     Edge 31, Type (0, 1), BuildingBlock: AJUNOK_clean_linker_0, # of connection points: 2
#     Edge 32, Type (0, 1), BuildingBlock: AJUNOK_clean_linker_0, # of connection points: 2
# Relax obj value: 0.028
# Max RMSD: 0.107
# Mean RMSD: 0.039
data_MOF--net-csq--node1-TAGTUT_clean_sbu_3--node2-NAWXER_clean_linker_0--edge1-AJUNOK_clean_linker_0
_symmetry_space_group_name_H-M    P1
_symmetry_Int_Tables_number       1
_symmetry_cell_setting            triclinic
loop_
_symmetry_equiv_pos_as_xyz
'x, y, z'
_cell_length_a     49.296858
_cell_length_b     48.577779
_cell_length_c     17.343633
_cell_angle_alpha  92.508139
_cell_angle_beta   92.974433
_cell_angle_gamma 120.03922
loop_
_atom_site_label
_atom_site_type_symbol
_atom_site_fract_x
_atom_site_fract_y
_atom_site_fract_z
_atom_type_partial_charge
C0 C 0.35211 0.52442 0.07388 0.0
C1 C 0.34503 0.50102 0.01364 0.0
C2 C 0.32801 0.52421 0.11354 0.0
C3 C 0.29647 0.50008 0.09501 0.0
C4 C 0.31341 0.47761 0.99331 0.0
C5 C 0.28936 0.47724 0.03334 0.0
C6 C 0.27129 0.49714 0.14357 0.0
C7 C 0.33231 0.47193 0.27703 0.0
C8 C 0.35078 0.49364 0.33986 0.0
C9 C 0.30711 0.47323 0.24181 0.0
C10 C 0.30069 0.49716 0.26645 0.0
C11 C 0.34337 0.51661 0.36716 0.0
C12 C 0.31852 0.51845 0.33034 0.0
C13 C 0.27503 0.49927 0.22528 0.0
C14 C 0.14776 0.46424 0.32449 0.0
C15 C 0.15439 0.49083 0.37449 0.0
C16 C 0.1706 0.46504 0.27864 0.0
C17 C 0.20039 0.49262 0.28108 0.0
C18 C 0.18427 0.51835 0.37718 0.0
C19 C 0.20716 0.51912 0.33132 0.0
C20 C 0.2246 0.49395 0.23168 0.0
C21 C 0.14539 0.48695 0.07742 0.0
C22 C 0.12938 0.45747 0.03285 0.0
C23 C 0.175 0.49741 0.11492 0.0
C24 C 0.18903 0.47858 0.10823 0.0
C25 C 0.14374 0.43891 0.02537 0.0
C26 C 0.17343 0.44947 0.06264 0.0
C27 C 0.21956 0.48845 0.15014 0.0
H28 H 0.37624 0.54291 0.09003 0.0
H29 H 0.33409 0.54249 0.15999 0.0
H30 H 0.30735 0.45913 0.94738 0.0
H31 H 0.26531 0.45836 0.01807 0.0
H32 H 0.33726 0.45379 0.25529 0.0
H33 H 0.29279 0.45566 0.19458 0.0
H34 H 0.35642 0.53281 0.41757 0.0
H35 H 0.31339 0.53656 0.35124 0.0
H36 H 0.12481 0.44284 0.32057 0.0
H37 H 0.16499 0.44411 0.24121 0.0
H38 H 0.19003 0.53909 0.41552 0.0
H39 H 0.23006 0.54057 0.33437 0.0
H40 H 0.13535 0.50227 0.08185 0.0
H41 H 0.18698 0.5202 0.14888 0.0
H42 H 0.132 0.41628 0.99071 0.0
H43 H 0.18403 0.43467 0.05696 0.0
N44 N 0.24321 0.49072 0.10884 0.0
N45 N 0.25206 0.49866 0.26653 0.0
C46 C 0.66945 0.16018 0.23819 0.0
C47 C 0.67727 0.1364 0.24838 0.0
C48 C 0.69106 0.18912 0.21137 0.0
C49 C 0.7207 0.19463 0.19396 0.0
C50 C 0.70739 0.14235 0.23321 0.0
C51 C 0.729 0.17135 0.20581 0.0
C52 C 0.74188 0.22374 0.15776 0.0
C53 C 0.69111 0.15381 0.94455 0.0
C54 C 0.66021 0.14828 0.94263 0.0
C55 C 0.7156 0.1802 0.98826 0.0
C56 C 0.70968 0.20161 0.03042 0.0
C57 C 0.65438 0.1698 0.98538 0.0
C58 C 0.67902 0.19646 0.0284 0.0
C59 C 0.7354 0.22787 0.08076 0.0
C60 C 0.85381 0.33539 0.9947 0.0
C61 C 0.84241 0.35171 0.95112 0.0
C62 C 0.83459 0.31278 0.04356 0.0
C63 C 0.80361 0.30606 0.04918 0.0
C64 C 0.81174 0.34566 0.9582 0.0
C65 C 0.79232 0.32267 0.00632 0.0
C66 C 0.78179 0.27886 0.09099 0.0
C67 C 0.84826 0.35285 0.27931 0.0
C68 C 0.86787 0.34395 0.31906 0.0
C69 C 0.82268 0.33053 0.22917 0.0
C70 C 0.81619 0.29891 0.21864 0.0
C71 C 0.86138 0.31236 0.30863 0.0
C72 C 0.83552 0.28993 0.25947 0.0
C73 C 0.78841 0.27465 0.16861 0.0
H74 H 0.64673 0.15651 0.2518 0.0
H75 H 0.68451 0.20709 0.20326 0.0
H76 H 0.71399 0.12444 0.24158 0.0
H77 H 0.75184 0.17535 0.19224 0.0
H78 H 0.6964 0.13786 0.91164 0.0
H79 H 0.73916 0.18377 0.98983 0.0
H80 H 0.63075 0.16586 0.98622 0.0
H81 H 0.67409 0.21269 0.06126 0.0
H82 H 0.8775 0.33987 0.99006 0.0
H83 H 0.84352 0.29967 0.07451 0.0
H84 H 0.80256 0.358 0.92482 0.0
H85 H 0.76831 0.31743 0.00909 0.0
H86 H 0.853 0.37718 0.28635 0.0
H87 H 0.80774 0.33785 0.19946 0.0
H88 H 0.87624 0.30505 0.33883 0.0
H89 H 0.83078 0.2656 0.25267 0.0
N90 N 0.76817 0.24707 0.19917 0.0
N91 N 0.7556 0.25516 0.04971 0.0
C92 C 0.58478 0.71228 0.89014 0.0
C93 C 0.56116 0.68848 0.83739 0.0
C94 C 0.57727 0.72899 0.94421 0.0
C95 C 0.54634 0.72288 0.9443 0.0
C96 C 0.53054 0.68383 0.83539 0.0
C97 C 0.52336 0.70134 0.88759 0.0
C98 C 0.53878 0.74144 0.99835 0.0
C99 C 0.52455 0.65604 0.1289 0.0
C100 C 0.53502 0.66209 0.2083 0.0
C101 C 0.52573 0.68034 0.08548 0.0
C102 C 0.53871 0.71176 0.11937 0.0
C103 C 0.54784 0.69344 0.24186 0.0
C104 C 0.54999 0.7178 0.19811 0.0
C105 C 0.53768 0.73792 0.07871 0.0
C106 C 0.51364 0.84074 0.2072 0.0
C107 C 0.53221 0.84707 0.27742 0.0
C108 C 0.5142 0.82111 0.1465 0.0
C109 C 0.53407 0.80827 0.15439 0.0
C110 C 0.55118 0.83331 0.28576 0.0
C111 C 0.55247 0.81464 0.22472 0.0
C112 C 0.53388 0.78518 0.09558 0.0
C113 C 0.54888 0.86731 0.94687 0.0
C114 C 0.526 0.85726 0.88369 0.0
C115 C 0.55096 0.84487 0.99148 0.0
C116 C 0.53002 0.81206 0.97389 0.0
C117 C 0.50536 0.82444 0.86616 0.0
C118 C 0.50749 0.80216 0.91034 0.0
C119 C 0.5331 0.78738 0.01449 0.0
H120 H 0.6088 0.71725 0.8913 0.0
H121 H 0.59554 0.74669 0.98582 0.0
H122 H 0.51169 0.66556 0.79601 0.0
H123 H 0.49958 0.69719 0.88576 0.0
H124 H 0.51528 0.63252 0.09993 0.0
H125 H 0.51542 0.67392 0.02646 0.0
H126 H 0.5558 0.69925 0.30285 0.0
H127 H 0.55995 0.74147 0.22706 0.0
H128 H 0.49865 0.85095 0.19922 0.0
H129 H 0.49865 0.81551 0.0946 0.0
H130 H 0.56488 0.83668 0.33984 0.0
H131 H 0.56762 0.80463 0.23326 0.0
H132 H 0.56481 0.89248 0.96248 0.0
H133 H 0.56909 0.8531 0.03892 0.0
H134 H 0.48753 0.81597 0.81789 0.0
H135 H 0.49143 0.777 0.89472 0.0
N136 N 0.53582 0.76544 0.96955 0.0
N137 N 0.53557 0.76029 0.1233 0.0
C138 C 0.87477 0.55878 0.90152 0.0
C139 C 0.86502 0.53701 0.83569 0.0
C140 C 0.85299 0.55805 0.95082 0.0
C141 C 0.8211 0.53438 0.93816 0.0
C142 C 0.83254 0.51569 0.81851 0.0
C143 C 0.81085 0.51413 0.86978 0.0
C144 C 0.79889 0.52979 0.99779 0.0
C145 C 0.87466 0.51488 0.09777 0.0
C146 C 0.89356 0.53731 0.15908 0.0
C147 C 0.84557 0.5112 0.07339 0.0
C148 C 0.83562 0.53103 0.10756 0.0
C149 C 0.88283 0.55611 0.19542 0.0
C150 C 0.85414 0.55305 0.16973 0.0
C151 C 0.80644 0.52968 0.0776 0.0
C152 C 0.68523 0.5009 0.21349 0.0
C153 C 0.69619 0.52603 0.27183 0.0
C154 C 0.70566 0.49964 0.16262 0.0
C155 C 0.73727 0.52401 0.1674 0.0
C156 C 0.72824 0.54953 0.27904 0.0
C157 C 0.74864 0.54843 0.22744 0.0
C158 C 0.75796 0.52542 0.10697 0.0
C159 C 0.68301 0.5409 0.99756 0.0
C160 C 0.66485 0.51887 0.93474 0.0
C161 C 0.7108 0.54293 0.02727 0.0
C162 C 0.72014 0.52195 0.99707 0.0
C163 C 0.67397 0.49761 0.90525 0.0
C164 C 0.70145 0.49918 0.93616 0.0
C165 C 0.74977 0.52418 0.02704 0.0
H166 H 0.89943 0.57581 0.91674 0.0
H167 H 0.86139 0.57507 1.00112 0.0
H168 H 0.82378 0.49985 0.76612 0.0
H169 H 0.78621 0.49635 0.85726 0.0
H170 H 0.88243 0.50036 0.06844 0.0
H171 H 0.83123 0.49342 0.02653 0.0
H172 H 0.89652 0.57308 0.2442 0.0
H173 H 0.8467 0.56828 0.1975 0.0
H174 H 0.66057 0.48276 0.2052 0.0
H175 H 0.69647 0.4803 0.11748 0.0
H176 H 0.73738 0.56903 0.3237 0.0
H177 H 0.77304 0.56738 0.23243 0.0
H178 H 0.67632 0.55735 0.02181 0.0
H179 H 0.72522 0.56125 0.073 0.0
H180 H 0.66061 0.4807 0.85612 0.0
H181 H 0.70835 0.48291 0.91184 0.0
N182 N 0.7705 0.52642 0.97541 0.0
N183 N 0.78602 0.52813 0.12924 0.0
C184 C 0.29215 0.90184 1.00031 0.0
C185 C 0.29394 0.8931 0.92327 0.0
C186 C 0.27321 0.87858 0.04856 0.0
C187 C 0.25669 0.84616 0.02108 0.0
C188 C 0.27455 0.86125 0.8937 0.0
C189 C 0.25627 0.83802 0.94216 0.0
C190 C 0.24016 0.8202 0.0726 0.0
C191 C 0.33987 0.87396 0.19786 0.0
C192 C 0.34021 0.88866 0.26977 0.0
C193 C 0.31116 0.8525 0.15595 0.0
C194 C 0.28261 0.84545 0.18591 0.0
C195 C 0.31159 0.88186 0.29866 0.0
C196 C 0.28309 0.86024 0.25751 0.0
C197 C 0.25217 0.82007 0.1483 0.0
C198 C 0.19436 0.71259 0.31665 0.0
C199 C 0.16262 0.70123 0.32755 0.0
C200 C 0.20873 0.73357 0.2598 0.0
C201 C 0.19144 0.74296 0.21186 0.0
C202 C 0.14515 0.71017 0.27876 0.0
C203 C 0.15944 0.73089 0.22135 0.0
C204 C 0.20802 0.76844 0.15971 0.0
C205 C 0.12656 0.71581 0.9403 0.0
C206 C 0.12701 0.68713 0.93607 0.0
C207 C 0.14843 0.74161 0.99092 0.0
C208 C 0.17063 0.73893 0.03928 0.0
C209 C 0.14894 0.68429 0.98504 0.0
C210 C 0.1705 0.70993 0.03639 0.0
C211 C 0.19681 0.76772 0.08265 0.0
H212 H 0.30688 0.92622 0.02474 0.0
H213 H 0.2725 0.88592 0.10786 0.0
H214 H 0.27519 0.85396 0.83418 0.0
H215 H 0.24314 0.81337 0.91856 0.0
H216 H 0.36169 0.87895 0.1745 0.0
H217 H 0.3112 0.8408 0.10136 0.0
H218 H 0.31127 0.89273 0.35426 0.0
H219 H 0.26132 0.85474 0.28206 0.0
H220 H 0.20817 0.70578 0.35319 0.0
H221 H 0.23354 0.74283 0.25392 0.0
H222 H 0.12044 0.70119 0.28525 0.0
H223 H 0.14577 0.73831 0.18631 0.0
H224 H 0.1099 0.71852 0.90288 0.0
H225 H 0.14847 0.76394 0.99117 0.0
H226 H 0.14958 0.6623 0.98294 0.0
H227 H 0.18795 0.7075 0.07127 0.0
N228 N 0.21315 0.79377 0.0427 0.0
N229 N 0.23532 0.7945 0.18909 0.0
C230 C 0.52065 0.17788 0.0788 0.0
C231 C 0.50502 0.16337 0.00569 0.0
C232 C 0.50954 0.19359 0.12588 0.0
C233 C 0.4824 0.19437 0.10066 0.0
C234 C 0.47783 0.16418 0.98129 0.0
C235 C 0.46682 0.17975 0.028 0.0
C236 C 0.47148 0.21288 0.14492 0.0
C237 C 0.46036 0.1336 0.28946 0.0
C238 C 0.47307 0.14303 0.36706 0.0
C239 C 0.45704 0.15469 0.24284 0.0
C240 C 0.46736 0.18615 0.27176 0.0
C241 C 0.48185 0.17398 0.39707 0.0
C242 C 0.47923 0.19531 0.34987 0.0
C243 C 0.4647 0.20941 0.22332 0.0
C244 C 0.41674 0.29255 0.32599 0.0
C245 C 0.44294 0.31597 0.37339 0.0
C246 C 0.42008 0.2719 0.27363 0.0
C247 C 0.44979 0.27528 0.26667 0.0
C248 C 0.47247 0.31878 0.36677 0.0
C249 C 0.47583 0.29857 0.31392 0.0
C250 C 0.45358 0.25194 0.21948 0.0
C251 C 0.48925 0.32085 0.005 0.0
C252 C 0.46277 0.324 0.98872 0.0
C253 C 0.48848 0.29941 0.05713 0.0
C254 C 0.46138 0.28079 0.09515 0.0
C255 C 0.43564 0.3056 0.02735 0.0
C256 C 0.43492 0.2841 0.07997 0.0
C257 C 0.46015 0.25521 0.1412 0.0
H258 H 0.54145 0.1772 0.0991 0.0
H259 H 0.52227 0.20541 0.18122 0.0
H260 H 0.46465 0.15221 0.92646 0.0
H261 H 0.44595 0.18027 0.00744 0.0
H262 H 0.4532 0.10992 0.26425 0.0
H263 H 0.44628 0.14619 0.1843 0.0
H264 H 0.49063 0.18177 0.45717 0.0
H265 H 0.48671 0.21915 0.37456 0.0
H266 H 0.39387 0.29034 0.32947 0.0
H267 H 0.39957 0.25325 0.23917 0.0
H268 H 0.4932 0.33725 0.401 0.0
H269 H 0.49878 0.30094 0.31027 0.0
H270 H 0.51047 0.33459 0.97618 0.0
H271 H 0.50905 0.29697 0.06686 0.0
H272 H 0.415 0.30783 0.01688 0.0
H273 H 0.41338 0.26932 0.10647 0.0
N274 N 0.46878 0.23543 0.10731 0.0
N275 N 0.45629 0.22943 0.25743 0.0
C276 C 0.05746 0.48574 0.56355 0.0
C277 C 0.02828 0.45073 0.84324 0.0
C278 C 0.93963 0.44122 0.77464 0.0
Mg279 Mg 0.03287 0.52153 0.45431 0.0
Mg280 Mg 0.01008 0.56978 0.52861 0.0
O281 O 0.00454 0.52871 0.52171 0.0
Mg282 Mg 0.01079 0.51105 0.61749 0.0
O283 O 0.01758 0.49096 0.70785 0.0
Mg284 Mg -0.00342 0.44539 0.66364 0.0
Mg285 Mg 0.00499 0.49762 0.80318 0.0
C286 C 0.96379 0.53885 0.66024 0.0
O287 O 0.04345 0.56037 0.68671 0.0
O288 O 0.00943 0.53432 0.35451 0.0
O289 O 0.02806 0.549 0.80759 0.0
O290 O 0.07231 0.57422 0.4711 0.0
O291 O 0.99433 0.56693 0.4096 0.0
O292 O 0.05921 0.60448 0.5415 0.0
O293 O 0.97725 0.46066 0.55862 0.0
O294 O 0.9933 0.4697 0.43946 0.0
C295 C 0.97551 0.45098 0.48757 0.0
C296 C -0.00372 0.55138 0.35056 0.0
O297 O 0.97034 0.51636 0.66438 0.0
O298 O 0.0196 0.43731 0.77383 0.0
O299 O 0.97831 0.5625 0.61869 0.0
O300 O 0.95147 0.42992 0.72765 0.0
O301 O 0.02481 0.47411 0.86643 0.0
O302 O 0.95541 0.46988 0.8041 0.0
O303 O 0.05097 0.5082 0.56323 0.0
O304 O 0.04114 0.46098 0.59982 0.0
C305 C 0.07918 0.60124 0.50415 0.0
C306 C 0.04327 0.5689 0.75809 0.0
C307 C 0.49544 0.05025 0.50802 0.0
C308 C 0.58527 0.03423 0.41072 0.0
C309 C 0.53199 0.94082 0.48938 0.0
Mg310 Mg 0.4532 0.0202 0.65053 0.0
Mg311 Mg 0.47726 0.99423 0.79485 0.0
O312 O 0.46789 0.99079 0.68771 0.0
Mg313 Mg 0.50288 0.00225 0.62087 0.0
O314 O 0.53608 0.01458 0.54875 0.0
Mg315 Mg 0.50908 0.99422 0.4493 0.0
Mg316 Mg 0.56925 0.007 0.57201 0.0
C317 C 0.50663 0.95257 0.74313 0.0
O318 O 0.54194 0.03632 0.71304 0.0
O319 O 0.41119 0.99331 0.72712 0.0
O320 O 0.58378 0.03114 0.68852 0.0
O321 O 0.48131 0.05871 0.75082 0.0
O322 O 0.43005 0.97559 0.8222 0.0
O323 O 0.50467 0.04297 0.83715 0.0
O324 O 0.46577 0.97004 0.52171 0.0
O325 O 0.42918 0.98287 0.5484 0.0
C326 C 0.43901 0.96803 0.50548 0.0
C327 C 0.40778 0.97789 0.78773 0.0
O328 O 0.5091 0.96145 0.67346 0.0
O329 O 0.55577 0.0221 0.3904 0.0
O330 O 0.49715 0.96383 0.79681 0.0
O331 O 0.51666 0.95142 0.45168 0.0
O332 O 0.59537 0.03135 0.47778 0.0
O333 O 0.55219 0.95725 0.54601 0.0
O334 O 0.49562 0.0422 0.57737 0.0
O335 O 0.50123 0.0367 0.4515 0.0
C336 C 0.49984 0.06438 0.81131 0.0
C337 C 0.57028 0.04267 0.72964 0.0
C338 C 0.53839 0.57003 0.71861 0.0
C339 C 0.43624 0.48664 0.8438 0.0
C340 C 0.46953 0.42097 0.78994 0.0
Mg341 Mg 0.57036 0.55922 0.56968 0.0
Mg342 Mg 0.52665 0.50214 0.43595 0.0
O343 O 0.54063 0.51269 0.54134 0.0
Mg344 Mg 0.50939 0.50228 0.62006 0.0
O345 O 0.48003 0.49365 0.70219 0.0
Mg346 Mg 0.50815 0.50218 0.79793 0.0
Mg347 Mg 0.44269 0.45378 0.69285 0.0
C348 C 0.47927 0.4372 0.50653 0.0
O349 O 0.47132 0.50018 0.53686 0.0
O350 O 0.60375 0.55348 0.48666 0.0
O351 O 0.42804 0.45758 0.57508 0.0
O352 O 0.55159 0.57653 0.46806 0.0
O353 O 0.57146 0.51095 0.40317 0.0
O354 O 0.51671 0.53644 0.38595 0.0
O355 O 0.54442 0.5032 0.7139 0.0
O356 O 0.58796 0.54273 0.67111 0.0
C357 C 0.57419 0.52255 0.72101 0.0
C358 C 0.599 0.53282 0.43064 0.0
O359 O 0.48724 0.44926 0.57725 0.0
O360 O 0.46612 0.50052 0.86304 0.0
O361 O 0.4894 0.4539 0.44812 0.0
O362 O 0.48948 0.44942 0.81648 0.0
O363 O 0.42312 0.46762 0.78272 0.0
O364 O 0.44963 0.41572 0.733 0.0
O365 O 0.53276 0.55608 0.65059 0.0
O366 O 0.52872 0.55433 0.7783 0.0
C367 C 0.53236 0.56615 0.40725 0.0
C368 C 0.4418 0.47954 0.52851 0.0
C369 C 0.12242 0.51378 0.42521 0.0
C370 C 0.13027 0.48964 0.42447 0.0
C371 C 0.09907 0.51251 0.47059 0.0
C372 C 0.08275 0.48711 0.51734 0.0
H373 H 0.13404 0.53354 0.38942 0.0
H374 H 0.09367 0.5315 0.46839 0.0
S375 S 0.09673 0.41927 0.54034 0.0
N376 N 0.12142 0.44067 0.47746 0.0
N377 N 0.07765 0.43799 0.56251 0.0
C378 C 0.09104 0.46318 0.51822 0.0
C379 C 0.11471 0.4645 0.47186 0.0
C380 C 0.6634 0.09695 0.34731 0.0
C381 C 0.65452 0.10638 0.27984 0.0
C382 C 0.64101 0.07203 0.38634 0.0
C383 C 0.60886 0.05566 0.35945 0.0
H384 H 0.6875 0.1101 0.37263 0.0
H385 H 0.64892 0.06679 0.44025 0.0
S386 S 0.57495 0.06767 0.17628 0.0
N387 N 0.61267 0.0949 0.18111 0.0
N388 N 0.57026 0.04801 0.25443 0.0
C389 C 0.60019 0.06323 0.28822 0.0
C390 C 0.62309 0.08866 0.24854 0.0
C391 C 0.55773 0.64396 0.31438 0.0
C392 C 0.53322 0.63646 0.25697 0.0
C393 C 0.5566 0.62132 0.36345 0.0
C394 C 0.53127 0.5897 0.3566 0.0
H395 H 0.57836 0.66758 0.32135 0.0
H396 H 0.57632 0.62866 0.40607 0.0
S397 S 0.46068 0.55708 0.21646 0.0
N398 N 0.48197 0.59488 0.19828 0.0
N399 N 0.48106 0.55176 0.28684 0.0
C400 C 0.50674 0.58148 0.29869 0.0
C401 C 0.50744 0.6049 0.24983 0.0
C402 C 0.94963 0.57088 0.21099 0.0
C403 C 0.92372 0.54036 0.18873 0.0
C404 C 0.97552 0.57457 0.257 0.0
C405 C 0.97664 0.54786 0.2804 0.0
H406 H 0.94891 0.59208 0.19745 0.0
H407 H 0.9936 0.59838 0.2793 0.0
S408 S 0.91745 0.46287 0.22759 0.0
N409 N 0.90247 0.48294 0.18667 0.0
N410 N 0.95197 0.49009 0.27032 0.0
C411 C 0.95275 0.51731 0.25108 0.0
C412 C 0.92598 0.51347 0.20575 0.0
C413 C 0.37521 0.94105 0.34284 0.0
C414 C 0.36991 0.91089 0.31681 0.0
C415 C 0.39914 0.96015 0.40033 0.0
C416 C 0.41881 0.9499 0.43428 0.0
H417 H 0.35969 0.94928 0.32126 0.0
H418 H 0.40127 0.98259 0.42085 0.0
S419 S 0.4164 0.87396 0.38094 0.0
N420 N 0.38755 0.87242 0.32447 0.0
N421 N 0.43301 0.90865 0.43298 0.0
C422 C 0.41529 0.92077 0.40483 0.0
C423 C 0.39067 0.90115 0.34598 0.0
C424 C 0.43227 0.36045 0.38437 0.0
C425 C 0.44126 0.3408 0.42135 0.0
C426 C 0.44158 0.39088 0.41765 0.0
C427 C 0.46006 0.40247 0.48886 0.0
H428 H 0.42102 0.35375 0.32587 0.0
H429 H 0.43679 0.4065 0.38404 0.0
S430 S 0.48153 0.35644 0.61824 0.0
N431 N 0.46341 0.33196 0.5398 0.0
N432 N 0.48102 0.3895 0.60275 0.0
C433 C 0.46506 0.38129 0.53152 0.0
C434 C 0.45568 0.35028 0.49738 0.0
C435 C 0.49165 0.87711 0.8295 0.0
C436 C 0.52175 0.88061 0.83933 0.0
C437 C 0.48682 0.89962 0.79305 0.0
C438 C 0.51173 0.92629 0.76371 0.0
H439 H 0.47183 0.85748 0.85308 0.0
H440 H 0.46353 0.89679 0.79043 0.0
S441 S 0.59457 0.94548 0.76882 0.0
N442 N 0.57663 0.91204 0.81252 0.0
N443 N 0.56727 0.9544 0.74344 0.0
C444 C 0.54168 0.9295 0.76982 0.0
C445 C 0.54677 0.90669 0.80796 0.0
C446 C 0.61021 0.49291 0.86937 0.0
C447 C 0.63904 0.52079 0.89288 0.0
C448 C 0.58781 0.4938 0.81781 0.0
C449 C 0.59393 0.52253 0.78752 0.0
H450 H 0.60552 0.47012 0.88851 0.0
H451 H 0.56659 0.47165 0.79788 0.0
S452 S 0.66422 0.60258 0.83737 0.0
N453 N 0.67124 0.5782 0.88666 0.0
N454 N 0.62921 0.57991 0.79078 0.0
C455 C 0.62169 0.55082 0.81475 0.0
C456 C 0.64428 0.54995 0.86721 0.0
C457 C 0.11618 0.64663 0.82675 0.0
C458 C 0.10477 0.65999 0.88082 0.0
C459 C 0.09564 0.61841 0.78072 0.0
C460 C 0.06317 0.60244 0.78862 0.0
H461 H 0.14125 0.65749 0.82204 0.0
H462 H 0.10544 0.6079 0.74293 0.0
S463 S 0.02129 0.62908 0.91633 0.0
N464 N 0.05877 0.65656 0.93473 0.0
N465 N 0.02025 0.60316 0.84962 0.0
C466 C 0.05136 0.6165 0.83923 0.0
C467 C 0.07216 0.64541 0.88506 0.0
C468 C 0.51721 0.11973 0.98838 0.0
C469 C 0.51456 0.14452 0.95692 0.0
C470 C 0.51591 0.09519 0.94004 0.0
C471 C 0.51146 0.0946 0.859 0.0
H472 H 0.51734 0.11765 0.05033 0.0
H473 H 0.51535 0.07516 0.96662 0.0
S474 S 0.51239 0.15877 0.74902 0.0
N475 N 0.5147 0.1709 0.84085 0.0
N476 N 0.51099 0.1241 0.74966 0.0
C477 C 0.51276 0.12127 0.82716 0.0
C478 C 0.51466 0.14647 0.87633 0.0
C479 C 0.39596 0.50067 0.01059 0.0
C480 C 0.37036 0.50095 0.97105 0.0
C481 C 0.41833 0.49741 0.96977 0.0
C482 C 0.41562 0.49426 0.88831 0.0
H483 H 0.39804 0.50179 0.07329 0.0
H484 H 0.43698 0.49603 0.00196 0.0
S485 S 0.35604 0.49923 0.75859 0.0
N486 N 0.34598 0.50182 0.84673 0.0
N487 N 0.38757 0.49569 0.77015 0.0
C488 C 0.39117 0.49648 0.84867 0.0
C489 C 0.36864 0.4998 0.88997 0.0
C490 C 0.87418 0.36402 0.83743 0.0
C491 C 0.86269 0.37453 0.89741 0.0
C492 C 0.89712 0.38576 0.79286 0.0
C493 C 0.90995 0.4189 0.80799 0.0
H494 H 0.86619 0.33885 0.82679 0.0
H495 H 0.90621 0.37649 0.74962 0.0
S496 S 0.88461 0.45786 0.95369 0.0
N497 N 0.86294 0.41941 0.96492 0.0
N498 N 0.90694 0.46074 0.88331 0.0
C499 C 0.89707 0.42946 0.86504 0.0
C500 C 0.87323 0.40716 0.90928 0.0
C501 C 0.91618 0.56546 0.77414 0.0
C502 C 0.88903 0.53656 0.78707 0.0
C503 C 0.9402 0.5659 0.7335 0.0
C504 C 0.93817 0.53749 0.70383 0.0
H505 H 0.91898 0.5881 0.79539 0.0
H506 H 0.9607 0.58875 0.72585 0.0
S507 S 0.87082 0.45561 0.71256 0.0
N508 N 0.86108 0.47864 0.76238 0.0
N509 N 0.9058 0.47983 0.68347 0.0
C510 C 0.91089 0.50846 0.71388 0.0
C511 C 0.8864 0.50792 0.75572 0.0
C512 C 0.33927 0.90412 0.84888 0.0
C513 C 0.32013 0.91506 0.87907 0.0
C514 C 0.3668 0.92469 0.81619 0.0
C515 C 0.37626 0.95698 0.81182 0.0
H516 H 0.33381 0.87975 0.85397 0.0
H517 H 0.38141 0.91543 0.79632 0.0
S518 S 0.33356 0.99725 0.87641 0.0
N519 N 0.31158 0.95999 0.89834 0.0
N520 N 0.3639 -0.00106 0.8357 0.0
C521 C 0.35683 0.96817 0.83808 0.0
C522 C 0.32867 0.94713 0.87238 0.0
C523 C 0.49015 0.37858 0.94109 0.0
C524 C 0.46427 0.34735 0.93351 0.0
C525 C 0.49214 0.40152 0.89194 0.0
C526 C 0.46833 0.39439 0.83265 0.0
H527 H 0.50876 0.38567 0.98682 0.0
H528 H 0.51235 0.42536 0.90208 0.0
S529 S 0.39712 0.31493 0.78302 0.0
N530 N 0.41544 0.30956 0.85823 0.0
N531 N 0.41897 0.3528 0.7659 0.0
C532 C 0.44286 0.36281 0.82226 0.0
C533 C 0.44082 0.33935 0.8728 0.0
C534 C 0.09537 0.43928 0.90867 0.0
C535 C 0.09911 0.44778 0.98869 0.0
C536 C 0.07009 0.43687 0.86225 0.0
C537 C 0.04799 0.44318 0.89445 0.0
H538 H 0.1133 0.43684 0.88076 0.0
H539 H 0.0695 0.43281 0.80009 0.0
S540 S 0.04327 0.45873 0.10314 0.0
N541 N 0.07559 0.45657 0.10005 0.0
N542 N 0.02835 0.45278 0.0124 0.0
C543 C 0.04971 0.44844 0.97531 0.0
C544 C 0.07527 0.45061 0.02259 0.0
C545 C 0.63222 0.09038 0.89459 0.0
C546 C 0.63454 0.12051 0.89423 0.0
C547 C 0.61044 0.06469 0.84318 0.0
C548 C 0.5898 0.06807 0.79088 0.0
H549 H 0.64789 0.08685 0.93368 0.0
H550 H 0.61013 0.04223 0.84331 0.0
S551 S 0.58715 0.142 0.76388 0.0
N552 N 0.61488 0.15227 0.83488 0.0
N553 N 0.57326 0.10371 0.74032 0.0
C554 C 0.59118 0.09768 0.79132 0.0
C555 C 0.61369 0.12397 0.84261 0.0
C556 C 0.55116 0.65235 0.71874 0.0
C557 C 0.5664 0.6649 0.79358 0.0
C558 C 0.54549 0.62257 0.68813 0.0
C559 C 0.55514 0.60487 0.73164 0.0
H560 H 0.54092 0.66413 0.68696 0.0
H561 H 0.5306 0.61198 0.63461 0.0
S562 S 0.60303 0.6305 0.92016 0.0
N563 N 0.59613 0.65968 0.90316 0.0
N564 N 0.58627 0.60443 0.84411 0.0
C565 C 0.57449 0.61928 0.80052 0.0
C566 C 0.58 0.64926 0.83206 0.0
C567 C 0.45405 0.08789 0.40911 0.0
C568 C 0.47729 0.1205 0.41536 0.0
C569 C 0.45915 0.06535 0.44479 0.0
C570 C 0.4873 0.07461 0.4897 0.0
H571 H 0.43214 0.07949 0.37397 0.0
H572 H 0.44153 0.04033 0.43433 0.0
S573 S 0.55495 0.15658 0.52944 0.0
N574 N 0.52937 0.16073 0.47306 0.0
N575 N 0.53803 0.11817 0.54246 0.0
C576 C 0.50994 0.10709 0.50071 0.0
C577 C 0.50512 0.13012 0.46321 0.0
C578 C 0.3704 0.46026 0.39775 0.0
C579 C 0.37622 0.49062 0.37984 0.0
C580 C 0.39276 0.45669 0.44171 0.0
C581 C 0.42174 0.48333 0.4694 0.0
H582 H 0.34782 0.43917 0.38067 0.0
H583 H 0.3868 0.433 0.45672 0.0
S584 S 0.44925 0.56786 0.43463 0.0
N585 N 0.41383 0.54759 0.3884 0.0
N586 N 0.45577 0.54102 0.47327 0.0
C587 C 0.42855 0.51372 0.44886 0.0
C588 C 0.40572 0.51734 0.40383 0.0
C589 C 0.89224 0.38415 0.43366 0.0
C590 C 0.89576 0.36805 0.36899 0.0
C591 C 0.91856 0.4094 0.47677 0.0
C592 C 0.94914 0.41975 0.45533 0.0
H593 H 0.86895 0.37773 0.44959 0.0
H594 H 0.91481 0.42218 0.52392 0.0
S595 S 0.97083 0.38409 0.29353 0.0
N596 N 0.93204 0.36281 0.28859 0.0
N597 N 0.98147 0.41071 0.3682 0.0
C598 C 0.95293 0.4029 0.39278 0.0
C599 C 0.92623 0.37694 0.34987 0.0
C600 C 0.50371 0.8658 0.36092 0.0
C601 C 0.53218 0.8683 0.34149 0.0
C602 C 0.50348 0.88779 0.4154 0.0
C603 C 0.5316 0.9127 0.45318 0.0
H604 H 0.48152 0.84737 0.33197 0.0
H605 H 0.48131 0.8863 0.42531 0.0
S606 S 0.61229 0.92904 0.426 0.0
N607 N 0.58924 0.89737 0.36617 0.0
N608 N 0.5885 0.93778 0.47075 0.0
C609 C 0.56004 0.91424 0.43824 0.0
C610 C 0.5604 0.8923 0.38166 0.0
C611 C 0.67402 0.55762 0.33278 0.0
C612 C 0.67372 0.52852 0.32164 0.0
C613 C 0.65057 0.55948 0.37154 0.0
C614 C 0.62592 0.53219 0.39935 0.0
H615 H 0.69172 0.5788 0.30857 0.0
H616 H 0.6509 0.58195 0.37652 0.0
S617 S 0.61698 0.45168 0.3961 0.0
N618 N 0.64884 0.47295 0.3508 0.0
N619 N 0.60425 0.4762 0.42072 0.0
C620 C 0.62623 0.50345 0.39213 0.0
C621 C 0.65026 0.50165 0.35399 0.0
C622 C 0.14718 0.65016 0.38722 0.0
C623 C 0.14717 0.67905 0.38767 0.0
C624 C 0.12759 0.62607 0.43297 0.0
C625 C 0.10723 0.63002 0.48059 0.0
H626 H 0.1607 0.64526 0.34725 0.0
H627 H 0.12665 0.60332 0.42614 0.0
S628 S 0.10485 0.70475 0.51613 0.0
N629 N 0.12996 0.7128 0.44947 0.0
N630 N 0.09313 0.66771 0.53607 0.0
C631 C 0.10999 0.66036 0.48828 0.0
C632 C 0.12981 0.68477 0.44121 0.0
loop_
_geom_bond_atom_site_label_1
_geom_bond_atom_site_label_2
_geom_bond_distance
_geom_bond_site_symmetry_2
_ccdc_geom_bond_type
C0 C1 1.384 . S
C0 C2 1.384 . S
C0 H28 0.931 . S
C1 C0 1.384 . S
C1 C4 1.382 . S
C2 C0 1.384 . S
C2 C3 1.381 . S
C2 H29 0.930 . S
C3 C2 1.381 . S
C3 C5 1.381 . S
C3 C6 1.487 . S
C4 C1 1.382 . S
C4 C5 1.387 . S
C4 H30 0.930 1_554 S
C5 C3 1.381 . S
C5 C4 1.387 . S
C5 H31 0.931 . S
C6 C3 1.487 . S
C6 C13 1.399 . S
C6 N44 1.343 . S
C7 C8 1.384 . S
C7 C9 1.384 . S
C7 H32 0.931 . S
C8 C7 1.384 . S
C8 C11 1.382 . S
C9 C7 1.384 . S
C9 C10 1.381 . S
C9 H33 0.930 . S
C10 C9 1.381 . S
C10 C12 1.381 . S
C10 C13 1.487 . S
C11 C8 1.382 . S
C11 C12 1.387 . S
C11 H34 0.930 . S
C12 C10 1.381 . S
C12 C11 1.387 . S
C12 H35 0.931 . S
C13 C6 1.399 . S
C13 C10 1.487 . S
C13 N45 1.343 . S
C14 C15 1.384 . S
C14 C16 1.384 . S
C14 H36 0.931 . S
C15 C14 1.384 . S
C15 C18 1.382 . S
C16 C14 1.384 . S
C16 C17 1.381 . S
C16 H37 0.930 . S
C17 C16 1.381 . S
C17 C19 1.381 . S
C17 C20 1.487 . S
C18 C15 1.382 . S
C18 C19 1.387 . S
C18 H38 0.930 . S
C19 C17 1.381 . S
C19 C18 1.387 . S
C19 H39 0.931 . S
C20 C17 1.487 . S
C20 C27 1.399 . S
C20 N45 1.343 . S
C21 C22 1.384 . S
C21 C23 1.384 . S
C21 H40 0.931 . S
C22 C21 1.384 . S
C22 C25 1.382 . S
C23 C21 1.384 . S
C23 C24 1.381 . S
C23 H41 0.930 . S
C24 C23 1.381 . S
C24 C26 1.381 . S
C24 C27 1.487 . S
C25 C22 1.382 . S
C25 C26 1.387 . S
C25 H42 0.930 1_554 S
C26 C24 1.381 . S
C26 C25 1.387 . S
C26 H43 0.931 . S
C27 C20 1.399 . S
C27 C24 1.487 . S
C27 N44 1.343 . S
H28 C0 0.931 . S
H29 C2 0.930 . S
H30 C4 0.930 1_556 S
H31 C5 0.931 . S
H32 C7 0.931 . S
H33 C9 0.930 . S
H34 C11 0.930 . S
H35 C12 0.931 . S
H36 C14 0.931 . S
H37 C16 0.930 . S
H38 C18 0.930 . S
H39 C19 0.931 . S
H40 C21 0.931 . S
H41 C23 0.930 . S
H42 C25 0.930 1_556 S
H43 C26 0.931 . S
N44 C6 1.343 . S
N44 C27 1.343 . S
N45 C13 1.343 . S
N45 C20 1.343 . S
C46 C47 1.384 . S
C46 C48 1.384 . S
C46 H74 0.931 . S
C47 C46 1.384 . S
C47 C50 1.382 . S
C48 C46 1.384 . S
C48 C49 1.381 . S
C48 H75 0.930 . S
C49 C48 1.381 . S
C49 C51 1.381 . S
C49 C52 1.487 . S
C50 C47 1.382 . S
C50 C51 1.387 . S
C50 H76 0.930 . S
C51 C49 1.381 . S
C51 C50 1.387 . S
C51 H77 0.931 . S
C52 C49 1.487 . S
C52 C59 1.399 . S
C52 N90 1.343 . S
C53 C54 1.384 . S
C53 C55 1.384 1_556 S
C53 H78 0.931 . S
C54 C53 1.384 . S
C54 C57 1.382 . S
C55 C53 1.384 1_554 S
C55 C56 1.381 . S
C55 H79 0.930 . S
C56 C55 1.381 . S
C56 C58 1.381 1_554 S
C56 C59 1.487 . S
C57 C54 1.382 . S
C57 C58 1.387 . S
C57 H80 0.930 . S
C58 C56 1.381 1_556 S
C58 C57 1.387 . S
C58 H81 0.931 . S
C59 C52 1.399 . S
C59 C56 1.487 . S
C59 N91 1.343 . S
C60 C61 1.384 . S
C60 C62 1.384 1_556 S
C60 H82 0.931 . S
C61 C60 1.384 . S
C61 C64 1.382 . S
C62 C60 1.384 1_554 S
C62 C63 1.381 . S
C62 H83 0.930 . S
C63 C62 1.381 . S
C63 C65 1.381 1_554 S
C63 C66 1.487 . S
C64 C61 1.382 . S
C64 C65 1.387 . S
C64 H84 0.930 . S
C65 C63 1.381 1_556 S
C65 C64 1.387 . S
C65 H85 0.931 . S
C66 C63 1.487 . S
C66 C73 1.399 . S
C66 N91 1.343 . S
C67 C68 1.384 . S
C67 C69 1.384 . S
C67 H86 0.931 . S
C68 C67 1.384 . S
C68 C71 1.382 . S
C69 C67 1.384 . S
C69 C70 1.381 . S
C69 H87 0.930 . S
C70 C69 1.381 . S
C70 C72 1.381 . S
C70 C73 1.487 . S
C71 C68 1.382 . S
C71 C72 1.387 . S
C71 H88 0.930 . S
C72 C70 1.381 . S
C72 C71 1.387 . S
C72 H89 0.931 . S
C73 C66 1.399 . S
C73 C70 1.487 . S
C73 N90 1.343 . S
H74 C46 0.931 . S
H75 C48 0.930 . S
H76 C50 0.930 . S
H77 C51 0.931 . S
H78 C53 0.931 . S
H79 C55 0.930 . S
H80 C57 0.930 . S
H81 C58 0.931 . S
H82 C60 0.931 . S
H83 C62 0.930 . S
H84 C64 0.930 . S
H85 C65 0.931 . S
H86 C67 0.931 . S
H87 C69 0.930 . S
H88 C71 0.930 . S
H89 C72 0.931 . S
N90 C52 1.343 . S
N90 C73 1.343 . S
N91 C59 1.343 . S
N91 C66 1.343 . S
C92 C93 1.384 . S
C92 C94 1.384 . S
C92 H120 0.931 . S
C93 C92 1.384 . S
C93 C96 1.382 . S
C94 C92 1.384 . S
C94 C95 1.381 . S
C94 H121 0.930 1_556 S
C95 C94 1.381 . S
C95 C97 1.381 . S
C95 C98 1.494 . S
C96 C93 1.382 . S
C96 C97 1.387 . S
C96 H122 0.930 . S
C97 C95 1.381 . S
C97 C96 1.387 . S
C97 H123 0.931 . S
C98 C95 1.494 . S
C98 C105 1.385 1_556 S
C98 N136 1.350 . S
C99 C100 1.384 . S
C99 C101 1.384 . S
C99 H124 0.931 . S
C100 C99 1.384 . S
C100 C103 1.382 . S
C101 C99 1.384 . S
C101 C102 1.381 . S
C101 H125 0.930 . S
C102 C101 1.381 . S
C102 C104 1.381 . S
C102 C105 1.487 . S
C103 C100 1.382 . S
C103 C104 1.387 . S
C103 H126 0.930 . S
C104 C102 1.381 . S
C104 C103 1.387 . S
C104 H127 0.931 . S
C105 C98 1.385 1_554 S
C105 C102 1.487 . S
C105 N137 1.343 . S
C106 C107 1.384 . S
C106 C108 1.384 . S
C106 H128 0.931 . S
C107 C106 1.384 . S
C107 C110 1.382 . S
C108 C106 1.384 . S
C108 C109 1.381 . S
C108 H129 0.930 . S
C109 C108 1.381 . S
C109 C111 1.381 . S
C109 C112 1.487 . S
C110 C107 1.382 . S
C110 C111 1.387 . S
C110 H130 0.930 . S
C111 C109 1.381 . S
C111 C110 1.387 . S
C111 H131 0.931 . S
C112 C109 1.487 . S
C112 C119 1.399 . S
C112 N137 1.343 . S
C113 C114 1.384 . S
C113 C115 1.384 . S
C113 H132 0.931 . S
C114 C113 1.384 . S
C114 C117 1.382 . S
C115 C113 1.384 . S
C115 C116 1.381 . S
C115 H133 0.930 1_556 S
C116 C115 1.381 . S
C116 C118 1.381 . S
C116 C119 1.487 1_556 S
C117 C114 1.382 . S
C117 C118 1.387 . S
C117 H134 0.930 . S
C118 C116 1.381 . S
C118 C117 1.387 . S
C118 H135 0.931 . S
C119 C112 1.399 . S
C119 C116 1.487 1_554 S
C119 N136 1.343 1_554 S
H120 C92 0.931 . S
H121 C94 0.930 1_554 S
H122 C96 0.930 . S
H123 C97 0.931 . S
H124 C99 0.931 . S
H125 C101 0.930 . S
H126 C103 0.930 . S
H127 C104 0.931 . S
H128 C106 0.931 . S
H129 C108 0.930 . S
H130 C110 0.930 . S
H131 C111 0.931 . S
H132 C113 0.931 . S
H133 C115 0.930 1_554 S
H134 C117 0.930 . S
H135 C118 0.931 . S
N136 C98 1.350 . S
N136 C119 1.343 1_556 S
N137 C105 1.343 . S
N137 C112 1.343 . S
C138 C139 1.384 . S
C138 C140 1.384 . S
C138 H166 0.931 . S
C139 C138 1.384 . S
C139 C142 1.382 . S
C140 C138 1.384 . S
C140 C141 1.381 . S
C140 H167 0.930 . S
C141 C140 1.381 . S
C141 C143 1.381 . S
C141 C144 1.487 . S
C142 C139 1.382 . S
C142 C143 1.387 . S
C142 H168 0.930 . S
C143 C141 1.381 . S
C143 C142 1.387 . S
C143 H169 0.931 . S
C144 C141 1.487 . S
C144 C151 1.399 1_556 S
C144 N182 1.343 . S
C145 C146 1.384 . S
C145 C147 1.384 . S
C145 H170 0.931 . S
C146 C145 1.384 . S
C146 C149 1.382 . S
C147 C145 1.384 . S
C147 C148 1.381 . S
C147 H171 0.930 . S
C148 C147 1.381 . S
C148 C150 1.381 . S
C148 C151 1.487 . S
C149 C146 1.382 . S
C149 C150 1.387 . S
C149 H172 0.930 . S
C150 C148 1.381 . S
C150 C149 1.387 . S
C150 H173 0.931 . S
C151 C144 1.399 1_554 S
C151 C148 1.487 . S
C151 N183 1.343 . S
C152 C153 1.384 . S
C152 C154 1.384 . S
C152 H174 0.931 . S
C153 C152 1.384 . S
C153 C156 1.382 . S
C154 C152 1.384 . S
C154 C155 1.381 . S
C154 H175 0.930 . S
C155 C154 1.381 . S
C155 C157 1.381 . S
C155 C158 1.487 . S
C156 C153 1.382 . S
C156 C157 1.387 . S
C156 H176 0.930 . S
C157 C155 1.381 . S
C157 C156 1.387 . S
C157 H177 0.931 . S
C158 C155 1.487 . S
C158 C165 1.399 1_554 S
C158 N183 1.343 . S
C159 C160 1.384 . S
C159 C161 1.384 . S
C159 H178 0.931 . S
C160 C159 1.384 . S
C160 C163 1.382 . S
C161 C159 1.384 . S
C161 C162 1.381 . S
C161 H179 0.930 . S
C162 C161 1.381 . S
C162 C164 1.381 . S
C162 C165 1.487 . S
C163 C160 1.382 . S
C163 C164 1.387 . S
C163 H180 0.930 . S
C164 C162 1.381 . S
C164 C163 1.387 . S
C164 H181 0.931 . S
C165 C158 1.399 1_556 S
C165 C162 1.487 . S
C165 N182 1.343 . S
H166 C138 0.931 . S
H167 C140 0.930 . S
H168 C142 0.930 . S
H169 C143 0.931 . S
H170 C145 0.931 . S
H171 C147 0.930 . S
H172 C149 0.930 . S
H173 C150 0.931 . S
H174 C152 0.931 . S
H175 C154 0.930 . S
H176 C156 0.930 . S
H177 C157 0.931 . S
H178 C159 0.931 . S
H179 C161 0.930 . S
H180 C163 0.930 . S
H181 C164 0.931 . S
N182 C144 1.343 . S
N182 C165 1.343 . S
N183 C151 1.343 . S
N183 C158 1.343 . S
C184 C185 1.384 1_554 S
C184 C186 1.384 . S
C184 H212 0.931 . S
C185 C184 1.384 1_556 S
C185 C188 1.382 . S
C186 C184 1.384 . S
C186 C187 1.381 . S
C186 H213 0.930 . S
C187 C186 1.381 . S
C187 C189 1.381 1_554 S
C187 C190 1.487 . S
C188 C185 1.382 . S
C188 C189 1.387 . S
C188 H214 0.930 . S
C189 C187 1.381 1_556 S
C189 C188 1.387 . S
C189 H215 0.931 . S
C190 C187 1.487 . S
C190 C197 1.399 . S
C190 N228 1.343 . S
C191 C192 1.384 . S
C191 C193 1.384 . S
C191 H216 0.931 . S
C192 C191 1.384 . S
C192 C195 1.382 . S
C193 C191 1.384 . S
C193 C194 1.381 . S
C193 H217 0.930 . S
C194 C193 1.381 . S
C194 C196 1.381 . S
C194 C197 1.487 . S
C195 C192 1.382 . S
C195 C196 1.387 . S
C195 H218 0.930 . S
C196 C194 1.381 . S
C196 C195 1.387 . S
C196 H219 0.931 . S
C197 C190 1.399 . S
C197 C194 1.487 . S
C197 N229 1.343 . S
C198 C199 1.384 . S
C198 C200 1.384 . S
C198 H220 0.931 . S
C199 C198 1.384 . S
C199 C202 1.382 . S
C200 C198 1.384 . S
C200 C201 1.381 . S
C200 H221 0.930 . S
C201 C200 1.381 . S
C201 C203 1.381 . S
C201 C204 1.487 . S
C202 C199 1.382 . S
C202 C203 1.387 . S
C202 H222 0.930 . S
C203 C201 1.381 . S
C203 C202 1.387 . S
C203 H223 0.931 . S
C204 C201 1.487 . S
C204 C211 1.399 . S
C204 N229 1.343 . S
C205 C206 1.384 . S
C205 C207 1.384 1_556 S
C205 H224 0.931 . S
C206 C205 1.384 . S
C206 C209 1.382 . S
C207 C205 1.384 1_554 S
C207 C208 1.381 . S
C207 H225 0.930 . S
C208 C207 1.381 . S
C208 C210 1.381 1_554 S
C208 C211 1.487 . S
C209 C206 1.382 . S
C209 C210 1.387 . S
C209 H226 0.930 . S
C210 C208 1.381 1_556 S
C210 C209 1.387 . S
C210 H227 0.931 . S
C211 C204 1.399 . S
C211 C208 1.487 . S
C211 N228 1.343 . S
H212 C184 0.931 . S
H213 C186 0.930 . S
H214 C188 0.930 . S
H215 C189 0.931 . S
H216 C191 0.931 . S
H217 C193 0.930 . S
H218 C195 0.930 . S
H219 C196 0.931 . S
H220 C198 0.931 . S
H221 C200 0.930 . S
H222 C202 0.930 . S
H223 C203 0.931 . S
H224 C205 0.931 . S
H225 C207 0.930 . S
H226 C209 0.930 . S
H227 C210 0.931 . S
N228 C190 1.343 . S
N228 C211 1.343 . S
N229 C197 1.343 . S
N229 C204 1.343 . S
C230 C231 1.384 1_554 S
C230 C232 1.384 . S
C230 H258 0.931 . S
C231 C230 1.384 1_556 S
C231 C234 1.382 . S
C232 C230 1.384 . S
C232 C233 1.381 . S
C232 H259 0.930 . S
C233 C232 1.381 . S
C233 C235 1.381 . S
C233 C236 1.487 . S
C234 C231 1.382 . S
C234 C235 1.387 1_556 S
C234 H260 0.930 . S
C235 C233 1.381 . S
C235 C234 1.387 1_554 S
C235 H261 0.931 . S
C236 C233 1.487 . S
C236 C243 1.399 . S
C236 N274 1.343 . S
C237 C238 1.384 . S
C237 C239 1.384 . S
C237 H262 0.931 . S
C238 C237 1.384 . S
C238 C241 1.382 . S
C239 C237 1.384 . S
C239 C240 1.381 . S
C239 H263 0.930 . S
C240 C239 1.381 . S
C240 C242 1.381 . S
C240 C243 1.487 . S
C241 C238 1.382 . S
C241 C242 1.387 . S
C241 H264 0.930 . S
C242 C240 1.381 . S
C242 C241 1.387 . S
C242 H265 0.931 . S
C243 C236 1.399 . S
C243 C240 1.487 . S
C243 N275 1.343 . S
C244 C245 1.384 . S
C244 C246 1.384 . S
C244 H266 0.931 . S
C245 C244 1.384 . S
C245 C248 1.382 . S
C246 C244 1.384 . S
C246 C247 1.381 . S
C246 H267 0.930 . S
C247 C246 1.381 . S
C247 C249 1.381 . S
C247 C250 1.487 . S
C248 C245 1.382 . S
C248 C249 1.387 . S
C248 H268 0.930 . S
C249 C247 1.381 . S
C249 C248 1.387 . S
C249 H269 0.931 . S
C250 C247 1.487 . S
C250 C257 1.399 . S
C250 N275 1.343 . S
C251 C252 1.384 . S
C251 C253 1.384 . S
C251 H270 0.931 . S
C252 C251 1.384 . S
C252 C255 1.382 1_554 S
C253 C251 1.384 . S
C253 C254 1.381 . S
C253 H271 0.930 . S
C254 C253 1.381 . S
C254 C256 1.381 . S
C254 C257 1.487 . S
C255 C252 1.382 1_556 S
C255 C256 1.387 1_556 S
C255 H272 0.930 . S
C256 C254 1.381 . S
C256 C255 1.387 1_554 S
C256 H273 0.931 . S
C257 C250 1.399 . S
C257 C254 1.487 . S
C257 N274 1.343 . S
H258 C230 0.931 . S
H259 C232 0.930 . S
H260 C234 0.930 . S
H261 C235 0.931 . S
H262 C237 0.931 . S
H263 C239 0.930 . S
H264 C241 0.930 . S
H265 C242 0.931 . S
H266 C244 0.931 . S
H267 C246 0.930 . S
H268 C248 0.930 . S
H269 C249 0.931 . S
H270 C251 0.931 . S
H271 C253 0.930 . S
H272 C255 0.930 . S
H273 C256 0.931 . S
N274 C236 1.343 . S
N274 C257 1.343 . S
N275 C243 1.343 . S
N275 C250 1.343 . S
C276 O303 1.312 . S
C276 O304 1.208 . S
C277 O298 1.331 . S
C277 O301 1.244 . S
C278 O300 1.264 . S
C278 O302 1.273 . S
Mg279 O281 1.936 1_455 S
Mg279 O288 2.081 1_455 S
Mg279 O290 2.023 . S
Mg279 O294 2.031 1_455 S
Mg279 O303 2.291 . S
Mg280 O281 1.963 . S
Mg280 O291 1.942 . S
Mg280 O292 1.955 1_655 S
Mg280 O299 1.986 . S
O281 Mg279 1.936 1_655 S
O281 Mg280 1.963 . S
O281 Mg282 1.915 1_655 S
Mg282 O281 1.915 1_455 S
Mg282 O283 1.915 . S
Mg282 O287 2.013 . S
Mg282 O293 2.114 1_455 S
Mg282 O297 2.013 1_455 S
Mg282 O303 2.114 . S
O283 Mg282 1.915 . S
O283 Mg284 1.936 . S
O283 Mg285 1.963 . S
Mg284 O283 1.936 . S
Mg284 O293 2.291 1_455 S
Mg284 O298 2.081 . S
Mg284 O300 2.023 1_455 S
Mg284 O304 2.031 . S
Mg285 O283 1.963 . S
Mg285 O289 1.986 . S
Mg285 O301 1.942 . S
Mg285 O302 1.955 1_455 S
C286 O297 1.191 . S
C286 O299 1.307 . S
O287 Mg282 2.013 . S
O287 C306 1.191 . S
O288 Mg279 2.081 1_655 S
O288 C296 1.331 . S
O289 Mg285 1.986 . S
O289 C306 1.307 . S
O290 Mg279 2.023 . S
O290 C305 1.264 . S
O291 Mg280 1.942 . S
O291 C296 1.244 . S
O292 Mg280 1.955 1_455 S
O292 C305 1.273 . S
O293 Mg282 2.114 1_655 S
O293 Mg284 2.291 1_655 S
O293 C295 1.312 . S
O294 Mg279 2.031 1_655 S
O294 C295 1.208 . S
C295 O293 1.312 . S
C295 O294 1.208 . S
C296 O288 1.331 . S
C296 O291 1.244 . S
O297 Mg282 2.013 1_655 S
O297 C286 1.191 . S
O298 C277 1.331 . S
O298 Mg284 2.081 . S
O299 Mg280 1.986 . S
O299 C286 1.307 . S
O300 C278 1.264 . S
O300 Mg284 2.023 1_655 S
O301 C277 1.244 . S
O301 Mg285 1.942 . S
O302 C278 1.273 . S
O302 Mg285 1.955 1_655 S
O303 C276 1.312 . S
O303 Mg279 2.291 . S
O303 Mg282 2.114 . S
O304 C276 1.208 . S
O304 Mg284 2.031 . S
C305 O290 1.264 . S
C305 O292 1.273 . S
C306 O287 1.191 . S
C306 O289 1.307 . S
C307 O334 1.312 . S
C307 O335 1.208 . S
C308 O329 1.331 . S
C308 O332 1.244 . S
C309 O331 1.264 . S
C309 O333 1.273 . S
Mg310 O312 1.936 1_545 S
Mg310 O319 2.081 1_545 S
Mg310 O321 2.023 . S
Mg310 O325 2.031 1_545 S
Mg310 O334 2.291 . S
Mg311 O312 1.961 . S
Mg311 O322 1.944 . S
Mg311 O323 1.940 1_565 S
Mg311 O330 2.000 . S
O312 Mg310 1.936 1_565 S
O312 Mg311 1.961 . S
O312 Mg313 1.915 1_565 S
Mg313 O312 1.915 1_545 S
Mg313 O314 1.915 . S
Mg313 O318 2.013 . S
Mg313 O324 2.114 1_545 S
Mg313 O328 2.013 1_545 S
Mg313 O334 2.114 . S
O314 Mg313 1.915 . S
O314 Mg315 1.936 . S
O314 Mg316 1.963 . S
Mg315 O314 1.936 . S
Mg315 O324 2.291 1_545 S
Mg315 O329 2.081 . S
Mg315 O331 2.023 1_545 S
Mg315 O335 2.031 . S
Mg316 O314 1.963 . S
Mg316 O320 1.986 . S
Mg316 O332 1.942 . S
Mg316 O333 1.955 1_545 S
C317 O328 1.191 . S
C317 O330 1.307 . S
O318 Mg313 2.013 . S
O318 C337 1.191 . S
O319 Mg310 2.081 1_565 S
O319 C327 1.331 . S
O320 Mg316 1.986 . S
O320 C337 1.307 . S
O321 Mg310 2.023 . S
O321 C336 1.264 . S
O322 Mg311 1.944 . S
O322 C327 1.244 . S
O323 Mg311 1.940 1_545 S
O323 C336 1.273 . S
O324 Mg313 2.114 1_565 S
O324 Mg315 2.291 1_565 S
O324 C326 1.312 . S
O325 Mg310 2.031 1_565 S
O325 C326 1.208 . S
C326 O324 1.312 . S
C326 O325 1.208 . S
C327 O319 1.331 . S
C327 O322 1.244 . S
O328 Mg313 2.013 1_565 S
O328 C317 1.191 . S
O329 C308 1.331 . S
O329 Mg315 2.081 . S
O330 Mg311 2.000 . S
O330 C317 1.307 . S
O331 C309 1.264 . S
O331 Mg315 2.023 1_565 S
O332 C308 1.244 . S
O332 Mg316 1.942 . S
O333 C309 1.273 . S
O333 Mg316 1.955 1_565 S
O334 C307 1.312 . S
O334 Mg310 2.291 . S
O334 Mg313 2.114 . S
O335 C307 1.208 . S
O335 Mg315 2.031 . S
C336 O321 1.264 . S
C336 O323 1.273 . S
C337 O318 1.191 . S
C337 O320 1.307 . S
C338 O365 1.312 . S
C338 O366 1.208 . S
C339 O360 1.331 . S
C339 O363 1.244 . S
C340 O362 1.264 . S
C340 O364 1.273 . S
Mg341 O343 1.936 . S
Mg341 O350 2.081 . S
Mg341 O352 2.023 . S
Mg341 O356 2.031 . S
Mg341 O365 2.291 . S
Mg342 O343 1.963 . S
Mg342 O353 1.942 . S
Mg342 O354 1.955 . S
Mg342 O361 1.986 . S
O343 Mg341 1.936 . S
O343 Mg342 1.963 . S
O343 Mg344 1.915 . S
Mg344 O343 1.915 . S
Mg344 O345 1.915 . S
Mg344 O349 2.013 . S
Mg344 O355 2.114 . S
Mg344 O359 2.013 . S
Mg344 O365 2.114 . S
O345 Mg344 1.915 . S
O345 Mg346 1.936 . S
O345 Mg347 1.963 . S
Mg346 O345 1.936 . S
Mg346 O355 2.291 . S
Mg346 O360 2.081 . S
Mg346 O362 2.023 . S
Mg346 O366 2.031 . S
Mg347 O345 1.963 . S
Mg347 O351 1.986 . S
Mg347 O363 1.942 . S
Mg347 O364 1.955 . S
C348 O359 1.191 . S
C348 O361 1.307 . S
O349 Mg344 2.013 . S
O349 C368 1.191 . S
O350 Mg341 2.081 . S
O350 C358 1.331 . S
O351 Mg347 1.986 . S
O351 C368 1.307 . S
O352 Mg341 2.023 . S
O352 C367 1.264 . S
O353 Mg342 1.942 . S
O353 C358 1.244 . S
O354 Mg342 1.955 . S
O354 C367 1.273 . S
O355 Mg344 2.114 . S
O355 Mg346 2.291 . S
O355 C357 1.312 . S
O356 Mg341 2.031 . S
O356 C357 1.208 . S
C357 O355 1.312 . S
C357 O356 1.208 . S
C358 O350 1.331 . S
C358 O353 1.244 . S
O359 Mg344 2.013 . S
O359 C348 1.191 . S
O360 C339 1.331 . S
O360 Mg346 2.081 . S
O361 Mg342 1.986 . S
O361 C348 1.307 . S
O362 C340 1.264 . S
O362 Mg346 2.023 . S
O363 C339 1.244 . S
O363 Mg347 1.942 . S
O364 C340 1.273 . S
O364 Mg347 1.955 . S
O365 C338 1.312 . S
O365 Mg341 2.291 . S
O365 Mg344 2.114 . S
O366 C338 1.208 . S
O366 Mg346 2.031 . S
C367 O352 1.264 . S
C367 O354 1.273 . S
C368 O349 1.191 . S
C368 O351 1.307 . S
C369 C370 1.369 . S
C369 C371 1.419 . S
C369 H373 0.930 . S
C370 C369 1.369 . S
C370 C379 1.429 . S
C371 C369 1.419 . S
C371 C372 1.363 . S
C371 H374 0.929 . S
C372 C371 1.363 . S
C372 C378 1.428 . S
H373 C369 0.930 . S
H374 C371 0.929 . S
S375 N376 1.613 . S
S375 N377 1.610 . S
N376 S375 1.613 . S
N376 C379 1.350 . S
N377 S375 1.610 . S
N377 C378 1.351 . S
C378 C372 1.428 . S
C378 N377 1.351 . S
C378 C379 1.434 . S
C379 C370 1.429 . S
C379 N376 1.350 . S
C379 C378 1.434 . S
C380 C381 1.369 . S
C380 C382 1.419 . S
C380 H384 0.930 . S
C381 C380 1.369 . S
C381 C390 1.429 . S
C382 C380 1.419 . S
C382 C383 1.363 . S
C382 H385 0.929 . S
C383 C382 1.363 . S
C383 C389 1.428 . S
H384 C380 0.930 . S
H385 C382 0.929 . S
S386 N387 1.613 . S
S386 N388 1.610 . S
N387 S386 1.613 . S
N387 C390 1.350 . S
N388 S386 1.610 . S
N388 C389 1.351 . S
C389 C383 1.428 . S
C389 N388 1.351 . S
C389 C390 1.434 . S
C390 C381 1.429 . S
C390 N387 1.350 . S
C390 C389 1.434 . S
C391 C392 1.369 . S
C391 C393 1.419 . S
C391 H395 0.930 . S
C392 C391 1.369 . S
C392 C401 1.429 . S
C393 C391 1.419 . S
C393 C394 1.363 . S
C393 H396 0.929 . S
C394 C393 1.363 . S
C394 C400 1.428 . S
H395 C391 0.930 . S
H396 C393 0.929 . S
S397 N398 1.613 . S
S397 N399 1.610 . S
N398 S397 1.613 . S
N398 C401 1.350 . S
N399 S397 1.610 . S
N399 C400 1.351 . S
C400 C394 1.428 . S
C400 N399 1.351 . S
C400 C401 1.434 . S
C401 C392 1.429 . S
C401 N398 1.350 . S
C401 C400 1.434 . S
C402 C403 1.369 . S
C402 C404 1.419 . S
C402 H406 0.930 . S
C403 C402 1.369 . S
C403 C412 1.429 . S
C404 C402 1.419 . S
C404 C405 1.363 . S
C404 H407 0.929 . S
C405 C404 1.363 . S
C405 C411 1.428 . S
H406 C402 0.930 . S
H407 C404 0.929 . S
S408 N409 1.613 . S
S408 N410 1.610 . S
N409 S408 1.613 . S
N409 C412 1.350 . S
N410 S408 1.610 . S
N410 C411 1.351 . S
C411 C405 1.428 . S
C411 N410 1.351 . S
C411 C412 1.434 . S
C412 C403 1.429 . S
C412 N409 1.350 . S
C412 C411 1.434 . S
C413 C414 1.369 . S
C413 C415 1.419 . S
C413 H417 0.930 . S
C414 C413 1.369 . S
C414 C423 1.429 . S
C415 C413 1.419 . S
C415 C416 1.363 . S
C415 H418 0.929 . S
C416 C415 1.363 . S
C416 C422 1.428 . S
H417 C413 0.930 . S
H418 C415 0.929 . S
S419 N420 1.613 . S
S419 N421 1.610 . S
N420 S419 1.613 . S
N420 C423 1.350 . S
N421 S419 1.610 . S
N421 C422 1.351 . S
C422 C416 1.428 . S
C422 N421 1.351 . S
C422 C423 1.434 . S
C423 C414 1.429 . S
C423 N420 1.350 . S
C423 C422 1.434 . S
C424 C425 1.369 . S
C424 C426 1.419 . S
C424 H428 0.930 . S
C425 C424 1.369 . S
C425 C434 1.429 . S
C426 C424 1.419 . S
C426 C427 1.363 . S
C426 H429 0.929 . S
C427 C426 1.363 . S
C427 C433 1.428 . S
H428 C424 0.930 . S
H429 C426 0.929 . S
S430 N431 1.613 . S
S430 N432 1.610 . S
N431 S430 1.613 . S
N431 C434 1.350 . S
N432 S430 1.610 . S
N432 C433 1.351 . S
C433 C427 1.428 . S
C433 N432 1.351 . S
C433 C434 1.434 . S
C434 C425 1.429 . S
C434 N431 1.350 . S
C434 C433 1.434 . S
C435 C436 1.369 . S
C435 C437 1.419 . S
C435 H439 0.930 . S
C436 C435 1.369 . S
C436 C445 1.429 . S
C437 C435 1.419 . S
C437 C438 1.363 . S
C437 H440 0.929 . S
C438 C437 1.363 . S
C438 C444 1.428 . S
H439 C435 0.930 . S
H440 C437 0.929 . S
S441 N442 1.613 . S
S441 N443 1.610 . S
N442 S441 1.613 . S
N442 C445 1.350 . S
N443 S441 1.610 . S
N443 C444 1.351 . S
C444 C438 1.428 . S
C444 N443 1.351 . S
C444 C445 1.434 . S
C445 C436 1.429 . S
C445 N442 1.350 . S
C445 C444 1.434 . S
C446 C447 1.369 . S
C446 C448 1.419 . S
C446 H450 0.930 . S
C447 C446 1.369 . S
C447 C456 1.429 . S
C448 C446 1.419 . S
C448 C449 1.363 . S
C448 H451 0.929 . S
C449 C448 1.363 . S
C449 C455 1.428 . S
H450 C446 0.930 . S
H451 C448 0.929 . S
S452 N453 1.613 . S
S452 N454 1.610 . S
N453 S452 1.613 . S
N453 C456 1.350 . S
N454 S452 1.610 . S
N454 C455 1.351 . S
C455 C449 1.428 . S
C455 N454 1.351 . S
C455 C456 1.434 . S
C456 C447 1.429 . S
C456 N453 1.350 . S
C456 C455 1.434 . S
C457 C458 1.369 . S
C457 C459 1.419 . S
C457 H461 0.930 . S
C458 C457 1.369 . S
C458 C467 1.429 . S
C459 C457 1.419 . S
C459 C460 1.363 . S
C459 H462 0.929 . S
C460 C459 1.363 . S
C460 C466 1.428 . S
H461 C457 0.930 . S
H462 C459 0.929 . S
S463 N464 1.613 . S
S463 N465 1.610 . S
N464 S463 1.613 . S
N464 C467 1.350 . S
N465 S463 1.610 . S
N465 C466 1.351 . S
C466 C460 1.428 . S
C466 N465 1.351 . S
C466 C467 1.434 . S
C467 C458 1.429 . S
C467 N464 1.350 . S
C467 C466 1.434 . S
C468 C469 1.369 . S
C468 C470 1.419 . S
C468 H472 0.930 . S
C469 C468 1.369 . S
C469 C478 1.429 . S
C470 C468 1.419 . S
C470 C471 1.363 . S
C470 H473 0.929 . S
C471 C470 1.363 . S
C471 C477 1.428 . S
H472 C468 0.930 . S
H473 C470 0.929 . S
S474 N475 1.613 . S
S474 N476 1.610 . S
N475 S474 1.613 . S
N475 C478 1.350 . S
N476 S474 1.610 . S
N476 C477 1.351 . S
C477 C471 1.428 . S
C477 N476 1.351 . S
C477 C478 1.434 . S
C478 C469 1.429 . S
C478 N475 1.350 . S
C478 C477 1.434 . S
C479 C480 1.369 . S
C479 C481 1.419 . S
C479 H483 0.930 1_556 S
C480 C479 1.369 . S
C480 C489 1.429 . S
C481 C479 1.419 . S
C481 C482 1.363 . S
C481 H484 0.929 . S
C482 C481 1.363 . S
C482 C488 1.428 . S
H483 C479 0.930 1_554 S
H484 C481 0.929 . S
S485 N486 1.613 . S
S485 N487 1.610 . S
N486 S485 1.613 . S
N486 C489 1.350 . S
N487 S485 1.610 . S
N487 C488 1.351 . S
C488 C482 1.428 . S
C488 N487 1.351 . S
C488 C489 1.434 . S
C489 C480 1.429 . S
C489 N486 1.350 . S
C489 C488 1.434 . S
C490 C491 1.369 . S
C490 C492 1.419 . S
C490 H494 0.930 . S
C491 C490 1.369 . S
C491 C500 1.429 . S
C492 C490 1.419 . S
C492 C493 1.363 . S
C492 H495 0.929 . S
C493 C492 1.363 . S
C493 C499 1.428 . S
H494 C490 0.930 . S
H495 C492 0.929 . S
S496 N497 1.613 1_554 S
S496 N498 1.610 1_554 S
N497 S496 1.613 1_556 S
N497 C500 1.350 . S
N498 S496 1.610 1_556 S
N498 C499 1.351 . S
C499 C493 1.428 . S
C499 N498 1.351 . S
C499 C500 1.434 . S
C500 C491 1.429 . S
C500 N497 1.350 . S
C500 C499 1.434 . S
C501 C502 1.369 . S
C501 C503 1.419 . S
C501 H505 0.930 . S
C502 C501 1.369 . S
C502 C511 1.429 . S
C503 C501 1.419 . S
C503 C504 1.363 . S
C503 H506 0.929 . S
C504 C503 1.363 . S
C504 C510 1.428 . S
H505 C501 0.930 . S
H506 C503 0.929 . S
S507 N508 1.613 . S
S507 N509 1.610 . S
N508 S507 1.613 . S
N508 C511 1.350 . S
N509 S507 1.610 . S
N509 C510 1.351 . S
C510 C504 1.428 . S
C510 N509 1.351 . S
C510 C511 1.434 . S
C511 C502 1.429 . S
C511 N508 1.350 . S
C511 C510 1.434 . S
C512 C513 1.369 . S
C512 C514 1.419 . S
C512 H516 0.930 . S
C513 C512 1.369 . S
C513 C522 1.429 . S
C514 C512 1.419 . S
C514 C515 1.363 . S
C514 H517 0.929 . S
C515 C514 1.363 . S
C515 C521 1.428 . S
H516 C512 0.930 . S
H517 C514 0.929 . S
S518 N519 1.613 . S
S518 N520 1.610 . S
N519 S518 1.613 . S
N519 C522 1.350 . S
N520 S518 1.610 . S
N520 C521 1.351 . S
C521 C515 1.428 . S
C521 N520 1.351 . S
C521 C522 1.434 . S
C522 C513 1.429 . S
C522 N519 1.350 . S
C522 C521 1.434 . S
C523 C524 1.369 . S
C523 C525 1.419 . S
C523 H527 0.930 1_556 S
C524 C523 1.369 . S
C524 C533 1.429 . S
C525 C523 1.419 . S
C525 C526 1.363 . S
C525 H528 0.929 . S
C526 C525 1.363 . S
C526 C532 1.428 . S
H527 C523 0.930 1_554 S
H528 C525 0.929 . S
S529 N530 1.613 . S
S529 N531 1.610 . S
N530 S529 1.613 . S
N530 C533 1.350 . S
N531 S529 1.610 . S
N531 C532 1.351 . S
C532 C526 1.428 . S
C532 N531 1.351 . S
C532 C533 1.434 . S
C533 C524 1.429 . S
C533 N530 1.350 . S
C533 C532 1.434 . S
C534 C535 1.369 . S
C534 C536 1.419 . S
C534 H538 0.930 . S
C535 C534 1.369 . S
C535 C544 1.429 . S
C536 C534 1.419 . S
C536 C537 1.363 . S
C536 H539 0.929 . S
C537 C536 1.363 . S
C537 C543 1.428 . S
H538 C534 0.930 . S
H539 C536 0.929 . S
S540 N541 1.613 . S
S540 N542 1.610 1_554 S
N541 S540 1.613 . S
N541 C544 1.350 1_554 S
N542 S540 1.610 1_556 S
N542 C543 1.351 . S
C543 C537 1.428 . S
C543 N542 1.351 . S
C543 C544 1.434 . S
C544 C535 1.429 . S
C544 N541 1.350 1_556 S
C544 C543 1.434 . S
C545 C546 1.369 . S
C545 C547 1.419 . S
C545 H549 0.930 . S
C546 C545 1.369 . S
C546 C555 1.429 . S
C547 C545 1.419 . S
C547 C548 1.363 . S
C547 H550 0.929 . S
C548 C547 1.363 . S
C548 C554 1.428 . S
H549 C545 0.930 . S
H550 C547 0.929 . S
S551 N552 1.613 . S
S551 N553 1.610 . S
N552 S551 1.613 . S
N552 C555 1.350 . S
N553 S551 1.610 . S
N553 C554 1.351 . S
C554 C548 1.428 . S
C554 N553 1.351 . S
C554 C555 1.434 . S
C555 C546 1.429 . S
C555 N552 1.350 . S
C555 C554 1.434 . S
C556 C557 1.369 . S
C556 C558 1.419 . S
C556 H560 0.930 . S
C557 C556 1.369 . S
C557 C566 1.429 . S
C558 C556 1.419 . S
C558 C559 1.363 . S
C558 H561 0.929 . S
C559 C558 1.363 . S
C559 C565 1.428 . S
H560 C556 0.930 . S
H561 C558 0.929 . S
S562 N563 1.613 . S
S562 N564 1.610 . S
N563 S562 1.613 . S
N563 C566 1.350 . S
N564 S562 1.610 . S
N564 C565 1.351 . S
C565 C559 1.428 . S
C565 N564 1.351 . S
C565 C566 1.434 . S
C566 C557 1.429 . S
C566 N563 1.350 . S
C566 C565 1.434 . S
C567 C568 1.369 . S
C567 C569 1.419 . S
C567 H571 0.930 . S
C568 C567 1.369 . S
C568 C577 1.429 . S
C569 C567 1.419 . S
C569 C570 1.363 . S
C569 H572 0.929 . S
C570 C569 1.363 . S
C570 C576 1.428 . S
H571 C567 0.930 . S
H572 C569 0.929 . S
S573 N574 1.613 . S
S573 N575 1.610 . S
N574 S573 1.613 . S
N574 C577 1.350 . S
N575 S573 1.610 . S
N575 C576 1.351 . S
C576 C570 1.428 . S
C576 N575 1.351 . S
C576 C577 1.434 . S
C577 C568 1.429 . S
C577 N574 1.350 . S
C577 C576 1.434 . S
C578 C579 1.369 . S
C578 C580 1.419 . S
C578 H582 0.930 . S
C579 C578 1.369 . S
C579 C588 1.429 . S
C580 C578 1.419 . S
C580 C581 1.363 . S
C580 H583 0.929 . S
C581 C580 1.363 . S
C581 C587 1.428 . S
H582 C578 0.930 . S
H583 C580 0.929 . S
S584 N585 1.613 . S
S584 N586 1.610 . S
N585 S584 1.613 . S
N585 C588 1.350 . S
N586 S584 1.610 . S
N586 C587 1.351 . S
C587 C581 1.428 . S
C587 N586 1.351 . S
C587 C588 1.434 . S
C588 C579 1.429 . S
C588 N585 1.350 . S
C588 C587 1.434 . S
C589 C590 1.369 . S
C589 C591 1.419 . S
C589 H593 0.930 . S
C590 C589 1.369 . S
C590 C599 1.429 . S
C591 C589 1.419 . S
C591 C592 1.363 . S
C591 H594 0.929 . S
C592 C591 1.363 . S
C592 C598 1.428 . S
H593 C589 0.930 . S
H594 C591 0.929 . S
S595 N596 1.613 1_455 S
S595 N597 1.610 1_455 S
N596 S595 1.613 1_655 S
N596 C599 1.350 . S
N597 S595 1.610 1_655 S
N597 C598 1.351 . S
C598 C592 1.428 . S
C598 N597 1.351 . S
C598 C599 1.434 . S
C599 C590 1.429 . S
C599 N596 1.350 . S
C599 C598 1.434 . S
C600 C601 1.369 . S
C600 C602 1.419 . S
C600 H604 0.930 . S
C601 C600 1.369 . S
C601 C610 1.429 . S
C602 C600 1.419 . S
C602 C603 1.363 . S
C602 H605 0.929 . S
C603 C602 1.363 . S
C603 C609 1.428 . S
H604 C600 0.930 . S
H605 C602 0.929 . S
S606 N607 1.613 . S
S606 N608 1.610 . S
N607 S606 1.613 . S
N607 C610 1.350 . S
N608 S606 1.610 . S
N608 C609 1.351 . S
C609 C603 1.428 . S
C609 N608 1.351 . S
C609 C610 1.434 . S
C610 C601 1.429 . S
C610 N607 1.350 . S
C610 C609 1.434 . S
C611 C612 1.369 . S
C611 C613 1.419 . S
C611 H615 0.930 . S
C612 C611 1.369 . S
C612 C621 1.429 . S
C613 C611 1.419 . S
C613 C614 1.363 . S
C613 H616 0.929 . S
C614 C613 1.363 . S
C614 C620 1.428 . S
H615 C611 0.930 . S
H616 C613 0.929 . S
S617 N618 1.613 . S
S617 N619 1.610 . S
N618 S617 1.613 . S
N618 C621 1.350 . S
N619 S617 1.610 . S
N619 C620 1.351 . S
C620 C614 1.428 . S
C620 N619 1.351 . S
C620 C621 1.434 . S
C621 C612 1.429 . S
C621 N618 1.350 . S
C621 C620 1.434 . S
C622 C623 1.369 . S
C622 C624 1.419 . S
C622 H626 0.930 . S
C623 C622 1.369 . S
C623 C632 1.429 . S
C624 C622 1.419 . S
C624 C625 1.363 . S
C624 H627 0.929 . S
C625 C624 1.363 . S
C625 C631 1.428 . S
H626 C622 0.930 . S
H627 C624 0.929 . S
S628 N629 1.613 . S
S628 N630 1.610 . S
N629 S628 1.613 . S
N629 C632 1.350 . S
N630 S628 1.610 . S
N630 C631 1.351 . S
C631 C625 1.428 . S
C631 N630 1.351 . S
C631 C632 1.434 . S
C632 C623 1.429 . S
C632 N629 1.350 . S
C632 C631 1.434 . S
C370 C15 1.823 . S
C372 C276 1.731 . S
C381 C47 1.553 . S
C383 C308 1.521 . S
C394 C367 1.822 . S
C392 C100 1.884 . S
C405 C296 1.408 . S
C403 C146 1.458 . S
C414 C192 1.768 . S
C416 C326 1.627 . S
C427 C348 1.367 . S
C425 C245 1.341 . S
C438 C317 1.753 . S
C436 C114 1.750 . S
C447 C160 1.429 . S
C449 C357 1.350 . S
C460 C306 1.668 . S
C458 C206 1.683 . S
C469 C231 1.519 . S
C471 C336 1.472 . S
C480 C1 1.815 1_556 S
C482 C339 1.750 . S
C493 C278 1.591 . S
C491 C61 1.602 . S
C504 C286 1.693 . S
C502 C139 1.733 . S
C515 C327 1.495 . S
C513 C185 1.518 . S
C526 C340 1.832 . S
C524 C252 1.895 1_556 S
C537 C277 1.420 . S
C535 C22 1.470 1_556 S
C548 C337 1.596 . S
C546 C54 1.657 . S
C557 C93 1.353 . S
C559 C338 1.338 . S
C570 C307 1.693 . S
C568 C238 1.733 . S
C581 C368 1.344 . S
C579 C8 1.365 . S
C592 C295 1.609 . S
C590 C68 1.702 . S
C603 C309 1.497 . S
C601 C107 1.550 . S
C612 C153 1.808 . S
C614 C358 1.749 . S
C623 C199 1.625 . S
C625 C305 1.596 . S
