# Generated by pormake.
# Topology ptr, (4,4)-cn, num edge types: 1
# Building blocks:
#     Node 0, Type 0, BuildingBlock: AZAVOO_clean_sbu_0, # of connection points: 4
#     Node 1, Type 0, BuildingBlock: AZAVOO_clean_sbu_0, # of connection points: 4
#     Node 2, Type 0, BuildingBlock: AZAVOO_clean_sbu_0, # of connection points: 4
#     Node 3, Type 0, BuildingBlock: AZAVOO_clean_sbu_0, # of connection points: 4
#     Node 4, Type 0, BuildingBlock: AZAVOO_clean_sbu_0, # of connection points: 4
#     Node 5, Type 0, BuildingBlock: AZAVOO_clean_sbu_0, # of connection points: 4
#     Node 6, Type 0, BuildingBlock: AZAVOO_clean_sbu_0, # of connection points: 4
#     Node 7, Type 0, BuildingBlock: AZAVOO_clean_sbu_0, # of connection points: 4
#     Node 8, Type 0, BuildingBlock: AZAVOO_clean_sbu_0, # of connection points: 4
#     Node 9, Type 0, BuildingBlock: AZAVOO_clean_sbu_0, # of connection points: 4
#     Node 10, Type 0, BuildingBlock: AZAVOO_clean_sbu_0, # of connection points: 4
#     Node 11, Type 0, BuildingBlock: AZAVOO_clean_sbu_0, # of connection points: 4
#     Node 12, Type 0, BuildingBlock: AZAVOO_clean_sbu_0, # of connection points: 4
#     Node 13, Type 0, BuildingBlock: AZAVOO_clean_sbu_0, # of connection points: 4
#     Node 14, Type 0, BuildingBlock: AZAVOO_clean_sbu_0, # of connection points: 4
#     Node 15, Type 0, BuildingBlock: AZAVOO_clean_sbu_0, # of connection points: 4
#     Node 16, Type 0, BuildingBlock: AZAVOO_clean_sbu_0, # of connection points: 4
#     Node 17, Type 0, BuildingBlock: AZAVOO_clean_sbu_0, # of connection points: 4
#     Node 18, Type 1, BuildingBlock: KUFVIS_clean_linker_0, # of connection points: 4
#     Node 19, Type 1, BuildingBlock: KUFVIS_clean_linker_0, # of connection points: 4
#     Node 20, Type 1, BuildingBlock: KUFVIS_clean_linker_0, # of connection points: 4
#     Node 21, Type 1, BuildingBlock: KUFVIS_clean_linker_0, # of connection points: 4
#     Node 22, Type 1, BuildingBlock: KUFVIS_clean_linker_0, # of connection points: 4
#     Node 23, Type 1, BuildingBlock: KUFVIS_clean_linker_0, # of connection points: 4
#     Node 24, Type 1, BuildingBlock: KUFVIS_clean_linker_0, # of connection points: 4
#     Node 25, Type 1, BuildingBlock: KUFVIS_clean_linker_0, # of connection points: 4
#     Node 26, Type 1, BuildingBlock: KUFVIS_clean_linker_0, # of connection points: 4
#     Node 27, Type 1, BuildingBlock: KUFVIS_clean_linker_0, # of connection points: 4
#     Node 28, Type 1, BuildingBlock: KUFVIS_clean_linker_0, # of connection points: 4
#     Node 29, Type 1, BuildingBlock: KUFVIS_clean_linker_0, # of connection points: 4
#     Node 30, Type 1, BuildingBlock: KUFVIS_clean_linker_0, # of connection points: 4
#     Node 31, Type 1, BuildingBlock: KUFVIS_clean_linker_0, # of connection points: 4
#     Node 32, Type 1, BuildingBlock: KUFVIS_clean_linker_0, # of connection points: 4
#     Node 33, Type 1, BuildingBlock: KUFVIS_clean_linker_0, # of connection points: 4
#     Node 34, Type 1, BuildingBlock: KUFVIS_clean_linker_0, # of connection points: 4
#     Node 35, Type 1, BuildingBlock: KUFVIS_clean_linker_0, # of connection points: 4
#     Edge 36, Type (0, 1), BuildingBlock: MIFKUJ_clean_linker_0, # of connection points: 2
#     Edge 37, Type (0, 1), BuildingBlock: MIFKUJ_clean_linker_0, # of connection points: 2
#     Edge 38, Type (0, 1), BuildingBlock: MIFKUJ_clean_linker_0, # of connection points: 2
#     Edge 39, Type (0, 1), BuildingBlock: MIFKUJ_clean_linker_0, # of connection points: 2
#     Edge 40, Type (0, 1), BuildingBlock: MIFKUJ_clean_linker_0, # of connection points: 2
#     Edge 41, Type (0, 1), BuildingBlock: MIFKUJ_clean_linker_0, # of connection points: 2
#     Edge 42, Type (0, 1), BuildingBlock: MIFKUJ_clean_linker_0, # of connection points: 2
#     Edge 43, Type (0, 1), BuildingBlock: MIFKUJ_clean_linker_0, # of connection points: 2
#     Edge 44, Type (0, 1), BuildingBlock: MIFKUJ_clean_linker_0, # of connection points: 2
#     Edge 45, Type (0, 1), BuildingBlock: MIFKUJ_clean_linker_0, # of connection points: 2
#     Edge 46, Type (0, 1), BuildingBlock: MIFKUJ_clean_linker_0, # of connection points: 2
#     Edge 47, Type (0, 1), BuildingBlock: MIFKUJ_clean_linker_0, # of connection points: 2
#     Edge 48, Type (0, 1), BuildingBlock: MIFKUJ_clean_linker_0, # of connection points: 2
#     Edge 49, Type (0, 1), BuildingBlock: MIFKUJ_clean_linker_0, # of connection points: 2
#     Edge 50, Type (0, 1), BuildingBlock: MIFKUJ_clean_linker_0, # of connection points: 2
#     Edge 51, Type (0, 1), BuildingBlock: MIFKUJ_clean_linker_0, # of connection points: 2
#     Edge 52, Type (0, 1), BuildingBlock: MIFKUJ_clean_linker_0, # of connection points: 2
#     Edge 53, Type (0, 1), BuildingBlock: MIFKUJ_clean_linker_0, # of connection points: 2
#     Edge 54, Type (0, 1), BuildingBlock: MIFKUJ_clean_linker_0, # of connection points: 2
#     Edge 55, Type (0, 1), BuildingBlock: MIFKUJ_clean_linker_0, # of connection points: 2
#     Edge 56, Type (0, 1), BuildingBlock: MIFKUJ_clean_linker_0, # of connection points: 2
#     Edge 57, Type (0, 1), BuildingBlock: MIFKUJ_clean_linker_0, # of connection points: 2
#     Edge 58, Type (0, 1), BuildingBlock: MIFKUJ_clean_linker_0, # of connection points: 2
#     Edge 59, Type (0, 1), BuildingBlock: MIFKUJ_clean_linker_0, # of connection points: 2
#     Edge 60, Type (0, 1), BuildingBlock: MIFKUJ_clean_linker_0, # of connection points: 2
#     Edge 61, Type (0, 1), BuildingBlock: MIFKUJ_clean_linker_0, # of connection points: 2
#     Edge 62, Type (0, 1), BuildingBlock: MIFKUJ_clean_linker_0, # of connection points: 2
#     Edge 63, Type (0, 1), BuildingBlock: MIFKUJ_clean_linker_0, # of connection points: 2
#     Edge 64, Type (0, 1), BuildingBlock: MIFKUJ_clean_linker_0, # of connection points: 2
#     Edge 65, Type (0, 1), BuildingBlock: MIFKUJ_clean_linker_0, # of connection points: 2
#     Edge 66, Type (0, 1), BuildingBlock: MIFKUJ_clean_linker_0, # of connection points: 2
#     Edge 67, Type (0, 1), BuildingBlock: MIFKUJ_clean_linker_0, # of connection points: 2
#     Edge 68, Type (0, 1), BuildingBlock: MIFKUJ_clean_linker_0, # of connection points: 2
#     Edge 69, Type (0, 1), BuildingBlock: MIFKUJ_clean_linker_0, # of connection points: 2
#     Edge 70, Type (0, 1), BuildingBlock: MIFKUJ_clean_linker_0, # of connection points: 2
#     Edge 71, Type (0, 1), BuildingBlock: MIFKUJ_clean_linker_0, # of connection points: 2
#     Edge 72, Type (0, 1), BuildingBlock: MIFKUJ_clean_linker_0, # of connection points: 2
#     Edge 73, Type (0, 1), BuildingBlock: MIFKUJ_clean_linker_0, # of connection points: 2
#     Edge 74, Type (0, 1), BuildingBlock: MIFKUJ_clean_linker_0, # of connection points: 2
#     Edge 75, Type (0, 1), BuildingBlock: MIFKUJ_clean_linker_0, # of connection points: 2
#     Edge 76, Type (0, 1), BuildingBlock: MIFKUJ_clean_linker_0, # of connection points: 2
#     Edge 77, Type (0, 1), BuildingBlock: MIFKUJ_clean_linker_0, # of connection points: 2
#     Edge 78, Type (0, 1), BuildingBlock: MIFKUJ_clean_linker_0, # of connection points: 2
#     Edge 79, Type (0, 1), BuildingBlock: MIFKUJ_clean_linker_0, # of connection points: 2
#     Edge 80, Type (0, 1), BuildingBlock: MIFKUJ_clean_linker_0, # of connection points: 2
#     Edge 81, Type (0, 1), BuildingBlock: MIFKUJ_clean_linker_0, # of connection points: 2
#     Edge 82, Type (0, 1), BuildingBlock: MIFKUJ_clean_linker_0, # of connection points: 2
#     Edge 83, Type (0, 1), BuildingBlock: MIFKUJ_clean_linker_0, # of connection points: 2
#     Edge 84, Type (0, 1), BuildingBlock: MIFKUJ_clean_linker_0, # of connection points: 2
#     Edge 85, Type (0, 1), BuildingBlock: MIFKUJ_clean_linker_0, # of connection points: 2
#     Edge 86, Type (0, 1), BuildingBlock: MIFKUJ_clean_linker_0, # of connection points: 2
#     Edge 87, Type (0, 1), BuildingBlock: MIFKUJ_clean_linker_0, # of connection points: 2
#     Edge 88, Type (0, 1), BuildingBlock: MIFKUJ_clean_linker_0, # of connection points: 2
#     Edge 89, Type (0, 1), BuildingBlock: MIFKUJ_clean_linker_0, # of connection points: 2
#     Edge 90, Type (0, 1), BuildingBlock: MIFKUJ_clean_linker_0, # of connection points: 2
#     Edge 91, Type (0, 1), BuildingBlock: MIFKUJ_clean_linker_0, # of connection points: 2
#     Edge 92, Type (0, 1), BuildingBlock: MIFKUJ_clean_linker_0, # of connection points: 2
#     Edge 93, Type (0, 1), BuildingBlock: MIFKUJ_clean_linker_0, # of connection points: 2
#     Edge 94, Type (0, 1), BuildingBlock: MIFKUJ_clean_linker_0, # of connection points: 2
#     Edge 95, Type (0, 1), BuildingBlock: MIFKUJ_clean_linker_0, # of connection points: 2
#     Edge 96, Type (0, 1), BuildingBlock: MIFKUJ_clean_linker_0, # of connection points: 2
#     Edge 97, Type (0, 1), BuildingBlock: MIFKUJ_clean_linker_0, # of connection points: 2
#     Edge 98, Type (0, 1), BuildingBlock: MIFKUJ_clean_linker_0, # of connection points: 2
#     Edge 99, Type (0, 1), BuildingBlock: MIFKUJ_clean_linker_0, # of connection points: 2
#     Edge 100, Type (0, 1), BuildingBlock: MIFKUJ_clean_linker_0, # of connection points: 2
#     Edge 101, Type (0, 1), BuildingBlock: MIFKUJ_clean_linker_0, # of connection points: 2
#     Edge 102, Type (0, 1), BuildingBlock: MIFKUJ_clean_linker_0, # of connection points: 2
#     Edge 103, Type (0, 1), BuildingBlock: MIFKUJ_clean_linker_0, # of connection points: 2
#     Edge 104, Type (0, 1), BuildingBlock: MIFKUJ_clean_linker_0, # of connection points: 2
#     Edge 105, Type (0, 1), BuildingBlock: MIFKUJ_clean_linker_0, # of connection points: 2
#     Edge 106, Type (0, 1), BuildingBlock: MIFKUJ_clean_linker_0, # of connection points: 2
#     Edge 107, Type (0, 1), BuildingBlock: MIFKUJ_clean_linker_0, # of connection points: 2
# Relax obj value: 0.078
# Max RMSD: 0.238
# Mean RMSD: 0.131
data_MOF--net-ptr--node1-AZAVOO_clean_sbu_0--node2-KUFVIS_clean_linker_0--edge1-MIFKUJ_clean_linker_0
_symmetry_space_group_name_H-M    P1
_symmetry_Int_Tables_number       1
_symmetry_cell_setting            triclinic
loop_
_symmetry_equiv_pos_as_xyz
'x, y, z'
_cell_length_a     103.56973
_cell_length_b     102.09497
_cell_length_c     59.550218
_cell_angle_alpha  91.026952
_cell_angle_beta   91.075231
_cell_angle_gamma 120.01587
loop_
_atom_site_label
_atom_site_type_symbol
_atom_site_fract_x
_atom_site_fract_y
_atom_site_fract_z
_atom_type_partial_charge
Mg0 Mg 0.00662 0.35099 0.98741 0.0
O1 O 0.99964 0.36178 0.01586 0.0
O2 O 0.98028 0.36339 0.00187 0.0
Mg3 Mg 0.97428 0.35323 0.96629 0.0
C4 C 0.98975 0.36575 0.01771 0.0
C5 C 0.03479 0.35802 0.01742 0.0
O6 O 0.03831 0.37183 0.01212 0.0
O7 O 0.98671 0.32729 0.9931 0.0
O8 O 0.96785 0.32971 0.97916 0.0
O9 O 0.02111 0.37426 0.9748 0.0
O10 O 0.99765 0.35922 0.96358 0.0
C11 C 0.97284 0.32179 0.98819 0.0
C12 C 0.00947 0.37236 0.9635 0.0
O13 O 0.02207 0.34707 0.01107 0.0
Mg14 Mg 0.65113 0.64716 0.03663 0.0
O15 O 0.63373 0.6344 0.00781 0.0
O16 O 0.61202 0.63115 0.01985 0.0
Mg17 Mg 0.61534 0.6418 0.05501 0.0
C18 C 0.6197 0.62926 0.00497 0.0
C19 C 0.68323 0.65864 0.02478 0.0
O20 O 0.68392 0.66339 0.04566 0.0
O21 O 0.65232 0.66964 0.02873 0.0
O22 O 0.63064 0.66566 0.04195 0.0
O23 O 0.64515 0.62492 0.05086 0.0
O24 O 0.63434 0.63818 0.05988 0.0
C25 C 0.64315 0.67422 0.03302 0.0
C26 C 0.63481 0.62586 0.06139 0.0
O27 O 0.67059 0.65177 0.0145 0.0
Mg28 Mg 0.35042 0.99149 0.97271 0.0
O29 O 0.36775 0.99592 0.00122 0.0
O30 O 0.38947 0.01532 0.9909 0.0
Mg31 Mg 0.38605 0.02378 0.95742 0.0
C32 C 0.38173 0.00503 0.00465 0.0
C33 C 0.31838 0.96941 0.98455 0.0
O34 O 0.31719 0.97297 0.96382 0.0
O35 O 0.34853 0.01198 0.98379 0.0
O36 O 0.3703 0.03102 0.97301 0.0
O37 O 0.35716 0.97633 0.95606 0.0
O38 O 0.36744 1.00081 0.94991 0.0
C39 C 0.35756 0.0261 0.98172 0.0
C40 C 0.36754 0.98832 0.94696 0.0
O41 O 0.33121 0.9757 0.99426 0.0
Mg42 Mg 0.99589 0.6523 0.03635 0.0
O43 O 0.00194 0.64175 0.00627 0.0
O44 O 0.02136 0.63963 0.01861 0.0
Mg45 Mg 0.02791 0.64855 0.05467 0.0
C46 C 0.01176 0.63779 0.00328 0.0
C47 C 0.96677 0.65049 0.01804 0.0
O48 O 0.96178 0.63979 0.03285 0.0
O49 O 0.01619 0.67573 0.03085 0.0
O50 O 0.03483 0.67252 0.04348 0.0
O51 O 0.98085 0.62898 0.04844 0.0
O52 O 0.00463 0.64274 0.05857 0.0
C53 C 0.03005 0.68085 0.03529 0.0
C54 C 0.99237 0.62996 0.0589 0.0
O55 O 0.98069 0.65773 0.01444 0.0
Mg56 Mg 0.35854 0.35878 0.98251 0.0
O57 O 0.37549 0.37048 0.01239 0.0
O58 O 0.39757 0.37516 -0.00032 0.0
Mg59 Mg 0.39514 0.3671 0.96317 0.0
C60 C 0.38955 0.37578 0.01524 0.0
C61 C 0.32584 0.34277 0.99512 0.0
O62 O 0.32543 0.33809 0.97428 0.0
O63 O 0.35866 0.33663 0.98693 0.0
O64 O 0.38078 0.34233 0.9734 0.0
O65 O 0.36299 0.38126 0.97138 0.0
O66 O 0.37577 0.37043 0.9603 0.0
C67 C 0.36833 0.3329 0.9817 0.0
C68 C 0.3741 0.38214 0.96056 0.0
O69 O 0.33849 0.3513 0.00479 0.0
Mg70 Mg 0.65294 0.01179 0.04943 0.0
O71 O 0.63611 0.00703 0.01988 0.0
O72 O 0.61392 0.9888 0.03108 0.0
Mg73 Mg 0.61649 0.98129 0.0658 0.0
C74 C 0.62204 0.99826 0.01658 0.0
C75 C 0.6856 0.03228 0.0371 0.0
O76 O 0.68685 0.02997 0.05846 0.0
O77 O 0.65354 0.99028 0.04078 0.0
O78 O 0.63127 0.97224 0.05177 0.0
O79 O 0.64777 0.02869 0.06412 0.0
O80 O 0.63547 0.00433 0.07164 0.0
C81 C 0.64398 0.97637 0.04342 0.0
C82 C 0.63667 0.01751 0.07357 0.0
O83 O 0.6727 0.02584 0.02759 0.0
Mg84 Mg 0.67677 0.68717 0.31695 0.0
O85 O 0.67081 0.6992 0.34495 0.0
O86 O 0.65222 0.70194 0.33033 0.0
Mg87 Mg 0.64655 0.69254 0.29433 0.0
C88 C 0.66128 0.70368 0.34649 0.0
C89 C 0.69625 0.674 0.33282 0.0
O90 O 0.69139 0.66763 0.31274 0.0
O91 O 0.65544 0.66448 0.32335 0.0
O92 O 0.63826 0.66881 0.30757 0.0
O93 O 0.69329 0.70967 0.30379 0.0
O94 O 0.66949 0.69706 0.29316 0.0
C95 C 0.64189 0.6601 0.31755 0.0
C96 C 0.68224 0.70931 0.29273 0.0
O97 O 0.69137 0.68228 0.34084 0.0
Mg98 Mg 0.31552 0.98065 0.37607 0.0
O99 O 0.29645 0.96925 0.34897 0.0
O100 O 0.2757 0.96548 0.36564 0.0
Mg101 Mg 0.28109 0.97416 0.40203 0.0
C102 C 0.28239 0.96443 0.34849 0.0
C103 C 0.34677 0.99697 0.35603 0.0
O104 O 0.34902 0.0048 0.37489 0.0
O105 O 0.31588 0.00306 0.37238 0.0
O106 O 0.29519 0.99848 0.38985 0.0
O107 O 0.31108 0.95812 0.38712 0.0
O108 O 0.29992 0.97007 0.40071 0.0
C109 C 0.30697 0.00734 0.37948 0.0
C110 C 0.30102 0.95803 0.39975 0.0
O111 O 0.33357 0.98665 0.35049 0.0
Mg112 Mg 0.02305 0.32645 0.30868 0.0
O113 O 0.04065 0.33183 0.33709 0.0
O114 O 0.06278 0.34817 0.32334 0.0
Mg115 Mg 0.05955 0.3538 0.28755 0.0
C116 C 0.05485 0.34 0.33917 0.0
C117 C 0.00167 0.30214 0.34096 0.0
O118 O 0.01144 0.29775 0.33745 0.0
O119 O 0.02442 0.3493 0.31488 0.0
O120 O 0.04648 0.36506 0.30045 0.0
O121 O 0.02676 0.30801 0.29578 0.0
O122 O 0.03923 0.33158 0.28471 0.0
C123 C 0.03449 0.36261 0.3098 0.0
C124 C 0.03747 0.31817 0.28434 0.0
O125 O 0.00383 0.31442 0.33258 0.0
Mg126 Mg 0.6618 0.9832 0.36144 0.0
O127 O 0.66724 0.97171 0.3321 0.0
O128 O 0.68769 0.97098 0.34299 0.0
Mg129 Mg 0.69522 0.98148 0.37817 0.0
C130 C 0.67726 0.96813 0.32858 0.0
C131 C 0.63971 0.99389 0.3473 0.0
O132 O 0.64496 1.00091 0.36689 0.0
O133 O 0.68126 0.00687 0.35356 0.0
O134 O 0.70076 0.00462 0.36491 0.0
O135 O 0.64812 0.96042 0.37594 0.0
O136 O 0.67208 0.97557 0.38411 0.0
C137 C 0.69531 0.01235 0.35671 0.0
C138 C 0.66027 0.96255 0.38592 0.0
O139 O 0.64495 0.98592 0.33929 0.0
Mg140 Mg 0.02348 0.68733 0.32291 0.0
O141 O 0.03986 0.69843 0.35367 0.0
O142 O 0.06158 0.70089 0.34317 0.0
Mg143 Mg 0.05931 0.69106 0.30778 0.0
C144 C 0.05368 0.70285 0.35758 0.0
C145 C 0.9976 0.69097 0.34148 0.0
O146 O 0.00455 0.70303 0.32932 0.0
O147 O 0.02053 0.66393 0.32939 0.0
O148 O 0.04257 0.66714 0.31919 0.0
O149 O 0.03167 0.71054 0.31021 0.0
O150 O 0.04148 0.69632 0.30151 0.0
C151 C 0.02944 0.65886 0.3264 0.0
C152 C 0.04208 0.70919 0.30063 0.0
O153 O 0.00304 0.68228 0.34344 0.0
Mg154 Mg 0.31665 0.34385 0.37556 0.0
O155 O 0.30127 0.34053 0.34459 0.0
O156 O 0.27845 0.32238 0.35367 0.0
Mg157 Mg 0.27894 0.31454 0.38903 0.0
C158 C 0.28733 0.33196 0.3399 0.0
C159 C 0.34088 0.36904 0.34621 0.0
O160 O 0.33112 0.37368 0.34612 0.0
O161 O 0.31604 0.32172 0.3675 0.0
O162 O 0.29321 0.30426 0.37735 0.0
O163 O 0.31238 0.36156 0.38948 0.0
O164 O 0.29846 0.33716 0.39602 0.0
C165 C 0.30605 0.30795 0.36995 0.0
C166 C 0.30055 0.35071 0.39807 0.0
O167 O 0.33779 0.35688 0.35591 0.0
Mg168 Mg 0.34854 0.02523 0.65229 0.0
O169 O 0.34268 0.0369 0.68103 0.0
O170 O 0.32399 0.03978 0.66735 0.0
Mg171 Mg 0.31786 0.03047 0.63131 0.0
C172 C 0.33326 0.04148 0.68317 0.0
C173 C 0.36801 0.01168 0.66891 0.0
O174 O 0.36286 0.00453 0.64938 0.0
O175 O 0.32739 0.00215 0.65776 0.0
O176 O 0.30982 0.00639 0.64315 0.0
O177 O 0.36468 0.04797 0.63928 0.0
O178 O 0.34082 0.03505 0.629 0.0
C179 C 0.31376 0.99763 0.65219 0.0
C180 C 0.35348 0.04741 0.62842 0.0
O181 O 0.36342 0.02044 0.67594 0.0
Mg182 Mg 0.98072 0.31845 0.69789 0.0
O183 O 0.96472 0.30932 0.66658 0.0
O184 O 0.9439 0.30915 0.67645 0.0
Mg185 Mg 0.9464 0.31817 0.71247 0.0
C186 C 0.95141 0.30651 0.66213 0.0
C187 C 0.00932 0.3183 0.68855 0.0
O188 O 0.00569 0.31288 0.70875 0.0
O189 O 0.98605 0.34272 0.69227 0.0
O190 O 0.96498 0.34177 0.70268 0.0
O191 O 0.97058 0.29483 0.70976 0.0
O192 O 0.96252 0.31055 0.71864 0.0
C193 C 0.97831 0.34909 0.69576 0.0
C194 C 0.96078 0.29717 0.71941 0.0
O195 O 1.00076 0.32182 0.67797 0.0
Mg196 Mg 0.68764 0.6595 0.64791 0.0
O197 O 0.7073 0.66794 0.67389 0.0
O198 O 0.72804 0.68258 0.65522 0.0
Mg199 Mg 0.72183 0.68511 0.6193 0.0
C200 C 0.72151 0.67613 0.67309 0.0
C201 C 0.65782 0.64871 0.67121 0.0
O202 O 0.65659 0.65619 0.65436 0.0
O203 O 0.68857 0.68231 0.65081 0.0
O204 O 0.70936 0.69694 0.63244 0.0
O205 O 0.69146 0.6406 0.63778 0.0
O206 O 0.70195 0.66285 0.62187 0.0
C207 C 0.69805 0.69513 0.64323 0.0
C208 C 0.7009 0.64982 0.62379 0.0
O209 O 0.67011 0.64898 0.67461 0.0
Mg210 Mg 0.32585 0.31234 0.70646 0.0
O211 O 0.33347 0.3018 0.67863 0.0
O212 O 0.35041 0.2973 0.69521 0.0
Mg213 Mg 0.3535 0.30433 0.73237 0.0
C214 C 0.3427 0.29691 0.67793 0.0
C215 C 0.30753 0.32646 0.68981 0.0
O216 O 0.30989 0.33023 0.71133 0.0
O217 O 0.34796 0.33506 0.70505 0.0
O218 O 0.36334 0.32924 0.7234 0.0
O219 O 0.30788 0.28921 0.7154 0.0
O220 O 0.33074 0.30043 0.73019 0.0
C221 C 0.3608 0.33883 0.7137 0.0
C222 C 0.31779 0.28845 0.72795 0.0
O223 O 0.31365 0.31947 0.68129 0.0
Mg224 Mg 0.6893 0.01803 0.64521 0.0
O225 O 0.70542 0.02746 0.67635 0.0
O226 O 0.72604 0.027 0.66687 0.0
Mg227 Mg 0.72345 0.01789 0.63089 0.0
C228 C 0.71861 0.02996 0.68092 0.0
C229 C 0.66206 0.02066 0.65657 0.0
O230 O 0.667 0.02853 0.63835 0.0
O231 O 0.68396 0.99386 0.65163 0.0
O232 O 0.70488 0.99446 0.64139 0.0
O233 O 0.69942 0.04153 0.63341 0.0
O234 O 0.70759 0.02586 0.62456 0.0
C235 C 0.6916 0.98735 0.64854 0.0
C236 C 0.70938 0.03929 0.6241 0.0
O237 O 0.66926 0.01476 0.66503 0.0
Mg238 Mg 0.98471 0.67162 0.70396 0.0
O239 O 0.96695 0.66814 0.67654 0.0
O240 O 0.94498 0.65116 0.69023 0.0
Mg241 Mg 0.94835 0.64292 0.72378 0.0
C242 C 0.95268 0.66026 0.67507 0.0
C243 C 0.00634 0.69779 0.67423 0.0
O244 O 0.99661 0.70206 0.67882 0.0
O245 O 0.98324 0.64929 0.69344 0.0
O246 O 0.96134 0.63268 0.70737 0.0
O247 O 0.98133 0.68929 0.72073 0.0
O248 O 0.96862 0.66504 0.72842 0.0
C249 C 0.97321 0.6357 0.69715 0.0
C250 C 0.97047 0.67844 0.73103 0.0
O251 O 0.004 0.68505 0.68086 0.0
H252 H 0.22208 0.33763 0.12635 0.0
H253 H 0.18145 0.32743 0.09142 0.0
H254 H 0.18572 0.33429 0.16384 0.0
H255 H 0.16155 0.31572 0.16041 0.0
H256 H 0.1237 0.31554 0.13011 0.0
H257 H 0.16542 0.33733 0.0969 0.0
C258 C 0.21085 0.33583 0.1268 0.0
C259 C 0.20473 0.33595 0.14743 0.0
C260 C 0.2026 0.33298 0.10671 0.0
C261 C 0.18794 0.33029 0.10705 0.0
C262 C 0.18157 0.33073 0.12766 0.0
C263 C 0.19027 0.33389 0.14779 0.0
C264 C 0.1656 0.32685 0.12835 0.0
C265 C 0.15684 0.31892 0.14665 0.0
C266 C 0.14177 0.31482 0.14723 0.0
C267 C 0.13528 0.31837 0.12934 0.0
C268 C 0.14367 0.3264 0.11119 0.0
C269 C 0.15889 0.33081 0.11078 0.0
H270 H 0.67969 0.89006 0.13305 0.0
H271 H 0.68274 0.85574 0.09521 0.0
H272 H 0.67812 0.8531 0.16765 0.0
H273 H 0.69027 0.84109 0.16627 0.0
H274 H 0.68829 0.80349 0.13054 0.0
H275 H 0.67507 0.83154 0.09625 0.0
C276 C 0.68012 0.87965 0.13255 0.0
C277 C 0.67931 0.87241 0.1525 0.0
C278 C 0.68088 0.87339 0.11192 0.0
C279 C 0.68152 0.85996 0.11134 0.0
C280 C 0.681 0.85246 0.13143 0.0
C281 C 0.67933 0.85869 0.15194 0.0
C282 C 0.68265 0.83858 0.13116 0.0
C283 C 0.6876 0.83447 0.15076 0.0
C284 C 0.68942 0.82176 0.15065 0.0
C285 C 0.68703 0.81342 0.13064 0.0
C286 C 0.68208 0.81709 0.11105 0.0
C287 C 0.67953 0.82937 0.1114 0.0
H288 H 0.21406 0.89119 0.13833 0.0
H289 H 0.18249 0.85005 0.10334 0.0
H290 H 0.17336 0.86066 0.16976 0.0
H291 H 0.16409 0.83545 0.17248 0.0
H292 H 0.12652 0.79836 0.13813 0.0
H293 H 0.15659 0.83688 0.10097 0.0
C294 C 0.20334 0.88082 0.13772 0.0
C295 C 0.19421 0.877 0.15629 0.0
C296 C 0.19911 0.87124 0.11858 0.0
C297 C 0.18541 0.85761 0.1179 0.0
C298 C 0.176 0.85343 0.13646 0.0
C299 C 0.18048 0.86342 0.15546 0.0
C300 C 0.16206 0.83831 0.13674 0.0
C301 C 0.15752 0.83058 0.15708 0.0
C302 C 0.14474 0.81624 0.15769 0.0
C303 C 0.1365 0.80943 0.13779 0.0
C304 C 0.14081 0.81676 0.1174 0.0
C305 C 0.15349 0.83124 0.11683 0.0
H306 H 0.33878 0.1204 0.88944 0.0
H307 H 0.32599 0.14953 0.92249 0.0
H308 H 0.33278 0.15207 0.85076 0.0
H309 H 0.31527 0.15877 0.85148 0.0
H310 H 0.31521 0.19696 0.88187 0.0
H311 H 0.33458 0.17487 0.91844 0.0
C312 C 0.33637 0.12957 0.88853 0.0
C313 C 0.33594 0.13548 0.86771 0.0
C314 C 0.333 0.13476 0.90819 0.0
C315 C 0.32909 0.14605 0.90719 0.0
C316 C 0.32902 0.15261 0.88651 0.0
C317 C 0.33252 0.14717 0.86683 0.0
C318 C 0.32509 0.16488 0.8854 0.0
C319 C 0.31805 0.16644 0.86587 0.0
C320 C 0.31449 0.17797 0.86471 0.0
C321 C 0.31757 0.18778 0.88323 0.0
C322 C 0.32475 0.18673 0.90269 0.0
C323 C 0.32862 0.17535 0.90363 0.0
H324 H 0.791 0.11169 0.87828 0.0
H325 H 0.82129 0.15119 0.91801 0.0
H326 H 0.83089 0.14554 0.8491 0.0
H327 H 0.84041 0.17058 0.85024 0.0
H328 H 0.87684 0.20618 0.88843 0.0
H329 H 0.84697 0.1652 0.92091 0.0
C330 C 0.80141 0.12237 0.88003 0.0
C331 C 0.81051 0.12783 0.8616 0.0
C332 C 0.80526 0.13069 0.9004 0.0
C333 C 0.81868 0.14461 0.90243 0.0
C334 C 0.82815 0.15034 0.88396 0.0
C335 C 0.82392 0.14164 0.86359 0.0
C336 C 0.84185 0.16571 0.88537 0.0
C337 C 0.84662 0.17463 0.86609 0.0
C338 C 0.85921 0.18913 0.86714 0.0
C339 C 0.86703 0.19496 0.88759 0.0
C340 C 0.86261 0.18644 0.90693 0.0
C341 C 0.85011 0.17178 0.90587 0.0
H342 H 0.78762 0.67309 0.88545 0.0
H343 H 0.82303 0.67146 0.92106 0.0
H344 H 0.83039 0.69199 0.85609 0.0
H345 H 0.84434 0.68183 0.85121 0.0
H346 H 0.88433 0.68948 0.88451 0.0
H347 H 0.84794 0.68435 0.92411 0.0
C348 C 0.79913 0.67571 0.88626 0.0
C349 C 0.8083 0.68263 0.86817 0.0
C350 C 0.80453 0.67214 0.90555 0.0
C351 C 0.81926 0.67489 0.90643 0.0
C352 C 0.82873 0.68151 0.88818 0.0
C353 C 0.82317 0.68591 0.8696 0.0
C354 C 0.84413 0.6835 0.88779 0.0
C355 C 0.85056 0.6838 0.86691 0.0
C356 C 0.86511 0.68646 0.86592 0.0
C357 C 0.87325 0.68806 0.88564 0.0
C358 C 0.86701 0.68693 0.90663 0.0
C359 C 0.85249 0.68481 0.90775 0.0
H360 H 0.88087 0.65643 0.46277 0.0
H361 H 0.84523 0.65743 0.42666 0.0
H362 H 0.8488 0.66211 0.49937 0.0
H363 H 0.82411 0.64998 0.49612 0.0
H364 H 0.7951 0.66399 0.46707 0.0
H365 H 0.83318 0.67056 0.43091 0.0
C366 C 0.87069 0.657 0.46293 0.0
C367 C 0.86528 0.65871 0.48341 0.0
C368 C 0.86365 0.65678 0.44255 0.0
C369 C 0.85071 0.65796 0.44258 0.0
C370 C 0.84484 0.65954 0.4631 0.0
C371 C 0.85258 0.66031 0.48341 0.0
C372 C 0.83077 0.66038 0.46358 0.0
C373 C 0.82155 0.65523 0.48243 0.0
C374 C 0.80903 0.65699 0.48401 0.0
C375 C 0.80512 0.66314 0.46618 0.0
C376 C 0.81361 0.66778 0.44693 0.0
C377 C 0.82648 0.66649 0.44563 0.0
H378 H 0.34067 0.22338 0.46954 0.0
H379 H 0.34643 0.19055 0.43248 0.0
H380 H 0.3421 0.1879 0.5048 0.0
H381 H 0.35606 0.17723 0.50241 0.0
H382 H 0.3526 0.13891 0.46642 0.0
H383 H 0.33709 0.1658 0.43444 0.0
C384 C 0.34175 0.21334 0.4694 0.0
C385 C 0.34144 0.20642 0.48959 0.0
C386 C 0.34322 0.20743 0.4489 0.0
C387 C 0.34485 0.19461 0.44852 0.0
C388 C 0.34477 0.18741 0.46866 0.0
C389 C 0.34286 0.19342 0.48915 0.0
C390 C 0.34672 0.17377 0.46824 0.0
C391 C 0.35276 0.17023 0.48719 0.0
C392 C 0.35477 0.15761 0.48665 0.0
C393 C 0.35129 0.1488 0.46686 0.0
C394 C 0.34511 0.15187 0.44809 0.0
C395 C 0.34251 0.16408 0.44888 0.0
H396 H 0.8833 0.22005 0.45845 0.0
H397 H 0.84861 0.18079 0.42364 0.0
H398 H 0.84509 0.18916 0.49443 0.0
H399 H 0.83275 0.16432 0.49493 0.0
H400 H 0.79279 0.12976 0.4621 0.0
H401 H 0.82366 0.16748 0.42439 0.0
C402 C 0.87252 0.20974 0.45868 0.0
C403 C 0.86509 0.2052 0.47882 0.0
C404 C 0.86642 0.20118 0.43883 0.0
C405 C 0.85273 0.18761 0.43901 0.0
C406 C 0.84468 0.18288 0.45906 0.0
C407 C 0.85094 0.19214 0.47883 0.0
C408 C 0.83017 0.16817 0.45966 0.0
C409 C 0.82569 0.16021 0.47987 0.0
C410 C 0.81225 0.14648 0.48076 0.0
C411 C 0.80317 0.14045 0.4614 0.0
C412 C 0.80731 0.1479 0.44108 0.0
C413 C 0.82077 0.16175 0.44017 0.0
H414 H 0.01113 0.45618 0.21777 0.0
H415 H 0.00818 0.49124 0.25295 0.0
H416 H 0.99434 0.48086 0.18242 0.0
H417 H 0.99834 0.50345 0.18084 0.0
H418 H 0.98794 0.53353 0.21588 0.0
H419 H 0.99616 0.50311 0.25369 0.0
C420 C 0.00852 0.46523 0.21749 0.0
C421 C 0.00322 0.46815 0.19756 0.0
C422 C 0.0099 0.47331 0.23737 0.0
C423 C 0.00638 0.4849 0.23738 0.0
C424 C 1.00091 0.48822 0.21752 0.0
C425 C 0.99902 0.47929 0.1978 0.0
C426 C 0.99724 0.50083 0.21726 0.0
C427 C 0.99604 0.50703 0.19671 0.0
C428 C 0.99212 0.51832 0.19631 0.0
C429 C 0.99015 0.52421 0.2164 0.0
C430 C 0.99217 0.51911 0.23707 0.0
C431 C 0.99529 0.50719 0.23746 0.0
H432 H 0.45899 0.44917 0.22079 0.0
H433 H 0.49549 0.48053 0.26373 0.0
H434 H 0.49445 0.48857 0.19249 0.0
H435 H 0.5186 0.50182 0.19696 0.0
H436 H 0.54817 0.54061 0.23798 0.0
H437 H 0.50919 0.50527 0.26696 0.0
C438 C 0.46968 0.45952 0.22295 0.0
C439 C 0.47627 0.46822 0.20433 0.0
C440 C 0.47652 0.46404 0.24432 0.0
C441 C 0.49029 0.47748 0.24709 0.0
C442 C 0.49724 0.48664 0.22853 0.0
C443 C 0.48993 0.48177 0.20709 0.0
C444 C 0.51177 0.50133 0.23152 0.0
C445 C 0.52124 0.50772 0.21313 0.0
C446 C 0.53407 0.52208 0.2152 0.0
C447 C 0.5381 0.52965 0.23613 0.0
C448 C 0.52938 0.52342 0.25478 0.0
C449 C 0.51612 0.50943 0.2525 0.0
H450 H 0.44244 0.98726 0.20933 0.0
H451 H 0.48092 0.99916 0.25176 0.0
H452 H 0.48272 0.99445 0.1797 0.0
H453 H 0.50603 0.01394 0.18701 0.0
H454 H 0.54204 0.01341 0.2225 0.0
H455 H 0.49834 0.99052 0.24966 0.0
C456 C 0.45382 0.98953 0.21124 0.0
C457 C 0.46182 0.99051 0.19207 0.0
C458 C 0.46054 0.99241 0.23277 0.0
C459 C 0.47563 0.99645 0.23515 0.0
C460 C 0.4839 0.99727 0.2161 0.0
C461 C 0.47675 0.99413 0.1946 0.0
C462 C 0.50007 0.00196 0.21839 0.0
C463 C 0.50995 0.0105 0.2015 0.0
C464 C 0.52503 0.01462 0.20299 0.0
C465 C 0.53045 0.0106 0.22168 0.0
C466 C 0.52093 0.00197 0.23848 0.0
C467 C 0.50573 0.99761 0.23692 0.0
H468 H 0.55704 1.0001 0.79675 0.0
H469 H 0.52 0.99988 0.76322 0.0
H470 H 0.52643 0.00663 0.83559 0.0
H471 H 0.50261 0.99649 0.83577 0.0
H472 H 0.47219 0.00896 0.80832 0.0
H473 H 0.50642 0.01095 0.76679 0.0
C474 C 0.54689 1.00067 0.79764 0.0
C475 C 0.54212 0.00266 0.81854 0.0
C476 C 0.53908 0.99986 0.77775 0.0
C477 C 0.52612 0.00101 0.77873 0.0
C478 C 0.52104 0.0032 0.79963 0.0
C479 C 0.52954 0.00443 0.81936 0.0
C480 C 0.507 0.00413 0.80124 0.0
C481 C 0.49932 1.00082 0.82168 0.0
C482 C 0.48727 0.00317 0.82438 0.0
C483 C 0.48193 0.00773 0.80628 0.0
C484 C 0.48847 0.01005 0.78537 0.0
C485 C 0.50114 0.00848 0.78286 0.0
H486 H 0.99712 0.55031 0.80029 0.0
H487 H 1.00014 0.51382 0.76986 0.0
H488 H 0.00961 0.52416 0.84132 0.0
H489 H 0.00182 0.49991 0.84342 0.0
H490 H 0.01253 0.46837 0.81335 0.0
H491 H 0.01381 0.50331 0.77337 0.0
C492 C 0.99918 0.54094 0.80204 0.0
C493 C 0.00288 0.53779 0.82318 0.0
C494 C 0.99862 0.53255 0.7829 0.0
C495 C 1.00137 0.52051 0.78487 0.0
C496 C 0.00522 0.51702 0.80598 0.0
C497 C 0.00628 0.52611 0.82499 0.0
C498 C 0.00779 0.50382 0.80821 0.0
C499 C 0.00559 0.49642 0.82888 0.0
C500 C 0.00753 0.48384 0.83074 0.0
C501 C 0.0115 0.4784 0.81199 0.0
C502 C 0.01347 0.48524 0.7913 0.0
C503 C 0.01185 0.49804 0.78948 0.0
H504 H 0.55346 0.5457 0.80098 0.0
H505 H 0.51302 0.52024 0.76152 0.0
H506 H 0.51381 0.51411 0.83331 0.0
H507 H 0.49091 0.50925 0.83051 0.0
H508 H 0.45196 0.47511 0.79537 0.0
H509 H 0.49366 0.49586 0.76203 0.0
C510 C 0.5418 0.53692 0.79992 0.0
C511 C 0.53434 0.53051 0.81955 0.0
C512 C 0.53424 0.53301 0.77901 0.0
C513 C 0.51885 0.52258 0.77767 0.0
C514 C 0.51108 0.51549 0.79718 0.0
C515 C 0.51917 0.51947 0.81802 0.0
C516 C 0.49458 0.50445 0.79613 0.0
C517 C 0.48594 0.50259 0.81519 0.0
C518 C 0.47072 0.49187 0.81503 0.0
C519 C 0.46369 0.48363 0.79525 0.0
C520 C 0.47184 0.48511 0.77603 0.0
C521 C 0.48734 0.49532 0.7766 0.0
H522 H 0.67607 0.78952 0.54651 0.0
H523 H 0.66999 0.82163 0.58468 0.0
H524 H 0.65811 0.81396 0.51336 0.0
H525 H 0.66193 0.83681 0.51442 0.0
H526 H 0.64875 0.86361 0.55301 0.0
H527 H 0.65552 0.8309 0.58619 0.0
C528 C 0.67287 0.79815 0.54708 0.0
C529 C 0.66773 0.80157 0.52744 0.0
C530 C 0.67325 0.80508 0.56766 0.0
C531 C 0.66889 0.81604 0.56861 0.0
C532 C 0.66353 0.81978 0.54906 0.0
C533 C 0.66266 0.81201 0.52858 0.0
C534 C 0.65898 0.83171 0.54999 0.0
C535 C 0.65867 0.83926 0.53036 0.0
C536 C 0.65446 0.8504 0.53114 0.0
C537 C 0.65105 0.85439 0.55186 0.0
C538 C 0.65183 0.84763 0.57157 0.0
C539 C 0.65544 0.83613 0.57063 0.0
H540 H 0.12238 0.79033 0.558 0.0
H541 H 0.16228 0.81782 0.5974 0.0
H542 H 0.16209 0.82072 0.5247 0.0
H543 H 0.18534 0.8274 0.52867 0.0
H544 H 0.22323 0.86334 0.56359 0.0
H545 H 0.18137 0.84165 0.59607 0.0
C546 C 0.13402 0.79911 0.55877 0.0
C547 C 0.14153 0.80479 0.53894 0.0
C548 C 0.14141 0.804 0.57968 0.0
C549 C 0.15669 0.81471 0.58103 0.0
C550 C 0.1646 0.82105 0.56128 0.0
C551 C 0.15669 0.816 0.54025 0.0
C552 C 0.18101 0.83257 0.56243 0.0
C553 C 0.18996 0.83443 0.54376 0.0
C554 C 0.20504 0.84567 0.54395 0.0
C555 C 0.21165 0.85438 0.56356 0.0
C556 C 0.20325 0.85278 0.58247 0.0
C557 C 0.18787 0.84216 0.58174 0.0
H558 H 0.11727 0.33331 0.55843 0.0
H559 H 0.15702 0.34083 0.59343 0.0
H560 H 0.15459 0.33981 0.52059 0.0
H561 H 0.17846 0.35648 0.52495 0.0
H562 H 0.21454 0.35177 0.55104 0.0
H563 H 0.17366 0.33252 0.58651 0.0
C564 C 0.12859 0.33534 0.55789 0.0
C565 C 0.1353 0.33703 0.53723 0.0
C566 C 0.13626 0.33646 0.578 0.0
C567 C 0.15103 0.33938 0.57765 0.0
C568 C 0.15798 0.34069 0.55692 0.0
C569 C 0.14975 0.33911 0.53677 0.0
C570 C 0.17386 0.34414 0.55605 0.0
C571 C 0.18272 0.35221 0.53789 0.0
C572 C 0.19727 0.35486 0.53609 0.0
C573 C 0.20332 0.34991 0.55272 0.0
C574 C 0.19493 0.34195 0.5709 0.0
C575 C 0.18021 0.33909 0.5727 0.0
H576 H 0.01118 0.37848 0.05168 0.0
H577 H 0.0128 0.39572 0.08208 0.0
H578 H 0.97068 0.39068 0.05953 0.0
H579 H 0.96908 0.37369 0.02898 0.0
H580 H 0.99025 0.41953 0.06687 0.0
H581 H 0.97407 0.37427 0.10788 0.0
H582 H 0.97475 0.3519 0.12127 0.0
H583 H 0.01813 0.38067 0.1519 0.0
H584 H 0.01779 0.40322 0.13843 0.0
H585 H 0.97997 0.45462 0.1663 0.0
H586 H 0.97722 0.43741 0.13487 0.0
H587 H 0.02083 0.44392 0.15121 0.0
H588 H 0.02375 0.46123 0.18219 0.0
H589 H 0.99959 0.41398 0.14717 0.0
H590 H 0.01552 0.45927 0.1057 0.0
H591 H 0.01442 0.48143 0.09242 0.0
H592 H 0.97079 0.45221 0.06288 0.0
H593 H 0.97154 0.42986 0.07629 0.0
C594 C 0.00215 0.38084 0.05339 0.0
C595 C 0.99 0.37466 0.03785 0.0
C596 C 0.00309 0.39072 0.07079 0.0
C597 C 0.99183 0.39447 0.07316 0.0
C598 C 0.97953 0.38802 0.05801 0.0
C599 C 0.97861 0.37823 0.04059 0.0
C600 C 0.99307 0.40553 0.0909 0.0
C601 C 0.99207 0.41818 0.08448 0.0
C602 C 0.99573 0.40396 0.11382 0.0
C603 C 0.99596 0.39042 0.12195 0.0
C604 C 0.9838 0.37582 0.11731 0.0
C605 C 0.98412 0.36311 0.12495 0.0
C606 C 0.99649 0.36486 0.13738 0.0
C607 C 0.00856 0.37933 0.14225 0.0
C608 C 0.00831 0.39208 0.13463 0.0
C609 C 0.98908 0.45262 0.16287 0.0
C610 C 0.00202 0.45918 0.17685 0.0
C611 C 0.98748 0.44274 0.14499 0.0
C612 C 0.9988 0.43932 0.1408 0.0
C613 C 0.01191 0.44628 0.15426 0.0
C614 C 0.01354 0.45616 0.17198 0.0
C615 C 0.99684 0.42798 0.12312 0.0
C616 C 0.99771 0.41527 0.12956 0.0
C617 C 0.99398 0.42946 0.10027 0.0
C618 C 0.9935 0.44289 0.09226 0.0
C619 C 0.00562 0.45757 0.09658 0.0
C620 C 0.00508 0.47017 0.08898 0.0
C621 C 0.99252 0.46823 0.07689 0.0
C622 C 0.9805 0.45369 0.0723 0.0
C623 C 0.98098 0.44105 0.07989 0.0
H624 H 0.99213 0.478 0.07101 0.0
H625 H 0.99671 0.35501 0.14327 0.0
H626 H 0.62847 0.59641 0.05952 0.0
H627 H 0.61049 0.57551 0.08197 0.0
H628 H 0.59804 0.60557 0.11416 0.0
H629 H 0.61577 0.62639 0.09172 0.0
H630 H 0.60713 0.58921 0.14356 0.0
H631 H 0.57481 0.58141 0.07857 0.0
H632 H 0.56783 0.57657 0.03821 0.0
H633 H 0.56787 0.53458 0.0405 0.0
H634 H 0.57511 0.5393 0.08083 0.0
H635 H 0.54345 0.55087 0.20347 0.0
H636 H 0.56067 0.56513 0.17433 0.0
H637 H 0.56235 0.52542 0.15306 0.0
H638 H 0.54505 0.51095 0.18277 0.0
H639 H 0.5605 0.54329 0.11671 0.0
H640 H 0.59337 0.5504 0.17934 0.0
H641 H 0.60312 0.55542 0.21853 0.0
H642 H 0.60309 0.59748 0.22004 0.0
H643 H 0.59373 0.59288 0.18058 0.0
C644 C 0.6218 0.59851 0.07127 0.0
C645 C 0.62354 0.61303 0.07396 0.0
C646 C 0.61151 0.58656 0.08395 0.0
C647 C 0.60297 0.58905 0.09962 0.0
C648 C 0.60454 0.60347 0.10208 0.0
C649 C 0.61465 0.61533 0.08924 0.0
C650 C 0.59311 0.57701 0.1147 0.0
C651 C 0.5969 0.57921 0.13768 0.0
C652 C 0.58014 0.56367 0.10685 0.0
C653 C 0.57569 0.5608 0.08265 0.0
C654 C 0.57349 0.57122 0.07042 0.0
C655 C 0.56945 0.56848 0.04756 0.0
C656 C 0.56745 0.5553 0.03678 0.0
C657 C 0.56945 0.5448 0.04886 0.0
C658 C 0.57352 0.5475 0.07173 0.0
C659 C 0.54745 0.54513 0.1926 0.0
C660 C 0.54311 0.52987 0.19561 0.0
C661 C 0.55727 0.55329 0.17595 0.0
C662 C 0.56297 0.54639 0.16185 0.0
C663 C 0.55811 0.53094 0.16392 0.0
C664 C 0.54823 0.5227 0.18078 0.0
C665 C 0.57434 0.55579 0.14562 0.0
C666 C 0.57087 0.55315 0.12248 0.0
C667 C 0.58779 0.56868 0.15318 0.0
C668 C 0.59277 0.57124 0.17713 0.0
C669 C 0.59536 0.56067 0.1881 0.0
C670 C 0.60091 0.56349 0.21029 0.0
C671 C 0.60366 0.57673 0.22182 0.0
C672 C 0.60096 0.58723 0.2111 0.0
C673 C 0.59564 0.58458 0.18877 0.0
H674 H 0.60789 0.57885 0.23905 0.0
H675 H 0.56432 0.5532 0.01908 0.0
H676 H 0.3703 0.98271 0.03575 0.0
H677 H 0.38394 0.97841 0.06598 0.0
H678 H 0.42461 0.01817 0.04782 0.0
H679 H 0.41119 0.02241 0.01741 0.0
H680 H 0.42973 0.99564 0.05502 0.0
H681 H 0.40518 0.01819 0.0942 0.0
H682 H 0.3838 0.02078 0.10573 0.0
H683 H 0.36353 0.97672 0.13403 0.0
H684 H 0.38472 0.97378 0.1224 0.0
H685 H 0.47329 0.00923 0.15669 0.0
H686 H 0.45975 0.00954 0.12275 0.0
H687 H 0.42054 0.96904 0.14305 0.0
H688 H 0.43401 0.96875 0.17704 0.0
H689 H 0.41414 0.99055 0.13411 0.0
H690 H 0.44024 0.96912 0.09689 0.0
H691 H 0.46222 0.96744 0.08589 0.0
H692 H 0.48028 0.01035 0.0544 0.0
H693 H 0.45851 0.01239 0.06549 0.0
C694 C 0.38212 0.99062 0.0383 0.0
C695 C 0.3896 0.00296 0.02418 0.0
C696 C 0.38991 0.98815 0.05561 0.0
C697 C 0.4053 0.99803 0.05928 0.0
C698 C 0.41276 0.01037 0.04529 0.0
C699 C 0.40501 0.01283 0.02798 0.0
C700 C 0.41369 0.99555 0.07765 0.0
C701 C 0.42641 0.99467 0.07236 0.0
C702 C 0.4092 0.99396 0.1002 0.0
C703 C 0.39645 0.9957 0.1072 0.0
C704 C 0.39611 0.009 0.10271 0.0
C705 C 0.38403 0.01054 0.1093 0.0
C706 C 0.37229 0.9989 0.12054 0.0
C707 C 0.37262 0.98571 0.12528 0.0
C708 C 0.38466 0.98411 0.11871 0.0
C709 C 0.46192 1.00015 0.15357 0.0
C710 C 0.45468 0.98901 0.16957 0.0
C711 C 0.45417 1.00035 0.13418 0.0
C712 C 0.4391 0.98932 0.13035 0.0
C713 C 0.43212 0.97771 0.14571 0.0
C714 C 0.43983 0.97754 0.1651 0.0
C715 C 0.43022 0.99065 0.11154 0.0
C716 C 0.41741 0.99137 0.11676 0.0
C717 C 0.43472 0.9922 0.08898 0.0
C718 C 0.4478 0.99097 0.08222 0.0
C719 C 0.44896 0.97826 0.08778 0.0
C720 C 0.46137 0.97723 0.0815 0.0
C721 C 0.47266 0.9888 0.06951 0.0
C722 C 0.47154 0.0014 0.06371 0.0
C723 C 0.45915 0.00249 0.06997 0.0
H724 H 0.48226 0.98799 0.06466 0.0
H725 H 0.36296 1.00012 0.12563 0.0
H726 H 0.3751 0.96622 0.94792 0.0
H727 H 0.39684 0.96682 0.93126 0.0
H728 H 0.41005 0.01069 0.9048 0.0
H729 H 0.38835 0.01012 0.92117 0.0
H730 H 0.41192 0.99204 0.87386 0.0
H731 H 0.42697 0.00806 0.95063 0.0
H732 H 0.42492 0.00601 0.99175 0.0
H733 H 0.42836 0.96583 0.98836 0.0
H734 H 0.43014 0.96747 0.94712 0.0
H735 H 0.48543 0.0242 0.8499 0.0
H736 H 0.46655 0.01923 0.87763 0.0
H737 H 0.45244 0.9717 0.87399 0.0
H738 H 0.47143 0.97667 0.84603 0.0
H739 H 0.45069 0.98952 0.92094 0.0
H740 H 0.43378 0.97388 0.8415 0.0
H741 H 0.4379 0.97882 0.8011 0.0
H742 H 0.43976 0.02149 0.81115 0.0
H743 H 0.43589 0.01688 0.85171 0.0
C744 C 0.38259 0.97594 0.93841 0.0
C745 C 0.38009 0.98817 0.93593 0.0
C746 C 0.39503 0.9763 0.92904 0.0
C747 C 0.40509 0.98886 0.91701 0.0
C748 C 0.40241 1.00091 0.91408 0.0
C749 C 0.39005 1.00059 0.92352 0.0
C750 C 0.41847 0.98957 0.9074 0.0
C751 C 0.42034 0.99143 0.88419 0.0
C752 C 0.42944 0.98873 0.9209 0.0
C753 C 0.42849 0.98778 0.94572 0.0
C754 C 0.42714 0.9987 0.95861 0.0
C755 C 0.42605 0.99762 0.98195 0.0
C756 C 0.42646 0.98577 0.99265 0.0
C757 C 0.42801 0.97499 0.98003 0.0
C758 C 0.42906 0.97598 0.95667 0.0
C759 C 0.47876 0.01281 0.85583 0.0
C760 C 0.47972 1.00078 0.84587 0.0
C761 C 0.46804 0.00999 0.87167 0.0
C762 C 0.45812 0.99511 0.87766 0.0
C763 C 0.46013 0.98326 0.86965 0.0
C764 C 0.47092 0.98609 0.85371 0.0
C765 C 0.44392 0.99184 0.88756 0.0
C766 C 0.44201 0.98969 0.91069 0.0
C767 C 0.43291 0.99256 0.87412 0.0
C768 C 0.43464 0.99508 0.84962 0.0
C769 C 0.43513 0.98434 0.8351 0.0
C770 C 0.43742 0.98707 0.81218 0.0
C771 C 0.4391 1.00046 0.80356 0.0
C772 C 0.43845 0.01112 0.81784 0.0
C773 C 0.4362 0.00844 0.84079 0.0
H774 H 0.4409 0.00257 0.78582 0.0
H775 H 0.42562 0.98496 0.01073 0.0
H776 H 0.02862 0.40269 0.97107 0.0
H777 H 0.02762 0.42371 0.95335 0.0
H778 H 0.98879 0.39179 0.91379 0.0
H779 H 0.98961 0.3708 0.93152 0.0
H780 H 0.01174 0.41483 0.88895 0.0
H781 H 0.98401 0.40883 0.95591 0.0
H782 H 0.98055 0.40751 0.99682 0.0
H783 H 0.0169 0.45311 0.00587 0.0
H784 H 0.02079 0.4546 0.96502 0.0
H785 H 0.98471 0.4559 0.83834 0.0
H786 H 0.98421 0.43902 0.86736 0.0
H787 H 0.02432 0.47568 0.89843 0.0
H788 H 0.02477 0.49269 0.86929 0.0
H789 H 0.00255 0.45215 0.92965 0.0
H790 H 0.0312 0.45828 0.8642 0.0
H791 H 0.03533 0.4603 0.82347 0.0
H792 H 0.99869 0.41507 0.81227 0.0
H793 H 0.9941 0.41291 0.85297 0.0
C794 C 0.01989 0.40018 0.95858 0.0
C795 C 0.0092 0.38512 0.95264 0.0
C796 C 0.01928 0.41217 0.9486 0.0
C797 C 0.00808 0.40926 0.9324 0.0
C798 C 0.99749 0.39425 0.92633 0.0
C799 C 0.99797 0.38228 0.93649 0.0
C800 C 0.00759 0.4218 0.92107 0.0
C801 C 0.00961 0.4229 0.89785 0.0
C802 C 0.00526 0.43259 0.93285 0.0
C803 C 0.00282 0.43176 0.9574 0.0
C804 C 0.99137 0.41853 0.96663 0.0
C805 C 0.98931 0.41776 0.98981 0.0
C806 C 0.99852 0.4302 0.00394 0.0
C807 C 0.00979 0.44346 0.9949 0.0
C808 C 0.01193 0.44428 0.97173 0.0
C809 C 0.99303 0.46049 0.85195 0.0
C810 C 0.00477 0.47551 0.85171 0.0
C811 C 0.99276 0.45087 0.86847 0.0
C812 C 0.00432 0.45609 0.88485 0.0
C813 C 0.01526 0.47149 0.88599 0.0
C814 C 0.01552 0.48118 0.86939 0.0
C815 C 0.00642 0.44492 0.89754 0.0
C816 C 0.00477 0.44411 0.92089 0.0
C817 C 0.00928 0.43444 0.886 0.0
C818 C 0.0122 0.4355 0.8616 0.0
C819 C 0.02394 0.44881 0.85304 0.0
C820 C 0.02637 0.44997 0.82998 0.0
C821 C 0.01725 0.43784 0.81532 0.0
C822 C 0.00571 0.42447 0.82368 0.0
C823 C 0.00319 0.42327 0.84675 0.0
H824 H 0.01915 0.43881 0.79751 0.0
H825 H 0.99691 0.42959 0.02189 0.0
H826 H 0.63038 0.61767 0.97298 0.0
H827 H 0.61614 0.59943 0.94242 0.0
H828 H 0.57662 0.60053 0.96092 0.0
H829 H 0.59064 0.61852 0.99162 0.0
H830 H 0.5704 0.57211 0.95465 0.0
H831 H 0.59606 0.61815 0.91404 0.0
H832 H 0.61792 0.64148 0.90158 0.0
H833 H 0.636 0.61532 0.87328 0.0
H834 H 0.61432 0.59184 0.88583 0.0
H835 H 0.5245 0.53934 0.85576 0.0
H836 H 0.53926 0.55426 0.88876 0.0
H837 H 0.57696 0.55117 0.86586 0.0
H838 H 0.56225 0.53636 0.83266 0.0
H839 H 0.58486 0.57959 0.87498 0.0
H840 H 0.55802 0.5332 0.91363 0.0
H841 H 0.53571 0.51002 0.92542 0.0
H842 H 0.51941 0.53683 0.95699 0.0
H843 H 0.54154 0.56018 0.94514 0.0
C844 C 0.61871 0.6142 0.97037 0.0
C845 C 0.61168 0.61959 0.98481 0.0
C846 C 0.61057 0.60374 0.95289 0.0
C847 C 0.5953 0.59861 0.94934 0.0
C848 C 0.58836 0.60424 0.9634 0.0
C849 C 0.59644 0.61462 0.9809 0.0
C850 C 0.5864 0.58713 0.93133 0.0
C851 C 0.57348 0.5738 0.93718 0.0
C852 C 0.59061 0.58914 0.90864 0.0
C853 C 0.60365 0.60325 0.9011 0.0
C854 C 0.60476 0.61738 0.90533 0.0
C855 C 0.6171 0.63063 0.89822 0.0
C856 C 0.62836 0.62989 0.88671 0.0
C857 C 0.62728 0.61588 0.88223 0.0
C858 C 0.61496 0.6026 0.88933 0.0
C859 C 0.53578 0.54144 0.85811 0.0
C860 C 0.54223 0.53671 0.84161 0.0
C861 C 0.54424 0.55002 0.87697 0.0
C862 C 0.55924 0.55384 0.87984 0.0
C863 C 0.56544 0.54843 0.86396 0.0
C864 C 0.55702 0.53994 0.84505 0.0
C865 C 0.5688 0.56457 0.89824 0.0
C866 C 0.58184 0.57779 0.89246 0.0
C867 C 0.56466 0.56247 0.92097 0.0
C868 C 0.5514 0.54844 0.92833 0.0
C869 C 0.54964 0.53416 0.92295 0.0
C870 C 0.53703 0.52099 0.92967 0.0
C871 C 0.52614 0.52196 0.9419 0.0
C872 C 0.52786 0.5361 0.9475 0.0
C873 C 0.54044 0.54931 0.94082 0.0
H874 H 0.51639 0.51174 0.94707 0.0
H875 H 0.63791 0.64016 0.88121 0.0
H876 H 0.0326 0.63071 0.98974 0.0
H877 H 0.03082 0.61444 0.95817 0.0
H878 H 0.98855 0.60973 0.93732 0.0
H879 H 0.99008 0.6259 0.96943 0.0
H880 H 0.98696 0.58271 0.93844 0.0
H881 H 0.02011 0.63039 0.90697 0.0
H882 H 0.0422 0.65592 0.90593 0.0
H883 H 0.07095 0.63709 0.91262 0.0
H884 H 0.04903 0.61144 0.91402 0.0
H885 H 0.98214 0.54557 0.83412 0.0
H886 H 0.98367 0.56284 0.86425 0.0
H887 H 0.0257 0.56798 0.88759 0.0
H888 H 0.0244 0.55093 0.85691 0.0
H889 H 0.02711 0.59507 0.88445 0.0
H890 H 0.99397 0.54751 0.91678 0.0
H891 H 0.97189 0.52197 0.91789 0.0
H892 H 0.94313 0.54067 0.90953 0.0
H893 H 0.96505 0.56631 0.90806 0.0
C894 C 0.02297 0.62641 0.97834 0.0
C895 C 0.01144 0.6296 0.98222 0.0
C896 C 0.02203 0.61713 0.96017 0.0
C897 C 0.00961 0.61093 0.94525 0.0
C898 C 0.99825 0.61441 0.94863 0.0
C899 C 0.99918 0.62373 0.9669 0.0
C900 C 0.00819 0.60009 0.92703 0.0
C901 C 0.99561 0.58551 0.92636 0.0
C902 C 0.01969 0.60358 0.91171 0.0
C903 C 0.03291 0.619 0.91078 0.0
C904 C 0.03114 0.6317 0.90839 0.0
C905 C 0.04363 0.64619 0.9077 0.0
C906 C 0.05797 0.64813 0.90925 0.0
C907 C 0.05984 0.63557 0.91143 0.0
C908 C 0.04738 0.62105 0.91215 0.0
C909 C 0.99169 0.55033 0.84572 0.0
C910 C 0.00319 0.54695 0.84309 0.0
C911 C 0.99249 0.56012 0.86305 0.0
C912 C 0.00475 0.56665 0.87828 0.0
C913 C 0.01612 0.56306 0.87602 0.0
C914 C 0.01532 0.55322 0.85864 0.0
C915 C 0.00592 0.57769 0.89593 0.0
C916 C 0.01844 0.59231 0.89649 0.0
C917 C 0.99437 0.57423 0.91114 0.0
C918 C 0.98116 0.55882 0.9121 0.0
C919 C 0.98294 0.54617 0.915 0.0
C920 C 0.97046 0.53167 0.91573 0.0
C921 C 0.95612 0.52969 0.91373 0.0
C922 C 0.95424 0.54221 0.91105 0.0
C923 C 0.96669 0.55674 0.9103 0.0
H924 H 0.94646 0.51846 0.91429 0.0
H925 H 0.06763 0.65936 0.90872 0.0
H926 H 0.36949 0.40517 0.94892 0.0
H927 H 0.38641 0.42816 0.92936 0.0
H928 H 0.41955 0.4144 0.92857 0.0
H929 H 0.40263 0.39127 0.94769 0.0
H930 H 0.43036 0.44703 0.94055 0.0
H931 H 0.40095 0.40709 0.88452 0.0
H932 H 0.37745 0.38723 0.86644 0.0
H933 H 0.36356 0.41983 0.85511 0.0
H934 H 0.3869 0.43985 0.87347 0.0
H935 H 0.47832 0.48181 0.85175 0.0
H936 H 0.46216 0.46779 0.88208 0.0
H937 H 0.4284 0.4771 0.85628 0.0
H938 H 0.44435 0.49035 0.82496 0.0
H939 H 0.41623 0.44943 0.86138 0.0
H940 H 0.44726 0.49041 0.91091 0.0
H941 H 0.47062 0.51078 0.92856 0.0
H942 H 0.48151 0.47795 0.95249 0.0
H943 H 0.45831 0.45737 0.93473 0.0
C944 C 0.38043 0.40708 0.94474 0.0
C945 C 0.38467 0.39632 0.94971 0.0
C946 C 0.39007 0.42023 0.93363 0.0
C947 C 0.4042 0.42294 0.92762 0.0
C948 C 0.40869 0.41251 0.93323 0.0
C949 C 0.39895 0.39923 0.94398 0.0
C950 C 0.41383 0.43602 0.91389 0.0
C951 C 0.42742 0.44761 0.92317 0.0
C952 C 0.40962 0.43695 0.89156 0.0
C953 C 0.39555 0.42491 0.88068 0.0
C954 C 0.3928 0.40999 0.87843 0.0
C955 C 0.37953 0.39871 0.86807 0.0
C956 C 0.36899 0.40225 0.85972 0.0
C957 C 0.37171 0.41709 0.86166 0.0
C958 C 0.38496 0.42841 0.87204 0.0
C959 C 0.46765 0.4813 0.85303 0.0
C960 C 0.46257 0.4872 0.83617 0.0
C961 C 0.4584 0.47332 0.87047 0.0
C962 C 0.44404 0.47145 0.87174 0.0
C963 C 0.43941 0.47835 0.85572 0.0
C964 C 0.44853 0.48601 0.83793 0.0
C965 C 0.43323 0.46054 0.88761 0.0
C966 C 0.4193 0.44922 0.87879 0.0
C967 C 0.43712 0.46001 0.91041 0.0
C968 C 0.45105 0.47233 0.92136 0.0
C969 C 0.45467 0.48753 0.91982 0.0
C970 C 0.46789 0.49912 0.92986 0.0
C971 C 0.47755 0.49567 0.94161 0.0
C972 C 0.474 0.48061 0.94339 0.0
C973 C 0.4608 0.46897 0.93337 0.0
H974 H 0.48778 0.50466 0.94936 0.0
H975 H 0.35873 0.39351 0.85168 0.0
H976 H 0.59245 0.98811 0.0096 0.0
H977 H 0.57982 0.9898 0.9759 0.0
H978 H 0.62179 0.01247 0.94258 0.0
H979 H 0.6347 0.01128 0.97681 0.0
H980 H 0.60588 0.02517 0.93211 0.0
H981 H 0.59637 0.9744 0.9319 0.0
H982 H 0.5886 0.94935 0.94728 0.0
H983 H 0.54436 0.94188 0.95582 0.0
H984 H 0.55192 0.96698 0.94077 0.0
H985 H 0.5532 0.98397 0.82733 0.0
H986 H 0.56779 0.98434 0.86004 0.0
H987 H 0.56335 0.02052 0.89046 0.0
H988 H 0.54941 0.02082 0.85696 0.0
H989 H 0.56178 0.97845 0.90099 0.0
H990 H 0.59366 0.04255 0.92497 0.0
H991 H 0.60341 0.06704 0.90651 0.0
H992 H 0.60648 0.04677 0.84452 0.0
H993 H 0.59694 0.02223 0.86268 0.0
C994 C 0.59904 0.99342 0.99512 0.0
C995 C 0.61459 0.9994 0.99582 0.0
C996 C 0.59177 0.99436 0.9758 0.0
C997 C 0.59978 0.00099 0.95651 0.0
C998 C 0.61536 0.00725 0.95724 0.0
C999 C 0.62272 0.00651 0.97676 0.0
C1000 C 0.59177 0.00114 0.93562 0.0
C1001 C 0.59625 0.01495 0.92527 0.0
C1002 C 0.57937 0.98777 0.9264 0.0
C1003 C 0.57475 0.97263 0.93538 0.0
C1004 C 0.58501 0.96746 0.9372 0.0
C1005 C 0.58064 0.95325 0.94584 0.0
C1006 C 0.566 0.94404 0.95257 0.0
C1007 C 0.5557 0.94903 0.95062 0.0
C1008 C 0.56001 0.96324 0.94201 0.0
C1009 C 0.55549 0.99219 0.8408 0.0
C1010 C 0.55028 0.00251 0.83933 0.0
C1011 C 0.56373 0.99227 0.85964 0.0
C1012 C 0.56686 0.00257 0.87766 0.0
C1013 C 0.56133 0.01264 0.8766 0.0
C1014 C 0.55319 0.01268 0.85756 0.0
C1015 C 0.57575 0.00251 0.89754 0.0
C1016 C 0.5714 0.98869 0.90777 0.0
C1017 C 0.58854 0.01578 0.90616 0.0
C1018 C 0.59443 0.03052 0.89514 0.0
C1019 C 0.59646 0.04334 0.90742 0.0
C1020 C 0.60195 0.05722 0.89701 0.0
C1021 C 0.60552 0.05844 0.87434 0.0
C1022 C 0.60366 0.04579 0.86206 0.0
C1023 C 0.59819 0.03189 0.87239 0.0
H1024 H 0.60975 0.0692 0.86631 0.0
H1025 H 0.56264 0.93304 0.95926 0.0
H1026 H 0.64077 0.04309 0.09503 0.0
H1027 H 0.622 0.04699 0.11374 0.0
H1028 H 0.58819 0.00127 0.09518 0.0
H1029 H 0.60687 0.99723 0.07681 0.0
H1030 H 0.58043 0.0251 0.08725 0.0
H1031 H 0.59965 0.00558 0.14476 0.0
H1032 H 0.61923 0.00532 0.16866 0.0
H1033 H 0.6328 0.05013 0.1941 0.0
H1034 H 0.61338 0.0507 0.17016 0.0
H1035 H 0.5211 0.00187 0.16148 0.0
H1036 H 0.54067 0.00761 0.13479 0.0
H1037 H 0.57102 0.04731 0.17498 0.0
H1038 H 0.55154 0.04103 0.20233 0.0
H1039 H 0.58251 0.03069 0.17034 0.0
H1040 H 0.56033 0.04858 0.11778 0.0
H1041 H 0.54017 0.04849 0.09497 0.0
H1042 H 0.532 0.00771 0.06023 0.0
H1043 H 0.55197 0.00742 0.08304 0.0
C1044 C 0.62933 0.03388 0.09496 0.0
C1045 C 0.62531 0.01978 0.08474 0.0
C1046 C 0.61865 0.03613 0.1056 0.0
C1047 C 0.60376 0.02441 0.10578 0.0
C1048 C 0.59965 0.01044 0.09515 0.0
C1049 C 0.61037 0.0081 0.0849 0.0
C1050 C 0.59253 0.02647 0.11779 0.0
C1051 C 0.58077 0.02629 0.10542 0.0
C1052 C 0.59335 0.02849 0.14139 0.0
C1053 C 0.60522 0.02827 0.15542 0.0
C1054 C 0.60693 0.01545 0.15523 0.0
C1055 C 0.61796 0.01522 0.16885 0.0
C1056 C 0.6273 0.02773 0.1828 0.0
C1057 C 0.62559 0.04047 0.18322 0.0
C1058 C 0.61457 0.04075 0.16965 0.0
C1059 C 0.53176 0.01217 0.16406 0.0
C1060 C 0.53489 0.02103 0.18384 0.0
C1061 C 0.54297 0.01548 0.14877 0.0
C1062 C 0.55739 0.02792 0.15282 0.0
C1063 C 0.56003 0.03762 0.17154 0.0
C1064 C 0.5489 0.03412 0.18705 0.0
C1065 C 0.57009 0.02921 0.13992 0.0
C1066 C 0.5822 0.02992 0.15212 0.0
C1067 C 0.56958 0.02777 0.11616 0.0
C1068 C 0.55762 0.02795 0.10224 0.0
C1069 C 0.55418 0.03954 0.10538 0.0
C1070 C 0.54279 0.03956 0.09243 0.0
C1071 C 0.53479 0.02809 0.07619 0.0
C1072 C 0.5382 0.01659 0.07282 0.0
C1073 C 0.54958 0.01651 0.08572 0.0
H1074 H 0.52597 0.02811 0.0662 0.0
H1075 H 0.63584 0.02754 0.19333 0.0
H1076 H 0.96789 0.60188 0.06286 0.0
H1077 H 0.96657 0.58 0.08127 0.0
H1078 H 0.01376 0.60577 0.09719 0.0
H1079 H 0.01513 0.62777 0.07944 0.0
H1080 H 0.00294 0.57497 0.07974 0.0
H1081 H 0.99249 0.6029 0.13647 0.0
H1082 H 0.97886 0.61499 0.15163 0.0
H1083 H 0.93778 0.57257 0.14574 0.0
H1084 H 0.95115 0.56027 0.13024 0.0
H1085 H 0.01488 0.5383 0.17138 0.0
H1086 H 0.01343 0.5542 0.14228 0.0
H1087 H 0.96537 0.52977 0.14538 0.0
H1088 H 0.96697 0.51433 0.17517 0.0
H1089 H 0.9746 0.55795 0.1497 0.0
H1090 H 0.98463 0.52886 0.09732 0.0
H1091 H 0.99748 0.51614 0.08151 0.0
H1092 H 0.03781 0.55898 0.07744 0.0
H1093 H 0.02528 0.57195 0.09356 0.0
C1094 C 0.97801 0.60289 0.07019 0.0
C1095 C 0.99164 0.6166 0.06956 0.0
C1096 C 0.97723 0.59037 0.08064 0.0
C1097 C 0.99009 0.59128 0.09048 0.0
C1098 C 0.00375 0.60481 0.08949 0.0
C1099 C 0.0045 0.6174 0.07934 0.0
C1100 C 0.98918 0.57844 0.10295 0.0
C1101 C 0.99683 0.57124 0.09512 0.0
C1102 C 0.98082 0.57334 0.12258 0.0
C1103 C 0.97279 0.58072 0.13195 0.0
C1104 C 0.98053 0.59619 0.13821 0.0
C1105 C 0.97286 0.60307 0.14691 0.0
C1106 C 0.95746 0.59457 0.14958 0.0
C1107 C 0.9497 0.57915 0.14362 0.0
C1108 C 0.95732 0.57222 0.13489 0.0
C1109 C 0.00402 0.53605 0.16523 0.0
C1110 C 0.99102 0.52506 0.17518 0.0
C1111 C 0.00317 0.54511 0.14861 0.0
C1112 C 0.98927 0.54316 0.14147 0.0
C1113 C 0.97622 0.53152 0.15058 0.0
C1114 C 0.9771 0.52262 0.16742 0.0
C1115 C 0.98847 0.55435 0.12668 0.0
C1116 C 0.98053 0.56137 0.13413 0.0
C1117 C 0.99643 0.55911 0.10656 0.0
C1118 C 0.00403 0.55137 0.09682 0.0
C1119 C 0.99628 0.53557 0.09322 0.0
C1120 C 0.0035 0.52831 0.08417 0.0
C1121 C 0.01846 0.53674 0.07851 0.0
C1122 C 0.02623 0.55246 0.08185 0.0
C1123 C 0.01906 0.55977 0.09091 0.0
H1124 H 0.02403 0.5311 0.07151 0.0
H1125 H 0.95154 0.59991 0.15632 0.0
H1126 H 0.41789 0.38423 0.02957 0.0
H1127 H 0.43181 0.40037 0.06193 0.0
H1128 H 0.39304 0.40255 0.08154 0.0
H1129 H 0.37893 0.38642 0.04877 0.0
H1130 H 0.41786 0.43046 0.08215 0.0
H1131 H 0.40459 0.38249 0.11182 0.0
H1132 H 0.40169 0.35701 0.11252 0.0
H1133 H 0.44911 0.37632 0.1086 0.0
H1134 H 0.45228 0.40191 0.10756 0.0
H1135 H 0.4486 0.46264 0.19185 0.0
H1136 H 0.43369 0.44798 0.15866 0.0
H1137 H 0.4715 0.4457 0.13421 0.0
H1138 H 0.48642 0.46038 0.16757 0.0
H1139 H 0.44625 0.41766 0.13689 0.0
H1140 H 0.45915 0.46586 0.10685 0.0
H1141 H 0.46159 0.49115 0.10689 0.0
H1142 H 0.41419 0.4711 0.11267 0.0
H1143 H 0.41149 0.44568 0.11299 0.0
C1144 C 0.41221 0.38797 0.04085 0.0
C1145 C 0.39726 0.38402 0.03651 0.0
C1146 C 0.4202 0.39718 0.05943 0.0
C1147 C 0.41346 0.40261 0.07424 0.0
C1148 C 0.39845 0.39847 0.07031 0.0
C1149 C 0.39038 0.38916 0.05167 0.0
C1150 C 0.4224 0.41314 0.09318 0.0
C1151 C 0.42387 0.42758 0.09437 0.0
C1152 C 0.43051 0.4095 0.1088 0.0
C1153 C 0.42866 0.39412 0.10941 0.0
C1154 C 0.41439 0.3813 0.11092 0.0
C1155 C 0.4127 0.36684 0.11141 0.0
C1156 C 0.4252 0.36505 0.11055 0.0
C1157 C 0.43943 0.37773 0.10924 0.0
C1158 C 0.44118 0.39221 0.10873 0.0
C1159 C 0.45379 0.45933 0.17906 0.0
C1160 C 0.46861 0.46262 0.18213 0.0
C1161 C 0.4453 0.45098 0.16013 0.0
C1162 C 0.45148 0.44573 0.14399 0.0
C1163 C 0.46653 0.44965 0.1465 0.0
C1164 C 0.47507 0.45813 0.16538 0.0
C1165 C 0.44187 0.43504 0.12566 0.0
C1166 C 0.44023 0.42054 0.12467 0.0
C1167 C 0.43355 0.4386 0.11036 0.0
C1168 C 0.43514 0.45387 0.11017 0.0
C1169 C 0.44926 0.46685 0.10834 0.0
C1170 C 0.45069 0.48121 0.10825 0.0
C1171 C 0.43806 0.48273 0.10984 0.0
C1172 C 0.42397 0.4699 0.11147 0.0
C1173 C 0.42248 0.45551 0.11158 0.0
H1174 H 0.43918 0.49386 0.10976 0.0
H1175 H 0.42387 0.35384 0.11094 0.0
H1176 H 0.63923 0.70907 0.35945 0.0
H1177 H 0.64011 0.72555 0.39023 0.0
H1178 H 0.68401 0.73433 0.41043 0.0
H1179 H 0.68313 0.71754 0.37971 0.0
H1180 H 0.66731 0.73142 0.44654 0.0
H1181 H 0.67979 0.75933 0.37879 0.0
H1182 H 0.67614 0.76389 0.33927 0.0
H1183 H 0.63531 0.76264 0.35535 0.0
H1184 H 0.63859 0.75783 0.39492 0.0
H1185 H 0.69008 0.79801 0.51085 0.0
H1186 H 0.68851 0.78144 0.47956 0.0
H1187 H 0.64323 0.7705 0.46458 0.0
H1188 H 0.6447 0.78707 0.4962 0.0
H1189 H 0.66027 0.77442 0.42598 0.0
H1190 H 0.64824 0.74687 0.49416 0.0
H1191 H 0.65237 0.7427 0.53367 0.0
H1192 H 0.69297 0.74374 0.51668 0.0
H1193 H 0.68922 0.74818 0.47711 0.0
C1194 C 0.64904 0.71437 0.37054 0.0
C1195 C 0.6612 0.71212 0.36694 0.0
C1196 C 0.64953 0.72384 0.3881 0.0
C1197 C 0.66226 0.73145 0.4023 0.0
C1198 C 0.67412 0.72864 0.39955 0.0
C1199 C 0.67359 0.71904 0.38201 0.0
C1200 C 0.66335 0.74276 0.41939 0.0
C1201 C 0.66596 0.74093 0.442 0.0
C1202 C 0.66129 0.75501 0.41352 0.0
C1203 C 0.65937 0.75808 0.38979 0.0
C1204 C 0.66998 0.75992 0.37387 0.0
C1205 C 0.66798 0.76256 0.35147 0.0
C1206 C 0.65548 0.76352 0.3448 0.0
C1207 C 0.64498 0.76188 0.36054 0.0
C1208 C 0.64691 0.75921 0.38296 0.0
C1209 C 0.67983 0.7922 0.50073 0.0
C1210 C 0.66744 0.79366 0.50611 0.0
C1211 C 0.67895 0.78274 0.4829 0.0
C1212 C 0.66566 0.77452 0.47008 0.0
C1213 C 0.65356 0.7767 0.4744 0.0
C1214 C 0.65443 0.7862 0.49236 0.0
C1215 C 0.66424 0.76308 0.45305 0.0
C1216 C 0.66159 0.7649 0.43048 0.0
C1217 C 0.66632 0.75086 0.45894 0.0
C1218 C 0.66852 0.748 0.48269 0.0
C1219 C 0.65811 0.74633 0.49887 0.0
C1220 C 0.66037 0.7439 0.52128 0.0
C1221 C 0.67294 0.74299 0.52769 0.0
C1222 C 0.68325 0.74447 0.51169 0.0
C1223 C 0.68106 0.74693 0.48927 0.0
H1224 H 0.67467 0.74111 0.54505 0.0
H1225 H 0.65395 0.76556 0.32744 0.0
H1226 H 0.27173 0.94768 0.40826 0.0
H1227 H 0.25491 0.92524 0.42862 0.0
H1228 H 0.29022 0.9149 0.4385 0.0
H1229 H 0.30694 0.93712 0.41722 0.0
H1230 H 0.26549 0.8898 0.43092 0.0
H1231 H 0.28031 0.93231 0.48075 0.0
H1232 H 0.28462 0.95737 0.49331 0.0
H1233 H 0.23777 0.94164 0.48537 0.0
H1234 H 0.2332 0.91653 0.47247 0.0
H1235 H 0.23352 0.85171 0.53661 0.0
H1236 H 0.24933 0.86697 0.50634 0.0
H1237 H 0.21146 0.86668 0.47454 0.0
H1238 H 0.19559 0.85134 0.50449 0.0
H1239 H 0.23781 0.89622 0.49323 0.0
H1240 H 0.2241 0.85225 0.44495 0.0
H1241 H 0.2216 0.82743 0.43577 0.0
H1242 H 0.26889 0.84643 0.4456 0.0
H1243 H 0.27164 0.87133 0.45519 0.0
C1244 C 0.27594 0.94071 0.4149 0.0
C1245 C 0.29072 0.9443 0.41161 0.0
C1246 C 0.26631 0.92784 0.4265 0.0
C1247 C 0.27139 0.91856 0.43561 0.0
C1248 C 0.28605 0.92191 0.43174 0.0
C1249 C 0.29561 0.93462 0.41969 0.0
C1250 C 0.26151 0.90567 0.44966 0.0
C1251 C 0.25955 0.89125 0.44467 0.0
C1252 C 0.25375 0.9075 0.46766 0.0
C1253 C 0.25644 0.92259 0.47542 0.0
C1254 C 0.27094 0.93423 0.48152 0.0
C1255 C 0.27343 0.94844 0.48873 0.0
C1256 C 0.26148 0.95111 0.49008 0.0
C1257 C 0.24701 0.93956 0.48428 0.0
C1258 C 0.24447 0.92534 0.47704 0.0
C1259 C 0.22847 0.85438 0.52265 0.0
C1260 C 0.21336 0.85041 0.52291 0.0
C1261 C 0.23749 0.86307 0.50541 0.0
C1262 C 0.23151 0.86794 0.48836 0.0
C1263 C 0.21619 0.86291 0.48755 0.0
C1264 C 0.20714 0.85407 0.50459 0.0
C1265 C 0.24155 0.88042 0.47409 0.0
C1266 C 0.24367 0.89481 0.47932 0.0
C1267 C 0.2497 0.87858 0.4568 0.0
C1268 C 0.24805 0.86362 0.45103 0.0
C1269 C 0.23394 0.85111 0.4454 0.0
C1270 C 0.23249 0.83703 0.44006 0.0
C1271 C 0.24507 0.83534 0.44017 0.0
C1272 C 0.25914 0.84775 0.44556 0.0
C1273 C 0.26066 0.86185 0.45092 0.0
H1274 H 0.24392 0.82444 0.43602 0.0
H1275 H 0.26342 0.96211 0.49567 0.0
H1276 H 0.04243 0.32535 0.37808 0.0
H1277 H 0.05556 0.32473 0.41236 0.0
H1278 H 0.09779 0.35269 0.3817 0.0
H1279 H 0.08489 0.35366 0.34778 0.0
H1280 H 0.07411 0.31429 0.42079 0.0
H1281 H 0.12336 0.37622 0.42014 0.0
H1282 H 0.1282 0.40126 0.4082 0.0
H1283 H 0.08189 0.38728 0.41484 0.0
H1284 H 0.07682 0.36225 0.42712 0.0
H1285 H 0.13253 0.32301 0.49602 0.0
H1286 H 0.11851 0.32336 0.46254 0.0
H1287 H 0.10577 0.35198 0.49858 0.0
H1288 H 0.12016 0.35217 0.53153 0.0
H1289 H 0.1134 0.36187 0.45823 0.0
H1290 H 0.08145 0.31397 0.49018 0.0
H1291 H 0.07467 0.28898 0.50493 0.0
H1292 H 0.08275 0.27498 0.44083 0.0
H1293 H 0.08977 0.29997 0.42577 0.0
C1294 C 0.05451 0.33144 0.37869 0.0
C1295 C 0.06258 0.33966 0.36021 0.0
C1296 C 0.062 0.33101 0.39825 0.0
C1297 C 0.07766 0.3388 0.39969 0.0
C1298 C 0.08571 0.34682 0.38115 0.0
C1299 C 0.07827 0.34733 0.36171 0.0
C1300 C 0.0857 0.33865 0.42051 0.0
C1301 C 0.08269 0.32468 0.429 0.0
C1302 C 0.09672 0.35221 0.43146 0.0
C1303 C 0.0997 0.36731 0.42434 0.0
C1304 C 0.11423 0.37851 0.41914 0.0
C1305 C 0.117 0.3927 0.4123 0.0
C1306 C 0.10535 0.39584 0.41069 0.0
C1307 C 0.0909 0.38482 0.416 0.0
C1308 C 0.08806 0.37062 0.42288 0.0
C1309 C 0.12686 0.32948 0.49667 0.0
C1310 C 0.12731 0.33741 0.51648 0.0
C1311 C 0.11874 0.32957 0.47763 0.0
C1312 C 0.11092 0.33754 0.47816 0.0
C1313 C 0.11166 0.34571 0.49778 0.0
C1314 C 0.11978 0.34568 0.51668 0.0
C1315 C 0.10198 0.33751 0.45834 0.0
C1316 C 0.10484 0.35145 0.45001 0.0
C1317 C 0.09055 0.32394 0.44795 0.0
C1318 C 0.08628 0.30889 0.45692 0.0
C1319 C 0.08189 0.3056 0.47928 0.0
C1320 C 0.07799 0.29144 0.48769 0.0
C1321 C 0.07832 0.28042 0.47385 0.0
C1322 C 0.08252 0.28354 0.45154 0.0
C1323 C 0.08645 0.29769 0.44305 0.0
H1324 H 0.07529 0.26946 0.48038 0.0
H1325 H 0.10752 0.40682 0.40537 0.0
H1326 H 0.05834 0.33568 0.25442 0.0
H1327 H 0.07559 0.33007 0.23478 0.0
H1328 H 0.05766 0.2875 0.26793 0.0
H1329 H 0.04035 0.29306 0.28778 0.0
H1330 H 0.08886 0.30313 0.26707 0.0
H1331 H 0.04708 0.28698 0.21588 0.0
H1332 H 0.02806 0.28899 0.19306 0.0
H1333 H 0.0625 0.32543 0.15712 0.0
H1334 H 0.08172 0.32389 0.18009 0.0
H1335 H 0.11521 0.2887 0.14921 0.0
H1336 H 0.09677 0.28284 0.17808 0.0
H1337 H 0.12923 0.32132 0.21832 0.0
H1338 H 0.14776 0.32696 0.18965 0.0
H1339 H 0.08813 0.30257 0.18381 0.0
H1340 H 0.11756 0.31901 0.27229 0.0
H1341 H 0.13624 0.31579 0.294 0.0
H1342 H 0.12555 0.27601 0.25408 0.0
H1343 H 0.10665 0.27884 0.23233 0.0
C1344 C 0.0581 0.32516 0.25764 0.0
C1345 C 0.04797 0.3148 0.27261 0.0
C1346 C 0.06793 0.32195 0.24635 0.0
C1347 C 0.06781 0.30833 0.24981 0.0
C1348 C 0.0579 0.29807 0.26505 0.0
C1349 C 0.04798 0.30123 0.27626 0.0
C1350 C 0.07786 0.30476 0.23708 0.0
C1351 C 0.08869 0.30289 0.24885 0.0
C1352 C 0.0774 0.30419 0.21333 0.0
C1353 C 0.06585 0.3054 0.19986 0.0
C1354 C 0.0506 0.29555 0.20331 0.0
C1355 C 0.03978 0.29659 0.19032 0.0
C1356 C 0.04407 0.30736 0.1737 0.0
C1357 C 0.05919 0.31713 0.17004 0.0
C1358 C 0.07005 0.31618 0.18306 0.0
C1359 C 0.11857 0.29544 0.16473 0.0
C1360 C 0.13282 0.3083 0.16726 0.0
C1361 C 0.10804 0.29214 0.18116 0.0
C1362 C 0.11157 0.30172 0.20027 0.0
C1363 C 0.12629 0.31366 0.20387 0.0
C1364 C 0.13689 0.31688 0.18749 0.0
C1365 C 0.09939 0.30119 0.21366 0.0
C1366 C 0.0882 0.30248 0.202 0.0
C1367 C 0.0995 0.3011 0.23741 0.0
C1368 C 0.11075 0.29921 0.25056 0.0
C1369 C 0.11913 0.30952 0.26821 0.0
C1370 C 0.12977 0.30778 0.28051 0.0
C1371 C 0.13211 0.29573 0.27539 0.0
C1372 C 0.12377 0.28537 0.25798 0.0
C1373 C 0.11311 0.28706 0.24563 0.0
H1374 H 0.14036 0.2944 0.28493 0.0
H1375 H 0.03568 0.30812 0.16361 0.0
H1376 H 0.66237 0.71944 0.29044 0.0
H1377 H 0.66521 0.74169 0.27157 0.0
H1378 H 0.70906 0.75223 0.25107 0.0
H1379 H 0.70643 0.7302 0.27086 0.0
H1380 H 0.70974 0.77728 0.26149 0.0
H1381 H 0.67704 0.73392 0.21488 0.0
H1382 H 0.65517 0.70883 0.20581 0.0
H1383 H 0.62591 0.72558 0.22338 0.0
H1384 H 0.64763 0.75073 0.23283 0.0
H1385 H 0.71129 0.8149 0.15941 0.0
H1386 H 0.71192 0.79941 0.18993 0.0
H1387 H 0.67385 0.79899 0.21882 0.0
H1388 H 0.67333 0.81467 0.18848 0.0
H1389 H 0.66997 0.77009 0.20652 0.0
H1390 H 0.7044 0.81501 0.2486 0.0
H1391 H 0.72715 0.83986 0.25481 0.0
H1392 H 0.75428 0.81983 0.24193 0.0
H1393 H 0.73168 0.79489 0.23531 0.0
C1394 C 0.67254 0.72639 0.28174 0.0
C1395 C 0.68403 0.72289 0.2816 0.0
C1396 C 0.67419 0.73917 0.27101 0.0
C1397 C 0.6872 0.74846 0.25937 0.0
C1398 C 0.69888 0.74521 0.25982 0.0
C1399 C 0.69735 0.7326 0.27101 0.0
C1400 C 0.6884 0.76124 0.24616 0.0
C1401 C 0.7011 0.77567 0.24933 0.0
C1402 C 0.67704 0.75925 0.2305 0.0
C1403 C 0.66396 0.74415 0.22479 0.0
C1404 C 0.66594 0.73222 0.21696 0.0
C1405 C 0.65358 0.718 0.21173 0.0
C1406 C 0.63916 0.7156 0.21408 0.0
C1407 C 0.63709 0.72745 0.22161 0.0
C1408 C 0.64942 0.74169 0.22688 0.0
C1409 C 0.7034 0.81193 0.17273 0.0
C1410 C 0.69226 0.81595 0.17166 0.0
C1411 C 0.70377 0.80311 0.19013 0.0
C1412 C 0.6929 0.79804 0.20657 0.0
C1413 C 0.68235 0.80284 0.20631 0.0
C1414 C 0.68212 0.81186 0.18909 0.0
C1415 C 0.69127 0.78606 0.22185 0.0
C1416 C 0.67851 0.77173 0.21892 0.0
C1417 C 0.70271 0.7881 0.23729 0.0
C1418 C 0.71633 0.80309 0.24127 0.0
C1419 C 0.71521 0.81592 0.24688 0.0
C1420 C 0.72809 0.83002 0.25052 0.0
C1421 C 0.74215 0.83143 0.24871 0.0
C1422 C 0.74338 0.81872 0.2433 0.0
C1423 C 0.73054 0.8046 0.23964 0.0
H1424 H 0.75211 0.84235 0.25154 0.0
H1425 H 0.6296 0.70458 0.21003 0.0
H1426 H 0.29183 0.96028 0.30743 0.0
H1427 H 0.27633 0.94702 0.2739 0.0
H1428 H 0.23688 0.93781 0.30943 0.0
H1429 H 0.25217 0.95121 0.34264 0.0
H1430 H 0.25543 0.91852 0.267 0.0
H1431 H 0.21055 0.93664 0.27403 0.0
H1432 H 0.20882 0.95877 0.28703 0.0
H1433 H 0.25544 0.9879 0.27569 0.0
H1434 H 0.2574 0.96598 0.26234 0.0
H1435 H 0.19372 0.86802 0.19938 0.0
H1436 H 0.20752 0.88408 0.23221 0.0
H1437 H 0.22217 0.92384 0.19276 0.0
H1438 H 0.20803 0.90787 0.16009 0.0
H1439 H 0.21733 0.92941 0.23492 0.0
H1440 H 0.24394 0.90833 0.19871 0.0
H1441 H 0.24734 0.88783 0.18277 0.0
H1442 H 0.2408 0.86802 0.24755 0.0
H1443 H 0.23713 0.88828 0.26381 0.0
C1444 C 0.27987 0.95554 0.30804 0.0
C1445 C 0.27329 0.95688 0.32775 0.0
C1446 C 0.27102 0.94793 0.28888 0.0
C1447 C 0.25545 0.94156 0.28906 0.0
C1448 C 0.24888 0.94287 0.30871 0.0
C1449 C 0.25768 0.95051 0.32777 0.0
C1450 C 0.24594 0.93306 0.26904 0.0
C1451 C 0.24713 0.92093 0.25999 0.0
C1452 C 0.23524 0.93633 0.25961 0.0
C1453 C 0.23414 0.94963 0.26738 0.0
C1454 C 0.22042 0.94777 0.27422 0.0
C1455 C 0.2194 0.96028 0.28167 0.0
C1456 C 0.23202 0.97472 0.28225 0.0
C1457 C 0.24568 0.9767 0.27531 0.0
C1458 C 0.24675 0.96423 0.26783 0.0
C1459 C 0.1995 0.8802 0.19789 0.0
C1460 C 0.19994 0.88668 0.1771 0.0
C1461 C 0.2075 0.88936 0.2166 0.0
C1462 C 0.21615 0.90514 0.21478 0.0
C1463 C 0.21568 0.91169 0.1945 0.0
C1464 C 0.20766 0.90255 0.17583 0.0
C1465 C 0.2266 0.91469 0.23332 0.0
C1466 C 0.22562 0.927 0.24203 0.0
C1467 C 0.23775 0.91184 0.24207 0.0
C1468 C 0.24012 0.89974 0.23242 0.0
C1469 C 0.24313 0.89954 0.20952 0.0
C1470 C 0.24512 0.88798 0.20043 0.0
C1471 C 0.24426 0.87661 0.21413 0.0
C1472 C 0.24145 0.87682 0.23696 0.0
C1473 C 0.23942 0.88835 0.24612 0.0
H1474 H 0.2458 0.86767 0.20707 0.0
H1475 H 0.23121 0.98439 0.28803 0.0
H1476 H 0.70017 0.96843 0.30662 0.0
H1477 H 0.69857 0.95139 0.27592 0.0
H1478 H 0.6506 0.93004 0.27439 0.0
H1479 H 0.65212 0.94735 0.30492 0.0
H1480 H 0.66337 0.90981 0.27773 0.0
H1481 H 0.66544 0.94933 0.23293 0.0
H1482 H 0.67544 0.97568 0.22151 0.0
H1483 H 0.71756 0.97905 0.20797 0.0
H1484 H 0.70788 0.95277 0.21965 0.0
H1485 H 0.65507 0.86486 0.17785 0.0
H1486 H 0.65325 0.88031 0.20842 0.0
H1487 H 0.70037 0.91217 0.20452 0.0
H1488 H 0.70202 0.89695 0.17366 0.0
H1489 H 0.68563 0.92658 0.2033 0.0
H1490 H 0.68497 0.88838 0.24961 0.0
H1491 H 0.67627 0.86257 0.2626 0.0
H1492 H 0.63313 0.85706 0.27495 0.0
H1493 H 0.64151 0.88277 0.26169 0.0
C1494 C 0.68929 0.96028 0.29949 0.0
C1495 C 0.67627 0.95925 0.30808 0.0
C1496 C 0.6884 0.95055 0.282 0.0
C1497 C 0.67447 0.93946 0.27298 0.0
C1498 C 0.66144 0.93855 0.28118 0.0
C1499 C 0.66234 0.94851 0.29844 0.0
C1500 C 0.67371 0.92851 0.25559 0.0
C1501 C 0.66795 0.91335 0.26126 0.0
C1502 C 0.68011 0.93332 0.23444 0.0
C1503 C 0.68597 0.94912 0.22736 0.0
C1504 C 0.67688 0.95573 0.22772 0.0
C1505 C 0.68248 0.97065 0.22115 0.0
C1506 C 0.69714 0.97905 0.21407 0.0
C1507 C 0.70621 0.97253 0.21348 0.0
C1508 C 0.70066 0.95762 0.22005 0.0
C1509 C 0.66506 0.87495 0.18405 0.0
C1510 C 0.67871 0.8797 0.17375 0.0
C1511 C 0.66403 0.88379 0.20143 0.0
C1512 C 0.67669 0.89743 0.20883 0.0
C1513 C 0.69045 0.90176 0.19908 0.0
C1514 C 0.69143 0.89301 0.18163 0.0
C1515 C 0.67549 0.90779 0.22546 0.0
C1516 C 0.6809 0.9229 0.21966 0.0
C1517 C 0.66892 0.90295 0.24659 0.0
C1518 C 0.66381 0.88743 0.25437 0.0
C1519 C 0.67358 0.88161 0.25486 0.0
C1520 C 0.66871 0.86701 0.26233 0.0
C1521 C 0.65414 0.85816 0.26952 0.0
C1522 C 0.64441 0.86391 0.26931 0.0
C1523 C 0.64921 0.8785 0.26183 0.0
H1524 H 0.6504 0.84686 0.27531 0.0
H1525 H 0.70145 0.99059 0.20899 0.0
H1526 H 0.0621 0.70872 0.27219 0.0
H1527 H 0.08299 0.73018 0.2551 0.0
H1528 H 0.07209 0.76074 0.2897 0.0
H1529 H 0.05076 0.73916 0.30626 0.0
H1530 H 0.07795 0.7689 0.24899 0.0
H1531 H 0.10331 0.75782 0.30536 0.0
H1532 H 0.10995 0.74215 0.32851 0.0
H1533 H 0.12583 0.7298 0.27032 0.0
H1534 H 0.11905 0.74519 0.24672 0.0
H1535 H 0.14104 0.82746 0.19756 0.0
H1536 H 0.12794 0.81282 0.23022 0.0
H1537 H 0.12342 0.77244 0.19814 0.0
H1538 H 0.13661 0.787 0.16575 0.0
H1539 H 0.1279 0.77356 0.24512 0.0
H1540 H 0.09875 0.78351 0.18912 0.0
H1541 H 0.0938 0.80138 0.16858 0.0
H1542 H 0.08549 0.81751 0.2306 0.0
H1543 H 0.09126 0.80038 0.25168 0.0
C1544 C 0.0642 0.72001 0.27627 0.0
C1545 C 0.05483 0.72227 0.29059 0.0
C1546 C 0.07623 0.7323 0.26661 0.0
C1547 C 0.07934 0.74714 0.27147 0.0
C1548 C 0.06997 0.74942 0.28579 0.0
C1549 C 0.05779 0.73708 0.29522 0.0
C1550 C 0.09191 0.76011 0.26057 0.0
C1551 C 0.08897 0.77011 0.24862 0.0
C1552 C 0.10634 0.7618 0.2601 0.0
C1553 C 0.11059 0.75262 0.27424 0.0
C1554 C 0.10814 0.75169 0.29746 0.0
C1555 C 0.11193 0.74286 0.31067 0.0
C1556 C 0.11829 0.73497 0.30088 0.0
C1557 C 0.1209 0.73592 0.27787 0.0
C1558 C 0.1171 0.74472 0.26457 0.0
C1559 C 0.13764 0.81556 0.19784 0.0
C1560 C 0.13959 0.80827 0.17905 0.0
C1561 C 0.13015 0.80722 0.21644 0.0
C1562 C 0.12455 0.79153 0.2164 0.0
C1563 C 0.12763 0.78453 0.19847 0.0
C1564 C 0.13504 0.79282 0.1799 0.0
C1565 C 0.11373 0.7819 0.23314 0.0
C1566 C 0.11698 0.77252 0.24607 0.0
C1567 C 0.09967 0.78097 0.23488 0.0
C1568 C 0.09565 0.79081 0.22201 0.0
C1569 C 0.09599 0.79095 0.19841 0.0
C1570 C 0.09305 0.80095 0.18666 0.0
C1571 C 0.08924 0.8105 0.19824 0.0
C1572 C 0.08845 0.81012 0.22164 0.0
C1573 C 0.09166 0.80034 0.23351 0.0
H1574 H 0.08692 0.81819 0.1891 0.0
H1575 H 0.12122 0.72814 0.31113 0.0
H1576 H 0.29991 0.35527 0.31038 0.0
H1577 H 0.28751 0.35936 0.27795 0.0
H1578 H 0.2476 0.3169 0.2891 0.0
H1579 H 0.25971 0.31282 0.32144 0.0
H1580 H 0.27511 0.34448 0.23891 0.0
H1581 H 0.21718 0.31991 0.28019 0.0
H1582 H 0.20727 0.31823 0.31803 0.0
H1583 H 0.2484 0.35728 0.34049 0.0
H1584 H 0.25848 0.35934 0.30272 0.0
H1585 H 0.21795 0.31956 0.15748 0.0
H1586 H 0.2338 0.32243 0.19011 0.0
H1587 H 0.22694 0.35787 0.21733 0.0
H1588 H 0.21081 0.35487 0.18447 0.0
H1589 H 0.22566 0.34005 0.24946 0.0
H1590 H 0.26047 0.3665 0.19358 0.0
H1591 H 0.27226 0.37135 0.15676 0.0
H1592 H 0.27976 0.33393 0.16448 0.0
H1593 H 0.26788 0.32875 0.20127 0.0
C1594 C 0.28855 0.34673 0.30575 0.0
C1595 C 0.28076 0.33379 0.31866 0.0
C1596 C 0.28147 0.34911 0.28726 0.0
C1597 C 0.26651 0.3386 0.28144 0.0
C1598 C 0.25901 0.32535 0.29363 0.0
C1599 C 0.26601 0.323 0.31208 0.0
C1600 C 0.25854 0.34136 0.26277 0.0
C1601 C 0.26434 0.34359 0.24121 0.0
C1602 C 0.2447 0.34072 0.26592 0.0
C1603 C 0.23862 0.3397 0.28863 0.0
C1604 C 0.22408 0.32819 0.29316 0.0
C1605 C 0.21844 0.32717 0.31461 0.0
C1606 C 0.22721 0.33762 0.33167 0.0
C1607 C 0.24163 0.34916 0.32729 0.0
C1608 C 0.24732 0.35025 0.30586 0.0
C1609 C 0.21985 0.32799 0.1704 0.0
C1610 C 0.21331 0.33714 0.16834 0.0
C1611 C 0.22897 0.32968 0.18899 0.0
C1612 C 0.2319 0.34064 0.20592 0.0
C1613 C 0.22496 0.34944 0.20435 0.0
C1614 C 0.21571 0.3477 0.18568 0.0
C1615 C 0.24192 0.34247 0.22539 0.0
C1616 C 0.23651 0.34112 0.24715 0.0
C1617 C 0.25629 0.34432 0.22249 0.0
C1618 C 0.26324 0.34722 0.20018 0.0
C1619 C 0.26455 0.35925 0.18738 0.0
C1620 C 0.2713 0.36209 0.16655 0.0
C1621 C 0.27684 0.35301 0.15835 0.0
C1622 C 0.27556 0.34102 0.17092 0.0
C1623 C 0.26883 0.33813 0.19178 0.0
H1624 H 0.28202 0.3552 0.14219 0.0
H1625 H 0.22283 0.3368 0.34826 0.0
H1626 H 0.30594 0.37723 0.41781 0.0
H1627 H 0.28821 0.38246 0.437 0.0
H1628 H 0.25292 0.33684 0.42155 0.0
H1629 H 0.27062 0.33143 0.40272 0.0
H1630 H 0.24582 0.36127 0.41391 0.0
H1631 H 0.26555 0.34164 0.47004 0.0
H1632 H 0.28504 0.3405 0.49293 0.0
H1633 H 0.30144 0.38612 0.51731 0.0
H1634 H 0.28215 0.38759 0.49431 0.0
H1635 H 0.19054 0.34153 0.49472 0.0
H1636 H 0.20833 0.34651 0.46526 0.0
H1637 H 0.2412 0.38663 0.50222 0.0
H1638 H 0.22356 0.38108 0.5323 0.0
H1639 H 0.25145 0.36916 0.49669 0.0
H1640 H 0.22817 0.38679 0.44598 0.0
H1641 H 0.20778 0.38714 0.42449 0.0
H1642 H 0.19729 0.34541 0.39035 0.0
H1643 H 0.21745 0.34466 0.41189 0.0
C1644 C 0.29438 0.36833 0.41843 0.0
C1645 C 0.28968 0.35386 0.40898 0.0
C1646 C 0.2843 0.37135 0.42935 0.0
C1647 C 0.26931 0.36003 0.43063 0.0
C1648 C 0.26447 0.34571 0.42064 0.0
C1649 C 0.27461 0.3426 0.41009 0.0
C1650 C 0.25885 0.36286 0.44346 0.0
C1651 C 0.24691 0.36293 0.43204 0.0
C1652 C 0.26066 0.36549 0.46696 0.0
C1653 C 0.2726 0.36482 0.48014 0.0
C1654 C 0.27347 0.35151 0.48 0.0
C1655 C 0.28443 0.35078 0.49308 0.0
C1656 C 0.29452 0.36326 0.50648 0.0
C1657 C 0.29366 0.37649 0.50685 0.0
C1658 C 0.28272 0.37728 0.49379 0.0
C1659 C 0.20134 0.35177 0.49599 0.0
C1660 C 0.20577 0.36095 0.51563 0.0
C1661 C 0.21153 0.35466 0.47911 0.0
C1662 C 0.22618 0.36695 0.48147 0.0
C1663 C 0.23 0.37705 0.50005 0.0
C1664 C 0.21992 0.37396 0.51715 0.0
C1665 C 0.23807 0.36741 0.46735 0.0
C1666 C 0.25036 0.36787 0.47853 0.0
C1667 C 0.2365 0.36526 0.44367 0.0
C1668 C 0.22429 0.36563 0.4307 0.0
C1669 C 0.22144 0.37761 0.43404 0.0
C1670 C 0.20993 0.37789 0.42182 0.0
C1671 C 0.20123 0.36629 0.4061 0.0
C1672 C 0.20403 0.35439 0.40254 0.0
C1673 C 0.21552 0.35404 0.41473 0.0
H1674 H 0.19233 0.36654 0.39665 0.0
H1675 H 0.30297 0.36265 0.51664 0.0
H1676 H 0.68341 0.96435 0.41122 0.0
H1677 H 0.68418 0.94417 0.43147 0.0
H1678 H 0.63904 0.91276 0.40852 0.0
H1679 H 0.63829 0.93286 0.38779 0.0
H1680 H 0.66796 0.92906 0.46524 0.0
H1681 H 0.63435 0.87689 0.40458 0.0
H1682 H 0.63011 0.87119 0.36379 0.0
H1683 H 0.6722 0.91063 0.35132 0.0
H1684 H 0.67681 0.91643 0.39204 0.0
H1685 H 0.63443 0.85924 0.51914 0.0
H1686 H 0.63746 0.87773 0.4913 0.0
H1687 H 0.67755 0.8793 0.46905 0.0
H1688 H 0.67514 0.8614 0.49789 0.0
H1689 H 0.65465 0.87842 0.43347 0.0
H1690 H 0.68562 0.90501 0.49809 0.0
H1691 H 0.69269 0.91293 0.53785 0.0
H1692 H 0.6601 0.92711 0.54097 0.0
H1693 H 0.65247 0.9188 0.5014 0.0
C1694 C 0.67371 0.95311 0.4102 0.0
C1695 C 0.66081 0.95021 0.39781 0.0
C1696 C 0.67415 0.94159 0.42186 0.0
C1697 C 0.66173 0.92691 0.42135 0.0
C1698 C 0.64886 0.92393 0.40886 0.0
C1699 C 0.6484 0.93547 0.39716 0.0
C1700 C 0.66192 0.91501 0.43511 0.0
C1701 C 0.6651 0.91802 0.45824 0.0
C1702 C 0.65843 0.90068 0.42591 0.0
C1703 C 0.65585 0.89717 0.40138 0.0
C1704 C 0.64274 0.88431 0.39315 0.0
C1705 C 0.64026 0.88106 0.37003 0.0
C1706 C 0.65086 0.89057 0.35497 0.0
C1707 C 0.66398 0.90331 0.363 0.0
C1708 C 0.66652 0.90659 0.3861 0.0
C1709 C 0.64388 0.86343 0.50827 0.0
C1710 C 0.65469 0.85902 0.51106 0.0
C1711 C 0.64553 0.87394 0.49231 0.0
C1712 C 0.65781 0.87997 0.47837 0.0
C1713 C 0.66801 0.87475 0.47976 0.0
C1714 C 0.66655 0.86444 0.49614 0.0
C1715 C 0.66036 0.89246 0.46354 0.0
C1716 C 0.65759 0.88952 0.44032 0.0
C1717 C 0.66446 0.90698 0.47257 0.0
C1718 C 0.66833 0.91108 0.49681 0.0
C1719 C 0.67973 0.90951 0.50736 0.0
C1720 C 0.68391 0.91417 0.52984 0.0
C1721 C 0.67691 0.9206 0.54189 0.0
C1722 C 0.66558 0.92222 0.53156 0.0
C1723 C 0.66127 0.91746 0.50915 0.0
H1724 H 0.6802 0.92425 0.55927 0.0
H1725 H 0.64891 0.88804 0.33708 0.0
H1726 H 0.08201 0.71179 0.37272 0.0
H1727 H 0.09606 0.72945 0.40359 0.0
H1728 H 0.05737 0.73262 0.42048 0.0
H1729 H 0.04316 0.71503 0.38908 0.0
H1730 H 0.08183 0.76028 0.41923 0.0
H1731 H 0.06963 0.71396 0.45412 0.0
H1732 H 0.06732 0.68885 0.45758 0.0
H1733 H 0.11479 0.7088 0.45319 0.0
H1734 H 0.11737 0.73402 0.44939 0.0
H1735 H 0.11375 0.79885 0.52506 0.0
H1736 H 0.09856 0.78228 0.49352 0.0
H1737 H 0.13587 0.77789 0.47238 0.0
H1738 H 0.15103 0.79424 0.50426 0.0
H1739 H 0.1111 0.75061 0.47671 0.0
H1740 H 0.12302 0.79701 0.44116 0.0
H1741 H 0.12504 0.82202 0.43811 0.0
H1742 H 0.07768 0.80174 0.44458 0.0
H1743 H 0.07539 0.77662 0.44797 0.0
C1744 C 0.07635 0.71604 0.38312 0.0
C1745 C 0.0614 0.71194 0.37835 0.0
C1746 C 0.08443 0.72615 0.40087 0.0
C1747 C 0.07777 0.73231 0.4145 0.0
C1748 C 0.06275 0.728 0.41019 0.0
C1749 C 0.05461 0.71784 0.39234 0.0
C1750 C 0.0868 0.74375 0.43252 0.0
C1751 C 0.08803 0.75808 0.43205 0.0
C1752 C 0.09518 0.74102 0.44894 0.0
C1753 C 0.09368 0.72587 0.45128 0.0
C1754 C 0.07957 0.71298 0.45372 0.0
C1755 C 0.07821 0.69873 0.45578 0.0
C1756 C 0.0909 0.69723 0.45556 0.0
C1757 C 0.10497 0.70998 0.45334 0.0
C1758 C 0.10639 0.72426 0.45126 0.0
C1759 C 0.1188 0.7946 0.5134 0.0
C1760 C 0.13357 0.79779 0.51716 0.0
C1761 C 0.11012 0.78517 0.49534 0.0
C1762 C 0.11605 0.7788 0.48059 0.0
C1763 C 0.13105 0.78264 0.4836 0.0
C1764 C 0.13976 0.79212 0.50166 0.0
C1765 C 0.10629 0.7672 0.46324 0.0
C1766 C 0.10489 0.75281 0.46391 0.0
C1767 C 0.09771 0.76986 0.44711 0.0
C1768 C 0.09906 0.78495 0.44504 0.0
C1769 C 0.11305 0.7979 0.44212 0.0
C1770 C 0.11424 0.81209 0.44029 0.0
C1771 C 0.1015 0.81347 0.44121 0.0
C1772 C 0.08754 0.80066 0.4439 0.0
C1773 C 0.08629 0.78644 0.44575 0.0
H1774 H 0.10245 0.82447 0.43978 0.0
H1775 H 0.08983 0.68618 0.45716 0.0
H1776 H 0.35363 0.05157 0.71885 0.0
H1777 H 0.35553 0.06824 0.75046 0.0
H1778 H 0.31599 0.06788 0.72547 0.0
H1779 H 0.31403 0.0514 0.69398 0.0
H1780 H 0.3381 0.09628 0.73513 0.0
H1781 H 0.31514 0.04837 0.77153 0.0
H1782 H 0.31301 0.02444 0.78378 0.0
H1783 H 0.35468 0.04919 0.82094 0.0
H1784 H 0.35716 0.07328 0.80866 0.0
H1785 H 0.31903 0.12682 0.8287 0.0
H1786 H 0.32031 0.11189 0.79712 0.0
H1787 H 0.35878 0.11315 0.82865 0.0
H1788 H 0.35746 0.12797 0.86034 0.0
H1789 H 0.33913 0.08518 0.81566 0.0
H1790 H 0.36155 0.1332 0.78094 0.0
H1791 H 0.36364 0.15715 0.76892 0.0
H1792 H 0.32331 0.13245 0.7286 0.0
H1793 H 0.32086 0.10833 0.74063 0.0
C1794 C 0.34523 0.05488 0.72025 0.0
C1795 C 0.33371 0.05016 0.70377 0.0
C1796 C 0.34633 0.06442 0.73833 0.0
C1797 C 0.33591 0.06935 0.7403 0.0
C1798 C 0.32422 0.06432 0.72422 0.0
C1799 C 0.3231 0.05482 0.70623 0.0
C1800 C 0.33734 0.08013 0.75862 0.0
C1801 C 0.33818 0.09379 0.75275 0.0
C1802 C 0.33788 0.07708 0.78159 0.0
C1803 C 0.33642 0.06262 0.78895 0.0
C1804 C 0.32392 0.0487 0.78214 0.0
C1805 C 0.32263 0.03511 0.78913 0.0
C1806 C 0.33373 0.03529 0.80307 0.0
C1807 C 0.34611 0.04907 0.81011 0.0
C1808 C 0.34746 0.06269 0.80315 0.0
C1809 C 0.32798 0.12423 0.82863 0.0
C1810 C 0.33814 0.12857 0.84701 0.0
C1811 C 0.32868 0.11565 0.81059 0.0
C1812 C 0.33968 0.11141 0.81044 0.0
C1813 C 0.35015 0.1162 0.82842 0.0
C1814 C 0.34941 0.1247 0.84649 0.0
C1815 C 0.33974 0.1013 0.79219 0.0
C1816 C 0.33918 0.08775 0.79805 0.0
C1817 C 0.33949 0.10446 0.76919 0.0
C1818 C 0.34096 0.11895 0.76185 0.0
C1819 C 0.35307 0.13287 0.76964 0.0
C1820 C 0.35433 0.14648 0.7628 0.0
C1821 C 0.3436 0.14632 0.74805 0.0
C1822 C 0.33161 0.13255 0.74005 0.0
C1823 C 0.33029 0.11891 0.74685 0.0
H1824 H 0.34459 0.15687 0.74277 0.0
H1825 H 0.33271 0.02476 0.80847 0.0
H1826 H 0.94093 0.29968 0.74596 0.0
H1827 H 0.92076 0.27976 0.76668 0.0
H1828 H 0.93123 0.24697 0.73904 0.0
H1829 H 0.9515 0.26689 0.71811 0.0
H1830 H 0.89979 0.23617 0.74153 0.0
H1831 H 0.94449 0.26016 0.78818 0.0
H1832 H 0.96667 0.28163 0.80669 0.0
H1833 H 0.9387 0.29457 0.84168 0.0
H1834 H 0.91635 0.27331 0.82308 0.0
H1835 H 0.86731 0.18144 0.82802 0.0
H1836 H 0.88155 0.19857 0.79821 0.0
H1837 H 0.87799 0.23456 0.8313 0.0
H1838 H 0.86422 0.21758 0.86138 0.0
H1839 H 0.90576 0.2432 0.82448 0.0
H1840 H 0.86063 0.21819 0.77891 0.0
H1841 H 0.83859 0.19629 0.76088 0.0
H1842 H 0.86703 0.18471 0.72434 0.0
H1843 H 0.88925 0.20643 0.7424 0.0
C1844 C 0.93884 0.28821 0.744 0.0
C1845 C 0.94788 0.28487 0.73052 0.0
C1846 C 0.92731 0.27685 0.75588 0.0
C1847 C 0.9246 0.26194 0.75448 0.0
C1848 C 0.93316 0.25841 0.74028 0.0
C1849 C 0.94478 0.26982 0.72848 0.0
C1850 C 0.91363 0.2504 0.76927 0.0
C1851 C 0.9011 0.23757 0.75968 0.0
C1852 C 0.91532 0.2524 0.7929 0.0
C1853 C 0.92875 0.26524 0.80404 0.0
C1854 C 0.94307 0.26767 0.79965 0.0
C1855 C 0.95568 0.27979 0.81019 0.0
C1856 C 0.9541 0.28949 0.8253 0.0
C1857 C 0.93991 0.28707 0.82994 0.0
C1858 C 0.92727 0.27499 0.8194 0.0
C1859 C 0.86924 0.19289 0.8285 0.0
C1860 C 0.86478 0.19828 0.84693 0.0
C1861 C 0.87734 0.20267 0.81148 0.0
C1862 C 0.88086 0.21788 0.81251 0.0
C1863 C 0.87549 0.22291 0.83021 0.0
C1864 C 0.86759 0.21323 0.84732 0.0
C1865 C 0.89158 0.229 0.79689 0.0
C1866 C 0.90425 0.24176 0.80635 0.0
C1867 C 0.88996 0.22686 0.77321 0.0
C1868 C 0.87661 0.21386 0.76219 0.0
C1869 C 0.86219 0.21091 0.76717 0.0
C1870 C 0.84966 0.19854 0.75691 0.0
C1871 C 0.85141 0.18909 0.74152 0.0
C1872 C 0.86569 0.19203 0.73629 0.0
C1873 C 0.87826 0.20438 0.74651 0.0
H1874 H 0.84169 0.1795 0.73362 0.0
H1875 H 0.96388 0.29885 0.83347 0.0
H1876 H 0.71427 0.67439 0.71748 0.0
H1877 H 0.73038 0.67753 0.7504 0.0
H1878 H 0.76582 0.68435 0.70675 0.0
H1879 H 0.75004 0.68167 0.67396 0.0
H1880 H 0.75766 0.6616 0.74308 0.0
H1881 H 0.77101 0.71351 0.72926 0.0
H1882 H 0.76535 0.73401 0.7237 0.0
H1883 H 0.74607 0.7266 0.78873 0.0
H1884 H 0.75142 0.70588 0.79453 0.0
H1885 H 0.81445 0.67994 0.82415 0.0
H1886 H 0.80157 0.68144 0.79046 0.0
H1887 H 0.77391 0.69209 0.83144 0.0
H1888 H 0.78764 0.69201 0.86499 0.0
H1889 H 0.7781 0.70625 0.79559 0.0
H1890 H 0.76302 0.65467 0.81052 0.0
H1891 H 0.7664 0.63282 0.81751 0.0
H1892 H 0.78569 0.6374 0.75289 0.0
H1893 H 0.7826 0.65942 0.74563 0.0
C1894 C 0.7255 0.67658 0.71495 0.0
C1895 C 0.73093 0.67784 0.69316 0.0
C1896 C 0.73468 0.67841 0.73371 0.0
C1897 C 0.74927 0.68122 0.73091 0.0
C1898 C 0.75461 0.68223 0.7092 0.0
C1899 C 0.74559 0.68074 0.69052 0.0
C1900 C 0.75898 0.68292 0.75057 0.0
C1901 C 0.7623 0.67142 0.75447 0.0
C1902 C 0.76461 0.69554 0.76565 0.0
C1903 C 0.76146 0.70803 0.76221 0.0
C1904 C 0.76543 0.71614 0.74228 0.0
C1905 C 0.76231 0.72783 0.7391 0.0
C1906 C 0.75531 0.73157 0.75582 0.0
C1907 C 0.75146 0.72367 0.77578 0.0
C1908 C 0.75455 0.71196 0.77902 0.0
C1909 C 0.80593 0.68304 0.82602 0.0
C1910 C 0.80191 0.68554 0.84744 0.0
C1911 C 0.79838 0.68365 0.80669 0.0
C1912 C 0.78637 0.68633 0.80839 0.0
C1913 C 0.78298 0.68977 0.82962 0.0
C1914 C 0.79074 0.68952 0.84888 0.0
C1915 C 0.77689 0.68487 0.78832 0.0
C1916 C 0.77354 0.69639 0.78429 0.0
C1917 C 0.77091 0.67206 0.77337 0.0
C1918 C 0.77273 0.65879 0.77764 0.0
C1919 C 0.76807 0.65108 0.79786 0.0
C1920 C 0.76993 0.63866 0.80187 0.0
C1921 C 0.7763 0.63375 0.78568 0.0
C1922 C 0.78079 0.64123 0.76543 0.0
C1923 C 0.77898 0.65368 0.76135 0.0
H1924 H 0.77772 0.62414 0.78882 0.0
H1925 H 0.75291 0.74062 0.75333 0.0
H1926 H 0.70997 0.6298 0.63563 0.0
H1927 H 0.72827 0.6252 0.6166 0.0
H1928 H 0.73299 0.65701 0.56623 0.0
H1929 H 0.71509 0.66192 0.58534 0.0
H1930 H 0.72911 0.62771 0.54972 0.0
H1931 H 0.75854 0.67054 0.60258 0.0
H1932 H 0.76481 0.68226 0.64071 0.0
H1933 H 0.77265 0.64708 0.66344 0.0
H1934 H 0.76638 0.63514 0.62535 0.0
H1935 H 0.80133 0.67461 0.50802 0.0
H1936 H 0.783 0.66688 0.53735 0.0
H1937 H 0.77758 0.62215 0.53516 0.0
H1938 H 0.79591 0.62984 0.50526 0.0
H1939 H 0.78053 0.65026 0.58241 0.0
H1940 H 0.74997 0.60676 0.5271 0.0
H1941 H 0.74277 0.59628 0.48826 0.0
H1942 H 0.73678 0.6335 0.47034 0.0
H1943 H 0.74412 0.64426 0.50906 0.0
C1944 C 0.71484 0.6357 0.62039 0.0
C1945 C 0.71116 0.64623 0.61192 0.0
C1946 C 0.72528 0.63308 0.60962 0.0
C1947 C 0.73189 0.64074 0.59003 0.0
C1948 C 0.72792 0.65094 0.58128 0.0
C1949 C 0.71776 0.65378 0.59225 0.0
C1950 C 0.74341 0.63875 0.57884 0.0
C1951 C 0.74027 0.63229 0.55706 0.0
C1952 C 0.7579 0.64464 0.5885 0.0
C1953 C 0.76184 0.65187 0.61126 0.0
C1954 C 0.76151 0.66526 0.61576 0.0
C1955 C 0.76508 0.67195 0.63735 0.0
C1956 C 0.76904 0.66537 0.65455 0.0
C1957 C 0.76954 0.65214 0.65013 0.0
C1958 C 0.76601 0.64542 0.62854 0.0
C1959 C 0.79639 0.66319 0.51401 0.0
C1960 C 0.79988 0.65276 0.50426 0.0
C1961 C 0.78599 0.65881 0.53081 0.0
C1962 C 0.77887 0.64393 0.53821 0.0
C1963 C 0.78291 0.63366 0.52949 0.0
C1964 C 0.79341 0.63807 0.51258 0.0
C1965 C 0.76622 0.6392 0.55326 0.0
C1966 C 0.76917 0.64477 0.5756 0.0
C1967 C 0.75149 0.63238 0.54421 0.0
C1968 C 0.74773 0.62636 0.52079 0.0
C1969 C 0.74729 0.61279 0.51477 0.0
C1970 C 0.74314 0.60677 0.49283 0.0
C1971 C 0.73928 0.6142 0.47687 0.0
C1972 C 0.73973 0.62774 0.48275 0.0
C1973 C 0.74391 0.63381 0.50465 0.0
H1974 H 0.73592 0.60945 0.45997 0.0
H1975 H 0.77177 0.67055 0.67126 0.0
H1976 H 0.33378 0.05775 0.62779 0.0
H1977 H 0.33598 0.07958 0.60838 0.0
H1978 H 0.37871 0.08911 0.58386 0.0
H1979 H 0.37679 0.06761 0.60434 0.0
H1980 H 0.38029 0.11438 0.59318 0.0
H1981 H 0.34472 0.07021 0.55079 0.0
H1982 H 0.32222 0.04518 0.54427 0.0
H1983 H 0.29466 0.0633 0.56513 0.0
H1984 H 0.31703 0.0884 0.57204 0.0
H1985 H 0.37664 0.15032 0.49176 0.0
H1986 H 0.37863 0.13503 0.52139 0.0
H1987 H 0.34316 0.13629 0.55635 0.0
H1988 H 0.34124 0.15173 0.52683 0.0
H1989 H 0.33797 0.10677 0.54345 0.0
H1990 H 0.37539 0.15238 0.58156 0.0
H1991 H 0.39873 0.17699 0.58455 0.0
H1992 H 0.42384 0.15545 0.56696 0.0
H1993 H 0.40062 0.13073 0.56354 0.0
C1994 C 0.34358 0.06443 0.61814 0.0
C1995 C 0.35496 0.06081 0.61712 0.0
C1996 C 0.34486 0.07694 0.60705 0.0
C1997 C 0.35733 0.08581 0.59408 0.0
C1998 C 0.36893 0.08243 0.59362 0.0
C1999 C 0.36781 0.07012 0.60522 0.0
C2000 C 0.35809 0.09832 0.58062 0.0
C2001 C 0.37107 0.11265 0.58216 0.0
C2002 C 0.34603 0.09621 0.56636 0.0
C2003 C 0.33256 0.08114 0.56216 0.0
C2004 C 0.33387 0.06883 0.55413 0.0
C2005 C 0.32114 0.05463 0.55035 0.0
C2006 C 0.30702 0.05264 0.55435 0.0
C2007 C 0.30561 0.06485 0.56208 0.0
C2008 C 0.3183 0.07907 0.56592 0.0
C2009 C 0.36967 0.1478 0.50621 0.0
C2010 C 0.35882 0.15223 0.50709 0.0
C2011 C 0.3708 0.13907 0.52309 0.0
C2012 C 0.36102 0.13452 0.54101 0.0
C2013 C 0.35083 0.13974 0.54267 0.0
C2014 C 0.34983 0.14865 0.52593 0.0
C2015 C 0.36009 0.12274 0.55614 0.0
C2016 C 0.34709 0.1085 0.55471 0.0
C2017 C 0.37226 0.12486 0.56999 0.0
C2018 C 0.38624 0.13971 0.57212 0.0
C2019 C 0.38587 0.1529 0.57814 0.0
C2020 C 0.39909 0.16687 0.57995 0.0
C2021 C 0.41275 0.16779 0.5759 0.0
C2022 C 0.41324 0.15472 0.57008 0.0
C2023 C 0.40006 0.14073 0.56823 0.0
H2024 H 0.42297 0.17861 0.57732 0.0
H2025 H 0.29718 0.04164 0.55141 0.0
H2026 H 0.92407 0.30056 0.64603 0.0
H2027 H 0.90959 0.28404 0.61421 0.0
H2028 H 0.94629 0.2773 0.59796 0.0
H2029 H 0.961 0.29393 0.6299 0.0
H2030 H 0.93175 0.28002 0.55995 0.0
H2031 H 0.91899 0.25158 0.62725 0.0
H2032 H 0.91116 0.24625 0.66646 0.0
H2033 H 0.86976 0.24414 0.64878 0.0
H2034 H 0.87745 0.2497 0.60951 0.0
H2035 H 0.8929 0.21315 0.49416 0.0
H2036 H 0.9073 0.23085 0.52506 0.0
H2037 H 0.86929 0.23544 0.54119 0.0
H2038 H 0.8547 0.21749 0.51014 0.0
H2039 H 0.88427 0.23434 0.57889 0.0
H2040 H 0.89683 0.26172 0.51072 0.0
H2041 H 0.90485 0.26675 0.47156 0.0
H2042 H 0.94686 0.2707 0.49068 0.0
H2043 H 0.93899 0.26542 0.52991 0.0
C2044 C 0.9292 0.29576 0.63557 0.0
C2045 C 0.94367 0.29846 0.64074 0.0
C2046 C 0.92086 0.28627 0.61739 0.0
C2047 C 0.92675 0.27921 0.604 0.0
C2048 C 0.94151 0.28258 0.60819 0.0
C2049 C 0.9499 0.2921 0.62645 0.0
C2050 C 0.91717 0.26767 0.58652 0.0
C2051 C 0.92146 0.26995 0.56409 0.0
C2052 C 0.90358 0.25468 0.59192 0.0
C2053 C 0.89887 0.25121 0.61549 0.0
C2054 C 0.90827 0.2501 0.63176 0.0
C2055 C 0.90385 0.24702 0.65399 0.0
C2056 C 0.88999 0.24489 0.66012 0.0
C2057 C 0.8805 0.24581 0.64401 0.0
C2058 C 0.88488 0.24892 0.62176 0.0
C2059 C 0.88756 0.21782 0.50445 0.0
C2060 C 0.87275 0.21411 0.49965 0.0
C2061 C 0.89582 0.22798 0.52202 0.0
C2062 C 0.88949 0.23476 0.53506 0.0
C2063 C 0.87442 0.23043 0.53117 0.0
C2064 C 0.86608 0.22016 0.51355 0.0
C2065 C 0.89884 0.24666 0.55227 0.0
C2066 C 0.89452 0.24444 0.57469 0.0
C2067 C 0.91242 0.25968 0.54683 0.0
C2068 C 0.91726 0.26303 0.52326 0.0
C2069 C 0.90774 0.26354 0.50656 0.0
C2070 C 0.91226 0.26645 0.48434 0.0
C2071 C 0.92634 0.269 0.47862 0.0
C2072 C 0.93595 0.2687 0.49513 0.0
C2073 C 0.93146 0.26576 0.51737 0.0
H2074 H 0.92982 0.27124 0.46141 0.0
H2075 H 0.88658 0.24251 0.67734 0.0
H2076 H 0.3265 0.29097 0.63813 0.0
H2077 H 0.32636 0.27574 0.60577 0.0
H2078 H 0.36063 0.27001 0.63852 0.0
H2079 H 0.3611 0.28539 0.67055 0.0
H2080 H 0.36542 0.27415 0.59453 0.0
H2081 H 0.32375 0.24408 0.64101 0.0
H2082 H 0.30093 0.23874 0.66046 0.0
H2083 H 0.2787 0.23524 0.59721 0.0
H2084 H 0.30166 0.24136 0.57737 0.0
H2085 H 0.35748 0.21196 0.52922 0.0
H2086 H 0.35723 0.2266 0.56216 0.0
H2087 H 0.32198 0.23125 0.53049 0.0
H2088 H 0.32183 0.21624 0.49803 0.0
H2089 H 0.31762 0.22757 0.57407 0.0
H2090 H 0.35868 0.25908 0.52777 0.0
H2091 H 0.38162 0.26624 0.50721 0.0
H2092 H 0.40442 0.26728 0.56878 0.0
H2093 H 0.38154 0.2599 0.58966 0.0
C2094 C 0.33416 0.28666 0.63831 0.0
C2095 C 0.34369 0.2893 0.65709 0.0
C2096 C 0.33402 0.27789 0.61984 0.0
C2097 C 0.34329 0.2715 0.61992 0.0
C2098 C 0.35333 0.27476 0.63812 0.0
C2099 C 0.35353 0.28354 0.65649 0.0
C2100 C 0.34211 0.26078 0.6017 0.0
C2101 C 0.355 0.26389 0.59023 0.0
C2102 C 0.32845 0.24751 0.59581 0.0
C2103 C 0.31449 0.24334 0.6077 0.0
C2104 C 0.31404 0.24229 0.63123 0.0
C2105 C 0.30107 0.23911 0.64234 0.0
C2106 C 0.28834 0.23655 0.63009 0.0
C2107 C 0.28857 0.23722 0.60668 0.0
C2108 C 0.30159 0.24062 0.5955 0.0
C2109 C 0.34945 0.21581 0.52956 0.0
C2110 C 0.33982 0.21315 0.51093 0.0
C2111 C 0.34941 0.22429 0.54827 0.0
C2112 C 0.33981 0.23032 0.54857 0.0
C2113 C 0.32956 0.22684 0.53058 0.0
C2114 C 0.32956 0.21834 0.51197 0.0
C2115 C 0.34094 0.24094 0.56692 0.0
C2116 C 0.32804 0.23782 0.57842 0.0
C2117 C 0.35456 0.25426 0.57273 0.0
C2118 C 0.36836 0.25878 0.56024 0.0
C2119 C 0.36856 0.26073 0.5369 0.0
C2120 C 0.38155 0.26484 0.52519 0.0
C2121 C 0.39446 0.26717 0.53667 0.0
C2122 C 0.39441 0.26544 0.5599 0.0
C2123 C 0.38143 0.2613 0.57168 0.0
H2124 H 0.40451 0.27036 0.52758 0.0
H2125 H 0.2783 0.23405 0.63875 0.0
H2126 H 0.71997 0.06953 0.6306 0.0
H2127 H 0.74137 0.0904 0.61317 0.0
H2128 H 0.75005 0.05846 0.57784 0.0
H2129 H 0.72898 0.03757 0.59588 0.0
H2130 H 0.7755 0.08236 0.59082 0.0
H2131 H 0.73031 0.0742 0.55299 0.0
H2132 H 0.70543 0.07186 0.55044 0.0
H2133 H 0.72378 0.11723 0.5773 0.0
H2134 H 0.74874 0.11976 0.58027 0.0
H2135 H 0.80514 0.1175 0.48807 0.0
H2136 H 0.79205 0.1023 0.5201 0.0
H2137 H 0.79419 0.1415 0.55251 0.0
H2138 H 0.80745 0.15682 0.52041 0.0
H2139 H 0.76549 0.11718 0.54646 0.0
H2140 H 0.81203 0.12609 0.57715 0.0
H2141 H 0.83658 0.12769 0.57706 0.0
H2142 H 0.81548 0.08013 0.5607 0.0
H2143 H 0.7908 0.07827 0.56036 0.0
C2144 C 0.7265 0.06697 0.61922 0.0
C2145 C 0.72271 0.05192 0.61439 0.0
C2146 C 0.73872 0.07891 0.60925 0.0
C2147 C 0.74716 0.076 0.59387 0.0
C2148 C 0.7437 0.06099 0.58963 0.0
C2149 C 0.73161 0.04905 0.59987 0.0
C2150 C 0.75907 0.08846 0.58125 0.0
C2151 C 0.7733 0.08994 0.58104 0.0
C2152 C 0.75633 0.0986 0.56891 0.0
C2153 C 0.74134 0.0971 0.56711 0.0
C2154 C 0.72901 0.08363 0.55851 0.0
C2155 C 0.7149 0.08227 0.55696 0.0
C2156 C 0.71302 0.09437 0.56377 0.0
C2157 C 0.72525 0.10786 0.57208 0.0
C2158 C 0.73938 0.10926 0.57369 0.0
C2159 C 0.80318 0.12294 0.50235 0.0
C2160 C 0.80723 0.13827 0.50188 0.0
C2161 C 0.79577 0.11428 0.52065 0.0
C2162 C 0.7922 0.12079 0.53869 0.0
C2163 C 0.79693 0.13631 0.53878 0.0
C2164 C 0.80453 0.14504 0.52055 0.0
C2165 C 0.78182 0.1109 0.55569 0.0
C2166 C 0.76781 0.10984 0.55664 0.0
C2167 C 0.78473 0.10102 0.56837 0.0
C2168 C 0.79955 0.10207 0.5686 0.0
C2169 C 0.81262 0.11599 0.57336 0.0
C2170 C 0.82656 0.11694 0.57342 0.0
C2171 C 0.82759 0.10403 0.56884 0.0
C2172 C 0.81467 0.09013 0.56424 0.0
C2173 C 0.8007 0.08912 0.56415 0.0
H2174 H 0.8384 0.10479 0.5689 0.0
H2175 H 0.70209 0.0933 0.56256 0.0
H2176 H 0.92411 0.65448 0.67388 0.0
H2177 H 0.90981 0.65587 0.64205 0.0
H2178 H 0.94806 0.67083 0.60043 0.0
H2179 H 0.96273 0.67004 0.63276 0.0
H2180 H 0.93344 0.68526 0.59 0.0
H2181 H 0.91984 0.63343 0.59909 0.0
H2182 H 0.91158 0.60998 0.6198 0.0
H2183 H 0.87042 0.6085 0.63428 0.0
H2184 H 0.87852 0.63206 0.61388 0.0
H2185 H 0.87496 0.63931 0.49468 0.0
H2186 H 0.89021 0.64084 0.52742 0.0
H2187 H 0.88871 0.67987 0.55292 0.0
H2188 H 0.87369 0.67861 0.51967 0.0
H2189 H 0.88552 0.6385 0.57061 0.0
H2190 H 0.92171 0.70353 0.58018 0.0
H2191 H 0.93162 0.72597 0.55658 0.0
H2192 H 0.93039 0.69908 0.49944 0.0
H2193 H 0.92041 0.67649 0.52265 0.0
C2194 C 0.92953 0.65813 0.65798 0.0
C2195 C 0.94449 0.66192 0.65572 0.0
C2196 C 0.92132 0.6589 0.63978 0.0
C2197 C 0.92773 0.6631 0.6187 0.0
C2198 C 0.94285 0.66747 0.61653 0.0
C2199 C 0.9512 0.66696 0.63495 0.0
C2200 C 0.91839 0.66223 0.59884 0.0
C2201 C 0.92296 0.67505 0.58579 0.0
C2202 C 0.90482 0.64882 0.59304 0.0
C2203 C 0.89984 0.63457 0.60511 0.0
C2204 C 0.90907 0.62815 0.6068 0.0
C2205 C 0.90441 0.61483 0.61847 0.0
C2206 C 0.8905 0.60777 0.62839 0.0
C2207 C 0.8812 0.61399 0.6266 0.0
C2208 C 0.88581 0.62731 0.61496 0.0
C2209 C 0.87787 0.64823 0.50726 0.0
C2210 C 0.87322 0.65891 0.50455 0.0
C2211 C 0.88653 0.64904 0.52602 0.0
C2212 C 0.89076 0.66057 0.5425 0.0
C2213 C 0.88576 0.67101 0.54024 0.0
C2214 C 0.87704 0.67018 0.52139 0.0
C2215 C 0.90047 0.66157 0.56191 0.0
C2216 C 0.89596 0.64876 0.5749 0.0
C2217 C 0.91427 0.67482 0.56722 0.0
C2218 C 0.92018 0.68832 0.55311 0.0
C2219 C 0.92354 0.70242 0.56257 0.0
C2220 C 0.92913 0.71515 0.54924 0.0
C2221 C 0.93153 0.71393 0.52647 0.0
C2222 C 0.92837 0.69998 0.517 0.0
C2223 C 0.92271 0.6872 0.53022 0.0
H2224 H 0.93589 0.72379 0.51619 0.0
H2225 H 0.88692 0.59746 0.63743 0.0
H2226 H 0.9459 0.65773 0.75294 0.0
H2227 H 0.92682 0.66157 0.77007 0.0
H2228 H 0.95149 0.70891 0.75504 0.0
H2229 H 0.97043 0.70506 0.7368 0.0
H2230 H 0.94046 0.69951 0.80269 0.0
H2231 H 0.92468 0.69239 0.72467 0.0
H2232 H 0.91846 0.67922 0.68756 0.0
H2233 H 0.88328 0.63926 0.71617 0.0
H2234 H 0.88948 0.65209 0.75355 0.0
H2235 H 0.88528 0.71149 0.84515 0.0
H2236 H 0.90181 0.71241 0.81554 0.0
H2237 H 0.87788 0.6636 0.81035 0.0
H2238 H 0.86115 0.66274 0.83964 0.0
H2239 H 0.88905 0.67635 0.76956 0.0
H2240 H 0.90586 0.68047 0.84645 0.0
H2241 H 0.91146 0.69142 0.88503 0.0
H2242 H 0.94444 0.73431 0.86049 0.0
H2243 H 0.93878 0.7237 0.82163 0.0
C2244 C 0.94722 0.66892 0.75291 0.0
C2245 C 0.95954 0.68102 0.74305 0.0
C2246 C 0.93633 0.67109 0.76281 0.0
C2247 C 0.93771 0.68546 0.76346 0.0
C2248 C 0.95023 0.69772 0.75446 0.0
C2249 C 0.96102 0.69549 0.74412 0.0
C2250 C 0.92609 0.68755 0.77403 0.0
C2251 C 0.92931 0.6948 0.79525 0.0
C2252 C 0.91148 0.68089 0.7645 0.0
C2253 C 0.90764 0.67318 0.74198 0.0
C2254 C 0.91571 0.68075 0.72311 0.0
C2255 C 0.91217 0.67335 0.70201 0.0
C2256 C 0.90049 0.65841 0.69952 0.0
C2257 C 0.89232 0.65084 0.71812 0.0
C2258 C 0.89584 0.65817 0.73927 0.0
C2259 C 0.88322 0.70103 0.83695 0.0
C2260 C 0.87203 0.68706 0.8444 0.0
C2261 C 0.89266 0.70154 0.82017 0.0
C2262 C 0.8912 0.68806 0.81107 0.0
C2263 C 0.87916 0.67411 0.81714 0.0
C2264 C 0.86964 0.67362 0.83382 0.0
C2265 C 0.90343 0.6884 0.79821 0.0
C2266 C 0.90029 0.68142 0.77675 0.0
C2267 C 0.91809 0.69503 0.80769 0.0
C2268 C 0.92177 0.70135 0.83109 0.0
C2269 C 0.91423 0.69226 0.84925 0.0
C2270 C 0.91742 0.6984 0.87117 0.0
C2271 C 0.92828 0.71355 0.87521 0.0
C2272 C 0.93601 0.72258 0.85733 0.0
C2273 C 0.93281 0.71652 0.83534 0.0
H2274 H 0.93072 0.71828 0.8922 0.0
H2275 H 0.89774 0.6527 0.68317 0.0
H2276 H 0.33679 0.27746 0.73416 0.0
H2277 H 0.33158 0.25398 0.75198 0.0
H2278 H 0.28629 0.24331 0.76227 0.0
H2279 H 0.29139 0.26677 0.74402 0.0
H2280 H 0.30417 0.24308 0.80215 0.0
H2281 H 0.28712 0.22042 0.72797 0.0
H2282 H 0.2887 0.21836 0.68694 0.0
H2283 H 0.32973 0.21791 0.69583 0.0
H2284 H 0.32824 0.21973 0.73702 0.0
H2285 H 0.28847 0.17775 0.85635 0.0
H2286 H 0.28407 0.19147 0.82662 0.0
H2287 H 0.3256 0.20134 0.79706 0.0
H2288 H 0.32965 0.18707 0.82624 0.0
H2289 H 0.30639 0.2003 0.76514 0.0
H2290 H 0.32434 0.22361 0.8385 0.0
H2291 H 0.32303 0.2248 0.87965 0.0
H2292 H 0.28249 0.22636 0.873 0.0
H2293 H 0.28319 0.2245 0.83169 0.0
C2294 C 0.32575 0.27017 0.74028 0.0
C2295 C 0.31457 0.27406 0.73806 0.0
C2296 C 0.32274 0.25667 0.75021 0.0
C2297 C 0.30855 0.24693 0.75836 0.0
C2298 C 0.29729 0.25069 0.75599 0.0
C2299 C 0.30022 0.26405 0.74561 0.0
C2300 C 0.3059 0.23341 0.77074 0.0
C2301 C 0.3043 0.23354 0.79403 0.0
C2302 C 0.30655 0.22126 0.76018 0.0
C2303 C 0.30763 0.22034 0.73551 0.0
C2304 C 0.29653 0.21999 0.72115 0.0
C2305 C 0.29739 0.21881 0.69788 0.0
C2306 C 0.30938 0.21813 0.68875 0.0
C2307 C 0.32047 0.21848 0.70292 0.0
C2308 C 0.31958 0.21949 0.72623 0.0
C2309 C 0.29626 0.18225 0.84285 0.0
C2310 C 0.30939 0.18144 0.84349 0.0
C2311 C 0.29382 0.19018 0.826 0.0
C2312 C 0.30473 0.19781 0.81002 0.0
C2313 C 0.31707 0.19562 0.80928 0.0
C2314 C 0.31937 0.18743 0.82591 0.0
C2315 C 0.30458 0.20989 0.79665 0.0
C2316 C 0.30591 0.20964 0.77325 0.0
C2317 C 0.3039 0.2221 0.80719 0.0
C2318 C 0.30372 0.22373 0.832 0.0
C2319 C 0.31509 0.22412 0.84579 0.0
C2320 C 0.31447 0.22492 0.86916 0.0
C2321 C 0.30273 0.22572 0.87896 0.0
C2322 C 0.29157 0.22572 0.86538 0.0
C2323 C 0.29204 0.22473 0.84199 0.0
H2324 H 0.30228 0.22634 0.89707 0.0
H2325 H 0.31005 0.21727 0.67071 0.0
H2326 H 0.74003 0.02753 0.70458 0.0
H2327 H 0.75595 0.04402 0.73577 0.0
H2328 H 0.73162 0.06809 0.73515 0.0
H2329 H 0.71536 0.05136 0.70425 0.0
H2330 H 0.76498 0.08618 0.73132 0.0
H2331 H 0.72626 0.04892 0.77666 0.0
H2332 H 0.70938 0.02304 0.78907 0.0
H2333 H 0.74703 0.01809 0.807 0.0
H2334 H 0.76415 0.04387 0.79437 0.0
H2335 H 0.79656 0.13405 0.82836 0.0
H2336 H 0.78174 0.11724 0.79679 0.0
H2337 H 0.79629 0.0858 0.81501 0.0
H2338 H 0.81054 0.1024 0.84733 0.0
H2339 H 0.76814 0.07104 0.809 0.0
H2340 H 0.80717 0.10734 0.7652 0.0
H2341 H 0.82512 0.13264 0.75189 0.0
H2342 H 0.78899 0.13887 0.72934 0.0
H2343 H 0.77081 0.11369 0.74281 0.0
C2344 C 0.73786 0.03612 0.71142 0.0
C2345 C 0.72643 0.03814 0.70206 0.0
C2346 C 0.74698 0.04554 0.72917 0.0
C2347 C 0.74498 0.05729 0.7376 0.0
C2348 C 0.73331 0.05907 0.72878 0.0
C2349 C 0.72397 0.04943 0.71132 0.0
C2350 C 0.75563 0.06819 0.75479 0.0
C2351 C 0.76558 0.083 0.74843 0.0
C2352 C 0.75675 0.06376 0.77673 0.0
C2353 C 0.74648 0.04826 0.78433 0.0
C2354 C 0.73094 0.04226 0.78303 0.0
C2355 C 0.72133 0.02762 0.79016 0.0
C2356 C 0.72713 0.01891 0.79876 0.0
C2357 C 0.74256 0.02484 0.8003 0.0
C2358 C 0.75222 0.03947 0.79318 0.0
C2359 C 0.79693 0.12376 0.82511 0.0
C2360 C 0.80484 0.11957 0.83986 0.0
C2361 C 0.78846 0.11414 0.80709 0.0
C2362 C 0.78797 0.10026 0.80327 0.0
C2363 C 0.79647 0.09642 0.81755 0.0
C2364 C 0.80474 0.10595 0.83582 0.0
C2365 C 0.77761 0.08925 0.78571 0.0
C2366 C 0.76769 0.07434 0.79192 0.0
C2367 C 0.77672 0.09353 0.76347 0.0
C2368 C 0.78762 0.10866 0.75521 0.0
C2369 C 0.80305 0.11415 0.75755 0.0
C2370 C 0.81326 0.12846 0.74995 0.0
C2371 C 0.8082 0.13737 0.73983 0.0
C2372 C 0.7929 0.13196 0.73721 0.0
C2373 C 0.78263 0.11766 0.7448 0.0
H2374 H 0.81613 0.14845 0.73397 0.0
H2375 H 0.71967 0.00758 0.80428 0.0
H2376 H 0.06272 0.3789 0.03353 0.0
H2377 H 0.08235 0.3743 0.04767 0.0
H2378 H 0.05263 0.32618 0.03881 0.0
H2379 H 0.03283 0.33068 0.02507 0.0
H2380 H 0.06825 0.33213 0.07695 0.0
H2381 H 0.07985 0.34679 0.00056 0.0
H2382 H 0.08494 0.36318 0.96812 0.0
H2383 H 0.12292 0.39922 0.00375 0.0
H2384 H 0.11794 0.3831 0.03653 0.0
H2385 H 0.11991 0.30763 0.08423 0.0
H2386 H 0.10262 0.314 0.06552 0.0
H2387 H 0.13231 0.36123 0.08247 0.0
H2388 H 0.14975 0.35485 0.10108 0.0
H2389 H 0.1173 0.35646 0.0406 0.0
H2390 H 0.10569 0.34047 0.11681 0.0
H2391 H 0.10041 0.3231 0.14803 0.0
H2392 H 0.06178 0.28858 0.1116 0.0
H2393 H 0.06703 0.30558 0.07991 0.0
C2394 C 0.0603 0.36732 0.03477 0.0
C2395 C 0.0462 0.35516 0.02803 0.0
C2396 C 0.07159 0.36472 0.04272 0.0
C2397 C 0.0691 0.3499 0.04389 0.0
C2398 C 0.05487 0.33772 0.03796 0.0
C2399 C 0.04354 0.34031 0.0301 0.0
C2400 C 0.08134 0.34709 0.05107 0.0
C2401 C 0.0789 0.33732 0.0688 0.0
C2402 C 0.09539 0.35409 0.04078 0.0
C2403 C 0.09843 0.36379 0.02108 0.0
C2404 C 0.08922 0.35825 0.00154 0.0
C2405 C 0.0921 0.36748 0.98308 0.0
C2406 C 0.10422 0.38225 0.9839 0.0
C2407 C 0.11352 0.38779 0.00316 0.0
C2408 C 0.11068 0.37861 0.02168 0.0
C2409 C 0.123 0.31943 0.08315 0.0
C2410 C 0.13615 0.33077 0.09399 0.0
C2411 C 0.11306 0.32304 0.07268 0.0
C2412 C 0.11601 0.33804 0.07309 0.0
C2413 C 0.12979 0.34957 0.08208 0.0
C2414 C 0.1398 0.34595 0.09253 0.0
C2415 C 0.10411 0.34139 0.06626 0.0
C2416 C 0.10664 0.3513 0.04871 0.0
C2417 C 0.09009 0.33443 0.07662 0.0
C2418 C 0.08686 0.32426 0.09585 0.0
C2419 C 0.09615 0.32913 0.11535 0.0
C2420 C 0.09316 0.31935 0.13315 0.0
C2421 C 0.0808 0.30474 0.13175 0.0
C2422 C 0.07138 0.29989 0.11262 0.0
C2423 C 0.07436 0.30959 0.09473 0.0
H2424 H 0.07847 0.29716 0.1455 0.0
H2425 H 0.10644 0.38938 0.96958 0.0
H2426 H 0.67066 0.69784 0.02242 0.0
H2427 H 0.67878 0.72486 0.02455 0.0
H2428 H 0.63408 0.7142 0.03978 0.0
H2429 H 0.62581 0.6873 0.03726 0.0
H2430 H 0.6474 0.73918 0.01468 0.0
H2431 H 0.65952 0.72065 0.08174 0.0
H2432 H 0.67121 0.70848 0.10276 0.0
H2433 H 0.71434 0.74197 0.08085 0.0
H2434 H 0.70285 0.75423 0.05946 0.0
H2435 H 0.65496 0.79647 0.09281 0.0
H2436 H 0.64981 0.77481 0.06818 0.0
H2437 H 0.6971 0.79309 0.06066 0.0
H2438 H 0.70217 0.81449 0.08579 0.0
H2439 H 0.68525 0.76605 0.07605 0.0
H2440 H 0.67295 0.78751 0.01487 0.0
H2441 H 0.66074 0.79966 0.99521 0.0
H2442 H 0.61775 0.7612 0.00672 0.0
H2443 H 0.62968 0.74889 0.02674 0.0
C2444 C 0.66247 0.70122 0.02568 0.0
C2445 C 0.64762 0.69036 0.03005 0.0
C2446 C 0.66715 0.71669 0.02697 0.0
C2447 C 0.65709 0.72157 0.03276 0.0
C2448 C 0.64205 0.71074 0.03537 0.0
C2449 C 0.63737 0.69531 0.03406 0.0
C2450 C 0.6624 0.73773 0.03869 0.0
C2451 C 0.65568 0.7451 0.02808 0.0
C2452 C 0.6734 0.74556 0.0559 0.0
C2453 C 0.68032 0.73823 0.06879 0.0
C2454 C 0.67148 0.72535 0.08128 0.0
C2455 C 0.67807 0.71844 0.09327 0.0
C2456 C 0.6935 0.72441 0.09308 0.0
C2457 C 0.70238 0.73733 0.08094 0.0
C2458 C 0.69584 0.74426 0.06888 0.0
C2459 C 0.66418 0.79615 0.08505 0.0
C2460 C 0.67894 0.80715 0.09094 0.0
C2461 C 0.66126 0.78376 0.071 0.0
C2462 C 0.67307 0.78227 0.06251 0.0
C2463 C 0.6878 0.79395 0.06699 0.0
C2464 C 0.69071 0.80624 0.08117 0.0
C2465 C 0.67018 0.76761 0.05219 0.0
C2466 C 0.67727 0.7604 0.06218 0.0
C2467 C 0.65947 0.75998 0.03452 0.0
C2468 C 0.65223 0.76732 0.02245 0.0
C2469 C 0.66089 0.78168 0.01336 0.0
C2470 C 0.65402 0.7886 0.00212 0.0
C2471 C 0.63848 0.78122 -0.00025 0.0
C2472 C 0.62978 0.7669 0.00857 0.0
C2473 C 0.6366 0.75994 0.01984 0.0
H2474 H 0.63318 0.78659 0.99104 0.0
H2475 H 0.69859 0.71906 0.10238 0.0
H2476 H 0.31731 0.95694 0.0253 0.0
H2477 H 0.29537 0.93687 0.043 0.0
H2478 H 0.26754 0.9351 0.98689 0.0
H2479 H 0.28939 0.95522 0.96911 0.0
H2480 H 0.25548 0.93522 0.02719 0.0
H2481 H 0.27608 0.90767 0.99168 0.0
H2482 H 0.29587 0.90198 0.98222 0.0
H2483 H 0.30172 0.89532 0.05183 0.0
H2484 H 0.2821 0.90118 0.06177 0.0
H2485 H 0.19331 0.87346 0.07422 0.0
H2486 H 0.21189 0.88623 0.04541 0.0
H2487 H 0.24687 0.89248 0.09249 0.0
H2488 H 0.22838 0.87947 0.1209 0.0
H2489 H 0.2534 0.8879 0.05109 0.0
H2490 H 0.23651 0.91928 0.08733 0.0
H2491 H 0.21757 0.92585 0.09847 0.0
H2492 H 0.20574 0.92623 0.02908 0.0
H2493 H 0.22448 0.91945 0.01755 0.0
C2494 C 0.30652 0.95231 0.01674 0.0
C2495 C 0.3051 0.95766 0.99577 0.0
C2496 C 0.29402 0.94077 0.0268 0.0
C2497 C 0.27987 0.93435 0.01609 0.0
C2498 C 0.27837 0.93985 0.99537 0.0
C2499 C 0.29088 0.95134 0.98524 0.0
C2500 C 0.2666 0.92217 0.02683 0.0
C2501 C 0.25487 0.92473 0.032 0.0
C2502 C 0.26594 0.9086 0.03341 0.0
C2503 C 0.27768 0.90497 0.02748 0.0
C2504 C 0.28165 0.90509 0.005 0.0
C2505 C 0.29283 0.90182 -0.00046 0.0
C2506 C 0.30006 0.89831 0.01642 0.0
C2507 C 0.29611 0.89804 0.03878 0.0
C2508 C 0.28495 0.90132 0.04433 0.0
C2509 C 0.20491 0.87715 0.07809 0.0
C2510 C 0.20949 0.87572 0.0998 0.0
C2511 C 0.21552 0.88452 0.06173 0.0
C2512 C 0.2308 0.89059 0.06699 0.0
C2513 C 0.23517 0.88797 0.08808 0.0
C2514 C 0.22462 0.88061 0.10433 0.0
C2515 C 0.24242 0.90108 0.05179 0.0
C2516 C 0.25387 0.89825 0.04585 0.0
C2517 C 0.24292 0.91449 0.04469 0.0
C2518 C 0.23175 0.91868 0.05159 0.0
C2519 C 0.22979 0.92067 0.07446 0.0
C2520 C 0.21911 0.92443 0.08084 0.0
C2521 C 0.21042 0.92641 0.06449 0.0
C2522 C 0.21244 0.92466 0.04172 0.0
C2523 C 0.22309 0.92085 0.03525 0.0
H2524 H 0.20216 0.92933 0.06946 0.0
H2525 H 0.30872 0.89579 0.01216 0.0
H2526 H 0.37489 0.05677 0.98725 0.0
H2527 H 0.36657 0.07525 0.98783 0.0
H2528 H 0.32075 0.03917 0.98794 0.0
H2529 H 0.32901 0.0205 0.98726 0.0
H2530 H 0.32595 0.05757 0.95335 0.0
H2531 H 0.3351 0.0645 0.03215 0.0
H2532 H 0.34894 0.06841 0.06809 0.0
H2533 H 0.3839 0.11127 0.04654 0.0
H2534 H 0.3704 0.10753 0.01031 0.0
H2535 H 0.30899 0.11382 0.93014 0.0
H2536 H 0.30918 0.09556 0.95622 0.0
H2537 H 0.3573 0.12019 0.95802 0.0
H2538 H 0.35708 0.13837 0.93203 0.0
H2539 H 0.34559 0.10547 0.99842 0.0
H2540 H 0.3405 0.0949 0.91772 0.0
H2541 H 0.32836 0.09152 0.88034 0.0
H2542 H 0.28729 0.05577 0.90487 0.0
H2543 H 0.29917 0.05907 0.94249 0.0
C2544 C 0.36305 0.05273 0.98796 0.0
C2545 C 0.35261 0.03714 0.98694 0.0
C2546 C 0.3583 0.06335 0.98847 0.0
C2547 C 0.34303 0.05862 0.98798 0.0
C2548 C 0.33259 0.04307 0.98839 0.0
C2549 C 0.33734 0.03242 0.98806 0.0
C2550 C 0.33814 0.06978 0.98357 0.0
C2551 C 0.32983 0.06781 0.96365 0.0
C2552 C 0.34355 0.08334 0.99665 0.0
C2553 C 0.35174 0.08569 0.01844 0.0
C2554 C 0.34579 0.07471 0.03499 0.0
C2555 C 0.35357 0.07691 0.05544 0.0
C2556 C 0.3673 0.09007 0.05959 0.0
C2557 C 0.37326 0.10108 0.0433 0.0
C2558 C 0.36554 0.09894 0.02282 0.0
C2559 C 0.31956 0.11571 0.93706 0.0
C2560 C 0.33302 0.12745 0.92929 0.0
C2561 C 0.31967 0.10526 0.95182 0.0
C2562 C 0.33326 0.10642 0.95879 0.0
C2563 C 0.34671 0.11911 0.95292 0.0
C2564 C 0.34659 0.12949 0.93811 0.0
C2565 C 0.33363 0.09325 0.96816 0.0
C2566 C 0.34123 0.09494 0.98872 0.0
C2567 C 0.32776 0.07945 0.95558 0.0
C2568 C 0.32065 0.07736 0.93295 0.0
C2569 C 0.32885 0.08639 0.91517 0.0
C2570 C 0.32203 0.08449 0.89394 0.0
C2571 C 0.30705 0.07348 0.89026 0.0
C2572 C 0.29888 0.06432 0.90777 0.0
C2573 C 0.30565 0.0662 0.92904 0.0
H2574 H 0.30178 0.07202 0.87382 0.0
H2575 H 0.3733 0.09175 0.07543 0.0
H2576 H 0.97892 0.29856 0.99125 0.0
H2577 H 0.96082 0.27135 0.98837 0.0
H2578 H 0.9247 0.28091 0.98775 0.0
H2579 H 0.9426 0.30797 0.99063 0.0
H2580 H 0.91767 0.25493 0.01089 0.0
H2581 H 0.93805 0.27715 0.93922 0.0
H2582 H 0.95836 0.29082 0.91295 0.0
H2583 H 0.97189 0.25759 0.92015 0.0
H2584 H 0.95173 0.24382 0.9467 0.0
H2585 H 0.85943 0.20504 0.93621 0.0
H2586 H 0.87899 0.22382 0.96163 0.0
H2587 H 0.90623 0.20369 0.94843 0.0
H2588 H 0.88665 0.18506 0.92258 0.0
H2589 H 0.92039 0.23201 0.93828 0.0
H2590 H 0.89525 0.20638 0.00292 0.0
H2591 H 0.87414 0.19269 0.02783 0.0
H2592 H 0.86879 0.23167 0.03362 0.0
H2593 H 0.88973 0.24554 0.00847 0.0
C2594 C 0.96712 0.29485 0.99108 0.0
C2595 C 0.96221 0.30544 0.99087 0.0
C2596 C 0.95679 0.2793 0.98937 0.0
C2597 C 0.94141 0.27411 0.98758 0.0
C2598 C 0.9365 0.28463 0.98911 0.0
C2599 C 0.94677 0.30012 0.99061 0.0
C2600 C 0.93046 0.25806 0.98138 0.0
C2601 C 0.91823 0.24984 0.99507 0.0
C2602 C 0.93141 0.25129 0.96101 0.0
C2603 C 0.94355 0.25959 0.94516 0.0
C2604 C 0.94545 0.27284 0.93535 0.0
C2605 C 0.9569 0.28059 0.92038 0.0
C2606 C 0.96645 0.27511 0.91495 0.0
C2607 C 0.96452 0.26185 0.92443 0.0
C2608 C 0.95308 0.25407 0.93943 0.0
C2609 C 0.86928 0.20418 0.93969 0.0
C2610 C 0.87149 0.19351 0.92782 0.0
C2611 C 0.88051 0.21494 0.95418 0.0
C2612 C 0.89414 0.2152 0.95706 0.0
C2613 C 0.89582 0.20371 0.94656 0.0
C2614 C 0.88459 0.19297 0.932 0.0
C2615 C 0.90729 0.22882 0.96755 0.0
C2616 C 0.91994 0.23673 0.95453 0.0
C2617 C 0.90666 0.23525 0.98849 0.0
C2618 C 0.89405 0.22699 0.0037 0.0
C2619 C 0.88951 0.21201 0.00937 0.0
C2620 C 0.87758 0.20422 0.02356 0.0
C2621 C 0.87012 0.2113 0.03229 0.0
C2622 C 0.87459 0.2262 0.02686 0.0
C2623 C 0.88651 0.23405 0.01267 0.0
H2624 H 0.86088 0.20525 0.04327 0.0
H2625 H 0.9753 0.28112 0.90334 0.0
H2626 H 0.71197 0.67473 0.04111 0.0
H2627 H 0.73402 0.67539 0.02589 0.0
H2628 H 0.7072 0.64589 0.9705 0.0
H2629 H 0.685 0.64514 0.98563 0.0
H2630 H 0.72627 0.63704 0.99054 0.0
H2631 H 0.72902 0.68247 0.96218 0.0
H2632 H 0.72973 0.70693 0.96565 0.0
H2633 H 0.76916 0.72472 0.00826 0.0
H2634 H 0.76856 0.70028 0.00528 0.0
H2635 H 0.77638 0.64802 0.90531 0.0
H2636 H 0.75738 0.64378 0.93222 0.0
H2637 H 0.79086 0.679 0.97614 0.0
H2638 H 0.80989 0.68365 0.94856 0.0
H2639 H 0.76992 0.68498 0.96759 0.0
H2640 H 0.7694 0.64089 0.99223 0.0
H2641 H 0.769 0.61658 0.98914 0.0
H2642 H 0.72613 0.59618 0.95504 0.0
H2643 H 0.72635 0.62042 0.95762 0.0
C2644 C 0.71075 0.66845 0.0256 0.0
C2645 C 0.69672 0.65991 0.01454 0.0
C2646 C 0.72337 0.66884 0.01695 0.0
C2647 C 0.72224 0.66069 0.99708 0.0
C2648 C 0.70829 0.65221 0.98591 0.0
C2649 C 0.69565 0.65189 0.99448 0.0
C2650 C 0.73563 0.66108 0.98786 0.0
C2651 C 0.7358 0.64748 0.98533 0.0
C2652 C 0.74826 0.6748 0.98196 0.0
C2653 C 0.74864 0.6895 0.98372 0.0
C2654 C 0.73776 0.69156 0.97245 0.0
C2655 C 0.73816 0.70543 0.97429 0.0
C2656 C 0.74946 0.71736 0.98723 0.0
C2657 C 0.7604 0.71546 0.99828 0.0
C2658 C 0.76004 0.70161 0.99651 0.0
C2659 C 0.77977 0.65448 0.92108 0.0
C2660 C 0.79455 0.66625 0.92481 0.0
C2661 C 0.76889 0.65201 0.93655 0.0
C2662 C 0.77263 0.66109 0.95627 0.0
C2663 C 0.78769 0.67189 0.96101 0.0
C2664 C 0.79859 0.67444 0.94539 0.0
C2665 C 0.76058 0.66085 0.9698 0.0
C2666 C 0.76058 0.67451 0.97314 0.0
C2667 C 0.74817 0.64718 0.97659 0.0
C2668 C 0.74794 0.63253 0.97503 0.0
C2669 C 0.75993 0.63125 0.98393 0.0
C2670 C 0.75972 0.61747 0.98229 0.0
C2671 C 0.74755 0.60485 0.97187 0.0
C2672 C 0.73555 0.60597 0.96311 0.0
C2673 C 0.7357 0.61972 0.9647 0.0
H2674 H 0.74742 0.59419 0.97061 0.0
H2675 H 0.74975 0.72809 0.98863 0.0
H2676 H 0.97351 0.67599 0.99458 0.0
H2677 H 0.95601 0.68341 0.97934 0.0
H2678 H 0.91903 0.64196 0.00206 0.0
H2679 H 0.93637 0.63451 0.01735 0.0
H2680 H 0.91453 0.64847 0.95859 0.0
H2681 H 0.93005 0.67411 0.03138 0.0
H2682 H 0.9485 0.69098 0.06041 0.0
H2683 H 0.96454 0.7281 0.01571 0.0
H2684 H 0.94632 0.71139 0.98629 0.0
H2685 H 0.85795 0.66496 0.93766 0.0
H2686 H 0.87443 0.66004 0.96175 0.0
H2687 H 0.91216 0.70233 0.94307 0.0
H2688 H 0.89571 0.70739 0.91941 0.0
H2689 H 0.91611 0.69553 0.98572 0.0
H2690 H 0.90332 0.67139 0.91283 0.0
H2691 H 0.88614 0.65581 0.88166 0.0
H2692 H 0.86685 0.61719 0.92366 0.0
H2693 H 0.88377 0.63267 0.95521 0.0
C2694 C 0.96165 0.66841 0.99617 0.0
C2695 C 0.95635 0.65467 0.00723 0.0
C2696 C 0.95167 0.67271 0.98759 0.0
C2697 C 0.93621 0.66331 0.98979 0.0
C2698 C 0.9309 0.64942 0.00024 0.0
C2699 C 0.94085 0.64518 0.009 0.0
C2700 C 0.9255 0.66789 0.98125 0.0
C2701 C 0.91473 0.65863 0.9648 0.0
C2702 C 0.92603 0.68139 0.98885 0.0
C2703 C 0.93692 0.69146 0.00657 0.0
C2704 C 0.93759 0.68584 0.02768 0.0
C2705 C 0.94799 0.69538 0.04421 0.0
C2706 C 0.95771 0.71059 0.03989 0.0
C2707 C 0.95702 0.71631 0.01903 0.0
C2708 C 0.94665 0.70681 0.00243 0.0
C2709 C 0.86964 0.67351 0.93956 0.0
C2710 C 0.87557 0.6865 0.9266 0.0
C2711 C 0.87908 0.67062 0.9531 0.0
C2712 C 0.89459 0.68065 0.95378 0.0
C2713 C 0.90027 0.69439 0.94275 0.0
C2714 C 0.89085 0.69729 0.92926 0.0
C2715 C 0.90503 0.676 0.96329 0.0
C2716 C 0.91581 0.68528 0.97974 0.0
C2717 C 0.90472 0.66266 0.95541 0.0
C2718 C 0.89468 0.65323 0.93643 0.0
C2719 C 0.89534 0.65961 0.91544 0.0
C2720 C 0.88566 0.6508 0.89771 0.0
C2721 C 0.87538 0.63552 0.90069 0.0
C2722 C 0.8748 0.62903 0.92139 0.0
C2723 C 0.88443 0.63782 0.93921 0.0
H2724 H 0.86789 0.62871 0.88695 0.0
H2725 H 0.96575 0.71796 0.05271 0.0
H2726 H 0.34066 0.30759 0.98353 0.0
H2727 H 0.33458 0.28125 0.97931 0.0
H2728 H 0.38149 0.29564 0.97924 0.0
H2729 H 0.38762 0.32201 0.98267 0.0
H2730 H 0.36852 0.27812 0.94493 0.0
H2731 H 0.35769 0.27425 0.02272 0.0
H2732 H 0.34639 0.27694 0.0573 0.0
H2733 H 0.30262 0.24751 0.02842 0.0
H2734 H 0.31364 0.2448 0.99353 0.0
H2735 H 0.35207 0.20333 0.9242 0.0
H2736 H 0.36078 0.22654 0.94726 0.0
H2737 H 0.31656 0.22071 0.94371 0.0
H2738 H 0.30775 0.19737 0.92123 0.0
H2739 H 0.33056 0.23341 0.98444 0.0
H2740 H 0.34136 0.24235 0.90543 0.0
H2741 H 0.3518 0.23959 0.86982 0.0
H2742 H 0.39541 0.25998 0.90161 0.0
H2743 H 0.38511 0.26261 0.93741 0.0
C2744 C 0.34969 0.30513 0.98312 0.0
C2745 C 0.36462 0.31691 0.98323 0.0
C2746 C 0.34619 0.29002 0.98081 0.0
C2747 C 0.35757 0.28638 0.97903 0.0
C2748 C 0.3725 0.29812 0.98047 0.0
C2749 C 0.37599 0.31321 0.98245 0.0
C2750 C 0.35394 0.27063 0.97305 0.0
C2751 C 0.36052 0.26841 0.95403 0.0
C2752 C 0.3432 0.25784 0.98445 0.0
C2753 C 0.33651 0.25941 0.00543 0.0
C2754 C 0.34565 0.26844 0.02367 0.0
C2755 C 0.3393 0.26995 0.04335 0.0
C2756 C 0.3238 0.26242 0.04505 0.0
C2757 C 0.31462 0.25334 0.02708 0.0
C2758 C 0.32092 0.25179 0.00736 0.0
C2759 C 0.3441 0.20671 0.92903 0.0
C2760 C 0.32926 0.19861 0.92074 0.0
C2761 C 0.34911 0.22004 0.94204 0.0
C2762 C 0.33938 0.2255 0.94689 0.0
C2763 C 0.32429 0.21676 0.94017 0.0
C2764 C 0.31928 0.20346 0.92722 0.0
C2765 C 0.34513 0.24107 0.95643 0.0
C2766 C 0.33887 0.24322 0.97588 0.0
C2767 C 0.35615 0.25386 0.94548 0.0
C2768 C 0.36243 0.25245 0.92405 0.0
C2769 C 0.35313 0.24609 0.90477 0.0
C2770 C 0.35902 0.24458 0.8846 0.0
C2771 C 0.37425 0.24955 0.88348 0.0
C2772 C 0.38361 0.25609 0.90252 0.0
C2773 C 0.37775 0.2576 0.92274 0.0
H2774 H 0.3788 0.24838 0.86786 0.0
H2775 H 0.3189 0.26361 0.06029 0.0
H2776 H 0.68652 0.04226 0.99455 0.0
H2777 H 0.70843 0.06035 0.97464 0.0
H2778 H 0.73676 0.06429 0.03147 0.0
H2779 H 0.71481 0.04643 0.05176 0.0
H2780 H 0.74534 0.09149 0.01545 0.0
H2781 H 0.73485 0.04382 0.98426 0.0
H2782 H 0.7196 0.01829 0.96693 0.0
H2783 H 0.71025 0.03719 0.90928 0.0
H2784 H 0.72527 0.06284 0.92641 0.0
H2785 H 0.81055 0.12569 0.94384 0.0
H2786 H 0.79154 0.11069 0.97119 0.0
H2787 H 0.75708 0.10691 0.92519 0.0
H2788 H 0.7759 0.12188 0.89814 0.0
H2789 H 0.75371 0.07907 0.93814 0.0
H2790 H 0.76393 0.12705 0.97151 0.0
H2791 H 0.78005 0.15227 0.98933 0.0
H2792 H 0.7913 0.13216 0.04342 0.0
H2793 H 0.7754 0.10681 0.02574 0.0
C2794 C 0.69741 0.04691 0.0028 0.0
C2795 C 0.69892 0.04284 0.02469 0.0
C2796 C 0.70994 0.05724 0.99138 0.0
C2797 C 0.72427 0.06354 0.00146 0.0
C2798 C 0.72582 0.05957 0.02336 0.0
C2799 C 0.71326 0.0493 0.03488 0.0
C2800 C 0.73757 0.07428 0.98902 0.0
C2801 C 0.74731 0.0887 0.99868 0.0
C2802 C 0.74014 0.07066 0.96712 0.0
C2803 C 0.73109 0.05525 0.95672 0.0
C2804 C 0.72945 0.04253 0.96796 0.0
C2805 C 0.72086 0.02803 0.95816 0.0
C2806 C 0.71393 0.02612 0.93704 0.0
C2807 C 0.71561 0.0387 0.92565 0.0
C2808 C 0.72417 0.05322 0.93539 0.0
C2809 C 0.79895 0.12202 0.93995 0.0
C2810 C 0.79462 0.12474 0.91885 0.0
C2811 C 0.78812 0.11343 0.95549 0.0
C2812 C 0.77291 0.10757 0.95003 0.0
C2813 C 0.76874 0.11122 0.9296 0.0
C2814 C 0.77949 0.11977 0.91421 0.0
C2815 C 0.76115 0.09638 0.96428 0.0
C2816 C 0.75177 0.08181 0.95497 0.0
C2817 C 0.75908 0.09983 0.98654 0.0
C2818 C 0.76862 0.11505 0.99716 0.0
C2819 C 0.76996 0.12801 0.98709 0.0
C2820 C 0.77903 0.14233 0.99719 0.0
C2821 C 0.78673 0.14382 0.01746 0.0
C2822 C 0.78535 0.13099 0.0277 0.0
C2823 C 0.7763 0.11664 0.01765 0.0
H2824 H 0.79375 0.15491 0.02526 0.0
H2825 H 0.70729 0.01488 0.92948 0.0
H2826 H 0.6255 0.94653 0.03197 0.0
H2827 H 0.63193 0.92653 0.03069 0.0
H2828 H 0.67816 0.95969 0.04484 0.0
H2829 H 0.67188 0.97981 0.04494 0.0
H2830 H 0.67703 0.9379 0.0197 0.0
H2831 H 0.65315 0.93999 0.08735 0.0
H2832 H 0.63315 0.93973 0.10954 0.0
H2833 H 0.60204 0.89535 0.08251 0.0
H2834 H 0.62184 0.89543 0.05995 0.0
H2835 H 0.70018 0.90186 0.09887 0.0
H2836 H 0.6941 0.91665 0.07341 0.0
H2837 H 0.65243 0.87659 0.05456 0.0
H2838 H 0.6586 0.86174 0.08001 0.0
H2839 H 0.64902 0.89871 0.07527 0.0
H2840 H 0.67657 0.8957 0.01434 0.0
H2841 H 0.69823 0.89704 0.99572 0.0
H2842 H 0.72451 0.94429 0.01405 0.0
H2843 H 0.70307 0.9432 0.03309 0.0
C2844 C 0.63708 0.94958 0.03431 0.0
C2845 C 0.64816 0.9647 0.03888 0.0
C2846 C 0.64074 0.93813 0.03365 0.0
C2847 C 0.65547 0.94152 0.03833 0.0
C2848 C 0.66671 0.95675 0.04129 0.0
C2849 C 0.6631 0.96825 0.04141 0.0
C2850 C 0.65891 0.92925 0.0426 0.0
C2851 C 0.67093 0.92933 0.03186 0.0
C2852 C 0.65082 0.91788 0.05821 0.0
C2853 C 0.63891 0.9178 0.07176 0.0
C2854 C 0.64201 0.93022 0.08603 0.0
C2855 C 0.63072 0.9301 0.09869 0.0
C2856 C 0.61632 0.91755 0.09738 0.0
C2857 C 0.61319 0.90508 0.08346 0.0
C2858 C 0.62444 0.90515 0.07074 0.0
C2859 C 0.69008 0.8961 0.08843 0.0
C2860 C 0.67985 0.8807 0.0913 0.0
C2861 C 0.6866 0.90454 0.07388 0.0
C2862 C 0.67278 0.89774 0.06212 0.0
C2863 C 0.66317 0.88204 0.0634 0.0
C2864 C 0.66674 0.87355 0.07781 0.0
C2865 C 0.66725 0.90743 0.0526 0.0
C2866 C 0.65488 0.90697 0.06258 0.0
C2867 C 0.67526 0.9186 0.03675 0.0
C2868 C 0.6882 0.91934 0.02526 0.0
C2869 C 0.68699 0.90636 0.01457 0.0
C2870 C 0.69923 0.90708 0.0039 0.0
C2871 C 0.71274 0.92074 0.00373 0.0
C2872 C 0.71403 0.93372 0.01419 0.0
C2873 C 0.70183 0.93306 0.02489 0.0
H2874 H 0.72221 0.92127 0.99547 0.0
H2875 H 0.6076 0.91748 0.10719 0.0
H2876 H 0.02455 0.70437 0.03026 0.0
H2877 H 0.04293 0.73151 0.0322 0.0
H2878 H 0.0785 0.7212 0.03711 0.0
H2879 H 0.06036 0.69429 0.03495 0.0
H2880 H 0.06068 0.74526 0.06803 0.0
H2881 H 0.11058 0.7491 0.01878 0.0
H2882 H 0.11465 0.73868 0.9837 0.0
H2883 H 0.07295 0.73144 0.95593 0.0
H2884 H 0.0687 0.74202 0.9907 0.0
H2885 H 0.14273 0.7952 0.0934 0.0
H2886 H 0.12332 0.77598 0.06821 0.0
H2887 H 0.09873 0.79979 0.07164 0.0
H2888 H 0.11812 0.81889 0.09735 0.0
H2889 H 0.10865 0.7724 0.02919 0.0
H2890 H 0.06137 0.77286 0.07711 0.0
H2891 H 0.05626 0.7808 0.11369 0.0
H2892 H 0.09201 0.77718 0.14493 0.0
H2893 H 0.09718 0.76902 0.10861 0.0
C2894 C 0.0363 0.7079 0.03117 0.0
C2895 C 0.04096 0.69714 0.03267 0.0
C2896 C 0.0468 0.72342 0.03232 0.0
C2897 C 0.06212 0.72843 0.03466 0.0
C2898 C 0.06678 0.71768 0.03491 0.0
C2899 C 0.05635 0.70224 0.03389 0.0
C2900 C 0.07315 0.74462 0.03992 0.0
C2901 C 0.07097 0.75139 0.05908 0.0
C2902 C 0.08672 0.75251 0.02856 0.0
C2903 C 0.08929 0.7463 0.00744 0.0
C2904 C 0.10231 0.74539 0.00515 0.0
C2905 C 0.10464 0.73942 0.98532 0.0
C2906 C 0.09405 0.73438 0.96761 0.0
C2907 C 0.08112 0.73531 0.96968 0.0
C2908 C 0.07874 0.74127 0.98947 0.0
C2909 C 0.13347 0.79662 0.08799 0.0
C2910 C 0.13192 0.80852 0.09703 0.0
C2911 C 0.12235 0.78563 0.07367 0.0
C2912 C 0.10942 0.78628 0.06831 0.0
C2913 C 0.10851 0.79894 0.07576 0.0
C2914 C 0.11964 0.80993 0.09021 0.0
C2915 C 0.0963 0.77275 0.05764 0.0
C2916 C 0.09813 0.76647 0.0376 0.0
C2917 C 0.08241 0.76519 0.06828 0.0
C2918 C 0.07978 0.77056 0.09009 0.0
C2919 C 0.06816 0.77382 0.09178 0.0
C2920 C 0.06523 0.77832 0.11247 0.0
C2921 C 0.07381 0.77951 0.1316 0.0
C2922 C 0.0854 0.77628 0.13008 0.0
C2923 C 0.08834 0.77174 0.10944 0.0
H2924 H 0.07139 0.78283 0.14762 0.0
H2925 H 0.09588 0.72976 0.95228 0.0
H2926 H 0.29728 0.32457 0.97897 0.0
H2927 H 0.27431 0.32129 0.9948 0.0
H2928 H 0.29959 0.35075 0.05118 0.0
H2929 H 0.32265 0.35391 0.03562 0.0
H2930 H 0.27435 0.32746 0.06488 0.0
H2931 H 0.28811 0.36388 0.00723 0.0
H2932 H 0.29501 0.37363 0.96912 0.0
H2933 H 0.25302 0.33781 0.94238 0.0
H2934 H 0.24597 0.32771 0.98031 0.0
H2935 H 0.22063 0.35582 0.08006 0.0
H2936 H 0.23957 0.35574 0.05606 0.0
H2937 H 0.22051 0.30781 0.06515 0.0
H2938 H 0.20157 0.30792 0.08908 0.0
H2939 H 0.24238 0.34049 0.01818 0.0
H2940 H 0.25022 0.30336 0.0829 0.0
H2941 H 0.24458 0.29626 0.12242 0.0
H2942 H 0.24575 0.33813 0.13737 0.0
H2943 H 0.25174 0.34564 0.09814 0.0
C2944 C 0.29797 0.33025 0.99485 0.0
C2945 C 0.31183 0.3396 0.00595 0.0
C2946 C 0.28481 0.32841 0.00382 0.0
C2947 C 0.28524 0.33599 0.02397 0.0
C2948 C 0.29899 0.34484 0.03556 0.0
C2949 C 0.31217 0.34664 0.02664 0.0
C2950 C 0.27144 0.33503 0.03262 0.0
C2951 C 0.26734 0.33023 0.0546 0.0
C2952 C 0.26238 0.33889 0.01938 0.0
C2953 C 0.26658 0.34495 0.99657 0.0
C2954 C 0.2804 0.35801 0.99319 0.0
C2955 C 0.28433 0.36361 0.97163 0.0
C2956 C 0.27448 0.35632 0.95333 0.0
C2957 C 0.26066 0.34343 0.95657 0.0
C2958 C 0.25668 0.33777 0.9781 0.0
C2959 C 0.22003 0.34516 0.07588 0.0
C2960 C 0.20959 0.33184 0.08604 0.0
C2961 C 0.2309 0.34512 0.06234 0.0
C2962 C 0.23157 0.33181 0.05916 0.0
C2963 C 0.22023 0.31821 0.06753 0.0
C2964 C 0.20933 0.31823 0.08096 0.0
C2965 C 0.2452 0.33264 0.05018 0.0
C2966 C 0.2493 0.3375 0.02827 0.0
C2967 C 0.25445 0.32918 0.06366 0.0
C2968 C 0.25122 0.32495 0.08747 0.0
C2969 C 0.24934 0.31108 0.09465 0.0
C2970 C 0.24609 0.30699 0.11701 0.0
C2971 C 0.24474 0.31671 0.13237 0.0
C2972 C 0.24672 0.33058 0.12543 0.0
C2973 C 0.25006 0.33476 0.10314 0.0
H2974 H 0.24221 0.31354 0.14967 0.0
H2975 H 0.27754 0.36068 0.93665 0.0
H2976 H 0.71382 0.69109 0.36899 0.0
H2977 H 0.73597 0.6914 0.38489 0.0
H2978 H 0.72905 0.65549 0.33826 0.0
H2979 H 0.70694 0.65511 0.32228 0.0
H2980 H 0.73676 0.65124 0.38102 0.0
H2981 H 0.7546 0.69093 0.32764 0.0
H2982 H 0.75715 0.71394 0.31069 0.0
H2983 H 0.77656 0.7391 0.37258 0.0
H2984 H 0.77394 0.71618 0.39 0.0
H2985 H 0.80462 0.65526 0.40473 0.0
H2986 H 0.78728 0.65842 0.37984 0.0
H2987 H 0.79156 0.69471 0.42334 0.0
H2988 H 0.80901 0.69171 0.44793 0.0
H2989 H 0.78574 0.6987 0.37962 0.0
H2990 H 0.76687 0.65946 0.43377 0.0
H2991 H 0.7657 0.63722 0.45121 0.0
H2992 H 0.74769 0.61134 0.38946 0.0
H2993 H 0.74939 0.63368 0.37132 0.0
C2994 C 0.7169 0.68313 0.3623 0.0
C2995 C 0.70864 0.67311 0.34429 0.0
C2996 C 0.72963 0.68339 0.3713 0.0
C2997 C 0.7343 0.67362 0.36253 0.0
C2998 C 0.72571 0.66319 0.34521 0.0
C2999 C 0.71307 0.66299 0.33609 0.0
C3000 C 0.74829 0.67445 0.37109 0.0
C3001 C 0.74749 0.66155 0.38039 0.0
C3002 C 0.76227 0.68798 0.37065 0.0
C3003 C 0.76394 0.7018 0.36019 0.0
C3004 C 0.75931 0.70134 0.33769 0.0
C3005 C 0.76078 0.71437 0.32799 0.0
C3006 C 0.76698 0.72796 0.34057 0.0
C3007 C 0.77175 0.72856 0.36286 0.0
C3008 C 0.77028 0.71556 0.37265 0.0
C3009 C 0.80243 0.66439 0.4083 0.0
C3010 C 0.80805 0.6732 0.42824 0.0
C3011 C 0.79242 0.66611 0.39422 0.0
C3012 C 0.78784 0.67655 0.40006 0.0
C3013 C 0.79485 0.68653 0.41855 0.0
C3014 C 0.80484 0.68483 0.43257 0.0
C3015 C 0.77421 0.67548 0.38945 0.0
C3016 C 0.77503 0.68834 0.37996 0.0
C3017 C 0.7602 0.66195 0.38991 0.0
C3018 C 0.75843 0.6483 0.4011 0.0
C3019 C 0.76274 0.64906 0.42386 0.0
C3020 C 0.76202 0.63644 0.43386 0.0
C3021 C 0.75662 0.62287 0.42146 0.0
C3022 C 0.75191 0.62188 0.39903 0.0
C3023 C 0.7528 0.63454 0.38885 0.0
H3024 H 0.75605 0.6131 0.42924 0.0
H3025 H 0.76811 0.73804 0.33303 0.0
H3026 H 0.28892 0.01935 0.38623 0.0
H3027 H 0.29597 0.04598 0.38725 0.0
H3028 H 0.34059 0.05827 0.36865 0.0
H3029 H 0.33365 0.03154 0.36768 0.0
H3030 H 0.34014 0.07324 0.40663 0.0
H3031 H 0.31811 0.06369 0.33255 0.0
H3032 H 0.29856 0.05002 0.3031 0.0
H3033 H 0.26828 0.05892 0.33967 0.0
H3034 H 0.28758 0.07246 0.36952 0.0
H3035 H 0.3632 0.14912 0.4186 0.0
H3036 H 0.35685 0.12644 0.39561 0.0
H3037 H 0.3107 0.1072 0.41281 0.0
H3038 H 0.31705 0.13007 0.43542 0.0
H3039 H 0.31374 0.09704 0.37041 0.0
H3040 H 0.33228 0.10088 0.44664 0.0
H3041 H 0.35012 0.11333 0.47863 0.0
H3042 H 0.38506 0.11389 0.4402 0.0
H3043 H 0.3674 0.10146 0.40796 0.0
C3044 C 0.30019 0.02766 0.382 0.0
C3045 C 0.31076 0.0233 0.37706 0.0
C3046 C 0.30416 0.04291 0.38242 0.0
C3047 C 0.31878 0.05411 0.37789 0.0
C3048 C 0.32923 0.04978 0.37211 0.0
C3049 C 0.32523 0.0345 0.37154 0.0
C3050 C 0.32348 0.07032 0.38171 0.0
C3051 C 0.33464 0.07856 0.39823 0.0
C3052 C 0.31591 0.07707 0.37136 0.0
C3053 C 0.30429 0.06902 0.35336 0.0
C3054 C 0.30725 0.06264 0.3344 0.0
C3055 C 0.29622 0.05493 0.31762 0.0
C3056 C 0.28218 0.05359 0.31953 0.0
C3057 C 0.27916 0.05998 0.33821 0.0
C3058 C 0.29016 0.06769 0.35505 0.0
C3059 C 0.35161 0.14035 0.41649 0.0
C3060 C 0.34057 0.14127 0.42857 0.0
C3061 C 0.34799 0.12737 0.40353 0.0
C3062 C 0.33336 0.11503 0.4029 0.0
C3063 C 0.32206 0.11659 0.41307 0.0
C3064 C 0.32566 0.12966 0.4259 0.0
C3065 C 0.33039 0.09985 0.3952 0.0
C3066 C 0.31948 0.09179 0.37827 0.0
C3067 C 0.33797 0.09307 0.40542 0.0
C3068 C 0.34858 0.1004 0.42483 0.0
C3069 C 0.34379 0.10373 0.44499 0.0
C3070 C 0.35385 0.11075 0.46317 0.0
C3071 C 0.36873 0.11447 0.46141 0.0
C3072 C 0.37354 0.11105 0.44152 0.0
C3073 C 0.3635 0.10397 0.42331 0.0
H3074 H 0.37651 0.11996 0.47548 0.0
H3075 H 0.27365 0.04761 0.30652 0.0
H3076 H 0.97834 0.30691 0.34913 0.0
H3077 H 0.95375 0.28862 0.36257 0.0
H3078 H 0.96797 0.25574 0.36985 0.0
H3079 H 0.99252 0.27388 0.35636 0.0
H3080 H 0.94151 0.24361 0.34742 0.0
H3081 H 0.96319 0.27255 0.41559 0.0
H3082 H 0.97569 0.29505 0.44105 0.0
H3083 H 0.94023 0.30449 0.4286 0.0
H3084 H 0.9276 0.28215 0.40281 0.0
H3085 H 0.88531 0.19286 0.42136 0.0
H3086 H 0.90674 0.20905 0.39868 0.0
H3087 H 0.88972 0.23959 0.39012 0.0
H3088 H 0.86837 0.22343 0.41289 0.0
H3089 H 0.9169 0.25298 0.41134 0.0
H3090 H 0.89436 0.22213 0.34482 0.0
H3091 H 0.88169 0.19837 0.32202 0.0
H3092 H 0.91884 0.19143 0.33368 0.0
H3093 H 0.93165 0.21504 0.35683 0.0
C3094 C 0.9763 0.29585 0.35387 0.0
C3095 C 0.98739 0.29185 0.35159 0.0
C3096 C 0.96224 0.28542 0.36157 0.0
C3097 C 0.95902 0.2708 0.36718 0.0
C3098 C 0.97019 0.26692 0.36549 0.0
C3099 C 0.98426 0.27735 0.35789 0.0
C3100 C 0.94384 0.25935 0.37396 0.0
C3101 C 0.93617 0.24559 0.36153 0.0
C3102 C 0.93675 0.26207 0.39207 0.0
C3103 C 0.94456 0.2758 0.407 0.0
C3104 C 0.95815 0.27954 0.41803 0.0
C3105 C 0.96523 0.29223 0.4326 0.0
C3106 C 0.95879 0.30123 0.43637 0.0
C3107 C 0.94524 0.29754 0.4256 0.0
C3108 C 0.93811 0.28486 0.41101 0.0
C3109 C 0.88576 0.20258 0.41354 0.0
C3110 C 0.87518 0.20686 0.41851 0.0
C3111 C 0.89805 0.21189 0.40074 0.0
C3112 C 0.89986 0.22558 0.39284 0.0
C3113 C 0.88853 0.22909 0.39606 0.0
C3114 C 0.87626 0.21978 0.40882 0.0
C3115 C 0.91452 0.23728 0.38471 0.0
C3116 C 0.92214 0.25108 0.39701 0.0
C3117 C 0.92158 0.23451 0.36667 0.0
C3118 C 0.91391 0.22031 0.35273 0.0
C3119 C 0.89977 0.21547 0.34269 0.0
C3120 C 0.89258 0.20205 0.32967 0.0
C3121 C 0.89944 0.19338 0.32645 0.0
C3122 C 0.91353 0.19815 0.3362 0.0
C3123 C 0.92078 0.21157 0.34925 0.0
H3124 H 0.89385 0.18299 0.31636 0.0
H3125 H 0.96427 0.31103 0.4477 0.0
H3126 H 0.05426 0.3926 0.30432 0.0
H3127 H 0.04919 0.41342 0.30445 0.0
H3128 H 0.00387 0.38311 0.32293 0.0
H3129 H 0.00878 0.362 0.32247 0.0
H3130 H 0.00447 0.39846 0.28735 0.0
H3131 H 0.02863 0.41208 0.35932 0.0
H3132 H 0.0481 0.41732 0.38824 0.0
H3133 H 0.08033 0.45431 0.35049 0.0
H3134 H 0.06111 0.44916 0.32115 0.0
H3135 H 0.99201 0.45855 0.27167 0.0
H3136 H 0.99572 0.4421 0.29733 0.0
H3137 H 0.04036 0.45947 0.2739 0.0
H3138 H 0.03661 0.47579 0.24817 0.0
H3139 H 0.0369 0.45026 0.31999 0.0
H3140 H 0.01456 0.43184 0.24488 0.0
H3141 H 0.9958 0.42675 0.21474 0.0
H3142 H 0.96069 0.39873 0.25859 0.0
H3143 H 0.97926 0.4038 0.28906 0.0
C3144 C 0.04325 0.39034 0.30878 0.0
C3145 C 0.03189 0.37555 0.31318 0.0
C3146 C 0.04041 0.40234 0.30905 0.0
C3147 C 0.02618 0.3999 0.31389 0.0
C3148 C 0.01495 0.38528 0.31922 0.0
C3149 C 0.01779 0.37322 0.31898 0.0
C3150 C 0.02271 0.41224 0.31068 0.0
C3151 C 0.01129 0.40965 0.29507 0.0
C3152 C 0.03179 0.42697 0.32032 0.0
C3153 C 0.04342 0.43018 0.33796 0.0
C3154 C 0.03989 0.42127 0.35709 0.0
C3155 C 0.05088 0.42423 0.37358 0.0
C3156 C 0.06544 0.43613 0.37119 0.0
C3157 C 0.06904 0.4451 0.35232 0.0
C3158 C 0.05809 0.44218 0.33577 0.0
C3159 C 0.00286 0.45942 0.27293 0.0
C3160 C 0.01406 0.46841 0.2581 0.0
C3161 C 0.00494 0.44996 0.28745 0.0
C3162 C 0.01824 0.44944 0.28727 0.0
C3163 C 0.03005 0.45974 0.27436 0.0
C3164 C 0.02792 0.46908 0.25971 0.0
C3165 C 0.01886 0.43639 0.29657 0.0
C3166 C 0.0298 0.4389 0.31301 0.0
C3167 C 0.00941 0.42155 0.28767 0.0
C3168 C 0.99826 0.41833 0.2693 0.0
C3169 C 0.00283 0.42468 0.24812 0.0
C3170 C 0.99224 0.42179 0.23098 0.0
C3171 C 0.97706 0.41248 0.23479 0.0
C3172 C 0.97245 0.40597 0.2557 0.0
C3173 C 0.98299 0.40884 0.2729 0.0
H3174 H 0.96888 0.41026 0.22151 0.0
H3175 H 0.07394 0.4384 0.38397 0.0
H3176 H 0.61199 0.6485 0.31105 0.0
H3177 H 0.59216 0.62251 0.31381 0.0
H3178 H 0.62405 0.60966 0.33605 0.0
H3179 H 0.6443 0.63595 0.33278 0.0
H3180 H 0.60636 0.59073 0.30409 0.0
H3181 H 0.59741 0.60853 0.37221 0.0
H3182 H 0.59431 0.62573 0.39825 0.0
H3183 H 0.5558 0.61877 0.35972 0.0
H3184 H 0.55879 0.6017 0.33324 0.0
H3185 H 0.544 0.51911 0.28964 0.0
H3186 H 0.56177 0.53931 0.31565 0.0
H3187 H 0.54592 0.56862 0.29198 0.0
H3188 H 0.52807 0.5484 0.26643 0.0
H3189 H 0.55713 0.57617 0.33576 0.0
H3190 H 0.5715 0.56372 0.26331 0.0
H3191 H 0.57393 0.54547 0.23857 0.0
H3192 H 0.60293 0.54222 0.28779 0.0
H3193 H 0.60031 0.56012 0.31312 0.0
C3194 C 0.61488 0.64026 0.31678 0.0
C3195 C 0.62983 0.64438 0.32159 0.0
C3196 C 0.60343 0.62534 0.31858 0.0
C3197 C 0.6065 0.61409 0.32552 0.0
C3198 C 0.62137 0.61816 0.33082 0.0
C3199 C 0.63293 0.63319 0.32899 0.0
C3200 C 0.59423 0.59801 0.32504 0.0
C3201 C 0.59575 0.58744 0.31162 0.0
C3202 C 0.58029 0.59363 0.33475 0.0
C3203 C 0.57836 0.60384 0.35068 0.0
C3204 C 0.58833 0.61073 0.3692 0.0
C3205 C 0.58658 0.62045 0.38406 0.0
C3206 C 0.57487 0.62334 0.38063 0.0
C3207 C 0.56486 0.6165 0.36237 0.0
C3208 C 0.56656 0.60677 0.34745 0.0
C3209 C 0.54373 0.52956 0.29105 0.0
C3210 C 0.53468 0.53225 0.27619 0.0
C3211 C 0.55398 0.54116 0.30573 0.0
C3212 C 0.55543 0.55561 0.30534 0.0
C3213 C 0.54506 0.55761 0.29254 0.0
C3214 C 0.53479 0.54602 0.27801 0.0
C3215 C 0.56921 0.56924 0.31423 0.0
C3216 C 0.56793 0.57936 0.32901 0.0
C3217 C 0.58341 0.5732 0.30594 0.0
C3218 C 0.58555 0.56308 0.29021 0.0
C3219 C 0.57832 0.55905 0.2689 0.0
C3220 C 0.57965 0.5487 0.25485 0.0
C3221 C 0.58848 0.54262 0.26168 0.0
C3222 C 0.59604 0.5469 0.28256 0.0
C3223 C 0.5946 0.5571 0.29681 0.0
H3224 H 0.58954 0.53465 0.25073 0.0
H3225 H 0.57354 0.63088 0.39215 0.0
H3226 H 0.34664 0.97806 0.3228 0.0
H3227 H 0.36826 0.97861 0.306 0.0
H3228 H 0.39766 0.01949 0.34433 0.0
H3229 H 0.37608 0.01901 0.36139 0.0
H3230 H 0.40566 0.01952 0.29867 0.0
H3231 H 0.39386 0.98849 0.36327 0.0
H3232 H 0.37726 0.96788 0.38767 0.0
H3233 H 0.36745 0.93532 0.33394 0.0
H3234 H 0.38382 0.95577 0.3091 0.0
H3235 H 0.46816 0.01424 0.26593 0.0
H3236 H 0.45118 0.01609 0.29234 0.0
H3237 H 0.41572 0.97232 0.26851 0.0
H3238 H 0.43271 0.97025 0.24281 0.0
H3239 H 0.41294 0.97571 0.3116 0.0
H3240 H 0.4212 0.00569 0.24584 0.0
H3241 H 0.43652 0.02554 0.21946 0.0
H3242 H 0.45162 0.05916 0.273 0.0
H3243 H 0.43653 0.03945 0.29977 0.0
C3244 C 0.35768 0.9873 0.32744 0.0
C3245 C 0.35965 0.99844 0.34355 0.0
C3246 C 0.37002 0.98754 0.31792 0.0
C3247 C 0.38454 0.99896 0.3242 0.0
C3248 C 0.38654 0.01054 0.33938 0.0
C3249 C 0.3742 0.01023 0.34909 0.0
C3250 C 0.39759 0.99846 0.31545 0.0
C3251 C 0.40744 0.01009 0.30182 0.0
C3252 C 0.39973 0.98603 0.31931 0.0
C3253 C 0.38998 0.97368 0.33427 0.0
C3254 C 0.38808 0.97695 0.3566 0.0
C3255 C 0.37872 0.96529 0.37052 0.0
C3256 C 0.37128 0.9503 0.36235 0.0
C3257 C 0.37321 0.94694 0.34025 0.0
C3258 C 0.38254 0.95856 0.32625 0.0
C3259 C 0.45689 0.00482 0.26693 0.0
C3260 C 0.45168 0.99217 0.25218 0.0
C3261 C 0.44715 0.00595 0.28182 0.0
C3262 C 0.43207 0.99451 0.282 0.0
C3263 C 0.42726 0.98135 0.2686 0.0
C3264 C 0.43696 0.98019 0.25386 0.0
C3265 C 0.4209 0.99663 0.2944 0.0
C3266 C 0.41135 0.98528 0.30873 0.0
C3267 C 0.41891 0.00922 0.29092 0.0
C3268 C 0.42789 0.02108 0.27484 0.0
C3269 C 0.42787 0.0173 0.25201 0.0
C3270 C 0.4365 0.02852 0.23699 0.0
C3271 C 0.44507 0.04359 0.24456 0.0
C3272 C 0.445 0.04748 0.26717 0.0
C3273 C 0.43641 0.03629 0.28227 0.0
H3274 H 0.45175 0.05227 0.23291 0.0
H3275 H 0.36404 0.94129 0.37315 0.0
H3276 H 0.62279 0.97697 0.31049 0.0
H3277 H 0.6007 0.97636 0.29386 0.0
H3278 H 0.60583 0.01105 0.34163 0.0
H3279 H 0.62766 0.01146 0.35862 0.0
H3280 H 0.57793 0.99 0.33907 0.0
H3281 H 0.61468 0.01806 0.2852 0.0
H3282 H 0.63425 0.02364 0.25788 0.0
H3283 H 0.60364 0.98463 0.21751 0.0
H3284 H 0.58393 0.97866 0.24479 0.0
H3285 H 0.53451 0.01611 0.27823 0.0
H3286 H 0.5525 0.01194 0.29979 0.0
H3287 H 0.54126 0.97267 0.25759 0.0
H3288 H 0.52319 0.97678 0.23625 0.0
H3289 H 0.57124 0.99462 0.2575 0.0
H3290 H 0.53398 0.96801 0.31166 0.0
H3291 H 0.51467 0.96439 0.33843 0.0
H3292 H 0.54693 0.0031 0.37778 0.0
H3293 H 0.5664 0.00709 0.35106 0.0
C3294 C 0.6193 0.98457 0.31732 0.0
C3295 C 0.62702 0.99427 0.3359 0.0
C3296 C 0.60666 0.98423 0.30776 0.0
C3297 C 0.6016 0.99373 0.31637 0.0
C3298 C 0.60944 0.00356 0.33471 0.0
C3299 C 0.62199 0.00383 0.34436 0.0
C3300 C 0.58794 0.9932 0.30671 0.0
C3301 C 0.57657 0.99118 0.32124 0.0
C3302 C 0.58595 0.99442 0.2834 0.0
C3303 C 0.59788 0.99779 0.26722 0.0
C3304 C 0.61216 0.01056 0.27065 0.0
C3305 C 0.62327 0.01382 0.25514 0.0
C3306 C 0.6202 0.00446 0.23603 0.0
C3307 C 0.60601 0.99184 0.23236 0.0
C3308 C 0.59487 0.98851 0.24785 0.0
C3309 C 0.53536 0.00616 0.27438 0.0
C3310 C 0.52727 0.99656 0.25596 0.0
C3311 C 0.54572 0.00385 0.28653 0.0
C3312 C 0.54826 0.99201 0.28023 0.0
C3313 C 0.53946 0.98185 0.26276 0.0
C3314 C 0.52901 0.98407 0.25077 0.0
C3315 C 0.56131 0.99143 0.28984 0.0
C3316 C 0.57259 0.9933 0.27529 0.0
C3317 C 0.5633 0.9903 0.31312 0.0
C3318 C 0.55162 0.98793 0.32923 0.0
C3319 C 0.53693 0.97583 0.32591 0.0
C3320 C 0.52596 0.9737 0.3411 0.0
C3321 C 0.52956 0.98353 0.35977 0.0
C3322 C 0.54415 0.9955 0.3633 0.0
C3323 C 0.55516 0.99769 0.34815 0.0
H3324 H 0.52106 0.98186 0.37151 0.0
H3325 H 0.62881 0.007 0.22404 0.0
H3326 H 0.04588 0.64563 0.33709 0.0
H3327 H 0.03818 0.61883 0.33293 0.0
H3328 H 0.9934 0.60839 0.31499 0.0
H3329 H 1.00093 0.63516 0.3201 0.0
H3330 H 0.99252 0.58512 0.3362 0.0
H3331 H 0.01939 0.61591 0.27462 0.0
H3332 H 0.04044 0.63732 0.25659 0.0
H3333 H 0.06997 0.62191 0.27959 0.0
H3334 H 0.04912 0.60051 0.29802 0.0
H3335 H 0.97219 0.5275 0.25058 0.0
H3336 H 0.97733 0.54818 0.2772 0.0
H3337 H 0.01947 0.55187 0.29609 0.0
H3338 H 0.0144 0.53126 0.26929 0.0
H3339 H 0.02266 0.57764 0.27902 0.0
H3340 H 0.99312 0.5436 0.33511 0.0
H3341 H 0.97087 0.52197 0.35038 0.0
H3342 H 0.94482 0.54282 0.33448 0.0
H3343 H 0.96686 0.5645 0.3188 0.0
C3344 C 0.0343 0.63756 0.33284 0.0
C3345 C 0.02405 0.64251 0.32862 0.0
C3346 C 0.02992 0.62225 0.33039 0.0
C3347 C 0.01531 0.61163 0.323 0.0
C3348 C 0.00475 0.61636 0.32057 0.0
C3349 C 0.00907 0.63168 0.32348 0.0
C3350 C 0.01158 0.59614 0.31526 0.0
C3351 C 0.99906 0.58345 0.32365 0.0
C3352 C 0.02021 0.59392 0.29905 0.0
C3353 C 0.03275 0.60673 0.28791 0.0
C3354 C 0.0304 0.61716 0.27596 0.0
C3355 C 0.04229 0.62927 0.26566 0.0
C3356 C 0.05654 0.631 0.26701 0.0
C3357 C 0.05893 0.62058 0.2786 0.0
C3358 C 0.04708 0.60845 0.28898 0.0
C3359 C 0.98229 0.53236 0.26104 0.0
C3360 C 0.99294 0.52786 0.25776 0.0
C3361 C 0.98521 0.54415 0.27631 0.0
C3362 C 0.99883 0.55164 0.28859 0.0
C3363 C 0.00888 0.54625 0.2868 0.0
C3364 C 0.00593 0.53438 0.2716 0.0
C3365 C 0.0036 0.56653 0.29995 0.0
C3366 C 0.01628 0.57919 0.29199 0.0
C3367 C 0.99494 0.56865 0.31617 0.0
C3368 C 0.98164 0.55564 0.32563 0.0
C3369 C 0.98262 0.54353 0.33469 0.0
C3370 C 0.97005 0.53126 0.34346 0.0
C3371 C 0.95643 0.53101 0.34337 0.0
C3372 C 0.95537 0.54303 0.33454 0.0
C3373 C 0.96791 0.55533 0.32574 0.0
H3374 H 0.94671 0.5215 0.35017 0.0
H3375 H 0.06573 0.64038 0.25901 0.0
H3376 H 0.36515 0.36525 0.35042 0.0
H3377 H 0.39031 0.38188 0.33736 0.0
H3378 H 0.37581 0.411 0.30851 0.0
H3379 H 0.35058 0.39446 0.32156 0.0
H3380 H 0.3929 0.40497 0.27993 0.0
H3381 H 0.39521 0.42156 0.35668 0.0
H3382 H 0.39228 0.41839 0.39755 0.0
H3383 H 0.42353 0.4024 0.39969 0.0
H3384 H 0.42649 0.40527 0.35875 0.0
H3385 H 0.46788 0.47348 0.28117 0.0
H3386 H 0.447 0.45709 0.30472 0.0
H3387 H 0.44489 0.41771 0.27311 0.0
H3388 H 0.46572 0.43401 0.24967 0.0
H3389 H 0.43656 0.42991 0.33333 0.0
H3390 H 0.41022 0.39868 0.24989 0.0
H3391 H 0.41357 0.40304 0.20921 0.0
H3392 H 0.4299 0.45044 0.22141 0.0
H3393 H 0.42656 0.44632 0.26205 0.0
C3394 C 0.36727 0.37515 0.34118 0.0
C3395 C 0.35586 0.37856 0.33706 0.0
C3396 C 0.38168 0.38468 0.33386 0.0
C3397 C 0.38494 0.39774 0.32222 0.0
C3398 C 0.37351 0.40098 0.31757 0.0
C3399 C 0.35911 0.39153 0.32504 0.0
C3400 C 0.40025 0.40799 0.3147 0.0
C3401 C 0.40241 0.41039 0.29164 0.0
C3402 C 0.41267 0.41517 0.32999 0.0
C3403 C 0.41096 0.41349 0.35461 0.0
C3404 C 0.40136 0.41725 0.36583 0.0
C3405 C 0.39972 0.41553 0.38902 0.0
C3406 C 0.40769 0.41016 0.4012 0.0
C3407 C 0.41735 0.40654 0.39023 0.0
C3408 C 0.41903 0.40822 0.36703 0.0
C3409 C 0.46344 0.46136 0.28011 0.0
C3410 C 0.46824 0.45495 0.26352 0.0
C3411 C 0.4515 0.45201 0.2935 0.0
C3412 C 0.4443 0.43623 0.29032 0.0
C3413 C 0.45027 0.42988 0.27567 0.0
C3414 C 0.46216 0.43918 0.26233 0.0
C3415 C 0.42911 0.42663 0.29865 0.0
C3416 C 0.427 0.42438 0.32173 0.0
C3417 C 0.41666 0.4197 0.28346 0.0
C3418 C 0.41825 0.4222 0.25898 0.0
C3419 C 0.41446 0.41001 0.24384 0.0
C3420 C 0.41639 0.41245 0.2208 0.0
C3421 C 0.42201 0.42702 0.21273 0.0
C3422 C 0.42563 0.43917 0.22766 0.0
C3423 C 0.42374 0.43679 0.2507 0.0
H3424 H 0.42351 0.42888 0.1949 0.0
H3425 H 0.4064 0.40884 0.41916 0.0
H3426 H 0.28721 0.27791 0.35978 0.0
H3427 H 0.2933 0.25764 0.3601 0.0
H3428 H 0.33962 0.29061 0.37407 0.0
H3429 H 0.33371 0.31091 0.37253 0.0
H3430 H 0.33851 0.26848 0.3506 0.0
H3431 H 0.3138 0.27183 0.41676 0.0
H3432 H 0.29346 0.27186 0.4376 0.0
H3433 H 0.26279 0.22705 0.41159 0.0
H3434 H 0.28295 0.22683 0.39038 0.0
H3435 H 0.36156 0.23611 0.43575 0.0
H3436 H 0.3552 0.24979 0.40848 0.0
H3437 H 0.31481 0.20842 0.38934 0.0
H3438 H 0.32131 0.19467 0.4165 0.0
H3439 H 0.31021 0.23073 0.40781 0.0
H3440 H 0.33885 0.22658 0.34963 0.0
H3441 H 0.36094 0.22779 0.33269 0.0
H3442 H 0.38635 0.27553 0.348 0.0
H3443 H 0.36449 0.27459 0.36535 0.0
C3444 C 0.29873 0.28084 0.36243 0.0
C3445 C 0.30995 0.29597 0.36646 0.0
C3446 C 0.3022 0.26925 0.36268 0.0
C3447 C 0.31686 0.27254 0.36776 0.0
C3448 C 0.32822 0.28774 0.37021 0.0
C3449 C 0.32481 0.29936 0.36941 0.0
C3450 C 0.32015 0.26029 0.37303 0.0
C3451 C 0.33233 0.26022 0.3631 0.0
C3452 C 0.31193 0.24928 0.38906 0.0
C3453 C 0.29981 0.2494 0.40176 0.0
C3454 C 0.30269 0.26203 0.41537 0.0
C3455 C 0.2912 0.26208 0.42726 0.0
C3456 C 0.27683 0.24949 0.42585 0.0
C3457 C 0.27392 0.23681 0.41261 0.0
C3458 C 0.28537 0.23671 0.40065 0.0
C3459 C 0.35169 0.22984 0.42495 0.0
C3460 C 0.34192 0.21438 0.42808 0.0
C3461 C 0.34806 0.23764 0.40937 0.0
C3462 C 0.33452 0.23012 0.39689 0.0
C3463 C 0.32535 0.2144 0.39871 0.0
C3464 C 0.32909 0.20655 0.41411 0.0
C3465 C 0.32875 0.23912 0.38576 0.0
C3466 C 0.31613 0.23867 0.39477 0.0
C3467 C 0.33681 0.24983 0.36939 0.0
C3468 C 0.35001 0.25049 0.3589 0.0
C3469 C 0.34918 0.23732 0.34955 0.0
C3470 C 0.36166 0.23796 0.33983 0.0
C3471 C 0.37504 0.25172 0.33929 0.0
C3472 C 0.37597 0.26488 0.34842 0.0
C3473 C 0.36352 0.2643 0.35817 0.0
H3474 H 0.3847 0.2522 0.33176 0.0
H3475 H 0.26795 0.24954 0.43507 0.0
H3476 H 0.72298 0.02478 0.33976 0.0
H3477 H 0.74264 0.05131 0.34298 0.0
H3478 H 0.71153 0.063 0.37122 0.0
H3479 H 0.6916 0.03646 0.36696 0.0
H3480 H 0.73225 0.08649 0.34878 0.0
H3481 H 0.73261 0.05356 0.40502 0.0
H3482 H 0.73284 0.03114 0.41925 0.0
H3483 H 0.77464 0.04506 0.3881 0.0
H3484 H 0.77454 0.06747 0.37341 0.0
H3485 H 0.77865 0.14118 0.434 0.0
H3486 H 0.76032 0.12157 0.40801 0.0
H3487 H 0.79531 0.11654 0.37827 0.0
H3488 H 0.8137 0.13626 0.40431 0.0
H3489 H 0.77396 0.09071 0.39669 0.0
H3490 H 0.77468 0.12681 0.34618 0.0
H3491 H 0.7737 0.14945 0.33509 0.0
H3492 H 0.72924 0.13019 0.35929 0.0
H3493 H 0.73003 0.10752 0.37085 0.0
C3494 C 0.72023 0.0331 0.34594 0.0
C3495 C 0.70582 0.02857 0.3533 0.0
C3496 C 0.73148 0.04825 0.3479 0.0
C3497 C 0.7287 0.0591 0.358 0.0
C3498 C 0.71399 0.05484 0.36351 0.0
C3499 C 0.70259 0.03967 0.36106 0.0
C3500 C 0.74136 0.07421 0.3654 0.0
C3501 C 0.74135 0.08744 0.35931 0.0
C3502 C 0.75335 0.0755 0.379 0.0
C3503 C 0.75348 0.06208 0.3879 0.0
C3504 C 0.7418 0.05178 0.40108 0.0
C3505 C 0.74191 0.03908 0.40924 0.0
C3506 C 0.75372 0.03665 0.40452 0.0
C3507 C 0.76548 0.04694 0.39169 0.0
C3508 C 0.7654 0.05964 0.38345 0.0
C3509 C 0.78249 0.13637 0.42119 0.0
C3510 C 0.79756 0.14025 0.42101 0.0
C3511 C 0.77201 0.12515 0.40635 0.0
C3512 C 0.77641 0.11754 0.39118 0.0
C3513 C 0.79167 0.1223 0.38977 0.0
C3514 C 0.80219 0.13364 0.4045 0.0
C3515 C 0.76496 0.10308 0.38 0.0
C3516 C 0.76508 0.08987 0.38569 0.0
C3517 C 0.75299 0.10188 0.36648 0.0
C3518 C 0.75246 0.11549 0.35953 0.0
C3519 C 0.76474 0.12745 0.34932 0.0
C3520 C 0.76421 0.14028 0.34291 0.0
C3521 C 0.75143 0.14127 0.34652 0.0
C3522 C 0.73914 0.12941 0.35651 0.0
C3523 C 0.73961 0.11655 0.36296 0.0
H3524 H 0.75104 0.15121 0.34155 0.0
H3525 H 0.75379 0.02681 0.41086 0.0
H3526 H 0.97714 0.66414 0.35961 0.0
H3527 H 0.95207 0.65705 0.37192 0.0
H3528 H 0.95972 0.7014 0.35617 0.0
H3529 H 0.98471 0.70858 0.34391 0.0
H3530 H 0.94677 0.69206 0.39696 0.0
H3531 H 0.93894 0.67194 0.32086 0.0
H3532 H 0.94087 0.65677 0.2898 0.0
H3533 H 0.91672 0.61642 0.32729 0.0
H3534 H 0.91482 0.6314 0.35872 0.0
H3535 H 0.87547 0.67875 0.41181 0.0
H3536 H 0.896 0.68317 0.38746 0.0
H3537 H 0.8902 0.63958 0.40364 0.0
H3538 H 0.86965 0.63512 0.42782 0.0
H3539 H 0.90175 0.64853 0.36087 0.0
H3540 H 0.91105 0.66758 0.43733 0.0
H3541 H 0.90856 0.68158 0.46954 0.0
H3542 H 0.93025 0.72278 0.43332 0.0
H3543 H 0.93255 0.70892 0.40065 0.0
C3544 C 0.97353 0.67242 0.35895 0.0
C3545 C 0.98291 0.68691 0.35073 0.0
C3546 C 0.95916 0.66832 0.36583 0.0
C3547 C 0.95397 0.67864 0.36467 0.0
C3548 C 0.96348 0.69324 0.35711 0.0
C3549 C 0.97777 0.69731 0.3501 0.0
C3550 C 0.93864 0.67431 0.37137 0.0
C3551 C 0.93694 0.6827 0.3888 0.0
C3552 C 0.9258 0.66184 0.36114 0.0
C3553 C 0.92687 0.65281 0.34222 0.0
C3554 C 0.93414 0.65985 0.32255 0.0
C3555 C 0.93521 0.65128 0.30487 0.0
C3556 C 0.92895 0.63565 0.30659 0.0
C3557 C 0.92158 0.62854 0.32599 0.0
C3558 C 0.92049 0.63706 0.34373 0.0
C3559 C 0.87805 0.66979 0.40916 0.0
C3560 C 0.8711 0.65665 0.42171 0.0
C3561 C 0.88986 0.67237 0.39543 0.0
C3562 C 0.89483 0.66184 0.39421 0.0
C3563 C 0.88659 0.64786 0.40442 0.0
C3564 C 0.87483 0.64531 0.41817 0.0
C3565 C 0.90994 0.66643 0.38618 0.0
C3566 C 0.9116 0.65802 0.36875 0.0
C3567 C 0.9228 0.67875 0.39662 0.0
C3568 C 0.92182 0.68719 0.41645 0.0
C3569 C 0.9152 0.67961 0.43617 0.0
C3570 C 0.91381 0.68751 0.45451 0.0
C3571 C 0.91921 0.70305 0.45345 0.0
C3572 C 0.92605 0.71073 0.43408 0.0
C3573 C 0.92738 0.70286 0.41564 0.0
H3574 H 0.91813 0.70916 0.46767 0.0
H3575 H 0.92979 0.62903 0.29288 0.0
H3576 H 0.37794 0.99178 0.66115 0.0
H3577 H 0.39965 0.99201 0.67846 0.0
H3578 H 0.40798 0.03032 0.7208 0.0
H3579 H 0.3862 0.03014 0.70362 0.0
H3580 H 0.43343 0.03438 0.69985 0.0
H3581 H 0.39437 0.99662 0.74322 0.0
H3582 H 0.37055 0.97328 0.74929 0.0
H3583 H 0.38658 0.94701 0.71528 0.0
H3584 H 0.41044 0.97024 0.70873 0.0
H3585 H 0.48337 0.03358 0.78259 0.0
H3586 H 0.46435 0.03444 0.75885 0.0
H3587 H 0.45653 0.99388 0.72302 0.0
H3588 H 0.4755 0.99291 0.7472 0.0
H3589 H 0.43119 0.99065 0.73837 0.0
H3590 H 0.47093 0.02826 0.69677 0.0
H3591 H 0.49482 0.05159 0.691 0.0
H3592 H 0.47777 0.07811 0.72133 0.0
H3593 H 0.45384 0.05491 0.72759 0.0
C3594 C 0.38428 1.00017 0.67432 0.0
C3595 C 0.3803 0.01093 0.68101 0.0
C3596 C 0.3967 1.00027 0.68421 0.0
C3597 C 0.40546 0.01118 0.70094 0.0
C3598 C 0.40141 0.02182 0.70789 0.0
C3599 C 0.38889 0.02163 0.69815 0.0
C3600 C 0.41906 0.01172 0.71073 0.0
C3601 C 0.43294 0.02488 0.70849 0.0
C3602 C 0.41848 0.99917 0.7214 0.0
C3603 C 0.40413 0.98519 0.72525 0.0
C3604 C 0.39276 0.98589 0.73684 0.0
C3605 C 0.37926 0.97267 0.74041 0.0
C3606 C 0.37703 0.95868 0.73261 0.0
C3607 C 0.38832 0.95787 0.72128 0.0
C3608 C 0.40183 0.97105 0.71764 0.0
C3609 C 0.47803 0.02522 0.76901 0.0
C3610 C 0.48101 0.01328 0.76653 0.0
C3611 C 0.4671 0.02568 0.75548 0.0
C3612 C 0.45897 0.01424 0.73907 0.0
C3613 C 0.46265 0.00284 0.73556 0.0
C3614 C 0.47364 0.0024 0.74913 0.0
C3615 C 0.44565 0.01333 0.72749 0.0
C3616 C 0.43176 1.00011 0.72949 0.0
C3617 C 0.44625 0.02583 0.71656 0.0
C3618 C 0.46062 0.03982 0.71281 0.0
C3619 C 0.47231 0.03905 0.70238 0.0
C3620 C 0.48585 0.05226 0.69898 0.0
C3621 C 0.48782 0.06632 0.70583 0.0
C3622 C 0.47623 0.06721 0.71605 0.0
C3623 C 0.46267 0.05403 0.71949 0.0
H3624 H 0.49831 0.07653 0.70319 0.0
H3625 H 0.36658 0.94846 0.73541 0.0
H3626 H 0.00812 0.37016 0.69783 0.0
H3627 H 0.01923 0.39751 0.70418 0.0
H3628 H 0.97568 0.39307 0.69767 0.0
H3629 H 0.96447 0.36576 0.69149 0.0
H3630 H 0.99919 0.42068 0.68016 0.0
H3631 H 0.98668 0.39054 0.74711 0.0
H3632 H 0.98782 0.37241 0.77274 0.0
H3633 H 0.03539 0.40074 0.77979 0.0
H3634 H 0.03454 0.41894 0.7539 0.0
H3635 H 0.99458 0.47243 0.75522 0.0
H3636 H 0.99395 0.45343 0.72904 0.0
H3637 H 0.03625 0.46162 0.7569 0.0
H3638 H 0.03637 0.48001 0.78394 0.0
H3639 H 0.01824 0.43414 0.75903 0.0
H3640 H 0.02987 0.46726 0.69866 0.0
H3641 H 0.02845 0.48571 0.67411 0.0
H3642 H 0.98315 0.45303 0.65505 0.0
H3643 H 0.98421 0.43444 0.67974 0.0
C3644 C 1.00095 0.37505 0.69708 0.0
C3645 C 0.98538 0.36576 0.69448 0.0
C3646 C 0.00733 0.39068 0.70073 0.0
C3647 C 0.99825 0.39727 0.70162 0.0
C3648 C 0.98288 0.38821 0.69703 0.0
C3649 C 0.97648 0.37258 0.69364 0.0
C3650 C 0.00426 0.41295 0.71065 0.0
C3651 C 0.00337 0.42373 0.6974 0.0
C3652 C 0.01004 0.41697 0.73296 0.0
C3653 C 0.01058 0.40595 0.74828 0.0
C3654 C 0.9974 0.3928 0.75391 0.0
C3655 C 0.99799 0.38254 0.76853 0.0
C3656 C 0.01168 0.38539 0.77781 0.0
C3657 C 0.0248 0.39852 0.77253 0.0
C3658 C 0.02428 0.40881 0.75787 0.0
C3659 C 0.00401 0.47058 0.75509 0.0
C3660 C 0.01555 0.47768 0.77145 0.0
C3661 C 0.00369 0.45973 0.74005 0.0
C3662 C 0.01509 0.45604 0.74081 0.0
C3663 C 0.02729 0.46418 0.75595 0.0
C3664 C 0.02744 0.47477 0.77129 0.0
C3665 C 0.01301 0.44212 0.72883 0.0
C3666 C 0.01449 0.43149 0.7416 0.0
C3667 C 0.00781 0.43835 0.70613 0.0
C3668 C 0.0071 0.44947 0.69118 0.0
C3669 C 0.01956 0.46403 0.68936 0.0
C3670 C 0.01883 0.47452 0.67539 0.0
C3671 C 0.00571 0.47055 0.66305 0.0
C3672 C 0.99331 0.45608 0.66462 0.0
C3673 C 0.99398 0.44556 0.67857 0.0
H3674 H 0.00517 0.47869 0.65224 0.0
H3675 H 0.01211 0.37744 0.78915 0.0
H3676 H 0.65412 0.62521 0.69689 0.0
H3677 H 0.63077 0.60506 0.71129 0.0
H3678 H 0.60753 0.62733 0.68656 0.0
H3679 H 0.63084 0.64748 0.67179 0.0
H3680 H 0.59969 0.61501 0.73142 0.0
H3681 H 0.6041 0.60024 0.6559 0.0
H3682 H 0.61712 0.59572 0.62512 0.0
H3683 H 0.62086 0.5627 0.66404 0.0
H3684 H 0.60805 0.5672 0.69521 0.0
H3685 H 0.52993 0.55212 0.75261 0.0
H3686 H 0.54865 0.5713 0.72865 0.0
H3687 H 0.57704 0.55208 0.73894 0.0
H3688 H 0.55833 0.53289 0.76251 0.0
H3689 H 0.5806 0.56348 0.6978 0.0
H3690 H 0.57973 0.57949 0.77397 0.0
H3691 H 0.56809 0.58377 0.80692 0.0
H3692 H 0.55939 0.61428 0.76955 0.0
H3693 H 0.57076 0.60996 0.73623 0.0
C3694 C 0.64412 0.62598 0.69484 0.0
C3695 C 0.64432 0.6379 0.68308 0.0
C3696 C 0.63077 0.61441 0.70296 0.0
C3697 C 0.61742 0.61463 0.69969 0.0
C3698 C 0.61772 0.62694 0.68913 0.0
C3699 C 0.63104 0.63843 0.68072 0.0
C3700 C 0.6031 0.60164 0.70643 0.0
C3701 C 0.59533 0.6038 0.72379 0.0
C3702 C 0.59764 0.58698 0.69676 0.0
C3703 C 0.60522 0.58415 0.67796 0.0
C3704 C 0.6078 0.5921 0.65797 0.0
C3705 C 0.61513 0.58953 0.64044 0.0
C3706 C 0.61984 0.57895 0.64264 0.0
C3707 C 0.61721 0.5709 0.66236 0.0
C3708 C 0.6099 0.57344 0.67996 0.0
C3709 C 0.53989 0.55163 0.74888 0.0
C3710 C 0.54276 0.5411 0.75932 0.0
C3711 C 0.55063 0.56267 0.73543 0.0
C3712 C 0.56438 0.56331 0.73243 0.0
C3713 C 0.56656 0.55184 0.74107 0.0
C3714 C 0.55586 0.54087 0.75448 0.0
C3715 C 0.57719 0.57679 0.72293 0.0
C3716 C 0.58476 0.57474 0.70514 0.0
C3717 C 0.58262 0.59152 0.73248 0.0
C3718 C 0.57592 0.59426 0.75253 0.0
C3719 C 0.57524 0.58702 0.77273 0.0
C3720 C 0.5687 0.58946 0.79148 0.0
C3721 C 0.56297 0.59926 0.79031 0.0
C3722 C 0.5638 0.60667 0.77041 0.0
C3723 C 0.57029 0.60422 0.75159 0.0
H3724 H 0.55791 0.60114 0.80484 0.0
H3725 H 0.62552 0.57698 0.62905 0.0
H3726 H 0.674 0.69575 0.66104 0.0
H3727 H 0.66907 0.71685 0.66105 0.0
H3728 H 0.71137 0.74496 0.63067 0.0
H3729 H 0.71652 0.7242 0.63101 0.0
H3730 H 0.70584 0.76138 0.6602 0.0
H3731 H 0.67878 0.7253 0.59844 0.0
H3732 H 0.66081 0.70011 0.58201 0.0
H3733 H 0.62585 0.6996 0.62035 0.0
H3734 H 0.64368 0.72475 0.63716 0.0
H3735 H 0.69928 0.80573 0.57724 0.0
H3736 H 0.70285 0.78991 0.60404 0.0
H3737 H 0.65916 0.77526 0.62971 0.0
H3738 H 0.65561 0.79122 0.6028 0.0
H3739 H 0.6619 0.75202 0.61302 0.0
H3740 H 0.68934 0.7926 0.66536 0.0
H3741 H 0.70807 0.81841 0.67852 0.0
H3742 H 0.74321 0.81135 0.65543 0.0
H3743 H 0.72469 0.78558 0.64181 0.0
C3744 C 0.68236 0.7065 0.65469 0.0
C3745 C 0.69557 0.70819 0.64574 0.0
C3746 C 0.6795 0.71854 0.65468 0.0
C3747 C 0.68977 0.73243 0.64558 0.0
C3748 C 0.70329 0.73437 0.63779 0.0
C3749 C 0.70616 0.72241 0.63785 0.0
C3750 C 0.68605 0.74456 0.64211 0.0
C3751 C 0.69621 0.75937 0.64996 0.0
C3752 C 0.67327 0.74187 0.62928 0.0
C3753 C 0.66258 0.72677 0.61927 0.0
C3754 C 0.66728 0.71975 0.60349 0.0
C3755 C 0.65712 0.7055 0.59408 0.0
C3756 C 0.64221 0.69823 0.60021 0.0
C3757 C 0.63742 0.70522 0.61568 0.0
C3758 C 0.64754 0.71947 0.62514 0.0
C3759 C 0.69073 0.79965 0.58931 0.0
C3760 C 0.6772 0.79967 0.58808 0.0
C3761 C 0.69277 0.79062 0.60464 0.0
C3762 C 0.68127 0.78139 0.61892 0.0
C3763 C 0.6682 0.78235 0.61893 0.0
C3764 C 0.66622 0.79152 0.60369 0.0
C3765 C 0.68196 0.76898 0.63044 0.0
C3766 C 0.67125 0.75406 0.62398 0.0
C3767 C 0.69435 0.77164 0.64426 0.0
C3768 C 0.70559 0.78714 0.65249 0.0
C3769 C 0.70105 0.79657 0.66295 0.0
C3770 C 0.71164 0.8112 0.67052 0.0
C3771 C 0.72682 0.81652 0.6678 0.0
C3772 C 0.73145 0.80721 0.65754 0.0
C3773 C 0.7209 0.79257 0.64993 0.0
H3774 H 0.735 0.82784 0.67367 0.0
H3775 H 0.63436 0.6872 0.59291 0.0
H3776 H 0.28366 0.98585 0.65296 0.0
H3777 H 0.26425 0.9593 0.64983 0.0
H3778 H 0.29778 0.94605 0.65204 0.0
H3779 H 0.31741 0.97278 0.65512 0.0
H3780 H 0.27831 0.93309 0.61611 0.0
H3781 H 0.27433 0.93821 0.69522 0.0
H3782 H 0.27187 0.94994 0.73022 0.0
H3783 H 0.22957 0.94319 0.70615 0.0
H3784 H 0.23186 0.93161 0.67084 0.0
H3785 H 0.22707 0.85648 0.60731 0.0
H3786 H 0.24494 0.87951 0.62835 0.0
H3787 H 0.21536 0.89748 0.62016 0.0
H3788 H 0.1974 0.87433 0.59901 0.0
H3789 H 0.23326 0.90702 0.66204 0.0
H3790 H 0.2384 0.90528 0.58205 0.0
H3791 H 0.2401 0.89365 0.54636 0.0
H3792 H 0.2798 0.89477 0.57138 0.0
H3793 H 0.27819 0.90617 0.60738 0.0
C3794 C 0.28694 0.97731 0.6532 0.0
C3795 C 0.30212 0.98147 0.6542 0.0
C3796 C 0.27579 0.96209 0.65152 0.0
C3797 C 0.27951 0.95064 0.65077 0.0
C3798 C 0.29464 0.9547 0.65263 0.0
C3799 C 0.30584 0.96998 0.65453 0.0
C3800 C 0.26767 0.93463 0.646 0.0
C3801 C 0.26864 0.9273 0.62648 0.0
C3802 C 0.25477 0.92721 0.65905 0.0
C3803 C 0.25333 0.93414 0.68029 0.0
C3804 C 0.26455 0.93933 0.6973 0.0
C3805 C 0.26318 0.94593 0.71722 0.0
C3806 C 0.25059 0.94733 0.72039 0.0
C3807 C 0.23932 0.9421 0.70366 0.0
C3808 C 0.24064 0.9355 0.68371 0.0
C3809 C 0.22409 0.86505 0.6109 0.0
C3810 C 0.21088 0.86366 0.60157 0.0
C3811 C 0.23434 0.87825 0.62279 0.0
C3812 C 0.23159 0.89031 0.62546 0.0
C3813 C 0.21769 0.8883 0.61828 0.0
C3814 C 0.20739 0.87505 0.60632 0.0
C3815 C 0.24403 0.90559 0.63233 0.0
C3816 C 0.24308 0.91279 0.65199 0.0
C3817 C 0.25692 0.91302 0.61929 0.0
C3818 C 0.25809 0.90643 0.5975 0.0
C3819 C 0.24743 0.90294 0.58 0.0
C3820 C 0.24838 0.89642 0.55971 0.0
C3821 C 0.26002 0.89344 0.55663 0.0
C3822 C 0.27077 0.89705 0.57381 0.0
C3823 C 0.26985 0.90356 0.59416 0.0
H3824 H 0.26074 0.88838 0.54092 0.0
H3825 H 0.24955 0.95245 0.73582 0.0
H3826 H 0.02838 0.30965 0.70586 0.0
H3827 H 0.05181 0.31384 0.69071 0.0
H3828 H 0.04588 0.33673 0.63466 0.0
H3829 H 0.02216 0.33226 0.64952 0.0
H3830 H 0.05494 0.3185 0.62025 0.0
H3831 H 0.0711 0.35642 0.67862 0.0
H3832 H 0.07259 0.36684 0.71687 0.0
H3833 H 0.09011 0.33964 0.74255 0.0
H3834 H 0.08854 0.32889 0.70448 0.0
H3835 H 0.13802 0.35914 0.60463 0.0
H3836 H 0.11804 0.3569 0.62864 0.0
H3837 H 0.09565 0.3083 0.62023 0.0
H3838 H 0.11555 0.31057 0.5962 0.0
H3839 H 0.10187 0.34159 0.66682 0.0
H3840 H 0.06107 0.29718 0.60132 0.0
H3841 H 0.06052 0.28995 0.56135 0.0
H3842 H 0.09341 0.33571 0.54751 0.0
H3843 H 0.09421 0.34317 0.58736 0.0
C3844 C 0.03203 0.31558 0.6903 0.0
C3845 C 0.0234 0.32066 0.67892 0.0
C3846 C 0.0455 0.31806 0.68173 0.0
C3847 C 0.05076 0.32582 0.66173 0.0
C3848 C 0.04208 0.33075 0.65017 0.0
C3849 C 0.02853 0.3282 0.65867 0.0
C3850 C 0.06512 0.32845 0.65265 0.0
C3851 C 0.06516 0.32355 0.6305 0.0
C3852 C 0.0786 0.3353 0.66581 0.0
C3853 C 0.07957 0.34174 0.68872 0.0
C3854 C 0.07516 0.35257 0.69245 0.0
C3855 C 0.07604 0.35855 0.71409 0.0
C3856 C 0.08141 0.35388 0.73214 0.0
C3857 C 0.08594 0.34323 0.72856 0.0
C3858 C 0.08507 0.3372 0.70695 0.0
C3859 C 0.12924 0.34799 0.60898 0.0
C3860 C 0.12835 0.33501 0.59891 0.0
C3861 C 0.11778 0.34671 0.62251 0.0
C3862 C 0.10527 0.33245 0.62586 0.0
C3863 C 0.10517 0.31941 0.61769 0.0
C3864 C 0.1166 0.32069 0.60421 0.0
C3865 C 0.09147 0.33127 0.63478 0.0
C3866 C 0.09157 0.33647 0.65676 0.0
C3867 C 0.07819 0.32509 0.62131 0.0
C3868 C 0.07778 0.32068 0.59733 0.0
C3869 C 0.06818 0.30568 0.58972 0.0
C3870 C 0.06786 0.30154 0.56711 0.0
C3871 C 0.07699 0.31235 0.55193 0.0
C3872 C 0.08643 0.32733 0.55931 0.0
C3873 C 0.08687 0.3315 0.58192 0.0
H3874 H 0.07671 0.30915 0.53443 0.0
H3875 H 0.08208 0.35853 0.74888 0.0
H3876 H 0.29453 0.3429 0.70243 0.0
H3877 H 0.27444 0.34447 0.68295 0.0
H3878 H 0.27488 0.31627 0.62851 0.0
H3879 H 0.29527 0.31489 0.64775 0.0
H3880 H 0.27113 0.33829 0.61251 0.0
H3881 H 0.24845 0.30176 0.66942 0.0
H3882 H 0.24486 0.29203 0.70775 0.0
H3883 H 0.23544 0.32644 0.73047 0.0
H3884 H 0.23918 0.33652 0.69231 0.0
H3885 H 0.20219 0.32037 0.56266 0.0
H3886 H 0.22022 0.31636 0.5842 0.0
H3887 H 0.22271 0.34783 0.63578 0.0
H3888 H 0.2045 0.35175 0.61418 0.0
H3889 H 0.22467 0.32375 0.65318 0.0
H3890 H 0.24678 0.35961 0.5947 0.0
H3891 H 0.25015 0.36855 0.5559 0.0
H3892 H 0.2606 0.33447 0.53543 0.0
H3893 H 0.25688 0.32503 0.57398 0.0
C3894 C 0.29047 0.33712 0.68621 0.0
C3895 C 0.29646 0.32867 0.67673 0.0
C3896 C 0.27889 0.33796 0.67515 0.0
C3897 C 0.27288 0.33021 0.65449 0.0
C3898 C 0.27925 0.32227 0.64451 0.0
C3899 C 0.29093 0.3215 0.65552 0.0
C3900 C 0.25982 0.3302 0.64353 0.0
C3901 C 0.26089 0.3349 0.6213 0.0
C3902 C 0.24653 0.32604 0.65511 0.0
C3903 C 0.24424 0.31999 0.67806 0.0
C3904 C 0.24572 0.30733 0.68263 0.0
C3905 C 0.24365 0.30173 0.70431 0.0
C3906 C 0.23996 0.30863 0.72155 0.0
C3907 C 0.23831 0.32112 0.71711 0.0
C3908 C 0.2404 0.32677 0.69545 0.0
C3909 C 0.20618 0.32597 0.579 0.0
C3910 C 0.20191 0.33626 0.58692 0.0
C3911 C 0.2166 0.32383 0.59116 0.0
C3912 C 0.22307 0.33206 0.61134 0.0
C3913 C 0.21791 0.34142 0.62018 0.0
C3914 C 0.20743 0.34356 0.60798 0.0
C3915 C 0.23598 0.3318 0.62219 0.0
C3916 C 0.23489 0.3271 0.64439 0.0
C3917 C 0.24922 0.33584 0.61049 0.0
C3918 C 0.25137 0.34149 0.58723 0.0
C3919 C 0.24962 0.3539 0.58189 0.0
C3920 C 0.25161 0.35907 0.55994 0.0
C3921 C 0.25556 0.35206 0.54323 0.0
C3922 C 0.2575 0.33986 0.5484 0.0
C3923 C 0.25543 0.33458 0.5703 0.0
H3924 H 0.25715 0.3561 0.52628 0.0
H3925 H 0.23836 0.30429 0.73833 0.0
H3926 H 0.66185 0.96651 0.65164 0.0
H3927 H 0.65031 0.93889 0.65058 0.0
H3928 H 0.6939 0.94317 0.65055 0.0
H3929 H 0.70548 0.97065 0.65161 0.0
H3930 H 0.65362 0.92357 0.61548 0.0
H3931 H 0.69276 0.91254 0.67358 0.0
H3932 H 0.70648 0.92198 0.70996 0.0
H3933 H 0.6756 0.93593 0.73074 0.0
H3934 H 0.66156 0.92638 0.69464 0.0
H3935 H 0.67465 0.86394 0.60119 0.0
H3936 H 0.67662 0.88408 0.62628 0.0
H3937 H 0.62972 0.86811 0.61476 0.0
H3938 H 0.62799 0.84841 0.5887 0.0
H3939 H 0.66635 0.89139 0.66167 0.0
H3940 H 0.62517 0.89813 0.60389 0.0
H3941 H 0.61341 0.89042 0.56588 0.0
H3942 H 0.65098 0.8876 0.54286 0.0
H3943 H 0.66297 0.89531 0.58065 0.0
C3944 C 0.66898 0.96157 0.65193 0.0
C3945 C 0.68459 0.9708 0.65149 0.0
C3946 C 0.66236 0.94579 0.6513 0.0
C3947 C 0.67123 0.93896 0.65061 0.0
C3948 C 0.68682 0.94816 0.65141 0.0
C3949 C 0.69343 0.9639 0.65183 0.0
C3950 C 0.6644 0.92243 0.64604 0.0
C3951 C 0.65601 0.9164 0.62595 0.0
C3952 C 0.66787 0.9132 0.6594 0.0
C3953 C 0.67615 0.91881 0.6813 0.0
C3954 C 0.68883 0.91753 0.68595 0.0
C3955 C 0.69668 0.92293 0.70652 0.0
C3956 C 0.69193 0.92958 0.72263 0.0
C3957 C 0.67929 0.93082 0.71822 0.0
C3958 C 0.6714 0.92544 0.69769 0.0
C3959 C 0.66463 0.8643 0.60489 0.0
C3960 C 0.6512 0.85473 0.59302 0.0
C3961 C 0.66576 0.87587 0.61916 0.0
C3962 C 0.65342 0.87791 0.62185 0.0
C3963 C 0.63948 0.86698 0.61249 0.0
C3964 C 0.63843 0.85561 0.59784 0.0
C3965 C 0.65586 0.89269 0.63088 0.0
C3966 C 0.66352 0.89842 0.65164 0.0
C3967 C 0.65195 0.90181 0.61797 0.0
C3968 C 0.64484 0.89707 0.59518 0.0
C3969 C 0.63089 0.89582 0.59071 0.0
C3970 C 0.62418 0.89143 0.56921 0.0
C3971 C 0.63139 0.88837 0.55202 0.0
C3972 C 0.64532 0.88974 0.55628 0.0
C3973 C 0.65209 0.89414 0.57772 0.0
H3974 H 0.62622 0.88503 0.53536 0.0
H3975 H 0.69803 0.93375 0.73853 0.0
H3976 H 0.03074 0.69442 0.66866 0.0
H3977 H 0.05537 0.7134 0.65624 0.0
H3978 H 0.03939 0.74464 0.64592 0.0
H3979 H 0.01472 0.72573 0.65814 0.0
H3980 H 0.05625 0.74469 0.6117 0.0
H3981 H 0.06008 0.74785 0.69254 0.0
H3982 H 0.05824 0.7379 0.73049 0.0
H3983 H 0.09012 0.72425 0.71435 0.0
H3984 H 0.09199 0.73394 0.67617 0.0
H3985 H 0.12253 0.81118 0.59959 0.0
H3986 H 0.10088 0.79371 0.6208 0.0
H3987 H 0.11753 0.76257 0.62332 0.0
H3988 H 0.13926 0.78013 0.60208 0.0
H3989 H 0.10094 0.76227 0.66223 0.0
H3990 H 0.09596 0.75726 0.58134 0.0
H3991 H 0.09759 0.76635 0.54282 0.0
H3992 H 0.06803 0.78298 0.55897 0.0
H3993 H 0.06621 0.77396 0.59761 0.0
C3994 C 0.03241 0.70527 0.66352 0.0
C3995 C 0.02077 0.70858 0.66448 0.0
C3996 C 0.04653 0.71614 0.6566 0.0
C3997 C 0.04927 0.73052 0.65054 0.0
C3998 C 0.03753 0.73365 0.65067 0.0
C3999 C 0.02344 0.72281 0.65764 0.0
C4000 C 0.06436 0.74235 0.64409 0.0
C4001 C 0.06596 0.74865 0.62289 0.0
C4002 C 0.07712 0.74726 0.65846 0.0
C4003 C 0.07605 0.74148 0.68142 0.0
C4004 C 0.0666 0.74262 0.69702 0.0
C4005 C 0.06557 0.73705 0.71858 0.0
C4006 C 0.07403 0.73041 0.72481 0.0
C4007 C 0.08356 0.72937 0.70949 0.0
C4008 C 0.08462 0.73491 0.6879 0.0
C4009 C 0.12195 0.80099 0.60577 0.0
C4010 C 0.13256 0.79702 0.59954 0.0
C4011 C 0.10952 0.79095 0.61764 0.0
C4012 C 0.10752 0.77676 0.62324 0.0
C4013 C 0.11891 0.77348 0.61914 0.0
C4014 C 0.13136 0.78354 0.60721 0.0
C4015 C 0.09269 0.76467 0.63004 0.0
C4016 C 0.09117 0.75829 0.65115 0.0
C4017 C 0.07997 0.75958 0.61558 0.0
C4018 C 0.08107 0.76507 0.5924 0.0
C4019 C 0.08989 0.76294 0.57671 0.0
C4020 C 0.0908 0.76804 0.55484 0.0
C4021 C 0.08297 0.7753 0.54848 0.0
C4022 C 0.07412 0.77738 0.56394 0.0
C4023 C 0.0731 0.77224 0.5858 0.0
H4024 H 0.08371 0.77926 0.53156 0.0
H4025 H 0.07321 0.72611 0.74151 0.0
H4026 H 0.95455 0.60559 0.70335 0.0
H4027 H 0.96091 0.58571 0.70282 0.0
H4028 H 0.00435 0.61686 0.67815 0.0
H4029 H 0.99823 0.63712 0.67936 0.0
H4030 H 0.96958 0.57082 0.6762 0.0
H4031 H 0.02985 0.61074 0.70541 0.0
H4032 H 0.04577 0.63639 0.72222 0.0
H4033 H 0.00801 0.63353 0.75536 0.0
H4034 H 0.99193 0.60782 0.73893 0.0
H4035 H 0.01816 0.54554 0.74954 0.0
H4036 H 0.01574 0.55999 0.71882 0.0
H4037 H 0.97049 0.54519 0.73728 0.0
H4038 H 0.973 0.53097 0.76798 0.0
H4039 H 0.01133 0.58324 0.73048 0.0
H4040 H 0.95043 0.54666 0.69357 0.0
H4041 H 0.9336 0.52036 0.68016 0.0
H4042 H 0.9713 0.51498 0.66669 0.0
H4043 H 0.98838 0.54132 0.67968 0.0
C4044 C 0.96539 0.60823 0.69741 0.0
C4045 C 0.97602 0.62309 0.69195 0.0
C4046 C 0.96897 0.59676 0.69695 0.0
C4047 C 0.98322 0.59985 0.69091 0.0
C4048 C 0.99337 0.61429 0.68329 0.0
C4049 C 0.98984 0.62586 0.68396 0.0
C4050 C 0.98787 0.58855 0.6958 0.0
C4051 C 0.97877 0.57351 0.68794 0.0
C4052 C 1.00013 0.59212 0.71061 0.0
C4053 C 0.00969 0.6075 0.72069 0.0
C4054 C 0.02497 0.61561 0.7163 0.0
C4055 C 0.03402 0.63014 0.72576 0.0
C4056 C 0.02789 0.63661 0.73976 0.0
C4057 C 0.01272 0.62853 0.74443 0.0
C4058 C 0.00365 0.61399 0.73505 0.0
C4059 C 0.00752 0.54489 0.74632 0.0
C4060 C 0.99573 0.53716 0.76091 0.0
C4061 C 0.00616 0.55317 0.72888 0.0
C4062 C 0.99292 0.55362 0.72569 0.0
C4063 C 0.98072 0.54481 0.73914 0.0
C4064 C 0.98215 0.53671 0.7567 0.0
C4065 C 0.99261 0.56535 0.71174 0.0
C4066 C 0.00251 0.58054 0.71799 0.0
C4067 C 0.98094 0.56182 0.69579 0.0
C4068 C 0.9707 0.54599 0.68769 0.0
C4069 C 0.95515 0.53992 0.6876 0.0
C4070 C 0.94556 0.52498 0.6801 0.0
C4071 C 0.95138 0.516 0.67261 0.0
C4072 C 0.9668 0.52194 0.67255 0.0
C4073 C 0.97645 0.53687 0.68002 0.0
H4074 H 0.94393 0.50444 0.66682 0.0
H4075 H 0.0349 0.64787 0.74705 0.0
H4076 H 0.36319 0.36237 0.68843 0.0
H4077 H 0.38337 0.389 0.69081 0.0
H4078 H 0.40595 0.37809 0.7423 0.0
H4079 H 0.38626 0.3517 0.7398 0.0
H4080 H 0.40045 0.40309 0.75275 0.0
H4081 H 0.42054 0.38385 0.69642 0.0
H4082 H 0.41993 0.37161 0.66003 0.0
H4083 H 0.41628 0.40615 0.62525 0.0
H4084 H 0.41664 0.41848 0.66148 0.0
H4085 H 0.47832 0.46458 0.75716 0.0
H4086 H 0.46034 0.4412 0.73663 0.0
H4087 H 0.42896 0.45719 0.73297 0.0
H4088 H 0.44687 0.48054 0.75329 0.0
H4089 H 0.43846 0.43034 0.69567 0.0
H4090 H 0.39969 0.43081 0.76091 0.0
H4091 H 0.40106 0.44382 0.79701 0.0
H4092 H 0.44264 0.44621 0.81425 0.0
H4093 H 0.44141 0.43305 0.77839 0.0
C4094 C 0.37252 0.36564 0.70011 0.0
C4095 C 0.37307 0.35486 0.71392 0.0
C4096 C 0.38404 0.38083 0.7014 0.0
C4097 C 0.39613 0.38547 0.71674 0.0
C4098 C 0.39672 0.37473 0.73034 0.0
C4099 C 0.38543 0.35961 0.72882 0.0
C4100 C 0.40788 0.40159 0.71975 0.0
C4101 C 0.40866 0.40905 0.74016 0.0
C4102 C 0.41864 0.40937 0.7034 0.0
C4103 C 0.41842 0.40196 0.68165 0.0
C4104 C 0.41944 0.38874 0.68102 0.0
C4105 C 0.41918 0.38181 0.66042 0.0
C4106 C 0.41801 0.38807 0.64034 0.0
C4107 C 0.41715 0.4013 0.64082 0.0
C4108 C 0.41739 0.40826 0.66138 0.0
C4109 C 0.46791 0.46345 0.75088 0.0
C4110 C 0.46393 0.47429 0.75692 0.0
C4111 C 0.45763 0.45006 0.73921 0.0
C4112 C 0.44326 0.44741 0.73354 0.0
C4113 C 0.43997 0.45902 0.73721 0.0
C4114 C 0.45022 0.47235 0.74881 0.0
C4115 C 0.43093 0.43173 0.72862 0.0
C4116 C 0.43007 0.42439 0.70803 0.0
C4117 C 0.42006 0.42395 0.74482 0.0
C4118 C 0.42052 0.4311 0.76692 0.0
C4119 C 0.40905 0.43401 0.7725 0.0
C4120 C 0.40982 0.44142 0.79288 0.0
C4121 C 0.42196 0.44588 0.80783 0.0
C4122 C 0.43326 0.44277 0.80261 0.0
C4123 C 0.43255 0.43536 0.78226 0.0
H4124 H 0.42264 0.4518 0.82341 0.0
H4125 H 0.41782 0.38269 0.62441 0.0
H4126 H 0.64683 0.03529 0.64646 0.0
H4127 H 0.62303 0.03063 0.66099 0.0
H4128 H 0.62122 0.99552 0.7023 0.0
H4129 H 0.64515 1.00017 0.68792 0.0
H4130 H 0.59388 0.98739 0.67818 0.0
H4131 H 0.63111 0.02809 0.72633 0.0
H4132 H 0.6532 0.05325 0.73405 0.0
H4133 H 0.63119 0.07426 0.70146 0.0
H4134 H 0.60904 0.04919 0.69327 0.0
H4135 H 0.54626 0.97858 0.76597 0.0
H4136 H 0.56387 0.98097 0.73767 0.0
H4137 H 0.56419 0.02062 0.71292 0.0
H4138 H 0.54688 0.01853 0.7421 0.0
H4139 H 0.59105 0.02729 0.72288 0.0
H4140 H 0.55239 0.9872 0.67924 0.0
H4141 H 0.53013 0.96227 0.67101 0.0
H4142 H 0.55395 0.94023 0.69326 0.0
H4143 H 0.57629 0.96502 0.70194 0.0
C4144 C 0.64141 0.02659 0.65868 0.0
C4145 C 0.64791 0.01813 0.66611 0.0
C4146 C 0.6278 0.02395 0.66694 0.0
C4147 C 0.62038 0.01274 0.6827 0.0
C4148 C 0.62676 0.00419 0.69006 0.0
C4149 C 0.64048 0.00694 0.68197 0.0
C4150 C 0.60612 0.01018 0.69188 0.0
C4151 C 0.59321 0.99603 0.6881 0.0
C4152 C 0.6052 0.02169 0.70401 0.0
C4153 C 0.6185 0.03676 0.70895 0.0
C4154 C 0.63104 0.03807 0.72062 0.0
C4155 C 0.64356 0.05231 0.72512 0.0
C4156 C 0.64362 0.06535 0.71818 0.0
C4157 C 0.63114 0.06416 0.70678 0.0
C4158 C 0.6186 0.04993 0.70222 0.0
C4159 C 0.54968 0.98749 0.75395 0.0
C4160 C 0.54533 0.99844 0.75628 0.0
C4161 C 0.55972 0.98882 0.73766 0.0
C4162 C 0.56543 0.001 0.72307 0.0
C4163 C 0.55999 0.01115 0.72402 0.0
C4164 C 0.54997 0.00987 0.74051 0.0
C4165 C 0.57865 0.00432 0.70961 0.0
C4166 C 0.59149 0.01865 0.7126 0.0
C4167 C 0.57943 0.99299 0.69659 0.0
C4168 C 0.56602 0.97801 0.69136 0.0
C4169 C 0.55286 0.97704 0.68253 0.0
C4170 C 0.54023 0.96293 0.67776 0.0
C4171 C 0.54062 0.94967 0.68164 0.0
C4172 C 0.55366 0.95051 0.69026 0.0
C4173 C 0.56633 0.9646 0.69507 0.0
H4174 H 0.53083 0.93876 0.67794 0.0
H4175 H 0.65332 0.07636 0.72169 0.0
loop_
_geom_bond_atom_site_label_1
_geom_bond_atom_site_label_2
_geom_bond_distance
_geom_bond_site_symmetry_2
_ccdc_geom_bond_type
Mg0 O1 2.028 1_556 S
Mg0 O7 1.991 1_455 S
Mg0 O9 2.114 . S
Mg0 O10 2.251 1_455 S
Mg0 O13 2.010 1_556 S
O1 Mg0 2.028 1_554 S
O1 C4 1.250 1_455 S
O2 Mg3 2.028 1_554 S
O2 C4 1.248 . S
Mg3 O2 2.028 1_556 S
Mg3 O8 2.032 . S
Mg3 O10 2.079 . S
C4 O1 1.250 1_655 S
C4 O2 1.248 . S
C5 O6 1.256 1_554 S
C5 O13 1.249 . S
O6 C5 1.256 1_556 S
O7 Mg0 1.991 1_655 S
O7 C11 1.254 . S
O8 Mg3 2.032 . S
O8 C11 1.259 . S
O9 Mg0 2.114 . S
O9 C12 1.252 . S
O10 Mg0 2.251 1_655 S
O10 Mg3 2.079 . S
O10 C12 1.273 1_655 S
C11 O7 1.254 . S
C11 O8 1.259 . S
C12 O9 1.252 . S
C12 O10 1.273 1_455 S
O13 Mg0 2.010 1_554 S
O13 C5 1.249 . S
Mg14 O15 2.028 1_554 S
Mg14 O21 1.986 . S
Mg14 O23 2.114 . S
Mg14 O24 2.251 . S
Mg14 O27 2.010 . S
O15 Mg14 2.028 1_556 S
O15 C18 1.250 . S
O16 Mg17 2.028 1_556 S
O16 C18 1.248 . S
Mg17 O16 2.028 1_554 S
Mg17 O22 2.032 . S
Mg17 O24 2.079 . S
C18 O15 1.250 . S
C18 O16 1.248 . S
C19 O20 1.264 . S
C19 O27 1.249 . S
O20 C19 1.264 . S
O21 Mg14 1.986 . S
O21 C25 1.246 . S
O22 Mg17 2.032 . S
O22 C25 1.259 . S
O23 Mg14 2.114 . S
O23 C26 1.252 . S
O24 Mg14 2.251 . S
O24 Mg17 2.079 . S
O24 C26 1.273 . S
C25 O21 1.246 . S
C25 O22 1.259 . S
C26 O23 1.252 . S
C26 O24 1.273 . S
O27 Mg14 2.010 . S
O27 C19 1.249 . S
Mg28 O29 2.023 1_556 S
Mg28 O35 1.984 1_566 S
Mg28 O37 2.114 . S
Mg28 O38 2.251 1_565 S
Mg28 O41 2.010 1_556 S
O29 Mg28 2.023 1_554 S
O29 C32 1.244 1_565 S
O30 Mg31 2.028 1_554 S
O30 C32 1.248 . S
Mg31 O30 2.028 1_556 S
Mg31 O36 2.032 . S
Mg31 O38 2.079 . S
C32 O29 1.244 1_545 S
C32 O30 1.248 . S
C33 O34 1.264 1_554 S
C33 O41 1.249 . S
O34 C33 1.264 1_556 S
O35 Mg28 1.984 1_544 S
O35 C39 1.242 1_554 S
O36 Mg31 2.032 . S
O36 C39 1.259 . S
O37 Mg28 2.114 . S
O37 C40 1.252 . S
O38 Mg28 2.251 1_545 S
O38 Mg31 2.079 . S
O38 C40 1.273 1_545 S
C39 O35 1.242 1_556 S
C39 O36 1.259 . S
C40 O37 1.252 . S
C40 O38 1.273 1_565 S
O41 Mg28 2.010 1_554 S
O41 C33 1.249 . S
Mg42 O43 2.056 1_554 S
Mg42 O49 1.986 1_655 S
Mg42 O51 2.114 . S
Mg42 O52 2.251 1_655 S
Mg42 O55 2.010 . S
O43 Mg42 2.056 1_556 S
O43 C46 1.179 1_655 S
O44 Mg45 2.028 1_556 S
O44 C46 1.248 . S
Mg45 O44 2.028 1_554 S
Mg45 O50 2.032 . S
Mg45 O52 2.079 . S
C46 O43 1.179 1_455 S
C46 O44 1.248 . S
C47 O48 1.264 . S
C47 O55 1.249 . S
O48 C47 1.264 . S
O49 Mg42 1.986 1_455 S
O49 C53 1.246 . S
O50 Mg45 2.032 . S
O50 C53 1.259 . S
O51 Mg42 2.114 . S
O51 C54 1.252 . S
O52 Mg42 2.251 1_455 S
O52 Mg45 2.079 . S
O52 C54 1.273 1_455 S
C53 O49 1.246 . S
C53 O50 1.259 . S
C54 O51 1.252 . S
C54 O52 1.273 1_655 S
O55 Mg42 2.010 . S
O55 C47 1.249 . S
Mg56 O57 2.028 1_556 S
Mg56 O63 1.984 1_556 S
Mg56 O65 2.114 . S
Mg56 O66 2.251 . S
Mg56 O69 2.010 1_556 S
O57 Mg56 2.028 1_554 S
O57 C60 1.250 . S
O58 Mg59 2.028 1_554 S
O58 C60 1.248 . S
Mg59 O58 2.028 1_556 S
Mg59 O64 2.032 . S
Mg59 O66 2.079 . S
C60 O57 1.250 . S
C60 O58 1.248 . S
C61 O62 1.264 . S
C61 O69 1.249 . S
O62 C61 1.264 . S
O63 Mg56 1.984 1_554 S
O63 C67 1.241 1_554 S
O64 Mg59 2.032 . S
O64 C67 1.259 . S
O65 Mg56 2.114 . S
O65 C68 1.252 . S
O66 Mg56 2.251 . S
O66 Mg59 2.079 . S
O66 C68 1.273 . S
C67 O63 1.241 1_556 S
C67 O64 1.259 . S
C68 O65 1.252 . S
C68 O66 1.273 . S
O69 Mg56 2.010 1_554 S
O69 C61 1.249 . S
Mg70 O71 2.028 1_554 S
Mg70 O77 1.986 1_545 S
Mg70 O79 2.114 . S
Mg70 O80 2.251 1_545 S
Mg70 O83 2.010 . S
O71 Mg70 2.028 1_556 S
O71 C74 1.250 1_545 S
O72 Mg73 1.992 1_556 S
O72 C74 1.270 . S
Mg73 O72 1.992 1_554 S
Mg73 O78 2.032 . S
Mg73 O80 2.079 . S
C74 O71 1.250 1_565 S
C74 O72 1.270 . S
C75 O76 1.264 . S
C75 O83 1.249 . S
O76 C75 1.264 . S
O77 Mg70 1.986 1_565 S
O77 C81 1.246 . S
O78 Mg73 2.032 . S
O78 C81 1.259 . S
O79 Mg70 2.114 . S
O79 C82 1.252 . S
O80 Mg70 2.251 1_565 S
O80 Mg73 2.079 . S
O80 C82 1.273 1_565 S
C81 O77 1.246 . S
C81 O78 1.259 . S
C82 O79 1.252 . S
C82 O80 1.273 1_545 S
O83 Mg70 2.010 . S
O83 C75 1.249 . S
Mg84 O85 2.028 . S
Mg84 O91 1.986 . S
Mg84 O93 2.114 . S
Mg84 O94 2.251 . S
Mg84 O97 2.010 . S
O85 Mg84 2.028 . S
O85 C88 1.250 . S
O86 Mg87 2.028 . S
O86 C88 1.248 . S
Mg87 O86 2.028 . S
Mg87 O92 2.032 . S
Mg87 O94 2.079 . S
C88 O85 1.250 . S
C88 O86 1.248 . S
C89 O90 1.264 . S
C89 O97 1.249 . S
O90 C89 1.264 . S
O91 Mg84 1.986 . S
O91 C95 1.246 . S
O92 Mg87 2.032 . S
O92 C95 1.259 . S
O93 Mg84 2.114 . S
O93 C96 1.252 . S
O94 Mg84 2.251 . S
O94 Mg87 2.079 . S
O94 C96 1.273 . S
C95 O91 1.246 . S
C95 O92 1.259 . S
C96 O93 1.252 . S
C96 O94 1.273 . S
O97 Mg84 2.010 . S
O97 C89 1.249 . S
Mg98 O99 2.028 . S
Mg98 O105 1.986 1_565 S
Mg98 O107 2.114 . S
Mg98 O108 2.251 . S
Mg98 O111 2.010 . S
O99 Mg98 2.028 . S
O99 C102 1.250 . S
O100 Mg101 2.028 . S
O100 C102 1.248 . S
Mg101 O100 2.028 . S
Mg101 O106 2.032 1_565 S
Mg101 O108 2.079 . S
C102 O99 1.250 . S
C102 O100 1.248 . S
C103 O104 1.264 . S
C103 O111 1.249 . S
O104 C103 1.264 . S
O105 Mg98 1.986 1_545 S
O105 C109 1.246 . S
O106 Mg101 2.032 1_545 S
O106 C109 1.259 . S
O107 Mg98 2.114 . S
O107 C110 1.252 . S
O108 Mg98 2.251 . S
O108 Mg101 2.079 . S
O108 C110 1.273 . S
C109 O105 1.246 . S
C109 O106 1.259 . S
C110 O107 1.252 . S
C110 O108 1.273 . S
O111 Mg98 2.010 . S
O111 C103 1.249 . S
Mg112 O113 2.028 . S
Mg112 O119 1.986 . S
Mg112 O121 2.114 . S
Mg112 O122 2.251 . S
Mg112 O125 2.010 1_455 S
O113 Mg112 2.028 . S
O113 C116 1.250 . S
O114 Mg115 2.028 . S
O114 C116 1.248 . S
Mg115 O114 2.028 . S
Mg115 O120 2.032 . S
Mg115 O122 2.079 . S
C116 O113 1.250 . S
C116 O114 1.248 . S
C117 O118 1.264 . S
C117 O125 1.249 . S
O118 C117 1.264 . S
O119 Mg112 1.986 . S
O119 C123 1.246 . S
O120 Mg115 2.032 . S
O120 C123 1.259 . S
O121 Mg112 2.114 . S
O121 C124 1.252 . S
O122 Mg112 2.251 . S
O122 Mg115 2.079 . S
O122 C124 1.273 . S
C123 O119 1.246 . S
C123 O120 1.259 . S
C124 O121 1.252 . S
C124 O122 1.273 . S
O125 Mg112 2.010 1_655 S
O125 C117 1.249 . S
Mg126 O127 2.028 . S
Mg126 O133 1.986 1_565 S
Mg126 O135 2.114 . S
Mg126 O136 2.251 . S
Mg126 O139 2.010 . S
O127 Mg126 2.028 . S
O127 C130 1.250 . S
O128 Mg129 2.028 . S
O128 C130 1.248 . S
Mg129 O128 2.028 . S
Mg129 O134 2.021 1_565 S
Mg129 O136 2.079 . S
C130 O127 1.250 . S
C130 O128 1.248 . S
C131 O132 1.264 . S
C131 O139 1.249 . S
O132 C131 1.264 . S
O133 Mg126 1.986 1_545 S
O133 C137 1.246 . S
O134 Mg129 2.021 1_545 S
O134 C137 1.270 . S
O135 Mg126 2.114 . S
O135 C138 1.252 . S
O136 Mg126 2.251 . S
O136 Mg129 2.079 . S
O136 C138 1.273 . S
C137 O133 1.246 . S
C137 O134 1.270 . S
C138 O135 1.252 . S
C138 O136 1.273 . S
O139 Mg126 2.010 . S
O139 C131 1.249 . S
Mg140 O141 2.028 . S
Mg140 O147 1.986 . S
Mg140 O149 2.114 . S
Mg140 O150 2.251 . S
Mg140 O153 2.010 1_455 S
O141 Mg140 2.028 . S
O141 C144 1.250 . S
O142 Mg143 2.028 . S
O142 C144 1.248 . S
Mg143 O142 2.028 . S
Mg143 O148 2.032 . S
Mg143 O150 2.079 . S
C144 O141 1.250 . S
C144 O142 1.248 . S
C145 O146 1.264 . S
C145 O153 1.249 . S
O146 C145 1.264 . S
O147 Mg140 1.986 . S
O147 C151 1.246 . S
O148 Mg143 2.032 . S
O148 C151 1.259 . S
O149 Mg140 2.114 . S
O149 C152 1.252 . S
O150 Mg140 2.251 . S
O150 Mg143 2.079 . S
O150 C152 1.273 . S
C151 O147 1.246 . S
C151 O148 1.259 . S
C152 O149 1.252 . S
C152 O150 1.273 . S
O153 Mg140 2.010 1_655 S
O153 C145 1.249 . S
Mg154 O155 2.028 . S
Mg154 O161 1.986 . S
Mg154 O163 2.114 . S
Mg154 O164 2.251 . S
Mg154 O167 2.010 . S
O155 Mg154 2.028 . S
O155 C158 1.250 . S
O156 Mg157 2.028 . S
O156 C158 1.248 . S
Mg157 O156 2.028 . S
Mg157 O162 2.032 . S
Mg157 O164 2.079 . S
C158 O155 1.250 . S
C158 O156 1.248 . S
C159 O160 1.264 . S
C159 O167 1.249 . S
O160 C159 1.264 . S
O161 Mg154 1.986 . S
O161 C165 1.246 . S
O162 Mg157 2.032 . S
O162 C165 1.259 . S
O163 Mg154 2.114 . S
O163 C166 1.252 . S
O164 Mg154 2.251 . S
O164 Mg157 2.079 . S
O164 C166 1.273 . S
C165 O161 1.246 . S
C165 O162 1.259 . S
C166 O163 1.252 . S
C166 O164 1.273 . S
O167 Mg154 2.010 . S
O167 C159 1.249 . S
Mg168 O169 2.028 . S
Mg168 O175 1.962 1_545 S
Mg168 O177 2.114 . S
Mg168 O178 2.251 . S
Mg168 O181 2.010 . S
O169 Mg168 2.028 . S
O169 C172 1.250 . S
O170 Mg171 2.028 . S
O170 C172 1.248 . S
Mg171 O170 2.028 . S
Mg171 O176 2.032 . S
Mg171 O178 2.079 . S
C172 O169 1.250 . S
C172 O170 1.248 . S
C173 O174 1.264 . S
C173 O181 1.249 . S
O174 C173 1.264 . S
O175 Mg168 1.962 1_565 S
O175 C179 1.241 . S
O176 Mg171 2.032 . S
O176 C179 1.259 1_545 S
O177 Mg168 2.114 . S
O177 C180 1.252 . S
O178 Mg168 2.251 . S
O178 Mg171 2.079 . S
O178 C180 1.273 . S
C179 O175 1.241 . S
C179 O176 1.259 1_565 S
C180 O177 1.252 . S
C180 O178 1.273 . S
O181 Mg168 2.010 . S
O181 C173 1.249 . S
Mg182 O183 2.028 . S
Mg182 O189 1.986 . S
Mg182 O191 2.114 . S
Mg182 O192 2.251 . S
Mg182 O195 2.010 1_655 S
O183 Mg182 2.028 . S
O183 C186 1.250 . S
O184 Mg185 2.028 . S
O184 C186 1.248 . S
Mg185 O184 2.028 . S
Mg185 O190 2.032 . S
Mg185 O192 2.079 . S
C186 O183 1.250 . S
C186 O184 1.248 . S
C187 O188 1.264 . S
C187 O195 1.249 . S
O188 C187 1.264 . S
O189 Mg182 1.986 . S
O189 C193 1.246 . S
O190 Mg185 2.032 . S
O190 C193 1.259 . S
O191 Mg182 2.114 . S
O191 C194 1.252 . S
O192 Mg182 2.251 . S
O192 Mg185 2.079 . S
O192 C194 1.273 . S
C193 O189 1.246 . S
C193 O190 1.259 . S
C194 O191 1.252 . S
C194 O192 1.273 . S
O195 Mg182 2.010 1_455 S
O195 C187 1.249 . S
Mg196 O197 2.028 . S
Mg196 O203 1.986 . S
Mg196 O205 2.114 . S
Mg196 O206 2.251 . S
Mg196 O209 2.010 . S
O197 Mg196 2.028 . S
O197 C200 1.250 . S
O198 Mg199 2.028 . S
O198 C200 1.248 . S
Mg199 O198 2.028 . S
Mg199 O204 2.032 . S
Mg199 O206 2.079 . S
C200 O197 1.250 . S
C200 O198 1.248 . S
C201 O202 1.264 . S
C201 O209 1.249 . S
O202 C201 1.264 . S
O203 Mg196 1.986 . S
O203 C207 1.246 . S
O204 Mg199 2.032 . S
O204 C207 1.259 . S
O205 Mg196 2.114 . S
O205 C208 1.252 . S
O206 Mg196 2.251 . S
O206 Mg199 2.079 . S
O206 C208 1.273 . S
C207 O203 1.246 . S
C207 O204 1.259 . S
C208 O205 1.252 . S
C208 O206 1.273 . S
O209 Mg196 2.010 . S
O209 C201 1.249 . S
Mg210 O211 2.028 . S
Mg210 O217 1.986 . S
Mg210 O219 2.114 . S
Mg210 O220 2.251 . S
Mg210 O223 2.010 . S
O211 Mg210 2.028 . S
O211 C214 1.250 . S
O212 Mg213 2.028 . S
O212 C214 1.248 . S
Mg213 O212 2.028 . S
Mg213 O218 2.032 . S
Mg213 O220 2.079 . S
C214 O211 1.250 . S
C214 O212 1.248 . S
C215 O216 1.264 . S
C215 O223 1.249 . S
O216 C215 1.264 . S
O217 Mg210 1.986 . S
O217 C221 1.246 . S
O218 Mg213 2.032 . S
O218 C221 1.259 . S
O219 Mg210 2.114 . S
O219 C222 1.252 . S
O220 Mg210 2.251 . S
O220 Mg213 2.079 . S
O220 C222 1.273 . S
C221 O217 1.246 . S
C221 O218 1.259 . S
C222 O219 1.252 . S
C222 O220 1.273 . S
O223 Mg210 2.010 . S
O223 C215 1.249 . S
Mg224 O225 2.028 . S
Mg224 O231 1.986 1_545 S
Mg224 O233 2.114 . S
Mg224 O234 2.251 . S
Mg224 O237 2.010 . S
O225 Mg224 2.028 . S
O225 C228 1.250 . S
O226 Mg227 2.028 . S
O226 C228 1.248 . S
Mg227 O226 2.028 . S
Mg227 O232 2.030 1_545 S
Mg227 O234 2.079 . S
C228 O225 1.250 . S
C228 O226 1.248 . S
C229 O230 1.264 . S
C229 O237 1.249 . S
O230 C229 1.264 . S
O231 Mg224 1.986 1_565 S
O231 C235 1.246 . S
O232 Mg227 2.030 1_565 S
O232 C235 1.260 . S
O233 Mg224 2.114 . S
O233 C236 1.252 . S
O234 Mg224 2.251 . S
O234 Mg227 2.079 . S
O234 C236 1.273 . S
C235 O231 1.246 . S
C235 O232 1.260 . S
C236 O233 1.252 . S
C236 O234 1.273 . S
O237 Mg224 2.010 . S
O237 C229 1.249 . S
Mg238 O239 2.028 . S
Mg238 O245 1.986 . S
Mg238 O247 2.114 . S
Mg238 O248 2.251 . S
Mg238 O251 2.010 1_655 S
O239 Mg238 2.028 . S
O239 C242 1.250 . S
O240 Mg241 2.028 . S
O240 C242 1.248 . S
Mg241 O240 2.028 . S
Mg241 O246 2.032 . S
Mg241 O248 2.079 . S
C242 O239 1.250 . S
C242 O240 1.248 . S
C243 O244 1.264 . S
C243 O251 1.249 . S
O244 C243 1.264 . S
O245 Mg238 1.986 . S
O245 C249 1.246 . S
O246 Mg241 2.032 . S
O246 C249 1.259 . S
O247 Mg238 2.114 . S
O247 C250 1.252 . S
O248 Mg238 2.251 . S
O248 Mg241 2.079 . S
O248 C250 1.273 . S
C249 O245 1.246 . S
C249 O246 1.259 . S
C250 O247 1.252 . S
C250 O248 1.273 . S
O251 Mg238 2.010 1_455 S
O251 C243 1.249 . S
H252 C258 0.930 . S
H253 C261 0.931 . S
H254 C263 0.931 . S
H255 C265 0.930 . S
H256 C267 0.930 . S
H257 C269 0.931 . S
C258 H252 0.930 . S
C258 C259 1.380 . S
C258 C260 1.394 . S
C259 C258 1.380 . S
C259 C263 1.382 . S
C260 C258 1.394 . S
C260 C261 1.400 . S
C261 H253 0.931 . S
C261 C260 1.400 . S
C261 C262 1.375 . S
C262 C261 1.375 . S
C262 C263 1.415 . S
C262 C264 1.501 . S
C263 H254 0.931 . S
C263 C259 1.382 . S
C263 C262 1.415 . S
C264 C262 1.501 . S
C264 C265 1.384 . S
C264 C269 1.408 . S
C265 H255 0.930 . S
C265 C264 1.384 . S
C265 C266 1.389 . S
C266 C265 1.389 . S
C266 C267 1.405 . S
C267 H256 0.930 . S
C267 C266 1.405 . S
C267 C268 1.364 . S
C268 C267 1.364 . S
C268 C269 1.400 . S
C269 H257 0.931 . S
C269 C264 1.408 . S
C269 C268 1.400 . S
H270 C276 0.930 . S
H271 C279 0.931 . S
H272 C281 0.931 . S
H273 C283 0.930 . S
H274 C285 0.930 . S
H275 C287 0.931 . S
C276 H270 0.930 . S
C276 C277 1.380 . S
C276 C278 1.394 . S
C277 C276 1.380 . S
C277 C281 1.382 . S
C278 C276 1.394 . S
C278 C279 1.400 . S
C279 H271 0.931 . S
C279 C278 1.400 . S
C279 C280 1.375 . S
C280 C279 1.375 . S
C280 C281 1.415 . S
C280 C282 1.501 . S
C281 H272 0.931 . S
C281 C277 1.382 . S
C281 C280 1.415 . S
C282 C280 1.501 . S
C282 C283 1.384 . S
C282 C287 1.408 . S
C283 H273 0.930 . S
C283 C282 1.384 . S
C283 C284 1.389 . S
C284 C283 1.389 . S
C284 C285 1.405 . S
C285 H274 0.930 . S
C285 C284 1.405 . S
C285 C286 1.364 . S
C286 C285 1.364 . S
C286 C287 1.400 . S
C287 H275 0.931 . S
C287 C282 1.408 . S
C287 C286 1.400 . S
H288 C294 0.930 . S
H289 C297 0.931 . S
H290 C299 0.931 . S
H291 C301 0.930 . S
H292 C303 0.930 . S
H293 C305 0.931 . S
C294 H288 0.930 . S
C294 C295 1.380 . S
C294 C296 1.394 . S
C295 C294 1.380 . S
C295 C299 1.382 . S
C296 C294 1.394 . S
C296 C297 1.400 . S
C297 H289 0.931 . S
C297 C296 1.400 . S
C297 C298 1.375 . S
C298 C297 1.375 . S
C298 C299 1.415 . S
C298 C300 1.501 . S
C299 H290 0.931 . S
C299 C295 1.382 . S
C299 C298 1.415 . S
C300 C298 1.501 . S
C300 C301 1.384 . S
C300 C305 1.408 . S
C301 H291 0.930 . S
C301 C300 1.384 . S
C301 C302 1.389 . S
C302 C301 1.389 . S
C302 C303 1.405 . S
C303 H292 0.930 . S
C303 C302 1.405 . S
C303 C304 1.364 . S
C304 C303 1.364 . S
C304 C305 1.400 . S
C305 H293 0.931 . S
C305 C300 1.408 . S
C305 C304 1.400 . S
H306 C312 0.930 . S
H307 C315 0.931 . S
H308 C317 0.931 . S
H309 C319 0.930 . S
H310 C321 0.930 . S
H311 C323 0.931 . S
C312 H306 0.930 . S
C312 C313 1.380 . S
C312 C314 1.394 . S
C313 C312 1.380 . S
C313 C317 1.382 . S
C314 C312 1.394 . S
C314 C315 1.400 . S
C315 H307 0.931 . S
C315 C314 1.400 . S
C315 C316 1.375 . S
C316 C315 1.375 . S
C316 C317 1.415 . S
C316 C318 1.501 . S
C317 H308 0.931 . S
C317 C313 1.382 . S
C317 C316 1.415 . S
C318 C316 1.501 . S
C318 C319 1.384 . S
C318 C323 1.408 . S
C319 H309 0.930 . S
C319 C318 1.384 . S
C319 C320 1.389 . S
C320 C319 1.389 . S
C320 C321 1.405 . S
C321 H310 0.930 . S
C321 C320 1.405 . S
C321 C322 1.364 . S
C322 C321 1.364 . S
C322 C323 1.400 . S
C323 H311 0.931 . S
C323 C318 1.408 . S
C323 C322 1.400 . S
H324 C330 0.930 . S
H325 C333 0.931 . S
H326 C335 0.931 . S
H327 C337 0.930 . S
H328 C339 0.930 . S
H329 C341 0.931 . S
C330 H324 0.930 . S
C330 C331 1.380 . S
C330 C332 1.394 . S
C331 C330 1.380 . S
C331 C335 1.382 . S
C332 C330 1.394 . S
C332 C333 1.400 . S
C333 H325 0.931 . S
C333 C332 1.400 . S
C333 C334 1.375 . S
C334 C333 1.375 . S
C334 C335 1.415 . S
C334 C336 1.501 . S
C335 H326 0.931 . S
C335 C331 1.382 . S
C335 C334 1.415 . S
C336 C334 1.501 . S
C336 C337 1.384 . S
C336 C341 1.408 . S
C337 H327 0.930 . S
C337 C336 1.384 . S
C337 C338 1.389 . S
C338 C337 1.389 . S
C338 C339 1.405 . S
C339 H328 0.930 . S
C339 C338 1.405 . S
C339 C340 1.364 . S
C340 C339 1.364 . S
C340 C341 1.400 . S
C341 H329 0.931 . S
C341 C336 1.408 . S
C341 C340 1.400 . S
H342 C348 0.930 . S
H343 C351 0.931 . S
H344 C353 0.931 . S
H345 C355 0.930 . S
H346 C357 0.930 . S
H347 C359 0.931 . S
C348 H342 0.930 . S
C348 C349 1.380 . S
C348 C350 1.394 . S
C349 C348 1.380 . S
C349 C353 1.382 . S
C350 C348 1.394 . S
C350 C351 1.400 . S
C351 H343 0.931 . S
C351 C350 1.400 . S
C351 C352 1.375 . S
C352 C351 1.375 . S
C352 C353 1.415 . S
C352 C354 1.501 . S
C353 H344 0.931 . S
C353 C349 1.382 . S
C353 C352 1.415 . S
C354 C352 1.501 . S
C354 C355 1.384 . S
C354 C359 1.408 . S
C355 H345 0.930 . S
C355 C354 1.384 . S
C355 C356 1.389 . S
C356 C355 1.389 . S
C356 C357 1.405 . S
C357 H346 0.930 . S
C357 C356 1.405 . S
C357 C358 1.364 . S
C358 C357 1.364 . S
C358 C359 1.400 . S
C359 H347 0.931 . S
C359 C354 1.408 . S
C359 C358 1.400 . S
H360 C366 0.930 . S
H361 C369 0.931 . S
H362 C371 0.931 . S
H363 C373 0.930 . S
H364 C375 0.930 . S
H365 C377 0.931 . S
C366 H360 0.930 . S
C366 C367 1.380 . S
C366 C368 1.394 . S
C367 C366 1.380 . S
C367 C371 1.382 . S
C368 C366 1.394 . S
C368 C369 1.400 . S
C369 H361 0.931 . S
C369 C368 1.400 . S
C369 C370 1.375 . S
C370 C369 1.375 . S
C370 C371 1.415 . S
C370 C372 1.501 . S
C371 H362 0.931 . S
C371 C367 1.382 . S
C371 C370 1.415 . S
C372 C370 1.501 . S
C372 C373 1.384 . S
C372 C377 1.408 . S
C373 H363 0.930 . S
C373 C372 1.384 . S
C373 C374 1.389 . S
C374 C373 1.389 . S
C374 C375 1.405 . S
C375 H364 0.930 . S
C375 C374 1.405 . S
C375 C376 1.364 . S
C376 C375 1.364 . S
C376 C377 1.400 . S
C377 H365 0.931 . S
C377 C372 1.408 . S
C377 C376 1.400 . S
H378 C384 0.930 . S
H379 C387 0.931 . S
H380 C389 0.931 . S
H381 C391 0.930 . S
H382 C393 0.930 . S
H383 C395 0.931 . S
C384 H378 0.930 . S
C384 C385 1.380 . S
C384 C386 1.394 . S
C385 C384 1.380 . S
C385 C389 1.382 . S
C386 C384 1.394 . S
C386 C387 1.400 . S
C387 H379 0.931 . S
C387 C386 1.400 . S
C387 C388 1.375 . S
C388 C387 1.375 . S
C388 C389 1.415 . S
C388 C390 1.501 . S
C389 H380 0.931 . S
C389 C385 1.382 . S
C389 C388 1.415 . S
C390 C388 1.501 . S
C390 C391 1.384 . S
C390 C395 1.408 . S
C391 H381 0.930 . S
C391 C390 1.384 . S
C391 C392 1.389 . S
C392 C391 1.389 . S
C392 C393 1.405 . S
C393 H382 0.930 . S
C393 C392 1.405 . S
C393 C394 1.364 . S
C394 C393 1.364 . S
C394 C395 1.400 . S
C395 H383 0.931 . S
C395 C390 1.408 . S
C395 C394 1.400 . S
H396 C402 0.930 . S
H397 C405 0.931 . S
H398 C407 0.931 . S
H399 C409 0.930 . S
H400 C411 0.930 . S
H401 C413 0.931 . S
C402 H396 0.930 . S
C402 C403 1.380 . S
C402 C404 1.394 . S
C403 C402 1.380 . S
C403 C407 1.382 . S
C404 C402 1.394 . S
C404 C405 1.400 . S
C405 H397 0.931 . S
C405 C404 1.400 . S
C405 C406 1.375 . S
C406 C405 1.375 . S
C406 C407 1.415 . S
C406 C408 1.501 . S
C407 H398 0.931 . S
C407 C403 1.382 . S
C407 C406 1.415 . S
C408 C406 1.501 . S
C408 C409 1.384 . S
C408 C413 1.408 . S
C409 H399 0.930 . S
C409 C408 1.384 . S
C409 C410 1.389 . S
C410 C409 1.389 . S
C410 C411 1.405 . S
C411 H400 0.930 . S
C411 C410 1.405 . S
C411 C412 1.364 . S
C412 C411 1.364 . S
C412 C413 1.400 . S
C413 H401 0.931 . S
C413 C408 1.408 . S
C413 C412 1.400 . S
H414 C420 0.966 . S
H415 C423 0.931 . S
H416 C425 0.931 . S
H417 C427 0.930 . S
H418 C429 0.894 . S
H419 C431 0.937 1_655 S
C420 H414 0.966 . S
C420 C421 1.381 . S
C420 C422 1.394 1_655 S
C421 C420 1.381 . S
C421 C425 1.382 . S
C422 C420 1.394 1_455 S
C422 C423 1.400 . S
C423 H415 0.931 . S
C423 C422 1.400 . S
C423 C424 1.375 . S
C424 C423 1.375 . S
C424 C425 1.415 1_455 S
C424 C426 1.501 . S
C425 H416 0.931 . S
C425 C421 1.382 . S
C425 C424 1.415 1_655 S
C426 C424 1.501 . S
C426 C427 1.384 . S
C426 C431 1.419 . S
C427 H417 0.930 . S
C427 C426 1.384 . S
C427 C428 1.389 . S
C428 C427 1.389 . S
C428 C429 1.430 . S
C429 H418 0.894 . S
C429 C428 1.430 . S
C429 C430 1.379 . S
C430 C429 1.379 . S
C430 C431 1.391 . S
C431 H419 0.937 1_455 S
C431 C426 1.419 . S
C431 C430 1.391 . S
H432 C438 0.930 . S
H433 C441 0.931 . S
H434 C443 0.931 . S
H435 C445 0.930 . S
H436 C447 0.930 . S
H437 C449 0.931 . S
C438 H432 0.930 . S
C438 C439 1.380 . S
C438 C440 1.394 . S
C439 C438 1.380 . S
C439 C443 1.382 . S
C440 C438 1.394 . S
C440 C441 1.400 . S
C441 H433 0.931 . S
C441 C440 1.400 . S
C441 C442 1.375 . S
C442 C441 1.375 . S
C442 C443 1.415 . S
C442 C444 1.501 . S
C443 H434 0.931 . S
C443 C439 1.382 . S
C443 C442 1.415 . S
C444 C442 1.501 . S
C444 C445 1.384 . S
C444 C449 1.408 . S
C445 H435 0.930 . S
C445 C444 1.384 . S
C445 C446 1.389 . S
C446 C445 1.389 . S
C446 C447 1.405 . S
C447 H436 0.930 . S
C447 C446 1.405 . S
C447 C448 1.364 . S
C448 C447 1.364 . S
C448 C449 1.400 . S
C449 H437 0.931 . S
C449 C444 1.408 . S
C449 C448 1.400 . S
H450 C456 0.887 . S
H451 C459 0.931 . S
H452 C461 0.931 . S
H453 C463 0.930 . S
H454 C465 0.980 . S
H455 C467 0.920 . S
C456 H450 0.887 . S
C456 C457 1.379 . S
C456 C458 1.390 1_545 S
C457 C456 1.379 . S
C457 C461 1.382 . S
C458 C456 1.390 1_565 S
C458 C459 1.400 . S
C459 H451 0.931 . S
C459 C458 1.400 . S
C459 C460 1.375 . S
C460 C459 1.375 . S
C460 C461 1.415 1_565 S
C460 C462 1.501 . S
C461 H452 0.931 . S
C461 C457 1.382 . S
C461 C460 1.415 1_545 S
C462 C460 1.501 . S
C462 C463 1.384 . S
C462 C467 1.397 . S
C463 H453 0.930 . S
C463 C462 1.384 . S
C463 C464 1.351 . S
C464 C463 1.351 . S
C464 C465 1.404 . S
C465 H454 0.980 . S
C465 C464 1.404 . S
C465 C466 1.351 . S
C466 C465 1.351 . S
C466 C467 1.409 . S
C467 H455 0.920 . S
C467 C462 1.397 . S
C467 C466 1.409 . S
H468 C474 0.909 . S
H469 C477 0.931 . S
H470 C479 0.931 1_545 S
H471 C481 0.930 . S
H472 C483 0.894 . S
H473 C485 0.931 . S
C474 H468 0.909 . S
C474 C475 1.385 . S
C474 C476 1.414 1_545 S
C475 C474 1.385 . S
C475 C479 1.401 1_545 S
C476 C474 1.414 1_565 S
C476 C477 1.385 . S
C477 H469 0.931 . S
C477 C476 1.385 . S
C477 C478 1.375 . S
C478 C477 1.375 . S
C478 C479 1.413 . S
C478 C480 1.501 . S
C479 H470 0.931 1_565 S
C479 C475 1.401 1_565 S
C479 C478 1.413 . S
C480 C478 1.501 . S
C480 C481 1.384 . S
C480 C485 1.408 1_565 S
C481 H471 0.930 . S
C481 C480 1.384 . S
C481 C482 1.389 . S
C482 C481 1.389 . S
C482 C483 1.440 . S
C483 H472 0.894 . S
C483 C482 1.440 . S
C483 C484 1.374 1_565 S
C484 C483 1.374 1_545 S
C484 C485 1.400 . S
C485 H473 0.931 . S
C485 C480 1.408 1_545 S
C485 C484 1.400 . S
H486 C492 0.963 . S
H487 C495 0.931 . S
H488 C497 0.934 . S
H489 C499 0.930 . S
H490 C501 0.981 . S
H491 C503 0.931 . S
C492 H486 0.963 . S
C492 C493 1.373 . S
C492 C494 1.371 1_655 S
C493 C492 1.373 . S
C493 C497 1.361 1_655 S
C494 C492 1.371 1_455 S
C494 C495 1.413 . S
C495 H487 0.931 . S
C495 C494 1.413 . S
C495 C496 1.375 . S
C496 C495 1.375 . S
C496 C497 1.419 . S
C496 C498 1.501 . S
C497 H488 0.934 . S
C497 C493 1.361 1_455 S
C497 C496 1.419 . S
C498 C496 1.501 . S
C498 C499 1.384 . S
C498 C503 1.408 1_455 S
C499 H489 0.930 . S
C499 C498 1.384 . S
C499 C500 1.389 . S
C500 C499 1.389 . S
C500 C501 1.395 . S
C501 H490 0.981 . S
C501 C500 1.395 . S
C501 C502 1.331 1_455 S
C502 C501 1.331 1_655 S
C502 C503 1.400 . S
C503 H491 0.931 . S
C503 C498 1.408 1_655 S
C503 C502 1.400 . S
H504 C510 0.930 . S
H505 C513 0.931 . S
H506 C515 0.931 . S
H507 C517 0.930 . S
H508 C519 0.930 . S
H509 C521 0.931 . S
C510 H504 0.930 . S
C510 C511 1.380 . S
C510 C512 1.394 . S
C511 C510 1.380 . S
C511 C515 1.382 . S
C512 C510 1.394 . S
C512 C513 1.400 . S
C513 H505 0.931 . S
C513 C512 1.400 . S
C513 C514 1.375 . S
C514 C513 1.375 . S
C514 C515 1.415 . S
C514 C516 1.501 . S
C515 H506 0.931 . S
C515 C511 1.382 . S
C515 C514 1.415 . S
C516 C514 1.501 . S
C516 C517 1.384 . S
C516 C521 1.408 . S
C517 H507 0.930 . S
C517 C516 1.384 . S
C517 C518 1.389 . S
C518 C517 1.389 . S
C518 C519 1.405 . S
C519 H508 0.930 . S
C519 C518 1.405 . S
C519 C520 1.364 . S
C520 C519 1.364 . S
C520 C521 1.400 . S
C521 H509 0.931 . S
C521 C516 1.408 . S
C521 C520 1.400 . S
H522 C528 0.930 . S
H523 C531 0.931 . S
H524 C533 0.931 . S
H525 C535 0.930 . S
H526 C537 0.930 . S
H527 C539 0.931 . S
C528 H522 0.930 . S
C528 C529 1.380 . S
C528 C530 1.394 . S
C529 C528 1.380 . S
C529 C533 1.382 . S
C530 C528 1.394 . S
C530 C531 1.400 . S
C531 H523 0.931 . S
C531 C530 1.400 . S
C531 C532 1.375 . S
C532 C531 1.375 . S
C532 C533 1.415 . S
C532 C534 1.501 . S
C533 H524 0.931 . S
C533 C529 1.382 . S
C533 C532 1.415 . S
C534 C532 1.501 . S
C534 C535 1.384 . S
C534 C539 1.408 . S
C535 H525 0.930 . S
C535 C534 1.384 . S
C535 C536 1.389 . S
C536 C535 1.389 . S
C536 C537 1.405 . S
C537 H526 0.930 . S
C537 C536 1.405 . S
C537 C538 1.364 . S
C538 C537 1.364 . S
C538 C539 1.400 . S
C539 H527 0.931 . S
C539 C534 1.408 . S
C539 C538 1.400 . S
H540 C546 0.930 . S
H541 C549 0.931 . S
H542 C551 0.931 . S
H543 C553 0.930 . S
H544 C555 0.930 . S
H545 C557 0.931 . S
C546 H540 0.930 . S
C546 C547 1.380 . S
C546 C548 1.394 . S
C547 C546 1.380 . S
C547 C551 1.382 . S
C548 C546 1.394 . S
C548 C549 1.400 . S
C549 H541 0.931 . S
C549 C548 1.400 . S
C549 C550 1.375 . S
C550 C549 1.375 . S
C550 C551 1.415 . S
C550 C552 1.501 . S
C551 H542 0.931 . S
C551 C547 1.382 . S
C551 C550 1.415 . S
C552 C550 1.501 . S
C552 C553 1.384 . S
C552 C557 1.408 . S
C553 H543 0.930 . S
C553 C552 1.384 . S
C553 C554 1.389 . S
C554 C553 1.389 . S
C554 C555 1.405 . S
C555 H544 0.930 . S
C555 C554 1.405 . S
C555 C556 1.364 . S
C556 C555 1.364 . S
C556 C557 1.400 . S
C557 H545 0.931 . S
C557 C552 1.408 . S
C557 C556 1.400 . S
H558 C564 0.930 . S
H559 C567 0.931 . S
H560 C569 0.931 . S
H561 C571 0.930 . S
H562 C573 0.930 . S
H563 C575 0.931 . S
C564 H558 0.930 . S
C564 C565 1.380 . S
C564 C566 1.394 . S
C565 C564 1.380 . S
C565 C569 1.382 . S
C566 C564 1.394 . S
C566 C567 1.400 . S
C567 H559 0.931 . S
C567 C566 1.400 . S
C567 C568 1.375 . S
C568 C567 1.375 . S
C568 C569 1.415 . S
C568 C570 1.501 . S
C569 H560 0.931 . S
C569 C565 1.382 . S
C569 C568 1.415 . S
C570 C568 1.501 . S
C570 C571 1.384 . S
C570 C575 1.408 . S
C571 H561 0.930 . S
C571 C570 1.384 . S
C571 C572 1.389 . S
C572 C571 1.389 . S
C572 C573 1.405 . S
C573 H562 0.930 . S
C573 C572 1.405 . S
C573 C574 1.364 . S
C574 C573 1.364 . S
C574 C575 1.400 . S
C575 H563 0.931 . S
C575 C570 1.408 . S
C575 C574 1.400 . S
H576 C594 0.951 . S
H577 C596 0.951 . S
H578 C598 0.950 . S
H579 C599 0.950 . S
H580 C601 0.965 . S
H581 C604 0.950 . S
H582 C605 0.950 . S
H583 C607 0.950 . S
H584 C608 0.950 1_455 S
H585 C609 0.951 . S
H586 C611 0.951 . S
H587 C613 0.950 . S
H588 C614 0.950 . S
H589 C616 0.950 . S
H590 C619 0.950 . S
H591 C620 0.950 . S
H592 C622 0.950 . S
H593 C623 0.950 1_655 S
C594 H576 0.951 . S
C594 C595 1.366 1_455 S
C594 C596 1.388 . S
C595 C594 1.366 1_655 S
C595 C599 1.385 . S
C596 H577 0.951 . S
C596 C594 1.388 . S
C596 C597 1.366 1_455 S
C597 C596 1.366 1_655 S
C597 C598 1.414 . S
C597 C600 1.499 . S
C598 H578 0.950 . S
C598 C597 1.414 . S
C598 C599 1.374 . S
C599 H579 0.950 . S
C599 C595 1.385 . S
C599 C598 1.374 . S
C600 C597 1.499 . S
C600 C601 1.393 1_655 S
C600 C602 1.389 . S
C601 H580 0.965 . S
C601 C600 1.393 1_455 S
C601 C617 1.350 . S
C602 C600 1.389 . S
C602 C603 1.524 . S
C602 C616 1.377 . S
C603 C602 1.524 . S
C603 C604 1.397 . S
C603 C608 1.363 . S
C604 H581 0.950 . S
C604 C603 1.397 . S
C604 C605 1.334 . S
C605 H582 0.950 . S
C605 C604 1.334 . S
C605 C606 1.287 . S
C606 C605 1.287 . S
C606 C607 1.524 . S
C606 H625 0.913 . S
C607 H583 0.950 . S
C607 C606 1.524 . S
C607 C608 1.415 . S
C608 H584 0.950 1_655 S
C608 C603 1.363 . S
C608 C607 1.415 . S
C609 H585 0.951 . S
C609 C610 1.366 . S
C609 C611 1.388 . S
C610 C609 1.366 . S
C610 C614 1.385 1_655 S
C611 H586 0.951 . S
C611 C609 1.388 . S
C611 C612 1.366 . S
C612 C611 1.366 . S
C612 C613 1.414 1_655 S
C612 C615 1.499 . S
C613 H587 0.950 . S
C613 C612 1.414 1_455 S
C613 C614 1.374 . S
C614 H588 0.950 . S
C614 C610 1.385 1_455 S
C614 C613 1.374 . S
C615 C612 1.499 . S
C615 C616 1.373 . S
C615 C617 1.389 1_655 S
C616 H589 0.950 . S
C616 C602 1.377 . S
C616 C615 1.373 . S
C617 C601 1.350 . S
C617 C615 1.389 1_455 S
C617 C618 1.524 . S
C618 C617 1.524 . S
C618 C619 1.397 . S
C618 C623 1.363 . S
C619 H590 0.950 . S
C619 C618 1.397 . S
C619 C620 1.334 . S
C620 H591 0.950 . S
C620 C619 1.334 . S
C620 C621 1.287 . S
C621 C620 1.287 . S
C621 C622 1.524 . S
C621 H624 0.999 . S
C622 H592 0.950 . S
C622 C621 1.524 . S
C622 C623 1.415 . S
C623 H593 0.950 1_455 S
C623 C618 1.363 . S
C623 C622 1.415 . S
H624 C621 0.999 . S
H625 C606 0.913 . S
H626 C644 0.951 . S
H627 C646 0.951 . S
H628 C648 0.950 . S
H629 C649 0.950 . S
H630 C651 0.950 . S
H631 C654 0.950 . S
H632 C655 0.950 . S
H633 C657 0.950 . S
H634 C658 0.950 . S
H635 C659 0.951 . S
H636 C661 0.951 . S
H637 C663 0.950 . S
H638 C664 0.950 . S
H639 C666 0.950 . S
H640 C669 0.950 . S
H641 C670 0.950 . S
H642 C672 0.950 . S
H643 C673 0.950 . S
C644 H626 0.951 . S
C644 C645 1.366 . S
C644 C646 1.388 . S
C645 C644 1.366 . S
C645 C649 1.385 . S
C646 H627 0.951 . S
C646 C644 1.388 . S
C646 C647 1.366 . S
C647 C646 1.366 . S
C647 C648 1.414 . S
C647 C650 1.499 . S
C648 H628 0.950 . S
C648 C647 1.414 . S
C648 C649 1.374 . S
C649 H629 0.950 . S
C649 C645 1.385 . S
C649 C648 1.374 . S
C650 C647 1.499 . S
C650 C651 1.373 . S
C650 C652 1.389 . S
C651 H630 0.950 . S
C651 C650 1.373 . S
C651 C667 1.377 . S
C652 C650 1.389 . S
C652 C653 1.524 . S
C652 C666 1.377 . S
C653 C652 1.524 . S
C653 C654 1.397 . S
C653 C658 1.363 . S
C654 H631 0.950 . S
C654 C653 1.397 . S
C654 C655 1.334 . S
C655 H632 0.950 . S
C655 C654 1.334 . S
C655 C656 1.287 . S
C656 C655 1.287 . S
C656 C657 1.524 . S
C656 H675 0.913 . S
C657 H633 0.950 . S
C657 C656 1.524 . S
C657 C658 1.415 . S
C658 H634 0.950 . S
C658 C653 1.363 . S
C658 C657 1.415 . S
C659 H635 0.951 . S
C659 C660 1.366 . S
C659 C661 1.388 . S
C660 C659 1.366 . S
C660 C664 1.385 . S
C661 H636 0.951 . S
C661 C659 1.388 . S
C661 C662 1.366 . S
C662 C661 1.366 . S
C662 C663 1.414 . S
C662 C665 1.499 . S
C663 H637 0.950 . S
C663 C662 1.414 . S
C663 C664 1.374 . S
C664 H638 0.950 . S
C664 C660 1.385 . S
C664 C663 1.374 . S
C665 C662 1.499 . S
C665 C666 1.373 . S
C665 C667 1.389 . S
C666 H639 0.950 . S
C666 C652 1.377 . S
C666 C665 1.373 . S
C667 C651 1.377 . S
C667 C665 1.389 . S
C667 C668 1.524 . S
C668 C667 1.524 . S
C668 C669 1.397 . S
C668 C673 1.363 . S
C669 H640 0.950 . S
C669 C668 1.397 . S
C669 C670 1.334 . S
C670 H641 0.950 . S
C670 C669 1.334 . S
C670 C671 1.287 . S
C671 C670 1.287 . S
C671 C672 1.524 . S
C671 H674 0.999 . S
C672 H642 0.950 . S
C672 C671 1.524 . S
C672 C673 1.415 . S
C673 H643 0.950 . S
C673 C668 1.363 . S
C673 C672 1.415 . S
H674 C671 0.999 . S
H675 C656 0.913 . S
H676 C694 0.951 . S
H677 C696 0.959 . S
H678 C698 0.950 . S
H679 C699 0.950 . S
H680 C701 0.944 1_565 S
H681 C704 0.950 . S
H682 C705 0.950 . S
H683 C707 0.950 . S
H684 C708 0.950 . S
H685 C709 0.951 . S
H686 C711 0.951 . S
H687 C713 0.950 . S
H688 C714 0.950 . S
H689 C716 0.950 . S
H690 C719 0.950 . S
H691 C720 0.950 . S
H692 C722 0.950 . S
H693 C723 0.929 1_545 S
C694 H676 0.951 . S
C694 C695 1.357 1_565 S
C694 C696 1.388 . S
C695 C694 1.357 1_545 S
C695 C699 1.385 . S
C696 H677 0.959 . S
C696 C694 1.388 . S
C696 C697 1.367 1_565 S
C697 C696 1.367 1_545 S
C697 C698 1.414 . S
C697 C700 1.499 . S
C698 H678 0.950 . S
C698 C697 1.414 . S
C698 C699 1.374 . S
C699 H679 0.950 . S
C699 C695 1.385 . S
C699 C698 1.374 . S
C700 C697 1.499 . S
C700 C701 1.373 . S
C700 C702 1.389 . S
C701 H680 0.944 1_545 S
C701 C700 1.373 . S
C701 C717 1.396 . S
C702 C700 1.389 . S
C702 C703 1.524 . S
C702 C716 1.377 . S
C703 C702 1.524 . S
C703 C704 1.397 . S
C703 C708 1.363 . S
C704 H681 0.950 . S
C704 C703 1.397 . S
C704 C705 1.334 . S
C705 H682 0.950 . S
C705 C704 1.334 . S
C705 C706 1.287 . S
C706 C705 1.287 . S
C706 C707 1.524 . S
C706 H725 0.913 . S
C707 H683 0.950 . S
C707 C706 1.524 . S
C707 C708 1.415 . S
C708 H684 0.950 . S
C708 C703 1.363 . S
C708 C707 1.415 . S
C709 H685 0.951 . S
C709 C710 1.366 . S
C709 C711 1.388 . S
C710 C709 1.366 . S
C710 C714 1.385 1_545 S
C711 H686 0.951 . S
C711 C709 1.388 . S
C711 C712 1.366 . S
C712 C711 1.366 . S
C712 C713 1.414 1_545 S
C712 C715 1.499 . S
C713 H687 0.950 . S
C713 C712 1.414 1_565 S
C713 C714 1.374 . S
C714 H688 0.950 . S
C714 C710 1.385 1_565 S
C714 C713 1.374 . S
C715 C712 1.499 . S
C715 C716 1.373 . S
C715 C717 1.398 . S
C716 H689 0.950 . S
C716 C702 1.377 . S
C716 C715 1.373 . S
C717 C701 1.396 . S
C717 C715 1.398 . S
C717 C718 1.495 1_545 S
C718 C717 1.495 1_565 S
C718 C719 1.397 . S
C718 C723 1.367 . S
C719 H690 0.950 . S
C719 C718 1.397 . S
C719 C720 1.334 . S
C720 H691 0.950 . S
C720 C719 1.334 . S
C720 C721 1.287 . S
C721 C720 1.287 . S
C721 C722 1.524 . S
C721 H724 0.999 . S
C722 H692 0.950 . S
C722 C721 1.524 . S
C722 C723 1.433 . S
C723 H693 0.929 1_565 S
C723 C718 1.367 . S
C723 C722 1.433 . S
H724 C721 0.999 . S
H725 C706 0.913 . S
H726 C744 0.951 . S
H727 C746 0.951 . S
H728 C748 0.988 . S
H729 C749 0.964 . S
H730 C751 0.950 . S
H731 C754 0.950 . S
H732 C755 0.950 . S
H733 C757 0.950 . S
H734 C758 0.932 1_565 S
H735 C759 0.951 . S
H736 C761 0.951 . S
H737 C763 0.950 . S
H738 C764 0.950 . S
H739 C766 0.950 1_545 S
H740 C769 0.950 . S
H741 C770 0.950 . S
H742 C772 0.950 . S
H743 C773 0.950 . S
C744 H726 0.951 . S
C744 C745 1.366 . S
C744 C746 1.388 . S
C745 C744 1.366 . S
C745 C749 1.377 1_565 S
C746 H727 0.951 . S
C746 C744 1.388 . S
C746 C747 1.366 . S
C747 C746 1.366 . S
C747 C748 1.351 1_565 S
C747 C750 1.499 . S
C748 H728 0.988 . S
C748 C747 1.351 1_545 S
C748 C749 1.398 . S
C749 H729 0.964 . S
C749 C745 1.377 1_545 S
C749 C748 1.398 . S
C750 C747 1.499 . S
C750 C751 1.373 . S
C750 C752 1.374 . S
C751 H730 0.950 . S
C751 C750 1.373 . S
C751 C767 1.377 . S
C752 C750 1.374 . S
C752 C753 1.510 1_565 S
C752 C766 1.409 . S
C753 C752 1.510 1_545 S
C753 C754 1.397 . S
C753 C758 1.376 . S
C754 H731 0.950 . S
C754 C753 1.397 . S
C754 C755 1.334 . S
C755 H732 0.950 . S
C755 C754 1.334 . S
C755 C756 1.287 . S
C756 C755 1.287 . S
C756 C757 1.524 . S
C756 H775 0.924 . S
C757 H733 0.950 . S
C757 C756 1.524 . S
C757 C758 1.420 . S
C758 H734 0.932 1_545 S
C758 C753 1.376 . S
C758 C757 1.420 . S
C759 H735 0.951 . S
C759 C760 1.366 1_545 S
C759 C761 1.388 . S
C760 C759 1.366 1_565 S
C760 C764 1.385 . S
C761 H736 0.951 . S
C761 C759 1.388 . S
C761 C762 1.366 1_545 S
C762 C761 1.366 1_565 S
C762 C763 1.414 . S
C762 C765 1.499 . S
C763 H737 0.950 . S
C763 C762 1.414 . S
C763 C764 1.374 . S
C764 H738 0.950 . S
C764 C760 1.385 . S
C764 C763 1.374 . S
C765 C762 1.499 . S
C765 C766 1.373 . S
C765 C767 1.389 . S
C766 H739 0.950 1_565 S
C766 C752 1.409 . S
C766 C765 1.373 . S
C767 C751 1.377 . S
C767 C765 1.389 . S
C767 C768 1.524 . S
C768 C767 1.524 . S
C768 C769 1.397 . S
C768 C773 1.363 . S
C769 H740 0.950 . S
C769 C768 1.397 . S
C769 C770 1.334 . S
C770 H741 0.950 . S
C770 C769 1.334 . S
C770 C771 1.287 . S
C771 C770 1.287 . S
C771 C772 1.524 . S
C771 H774 0.999 . S
C772 H742 0.950 . S
C772 C771 1.524 . S
C772 C773 1.415 . S
C773 H743 0.950 . S
C773 C768 1.363 . S
C773 C772 1.415 . S
H774 C771 0.999 . S
H775 C756 0.924 . S
H776 C794 0.951 . S
H777 C796 0.951 . S
H778 C798 0.950 1_655 S
H779 C799 0.950 1_655 S
H780 C801 0.950 . S
H781 C804 0.950 . S
H782 C805 0.950 . S
H783 C807 0.950 1_455 S
H784 C808 0.950 . S
H785 C809 0.951 . S
H786 C811 0.951 . S
H787 C813 0.950 . S
H788 C814 0.950 . S
H789 C816 0.950 . S
H790 C819 0.950 . S
H791 C820 0.950 . S
H792 C822 0.950 . S
H793 C823 0.950 . S
C794 H776 0.951 . S
C794 C795 1.366 . S
C794 C796 1.388 . S
C795 C794 1.366 . S
C795 C799 1.385 . S
C796 H777 0.951 . S
C796 C794 1.388 . S
C796 C797 1.366 . S
C797 C796 1.366 . S
C797 C798 1.414 . S
C797 C800 1.499 . S
C798 H778 0.950 1_455 S
C798 C797 1.414 . S
C798 C799 1.374 . S
C799 H779 0.950 1_455 S
C799 C795 1.385 . S
C799 C798 1.374 . S
C800 C797 1.499 . S
C800 C801 1.373 . S
C800 C802 1.389 . S
C801 H780 0.950 . S
C801 C800 1.373 . S
C801 C817 1.377 . S
C802 C800 1.389 . S
C802 C803 1.524 1_455 S
C802 C816 1.377 . S
C803 C802 1.524 1_655 S
C803 C804 1.397 . S
C803 C808 1.363 1_655 S
C804 H781 0.950 . S
C804 C803 1.397 . S
C804 C805 1.334 . S
C805 H782 0.950 . S
C805 C804 1.334 . S
C805 C806 1.287 . S
C806 C805 1.287 . S
C806 C807 1.524 . S
C806 H825 0.913 . S
C807 H783 0.950 1_655 S
C807 C806 1.524 . S
C807 C808 1.415 1_655 S
C808 H784 0.950 . S
C808 C803 1.363 1_455 S
C808 C807 1.415 1_455 S
C809 H785 0.951 . S
C809 C810 1.366 1_655 S
C809 C811 1.388 . S
C810 C809 1.366 1_455 S
C810 C814 1.385 . S
C811 H786 0.951 . S
C811 C809 1.388 . S
C811 C812 1.366 1_655 S
C812 C811 1.366 1_455 S
C812 C813 1.414 . S
C812 C815 1.499 . S
C813 H787 0.950 . S
C813 C812 1.414 . S
C813 C814 1.374 . S
C814 H788 0.950 . S
C814 C810 1.385 . S
C814 C813 1.374 . S
C815 C812 1.499 . S
C815 C816 1.373 . S
C815 C817 1.389 . S
C816 H789 0.950 . S
C816 C802 1.377 . S
C816 C815 1.373 . S
C817 C801 1.377 . S
C817 C815 1.389 . S
C817 C818 1.524 . S
C818 C817 1.524 . S
C818 C819 1.397 . S
C818 C823 1.363 . S
C819 H790 0.950 . S
C819 C818 1.397 . S
C819 C820 1.334 . S
C820 H791 0.950 . S
C820 C819 1.334 . S
C820 C821 1.287 . S
C821 C820 1.287 . S
C821 C822 1.524 . S
C821 H824 0.999 . S
C822 H792 0.950 . S
C822 C821 1.524 . S
C822 C823 1.415 . S
C823 H793 0.950 . S
C823 C818 1.363 . S
C823 C822 1.415 . S
H824 C821 0.999 . S
H825 C806 0.913 . S
H826 C844 0.951 . S
H827 C846 0.951 . S
H828 C848 0.950 . S
H829 C849 0.950 . S
H830 C851 0.950 . S
H831 C854 0.950 . S
H832 C855 0.950 . S
H833 C857 0.950 . S
H834 C858 0.950 . S
H835 C859 0.951 . S
H836 C861 0.951 . S
H837 C863 0.950 . S
H838 C864 0.950 . S
H839 C866 0.950 . S
H840 C869 0.950 . S
H841 C870 0.950 . S
H842 C872 0.950 . S
H843 C873 0.950 . S
C844 H826 0.951 . S
C844 C845 1.366 . S
C844 C846 1.388 . S
C845 C844 1.366 . S
C845 C849 1.385 . S
C846 H827 0.951 . S
C846 C844 1.388 . S
C846 C847 1.366 . S
C847 C846 1.366 . S
C847 C848 1.414 . S
C847 C850 1.499 . S
C848 H828 0.950 . S
C848 C847 1.414 . S
C848 C849 1.374 . S
C849 H829 0.950 . S
C849 C845 1.385 . S
C849 C848 1.374 . S
C850 C847 1.499 . S
C850 C851 1.373 . S
C850 C852 1.389 . S
C851 H830 0.950 . S
C851 C850 1.373 . S
C851 C867 1.377 . S
C852 C850 1.389 . S
C852 C853 1.524 . S
C852 C866 1.377 . S
C853 C852 1.524 . S
C853 C854 1.397 . S
C853 C858 1.363 . S
C854 H831 0.950 . S
C854 C853 1.397 . S
C854 C855 1.334 . S
C855 H832 0.950 . S
C855 C854 1.334 . S
C855 C856 1.287 . S
C856 C855 1.287 . S
C856 C857 1.524 . S
C856 H875 0.913 . S
C857 H833 0.950 . S
C857 C856 1.524 . S
C857 C858 1.415 . S
C858 H834 0.950 . S
C858 C853 1.363 . S
C858 C857 1.415 . S
C859 H835 0.951 . S
C859 C860 1.366 . S
C859 C861 1.388 . S
C860 C859 1.366 . S
C860 C864 1.385 . S
C861 H836 0.951 . S
C861 C859 1.388 . S
C861 C862 1.366 . S
C862 C861 1.366 . S
C862 C863 1.414 . S
C862 C865 1.499 . S
C863 H837 0.950 . S
C863 C862 1.414 . S
C863 C864 1.374 . S
C864 H838 0.950 . S
C864 C860 1.385 . S
C864 C863 1.374 . S
C865 C862 1.499 . S
C865 C866 1.373 . S
C865 C867 1.389 . S
C866 H839 0.950 . S
C866 C852 1.377 . S
C866 C865 1.373 . S
C867 C851 1.377 . S
C867 C865 1.389 . S
C867 C868 1.524 . S
C868 C867 1.524 . S
C868 C869 1.397 . S
C868 C873 1.363 . S
C869 H840 0.950 . S
C869 C868 1.397 . S
C869 C870 1.334 . S
C870 H841 0.950 . S
C870 C869 1.334 . S
C870 C871 1.287 . S
C871 C870 1.287 . S
C871 C872 1.524 . S
C871 H874 0.999 . S
C872 H842 0.950 . S
C872 C871 1.524 . S
C872 C873 1.415 . S
C873 H843 0.950 . S
C873 C868 1.363 . S
C873 C872 1.415 . S
H874 C871 0.999 . S
H875 C856 0.913 . S
H876 C894 0.951 . S
H877 C896 0.951 . S
H878 C898 0.950 . S
H879 C899 0.950 . S
H880 C901 0.950 . S
H881 C904 0.950 . S
H882 C905 0.950 . S
H883 C907 0.950 . S
H884 C908 0.950 . S
H885 C909 0.951 . S
H886 C911 0.951 . S
H887 C913 0.950 . S
H888 C914 0.950 . S
H889 C916 0.950 . S
H890 C919 0.950 . S
H891 C920 0.950 . S
H892 C922 0.950 . S
H893 C923 0.950 . S
C894 H876 0.951 . S
C894 C895 1.366 . S
C894 C896 1.388 . S
C895 C894 1.366 . S
C895 C899 1.385 . S
C896 H877 0.951 . S
C896 C894 1.388 . S
C896 C897 1.366 . S
C897 C896 1.366 . S
C897 C898 1.414 . S
C897 C900 1.499 . S
C898 H878 0.950 . S
C898 C897 1.414 . S
C898 C899 1.374 . S
C899 H879 0.950 . S
C899 C895 1.385 . S
C899 C898 1.374 . S
C900 C897 1.499 . S
C900 C901 1.373 1_455 S
C900 C902 1.389 . S
C901 H880 0.950 . S
C901 C900 1.373 1_655 S
C901 C917 1.377 . S
C902 C900 1.389 . S
C902 C903 1.524 . S
C902 C916 1.377 . S
C903 C902 1.524 . S
C903 C904 1.397 . S
C903 C908 1.363 . S
C904 H881 0.950 . S
C904 C903 1.397 . S
C904 C905 1.334 . S
C905 H882 0.950 . S
C905 C904 1.334 . S
C905 C906 1.287 . S
C906 C905 1.287 . S
C906 C907 1.524 . S
C906 H925 0.913 . S
C907 H883 0.950 . S
C907 C906 1.524 . S
C907 C908 1.415 . S
C908 H884 0.950 . S
C908 C903 1.363 . S
C908 C907 1.415 . S
C909 H885 0.951 . S
C909 C910 1.365 . S
C909 C911 1.388 . S
C910 C909 1.365 . S
C910 C914 1.384 1_455 S
C911 H886 0.951 . S
C911 C909 1.388 . S
C911 C912 1.371 . S
C912 C911 1.371 . S
C912 C913 1.436 1_455 S
C912 C915 1.478 . S
C913 H887 0.950 . S
C913 C912 1.436 1_655 S
C913 C914 1.374 . S
C914 H888 0.950 . S
C914 C910 1.384 1_655 S
C914 C913 1.374 . S
C915 C912 1.478 . S
C915 C916 1.373 . S
C915 C917 1.389 1_455 S
C916 H889 0.950 . S
C916 C902 1.377 . S
C916 C915 1.373 . S
C917 C901 1.377 . S
C917 C915 1.389 1_655 S
C917 C918 1.524 . S
C918 C917 1.524 . S
C918 C919 1.397 . S
C918 C923 1.363 . S
C919 H890 0.950 . S
C919 C918 1.397 . S
C919 C920 1.334 . S
C920 H891 0.950 . S
C920 C919 1.334 . S
C920 C921 1.287 . S
C921 C920 1.287 . S
C921 C922 1.524 . S
C921 H924 0.999 . S
C922 H892 0.950 . S
C922 C921 1.524 . S
C922 C923 1.415 . S
C923 H893 0.950 . S
C923 C918 1.363 . S
C923 C922 1.415 . S
H924 C921 0.999 . S
H925 C906 0.913 . S
H926 C944 0.951 . S
H927 C946 0.951 . S
H928 C948 0.950 . S
H929 C949 0.950 . S
H930 C951 0.950 . S
H931 C954 0.950 . S
H932 C955 0.950 . S
H933 C957 0.950 . S
H934 C958 0.950 . S
H935 C959 0.951 . S
H936 C961 0.951 . S
H937 C963 0.950 . S
H938 C964 0.950 . S
H939 C966 0.950 . S
H940 C969 0.950 . S
H941 C970 0.950 . S
H942 C972 0.950 . S
H943 C973 0.950 . S
C944 H926 0.951 . S
C944 C945 1.366 . S
C944 C946 1.388 . S
C945 C944 1.366 . S
C945 C949 1.385 . S
C946 H927 0.951 . S
C946 C944 1.388 . S
C946 C947 1.366 . S
C947 C946 1.366 . S
C947 C948 1.414 . S
C947 C950 1.499 . S
C948 H928 0.950 . S
C948 C947 1.414 . S
C948 C949 1.374 . S
C949 H929 0.950 . S
C949 C945 1.385 . S
C949 C948 1.374 . S
C950 C947 1.499 . S
C950 C951 1.373 . S
C950 C952 1.389 . S
C951 H930 0.950 . S
C951 C950 1.373 . S
C951 C967 1.377 . S
C952 C950 1.389 . S
C952 C953 1.524 . S
C952 C966 1.377 . S
C953 C952 1.524 . S
C953 C954 1.397 . S
C953 C958 1.363 . S
C954 H931 0.950 . S
C954 C953 1.397 . S
C954 C955 1.334 . S
C955 H932 0.950 . S
C955 C954 1.334 . S
C955 C956 1.287 . S
C956 C955 1.287 . S
C956 C957 1.524 . S
C956 H975 0.913 . S
C957 H933 0.950 . S
C957 C956 1.524 . S
C957 C958 1.415 . S
C958 H934 0.950 . S
C958 C953 1.363 . S
C958 C957 1.415 . S
C959 H935 0.951 . S
C959 C960 1.366 . S
C959 C961 1.388 . S
C960 C959 1.366 . S
C960 C964 1.385 . S
C961 H936 0.951 . S
C961 C959 1.388 . S
C961 C962 1.366 . S
C962 C961 1.366 . S
C962 C963 1.414 . S
C962 C965 1.499 . S
C963 H937 0.950 . S
C963 C962 1.414 . S
C963 C964 1.374 . S
C964 H938 0.950 . S
C964 C960 1.385 . S
C964 C963 1.374 . S
C965 C962 1.499 . S
C965 C966 1.373 . S
C965 C967 1.389 . S
C966 H939 0.950 . S
C966 C952 1.377 . S
C966 C965 1.373 . S
C967 C951 1.377 . S
C967 C965 1.389 . S
C967 C968 1.524 . S
C968 C967 1.524 . S
C968 C969 1.397 . S
C968 C973 1.363 . S
C969 H940 0.950 . S
C969 C968 1.397 . S
C969 C970 1.334 . S
C970 H941 0.950 . S
C970 C969 1.334 . S
C970 C971 1.287 . S
C971 C970 1.287 . S
C971 C972 1.524 . S
C971 H974 0.999 . S
C972 H942 0.950 . S
C972 C971 1.524 . S
C972 C973 1.415 . S
C973 H943 0.950 . S
C973 C968 1.363 . S
C973 C972 1.415 . S
H974 C971 0.999 . S
H975 C956 0.913 . S
H976 C994 0.956 . S
H977 C996 0.965 . S
H978 C998 0.950 . S
H979 C999 0.950 . S
H980 C1001 0.950 . S
H981 C1004 0.950 . S
H982 C1005 0.950 . S
H983 C1007 0.950 . S
H984 C1008 0.950 . S
H985 C1009 0.965 . S
H986 C1011 0.997 . S
H987 C1013 0.950 . S
H988 C1014 0.950 . S
H989 C1016 0.950 . S
H990 C1019 0.950 . S
H991 C1020 0.950 . S
H992 C1022 0.950 . S
H993 C1023 0.950 . S
C994 H976 0.956 . S
C994 C995 1.366 . S
C994 C996 1.388 . S
C995 C994 1.366 . S
C995 C999 1.385 . S
C996 H977 0.965 . S
C996 C994 1.388 . S
C996 C997 1.366 . S
C997 C996 1.366 . S
C997 C998 1.414 . S
C997 C1000 1.499 . S
C998 H978 0.950 . S
C998 C997 1.414 . S
C998 C999 1.374 . S
C999 H979 0.950 . S
C999 C995 1.385 . S
C999 C998 1.374 . S
C1000 C997 1.499 . S
C1000 C1001 1.373 1_565 S
C1000 C1002 1.389 . S
C1001 H980 0.950 . S
C1001 C1000 1.373 1_545 S
C1001 C1017 1.377 . S
C1002 C1000 1.389 . S
C1002 C1003 1.524 . S
C1002 C1016 1.377 . S
C1003 C1002 1.524 . S
C1003 C1004 1.397 . S
C1003 C1008 1.363 . S
C1004 H981 0.950 . S
C1004 C1003 1.397 . S
C1004 C1005 1.334 . S
C1005 H982 0.950 . S
C1005 C1004 1.334 . S
C1005 C1006 1.287 . S
C1006 C1005 1.287 . S
C1006 C1007 1.524 . S
C1006 H1025 0.913 . S
C1007 H983 0.950 . S
C1007 C1006 1.524 . S
C1007 C1008 1.415 . S
C1008 H984 0.950 . S
C1008 C1003 1.363 . S
C1008 C1007 1.415 . S
C1009 H985 0.965 . S
C1009 C1010 1.311 1_565 S
C1009 C1011 1.388 . S
C1010 C1009 1.311 1_545 S
C1010 C1014 1.388 . S
C1011 H986 0.997 . S
C1011 C1009 1.388 . S
C1011 C1012 1.356 1_565 S
C1012 C1011 1.356 1_545 S
C1012 C1013 1.433 . S
C1012 C1015 1.487 . S
C1013 H987 0.950 . S
C1013 C1012 1.433 . S
C1013 C1014 1.374 . S
C1014 H988 0.950 . S
C1014 C1010 1.388 . S
C1014 C1013 1.374 . S
C1015 C1012 1.487 . S
C1015 C1016 1.369 1_545 S
C1015 C1017 1.390 . S
C1016 H989 0.950 . S
C1016 C1002 1.377 . S
C1016 C1015 1.369 1_565 S
C1017 C1001 1.377 . S
C1017 C1015 1.390 . S
C1017 C1018 1.524 . S
C1018 C1017 1.524 . S
C1018 C1019 1.397 . S
C1018 C1023 1.363 . S
C1019 H990 0.950 . S
C1019 C1018 1.397 . S
C1019 C1020 1.334 . S
C1020 H991 0.950 . S
C1020 C1019 1.334 . S
C1020 C1021 1.287 . S
C1021 C1020 1.287 . S
C1021 C1022 1.524 . S
C1021 H1024 0.999 . S
C1022 H992 0.950 . S
C1022 C1021 1.524 . S
C1022 C1023 1.415 . S
C1023 H993 0.950 . S
C1023 C1018 1.363 . S
C1023 C1022 1.415 . S
H1024 C1021 0.999 . S
H1025 C1006 0.913 . S
H1026 C1044 0.951 . S
H1027 C1046 0.951 . S
H1028 C1048 0.949 1_565 S
H1029 C1049 0.950 1_565 S
H1030 C1051 0.950 . S
H1031 C1054 0.950 . S
H1032 C1055 0.950 . S
H1033 C1057 0.945 1_545 S
H1034 C1058 0.950 . S
H1035 C1059 0.951 . S
H1036 C1061 0.951 . S
H1037 C1063 0.950 . S
H1038 C1064 0.950 . S
H1039 C1066 0.955 . S
H1040 C1069 0.950 . S
H1041 C1070 0.950 . S
H1042 C1072 0.950 . S
H1043 C1073 0.950 1_565 S
C1044 H1026 0.951 . S
C1044 C1045 1.366 . S
C1044 C1046 1.388 . S
C1045 C1044 1.366 . S
C1045 C1049 1.385 . S
C1046 H1027 0.951 . S
C1046 C1044 1.388 . S
C1046 C1047 1.366 . S
C1047 C1046 1.366 . S
C1047 C1048 1.424 . S
C1047 C1050 1.499 . S
C1048 H1028 0.949 1_545 S
C1048 C1047 1.424 . S
C1048 C1049 1.366 . S
C1049 H1029 0.950 1_545 S
C1049 C1045 1.385 . S
C1049 C1048 1.366 . S
C1050 C1047 1.499 . S
C1050 C1051 1.373 . S
C1050 C1052 1.389 . S
C1051 H1030 0.950 . S
C1051 C1050 1.373 . S
C1051 C1067 1.377 . S
C1052 C1050 1.389 . S
C1052 C1053 1.524 1_545 S
C1052 C1066 1.377 . S
C1053 C1052 1.524 1_565 S
C1053 C1054 1.397 . S
C1053 C1058 1.363 1_565 S
C1054 H1031 0.950 . S
C1054 C1053 1.397 . S
C1054 C1055 1.334 . S
C1055 H1032 0.950 . S
C1055 C1054 1.334 . S
C1055 C1056 1.287 . S
C1056 C1055 1.287 . S
C1056 C1057 1.553 . S
C1056 H1075 0.913 . S
C1057 H1033 0.945 1_565 S
C1057 C1056 1.553 . S
C1057 C1058 1.392 1_565 S
C1058 H1034 0.950 . S
C1058 C1053 1.363 1_545 S
C1058 C1057 1.392 1_545 S
C1059 H1035 0.951 . S
C1059 C1060 1.351 1_565 S
C1059 C1061 1.388 . S
C1060 C1059 1.351 1_545 S
C1060 C1064 1.388 . S
C1061 H1036 0.951 . S
C1061 C1059 1.388 . S
C1061 C1062 1.366 1_565 S
C1062 C1061 1.366 1_545 S
C1062 C1063 1.414 . S
C1062 C1065 1.499 . S
C1063 H1037 0.950 . S
C1063 C1062 1.414 . S
C1063 C1064 1.374 . S
C1064 H1038 0.950 . S
C1064 C1060 1.388 . S
C1064 C1063 1.374 . S
C1065 C1062 1.499 . S
C1065 C1066 1.373 . S
C1065 C1067 1.389 . S
C1066 H1039 0.955 . S
C1066 C1052 1.377 . S
C1066 C1065 1.373 . S
C1067 C1051 1.377 . S
C1067 C1065 1.389 . S
C1067 C1068 1.524 . S
C1068 C1067 1.524 . S
C1068 C1069 1.397 . S
C1068 C1073 1.363 . S
C1069 H1040 0.950 . S
C1069 C1068 1.397 . S
C1069 C1070 1.334 . S
C1070 H1041 0.950 . S
C1070 C1069 1.334 . S
C1070 C1071 1.287 . S
C1071 C1070 1.287 . S
C1071 C1072 1.524 . S
C1071 H1074 0.999 . S
C1072 H1042 0.950 . S
C1072 C1071 1.524 . S
C1072 C1073 1.415 . S
C1073 H1043 0.950 1_545 S
C1073 C1068 1.363 . S
C1073 C1072 1.415 . S
H1074 C1071 0.999 . S
H1075 C1056 0.913 . S
H1076 C1094 0.951 . S
H1077 C1096 0.951 . S
H1078 C1098 0.950 . S
H1079 C1099 0.950 . S
H1080 C1101 0.950 . S
H1081 C1104 1.000 . S
H1082 C1105 0.950 1_455 S
H1083 C1107 0.950 . S
H1084 C1108 0.950 . S
H1085 C1109 0.951 . S
H1086 C1111 0.951 . S
H1087 C1113 0.950 . S
H1088 C1114 0.950 . S
H1089 C1116 0.950 . S
H1090 C1119 0.950 . S
H1091 C1120 0.950 . S
H1092 C1122 0.950 . S
H1093 C1123 0.950 . S
C1094 H1076 0.951 . S
C1094 C1095 1.366 . S
C1094 C1096 1.388 . S
C1095 C1094 1.366 . S
C1095 C1099 1.385 1_655 S
C1096 H1077 0.951 . S
C1096 C1094 1.388 . S
C1096 C1097 1.366 . S
C1097 C1096 1.366 . S
C1097 C1098 1.414 1_655 S
C1097 C1100 1.499 . S
C1098 H1078 0.950 . S
C1098 C1097 1.414 1_455 S
C1098 C1099 1.374 . S
C1099 H1079 0.950 . S
C1099 C1095 1.385 1_455 S
C1099 C1098 1.374 . S
C1100 C1097 1.499 . S
C1100 C1101 1.373 1_655 S
C1100 C1102 1.389 . S
C1101 H1080 0.950 . S
C1101 C1100 1.373 1_455 S
C1101 C1117 1.377 . S
C1102 C1100 1.389 . S
C1102 C1103 1.524 . S
C1102 C1116 1.377 . S
C1103 C1102 1.524 . S
C1103 C1104 1.383 1_655 S
C1103 C1108 1.363 . S
C1104 H1081 1.000 . S
C1104 C1103 1.383 1_455 S
C1104 C1105 1.301 1_455 S
C1105 H1082 0.950 1_655 S
C1105 C1104 1.301 1_655 S
C1105 C1106 1.287 . S
C1106 C1105 1.287 . S
C1106 C1107 1.524 . S
C1106 H1125 0.913 . S
C1107 H1083 0.950 . S
C1107 C1106 1.524 . S
C1107 C1108 1.415 . S
C1108 H1084 0.950 . S
C1108 C1103 1.363 . S
C1108 C1107 1.415 . S
C1109 H1085 0.951 . S
C1109 C1110 1.362 . S
C1109 C1111 1.388 . S
C1110 C1109 1.362 . S
C1110 C1114 1.391 1_455 S
C1111 H1086 0.951 . S
C1111 C1109 1.388 . S
C1111 C1112 1.366 1_455 S
C1112 C1111 1.366 1_655 S
C1112 C1113 1.414 . S
C1112 C1115 1.499 . S
C1113 H1087 0.950 . S
C1113 C1112 1.414 . S
C1113 C1114 1.374 . S
C1114 H1088 0.950 . S
C1114 C1110 1.391 1_655 S
C1114 C1113 1.374 . S
C1115 C1112 1.499 . S
C1115 C1116 1.373 . S
C1115 C1117 1.389 1_655 S
C1116 H1089 0.950 . S
C1116 C1102 1.377 . S
C1116 C1115 1.373 . S
C1117 C1101 1.377 . S
C1117 C1115 1.389 1_455 S
C1117 C1118 1.524 . S
C1118 C1117 1.524 . S
C1118 C1119 1.397 1_455 S
C1118 C1123 1.363 . S
C1119 H1090 0.950 . S
C1119 C1118 1.397 1_655 S
C1119 C1120 1.334 . S
C1120 H1091 0.950 . S
C1120 C1119 1.334 . S
C1120 C1121 1.287 1_655 S
C1121 C1120 1.287 1_455 S
C1121 C1122 1.524 . S
C1121 H1124 0.999 . S
C1122 H1092 0.950 . S
C1122 C1121 1.524 . S
C1122 C1123 1.415 . S
C1123 H1093 0.950 . S
C1123 C1118 1.363 . S
C1123 C1122 1.415 . S
H1124 C1121 0.999 . S
H1125 C1106 0.913 . S
H1126 C1144 0.951 . S
H1127 C1146 0.951 . S
H1128 C1148 0.950 . S
H1129 C1149 0.950 . S
H1130 C1151 0.950 . S
H1131 C1154 0.950 . S
H1132 C1155 0.950 . S
H1133 C1157 0.950 . S
H1134 C1158 0.950 . S
H1135 C1159 0.951 . S
H1136 C1161 0.951 . S
H1137 C1163 0.950 . S
H1138 C1164 0.950 . S
H1139 C1166 0.950 . S
H1140 C1169 0.950 . S
H1141 C1170 0.950 . S
H1142 C1172 0.950 . S
H1143 C1173 0.950 . S
C1144 H1126 0.951 . S
C1144 C1145 1.366 . S
C1144 C1146 1.388 . S
C1145 C1144 1.366 . S
C1145 C1149 1.385 . S
C1146 H1127 0.951 . S
C1146 C1144 1.388 . S
C1146 C1147 1.366 . S
C1147 C1146 1.366 . S
C1147 C1148 1.414 . S
C1147 C1150 1.499 . S
C1148 H1128 0.950 . S
C1148 C1147 1.414 . S
C1148 C1149 1.374 . S
C1149 H1129 0.950 . S
C1149 C1145 1.385 . S
C1149 C1148 1.374 . S
C1150 C1147 1.499 . S
C1150 C1151 1.373 . S
C1150 C1152 1.389 . S
C1151 H1130 0.950 . S
C1151 C1150 1.373 . S
C1151 C1167 1.377 . S
C1152 C1150 1.389 . S
C1152 C1153 1.524 . S
C1152 C1166 1.377 . S
C1153 C1152 1.524 . S
C1153 C1154 1.397 . S
C1153 C1158 1.363 . S
C1154 H1131 0.950 . S
C1154 C1153 1.397 . S
C1154 C1155 1.334 . S
C1155 H1132 0.950 . S
C1155 C1154 1.334 . S
C1155 C1156 1.287 . S
C1156 C1155 1.287 . S
C1156 C1157 1.524 . S
C1156 H1175 0.913 . S
C1157 H1133 0.950 . S
C1157 C1156 1.524 . S
C1157 C1158 1.415 . S
C1158 H1134 0.950 . S
C1158 C1153 1.363 . S
C1158 C1157 1.415 . S
C1159 H1135 0.951 . S
C1159 C1160 1.366 . S
C1159 C1161 1.388 . S
C1160 C1159 1.366 . S
C1160 C1164 1.385 . S
C1161 H1136 0.951 . S
C1161 C1159 1.388 . S
C1161 C1162 1.366 . S
C1162 C1161 1.366 . S
C1162 C1163 1.414 . S
C1162 C1165 1.499 . S
C1163 H1137 0.950 . S
C1163 C1162 1.414 . S
C1163 C1164 1.374 . S
C1164 H1138 0.950 . S
C1164 C1160 1.385 . S
C1164 C1163 1.374 . S
C1165 C1162 1.499 . S
C1165 C1166 1.373 . S
C1165 C1167 1.389 . S
C1166 H1139 0.950 . S
C1166 C1152 1.377 . S
C1166 C1165 1.373 . S
C1167 C1151 1.377 . S
C1167 C1165 1.389 . S
C1167 C1168 1.524 . S
C1168 C1167 1.524 . S
C1168 C1169 1.397 . S
C1168 C1173 1.363 . S
C1169 H1140 0.950 . S
C1169 C1168 1.397 . S
C1169 C1170 1.334 . S
C1170 H1141 0.950 . S
C1170 C1169 1.334 . S
C1170 C1171 1.287 . S
C1171 C1170 1.287 . S
C1171 C1172 1.524 . S
C1171 H1174 0.999 . S
C1172 H1142 0.950 . S
C1172 C1171 1.524 . S
C1172 C1173 1.415 . S
C1173 H1143 0.950 . S
C1173 C1168 1.363 . S
C1173 C1172 1.415 . S
H1174 C1171 0.999 . S
H1175 C1156 0.913 . S
H1176 C1194 0.951 . S
H1177 C1196 0.951 . S
H1178 C1198 0.950 . S
H1179 C1199 0.950 . S
H1180 C1201 0.950 . S
H1181 C1204 0.950 . S
H1182 C1205 0.950 . S
H1183 C1207 0.950 . S
H1184 C1208 0.950 . S
H1185 C1209 0.951 . S
H1186 C1211 0.951 . S
H1187 C1213 0.950 . S
H1188 C1214 0.950 . S
H1189 C1216 0.950 . S
H1190 C1219 0.950 . S
H1191 C1220 0.950 . S
H1192 C1222 0.950 . S
H1193 C1223 0.950 . S
C1194 H1176 0.951 . S
C1194 C1195 1.366 . S
C1194 C1196 1.388 . S
C1195 C1194 1.366 . S
C1195 C1199 1.385 . S
C1196 H1177 0.951 . S
C1196 C1194 1.388 . S
C1196 C1197 1.366 . S
C1197 C1196 1.366 . S
C1197 C1198 1.414 . S
C1197 C1200 1.499 . S
C1198 H1178 0.950 . S
C1198 C1197 1.414 . S
C1198 C1199 1.374 . S
C1199 H1179 0.950 . S
C1199 C1195 1.385 . S
C1199 C1198 1.374 . S
C1200 C1197 1.499 . S
C1200 C1201 1.373 . S
C1200 C1202 1.389 . S
C1201 H1180 0.950 . S
C1201 C1200 1.373 . S
C1201 C1217 1.377 . S
C1202 C1200 1.389 . S
C1202 C1203 1.524 . S
C1202 C1216 1.377 . S
C1203 C1202 1.524 . S
C1203 C1204 1.397 . S
C1203 C1208 1.363 . S
C1204 H1181 0.950 . S
C1204 C1203 1.397 . S
C1204 C1205 1.334 . S
C1205 H1182 0.950 . S
C1205 C1204 1.334 . S
C1205 C1206 1.287 . S
C1206 C1205 1.287 . S
C1206 C1207 1.524 . S
C1206 H1225 0.913 . S
C1207 H1183 0.950 . S
C1207 C1206 1.524 . S
C1207 C1208 1.415 . S
C1208 H1184 0.950 . S
C1208 C1203 1.363 . S
C1208 C1207 1.415 . S
C1209 H1185 0.951 . S
C1209 C1210 1.366 . S
C1209 C1211 1.388 . S
C1210 C1209 1.366 . S
C1210 C1214 1.385 . S
C1211 H1186 0.951 . S
C1211 C1209 1.388 . S
C1211 C1212 1.366 . S
C1212 C1211 1.366 . S
C1212 C1213 1.414 . S
C1212 C1215 1.499 . S
C1213 H1187 0.950 . S
C1213 C1212 1.414 . S
C1213 C1214 1.374 . S
C1214 H1188 0.950 . S
C1214 C1210 1.385 . S
C1214 C1213 1.374 . S
C1215 C1212 1.499 . S
C1215 C1216 1.373 . S
C1215 C1217 1.389 . S
C1216 H1189 0.950 . S
C1216 C1202 1.377 . S
C1216 C1215 1.373 . S
C1217 C1201 1.377 . S
C1217 C1215 1.389 . S
C1217 C1218 1.524 . S
C1218 C1217 1.524 . S
C1218 C1219 1.397 . S
C1218 C1223 1.363 . S
C1219 H1190 0.950 . S
C1219 C1218 1.397 . S
C1219 C1220 1.334 . S
C1220 H1191 0.950 . S
C1220 C1219 1.334 . S
C1220 C1221 1.287 . S
C1221 C1220 1.287 . S
C1221 C1222 1.524 . S
C1221 H1224 0.999 . S
C1222 H1192 0.950 . S
C1222 C1221 1.524 . S
C1222 C1223 1.415 . S
C1223 H1193 0.950 . S
C1223 C1218 1.363 . S
C1223 C1222 1.415 . S
H1224 C1221 0.999 . S
H1225 C1206 0.913 . S
H1226 C1244 0.951 . S
H1227 C1246 0.951 . S
H1228 C1248 0.950 . S
H1229 C1249 0.950 . S
H1230 C1251 0.950 . S
H1231 C1254 0.950 . S
H1232 C1255 0.950 . S
H1233 C1257 0.950 . S
H1234 C1258 0.950 . S
H1235 C1259 0.951 . S
H1236 C1261 0.951 . S
H1237 C1263 0.950 . S
H1238 C1264 0.950 . S
H1239 C1266 0.950 . S
H1240 C1269 0.950 . S
H1241 C1270 0.950 . S
H1242 C1272 0.950 . S
H1243 C1273 0.950 . S
C1244 H1226 0.951 . S
C1244 C1245 1.366 . S
C1244 C1246 1.388 . S
C1245 C1244 1.366 . S
C1245 C1249 1.385 . S
C1246 H1227 0.951 . S
C1246 C1244 1.388 . S
C1246 C1247 1.366 . S
C1247 C1246 1.366 . S
C1247 C1248 1.414 . S
C1247 C1250 1.499 . S
C1248 H1228 0.950 . S
C1248 C1247 1.414 . S
C1248 C1249 1.374 . S
C1249 H1229 0.950 . S
C1249 C1245 1.385 . S
C1249 C1248 1.374 . S
C1250 C1247 1.499 . S
C1250 C1251 1.373 . S
C1250 C1252 1.389 . S
C1251 H1230 0.950 . S
C1251 C1250 1.373 . S
C1251 C1267 1.377 . S
C1252 C1250 1.389 . S
C1252 C1253 1.524 . S
C1252 C1266 1.377 . S
C1253 C1252 1.524 . S
C1253 C1254 1.397 . S
C1253 C1258 1.363 . S
C1254 H1231 0.950 . S
C1254 C1253 1.397 . S
C1254 C1255 1.334 . S
C1255 H1232 0.950 . S
C1255 C1254 1.334 . S
C1255 C1256 1.287 . S
C1256 C1255 1.287 . S
C1256 C1257 1.524 . S
C1256 H1275 0.913 . S
C1257 H1233 0.950 . S
C1257 C1256 1.524 . S
C1257 C1258 1.415 . S
C1258 H1234 0.950 . S
C1258 C1253 1.363 . S
C1258 C1257 1.415 . S
C1259 H1235 0.951 . S
C1259 C1260 1.366 . S
C1259 C1261 1.388 . S
C1260 C1259 1.366 . S
C1260 C1264 1.385 . S
C1261 H1236 0.951 . S
C1261 C1259 1.388 . S
C1261 C1262 1.366 . S
C1262 C1261 1.366 . S
C1262 C1263 1.414 . S
C1262 C1265 1.499 . S
C1263 H1237 0.950 . S
C1263 C1262 1.414 . S
C1263 C1264 1.374 . S
C1264 H1238 0.950 . S
C1264 C1260 1.385 . S
C1264 C1263 1.374 . S
C1265 C1262 1.499 . S
C1265 C1266 1.373 . S
C1265 C1267 1.389 . S
C1266 H1239 0.950 . S
C1266 C1252 1.377 . S
C1266 C1265 1.373 . S
C1267 C1251 1.377 . S
C1267 C1265 1.389 . S
C1267 C1268 1.524 . S
C1268 C1267 1.524 . S
C1268 C1269 1.397 . S
C1268 C1273 1.363 . S
C1269 H1240 0.950 . S
C1269 C1268 1.397 . S
C1269 C1270 1.334 . S
C1270 H1241 0.950 . S
C1270 C1269 1.334 . S
C1270 C1271 1.287 . S
C1271 C1270 1.287 . S
C1271 C1272 1.524 . S
C1271 H1274 0.999 . S
C1272 H1242 0.950 . S
C1272 C1271 1.524 . S
C1272 C1273 1.415 . S
C1273 H1243 0.950 . S
C1273 C1268 1.363 . S
C1273 C1272 1.415 . S
H1274 C1271 0.999 . S
H1275 C1256 0.913 . S
H1276 C1294 0.951 . S
H1277 C1296 0.951 . S
H1278 C1298 0.950 . S
H1279 C1299 0.950 . S
H1280 C1301 0.950 . S
H1281 C1304 0.950 . S
H1282 C1305 0.950 . S
H1283 C1307 0.950 . S
H1284 C1308 0.950 . S
H1285 C1309 0.951 . S
H1286 C1311 0.951 . S
H1287 C1313 0.950 . S
H1288 C1314 0.950 . S
H1289 C1316 0.950 . S
H1290 C1319 0.950 . S
H1291 C1320 0.950 . S
H1292 C1322 0.950 . S
H1293 C1323 0.950 . S
C1294 H1276 0.951 . S
C1294 C1295 1.366 . S
C1294 C1296 1.388 . S
C1295 C1294 1.366 . S
C1295 C1299 1.385 . S
C1296 H1277 0.951 . S
C1296 C1294 1.388 . S
C1296 C1297 1.366 . S
C1297 C1296 1.366 . S
C1297 C1298 1.414 . S
C1297 C1300 1.499 . S
C1298 H1278 0.950 . S
C1298 C1297 1.414 . S
C1298 C1299 1.374 . S
C1299 H1279 0.950 . S
C1299 C1295 1.385 . S
C1299 C1298 1.374 . S
C1300 C1297 1.499 . S
C1300 C1301 1.373 . S
C1300 C1302 1.389 . S
C1301 H1280 0.950 . S
C1301 C1300 1.373 . S
C1301 C1317 1.377 . S
C1302 C1300 1.389 . S
C1302 C1303 1.524 . S
C1302 C1316 1.377 . S
C1303 C1302 1.524 . S
C1303 C1304 1.397 . S
C1303 C1308 1.363 . S
C1304 H1281 0.950 . S
C1304 C1303 1.397 . S
C1304 C1305 1.334 . S
C1305 H1282 0.950 . S
C1305 C1304 1.334 . S
C1305 C1306 1.287 . S
C1306 C1305 1.287 . S
C1306 C1307 1.524 . S
C1306 H1325 0.913 . S
C1307 H1283 0.950 . S
C1307 C1306 1.524 . S
C1307 C1308 1.415 . S
C1308 H1284 0.950 . S
C1308 C1303 1.363 . S
C1308 C1307 1.415 . S
C1309 H1285 0.951 . S
C1309 C1310 1.366 . S
C1309 C1311 1.388 . S
C1310 C1309 1.366 . S
C1310 C1314 1.385 . S
C1311 H1286 0.951 . S
C1311 C1309 1.388 . S
C1311 C1312 1.366 . S
C1312 C1311 1.366 . S
C1312 C1313 1.414 . S
C1312 C1315 1.499 . S
C1313 H1287 0.950 . S
C1313 C1312 1.414 . S
C1313 C1314 1.374 . S
C1314 H1288 0.950 . S
C1314 C1310 1.385 . S
C1314 C1313 1.374 . S
C1315 C1312 1.499 . S
C1315 C1316 1.373 . S
C1315 C1317 1.389 . S
C1316 H1289 0.950 . S
C1316 C1302 1.377 . S
C1316 C1315 1.373 . S
C1317 C1301 1.377 . S
C1317 C1315 1.389 . S
C1317 C1318 1.524 . S
C1318 C1317 1.524 . S
C1318 C1319 1.397 . S
C1318 C1323 1.363 . S
C1319 H1290 0.950 . S
C1319 C1318 1.397 . S
C1319 C1320 1.334 . S
C1320 H1291 0.950 . S
C1320 C1319 1.334 . S
C1320 C1321 1.287 . S
C1321 C1320 1.287 . S
C1321 C1322 1.524 . S
C1321 H1324 0.999 . S
C1322 H1292 0.950 . S
C1322 C1321 1.524 . S
C1322 C1323 1.415 . S
C1323 H1293 0.950 . S
C1323 C1318 1.363 . S
C1323 C1322 1.415 . S
H1324 C1321 0.999 . S
H1325 C1306 0.913 . S
H1326 C1344 0.951 . S
H1327 C1346 0.951 . S
H1328 C1348 0.950 . S
H1329 C1349 0.950 . S
H1330 C1351 0.950 . S
H1331 C1354 0.950 . S
H1332 C1355 0.950 . S
H1333 C1357 0.950 . S
H1334 C1358 0.950 . S
H1335 C1359 0.951 . S
H1336 C1361 0.951 . S
H1337 C1363 0.950 . S
H1338 C1364 0.950 . S
H1339 C1366 0.950 . S
H1340 C1369 0.950 . S
H1341 C1370 0.950 . S
H1342 C1372 0.950 . S
H1343 C1373 0.950 . S
C1344 H1326 0.951 . S
C1344 C1345 1.366 . S
C1344 C1346 1.388 . S
C1345 C1344 1.366 . S
C1345 C1349 1.385 . S
C1346 H1327 0.951 . S
C1346 C1344 1.388 . S
C1346 C1347 1.366 . S
C1347 C1346 1.366 . S
C1347 C1348 1.414 . S
C1347 C1350 1.499 . S
C1348 H1328 0.950 . S
C1348 C1347 1.414 . S
C1348 C1349 1.374 . S
C1349 H1329 0.950 . S
C1349 C1345 1.385 . S
C1349 C1348 1.374 . S
C1350 C1347 1.499 . S
C1350 C1351 1.373 . S
C1350 C1352 1.389 . S
C1351 H1330 0.950 . S
C1351 C1350 1.373 . S
C1351 C1367 1.377 . S
C1352 C1350 1.389 . S
C1352 C1353 1.524 . S
C1352 C1366 1.377 . S
C1353 C1352 1.524 . S
C1353 C1354 1.397 . S
C1353 C1358 1.363 . S
C1354 H1331 0.950 . S
C1354 C1353 1.397 . S
C1354 C1355 1.334 . S
C1355 H1332 0.950 . S
C1355 C1354 1.334 . S
C1355 C1356 1.287 . S
C1356 C1355 1.287 . S
C1356 C1357 1.524 . S
C1356 H1375 0.913 . S
C1357 H1333 0.950 . S
C1357 C1356 1.524 . S
C1357 C1358 1.415 . S
C1358 H1334 0.950 . S
C1358 C1353 1.363 . S
C1358 C1357 1.415 . S
C1359 H1335 0.951 . S
C1359 C1360 1.366 . S
C1359 C1361 1.388 . S
C1360 C1359 1.366 . S
C1360 C1364 1.385 . S
C1361 H1336 0.951 . S
C1361 C1359 1.388 . S
C1361 C1362 1.366 . S
C1362 C1361 1.366 . S
C1362 C1363 1.414 . S
C1362 C1365 1.499 . S
C1363 H1337 0.950 . S
C1363 C1362 1.414 . S
C1363 C1364 1.374 . S
C1364 H1338 0.950 . S
C1364 C1360 1.385 . S
C1364 C1363 1.374 . S
C1365 C1362 1.499 . S
C1365 C1366 1.373 . S
C1365 C1367 1.389 . S
C1366 H1339 0.950 . S
C1366 C1352 1.377 . S
C1366 C1365 1.373 . S
C1367 C1351 1.377 . S
C1367 C1365 1.389 . S
C1367 C1368 1.524 . S
C1368 C1367 1.524 . S
C1368 C1369 1.397 . S
C1368 C1373 1.363 . S
C1369 H1340 0.950 . S
C1369 C1368 1.397 . S
C1369 C1370 1.334 . S
C1370 H1341 0.950 . S
C1370 C1369 1.334 . S
C1370 C1371 1.287 . S
C1371 C1370 1.287 . S
C1371 C1372 1.524 . S
C1371 H1374 0.999 . S
C1372 H1342 0.950 . S
C1372 C1371 1.524 . S
C1372 C1373 1.415 . S
C1373 H1343 0.950 . S
C1373 C1368 1.363 . S
C1373 C1372 1.415 . S
H1374 C1371 0.999 . S
H1375 C1356 0.913 . S
H1376 C1394 0.951 . S
H1377 C1396 0.951 . S
H1378 C1398 0.950 . S
H1379 C1399 0.950 . S
H1380 C1401 0.950 . S
H1381 C1404 0.950 . S
H1382 C1405 0.950 . S
H1383 C1407 0.950 . S
H1384 C1408 0.950 . S
H1385 C1409 0.951 . S
H1386 C1411 0.951 . S
H1387 C1413 0.950 . S
H1388 C1414 0.950 . S
H1389 C1416 0.950 . S
H1390 C1419 0.950 . S
H1391 C1420 0.950 . S
H1392 C1422 0.950 . S
H1393 C1423 0.950 . S
C1394 H1376 0.951 . S
C1394 C1395 1.366 . S
C1394 C1396 1.388 . S
C1395 C1394 1.366 . S
C1395 C1399 1.385 . S
C1396 H1377 0.951 . S
C1396 C1394 1.388 . S
C1396 C1397 1.366 . S
C1397 C1396 1.366 . S
C1397 C1398 1.414 . S
C1397 C1400 1.499 . S
C1398 H1378 0.950 . S
C1398 C1397 1.414 . S
C1398 C1399 1.374 . S
C1399 H1379 0.950 . S
C1399 C1395 1.385 . S
C1399 C1398 1.374 . S
C1400 C1397 1.499 . S
C1400 C1401 1.373 . S
C1400 C1402 1.389 . S
C1401 H1380 0.950 . S
C1401 C1400 1.373 . S
C1401 C1417 1.377 . S
C1402 C1400 1.389 . S
C1402 C1403 1.524 . S
C1402 C1416 1.377 . S
C1403 C1402 1.524 . S
C1403 C1404 1.397 . S
C1403 C1408 1.363 . S
C1404 H1381 0.950 . S
C1404 C1403 1.397 . S
C1404 C1405 1.334 . S
C1405 H1382 0.950 . S
C1405 C1404 1.334 . S
C1405 C1406 1.287 . S
C1406 C1405 1.287 . S
C1406 C1407 1.524 . S
C1406 H1425 0.913 . S
C1407 H1383 0.950 . S
C1407 C1406 1.524 . S
C1407 C1408 1.415 . S
C1408 H1384 0.950 . S
C1408 C1403 1.363 . S
C1408 C1407 1.415 . S
C1409 H1385 0.951 . S
C1409 C1410 1.366 . S
C1409 C1411 1.388 . S
C1410 C1409 1.366 . S
C1410 C1414 1.385 . S
C1411 H1386 0.951 . S
C1411 C1409 1.388 . S
C1411 C1412 1.366 . S
C1412 C1411 1.366 . S
C1412 C1413 1.414 . S
C1412 C1415 1.499 . S
C1413 H1387 0.950 . S
C1413 C1412 1.414 . S
C1413 C1414 1.374 . S
C1414 H1388 0.950 . S
C1414 C1410 1.385 . S
C1414 C1413 1.374 . S
C1415 C1412 1.499 . S
C1415 C1416 1.373 . S
C1415 C1417 1.389 . S
C1416 H1389 0.950 . S
C1416 C1402 1.377 . S
C1416 C1415 1.373 . S
C1417 C1401 1.377 . S
C1417 C1415 1.389 . S
C1417 C1418 1.524 . S
C1418 C1417 1.524 . S
C1418 C1419 1.397 . S
C1418 C1423 1.363 . S
C1419 H1390 0.950 . S
C1419 C1418 1.397 . S
C1419 C1420 1.334 . S
C1420 H1391 0.950 . S
C1420 C1419 1.334 . S
C1420 C1421 1.287 . S
C1421 C1420 1.287 . S
C1421 C1422 1.524 . S
C1421 H1424 0.999 . S
C1422 H1392 0.950 . S
C1422 C1421 1.524 . S
C1422 C1423 1.415 . S
C1423 H1393 0.950 . S
C1423 C1418 1.363 . S
C1423 C1422 1.415 . S
H1424 C1421 0.999 . S
H1425 C1406 0.913 . S
H1426 C1444 0.951 . S
H1427 C1446 0.951 . S
H1428 C1448 0.950 . S
H1429 C1449 0.950 . S
H1430 C1451 0.950 . S
H1431 C1454 0.950 . S
H1432 C1455 0.950 . S
H1433 C1457 0.950 . S
H1434 C1458 0.950 . S
H1435 C1459 0.951 . S
H1436 C1461 0.951 . S
H1437 C1463 0.950 . S
H1438 C1464 0.950 . S
H1439 C1466 0.950 . S
H1440 C1469 0.950 . S
H1441 C1470 0.950 . S
H1442 C1472 0.950 . S
H1443 C1473 0.950 . S
C1444 H1426 0.951 . S
C1444 C1445 1.366 . S
C1444 C1446 1.388 . S
C1445 C1444 1.366 . S
C1445 C1449 1.385 . S
C1446 H1427 0.951 . S
C1446 C1444 1.388 . S
C1446 C1447 1.366 . S
C1447 C1446 1.366 . S
C1447 C1448 1.414 . S
C1447 C1450 1.499 . S
C1448 H1428 0.950 . S
C1448 C1447 1.414 . S
C1448 C1449 1.374 . S
C1449 H1429 0.950 . S
C1449 C1445 1.385 . S
C1449 C1448 1.374 . S
C1450 C1447 1.499 . S
C1450 C1451 1.373 . S
C1450 C1452 1.389 . S
C1451 H1430 0.950 . S
C1451 C1450 1.373 . S
C1451 C1467 1.377 . S
C1452 C1450 1.389 . S
C1452 C1453 1.524 . S
C1452 C1466 1.377 . S
C1453 C1452 1.524 . S
C1453 C1454 1.397 . S
C1453 C1458 1.363 . S
C1454 H1431 0.950 . S
C1454 C1453 1.397 . S
C1454 C1455 1.334 . S
C1455 H1432 0.950 . S
C1455 C1454 1.334 . S
C1455 C1456 1.287 . S
C1456 C1455 1.287 . S
C1456 C1457 1.524 . S
C1456 H1475 0.913 . S
C1457 H1433 0.950 . S
C1457 C1456 1.524 . S
C1457 C1458 1.415 . S
C1458 H1434 0.950 . S
C1458 C1453 1.363 . S
C1458 C1457 1.415 . S
C1459 H1435 0.951 . S
C1459 C1460 1.366 . S
C1459 C1461 1.388 . S
C1460 C1459 1.366 . S
C1460 C1464 1.385 . S
C1461 H1436 0.951 . S
C1461 C1459 1.388 . S
C1461 C1462 1.366 . S
C1462 C1461 1.366 . S
C1462 C1463 1.414 . S
C1462 C1465 1.499 . S
C1463 H1437 0.950 . S
C1463 C1462 1.414 . S
C1463 C1464 1.374 . S
C1464 H1438 0.950 . S
C1464 C1460 1.385 . S
C1464 C1463 1.374 . S
C1465 C1462 1.499 . S
C1465 C1466 1.373 . S
C1465 C1467 1.389 . S
C1466 H1439 0.950 . S
C1466 C1452 1.377 . S
C1466 C1465 1.373 . S
C1467 C1451 1.377 . S
C1467 C1465 1.389 . S
C1467 C1468 1.524 . S
C1468 C1467 1.524 . S
C1468 C1469 1.397 . S
C1468 C1473 1.363 . S
C1469 H1440 0.950 . S
C1469 C1468 1.397 . S
C1469 C1470 1.334 . S
C1470 H1441 0.950 . S
C1470 C1469 1.334 . S
C1470 C1471 1.287 . S
C1471 C1470 1.287 . S
C1471 C1472 1.524 . S
C1471 H1474 0.999 . S
C1472 H1442 0.950 . S
C1472 C1471 1.524 . S
C1472 C1473 1.415 . S
C1473 H1443 0.950 . S
C1473 C1468 1.363 . S
C1473 C1472 1.415 . S
H1474 C1471 0.999 . S
H1475 C1456 0.913 . S
H1476 C1494 0.951 . S
H1477 C1496 0.951 . S
H1478 C1498 0.950 . S
H1479 C1499 0.950 . S
H1480 C1501 0.950 . S
H1481 C1504 0.950 . S
H1482 C1505 0.950 . S
H1483 C1507 0.950 . S
H1484 C1508 0.950 . S
H1485 C1509 0.951 . S
H1486 C1511 0.951 . S
H1487 C1513 0.950 . S
H1488 C1514 0.950 . S
H1489 C1516 0.950 . S
H1490 C1519 0.950 . S
H1491 C1520 0.950 . S
H1492 C1522 0.950 . S
H1493 C1523 0.950 . S
C1494 H1476 0.951 . S
C1494 C1495 1.366 . S
C1494 C1496 1.388 . S
C1495 C1494 1.366 . S
C1495 C1499 1.385 . S
C1496 H1477 0.951 . S
C1496 C1494 1.388 . S
C1496 C1497 1.366 . S
C1497 C1496 1.366 . S
C1497 C1498 1.414 . S
C1497 C1500 1.499 . S
C1498 H1478 0.950 . S
C1498 C1497 1.414 . S
C1498 C1499 1.374 . S
C1499 H1479 0.950 . S
C1499 C1495 1.385 . S
C1499 C1498 1.374 . S
C1500 C1497 1.499 . S
C1500 C1501 1.373 . S
C1500 C1502 1.389 . S
C1501 H1480 0.950 . S
C1501 C1500 1.373 . S
C1501 C1517 1.377 . S
C1502 C1500 1.389 . S
C1502 C1503 1.524 . S
C1502 C1516 1.377 . S
C1503 C1502 1.524 . S
C1503 C1504 1.397 . S
C1503 C1508 1.363 . S
C1504 H1481 0.950 . S
C1504 C1503 1.397 . S
C1504 C1505 1.334 . S
C1505 H1482 0.950 . S
C1505 C1504 1.334 . S
C1505 C1506 1.287 . S
C1506 C1505 1.287 . S
C1506 C1507 1.524 . S
C1506 H1525 0.913 . S
C1507 H1483 0.950 . S
C1507 C1506 1.524 . S
C1507 C1508 1.415 . S
C1508 H1484 0.950 . S
C1508 C1503 1.363 . S
C1508 C1507 1.415 . S
C1509 H1485 0.951 . S
C1509 C1510 1.366 . S
C1509 C1511 1.388 . S
C1510 C1509 1.366 . S
C1510 C1514 1.385 . S
C1511 H1486 0.951 . S
C1511 C1509 1.388 . S
C1511 C1512 1.366 . S
C1512 C1511 1.366 . S
C1512 C1513 1.414 . S
C1512 C1515 1.499 . S
C1513 H1487 0.950 . S
C1513 C1512 1.414 . S
C1513 C1514 1.374 . S
C1514 H1488 0.950 . S
C1514 C1510 1.385 . S
C1514 C1513 1.374 . S
C1515 C1512 1.499 . S
C1515 C1516 1.373 . S
C1515 C1517 1.389 . S
C1516 H1489 0.950 . S
C1516 C1502 1.377 . S
C1516 C1515 1.373 . S
C1517 C1501 1.377 . S
C1517 C1515 1.389 . S
C1517 C1518 1.524 . S
C1518 C1517 1.524 . S
C1518 C1519 1.397 . S
C1518 C1523 1.363 . S
C1519 H1490 0.950 . S
C1519 C1518 1.397 . S
C1519 C1520 1.334 . S
C1520 H1491 0.950 . S
C1520 C1519 1.334 . S
C1520 C1521 1.287 . S
C1521 C1520 1.287 . S
C1521 C1522 1.524 . S
C1521 H1524 0.999 . S
C1522 H1492 0.950 . S
C1522 C1521 1.524 . S
C1522 C1523 1.415 . S
C1523 H1493 0.950 . S
C1523 C1518 1.363 . S
C1523 C1522 1.415 . S
H1524 C1521 0.999 . S
H1525 C1506 0.913 . S
H1526 C1544 0.951 . S
H1527 C1546 0.951 . S
H1528 C1548 0.950 . S
H1529 C1549 0.950 . S
H1530 C1551 0.950 . S
H1531 C1554 0.950 . S
H1532 C1555 0.950 . S
H1533 C1557 0.950 . S
H1534 C1558 0.950 . S
H1535 C1559 0.951 . S
H1536 C1561 0.951 . S
H1537 C1563 0.950 . S
H1538 C1564 0.950 . S
H1539 C1566 0.950 . S
H1540 C1569 0.950 . S
H1541 C1570 0.950 . S
H1542 C1572 0.950 . S
H1543 C1573 0.950 . S
C1544 H1526 0.951 . S
C1544 C1545 1.366 . S
C1544 C1546 1.388 . S
C1545 C1544 1.366 . S
C1545 C1549 1.385 . S
C1546 H1527 0.951 . S
C1546 C1544 1.388 . S
C1546 C1547 1.366 . S
C1547 C1546 1.366 . S
C1547 C1548 1.414 . S
C1547 C1550 1.499 . S
C1548 H1528 0.950 . S
C1548 C1547 1.414 . S
C1548 C1549 1.374 . S
C1549 H1529 0.950 . S
C1549 C1545 1.385 . S
C1549 C1548 1.374 . S
C1550 C1547 1.499 . S
C1550 C1551 1.373 . S
C1550 C1552 1.389 . S
C1551 H1530 0.950 . S
C1551 C1550 1.373 . S
C1551 C1567 1.377 . S
C1552 C1550 1.389 . S
C1552 C1553 1.524 . S
C1552 C1566 1.377 . S
C1553 C1552 1.524 . S
C1553 C1554 1.397 . S
C1553 C1558 1.363 . S
C1554 H1531 0.950 . S
C1554 C1553 1.397 . S
C1554 C1555 1.334 . S
C1555 H1532 0.950 . S
C1555 C1554 1.334 . S
C1555 C1556 1.287 . S
C1556 C1555 1.287 . S
C1556 C1557 1.524 . S
C1556 H1575 0.913 . S
C1557 H1533 0.950 . S
C1557 C1556 1.524 . S
C1557 C1558 1.415 . S
C1558 H1534 0.950 . S
C1558 C1553 1.363 . S
C1558 C1557 1.415 . S
C1559 H1535 0.951 . S
C1559 C1560 1.366 . S
C1559 C1561 1.388 . S
C1560 C1559 1.366 . S
C1560 C1564 1.385 . S
C1561 H1536 0.951 . S
C1561 C1559 1.388 . S
C1561 C1562 1.366 . S
C1562 C1561 1.366 . S
C1562 C1563 1.414 . S
C1562 C1565 1.499 . S
C1563 H1537 0.950 . S
C1563 C1562 1.414 . S
C1563 C1564 1.374 . S
C1564 H1538 0.950 . S
C1564 C1560 1.385 . S
C1564 C1563 1.374 . S
C1565 C1562 1.499 . S
C1565 C1566 1.373 . S
C1565 C1567 1.389 . S
C1566 H1539 0.950 . S
C1566 C1552 1.377 . S
C1566 C1565 1.373 . S
C1567 C1551 1.377 . S
C1567 C1565 1.389 . S
C1567 C1568 1.524 . S
C1568 C1567 1.524 . S
C1568 C1569 1.397 . S
C1568 C1573 1.363 . S
C1569 H1540 0.950 . S
C1569 C1568 1.397 . S
C1569 C1570 1.334 . S
C1570 H1541 0.950 . S
C1570 C1569 1.334 . S
C1570 C1571 1.287 . S
C1571 C1570 1.287 . S
C1571 C1572 1.524 . S
C1571 H1574 0.999 . S
C1572 H1542 0.950 . S
C1572 C1571 1.524 . S
C1572 C1573 1.415 . S
C1573 H1543 0.950 . S
C1573 C1568 1.363 . S
C1573 C1572 1.415 . S
H1574 C1571 0.999 . S
H1575 C1556 0.913 . S
H1576 C1594 0.951 . S
H1577 C1596 0.951 . S
H1578 C1598 0.950 . S
H1579 C1599 0.950 . S
H1580 C1601 0.950 . S
H1581 C1604 0.950 . S
H1582 C1605 0.950 . S
H1583 C1607 0.950 . S
H1584 C1608 0.950 . S
H1585 C1609 0.951 . S
H1586 C1611 0.951 . S
H1587 C1613 0.950 . S
H1588 C1614 0.950 . S
H1589 C1616 0.950 . S
H1590 C1619 0.950 . S
H1591 C1620 0.950 . S
H1592 C1622 0.950 . S
H1593 C1623 0.950 . S
C1594 H1576 0.951 . S
C1594 C1595 1.366 . S
C1594 C1596 1.388 . S
C1595 C1594 1.366 . S
C1595 C1599 1.385 . S
C1596 H1577 0.951 . S
C1596 C1594 1.388 . S
C1596 C1597 1.366 . S
C1597 C1596 1.366 . S
C1597 C1598 1.414 . S
C1597 C1600 1.499 . S
C1598 H1578 0.950 . S
C1598 C1597 1.414 . S
C1598 C1599 1.374 . S
C1599 H1579 0.950 . S
C1599 C1595 1.385 . S
C1599 C1598 1.374 . S
C1600 C1597 1.499 . S
C1600 C1601 1.373 . S
C1600 C1602 1.389 . S
C1601 H1580 0.950 . S
C1601 C1600 1.373 . S
C1601 C1617 1.377 . S
C1602 C1600 1.389 . S
C1602 C1603 1.524 . S
C1602 C1616 1.377 . S
C1603 C1602 1.524 . S
C1603 C1604 1.397 . S
C1603 C1608 1.363 . S
C1604 H1581 0.950 . S
C1604 C1603 1.397 . S
C1604 C1605 1.334 . S
C1605 H1582 0.950 . S
C1605 C1604 1.334 . S
C1605 C1606 1.287 . S
C1606 C1605 1.287 . S
C1606 C1607 1.524 . S
C1606 H1625 0.913 . S
C1607 H1583 0.950 . S
C1607 C1606 1.524 . S
C1607 C1608 1.415 . S
C1608 H1584 0.950 . S
C1608 C1603 1.363 . S
C1608 C1607 1.415 . S
C1609 H1585 0.951 . S
C1609 C1610 1.366 . S
C1609 C1611 1.388 . S
C1610 C1609 1.366 . S
C1610 C1614 1.385 . S
C1611 H1586 0.951 . S
C1611 C1609 1.388 . S
C1611 C1612 1.366 . S
C1612 C1611 1.366 . S
C1612 C1613 1.414 . S
C1612 C1615 1.499 . S
C1613 H1587 0.950 . S
C1613 C1612 1.414 . S
C1613 C1614 1.374 . S
C1614 H1588 0.950 . S
C1614 C1610 1.385 . S
C1614 C1613 1.374 . S
C1615 C1612 1.499 . S
C1615 C1616 1.373 . S
C1615 C1617 1.389 . S
C1616 H1589 0.950 . S
C1616 C1602 1.377 . S
C1616 C1615 1.373 . S
C1617 C1601 1.377 . S
C1617 C1615 1.389 . S
C1617 C1618 1.524 . S
C1618 C1617 1.524 . S
C1618 C1619 1.397 . S
C1618 C1623 1.363 . S
C1619 H1590 0.950 . S
C1619 C1618 1.397 . S
C1619 C1620 1.334 . S
C1620 H1591 0.950 . S
C1620 C1619 1.334 . S
C1620 C1621 1.287 . S
C1621 C1620 1.287 . S
C1621 C1622 1.524 . S
C1621 H1624 0.999 . S
C1622 H1592 0.950 . S
C1622 C1621 1.524 . S
C1622 C1623 1.415 . S
C1623 H1593 0.950 . S
C1623 C1618 1.363 . S
C1623 C1622 1.415 . S
H1624 C1621 0.999 . S
H1625 C1606 0.913 . S
H1626 C1644 0.951 . S
H1627 C1646 0.951 . S
H1628 C1648 0.950 . S
H1629 C1649 0.950 . S
H1630 C1651 0.950 . S
H1631 C1654 0.950 . S
H1632 C1655 0.950 . S
H1633 C1657 0.950 . S
H1634 C1658 0.950 . S
H1635 C1659 0.951 . S
H1636 C1661 0.951 . S
H1637 C1663 0.950 . S
H1638 C1664 0.950 . S
H1639 C1666 0.950 . S
H1640 C1669 0.950 . S
H1641 C1670 0.950 . S
H1642 C1672 0.950 . S
H1643 C1673 0.950 . S
C1644 H1626 0.951 . S
C1644 C1645 1.366 . S
C1644 C1646 1.388 . S
C1645 C1644 1.366 . S
C1645 C1649 1.385 . S
C1646 H1627 0.951 . S
C1646 C1644 1.388 . S
C1646 C1647 1.366 . S
C1647 C1646 1.366 . S
C1647 C1648 1.414 . S
C1647 C1650 1.499 . S
C1648 H1628 0.950 . S
C1648 C1647 1.414 . S
C1648 C1649 1.374 . S
C1649 H1629 0.950 . S
C1649 C1645 1.385 . S
C1649 C1648 1.374 . S
C1650 C1647 1.499 . S
C1650 C1651 1.373 . S
C1650 C1652 1.389 . S
C1651 H1630 0.950 . S
C1651 C1650 1.373 . S
C1651 C1667 1.377 . S
C1652 C1650 1.389 . S
C1652 C1653 1.524 . S
C1652 C1666 1.377 . S
C1653 C1652 1.524 . S
C1653 C1654 1.397 . S
C1653 C1658 1.363 . S
C1654 H1631 0.950 . S
C1654 C1653 1.397 . S
C1654 C1655 1.334 . S
C1655 H1632 0.950 . S
C1655 C1654 1.334 . S
C1655 C1656 1.287 . S
C1656 C1655 1.287 . S
C1656 C1657 1.524 . S
C1656 H1675 0.913 . S
C1657 H1633 0.950 . S
C1657 C1656 1.524 . S
C1657 C1658 1.415 . S
C1658 H1634 0.950 . S
C1658 C1653 1.363 . S
C1658 C1657 1.415 . S
C1659 H1635 0.951 . S
C1659 C1660 1.366 . S
C1659 C1661 1.388 . S
C1660 C1659 1.366 . S
C1660 C1664 1.385 . S
C1661 H1636 0.951 . S
C1661 C1659 1.388 . S
C1661 C1662 1.366 . S
C1662 C1661 1.366 . S
C1662 C1663 1.414 . S
C1662 C1665 1.499 . S
C1663 H1637 0.950 . S
C1663 C1662 1.414 . S
C1663 C1664 1.374 . S
C1664 H1638 0.950 . S
C1664 C1660 1.385 . S
C1664 C1663 1.374 . S
C1665 C1662 1.499 . S
C1665 C1666 1.373 . S
C1665 C1667 1.389 . S
C1666 H1639 0.950 . S
C1666 C1652 1.377 . S
C1666 C1665 1.373 . S
C1667 C1651 1.377 . S
C1667 C1665 1.389 . S
C1667 C1668 1.524 . S
C1668 C1667 1.524 . S
C1668 C1669 1.397 . S
C1668 C1673 1.363 . S
C1669 H1640 0.950 . S
C1669 C1668 1.397 . S
C1669 C1670 1.334 . S
C1670 H1641 0.950 . S
C1670 C1669 1.334 . S
C1670 C1671 1.287 . S
C1671 C1670 1.287 . S
C1671 C1672 1.524 . S
C1671 H1674 0.999 . S
C1672 H1642 0.950 . S
C1672 C1671 1.524 . S
C1672 C1673 1.415 . S
C1673 H1643 0.950 . S
C1673 C1668 1.363 . S
C1673 C1672 1.415 . S
H1674 C1671 0.999 . S
H1675 C1656 0.913 . S
H1676 C1694 0.951 . S
H1677 C1696 0.951 . S
H1678 C1698 0.950 . S
H1679 C1699 0.950 . S
H1680 C1701 0.950 . S
H1681 C1704 0.950 . S
H1682 C1705 0.950 . S
H1683 C1707 0.950 . S
H1684 C1708 0.950 . S
H1685 C1709 0.951 . S
H1686 C1711 0.951 . S
H1687 C1713 0.950 . S
H1688 C1714 0.950 . S
H1689 C1716 0.950 . S
H1690 C1719 0.950 . S
H1691 C1720 0.950 . S
H1692 C1722 0.950 . S
H1693 C1723 0.950 . S
C1694 H1676 0.951 . S
C1694 C1695 1.366 . S
C1694 C1696 1.388 . S
C1695 C1694 1.366 . S
C1695 C1699 1.385 . S
C1696 H1677 0.951 . S
C1696 C1694 1.388 . S
C1696 C1697 1.366 . S
C1697 C1696 1.366 . S
C1697 C1698 1.414 . S
C1697 C1700 1.499 . S
C1698 H1678 0.950 . S
C1698 C1697 1.414 . S
C1698 C1699 1.374 . S
C1699 H1679 0.950 . S
C1699 C1695 1.385 . S
C1699 C1698 1.374 . S
C1700 C1697 1.499 . S
C1700 C1701 1.373 . S
C1700 C1702 1.389 . S
C1701 H1680 0.950 . S
C1701 C1700 1.373 . S
C1701 C1717 1.377 . S
C1702 C1700 1.389 . S
C1702 C1703 1.524 . S
C1702 C1716 1.377 . S
C1703 C1702 1.524 . S
C1703 C1704 1.397 . S
C1703 C1708 1.363 . S
C1704 H1681 0.950 . S
C1704 C1703 1.397 . S
C1704 C1705 1.334 . S
C1705 H1682 0.950 . S
C1705 C1704 1.334 . S
C1705 C1706 1.287 . S
C1706 C1705 1.287 . S
C1706 C1707 1.524 . S
C1706 H1725 0.913 . S
C1707 H1683 0.950 . S
C1707 C1706 1.524 . S
C1707 C1708 1.415 . S
C1708 H1684 0.950 . S
C1708 C1703 1.363 . S
C1708 C1707 1.415 . S
C1709 H1685 0.951 . S
C1709 C1710 1.366 . S
C1709 C1711 1.388 . S
C1710 C1709 1.366 . S
C1710 C1714 1.385 . S
C1711 H1686 0.951 . S
C1711 C1709 1.388 . S
C1711 C1712 1.366 . S
C1712 C1711 1.366 . S
C1712 C1713 1.414 . S
C1712 C1715 1.499 . S
C1713 H1687 0.950 . S
C1713 C1712 1.414 . S
C1713 C1714 1.374 . S
C1714 H1688 0.950 . S
C1714 C1710 1.385 . S
C1714 C1713 1.374 . S
C1715 C1712 1.499 . S
C1715 C1716 1.373 . S
C1715 C1717 1.389 . S
C1716 H1689 0.950 . S
C1716 C1702 1.377 . S
C1716 C1715 1.373 . S
C1717 C1701 1.377 . S
C1717 C1715 1.389 . S
C1717 C1718 1.524 . S
C1718 C1717 1.524 . S
C1718 C1719 1.397 . S
C1718 C1723 1.363 . S
C1719 H1690 0.950 . S
C1719 C1718 1.397 . S
C1719 C1720 1.334 . S
C1720 H1691 0.950 . S
C1720 C1719 1.334 . S
C1720 C1721 1.287 . S
C1721 C1720 1.287 . S
C1721 C1722 1.524 . S
C1721 H1724 0.999 . S
C1722 H1692 0.950 . S
C1722 C1721 1.524 . S
C1722 C1723 1.415 . S
C1723 H1693 0.950 . S
C1723 C1718 1.363 . S
C1723 C1722 1.415 . S
H1724 C1721 0.999 . S
H1725 C1706 0.913 . S
H1726 C1744 0.951 . S
H1727 C1746 0.951 . S
H1728 C1748 0.950 . S
H1729 C1749 0.950 . S
H1730 C1751 0.950 . S
H1731 C1754 0.950 . S
H1732 C1755 0.950 . S
H1733 C1757 0.950 . S
H1734 C1758 0.950 . S
H1735 C1759 0.951 . S
H1736 C1761 0.951 . S
H1737 C1763 0.950 . S
H1738 C1764 0.950 . S
H1739 C1766 0.950 . S
H1740 C1769 0.950 . S
H1741 C1770 0.950 . S
H1742 C1772 0.950 . S
H1743 C1773 0.950 . S
C1744 H1726 0.951 . S
C1744 C1745 1.366 . S
C1744 C1746 1.388 . S
C1745 C1744 1.366 . S
C1745 C1749 1.385 . S
C1746 H1727 0.951 . S
C1746 C1744 1.388 . S
C1746 C1747 1.366 . S
C1747 C1746 1.366 . S
C1747 C1748 1.414 . S
C1747 C1750 1.499 . S
C1748 H1728 0.950 . S
C1748 C1747 1.414 . S
C1748 C1749 1.374 . S
C1749 H1729 0.950 . S
C1749 C1745 1.385 . S
C1749 C1748 1.374 . S
C1750 C1747 1.499 . S
C1750 C1751 1.373 . S
C1750 C1752 1.389 . S
C1751 H1730 0.950 . S
C1751 C1750 1.373 . S
C1751 C1767 1.377 . S
C1752 C1750 1.389 . S
C1752 C1753 1.524 . S
C1752 C1766 1.377 . S
C1753 C1752 1.524 . S
C1753 C1754 1.397 . S
C1753 C1758 1.363 . S
C1754 H1731 0.950 . S
C1754 C1753 1.397 . S
C1754 C1755 1.334 . S
C1755 H1732 0.950 . S
C1755 C1754 1.334 . S
C1755 C1756 1.287 . S
C1756 C1755 1.287 . S
C1756 C1757 1.524 . S
C1756 H1775 0.913 . S
C1757 H1733 0.950 . S
C1757 C1756 1.524 . S
C1757 C1758 1.415 . S
C1758 H1734 0.950 . S
C1758 C1753 1.363 . S
C1758 C1757 1.415 . S
C1759 H1735 0.951 . S
C1759 C1760 1.366 . S
C1759 C1761 1.388 . S
C1760 C1759 1.366 . S
C1760 C1764 1.385 . S
C1761 H1736 0.951 . S
C1761 C1759 1.388 . S
C1761 C1762 1.366 . S
C1762 C1761 1.366 . S
C1762 C1763 1.414 . S
C1762 C1765 1.499 . S
C1763 H1737 0.950 . S
C1763 C1762 1.414 . S
C1763 C1764 1.374 . S
C1764 H1738 0.950 . S
C1764 C1760 1.385 . S
C1764 C1763 1.374 . S
C1765 C1762 1.499 . S
C1765 C1766 1.373 . S
C1765 C1767 1.389 . S
C1766 H1739 0.950 . S
C1766 C1752 1.377 . S
C1766 C1765 1.373 . S
C1767 C1751 1.377 . S
C1767 C1765 1.389 . S
C1767 C1768 1.524 . S
C1768 C1767 1.524 . S
C1768 C1769 1.397 . S
C1768 C1773 1.363 . S
C1769 H1740 0.950 . S
C1769 C1768 1.397 . S
C1769 C1770 1.334 . S
C1770 H1741 0.950 . S
C1770 C1769 1.334 . S
C1770 C1771 1.287 . S
C1771 C1770 1.287 . S
C1771 C1772 1.524 . S
C1771 H1774 0.999 . S
C1772 H1742 0.950 . S
C1772 C1771 1.524 . S
C1772 C1773 1.415 . S
C1773 H1743 0.950 . S
C1773 C1768 1.363 . S
C1773 C1772 1.415 . S
H1774 C1771 0.999 . S
H1775 C1756 0.913 . S
H1776 C1794 0.951 . S
H1777 C1796 0.951 . S
H1778 C1798 0.950 . S
H1779 C1799 0.950 . S
H1780 C1801 0.950 . S
H1781 C1804 0.950 . S
H1782 C1805 0.950 . S
H1783 C1807 0.950 . S
H1784 C1808 0.950 . S
H1785 C1809 0.951 . S
H1786 C1811 0.951 . S
H1787 C1813 0.950 . S
H1788 C1814 0.950 . S
H1789 C1816 0.950 . S
H1790 C1819 0.950 . S
H1791 C1820 0.950 . S
H1792 C1822 0.950 . S
H1793 C1823 0.950 . S
C1794 H1776 0.951 . S
C1794 C1795 1.366 . S
C1794 C1796 1.388 . S
C1795 C1794 1.366 . S
C1795 C1799 1.385 . S
C1796 H1777 0.951 . S
C1796 C1794 1.388 . S
C1796 C1797 1.366 . S
C1797 C1796 1.366 . S
C1797 C1798 1.414 . S
C1797 C1800 1.499 . S
C1798 H1778 0.950 . S
C1798 C1797 1.414 . S
C1798 C1799 1.374 . S
C1799 H1779 0.950 . S
C1799 C1795 1.385 . S
C1799 C1798 1.374 . S
C1800 C1797 1.499 . S
C1800 C1801 1.373 . S
C1800 C1802 1.389 . S
C1801 H1780 0.950 . S
C1801 C1800 1.373 . S
C1801 C1817 1.377 . S
C1802 C1800 1.389 . S
C1802 C1803 1.524 . S
C1802 C1816 1.377 . S
C1803 C1802 1.524 . S
C1803 C1804 1.397 . S
C1803 C1808 1.363 . S
C1804 H1781 0.950 . S
C1804 C1803 1.397 . S
C1804 C1805 1.334 . S
C1805 H1782 0.950 . S
C1805 C1804 1.334 . S
C1805 C1806 1.287 . S
C1806 C1805 1.287 . S
C1806 C1807 1.524 . S
C1806 H1825 0.913 . S
C1807 H1783 0.950 . S
C1807 C1806 1.524 . S
C1807 C1808 1.415 . S
C1808 H1784 0.950 . S
C1808 C1803 1.363 . S
C1808 C1807 1.415 . S
C1809 H1785 0.951 . S
C1809 C1810 1.366 . S
C1809 C1811 1.388 . S
C1810 C1809 1.366 . S
C1810 C1814 1.385 . S
C1811 H1786 0.951 . S
C1811 C1809 1.388 . S
C1811 C1812 1.366 . S
C1812 C1811 1.366 . S
C1812 C1813 1.414 . S
C1812 C1815 1.499 . S
C1813 H1787 0.950 . S
C1813 C1812 1.414 . S
C1813 C1814 1.374 . S
C1814 H1788 0.950 . S
C1814 C1810 1.385 . S
C1814 C1813 1.374 . S
C1815 C1812 1.499 . S
C1815 C1816 1.373 . S
C1815 C1817 1.389 . S
C1816 H1789 0.950 . S
C1816 C1802 1.377 . S
C1816 C1815 1.373 . S
C1817 C1801 1.377 . S
C1817 C1815 1.389 . S
C1817 C1818 1.524 . S
C1818 C1817 1.524 . S
C1818 C1819 1.397 . S
C1818 C1823 1.363 . S
C1819 H1790 0.950 . S
C1819 C1818 1.397 . S
C1819 C1820 1.334 . S
C1820 H1791 0.950 . S
C1820 C1819 1.334 . S
C1820 C1821 1.287 . S
C1821 C1820 1.287 . S
C1821 C1822 1.524 . S
C1821 H1824 0.999 . S
C1822 H1792 0.950 . S
C1822 C1821 1.524 . S
C1822 C1823 1.415 . S
C1823 H1793 0.950 . S
C1823 C1818 1.363 . S
C1823 C1822 1.415 . S
H1824 C1821 0.999 . S
H1825 C1806 0.913 . S
H1826 C1844 0.951 . S
H1827 C1846 0.951 . S
H1828 C1848 0.950 . S
H1829 C1849 0.950 . S
H1830 C1851 0.950 . S
H1831 C1854 0.950 . S
H1832 C1855 0.950 . S
H1833 C1857 0.950 . S
H1834 C1858 0.950 . S
H1835 C1859 0.951 . S
H1836 C1861 0.951 . S
H1837 C1863 0.950 . S
H1838 C1864 0.950 . S
H1839 C1866 0.950 . S
H1840 C1869 0.950 . S
H1841 C1870 0.950 . S
H1842 C1872 0.950 . S
H1843 C1873 0.950 . S
C1844 H1826 0.951 . S
C1844 C1845 1.366 . S
C1844 C1846 1.388 . S
C1845 C1844 1.366 . S
C1845 C1849 1.385 . S
C1846 H1827 0.951 . S
C1846 C1844 1.388 . S
C1846 C1847 1.366 . S
C1847 C1846 1.366 . S
C1847 C1848 1.414 . S
C1847 C1850 1.499 . S
C1848 H1828 0.950 . S
C1848 C1847 1.414 . S
C1848 C1849 1.374 . S
C1849 H1829 0.950 . S
C1849 C1845 1.385 . S
C1849 C1848 1.374 . S
C1850 C1847 1.499 . S
C1850 C1851 1.373 . S
C1850 C1852 1.389 . S
C1851 H1830 0.950 . S
C1851 C1850 1.373 . S
C1851 C1867 1.377 . S
C1852 C1850 1.389 . S
C1852 C1853 1.524 . S
C1852 C1866 1.377 . S
C1853 C1852 1.524 . S
C1853 C1854 1.397 . S
C1853 C1858 1.363 . S
C1854 H1831 0.950 . S
C1854 C1853 1.397 . S
C1854 C1855 1.334 . S
C1855 H1832 0.950 . S
C1855 C1854 1.334 . S
C1855 C1856 1.287 . S
C1856 C1855 1.287 . S
C1856 C1857 1.524 . S
C1856 H1875 0.913 . S
C1857 H1833 0.950 . S
C1857 C1856 1.524 . S
C1857 C1858 1.415 . S
C1858 H1834 0.950 . S
C1858 C1853 1.363 . S
C1858 C1857 1.415 . S
C1859 H1835 0.951 . S
C1859 C1860 1.366 . S
C1859 C1861 1.388 . S
C1860 C1859 1.366 . S
C1860 C1864 1.385 . S
C1861 H1836 0.951 . S
C1861 C1859 1.388 . S
C1861 C1862 1.366 . S
C1862 C1861 1.366 . S
C1862 C1863 1.414 . S
C1862 C1865 1.499 . S
C1863 H1837 0.950 . S
C1863 C1862 1.414 . S
C1863 C1864 1.374 . S
C1864 H1838 0.950 . S
C1864 C1860 1.385 . S
C1864 C1863 1.374 . S
C1865 C1862 1.499 . S
C1865 C1866 1.373 . S
C1865 C1867 1.389 . S
C1866 H1839 0.950 . S
C1866 C1852 1.377 . S
C1866 C1865 1.373 . S
C1867 C1851 1.377 . S
C1867 C1865 1.389 . S
C1867 C1868 1.524 . S
C1868 C1867 1.524 . S
C1868 C1869 1.397 . S
C1868 C1873 1.363 . S
C1869 H1840 0.950 . S
C1869 C1868 1.397 . S
C1869 C1870 1.334 . S
C1870 H1841 0.950 . S
C1870 C1869 1.334 . S
C1870 C1871 1.287 . S
C1871 C1870 1.287 . S
C1871 C1872 1.524 . S
C1871 H1874 0.999 . S
C1872 H1842 0.950 . S
C1872 C1871 1.524 . S
C1872 C1873 1.415 . S
C1873 H1843 0.950 . S
C1873 C1868 1.363 . S
C1873 C1872 1.415 . S
H1874 C1871 0.999 . S
H1875 C1856 0.913 . S
H1876 C1894 0.951 . S
H1877 C1896 0.951 . S
H1878 C1898 0.950 . S
H1879 C1899 0.950 . S
H1880 C1901 0.950 . S
H1881 C1904 0.950 . S
H1882 C1905 0.950 . S
H1883 C1907 0.950 . S
H1884 C1908 0.950 . S
H1885 C1909 0.951 . S
H1886 C1911 0.951 . S
H1887 C1913 0.950 . S
H1888 C1914 0.950 . S
H1889 C1916 0.950 . S
H1890 C1919 0.950 . S
H1891 C1920 0.950 . S
H1892 C1922 0.950 . S
H1893 C1923 0.950 . S
C1894 H1876 0.951 . S
C1894 C1895 1.366 . S
C1894 C1896 1.388 . S
C1895 C1894 1.366 . S
C1895 C1899 1.385 . S
C1896 H1877 0.951 . S
C1896 C1894 1.388 . S
C1896 C1897 1.366 . S
C1897 C1896 1.366 . S
C1897 C1898 1.414 . S
C1897 C1900 1.499 . S
C1898 H1878 0.950 . S
C1898 C1897 1.414 . S
C1898 C1899 1.374 . S
C1899 H1879 0.950 . S
C1899 C1895 1.385 . S
C1899 C1898 1.374 . S
C1900 C1897 1.499 . S
C1900 C1901 1.373 . S
C1900 C1902 1.389 . S
C1901 H1880 0.950 . S
C1901 C1900 1.373 . S
C1901 C1917 1.377 . S
C1902 C1900 1.389 . S
C1902 C1903 1.524 . S
C1902 C1916 1.377 . S
C1903 C1902 1.524 . S
C1903 C1904 1.397 . S
C1903 C1908 1.363 . S
C1904 H1881 0.950 . S
C1904 C1903 1.397 . S
C1904 C1905 1.334 . S
C1905 H1882 0.950 . S
C1905 C1904 1.334 . S
C1905 C1906 1.287 . S
C1906 C1905 1.287 . S
C1906 C1907 1.524 . S
C1906 H1925 0.913 . S
C1907 H1883 0.950 . S
C1907 C1906 1.524 . S
C1907 C1908 1.415 . S
C1908 H1884 0.950 . S
C1908 C1903 1.363 . S
C1908 C1907 1.415 . S
C1909 H1885 0.951 . S
C1909 C1910 1.366 . S
C1909 C1911 1.388 . S
C1910 C1909 1.366 . S
C1910 C1914 1.385 . S
C1911 H1886 0.951 . S
C1911 C1909 1.388 . S
C1911 C1912 1.366 . S
C1912 C1911 1.366 . S
C1912 C1913 1.414 . S
C1912 C1915 1.499 . S
C1913 H1887 0.950 . S
C1913 C1912 1.414 . S
C1913 C1914 1.374 . S
C1914 H1888 0.950 . S
C1914 C1910 1.385 . S
C1914 C1913 1.374 . S
C1915 C1912 1.499 . S
C1915 C1916 1.373 . S
C1915 C1917 1.389 . S
C1916 H1889 0.950 . S
C1916 C1902 1.377 . S
C1916 C1915 1.373 . S
C1917 C1901 1.377 . S
C1917 C1915 1.389 . S
C1917 C1918 1.524 . S
C1918 C1917 1.524 . S
C1918 C1919 1.397 . S
C1918 C1923 1.363 . S
C1919 H1890 0.950 . S
C1919 C1918 1.397 . S
C1919 C1920 1.334 . S
C1920 H1891 0.950 . S
C1920 C1919 1.334 . S
C1920 C1921 1.287 . S
C1921 C1920 1.287 . S
C1921 C1922 1.524 . S
C1921 H1924 0.999 . S
C1922 H1892 0.950 . S
C1922 C1921 1.524 . S
C1922 C1923 1.415 . S
C1923 H1893 0.950 . S
C1923 C1918 1.363 . S
C1923 C1922 1.415 . S
H1924 C1921 0.999 . S
H1925 C1906 0.913 . S
H1926 C1944 0.951 . S
H1927 C1946 0.951 . S
H1928 C1948 0.950 . S
H1929 C1949 0.950 . S
H1930 C1951 0.950 . S
H1931 C1954 0.950 . S
H1932 C1955 0.950 . S
H1933 C1957 0.950 . S
H1934 C1958 0.950 . S
H1935 C1959 0.951 . S
H1936 C1961 0.951 . S
H1937 C1963 0.950 . S
H1938 C1964 0.950 . S
H1939 C1966 0.950 . S
H1940 C1969 0.950 . S
H1941 C1970 0.950 . S
H1942 C1972 0.950 . S
H1943 C1973 0.950 . S
C1944 H1926 0.951 . S
C1944 C1945 1.366 . S
C1944 C1946 1.388 . S
C1945 C1944 1.366 . S
C1945 C1949 1.385 . S
C1946 H1927 0.951 . S
C1946 C1944 1.388 . S
C1946 C1947 1.366 . S
C1947 C1946 1.366 . S
C1947 C1948 1.414 . S
C1947 C1950 1.499 . S
C1948 H1928 0.950 . S
C1948 C1947 1.414 . S
C1948 C1949 1.374 . S
C1949 H1929 0.950 . S
C1949 C1945 1.385 . S
C1949 C1948 1.374 . S
C1950 C1947 1.499 . S
C1950 C1951 1.373 . S
C1950 C1952 1.389 . S
C1951 H1930 0.950 . S
C1951 C1950 1.373 . S
C1951 C1967 1.377 . S
C1952 C1950 1.389 . S
C1952 C1953 1.524 . S
C1952 C1966 1.377 . S
C1953 C1952 1.524 . S
C1953 C1954 1.397 . S
C1953 C1958 1.363 . S
C1954 H1931 0.950 . S
C1954 C1953 1.397 . S
C1954 C1955 1.334 . S
C1955 H1932 0.950 . S
C1955 C1954 1.334 . S
C1955 C1956 1.287 . S
C1956 C1955 1.287 . S
C1956 C1957 1.524 . S
C1956 H1975 0.913 . S
C1957 H1933 0.950 . S
C1957 C1956 1.524 . S
C1957 C1958 1.415 . S
C1958 H1934 0.950 . S
C1958 C1953 1.363 . S
C1958 C1957 1.415 . S
C1959 H1935 0.951 . S
C1959 C1960 1.366 . S
C1959 C1961 1.388 . S
C1960 C1959 1.366 . S
C1960 C1964 1.385 . S
C1961 H1936 0.951 . S
C1961 C1959 1.388 . S
C1961 C1962 1.366 . S
C1962 C1961 1.366 . S
C1962 C1963 1.414 . S
C1962 C1965 1.499 . S
C1963 H1937 0.950 . S
C1963 C1962 1.414 . S
C1963 C1964 1.374 . S
C1964 H1938 0.950 . S
C1964 C1960 1.385 . S
C1964 C1963 1.374 . S
C1965 C1962 1.499 . S
C1965 C1966 1.373 . S
C1965 C1967 1.389 . S
C1966 H1939 0.950 . S
C1966 C1952 1.377 . S
C1966 C1965 1.373 . S
C1967 C1951 1.377 . S
C1967 C1965 1.389 . S
C1967 C1968 1.524 . S
C1968 C1967 1.524 . S
C1968 C1969 1.397 . S
C1968 C1973 1.363 . S
C1969 H1940 0.950 . S
C1969 C1968 1.397 . S
C1969 C1970 1.334 . S
C1970 H1941 0.950 . S
C1970 C1969 1.334 . S
C1970 C1971 1.287 . S
C1971 C1970 1.287 . S
C1971 C1972 1.524 . S
C1971 H1974 0.999 . S
C1972 H1942 0.950 . S
C1972 C1971 1.524 . S
C1972 C1973 1.415 . S
C1973 H1943 0.950 . S
C1973 C1968 1.363 . S
C1973 C1972 1.415 . S
H1974 C1971 0.999 . S
H1975 C1956 0.913 . S
H1976 C1994 0.951 . S
H1977 C1996 0.951 . S
H1978 C1998 0.950 . S
H1979 C1999 0.950 . S
H1980 C2001 0.950 . S
H1981 C2004 0.950 . S
H1982 C2005 0.950 . S
H1983 C2007 0.950 . S
H1984 C2008 0.950 . S
H1985 C2009 0.951 . S
H1986 C2011 0.951 . S
H1987 C2013 0.950 . S
H1988 C2014 0.950 . S
H1989 C2016 0.950 . S
H1990 C2019 0.950 . S
H1991 C2020 0.950 . S
H1992 C2022 0.950 . S
H1993 C2023 0.950 . S
C1994 H1976 0.951 . S
C1994 C1995 1.366 . S
C1994 C1996 1.388 . S
C1995 C1994 1.366 . S
C1995 C1999 1.385 . S
C1996 H1977 0.951 . S
C1996 C1994 1.388 . S
C1996 C1997 1.366 . S
C1997 C1996 1.366 . S
C1997 C1998 1.414 . S
C1997 C2000 1.499 . S
C1998 H1978 0.950 . S
C1998 C1997 1.414 . S
C1998 C1999 1.374 . S
C1999 H1979 0.950 . S
C1999 C1995 1.385 . S
C1999 C1998 1.374 . S
C2000 C1997 1.499 . S
C2000 C2001 1.373 . S
C2000 C2002 1.389 . S
C2001 H1980 0.950 . S
C2001 C2000 1.373 . S
C2001 C2017 1.377 . S
C2002 C2000 1.389 . S
C2002 C2003 1.524 . S
C2002 C2016 1.377 . S
C2003 C2002 1.524 . S
C2003 C2004 1.397 . S
C2003 C2008 1.363 . S
C2004 H1981 0.950 . S
C2004 C2003 1.397 . S
C2004 C2005 1.334 . S
C2005 H1982 0.950 . S
C2005 C2004 1.334 . S
C2005 C2006 1.287 . S
C2006 C2005 1.287 . S
C2006 C2007 1.524 . S
C2006 H2025 0.913 . S
C2007 H1983 0.950 . S
C2007 C2006 1.524 . S
C2007 C2008 1.415 . S
C2008 H1984 0.950 . S
C2008 C2003 1.363 . S
C2008 C2007 1.415 . S
C2009 H1985 0.951 . S
C2009 C2010 1.366 . S
C2009 C2011 1.388 . S
C2010 C2009 1.366 . S
C2010 C2014 1.385 . S
C2011 H1986 0.951 . S
C2011 C2009 1.388 . S
C2011 C2012 1.366 . S
C2012 C2011 1.366 . S
C2012 C2013 1.414 . S
C2012 C2015 1.499 . S
C2013 H1987 0.950 . S
C2013 C2012 1.414 . S
C2013 C2014 1.374 . S
C2014 H1988 0.950 . S
C2014 C2010 1.385 . S
C2014 C2013 1.374 . S
C2015 C2012 1.499 . S
C2015 C2016 1.373 . S
C2015 C2017 1.389 . S
C2016 H1989 0.950 . S
C2016 C2002 1.377 . S
C2016 C2015 1.373 . S
C2017 C2001 1.377 . S
C2017 C2015 1.389 . S
C2017 C2018 1.524 . S
C2018 C2017 1.524 . S
C2018 C2019 1.397 . S
C2018 C2023 1.363 . S
C2019 H1990 0.950 . S
C2019 C2018 1.397 . S
C2019 C2020 1.334 . S
C2020 H1991 0.950 . S
C2020 C2019 1.334 . S
C2020 C2021 1.287 . S
C2021 C2020 1.287 . S
C2021 C2022 1.524 . S
C2021 H2024 0.999 . S
C2022 H1992 0.950 . S
C2022 C2021 1.524 . S
C2022 C2023 1.415 . S
C2023 H1993 0.950 . S
C2023 C2018 1.363 . S
C2023 C2022 1.415 . S
H2024 C2021 0.999 . S
H2025 C2006 0.913 . S
H2026 C2044 0.951 . S
H2027 C2046 0.951 . S
H2028 C2048 0.950 . S
H2029 C2049 0.950 . S
H2030 C2051 0.950 . S
H2031 C2054 0.950 . S
H2032 C2055 0.950 . S
H2033 C2057 0.950 . S
H2034 C2058 0.950 . S
H2035 C2059 0.951 . S
H2036 C2061 0.951 . S
H2037 C2063 0.950 . S
H2038 C2064 0.950 . S
H2039 C2066 0.950 . S
H2040 C2069 0.950 . S
H2041 C2070 0.950 . S
H2042 C2072 0.950 . S
H2043 C2073 0.950 . S
C2044 H2026 0.951 . S
C2044 C2045 1.366 . S
C2044 C2046 1.388 . S
C2045 C2044 1.366 . S
C2045 C2049 1.385 . S
C2046 H2027 0.951 . S
C2046 C2044 1.388 . S
C2046 C2047 1.366 . S
C2047 C2046 1.366 . S
C2047 C2048 1.414 . S
C2047 C2050 1.499 . S
C2048 H2028 0.950 . S
C2048 C2047 1.414 . S
C2048 C2049 1.374 . S
C2049 H2029 0.950 . S
C2049 C2045 1.385 . S
C2049 C2048 1.374 . S
C2050 C2047 1.499 . S
C2050 C2051 1.373 . S
C2050 C2052 1.389 . S
C2051 H2030 0.950 . S
C2051 C2050 1.373 . S
C2051 C2067 1.377 . S
C2052 C2050 1.389 . S
C2052 C2053 1.524 . S
C2052 C2066 1.377 . S
C2053 C2052 1.524 . S
C2053 C2054 1.397 . S
C2053 C2058 1.363 . S
C2054 H2031 0.950 . S
C2054 C2053 1.397 . S
C2054 C2055 1.334 . S
C2055 H2032 0.950 . S
C2055 C2054 1.334 . S
C2055 C2056 1.287 . S
C2056 C2055 1.287 . S
C2056 C2057 1.524 . S
C2056 H2075 0.913 . S
C2057 H2033 0.950 . S
C2057 C2056 1.524 . S
C2057 C2058 1.415 . S
C2058 H2034 0.950 . S
C2058 C2053 1.363 . S
C2058 C2057 1.415 . S
C2059 H2035 0.951 . S
C2059 C2060 1.366 . S
C2059 C2061 1.388 . S
C2060 C2059 1.366 . S
C2060 C2064 1.385 . S
C2061 H2036 0.951 . S
C2061 C2059 1.388 . S
C2061 C2062 1.366 . S
C2062 C2061 1.366 . S
C2062 C2063 1.414 . S
C2062 C2065 1.499 . S
C2063 H2037 0.950 . S
C2063 C2062 1.414 . S
C2063 C2064 1.374 . S
C2064 H2038 0.950 . S
C2064 C2060 1.385 . S
C2064 C2063 1.374 . S
C2065 C2062 1.499 . S
C2065 C2066 1.373 . S
C2065 C2067 1.389 . S
C2066 H2039 0.950 . S
C2066 C2052 1.377 . S
C2066 C2065 1.373 . S
C2067 C2051 1.377 . S
C2067 C2065 1.389 . S
C2067 C2068 1.524 . S
C2068 C2067 1.524 . S
C2068 C2069 1.397 . S
C2068 C2073 1.363 . S
C2069 H2040 0.950 . S
C2069 C2068 1.397 . S
C2069 C2070 1.334 . S
C2070 H2041 0.950 . S
C2070 C2069 1.334 . S
C2070 C2071 1.287 . S
C2071 C2070 1.287 . S
C2071 C2072 1.524 . S
C2071 H2074 0.999 . S
C2072 H2042 0.950 . S
C2072 C2071 1.524 . S
C2072 C2073 1.415 . S
C2073 H2043 0.950 . S
C2073 C2068 1.363 . S
C2073 C2072 1.415 . S
H2074 C2071 0.999 . S
H2075 C2056 0.913 . S
H2076 C2094 0.951 . S
H2077 C2096 0.951 . S
H2078 C2098 0.950 . S
H2079 C2099 0.950 . S
H2080 C2101 0.950 . S
H2081 C2104 0.950 . S
H2082 C2105 0.950 . S
H2083 C2107 0.950 . S
H2084 C2108 0.950 . S
H2085 C2109 0.951 . S
H2086 C2111 0.951 . S
H2087 C2113 0.950 . S
H2088 C2114 0.950 . S
H2089 C2116 0.950 . S
H2090 C2119 0.950 . S
H2091 C2120 0.950 . S
H2092 C2122 0.950 . S
H2093 C2123 0.950 . S
C2094 H2076 0.951 . S
C2094 C2095 1.366 . S
C2094 C2096 1.388 . S
C2095 C2094 1.366 . S
C2095 C2099 1.385 . S
C2096 H2077 0.951 . S
C2096 C2094 1.388 . S
C2096 C2097 1.366 . S
C2097 C2096 1.366 . S
C2097 C2098 1.414 . S
C2097 C2100 1.499 . S
C2098 H2078 0.950 . S
C2098 C2097 1.414 . S
C2098 C2099 1.374 . S
C2099 H2079 0.950 . S
C2099 C2095 1.385 . S
C2099 C2098 1.374 . S
C2100 C2097 1.499 . S
C2100 C2101 1.373 . S
C2100 C2102 1.389 . S
C2101 H2080 0.950 . S
C2101 C2100 1.373 . S
C2101 C2117 1.377 . S
C2102 C2100 1.389 . S
C2102 C2103 1.524 . S
C2102 C2116 1.377 . S
C2103 C2102 1.524 . S
C2103 C2104 1.397 . S
C2103 C2108 1.363 . S
C2104 H2081 0.950 . S
C2104 C2103 1.397 . S
C2104 C2105 1.334 . S
C2105 H2082 0.950 . S
C2105 C2104 1.334 . S
C2105 C2106 1.287 . S
C2106 C2105 1.287 . S
C2106 C2107 1.524 . S
C2106 H2125 0.913 . S
C2107 H2083 0.950 . S
C2107 C2106 1.524 . S
C2107 C2108 1.415 . S
C2108 H2084 0.950 . S
C2108 C2103 1.363 . S
C2108 C2107 1.415 . S
C2109 H2085 0.951 . S
C2109 C2110 1.366 . S
C2109 C2111 1.388 . S
C2110 C2109 1.366 . S
C2110 C2114 1.385 . S
C2111 H2086 0.951 . S
C2111 C2109 1.388 . S
C2111 C2112 1.366 . S
C2112 C2111 1.366 . S
C2112 C2113 1.414 . S
C2112 C2115 1.499 . S
C2113 H2087 0.950 . S
C2113 C2112 1.414 . S
C2113 C2114 1.374 . S
C2114 H2088 0.950 . S
C2114 C2110 1.385 . S
C2114 C2113 1.374 . S
C2115 C2112 1.499 . S
C2115 C2116 1.373 . S
C2115 C2117 1.389 . S
C2116 H2089 0.950 . S
C2116 C2102 1.377 . S
C2116 C2115 1.373 . S
C2117 C2101 1.377 . S
C2117 C2115 1.389 . S
C2117 C2118 1.524 . S
C2118 C2117 1.524 . S
C2118 C2119 1.397 . S
C2118 C2123 1.363 . S
C2119 H2090 0.950 . S
C2119 C2118 1.397 . S
C2119 C2120 1.334 . S
C2120 H2091 0.950 . S
C2120 C2119 1.334 . S
C2120 C2121 1.287 . S
C2121 C2120 1.287 . S
C2121 C2122 1.524 . S
C2121 H2124 0.999 . S
C2122 H2092 0.950 . S
C2122 C2121 1.524 . S
C2122 C2123 1.415 . S
C2123 H2093 0.950 . S
C2123 C2118 1.363 . S
C2123 C2122 1.415 . S
H2124 C2121 0.999 . S
H2125 C2106 0.913 . S
H2126 C2144 0.951 . S
H2127 C2146 0.951 . S
H2128 C2148 0.950 . S
H2129 C2149 0.950 . S
H2130 C2151 0.950 . S
H2131 C2154 0.950 . S
H2132 C2155 0.950 . S
H2133 C2157 0.950 . S
H2134 C2158 0.950 . S
H2135 C2159 0.951 . S
H2136 C2161 0.951 . S
H2137 C2163 0.950 . S
H2138 C2164 0.950 . S
H2139 C2166 0.950 . S
H2140 C2169 0.950 . S
H2141 C2170 0.950 . S
H2142 C2172 0.950 . S
H2143 C2173 0.950 . S
C2144 H2126 0.951 . S
C2144 C2145 1.366 . S
C2144 C2146 1.388 . S
C2145 C2144 1.366 . S
C2145 C2149 1.385 . S
C2146 H2127 0.951 . S
C2146 C2144 1.388 . S
C2146 C2147 1.366 . S
C2147 C2146 1.366 . S
C2147 C2148 1.414 . S
C2147 C2150 1.499 . S
C2148 H2128 0.950 . S
C2148 C2147 1.414 . S
C2148 C2149 1.374 . S
C2149 H2129 0.950 . S
C2149 C2145 1.385 . S
C2149 C2148 1.374 . S
C2150 C2147 1.499 . S
C2150 C2151 1.373 . S
C2150 C2152 1.389 . S
C2151 H2130 0.950 . S
C2151 C2150 1.373 . S
C2151 C2167 1.377 . S
C2152 C2150 1.389 . S
C2152 C2153 1.524 . S
C2152 C2166 1.377 . S
C2153 C2152 1.524 . S
C2153 C2154 1.397 . S
C2153 C2158 1.363 . S
C2154 H2131 0.950 . S
C2154 C2153 1.397 . S
C2154 C2155 1.334 . S
C2155 H2132 0.950 . S
C2155 C2154 1.334 . S
C2155 C2156 1.287 . S
C2156 C2155 1.287 . S
C2156 C2157 1.524 . S
C2156 H2175 0.913 . S
C2157 H2133 0.950 . S
C2157 C2156 1.524 . S
C2157 C2158 1.415 . S
C2158 H2134 0.950 . S
C2158 C2153 1.363 . S
C2158 C2157 1.415 . S
C2159 H2135 0.951 . S
C2159 C2160 1.366 . S
C2159 C2161 1.388 . S
C2160 C2159 1.366 . S
C2160 C2164 1.385 . S
C2161 H2136 0.951 . S
C2161 C2159 1.388 . S
C2161 C2162 1.366 . S
C2162 C2161 1.366 . S
C2162 C2163 1.414 . S
C2162 C2165 1.499 . S
C2163 H2137 0.950 . S
C2163 C2162 1.414 . S
C2163 C2164 1.374 . S
C2164 H2138 0.950 . S
C2164 C2160 1.385 . S
C2164 C2163 1.374 . S
C2165 C2162 1.499 . S
C2165 C2166 1.373 . S
C2165 C2167 1.389 . S
C2166 H2139 0.950 . S
C2166 C2152 1.377 . S
C2166 C2165 1.373 . S
C2167 C2151 1.377 . S
C2167 C2165 1.389 . S
C2167 C2168 1.524 . S
C2168 C2167 1.524 . S
C2168 C2169 1.397 . S
C2168 C2173 1.363 . S
C2169 H2140 0.950 . S
C2169 C2168 1.397 . S
C2169 C2170 1.334 . S
C2170 H2141 0.950 . S
C2170 C2169 1.334 . S
C2170 C2171 1.287 . S
C2171 C2170 1.287 . S
C2171 C2172 1.524 . S
C2171 H2174 0.999 . S
C2172 H2142 0.950 . S
C2172 C2171 1.524 . S
C2172 C2173 1.415 . S
C2173 H2143 0.950 . S
C2173 C2168 1.363 . S
C2173 C2172 1.415 . S
H2174 C2171 0.999 . S
H2175 C2156 0.913 . S
H2176 C2194 0.951 . S
H2177 C2196 0.951 . S
H2178 C2198 0.950 . S
H2179 C2199 0.950 . S
H2180 C2201 0.950 . S
H2181 C2204 0.950 . S
H2182 C2205 0.950 . S
H2183 C2207 0.950 . S
H2184 C2208 0.950 . S
H2185 C2209 0.951 . S
H2186 C2211 0.951 . S
H2187 C2213 0.950 . S
H2188 C2214 0.950 . S
H2189 C2216 0.950 . S
H2190 C2219 0.950 . S
H2191 C2220 0.950 . S
H2192 C2222 0.950 . S
H2193 C2223 0.950 . S
C2194 H2176 0.951 . S
C2194 C2195 1.366 . S
C2194 C2196 1.388 . S
C2195 C2194 1.366 . S
C2195 C2199 1.385 . S
C2196 H2177 0.951 . S
C2196 C2194 1.388 . S
C2196 C2197 1.366 . S
C2197 C2196 1.366 . S
C2197 C2198 1.414 . S
C2197 C2200 1.499 . S
C2198 H2178 0.950 . S
C2198 C2197 1.414 . S
C2198 C2199 1.374 . S
C2199 H2179 0.950 . S
C2199 C2195 1.385 . S
C2199 C2198 1.374 . S
C2200 C2197 1.499 . S
C2200 C2201 1.373 . S
C2200 C2202 1.389 . S
C2201 H2180 0.950 . S
C2201 C2200 1.373 . S
C2201 C2217 1.377 . S
C2202 C2200 1.389 . S
C2202 C2203 1.524 . S
C2202 C2216 1.377 . S
C2203 C2202 1.524 . S
C2203 C2204 1.397 . S
C2203 C2208 1.363 . S
C2204 H2181 0.950 . S
C2204 C2203 1.397 . S
C2204 C2205 1.334 . S
C2205 H2182 0.950 . S
C2205 C2204 1.334 . S
C2205 C2206 1.287 . S
C2206 C2205 1.287 . S
C2206 C2207 1.524 . S
C2206 H2225 0.913 . S
C2207 H2183 0.950 . S
C2207 C2206 1.524 . S
C2207 C2208 1.415 . S
C2208 H2184 0.950 . S
C2208 C2203 1.363 . S
C2208 C2207 1.415 . S
C2209 H2185 0.951 . S
C2209 C2210 1.366 . S
C2209 C2211 1.388 . S
C2210 C2209 1.366 . S
C2210 C2214 1.385 . S
C2211 H2186 0.951 . S
C2211 C2209 1.388 . S
C2211 C2212 1.366 . S
C2212 C2211 1.366 . S
C2212 C2213 1.414 . S
C2212 C2215 1.499 . S
C2213 H2187 0.950 . S
C2213 C2212 1.414 . S
C2213 C2214 1.374 . S
C2214 H2188 0.950 . S
C2214 C2210 1.385 . S
C2214 C2213 1.374 . S
C2215 C2212 1.499 . S
C2215 C2216 1.373 . S
C2215 C2217 1.389 . S
C2216 H2189 0.950 . S
C2216 C2202 1.377 . S
C2216 C2215 1.373 . S
C2217 C2201 1.377 . S
C2217 C2215 1.389 . S
C2217 C2218 1.524 . S
C2218 C2217 1.524 . S
C2218 C2219 1.397 . S
C2218 C2223 1.363 . S
C2219 H2190 0.950 . S
C2219 C2218 1.397 . S
C2219 C2220 1.334 . S
C2220 H2191 0.950 . S
C2220 C2219 1.334 . S
C2220 C2221 1.287 . S
C2221 C2220 1.287 . S
C2221 C2222 1.524 . S
C2221 H2224 0.999 . S
C2222 H2192 0.950 . S
C2222 C2221 1.524 . S
C2222 C2223 1.415 . S
C2223 H2193 0.950 . S
C2223 C2218 1.363 . S
C2223 C2222 1.415 . S
H2224 C2221 0.999 . S
H2225 C2206 0.913 . S
H2226 C2244 0.951 . S
H2227 C2246 0.951 . S
H2228 C2248 0.950 . S
H2229 C2249 0.950 . S
H2230 C2251 0.950 . S
H2231 C2254 0.950 . S
H2232 C2255 0.950 . S
H2233 C2257 0.950 . S
H2234 C2258 0.950 . S
H2235 C2259 0.951 . S
H2236 C2261 0.951 . S
H2237 C2263 0.950 . S
H2238 C2264 0.950 . S
H2239 C2266 0.950 . S
H2240 C2269 0.950 . S
H2241 C2270 0.950 . S
H2242 C2272 0.950 . S
H2243 C2273 0.950 . S
C2244 H2226 0.951 . S
C2244 C2245 1.366 . S
C2244 C2246 1.388 . S
C2245 C2244 1.366 . S
C2245 C2249 1.385 . S
C2246 H2227 0.951 . S
C2246 C2244 1.388 . S
C2246 C2247 1.366 . S
C2247 C2246 1.366 . S
C2247 C2248 1.414 . S
C2247 C2250 1.499 . S
C2248 H2228 0.950 . S
C2248 C2247 1.414 . S
C2248 C2249 1.374 . S
C2249 H2229 0.950 . S
C2249 C2245 1.385 . S
C2249 C2248 1.374 . S
C2250 C2247 1.499 . S
C2250 C2251 1.373 . S
C2250 C2252 1.389 . S
C2251 H2230 0.950 . S
C2251 C2250 1.373 . S
C2251 C2267 1.377 . S
C2252 C2250 1.389 . S
C2252 C2253 1.524 . S
C2252 C2266 1.377 . S
C2253 C2252 1.524 . S
C2253 C2254 1.397 . S
C2253 C2258 1.363 . S
C2254 H2231 0.950 . S
C2254 C2253 1.397 . S
C2254 C2255 1.334 . S
C2255 H2232 0.950 . S
C2255 C2254 1.334 . S
C2255 C2256 1.287 . S
C2256 C2255 1.287 . S
C2256 C2257 1.524 . S
C2256 H2275 0.913 . S
C2257 H2233 0.950 . S
C2257 C2256 1.524 . S
C2257 C2258 1.415 . S
C2258 H2234 0.950 . S
C2258 C2253 1.363 . S
C2258 C2257 1.415 . S
C2259 H2235 0.951 . S
C2259 C2260 1.366 . S
C2259 C2261 1.388 . S
C2260 C2259 1.366 . S
C2260 C2264 1.385 . S
C2261 H2236 0.951 . S
C2261 C2259 1.388 . S
C2261 C2262 1.366 . S
C2262 C2261 1.366 . S
C2262 C2263 1.414 . S
C2262 C2265 1.499 . S
C2263 H2237 0.950 . S
C2263 C2262 1.414 . S
C2263 C2264 1.374 . S
C2264 H2238 0.950 . S
C2264 C2260 1.385 . S
C2264 C2263 1.374 . S
C2265 C2262 1.499 . S
C2265 C2266 1.373 . S
C2265 C2267 1.389 . S
C2266 H2239 0.950 . S
C2266 C2252 1.377 . S
C2266 C2265 1.373 . S
C2267 C2251 1.377 . S
C2267 C2265 1.389 . S
C2267 C2268 1.524 . S
C2268 C2267 1.524 . S
C2268 C2269 1.397 . S
C2268 C2273 1.363 . S
C2269 H2240 0.950 . S
C2269 C2268 1.397 . S
C2269 C2270 1.334 . S
C2270 H2241 0.950 . S
C2270 C2269 1.334 . S
C2270 C2271 1.287 . S
C2271 C2270 1.287 . S
C2271 C2272 1.524 . S
C2271 H2274 0.999 . S
C2272 H2242 0.950 . S
C2272 C2271 1.524 . S
C2272 C2273 1.415 . S
C2273 H2243 0.950 . S
C2273 C2268 1.363 . S
C2273 C2272 1.415 . S
H2274 C2271 0.999 . S
H2275 C2256 0.913 . S
H2276 C2294 0.951 . S
H2277 C2296 0.951 . S
H2278 C2298 0.950 . S
H2279 C2299 0.950 . S
H2280 C2301 0.950 . S
H2281 C2304 0.950 . S
H2282 C2305 0.950 . S
H2283 C2307 0.950 . S
H2284 C2308 0.950 . S
H2285 C2309 0.951 . S
H2286 C2311 0.951 . S
H2287 C2313 0.950 . S
H2288 C2314 0.950 . S
H2289 C2316 0.950 . S
H2290 C2319 0.950 . S
H2291 C2320 0.950 . S
H2292 C2322 0.950 . S
H2293 C2323 0.950 . S
C2294 H2276 0.951 . S
C2294 C2295 1.366 . S
C2294 C2296 1.388 . S
C2295 C2294 1.366 . S
C2295 C2299 1.385 . S
C2296 H2277 0.951 . S
C2296 C2294 1.388 . S
C2296 C2297 1.366 . S
C2297 C2296 1.366 . S
C2297 C2298 1.414 . S
C2297 C2300 1.499 . S
C2298 H2278 0.950 . S
C2298 C2297 1.414 . S
C2298 C2299 1.374 . S
C2299 H2279 0.950 . S
C2299 C2295 1.385 . S
C2299 C2298 1.374 . S
C2300 C2297 1.499 . S
C2300 C2301 1.373 . S
C2300 C2302 1.389 . S
C2301 H2280 0.950 . S
C2301 C2300 1.373 . S
C2301 C2317 1.377 . S
C2302 C2300 1.389 . S
C2302 C2303 1.524 . S
C2302 C2316 1.377 . S
C2303 C2302 1.524 . S
C2303 C2304 1.397 . S
C2303 C2308 1.363 . S
C2304 H2281 0.950 . S
C2304 C2303 1.397 . S
C2304 C2305 1.334 . S
C2305 H2282 0.950 . S
C2305 C2304 1.334 . S
C2305 C2306 1.287 . S
C2306 C2305 1.287 . S
C2306 C2307 1.524 . S
C2306 H2325 0.913 . S
C2307 H2283 0.950 . S
C2307 C2306 1.524 . S
C2307 C2308 1.415 . S
C2308 H2284 0.950 . S
C2308 C2303 1.363 . S
C2308 C2307 1.415 . S
C2309 H2285 0.951 . S
C2309 C2310 1.366 . S
C2309 C2311 1.388 . S
C2310 C2309 1.366 . S
C2310 C2314 1.385 . S
C2311 H2286 0.951 . S
C2311 C2309 1.388 . S
C2311 C2312 1.366 . S
C2312 C2311 1.366 . S
C2312 C2313 1.414 . S
C2312 C2315 1.499 . S
C2313 H2287 0.950 . S
C2313 C2312 1.414 . S
C2313 C2314 1.374 . S
C2314 H2288 0.950 . S
C2314 C2310 1.385 . S
C2314 C2313 1.374 . S
C2315 C2312 1.499 . S
C2315 C2316 1.373 . S
C2315 C2317 1.389 . S
C2316 H2289 0.950 . S
C2316 C2302 1.377 . S
C2316 C2315 1.373 . S
C2317 C2301 1.377 . S
C2317 C2315 1.389 . S
C2317 C2318 1.524 . S
C2318 C2317 1.524 . S
C2318 C2319 1.397 . S
C2318 C2323 1.363 . S
C2319 H2290 0.950 . S
C2319 C2318 1.397 . S
C2319 C2320 1.334 . S
C2320 H2291 0.950 . S
C2320 C2319 1.334 . S
C2320 C2321 1.287 . S
C2321 C2320 1.287 . S
C2321 C2322 1.524 . S
C2321 H2324 0.999 . S
C2322 H2292 0.950 . S
C2322 C2321 1.524 . S
C2322 C2323 1.415 . S
C2323 H2293 0.950 . S
C2323 C2318 1.363 . S
C2323 C2322 1.415 . S
H2324 C2321 0.999 . S
H2325 C2306 0.913 . S
H2326 C2344 0.951 . S
H2327 C2346 0.951 . S
H2328 C2348 0.950 . S
H2329 C2349 0.950 . S
H2330 C2351 0.950 . S
H2331 C2354 0.950 . S
H2332 C2355 0.950 . S
H2333 C2357 0.950 . S
H2334 C2358 0.950 . S
H2335 C2359 0.951 . S
H2336 C2361 0.951 . S
H2337 C2363 0.950 . S
H2338 C2364 0.950 . S
H2339 C2366 0.950 . S
H2340 C2369 0.950 . S
H2341 C2370 0.950 . S
H2342 C2372 0.950 . S
H2343 C2373 0.950 . S
C2344 H2326 0.951 . S
C2344 C2345 1.366 . S
C2344 C2346 1.388 . S
C2345 C2344 1.366 . S
C2345 C2349 1.385 . S
C2346 H2327 0.951 . S
C2346 C2344 1.388 . S
C2346 C2347 1.366 . S
C2347 C2346 1.366 . S
C2347 C2348 1.414 . S
C2347 C2350 1.499 . S
C2348 H2328 0.950 . S
C2348 C2347 1.414 . S
C2348 C2349 1.374 . S
C2349 H2329 0.950 . S
C2349 C2345 1.385 . S
C2349 C2348 1.374 . S
C2350 C2347 1.499 . S
C2350 C2351 1.373 . S
C2350 C2352 1.389 . S
C2351 H2330 0.950 . S
C2351 C2350 1.373 . S
C2351 C2367 1.377 . S
C2352 C2350 1.389 . S
C2352 C2353 1.524 . S
C2352 C2366 1.377 . S
C2353 C2352 1.524 . S
C2353 C2354 1.397 . S
C2353 C2358 1.363 . S
C2354 H2331 0.950 . S
C2354 C2353 1.397 . S
C2354 C2355 1.334 . S
C2355 H2332 0.950 . S
C2355 C2354 1.334 . S
C2355 C2356 1.287 . S
C2356 C2355 1.287 . S
C2356 C2357 1.524 . S
C2356 H2375 0.913 . S
C2357 H2333 0.950 . S
C2357 C2356 1.524 . S
C2357 C2358 1.415 . S
C2358 H2334 0.950 . S
C2358 C2353 1.363 . S
C2358 C2357 1.415 . S
C2359 H2335 0.951 . S
C2359 C2360 1.366 . S
C2359 C2361 1.388 . S
C2360 C2359 1.366 . S
C2360 C2364 1.385 . S
C2361 H2336 0.951 . S
C2361 C2359 1.388 . S
C2361 C2362 1.366 . S
C2362 C2361 1.366 . S
C2362 C2363 1.414 . S
C2362 C2365 1.499 . S
C2363 H2337 0.950 . S
C2363 C2362 1.414 . S
C2363 C2364 1.374 . S
C2364 H2338 0.950 . S
C2364 C2360 1.385 . S
C2364 C2363 1.374 . S
C2365 C2362 1.499 . S
C2365 C2366 1.373 . S
C2365 C2367 1.389 . S
C2366 H2339 0.950 . S
C2366 C2352 1.377 . S
C2366 C2365 1.373 . S
C2367 C2351 1.377 . S
C2367 C2365 1.389 . S
C2367 C2368 1.524 . S
C2368 C2367 1.524 . S
C2368 C2369 1.397 . S
C2368 C2373 1.363 . S
C2369 H2340 0.950 . S
C2369 C2368 1.397 . S
C2369 C2370 1.334 . S
C2370 H2341 0.950 . S
C2370 C2369 1.334 . S
C2370 C2371 1.287 . S
C2371 C2370 1.287 . S
C2371 C2372 1.524 . S
C2371 H2374 0.999 . S
C2372 H2342 0.950 . S
C2372 C2371 1.524 . S
C2372 C2373 1.415 . S
C2373 H2343 0.950 . S
C2373 C2368 1.363 . S
C2373 C2372 1.415 . S
H2374 C2371 0.999 . S
H2375 C2356 0.913 . S
H2376 C2394 0.951 . S
H2377 C2396 0.951 . S
H2378 C2398 0.950 . S
H2379 C2399 0.950 . S
H2380 C2401 0.950 . S
H2381 C2404 0.950 . S
H2382 C2405 0.950 . S
H2383 C2407 0.950 . S
H2384 C2408 0.950 . S
H2385 C2409 0.951 . S
H2386 C2411 0.951 . S
H2387 C2413 0.950 . S
H2388 C2414 0.950 . S
H2389 C2416 0.950 . S
H2390 C2419 0.950 . S
H2391 C2420 0.950 . S
H2392 C2422 0.950 . S
H2393 C2423 0.950 . S
C2394 H2376 0.951 . S
C2394 C2395 1.366 . S
C2394 C2396 1.388 . S
C2395 C2394 1.366 . S
C2395 C2399 1.385 . S
C2396 H2377 0.951 . S
C2396 C2394 1.388 . S
C2396 C2397 1.366 . S
C2397 C2396 1.366 . S
C2397 C2398 1.414 . S
C2397 C2400 1.499 . S
C2398 H2378 0.950 . S
C2398 C2397 1.414 . S
C2398 C2399 1.374 . S
C2399 H2379 0.950 . S
C2399 C2395 1.385 . S
C2399 C2398 1.374 . S
C2400 C2397 1.499 . S
C2400 C2401 1.373 . S
C2400 C2402 1.389 . S
C2401 H2380 0.950 . S
C2401 C2400 1.373 . S
C2401 C2417 1.377 . S
C2402 C2400 1.389 . S
C2402 C2403 1.524 . S
C2402 C2416 1.377 . S
C2403 C2402 1.524 . S
C2403 C2404 1.397 . S
C2403 C2408 1.363 . S
C2404 H2381 0.950 . S
C2404 C2403 1.397 . S
C2404 C2405 1.334 1_554 S
C2405 H2382 0.950 . S
C2405 C2404 1.334 1_556 S
C2405 C2406 1.287 . S
C2406 C2405 1.287 . S
C2406 C2407 1.524 . S
C2406 H2425 0.913 . S
C2407 H2383 0.950 . S
C2407 C2406 1.524 . S
C2407 C2408 1.415 1_556 S
C2408 H2384 0.950 . S
C2408 C2403 1.363 . S
C2408 C2407 1.415 1_554 S
C2409 H2385 0.951 . S
C2409 C2410 1.366 . S
C2409 C2411 1.388 . S
C2410 C2409 1.366 . S
C2410 C2414 1.385 . S
C2411 H2386 0.951 . S
C2411 C2409 1.388 . S
C2411 C2412 1.366 . S
C2412 C2411 1.366 . S
C2412 C2413 1.414 . S
C2412 C2415 1.499 . S
C2413 H2387 0.950 . S
C2413 C2412 1.414 . S
C2413 C2414 1.374 . S
C2414 H2388 0.950 . S
C2414 C2410 1.385 . S
C2414 C2413 1.374 . S
C2415 C2412 1.499 . S
C2415 C2416 1.373 . S
C2415 C2417 1.389 . S
C2416 H2389 0.950 . S
C2416 C2402 1.377 . S
C2416 C2415 1.373 . S
C2417 C2401 1.377 . S
C2417 C2415 1.389 . S
C2417 C2418 1.524 . S
C2418 C2417 1.524 . S
C2418 C2419 1.397 . S
C2418 C2423 1.363 . S
C2419 H2390 0.950 . S
C2419 C2418 1.397 . S
C2419 C2420 1.334 . S
C2420 H2391 0.950 . S
C2420 C2419 1.334 . S
C2420 C2421 1.287 . S
C2421 C2420 1.287 . S
C2421 C2422 1.524 . S
C2421 H2424 0.999 . S
C2422 H2392 0.950 . S
C2422 C2421 1.524 . S
C2422 C2423 1.415 . S
C2423 H2393 0.950 . S
C2423 C2418 1.363 . S
C2423 C2422 1.415 . S
H2424 C2421 0.999 . S
H2425 C2406 0.913 . S
H2426 C2444 0.951 . S
H2427 C2446 0.951 . S
H2428 C2448 0.950 . S
H2429 C2449 0.950 . S
H2430 C2451 0.950 . S
H2431 C2454 0.950 . S
H2432 C2455 0.950 . S
H2433 C2457 0.950 . S
H2434 C2458 0.950 . S
H2435 C2459 0.951 . S
H2436 C2461 0.951 . S
H2437 C2463 0.950 . S
H2438 C2464 0.950 . S
H2439 C2466 0.950 . S
H2440 C2469 0.950 . S
H2441 C2470 0.950 . S
H2442 C2472 0.950 . S
H2443 C2473 0.950 . S
C2444 H2426 0.951 . S
C2444 C2445 1.366 . S
C2444 C2446 1.388 . S
C2445 C2444 1.366 . S
C2445 C2449 1.385 . S
C2446 H2427 0.951 . S
C2446 C2444 1.388 . S
C2446 C2447 1.366 . S
C2447 C2446 1.366 . S
C2447 C2448 1.414 . S
C2447 C2450 1.499 . S
C2448 H2428 0.950 . S
C2448 C2447 1.414 . S
C2448 C2449 1.374 . S
C2449 H2429 0.950 . S
C2449 C2445 1.385 . S
C2449 C2448 1.374 . S
C2450 C2447 1.499 . S
C2450 C2451 1.373 . S
C2450 C2452 1.389 . S
C2451 H2430 0.950 . S
C2451 C2450 1.373 . S
C2451 C2467 1.377 . S
C2452 C2450 1.389 . S
C2452 C2453 1.524 . S
C2452 C2466 1.377 . S
C2453 C2452 1.524 . S
C2453 C2454 1.397 . S
C2453 C2458 1.363 . S
C2454 H2431 0.950 . S
C2454 C2453 1.397 . S
C2454 C2455 1.334 . S
C2455 H2432 0.950 . S
C2455 C2454 1.334 . S
C2455 C2456 1.287 . S
C2456 C2455 1.287 . S
C2456 C2457 1.524 . S
C2456 H2475 0.913 . S
C2457 H2433 0.950 . S
C2457 C2456 1.524 . S
C2457 C2458 1.415 . S
C2458 H2434 0.950 . S
C2458 C2453 1.363 . S
C2458 C2457 1.415 . S
C2459 H2435 0.951 . S
C2459 C2460 1.366 . S
C2459 C2461 1.388 . S
C2460 C2459 1.366 . S
C2460 C2464 1.385 . S
C2461 H2436 0.951 . S
C2461 C2459 1.388 . S
C2461 C2462 1.366 . S
C2462 C2461 1.366 . S
C2462 C2463 1.414 . S
C2462 C2465 1.499 . S
C2463 H2437 0.950 . S
C2463 C2462 1.414 . S
C2463 C2464 1.374 . S
C2464 H2438 0.950 . S
C2464 C2460 1.385 . S
C2464 C2463 1.374 . S
C2465 C2462 1.499 . S
C2465 C2466 1.373 . S
C2465 C2467 1.389 . S
C2466 H2439 0.950 . S
C2466 C2452 1.377 . S
C2466 C2465 1.373 . S
C2467 C2451 1.377 . S
C2467 C2465 1.389 . S
C2467 C2468 1.524 . S
C2468 C2467 1.524 . S
C2468 C2469 1.397 . S
C2468 C2473 1.363 . S
C2469 H2440 0.950 . S
C2469 C2468 1.397 . S
C2469 C2470 1.334 . S
C2470 H2441 0.950 . S
C2470 C2469 1.334 . S
C2470 C2471 1.287 . S
C2471 C2470 1.287 . S
C2471 C2472 1.524 . S
C2471 H2474 0.999 1_554 S
C2472 H2442 0.950 . S
C2472 C2471 1.524 . S
C2472 C2473 1.415 . S
C2473 H2443 0.950 . S
C2473 C2468 1.363 . S
C2473 C2472 1.415 . S
H2474 C2471 0.999 1_556 S
H2475 C2456 0.913 . S
H2476 C2494 0.951 . S
H2477 C2496 0.951 . S
H2478 C2498 0.950 . S
H2479 C2499 0.950 1_556 S
H2480 C2501 0.950 . S
H2481 C2504 0.950 . S
H2482 C2505 0.950 . S
H2483 C2507 0.950 . S
H2484 C2508 0.950 . S
H2485 C2509 0.951 . S
H2486 C2511 0.951 . S
H2487 C2513 0.950 . S
H2488 C2514 0.950 . S
H2489 C2516 0.950 . S
H2490 C2519 0.950 . S
H2491 C2520 0.950 . S
H2492 C2522 0.950 1_556 S
H2493 C2523 0.950 . S
C2494 H2476 0.951 . S
C2494 C2495 1.366 . S
C2494 C2496 1.388 . S
C2495 C2494 1.366 . S
C2495 C2499 1.385 . S
C2496 H2477 0.951 . S
C2496 C2494 1.388 . S
C2496 C2497 1.366 . S
C2497 C2496 1.366 . S
C2497 C2498 1.414 . S
C2497 C2500 1.499 . S
C2498 H2478 0.950 . S
C2498 C2497 1.414 . S
C2498 C2499 1.374 . S
C2499 H2479 0.950 1_554 S
C2499 C2495 1.385 . S
C2499 C2498 1.374 . S
C2500 C2497 1.499 . S
C2500 C2501 1.373 . S
C2500 C2502 1.389 . S
C2501 H2480 0.950 . S
C2501 C2500 1.373 . S
C2501 C2517 1.377 . S
C2502 C2500 1.389 . S
C2502 C2503 1.524 . S
C2502 C2516 1.377 . S
C2503 C2502 1.524 . S
C2503 C2504 1.397 . S
C2503 C2508 1.363 . S
C2504 H2481 0.950 . S
C2504 C2503 1.397 . S
C2504 C2505 1.334 . S
C2505 H2482 0.950 . S
C2505 C2504 1.334 . S
C2505 C2506 1.287 . S
C2506 C2505 1.287 . S
C2506 C2507 1.524 . S
C2506 H2525 0.913 . S
C2507 H2483 0.950 . S
C2507 C2506 1.524 . S
C2507 C2508 1.415 . S
C2508 H2484 0.950 . S
C2508 C2503 1.363 . S
C2508 C2507 1.415 . S
C2509 H2485 0.951 . S
C2509 C2510 1.366 . S
C2509 C2511 1.388 . S
C2510 C2509 1.366 . S
C2510 C2514 1.385 . S
C2511 H2486 0.951 . S
C2511 C2509 1.388 . S
C2511 C2512 1.366 . S
C2512 C2511 1.366 . S
C2512 C2513 1.414 . S
C2512 C2515 1.499 . S
C2513 H2487 0.950 . S
C2513 C2512 1.414 . S
C2513 C2514 1.374 . S
C2514 H2488 0.950 . S
C2514 C2510 1.385 . S
C2514 C2513 1.374 . S
C2515 C2512 1.499 . S
C2515 C2516 1.373 . S
C2515 C2517 1.389 . S
C2516 H2489 0.950 . S
C2516 C2502 1.377 . S
C2516 C2515 1.373 . S
C2517 C2501 1.377 . S
C2517 C2515 1.389 . S
C2517 C2518 1.524 . S
C2518 C2517 1.524 . S
C2518 C2519 1.397 . S
C2518 C2523 1.363 . S
C2519 H2490 0.950 . S
C2519 C2518 1.397 . S
C2519 C2520 1.334 . S
C2520 H2491 0.950 . S
C2520 C2519 1.334 . S
C2520 C2521 1.287 . S
C2521 C2520 1.287 . S
C2521 C2522 1.524 . S
C2521 H2524 0.999 . S
C2522 H2492 0.950 1_554 S
C2522 C2521 1.524 . S
C2522 C2523 1.415 . S
C2523 H2493 0.950 . S
C2523 C2518 1.363 . S
C2523 C2522 1.415 . S
H2524 C2521 0.999 . S
H2525 C2506 0.913 . S
H2526 C2544 0.951 . S
H2527 C2546 0.951 . S
H2528 C2548 0.950 . S
H2529 C2549 0.950 . S
H2530 C2551 0.950 . S
H2531 C2554 0.950 . S
H2532 C2555 0.950 . S
H2533 C2557 0.950 . S
H2534 C2558 0.950 1_556 S
H2535 C2559 0.951 . S
H2536 C2561 0.951 . S
H2537 C2563 0.950 . S
H2538 C2564 0.950 . S
H2539 C2566 0.950 . S
H2540 C2569 0.950 . S
H2541 C2570 0.950 . S
H2542 C2572 0.950 . S
H2543 C2573 0.950 . S
C2544 H2526 0.951 . S
C2544 C2545 1.366 . S
C2544 C2546 1.388 . S
C2545 C2544 1.366 . S
C2545 C2549 1.385 . S
C2546 H2527 0.951 . S
C2546 C2544 1.388 . S
C2546 C2547 1.366 . S
C2547 C2546 1.366 . S
C2547 C2548 1.414 . S
C2547 C2550 1.499 . S
C2548 H2528 0.950 . S
C2548 C2547 1.414 . S
C2548 C2549 1.374 . S
C2549 H2529 0.950 . S
C2549 C2545 1.385 . S
C2549 C2548 1.374 . S
C2550 C2547 1.499 . S
C2550 C2551 1.373 . S
C2550 C2552 1.389 . S
C2551 H2530 0.950 . S
C2551 C2550 1.373 . S
C2551 C2567 1.377 . S
C2552 C2550 1.389 . S
C2552 C2553 1.524 1_556 S
C2552 C2566 1.377 . S
C2553 C2552 1.524 1_554 S
C2553 C2554 1.397 . S
C2553 C2558 1.363 . S
C2554 H2531 0.950 . S
C2554 C2553 1.397 . S
C2554 C2555 1.334 . S
C2555 H2532 0.950 . S
C2555 C2554 1.334 . S
C2555 C2556 1.287 . S
C2556 C2555 1.287 . S
C2556 C2557 1.524 . S
C2556 H2575 0.913 . S
C2557 H2533 0.950 . S
C2557 C2556 1.524 . S
C2557 C2558 1.415 . S
C2558 H2534 0.950 1_554 S
C2558 C2553 1.363 . S
C2558 C2557 1.415 . S
C2559 H2535 0.951 . S
C2559 C2560 1.366 . S
C2559 C2561 1.388 . S
C2560 C2559 1.366 . S
C2560 C2564 1.385 . S
C2561 H2536 0.951 . S
C2561 C2559 1.388 . S
C2561 C2562 1.366 . S
C2562 C2561 1.366 . S
C2562 C2563 1.414 . S
C2562 C2565 1.499 . S
C2563 H2537 0.950 . S
C2563 C2562 1.414 . S
C2563 C2564 1.374 . S
C2564 H2538 0.950 . S
C2564 C2560 1.385 . S
C2564 C2563 1.374 . S
C2565 C2562 1.499 . S
C2565 C2566 1.373 . S
C2565 C2567 1.389 . S
C2566 H2539 0.950 . S
C2566 C2552 1.377 . S
C2566 C2565 1.373 . S
C2567 C2551 1.377 . S
C2567 C2565 1.389 . S
C2567 C2568 1.524 . S
C2568 C2567 1.524 . S
C2568 C2569 1.397 . S
C2568 C2573 1.363 . S
C2569 H2540 0.950 . S
C2569 C2568 1.397 . S
C2569 C2570 1.334 . S
C2570 H2541 0.950 . S
C2570 C2569 1.334 . S
C2570 C2571 1.287 . S
C2571 C2570 1.287 . S
C2571 C2572 1.524 . S
C2571 H2574 0.999 . S
C2572 H2542 0.950 . S
C2572 C2571 1.524 . S
C2572 C2573 1.415 . S
C2573 H2543 0.950 . S
C2573 C2568 1.363 . S
C2573 C2572 1.415 . S
H2574 C2571 0.999 . S
H2575 C2556 0.913 . S
H2576 C2594 0.951 . S
H2577 C2596 0.951 . S
H2578 C2598 0.950 . S
H2579 C2599 0.944 1_554 S
H2580 C2601 0.950 . S
H2581 C2604 0.950 . S
H2582 C2605 0.950 . S
H2583 C2607 0.950 . S
H2584 C2608 0.950 . S
H2585 C2609 0.951 . S
H2586 C2611 0.951 . S
H2587 C2613 0.950 . S
H2588 C2614 0.950 . S
H2589 C2616 0.950 . S
H2590 C2619 0.950 . S
H2591 C2620 0.950 . S
H2592 C2622 0.950 . S
H2593 C2623 0.950 . S
C2594 H2576 0.951 . S
C2594 C2595 1.366 . S
C2594 C2596 1.388 . S
C2595 C2594 1.366 . S
C2595 C2599 1.388 . S
C2596 H2577 0.951 . S
C2596 C2594 1.388 . S
C2596 C2597 1.366 . S
C2597 C2596 1.366 . S
C2597 C2598 1.414 . S
C2597 C2600 1.499 . S
C2598 H2578 0.950 . S
C2598 C2597 1.414 . S
C2598 C2599 1.376 . S
C2599 H2579 0.944 1_556 S
C2599 C2595 1.388 . S
C2599 C2598 1.376 . S
C2600 C2597 1.499 . S
C2600 C2601 1.373 . S
C2600 C2602 1.389 . S
C2601 H2580 0.950 . S
C2601 C2600 1.373 . S
C2601 C2617 1.377 . S
C2602 C2600 1.389 . S
C2602 C2603 1.524 . S
C2602 C2616 1.377 . S
C2603 C2602 1.524 . S
C2603 C2604 1.397 . S
C2603 C2608 1.363 . S
C2604 H2581 0.950 . S
C2604 C2603 1.397 . S
C2604 C2605 1.334 . S
C2605 H2582 0.950 . S
C2605 C2604 1.334 . S
C2605 C2606 1.287 . S
C2606 C2605 1.287 . S
C2606 C2607 1.524 . S
C2606 H2625 0.913 . S
C2607 H2583 0.950 . S
C2607 C2606 1.524 . S
C2607 C2608 1.415 . S
C2608 H2584 0.950 . S
C2608 C2603 1.363 . S
C2608 C2607 1.415 . S
C2609 H2585 0.951 . S
C2609 C2610 1.366 . S
C2609 C2611 1.388 . S
C2610 C2609 1.366 . S
C2610 C2614 1.385 . S
C2611 H2586 0.951 . S
C2611 C2609 1.388 . S
C2611 C2612 1.366 . S
C2612 C2611 1.366 . S
C2612 C2613 1.414 . S
C2612 C2615 1.499 . S
C2613 H2587 0.950 . S
C2613 C2612 1.414 . S
C2613 C2614 1.374 . S
C2614 H2588 0.950 . S
C2614 C2610 1.385 . S
C2614 C2613 1.374 . S
C2615 C2612 1.499 . S
C2615 C2616 1.373 . S
C2615 C2617 1.389 . S
C2616 H2589 0.950 . S
C2616 C2602 1.377 . S
C2616 C2615 1.373 . S
C2617 C2601 1.377 . S
C2617 C2615 1.389 . S
C2617 C2618 1.524 . S
C2618 C2617 1.524 . S
C2618 C2619 1.397 . S
C2618 C2623 1.363 1_556 S
C2619 H2590 0.950 . S
C2619 C2618 1.397 . S
C2619 C2620 1.334 . S
C2620 H2591 0.950 . S
C2620 C2619 1.334 . S
C2620 C2621 1.287 1_556 S
C2621 C2620 1.287 1_554 S
C2621 C2622 1.524 . S
C2621 H2624 0.999 . S
C2622 H2592 0.950 . S
C2622 C2621 1.524 . S
C2622 C2623 1.415 . S
C2623 H2593 0.950 . S
C2623 C2618 1.363 1_554 S
C2623 C2622 1.415 . S
H2624 C2621 0.999 . S
H2625 C2606 0.913 . S
H2626 C2644 0.951 . S
H2627 C2646 0.951 1_554 S
H2628 C2648 0.950 . S
H2629 C2649 0.950 . S
H2630 C2651 0.950 . S
H2631 C2654 0.950 . S
H2632 C2655 0.950 . S
H2633 C2657 0.950 . S
H2634 C2658 0.950 . S
H2635 C2659 0.951 . S
H2636 C2661 0.951 . S
H2637 C2663 0.950 . S
H2638 C2664 0.950 . S
H2639 C2666 0.950 . S
H2640 C2669 0.950 . S
H2641 C2670 0.950 . S
H2642 C2672 0.950 . S
H2643 C2673 0.950 . S
C2644 H2626 0.951 . S
C2644 C2645 1.366 1_554 S
C2644 C2646 1.388 1_554 S
C2645 C2644 1.366 1_556 S
C2645 C2649 1.385 . S
C2646 H2627 0.951 1_556 S
C2646 C2644 1.388 1_556 S
C2646 C2647 1.366 . S
C2647 C2646 1.366 . S
C2647 C2648 1.414 . S
C2647 C2650 1.499 . S
C2648 H2628 0.950 . S
C2648 C2647 1.414 . S
C2648 C2649 1.374 . S
C2649 H2629 0.950 . S
C2649 C2645 1.385 . S
C2649 C2648 1.374 . S
C2650 C2647 1.499 . S
C2650 C2651 1.373 . S
C2650 C2652 1.389 . S
C2651 H2630 0.950 . S
C2651 C2650 1.373 . S
C2651 C2667 1.377 . S
C2652 C2650 1.389 . S
C2652 C2653 1.524 . S
C2652 C2666 1.377 . S
C2653 C2652 1.524 . S
C2653 C2654 1.397 . S
C2653 C2658 1.363 1_556 S
C2654 H2631 0.950 . S
C2654 C2653 1.397 . S
C2654 C2655 1.334 1_556 S
C2655 H2632 0.950 . S
C2655 C2654 1.334 1_554 S
C2655 C2656 1.287 . S
C2656 C2655 1.287 . S
C2656 C2657 1.524 . S
C2656 H2675 0.913 . S
C2657 H2633 0.950 . S
C2657 C2656 1.524 . S
C2657 C2658 1.415 . S
C2658 H2634 0.950 . S
C2658 C2653 1.363 1_554 S
C2658 C2657 1.415 . S
C2659 H2635 0.951 . S
C2659 C2660 1.366 . S
C2659 C2661 1.388 . S
C2660 C2659 1.366 . S
C2660 C2664 1.385 . S
C2661 H2636 0.951 . S
C2661 C2659 1.388 . S
C2661 C2662 1.366 . S
C2662 C2661 1.366 . S
C2662 C2663 1.414 . S
C2662 C2665 1.499 . S
C2663 H2637 0.950 . S
C2663 C2662 1.414 . S
C2663 C2664 1.374 . S
C2664 H2638 0.950 . S
C2664 C2660 1.385 . S
C2664 C2663 1.374 . S
C2665 C2662 1.499 . S
C2665 C2666 1.373 . S
C2665 C2667 1.389 . S
C2666 H2639 0.950 . S
C2666 C2652 1.377 . S
C2666 C2665 1.373 . S
C2667 C2651 1.377 . S
C2667 C2665 1.389 . S
C2667 C2668 1.524 . S
C2668 C2667 1.524 . S
C2668 C2669 1.397 . S
C2668 C2673 1.363 . S
C2669 H2640 0.950 . S
C2669 C2668 1.397 . S
C2669 C2670 1.334 . S
C2670 H2641 0.950 . S
C2670 C2669 1.334 . S
C2670 C2671 1.287 . S
C2671 C2670 1.287 . S
C2671 C2672 1.524 . S
C2671 H2674 0.999 . S
C2672 H2642 0.950 . S
C2672 C2671 1.524 . S
C2672 C2673 1.415 . S
C2673 H2643 0.950 . S
C2673 C2668 1.363 . S
C2673 C2672 1.415 . S
H2674 C2671 0.999 . S
H2675 C2656 0.913 . S
H2676 C2694 0.951 . S
H2677 C2696 0.951 . S
H2678 C2698 0.950 . S
H2679 C2699 0.923 1_554 S
H2680 C2701 0.950 . S
H2681 C2704 0.950 1_554 S
H2682 C2705 0.950 . S
H2683 C2707 0.950 . S
H2684 C2708 0.950 . S
H2685 C2709 0.951 . S
H2686 C2711 0.951 . S
H2687 C2713 0.950 . S
H2688 C2714 0.950 . S
H2689 C2716 0.950 . S
H2690 C2719 0.950 . S
H2691 C2720 0.950 . S
H2692 C2722 0.950 . S
H2693 C2723 0.950 . S
C2694 H2676 0.951 . S
C2694 C2695 1.366 . S
C2694 C2696 1.388 . S
C2695 C2694 1.366 . S
C2695 C2699 1.399 . S
C2696 H2677 0.951 . S
C2696 C2694 1.388 . S
C2696 C2697 1.366 . S
C2697 C2696 1.366 . S
C2697 C2698 1.414 . S
C2697 C2700 1.499 . S
C2698 H2678 0.950 . S
C2698 C2697 1.414 . S
C2698 C2699 1.388 . S
C2699 H2679 0.923 1_556 S
C2699 C2695 1.399 . S
C2699 C2698 1.388 . S
C2700 C2697 1.499 . S
C2700 C2701 1.373 . S
C2700 C2702 1.389 . S
C2701 H2680 0.950 . S
C2701 C2700 1.373 . S
C2701 C2717 1.377 . S
C2702 C2700 1.389 . S
C2702 C2703 1.524 . S
C2702 C2716 1.377 . S
C2703 C2702 1.524 . S
C2703 C2704 1.397 . S
C2703 C2708 1.363 . S
C2704 H2681 0.950 1_556 S
C2704 C2703 1.397 . S
C2704 C2705 1.334 1_556 S
C2705 H2682 0.950 . S
C2705 C2704 1.334 1_554 S
C2705 C2706 1.287 1_554 S
C2706 C2705 1.287 1_556 S
C2706 C2707 1.524 . S
C2706 H2725 0.913 1_556 S
C2707 H2683 0.950 . S
C2707 C2706 1.524 . S
C2707 C2708 1.415 . S
C2708 H2684 0.950 . S
C2708 C2703 1.363 . S
C2708 C2707 1.415 . S
C2709 H2685 0.951 . S
C2709 C2710 1.366 . S
C2709 C2711 1.388 . S
C2710 C2709 1.366 . S
C2710 C2714 1.385 . S
C2711 H2686 0.951 . S
C2711 C2709 1.388 . S
C2711 C2712 1.366 . S
C2712 C2711 1.366 . S
C2712 C2713 1.414 . S
C2712 C2715 1.499 . S
C2713 H2687 0.950 . S
C2713 C2712 1.414 . S
C2713 C2714 1.374 . S
C2714 H2688 0.950 . S
C2714 C2710 1.385 . S
C2714 C2713 1.374 . S
C2715 C2712 1.499 . S
C2715 C2716 1.373 . S
C2715 C2717 1.389 . S
C2716 H2689 0.950 . S
C2716 C2702 1.377 . S
C2716 C2715 1.373 . S
C2717 C2701 1.377 . S
C2717 C2715 1.389 . S
C2717 C2718 1.524 . S
C2718 C2717 1.524 . S
C2718 C2719 1.397 . S
C2718 C2723 1.363 . S
C2719 H2690 0.950 . S
C2719 C2718 1.397 . S
C2719 C2720 1.334 . S
C2720 H2691 0.950 . S
C2720 C2719 1.334 . S
C2720 C2721 1.287 . S
C2721 C2720 1.287 . S
C2721 C2722 1.524 . S
C2721 H2724 0.999 . S
C2722 H2692 0.950 . S
C2722 C2721 1.524 . S
C2722 C2723 1.415 . S
C2723 H2693 0.950 . S
C2723 C2718 1.363 . S
C2723 C2722 1.415 . S
H2724 C2721 0.999 . S
H2725 C2706 0.913 1_554 S
H2726 C2744 0.951 . S
H2727 C2746 0.951 . S
H2728 C2748 0.950 . S
H2729 C2749 0.950 . S
H2730 C2751 0.950 . S
H2731 C2754 0.950 . S
H2732 C2755 0.950 . S
H2733 C2757 0.950 . S
H2734 C2758 0.950 . S
H2735 C2759 0.951 . S
H2736 C2761 0.951 . S
H2737 C2763 0.950 . S
H2738 C2764 0.950 . S
H2739 C2766 0.950 . S
H2740 C2769 0.950 . S
H2741 C2770 0.950 . S
H2742 C2772 0.950 . S
H2743 C2773 0.950 . S
C2744 H2726 0.951 . S
C2744 C2745 1.366 . S
C2744 C2746 1.388 . S
C2745 C2744 1.366 . S
C2745 C2749 1.385 . S
C2746 H2727 0.951 . S
C2746 C2744 1.388 . S
C2746 C2747 1.366 . S
C2747 C2746 1.366 . S
C2747 C2748 1.414 . S
C2747 C2750 1.499 . S
C2748 H2728 0.950 . S
C2748 C2747 1.414 . S
C2748 C2749 1.374 . S
C2749 H2729 0.950 . S
C2749 C2745 1.385 . S
C2749 C2748 1.374 . S
C2750 C2747 1.499 . S
C2750 C2751 1.373 . S
C2750 C2752 1.389 . S
C2751 H2730 0.950 . S
C2751 C2750 1.373 . S
C2751 C2767 1.377 . S
C2752 C2750 1.389 . S
C2752 C2753 1.524 . S
C2752 C2766 1.377 . S
C2753 C2752 1.524 . S
C2753 C2754 1.397 1_556 S
C2753 C2758 1.363 . S
C2754 H2731 0.950 . S
C2754 C2753 1.397 1_554 S
C2754 C2755 1.334 . S
C2755 H2732 0.950 . S
C2755 C2754 1.334 . S
C2755 C2756 1.287 . S
C2756 C2755 1.287 . S
C2756 C2757 1.524 . S
C2756 H2775 0.913 . S
C2757 H2733 0.950 . S
C2757 C2756 1.524 . S
C2757 C2758 1.415 1_554 S
C2758 H2734 0.950 . S
C2758 C2753 1.363 . S
C2758 C2757 1.415 1_556 S
C2759 H2735 0.951 . S
C2759 C2760 1.366 . S
C2759 C2761 1.388 . S
C2760 C2759 1.366 . S
C2760 C2764 1.385 . S
C2761 H2736 0.951 . S
C2761 C2759 1.388 . S
C2761 C2762 1.366 . S
C2762 C2761 1.366 . S
C2762 C2763 1.414 . S
C2762 C2765 1.499 . S
C2763 H2737 0.950 . S
C2763 C2762 1.414 . S
C2763 C2764 1.374 . S
C2764 H2738 0.950 . S
C2764 C2760 1.385 . S
C2764 C2763 1.374 . S
C2765 C2762 1.499 . S
C2765 C2766 1.373 . S
C2765 C2767 1.389 . S
C2766 H2739 0.950 . S
C2766 C2752 1.377 . S
C2766 C2765 1.373 . S
C2767 C2751 1.377 . S
C2767 C2765 1.389 . S
C2767 C2768 1.524 . S
C2768 C2767 1.524 . S
C2768 C2769 1.397 . S
C2768 C2773 1.363 . S
C2769 H2740 0.950 . S
C2769 C2768 1.397 . S
C2769 C2770 1.334 . S
C2770 H2741 0.950 . S
C2770 C2769 1.334 . S
C2770 C2771 1.287 . S
C2771 C2770 1.287 . S
C2771 C2772 1.524 . S
C2771 H2774 0.999 . S
C2772 H2742 0.950 . S
C2772 C2771 1.524 . S
C2772 C2773 1.415 . S
C2773 H2743 0.950 . S
C2773 C2768 1.363 . S
C2773 C2772 1.415 . S
H2774 C2771 0.999 . S
H2775 C2756 0.913 . S
H2776 C2794 0.951 . S
H2777 C2796 0.951 . S
H2778 C2798 0.950 . S
H2779 C2799 0.950 . S
H2780 C2801 0.950 . S
H2781 C2804 0.950 . S
H2782 C2805 0.950 . S
H2783 C2807 0.950 . S
H2784 C2808 0.950 . S
H2785 C2809 0.951 . S
H2786 C2811 0.951 . S
H2787 C2813 0.950 . S
H2788 C2814 0.950 . S
H2789 C2816 0.950 . S
H2790 C2819 0.950 . S
H2791 C2820 0.950 . S
H2792 C2822 0.970 . S
H2793 C2823 0.950 1_554 S
C2794 H2776 0.951 . S
C2794 C2795 1.366 . S
C2794 C2796 1.388 . S
C2795 C2794 1.366 . S
C2795 C2799 1.385 1_556 S
C2796 H2777 0.951 . S
C2796 C2794 1.388 . S
C2796 C2797 1.366 . S
C2797 C2796 1.366 . S
C2797 C2798 1.414 1_556 S
C2797 C2800 1.499 . S
C2798 H2778 0.950 . S
C2798 C2797 1.414 1_554 S
C2798 C2799 1.374 . S
C2799 H2779 0.950 . S
C2799 C2795 1.385 1_554 S
C2799 C2798 1.374 . S
C2800 C2797 1.499 . S
C2800 C2801 1.373 . S
C2800 C2802 1.389 . S
C2801 H2780 0.950 . S
C2801 C2800 1.373 . S
C2801 C2817 1.377 . S
C2802 C2800 1.389 . S
C2802 C2803 1.524 . S
C2802 C2816 1.377 . S
C2803 C2802 1.524 . S
C2803 C2804 1.397 . S
C2803 C2808 1.363 . S
C2804 H2781 0.950 . S
C2804 C2803 1.397 . S
C2804 C2805 1.334 . S
C2805 H2782 0.950 . S
C2805 C2804 1.334 . S
C2805 C2806 1.287 . S
C2806 C2805 1.287 . S
C2806 C2807 1.524 . S
C2806 H2825 0.913 . S
C2807 H2783 0.950 . S
C2807 C2806 1.524 . S
C2807 C2808 1.415 . S
C2808 H2784 0.950 . S
C2808 C2803 1.363 . S
C2808 C2807 1.415 . S
C2809 H2785 0.951 . S
C2809 C2810 1.366 . S
C2809 C2811 1.388 . S
C2810 C2809 1.366 . S
C2810 C2814 1.385 . S
C2811 H2786 0.951 . S
C2811 C2809 1.388 . S
C2811 C2812 1.366 . S
C2812 C2811 1.366 . S
C2812 C2813 1.414 . S
C2812 C2815 1.499 . S
C2813 H2787 0.950 . S
C2813 C2812 1.414 . S
C2813 C2814 1.374 . S
C2814 H2788 0.950 . S
C2814 C2810 1.385 . S
C2814 C2813 1.374 . S
C2815 C2812 1.499 . S
C2815 C2816 1.373 . S
C2815 C2817 1.389 . S
C2816 H2789 0.950 . S
C2816 C2802 1.377 . S
C2816 C2815 1.373 . S
C2817 C2801 1.377 . S
C2817 C2815 1.389 . S
C2817 C2818 1.524 . S
C2818 C2817 1.524 . S
C2818 C2819 1.397 . S
C2818 C2823 1.363 . S
C2819 H2790 0.950 . S
C2819 C2818 1.397 . S
C2819 C2820 1.334 . S
C2820 H2791 0.950 . S
C2820 C2819 1.334 . S
C2820 C2821 1.287 . S
C2821 C2820 1.287 . S
C2821 C2822 1.506 1_556 S
C2821 H2824 0.999 . S
C2822 H2792 0.970 . S
C2822 C2821 1.506 1_554 S
C2822 C2823 1.410 1_554 S
C2823 H2793 0.950 1_556 S
C2823 C2818 1.363 . S
C2823 C2822 1.410 1_556 S
H2824 C2821 0.999 . S
H2825 C2806 0.913 . S
H2826 C2844 0.951 . S
H2827 C2846 0.951 . S
H2828 C2848 0.950 . S
H2829 C2849 0.950 . S
H2830 C2851 0.950 . S
H2831 C2854 0.950 . S
H2832 C2855 0.950 . S
H2833 C2857 0.950 . S
H2834 C2858 0.950 . S
H2835 C2859 0.951 . S
H2836 C2861 0.951 . S
H2837 C2863 0.950 . S
H2838 C2864 0.950 . S
H2839 C2866 0.950 . S
H2840 C2869 0.950 . S
H2841 C2870 0.950 . S
H2842 C2872 0.950 . S
H2843 C2873 0.950 . S
C2844 H2826 0.951 . S
C2844 C2845 1.366 . S
C2844 C2846 1.388 . S
C2845 C2844 1.366 . S
C2845 C2849 1.385 . S
C2846 H2827 0.951 . S
C2846 C2844 1.388 . S
C2846 C2847 1.366 . S
C2847 C2846 1.366 . S
C2847 C2848 1.414 . S
C2847 C2850 1.499 . S
C2848 H2828 0.950 . S
C2848 C2847 1.414 . S
C2848 C2849 1.374 . S
C2849 H2829 0.950 . S
C2849 C2845 1.385 . S
C2849 C2848 1.374 . S
C2850 C2847 1.499 . S
C2850 C2851 1.373 . S
C2850 C2852 1.389 . S
C2851 H2830 0.950 . S
C2851 C2850 1.373 . S
C2851 C2867 1.377 . S
C2852 C2850 1.389 . S
C2852 C2853 1.524 . S
C2852 C2866 1.377 . S
C2853 C2852 1.524 . S
C2853 C2854 1.397 . S
C2853 C2858 1.363 . S
C2854 H2831 0.950 . S
C2854 C2853 1.397 . S
C2854 C2855 1.334 . S
C2855 H2832 0.950 . S
C2855 C2854 1.334 . S
C2855 C2856 1.287 . S
C2856 C2855 1.287 . S
C2856 C2857 1.524 . S
C2856 H2875 0.913 . S
C2857 H2833 0.950 . S
C2857 C2856 1.524 . S
C2857 C2858 1.415 . S
C2858 H2834 0.950 . S
C2858 C2853 1.363 . S
C2858 C2857 1.415 . S
C2859 H2835 0.951 . S
C2859 C2860 1.366 . S
C2859 C2861 1.388 . S
C2860 C2859 1.366 . S
C2860 C2864 1.385 . S
C2861 H2836 0.951 . S
C2861 C2859 1.388 . S
C2861 C2862 1.366 . S
C2862 C2861 1.366 . S
C2862 C2863 1.414 . S
C2862 C2865 1.499 . S
C2863 H2837 0.950 . S
C2863 C2862 1.414 . S
C2863 C2864 1.374 . S
C2864 H2838 0.950 . S
C2864 C2860 1.385 . S
C2864 C2863 1.374 . S
C2865 C2862 1.499 . S
C2865 C2866 1.373 . S
C2865 C2867 1.389 . S
C2866 H2839 0.950 . S
C2866 C2852 1.377 . S
C2866 C2865 1.373 . S
C2867 C2851 1.377 . S
C2867 C2865 1.389 . S
C2867 C2868 1.524 . S
C2868 C2867 1.524 . S
C2868 C2869 1.397 . S
C2868 C2873 1.363 . S
C2869 H2840 0.950 . S
C2869 C2868 1.397 . S
C2869 C2870 1.334 . S
C2870 H2841 0.950 . S
C2870 C2869 1.334 . S
C2870 C2871 1.287 . S
C2871 C2870 1.287 . S
C2871 C2872 1.524 . S
C2871 H2874 0.999 . S
C2872 H2842 0.950 . S
C2872 C2871 1.524 . S
C2872 C2873 1.415 . S
C2873 H2843 0.950 . S
C2873 C2868 1.363 . S
C2873 C2872 1.415 . S
H2874 C2871 0.999 . S
H2875 C2856 0.913 . S
H2876 C2894 0.966 . S
H2877 C2896 0.951 . S
H2878 C2898 0.950 . S
H2879 C2899 0.950 . S
H2880 C2901 0.950 . S
H2881 C2904 0.950 . S
H2882 C2905 0.950 . S
H2883 C2907 0.950 . S
H2884 C2908 0.950 . S
H2885 C2909 0.951 . S
H2886 C2911 0.951 . S
H2887 C2913 0.950 . S
H2888 C2914 0.950 . S
H2889 C2916 0.950 . S
H2890 C2919 0.950 . S
H2891 C2920 0.950 . S
H2892 C2922 0.950 . S
H2893 C2923 0.950 . S
C2894 H2876 0.966 . S
C2894 C2895 1.366 . S
C2894 C2896 1.388 . S
C2895 C2894 1.366 . S
C2895 C2899 1.385 . S
C2896 H2877 0.951 . S
C2896 C2894 1.388 . S
C2896 C2897 1.366 . S
C2897 C2896 1.366 . S
C2897 C2898 1.414 . S
C2897 C2900 1.499 . S
C2898 H2878 0.950 . S
C2898 C2897 1.414 . S
C2898 C2899 1.374 . S
C2899 H2879 0.950 . S
C2899 C2895 1.385 . S
C2899 C2898 1.374 . S
C2900 C2897 1.499 . S
C2900 C2901 1.373 . S
C2900 C2902 1.389 . S
C2901 H2880 0.950 . S
C2901 C2900 1.373 . S
C2901 C2917 1.377 . S
C2902 C2900 1.389 . S
C2902 C2903 1.524 . S
C2902 C2916 1.377 . S
C2903 C2902 1.524 . S
C2903 C2904 1.397 . S
C2903 C2908 1.363 . S
C2904 H2881 0.950 . S
C2904 C2903 1.397 . S
C2904 C2905 1.334 . S
C2905 H2882 0.950 . S
C2905 C2904 1.334 . S
C2905 C2906 1.287 . S
C2906 C2905 1.287 . S
C2906 C2907 1.524 1_554 S
C2906 H2925 0.913 1_554 S
C2907 H2883 0.950 . S
C2907 C2906 1.524 1_556 S
C2907 C2908 1.415 1_556 S
C2908 H2884 0.950 . S
C2908 C2903 1.363 . S
C2908 C2907 1.415 1_554 S
C2909 H2885 0.951 . S
C2909 C2910 1.366 . S
C2909 C2911 1.388 . S
C2910 C2909 1.366 . S
C2910 C2914 1.385 . S
C2911 H2886 0.951 . S
C2911 C2909 1.388 . S
C2911 C2912 1.366 . S
C2912 C2911 1.366 . S
C2912 C2913 1.414 . S
C2912 C2915 1.499 . S
C2913 H2887 0.950 . S
C2913 C2912 1.414 . S
C2913 C2914 1.374 . S
C2914 H2888 0.950 . S
C2914 C2910 1.385 . S
C2914 C2913 1.374 . S
C2915 C2912 1.499 . S
C2915 C2916 1.373 . S
C2915 C2917 1.389 . S
C2916 H2889 0.950 . S
C2916 C2902 1.377 . S
C2916 C2915 1.373 . S
C2917 C2901 1.377 . S
C2917 C2915 1.389 . S
C2917 C2918 1.524 . S
C2918 C2917 1.524 . S
C2918 C2919 1.397 . S
C2918 C2923 1.363 . S
C2919 H2890 0.950 . S
C2919 C2918 1.397 . S
C2919 C2920 1.334 . S
C2920 H2891 0.950 . S
C2920 C2919 1.334 . S
C2920 C2921 1.287 . S
C2921 C2920 1.287 . S
C2921 C2922 1.524 . S
C2921 H2924 0.999 . S
C2922 H2892 0.950 . S
C2922 C2921 1.524 . S
C2922 C2923 1.415 . S
C2923 H2893 0.950 . S
C2923 C2918 1.363 . S
C2923 C2922 1.415 . S
H2924 C2921 0.999 . S
H2925 C2906 0.913 1_556 S
H2926 C2944 0.951 . S
H2927 C2946 0.951 . S
H2928 C2948 0.950 . S
H2929 C2949 0.950 . S
H2930 C2951 0.950 . S
H2931 C2954 0.950 . S
H2932 C2955 0.950 . S
H2933 C2957 0.950 . S
H2934 C2958 0.950 . S
H2935 C2959 0.951 . S
H2936 C2961 0.951 . S
H2937 C2963 0.950 . S
H2938 C2964 0.950 . S
H2939 C2966 0.950 . S
H2940 C2969 0.950 . S
H2941 C2970 0.950 . S
H2942 C2972 0.950 . S
H2943 C2973 0.950 . S
C2944 H2926 0.951 . S
C2944 C2945 1.366 . S
C2944 C2946 1.388 . S
C2945 C2944 1.366 . S
C2945 C2949 1.385 . S
C2946 H2927 0.951 . S
C2946 C2944 1.388 . S
C2946 C2947 1.366 . S
C2947 C2946 1.366 . S
C2947 C2948 1.414 . S
C2947 C2950 1.499 . S
C2948 H2928 0.950 . S
C2948 C2947 1.414 . S
C2948 C2949 1.374 . S
C2949 H2929 0.950 . S
C2949 C2945 1.385 . S
C2949 C2948 1.374 . S
C2950 C2947 1.499 . S
C2950 C2951 1.373 . S
C2950 C2952 1.389 . S
C2951 H2930 0.950 . S
C2951 C2950 1.373 . S
C2951 C2967 1.377 . S
C2952 C2950 1.389 . S
C2952 C2953 1.524 . S
C2952 C2966 1.377 . S
C2953 C2952 1.524 . S
C2953 C2954 1.397 . S
C2953 C2958 1.363 . S
C2954 H2931 0.950 . S
C2954 C2953 1.397 . S
C2954 C2955 1.334 1_554 S
C2955 H2932 0.950 . S
C2955 C2954 1.334 1_556 S
C2955 C2956 1.287 . S
C2956 C2955 1.287 . S
C2956 C2957 1.524 . S
C2956 H2975 0.913 . S
C2957 H2933 0.950 . S
C2957 C2956 1.524 . S
C2957 C2958 1.415 1_556 S
C2958 H2934 0.950 . S
C2958 C2953 1.363 . S
C2958 C2957 1.415 1_554 S
C2959 H2935 0.951 . S
C2959 C2960 1.366 . S
C2959 C2961 1.388 . S
C2960 C2959 1.366 . S
C2960 C2964 1.385 . S
C2961 H2936 0.951 . S
C2961 C2959 1.388 . S
C2961 C2962 1.366 . S
C2962 C2961 1.366 . S
C2962 C2963 1.414 . S
C2962 C2965 1.499 . S
C2963 H2937 0.950 . S
C2963 C2962 1.414 . S
C2963 C2964 1.374 . S
C2964 H2938 0.950 . S
C2964 C2960 1.385 . S
C2964 C2963 1.374 . S
C2965 C2962 1.499 . S
C2965 C2966 1.373 . S
C2965 C2967 1.389 . S
C2966 H2939 0.950 . S
C2966 C2952 1.377 . S
C2966 C2965 1.373 . S
C2967 C2951 1.377 . S
C2967 C2965 1.389 . S
C2967 C2968 1.524 . S
C2968 C2967 1.524 . S
C2968 C2969 1.397 . S
C2968 C2973 1.363 . S
C2969 H2940 0.950 . S
C2969 C2968 1.397 . S
C2969 C2970 1.334 . S
C2970 H2941 0.950 . S
C2970 C2969 1.334 . S
C2970 C2971 1.287 . S
C2971 C2970 1.287 . S
C2971 C2972 1.524 . S
C2971 H2974 0.999 . S
C2972 H2942 0.950 . S
C2972 C2971 1.524 . S
C2972 C2973 1.415 . S
C2973 H2943 0.950 . S
C2973 C2968 1.363 . S
C2973 C2972 1.415 . S
H2974 C2971 0.999 . S
H2975 C2956 0.913 . S
H2976 C2994 0.951 . S
H2977 C2996 0.951 . S
H2978 C2998 0.950 . S
H2979 C2999 0.950 . S
H2980 C3001 0.950 . S
H2981 C3004 0.950 . S
H2982 C3005 0.950 . S
H2983 C3007 0.950 . S
H2984 C3008 0.950 . S
H2985 C3009 0.951 . S
H2986 C3011 0.951 . S
H2987 C3013 0.950 . S
H2988 C3014 0.950 . S
H2989 C3016 0.950 . S
H2990 C3019 0.950 . S
H2991 C3020 0.950 . S
H2992 C3022 0.950 . S
H2993 C3023 0.950 . S
C2994 H2976 0.951 . S
C2994 C2995 1.366 . S
C2994 C2996 1.388 . S
C2995 C2994 1.366 . S
C2995 C2999 1.385 . S
C2996 H2977 0.951 . S
C2996 C2994 1.388 . S
C2996 C2997 1.366 . S
C2997 C2996 1.366 . S
C2997 C2998 1.414 . S
C2997 C3000 1.499 . S
C2998 H2978 0.950 . S
C2998 C2997 1.414 . S
C2998 C2999 1.374 . S
C2999 H2979 0.950 . S
C2999 C2995 1.385 . S
C2999 C2998 1.374 . S
C3000 C2997 1.499 . S
C3000 C3001 1.373 . S
C3000 C3002 1.389 . S
C3001 H2980 0.950 . S
C3001 C3000 1.373 . S
C3001 C3017 1.377 . S
C3002 C3000 1.389 . S
C3002 C3003 1.524 . S
C3002 C3016 1.377 . S
C3003 C3002 1.524 . S
C3003 C3004 1.397 . S
C3003 C3008 1.363 . S
C3004 H2981 0.950 . S
C3004 C3003 1.397 . S
C3004 C3005 1.334 . S
C3005 H2982 0.950 . S
C3005 C3004 1.334 . S
C3005 C3006 1.287 . S
C3006 C3005 1.287 . S
C3006 C3007 1.524 . S
C3006 H3025 0.913 . S
C3007 H2983 0.950 . S
C3007 C3006 1.524 . S
C3007 C3008 1.415 . S
C3008 H2984 0.950 . S
C3008 C3003 1.363 . S
C3008 C3007 1.415 . S
C3009 H2985 0.951 . S
C3009 C3010 1.366 . S
C3009 C3011 1.388 . S
C3010 C3009 1.366 . S
C3010 C3014 1.385 . S
C3011 H2986 0.951 . S
C3011 C3009 1.388 . S
C3011 C3012 1.366 . S
C3012 C3011 1.366 . S
C3012 C3013 1.414 . S
C3012 C3015 1.499 . S
C3013 H2987 0.950 . S
C3013 C3012 1.414 . S
C3013 C3014 1.374 . S
C3014 H2988 0.950 . S
C3014 C3010 1.385 . S
C3014 C3013 1.374 . S
C3015 C3012 1.499 . S
C3015 C3016 1.373 . S
C3015 C3017 1.389 . S
C3016 H2989 0.950 . S
C3016 C3002 1.377 . S
C3016 C3015 1.373 . S
C3017 C3001 1.377 . S
C3017 C3015 1.389 . S
C3017 C3018 1.524 . S
C3018 C3017 1.524 . S
C3018 C3019 1.397 . S
C3018 C3023 1.363 . S
C3019 H2990 0.950 . S
C3019 C3018 1.397 . S
C3019 C3020 1.334 . S
C3020 H2991 0.950 . S
C3020 C3019 1.334 . S
C3020 C3021 1.287 . S
C3021 C3020 1.287 . S
C3021 C3022 1.524 . S
C3021 H3024 0.999 . S
C3022 H2992 0.950 . S
C3022 C3021 1.524 . S
C3022 C3023 1.415 . S
C3023 H2993 0.950 . S
C3023 C3018 1.363 . S
C3023 C3022 1.415 . S
H3024 C3021 0.999 . S
H3025 C3006 0.913 . S
H3026 C3044 0.951 . S
H3027 C3046 0.951 . S
H3028 C3048 0.950 . S
H3029 C3049 0.950 . S
H3030 C3051 0.950 . S
H3031 C3054 0.950 . S
H3032 C3055 0.950 . S
H3033 C3057 0.950 . S
H3034 C3058 0.950 . S
H3035 C3059 0.951 . S
H3036 C3061 0.951 . S
H3037 C3063 0.950 . S
H3038 C3064 0.950 . S
H3039 C3066 0.950 . S
H3040 C3069 0.950 . S
H3041 C3070 0.950 . S
H3042 C3072 0.950 . S
H3043 C3073 0.950 . S
C3044 H3026 0.951 . S
C3044 C3045 1.366 . S
C3044 C3046 1.388 . S
C3045 C3044 1.366 . S
C3045 C3049 1.385 . S
C3046 H3027 0.951 . S
C3046 C3044 1.388 . S
C3046 C3047 1.366 . S
C3047 C3046 1.366 . S
C3047 C3048 1.414 . S
C3047 C3050 1.499 . S
C3048 H3028 0.950 . S
C3048 C3047 1.414 . S
C3048 C3049 1.374 . S
C3049 H3029 0.950 . S
C3049 C3045 1.385 . S
C3049 C3048 1.374 . S
C3050 C3047 1.499 . S
C3050 C3051 1.373 . S
C3050 C3052 1.389 . S
C3051 H3030 0.950 . S
C3051 C3050 1.373 . S
C3051 C3067 1.377 . S
C3052 C3050 1.389 . S
C3052 C3053 1.524 . S
C3052 C3066 1.377 . S
C3053 C3052 1.524 . S
C3053 C3054 1.397 . S
C3053 C3058 1.363 . S
C3054 H3031 0.950 . S
C3054 C3053 1.397 . S
C3054 C3055 1.334 . S
C3055 H3032 0.950 . S
C3055 C3054 1.334 . S
C3055 C3056 1.287 . S
C3056 C3055 1.287 . S
C3056 C3057 1.524 . S
C3056 H3075 0.913 . S
C3057 H3033 0.950 . S
C3057 C3056 1.524 . S
C3057 C3058 1.415 . S
C3058 H3034 0.950 . S
C3058 C3053 1.363 . S
C3058 C3057 1.415 . S
C3059 H3035 0.951 . S
C3059 C3060 1.366 . S
C3059 C3061 1.388 . S
C3060 C3059 1.366 . S
C3060 C3064 1.385 . S
C3061 H3036 0.951 . S
C3061 C3059 1.388 . S
C3061 C3062 1.366 . S
C3062 C3061 1.366 . S
C3062 C3063 1.414 . S
C3062 C3065 1.499 . S
C3063 H3037 0.950 . S
C3063 C3062 1.414 . S
C3063 C3064 1.374 . S
C3064 H3038 0.950 . S
C3064 C3060 1.385 . S
C3064 C3063 1.374 . S
C3065 C3062 1.499 . S
C3065 C3066 1.373 . S
C3065 C3067 1.389 . S
C3066 H3039 0.950 . S
C3066 C3052 1.377 . S
C3066 C3065 1.373 . S
C3067 C3051 1.377 . S
C3067 C3065 1.389 . S
C3067 C3068 1.524 . S
C3068 C3067 1.524 . S
C3068 C3069 1.397 . S
C3068 C3073 1.363 . S
C3069 H3040 0.950 . S
C3069 C3068 1.397 . S
C3069 C3070 1.334 . S
C3070 H3041 0.950 . S
C3070 C3069 1.334 . S
C3070 C3071 1.287 . S
C3071 C3070 1.287 . S
C3071 C3072 1.524 . S
C3071 H3074 0.999 . S
C3072 H3042 0.950 . S
C3072 C3071 1.524 . S
C3072 C3073 1.415 . S
C3073 H3043 0.950 . S
C3073 C3068 1.363 . S
C3073 C3072 1.415 . S
H3074 C3071 0.999 . S
H3075 C3056 0.913 . S
H3076 C3094 0.951 . S
H3077 C3096 0.951 . S
H3078 C3098 0.950 . S
H3079 C3099 0.950 . S
H3080 C3101 0.950 . S
H3081 C3104 0.950 . S
H3082 C3105 0.950 . S
H3083 C3107 0.950 . S
H3084 C3108 0.950 . S
H3085 C3109 0.951 . S
H3086 C3111 0.951 . S
H3087 C3113 0.950 . S
H3088 C3114 0.950 . S
H3089 C3116 0.950 . S
H3090 C3119 0.950 . S
H3091 C3120 0.950 . S
H3092 C3122 0.950 . S
H3093 C3123 0.950 . S
C3094 H3076 0.951 . S
C3094 C3095 1.366 . S
C3094 C3096 1.388 . S
C3095 C3094 1.366 . S
C3095 C3099 1.385 . S
C3096 H3077 0.951 . S
C3096 C3094 1.388 . S
C3096 C3097 1.366 . S
C3097 C3096 1.366 . S
C3097 C3098 1.414 . S
C3097 C3100 1.499 . S
C3098 H3078 0.950 . S
C3098 C3097 1.414 . S
C3098 C3099 1.374 . S
C3099 H3079 0.950 . S
C3099 C3095 1.385 . S
C3099 C3098 1.374 . S
C3100 C3097 1.499 . S
C3100 C3101 1.373 . S
C3100 C3102 1.389 . S
C3101 H3080 0.950 . S
C3101 C3100 1.373 . S
C3101 C3117 1.377 . S
C3102 C3100 1.389 . S
C3102 C3103 1.524 . S
C3102 C3116 1.377 . S
C3103 C3102 1.524 . S
C3103 C3104 1.397 . S
C3103 C3108 1.363 . S
C3104 H3081 0.950 . S
C3104 C3103 1.397 . S
C3104 C3105 1.334 . S
C3105 H3082 0.950 . S
C3105 C3104 1.334 . S
C3105 C3106 1.287 . S
C3106 C3105 1.287 . S
C3106 C3107 1.524 . S
C3106 H3125 0.913 . S
C3107 H3083 0.950 . S
C3107 C3106 1.524 . S
C3107 C3108 1.415 . S
C3108 H3084 0.950 . S
C3108 C3103 1.363 . S
C3108 C3107 1.415 . S
C3109 H3085 0.951 . S
C3109 C3110 1.366 . S
C3109 C3111 1.388 . S
C3110 C3109 1.366 . S
C3110 C3114 1.385 . S
C3111 H3086 0.951 . S
C3111 C3109 1.388 . S
C3111 C3112 1.366 . S
C3112 C3111 1.366 . S
C3112 C3113 1.414 . S
C3112 C3115 1.499 . S
C3113 H3087 0.950 . S
C3113 C3112 1.414 . S
C3113 C3114 1.374 . S
C3114 H3088 0.950 . S
C3114 C3110 1.385 . S
C3114 C3113 1.374 . S
C3115 C3112 1.499 . S
C3115 C3116 1.373 . S
C3115 C3117 1.389 . S
C3116 H3089 0.950 . S
C3116 C3102 1.377 . S
C3116 C3115 1.373 . S
C3117 C3101 1.377 . S
C3117 C3115 1.389 . S
C3117 C3118 1.524 . S
C3118 C3117 1.524 . S
C3118 C3119 1.397 . S
C3118 C3123 1.363 . S
C3119 H3090 0.950 . S
C3119 C3118 1.397 . S
C3119 C3120 1.334 . S
C3120 H3091 0.950 . S
C3120 C3119 1.334 . S
C3120 C3121 1.287 . S
C3121 C3120 1.287 . S
C3121 C3122 1.524 . S
C3121 H3124 0.999 . S
C3122 H3092 0.950 . S
C3122 C3121 1.524 . S
C3122 C3123 1.415 . S
C3123 H3093 0.950 . S
C3123 C3118 1.363 . S
C3123 C3122 1.415 . S
H3124 C3121 0.999 . S
H3125 C3106 0.913 . S
H3126 C3144 0.951 . S
H3127 C3146 0.951 . S
H3128 C3148 0.950 . S
H3129 C3149 0.950 . S
H3130 C3151 0.964 . S
H3131 C3154 0.950 . S
H3132 C3155 0.950 . S
H3133 C3157 0.950 . S
H3134 C3158 0.950 . S
H3135 C3159 0.907 1_655 S
H3136 C3161 0.945 1_655 S
H3137 C3163 0.950 . S
H3138 C3164 0.950 . S
H3139 C3166 0.950 . S
H3140 C3169 0.950 . S
H3141 C3170 0.950 . S
H3142 C3172 0.950 . S
H3143 C3173 0.950 . S
C3144 H3126 0.951 . S
C3144 C3145 1.366 . S
C3144 C3146 1.388 . S
C3145 C3144 1.366 . S
C3145 C3149 1.385 . S
C3146 H3127 0.951 . S
C3146 C3144 1.388 . S
C3146 C3147 1.366 . S
C3147 C3146 1.366 . S
C3147 C3148 1.414 . S
C3147 C3150 1.499 . S
C3148 H3128 0.950 . S
C3148 C3147 1.414 . S
C3148 C3149 1.374 . S
C3149 H3129 0.950 . S
C3149 C3145 1.385 . S
C3149 C3148 1.374 . S
C3150 C3147 1.499 . S
C3150 C3151 1.344 1_455 S
C3150 C3152 1.389 . S
C3151 H3130 0.964 . S
C3151 C3150 1.344 1_655 S
C3151 C3167 1.394 . S
C3152 C3150 1.389 . S
C3152 C3153 1.524 . S
C3152 C3166 1.377 . S
C3153 C3152 1.524 . S
C3153 C3154 1.397 . S
C3153 C3158 1.363 . S
C3154 H3131 0.950 . S
C3154 C3153 1.397 . S
C3154 C3155 1.334 . S
C3155 H3132 0.950 . S
C3155 C3154 1.334 . S
C3155 C3156 1.287 . S
C3156 C3155 1.287 . S
C3156 C3157 1.524 . S
C3156 H3175 0.913 . S
C3157 H3133 0.950 . S
C3157 C3156 1.524 . S
C3157 C3158 1.415 . S
C3158 H3134 0.950 . S
C3158 C3153 1.363 . S
C3158 C3157 1.415 . S
C3159 H3135 0.907 1_455 S
C3159 C3160 1.376 . S
C3159 C3161 1.425 . S
C3160 C3159 1.376 . S
C3160 C3164 1.385 . S
C3161 H3136 0.945 1_455 S
C3161 C3159 1.425 . S
C3161 C3162 1.366 . S
C3162 C3161 1.366 . S
C3162 C3163 1.414 . S
C3162 C3165 1.499 . S
C3163 H3137 0.950 . S
C3163 C3162 1.414 . S
C3163 C3164 1.374 . S
C3164 H3138 0.950 . S
C3164 C3160 1.385 . S
C3164 C3163 1.374 . S
C3165 C3162 1.499 . S
C3165 C3166 1.373 . S
C3165 C3167 1.389 1_455 S
C3166 H3139 0.950 . S
C3166 C3152 1.377 . S
C3166 C3165 1.373 . S
C3167 C3151 1.394 . S
C3167 C3165 1.389 1_655 S
C3167 C3168 1.524 . S
C3168 C3167 1.524 . S
C3168 C3169 1.397 . S
C3168 C3173 1.363 . S
C3169 H3140 0.950 . S
C3169 C3168 1.397 . S
C3169 C3170 1.334 . S
C3170 H3141 0.950 . S
C3170 C3169 1.334 . S
C3170 C3171 1.287 . S
C3171 C3170 1.287 . S
C3171 C3172 1.524 . S
C3171 H3174 0.999 . S
C3172 H3142 0.950 . S
C3172 C3171 1.524 . S
C3172 C3173 1.415 . S
C3173 H3143 0.950 . S
C3173 C3168 1.363 . S
C3173 C3172 1.415 . S
H3174 C3171 0.999 . S
H3175 C3156 0.913 . S
H3176 C3194 0.951 . S
H3177 C3196 0.951 . S
H3178 C3198 0.950 . S
H3179 C3199 0.950 . S
H3180 C3201 0.950 . S
H3181 C3204 0.950 . S
H3182 C3205 0.950 . S
H3183 C3207 0.950 . S
H3184 C3208 0.950 . S
H3185 C3209 0.951 . S
H3186 C3211 0.951 . S
H3187 C3213 0.950 . S
H3188 C3214 0.950 . S
H3189 C3216 0.950 . S
H3190 C3219 0.950 . S
H3191 C3220 0.950 . S
H3192 C3222 0.950 . S
H3193 C3223 0.950 . S
C3194 H3176 0.951 . S
C3194 C3195 1.366 . S
C3194 C3196 1.388 . S
C3195 C3194 1.366 . S
C3195 C3199 1.385 . S
C3196 H3177 0.951 . S
C3196 C3194 1.388 . S
C3196 C3197 1.366 . S
C3197 C3196 1.366 . S
C3197 C3198 1.414 . S
C3197 C3200 1.499 . S
C3198 H3178 0.950 . S
C3198 C3197 1.414 . S
C3198 C3199 1.374 . S
C3199 H3179 0.950 . S
C3199 C3195 1.385 . S
C3199 C3198 1.374 . S
C3200 C3197 1.499 . S
C3200 C3201 1.373 . S
C3200 C3202 1.389 . S
C3201 H3180 0.950 . S
C3201 C3200 1.373 . S
C3201 C3217 1.377 . S
C3202 C3200 1.389 . S
C3202 C3203 1.524 . S
C3202 C3216 1.377 . S
C3203 C3202 1.524 . S
C3203 C3204 1.397 . S
C3203 C3208 1.363 . S
C3204 H3181 0.950 . S
C3204 C3203 1.397 . S
C3204 C3205 1.334 . S
C3205 H3182 0.950 . S
C3205 C3204 1.334 . S
C3205 C3206 1.287 . S
C3206 C3205 1.287 . S
C3206 C3207 1.524 . S
C3206 H3225 0.913 . S
C3207 H3183 0.950 . S
C3207 C3206 1.524 . S
C3207 C3208 1.415 . S
C3208 H3184 0.950 . S
C3208 C3203 1.363 . S
C3208 C3207 1.415 . S
C3209 H3185 0.951 . S
C3209 C3210 1.366 . S
C3209 C3211 1.388 . S
C3210 C3209 1.366 . S
C3210 C3214 1.385 . S
C3211 H3186 0.951 . S
C3211 C3209 1.388 . S
C3211 C3212 1.366 . S
C3212 C3211 1.366 . S
C3212 C3213 1.414 . S
C3212 C3215 1.499 . S
C3213 H3187 0.950 . S
C3213 C3212 1.414 . S
C3213 C3214 1.374 . S
C3214 H3188 0.950 . S
C3214 C3210 1.385 . S
C3214 C3213 1.374 . S
C3215 C3212 1.499 . S
C3215 C3216 1.373 . S
C3215 C3217 1.389 . S
C3216 H3189 0.950 . S
C3216 C3202 1.377 . S
C3216 C3215 1.373 . S
C3217 C3201 1.377 . S
C3217 C3215 1.389 . S
C3217 C3218 1.524 . S
C3218 C3217 1.524 . S
C3218 C3219 1.397 . S
C3218 C3223 1.363 . S
C3219 H3190 0.950 . S
C3219 C3218 1.397 . S
C3219 C3220 1.334 . S
C3220 H3191 0.950 . S
C3220 C3219 1.334 . S
C3220 C3221 1.287 . S
C3221 C3220 1.287 . S
C3221 C3222 1.524 . S
C3221 H3224 0.999 . S
C3222 H3192 0.950 . S
C3222 C3221 1.524 . S
C3222 C3223 1.415 . S
C3223 H3193 0.950 . S
C3223 C3218 1.363 . S
C3223 C3222 1.415 . S
H3224 C3221 0.999 . S
H3225 C3206 0.913 . S
H3226 C3244 0.951 . S
H3227 C3246 0.951 . S
H3228 C3248 0.950 . S
H3229 C3249 0.950 . S
H3230 C3251 0.950 1_545 S
H3231 C3254 0.950 . S
H3232 C3255 0.950 . S
H3233 C3257 0.950 . S
H3234 C3258 0.950 . S
H3235 C3259 0.951 . S
H3236 C3261 0.951 . S
H3237 C3263 0.950 . S
H3238 C3264 0.955 . S
H3239 C3266 0.950 . S
H3240 C3269 0.950 . S
H3241 C3270 0.950 . S
H3242 C3272 0.950 . S
H3243 C3273 0.950 . S
C3244 H3226 0.951 . S
C3244 C3245 1.366 . S
C3244 C3246 1.388 . S
C3245 C3244 1.366 . S
C3245 C3249 1.385 . S
C3246 H3227 0.951 . S
C3246 C3244 1.388 . S
C3246 C3247 1.366 . S
C3247 C3246 1.366 . S
C3247 C3248 1.414 . S
C3247 C3250 1.499 . S
C3248 H3228 0.950 . S
C3248 C3247 1.414 . S
C3248 C3249 1.374 . S
C3249 H3229 0.950 . S
C3249 C3245 1.385 . S
C3249 C3248 1.374 . S
C3250 C3247 1.499 . S
C3250 C3251 1.373 . S
C3250 C3252 1.389 . S
C3251 H3230 0.950 1_565 S
C3251 C3250 1.373 . S
C3251 C3267 1.378 . S
C3252 C3250 1.389 . S
C3252 C3253 1.524 . S
C3252 C3266 1.377 . S
C3253 C3252 1.524 . S
C3253 C3254 1.397 . S
C3253 C3258 1.363 . S
C3254 H3231 0.950 . S
C3254 C3253 1.397 . S
C3254 C3255 1.334 . S
C3255 H3232 0.950 . S
C3255 C3254 1.334 . S
C3255 C3256 1.287 . S
C3256 C3255 1.287 . S
C3256 C3257 1.524 . S
C3256 H3275 0.913 . S
C3257 H3233 0.950 . S
C3257 C3256 1.524 . S
C3257 C3258 1.415 . S
C3258 H3234 0.950 . S
C3258 C3253 1.363 . S
C3258 C3257 1.415 . S
C3259 H3235 0.951 . S
C3259 C3260 1.366 . S
C3259 C3261 1.388 . S
C3260 C3259 1.366 . S
C3260 C3264 1.385 . S
C3261 H3236 0.951 . S
C3261 C3259 1.388 . S
C3261 C3262 1.366 . S
C3262 C3261 1.366 . S
C3262 C3263 1.414 . S
C3262 C3265 1.499 . S
C3263 H3237 0.950 . S
C3263 C3262 1.414 . S
C3263 C3264 1.374 . S
C3264 H3238 0.955 . S
C3264 C3260 1.385 . S
C3264 C3263 1.374 . S
C3265 C3262 1.499 . S
C3265 C3266 1.373 . S
C3265 C3267 1.386 . S
C3266 H3239 0.950 . S
C3266 C3252 1.377 . S
C3266 C3265 1.373 . S
C3267 C3251 1.378 . S
C3267 C3265 1.386 . S
C3267 C3268 1.526 1_565 S
C3268 C3267 1.526 1_545 S
C3268 C3269 1.397 . S
C3268 C3273 1.363 . S
C3269 H3240 0.950 . S
C3269 C3268 1.397 . S
C3269 C3270 1.334 . S
C3270 H3241 0.950 . S
C3270 C3269 1.334 . S
C3270 C3271 1.287 . S
C3271 C3270 1.287 . S
C3271 C3272 1.524 . S
C3271 H3274 0.999 . S
C3272 H3242 0.950 . S
C3272 C3271 1.524 . S
C3272 C3273 1.415 . S
C3273 H3243 0.950 . S
C3273 C3268 1.363 . S
C3273 C3272 1.415 . S
H3274 C3271 0.999 . S
H3275 C3256 0.913 . S
H3276 C3294 0.951 . S
H3277 C3296 0.951 . S
H3278 C3298 0.950 1_545 S
H3279 C3299 0.953 1_545 S
H3280 C3301 0.950 . S
H3281 C3304 0.950 . S
H3282 C3305 0.950 . S
H3283 C3307 0.950 . S
H3284 C3308 0.950 . S
H3285 C3309 0.951 . S
H3286 C3311 0.951 . S
H3287 C3313 0.950 . S
H3288 C3314 0.950 . S
H3289 C3316 0.950 . S
H3290 C3319 0.950 . S
H3291 C3320 0.950 . S
H3292 C3322 0.950 1_545 S
H3293 C3323 0.950 1_545 S
C3294 H3276 0.951 . S
C3294 C3295 1.366 . S
C3294 C3296 1.388 . S
C3295 C3294 1.366 . S
C3295 C3299 1.385 . S
C3296 H3277 0.951 . S
C3296 C3294 1.388 . S
C3296 C3297 1.366 . S
C3297 C3296 1.366 . S
C3297 C3298 1.414 . S
C3297 C3300 1.499 . S
C3298 H3278 0.950 1_565 S
C3298 C3297 1.414 . S
C3298 C3299 1.374 . S
C3299 H3279 0.953 1_565 S
C3299 C3295 1.385 . S
C3299 C3298 1.374 . S
C3300 C3297 1.499 . S
C3300 C3301 1.373 . S
C3300 C3302 1.389 . S
C3301 H3280 0.950 . S
C3301 C3300 1.373 . S
C3301 C3317 1.377 . S
C3302 C3300 1.389 . S
C3302 C3303 1.524 . S
C3302 C3316 1.377 . S
C3303 C3302 1.524 . S
C3303 C3304 1.397 1_565 S
C3303 C3308 1.363 . S
C3304 H3281 0.950 . S
C3304 C3303 1.397 1_545 S
C3304 C3305 1.334 . S
C3305 H3282 0.950 . S
C3305 C3304 1.334 . S
C3305 C3306 1.280 1_545 S
C3306 C3305 1.280 1_565 S
C3306 C3307 1.529 . S
C3306 H3325 0.917 1_565 S
C3307 H3283 0.950 . S
C3307 C3306 1.529 . S
C3307 C3308 1.415 . S
C3308 H3284 0.950 . S
C3308 C3303 1.363 . S
C3308 C3307 1.415 . S
C3309 H3285 0.951 . S
C3309 C3310 1.356 1_545 S
C3309 C3311 1.388 . S
C3310 C3309 1.356 1_565 S
C3310 C3314 1.416 . S
C3311 H3286 0.951 . S
C3311 C3309 1.388 . S
C3311 C3312 1.366 1_545 S
C3312 C3311 1.366 1_565 S
C3312 C3313 1.414 . S
C3312 C3315 1.499 . S
C3313 H3287 0.950 . S
C3313 C3312 1.414 . S
C3313 C3314 1.374 . S
C3314 H3288 0.950 . S
C3314 C3310 1.416 . S
C3314 C3313 1.374 . S
C3315 C3312 1.499 . S
C3315 C3316 1.373 . S
C3315 C3317 1.389 . S
C3316 H3289 0.950 . S
C3316 C3302 1.377 . S
C3316 C3315 1.373 . S
C3317 C3301 1.377 . S
C3317 C3315 1.389 . S
C3317 C3318 1.524 . S
C3318 C3317 1.524 . S
C3318 C3319 1.397 . S
C3318 C3323 1.363 . S
C3319 H3290 0.950 . S
C3319 C3318 1.397 . S
C3319 C3320 1.334 . S
C3320 H3291 0.950 . S
C3320 C3319 1.334 . S
C3320 C3321 1.287 . S
C3321 C3320 1.287 . S
C3321 C3322 1.524 . S
C3321 H3324 0.999 . S
C3322 H3292 0.950 1_565 S
C3322 C3321 1.524 . S
C3322 C3323 1.415 . S
C3323 H3293 0.950 1_565 S
C3323 C3318 1.363 . S
C3323 C3322 1.415 . S
H3324 C3321 0.999 . S
H3325 C3306 0.917 1_545 S
H3326 C3344 0.951 . S
H3327 C3346 0.951 . S
H3328 C3348 0.950 1_655 S
H3329 C3349 0.950 1_655 S
H3330 C3351 0.950 . S
H3331 C3354 0.950 . S
H3332 C3355 0.950 . S
H3333 C3357 0.950 . S
H3334 C3358 0.950 . S
H3335 C3359 0.951 . S
H3336 C3361 0.951 . S
H3337 C3363 0.950 . S
H3338 C3364 0.950 . S
H3339 C3366 0.950 . S
H3340 C3369 0.950 . S
H3341 C3370 0.950 . S
H3342 C3372 0.950 . S
H3343 C3373 0.950 . S
C3344 H3326 0.951 . S
C3344 C3345 1.366 . S
C3344 C3346 1.388 . S
C3345 C3344 1.366 . S
C3345 C3349 1.385 . S
C3346 H3327 0.951 . S
C3346 C3344 1.388 . S
C3346 C3347 1.366 . S
C3347 C3346 1.366 . S
C3347 C3348 1.414 . S
C3347 C3350 1.499 . S
C3348 H3328 0.950 1_455 S
C3348 C3347 1.414 . S
C3348 C3349 1.374 . S
C3349 H3329 0.950 1_455 S
C3349 C3345 1.385 . S
C3349 C3348 1.374 . S
C3350 C3347 1.499 . S
C3350 C3351 1.373 1_455 S
C3350 C3352 1.389 . S
C3351 H3330 0.950 . S
C3351 C3350 1.373 1_655 S
C3351 C3367 1.377 . S
C3352 C3350 1.389 . S
C3352 C3353 1.524 . S
C3352 C3366 1.377 . S
C3353 C3352 1.524 . S
C3353 C3354 1.397 . S
C3353 C3358 1.363 . S
C3354 H3331 0.950 . S
C3354 C3353 1.397 . S
C3354 C3355 1.334 . S
C3355 H3332 0.950 . S
C3355 C3354 1.334 . S
C3355 C3356 1.287 . S
C3356 C3355 1.287 . S
C3356 C3357 1.524 . S
C3356 H3375 0.913 . S
C3357 H3333 0.950 . S
C3357 C3356 1.524 . S
C3357 C3358 1.415 . S
C3358 H3334 0.950 . S
C3358 C3353 1.363 . S
C3358 C3357 1.415 . S
C3359 H3335 0.951 . S
C3359 C3360 1.347 1_655 S
C3359 C3361 1.388 . S
C3360 C3359 1.347 1_455 S
C3360 C3364 1.396 . S
C3361 H3336 0.951 . S
C3361 C3359 1.388 . S
C3361 C3362 1.366 1_655 S
C3362 C3361 1.366 1_455 S
C3362 C3363 1.414 . S
C3362 C3365 1.499 . S
C3363 H3337 0.950 . S
C3363 C3362 1.414 . S
C3363 C3364 1.374 . S
C3364 H3338 0.950 . S
C3364 C3360 1.396 . S
C3364 C3363 1.374 . S
C3365 C3362 1.499 . S
C3365 C3366 1.373 . S
C3365 C3367 1.389 1_455 S
C3366 H3339 0.950 . S
C3366 C3352 1.377 . S
C3366 C3365 1.373 . S
C3367 C3351 1.377 . S
C3367 C3365 1.389 1_655 S
C3367 C3368 1.524 . S
C3368 C3367 1.524 . S
C3368 C3369 1.397 . S
C3368 C3373 1.363 . S
C3369 H3340 0.950 . S
C3369 C3368 1.397 . S
C3369 C3370 1.334 . S
C3370 H3341 0.950 . S
C3370 C3369 1.334 . S
C3370 C3371 1.287 . S
C3371 C3370 1.287 . S
C3371 C3372 1.524 . S
C3371 H3374 0.999 . S
C3372 H3342 0.950 . S
C3372 C3371 1.524 . S
C3372 C3373 1.415 . S
C3373 H3343 0.950 . S
C3373 C3368 1.363 . S
C3373 C3372 1.415 . S
H3374 C3371 0.999 . S
H3375 C3356 0.913 . S
H3376 C3394 0.951 . S
H3377 C3396 0.951 . S
H3378 C3398 0.950 . S
H3379 C3399 0.950 . S
H3380 C3401 0.950 . S
H3381 C3404 0.950 . S
H3382 C3405 0.950 . S
H3383 C3407 0.950 . S
H3384 C3408 0.950 . S
H3385 C3409 0.951 . S
H3386 C3411 0.951 . S
H3387 C3413 0.950 . S
H3388 C3414 0.950 . S
H3389 C3416 0.950 . S
H3390 C3419 0.950 . S
H3391 C3420 0.950 . S
H3392 C3422 0.950 . S
H3393 C3423 0.950 . S
C3394 H3376 0.951 . S
C3394 C3395 1.366 . S
C3394 C3396 1.388 . S
C3395 C3394 1.366 . S
C3395 C3399 1.385 . S
C3396 H3377 0.951 . S
C3396 C3394 1.388 . S
C3396 C3397 1.366 . S
C3397 C3396 1.366 . S
C3397 C3398 1.414 . S
C3397 C3400 1.499 . S
C3398 H3378 0.950 . S
C3398 C3397 1.414 . S
C3398 C3399 1.374 . S
C3399 H3379 0.950 . S
C3399 C3395 1.385 . S
C3399 C3398 1.374 . S
C3400 C3397 1.499 . S
C3400 C3401 1.373 . S
C3400 C3402 1.389 . S
C3401 H3380 0.950 . S
C3401 C3400 1.373 . S
C3401 C3417 1.377 . S
C3402 C3400 1.389 . S
C3402 C3403 1.524 . S
C3402 C3416 1.377 . S
C3403 C3402 1.524 . S
C3403 C3404 1.397 . S
C3403 C3408 1.363 . S
C3404 H3381 0.950 . S
C3404 C3403 1.397 . S
C3404 C3405 1.334 . S
C3405 H3382 0.950 . S
C3405 C3404 1.334 . S
C3405 C3406 1.287 . S
C3406 C3405 1.287 . S
C3406 C3407 1.524 . S
C3406 H3425 0.913 . S
C3407 H3383 0.950 . S
C3407 C3406 1.524 . S
C3407 C3408 1.415 . S
C3408 H3384 0.950 . S
C3408 C3403 1.363 . S
C3408 C3407 1.415 . S
C3409 H3385 0.951 . S
C3409 C3410 1.366 . S
C3409 C3411 1.388 . S
C3410 C3409 1.366 . S
C3410 C3414 1.385 . S
C3411 H3386 0.951 . S
C3411 C3409 1.388 . S
C3411 C3412 1.366 . S
C3412 C3411 1.366 . S
C3412 C3413 1.414 . S
C3412 C3415 1.499 . S
C3413 H3387 0.950 . S
C3413 C3412 1.414 . S
C3413 C3414 1.374 . S
C3414 H3388 0.950 . S
C3414 C3410 1.385 . S
C3414 C3413 1.374 . S
C3415 C3412 1.499 . S
C3415 C3416 1.373 . S
C3415 C3417 1.389 . S
C3416 H3389 0.950 . S
C3416 C3402 1.377 . S
C3416 C3415 1.373 . S
C3417 C3401 1.377 . S
C3417 C3415 1.389 . S
C3417 C3418 1.524 . S
C3418 C3417 1.524 . S
C3418 C3419 1.397 . S
C3418 C3423 1.363 . S
C3419 H3390 0.950 . S
C3419 C3418 1.397 . S
C3419 C3420 1.334 . S
C3420 H3391 0.950 . S
C3420 C3419 1.334 . S
C3420 C3421 1.287 . S
C3421 C3420 1.287 . S
C3421 C3422 1.524 . S
C3421 H3424 0.999 . S
C3422 H3392 0.950 . S
C3422 C3421 1.524 . S
C3422 C3423 1.415 . S
C3423 H3393 0.950 . S
C3423 C3418 1.363 . S
C3423 C3422 1.415 . S
H3424 C3421 0.999 . S
H3425 C3406 0.913 . S
H3426 C3444 0.951 . S
H3427 C3446 0.951 . S
H3428 C3448 0.950 . S
H3429 C3449 0.950 . S
H3430 C3451 0.950 . S
H3431 C3454 0.950 . S
H3432 C3455 0.950 . S
H3433 C3457 0.950 . S
H3434 C3458 0.950 . S
H3435 C3459 0.951 . S
H3436 C3461 0.951 . S
H3437 C3463 0.950 . S
H3438 C3464 0.950 . S
H3439 C3466 0.950 . S
H3440 C3469 0.950 . S
H3441 C3470 0.950 . S
H3442 C3472 0.950 . S
H3443 C3473 0.950 . S
C3444 H3426 0.951 . S
C3444 C3445 1.366 . S
C3444 C3446 1.388 . S
C3445 C3444 1.366 . S
C3445 C3449 1.385 . S
C3446 H3427 0.951 . S
C3446 C3444 1.388 . S
C3446 C3447 1.366 . S
C3447 C3446 1.366 . S
C3447 C3448 1.414 . S
C3447 C3450 1.499 . S
C3448 H3428 0.950 . S
C3448 C3447 1.414 . S
C3448 C3449 1.374 . S
C3449 H3429 0.950 . S
C3449 C3445 1.385 . S
C3449 C3448 1.374 . S
C3450 C3447 1.499 . S
C3450 C3451 1.373 . S
C3450 C3452 1.389 . S
C3451 H3430 0.950 . S
C3451 C3450 1.373 . S
C3451 C3467 1.377 . S
C3452 C3450 1.389 . S
C3452 C3453 1.524 . S
C3452 C3466 1.377 . S
C3453 C3452 1.524 . S
C3453 C3454 1.397 . S
C3453 C3458 1.363 . S
C3454 H3431 0.950 . S
C3454 C3453 1.397 . S
C3454 C3455 1.334 . S
C3455 H3432 0.950 . S
C3455 C3454 1.334 . S
C3455 C3456 1.287 . S
C3456 C3455 1.287 . S
C3456 C3457 1.524 . S
C3456 H3475 0.913 . S
C3457 H3433 0.950 . S
C3457 C3456 1.524 . S
C3457 C3458 1.415 . S
C3458 H3434 0.950 . S
C3458 C3453 1.363 . S
C3458 C3457 1.415 . S
C3459 H3435 0.951 . S
C3459 C3460 1.366 . S
C3459 C3461 1.388 . S
C3460 C3459 1.366 . S
C3460 C3464 1.385 . S
C3461 H3436 0.951 . S
C3461 C3459 1.388 . S
C3461 C3462 1.366 . S
C3462 C3461 1.366 . S
C3462 C3463 1.414 . S
C3462 C3465 1.499 . S
C3463 H3437 0.950 . S
C3463 C3462 1.414 . S
C3463 C3464 1.374 . S
C3464 H3438 0.950 . S
C3464 C3460 1.385 . S
C3464 C3463 1.374 . S
C3465 C3462 1.499 . S
C3465 C3466 1.373 . S
C3465 C3467 1.389 . S
C3466 H3439 0.950 . S
C3466 C3452 1.377 . S
C3466 C3465 1.373 . S
C3467 C3451 1.377 . S
C3467 C3465 1.389 . S
C3467 C3468 1.524 . S
C3468 C3467 1.524 . S
C3468 C3469 1.397 . S
C3468 C3473 1.363 . S
C3469 H3440 0.950 . S
C3469 C3468 1.397 . S
C3469 C3470 1.334 . S
C3470 H3441 0.950 . S
C3470 C3469 1.334 . S
C3470 C3471 1.287 . S
C3471 C3470 1.287 . S
C3471 C3472 1.524 . S
C3471 H3474 0.999 . S
C3472 H3442 0.950 . S
C3472 C3471 1.524 . S
C3472 C3473 1.415 . S
C3473 H3443 0.950 . S
C3473 C3468 1.363 . S
C3473 C3472 1.415 . S
H3474 C3471 0.999 . S
H3475 C3456 0.913 . S
H3476 C3494 0.951 . S
H3477 C3496 0.951 . S
H3478 C3498 0.950 . S
H3479 C3499 0.950 . S
H3480 C3501 0.950 . S
H3481 C3504 0.950 . S
H3482 C3505 0.950 . S
H3483 C3507 0.950 . S
H3484 C3508 0.950 . S
H3485 C3509 0.951 . S
H3486 C3511 0.951 . S
H3487 C3513 0.950 . S
H3488 C3514 0.950 . S
H3489 C3516 0.950 . S
H3490 C3519 0.950 . S
H3491 C3520 0.950 . S
H3492 C3522 0.950 . S
H3493 C3523 0.950 . S
C3494 H3476 0.951 . S
C3494 C3495 1.366 . S
C3494 C3496 1.388 . S
C3495 C3494 1.366 . S
C3495 C3499 1.385 . S
C3496 H3477 0.951 . S
C3496 C3494 1.388 . S
C3496 C3497 1.366 . S
C3497 C3496 1.366 . S
C3497 C3498 1.414 . S
C3497 C3500 1.499 . S
C3498 H3478 0.950 . S
C3498 C3497 1.414 . S
C3498 C3499 1.374 . S
C3499 H3479 0.950 . S
C3499 C3495 1.385 . S
C3499 C3498 1.374 . S
C3500 C3497 1.499 . S
C3500 C3501 1.373 . S
C3500 C3502 1.389 . S
C3501 H3480 0.950 . S
C3501 C3500 1.373 . S
C3501 C3517 1.377 . S
C3502 C3500 1.389 . S
C3502 C3503 1.524 . S
C3502 C3516 1.377 . S
C3503 C3502 1.524 . S
C3503 C3504 1.397 . S
C3503 C3508 1.363 . S
C3504 H3481 0.950 . S
C3504 C3503 1.397 . S
C3504 C3505 1.334 . S
C3505 H3482 0.950 . S
C3505 C3504 1.334 . S
C3505 C3506 1.287 . S
C3506 C3505 1.287 . S
C3506 C3507 1.524 . S
C3506 H3525 0.913 . S
C3507 H3483 0.950 . S
C3507 C3506 1.524 . S
C3507 C3508 1.415 . S
C3508 H3484 0.950 . S
C3508 C3503 1.363 . S
C3508 C3507 1.415 . S
C3509 H3485 0.951 . S
C3509 C3510 1.366 . S
C3509 C3511 1.388 . S
C3510 C3509 1.366 . S
C3510 C3514 1.385 . S
C3511 H3486 0.951 . S
C3511 C3509 1.388 . S
C3511 C3512 1.366 . S
C3512 C3511 1.366 . S
C3512 C3513 1.414 . S
C3512 C3515 1.499 . S
C3513 H3487 0.950 . S
C3513 C3512 1.414 . S
C3513 C3514 1.374 . S
C3514 H3488 0.950 . S
C3514 C3510 1.385 . S
C3514 C3513 1.374 . S
C3515 C3512 1.499 . S
C3515 C3516 1.373 . S
C3515 C3517 1.389 . S
C3516 H3489 0.950 . S
C3516 C3502 1.377 . S
C3516 C3515 1.373 . S
C3517 C3501 1.377 . S
C3517 C3515 1.389 . S
C3517 C3518 1.524 . S
C3518 C3517 1.524 . S
C3518 C3519 1.397 . S
C3518 C3523 1.363 . S
C3519 H3490 0.950 . S
C3519 C3518 1.397 . S
C3519 C3520 1.334 . S
C3520 H3491 0.950 . S
C3520 C3519 1.334 . S
C3520 C3521 1.287 . S
C3521 C3520 1.287 . S
C3521 C3522 1.524 . S
C3521 H3524 0.999 . S
C3522 H3492 0.950 . S
C3522 C3521 1.524 . S
C3522 C3523 1.415 . S
C3523 H3493 0.950 . S
C3523 C3518 1.363 . S
C3523 C3522 1.415 . S
H3524 C3521 0.999 . S
H3525 C3506 0.913 . S
H3526 C3544 0.951 . S
H3527 C3546 0.951 . S
H3528 C3548 0.950 . S
H3529 C3549 0.950 . S
H3530 C3551 0.950 . S
H3531 C3554 0.950 . S
H3532 C3555 0.950 . S
H3533 C3557 0.950 . S
H3534 C3558 0.950 . S
H3535 C3559 0.951 . S
H3536 C3561 0.951 . S
H3537 C3563 0.950 . S
H3538 C3564 0.950 . S
H3539 C3566 0.950 . S
H3540 C3569 0.950 . S
H3541 C3570 0.950 . S
H3542 C3572 0.950 . S
H3543 C3573 0.950 . S
C3544 H3526 0.951 . S
C3544 C3545 1.366 . S
C3544 C3546 1.388 . S
C3545 C3544 1.366 . S
C3545 C3549 1.385 . S
C3546 H3527 0.951 . S
C3546 C3544 1.388 . S
C3546 C3547 1.366 . S
C3547 C3546 1.366 . S
C3547 C3548 1.414 . S
C3547 C3550 1.499 . S
C3548 H3528 0.950 . S
C3548 C3547 1.414 . S
C3548 C3549 1.374 . S
C3549 H3529 0.950 . S
C3549 C3545 1.385 . S
C3549 C3548 1.374 . S
C3550 C3547 1.499 . S
C3550 C3551 1.373 . S
C3550 C3552 1.389 . S
C3551 H3530 0.950 . S
C3551 C3550 1.373 . S
C3551 C3567 1.377 . S
C3552 C3550 1.389 . S
C3552 C3553 1.524 . S
C3552 C3566 1.377 . S
C3553 C3552 1.524 . S
C3553 C3554 1.397 . S
C3553 C3558 1.363 . S
C3554 H3531 0.950 . S
C3554 C3553 1.397 . S
C3554 C3555 1.334 . S
C3555 H3532 0.950 . S
C3555 C3554 1.334 . S
C3555 C3556 1.287 . S
C3556 C3555 1.287 . S
C3556 C3557 1.524 . S
C3556 H3575 0.913 . S
C3557 H3533 0.950 . S
C3557 C3556 1.524 . S
C3557 C3558 1.415 . S
C3558 H3534 0.950 . S
C3558 C3553 1.363 . S
C3558 C3557 1.415 . S
C3559 H3535 0.951 . S
C3559 C3560 1.366 . S
C3559 C3561 1.388 . S
C3560 C3559 1.366 . S
C3560 C3564 1.385 . S
C3561 H3536 0.951 . S
C3561 C3559 1.388 . S
C3561 C3562 1.366 . S
C3562 C3561 1.366 . S
C3562 C3563 1.414 . S
C3562 C3565 1.499 . S
C3563 H3537 0.950 . S
C3563 C3562 1.414 . S
C3563 C3564 1.374 . S
C3564 H3538 0.950 . S
C3564 C3560 1.385 . S
C3564 C3563 1.374 . S
C3565 C3562 1.499 . S
C3565 C3566 1.373 . S
C3565 C3567 1.389 . S
C3566 H3539 0.950 . S
C3566 C3552 1.377 . S
C3566 C3565 1.373 . S
C3567 C3551 1.377 . S
C3567 C3565 1.389 . S
C3567 C3568 1.524 . S
C3568 C3567 1.524 . S
C3568 C3569 1.397 . S
C3568 C3573 1.363 . S
C3569 H3540 0.950 . S
C3569 C3568 1.397 . S
C3569 C3570 1.334 . S
C3570 H3541 0.950 . S
C3570 C3569 1.334 . S
C3570 C3571 1.287 . S
C3571 C3570 1.287 . S
C3571 C3572 1.524 . S
C3571 H3574 0.999 . S
C3572 H3542 0.950 . S
C3572 C3571 1.524 . S
C3572 C3573 1.415 . S
C3573 H3543 0.950 . S
C3573 C3568 1.363 . S
C3573 C3572 1.415 . S
H3574 C3571 0.999 . S
H3575 C3556 0.913 . S
H3576 C3594 0.951 1_565 S
H3577 C3596 0.951 1_565 S
H3578 C3598 0.950 . S
H3579 C3599 0.950 . S
H3580 C3601 0.950 . S
H3581 C3604 0.950 1_545 S
H3582 C3605 0.950 . S
H3583 C3607 0.950 . S
H3584 C3608 0.950 . S
H3585 C3609 0.951 . S
H3586 C3611 0.951 . S
H3587 C3613 0.950 . S
H3588 C3614 0.950 . S
H3589 C3616 0.950 . S
H3590 C3619 0.950 . S
H3591 C3620 0.950 . S
H3592 C3622 0.950 . S
H3593 C3623 0.950 . S
C3594 H3576 0.951 1_545 S
C3594 C3595 1.366 . S
C3594 C3596 1.388 . S
C3595 C3594 1.366 . S
C3595 C3599 1.385 . S
C3596 H3577 0.951 1_545 S
C3596 C3594 1.388 . S
C3596 C3597 1.366 . S
C3597 C3596 1.366 . S
C3597 C3598 1.414 . S
C3597 C3600 1.499 . S
C3598 H3578 0.950 . S
C3598 C3597 1.414 . S
C3598 C3599 1.374 . S
C3599 H3579 0.950 . S
C3599 C3595 1.385 . S
C3599 C3598 1.374 . S
C3600 C3597 1.499 . S
C3600 C3601 1.373 . S
C3600 C3602 1.424 . S
C3601 H3580 0.950 . S
C3601 C3600 1.373 . S
C3601 C3617 1.377 . S
C3602 C3600 1.424 . S
C3602 C3603 1.512 1_545 S
C3602 C3616 1.354 1_545 S
C3603 C3602 1.512 1_565 S
C3603 C3604 1.397 . S
C3603 C3608 1.363 . S
C3604 H3581 0.950 1_565 S
C3604 C3603 1.397 . S
C3604 C3605 1.334 . S
C3605 H3582 0.950 . S
C3605 C3604 1.334 . S
C3605 C3606 1.287 . S
C3606 C3605 1.287 . S
C3606 C3607 1.524 . S
C3606 H3625 0.913 . S
C3607 H3583 0.950 . S
C3607 C3606 1.524 . S
C3607 C3608 1.415 . S
C3608 H3584 0.950 . S
C3608 C3603 1.363 . S
C3608 C3607 1.415 . S
C3609 H3585 0.951 . S
C3609 C3610 1.366 . S
C3609 C3611 1.388 . S
C3610 C3609 1.366 . S
C3610 C3614 1.385 1_545 S
C3611 H3586 0.951 . S
C3611 C3609 1.388 . S
C3611 C3612 1.366 . S
C3612 C3611 1.366 . S
C3612 C3613 1.414 1_545 S
C3612 C3615 1.499 . S
C3613 H3587 0.950 . S
C3613 C3612 1.414 1_565 S
C3613 C3614 1.374 . S
C3614 H3588 0.950 . S
C3614 C3610 1.385 1_565 S
C3614 C3613 1.374 . S
C3615 C3612 1.499 . S
C3615 C3616 1.373 1_545 S
C3615 C3617 1.389 . S
C3616 H3589 0.950 . S
C3616 C3602 1.354 1_565 S
C3616 C3615 1.373 1_565 S
C3617 C3601 1.377 . S
C3617 C3615 1.389 . S
C3617 C3618 1.524 . S
C3618 C3617 1.524 . S
C3618 C3619 1.397 . S
C3618 C3623 1.363 . S
C3619 H3590 0.950 . S
C3619 C3618 1.397 . S
C3619 C3620 1.334 . S
C3620 H3591 0.950 . S
C3620 C3619 1.334 . S
C3620 C3621 1.287 . S
C3621 C3620 1.287 . S
C3621 C3622 1.524 . S
C3621 H3624 0.999 . S
C3622 H3592 0.950 . S
C3622 C3621 1.524 . S
C3622 C3623 1.415 . S
C3623 H3593 0.950 . S
C3623 C3618 1.363 . S
C3623 C3622 1.415 . S
H3624 C3621 0.999 . S
H3625 C3606 0.913 . S
H3626 C3644 0.951 . S
H3627 C3646 0.962 . S
H3628 C3648 0.950 . S
H3629 C3649 0.950 . S
H3630 C3651 0.950 . S
H3631 C3654 0.950 . S
H3632 C3655 0.950 . S
H3633 C3657 0.950 . S
H3634 C3658 0.950 . S
H3635 C3659 0.951 . S
H3636 C3661 0.951 . S
H3637 C3663 0.950 . S
H3638 C3664 0.950 . S
H3639 C3666 0.950 . S
H3640 C3669 0.950 . S
H3641 C3670 0.950 . S
H3642 C3672 0.950 . S
H3643 C3673 0.950 . S
C3644 H3626 0.951 . S
C3644 C3645 1.366 . S
C3644 C3646 1.388 . S
C3645 C3644 1.366 . S
C3645 C3649 1.385 . S
C3646 H3627 0.962 . S
C3646 C3644 1.388 . S
C3646 C3647 1.366 . S
C3647 C3646 1.366 . S
C3647 C3648 1.414 . S
C3647 C3650 1.499 . S
C3648 H3628 0.950 . S
C3648 C3647 1.414 . S
C3648 C3649 1.374 . S
C3649 H3629 0.950 . S
C3649 C3645 1.385 . S
C3649 C3648 1.374 . S
C3650 C3647 1.499 . S
C3650 C3651 1.373 . S
C3650 C3652 1.389 . S
C3651 H3630 0.950 . S
C3651 C3650 1.373 . S
C3651 C3667 1.377 . S
C3652 C3650 1.389 . S
C3652 C3653 1.524 . S
C3652 C3666 1.377 . S
C3653 C3652 1.524 . S
C3653 C3654 1.397 . S
C3653 C3658 1.363 . S
C3654 H3631 0.950 . S
C3654 C3653 1.397 . S
C3654 C3655 1.334 . S
C3655 H3632 0.950 . S
C3655 C3654 1.334 . S
C3655 C3656 1.287 . S
C3656 C3655 1.287 . S
C3656 C3657 1.524 . S
C3656 H3675 0.913 . S
C3657 H3633 0.950 . S
C3657 C3656 1.524 . S
C3657 C3658 1.415 . S
C3658 H3634 0.950 . S
C3658 C3653 1.363 . S
C3658 C3657 1.415 . S
C3659 H3635 0.951 . S
C3659 C3660 1.366 . S
C3659 C3661 1.388 . S
C3660 C3659 1.366 . S
C3660 C3664 1.385 1_655 S
C3661 H3636 0.951 . S
C3661 C3659 1.388 . S
C3661 C3662 1.366 . S
C3662 C3661 1.366 . S
C3662 C3663 1.414 1_655 S
C3662 C3665 1.499 . S
C3663 H3637 0.950 . S
C3663 C3662 1.414 1_455 S
C3663 C3664 1.374 . S
C3664 H3638 0.950 . S
C3664 C3660 1.385 1_455 S
C3664 C3663 1.374 . S
C3665 C3662 1.499 . S
C3665 C3666 1.373 . S
C3665 C3667 1.389 . S
C3666 H3639 0.950 . S
C3666 C3652 1.377 . S
C3666 C3665 1.373 . S
C3667 C3651 1.377 . S
C3667 C3665 1.389 . S
C3667 C3668 1.523 . S
C3668 C3667 1.523 . S
C3668 C3669 1.360 1_655 S
C3668 C3673 1.399 . S
C3669 H3640 0.950 . S
C3669 C3668 1.360 1_455 S
C3669 C3670 1.334 . S
C3670 H3641 0.950 . S
C3670 C3669 1.334 . S
C3670 C3671 1.287 . S
C3671 C3670 1.287 . S
C3671 C3672 1.524 1_455 S
C3671 H3674 0.999 . S
C3672 H3642 0.950 . S
C3672 C3671 1.524 1_655 S
C3672 C3673 1.415 . S
C3673 H3643 0.950 . S
C3673 C3668 1.399 . S
C3673 C3672 1.415 . S
H3674 C3671 0.999 . S
H3675 C3656 0.913 . S
H3676 C3694 0.951 . S
H3677 C3696 0.951 . S
H3678 C3698 0.950 . S
H3679 C3699 0.950 . S
H3680 C3701 0.950 . S
H3681 C3704 0.950 . S
H3682 C3705 0.950 . S
H3683 C3707 0.950 . S
H3684 C3708 0.950 . S
H3685 C3709 0.951 . S
H3686 C3711 0.951 . S
H3687 C3713 0.950 . S
H3688 C3714 0.950 . S
H3689 C3716 0.950 . S
H3690 C3719 0.950 . S
H3691 C3720 0.950 . S
H3692 C3722 0.950 . S
H3693 C3723 0.950 . S
C3694 H3676 0.951 . S
C3694 C3695 1.366 . S
C3694 C3696 1.388 . S
C3695 C3694 1.366 . S
C3695 C3699 1.385 . S
C3696 H3677 0.951 . S
C3696 C3694 1.388 . S
C3696 C3697 1.366 . S
C3697 C3696 1.366 . S
C3697 C3698 1.414 . S
C3697 C3700 1.499 . S
C3698 H3678 0.950 . S
C3698 C3697 1.414 . S
C3698 C3699 1.374 . S
C3699 H3679 0.950 . S
C3699 C3695 1.385 . S
C3699 C3698 1.374 . S
C3700 C3697 1.499 . S
C3700 C3701 1.373 . S
C3700 C3702 1.389 . S
C3701 H3680 0.950 . S
C3701 C3700 1.373 . S
C3701 C3717 1.377 . S
C3702 C3700 1.389 . S
C3702 C3703 1.524 . S
C3702 C3716 1.377 . S
C3703 C3702 1.524 . S
C3703 C3704 1.397 . S
C3703 C3708 1.363 . S
C3704 H3681 0.950 . S
C3704 C3703 1.397 . S
C3704 C3705 1.334 . S
C3705 H3682 0.950 . S
C3705 C3704 1.334 . S
C3705 C3706 1.287 . S
C3706 C3705 1.287 . S
C3706 C3707 1.524 . S
C3706 H3725 0.913 . S
C3707 H3683 0.950 . S
C3707 C3706 1.524 . S
C3707 C3708 1.415 . S
C3708 H3684 0.950 . S
C3708 C3703 1.363 . S
C3708 C3707 1.415 . S
C3709 H3685 0.951 . S
C3709 C3710 1.366 . S
C3709 C3711 1.388 . S
C3710 C3709 1.366 . S
C3710 C3714 1.385 . S
C3711 H3686 0.951 . S
C3711 C3709 1.388 . S
C3711 C3712 1.366 . S
C3712 C3711 1.366 . S
C3712 C3713 1.414 . S
C3712 C3715 1.499 . S
C3713 H3687 0.950 . S
C3713 C3712 1.414 . S
C3713 C3714 1.374 . S
C3714 H3688 0.950 . S
C3714 C3710 1.385 . S
C3714 C3713 1.374 . S
C3715 C3712 1.499 . S
C3715 C3716 1.373 . S
C3715 C3717 1.389 . S
C3716 H3689 0.950 . S
C3716 C3702 1.377 . S
C3716 C3715 1.373 . S
C3717 C3701 1.377 . S
C3717 C3715 1.389 . S
C3717 C3718 1.524 . S
C3718 C3717 1.524 . S
C3718 C3719 1.397 . S
C3718 C3723 1.363 . S
C3719 H3690 0.950 . S
C3719 C3718 1.397 . S
C3719 C3720 1.334 . S
C3720 H3691 0.950 . S
C3720 C3719 1.334 . S
C3720 C3721 1.287 . S
C3721 C3720 1.287 . S
C3721 C3722 1.524 . S
C3721 H3724 0.999 . S
C3722 H3692 0.950 . S
C3722 C3721 1.524 . S
C3722 C3723 1.415 . S
C3723 H3693 0.950 . S
C3723 C3718 1.363 . S
C3723 C3722 1.415 . S
H3724 C3721 0.999 . S
H3725 C3706 0.913 . S
H3726 C3744 0.951 . S
H3727 C3746 0.951 . S
H3728 C3748 0.950 . S
H3729 C3749 0.950 . S
H3730 C3751 0.950 . S
H3731 C3754 0.950 . S
H3732 C3755 0.950 . S
H3733 C3757 0.950 . S
H3734 C3758 0.950 . S
H3735 C3759 0.951 . S
H3736 C3761 0.951 . S
H3737 C3763 0.950 . S
H3738 C3764 0.950 . S
H3739 C3766 0.950 . S
H3740 C3769 0.950 . S
H3741 C3770 0.950 . S
H3742 C3772 0.950 . S
H3743 C3773 0.950 . S
C3744 H3726 0.951 . S
C3744 C3745 1.366 . S
C3744 C3746 1.388 . S
C3745 C3744 1.366 . S
C3745 C3749 1.385 . S
C3746 H3727 0.951 . S
C3746 C3744 1.388 . S
C3746 C3747 1.366 . S
C3747 C3746 1.366 . S
C3747 C3748 1.414 . S
C3747 C3750 1.499 . S
C3748 H3728 0.950 . S
C3748 C3747 1.414 . S
C3748 C3749 1.374 . S
C3749 H3729 0.950 . S
C3749 C3745 1.385 . S
C3749 C3748 1.374 . S
C3750 C3747 1.499 . S
C3750 C3751 1.373 . S
C3750 C3752 1.389 . S
C3751 H3730 0.950 . S
C3751 C3750 1.373 . S
C3751 C3767 1.377 . S
C3752 C3750 1.389 . S
C3752 C3753 1.524 . S
C3752 C3766 1.377 . S
C3753 C3752 1.524 . S
C3753 C3754 1.397 . S
C3753 C3758 1.363 . S
C3754 H3731 0.950 . S
C3754 C3753 1.397 . S
C3754 C3755 1.334 . S
C3755 H3732 0.950 . S
C3755 C3754 1.334 . S
C3755 C3756 1.287 . S
C3756 C3755 1.287 . S
C3756 C3757 1.524 . S
C3756 H3775 0.913 . S
C3757 H3733 0.950 . S
C3757 C3756 1.524 . S
C3757 C3758 1.415 . S
C3758 H3734 0.950 . S
C3758 C3753 1.363 . S
C3758 C3757 1.415 . S
C3759 H3735 0.951 . S
C3759 C3760 1.366 . S
C3759 C3761 1.388 . S
C3760 C3759 1.366 . S
C3760 C3764 1.385 . S
C3761 H3736 0.951 . S
C3761 C3759 1.388 . S
C3761 C3762 1.366 . S
C3762 C3761 1.366 . S
C3762 C3763 1.414 . S
C3762 C3765 1.499 . S
C3763 H3737 0.950 . S
C3763 C3762 1.414 . S
C3763 C3764 1.374 . S
C3764 H3738 0.950 . S
C3764 C3760 1.385 . S
C3764 C3763 1.374 . S
C3765 C3762 1.499 . S
C3765 C3766 1.373 . S
C3765 C3767 1.389 . S
C3766 H3739 0.950 . S
C3766 C3752 1.377 . S
C3766 C3765 1.373 . S
C3767 C3751 1.377 . S
C3767 C3765 1.389 . S
C3767 C3768 1.524 . S
C3768 C3767 1.524 . S
C3768 C3769 1.397 . S
C3768 C3773 1.363 . S
C3769 H3740 0.950 . S
C3769 C3768 1.397 . S
C3769 C3770 1.334 . S
C3770 H3741 0.950 . S
C3770 C3769 1.334 . S
C3770 C3771 1.287 . S
C3771 C3770 1.287 . S
C3771 C3772 1.524 . S
C3771 H3774 0.999 . S
C3772 H3742 0.950 . S
C3772 C3771 1.524 . S
C3772 C3773 1.415 . S
C3773 H3743 0.950 . S
C3773 C3768 1.363 . S
C3773 C3772 1.415 . S
H3774 C3771 0.999 . S
H3775 C3756 0.913 . S
H3776 C3794 0.951 . S
H3777 C3796 0.951 . S
H3778 C3798 0.950 . S
H3779 C3799 0.950 . S
H3780 C3801 0.950 . S
H3781 C3804 0.950 . S
H3782 C3805 0.950 . S
H3783 C3807 0.950 . S
H3784 C3808 0.950 . S
H3785 C3809 0.951 . S
H3786 C3811 0.951 . S
H3787 C3813 0.950 . S
H3788 C3814 0.950 . S
H3789 C3816 0.950 . S
H3790 C3819 0.950 . S
H3791 C3820 0.950 . S
H3792 C3822 0.950 . S
H3793 C3823 0.950 . S
C3794 H3776 0.951 . S
C3794 C3795 1.366 . S
C3794 C3796 1.388 . S
C3795 C3794 1.366 . S
C3795 C3799 1.385 . S
C3796 H3777 0.951 . S
C3796 C3794 1.388 . S
C3796 C3797 1.366 . S
C3797 C3796 1.366 . S
C3797 C3798 1.414 . S
C3797 C3800 1.499 . S
C3798 H3778 0.950 . S
C3798 C3797 1.414 . S
C3798 C3799 1.374 . S
C3799 H3779 0.950 . S
C3799 C3795 1.385 . S
C3799 C3798 1.374 . S
C3800 C3797 1.499 . S
C3800 C3801 1.373 . S
C3800 C3802 1.389 . S
C3801 H3780 0.950 . S
C3801 C3800 1.373 . S
C3801 C3817 1.377 . S
C3802 C3800 1.389 . S
C3802 C3803 1.524 . S
C3802 C3816 1.377 . S
C3803 C3802 1.524 . S
C3803 C3804 1.397 . S
C3803 C3808 1.363 . S
C3804 H3781 0.950 . S
C3804 C3803 1.397 . S
C3804 C3805 1.334 . S
C3805 H3782 0.950 . S
C3805 C3804 1.334 . S
C3805 C3806 1.287 . S
C3806 C3805 1.287 . S
C3806 C3807 1.524 . S
C3806 H3825 0.913 . S
C3807 H3783 0.950 . S
C3807 C3806 1.524 . S
C3807 C3808 1.415 . S
C3808 H3784 0.950 . S
C3808 C3803 1.363 . S
C3808 C3807 1.415 . S
C3809 H3785 0.951 . S
C3809 C3810 1.366 . S
C3809 C3811 1.388 . S
C3810 C3809 1.366 . S
C3810 C3814 1.385 . S
C3811 H3786 0.951 . S
C3811 C3809 1.388 . S
C3811 C3812 1.366 . S
C3812 C3811 1.366 . S
C3812 C3813 1.414 . S
C3812 C3815 1.499 . S
C3813 H3787 0.950 . S
C3813 C3812 1.414 . S
C3813 C3814 1.374 . S
C3814 H3788 0.950 . S
C3814 C3810 1.385 . S
C3814 C3813 1.374 . S
C3815 C3812 1.499 . S
C3815 C3816 1.373 . S
C3815 C3817 1.389 . S
C3816 H3789 0.950 . S
C3816 C3802 1.377 . S
C3816 C3815 1.373 . S
C3817 C3801 1.377 . S
C3817 C3815 1.389 . S
C3817 C3818 1.524 . S
C3818 C3817 1.524 . S
C3818 C3819 1.397 . S
C3818 C3823 1.363 . S
C3819 H3790 0.950 . S
C3819 C3818 1.397 . S
C3819 C3820 1.334 . S
C3820 H3791 0.950 . S
C3820 C3819 1.334 . S
C3820 C3821 1.287 . S
C3821 C3820 1.287 . S
C3821 C3822 1.524 . S
C3821 H3824 0.999 . S
C3822 H3792 0.950 . S
C3822 C3821 1.524 . S
C3822 C3823 1.415 . S
C3823 H3793 0.950 . S
C3823 C3818 1.363 . S
C3823 C3822 1.415 . S
H3824 C3821 0.999 . S
H3825 C3806 0.913 . S
H3826 C3844 0.951 . S
H3827 C3846 0.951 . S
H3828 C3848 0.950 . S
H3829 C3849 0.950 . S
H3830 C3851 0.950 . S
H3831 C3854 0.950 . S
H3832 C3855 0.950 . S
H3833 C3857 0.950 . S
H3834 C3858 0.950 . S
H3835 C3859 0.951 . S
H3836 C3861 0.951 . S
H3837 C3863 0.950 . S
H3838 C3864 0.950 . S
H3839 C3866 0.950 . S
H3840 C3869 0.950 . S
H3841 C3870 0.950 . S
H3842 C3872 0.950 . S
H3843 C3873 0.950 . S
C3844 H3826 0.951 . S
C3844 C3845 1.366 . S
C3844 C3846 1.388 . S
C3845 C3844 1.366 . S
C3845 C3849 1.385 . S
C3846 H3827 0.951 . S
C3846 C3844 1.388 . S
C3846 C3847 1.366 . S
C3847 C3846 1.366 . S
C3847 C3848 1.414 . S
C3847 C3850 1.499 . S
C3848 H3828 0.950 . S
C3848 C3847 1.414 . S
C3848 C3849 1.374 . S
C3849 H3829 0.950 . S
C3849 C3845 1.385 . S
C3849 C3848 1.374 . S
C3850 C3847 1.499 . S
C3850 C3851 1.373 . S
C3850 C3852 1.389 . S
C3851 H3830 0.950 . S
C3851 C3850 1.373 . S
C3851 C3867 1.377 . S
C3852 C3850 1.389 . S
C3852 C3853 1.524 . S
C3852 C3866 1.377 . S
C3853 C3852 1.524 . S
C3853 C3854 1.397 . S
C3853 C3858 1.363 . S
C3854 H3831 0.950 . S
C3854 C3853 1.397 . S
C3854 C3855 1.334 . S
C3855 H3832 0.950 . S
C3855 C3854 1.334 . S
C3855 C3856 1.287 . S
C3856 C3855 1.287 . S
C3856 C3857 1.524 . S
C3856 H3875 0.913 . S
C3857 H3833 0.950 . S
C3857 C3856 1.524 . S
C3857 C3858 1.415 . S
C3858 H3834 0.950 . S
C3858 C3853 1.363 . S
C3858 C3857 1.415 . S
C3859 H3835 0.951 . S
C3859 C3860 1.366 . S
C3859 C3861 1.388 . S
C3860 C3859 1.366 . S
C3860 C3864 1.385 . S
C3861 H3836 0.951 . S
C3861 C3859 1.388 . S
C3861 C3862 1.366 . S
C3862 C3861 1.366 . S
C3862 C3863 1.414 . S
C3862 C3865 1.499 . S
C3863 H3837 0.950 . S
C3863 C3862 1.414 . S
C3863 C3864 1.374 . S
C3864 H3838 0.950 . S
C3864 C3860 1.385 . S
C3864 C3863 1.374 . S
C3865 C3862 1.499 . S
C3865 C3866 1.373 . S
C3865 C3867 1.389 . S
C3866 H3839 0.950 . S
C3866 C3852 1.377 . S
C3866 C3865 1.373 . S
C3867 C3851 1.377 . S
C3867 C3865 1.389 . S
C3867 C3868 1.524 . S
C3868 C3867 1.524 . S
C3868 C3869 1.397 . S
C3868 C3873 1.363 . S
C3869 H3840 0.950 . S
C3869 C3868 1.397 . S
C3869 C3870 1.334 . S
C3870 H3841 0.950 . S
C3870 C3869 1.334 . S
C3870 C3871 1.287 . S
C3871 C3870 1.287 . S
C3871 C3872 1.524 . S
C3871 H3874 0.999 . S
C3872 H3842 0.950 . S
C3872 C3871 1.524 . S
C3872 C3873 1.415 . S
C3873 H3843 0.950 . S
C3873 C3868 1.363 . S
C3873 C3872 1.415 . S
H3874 C3871 0.999 . S
H3875 C3856 0.913 . S
H3876 C3894 0.951 . S
H3877 C3896 0.951 . S
H3878 C3898 0.950 . S
H3879 C3899 0.950 . S
H3880 C3901 0.950 . S
H3881 C3904 0.950 . S
H3882 C3905 0.950 . S
H3883 C3907 0.950 . S
H3884 C3908 0.950 . S
H3885 C3909 0.951 . S
H3886 C3911 0.951 . S
H3887 C3913 0.950 . S
H3888 C3914 0.950 . S
H3889 C3916 0.950 . S
H3890 C3919 0.950 . S
H3891 C3920 0.950 . S
H3892 C3922 0.950 . S
H3893 C3923 0.950 . S
C3894 H3876 0.951 . S
C3894 C3895 1.366 . S
C3894 C3896 1.388 . S
C3895 C3894 1.366 . S
C3895 C3899 1.385 . S
C3896 H3877 0.951 . S
C3896 C3894 1.388 . S
C3896 C3897 1.366 . S
C3897 C3896 1.366 . S
C3897 C3898 1.414 . S
C3897 C3900 1.499 . S
C3898 H3878 0.950 . S
C3898 C3897 1.414 . S
C3898 C3899 1.374 . S
C3899 H3879 0.950 . S
C3899 C3895 1.385 . S
C3899 C3898 1.374 . S
C3900 C3897 1.499 . S
C3900 C3901 1.373 . S
C3900 C3902 1.389 . S
C3901 H3880 0.950 . S
C3901 C3900 1.373 . S
C3901 C3917 1.377 . S
C3902 C3900 1.389 . S
C3902 C3903 1.524 . S
C3902 C3916 1.377 . S
C3903 C3902 1.524 . S
C3903 C3904 1.397 . S
C3903 C3908 1.363 . S
C3904 H3881 0.950 . S
C3904 C3903 1.397 . S
C3904 C3905 1.334 . S
C3905 H3882 0.950 . S
C3905 C3904 1.334 . S
C3905 C3906 1.287 . S
C3906 C3905 1.287 . S
C3906 C3907 1.524 . S
C3906 H3925 0.913 . S
C3907 H3883 0.950 . S
C3907 C3906 1.524 . S
C3907 C3908 1.415 . S
C3908 H3884 0.950 . S
C3908 C3903 1.363 . S
C3908 C3907 1.415 . S
C3909 H3885 0.951 . S
C3909 C3910 1.366 . S
C3909 C3911 1.388 . S
C3910 C3909 1.366 . S
C3910 C3914 1.385 . S
C3911 H3886 0.951 . S
C3911 C3909 1.388 . S
C3911 C3912 1.366 . S
C3912 C3911 1.366 . S
C3912 C3913 1.414 . S
C3912 C3915 1.499 . S
C3913 H3887 0.950 . S
C3913 C3912 1.414 . S
C3913 C3914 1.374 . S
C3914 H3888 0.950 . S
C3914 C3910 1.385 . S
C3914 C3913 1.374 . S
C3915 C3912 1.499 . S
C3915 C3916 1.373 . S
C3915 C3917 1.389 . S
C3916 H3889 0.950 . S
C3916 C3902 1.377 . S
C3916 C3915 1.373 . S
C3917 C3901 1.377 . S
C3917 C3915 1.389 . S
C3917 C3918 1.524 . S
C3918 C3917 1.524 . S
C3918 C3919 1.397 . S
C3918 C3923 1.363 . S
C3919 H3890 0.950 . S
C3919 C3918 1.397 . S
C3919 C3920 1.334 . S
C3920 H3891 0.950 . S
C3920 C3919 1.334 . S
C3920 C3921 1.287 . S
C3921 C3920 1.287 . S
C3921 C3922 1.524 . S
C3921 H3924 0.999 . S
C3922 H3892 0.950 . S
C3922 C3921 1.524 . S
C3922 C3923 1.415 . S
C3923 H3893 0.950 . S
C3923 C3918 1.363 . S
C3923 C3922 1.415 . S
H3924 C3921 0.999 . S
H3925 C3906 0.913 . S
H3926 C3944 0.951 . S
H3927 C3946 0.951 . S
H3928 C3948 0.950 . S
H3929 C3949 0.950 . S
H3930 C3951 0.950 . S
H3931 C3954 0.950 . S
H3932 C3955 0.950 . S
H3933 C3957 0.950 . S
H3934 C3958 0.950 . S
H3935 C3959 0.951 . S
H3936 C3961 0.951 . S
H3937 C3963 0.950 . S
H3938 C3964 0.950 . S
H3939 C3966 0.950 . S
H3940 C3969 0.950 . S
H3941 C3970 0.950 . S
H3942 C3972 0.950 . S
H3943 C3973 0.950 . S
C3944 H3926 0.951 . S
C3944 C3945 1.366 . S
C3944 C3946 1.388 . S
C3945 C3944 1.366 . S
C3945 C3949 1.385 . S
C3946 H3927 0.951 . S
C3946 C3944 1.388 . S
C3946 C3947 1.366 . S
C3947 C3946 1.366 . S
C3947 C3948 1.414 . S
C3947 C3950 1.499 . S
C3948 H3928 0.950 . S
C3948 C3947 1.414 . S
C3948 C3949 1.374 . S
C3949 H3929 0.950 . S
C3949 C3945 1.385 . S
C3949 C3948 1.374 . S
C3950 C3947 1.499 . S
C3950 C3951 1.373 . S
C3950 C3952 1.389 . S
C3951 H3930 0.950 . S
C3951 C3950 1.373 . S
C3951 C3967 1.377 . S
C3952 C3950 1.389 . S
C3952 C3953 1.524 . S
C3952 C3966 1.377 . S
C3953 C3952 1.524 . S
C3953 C3954 1.397 . S
C3953 C3958 1.363 . S
C3954 H3931 0.950 . S
C3954 C3953 1.397 . S
C3954 C3955 1.334 . S
C3955 H3932 0.950 . S
C3955 C3954 1.334 . S
C3955 C3956 1.287 . S
C3956 C3955 1.287 . S
C3956 C3957 1.524 . S
C3956 H3975 0.913 . S
C3957 H3933 0.950 . S
C3957 C3956 1.524 . S
C3957 C3958 1.415 . S
C3958 H3934 0.950 . S
C3958 C3953 1.363 . S
C3958 C3957 1.415 . S
C3959 H3935 0.951 . S
C3959 C3960 1.366 . S
C3959 C3961 1.388 . S
C3960 C3959 1.366 . S
C3960 C3964 1.385 . S
C3961 H3936 0.951 . S
C3961 C3959 1.388 . S
C3961 C3962 1.366 . S
C3962 C3961 1.366 . S
C3962 C3963 1.414 . S
C3962 C3965 1.499 . S
C3963 H3937 0.950 . S
C3963 C3962 1.414 . S
C3963 C3964 1.374 . S
C3964 H3938 0.950 . S
C3964 C3960 1.385 . S
C3964 C3963 1.374 . S
C3965 C3962 1.499 . S
C3965 C3966 1.373 . S
C3965 C3967 1.389 . S
C3966 H3939 0.950 . S
C3966 C3952 1.377 . S
C3966 C3965 1.373 . S
C3967 C3951 1.377 . S
C3967 C3965 1.389 . S
C3967 C3968 1.524 . S
C3968 C3967 1.524 . S
C3968 C3969 1.397 . S
C3968 C3973 1.363 . S
C3969 H3940 0.950 . S
C3969 C3968 1.397 . S
C3969 C3970 1.334 . S
C3970 H3941 0.950 . S
C3970 C3969 1.334 . S
C3970 C3971 1.287 . S
C3971 C3970 1.287 . S
C3971 C3972 1.524 . S
C3971 H3974 0.999 . S
C3972 H3942 0.950 . S
C3972 C3971 1.524 . S
C3972 C3973 1.415 . S
C3973 H3943 0.950 . S
C3973 C3968 1.363 . S
C3973 C3972 1.415 . S
H3974 C3971 0.999 . S
H3975 C3956 0.913 . S
H3976 C3994 0.951 . S
H3977 C3996 0.951 . S
H3978 C3998 0.950 . S
H3979 C3999 0.950 . S
H3980 C4001 0.950 . S
H3981 C4004 0.950 . S
H3982 C4005 0.950 . S
H3983 C4007 0.950 . S
H3984 C4008 0.950 . S
H3985 C4009 0.951 . S
H3986 C4011 0.951 . S
H3987 C4013 0.950 . S
H3988 C4014 0.950 . S
H3989 C4016 0.950 . S
H3990 C4019 0.950 . S
H3991 C4020 0.950 . S
H3992 C4022 0.950 . S
H3993 C4023 0.950 . S
C3994 H3976 0.951 . S
C3994 C3995 1.366 . S
C3994 C3996 1.388 . S
C3995 C3994 1.366 . S
C3995 C3999 1.385 . S
C3996 H3977 0.951 . S
C3996 C3994 1.388 . S
C3996 C3997 1.366 . S
C3997 C3996 1.366 . S
C3997 C3998 1.414 . S
C3997 C4000 1.499 . S
C3998 H3978 0.950 . S
C3998 C3997 1.414 . S
C3998 C3999 1.374 . S
C3999 H3979 0.950 . S
C3999 C3995 1.385 . S
C3999 C3998 1.374 . S
C4000 C3997 1.499 . S
C4000 C4001 1.373 . S
C4000 C4002 1.389 . S
C4001 H3980 0.950 . S
C4001 C4000 1.373 . S
C4001 C4017 1.377 . S
C4002 C4000 1.389 . S
C4002 C4003 1.524 . S
C4002 C4016 1.377 . S
C4003 C4002 1.524 . S
C4003 C4004 1.397 . S
C4003 C4008 1.363 . S
C4004 H3981 0.950 . S
C4004 C4003 1.397 . S
C4004 C4005 1.334 . S
C4005 H3982 0.950 . S
C4005 C4004 1.334 . S
C4005 C4006 1.287 . S
C4006 C4005 1.287 . S
C4006 C4007 1.524 . S
C4006 H4025 0.913 . S
C4007 H3983 0.950 . S
C4007 C4006 1.524 . S
C4007 C4008 1.415 . S
C4008 H3984 0.950 . S
C4008 C4003 1.363 . S
C4008 C4007 1.415 . S
C4009 H3985 0.951 . S
C4009 C4010 1.366 . S
C4009 C4011 1.388 . S
C4010 C4009 1.366 . S
C4010 C4014 1.385 . S
C4011 H3986 0.951 . S
C4011 C4009 1.388 . S
C4011 C4012 1.366 . S
C4012 C4011 1.366 . S
C4012 C4013 1.414 . S
C4012 C4015 1.499 . S
C4013 H3987 0.950 . S
C4013 C4012 1.414 . S
C4013 C4014 1.374 . S
C4014 H3988 0.950 . S
C4014 C4010 1.385 . S
C4014 C4013 1.374 . S
C4015 C4012 1.499 . S
C4015 C4016 1.373 . S
C4015 C4017 1.389 . S
C4016 H3989 0.950 . S
C4016 C4002 1.377 . S
C4016 C4015 1.373 . S
C4017 C4001 1.377 . S
C4017 C4015 1.389 . S
C4017 C4018 1.524 . S
C4018 C4017 1.524 . S
C4018 C4019 1.397 . S
C4018 C4023 1.363 . S
C4019 H3990 0.950 . S
C4019 C4018 1.397 . S
C4019 C4020 1.334 . S
C4020 H3991 0.950 . S
C4020 C4019 1.334 . S
C4020 C4021 1.287 . S
C4021 C4020 1.287 . S
C4021 C4022 1.524 . S
C4021 H4024 0.999 . S
C4022 H3992 0.950 . S
C4022 C4021 1.524 . S
C4022 C4023 1.415 . S
C4023 H3993 0.950 . S
C4023 C4018 1.363 . S
C4023 C4022 1.415 . S
H4024 C4021 0.999 . S
H4025 C4006 0.913 . S
H4026 C4044 0.951 . S
H4027 C4046 0.951 . S
H4028 C4048 0.962 . S
H4029 C4049 0.950 . S
H4030 C4051 0.950 . S
H4031 C4054 0.950 . S
H4032 C4055 0.950 . S
H4033 C4057 0.950 . S
H4034 C4058 0.950 . S
H4035 C4059 0.951 . S
H4036 C4061 0.951 . S
H4037 C4063 0.950 . S
H4038 C4064 0.950 . S
H4039 C4066 0.950 1_455 S
H4040 C4069 0.950 . S
H4041 C4070 0.950 . S
H4042 C4072 0.950 . S
H4043 C4073 0.950 . S
C4044 H4026 0.951 . S
C4044 C4045 1.366 . S
C4044 C4046 1.388 . S
C4045 C4044 1.366 . S
C4045 C4049 1.385 . S
C4046 H4027 0.951 . S
C4046 C4044 1.388 . S
C4046 C4047 1.366 . S
C4047 C4046 1.366 . S
C4047 C4048 1.414 . S
C4047 C4050 1.499 . S
C4048 H4028 0.962 . S
C4048 C4047 1.414 . S
C4048 C4049 1.374 . S
C4049 H4029 0.950 . S
C4049 C4045 1.385 . S
C4049 C4048 1.374 . S
C4050 C4047 1.499 . S
C4050 C4051 1.373 . S
C4050 C4052 1.389 . S
C4051 H4030 0.950 . S
C4051 C4050 1.373 . S
C4051 C4067 1.377 . S
C4052 C4050 1.389 . S
C4052 C4053 1.524 1_655 S
C4052 C4066 1.377 . S
C4053 C4052 1.524 1_455 S
C4053 C4054 1.397 . S
C4053 C4058 1.363 1_455 S
C4054 H4031 0.950 . S
C4054 C4053 1.397 . S
C4054 C4055 1.334 . S
C4055 H4032 0.950 . S
C4055 C4054 1.334 . S
C4055 C4056 1.287 . S
C4056 C4055 1.287 . S
C4056 C4057 1.524 . S
C4056 H4075 0.913 . S
C4057 H4033 0.950 . S
C4057 C4056 1.524 . S
C4057 C4058 1.415 1_455 S
C4058 H4034 0.950 . S
C4058 C4053 1.363 1_655 S
C4058 C4057 1.415 1_655 S
C4059 H4035 0.951 . S
C4059 C4060 1.357 1_455 S
C4059 C4061 1.388 . S
C4060 C4059 1.357 1_655 S
C4060 C4064 1.423 . S
C4061 H4036 0.951 . S
C4061 C4059 1.388 . S
C4061 C4062 1.366 1_455 S
C4062 C4061 1.366 1_655 S
C4062 C4063 1.414 . S
C4062 C4065 1.499 . S
C4063 H4037 0.950 . S
C4063 C4062 1.414 . S
C4063 C4064 1.374 . S
C4064 H4038 0.950 . S
C4064 C4060 1.423 . S
C4064 C4063 1.374 . S
C4065 C4062 1.499 . S
C4065 C4066 1.373 . S
C4065 C4067 1.389 . S
C4066 H4039 0.950 1_655 S
C4066 C4052 1.377 . S
C4066 C4065 1.373 . S
C4067 C4051 1.377 . S
C4067 C4065 1.389 . S
C4067 C4068 1.524 . S
C4068 C4067 1.524 . S
C4068 C4069 1.397 . S
C4068 C4073 1.363 . S
C4069 H4040 0.950 . S
C4069 C4068 1.397 . S
C4069 C4070 1.334 . S
C4070 H4041 0.950 . S
C4070 C4069 1.334 . S
C4070 C4071 1.287 . S
C4071 C4070 1.287 . S
C4071 C4072 1.524 . S
C4071 H4074 0.999 . S
C4072 H4042 0.950 . S
C4072 C4071 1.524 . S
C4072 C4073 1.415 . S
C4073 H4043 0.950 . S
C4073 C4068 1.363 . S
C4073 C4072 1.415 . S
H4074 C4071 0.999 . S
H4075 C4056 0.913 . S
H4076 C4094 0.951 . S
H4077 C4096 0.951 . S
H4078 C4098 0.950 . S
H4079 C4099 0.950 . S
H4080 C4101 0.950 . S
H4081 C4104 0.950 . S
H4082 C4105 0.950 . S
H4083 C4107 0.950 . S
H4084 C4108 0.950 . S
H4085 C4109 0.951 . S
H4086 C4111 0.951 . S
H4087 C4113 0.950 . S
H4088 C4114 0.950 . S
H4089 C4116 0.950 . S
H4090 C4119 0.950 . S
H4091 C4120 0.950 . S
H4092 C4122 0.950 . S
H4093 C4123 0.950 . S
C4094 H4076 0.951 . S
C4094 C4095 1.366 . S
C4094 C4096 1.388 . S
C4095 C4094 1.366 . S
C4095 C4099 1.385 . S
C4096 H4077 0.951 . S
C4096 C4094 1.388 . S
C4096 C4097 1.366 . S
C4097 C4096 1.366 . S
C4097 C4098 1.414 . S
C4097 C4100 1.499 . S
C4098 H4078 0.950 . S
C4098 C4097 1.414 . S
C4098 C4099 1.374 . S
C4099 H4079 0.950 . S
C4099 C4095 1.385 . S
C4099 C4098 1.374 . S
C4100 C4097 1.499 . S
C4100 C4101 1.373 . S
C4100 C4102 1.389 . S
C4101 H4080 0.950 . S
C4101 C4100 1.373 . S
C4101 C4117 1.377 . S
C4102 C4100 1.389 . S
C4102 C4103 1.524 . S
C4102 C4116 1.377 . S
C4103 C4102 1.524 . S
C4103 C4104 1.397 . S
C4103 C4108 1.363 . S
C4104 H4081 0.950 . S
C4104 C4103 1.397 . S
C4104 C4105 1.334 . S
C4105 H4082 0.950 . S
C4105 C4104 1.334 . S
C4105 C4106 1.287 . S
C4106 C4105 1.287 . S
C4106 C4107 1.524 . S
C4106 H4125 0.913 . S
C4107 H4083 0.950 . S
C4107 C4106 1.524 . S
C4107 C4108 1.415 . S
C4108 H4084 0.950 . S
C4108 C4103 1.363 . S
C4108 C4107 1.415 . S
C4109 H4085 0.951 . S
C4109 C4110 1.366 . S
C4109 C4111 1.388 . S
C4110 C4109 1.366 . S
C4110 C4114 1.385 . S
C4111 H4086 0.951 . S
C4111 C4109 1.388 . S
C4111 C4112 1.366 . S
C4112 C4111 1.366 . S
C4112 C4113 1.414 . S
C4112 C4115 1.499 . S
C4113 H4087 0.950 . S
C4113 C4112 1.414 . S
C4113 C4114 1.374 . S
C4114 H4088 0.950 . S
C4114 C4110 1.385 . S
C4114 C4113 1.374 . S
C4115 C4112 1.499 . S
C4115 C4116 1.373 . S
C4115 C4117 1.389 . S
C4116 H4089 0.950 . S
C4116 C4102 1.377 . S
C4116 C4115 1.373 . S
C4117 C4101 1.377 . S
C4117 C4115 1.389 . S
C4117 C4118 1.524 . S
C4118 C4117 1.524 . S
C4118 C4119 1.397 . S
C4118 C4123 1.363 . S
C4119 H4090 0.950 . S
C4119 C4118 1.397 . S
C4119 C4120 1.334 . S
C4120 H4091 0.950 . S
C4120 C4119 1.334 . S
C4120 C4121 1.287 . S
C4121 C4120 1.287 . S
C4121 C4122 1.524 . S
C4121 H4124 0.999 . S
C4122 H4092 0.950 . S
C4122 C4121 1.524 . S
C4122 C4123 1.415 . S
C4123 H4093 0.950 . S
C4123 C4118 1.363 . S
C4123 C4122 1.415 . S
H4124 C4121 0.999 . S
H4125 C4106 0.913 . S
H4126 C4144 0.951 . S
H4127 C4146 0.951 . S
H4128 C4148 0.950 . S
H4129 C4149 0.950 . S
H4130 C4151 0.950 . S
H4131 C4154 0.950 . S
H4132 C4155 0.950 . S
H4133 C4157 0.950 . S
H4134 C4158 0.950 . S
H4135 C4159 0.951 . S
H4136 C4161 0.951 . S
H4137 C4163 0.950 . S
H4138 C4164 0.950 . S
H4139 C4166 0.950 . S
H4140 C4169 0.950 . S
H4141 C4170 0.950 . S
H4142 C4172 0.950 . S
H4143 C4173 0.950 . S
C4144 H4126 0.951 . S
C4144 C4145 1.366 . S
C4144 C4146 1.388 . S
C4145 C4144 1.366 . S
C4145 C4149 1.385 . S
C4146 H4127 0.951 . S
C4146 C4144 1.388 . S
C4146 C4147 1.366 . S
C4147 C4146 1.366 . S
C4147 C4148 1.414 . S
C4147 C4150 1.499 . S
C4148 H4128 0.950 . S
C4148 C4147 1.414 . S
C4148 C4149 1.374 . S
C4149 H4129 0.950 . S
C4149 C4145 1.385 . S
C4149 C4148 1.374 . S
C4150 C4147 1.499 . S
C4150 C4151 1.373 1_545 S
C4150 C4152 1.389 . S
C4151 H4130 0.950 . S
C4151 C4150 1.373 1_565 S
C4151 C4167 1.377 . S
C4152 C4150 1.389 . S
C4152 C4153 1.524 . S
C4152 C4166 1.377 . S
C4153 C4152 1.524 . S
C4153 C4154 1.397 . S
C4153 C4158 1.363 . S
C4154 H4131 0.950 . S
C4154 C4153 1.397 . S
C4154 C4155 1.334 . S
C4155 H4132 0.950 . S
C4155 C4154 1.334 . S
C4155 C4156 1.287 . S
C4156 C4155 1.287 . S
C4156 C4157 1.524 . S
C4156 H4175 0.913 . S
C4157 H4133 0.950 . S
C4157 C4156 1.524 . S
C4157 C4158 1.415 . S
C4158 H4134 0.950 . S
C4158 C4153 1.363 . S
C4158 C4157 1.415 . S
C4159 H4135 0.951 . S
C4159 C4160 1.337 1_565 S
C4159 C4161 1.388 . S
C4160 C4159 1.337 1_545 S
C4160 C4164 1.400 . S
C4161 H4136 0.951 . S
C4161 C4159 1.388 . S
C4161 C4162 1.366 1_565 S
C4162 C4161 1.366 1_545 S
C4162 C4163 1.414 . S
C4162 C4165 1.499 . S
C4163 H4137 0.950 . S
C4163 C4162 1.414 . S
C4163 C4164 1.374 . S
C4164 H4138 0.950 . S
C4164 C4160 1.400 . S
C4164 C4163 1.374 . S
C4165 C4162 1.499 . S
C4165 C4166 1.373 . S
C4165 C4167 1.389 1_545 S
C4166 H4139 0.950 . S
C4166 C4152 1.377 . S
C4166 C4165 1.373 . S
C4167 C4151 1.377 . S
C4167 C4165 1.389 1_565 S
C4167 C4168 1.524 . S
C4168 C4167 1.524 . S
C4168 C4169 1.397 . S
C4168 C4173 1.363 . S
C4169 H4140 0.950 . S
C4169 C4168 1.397 . S
C4169 C4170 1.334 . S
C4170 H4141 0.950 . S
C4170 C4169 1.334 . S
C4170 C4171 1.287 . S
C4171 C4170 1.287 . S
C4171 C4172 1.524 . S
C4171 H4174 0.999 . S
C4172 H4142 0.950 . S
C4172 C4171 1.524 . S
C4172 C4173 1.415 . S
C4173 H4143 0.950 . S
C4173 C4168 1.363 . S
C4173 C4172 1.415 . S
H4174 C4171 0.999 . S
H4175 C4156 0.913 . S
C595 C4 1.533 . S
C610 C421 1.558 . S
C645 C26 1.570 . S
C660 C446 1.545 . S
C710 C457 1.496 . S
C695 C32 1.477 . S
C745 C40 1.495 . S
C760 C482 1.478 . S
C795 C12 1.538 . S
C810 C500 1.526 . S
C845 C18 1.507 . S
C860 C511 1.533 . S
C895 C46 1.518 . S
C910 C493 1.548 1_455 S
C960 C518 1.523 . S
C945 C68 1.546 . S
C1010 C475 1.508 . S
C995 C74 1.484 . S
C1045 C82 1.482 . S
C1060 C464 1.501 1_545 S
C1110 C428 1.528 . S
C1095 C54 1.546 . S
C1145 C60 1.488 . S
C1160 C439 1.521 . S
C1195 C88 1.585 . S
C1210 C529 1.610 . S
C1245 C110 1.599 . S
C1260 C554 1.571 . S
C1310 C565 1.571 . S
C1295 C116 1.547 . S
C1345 C124 1.520 . S
C1360 C266 1.497 . S
C1395 C96 1.566 . S
C1410 C284 1.544 . S
C1445 C102 1.521 . S
C1460 C295 1.543 . S
C1495 C130 1.535 . S
C1510 C277 1.566 . S
C1545 C152 1.585 . S
C1560 C302 1.563 . S
C1610 C259 1.558 . S
C1595 C158 1.526 . S
C1660 C572 1.505 . S
C1645 C166 1.525 . S
C1710 C536 1.519 . S
C1695 C138 1.538 . S
C1760 C547 1.556 . S
C1745 C144 1.521 . S
C1795 C172 1.564 . S
C1810 C313 1.587 . S
C1845 C194 1.602 . S
C1860 C338 1.576 . S
C1895 C200 1.549 . S
C1910 C349 1.571 . S
C1945 C208 1.540 . S
C1960 C374 1.516 . S
C2010 C392 1.544 . S
C1995 C180 1.567 . S
C2060 C403 1.562 . S
C2045 C186 1.536 . S
C2110 C385 1.605 . S
C2095 C214 1.571 . S
C2160 C410 1.552 . S
C2145 C236 1.576 . S
C2195 C242 1.511 . S
C2210 C367 1.545 . S
C2260 C356 1.472 . S
C2245 C250 1.491 . S
C2295 C222 1.551 . S
C2310 C320 1.533 . S
C2360 C331 1.538 . S
C2345 C228 1.507 . S
C2410 C268 1.279 . S
C2395 C5 1.156 . S
C2445 C25 1.251 . S
C2460 C286 1.193 . S
C2510 C296 1.279 . S
C2495 C33 1.165 . S
C2560 C314 1.174 . S
C2545 C39 1.209 . S
C2610 C340 1.216 . S
C2595 C11 1.271 . S
C2660 C350 1.227 . S
C2645 C19 1.103 1_556 S
C2695 C47 1.197 1_556 S
C2710 C358 1.315 . S
C2745 C67 1.284 . S
C2760 C322 1.206 . S
C2795 C75 1.175 1_556 S
C2810 C332 1.293 . S
C2845 C81 1.267 . S
C2860 C278 1.210 . S
C2910 C304 1.207 . S
C2895 C53 1.282 . S
C2945 C61 1.121 . S
C2960 C260 1.249 . S
C3010 C376 1.259 . S
C2995 C89 1.130 . S
C3045 C109 1.316 . S
C3060 C394 1.258 . S
C3095 C117 1.153 . S
C3110 C404 1.278 . S
C3160 C422 1.157 . S
C3145 C123 1.194 . S
C3195 C95 1.260 . S
C3210 C448 1.207 . S
C3245 C103 1.077 . S
C3260 C458 1.188 . S
C3295 C131 1.090 . S
C3310 C466 1.190 . S
C3345 C151 1.244 . S
C3360 C430 1.182 . S
C3410 C440 1.262 . S
C3395 C159 1.137 . S
C3445 C165 1.274 . S
C3460 C386 1.212 . S
C3495 C137 1.345 . S
C3510 C412 1.264 . S
C3560 C368 1.295 . S
C3545 C145 1.163 . S
C3610 C484 1.205 . S
C3595 C173 1.094 . S
C3645 C193 1.210 . S
C3660 C502 1.161 . S
C3695 C201 1.111 . S
C3710 C512 1.232 . S
C3760 C530 1.178 . S
C3745 C207 1.230 . S
C3810 C556 1.267 . S
C3795 C179 1.324 . S
C3845 C187 1.148 . S
C3860 C566 1.278 . S
C3895 C215 1.168 . S
C3910 C574 1.285 . S
C3945 C235 1.344 . S
C3960 C538 1.262 . S
C4010 C548 1.295 . S
C3995 C243 1.169 . S
C4060 C494 1.122 1_655 S
C4045 C249 1.189 . S
C4110 C520 1.223 . S
C4095 C221 1.298 . S
C4145 C229 1.088 . S
C4160 C476 1.230 1_545 S
