# Generated by pormake.
# Topology pth, (4,4)-cn, num edge types: 1
# Building blocks:
#     Node 0, Type 0, BuildingBlock: GALJAG_clean_sbu_0, # of connection points: 4
#     Node 1, Type 0, BuildingBlock: GALJAG_clean_sbu_0, # of connection points: 4
#     Node 2, Type 0, BuildingBlock: GALJAG_clean_sbu_0, # of connection points: 4
#     Node 3, Type 1, BuildingBlock: AZAVOO_clean_linker_0, # of connection points: 4
#     Node 4, Type 1, BuildingBlock: AZAVOO_clean_linker_0, # of connection points: 4
#     Node 5, Type 1, BuildingBlock: AZAVOO_clean_linker_0, # of connection points: 4
#     Edge 6, Type (0, 1), BuildingBlock: TEMPAE_clean_linker_10, # of connection points: 2
#     Edge 7, Type (0, 1), BuildingBlock: TEMPAE_clean_linker_10, # of connection points: 2
#     Edge 8, Type (0, 1), BuildingBlock: TEMPAE_clean_linker_10, # of connection points: 2
#     Edge 9, Type (0, 1), BuildingBlock: TEMPAE_clean_linker_10, # of connection points: 2
#     Edge 10, Type (0, 1), BuildingBlock: TEMPAE_clean_linker_10, # of connection points: 2
#     Edge 11, Type (0, 1), BuildingBlock: TEMPAE_clean_linker_10, # of connection points: 2
#     Edge 12, Type (0, 1), BuildingBlock: TEMPAE_clean_linker_10, # of connection points: 2
#     Edge 13, Type (0, 1), BuildingBlock: TEMPAE_clean_linker_10, # of connection points: 2
#     Edge 14, Type (0, 1), BuildingBlock: TEMPAE_clean_linker_10, # of connection points: 2
#     Edge 15, Type (0, 1), BuildingBlock: TEMPAE_clean_linker_10, # of connection points: 2
#     Edge 16, Type (0, 1), BuildingBlock: TEMPAE_clean_linker_10, # of connection points: 2
#     Edge 17, Type (0, 1), BuildingBlock: TEMPAE_clean_linker_10, # of connection points: 2
# Relax obj value: 0.129
# Max RMSD: 0.233
# Mean RMSD: 0.161
data_MOF--net-pth--node1-GALJAG_clean_sbu_0--node2-AZAVOO_clean_linker_0--edge1-TEMPAE_clean_linker_10
_symmetry_space_group_name_H-M    P1
_symmetry_Int_Tables_number       1
_symmetry_cell_setting            triclinic
loop_
_symmetry_equiv_pos_as_xyz
'x, y, z'
_cell_length_a     27.175064
_cell_length_b     27.476958
_cell_length_c     70.255697
_cell_angle_alpha  93.06195
_cell_angle_beta   89.081782
_cell_angle_gamma 120.04101
loop_
_atom_site_label
_atom_site_type_symbol
_atom_site_fract_x
_atom_site_fract_y
_atom_site_fract_z
_atom_type_partial_charge
In0 In 0.07679 0.03796 0.0493 0.0
O1 O 0.01391 0.04959 0.06826 0.0
O2 O 0.10188 0.1075 0.07249 0.0
C3 C 0.00749 0.98333 0.01925 0.0
C4 C 0.16427 0.11387 0.02934 0.0
C5 C 0.08282 0.96083 0.06957 0.0
O6 O 0.00511 0.02193 0.02907 0.0
O7 O 0.04441 0.97192 0.02472 0.0
O8 O 0.12641 0.00678 0.06583 0.0
O9 O 0.03681 0.95382 0.06288 0.0
C10 C 0.05177 0.09215 0.07756 0.0
O11 O 0.16775 0.07706 0.03832 0.0
O12 O 0.11724 0.11238 0.03065 0.0
In13 In 0.01711 0.01953 0.37898 0.0
O14 O 0.96612 0.04525 0.36092 0.0
O15 O 0.05616 0.09169 0.35883 0.0
C16 C 0.11034 0.0384 0.39813 0.0
C17 C 0.95989 0.03343 0.40825 0.0
C18 C 0.99148 0.92237 0.35955 0.0
O19 O 0.11222 0.07161 0.386 0.0
O20 O 0.06192 0.99598 0.40029 0.0
O21 O 0.96364 0.92418 0.37383 0.0
O22 O 0.03105 0.96961 0.35481 0.0
C23 C 0.00896 0.08522 0.35357 0.0
O24 O 0.93719 0.99113 0.39662 0.0
O25 O 0.01099 0.06882 0.40491 0.0
In26 In 0.04792 0.05026 0.71473 0.0
O27 O 0.9825 0.95983 0.7212 0.0
O28 O 0.0076 0.02202 0.74379 0.0
C29 C 0.117 0.02817 0.69292 0.0
C30 C 0.97678 0.06282 0.69186 0.0
C31 C 0.13088 0.14322 0.73318 0.0
O32 O 0.09245 0.00045 0.70731 0.0
O33 O 0.10567 0.06616 0.68941 0.0
O34 O 0.08709 0.14162 0.72662 0.0
O35 O 0.13199 0.09804 0.73077 0.0
C36 C 0.97678 0.97105 0.73841 0.0
O37 O 0.9923 0.08797 0.70807 0.0
O38 O -0.00238 0.03207 0.68719 0.0
H39 H 0.9746 0.42258 0.09179 0.0
H40 H 0.08124 0.85744 0.26166 0.0
H41 H 0.90715 0.38325 0.19005 0.0
H42 H 0.90202 0.30347 0.17107 0.0
H43 H 0.06561 0.34328 0.19369 0.0
H44 H 0.0707 0.42349 0.21254 0.0
H45 H 0.935 0.49013 0.16828 0.0
H46 H 0.9377 0.46302 0.13469 0.0
H47 H 0.09566 0.46624 0.14528 0.0
H48 H 0.09291 0.49426 0.17875 0.0
H49 H 0.94736 0.59811 0.19238 0.0
H50 H 0.96849 0.67068 0.16976 0.0
H51 H 0.13406 0.68855 0.16015 0.0
H52 H 0.11293 0.61642 0.18306 0.0
H53 H 0.92365 0.58566 0.23433 0.0
H54 H 0.93014 0.6726 0.24786 0.0
H55 H 0.11208 0.75996 0.23975 0.0
H56 H 0.10501 0.6724 0.22645 0.0
H57 H 0.90218 0.48528 0.25529 0.0
H58 H 0.88614 0.52864 0.28432 0.0
H59 H 0.06712 0.64277 0.29009 0.0
H60 H 0.08264 0.59891 0.26126 0.0
H61 H 0.90734 0.36984 0.23417 0.0
H62 H 0.90385 0.30092 0.25581 0.0
H63 H 0.07077 0.42351 0.27769 0.0
H64 H 0.07453 0.49159 0.25581 0.0
O65 O 0.97515 0.4348 0.105 0.0
O66 O 0.05573 0.43607 0.11131 0.0
O67 O 0.9832 0.77715 0.25821 0.0
O68 O 0.07743 0.82277 0.25604 0.0
C69 C -0.00145 0.4647 0.20975 0.0
C70 C 0.00958 0.50615 0.1966 0.0
C71 C 0.01594 0.55846 0.20309 0.0
C72 C 0.01008 0.56887 0.22262 0.0
C73 C 0.00076 0.52798 0.2358 0.0
C74 C -0.00409 0.47623 0.22944 0.0
C75 C 0.98953 0.40926 0.20247 0.0
C76 C 0.94106 0.37367 0.19133 0.0
C77 C 0.9383 0.32844 0.18047 0.0
C78 C 0.98375 0.31788 0.18079 0.0
C79 C 0.02995 0.35051 0.19329 0.0
C80 C 0.03291 0.39616 0.20405 0.0
C81 C 0.0137 0.49408 0.17593 0.0
C82 C 0.9705 0.48568 0.16325 0.0
C83 C 0.97201 0.46988 0.1441 0.0
C84 C 0.01674 0.46214 0.13732 0.0
C85 C 0.06052 0.47167 0.15004 0.0
C86 C 0.05908 0.48771 0.16915 0.0
C87 C 0.02873 0.60232 0.18939 0.0
C88 C 0.98835 0.61808 0.18552 0.0
C89 C 0.00049 0.65946 0.17265 0.0
C90 C 0.05298 0.68524 0.1633 0.0
C91 C 0.0932 0.66905 0.1671 0.0
C92 C 0.08125 0.62807 0.18015 0.0
C93 C 0.01387 0.6228 0.22946 0.0
C94 C 0.96482 0.62369 0.23542 0.0
C95 C 0.96865 0.6734 0.24314 0.0
C96 C 0.02168 0.72323 0.24493 0.0
C97 C 0.07063 0.72232 0.23862 0.0
C98 C 0.06672 0.67249 0.23093 0.0
C99 C 0.99347 0.5395 0.25615 0.0
C100 C 0.93845 0.51781 0.26336 0.0
C101 C 0.92935 0.5429 0.27981 0.0
C102 C 0.9753 0.58963 0.28924 0.0
C103 C 0.03092 0.60666 0.2832 0.0
C104 C 0.03993 0.58169 0.26673 0.0
C105 C 0.99123 0.43563 0.24341 0.0
C106 C 0.94303 0.38175 0.24367 0.0
C107 C 0.94113 0.34254 0.25597 0.0
C108 C 0.98706 0.35704 0.26837 0.0
C109 C 0.03458 0.41151 0.26841 0.0
C110 C 0.03676 0.45036 0.25596 0.0
C111 C 0.0173 0.44364 0.11711 0.0
C112 C 0.02604 0.77588 0.25344 0.0
H113 H 0.67418 0.0539 0.4323 0.0
H114 H 0.25009 0.1023 0.58945 0.0
H115 H 0.61147 0.98611 0.5365 0.0
H116 H 0.68879 0.98496 0.51861 0.0
H117 H 0.77933 0.16677 0.51979 0.0
H118 H 0.70156 0.16743 0.53773 0.0
H119 H 0.54979 0.99502 0.50388 0.0
H120 H 0.59206 0.00244 0.47238 0.0
H121 H 0.66833 0.18356 0.47803 0.0
H122 H 0.62587 0.1754 0.50956 0.0
H123 H 0.43525 0.9921 0.51124 0.0
H124 H 0.37822 0.99598 0.48534 0.0
H125 H 0.45954 0.1766 0.49512 0.0
H126 H 0.51613 0.17208 0.52116 0.0
H127 H 0.39503 0.97731 0.55842 0.0
H128 H 0.30716 0.97023 0.57086 0.0
H129 H 0.38346 0.15105 0.56988 0.0
H130 H 0.47137 0.1575 0.55769 0.0
H131 H 0.47606 0.97055 0.58461 0.0
H132 H 0.41513 0.95043 0.61259 0.0
H133 H 0.46765 0.12703 0.62018 0.0
H134 H 0.52875 0.14666 0.59241 0.0
H135 H 0.58821 0.98233 0.5734 0.0
H136 H 0.65347 0.98345 0.59734 0.0
H137 H 0.71706 0.16094 0.60986 0.0
H138 H 0.65244 0.15947 0.58561 0.0
O139 O 0.65586 0.05176 0.4444 0.0
O140 O 0.69114 0.14437 0.44741 0.0
O141 O 0.246 0.01084 0.58376 0.0
O142 O 0.28342 0.10369 0.58377 0.0
C143 C 0.59816 0.0765 0.54349 0.0
C144 C 0.5653 0.08035 0.52892 0.0
C145 C 0.51403 0.07907 0.53338 0.0
C146 C 0.49487 0.07254 0.55232 0.0
C147 C 0.52802 0.06883 0.56688 0.0
C148 C 0.57984 0.0713 0.56248 0.0
C149 C 0.6512 0.07684 0.53836 0.0
C150 C 0.64919 0.02569 0.53366 0.0
C151 C 0.69326 0.02514 0.52339 0.0
C152 C 0.73956 0.07579 0.51765 0.0
C153 C 0.74373 0.12718 0.52391 0.0
C154 C 0.69977 0.12768 0.53427 0.0
C155 C 0.58468 0.08466 0.5089 0.0
C156 C 0.57495 0.03615 0.49814 0.0
C157 C 0.59941 0.04057 0.48021 0.0
C158 C 0.63388 0.09363 0.47273 0.0
C159 C 0.64207 0.14206 0.48337 0.0
C160 C 0.61762 0.13755 0.50132 0.0
C161 C 0.47924 0.08174 0.51803 0.0
C162 C 0.44058 0.0324 0.50775 0.0
C163 C 0.40856 0.03481 0.4929 0.0
C164 C 0.41476 0.08667 0.48817 0.0
C165 C 0.45372 0.1361 0.49856 0.0
C166 C 0.48593 0.13363 0.51337 0.0
C167 C 0.43931 0.06787 0.55708 0.0
C168 C 0.39229 0.01521 0.56062 0.0
C169 C 0.34229 0.01134 0.56781 0.0
C170 C 0.33839 0.06014 0.57147 0.0
C171 C 0.38508 0.11268 0.56728 0.0
C172 C 0.43517 0.11648 0.56016 0.0
C173 C 0.50633 0.05995 0.58653 0.0
C174 C 0.47615 0.00509 0.59284 0.0
C175 C 0.44108 0.99364 0.60867 0.0
C176 C 0.43617 0.03705 0.61837 0.0
C177 C 0.47093 0.0928 0.61308 0.0
C178 C 0.50583 0.10415 0.59724 0.0
C179 C 0.61611 0.07088 0.57779 0.0
C180 C 0.61611 0.02126 0.58142 0.0
C181 C 0.65306 0.02197 0.59514 0.0
C182 C 0.69047 0.07237 0.60541 0.0
C183 C 0.68924 0.1217 0.60199 0.0
C184 C 0.65227 0.12091 0.58827 0.0
C185 C 0.66197 0.09834 0.45408 0.0
C186 C 0.28636 0.05649 0.57998 0.0
H187 H 0.6664 0.6974 0.00215 0.0
H188 H 0.28173 0.19402 0.8557 0.0
H189 H 0.59554 0.68988 0.90163 0.0
H190 H 0.67003 0.77363 0.91893 0.0
H191 H 0.79243 0.7229 0.90277 0.0
H192 H 0.71745 0.6389 0.88554 0.0
H193 H 0.53653 0.6077 0.93075 0.0
H194 H 0.57806 0.64823 0.96233 0.0
H195 H 0.71151 0.60897 0.95074 0.0
H196 H 0.66912 0.56808 0.91928 0.0
H197 H 0.44834 0.50556 0.92247 0.0
H198 H 0.40039 0.44025 0.94784 0.0
H199 H 0.50471 0.36465 0.93626 0.0
H200 H 0.55356 0.43119 0.91121 0.0
H201 H 0.4039 0.47157 0.87383 0.0
H202 H 0.31915 0.38116 0.86527 0.0
H203 H 0.41741 0.29778 0.86973 0.0
H204 H 0.50191 0.38857 0.87806 0.0
H205 H 0.47994 0.5606 0.8437 0.0
H206 H 0.41903 0.50755 0.81599 0.0
H207 H 0.48281 0.39191 0.81624 0.0
H208 H 0.54455 0.44573 0.84355 0.0
H209 H 0.59555 0.68059 0.85919 0.0
H210 H 0.65849 0.7433 0.8352 0.0
H211 H 0.71072 0.62203 0.81898 0.0
H212 H 0.64914 0.56059 0.8434 0.0
O213 O 0.64975 0.6797 0.98984 0.0
O214 O 0.71912 0.66145 0.98272 0.0
O215 O 0.2652 0.27473 0.85806 0.0
O216 O 0.3143 0.23012 0.85944 0.0
C217 C 0.60401 0.60075 0.88794 0.0
C218 C 0.57753 0.56494 0.90308 0.0
C219 C 0.53126 0.51046 0.89932 0.0
C220 C 0.51074 0.49195 0.88052 0.0
C221 C 0.53855 0.52706 0.86529 0.0
C222 C 0.58564 0.58133 0.86897 0.0
C223 C 0.65127 0.65842 0.8925 0.0
C224 C 0.63892 0.69814 0.90116 0.0
C225 C 0.68129 0.7456 0.91111 0.0
C226 C 0.73656 0.75405 0.91235 0.0
C227 C 0.75014 0.71734 0.90192 0.0
C228 C 0.70753 0.66954 0.89206 0.0
C229 C 0.59958 0.58457 0.92286 0.0
C230 C 0.57415 0.60704 0.93521 0.0
C231 C 0.59819 0.63049 0.95318 0.0
C232 C 0.64819 0.63195 0.95905 0.0
C233 C 0.67301 0.60854 0.94668 0.0
C234 C 0.64879 0.58494 0.92875 0.0
C235 C 0.50411 0.47275 0.91509 0.0
C236 C 0.46126 0.47538 0.92562 0.0
C237 C 0.43422 0.43836 0.94008 0.0
C238 C 0.44917 0.39775 0.94394 0.0
C239 C 0.49255 0.39563 0.93347 0.0
C240 C 0.52027 0.43335 0.91923 0.0
C241 C 0.45877 0.43642 0.87674 0.0
C242 C 0.40682 0.43361 0.87312 0.0
C243 C 0.35857 0.38197 0.86819 0.0
C244 C 0.3615 0.3322 0.86683 0.0
C245 C 0.41363 0.33523 0.87068 0.0
C246 C 0.46187 0.38695 0.87558 0.0
C247 C 0.51613 0.50657 0.84566 0.0
C248 C 0.48261 0.52534 0.83722 0.0
C249 C 0.4478 0.49501 0.8215 0.0
C250 C 0.44608 0.44556 0.81428 0.0
C251 C 0.48346 0.42987 0.8217 0.0
C252 C 0.51875 0.46058 0.83719 0.0
C253 C 0.61813 0.61631 0.85305 0.0
C254 C 0.62029 0.66751 0.85032 0.0
C255 C 0.65596 0.70303 0.83656 0.0
C256 C 0.68984 0.68771 0.82531 0.0
C257 C 0.6858 0.63533 0.82764 0.0
C258 C 0.65031 0.6 0.84143 0.0
C259 C 0.67461 0.65845 0.9779 0.0
C260 C 0.31065 0.27742 0.86121 0.0
C261 C 0.98335 0.099 0.10018 0.0
C262 C 0.03876 0.12173 0.09321 0.0
C263 C 0.97075 0.12698 0.11507 0.0
C264 C 0.01454 0.17907 0.12296 0.0
C265 C 0.07058 0.20205 0.11601 0.0
C266 C 0.08207 0.17292 0.10127 0.0
C267 C 0.91062 0.1011 0.12226 0.0
C268 C 0.11826 0.25786 0.12393 0.0
C269 C 0.9783 0.28339 0.14707 0.0
C270 C 0.98649 0.27831 0.16634 0.0
C271 C 0.98592 0.25028 0.13281 0.0
C272 C 0.00166 0.21085 0.13801 0.0
C273 C 0.00834 0.20433 0.1575 0.0
C274 C 0.00113 0.23861 0.17148 0.0
C275 C 0.97929 0.25911 0.11218 0.0
C276 C 0.02459 0.16228 0.16354 0.0
H277 H 0.94985 0.05924 0.09403 0.0
H278 H 0.12496 0.19063 0.0959 0.0
H279 H 0.91011 0.09633 0.13786 0.0
H280 H 0.89338 0.12931 0.1198 0.0
H281 H 0.88201 0.05923 0.11513 0.0
H282 H 0.1596 0.26951 0.1171 0.0
H283 H 0.10808 0.29159 0.12178 0.0
H284 H 0.12297 0.25631 0.13951 0.0
H285 H 0.96805 0.31493 0.14308 0.0
H286 H 0.00741 0.2348 0.18641 0.0
H287 H 0.94844 0.21861 0.10477 0.0
H288 H 0.02059 0.27471 0.10486 0.0
H289 H 0.96461 0.28987 0.11061 0.0
H290 H -0.00486 0.11993 0.15695 0.0
H291 H 0.02393 0.15947 0.17927 0.0
H292 H 0.06794 0.17451 0.15848 0.0
C293 C 0.87078 0.00531 0.4264 0.0
C294 C 0.92954 0.04074 0.42473 0.0
C295 C 0.84156 0.01204 0.44202 0.0
C296 C 0.87212 0.05477 0.45634 0.0
C297 C 0.93155 0.09031 0.4548 0.0
C298 C 0.95955 0.08304 0.43893 0.0
C299 C 0.778 0.97375 0.44313 0.0
C300 C 0.96545 0.13611 0.46986 0.0
C301 C 0.78825 0.10503 0.48663 0.0
C302 C 0.77843 0.07443 0.50297 0.0
C303 C 0.81956 0.09975 0.47147 0.0
C304 C 0.84159 0.06302 0.47273 0.0
C305 C 0.83298 0.03299 0.48938 0.0
C306 C 0.80119 0.03889 0.50432 0.0
C307 C 0.82731 0.13198 0.45386 0.0
C308 C 0.85613 0.99364 0.49121 0.0
H309 H 0.8475 0.97264 0.41541 0.0
H310 H 0.00509 0.11031 0.43772 0.0
H311 H 0.76718 0.95089 0.45648 0.0
H312 H 0.7565 -0.00092 0.4435 0.0
H313 H 0.76067 0.94244 0.43085 0.0
H314 H 0.01164 0.15923 0.46676 0.0
H315 H 0.95002 0.16665 0.47095 0.0
H316 H 0.95936 0.11772 0.48398 0.0
H317 H 0.7695 0.13152 0.48539 0.0
H318 H 0.79344 0.01518 0.51695 0.0
H319 H 0.80497 0.10204 0.44157 0.0
H320 H 0.873 0.15646 0.45024 0.0
H321 H 0.81047 0.16136 0.45565 0.0
H322 H 0.83631 0.95865 0.48017 0.0
H323 H 0.84794 0.97547 0.50545 0.0
H324 H 0.90262 0.01624 0.48875 0.0
C325 C 0.92967 0.94377 0.7699 0.0
C326 C 0.9358 0.92838 0.75105 0.0
C327 C 0.88948 0.90409 0.78187 0.0
C328 C 0.85474 0.84777 0.7748 0.0
C329 C 0.86106 0.83189 0.75582 0.0
C330 C 0.90157 0.87246 0.74416 0.0
C331 C 0.88393 0.92251 0.80205 0.0
C332 C 0.82483 0.77214 0.74783 0.0
C333 C 0.78653 0.73555 0.81095 0.0
C334 C 0.73129 0.72734 0.81184 0.0
C335 C 0.82696 0.77418 0.79879 0.0
C336 C 0.81181 0.80548 0.78729 0.0
C337 C 0.75601 0.79711 0.78799 0.0
C338 C 0.71636 0.75808 0.80026 0.0
C339 C 0.88612 0.78208 0.79845 0.0
C340 C 0.73838 0.82973 0.77588 0.0
H341 H 0.95602 0.98699 0.77527 0.0
H342 H 0.90617 0.86042 0.72958 0.0
H343 H 0.84016 0.9148 0.80434 0.0
H344 H 0.89128 0.89735 0.81229 0.0
H345 H 0.91445 0.96783 0.80538 0.0
H346 H 0.83532 0.7666 0.73281 0.0
H347 H 0.83061 0.74287 0.75657 0.0
H348 H 0.77924 0.75978 0.74848 0.0
H349 H 0.79858 0.71259 0.82009 0.0
H350 H 0.67354 0.75143 0.80076 0.0
H351 H 0.91756 0.8261 0.80307 0.0
H352 H 0.89704 0.77463 0.78371 0.0
H353 H 0.89055 0.75327 0.80788 0.0
H354 H 0.76528 0.87549 0.77948 0.0
H355 H 0.69311 0.81764 0.7779 0.0
H356 H 0.74498 0.8226 0.76059 0.0
C357 C 0.13384 0.9334 0.0921 0.0
C358 C 0.08455 0.91959 0.08171 0.0
C359 C 0.13399 0.89622 0.10502 0.0
C360 C 0.08378 0.84408 0.10741 0.0
C361 C 0.03462 0.8291 0.09638 0.0
C362 C 0.03555 0.86718 0.08372 0.0
C363 C 0.18709 0.91359 0.1166 0.0
C364 C 0.98043 0.7736 0.09842 0.0
C365 C 0.08627 0.72492 0.13138 0.0
C366 C 0.06515 0.72838 0.14943 0.0
C367 C 0.09424 0.76341 0.11766 0.0
C368 C 0.08112 0.80641 0.12223 0.0
C369 C 0.06172 0.81123 0.14067 0.0
C370 C 0.05374 0.77195 0.15404 0.0
C371 C 0.11462 0.75681 0.09809 0.0
C372 C 0.04783 0.85689 0.14611 0.0
H373 H 0.17178 0.97395 0.09058 0.0
H374 H -0.00254 0.85623 0.07561 0.0
H375 H 0.17899 0.91894 0.13189 0.0
H376 H 0.19885 0.88029 0.11535 0.0
H377 H 0.22369 0.95368 0.11208 0.0
H378 H 0.94723 0.76684 0.08789 0.0
H379 H 0.98911 0.73825 0.09658 0.0
H380 H 0.96334 0.77217 0.11295 0.0
H381 H 0.09473 0.69096 0.12779 0.0
H382 H 0.03816 0.77504 0.1681 0.0
H383 H 0.15162 0.79722 0.09407 0.0
H384 H 0.08041 0.74532 0.08741 0.0
H385 H 0.12695 0.72383 0.09729 0.0
H386 H 0.08444 0.89878 0.14314 0.0
H387 H 0.03684 0.85705 0.16141 0.0
H388 H 0.01132 0.85083 0.13738 0.0
C389 C 0.21425 0.0942 0.40618 0.0
C390 C 0.15994 0.04905 0.40966 0.0
C391 C 0.261 0.10516 0.4176 0.0
C392 C 0.25279 0.0704 0.43289 0.0
C393 C 0.19806 0.0246 0.43635 0.0
C394 C 0.15239 0.01434 0.42463 0.0
C395 C 0.31895 0.15401 0.41344 0.0
C396 C 0.18753 0.98677 0.45261 0.0
C397 C 0.37032 0.05703 0.45566 0.0
C398 C 0.37895 0.08851 0.4729 0.0
C399 C 0.33167 0.05345 0.44192 0.0
C400 C 0.30083 0.0818 0.44561 0.0
C401 C 0.31153 0.11598 0.46256 0.0
C402 C 0.3506 0.11898 0.47602 0.0
C403 C 0.32174 0.01701 0.42391 0.0
C404 C 0.27926 0.14666 0.46702 0.0
H405 H 0.22017 0.12103 0.39458 0.0
H406 H 0.11043 0.97947 0.42741 0.0
H407 H 0.33455 0.18487 0.42584 0.0
H408 H 0.34981 0.13906 0.41117 0.0
H409 H 0.31849 0.17589 0.40065 0.0
H410 H 0.14237 0.95289 0.45331 0.0
H411 H 0.21445 0.96702 0.45105 0.0
H412 H 0.19948 0.012 0.46635 0.0
H413 H 0.39296 0.03419 0.4531 0.0
H414 H 0.35694 0.14308 0.4894 0.0
H415 H 0.32293 0.03996 0.41124 0.0
H416 H 0.27891 0.97898 0.42426 0.0
H417 H 0.35375 0.00327 0.42219 0.0
H418 H 0.28014 0.17074 0.45472 0.0
H419 H 0.29685 0.17611 0.47977 0.0
H420 H 0.23407 0.11564 0.46969 0.0
C421 C 0.16767 0.23361 0.75266 0.0
C422 C 0.17762 0.19363 0.74291 0.0
C423 C 0.21128 0.27899 0.76336 0.0
C424 C 0.26615 0.28496 0.76382 0.0
C425 C 0.27695 0.24628 0.7531 0.0
C426 C 0.2323 0.2006 0.74299 0.0
C427 C 0.19794 0.31878 0.77491 0.0
C428 C 0.33517 0.25188 0.75289 0.0
C429 C 0.39325 0.42123 0.78318 0.0
C430 C 0.39983 0.40586 0.80123 0.0
C431 C 0.34936 0.38249 0.7708 0.0
C432 C 0.31084 0.32797 0.77692 0.0
C433 C 0.31659 0.31315 0.79541 0.0
C434 C 0.36135 0.35218 0.80727 0.0
C435 C 0.34507 0.39928 0.75106 0.0
C436 C 0.27581 0.25584 0.80261 0.0
H437 H 0.12526 0.22807 0.75259 0.0
H438 H 0.24012 0.17 0.73522 0.0
H439 H 0.20088 0.31345 0.79032 0.0
H440 H 0.22942 0.36309 0.77213 0.0
H441 H 0.15466 0.31123 0.77176 0.0
H442 H 0.33796 0.22208 0.74221 0.0
H443 H 0.36807 0.2954 0.74971 0.0
H444 H 0.34529 0.24353 0.76717 0.0
H445 H 0.42312 0.46301 0.77866 0.0
H446 H 0.36616 0.34093 0.82141 0.0
H447 H 0.302 0.39289 0.74854 0.0
H448 H 0.35156 0.37207 0.74028 0.0
H449 H 0.37697 0.44393 0.74878 0.0
H450 H 0.23155 0.24762 0.80165 0.0
H451 H 0.28507 0.25186 0.8176 0.0
H452 H 0.27812 0.22268 0.79358 0.0
C453 C 0.92401 0.04175 0.66109 0.0
C454 C 0.93618 0.06752 0.6795 0.0
C455 C 0.88424 0.04413 0.64932 0.0
C456 C 0.85577 0.07269 0.65619 0.0
C457 C 0.86817 0.09916 0.67471 0.0
C458 C 0.90846 0.09641 0.68615 0.0
C459 C 0.87237 0.01572 0.62958 0.0
C460 C 0.83843 0.12982 0.68249 0.0
C461 C 0.78883 0.11759 0.61911 0.0
C462 C 0.73207 0.07388 0.61914 0.0
C463 C 0.82938 0.11835 0.63139 0.0
C464 C 0.81268 0.07433 0.64396 0.0
C465 C 0.75525 0.03063 0.64431 0.0
C466 C 0.7156 0.0309 0.63186 0.0
C467 C 0.89033 0.16547 0.63056 0.0
C468 C 0.73592 0.98311 0.65761 0.0
H469 H 0.94547 0.01948 0.65589 0.0
H470 H 0.91771 0.11627 0.7004 0.0
H471 H 0.82698 0.98251 0.62822 0.0
H472 H 0.88038 0.04672 0.61875 0.0
H473 H 0.899 0.99622 0.62628 0.0
H474 H 0.85338 0.14869 0.69711 0.0
H475 H 0.84558 0.16376 0.67302 0.0
H476 H 0.7919 0.10033 0.68282 0.0
H477 H 0.80188 0.1505 0.60912 0.0
H478 H 0.67161 -0.00258 0.63207 0.0
H479 H 0.91795 0.14812 0.6259 0.0
H480 H 0.9054 0.18621 0.64493 0.0
H481 H 0.89581 0.19781 0.62057 0.0
H482 H 0.75802 0.95908 0.65417 0.0
H483 H 0.68932 0.9536 0.65665 0.0
H484 H 0.74731 0.00023 0.67255 0.0
C485 C 0.941 0.97698 0.99392 0.0
C486 C 0.96994 0.95373 0.00265 0.0
C487 C 0.90472 0.94889 0.97821 0.0
C488 C 0.89646 0.89588 0.9714 0.0
C489 C 0.92585 0.87239 0.98013 0.0
C490 C 0.96277 0.90194 0.99554 0.0
C491 C 0.87452 0.97542 0.96911 0.0
C492 C 0.91721 0.8154 0.97349 0.0
C493 C 0.75898 0.79261 0.9458 0.0
C494 C 0.77679 0.7948 0.92688 0.0
C495 C 0.79729 0.8263 0.96036 0.0
C496 C 0.85474 0.86337 0.95585 0.0
C497 C 0.87262 0.86709 0.93666 0.0
C498 C 0.83341 0.83218 0.92237 0.0
C499 C 0.77672 0.8202 0.98067 0.0
C500 C 0.93336 0.90691 0.93132 0.0
H501 H 0.94689 0.01728 -0.00068 0.0
H502 H 0.98504 0.88387 0.00232 0.0
H503 H 0.88234 0.97771 0.95355 0.0
H504 H 0.82797 0.94897 0.97104 0.0
H505 H 0.88843 0.01848 0.9753 0.0
H506 H 0.9442 0.80364 0.98156 0.0
H507 H 0.87201 0.78273 0.9752 0.0
H508 H 0.92708 0.81503 0.95812 0.0
H509 H 0.7154 0.76277 0.94933 0.0
H510 H 0.84702 0.83365 0.90772 0.0
H511 H 0.7908 0.86204 0.98791 0.0
H512 H 0.79529 0.79941 0.9887 0.0
H513 H 0.72967 0.79469 0.98146 0.0
H514 H 0.94681 0.95018 0.93713 0.0
H515 H 0.93933 0.90784 0.91564 0.0
H516 H 0.96185 0.89396 0.9377 0.0
C517 C 0.94087 0.81719 0.35682 0.0
C518 C 0.98134 0.86909 0.34989 0.0
C519 C 0.93377 0.76648 0.34846 0.0
C520 C 0.96789 0.76797 0.33283 0.0
C521 C 0.0081 0.82025 0.32559 0.0
C522 C 0.01437 0.87018 0.33423 0.0
C523 C 0.89046 0.71144 0.3565 0.0
C524 C 0.0452 0.82353 0.30889 0.0
C525 C -0.00061 0.65131 0.31914 0.0
C526 C 0.96536 0.62694 0.30274 0.0
C527 C -0.00198 0.69516 0.32986 0.0
C528 C 0.9621 0.71517 0.32389 0.0
C529 C 0.92525 0.68846 0.308 0.0
C530 C 0.92729 0.64458 0.29762 0.0
C531 C 0.03764 0.72241 0.34683 0.0
C532 C 0.88674 0.70891 0.30109 0.0
H533 H 0.91537 0.81622 0.36897 0.0
H534 H 0.04576 0.91021 0.32884 0.0
H535 H 0.8598 0.68357 0.34517 0.0
H536 H 0.91199 0.68931 0.36167 0.0
H537 H 0.8665 0.71747 0.36847 0.0
H538 H 0.07198 0.86722 0.30429 0.0
H539 H 0.07347 0.80721 0.31278 0.0
H540 H 0.01855 0.79675 0.29661 0.0
H541 H 0.02871 0.63758 0.32312 0.0
H542 H 0.90168 0.62661 0.28474 0.0
H543 H 0.01451 0.7274 0.35924 0.0
H544 H 0.07187 0.76511 0.34337 0.0
H545 H 0.05759 0.6977 0.35096 0.0
H546 H 0.86252 0.71411 0.31311 0.0
H547 H 0.8562 0.67967 0.28994 0.0
H548 H 0.91283 0.75073 0.29503 0.0
C549 C 0.18436 0.05158 0.66597 0.0
C550 C 0.15918 0.01999 0.68192 0.0
C551 C 0.22805 0.04815 0.65628 0.0
C552 C 0.24705 0.01238 0.66278 0.0
C553 C 0.22065 0.97906 0.67852 0.0
C554 C 0.17685 0.98323 0.68793 0.0
C555 C 0.25489 0.08396 0.6394 0.0
C556 C 0.23965 0.94022 0.68571 0.0
C557 C 0.33368 0.98199 0.6265 0.0
C558 C 0.38913 0.02384 0.63178 0.0
C559 C 0.28693 0.97546 0.63715 0.0
C560 C 0.296 0.01182 0.65338 0.0
C561 C 0.35208 0.05189 0.65941 0.0
C562 C 0.39808 0.05748 0.6485 0.0
C563 C 0.22777 0.9323 0.63025 0.0
C564 C 0.36336 0.09127 0.6767 0.0
H565 H 0.17065 0.07987 0.66124 0.0
H566 H 0.15743 0.95873 0.70026 0.0
H567 H 0.3004 0.11435 0.64256 0.0
H568 H 0.25307 0.05718 0.62674 0.0
H569 H 0.23364 0.10786 0.63573 0.0
H570 H 0.2125 0.9147 0.69739 0.0
H571 H 0.23889 0.91135 0.67391 0.0
H572 H 0.28416 0.96526 0.69105 0.0
H573 H 0.32648 0.95653 0.61339 0.0
H574 H 0.44098 0.08961 0.65262 0.0
H575 H 0.2069 0.95401 0.62421 0.0
H576 H 0.20143 0.90808 0.64226 0.0
H577 H 0.22825 0.90238 0.61907 0.0
H578 H 0.34845 0.12112 0.6738 0.0
H579 H 0.40926 0.11593 0.68059 0.0
H580 H 0.33938 0.06735 0.68911 0.0
C581 C 0.19943 0.1851 0.00478 0.0
C582 C 0.2108 0.15499 0.01779 0.0
C583 C 0.24247 0.224 0.99343 0.0
C584 C 0.29846 0.23366 0.99538 0.0
C585 C 0.31042 0.20377 0.00861 0.0
C586 C 0.26616 0.16426 0.01959 0.0
C587 C 0.22788 0.25448 0.97926 0.0
C588 C 0.36986 0.21376 0.01123 0.0
C589 C 0.39104 0.29816 0.95275 0.0
C590 C 0.41691 0.3556 0.95808 0.0
C591 C 0.35426 0.25755 0.96515 0.0
C592 C 0.34399 0.27507 0.98337 0.0
C593 C 0.37272 0.33294 0.98921 0.0
C594 C 0.40848 0.37267 0.97638 0.0
C595 C 0.32371 0.1963 0.95831 0.0
C596 C 0.36354 0.35308 0.00865 0.0
H597 H 0.15656 0.17776 0.00328 0.0
H598 H 0.27499 0.14109 0.02972 0.0
H599 H 0.25271 0.30054 0.98259 0.0
H600 H 0.2395 0.24655 0.96467 0.0
H601 H 0.18196 0.24117 0.97925 0.0
H602 H 0.3722 0.18768 0.02234 0.0
H603 H 0.38511 0.20408 -0.0024 0.0
H604 H 0.39934 0.2588 0.01529 0.0
H605 H 0.39733 0.28514 0.9385 0.0
H606 H 0.42903 0.41721 0.98049 0.0
H607 H 0.27776 0.18136 0.95641 0.0
H608 H 0.32751 0.17016 0.96905 0.0
H609 H 0.34044 0.18924 0.94454 0.0
H610 H 0.3199 0.3467 0.00937 0.0
H611 H 0.39428 0.39842 0.01184 0.0
H612 H 0.36748 0.3283 0.01988 0.0
C613 C 0.05164 0.16116 0.33038 0.0
C614 C 0.00411 0.12265 0.34037 0.0
C615 C 0.04782 0.19807 0.31824 0.0
C616 C -0.00459 0.19682 0.31629 0.0
C617 C 0.94722 0.15779 0.32628 0.0
C618 C 0.95207 0.12087 0.33811 0.0
C619 C 0.09993 0.2387 0.30762 0.0
C620 C 0.89082 0.15573 0.32472 0.0
C621 C 0.00193 0.32938 0.30013 0.0
C622 C 0.98654 0.31509 0.28084 0.0
C623 C 0.00416 0.29092 0.31191 0.0
C624 C 0.99134 0.23721 0.30411 0.0
C625 C 0.97534 0.2224 0.28466 0.0
C626 C 0.97281 0.26149 0.27327 0.0
C627 C 0.02064 0.30789 0.33265 0.0
C628 C 0.96198 0.16573 0.27582 0.0
H629 H 0.09189 0.16248 0.33206 0.0
H630 H 0.91527 0.09128 0.34589 0.0
H631 H 0.09063 0.23325 0.29209 0.0
H632 H 0.11196 0.28262 0.31212 0.0
H633 H 0.13686 0.23286 0.31015 0.0
H634 H 0.8573 0.12243 0.33327 0.0
H635 H 0.89567 0.19695 0.32967 0.0
H636 H 0.87639 0.14788 0.30962 0.0
H637 H 0.0121 0.37071 0.306 0.0
H638 H 0.96155 0.25071 0.25828 0.0
H639 H 0.06021 0.3073 0.33578 0.0
H640 H 0.98693 0.27726 0.34184 0.0
H641 H 0.02762 0.35061 0.3366 0.0
H642 H -0.00036 0.16039 0.27704 0.0
H643 H 0.94956 0.16056 0.26054 0.0
H644 H 0.92689 0.13158 0.2836 0.0
loop_
_geom_bond_atom_site_label_1
_geom_bond_atom_site_label_2
_geom_bond_distance
_geom_bond_site_symmetry_2
_ccdc_geom_bond_type
In0 O1 2.294 . S
In0 O2 2.326 . S
In0 O6 2.266 1_445 S
In0 O7 2.326 1_545 S
In0 O8 2.266 1_545 S
In0 O9 2.326 1_545 S
In0 O11 2.294 . S
In0 O12 2.326 . S
O1 In0 2.294 . S
O1 C10 1.240 . S
O2 In0 2.326 . S
O2 C10 1.252 . S
C3 O6 1.252 . S
C3 O7 1.260 1_655 S
C4 O11 1.240 . S
C4 O12 1.252 . S
C5 O8 1.252 . S
C5 O9 1.260 . S
O6 In0 2.266 1_665 S
O6 C3 1.252 . S
O7 In0 2.326 1_565 S
O7 C3 1.260 1_455 S
O8 In0 2.266 1_565 S
O8 C5 1.252 . S
O9 In0 2.326 1_565 S
O9 C5 1.260 . S
C10 O1 1.240 . S
C10 O2 1.252 . S
O11 In0 2.294 . S
O11 C4 1.240 . S
O12 In0 2.326 . S
O12 C4 1.252 . S
In13 O14 2.294 . S
In13 O15 2.326 1_455 S
In13 O19 2.266 . S
In13 O20 2.326 1_545 S
In13 O21 2.266 1_445 S
In13 O22 2.326 1_545 S
In13 O24 2.294 1_445 S
In13 O25 2.326 1_455 S
O14 In13 2.294 . S
O14 C23 1.240 . S
O15 In13 2.326 1_655 S
O15 C23 1.252 1_655 S
C16 O19 1.252 . S
C16 O20 1.260 1_545 S
C17 O24 1.240 1_545 S
C17 O25 1.252 . S
C18 O21 1.252 1_455 S
C18 O22 1.260 . S
O19 In13 2.266 . S
O19 C16 1.252 . S
O20 In13 2.326 1_565 S
O20 C16 1.260 1_565 S
O21 In13 2.266 1_665 S
O21 C18 1.252 1_655 S
O22 In13 2.326 1_565 S
O22 C18 1.260 . S
C23 O14 1.240 . S
C23 O15 1.252 1_455 S
O24 In13 2.294 1_665 S
O24 C17 1.240 1_565 S
O25 In13 2.326 1_655 S
O25 C17 1.252 . S
In26 O27 2.294 1_545 S
In26 O28 2.326 . S
In26 O32 2.266 . S
In26 O33 2.326 . S
In26 O34 2.266 . S
In26 O35 2.326 . S
In26 O37 2.294 . S
In26 O38 2.326 . S
O27 In26 2.294 1_565 S
O27 C36 1.248 . S
O28 In26 2.326 . S
O28 C36 1.249 1_545 S
C29 O32 1.252 . S
C29 O33 1.260 . S
C30 O37 1.240 1_655 S
C30 O38 1.252 1_655 S
C31 O34 1.252 . S
C31 O35 1.260 . S
O32 In26 2.266 . S
O32 C29 1.252 . S
O33 In26 2.326 . S
O33 C29 1.260 . S
O34 In26 2.266 . S
O34 C31 1.252 . S
O35 In26 2.326 . S
O35 C31 1.260 . S
C36 O27 1.248 . S
C36 O28 1.249 1_565 S
O37 In26 2.294 . S
O37 C30 1.240 1_455 S
O38 In26 2.326 . S
O38 C30 1.252 1_455 S
H39 O65 0.856 . S
H40 O68 0.854 . S
H41 C76 0.930 . S
H42 C77 0.930 . S
H43 C79 0.930 . S
H44 C80 0.930 . S
H45 C82 0.931 1_655 S
H46 C83 0.930 1_655 S
H47 C85 0.930 . S
H48 C86 0.929 . S
H49 C88 0.930 1_655 S
H50 C89 0.931 1_655 S
H51 C91 0.930 . S
H52 C92 0.929 . S
H53 C94 0.931 . S
H54 C95 0.923 1_655 S
H55 C97 0.930 . S
H56 C98 0.932 . S
H57 C100 0.930 . S
H58 C101 0.929 . S
H59 C103 0.931 . S
H60 C104 0.930 . S
H61 C106 0.929 . S
H62 C107 0.931 . S
H63 C109 0.930 . S
H64 C110 0.929 . S
O65 H39 0.856 . S
O65 C111 1.300 . S
O66 C111 1.209 . S
O67 C112 1.199 . S
O68 H40 0.854 . S
O68 C112 1.297 . S
C69 C70 1.404 . S
C69 C74 1.397 . S
C69 C75 1.492 . S
C70 C69 1.404 . S
C70 C71 1.396 . S
C70 C81 1.492 . S
C71 C70 1.396 . S
C71 C72 1.397 . S
C71 C87 1.509 . S
C72 C71 1.397 . S
C72 C73 1.412 . S
C72 C93 1.485 . S
C73 C72 1.412 . S
C73 C74 1.388 . S
C73 C99 1.490 . S
C74 C69 1.397 . S
C74 C73 1.388 . S
C74 C105 1.519 . S
C75 C69 1.492 . S
C75 C76 1.363 1_455 S
C75 C80 1.390 . S
C76 H41 0.930 . S
C76 C75 1.363 1_655 S
C76 C77 1.372 . S
C77 H42 0.930 . S
C77 C76 1.372 . S
C77 C78 1.383 1_655 S
C78 C77 1.383 1_455 S
C78 C79 1.395 . S
C79 H43 0.930 . S
C79 C78 1.395 . S
C79 C80 1.362 . S
C80 H44 0.930 . S
C80 C75 1.390 . S
C80 C79 1.362 . S
C81 C70 1.492 . S
C81 C82 1.377 . S
C81 C86 1.397 . S
C82 H45 0.931 1_455 S
C82 C81 1.377 . S
C82 C83 1.376 . S
C83 H46 0.930 1_455 S
C83 C82 1.376 . S
C83 C84 1.376 . S
C84 C83 1.376 . S
C84 C85 1.378 . S
C84 C111 1.486 . S
C85 H47 0.930 . S
C85 C84 1.378 . S
C85 C86 1.376 . S
C86 H48 0.929 . S
C86 C81 1.397 . S
C86 C85 1.376 . S
C87 C71 1.509 . S
C87 C88 1.391 . S
C87 C92 1.386 . S
C88 H49 0.930 1_455 S
C88 C87 1.391 . S
C88 C89 1.375 . S
C89 H50 0.931 1_455 S
C89 C88 1.375 . S
C89 C90 1.375 . S
C90 C89 1.375 . S
C90 C91 1.361 . S
C91 H51 0.930 . S
C91 C90 1.361 . S
C91 C92 1.399 . S
C92 H52 0.929 . S
C92 C87 1.386 . S
C92 C91 1.399 . S
C93 C72 1.485 . S
C93 C94 1.394 1_455 S
C93 C98 1.360 . S
C94 H53 0.931 . S
C94 C93 1.394 1_655 S
C94 C95 1.375 1_655 S
C95 H54 0.923 1_455 S
C95 C94 1.375 1_455 S
C95 C96 1.400 . S
C96 C95 1.400 . S
C96 C97 1.390 . S
C96 C112 1.476 . S
C97 H55 0.930 . S
C97 C96 1.390 . S
C97 C98 1.366 . S
C98 H56 0.932 . S
C98 C93 1.360 . S
C98 C97 1.366 . S
C99 C73 1.490 . S
C99 C100 1.380 1_455 S
C99 C104 1.386 . S
C100 H57 0.930 . S
C100 C99 1.380 1_655 S
C100 C101 1.381 . S
C101 H58 0.929 . S
C101 C100 1.381 . S
C101 C102 1.371 1_655 S
C102 C101 1.371 1_455 S
C102 C103 1.380 . S
C103 H59 0.931 . S
C103 C102 1.380 . S
C103 C104 1.387 . S
C104 H60 0.930 . S
C104 C99 1.386 . S
C104 C103 1.387 . S
C105 C74 1.519 . S
C105 C106 1.377 1_455 S
C105 C110 1.361 . S
C106 H61 0.929 . S
C106 C105 1.377 1_655 S
C106 C107 1.386 . S
C107 H62 0.931 . S
C107 C106 1.386 . S
C107 C108 1.363 1_655 S
C108 C107 1.363 1_455 S
C108 C109 1.385 . S
C109 H63 0.930 . S
C109 C108 1.385 . S
C109 C110 1.396 . S
C110 H64 0.929 . S
C110 C105 1.361 . S
C110 C109 1.396 . S
C111 O65 1.300 . S
C111 O66 1.209 . S
C111 C84 1.486 . S
C112 O67 1.199 . S
C112 O68 1.297 . S
C112 C96 1.476 . S
H113 O139 0.856 . S
H114 O142 0.854 . S
H115 C150 0.930 . S
H116 C151 0.930 . S
H117 C153 0.930 . S
H118 C154 0.930 . S
H119 C156 0.931 1_565 S
H120 C157 0.930 1_565 S
H121 C159 0.930 . S
H122 C160 0.929 . S
H123 C162 0.930 1_565 S
H124 C163 0.931 1_565 S
H125 C165 0.930 . S
H126 C166 0.929 . S
H127 C168 0.931 1_565 S
H128 C169 0.930 1_565 S
H129 C171 0.930 . S
H130 C172 0.932 . S
H131 C174 0.930 1_565 S
H132 C175 0.929 . S
H133 C177 0.931 . S
H134 C178 0.930 . S
H135 C180 0.929 1_565 S
H136 C181 0.931 1_565 S
H137 C183 0.930 . S
H138 C184 0.929 . S
O139 H113 0.856 . S
O139 C185 1.300 . S
O140 C185 1.209 . S
O141 C186 1.199 . S
O142 H114 0.854 . S
O142 C186 1.297 . S
C143 C144 1.404 . S
C143 C148 1.397 . S
C143 C149 1.492 . S
C144 C143 1.404 . S
C144 C145 1.396 . S
C144 C155 1.492 . S
C145 C144 1.396 . S
C145 C146 1.397 . S
C145 C161 1.509 . S
C146 C145 1.397 . S
C146 C147 1.412 . S
C146 C167 1.485 . S
C147 C146 1.412 . S
C147 C148 1.388 . S
C147 C173 1.490 . S
C148 C143 1.397 . S
C148 C147 1.388 . S
C148 C179 1.519 . S
C149 C143 1.492 . S
C149 C150 1.363 1_545 S
C149 C154 1.390 . S
C150 H115 0.930 . S
C150 C149 1.363 1_565 S
C150 C151 1.372 . S
C151 H116 0.930 . S
C151 C150 1.372 . S
C151 C152 1.383 1_565 S
C152 C151 1.383 1_545 S
C152 C153 1.395 . S
C153 H117 0.930 . S
C153 C152 1.395 . S
C153 C154 1.362 . S
C154 H118 0.930 . S
C154 C149 1.390 . S
C154 C153 1.362 . S
C155 C144 1.492 . S
C155 C156 1.377 . S
C155 C160 1.397 . S
C156 H119 0.931 1_545 S
C156 C155 1.377 . S
C156 C157 1.376 . S
C157 H120 0.930 1_545 S
C157 C156 1.376 . S
C157 C158 1.376 . S
C158 C157 1.376 . S
C158 C159 1.378 . S
C158 C185 1.486 . S
C159 H121 0.930 . S
C159 C158 1.378 . S
C159 C160 1.376 . S
C160 H122 0.929 . S
C160 C155 1.397 . S
C160 C159 1.376 . S
C161 C145 1.509 . S
C161 C162 1.391 . S
C161 C166 1.386 . S
C162 H123 0.930 1_545 S
C162 C161 1.391 . S
C162 C163 1.375 . S
C163 H124 0.931 1_545 S
C163 C162 1.375 . S
C163 C164 1.375 . S
C164 C163 1.375 . S
C164 C165 1.361 . S
C165 H125 0.930 . S
C165 C164 1.361 . S
C165 C166 1.399 . S
C166 H126 0.929 . S
C166 C161 1.386 . S
C166 C165 1.399 . S
C167 C146 1.485 . S
C167 C168 1.394 . S
C167 C172 1.360 . S
C168 H127 0.931 1_545 S
C168 C167 1.394 . S
C168 C169 1.372 . S
C169 H128 0.930 1_545 S
C169 C168 1.372 . S
C169 C170 1.397 . S
C170 C169 1.397 . S
C170 C171 1.390 . S
C170 C186 1.476 . S
C171 H129 0.930 . S
C171 C170 1.390 . S
C171 C172 1.366 . S
C172 H130 0.932 . S
C172 C167 1.360 . S
C172 C171 1.366 . S
C173 C147 1.490 . S
C173 C174 1.380 . S
C173 C178 1.386 . S
C174 H131 0.930 1_545 S
C174 C173 1.380 . S
C174 C175 1.381 1_545 S
C175 H132 0.929 . S
C175 C174 1.381 1_565 S
C175 C176 1.371 1_565 S
C176 C175 1.371 1_545 S
C176 C177 1.380 . S
C177 H133 0.931 . S
C177 C176 1.380 . S
C177 C178 1.387 . S
C178 H134 0.930 . S
C178 C173 1.386 . S
C178 C177 1.387 . S
C179 C148 1.519 . S
C179 C180 1.377 . S
C179 C184 1.361 . S
C180 H135 0.929 1_545 S
C180 C179 1.377 . S
C180 C181 1.386 . S
C181 H136 0.931 1_545 S
C181 C180 1.386 . S
C181 C182 1.363 . S
C182 C181 1.363 . S
C182 C183 1.385 . S
C183 H137 0.930 . S
C183 C182 1.385 . S
C183 C184 1.396 . S
C184 H138 0.929 . S
C184 C179 1.361 . S
C184 C183 1.396 . S
C185 O139 1.300 . S
C185 O140 1.209 . S
C185 C158 1.486 . S
C186 O141 1.199 . S
C186 O142 1.297 . S
C186 C170 1.476 . S
H187 O213 0.856 . S
H188 O216 0.854 . S
H189 C224 0.930 . S
H190 C225 0.930 . S
H191 C227 0.930 . S
H192 C228 0.930 . S
H193 C230 0.931 . S
H194 C231 0.930 . S
H195 C233 0.930 . S
H196 C234 0.929 . S
H197 C236 0.930 . S
H198 C237 0.931 . S
H199 C239 0.930 . S
H200 C240 0.929 . S
H201 C242 0.931 . S
H202 C243 0.930 . S
H203 C245 0.930 . S
H204 C246 0.932 . S
H205 C248 0.930 . S
H206 C249 0.929 . S
H207 C251 0.931 . S
H208 C252 0.930 . S
H209 C254 0.929 . S
H210 C255 0.931 . S
H211 C257 0.930 . S
H212 C258 0.929 . S
O213 H187 0.856 . S
O213 C259 1.299 1_554 S
O214 C259 1.209 1_554 S
O215 C260 1.199 . S
O216 H188 0.854 . S
O216 C260 1.297 . S
C217 C218 1.404 . S
C217 C222 1.397 . S
C217 C223 1.492 . S
C218 C217 1.404 . S
C218 C219 1.396 . S
C218 C229 1.492 . S
C219 C218 1.396 . S
C219 C220 1.397 . S
C219 C235 1.509 . S
C220 C219 1.397 . S
C220 C221 1.412 . S
C220 C241 1.485 . S
C221 C220 1.412 . S
C221 C222 1.388 . S
C221 C247 1.490 . S
C222 C217 1.397 . S
C222 C221 1.388 . S
C222 C253 1.519 . S
C223 C217 1.492 . S
C223 C224 1.363 . S
C223 C228 1.390 . S
C224 H189 0.930 . S
C224 C223 1.363 . S
C224 C225 1.372 . S
C225 H190 0.930 . S
C225 C224 1.372 . S
C225 C226 1.383 . S
C226 C225 1.383 . S
C226 C227 1.395 . S
C227 H191 0.930 . S
C227 C226 1.395 . S
C227 C228 1.362 . S
C228 H192 0.930 . S
C228 C223 1.390 . S
C228 C227 1.362 . S
C229 C218 1.492 . S
C229 C230 1.377 . S
C229 C234 1.397 . S
C230 H193 0.931 . S
C230 C229 1.377 . S
C230 C231 1.376 . S
C231 H194 0.930 . S
C231 C230 1.376 . S
C231 C232 1.376 . S
C232 C231 1.376 . S
C232 C233 1.378 . S
C232 C259 1.487 . S
C233 H195 0.930 . S
C233 C232 1.378 . S
C233 C234 1.376 . S
C234 H196 0.929 . S
C234 C229 1.397 . S
C234 C233 1.376 . S
C235 C219 1.509 . S
C235 C236 1.391 . S
C235 C240 1.386 . S
C236 H197 0.930 . S
C236 C235 1.391 . S
C236 C237 1.375 . S
C237 H198 0.931 . S
C237 C236 1.375 . S
C237 C238 1.375 . S
C238 C237 1.375 . S
C238 C239 1.361 . S
C239 H199 0.930 . S
C239 C238 1.361 . S
C239 C240 1.399 . S
C240 H200 0.929 . S
C240 C235 1.386 . S
C240 C239 1.399 . S
C241 C220 1.485 . S
C241 C242 1.394 . S
C241 C246 1.360 . S
C242 H201 0.931 . S
C242 C241 1.394 . S
C242 C243 1.372 . S
C243 H202 0.930 . S
C243 C242 1.372 . S
C243 C244 1.397 . S
C244 C243 1.397 . S
C244 C245 1.390 . S
C244 C260 1.476 . S
C245 H203 0.930 . S
C245 C244 1.390 . S
C245 C246 1.366 . S
C246 H204 0.932 . S
C246 C241 1.360 . S
C246 C245 1.366 . S
C247 C221 1.490 . S
C247 C248 1.380 . S
C247 C252 1.386 . S
C248 H205 0.930 . S
C248 C247 1.380 . S
C248 C249 1.381 . S
C249 H206 0.929 . S
C249 C248 1.381 . S
C249 C250 1.371 . S
C250 C249 1.371 . S
C250 C251 1.380 . S
C251 H207 0.931 . S
C251 C250 1.380 . S
C251 C252 1.387 . S
C252 H208 0.930 . S
C252 C247 1.386 . S
C252 C251 1.387 . S
C253 C222 1.519 . S
C253 C254 1.377 . S
C253 C258 1.361 . S
C254 H209 0.929 . S
C254 C253 1.377 . S
C254 C255 1.386 . S
C255 H210 0.931 . S
C255 C254 1.386 . S
C255 C256 1.363 . S
C256 C255 1.363 . S
C256 C257 1.385 . S
C257 H211 0.930 . S
C257 C256 1.385 . S
C257 C258 1.396 . S
C258 H212 0.929 . S
C258 C253 1.361 . S
C258 C257 1.396 . S
C259 O213 1.299 1_556 S
C259 O214 1.209 1_556 S
C259 C232 1.487 . S
C260 O215 1.199 . S
C260 O216 1.297 . S
C260 C244 1.476 . S
C261 C262 1.391 . S
C261 C263 1.394 . S
C261 H277 0.931 1_455 S
C262 C261 1.391 . S
C262 C266 1.376 . S
C263 C261 1.394 . S
C263 C264 1.369 . S
C263 C267 1.531 1_455 S
C264 C263 1.369 . S
C264 C265 1.410 . S
C264 C272 1.503 . S
C265 C264 1.410 . S
C265 C266 1.392 . S
C265 C268 1.511 . S
C266 C262 1.376 . S
C266 C265 1.392 . S
C266 H278 0.929 . S
C267 C263 1.531 1_655 S
C267 H279 0.960 . S
C267 H280 0.962 . S
C267 H281 0.960 . S
C268 C265 1.511 . S
C268 H282 0.961 . S
C268 H283 0.961 . S
C268 H284 0.961 . S
C269 C270 1.370 . S
C269 C271 1.363 . S
C269 H285 0.931 . S
C270 C269 1.370 . S
C270 C274 1.408 . S
C271 C269 1.363 . S
C271 C272 1.370 . S
C271 C275 1.524 . S
C272 C264 1.503 . S
C272 C271 1.370 . S
C272 C273 1.403 . S
C273 C272 1.403 . S
C273 C274 1.404 . S
C273 C276 1.539 . S
C274 C270 1.408 . S
C274 C273 1.404 . S
C274 H286 0.930 . S
C275 C271 1.524 . S
C275 H287 0.966 . S
C275 H288 0.961 . S
C275 H289 0.961 . S
C276 C273 1.539 . S
C276 H290 0.958 . S
C276 H291 0.961 . S
C276 H292 0.960 . S
H277 C261 0.931 1_655 S
H278 C266 0.929 . S
H279 C267 0.960 . S
H280 C267 0.962 . S
H281 C267 0.960 . S
H282 C268 0.961 . S
H283 C268 0.961 . S
H284 C268 0.961 . S
H285 C269 0.931 . S
H286 C274 0.930 . S
H287 C275 0.966 . S
H288 C275 0.961 . S
H289 C275 0.961 . S
H290 C276 0.958 . S
H291 C276 0.961 . S
H292 C276 0.960 . S
C293 C294 1.391 . S
C293 C295 1.394 . S
C293 H309 0.931 . S
C294 C293 1.391 . S
C294 C298 1.376 . S
C295 C293 1.394 . S
C295 C296 1.369 . S
C295 C299 1.531 . S
C296 C295 1.369 . S
C296 C297 1.410 . S
C296 C304 1.503 . S
C297 C296 1.410 . S
C297 C298 1.392 . S
C297 C300 1.511 1_545 S
C298 C294 1.376 . S
C298 C297 1.392 . S
C298 H310 0.929 . S
C299 C295 1.531 . S
C299 H311 0.960 . S
C299 H312 0.962 . S
C299 H313 0.960 . S
C300 C297 1.511 1_565 S
C300 H314 0.961 1_565 S
C300 H315 0.961 1_565 S
C300 H316 0.961 . S
C301 C302 1.370 . S
C301 C303 1.363 . S
C301 H317 0.931 . S
C302 C301 1.370 . S
C302 C306 1.408 1_545 S
C303 C301 1.363 . S
C303 C304 1.370 . S
C303 C307 1.524 . S
C304 C296 1.503 . S
C304 C303 1.370 . S
C304 C305 1.403 1_545 S
C305 C304 1.403 1_565 S
C305 C306 1.404 . S
C305 C308 1.539 . S
C306 C302 1.408 1_565 S
C306 C305 1.404 . S
C306 H318 0.930 . S
C307 C303 1.524 . S
C307 H319 0.956 . S
C307 H320 0.961 . S
C307 H321 0.961 . S
C308 C305 1.539 . S
C308 H322 0.958 . S
C308 H323 0.961 . S
C308 H324 0.960 . S
H309 C293 0.931 . S
H310 C298 0.929 . S
H311 C299 0.960 . S
H312 C299 0.962 . S
H313 C299 0.960 . S
H314 C300 0.961 1_545 S
H315 C300 0.961 1_545 S
H316 C300 0.961 . S
H317 C301 0.931 . S
H318 C306 0.930 . S
H319 C307 0.956 . S
H320 C307 0.961 . S
H321 C307 0.961 . S
H322 C308 0.958 . S
H323 C308 0.961 . S
H324 C308 0.960 . S
C325 C326 1.391 . S
C325 C327 1.394 . S
C325 H341 0.931 . S
C326 C325 1.391 . S
C326 C330 1.376 . S
C327 C325 1.394 . S
C327 C328 1.369 . S
C327 C331 1.531 . S
C328 C327 1.369 . S
C328 C329 1.410 . S
C328 C336 1.503 . S
C329 C328 1.410 . S
C329 C330 1.392 . S
C329 C332 1.511 . S
C330 C326 1.376 . S
C330 C329 1.392 . S
C330 H342 0.929 . S
C331 C327 1.531 . S
C331 H343 0.960 . S
C331 H344 0.962 . S
C331 H345 0.960 . S
C332 C329 1.511 . S
C332 H346 0.961 . S
C332 H347 0.961 . S
C332 H348 0.961 . S
C333 C334 1.370 . S
C333 C335 1.363 . S
C333 H349 0.931 . S
C334 C333 1.370 . S
C334 C338 1.408 . S
C335 C333 1.363 . S
C335 C336 1.370 . S
C335 C339 1.524 . S
C336 C328 1.503 . S
C336 C335 1.370 . S
C336 C337 1.403 . S
C337 C336 1.403 . S
C337 C338 1.404 . S
C337 C340 1.539 . S
C338 C334 1.408 . S
C338 C337 1.404 . S
C338 H350 0.930 . S
C339 C335 1.524 . S
C339 H351 0.956 . S
C339 H352 0.961 . S
C339 H353 0.961 . S
C340 C337 1.539 . S
C340 H354 0.958 . S
C340 H355 0.961 . S
C340 H356 0.960 . S
H341 C325 0.931 . S
H342 C330 0.929 . S
H343 C331 0.960 . S
H344 C331 0.962 . S
H345 C331 0.960 . S
H346 C332 0.961 . S
H347 C332 0.961 . S
H348 C332 0.961 . S
H349 C333 0.931 . S
H350 C338 0.930 . S
H351 C339 0.956 . S
H352 C339 0.961 . S
H353 C339 0.961 . S
H354 C340 0.958 . S
H355 C340 0.961 . S
H356 C340 0.960 . S
C357 C358 1.391 . S
C357 C359 1.394 . S
C357 H373 0.931 . S
C358 C357 1.391 . S
C358 C362 1.376 . S
C359 C357 1.394 . S
C359 C360 1.369 . S
C359 C363 1.531 . S
C360 C359 1.369 . S
C360 C361 1.410 . S
C360 C368 1.503 . S
C361 C360 1.410 . S
C361 C362 1.392 . S
C361 C364 1.511 1_455 S
C362 C358 1.376 . S
C362 C361 1.392 . S
C362 H374 0.929 1_455 S
C363 C359 1.531 . S
C363 H375 0.960 . S
C363 H376 0.962 . S
C363 H377 0.960 . S
C364 C361 1.511 1_655 S
C364 H378 0.961 . S
C364 H379 0.961 . S
C364 H380 0.961 . S
C365 C366 1.370 . S
C365 C367 1.363 . S
C365 H381 0.931 . S
C366 C365 1.370 . S
C366 C370 1.408 . S
C367 C365 1.363 . S
C367 C368 1.370 . S
C367 C371 1.524 . S
C368 C360 1.503 . S
C368 C367 1.370 . S
C368 C369 1.403 . S
C369 C368 1.403 . S
C369 C370 1.404 . S
C369 C372 1.539 . S
C370 C366 1.408 . S
C370 C369 1.404 . S
C370 H382 0.930 . S
C371 C367 1.524 . S
C371 H383 0.956 . S
C371 H384 0.961 . S
C371 H385 0.961 . S
C372 C369 1.539 . S
C372 H386 0.958 . S
C372 H387 0.961 . S
C372 H388 0.960 . S
H373 C357 0.931 . S
H374 C362 0.929 1_655 S
H375 C363 0.960 . S
H376 C363 0.962 . S
H377 C363 0.960 . S
H378 C364 0.961 . S
H379 C364 0.961 . S
H380 C364 0.961 . S
H381 C365 0.931 . S
H382 C370 0.930 . S
H383 C371 0.956 . S
H384 C371 0.961 . S
H385 C371 0.961 . S
H386 C372 0.958 . S
H387 C372 0.961 . S
H388 C372 0.960 . S
C389 C390 1.391 . S
C389 C391 1.394 . S
C389 H405 0.931 . S
C390 C389 1.391 . S
C390 C394 1.376 . S
C391 C389 1.394 . S
C391 C392 1.369 . S
C391 C395 1.531 . S
C392 C391 1.369 . S
C392 C393 1.410 . S
C392 C400 1.503 . S
C393 C392 1.410 . S
C393 C394 1.392 . S
C393 C396 1.511 . S
C394 C390 1.376 . S
C394 C393 1.392 . S
C394 H406 0.929 . S
C395 C391 1.531 . S
C395 H407 0.960 . S
C395 H408 0.962 . S
C395 H409 0.960 . S
C396 C393 1.511 . S
C396 H410 0.961 . S
C396 H411 0.961 . S
C396 H412 0.961 . S
C397 C398 1.370 . S
C397 C399 1.363 . S
C397 H413 0.931 1_545 S
C398 C397 1.370 . S
C398 C402 1.408 . S
C399 C397 1.363 . S
C399 C400 1.370 . S
C399 C403 1.524 1_545 S
C400 C392 1.503 . S
C400 C399 1.370 . S
C400 C401 1.403 . S
C401 C400 1.403 . S
C401 C402 1.404 . S
C401 C404 1.539 . S
C402 C398 1.408 . S
C402 C401 1.404 . S
C402 H414 0.930 . S
C403 C399 1.524 1_565 S
C403 H415 0.956 . S
C403 H416 0.961 . S
C403 H417 0.961 . S
C404 C401 1.539 . S
C404 H418 0.958 . S
C404 H419 0.961 . S
C404 H420 0.960 . S
H405 C389 0.931 . S
H406 C394 0.929 . S
H407 C395 0.960 . S
H408 C395 0.962 . S
H409 C395 0.960 . S
H410 C396 0.961 . S
H411 C396 0.961 . S
H412 C396 0.961 . S
H413 C397 0.931 1_565 S
H414 C402 0.930 . S
H415 C403 0.956 . S
H416 C403 0.961 . S
H417 C403 0.961 . S
H418 C404 0.958 . S
H419 C404 0.961 . S
H420 C404 0.960 . S
C421 C422 1.391 . S
C421 C423 1.394 . S
C421 H437 0.931 . S
C422 C421 1.391 . S
C422 C426 1.376 . S
C423 C421 1.394 . S
C423 C424 1.369 . S
C423 C427 1.531 . S
C424 C423 1.369 . S
C424 C425 1.410 . S
C424 C432 1.503 . S
C425 C424 1.410 . S
C425 C426 1.392 . S
C425 C428 1.511 . S
C426 C422 1.376 . S
C426 C425 1.392 . S
C426 H438 0.929 . S
C427 C423 1.531 . S
C427 H439 0.960 . S
C427 H440 0.962 . S
C427 H441 0.960 . S
C428 C425 1.511 . S
C428 H442 0.961 . S
C428 H443 0.961 . S
C428 H444 0.961 . S
C429 C430 1.370 . S
C429 C431 1.363 . S
C429 H445 0.931 . S
C430 C429 1.370 . S
C430 C434 1.408 . S
C431 C429 1.363 . S
C431 C432 1.370 . S
C431 C435 1.524 . S
C432 C424 1.503 . S
C432 C431 1.370 . S
C432 C433 1.403 . S
C433 C432 1.403 . S
C433 C434 1.404 . S
C433 C436 1.539 . S
C434 C430 1.408 . S
C434 C433 1.404 . S
C434 H446 0.930 . S
C435 C431 1.524 . S
C435 H447 0.956 . S
C435 H448 0.961 . S
C435 H449 0.961 . S
C436 C433 1.539 . S
C436 H450 0.958 . S
C436 H451 0.961 . S
C436 H452 0.960 . S
H437 C421 0.931 . S
H438 C426 0.929 . S
H439 C427 0.960 . S
H440 C427 0.962 . S
H441 C427 0.960 . S
H442 C428 0.961 . S
H443 C428 0.961 . S
H444 C428 0.961 . S
H445 C429 0.931 . S
H446 C434 0.930 . S
H447 C435 0.956 . S
H448 C435 0.961 . S
H449 C435 0.961 . S
H450 C436 0.958 . S
H451 C436 0.961 . S
H452 C436 0.960 . S
C453 C454 1.391 . S
C453 C455 1.394 . S
C453 H469 0.931 . S
C454 C453 1.391 . S
C454 C458 1.376 . S
C455 C453 1.394 . S
C455 C456 1.369 . S
C455 C459 1.531 . S
C456 C455 1.369 . S
C456 C457 1.410 . S
C456 C464 1.503 . S
C457 C456 1.410 . S
C457 C458 1.392 . S
C457 C460 1.511 . S
C458 C454 1.376 . S
C458 C457 1.392 . S
C458 H470 0.929 . S
C459 C455 1.531 . S
C459 H471 0.960 . S
C459 H472 0.962 . S
C459 H473 0.978 . S
C460 C457 1.511 . S
C460 H474 0.961 . S
C460 H475 0.961 . S
C460 H476 0.961 . S
C461 C462 1.370 . S
C461 C463 1.363 . S
C461 H477 0.931 . S
C462 C461 1.370 . S
C462 C466 1.408 . S
C463 C461 1.363 . S
C463 C464 1.370 . S
C463 C467 1.524 . S
C464 C456 1.503 . S
C464 C463 1.370 . S
C464 C465 1.403 . S
C465 C464 1.403 . S
C465 C466 1.404 . S
C465 C468 1.539 1_545 S
C466 C462 1.408 . S
C466 C465 1.404 . S
C466 H478 0.930 1_545 S
C467 C463 1.524 . S
C467 H479 0.956 . S
C467 H480 0.961 . S
C467 H481 0.961 . S
C468 C465 1.539 1_565 S
C468 H482 0.958 . S
C468 H483 0.961 . S
C468 H484 0.960 . S
H469 C453 0.931 . S
H470 C458 0.929 . S
H471 C459 0.960 . S
H472 C459 0.962 . S
H473 C459 0.978 . S
H474 C460 0.961 . S
H475 C460 0.961 . S
H476 C460 0.961 . S
H477 C461 0.931 . S
H478 C466 0.930 1_565 S
H479 C467 0.956 . S
H480 C467 0.961 . S
H481 C467 0.961 . S
H482 C468 0.958 . S
H483 C468 0.961 . S
H484 C468 0.960 . S
C485 C486 1.424 . S
C485 C487 1.359 1_554 S
C485 H501 0.933 . S
C486 C485 1.424 . S
C486 C490 1.376 . S
C487 C485 1.359 1_556 S
C487 C488 1.369 . S
C487 C491 1.531 . S
C488 C487 1.369 . S
C488 C489 1.410 . S
C488 C496 1.503 . S
C489 C488 1.410 . S
C489 C490 1.392 1_556 S
C489 C492 1.511 . S
C490 C486 1.376 . S
C490 C489 1.392 1_554 S
C490 H502 0.929 . S
C491 C487 1.531 . S
C491 H503 0.960 . S
C491 H504 0.962 . S
C491 H505 0.960 . S
C492 C489 1.511 . S
C492 H506 0.961 1_556 S
C492 H507 0.961 . S
C492 H508 0.961 . S
C493 C494 1.370 . S
C493 C495 1.363 . S
C493 H509 0.931 . S
C494 C493 1.370 . S
C494 C498 1.408 . S
C495 C493 1.363 . S
C495 C496 1.370 . S
C495 C499 1.524 . S
C496 C488 1.503 . S
C496 C495 1.370 . S
C496 C497 1.403 . S
C497 C496 1.403 . S
C497 C498 1.404 . S
C497 C500 1.539 . S
C498 C494 1.408 . S
C498 C497 1.404 . S
C498 H510 0.930 . S
C499 C495 1.524 . S
C499 H511 0.956 . S
C499 H512 0.961 . S
C499 H513 0.961 . S
C500 C497 1.539 . S
C500 H514 0.958 . S
C500 H515 0.961 . S
C500 H516 0.960 . S
H501 C485 0.933 . S
H502 C490 0.929 . S
H503 C491 0.960 . S
H504 C491 0.962 . S
H505 C491 0.960 . S
H506 C492 0.961 1_554 S
H507 C492 0.961 . S
H508 C492 0.961 . S
H509 C493 0.931 . S
H510 C498 0.930 . S
H511 C499 0.956 . S
H512 C499 0.961 . S
H513 C499 0.961 . S
H514 C500 0.958 . S
H515 C500 0.961 . S
H516 C500 0.960 . S
C517 C518 1.391 1_655 S
C517 C519 1.394 . S
C517 H533 0.931 . S
C518 C517 1.391 1_455 S
C518 C522 1.376 . S
C519 C517 1.394 . S
C519 C520 1.369 1_655 S
C519 C523 1.531 . S
C520 C519 1.369 1_455 S
C520 C521 1.410 . S
C520 C528 1.503 . S
C521 C520 1.410 . S
C521 C522 1.392 . S
C521 C524 1.511 . S
C522 C518 1.376 . S
C522 C521 1.392 . S
C522 H534 0.929 . S
C523 C519 1.531 . S
C523 H535 0.960 . S
C523 H536 0.962 . S
C523 H537 0.960 . S
C524 C521 1.511 . S
C524 H538 0.961 . S
C524 H539 0.961 . S
C524 H540 0.961 . S
C525 C526 1.370 . S
C525 C527 1.363 . S
C525 H541 0.931 . S
C526 C525 1.370 . S
C526 C530 1.408 1_455 S
C527 C525 1.363 . S
C527 C528 1.370 . S
C527 C531 1.524 . S
C528 C520 1.503 . S
C528 C527 1.370 . S
C528 C529 1.403 1_455 S
C529 C528 1.403 1_655 S
C529 C530 1.404 . S
C529 C532 1.539 . S
C530 C526 1.408 1_655 S
C530 C529 1.404 . S
C530 H542 0.930 . S
C531 C527 1.524 . S
C531 H543 0.956 . S
C531 H544 0.961 . S
C531 H545 0.961 . S
C532 C529 1.539 . S
C532 H546 0.958 . S
C532 H547 0.961 . S
C532 H548 0.960 . S
H533 C517 0.931 . S
H534 C522 0.929 . S
H535 C523 0.960 . S
H536 C523 0.962 . S
H537 C523 0.960 . S
H538 C524 0.961 . S
H539 C524 0.961 . S
H540 C524 0.961 . S
H541 C525 0.931 . S
H542 C530 0.930 . S
H543 C531 0.956 . S
H544 C531 0.961 . S
H545 C531 0.961 . S
H546 C532 0.958 . S
H547 C532 0.961 . S
H548 C532 0.960 . S
C549 C550 1.391 . S
C549 C551 1.394 . S
C549 H565 0.931 . S
C550 C549 1.391 . S
C550 C554 1.376 . S
C551 C549 1.394 . S
C551 C552 1.369 . S
C551 C555 1.531 . S
C552 C551 1.369 . S
C552 C553 1.410 . S
C552 C560 1.503 . S
C553 C552 1.410 . S
C553 C554 1.392 . S
C553 C556 1.511 1_545 S
C554 C550 1.376 . S
C554 C553 1.392 . S
C554 H566 0.929 . S
C555 C551 1.531 . S
C555 H567 0.960 . S
C555 H568 0.962 . S
C555 H569 0.960 . S
C556 C553 1.511 1_565 S
C556 H570 0.961 . S
C556 H571 0.961 . S
C556 H572 0.961 . S
C557 C558 1.370 . S
C557 C559 1.363 . S
C557 H573 0.931 1_545 S
C558 C557 1.370 . S
C558 C562 1.408 . S
C559 C557 1.363 . S
C559 C560 1.370 . S
C559 C563 1.524 1_545 S
C560 C552 1.503 . S
C560 C559 1.370 . S
C560 C561 1.403 . S
C561 C560 1.403 . S
C561 C562 1.404 . S
C561 C564 1.539 . S
C562 C558 1.408 . S
C562 C561 1.404 . S
C562 H574 0.930 . S
C563 C559 1.524 1_565 S
C563 H575 0.956 1_565 S
C563 H576 0.961 . S
C563 H577 0.961 . S
C564 C561 1.539 . S
C564 H578 0.958 . S
C564 H579 0.961 . S
C564 H580 0.960 . S
H565 C549 0.931 . S
H566 C554 0.929 . S
H567 C555 0.960 . S
H568 C555 0.962 . S
H569 C555 0.960 . S
H570 C556 0.961 . S
H571 C556 0.961 . S
H572 C556 0.961 . S
H573 C557 0.931 1_565 S
H574 C562 0.930 . S
H575 C563 0.956 1_545 S
H576 C563 0.961 . S
H577 C563 0.961 . S
H578 C564 0.958 . S
H579 C564 0.961 . S
H580 C564 0.960 . S
C581 C582 1.391 . S
C581 C583 1.394 . S
C581 H597 0.931 . S
C582 C581 1.391 . S
C582 C586 1.376 . S
C583 C581 1.394 . S
C583 C584 1.369 . S
C583 C587 1.531 1_554 S
C584 C583 1.369 . S
C584 C585 1.410 . S
C584 C592 1.503 1_554 S
C585 C584 1.410 . S
C585 C586 1.392 . S
C585 C588 1.511 . S
C586 C582 1.376 . S
C586 C585 1.392 . S
C586 H598 0.929 . S
C587 C583 1.531 1_556 S
C587 H599 0.960 . S
C587 H600 0.962 . S
C587 H601 0.960 . S
C588 C585 1.511 . S
C588 H602 0.961 . S
C588 H603 0.961 . S
C588 H604 0.961 . S
C589 C590 1.370 . S
C589 C591 1.363 . S
C589 H605 0.931 . S
C590 C589 1.370 . S
C590 C594 1.408 . S
C591 C589 1.363 . S
C591 C592 1.370 . S
C591 C595 1.524 . S
C592 C584 1.503 1_556 S
C592 C591 1.370 . S
C592 C593 1.403 . S
C593 C592 1.403 . S
C593 C594 1.404 . S
C593 C596 1.539 1_556 S
C594 C590 1.408 . S
C594 C593 1.404 . S
C594 H606 0.930 . S
C595 C591 1.524 . S
C595 H607 0.956 . S
C595 H608 0.961 . S
C595 H609 0.961 . S
C596 C593 1.539 1_554 S
C596 H610 0.958 . S
C596 H611 0.961 . S
C596 H612 0.960 . S
H597 C581 0.931 . S
H598 C586 0.929 . S
H599 C587 0.960 . S
H600 C587 0.962 . S
H601 C587 0.960 . S
H602 C588 0.961 . S
H603 C588 0.961 . S
H604 C588 0.961 . S
H605 C589 0.931 . S
H606 C594 0.930 . S
H607 C595 0.956 . S
H608 C595 0.961 . S
H609 C595 0.961 . S
H610 C596 0.958 . S
H611 C596 0.961 . S
H612 C596 0.960 . S
C613 C614 1.391 . S
C613 C615 1.394 . S
C613 H629 0.931 . S
C614 C613 1.391 . S
C614 C618 1.376 1_455 S
C615 C613 1.394 . S
C615 C616 1.369 . S
C615 C619 1.531 . S
C616 C615 1.369 . S
C616 C617 1.410 1_455 S
C616 C624 1.503 . S
C617 C616 1.410 1_655 S
C617 C618 1.392 . S
C617 C620 1.511 . S
C618 C614 1.376 1_655 S
C618 C617 1.392 . S
C618 H630 0.929 . S
C619 C615 1.531 . S
C619 H631 0.960 . S
C619 H632 0.962 . S
C619 H633 0.960 . S
C620 C617 1.511 . S
C620 H634 0.961 . S
C620 H635 0.961 . S
C620 H636 0.961 . S
C621 C622 1.370 . S
C621 C623 1.363 . S
C621 H637 0.931 . S
C622 C621 1.370 . S
C622 C626 1.408 1_455 S
C623 C621 1.363 . S
C623 C624 1.370 . S
C623 C627 1.524 . S
C624 C616 1.503 . S
C624 C623 1.370 . S
C624 C625 1.403 1_455 S
C625 C624 1.403 1_655 S
C625 C626 1.404 . S
C625 C628 1.539 . S
C626 C622 1.408 1_655 S
C626 C625 1.404 . S
C626 H638 0.930 . S
C627 C623 1.524 . S
C627 H639 0.956 . S
C627 H640 0.961 . S
C627 H641 0.961 . S
C628 C625 1.539 . S
C628 H642 0.958 . S
C628 H643 0.961 . S
C628 H644 0.960 . S
H629 C613 0.931 . S
H630 C618 0.929 . S
H631 C619 0.960 . S
H632 C619 0.962 . S
H633 C619 0.960 . S
H634 C620 0.961 . S
H635 C620 0.961 . S
H636 C620 0.961 . S
H637 C621 0.931 . S
H638 C626 0.930 . S
H639 C627 0.956 . S
H640 C627 0.961 . S
H641 C627 0.961 . S
H642 C628 0.958 . S
H643 C628 0.961 . S
H644 C628 0.960 . S
C270 C78 1.467 . S
C262 C10 1.519 . S
C294 C17 1.448 . S
C302 C152 1.384 . S
C326 C36 2.176 1_655 S
C334 C256 2.175 . S
C358 C5 0.881 . S
C366 C90 0.875 . S
C398 C164 0.870 . S
C390 C16 0.848 . S
C422 C31 1.645 . S
C430 C250 1.496 . S
C462 C182 2.150 . S
C454 C30 2.159 . S
C486 C3 1.508 . S
C494 C226 1.444 . S
C526 C102 1.538 . S
C518 C18 1.678 . S
C558 C176 1.498 . S
C550 C29 1.602 . S
C590 C238 0.868 . S
C582 C4 0.872 . S
C614 C23 2.224 . S
C622 C108 2.219 . S
