# Generated by pormake.
# Topology pyr, (3,6)-cn, num edge types: 1
# Building blocks:
#     Node 0, Type 0, BuildingBlock: VETTIZ_charged_linker_0, # of connection points: 3
#     Node 1, Type 0, BuildingBlock: VETTIZ_charged_linker_0, # of connection points: 3
#     Node 2, Type 0, BuildingBlock: VETTIZ_charged_linker_0, # of connection points: 3
#     Node 3, Type 0, BuildingBlock: VETTIZ_charged_linker_0, # of connection points: 3
#     Node 4, Type 0, BuildingBlock: VETTIZ_charged_linker_0, # of connection points: 3
#     Node 5, Type 0, BuildingBlock: VETTIZ_charged_linker_0, # of connection points: 3
#     Node 6, Type 0, BuildingBlock: VETTIZ_charged_linker_0, # of connection points: 3
#     Node 7, Type 0, BuildingBlock: VETTIZ_charged_linker_0, # of connection points: 3
#     Node 8, Type 1, BuildingBlock: BETDIP_clean_sbu_0, # of connection points: 6
#     Node 9, Type 1, BuildingBlock: BETDIP_clean_sbu_0, # of connection points: 6
#     Node 10, Type 1, BuildingBlock: BETDIP_clean_sbu_0, # of connection points: 6
#     Node 11, Type 1, BuildingBlock: BETDIP_clean_sbu_0, # of connection points: 6
#     Edge 12, Type (0, 1), BuildingBlock: UVAHIK_clean_linker_0, # of connection points: 2
#     Edge 13, Type (0, 1), BuildingBlock: UVAHIK_clean_linker_0, # of connection points: 2
#     Edge 14, Type (0, 1), BuildingBlock: UVAHIK_clean_linker_0, # of connection points: 2
#     Edge 15, Type (0, 1), BuildingBlock: UVAHIK_clean_linker_0, # of connection points: 2
#     Edge 16, Type (0, 1), BuildingBlock: UVAHIK_clean_linker_0, # of connection points: 2
#     Edge 17, Type (0, 1), BuildingBlock: UVAHIK_clean_linker_0, # of connection points: 2
#     Edge 18, Type (0, 1), BuildingBlock: UVAHIK_clean_linker_0, # of connection points: 2
#     Edge 19, Type (0, 1), BuildingBlock: UVAHIK_clean_linker_0, # of connection points: 2
#     Edge 20, Type (0, 1), BuildingBlock: UVAHIK_clean_linker_0, # of connection points: 2
#     Edge 21, Type (0, 1), BuildingBlock: UVAHIK_clean_linker_0, # of connection points: 2
#     Edge 22, Type (0, 1), BuildingBlock: UVAHIK_clean_linker_0, # of connection points: 2
#     Edge 23, Type (0, 1), BuildingBlock: UVAHIK_clean_linker_0, # of connection points: 2
#     Edge 24, Type (0, 1), BuildingBlock: UVAHIK_clean_linker_0, # of connection points: 2
#     Edge 25, Type (0, 1), BuildingBlock: UVAHIK_clean_linker_0, # of connection points: 2
#     Edge 26, Type (0, 1), BuildingBlock: UVAHIK_clean_linker_0, # of connection points: 2
#     Edge 27, Type (0, 1), BuildingBlock: UVAHIK_clean_linker_0, # of connection points: 2
#     Edge 28, Type (0, 1), BuildingBlock: UVAHIK_clean_linker_0, # of connection points: 2
#     Edge 29, Type (0, 1), BuildingBlock: UVAHIK_clean_linker_0, # of connection points: 2
#     Edge 30, Type (0, 1), BuildingBlock: UVAHIK_clean_linker_0, # of connection points: 2
#     Edge 31, Type (0, 1), BuildingBlock: UVAHIK_clean_linker_0, # of connection points: 2
#     Edge 32, Type (0, 1), BuildingBlock: UVAHIK_clean_linker_0, # of connection points: 2
#     Edge 33, Type (0, 1), BuildingBlock: UVAHIK_clean_linker_0, # of connection points: 2
#     Edge 34, Type (0, 1), BuildingBlock: UVAHIK_clean_linker_0, # of connection points: 2
#     Edge 35, Type (0, 1), BuildingBlock: UVAHIK_clean_linker_0, # of connection points: 2
# Relax obj value: 0.100
# Max RMSD: 0.184
# Mean RMSD: 0.084
data_MOF--net-pyr--node1-BETDIP_clean_sbu_0--node2-VETTIZ_charged_linker_0--edge1-UVAHIK_clean_linker_0
_symmetry_space_group_name_H-M    P1
_symmetry_Int_Tables_number       1
_symmetry_cell_setting            triclinic
loop_
_symmetry_equiv_pos_as_xyz
'x, y, z'
_cell_length_a     54.368978
_cell_length_b     58.448195
_cell_length_c     57.539564
_cell_angle_alpha  88.986597
_cell_angle_beta   92.65104
_cell_angle_gamma 102.53837
loop_
_atom_site_label
_atom_site_type_symbol
_atom_site_fract_x
_atom_site_fract_y
_atom_site_fract_z
_atom_type_partial_charge
C0 C 0.26853 0.22593 0.27243 0.0
C1 C 0.24773 0.23409 0.27986 0.0
C2 C 0.24082 0.25332 0.26823 0.0
C3 C 0.27391 0.25461 0.24107 0.0
C4 C 0.2813 0.23641 0.25312 0.0
C5 C 0.30323 0.22929 0.24252 0.0
H6 H 0.37912 0.23444 0.15222 0.0
C7 C 0.28992 0.26034 0.2208 0.0
C8 C 0.30724 0.24571 0.22163 0.0
H9 H 0.37804 0.19317 0.21549 0.0
H10 H 0.34672 0.21162 0.23046 0.0
H11 H 0.37644 0.28388 0.17947 0.0
H12 H 0.32016 0.22987 0.14549 0.0
H13 H 0.31365 0.2572 0.13757 0.0
H14 H 0.34286 0.25035 0.12952 0.0
H15 H 0.37445 0.28003 0.1485 0.0
H16 H 0.35577 0.29734 0.16247 0.0
C17 C 0.32603 0.23428 0.26034 0.0
C18 C 0.29468 0.20328 0.23519 0.0
C19 C 0.27106 0.31994 0.16157 0.0
C20 C 0.28057 0.32751 0.13982 0.0
C21 C 0.30014 0.31811 0.13129 0.0
C22 C 0.31019 0.3015 0.14442 0.0
C23 C 0.3003 0.29403 0.16615 0.0
C24 C 0.28103 0.30327 0.17429 0.0
C25 C 0.27192 0.29272 0.19713 0.0
C26 C 0.28924 0.27592 0.20172 0.0
C27 C 0.30586 0.27669 0.18357 0.0
C28 C 0.27646 0.3125 0.21544 0.0
C29 C 0.24395 0.27975 0.19334 0.0
C30 C 0.37237 0.22965 0.16943 0.0
C31 C 0.38074 0.212 0.18252 0.0
C32 C 0.37147 0.20629 0.20484 0.0
C33 C 0.3533 0.21707 0.21355 0.0
C34 C 0.34415 0.23375 0.19984 0.0
C35 C 0.35412 0.24031 0.17846 0.0
C36 C 0.34236 0.25882 0.1667 0.0
C37 C 0.32351 0.26194 0.18445 0.0
C38 C 0.32446 0.24692 0.20363 0.0
C39 C 0.36324 0.28124 0.16391 0.0
C40 C 0.32915 0.24877 0.1435 0.0
H41 H 0.24734 0.2779 0.24049 0.0
H42 H 0.27455 0.21145 0.28132 0.0
H43 H 0.27535 0.19991 0.22688 0.0
H44 H 0.30662 0.19805 0.22219 0.0
H45 H 0.29428 0.1914 0.25052 0.0
H46 H 0.32454 0.24827 0.27274 0.0
H47 H 0.32735 0.21838 0.27076 0.0
H48 H 0.34413 0.24099 0.25194 0.0
H49 H 0.25559 0.32638 0.16834 0.0
H50 H 0.30771 0.32368 0.11452 0.0
H51 H 0.32506 0.29495 0.13707 0.0
H52 H 0.29425 0.32554 0.21235 0.0
H53 H 0.26083 0.32201 0.21466 0.0
H54 H 0.27889 0.30605 0.23338 0.0
H55 H 0.24033 0.27217 0.17558 0.0
H56 H 0.23847 0.26458 0.20514 0.0
H57 H 0.23102 0.29185 0.1953 0.0
H58 H 0.22483 0.25988 0.27363 0.0
C59 C 0.25381 0.26363 0.24889 0.0
C60 C 0.14237 0.81028 0.67198 0.0
C61 C 0.13082 0.82553 0.68422 0.0
C62 C 0.13461 0.82681 0.70865 0.0
C63 C 0.1634 0.80062 0.70776 0.0
C64 C 0.15832 0.79784 0.68413 0.0
C65 C 0.17202 0.78075 0.67404 0.0
H66 H 0.26012 0.71508 0.68892 0.0
C67 C 0.18223 0.78684 0.71492 0.0
C68 C 0.18703 0.77472 0.69538 0.0
H69 H 0.21348 0.72105 0.62708 0.0
H70 H 0.19247 0.7467 0.6474 0.0
H71 H 0.27085 0.76842 0.70238 0.0
H72 H 0.21552 0.70886 0.72494 0.0
H73 H 0.22652 0.72592 0.74967 0.0
H74 H 0.24826 0.71337 0.7339 0.0
H75 H 0.2788 0.74649 0.72176 0.0
H76 H 0.26841 0.77148 0.73239 0.0
C77 C 0.1894 0.79371 0.6552 0.0
C78 C 0.15217 0.75924 0.66495 0.0
C79 C 0.22626 0.80017 0.79475 0.0
C80 C 0.24657 0.79216 0.80557 0.0
C81 C 0.25626 0.77495 0.79435 0.0
C82 C 0.24657 0.76662 0.77235 0.0
C83 C 0.22705 0.77565 0.76132 0.0
C84 C 0.21688 0.79176 0.77275 0.0
C85 C 0.19634 0.79956 0.7584 0.0
C86 C 0.19634 0.78594 0.73616 0.0
C87 C 0.21444 0.77209 0.73794 0.0
C88 C 0.20463 0.82638 0.75444 0.0
C89 C 0.17123 0.79177 0.77102 0.0
C90 C 0.24508 0.72151 0.67979 0.0
C91 C 0.23846 0.7159 0.65633 0.0
C92 C 0.21917 0.72525 0.64507 0.0
C93 C 0.20687 0.74003 0.65693 0.0
C94 C 0.21394 0.7456 0.68031 0.0
C95 C 0.2326 0.73617 0.69137 0.0
C96 C 0.23781 0.74395 0.71619 0.0
C97 C 0.21885 0.75927 0.71841 0.0
C98 C 0.20511 0.76043 0.69728 0.0
C99 C 0.2654 0.75821 0.71855 0.0
C100 C 0.23195 0.72198 0.73216 0.0
H101 H 0.1533 0.81667 0.73888 0.0
H102 H 0.13977 0.80856 0.65328 0.0
H103 H 0.13484 0.75627 0.67514 0.0
H104 H 0.15886 0.74271 0.66686 0.0
H105 H 0.14646 0.76167 0.64644 0.0
H106 H 0.19948 0.8113 0.66145 0.0
H107 H 0.1783 0.79623 0.63903 0.0
H108 H 0.20425 0.78455 0.65075 0.0
H109 H 0.21848 0.81352 0.80273 0.0
H110 H 0.27161 0.76816 0.80245 0.0
H111 H 0.25502 0.75382 0.76458 0.0
H112 H 0.2247 0.83118 0.74964 0.0
H113 H 0.2028 0.83608 0.77048 0.0
H114 H 0.19391 0.83306 0.74014 0.0
H115 H 0.17169 0.77681 0.78314 0.0
H116 H 0.15499 0.78525 0.75877 0.0
H117 H 0.16721 0.80628 0.78141 0.0
H118 H 0.12524 0.83756 0.71876 0.0
C119 C 0.15083 0.81452 0.72041 0.0
C120 C 0.61086 0.276 0.88345 0.0
C121 C 0.58748 0.26253 0.87525 0.0
C122 C 0.57545 0.27091 0.85554 0.0
C123 C 0.60969 0.30547 0.85322 0.0
C124 C 0.62131 0.29725 0.87252 0.0
C125 C 0.64522 0.31386 0.88037 0.0
H126 H 0.7288 0.41698 0.86958 0.0
C127 C 0.62577 0.32838 0.8463 0.0
C128 C 0.64647 0.33331 0.8624 0.0
H129 H 0.72748 0.36317 0.9224 0.0
H130 H 0.69074 0.3394 0.90351 0.0
H131 H 0.66782 0.41377 0.86578 0.0
H132 H 0.71728 0.38207 0.82706 0.0
H133 H 0.69321 0.38645 0.80722 0.0
H134 H 0.7138 0.41144 0.82104 0.0
H135 H 0.69144 0.42987 0.84734 0.0
H136 H 0.66041 0.41653 0.83585 0.0
C137 C 0.64168 0.32229 0.90522 0.0
C138 C 0.66731 0.30118 0.87854 0.0
C139 C 0.60283 0.37346 0.7742 0.0
C140 C 0.61549 0.39413 0.76313 0.0
C141 C 0.63868 0.40642 0.77307 0.0
C142 C 0.64909 0.39847 0.79359 0.0
C143 C 0.63638 0.37783 0.80442 0.0
C144 C 0.61376 0.36548 0.79463 0.0
C145 C 0.6037 0.34328 0.80818 0.0
C146 C 0.62394 0.34445 0.82763 0.0
C147 C 0.64287 0.36497 0.82543 0.0
C148 C 0.57799 0.34491 0.81764 0.0
C149 C 0.60242 0.32215 0.79202 0.0
C150 C 0.72061 0.40003 0.87699 0.0
C151 C 0.73093 0.3922 0.89782 0.0
C152 C 0.71965 0.36996 0.90676 0.0
C153 C 0.69829 0.35606 0.89567 0.0
C154 C 0.68778 0.36432 0.87529 0.0
C155 C 0.69903 0.38586 0.86611 0.0
C156 C 0.6852 0.39149 0.84412 0.0
C157 C 0.66346 0.37008 0.84212 0.0
C158 C 0.66519 0.35429 0.86043 0.0
C159 C 0.67576 0.41418 0.84826 0.0
C160 C 0.7032 0.39314 0.82373 0.0
H161 H 0.57626 0.29763 0.82972 0.0
H162 H 0.62109 0.27021 0.8982 0.0
H163 H 0.66453 0.2899 0.86285 0.0
H164 H 0.68569 0.31337 0.87648 0.0
H165 H 0.66872 0.28977 0.89397 0.0
H166 H 0.62151 0.3219 0.90815 0.0
H167 H 0.64832 0.31099 0.91876 0.0
H168 H 0.65134 0.34074 0.9083 0.0
H169 H 0.58511 0.3635 0.76686 0.0
H170 H 0.6487 0.42243 0.76502 0.0
H171 H 0.66671 0.40875 0.80023 0.0
H172 H 0.57854 0.36294 0.82387 0.0
H173 H 0.56271 0.34069 0.8039 0.0
H174 H 0.57284 0.33335 0.83281 0.0
H175 H 0.61958 0.32475 0.78163 0.0
H176 H 0.60175 0.30556 0.80163 0.0
H177 H 0.58576 0.31996 0.77967 0.0
H178 H 0.55729 0.26127 0.84885 0.0
C179 C 0.58643 0.29219 0.84449 0.0
C180 C 0.90621 0.7642 0.36277 0.0
C181 C 0.89811 0.77488 0.38209 0.0
C182 C 0.87557 0.76347 0.39229 0.0
C183 C 0.87024 0.73121 0.36532 0.0
C184 C 0.89197 0.74233 0.35472 0.0
C185 C 0.89755 0.72796 0.3347 0.0
H186 H 0.86193 0.62972 0.26766 0.0
C187 C 0.85984 0.70873 0.35335 0.0
C188 C 0.8756 0.70657 0.33521 0.0
H189 H 0.92845 0.68534 0.26167 0.0
H190 H 0.91608 0.70519 0.2941 0.0
H191 H 0.86774 0.62591 0.32383 0.0
H192 H 0.8228 0.66237 0.27905 0.0
H193 H 0.80396 0.64792 0.30125 0.0
H194 H 0.81679 0.63095 0.281 0.0
H195 H 0.84085 0.61065 0.30683 0.0
H196 H 0.83766 0.62203 0.3352 0.0
C197 C 0.92319 0.72126 0.34027 0.0
C198 C 0.89678 0.74245 0.31206 0.0
C199 C 0.78057 0.65619 0.38369 0.0
C200 C 0.76559 0.63435 0.37692 0.0
C201 C 0.77277 0.62312 0.35758 0.0
C202 C 0.79425 0.63351 0.34526 0.0
C203 C 0.80892 0.65542 0.35229 0.0
C204 C 0.80185 0.66629 0.37123 0.0
C205 C 0.81928 0.68948 0.37637 0.0
C206 C 0.83824 0.69078 0.35756 0.0
C207 C 0.83221 0.67084 0.34342 0.0
C208 C 0.83158 0.68791 0.40107 0.0
C209 C 0.80383 0.70886 0.37326 0.0
C210 C 0.8741 0.64603 0.27332 0.0
C211 C 0.89625 0.6558 0.26156 0.0
C212 C 0.91103 0.6774 0.26975 0.0
C213 C 0.90393 0.68891 0.28885 0.0
C214 C 0.88182 0.67885 0.30029 0.0
C215 C 0.86742 0.65764 0.29253 0.0
C216 C 0.84491 0.64905 0.30716 0.0
C217 C 0.84791 0.66865 0.32477 0.0
C218 C 0.86957 0.68628 0.32069 0.0
C219 C 0.84766 0.6256 0.31883 0.0
C220 C 0.82073 0.64727 0.2914 0.0
H221 H 0.84498 0.73437 0.39298 0.0
H222 H 0.92338 0.77242 0.35441 0.0
H223 H 0.88043 0.7511 0.3116 0.0
H224 H 0.89432 0.73165 0.29626 0.0
H225 H 0.9142 0.75638 0.31081 0.0
H226 H 0.92508 0.71661 0.35901 0.0
H227 H 0.93911 0.73608 0.33643 0.0
H228 H 0.92535 0.70566 0.33073 0.0
H229 H 0.77604 0.66527 0.39862 0.0
H230 H 0.76156 0.60642 0.35171 0.0
H231 H 0.79855 0.62412 0.33065 0.0
H232 H 0.83515 0.6701 0.40452 0.0
H233 H 0.81914 0.69154 0.41469 0.0
H234 H 0.85028 0.69981 0.40344 0.0
H235 H 0.78782 0.70369 0.3603 0.0
H236 H 0.81498 0.72545 0.36628 0.0
H237 H 0.7958 0.7124 0.38989 0.0
H238 H 0.86834 0.77136 0.40667 0.0
C239 C 0.86178 0.7419 0.38414 0.0
C240 C 0.70878 0.72136 0.90099 0.0
C241 C 0.72602 0.70885 0.89296 0.0
C242 C 0.73441 0.71281 0.87015 0.0
C243 C 0.71043 0.74291 0.86442 0.0
C244 C 0.70092 0.73804 0.88626 0.0
C245 C 0.68226 0.75269 0.89152 0.0
H246 H 0.62784 0.84321 0.86073 0.0
C247 C 0.70011 0.76228 0.85412 0.0
C248 C 0.68309 0.76777 0.86964 0.0
H249 H 0.61492 0.79911 0.92198 0.0
H250 H 0.64278 0.77548 0.90835 0.0
H251 H 0.6265 0.80128 0.82381 0.0
H252 H 0.6849 0.84873 0.86232 0.0
H253 H 0.69777 0.84491 0.83571 0.0
H254 H 0.67032 0.85755 0.83607 0.0
H255 H 0.63558 0.83201 0.81724 0.0
H256 H 0.65107 0.81107 0.80478 0.0
C257 C 0.65608 0.73613 0.89411 0.0
C258 C 0.6923 0.76747 0.91337 0.0
C259 C 0.73866 0.80426 0.782 0.0
C260 C 0.73514 0.82467 0.77023 0.0
C261 C 0.71561 0.83532 0.77668 0.0
C262 C 0.70044 0.82634 0.79513 0.0
C263 C 0.70497 0.80662 0.80749 0.0
C264 C 0.72349 0.79565 0.80062 0.0
C265 C 0.72581 0.77511 0.81608 0.0
C266 C 0.70606 0.77604 0.83372 0.0
C267 C 0.69406 0.79457 0.8286 0.0
C268 C 0.71895 0.75248 0.80133 0.0
C269 C 0.75286 0.7801 0.82736 0.0
C270 C 0.63095 0.82844 0.87121 0.0
C271 C 0.61938 0.82312 0.89252 0.0
C272 C 0.62358 0.80349 0.90544 0.0
C273 C 0.63986 0.78991 0.89757 0.0
C274 C 0.65202 0.79604 0.87658 0.0
C275 C 0.64712 0.81482 0.86365 0.0
C276 C 0.66186 0.81917 0.84202 0.0
C277 C 0.67627 0.79972 0.84385 0.0
C278 C 0.67065 0.78631 0.86419 0.0
C279 C 0.64293 0.81592 0.82073 0.0
C280 C 0.67956 0.84387 0.84386 0.0
H281 H 0.73416 0.7323 0.83886 0.0
H282 H 0.70176 0.71832 0.91834 0.0
H283 H 0.71283 0.77515 0.91231 0.0
H284 H 0.68333 0.78248 0.91537 0.0
H285 H 0.68959 0.75651 0.9294 0.0
H286 H 0.65392 0.72032 0.88307 0.0
H287 H 0.65335 0.73005 0.9124 0.0
H288 H 0.64038 0.74434 0.88815 0.0
H289 H 0.75358 0.79575 0.77745 0.0
H290 H 0.71229 0.85084 0.7676 0.0
H291 H 0.68615 0.83547 0.79938 0.0
H292 H 0.70674 0.75466 0.78574 0.0
H293 H 0.7361 0.74754 0.79508 0.0
H294 H 0.70781 0.73751 0.81101 0.0
H295 H 0.75822 0.7984 0.83388 0.0
H296 H 0.75499 0.76883 0.84253 0.0
H297 H 0.76681 0.77792 0.81453 0.0
H298 H 0.74775 0.70338 0.86367 0.0
C299 C 0.7267 0.72975 0.85585 0.0
C300 C 0.86259 0.24342 0.38817 0.0
C301 C 0.87298 0.22689 0.37673 0.0
C302 C 0.8687 0.22411 0.35252 0.0
C303 C 0.84212 0.25245 0.35183 0.0
C304 C 0.8475 0.25619 0.37534 0.0
C305 C 0.83508 0.27463 0.38456 0.0
H306 H 0.75272 0.34558 0.3661 0.0
C307 C 0.82448 0.26721 0.34391 0.0
C308 C 0.82067 0.28066 0.36287 0.0
H309 H 0.79635 0.33774 0.42935 0.0
H310 H 0.81646 0.31068 0.41 0.0
H311 H 0.73798 0.29386 0.35468 0.0
H312 H 0.7985 0.34757 0.33023 0.0
H313 H 0.78506 0.33055 0.30606 0.0
H314 H 0.76593 0.34596 0.32197 0.0
H315 H 0.73292 0.31413 0.33215 0.0
H316 H 0.74143 0.28681 0.32575 0.0
C317 C 0.81717 0.26324 0.40371 0.0
C318 C 0.856 0.29565 0.39296 0.0
C319 C 0.77912 0.25272 0.26471 0.0
C320 C 0.75898 0.26112 0.25398 0.0
C321 C 0.75119 0.27996 0.26422 0.0
C322 C 0.76225 0.28931 0.28543 0.0
C323 C 0.78113 0.27959 0.29672 0.0
C324 C 0.7897 0.262 0.28607 0.0
C325 C 0.80945 0.25339 0.30085 0.0
C326 C 0.81067 0.2682 0.32248 0.0
C327 C 0.794 0.28342 0.31996 0.0
C328 C 0.79936 0.22696 0.30592 0.0
C329 C 0.83456 0.25904 0.28805 0.0
C330 C 0.76703 0.33851 0.3757 0.0
C331 C 0.77307 0.34397 0.39925 0.0
C332 C 0.79126 0.33373 0.41122 0.0
C333 C 0.80296 0.31808 0.39994 0.0
C334 C 0.79624 0.31245 0.37649 0.0
C335 C 0.77873 0.32284 0.36476 0.0
C336 C 0.77318 0.31438 0.3402 0.0
C337 C 0.79063 0.2975 0.33888 0.0
C338 C 0.80398 0.29625 0.3602 0.0
C339 C 0.74494 0.30176 0.33783 0.0
C340 C 0.78085 0.33564 0.32359 0.0
H341 H 0.85036 0.23358 0.32171 0.0
H342 H 0.866 0.24618 0.40671 0.0
H343 H 0.87287 0.29774 0.38223 0.0
H344 H 0.85013 0.31256 0.39116 0.0
H345 H 0.86218 0.2932 0.41133 0.0
H346 H 0.80664 0.24547 0.39835 0.0
H347 H 0.82791 0.26132 0.42027 0.0
H348 H 0.8026 0.27309 0.40716 0.0
H349 H 0.7859 0.23857 0.25708 0.0
H350 H 0.73567 0.28674 0.25644 0.0
H351 H 0.75498 0.30317 0.29264 0.0
H352 H 0.77924 0.2236 0.31057 0.0
H353 H 0.80054 0.21626 0.29042 0.0
H354 H 0.80933 0.22022 0.32072 0.0
H355 H 0.83544 0.27426 0.27599 0.0
H356 H 0.85119 0.26428 0.30016 0.0
H357 H 0.83686 0.24391 0.27759 0.0
H358 H 0.87653 0.21148 0.34339 0.0
C359 C 0.85336 0.23682 0.34001 0.0
C360 C 0.40007 0.66845 0.28897 0.0
C361 C 0.38762 0.64771 0.30001 0.0
C362 C 0.36433 0.6354 0.29031 0.0
C363 C 0.3663 0.66401 0.25897 0.0
C364 C 0.3889 0.67645 0.2687 0.0
C365 C 0.39868 0.69881 0.25534 0.0
H366 H 0.38084 0.77256 0.16605 0.0
C367 C 0.35967 0.67687 0.23801 0.0
C368 C 0.37842 0.69754 0.23593 0.0
H369 H 0.44336 0.78225 0.21659 0.0
H370 H 0.42548 0.74476 0.23453 0.0
H371 H 0.33664 0.75119 0.20098 0.0
H372 H 0.38143 0.72126 0.1556 0.0
H373 H 0.35208 0.7016 0.1552 0.0
H374 H 0.35409 0.7313 0.14492 0.0
H375 H 0.33324 0.75211 0.16982 0.0
H376 H 0.31621 0.72784 0.18645 0.0
C377 C 0.39962 0.71973 0.2717 0.0
C378 C 0.4245 0.6976 0.24582 0.0
C379 C 0.28267 0.64121 0.18584 0.0
C380 C 0.27252 0.64892 0.16487 0.0
C381 C 0.28373 0.67118 0.15595 0.0
C382 C 0.30484 0.68526 0.16723 0.0
C383 C 0.31515 0.67715 0.18779 0.0
C384 C 0.30402 0.65555 0.1969 0.0
C385 C 0.31771 0.65004 0.21902 0.0
C386 C 0.33923 0.67161 0.22118 0.0
C387 C 0.33747 0.68739 0.20286 0.0
C388 C 0.29947 0.64819 0.23924 0.0
C389 C 0.32746 0.6275 0.21503 0.0
C390 C 0.39053 0.76678 0.18118 0.0
C391 C 0.41333 0.78056 0.19012 0.0
C392 C 0.42572 0.77199 0.20941 0.0
C393 C 0.41524 0.75027 0.21984 0.0
C394 C 0.39222 0.7368 0.21078 0.0
C395 C 0.38052 0.74511 0.19156 0.0
C396 C 0.35699 0.72819 0.1833 0.0
C397 C 0.35593 0.70858 0.20109 0.0
C398 C 0.37647 0.71363 0.21733 0.0
C399 C 0.33449 0.74035 0.185 0.0
C400 C 0.3611 0.72019 0.15844 0.0
H401 H 0.33605 0.63304 0.26334 0.0
H402 H 0.41783 0.67843 0.29621 0.0
H403 H 0.42424 0.67965 0.23952 0.0
H404 H 0.42946 0.70926 0.23068 0.0
H405 H 0.43977 0.70197 0.25955 0.0
H406 H 0.38264 0.71663 0.28238 0.0
H407 H 0.4165 0.72228 0.2838 0.0
H408 H 0.39956 0.73629 0.26225 0.0
H409 H 0.27453 0.62423 0.19321 0.0
H410 H 0.27603 0.67785 0.14018 0.0
H411 H 0.31235 0.70194 0.1594 0.0
H412 H 0.28532 0.65916 0.2358 0.0
H413 H 0.28898 0.62985 0.24182 0.0
H414 H 0.30927 0.65489 0.25583 0.0
H415 H 0.33584 0.6281 0.19769 0.0
H416 H 0.34254 0.62515 0.22774 0.0
H417 H 0.31185 0.61172 0.2156 0.0
H418 H 0.35446 0.61938 0.29845 0.0
C419 C 0.35371 0.64334 0.26987 0.0
C420 C 0.09509 0.27588 0.69795 0.0
C421 C 0.1038 0.26463 0.67938 0.0
C422 C 0.12557 0.27647 0.6683 0.0
C423 C 0.13005 0.3096 0.69414 0.0
C424 C 0.10867 0.29828 0.70516 0.0
C425 C 0.10298 0.31279 0.725 0.0
H426 H 0.13813 0.41148 0.79132 0.0
C427 C 0.14014 0.33236 0.70571 0.0
C428 C 0.12453 0.33446 0.72401 0.0
H429 H 0.07208 0.35546 0.79794 0.0
H430 H 0.08427 0.3357 0.76535 0.0
H431 H 0.13156 0.41518 0.73529 0.0
H432 H 0.17743 0.37929 0.77962 0.0
H433 H 0.19593 0.39365 0.75718 0.0
H434 H 0.18321 0.41069 0.77746 0.0
H435 H 0.15871 0.43065 0.75183 0.0
H436 H 0.16139 0.41914 0.7234 0.0
C437 C 0.07705 0.31892 0.7195 0.0
C438 C 0.10433 0.29874 0.74786 0.0
C439 C 0.21871 0.38555 0.67468 0.0
C440 C 0.23348 0.40752 0.68135 0.0
C441 C 0.22627 0.41868 0.70072 0.0
C442 C 0.20496 0.40812 0.71315 0.0
C443 C 0.19049 0.3861 0.70622 0.0
C444 C 0.19758 0.37527 0.68726 0.0
C445 C 0.18037 0.3519 0.68233 0.0
C446 C 0.16153 0.35048 0.70126 0.0
C447 C 0.16744 0.37052 0.71528 0.0
C448 C 0.16781 0.35314 0.65771 0.0
C449 C 0.19616 0.33277 0.68541 0.0
C450 C 0.12602 0.3951 0.78577 0.0
C451 C 0.10408 0.38518 0.79775 0.0
C452 C 0.08936 0.36351 0.78968 0.0
C453 C 0.09635 0.35204 0.7705 0.0
C454 C 0.1183 0.36222 0.75887 0.0
C455 C 0.13259 0.38354 0.76648 0.0
C456 C 0.15488 0.39227 0.75163 0.0
C457 C 0.15187 0.37264 0.73406 0.0
C458 C 0.13043 0.35486 0.73837 0.0
C459 C 0.15175 0.41562 0.73996 0.0
C460 C 0.17925 0.39429 0.76717 0.0
H461 H 0.15493 0.30655 0.66611 0.0
H462 H 0.07845 0.26728 0.70689 0.0
H463 H 0.12087 0.29036 0.74829 0.0
H464 H 0.10684 0.3098 0.76348 0.0
H465 H 0.08711 0.28464 0.74949 0.0
H466 H 0.07483 0.32317 0.7007 0.0
H467 H 0.06143 0.30395 0.72371 0.0
H468 H 0.07467 0.33459 0.7288 0.0
H469 H 0.22328 0.3765 0.65974 0.0
H470 H 0.23734 0.43546 0.70652 0.0
H471 H 0.20063 0.41748 0.72778 0.0
H472 H 0.16371 0.37077 0.6543 0.0
H473 H 0.18032 0.34983 0.64401 0.0
H474 H 0.14934 0.34084 0.65546 0.0
H475 H 0.21223 0.33818 0.69827 0.0
H476 H 0.18526 0.31613 0.69252 0.0
H477 H 0.20413 0.32927 0.66875 0.0
H478 H 0.13248 0.26856 0.65375 0.0
C479 C 0.1386 0.29871 0.67547 0.0
Tb480 Tb 0.97309 1.01172 0.53215 0.0
Tb481 Tb 0.02601 0.03293 0.52127 0.0
C482 C 0.93174 0.98373 0.5386 0.0
C483 C 0.92089 0.96827 0.55753 0.0
C484 C 0.89895 0.95107 0.55306 0.0
C485 C 0.88745 0.93716 0.57119 0.0
C486 C 0.8977 0.94036 0.59409 0.0
C487 C 0.92015 0.9572 0.59838 0.0
C488 C 0.93172 0.971 0.58019 0.0
C489 C 0.99348 0.04976 0.55639 0.0
C490 C 0.01826 0.99338 0.55841 0.0
C491 C 0.06734 0.06094 0.51488 0.0
C492 C 0.07788 0.07698 0.49624 0.0
C493 C 0.09904 0.09492 0.50116 0.0
C494 C 0.11016 0.10956 0.48335 0.0
C495 C 0.10032 0.10634 0.46032 0.0
C496 C 0.07866 0.0887 0.45558 0.0
C497 C 0.06744 0.07419 0.47344 0.0
C498 C 0.0056 0.9948 0.49714 0.0
C499 C 0.9808 0.0512 0.49499 0.0
O500 O 0.95046 0.97788 0.52842 0.0
O501 O 0.93599 1.00618 0.54282 0.0
O502 O 0.00435 0.03373 0.55099 0.0
O503 O 0.96987 0.04363 0.55002 0.0
O504 O 0.99397 0.98926 0.55224 0.0
O505 O 0.03417 1.01221 0.55106 0.0
O506 O 0.04894 0.06655 0.52578 0.0
O507 O 0.06286 0.03863 0.50995 0.0
O508 O 0.99479 1.01089 0.50248 0.0
O509 O 0.02921 1.00093 0.50353 0.0
O510 O 0.00508 0.05543 0.50127 0.0
O511 O 0.96498 0.03226 0.50222 0.0
H512 H 0.89042 0.94875 0.53563 0.0
H513 H 0.87004 0.9245 0.56742 0.0
H514 H 0.92858 0.95985 0.61581 0.0
H515 H 0.94882 0.98411 0.58387 0.0
H516 H 0.10725 0.09731 0.51871 0.0
H517 H 0.12696 0.12287 0.48745 0.0
H518 H 0.07054 0.08603 0.43803 0.0
H519 H 0.0509 0.06054 0.46941 0.0
Tb520 Tb 0.53197 0.03097 0.03711 0.0
Tb521 Tb 0.47309 1.01201 0.03015 0.0
C522 C 0.57665 0.05394 0.04064 0.0
C523 C 0.59072 0.07629 0.05016 0.0
C524 C 0.57845 0.09382 0.05668 0.0
C525 C 0.59173 0.11315 0.06943 0.0
C526 C 0.61734 0.11497 0.0759 0.0
C527 C 0.6298 0.09804 0.06808 0.0
C528 C 0.61657 0.07886 0.05534 0.0
C529 C 0.51179 0.99207 0.05956 0.0
C530 C 0.49366 0.05381 0.06437 0.0
C531 C 0.43002 0.98627 0.03308 0.0
C532 C 0.41163 0.97224 1.01668 0.0
C533 C 0.39223 0.95474 1.02518 0.0
C534 C 0.37605 0.93968 1.00979 0.0
C535 C 0.37907 0.94193 0.98566 0.0
C536 C 0.39825 0.9599 0.97721 0.0
C537 C 0.41449 0.97488 0.99262 0.0
C538 C 0.49115 0.04632 1.00008 0.0
C539 C 0.51148 0.99243 0.99981 0.0
O540 O 0.56179 0.05473 1.02214 0.0
O541 O 0.56627 0.03869 0.05621 0.0
O542 O 0.50205 1.00959 0.05597 0.0
O543 O 0.53421 0.99652 0.0515 0.0
O544 O 0.51656 0.05631 0.05625 0.0
O545 O 0.4748 0.03594 0.05888 0.0
O546 O 0.45096 0.97877 0.03654 0.0
O547 O 0.43401 1.00913 0.03043 0.0
O548 O 0.50204 0.03673 1.01575 0.0
O549 O 0.46761 0.03547 1.00007 0.0
O550 O 0.48886 0.98875 1.00872 0.0
O551 O 0.53021 1.01013 1.00603 0.0
H552 H 0.55846 0.09206 0.0528 0.0
H553 H 0.58167 0.1259 0.07533 0.0
H554 H 0.64959 0.09919 0.07259 0.0
H555 H 0.6263 0.06545 0.05043 0.0
H556 H 0.38993 0.9524 0.04373 0.0
H557 H 0.3613 0.92614 1.01678 0.0
H558 H 0.40124 0.96187 0.95873 0.0
H559 H 0.42965 0.98813 0.98582 0.0
Tb560 Tb 0.50236 0.54506 0.54216 0.0
Tb561 Tb 0.49968 0.4985 0.52128 0.0
C562 C 0.49264 0.58293 0.55487 0.0
C563 C 0.4694 0.5906 0.56014 0.0
C564 C 0.44802 0.5861 0.5448 0.0
C565 C 0.42624 0.59362 0.55014 0.0
C566 C 0.42532 0.60546 0.57101 0.0
C567 C 0.44661 0.60968 0.58643 0.0
C568 C 0.46848 0.6024 0.58098 0.0
C569 C 0.52667 0.51764 0.56682 0.0
C570 C 0.45412 0.50341 0.5496 0.0
C571 C 0.50965 0.46059 0.50903 0.0
C572 C 0.53257 0.45353 0.50165 0.0
C573 C 0.55419 0.45575 0.51656 0.0
C574 C 0.57566 0.44893 0.50921 0.0
C575 C 0.57605 0.43989 0.48677 0.0
C576 C 0.55445 0.43793 0.47184 0.0
C577 C 0.53292 0.44455 0.47926 0.0
C578 C 0.47528 0.52587 0.49659 0.0
C579 C 0.5477 0.54034 0.51317 0.0
O580 O 0.49518 0.57791 0.53317 0.0
O581 O 0.4994 0.56771 0.56936 0.0
O582 O 0.50572 0.51151 0.55584 0.0
O583 O 0.53418 0.54021 0.56506 0.0
O584 O 0.46327 0.52633 0.54815 0.0
O585 O 0.46672 0.4883 0.54201 0.0
O586 O 0.50952 0.46681 0.53075 0.0
O587 O 0.50023 0.47443 0.49473 0.0
O588 O 0.49622 0.53201 0.5076 0.0
O589 O 0.46791 0.50327 0.49828 0.0
O590 O 0.53835 0.51743 0.51407 0.0
O591 O 0.53548 0.55538 0.52156 0.0
H592 H 0.4481 0.57679 0.5287 0.0
H593 H 0.41001 0.58995 0.53807 0.0
H594 H 0.44648 0.61896 0.60254 0.0
H595 H 0.48472 0.606 0.59305 0.0
H596 H 0.55456 0.46267 0.53394 0.0
H597 H 0.59179 0.45041 0.52129 0.0
H598 H 0.5542 0.43145 0.4543 0.0
H599 H 0.51654 0.44276 0.46743 0.0
Tb600 Tb 0.999 0.54029 1.01511 0.0
Tb601 Tb 0.00543 0.50058 0.04663 0.0
C602 C 0.98255 0.57075 0.99154 0.0
C603 C 0.96089 0.58204 0.99184 0.0
C604 C 0.93668 0.56917 0.99673 0.0
C605 C 0.91593 0.5797 0.9944 0.0
C606 C 0.91906 0.60328 0.98732 0.0
C607 C 0.94358 0.61639 0.98376 0.0
C608 C 0.96427 0.60581 0.98591 0.0
C609 C 0.04471 0.5442 0.0346 0.0
C610 C 0.98057 0.5385 0.06735 0.0
C611 C 0.02287 0.4711 0.07101 0.0
C612 C 0.04471 0.46015 0.07052 0.0
C613 C 0.06144 0.46486 0.05232 0.0
C614 C 0.08306 0.45553 0.05285 0.0
C615 C 0.08847 0.44172 0.07184 0.0
C616 C 0.07152 0.43687 0.08992 0.0
C617 C 0.04976 0.44597 0.08921 0.0
C618 C 0.95966 0.49656 1.02723 0.0
C619 C 0.0227 0.50204 0.9938 0.0
O620 O 0.9774 0.54843 0.98645 0.0
O621 O 0.9995 0.57589 1.00861 0.0
O622 O 0.02407 0.5363 0.04384 0.0
O623 O 0.04015 0.55182 1.01391 0.0
O624 O 0.97724 0.54535 0.04551 0.0
O625 O 0.9936 0.52228 0.0724 0.0
O626 O 0.02831 0.49363 0.07494 0.0
O627 O 0.00549 0.46534 0.05437 0.0
O628 O 0.98029 0.50455 1.01799 0.0
O629 O 0.96429 0.48869 0.04783 0.0
O630 O 0.02611 0.49503 1.01559 0.0
O631 O 0.00999 0.51852 0.98899 0.0
H632 H 0.93367 0.5508 1.00157 0.0
H633 H 0.89733 0.56904 0.99712 0.0
H634 H 0.94673 0.63471 0.97878 0.0
H635 H 0.98285 0.61606 0.98231 0.0
H636 H 0.05814 0.47616 0.038 0.0
H637 H 0.09595 0.45974 0.03883 0.0
H638 H 0.07518 0.42614 0.10468 0.0
H639 H 0.03711 0.44229 0.10347 0.0
C640 C 0.22547 0.19724 0.29907 0.0
C641 C 0.23257 0.22181 0.29888 0.0
C642 C 0.21081 0.18546 0.31664 0.0
C643 C 0.16783 0.194 0.36227 0.0
H644 H 0.18141 0.13518 0.38581 0.0
C645 C 0.12228 0.14484 0.44345 0.0
C646 C 0.11348 0.1205 0.44119 0.0
C647 C 0.13606 0.15786 0.42592 0.0
C648 C 0.17727 0.15149 0.37926 0.0
H649 H 0.23006 0.25336 0.31696 0.0
H650 H 0.2048 0.23275 0.34808 0.0
H651 H 0.20764 0.1569 0.35612 0.0
H652 H 0.112 0.09073 0.41881 0.0
H653 H 0.13609 0.11348 0.38821 0.0
H654 H 0.13766 0.18861 0.38586 0.0
C655 C 0.21017 0.22259 0.33437 0.0
C656 C 0.19225 0.16392 0.36221 0.0
C657 C 0.22469 0.2344 0.31663 0.0
C658 C 0.11836 0.10949 0.42093 0.0
C659 C 0.13234 0.12246 0.40353 0.0
C660 C 0.15297 0.18163 0.37951 0.0
C661 C 0.20305 0.19796 0.33458 0.0
C662 C 0.18758 0.18523 0.35334 0.0
C663 C 0.14153 0.14672 0.40596 0.0
C664 C 0.15743 0.16016 0.388 0.0
H665 H 0.23088 0.18711 0.28535 0.0
H666 H 0.20523 0.16652 0.31594 0.0
H667 H 0.16349 0.21018 0.35561 0.0
H668 H 0.11863 0.15376 0.45884 0.0
H669 H 0.14303 0.17653 0.42825 0.0
C670 C 0.28516 0.80886 0.83047 0.0
C671 C 0.25872 0.80307 0.82752 0.0
C672 C 0.29675 0.8215 0.84986 0.0
C673 C 0.28546 0.86395 0.89175 0.0
H674 H 0.34581 0.85182 0.92363 0.0
C675 C 0.35314 0.93277 0.94843 0.0
C676 C 0.36299 0.92501 0.9694 0.0
C677 C 0.33885 0.9167 0.93272 0.0
C678 C 0.32883 0.8553 0.91505 0.0
H679 H 0.22375 0.80492 0.84333 0.0
H680 H 0.24406 0.8272 0.87712 0.0
H681 H 0.3236 0.82463 0.89398 0.0
H682 H 0.36557 0.89435 0.99036 0.0
H683 H 0.34045 0.86628 0.96296 0.0
H684 H 0.2908 0.89473 0.91266 0.0
C685 C 0.25576 0.82219 0.86422 0.0
C686 C 0.31625 0.83985 0.89795 0.0
C687 C 0.24415 0.80945 0.84488 0.0
C688 C 0.35802 0.90087 0.97444 0.0
C689 C 0.34386 0.88478 0.95867 0.0
C690 C 0.29812 0.87948 0.90874 0.0
C691 C 0.28218 0.82871 0.8667 0.0
C692 C 0.29456 0.84412 0.88599 0.0
C693 C 0.33424 0.89252 0.93759 0.0
C694 C 0.32006 0.87543 0.92041 0.0
H695 H 0.29696 0.80456 0.81728 0.0
H696 H 0.31715 0.82649 0.85114 0.0
H697 H 0.26894 0.86785 0.88266 0.0
H698 H 0.35652 0.95128 0.94416 0.0
H699 H 0.33188 0.92317 0.91652 0.0
C700 C 0.62047 0.40982 0.7223 0.0
C701 C 0.60503 0.40318 0.74127 0.0
C702 C 0.6116 0.42021 0.70242 0.0
C703 C 0.55296 0.43274 0.67237 0.0
H704 H 0.60161 0.48013 0.64098 0.0
C705 C 0.52491 0.47944 0.58832 0.0
C706 C 0.53646 0.50316 0.58504 0.0
C707 C 0.53339 0.46623 0.60639 0.0
C708 C 0.5876 0.46716 0.6496 0.0
H709 H 0.56797 0.40191 0.75407 0.0
H710 H 0.55262 0.42075 0.71976 0.0
H711 H 0.61526 0.45955 0.67436 0.0
H712 H 0.56598 0.5316 0.59821 0.0
H713 H 0.58022 0.50904 0.63003 0.0
H714 H 0.52506 0.44131 0.64828 0.0
C715 C 0.57145 0.41745 0.71987 0.0
C716 C 0.59558 0.45494 0.66865 0.0
C717 C 0.58024 0.40667 0.73965 0.0
C718 C 0.55677 0.51332 0.60015 0.0
C719 C 0.56506 0.50024 0.61837 0.0
C720 C 0.54491 0.44519 0.65345 0.0
C721 C 0.58713 0.4247 0.70103 0.0
C722 C 0.57843 0.43749 0.68039 0.0
C723 C 0.55348 0.47647 0.62188 0.0
C724 C 0.5621 0.46267 0.64177 0.0
H725 H 0.63957 0.40707 0.7229 0.0
H726 H 0.62411 0.4248 0.68817 0.0
H727 H 0.53913 0.41929 0.68061 0.0
H728 H 0.50909 0.47112 0.5771 0.0
H729 H 0.52417 0.44795 0.60813 0.0
C730 C 0.91721 0.65629 0.22281 0.0
C731 C 0.904 0.64353 0.2411 0.0
C732 C 0.92468 0.64485 0.20392 0.0
C733 C 0.93332 0.58572 0.18517 0.0
H734 H 0.93873 0.61548 0.12439 0.0
C735 C 0.97856 0.54685 0.10998 0.0
C736 C 0.97031 0.54982 0.08679 0.0
C737 C 0.96992 0.55807 0.12832 0.0
C738 C 0.93706 0.60665 0.14111 0.0
H739 H 0.88856 0.60819 0.25332 0.0
H740 H 0.90027 0.5885 0.22017 0.0
H741 H 0.92415 0.63479 0.15644 0.0
H742 H 0.94603 0.5669 0.06495 0.0
H743 H 0.93021 0.58577 0.0969 0.0
H744 H 0.94514 0.55712 0.16968 0.0
C745 C 0.90552 0.60744 0.2206 0.0
C746 C 0.92904 0.61802 0.15977 0.0
C747 C 0.89833 0.61887 0.23962 0.0
C748 C 0.95289 0.56421 0.08254 0.0
C749 C 0.94396 0.57524 0.10097 0.0
C750 C 0.94105 0.57424 0.16648 0.0
C751 C 0.91897 0.62018 0.20242 0.0
C752 C 0.92715 0.60784 0.18222 0.0
C753 C 0.9524 0.57246 0.12423 0.0
C754 C 0.94328 0.58454 0.1441 0.0
H755 H 0.92171 0.67526 0.22286 0.0
H756 H 0.93526 0.65549 0.19063 0.0
H757 H 0.93257 0.57724 0.20207 0.0
H758 H 0.99219 0.53615 0.11401 0.0
H759 H 0.97747 0.55575 0.14572 0.0
C760 C 0.39288 0.17398 0.17555 0.0
C761 C 0.39781 0.19843 0.17261 0.0
C762 C 0.40842 0.16081 0.16614 0.0
C763 C 0.45293 0.16165 0.11997 0.0
H764 H 0.46467 0.10626 0.15294 0.0
C765 C 0.50315 0.0949 0.07942 0.0
C766 C 0.48865 0.07185 0.08001 0.0
C767 C 0.49689 0.11237 0.09284 0.0
C768 C 0.46165 0.12174 0.14359 0.0
H769 H 0.42302 0.2283 0.15752 0.0
H770 H 0.45042 0.20516 0.14099 0.0
H771 H 0.44506 0.13387 0.17262 0.0
H772 H 0.45693 0.0488 0.09575 0.0
H773 H 0.44626 0.07914 0.11936 0.0
H774 H 0.46917 0.14914 0.09078 0.0
C775 C 0.43436 0.19622 0.15052 0.0
C776 C 0.45034 0.1375 0.15479 0.0
C777 C 0.41868 0.20946 0.15995 0.0
C778 C 0.46838 0.06642 0.09486 0.0
C779 C 0.46239 0.08375 0.1085 0.0
C780 C 0.46447 0.14595 0.10881 0.0
C781 C 0.42938 0.17173 0.15355 0.0
C782 C 0.44504 0.1572 0.14286 0.0
C783 C 0.47632 0.10695 0.10737 0.0
C784 C 0.46816 0.12547 0.1203 0.0
H785 H 0.3766 0.16487 0.18472 0.0
H786 H 0.40359 0.14194 0.16827 0.0
H787 H 0.44899 0.17657 0.11023 0.0
H788 H 0.51878 0.09963 0.06801 0.0
H789 H 0.50794 0.13013 0.09171 0.0
C790 C 0.11675 0.86365 0.67991 0.0
C791 C 0.11586 0.84089 0.67174 0.0
C792 C 0.10338 0.87845 0.66812 0.0
C793 C 0.08055 0.89191 0.61082 0.0
H794 H 0.03945 0.92656 0.64328 0.0
C795 C 0.0537 0.97569 0.57371 0.0
C796 C 0.02794 0.97611 0.57324 0.0
C797 C 0.06264 0.95808 0.5859 0.0
C798 C 0.05075 0.91689 0.63401 0.0
H799 H 0.09976 0.81595 0.64466 0.0
H800 H 0.07721 0.84236 0.62353 0.0
H801 H 0.05768 0.89688 0.66427 0.0
H802 H 0.99146 0.95884 0.58577 0.0
H803 H 0.00737 0.92837 0.60769 0.0
H804 H 0.07433 0.91244 0.58076 0.0
C805 C 0.08817 0.84845 0.63929 0.0
C806 C 0.06122 0.90002 0.64599 0.0
C807 C 0.10123 0.83342 0.65133 0.0
C808 C 0.01141 0.95896 0.5858 0.0
C809 C 0.02047 0.94156 0.59835 0.0
C810 C 0.07046 0.90905 0.59895 0.0
C811 C 0.08915 0.87109 0.64761 0.0
C812 C 0.07637 0.88753 0.63453 0.0
C813 C 0.0461 0.94077 0.59817 0.0
C814 C 0.05567 0.92183 0.6105 0.0
H815 H 0.12831 0.87037 0.69514 0.0
H816 H 0.10479 0.89598 0.67466 0.0
H817 H 0.09232 0.88262 0.60166 0.0
H818 H 0.06688 0.98857 0.5641 0.0
H819 H 0.08253 0.95797 0.58571 0.0
C820 C 0.77415 0.41917 0.89871 0.0
C821 C 0.7532 0.40685 0.91056 0.0
C822 C 0.79579 0.43126 0.9111 0.0
C823 C 0.82857 0.4311 0.96879 0.0
H824 H 0.86771 0.49158 0.94985 0.0
C825 C 0.9133 0.4792 1.02565 0.0
C826 C 0.93506 0.49009 1.0142 0.0
C827 C 0.8905 0.47115 1.01306 0.0
C828 C 0.85713 0.47458 0.95527 0.0
H829 H 0.73802 0.39893 0.9447 0.0
H830 H 0.77553 0.41985 0.96616 0.0
H831 H 0.82927 0.47363 0.9274 0.0
H832 H 0.94987 0.5018 0.98068 0.0
H833 H 0.91022 0.4875 0.95862 0.0
H834 H 0.85643 0.43169 0.99634 0.0
C835 C 0.77557 0.41973 0.94734 0.0
C836 C 0.83508 0.4643 0.94239 0.0
C837 C 0.75403 0.40772 0.935 0.0
C838 C 0.93337 0.49351 0.98999 0.0
C839 C 0.91058 0.48538 0.97736 0.0
C840 C 0.85059 0.44129 0.98158 0.0
C841 C 0.79692 0.43129 0.93561 0.0
C842 C 0.82047 0.44245 0.94905 0.0
C843 C 0.88893 0.47369 0.98867 0.0
C844 C 0.86517 0.46321 0.97508 0.0
H845 H 0.77419 0.41878 0.8799 0.0
H846 H 0.81195 0.43989 0.90152 0.0
H847 H 0.8181 0.41403 0.97417 0.0
H848 H 0.91401 0.47651 0.04432 0.0
H849 H 0.87412 0.46272 1.02245 0.0
C850 C 0.73616 0.59931 0.39446 0.0
C851 C 0.74267 0.6236 0.39003 0.0
C852 C 0.71518 0.58955 0.40753 0.0
C853 C 0.65581 0.60258 0.42893 0.0
H854 H 0.65958 0.55248 0.47312 0.0
C855 C 0.58013 0.57354 0.49703 0.0
C856 C 0.57147 0.54934 0.50086 0.0
C857 C 0.60125 0.58198 0.4838 0.0
C858 C 0.65811 0.56632 0.46071 0.0
H859 H 0.73146 0.65647 0.39551 0.0
H860 H 0.69561 0.6397 0.41864 0.0
H861 H 0.69537 0.56806 0.44908 0.0
H862 H 0.57889 0.5151 0.49412 0.0
H863 H 0.61576 0.52986 0.47113 0.0
H864 H 0.61869 0.60101 0.4407 0.0
C865 C 0.70649 0.62804 0.41186 0.0
C866 C 0.67865 0.57525 0.44684 0.0
C867 C 0.72737 0.63776 0.39879 0.0
C868 C 0.58497 0.53385 0.49159 0.0
C869 C 0.60621 0.54233 0.47844 0.0
C870 C 0.63537 0.59375 0.44285 0.0
C871 C 0.70008 0.6038 0.41652 0.0
C872 C 0.67788 0.59363 0.43083 0.0
C873 C 0.61443 0.5665 0.47408 0.0
C874 C 0.63625 0.57559 0.45905 0.0
H875 H 0.74754 0.58783 0.3882 0.0
H876 H 0.71074 0.57079 0.41047 0.0
H877 H 0.65418 0.61635 0.4165 0.0
H878 H 0.5703 0.58603 0.50388 0.0
H879 H 0.60725 0.60072 0.48117 0.0
C880 C 0.26356 0.36387 0.13701 0.0
C881 C 0.26906 0.34443 0.12603 0.0
C882 C 0.24888 0.37767 0.12545 0.0
C883 C 0.19858 0.37207 0.08015 0.0
H884 H 0.20379 0.43761 0.09436 0.0
C885 C 0.1198 0.42192 0.05438 0.0
C886 C 0.11221 0.43317 0.07332 0.0
C887 C 0.14196 0.41337 0.05623 0.0
C888 C 0.20217 0.41934 0.09014 0.0
H889 H 0.26492 0.32504 0.09383 0.0
H890 H 0.23944 0.34948 0.07334 0.0
H891 H 0.23901 0.41916 0.10478 0.0
H892 H 0.12213 0.44506 0.10866 0.0
H893 H 0.1608 0.43027 0.11186 0.0
H894 H 0.16144 0.37219 0.06604 0.0
C895 C 0.24621 0.35381 0.09106 0.0
C896 C 0.22229 0.40876 0.09612 0.0
C897 C 0.26099 0.33997 0.10268 0.0
C898 C 0.12743 0.43623 0.09389 0.0
C899 C 0.14968 0.42801 0.09562 0.0
C900 C 0.17853 0.38273 0.07398 0.0
C901 C 0.23938 0.37241 0.10257 0.0
C902 C 0.22036 0.38477 0.092 0.0
C903 C 0.15708 0.41633 0.07689 0.0
C904 C 0.1798 0.40623 0.07968 0.0
H905 H 0.26977 0.36784 0.15494 0.0
H906 H 0.24383 0.39166 0.13499 0.0
H907 H 0.19632 0.35352 0.07691 0.0
H908 H 0.10834 0.41931 0.03835 0.0
H909 H 0.14726 0.40444 0.04154 0.0
C910 C 0.57971 0.23778 0.91175 0.0
C911 C 0.57586 0.24016 0.88752 0.0
C912 C 0.57018 0.21665 0.92324 0.0
C913 C 0.54354 0.15271 0.91245 0.0
H914 H 0.52646 0.15368 0.97706 0.0
C915 C 0.49094 0.07119 0.96426 0.0
C916 C 0.50189 0.06736 0.98617 0.0
C917 C 0.50014 0.09173 0.95155 0.0
C918 C 0.53131 0.15312 0.95906 0.0
H919 H 0.5581 0.22172 0.85664 0.0
H920 H 0.54024 0.18538 0.87682 0.0
H921 H 0.54037 0.19045 0.95619 0.0
H922 H 0.53046 0.08226 1.01233 0.0
H923 H 0.54635 0.11834 0.99034 0.0
H924 H 0.53336 0.11516 0.91538 0.0
C925 C 0.55147 0.19969 0.8869 0.0
C926 C 0.53946 0.17426 0.94703 0.0
C927 C 0.56141 0.2208 0.87529 0.0
C928 C 0.52211 0.0845 0.99524 0.0
C929 C 0.53098 0.10526 0.98277 0.0
C930 C 0.53489 0.13155 0.9244 0.0
C931 C 0.5559 0.19718 0.91107 0.0
C932 C 0.54603 0.17446 0.92357 0.0
C933 C 0.52007 0.10913 0.9608 0.0
C934 C 0.52893 0.13153 0.94791 0.0
H935 H 0.59016 0.2523 0.92205 0.0
H936 H 0.57449 0.21559 0.94173 0.0
H937 H 0.54875 0.15189 0.89461 0.0
H938 H 0.47518 0.05832 0.95697 0.0
H939 H 0.49123 0.0943 0.93477 0.0
C940 C 0.92297 0.81686 0.37793 0.0
C941 C 0.91246 0.79768 0.39214 0.0
C942 C 0.93364 0.8389 0.38775 0.0
C943 C 0.93045 0.87368 0.44044 0.0
H944 H 0.99344 0.91282 0.42146 0.0
C945 C 0.96861 0.96795 0.47645 0.0
C946 C 0.99435 0.97348 0.48335 0.0
C947 C 0.95836 0.94736 0.46394 0.0
C948 C 0.97581 0.9021 0.42697 0.0
H949 H 0.90681 0.78648 0.42803 0.0
H950 H 0.92494 0.82457 0.44488 0.0
H951 H 0.97689 0.87515 0.40233 0.0
H952 H 0.02952 0.96189 0.48217 0.0
H953 H 0.0118 0.92633 0.46026 0.0
H954 H 0.92942 0.9004 0.46522 0.0
C955 C 0.92443 0.82283 0.42615 0.0
C956 C 0.96623 0.88058 0.41586 0.0
C957 C 0.91403 0.80092 0.41642 0.0
C958 C 0.00962 0.95819 0.47711 0.0
C959 C 0.99948 0.93782 0.46441 0.0
C960 C 0.93986 0.89528 0.45134 0.0
C961 C 0.93394 0.84228 0.41198 0.0
C962 C 0.94359 0.8659 0.42269 0.0
C963 C 0.97368 0.932 0.45774 0.0
C964 C 0.96284 0.90968 0.445 0.0
H965 H 0.92206 0.8151 0.35919 0.0
H966 H 0.94084 0.85348 0.37631 0.0
H967 H 0.9128 0.86299 0.44597 0.0
H968 H 0.95639 0.97945 0.48082 0.0
H969 H 0.93845 0.94356 0.45894 0.0
C970 C 0.25993 0.68202 0.65511 0.0
C971 C 0.25229 0.70096 0.64371 0.0
C972 C 0.27519 0.66947 0.64423 0.0
C973 C 0.32087 0.67624 0.59772 0.0
H974 H 0.31823 0.61052 0.6112 0.0
C975 C 0.3905 0.62605 0.55998 0.0
C976 C 0.40238 0.61371 0.57663 0.0
C977 C 0.36968 0.63494 0.56571 0.0
C978 C 0.31917 0.62888 0.6073 0.0
H979 H 0.25386 0.72083 0.61141 0.0
H980 H 0.27974 0.69836 0.59207 0.0
H981 H 0.28536 0.62887 0.62488 0.0
H982 H 0.40133 0.60027 0.61198 0.0
H983 H 0.36486 0.61568 0.62197 0.0
H984 H 0.35474 0.67617 0.58018 0.0
C985 C 0.27443 0.6936 0.60971 0.0
C986 C 0.30041 0.63944 0.61519 0.0
C987 C 0.25929 0.7063 0.62069 0.0
C988 C 0.39264 0.60988 0.59889 0.0
C989 C 0.37166 0.61851 0.60452 0.0
C990 C 0.33947 0.66561 0.58962 0.0
C991 C 0.28302 0.67534 0.62152 0.0
C992 C 0.30131 0.6634 0.61093 0.0
C993 C 0.36016 0.63137 0.58808 0.0
C994 C 0.33908 0.64195 0.59473 0.0
H995 H 0.25451 0.67714 0.6727 0.0
H996 H 0.28158 0.6557 0.65401 0.0
H997 H 0.32246 0.69479 0.59439 0.0
H998 H 0.39771 0.62936 0.54272 0.0
H999 H 0.36109 0.64469 0.55268 0.0
C1000 C 0.76268 0.85993 0.75272 0.0
C1001 C 0.75262 0.83569 0.75224 0.0
C1002 C 0.77939 0.87052 0.73605 0.0
C1003 C 0.82218 0.85787 0.69203 0.0
H1004 H 0.81643 0.91909 0.6683 0.0
C1005 C 0.87336 0.90312 0.61162 0.0
C1006 C 0.88406 0.9272 0.61356 0.0
C1007 C 0.85869 0.89125 0.62923 0.0
C1008 C 0.81843 0.9021 0.67494 0.0
H1009 H 0.75213 0.80347 0.734 0.0
H1010 H 0.78099 0.82207 0.70443 0.0
H1011 H 0.78751 0.89956 0.6971 0.0
H1012 H 0.88819 0.95763 0.6356 0.0
H1013 H 0.86264 0.93688 0.66637 0.0
H1014 H 0.85288 0.86039 0.66935 0.0
C1015 C 0.77631 0.83284 0.71797 0.0
C1016 C 0.80189 0.89091 0.69148 0.0
C1017 C 0.75972 0.82219 0.73481 0.0
C1018 C 0.88036 0.93903 0.63371 0.0
C1019 C 0.86554 0.92722 0.6512 0.0
C1020 C 0.83862 0.86902 0.6753 0.0
C1021 C 0.78628 0.85716 0.71836 0.0
C1022 C 0.80364 0.86872 0.70036 0.0
C1023 C 0.85426 0.90331 0.64898 0.0
C1024 C 0.83699 0.89132 0.66672 0.0
H1025 H 0.75795 0.87068 0.76625 0.0
H1026 H 0.78713 0.88919 0.73722 0.0
H1027 H 0.82427 0.84093 0.69871 0.0
H1028 H 0.87607 0.89354 0.59634 0.0
H1029 H 0.85013 0.87283 0.62704 0.0
C1030 C 0.73481 0.26103 0.21547 0.0
C1031 C 0.74449 0.24872 0.23369 0.0
C1032 C 0.7195 0.24891 0.19743 0.0
C1033 C 0.67836 0.19098 0.18504 0.0
H1034 H 0.68723 0.20803 0.12003 0.0
C1035 C 0.64373 0.12577 0.11217 0.0
C1036 C 0.63043 0.13281 0.09281 0.0
C1037 C 0.65562 0.14202 0.12872 0.0
C1038 C 0.68431 0.20332 0.13815 0.0
H1039 H 0.74569 0.21401 0.24713 0.0
H1040 H 0.71982 0.19308 0.21554 0.0
H1041 H 0.71255 0.23279 0.15024 0.0
H1042 H 0.6192 0.16238 0.07548 0.0
H1043 H 0.64057 0.19118 0.10458 0.0
H1044 H 0.65079 0.16118 0.17303 0.0
C1045 C 0.7237 0.21206 0.21529 0.0
C1046 C 0.69877 0.21745 0.15541 0.0
C1047 C 0.73891 0.2241 0.23323 0.0
C1048 C 0.62934 0.15654 0.09028 0.0
C1049 C 0.64161 0.17296 0.1068 0.0
C1050 C 0.66408 0.17687 0.16786 0.0
C1051 C 0.71349 0.22427 0.19738 0.0
C1052 C 0.69641 0.21103 0.17902 0.0
C1053 C 0.65464 0.16574 0.12627 0.0
C1054 C 0.66737 0.18256 0.14425 0.0
H1055 H 0.73891 0.28001 0.21524 0.0
H1056 H 0.71189 0.2588 0.18386 0.0
H1057 H 0.6756 0.1859 0.2031 0.0
H1058 H 0.64459 0.10755 0.11473 0.0
H1059 H 0.66577 0.13602 0.14343 0.0
C1060 C 0.38411 0.63314 0.34132 0.0
C1061 C 0.39857 0.63859 0.32153 0.0
C1062 C 0.39359 0.62295 0.36105 0.0
C1063 C 0.43534 0.58432 0.37835 0.0
H1064 H 0.43342 0.60757 0.44084 0.0
C1065 C 0.44715 0.52942 0.46151 0.0
C1066 C 0.4658 0.54015 0.47801 0.0
C1067 C 0.43948 0.54237 0.44287 0.0
C1068 C 0.4341 0.60092 0.42349 0.0
H1069 H 0.43434 0.63775 0.30693 0.0
H1070 H 0.45069 0.61924 0.34125 0.0
H1071 H 0.41961 0.62903 0.40738 0.0
H1072 H 0.49073 0.57301 0.48796 0.0
H1073 H 0.47648 0.59588 0.45594 0.0
H1074 H 0.44907 0.55583 0.39445 0.0
C1075 C 0.43213 0.62317 0.34155 0.0
C1076 C 0.42613 0.61314 0.40437 0.0
C1077 C 0.42287 0.63387 0.32199 0.0
C1078 C 0.47611 0.56429 0.47575 0.0
C1079 C 0.46802 0.57737 0.45738 0.0
C1080 C 0.44276 0.57183 0.39748 0.0
C1081 C 0.41753 0.61747 0.36125 0.0
C1082 C 0.42671 0.60499 0.38158 0.0
C1083 C 0.44989 0.56647 0.44053 0.0
C1084 C 0.44222 0.57998 0.42026 0.0
H1085 H 0.36533 0.63661 0.34144 0.0
H1086 H 0.38185 0.61865 0.3759 0.0
H1087 H 0.43582 0.57752 0.36102 0.0
H1088 H 0.43885 0.51086 0.46269 0.0
H1089 H 0.42535 0.53354 0.43025 0.0
C1090 C 0.10198 0.42203 0.81981 0.0
C1091 C 0.0965 0.39737 0.81834 0.0
C1092 C 0.09499 0.43338 0.83897 0.0
C1093 C 0.07261 0.42265 0.90014 0.0
H1094 H 0.05584 0.48332 0.8907 0.0
C1095 C 0.05003 0.47631 0.978 0.0
C1096 C 0.03247 0.49061 0.97414 0.0
C1097 C 0.05859 0.4653 0.95936 0.0
C1098 C 0.06012 0.46626 0.89378 0.0
H1099 H 0.07932 0.36556 0.83673 0.0
H1100 H 0.06609 0.3852 0.86923 0.0
H1101 H 0.06795 0.46332 0.85801 0.0
H1102 H 0.00991 0.50411 0.94737 0.0
H1103 H 0.02398 0.48453 0.91529 0.0
H1104 H 0.06356 0.42512 0.93572 0.0
C1105 C 0.07639 0.3959 0.85581 0.0
C1106 C 0.06758 0.45485 0.8749 0.0
C1107 C 0.08365 0.38453 0.83678 0.0
C1108 C 0.02366 0.49349 0.95111 0.0
C1109 C 0.03194 0.48227 0.93255 0.0
C1110 C 0.06484 0.43394 0.91898 0.0
C1111 C 0.08193 0.42056 0.85731 0.0
C1112 C 0.074 0.43282 0.87768 0.0
C1113 C 0.04962 0.46799 0.93626 0.0
C1114 C 0.0584 0.45597 0.91617 0.0
H1115 H 0.11146 0.43276 0.80599 0.0
H1116 H 0.1001 0.45233 0.83939 0.0
H1117 H 0.0777 0.40593 0.90334 0.0
H1118 H 0.05735 0.47371 0.99542 0.0
H1119 H 0.07249 0.45485 0.96313 0.0
C1120 C 0.58082 0.82998 0.91144 0.0
C1121 C 0.60417 0.8389 0.90158 0.0
C1122 C 0.56648 0.84525 0.91935 0.0
C1123 C 0.56006 0.90718 0.91421 0.0
H1124 H 0.52962 0.89559 0.97409 0.0
C1125 C 0.53886 0.97959 0.97115 0.0
C1126 C 0.51667 0.9749 0.9836 0.0
C1127 C 0.54527 0.9621 0.95799 0.0
C1128 C 0.53762 0.89886 0.95714 0.0
H1129 H 0.63125 0.87067 0.89308 0.0
H1130 H 0.60656 0.89715 0.90704 0.0
H1131 H 0.54909 0.86607 0.95752 0.0
H1132 H 0.48327 0.9484 0.99123 0.0
H1133 H 0.49469 0.91779 0.96836 0.0
H1134 H 0.54949 0.9404 0.91433 0.0
C1135 C 0.59885 0.87846 0.90805 0.0
C1136 C 0.54876 0.88195 0.94764 0.0
C1137 C 0.61306 0.86328 0.90013 0.0
C1138 C 0.50052 0.9526 0.98185 0.0
C1139 C 0.50708 0.93502 0.96888 0.0
C1140 C 0.54908 0.92412 0.92377 0.0
C1141 C 0.57531 0.86968 0.91761 0.0
C1142 C 0.56068 0.88619 0.92635 0.0
C1143 C 0.52974 0.93949 0.95717 0.0
C1144 C 0.53828 0.92036 0.94557 0.0
H1145 H 0.57347 0.81125 0.91265 0.0
H1146 H 0.54837 0.83795 0.92656 0.0
H1147 H 0.56856 0.91074 0.8975 0.0
H1148 H 0.55165 0.99661 0.97204 0.0
H1149 H 0.56297 0.96599 0.94929 0.0
C1150 C 0.91018 0.20822 0.38275 0.0
C1151 C 0.88691 0.21148 0.39004 0.0
C1152 C 0.92229 0.19222 0.39432 0.0
C1153 C 0.92065 0.15564 0.44852 0.0
H1154 H 0.95616 0.11932 0.41165 0.0
C1155 C 0.94528 0.06923 0.48066 0.0
C1156 C 0.97096 0.06859 0.48047 0.0
C1157 C 0.93628 0.08718 0.46915 0.0
C1158 C 0.94643 0.12948 0.42212 0.0
H1159 H 0.85795 0.20064 0.41499 0.0
H1160 H 0.87841 0.17214 0.43465 0.0
H1161 H 0.93822 0.15023 0.39305 0.0
H1162 H 0.00718 0.08573 0.46731 0.0
H1163 H 0.9911 0.1168 0.44647 0.0
H1164 H 0.92797 0.13399 0.47734 0.0
C1165 C 0.88793 0.1824 0.42056 0.0
C1166 C 0.93628 0.14731 0.41156 0.0
C1167 C 0.87609 0.1987 0.40926 0.0
C1168 C 0.98729 0.08578 0.46777 0.0
C1169 C 0.97814 0.10351 0.45584 0.0
C1170 C 0.93037 0.13754 0.45894 0.0
C1171 C 0.91113 0.17879 0.41316 0.0
C1172 C 0.92308 0.16056 0.42459 0.0
C1173 C 0.95266 0.10459 0.45685 0.0
C1174 C 0.94319 0.12422 0.44581 0.0
H1175 H 0.91897 0.21801 0.36804 0.0
H1176 H 0.94035 0.19034 0.38839 0.0
H1177 H 0.91121 0.16576 0.4593 0.0
H1178 H 0.93226 0.05634 0.49041 0.0
H1179 H 0.91651 0.08759 0.47 0.0
C1180 C 0.22935 0.62191 0.16367 0.0
C1181 C 0.25048 0.63413 0.15199 0.0
C1182 C 0.20788 0.60975 0.15111 0.0
C1183 C 0.1759 0.60951 0.093 0.0
H1184 H 0.13612 0.54947 0.11237 0.0
C1185 C 0.09115 0.56121 0.03618 0.0
C1186 C 0.06927 0.55074 0.04766 0.0
C1187 C 0.11395 0.56927 0.04878 0.0
C1188 C 0.14689 0.56634 0.10682 0.0
H1189 H 0.26614 0.64182 0.11802 0.0
H1190 H 0.22892 0.62073 0.09627 0.0
H1191 H 0.17445 0.56741 0.13496 0.0
H1192 H 0.05419 0.53991 0.0813 0.0
H1193 H 0.09382 0.55418 0.10335 0.0
H1194 H 0.14833 0.60878 0.06517 0.0
C1195 C 0.22862 0.62099 0.11507 0.0
C1196 C 0.16888 0.57662 0.11979 0.0
C1197 C 0.24999 0.63308 0.12756 0.0
C1198 C 0.0708 0.5478 0.07194 0.0
C1199 C 0.09357 0.55593 0.08458 0.0
C1200 C 0.15395 0.59931 0.08012 0.0
C1201 C 0.20709 0.60954 0.12662 0.0
C1202 C 0.18369 0.59832 0.11299 0.0
C1203 C 0.11537 0.56715 0.07321 0.0
C1204 C 0.13913 0.57757 0.0868 0.0
H1205 H 0.22906 0.62245 0.18246 0.0
H1206 H 0.19158 0.60122 0.16057 0.0
H1207 H 0.18654 0.62646 0.08751 0.0
H1208 H 0.09055 0.56354 1.01745 0.0
H1209 H 0.13043 0.57737 0.03937 0.0
C1210 C 0.27168 0.4046 0.65918 0.0
C1211 C 0.25623 0.41852 0.66811 0.0
C1212 C 0.29235 0.41458 0.64597 0.0
C1213 C 0.33651 0.47067 0.6327 0.0
H1214 H 0.34873 0.43731 0.57825 0.0
C1215 C 0.41608 0.50995 0.56995 0.0
C1216 C 0.42991 0.49447 0.56123 0.0
C1217 C 0.39415 0.50144 0.58217 0.0
C1218 C 0.34583 0.44678 0.59353 0.0
H1219 H 0.25089 0.45414 0.67014 0.0
H1220 H 0.28715 0.47157 0.64729 0.0
H1221 H 0.31258 0.42123 0.60147 0.0
H1222 H 0.43118 0.45777 0.55848 0.0
H1223 H 0.39339 0.44305 0.57987 0.0
H1224 H 0.36997 0.49609 0.62492 0.0
C1225 C 0.28325 0.45287 0.65065 0.0
C1226 C 0.32502 0.43753 0.60687 0.0
C1227 C 0.26245 0.44285 0.66381 0.0
C1228 C 0.42101 0.47026 0.56478 0.0
C1229 C 0.39916 0.46177 0.577 0.0
C1230 C 0.35742 0.4799 0.61939 0.0
C1231 C 0.29835 0.43882 0.64135 0.0
C1232 C 0.32016 0.44922 0.62676 0.0
C1233 C 0.38546 0.47721 0.58602 0.0
C1234 C 0.36252 0.46799 0.59969 0.0
H1235 H 0.26793 0.3859 0.66252 0.0
H1236 H 0.30383 0.40325 0.63955 0.0
H1237 H 0.33353 0.48005 0.64802 0.0
H1238 H 0.42231 0.52871 0.56755 0.0
H1239 H 0.38397 0.51388 0.58853 0.0
C1240 C 0.73788 0.67049 0.90101 0.0
C1241 C 0.73705 0.693 0.90851 0.0
C1242 C 0.75288 0.65736 0.91322 0.0
C1243 C 0.79432 0.65554 0.96664 0.0
H1244 H 0.83362 0.62945 0.92369 0.0
C1245 C 0.87524 0.60828 0.99509 0.0
C1246 C 0.89678 0.61358 0.98166 0.0
C1247 C 0.85364 0.61658 0.98839 0.0
C1248 C 0.82289 0.63671 0.93594 0.0
H1249 H 0.74977 0.71892 0.93533 0.0
H1250 H 0.77661 0.69631 0.95639 0.0
H1251 H 0.79819 0.64512 0.90889 0.0
H1252 H 0.9125 0.63203 0.95083 0.0
H1253 H 0.87536 0.64694 0.93963 0.0
H1254 H 0.8201 0.64796 0.99358 0.0
C1255 C 0.76535 0.68851 0.94139 0.0
C1256 C 0.80225 0.64536 0.9275 0.0
C1257 C 0.75002 0.70151 0.92932 0.0
C1258 C 0.89643 0.62783 0.96178 0.0
C1259 C 0.87496 0.6361 0.95514 0.0
C1260 C 0.81513 0.64687 0.97512 0.0
C1261 C 0.76775 0.66669 0.93291 0.0
C1262 C 0.78788 0.6552 0.94265 0.0
C1263 C 0.85316 0.63022 0.96808 0.0
C1264 C 0.82992 0.63781 0.95975 0.0
H1265 H 0.72781 0.6635 0.88511 0.0
H1266 H 0.75376 0.64035 0.90657 0.0
H1267 H 0.78353 0.66283 0.97881 0.0
H1268 H 0.87499 0.59754 1.01065 0.0
H1269 H 0.83712 0.61175 0.99871 0.0
C1270 C 0.44942 0.80948 0.17301 0.0
C1271 C 0.42404 0.80356 0.17896 0.0
C1272 C 0.45883 0.83035 0.16089 0.0
C1273 C 0.43715 0.87665 0.12449 0.0
H1274 H 0.50679 0.90966 0.13378 0.0
C1275 C 0.47766 0.96832 0.08369 0.0
C1276 C 0.50092 0.97078 0.07318 0.0
C1277 C 0.46792 0.94822 0.09685 0.0
C1278 C 0.48732 0.90056 0.13089 0.0
H1279 H 0.38891 0.8154 0.17773 0.0
H1280 H 0.40539 0.85206 0.15744 0.0
H1281 H 0.4908 0.87466 0.15685 0.0
H1282 H 0.53233 0.95422 0.06842 0.0
H1283 H 0.51559 0.91943 0.09165 0.0
H1284 H 0.4337 0.90298 0.09882 0.0
C1285 C 0.41795 0.84031 0.16131 0.0
C1286 C 0.47813 0.88037 0.14407 0.0
C1287 C 0.40849 0.81932 0.17312 0.0
C1288 C 0.51433 0.95284 0.07627 0.0
C1289 C 0.5048 0.93295 0.08968 0.0
C1290 C 0.44627 0.89701 0.11154 0.0
C1291 C 0.44318 0.84603 0.15467 0.0
C1292 C 0.45292 0.86798 0.14099 0.0
C1293 C 0.48149 0.93037 0.10014 0.0
C1294 C 0.47152 0.90912 0.11446 0.0
H1295 H 0.4618 0.79758 0.17704 0.0
H1296 H 0.47824 0.83382 0.15586 0.0
H1297 H 0.4178 0.86747 0.12116 0.0
H1298 H 0.46708 0.98201 0.08191 0.0
H1299 H 0.45001 0.94685 0.10486 0.0
C1300 C 0.06461 0.23492 0.66621 0.0
C1301 C 0.0908 0.24074 0.67107 0.0
C1302 C 0.05322 0.21353 0.65552 0.0
C1303 C 0.06385 0.15409 0.6419 0.0
H1304 H 0.01468 0.15587 0.59135 0.0
C1305 C 0.03009 0.07579 0.57838 0.0
C1306 C 0.00471 0.07099 0.57033 0.0
C1307 C 0.04024 0.09604 0.59143 0.0
C1308 C 0.02812 0.15487 0.60561 0.0
H1309 H 0.12527 0.22798 0.66963 0.0
H1310 H 0.1056 0.19098 0.65115 0.0
H1311 H 0.0319 0.19117 0.6137 0.0
H1312 H 0.97006 0.08363 0.56986 0.0
H1313 H 0.98743 0.11845 0.59282 0.0
H1314 H 0.0601 0.11779 0.63382 0.0
C1315 C 0.09373 0.20282 0.65547 0.0
C1316 C 0.03801 0.17522 0.6185 0.0
C1317 C 0.10508 0.22419 0.66595 0.0
C1318 C 0.98972 0.08682 0.57572 0.0
C1319 C 0.99979 0.10696 0.58878 0.0
C1320 C 0.05389 0.1337 0.62907 0.0
C1321 C 0.06771 0.19731 0.64967 0.0
C1322 C 0.05613 0.1752 0.63677 0.0
C1323 C 0.02524 0.11199 0.59681 0.0
C1324 C 0.03592 0.13377 0.61064 0.0
H1325 H 0.05307 0.24729 0.66982 0.0
H1326 H 0.03308 0.2098 0.65162 0.0
H1327 H 0.07751 0.15324 0.65601 0.0
H1328 H 0.04212 0.06392 0.57455 0.0
H1329 H 0.05998 0.09935 0.59701 0.0
C1330 C 0.74961 0.35276 0.43342 0.0
C1331 C 0.75907 0.35908 0.41134 0.0
C1332 C 0.73307 0.36486 0.44313 0.0
C1333 C 0.68521 0.39669 0.42386 0.0
H1334 H 0.68391 0.41223 0.48899 0.0
C1335 C 0.5961 0.41237 0.46497 0.0
C1336 C 0.59875 0.43229 0.479 0.0
C1337 C 0.61729 0.40533 0.45736 0.0
C1338 C 0.68417 0.40812 0.47073 0.0
H1339 H 0.76029 0.38426 0.38303 0.0
H1340 H 0.73124 0.40517 0.39988 0.0
H1341 H 0.71963 0.39771 0.47506 0.0
H1342 H 0.62597 0.46041 0.49602 0.0
H1343 H 0.66302 0.44767 0.48312 0.0
H1344 H 0.64963 0.4066 0.41954 0.0
C1345 C 0.7363 0.39064 0.40949 0.0
C1346 C 0.70449 0.39971 0.46281 0.0
C1347 C 0.75289 0.37865 0.39985 0.0
C1348 C 0.6232 0.4448 0.48551 0.0
C1349 C 0.64443 0.43758 0.47808 0.0
C1350 C 0.66484 0.40481 0.43181 0.0
C1351 C 0.72563 0.38343 0.43089 0.0
C1352 C 0.70512 0.3938 0.43931 0.0
C1353 C 0.64165 0.41788 0.46379 0.0
C1354 C 0.66399 0.41041 0.45534 0.0
H1355 H 0.75384 0.33766 0.44263 0.0
H1356 H 0.72502 0.35883 0.4596 0.0
H1357 H 0.68502 0.39201 0.40571 0.0
H1358 H 0.57763 0.40199 0.46004 0.0
H1359 H 0.61462 0.38986 0.44665 0.0
loop_
_geom_bond_atom_site_label_1
_geom_bond_atom_site_label_2
_geom_bond_distance
_geom_bond_site_symmetry_2
_ccdc_geom_bond_type
C0 C1 1.391 . S
C0 C4 1.391 . S
C0 H42 0.948 . S
C1 C0 1.391 . S
C1 C2 1.391 . S
C2 C1 1.391 . S
C2 H58 0.947 . S
C2 C59 1.392 . S
C3 C4 1.391 . S
C3 C7 1.397 . S
C3 C59 1.419 . S
C4 C0 1.391 . S
C4 C3 1.391 . S
C4 C5 1.399 . S
C5 C4 1.399 . S
C5 C8 1.396 . S
C5 C17 1.453 . S
C5 C18 1.684 . S
H6 C30 0.948 . S
C7 C3 1.397 . S
C7 C8 1.394 . S
C7 C26 1.723 . S
C8 C5 1.396 . S
C8 C7 1.394 . S
C8 C38 1.723 . S
H9 C32 0.947 . S
H10 C33 0.948 . S
H11 C39 0.982 . S
H12 C40 0.979 . S
H13 C40 0.980 . S
H14 C40 0.983 . S
H15 C39 0.979 . S
H16 C39 0.977 . S
C17 C5 1.453 . S
C17 H46 0.982 . S
C17 H47 0.979 . S
C17 H48 0.977 . S
C18 C5 1.684 . S
C18 H43 0.979 . S
C18 H44 0.980 . S
C18 H45 0.983 . S
C19 C20 1.391 . S
C19 C24 1.391 . S
C19 H49 0.948 . S
C20 C19 1.391 . S
C20 C21 1.391 . S
C21 C20 1.391 . S
C21 C22 1.392 . S
C21 H50 0.947 . S
C22 C21 1.392 . S
C22 C23 1.419 . S
C22 H51 0.948 . S
C23 C22 1.419 . S
C23 C24 1.391 . S
C23 C27 1.397 . S
C24 C19 1.391 . S
C24 C23 1.391 . S
C24 C25 1.399 . S
C25 C24 1.399 . S
C25 C26 1.396 . S
C25 C28 1.453 . S
C25 C29 1.684 . S
C26 C7 1.723 . S
C26 C25 1.396 . S
C26 C27 1.394 . S
C27 C23 1.397 . S
C27 C26 1.394 . S
C27 C37 1.723 . S
C28 C25 1.453 . S
C28 H52 0.982 . S
C28 H53 0.979 . S
C28 H54 0.977 . S
C29 C25 1.684 . S
C29 H55 0.979 . S
C29 H56 0.980 . S
C29 H57 0.983 . S
C30 H6 0.948 . S
C30 C31 1.391 . S
C30 C35 1.391 . S
C31 C30 1.391 . S
C31 C32 1.391 . S
C32 H9 0.947 . S
C32 C31 1.391 . S
C32 C33 1.392 . S
C33 H10 0.948 . S
C33 C32 1.392 . S
C33 C34 1.419 . S
C34 C33 1.419 . S
C34 C35 1.391 . S
C34 C38 1.397 . S
C35 C30 1.391 . S
C35 C34 1.391 . S
C35 C36 1.399 . S
C36 C35 1.399 . S
C36 C37 1.396 . S
C36 C39 1.453 . S
C36 C40 1.684 . S
C37 C27 1.723 . S
C37 C36 1.396 . S
C37 C38 1.394 . S
C38 C8 1.723 . S
C38 C34 1.397 . S
C38 C37 1.394 . S
C39 H11 0.982 . S
C39 H15 0.979 . S
C39 H16 0.977 . S
C39 C36 1.453 . S
C40 H12 0.979 . S
C40 H13 0.980 . S
C40 H14 0.983 . S
C40 C36 1.684 . S
H41 C59 0.948 . S
H42 C0 0.948 . S
H43 C18 0.979 . S
H44 C18 0.980 . S
H45 C18 0.983 . S
H46 C17 0.982 . S
H47 C17 0.979 . S
H48 C17 0.977 . S
H49 C19 0.948 . S
H50 C21 0.947 . S
H51 C22 0.948 . S
H52 C28 0.982 . S
H53 C28 0.979 . S
H54 C28 0.977 . S
H55 C29 0.979 . S
H56 C29 0.980 . S
H57 C29 0.983 . S
H58 C2 0.947 . S
C59 C2 1.392 . S
C59 C3 1.419 . S
C59 H41 0.948 . S
C60 C61 1.391 . S
C60 C64 1.391 . S
C60 H102 0.948 . S
C61 C60 1.391 . S
C61 C62 1.391 . S
C62 C61 1.391 . S
C62 H118 0.947 . S
C62 C119 1.392 . S
C63 C64 1.391 . S
C63 C67 1.397 . S
C63 C119 1.419 . S
C64 C60 1.391 . S
C64 C63 1.391 . S
C64 C65 1.399 . S
C65 C64 1.399 . S
C65 C68 1.396 . S
C65 C77 1.453 . S
C65 C78 1.684 . S
H66 C90 0.948 . S
C67 C63 1.397 . S
C67 C68 1.394 . S
C67 C86 1.723 . S
C68 C65 1.396 . S
C68 C67 1.394 . S
C68 C98 1.723 . S
H69 C92 0.947 . S
H70 C93 0.948 . S
H71 C99 0.982 . S
H72 C100 0.979 . S
H73 C100 0.980 . S
H74 C100 0.983 . S
H75 C99 0.979 . S
H76 C99 0.977 . S
C77 C65 1.453 . S
C77 H106 0.982 . S
C77 H107 0.979 . S
C77 H108 0.977 . S
C78 C65 1.684 . S
C78 H103 0.979 . S
C78 H104 0.980 . S
C78 H105 0.983 . S
C79 C80 1.391 . S
C79 C84 1.391 . S
C79 H109 0.948 . S
C80 C79 1.391 . S
C80 C81 1.391 . S
C81 C80 1.391 . S
C81 C82 1.392 . S
C81 H110 0.947 . S
C82 C81 1.392 . S
C82 C83 1.419 . S
C82 H111 0.948 . S
C83 C82 1.419 . S
C83 C84 1.391 . S
C83 C87 1.397 . S
C84 C79 1.391 . S
C84 C83 1.391 . S
C84 C85 1.399 . S
C85 C84 1.399 . S
C85 C86 1.396 . S
C85 C88 1.453 . S
C85 C89 1.684 . S
C86 C67 1.723 . S
C86 C85 1.396 . S
C86 C87 1.394 . S
C87 C83 1.397 . S
C87 C86 1.394 . S
C87 C97 1.723 . S
C88 C85 1.453 . S
C88 H112 0.982 . S
C88 H113 0.979 . S
C88 H114 0.977 . S
C89 C85 1.684 . S
C89 H115 0.979 . S
C89 H116 0.980 . S
C89 H117 0.983 . S
C90 H66 0.948 . S
C90 C91 1.391 . S
C90 C95 1.391 . S
C91 C90 1.391 . S
C91 C92 1.391 . S
C92 H69 0.947 . S
C92 C91 1.391 . S
C92 C93 1.392 . S
C93 H70 0.948 . S
C93 C92 1.392 . S
C93 C94 1.419 . S
C94 C93 1.419 . S
C94 C95 1.391 . S
C94 C98 1.397 . S
C95 C90 1.391 . S
C95 C94 1.391 . S
C95 C96 1.399 . S
C96 C95 1.399 . S
C96 C97 1.396 . S
C96 C99 1.453 . S
C96 C100 1.684 . S
C97 C87 1.723 . S
C97 C96 1.396 . S
C97 C98 1.394 . S
C98 C68 1.723 . S
C98 C94 1.397 . S
C98 C97 1.394 . S
C99 H71 0.982 . S
C99 H75 0.979 . S
C99 H76 0.977 . S
C99 C96 1.453 . S
C100 H72 0.979 . S
C100 H73 0.980 . S
C100 H74 0.983 . S
C100 C96 1.684 . S
H101 C119 0.948 . S
H102 C60 0.948 . S
H103 C78 0.979 . S
H104 C78 0.980 . S
H105 C78 0.983 . S
H106 C77 0.982 . S
H107 C77 0.979 . S
H108 C77 0.977 . S
H109 C79 0.948 . S
H110 C81 0.947 . S
H111 C82 0.948 . S
H112 C88 0.982 . S
H113 C88 0.979 . S
H114 C88 0.977 . S
H115 C89 0.979 . S
H116 C89 0.980 . S
H117 C89 0.983 . S
H118 C62 0.947 . S
C119 C62 1.392 . S
C119 C63 1.419 . S
C119 H101 0.948 . S
C120 C121 1.391 . S
C120 C124 1.391 . S
C120 H162 0.948 . S
C121 C120 1.391 . S
C121 C122 1.391 . S
C122 C121 1.391 . S
C122 H178 0.947 . S
C122 C179 1.392 . S
C123 C124 1.391 . S
C123 C127 1.397 . S
C123 C179 1.419 . S
C124 C120 1.391 . S
C124 C123 1.391 . S
C124 C125 1.399 . S
C125 C124 1.399 . S
C125 C128 1.396 . S
C125 C137 1.453 . S
C125 C138 1.684 . S
H126 C150 0.948 . S
C127 C123 1.397 . S
C127 C128 1.394 . S
C127 C146 1.723 . S
C128 C125 1.396 . S
C128 C127 1.394 . S
C128 C158 1.723 . S
H129 C152 0.947 . S
H130 C153 0.948 . S
H131 C159 0.982 . S
H132 C160 0.979 . S
H133 C160 0.980 . S
H134 C160 0.983 . S
H135 C159 0.979 . S
H136 C159 0.977 . S
C137 C125 1.453 . S
C137 H166 0.982 . S
C137 H167 0.979 . S
C137 H168 0.977 . S
C138 C125 1.684 . S
C138 H163 0.979 . S
C138 H164 0.980 . S
C138 H165 0.983 . S
C139 C140 1.391 . S
C139 C144 1.391 . S
C139 H169 0.948 . S
C140 C139 1.391 . S
C140 C141 1.391 . S
C141 C140 1.391 . S
C141 C142 1.392 . S
C141 H170 0.947 . S
C142 C141 1.392 . S
C142 C143 1.419 . S
C142 H171 0.948 . S
C143 C142 1.419 . S
C143 C144 1.391 . S
C143 C147 1.397 . S
C144 C139 1.391 . S
C144 C143 1.391 . S
C144 C145 1.399 . S
C145 C144 1.399 . S
C145 C146 1.396 . S
C145 C148 1.453 . S
C145 C149 1.684 . S
C146 C127 1.723 . S
C146 C145 1.396 . S
C146 C147 1.394 . S
C147 C143 1.397 . S
C147 C146 1.394 . S
C147 C157 1.723 . S
C148 C145 1.453 . S
C148 H172 0.982 . S
C148 H173 0.979 . S
C148 H174 0.977 . S
C149 C145 1.684 . S
C149 H175 0.979 . S
C149 H176 0.980 . S
C149 H177 0.983 . S
C150 H126 0.948 . S
C150 C151 1.391 . S
C150 C155 1.391 . S
C151 C150 1.391 . S
C151 C152 1.391 . S
C152 H129 0.947 . S
C152 C151 1.391 . S
C152 C153 1.392 . S
C153 H130 0.948 . S
C153 C152 1.392 . S
C153 C154 1.419 . S
C154 C153 1.419 . S
C154 C155 1.391 . S
C154 C158 1.397 . S
C155 C150 1.391 . S
C155 C154 1.391 . S
C155 C156 1.399 . S
C156 C155 1.399 . S
C156 C157 1.396 . S
C156 C159 1.453 . S
C156 C160 1.684 . S
C157 C147 1.723 . S
C157 C156 1.396 . S
C157 C158 1.394 . S
C158 C128 1.723 . S
C158 C154 1.397 . S
C158 C157 1.394 . S
C159 H131 0.982 . S
C159 H135 0.979 . S
C159 H136 0.977 . S
C159 C156 1.453 . S
C160 H132 0.979 . S
C160 H133 0.980 . S
C160 H134 0.983 . S
C160 C156 1.684 . S
H161 C179 0.948 . S
H162 C120 0.948 . S
H163 C138 0.979 . S
H164 C138 0.980 . S
H165 C138 0.983 . S
H166 C137 0.982 . S
H167 C137 0.979 . S
H168 C137 0.977 . S
H169 C139 0.948 . S
H170 C141 0.947 . S
H171 C142 0.948 . S
H172 C148 0.982 . S
H173 C148 0.979 . S
H174 C148 0.977 . S
H175 C149 0.979 . S
H176 C149 0.980 . S
H177 C149 0.983 . S
H178 C122 0.947 . S
C179 C122 1.392 . S
C179 C123 1.419 . S
C179 H161 0.948 . S
C180 C181 1.391 . S
C180 C184 1.391 . S
C180 H222 0.948 . S
C181 C180 1.391 . S
C181 C182 1.391 . S
C182 C181 1.391 . S
C182 H238 0.947 . S
C182 C239 1.392 . S
C183 C184 1.391 . S
C183 C187 1.397 . S
C183 C239 1.419 . S
C184 C180 1.391 . S
C184 C183 1.391 . S
C184 C185 1.399 . S
C185 C184 1.399 . S
C185 C188 1.396 . S
C185 C197 1.453 . S
C185 C198 1.684 . S
H186 C210 0.948 . S
C187 C183 1.397 . S
C187 C188 1.394 . S
C187 C206 1.723 . S
C188 C185 1.396 . S
C188 C187 1.394 . S
C188 C218 1.723 . S
H189 C212 0.947 . S
H190 C213 0.948 . S
H191 C219 0.982 . S
H192 C220 0.979 . S
H193 C220 0.980 . S
H194 C220 0.983 . S
H195 C219 0.979 . S
H196 C219 0.977 . S
C197 C185 1.453 . S
C197 H226 0.982 . S
C197 H227 0.979 . S
C197 H228 0.977 . S
C198 C185 1.684 . S
C198 H223 0.979 . S
C198 H224 0.980 . S
C198 H225 0.983 . S
C199 C200 1.391 . S
C199 C204 1.391 . S
C199 H229 0.948 . S
C200 C199 1.391 . S
C200 C201 1.391 . S
C201 C200 1.391 . S
C201 C202 1.392 . S
C201 H230 0.947 . S
C202 C201 1.392 . S
C202 C203 1.419 . S
C202 H231 0.948 . S
C203 C202 1.419 . S
C203 C204 1.391 . S
C203 C207 1.397 . S
C204 C199 1.391 . S
C204 C203 1.391 . S
C204 C205 1.399 . S
C205 C204 1.399 . S
C205 C206 1.396 . S
C205 C208 1.453 . S
C205 C209 1.684 . S
C206 C187 1.723 . S
C206 C205 1.396 . S
C206 C207 1.394 . S
C207 C203 1.397 . S
C207 C206 1.394 . S
C207 C217 1.723 . S
C208 C205 1.453 . S
C208 H232 0.982 . S
C208 H233 0.979 . S
C208 H234 0.977 . S
C209 C205 1.684 . S
C209 H235 0.979 . S
C209 H236 0.980 . S
C209 H237 0.983 . S
C210 H186 0.948 . S
C210 C211 1.391 . S
C210 C215 1.391 . S
C211 C210 1.391 . S
C211 C212 1.391 . S
C212 H189 0.947 . S
C212 C211 1.391 . S
C212 C213 1.392 . S
C213 H190 0.948 . S
C213 C212 1.392 . S
C213 C214 1.419 . S
C214 C213 1.419 . S
C214 C215 1.391 . S
C214 C218 1.397 . S
C215 C210 1.391 . S
C215 C214 1.391 . S
C215 C216 1.399 . S
C216 C215 1.399 . S
C216 C217 1.396 . S
C216 C219 1.453 . S
C216 C220 1.684 . S
C217 C207 1.723 . S
C217 C216 1.396 . S
C217 C218 1.394 . S
C218 C188 1.723 . S
C218 C214 1.397 . S
C218 C217 1.394 . S
C219 H191 0.982 . S
C219 H195 0.979 . S
C219 H196 0.977 . S
C219 C216 1.453 . S
C220 H192 0.979 . S
C220 H193 0.980 . S
C220 H194 0.983 . S
C220 C216 1.684 . S
H221 C239 0.948 . S
H222 C180 0.948 . S
H223 C198 0.979 . S
H224 C198 0.980 . S
H225 C198 0.983 . S
H226 C197 0.982 . S
H227 C197 0.979 . S
H228 C197 0.977 . S
H229 C199 0.948 . S
H230 C201 0.947 . S
H231 C202 0.948 . S
H232 C208 0.982 . S
H233 C208 0.979 . S
H234 C208 0.977 . S
H235 C209 0.979 . S
H236 C209 0.980 . S
H237 C209 0.983 . S
H238 C182 0.947 . S
C239 C182 1.392 . S
C239 C183 1.419 . S
C239 H221 0.948 . S
C240 C241 1.391 . S
C240 C244 1.391 . S
C240 H282 0.948 . S
C241 C240 1.391 . S
C241 C242 1.391 . S
C242 C241 1.391 . S
C242 H298 0.947 . S
C242 C299 1.392 . S
C243 C244 1.391 . S
C243 C247 1.397 . S
C243 C299 1.419 . S
C244 C240 1.391 . S
C244 C243 1.391 . S
C244 C245 1.399 . S
C245 C244 1.399 . S
C245 C248 1.396 . S
C245 C257 1.453 . S
C245 C258 1.684 . S
H246 C270 0.948 . S
C247 C243 1.397 . S
C247 C248 1.394 . S
C247 C266 1.723 . S
C248 C245 1.396 . S
C248 C247 1.394 . S
C248 C278 1.723 . S
H249 C272 0.947 . S
H250 C273 0.948 . S
H251 C279 0.982 . S
H252 C280 0.979 . S
H253 C280 0.980 . S
H254 C280 0.983 . S
H255 C279 0.979 . S
H256 C279 0.977 . S
C257 C245 1.453 . S
C257 H286 0.982 . S
C257 H287 0.979 . S
C257 H288 0.977 . S
C258 C245 1.684 . S
C258 H283 0.979 . S
C258 H284 0.980 . S
C258 H285 0.983 . S
C259 C260 1.391 . S
C259 C264 1.391 . S
C259 H289 0.948 . S
C260 C259 1.391 . S
C260 C261 1.391 . S
C261 C260 1.391 . S
C261 C262 1.392 . S
C261 H290 0.947 . S
C262 C261 1.392 . S
C262 C263 1.419 . S
C262 H291 0.948 . S
C263 C262 1.419 . S
C263 C264 1.391 . S
C263 C267 1.397 . S
C264 C259 1.391 . S
C264 C263 1.391 . S
C264 C265 1.399 . S
C265 C264 1.399 . S
C265 C266 1.396 . S
C265 C268 1.453 . S
C265 C269 1.684 . S
C266 C247 1.723 . S
C266 C265 1.396 . S
C266 C267 1.394 . S
C267 C263 1.397 . S
C267 C266 1.394 . S
C267 C277 1.723 . S
C268 C265 1.453 . S
C268 H292 0.982 . S
C268 H293 0.979 . S
C268 H294 0.977 . S
C269 C265 1.684 . S
C269 H295 0.979 . S
C269 H296 0.980 . S
C269 H297 0.983 . S
C270 H246 0.948 . S
C270 C271 1.391 . S
C270 C275 1.391 . S
C271 C270 1.391 . S
C271 C272 1.391 . S
C272 H249 0.947 . S
C272 C271 1.391 . S
C272 C273 1.392 . S
C273 H250 0.948 . S
C273 C272 1.392 . S
C273 C274 1.419 . S
C274 C273 1.419 . S
C274 C275 1.391 . S
C274 C278 1.397 . S
C275 C270 1.391 . S
C275 C274 1.391 . S
C275 C276 1.399 . S
C276 C275 1.399 . S
C276 C277 1.396 . S
C276 C279 1.453 . S
C276 C280 1.684 . S
C277 C267 1.723 . S
C277 C276 1.396 . S
C277 C278 1.394 . S
C278 C248 1.723 . S
C278 C274 1.397 . S
C278 C277 1.394 . S
C279 H251 0.982 . S
C279 H255 0.979 . S
C279 H256 0.977 . S
C279 C276 1.453 . S
C280 H252 0.979 . S
C280 H253 0.980 . S
C280 H254 0.983 . S
C280 C276 1.684 . S
H281 C299 0.948 . S
H282 C240 0.948 . S
H283 C258 0.979 . S
H284 C258 0.980 . S
H285 C258 0.983 . S
H286 C257 0.982 . S
H287 C257 0.979 . S
H288 C257 0.977 . S
H289 C259 0.948 . S
H290 C261 0.947 . S
H291 C262 0.948 . S
H292 C268 0.982 . S
H293 C268 0.979 . S
H294 C268 0.977 . S
H295 C269 0.979 . S
H296 C269 0.980 . S
H297 C269 0.983 . S
H298 C242 0.947 . S
C299 C242 1.392 . S
C299 C243 1.419 . S
C299 H281 0.948 . S
C300 C301 1.391 . S
C300 C304 1.391 . S
C300 H342 0.948 . S
C301 C300 1.391 . S
C301 C302 1.391 . S
C302 C301 1.391 . S
C302 H358 0.947 . S
C302 C359 1.392 . S
C303 C304 1.391 . S
C303 C307 1.397 . S
C303 C359 1.419 . S
C304 C300 1.391 . S
C304 C303 1.391 . S
C304 C305 1.399 . S
C305 C304 1.399 . S
C305 C308 1.396 . S
C305 C317 1.453 . S
C305 C318 1.684 . S
H306 C330 0.948 . S
C307 C303 1.397 . S
C307 C308 1.394 . S
C307 C326 1.723 . S
C308 C305 1.396 . S
C308 C307 1.394 . S
C308 C338 1.723 . S
H309 C332 0.947 . S
H310 C333 0.948 . S
H311 C339 0.982 . S
H312 C340 0.979 . S
H313 C340 0.980 . S
H314 C340 0.983 . S
H315 C339 0.979 . S
H316 C339 0.977 . S
C317 C305 1.453 . S
C317 H346 0.982 . S
C317 H347 0.979 . S
C317 H348 0.977 . S
C318 C305 1.684 . S
C318 H343 0.979 . S
C318 H344 0.980 . S
C318 H345 0.983 . S
C319 C320 1.391 . S
C319 C324 1.391 . S
C319 H349 0.948 . S
C320 C319 1.391 . S
C320 C321 1.391 . S
C321 C320 1.391 . S
C321 C322 1.392 . S
C321 H350 0.947 . S
C322 C321 1.392 . S
C322 C323 1.419 . S
C322 H351 0.948 . S
C323 C322 1.419 . S
C323 C324 1.391 . S
C323 C327 1.397 . S
C324 C319 1.391 . S
C324 C323 1.391 . S
C324 C325 1.399 . S
C325 C324 1.399 . S
C325 C326 1.396 . S
C325 C328 1.453 . S
C325 C329 1.684 . S
C326 C307 1.723 . S
C326 C325 1.396 . S
C326 C327 1.394 . S
C327 C323 1.397 . S
C327 C326 1.394 . S
C327 C337 1.723 . S
C328 C325 1.453 . S
C328 H352 0.982 . S
C328 H353 0.979 . S
C328 H354 0.977 . S
C329 C325 1.684 . S
C329 H355 0.979 . S
C329 H356 0.980 . S
C329 H357 0.983 . S
C330 H306 0.948 . S
C330 C331 1.391 . S
C330 C335 1.391 . S
C331 C330 1.391 . S
C331 C332 1.391 . S
C332 H309 0.947 . S
C332 C331 1.391 . S
C332 C333 1.392 . S
C333 H310 0.948 . S
C333 C332 1.392 . S
C333 C334 1.419 . S
C334 C333 1.419 . S
C334 C335 1.391 . S
C334 C338 1.397 . S
C335 C330 1.391 . S
C335 C334 1.391 . S
C335 C336 1.399 . S
C336 C335 1.399 . S
C336 C337 1.396 . S
C336 C339 1.453 . S
C336 C340 1.684 . S
C337 C327 1.723 . S
C337 C336 1.396 . S
C337 C338 1.394 . S
C338 C308 1.723 . S
C338 C334 1.397 . S
C338 C337 1.394 . S
C339 H311 0.982 . S
C339 H315 0.979 . S
C339 H316 0.977 . S
C339 C336 1.453 . S
C340 H312 0.979 . S
C340 H313 0.980 . S
C340 H314 0.983 . S
C340 C336 1.684 . S
H341 C359 0.948 . S
H342 C300 0.948 . S
H343 C318 0.979 . S
H344 C318 0.980 . S
H345 C318 0.983 . S
H346 C317 0.982 . S
H347 C317 0.979 . S
H348 C317 0.977 . S
H349 C319 0.948 . S
H350 C321 0.947 . S
H351 C322 0.948 . S
H352 C328 0.982 . S
H353 C328 0.979 . S
H354 C328 0.977 . S
H355 C329 0.979 . S
H356 C329 0.980 . S
H357 C329 0.983 . S
H358 C302 0.947 . S
C359 C302 1.392 . S
C359 C303 1.419 . S
C359 H341 0.948 . S
C360 C361 1.391 . S
C360 C364 1.391 . S
C360 H402 0.948 . S
C361 C360 1.391 . S
C361 C362 1.391 . S
C362 C361 1.391 . S
C362 H418 0.947 . S
C362 C419 1.392 . S
C363 C364 1.391 . S
C363 C367 1.397 . S
C363 C419 1.419 . S
C364 C360 1.391 . S
C364 C363 1.391 . S
C364 C365 1.399 . S
C365 C364 1.399 . S
C365 C368 1.396 . S
C365 C377 1.453 . S
C365 C378 1.684 . S
H366 C390 0.948 . S
C367 C363 1.397 . S
C367 C368 1.394 . S
C367 C386 1.723 . S
C368 C365 1.396 . S
C368 C367 1.394 . S
C368 C398 1.723 . S
H369 C392 0.947 . S
H370 C393 0.948 . S
H371 C399 0.982 . S
H372 C400 0.979 . S
H373 C400 0.980 . S
H374 C400 0.983 . S
H375 C399 0.979 . S
H376 C399 0.977 . S
C377 C365 1.453 . S
C377 H406 0.982 . S
C377 H407 0.979 . S
C377 H408 0.977 . S
C378 C365 1.684 . S
C378 H403 0.979 . S
C378 H404 0.980 . S
C378 H405 0.983 . S
C379 C380 1.391 . S
C379 C384 1.391 . S
C379 H409 0.948 . S
C380 C379 1.391 . S
C380 C381 1.391 . S
C381 C380 1.391 . S
C381 C382 1.392 . S
C381 H410 0.947 . S
C382 C381 1.392 . S
C382 C383 1.419 . S
C382 H411 0.948 . S
C383 C382 1.419 . S
C383 C384 1.391 . S
C383 C387 1.397 . S
C384 C379 1.391 . S
C384 C383 1.391 . S
C384 C385 1.399 . S
C385 C384 1.399 . S
C385 C386 1.396 . S
C385 C388 1.453 . S
C385 C389 1.684 . S
C386 C367 1.723 . S
C386 C385 1.396 . S
C386 C387 1.394 . S
C387 C383 1.397 . S
C387 C386 1.394 . S
C387 C397 1.723 . S
C388 C385 1.453 . S
C388 H412 0.982 . S
C388 H413 0.979 . S
C388 H414 0.977 . S
C389 C385 1.684 . S
C389 H415 0.979 . S
C389 H416 0.980 . S
C389 H417 0.983 . S
C390 H366 0.948 . S
C390 C391 1.391 . S
C390 C395 1.391 . S
C391 C390 1.391 . S
C391 C392 1.391 . S
C392 H369 0.947 . S
C392 C391 1.391 . S
C392 C393 1.392 . S
C393 H370 0.948 . S
C393 C392 1.392 . S
C393 C394 1.419 . S
C394 C393 1.419 . S
C394 C395 1.391 . S
C394 C398 1.397 . S
C395 C390 1.391 . S
C395 C394 1.391 . S
C395 C396 1.399 . S
C396 C395 1.399 . S
C396 C397 1.396 . S
C396 C399 1.453 . S
C396 C400 1.684 . S
C397 C387 1.723 . S
C397 C396 1.396 . S
C397 C398 1.394 . S
C398 C368 1.723 . S
C398 C394 1.397 . S
C398 C397 1.394 . S
C399 H371 0.982 . S
C399 H375 0.979 . S
C399 H376 0.977 . S
C399 C396 1.453 . S
C400 H372 0.979 . S
C400 H373 0.980 . S
C400 H374 0.983 . S
C400 C396 1.684 . S
H401 C419 0.948 . S
H402 C360 0.948 . S
H403 C378 0.979 . S
H404 C378 0.980 . S
H405 C378 0.983 . S
H406 C377 0.982 . S
H407 C377 0.979 . S
H408 C377 0.977 . S
H409 C379 0.948 . S
H410 C381 0.947 . S
H411 C382 0.948 . S
H412 C388 0.982 . S
H413 C388 0.979 . S
H414 C388 0.977 . S
H415 C389 0.979 . S
H416 C389 0.980 . S
H417 C389 0.983 . S
H418 C362 0.947 . S
C419 C362 1.392 . S
C419 C363 1.419 . S
C419 H401 0.948 . S
C420 C421 1.391 . S
C420 C424 1.391 . S
C420 H462 0.948 . S
C421 C420 1.391 . S
C421 C422 1.391 . S
C422 C421 1.391 . S
C422 H478 0.947 . S
C422 C479 1.392 . S
C423 C424 1.391 . S
C423 C427 1.397 . S
C423 C479 1.419 . S
C424 C420 1.391 . S
C424 C423 1.391 . S
C424 C425 1.399 . S
C425 C424 1.399 . S
C425 C428 1.396 . S
C425 C437 1.453 . S
C425 C438 1.684 . S
H426 C450 0.948 . S
C427 C423 1.397 . S
C427 C428 1.394 . S
C427 C446 1.723 . S
C428 C425 1.396 . S
C428 C427 1.394 . S
C428 C458 1.723 . S
H429 C452 0.947 . S
H430 C453 0.948 . S
H431 C459 0.982 . S
H432 C460 0.979 . S
H433 C460 0.980 . S
H434 C460 0.983 . S
H435 C459 0.979 . S
H436 C459 0.977 . S
C437 C425 1.453 . S
C437 H466 0.982 . S
C437 H467 0.979 . S
C437 H468 0.977 . S
C438 C425 1.684 . S
C438 H463 0.979 . S
C438 H464 0.980 . S
C438 H465 0.983 . S
C439 C440 1.391 . S
C439 C444 1.391 . S
C439 H469 0.948 . S
C440 C439 1.391 . S
C440 C441 1.391 . S
C441 C440 1.391 . S
C441 C442 1.392 . S
C441 H470 0.947 . S
C442 C441 1.392 . S
C442 C443 1.419 . S
C442 H471 0.948 . S
C443 C442 1.419 . S
C443 C444 1.391 . S
C443 C447 1.397 . S
C444 C439 1.391 . S
C444 C443 1.391 . S
C444 C445 1.399 . S
C445 C444 1.399 . S
C445 C446 1.396 . S
C445 C448 1.453 . S
C445 C449 1.684 . S
C446 C427 1.723 . S
C446 C445 1.396 . S
C446 C447 1.394 . S
C447 C443 1.397 . S
C447 C446 1.394 . S
C447 C457 1.723 . S
C448 C445 1.453 . S
C448 H472 0.982 . S
C448 H473 0.979 . S
C448 H474 0.977 . S
C449 C445 1.684 . S
C449 H475 0.979 . S
C449 H476 0.980 . S
C449 H477 0.983 . S
C450 H426 0.948 . S
C450 C451 1.391 . S
C450 C455 1.391 . S
C451 C450 1.391 . S
C451 C452 1.391 . S
C452 H429 0.947 . S
C452 C451 1.391 . S
C452 C453 1.392 . S
C453 H430 0.948 . S
C453 C452 1.392 . S
C453 C454 1.419 . S
C454 C453 1.419 . S
C454 C455 1.391 . S
C454 C458 1.397 . S
C455 C450 1.391 . S
C455 C454 1.391 . S
C455 C456 1.399 . S
C456 C455 1.399 . S
C456 C457 1.396 . S
C456 C459 1.453 . S
C456 C460 1.684 . S
C457 C447 1.723 . S
C457 C456 1.396 . S
C457 C458 1.394 . S
C458 C428 1.723 . S
C458 C454 1.397 . S
C458 C457 1.394 . S
C459 H431 0.982 . S
C459 H435 0.979 . S
C459 H436 0.977 . S
C459 C456 1.453 . S
C460 H432 0.979 . S
C460 H433 0.980 . S
C460 H434 0.983 . S
C460 C456 1.684 . S
H461 C479 0.948 . S
H462 C420 0.948 . S
H463 C438 0.979 . S
H464 C438 0.980 . S
H465 C438 0.983 . S
H466 C437 0.982 . S
H467 C437 0.979 . S
H468 C437 0.977 . S
H469 C439 0.948 . S
H470 C441 0.947 . S
H471 C442 0.948 . S
H472 C448 0.982 . S
H473 C448 0.979 . S
H474 C448 0.977 . S
H475 C449 0.979 . S
H476 C449 0.980 . S
H477 C449 0.983 . S
H478 C422 0.947 . S
C479 C422 1.392 . S
C479 C423 1.419 . S
C479 H461 0.948 . S
Tb480 C482 2.809 . S
Tb480 O500 2.484 . S
Tb480 O501 2.440 . S
Tb480 O502 2.658 1_665 S
Tb480 O503 2.409 1_565 S
Tb480 O504 2.378 1_655 S
Tb480 O508 2.325 . S
Tb480 O511 2.341 1_565 S
Tb481 C491 2.809 . S
Tb481 O502 2.325 . S
Tb481 O505 2.341 1_545 S
Tb481 O506 2.484 . S
Tb481 O507 2.440 . S
Tb481 O508 2.658 1_445 S
Tb481 O509 2.409 1_545 S
Tb481 O510 2.378 1_455 S
C482 Tb480 2.809 . S
C482 C483 1.514 . S
C482 O500 1.248 . S
C482 O501 1.266 . S
C483 C482 1.514 . S
C483 C484 1.359 . S
C483 C488 1.348 . S
C484 C483 1.359 . S
C484 C485 1.380 . S
C484 H512 0.929 . S
C485 C484 1.380 . S
C485 C486 1.347 . S
C485 H513 0.931 . S
C486 C485 1.347 . S
C486 C487 1.369 . S
C487 C486 1.369 . S
C487 C488 1.408 . S
C487 H514 0.930 . S
C488 C483 1.348 . S
C488 C487 1.408 . S
C488 H515 0.930 . S
C489 O502 1.281 . S
C489 O503 1.254 1_455 S
C490 O504 1.236 . S
C490 O505 1.266 . S
C491 Tb481 2.809 . S
C491 C492 1.514 . S
C491 O506 1.248 . S
C491 O507 1.266 . S
C492 C491 1.514 . S
C492 C493 1.359 . S
C492 C497 1.348 . S
C493 C492 1.359 . S
C493 C494 1.380 . S
C493 H516 0.929 . S
C494 C493 1.380 . S
C494 C495 1.347 . S
C494 H517 0.931 . S
C495 C494 1.347 . S
C495 C496 1.369 . S
C496 C495 1.369 . S
C496 C497 1.408 . S
C496 H518 0.930 . S
C497 C492 1.348 . S
C497 C496 1.408 . S
C497 H519 0.930 . S
C498 O508 1.281 . S
C498 O509 1.254 1_655 S
C499 O510 1.236 . S
C499 O511 1.266 . S
O500 Tb480 2.484 . S
O500 C482 1.248 . S
O501 Tb480 2.440 . S
O501 C482 1.266 . S
O502 Tb480 2.658 1_445 S
O502 Tb481 2.325 . S
O502 C489 1.281 . S
O503 Tb480 2.409 1_545 S
O503 C489 1.254 1_655 S
O504 Tb480 2.378 1_455 S
O504 C490 1.236 . S
O505 Tb481 2.341 1_565 S
O505 C490 1.266 . S
O506 Tb481 2.484 . S
O506 C491 1.248 . S
O507 Tb481 2.440 . S
O507 C491 1.266 . S
O508 Tb480 2.325 . S
O508 Tb481 2.658 1_665 S
O508 C498 1.281 . S
O509 Tb481 2.409 1_565 S
O509 C498 1.254 1_455 S
O510 Tb481 2.378 1_655 S
O510 C499 1.236 . S
O511 Tb480 2.341 1_545 S
O511 C499 1.266 . S
H512 C484 0.929 . S
H513 C485 0.931 . S
H514 C487 0.930 . S
H515 C488 0.930 . S
H516 C493 0.929 . S
H517 C494 0.931 . S
H518 C496 0.930 . S
H519 C497 0.930 . S
Tb520 C522 2.809 . S
Tb520 O540 2.484 . S
Tb520 O541 2.440 . S
Tb520 O542 2.658 1_545 S
Tb520 O543 2.409 1_545 S
Tb520 O544 2.378 . S
Tb520 O548 2.325 1_554 S
Tb520 O551 2.341 1_544 S
Tb521 C531 2.809 . S
Tb521 O542 2.325 1_556 S
Tb521 O545 2.341 1_566 S
Tb521 O546 2.484 . S
Tb521 O547 2.440 . S
Tb521 O548 2.658 1_565 S
Tb521 O549 2.409 1_565 S
Tb521 O550 2.378 . S
C522 Tb520 2.809 . S
C522 C523 1.514 . S
C522 O540 1.248 . S
C522 O541 1.266 . S
C523 C522 1.514 . S
C523 C524 1.359 . S
C523 C528 1.348 . S
C524 C523 1.359 . S
C524 C525 1.380 . S
C524 H552 0.929 . S
C525 C524 1.380 . S
C525 C526 1.347 . S
C525 H553 0.931 . S
C526 C525 1.347 . S
C526 C527 1.369 . S
C527 C526 1.369 . S
C527 C528 1.408 . S
C527 H554 0.930 . S
C528 C523 1.348 . S
C528 C527 1.408 . S
C528 H555 0.930 . S
C529 O542 1.281 . S
C529 O543 1.254 . S
C530 O544 1.236 . S
C530 O545 1.266 . S
C531 Tb521 2.809 . S
C531 C532 1.514 . S
C531 O546 1.248 . S
C531 O547 1.266 . S
C532 C531 1.514 . S
C532 C533 1.359 . S
C532 C537 1.348 . S
C533 C532 1.359 . S
C533 C534 1.380 . S
C533 H556 0.929 . S
C534 C533 1.380 . S
C534 C535 1.347 . S
C534 H557 0.931 . S
C535 C534 1.347 . S
C535 C536 1.369 . S
C536 C535 1.369 . S
C536 C537 1.408 . S
C536 H558 0.930 . S
C537 C532 1.348 . S
C537 C536 1.408 . S
C537 H559 0.930 . S
C538 O548 1.281 . S
C538 O549 1.254 . S
C539 O550 1.236 . S
C539 O551 1.266 . S
O540 Tb520 2.484 . S
O540 C522 1.248 . S
O541 Tb520 2.440 . S
O541 C522 1.266 . S
O542 Tb520 2.658 1_565 S
O542 Tb521 2.325 1_554 S
O542 C529 1.281 . S
O543 Tb520 2.409 1_565 S
O543 C529 1.254 . S
O544 Tb520 2.378 . S
O544 C530 1.236 . S
O545 Tb521 2.341 1_544 S
O545 C530 1.266 . S
O546 Tb521 2.484 . S
O546 C531 1.248 . S
O547 Tb521 2.440 . S
O547 C531 1.266 . S
O548 Tb520 2.325 1_556 S
O548 Tb521 2.658 1_545 S
O548 C538 1.281 . S
O549 Tb521 2.409 1_545 S
O549 C538 1.254 . S
O550 Tb521 2.378 . S
O550 C539 1.236 . S
O551 Tb520 2.341 1_566 S
O551 C539 1.266 . S
H552 C524 0.929 . S
H553 C525 0.931 . S
H554 C527 0.930 . S
H555 C528 0.930 . S
H556 C533 0.929 . S
H557 C534 0.931 . S
H558 C536 0.930 . S
H559 C537 0.930 . S
Tb560 C562 2.809 . S
Tb560 O580 2.484 . S
Tb560 O581 2.440 . S
Tb560 O582 2.658 . S
Tb560 O583 2.409 . S
Tb560 O584 2.378 . S
Tb560 O588 2.325 . S
Tb560 O591 2.341 . S
Tb561 C571 2.809 . S
Tb561 O582 2.325 . S
Tb561 O585 2.341 . S
Tb561 O586 2.484 . S
Tb561 O587 2.440 . S
Tb561 O588 2.658 . S
Tb561 O589 2.409 . S
Tb561 O590 2.378 . S
C562 Tb560 2.809 . S
C562 C563 1.514 . S
C562 O580 1.248 . S
C562 O581 1.266 . S
C563 C562 1.514 . S
C563 C564 1.359 . S
C563 C568 1.348 . S
C564 C563 1.359 . S
C564 C565 1.380 . S
C564 H592 0.929 . S
C565 C564 1.380 . S
C565 C566 1.347 . S
C565 H593 0.931 . S
C566 C565 1.347 . S
C566 C567 1.369 . S
C567 C566 1.369 . S
C567 C568 1.408 . S
C567 H594 0.930 . S
C568 C563 1.348 . S
C568 C567 1.408 . S
C568 H595 0.930 . S
C569 O582 1.281 . S
C569 O583 1.254 . S
C570 O584 1.236 . S
C570 O585 1.266 . S
C571 Tb561 2.809 . S
C571 C572 1.514 . S
C571 O586 1.248 . S
C571 O587 1.266 . S
C572 C571 1.514 . S
C572 C573 1.359 . S
C572 C577 1.348 . S
C573 C572 1.359 . S
C573 C574 1.380 . S
C573 H596 0.929 . S
C574 C573 1.380 . S
C574 C575 1.347 . S
C574 H597 0.931 . S
C575 C574 1.347 . S
C575 C576 1.369 . S
C576 C575 1.369 . S
C576 C577 1.408 . S
C576 H598 0.930 . S
C577 C572 1.348 . S
C577 C576 1.408 . S
C577 H599 0.930 . S
C578 O588 1.281 . S
C578 O589 1.254 . S
C579 O590 1.236 . S
C579 O591 1.266 . S
O580 Tb560 2.484 . S
O580 C562 1.248 . S
O581 Tb560 2.440 . S
O581 C562 1.266 . S
O582 Tb560 2.658 . S
O582 Tb561 2.325 . S
O582 C569 1.281 . S
O583 Tb560 2.409 . S
O583 C569 1.254 . S
O584 Tb560 2.378 . S
O584 C570 1.236 . S
O585 Tb561 2.341 . S
O585 C570 1.266 . S
O586 Tb561 2.484 . S
O586 C571 1.248 . S
O587 Tb561 2.440 . S
O587 C571 1.266 . S
O588 Tb560 2.325 . S
O588 Tb561 2.658 . S
O588 C578 1.281 . S
O589 Tb561 2.409 . S
O589 C578 1.254 . S
O590 Tb561 2.378 . S
O590 C579 1.236 . S
O591 Tb560 2.341 . S
O591 C579 1.266 . S
H592 C564 0.929 . S
H593 C565 0.931 . S
H594 C567 0.930 . S
H595 C568 0.930 . S
H596 C573 0.929 . S
H597 C574 0.931 . S
H598 C576 0.930 . S
H599 C577 0.930 . S
Tb600 C602 2.809 . S
Tb600 O620 2.484 . S
Tb600 O621 2.440 . S
Tb600 O622 2.658 1_656 S
Tb600 O623 2.412 1_656 S
Tb600 O624 2.378 1_556 S
Tb600 O628 2.325 . S
Tb600 O631 2.341 1_655 S
Tb601 C611 2.809 . S
Tb601 O622 2.325 . S
Tb601 O625 2.341 1_455 S
Tb601 O626 2.484 . S
Tb601 O627 2.440 . S
Tb601 O628 2.658 1_454 S
Tb601 O629 2.412 1_455 S
Tb601 O630 2.378 1_554 S
C602 Tb600 2.809 . S
C602 C603 1.514 . S
C602 O620 1.248 . S
C602 O621 1.266 . S
C603 C602 1.514 . S
C603 C604 1.359 . S
C603 C608 1.348 . S
C604 C603 1.359 . S
C604 C605 1.380 . S
C604 H632 0.929 . S
C605 C604 1.380 . S
C605 C606 1.347 . S
C605 H633 0.931 . S
C606 C605 1.347 . S
C606 C607 1.369 . S
C607 C606 1.369 . S
C607 C608 1.408 . S
C607 H634 0.930 . S
C608 C603 1.348 . S
C608 C607 1.408 . S
C608 H635 0.930 . S
C609 O622 1.281 . S
C609 O623 1.250 . S
C610 O624 1.236 . S
C610 O625 1.266 . S
C611 Tb601 2.809 . S
C611 C612 1.514 . S
C611 O626 1.248 . S
C611 O627 1.266 . S
C612 C611 1.514 . S
C612 C613 1.359 . S
C612 C617 1.348 . S
C613 C612 1.359 . S
C613 C614 1.380 . S
C613 H636 0.929 . S
C614 C613 1.380 . S
C614 C615 1.347 . S
C614 H637 0.931 . S
C615 C614 1.347 . S
C615 C616 1.369 . S
C616 C615 1.369 . S
C616 C617 1.408 . S
C616 H638 0.930 . S
C617 C612 1.348 . S
C617 C616 1.408 . S
C617 H639 0.930 . S
C618 O628 1.281 . S
C618 O629 1.250 1_556 S
C619 O630 1.236 . S
C619 O631 1.266 . S
O620 Tb600 2.484 . S
O620 C602 1.248 . S
O621 Tb600 2.440 . S
O621 C602 1.266 . S
O622 Tb600 2.658 1_454 S
O622 Tb601 2.325 . S
O622 C609 1.281 . S
O623 Tb600 2.412 1_454 S
O623 C609 1.250 . S
O624 Tb600 2.378 1_554 S
O624 C610 1.236 . S
O625 Tb601 2.341 1_655 S
O625 C610 1.266 . S
O626 Tb601 2.484 . S
O626 C611 1.248 . S
O627 Tb601 2.440 . S
O627 C611 1.266 . S
O628 Tb600 2.325 . S
O628 Tb601 2.658 1_656 S
O628 C618 1.281 . S
O629 Tb601 2.412 1_655 S
O629 C618 1.250 1_554 S
O630 Tb601 2.378 1_556 S
O630 C619 1.236 . S
O631 Tb600 2.341 1_455 S
O631 C619 1.266 . S
H632 C604 0.929 . S
H633 C605 0.931 . S
H634 C607 0.930 . S
H635 C608 0.930 . S
H636 C613 0.929 . S
H637 C614 0.931 . S
H638 C616 0.930 . S
H639 C617 0.930 . S
C640 C641 1.349 . S
C640 C642 1.327 . S
C640 H665 0.950 . S
C641 C640 1.349 . S
C641 C657 1.349 . S
C642 C640 1.327 . S
C642 C661 1.429 . S
C642 H666 0.950 . S
C643 C660 1.574 . S
C643 C662 1.368 . S
C643 H667 0.949 . S
H644 C648 0.949 . S
C645 C646 1.349 . S
C645 C647 1.327 . S
C645 H668 0.950 . S
C646 C645 1.349 . S
C646 C658 1.349 . S
C647 C645 1.327 . S
C647 C663 1.429 . S
C647 H669 0.950 . S
C648 H644 0.949 . S
C648 C656 1.574 . S
C648 C664 1.368 . S
H649 C657 0.950 . S
H650 C655 0.950 . S
H651 C656 0.949 . S
H652 C658 0.950 . S
H653 C659 0.950 . S
H654 C660 0.949 . S
C655 H650 0.950 . S
C655 C657 1.327 . S
C655 C661 1.429 . S
C656 C648 1.574 . S
C656 H651 0.949 . S
C656 C662 1.368 . S
C657 C641 1.349 . S
C657 H649 0.950 . S
C657 C655 1.327 . S
C658 C646 1.349 . S
C658 H652 0.950 . S
C658 C659 1.327 . S
C659 H653 0.950 . S
C659 C658 1.327 . S
C659 C663 1.429 . S
C660 C643 1.574 . S
C660 H654 0.949 . S
C660 C664 1.368 . S
C661 C642 1.429 . S
C661 C655 1.429 . S
C661 C662 1.523 . S
C662 C643 1.368 . S
C662 C656 1.368 . S
C662 C661 1.523 . S
C663 C647 1.429 . S
C663 C659 1.429 . S
C663 C664 1.523 . S
C664 C648 1.368 . S
C664 C660 1.368 . S
C664 C663 1.523 . S
H665 C640 0.950 . S
H666 C642 0.950 . S
H667 C643 0.949 . S
H668 C645 0.950 . S
H669 C647 0.950 . S
C670 C671 1.349 . S
C670 C672 1.327 . S
C670 H695 0.950 . S
C671 C670 1.349 . S
C671 C687 1.349 . S
C672 C670 1.327 . S
C672 C691 1.429 . S
C672 H696 0.950 . S
C673 C690 1.574 . S
C673 C692 1.368 . S
C673 H697 0.949 . S
H674 C678 0.949 . S
C675 C676 1.349 . S
C675 C677 1.327 . S
C675 H698 0.950 . S
C676 C675 1.349 . S
C676 C688 1.349 . S
C677 C675 1.327 . S
C677 C693 1.429 . S
C677 H699 0.950 . S
C678 H674 0.949 . S
C678 C686 1.574 . S
C678 C694 1.368 . S
H679 C687 0.950 . S
H680 C685 0.950 . S
H681 C686 0.949 . S
H682 C688 0.950 . S
H683 C689 0.950 . S
H684 C690 0.949 . S
C685 H680 0.950 . S
C685 C687 1.327 . S
C685 C691 1.429 . S
C686 C678 1.574 . S
C686 H681 0.949 . S
C686 C692 1.368 . S
C687 C671 1.349 . S
C687 H679 0.950 . S
C687 C685 1.327 . S
C688 C676 1.349 . S
C688 H682 0.950 . S
C688 C689 1.327 . S
C689 H683 0.950 . S
C689 C688 1.327 . S
C689 C693 1.429 . S
C690 C673 1.574 . S
C690 H684 0.949 . S
C690 C694 1.368 . S
C691 C672 1.429 . S
C691 C685 1.429 . S
C691 C692 1.523 . S
C692 C673 1.368 . S
C692 C686 1.368 . S
C692 C691 1.523 . S
C693 C677 1.429 . S
C693 C689 1.429 . S
C693 C694 1.523 . S
C694 C678 1.368 . S
C694 C690 1.368 . S
C694 C693 1.523 . S
H695 C670 0.950 . S
H696 C672 0.950 . S
H697 C673 0.949 . S
H698 C675 0.950 . S
H699 C677 0.950 . S
C700 C701 1.349 . S
C700 C702 1.327 . S
C700 H725 0.950 . S
C701 C700 1.349 . S
C701 C717 1.349 . S
C702 C700 1.327 . S
C702 C721 1.429 . S
C702 H726 0.950 . S
C703 C720 1.574 . S
C703 C722 1.368 . S
C703 H727 0.949 . S
H704 C708 0.949 . S
C705 C706 1.349 . S
C705 C707 1.327 . S
C705 H728 0.950 . S
C706 C705 1.349 . S
C706 C718 1.349 . S
C707 C705 1.327 . S
C707 C723 1.429 . S
C707 H729 0.950 . S
C708 H704 0.949 . S
C708 C716 1.574 . S
C708 C724 1.368 . S
H709 C717 0.950 . S
H710 C715 0.950 . S
H711 C716 0.949 . S
H712 C718 0.950 . S
H713 C719 0.950 . S
H714 C720 0.949 . S
C715 H710 0.950 . S
C715 C717 1.327 . S
C715 C721 1.429 . S
C716 C708 1.574 . S
C716 H711 0.949 . S
C716 C722 1.368 . S
C717 C701 1.349 . S
C717 H709 0.950 . S
C717 C715 1.327 . S
C718 C706 1.349 . S
C718 H712 0.950 . S
C718 C719 1.327 . S
C719 H713 0.950 . S
C719 C718 1.327 . S
C719 C723 1.429 . S
C720 C703 1.574 . S
C720 H714 0.949 . S
C720 C724 1.368 . S
C721 C702 1.429 . S
C721 C715 1.429 . S
C721 C722 1.523 . S
C722 C703 1.368 . S
C722 C716 1.368 . S
C722 C721 1.523 . S
C723 C707 1.429 . S
C723 C719 1.429 . S
C723 C724 1.523 . S
C724 C708 1.368 . S
C724 C720 1.368 . S
C724 C723 1.523 . S
H725 C700 0.950 . S
H726 C702 0.950 . S
H727 C703 0.949 . S
H728 C705 0.950 . S
H729 C707 0.950 . S
C730 C731 1.349 . S
C730 C732 1.327 . S
C730 H755 0.950 . S
C731 C730 1.349 . S
C731 C747 1.349 . S
C732 C730 1.327 . S
C732 C751 1.429 . S
C732 H756 0.950 . S
C733 C750 1.574 . S
C733 C752 1.368 . S
C733 H757 0.949 . S
H734 C738 0.949 . S
C735 C736 1.349 . S
C735 C737 1.327 . S
C735 H758 0.950 . S
C736 C735 1.349 . S
C736 C748 1.349 . S
C737 C735 1.327 . S
C737 C753 1.429 . S
C737 H759 0.950 . S
C738 H734 0.949 . S
C738 C746 1.574 . S
C738 C754 1.368 . S
H739 C747 0.950 . S
H740 C745 0.950 . S
H741 C746 0.949 . S
H742 C748 0.950 . S
H743 C749 0.950 . S
H744 C750 0.949 . S
C745 H740 0.950 . S
C745 C747 1.327 . S
C745 C751 1.429 . S
C746 C738 1.574 . S
C746 H741 0.949 . S
C746 C752 1.368 . S
C747 C731 1.349 . S
C747 H739 0.950 . S
C747 C745 1.327 . S
C748 C736 1.349 . S
C748 H742 0.950 . S
C748 C749 1.327 . S
C749 H743 0.950 . S
C749 C748 1.327 . S
C749 C753 1.429 . S
C750 C733 1.574 . S
C750 H744 0.949 . S
C750 C754 1.368 . S
C751 C732 1.429 . S
C751 C745 1.429 . S
C751 C752 1.523 . S
C752 C733 1.368 . S
C752 C746 1.368 . S
C752 C751 1.523 . S
C753 C737 1.429 . S
C753 C749 1.429 . S
C753 C754 1.523 . S
C754 C738 1.368 . S
C754 C750 1.368 . S
C754 C753 1.523 . S
H755 C730 0.950 . S
H756 C732 0.950 . S
H757 C733 0.949 . S
H758 C735 0.950 . S
H759 C737 0.950 . S
C760 C761 1.349 . S
C760 C762 1.327 . S
C760 H785 0.950 . S
C761 C760 1.349 . S
C761 C777 1.349 . S
C762 C760 1.327 . S
C762 C781 1.429 . S
C762 H786 0.950 . S
C763 C780 1.574 . S
C763 C782 1.368 . S
C763 H787 0.949 . S
H764 C768 0.949 . S
C765 C766 1.349 . S
C765 C767 1.327 . S
C765 H788 0.950 . S
C766 C765 1.349 . S
C766 C778 1.349 . S
C767 C765 1.327 . S
C767 C783 1.429 . S
C767 H789 0.950 . S
C768 H764 0.949 . S
C768 C776 1.574 . S
C768 C784 1.368 . S
H769 C777 0.950 . S
H770 C775 0.950 . S
H771 C776 0.949 . S
H772 C778 0.950 . S
H773 C779 0.950 . S
H774 C780 0.949 . S
C775 H770 0.950 . S
C775 C777 1.327 . S
C775 C781 1.429 . S
C776 C768 1.574 . S
C776 H771 0.949 . S
C776 C782 1.368 . S
C777 C761 1.349 . S
C777 H769 0.950 . S
C777 C775 1.327 . S
C778 C766 1.349 . S
C778 H772 0.950 . S
C778 C779 1.327 . S
C779 H773 0.950 . S
C779 C778 1.327 . S
C779 C783 1.429 . S
C780 C763 1.574 . S
C780 H774 0.949 . S
C780 C784 1.368 . S
C781 C762 1.429 . S
C781 C775 1.429 . S
C781 C782 1.523 . S
C782 C763 1.368 . S
C782 C776 1.368 . S
C782 C781 1.523 . S
C783 C767 1.429 . S
C783 C779 1.429 . S
C783 C784 1.523 . S
C784 C768 1.368 . S
C784 C780 1.368 . S
C784 C783 1.523 . S
H785 C760 0.950 . S
H786 C762 0.950 . S
H787 C763 0.949 . S
H788 C765 0.950 . S
H789 C767 0.950 . S
C790 C791 1.349 . S
C790 C792 1.327 . S
C790 H815 0.950 . S
C791 C790 1.349 . S
C791 C807 1.349 . S
C792 C790 1.327 . S
C792 C811 1.429 . S
C792 H816 0.950 . S
C793 C810 1.574 . S
C793 C812 1.368 . S
C793 H817 0.949 . S
H794 C798 0.949 . S
C795 C796 1.349 . S
C795 C797 1.327 . S
C795 H818 0.950 . S
C796 C795 1.349 . S
C796 C808 1.349 . S
C797 C795 1.327 . S
C797 C813 1.429 . S
C797 H819 0.950 . S
C798 H794 0.949 . S
C798 C806 1.574 . S
C798 C814 1.368 . S
H799 C807 0.950 . S
H800 C805 0.950 . S
H801 C806 0.949 . S
H802 C808 0.950 . S
H803 C809 0.950 . S
H804 C810 0.949 . S
C805 H800 0.950 . S
C805 C807 1.327 . S
C805 C811 1.429 . S
C806 C798 1.574 . S
C806 H801 0.949 . S
C806 C812 1.368 . S
C807 C791 1.349 . S
C807 H799 0.950 . S
C807 C805 1.327 . S
C808 C796 1.349 . S
C808 H802 0.950 . S
C808 C809 1.327 . S
C809 H803 0.950 . S
C809 C808 1.327 . S
C809 C813 1.429 . S
C810 C793 1.574 . S
C810 H804 0.949 . S
C810 C814 1.368 . S
C811 C792 1.429 . S
C811 C805 1.429 . S
C811 C812 1.523 . S
C812 C793 1.368 . S
C812 C806 1.368 . S
C812 C811 1.523 . S
C813 C797 1.429 . S
C813 C809 1.429 . S
C813 C814 1.523 . S
C814 C798 1.368 . S
C814 C810 1.368 . S
C814 C813 1.523 . S
H815 C790 0.950 . S
H816 C792 0.950 . S
H817 C793 0.949 . S
H818 C795 0.950 . S
H819 C797 0.950 . S
C820 C821 1.349 . S
C820 C822 1.327 . S
C820 H845 0.950 . S
C821 C820 1.349 . S
C821 C837 1.349 . S
C822 C820 1.327 . S
C822 C841 1.429 . S
C822 H846 0.950 . S
C823 C840 1.574 . S
C823 C842 1.368 . S
C823 H847 0.949 . S
H824 C828 0.949 . S
C825 C826 1.349 . S
C825 C827 1.327 . S
C825 H848 0.950 . S
C826 C825 1.349 . S
C826 C838 1.349 . S
C827 C825 1.327 . S
C827 C843 1.429 . S
C827 H849 0.950 . S
C828 H824 0.949 . S
C828 C836 1.574 . S
C828 C844 1.368 . S
H829 C837 0.950 . S
H830 C835 0.950 . S
H831 C836 0.949 . S
H832 C838 0.950 . S
H833 C839 0.950 . S
H834 C840 0.949 . S
C835 H830 0.950 . S
C835 C837 1.327 . S
C835 C841 1.429 . S
C836 C828 1.574 . S
C836 H831 0.949 . S
C836 C842 1.368 . S
C837 C821 1.349 . S
C837 H829 0.950 . S
C837 C835 1.327 . S
C838 C826 1.349 . S
C838 H832 0.950 . S
C838 C839 1.327 . S
C839 H833 0.950 . S
C839 C838 1.327 . S
C839 C843 1.429 . S
C840 C823 1.574 . S
C840 H834 0.949 . S
C840 C844 1.368 . S
C841 C822 1.429 . S
C841 C835 1.429 . S
C841 C842 1.523 . S
C842 C823 1.368 . S
C842 C836 1.368 . S
C842 C841 1.523 . S
C843 C827 1.429 . S
C843 C839 1.429 . S
C843 C844 1.523 . S
C844 C828 1.368 . S
C844 C840 1.368 . S
C844 C843 1.523 . S
H845 C820 0.950 . S
H846 C822 0.950 . S
H847 C823 0.949 . S
H848 C825 0.950 . S
H849 C827 0.950 . S
C850 C851 1.349 . S
C850 C852 1.327 . S
C850 H875 0.950 . S
C851 C850 1.349 . S
C851 C867 1.349 . S
C852 C850 1.327 . S
C852 C871 1.429 . S
C852 H876 0.950 . S
C853 C870 1.574 . S
C853 C872 1.368 . S
C853 H877 0.949 . S
H854 C858 0.949 . S
C855 C856 1.349 . S
C855 C857 1.327 . S
C855 H878 0.950 . S
C856 C855 1.349 . S
C856 C868 1.349 . S
C857 C855 1.327 . S
C857 C873 1.429 . S
C857 H879 0.950 . S
C858 H854 0.949 . S
C858 C866 1.574 . S
C858 C874 1.368 . S
H859 C867 0.950 . S
H860 C865 0.950 . S
H861 C866 0.949 . S
H862 C868 0.950 . S
H863 C869 0.950 . S
H864 C870 0.949 . S
C865 H860 0.950 . S
C865 C867 1.327 . S
C865 C871 1.429 . S
C866 C858 1.574 . S
C866 H861 0.949 . S
C866 C872 1.368 . S
C867 C851 1.349 . S
C867 H859 0.950 . S
C867 C865 1.327 . S
C868 C856 1.349 . S
C868 H862 0.950 . S
C868 C869 1.327 . S
C869 H863 0.950 . S
C869 C868 1.327 . S
C869 C873 1.429 . S
C870 C853 1.574 . S
C870 H864 0.949 . S
C870 C874 1.368 . S
C871 C852 1.429 . S
C871 C865 1.429 . S
C871 C872 1.523 . S
C872 C853 1.368 . S
C872 C866 1.368 . S
C872 C871 1.523 . S
C873 C857 1.429 . S
C873 C869 1.429 . S
C873 C874 1.523 . S
C874 C858 1.368 . S
C874 C870 1.368 . S
C874 C873 1.523 . S
H875 C850 0.950 . S
H876 C852 0.950 . S
H877 C853 0.949 . S
H878 C855 0.950 . S
H879 C857 0.950 . S
C880 C881 1.349 . S
C880 C882 1.327 . S
C880 H905 0.950 . S
C881 C880 1.349 . S
C881 C897 1.349 . S
C882 C880 1.327 . S
C882 C901 1.429 . S
C882 H906 0.950 . S
C883 C900 1.574 . S
C883 C902 1.368 . S
C883 H907 0.949 . S
H884 C888 0.949 . S
C885 C886 1.349 . S
C885 C887 1.327 . S
C885 H908 0.950 . S
C886 C885 1.349 . S
C886 C898 1.349 . S
C887 C885 1.327 . S
C887 C903 1.429 . S
C887 H909 0.950 . S
C888 H884 0.949 . S
C888 C896 1.574 . S
C888 C904 1.368 . S
H889 C897 0.950 . S
H890 C895 0.950 . S
H891 C896 0.949 . S
H892 C898 0.950 . S
H893 C899 0.950 . S
H894 C900 0.949 . S
C895 H890 0.950 . S
C895 C897 1.327 . S
C895 C901 1.429 . S
C896 C888 1.574 . S
C896 H891 0.949 . S
C896 C902 1.368 . S
C897 C881 1.349 . S
C897 H889 0.950 . S
C897 C895 1.327 . S
C898 C886 1.349 . S
C898 H892 0.950 . S
C898 C899 1.327 . S
C899 H893 0.950 . S
C899 C898 1.327 . S
C899 C903 1.429 . S
C900 C883 1.574 . S
C900 H894 0.949 . S
C900 C904 1.368 . S
C901 C882 1.429 . S
C901 C895 1.429 . S
C901 C902 1.523 . S
C902 C883 1.368 . S
C902 C896 1.368 . S
C902 C901 1.523 . S
C903 C887 1.429 . S
C903 C899 1.429 . S
C903 C904 1.523 . S
C904 C888 1.368 . S
C904 C900 1.368 . S
C904 C903 1.523 . S
H905 C880 0.950 . S
H906 C882 0.950 . S
H907 C883 0.949 . S
H908 C885 0.950 . S
H909 C887 0.950 . S
C910 C911 1.349 . S
C910 C912 1.327 . S
C910 H935 0.950 . S
C911 C910 1.349 . S
C911 C927 1.349 . S
C912 C910 1.327 . S
C912 C931 1.429 . S
C912 H936 0.950 . S
C913 C930 1.574 . S
C913 C932 1.368 . S
C913 H937 0.949 . S
H914 C918 0.949 . S
C915 C916 1.349 . S
C915 C917 1.327 . S
C915 H938 0.950 . S
C916 C915 1.349 . S
C916 C928 1.349 . S
C917 C915 1.327 . S
C917 C933 1.429 . S
C917 H939 0.950 . S
C918 H914 0.949 . S
C918 C926 1.574 . S
C918 C934 1.368 . S
H919 C927 0.950 . S
H920 C925 0.950 . S
H921 C926 0.949 . S
H922 C928 0.950 . S
H923 C929 0.950 . S
H924 C930 0.949 . S
C925 H920 0.950 . S
C925 C927 1.327 . S
C925 C931 1.429 . S
C926 C918 1.574 . S
C926 H921 0.949 . S
C926 C932 1.368 . S
C927 C911 1.349 . S
C927 H919 0.950 . S
C927 C925 1.327 . S
C928 C916 1.349 . S
C928 H922 0.950 . S
C928 C929 1.327 . S
C929 H923 0.950 . S
C929 C928 1.327 . S
C929 C933 1.429 . S
C930 C913 1.574 . S
C930 H924 0.949 . S
C930 C934 1.368 . S
C931 C912 1.429 . S
C931 C925 1.429 . S
C931 C932 1.523 . S
C932 C913 1.368 . S
C932 C926 1.368 . S
C932 C931 1.523 . S
C933 C917 1.429 . S
C933 C929 1.429 . S
C933 C934 1.523 . S
C934 C918 1.368 . S
C934 C930 1.368 . S
C934 C933 1.523 . S
H935 C910 0.950 . S
H936 C912 0.950 . S
H937 C913 0.949 . S
H938 C915 0.950 . S
H939 C917 0.950 . S
C940 C941 1.349 . S
C940 C942 1.327 . S
C940 H965 0.950 . S
C941 C940 1.349 . S
C941 C957 1.349 . S
C942 C940 1.327 . S
C942 C961 1.429 . S
C942 H966 0.950 . S
C943 C960 1.574 . S
C943 C962 1.368 . S
C943 H967 0.949 . S
H944 C948 0.949 . S
C945 C946 1.349 . S
C945 C947 1.327 . S
C945 H968 0.950 . S
C946 C945 1.349 . S
C946 C958 1.349 . S
C947 C945 1.327 . S
C947 C963 1.429 . S
C947 H969 0.950 . S
C948 H944 0.949 . S
C948 C956 1.574 . S
C948 C964 1.368 . S
H949 C957 0.950 . S
H950 C955 0.950 . S
H951 C956 0.949 . S
H952 C958 0.950 . S
H953 C959 0.950 . S
H954 C960 0.949 . S
C955 H950 0.950 . S
C955 C957 1.327 . S
C955 C961 1.429 . S
C956 C948 1.574 . S
C956 H951 0.949 . S
C956 C962 1.368 . S
C957 C941 1.349 . S
C957 H949 0.950 . S
C957 C955 1.327 . S
C958 C946 1.349 . S
C958 H952 0.950 . S
C958 C959 1.327 . S
C959 H953 0.950 . S
C959 C958 1.327 . S
C959 C963 1.429 . S
C960 C943 1.574 . S
C960 H954 0.949 . S
C960 C964 1.368 . S
C961 C942 1.429 . S
C961 C955 1.429 . S
C961 C962 1.523 . S
C962 C943 1.368 . S
C962 C956 1.368 . S
C962 C961 1.523 . S
C963 C947 1.429 . S
C963 C959 1.429 . S
C963 C964 1.523 . S
C964 C948 1.368 . S
C964 C960 1.368 . S
C964 C963 1.523 . S
H965 C940 0.950 . S
H966 C942 0.950 . S
H967 C943 0.949 . S
H968 C945 0.950 . S
H969 C947 0.950 . S
C970 C971 1.349 . S
C970 C972 1.327 . S
C970 H995 0.950 . S
C971 C970 1.349 . S
C971 C987 1.349 . S
C972 C970 1.327 . S
C972 C991 1.429 . S
C972 H996 0.950 . S
C973 C990 1.574 . S
C973 C992 1.368 . S
C973 H997 0.949 . S
H974 C978 0.949 . S
C975 C976 1.349 . S
C975 C977 1.327 . S
C975 H998 0.950 . S
C976 C975 1.349 . S
C976 C988 1.349 . S
C977 C975 1.327 . S
C977 C993 1.429 . S
C977 H999 0.950 . S
C978 H974 0.949 . S
C978 C986 1.574 . S
C978 C994 1.368 . S
H979 C987 0.950 . S
H980 C985 0.950 . S
H981 C986 0.949 . S
H982 C988 0.950 . S
H983 C989 0.950 . S
H984 C990 0.949 . S
C985 H980 0.950 . S
C985 C987 1.327 . S
C985 C991 1.429 . S
C986 C978 1.574 . S
C986 H981 0.949 . S
C986 C992 1.368 . S
C987 C971 1.349 . S
C987 H979 0.950 . S
C987 C985 1.327 . S
C988 C976 1.349 . S
C988 H982 0.950 . S
C988 C989 1.327 . S
C989 H983 0.950 . S
C989 C988 1.327 . S
C989 C993 1.429 . S
C990 C973 1.574 . S
C990 H984 0.949 . S
C990 C994 1.368 . S
C991 C972 1.429 . S
C991 C985 1.429 . S
C991 C992 1.523 . S
C992 C973 1.368 . S
C992 C986 1.368 . S
C992 C991 1.523 . S
C993 C977 1.429 . S
C993 C989 1.429 . S
C993 C994 1.523 . S
C994 C978 1.368 . S
C994 C990 1.368 . S
C994 C993 1.523 . S
H995 C970 0.950 . S
H996 C972 0.950 . S
H997 C973 0.949 . S
H998 C975 0.950 . S
H999 C977 0.950 . S
C1000 C1001 1.349 . S
C1000 C1002 1.327 . S
C1000 H1025 0.950 . S
C1001 C1000 1.349 . S
C1001 C1017 1.349 . S
C1002 C1000 1.327 . S
C1002 C1021 1.429 . S
C1002 H1026 0.950 . S
C1003 C1020 1.574 . S
C1003 C1022 1.368 . S
C1003 H1027 0.949 . S
H1004 C1008 0.949 . S
C1005 C1006 1.349 . S
C1005 C1007 1.327 . S
C1005 H1028 0.950 . S
C1006 C1005 1.349 . S
C1006 C1018 1.349 . S
C1007 C1005 1.327 . S
C1007 C1023 1.429 . S
C1007 H1029 0.950 . S
C1008 H1004 0.949 . S
C1008 C1016 1.574 . S
C1008 C1024 1.368 . S
H1009 C1017 0.950 . S
H1010 C1015 0.950 . S
H1011 C1016 0.949 . S
H1012 C1018 0.950 . S
H1013 C1019 0.950 . S
H1014 C1020 0.949 . S
C1015 H1010 0.950 . S
C1015 C1017 1.327 . S
C1015 C1021 1.429 . S
C1016 C1008 1.574 . S
C1016 H1011 0.949 . S
C1016 C1022 1.368 . S
C1017 C1001 1.349 . S
C1017 H1009 0.950 . S
C1017 C1015 1.327 . S
C1018 C1006 1.349 . S
C1018 H1012 0.950 . S
C1018 C1019 1.327 . S
C1019 H1013 0.950 . S
C1019 C1018 1.327 . S
C1019 C1023 1.429 . S
C1020 C1003 1.574 . S
C1020 H1014 0.949 . S
C1020 C1024 1.368 . S
C1021 C1002 1.429 . S
C1021 C1015 1.429 . S
C1021 C1022 1.523 . S
C1022 C1003 1.368 . S
C1022 C1016 1.368 . S
C1022 C1021 1.523 . S
C1023 C1007 1.429 . S
C1023 C1019 1.429 . S
C1023 C1024 1.523 . S
C1024 C1008 1.368 . S
C1024 C1020 1.368 . S
C1024 C1023 1.523 . S
H1025 C1000 0.950 . S
H1026 C1002 0.950 . S
H1027 C1003 0.949 . S
H1028 C1005 0.950 . S
H1029 C1007 0.950 . S
C1030 C1031 1.349 . S
C1030 C1032 1.327 . S
C1030 H1055 0.950 . S
C1031 C1030 1.349 . S
C1031 C1047 1.349 . S
C1032 C1030 1.327 . S
C1032 C1051 1.429 . S
C1032 H1056 0.950 . S
C1033 C1050 1.574 . S
C1033 C1052 1.368 . S
C1033 H1057 0.949 . S
H1034 C1038 0.949 . S
C1035 C1036 1.349 . S
C1035 C1037 1.327 . S
C1035 H1058 0.950 . S
C1036 C1035 1.349 . S
C1036 C1048 1.349 . S
C1037 C1035 1.327 . S
C1037 C1053 1.429 . S
C1037 H1059 0.950 . S
C1038 H1034 0.949 . S
C1038 C1046 1.574 . S
C1038 C1054 1.368 . S
H1039 C1047 0.950 . S
H1040 C1045 0.950 . S
H1041 C1046 0.949 . S
H1042 C1048 0.950 . S
H1043 C1049 0.950 . S
H1044 C1050 0.949 . S
C1045 H1040 0.950 . S
C1045 C1047 1.327 . S
C1045 C1051 1.429 . S
C1046 C1038 1.574 . S
C1046 H1041 0.949 . S
C1046 C1052 1.368 . S
C1047 C1031 1.349 . S
C1047 H1039 0.950 . S
C1047 C1045 1.327 . S
C1048 C1036 1.349 . S
C1048 H1042 0.950 . S
C1048 C1049 1.327 . S
C1049 H1043 0.950 . S
C1049 C1048 1.327 . S
C1049 C1053 1.429 . S
C1050 C1033 1.574 . S
C1050 H1044 0.949 . S
C1050 C1054 1.368 . S
C1051 C1032 1.429 . S
C1051 C1045 1.429 . S
C1051 C1052 1.523 . S
C1052 C1033 1.368 . S
C1052 C1046 1.368 . S
C1052 C1051 1.523 . S
C1053 C1037 1.429 . S
C1053 C1049 1.429 . S
C1053 C1054 1.523 . S
C1054 C1038 1.368 . S
C1054 C1050 1.368 . S
C1054 C1053 1.523 . S
H1055 C1030 0.950 . S
H1056 C1032 0.950 . S
H1057 C1033 0.949 . S
H1058 C1035 0.950 . S
H1059 C1037 0.950 . S
C1060 C1061 1.349 . S
C1060 C1062 1.327 . S
C1060 H1085 0.950 . S
C1061 C1060 1.349 . S
C1061 C1077 1.349 . S
C1062 C1060 1.327 . S
C1062 C1081 1.429 . S
C1062 H1086 0.950 . S
C1063 C1080 1.574 . S
C1063 C1082 1.368 . S
C1063 H1087 0.949 . S
H1064 C1068 0.949 . S
C1065 C1066 1.349 . S
C1065 C1067 1.327 . S
C1065 H1088 0.950 . S
C1066 C1065 1.349 . S
C1066 C1078 1.349 . S
C1067 C1065 1.327 . S
C1067 C1083 1.429 . S
C1067 H1089 0.950 . S
C1068 H1064 0.949 . S
C1068 C1076 1.574 . S
C1068 C1084 1.368 . S
H1069 C1077 0.950 . S
H1070 C1075 0.950 . S
H1071 C1076 0.949 . S
H1072 C1078 0.950 . S
H1073 C1079 0.950 . S
H1074 C1080 0.949 . S
C1075 H1070 0.950 . S
C1075 C1077 1.327 . S
C1075 C1081 1.429 . S
C1076 C1068 1.574 . S
C1076 H1071 0.949 . S
C1076 C1082 1.368 . S
C1077 C1061 1.349 . S
C1077 H1069 0.950 . S
C1077 C1075 1.327 . S
C1078 C1066 1.349 . S
C1078 H1072 0.950 . S
C1078 C1079 1.327 . S
C1079 H1073 0.950 . S
C1079 C1078 1.327 . S
C1079 C1083 1.429 . S
C1080 C1063 1.574 . S
C1080 H1074 0.949 . S
C1080 C1084 1.368 . S
C1081 C1062 1.429 . S
C1081 C1075 1.429 . S
C1081 C1082 1.523 . S
C1082 C1063 1.368 . S
C1082 C1076 1.368 . S
C1082 C1081 1.523 . S
C1083 C1067 1.429 . S
C1083 C1079 1.429 . S
C1083 C1084 1.523 . S
C1084 C1068 1.368 . S
C1084 C1080 1.368 . S
C1084 C1083 1.523 . S
H1085 C1060 0.950 . S
H1086 C1062 0.950 . S
H1087 C1063 0.949 . S
H1088 C1065 0.950 . S
H1089 C1067 0.950 . S
C1090 C1091 1.349 . S
C1090 C1092 1.327 . S
C1090 H1115 0.950 . S
C1091 C1090 1.349 . S
C1091 C1107 1.349 . S
C1092 C1090 1.327 . S
C1092 C1111 1.429 . S
C1092 H1116 0.950 . S
C1093 C1110 1.574 . S
C1093 C1112 1.368 . S
C1093 H1117 0.949 . S
H1094 C1098 0.949 . S
C1095 C1096 1.349 . S
C1095 C1097 1.327 . S
C1095 H1118 0.950 . S
C1096 C1095 1.349 . S
C1096 C1108 1.349 . S
C1097 C1095 1.327 . S
C1097 C1113 1.429 . S
C1097 H1119 0.950 . S
C1098 H1094 0.949 . S
C1098 C1106 1.574 . S
C1098 C1114 1.368 . S
H1099 C1107 0.950 . S
H1100 C1105 0.950 . S
H1101 C1106 0.949 . S
H1102 C1108 0.950 . S
H1103 C1109 0.950 . S
H1104 C1110 0.949 . S
C1105 H1100 0.950 . S
C1105 C1107 1.327 . S
C1105 C1111 1.429 . S
C1106 C1098 1.574 . S
C1106 H1101 0.949 . S
C1106 C1112 1.368 . S
C1107 C1091 1.349 . S
C1107 H1099 0.950 . S
C1107 C1105 1.327 . S
C1108 C1096 1.349 . S
C1108 H1102 0.950 . S
C1108 C1109 1.327 . S
C1109 H1103 0.950 . S
C1109 C1108 1.327 . S
C1109 C1113 1.429 . S
C1110 C1093 1.574 . S
C1110 H1104 0.949 . S
C1110 C1114 1.368 . S
C1111 C1092 1.429 . S
C1111 C1105 1.429 . S
C1111 C1112 1.523 . S
C1112 C1093 1.368 . S
C1112 C1106 1.368 . S
C1112 C1111 1.523 . S
C1113 C1097 1.429 . S
C1113 C1109 1.429 . S
C1113 C1114 1.523 . S
C1114 C1098 1.368 . S
C1114 C1110 1.368 . S
C1114 C1113 1.523 . S
H1115 C1090 0.950 . S
H1116 C1092 0.950 . S
H1117 C1093 0.949 . S
H1118 C1095 0.950 . S
H1119 C1097 0.950 . S
C1120 C1121 1.349 . S
C1120 C1122 1.327 . S
C1120 H1145 0.950 . S
C1121 C1120 1.349 . S
C1121 C1137 1.349 . S
C1122 C1120 1.327 . S
C1122 C1141 1.429 . S
C1122 H1146 0.950 . S
C1123 C1140 1.574 . S
C1123 C1142 1.368 . S
C1123 H1147 0.949 . S
H1124 C1128 0.949 . S
C1125 C1126 1.349 . S
C1125 C1127 1.327 . S
C1125 H1148 0.950 . S
C1126 C1125 1.349 . S
C1126 C1138 1.349 . S
C1127 C1125 1.327 . S
C1127 C1143 1.429 . S
C1127 H1149 0.950 . S
C1128 H1124 0.949 . S
C1128 C1136 1.574 . S
C1128 C1144 1.368 . S
H1129 C1137 0.950 . S
H1130 C1135 0.950 . S
H1131 C1136 0.949 . S
H1132 C1138 0.950 . S
H1133 C1139 0.950 . S
H1134 C1140 0.949 . S
C1135 H1130 0.950 . S
C1135 C1137 1.327 . S
C1135 C1141 1.429 . S
C1136 C1128 1.574 . S
C1136 H1131 0.949 . S
C1136 C1142 1.368 . S
C1137 C1121 1.349 . S
C1137 H1129 0.950 . S
C1137 C1135 1.327 . S
C1138 C1126 1.349 . S
C1138 H1132 0.950 . S
C1138 C1139 1.327 . S
C1139 H1133 0.950 . S
C1139 C1138 1.327 . S
C1139 C1143 1.429 . S
C1140 C1123 1.574 . S
C1140 H1134 0.949 . S
C1140 C1144 1.368 . S
C1141 C1122 1.429 . S
C1141 C1135 1.429 . S
C1141 C1142 1.523 . S
C1142 C1123 1.368 . S
C1142 C1136 1.368 . S
C1142 C1141 1.523 . S
C1143 C1127 1.429 . S
C1143 C1139 1.429 . S
C1143 C1144 1.523 . S
C1144 C1128 1.368 . S
C1144 C1140 1.368 . S
C1144 C1143 1.523 . S
H1145 C1120 0.950 . S
H1146 C1122 0.950 . S
H1147 C1123 0.949 . S
H1148 C1125 0.950 . S
H1149 C1127 0.950 . S
C1150 C1151 1.349 . S
C1150 C1152 1.327 . S
C1150 H1175 0.950 . S
C1151 C1150 1.349 . S
C1151 C1167 1.349 . S
C1152 C1150 1.327 . S
C1152 C1171 1.429 . S
C1152 H1176 0.950 . S
C1153 C1170 1.574 . S
C1153 C1172 1.368 . S
C1153 H1177 0.949 . S
H1154 C1158 0.949 . S
C1155 C1156 1.349 . S
C1155 C1157 1.327 . S
C1155 H1178 0.950 . S
C1156 C1155 1.349 . S
C1156 C1168 1.349 . S
C1157 C1155 1.327 . S
C1157 C1173 1.429 . S
C1157 H1179 0.950 . S
C1158 H1154 0.949 . S
C1158 C1166 1.574 . S
C1158 C1174 1.368 . S
H1159 C1167 0.950 . S
H1160 C1165 0.950 . S
H1161 C1166 0.949 . S
H1162 C1168 0.950 . S
H1163 C1169 0.950 . S
H1164 C1170 0.949 . S
C1165 H1160 0.950 . S
C1165 C1167 1.327 . S
C1165 C1171 1.429 . S
C1166 C1158 1.574 . S
C1166 H1161 0.949 . S
C1166 C1172 1.368 . S
C1167 C1151 1.349 . S
C1167 H1159 0.950 . S
C1167 C1165 1.327 . S
C1168 C1156 1.349 . S
C1168 H1162 0.950 . S
C1168 C1169 1.327 . S
C1169 H1163 0.950 . S
C1169 C1168 1.327 . S
C1169 C1173 1.429 . S
C1170 C1153 1.574 . S
C1170 H1164 0.949 . S
C1170 C1174 1.368 . S
C1171 C1152 1.429 . S
C1171 C1165 1.429 . S
C1171 C1172 1.523 . S
C1172 C1153 1.368 . S
C1172 C1166 1.368 . S
C1172 C1171 1.523 . S
C1173 C1157 1.429 . S
C1173 C1169 1.429 . S
C1173 C1174 1.523 . S
C1174 C1158 1.368 . S
C1174 C1170 1.368 . S
C1174 C1173 1.523 . S
H1175 C1150 0.950 . S
H1176 C1152 0.950 . S
H1177 C1153 0.949 . S
H1178 C1155 0.950 . S
H1179 C1157 0.950 . S
C1180 C1181 1.349 . S
C1180 C1182 1.327 . S
C1180 H1205 0.950 . S
C1181 C1180 1.349 . S
C1181 C1197 1.349 . S
C1182 C1180 1.327 . S
C1182 C1201 1.429 . S
C1182 H1206 0.950 . S
C1183 C1200 1.574 . S
C1183 C1202 1.368 . S
C1183 H1207 0.949 . S
H1184 C1188 0.949 . S
C1185 C1186 1.349 . S
C1185 C1187 1.327 . S
C1185 H1208 0.950 . S
C1186 C1185 1.349 . S
C1186 C1198 1.349 . S
C1187 C1185 1.327 . S
C1187 C1203 1.429 . S
C1187 H1209 0.950 . S
C1188 H1184 0.949 . S
C1188 C1196 1.574 . S
C1188 C1204 1.368 . S
H1189 C1197 0.950 . S
H1190 C1195 0.950 . S
H1191 C1196 0.949 . S
H1192 C1198 0.950 . S
H1193 C1199 0.950 . S
H1194 C1200 0.949 . S
C1195 H1190 0.950 . S
C1195 C1197 1.327 . S
C1195 C1201 1.429 . S
C1196 C1188 1.574 . S
C1196 H1191 0.949 . S
C1196 C1202 1.368 . S
C1197 C1181 1.349 . S
C1197 H1189 0.950 . S
C1197 C1195 1.327 . S
C1198 C1186 1.349 . S
C1198 H1192 0.950 . S
C1198 C1199 1.327 . S
C1199 H1193 0.950 . S
C1199 C1198 1.327 . S
C1199 C1203 1.429 . S
C1200 C1183 1.574 . S
C1200 H1194 0.949 . S
C1200 C1204 1.368 . S
C1201 C1182 1.429 . S
C1201 C1195 1.429 . S
C1201 C1202 1.523 . S
C1202 C1183 1.368 . S
C1202 C1196 1.368 . S
C1202 C1201 1.523 . S
C1203 C1187 1.429 . S
C1203 C1199 1.429 . S
C1203 C1204 1.523 . S
C1204 C1188 1.368 . S
C1204 C1200 1.368 . S
C1204 C1203 1.523 . S
H1205 C1180 0.950 . S
H1206 C1182 0.950 . S
H1207 C1183 0.949 . S
H1208 C1185 0.950 . S
H1209 C1187 0.950 . S
C1210 C1211 1.349 . S
C1210 C1212 1.327 . S
C1210 H1235 0.950 . S
C1211 C1210 1.349 . S
C1211 C1227 1.349 . S
C1212 C1210 1.327 . S
C1212 C1231 1.429 . S
C1212 H1236 0.950 . S
C1213 C1230 1.574 . S
C1213 C1232 1.368 . S
C1213 H1237 0.949 . S
H1214 C1218 0.949 . S
C1215 C1216 1.349 . S
C1215 C1217 1.327 . S
C1215 H1238 0.950 . S
C1216 C1215 1.349 . S
C1216 C1228 1.349 . S
C1217 C1215 1.327 . S
C1217 C1233 1.429 . S
C1217 H1239 0.950 . S
C1218 H1214 0.949 . S
C1218 C1226 1.574 . S
C1218 C1234 1.368 . S
H1219 C1227 0.950 . S
H1220 C1225 0.950 . S
H1221 C1226 0.949 . S
H1222 C1228 0.950 . S
H1223 C1229 0.950 . S
H1224 C1230 0.949 . S
C1225 H1220 0.950 . S
C1225 C1227 1.327 . S
C1225 C1231 1.429 . S
C1226 C1218 1.574 . S
C1226 H1221 0.949 . S
C1226 C1232 1.368 . S
C1227 C1211 1.349 . S
C1227 H1219 0.950 . S
C1227 C1225 1.327 . S
C1228 C1216 1.349 . S
C1228 H1222 0.950 . S
C1228 C1229 1.327 . S
C1229 H1223 0.950 . S
C1229 C1228 1.327 . S
C1229 C1233 1.429 . S
C1230 C1213 1.574 . S
C1230 H1224 0.949 . S
C1230 C1234 1.368 . S
C1231 C1212 1.429 . S
C1231 C1225 1.429 . S
C1231 C1232 1.523 . S
C1232 C1213 1.368 . S
C1232 C1226 1.368 . S
C1232 C1231 1.523 . S
C1233 C1217 1.429 . S
C1233 C1229 1.429 . S
C1233 C1234 1.523 . S
C1234 C1218 1.368 . S
C1234 C1230 1.368 . S
C1234 C1233 1.523 . S
H1235 C1210 0.950 . S
H1236 C1212 0.950 . S
H1237 C1213 0.949 . S
H1238 C1215 0.950 . S
H1239 C1217 0.950 . S
C1240 C1241 1.349 . S
C1240 C1242 1.327 . S
C1240 H1265 0.950 . S
C1241 C1240 1.349 . S
C1241 C1257 1.349 . S
C1242 C1240 1.327 . S
C1242 C1261 1.429 . S
C1242 H1266 0.950 . S
C1243 C1260 1.574 . S
C1243 C1262 1.368 . S
C1243 H1267 0.949 . S
H1244 C1248 0.949 . S
C1245 C1246 1.349 . S
C1245 C1247 1.327 . S
C1245 H1268 0.950 . S
C1246 C1245 1.349 . S
C1246 C1258 1.349 . S
C1247 C1245 1.327 . S
C1247 C1263 1.429 . S
C1247 H1269 0.950 . S
C1248 H1244 0.949 . S
C1248 C1256 1.574 . S
C1248 C1264 1.368 . S
H1249 C1257 0.950 . S
H1250 C1255 0.950 . S
H1251 C1256 0.949 . S
H1252 C1258 0.950 . S
H1253 C1259 0.950 . S
H1254 C1260 0.949 . S
C1255 H1250 0.950 . S
C1255 C1257 1.327 . S
C1255 C1261 1.429 . S
C1256 C1248 1.574 . S
C1256 H1251 0.949 . S
C1256 C1262 1.368 . S
C1257 C1241 1.349 . S
C1257 H1249 0.950 . S
C1257 C1255 1.327 . S
C1258 C1246 1.349 . S
C1258 H1252 0.950 . S
C1258 C1259 1.327 . S
C1259 H1253 0.950 . S
C1259 C1258 1.327 . S
C1259 C1263 1.429 . S
C1260 C1243 1.574 . S
C1260 H1254 0.949 . S
C1260 C1264 1.368 . S
C1261 C1242 1.429 . S
C1261 C1255 1.429 . S
C1261 C1262 1.523 . S
C1262 C1243 1.368 . S
C1262 C1256 1.368 . S
C1262 C1261 1.523 . S
C1263 C1247 1.429 . S
C1263 C1259 1.429 . S
C1263 C1264 1.523 . S
C1264 C1248 1.368 . S
C1264 C1260 1.368 . S
C1264 C1263 1.523 . S
H1265 C1240 0.950 . S
H1266 C1242 0.950 . S
H1267 C1243 0.949 . S
H1268 C1245 0.950 . S
H1269 C1247 0.950 . S
C1270 C1271 1.349 . S
C1270 C1272 1.327 . S
C1270 H1295 0.950 . S
C1271 C1270 1.349 . S
C1271 C1287 1.349 . S
C1272 C1270 1.327 . S
C1272 C1291 1.429 . S
C1272 H1296 0.950 . S
C1273 C1290 1.574 . S
C1273 C1292 1.368 . S
C1273 H1297 0.949 . S
H1274 C1278 0.949 . S
C1275 C1276 1.349 . S
C1275 C1277 1.327 . S
C1275 H1298 0.950 . S
C1276 C1275 1.349 . S
C1276 C1288 1.349 . S
C1277 C1275 1.327 . S
C1277 C1293 1.429 . S
C1277 H1299 0.950 . S
C1278 H1274 0.949 . S
C1278 C1286 1.574 . S
C1278 C1294 1.368 . S
H1279 C1287 0.950 . S
H1280 C1285 0.950 . S
H1281 C1286 0.949 . S
H1282 C1288 0.950 . S
H1283 C1289 0.950 . S
H1284 C1290 0.949 . S
C1285 H1280 0.950 . S
C1285 C1287 1.327 . S
C1285 C1291 1.429 . S
C1286 C1278 1.574 . S
C1286 H1281 0.949 . S
C1286 C1292 1.368 . S
C1287 C1271 1.349 . S
C1287 H1279 0.950 . S
C1287 C1285 1.327 . S
C1288 C1276 1.349 . S
C1288 H1282 0.950 . S
C1288 C1289 1.327 . S
C1289 H1283 0.950 . S
C1289 C1288 1.327 . S
C1289 C1293 1.429 . S
C1290 C1273 1.574 . S
C1290 H1284 0.949 . S
C1290 C1294 1.368 . S
C1291 C1272 1.429 . S
C1291 C1285 1.429 . S
C1291 C1292 1.523 . S
C1292 C1273 1.368 . S
C1292 C1286 1.368 . S
C1292 C1291 1.523 . S
C1293 C1277 1.429 . S
C1293 C1289 1.429 . S
C1293 C1294 1.523 . S
C1294 C1278 1.368 . S
C1294 C1290 1.368 . S
C1294 C1293 1.523 . S
H1295 C1270 0.950 . S
H1296 C1272 0.950 . S
H1297 C1273 0.949 . S
H1298 C1275 0.950 . S
H1299 C1277 0.950 . S
C1300 C1301 1.349 . S
C1300 C1302 1.327 . S
C1300 H1325 0.950 . S
C1301 C1300 1.349 . S
C1301 C1317 1.349 . S
C1302 C1300 1.327 . S
C1302 C1321 1.429 . S
C1302 H1326 0.950 . S
C1303 C1320 1.574 . S
C1303 C1322 1.368 . S
C1303 H1327 0.949 . S
H1304 C1308 0.949 . S
C1305 C1306 1.349 . S
C1305 C1307 1.327 . S
C1305 H1328 0.950 . S
C1306 C1305 1.349 . S
C1306 C1318 1.349 . S
C1307 C1305 1.327 . S
C1307 C1323 1.429 . S
C1307 H1329 0.950 . S
C1308 H1304 0.949 . S
C1308 C1316 1.574 . S
C1308 C1324 1.368 . S
H1309 C1317 0.950 . S
H1310 C1315 0.950 . S
H1311 C1316 0.949 . S
H1312 C1318 0.950 . S
H1313 C1319 0.950 . S
H1314 C1320 0.949 . S
C1315 H1310 0.950 . S
C1315 C1317 1.327 . S
C1315 C1321 1.429 . S
C1316 C1308 1.574 . S
C1316 H1311 0.949 . S
C1316 C1322 1.368 . S
C1317 C1301 1.349 . S
C1317 H1309 0.950 . S
C1317 C1315 1.327 . S
C1318 C1306 1.349 . S
C1318 H1312 0.950 . S
C1318 C1319 1.327 . S
C1319 H1313 0.950 . S
C1319 C1318 1.327 . S
C1319 C1323 1.429 . S
C1320 C1303 1.574 . S
C1320 H1314 0.949 . S
C1320 C1324 1.368 . S
C1321 C1302 1.429 . S
C1321 C1315 1.429 . S
C1321 C1322 1.523 . S
C1322 C1303 1.368 . S
C1322 C1316 1.368 . S
C1322 C1321 1.523 . S
C1323 C1307 1.429 . S
C1323 C1319 1.429 . S
C1323 C1324 1.523 . S
C1324 C1308 1.368 . S
C1324 C1320 1.368 . S
C1324 C1323 1.523 . S
H1325 C1300 0.950 . S
H1326 C1302 0.950 . S
H1327 C1303 0.949 . S
H1328 C1305 0.950 . S
H1329 C1307 0.950 . S
C1330 C1331 1.349 . S
C1330 C1332 1.327 . S
C1330 H1355 0.950 . S
C1331 C1330 1.349 . S
C1331 C1347 1.349 . S
C1332 C1330 1.327 . S
C1332 C1351 1.429 . S
C1332 H1356 0.950 . S
C1333 C1350 1.574 . S
C1333 C1352 1.368 . S
C1333 H1357 0.949 . S
H1334 C1338 0.949 . S
C1335 C1336 1.349 . S
C1335 C1337 1.327 . S
C1335 H1358 0.950 . S
C1336 C1335 1.349 . S
C1336 C1348 1.349 . S
C1337 C1335 1.327 . S
C1337 C1353 1.429 . S
C1337 H1359 0.950 . S
C1338 H1334 0.949 . S
C1338 C1346 1.574 . S
C1338 C1354 1.368 . S
H1339 C1347 0.950 . S
H1340 C1345 0.950 . S
H1341 C1346 0.949 . S
H1342 C1348 0.950 . S
H1343 C1349 0.950 . S
H1344 C1350 0.949 . S
C1345 H1340 0.950 . S
C1345 C1347 1.327 . S
C1345 C1351 1.429 . S
C1346 C1338 1.574 . S
C1346 H1341 0.949 . S
C1346 C1352 1.368 . S
C1347 C1331 1.349 . S
C1347 H1339 0.950 . S
C1347 C1345 1.327 . S
C1348 C1336 1.349 . S
C1348 H1342 0.950 . S
C1348 C1349 1.327 . S
C1349 H1343 0.950 . S
C1349 C1348 1.327 . S
C1349 C1353 1.429 . S
C1350 C1333 1.574 . S
C1350 H1344 0.949 . S
C1350 C1354 1.368 . S
C1351 C1332 1.429 . S
C1351 C1345 1.429 . S
C1351 C1352 1.523 . S
C1352 C1333 1.368 . S
C1352 C1346 1.368 . S
C1352 C1351 1.523 . S
C1353 C1337 1.429 . S
C1353 C1349 1.429 . S
C1353 C1354 1.523 . S
C1354 C1338 1.368 . S
C1354 C1350 1.368 . S
C1354 C1353 1.523 . S
H1355 C1330 0.950 . S
H1356 C1332 0.950 . S
H1357 C1333 0.949 . S
H1358 C1335 0.950 . S
H1359 C1337 0.950 . S
C641 C1 1.241 . S
C646 C495 1.310 . S
C671 C80 1.239 . S
C676 C535 1.253 . S
C706 C569 2.163 . S
C701 C140 2.150 . S
C731 C211 2.646 . S
C736 C610 2.607 . S
C766 C530 1.410 . S
C761 C31 1.330 . S
C796 C490 2.180 . S
C791 C61 2.094 . S
C826 C618 1.450 . S
C821 C151 1.435 . S
C856 C579 1.772 . S
C851 C200 1.839 . S
C881 C20 1.169 . S
C886 C615 1.202 . S
C916 C538 1.926 . S
C911 C121 1.977 . S
C941 C181 2.430 . S
C946 C498 2.411 . S
C971 C91 1.576 . S
C976 C566 1.582 . S
C1006 C486 1.311 . S
C1001 C260 1.290 . S
C1031 C320 1.239 . S
C1036 C526 1.253 . S
C1061 C361 2.126 . S
C1066 C578 2.163 . S
C1091 C451 2.646 . S
C1096 C619 2.606 . S
C1121 C271 1.361 . S
C1126 C539 1.410 . S
C1156 C499 2.180 . S
C1151 C301 2.094 . S
C1186 C609 1.450 . S
C1181 C380 1.412 . S
C1216 C570 1.772 . S
C1211 C440 1.839 . S
C1241 C241 1.131 . S
C1246 C606 1.203 . S
C1276 C529 1.926 . S
C1271 C391 1.956 . S
C1306 C489 2.411 . S
C1301 C421 2.430 . S
C1331 C331 1.576 . S
C1336 C575 1.582 . S
