# Generated by pormake.
# Topology pth, (4,4)-cn, num edge types: 1
# Building blocks:
#     Node 0, Type 0, BuildingBlock: KUFVIS_clean_sbu_0, # of connection points: 4
#     Node 1, Type 0, BuildingBlock: KUFVIS_clean_sbu_0, # of connection points: 4
#     Node 2, Type 0, BuildingBlock: KUFVIS_clean_sbu_0, # of connection points: 4
#     Node 3, Type 1, BuildingBlock: NAWXER_clean_linker_0, # of connection points: 4
#     Node 4, Type 1, BuildingBlock: NAWXER_clean_linker_0, # of connection points: 4
#     Node 5, Type 1, BuildingBlock: NAWXER_clean_linker_0, # of connection points: 4
#     Edge 6, Type (0, 1), BuildingBlock: EZIPEK_clean_linker_0, # of connection points: 2
#     Edge 7, Type (0, 1), BuildingBlock: EZIPEK_clean_linker_0, # of connection points: 2
#     Edge 8, Type (0, 1), BuildingBlock: EZIPEK_clean_linker_0, # of connection points: 2
#     Edge 9, Type (0, 1), BuildingBlock: EZIPEK_clean_linker_0, # of connection points: 2
#     Edge 10, Type (0, 1), BuildingBlock: EZIPEK_clean_linker_0, # of connection points: 2
#     Edge 11, Type (0, 1), BuildingBlock: EZIPEK_clean_linker_0, # of connection points: 2
#     Edge 12, Type (0, 1), BuildingBlock: EZIPEK_clean_linker_0, # of connection points: 2
#     Edge 13, Type (0, 1), BuildingBlock: EZIPEK_clean_linker_0, # of connection points: 2
#     Edge 14, Type (0, 1), BuildingBlock: EZIPEK_clean_linker_0, # of connection points: 2
#     Edge 15, Type (0, 1), BuildingBlock: EZIPEK_clean_linker_0, # of connection points: 2
#     Edge 16, Type (0, 1), BuildingBlock: EZIPEK_clean_linker_0, # of connection points: 2
#     Edge 17, Type (0, 1), BuildingBlock: EZIPEK_clean_linker_0, # of connection points: 2
# Relax obj value: 0.011
# Max RMSD: 0.077
# Mean RMSD: 0.050
data_MOF--net-pth--node1-KUFVIS_clean_sbu_0--node2-NAWXER_clean_linker_0--edge1-EZIPEK_clean_linker_0
_symmetry_space_group_name_H-M    P1
_symmetry_Int_Tables_number       1
_symmetry_cell_setting            triclinic
loop_
_symmetry_equiv_pos_as_xyz
'x, y, z'
_cell_length_a     22.232161
_cell_length_b     22.251166
_cell_length_c     51.156972
_cell_angle_alpha  90.381166
_cell_angle_beta   92.137845
_cell_angle_gamma 120.22626
loop_
_atom_site_label
_atom_site_type_symbol
_atom_site_fract_x
_atom_site_fract_y
_atom_site_fract_z
_atom_type_partial_charge
Mn0 Mn 0.05672 0.0686 0.04923 0.0
Mn1 Mn 0.96318 0.13461 0.02099 0.0
C2 C 0.97995 0.01007 0.01384 0.0
C3 C 0.06857 1.00035 0.08099 0.0
C4 C 0.11625 0.19034 0.01176 0.0
O5 O 0.06531 0.13914 0.0767 0.0
O6 O 0.99685 0.17547 0.0572 0.0
C7 C 0.84301 0.07364 0.05521 0.0
N8 N 0.86869 0.08116 0.03096 0.0
C9 C 0.75349 0.00893 0.01131 0.0
C10 C 0.72596 0.99992 0.03613 0.0
C11 C 0.77096 0.03239 0.05818 0.0
C12 C 0.82583 0.05003 0.00961 0.0
H13 H 0.87718 0.09928 0.07211 0.0
C14 C 0.03556 0.17533 0.07643 0.0
O15 O 0.12269 0.0497 0.07017 0.0
O16 O 0.00812 0.99169 0.07383 0.0
N17 N 0.92678 0.09938 0.98621 0.0
C18 C 0.96134 0.11494 0.96355 0.0
C19 C 0.92374 0.08686 0.93964 0.0
C20 C 0.85093 0.04426 0.9392 0.0
C21 C 0.81627 0.0308 0.96266 0.0
C22 C 0.85652 0.06015 0.9859 0.0
H23 H 0.01726 0.14809 0.96369 0.0
O24 O 0.03021 0.99835 0.01997 0.0
O25 O 0.97621 0.05572 0.02865 0.0
O26 O 0.124 0.148 0.02631 0.0
O27 O 0.059 0.19062 0.00889 0.0
C28 C 0.74333 0.98973 0.96389 0.0
C29 C 0.71198 0.97867 0.9882 0.0
H30 H 0.67037 0.96835 0.03848 0.0
H31 H 0.75012 0.02598 0.0774 0.0
H32 H 0.95085 0.09804 0.92159 0.0
H33 H 0.82215 0.02263 0.92073 0.0
H34 H 0.71082 0.96637 0.94626 0.0
H35 H 0.65589 0.94667 0.98891 0.0
Mn36 Mn 0.01284 0.0541 0.38052 0.0
Mn37 Mn 0.0949 0.20952 0.41334 0.0
C38 C 0.09442 0.07394 0.41399 0.0
C39 C 0.00849 0.98429 0.34538 0.0
C40 C 0.94562 0.09618 0.42258 0.0
O41 O 0.99175 0.1154 0.35711 0.0
O42 O 0.05651 0.21863 0.37872 0.0
C43 C 0.21079 0.28292 0.37776 0.0
N44 N 0.18843 0.26107 0.40219 0.0
C45 C 0.30637 0.31234 0.41987 0.0
C46 C 0.33062 0.33584 0.39495 0.0
C47 C 0.28259 0.32079 0.37379 0.0
C48 C 0.23421 0.2743 0.42259 0.0
H49 H 0.17414 0.27136 0.3614 0.0
C50 C 0.01754 0.18109 0.3592 0.0
O51 O 0.95314 0.96965 0.3579 0.0
O52 O 0.06509 0.04144 0.35243 0.0
N53 N 0.13646 0.21015 0.44693 0.0
C54 C 0.10496 0.18729 0.46999 0.0
C55 C 0.14556 0.19685 0.49301 0.0
C56 C 0.21851 0.2326 0.4923 0.0
C57 C 0.25007 0.25964 0.46867 0.0
C58 C 0.20671 0.2477 0.44631 0.0
H59 H 0.04949 0.16356 0.4709 0.0
O60 O 0.04976 0.0112 0.40574 0.0
O61 O 0.09109 0.12355 0.40187 0.0
O62 O 0.94322 0.05025 0.40674 0.0
O63 O 0.9988 0.15734 0.42625 0.0
C64 C 0.32285 0.29842 0.46646 0.0
C65 C 0.35098 0.32469 0.44207 0.0
H66 H 0.38597 0.36516 0.39182 0.0
H67 H 0.30089 0.3384 0.35446 0.0
H68 H 0.12072 0.17763 0.51131 0.0
H69 H 0.24974 0.24016 0.51011 0.0
H70 H 0.35765 0.30815 0.48338 0.0
H71 H 0.40702 0.35395 0.44056 0.0
Mn72 Mn 0.05047 0.08186 0.71629 0.0
Mn73 Mn 0.97759 0.16579 0.74464 0.0
C74 C 0.10962 0.15989 0.75107 0.0
C75 C 0.11881 0.07748 0.68344 0.0
C76 C 0.93009 0.01322 0.75266 0.0
O77 O 0.97295 0.06714 0.68993 0.0
O78 O 0.94097 0.13997 0.70738 0.0
C79 C 0.03676 0.29571 0.71486 0.0
N80 N 0.02944 0.26323 0.73793 0.0
C81 C 0.09951 0.37307 0.76117 0.0
C82 C 0.10918 0.4074 0.73749 0.0
C83 C 0.07739 0.36851 0.71424 0.0
C84 C 0.05899 0.3003 0.76049 0.0
H85 H 0.01115 0.26631 0.69721 0.0
C86 C 0.93803 0.0984 0.6891 0.0
O87 O 0.07479 0.02189 0.69524 0.0
O88 O 0.12116 0.1349 0.69021 0.0
N89 N 0.00906 0.19321 0.78045 0.0
C90 C 0.99178 0.15259 0.80187 0.0
C91 C 0.01613 0.1838 0.82689 0.0
C92 C 0.05744 0.25647 0.8297 0.0
C93 C 0.07371 0.29729 0.80746 0.0
C94 C 0.04729 0.2633 0.78304 0.0
H95 H 0.95957 0.09675 0.79997 0.0
O96 O 0.12627 0.114 0.74443 0.0
O97 O 0.05929 0.15887 0.73694 0.0
O98 O 0.97809 0.01112 0.74043 0.0
O99 O 0.9227 0.06657 0.7537 0.0
C100 C 0.11489 0.3704 0.80858 0.0
C101 C 0.12814 0.40825 0.78543 0.0
H102 H 0.14025 0.46359 0.73697 0.0
H103 H 0.08374 0.39461 0.69591 0.0
H104 H 1.00317 0.15189 0.84396 0.0
H105 H 0.0765 0.28034 0.84902 0.0
H106 H 0.13661 0.39803 0.82716 0.0
H107 H 0.15992 0.46446 0.78654 0.0
C108 C 0.95758 0.33513 0.25639 0.0
C109 C 0.99913 0.35457 0.2797 0.0
C110 C 0.9617 0.3861 0.23939 0.0
C111 C 0.00807 0.45708 0.24539 0.0
C112 C 0.04467 0.42523 0.28583 0.0
C113 C 0.04894 0.47599 0.26888 0.0
C114 C 0.01238 0.51271 0.22837 0.0
C115 C 0.07756 0.38894 0.1778 0.0
C116 C 0.03556 0.36068 0.15479 0.0
C117 C 0.07164 0.43774 0.19325 0.0
C118 C 0.02317 0.45835 0.18598 0.0
C119 C 0.98716 0.38106 0.14755 0.0
C120 C 0.98132 0.42981 0.16293 0.0
C121 C 0.01898 0.51317 0.201 0.0
C122 C 0.10166 0.80676 0.17431 0.0
C123 C 0.05985 0.79477 0.15144 0.0
C124 C 0.09105 0.75112 0.18992 0.0
C125 C 0.03781 0.68296 0.18303 0.0
C126 C 0.00818 0.72658 0.14413 0.0
C127 C 0.99747 0.67107 0.15974 0.0
C128 C 0.02484 0.6235 0.19949 0.0
C129 C 0.97972 0.76658 0.24702 0.0
C130 C 0.00559 0.77978 0.27316 0.0
C131 C 0.98029 0.71396 0.23205 0.0
C132 C 0.01163 0.677 0.24226 0.0
C133 C 0.03265 0.73986 0.28389 0.0
C134 C 0.03668 0.69006 0.26854 0.0
C135 C 0.01573 0.62206 0.2268 0.0
H136 H 0.92176 0.28071 0.2515 0.0
H137 H 0.92807 0.3701 0.22181 0.0
H138 H 0.07692 0.44105 0.30378 0.0
H139 H 0.08458 0.53028 0.27409 0.0
H140 H 0.11552 0.37402 0.18352 0.0
H141 H 0.10587 0.46038 0.21053 0.0
H142 H 0.95461 0.35991 0.12978 0.0
H143 H 0.94418 0.44548 0.15679 0.0
H144 H 0.1422 0.85907 0.18006 0.0
H145 H 0.12398 0.76129 0.20746 0.0
H146 H 0.97584 0.71649 0.12643 0.0
H147 H 0.95681 0.61888 0.15387 0.0
H148 H 0.95802 0.79622 0.23833 0.0
H149 H 0.95584 0.70243 0.21259 0.0
H150 H 0.05226 0.74843 0.30408 0.0
H151 H 0.05988 0.66188 0.27734 0.0
N152 N 0.01077 0.56695 0.24 0.0
N153 N 0.02483 0.56848 0.18772 0.0
C154 C 0.70745 0.12527 0.482 0.0
C155 C 0.71829 0.06843 0.4826 0.0
C156 C 0.65913 0.12745 0.49803 0.0
C157 C 0.62218 0.07365 0.51533 0.0
C158 C 0.67941 0.01323 0.49921 0.0
C159 C 0.63186 0.016 0.5156 0.0
C160 C 0.57172 0.07744 0.53214 0.0
C161 C 0.66617 0.04051 0.61661 0.0
C162 C 0.73576 0.07512 0.60939 0.0
C163 C 0.61382 0.03842 0.59994 0.0
C164 C 0.62988 0.07246 0.57592 0.0
C165 C 0.75194 0.1077 0.58517 0.0
C166 C 0.70014 0.10857 0.5691 0.0
C167 C 0.57341 0.07422 0.55975 0.0
C168 C 0.29261 0.04609 0.58441 0.0
C169 C 0.31147 0.07245 0.6103 0.0
C170 C 0.34178 0.04524 0.56831 0.0
C171 C 0.41235 0.07594 0.57699 0.0
C172 C 0.38071 0.09867 0.61957 0.0
C173 C 0.43062 0.10159 0.60303 0.0
C174 C 0.46742 0.07847 0.56029 0.0
C175 C 0.35123 0.14989 0.50494 0.0
C176 C 0.31789 0.10247 0.48378 0.0
C177 C 0.40076 0.14507 0.52114 0.0
C178 C 0.41642 0.09221 0.51642 0.0
C179 C 0.3351 0.05121 0.47869 0.0
C180 C 0.38417 0.04631 0.4948 0.0
C181 C 0.4686 0.08539 0.53275 0.0
H182 H 0.73701 0.16826 0.46934 0.0
H183 H 0.65167 0.17195 0.49736 0.0
H184 H 0.68708 0.96888 0.49984 0.0
H185 H 0.60279 0.97342 0.52849 0.0
H186 H 0.65239 0.0153 0.63525 0.0
H187 H 0.56064 0.01091 0.60611 0.0
H188 H 0.80535 0.13522 0.57925 0.0
H189 H 0.71623 0.13963 0.55187 0.0
H190 H 0.23939 0.02475 0.57683 0.0
H191 H 0.32368 0.01971 0.54928 0.0
H192 H 0.39656 0.11842 0.63956 0.0
H193 H 0.48388 0.1242 0.61074 0.0
H194 H 0.33829 0.18977 0.50903 0.0
H195 H 0.42632 0.18195 0.53738 0.0
H196 H 0.30967 0.01429 0.46243 0.0
H197 H 0.3962 0.00578 0.49062 0.0
N198 N 0.52007 0.08367 0.51996 0.0
N199 N 0.52062 0.07413 0.57249 0.0
C200 C 0.35766 0.37475 0.83542 0.0
C201 C 0.30782 0.38414 0.82121 0.0
C202 C 0.4082 0.42817 0.85181 0.0
C203 C 0.41058 0.49223 0.85373 0.0
C204 C 0.30945 0.44788 0.82361 0.0
C205 C 0.36137 0.50205 0.83938 0.0
C206 C 0.4672 0.5503 0.86934 0.0
C207 C 0.30523 0.41396 0.92518 0.0
C208 C 0.32953 0.39306 0.94698 0.0
C209 C 0.35226 0.46455 0.90882 0.0
C210 C 0.42458 0.49332 0.91337 0.0
C211 C 0.4015 0.42273 0.95203 0.0
C212 C 0.44855 0.47203 0.93528 0.0
C213 C 0.47592 0.54908 0.89682 0.0
C214 C 0.72474 0.8316 0.92405 0.0
C215 C 0.75809 0.81142 0.94286 0.0
C216 C 0.66885 0.78137 0.90834 0.0
C217 C 0.64639 0.71034 0.91093 0.0
C218 C 0.73586 0.74069 0.94552 0.0
C219 C 0.6803 0.69052 0.92972 0.0
C220 C 0.58445 0.65602 0.89574 0.0
C221 C 0.73385 0.746 0.82794 0.0
C222 C 0.72902 0.80249 0.8183 0.0
C223 C 0.68472 0.69992 0.84493 0.0
C224 C 0.62924 0.70873 0.85199 0.0
C225 C 0.67363 0.81144 0.8256 0.0
C226 C 0.62333 0.76408 0.84194 0.0
C227 C 0.57504 0.65716 0.86838 0.0
H228 H 0.35748 0.32611 0.83372 0.0
H229 H 0.44645 0.42016 0.86252 0.0
H230 H 0.2717 0.45624 0.81274 0.0
H231 H 0.36299 0.55148 0.8405 0.0
H232 H 0.2498 0.39249 0.92128 0.0
H233 H 0.33168 0.48235 0.89315 0.0
H234 H 0.42114 0.40764 0.96892 0.0
H235 H 0.50387 0.49386 0.93957 0.0
H236 H 0.74104 0.886 0.92193 0.0
H237 H 0.64187 0.79803 0.89487 0.0
H238 H 0.76097 0.72438 0.96007 0.0
H239 H 0.66342 0.63607 0.93229 0.0
H240 H 0.77584 0.73788 0.8224 0.0
H241 H 0.68928 0.65671 0.85221 0.0
H242 H 0.66888 0.85456 0.81834 0.0
H243 H 0.58017 0.77091 0.84694 0.0
N244 N 0.51698 0.60423 0.85619 0.0
N245 N 0.53459 0.60199 0.90887 0.0
C246 C 0.09875 0.28942 0.10107 0.0
C247 C 0.04465 0.21905 0.09989 0.0
C248 C 0.99639 0.23853 0.13932 0.0
C249 C 0.04321 0.31112 0.13758 0.0
N250 N 0.13812 0.40711 0.11664 0.0
N251 N 0.94671 0.1229 0.11911 0.0
C252 C 0.09478 0.33697 0.11859 0.0
C253 C 0.99514 0.19231 0.11958 0.0
N254 N 0.15485 0.31003 0.08594 0.0
N255 N 0.95389 0.21425 0.15998 0.0
H256 H 0.94835 0.08734 0.10617 0.0
H257 H 0.90409 0.10044 0.1309 0.0
H258 H 0.95369 0.24707 0.17461 0.0
H259 H 0.92214 0.16181 0.16376 0.0
H260 H 0.19907 0.35936 0.08734 0.0
H261 H 0.16019 0.27507 0.07393 0.0
H262 H 0.17109 0.42949 0.10127 0.0
H263 H 0.13802 0.44358 0.12953 0.0
C264 C 0.82382 0.0767 0.42419 0.0
C265 C 0.88249 0.07886 0.43716 0.0
C266 C 0.83331 0.0741 0.47962 0.0
C267 C 0.77317 0.0688 0.4668 0.0
N268 N 0.70396 0.04972 0.42687 0.0
N269 N 0.93004 0.05491 0.47604 0.0
C270 C 0.76619 0.06547 0.43902 0.0
C271 C 0.88331 0.07016 0.46454 0.0
N272 N 0.82387 0.08715 0.3979 0.0
N273 N 0.84459 0.08612 0.50609 0.0
H274 H 0.96502 0.04876 0.4651 0.0
H275 H 0.92888 0.04124 0.49554 0.0
H276 H 0.81036 0.09144 0.51798 0.0
H277 H 0.8913 0.09757 0.51586 0.0
H278 H 0.78669 0.09481 0.38792 0.0
H279 H 0.86355 0.09222 0.38624 0.0
H280 H 0.6934 0.0399 0.4068 0.0
H281 H 0.66055 0.0403 0.43716 0.0
C282 C 0.80814 0.91584 0.75951 0.0
C283 C 0.88015 0.95154 0.76719 0.0
C284 C 0.85285 0.89185 0.80888 0.0
C285 C 0.7816 0.85208 0.80035 0.0
N286 N 0.69507 0.81357 0.76464 0.0
N287 N 0.97207 0.95876 0.79614 0.0
C288 C 0.76027 0.86022 0.77475 0.0
C289 C 0.90289 0.93451 0.79083 0.0
N290 N 0.78509 0.93567 0.73795 0.0
N291 N 0.87249 0.89209 0.83454 0.0
H292 H 0.00997 0.98781 0.78298 0.0
H293 H 0.99076 0.94313 0.81212 0.0
H294 H 0.83723 0.86393 0.84872 0.0
H295 H 0.92269 0.92586 0.8423 0.0
H296 H 0.73248 0.91662 0.73317 0.0
H297 H 0.81856 0.97495 0.7259 0.0
H298 H 0.67914 0.8132 0.7452 0.0
H299 H 0.65932 0.77081 0.77488 0.0
C300 C 0.0478 0.94883 0.12542 0.0
C301 C 0.07445 0.95385 0.10024 0.0
C302 C 0.10471 0.86485 0.11125 0.0
C303 C 0.06962 0.85335 0.13488 0.0
N304 N 1.00213 0.8795 0.16384 0.0
N305 N 0.12041 0.91069 0.06767 0.0
C306 C 0.03996 0.89433 0.14191 0.0
C307 C 0.10158 0.91084 0.0928 0.0
N308 N 0.03182 0.9974 0.13381 0.0
N309 N 0.14164 0.83225 0.10658 0.0
H310 H 0.11809 0.9427 0.05337 0.0
H311 H 0.13279 0.8747 0.06031 0.0
H312 H 0.1445 0.79778 0.1196 0.0
H313 H 0.17438 0.84401 0.09104 0.0
H314 H 0.01867 1.00075 0.15287 0.0
H315 H 0.03807 0.03868 0.1224 0.0
H316 H 0.97241 0.902 0.16837 0.0
H317 H 0.99636 0.84091 0.17668 0.0
C318 C 0.13697 0.05604 0.45784 0.0
C319 C 0.15224 0.08546 0.43265 0.0
C320 C 0.27727 0.13322 0.44251 0.0
C321 C 0.2618 0.10284 0.4674 0.0
N322 N 0.17878 0.03164 0.49873 0.0
N323 N 0.23447 0.13723 0.39867 0.0
C324 C 0.19211 0.06384 0.47519 0.0
C325 C 0.22181 0.12025 0.42433 0.0
N326 N 0.06946 0.02024 0.46508 0.0
N327 N 0.34527 0.17514 0.43645 0.0
H328 H 0.19534 0.12724 0.38452 0.0
H329 H 0.28295 0.15612 0.39072 0.0
H330 H 0.38703 0.18556 0.44938 0.0
H331 H 0.3606 0.20442 0.41967 0.0
H332 H 0.05456 0.00591 0.48411 0.0
H333 H 0.02732 0.00584 0.45194 0.0
H334 H 0.12934 0.99608 0.5047 0.0
H335 H 0.21795 0.03816 0.51231 0.0
C336 C 0.20114 0.28525 0.7593 0.0
C337 C 0.15701 0.21829 0.76933 0.0
C338 C 0.20736 0.26221 0.81359 0.0
C339 C 0.25502 0.32753 0.80333 0.0
N340 N 0.30755 0.39648 0.7657 0.0
N341 N 0.12856 0.13936 0.80497 0.0
C342 C 0.25444 0.33804 0.77599 0.0
C343 C 0.1637 0.20559 0.79614 0.0
N344 N 0.19326 0.29834 0.7337 0.0
N345 N 0.20149 0.25504 0.84006 0.0
H346 H 0.09346 0.09716 0.79308 0.0
H347 H 0.13755 0.12578 0.82355 0.0
H348 H 0.23028 0.29611 0.8535 0.0
H349 H 0.16305 0.21052 0.84862 0.0
H350 H 0.21713 0.34824 0.72632 0.0
H351 H 0.15923 0.26022 0.72008 0.0
H352 H 0.31424 0.40368 0.7457 0.0
H353 H 0.34932 0.43509 0.77703 0.0
C354 C 0.90421 0.14778 0.65155 0.0
C355 C 0.89292 0.0885 0.66533 0.0
C356 C 0.78857 0.0176 0.63686 0.0
C357 C 0.79184 0.07938 0.62769 0.0
N358 N 0.8491 0.20528 0.63058 0.0
N359 N 0.82318 0.96447 0.67095 0.0
C360 C 0.84888 0.14519 0.63607 0.0
C361 C 0.83502 0.02237 0.65782 0.0
N362 N 0.96893 0.20554 0.6522 0.0
N363 N 0.74295 0.9548 0.62497 0.0
H364 H 0.85776 0.96488 0.68535 0.0
H365 H 0.77711 0.91677 0.6685 0.0
H366 H 0.71022 0.94974 0.60892 0.0
H367 H 0.74274 0.90898 0.62923 0.0
H368 H 0.98117 0.24869 0.64088 0.0
H369 H 0.0118 0.20596 0.66148 0.0
H370 H 0.88744 0.25368 0.63832 0.0
H371 H 0.80752 0.20616 0.62086 0.0
C372 C 0.93699 0.95437 0.96892 0.0
C373 C 0.92256 0.96162 0.99522 0.0
C374 C 0.79942 0.87396 0.98643 0.0
C375 C 0.81467 0.86412 0.96063 0.0
N376 N 0.89826 0.88707 0.92794 0.0
N377 N 0.84378 0.91641 0.03065 0.0
C378 C 0.88362 0.90217 0.95203 0.0
C379 C 0.85476 0.91815 0.00446 0.0
N380 N 1.00115 0.99913 0.95986 0.0
N381 N 0.73171 0.84204 0.99355 0.0
H382 H 0.88281 0.94664 0.04474 0.0
H383 H 0.79738 0.88046 0.0388 0.0
H384 H 0.68969 0.80888 0.98093 0.0
H385 H 0.71652 0.85305 0.01111 0.0
H386 H 0.01331 1.00184 0.9403 0.0
H387 H 0.04075 0.03855 0.9716 0.0
H388 H 0.94853 0.90715 0.92153 0.0
H389 H 0.86016 0.85031 0.91484 0.0
C390 C 0.94879 0.89427 0.30852 0.0
C391 C 0.00859 0.93532 0.32532 0.0
C392 C 0.06993 0.8869 0.30229 0.0
C393 C 0.00653 0.83625 0.28947 0.0
N394 N 0.88111 0.78402 0.28502 0.0
N395 N 0.12025 0.95331 0.3424 0.0
C396 C 0.94449 0.83773 0.29377 0.0
C397 C 0.06793 0.92732 0.32335 0.0
N398 N 0.89718 0.91032 0.3058 0.0
N399 N 0.13225 0.89705 0.29432 0.0
H400 H 0.118 0.97577 0.35998 0.0
H401 H 0.16147 0.94356 0.34231 0.0
H402 H 0.1361 0.87058 0.27814 0.0
H403 H 0.17996 0.93736 0.30193 0.0
H404 H 0.85539 0.88484 0.29217 0.0
H405 H 0.90057 0.95432 0.31466 0.0
H406 H 0.83427 0.78039 0.28986 0.0
H407 H 0.8749 0.73968 0.27541 0.0
C408 C 0.23517 0.1344 0.66215 0.0
C409 C 0.16667 0.07636 0.66391 0.0
C410 C 0.19555 0.01231 0.63235 0.0
C411 C 0.25963 0.07374 0.62782 0.0
N412 N 0.32831 0.19903 0.63315 0.0
N413 N 0.07639 0.9672 0.64396 0.0
C414 C 0.2756 0.13671 0.64101 0.0
C415 C 0.14508 0.01725 0.64703 0.0
N416 N 0.26411 0.18535 0.68135 0.0
N417 N 0.18356 0.94881 0.62376 0.0
H418 H 0.03674 0.9714 0.65245 0.0
H419 H 0.05831 0.92615 0.63026 0.0
H420 H 0.22063 0.94205 0.61436 0.0
H421 H 0.13983 0.90233 0.62867 0.0
H422 H 0.31587 0.22556 0.68142 0.0
H423 H 0.2405 0.18256 0.69886 0.0
H424 H 0.33784 0.24653 0.64106 0.0
H425 H 0.35677 0.20349 0.61678 0.0
C426 C 0.19681 0.3144 0.99992 0.0
C427 C 0.17656 0.24289 0.99722 0.0
C428 C 0.2643 0.27199 0.96419 0.0
C429 C 0.27922 0.34194 0.9651 0.0
N430 N 0.25908 0.43063 0.9828 0.0
N431 N 0.18737 0.15224 0.97539 0.0
C432 C 0.24541 0.36339 0.98275 0.0
C433 C 0.21002 0.22141 0.97925 0.0
N434 N 0.17139 0.33593 0.01961 0.0
N435 N 0.3022 0.25387 0.94889 0.0
H436 H 0.15041 0.1134 0.98662 0.0
H437 H 0.20212 0.13236 0.96001 0.0
H438 H 0.33898 0.28799 0.93621 0.0
H439 H 0.30068 0.20643 0.94989 0.0
H440 H 0.19004 0.38787 0.02476 0.0
H441 H 0.1351 0.30189 0.03239 0.0
H442 H 0.22959 0.44756 0.99239 0.0
H443 H 0.29807 0.46942 0.97205 0.0
C444 C 0.03769 0.22432 0.31333 0.0
C445 C 0.00492 0.21752 0.33736 0.0
C446 C 0.9562 0.28821 0.32078 0.0
C447 C 0.99543 0.30156 0.29813 0.0
N448 N 0.07668 0.28672 0.27295 0.0
N449 N 0.93673 0.24602 0.36503 0.0
C450 C 0.03637 0.27006 0.29426 0.0
C451 C 0.9649 0.25007 0.34133 0.0
N452 N 0.07098 0.18787 0.30889 0.0
N453 N 0.90985 0.31129 0.32237 0.0
H454 H 0.93954 0.21637 0.3802 0.0
H455 H 0.91414 0.27519 0.37033 0.0
H456 H 0.90266 0.33973 0.3077 0.0
H457 H 0.87439 0.29755 0.33704 0.0
H458 H 0.08861 0.18389 0.29076 0.0
H459 H 0.07759 0.15773 0.32294 0.0
H460 H 0.11433 0.27275 0.27047 0.0
H461 H 0.07556 0.3184 0.25823 0.0
loop_
_geom_bond_atom_site_label_1
_geom_bond_atom_site_label_2
_geom_bond_distance
_geom_bond_site_symmetry_2
_ccdc_geom_bond_type
Mn0 O5 2.095 . S
Mn0 O15 2.162 . S
Mn0 O16 2.297 1_445 S
Mn0 O24 2.385 1_445 S
Mn0 O25 2.209 1_455 S
Mn0 O26 2.094 . S
Mn1 O6 2.121 . S
Mn1 N8 2.257 . S
Mn1 N17 2.282 1_554 S
Mn1 O25 2.215 . S
Mn1 O27 2.117 1_655 S
C2 O24 1.237 . S
C2 O25 1.283 1_565 S
C3 O15 1.281 1_565 S
C3 O16 1.236 1_455 S
C4 O26 1.240 . S
C4 O27 1.264 . S
O5 Mn0 2.095 . S
O5 C14 1.250 . S
O6 Mn1 2.121 . S
O6 C14 1.258 1_655 S
C7 N8 1.326 . S
C7 C11 1.460 . S
C7 H13 0.929 . S
N8 Mn1 2.257 . S
N8 C7 1.326 . S
N8 C12 1.362 1_554 S
C9 C10 1.258 . S
C9 C12 1.431 . S
C9 C29 1.449 . S
C10 C9 1.258 . S
C10 C11 1.477 1_556 S
C10 H30 0.931 . S
C11 C7 1.460 . S
C11 C10 1.477 1_554 S
C11 H31 0.930 . S
C12 N8 1.362 1_556 S
C12 C9 1.431 . S
C12 C22 1.476 . S
H13 C7 0.929 . S
C14 O5 1.250 . S
C14 O6 1.258 1_455 S
O15 Mn0 2.162 . S
O15 C3 1.281 1_545 S
O16 Mn0 2.297 1_665 S
O16 C3 1.236 1_655 S
N17 Mn1 2.282 1_556 S
N17 C18 1.328 . S
N17 C22 1.318 . S
C18 N17 1.328 . S
C18 C19 1.457 . S
C18 H23 0.929 1_655 S
C19 C18 1.457 . S
C19 C20 1.291 . S
C19 H32 0.931 . S
C20 C19 1.291 . S
C20 C21 1.373 . S
C20 H33 0.929 . S
C21 C20 1.373 . S
C21 C22 1.396 . S
C21 C28 1.403 . S
C22 C12 1.476 . S
C22 N17 1.318 . S
C22 C21 1.396 . S
H23 C18 0.929 1_455 S
O24 Mn0 2.385 1_665 S
O24 C2 1.237 . S
O25 Mn0 2.209 1_655 S
O25 Mn1 2.215 . S
O25 C2 1.283 1_545 S
O26 Mn0 2.094 . S
O26 C4 1.240 . S
O27 Mn1 2.117 1_455 S
O27 C4 1.264 . S
C28 C21 1.403 . S
C28 C29 1.399 . S
C28 H34 0.929 . S
C29 C9 1.449 . S
C29 C28 1.399 . S
C29 H35 0.930 . S
H30 C10 0.931 . S
H31 C11 0.930 . S
H32 C19 0.931 . S
H33 C20 0.929 . S
H34 C28 0.929 . S
H35 C29 0.930 . S
Mn36 O41 2.095 . S
Mn36 O51 2.162 1_545 S
Mn36 O52 2.297 1_655 S
Mn36 O60 2.385 1_655 S
Mn36 O61 2.209 1_655 S
Mn36 O62 2.094 . S
Mn37 O42 2.121 . S
Mn37 N44 2.257 . S
Mn37 N53 2.282 . S
Mn37 O61 2.215 . S
Mn37 O63 2.117 1_455 S
C38 O60 1.234 . S
C38 O61 1.283 . S
C39 O51 1.281 1_455 S
C39 O52 1.236 1_565 S
C40 O62 1.240 . S
C40 O63 1.264 . S
O41 Mn36 2.095 . S
O41 C50 1.250 1_655 S
O42 Mn37 2.121 . S
O42 C50 1.258 . S
C43 N44 1.326 . S
C43 C47 1.460 . S
C43 H49 0.929 . S
N44 Mn37 2.257 . S
N44 C43 1.326 . S
N44 C48 1.362 . S
C45 C46 1.258 . S
C45 C48 1.431 . S
C45 C65 1.449 . S
C46 C45 1.258 . S
C46 C47 1.477 . S
C46 H66 0.931 . S
C47 C43 1.460 . S
C47 C46 1.477 . S
C47 H67 0.930 . S
C48 N44 1.362 . S
C48 C45 1.431 . S
C48 C58 1.476 . S
H49 C43 0.929 . S
C50 O41 1.250 1_455 S
C50 O42 1.258 . S
O51 Mn36 2.162 1_565 S
O51 C39 1.281 1_655 S
O52 Mn36 2.297 1_455 S
O52 C39 1.236 1_545 S
N53 Mn37 2.282 . S
N53 C54 1.328 . S
N53 C58 1.318 . S
C54 N53 1.328 . S
C54 C55 1.457 . S
C54 H59 0.929 . S
C55 C54 1.457 . S
C55 C56 1.291 . S
C55 H68 0.931 . S
C56 C55 1.291 . S
C56 C57 1.373 . S
C56 H69 0.929 . S
C57 C56 1.373 . S
C57 C58 1.396 . S
C57 C64 1.403 . S
C58 C48 1.476 . S
C58 N53 1.318 . S
C58 C57 1.396 . S
H59 C54 0.929 . S
O60 Mn36 2.385 1_455 S
O60 C38 1.234 . S
O61 Mn36 2.209 1_455 S
O61 Mn37 2.215 . S
O61 C38 1.283 . S
O62 Mn36 2.094 . S
O62 C40 1.240 . S
O63 Mn37 2.117 1_655 S
O63 C40 1.264 . S
C64 C57 1.403 . S
C64 C65 1.399 . S
C64 H70 0.929 . S
C65 C45 1.449 . S
C65 C64 1.399 . S
C65 H71 0.930 . S
H66 C46 0.931 . S
H67 C47 0.930 . S
H68 C55 0.931 . S
H69 C56 0.929 . S
H70 C64 0.929 . S
H71 C65 0.930 . S
Mn72 O77 2.095 1_455 S
Mn72 O87 2.162 . S
Mn72 O88 2.297 . S
Mn72 O96 2.385 . S
Mn72 O97 2.209 . S
Mn72 O98 2.094 1_445 S
Mn73 O78 2.121 . S
Mn73 N80 2.257 . S
Mn73 N89 2.282 . S
Mn73 O97 2.215 1_655 S
Mn73 O99 2.117 . S
C74 O96 1.234 . S
C74 O97 1.283 . S
C75 O87 1.281 . S
C75 O88 1.236 . S
C76 O98 1.240 . S
C76 O99 1.264 1_565 S
O77 Mn72 2.095 1_655 S
O77 C86 1.250 . S
O78 Mn73 2.121 . S
O78 C86 1.258 . S
C79 N80 1.326 . S
C79 C83 1.460 . S
C79 H85 0.929 . S
N80 Mn73 2.257 . S
N80 C79 1.326 . S
N80 C84 1.362 1_655 S
C81 C82 1.258 . S
C81 C84 1.431 . S
C81 C101 1.449 . S
C82 C81 1.258 . S
C82 C83 1.477 1_455 S
C82 H102 0.931 . S
C83 C79 1.460 . S
C83 C82 1.477 1_655 S
C83 H103 0.930 . S
C84 N80 1.362 1_455 S
C84 C81 1.431 . S
C84 C94 1.476 . S
H85 C79 0.929 . S
C86 O77 1.250 . S
C86 O78 1.258 . S
O87 Mn72 2.162 . S
O87 C75 1.281 . S
O88 Mn72 2.297 . S
O88 C75 1.236 . S
N89 Mn73 2.282 . S
N89 C90 1.328 1_655 S
N89 C94 1.318 1_655 S
C90 N89 1.328 1_455 S
C90 C91 1.457 . S
C90 H95 0.929 1_455 S
C91 C90 1.457 . S
C91 C92 1.291 . S
C91 H104 0.931 . S
C92 C91 1.291 . S
C92 C93 1.373 . S
C92 H105 0.929 . S
C93 C92 1.373 . S
C93 C94 1.396 . S
C93 C100 1.403 . S
C94 C84 1.476 . S
C94 N89 1.318 1_455 S
C94 C93 1.396 . S
H95 C90 0.929 1_655 S
O96 Mn72 2.385 . S
O96 C74 1.234 . S
O97 Mn72 2.209 . S
O97 Mn73 2.215 1_455 S
O97 C74 1.283 . S
O98 Mn72 2.094 1_665 S
O98 C76 1.240 . S
O99 Mn73 2.117 . S
O99 C76 1.264 1_545 S
C100 C93 1.403 . S
C100 C101 1.399 . S
C100 H106 0.929 . S
C101 C81 1.449 . S
C101 C100 1.399 . S
C101 H107 0.930 . S
H102 C82 0.931 . S
H103 C83 0.930 . S
H104 C91 0.931 . S
H105 C92 0.929 . S
H106 C100 0.929 . S
H107 C101 0.930 . S
C108 C109 1.384 1_655 S
C108 C110 1.384 . S
C108 H136 0.931 . S
C109 C108 1.384 1_455 S
C109 C112 1.382 . S
C110 C108 1.384 . S
C110 C111 1.381 1_655 S
C110 H137 0.930 . S
C111 C110 1.381 1_455 S
C111 C113 1.381 . S
C111 C114 1.487 . S
C112 C109 1.382 . S
C112 C113 1.387 . S
C112 H138 0.930 . S
C113 C111 1.381 . S
C113 C112 1.387 . S
C113 H139 0.931 . S
C114 C111 1.487 . S
C114 C121 1.399 . S
C114 N152 1.343 . S
C115 C116 1.384 . S
C115 C117 1.384 . S
C115 H140 0.931 . S
C116 C115 1.384 . S
C116 C119 1.382 1_455 S
C117 C115 1.384 . S
C117 C118 1.381 . S
C117 H141 0.930 . S
C118 C117 1.381 . S
C118 C120 1.381 1_455 S
C118 C121 1.487 . S
C119 C116 1.382 1_655 S
C119 C120 1.387 . S
C119 H142 0.930 . S
C120 C118 1.381 1_655 S
C120 C119 1.387 . S
C120 H143 0.931 . S
C121 C114 1.399 . S
C121 C118 1.487 . S
C121 N153 1.343 . S
C122 C123 1.384 . S
C122 C124 1.384 . S
C122 H144 0.931 . S
C123 C122 1.384 . S
C123 C126 1.382 1_455 S
C124 C122 1.384 . S
C124 C125 1.381 . S
C124 H145 0.930 . S
C125 C124 1.381 . S
C125 C127 1.381 1_455 S
C125 C128 1.487 . S
C126 C123 1.382 1_655 S
C126 C127 1.387 . S
C126 H146 0.930 . S
C127 C125 1.381 1_655 S
C127 C126 1.387 . S
C127 H147 0.931 . S
C128 C125 1.487 . S
C128 C135 1.399 . S
C128 N153 1.343 . S
C129 C130 1.384 1_655 S
C129 C131 1.384 . S
C129 H148 0.931 . S
C130 C129 1.384 1_455 S
C130 C133 1.382 . S
C131 C129 1.384 . S
C131 C132 1.381 1_655 S
C131 H149 0.930 . S
C132 C131 1.381 1_455 S
C132 C134 1.381 . S
C132 C135 1.487 . S
C133 C130 1.382 . S
C133 C134 1.387 . S
C133 H150 0.930 . S
C134 C132 1.381 . S
C134 C133 1.387 . S
C134 H151 0.931 . S
C135 C128 1.399 . S
C135 C132 1.487 . S
C135 N152 1.343 . S
H136 C108 0.931 . S
H137 C110 0.930 . S
H138 C112 0.930 . S
H139 C113 0.931 . S
H140 C115 0.931 . S
H141 C117 0.930 . S
H142 C119 0.930 . S
H143 C120 0.931 . S
H144 C122 0.931 . S
H145 C124 0.930 . S
H146 C126 0.930 . S
H147 C127 0.931 . S
H148 C129 0.931 . S
H149 C131 0.930 . S
H150 C133 0.930 . S
H151 C134 0.931 . S
N152 C114 1.343 . S
N152 C135 1.343 . S
N153 C121 1.343 . S
N153 C128 1.343 . S
C154 C155 1.384 . S
C154 C156 1.384 . S
C154 H182 0.931 . S
C155 C154 1.384 . S
C155 C158 1.382 . S
C156 C154 1.384 . S
C156 C157 1.381 . S
C156 H183 0.930 . S
C157 C156 1.381 . S
C157 C159 1.381 . S
C157 C160 1.487 . S
C158 C155 1.382 . S
C158 C159 1.387 . S
C158 H184 0.930 . S
C159 C157 1.381 . S
C159 C158 1.387 . S
C159 H185 0.931 . S
C160 C157 1.487 . S
C160 C167 1.399 . S
C160 N198 1.343 . S
C161 C162 1.384 . S
C161 C163 1.384 . S
C161 H186 0.931 . S
C162 C161 1.384 . S
C162 C165 1.382 . S
C163 C161 1.384 . S
C163 C164 1.381 . S
C163 H187 0.930 . S
C164 C163 1.381 . S
C164 C166 1.381 . S
C164 C167 1.487 . S
C165 C162 1.382 . S
C165 C166 1.387 . S
C165 H188 0.930 . S
C166 C164 1.381 . S
C166 C165 1.387 . S
C166 H189 0.931 . S
C167 C160 1.399 . S
C167 C164 1.487 . S
C167 N199 1.343 . S
C168 C169 1.384 . S
C168 C170 1.384 . S
C168 H190 0.931 . S
C169 C168 1.384 . S
C169 C172 1.382 . S
C170 C168 1.384 . S
C170 C171 1.381 . S
C170 H191 0.930 . S
C171 C170 1.381 . S
C171 C173 1.381 . S
C171 C174 1.487 . S
C172 C169 1.382 . S
C172 C173 1.387 . S
C172 H192 0.930 . S
C173 C171 1.381 . S
C173 C172 1.387 . S
C173 H193 0.931 . S
C174 C171 1.487 . S
C174 C181 1.399 . S
C174 N199 1.343 . S
C175 C176 1.384 . S
C175 C177 1.384 . S
C175 H194 0.931 . S
C176 C175 1.384 . S
C176 C179 1.382 . S
C177 C175 1.384 . S
C177 C178 1.381 . S
C177 H195 0.930 . S
C178 C177 1.381 . S
C178 C180 1.381 . S
C178 C181 1.487 . S
C179 C176 1.382 . S
C179 C180 1.387 . S
C179 H196 0.930 . S
C180 C178 1.381 . S
C180 C179 1.387 . S
C180 H197 0.931 . S
C181 C174 1.399 . S
C181 C178 1.487 . S
C181 N198 1.343 . S
H182 C154 0.931 . S
H183 C156 0.930 . S
H184 C158 0.930 . S
H185 C159 0.931 . S
H186 C161 0.931 . S
H187 C163 0.930 . S
H188 C165 0.930 . S
H189 C166 0.931 . S
H190 C168 0.931 . S
H191 C170 0.930 . S
H192 C172 0.930 . S
H193 C173 0.931 . S
H194 C175 0.931 . S
H195 C177 0.930 . S
H196 C179 0.930 . S
H197 C180 0.931 . S
N198 C160 1.343 . S
N198 C181 1.343 . S
N199 C167 1.343 . S
N199 C174 1.343 . S
C200 C201 1.384 . S
C200 C202 1.384 . S
C200 H228 0.931 . S
C201 C200 1.384 . S
C201 C204 1.382 . S
C202 C200 1.384 . S
C202 C203 1.381 . S
C202 H229 0.930 . S
C203 C202 1.381 . S
C203 C205 1.381 . S
C203 C206 1.487 . S
C204 C201 1.382 . S
C204 C205 1.387 . S
C204 H230 0.930 . S
C205 C203 1.381 . S
C205 C204 1.387 . S
C205 H231 0.931 . S
C206 C203 1.487 . S
C206 C213 1.399 . S
C206 N244 1.343 . S
C207 C208 1.384 . S
C207 C209 1.384 . S
C207 H232 0.931 . S
C208 C207 1.384 . S
C208 C211 1.382 . S
C209 C207 1.384 . S
C209 C210 1.381 . S
C209 H233 0.930 . S
C210 C209 1.381 . S
C210 C212 1.381 . S
C210 C213 1.487 . S
C211 C208 1.382 . S
C211 C212 1.387 . S
C211 H234 0.930 . S
C212 C210 1.381 . S
C212 C211 1.387 . S
C212 H235 0.931 . S
C213 C206 1.399 . S
C213 C210 1.487 . S
C213 N245 1.343 . S
C214 C215 1.384 . S
C214 C216 1.384 . S
C214 H236 0.931 . S
C215 C214 1.384 . S
C215 C218 1.382 . S
C216 C214 1.384 . S
C216 C217 1.381 . S
C216 H237 0.930 . S
C217 C216 1.381 . S
C217 C219 1.381 . S
C217 C220 1.487 . S
C218 C215 1.382 . S
C218 C219 1.387 . S
C218 H238 0.930 . S
C219 C217 1.381 . S
C219 C218 1.387 . S
C219 H239 0.931 . S
C220 C217 1.487 . S
C220 C227 1.399 . S
C220 N245 1.343 . S
C221 C222 1.384 . S
C221 C223 1.384 . S
C221 H240 0.931 . S
C222 C221 1.384 . S
C222 C225 1.382 . S
C223 C221 1.384 . S
C223 C224 1.381 . S
C223 H241 0.930 . S
C224 C223 1.381 . S
C224 C226 1.381 . S
C224 C227 1.487 . S
C225 C222 1.382 . S
C225 C226 1.387 . S
C225 H242 0.930 . S
C226 C224 1.381 . S
C226 C225 1.387 . S
C226 H243 0.931 . S
C227 C220 1.399 . S
C227 C224 1.487 . S
C227 N244 1.343 . S
H228 C200 0.931 . S
H229 C202 0.930 . S
H230 C204 0.930 . S
H231 C205 0.931 . S
H232 C207 0.931 . S
H233 C209 0.930 . S
H234 C211 0.930 . S
H235 C212 0.931 . S
H236 C214 0.931 . S
H237 C216 0.930 . S
H238 C218 0.930 . S
H239 C219 0.931 . S
H240 C221 0.931 . S
H241 C223 0.930 . S
H242 C225 0.930 . S
H243 C226 0.931 . S
N244 C206 1.343 . S
N244 C227 1.343 . S
N245 C213 1.343 . S
N245 C220 1.343 . S
C246 C247 1.363 . S
C246 C252 1.379 . S
C246 N254 1.356 . S
C247 C246 1.363 . S
C247 C253 1.363 1_455 S
C248 C249 1.363 1_655 S
C248 C253 1.379 . S
C248 N255 1.356 . S
C249 C248 1.363 1_455 S
C249 C252 1.363 . S
N250 C252 1.356 . S
N250 H262 0.984 . S
N250 H263 0.985 . S
N251 C253 1.356 . S
N251 H256 0.984 . S
N251 H257 0.985 . S
C252 C246 1.379 . S
C252 C249 1.363 . S
C252 N250 1.356 . S
C253 C247 1.363 1_655 S
C253 C248 1.379 . S
C253 N251 1.356 . S
N254 C246 1.356 . S
N254 H260 0.984 . S
N254 H261 0.984 . S
N255 C248 1.356 . S
N255 H258 0.984 . S
N255 H259 0.985 . S
H256 N251 0.984 . S
H257 N251 0.985 . S
H258 N255 0.984 . S
H259 N255 0.985 . S
H260 N254 0.984 . S
H261 N254 0.984 . S
H262 N250 0.984 . S
H263 N250 0.985 . S
C264 C265 1.363 . S
C264 C270 1.379 . S
C264 N272 1.356 . S
C265 C264 1.363 . S
C265 C271 1.363 . S
C266 C267 1.363 . S
C266 C271 1.379 . S
C266 N273 1.356 1_545 S
C267 C266 1.363 . S
C267 C270 1.363 . S
N268 C270 1.356 . S
N268 H280 0.984 . S
N268 H281 0.985 . S
N269 C271 1.356 1_565 S
N269 H274 0.984 . S
N269 H275 0.985 . S
C270 C264 1.379 . S
C270 C267 1.363 . S
C270 N268 1.356 . S
C271 C265 1.363 . S
C271 C266 1.379 . S
C271 N269 1.356 1_545 S
N272 C264 1.356 . S
N272 H278 0.984 . S
N272 H279 0.984 . S
N273 C266 1.356 1_565 S
N273 H276 0.984 1_565 S
N273 H277 0.985 . S
H274 N269 0.984 . S
H275 N269 0.985 . S
H276 N273 0.984 1_545 S
H277 N273 0.985 . S
H278 N272 0.984 . S
H279 N272 0.984 . S
H280 N268 0.984 . S
H281 N268 0.985 . S
C282 C283 1.363 . S
C282 C288 1.379 . S
C282 N290 1.356 . S
C283 C282 1.363 . S
C283 C289 1.363 . S
C284 C285 1.363 . S
C284 C289 1.379 . S
C284 N291 1.356 . S
C285 C284 1.363 . S
C285 C288 1.363 . S
N286 C288 1.356 . S
N286 H298 0.984 . S
N286 H299 0.985 . S
N287 C289 1.356 . S
N287 H292 0.984 . S
N287 H293 0.985 . S
C288 C282 1.379 . S
C288 C285 1.363 . S
C288 N286 1.356 . S
C289 C283 1.363 . S
C289 C284 1.379 . S
C289 N287 1.356 . S
N290 C282 1.356 . S
N290 H296 0.984 . S
N290 H297 0.984 . S
N291 C284 1.356 . S
N291 H294 0.984 . S
N291 H295 0.985 . S
H292 N287 0.984 . S
H293 N287 0.985 . S
H294 N291 0.984 . S
H295 N291 0.985 . S
H296 N290 0.984 . S
H297 N290 0.984 . S
H298 N286 0.984 . S
H299 N286 0.985 . S
C300 C301 1.363 . S
C300 C306 1.379 . S
C300 N308 1.356 . S
C301 C300 1.363 . S
C301 C307 1.363 . S
C302 C303 1.363 . S
C302 C307 1.379 . S
C302 N309 1.356 . S
C303 C302 1.363 . S
C303 C306 1.363 . S
N304 C306 1.356 . S
N304 H316 0.984 . S
N304 H317 0.985 . S
N305 C307 1.356 . S
N305 H310 0.984 . S
N305 H311 0.985 . S
C306 C300 1.379 . S
C306 C303 1.363 . S
C306 N304 1.356 . S
C307 C301 1.363 . S
C307 C302 1.379 . S
C307 N305 1.356 . S
N308 C300 1.356 . S
N308 H314 0.984 1_565 S
N308 H315 0.984 1_565 S
N309 C302 1.356 . S
N309 H312 0.984 . S
N309 H313 0.985 . S
H310 N305 0.984 . S
H311 N305 0.985 . S
H312 N309 0.984 . S
H313 N309 0.985 . S
H314 N308 0.984 1_545 S
H315 N308 0.984 1_545 S
H316 N304 0.984 . S
H317 N304 0.985 . S
C318 C319 1.363 . S
C318 C324 1.379 . S
C318 N326 1.356 . S
C319 C318 1.363 . S
C319 C325 1.363 . S
C320 C321 1.363 . S
C320 C325 1.379 . S
C320 N327 1.356 . S
C321 C320 1.363 . S
C321 C324 1.363 . S
N322 C324 1.356 . S
N322 H334 0.984 1_545 S
N322 H335 0.985 . S
N323 C325 1.356 . S
N323 H328 0.984 . S
N323 H329 0.985 . S
C324 C318 1.379 . S
C324 C321 1.363 . S
C324 N322 1.356 . S
C325 C319 1.363 . S
C325 C320 1.379 . S
C325 N323 1.356 . S
N326 C318 1.356 . S
N326 H332 0.984 1_545 S
N326 H333 0.984 . S
N327 C320 1.356 . S
N327 H330 0.984 . S
N327 H331 0.985 . S
H328 N323 0.984 . S
H329 N323 0.985 . S
H330 N327 0.984 . S
H331 N327 0.985 . S
H332 N326 0.984 1_565 S
H333 N326 0.984 . S
H334 N322 0.984 1_565 S
H335 N322 0.985 . S
C336 C337 1.363 . S
C336 C342 1.379 . S
C336 N344 1.356 . S
C337 C336 1.363 . S
C337 C343 1.363 . S
C338 C339 1.363 . S
C338 C343 1.379 . S
C338 N345 1.356 . S
C339 C338 1.363 . S
C339 C342 1.363 . S
N340 C342 1.356 . S
N340 H352 0.984 . S
N340 H353 0.985 . S
N341 C343 1.356 . S
N341 H346 0.984 . S
N341 H347 0.985 . S
C342 C336 1.379 . S
C342 C339 1.363 . S
C342 N340 1.356 . S
C343 C337 1.363 . S
C343 C338 1.379 . S
C343 N341 1.356 . S
N344 C336 1.356 . S
N344 H350 0.984 . S
N344 H351 0.984 . S
N345 C338 1.356 . S
N345 H348 0.984 . S
N345 H349 0.985 . S
H346 N341 0.984 . S
H347 N341 0.985 . S
H348 N345 0.984 . S
H349 N345 0.985 . S
H350 N344 0.984 . S
H351 N344 0.984 . S
H352 N340 0.984 . S
H353 N340 0.985 . S
C354 C355 1.363 . S
C354 C360 1.379 . S
C354 N362 1.356 . S
C355 C354 1.363 . S
C355 C361 1.363 . S
C356 C357 1.363 . S
C356 C361 1.379 . S
C356 N363 1.356 . S
C357 C356 1.363 . S
C357 C360 1.363 . S
N358 C360 1.356 . S
N358 H370 0.984 . S
N358 H371 0.985 . S
N359 C361 1.356 . S
N359 H364 0.984 . S
N359 H365 0.985 1_545 S
C360 C354 1.379 . S
C360 C357 1.363 . S
C360 N358 1.356 . S
C361 C355 1.363 . S
C361 C356 1.379 . S
C361 N359 1.356 . S
N362 C354 1.356 . S
N362 H368 0.984 . S
N362 H369 0.984 . S
N363 C356 1.356 . S
N363 H366 0.984 . S
N363 H367 0.985 1_545 S
H364 N359 0.984 . S
H365 N359 0.985 1_565 S
H366 N363 0.984 . S
H367 N363 0.985 1_565 S
H368 N362 0.984 . S
H369 N362 0.984 . S
H370 N358 0.984 . S
H371 N358 0.985 . S
C372 C373 1.363 . S
C372 C378 1.379 . S
C372 N380 1.356 . S
C373 C372 1.363 . S
C373 C379 1.363 . S
C374 C375 1.363 . S
C374 C379 1.379 . S
C374 N381 1.356 . S
C375 C374 1.363 . S
C375 C378 1.363 . S
N376 C378 1.356 . S
N376 H388 0.984 . S
N376 H389 0.985 . S
N377 C379 1.356 1_554 S
N377 H382 0.984 1_565 S
N377 H383 0.985 . S
C378 C372 1.379 . S
C378 C375 1.363 . S
C378 N376 1.356 . S
C379 C373 1.363 . S
C379 C374 1.379 . S
C379 N377 1.356 1_556 S
N380 C372 1.356 . S
N380 H386 0.986 1_655 S
N380 H387 0.978 1_556 S
N381 C374 1.356 . S
N381 H384 0.984 . S
N381 H385 0.985 . S
H382 N377 0.984 1_545 S
H383 N377 0.985 . S
H384 N381 0.984 . S
H385 N381 0.985 . S
H386 N380 0.986 1_455 S
H387 N380 0.978 1_554 S
H388 N376 0.984 . S
H389 N376 0.985 . S
C390 C391 1.363 1_655 S
C390 C396 1.379 . S
C390 N398 1.356 . S
C391 C390 1.363 1_455 S
C391 C397 1.363 . S
C392 C393 1.363 . S
C392 C397 1.379 . S
C392 N399 1.356 . S
C393 C392 1.363 . S
C393 C396 1.363 1_455 S
N394 C396 1.356 . S
N394 H406 0.984 . S
N394 H407 0.985 . S
N395 C397 1.356 . S
N395 H400 0.984 . S
N395 H401 0.985 . S
C396 C390 1.379 . S
C396 C393 1.363 1_655 S
C396 N394 1.356 . S
C397 C391 1.363 . S
C397 C392 1.379 . S
C397 N395 1.356 . S
N398 C390 1.356 . S
N398 H404 0.984 . S
N398 H405 0.984 . S
N399 C392 1.356 . S
N399 H402 0.984 . S
N399 H403 0.985 . S
H400 N395 0.984 . S
H401 N395 0.985 . S
H402 N399 0.984 . S
H403 N399 0.985 . S
H404 N398 0.984 . S
H405 N398 0.984 . S
H406 N394 0.984 . S
H407 N394 0.985 . S
C408 C409 1.363 . S
C408 C414 1.379 . S
C408 N416 1.356 . S
C409 C408 1.363 . S
C409 C415 1.363 . S
C410 C411 1.363 . S
C410 C415 1.379 . S
C410 N417 1.356 1_545 S
C411 C410 1.363 . S
C411 C414 1.363 . S
N412 C414 1.356 . S
N412 H424 0.984 . S
N412 H425 0.985 . S
N413 C415 1.356 1_565 S
N413 H418 0.984 . S
N413 H419 0.985 . S
C414 C408 1.379 . S
C414 C411 1.363 . S
C414 N412 1.356 . S
C415 C409 1.363 . S
C415 C410 1.379 . S
C415 N413 1.356 1_545 S
N416 C408 1.356 . S
N416 H422 0.984 . S
N416 H423 0.984 . S
N417 C410 1.356 1_565 S
N417 H420 0.984 1_565 S
N417 H421 0.985 . S
H418 N413 0.984 . S
H419 N413 0.985 . S
H420 N417 0.984 1_545 S
H421 N417 0.985 . S
H422 N416 0.984 . S
H423 N416 0.984 . S
H424 N412 0.984 . S
H425 N412 0.985 . S
C426 C427 1.363 . S
C426 C432 1.379 . S
C426 N434 1.356 1_556 S
C427 C426 1.363 . S
C427 C433 1.363 . S
C428 C429 1.363 . S
C428 C433 1.379 . S
C428 N435 1.356 . S
C429 C428 1.363 . S
C429 C432 1.363 . S
N430 C432 1.356 . S
N430 H442 0.984 . S
N430 H443 0.985 . S
N431 C433 1.356 . S
N431 H436 0.988 . S
N431 H437 0.985 . S
C432 C426 1.379 . S
C432 C429 1.363 . S
C432 N430 1.356 . S
C433 C427 1.363 . S
C433 C428 1.379 . S
C433 N431 1.356 . S
N434 C426 1.356 1_554 S
N434 H440 0.984 . S
N434 H441 0.984 . S
N435 C428 1.356 . S
N435 H438 0.984 . S
N435 H439 0.985 . S
H436 N431 0.988 . S
H437 N431 0.985 . S
H438 N435 0.984 . S
H439 N435 0.985 . S
H440 N434 0.984 . S
H441 N434 0.984 . S
H442 N430 0.984 . S
H443 N430 0.985 . S
C444 C445 1.363 1_655 S
C444 C450 1.379 . S
C444 N452 1.356 . S
C445 C444 1.363 1_455 S
C445 C451 1.363 . S
C446 C447 1.363 . S
C446 C451 1.379 . S
C446 N453 1.356 . S
C447 C446 1.363 . S
C447 C450 1.363 1_455 S
N448 C450 1.356 . S
N448 H460 0.984 . S
N448 H461 0.985 . S
N449 C451 1.356 . S
N449 H454 0.984 . S
N449 H455 0.985 . S
C450 C444 1.379 . S
C450 C447 1.363 1_655 S
C450 N448 1.356 . S
C451 C445 1.363 . S
C451 C446 1.379 . S
C451 N449 1.356 . S
N452 C444 1.356 . S
N452 H458 0.984 . S
N452 H459 0.984 . S
N453 C446 1.356 . S
N453 H456 0.984 . S
N453 H457 0.985 . S
H454 N449 0.984 . S
H455 N449 0.985 . S
H456 N453 0.984 . S
H457 N453 0.985 . S
H458 N452 0.984 . S
H459 N452 0.984 . S
H460 N448 0.984 . S
H461 N448 0.985 . S
C249 C116 1.490 . S
C247 C14 1.447 . S
C265 C40 1.492 . S
C267 C155 1.509 . S
C283 C76 1.475 . S
C285 C222 1.495 . S
C301 C3 1.472 . S
C303 C123 1.473 . S
C321 C176 1.504 . S
C319 C38 1.490 . S
C337 C74 1.468 . S
C339 C201 1.485 . S
C357 C162 1.466 . S
C355 C86 1.421 . S
C373 C2 1.468 1_556 S
C375 C215 1.485 . S
C393 C130 1.474 . S
C391 C39 1.473 . S
C411 C169 1.484 . S
C409 C75 1.482 . S
C429 C208 1.493 . S
C427 C4 1.476 1_556 S
C445 C50 1.447 . S
C447 C109 1.490 . S
