# Generated by pormake.
# Topology zzz, (3,6)-cn, num edge types: 1
# Building blocks:
#     Node 0, Type 0, BuildingBlock: INOVEN_clean_linker_0, # of connection points: 3
#     Node 1, Type 0, BuildingBlock: INOVEN_clean_linker_0, # of connection points: 3
#     Node 2, Type 0, BuildingBlock: INOVEN_clean_linker_0, # of connection points: 3
#     Node 3, Type 0, BuildingBlock: INOVEN_clean_linker_0, # of connection points: 3
#     Node 4, Type 0, BuildingBlock: INOVEN_clean_linker_0, # of connection points: 3
#     Node 5, Type 0, BuildingBlock: INOVEN_clean_linker_0, # of connection points: 3
#     Node 6, Type 0, BuildingBlock: INOVEN_clean_linker_0, # of connection points: 3
#     Node 7, Type 0, BuildingBlock: INOVEN_clean_linker_0, # of connection points: 3
#     Node 8, Type 1, BuildingBlock: FUNLAD_clean_sbu_0, # of connection points: 6
#     Node 9, Type 1, BuildingBlock: FUNLAD_clean_sbu_0, # of connection points: 6
#     Node 10, Type 1, BuildingBlock: FUNLAD_clean_sbu_0, # of connection points: 6
#     Node 11, Type 1, BuildingBlock: FUNLAD_clean_sbu_0, # of connection points: 6
#     Edge 12, Type (0, 1), BuildingBlock: CIFDUS_clean_linker_0, # of connection points: 2
#     Edge 13, Type (0, 1), BuildingBlock: CIFDUS_clean_linker_0, # of connection points: 2
#     Edge 14, Type (0, 1), BuildingBlock: CIFDUS_clean_linker_0, # of connection points: 2
#     Edge 15, Type (0, 1), BuildingBlock: CIFDUS_clean_linker_0, # of connection points: 2
#     Edge 16, Type (0, 1), BuildingBlock: CIFDUS_clean_linker_0, # of connection points: 2
#     Edge 17, Type (0, 1), BuildingBlock: CIFDUS_clean_linker_0, # of connection points: 2
#     Edge 18, Type (0, 1), BuildingBlock: CIFDUS_clean_linker_0, # of connection points: 2
#     Edge 19, Type (0, 1), BuildingBlock: CIFDUS_clean_linker_0, # of connection points: 2
#     Edge 20, Type (0, 1), BuildingBlock: CIFDUS_clean_linker_0, # of connection points: 2
#     Edge 21, Type (0, 1), BuildingBlock: CIFDUS_clean_linker_0, # of connection points: 2
#     Edge 22, Type (0, 1), BuildingBlock: CIFDUS_clean_linker_0, # of connection points: 2
#     Edge 23, Type (0, 1), BuildingBlock: CIFDUS_clean_linker_0, # of connection points: 2
#     Edge 24, Type (0, 1), BuildingBlock: CIFDUS_clean_linker_0, # of connection points: 2
#     Edge 25, Type (0, 1), BuildingBlock: CIFDUS_clean_linker_0, # of connection points: 2
#     Edge 26, Type (0, 1), BuildingBlock: CIFDUS_clean_linker_0, # of connection points: 2
#     Edge 27, Type (0, 1), BuildingBlock: CIFDUS_clean_linker_0, # of connection points: 2
#     Edge 28, Type (0, 1), BuildingBlock: CIFDUS_clean_linker_0, # of connection points: 2
#     Edge 29, Type (0, 1), BuildingBlock: CIFDUS_clean_linker_0, # of connection points: 2
#     Edge 30, Type (0, 1), BuildingBlock: CIFDUS_clean_linker_0, # of connection points: 2
#     Edge 31, Type (0, 1), BuildingBlock: CIFDUS_clean_linker_0, # of connection points: 2
#     Edge 32, Type (0, 1), BuildingBlock: CIFDUS_clean_linker_0, # of connection points: 2
#     Edge 33, Type (0, 1), BuildingBlock: CIFDUS_clean_linker_0, # of connection points: 2
#     Edge 34, Type (0, 1), BuildingBlock: CIFDUS_clean_linker_0, # of connection points: 2
#     Edge 35, Type (0, 1), BuildingBlock: CIFDUS_clean_linker_0, # of connection points: 2
# Relax obj value: 0.115
# Max RMSD: 0.176
# Mean RMSD: 0.093
data_MOF--net-zzz--node1-FUNLAD_clean_sbu_0--node2-INOVEN_clean_linker_0--edge1-CIFDUS_clean_linker_0
_symmetry_space_group_name_H-M    P1
_symmetry_Int_Tables_number       1
_symmetry_cell_setting            triclinic
loop_
_symmetry_equiv_pos_as_xyz
'x, y, z'
_cell_length_a     44.87436
_cell_length_b     50.898499
_cell_length_c     15.397468
_cell_angle_alpha  84.502831
_cell_angle_beta   83.866856
_cell_angle_gamma 89.957937
loop_
_atom_site_label
_atom_site_type_symbol
_atom_site_fract_x
_atom_site_fract_y
_atom_site_fract_z
_atom_type_partial_charge
H0 H 0.79105 0.48244 0.43163 0.0
H1 H 0.88235 0.47016 0.32599 0.0
H2 H 0.81415 0.48181 0.15277 0.0
N3 N 0.76899 0.48823 0.27284 0.0
N4 N 0.76539 0.50394 0.20741 0.0
C5 C 0.80734 0.47954 0.3763 0.0
C6 C 0.83767 0.47484 0.38893 0.0
C7 C 0.79877 0.48197 0.2904 0.0
C8 C 0.82051 0.47952 0.21906 0.0
C9 C 0.85054 0.47541 0.23149 0.0
C10 C 0.85881 0.47228 0.31644 0.0
H11 H 0.96836 0.76426 0.30228 0.0
H12 H 0.96697 0.8477 0.22831 0.0
H13 H 0.99032 0.79459 0.03217 0.0
N14 N 0.98087 0.75005 0.13997 0.0
N15 N 0.97843 0.74474 0.06358 0.0
C16 C 0.97005 0.78071 0.25178 0.0
C17 C 0.96605 0.80659 0.27469 0.0
C18 C 0.97695 0.77624 0.16317 0.0
C19 C 0.98241 0.79793 0.09913 0.0
C20 C 0.97996 0.82382 0.12298 0.0
C21 C 0.96958 0.82774 0.20946 0.0
H22 H 0.7611 0.00927 0.29555 0.0
H23 H 0.67159 0.00755 0.2206 0.0
H24 H 0.74627 0.00636 0.02326 0.0
N25 N 0.7896 0.00827 0.13254 0.0
N26 N 0.80033 0.00504 0.0559 0.0
C27 C 0.74609 0.00876 0.24512 0.0
C28 C 0.71477 0.00836 0.26818 0.0
C29 C 0.75788 0.00795 0.15629 0.0
C30 C 0.73785 0.00698 0.09164 0.0
C31 C 0.70681 0.00735 0.11478 0.0
C32 C 0.69567 0.00795 0.20256 0.0
H33 H 0.53556 0.69465 0.29673 0.0
H34 H 0.52522 0.618 0.20696 0.0
H35 H 0.5171 0.68752 0.03063 0.0
N36 N 0.52772 0.72251 0.14436 0.0
N37 N 0.53176 0.73317 0.06745 0.0
C38 C 0.53149 0.68252 0.24502 0.0
C39 C 0.53151 0.65482 0.26097 0.0
C40 C 0.52701 0.69451 0.16118 0.0
C41 C 0.52129 0.67853 0.09481 0.0
C42 C 0.52001 0.65099 0.11158 0.0
C43 C 0.52558 0.63934 0.19423 0.0
H44 H 0.2578 0.50324 0.03082 0.0
H45 H 0.16553 0.51139 0.13524 0.0
H46 H 0.23555 0.52568 0.293 0.0
N47 N 0.28117 0.51541 0.17875 0.0
N48 N 0.28936 0.53139 0.22843 0.0
C49 C 0.2413 0.50787 0.08363 0.0
C50 C 0.21042 0.50725 0.07314 0.0
C51 C 0.25051 0.51516 0.16293 0.0
C52 C 0.22871 0.52085 0.23095 0.0
C53 C 0.19822 0.51928 0.22173 0.0
C54 C 0.18926 0.51285 0.14247 0.0
H55 H 0.09218 0.24242 0.19867 0.0
H56 H 0.08723 0.15863 0.26682 0.0
H57 H 0.07168 0.21123 0.46843 0.0
N58 N 0.08334 0.25574 0.36362 0.0
N59 N 0.08997 0.26014 0.43761 0.0
C60 C 0.08961 0.2257 0.24808 0.0
C61 C 0.09091 0.19988 0.22315 0.0
C62 C 0.08456 0.22974 0.3376 0.0
C63 C 0.07816 0.20794 0.40056 0.0
C64 C 0.0779 0.18224 0.37491 0.0
C65 C 0.08644 0.17847 0.28719 0.0
H66 H 0.28659 0.00817 0.18494 0.0
H67 H 0.37632 0.99286 0.24713 0.0
H68 H 0.30493 0.99292 0.45557 0.0
N69 N 0.26026 0.0019 0.35122 0.0
N70 N 0.25069 0.00251 0.4304 0.0
C71 C 0.30219 0.00375 0.23326 0.0
C72 C 0.33299 0.0012 0.20595 0.0
C73 C 0.29163 1.00033 0.32378 0.0
C74 C 0.31245 0.99503 0.38602 0.0
C75 C 0.34311 0.99285 0.35853 0.0
C76 C 0.35273 0.99524 0.26886 0.0
H77 H 0.5061 0.29594 0.17443 0.0
H78 H 0.52083 0.37279 0.25794 0.0
H79 H 0.52924 0.3038 0.43579 0.0
N80 N 0.51512 0.26839 0.32681 0.0
N81 N 0.52057 0.25791 0.4001 0.0
C82 C 0.51159 0.30817 0.22446 0.0
C83 C 0.51265 0.33585 0.20679 0.0
C84 C 0.51726 0.29634 0.30755 0.0
C85 C 0.52464 0.31252 0.37168 0.0
C86 C 0.52622 0.34001 0.35391 0.0
C87 C 0.52003 0.35148 0.27166 0.0
C88 C 0.03183 0.96293 0.87556 0.0
N89 N 0.01558 0.96269 0.61834 0.0
C90 C 0.03611 0.94319 0.62718 0.0
C91 C 0.03221 0.91907 0.59478 0.0
C92 C 1.0073 0.91479 0.55005 0.0
C93 C 0.98684 0.93557 0.53877 0.0
C94 C 0.99129 0.95945 0.57442 0.0
Zn95 Zn 0.02104 0.99282 0.69456 0.0
C96 C 0.9652 0.00356 0.80688 0.0
N97 N 0.03768 0.04498 0.88126 0.0
C98 C 0.06217 0.04813 0.92438 0.0
C99 C 0.01724 0.06459 0.87289 0.0
C100 C 0.02145 0.08872 0.90503 0.0
C101 C 0.04663 0.09291 0.94873 0.0
C102 C 0.06698 0.07202 0.95955 0.0
Zn103 Zn 0.03202 0.01482 0.80523 0.0
O104 O 0.02597 0.96319 0.79677 0.0
C105 C 0.0878 0.00414 0.69208 0.0
O106 O 0.03712 0.9846 0.90609 0.0
H107 H 0.99827 0.06216 0.83662 0.0
H108 H 0.05494 0.94569 0.66395 0.0
H109 H 0.07844 0.0325 0.92902 0.0
O110 O 0.06827 0.9936 0.65205 0.0
O111 O 0.07926 0.01451 0.76255 0.0
H112 H 0.97494 0.975 0.56942 0.0
O113 O 0.02727 0.04434 0.7031 0.0
O114 O 0.01582 0.02307 0.59379 0.0
O115 O 0.98455 0.01425 0.84729 0.0
O116 O 0.97402 0.99297 0.73708 0.0
C117 C 0.02139 0.04468 0.62432 0.0
H118 H 0.04825 0.90365 0.60745 0.0
H119 H 0.9675 0.9334 0.50354 0.0
H120 H 1.00545 0.10421 0.89291 0.0
H121 H 0.0865 0.07413 0.99402 0.0
C122 C 0.48764 0.98855 0.61401 0.0
N123 N 0.52171 0.05778 0.68791 0.0
C124 C 0.52929 0.06569 0.60136 0.0
C125 C 0.52897 0.09238 0.57046 0.0
C126 C 0.52057 0.11132 0.62887 0.0
C127 C 0.51243 0.10254 0.7178 0.0
C128 C 0.51324 0.07559 0.74605 0.0
Zn129 Zn 0.52335 0.0181 0.72743 0.0
C130 C 0.47222 0.99781 0.85614 0.0
N131 N 0.52725 0.93471 0.79237 0.0
C132 C 0.52662 0.91653 0.73334 0.0
C133 C 0.52951 0.92709 0.87859 0.0
C134 C 0.53196 0.90044 0.90803 0.0
C135 C 0.53139 0.88109 0.84882 0.0
C136 C 0.52836 0.88958 0.76033 0.0
Zn137 Zn 0.52504 0.97448 0.75372 0.0
O138 O 0.49846 0.01075 0.62591 0.0
C139 C 0.57595 0.99281 0.62535 0.0
O140 O 0.49424 0.96796 0.66139 0.0
H141 H 0.52964 0.94174 0.92496 0.0
H142 H 0.53581 0.05126 0.55594 0.0
H143 H 0.52474 0.92292 0.66512 0.0
O144 O 0.56512 0.01506 0.64329 0.0
O145 O 0.56214 0.97182 0.65867 0.0
H146 H 0.50715 0.06891 0.81447 0.0
O147 O 0.55596 0.98255 0.84376 0.0
O148 O 0.54864 0.02536 0.82905 0.0
O149 O 0.48791 0.97724 0.84755 0.0
O150 O 0.48141 0.01951 0.81318 0.0
C151 C 0.56178 0.00555 0.86355 0.0
H152 H 0.53587 0.09811 0.50172 0.0
H153 H 0.50536 0.1163 0.76519 0.0
H154 H 0.53476 0.89522 0.97645 0.0
H155 H 0.52712 0.8756 0.71211 0.0
C156 C 0.54825 0.45878 0.62936 0.0
N157 N 0.46491 0.49579 0.63369 0.0
C158 C 0.47286 0.4943 0.54631 0.0
C159 C 0.45124 0.49494 0.48764 0.0
C160 C 0.42112 0.49794 0.51835 0.0
C161 C 0.41326 0.49986 0.60832 0.0
C162 C 0.43567 0.49846 0.66552 0.0
Zn163 Zn 0.49991 0.49547 0.71042 0.0
C164 C 0.4999 0.45271 0.84537 0.0
N165 N 0.58061 0.49465 0.8328 0.0
C166 C 0.6098 0.49864 0.79996 0.0
C167 C 0.57264 0.49042 0.92097 0.0
C168 C 0.59424 0.48954 0.97971 0.0
C169 C 0.62446 0.49353 0.94804 0.0
C170 C 0.63224 0.49834 0.8569 0.0
Zn171 Zn 0.54569 0.49503 0.75625 0.0
O172 O 0.52144 0.46695 0.63437 0.0
C173 C 0.5454 0.53766 0.62067 0.0
O174 O 0.56695 0.46813 0.67478 0.0
H175 H 0.54933 0.48782 0.94636 0.0
H176 H 0.49618 0.49305 0.52122 0.0
H177 H 0.61568 0.50209 0.7298 0.0
O178 O 0.51934 0.52757 0.62442 0.0
O179 O 0.56415 0.52748 0.67014 0.0
H180 H 0.42978 0.49987 0.73488 0.0
O181 O 0.52406 0.52256 0.83602 0.0
O182 O 0.47936 0.52339 0.7893 0.0
O183 O 0.52642 0.46198 0.839 0.0
O184 O 0.48079 0.46384 0.79904 0.0
C185 C 0.49767 0.53168 0.8381 0.0
H186 H 0.45808 0.49384 0.41844 0.0
H187 H 0.3901 0.50237 0.63387 0.0
H188 H 0.5873 0.48617 0.04948 0.0
H189 H 0.65541 0.50145 0.83005 0.0
C190 C 0.05572 0.52473 0.56589 0.0
N191 N 0.0345 0.4476 0.66939 0.0
C192 C 0.03033 0.44546 0.58412 0.0
C193 C 0.03507 0.42161 0.54784 0.0
C194 C 0.04369 0.39932 0.59987 0.0
C195 C 0.04761 0.40196 0.68821 0.0
C196 C 0.04299 0.42646 0.72171 0.0
Zn197 Zn 0.0276 0.48425 0.7118 0.0
C198 C 0.07744 0.50527 0.79207 0.0
N199 N 0.01224 0.56377 0.76723 0.0
C200 C 1.00686 0.5847 0.70944 0.0
C201 C 0.0123 0.56653 0.8542 0.0
C202 C 1.00591 0.59078 0.88656 0.0
C203 C 1.00032 0.6129 0.82876 0.0
C204 C 1.0012 0.60958 0.7387 0.0
Zn205 Zn 0.01966 0.52692 0.72678 0.0
O206 O 0.0513 0.50067 0.59423 0.0
C207 C 0.96976 0.5068 0.64666 0.0
O208 O 0.0438 0.54272 0.60901 0.0
H209 H 0.01699 0.54979 0.89921 0.0
H210 H 0.02345 0.46241 0.5435 0.0
H211 H 1.00691 0.58213 0.64052 0.0
O212 O 0.9855 0.4861 0.65622 0.0
O213 O 0.97943 0.52843 0.66821 0.0
H214 H 0.04612 0.42858 0.78939 0.0
O215 O 0.99524 0.51024 0.84338 0.0
O216 O 1.00443 0.46833 0.83039 0.0
O217 O 0.06037 0.52513 0.78441 0.0
O218 O 0.06919 0.4833 0.76873 0.0
C219 C 0.99151 0.48612 0.87246 0.0
H220 H 0.03235 0.42085 0.4791 0.0
H221 H 0.05387 0.38528 0.7313 0.0
H222 H 1.00493 0.59189 0.95663 0.0
H223 H 0.99771 0.62599 0.69088 0.0
H224 H 0.2287 0.01102 0.59087 0.0
H225 H 0.20277 0.9944 0.34033 0.0
H226 H 0.14989 0.993 0.40055 0.0
H227 H 0.111 0.99595 0.52555 0.0
H228 H 0.13694 0.01439 0.7749 0.0
H229 H 0.18966 0.01564 0.71449 0.0
C230 C 0.21133 0.00726 0.54965 0.0
C231 C 0.21959 0.00291 0.46159 0.0
C232 C 0.18099 0.00669 0.58471 0.0
C233 C 0.19703 0.99798 0.40825 0.0
C234 C 0.16679 0.99709 0.44285 0.0
C235 C 0.12818 1.00017 0.56685 0.0
C236 C 0.11992 0.00487 0.6551 0.0
C237 C 0.1585 0.00128 0.53116 0.0
C238 C 0.14255 0.01065 0.70704 0.0
C239 C 0.17274 0.01137 0.67247 0.0
H240 H 0.53389 0.23541 0.55036 0.0
H241 H 0.50246 0.21876 0.30676 0.0
H242 H 0.49906 0.17152 0.35766 0.0
H243 H 0.50495 0.1351 0.47267 0.0
H244 H 0.5382 0.15236 0.71443 0.0
H245 H 0.54042 0.1992 0.66394 0.0
C246 C 0.52637 0.22129 0.50872 0.0
C247 C 0.51855 0.23035 0.42548 0.0
C248 C 0.52457 0.19435 0.53841 0.0
C249 C 0.50871 0.21217 0.37123 0.0
C250 C 0.50673 0.1852 0.40045 0.0
C251 C 0.51293 0.14904 0.51411 0.0
C252 C 0.52126 0.14003 0.59766 0.0
C253 C 0.51465 0.17607 0.48401 0.0
C254 C 0.53109 0.1586 0.6507 0.0
C255 C 0.53263 0.18543 0.62157 0.0
H256 H 0.3273 0.48994 0.2432 0.0
H257 H 0.31199 0.57021 0.30108 0.0
H258 H 0.35204 0.56732 0.39746 0.0
H259 H 0.38822 0.54063 0.47571 0.0
H260 H 0.40449 0.46047 0.41787 0.0
H261 H 0.36715 0.4643 0.31189 0.0
C262 C 0.33347 0.50697 0.27478 0.0
C263 C 0.31714 0.53048 0.26456 0.0
C264 C 0.35608 0.50488 0.33193 0.0
C265 C 0.32477 0.55219 0.30738 0.0
C266 C 0.34733 0.55041 0.36323 0.0
C267 C 0.38344 0.52405 0.43985 0.0
C268 C 0.39841 0.50017 0.45536 0.0
C269 C 0.36251 0.52663 0.37805 0.0
C270 C 0.39275 0.47892 0.40743 0.0
C271 C 0.37157 0.48116 0.34668 0.0
H272 H 0.05044 0.29752 0.39257 0.0
H273 H 0.12034 0.27819 0.55795 0.0
H274 H 0.11282 0.32011 0.62358 0.0
H275 H 0.08586 0.36192 0.63417 0.0
H276 H 0.01235 0.37878 0.47831 0.0
H277 H 0.02194 0.33835 0.40809 0.0
C278 C 0.06426 0.30275 0.44205 0.0
C279 C 0.08639 0.28528 0.46956 0.0
C280 C 0.05904 0.32635 0.48133 0.0
C281 C 0.10353 0.29173 0.53548 0.0
C282 C 0.09912 0.31554 0.57305 0.0
C283 C 0.07164 0.35665 0.58577 0.0
C284 C 0.04864 0.37371 0.56116 0.0
C285 C 0.07676 0.33294 0.54693 0.0
C286 C 0.03072 0.36649 0.49734 0.0
C287 C 0.03603 0.34323 0.45734 0.0
H288 H 0.82424 0.99387 0.90067 0.0
H289 H 0.8467 0.01818 0.14598 0.0
H290 H 0.89998 0.02036 0.08923 0.0
H291 H 0.94024 0.01547 0.96865 0.0
H292 H 0.9173 0.98984 0.72467 0.0
H293 H 0.86436 0.98809 0.78164 0.0
C294 C 0.84095 0.99954 0.9415 0.0
C295 C 0.83162 0.00578 0.02702 0.0
C296 C 0.87146 0.0006 0.90846 0.0
C297 C 0.85329 0.01317 0.07994 0.0
C298 C 0.88376 0.01447 0.04732 0.0
C299 C 0.92366 0.00958 0.92778 0.0
C300 C 0.93289 0.00292 0.84205 0.0
C301 C 0.89312 0.00829 0.96149 0.0
C302 C 0.911 0.9951 0.79062 0.0
C303 C 0.88065 0.99409 0.82321 0.0
H304 H 0.55183 0.75772 0.91495 0.0
H305 H 0.50923 0.77063 0.17107 0.0
H306 H 0.50497 0.81785 0.12497 0.0
H307 H 0.51167 0.85492 0.00955 0.0
H308 H 0.55818 0.8422 0.75648 0.0
H309 H 0.56194 0.79543 0.80295 0.0
C310 C 0.54191 0.77107 0.96056 0.0
C311 C 0.53101 0.76091 0.04581 0.0
C312 C 0.53984 0.7981 0.93377 0.0
C313 C 0.51804 0.7781 0.10512 0.0
C314 C 0.51547 0.80504 0.07857 0.0
C315 C 0.52312 0.84215 0.96469 0.0
C316 C 0.53429 0.85242 0.87886 0.0
C317 C 0.52613 0.81523 0.99275 0.0
C318 C 0.54856 0.83507 0.82193 0.0
C319 C 0.55106 0.80824 0.84876 0.0
H320 H 0.71647 0.47177 0.23012 0.0
H321 H 0.75372 0.54483 0.09973 0.0
H322 H 0.71248 0.54891 0.00753 0.0
H323 H 0.66854 0.52949 0.95464 0.0
H324 H 0.63146 0.4559 0.08262 0.0
H325 H 0.66978 0.45404 0.18482 0.0
C326 C 0.71492 0.48894 0.18345 0.0
C327 C 0.73773 0.50829 0.17204 0.0
C328 C 0.69158 0.49068 0.12887 0.0
C329 C 0.736 0.53006 0.10995 0.0
C330 C 0.71269 0.5322 0.05668 0.0
C331 C 0.66894 0.51306 0.00488 0.0
C332 C 0.64752 0.49272 0.01047 0.0
C333 C 0.69087 0.51223 0.06371 0.0
C334 C 0.64784 0.47177 0.07696 0.0
C335 C 0.66971 0.47071 0.13544 0.0
H336 H 0.95908 0.72676 0.92512 0.0
H337 H 0.01131 0.70598 0.13991 0.0
H338 H 0.0236 0.66347 0.08351 0.0
H339 H 0.02071 0.63314 0.97068 0.0
H340 H 0.96385 0.65193 0.7639 0.0
H341 H 0.95293 0.69462 0.81802 0.0
C342 C 0.97291 0.71269 0.95957 0.0
C343 C 0.98413 0.71924 0.03622 0.0
C344 C 0.97942 0.68819 0.92754 0.0
C345 C 1.00215 0.70115 0.08109 0.0
C346 C 1.0093 0.67696 0.04857 0.0
C347 C 1.00542 0.64618 0.93804 0.0
C348 C 0.99337 0.63904 0.86255 0.0
C349 C 0.99814 0.67033 0.97162 0.0
C350 C 0.9742 0.65687 0.82063 0.0
C351 C 0.96759 0.68128 0.85216 0.0
H352 H 0.04269 0.1419 0.33992 0.0
H353 H 0.08625 0.17146 0.54865 0.0
H354 H 0.06887 0.13265 0.64651 0.0
H355 H 0.04535 0.0893 0.66844 0.0
H356 H 1.00683 0.05689 0.45582 0.0
H357 H 0.01878 0.09813 0.36232 0.0
C358 C 0.04885 0.13974 0.40642 0.0
C359 C 0.06631 0.1594 0.43639 0.0
C360 C 0.03982 0.11696 0.46104 0.0
C361 C 0.07289 0.15672 0.52386 0.0
C362 C 0.06312 0.13446 0.5796 0.0
C363 C 0.0392 0.09118 0.60188 0.0
C364 C 0.02521 0.07 0.56891 0.0
C365 C 0.04709 0.11433 0.54824 0.0
C366 C 0.0176 0.07289 0.48254 0.0
C367 C 0.02452 0.09639 0.42923 0.0
H368 H 0.39579 0.01857 0.34684 0.0
H369 H 0.34226 0.9587 0.50952 0.0
H370 H 0.38377 0.94994 0.60016 0.0
H371 H 0.43585 0.95957 0.6312 0.0
H372 H 0.4885 0.01836 0.46036 0.0
H373 H 0.44721 0.02616 0.37104 0.0
C374 C 0.39323 0.00332 0.40147 0.0
C375 C 0.36616 0.98906 0.42078 0.0
C376 C 0.41731 0.99773 0.45013 0.0
C377 C 0.36286 0.97004 0.49362 0.0
C378 C 0.3867 0.9648 0.54457 0.0
C379 C 0.43842 0.9735 0.57296 0.0
C380 C 0.46516 0.98822 0.55155 0.0
C381 C 0.41421 0.97834 0.5227 0.0
C382 C 0.46814 0.00671 0.4774 0.0
C383 C 0.44448 0.01138 0.42697 0.0
H384 H 0.56543 0.38139 0.33803 0.0
H385 H 0.50116 0.33674 0.52322 0.0
H386 H 0.50635 0.36808 0.6312 0.0
H387 H 0.52387 0.41105 0.66505 0.0
H388 H 0.58682 0.45689 0.4804 0.0
H389 H 0.58788 0.42209 0.37981 0.0
C390 C 0.55285 0.37845 0.40243 0.0
C391 C 0.53268 0.35701 0.4225 0.0
C392 C 0.5557 0.39674 0.4638 0.0
C393 C 0.51685 0.35306 0.50648 0.0
C394 C 0.51969 0.37103 0.568 0.0
C395 C 0.53843 0.41297 0.6037 0.0
C396 C 0.55532 0.43615 0.57944 0.0
C397 C 0.53833 0.39329 0.54634 0.0
C398 C 0.57399 0.43889 0.50013 0.0
C399 C 0.57429 0.41917 0.44257 0.0
H400 H 0.14635 0.54738 0.22674 0.0
H401 H 0.19972 0.49589 0.38635 0.0
H402 H 0.16078 0.4953 0.50917 0.0
H403 H 0.1103 0.50596 0.56666 0.0
H404 H 0.05541 0.55687 0.41156 0.0
H405 H 0.09633 0.56135 0.29056 0.0
C406 C 0.14941 0.53624 0.28876 0.0
C407 C 0.17575 0.52166 0.29771 0.0
C408 C 0.12672 0.53575 0.35905 0.0
C409 C 0.17977 0.5075 0.37837 0.0
C410 C 0.15746 0.50697 0.44834 0.0
C411 C 0.10745 0.51819 0.50637 0.0
C412 C 0.08012 0.53075 0.49632 0.0
C413 C 0.13071 0.52052 0.43861 0.0
C414 C 0.07648 0.547 0.41956 0.0
C415 C 0.09973 0.54941 0.35078 0.0
H416 H 0.01222 0.86564 0.1603 0.0
H417 H 0.97342 0.83354 0.94763 0.0
H418 H 0.98969 0.87284 0.85022 0.0
H419 H 0.01087 0.91722 0.82961 0.0
H420 H 0.04504 0.95156 0.04562 0.0
H421 H 0.03415 0.91016 0.13893 0.0
C422 C 1.00689 0.86733 0.09293 0.0
C423 C 0.99102 0.84687 0.06171 0.0
C424 C 0.01536 0.89028 0.03848 0.0
C425 C 0.9855 0.84896 0.97333 0.0
C426 C 0.99465 0.87148 0.91787 0.0
C427 C 0.01628 0.91573 0.8969 0.0
C428 C 0.02869 0.93753 0.93087 0.0
C429 C 1.00906 0.89239 0.95036 0.0
C430 C 0.03545 0.93511 0.01811 0.0
C431 C 0.02914 0.91151 0.07133 0.0
H432 H 0.66063 0.04014 0.09102 0.0
H433 H 0.70376 0.97112 0.99642 0.0
H434 H 0.66169 0.96391 0.91183 0.0
H435 H 0.61121 0.97571 0.87354 0.0
H436 H 0.56861 0.04526 0.96651 0.0
H437 H 0.61169 0.05352 0.04543 0.0
C438 C 0.66092 0.02375 0.05075 0.0
C439 C 0.68504 0.0061 0.0498 0.0
C440 C 0.63651 0.0195 0.00425 0.0
C441 C 0.68549 0.98505 -0.00278 0.0
C442 C 0.6613 0.98075 0.95 0.0
C443 C 0.61126 0.99249 0.91197 0.0
C444 C 0.5866 0.00957 0.91608 0.0
C445 C 0.63638 0.99748 0.95492 0.0
C446 C 0.58723 0.0317 0.96364 0.0
C447 C 0.61188 0.0365 0.00813 0.0
H448 H 0.4802 0.61025 0.12607 0.0
H449 H 0.54608 0.65374 0.9431 0.0
H450 H 0.54126 0.62199 0.83583 0.0
H451 H 0.52336 0.57896 0.80257 0.0
H452 H 0.45861 0.53451 0.98549 0.0
H453 H 0.45752 0.56967 0.08469 0.0
C454 C 0.49321 0.61286 0.06226 0.0
C455 C 0.51377 0.63403 0.04266 0.0
C456 C 0.49054 0.59438 0.00148 0.0
C457 C 0.53014 0.63758 0.95943 0.0
C458 C 0.52751 0.61938 0.8984 0.0
C459 C 0.50844 0.57743 0.86325 0.0
C460 C 0.49101 0.55451 0.88743 0.0
C461 C 0.50847 0.59734 0.91983 0.0
C462 C 0.47188 0.55227 0.96584 0.0
C463 C 0.47154 0.5722 0.02259 0.0
H464 H 0.89845 0.44398 0.19211 0.0
H465 H 0.85504 0.51601 0.10495 0.0
H466 H 0.89559 0.52574 0.98838 0.0
H467 H 0.94341 0.51472 0.91427 0.0
H468 H 0.98716 0.44208 0.99202 0.0
H469 H 0.94646 0.43162 0.11063 0.0
C470 C 0.89792 0.46163 0.14688 0.0
C471 C 0.87382 0.47917 0.15629 0.0
C472 C 0.92138 0.46712 0.07967 0.0
C473 C 0.87314 0.50201 0.09776 0.0
C474 C 0.89642 0.50773 0.03177 0.0
C475 C 0.94428 0.49668 0.95769 0.0
C476 C 0.96839 0.4794 0.94605 0.0
C477 C 0.9207 0.49059 0.02287 0.0
C478 C 0.96883 0.45576 0.00084 0.0
C479 C 0.9456 0.4498 0.06815 0.0
H480 H 0.04233 0.19627 0.1418 0.0
H481 H 0.1378 0.18585 0.10955 0.0
H482 H 0.13233 0.15222 0.00849 0.0
H483 H 0.09947 0.1193 0.95767 0.0
H484 H 1.00349 0.12527 0.01787 0.0
H485 H 0.0099 0.16664 0.07954 0.0
C486 C 0.06198 0.18763 0.10853 0.0
C487 C 0.09037 0.19353 0.13218 0.0
C488 C 0.05835 0.16648 0.05869 0.0
C489 C 0.11577 0.18188 0.09086 0.0
C490 C 0.11252 0.16213 0.03514 0.0
C491 C 0.07994 0.12961 0.98428 0.0
C492 C 0.05105 0.11888 0.98313 0.0
C493 C 0.08378 0.15304 0.02363 0.0
C494 C 0.02603 0.13299 0.01637 0.0
C495 C 0.02962 0.15673 0.05219 0.0
H496 H 0.35627 0.96359 0.1099 0.0
H497 H 0.34437 0.04755 0.10267 0.0
H498 H 0.38646 0.05458 0.98694 0.0
H499 H 0.43211 0.03668 0.90589 0.0
H500 H 0.44504 0.95223 0.9283 0.0
H501 H 0.3979 0.94571 0.02007 0.0
C502 C 0.36202 0.98336 0.07979 0.0
C503 C 0.3469 0.00496 0.11364 0.0
C504 C 0.38749 0.98723 0.01835 0.0
C505 C 0.35514 0.03055 0.07614 0.0
C506 C 0.37973 0.03457 0.01147 0.0
C507 C 0.42451 0.01689 0.93056 0.0
C508 C 0.44266 0.99509 0.91102 0.0
C509 C 0.39706 0.01308 0.98519 0.0
C510 C 0.4321 0.96954 0.94306 0.0
C511 C 0.40487 0.96566 0.9953 0.0
H512 H 0.46843 0.37004 0.17036 0.0
H513 H 0.54712 0.33327 0.0522 0.0
H514 H 0.54817 0.3653 0.92253 0.0
H515 H 0.53141 0.40785 0.85501 0.0
H516 H 0.45229 0.44449 0.97116 0.0
H517 H 0.44633 0.40833 0.08948 0.0
C518 C 0.48513 0.36857 0.11468 0.0
C519 C 0.50768 0.34942 0.12027 0.0
C520 C 0.48578 0.3873 0.04116 0.0
C521 C 0.52941 0.34769 0.04857 0.0
C522 C 0.5302 0.36619 0.97507 0.0
C523 C 0.5125 0.40753 0.90537 0.0
C524 C 0.49248 0.4288 0.90559 0.0
C525 C 0.50926 0.3867 0.97246 0.0
C526 C 0.46789 0.42825 0.97008 0.0
C527 C 0.46463 0.40768 0.03779 0.0
H528 H 0.191 0.54253 0.95346 0.0
H529 H 0.19926 0.45904 0.01961 0.0
H530 H 0.15941 0.4503 0.92846 0.0
H531 H 0.11594 0.46726 0.85304 0.0
H532 H 0.10596 0.55155 0.80138 0.0
H533 H 0.15225 0.55913 0.86377 0.0
C534 C 0.18503 0.5224 0.94415 0.0
C535 C 0.19828 0.50145 0.99161 0.0
C536 C 0.16083 0.51773 0.89694 0.0
C537 C 0.18983 0.47543 0.98175 0.0
C538 C 0.16657 0.4705 0.93125 0.0
C539 C 0.12414 0.48723 0.8546 0.0
C540 C 0.10706 0.50878 0.82432 0.0
C541 C 0.15082 0.49159 0.89237 0.0
C542 C 0.11818 0.53456 0.82602 0.0
C543 C 0.14485 0.53898 0.86116 0.0
H544 H 0.0138 0.81109 0.35859 0.0
H545 H 0.91825 0.8212 0.38421 0.0
H546 H 0.92267 0.85515 0.4849 0.0
H547 H 0.95483 0.88822 0.53778 0.0
H548 H 0.05106 0.88264 0.48294 0.0
H549 H 0.04544 0.84113 0.42168 0.0
C550 C 0.99388 0.81976 0.3903 0.0
C551 C 0.96579 0.81363 0.36511 0.0
C552 C 0.99695 0.84108 0.43979 0.0
C553 C 0.94005 0.82534 0.40425 0.0
C554 C 0.94271 0.84526 0.45976 0.0
C555 C 0.97458 0.87798 0.51236 0.0
C556 C 1.00331 0.88884 0.51517 0.0
C557 C 0.97123 0.85448 0.47301 0.0
C558 C 0.02862 0.87482 0.48336 0.0
C559 C 0.02549 0.85099 0.44773 0.0
H560 H 0.68786 0.96664 0.36436 0.0
H561 H 0.70515 0.04961 0.36786 0.0
H562 H 0.66349 0.05225 0.48362 0.0
H563 H 0.61748 0.03204 0.56736 0.0
H564 H 0.59959 0.94914 0.55631 0.0
H565 H 0.64568 0.94545 0.45959 0.0
C566 C 0.68333 0.985 0.3936 0.0
C567 C 0.69991 0.00778 0.35907 0.0
C568 C 0.65841 0.98658 0.45642 0.0
C569 C 0.69325 0.03169 0.39516 0.0
C570 C 0.66898 0.03328 0.45993 0.0
C571 C 0.62374 0.01315 0.54405 0.0
C572 C 0.60469 0.991 0.56817 0.0
C573 C 0.65056 0.01108 0.48818 0.0
C574 C 0.61351 0.9666 0.53833 0.0
C575 C 0.64001 0.96441 0.48318 0.0
H576 H 0.57632 0.62146 0.29863 0.0
H577 H 0.49584 0.65619 0.41422 0.0
H578 H 0.49496 0.62393 0.54325 0.0
H579 H 0.51264 0.58172 0.61062 0.0
H580 H 0.59345 0.54705 0.49692 0.0
H581 H 0.59902 0.58353 0.37956 0.0
C582 C 0.55921 0.62242 0.35361 0.0
C583 C 0.53613 0.64105 0.34745 0.0
C584 C 0.55868 0.60357 0.42671 0.0
C585 C 0.51392 0.64216 0.41829 0.0
C586 C 0.51326 0.62353 0.4914 0.0
C587 C 0.5318 0.58254 0.561 0.0
C588 C 0.55245 0.56175 0.56111 0.0
C589 C 0.5348 0.60352 0.49446 0.0
C590 C 0.57737 0.56294 0.49765 0.0
C591 C 0.58041 0.58368 0.43051 0.0
H592 H 0.85327 0.51924 0.45314 0.0
H593 H 0.85317 0.43463 0.50346 0.0
H594 H 0.89407 0.43725 0.59559 0.0
H595 H 0.93561 0.46316 0.63786 0.0
H596 H 0.93719 0.54785 0.58053 0.0
H597 H 0.89026 0.54575 0.51437 0.0
C598 C 0.86121 0.50154 0.48824 0.0
C599 C 0.85002 0.47681 0.47301 0.0
C600 C 0.88587 0.50319 0.53659 0.0
C601 C 0.86102 0.45387 0.51619 0.0
C602 C 0.88487 0.45537 0.56711 0.0
C603 C 0.92556 0.48117 0.61143 0.0
C604 C 0.94025 0.50557 0.61223 0.0
C605 C 0.8985 0.47982 0.57364 0.0
C606 C 0.92659 0.52878 0.57959 0.0
C607 C 0.89967 0.52761 0.54205 0.0
loop_
_geom_bond_atom_site_label_1
_geom_bond_atom_site_label_2
_geom_bond_distance
_geom_bond_site_symmetry_2
_ccdc_geom_bond_type
H0 C5 0.929 . S
H1 C10 0.931 . S
H2 C8 0.930 . S
N3 N4 1.234 . S
N3 C7 1.453 . S
N4 N3 1.234 . S
C5 H0 0.929 . S
C5 C6 1.373 . S
C5 C7 1.368 . S
C6 C5 1.373 . S
C6 C10 1.397 . S
C7 N3 1.453 . S
C7 C5 1.368 . S
C7 C8 1.373 . S
C8 H2 0.930 . S
C8 C7 1.373 . S
C8 C9 1.371 . S
C9 C8 1.371 . S
C9 C10 1.383 . S
C10 H1 0.931 . S
C10 C6 1.397 . S
C10 C9 1.383 . S
H11 C16 0.929 . S
H12 C21 0.931 . S
H13 C19 0.930 . S
N14 N15 1.234 1_554 S
N14 C18 1.453 . S
N15 N14 1.234 1_556 S
C16 H11 0.929 . S
C16 C17 1.373 . S
C16 C18 1.368 . S
C17 C16 1.373 . S
C17 C21 1.397 . S
C18 N14 1.453 . S
C18 C16 1.368 . S
C18 C19 1.373 1_554 S
C19 H13 0.930 . S
C19 C18 1.373 1_556 S
C19 C20 1.371 . S
C20 C19 1.371 . S
C20 C21 1.383 1_556 S
C21 H12 0.931 . S
C21 C17 1.397 . S
C21 C20 1.383 1_554 S
H22 C27 0.929 . S
H23 C32 0.931 . S
H24 C30 0.930 1_556 S
N25 N26 1.222 1_545 S
N25 C29 1.453 . S
N26 N25 1.222 1_565 S
C27 H22 0.929 . S
C27 C28 1.373 . S
C27 C29 1.368 . S
C28 C27 1.373 . S
C28 C32 1.397 1_545 S
C29 N25 1.453 . S
C29 C27 1.368 . S
C29 C30 1.373 . S
C30 H24 0.930 1_554 S
C30 C29 1.373 . S
C30 C31 1.373 . S
C31 C30 1.373 . S
C31 C32 1.383 1_545 S
C32 H23 0.931 . S
C32 C28 1.397 1_565 S
C32 C31 1.383 1_565 S
H33 C38 0.929 . S
H34 C43 0.931 . S
H35 C41 0.930 1_556 S
N36 N37 1.234 . S
N36 C40 1.453 . S
N37 N36 1.234 . S
C38 H33 0.929 . S
C38 C39 1.373 . S
C38 C40 1.368 . S
C39 C38 1.373 . S
C39 C43 1.397 . S
C40 N36 1.453 . S
C40 C38 1.368 . S
C40 C41 1.373 . S
C41 H35 0.930 1_554 S
C41 C40 1.373 . S
C41 C42 1.371 . S
C42 C41 1.371 . S
C42 C43 1.383 . S
C43 H34 0.931 . S
C43 C39 1.397 . S
C43 C42 1.383 . S
H44 C49 0.929 . S
H45 C54 0.931 . S
H46 C52 0.930 . S
N47 N48 1.234 . S
N47 C51 1.453 . S
N48 N47 1.234 . S
C49 H44 0.929 . S
C49 C50 1.373 . S
C49 C51 1.368 . S
C50 C49 1.373 . S
C50 C54 1.397 . S
C51 N47 1.453 . S
C51 C49 1.368 . S
C51 C52 1.373 . S
C52 H46 0.930 . S
C52 C51 1.373 . S
C52 C53 1.371 . S
C53 C52 1.371 . S
C53 C54 1.383 . S
C54 H45 0.931 . S
C54 C50 1.397 . S
C54 C53 1.383 . S
H55 C60 0.929 . S
H56 C65 0.931 . S
H57 C63 0.930 . S
N58 N59 1.234 . S
N58 C62 1.453 . S
N59 N58 1.234 . S
C60 H55 0.929 . S
C60 C61 1.373 . S
C60 C62 1.368 . S
C61 C60 1.373 . S
C61 C65 1.397 . S
C62 N58 1.453 . S
C62 C60 1.368 . S
C62 C63 1.373 . S
C63 H57 0.930 . S
C63 C62 1.373 . S
C63 C64 1.371 . S
C64 C63 1.371 . S
C64 C65 1.383 . S
C65 H56 0.931 . S
C65 C61 1.397 . S
C65 C64 1.383 . S
H66 C71 0.929 . S
H67 C76 0.931 . S
H68 C74 0.930 . S
N69 N70 1.229 1_545 S
N69 C73 1.453 . S
N70 N69 1.229 1_565 S
C71 H66 0.929 . S
C71 C72 1.373 . S
C71 C73 1.368 . S
C72 C71 1.373 . S
C72 C76 1.397 1_545 S
C73 N69 1.453 . S
C73 C71 1.368 . S
C73 C74 1.373 . S
C74 H68 0.930 . S
C74 C73 1.373 . S
C74 C75 1.375 . S
C75 C74 1.375 . S
C75 C76 1.378 1_545 S
C76 H67 0.931 . S
C76 C72 1.397 1_565 S
C76 C75 1.378 1_565 S
H77 C82 0.929 . S
H78 C87 0.931 . S
H79 C85 0.930 . S
N80 N81 1.234 . S
N80 C84 1.453 . S
N81 N80 1.234 . S
C82 H77 0.929 . S
C82 C83 1.373 . S
C82 C84 1.368 . S
C83 C82 1.373 . S
C83 C87 1.397 . S
C84 N80 1.453 . S
C84 C82 1.368 . S
C84 C85 1.373 . S
C85 H79 0.930 . S
C85 C84 1.373 . S
C85 C86 1.371 . S
C86 C85 1.371 . S
C86 C87 1.383 . S
C87 H78 0.931 . S
C87 C83 1.397 . S
C87 C86 1.383 . S
C88 O104 1.251 . S
C88 O106 1.254 . S
N89 C90 1.339 . S
N89 C94 1.291 1_455 S
N89 Zn95 2.027 . S
C90 N89 1.339 . S
C90 C91 1.379 . S
C90 H108 0.952 . S
C91 C90 1.379 . S
C91 C92 1.390 1_455 S
C91 H118 0.949 . S
C92 C91 1.390 1_655 S
C92 C93 1.357 . S
C93 C92 1.357 . S
C93 C94 1.370 . S
C93 H119 0.950 . S
C94 N89 1.291 1_655 S
C94 C93 1.370 . S
C94 H112 0.975 . S
Zn95 N89 2.027 . S
Zn95 O104 2.039 . S
Zn95 O110 2.034 . S
Zn95 O114 2.025 1_565 S
Zn95 O116 2.024 1_455 S
C96 O115 1.246 . S
C96 O116 1.249 1_545 S
N97 C98 1.307 . S
N97 C99 1.333 . S
N97 Zn103 2.020 . S
C98 N97 1.307 . S
C98 C102 1.370 1_556 S
C98 H109 0.984 . S
C99 N97 1.333 . S
C99 C100 1.379 1_556 S
C99 H107 0.952 . S
C100 C99 1.379 1_554 S
C100 C101 1.390 . S
C100 H120 0.949 1_554 S
C101 C100 1.390 . S
C101 C102 1.357 . S
C102 C98 1.370 1_554 S
C102 C101 1.357 . S
C102 H121 0.950 . S
Zn103 N97 2.020 . S
Zn103 O106 2.025 1_545 S
Zn103 O111 2.024 . S
Zn103 O113 2.039 . S
Zn103 O115 2.034 1_455 S
O104 C88 1.251 . S
O104 Zn95 2.039 . S
C105 O110 1.246 . S
C105 O111 1.249 1_565 S
O106 C88 1.254 . S
O106 Zn103 2.025 1_565 S
H107 C99 0.952 . S
H108 C90 0.952 . S
H109 C98 0.984 . S
O110 Zn95 2.034 . S
O110 C105 1.246 . S
O111 Zn103 2.024 . S
O111 C105 1.249 1_545 S
H112 C94 0.975 . S
O113 Zn103 2.039 . S
O113 C117 1.251 . S
O114 Zn95 2.025 1_545 S
O114 C117 1.254 . S
O115 C96 1.246 . S
O115 Zn103 2.034 1_655 S
O116 Zn95 2.024 1_655 S
O116 C96 1.249 1_565 S
C117 O113 1.251 . S
C117 O114 1.254 . S
H118 C91 0.949 . S
H119 C93 0.950 . S
H120 C100 0.949 1_556 S
H121 C102 0.950 . S
C122 O138 1.251 1_565 S
C122 O140 1.254 . S
N123 C124 1.333 . S
N123 C128 1.307 . S
N123 Zn129 2.020 . S
C124 N123 1.333 . S
C124 C125 1.379 . S
C124 H142 0.952 . S
C125 C124 1.379 . S
C125 C126 1.390 . S
C125 H152 0.949 . S
C126 C125 1.390 . S
C126 C127 1.357 . S
C127 C126 1.357 . S
C127 C128 1.370 . S
C127 H153 0.950 . S
C128 N123 1.307 . S
C128 C127 1.370 . S
C128 H146 0.948 . S
Zn129 N123 2.020 . S
Zn129 O138 2.039 . S
Zn129 O144 2.034 . S
Zn129 O148 2.025 . S
Zn129 O150 2.024 . S
C130 O149 1.246 1_545 S
C130 O150 1.249 . S
N131 C132 1.307 . S
N131 C133 1.333 . S
N131 Zn137 2.020 . S
C132 N131 1.307 . S
C132 C136 1.370 . S
C132 H143 0.948 . S
C133 N131 1.333 . S
C133 C134 1.379 . S
C133 H141 0.952 . S
C134 C133 1.379 . S
C134 C135 1.390 . S
C134 H154 0.949 . S
C135 C134 1.390 . S
C135 C136 1.357 . S
C136 C132 1.370 . S
C136 C135 1.357 . S
C136 H155 0.950 . S
Zn137 N131 2.020 . S
Zn137 O140 2.025 . S
Zn137 O145 2.024 . S
Zn137 O147 2.039 . S
Zn137 O149 2.034 . S
O138 C122 1.251 1_545 S
O138 Zn129 2.039 . S
C139 O144 1.246 1_565 S
C139 O145 1.249 . S
O140 C122 1.254 . S
O140 Zn137 2.025 . S
H141 C133 0.952 . S
H142 C124 0.952 . S
H143 C132 0.948 . S
O144 Zn129 2.034 . S
O144 C139 1.246 1_545 S
O145 Zn137 2.024 . S
O145 C139 1.249 . S
H146 C128 0.948 . S
O147 Zn137 2.039 . S
O147 C151 1.251 1_565 S
O148 Zn129 2.025 . S
O148 C151 1.254 . S
O149 C130 1.246 1_565 S
O149 Zn137 2.034 . S
O150 Zn129 2.024 . S
O150 C130 1.249 . S
C151 O147 1.251 1_545 S
C151 O148 1.254 . S
H152 C125 0.949 . S
H153 C127 0.950 . S
H154 C134 0.949 . S
H155 C136 0.950 . S
C156 O172 1.251 . S
C156 O174 1.254 . S
N157 C158 1.333 . S
N157 C162 1.307 . S
N157 Zn163 2.020 . S
C158 N157 1.333 . S
C158 C159 1.379 . S
C158 H176 0.952 . S
C159 C158 1.379 . S
C159 C160 1.390 . S
C159 H186 0.949 . S
C160 C159 1.390 . S
C160 C161 1.357 . S
C161 C160 1.357 . S
C161 C162 1.370 . S
C161 H187 0.950 . S
C162 N157 1.307 . S
C162 C161 1.370 . S
C162 H180 0.948 . S
Zn163 N157 2.020 . S
Zn163 O172 2.039 . S
Zn163 O178 2.034 . S
Zn163 O182 2.025 . S
Zn163 O184 2.024 . S
C164 O183 1.246 . S
C164 O184 1.249 . S
N165 C166 1.307 . S
N165 C167 1.333 . S
N165 Zn171 2.020 . S
C166 N165 1.307 . S
C166 C170 1.370 . S
C166 H177 0.948 . S
C167 N165 1.333 . S
C167 C168 1.379 . S
C167 H175 0.952 . S
C168 C167 1.379 . S
C168 C169 1.390 . S
C168 H188 0.949 . S
C169 C168 1.390 . S
C169 C170 1.357 . S
C170 C166 1.370 . S
C170 C169 1.357 . S
C170 H189 0.950 . S
Zn171 N165 2.020 . S
Zn171 O174 2.025 . S
Zn171 O179 2.024 . S
Zn171 O181 2.039 . S
Zn171 O183 2.034 . S
O172 C156 1.251 . S
O172 Zn163 2.039 . S
C173 O178 1.246 . S
C173 O179 1.249 . S
O174 C156 1.254 . S
O174 Zn171 2.025 . S
H175 C167 0.952 . S
H176 C158 0.952 . S
H177 C166 0.948 . S
O178 Zn163 2.034 . S
O178 C173 1.246 . S
O179 Zn171 2.024 . S
O179 C173 1.249 . S
H180 C162 0.948 . S
O181 Zn171 2.039 . S
O181 C185 1.251 . S
O182 Zn163 2.025 . S
O182 C185 1.254 . S
O183 C164 1.246 . S
O183 Zn171 2.034 . S
O184 Zn163 2.024 . S
O184 C164 1.249 . S
C185 O181 1.251 . S
C185 O182 1.254 . S
H186 C159 0.949 . S
H187 C161 0.950 . S
H188 C168 0.949 . S
H189 C170 0.950 . S
C190 O206 1.251 . S
C190 O208 1.254 . S
N191 C192 1.333 . S
N191 C196 1.307 . S
N191 Zn197 2.020 . S
C192 N191 1.333 . S
C192 C193 1.379 . S
C192 H210 0.952 . S
C193 C192 1.379 . S
C193 C194 1.390 . S
C193 H220 0.949 . S
C194 C193 1.390 . S
C194 C195 1.357 . S
C195 C194 1.357 . S
C195 C196 1.370 . S
C195 H221 0.950 . S
C196 N191 1.307 . S
C196 C195 1.370 . S
C196 H214 0.948 . S
Zn197 N191 2.020 . S
Zn197 O206 2.039 . S
Zn197 O212 2.034 1_455 S
Zn197 O216 2.025 1_455 S
Zn197 O218 2.024 . S
C198 O217 1.246 . S
C198 O218 1.249 . S
N199 C200 1.307 . S
N199 C201 1.333 1_455 S
N199 Zn205 2.020 . S
C200 N199 1.307 . S
C200 C204 1.370 . S
C200 H211 0.948 . S
C201 N199 1.333 1_655 S
C201 C202 1.379 . S
C201 H209 0.952 . S
C202 C201 1.379 . S
C202 C203 1.390 1_655 S
C202 H222 0.949 . S
C203 C202 1.390 1_455 S
C203 C204 1.357 . S
C204 C200 1.370 . S
C204 C203 1.357 . S
C204 H223 0.950 . S
Zn205 N199 2.020 . S
Zn205 O208 2.025 . S
Zn205 O213 2.024 1_455 S
Zn205 O215 2.039 1_455 S
Zn205 O217 2.034 . S
O206 C190 1.251 . S
O206 Zn197 2.039 . S
C207 O212 1.246 . S
C207 O213 1.249 . S
O208 C190 1.254 . S
O208 Zn205 2.025 . S
H209 C201 0.952 . S
H210 C192 0.952 . S
H211 C200 0.948 . S
O212 Zn197 2.034 1_655 S
O212 C207 1.246 . S
O213 Zn205 2.024 1_655 S
O213 C207 1.249 . S
H214 C196 0.948 . S
O215 Zn205 2.039 1_655 S
O215 C219 1.251 . S
O216 Zn197 2.025 1_655 S
O216 C219 1.254 . S
O217 C198 1.246 . S
O217 Zn205 2.034 . S
O218 Zn197 2.024 . S
O218 C198 1.249 . S
C219 O215 1.251 . S
C219 O216 1.254 . S
H220 C193 0.949 . S
H221 C195 0.950 . S
H222 C202 0.949 . S
H223 C204 0.950 . S
H224 C230 0.930 . S
H225 C233 0.930 . S
H226 C234 0.930 . S
H227 C235 0.930 . S
H228 C238 0.930 . S
H229 C239 0.930 . S
C230 H224 0.930 . S
C230 C231 1.355 1_545 S
C230 C232 1.415 . S
C231 C230 1.355 1_565 S
C231 C233 1.419 . S
C232 C230 1.415 . S
C232 C237 1.425 1_545 S
C232 C239 1.409 . S
C233 H225 0.930 . S
C233 C231 1.419 . S
C233 C234 1.362 . S
C234 H226 0.930 . S
C234 C233 1.362 . S
C234 C237 1.409 . S
C235 H227 0.930 . S
C235 C236 1.355 . S
C235 C237 1.415 . S
C236 C235 1.355 . S
C236 C238 1.419 1_565 S
C237 C232 1.425 1_565 S
C237 C234 1.409 . S
C237 C235 1.415 . S
C238 H228 0.930 . S
C238 C236 1.419 1_545 S
C238 C239 1.362 . S
C239 H229 0.930 . S
C239 C232 1.409 . S
C239 C238 1.362 . S
H240 C246 0.930 . S
H241 C249 0.930 . S
H242 C250 0.930 . S
H243 C251 0.930 . S
H244 C254 0.930 . S
H245 C255 0.930 . S
C246 H240 0.930 . S
C246 C247 1.355 . S
C246 C248 1.415 . S
C247 C246 1.355 . S
C247 C249 1.419 . S
C248 C246 1.415 . S
C248 C253 1.425 . S
C248 C255 1.409 . S
C249 H241 0.930 . S
C249 C247 1.419 . S
C249 C250 1.362 . S
C250 H242 0.930 . S
C250 C249 1.362 . S
C250 C253 1.409 . S
C251 H243 0.930 . S
C251 C252 1.355 . S
C251 C253 1.415 . S
C252 C251 1.355 . S
C252 C254 1.419 . S
C253 C248 1.425 . S
C253 C250 1.409 . S
C253 C251 1.415 . S
C254 H244 0.930 . S
C254 C252 1.419 . S
C254 C255 1.362 . S
C255 H245 0.930 . S
C255 C248 1.409 . S
C255 C254 1.362 . S
H256 C262 0.930 . S
H257 C265 0.930 . S
H258 C266 0.930 . S
H259 C267 0.930 . S
H260 C270 0.930 . S
H261 C271 0.930 . S
C262 H256 0.930 . S
C262 C263 1.355 . S
C262 C264 1.415 . S
C263 C262 1.355 . S
C263 C265 1.419 . S
C264 C262 1.415 . S
C264 C269 1.425 . S
C264 C271 1.409 . S
C265 H257 0.930 . S
C265 C263 1.419 . S
C265 C266 1.362 . S
C266 H258 0.930 . S
C266 C265 1.362 . S
C266 C269 1.409 . S
C267 H259 0.930 . S
C267 C268 1.355 . S
C267 C269 1.415 . S
C268 C267 1.355 . S
C268 C270 1.419 . S
C269 C264 1.425 . S
C269 C266 1.409 . S
C269 C267 1.415 . S
C270 H260 0.930 . S
C270 C268 1.419 . S
C270 C271 1.362 . S
C271 H261 0.930 . S
C271 C264 1.409 . S
C271 C270 1.362 . S
H272 C278 0.930 . S
H273 C281 0.930 . S
H274 C282 0.930 . S
H275 C283 0.930 . S
H276 C286 0.930 1_655 S
H277 C287 0.930 1_655 S
C278 H272 0.930 . S
C278 C279 1.355 . S
C278 C280 1.415 . S
C279 C278 1.355 . S
C279 C281 1.419 . S
C280 C278 1.415 . S
C280 C285 1.425 . S
C280 C287 1.409 . S
C281 H273 0.930 . S
C281 C279 1.419 . S
C281 C282 1.362 . S
C282 H274 0.930 . S
C282 C281 1.362 . S
C282 C285 1.409 . S
C283 H275 0.930 . S
C283 C284 1.355 . S
C283 C285 1.415 . S
C284 C283 1.355 . S
C284 C286 1.419 . S
C285 C280 1.425 . S
C285 C282 1.409 . S
C285 C283 1.415 . S
C286 H276 0.930 1_455 S
C286 C284 1.419 . S
C286 C287 1.362 . S
C287 H277 0.930 1_455 S
C287 C280 1.409 . S
C287 C286 1.362 . S
H288 C294 0.930 . S
H289 C297 0.930 . S
H290 C298 0.930 . S
H291 C299 0.930 . S
H292 C302 0.930 . S
H293 C303 0.930 . S
C294 H288 0.930 . S
C294 C295 1.355 1_545 S
C294 C296 1.415 . S
C295 C294 1.355 1_565 S
C295 C297 1.419 1_556 S
C296 C294 1.415 . S
C296 C301 1.425 1_545 S
C296 C303 1.409 . S
C297 H289 0.930 . S
C297 C295 1.419 1_554 S
C297 C298 1.362 . S
C298 H290 0.930 . S
C298 C297 1.362 . S
C298 C301 1.409 1_554 S
C299 H291 0.930 . S
C299 C300 1.355 1_565 S
C299 C301 1.415 . S
C300 C299 1.355 1_545 S
C300 C302 1.419 . S
C301 C296 1.425 1_565 S
C301 C298 1.409 1_556 S
C301 C299 1.415 . S
C302 H292 0.930 . S
C302 C300 1.419 . S
C302 C303 1.362 . S
C303 H293 0.930 . S
C303 C296 1.409 . S
C303 C302 1.362 . S
H304 C310 0.930 . S
H305 C313 0.930 . S
H306 C314 0.930 . S
H307 C315 0.930 . S
H308 C318 0.930 . S
H309 C319 0.930 . S
C310 H304 0.930 . S
C310 C311 1.355 1_556 S
C310 C312 1.415 . S
C311 C310 1.355 1_554 S
C311 C313 1.419 . S
C312 C310 1.415 . S
C312 C317 1.425 . S
C312 C319 1.409 . S
C313 H305 0.930 . S
C313 C311 1.419 . S
C313 C314 1.362 . S
C314 H306 0.930 . S
C314 C313 1.362 . S
C314 C317 1.409 1_554 S
C315 H307 0.930 . S
C315 C316 1.355 . S
C315 C317 1.415 . S
C316 C315 1.355 . S
C316 C318 1.419 . S
C317 C312 1.425 . S
C317 C314 1.409 1_556 S
C317 C315 1.415 . S
C318 H308 0.930 . S
C318 C316 1.419 . S
C318 C319 1.362 . S
C319 H309 0.930 . S
C319 C312 1.409 . S
C319 C318 1.362 . S
H320 C326 0.930 . S
H321 C329 0.929 . S
H322 C330 0.930 . S
H323 C331 0.930 . S
H324 C334 0.930 . S
H325 C335 0.930 . S
C326 H320 0.930 . S
C326 C327 1.355 . S
C326 C328 1.415 . S
C327 C326 1.355 . S
C327 C329 1.416 1_554 S
C328 C326 1.415 . S
C328 C333 1.425 1_554 S
C328 C335 1.409 . S
C329 H321 0.929 . S
C329 C327 1.416 1_556 S
C329 C330 1.366 . S
C330 H322 0.930 . S
C330 C329 1.366 . S
C330 C333 1.409 . S
C331 H323 0.930 . S
C331 C332 1.355 . S
C331 C333 1.415 . S
C332 C331 1.355 . S
C332 C334 1.419 . S
C333 C328 1.425 1_556 S
C333 C330 1.409 . S
C333 C331 1.415 . S
C334 H324 0.930 . S
C334 C332 1.419 . S
C334 C335 1.362 1_556 S
C335 H325 0.930 . S
C335 C328 1.409 . S
C335 C334 1.362 1_554 S
H336 C342 0.930 . S
H337 C345 0.930 1_454 S
H338 C346 0.930 . S
H339 C347 0.930 . S
H340 C350 0.930 . S
H341 C351 0.930 . S
C342 H336 0.930 . S
C342 C343 1.355 . S
C342 C344 1.415 . S
C343 C342 1.355 . S
C343 C345 1.419 . S
C344 C342 1.415 . S
C344 C349 1.425 . S
C344 C351 1.409 . S
C345 H337 0.930 1_656 S
C345 C343 1.419 . S
C345 C346 1.362 1_655 S
C346 H338 0.930 . S
C346 C345 1.362 1_455 S
C346 C349 1.409 1_455 S
C347 H339 0.930 . S
C347 C348 1.355 1_455 S
C347 C349 1.415 1_455 S
C348 C347 1.355 1_655 S
C348 C350 1.419 . S
C349 C344 1.425 . S
C349 C346 1.409 1_655 S
C349 C347 1.415 1_655 S
C350 H340 0.930 . S
C350 C348 1.419 . S
C350 C351 1.362 . S
C351 H341 0.930 . S
C351 C344 1.409 . S
C351 C350 1.362 . S
H352 C358 0.930 . S
H353 C361 0.930 . S
H354 C362 0.930 . S
H355 C363 0.930 . S
H356 C366 0.930 1_655 S
H357 C367 0.930 1_655 S
C358 H352 0.930 . S
C358 C359 1.355 . S
C358 C360 1.415 . S
C359 C358 1.355 . S
C359 C361 1.419 . S
C360 C358 1.415 . S
C360 C365 1.425 . S
C360 C367 1.409 . S
C361 H353 0.930 . S
C361 C359 1.419 . S
C361 C362 1.362 . S
C362 H354 0.930 . S
C362 C361 1.362 . S
C362 C365 1.409 . S
C363 H355 0.930 . S
C363 C364 1.355 . S
C363 C365 1.415 . S
C364 C363 1.355 . S
C364 C366 1.419 . S
C365 C360 1.425 . S
C365 C362 1.409 . S
C365 C363 1.415 . S
C366 H356 0.930 1_455 S
C366 C364 1.419 . S
C366 C367 1.362 . S
C367 H357 0.930 1_455 S
C367 C360 1.409 . S
C367 C366 1.362 . S
H368 C374 0.930 . S
H369 C377 0.931 . S
H370 C378 0.930 . S
H371 C379 0.930 . S
H372 C382 0.930 . S
H373 C383 0.930 . S
C374 H368 0.930 . S
C374 C375 1.355 . S
C374 C376 1.415 . S
C375 C374 1.355 . S
C375 C377 1.419 . S
C376 C374 1.415 . S
C376 C381 1.425 . S
C376 C383 1.409 . S
C377 H369 0.931 . S
C377 C375 1.419 . S
C377 C378 1.362 . S
C378 H370 0.930 . S
C378 C377 1.362 . S
C378 C381 1.409 . S
C379 H371 0.930 . S
C379 C380 1.355 . S
C379 C381 1.415 . S
C380 C379 1.355 . S
C380 C382 1.419 . S
C381 C376 1.425 . S
C381 C378 1.409 . S
C381 C379 1.415 . S
C382 H372 0.930 . S
C382 C380 1.419 . S
C382 C383 1.362 . S
C383 H373 0.930 . S
C383 C376 1.409 . S
C383 C382 1.362 . S
H384 C390 0.930 . S
H385 C393 0.930 . S
H386 C394 0.930 . S
H387 C395 0.930 . S
H388 C398 0.930 . S
H389 C399 0.930 . S
C390 H384 0.930 . S
C390 C391 1.355 . S
C390 C392 1.415 . S
C391 C390 1.355 . S
C391 C393 1.419 . S
C392 C390 1.415 . S
C392 C397 1.425 . S
C392 C399 1.409 . S
C393 H385 0.930 . S
C393 C391 1.419 . S
C393 C394 1.362 . S
C394 H386 0.930 . S
C394 C393 1.362 . S
C394 C397 1.409 . S
C395 H387 0.930 . S
C395 C396 1.355 . S
C395 C397 1.415 . S
C396 C395 1.355 . S
C396 C398 1.419 . S
C397 C392 1.425 . S
C397 C394 1.409 . S
C397 C395 1.415 . S
C398 H388 0.930 . S
C398 C396 1.419 . S
C398 C399 1.362 . S
C399 H389 0.930 . S
C399 C392 1.409 . S
C399 C398 1.362 . S
H400 C406 0.930 . S
H401 C409 0.930 . S
H402 C410 0.930 . S
H403 C411 0.930 . S
H404 C414 0.930 . S
H405 C415 0.930 . S
C406 H400 0.930 . S
C406 C407 1.355 . S
C406 C408 1.415 . S
C407 C406 1.355 . S
C407 C409 1.419 . S
C408 C406 1.415 . S
C408 C413 1.425 . S
C408 C415 1.409 . S
C409 H401 0.930 . S
C409 C407 1.419 . S
C409 C410 1.362 . S
C410 H402 0.930 . S
C410 C409 1.362 . S
C410 C413 1.409 . S
C411 H403 0.930 . S
C411 C412 1.355 . S
C411 C413 1.415 . S
C412 C411 1.355 . S
C412 C414 1.419 . S
C413 C408 1.425 . S
C413 C410 1.409 . S
C413 C411 1.415 . S
C414 H404 0.930 . S
C414 C412 1.419 . S
C414 C415 1.362 . S
C415 H405 0.930 . S
C415 C408 1.409 . S
C415 C414 1.362 . S
H416 C422 0.930 1_455 S
H417 C425 0.930 . S
H418 C426 0.930 . S
H419 C427 0.930 . S
H420 C430 0.930 . S
H421 C431 0.930 . S
C422 H416 0.930 1_655 S
C422 C423 1.355 . S
C422 C424 1.424 . S
C423 C422 1.355 . S
C423 C425 1.419 . S
C424 C422 1.424 . S
C424 C429 1.448 . S
C424 C431 1.379 1_655 S
C425 H417 0.930 . S
C425 C423 1.419 . S
C425 C426 1.362 . S
C426 H418 0.930 . S
C426 C425 1.362 . S
C426 C429 1.409 . S
C427 H419 0.930 . S
C427 C428 1.355 1_655 S
C427 C429 1.415 . S
C428 C427 1.355 1_455 S
C428 C430 1.419 . S
C429 C424 1.448 . S
C429 C426 1.409 . S
C429 C427 1.415 . S
C430 H420 0.930 . S
C430 C428 1.419 . S
C430 C431 1.362 . S
C431 H421 0.930 . S
C431 C424 1.379 1_455 S
C431 C430 1.362 . S
H432 C438 0.930 . S
H433 C441 0.930 . S
H434 C442 0.930 . S
H435 C443 0.930 . S
H436 C446 0.930 . S
H437 C447 0.930 1_554 S
C438 H432 0.930 . S
C438 C439 1.355 1_544 S
C438 C440 1.415 1_554 S
C439 C438 1.355 1_566 S
C439 C441 1.419 . S
C440 C438 1.415 1_556 S
C440 C445 1.425 1_545 S
C440 C447 1.409 . S
C441 H433 0.930 . S
C441 C439 1.419 . S
C441 C442 1.362 . S
C442 H434 0.930 . S
C442 C441 1.362 . S
C442 C445 1.409 . S
C443 H435 0.930 . S
C443 C444 1.355 1_565 S
C443 C445 1.415 . S
C444 C443 1.355 1_545 S
C444 C446 1.419 . S
C445 C440 1.425 1_565 S
C445 C442 1.409 . S
C445 C443 1.415 . S
C446 H436 0.930 . S
C446 C444 1.419 . S
C446 C447 1.362 . S
C447 H437 0.930 1_556 S
C447 C440 1.409 . S
C447 C446 1.362 . S
H448 C454 0.930 . S
H449 C457 0.930 . S
H450 C458 0.930 1_554 S
H451 C459 0.930 . S
H452 C462 0.930 . S
H453 C463 0.930 . S
C454 H448 0.930 . S
C454 C455 1.355 1_556 S
C454 C456 1.415 . S
C455 C454 1.355 1_554 S
C455 C457 1.419 . S
C456 C454 1.415 . S
C456 C461 1.425 . S
C456 C463 1.409 . S
C457 H449 0.930 . S
C457 C455 1.419 . S
C457 C458 1.361 1_554 S
C458 H450 0.930 1_556 S
C458 C457 1.361 1_556 S
C458 C461 1.410 . S
C459 H451 0.930 . S
C459 C460 1.355 . S
C459 C461 1.415 . S
C460 C459 1.355 . S
C460 C462 1.419 . S
C461 C456 1.425 . S
C461 C458 1.410 . S
C461 C459 1.415 . S
C462 H452 0.930 . S
C462 C460 1.419 . S
C462 C463 1.362 . S
C463 H453 0.930 . S
C463 C456 1.409 . S
C463 C462 1.362 . S
H464 C470 0.930 . S
H465 C473 0.930 . S
H466 C474 0.930 . S
H467 C475 0.930 . S
H468 C478 0.930 . S
H469 C479 0.930 . S
C470 H464 0.930 . S
C470 C471 1.355 . S
C470 C472 1.415 1_554 S
C471 C470 1.355 . S
C471 C473 1.419 . S
C472 C470 1.415 1_556 S
C472 C477 1.425 . S
C472 C479 1.409 . S
C473 H465 0.930 . S
C473 C471 1.419 . S
C473 C474 1.362 . S
C474 H466 0.930 . S
C474 C473 1.362 . S
C474 C477 1.409 1_554 S
C475 H467 0.930 . S
C475 C476 1.355 . S
C475 C477 1.415 . S
C476 C475 1.355 . S
C476 C478 1.419 . S
C477 C472 1.425 . S
C477 C474 1.409 1_556 S
C477 C475 1.415 . S
C478 H468 0.930 . S
C478 C476 1.419 . S
C478 C479 1.362 . S
C479 H469 0.930 . S
C479 C472 1.409 . S
C479 C478 1.362 . S
H480 C486 0.930 . S
H481 C489 0.930 . S
H482 C490 0.930 . S
H483 C491 0.930 . S
H484 C494 0.930 . S
H485 C495 0.930 . S
C486 H480 0.930 . S
C486 C487 1.355 . S
C486 C488 1.415 . S
C487 C486 1.355 . S
C487 C489 1.419 . S
C488 C486 1.415 . S
C488 C493 1.425 . S
C488 C495 1.409 . S
C489 H481 0.930 . S
C489 C487 1.419 . S
C489 C490 1.362 . S
C490 H482 0.930 . S
C490 C489 1.362 . S
C490 C493 1.409 . S
C491 H483 0.930 . S
C491 C492 1.355 . S
C491 C493 1.415 . S
C492 C491 1.355 . S
C492 C494 1.419 . S
C493 C488 1.425 . S
C493 C490 1.409 . S
C493 C491 1.415 . S
C494 H484 0.930 . S
C494 C492 1.419 . S
C494 C495 1.362 . S
C495 H485 0.930 . S
C495 C488 1.409 . S
C495 C494 1.362 . S
H496 C502 0.930 . S
H497 C505 0.930 . S
H498 C506 0.930 . S
H499 C507 0.930 . S
H500 C510 0.930 . S
H501 C511 0.930 . S
C502 H496 0.930 . S
C502 C503 1.355 1_565 S
C502 C504 1.415 . S
C503 C502 1.355 1_545 S
C503 C505 1.419 . S
C504 C502 1.415 . S
C504 C509 1.425 1_565 S
C504 C511 1.409 . S
C505 H497 0.930 . S
C505 C503 1.419 . S
C505 C506 1.362 . S
C506 H498 0.930 . S
C506 C505 1.362 . S
C506 C509 1.409 . S
C507 H499 0.930 . S
C507 C508 1.389 . S
C507 C509 1.415 1_556 S
C508 C507 1.389 . S
C508 C510 1.378 1_545 S
C509 C504 1.425 1_545 S
C509 C506 1.409 . S
C509 C507 1.415 1_554 S
C510 H500 0.930 . S
C510 C508 1.378 1_565 S
C510 C511 1.362 1_556 S
C511 H501 0.930 . S
C511 C504 1.409 . S
C511 C510 1.362 1_554 S
H512 C518 0.930 . S
H513 C521 0.930 . S
H514 C522 0.930 . S
H515 C523 0.930 . S
H516 C526 0.930 . S
H517 C527 0.930 . S
C518 H512 0.930 . S
C518 C519 1.355 . S
C518 C520 1.415 . S
C519 C518 1.355 . S
C519 C521 1.419 . S
C520 C518 1.415 . S
C520 C525 1.425 . S
C520 C527 1.409 . S
C521 H513 0.930 . S
C521 C519 1.419 . S
C521 C522 1.362 . S
C522 H514 0.930 . S
C522 C521 1.362 . S
C522 C525 1.409 . S
C523 H515 0.930 . S
C523 C524 1.355 1_554 S
C523 C525 1.415 . S
C524 C523 1.355 1_556 S
C524 C526 1.419 . S
C525 C520 1.425 . S
C525 C522 1.409 . S
C525 C523 1.415 . S
C526 H516 0.930 . S
C526 C524 1.419 . S
C526 C527 1.362 1_556 S
C527 H517 0.930 . S
C527 C520 1.409 . S
C527 C526 1.362 1_554 S
H528 C534 0.930 . S
H529 C537 0.930 . S
H530 C538 0.930 . S
H531 C539 0.930 . S
H532 C542 0.930 . S
H533 C543 0.930 . S
C534 H528 0.930 . S
C534 C535 1.355 . S
C534 C536 1.415 . S
C535 C534 1.355 . S
C535 C537 1.419 . S
C536 C534 1.415 . S
C536 C541 1.425 1_554 S
C536 C543 1.409 . S
C537 H529 0.930 . S
C537 C535 1.419 . S
C537 C538 1.362 1_554 S
C538 H530 0.930 . S
C538 C537 1.362 1_556 S
C538 C541 1.409 . S
C539 H531 0.930 . S
C539 C540 1.355 . S
C539 C541 1.415 . S
C540 C539 1.355 . S
C540 C542 1.419 1_556 S
C541 C536 1.425 1_556 S
C541 C538 1.409 . S
C541 C539 1.415 . S
C542 H532 0.930 . S
C542 C540 1.419 1_554 S
C542 C543 1.362 . S
C543 H533 0.930 . S
C543 C536 1.409 . S
C543 C542 1.362 . S
H544 C550 0.930 . S
H545 C553 0.930 . S
H546 C554 0.930 . S
H547 C555 0.930 . S
H548 C558 0.930 . S
H549 C559 0.930 . S
C550 H544 0.930 . S
C550 C551 1.355 . S
C550 C552 1.415 . S
C551 C550 1.355 . S
C551 C553 1.419 . S
C552 C550 1.415 . S
C552 C557 1.425 . S
C552 C559 1.409 1_655 S
C553 H545 0.930 . S
C553 C551 1.419 . S
C553 C554 1.362 . S
C554 H546 0.930 . S
C554 C553 1.362 . S
C554 C557 1.409 . S
C555 H547 0.930 . S
C555 C556 1.355 . S
C555 C557 1.415 . S
C556 C555 1.355 . S
C556 C558 1.419 1_655 S
C557 C552 1.425 . S
C557 C554 1.409 . S
C557 C555 1.415 . S
C558 H548 0.930 . S
C558 C556 1.419 1_455 S
C558 C559 1.362 . S
C559 H549 0.930 . S
C559 C552 1.409 1_455 S
C559 C558 1.362 . S
H560 C566 0.930 . S
H561 C569 0.930 . S
H562 C570 0.930 . S
H563 C571 0.930 . S
H564 C574 0.930 . S
H565 C575 0.930 . S
C566 H560 0.930 . S
C566 C567 1.355 1_565 S
C566 C568 1.415 . S
C567 C566 1.355 1_545 S
C567 C569 1.419 . S
C568 C566 1.415 . S
C568 C573 1.425 1_565 S
C568 C575 1.409 . S
C569 H561 0.930 . S
C569 C567 1.419 . S
C569 C570 1.362 . S
C570 H562 0.930 . S
C570 C569 1.362 . S
C570 C573 1.409 . S
C571 H563 0.930 . S
C571 C572 1.355 1_545 S
C571 C573 1.415 . S
C572 C571 1.355 1_565 S
C572 C574 1.419 . S
C573 C568 1.425 1_545 S
C573 C570 1.409 . S
C573 C571 1.415 . S
C574 H564 0.930 . S
C574 C572 1.419 . S
C574 C575 1.362 . S
C575 H565 0.930 . S
C575 C568 1.409 . S
C575 C574 1.362 . S
H576 C582 0.930 . S
H577 C585 0.930 . S
H578 C586 0.930 . S
H579 C587 0.930 . S
H580 C590 0.930 . S
H581 C591 0.930 . S
C582 H576 0.930 . S
C582 C583 1.355 . S
C582 C584 1.415 . S
C583 C582 1.355 . S
C583 C585 1.419 . S
C584 C582 1.415 . S
C584 C589 1.425 . S
C584 C591 1.409 . S
C585 H577 0.930 . S
C585 C583 1.419 . S
C585 C586 1.362 . S
C586 H578 0.930 . S
C586 C585 1.362 . S
C586 C589 1.409 . S
C587 H579 0.930 . S
C587 C588 1.355 . S
C587 C589 1.415 . S
C588 C587 1.355 . S
C588 C590 1.419 . S
C589 C584 1.425 . S
C589 C586 1.409 . S
C589 C587 1.415 . S
C590 H580 0.930 . S
C590 C588 1.419 . S
C590 C591 1.362 . S
C591 H581 0.930 . S
C591 C584 1.409 . S
C591 C590 1.362 . S
H592 C598 0.930 . S
H593 C601 0.930 . S
H594 C602 0.930 . S
H595 C603 0.930 . S
H596 C606 0.930 . S
H597 C607 0.930 . S
C598 H592 0.930 . S
C598 C599 1.355 . S
C598 C600 1.415 . S
C599 C598 1.355 . S
C599 C601 1.419 . S
C600 C598 1.415 . S
C600 C605 1.425 . S
C600 C607 1.409 . S
C601 H593 0.930 . S
C601 C599 1.419 . S
C601 C602 1.362 . S
C602 H594 0.930 . S
C602 C601 1.362 . S
C602 C605 1.409 . S
C603 H595 0.930 . S
C603 C604 1.355 . S
C603 C605 1.415 . S
C604 C603 1.355 . S
C604 C606 1.419 . S
C605 C600 1.425 . S
C605 C602 1.409 . S
C605 C603 1.415 . S
C606 H596 0.930 . S
C606 C604 1.419 . S
C606 C607 1.362 . S
C607 H597 0.930 . S
C607 C600 1.409 . S
C607 C606 1.362 . S
C231 N70 1.824 . S
C236 C105 1.862 . S
C252 C126 1.537 . S
C247 N81 1.523 . S
C268 C160 1.375 . S
C263 N48 1.313 . S
C284 C194 1.543 . S
C279 N59 1.532 . S
C300 C96 1.867 . S
C295 N26 1.842 1_556 S
C311 N37 1.530 . S
C316 C135 1.543 . S
C327 N4 1.314 . S
C332 C169 1.374 . S
C343 N15 1.538 . S
C348 C203 1.552 1_655 S
C364 C117 0.692 . S
C359 C64 0.697 . S
C380 C122 1.126 . S
C375 C75 1.134 1_565 S
C396 C156 1.065 . S
C391 C86 1.059 . S
C407 C53 0.550 . S
C412 C190 0.534 . S
C423 C20 0.767 . S
C428 C88 0.725 . S
C444 C151 1.133 . S
C439 C31 1.120 1_566 S
C460 C185 1.052 . S
C455 C42 1.001 . S
C471 C9 0.501 . S
C476 C219 0.538 . S
C487 C61 1.278 . S
C492 C101 1.314 . S
C503 C72 1.698 . S
C508 C130 1.753 . S
C524 C164 1.547 . S
C519 C83 1.513 . S
C540 C198 1.598 . S
C535 C50 1.576 . S
C551 C17 1.297 . S
C556 C92 1.326 . S
C572 C139 1.756 . S
C567 C28 1.712 . S
C588 C173 1.546 . S
C583 C39 1.518 . S
C599 C6 1.578 . S
C604 C207 1.604 . S
