# Generated by pormake.
# Topology zzz, (3,6)-cn, num edge types: 1
# Building blocks:
#     Node 0, Type 0, BuildingBlock: VETTIZ_charged_linker_0, # of connection points: 3
#     Node 1, Type 0, BuildingBlock: VETTIZ_charged_linker_0, # of connection points: 3
#     Node 2, Type 0, BuildingBlock: VETTIZ_charged_linker_0, # of connection points: 3
#     Node 3, Type 0, BuildingBlock: VETTIZ_charged_linker_0, # of connection points: 3
#     Node 4, Type 0, BuildingBlock: VETTIZ_charged_linker_0, # of connection points: 3
#     Node 5, Type 0, BuildingBlock: VETTIZ_charged_linker_0, # of connection points: 3
#     Node 6, Type 0, BuildingBlock: VETTIZ_charged_linker_0, # of connection points: 3
#     Node 7, Type 0, BuildingBlock: VETTIZ_charged_linker_0, # of connection points: 3
#     Node 8, Type 1, BuildingBlock: KUMBOL_clean_sbu_1, # of connection points: 6
#     Node 9, Type 1, BuildingBlock: KUMBOL_clean_sbu_1, # of connection points: 6
#     Node 10, Type 1, BuildingBlock: KUMBOL_clean_sbu_1, # of connection points: 6
#     Node 11, Type 1, BuildingBlock: KUMBOL_clean_sbu_1, # of connection points: 6
#     Edge 12, Type (0, 1), BuildingBlock: XIVTED_clean_linker_0, # of connection points: 2
#     Edge 13, Type (0, 1), BuildingBlock: XIVTED_clean_linker_0, # of connection points: 2
#     Edge 14, Type (0, 1), BuildingBlock: XIVTED_clean_linker_0, # of connection points: 2
#     Edge 15, Type (0, 1), BuildingBlock: XIVTED_clean_linker_0, # of connection points: 2
#     Edge 16, Type (0, 1), BuildingBlock: XIVTED_clean_linker_0, # of connection points: 2
#     Edge 17, Type (0, 1), BuildingBlock: XIVTED_clean_linker_0, # of connection points: 2
#     Edge 18, Type (0, 1), BuildingBlock: XIVTED_clean_linker_0, # of connection points: 2
#     Edge 19, Type (0, 1), BuildingBlock: XIVTED_clean_linker_0, # of connection points: 2
#     Edge 20, Type (0, 1), BuildingBlock: XIVTED_clean_linker_0, # of connection points: 2
#     Edge 21, Type (0, 1), BuildingBlock: XIVTED_clean_linker_0, # of connection points: 2
#     Edge 22, Type (0, 1), BuildingBlock: XIVTED_clean_linker_0, # of connection points: 2
#     Edge 23, Type (0, 1), BuildingBlock: XIVTED_clean_linker_0, # of connection points: 2
#     Edge 24, Type (0, 1), BuildingBlock: XIVTED_clean_linker_0, # of connection points: 2
#     Edge 25, Type (0, 1), BuildingBlock: XIVTED_clean_linker_0, # of connection points: 2
#     Edge 26, Type (0, 1), BuildingBlock: XIVTED_clean_linker_0, # of connection points: 2
#     Edge 27, Type (0, 1), BuildingBlock: XIVTED_clean_linker_0, # of connection points: 2
#     Edge 28, Type (0, 1), BuildingBlock: XIVTED_clean_linker_0, # of connection points: 2
#     Edge 29, Type (0, 1), BuildingBlock: XIVTED_clean_linker_0, # of connection points: 2
#     Edge 30, Type (0, 1), BuildingBlock: XIVTED_clean_linker_0, # of connection points: 2
#     Edge 31, Type (0, 1), BuildingBlock: XIVTED_clean_linker_0, # of connection points: 2
#     Edge 32, Type (0, 1), BuildingBlock: XIVTED_clean_linker_0, # of connection points: 2
#     Edge 33, Type (0, 1), BuildingBlock: XIVTED_clean_linker_0, # of connection points: 2
#     Edge 34, Type (0, 1), BuildingBlock: XIVTED_clean_linker_0, # of connection points: 2
#     Edge 35, Type (0, 1), BuildingBlock: XIVTED_clean_linker_0, # of connection points: 2
# Relax obj value: 0.320
# Max RMSD: 0.211
# Mean RMSD: 0.185
data_MOF--net-zzz--node1-KUMBOL_clean_sbu_1--node2-VETTIZ_charged_linker_0--edge1-XIVTED_clean_linker_0
_symmetry_space_group_name_H-M    P1
_symmetry_Int_Tables_number       1
_symmetry_cell_setting            triclinic
loop_
_symmetry_equiv_pos_as_xyz
'x, y, z'
_cell_length_a     56.184292
_cell_length_b     56.178649
_cell_length_c     20.852433
_cell_angle_alpha  90.005246
_cell_angle_beta   90.061767
_cell_angle_gamma 90.461715
loop_
_atom_site_label
_atom_site_type_symbol
_atom_site_fract_x
_atom_site_fract_y
_atom_site_fract_z
_atom_type_partial_charge
C0 C 0.80829 0.54591 0.32137 0.0
C1 C 0.82839 0.5577 0.34935 0.0
C2 C 0.83349 0.5813 0.33074 0.0
C3 C 0.80346 0.57906 0.24856 0.0
C4 C 0.79537 0.55761 0.27184 0.0
C5 C 0.7717 0.55107 0.23915 0.0
H6 H 0.69228 0.58341 0.99832 0.0
C7 C 0.78898 0.58627 0.19423 0.0
C8 C 0.76891 0.57132 0.18965 0.0
H9 H 0.68268 0.52428 0.12779 0.0
H10 H 0.72069 0.5342 0.18031 0.0
H11 H 0.71493 0.6228 0.0969 0.0
H12 H 0.73512 0.5742 0.95669 0.0
H13 H 0.76383 0.58526 0.9739 0.0
H14 H 0.74115 0.6046 0.94172 0.0
H15 H 0.71194 0.62388 1.01107 0.0
H16 H 0.73788 0.63602 0.05057 0.0
C17 C 0.75183 0.5515 0.28989 0.0
C18 C 0.77398 0.52664 0.2065 0.0
C19 C 0.83173 0.61951 1.00321 0.0
C20 C 0.82333 0.62554 0.9416 0.0
C21 C 0.79928 0.63218 0.93492 0.0
C22 C 0.78327 0.62894 0.98575 0.0
C23 C 0.79137 0.61852 0.04275 0.0
C24 C 0.81543 0.61616 0.05319 0.0
C25 C 0.82074 0.60706 0.1195 0.0
C26 C 0.79546 0.60152 0.14328 0.0
C27 C 0.77866 0.60676 0.09598 0.0
C28 C 0.83362 0.6271 0.15712 0.0
C29 C 0.83606 0.58434 0.11544 0.0
C30 C 0.69783 0.57285 0.0391 0.0
C31 C 0.68396 0.55348 0.05966 0.0
C32 C 0.69279 0.53955 0.11112 0.0
C33 C 0.71473 0.54538 0.14184 0.0
C34 C 0.72825 0.56507 0.12022 0.0
C35 C 0.71968 0.57799 0.06859 0.0
C36 C 0.73683 0.5966 0.04568 0.0
C37 C 0.75661 0.59417 0.09473 0.0
C38 C 0.75182 0.57575 0.13943 0.0
C39 C 0.7248 0.62121 0.05088 0.0
C40 C 0.74471 0.59001 0.9762 0.0
H41 H 0.82368 0.6107 0.27173 0.0
H42 H 0.80287 0.52841 0.33771 0.0
H43 H 0.78953 0.52658 0.17358 0.0
H44 H 0.75803 0.52216 0.17778 0.0
H45 H 0.77652 0.51241 0.24281 0.0
H46 H 0.75217 0.56867 0.31643 0.0
H47 H 0.75422 0.53687 0.32513 0.0
H48 H 0.73399 0.54966 0.2683 0.0
H49 H 0.85019 0.61507 1.01103 0.0
H50 H 0.79249 0.63819 0.88912 0.0
H51 H 0.76502 0.63356 0.97819 0.0
H52 H 0.8446 0.63854 0.12499 0.0
H53 H 0.84646 0.61984 0.19231 0.0
H54 H 0.82069 0.63881 0.18188 0.0
H55 H 0.82702 0.57051 0.08579 0.0
H56 H 0.83943 0.57675 0.16358 0.0
H57 H 0.85375 0.58828 0.09409 0.0
H58 H 0.84769 0.59127 0.35385 0.0
C59 C 0.8207 0.59216 0.28155 0.0
C60 C 0.90142 0.80337 0.96476 0.0
C61 C 0.89327 0.8269 0.97223 0.0
C62 C 0.88562 0.83405 0.03389 0.0
C63 C 0.90425 0.79947 0.07971 0.0
C64 C 0.90665 0.7899 0.01936 0.0
C65 C 0.91795 0.76577 0.02132 0.0
H66 H 1.00201 0.6974 0.10969 0.0
C67 C 0.91837 0.78514 0.12469 0.0
C68 C 0.92448 0.76423 0.09271 0.0
H69 H 0.93616 0.67589 1.01622 0.0
H70 H 0.91685 0.71073 0.06051 0.0
H71 H 1.00003 0.76035 0.09536 0.0
H72 H 0.96589 0.71834 0.24528 0.0
H73 H 0.98513 0.74177 0.2716 0.0
H74 H 0.99749 0.71624 0.23246 0.0
H75 H 0.01738 0.74036 0.14381 0.0
H76 H 1.0073 0.76812 0.17631 0.0
C77 C 0.94031 0.76542 0.97812 0.0
C78 C 0.89923 0.74724 0.99899 0.0
C79 C 0.95696 0.8325 0.30347 0.0
C80 C 0.97788 0.83073 0.33985 0.0
C81 C 0.99269 0.8108 0.32843 0.0
C82 C 0.98622 0.79293 0.28293 0.0
C83 C 0.96492 0.79512 0.24757 0.0
C84 C 0.95108 0.81508 0.25784 0.0
C85 C 0.92998 0.81625 0.21412 0.0
C86 C 0.93252 0.7931 0.17727 0.0
C87 C 0.95296 0.78026 0.1967 0.0
C88 C 0.9325 0.83881 0.17103 0.0
C89 C 0.90713 0.816 0.25539 0.0
C90 C 0.98381 0.70081 0.09563 0.0
C91 C 0.97114 0.68431 0.05558 0.0
C92 C 0.9468 0.68848 0.04351 0.0
C93 C 0.93581 0.70903 0.06545 0.0
C94 C 0.94937 0.72634 0.09641 0.0
C95 C 0.97196 0.72165 0.11768 0.0
C96 C 0.97936 0.74069 0.16709 0.0
C97 C 0.95789 0.75779 0.16594 0.0
C98 C 0.94173 0.74928 0.11997 0.0
C99 C 1.00236 0.75311 0.14459 0.0
C100 C 0.98221 0.72868 0.23292 0.0
H101 H 0.88613 0.82679 0.1344 0.0
H102 H 0.90627 0.79647 0.91828 0.0
H103 H 0.88758 0.75457 0.96073 0.0
H104 H 0.88759 0.74158 0.03936 0.0
H105 H 0.90768 0.73151 0.97679 0.0
H106 H 0.95314 0.7796 0.99269 0.0
H107 H 0.93555 0.76813 0.92697 0.0
H108 H 0.94948 0.74806 0.98103 0.0
H109 H 0.94548 0.84777 0.30879 0.0
H110 H 1.00909 0.80888 0.35516 0.0
H111 H 0.99803 0.77821 0.27606 0.0
H112 H 0.94651 0.85137 0.18816 0.0
H113 H 0.91595 0.84942 0.1702 0.0
H114 H 0.93756 0.83419 0.12111 0.0
H115 H 0.90848 0.80266 0.29464 0.0
H116 H 0.89119 0.81092 0.22725 0.0
H117 H 0.9041 0.83371 0.2775 0.0
H118 H 0.87742 0.85121 0.04108 0.0
C119 C 0.89115 0.82032 0.08796 0.0
C120 C 0.82891 0.99075 0.08083 0.0
C121 C 0.84256 0.97797 0.03464 0.0
C122 C 0.83443 0.95525 1.01527 0.0
C123 C 0.79872 0.95976 0.0775 0.0
C124 C 0.80712 0.9807 0.10347 0.0
C125 C 0.79057 0.98872 0.15787 0.0
H126 H 0.69197 0.95538 0.34151 0.0
C127 C 0.77663 0.95302 0.10873 0.0
C128 C 0.77211 0.96822 0.1603 0.0
H129 H 0.72811 0.02315 0.35097 0.0
H130 H 0.75679 1.00975 0.26976 0.0
H131 H 0.68046 0.94929 0.23323 0.0
H132 H 0.73928 0.91887 0.31002 0.0
H133 H 0.72514 0.9001 0.25252 0.0
H134 H 0.7076 0.91384 0.31418 0.0
H135 H 0.6854 0.9204 0.20539 0.0
H136 H 0.69397 0.94588 0.15701 0.0
C137 C 0.77907 0.01238 0.13799 0.0
C138 C 0.80476 0.9908 0.22075 0.0
C139 C 0.708 0.91645 0.99123 0.0
C140 C 0.68715 0.90511 1.01478 0.0
C141 C 0.6887 0.89326 0.07466 0.0
C142 C 0.7078 0.89797 0.11616 0.0
C143 C 0.72526 0.91419 0.09659 0.0
C144 C 0.72721 0.9202 0.03302 0.0
C145 C 0.75006 0.93352 0.02029 0.0
C146 C 0.7598 0.93599 0.08879 0.0
C147 C 0.74298 0.92785 0.13307 0.0
C148 C 0.7449 0.9581 0.9904 0.0
C149 C 0.76563 0.91847 0.97535 0.0
C150 C 0.70624 0.96727 0.3268 0.0
C151 C 0.70793 0.99011 0.35324 0.0
C152 C 0.72646 1.00533 0.33157 0.0
C153 C 0.74294 0.99764 0.28432 0.0
C154 C 0.74027 0.97488 0.2565 0.0
C155 C 0.72165 0.96046 0.27729 0.0
C156 C 0.7187 0.93839 0.23761 0.0
C157 C 0.73887 0.94152 0.18955 0.0
C158 C 0.7522 0.96265 0.20144 0.0
C159 C 0.69349 0.93842 0.20635 0.0
C160 C 0.72282 0.91653 0.28088 0.0
H161 H 0.80821 0.92778 0.02645 0.0
H162 H 0.83525 1.00764 0.09939 0.0
H163 H 0.81404 0.97383 0.23119 0.0
H164 H 0.79307 0.99472 0.26193 0.0
H165 H 0.81836 1.00521 0.21727 0.0
H166 H 0.77076 1.0107 0.08974 0.0
H167 H 0.79266 0.02684 0.1359 0.0
H168 H 0.76493 0.01783 0.1714 0.0
H169 H 0.70864 0.92448 0.94424 0.0
H170 H 0.67423 0.88222 0.09208 0.0
H171 H 0.70784 0.89018 0.16329 0.0
H172 H 0.73262 0.96843 0.02138 0.0
H173 H 0.73671 0.95619 0.94215 0.0
H174 H 0.76162 0.96856 0.98465 0.0
H175 H 0.7549 0.91125 0.93483 0.0
H176 H 0.77353 0.90319 1.00144 0.0
H177 H 0.77987 0.92941 0.95302 0.0
H178 H 0.8448 0.94458 0.98244 0.0
C179 C 0.81292 0.94593 0.03774 0.0
C180 C 0.54532 0.72602 0.30394 0.0
C181 C 0.55319 0.70275 0.32068 0.0
C182 C 0.5695 0.69144 0.28005 0.0
C183 C 0.56981 0.7251 0.20749 0.0
C184 C 0.55428 0.73709 0.2471 0.0
C185 C 0.54942 0.76199 0.22032 0.0
H186 H 0.57506 0.84226 0.97571 0.0
C187 C 0.5763 0.74046 0.15269 0.0
C188 C 0.56521 0.76275 0.15998 0.0
H189 H 0.52364 0.85357 0.12534 0.0
H190 H 0.53445 0.81523 0.1745 0.0
H191 H 0.61684 0.81718 0.0634 0.0
H192 H 0.55987 0.79886 0.93931 0.0
H193 H 0.57575 0.77229 0.93854 0.0
H194 H 0.58961 0.79935 0.90965 0.0
H195 H 0.61635 0.82028 0.97773 0.0
H196 H 0.62718 0.79356 1.01572 0.0
C197 C 0.55719 0.7808 0.2699 0.0
C198 C 0.52282 0.7636 0.20317 0.0
C199 C 0.61261 0.70335 0.95527 0.0
C200 C 0.61788 0.71311 0.89455 0.0
C201 C 0.62202 0.73781 0.88985 0.0
C202 C 0.61731 0.75277 0.94193 0.0
C203 C 0.60806 0.74295 0.9988 0.0
C204 C 0.60767 0.71862 1.00662 0.0
C205 C 0.59876 0.71152 0.07204 0.0
C206 C 0.5904 0.73548 0.09785 0.0
C207 C 0.59568 0.75362 0.05425 0.0
C208 C 0.62024 0.70161 0.11047 0.0
C209 C 0.57785 0.69359 0.06373 0.0
C210 C 0.56631 0.83681 0.01974 0.0
C211 C 0.54857 0.85095 0.04636 0.0
C212 C 0.5375 0.843 0.10366 0.0
C213 C 0.5436 0.82068 0.13168 0.0
C214 C 0.56073 0.80611 0.10171 0.0
C215 C 0.57169 0.81474 0.04675 0.0
C216 C 0.58776 0.79714 1.01609 0.0
C217 C 0.58521 0.7763 0.06141 0.0
C218 C 0.5696 0.78118 0.11291 0.0
C219 C 0.61342 0.80751 0.01767 0.0
C220 C 0.57799 0.7916 0.94746 0.0
H221 H 0.58996 0.69244 0.19602 0.0
H222 H 0.53295 0.73535 0.33455 0.0
H223 H 0.51736 0.74828 0.17257 0.0
H224 H 0.51872 0.77992 0.17608 0.0
H225 H 0.51172 0.76329 0.24724 0.0
H226 H 0.57591 0.77776 0.28504 0.0
H227 H 0.54571 0.77989 0.3132 0.0
H228 H 0.55628 0.79902 0.25022 0.0
H229 H 0.60981 0.68441 0.96118 0.0
H230 H 0.62702 0.74574 0.84444 0.0
H231 H 0.61957 0.7715 0.9344 0.0
H232 H 0.63758 0.70509 0.08634 0.0
H233 H 0.61876 0.68202 0.11696 0.0
H234 H 0.62197 0.71018 0.15825 0.0
H235 H 0.56518 0.70002 0.02664 0.0
H236 H 0.56729 0.69099 0.1077 0.0
H237 H 0.58441 0.67587 0.04855 0.0
H238 H 0.5758 0.67372 0.29123 0.0
C239 C 0.57781 0.70239 0.22442 0.0
C240 C 0.3386 0.49406 0.20748 0.0
C241 C 0.35469 0.48149 0.24826 0.0
C242 C 0.34883 0.45791 0.26564 0.0
C243 C 0.30988 0.46208 0.21941 0.0
C244 C 0.31633 0.48326 0.19135 0.0
C245 C 0.2971 0.49045 0.14284 0.0
H246 H 0.1809 0.46676 0.04224 0.0
C247 C 0.285 0.45682 0.20547 0.0
C248 C 0.27706 0.47219 0.15685 0.0
H249 H 0.2299 0.51431 0.94663 0.0
H250 H 0.26016 0.50619 0.02912 0.0
H251 H 0.21526 0.42396 0.08074 0.0
H252 H 0.19017 0.48708 0.16989 0.0
H253 H 0.19999 0.47049 0.23592 0.0
H254 H 0.17614 0.45915 0.18605 0.0
H255 H 0.18531 0.42985 0.10608 0.0
H256 H 0.20656 0.41688 0.16008 0.0
C257 C 0.30742 0.48724 0.07504 0.0
C258 C 0.28907 0.51612 0.1555 0.0
C259 C 0.23835 0.42518 0.39309 0.0
C260 C 0.21376 0.42572 0.40522 0.0
C261 C 0.19802 0.42589 0.35238 0.0
C262 C 0.20666 0.42894 0.28989 0.0
C263 C 0.23113 0.43273 0.28033 0.0
C264 C 0.24667 0.42954 0.33084 0.0
C265 C 0.27203 0.43489 0.31263 0.0
C266 C 0.26864 0.4439 0.24384 0.0
C267 C 0.24466 0.44302 0.22605 0.0
C268 C 0.28642 0.4115 0.317 0.0
C269 C 0.28192 0.45458 0.35771 0.0
C270 C 0.19832 0.475 0.03751 0.0
C271 C 0.2031 0.4905 0.98634 0.0
C272 C 0.22575 0.50188 0.98476 0.0
C273 C 0.24341 0.49692 0.03192 0.0
C274 C 0.23838 0.48055 0.0815 0.0
C275 C 0.21579 0.47046 0.08388 0.0
C276 C 0.21198 0.45556 0.14246 0.0
C277 C 0.23678 0.4556 0.17096 0.0
C278 C 0.25257 0.47054 0.1363 0.0
C279 C 0.20423 0.43019 0.12161 0.0
C280 C 0.19362 0.46853 0.18588 0.0
H281 H 0.32326 0.42978 0.26166 0.0
H282 H 0.34325 0.5115 0.1891 0.0
H283 H 0.28289 0.51804 0.20586 0.0
H284 H 0.2742 0.52112 0.12349 0.0
H285 H 0.30399 0.52887 0.14747 0.0
H286 H 0.31497 0.46911 0.06947 0.0
H287 H 0.3219 0.50043 0.06612 0.0
H288 H 0.29385 0.48927 0.03735 0.0
H289 H 0.25087 0.4238 0.43237 0.0
H290 H 0.17893 0.42588 0.35938 0.0
H291 H 0.19383 0.42974 0.25193 0.0
H292 H 0.27703 0.3975 0.34522 0.0
H293 H 0.30366 0.41427 0.34207 0.0
H294 H 0.28976 0.40387 0.26868 0.0
H295 H 0.2707 0.47077 0.35512 0.0
H296 H 0.30035 0.45984 0.34585 0.0
H297 H 0.28237 0.44841 0.40825 0.0
H298 H 0.36102 0.44727 0.29371 0.0
C299 C 0.32676 0.44803 0.24998 0.0
C300 C 0.12165 0.22843 0.34046 0.0
C301 C 0.12897 0.20476 0.33014 0.0
C302 C 0.13608 0.19818 0.26763 0.0
C303 C 0.11955 0.23458 0.22611 0.0
C304 C 0.11725 0.24311 0.28762 0.0
C305 C 0.10701 0.26775 0.28864 0.0
H306 H 0.02677 0.34185 0.2025 0.0
C307 C 0.10638 0.2504 0.18271 0.0
C308 C 0.10091 0.27092 0.21742 0.0
H309 H 0.09254 0.35928 0.30172 0.0
H310 H 0.11054 0.32362 0.25718 0.0
H311 H 0.06222 0.32065 0.06759 0.0
H312 H 0.02579 0.27897 0.21425 0.0
H313 H 0.01859 0.27176 0.13306 0.0
H314 H 1.00948 0.29981 0.16584 0.0
H315 H 0.03071 0.32402 0.08006 0.0
H316 H 0.04202 0.29837 0.03915 0.0
C317 C 0.12636 0.28505 0.31395 0.0
C318 C 0.08447 0.26829 0.33112 0.0
C319 C 0.06736 0.20862 0.99466 0.0
C320 C 0.0459 0.2112 0.96141 0.0
C321 C 0.03142 0.23095 0.97669 0.0
C322 C 0.03868 0.24795 0.02356 0.0
C323 C 0.06031 0.24481 0.05686 0.0
C324 C 0.07379 0.2249 0.04276 0.0
C325 C 0.09446 0.2219 0.08729 0.0
C326 C 0.09235 0.24414 0.12829 0.0
C327 C 0.07248 0.25807 0.11033 0.0
C328 C 0.11766 0.22238 0.04754 0.0
C329 C 0.09076 0.19837 0.12588 0.0
C330 C 0.04463 0.33739 0.21752 0.0
C331 C 0.0577 0.35285 0.25946 0.0
C332 C 0.08163 0.34735 0.27308 0.0
C333 C 0.09177 0.32637 0.2508 0.0
C334 C 0.0777 0.31007 0.21738 0.0
C335 C 0.05561 0.31619 0.19487 0.0
C336 C 0.04757 0.29809 0.14379 0.0
C337 C 0.06822 0.28007 0.14406 0.0
C338 C 0.08441 0.28708 0.19174 0.0
C339 C 0.04543 0.31092 0.07888 0.0
C340 C 0.02399 0.28648 0.16516 0.0
H341 H 0.1364 0.20734 0.16825 0.0
H342 H 0.11699 0.23467 0.38779 0.0
H343 H 0.07113 0.25494 0.3143 0.0
H344 H 0.07608 0.28608 0.33014 0.0
H345 H 0.08885 0.26445 0.38199 0.0
H346 H 0.13743 0.27657 0.35169 0.0
H347 H 0.11844 0.30075 0.3377 0.0
H348 H 0.13847 0.29089 0.27478 0.0
H349 H 0.07849 0.1933 0.98575 0.0
H350 H 0.01456 0.23324 0.95234 0.0
H351 H 0.02708 0.26259 0.03353 0.0
H352 H 0.11728 0.23699 1.01153 0.0
H353 H 0.12008 0.20531 0.02152 0.0
H354 H 0.13353 0.22573 0.07773 0.0
H355 H 0.07606 0.18707 0.10673 0.0
H356 H 0.08595 0.20187 0.17663 0.0
H357 H 0.1067 0.18688 0.12428 0.0
H358 H 0.14336 0.18073 0.25842 0.0
C359 C 0.13151 0.21319 0.21538 0.0
C360 C 0.31036 0.04505 1.00272 0.0
C361 C 0.32885 0.05721 0.96857 0.0
C362 C 0.33122 0.08204 0.977 0.0
C363 C 0.30141 0.08153 0.05962 0.0
C364 C 0.29616 0.05805 0.04707 0.0
C365 C 0.27336 0.05085 0.08288 0.0
H366 H 0.18946 0.08766 0.30609 0.0
C367 C 0.28574 0.09047 0.10948 0.0
C368 C 0.2678 0.07353 0.1218 0.0
H369 H 0.18794 0.0205 0.20581 0.0
H370 H 0.22474 0.03163 0.14933 0.0
H371 H 0.23372 0.08747 0.34922 0.0
H372 H 0.20619 0.12201 0.18819 0.0
H373 H 0.22691 0.14157 0.22496 0.0
H374 H 0.20298 0.129 0.27187 0.0
H375 H 0.23361 0.11898 0.34933 0.0
H376 H 0.25987 0.10265 0.32635 0.0
C377 C 0.27862 0.02952 0.12677 0.0
C378 C 0.25381 0.04535 0.03315 0.0
C379 C 0.32154 0.14534 0.27349 0.0
C380 C 0.31223 0.15413 0.33158 0.0
C381 C 0.28733 0.15675 0.33662 0.0
C382 C 0.27214 0.14673 0.29034 0.0
C383 C 0.28201 0.13382 0.23941 0.0
C384 C 0.30612 0.13517 0.22822 0.0
C385 C 0.3131 0.1223 0.16791 0.0
C386 C 0.28937 0.11022 0.15047 0.0
C387 C 0.27173 0.1161 0.19483 0.0
C388 C 0.33265 0.10387 0.18299 0.0
C389 C 0.32167 0.14117 0.11874 0.0
C390 C 0.19648 0.07541 0.27084 0.0
C391 C 0.1852 0.05347 0.25958 0.0
C392 C 0.19601 0.03771 0.21528 0.0
C393 C 0.21724 0.04423 0.18216 0.0
C394 C 0.228 0.0666 0.19392 0.0
C395 C 0.21755 0.08142 0.23874 0.0
C396 C 0.23169 0.1036 0.25103 0.0
C397 C 0.25184 0.10067 0.2035 0.0
C398 C 0.24994 0.07898 0.1691 0.0
C399 C 0.24019 0.10334 0.32231 0.0
C400 C 0.21616 0.12531 0.23352 0.0
H401 H 0.31788 0.11323 0.02141 0.0
H402 H 0.30689 0.02634 0.99424 0.0
H403 H 0.25226 0.06025 0.99829 0.0
H404 H 0.23617 0.04302 0.0555 0.0
H405 H 0.25806 0.02891 1.00599 0.0
H406 H 0.29396 0.03364 0.15877 0.0
H407 H 0.2831 0.01355 0.09788 0.0
H408 H 0.26327 0.02503 0.15766 0.0
H409 H 0.34051 0.14388 0.26623 0.0
H410 H 0.27954 0.16469 0.37892 0.0
H411 H 0.25334 0.14826 0.29747 0.0
H412 H 0.32658 0.0913 0.22091 0.0
H413 H 0.34929 0.11275 0.19945 0.0
H414 H 0.33739 0.09336 0.14003 0.0
H415 H 0.32857 0.15756 0.1425 0.0
H416 H 0.30696 0.14665 0.08641 0.0
H417 H 0.33689 0.13467 0.08996 0.0
H418 H 0.34419 0.09219 0.94972 0.0
C419 C 0.31711 0.0942 0.02072 0.0
C420 C 0.48707 0.31621 1.00263 0.0
C421 C 0.47558 0.33675 0.97714 0.0
C422 C 0.45353 0.34339 1.00343 0.0
C423 C 0.45653 0.31298 0.08455 0.0
C424 C 0.47661 0.30404 0.05582 0.0
C425 C 0.48302 0.28012 0.08661 0.0
H426 H 0.45523 0.20095 0.33202 0.0
C427 C 0.44989 0.29815 0.13936 0.0
C428 C 0.46417 0.27767 0.14004 0.0
H429 H 0.50999 0.1901 0.19033 0.0
H430 H 0.49994 0.22841 0.1404 0.0
H431 H 0.46543 0.24415 0.37062 0.0
H432 H 0.41475 0.22135 0.23685 0.0
H433 H 0.40152 0.24468 0.28035 0.0
H434 H 0.41384 0.21964 0.32285 0.0
H435 H 0.43499 0.24724 0.39064 0.0
H436 H 0.45195 0.27183 0.3577 0.0
C437 C 0.50838 0.2817 0.1142 0.0
C438 C 0.48032 0.26038 0.03585 0.0
C439 C 0.41438 0.33791 0.33286 0.0
C440 C 0.40834 0.32881 0.39383 0.0
C441 C 0.40338 0.30427 0.39968 0.0
C442 C 0.40794 0.28876 0.34866 0.0
C443 C 0.41796 0.29786 0.29201 0.0
C444 C 0.41903 0.32208 0.28254 0.0
C445 C 0.42737 0.32831 0.21592 0.0
C446 C 0.43475 0.30366 0.19149 0.0
C447 C 0.43015 0.28628 0.2379 0.0
C448 C 0.44879 0.3457 0.21957 0.0
C449 C 0.40598 0.33915 0.17936 0.0
C450 C 0.46483 0.20615 0.28916 0.0
C451 C 0.483 0.19184 0.26468 0.0
C452 C 0.49569 0.2005 0.21046 0.0
C453 C 0.48976 0.22264 0.1812 0.0
C454 C 0.47108 0.23644 0.20659 0.0
C455 C 0.45934 0.22789 0.26033 0.0
C456 C 0.44104 0.24457 0.28535 0.0
C457 C 0.44276 0.2645 0.23673 0.0
C458 C 0.4603 0.26009 0.18954 0.0
C459 C 0.44853 0.2524 0.3544 0.0
C460 C 0.41643 0.23196 0.28172 0.0
H461 H 0.42622 0.33569 0.07043 0.0
H462 H 0.50327 0.30967 0.98108 0.0
H463 H 0.46252 0.2613 1.01263 0.0
H464 H 0.48186 0.24246 0.05693 0.0
H465 H 0.49408 0.26237 0.99796 0.0
H466 H 0.51004 0.29716 0.14724 0.0
H467 H 0.52164 0.28397 0.07512 0.0
H468 H 0.51301 0.26558 0.14172 0.0
H469 H 0.41758 0.35673 0.32585 0.0
H470 H 0.39761 0.29687 0.44508 0.0
H471 H 0.40461 0.27018 0.35615 0.0
H472 H 0.46336 0.33801 0.24897 0.0
H473 H 0.44354 0.36295 0.24109 0.0
H474 H 0.45599 0.34973 0.17137 0.0
H475 H 0.39212 0.3461 0.21232 0.0
H476 H 0.39714 0.3257 0.14813 0.0
H477 H 0.41143 0.3548 0.15023 0.0
H478 H 0.44369 0.35817 0.9835 0.0
C479 C 0.4438 0.33127 0.0556 0.0
C480 C 0.08051 0.04158 0.75728 0.0
C481 C 0.06932 0.05852 0.85964 0.0
C482 C 0.06482 0.043 0.80787 0.0
C483 C 0.08948 0.07346 0.85805 0.0
C484 C 0.10151 0.05549 0.75715 0.0
C485 C 0.10556 0.07195 0.80685 0.0
N486 N 0.07608 0.02525 0.71072 0.0
C487 C 0.09335 0.01997 0.66701 0.0
C488 C 0.11821 0.05173 0.70855 0.0
C489 C 0.11434 0.03351 0.66411 0.0
Gd490 Gd 0.99251 0.036 0.5967 0.0
Gd491 Gd 0.03871 1.00557 0.71458 0.0
N492 N 0.04548 0.02846 0.80742 0.0
C493 C 0.05371 0.05809 0.91196 0.0
C494 C 0.03092 0.02693 0.85976 0.0
C495 C 0.03464 0.04194 0.91245 0.0
H496 H 0.01593 0.01474 0.85949 0.0
H497 H 0.02271 0.04118 0.95313 0.0
H498 H 0.02341 0.05673 0.46857 0.0
H499 H 0.09114 1.00519 0.63447 0.0
H500 H 0.03044 0.045 0.35636 0.0
H501 H 0.05652 0.06975 0.95271 0.0
H502 H 0.09312 0.08575 0.89695 0.0
H503 H 0.94076 1.01133 0.63942 0.0
H504 H 0.13458 0.06203 0.70666 0.0
H505 H 0.12763 0.02966 0.62812 0.0
H506 H 0.97335 0.98255 0.31881 0.0
H507 H 0.12144 0.08303 0.80717 0.0
H508 H 0.91642 0.96694 0.48505 0.0
H509 H 0.91092 0.98323 0.59433 0.0
N510 N 0.96294 1.01028 0.55704 0.0
C511 C 0.96558 1.00268 0.49568 0.0
C512 C 0.94318 1.00426 0.5917 0.0
C513 C 0.92948 0.97925 0.50456 0.0
C514 C 0.92631 0.98842 0.56629 0.0
C515 C 0.94913 0.9866 0.46808 0.0
H516 H 0.94027 0.96625 0.38291 0.0
N517 N 0.9986 0.02871 0.48667 0.0
C518 C 0.98425 1.01187 0.45977 0.0
C519 C 1.0044 0.01664 0.35823 0.0
C520 C 0.9869 1.00519 0.39498 0.0
C521 C 0.01405 0.04148 0.44935 0.0
C522 C 0.01768 0.03523 0.38521 0.0
O523 O 0.02168 0.04117 0.73832 0.0
O524 O 0.02181 0.05865 0.64105 0.0
O525 O 0.97426 0.06149 0.5363 0.0
O526 O 0.96939 0.06261 0.63885 0.0
O527 O 0.99968 0.99786 0.73804 0.0
O528 O 0.97821 0.02947 0.6971 0.0
O529 O 0.99079 0.99541 0.61046 0.0
O530 O 0.02981 0.9859 0.62273 0.0
O531 O 0.03133 0.97734 0.78178 0.0
O532 O 0.06554 0.97869 0.73571 0.0
O533 O 0.0319 0.04272 0.57523 0.0
O534 O 0.0494 1.00817 0.60905 0.0
C535 C 0.02351 0.06047 0.70346 0.0
C536 C 0.98089 1.01191 0.73844 0.0
C537 C 0.97469 0.09887 0.58595 0.0
C538 C 1.00668 0.12807 0.57097 0.0
C539 C 0.96778 0.1404 0.60991 0.0
C540 C 0.9595 0.1169 0.60679 0.0
C541 C 0.99116 0.14603 0.59196 0.0
C542 C 0.99823 0.1045 0.56911 0.0
C543 C 0.96683 0.0739 0.58489 0.0
C544 C 0.9714 0.98811 0.36827 0.0
C545 C 0.95252 0.97887 0.40472 0.0
H546 H 1.00703 1.01203 0.3083 0.0
C547 C 1.00841 0.98042 0.60216 0.0
C548 C 0.04889 0.02677 0.57055 0.0
C549 C 0.0456 0.94115 0.74325 0.0
C550 C 0.01758 0.90764 0.73866 0.0
C551 C 0.05088 0.90968 0.66458 0.0
C552 C 0.05843 0.93119 0.69215 0.0
C553 C 0.03039 0.89806 0.6871 0.0
C554 C 0.02556 0.92897 0.76664 0.0
C555 C 0.05033 0.96555 0.76703 0.0
H556 H 0.95599 0.15435 0.62582 0.0
H557 H 0.94138 0.11278 0.62089 0.0
H558 H 0.99684 0.16448 0.59317 0.0
H559 H 1.01003 0.09033 0.55477 0.0
H560 H 0.06067 0.90225 0.62474 0.0
H561 H 0.0738 0.9403 0.67229 0.0
H562 H 0.02472 0.88159 0.66458 0.0
H563 H 0.01529 0.93693 0.80493 0.0
C564 C 0.51556 0.95179 0.51577 0.0
C565 C 0.50305 0.91716 0.57629 0.0
C566 C 0.50458 0.94205 0.56868 0.0
C567 C 0.51393 0.90227 0.53097 0.0
C568 C 0.52559 0.93701 0.46851 0.0
C569 C 0.5252 0.91219 0.47713 0.0
N570 N 0.51506 0.97574 0.50862 0.0
C571 C 0.52314 0.98609 0.45343 0.0
C572 C 0.53503 0.9476 0.41326 0.0
C573 C 0.53354 0.97224 0.40538 0.0
Gd574 Gd 0.52986 0.04725 0.70576 0.0
Gd575 Gd 0.49963 0.99806 0.59436 0.0
N576 N 0.49399 0.95698 0.61058 0.0
C577 C 0.48999 0.90804 0.62804 0.0
C578 C 0.48006 0.94824 0.65893 0.0
C579 C 0.47816 0.92367 0.66904 0.0
H580 H 0.4709 0.96029 0.6907 0.0
H581 H 0.46759 0.91681 0.70836 0.0
H582 H 0.58936 0.03781 0.71162 0.0
H583 H 0.52186 1.0051 0.44669 0.0
H584 H 0.62548 0.05248 0.65593 0.0
H585 H 0.4884 0.88902 0.6357 0.0
H586 H 0.51317 0.88309 0.53622 0.0
H587 H 0.49259 0.0932 0.70937 0.0
H588 H 0.54292 0.93689 0.37579 0.0
H589 H 0.54031 0.98058 0.36223 0.0
H590 H 0.59806 0.11943 0.53407 0.0
H591 H 0.53299 0.90052 0.44166 0.0
H592 H 0.5196 0.14715 0.58263 0.0
H593 H 0.48815 0.13241 0.65606 0.0
N594 N 0.52582 0.08602 0.66521 0.0
C595 C 0.5439 0.09444 0.62863 0.0
C596 C 0.50646 0.0998 0.67798 0.0
C597 C 0.52163 0.13007 0.60603 0.0
C598 C 0.50388 0.12186 0.64768 0.0
C599 C 0.54224 0.11659 0.59731 0.0
H600 H 0.56049 0.14172 0.53525 0.0
N601 N 0.5662 0.06166 0.66325 0.0
C602 C 0.56482 0.08172 0.62725 0.0
C603 C 0.60681 0.07969 0.60374 0.0
C604 C 0.58496 0.09107 0.59546 0.0
C605 C 0.58794 0.05229 0.67765 0.0
C606 C 0.60845 0.06066 0.64662 0.0
O607 O 0.51527 0.98147 0.68412 0.0
O608 O 0.53341 1.01005 0.7497 0.0
O609 O 0.51681 0.04951 0.80346 0.0
O610 O 0.54792 0.0696 0.77596 0.0
O611 O 0.4844 1.00445 0.69461 0.0
O612 O 0.48969 0.04453 0.7043 0.0
O613 O 0.50408 0.05601 0.6249 0.0
O614 O 0.51442 0.03108 0.54498 0.0
O615 O 0.46939 0.02162 0.58748 0.0
O616 O 0.46916 0.98762 0.53527 0.0
O617 O 0.55389 0.01864 0.66186 0.0
O618 O 0.53626 1.0111 0.56477 0.0
C619 C 0.52678 0.98785 0.73678 0.0
C620 C 0.47751 0.0251 0.71753 0.0
C621 C 0.54651 0.05471 0.88091 0.0
C622 C 0.56981 0.02455 0.93614 0.0
C623 C 0.55411 0.05848 0.99476 0.0
C624 C 0.54371 0.06708 0.93863 0.0
C625 C 0.56694 0.03727 0.99378 0.0
C626 C 0.56001 0.03383 0.8795 0.0
C627 C 0.53431 0.06292 0.82298 0.0
C628 C 0.58291 0.1122 0.55986 0.0
C629 C 0.56154 0.12494 0.56069 0.0
H630 H 0.62273 0.08627 0.58017 0.0
C631 C 0.50933 0.05264 0.56429 0.0
C632 C 0.55544 0.01318 0.60045 0.0
C633 C 0.43403 0.0127 0.52562 0.0
C634 C 0.40204 0.04128 0.51189 0.0
C635 C 0.39624 0.99994 0.48043 0.0
C636 C 0.41942 0.99475 0.4997 0.0
C637 C 0.38752 0.02302 0.48668 0.0
C638 C 0.42531 0.03599 0.53118 0.0
C639 C 0.4578 1.00701 0.55027 0.0
H640 H 0.55197 0.0681 0.03934 0.0
H641 H 0.53334 0.08325 0.94034 0.0
H642 H 0.5747 0.03092 0.03808 0.0
H643 H 0.56214 0.02441 0.83469 0.0
H644 H 0.38499 0.98602 0.46068 0.0
H645 H 0.42575 0.97666 0.49535 0.0
H646 H 0.36958 0.0267 0.47066 0.0
H647 H 0.43648 0.04996 0.55122 0.0
C648 C 0.45734 0.4907 0.76794 0.0
C649 C 0.47487 0.4772 0.86776 0.0
C650 C 0.47543 0.49214 0.81334 0.0
C651 C 0.45633 0.4605 0.87492 0.0
C652 C 0.43855 0.47413 0.77533 0.0
C653 C 0.4382 0.459 0.8289 0.0
N654 N 0.45863 0.50491 0.71522 0.0
C655 C 0.44117 0.5043 0.66974 0.0
C656 C 0.42084 0.47304 0.7281 0.0
C657 C 0.4221 0.4883 0.67529 0.0
Gd658 Gd 0.54478 0.50943 0.60004 0.0
Gd659 Gd 0.49161 0.53063 0.70879 0.0
N660 N 0.49352 0.5081 0.80432 0.0
C661 C 0.49284 0.47967 0.91379 0.0
C662 C 0.50985 0.51188 0.85185 0.0
C663 C 0.51014 0.4974 0.90636 0.0
H664 H 0.52218 0.52655 0.84959 0.0
H665 H 0.52345 0.50022 0.94319 0.0
H666 H 0.51641 0.52879 0.46717 0.0
H667 H 0.44184 0.51626 0.62939 0.0
H668 H 0.52306 0.55757 0.38025 0.0
H669 H 0.49306 0.46853 0.95619 0.0
H670 H 0.45575 0.44877 0.91614 0.0
H671 H 0.5952 0.50892 0.68592 0.0
H672 H 0.40613 0.46055 0.73202 0.0
H673 H 0.40837 0.48774 0.63885 0.0
H674 H 0.60149 0.58855 0.42035 0.0
H675 H 0.42401 0.44604 0.83515 0.0
H676 H 0.64385 0.5592 0.60326 0.0
H677 H 0.63405 0.5297 0.6875 0.0
N678 N 0.58271 0.52721 0.60349 0.0
C679 C 0.58796 0.54287 0.55579 0.0
C680 C 0.59905 0.52217 0.64989 0.0
C681 C 0.62669 0.55026 0.60265 0.0
C682 C 0.6212 0.53369 0.65042 0.0
C683 C 0.61004 0.55497 0.55438 0.0
H684 H 0.63159 0.58097 0.50349 0.0
N685 N 0.54959 0.53569 0.51285 0.0
C686 C 0.57099 0.54711 0.5088 0.0
C687 C 0.55809 0.56756 0.4131 0.0
C688 C 0.57569 0.56359 0.4593 0.0
C689 C 0.53276 0.53879 0.46643 0.0
C690 C 0.53662 0.55494 0.4164 0.0
O691 O 0.49411 0.49109 0.68302 0.0
O692 O 0.53408 0.48542 0.68288 0.0
O693 O 0.54367 0.48455 0.52093 0.0
O694 O 0.57334 0.48389 0.58703 0.0
O695 O 0.52967 0.54057 0.74094 0.0
O696 O 0.55135 0.50858 0.70674 0.0
O697 O 0.54242 0.54954 0.61665 0.0
O698 O 0.50254 0.5564 0.62954 0.0
O699 O 0.4857 0.55538 0.78672 0.0
O700 O 0.45969 0.55241 0.71102 0.0
O701 O 0.50693 0.50262 0.56142 0.0
O702 O 0.48312 0.53208 0.60319 0.0
C703 C 0.51253 0.47755 0.69516 0.0
C704 C 0.5486 0.52678 0.74547 0.0
C705 C 0.55681 0.44716 0.55603 0.0
C706 C 0.52815 0.4155 0.5807 0.0
C707 C 0.57042 0.40676 0.57112 0.0
C708 C 0.57532 0.43065 0.55742 0.0
C709 C 0.54701 0.39913 0.5821 0.0
C710 C 0.53346 0.43959 0.56967 0.0
C711 C 0.56167 0.47245 0.54271 0.0
C712 C 0.59763 0.57574 0.45784 0.0
C713 C 0.61476 0.57144 0.50522 0.0
H714 H 0.56096 0.58015 0.37446 0.0
C715 C 0.52386 0.56352 0.61149 0.0
C716 C 0.48753 0.51585 0.55944 0.0
C717 C 0.47056 0.59075 0.74462 0.0
C718 C 0.49722 0.62398 0.71861 0.0
C719 C 0.45453 0.63024 0.72996 0.0
C720 C 0.45109 0.6061 0.74389 0.0
C721 C 0.47743 0.63922 0.71797 0.0
C722 C 0.49332 0.59967 0.73003 0.0
C723 C 0.46764 0.56524 0.75832 0.0
H724 H 0.58475 0.394 0.57186 0.0
H725 H 0.59349 0.43623 0.54807 0.0
H726 H 0.54368 0.38032 0.58933 0.0
H727 H 0.51928 0.45252 0.57071 0.0
H728 H 0.43947 0.64214 0.72975 0.0
H729 H 0.43333 0.59945 0.754 0.0
H730 H 0.47963 0.65817 0.71044 0.0
H731 H 0.50818 0.58755 0.72868 0.0
C732 C 0.03396 0.46917 0.81427 0.0
C733 C 0.03154 0.48977 0.91608 0.0
C734 C 0.02483 0.48745 0.85115 0.0
C735 C 0.04855 0.47428 0.94202 0.0
C736 C 0.04997 0.45272 0.84106 0.0
C737 C 0.05769 0.45575 0.90463 0.0
N738 N 0.02648 0.46697 0.75262 0.0
C739 C 0.03259 0.44762 0.71673 0.0
C740 C 0.05734 0.43348 0.80346 0.0
C741 C 0.04834 0.43075 0.74132 0.0
Gd742 Gd 0.03122 0.54331 0.5998 0.0
Gd743 Gd 1.00034 0.49612 0.71482 0.0
N744 N 1.008 0.50176 0.825 0.0
C745 C 0.02019 0.50688 0.95371 0.0
C746 C 0.99527 0.51672 0.86321 0.0
C747 C 1.0016 0.52005 0.92748 0.0
H748 H 0.97987 0.52575 0.84471 0.0
H749 H 0.99182 0.53243 0.95703 0.0
H750 H 0.02721 0.51912 0.45476 0.0
H751 H 0.02559 0.44547 0.66881 0.0
H752 H 1.0037 0.52416 0.3551 0.0
H753 H 0.02484 0.50924 1.00377 0.0
H754 H 0.05413 0.47597 0.99157 0.0
H755 H 0.02693 0.59593 0.67879 0.0
H756 H 0.06959 0.42042 0.82232 0.0
H757 H 0.05356 0.41569 0.71235 0.0
H758 H 0.95588 0.59306 0.39694 0.0
H759 H 0.07027 0.44351 0.92581 0.0
H760 H 0.9716 0.63628 0.59096 0.0
H761 H 1.00117 0.63115 0.67779 0.0
N762 N 1.01016 0.57959 0.59832 0.0
C763 C 0.99547 0.58309 0.54747 0.0
C764 C 0.01324 0.59722 0.64275 0.0
C765 C 0.98242 0.62041 0.59226 0.0
C766 C 0.99903 0.61754 0.64143 0.0
C767 C 0.98096 0.6034 0.54338 0.0
H768 H 0.95471 0.62185 0.48596 0.0
N769 N 0.01118 0.54838 0.50194 0.0
C770 C 0.99626 0.56714 0.49717 0.0
C771 C 0.98487 0.55476 0.39048 0.0
C772 C 0.98239 0.57067 0.44171 0.0
C773 C 0.01464 0.5335 0.45108 0.0
C774 C 1.00134 0.5363 0.39484 0.0
O775 O 0.041 0.4959 0.70245 0.0
O776 O 0.04912 0.53537 0.69445 0.0
O777 O 0.06367 0.53611 0.54793 0.0
O778 O 0.05555 0.57222 0.57439 0.0
O779 O 0.99247 0.53516 0.73738 0.0
O780 O 0.02664 0.55434 0.70471 0.0
O781 O 0.99592 0.52599 0.5721 0.0
O782 O 0.97748 0.52453 0.66837 0.0
O783 O 0.9744 0.47814 0.7752 0.0
O784 O 0.97519 0.47079 0.67373 0.0
O785 O 0.03842 0.50448 0.57303 0.0
O786 O 1.00671 0.48258 0.61382 0.0
C787 C 0.05536 0.51408 0.71322 0.0
C788 C 1.0078 0.553 0.74234 0.0
C789 C 0.09489 0.55869 0.59312 0.0
C790 C 0.12906 0.53744 0.63743 0.0
C791 C 0.12089 0.57797 0.67104 0.0
C792 C 0.10097 0.57859 0.63078 0.0
C793 C 0.13481 0.5575 0.67475 0.0
C794 C 0.10943 0.5385 0.59576 0.0
C795 C 0.07212 0.55747 0.55722 0.0
C796 C 0.96691 0.59016 0.43882 0.0
C797 C 0.9662 0.60651 0.48959 0.0
H798 H 0.97453 0.55685 0.34698 0.0
C799 C 0.97629 0.52677 0.60586 0.0
C800 C 0.02428 0.48549 0.57254 0.0
C801 C 0.93787 0.47347 0.72215 0.0
C802 C 0.90561 0.50234 0.7257 0.0
C803 C 0.89742 0.46071 0.70028 0.0
C804 C 0.92157 0.45543 0.70642 0.0
C805 C 0.88942 0.48395 0.71002 0.0
C806 C 0.92988 0.49682 0.73101 0.0
C807 C 0.96336 0.46839 0.7269 0.0
H808 H 0.12532 0.5933 0.70031 0.0
H809 H 0.09007 0.59441 0.63025 0.0
H810 H 0.14985 0.55727 0.70727 0.0
H811 H 0.10524 0.52335 0.56549 0.0
H812 H 0.88482 0.44671 0.68842 0.0
H813 H 0.92753 0.43736 0.69876 0.0
H814 H 0.87052 0.48732 0.70668 0.0
H815 H 0.94272 0.5107 0.74186 0.0
H816 H 0.14757 0.08284 0.2851 0.0
H817 H 0.07828 0.99252 0.52017 0.0
H818 H 0.17144 1.01119 0.31911 0.0
H819 H 0.06345 0.06754 0.50733 0.0
H820 H 0.11003 0.99761 0.44043 0.0
H821 H 0.11418 0.07591 0.35757 0.0
C822 C 0.14577 0.06553 0.30754 0.0
C823 C 0.16275 0.04769 0.29619 0.0
C824 C 0.09978 0.01295 0.45484 0.0
C825 C 0.12396 0.03954 0.38011 0.0
C826 C 0.08164 1.01008 0.50061 0.0
C827 C 0.068 0.02962 0.52079 0.0
C828 C 0.10438 0.03552 0.42828 0.0
C829 C 0.0732 0.05188 0.49304 0.0
C830 C 0.12659 0.0616 0.34914 0.0
C831 C 0.15892 0.02549 0.32598 0.0
N832 N 0.09086 0.05418 0.44846 0.0
N833 N 0.14009 0.02212 0.36679 0.0
H834 H 0.52661 0.17005 0.28959 0.0
H835 H 0.47261 0.08415 0.55743 0.0
H836 H 0.45111 0.16013 0.31782 0.0
H837 H 0.53792 0.06549 0.46269 0.0
H838 H 0.46693 0.11632 0.47944 0.0
H839 H 0.53371 0.13519 0.35912 0.0
C840 C 0.51152 0.1605 0.30947 0.0
C841 C 0.4882 0.16859 0.29831 0.0
C842 C 0.48251 0.10519 0.47549 0.0
C843 C 0.4963 0.12901 0.3795 0.0
C844 C 0.48578 0.08685 0.52016 0.0
C845 C 0.50569 0.07201 0.51635 0.0
C846 C 0.49956 0.10925 0.42719 0.0
C847 C 0.52219 0.07638 0.4669 0.0
C848 C 0.51562 0.14067 0.34958 0.0
C849 C 0.46945 0.15528 0.32615 0.0
N850 N 0.51893 0.09474 0.42469 0.0
N851 N 0.47391 0.13659 0.36584 0.0
H852 H 0.36012 0.52267 0.31893 0.0
H853 H 0.48568 0.48086 0.46593 0.0
H854 H 0.39975 0.46298 0.24751 0.0
H855 H 0.44882 0.54363 0.52958 0.0
H856 H 0.45563 0.47552 0.38153 0.0
H857 H 0.39379 0.53285 0.38972 0.0
C858 C 0.37618 0.51216 0.31654 0.0
C859 C 0.37702 0.49197 0.27683 0.0
C860 C 0.45415 0.49054 0.41376 0.0
C861 C 0.41552 0.50301 0.35968 0.0
C862 C 0.47137 0.4936 0.46218 0.0
C863 C 0.46985 0.51263 0.50579 0.0
C864 C 0.43508 0.50659 0.40841 0.0
C865 C 0.45076 0.52853 0.49785 0.0
C866 C 0.39532 0.51776 0.35775 0.0
C867 C 0.39822 0.4787 0.27722 0.0
N868 N 0.43418 0.52508 0.45071 0.0
N869 N 0.41636 0.48426 0.31826 0.0
H870 H 0.075 0.39847 0.25396 0.0
H871 H 0.99855 0.44398 0.55515 0.0
H872 H 0.0192 0.35664 0.34096 0.0
H873 H 0.05736 0.4835 0.47387 0.0
H874 H 1.00361 0.41348 0.47275 0.0
H875 H 0.06579 0.4314 0.32651 0.0
C876 C 0.06034 0.39643 0.28728 0.0
C877 C 0.04775 0.3747 0.29078 0.0
C878 C 0.01539 0.42883 0.47272 0.0
C879 C 0.03746 0.41242 0.37611 0.0
C880 C 0.01257 0.44636 0.52008 0.0
C881 C 0.02758 0.46658 0.52219 0.0
C882 C 0.03336 0.4313 0.4263 0.0
C883 C 0.04533 0.46836 0.47476 0.0
C884 C 0.05525 0.41521 0.3293 0.0
C885 C 0.02915 0.3731 0.3357 0.0
N886 N 0.0477 0.45104 0.42912 0.0
N887 N 0.02475 0.39154 0.37689 0.0
H888 H 0.85067 0.0199 0.96871 0.0
H889 H 0.97726 0.97653 0.83043 0.0
H890 H 0.88579 0.95587 0.02943 0.0
H891 H 0.94043 0.0383 0.75954 0.0
H892 H 0.94552 0.97059 0.90954 0.0
H893 H 0.88519 0.02944 0.90028 0.0
C894 C 0.86588 1.00819 0.96905 0.0
C895 C 0.86527 0.98709 1.00519 0.0
C896 C 0.94439 0.9855 0.87682 0.0
C897 C 0.90475 0.99754 0.92552 0.0
C898 C 0.96257 0.9889 0.83135 0.0
C899 C 0.96167 1.00791 0.78752 0.0
C900 C 0.92501 1.00125 0.87916 0.0
C901 C 0.94202 0.02331 0.7918 0.0
C902 C 0.8855 0.01346 0.92928 0.0
C903 C 0.88541 0.97234 1.00248 0.0
N904 N 0.92458 0.01963 0.83642 0.0
N905 N 0.90411 0.97772 0.96324 0.0
H906 H 0.5292 0.85077 0.9275 0.0
H907 H 0.53278 0.99208 0.86834 0.0
H908 H 0.55197 0.89926 0.07566 0.0
H909 H 0.52895 0.93954 0.71807 0.0
H910 H 0.53627 0.95984 0.94766 0.0
H911 H 0.52406 0.88432 0.85449 0.0
C912 C 0.53261 0.86862 0.94513 0.0
C913 C 0.54075 0.87214 1.00819 0.0
C914 C 0.53497 0.95543 0.89725 0.0
C915 C 0.53545 0.91104 0.92356 0.0
C916 C 0.53322 0.97387 0.85171 0.0
C917 C 0.53092 0.96873 0.78588 0.0
C918 C 0.53422 0.93154 0.87713 0.0
C919 C 0.53062 0.94458 0.76797 0.0
C920 C 0.52993 0.88781 0.90309 0.0
C921 C 0.54527 0.89572 0.0279 0.0
N922 N 0.53217 0.92706 0.81302 0.0
N923 N 0.54266 0.91426 0.98571 0.0
H924 H 0.66692 0.51007 1.01507 0.0
H925 H 0.55833 0.56762 0.81534 0.0
H926 H 0.64918 0.58453 0.02115 0.0
H927 H 0.5801 0.49459 0.79568 0.0
H928 H 0.5892 0.57339 0.89773 0.0
H929 H 0.63278 0.50311 0.94324 0.0
C930 C 0.65564 0.52488 1.00235 0.0
C931 C 0.66116 0.54795 0.02423 0.0
C932 C 0.58721 0.55607 0.87549 0.0
C933 C 0.62201 0.54018 0.94084 0.0
C934 C 0.56951 0.55277 0.82841 0.0
C935 C 0.56669 0.53067 0.79764 0.0
C936 C 0.60219 0.53708 0.89273 0.0
C937 C 0.58177 0.51208 0.81711 0.0
C938 C 0.63623 0.52095 0.96072 0.0
C939 C 0.6459 0.56647 1.00511 0.0
N940 N 0.59878 0.5157 0.86296 0.0
N941 N 0.62725 0.56222 0.9646 0.0
H942 H 0.95393 0.63861 0.05738 0.0
H943 H 0.04069 0.58524 0.78991 0.0
H944 H 0.01152 0.68065 0.97968 0.0
H945 H 0.96713 0.56411 0.81046 0.0
H946 H 0.03477 0.61604 0.87195 0.0
H947 H 0.96393 0.60635 0.98378 0.0
C948 C 0.96909 0.64088 0.02583 0.0
C949 C 0.98178 0.66262 0.02477 0.0
C950 C 0.01999 0.60457 0.85867 0.0
C951 C 0.99331 0.62536 0.9393 0.0
C952 C 0.02328 0.58697 0.81159 0.0
C953 C 1.00442 0.57177 0.79295 0.0
C954 C 0.99776 0.60682 0.88877 0.0
C955 C 0.98237 0.57496 0.82361 0.0
C956 C 0.97463 0.62247 0.98329 0.0
C957 C 1.00132 0.66427 0.98275 0.0
N958 N 0.97974 0.59191 0.87001 0.0
N959 N 1.00638 0.64601 0.94143 0.0
H960 H 0.12991 0.20824 0.46315 0.0
H961 H 0.03155 0.10673 0.47348 0.0
H962 H 0.11402 0.15875 0.30994 0.0
H963 H 0.03803 0.1624 0.6157 0.0
H964 H 0.07 0.11821 0.4306 0.0
H965 H 0.1054 0.18407 0.5352 0.0
C966 C 0.12181 0.19207 0.44479 0.0
C967 C 0.12323 0.18627 0.37923 0.0
C968 C 0.06318 0.12776 0.4717 0.0
C969 C 0.0955 0.15839 0.46185 0.0
C970 C 0.04116 0.12112 0.49669 0.0
C971 C 0.03117 0.13381 0.54806 0.0
C972 C 0.07528 0.14755 0.49717 0.0
C973 C 0.04462 0.15251 0.57499 0.0
C974 C 0.10784 0.17826 0.48613 0.0
C975 C 0.11326 0.16442 0.35944 0.0
N976 N 0.06581 0.15905 0.5486 0.0
N977 N 0.09939 0.15163 0.40014 0.0
H978 H 0.29939 0.14135 0.45402 0.0
H979 H 0.42417 0.08233 0.47219 0.0
H980 H 0.36039 0.16506 0.3447 0.0
H981 H 0.3596 0.05627 0.56015 0.0
H982 H 0.40568 0.12137 0.45892 0.0
H983 H 0.32576 0.12213 0.529 0.0
C984 C 0.31835 0.14341 0.44661 0.0
C985 C 0.32752 0.15364 0.39013 0.0
C986 C 0.39577 0.10729 0.4826 0.0
C987 C 0.35782 0.1305 0.47515 0.0
C988 C 0.4063 0.08501 0.49013 0.0
C989 C 0.39305 0.06592 0.51546 0.0
C990 C 0.37188 0.11037 0.50055 0.0
C991 C 0.37011 0.07036 0.53851 0.0
C992 C 0.33349 0.13202 0.48948 0.0
C993 C 0.35239 0.15604 0.38526 0.0
N994 N 0.36011 0.092 0.52953 0.0
N995 N 0.36671 0.14364 0.42563 0.0
H996 H 0.39936 0.37664 0.41241 0.0
H997 H 0.50837 0.37852 0.65092 0.0
H998 H 0.42831 0.31503 0.50757 0.0
H999 H 0.48981 0.43372 0.51582 0.0
H1000 H 0.46915 0.3603 0.63369 0.0
H1001 H 0.42127 0.40215 0.48724 0.0
C1002 C 0.40972 0.36843 0.45011 0.0
C1003 C 0.41279 0.34365 0.45176 0.0
C1004 C 0.47355 0.37675 0.60918 0.0
C1005 C 0.43789 0.37269 0.53725 0.0
C1006 C 0.49604 0.38702 0.6184 0.0
C1007 C 0.50289 0.40724 0.58306 0.0
C1008 C 0.45787 0.38677 0.56432 0.0
C1009 C 0.48567 0.41804 0.54388 0.0
C1010 C 0.42221 0.38301 0.49289 0.0
C1011 C 0.42571 0.33403 0.5033 0.0
N1012 N 0.46419 0.40743 0.53468 0.0
N1013 N 0.43835 0.34857 0.54284 0.0
H1014 H 0.17146 0.41283 0.46467 0.0
H1015 H 0.17772 0.53427 0.64445 0.0
H1016 H 0.23571 0.45421 0.49446 0.0
H1017 H 0.11419 0.49077 0.63321 0.0
H1018 H 0.20142 0.49948 0.61864 0.0
H1019 H 0.15275 0.43466 0.55224 0.0
C1020 C 0.18186 0.42603 0.49046 0.0
C1021 C 0.20496 0.43216 0.47029 0.0
C1022 C 0.18232 0.49736 0.62308 0.0
C1023 C 0.18364 0.45727 0.57046 0.0
C1024 C 0.16876 0.51728 0.63822 0.0
C1025 C 0.14385 0.51565 0.63855 0.0
C1026 C 0.17083 0.47582 0.60707 0.0
C1027 C 0.13331 0.49305 0.63071 0.0
C1028 C 0.17118 0.43846 0.54072 0.0
C1029 C 0.21779 0.44887 0.50721 0.0
N1030 N 0.14678 0.47415 0.61358 0.0
N1031 N 0.20677 0.46122 0.55429 0.0
H1032 H 0.90548 0.87387 0.99083 0.0
H1033 H 0.98083 0.88615 0.67086 0.0
H1034 H 0.89639 0.82203 0.83909 0.0
H1035 H 1.00379 0.90346 0.86322 0.0
H1036 H 0.9429 0.87105 0.71536 0.0
H1037 H 0.93129 0.89675 0.92188 0.0
C1038 C 0.90808 0.86746 0.94245 0.0
C1039 C 0.89955 0.84504 0.92251 0.0
C1040 C 0.9563 0.8784 0.74723 0.0
C1041 C 0.93017 0.87121 0.84394 0.0
C1042 C 0.978 0.88669 0.72221 0.0
C1043 C 0.99545 0.89632 0.76336 0.0
C1044 C 0.95206 0.8803 0.81334 0.0
C1045 C 0.99072 0.8968 0.82937 0.0
C1046 C 0.92328 0.88055 0.90328 0.0
C1047 C 0.90366 0.83845 0.8582 0.0
N1048 N 0.96948 0.88912 0.85207 0.0
N1049 N 0.91939 0.85106 0.8217 0.0
H1050 H 0.6433 0.90559 0.07529 0.0
H1051 H 0.60023 1.00688 0.84437 0.0
H1052 H 0.6753 0.91876 0.88972 0.0
H1053 H 0.56745 0.98889 0.02535 0.0
H1054 H 0.62231 0.9696 0.84831 0.0
H1055 H 0.60935 0.92833 0.04317 0.0
C1056 C 0.64327 0.91261 0.02705 0.0
C1057 C 0.66332 0.91102 0.98671 0.0
C1058 C 0.61005 0.97368 0.88674 0.0
C1059 C 0.62414 0.93853 0.95089 0.0
C1060 C 0.59745 0.995 0.88462 0.0
C1061 C 0.58238 1.00136 0.93548 0.0
C1062 C 0.60764 0.95864 0.94019 0.0
C1063 C 0.5795 0.98519 0.98622 0.0
C1064 C 0.62368 0.92606 1.00906 0.0
C1065 C 0.6612 0.92061 0.92452 0.0
N1066 N 0.59219 0.96475 0.98756 0.0
N1067 N 0.64237 0.93463 0.9093 0.0
H1068 H 0.62801 0.66584 0.87135 0.0
H1069 H 0.5145 0.66221 0.64821 0.0
H1070 H 0.59554 0.72735 0.7845 0.0
H1071 H 0.5371 0.60742 0.77999 0.0
H1072 H 0.5534 0.68165 0.66115 0.0
H1073 H 0.60537 0.64036 0.79806 0.0
C1074 C 0.61673 0.67405 0.83563 0.0
C1075 C 0.61294 0.69872 0.83609 0.0
C1076 C 0.54992 0.66501 0.68577 0.0
C1077 C 0.58691 0.66972 0.75259 0.0
C1078 C 0.52762 0.65405 0.67908 0.0
C1079 C 0.52203 0.63349 0.71457 0.0
C1080 C 0.56672 0.6553 0.72811 0.0
C1081 C 0.54023 0.62323 0.7516 0.0
C1082 C 0.6038 0.6595 0.79377 0.0
C1083 C 0.59875 0.70841 0.7871 0.0
N1084 N 0.56152 0.63444 0.75816 0.0
N1085 N 0.58568 0.69385 0.74859 0.0
H1086 H 0.80783 0.60642 0.82786 0.0
H1087 H 0.92367 0.53444 0.8132 0.0
H1088 H 0.87212 0.6292 0.92463 0.0
H1089 H 0.86861 0.5268 0.6695 0.0
H1090 H 0.90769 0.57286 0.84216 0.0
H1091 H 0.83156 0.58281 0.75521 0.0
C1092 C 0.82701 0.60725 0.83269 0.0
C1093 C 0.83785 0.61922 0.88444 0.0
C1094 C 0.89929 0.563 0.80355 0.0
C1095 C 0.8651 0.59122 0.80227 0.0
C1096 C 0.90846 0.54092 0.78672 0.0
C1097 C 0.89723 0.52691 0.73948 0.0
C1098 C 0.87835 0.57103 0.77424 0.0
C1099 C 0.87738 0.53646 0.70782 0.0
C1100 C 0.84059 0.59344 0.79123 0.0
C1101 C 0.86284 0.61944 0.88735 0.0
N1102 N 0.8683 0.5577 0.72662 0.0
N1103 N 0.87558 0.60501 0.84822 0.0
H1104 H 1.00696 0.18114 0.96489 0.0
H1105 H 0.04584 0.10154 0.66168 0.0
H1106 H 0.06967 0.19672 0.85358 0.0
H1107 H 1.00459 0.07367 0.81907 0.0
H1108 H 0.04942 0.1398 0.71904 0.0
H1109 H 1.00002 0.14535 0.89883 0.0
C1110 C 0.01891 0.17739 0.92551 0.0
C1111 C 0.03879 0.19214 0.91445 0.0
C1112 C 0.03942 0.12536 0.74072 0.0
C1113 C 0.03111 0.15099 0.83877 0.0
C1114 C 0.03731 0.10354 0.7079 0.0
C1115 C 0.02494 0.08429 0.73555 0.0
C1116 C 0.02862 0.12824 0.80114 0.0
C1117 C 0.01445 0.08792 0.796 0.0
C1118 C 0.01511 0.1568 0.88825 0.0
C1119 C 0.05401 0.18599 0.86353 0.0
N1120 N 0.01641 0.10937 0.82645 0.0
N1121 N 0.04986 0.16602 0.82769 0.0
H1122 H 0.3587 0.01886 0.98957 0.0
H1123 H 0.44758 0.06321 0.71851 0.0
H1124 H 0.33946 0.07023 0.84559 0.0
H1125 H 0.45351 0.99174 0.79166 0.0
H1126 H 0.40932 0.06704 0.77316 0.0
H1127 H 0.39392 1.00832 0.92481 0.0
C1128 C 0.36143 0.0274 0.94357 0.0
C1129 C 0.34603 0.04556 0.92332 0.0
C1130 C 0.41889 0.05045 0.77723 0.0
C1131 C 0.3868 0.03426 0.85021 0.0
C1132 C 0.44088 0.0483 0.74626 0.0
C1133 C 0.45392 0.02713 0.75046 0.0
C1134 C 0.40984 0.03153 0.81439 0.0
C1135 C 0.44406 1.00837 0.78691 0.0
C1136 C 0.3817 0.02156 0.90694 0.0
C1137 C 0.35085 0.05628 0.8636 0.0
N1138 N 0.4228 1.01109 0.81812 0.0
N1139 N 0.37087 0.05083 0.83009 0.0
H1140 H 0.45368 0.34796 0.86404 0.0
H1141 H 0.54385 0.45506 0.77576 0.0
H1142 H 0.5182 0.36167 0.96984 0.0
H1143 H 0.4739 0.44685 0.69348 0.0
H1144 H 0.53752 0.41821 0.837 0.0
H1145 H 0.46396 0.38041 0.7905 0.0
C1146 C 0.47037 0.35742 0.87086 0.0
C1147 C 0.48514 0.35186 0.92329 0.0
C1148 C 0.52358 0.42438 0.80539 0.0
C1149 C 0.49682 0.38984 0.83948 0.0
C1150 C 0.5272 0.44542 0.77011 0.0
C1151 C 0.50927 0.45433 0.72974 0.0
C1152 C 0.50194 0.41177 0.79993 0.0
C1153 C 0.48808 0.44097 0.72471 0.0
C1154 C 0.47611 0.37618 0.82913 0.0
C1155 C 0.50642 0.36502 0.9298 0.0
N1156 N 0.48501 0.42051 0.7593 0.0
N1157 N 0.51148 0.38349 0.88895 0.0
H1158 H 0.17597 0.45677 0.92489 0.0
H1159 H 0.08372 0.54863 0.76851 0.0
H1160 H 0.18594 0.53279 0.93512 0.0
H1161 H 0.08061 0.47291 0.73692 0.0
H1162 H 0.12101 0.54357 0.82798 0.0
H1163 H 0.14151 0.46258 0.8551 0.0
C1164 C 0.17104 0.47475 0.91205 0.0
C1165 C 0.184 0.49431 0.93652 0.0
C1166 C 0.11216 0.52801 0.80832 0.0
C1167 C 0.1439 0.50117 0.8562 0.0
C1168 C 0.09076 0.53086 0.77423 0.0
C1169 C 0.07849 0.51106 0.74859 0.0
C1170 C 0.12161 0.50515 0.8173 0.0
C1171 C 0.08885 0.4886 0.75739 0.0
C1172 C 0.15126 0.47805 0.87202 0.0
C1173 C 0.17669 0.51715 0.91739 0.0
N1174 N 0.10959 0.48626 0.79109 0.0
N1175 N 0.15705 0.51995 0.87909 0.0
H1176 H 0.94755 0.85332 0.42298 0.0
H1177 H 0.04186 0.95213 0.54429 0.0
H1178 H 0.02124 0.85328 0.36562 0.0
H1179 H 0.96661 0.95506 0.58254 0.0
H1180 H 0.03563 0.91454 0.48655 0.0
H1181 H 0.95523 0.88848 0.48883 0.0
C1182 C 0.96545 0.86061 0.4243 0.0
C1183 C 0.98368 0.85023 0.38753 0.0
C1184 C 0.02044 0.9234 0.50732 0.0
C1185 C 0.99269 0.89105 0.4642 0.0
C1186 C 0.02396 0.94494 0.54052 0.0
C1187 C 1.00465 0.9572 0.56763 0.0
C1188 C 0.99739 0.91371 0.50122 0.0
C1189 C 0.98197 0.94671 0.56127 0.0
C1190 C 0.96981 0.8808 0.4622 0.0
C1191 C 1.00658 0.86045 0.39293 0.0
N1192 N 0.97899 0.92573 0.52884 0.0
N1193 N 1.01037 0.8803 0.42993 0.0
H1194 H 0.69697 0.97159 0.47138 0.0
H1195 H 0.56677 0.02695 0.47862 0.0
H1196 H 0.67414 0.02462 0.33618 0.0
H1197 H 0.59827 0.99618 0.64753 0.0
H1198 H 0.60521 0.02435 0.42388 0.0
H1199 H 0.66105 0.9789 0.53557 0.0
C1200 C 0.68465 0.98518 0.45601 0.0
C1201 C 0.68883 0.99781 0.39881 0.0
C1202 C 0.60382 0.01826 0.47301 0.0
C1203 C 0.647 1.0056 0.47086 0.0
C1204 C 0.58179 0.01959 0.50428 0.0
C1205 C 0.57917 1.01176 0.56796 0.0
C1206 C 0.62355 1.00852 0.50481 0.0
C1207 C 0.59941 1.0025 0.59859 0.0
C1208 C 0.66405 0.98925 0.49249 0.0
C1209 C 0.67192 0.01481 0.38049 0.0
N1210 N 0.62063 1.00093 0.56665 0.0
N1211 N 0.65168 0.01797 0.41579 0.0
H1212 H 0.5087 0.68458 0.35122 0.0
H1213 H 0.56468 0.59048 0.59806 0.0
H1214 H 0.58096 0.6876 0.41957 0.0
H1215 H 0.48993 0.59116 0.5516 0.0
H1216 H 0.57003 0.62752 0.53792 0.0
H1217 H 0.50014 0.65282 0.42983 0.0
C1218 C 0.52253 0.67919 0.38427 0.0
C1219 C 0.54552 0.68909 0.37919 0.0
C1220 C 0.55238 0.61973 0.54103 0.0
C1221 C 0.53615 0.65196 0.46789 0.0
C1222 C 0.54933 0.59842 0.57536 0.0
C1223 C 0.52687 0.58733 0.57945 0.0
C1224 C 0.53287 0.63025 0.50975 0.0
C1225 C 0.50762 0.5989 0.54966 0.0
C1226 C 0.51775 0.66079 0.42863 0.0
C1227 C 0.56292 0.68074 0.42215 0.0
N1228 N 0.5111 0.61948 0.51566 0.0
N1229 N 0.55798 0.66264 0.46381 0.0
H1230 H 0.83504 0.56896 0.47607 0.0
H1231 H 0.96521 0.51212 0.48411 0.0
H1232 H 0.86172 0.52338 0.32721 0.0
H1233 H 0.93378 0.54508 0.64974 0.0
H1234 H 0.92733 0.5158 0.42707 0.0
H1235 H 0.86976 0.55917 0.54259 0.0
C1236 C 0.84781 0.55623 0.45828 0.0
C1237 C 0.84511 0.54654 0.39642 0.0
C1238 C 0.92855 0.52207 0.47607 0.0
C1239 C 0.88577 0.53615 0.47124 0.0
C1240 C 0.9503 0.52011 0.50866 0.0
C1241 C 0.95279 0.52826 0.57209 0.0
C1242 C 0.9089 0.53251 0.50655 0.0
C1243 C 0.93266 0.53828 0.60127 0.0
C1244 C 0.86783 0.55087 0.49598 0.0
C1245 C 0.86272 0.5308 0.37507 0.0
N1246 N 0.9117 0.54029 0.56827 0.0
N1247 N 0.88235 0.52636 0.41189 0.0
loop_
_geom_bond_atom_site_label_1
_geom_bond_atom_site_label_2
_geom_bond_distance
_geom_bond_site_symmetry_2
_ccdc_geom_bond_type
C0 C1 1.391 . S
C0 C4 1.391 . S
C0 H42 0.948 . S
C1 C0 1.391 . S
C1 C2 1.391 . S
C2 C1 1.391 . S
C2 H58 0.947 . S
C2 C59 1.392 . S
C3 C4 1.391 . S
C3 C7 1.397 . S
C3 C59 1.419 . S
C4 C0 1.391 . S
C4 C3 1.391 . S
C4 C5 1.399 . S
C5 C4 1.399 . S
C5 C8 1.396 . S
C5 C17 1.453 . S
C5 C18 1.684 . S
H6 C30 0.948 . S
C7 C3 1.397 . S
C7 C8 1.394 . S
C7 C26 1.723 . S
C8 C5 1.396 . S
C8 C7 1.394 . S
C8 C38 1.723 . S
H9 C32 0.947 . S
H10 C33 0.948 . S
H11 C39 0.982 . S
H12 C40 0.979 . S
H13 C40 0.980 . S
H14 C40 0.983 . S
H15 C39 0.979 . S
H16 C39 0.977 . S
C17 C5 1.453 . S
C17 H46 0.982 . S
C17 H47 0.979 . S
C17 H48 0.977 . S
C18 C5 1.684 . S
C18 H43 0.979 . S
C18 H44 0.980 . S
C18 H45 0.983 . S
C19 C20 1.391 . S
C19 C24 1.391 . S
C19 H49 0.948 . S
C20 C19 1.391 . S
C20 C21 1.391 . S
C21 C20 1.391 . S
C21 C22 1.392 . S
C21 H50 0.947 1_554 S
C22 C21 1.392 . S
C22 C23 1.419 . S
C22 H51 0.948 . S
C23 C22 1.419 . S
C23 C24 1.391 . S
C23 C27 1.397 . S
C24 C19 1.391 . S
C24 C23 1.391 . S
C24 C25 1.399 . S
C25 C24 1.399 . S
C25 C26 1.396 . S
C25 C28 1.453 . S
C25 C29 1.684 . S
C26 C7 1.723 . S
C26 C25 1.396 . S
C26 C27 1.394 . S
C27 C23 1.397 . S
C27 C26 1.394 . S
C27 C37 1.723 . S
C28 C25 1.453 . S
C28 H52 0.982 . S
C28 H53 0.979 . S
C28 H54 0.977 . S
C29 C25 1.684 . S
C29 H55 0.979 . S
C29 H56 0.980 . S
C29 H57 0.983 . S
C30 H6 0.948 . S
C30 C31 1.391 . S
C30 C35 1.391 . S
C31 C30 1.391 . S
C31 C32 1.391 . S
C32 H9 0.947 . S
C32 C31 1.391 . S
C32 C33 1.392 . S
C33 H10 0.948 . S
C33 C32 1.392 . S
C33 C34 1.419 . S
C34 C33 1.419 . S
C34 C35 1.391 . S
C34 C38 1.397 . S
C35 C30 1.391 . S
C35 C34 1.391 . S
C35 C36 1.399 . S
C36 C35 1.399 . S
C36 C37 1.396 . S
C36 C39 1.453 . S
C36 C40 1.684 . S
C37 C27 1.723 . S
C37 C36 1.396 . S
C37 C38 1.394 . S
C38 C8 1.723 . S
C38 C34 1.397 . S
C38 C37 1.394 . S
C39 H11 0.982 . S
C39 H15 0.979 . S
C39 H16 0.977 . S
C39 C36 1.453 . S
C40 H12 0.979 . S
C40 H13 0.980 . S
C40 H14 0.983 . S
C40 C36 1.684 . S
H41 C59 0.948 . S
H42 C0 0.948 . S
H43 C18 0.979 . S
H44 C18 0.980 . S
H45 C18 0.983 . S
H46 C17 0.982 . S
H47 C17 0.979 . S
H48 C17 0.977 . S
H49 C19 0.948 . S
H50 C21 0.947 1_556 S
H51 C22 0.948 . S
H52 C28 0.982 . S
H53 C28 0.979 . S
H54 C28 0.977 . S
H55 C29 0.979 . S
H56 C29 0.980 . S
H57 C29 0.983 . S
H58 C2 0.947 . S
C59 C2 1.392 . S
C59 C3 1.419 . S
C59 H41 0.948 . S
C60 C61 1.391 . S
C60 C64 1.391 . S
C60 H102 0.948 . S
C61 C60 1.391 . S
C61 C62 1.391 . S
C62 C61 1.391 . S
C62 H118 0.947 . S
C62 C119 1.392 . S
C63 C64 1.391 . S
C63 C67 1.397 . S
C63 C119 1.419 . S
C64 C60 1.391 . S
C64 C63 1.391 . S
C64 C65 1.399 . S
C65 C64 1.399 . S
C65 C68 1.396 . S
C65 C77 1.453 . S
C65 C78 1.684 . S
H66 C90 0.948 . S
C67 C63 1.397 . S
C67 C68 1.394 . S
C67 C86 1.723 . S
C68 C65 1.396 . S
C68 C67 1.394 . S
C68 C98 1.723 . S
H69 C92 0.947 . S
H70 C93 0.948 . S
H71 C99 0.982 . S
H72 C100 0.979 . S
H73 C100 0.980 . S
H74 C100 0.983 . S
H75 C99 0.979 . S
H76 C99 0.977 . S
C77 C65 1.453 . S
C77 H106 0.982 . S
C77 H107 0.979 . S
C77 H108 0.977 . S
C78 C65 1.684 . S
C78 H103 0.979 . S
C78 H104 0.980 . S
C78 H105 0.983 . S
C79 C80 1.391 . S
C79 C84 1.391 . S
C79 H109 0.948 . S
C80 C79 1.391 . S
C80 C81 1.391 . S
C81 C80 1.391 . S
C81 C82 1.392 . S
C81 H110 0.947 . S
C82 C81 1.392 . S
C82 C83 1.419 . S
C82 H111 0.948 . S
C83 C82 1.419 . S
C83 C84 1.391 . S
C83 C87 1.397 . S
C84 C79 1.391 . S
C84 C83 1.391 . S
C84 C85 1.399 . S
C85 C84 1.399 . S
C85 C86 1.396 . S
C85 C88 1.453 . S
C85 C89 1.684 . S
C86 C67 1.723 . S
C86 C85 1.396 . S
C86 C87 1.394 . S
C87 C83 1.397 . S
C87 C86 1.394 . S
C87 C97 1.723 . S
C88 C85 1.453 . S
C88 H112 0.982 . S
C88 H113 0.979 . S
C88 H114 0.977 . S
C89 C85 1.684 . S
C89 H115 0.979 . S
C89 H116 0.980 . S
C89 H117 0.983 . S
C90 H66 0.948 . S
C90 C91 1.391 . S
C90 C95 1.391 . S
C91 C90 1.391 . S
C91 C92 1.391 . S
C92 H69 0.947 . S
C92 C91 1.391 . S
C92 C93 1.392 . S
C93 H70 0.948 . S
C93 C92 1.392 . S
C93 C94 1.419 . S
C94 C93 1.419 . S
C94 C95 1.391 . S
C94 C98 1.397 . S
C95 C90 1.391 . S
C95 C94 1.391 . S
C95 C96 1.399 . S
C96 C95 1.399 . S
C96 C97 1.396 . S
C96 C99 1.453 . S
C96 C100 1.684 . S
C97 C87 1.723 . S
C97 C96 1.396 . S
C97 C98 1.394 . S
C98 C68 1.723 . S
C98 C94 1.397 . S
C98 C97 1.394 . S
C99 H71 0.982 . S
C99 H75 0.979 . S
C99 H76 0.977 . S
C99 C96 1.453 . S
C100 H72 0.979 . S
C100 H73 0.980 . S
C100 H74 0.983 . S
C100 C96 1.684 . S
H101 C119 0.948 . S
H102 C60 0.948 . S
H103 C78 0.979 . S
H104 C78 0.980 . S
H105 C78 0.983 . S
H106 C77 0.982 . S
H107 C77 0.979 . S
H108 C77 0.977 . S
H109 C79 0.948 . S
H110 C81 0.947 . S
H111 C82 0.948 . S
H112 C88 0.982 . S
H113 C88 0.979 . S
H114 C88 0.977 . S
H115 C89 0.979 . S
H116 C89 0.980 . S
H117 C89 0.983 . S
H118 C62 0.947 . S
C119 C62 1.392 . S
C119 C63 1.419 . S
C119 H101 0.948 . S
C120 C121 1.391 . S
C120 C124 1.391 . S
C120 H162 0.948 . S
C121 C120 1.391 . S
C121 C122 1.391 . S
C122 C121 1.391 . S
C122 H178 0.947 . S
C122 C179 1.392 . S
C123 C124 1.391 . S
C123 C127 1.397 . S
C123 C179 1.419 . S
C124 C120 1.391 . S
C124 C123 1.391 . S
C124 C125 1.399 . S
C125 C124 1.399 . S
C125 C128 1.396 . S
C125 C137 1.453 . S
C125 C138 1.684 . S
H126 C150 0.948 . S
C127 C123 1.397 . S
C127 C128 1.394 . S
C127 C146 1.723 . S
C128 C125 1.396 . S
C128 C127 1.394 . S
C128 C158 1.723 . S
H129 C152 0.947 . S
H130 C153 0.948 . S
H131 C159 0.969 1_545 S
H132 C160 0.979 . S
H133 C160 0.980 . S
H134 C160 0.983 . S
H135 C159 0.979 . S
H136 C159 0.977 . S
C137 C125 1.453 . S
C137 H166 0.968 1_565 S
C137 H167 0.979 . S
C137 H168 0.977 . S
C138 C125 1.684 . S
C138 H163 0.979 . S
C138 H164 0.980 . S
C138 H165 0.983 . S
C139 C140 1.391 . S
C139 C144 1.391 . S
C139 H169 0.948 . S
C140 C139 1.391 . S
C140 C141 1.391 . S
C141 C140 1.391 . S
C141 C142 1.392 . S
C141 H170 0.947 . S
C142 C141 1.392 . S
C142 C143 1.419 . S
C142 H171 0.948 . S
C143 C142 1.419 . S
C143 C144 1.391 . S
C143 C147 1.397 . S
C144 C139 1.391 . S
C144 C143 1.391 . S
C144 C145 1.399 . S
C145 C144 1.399 . S
C145 C146 1.396 . S
C145 C148 1.453 . S
C145 C149 1.684 . S
C146 C127 1.723 . S
C146 C145 1.396 . S
C146 C147 1.394 . S
C147 C143 1.397 . S
C147 C146 1.394 . S
C147 C157 1.723 . S
C148 C145 1.453 . S
C148 H172 0.968 1_565 S
C148 H173 0.979 . S
C148 H174 0.977 . S
C149 C145 1.684 . S
C149 H175 0.979 . S
C149 H176 0.980 . S
C149 H177 0.983 . S
C150 H126 0.948 . S
C150 C151 1.391 . S
C150 C155 1.391 . S
C151 C150 1.391 . S
C151 C152 1.391 . S
C152 H129 0.947 . S
C152 C151 1.391 . S
C152 C153 1.392 . S
C153 H130 0.948 . S
C153 C152 1.392 . S
C153 C154 1.419 . S
C154 C153 1.419 . S
C154 C155 1.391 . S
C154 C158 1.397 . S
C155 C150 1.391 . S
C155 C154 1.391 . S
C155 C156 1.399 . S
C156 C155 1.399 . S
C156 C157 1.396 . S
C156 C159 1.453 . S
C156 C160 1.684 . S
C157 C147 1.723 . S
C157 C156 1.396 . S
C157 C158 1.394 . S
C158 C128 1.723 . S
C158 C154 1.397 . S
C158 C157 1.394 . S
C159 H131 0.969 1_565 S
C159 H135 0.979 . S
C159 H136 0.977 . S
C159 C156 1.453 . S
C160 H132 0.979 . S
C160 H133 0.980 . S
C160 H134 0.983 . S
C160 C156 1.684 . S
H161 C179 0.948 . S
H162 C120 0.948 . S
H163 C138 0.979 . S
H164 C138 0.980 . S
H165 C138 0.983 . S
H166 C137 0.968 1_545 S
H167 C137 0.979 . S
H168 C137 0.977 . S
H169 C139 0.948 . S
H170 C141 0.947 . S
H171 C142 0.948 . S
H172 C148 0.968 1_545 S
H173 C148 0.979 . S
H174 C148 0.977 . S
H175 C149 0.979 . S
H176 C149 0.980 . S
H177 C149 0.983 . S
H178 C122 0.947 . S
C179 C122 1.392 . S
C179 C123 1.419 . S
C179 H161 0.948 . S
C180 C181 1.391 . S
C180 C184 1.391 . S
C180 H222 0.948 . S
C181 C180 1.391 . S
C181 C182 1.391 . S
C182 C181 1.391 . S
C182 H238 0.947 . S
C182 C239 1.392 . S
C183 C184 1.391 . S
C183 C187 1.397 . S
C183 C239 1.419 . S
C184 C180 1.391 . S
C184 C183 1.391 . S
C184 C185 1.399 . S
C185 C184 1.399 . S
C185 C188 1.396 . S
C185 C197 1.453 . S
C185 C198 1.684 . S
H186 C210 0.948 . S
C187 C183 1.397 . S
C187 C188 1.394 . S
C187 C206 1.723 . S
C188 C185 1.396 . S
C188 C187 1.394 . S
C188 C218 1.723 . S
H189 C212 0.947 . S
H190 C213 0.948 . S
H191 C219 0.982 . S
H192 C220 0.979 . S
H193 C220 0.980 . S
H194 C220 0.983 . S
H195 C219 0.979 . S
H196 C219 0.977 . S
C197 C185 1.453 . S
C197 H226 0.982 . S
C197 H227 0.979 . S
C197 H228 0.977 . S
C198 C185 1.684 . S
C198 H223 0.979 . S
C198 H224 0.980 . S
C198 H225 0.983 . S
C199 C200 1.391 . S
C199 C204 1.391 . S
C199 H229 0.948 . S
C200 C199 1.391 . S
C200 C201 1.391 . S
C201 C200 1.391 . S
C201 C202 1.392 . S
C201 H230 0.947 1_554 S
C202 C201 1.392 . S
C202 C203 1.419 . S
C202 H231 0.948 . S
C203 C202 1.419 . S
C203 C204 1.391 . S
C203 C207 1.397 . S
C204 C199 1.391 . S
C204 C203 1.391 . S
C204 C205 1.399 . S
C205 C204 1.399 . S
C205 C206 1.396 . S
C205 C208 1.453 . S
C205 C209 1.684 . S
C206 C187 1.723 . S
C206 C205 1.396 . S
C206 C207 1.394 . S
C207 C203 1.397 . S
C207 C206 1.394 . S
C207 C217 1.723 . S
C208 C205 1.453 . S
C208 H232 0.982 . S
C208 H233 0.979 . S
C208 H234 0.977 . S
C209 C205 1.684 . S
C209 H235 0.979 . S
C209 H236 0.980 . S
C209 H237 0.983 . S
C210 H186 0.948 . S
C210 C211 1.391 . S
C210 C215 1.391 . S
C211 C210 1.391 . S
C211 C212 1.391 . S
C212 H189 0.947 . S
C212 C211 1.391 . S
C212 C213 1.392 . S
C213 H190 0.948 . S
C213 C212 1.392 . S
C213 C214 1.419 . S
C214 C213 1.419 . S
C214 C215 1.391 . S
C214 C218 1.397 . S
C215 C210 1.391 . S
C215 C214 1.391 . S
C215 C216 1.399 . S
C216 C215 1.399 . S
C216 C217 1.396 . S
C216 C219 1.453 . S
C216 C220 1.684 . S
C217 C207 1.723 . S
C217 C216 1.396 . S
C217 C218 1.394 . S
C218 C188 1.723 . S
C218 C214 1.397 . S
C218 C217 1.394 . S
C219 H191 0.982 . S
C219 H195 0.979 . S
C219 H196 0.977 . S
C219 C216 1.453 . S
C220 H192 0.979 . S
C220 H193 0.980 . S
C220 H194 0.983 . S
C220 C216 1.684 . S
H221 C239 0.948 . S
H222 C180 0.948 . S
H223 C198 0.979 . S
H224 C198 0.980 . S
H225 C198 0.983 . S
H226 C197 0.982 . S
H227 C197 0.979 . S
H228 C197 0.977 . S
H229 C199 0.948 . S
H230 C201 0.947 1_556 S
H231 C202 0.948 . S
H232 C208 0.982 . S
H233 C208 0.979 . S
H234 C208 0.977 . S
H235 C209 0.979 . S
H236 C209 0.980 . S
H237 C209 0.983 . S
H238 C182 0.947 . S
C239 C182 1.392 . S
C239 C183 1.419 . S
C239 H221 0.948 . S
C240 C241 1.391 . S
C240 C244 1.391 . S
C240 H282 0.948 . S
C241 C240 1.391 . S
C241 C242 1.391 . S
C242 C241 1.391 . S
C242 H298 0.947 . S
C242 C299 1.392 . S
C243 C244 1.391 . S
C243 C247 1.397 . S
C243 C299 1.419 . S
C244 C240 1.391 . S
C244 C243 1.391 . S
C244 C245 1.399 1_554 S
C245 C244 1.399 1_556 S
C245 C248 1.396 1_556 S
C245 C257 1.453 . S
C245 C258 1.684 . S
H246 C270 0.948 . S
C247 C243 1.397 . S
C247 C248 1.394 . S
C247 C266 1.723 . S
C248 C245 1.396 1_554 S
C248 C247 1.394 . S
C248 C278 1.723 1_554 S
H249 C272 0.947 . S
H250 C273 0.948 . S
H251 C279 0.982 . S
H252 C280 0.979 . S
H253 C280 0.980 1_554 S
H254 C280 0.983 . S
H255 C279 0.979 . S
H256 C279 0.977 1_554 S
C257 C245 1.453 . S
C257 H286 0.982 . S
C257 H287 0.979 . S
C257 H288 0.977 . S
C258 C245 1.684 . S
C258 H283 0.979 . S
C258 H284 0.980 . S
C258 H285 0.983 . S
C259 C260 1.391 . S
C259 C264 1.391 . S
C259 H289 0.948 . S
C260 C259 1.391 . S
C260 C261 1.391 . S
C261 C260 1.391 . S
C261 C262 1.392 . S
C261 H290 0.947 . S
C262 C261 1.392 . S
C262 C263 1.419 . S
C262 H291 0.948 . S
C263 C262 1.419 . S
C263 C264 1.391 . S
C263 C267 1.397 . S
C264 C259 1.391 . S
C264 C263 1.391 . S
C264 C265 1.399 . S
C265 C264 1.399 . S
C265 C266 1.396 . S
C265 C268 1.453 . S
C265 C269 1.684 . S
C266 C247 1.723 . S
C266 C265 1.396 . S
C266 C267 1.394 . S
C267 C263 1.397 . S
C267 C266 1.394 . S
C267 C277 1.723 . S
C268 C265 1.453 . S
C268 H292 0.982 . S
C268 H293 0.979 . S
C268 H294 0.977 . S
C269 C265 1.684 . S
C269 H295 0.979 . S
C269 H296 0.980 . S
C269 H297 0.983 . S
C270 H246 0.948 . S
C270 C271 1.391 . S
C270 C275 1.391 . S
C271 C270 1.391 . S
C271 C272 1.391 . S
C272 H249 0.947 . S
C272 C271 1.391 . S
C272 C273 1.392 . S
C273 H250 0.948 . S
C273 C272 1.392 . S
C273 C274 1.419 . S
C274 C273 1.419 . S
C274 C275 1.391 . S
C274 C278 1.397 . S
C275 C270 1.391 . S
C275 C274 1.391 . S
C275 C276 1.399 . S
C276 C275 1.399 . S
C276 C277 1.396 1_556 S
C276 C279 1.453 . S
C276 C280 1.684 . S
C277 C267 1.723 . S
C277 C276 1.396 1_554 S
C277 C278 1.394 1_554 S
C278 C248 1.723 1_556 S
C278 C274 1.397 . S
C278 C277 1.394 1_556 S
C279 H251 0.982 . S
C279 H255 0.979 . S
C279 H256 0.977 1_556 S
C279 C276 1.453 . S
C280 H252 0.979 . S
C280 H253 0.980 1_556 S
C280 H254 0.983 . S
C280 C276 1.684 . S
H281 C299 0.948 . S
H282 C240 0.948 . S
H283 C258 0.979 . S
H284 C258 0.980 . S
H285 C258 0.983 . S
H286 C257 0.982 . S
H287 C257 0.979 . S
H288 C257 0.977 . S
H289 C259 0.948 . S
H290 C261 0.947 . S
H291 C262 0.948 . S
H292 C268 0.982 . S
H293 C268 0.979 . S
H294 C268 0.977 . S
H295 C269 0.979 . S
H296 C269 0.980 . S
H297 C269 0.983 . S
H298 C242 0.947 . S
C299 C242 1.392 . S
C299 C243 1.419 . S
C299 H281 0.948 . S
C300 C301 1.391 . S
C300 C304 1.391 . S
C300 H342 0.948 . S
C301 C300 1.391 . S
C301 C302 1.391 . S
C302 C301 1.391 . S
C302 H358 0.947 . S
C302 C359 1.392 . S
C303 C304 1.391 . S
C303 C307 1.397 . S
C303 C359 1.419 . S
C304 C300 1.391 . S
C304 C303 1.391 . S
C304 C305 1.399 . S
C305 C304 1.399 . S
C305 C308 1.396 . S
C305 C317 1.453 . S
C305 C318 1.684 . S
H306 C330 0.948 . S
C307 C303 1.397 . S
C307 C308 1.394 . S
C307 C326 1.723 . S
C308 C305 1.396 . S
C308 C307 1.394 . S
C308 C338 1.723 . S
H309 C332 0.947 . S
H310 C333 0.948 . S
H311 C339 0.982 . S
H312 C340 0.979 . S
H313 C340 0.980 . S
H314 C340 0.983 . S
H315 C339 0.979 . S
H316 C339 0.977 . S
C317 C305 1.453 . S
C317 H346 0.982 . S
C317 H347 0.979 . S
C317 H348 0.977 . S
C318 C305 1.684 . S
C318 H343 0.979 . S
C318 H344 0.980 . S
C318 H345 0.983 . S
C319 C320 1.391 . S
C319 C324 1.391 . S
C319 H349 0.948 . S
C320 C319 1.391 . S
C320 C321 1.391 . S
C321 C320 1.391 . S
C321 C322 1.392 . S
C321 H350 0.947 . S
C322 C321 1.392 . S
C322 C323 1.419 . S
C322 H351 0.948 . S
C323 C322 1.419 . S
C323 C324 1.391 . S
C323 C327 1.397 . S
C324 C319 1.391 . S
C324 C323 1.391 . S
C324 C325 1.399 . S
C325 C324 1.399 . S
C325 C326 1.396 1_556 S
C325 C328 1.453 . S
C325 C329 1.684 . S
C326 C307 1.723 . S
C326 C325 1.396 1_554 S
C326 C327 1.394 1_554 S
C327 C323 1.397 . S
C327 C326 1.394 1_556 S
C327 C337 1.723 1_556 S
C328 C325 1.453 . S
C328 H352 0.982 . S
C328 H353 0.979 . S
C328 H354 0.977 1_556 S
C329 C325 1.684 . S
C329 H355 0.979 . S
C329 H356 0.980 1_556 S
C329 H357 0.983 . S
C330 H306 0.948 . S
C330 C331 1.391 . S
C330 C335 1.391 . S
C331 C330 1.391 . S
C331 C332 1.391 . S
C332 H309 0.947 . S
C332 C331 1.391 . S
C332 C333 1.392 . S
C333 H310 0.948 . S
C333 C332 1.392 . S
C333 C334 1.419 . S
C334 C333 1.419 . S
C334 C335 1.391 . S
C334 C338 1.397 . S
C335 C330 1.391 . S
C335 C334 1.391 . S
C335 C336 1.399 1_554 S
C336 C335 1.399 1_556 S
C336 C337 1.396 1_556 S
C336 C339 1.453 . S
C336 C340 1.684 . S
C337 C327 1.723 1_554 S
C337 C336 1.396 1_554 S
C337 C338 1.394 . S
C338 C308 1.723 . S
C338 C334 1.397 . S
C338 C337 1.394 . S
C339 H311 0.982 . S
C339 H315 0.979 . S
C339 H316 0.977 . S
C339 C336 1.453 . S
C340 H312 0.979 . S
C340 H313 0.980 . S
C340 H314 0.983 . S
C340 C336 1.684 . S
H341 C359 0.948 . S
H342 C300 0.948 . S
H343 C318 0.979 . S
H344 C318 0.980 . S
H345 C318 0.983 . S
H346 C317 0.982 . S
H347 C317 0.979 . S
H348 C317 0.977 . S
H349 C319 0.948 . S
H350 C321 0.947 . S
H351 C322 0.948 . S
H352 C328 0.982 . S
H353 C328 0.979 . S
H354 C328 0.977 1_554 S
H355 C329 0.979 . S
H356 C329 0.980 1_554 S
H357 C329 0.983 . S
H358 C302 0.947 . S
C359 C302 1.392 . S
C359 C303 1.419 . S
C359 H341 0.948 . S
C360 C361 1.391 . S
C360 C364 1.391 . S
C360 H402 0.948 . S
C361 C360 1.391 . S
C361 C362 1.391 . S
C362 C361 1.391 . S
C362 H418 0.947 . S
C362 C419 1.392 . S
C363 C364 1.391 . S
C363 C367 1.397 . S
C363 C419 1.419 . S
C364 C360 1.391 . S
C364 C363 1.391 . S
C364 C365 1.399 . S
C365 C364 1.399 . S
C365 C368 1.396 . S
C365 C377 1.453 . S
C365 C378 1.684 . S
H366 C390 0.948 . S
C367 C363 1.397 . S
C367 C368 1.394 . S
C367 C386 1.723 1_556 S
C368 C365 1.396 . S
C368 C367 1.394 . S
C368 C398 1.723 1_556 S
H369 C392 0.947 . S
H370 C393 0.948 1_556 S
H371 C399 0.982 . S
H372 C400 0.979 . S
H373 C400 0.980 . S
H374 C400 0.983 . S
H375 C399 0.979 . S
H376 C399 0.977 . S
C377 C365 1.453 . S
C377 H406 0.982 . S
C377 H407 0.979 . S
C377 H408 0.977 . S
C378 C365 1.684 . S
C378 H403 0.979 . S
C378 H404 0.980 . S
C378 H405 0.983 . S
C379 C380 1.391 . S
C379 C384 1.391 . S
C379 H409 0.948 . S
C380 C379 1.391 . S
C380 C381 1.391 . S
C381 C380 1.391 . S
C381 C382 1.392 . S
C381 H410 0.947 . S
C382 C381 1.392 . S
C382 C383 1.419 . S
C382 H411 0.948 . S
C383 C382 1.419 . S
C383 C384 1.391 . S
C383 C387 1.397 . S
C384 C379 1.391 . S
C384 C383 1.391 . S
C384 C385 1.399 . S
C385 C384 1.399 . S
C385 C386 1.396 . S
C385 C388 1.453 . S
C385 C389 1.684 . S
C386 C367 1.723 1_554 S
C386 C385 1.396 . S
C386 C387 1.394 . S
C387 C383 1.397 . S
C387 C386 1.394 . S
C387 C397 1.723 . S
C388 C385 1.453 . S
C388 H412 0.982 . S
C388 H413 0.979 . S
C388 H414 0.977 1_554 S
C389 C385 1.684 . S
C389 H415 0.979 . S
C389 H416 0.980 1_554 S
C389 H417 0.983 . S
C390 H366 0.948 . S
C390 C391 1.391 . S
C390 C395 1.391 . S
C391 C390 1.391 . S
C391 C392 1.391 . S
C392 H369 0.947 . S
C392 C391 1.391 . S
C392 C393 1.392 . S
C393 H370 0.948 1_554 S
C393 C392 1.392 . S
C393 C394 1.419 . S
C394 C393 1.419 . S
C394 C395 1.391 . S
C394 C398 1.397 . S
C395 C390 1.391 . S
C395 C394 1.391 . S
C395 C396 1.399 . S
C396 C395 1.399 . S
C396 C397 1.396 . S
C396 C399 1.453 . S
C396 C400 1.684 . S
C397 C387 1.723 . S
C397 C396 1.396 . S
C397 C398 1.394 . S
C398 C368 1.723 1_554 S
C398 C394 1.397 . S
C398 C397 1.394 . S
C399 H371 0.982 . S
C399 H375 0.979 . S
C399 H376 0.977 . S
C399 C396 1.453 . S
C400 H372 0.979 . S
C400 H373 0.980 . S
C400 H374 0.983 . S
C400 C396 1.684 . S
H401 C419 0.948 . S
H402 C360 0.948 . S
H403 C378 0.979 . S
H404 C378 0.980 . S
H405 C378 0.983 . S
H406 C377 0.982 . S
H407 C377 0.979 . S
H408 C377 0.977 . S
H409 C379 0.948 . S
H410 C381 0.947 . S
H411 C382 0.948 . S
H412 C388 0.982 . S
H413 C388 0.979 . S
H414 C388 0.977 1_556 S
H415 C389 0.979 . S
H416 C389 0.980 1_556 S
H417 C389 0.983 . S
H418 C362 0.947 . S
C419 C362 1.392 . S
C419 C363 1.419 . S
C419 H401 0.948 . S
C420 C421 1.391 . S
C420 C424 1.391 . S
C420 H462 0.948 . S
C421 C420 1.391 . S
C421 C422 1.391 . S
C422 C421 1.391 . S
C422 H478 0.947 . S
C422 C479 1.392 . S
C423 C424 1.391 . S
C423 C427 1.397 . S
C423 C479 1.419 . S
C424 C420 1.391 . S
C424 C423 1.391 . S
C424 C425 1.399 . S
C425 C424 1.399 . S
C425 C428 1.396 . S
C425 C437 1.453 . S
C425 C438 1.684 . S
H426 C450 0.948 . S
C427 C423 1.397 . S
C427 C428 1.394 . S
C427 C446 1.723 1_556 S
C428 C425 1.396 . S
C428 C427 1.394 . S
C428 C458 1.723 1_556 S
H429 C452 0.947 1_556 S
H430 C453 0.948 1_556 S
H431 C459 0.982 . S
H432 C460 0.979 . S
H433 C460 0.980 . S
H434 C460 0.983 . S
H435 C459 0.979 . S
H436 C459 0.977 . S
C437 C425 1.453 . S
C437 H466 0.982 . S
C437 H467 0.979 . S
C437 H468 0.977 . S
C438 C425 1.684 . S
C438 H463 0.979 . S
C438 H464 0.980 . S
C438 H465 0.983 . S
C439 C440 1.391 . S
C439 C444 1.391 . S
C439 H469 0.948 . S
C440 C439 1.391 . S
C440 C441 1.391 . S
C441 C440 1.391 . S
C441 C442 1.392 . S
C441 H470 0.947 . S
C442 C441 1.392 . S
C442 C443 1.419 . S
C442 H471 0.948 . S
C443 C442 1.419 . S
C443 C444 1.391 . S
C443 C447 1.397 . S
C444 C439 1.391 . S
C444 C443 1.391 . S
C444 C445 1.399 . S
C445 C444 1.399 . S
C445 C446 1.396 . S
C445 C448 1.453 . S
C445 C449 1.684 . S
C446 C427 1.723 1_554 S
C446 C445 1.396 . S
C446 C447 1.394 . S
C447 C443 1.397 . S
C447 C446 1.394 . S
C447 C457 1.723 . S
C448 C445 1.453 . S
C448 H472 0.982 . S
C448 H473 0.979 . S
C448 H474 0.977 1_554 S
C449 C445 1.684 . S
C449 H475 0.979 . S
C449 H476 0.980 1_554 S
C449 H477 0.983 . S
C450 H426 0.948 . S
C450 C451 1.391 . S
C450 C455 1.391 . S
C451 C450 1.391 . S
C451 C452 1.391 . S
C452 H429 0.947 1_554 S
C452 C451 1.391 . S
C452 C453 1.392 . S
C453 H430 0.948 1_554 S
C453 C452 1.392 . S
C453 C454 1.419 . S
C454 C453 1.419 . S
C454 C455 1.391 . S
C454 C458 1.397 . S
C455 C450 1.391 . S
C455 C454 1.391 . S
C455 C456 1.399 . S
C456 C455 1.399 . S
C456 C457 1.396 . S
C456 C459 1.453 . S
C456 C460 1.684 . S
C457 C447 1.723 . S
C457 C456 1.396 . S
C457 C458 1.394 . S
C458 C428 1.723 1_554 S
C458 C454 1.397 . S
C458 C457 1.394 . S
C459 H431 0.982 . S
C459 H435 0.979 . S
C459 H436 0.977 . S
C459 C456 1.453 . S
C460 H432 0.979 . S
C460 H433 0.980 . S
C460 H434 0.983 . S
C460 C456 1.684 . S
H461 C479 0.948 . S
H462 C420 0.948 . S
H463 C438 0.979 . S
H464 C438 0.980 . S
H465 C438 0.983 . S
H466 C437 0.982 . S
H467 C437 0.979 . S
H468 C437 0.977 . S
H469 C439 0.948 . S
H470 C441 0.947 . S
H471 C442 0.948 . S
H472 C448 0.982 . S
H473 C448 0.979 . S
H474 C448 0.977 1_556 S
H475 C449 0.979 . S
H476 C449 0.980 1_556 S
H477 C449 0.983 . S
H478 C422 0.947 . S
C479 C422 1.392 . S
C479 C423 1.419 . S
C479 H461 0.948 . S
C480 C482 1.422 . S
C480 C484 1.415 . S
C480 N486 1.369 . S
C481 C482 1.421 . S
C481 C483 1.417 . S
C481 C493 1.422 . S
C482 C480 1.422 . S
C482 C481 1.421 . S
C482 N492 1.359 . S
C483 C481 1.417 . S
C483 C485 1.329 . S
C483 H502 0.930 . S
C484 C480 1.415 . S
C484 C485 1.437 . S
C484 C488 1.413 . S
C485 C483 1.329 . S
C485 C484 1.437 . S
C485 H507 0.929 . S
N486 C480 1.369 . S
N486 C487 1.338 . S
N486 Gd491 2.622 1_545 S
C487 N486 1.338 . S
C487 C489 1.378 . S
C487 H499 0.930 1_545 S
C488 C484 1.413 . S
C488 C489 1.348 . S
C488 H504 0.931 . S
C489 C487 1.378 . S
C489 C488 1.348 . S
C489 H505 0.930 . S
Gd490 N510 2.622 . S
Gd490 N517 2.570 . S
Gd490 O524 2.353 1_655 S
Gd490 O525 2.468 . S
Gd490 O526 2.427 . S
Gd490 O528 2.388 . S
Gd490 O529 2.386 1_545 S
Gd490 O533 2.307 1_655 S
Gd490 C543 2.805 . S
Gd491 N486 2.622 1_565 S
Gd491 N492 2.570 1_565 S
Gd491 O523 2.386 1_565 S
Gd491 O527 2.307 1_465 S
Gd491 O530 2.353 . S
Gd491 O531 2.468 . S
Gd491 O532 2.427 . S
Gd491 O534 2.388 . S
Gd491 C555 2.805 . S
N492 C482 1.359 . S
N492 Gd491 2.570 1_545 S
N492 C494 1.343 . S
C493 C481 1.422 . S
C493 C495 1.321 . S
C493 H501 0.931 . S
C494 N492 1.343 . S
C494 C495 1.390 . S
C494 H496 0.905 1_455 S
C495 C493 1.321 . S
C495 C494 1.390 . S
C495 H497 0.930 . S
H496 C494 0.905 1_655 S
H497 C495 0.930 . S
H498 C521 0.931 1_455 S
H499 C487 0.930 1_565 S
H500 C522 0.930 1_455 S
H501 C493 0.931 . S
H502 C483 0.930 . S
H503 C512 0.929 . S
H504 C488 0.931 . S
H505 C489 0.930 . S
H506 C544 0.930 . S
H507 C485 0.929 . S
H508 C513 0.951 . S
H509 C514 0.930 . S
N510 Gd490 2.622 . S
N510 C511 1.369 . S
N510 C512 1.338 . S
C511 N510 1.369 . S
C511 C515 1.415 1_545 S
C511 C518 1.422 . S
C512 H503 0.929 . S
C512 N510 1.338 . S
C512 C514 1.378 . S
C513 H508 0.951 . S
C513 C514 1.324 1_565 S
C513 C515 1.418 . S
C514 H509 0.930 . S
C514 C512 1.378 . S
C514 C513 1.324 1_545 S
C515 C511 1.415 1_565 S
C515 C513 1.418 . S
C515 C545 1.437 . S
H516 C545 0.929 . S
N517 Gd490 2.570 . S
N517 C518 1.359 . S
N517 C521 1.343 . S
C518 C511 1.422 . S
C518 N517 1.359 . S
C518 C520 1.421 1_545 S
C519 C520 1.422 . S
C519 C522 1.321 . S
C519 H546 0.931 . S
C520 C518 1.421 1_565 S
C520 C519 1.422 . S
C520 C544 1.417 . S
C521 H498 0.931 1_655 S
C521 N517 1.343 . S
C521 C522 1.390 1_545 S
C522 H500 0.930 1_655 S
C522 C519 1.321 . S
C522 C521 1.390 1_565 S
O523 Gd491 2.386 1_545 S
O523 C535 1.265 . S
O524 Gd490 2.353 1_455 S
O524 C535 1.242 . S
O525 Gd490 2.468 . S
O525 C543 1.263 . S
O526 Gd490 2.427 . S
O526 C543 1.252 . S
O527 Gd491 2.307 1_645 S
O527 C536 1.261 . S
O528 Gd490 2.388 . S
O528 C536 1.252 . S
O529 Gd490 2.386 1_565 S
O529 C547 1.265 . S
O530 Gd491 2.353 . S
O530 C547 1.242 1_455 S
O531 Gd491 2.468 . S
O531 C555 1.263 . S
O532 Gd491 2.427 . S
O532 C555 1.252 . S
O533 Gd490 2.307 1_455 S
O533 C548 1.261 . S
O534 Gd491 2.388 . S
O534 C548 1.252 1_565 S
C535 O523 1.265 . S
C535 O524 1.242 . S
C536 O527 1.261 . S
C536 O528 1.252 . S
C537 C540 1.394 . S
C537 C542 1.370 . S
C537 C543 1.500 . S
C538 C541 1.383 . S
C538 C542 1.395 . S
C539 C540 1.396 . S
C539 C541 1.365 . S
C539 H556 0.929 . S
C540 C537 1.394 . S
C540 C539 1.396 . S
C540 H557 0.930 . S
C541 C538 1.383 . S
C541 C539 1.365 . S
C541 H558 0.931 . S
C542 C537 1.370 . S
C542 C538 1.395 . S
C542 H559 0.930 1_655 S
C543 Gd490 2.805 . S
C543 O525 1.263 . S
C543 O526 1.252 . S
C543 C537 1.500 . S
C544 H506 0.930 . S
C544 C520 1.417 . S
C544 C545 1.329 . S
C545 C515 1.437 . S
C545 H516 0.929 . S
C545 C544 1.329 . S
H546 C519 0.931 . S
C547 O529 1.265 . S
C547 O530 1.242 1_655 S
C548 O533 1.261 . S
C548 O534 1.252 1_545 S
C549 C552 1.394 . S
C549 C554 1.370 . S
C549 C555 1.500 . S
C550 C553 1.383 . S
C550 C554 1.395 . S
C551 C552 1.396 . S
C551 C553 1.365 . S
C551 H560 0.929 . S
C552 C549 1.394 . S
C552 C551 1.396 . S
C552 H561 0.930 . S
C553 C550 1.383 . S
C553 C551 1.365 . S
C553 H562 0.931 . S
C554 C549 1.370 . S
C554 C550 1.395 . S
C554 H563 0.930 . S
C555 Gd491 2.805 . S
C555 O531 1.263 . S
C555 O532 1.252 . S
C555 C549 1.500 . S
H556 C539 0.929 . S
H557 C540 0.930 . S
H558 C541 0.931 . S
H559 C542 0.930 1_455 S
H560 C551 0.929 . S
H561 C552 0.930 . S
H562 C553 0.931 . S
H563 C554 0.930 . S
C564 C566 1.422 . S
C564 C568 1.415 . S
C564 N570 1.369 . S
C565 C566 1.421 . S
C565 C567 1.417 . S
C565 C577 1.422 . S
C566 C564 1.422 . S
C566 C565 1.421 . S
C566 N576 1.359 . S
C567 C565 1.417 . S
C567 C569 1.329 . S
C567 H586 0.930 . S
C568 C564 1.415 . S
C568 C569 1.437 . S
C568 C572 1.413 . S
C569 C567 1.329 . S
C569 C568 1.437 . S
C569 H591 0.929 . S
N570 C564 1.369 . S
N570 C571 1.338 . S
N570 Gd575 2.622 . S
C571 N570 1.338 . S
C571 C573 1.378 . S
C571 H583 0.929 . S
C572 C568 1.413 . S
C572 C573 1.348 . S
C572 H588 0.931 . S
C573 C571 1.378 . S
C573 C572 1.348 . S
C573 H589 0.930 . S
Gd574 N594 2.622 . S
Gd574 N601 2.570 . S
Gd574 O608 2.353 1_545 S
Gd574 O609 2.468 . S
Gd574 O610 2.427 . S
Gd574 O612 2.388 . S
Gd574 O613 2.386 . S
Gd574 O617 2.307 . S
Gd574 C627 2.805 . S
Gd575 N570 2.622 . S
Gd575 N576 2.570 . S
Gd575 O607 2.386 . S
Gd575 O611 2.307 1_565 S
Gd575 O614 2.353 1_565 S
Gd575 O615 2.468 . S
Gd575 O616 2.427 . S
Gd575 O618 2.388 . S
Gd575 C639 2.805 . S
N576 C566 1.359 . S
N576 Gd575 2.570 . S
N576 C578 1.343 . S
C577 C565 1.422 . S
C577 C579 1.321 . S
C577 H585 0.931 . S
C578 N576 1.343 . S
C578 C579 1.390 . S
C578 H580 0.931 . S
C579 C577 1.321 . S
C579 C578 1.390 . S
C579 H581 0.930 . S
H580 C578 0.931 . S
H581 C579 0.930 . S
H582 C605 0.931 . S
H583 C571 0.929 . S
H584 C606 0.930 . S
H585 C577 0.931 . S
H586 C567 0.930 . S
H587 C596 0.929 . S
H588 C572 0.931 . S
H589 C573 0.930 . S
H590 C628 0.930 . S
H591 C569 0.929 . S
H592 C597 0.931 . S
H593 C598 0.930 . S
N594 Gd574 2.622 . S
N594 C595 1.369 . S
N594 C596 1.338 . S
C595 N594 1.369 . S
C595 C599 1.415 . S
C595 C602 1.422 . S
C596 H587 0.929 . S
C596 N594 1.338 . S
C596 C598 1.378 . S
C597 H592 0.931 . S
C597 C598 1.348 . S
C597 C599 1.413 . S
C598 H593 0.930 . S
C598 C596 1.378 . S
C598 C597 1.348 . S
C599 C595 1.415 . S
C599 C597 1.413 . S
C599 C629 1.437 . S
H600 C629 0.929 . S
N601 Gd574 2.570 . S
N601 C602 1.359 . S
N601 C605 1.343 . S
C602 C595 1.422 . S
C602 N601 1.359 . S
C602 C604 1.421 . S
C603 C604 1.422 . S
C603 C606 1.321 . S
C603 H630 0.931 . S
C604 C602 1.421 . S
C604 C603 1.422 . S
C604 C628 1.417 . S
C605 H582 0.931 . S
C605 N601 1.343 . S
C605 C606 1.390 . S
C606 H584 0.930 . S
C606 C603 1.321 . S
C606 C605 1.390 . S
O607 Gd575 2.386 . S
O607 C619 1.265 . S
O608 Gd574 2.353 1_565 S
O608 C619 1.242 . S
O609 Gd574 2.468 . S
O609 C627 1.263 . S
O610 Gd574 2.427 . S
O610 C627 1.252 . S
O611 Gd575 2.307 1_545 S
O611 C620 1.261 . S
O612 Gd574 2.388 . S
O612 C620 1.252 . S
O613 Gd574 2.386 . S
O613 C631 1.265 . S
O614 Gd575 2.353 1_545 S
O614 C631 1.242 . S
O615 Gd575 2.468 . S
O615 C639 1.263 . S
O616 Gd575 2.427 . S
O616 C639 1.252 . S
O617 Gd574 2.307 . S
O617 C632 1.244 1_545 S
O618 Gd575 2.388 . S
O618 C632 1.262 . S
C619 O607 1.265 . S
C619 O608 1.242 . S
C620 O611 1.261 . S
C620 O612 1.252 . S
C621 C624 1.394 . S
C621 C626 1.370 . S
C621 C627 1.500 . S
C622 C625 1.383 . S
C622 C626 1.395 . S
C623 C624 1.396 . S
C623 C625 1.365 . S
C623 H640 0.936 . S
C624 C621 1.394 . S
C624 C623 1.396 . S
C624 H641 0.930 . S
C625 C622 1.383 . S
C625 C623 1.365 . S
C625 H642 0.931 . S
C626 C621 1.370 . S
C626 C622 1.395 . S
C626 H643 0.930 . S
C627 Gd574 2.805 . S
C627 O609 1.263 . S
C627 O610 1.252 . S
C627 C621 1.500 . S
C628 H590 0.930 . S
C628 C604 1.417 . S
C628 C629 1.329 . S
C629 C599 1.437 . S
C629 H600 0.929 . S
C629 C628 1.329 . S
H630 C603 0.931 . S
C631 O613 1.265 . S
C631 O614 1.242 . S
C632 O617 1.244 1_565 S
C632 O618 1.262 . S
C633 C636 1.394 . S
C633 C638 1.358 1_565 S
C633 C639 1.500 . S
C634 C637 1.383 1_545 S
C634 C638 1.397 . S
C635 C636 1.396 . S
C635 C637 1.365 . S
C635 H644 0.929 . S
C636 C633 1.394 . S
C636 C635 1.396 . S
C636 H645 0.930 . S
C637 C634 1.383 1_565 S
C637 C635 1.365 . S
C637 H646 0.931 . S
C638 C633 1.358 1_545 S
C638 C634 1.397 . S
C638 H647 0.943 . S
C639 Gd575 2.805 . S
C639 O615 1.263 . S
C639 O616 1.252 . S
C639 C633 1.500 . S
H640 C623 0.936 . S
H641 C624 0.930 . S
H642 C625 0.931 . S
H643 C626 0.930 . S
H644 C635 0.929 . S
H645 C636 0.930 . S
H646 C637 0.931 . S
H647 C638 0.943 . S
C648 C650 1.422 . S
C648 C652 1.415 . S
C648 N654 1.369 . S
C649 C650 1.421 . S
C649 C651 1.417 . S
C649 C661 1.422 . S
C650 C648 1.422 . S
C650 C649 1.421 . S
C650 N660 1.359 . S
C651 C649 1.417 . S
C651 C653 1.329 . S
C651 H670 0.930 . S
C652 C648 1.415 . S
C652 C653 1.437 . S
C652 C656 1.413 . S
C653 C651 1.329 . S
C653 C652 1.437 . S
C653 H675 0.929 . S
N654 C648 1.369 . S
N654 C655 1.338 . S
N654 Gd659 2.622 . S
C655 N654 1.338 . S
C655 C657 1.378 . S
C655 H667 0.929 . S
C656 C652 1.413 . S
C656 C657 1.348 . S
C656 H672 0.931 . S
C657 C655 1.378 . S
C657 C656 1.348 . S
C657 H673 0.930 . S
Gd658 N678 2.622 . S
Gd658 N685 2.570 . S
Gd658 O692 2.353 . S
Gd658 O693 2.468 . S
Gd658 O694 2.427 . S
Gd658 O696 2.388 . S
Gd658 O697 2.386 . S
Gd658 O701 2.307 . S
Gd658 C711 2.805 . S
Gd659 N654 2.622 . S
Gd659 N660 2.570 . S
Gd659 O691 2.386 . S
Gd659 O695 2.307 . S
Gd659 O698 2.353 . S
Gd659 O699 2.468 . S
Gd659 O700 2.427 . S
Gd659 O702 2.388 . S
Gd659 C723 2.805 . S
N660 C650 1.359 . S
N660 Gd659 2.570 . S
N660 C662 1.343 . S
C661 C649 1.422 . S
C661 C663 1.321 . S
C661 H669 0.931 . S
C662 N660 1.343 . S
C662 C663 1.390 . S
C662 H664 0.931 . S
C663 C661 1.321 . S
C663 C662 1.390 . S
C663 H665 0.930 . S
H664 C662 0.931 . S
H665 C663 0.930 . S
H666 C689 0.931 . S
H667 C655 0.929 . S
H668 C690 0.930 . S
H669 C661 0.931 . S
H670 C651 0.930 . S
H671 C680 0.929 . S
H672 C656 0.931 . S
H673 C657 0.930 . S
H674 C712 0.930 . S
H675 C653 0.929 . S
H676 C681 0.931 . S
H677 C682 0.930 . S
N678 Gd658 2.622 . S
N678 C679 1.369 . S
N678 C680 1.338 . S
C679 N678 1.369 . S
C679 C683 1.415 . S
C679 C686 1.422 . S
C680 H671 0.929 . S
C680 N678 1.338 . S
C680 C682 1.378 . S
C681 H676 0.931 . S
C681 C682 1.348 . S
C681 C683 1.413 . S
C682 H677 0.930 . S
C682 C680 1.378 . S
C682 C681 1.348 . S
C683 C679 1.415 . S
C683 C681 1.413 . S
C683 C713 1.437 . S
H684 C713 0.929 . S
N685 Gd658 2.570 . S
N685 C686 1.359 . S
N685 C689 1.343 . S
C686 C679 1.422 . S
C686 N685 1.359 . S
C686 C688 1.421 . S
C687 C688 1.422 . S
C687 C690 1.321 . S
C687 H714 0.931 . S
C688 C686 1.421 . S
C688 C687 1.422 . S
C688 C712 1.417 . S
C689 H666 0.931 . S
C689 N685 1.343 . S
C689 C690 1.390 . S
C690 H668 0.930 . S
C690 C687 1.321 . S
C690 C689 1.390 . S
O691 Gd659 2.386 . S
O691 C703 1.265 . S
O692 Gd658 2.353 . S
O692 C703 1.242 . S
O693 Gd658 2.468 . S
O693 C711 1.263 . S
O694 Gd658 2.427 . S
O694 C711 1.252 . S
O695 Gd659 2.307 . S
O695 C704 1.261 . S
O696 Gd658 2.388 . S
O696 C704 1.252 . S
O697 Gd658 2.386 . S
O697 C715 1.265 . S
O698 Gd659 2.353 . S
O698 C715 1.242 . S
O699 Gd659 2.468 . S
O699 C723 1.263 . S
O700 Gd659 2.427 . S
O700 C723 1.252 . S
O701 Gd658 2.307 . S
O701 C716 1.261 . S
O702 Gd659 2.388 . S
O702 C716 1.252 . S
C703 O691 1.265 . S
C703 O692 1.242 . S
C704 O695 1.261 . S
C704 O696 1.252 . S
C705 C708 1.394 . S
C705 C710 1.370 . S
C705 C711 1.500 . S
C706 C709 1.383 . S
C706 C710 1.395 . S
C707 C708 1.396 . S
C707 C709 1.365 . S
C707 H724 0.929 . S
C708 C705 1.394 . S
C708 C707 1.396 . S
C708 H725 0.930 . S
C709 C706 1.383 . S
C709 C707 1.365 . S
C709 H726 0.931 . S
C710 C705 1.370 . S
C710 C706 1.395 . S
C710 H727 0.930 . S
C711 Gd658 2.805 . S
C711 O693 1.263 . S
C711 O694 1.252 . S
C711 C705 1.500 . S
C712 H674 0.930 . S
C712 C688 1.417 . S
C712 C713 1.329 . S
C713 C683 1.437 . S
C713 H684 0.929 . S
C713 C712 1.329 . S
H714 C687 0.931 . S
C715 O697 1.265 . S
C715 O698 1.242 . S
C716 O701 1.261 . S
C716 O702 1.252 . S
C717 C720 1.394 . S
C717 C722 1.370 . S
C717 C723 1.500 . S
C718 C721 1.383 . S
C718 C722 1.395 . S
C719 C720 1.396 . S
C719 C721 1.365 . S
C719 H728 0.929 . S
C720 C717 1.394 . S
C720 C719 1.396 . S
C720 H729 0.930 . S
C721 C718 1.383 . S
C721 C719 1.365 . S
C721 H730 0.931 . S
C722 C717 1.370 . S
C722 C718 1.395 . S
C722 H731 0.930 . S
C723 Gd659 2.805 . S
C723 O699 1.263 . S
C723 O700 1.252 . S
C723 C717 1.500 . S
H724 C707 0.929 . S
H725 C708 0.930 . S
H726 C709 0.931 . S
H727 C710 0.930 . S
H728 C719 0.929 . S
H729 C720 0.930 . S
H730 C721 0.931 . S
H731 C722 0.930 . S
C732 C734 1.422 . S
C732 C736 1.415 . S
C732 N738 1.369 1_455 S
C733 C734 1.421 . S
C733 C735 1.417 . S
C733 C745 1.422 . S
C734 C732 1.422 . S
C734 C733 1.421 . S
C734 N744 1.359 . S
C735 C733 1.417 . S
C735 C737 1.329 . S
C735 H754 0.930 . S
C736 C732 1.415 . S
C736 C737 1.437 . S
C736 C740 1.413 . S
C737 C735 1.329 . S
C737 C736 1.437 . S
C737 H759 0.929 . S
N738 C732 1.369 1_655 S
N738 C739 1.338 . S
N738 Gd743 2.622 . S
C739 N738 1.338 . S
C739 C741 1.378 1_655 S
C739 H751 0.929 . S
C740 C736 1.413 . S
C740 C741 1.348 . S
C740 H756 0.931 . S
C741 C739 1.378 1_455 S
C741 C740 1.348 . S
C741 H757 0.928 1_455 S
Gd742 N762 2.622 . S
Gd742 N769 2.570 . S
Gd742 O776 2.353 . S
Gd742 O777 2.468 . S
Gd742 O778 2.427 . S
Gd742 O780 2.388 . S
Gd742 O781 2.386 1_455 S
Gd742 O785 2.307 . S
Gd742 C795 2.805 . S
Gd743 N738 2.622 . S
Gd743 N744 2.570 1_655 S
Gd743 O775 2.386 1_655 S
Gd743 O779 2.307 . S
Gd743 O782 2.353 . S
Gd743 O783 2.468 . S
Gd743 O784 2.427 . S
Gd743 O786 2.388 . S
Gd743 C807 2.805 . S
N744 C734 1.359 . S
N744 Gd743 2.570 1_455 S
N744 C746 1.343 . S
C745 C733 1.422 . S
C745 C747 1.321 . S
C745 H753 0.931 . S
C746 N744 1.343 . S
C746 C747 1.390 . S
C746 H748 0.931 1_455 S
C747 C745 1.321 . S
C747 C746 1.390 . S
C747 H749 0.930 . S
H748 C746 0.931 1_655 S
H749 C747 0.930 . S
H750 C773 0.931 . S
H751 C739 0.929 . S
H752 C774 0.930 . S
H753 C745 0.931 . S
H754 C735 0.930 . S
H755 C764 0.929 . S
H756 C740 0.931 . S
H757 C741 0.928 1_655 S
H758 C796 0.930 . S
H759 C737 0.929 . S
H760 C765 0.931 . S
H761 C766 0.930 . S
N762 Gd742 2.622 . S
N762 C763 1.369 . S
N762 C764 1.338 . S
C763 N762 1.369 . S
C763 C767 1.415 1_455 S
C763 C770 1.424 . S
C764 H755 0.929 . S
C764 N762 1.338 . S
C764 C766 1.378 . S
C765 H760 0.931 . S
C765 C766 1.348 1_655 S
C765 C767 1.413 . S
C766 H761 0.930 . S
C766 C764 1.378 . S
C766 C765 1.348 1_455 S
C767 C763 1.415 1_655 S
C767 C765 1.413 . S
C767 C797 1.437 . S
H768 C797 0.929 . S
N769 Gd742 2.570 . S
N769 C770 1.365 . S
N769 C773 1.343 . S
C770 C763 1.424 . S
C770 N769 1.365 . S
C770 C772 1.414 1_455 S
C771 C772 1.422 . S
C771 C774 1.321 . S
C771 H798 0.931 . S
C772 C770 1.414 1_655 S
C772 C771 1.422 . S
C772 C796 1.417 . S
C773 H750 0.931 . S
C773 N769 1.343 . S
C773 C774 1.390 1_455 S
C774 H752 0.930 . S
C774 C771 1.321 . S
C774 C773 1.390 1_655 S
O775 Gd743 2.386 1_455 S
O775 C787 1.265 . S
O776 Gd742 2.353 . S
O776 C787 1.242 . S
O777 Gd742 2.468 . S
O777 C795 1.263 . S
O778 Gd742 2.427 . S
O778 C795 1.252 . S
O779 Gd743 2.307 . S
O779 C788 1.261 1_655 S
O780 Gd742 2.388 . S
O780 C788 1.252 . S
O781 Gd742 2.386 1_655 S
O781 C799 1.265 . S
O782 Gd743 2.353 . S
O782 C799 1.242 . S
O783 Gd743 2.468 . S
O783 C807 1.263 . S
O784 Gd743 2.427 . S
O784 C807 1.252 . S
O785 Gd742 2.307 . S
O785 C800 1.261 . S
O786 Gd743 2.388 . S
O786 C800 1.252 1_655 S
C787 O775 1.265 . S
C787 O776 1.242 . S
C788 O779 1.261 1_455 S
C788 O780 1.252 . S
C789 C792 1.394 . S
C789 C794 1.370 . S
C789 C795 1.500 . S
C790 C793 1.383 . S
C790 C794 1.395 . S
C791 C792 1.396 . S
C791 C793 1.365 . S
C791 H808 0.929 . S
C792 C789 1.394 . S
C792 C791 1.396 . S
C792 H809 0.930 . S
C793 C790 1.383 . S
C793 C791 1.365 . S
C793 H810 0.931 . S
C794 C789 1.370 . S
C794 C790 1.395 . S
C794 H811 0.930 . S
C795 Gd742 2.805 . S
C795 O777 1.263 . S
C795 O778 1.252 . S
C795 C789 1.500 . S
C796 H758 0.930 . S
C796 C772 1.417 . S
C796 C797 1.329 . S
C797 C767 1.437 . S
C797 H768 0.929 . S
C797 C796 1.329 . S
H798 C771 0.931 . S
C799 O781 1.265 . S
C799 O782 1.242 . S
C800 O785 1.261 . S
C800 O786 1.252 1_455 S
C801 C804 1.394 . S
C801 C806 1.370 . S
C801 C807 1.500 . S
C802 C805 1.383 . S
C802 C806 1.395 . S
C803 C804 1.396 . S
C803 C805 1.365 . S
C803 H812 0.929 . S
C804 C801 1.394 . S
C804 C803 1.396 . S
C804 H813 0.930 . S
C805 C802 1.383 . S
C805 C803 1.365 . S
C805 H814 0.931 . S
C806 C801 1.370 . S
C806 C802 1.395 . S
C806 H815 0.930 . S
C807 Gd743 2.805 . S
C807 O783 1.263 . S
C807 O784 1.252 . S
C807 C801 1.500 . S
H808 C791 0.929 . S
H809 C792 0.930 . S
H810 C793 0.931 . S
H811 C794 0.930 . S
H812 C803 0.929 . S
H813 C804 0.930 . S
H814 C805 0.931 . S
H815 C806 0.930 . S
H816 C822 0.930 . S
H817 C826 0.930 1_565 S
H818 C831 0.929 . S
H819 C829 0.929 . S
H820 C824 0.929 . S
H821 C830 0.929 . S
C822 H816 0.930 . S
C822 C823 1.367 . S
C822 C830 1.378 . S
C823 C822 1.367 . S
C823 C831 1.433 . S
C824 H820 0.929 . S
C824 C826 1.378 . S
C824 C828 1.350 . S
C825 C828 1.463 . S
C825 C830 1.350 . S
C825 N833 1.427 . S
C826 H817 0.930 1_545 S
C826 C824 1.378 . S
C826 C827 1.367 . S
C827 C826 1.367 . S
C827 C829 1.433 . S
C828 C824 1.350 . S
C828 C825 1.463 . S
C828 N832 1.427 . S
C829 H819 0.929 . S
C829 C827 1.433 . S
C829 N832 1.384 . S
C830 H821 0.929 . S
C830 C822 1.378 . S
C830 C825 1.350 . S
C831 H818 0.929 . S
C831 C823 1.433 . S
C831 N833 1.384 . S
N832 C828 1.427 . S
N832 C829 1.384 . S
N833 C825 1.427 . S
N833 C831 1.384 . S
H834 C840 0.930 . S
H835 C844 0.930 . S
H836 C849 0.929 . S
H837 C847 0.929 . S
H838 C842 0.929 . S
H839 C848 0.929 . S
C840 H834 0.930 . S
C840 C841 1.367 . S
C840 C848 1.378 . S
C841 C840 1.367 . S
C841 C849 1.433 . S
C842 H838 0.929 . S
C842 C844 1.378 . S
C842 C846 1.350 . S
C843 C846 1.463 . S
C843 C848 1.350 . S
C843 N851 1.427 . S
C844 H835 0.930 . S
C844 C842 1.378 . S
C844 C845 1.367 . S
C845 C844 1.367 . S
C845 C847 1.433 . S
C846 C842 1.350 . S
C846 C843 1.463 . S
C846 N850 1.427 . S
C847 H837 0.929 . S
C847 C845 1.433 . S
C847 N850 1.384 . S
C848 H839 0.929 . S
C848 C840 1.378 . S
C848 C843 1.350 . S
C849 H836 0.929 . S
C849 C841 1.433 . S
C849 N851 1.384 . S
N850 C846 1.427 . S
N850 C847 1.384 . S
N851 C843 1.427 . S
N851 C849 1.384 . S
H852 C858 0.930 . S
H853 C862 0.930 . S
H854 C867 0.929 . S
H855 C865 0.929 . S
H856 C860 0.929 . S
H857 C866 0.929 . S
C858 H852 0.930 . S
C858 C859 1.367 . S
C858 C866 1.378 . S
C859 C858 1.367 . S
C859 C867 1.433 . S
C860 H856 0.929 . S
C860 C862 1.378 . S
C860 C864 1.350 . S
C861 C864 1.463 . S
C861 C866 1.350 . S
C861 N869 1.427 . S
C862 H853 0.930 . S
C862 C860 1.378 . S
C862 C863 1.367 . S
C863 C862 1.367 . S
C863 C865 1.433 . S
C864 C860 1.350 . S
C864 C861 1.463 . S
C864 N868 1.427 . S
C865 H855 0.929 . S
C865 C863 1.433 . S
C865 N868 1.384 . S
C866 H857 0.929 . S
C866 C858 1.378 . S
C866 C861 1.350 . S
C867 H854 0.929 . S
C867 C859 1.433 . S
C867 N869 1.384 . S
N868 C864 1.427 . S
N868 C865 1.384 . S
N869 C861 1.427 . S
N869 C867 1.384 . S
H870 C876 0.930 . S
H871 C880 0.930 . S
H872 C885 0.929 . S
H873 C883 0.929 . S
H874 C878 0.929 1_655 S
H875 C884 0.929 . S
C876 H870 0.930 . S
C876 C877 1.367 . S
C876 C884 1.378 . S
C877 C876 1.367 . S
C877 C885 1.433 . S
C878 H874 0.929 1_455 S
C878 C880 1.378 1_455 S
C878 C882 1.350 . S
C879 C882 1.463 . S
C879 C884 1.350 . S
C879 N887 1.427 . S
C880 H871 0.930 . S
C880 C878 1.378 1_655 S
C880 C881 1.367 1_655 S
C881 C880 1.367 1_455 S
C881 C883 1.433 . S
C882 C878 1.350 . S
C882 C879 1.463 . S
C882 N886 1.427 . S
C883 H873 0.929 . S
C883 C881 1.433 . S
C883 N886 1.384 . S
C884 H875 0.929 . S
C884 C876 1.378 . S
C884 C879 1.350 . S
C885 H872 0.929 . S
C885 C877 1.433 . S
C885 N887 1.384 . S
N886 C882 1.427 . S
N886 C883 1.384 . S
N887 C879 1.427 . S
N887 C885 1.384 . S
H888 C894 0.930 1_545 S
H889 C898 0.930 . S
H890 C903 0.929 . S
H891 C901 0.929 . S
H892 C896 0.929 . S
H893 C902 0.967 . S
C894 H888 0.930 1_565 S
C894 C895 1.367 . S
C894 C902 1.371 1_565 S
C895 C894 1.367 . S
C895 C903 1.433 . S
C896 H892 0.929 . S
C896 C898 1.378 . S
C896 C900 1.350 . S
C897 C900 1.463 . S
C897 C902 1.320 1_566 S
C897 N905 1.427 . S
C898 H889 0.930 . S
C898 C896 1.378 . S
C898 C899 1.367 . S
C899 C898 1.367 . S
C899 C901 1.433 1_565 S
C900 C896 1.350 . S
C900 C897 1.463 . S
C900 N904 1.427 1_565 S
C901 H891 0.929 . S
C901 C899 1.433 1_545 S
C901 N904 1.384 . S
C902 H893 0.967 . S
C902 C894 1.371 1_545 S
C902 C897 1.320 1_544 S
C903 H890 0.929 . S
C903 C895 1.433 . S
C903 N905 1.384 1_554 S
N904 C900 1.427 1_545 S
N904 C901 1.384 . S
N905 C897 1.427 . S
N905 C903 1.384 1_556 S
H906 C912 0.930 . S
H907 C916 0.930 . S
H908 C921 0.929 . S
H909 C919 0.929 . S
H910 C914 0.929 . S
H911 C920 0.929 . S
C912 H906 0.930 . S
C912 C913 1.367 . S
C912 C920 1.378 1_554 S
C913 C912 1.367 . S
C913 C921 1.433 . S
C914 H910 0.929 . S
C914 C916 1.378 . S
C914 C918 1.350 . S
C915 C918 1.463 . S
C915 C920 1.350 . S
C915 N923 1.427 1_556 S
C916 H907 0.930 . S
C916 C914 1.378 . S
C916 C917 1.367 . S
C917 C916 1.367 . S
C917 C919 1.433 . S
C918 C914 1.350 . S
C918 C915 1.463 . S
C918 N922 1.427 . S
C919 H909 0.929 . S
C919 C917 1.433 . S
C919 N922 1.384 . S
C920 H911 0.929 . S
C920 C912 1.378 1_556 S
C920 C915 1.350 . S
C921 H908 0.929 . S
C921 C913 1.433 . S
C921 N923 1.384 . S
N922 C918 1.427 . S
N922 C919 1.384 . S
N923 C915 1.427 1_554 S
N923 C921 1.384 . S
H924 C930 0.930 . S
H925 C934 0.930 . S
H926 C939 0.929 . S
H927 C937 0.929 . S
H928 C932 0.929 . S
H929 C938 0.929 1_556 S
C930 H924 0.930 . S
C930 C931 1.367 . S
C930 C938 1.378 . S
C931 C930 1.367 . S
C931 C939 1.433 . S
C932 H928 0.929 . S
C932 C934 1.378 . S
C932 C936 1.350 . S
C933 C936 1.463 . S
C933 C938 1.350 1_556 S
C933 N941 1.427 1_556 S
C934 H925 0.930 . S
C934 C932 1.378 . S
C934 C935 1.367 . S
C935 C934 1.367 . S
C935 C937 1.433 . S
C936 C932 1.350 . S
C936 C933 1.463 . S
C936 N940 1.427 . S
C937 H927 0.929 . S
C937 C935 1.433 . S
C937 N940 1.384 . S
C938 H929 0.929 1_554 S
C938 C930 1.378 . S
C938 C933 1.350 1_554 S
C939 H926 0.929 . S
C939 C931 1.433 . S
C939 N941 1.384 . S
N940 C936 1.427 . S
N940 C937 1.384 . S
N941 C933 1.427 1_554 S
N941 C939 1.384 . S
H942 C948 0.930 . S
H943 C952 0.930 . S
H944 C957 0.929 . S
H945 C955 0.929 . S
H946 C950 0.933 . S
H947 C956 0.929 . S
C948 H942 0.930 . S
C948 C949 1.367 . S
C948 C956 1.378 . S
C949 C948 1.367 . S
C949 C957 1.433 . S
C950 H946 0.933 . S
C950 C952 1.379 . S
C950 C954 1.344 1_455 S
C951 C954 1.463 . S
C951 C956 1.350 1_556 S
C951 N959 1.427 . S
C952 H943 0.930 . S
C952 C950 1.379 . S
C952 C953 1.367 1_455 S
C953 C952 1.367 1_655 S
C953 C955 1.433 . S
C954 C950 1.344 1_655 S
C954 C951 1.463 . S
C954 N958 1.427 . S
C955 H945 0.929 . S
C955 C953 1.433 . S
C955 N958 1.384 . S
C956 H947 0.929 . S
C956 C948 1.378 . S
C956 C951 1.350 1_554 S
C957 H944 0.929 . S
C957 C949 1.433 . S
C957 N959 1.384 1_554 S
N958 C954 1.427 . S
N958 C955 1.384 . S
N959 C951 1.427 . S
N959 C957 1.384 1_556 S
H960 C966 0.930 . S
H961 C970 0.930 . S
H962 C975 0.929 . S
H963 C973 0.929 . S
H964 C968 0.930 . S
H965 C974 0.929 . S
C966 H960 0.930 . S
C966 C967 1.367 . S
C966 C974 1.378 . S
C967 C966 1.367 . S
C967 C975 1.433 . S
C968 H964 0.930 . S
C968 C970 1.380 . S
C968 C972 1.347 1_655 S
C969 C972 1.463 . S
C969 C974 1.350 . S
C969 N977 1.427 . S
C970 H961 0.930 . S
C970 C968 1.380 . S
C970 C971 1.367 . S
C971 C970 1.367 . S
C971 C973 1.433 1_655 S
C972 C968 1.347 1_455 S
C972 C969 1.463 . S
C972 N976 1.427 . S
C973 H963 0.929 . S
C973 C971 1.433 1_455 S
C973 N976 1.384 . S
C974 H965 0.929 . S
C974 C966 1.378 . S
C974 C969 1.350 . S
C975 H962 0.929 . S
C975 C967 1.433 . S
C975 N977 1.384 . S
N976 C972 1.427 . S
N976 C973 1.384 . S
N977 C969 1.427 . S
N977 C975 1.384 . S
H978 C984 0.930 . S
H979 C988 0.930 . S
H980 C993 0.929 . S
H981 C991 0.929 . S
H982 C986 0.929 . S
H983 C992 0.929 . S
C984 H978 0.930 . S
C984 C985 1.367 . S
C984 C992 1.378 . S
C985 C984 1.367 . S
C985 C993 1.433 . S
C986 H982 0.929 . S
C986 C988 1.378 . S
C986 C990 1.350 . S
C987 C990 1.463 . S
C987 C992 1.350 . S
C987 N995 1.427 . S
C988 H979 0.930 . S
C988 C986 1.378 . S
C988 C989 1.367 . S
C989 C988 1.367 . S
C989 C991 1.433 1_545 S
C990 C986 1.350 . S
C990 C987 1.463 . S
C990 N994 1.379 1_545 S
C991 H981 0.929 . S
C991 C989 1.433 1_565 S
C991 N994 1.406 . S
C992 H983 0.929 . S
C992 C984 1.378 . S
C992 C987 1.350 . S
C993 H980 0.929 . S
C993 C985 1.433 . S
C993 N995 1.384 . S
N994 C990 1.379 1_565 S
N994 C991 1.406 . S
N995 C987 1.427 . S
N995 C993 1.384 . S
H996 C1002 0.930 . S
H997 C1006 0.930 . S
H998 C1011 0.929 . S
H999 C1009 0.929 . S
H1000 C1004 0.929 . S
H1001 C1010 0.929 . S
C1002 H996 0.930 . S
C1002 C1003 1.367 . S
C1002 C1010 1.378 . S
C1003 C1002 1.367 . S
C1003 C1011 1.433 . S
C1004 H1000 0.929 . S
C1004 C1006 1.378 . S
C1004 C1008 1.350 . S
C1005 C1008 1.463 . S
C1005 C1010 1.350 . S
C1005 N1013 1.427 . S
C1006 H997 0.930 . S
C1006 C1004 1.378 . S
C1006 C1007 1.367 . S
C1007 C1006 1.367 . S
C1007 C1009 1.433 . S
C1008 C1004 1.350 . S
C1008 C1005 1.463 . S
C1008 N1012 1.427 . S
C1009 H999 0.929 . S
C1009 C1007 1.433 . S
C1009 N1012 1.384 . S
C1010 H1001 0.929 . S
C1010 C1002 1.378 . S
C1010 C1005 1.350 . S
C1011 H998 0.929 . S
C1011 C1003 1.433 . S
C1011 N1013 1.384 . S
N1012 C1008 1.427 . S
N1012 C1009 1.384 . S
N1013 C1005 1.427 . S
N1013 C1011 1.384 . S
H1014 C1020 0.930 . S
H1015 C1024 0.930 . S
H1016 C1029 0.929 . S
H1017 C1027 0.929 . S
H1018 C1022 0.929 . S
H1019 C1028 0.929 . S
C1020 H1014 0.930 . S
C1020 C1021 1.367 . S
C1020 C1028 1.378 . S
C1021 C1020 1.367 . S
C1021 C1029 1.433 . S
C1022 H1018 0.929 . S
C1022 C1024 1.378 . S
C1022 C1026 1.350 . S
C1023 C1026 1.463 . S
C1023 C1028 1.350 . S
C1023 N1031 1.427 . S
C1024 H1015 0.930 . S
C1024 C1022 1.378 . S
C1024 C1025 1.367 . S
C1025 C1024 1.367 . S
C1025 C1027 1.433 . S
C1026 C1022 1.350 . S
C1026 C1023 1.463 . S
C1026 N1030 1.427 . S
C1027 H1017 0.929 . S
C1027 C1025 1.433 . S
C1027 N1030 1.384 . S
C1028 H1019 0.929 . S
C1028 C1020 1.378 . S
C1028 C1023 1.350 . S
C1029 H1016 0.929 . S
C1029 C1021 1.433 . S
C1029 N1031 1.384 . S
N1030 C1026 1.427 . S
N1030 C1027 1.384 . S
N1031 C1023 1.427 . S
N1031 C1029 1.384 . S
H1032 C1038 0.930 . S
H1033 C1042 0.930 . S
H1034 C1047 0.929 . S
H1035 C1045 0.929 . S
H1036 C1040 0.929 . S
H1037 C1046 0.929 . S
C1038 H1032 0.930 . S
C1038 C1039 1.367 . S
C1038 C1046 1.378 . S
C1039 C1038 1.367 . S
C1039 C1047 1.433 1_554 S
C1040 H1036 0.929 . S
C1040 C1042 1.378 1_655 S
C1040 C1044 1.350 . S
C1041 C1044 1.463 . S
C1041 C1046 1.350 1_556 S
C1041 N1049 1.427 . S
C1042 H1033 0.930 . S
C1042 C1040 1.378 1_455 S
C1042 C1043 1.367 . S
C1043 C1042 1.367 . S
C1043 C1045 1.433 . S
C1044 C1040 1.350 . S
C1044 C1041 1.463 . S
C1044 N1048 1.427 1_655 S
C1045 H1035 0.929 . S
C1045 C1043 1.433 . S
C1045 N1048 1.384 . S
C1046 H1037 0.929 . S
C1046 C1038 1.378 . S
C1046 C1041 1.350 1_554 S
C1047 H1034 0.929 . S
C1047 C1039 1.433 1_556 S
C1047 N1049 1.384 . S
N1048 C1044 1.427 1_455 S
N1048 C1045 1.384 . S
N1049 C1041 1.427 . S
N1049 C1047 1.384 . S
H1050 C1056 0.930 . S
H1051 C1060 0.930 . S
H1052 C1065 0.929 . S
H1053 C1063 0.929 . S
H1054 C1058 0.929 . S
H1055 C1064 0.929 . S
C1056 H1050 0.930 . S
C1056 C1057 1.367 . S
C1056 C1064 1.378 . S
C1057 C1056 1.367 . S
C1057 C1065 1.433 1_554 S
C1058 H1054 0.929 . S
C1058 C1060 1.378 1_565 S
C1058 C1062 1.350 . S
C1059 C1062 1.463 . S
C1059 C1064 1.350 1_556 S
C1059 N1067 1.427 . S
C1060 H1051 0.930 . S
C1060 C1058 1.378 1_545 S
C1060 C1061 1.367 . S
C1061 C1060 1.367 . S
C1061 C1063 1.433 . S
C1062 C1058 1.350 . S
C1062 C1059 1.463 . S
C1062 N1066 1.427 1_565 S
C1063 H1053 0.929 . S
C1063 C1061 1.433 . S
C1063 N1066 1.384 . S
C1064 H1055 0.929 . S
C1064 C1056 1.378 . S
C1064 C1059 1.350 1_554 S
C1065 H1052 0.929 . S
C1065 C1057 1.433 1_556 S
C1065 N1067 1.384 . S
N1066 C1062 1.427 1_545 S
N1066 C1063 1.384 . S
N1067 C1059 1.427 . S
N1067 C1065 1.384 . S
H1068 C1074 0.930 . S
H1069 C1078 0.930 . S
H1070 C1083 0.929 . S
H1071 C1081 0.929 . S
H1072 C1076 0.929 . S
H1073 C1082 0.929 . S
C1074 H1068 0.930 . S
C1074 C1075 1.367 . S
C1074 C1082 1.378 . S
C1075 C1074 1.367 . S
C1075 C1083 1.433 1_554 S
C1076 H1072 0.929 . S
C1076 C1078 1.378 . S
C1076 C1080 1.350 . S
C1077 C1080 1.463 . S
C1077 C1082 1.350 1_556 S
C1077 N1085 1.427 . S
C1078 H1069 0.930 . S
C1078 C1076 1.378 . S
C1078 C1079 1.367 . S
C1079 C1078 1.367 . S
C1079 C1081 1.433 . S
C1080 C1076 1.350 . S
C1080 C1077 1.463 . S
C1080 N1084 1.427 . S
C1081 H1071 0.929 . S
C1081 C1079 1.433 . S
C1081 N1084 1.384 . S
C1082 H1073 0.929 . S
C1082 C1074 1.378 . S
C1082 C1077 1.350 1_554 S
C1083 H1070 0.929 . S
C1083 C1075 1.433 1_556 S
C1083 N1085 1.384 . S
N1084 C1080 1.427 . S
N1084 C1081 1.384 . S
N1085 C1077 1.427 . S
N1085 C1083 1.384 . S
H1086 C1092 0.930 . S
H1087 C1096 0.930 . S
H1088 C1101 0.929 . S
H1089 C1099 0.929 . S
H1090 C1094 0.929 . S
H1091 C1100 0.929 . S
C1092 H1086 0.930 . S
C1092 C1093 1.367 . S
C1092 C1100 1.378 1_554 S
C1093 C1092 1.367 . S
C1093 C1101 1.433 . S
C1094 H1090 0.929 . S
C1094 C1096 1.378 . S
C1094 C1098 1.350 . S
C1095 C1098 1.463 . S
C1095 C1100 1.350 . S
C1095 N1103 1.427 . S
C1096 H1087 0.930 . S
C1096 C1094 1.378 . S
C1096 C1097 1.367 . S
C1097 C1096 1.367 . S
C1097 C1099 1.433 . S
C1098 C1094 1.350 . S
C1098 C1095 1.463 . S
C1098 N1102 1.427 . S
C1099 H1089 0.929 . S
C1099 C1097 1.433 . S
C1099 N1102 1.384 . S
C1100 H1091 0.929 . S
C1100 C1092 1.378 1_556 S
C1100 C1095 1.350 . S
C1101 H1088 0.929 . S
C1101 C1093 1.433 . S
C1101 N1103 1.384 1_554 S
N1102 C1098 1.427 . S
N1102 C1099 1.384 . S
N1103 C1095 1.427 . S
N1103 C1101 1.384 1_556 S
H1104 C1110 0.930 . S
H1105 C1114 0.930 . S
H1106 C1119 0.929 . S
H1107 C1117 0.929 . S
H1108 C1112 0.929 . S
H1109 C1118 0.929 . S
C1110 H1104 0.930 . S
C1110 C1111 1.367 . S
C1110 C1118 1.378 . S
C1111 C1110 1.367 . S
C1111 C1119 1.433 . S
C1112 H1108 0.929 . S
C1112 C1114 1.378 . S
C1112 C1116 1.350 . S
C1113 C1116 1.463 . S
C1113 C1118 1.350 . S
C1113 N1121 1.427 . S
C1114 H1105 0.930 . S
C1114 C1112 1.378 . S
C1114 C1115 1.367 . S
C1115 C1114 1.367 . S
C1115 C1117 1.433 . S
C1116 C1112 1.350 . S
C1116 C1113 1.463 . S
C1116 N1120 1.427 . S
C1117 H1107 0.929 . S
C1117 C1115 1.433 . S
C1117 N1120 1.384 . S
C1118 H1109 0.929 . S
C1118 C1110 1.378 . S
C1118 C1113 1.350 . S
C1119 H1106 0.929 . S
C1119 C1111 1.433 . S
C1119 N1121 1.384 . S
N1120 C1116 1.427 . S
N1120 C1117 1.384 . S
N1121 C1113 1.427 . S
N1121 C1119 1.384 . S
H1122 C1128 0.930 . S
H1123 C1132 0.930 . S
H1124 C1137 0.929 . S
H1125 C1135 0.929 1_565 S
H1126 C1130 0.929 . S
H1127 C1136 0.929 . S
C1128 H1122 0.930 . S
C1128 C1129 1.367 . S
C1128 C1136 1.378 . S
C1129 C1128 1.367 . S
C1129 C1137 1.433 . S
C1130 H1126 0.929 . S
C1130 C1132 1.378 . S
C1130 C1134 1.350 . S
C1131 C1134 1.463 . S
C1131 C1136 1.350 . S
C1131 N1139 1.427 . S
C1132 H1123 0.930 . S
C1132 C1130 1.378 . S
C1132 C1133 1.367 . S
C1133 C1132 1.367 . S
C1133 C1135 1.433 . S
C1134 C1130 1.350 . S
C1134 C1131 1.463 . S
C1134 N1138 1.427 . S
C1135 H1125 0.929 1_545 S
C1135 C1133 1.433 . S
C1135 N1138 1.384 . S
C1136 H1127 0.929 . S
C1136 C1128 1.378 . S
C1136 C1131 1.350 . S
C1137 H1124 0.929 . S
C1137 C1129 1.433 . S
C1137 N1139 1.384 . S
N1138 C1134 1.427 . S
N1138 C1135 1.384 . S
N1139 C1131 1.427 . S
N1139 C1137 1.384 . S
H1140 C1146 0.930 . S
H1141 C1150 0.930 . S
H1142 C1155 0.929 . S
H1143 C1153 0.929 . S
H1144 C1148 0.929 . S
H1145 C1154 0.929 . S
C1146 H1140 0.930 . S
C1146 C1147 1.367 . S
C1146 C1154 1.378 . S
C1147 C1146 1.367 . S
C1147 C1155 1.433 . S
C1148 H1144 0.929 . S
C1148 C1150 1.378 . S
C1148 C1152 1.350 . S
C1149 C1152 1.463 . S
C1149 C1154 1.350 . S
C1149 N1157 1.427 . S
C1150 H1141 0.930 . S
C1150 C1148 1.378 . S
C1150 C1151 1.367 . S
C1151 C1150 1.367 . S
C1151 C1153 1.433 . S
C1152 C1148 1.350 . S
C1152 C1149 1.463 . S
C1152 N1156 1.427 . S
C1153 H1143 0.929 . S
C1153 C1151 1.433 . S
C1153 N1156 1.384 . S
C1154 H1145 0.929 . S
C1154 C1146 1.378 . S
C1154 C1149 1.350 . S
C1155 H1142 0.929 . S
C1155 C1147 1.433 . S
C1155 N1157 1.384 . S
N1156 C1152 1.427 . S
N1156 C1153 1.384 . S
N1157 C1149 1.427 . S
N1157 C1155 1.384 . S
H1158 C1164 0.930 . S
H1159 C1168 0.930 . S
H1160 C1173 0.929 . S
H1161 C1171 0.929 . S
H1162 C1166 0.929 . S
H1163 C1172 0.929 . S
C1164 H1158 0.930 . S
C1164 C1165 1.367 . S
C1164 C1172 1.378 . S
C1165 C1164 1.367 . S
C1165 C1173 1.433 . S
C1166 H1162 0.929 . S
C1166 C1168 1.378 . S
C1166 C1170 1.350 . S
C1167 C1170 1.463 . S
C1167 C1172 1.350 . S
C1167 N1175 1.427 . S
C1168 H1159 0.930 . S
C1168 C1166 1.378 . S
C1168 C1169 1.367 . S
C1169 C1168 1.367 . S
C1169 C1171 1.433 . S
C1170 C1166 1.350 . S
C1170 C1167 1.463 . S
C1170 N1174 1.427 . S
C1171 H1161 0.929 . S
C1171 C1169 1.433 . S
C1171 N1174 1.384 . S
C1172 H1163 0.929 . S
C1172 C1164 1.378 . S
C1172 C1167 1.350 . S
C1173 H1160 0.929 . S
C1173 C1165 1.433 . S
C1173 N1175 1.384 . S
N1174 C1170 1.427 . S
N1174 C1171 1.384 . S
N1175 C1167 1.427 . S
N1175 C1173 1.384 . S
H1176 C1182 0.930 . S
H1177 C1186 0.930 . S
H1178 C1191 0.929 1_455 S
H1179 C1189 0.929 . S
H1180 C1184 0.940 . S
H1181 C1190 0.929 . S
C1182 H1176 0.930 . S
C1182 C1183 1.367 . S
C1182 C1190 1.378 . S
C1183 C1182 1.367 . S
C1183 C1191 1.433 . S
C1184 H1180 0.940 . S
C1184 C1186 1.380 . S
C1184 C1188 1.336 1_455 S
C1185 C1188 1.463 . S
C1185 C1190 1.350 . S
C1185 N1193 1.427 . S
C1186 H1177 0.930 . S
C1186 C1184 1.380 . S
C1186 C1187 1.367 1_455 S
C1187 C1186 1.367 1_655 S
C1187 C1189 1.433 . S
C1188 C1184 1.336 1_655 S
C1188 C1185 1.463 . S
C1188 N1192 1.427 . S
C1189 H1179 0.929 . S
C1189 C1187 1.433 . S
C1189 N1192 1.384 . S
C1190 H1181 0.929 . S
C1190 C1182 1.378 . S
C1190 C1185 1.350 . S
C1191 H1178 0.929 1_655 S
C1191 C1183 1.433 . S
C1191 N1193 1.384 . S
N1192 C1188 1.427 . S
N1192 C1189 1.384 . S
N1193 C1185 1.427 . S
N1193 C1191 1.384 . S
H1194 C1200 0.930 . S
H1195 C1204 0.930 1_545 S
H1196 C1209 0.929 . S
H1197 C1207 0.929 . S
H1198 C1202 0.929 . S
H1199 C1208 0.929 . S
C1200 H1194 0.930 . S
C1200 C1201 1.367 . S
C1200 C1208 1.378 . S
C1201 C1200 1.367 . S
C1201 C1209 1.433 . S
C1202 H1198 0.929 . S
C1202 C1204 1.378 . S
C1202 C1206 1.350 . S
C1203 C1206 1.463 . S
C1203 C1208 1.350 . S
C1203 N1211 1.427 . S
C1204 H1195 0.930 1_565 S
C1204 C1202 1.378 . S
C1204 C1205 1.367 . S
C1205 C1204 1.367 . S
C1205 C1207 1.433 . S
C1206 C1202 1.350 . S
C1206 C1203 1.463 . S
C1206 N1210 1.427 . S
C1207 H1197 0.929 . S
C1207 C1205 1.433 . S
C1207 N1210 1.384 . S
C1208 H1199 0.929 . S
C1208 C1200 1.378 . S
C1208 C1203 1.350 . S
C1209 H1196 0.929 . S
C1209 C1201 1.433 . S
C1209 N1211 1.384 . S
N1210 C1206 1.427 . S
N1210 C1207 1.384 . S
N1211 C1203 1.427 . S
N1211 C1209 1.384 . S
H1212 C1218 0.930 . S
H1213 C1222 0.930 . S
H1214 C1227 0.929 . S
H1215 C1225 0.929 . S
H1216 C1220 0.929 . S
H1217 C1226 0.929 . S
C1218 H1212 0.930 . S
C1218 C1219 1.367 . S
C1218 C1226 1.378 . S
C1219 C1218 1.367 . S
C1219 C1227 1.433 . S
C1220 H1216 0.929 . S
C1220 C1222 1.378 . S
C1220 C1224 1.350 . S
C1221 C1224 1.463 . S
C1221 C1226 1.350 . S
C1221 N1229 1.427 . S
C1222 H1213 0.930 . S
C1222 C1220 1.378 . S
C1222 C1223 1.367 . S
C1223 C1222 1.367 . S
C1223 C1225 1.433 . S
C1224 C1220 1.350 . S
C1224 C1221 1.463 . S
C1224 N1228 1.427 . S
C1225 H1215 0.929 . S
C1225 C1223 1.433 . S
C1225 N1228 1.384 . S
C1226 H1217 0.929 . S
C1226 C1218 1.378 . S
C1226 C1221 1.350 . S
C1227 H1214 0.929 . S
C1227 C1219 1.433 . S
C1227 N1229 1.384 . S
N1228 C1224 1.427 . S
N1228 C1225 1.384 . S
N1229 C1221 1.427 . S
N1229 C1227 1.384 . S
H1230 C1236 0.930 . S
H1231 C1240 0.930 . S
H1232 C1245 0.929 . S
H1233 C1243 0.929 . S
H1234 C1238 0.929 . S
H1235 C1244 0.929 . S
C1236 H1230 0.930 . S
C1236 C1237 1.367 . S
C1236 C1244 1.378 . S
C1237 C1236 1.367 . S
C1237 C1245 1.433 . S
C1238 H1234 0.929 . S
C1238 C1240 1.378 . S
C1238 C1242 1.350 . S
C1239 C1242 1.463 . S
C1239 C1244 1.350 . S
C1239 N1247 1.427 . S
C1240 H1231 0.930 . S
C1240 C1238 1.378 . S
C1240 C1241 1.367 . S
C1241 C1240 1.367 . S
C1241 C1243 1.433 . S
C1242 C1238 1.350 . S
C1242 C1239 1.463 . S
C1242 N1246 1.427 . S
C1243 H1233 0.929 . S
C1243 C1241 1.433 . S
C1243 N1246 1.384 . S
C1244 H1235 0.929 . S
C1244 C1236 1.378 . S
C1244 C1239 1.350 . S
C1245 H1232 0.929 . S
C1245 C1237 1.433 . S
C1245 N1247 1.384 . S
N1246 C1242 1.427 . S
N1246 C1243 1.384 . S
N1247 C1239 1.427 . S
N1247 C1245 1.384 . S
C823 C391 2.403 . S
C827 C548 2.439 . S
C845 C631 2.450 . S
C841 C451 2.417 . S
C863 C716 2.436 . S
C859 C241 2.073 . S
C881 C800 2.415 . S
C877 C331 2.069 . S
C899 C536 2.442 1_565 S
C895 C121 2.130 . S
C913 C211 2.374 . S
C917 C619 2.448 . S
C931 C31 2.360 . S
C935 C704 2.439 . S
C949 C91 2.109 . S
C953 C788 2.417 1_655 S
C971 C538 0.493 . S
C967 C301 0.596 . S
C989 C634 0.541 . S
C985 C380 0.404 . S
C1007 C706 0.483 . S
C1003 C440 0.469 . S
C1021 C260 0.583 . S
C1025 C790 0.464 . S
C1039 C61 0.484 . S
C1043 C550 0.488 . S
C1061 C622 0.557 . S
C1057 C140 0.467 . S
C1079 C718 0.487 . S
C1075 C200 0.537 . S
C1093 C20 0.484 . S
C1097 C802 0.502 . S
C1111 C320 2.736 . S
C1115 C535 2.912 . S
C1129 C361 2.410 . S
C1133 C620 2.958 . S
C1151 C703 2.943 . S
C1147 C421 2.445 . S
C1169 C787 2.944 . S
C1165 C271 2.773 . S
C1183 C80 2.765 . S
C1187 C547 2.913 . S
C1205 C632 2.962 . S
C1201 C151 2.768 . S
C1223 C715 2.943 . S
C1219 C181 2.411 . S
C1237 C1 2.420 . S
C1241 C799 2.946 . S
