# Generated by pormake.
# Topology zzz, (3,6)-cn, num edge types: 1
# Building blocks:
#     Node 0, Type 0, BuildingBlock: ESEHIV_clean_linker_0, # of connection points: 3
#     Node 1, Type 0, BuildingBlock: ESEHIV_clean_linker_0, # of connection points: 3
#     Node 2, Type 0, BuildingBlock: ESEHIV_clean_linker_0, # of connection points: 3
#     Node 3, Type 0, BuildingBlock: ESEHIV_clean_linker_0, # of connection points: 3
#     Node 4, Type 0, BuildingBlock: ESEHIV_clean_linker_0, # of connection points: 3
#     Node 5, Type 0, BuildingBlock: ESEHIV_clean_linker_0, # of connection points: 3
#     Node 6, Type 0, BuildingBlock: ESEHIV_clean_linker_0, # of connection points: 3
#     Node 7, Type 0, BuildingBlock: ESEHIV_clean_linker_0, # of connection points: 3
#     Node 8, Type 1, BuildingBlock: KUMBUR_clean_sbu_0, # of connection points: 6
#     Node 9, Type 1, BuildingBlock: KUMBUR_clean_sbu_0, # of connection points: 6
#     Node 10, Type 1, BuildingBlock: KUMBUR_clean_sbu_0, # of connection points: 6
#     Node 11, Type 1, BuildingBlock: KUMBUR_clean_sbu_0, # of connection points: 6
#     Edge 12, Type (0, 1), BuildingBlock: EZIPEK_clean_linker_0, # of connection points: 2
#     Edge 13, Type (0, 1), BuildingBlock: EZIPEK_clean_linker_0, # of connection points: 2
#     Edge 14, Type (0, 1), BuildingBlock: EZIPEK_clean_linker_0, # of connection points: 2
#     Edge 15, Type (0, 1), BuildingBlock: EZIPEK_clean_linker_0, # of connection points: 2
#     Edge 16, Type (0, 1), BuildingBlock: EZIPEK_clean_linker_0, # of connection points: 2
#     Edge 17, Type (0, 1), BuildingBlock: EZIPEK_clean_linker_0, # of connection points: 2
#     Edge 18, Type (0, 1), BuildingBlock: EZIPEK_clean_linker_0, # of connection points: 2
#     Edge 19, Type (0, 1), BuildingBlock: EZIPEK_clean_linker_0, # of connection points: 2
#     Edge 20, Type (0, 1), BuildingBlock: EZIPEK_clean_linker_0, # of connection points: 2
#     Edge 21, Type (0, 1), BuildingBlock: EZIPEK_clean_linker_0, # of connection points: 2
#     Edge 22, Type (0, 1), BuildingBlock: EZIPEK_clean_linker_0, # of connection points: 2
#     Edge 23, Type (0, 1), BuildingBlock: EZIPEK_clean_linker_0, # of connection points: 2
#     Edge 24, Type (0, 1), BuildingBlock: EZIPEK_clean_linker_0, # of connection points: 2
#     Edge 25, Type (0, 1), BuildingBlock: EZIPEK_clean_linker_0, # of connection points: 2
#     Edge 26, Type (0, 1), BuildingBlock: EZIPEK_clean_linker_0, # of connection points: 2
#     Edge 27, Type (0, 1), BuildingBlock: EZIPEK_clean_linker_0, # of connection points: 2
#     Edge 28, Type (0, 1), BuildingBlock: EZIPEK_clean_linker_0, # of connection points: 2
#     Edge 29, Type (0, 1), BuildingBlock: EZIPEK_clean_linker_0, # of connection points: 2
#     Edge 30, Type (0, 1), BuildingBlock: EZIPEK_clean_linker_0, # of connection points: 2
#     Edge 31, Type (0, 1), BuildingBlock: EZIPEK_clean_linker_0, # of connection points: 2
#     Edge 32, Type (0, 1), BuildingBlock: EZIPEK_clean_linker_0, # of connection points: 2
#     Edge 33, Type (0, 1), BuildingBlock: EZIPEK_clean_linker_0, # of connection points: 2
#     Edge 34, Type (0, 1), BuildingBlock: EZIPEK_clean_linker_0, # of connection points: 2
#     Edge 35, Type (0, 1), BuildingBlock: EZIPEK_clean_linker_0, # of connection points: 2
# Relax obj value: 0.423
# Max RMSD: 0.239
# Mean RMSD: 0.217
data_MOF--net-zzz--node1-KUMBUR_clean_sbu_0--node2-ESEHIV_clean_linker_0--edge1-EZIPEK_clean_linker_0
_symmetry_space_group_name_H-M    P1
_symmetry_Int_Tables_number       1
_symmetry_cell_setting            triclinic
loop_
_symmetry_equiv_pos_as_xyz
'x, y, z'
_cell_length_a     31.451235
_cell_length_b     31.502485
_cell_length_c     11.285435
_cell_angle_alpha  91.404758
_cell_angle_beta   90.797455
_cell_angle_gamma 89.745907
loop_
_atom_site_label
_atom_site_type_symbol
_atom_site_fract_x
_atom_site_fract_y
_atom_site_fract_z
_atom_type_partial_charge
H0 H 0.79509 0.61264 0.24554 0.0
H1 H 0.67789 0.61324 0.05044 0.0
H2 H 0.70902 0.50766 0.27396 0.0
C3 C 0.76523 0.59753 0.22175 0.0
C4 C 0.75548 0.55968 0.27852 0.0
C5 C 0.7397 0.61446 0.13022 0.0
C6 C 0.69931 0.59711 0.11024 0.0
C7 C 0.688 0.55684 0.15074 0.0
C8 C 0.71666 0.53817 0.2384 0.0
H9 H 0.05363 0.84581 0.19035 0.0
H10 H 0.05617 0.72126 0.03944 0.0
H11 H 0.96503 0.75096 0.31111 0.0
C12 C 0.03986 0.81429 0.18797 0.0
C13 C 0.00913 0.80341 0.27269 0.0
C14 C 0.05665 0.78437 0.10727 0.0
C15 C 0.04058 0.74377 0.09854 0.0
C16 C 1.00469 0.73174 0.15927 0.0
C17 C 0.98979 0.76119 0.25337 0.0
H18 H 0.70722 0.93375 0.48703 0.0
H19 H 0.81271 0.97531 0.36492 0.0
H20 H 0.79268 0.03556 0.55884 0.0
C21 C 0.73616 0.95011 0.47019 0.0
C22 C 0.74551 0.98786 0.53298 0.0
C23 C 0.75331 0.94309 0.36082 0.0
C24 C 0.79725 0.94847 0.36268 0.0
C25 C 0.81502 0.99291 0.38668 0.0
C26 C 0.78448 0.0096 0.49948 0.0
H27 H 0.57046 0.68069 0.36326 0.0
H28 H 0.47831 0.78108 0.3946 0.0
H29 H 0.56862 0.78037 0.11103 0.0
C30 C 0.55744 0.71009 0.33055 0.0
C31 C 0.57387 0.72767 0.2274 0.0
C32 C 0.52074 0.72596 0.38455 0.0
C33 C 0.50477 0.76654 0.34835 0.0
C34 C 0.52369 0.78761 0.25058 0.0
C35 C 0.55635 0.76615 0.1899 0.0
H36 H 0.22035 0.5814 0.05714 0.0
H37 H 0.29387 0.55748 0.36489 0.0
H38 H 0.27237 0.45608 0.1106 0.0
C39 C 0.23916 0.55873 0.10589 0.0
C40 C 0.23899 0.51574 0.07067 0.0
C41 C 0.2545 0.5726 0.21649 0.0
C42 C 0.28121 0.5461 0.28128 0.0
C43 C 0.2925 0.5054 0.23941 0.0
C44 C 0.26836 0.48881 0.13695 0.0
H45 H 0.09764 0.21302 0.12429 0.0
H46 H 0.10708 0.33368 0.30116 0.0
H47 H 0.98767 0.29364 0.13714 0.0
C48 C 0.08297 0.24277 0.15046 0.0
C49 C 0.04212 0.25128 0.10467 0.0
C50 C 0.10507 0.27057 0.22927 0.0
C51 C 0.08734 0.31077 0.25372 0.0
C52 C 0.04359 0.31974 0.23676 0.0
C53 C 0.02099 0.28907 0.15708 0.0
H54 H 0.32952 0.93924 0.21017 0.0
H55 H 0.21785 0.95695 0.41688 0.0
H56 H 0.23162 0.02816 0.09959 0.0
C57 C 0.29941 0.95553 0.22268 0.0
C58 C 0.28503 0.98513 0.13849 0.0
C59 C 0.27432 0.9444 0.31894 0.0
C60 C 0.23644 0.96564 0.34099 0.0
C61 C 0.2214 0.99713 0.26735 0.0
C62 C 0.24482 1.00597 0.16209 0.0
H63 H 0.55046 0.29688 0.16034 0.0
H64 H 0.43834 0.21929 0.17049 0.0
H65 H 0.55324 0.18288 0.35774 0.0
C66 C 0.53433 0.26849 0.18817 0.0
C67 C 0.55508 0.24137 0.26726 0.0
C68 C 0.4932 0.26026 0.145 0.0
C69 C 0.47132 0.22435 0.1929 0.0
C70 C 0.49292 0.19583 0.27269 0.0
C71 C 0.53551 0.20428 0.3013 0.0
Tb72 Tb 0.04612 0.01141 0.79608 0.0
C73 C 0.86739 0.03945 0.47079 0.0
C74 C 0.85788 0.96545 0.2292 0.0
C75 C 0.80216 0.04958 0.26049 0.0
C76 C 0.8871 0.99383 0.42423 0.0
C77 C 0.82836 0.06697 0.39366 0.0
C78 C 0.81672 1.00057 0.17603 0.0
C79 C 0.8336 0.11403 0.56668 0.0
N80 N 0.88728 0.05699 0.56719 0.0
C81 C 0.86729 0.09105 0.62116 0.0
C82 C 0.81593 0.10381 0.45405 0.0
Tb83 Tb 0.962 0.04428 0.59559 0.0
N84 N 0.94088 0.99357 0.4383 0.0
C85 C 0.97767 0.97468 0.33519 0.0
C86 C 0.90325 0.94417 0.12593 0.0
C87 C 0.96265 0.94836 0.18074 0.0
H88 H 0.88084 0.10462 0.70182 0.0
H89 H 0.98765 0.93586 0.12486 0.0
H90 H 0.80932 0.9908 0.07683 0.0
H91 H 0.8217 0.14207 0.61283 0.0
H92 H 0.01027 0.97366 0.3615 0.0
H93 H 0.07975 0.14081 0.10215 0.0
H94 H 0.87334 0.95361 0.16117 0.0
H95 H 0.1167 0.94373 0.66802 0.0
H96 H 0.03748 0.08441 1.0062 0.0
H97 H 0.19148 0.94302 0.61392 0.0
H98 H 0.80674 0.02502 0.20696 0.0
H99 H 0.15345 0.1535 0.03544 0.0
H100 H 0.21623 0.12667 0.92047 0.0
H101 H 0.79097 0.12349 0.4174 0.0
H102 H 0.24704 0.07169 0.78833 0.0
N103 N 0.08459 0.06576 0.88496 0.0
C104 C 0.06912 0.08948 0.9773 0.0
C105 C 0.13488 0.12816 0.99513 0.0
C106 C 0.15246 0.10079 0.90988 0.0
C107 C 0.09354 0.12121 0.03274 0.0
C108 C 0.12631 0.06917 0.85704 0.0
H109 H 0.23769 1.0036 0.67264 0.0
N110 N 0.11742 1.0068 0.74238 0.0
C111 C 0.17817 0.97065 0.65883 0.0
C112 C 0.1437 0.03819 0.78475 0.0
C113 C 0.13504 0.97172 0.6873 0.0
C114 C 0.20429 1.00453 0.6931 0.0
C115 C 0.18752 0.0382 0.76016 0.0
O116 O 0.06826 1.00425 0.97162 0.0
O117 O 0.99695 0.98948 0.66213 0.0
O118 O 0.93282 0.03171 0.78766 0.0
O119 O 0.99193 0.02556 0.91642 0.0
O120 O 0.04395 0.94924 0.70029 0.0
O121 O 0.04603 0.95059 0.86963 0.0
O122 O 0.93801 0.09802 0.50825 0.0
O123 O 1.00459 0.06391 0.74402 0.0
O124 O 0.07868 0.03757 0.64437 0.0
O125 O 0.02576 0.03142 0.50122 0.0
O126 O 0.95979 0.10577 0.69821 0.0
O127 O 0.99876 0.07299 0.46809 0.0
C128 C 0.01103 0.95182 0.63209 0.0
C129 C 0.1121 0.94318 0.96595 0.0
C130 C 0.15385 0.8798 0.91792 0.0
C131 C 0.11473 0.89981 0.94299 0.0
C132 C 0.19097 0.90407 0.91932 0.0
C133 C 0.14999 0.96676 0.9741 0.0
C134 C 0.18908 0.94732 0.94911 0.0
C135 C 0.94993 0.02898 0.90213 0.0
C136 C 0.06966 0.96337 0.9589 0.0
C137 C 0.21331 0.07104 0.8066 0.0
C138 C 0.19575 0.1024 0.88135 0.0
C139 C 0.99147 0.1022 0.77028 0.0
C140 C 0.98998 0.14657 0.4547 0.0
C141 C 0.034 0.15336 0.46726 0.0
C142 C 0.05106 0.19307 0.44417 0.0
C143 C 0.02277 0.22622 0.41641 0.0
C144 C 0.96248 0.18062 0.4327 0.0
C145 C 0.97897 0.2207 0.41649 0.0
C146 C 0.0673 0.03638 0.53218 0.0
C147 C 0.97263 0.10382 0.45189 0.0
H148 H 0.0854 0.88208 0.94224 0.0
H149 H 0.22117 0.8895 0.89822 0.0
H150 H 0.14939 1.00024 0.99727 0.0
H151 H 0.21784 0.96596 0.95004 0.0
H152 H 0.05472 0.12759 0.4917 0.0
H153 H 0.03437 0.25609 0.38968 0.0
H154 H 0.92846 0.17588 0.42369 0.0
H155 H 0.95799 0.24696 0.39619 0.0
Tb156 Tb 0.50888 0.03895 0.86707 0.0
C157 C 0.57796 0.9211 0.57105 0.0
C158 C 0.58257 0.94549 0.37034 0.0
C159 C 0.63628 0.89771 0.44561 0.0
C160 C 0.56038 0.94285 0.47744 0.0
C161 C 0.6153 0.89669 0.55398 0.0
C162 C 0.62111 0.92376 0.35612 0.0
C163 C 0.60708 0.8693 0.74908 0.0
N164 N 0.55663 0.92059 0.67475 0.0
C165 C 0.57067 0.89435 0.76273 0.0
C166 C 0.62954 0.87047 0.64415 0.0
Tb167 Tb 0.49116 0.95419 0.6732 0.0
N168 N 0.52004 0.95793 0.48684 0.0
C169 C 0.49806 0.96767 0.38457 0.0
C170 C 0.56363 0.96708 0.2773 0.0
C171 C 0.52034 0.97575 0.28161 0.0
H172 H 0.55302 0.89022 0.84162 0.0
H173 H 0.50469 0.98961 0.20716 0.0
H174 H 0.63818 0.92489 0.27356 0.0
H175 H 0.61738 0.84859 0.81913 0.0
H176 H 0.46425 0.97425 0.38645 0.0
H177 H 0.40357 0.01545 0.23774 0.0
H178 H 0.58118 0.97432 0.19877 0.0
H179 H 0.53028 0.12839 0.71985 0.0
H180 H 0.45108 0.99303 0.08065 0.0
H181 H 0.49827 0.19894 0.69584 0.0
H182 H 0.66426 0.87829 0.42978 0.0
H183 H 0.37601 0.08894 0.24587 0.0
H184 H 0.36859 0.15888 0.14689 0.0
H185 H 0.65763 0.85079 0.63331 0.0
H186 H 0.38948 0.20629 0.98802 0.0
N187 N 0.45651 0.05387 1.00431 0.0
C188 C 0.44213 0.02564 0.08467 0.0
C189 C 0.39859 0.07957 0.17833 0.0
C190 C 0.41065 0.10769 0.09136 0.0
C191 C 0.41407 0.03816 0.17404 0.0
C192 C 0.44088 0.09416 1.0068 0.0
H193 H 0.43719 0.22123 0.81854 0.0
N194 N 0.48538 0.10852 0.84808 0.0
C195 C 0.48545 0.17754 0.75977 0.0
C196 C 0.4543 0.12173 0.92237 0.0
C197 C 0.5035 0.13739 0.77396 0.0
C198 C 0.45099 0.18994 0.82891 0.0
C199 C 0.43612 0.16263 0.9146 0.0
O200 O 0.5461 0.08881 0.9398 0.0
O201 O 0.54284 0.99279 0.7512 0.0
O202 O 0.48756 0.92595 0.85122 0.0
O203 O 0.51241 0.97985 0.97806 0.0
O204 O 0.55576 0.05457 0.73437 0.0
O205 O 0.55604 0.02522 0.99475 0.0
O206 O 0.48976 0.88787 0.68122 0.0
O207 O 0.46242 0.9912 0.81782 0.0
O208 O 0.47468 0.06462 0.70894 0.0
O209 O 0.48662 0.01292 0.56746 0.0
O210 O 0.42386 0.97695 0.68002 0.0
O211 O 0.44889 0.9201 0.5601 0.0
C212 C 0.56867 0.01792 0.69944 0.0
C213 C 0.61721 0.06552 0.95668 0.0
C214 C 0.68881 0.03768 0.98043 0.0
C215 C 0.64521 0.0358 1.00256 0.0
C216 C 0.70442 0.06828 0.9045 0.0
C217 C 0.6328 0.0964 0.88045 0.0
C218 C 0.67616 0.09724 0.85326 0.0
C219 C 0.50121 0.93919 0.95752 0.0
C220 C 0.57218 0.06297 0.98997 0.0
C221 C 0.40409 0.17516 0.99335 0.0
C222 C 0.39235 0.14827 0.08403 0.0
C223 C 0.42381 0.99562 0.7835 0.0
C224 C 0.42583 0.85353 0.63109 0.0
C225 C 0.3875 0.85605 0.56919 0.0
C226 C 0.35252 0.83205 0.60186 0.0
C227 C 0.35663 0.80248 0.69194 0.0
C228 C 0.43044 0.82326 0.7204 0.0
C229 C 0.39599 0.79759 0.74965 0.0
C230 C 0.47748 0.05286 0.59592 0.0
C231 C 0.45985 0.88345 0.60263 0.0
H232 H 0.63353 0.01261 0.06383 0.0
H233 H 0.73825 0.07112 0.89019 0.0
H234 H 0.6117 0.11974 0.84198 0.0
H235 H 0.68805 0.12121 0.7953 0.0
H236 H 0.38374 0.87907 0.49968 0.0
H237 H 0.32948 0.78424 0.719 0.0
H238 H 0.4602 0.81995 0.76884 0.0
H239 H 0.39948 0.77486 0.81956 0.0
Tb240 Tb 0.51949 0.47078 0.65009 0.0
C241 C 0.34867 0.46092 0.83124 0.0
C242 C 0.30359 0.49092 0.67991 0.0
C243 C 0.27752 0.43278 0.79572 0.0
C244 C 0.3434 0.48804 0.7388 0.0
C245 C 0.31545 0.4336 0.86287 0.0
C246 C 0.27124 0.4621 0.70576 0.0
C247 C 0.35198 0.42295 0.04844 0.0
N248 N 0.38361 0.46629 0.90149 0.0
C249 C 0.38161 0.45348 1.01667 0.0
C250 C 0.31973 0.41131 0.96799 0.0
Tb251 Tb 0.43623 0.50996 0.83192 0.0
N252 N 0.37544 0.51526 0.71665 0.0
C253 C 0.36827 0.54834 0.64262 0.0
C254 C 0.29676 0.52416 0.60201 0.0
C255 C 0.32902 0.55361 0.58593 0.0
H256 H 0.40411 0.46533 0.08203 0.0
H257 H 0.32354 0.58131 0.53314 0.0
H258 H 0.24076 0.46334 0.66002 0.0
H259 H 0.35293 0.4099 0.13627 0.0
H260 H 0.39148 0.57297 0.63558 0.0
H261 H 0.60251 0.38573 1.00874 0.0
H262 H 0.26625 0.52833 0.55797 0.0
H263 H 0.5581 0.55925 0.5031 0.0
H264 H 0.54095 0.41749 0.92024 0.0
H265 H 0.62484 0.5939 0.48164 0.0
H266 H 0.25167 0.41202 0.81862 0.0
H267 H 0.67411 0.40268 0.93875 0.0
H268 H 0.71949 0.44556 0.80956 0.0
H269 H 0.29552 0.38921 0.99438 0.0
H270 H 0.72554 0.50353 0.67023 0.0
N271 N 0.57382 0.44961 0.78216 0.0
C272 C 0.57045 0.42366 0.8784 0.0
C273 C 0.64644 0.41606 0.8949 0.0
C274 C 0.65058 0.4453 0.80529 0.0
C275 C 0.60618 0.40627 0.93402 0.0
C276 C 0.61341 0.46229 0.75148 0.0
H277 H 0.69048 0.56149 0.55808 0.0
N278 N 0.5806 0.5117 0.62516 0.0
C279 C 0.62309 0.56632 0.53667 0.0
C280 C 0.61683 0.49529 0.67402 0.0
C281 C 0.58405 0.54675 0.55445 0.0
C282 C 0.6601 0.54803 0.58017 0.0
C283 C 0.65747 0.51205 0.64904 0.0
O284 O 0.54503 0.47139 0.47806 0.0
O285 O 0.45203 0.49086 0.64854 0.0
O286 O 0.4396 0.44006 0.86112 0.0
O287 O 0.4984 0.41569 0.7561 0.0
O288 O 0.46641 0.43851 0.55273 0.0
O289 O 0.53807 0.41282 0.56919 0.0
O290 O 0.43033 0.53599 1.00419 0.0
O291 O 0.50555 0.50662 0.8108 0.0
O292 O 0.49974 0.53566 0.58553 0.0
O293 O 0.4603 0.56638 0.73779 0.0
O294 O 0.48462 0.50651 0.97809 0.0
O295 O 0.40033 0.56569 0.85744 0.0
C296 C 0.43476 0.46286 0.5782 0.0
C297 C 0.59822 0.41746 0.44618 0.0
C298 C 0.64903 0.35995 0.40766 0.0
C299 C 0.60701 0.37439 0.42691 0.0
C300 C 0.6825 0.38898 0.40838 0.0
C301 C 0.63199 0.44608 0.43856 0.0
C302 C 0.67378 0.43214 0.42206 0.0
C303 C 0.46764 0.40963 0.83455 0.0
C304 C 0.55422 0.43103 0.47777 0.0
C305 C 0.69428 0.49235 0.69305 0.0
C306 C 0.69083 0.45915 0.77162 0.0
C307 C 0.5193 0.50603 0.91852 0.0
C308 C 0.42681 0.61006 1.00493 0.0
C309 C 0.47055 0.61644 0.9979 0.0
C310 C 0.48825 0.6551 0.03351 0.0
C311 C 0.46133 0.68893 0.06731 0.0
C312 C 0.39997 0.64357 0.03946 0.0
C313 C 0.41728 0.68326 0.06864 0.0
C314 C 0.482 0.56991 0.63829 0.0
C315 C 0.4094 0.56907 0.96878 0.0
H316 H 0.58101 0.3519 0.42779 0.0
H317 H 0.71502 0.37836 0.39705 0.0
H318 H 0.62649 0.47921 0.44871 0.0
H319 H 0.69946 0.45486 0.4213 0.0
H320 H 0.49114 0.59081 0.96839 0.0
H321 H 0.47444 0.71946 0.09431 0.0
H322 H 0.36586 0.63912 0.0427 0.0
H323 H 0.3967 0.70936 0.09487 0.0
Tb324 Tb 0.01252 0.5683 0.60161 0.0
C325 C 0.02573 0.40999 0.89735 0.0
C326 C 0.01507 0.34866 0.76821 0.0
C327 C 0.06167 0.34377 0.94065 0.0
C328 C 0.00906 0.39219 0.79453 0.0
C329 C 0.05244 0.38617 0.97182 0.0
C330 C 0.04207 0.32476 0.84053 0.0
C331 C 0.05797 0.44775 0.10281 0.0
N332 N 0.01689 0.45145 0.92199 0.0
C333 C 0.0306 0.46977 0.02723 0.0
C334 C 0.06947 0.40597 0.07404 0.0
Tb335 Tb 0.97562 0.48645 0.78465 0.0
N336 N 0.9855 0.41716 0.72273 0.0
C337 C 0.96334 0.39912 0.62967 0.0
C338 C 0.99334 0.33037 0.67103 0.0
C339 C 0.96684 0.35571 0.60224 0.0
H340 H 0.0219 0.50186 0.05128 0.0
H341 H 0.94954 0.34201 0.52715 0.0
H342 H 0.04771 0.2917 0.8189 0.0
H343 H 0.06999 0.46291 0.18354 0.0
H344 H 0.94286 0.41819 0.57616 0.0
H345 H 0.03555 0.71172 0.85742 0.0
H346 H 0.99674 0.29689 0.64857 0.0
H347 H 0.97962 0.56116 0.32178 0.0
H348 H 0.04801 0.63712 0.80056 0.0
H349 H 0.93814 0.60301 0.18447 0.0
H350 H 0.08329 0.32539 0.9945 0.0
H351 H 0.97545 0.75161 0.76914 0.0
H352 H 0.92144 0.75621 0.60481 0.0
H353 H 0.09079 0.38911 0.13253 0.0
H354 H 0.89556 0.72664 0.4133 0.0
N355 N 0.99648 0.63441 0.67696 0.0
C356 C 0.02206 0.65409 0.75971 0.0
C357 C 0.98131 0.71894 0.74223 0.0
C358 C 0.95834 0.70023 0.64846 0.0
C359 C 0.01491 0.69648 0.79326 0.0
C360 C 0.96813 0.65796 0.61452 0.0
H361 H 0.90543 0.67167 0.25166 0.0
N362 N 0.97172 0.60457 0.46796 0.0
C363 C 0.94125 0.61411 0.27527 0.0
C364 C 0.95579 0.64273 0.50454 0.0
C365 C 0.96562 0.5905 0.35344 0.0
C366 C 0.92305 0.65255 0.31348 0.0
C367 C 0.93042 0.66747 0.42919 0.0
O368 O 0.04929 0.59166 0.46199 0.0
O369 O 1.00133 0.50048 0.61236 0.0
O370 O 0.0469 0.48326 0.79832 0.0
O371 O 0.06451 0.54933 0.73058 0.0
O372 O 0.02171 0.5201 0.45572 0.0
O373 O 0.07427 0.58947 0.63939 0.0
O374 O 0.93828 0.47774 0.93465 0.0
O375 O 0.9863 0.55525 0.7734 0.0
O376 O 0.94199 0.56369 0.56793 0.0
O377 O 0.92492 0.49853 0.64395 0.0
O378 O 0.96814 0.53507 0.93037 0.0
O379 O 0.91634 0.45708 0.76078 0.0
C380 C 0.0099 0.48635 0.50726 0.0
C381 C 0.09936 0.64476 0.52464 0.0
C382 C 0.16087 0.6859 0.47 0.0
C383 C 0.14296 0.64751 0.50619 0.0
C384 C 0.13722 0.72355 0.48167 0.0
C385 C 0.07509 0.68219 0.52757 0.0
C386 C 0.09448 0.72155 0.51376 0.0
C387 C 0.07554 0.51393 0.78707 0.0
C388 C 0.08068 0.60211 0.53304 0.0
C389 C 0.91564 0.70733 0.4694 0.0
C390 C 0.93001 0.72397 0.57888 0.0
C391 C 0.97809 0.56938 0.8791 0.0
C392 C 0.86507 0.47942 0.89565 0.0
C393 C 0.8565 0.52274 0.87923 0.0
C394 C 0.81774 0.5401 0.91698 0.0
C395 C 0.78739 0.51325 0.96603 0.0
C396 C 0.83384 0.45291 0.94012 0.0
C397 C 0.79482 0.46979 0.97384 0.0
C398 C 0.91441 0.53206 0.57862 0.0
C399 C 0.90694 0.46159 0.87202 0.0
H400 H 0.16134 0.61834 0.49816 0.0
H401 H 0.15028 0.75342 0.45411 0.0
H402 H 0.04123 0.6813 0.53594 0.0
H403 H 0.07531 0.75004 0.51861 0.0
H404 H 0.88051 0.54305 0.84301 0.0
H405 H 0.75855 0.52605 1.00288 0.0
H406 H 0.84007 0.41938 0.9515 0.0
H407 H 0.77096 0.4495 1.01083 0.0
C408 C 0.14116 0.99507 0.28896 0.0
C409 C 0.17985 0.01721 0.30717 0.0
C410 C 0.14306 0.06008 0.46395 0.0
C411 C 0.10396 0.03782 0.44063 0.0
N412 N 0.06705 0.00877 0.27134 0.0
N413 N 0.21555 0.07641 0.40136 0.0
C414 C 0.10315 0.01219 0.33603 0.0
C415 C 0.17997 0.05184 0.391 0.0
N416 N 0.14019 0.95657 0.23148 0.0
N417 N 0.14436 0.09054 0.55166 0.0
H418 H 0.24228 0.07072 0.34944 0.0
H419 H 0.21771 0.10395 0.45372 0.0
H420 H 0.11711 0.10097 0.59441 0.0
H421 H 0.17194 0.10557 0.58189 0.0
H422 H 0.1123 0.93877 0.22409 0.0
H423 H 0.16741 0.94141 0.19957 0.0
H424 H 0.0647 0.99055 0.19335 0.0
H425 H 0.04254 0.02977 0.28911 0.0
C426 C 0.4981 0.11724 0.30942 0.0
C427 C 0.4757 0.15581 0.3302 0.0
C428 C 0.44417 0.12106 0.50379 0.0
C429 C 0.4739 0.0865 0.4977 0.0
N430 N 0.53682 0.06003 0.39813 0.0
N431 N 0.42482 0.19257 0.45525 0.0
C432 C 0.5024 0.08642 0.40009 0.0
C433 C 0.44813 0.15723 0.42926 0.0
N434 N 0.51703 0.11053 0.20301 0.0
N435 N 0.41096 0.11927 0.579 0.0
H436 H 0.42554 0.22002 0.4054 0.0
H437 H 0.42554 0.22002 0.4054 0.0
H438 H 0.40291 0.09078 0.61693 0.0
H439 H 0.38917 0.14411 0.58993 0.0
H440 H 0.5293 0.08091 0.179 0.0
H441 H 0.51538 0.13268 0.13573 0.0
H442 H 0.5611 0.06252 0.33671 0.0
H443 H 0.54409 0.03909 0.46497 0.0
C444 C 0.32567 0.45384 0.39651 0.0
C445 C 0.33063 0.48482 0.30731 0.0
C446 C 0.40591 0.49311 0.37902 0.0
C447 C 0.39878 0.46925 0.48271 0.0
N448 N 0.35677 0.41285 0.55912 0.0
N449 N 0.37451 0.53752 0.22663 0.0
C450 C 0.36006 0.44517 0.48142 0.0
C451 C 0.37099 0.50478 0.30212 0.0
N452 N 0.28711 0.43456 0.40462 0.0
N453 N 0.44653 0.50245 0.34814 0.0
H454 H 0.40073 0.55764 0.22499 0.0
H455 H 0.40073 0.55764 0.22499 0.0
H456 H 0.47281 0.49445 0.3998 0.0
H457 H 0.45419 0.51467 0.26613 0.0
H458 H 0.27876 0.41484 0.473 0.0
H459 H 0.26256 0.4398 0.3435 0.0
H460 H 0.33178 0.39134 0.5587 0.0
H461 H 0.3807 0.4061 0.62092 0.0
C462 C 0.04662 0.37107 0.42522 0.0
C463 C 0.02656 0.36012 0.31209 0.0
C464 C 0.98799 0.43046 0.3412 0.0
C465 C 0.01282 0.44175 0.44534 0.0
N466 N 0.07697 0.42616 0.55281 0.0
N467 N 0.97774 0.3858 0.1623 0.0
C468 C 0.04545 0.41315 0.47623 0.0
C469 C 0.99648 0.39144 0.2712 0.0
N470 N 0.06508 0.34042 0.49116 0.0
N471 N 0.95665 0.45783 0.30693 0.0
H472 H 0.98418 0.36001 0.10668 0.0
H473 H 0.95906 0.4085 0.12086 0.0
H474 H 0.95143 0.48691 0.35054 0.0
H475 H 0.93394 0.45084 0.24158 0.0
H476 H 0.07759 0.34609 0.57608 0.0
H477 H 0.06211 0.30878 0.46839 0.0
H478 H 0.10422 0.40801 0.5683 0.0
H479 H 0.0782 0.45677 0.58966 0.0
C480 C 0.87434 0.06567 0.16777 0.0
C481 C 0.87671 0.03317 0.2634 0.0
C482 C 0.94333 0.02305 0.14357 0.0
C483 C 0.92397 0.03077 0.02675 0.0
N484 N 0.86154 0.06827 0.95561 0.0
N485 N 0.91586 0.94626 0.3155 0.0
C486 C 0.88554 0.05377 0.04696 0.0
C487 C 0.91704 1.00502 0.24583 0.0
N488 N 0.86599 0.10733 0.1926 0.0
N489 N 0.97516 0.04963 0.17514 0.0
H490 H 0.89774 0.92465 0.36524 0.0
H491 H 0.89774 0.92465 0.36524 0.0
H492 H 0.98681 0.07149 0.11661 0.0
H493 H 0.98173 0.05557 0.26385 0.0
H494 H 0.86334 0.12942 0.12552 0.0
H495 H 0.86796 0.12012 0.27833 0.0
H496 H 0.8338 0.08581 0.97097 0.0
H497 H 0.86773 0.05994 0.86779 0.0
C498 C 0.54869 0.85896 0.18058 0.0
C499 C 0.51357 0.83217 0.20516 0.0
C500 C 0.46847 0.88324 0.09468 0.0
C501 C 0.50484 0.90564 0.05458 0.0
N502 N 0.58133 0.91041 0.05873 0.0
N503 N 0.43951 0.81719 0.16604 0.0
C504 C 0.54521 0.89195 0.0972 0.0
C505 C 0.47312 0.84414 0.15799 0.0
N506 N 0.58729 0.85261 0.23312 0.0
N507 N 0.4292 0.9002 0.07634 0.0
H508 H 0.44151 0.78841 0.20918 0.0
H509 H 0.41068 0.82186 0.12152 0.0
H510 H 0.40155 0.88802 0.11207 0.0
H511 H 0.42548 0.92945 0.03719 0.0
H512 H 0.59278 0.8317 0.30214 0.0
H513 H 0.59278 0.8317 0.30214 0.0
H514 H 0.61176 0.89955 0.08085 0.0
H515 H 0.5804 0.93713 1.00739 0.0
C516 C 0.63721 0.54433 0.96874 0.0
C517 C 0.64701 0.53697 0.09094 0.0
C518 C 0.57527 0.50309 0.0942 0.0
C519 C 0.56399 0.51595 0.97652 0.0
N520 N 0.58461 0.56409 0.82612 0.0
N521 N 0.61355 0.52226 0.27422 0.0
C522 C 0.59489 0.54148 0.92254 0.0
C523 C 0.61289 0.51946 0.1546 0.0
N524 N 0.66786 0.55377 0.89077 0.0
N525 N 0.55094 0.47441 0.14992 0.0
H526 H 0.63938 0.53461 0.3218 0.0
H527 H 0.58615 0.51712 0.32251 0.0
H528 H 0.52537 0.45969 0.10816 0.0
H529 H 0.5597 0.4617 0.23115 0.0
H530 H 0.70014 0.55166 0.91056 0.0
H531 H 0.70014 0.55166 0.91056 0.0
H532 H 0.60577 0.58534 0.78907 0.0
H533 H 0.55514 0.56122 0.78532 0.0
C534 C 0.01578 0.65158 0.12641 0.0
C535 C 0.98826 0.68741 0.11395 0.0
C536 C 0.95128 0.64519 0.95046 0.0
C537 C 0.98297 0.61224 0.95174 0.0
N538 N 0.04847 0.58817 0.03905 0.0
N539 N 0.93011 0.71802 1.00593 0.0
C540 C 0.01571 0.61662 0.04035 0.0
C541 C 0.9558 0.68374 0.02414 0.0
N542 N 0.04196 0.65083 0.22362 0.0
N543 N 0.91682 0.6398 0.87743 0.0
H544 H 0.93138 0.74511 0.06099 0.0
H545 H 0.90906 0.72045 0.93444 0.0
H546 H 0.91313 0.61253 0.82458 0.0
H547 H 0.89091 0.66042 0.87518 0.0
H548 H 0.05982 0.62438 0.24706 0.0
H549 H 0.04208 0.6754 0.28738 0.0
H550 H 0.07579 0.59167 0.09094 0.0
H551 H 0.05039 0.56345 0.97655 0.0
C552 C 0.13875 0.26608 0.42599 0.0
C553 C 0.14207 0.25469 0.30482 0.0
C554 C 0.12345 0.18314 0.34953 0.0
C555 C 0.09776 0.20126 0.44133 0.0
N556 N 0.09808 0.25235 0.60367 0.0
N557 N 0.18317 0.19797 0.21976 0.0
C558 C 0.1125 0.23982 0.49522 0.0
C559 C 0.15123 0.21117 0.29149 0.0
N560 N 0.15766 0.30207 0.46887 0.0
N561 N 0.11954 0.14195 0.31281 0.0
H562 H 0.19312 0.16639 0.21369 0.0
H563 H 0.20111 0.22001 0.17431 0.0
H564 H 0.09732 0.12159 0.34704 0.0
H565 H 0.13848 0.12832 0.24717 0.0
H566 H 0.15696 0.31161 0.55785 0.0
H567 H 0.17554 0.32085 0.41316 0.0
H568 H 0.10705 0.28061 0.64655 0.0
H569 H 0.07618 0.23402 0.64823 0.0
C570 C 0.29149 0.91797 0.52136 0.0
C571 C 0.28623 0.90936 0.39821 0.0
C572 C 0.30488 0.83492 0.42904 0.0
C573 C 0.3115 0.8449 0.55033 0.0
N574 N 0.29061 0.88823 0.71649 0.0
N575 N 0.27351 0.85666 0.24289 0.0
C576 C 0.29629 0.88357 0.5977 0.0
C577 C 0.28819 0.86671 0.35409 0.0
N578 N 0.29557 0.95861 0.56444 0.0
N579 N 0.31724 0.79605 0.38588 0.0
H580 H 0.257 0.87847 0.19162 0.0
H581 H 0.27395 0.82594 0.20727 0.0
H582 H 0.32817 0.77249 0.44253 0.0
H583 H 0.31817 0.788 0.2959 0.0
H584 H 0.30421 0.96552 0.65239 0.0
H585 H 0.29468 0.98496 0.51021 0.0
H586 H 0.27715 0.91559 0.75434 0.0
H587 H 0.29534 0.86279 0.77294 0.0
C588 C 0.62867 0.26564 0.2338 0.0
C589 C 0.59751 0.25333 0.31555 0.0
C590 C 0.6389 0.28829 0.4729 0.0
C591 C 0.65609 0.31411 0.38626 0.0
N592 N 0.67875 0.3207 0.18537 0.0
N593 N 0.57494 0.25145 0.52173 0.0
C594 C 0.65621 0.29941 0.26718 0.0
C595 C 0.60408 0.26228 0.4391 0.0
N596 N 0.62967 0.24686 0.12365 0.0
N597 N 0.65129 0.29438 0.58812 0.0
H598 H 0.54706 0.23502 0.50249 0.0
H599 H 0.57694 0.2618 0.61002 0.0
H600 H 0.67498 0.31636 0.61132 0.0
H601 H 0.64101 0.27531 0.65619 0.0
H602 H 0.65297 0.25312 0.06185 0.0
H603 H 0.60903 0.22215 0.09933 0.0
H604 H 0.67587 0.31497 0.09433 0.0
H605 H 0.69985 0.34488 0.21009 0.0
C606 C 0.25923 0.64241 0.3397 0.0
C607 C 0.23567 0.61227 0.2692 0.0
C608 C 0.17601 0.66077 0.27389 0.0
C609 C 0.19285 0.68109 0.37604 0.0
N610 N 0.25363 0.69463 0.50176 0.0
N611 N 0.16377 0.5882 0.22289 0.0
C612 C 0.23598 0.6736 0.40664 0.0
C613 C 0.19179 0.62027 0.24816 0.0
N614 N 0.30256 0.64178 0.34173 0.0
N615 N 0.13936 0.67455 0.22196 0.0
H616 H 0.17224 0.55618 0.22479 0.0
H617 H 0.13109 0.59352 0.21962 0.0
H618 H 0.12426 0.70239 0.25008 0.0
H619 H 0.12653 0.65928 0.14651 0.0
H620 H 0.32059 0.66464 0.38772 0.0
H621 H 0.32004 0.62113 0.28737 0.0
H622 H 0.28387 0.68761 0.53506 0.0
H623 H 0.23666 0.71806 0.54843 0.0
C624 C 0.13461 0.79699 0.07922 0.0
C625 C 0.0927 0.79461 0.03059 0.0
C626 C 0.12029 0.81589 0.83993 0.0
C627 C 0.15517 0.83299 0.90326 0.0
N628 N 0.20902 0.81009 0.03759 0.0
N629 N 0.04609 0.79731 0.85791 0.0
C630 C 0.16715 0.81284 1.00757 0.0
C631 C 0.08589 0.80056 0.90677 0.0
N632 N 0.14272 0.78628 0.19359 0.0
N633 N 0.11788 0.82128 0.72085 0.0
H634 H 0.0196 0.78955 0.90734 0.0
H635 H 0.0389 0.80494 0.77064 0.0
H636 H 0.14262 0.83599 0.67674 0.0
H637 H 0.09355 0.80884 0.66719 0.0
H638 H 0.17189 0.79153 0.23625 0.0
H639 H 0.11951 0.77343 0.24656 0.0
H640 H 0.22002 0.79165 0.10702 0.0
H641 H 0.23233 0.82268 0.9837 0.0
C642 C 0.73795 0.94645 0.14079 0.0
C643 C 0.72892 0.96132 0.25755 0.0
C644 C 0.71044 0.03065 0.18368 0.0
C645 C 0.71607 0.01608 0.06708 0.0
N646 N 0.74475 0.96449 0.93303 0.0
N647 N 0.67627 1.00701 0.35288 0.0
C648 C 0.73113 0.97439 0.04397 0.0
C649 C 0.70698 1.00071 0.27104 0.0
N650 N 0.75305 0.9061 0.12411 0.0
N651 N 0.70346 0.07267 0.20917 0.0
H652 H 0.65584 0.03322 0.3509 0.0
H653 H 0.66732 0.98423 0.41161 0.0
H654 H 0.70528 0.09577 0.14465 0.0
H655 H 0.69991 0.08411 0.29612 0.0
H656 H 0.75883 0.89207 0.0415 0.0
H657 H 0.75715 0.88559 0.19471 0.0
H658 H 0.75957 0.93603 0.90933 0.0
H659 H 0.74531 0.98759 0.86835 0.0
C660 C 0.59864 0.65778 0.16451 0.0
C661 C 0.60145 0.70131 0.14393 0.0
C662 C 0.55389 0.69464 0.97923 0.0
C663 C 0.5349 0.66027 0.03939 0.0
N664 N 0.5448 0.60386 0.18326 0.0
N665 N 0.61871 0.73636 0.96499 0.0
C666 C 0.56001 0.63812 0.12588 0.0
C667 C 0.59332 0.70967 0.02434 0.0
N668 N 0.62657 0.63983 0.24134 0.0
N669 N 0.53267 0.71559 0.89216 0.0
H670 H 0.64595 0.74917 1.00586 0.0
H671 H 0.6135 0.74315 0.87593 0.0
H672 H 0.5033 0.70532 0.85847 0.0
H673 H 0.54407 0.74361 0.85712 0.0
H674 H 0.62508 0.60815 0.26445 0.0
H675 H 0.65213 0.65732 0.27673 0.0
H676 H 0.51611 0.58915 0.16209 0.0
H677 H 0.55983 0.59156 0.25774 0.0
C678 C 0.7467 0.63275 0.92013 0.0
C679 C 0.75866 0.6431 0.03841 0.0
C680 C 0.82736 0.61328 1.0071 0.0
C681 C 0.80902 0.5865 0.91747 0.0
N682 N 0.75866 0.58241 0.75583 0.0
N683 N 0.81921 0.68057 0.1157 0.0
C684 C 0.7715 0.60107 0.85987 0.0
C685 C 0.80268 0.648 0.04947 0.0
N686 N 0.7115 0.65102 0.87188 0.0
N687 N 0.86333 0.60213 0.06583 0.0
H688 H 0.79939 0.70357 0.15438 0.0
H689 H 0.8519 0.68555 0.12207 0.0
H690 H 0.88255 0.57663 0.04008 0.0
H691 H 0.871 0.61737 0.14558 0.0
H692 H 0.70134 0.6454 0.78472 0.0
H693 H 0.69391 0.67335 0.92093 0.0
H694 H 0.73016 0.58997 0.71358 0.0
H695 H 0.77731 0.5592 0.71375 0.0
C696 C 0.05187 0.20279 0.91167 0.0
C697 C 0.02505 0.21708 1.00875 0.0
C698 C 0.976 0.15722 0.94427 0.0
C699 C 1.00482 0.14008 0.85757 0.0
N700 N 0.0678 0.15217 0.74821 0.0
N701 N 0.96337 0.20034 0.12228 0.0
C702 C 0.04184 0.16504 0.83822 0.0
C703 C 0.98751 0.19234 0.02486 0.0
N704 N 0.08845 0.22468 0.892 0.0
N705 N 0.9359 0.14118 0.94719 0.0
H706 H 0.96908 0.22573 0.18042 0.0
H707 H 0.93968 0.17994 0.14997 0.0
H708 H 0.92612 0.11551 0.89425 0.0
H709 H 0.91129 0.15625 0.99262 0.0
H710 H 0.11289 0.21427 0.83756 0.0
H711 H 0.09523 0.25393 0.93246 0.0
H712 H 0.09508 0.16754 0.72198 0.0
H713 H 0.06179 0.12462 0.69832 0.0
C714 C 0.32899 0.953 0.96685 0.0
C715 C 0.31277 0.99011 0.0268 0.0
C716 C 0.36095 0.0315 0.89916 0.0
C717 C 0.384 0.99412 0.86343 0.0
N718 N 0.38131 0.91753 0.846 0.0
N719 N 0.31295 0.06665 0.03898 0.0
C720 C 0.36514 0.95463 0.89161 0.0
C721 C 0.32798 0.02998 0.98765 0.0
N722 N 0.3099 0.91472 0.97817 0.0
N723 N 0.37008 0.06863 0.84652 0.0
H724 H 0.29225 0.06732 0.10991 0.0
H725 H 0.32315 0.09678 1.01743 0.0
H726 H 0.39612 0.0711 0.79198 0.0
H727 H 0.35135 0.09589 0.85302 0.0
H728 H 0.28134 0.9106 0.022 0.0
H729 H 0.28134 0.9106 0.022 0.0
H730 H 0.36863 0.88786 0.8642 0.0
H731 H 0.4085 0.91611 0.79515 0.0
C732 C 0.45604 0.33017 0.0981 0.0
C733 C 0.47583 0.29247 0.05527 0.0
C734 C 0.48144 0.32797 0.85952 0.0
C735 C 0.4679 0.36807 0.90826 0.0
N736 N 0.45879 0.40618 0.09488 0.0
N737 N 0.51687 0.26072 0.89742 0.0
C738 C 0.45889 0.3687 0.03292 0.0
C739 C 0.49105 0.29287 0.93625 0.0
N740 N 0.43661 0.33025 0.20542 0.0
N741 N 0.48457 0.32265 0.73966 0.0
H742 H 0.52379 0.23428 0.94835 0.0
H743 H 0.53331 0.26183 0.81797 0.0
H744 H 0.47576 0.34625 0.68086 0.0
H745 H 0.49117 0.29331 0.69903 0.0
H746 H 0.41885 0.35605 0.23714 0.0
H747 H 0.43489 0.30311 0.25633 0.0
H748 H 0.45703 0.40842 0.18706 0.0
H749 H 0.46576 0.43452 0.05536 0.0
C750 C 0.19506 0.53582 0.88493 0.0
C751 C 0.20481 0.50464 0.9713 0.0
C752 C 0.13816 0.47053 0.8923 0.0
C753 C 0.1216 0.50948 0.84462 0.0
N754 N 0.13931 0.58463 0.83493 0.0
N755 N 0.17945 0.43914 0.05229 0.0
C756 C 0.15167 0.54365 0.85015 0.0
C757 C 0.17454 0.47091 0.97373 0.0
N758 N 0.22684 0.5599 0.84134 0.0
N759 N 0.1226 0.4326 0.85221 0.0
H760 H 0.20405 0.43835 0.1145 0.0
H761 H 0.15726 0.41493 0.05931 0.0
H762 H 0.1004 0.43027 0.78336 0.0
H763 H 0.13639 0.4038 0.87598 0.0
H764 H 0.22127 0.58191 0.77514 0.0
H765 H 0.25866 0.55448 0.86437 0.0
H766 H 0.16083 0.60975 0.84109 0.0
H767 H 0.10777 0.59417 0.8403 0.0
C768 C 0.96554 0.85512 0.4259 0.0
C769 C 1.00433 0.83729 0.37907 0.0
C770 C 0.04143 0.8989 0.47771 0.0
C771 C 1.00418 0.91612 0.53246 0.0
N772 N 0.93152 0.90115 0.57803 0.0
N773 N 0.07969 0.83542 0.41975 0.0
C774 C 0.96638 0.89118 0.51261 0.0
C775 C 0.04214 0.85714 0.42438 0.0
N776 N 0.92786 0.83826 0.38752 0.0
N777 N 0.07698 0.92312 0.47227 0.0
H778 H 0.08112 0.80393 0.39023 0.0
H779 H 0.10774 0.84677 0.45915 0.0
H780 H 0.07702 0.95469 0.50014 0.0
H781 H 0.10426 0.91338 0.42759 0.0
H782 H 0.89836 0.85007 0.41325 0.0
H783 H 0.92634 0.81357 0.32456 0.0
H784 H 0.90424 0.88253 0.57787 0.0
H785 H 0.93121 0.9272 0.63704 0.0
C786 C 0.68673 0.9742 0.68594 0.0
C787 C 0.70816 1.00378 0.61319 0.0
C788 C 0.63956 0.04437 0.60609 0.0
C789 C 0.61739 0.013 0.67257 0.0
N790 N 0.63073 0.96306 0.82588 0.0
N791 N 0.70644 0.07627 0.54972 0.0
C792 C 0.64416 0.98215 0.72686 0.0
C793 C 0.6852 0.04193 0.58945 0.0
N794 N 0.70715 0.93759 0.71591 0.0
N795 N 0.61748 0.07691 0.55587 0.0
H796 H 0.73888 0.07624 0.53638 0.0
H797 H 0.69286 0.10637 0.54364 0.0
H798 H 0.58587 0.08396 0.57242 0.0
H799 H 0.63012 0.09596 0.49104 0.0
H800 H 0.6926 0.91312 0.76032 0.0
H801 H 0.7391 0.932 0.69684 0.0
H802 H 0.65012 0.94388 0.87795 0.0
H803 H 0.6022 0.97172 0.86417 0.0
C804 C 0.46721 0.66862 0.43486 0.0
C805 C 0.50099 0.69578 0.47249 0.0
C806 C 0.5162 0.64471 0.63275 0.0
C807 C 0.48655 0.61454 0.58399 0.0
N808 N 0.43188 0.60248 0.43315 0.0
N809 N 0.55704 0.71016 0.61318 0.0
C810 C 0.46181 0.62788 0.48441 0.0
C811 C 0.52531 0.68368 0.57355 0.0
N812 N 0.43933 0.68038 0.34866 0.0
N813 N 0.5347 0.63667 0.73891 0.0
H814 H 0.5616 0.74007 0.5776 0.0
H815 H 0.57916 0.70291 0.67894 0.0
H816 H 0.51955 0.61748 0.79847 0.0
H817 H 0.56237 0.65086 0.77109 0.0
H818 H 0.43937 0.71036 0.31141 0.0
H819 H 0.43937 0.71036 0.31141 0.0
H820 H 0.4257 0.57207 0.46175 0.0
H821 H 0.4257 0.57207 0.46175 0.0
C822 C 0.81533 0.50876 0.36086 0.0
C823 C 0.78943 0.54586 0.37384 0.0
C824 C 0.84366 0.57282 0.52412 0.0
C825 C 0.86953 0.53523 0.51349 0.0
N826 N 0.87129 0.46302 0.43642 0.0
N827 N 0.77509 0.60816 0.49338 0.0
C828 C 0.8524 0.50193 0.43712 0.0
C829 C 0.80268 0.57609 0.4637 0.0
N830 N 0.80615 0.48055 0.27064 0.0
N831 N 0.85797 0.6061 0.59294 0.0
H832 H 0.74466 0.61032 0.45583 0.0
H833 H 0.78024 0.62998 0.56271 0.0
H834 H 0.88461 0.60405 0.64763 0.0
H835 H 0.84484 0.63647 0.59124 0.0
H836 H 0.82676 0.45635 0.24346 0.0
H837 H 0.77894 0.48305 0.21784 0.0
H838 H 0.85777 0.43602 0.39666 0.0
H839 H 0.89921 0.45716 0.48239 0.0
loop_
_geom_bond_atom_site_label_1
_geom_bond_atom_site_label_2
_geom_bond_distance
_geom_bond_site_symmetry_2
_ccdc_geom_bond_type
H0 C3 0.931 . S
H1 C6 0.928 . S
H2 C8 0.930 . S
C3 H0 0.931 . S
C3 C4 1.413 . S
C3 C5 1.360 . S
C4 C3 1.413 . S
C4 C8 1.429 . S
C5 C3 1.360 . S
C5 C6 1.372 . S
C6 H1 0.928 . S
C6 C5 1.372 . S
C6 C7 1.404 . S
C7 C6 1.404 . S
C7 C8 1.391 . S
C8 H2 0.930 . S
C8 C4 1.429 . S
C8 C7 1.391 . S
H9 C12 0.931 . S
H10 C15 0.928 . S
H11 C17 0.930 . S
C12 H9 0.931 . S
C12 C13 1.413 . S
C12 C14 1.360 . S
C13 C12 1.413 . S
C13 C17 1.429 . S
C14 C12 1.360 . S
C14 C15 1.372 . S
C15 H10 0.928 . S
C15 C14 1.372 . S
C15 C16 1.404 . S
C16 C15 1.404 . S
C16 C17 1.391 . S
C17 H11 0.930 . S
C17 C13 1.429 . S
C17 C16 1.391 . S
H18 C21 0.931 . S
H19 C24 0.928 . S
H20 C26 0.930 . S
C21 H18 0.931 . S
C21 C22 1.413 . S
C21 C23 1.360 . S
C22 C21 1.413 . S
C22 C26 1.429 . S
C23 C21 1.360 . S
C23 C24 1.372 . S
C24 H19 0.928 . S
C24 C23 1.372 . S
C24 C25 1.404 . S
C25 C24 1.404 . S
C25 C26 1.391 . S
C26 H20 0.930 . S
C26 C22 1.429 . S
C26 C25 1.391 . S
H27 C30 0.931 . S
H28 C33 0.928 . S
H29 C35 0.930 . S
C30 H27 0.931 . S
C30 C31 1.413 . S
C30 C32 1.360 . S
C31 C30 1.413 . S
C31 C35 1.429 . S
C32 C30 1.360 . S
C32 C33 1.372 . S
C33 H28 0.928 . S
C33 C32 1.372 . S
C33 C34 1.404 . S
C34 C33 1.404 . S
C34 C35 1.391 . S
C35 H29 0.930 . S
C35 C31 1.429 . S
C35 C34 1.391 . S
H36 C39 0.931 . S
H37 C42 0.928 . S
H38 C44 0.930 . S
C39 H36 0.931 . S
C39 C40 1.413 . S
C39 C41 1.360 1_556 S
C40 C39 1.413 . S
C40 C44 1.429 . S
C41 C39 1.360 1_554 S
C41 C42 1.372 . S
C42 H37 0.928 . S
C42 C41 1.372 . S
C42 C43 1.404 . S
C43 C42 1.404 . S
C43 C44 1.391 1_554 S
C44 H38 0.930 . S
C44 C40 1.429 . S
C44 C43 1.391 1_556 S
H45 C48 0.931 . S
H46 C51 0.928 . S
H47 C53 0.930 . S
C48 H45 0.931 . S
C48 C49 1.413 . S
C48 C50 1.360 1_556 S
C49 C48 1.413 . S
C49 C53 1.429 . S
C50 C48 1.360 1_554 S
C50 C51 1.372 . S
C51 H46 0.928 . S
C51 C50 1.372 . S
C51 C52 1.404 . S
C52 C51 1.404 . S
C52 C53 1.391 1_554 S
C53 H47 0.930 . S
C53 C49 1.429 . S
C53 C52 1.391 1_556 S
H54 C57 0.931 . S
H55 C60 0.928 . S
H56 C62 0.930 . S
C57 H54 0.931 . S
C57 C58 1.413 . S
C57 C59 1.360 1_556 S
C58 C57 1.413 . S
C58 C62 1.429 . S
C59 C57 1.360 1_554 S
C59 C60 1.372 . S
C60 H55 0.928 . S
C60 C59 1.372 . S
C60 C61 1.404 . S
C61 C60 1.404 . S
C61 C62 1.391 1_554 S
C62 H56 0.930 . S
C62 C58 1.429 . S
C62 C61 1.391 1_556 S
H63 C66 0.931 . S
H64 C69 0.928 . S
H65 C71 0.930 . S
C66 H63 0.931 . S
C66 C67 1.413 1_556 S
C66 C68 1.360 . S
C67 C66 1.413 1_554 S
C67 C71 1.429 . S
C68 C66 1.360 . S
C68 C69 1.372 . S
C69 H64 0.928 . S
C69 C68 1.372 . S
C69 C70 1.404 1_556 S
C70 C69 1.404 1_554 S
C70 C71 1.391 . S
C71 H65 0.930 . S
C71 C67 1.429 . S
C71 C70 1.391 . S
Tb72 N103 2.660 1_565 S
Tb72 N110 2.599 . S
Tb72 O116 2.546 . S
Tb72 O117 2.610 1_455 S
Tb72 O119 2.320 1_455 S
Tb72 O120 2.552 . S
Tb72 O121 2.413 . S
Tb72 O123 2.362 1_565 S
Tb72 O124 2.421 . S
Tb72 C136 2.833 . S
C73 C76 1.432 . S
C73 C77 1.414 . S
C73 N80 1.359 1_565 S
C74 C76 1.417 . S
C74 C78 1.432 . S
C74 C86 1.410 . S
C75 C77 1.444 . S
C75 C78 1.317 . S
C75 H98 0.929 . S
C76 C73 1.432 . S
C76 C74 1.417 . S
C76 N84 1.360 . S
C77 C73 1.414 . S
C77 C75 1.444 . S
C77 C82 1.378 1_565 S
C78 C74 1.432 . S
C78 C75 1.317 . S
C78 H90 0.930 . S
C79 C81 1.392 . S
C79 C82 1.379 . S
C79 H91 0.931 . S
N80 C73 1.359 1_545 S
N80 C81 1.327 . S
N80 Tb83 2.600 . S
C81 C79 1.392 . S
C81 N80 1.327 . S
C81 H88 0.930 . S
C82 C77 1.378 1_545 S
C82 C79 1.379 . S
C82 H101 0.927 1_545 S
Tb83 N80 2.600 . S
Tb83 N84 2.660 1_545 S
Tb83 O117 2.362 1_545 S
Tb83 O118 2.421 . S
Tb83 O122 2.546 . S
Tb83 O123 2.610 1_655 S
Tb83 O125 2.320 1_655 S
Tb83 O126 2.552 . S
Tb83 O127 2.413 . S
Tb83 C147 2.833 . S
N84 C76 1.360 . S
N84 Tb83 2.660 1_565 S
N84 C85 1.305 . S
C85 N84 1.305 . S
C85 C87 1.407 . S
C85 H92 0.930 1_655 S
C86 C74 1.410 . S
C86 C87 1.345 . S
C86 H94 0.930 . S
C87 C85 1.407 . S
C87 C86 1.345 . S
C87 H89 0.930 1_655 S
H88 C81 0.930 . S
H89 C87 0.930 1_455 S
H90 C78 0.930 . S
H91 C79 0.931 . S
H92 C85 0.930 1_455 S
H93 C107 0.930 . S
H94 C86 0.930 . S
H95 C113 0.930 . S
H96 C104 0.930 1_655 S
H97 C111 0.931 . S
H98 C75 0.929 . S
H99 C105 0.930 . S
H100 C138 0.930 . S
H101 C82 0.927 1_565 S
H102 C137 0.929 . S
N103 Tb72 2.660 1_545 S
N103 C104 1.305 1_556 S
N103 C108 1.360 1_556 S
C104 H96 0.930 1_455 S
C104 N103 1.305 1_554 S
C104 C107 1.407 . S
C105 H99 0.930 . S
C105 C106 1.410 . S
C105 C107 1.345 . S
C106 C105 1.410 . S
C106 C108 1.417 . S
C106 C138 1.432 . S
C107 H93 0.930 . S
C107 C104 1.407 . S
C107 C105 1.345 . S
C108 N103 1.360 1_554 S
C108 C106 1.417 . S
C108 C112 1.432 1_554 S
H109 C114 0.930 . S
N110 Tb72 2.599 . S
N110 C112 1.360 1_565 S
N110 C113 1.326 . S
C111 H97 0.931 . S
C111 C113 1.392 . S
C111 C114 1.370 1_565 S
C112 C108 1.432 1_556 S
C112 N110 1.360 1_545 S
C112 C115 1.414 . S
C113 H95 0.930 . S
C113 N110 1.326 . S
C113 C111 1.392 . S
C114 H109 0.930 . S
C114 C111 1.370 1_545 S
C114 C115 1.385 . S
C115 C112 1.414 . S
C115 C114 1.385 . S
C115 C137 1.444 1_556 S
O116 Tb72 2.546 . S
O116 C136 1.251 . S
O117 Tb72 2.610 1_655 S
O117 Tb83 2.362 1_565 S
O117 C128 1.283 . S
O118 Tb83 2.421 . S
O118 C135 1.270 . S
O119 Tb72 2.320 1_655 S
O119 C135 1.257 1_565 S
O120 Tb72 2.552 . S
O120 C128 1.243 1_455 S
O121 Tb72 2.413 . S
O121 C136 1.256 . S
O122 Tb83 2.546 . S
O122 C147 1.251 . S
O123 Tb72 2.362 1_545 S
O123 Tb83 2.610 1_455 S
O123 C139 1.283 . S
O124 Tb72 2.421 . S
O124 C146 1.262 1_565 S
O125 Tb83 2.320 1_455 S
O125 C146 1.260 . S
O126 Tb83 2.552 . S
O126 C139 1.243 1_655 S
O127 Tb83 2.413 . S
O127 C147 1.256 . S
C128 O117 1.283 . S
C128 O120 1.243 1_655 S
C129 C131 1.382 . S
C129 C133 1.393 . S
C129 C136 1.500 1_554 S
C130 C131 1.400 . S
C130 C132 1.384 . S
C131 C129 1.382 . S
C131 C130 1.400 . S
C131 H148 0.930 . S
C132 C130 1.384 . S
C132 C134 1.392 . S
C132 H149 0.931 . S
C133 C129 1.393 . S
C133 C134 1.401 . S
C133 H150 0.930 1_554 S
C134 C132 1.392 . S
C134 C133 1.401 . S
C134 H151 0.930 . S
C135 O118 1.270 . S
C135 O119 1.257 1_545 S
C136 Tb72 2.833 . S
C136 O116 1.251 . S
C136 O121 1.256 . S
C136 C129 1.500 1_556 S
C137 H102 0.929 . S
C137 C115 1.444 1_554 S
C137 C138 1.317 . S
C138 H100 0.930 . S
C138 C106 1.432 . S
C138 C137 1.317 . S
C139 O123 1.283 . S
C139 O126 1.243 1_455 S
C140 C141 1.382 . S
C140 C144 1.393 . S
C140 C147 1.500 . S
C141 C140 1.382 . S
C141 C142 1.400 . S
C141 H152 0.930 . S
C142 C141 1.400 . S
C142 C143 1.384 . S
C143 C142 1.384 . S
C143 C145 1.392 . S
C143 H153 0.931 . S
C144 C140 1.393 . S
C144 C145 1.401 . S
C144 H154 0.930 . S
C145 C143 1.392 . S
C145 C144 1.401 . S
C145 H155 0.930 . S
C146 O124 1.262 1_545 S
C146 O125 1.260 . S
C147 Tb83 2.833 . S
C147 O122 1.251 . S
C147 O127 1.256 . S
C147 C140 1.500 . S
H148 C131 0.930 . S
H149 C132 0.931 . S
H150 C133 0.930 1_556 S
H151 C134 0.930 . S
H152 C141 0.930 . S
H153 C143 0.931 . S
H154 C144 0.930 . S
H155 C145 0.930 . S
Tb156 N187 2.660 . S
Tb156 N194 2.600 . S
Tb156 O200 2.546 . S
Tb156 O201 2.610 1_545 S
Tb156 O203 2.320 1_545 S
Tb156 O204 2.552 . S
Tb156 O205 2.413 . S
Tb156 O207 2.362 . S
Tb156 O208 2.421 . S
Tb156 C220 2.833 . S
C157 C160 1.432 . S
C157 C161 1.414 . S
C157 N164 1.359 . S
C158 C160 1.417 . S
C158 C162 1.432 . S
C158 C170 1.410 . S
C159 C161 1.444 . S
C159 C162 1.317 . S
C159 H182 0.929 . S
C160 C157 1.432 . S
C160 C158 1.417 . S
C160 N168 1.360 . S
C161 C157 1.414 . S
C161 C159 1.444 . S
C161 C166 1.385 . S
C162 C158 1.432 . S
C162 C159 1.317 . S
C162 H174 0.930 . S
C163 C165 1.392 . S
C163 C166 1.370 . S
C163 H175 0.931 . S
N164 C157 1.359 . S
N164 C165 1.327 . S
N164 Tb167 2.600 . S
C165 C163 1.392 . S
C165 N164 1.327 . S
C165 H172 0.930 . S
C166 C161 1.385 . S
C166 C163 1.370 . S
C166 H185 0.930 . S
Tb167 N164 2.600 . S
Tb167 N168 2.660 . S
Tb167 O201 2.362 . S
Tb167 O202 2.421 . S
Tb167 O206 2.546 . S
Tb167 O207 2.610 1_565 S
Tb167 O209 2.320 1_565 S
Tb167 O210 2.552 . S
Tb167 O211 2.413 . S
Tb167 C231 2.833 . S
N168 C160 1.360 . S
N168 Tb167 2.660 . S
N168 C169 1.305 . S
C169 N168 1.305 . S
C169 C171 1.407 . S
C169 H176 0.930 1_565 S
C170 C158 1.410 . S
C170 C171 1.345 . S
C170 H178 0.930 . S
C171 C169 1.407 . S
C171 C170 1.345 . S
C171 H173 0.930 1_565 S
H172 C165 0.930 . S
H173 C171 0.930 1_545 S
H174 C162 0.930 . S
H175 C163 0.931 . S
H176 C169 0.930 1_545 S
H177 C191 0.930 . S
H178 C170 0.930 . S
H179 C197 0.930 . S
H180 C188 0.930 1_565 S
H181 C195 0.931 . S
H182 C159 0.929 . S
H183 C189 0.930 . S
H184 C222 0.930 . S
H185 C166 0.930 . S
H186 C221 0.929 . S
N187 Tb156 2.660 . S
N187 C188 1.305 1_556 S
N187 C192 1.360 1_556 S
C188 H180 0.930 1_545 S
C188 N187 1.305 1_554 S
C188 C191 1.407 . S
C189 H183 0.930 . S
C189 C190 1.410 . S
C189 C191 1.345 . S
C190 C189 1.410 . S
C190 C192 1.417 . S
C190 C222 1.432 . S
C191 H177 0.930 . S
C191 C188 1.407 . S
C191 C189 1.345 . S
C192 N187 1.360 1_554 S
C192 C190 1.417 . S
C192 C196 1.432 1_554 S
H193 C198 0.930 . S
N194 Tb156 2.600 . S
N194 C196 1.359 . S
N194 C197 1.327 . S
C195 H181 0.931 . S
C195 C197 1.392 . S
C195 C198 1.370 . S
C196 C192 1.432 1_556 S
C196 N194 1.359 . S
C196 C199 1.414 . S
C197 H179 0.930 . S
C197 N194 1.327 . S
C197 C195 1.392 . S
C198 H193 0.930 . S
C198 C195 1.370 . S
C198 C199 1.385 . S
C199 C196 1.414 . S
C199 C198 1.385 . S
C199 C221 1.444 1_556 S
O200 Tb156 2.546 . S
O200 C220 1.251 . S
O201 Tb156 2.610 1_565 S
O201 Tb167 2.362 . S
O201 C212 1.283 . S
O202 Tb167 2.421 . S
O202 C219 1.262 . S
O203 Tb156 2.320 1_565 S
O203 C219 1.260 . S
O204 Tb156 2.552 . S
O204 C212 1.243 1_545 S
O205 Tb156 2.413 . S
O205 C220 1.256 . S
O206 Tb167 2.546 . S
O206 C231 1.251 . S
O207 Tb156 2.362 . S
O207 Tb167 2.610 1_545 S
O207 C223 1.283 . S
O208 Tb156 2.421 . S
O208 C230 1.262 . S
O209 Tb167 2.320 1_545 S
O209 C230 1.260 . S
O210 Tb167 2.552 . S
O210 C223 1.243 1_565 S
O211 Tb167 2.413 . S
O211 C231 1.256 . S
C212 O201 1.283 . S
C212 O204 1.243 1_565 S
C213 C215 1.382 . S
C213 C217 1.393 . S
C213 C220 1.500 1_554 S
C214 C215 1.400 . S
C214 C216 1.384 . S
C215 C213 1.382 . S
C215 C214 1.400 . S
C215 H232 0.930 . S
C216 C214 1.384 . S
C216 C218 1.392 . S
C216 H233 0.931 . S
C217 C213 1.393 . S
C217 C218 1.401 . S
C217 H234 0.930 1_554 S
C218 C216 1.392 . S
C218 C217 1.401 . S
C218 H235 0.930 . S
C219 O202 1.262 . S
C219 O203 1.260 . S
C220 Tb156 2.833 . S
C220 O200 1.251 . S
C220 O205 1.256 . S
C220 C213 1.500 1_556 S
C221 H186 0.929 . S
C221 C199 1.444 1_554 S
C221 C222 1.317 . S
C222 H184 0.930 . S
C222 C190 1.432 . S
C222 C221 1.317 . S
C223 O207 1.283 . S
C223 O210 1.243 1_545 S
C224 C225 1.382 . S
C224 C228 1.393 . S
C224 C231 1.500 . S
C225 C224 1.382 . S
C225 C226 1.400 . S
C225 H236 0.930 . S
C226 C225 1.400 . S
C226 C227 1.384 . S
C227 C226 1.384 . S
C227 C229 1.392 . S
C227 H237 0.931 . S
C228 C224 1.393 . S
C228 C229 1.401 . S
C228 H238 0.930 . S
C229 C227 1.392 . S
C229 C228 1.401 . S
C229 H239 0.930 . S
C230 O208 1.262 . S
C230 O209 1.260 . S
C231 Tb167 2.833 . S
C231 O206 1.251 . S
C231 O211 1.256 . S
C231 C224 1.500 . S
H232 C215 0.930 . S
H233 C216 0.931 . S
H234 C217 0.930 1_556 S
H235 C218 0.930 . S
H236 C225 0.930 . S
H237 C227 0.931 . S
H238 C228 0.930 . S
H239 C229 0.930 . S
Tb240 N271 2.660 . S
Tb240 N278 2.600 . S
Tb240 O284 2.546 . S
Tb240 O285 2.610 . S
Tb240 O287 2.320 . S
Tb240 O288 2.552 . S
Tb240 O289 2.413 . S
Tb240 O291 2.362 . S
Tb240 O292 2.421 . S
Tb240 C304 2.833 . S
C241 C244 1.432 . S
C241 C245 1.414 . S
C241 N248 1.359 . S
C242 C244 1.417 . S
C242 C246 1.432 . S
C242 C254 1.410 . S
C243 C245 1.444 . S
C243 C246 1.317 . S
C243 H266 0.929 . S
C244 C241 1.432 . S
C244 C242 1.417 . S
C244 N252 1.360 . S
C245 C241 1.414 . S
C245 C243 1.444 . S
C245 C250 1.385 . S
C246 C242 1.432 . S
C246 C243 1.317 . S
C246 H258 0.930 . S
C247 C249 1.392 . S
C247 C250 1.370 . S
C247 H259 0.931 1_556 S
N248 C241 1.359 . S
N248 C249 1.327 . S
N248 Tb251 2.600 . S
C249 C247 1.392 . S
C249 N248 1.327 . S
C249 H256 0.930 . S
C250 C245 1.385 . S
C250 C247 1.370 . S
C250 H269 0.930 . S
Tb251 N248 2.600 . S
Tb251 N252 2.660 . S
Tb251 O285 2.362 . S
Tb251 O286 2.421 . S
Tb251 O290 2.546 1_556 S
Tb251 O291 2.610 . S
Tb251 O293 2.320 . S
Tb251 O294 2.552 . S
Tb251 O295 2.413 . S
Tb251 C315 2.833 1_556 S
N252 C244 1.360 . S
N252 Tb251 2.660 . S
N252 C253 1.305 . S
C253 N252 1.305 . S
C253 C255 1.407 . S
C253 H260 0.930 . S
C254 C242 1.410 . S
C254 C255 1.345 . S
C254 H262 0.930 . S
C255 C253 1.407 . S
C255 C254 1.345 . S
C255 H257 0.930 . S
H256 C249 0.930 . S
H257 C255 0.930 . S
H258 C246 0.930 . S
H259 C247 0.931 1_554 S
H260 C253 0.930 . S
H261 C275 0.930 . S
H262 C254 0.930 . S
H263 C281 0.930 . S
H264 C272 0.930 . S
H265 C279 0.931 . S
H266 C243 0.929 . S
H267 C273 0.930 . S
H268 C306 0.930 . S
H269 C250 0.930 . S
H270 C305 0.929 . S
N271 Tb240 2.660 . S
N271 C272 1.305 . S
N271 C276 1.360 . S
C272 H264 0.930 . S
C272 N271 1.305 . S
C272 C275 1.407 . S
C273 H267 0.930 . S
C273 C274 1.410 . S
C273 C275 1.345 . S
C274 C273 1.410 . S
C274 C276 1.417 . S
C274 C306 1.432 . S
C275 H261 0.930 . S
C275 C272 1.407 . S
C275 C273 1.345 . S
C276 N271 1.360 . S
C276 C274 1.417 . S
C276 C280 1.432 . S
H277 C282 0.930 . S
N278 Tb240 2.600 . S
N278 C280 1.359 . S
N278 C281 1.327 . S
C279 H265 0.931 . S
C279 C281 1.392 . S
C279 C282 1.370 . S
C280 C276 1.432 . S
C280 N278 1.359 . S
C280 C283 1.414 . S
C281 H263 0.930 . S
C281 N278 1.327 . S
C281 C279 1.392 . S
C282 H277 0.930 . S
C282 C279 1.370 . S
C282 C283 1.385 . S
C283 C280 1.414 . S
C283 C282 1.385 . S
C283 C305 1.444 . S
O284 Tb240 2.546 . S
O284 C304 1.251 . S
O285 Tb240 2.610 . S
O285 Tb251 2.362 . S
O285 C296 1.283 . S
O286 Tb251 2.421 . S
O286 C303 1.262 . S
O287 Tb240 2.320 . S
O287 C303 1.260 . S
O288 Tb240 2.552 . S
O288 C296 1.243 . S
O289 Tb240 2.413 . S
O289 C304 1.256 . S
O290 Tb251 2.546 1_554 S
O290 C315 1.251 . S
O291 Tb240 2.362 . S
O291 Tb251 2.610 . S
O291 C307 1.283 . S
O292 Tb240 2.421 . S
O292 C314 1.262 . S
O293 Tb251 2.320 . S
O293 C314 1.260 . S
O294 Tb251 2.552 . S
O294 C307 1.243 . S
O295 Tb251 2.413 . S
O295 C315 1.256 1_556 S
C296 O285 1.283 . S
C296 O288 1.243 . S
C297 C299 1.382 . S
C297 C301 1.393 . S
C297 C304 1.500 . S
C298 C299 1.400 . S
C298 C300 1.384 . S
C299 C297 1.382 . S
C299 C298 1.400 . S
C299 H316 0.930 . S
C300 C298 1.384 . S
C300 C302 1.392 . S
C300 H317 0.931 . S
C301 C297 1.393 . S
C301 C302 1.401 . S
C301 H318 0.930 . S
C302 C300 1.392 . S
C302 C301 1.401 . S
C302 H319 0.930 . S
C303 O286 1.262 . S
C303 O287 1.260 . S
C304 Tb240 2.833 . S
C304 O284 1.251 . S
C304 O289 1.256 . S
C304 C297 1.500 . S
C305 H270 0.929 . S
C305 C283 1.444 . S
C305 C306 1.317 . S
C306 H268 0.930 . S
C306 C274 1.432 . S
C306 C305 1.317 . S
C307 O291 1.283 . S
C307 O294 1.243 . S
C308 C309 1.382 . S
C308 C312 1.393 . S
C308 C315 1.500 . S
C309 C308 1.382 . S
C309 C310 1.400 . S
C309 H320 0.930 . S
C310 C309 1.400 . S
C310 C311 1.384 . S
C311 C310 1.384 . S
C311 C313 1.392 . S
C311 H321 0.931 . S
C312 C308 1.393 . S
C312 C313 1.401 . S
C312 H322 0.930 . S
C313 C311 1.392 . S
C313 C312 1.401 . S
C313 H323 0.930 . S
C314 O292 1.262 . S
C314 O293 1.260 . S
C315 Tb251 2.833 1_554 S
C315 O290 1.251 . S
C315 O295 1.256 1_554 S
C315 C308 1.500 . S
H316 C299 0.930 . S
H317 C300 0.931 . S
H318 C301 0.930 . S
H319 C302 0.930 . S
H320 C309 0.930 . S
H321 C311 0.931 . S
H322 C312 0.930 . S
H323 C313 0.930 . S
Tb324 N355 2.660 . S
Tb324 N362 2.600 . S
Tb324 O368 2.546 . S
Tb324 O369 2.610 . S
Tb324 O371 2.320 . S
Tb324 O372 2.552 . S
Tb324 O373 2.413 . S
Tb324 O375 2.362 1_455 S
Tb324 O376 2.421 1_455 S
Tb324 C388 2.833 . S
C325 C328 1.432 . S
C325 C329 1.414 . S
C325 N332 1.359 . S
C326 C328 1.417 . S
C326 C330 1.432 . S
C326 C338 1.410 . S
C327 C329 1.444 . S
C327 C330 1.317 . S
C327 H350 0.929 . S
C328 C325 1.432 . S
C328 C326 1.417 . S
C328 N336 1.360 . S
C329 C325 1.414 . S
C329 C327 1.444 . S
C329 C334 1.385 1_655 S
C330 C326 1.432 . S
C330 C327 1.317 . S
C330 H342 0.930 . S
C331 C333 1.392 . S
C331 C334 1.370 . S
C331 H343 0.931 1_556 S
N332 C325 1.359 . S
N332 C333 1.327 1_655 S
N332 Tb335 2.600 . S
C333 C331 1.392 . S
C333 N332 1.327 1_455 S
C333 H340 0.930 . S
C334 C329 1.385 1_455 S
C334 C331 1.370 . S
C334 H353 0.930 . S
Tb335 N332 2.600 . S
Tb335 N336 2.660 . S
Tb335 O369 2.362 1_655 S
Tb335 O370 2.421 1_655 S
Tb335 O374 2.546 1_556 S
Tb335 O375 2.610 . S
Tb335 O377 2.320 . S
Tb335 O378 2.552 . S
Tb335 O379 2.413 . S
Tb335 C399 2.833 1_556 S
N336 C328 1.360 . S
N336 Tb335 2.660 . S
N336 C337 1.305 . S
C337 N336 1.305 . S
C337 C339 1.407 . S
C337 H344 0.930 . S
C338 C326 1.410 . S
C338 C339 1.345 . S
C338 H346 0.930 . S
C339 C337 1.407 . S
C339 C338 1.345 . S
C339 H341 0.930 . S
H340 C333 0.930 . S
H341 C339 0.930 . S
H342 C330 0.930 . S
H343 C331 0.931 1_554 S
H344 C337 0.930 . S
H345 C359 0.930 . S
H346 C338 0.930 . S
H347 C365 0.930 . S
H348 C356 0.930 . S
H349 C363 0.931 . S
H350 C327 0.929 . S
H351 C357 0.930 . S
H352 C390 0.930 . S
H353 C334 0.930 . S
H354 C389 0.929 . S
N355 Tb324 2.660 . S
N355 C356 1.305 . S
N355 C360 1.360 . S
C356 H348 0.930 . S
C356 N355 1.305 . S
C356 C359 1.407 . S
C357 H351 0.930 . S
C357 C358 1.410 . S
C357 C359 1.345 . S
C358 C357 1.410 . S
C358 C360 1.417 . S
C358 C390 1.432 . S
C359 H345 0.930 . S
C359 C356 1.407 . S
C359 C357 1.345 . S
C360 N355 1.360 . S
C360 C358 1.417 . S
C360 C364 1.432 . S
H361 C366 0.930 . S
N362 Tb324 2.600 . S
N362 C364 1.359 . S
N362 C365 1.327 1_455 S
C363 H349 0.931 . S
C363 C365 1.392 . S
C363 C366 1.370 . S
C364 C360 1.432 . S
C364 N362 1.359 . S
C364 C367 1.414 . S
C365 H347 0.930 . S
C365 N362 1.327 1_655 S
C365 C363 1.392 . S
C366 H361 0.930 . S
C366 C363 1.370 . S
C366 C367 1.385 1_655 S
C367 C364 1.414 . S
C367 C366 1.385 1_455 S
C367 C389 1.444 . S
O368 Tb324 2.546 . S
O368 C388 1.251 . S
O369 Tb324 2.610 . S
O369 Tb335 2.362 1_455 S
O369 C380 1.283 . S
O370 Tb335 2.421 1_455 S
O370 C387 1.262 . S
O371 Tb324 2.320 . S
O371 C387 1.260 . S
O372 Tb324 2.552 . S
O372 C380 1.243 . S
O373 Tb324 2.413 . S
O373 C388 1.256 . S
O374 Tb335 2.546 1_554 S
O374 C399 1.251 . S
O375 Tb324 2.362 1_655 S
O375 Tb335 2.610 . S
O375 C391 1.283 . S
O376 Tb324 2.421 1_655 S
O376 C398 1.262 . S
O377 Tb335 2.320 . S
O377 C398 1.260 . S
O378 Tb335 2.552 . S
O378 C391 1.243 . S
O379 Tb335 2.413 . S
O379 C399 1.256 1_556 S
C380 O369 1.283 . S
C380 O372 1.243 . S
C381 C383 1.382 . S
C381 C385 1.393 . S
C381 C388 1.500 . S
C382 C383 1.400 . S
C382 C384 1.384 . S
C383 C381 1.382 . S
C383 C382 1.400 . S
C383 H400 0.930 . S
C384 C382 1.384 . S
C384 C386 1.392 . S
C384 H401 0.931 . S
C385 C381 1.393 . S
C385 C386 1.401 . S
C385 H402 0.930 . S
C386 C384 1.392 . S
C386 C385 1.401 . S
C386 H403 0.930 . S
C387 O370 1.262 . S
C387 O371 1.260 . S
C388 Tb324 2.833 . S
C388 O368 1.251 . S
C388 O373 1.256 . S
C388 C381 1.500 . S
C389 H354 0.929 . S
C389 C367 1.444 . S
C389 C390 1.317 . S
C390 H352 0.930 . S
C390 C358 1.432 . S
C390 C389 1.317 . S
C391 O375 1.283 . S
C391 O378 1.243 . S
C392 C393 1.382 . S
C392 C396 1.393 . S
C392 C399 1.500 . S
C393 C392 1.382 . S
C393 C394 1.400 . S
C393 H404 0.930 . S
C394 C393 1.400 . S
C394 C395 1.384 . S
C395 C394 1.384 . S
C395 C397 1.392 . S
C395 H405 0.931 . S
C396 C392 1.393 . S
C396 C397 1.401 . S
C396 H406 0.930 . S
C397 C395 1.392 . S
C397 C396 1.401 . S
C397 H407 0.930 . S
C398 O376 1.262 . S
C398 O377 1.260 . S
C399 Tb335 2.833 1_554 S
C399 O374 1.251 . S
C399 O379 1.256 1_554 S
C399 C392 1.500 . S
H400 C383 0.930 . S
H401 C384 0.931 . S
H402 C385 0.930 . S
H403 C386 0.930 . S
H404 C393 0.930 . S
H405 C395 0.931 . S
H406 C396 0.930 . S
H407 C397 0.930 . S
C408 C409 1.363 . S
C408 C414 1.379 . S
C408 N416 1.356 . S
C409 C408 1.363 . S
C409 C415 1.363 . S
C410 C411 1.363 . S
C410 C415 1.379 . S
C410 N417 1.356 . S
C411 C410 1.363 . S
C411 C414 1.363 . S
N412 C414 1.356 . S
N412 H424 0.984 1_545 S
N412 H425 0.985 . S
N413 C415 1.356 . S
N413 H418 0.984 . S
N413 H419 0.985 . S
C414 C408 1.379 . S
C414 C411 1.363 . S
C414 N412 1.356 . S
C415 C409 1.363 . S
C415 C410 1.379 . S
C415 N413 1.356 . S
N416 C408 1.356 . S
N416 H422 0.984 . S
N416 H423 0.984 . S
N417 C410 1.356 . S
N417 H420 0.984 . S
N417 H421 0.985 . S
H418 N413 0.984 . S
H419 N413 0.985 . S
H420 N417 0.984 . S
H421 N417 0.985 . S
H422 N416 0.984 . S
H423 N416 0.984 . S
H424 N412 0.984 1_565 S
H425 N412 0.985 . S
C426 C427 1.363 . S
C426 C432 1.379 . S
C426 N434 1.356 . S
C427 C426 1.363 . S
C427 C433 1.363 . S
C428 C429 1.363 . S
C428 C433 1.379 . S
C428 N435 1.356 . S
C429 C428 1.363 . S
C429 C432 1.363 . S
N430 C432 1.356 . S
N430 H442 0.984 . S
N430 H443 0.985 . S
N431 C433 1.356 . S
N431 H436 0.984 . S
N431 H437 0.985 . S
C432 C426 1.379 . S
C432 C429 1.363 . S
C432 N430 1.356 . S
C433 C427 1.363 . S
C433 C428 1.379 . S
C433 N431 1.356 . S
N434 C426 1.356 . S
N434 H440 0.984 . S
N434 H441 0.984 . S
N435 C428 1.356 . S
N435 H438 0.984 . S
N435 H439 0.985 . S
H436 N431 0.984 . S
H437 N431 0.985 . S
H438 N435 0.984 . S
H439 N435 0.985 . S
H440 N434 0.984 . S
H441 N434 0.984 . S
H442 N430 0.984 . S
H443 N430 0.985 . S
C444 C445 1.363 . S
C444 C450 1.379 . S
C444 N452 1.356 . S
C445 C444 1.363 . S
C445 C451 1.363 . S
C446 C447 1.363 . S
C446 C451 1.379 . S
C446 N453 1.356 . S
C447 C446 1.363 . S
C447 C450 1.363 . S
N448 C450 1.356 . S
N448 H460 0.984 . S
N448 H461 0.985 . S
N449 C451 1.356 . S
N449 H454 0.984 . S
N449 H455 0.985 . S
C450 C444 1.379 . S
C450 C447 1.363 . S
C450 N448 1.356 . S
C451 C445 1.363 . S
C451 C446 1.379 . S
C451 N449 1.356 . S
N452 C444 1.356 . S
N452 H458 0.984 . S
N452 H459 0.984 . S
N453 C446 1.356 . S
N453 H456 0.984 . S
N453 H457 0.985 . S
H454 N449 0.984 . S
H455 N449 0.985 . S
H456 N453 0.984 . S
H457 N453 0.985 . S
H458 N452 0.984 . S
H459 N452 0.984 . S
H460 N448 0.984 . S
H461 N448 0.985 . S
C462 C463 1.363 . S
C462 C468 1.379 . S
C462 N470 1.356 . S
C463 C462 1.363 . S
C463 C469 1.363 . S
C464 C465 1.363 . S
C464 C469 1.379 . S
C464 N471 1.356 . S
C465 C464 1.363 . S
C465 C468 1.363 . S
N466 C468 1.356 . S
N466 H478 0.984 . S
N466 H479 0.985 . S
N467 C469 1.356 . S
N467 H472 0.984 . S
N467 H473 0.985 . S
C468 C462 1.379 . S
C468 C465 1.363 . S
C468 N466 1.356 . S
C469 C463 1.363 . S
C469 C464 1.379 . S
C469 N467 1.356 . S
N470 C462 1.356 . S
N470 H476 0.984 . S
N470 H477 0.984 . S
N471 C464 1.356 . S
N471 H474 0.984 . S
N471 H475 0.985 . S
H472 N467 0.984 . S
H473 N467 0.985 . S
H474 N471 0.984 . S
H475 N471 0.985 . S
H476 N470 0.984 . S
H477 N470 0.984 . S
H478 N466 0.984 . S
H479 N466 0.985 . S
C480 C481 1.363 . S
C480 C486 1.379 . S
C480 N488 1.356 . S
C481 C480 1.363 . S
C481 C487 1.363 . S
C482 C483 1.363 . S
C482 C487 1.379 . S
C482 N489 1.356 . S
C483 C482 1.363 . S
C483 C486 1.363 . S
N484 C486 1.356 1_546 S
N484 H496 0.984 . S
N484 H497 0.985 . S
N485 C487 1.356 . S
N485 H490 0.984 . S
N485 H491 0.985 . S
C486 C480 1.379 . S
C486 C483 1.363 . S
C486 N484 1.356 1_564 S
C487 C481 1.363 . S
C487 C482 1.379 . S
C487 N485 1.356 . S
N488 C480 1.356 . S
N488 H494 0.985 1_565 S
N488 H495 0.984 . S
N489 C482 1.356 . S
N489 H492 0.984 1_554 S
N489 H493 0.985 . S
H490 N485 0.984 . S
H491 N485 0.985 . S
H492 N489 0.984 1_556 S
H493 N489 0.985 . S
H494 N488 0.985 1_545 S
H495 N488 0.984 . S
H496 N484 0.984 . S
H497 N484 0.985 . S
C498 C499 1.363 . S
C498 C504 1.379 . S
C498 N506 1.356 . S
C499 C498 1.363 . S
C499 C505 1.363 . S
C500 C501 1.363 . S
C500 C505 1.379 . S
C500 N507 1.356 . S
C501 C500 1.363 . S
C501 C504 1.363 . S
N502 C504 1.356 1_556 S
N502 H514 0.984 . S
N502 H515 0.985 . S
N503 C505 1.356 . S
N503 H508 0.984 . S
N503 H509 0.985 . S
C504 C498 1.379 . S
C504 C501 1.363 . S
C504 N502 1.356 1_554 S
C505 C499 1.363 . S
C505 C500 1.379 . S
C505 N503 1.356 . S
N506 C498 1.356 . S
N506 H512 0.984 . S
N506 H513 0.984 . S
N507 C500 1.356 . S
N507 H510 0.984 1_554 S
N507 H511 0.985 . S
H508 N503 0.984 . S
H509 N503 0.985 . S
H510 N507 0.984 1_556 S
H511 N507 0.985 . S
H512 N506 0.984 . S
H513 N506 0.984 . S
H514 N502 0.984 . S
H515 N502 0.985 . S
C516 C517 1.363 . S
C516 C522 1.379 . S
C516 N524 1.356 . S
C517 C516 1.363 . S
C517 C523 1.363 . S
C518 C519 1.363 1_554 S
C518 C523 1.379 . S
C518 N525 1.356 1_554 S
C519 C518 1.363 1_556 S
C519 C522 1.363 1_556 S
N520 C522 1.356 1_556 S
N520 H532 0.984 . S
N520 H533 0.985 . S
N521 C523 1.356 . S
N521 H526 0.984 . S
N521 H527 0.985 . S
C522 C516 1.379 . S
C522 C519 1.363 1_554 S
C522 N520 1.356 1_554 S
C523 C517 1.363 . S
C523 C518 1.379 . S
C523 N521 1.356 . S
N524 C516 1.356 . S
N524 H530 0.984 . S
N524 H531 0.984 . S
N525 C518 1.356 1_556 S
N525 H528 0.984 . S
N525 H529 0.985 1_556 S
H526 N521 0.984 . S
H527 N521 0.985 . S
H528 N525 0.984 . S
H529 N525 0.985 1_554 S
H530 N524 0.984 . S
H531 N524 0.984 . S
H532 N520 0.984 . S
H533 N520 0.985 . S
C534 C535 1.363 . S
C534 C540 1.379 . S
C534 N542 1.356 . S
C535 C534 1.363 . S
C535 C541 1.363 . S
C536 C537 1.361 1_554 S
C536 C541 1.379 . S
C536 N543 1.356 1_554 S
C537 C536 1.361 1_556 S
C537 C540 1.355 1_556 S
N538 C540 1.356 1_455 S
N538 H550 0.984 . S
N538 H551 0.985 1_554 S
N539 C541 1.356 . S
N539 H544 0.984 . S
N539 H545 0.985 . S
C540 C534 1.379 . S
C540 C537 1.355 1_554 S
C540 N538 1.356 1_655 S
C541 C535 1.363 . S
C541 C536 1.379 . S
C541 N539 1.356 . S
N542 C534 1.356 . S
N542 H548 0.984 1_655 S
N542 H549 0.984 . S
N543 C536 1.356 1_556 S
N543 H546 0.984 . S
N543 H547 0.985 . S
H544 N539 0.984 . S
H545 N539 0.985 . S
H546 N543 0.984 . S
H547 N543 0.985 . S
H548 N542 0.984 1_455 S
H549 N542 0.984 . S
H550 N538 0.984 . S
H551 N538 0.985 1_556 S
C552 C553 1.363 . S
C552 C558 1.379 . S
C552 N560 1.356 . S
C553 C552 1.363 . S
C553 C559 1.363 . S
C554 C555 1.363 . S
C554 C559 1.379 1_655 S
C554 N561 1.356 . S
C555 C554 1.363 . S
C555 C558 1.363 1_655 S
N556 C558 1.356 . S
N556 H568 0.984 . S
N556 H569 0.985 1_455 S
N557 C559 1.356 1_556 S
N557 H562 0.984 . S
N557 H563 0.985 . S
C558 C552 1.379 . S
C558 C555 1.363 1_455 S
C558 N556 1.356 . S
C559 C553 1.363 . S
C559 C554 1.379 1_455 S
C559 N557 1.356 1_554 S
N560 C552 1.356 . S
N560 H566 0.984 . S
N560 H567 0.984 . S
N561 C554 1.356 . S
N561 H564 0.984 . S
N561 H565 0.985 . S
H562 N557 0.984 . S
H563 N557 0.985 . S
H564 N561 0.984 . S
H565 N561 0.985 . S
H566 N560 0.984 . S
H567 N560 0.984 . S
H568 N556 0.984 . S
H569 N556 0.985 1_655 S
C570 C571 1.363 . S
C570 C576 1.358 1_545 S
C570 N578 1.356 . S
C571 C570 1.363 . S
C571 C577 1.363 . S
C572 C573 1.363 . S
C572 C577 1.379 1_565 S
C572 N579 1.356 . S
C573 C572 1.363 . S
C573 C576 1.377 . S
N574 C576 1.370 . S
N574 H586 0.984 . S
N574 H587 0.985 . S
N575 C577 1.356 1_556 S
N575 H580 0.984 . S
N575 H581 0.985 . S
C576 C570 1.358 1_565 S
C576 C573 1.377 . S
C576 N574 1.370 . S
C577 C571 1.363 . S
C577 C572 1.379 1_545 S
C577 N575 1.356 1_554 S
N578 C570 1.356 . S
N578 H584 0.984 . S
N578 H585 0.984 . S
N579 C572 1.356 . S
N579 H582 0.984 . S
N579 H583 0.985 . S
H580 N575 0.984 . S
H581 N575 0.985 . S
H582 N579 0.984 . S
H583 N579 0.985 . S
H584 N578 0.984 . S
H585 N578 0.984 . S
H586 N574 0.984 . S
H587 N574 0.985 . S
C588 C589 1.363 . S
C588 C594 1.379 . S
C588 N596 1.356 1_554 S
C589 C588 1.363 . S
C589 C595 1.363 . S
C590 C591 1.363 . S
C590 C595 1.379 . S
C590 N597 1.356 . S
C591 C590 1.363 . S
C591 C594 1.363 . S
N592 C594 1.356 . S
N592 H604 0.984 1_554 S
N592 H605 0.985 . S
N593 C595 1.356 . S
N593 H598 0.984 . S
N593 H599 0.985 . S
C594 C588 1.379 . S
C594 C591 1.363 . S
C594 N592 1.356 . S
C595 C589 1.363 . S
C595 C590 1.379 . S
C595 N593 1.356 . S
N596 C588 1.356 1_556 S
N596 H602 0.984 . S
N596 H603 0.984 . S
N597 C590 1.356 . S
N597 H600 0.984 . S
N597 H601 0.985 . S
H598 N593 0.984 . S
H599 N593 0.985 . S
H600 N597 0.984 . S
H601 N597 0.985 . S
H602 N596 0.984 . S
H603 N596 0.984 . S
H604 N592 0.984 1_556 S
H605 N592 0.985 . S
C606 C607 1.363 . S
C606 C612 1.379 . S
C606 N614 1.356 . S
C607 C606 1.363 . S
C607 C613 1.363 . S
C608 C609 1.363 . S
C608 C613 1.379 . S
C608 N615 1.356 . S
C609 C608 1.363 . S
C609 C612 1.363 . S
N610 C612 1.356 . S
N610 H622 0.984 . S
N610 H623 0.985 . S
N611 C613 1.356 . S
N611 H616 0.984 . S
N611 H617 0.985 . S
C612 C606 1.379 . S
C612 C609 1.363 . S
C612 N610 1.356 . S
C613 C607 1.363 . S
C613 C608 1.379 . S
C613 N611 1.356 . S
N614 C606 1.356 . S
N614 H620 0.984 1_554 S
N614 H621 0.984 . S
N615 C608 1.356 . S
N615 H618 0.984 . S
N615 H619 0.985 . S
H616 N611 0.984 . S
H617 N611 0.985 . S
H618 N615 0.984 . S
H619 N615 0.985 . S
H620 N614 0.984 1_556 S
H621 N614 0.984 . S
H622 N610 0.984 . S
H623 N610 0.985 . S
C624 C625 1.363 . S
C624 C630 1.379 1_655 S
C624 N632 1.356 . S
C625 C624 1.363 . S
C625 C631 1.363 . S
C626 C627 1.363 . S
C626 C631 1.379 1_455 S
C626 N633 1.356 . S
C627 C626 1.363 . S
C627 C630 1.363 . S
N628 C630 1.356 . S
N628 H640 0.984 . S
N628 H641 0.985 . S
N629 C631 1.356 . S
N629 H634 0.984 . S
N629 H635 0.985 . S
C630 C624 1.379 1_455 S
C630 C627 1.363 . S
C630 N628 1.356 . S
C631 C625 1.363 . S
C631 C626 1.379 1_655 S
C631 N629 1.356 . S
N632 C624 1.356 . S
N632 H638 0.984 . S
N632 H639 0.984 . S
N633 C626 1.356 . S
N633 H636 0.984 . S
N633 H637 0.985 . S
H634 N629 0.984 . S
H635 N629 0.985 . S
H636 N633 0.984 . S
H637 N633 0.985 . S
H638 N632 0.984 . S
H639 N632 0.984 . S
H640 N628 0.984 . S
H641 N628 0.985 . S
C642 C643 1.363 . S
C642 C648 1.380 . S
C642 N650 1.356 . S
C643 C642 1.363 . S
C643 C649 1.363 1_565 S
C644 C645 1.363 . S
C644 C649 1.379 . S
C644 N651 1.356 . S
C645 C644 1.363 . S
C645 C648 1.362 1_545 S
N646 C648 1.356 1_545 S
N646 H658 0.984 1_544 S
N646 H659 0.985 . S
N647 C649 1.357 1_565 S
N647 H652 0.983 . S
N647 H653 0.986 1_565 S
C648 C642 1.380 . S
C648 C645 1.362 1_565 S
C648 N646 1.356 1_565 S
C649 C643 1.363 1_545 S
C649 C644 1.379 . S
C649 N647 1.357 1_545 S
N650 C642 1.356 . S
N650 H656 0.984 . S
N650 H657 0.984 . S
N651 C644 1.356 . S
N651 H654 0.984 . S
N651 H655 0.985 . S
H652 N647 0.983 . S
H653 N647 0.986 1_545 S
H654 N651 0.984 . S
H655 N651 0.985 . S
H656 N650 0.984 . S
H657 N650 0.984 . S
H658 N646 0.984 1_566 S
H659 N646 0.985 . S
C660 C661 1.363 . S
C660 C666 1.379 . S
C660 N668 1.356 . S
C661 C660 1.363 . S
C661 C667 1.363 . S
C662 C663 1.363 . S
C662 C667 1.379 . S
C662 N669 1.356 . S
C663 C662 1.363 . S
C663 C666 1.363 . S
N664 C666 1.356 . S
N664 H676 0.984 . S
N664 H677 0.985 . S
N665 C667 1.356 . S
N665 H670 0.984 . S
N665 H671 0.985 . S
C666 C660 1.379 . S
C666 C663 1.363 . S
C666 N664 1.356 . S
C667 C661 1.363 . S
C667 C662 1.379 . S
C667 N665 1.356 . S
N668 C660 1.356 . S
N668 H674 0.984 . S
N668 H675 0.984 . S
N669 C662 1.356 . S
N669 H672 0.984 . S
N669 H673 0.985 1_554 S
H670 N665 0.984 . S
H671 N665 0.985 . S
H672 N669 0.984 . S
H673 N669 0.985 1_556 S
H674 N668 0.984 . S
H675 N668 0.984 . S
H676 N664 0.984 . S
H677 N664 0.985 . S
C678 C679 1.363 . S
C678 C684 1.379 . S
C678 N686 1.356 . S
C679 C678 1.363 . S
C679 C685 1.363 . S
C680 C681 1.363 . S
C680 C685 1.379 . S
C680 N687 1.356 . S
C681 C680 1.363 . S
C681 C684 1.363 . S
N682 C684 1.356 . S
N682 H694 0.984 1_554 S
N682 H695 0.985 . S
N683 C685 1.356 . S
N683 H688 0.984 . S
N683 H689 0.985 . S
C684 C678 1.379 . S
C684 C681 1.363 . S
C684 N682 1.356 . S
C685 C679 1.363 . S
C685 C680 1.379 . S
C685 N683 1.356 . S
N686 C678 1.356 . S
N686 H692 0.984 . S
N686 H693 0.984 . S
N687 C680 1.356 . S
N687 H690 0.984 . S
N687 H691 0.985 . S
H688 N683 0.984 . S
H689 N683 0.985 . S
H690 N687 0.984 . S
H691 N687 0.985 . S
H692 N686 0.984 . S
H693 N686 0.984 . S
H694 N682 0.984 1_556 S
H695 N682 0.985 . S
C696 C697 1.363 . S
C696 C702 1.379 . S
C696 N704 1.356 . S
C697 C696 1.363 . S
C697 C703 1.363 . S
C698 C699 1.363 . S
C698 C703 1.379 . S
C698 N705 1.356 . S
C699 C698 1.363 . S
C699 C702 1.363 . S
N700 C702 1.356 . S
N700 H712 0.984 1_556 S
N700 H713 0.985 . S
N701 C703 1.356 . S
N701 H706 0.984 . S
N701 H707 0.982 1_455 S
C702 C696 1.379 . S
C702 C699 1.363 . S
C702 N700 1.356 . S
C703 C697 1.363 . S
C703 C698 1.379 . S
C703 N701 1.356 . S
N704 C696 1.356 . S
N704 H710 0.984 1_556 S
N704 H711 0.984 . S
N705 C698 1.356 . S
N705 H708 0.984 . S
N705 H709 0.985 1_455 S
H706 N701 0.984 . S
H707 N701 0.982 1_655 S
H708 N705 0.984 . S
H709 N705 0.985 1_655 S
H710 N704 0.984 1_554 S
H711 N704 0.984 . S
H712 N700 0.984 1_554 S
H713 N700 0.985 . S
C714 C715 1.363 . S
C714 C720 1.379 . S
C714 N722 1.356 . S
C715 C714 1.363 . S
C715 C721 1.363 . S
C716 C717 1.363 . S
C716 C721 1.379 . S
C716 N723 1.356 . S
C717 C716 1.363 . S
C717 C720 1.363 . S
N718 C720 1.356 . S
N718 H730 0.984 1_556 S
N718 H731 0.985 . S
N719 C721 1.356 . S
N719 H724 0.984 . S
N719 H725 0.985 . S
C720 C714 1.379 . S
C720 C717 1.363 . S
C720 N718 1.356 . S
C721 C715 1.363 . S
C721 C716 1.379 . S
C721 N719 1.356 . S
N722 C714 1.356 . S
N722 H728 0.984 1_556 S
N722 H729 0.984 . S
N723 C716 1.356 . S
N723 H726 0.984 . S
N723 H727 0.985 . S
H724 N719 0.984 . S
H725 N719 0.985 . S
H726 N723 0.984 . S
H727 N723 0.985 . S
H728 N722 0.984 1_554 S
H729 N722 0.984 . S
H730 N718 0.984 1_554 S
H731 N718 0.985 . S
C732 C733 1.363 . S
C732 C738 1.379 . S
C732 N740 1.356 . S
C733 C732 1.363 . S
C733 C739 1.363 . S
C734 C735 1.363 . S
C734 C739 1.379 . S
C734 N741 1.356 . S
C735 C734 1.363 . S
C735 C738 1.363 . S
N736 C738 1.356 . S
N736 H748 0.984 1_556 S
N736 H749 0.985 . S
N737 C739 1.356 . S
N737 H742 0.984 . S
N737 H743 0.985 . S
C738 C732 1.379 . S
C738 C735 1.363 . S
C738 N736 1.356 . S
C739 C733 1.363 . S
C739 C734 1.379 . S
C739 N737 1.356 . S
N740 C732 1.356 . S
N740 H746 0.984 1_556 S
N740 H747 0.984 . S
N741 C734 1.356 . S
N741 H744 0.984 . S
N741 H745 0.985 . S
H742 N737 0.984 . S
H743 N737 0.985 . S
H744 N741 0.984 . S
H745 N741 0.985 . S
H746 N740 0.984 1_554 S
H747 N740 0.984 . S
H748 N736 0.984 1_554 S
H749 N736 0.985 . S
C750 C751 1.363 . S
C750 C756 1.379 . S
C750 N758 1.356 . S
C751 C750 1.363 . S
C751 C757 1.363 . S
C752 C753 1.363 . S
C752 C757 1.379 . S
C752 N759 1.356 . S
C753 C752 1.363 . S
C753 C756 1.363 . S
N754 C756 1.356 . S
N754 H766 0.984 1_556 S
N754 H767 0.985 . S
N755 C757 1.356 . S
N755 H760 0.984 . S
N755 H761 0.985 . S
C756 C750 1.379 . S
C756 C753 1.363 . S
C756 N754 1.356 . S
C757 C751 1.363 . S
C757 C752 1.379 . S
C757 N755 1.356 . S
N758 C750 1.356 . S
N758 H764 0.984 1_556 S
N758 H765 0.984 . S
N759 C752 1.356 . S
N759 H762 0.984 . S
N759 H763 0.985 . S
H760 N755 0.984 . S
H761 N755 0.985 . S
H762 N759 0.984 . S
H763 N759 0.985 . S
H764 N758 0.984 1_554 S
H765 N758 0.984 . S
H766 N754 0.984 1_554 S
H767 N754 0.985 . S
C768 C769 1.363 . S
C768 C774 1.379 . S
C768 N776 1.356 . S
C769 C768 1.363 . S
C769 C775 1.363 . S
C770 C771 1.363 . S
C770 C775 1.379 . S
C770 N777 1.356 1_655 S
C771 C770 1.363 . S
C771 C774 1.363 . S
N772 C774 1.356 . S
N772 H784 0.984 . S
N772 H785 0.985 . S
N773 C775 1.356 . S
N773 H778 0.984 . S
N773 H779 0.985 1_655 S
C774 C768 1.379 . S
C774 C771 1.363 . S
C774 N772 1.356 . S
C775 C769 1.363 . S
C775 C770 1.379 . S
C775 N773 1.356 . S
N776 C768 1.356 . S
N776 H782 0.984 . S
N776 H783 0.984 . S
N777 C770 1.356 1_455 S
N777 H780 0.987 . S
N777 H781 0.985 . S
H778 N773 0.984 . S
H779 N773 0.985 1_455 S
H780 N777 0.987 . S
H781 N777 0.985 . S
H782 N776 0.984 . S
H783 N776 0.984 . S
H784 N772 0.984 . S
H785 N772 0.985 . S
C786 C787 1.363 . S
C786 C792 1.379 . S
C786 N794 1.356 . S
C787 C786 1.363 . S
C787 C793 1.363 1_565 S
C788 C789 1.363 1_545 S
C788 C793 1.379 . S
C788 N795 1.356 . S
C789 C788 1.363 1_565 S
C789 C792 1.363 . S
N790 C792 1.356 . S
N790 H802 0.984 . S
N790 H803 0.985 . S
N791 C793 1.356 . S
N791 H796 0.984 . S
N791 H797 0.985 . S
C792 C786 1.379 . S
C792 C789 1.363 . S
C792 N790 1.356 . S
C793 C787 1.363 1_545 S
C793 C788 1.379 . S
C793 N791 1.356 . S
N794 C786 1.356 . S
N794 H800 0.984 . S
N794 H801 0.984 . S
N795 C788 1.356 . S
N795 H798 0.984 . S
N795 H799 0.985 . S
H796 N791 0.984 . S
H797 N791 0.985 . S
H798 N795 0.984 . S
H799 N795 0.985 . S
H800 N794 0.984 . S
H801 N794 0.984 . S
H802 N790 0.984 . S
H803 N790 0.985 . S
C804 C805 1.363 . S
C804 C810 1.379 . S
C804 N812 1.356 . S
C805 C804 1.363 . S
C805 C811 1.363 . S
C806 C807 1.363 . S
C806 C811 1.379 . S
C806 N813 1.356 . S
C807 C806 1.363 . S
C807 C810 1.363 . S
N808 C810 1.356 . S
N808 H820 0.984 . S
N808 H821 0.985 . S
N809 C811 1.356 . S
N809 H814 0.984 . S
N809 H815 0.985 . S
C810 C804 1.379 . S
C810 C807 1.363 . S
C810 N808 1.356 . S
C811 C805 1.363 . S
C811 C806 1.379 . S
C811 N809 1.356 . S
N812 C804 1.356 . S
N812 H818 0.984 . S
N812 H819 0.984 . S
N813 C806 1.356 . S
N813 H816 0.984 . S
N813 H817 0.985 . S
H814 N809 0.984 . S
H815 N809 0.985 . S
H816 N813 0.984 . S
H817 N813 0.985 . S
H818 N812 0.984 . S
H819 N812 0.984 . S
H820 N808 0.984 . S
H821 N808 0.985 . S
C822 C823 1.363 . S
C822 C828 1.379 . S
C822 N830 1.356 . S
C823 C822 1.363 . S
C823 C829 1.363 . S
C824 C825 1.363 . S
C824 C829 1.379 . S
C824 N831 1.356 . S
C825 C824 1.363 . S
C825 C828 1.363 . S
N826 C828 1.356 . S
N826 H838 0.984 . S
N826 H839 0.985 . S
N827 C829 1.356 . S
N827 H832 0.984 . S
N827 H833 0.985 . S
C828 C822 1.379 . S
C828 C825 1.363 . S
C828 N826 1.356 . S
C829 C823 1.363 . S
C829 C824 1.379 . S
C829 N827 1.356 . S
N830 C822 1.356 . S
N830 H836 0.984 . S
N830 H837 0.984 . S
N831 C824 1.356 . S
N831 H834 0.984 . S
N831 H835 0.985 . S
H832 N827 0.984 . S
H833 N827 0.985 . S
H834 N831 0.984 . S
H835 N831 0.985 . S
H836 N830 0.984 . S
H837 N830 0.984 . S
H838 N826 0.984 . S
H839 N826 0.985 . S
C409 C61 2.004 . S
C411 C146 2.127 . S
C429 C230 2.136 . S
C427 C70 2.032 . S
C447 C296 2.032 . S
C445 C43 2.080 . S
C465 C380 2.029 . S
C463 C52 2.076 . S
C483 C135 2.124 1_564 S
C481 C25 2.007 . S
C499 C34 2.029 . S
C501 C219 2.136 1_554 S
C517 C7 2.084 . S
C519 C307 2.032 . S
C535 C16 2.080 . S
C537 C391 2.037 . S
C555 C142 1.008 . S
C553 C50 0.929 . S
C573 C226 0.975 . S
C571 C59 0.907 . S
C591 C298 0.915 . S
C589 C67 0.871 . S
C607 C41 0.889 . S
C609 C382 0.948 . S
C625 C14 0.937 . S
C627 C130 1.008 . S
C645 C214 0.975 . S
C643 C23 0.915 . S
C663 C310 0.915 . S
C661 C31 0.868 . S
C679 C5 0.896 . S
C681 C394 0.948 . S
C697 C49 2.135 . S
C699 C139 2.248 . S
C715 C58 2.118 . S
C717 C223 2.232 . S
C735 C303 2.289 . S
C733 C68 2.027 . S
C753 C387 2.302 . S
C751 C40 2.041 . S
C769 C13 2.136 . S
C771 C128 2.248 . S
C789 C212 2.232 . S
C787 C22 2.118 . S
C807 C314 2.289 . S
C805 C32 2.025 . S
C823 C4 2.042 . S
C825 C398 2.302 . S
