# Generated by pormake.
# Topology tsx, (6,3)-cn, num edge types: 1
# Building blocks:
#     Node 0, Type 0, BuildingBlock: CIFDUS_clean_sbu_1, # of connection points: 6
#     Node 1, Type 0, BuildingBlock: CIFDUS_clean_sbu_1, # of connection points: 6
#     Node 2, Type 1, BuildingBlock: VETTIZ_charged_linker_0, # of connection points: 3
#     Node 3, Type 1, BuildingBlock: VETTIZ_charged_linker_0, # of connection points: 3
#     Node 4, Type 1, BuildingBlock: VETTIZ_charged_linker_0, # of connection points: 3
#     Node 5, Type 1, BuildingBlock: VETTIZ_charged_linker_0, # of connection points: 3
#     Edge 6, Type (0, 1), BuildingBlock: FUNLAD_clean_linker_0, # of connection points: 2
#     Edge 7, Type (0, 1), BuildingBlock: FUNLAD_clean_linker_0, # of connection points: 2
#     Edge 8, Type (0, 1), BuildingBlock: FUNLAD_clean_linker_0, # of connection points: 2
#     Edge 9, Type (0, 1), BuildingBlock: FUNLAD_clean_linker_0, # of connection points: 2
#     Edge 10, Type (0, 1), BuildingBlock: FUNLAD_clean_linker_0, # of connection points: 2
#     Edge 11, Type (0, 1), BuildingBlock: FUNLAD_clean_linker_0, # of connection points: 2
#     Edge 12, Type (0, 1), BuildingBlock: FUNLAD_clean_linker_0, # of connection points: 2
#     Edge 13, Type (0, 1), BuildingBlock: FUNLAD_clean_linker_0, # of connection points: 2
#     Edge 14, Type (0, 1), BuildingBlock: FUNLAD_clean_linker_0, # of connection points: 2
#     Edge 15, Type (0, 1), BuildingBlock: FUNLAD_clean_linker_0, # of connection points: 2
#     Edge 16, Type (0, 1), BuildingBlock: FUNLAD_clean_linker_0, # of connection points: 2
#     Edge 17, Type (0, 1), BuildingBlock: FUNLAD_clean_linker_0, # of connection points: 2
# Relax obj value: 0.132
# Max RMSD: 0.158
# Mean RMSD: 0.122
data_MOF--net-tsx--node1-CIFDUS_clean_sbu_1--node2-VETTIZ_charged_linker_0--edge1-FUNLAD_clean_linker_0
_symmetry_space_group_name_H-M    P1
_symmetry_Int_Tables_number       1
_symmetry_cell_setting            triclinic
loop_
_symmetry_equiv_pos_as_xyz
'x, y, z'
_cell_length_a     24.556068
_cell_length_b     30.193922
_cell_length_c     51.559436
_cell_angle_alpha  96.969076
_cell_angle_beta   91.401801
_cell_angle_gamma 91.198548
loop_
_atom_site_label
_atom_site_type_symbol
_atom_site_fract_x
_atom_site_fract_y
_atom_site_fract_z
_atom_type_partial_charge
O0 O 1.00916 0.11137 0.00104 0.0
Mn1 Mn 0.05498 0.0539 0.00251 0.0
O2 O 0.93744 0.09103 0.97366 0.0
Mn3 Mn 0.95915 0.03383 0.96192 0.0
O4 O 0.10041 0.99627 0.00366 0.0
O5 O 0.11942 0.09301 0.01607 0.0
Mn6 Mn 0.15072 0.07113 0.04283 0.0
O7 O 0.02839 0.04988 0.04055 0.0
O8 O 0.17374 0.01469 0.03004 0.0
O9 O 0.08148 0.05692 0.96422 0.0
O10 O 1.01226 0.02898 0.93709 0.0
O11 O 0.19052 0.12199 0.03823 0.0
O12 O 0.09858 0.07267 0.06823 0.0
C13 C 0.95289 0.98459 0.98843 0.0
C14 C 0.96387 0.11969 0.9897 0.0
C15 C 0.14585 0.98656 0.01431 0.0
C16 C 0.15575 0.1249 0.0193 0.0
C17 C 0.0491 0.05999 0.06371 0.0
C18 C 0.06136 0.04295 0.94131 0.0
O19 O 0.99056 0.01509 0.98936 0.0
O20 O 0.91809 0.98501 0.96924 0.0
O21 O 0.51028 0.61037 0.502 0.0
Mn22 Mn 0.55083 0.54886 0.49964 0.0
O23 O 0.42345 0.59486 0.4884 0.0
Mn24 Mn 0.43527 0.53673 0.47462 0.0
O25 O 0.59169 0.4871 0.497 0.0
O26 O 0.62161 0.58482 0.50327 0.0
Mn27 Mn 0.6672 0.55921 0.52346 0.0
O28 O 0.54765 0.55062 0.5401 0.0
O29 O 0.68012 0.50355 0.50634 0.0
O30 O 0.55467 0.54544 0.45884 0.0
O31 O 0.46956 0.528 0.44302 0.0
O32 O 0.70402 0.60873 0.51482 0.0
O33 O 0.6342 0.55968 0.55554 0.0
C34 C 0.44007 0.48556 0.49939 0.0
C35 C 0.46083 0.62209 0.49816 0.0
C36 C 0.64203 0.47576 0.49827 0.0
C37 C 0.65915 0.61537 0.50234 0.0
C38 C 0.58322 0.5546 0.559 0.0
C39 C 0.52037 0.53405 0.4398 0.0
O40 O 0.47925 0.51393 0.49676 0.0
O41 O 0.39602 0.49076 0.48593 0.0
C42 C 0.1532 0.94288 0.44672 0.0
C43 C 0.18922 0.9138 0.43258 0.0
C44 C 0.18149 0.90472 0.40524 0.0
C45 C 0.10437 0.95358 0.40638 0.0
C46 C 0.11128 0.96253 0.43322 0.0
C47 C 0.06998 0.99514 0.44482 0.0
H48 H 0.85243 0.12434 0.42371 0.0
C49 C 0.05718 0.97862 0.39816 0.0
C50 C 0.03586 0.00255 0.42069 0.0
H51 H 0.9357 0.11564 0.49763 0.0
H52 H 0.99506 0.05957 0.47655 0.0
H53 H 0.95418 0.12981 0.39262 0.0
H54 H 0.84857 0.01907 0.40345 0.0
H55 H 0.86685 0.01073 0.37055 0.0
H56 H 0.83063 0.0602 0.38259 0.0
H57 H 0.88938 0.1203 0.37585 0.0
H58 H 0.95085 0.09668 0.36232 0.0
C59 C 0.10135 0.03811 0.45648 0.0
C60 C 0.03667 0.9728 0.46495 0.0
C61 C 1.00944 0.97702 0.30108 0.0
C62 C 0.96874 0.99844 0.28777 0.0
C63 C 0.92834 0.02175 0.30241 0.0
C64 C 0.92985 0.02575 0.32971 0.0
C65 C 0.97235 0.00639 0.3428 0.0
C66 C 1.01041 0.98148 0.32856 0.0
C67 C 0.05179 0.96263 0.34608 0.0
C68 C 0.03332 0.98191 0.37305 0.0
C69 C 0.98715 0.00775 0.37086 0.0
C70 C 0.10883 0.9811 0.34005 0.0
C71 C 0.04585 0.911 0.34172 0.0
C72 C 0.88251 0.10975 0.43562 0.0
C73 C 0.8888 0.12424 0.46243 0.0
C74 C 0.92999 0.1052 0.47688 0.0
C75 C 0.96457 0.07276 0.46457 0.0
C76 C 0.95849 0.05968 0.43743 0.0
C77 C 0.9175 0.07812 0.42365 0.0
C78 C 0.91763 0.06274 0.39494 0.0
C79 C 0.96538 0.0318 0.39344 0.0
C80 C 0.98946 0.02964 0.41831 0.0
C81 C 0.92814 0.10426 0.38048 0.0
C82 C 0.86308 0.03709 0.38724 0.0
H83 H 0.13595 0.91572 0.37139 0.0
H84 H 0.15803 0.95065 0.46773 0.0
H85 H 0.02747 0.93714 0.45773 0.0
H86 H 0.9967 0.98807 0.46847 0.0
H87 H 0.05959 0.9741 0.48388 0.0
H88 H 0.1298 0.04927 0.44197 0.0
H89 H 0.12601 0.03202 0.47397 0.0
H90 H 0.07464 0.0664 0.46187 0.0
H91 H 0.04101 0.95872 0.29044 0.0
H92 H 0.8958 0.03762 0.29269 0.0
H93 H 0.89844 0.04476 0.33955 0.0
H94 H 0.10694 0.0171 0.33748 0.0
H95 H 0.12444 0.9631 0.32176 0.0
H96 H 0.13926 0.97936 0.35596 0.0
H97 H 1.0037 0.89998 0.33512 0.0
H98 H 0.05288 0.89567 0.35991 0.0
H99 H 0.07395 0.89636 0.32661 0.0
H100 H 0.20769 0.88183 0.39388 0.0
C101 C 0.13941 0.92422 0.39216 0.0
C102 C 0.15468 0.14858 0.55339 0.0
C103 C 0.19874 0.17228 0.56721 0.0
C104 C 0.20933 0.1658 0.59341 0.0
C105 C 0.13307 0.11352 0.59201 0.0
C106 C 0.12264 0.11901 0.56615 0.0
C107 C 0.07548 0.08933 0.55461 0.0
H108 H 0.88149 0.93169 0.57281 0.0
C109 C 0.0927 0.08122 0.59986 0.0
C110 C 0.05877 0.06638 0.57808 0.0
H111 H 0.91667 0.98518 0.50083 0.0
H112 H 0.98637 0.0345 0.52345 0.0
H113 H 1.00331 0.92215 0.59122 0.0
H114 H 0.88923 0.02698 0.6099 0.0
H115 H 0.9253 0.01994 0.63888 0.0
H116 H 0.88376 0.97436 0.62262 0.0
H117 H 0.94567 0.91574 0.61132 0.0
H118 H 1.00957 0.93938 0.62498 0.0
C119 C 0.09739 0.05599 0.5324 0.0
C120 C 0.03007 0.11919 0.5456 0.0
C121 C 0.09648 0.04855 0.69408 0.0
C122 C 0.0643 0.02125 0.70812 0.0
C123 C 0.02102 0.99571 0.69484 0.0
C124 C 1.01004 0.99749 0.66812 0.0
C125 C 0.04264 0.0251 0.65441 0.0
C126 C 0.0849 0.05001 0.6675 0.0
C127 C 0.11523 0.07768 0.65006 0.0
C128 C 0.0841 0.06552 0.6243 0.0
C129 C 0.04174 0.03468 0.62686 0.0
C130 C 0.17496 0.06175 0.64872 0.0
C131 C 0.10889 0.12749 0.66092 0.0
C132 C 0.90351 0.95445 0.56192 0.0
C133 C 0.89327 0.95448 0.53496 0.0
C134 C 0.92399 0.98413 0.52154 0.0
C135 C 0.96454 0.01268 0.53471 0.0
C136 C 0.9751 0.01131 0.56157 0.0
C137 C 0.94431 0.9827 0.57468 0.0
C138 C 0.96113 0.98488 0.60303 0.0
C139 C 1.00775 0.01887 0.60483 0.0
C140 C 0.01596 0.03456 0.58052 0.0
C141 C 0.98068 0.93817 0.60817 0.0
C142 C 0.91247 0.00212 0.61966 0.0
H143 H 0.18728 0.13388 0.62582 0.0
H144 H 0.14575 0.15268 0.53315 0.0
H145 H 0.02441 0.14845 0.56053 0.0
H146 H 0.99002 0.10176 0.54301 0.0
H147 H 0.0405 0.13195 0.52697 0.0
H148 H 0.13849 0.04453 0.53772 0.0
H149 H 0.101 0.07197 0.51422 0.0
H150 H 0.07201 0.02528 0.52828 0.0
H151 H 0.1305 0.06815 0.70349 0.0
H152 H 0.99506 0.97477 0.7052 0.0
H153 H 0.97652 0.97734 0.6592 0.0
H154 H 0.17769 0.02607 0.65195 0.0
H155 H 0.20153 0.08152 0.66381 0.0
H156 H 0.19254 0.06308 0.62926 0.0
H157 H 0.0677 0.13334 0.66902 0.0
H158 H 0.11215 0.15028 0.6458 0.0
H159 H 0.13932 0.13803 0.67688 0.0
H160 H 0.24222 0.18413 0.60464 0.0
C161 C 0.17693 0.13675 0.60581 0.0
C162 C 0.64056 0.44716 0.95669 0.0
C163 C 0.67724 0.41684 0.94425 0.0
C164 C 0.67536 0.40842 0.91672 0.0
C165 C 0.60172 0.46011 0.91455 0.0
C166 C 0.60334 0.46832 0.94151 0.0
C167 C 0.56158 0.50145 0.95157 0.0
H168 H 0.36175 0.64214 0.92532 0.0
C169 C 0.55801 0.48699 0.90463 0.0
C170 C 0.53341 0.51058 0.92626 0.0
H171 H 0.42424 0.6172 0.00121 0.0
H172 H 0.48404 0.56154 0.98055 0.0
H173 H 0.47421 0.64302 0.89865 0.0
H174 H 0.35277 0.53886 0.90036 0.0
H175 H 0.37804 0.53293 0.86858 0.0
H176 H 0.34437 0.58359 0.88077 0.0
H177 H 0.4107 0.64184 0.88058 0.0
H178 H 0.46964 0.61397 0.86708 0.0
C179 C 0.59278 0.54334 0.96501 0.0
C180 C 0.52283 0.47905 0.96965 0.0
C181 C 0.53461 0.49321 0.80697 0.0
C182 C 0.50045 0.51796 0.79214 0.0
C183 C 0.45877 0.54298 0.80474 0.0
C184 C 0.45304 0.54521 0.83182 0.0
C185 C 0.48955 0.52239 0.84657 0.0
C186 C 0.52852 0.49596 0.83405 0.0
C187 C 0.56359 0.47398 0.85289 0.0
C188 C 0.54039 0.49286 0.87885 0.0
C189 C 0.49733 0.52136 0.875 0.0
C190 C 0.62341 0.4898 0.85017 0.0
C191 C 0.55393 0.42278 0.8472 0.0
C192 C 0.38749 0.62419 0.93761 0.0
C193 C 0.38814 0.6342 0.96497 0.0
C194 C 0.42339 0.61058 0.98009 0.0
C195 C 0.45804 0.57825 0.96808 0.0
C196 C 0.45777 0.56955 0.94066 0.0
C197 C 0.42231 0.59202 0.92598 0.0
C198 C 0.42782 0.57922 0.89712 0.0
C199 C 0.4724 0.54521 0.89681 0.0
C200 C 0.4901 0.53977 0.92232 0.0
C201 C 0.44618 0.62151 0.88498 0.0
C202 C 0.37297 0.55779 0.88589 0.0
H203 H 0.63828 0.42159 0.88104 0.0
H204 H 0.64092 0.45444 0.97779 0.0
H205 H 0.5199 0.44227 0.96414 0.0
H206 H 0.48046 0.4903 0.96807 0.0
H207 H 0.53733 0.48523 0.99037 0.0
H208 H 0.62434 0.55446 0.95193 0.0
H209 H 0.61393 0.53582 0.98318 0.0
H210 H 0.56655 0.57218 0.96979 0.0
H211 H 0.56645 0.47305 0.7978 0.0
H212 H 0.43208 0.56253 0.79382 0.0
H213 H 0.42146 0.56579 0.84032 0.0
H214 H 0.62544 0.52593 0.84777 0.0
H215 H 0.64204 0.47122 0.83281 0.0
H216 H 0.6494 0.48657 0.86755 0.0
H217 H 0.51183 0.41441 0.8394 0.0
H218 H 0.55734 0.40587 0.86501 0.0
H219 H 0.58262 0.40766 0.83252 0.0
H220 H 0.70227 0.38454 0.90662 0.0
C221 C 0.63778 0.4297 0.90186 0.0
C222 C 0.63756 0.67272 0.05653 0.0
C223 C 0.67817 0.69939 0.0712 0.0
C224 C 0.68492 0.69589 0.09805 0.0
C225 C 0.61581 0.63726 0.09496 0.0
C226 C 0.60695 0.64162 0.06884 0.0
C227 C 0.56343 0.60882 0.05655 0.0
H228 H 0.41134 0.42035 0.06697 0.0
C229 C 0.5817 0.5998 0.10159 0.0
C230 C 0.55095 0.58235 0.07921 0.0
H231 H 0.40818 0.49907 0.0025 0.0
H232 H 0.47286 0.55272 0.02614 0.0
H233 H 0.54033 0.43072 0.08264 0.0
H234 H 0.39899 0.50342 0.10895 0.0
H235 H 0.44104 0.50068 0.13665 0.0
H236 H 0.41363 0.44977 0.11868 0.0
H237 H 0.48888 0.40802 0.10174 0.0
H238 H 0.54544 0.4413 0.11694 0.0
C239 C 0.58824 0.57949 0.03346 0.0
C240 C 0.5138 0.63541 0.04861 0.0
C241 C 0.59796 0.55614 0.19324 0.0
C242 C 0.57595 0.52075 0.2053 0.0
C243 C 0.54358 0.48766 0.19002 0.0
C244 C 0.53206 0.4906 0.16351 0.0
C245 C 0.55328 0.5269 0.15199 0.0
C246 C 0.5864 0.55836 0.16676 0.0
C247 C 0.60736 0.59362 0.15118 0.0
C248 C 0.57946 0.57923 0.12483 0.0
C249 C 0.54769 0.54035 0.1254 0.0
C250 C 0.67039 0.59003 0.15015 0.0
C251 C 0.587 0.63939 0.16373 0.0
C252 C 0.42539 0.44871 0.05772 0.0
C253 C 0.40611 0.45493 0.03261 0.0
C254 C 0.42339 0.49328 0.02166 0.0
C255 C 0.46083 0.52422 0.03535 0.0
C256 C 0.48044 0.51705 0.06036 0.0
C257 C 0.46146 0.48025 0.0713 0.0
C258 C 0.48151 0.48005 0.09901 0.0
C259 C 0.51676 0.52218 0.10285 0.0
C260 C 0.51717 0.54351 0.08 0.0
C261 C 0.51559 0.43776 0.10041 0.0
C262 C 0.4315 0.48333 0.11691 0.0
H263 H 0.66178 0.66432 0.13038 0.0
H264 H 0.63094 0.67516 0.03592 0.0
H265 H 0.50897 0.66615 0.06254 0.0
H266 H 0.47495 0.61648 0.04914 0.0
H267 H 0.51848 0.64574 0.02881 0.0
H268 H 0.62715 0.56522 0.03967 0.0
H269 H 0.59699 0.5996 0.01732 0.0
H270 H 0.56143 0.55108 0.02561 0.0
H271 H 0.62264 0.5824 0.20426 0.0
H272 H 0.52693 0.45945 0.19857 0.0
H273 H 0.50685 0.46458 0.15305 0.0
H274 H 0.68426 0.55658 0.15411 0.0
H275 H 0.69114 0.6151 0.16486 0.0
H276 H 0.68609 0.59382 0.13058 0.0
H277 H 0.5446 0.63617 0.17053 0.0
H278 H 0.58508 0.66454 0.14987 0.0
H279 H 0.61308 0.65286 0.1809 0.0
H280 H 0.71444 0.71701 0.10998 0.0
C281 C 0.65406 0.66523 0.10994 0.0
C282 C 0.14473 0.20493 0.01587 0.0
C283 C 0.15961 0.16281 0.004 0.0
C284 C 0.1691 0.24382 0.00868 0.0
C285 C 0.20929 0.24115 0.98951 0.0
C286 C 0.21967 0.19908 0.97583 0.0
C287 C 0.19511 0.16024 0.98303 0.0
C288 C 0.24803 0.27912 0.98686 0.0
C289 C 0.24035 0.32188 -0.00307 0.0
C290 C 0.28564 0.35596 0.00134 0.0
C291 C 0.27382 0.40162 0.00336 0.0
C292 C 0.3141 0.43425 0.01174 0.0
C293 C 0.36663 0.42171 0.01883 0.0
H294 H 0.34981 0.30901 0.00655 0.0
C295 C 0.37907 0.37622 0.01587 0.0
C296 C 0.33922 0.34372 0.00713 0.0
H297 H 0.41921 0.36572 0.02139 0.0
H298 H 0.11847 0.20762 0.03256 0.0
H299 H 0.15998 0.27519 0.01999 0.0
H300 H 0.25034 0.19581 0.96101 0.0
H301 H 0.20824 0.12807 0.97402 0.0
H302 H 0.2868 0.27061 0.97808 0.0
H303 H 0.20045 0.33206 0.00362 0.0
H304 H 0.23283 0.41203 -0.00066 0.0
H305 H 0.30333 0.46909 0.01415 0.0
C306 C 0.21532 0.92903 0.02093 0.0
C307 C 0.16718 0.94088 0.00838 0.0
C308 C 0.23631 0.88643 0.01534 0.0
C309 C 0.20947 0.85425 -0.00285 0.0
C310 C 0.16148 0.86608 0.98453 0.0
C311 C 0.1404 0.90882 0.99013 0.0
C312 C 0.23215 0.80925 0.98963 0.0
C313 C 0.26807 0.78981 0.0047 0.0
C314 C 0.29546 0.74732 -0.00415 0.0
C315 C 0.34681 0.73961 0.00683 0.0
C316 C 0.3761 0.70198 -0.00244 0.0
C317 C 0.35437 0.67096 0.97722 0.0
H318 H 0.23202 0.71867 0.96831 0.0
C319 C 0.3016 0.67733 0.9673 0.0
C320 C 0.27241 0.71502 0.97651 0.0
H321 H 0.28308 0.65343 0.9521 0.0
H322 H 0.23737 0.95285 0.03498 0.0
H323 H 0.27438 0.87956 0.02487 0.0
H324 H 0.14026 0.8422 0.97018 0.0
H325 H 0.10347 0.91681 0.97995 0.0
H326 H 0.21955 0.79233 0.97059 0.0
H327 H 0.28059 0.80662 0.02377 0.0
H328 H 0.36532 0.76368 0.02196 0.0
H329 H 0.4167 0.69826 0.00558 0.0
C330 C 0.898 0.96069 0.02355 0.0
C331 C 0.9441 0.95439 0.00817 0.0
C332 C 0.87521 0.92523 0.03492 0.0
C333 C 0.89791 0.88267 0.03078 0.0
C334 C 0.94734 0.87764 0.01767 0.0
C335 C 0.97006 0.91325 0.00616 0.0
C336 C 0.86875 0.84281 0.0384 0.0
C337 C 0.81388 0.83828 0.03623 0.0
C338 C 0.78153 0.79919 0.04305 0.0
C339 C 0.72609 0.79488 0.03528 0.0
C340 C 0.69278 0.76107 0.04323 0.0
C341 C 0.71421 0.73105 0.05931 0.0
H342 H 0.84545 0.76988 0.06498 0.0
C343 C 0.77013 0.73412 0.06613 0.0
C344 C 0.80336 0.76784 0.05824 0.0
H345 H 0.78798 0.71107 0.07827 0.0
H346 H 0.87706 0.99211 0.02506 0.0
H347 H 0.83825 0.93062 0.04578 0.0
H348 H 0.96605 0.84531 0.01458 0.0
H349 H 1.005 0.9075 -0.00612 0.0
H350 H 0.89326 0.81571 0.04375 0.0
H351 H 0.79105 0.86441 0.02846 0.0
H352 H 0.70807 0.8185 0.02356 0.0
H353 H 0.64983 0.75971 0.03779 0.0
C354 C 0.88339 0.1681 0.99317 0.0
C355 C 0.94022 0.16437 -0.00526 0.0
C356 C 0.85976 0.2097 -0.00618 0.0
C357 C 0.89244 0.24888 -0.00396 0.0
C358 C 0.94931 0.24533 -0.0013 0.0
C359 C 0.97307 0.20339 -0.00163 0.0
C360 C 0.8684 0.29243 0.99197 0.0
C361 C 0.81569 0.30142 -0.00339 0.0
C362 C 0.78515 0.33726 0.98563 0.0
C363 C 0.7328 0.34701 -0.00519 0.0
C364 C 0.69858 0.3744 0.98208 0.0
C365 C 0.71585 0.3925 0.95973 0.0
H366 H 0.84293 0.35016 0.95589 0.0
C367 C 0.76917 0.38459 0.95128 0.0
C368 C 0.80342 0.35722 0.964 0.0
H369 H 0.78395 0.39858 0.93432 0.0
H370 H 0.85703 0.13857 0.99044 0.0
H371 H 0.81602 0.21055 0.99094 0.0
H372 H 0.97547 0.27491 0.00015 0.0
H373 H 0.01705 0.20137 -0.00054 0.0
H374 H 0.89404 0.31612 0.98336 0.0
H375 H 0.79226 0.27948 0.00758 0.0
H376 H 0.71739 0.33186 0.01126 0.0
H377 H 0.65763 0.37951 0.98901 0.0
C378 C 0.69044 0.67022 0.47401 0.0
C379 C 0.65239 0.65822 0.49193 0.0
C380 C 0.70386 0.71511 0.47262 0.0
C381 C 0.6804 0.74899 0.48973 0.0
C382 C 0.63737 0.73697 0.50526 0.0
C383 C 0.62353 0.69193 0.5064 0.0
C384 C 0.70362 0.79569 0.49438 0.0
C385 C 0.75499 0.80687 0.48821 0.0
C386 C 0.78427 0.8497 0.49825 0.0
C387 C 0.83222 0.86131 0.48602 0.0
C388 C 0.86605 0.89691 0.49712 0.0
C389 C 0.8531 0.92157 0.52098 0.0
H390 H 0.73397 0.8679 0.53186 0.0
C391 C 0.80381 0.91139 0.5326 0.0
C392 C 0.76981 0.87592 0.52143 0.0
H393 H 0.79231 0.93 0.55086 0.0
H394 H 0.71353 0.64475 0.46277 0.0
H395 H 0.73507 0.72255 0.45927 0.0
H396 H 0.61766 0.7622 0.51831 0.0
H397 H 0.5947 0.68356 0.52073 0.0
H398 H 0.67952 0.82041 0.5057 0.0
H399 H 0.77914 0.78255 0.47668 0.0
H400 H 0.84474 0.84165 0.46827 0.0
H401 H 0.90386 0.9035 0.48773 0.0
C402 C 0.71203 0.41963 0.48458 0.0
C403 C 0.65816 0.42859 0.49191 0.0
C404 C 0.73134 0.37623 0.48221 0.0
C405 C 0.69741 0.34038 0.48726 0.0
C406 C 0.64267 0.34883 0.49323 0.0
C407 C 0.62331 0.3926 0.49574 0.0
C408 C 0.71827 0.29405 0.48566 0.0
C409 C 0.77076 0.28566 0.4916 0.0
C410 C 0.79651 0.24096 0.48753 0.0
C411 C 0.85058 0.23725 0.49661 0.0
C412 C 0.87955 0.19817 0.49005 0.0
C413 C 0.85516 0.16177 0.47411 0.0
H414 H 0.72966 0.20436 0.46544 0.0
C415 C 0.79996 0.16433 0.46646 0.0
C416 C 0.77101 0.20341 0.47297 0.0
H417 H 0.77969 0.13662 0.45444 0.0
H418 H 0.73989 0.44646 0.48113 0.0
H419 H 0.77301 0.37097 0.47642 0.0
H420 H 0.61535 0.32174 0.49683 0.0
H421 H 0.58204 0.39845 0.50184 0.0
H422 H 0.68936 0.26681 0.47988 0.0
H423 H 0.79734 0.31356 0.49945 0.0
H424 H 0.87144 0.26546 0.50792 0.0
H425 H 0.92203 0.19756 0.49613 0.0
C426 C 0.40618 0.4483 0.53577 0.0
C427 C 0.44249 0.44846 0.51521 0.0
C428 C 0.38862 0.40805 0.54393 0.0
C429 C 0.40705 0.36724 0.53156 0.0
C430 C 0.44773 0.36773 0.51291 0.0
C431 C 0.46467 0.40811 0.50447 0.0
C432 C 0.38078 0.32425 0.53623 0.0
C433 C 0.32609 0.3201 0.53767 0.0
C434 C 0.29593 0.27838 0.54194 0.0
C435 C 0.32088 0.2435 0.55318 0.0
C436 C 0.28957 0.20753 0.55982 0.0
C437 C 0.2327 0.20558 0.55547 0.0
H438 H 0.21911 0.30156 0.52775 0.0
C439 C 0.2082 0.2391 0.54296 0.0
C440 C 0.23947 0.27522 0.53641 0.0
H441 H 0.16447 0.23874 0.53958 0.0
H442 H 0.38759 0.47898 0.54391 0.0
H443 H 0.35826 0.40873 0.55886 0.0
H444 H 0.46278 0.3367 0.50321 0.0
H445 H 0.49073 0.40732 0.48778 0.0
H446 H 0.40619 0.29528 0.53617 0.0
H447 H 0.30157 0.3489 0.53504 0.0
H448 H 0.36399 0.24473 0.55809 0.0
H449 H 0.30963 0.18198 0.56933 0.0
C450 C 0.46932 0.70226 0.49053 0.0
C451 C 0.44496 0.66913 0.5036 0.0
C452 C 0.4434 0.74304 0.48926 0.0
C453 C 0.39291 0.75127 0.50124 0.0
C454 C 0.37171 0.71965 0.51635 0.0
C455 C 0.397 0.67883 0.51723 0.0
C456 C 0.35873 0.79019 0.49692 0.0
C457 C 0.35843 0.80893 0.47443 0.0
C458 C 0.31667 0.84071 0.46674 0.0
C459 C 0.32604 0.86239 0.44459 0.0
C460 C 0.28561 0.88769 0.4343 0.0
C461 C 0.23433 0.89195 0.4458 0.0
H462 H 0.25631 0.83013 0.49582 0.0
C463 C 0.22556 0.87214 0.4687 0.0
C464 C 0.2661 0.84664 0.47902 0.0
H465 H 0.18639 0.87446 0.47791 0.0
H466 H 0.50604 0.69539 0.47967 0.0
H467 H 0.46196 0.76723 0.47813 0.0
H468 H 0.33334 0.72516 0.52604 0.0
H469 H 0.37726 0.65368 0.52731 0.0
H470 H 0.32893 0.80004 0.51155 0.0
H471 H 0.38822 0.79833 0.45987 0.0
H472 H 0.36437 0.85869 0.43467 0.0
H473 H 0.29413 0.90313 0.41689 0.0
C474 C 0.99767 0.01254 0.09152 0.0
C475 C 0.01604 0.05498 0.08658 0.0
C476 C 0.97755 0.00639 0.11609 0.0
C477 C 0.97463 0.04288 0.13575 0.0
C478 C 0.98932 0.08569 0.12997 0.0
C479 C 1.01081 0.09157 0.10578 0.0
C480 C 0.95917 0.03766 0.16286 0.0
C481 C 0.97678 0.00386 0.17554 0.0
C482 C 0.97183 0.00265 0.20428 0.0
C483 C 0.98224 0.96269 0.21481 0.0
C484 C 0.98123 0.96095 0.24185 0.0
C485 C 0.96969 0.99923 0.25898 0.0
H486 H 0.95476 0.07307 0.21484 0.0
C487 C 0.95963 0.0392 0.24849 0.0
C488 C 0.96087 0.04102 0.2216 0.0
H489 H 0.95205 0.06962 0.26118 0.0
H490 H 1.0019 0.98381 0.07699 0.0
H491 H 0.96545 0.97313 0.11986 0.0
H492 H 0.98709 0.11433 0.14473 0.0
H493 H 0.02519 0.1245 0.10238 0.0
H494 H 0.93774 0.06512 0.17321 0.0
H495 H 0.99847 0.97688 0.16471 0.0
H496 H 0.99151 0.93271 0.20208 0.0
H497 H 0.98909 0.92962 0.24932 0.0
C498 C 0.1013 0.00317 0.90197 0.0
C499 C 0.09452 0.04344 0.91806 0.0
C500 C 0.11603 0.0033 0.87602 0.0
C501 C 0.12272 0.04389 0.86548 0.0
C502 C 0.12134 0.08408 0.88238 0.0
C503 C 0.10713 0.08389 0.90854 0.0
C504 C 0.12606 0.04548 0.83679 0.0
C505 C 0.10157 0.01411 0.81915 0.0
C506 C 0.09613 0.01691 0.79057 0.0
C507 C 0.08171 0.97788 0.7739 0.0
C508 C 0.07182 0.97917 0.7472 0.0
C509 C 0.07576 0.01969 0.73648 0.0
H510 H 0.1099 0.08861 0.79199 0.0
C511 C 0.09055 0.05879 0.75311 0.0
C512 C 0.10056 0.05749 0.77984 0.0
H513 H 0.09303 0.09072 0.74559 0.0
H514 H 0.09173 0.97159 0.90901 0.0
H515 H 0.11943 0.97156 0.86401 0.0
H516 H 0.1272 0.1158 0.87489 0.0
H517 H 0.10147 0.11535 0.9206 0.0
H518 H 0.14486 0.07498 0.8304 0.0
H519 H 0.08211 0.98517 0.82591 0.0
H520 H 0.07765 0.94618 0.7816 0.0
H521 H 0.06129 0.94833 0.73494 0.0
C522 C 0.60454 0.54964 0.60616 0.0
C523 C 0.56537 0.55085 0.58594 0.0
C524 C 0.58899 0.54352 0.6313 0.0
C525 C 0.53358 0.53924 0.63714 0.0
C526 C 0.49429 0.54027 0.61694 0.0
C527 C 0.50994 0.54607 0.59159 0.0
C528 C 0.5159 0.53178 0.66374 0.0
C529 C 0.54729 0.54346 0.68543 0.0
C530 C 0.5332 0.53409 0.7121 0.0
C531 C 0.57578 0.53387 0.73074 0.0
C532 C 0.56509 0.52725 0.75643 0.0
C533 C 0.51136 0.52105 0.76423 0.0
H534 H 0.44522 0.52803 0.70612 0.0
C535 C 0.46855 0.52084 0.74558 0.0
C536 C 0.4793 0.52723 0.71972 0.0
H537 H 0.4267 0.51614 0.75104 0.0
H538 H 0.64766 0.55239 0.60253 0.0
H539 H 0.62099 0.54094 0.64577 0.0
H540 H 0.45136 0.53648 0.62077 0.0
H541 H 0.47868 0.54638 0.57643 0.0
H542 H 0.47623 0.51592 0.66526 0.0
H543 H 0.58639 0.56012 0.6838 0.0
H544 H 0.61764 0.53928 0.72548 0.0
H545 H 0.59892 0.52845 0.7704 0.0
C546 C 0.58492 0.54665 0.4039 0.0
C547 C 0.53965 0.52431 0.41287 0.0
C548 C 0.59926 0.53839 0.37758 0.0
C549 C 0.5689 0.5071 0.3601 0.0
C550 C 0.52568 0.48335 0.36963 0.0
C551 C 0.51094 0.49207 0.39555 0.0
C552 C 0.57795 0.49917 0.33158 0.0
C553 C 0.60224 0.52856 0.31771 0.0
C554 C 0.59698 0.52354 0.28877 0.0
C555 C 0.6397 0.53757 0.27395 0.0
C556 C 0.63378 0.53523 0.24675 0.0
C557 C 0.58442 0.51977 0.2339 0.0
H558 H 0.51335 0.49809 0.28685 0.0
C559 C 0.54173 0.5058 0.24888 0.0
C560 C 0.54791 0.50762 0.27593 0.0
H561 H 0.50266 0.49493 0.23986 0.0
H562 H 0.60806 0.57131 0.41698 0.0
H563 H 0.63367 0.55665 0.37108 0.0
H564 H 0.50183 0.45885 0.35675 0.0
H565 H 0.47654 0.47359 0.402 0.0
H566 H 0.55848 0.4694 0.32103 0.0
H567 H 0.62358 0.55804 0.32741 0.0
H568 H 0.67769 0.55033 0.28343 0.0
H569 H 0.66779 0.54583 0.23583 0.0
loop_
_geom_bond_atom_site_label_1
_geom_bond_atom_site_label_2
_geom_bond_distance
_geom_bond_site_symmetry_2
_ccdc_geom_bond_type
O0 Mn1 2.163 . S
O0 C14 1.251 1_455 S
Mn1 O0 2.163 . S
Mn1 O4 2.160 1_544 S
Mn1 O5 2.221 . S
Mn1 O7 2.163 . S
Mn1 O9 2.160 1_554 S
Mn1 O19 2.221 1_444 S
O2 Mn3 2.087 . S
O2 C14 1.249 1_556 S
Mn3 O2 2.087 . S
Mn3 O10 2.089 . S
Mn3 O19 2.290 1_545 S
Mn3 O20 2.251 1_545 S
O4 Mn1 2.160 1_566 S
O4 C15 1.239 1_556 S
O5 Mn1 2.221 . S
O5 Mn6 2.290 . S
O5 C16 1.278 . S
Mn6 O5 2.290 . S
Mn6 O8 2.089 1_545 S
Mn6 O11 2.251 . S
Mn6 O12 2.087 . S
O7 Mn1 2.163 . S
O7 C17 1.244 . S
O8 Mn6 2.089 1_565 S
O8 C15 1.256 . S
O9 Mn1 2.160 1_556 S
O9 C18 1.239 . S
O10 Mn3 2.089 . S
O10 C18 1.256 1_655 S
O11 Mn6 2.251 . S
O11 C16 1.241 . S
O12 Mn6 2.087 . S
O12 C17 1.256 . S
C13 O19 1.278 1_554 S
C13 O20 1.241 1_554 S
C14 O0 1.251 1_655 S
C14 O2 1.249 1_554 S
C15 O4 1.239 1_554 S
C15 O8 1.256 . S
C16 O5 1.278 . S
C16 O11 1.241 . S
C17 O7 1.244 . S
C17 O12 1.256 . S
C18 O9 1.239 . S
C18 O10 1.256 1_455 S
O19 Mn1 2.221 1_666 S
O19 Mn3 2.290 1_565 S
O19 C13 1.278 1_556 S
O20 Mn3 2.251 1_565 S
O20 C13 1.241 1_556 S
O21 Mn22 2.163 . S
O21 C35 1.244 . S
Mn22 O21 2.163 . S
Mn22 O25 2.160 . S
Mn22 O26 2.221 . S
Mn22 O28 2.163 . S
Mn22 O30 2.160 . S
Mn22 O40 2.221 . S
O23 Mn24 2.087 . S
O23 C35 1.256 . S
Mn24 O23 2.087 . S
Mn24 O31 2.089 . S
Mn24 O40 2.290 . S
Mn24 O41 2.251 . S
O25 Mn22 2.160 . S
O25 C36 1.239 . S
O26 Mn22 2.221 . S
O26 Mn27 2.290 . S
O26 C37 1.278 . S
Mn27 O26 2.290 . S
Mn27 O29 2.089 . S
Mn27 O32 2.251 . S
Mn27 O33 2.087 . S
O28 Mn22 2.163 . S
O28 C38 1.244 . S
O29 Mn27 2.089 . S
O29 C36 1.256 . S
O30 Mn22 2.160 . S
O30 C39 1.239 . S
O31 Mn24 2.089 . S
O31 C39 1.256 . S
O32 Mn27 2.251 . S
O32 C37 1.241 . S
O33 Mn27 2.087 . S
O33 C38 1.256 . S
C34 O40 1.278 . S
C34 O41 1.241 . S
C35 O21 1.244 . S
C35 O23 1.256 . S
C36 O25 1.239 . S
C36 O29 1.256 . S
C37 O26 1.278 . S
C37 O32 1.241 . S
C38 O28 1.244 . S
C38 O33 1.256 . S
C39 O30 1.239 . S
C39 O31 1.256 . S
O40 Mn22 2.221 . S
O40 Mn24 2.290 . S
O40 C34 1.278 . S
O41 Mn24 2.251 . S
O41 C34 1.241 . S
C42 C43 1.391 . S
C42 C46 1.391 . S
C42 H84 0.948 . S
C43 C42 1.391 . S
C43 C44 1.391 . S
C44 C43 1.391 . S
C44 H100 0.947 . S
C44 C101 1.392 . S
C45 C46 1.391 . S
C45 C49 1.397 . S
C45 C101 1.419 . S
C46 C42 1.391 . S
C46 C45 1.391 . S
C46 C47 1.399 . S
C47 C46 1.399 . S
C47 C50 1.396 . S
C47 C59 1.453 1_565 S
C47 C60 1.684 . S
H48 C72 0.948 . S
C49 C45 1.397 . S
C49 C50 1.394 . S
C49 C68 1.723 . S
C50 C47 1.396 . S
C50 C49 1.394 . S
C50 C80 1.723 1_565 S
H51 C74 0.947 . S
H52 C75 0.948 . S
H53 C81 0.982 1_455 S
H54 C82 0.979 . S
H55 C82 0.980 . S
H56 C82 0.983 . S
H57 C81 0.979 . S
H58 C81 0.977 . S
C59 C47 1.453 1_545 S
C59 H88 0.982 . S
C59 H89 0.979 1_545 S
C59 H90 0.977 . S
C60 C47 1.684 . S
C60 H85 0.979 1_455 S
C60 H86 0.977 1_455 S
C60 H87 0.983 . S
C61 C62 1.399 . S
C61 C66 1.391 . S
C61 H91 0.948 . S
C62 C61 1.399 . S
C62 C63 1.384 1_565 S
C63 C62 1.384 1_545 S
C63 C64 1.392 . S
C63 H92 0.947 1_455 S
C64 C63 1.392 . S
C64 C65 1.419 . S
C64 H93 0.948 1_455 S
C65 C64 1.419 . S
C65 C66 1.391 1_545 S
C65 C69 1.397 . S
C66 C61 1.391 . S
C66 C65 1.391 1_565 S
C66 C67 1.399 . S
C67 C66 1.399 . S
C67 C68 1.396 . S
C67 C70 1.453 . S
C67 C71 1.684 . S
C68 C49 1.723 . S
C68 C67 1.396 . S
C68 C69 1.394 1_565 S
C69 C65 1.397 . S
C69 C68 1.394 1_545 S
C69 C79 1.723 . S
C70 C67 1.453 . S
C70 H94 0.982 . S
C70 H95 0.979 . S
C70 H96 0.977 . S
C71 C67 1.684 . S
C71 H97 0.979 . S
C71 H98 0.980 . S
C71 H99 0.983 . S
C72 H48 0.948 . S
C72 C73 1.391 . S
C72 C77 1.391 . S
C73 C72 1.391 . S
C73 C74 1.391 . S
C74 H51 0.947 . S
C74 C73 1.391 . S
C74 C75 1.392 . S
C75 H52 0.948 . S
C75 C74 1.392 . S
C75 C76 1.419 . S
C76 C75 1.419 . S
C76 C77 1.391 . S
C76 C80 1.397 1_655 S
C77 C72 1.391 . S
C77 C76 1.391 . S
C77 C78 1.399 . S
C78 C77 1.399 . S
C78 C79 1.396 1_655 S
C78 C81 1.453 . S
C78 C82 1.684 . S
C79 C69 1.723 . S
C79 C78 1.396 1_455 S
C79 C80 1.394 . S
C80 C50 1.723 1_545 S
C80 C76 1.397 1_455 S
C80 C79 1.394 . S
C81 H53 0.982 1_655 S
C81 H57 0.979 . S
C81 H58 0.977 . S
C81 C78 1.453 . S
C82 H54 0.979 . S
C82 H55 0.980 . S
C82 H56 0.983 . S
C82 C78 1.684 . S
H83 C101 0.948 . S
H84 C42 0.948 . S
H85 C60 0.979 1_655 S
H86 C60 0.977 1_655 S
H87 C60 0.983 . S
H88 C59 0.982 . S
H89 C59 0.979 1_565 S
H90 C59 0.977 . S
H91 C61 0.948 . S
H92 C63 0.947 1_655 S
H93 C64 0.948 1_655 S
H94 C70 0.982 . S
H95 C70 0.979 . S
H96 C70 0.977 . S
H97 C71 0.979 . S
H98 C71 0.980 . S
H99 C71 0.983 . S
H100 C44 0.947 . S
C101 C44 1.392 . S
C101 C45 1.419 . S
C101 H83 0.948 . S
C102 C103 1.391 . S
C102 C106 1.391 . S
C102 H144 0.948 . S
C103 C102 1.391 . S
C103 C104 1.391 . S
C104 C103 1.391 . S
C104 H160 0.947 . S
C104 C161 1.392 . S
C105 C106 1.391 . S
C105 C109 1.397 . S
C105 C161 1.419 . S
C106 C102 1.391 . S
C106 C105 1.391 . S
C106 C107 1.399 . S
C107 C106 1.399 . S
C107 C110 1.396 . S
C107 C119 1.453 . S
C107 C120 1.684 1_455 S
H108 C132 0.948 . S
C109 C105 1.397 . S
C109 C110 1.394 . S
C109 C128 1.723 . S
C110 C107 1.396 . S
C110 C109 1.394 . S
C110 C140 1.723 1_455 S
H111 C134 0.947 . S
H112 C135 0.948 . S
H113 C141 0.982 . S
H114 C142 0.979 . S
H115 C142 0.980 . S
H116 C142 0.983 1_565 S
H117 C141 0.979 . S
H118 C141 0.977 . S
C119 C107 1.453 . S
C119 H148 0.982 . S
C119 H149 0.979 . S
C119 H150 0.977 . S
C120 C107 1.684 1_655 S
C120 H145 0.979 . S
C120 H146 0.980 . S
C120 H147 0.983 . S
C121 C122 1.391 1_455 S
C121 C126 1.391 . S
C121 H151 0.948 . S
C122 C121 1.391 1_655 S
C122 C123 1.391 . S
C123 C122 1.391 . S
C123 C124 1.392 . S
C123 H152 0.947 . S
C124 C123 1.392 . S
C124 C125 1.419 . S
C124 H153 0.948 . S
C125 C124 1.419 . S
C125 C126 1.391 1_655 S
C125 C129 1.397 . S
C126 C121 1.391 . S
C126 C125 1.391 1_455 S
C126 C127 1.399 . S
C127 C126 1.399 . S
C127 C128 1.396 . S
C127 C130 1.453 . S
C127 C131 1.684 . S
C128 C109 1.723 . S
C128 C127 1.396 . S
C128 C129 1.394 1_455 S
C129 C125 1.397 . S
C129 C128 1.394 1_655 S
C129 C139 1.723 . S
C130 C127 1.453 . S
C130 H154 0.982 . S
C130 H155 0.979 . S
C130 H156 0.977 . S
C131 C127 1.684 . S
C131 H157 0.979 . S
C131 H158 0.980 . S
C131 H159 0.983 . S
C132 H108 0.948 . S
C132 C133 1.391 . S
C132 C137 1.391 . S
C133 C132 1.391 . S
C133 C134 1.391 . S
C134 H111 0.947 . S
C134 C133 1.391 . S
C134 C135 1.392 1_565 S
C135 H112 0.948 . S
C135 C134 1.392 1_545 S
C135 C136 1.419 . S
C136 C135 1.419 . S
C136 C137 1.391 1_545 S
C136 C140 1.397 . S
C137 C132 1.391 . S
C137 C136 1.391 1_565 S
C137 C138 1.399 1_565 S
C138 C137 1.399 1_545 S
C138 C139 1.396 . S
C138 C141 1.453 1_545 S
C138 C142 1.684 . S
C139 C129 1.723 . S
C139 C138 1.396 . S
C139 C140 1.394 . S
C140 C110 1.723 1_655 S
C140 C136 1.397 . S
C140 C139 1.394 . S
C141 H113 0.982 . S
C141 H117 0.979 . S
C141 H118 0.977 . S
C141 C138 1.453 1_565 S
C142 H114 0.979 . S
C142 H115 0.980 . S
C142 H116 0.983 1_545 S
C142 C138 1.684 . S
H143 C161 0.948 . S
H144 C102 0.948 . S
H145 C120 0.979 . S
H146 C120 0.980 . S
H147 C120 0.983 . S
H148 C119 0.982 . S
H149 C119 0.979 . S
H150 C119 0.977 . S
H151 C121 0.948 . S
H152 C123 0.947 . S
H153 C124 0.948 . S
H154 C130 0.982 . S
H155 C130 0.979 . S
H156 C130 0.977 . S
H157 C131 0.979 . S
H158 C131 0.980 . S
H159 C131 0.983 . S
H160 C104 0.947 . S
C161 C104 1.392 . S
C161 C105 1.419 . S
C161 H143 0.948 . S
C162 C163 1.391 . S
C162 C166 1.391 . S
C162 H204 0.948 . S
C163 C162 1.391 . S
C163 C164 1.391 . S
C164 C163 1.391 . S
C164 H220 0.947 . S
C164 C221 1.392 . S
C165 C166 1.391 . S
C165 C169 1.397 . S
C165 C221 1.419 . S
C166 C162 1.391 . S
C166 C165 1.391 . S
C166 C167 1.399 . S
C167 C166 1.399 . S
C167 C170 1.396 . S
C167 C179 1.453 . S
C167 C180 1.684 . S
H168 C192 0.948 . S
C169 C165 1.397 . S
C169 C170 1.394 . S
C169 C188 1.723 . S
C170 C167 1.396 . S
C170 C169 1.394 . S
C170 C200 1.723 . S
H171 C194 0.947 1_554 S
H172 C195 0.948 . S
H173 C201 0.982 . S
H174 C202 0.979 . S
H175 C202 0.980 . S
H176 C202 0.983 . S
H177 C201 0.979 . S
H178 C201 0.977 . S
C179 C167 1.453 . S
C179 H208 0.982 . S
C179 H209 0.979 1_556 S
C179 H210 0.977 . S
C180 C167 1.684 . S
C180 H205 0.979 . S
C180 H206 0.980 . S
C180 H207 0.983 1_556 S
C181 C182 1.391 . S
C181 C186 1.391 . S
C181 H211 0.948 . S
C182 C181 1.391 . S
C182 C183 1.391 . S
C183 C182 1.391 . S
C183 C184 1.392 . S
C183 H212 0.947 . S
C184 C183 1.392 . S
C184 C185 1.419 . S
C184 H213 0.948 . S
C185 C184 1.419 . S
C185 C186 1.391 . S
C185 C189 1.397 . S
C186 C181 1.391 . S
C186 C185 1.391 . S
C186 C187 1.399 . S
C187 C186 1.399 . S
C187 C188 1.396 . S
C187 C190 1.453 . S
C187 C191 1.684 . S
C188 C169 1.723 . S
C188 C187 1.396 . S
C188 C189 1.394 . S
C189 C185 1.397 . S
C189 C188 1.394 . S
C189 C199 1.723 . S
C190 C187 1.453 . S
C190 H214 0.982 . S
C190 H215 0.979 . S
C190 H216 0.977 . S
C191 C187 1.684 . S
C191 H217 0.979 . S
C191 H218 0.980 . S
C191 H219 0.983 . S
C192 H168 0.948 . S
C192 C193 1.391 . S
C192 C197 1.391 . S
C193 C192 1.391 . S
C193 C194 1.391 . S
C194 H171 0.947 1_556 S
C194 C193 1.391 . S
C194 C195 1.392 . S
C195 H172 0.948 . S
C195 C194 1.392 . S
C195 C196 1.419 . S
C196 C195 1.419 . S
C196 C197 1.391 . S
C196 C200 1.397 . S
C197 C192 1.391 . S
C197 C196 1.391 . S
C197 C198 1.399 . S
C198 C197 1.399 . S
C198 C199 1.396 . S
C198 C201 1.453 . S
C198 C202 1.684 . S
C199 C189 1.723 . S
C199 C198 1.396 . S
C199 C200 1.394 . S
C200 C170 1.723 . S
C200 C196 1.397 . S
C200 C199 1.394 . S
C201 H173 0.982 . S
C201 H177 0.979 . S
C201 H178 0.977 . S
C201 C198 1.453 . S
C202 H174 0.979 . S
C202 H175 0.980 . S
C202 H176 0.983 . S
C202 C198 1.684 . S
H203 C221 0.948 . S
H204 C162 0.948 . S
H205 C180 0.979 . S
H206 C180 0.980 . S
H207 C180 0.983 1_554 S
H208 C179 0.982 . S
H209 C179 0.979 1_554 S
H210 C179 0.977 . S
H211 C181 0.948 . S
H212 C183 0.947 . S
H213 C184 0.948 . S
H214 C190 0.982 . S
H215 C190 0.979 . S
H216 C190 0.977 . S
H217 C191 0.979 . S
H218 C191 0.980 . S
H219 C191 0.983 . S
H220 C164 0.947 . S
C221 C164 1.392 . S
C221 C165 1.419 . S
C221 H203 0.948 . S
C222 C223 1.391 . S
C222 C226 1.391 . S
C222 H264 0.948 . S
C223 C222 1.391 . S
C223 C224 1.391 . S
C224 C223 1.391 . S
C224 H280 0.947 . S
C224 C281 1.392 . S
C225 C226 1.391 . S
C225 C229 1.397 . S
C225 C281 1.419 . S
C226 C222 1.391 . S
C226 C225 1.391 . S
C226 C227 1.399 . S
C227 C226 1.399 . S
C227 C230 1.396 . S
C227 C239 1.453 . S
C227 C240 1.684 . S
H228 C252 0.948 . S
C229 C225 1.397 . S
C229 C230 1.394 . S
C229 C248 1.723 . S
C230 C227 1.396 . S
C230 C229 1.394 . S
C230 C260 1.723 . S
H231 C254 0.947 . S
H232 C255 0.948 . S
H233 C261 0.982 . S
H234 C262 0.979 . S
H235 C262 0.980 . S
H236 C262 0.983 . S
H237 C261 0.979 . S
H238 C261 0.977 . S
C239 C227 1.453 . S
C239 H268 0.982 . S
C239 H269 0.979 . S
C239 H270 0.977 . S
C240 C227 1.684 . S
C240 H265 0.979 . S
C240 H266 0.980 . S
C240 H267 0.983 . S
C241 C242 1.391 . S
C241 C246 1.391 . S
C241 H271 0.948 . S
C242 C241 1.391 . S
C242 C243 1.391 . S
C243 C242 1.391 . S
C243 C244 1.392 . S
C243 H272 0.947 . S
C244 C243 1.392 . S
C244 C245 1.419 . S
C244 H273 0.948 . S
C245 C244 1.419 . S
C245 C246 1.391 . S
C245 C249 1.397 . S
C246 C241 1.391 . S
C246 C245 1.391 . S
C246 C247 1.399 . S
C247 C246 1.399 . S
C247 C248 1.396 . S
C247 C250 1.453 . S
C247 C251 1.684 . S
C248 C229 1.723 . S
C248 C247 1.396 . S
C248 C249 1.394 . S
C249 C245 1.397 . S
C249 C248 1.394 . S
C249 C259 1.723 . S
C250 C247 1.453 . S
C250 H274 0.982 . S
C250 H275 0.979 . S
C250 H276 0.977 . S
C251 C247 1.684 . S
C251 H277 0.979 . S
C251 H278 0.980 . S
C251 H279 0.983 . S
C252 H228 0.948 . S
C252 C253 1.391 . S
C252 C257 1.391 . S
C253 C252 1.391 . S
C253 C254 1.391 . S
C254 H231 0.947 . S
C254 C253 1.391 . S
C254 C255 1.392 . S
C255 H232 0.948 . S
C255 C254 1.392 . S
C255 C256 1.419 . S
C256 C255 1.419 . S
C256 C257 1.391 . S
C256 C260 1.397 . S
C257 C252 1.391 . S
C257 C256 1.391 . S
C257 C258 1.399 . S
C258 C257 1.399 . S
C258 C259 1.396 . S
C258 C261 1.453 . S
C258 C262 1.684 . S
C259 C249 1.723 . S
C259 C258 1.396 . S
C259 C260 1.394 . S
C260 C230 1.723 . S
C260 C256 1.397 . S
C260 C259 1.394 . S
C261 H233 0.982 . S
C261 H237 0.979 . S
C261 H238 0.977 . S
C261 C258 1.453 . S
C262 H234 0.979 . S
C262 H235 0.980 . S
C262 H236 0.983 . S
C262 C258 1.684 . S
H263 C281 0.948 . S
H264 C222 0.948 . S
H265 C240 0.979 . S
H266 C240 0.980 . S
H267 C240 0.983 . S
H268 C239 0.982 . S
H269 C239 0.979 . S
H270 C239 0.977 . S
H271 C241 0.948 . S
H272 C243 0.947 . S
H273 C244 0.948 . S
H274 C250 0.982 . S
H275 C250 0.979 . S
H276 C250 0.977 . S
H277 C251 0.979 . S
H278 C251 0.980 . S
H279 C251 0.983 . S
H280 C224 0.947 . S
C281 C224 1.392 . S
C281 C225 1.419 . S
C281 H263 0.948 . S
C282 C283 1.386 . S
C282 C284 1.383 . S
C282 H298 0.951 . S
C283 C282 1.386 . S
C283 C287 1.383 . S
C284 C282 1.383 . S
C284 C285 1.402 . S
C284 H299 0.951 . S
C285 C284 1.402 . S
C285 C286 1.375 . S
C285 C288 1.481 . S
C286 C285 1.375 . S
C286 C287 1.367 . S
C286 H300 0.951 . S
C287 C283 1.383 . S
C287 C286 1.367 . S
C287 H301 0.950 . S
C288 C285 1.481 . S
C288 C289 1.297 . S
C288 H302 0.950 . S
C289 C288 1.297 . S
C289 C290 1.479 . S
C289 H303 0.950 . S
C290 C289 1.479 . S
C290 C291 1.375 . S
C290 C296 1.404 . S
C291 C290 1.375 . S
C291 C292 1.369 . S
C291 H304 0.950 . S
C292 C291 1.369 . S
C292 C293 1.392 . S
C292 H305 0.951 . S
C293 C292 1.392 . S
C293 C295 1.384 . S
H294 C296 0.949 . S
C295 C293 1.384 . S
C295 C296 1.385 . S
C295 H297 0.950 . S
C296 C290 1.404 . S
C296 H294 0.949 . S
C296 C295 1.385 . S
H297 C295 0.950 . S
H298 C282 0.951 . S
H299 C284 0.951 . S
H300 C286 0.951 . S
H301 C287 0.950 . S
H302 C288 0.950 . S
H303 C289 0.950 . S
H304 C291 0.950 . S
H305 C292 0.951 . S
C306 C307 1.386 1_556 S
C306 C308 1.383 . S
C306 H322 0.951 . S
C307 C306 1.386 1_554 S
C307 C311 1.383 . S
C308 C306 1.383 . S
C308 C309 1.402 1_556 S
C308 H323 0.951 . S
C309 C308 1.402 1_554 S
C309 C310 1.375 . S
C309 C312 1.481 . S
C310 C309 1.375 . S
C310 C311 1.367 . S
C310 H324 0.951 . S
C311 C307 1.383 . S
C311 C310 1.367 . S
C311 H325 0.950 . S
C312 C309 1.481 . S
C312 C313 1.297 1_554 S
C312 H326 0.950 . S
C313 C312 1.297 1_556 S
C313 C314 1.479 . S
C313 H327 0.950 . S
C314 C313 1.479 . S
C314 C315 1.375 . S
C314 C320 1.404 1_556 S
C315 C314 1.375 . S
C315 C316 1.369 . S
C315 H328 0.950 . S
C316 C315 1.369 . S
C316 C317 1.392 . S
C316 H329 0.951 . S
C317 C316 1.392 . S
C317 C319 1.384 1_556 S
H318 C320 0.949 . S
C319 C317 1.384 1_554 S
C319 C320 1.385 . S
C319 H321 0.950 . S
C320 C314 1.404 1_554 S
C320 H318 0.949 . S
C320 C319 1.385 . S
H321 C319 0.950 . S
H322 C306 0.951 . S
H323 C308 0.951 . S
H324 C310 0.951 . S
H325 C311 0.950 . S
H326 C312 0.950 . S
H327 C313 0.950 . S
H328 C315 0.950 . S
H329 C316 0.951 . S
C330 C331 1.386 . S
C330 C332 1.383 . S
C330 H346 0.951 . S
C331 C330 1.386 . S
C331 C335 1.383 . S
C332 C330 1.383 . S
C332 C333 1.402 . S
C332 H347 0.951 . S
C333 C332 1.402 . S
C333 C334 1.375 . S
C333 C336 1.481 . S
C334 C333 1.375 . S
C334 C335 1.367 . S
C334 H348 0.951 1_554 S
C335 C331 1.383 . S
C335 C334 1.367 . S
C335 H349 0.950 1_554 S
C336 C333 1.481 . S
C336 C337 1.297 . S
C336 H350 0.950 . S
C337 C336 1.297 . S
C337 C338 1.479 . S
C337 H351 0.950 . S
C338 C337 1.479 . S
C338 C339 1.375 . S
C338 C344 1.404 . S
C339 C338 1.375 . S
C339 C340 1.369 . S
C339 H352 0.950 . S
C340 C339 1.369 . S
C340 C341 1.392 . S
C340 H353 0.951 . S
C341 C340 1.392 . S
C341 C343 1.384 . S
H342 C344 0.949 . S
C343 C341 1.384 . S
C343 C344 1.385 . S
C343 H345 0.950 . S
C344 C338 1.404 . S
C344 H342 0.949 . S
C344 C343 1.385 . S
H345 C343 0.950 . S
H346 C330 0.951 . S
H347 C332 0.951 . S
H348 C334 0.951 1_556 S
H349 C335 0.950 1_556 S
H350 C336 0.950 . S
H351 C337 0.950 . S
H352 C339 0.950 . S
H353 C340 0.951 . S
C354 C355 1.386 1_556 S
C354 C356 1.383 . S
C354 H370 0.951 . S
C355 C354 1.386 1_554 S
C355 C359 1.383 . S
C356 C354 1.383 . S
C356 C357 1.402 1_556 S
C356 H371 0.951 . S
C357 C356 1.402 1_554 S
C357 C358 1.375 . S
C357 C360 1.481 . S
C358 C357 1.375 . S
C358 C359 1.367 . S
C358 H372 0.951 . S
C359 C355 1.383 . S
C359 C358 1.367 . S
C359 H373 0.950 . S
C360 C357 1.481 . S
C360 C361 1.297 1_554 S
C360 H374 0.950 . S
C361 C360 1.297 1_556 S
C361 C362 1.479 . S
C361 H375 0.950 . S
C362 C361 1.479 . S
C362 C363 1.375 . S
C362 C368 1.404 1_556 S
C363 C362 1.375 . S
C363 C364 1.369 . S
C363 H376 0.950 . S
C364 C363 1.369 . S
C364 C365 1.392 . S
C364 H377 0.951 . S
C365 C364 1.392 . S
C365 C367 1.408 . S
H366 C368 0.949 . S
C367 C365 1.408 . S
C367 C368 1.379 1_556 S
C367 H369 0.932 1_556 S
C368 C362 1.404 1_554 S
C368 H366 0.949 . S
C368 C367 1.379 1_554 S
H369 C367 0.932 1_554 S
H370 C354 0.951 . S
H371 C356 0.951 . S
H372 C358 0.951 . S
H373 C359 0.950 . S
H374 C360 0.950 . S
H375 C361 0.950 . S
H376 C363 0.950 . S
H377 C364 0.951 . S
C378 C379 1.386 . S
C378 C380 1.383 . S
C378 H394 0.951 . S
C379 C378 1.386 . S
C379 C383 1.383 . S
C380 C378 1.383 . S
C380 C381 1.402 . S
C380 H395 0.951 . S
C381 C380 1.402 . S
C381 C382 1.375 . S
C381 C384 1.481 . S
C382 C381 1.375 . S
C382 C383 1.367 . S
C382 H396 0.951 . S
C383 C379 1.383 . S
C383 C382 1.367 . S
C383 H397 0.950 . S
C384 C381 1.481 . S
C384 C385 1.297 . S
C384 H398 0.950 . S
C385 C384 1.297 . S
C385 C386 1.479 . S
C385 H399 0.950 . S
C386 C385 1.479 . S
C386 C387 1.375 . S
C386 C392 1.404 . S
C387 C386 1.375 . S
C387 C388 1.369 . S
C387 H400 0.950 . S
C388 C387 1.369 . S
C388 C389 1.392 . S
C388 H401 0.951 . S
C389 C388 1.392 . S
C389 C391 1.384 . S
H390 C392 0.949 . S
C391 C389 1.384 . S
C391 C392 1.385 . S
C391 H393 0.950 . S
C392 C386 1.404 . S
C392 H390 0.949 . S
C392 C391 1.385 . S
H393 C391 0.950 . S
H394 C378 0.951 . S
H395 C380 0.951 . S
H396 C382 0.951 . S
H397 C383 0.950 . S
H398 C384 0.950 . S
H399 C385 0.950 . S
H400 C387 0.950 . S
H401 C388 0.951 . S
C402 C403 1.386 . S
C402 C404 1.383 . S
C402 H418 0.951 . S
C403 C402 1.386 . S
C403 C407 1.383 . S
C404 C402 1.383 . S
C404 C405 1.402 . S
C404 H419 0.951 . S
C405 C404 1.402 . S
C405 C406 1.375 . S
C405 C408 1.481 . S
C406 C405 1.375 . S
C406 C407 1.367 . S
C406 H420 0.951 . S
C407 C403 1.383 . S
C407 C406 1.367 . S
C407 H421 0.950 . S
C408 C405 1.481 . S
C408 C409 1.297 . S
C408 H422 0.950 . S
C409 C408 1.297 . S
C409 C410 1.479 . S
C409 H423 0.950 . S
C410 C409 1.479 . S
C410 C411 1.375 . S
C410 C416 1.404 . S
C411 C410 1.375 . S
C411 C412 1.369 . S
C411 H424 0.950 . S
C412 C411 1.369 . S
C412 C413 1.392 . S
C412 H425 0.951 . S
C413 C412 1.392 . S
C413 C415 1.384 . S
H414 C416 0.949 . S
C415 C413 1.384 . S
C415 C416 1.385 . S
C415 H417 0.950 . S
C416 C410 1.404 . S
C416 H414 0.949 . S
C416 C415 1.385 . S
H417 C415 0.950 . S
H418 C402 0.951 . S
H419 C404 0.951 . S
H420 C406 0.951 . S
H421 C407 0.950 . S
H422 C408 0.950 . S
H423 C409 0.950 . S
H424 C411 0.950 . S
H425 C412 0.951 . S
C426 C427 1.386 . S
C426 C428 1.383 . S
C426 H442 0.951 . S
C427 C426 1.386 . S
C427 C431 1.383 . S
C428 C426 1.383 . S
C428 C429 1.402 . S
C428 H443 0.951 . S
C429 C428 1.402 . S
C429 C430 1.375 . S
C429 C432 1.481 . S
C430 C429 1.375 . S
C430 C431 1.367 . S
C430 H444 0.951 . S
C431 C427 1.383 . S
C431 C430 1.367 . S
C431 H445 0.950 . S
C432 C429 1.481 . S
C432 C433 1.297 . S
C432 H446 0.950 . S
C433 C432 1.297 . S
C433 C434 1.479 . S
C433 H447 0.950 . S
C434 C433 1.479 . S
C434 C435 1.375 . S
C434 C440 1.404 . S
C435 C434 1.375 . S
C435 C436 1.369 . S
C435 H448 0.950 . S
C436 C435 1.369 . S
C436 C437 1.392 . S
C436 H449 0.951 . S
C437 C436 1.392 . S
C437 C439 1.384 . S
H438 C440 0.949 . S
C439 C437 1.384 . S
C439 C440 1.385 . S
C439 H441 0.950 . S
C440 C434 1.404 . S
C440 H438 0.949 . S
C440 C439 1.385 . S
H441 C439 0.950 . S
H442 C426 0.951 . S
H443 C428 0.951 . S
H444 C430 0.951 . S
H445 C431 0.950 . S
H446 C432 0.950 . S
H447 C433 0.950 . S
H448 C435 0.950 . S
H449 C436 0.951 . S
C450 C451 1.386 . S
C450 C452 1.383 . S
C450 H466 0.951 . S
C451 C450 1.386 . S
C451 C455 1.383 . S
C452 C450 1.383 . S
C452 C453 1.402 . S
C452 H467 0.951 . S
C453 C452 1.402 . S
C453 C454 1.375 . S
C453 C456 1.481 . S
C454 C453 1.375 . S
C454 C455 1.367 . S
C454 H468 0.951 . S
C455 C451 1.383 . S
C455 C454 1.367 . S
C455 H469 0.950 . S
C456 C453 1.481 . S
C456 C457 1.297 . S
C456 H470 0.950 . S
C457 C456 1.297 . S
C457 C458 1.479 . S
C457 H471 0.950 . S
C458 C457 1.479 . S
C458 C459 1.375 . S
C458 C464 1.404 . S
C459 C458 1.375 . S
C459 C460 1.369 . S
C459 H472 0.950 . S
C460 C459 1.369 . S
C460 C461 1.392 . S
C460 H473 0.951 . S
C461 C460 1.392 . S
C461 C463 1.384 . S
H462 C464 0.949 . S
C463 C461 1.384 . S
C463 C464 1.385 . S
C463 H465 0.950 . S
C464 C458 1.404 . S
C464 H462 0.949 . S
C464 C463 1.385 . S
H465 C463 0.950 . S
H466 C450 0.951 . S
H467 C452 0.951 . S
H468 C454 0.951 . S
H469 C455 0.950 . S
H470 C456 0.950 . S
H471 C457 0.950 . S
H472 C459 0.950 . S
H473 C460 0.951 . S
C474 C475 1.386 1_565 S
C474 C476 1.383 . S
C474 H490 0.951 . S
C475 C474 1.386 1_545 S
C475 C479 1.383 . S
C476 C474 1.383 . S
C476 C477 1.402 1_565 S
C476 H491 0.951 . S
C477 C476 1.402 1_545 S
C477 C478 1.375 . S
C477 C480 1.481 . S
C478 C477 1.375 . S
C478 C479 1.367 . S
C478 H492 0.951 . S
C479 C475 1.383 . S
C479 C478 1.367 . S
C479 H493 0.950 . S
C480 C477 1.481 . S
C480 C481 1.297 1_545 S
C480 H494 0.950 . S
C481 C480 1.297 1_565 S
C481 C482 1.479 . S
C481 H495 0.950 . S
C482 C481 1.479 . S
C482 C483 1.375 . S
C482 C488 1.404 1_565 S
C483 C482 1.375 . S
C483 C484 1.369 . S
C483 H496 0.950 . S
C484 C483 1.369 . S
C484 C485 1.392 . S
C484 H497 0.951 . S
C485 C484 1.392 . S
C485 C487 1.384 1_565 S
H486 C488 0.949 . S
C487 C485 1.384 1_545 S
C487 C488 1.385 . S
C487 H489 0.950 . S
C488 C482 1.404 1_545 S
C488 H486 0.949 . S
C488 C487 1.385 . S
H489 C487 0.950 . S
H490 C474 0.951 . S
H491 C476 0.951 . S
H492 C478 0.951 . S
H493 C479 0.950 . S
H494 C480 0.950 . S
H495 C481 0.950 . S
H496 C483 0.950 . S
H497 C484 0.951 . S
C498 C499 1.386 . S
C498 C500 1.383 . S
C498 H514 0.928 1_445 S
C499 C498 1.386 . S
C499 C503 1.383 . S
C500 C498 1.383 . S
C500 C501 1.402 . S
C500 H515 0.951 1_455 S
C501 C500 1.402 . S
C501 C502 1.375 . S
C501 C504 1.481 . S
C502 C501 1.375 . S
C502 C503 1.367 . S
C502 H516 0.951 . S
C503 C499 1.383 . S
C503 C502 1.367 . S
C503 H517 0.950 . S
C504 C501 1.481 . S
C504 C505 1.284 1_455 S
C504 H518 0.950 . S
C505 C504 1.284 1_655 S
C505 C506 1.480 . S
C505 H519 0.965 . S
C506 C505 1.480 . S
C506 C507 1.375 . S
C506 C512 1.404 1_655 S
C507 C506 1.375 . S
C507 C508 1.369 . S
C507 H520 0.950 . S
C508 C507 1.369 . S
C508 C509 1.392 1_655 S
C508 H521 0.951 . S
C509 C508 1.392 1_455 S
C509 C511 1.384 . S
H510 C512 0.949 . S
C511 C509 1.384 . S
C511 C512 1.385 . S
C511 H513 0.950 . S
C512 C506 1.404 1_455 S
C512 H510 0.949 . S
C512 C511 1.385 . S
H513 C511 0.950 . S
H514 C498 0.928 1_665 S
H515 C500 0.951 1_655 S
H516 C502 0.951 . S
H517 C503 0.950 . S
H518 C504 0.950 . S
H519 C505 0.965 . S
H520 C507 0.950 . S
H521 C508 0.951 . S
C522 C523 1.386 . S
C522 C524 1.383 . S
C522 H538 0.951 . S
C523 C522 1.386 . S
C523 C527 1.383 . S
C524 C522 1.383 . S
C524 C525 1.402 . S
C524 H539 0.951 . S
C525 C524 1.402 . S
C525 C526 1.375 . S
C525 C528 1.481 . S
C526 C525 1.375 . S
C526 C527 1.367 . S
C526 H540 0.951 . S
C527 C523 1.383 . S
C527 C526 1.367 . S
C527 H541 0.950 . S
C528 C525 1.481 . S
C528 C529 1.297 . S
C528 H542 0.950 . S
C529 C528 1.297 . S
C529 C530 1.479 . S
C529 H543 0.950 . S
C530 C529 1.479 . S
C530 C531 1.375 . S
C530 C536 1.404 . S
C531 C530 1.375 . S
C531 C532 1.369 . S
C531 H544 0.950 . S
C532 C531 1.369 . S
C532 C533 1.392 . S
C532 H545 0.951 . S
C533 C532 1.392 . S
C533 C535 1.384 . S
H534 C536 0.949 . S
C535 C533 1.384 . S
C535 C536 1.385 . S
C535 H537 0.950 . S
C536 C530 1.404 . S
C536 H534 0.949 . S
C536 C535 1.385 . S
H537 C535 0.950 . S
H538 C522 0.951 . S
H539 C524 0.951 . S
H540 C526 0.951 . S
H541 C527 0.950 . S
H542 C528 0.950 . S
H543 C529 0.950 . S
H544 C531 0.950 . S
H545 C532 0.951 . S
C546 C547 1.386 . S
C546 C548 1.383 . S
C546 H562 0.951 . S
C547 C546 1.386 . S
C547 C551 1.383 . S
C548 C546 1.383 . S
C548 C549 1.402 . S
C548 H563 0.951 . S
C549 C548 1.402 . S
C549 C550 1.375 . S
C549 C552 1.481 . S
C550 C549 1.375 . S
C550 C551 1.367 . S
C550 H564 0.951 . S
C551 C547 1.383 . S
C551 C550 1.367 . S
C551 H565 0.950 . S
C552 C549 1.481 . S
C552 C553 1.297 . S
C552 H566 0.950 . S
C553 C552 1.297 . S
C553 C554 1.479 . S
C553 H567 0.950 . S
C554 C553 1.479 . S
C554 C555 1.375 . S
C554 C560 1.404 . S
C555 C554 1.375 . S
C555 C556 1.369 . S
C555 H568 0.950 . S
C556 C555 1.369 . S
C556 C557 1.392 . S
C556 H569 0.951 . S
C557 C556 1.392 . S
C557 C559 1.384 . S
H558 C560 0.949 . S
C559 C557 1.384 . S
C559 C560 1.385 . S
C559 H561 0.950 . S
C560 C554 1.404 . S
C560 H558 0.949 . S
C560 C559 1.385 . S
H561 C559 0.950 . S
H562 C546 0.951 . S
H563 C548 0.951 . S
H564 C550 0.951 . S
H565 C551 0.950 . S
H566 C552 0.950 . S
H567 C553 0.950 . S
H568 C555 0.950 . S
H569 C556 0.951 . S
C293 C253 1.436 . S
C283 C16 1.226 . S
C307 C15 1.494 . S
C317 C193 1.526 . S
C331 C13 1.264 . S
C341 C223 1.440 . S
C355 C14 1.300 . S
C365 C163 1.284 . S
C379 C37 1.284 . S
C389 C133 1.455 . S
C403 C36 1.494 . S
C413 C73 1.526 . S
C437 C103 1.358 . S
C427 C34 1.219 . S
C461 C43 1.223 . S
C451 C35 1.267 . S
C475 C17 1.489 . S
C485 C62 1.555 . S
C499 C18 1.373 . S
C509 C122 1.380 1_455 S
C533 C182 1.513 . S
C523 C38 1.514 . S
C547 C39 1.357 . S
C557 C242 1.381 . S
