# Generated by pormake.
# Topology rtl, (3,6)-cn, num edge types: 1
# Building blocks:
#     Node 0, Type 0, BuildingBlock: KAKCAD_clean_linker_0, # of connection points: 3
#     Node 1, Type 0, BuildingBlock: KAKCAD_clean_linker_0, # of connection points: 3
#     Node 2, Type 0, BuildingBlock: KAKCAD_clean_linker_0, # of connection points: 3
#     Node 3, Type 0, BuildingBlock: KAKCAD_clean_linker_0, # of connection points: 3
#     Node 4, Type 1, BuildingBlock: KUMBOL_clean_sbu_1, # of connection points: 6
#     Node 5, Type 1, BuildingBlock: KUMBOL_clean_sbu_1, # of connection points: 6
#     Edge 6, Type (0, 1), BuildingBlock: ZUJKAS_clean_linker_0, # of connection points: 2
#     Edge 7, Type (0, 1), BuildingBlock: ZUJKAS_clean_linker_0, # of connection points: 2
#     Edge 8, Type (0, 1), BuildingBlock: ZUJKAS_clean_linker_0, # of connection points: 2
#     Edge 9, Type (0, 1), BuildingBlock: ZUJKAS_clean_linker_0, # of connection points: 2
#     Edge 10, Type (0, 1), BuildingBlock: ZUJKAS_clean_linker_0, # of connection points: 2
#     Edge 11, Type (0, 1), BuildingBlock: ZUJKAS_clean_linker_0, # of connection points: 2
#     Edge 12, Type (0, 1), BuildingBlock: ZUJKAS_clean_linker_0, # of connection points: 2
#     Edge 13, Type (0, 1), BuildingBlock: ZUJKAS_clean_linker_0, # of connection points: 2
#     Edge 14, Type (0, 1), BuildingBlock: ZUJKAS_clean_linker_0, # of connection points: 2
#     Edge 15, Type (0, 1), BuildingBlock: ZUJKAS_clean_linker_0, # of connection points: 2
#     Edge 16, Type (0, 1), BuildingBlock: ZUJKAS_clean_linker_0, # of connection points: 2
#     Edge 17, Type (0, 1), BuildingBlock: ZUJKAS_clean_linker_0, # of connection points: 2
# Relax obj value: 0.017
# Max RMSD: 0.086
# Mean RMSD: 0.053
data_MOF--net-rtl--node1-KUMBOL_clean_sbu_1--node2-KAKCAD_clean_linker_0--edge1-ZUJKAS_clean_linker_0
_symmetry_space_group_name_H-M    P1
_symmetry_Int_Tables_number       1
_symmetry_cell_setting            triclinic
loop_
_symmetry_equiv_pos_as_xyz
'x, y, z'
_cell_length_a     49.437571
_cell_length_b     49.97576
_cell_length_c     42.743301
_cell_angle_alpha  81.958865
_cell_angle_beta   99.630713
_cell_angle_gamma 90.22817
loop_
_atom_site_label
_atom_site_type_symbol
_atom_site_fract_x
_atom_site_fract_y
_atom_site_fract_z
_atom_type_partial_charge
C0 C 0.19686 0.89081 0.9042 0.0
C1 C 0.18966 0.91832 0.89684 0.0
C2 C 0.21101 0.88043 0.93454 0.0
C3 C 0.21831 0.89741 0.95813 0.0
C4 C 0.21125 0.92511 0.95048 0.0
C5 C 0.19702 0.93548 0.92005 0.0
C6 C 0.23241 0.88587 0.99081 0.0
C7 C 0.2529 0.86573 0.99469 0.0
C8 C 0.26445 0.85246 0.02527 0.0
C9 C 0.25599 0.86075 0.05239 0.0
C10 C 0.23613 0.88159 0.04909 0.0
C11 C 0.22436 0.89382 0.01816 0.0
C12 C 0.22674 0.89003 0.0777 0.0
C13 C 0.22205 0.8707 0.10342 0.0
C14 C 0.22149 0.9175 0.07902 0.0
C15 C 0.21157 0.92539 0.1052 0.0
C16 C 0.2064 0.90599 0.13043 0.0
C17 C 0.28439 0.82932 0.02841 0.0
C18 C 0.2818 0.812 1.00481 0.0
C19 C 0.30591 0.82405 0.05477 0.0
C20 C 0.32434 0.80226 0.0572 0.0
C21 C 0.3219 0.78539 0.03316 0.0
C22 C 0.30033 0.79055 0.00705 0.0
C23 C 0.21181 0.8786 0.12941 0.0
H24 H 0.19117 0.87728 0.88657 0.0
H25 H 0.21567 0.85895 0.93973 0.0
H26 H 0.21677 0.93876 0.96798 0.0
H27 H 0.19162 0.9568 0.91468 0.0
H28 H 0.25983 0.8604 0.9736 0.0
H29 H 0.20805 0.90883 0.01533 0.0
H30 H 0.26455 0.85079 0.07611 0.0
H31 H 0.22557 0.84938 0.10308 0.0
H32 H 0.22508 0.93294 0.05979 0.0
H33 H 0.20739 0.94662 0.10544 0.0
H34 H 0.26511 0.81461 0.98466 0.0
H35 H 0.30886 0.83697 0.07333 0.0
H36 H 0.20801 0.86332 0.14871 0.0
H37 H 0.29736 0.77762 0.98848 0.0
H38 H 0.34079 0.79892 0.0776 0.0
C39 C 0.61544 0.70661 0.69477 0.0
C40 C 0.61446 0.67823 0.70165 0.0
C41 C 0.62525 0.71885 0.66738 0.0
C42 C 0.63396 0.70296 0.64618 0.0
C43 C 0.63355 0.6747 0.65338 0.0
C44 C 0.62412 0.66251 0.68081 0.0
C45 C 0.64218 0.71547 0.6157 0.0
C46 C 0.66216 0.73561 0.61516 0.0
C47 C 0.67082 0.74616 0.58615 0.0
C48 C 0.6584 0.73681 0.55765 0.0
C49 C 0.63893 0.71633 0.55797 0.0
C50 C 0.63076 0.70601 0.58705 0.0
C51 C 0.62851 0.70456 0.52828 0.0
C52 C 0.62203 0.72119 0.49854 0.0
C53 C 0.62615 0.67638 0.5293 0.0
C54 C 0.61792 0.66509 0.5012 0.0
C55 C 0.61162 0.68176 0.47164 0.0
C56 C 0.69399 0.76548 0.5854 0.0
C57 C 0.69836 0.78526 0.60594 0.0
C58 C 0.71224 0.76402 0.56382 0.0
C59 C 0.73371 0.78199 0.56215 0.0
C60 C 0.73823 0.80238 0.58218 0.0
C61 C 0.72001 0.80341 0.60436 0.0
C62 C 0.61354 0.70988 0.47049 0.0
H63 H 0.60799 0.71943 0.71006 0.0
H64 H 0.62521 0.7407 0.66222 0.0
H65 H 0.64054 0.66196 0.63767 0.0
H66 H 0.62451 0.64065 0.68567 0.0
H67 H 0.67178 0.742 0.63751 0.0
H68 H 0.61535 0.69052 0.58743 0.0
H69 H 0.66452 0.74488 0.53509 0.0
H70 H 0.62348 0.74295 0.49694 0.0
H71 H 0.63131 0.66297 0.55173 0.0
H72 H 0.61645 0.64333 0.50253 0.0
H73 H 0.68475 0.78712 0.62295 0.0
H74 H 0.71039 0.74853 0.54828 0.0
H75 H 0.60888 0.72305 0.44781 0.0
H76 H 0.72179 0.81823 0.62059 0.0
H77 H 0.74663 0.77893 0.54502 0.0
C78 C 0.79561 0.09128 0.147 0.0
C79 C 0.82442 0.0901 0.15286 0.0
C80 C 0.78138 0.10098 0.11635 0.0
C81 C 0.79576 0.10915 0.091 0.0
C82 C 0.82459 0.10727 0.09687 0.0
C83 C 0.83876 0.09802 0.12753 0.0
C84 C 0.78104 0.12007 0.05855 0.0
C85 C 0.76049 0.14019 0.05449 0.0
C86 C 0.74794 0.15201 0.0236 0.0
C87 C 0.75631 0.1432 0.99672 0.0
C88 C 0.77707 0.12329 1.0004 0.0
C89 C 0.78888 0.11154 0.03144 0.0
C90 C 0.78762 0.11579 0.97206 0.0
C91 C 0.7699 0.11389 0.94308 0.0
C92 C 0.81587 0.11091 0.97375 0.0
C93 C 0.82613 0.10423 0.94732 0.0
C94 C 0.8085 0.10252 0.91829 0.0
C95 C 0.72738 0.1746 0.01947 0.0
C96 C 0.70871 0.1751 0.04094 0.0
C97 C 0.72688 0.1964 0.99461 0.0
C98 C 0.70875 0.21832 0.99179 0.0
C99 C 0.69072 0.2191 0.01378 0.0
C100 C 0.69059 0.19709 0.03811 0.0
C101 C 0.78023 0.10733 0.91648 0.0
H102 H 0.78417 0.08538 0.1663 0.0
H103 H 0.75916 0.10208 0.11243 0.0
H104 H 0.83625 0.1136 0.07789 0.0
H105 H 0.86099 0.09722 0.13155 0.0
H106 H 0.75526 0.1475 0.07546 0.0
H107 H 0.80441 0.0957 0.03463 0.0
H108 H 0.7471 0.15229 0.97285 0.0
H109 H 0.74801 0.11727 0.94097 0.0
H110 H 0.83027 0.11262 0.99543 0.0
H111 H 0.84795 0.10023 0.94974 0.0
H112 H 0.70817 0.15857 0.06011 0.0
H113 H 0.74108 0.19707 0.97782 0.0
H114 H 0.76612 0.10634 0.8944 0.0
H115 H 0.67703 0.19724 0.05555 0.0
H116 H 0.70912 0.2349 0.97262 0.0
C117 C 0.37278 0.32199 0.3458 0.0
C118 C 0.40076 0.32708 0.34632 0.0
C119 C 0.36355 0.30948 0.37337 0.0
C120 C 0.38213 0.30223 0.40205 0.0
C121 C 0.41023 0.30701 0.40227 0.0
C122 C 0.41947 0.31919 0.37457 0.0
C123 C 0.37202 0.29127 0.43207 0.0
C124 C 0.35232 0.27083 0.4322 0.0
C125 C 0.34148 0.26157 0.46019 0.0
C126 C 0.35069 0.27341 0.48804 0.0
C127 C 0.3707 0.29344 0.48852 0.0
C128 C 0.38134 0.30214 0.46046 0.0
C129 C 0.38001 0.30561 0.51827 0.0
C130 C 0.36092 0.31292 0.53661 0.0
C131 C 0.40798 0.30969 0.52878 0.0
C132 C 0.41672 0.32015 0.55745 0.0
C133 C 0.39765 0.32746 0.57613 0.0
C134 C 0.32019 0.2401 0.46055 0.0
C135 C 0.30061 0.23758 0.43307 0.0
C136 C 0.31851 0.22256 0.48901 0.0
C137 C 0.29709 0.20437 0.49051 0.0
C138 C 0.2773 0.20254 0.46337 0.0
C139 C 0.27955 0.21878 0.43442 0.0
C140 C 0.36953 0.32396 0.56483 0.0
H141 H 0.35805 0.32803 0.32419 0.0
H142 H 0.34177 0.30632 0.37256 0.0
H143 H 0.42503 0.30151 0.42395 0.0
H144 H 0.44115 0.32305 0.37538 0.0
H145 H 0.34583 0.26196 0.41052 0.0
H146 H 0.39612 0.31823 0.46039 0.0
H147 H 0.34218 0.26723 0.50961 0.0
H148 H 0.33915 0.31049 0.52888 0.0
H149 H 0.42324 0.30409 0.51527 0.0
H150 H 0.43855 0.32183 0.56508 0.0
H151 H 0.30084 0.25073 0.41074 0.0
H152 H 0.33357 0.22295 0.51044 0.0
H153 H 0.35383 0.32999 0.57739 0.0
H154 H 0.26438 0.2177 0.4132 0.0
H155 H 0.29586 0.1918 0.51302 0.0
C156 C 0.96398 0.08785 0.50261 0.0
C157 C 0.91634 0.07927 0.48255 0.0
C158 C 0.94226 0.07017 0.49986 0.0
C159 C 0.91271 0.10622 0.46772 0.0
C160 C 0.96043 0.11492 0.4877 0.0
C161 C 0.93472 0.12397 0.47021 0.0
N162 N 0.98851 0.07865 0.5201 0.0
C163 C 0.01016 0.09551 0.52411 0.0
C164 C 0.98279 0.13216 0.49112 0.0
C165 C 0.00775 0.12241 0.50948 0.0
Gd166 Gd 0.02489 0.97459 0.50541 0.0
Gd167 Gd 0.99054 0.03338 0.54396 0.0
N168 N 0.94648 0.04412 0.51429 0.0
C169 C 0.89471 0.0611 0.48106 0.0
C170 C 0.92527 0.0266 0.51368 0.0
C171 C 0.89918 0.0347 0.49686 0.0
H172 H 0.92813 0.00661 0.52676 0.0
H173 H 0.88243 0.02067 0.49646 0.0
H174 H 0.08807 0.99916 0.52158 0.0
H175 H 0.02912 0.08846 0.53926 0.0
H176 H 0.13375 0.9836 0.55074 0.0
H177 H 0.87444 0.06736 0.46823 0.0
H178 H 0.89292 0.11358 0.45441 0.0
H179 H 0.98502 0.92011 0.50799 0.0
H180 H 0.9809 0.15309 0.48005 0.0
H181 H 0.02503 0.1357 0.51271 0.0
H182 H 0.12055 0.89122 0.59288 0.0
H183 H 0.93158 0.14473 0.45873 0.0
H184 H 0.03152 0.85409 0.56645 0.0
H185 H 0.98794 0.87263 0.53351 0.0
N186 N 0.0255 0.92914 0.52858 0.0
C187 C 0.04987 0.9192 0.54582 0.0
C188 C 0.00359 0.91267 0.52363 0.0
C189 C 0.03008 0.87517 0.55597 0.0
C190 C 0.00542 0.88557 0.53751 0.0
C191 C 0.0528 0.89191 0.56001 0.0
H192 H 0.08098 0.86118 0.58831 0.0
N193 N 0.06862 0.96251 0.5348 0.0
C194 C 0.07215 0.93626 0.5487 0.0
C195 C 0.12022 0.94372 0.56658 0.0
C196 C 0.09796 0.9263 0.56544 0.0
C197 C 0.09047 0.97917 0.53464 0.0
C198 C 0.11652 0.97018 0.55076 0.0
O199 O 0.98503 0.03681 0.48948 0.0
O200 O 0.9842 0.99262 0.47987 0.0
O201 O 0.04774 0.98143 0.46437 0.0
O202 O 0.02229 0.94608 0.47221 0.0
O203 O 0.97796 0.98982 0.5552 0.0
O204 O 0.98042 0.96894 0.51086 0.0
O205 O 0.03259 0.97124 0.55991 0.0
O206 O 0.03079 0.01513 0.57032 0.0
O207 O 0.96611 0.02813 0.58319 0.0
O208 O 0.99651 0.05949 0.58014 0.0
O209 O 0.03852 0.01793 0.49516 0.0
O210 O 0.0351 0.03913 0.53909 0.0
C211 C 0.9783 0.01836 0.47052 0.0
C212 C 0.96953 0.97167 0.5364 0.0
C213 C 0.04558 0.94722 0.4269 0.0
C214 C 0.06714 0.94814 0.37912 0.0
C215 C 0.04107 0.90923 0.39657 0.0
C216 C 0.0355 0.92146 0.42208 0.0
C217 C 0.05669 0.92241 0.37526 0.0
C218 C 0.06186 0.96058 0.40536 0.0
C219 C 0.03884 0.95876 0.45493 0.0
C220 C 0.10088 0.89921 0.57989 0.0
C221 C 0.07835 0.88209 0.57727 0.0
H222 H 0.14043 0.93679 0.579 0.0
C223 C 0.03669 0.98945 0.57953 0.0
C224 C 0.04717 0.0355 0.51469 0.0
C225 C 0.96588 0.06384 0.6169 0.0
C226 C 0.94582 0.06588 0.6653 0.0
C227 C 0.9642 0.10626 0.63841 0.0
C228 C 0.97123 0.09164 0.61544 0.0
C229 C 0.95168 0.09354 0.6631 0.0
C230 C 0.95265 0.051 0.64181 0.0
C231 C 0.97873 0.04771 0.59649 0.0
H232 H 0.03325 0.88937 0.39332 0.0
H233 H 0.02324 0.91048 0.43818 0.0
H234 H 0.06086 0.91231 0.35567 0.0
H235 H 0.07003 0.98032 0.40872 0.0
H236 H 0.96895 0.12749 0.63742 0.0
H237 H 0.98179 0.10201 0.59716 0.0
H238 H 0.94667 0.10541 0.68081 0.0
H239 H 0.94906 0.02946 0.64388 0.0
C240 C 0.59318 0.53922 0.03563 0.0
C241 C 0.58903 0.5879 0.01962 0.0
C242 C 0.57739 0.563 0.02969 0.0
C243 C 0.61612 0.58842 0.01368 0.0
C244 C 0.62088 0.54002 0.0312 0.0
C245 C 0.63195 0.56454 0.01933 0.0
N246 N 0.58237 0.51596 0.04858 0.0
C247 C 0.59905 0.4938 0.06056 0.0
C248 C 0.63714 0.5165 0.0405 0.0
C249 C 0.62631 0.49344 0.05578 0.0
Gd250 Gd 0.47607 0.48833 0.99223 0.0
Gd251 Gd 0.53636 0.5198 0.05595 0.0
N252 N 0.55117 0.56209 0.03559 0.0
C253 C 0.57341 0.6117 0.01691 0.0
C254 C 0.5365 0.5853 0.03506 0.0
C255 C 0.54717 0.61041 0.0251 0.0
H256 H 0.5165 0.58427 0.04213 0.0
H257 H 0.53527 0.62875 0.02397 0.0
H258 H 0.48889 0.42142 0.99908 0.0
H259 H 0.59169 0.47639 0.07445 0.0
H260 H 0.46949 0.37877 0.02082 0.0
H261 H 0.58169 0.63119 0.00938 0.0
H262 H 0.62529 0.60732 0.00564 0.0
H263 H 0.42458 0.53494 0.97926 0.0
H264 H 0.65846 0.51632 0.03747 0.0
H265 H 0.63913 0.47558 0.0646 0.0
H266 H 0.3839 0.40579 0.04645 0.0
H267 H 0.65311 0.56543 0.01564 0.0
H268 H 0.35623 0.49878 0.01689 0.0
H269 H 0.37793 0.53873 0.99114 0.0
N270 N 0.43072 0.49394 1.00103 0.0
C271 C 0.41862 0.47141 0.01367 0.0
C272 C 0.41606 0.51766 0.99194 0.0
C273 C 0.37709 0.49716 0.01253 0.0
C274 C 0.38929 0.51976 0.99805 0.0
C275 C 0.39155 0.47247 0.02001 0.0
H276 H 0.35874 0.44926 0.03773 0.0
N277 N 0.45814 0.44629 0.0103 0.0
C278 C 0.43278 0.44688 0.01855 0.0
C279 C 0.43414 0.3982 0.03184 0.0
C280 C 0.42022 0.42284 0.02987 0.0
C281 C 0.47061 0.42213 0.00956 0.0
C282 C 0.4592 0.39782 0.02101 0.0
O283 O 0.52675 0.54066 0.00487 0.0
O284 O 0.51607 0.50445 0.9785 0.0
O285 O 0.47174 0.4633 0.95375 0.0
O286 O 0.45384 0.50419 0.94488 0.0
O287 O 0.49186 0.53255 0.05018 0.0
O288 O 0.47331 0.53302 0.99689 0.0
O289 O 0.47306 0.48374 0.04519 0.0
O290 O 0.51758 0.48047 0.07386 0.0
O291 O 0.52501 0.53537 0.09781 0.0
O292 O 0.56728 0.52624 0.09581 0.0
O293 O 0.51414 0.46204 0.00648 0.0
O294 O 0.54643 0.47764 0.04639 0.0
C295 C 0.5239 0.52956 0.97851 0.0
C296 C 0.47579 0.54353 0.0239 0.0
C297 C 0.44719 0.4783 0.89974 0.0
C298 C 0.4438 0.45282 0.85434 0.0
C299 C 0.41834 0.4951 0.84906 0.0
C300 C 0.42892 0.49785 0.88071 0.0
C301 C 0.42572 0.4728 0.83595 0.0
C302 C 0.45472 0.45557 0.88639 0.0
C303 C 0.45769 0.48193 0.93336 0.0
C304 C 0.39377 0.42402 0.03756 0.0
C305 C 0.37945 0.44877 0.03257 0.0
H306 H 0.42516 0.3793 0.04032 0.0
C307 C 0.49137 0.47437 0.07044 0.0
C308 C 0.53745 0.46006 0.02678 0.0
C309 C 0.55773 0.53085 0.14692 0.0
C310 C 0.56617 0.54981 0.19709 0.0
C311 C 0.58424 0.50521 0.19453 0.0
C312 C 0.57263 0.5074 0.16218 0.0
C313 C 0.58124 0.52636 0.21184 0.0
C314 C 0.55413 0.55192 0.16464 0.0
C315 C 0.55045 0.53584 0.11183 0.0
H316 H 0.40424 0.51027 0.83463 0.0
H317 H 0.42263 0.51532 0.89034 0.0
H318 H 0.41714 0.47103 0.81129 0.0
H319 H 0.46864 0.44013 0.90073 0.0
H320 H 0.59613 0.48733 0.20606 0.0
H321 H 0.57615 0.49123 0.14881 0.0
H322 H 0.59083 0.52453 0.23679 0.0
H323 H 0.54334 0.57041 0.15286 0.0
H324 H 0.2633 0.15814 0.43372 0.0
H325 H 0.22434 0.12814 0.44043 0.0
H326 H 0.19914 0.17754 0.5059 0.0
H327 H 0.2381 0.20715 0.49958 0.0
H328 H 0.21172 0.09929 0.50145 0.0
H329 H 0.12926 0.17185 0.43721 0.0
H330 H 0.16444 0.17467 0.4308 0.0
H331 H 0.15465 0.18529 0.46585 0.0
C332 C 0.24926 0.16257 0.44933 0.0
C333 C 0.25349 0.18488 0.4661 0.0
C334 C 0.22716 0.14546 0.45324 0.0
C335 C 0.20874 0.15082 0.47342 0.0
C336 C 0.21294 0.17323 0.48997 0.0
H337 H 0.07373 0.07213 0.55106 0.0
H338 H 0.1133 0.09937 0.54055 0.0
C339 C 0.23518 0.19004 0.48645 0.0
C340 C 0.18533 0.13287 0.47787 0.0
H341 H 0.11529 0.13241 0.46763 0.0
C342 C 0.19063 0.10641 0.49382 0.0
C343 C 0.15786 0.14223 0.46782 0.0
C344 C 0.15105 0.16998 0.44922 0.0
C345 C 0.16909 0.08935 0.50076 0.0
C346 C 0.14172 0.09903 0.49142 0.0
C347 C 0.13639 0.12524 0.475 0.0
C348 C 0.11822 0.08211 0.49817 0.0
C349 C 0.17551 0.06124 0.51846 0.0
C350 C 0.10786 0.06362 0.47762 0.0
C351 C 0.08465 0.04873 0.48283 0.0
C352 C 0.07158 0.05176 0.50903 0.0
C353 C 0.08261 0.06984 0.53009 0.0
C354 C 0.10548 0.08517 0.52441 0.0
H355 H 0.19793 0.05727 0.5258 0.0
H356 H 0.1656 0.05823 0.54014 0.0
H357 H 0.16691 0.04618 0.50289 0.0
H358 H 0.11755 0.06097 0.4573 0.0
H359 H 0.07707 0.03471 0.46639 0.0
H360 H 0.3431 0.74888 0.08589 0.0
H361 H 0.37193 0.70872 0.08733 0.0
H362 H 0.37221 0.72871 0.98593 0.0
H363 H 0.3445 0.7692 0.98454 0.0
H364 H 0.35878 0.66559 0.05508 0.0
H365 H 0.4525 0.71236 0.01867 0.0
H366 H 0.42714 0.73116 0.03303 0.0
H367 H 0.42179 0.72477 0.99206 0.0
C368 C 0.34984 0.74504 0.06406 0.0
C369 C 0.34134 0.76223 0.03505 0.0
C370 C 0.36616 0.72197 0.06487 0.0
C371 C 0.37452 0.7158 0.0368 0.0
C372 C 0.36654 0.73325 0.00804 0.0
H373 H 0.44939 0.58022 0.97432 0.0
H374 H 0.42396 0.62139 0.9783 0.0
C375 C 0.35033 0.75626 0.00721 0.0
C376 C 0.39004 0.69032 0.03689 0.0
H377 H 0.4472 0.66538 0.01469 0.0
C378 C 0.37827 0.66555 0.04661 0.0
C379 C 0.4155 0.69023 0.02584 0.0
C380 C 0.43014 0.71605 0.01712 0.0
C381 C 0.39081 0.64078 0.04459 0.0
C382 C 0.4158 0.64079 0.03262 0.0
C383 C 0.42782 0.66548 0.02343 0.0
C384 C 0.43014 0.61533 0.03013 0.0
C385 C 0.37694 0.61476 0.05442 0.0
C386 C 0.44206 0.59841 0.05792 0.0
C387 C 0.45654 0.57498 0.05573 0.0
C388 C 0.45942 0.56795 0.02566 0.0
C389 C 0.44732 0.5849 0.9978 0.0
C390 C 0.43289 0.60845 1.00004 0.0
H391 H 0.35565 0.61827 0.05831 0.0
H392 H 0.3764 0.60115 0.03589 0.0
H393 H 0.38881 0.60421 0.07711 0.0
H394 H 0.44053 0.60354 0.08137 0.0
H395 H 0.46561 0.56244 0.07772 0.0
H396 H 0.75684 0.84256 0.6207 0.0
H397 H 0.79404 0.87349 0.61574 0.0
H398 H 0.81221 0.83852 0.5351 0.0
H399 H 0.77496 0.80854 0.53792 0.0
H400 H 0.8521 0.85965 0.61682 0.0
H401 H 0.8044 0.92029 0.50208 0.0
H402 H 0.78454 0.90055 0.52852 0.0
H403 H 0.8024 0.88433 0.50277 0.0
C404 C 0.76809 0.8411 0.60147 0.0
C405 C 0.76164 0.82199 0.57985 0.0
C406 C 0.78977 0.85905 0.59894 0.0
C407 C 0.80565 0.8585 0.57482 0.0
C408 C 0.79986 0.8396 0.55361 0.0
H409 H 0.94111 0.93604 0.5001 0.0
H410 H 0.90268 0.90814 0.51255 0.0
C411 C 0.77819 0.82191 0.55578 0.0
C412 C 0.82868 0.8772 0.57164 0.0
H413 H 0.85223 0.92522 0.5183 0.0
C414 C 0.85207 0.87431 0.59556 0.0
C415 C 0.82856 0.89612 0.54374 0.0
C416 C 0.80357 0.90077 0.51788 0.0
C417 C 0.87587 0.88904 0.59164 0.0
C418 C 0.87596 0.90753 0.56332 0.0
C419 C 0.85223 0.91092 0.53987 0.0
C420 C 0.90054 0.92328 0.55712 0.0
C421 C 0.90109 0.88373 0.61709 0.0
C422 C 0.91215 0.94114 0.57796 0.0
C423 C 0.93486 0.95638 0.57153 0.0
C424 C 0.94609 0.95456 0.54369 0.0
C425 C 0.93387 0.9372 0.5224 0.0
C426 C 0.91156 0.92149 0.52925 0.0
H427 H 0.89952 0.86479 0.63369 0.0
H428 H 0.91973 0.88231 0.60604 0.0
H429 H 0.90367 0.90066 0.63151 0.0
H430 H 0.90339 0.94367 0.59897 0.0
H431 H 0.94328 0.96997 0.58815 0.0
H432 H 0.63603 0.22171 0.01792 0.0
H433 H 0.60822 0.26234 0.01783 0.0
H434 H 0.67882 0.31183 0.00797 0.0
H435 H 0.70639 0.27154 0.00737 0.0
H436 H 0.6163 0.29826 0.06078 0.0
H437 H 0.62162 0.35244 0.93968 0.0
H438 H 0.62972 0.31681 0.95085 0.0
H439 H 0.65452 0.34158 0.96244 0.0
C440 C 0.64548 0.24132 0.01545 0.0
C441 C 0.67331 0.24351 0.01241 0.0
C442 C 0.62959 0.26449 0.01531 0.0
C443 C 0.64129 0.2902 0.01223 0.0
C444 C 0.66909 0.29234 0.0093 0.0
H445 H 0.59025 0.45549 0.01683 0.0
H446 H 0.61571 0.41367 0.01556 0.0
C447 C 0.68487 0.26928 0.00912 0.0
C448 C 0.62508 0.31465 0.01436 0.0
H449 H 0.6057 0.37797 0.97608 0.0
C450 C 0.61377 0.31563 0.04216 0.0
C451 C 0.62187 0.33731 0.99008 0.0
C452 C 0.63234 0.33698 0.95894 0.0
C453 C 0.60017 0.33897 0.04694 0.0
C454 C 0.59724 0.36184 0.02284 0.0
C455 C 0.60818 0.36063 0.99474 0.0
C456 C 0.58263 0.38708 0.02596 0.0
C457 C 0.59001 0.33902 0.07833 0.0
C458 C 0.55581 0.38617 0.0328 0.0
C459 C 0.54196 0.40989 0.03512 0.0
C460 C 0.55389 0.43515 0.02883 0.0
C461 C 0.58072 0.43623 0.02214 0.0
C462 C 0.59506 0.41237 0.02093 0.0
H463 H 0.60153 0.32405 0.09756 0.0
H464 H 0.59185 0.35925 0.08629 0.0
H465 H 0.56812 0.33328 0.07535 0.0
H466 H 0.54538 0.36716 0.036 0.0
H467 H 0.52185 0.40842 0.04183 0.0
H468 H 0.22833 0.93956 0.17277 0.0
H469 H 0.2084 0.95298 0.2174 0.0
H470 H 0.13713 0.90555 0.19153 0.0
H471 H 0.15752 0.89134 0.14787 0.0
H472 H 0.16017 0.98041 0.2173 0.0
H473 H 0.15802 0.8777 0.28567 0.0
H474 H 0.17812 0.88529 0.25405 0.0
H475 H 0.14181 0.88006 0.24457 0.0
C476 C 0.20849 0.93194 0.17688 0.0
C477 C 0.19452 0.91422 0.15727 0.0
C478 C 0.19711 0.93961 0.20226 0.0
C479 C 0.17149 0.92988 0.20823 0.0
C480 C 0.15728 0.91268 0.18806 0.0
H481 H 0.04987 0.96253 0.3156 0.0
H482 H 0.0787 0.96395 0.27419 0.0
C483 C 0.16883 0.90467 0.16305 0.0
C484 C 0.15936 0.93796 0.2352 0.0
H485 H 0.13277 0.91232 0.30174 0.0
C486 C 0.15444 0.96554 0.23595 0.0
C487 C 0.1521 0.91858 0.25973 0.0
C488 C 0.158 0.88877 0.26124 0.0
C489 C 0.14142 0.9741 0.25983 0.0
C490 C 0.1334 0.95466 0.2836 0.0
C491 C 0.13907 0.9272 0.28346 0.0
C492 C 0.11699 0.96182 0.30738 0.0
C493 C 0.1359 0.00377 0.25944 0.0
C494 C 0.12903 0.96154 0.33963 0.0
C495 C 0.1125 0.96097 0.36343 0.0
C496 C 0.08379 0.96036 0.35517 0.0
C497 C 0.07193 0.9634 0.32254 0.0
C498 C 0.08838 0.96402 0.29887 0.0
H499 H 0.14483 0.01656 0.24046 0.0
H500 H 0.11341 0.00771 0.25537 0.0
H501 H 0.14455 0.00975 0.2831 0.0
H502 H 0.15111 0.95972 0.34662 0.0
H503 H 0.12215 0.95824 0.38838 0.0
H504 H 0.61907 0.69383 0.76174 0.0
H505 H 0.60236 0.67017 0.8088 0.0
H506 H 0.56846 0.60846 0.75358 0.0
H507 H 0.58402 0.63226 0.70626 0.0
H508 H 0.54552 0.65233 0.81537 0.0
H509 H 0.6218 0.56784 0.83315 0.0
H510 H 0.62684 0.60066 0.8114 0.0
H511 H 0.604 0.57726 0.79282 0.0
C512 C 0.60773 0.67543 0.75941 0.0
C513 C 0.60331 0.66481 0.73016 0.0
C514 C 0.59835 0.66186 0.78642 0.0
C515 C 0.58466 0.63732 0.78477 0.0
C516 C 0.57949 0.62709 0.7555 0.0
H517 H 0.51989 0.51532 0.91777 0.0
H518 H 0.53332 0.54219 0.87027 0.0
C519 C 0.58859 0.64071 0.72849 0.0
C520 C 0.57582 0.62208 0.81355 0.0
H521 H 0.5864 0.56252 0.86437 0.0
C522 C 0.55452 0.63277 0.82626 0.0
C523 C 0.58765 0.5966 0.82764 0.0
C524 C 0.6115 0.58488 0.81583 0.0
C525 C 0.54422 0.61827 0.85223 0.0
C526 C 0.55576 0.59252 0.86603 0.0
C527 C 0.57731 0.58205 0.85351 0.0
C528 C 0.54647 0.57658 0.89422 0.0
C529 C 0.52058 0.63028 0.86415 0.0
C530 C 0.54926 0.58697 0.92331 0.0
C531 C 0.54112 0.57195 0.95007 0.0
C532 C 0.53099 0.54568 0.94901 0.0
C533 C 0.52803 0.53528 0.91972 0.0
C534 C 0.53571 0.55061 0.89256 0.0
H535 H 0.5102 0.64718 0.84665 0.0
H536 H 0.50525 0.61464 0.86912 0.0
H537 H 0.52834 0.63834 0.88681 0.0
H538 H 0.55795 0.6067 0.92547 0.0
H539 H 0.54289 0.5811 0.97159 0.0
H540 H 0.86076 0.12009 0.18705 0.0
H541 H 0.88681 0.10726 0.24114 0.0
H542 H 0.84882 0.02926 0.24635 0.0
H543 H 0.82243 0.04224 0.19216 0.0
H544 H 0.86461 0.09023 0.29879 0.0
H545 H 0.93313 0.01228 0.27031 0.0
H546 H 0.91518 0.03789 0.24002 0.0
H547 H 0.89702 0.00944 0.25606 0.0
C548 C 0.85809 0.10018 0.19977 0.0
C549 C 0.83974 0.08209 0.1856 0.0
C550 C 0.8729 0.0929 0.23059 0.0
C551 C 0.86999 0.06722 0.24755 0.0
C552 C 0.8516 0.04906 0.23346 0.0
H553 H 0.94536 0.9864 0.43421 0.0
H554 H 0.91881 0.99904 0.38061 0.0
C555 C 0.83645 0.05651 0.20272 0.0
C556 C 0.88571 0.05991 0.28034 0.0
H557 H 0.93643 0.01778 0.32476 0.0
C558 C 0.88035 0.07442 0.30454 0.0
C559 C 0.90623 0.03933 0.28763 0.0
C560 C 0.9135 0.02389 0.26218 0.0
C561 C 0.89465 0.06858 0.33606 0.0
C562 C 0.91526 0.04801 0.34342 0.0
C563 C 0.92063 0.03353 0.31913 0.0
C564 C 0.93112 0.04081 0.37628 0.0
C565 C 0.88704 0.08401 0.36135 0.0
C566 C 0.94695 0.06008 0.39175 0.0
C567 C 0.96186 0.05301 0.42268 0.0
C568 C 0.96171 0.02637 0.43837 0.0
C569 C 0.94604 0.00707 0.42271 0.0
C570 C 0.93085 0.01425 0.39204 0.0
H571 H 0.8666 0.09419 0.35362 0.0
H572 H 0.88684 0.0704 0.38419 0.0
H573 H 0.90241 0.09984 0.36598 0.0
H574 H 0.94807 0.08052 0.37976 0.0
H575 H 0.97397 0.06823 0.434 0.0
H576 H 0.37113 0.32526 0.62871 0.0
H577 H 0.38544 0.34371 0.67813 0.0
H578 H 0.461 0.3697 0.64694 0.0
H579 H 0.4457 0.35422 0.59568 0.0
H580 H 0.42792 0.32948 0.72427 0.0
H581 H 0.4387 0.43749 0.67617 0.0
H582 H 0.42078 0.41386 0.6522 0.0
H583 H 0.45767 0.41421 0.65939 0.0
C584 C 0.39042 0.33565 0.63146 0.0
C585 C 0.40688 0.33831 0.60724 0.0
C586 C 0.39879 0.34586 0.66028 0.0
C587 C 0.42414 0.3585 0.66623 0.0
C588 C 0.441 0.36072 0.64268 0.0
H589 H 0.48854 0.44398 0.82713 0.0
H590 H 0.48915 0.41581 0.78451 0.0
C591 C 0.43233 0.35119 0.6134 0.0
C592 C 0.43304 0.36848 0.69753 0.0
H593 H 0.45184 0.42506 0.73165 0.0
C594 C 0.43327 0.35037 0.72587 0.0
C595 C 0.44019 0.3957 0.69971 0.0
C596 C 0.43913 0.41654 0.6703 0.0
C597 C 0.44008 0.35874 0.75622 0.0
C598 C 0.44661 0.38609 0.75843 0.0
C599 C 0.44716 0.40402 0.73009 0.0
C600 C 0.45004 0.39742 0.78931 0.0
C601 C 0.44014 0.3381 0.78557 0.0
C602 C 0.42867 0.39543 0.80738 0.0
C603 C 0.42863 0.41107 0.83204 0.0
C604 C 0.44975 0.42929 0.83888 0.0
C605 C 0.47229 0.42969 0.82273 0.0
C606 C 0.47245 0.41384 0.79812 0.0
H607 H 0.44449 0.31744 0.78064 0.0
H608 H 0.45557 0.34281 0.80599 0.0
H609 H 0.41955 0.33796 0.79266 0.0
H610 H 0.4108 0.38357 0.80071 0.0
H611 H 0.41076 0.41088 0.84368 0.0
H612 H 0.64095 0.64648 0.44688 0.0
H613 H 0.62781 0.62804 0.39631 0.0
H614 H 0.55 0.67094 0.38003 0.0
H615 H 0.56364 0.69023 0.42992 0.0
H616 H 0.58493 0.59652 0.37662 0.0
H617 H 0.57728 0.69502 0.29676 0.0
H618 H 0.59419 0.69115 0.33801 0.0
H619 H 0.55737 0.69314 0.32844 0.0
C620 C 0.62109 0.65192 0.43237 0.0
C621 C 0.60333 0.66987 0.44189 0.0
C622 C 0.61359 0.64143 0.40359 0.0
C623 C 0.58813 0.64855 0.3841 0.0
C624 C 0.57005 0.66583 0.39419 0.0
H625 H 0.52159 0.56716 0.2192 0.0
H626 H 0.52276 0.59501 0.26263 0.0
C627 C 0.57774 0.67668 0.4227 0.0
C628 C 0.58054 0.63772 0.35333 0.0
H629 H 0.5645 0.6563 0.27221 0.0
C630 C 0.58024 0.60959 0.35384 0.0
C631 C 0.57466 0.65486 0.32358 0.0
C632 C 0.57609 0.68522 0.32146 0.0
C633 C 0.57446 0.59815 0.32538 0.0
C634 C 0.56863 0.61526 0.29575 0.0
C635 C 0.56853 0.64335 0.29512 0.0
C636 C 0.56586 0.60396 0.2653 0.0
C637 C 0.57555 0.56781 0.32691 0.0
C638 C 0.58938 0.60095 0.25174 0.0
C639 C 0.58878 0.58504 0.2273 0.0
C640 C 0.56458 0.57215 0.21595 0.0
C641 C 0.5404 0.5771 0.22755 0.0
C642 C 0.54107 0.59287 0.25231 0.0
H643 H 0.58019 0.55728 0.35193 0.0
H644 H 0.55559 0.56068 0.31521 0.0
H645 H 0.59154 0.56202 0.31357 0.0
H646 H 0.60867 0.60935 0.26158 0.0
H647 H 0.60764 0.58138 0.21869 0.0
H648 H 0.85562 0.12065 0.89763 0.0
H649 H 0.87615 0.10656 0.85423 0.0
H650 H 0.80766 0.05488 0.83185 0.0
H651 H 0.78707 0.06858 0.87561 0.0
H652 H 0.8896 0.05064 0.85075 0.0
H653 H 0.8168 0.09777 0.74363 0.0
H654 H 0.81973 0.10976 0.78201 0.0
H655 H 0.80259 0.07878 0.77578 0.0
C656 C 0.84488 0.10628 0.8835 0.0
C657 C 0.81979 0.09558 0.89025 0.0
C658 C 0.85658 0.09838 0.85859 0.0
C659 C 0.84335 0.07981 0.83974 0.0
C660 C 0.81799 0.06956 0.84582 0.0
H661 H 0.89641 0.04028 0.66619 0.0
H662 H 0.87099 0.03527 0.71135 0.0
C663 C 0.80626 0.07743 0.87082 0.0
C664 C 0.85709 0.07001 0.81511 0.0
H665 H 0.85408 0.07288 0.7345 0.0
C666 C 0.88178 0.05526 0.82528 0.0
C667 C 0.84654 0.07565 0.78205 0.0
C668 C 0.82004 0.09147 0.76999 0.0
C669 C 0.89653 0.04624 0.80327 0.0
C670 C 0.88695 0.05322 0.76988 0.0
C671 C 0.86163 0.06729 0.75987 0.0
C672 C 0.90406 0.04912 0.74506 0.0
C673 C 0.92202 0.02909 0.81651 0.0
C674 C 0.93165 0.05684 0.74916 0.0
C675 C 0.94643 0.05833 0.72397 0.0
C676 C 0.93368 0.05365 0.69337 0.0
C677 C 0.90682 0.04386 0.68957 0.0
C678 C 0.89218 0.04144 0.71532 0.0
H679 H 0.91946 0.01596 0.839 0.0
H680 H 0.92711 0.01607 0.79923 0.0
H681 H 0.93952 0.04244 0.82274 0.0
H682 H 0.94135 0.0639 0.77102 0.0
H683 H 0.96712 0.06593 0.72753 0.0
H684 H 0.4262 0.30628 0.303 0.0
H685 H 0.44191 0.33122 0.25563 0.0
H686 H 0.41225 0.40585 0.27884 0.0
H687 H 0.39645 0.38091 0.32595 0.0
H688 H 0.40935 0.36581 0.20274 0.0
H689 H 0.49305 0.42128 0.26852 0.0
H690 H 0.47891 0.39073 0.28668 0.0
H691 H 0.46043 0.42232 0.28169 0.0
C692 C 0.42317 0.32801 0.29787 0.0
C693 C 0.41024 0.34183 0.31788 0.0
C694 C 0.43208 0.34221 0.27092 0.0
C695 C 0.42856 0.37043 0.26397 0.0
C696 C 0.41554 0.38416 0.28402 0.0
H697 H 0.46247 0.49386 0.11123 0.0
H698 H 0.44649 0.46837 0.15808 0.0
C699 C 0.40641 0.36995 0.31075 0.0
C700 C 0.43794 0.38552 0.23541 0.0
H701 H 0.48212 0.4343 0.21241 0.0
C702 C 0.42537 0.38066 0.20482 0.0
C703 C 0.45879 0.40494 0.23822 0.0
C704 C 0.47381 0.41008 0.2705 0.0
C705 C 0.4328 0.39506 0.17694 0.0
C706 C 0.45354 0.41455 0.17978 0.0
C707 C 0.46614 0.4194 0.21035 0.0
C708 C 0.46274 0.42985 0.15126 0.0
C709 C 0.41802 0.38986 0.14458 0.0
C710 C 0.47736 0.41666 0.13218 0.0
C711 C 0.48675 0.43122 0.10581 0.0
C712 C 0.48144 0.45908 0.09804 0.0
C713 C 0.46666 0.4723 0.1169 0.0
C714 C 0.45759 0.45781 0.14355 0.0
H715 H 0.39965 0.37725 0.14649 0.0
H716 H 0.41155 0.40928 0.12909 0.0
H717 H 0.43213 0.37921 0.13261 0.0
H718 H 0.48175 0.39515 0.13792 0.0
H719 H 0.49805 0.42073 0.0914 0.0
H720 H 0.13433 0.92258 0.88021 0.0
H721 H 0.10767 0.93585 0.82633 0.0
H722 H 0.18289 0.95059 0.78862 0.0
H723 H 0.20948 0.93681 0.84242 0.0
H724 H 0.10541 0.98324 0.78282 0.0
H725 H 0.1445 0.89693 0.73324 0.0
H726 H 0.14833 0.89824 0.77574 0.0
H727 H 0.17084 0.917 0.7522 0.0
C728 C 0.14502 0.92888 0.86034 0.0
C729 C 0.17379 0.92871 0.86513 0.0
C730 C 0.12986 0.93642 0.82967 0.0
C731 C 0.14329 0.94374 0.80335 0.0
C732 C 0.17211 0.94445 0.80844 0.0
H733 H 0.09175 0.99041 0.59914 0.0
H734 H 0.11696 0.9794 0.65403 0.0
C735 C 0.18727 0.93682 0.8391 0.0
C736 C 0.12717 0.95003 0.77053 0.0
H737 H 0.11769 0.93015 0.69622 0.0
C738 C 0.10799 0.97158 0.7639 0.0
C739 C 0.13041 0.93466 0.74594 0.0
C740 C 0.14942 0.91025 0.75209 0.0
C741 C 0.09249 0.9786 0.7331 0.0
C742 C 0.09609 0.96347 0.70842 0.0
C743 C 0.11509 0.94181 0.71514 0.0
C744 C 0.08066 0.96993 0.67528 0.0
C745 C 0.07291 0.00256 0.72697 0.0
C746 C 0.05198 0.96778 0.66893 0.0
C747 C 0.03769 0.97362 0.63752 0.0
C748 C 0.05191 0.98154 0.61208 0.0
C749 C 0.08052 0.98368 0.61835 0.0
C750 C 0.09484 0.97765 0.64968 0.0
H751 H 0.0766 0.01528 0.74656 0.0
H752 H 0.07473 0.01529 0.70398 0.0
H753 H 0.05155 0.99529 0.72523 0.0
H754 H 0.04066 0.96146 0.68822 0.0
H755 H 0.01554 0.97221 0.6331 0.0
loop_
_geom_bond_atom_site_label_1
_geom_bond_atom_site_label_2
_geom_bond_distance
_geom_bond_site_symmetry_2
_ccdc_geom_bond_type
C0 C1 1.386 . S
C0 C2 1.397 . S
C0 H24 0.931 . S
C1 C0 1.386 . S
C1 C5 1.397 . S
C2 C0 1.397 . S
C2 C3 1.384 . S
C2 H25 0.930 . S
C3 C2 1.384 . S
C3 C4 1.377 . S
C3 C6 1.481 . S
C4 C3 1.377 . S
C4 C5 1.389 . S
C4 H26 0.929 . S
C5 C1 1.397 . S
C5 C4 1.389 . S
C5 H27 0.931 . S
C6 C3 1.481 . S
C6 C7 1.387 . S
C6 C11 1.390 1_556 S
C7 C6 1.387 . S
C7 C8 1.401 1_556 S
C7 H28 0.930 . S
C8 C7 1.401 1_554 S
C8 C9 1.376 . S
C8 C17 1.511 . S
C9 C8 1.376 . S
C9 C10 1.392 . S
C9 H30 0.931 . S
C10 C9 1.392 . S
C10 C11 1.361 . S
C10 C12 1.500 . S
C11 C6 1.390 1_554 S
C11 C10 1.361 . S
C11 H29 0.931 . S
C12 C10 1.500 . S
C12 C13 1.371 . S
C12 C14 1.365 . S
C13 C12 1.371 . S
C13 C23 1.386 . S
C13 H31 0.931 . S
C14 C12 1.365 . S
C14 C15 1.409 . S
C14 H32 0.929 . S
C15 C14 1.409 . S
C15 C16 1.380 . S
C15 H33 0.930 . S
C16 C15 1.380 . S
C16 C23 1.357 . S
C17 C8 1.511 . S
C17 C18 1.341 . S
C17 C19 1.371 . S
C18 C17 1.341 . S
C18 C22 1.394 . S
C18 H34 0.930 1_554 S
C19 C17 1.371 . S
C19 C20 1.392 . S
C19 H35 0.931 . S
C20 C19 1.392 . S
C20 C21 1.331 . S
C20 H38 0.932 . S
C21 C20 1.331 . S
C21 C22 1.336 . S
C22 C18 1.394 . S
C22 C21 1.336 . S
C22 H37 0.929 1_554 S
C23 C13 1.386 . S
C23 C16 1.357 . S
C23 H36 0.928 . S
H24 C0 0.931 . S
H25 C2 0.930 . S
H26 C4 0.929 . S
H27 C5 0.931 . S
H28 C7 0.930 . S
H29 C11 0.931 . S
H30 C9 0.931 . S
H31 C13 0.931 . S
H32 C14 0.929 . S
H33 C15 0.930 . S
H34 C18 0.930 1_556 S
H35 C19 0.931 . S
H36 C23 0.928 . S
H37 C22 0.929 1_556 S
H38 C20 0.932 . S
C39 C40 1.386 . S
C39 C41 1.397 . S
C39 H63 0.931 . S
C40 C39 1.386 . S
C40 C44 1.397 . S
C41 C39 1.397 . S
C41 C42 1.384 . S
C41 H64 0.930 . S
C42 C41 1.384 . S
C42 C43 1.377 . S
C42 C45 1.481 . S
C43 C42 1.377 . S
C43 C44 1.389 . S
C43 H65 0.929 . S
C44 C40 1.397 . S
C44 C43 1.389 . S
C44 H66 0.931 . S
C45 C42 1.481 . S
C45 C46 1.387 . S
C45 C50 1.390 . S
C46 C45 1.387 . S
C46 C47 1.401 . S
C46 H67 0.930 . S
C47 C46 1.401 . S
C47 C48 1.376 . S
C47 C56 1.511 . S
C48 C47 1.376 . S
C48 C49 1.392 . S
C48 H69 0.931 . S
C49 C48 1.392 . S
C49 C50 1.361 . S
C49 C51 1.500 . S
C50 C45 1.390 . S
C50 C49 1.361 . S
C50 H68 0.931 . S
C51 C49 1.500 . S
C51 C52 1.371 . S
C51 C53 1.365 . S
C52 C51 1.371 . S
C52 C62 1.386 . S
C52 H70 0.931 . S
C53 C51 1.365 . S
C53 C54 1.409 . S
C53 H71 0.929 . S
C54 C53 1.409 . S
C54 C55 1.380 . S
C54 H72 0.930 . S
C55 C54 1.380 . S
C55 C62 1.357 . S
C56 C47 1.511 . S
C56 C57 1.341 . S
C56 C58 1.371 . S
C57 C56 1.341 . S
C57 C61 1.394 . S
C57 H73 0.930 . S
C58 C56 1.371 . S
C58 C59 1.392 . S
C58 H74 0.931 . S
C59 C58 1.392 . S
C59 C60 1.331 . S
C59 H77 0.932 . S
C60 C59 1.331 . S
C60 C61 1.336 . S
C61 C57 1.394 . S
C61 C60 1.336 . S
C61 H76 0.929 . S
C62 C52 1.386 . S
C62 C55 1.357 . S
C62 H75 0.928 . S
H63 C39 0.931 . S
H64 C41 0.930 . S
H65 C43 0.929 . S
H66 C44 0.931 . S
H67 C46 0.930 . S
H68 C50 0.931 . S
H69 C48 0.931 . S
H70 C52 0.931 . S
H71 C53 0.929 . S
H72 C54 0.930 . S
H73 C57 0.930 . S
H74 C58 0.931 . S
H75 C62 0.928 . S
H76 C61 0.929 . S
H77 C59 0.932 . S
C78 C79 1.386 . S
C78 C80 1.397 . S
C78 H102 0.931 . S
C79 C78 1.386 . S
C79 C83 1.397 . S
C80 C78 1.397 . S
C80 C81 1.384 . S
C80 H103 0.930 . S
C81 C80 1.384 . S
C81 C82 1.377 . S
C81 C84 1.481 . S
C82 C81 1.377 . S
C82 C83 1.389 . S
C82 H104 0.929 . S
C83 C79 1.397 . S
C83 C82 1.389 . S
C83 H105 0.931 . S
C84 C81 1.481 . S
C84 C85 1.387 . S
C84 C89 1.390 . S
C85 C84 1.387 . S
C85 C86 1.401 . S
C85 H106 0.930 . S
C86 C85 1.401 . S
C86 C87 1.376 1_554 S
C86 C95 1.511 . S
C87 C86 1.376 1_556 S
C87 C88 1.392 . S
C87 H108 0.931 . S
C88 C87 1.392 . S
C88 C89 1.361 1_556 S
C88 C90 1.500 . S
C89 C84 1.390 . S
C89 C88 1.361 1_554 S
C89 H107 0.931 . S
C90 C88 1.500 . S
C90 C91 1.371 . S
C90 C92 1.365 . S
C91 C90 1.371 . S
C91 C101 1.386 . S
C91 H109 0.931 . S
C92 C90 1.365 . S
C92 C93 1.409 . S
C92 H110 0.929 . S
C93 C92 1.409 . S
C93 C94 1.380 . S
C93 H111 0.930 . S
C94 C93 1.380 . S
C94 C101 1.357 . S
C95 C86 1.511 . S
C95 C96 1.341 . S
C95 C97 1.371 1_554 S
C96 C95 1.341 . S
C96 C100 1.394 . S
C96 H112 0.930 . S
C97 C95 1.371 1_556 S
C97 C98 1.392 . S
C97 H113 0.931 . S
C98 C97 1.392 . S
C98 C99 1.331 1_556 S
C98 H116 0.932 . S
C99 C98 1.331 1_554 S
C99 C100 1.336 . S
C100 C96 1.394 . S
C100 C99 1.336 . S
C100 H115 0.929 . S
C101 C91 1.386 . S
C101 C94 1.357 . S
C101 H114 0.928 . S
H102 C78 0.931 . S
H103 C80 0.930 . S
H104 C82 0.929 . S
H105 C83 0.931 . S
H106 C85 0.930 . S
H107 C89 0.931 . S
H108 C87 0.931 . S
H109 C91 0.931 . S
H110 C92 0.929 . S
H111 C93 0.930 . S
H112 C96 0.930 . S
H113 C97 0.931 . S
H114 C101 0.928 . S
H115 C100 0.929 . S
H116 C98 0.932 . S
C117 C118 1.386 . S
C117 C119 1.397 . S
C117 H141 0.931 . S
C118 C117 1.386 . S
C118 C122 1.397 . S
C119 C117 1.397 . S
C119 C120 1.384 . S
C119 H142 0.930 . S
C120 C119 1.384 . S
C120 C121 1.377 . S
C120 C123 1.481 . S
C121 C120 1.377 . S
C121 C122 1.389 . S
C121 H143 0.929 . S
C122 C118 1.397 . S
C122 C121 1.389 . S
C122 H144 0.931 . S
C123 C120 1.481 . S
C123 C124 1.387 . S
C123 C128 1.390 . S
C124 C123 1.387 . S
C124 C125 1.401 . S
C124 H145 0.930 . S
C125 C124 1.401 . S
C125 C126 1.376 . S
C125 C134 1.511 . S
C126 C125 1.376 . S
C126 C127 1.392 . S
C126 H147 0.931 . S
C127 C126 1.392 . S
C127 C128 1.361 . S
C127 C129 1.500 . S
C128 C123 1.390 . S
C128 C127 1.361 . S
C128 H146 0.931 . S
C129 C127 1.500 . S
C129 C130 1.371 . S
C129 C131 1.365 . S
C130 C129 1.371 . S
C130 C140 1.386 . S
C130 H148 0.931 . S
C131 C129 1.365 . S
C131 C132 1.409 . S
C131 H149 0.929 . S
C132 C131 1.409 . S
C132 C133 1.380 . S
C132 H150 0.930 . S
C133 C132 1.380 . S
C133 C140 1.357 . S
C134 C125 1.511 . S
C134 C135 1.341 . S
C134 C136 1.371 . S
C135 C134 1.341 . S
C135 C139 1.394 . S
C135 H151 0.930 . S
C136 C134 1.371 . S
C136 C137 1.392 . S
C136 H152 0.931 . S
C137 C136 1.392 . S
C137 C138 1.331 . S
C137 H155 0.932 . S
C138 C137 1.331 . S
C138 C139 1.336 . S
C139 C135 1.394 . S
C139 C138 1.336 . S
C139 H154 0.929 . S
C140 C130 1.386 . S
C140 C133 1.357 . S
C140 H153 0.928 . S
H141 C117 0.931 . S
H142 C119 0.930 . S
H143 C121 0.929 . S
H144 C122 0.931 . S
H145 C124 0.930 . S
H146 C128 0.931 . S
H147 C126 0.931 . S
H148 C130 0.931 . S
H149 C131 0.929 . S
H150 C132 0.930 . S
H151 C135 0.930 . S
H152 C136 0.931 . S
H153 C140 0.928 . S
H154 C139 0.929 . S
H155 C137 0.932 . S
C156 C158 1.422 . S
C156 C160 1.415 . S
C156 N162 1.369 . S
C157 C158 1.421 . S
C157 C159 1.417 . S
C157 C169 1.422 . S
C158 C156 1.422 . S
C158 C157 1.421 . S
C158 N168 1.359 . S
C159 C157 1.417 . S
C159 C161 1.329 . S
C159 H178 0.930 . S
C160 C156 1.415 . S
C160 C161 1.437 . S
C160 C164 1.413 . S
C161 C159 1.329 . S
C161 C160 1.437 . S
C161 H183 0.929 . S
N162 C156 1.369 . S
N162 C163 1.338 1_655 S
N162 Gd167 2.622 . S
C163 N162 1.338 1_455 S
C163 C165 1.378 . S
C163 H175 0.929 . S
C164 C160 1.413 . S
C164 C165 1.342 1_655 S
C164 H180 0.931 . S
C165 C163 1.378 . S
C165 C164 1.342 1_455 S
C165 H181 0.936 . S
Gd166 N186 2.622 . S
Gd166 N193 2.570 . S
Gd166 O200 2.359 1_455 S
Gd166 O201 2.468 . S
Gd166 O202 2.427 . S
Gd166 O204 2.388 1_455 S
Gd166 O205 2.386 . S
Gd166 O209 2.307 1_565 S
Gd166 C219 2.805 . S
Gd167 N162 2.622 . S
Gd167 N168 2.570 . S
Gd167 O199 2.386 . S
Gd167 O203 2.307 1_545 S
Gd167 O206 2.353 1_655 S
Gd167 O207 2.468 . S
Gd167 O208 2.427 . S
Gd167 O210 2.388 1_655 S
Gd167 C231 2.805 . S
N168 C158 1.359 . S
N168 Gd167 2.570 . S
N168 C170 1.343 . S
C169 C157 1.422 . S
C169 C171 1.321 . S
C169 H177 0.931 . S
C170 N168 1.343 . S
C170 C171 1.390 . S
C170 H172 0.931 . S
C171 C169 1.321 . S
C171 C170 1.390 . S
C171 H173 0.930 . S
H172 C170 0.931 . S
H173 C171 0.930 . S
H174 C197 0.931 . S
H175 C163 0.929 . S
H176 C198 0.930 . S
H177 C169 0.931 . S
H178 C159 0.930 . S
H179 C188 0.929 1_655 S
H180 C164 0.931 . S
H181 C165 0.936 . S
H182 C220 0.930 . S
H183 C161 0.929 . S
H184 C189 0.931 . S
H185 C190 0.930 1_655 S
N186 Gd166 2.622 . S
N186 C187 1.369 . S
N186 C188 1.338 . S
C187 N186 1.369 . S
C187 C191 1.415 . S
C187 C194 1.422 . S
C188 H179 0.929 1_455 S
C188 N186 1.338 . S
C188 C190 1.378 . S
C189 H184 0.931 . S
C189 C190 1.348 . S
C189 C191 1.413 . S
C190 H185 0.930 1_455 S
C190 C188 1.378 . S
C190 C189 1.348 . S
C191 C187 1.415 . S
C191 C189 1.413 . S
C191 C221 1.437 . S
H192 C221 0.929 . S
N193 Gd166 2.570 . S
N193 C194 1.359 . S
N193 C197 1.343 . S
C194 C187 1.422 . S
C194 N193 1.359 . S
C194 C196 1.421 . S
C195 C196 1.422 . S
C195 C198 1.321 . S
C195 H222 0.931 . S
C196 C194 1.421 . S
C196 C195 1.422 . S
C196 C220 1.417 . S
C197 H174 0.931 . S
C197 N193 1.343 . S
C197 C198 1.390 . S
C198 H176 0.930 . S
C198 C195 1.321 . S
C198 C197 1.390 . S
O199 Gd167 2.386 . S
O199 C211 1.265 . S
O200 Gd166 2.359 1_655 S
O200 C211 1.233 1_565 S
O201 Gd166 2.468 . S
O201 C219 1.263 . S
O202 Gd166 2.427 . S
O202 C219 1.252 . S
O203 Gd167 2.307 1_565 S
O203 C212 1.261 . S
O204 Gd166 2.388 1_655 S
O204 C212 1.252 . S
O205 Gd166 2.386 . S
O205 C223 1.265 . S
O206 Gd167 2.353 1_455 S
O206 C223 1.242 1_545 S
O207 Gd167 2.468 . S
O207 C231 1.263 . S
O208 Gd167 2.427 . S
O208 C231 1.252 . S
O209 Gd166 2.307 1_545 S
O209 C224 1.261 . S
O210 Gd167 2.388 1_455 S
O210 C224 1.252 . S
C211 O199 1.265 . S
C211 O200 1.233 1_545 S
C212 O203 1.261 . S
C212 O204 1.252 . S
C213 C216 1.394 . S
C213 C218 1.370 . S
C213 C219 1.500 . S
C214 C217 1.383 . S
C214 C218 1.395 . S
C215 C216 1.396 . S
C215 C217 1.365 . S
C215 H232 0.929 . S
C216 C213 1.394 . S
C216 C215 1.396 . S
C216 H233 0.930 . S
C217 C214 1.383 . S
C217 C215 1.365 . S
C217 H234 0.931 . S
C218 C213 1.370 . S
C218 C214 1.395 . S
C218 H235 0.930 . S
C219 Gd166 2.805 . S
C219 O201 1.263 . S
C219 O202 1.252 . S
C219 C213 1.500 . S
C220 H182 0.930 . S
C220 C196 1.417 . S
C220 C221 1.329 . S
C221 C191 1.437 . S
C221 H192 0.929 . S
C221 C220 1.329 . S
H222 C195 0.931 . S
C223 O205 1.265 . S
C223 O206 1.242 1_565 S
C224 O209 1.261 . S
C224 O210 1.252 . S
C225 C228 1.394 . S
C225 C230 1.370 . S
C225 C231 1.500 . S
C226 C229 1.383 . S
C226 C230 1.395 . S
C227 C228 1.396 . S
C227 C229 1.365 . S
C227 H236 0.929 . S
C228 C225 1.394 . S
C228 C227 1.396 . S
C228 H237 0.930 . S
C229 C226 1.383 . S
C229 C227 1.365 . S
C229 H238 0.931 . S
C230 C225 1.370 . S
C230 C226 1.395 . S
C230 H239 0.930 . S
C231 Gd167 2.805 . S
C231 O207 1.263 . S
C231 O208 1.252 . S
C231 C225 1.500 . S
H232 C215 0.929 . S
H233 C216 0.930 . S
H234 C217 0.931 . S
H235 C218 0.930 . S
H236 C227 0.929 . S
H237 C228 0.930 . S
H238 C229 0.931 . S
H239 C230 0.930 . S
C240 C242 1.422 . S
C240 C244 1.415 . S
C240 N246 1.369 . S
C241 C242 1.421 . S
C241 C243 1.417 . S
C241 C253 1.422 . S
C242 C240 1.422 . S
C242 C241 1.421 . S
C242 N252 1.359 . S
C243 C241 1.417 . S
C243 C245 1.329 . S
C243 H262 0.930 . S
C244 C240 1.415 . S
C244 C245 1.437 . S
C244 C248 1.413 . S
C245 C243 1.329 . S
C245 C244 1.437 . S
C245 H267 0.929 . S
N246 C240 1.369 . S
N246 C247 1.338 . S
N246 Gd251 2.622 . S
C247 N246 1.338 . S
C247 C249 1.378 . S
C247 H259 0.929 . S
C248 C244 1.413 . S
C248 C249 1.348 . S
C248 H264 0.931 . S
C249 C247 1.378 . S
C249 C248 1.348 . S
C249 H265 0.930 . S
Gd250 N270 2.622 . S
Gd250 N277 2.570 1_556 S
Gd250 O284 2.353 . S
Gd250 O285 2.468 . S
Gd250 O286 2.427 . S
Gd250 O288 2.388 . S
Gd250 O289 2.386 1_556 S
Gd250 O293 2.307 1_556 S
Gd250 C303 2.805 . S
Gd251 N246 2.622 . S
Gd251 N252 2.570 . S
Gd251 O283 2.386 1_554 S
Gd251 O287 2.307 . S
Gd251 O290 2.353 . S
Gd251 O291 2.468 . S
Gd251 O292 2.427 . S
Gd251 O294 2.388 . S
Gd251 C315 2.805 . S
N252 C242 1.359 . S
N252 Gd251 2.570 . S
N252 C254 1.343 . S
C253 C241 1.422 . S
C253 C255 1.321 . S
C253 H261 0.931 . S
C254 N252 1.343 . S
C254 C255 1.390 . S
C254 H256 0.931 . S
C255 C253 1.321 . S
C255 C254 1.390 . S
C255 H257 0.930 . S
H256 C254 0.931 . S
H257 C255 0.930 . S
H258 C281 0.931 . S
H259 C247 0.929 . S
H260 C282 0.930 . S
H261 C253 0.931 . S
H262 C243 0.930 . S
H263 C272 0.929 . S
H264 C248 0.931 . S
H265 C249 0.930 . S
H266 C304 0.930 . S
H267 C245 0.929 . S
H268 C273 0.931 . S
H269 C274 0.930 . S
N270 Gd250 2.622 . S
N270 C271 1.369 1_556 S
N270 C272 1.338 . S
C271 N270 1.369 1_554 S
C271 C275 1.415 . S
C271 C278 1.422 . S
C272 H263 0.929 . S
C272 N270 1.338 . S
C272 C274 1.378 . S
C273 H268 0.931 . S
C273 C274 1.348 1_554 S
C273 C275 1.413 . S
C274 H269 0.930 . S
C274 C272 1.378 . S
C274 C273 1.348 1_556 S
C275 C271 1.415 . S
C275 C273 1.413 . S
C275 C305 1.437 . S
H276 C305 0.929 . S
N277 Gd250 2.570 1_554 S
N277 C278 1.359 . S
N277 C281 1.343 . S
C278 C271 1.422 . S
C278 N277 1.359 . S
C278 C280 1.421 . S
C279 C280 1.422 . S
C279 C282 1.321 . S
C279 H306 0.931 . S
C280 C278 1.421 . S
C280 C279 1.422 . S
C280 C304 1.417 . S
C281 H258 0.931 . S
C281 N277 1.343 . S
C281 C282 1.390 . S
C282 H260 0.930 . S
C282 C279 1.321 . S
C282 C281 1.390 . S
O283 Gd251 2.386 1_556 S
O283 C295 1.265 . S
O284 Gd250 2.353 . S
O284 C295 1.242 . S
O285 Gd250 2.468 . S
O285 C303 1.263 . S
O286 Gd250 2.427 . S
O286 C303 1.252 . S
O287 Gd251 2.307 . S
O287 C296 1.261 . S
O288 Gd250 2.388 . S
O288 C296 1.252 1_556 S
O289 Gd250 2.386 1_554 S
O289 C307 1.265 . S
O290 Gd251 2.353 . S
O290 C307 1.242 . S
O291 Gd251 2.468 . S
O291 C315 1.263 . S
O292 Gd251 2.427 . S
O292 C315 1.252 . S
O293 Gd250 2.307 1_554 S
O293 C308 1.261 . S
O294 Gd251 2.388 . S
O294 C308 1.252 . S
C295 O283 1.265 . S
C295 O284 1.242 . S
C296 O287 1.261 . S
C296 O288 1.252 1_554 S
C297 C300 1.394 . S
C297 C302 1.370 . S
C297 C303 1.500 . S
C298 C301 1.383 . S
C298 C302 1.395 . S
C299 C300 1.396 . S
C299 C301 1.365 . S
C299 H316 0.929 . S
C300 C297 1.394 . S
C300 C299 1.396 . S
C300 H317 0.930 . S
C301 C298 1.383 . S
C301 C299 1.365 . S
C301 H318 0.931 . S
C302 C297 1.370 . S
C302 C298 1.395 . S
C302 H319 0.930 . S
C303 Gd250 2.805 . S
C303 O285 1.263 . S
C303 O286 1.252 . S
C303 C297 1.500 . S
C304 H266 0.930 . S
C304 C280 1.417 . S
C304 C305 1.329 . S
C305 C275 1.437 . S
C305 H276 0.929 . S
C305 C304 1.329 . S
H306 C279 0.931 . S
C307 O289 1.265 . S
C307 O290 1.242 . S
C308 O293 1.261 . S
C308 O294 1.252 . S
C309 C312 1.394 . S
C309 C314 1.370 . S
C309 C315 1.500 . S
C310 C313 1.383 . S
C310 C314 1.395 . S
C311 C312 1.396 . S
C311 C313 1.365 . S
C311 H320 0.929 . S
C312 C309 1.394 . S
C312 C311 1.396 . S
C312 H321 0.930 . S
C313 C310 1.383 . S
C313 C311 1.365 . S
C313 H322 0.931 . S
C314 C309 1.370 . S
C314 C310 1.395 . S
C314 H323 0.930 . S
C315 Gd251 2.805 . S
C315 O291 1.263 . S
C315 O292 1.252 . S
C315 C309 1.500 . S
H316 C299 0.929 . S
H317 C300 0.930 . S
H318 C301 0.931 . S
H319 C302 0.930 . S
H320 C311 0.929 . S
H321 C312 0.930 . S
H322 C313 0.931 . S
H323 C314 0.930 . S
H324 C332 0.929 . S
H325 C334 0.930 . S
H326 C336 0.930 . S
H327 C339 0.929 . S
H328 C342 0.930 . S
H329 C344 0.960 . S
H330 C344 0.960 . S
H331 C344 0.960 . S
C332 H324 0.929 . S
C332 C333 1.377 . S
C332 C334 1.384 . S
C333 C332 1.377 . S
C333 C339 1.390 . S
C334 H325 0.930 . S
C334 C332 1.384 . S
C334 C335 1.372 . S
C335 C334 1.372 . S
C335 C336 1.400 . S
C335 C340 1.490 . S
C336 H326 0.930 . S
C336 C335 1.400 . S
C336 C339 1.386 . S
H337 C353 0.930 . S
H338 C354 0.931 . S
C339 H327 0.929 . S
C339 C333 1.390 . S
C339 C336 1.386 . S
C340 C335 1.490 . S
C340 C342 1.395 . S
C340 C343 1.403 . S
H341 C347 0.930 . S
C342 H328 0.930 . S
C342 C340 1.395 . S
C342 C345 1.403 . S
C343 C340 1.403 . S
C343 C344 1.524 . S
C343 C347 1.400 . S
C344 H329 0.960 . S
C344 H330 0.960 . S
C344 H331 0.960 . S
C344 C343 1.524 . S
C345 C342 1.403 . S
C345 C346 1.392 . S
C345 C349 1.495 . S
C346 C345 1.392 . S
C346 C347 1.385 . S
C346 C348 1.478 . S
C347 H341 0.930 . S
C347 C343 1.400 . S
C347 C346 1.385 . S
C348 C346 1.478 . S
C348 C350 1.381 . S
C348 C354 1.383 . S
C349 C345 1.495 . S
C349 H355 0.959 . S
C349 H356 0.961 . S
C349 H357 0.960 . S
C350 C348 1.381 . S
C350 C351 1.394 . S
C350 H358 0.930 . S
C351 C350 1.394 . S
C351 C352 1.383 . S
C351 H359 0.929 . S
C352 C351 1.383 . S
C352 C353 1.377 . S
C353 H337 0.930 . S
C353 C352 1.377 . S
C353 C354 1.379 . S
C354 H338 0.931 . S
C354 C348 1.383 . S
C354 C353 1.379 . S
H355 C349 0.959 . S
H356 C349 0.961 . S
H357 C349 0.960 . S
H358 C350 0.930 . S
H359 C351 0.929 . S
H360 C368 0.929 . S
H361 C370 0.930 . S
H362 C372 0.930 1_556 S
H363 C375 0.929 1_556 S
H364 C378 0.930 . S
H365 C380 0.960 . S
H366 C380 0.960 . S
H367 C380 0.960 1_556 S
C368 H360 0.929 . S
C368 C369 1.377 . S
C368 C370 1.384 . S
C369 C368 1.377 . S
C369 C375 1.390 . S
C370 H361 0.930 . S
C370 C368 1.384 . S
C370 C371 1.372 . S
C371 C370 1.372 . S
C371 C372 1.400 . S
C371 C376 1.490 . S
C372 H362 0.930 1_554 S
C372 C371 1.400 . S
C372 C375 1.386 . S
H373 C389 0.930 . S
H374 C390 0.931 . S
C375 H363 0.929 1_554 S
C375 C369 1.390 . S
C375 C372 1.386 . S
C376 C371 1.490 . S
C376 C378 1.395 . S
C376 C379 1.403 . S
H377 C383 0.930 . S
C378 H364 0.930 . S
C378 C376 1.395 . S
C378 C381 1.403 . S
C379 C376 1.403 . S
C379 C380 1.524 . S
C379 C383 1.400 . S
C380 H365 0.960 . S
C380 H366 0.960 . S
C380 H367 0.960 1_554 S
C380 C379 1.524 . S
C381 C378 1.403 . S
C381 C382 1.392 . S
C381 C385 1.495 . S
C382 C381 1.392 . S
C382 C383 1.385 . S
C382 C384 1.478 . S
C383 H377 0.930 . S
C383 C379 1.400 . S
C383 C382 1.385 . S
C384 C382 1.478 . S
C384 C386 1.381 . S
C384 C390 1.383 1_554 S
C385 C381 1.495 . S
C385 H391 0.959 . S
C385 H392 0.961 . S
C385 H393 0.960 . S
C386 C384 1.381 . S
C386 C387 1.394 . S
C386 H394 0.930 . S
C387 C386 1.394 . S
C387 C388 1.383 . S
C387 H395 0.929 . S
C388 C387 1.383 . S
C388 C389 1.377 1_554 S
C389 H373 0.930 . S
C389 C388 1.377 1_556 S
C389 C390 1.379 . S
C390 H374 0.931 . S
C390 C384 1.383 1_556 S
C390 C389 1.379 . S
H391 C385 0.959 . S
H392 C385 0.961 . S
H393 C385 0.960 . S
H394 C386 0.930 . S
H395 C387 0.929 . S
H396 C404 0.929 . S
H397 C406 0.930 . S
H398 C408 0.930 . S
H399 C411 0.929 . S
H400 C414 0.930 . S
H401 C416 0.960 . S
H402 C416 0.960 . S
H403 C416 0.960 . S
C404 H396 0.929 . S
C404 C405 1.377 . S
C404 C406 1.384 . S
C405 C404 1.377 . S
C405 C411 1.390 . S
C406 H397 0.930 . S
C406 C404 1.384 . S
C406 C407 1.372 . S
C407 C406 1.372 . S
C407 C408 1.400 . S
C407 C412 1.490 . S
C408 H398 0.930 . S
C408 C407 1.400 . S
C408 C411 1.386 . S
H409 C425 0.930 . S
H410 C426 0.931 . S
C411 H399 0.929 . S
C411 C405 1.390 . S
C411 C408 1.386 . S
C412 C407 1.490 . S
C412 C414 1.395 . S
C412 C415 1.403 . S
H413 C419 0.930 . S
C414 H400 0.930 . S
C414 C412 1.395 . S
C414 C417 1.403 . S
C415 C412 1.403 . S
C415 C416 1.524 . S
C415 C419 1.400 . S
C416 H401 0.960 . S
C416 H402 0.960 . S
C416 H403 0.960 . S
C416 C415 1.524 . S
C417 C414 1.403 . S
C417 C418 1.392 . S
C417 C421 1.495 . S
C418 C417 1.392 . S
C418 C419 1.385 . S
C418 C420 1.478 . S
C419 H413 0.930 . S
C419 C415 1.400 . S
C419 C418 1.385 . S
C420 C418 1.478 . S
C420 C422 1.381 . S
C420 C426 1.383 . S
C421 C417 1.495 . S
C421 H427 0.959 . S
C421 H428 0.961 . S
C421 H429 0.960 . S
C422 C420 1.381 . S
C422 C423 1.394 . S
C422 H430 0.930 . S
C423 C422 1.394 . S
C423 C424 1.383 . S
C423 H431 0.929 . S
C424 C423 1.383 . S
C424 C425 1.377 . S
C425 H409 0.930 . S
C425 C424 1.377 . S
C425 C426 1.379 . S
C426 H410 0.931 . S
C426 C420 1.383 . S
C426 C425 1.379 . S
H427 C421 0.959 . S
H428 C421 0.961 . S
H429 C421 0.960 . S
H430 C422 0.930 . S
H431 C423 0.929 . S
H432 C440 0.929 . S
H433 C442 0.930 . S
H434 C444 0.930 . S
H435 C447 0.929 . S
H436 C450 0.930 . S
H437 C452 0.960 . S
H438 C452 0.960 . S
H439 C452 0.960 . S
C440 H432 0.929 . S
C440 C441 1.377 . S
C440 C442 1.384 . S
C441 C440 1.377 . S
C441 C447 1.390 . S
C442 H433 0.930 . S
C442 C440 1.384 . S
C442 C443 1.372 . S
C443 C442 1.372 . S
C443 C444 1.400 . S
C443 C448 1.490 . S
C444 H434 0.930 . S
C444 C443 1.400 . S
C444 C447 1.386 . S
H445 C461 0.930 . S
H446 C462 0.931 . S
C447 H435 0.929 . S
C447 C441 1.390 . S
C447 C444 1.386 . S
C448 C443 1.490 . S
C448 C450 1.395 . S
C448 C451 1.403 1_554 S
H449 C455 0.930 . S
C450 H436 0.930 . S
C450 C448 1.395 . S
C450 C453 1.403 . S
C451 C448 1.403 1_556 S
C451 C452 1.524 . S
C451 C455 1.400 . S
C452 H437 0.960 . S
C452 H438 0.960 . S
C452 H439 0.960 . S
C452 C451 1.524 . S
C453 C450 1.403 . S
C453 C454 1.392 . S
C453 C457 1.495 . S
C454 C453 1.392 . S
C454 C455 1.385 1_554 S
C454 C456 1.478 . S
C455 H449 0.930 . S
C455 C451 1.400 . S
C455 C454 1.385 1_556 S
C456 C454 1.478 . S
C456 C458 1.381 . S
C456 C462 1.383 . S
C457 C453 1.495 . S
C457 H463 0.959 . S
C457 H464 0.961 . S
C457 H465 0.960 . S
C458 C456 1.381 . S
C458 C459 1.394 . S
C458 H466 0.930 . S
C459 C458 1.394 . S
C459 C460 1.383 . S
C459 H467 0.929 . S
C460 C459 1.383 . S
C460 C461 1.377 . S
C461 H445 0.930 . S
C461 C460 1.377 . S
C461 C462 1.379 . S
C462 H446 0.931 . S
C462 C456 1.383 . S
C462 C461 1.379 . S
H463 C457 0.959 . S
H464 C457 0.961 . S
H465 C457 0.960 . S
H466 C458 0.930 . S
H467 C459 0.929 . S
H468 C476 0.929 . S
H469 C478 0.930 . S
H470 C480 0.930 . S
H471 C483 0.929 . S
H472 C486 0.930 . S
H473 C488 0.960 . S
H474 C488 0.960 . S
H475 C488 0.960 . S
C476 H468 0.929 . S
C476 C477 1.377 . S
C476 C478 1.384 . S
C477 C476 1.377 . S
C477 C483 1.390 . S
C478 H469 0.930 . S
C478 C476 1.384 . S
C478 C479 1.372 . S
C479 C478 1.372 . S
C479 C480 1.400 . S
C479 C484 1.490 . S
C480 H470 0.930 . S
C480 C479 1.400 . S
C480 C483 1.386 . S
H481 C497 0.930 . S
H482 C498 0.931 . S
C483 H471 0.929 . S
C483 C477 1.390 . S
C483 C480 1.386 . S
C484 C479 1.490 . S
C484 C486 1.395 . S
C484 C487 1.403 . S
H485 C491 0.930 . S
C486 H472 0.930 . S
C486 C484 1.395 . S
C486 C489 1.403 . S
C487 C484 1.403 . S
C487 C488 1.524 . S
C487 C491 1.400 . S
C488 H473 0.960 . S
C488 H474 0.960 . S
C488 H475 0.960 . S
C488 C487 1.524 . S
C489 C486 1.403 . S
C489 C490 1.392 . S
C489 C493 1.523 . S
C490 C489 1.392 . S
C490 C491 1.385 . S
C490 C492 1.478 . S
C491 H485 0.930 . S
C491 C487 1.400 . S
C491 C490 1.385 . S
C492 C490 1.478 . S
C492 C494 1.381 . S
C492 C498 1.383 . S
C493 C489 1.523 . S
C493 H499 0.948 1_565 S
C493 H500 0.957 1_565 S
C493 H501 0.949 1_565 S
C494 C492 1.381 . S
C494 C495 1.394 . S
C494 H502 0.930 . S
C495 C494 1.394 . S
C495 C496 1.383 . S
C495 H503 0.929 . S
C496 C495 1.383 . S
C496 C497 1.377 . S
C497 H481 0.930 . S
C497 C496 1.377 . S
C497 C498 1.379 . S
C498 H482 0.931 . S
C498 C492 1.383 . S
C498 C497 1.379 . S
H499 C493 0.948 1_545 S
H500 C493 0.957 1_545 S
H501 C493 0.949 1_545 S
H502 C494 0.930 . S
H503 C495 0.929 . S
H504 C512 0.929 . S
H505 C514 0.930 . S
H506 C516 0.930 . S
H507 C519 0.929 . S
H508 C522 0.930 . S
H509 C524 0.960 . S
H510 C524 0.960 . S
H511 C524 0.960 . S
C512 H504 0.929 . S
C512 C513 1.377 . S
C512 C514 1.384 . S
C513 C512 1.377 . S
C513 C519 1.390 . S
C514 H505 0.930 . S
C514 C512 1.384 . S
C514 C515 1.372 . S
C515 C514 1.372 . S
C515 C516 1.400 . S
C515 C520 1.490 . S
C516 H506 0.930 . S
C516 C515 1.400 . S
C516 C519 1.386 . S
H517 C533 0.930 . S
H518 C534 0.931 . S
C519 H507 0.929 . S
C519 C513 1.390 . S
C519 C516 1.386 . S
C520 C515 1.490 . S
C520 C522 1.395 . S
C520 C523 1.403 . S
H521 C527 0.930 . S
C522 H508 0.930 . S
C522 C520 1.395 . S
C522 C525 1.403 . S
C523 C520 1.403 . S
C523 C524 1.524 . S
C523 C527 1.400 . S
C524 H509 0.960 . S
C524 H510 0.960 . S
C524 H511 0.960 . S
C524 C523 1.524 . S
C525 C522 1.403 . S
C525 C526 1.392 . S
C525 C529 1.495 . S
C526 C525 1.392 . S
C526 C527 1.385 . S
C526 C528 1.478 . S
C527 H521 0.930 . S
C527 C523 1.400 . S
C527 C526 1.385 . S
C528 C526 1.478 . S
C528 C530 1.381 . S
C528 C534 1.383 . S
C529 C525 1.495 . S
C529 H535 0.959 . S
C529 H536 0.961 . S
C529 H537 0.960 . S
C530 C528 1.381 . S
C530 C531 1.394 . S
C530 H538 0.930 . S
C531 C530 1.394 . S
C531 C532 1.383 . S
C531 H539 0.929 . S
C532 C531 1.383 . S
C532 C533 1.377 . S
C533 H517 0.930 . S
C533 C532 1.377 . S
C533 C534 1.379 . S
C534 H518 0.931 . S
C534 C528 1.383 . S
C534 C533 1.379 . S
H535 C529 0.959 . S
H536 C529 0.961 . S
H537 C529 0.960 . S
H538 C530 0.930 . S
H539 C531 0.929 . S
H540 C548 0.929 . S
H541 C550 0.930 . S
H542 C552 0.930 . S
H543 C555 0.929 . S
H544 C558 0.930 . S
H545 C560 0.960 . S
H546 C560 0.960 . S
H547 C560 0.960 . S
C548 H540 0.929 . S
C548 C549 1.377 . S
C548 C550 1.384 . S
C549 C548 1.377 . S
C549 C555 1.390 . S
C550 H541 0.930 . S
C550 C548 1.384 . S
C550 C551 1.372 . S
C551 C550 1.372 . S
C551 C552 1.400 . S
C551 C556 1.490 . S
C552 H542 0.930 . S
C552 C551 1.400 . S
C552 C555 1.386 . S
H553 C569 0.930 1_565 S
H554 C570 0.931 . S
C555 H543 0.929 . S
C555 C549 1.390 . S
C555 C552 1.386 . S
C556 C551 1.490 . S
C556 C558 1.395 . S
C556 C559 1.403 . S
H557 C563 0.930 . S
C558 H544 0.930 . S
C558 C556 1.395 . S
C558 C561 1.403 . S
C559 C556 1.403 . S
C559 C560 1.524 . S
C559 C563 1.400 . S
C560 H545 0.960 . S
C560 H546 0.960 . S
C560 H547 0.960 . S
C560 C559 1.524 . S
C561 C558 1.403 . S
C561 C562 1.392 . S
C561 C565 1.495 . S
C562 C561 1.392 . S
C562 C563 1.385 . S
C562 C564 1.478 . S
C563 H557 0.930 . S
C563 C559 1.400 . S
C563 C562 1.385 . S
C564 C562 1.478 . S
C564 C566 1.381 . S
C564 C570 1.383 . S
C565 C561 1.495 . S
C565 H571 0.959 . S
C565 H572 0.961 . S
C565 H573 0.960 . S
C566 C564 1.381 . S
C566 C567 1.394 . S
C566 H574 0.930 . S
C567 C566 1.394 . S
C567 C568 1.383 . S
C567 H575 0.929 . S
C568 C567 1.383 . S
C568 C569 1.377 . S
C569 H553 0.930 1_545 S
C569 C568 1.377 . S
C569 C570 1.379 . S
C570 H554 0.931 . S
C570 C564 1.383 . S
C570 C569 1.379 . S
H571 C565 0.959 . S
H572 C565 0.961 . S
H573 C565 0.960 . S
H574 C566 0.930 . S
H575 C567 0.929 . S
H576 C584 0.929 . S
H577 C586 0.930 . S
H578 C588 0.930 . S
H579 C591 0.929 . S
H580 C594 0.930 . S
H581 C596 0.960 . S
H582 C596 0.960 . S
H583 C596 0.960 . S
C584 H576 0.929 . S
C584 C585 1.377 . S
C584 C586 1.384 . S
C585 C584 1.377 . S
C585 C591 1.390 . S
C586 H577 0.930 . S
C586 C584 1.384 . S
C586 C587 1.372 . S
C587 C586 1.372 . S
C587 C588 1.400 . S
C587 C592 1.490 . S
C588 H578 0.930 . S
C588 C587 1.400 . S
C588 C591 1.386 . S
H589 C605 0.930 . S
H590 C606 0.931 . S
C591 H579 0.929 . S
C591 C585 1.390 . S
C591 C588 1.386 . S
C592 C587 1.490 . S
C592 C594 1.395 . S
C592 C595 1.403 . S
H593 C599 0.930 . S
C594 H580 0.930 . S
C594 C592 1.395 . S
C594 C597 1.403 . S
C595 C592 1.403 . S
C595 C596 1.524 . S
C595 C599 1.400 . S
C596 H581 0.960 . S
C596 H582 0.960 . S
C596 H583 0.960 . S
C596 C595 1.524 . S
C597 C594 1.403 . S
C597 C598 1.392 . S
C597 C601 1.495 . S
C598 C597 1.392 . S
C598 C599 1.385 . S
C598 C600 1.478 . S
C599 H593 0.930 . S
C599 C595 1.400 . S
C599 C598 1.385 . S
C600 C598 1.478 . S
C600 C602 1.381 . S
C600 C606 1.383 . S
C601 C597 1.495 . S
C601 H607 0.959 . S
C601 H608 0.961 . S
C601 H609 0.960 . S
C602 C600 1.381 . S
C602 C603 1.394 . S
C602 H610 0.930 . S
C603 C602 1.394 . S
C603 C604 1.383 . S
C603 H611 0.929 . S
C604 C603 1.383 . S
C604 C605 1.377 . S
C605 H589 0.930 . S
C605 C604 1.377 . S
C605 C606 1.379 . S
C606 H590 0.931 . S
C606 C600 1.383 . S
C606 C605 1.379 . S
H607 C601 0.959 . S
H608 C601 0.961 . S
H609 C601 0.960 . S
H610 C602 0.930 . S
H611 C603 0.929 . S
H612 C620 0.929 . S
H613 C622 0.930 . S
H614 C624 0.930 . S
H615 C627 0.929 . S
H616 C630 0.930 . S
H617 C632 0.960 . S
H618 C632 0.960 . S
H619 C632 0.960 . S
C620 H612 0.929 . S
C620 C621 1.377 . S
C620 C622 1.384 . S
C621 C620 1.377 . S
C621 C627 1.390 . S
C622 H613 0.930 . S
C622 C620 1.384 . S
C622 C623 1.372 . S
C623 C622 1.372 . S
C623 C624 1.400 . S
C623 C628 1.490 . S
C624 H614 0.930 . S
C624 C623 1.400 . S
C624 C627 1.386 . S
H625 C641 0.930 . S
H626 C642 0.931 . S
C627 H615 0.929 . S
C627 C621 1.390 . S
C627 C624 1.386 . S
C628 C623 1.490 . S
C628 C630 1.395 . S
C628 C631 1.403 . S
H629 C635 0.930 . S
C630 H616 0.930 . S
C630 C628 1.395 . S
C630 C633 1.403 . S
C631 C628 1.403 . S
C631 C632 1.524 . S
C631 C635 1.400 . S
C632 H617 0.960 . S
C632 H618 0.960 . S
C632 H619 0.960 . S
C632 C631 1.524 . S
C633 C630 1.403 . S
C633 C634 1.392 . S
C633 C637 1.495 . S
C634 C633 1.392 . S
C634 C635 1.385 . S
C634 C636 1.478 . S
C635 H629 0.930 . S
C635 C631 1.400 . S
C635 C634 1.385 . S
C636 C634 1.478 . S
C636 C638 1.381 . S
C636 C642 1.383 . S
C637 C633 1.495 . S
C637 H643 0.959 . S
C637 H644 0.961 . S
C637 H645 0.960 . S
C638 C636 1.381 . S
C638 C639 1.394 . S
C638 H646 0.930 . S
C639 C638 1.394 . S
C639 C640 1.383 . S
C639 H647 0.929 . S
C640 C639 1.383 . S
C640 C641 1.377 . S
C641 H625 0.930 . S
C641 C640 1.377 . S
C641 C642 1.379 . S
C642 H626 0.931 . S
C642 C636 1.383 . S
C642 C641 1.379 . S
H643 C637 0.959 . S
H644 C637 0.961 . S
H645 C637 0.960 . S
H646 C638 0.930 . S
H647 C639 0.929 . S
H648 C656 0.929 . S
H649 C658 0.930 . S
H650 C660 0.930 . S
H651 C663 0.929 . S
H652 C666 0.930 . S
H653 C668 0.960 . S
H654 C668 0.960 . S
H655 C668 0.960 . S
C656 H648 0.929 . S
C656 C657 1.377 . S
C656 C658 1.384 . S
C657 C656 1.377 . S
C657 C663 1.390 . S
C658 H649 0.930 . S
C658 C656 1.384 . S
C658 C659 1.372 . S
C659 C658 1.372 . S
C659 C660 1.400 . S
C659 C664 1.490 . S
C660 H650 0.930 . S
C660 C659 1.400 . S
C660 C663 1.386 . S
H661 C677 0.930 . S
H662 C678 0.931 . S
C663 H651 0.929 . S
C663 C657 1.390 . S
C663 C660 1.386 . S
C664 C659 1.490 . S
C664 C666 1.395 . S
C664 C667 1.403 . S
H665 C671 0.930 . S
C666 H652 0.930 . S
C666 C664 1.395 . S
C666 C669 1.403 . S
C667 C664 1.403 . S
C667 C668 1.524 . S
C667 C671 1.400 . S
C668 H653 0.960 . S
C668 H654 0.960 . S
C668 H655 0.960 . S
C668 C667 1.524 . S
C669 C666 1.403 . S
C669 C670 1.392 . S
C669 C673 1.495 . S
C670 C669 1.392 . S
C670 C671 1.385 . S
C670 C672 1.478 . S
C671 H665 0.930 . S
C671 C667 1.400 . S
C671 C670 1.385 . S
C672 C670 1.478 . S
C672 C674 1.381 . S
C672 C678 1.383 . S
C673 C669 1.495 . S
C673 H679 0.959 . S
C673 H680 0.961 . S
C673 H681 0.960 . S
C674 C672 1.381 . S
C674 C675 1.394 . S
C674 H682 0.930 . S
C675 C674 1.394 . S
C675 C676 1.383 . S
C675 H683 0.929 . S
C676 C675 1.383 . S
C676 C677 1.377 . S
C677 H661 0.930 . S
C677 C676 1.377 . S
C677 C678 1.379 . S
C678 H662 0.931 . S
C678 C672 1.383 . S
C678 C677 1.379 . S
H679 C673 0.959 . S
H680 C673 0.961 . S
H681 C673 0.960 . S
H682 C674 0.930 . S
H683 C675 0.929 . S
H684 C692 0.929 . S
H685 C694 0.930 . S
H686 C696 0.930 . S
H687 C699 0.929 . S
H688 C702 0.930 . S
H689 C704 0.960 . S
H690 C704 0.960 . S
H691 C704 0.960 . S
C692 H684 0.929 . S
C692 C693 1.377 . S
C692 C694 1.384 . S
C693 C692 1.377 . S
C693 C699 1.390 . S
C694 H685 0.930 . S
C694 C692 1.384 . S
C694 C695 1.372 . S
C695 C694 1.372 . S
C695 C696 1.400 . S
C695 C700 1.490 . S
C696 H686 0.930 . S
C696 C695 1.400 . S
C696 C699 1.386 . S
H697 C713 0.930 . S
H698 C714 0.931 . S
C699 H687 0.929 . S
C699 C693 1.390 . S
C699 C696 1.386 . S
C700 C695 1.490 . S
C700 C702 1.395 . S
C700 C703 1.403 . S
H701 C707 0.930 . S
C702 H688 0.930 . S
C702 C700 1.395 . S
C702 C705 1.403 . S
C703 C700 1.403 . S
C703 C704 1.524 . S
C703 C707 1.400 . S
C704 H689 0.960 . S
C704 H690 0.960 . S
C704 H691 0.960 . S
C704 C703 1.524 . S
C705 C702 1.403 . S
C705 C706 1.392 . S
C705 C709 1.495 . S
C706 C705 1.392 . S
C706 C707 1.385 . S
C706 C708 1.478 . S
C707 H701 0.930 . S
C707 C703 1.400 . S
C707 C706 1.385 . S
C708 C706 1.478 . S
C708 C710 1.381 . S
C708 C714 1.383 . S
C709 C705 1.495 . S
C709 H715 0.959 . S
C709 H716 0.961 . S
C709 H717 0.960 . S
C710 C708 1.381 . S
C710 C711 1.394 . S
C710 H718 0.930 . S
C711 C710 1.394 . S
C711 C712 1.383 . S
C711 H719 0.929 . S
C712 C711 1.383 . S
C712 C713 1.377 . S
C713 H697 0.930 . S
C713 C712 1.377 . S
C713 C714 1.379 . S
C714 H698 0.931 . S
C714 C708 1.383 . S
C714 C713 1.379 . S
H715 C709 0.959 . S
H716 C709 0.961 . S
H717 C709 0.960 . S
H718 C710 0.930 . S
H719 C711 0.929 . S
H720 C728 0.929 . S
H721 C730 0.930 . S
H722 C732 0.930 . S
H723 C735 0.929 . S
H724 C738 0.930 . S
H725 C740 0.960 . S
H726 C740 0.960 . S
H727 C740 0.960 . S
C728 H720 0.929 . S
C728 C729 1.377 . S
C728 C730 1.384 . S
C729 C728 1.377 . S
C729 C735 1.390 . S
C730 H721 0.930 . S
C730 C728 1.384 . S
C730 C731 1.372 . S
C731 C730 1.372 . S
C731 C732 1.400 . S
C731 C736 1.490 . S
C732 H722 0.930 . S
C732 C731 1.400 . S
C732 C735 1.386 . S
H733 C749 0.930 . S
H734 C750 0.931 . S
C735 H723 0.929 . S
C735 C729 1.390 . S
C735 C732 1.386 . S
C736 C731 1.490 . S
C736 C738 1.395 . S
C736 C739 1.403 . S
H737 C743 0.930 . S
C738 H724 0.930 . S
C738 C736 1.395 . S
C738 C741 1.403 . S
C739 C736 1.403 . S
C739 C740 1.524 . S
C739 C743 1.400 . S
C740 H725 0.960 . S
C740 H726 0.960 . S
C740 H727 0.960 . S
C740 C739 1.524 . S
C741 C738 1.403 . S
C741 C742 1.392 . S
C741 C745 1.495 1_565 S
C742 C741 1.392 . S
C742 C743 1.385 . S
C742 C744 1.478 . S
C743 H737 0.930 . S
C743 C739 1.400 . S
C743 C742 1.385 . S
C744 C742 1.478 . S
C744 C746 1.381 . S
C744 C750 1.383 . S
C745 C741 1.495 1_545 S
C745 H751 0.959 . S
C745 H752 0.961 . S
C745 H753 0.960 1_545 S
C746 C744 1.381 . S
C746 C747 1.394 . S
C746 H754 0.930 . S
C747 C746 1.394 . S
C747 C748 1.383 . S
C747 H755 0.929 . S
C748 C747 1.383 . S
C748 C749 1.377 . S
C749 H733 0.930 . S
C749 C748 1.377 . S
C749 C750 1.379 . S
C750 H734 0.931 . S
C750 C744 1.383 . S
C750 C749 1.379 . S
H751 C745 0.959 . S
H752 C745 0.961 . S
H753 C745 0.960 1_565 S
H754 C746 0.930 . S
H755 C747 0.929 . S
C352 C224 1.611 . S
C333 C138 1.624 . S
C369 C21 1.613 . S
C388 C296 1.609 . S
C405 C60 1.629 . S
C424 C212 1.628 . S
C441 C99 1.620 . S
C460 C308 1.589 . S
C496 C214 1.443 . S
C477 C16 1.561 . S
C532 C295 1.608 . S
C513 C40 1.602 . S
C549 C79 1.588 . S
C568 C211 1.601 . S
C585 C133 1.543 . S
C604 C298 1.420 . S
C640 C310 1.373 . S
C621 C55 1.542 . S
C676 C226 1.408 . S
C657 C94 1.557 . S
C712 C307 1.605 . S
C693 C118 1.601 . S
C729 C1 1.583 . S
C748 C223 1.596 . S
