# Generated by pormake.
# Topology pyr, (3,6)-cn, num edge types: 1
# Building blocks:
#     Node 0, Type 0, BuildingBlock: MIDCAF_clean_linker_0, # of connection points: 3
#     Node 1, Type 0, BuildingBlock: MIDCAF_clean_linker_0, # of connection points: 3
#     Node 2, Type 0, BuildingBlock: MIDCAF_clean_linker_0, # of connection points: 3
#     Node 3, Type 0, BuildingBlock: MIDCAF_clean_linker_0, # of connection points: 3
#     Node 4, Type 0, BuildingBlock: MIDCAF_clean_linker_0, # of connection points: 3
#     Node 5, Type 0, BuildingBlock: MIDCAF_clean_linker_0, # of connection points: 3
#     Node 6, Type 0, BuildingBlock: MIDCAF_clean_linker_0, # of connection points: 3
#     Node 7, Type 0, BuildingBlock: MIDCAF_clean_linker_0, # of connection points: 3
#     Node 8, Type 1, BuildingBlock: BETFAJ_clean_sbu_0, # of connection points: 6
#     Node 9, Type 1, BuildingBlock: BETFAJ_clean_sbu_0, # of connection points: 6
#     Node 10, Type 1, BuildingBlock: BETFAJ_clean_sbu_0, # of connection points: 6
#     Node 11, Type 1, BuildingBlock: BETFAJ_clean_sbu_0, # of connection points: 6
#     Edge 12, Type (0, 1), BuildingBlock: TEMPAE_clean_linker_10, # of connection points: 2
#     Edge 13, Type (0, 1), BuildingBlock: TEMPAE_clean_linker_10, # of connection points: 2
#     Edge 14, Type (0, 1), BuildingBlock: TEMPAE_clean_linker_10, # of connection points: 2
#     Edge 15, Type (0, 1), BuildingBlock: TEMPAE_clean_linker_10, # of connection points: 2
#     Edge 16, Type (0, 1), BuildingBlock: TEMPAE_clean_linker_10, # of connection points: 2
#     Edge 17, Type (0, 1), BuildingBlock: TEMPAE_clean_linker_10, # of connection points: 2
#     Edge 18, Type (0, 1), BuildingBlock: TEMPAE_clean_linker_10, # of connection points: 2
#     Edge 19, Type (0, 1), BuildingBlock: TEMPAE_clean_linker_10, # of connection points: 2
#     Edge 20, Type (0, 1), BuildingBlock: TEMPAE_clean_linker_10, # of connection points: 2
#     Edge 21, Type (0, 1), BuildingBlock: TEMPAE_clean_linker_10, # of connection points: 2
#     Edge 22, Type (0, 1), BuildingBlock: TEMPAE_clean_linker_10, # of connection points: 2
#     Edge 23, Type (0, 1), BuildingBlock: TEMPAE_clean_linker_10, # of connection points: 2
#     Edge 24, Type (0, 1), BuildingBlock: TEMPAE_clean_linker_10, # of connection points: 2
#     Edge 25, Type (0, 1), BuildingBlock: TEMPAE_clean_linker_10, # of connection points: 2
#     Edge 26, Type (0, 1), BuildingBlock: TEMPAE_clean_linker_10, # of connection points: 2
#     Edge 27, Type (0, 1), BuildingBlock: TEMPAE_clean_linker_10, # of connection points: 2
#     Edge 28, Type (0, 1), BuildingBlock: TEMPAE_clean_linker_10, # of connection points: 2
#     Edge 29, Type (0, 1), BuildingBlock: TEMPAE_clean_linker_10, # of connection points: 2
#     Edge 30, Type (0, 1), BuildingBlock: TEMPAE_clean_linker_10, # of connection points: 2
#     Edge 31, Type (0, 1), BuildingBlock: TEMPAE_clean_linker_10, # of connection points: 2
#     Edge 32, Type (0, 1), BuildingBlock: TEMPAE_clean_linker_10, # of connection points: 2
#     Edge 33, Type (0, 1), BuildingBlock: TEMPAE_clean_linker_10, # of connection points: 2
#     Edge 34, Type (0, 1), BuildingBlock: TEMPAE_clean_linker_10, # of connection points: 2
#     Edge 35, Type (0, 1), BuildingBlock: TEMPAE_clean_linker_10, # of connection points: 2
# Relax obj value: 0.095
# Max RMSD: 0.121
# Mean RMSD: 0.058
data_MOF--net-pyr--node1-BETFAJ_clean_sbu_0--node2-MIDCAF_clean_linker_0--edge1-TEMPAE_clean_linker_10
_symmetry_space_group_name_H-M    P1
_symmetry_Int_Tables_number       1
_symmetry_cell_setting            triclinic
loop_
_symmetry_equiv_pos_as_xyz
'x, y, z'
_cell_length_a     46.691364
_cell_length_b     49.540329
_cell_length_c     45.158796
_cell_angle_alpha  90.846362
_cell_angle_beta   88.664776
_cell_angle_gamma 100.55209
loop_
_atom_site_label
_atom_site_type_symbol
_atom_site_fract_x
_atom_site_fract_y
_atom_site_fract_z
_atom_type_partial_charge
C0 C 0.25902 0.27468 0.32008 0.0
C1 C 0.25572 0.24765 0.33044 0.0
C2 C 0.27493 0.23084 0.31961 0.0
C3 C 0.2955 0.24014 0.29736 0.0
H4 H 0.35208 0.21317 0.2406 0.0
H5 H 0.37999 0.18088 0.2189 0.0
H6 H 0.41024 0.23789 0.14848 0.0
H7 H 0.38131 0.26998 0.16969 0.0
H8 H 0.32167 0.30376 0.15377 0.0
H9 H 0.29637 0.33294 0.12448 0.0
H10 H 0.27423 0.374 0.20452 0.0
H11 H 0.29953 0.3452 0.23362 0.0
H12 H 0.28048 0.30446 0.2893 0.0
H13 H 0.24496 0.28833 0.32842 0.0
H14 H 0.27287 0.20984 0.32694 0.0
H15 H 0.30883 0.22608 0.28844 0.0
N16 N 0.33264 0.25798 0.24645 0.0
N17 N 0.3399 0.2844 0.20323 0.0
N18 N 0.30922 0.29549 0.24161 0.0
C19 C 0.34572 0.26309 0.21938 0.0
C20 C 0.32178 0.30082 0.21442 0.0
C21 C 0.31446 0.27416 0.25779 0.0
C22 C 0.36429 0.24422 0.20685 0.0
C23 C 0.36478 0.219 0.22057 0.0
C24 C 0.381 0.20046 0.2082 0.0
C25 C 0.39744 0.20671 0.18191 0.0
C26 C 0.39747 0.23219 0.1685 0.0
C27 C 0.38099 0.25068 0.18075 0.0
C28 C 0.31228 0.32194 0.19605 0.0
C29 C 0.31211 0.31954 0.165 0.0
C30 C 0.29745 0.3361 0.14824 0.0
C31 C 0.28306 0.35557 0.16223 0.0
C32 C 0.28523 0.35934 0.19303 0.0
C33 C 0.29959 0.34267 0.20975 0.0
C34 C 0.29717 0.26639 0.28529 0.0
C35 C 0.27947 0.28393 0.29771 0.0
C36 C 0.1879 0.87855 0.59312 0.0
C37 C 0.18253 0.87736 0.56264 0.0
C38 C 0.20107 0.86581 0.54333 0.0
C39 C 0.22591 0.85764 0.55399 0.0
H40 H 0.29631 0.81953 0.53143 0.0
H41 H 0.32933 0.79667 0.50168 0.0
H42 H 0.39952 0.82891 0.56028 0.0
H43 H 0.36687 0.85182 0.5898 0.0
H44 H 0.34621 0.85599 0.65963 0.0
H45 H 0.36219 0.87233 0.70879 0.0
H46 H 0.28513 0.90826 0.72092 0.0
H47 H 0.26902 0.89207 0.67174 0.0
H48 H 0.21715 0.87306 0.62722 0.0
H49 H 0.17399 0.88751 0.60845 0.0
H50 H 0.19715 0.86444 0.51976 0.0
H51 H 0.24052 0.85008 0.53827 0.0
N52 N 0.28081 0.84851 0.57539 0.0
N53 N 0.31616 0.85485 0.61207 0.0
N54 N 0.26995 0.86515 0.6224 0.0
C55 C 0.30815 0.84722 0.58402 0.0
C56 C 0.29717 0.8638 0.63141 0.0
C57 C 0.26157 0.85744 0.59447 0.0
C58 C 0.32882 0.83694 0.5634 0.0
C59 C 0.31895 0.82226 0.53757 0.0
C60 C 0.33783 0.80925 0.52045 0.0
C61 C 0.36693 0.81095 0.52871 0.0
C62 C 0.37731 0.82749 0.55311 0.0
C63 C 0.35844 0.84028 0.57033 0.0
C64 C 0.30637 0.87279 0.66167 0.0
C65 C 0.33259 0.86731 0.67275 0.0
C66 C 0.34169 0.87651 0.70097 0.0
C67 C 0.32491 0.89158 0.71856 0.0
C68 C 0.29859 0.89688 0.70766 0.0
C69 C 0.28933 0.88746 0.67956 0.0
C70 C 0.23272 0.86108 0.58415 0.0
C71 C 0.21281 0.87051 0.6038 0.0
C72 C 0.63751 0.26558 0.90735 0.0
C73 C 0.61074 0.25067 0.89745 0.0
C74 C 0.59734 0.26199 0.87405 0.0
C75 C 0.61012 0.2874 0.86134 0.0
H76 H 0.60293 0.3462 0.79243 0.0
H77 H 0.58324 0.3672 0.75064 0.0
H78 H 0.65415 0.43642 0.75556 0.0
H79 H 0.67408 0.41526 0.79673 0.0
H80 H 0.72766 0.41513 0.84215 0.0
H81 H 0.77222 0.43831 0.86604 0.0
H82 H 0.75826 0.37802 0.93536 0.0
H83 H 0.71392 0.35505 0.91181 0.0
H84 H 0.67078 0.3013 0.90335 0.0
H85 H 0.64904 0.2576 0.92477 0.0
H86 H 0.57662 0.25147 0.86583 0.0
H87 H 0.59896 0.29539 0.84363 0.0
N88 N 0.63943 0.34112 0.83535 0.0
N89 N 0.67783 0.37937 0.83701 0.0
N90 N 0.67571 0.34372 0.87103 0.0
C91 C 0.65279 0.36601 0.82421 0.0
C92 C 0.68946 0.36842 0.86049 0.0
C93 C 0.65084 0.32975 0.85882 0.0
C94 C 0.6403 0.3788 0.79833 0.0
C95 C 0.61443 0.36588 0.78463 0.0
C96 C 0.60295 0.37811 0.7606 0.0
C97 C 0.61692 0.40372 0.74925 0.0
C98 C 0.64279 0.41657 0.76301 0.0
C99 C 0.65422 0.40439 0.787 0.0
C100 C 0.71686 0.38308 0.87488 0.0
C101 C 0.73402 0.40681 0.86251 0.0
C102 C 0.75976 0.42006 0.87618 0.0
C103 C 0.76904 0.4102 0.90282 0.0
C104 C 0.7518 0.38656 0.91516 0.0
C105 C 0.7263 0.37321 0.90142 0.0
C106 C 0.63676 0.30235 0.87158 0.0
C107 C 0.65019 0.29083 0.89475 0.0
C108 C 0.7658 0.64885 0.41985 0.0
C109 C 0.74612 0.62894 0.40445 0.0
C110 C 0.75331 0.6226 0.37499 0.0
C111 C 0.77956 0.6357 0.36144 0.0
H112 H 0.83633 0.63478 0.28614 0.0
H113 H 0.85715 0.61341 0.24373 0.0
H114 H 0.94151 0.6623 0.26111 0.0
H115 H 0.92062 0.68408 0.30347 0.0
H116 H 0.91027 0.74863 0.33932 0.0
H117 H 0.93045 0.79347 0.36109 0.0
H118 H 0.87391 0.77439 0.4379 0.0
H119 H 0.85333 0.7304 0.41594 0.0
H120 H 0.8061 0.67756 0.41889 0.0
H121 H 0.7609 0.65449 0.44242 0.0
H122 H 0.73873 0.60729 0.3625 0.0
H123 H 0.78435 0.63027 0.33878 0.0
N124 N 0.83836 0.66033 0.33778 0.0
N125 N 0.87747 0.69795 0.33743 0.0
N126 N 0.84072 0.69472 0.37432 0.0
C127 C 0.86385 0.67364 0.32515 0.0
C128 C 0.8659 0.70873 0.36204 0.0
C129 C 0.82671 0.67063 0.36249 0.0
C130 C 0.87669 0.66129 0.29848 0.0
C131 C 0.85932 0.64115 0.28096 0.0
C132 C 0.87125 0.62892 0.25644 0.0
C133 C 0.90108 0.63603 0.24885 0.0
C134 C 0.91851 0.65615 0.26633 0.0
C135 C 0.90645 0.66878 0.29058 0.0
C136 C 0.87991 0.7357 0.37561 0.0
C137 C 0.9022 0.75398 0.36088 0.0
C138 C 0.91388 0.77977 0.3735 0.0
C139 C 0.90373 0.78803 0.40131 0.0
C140 C 0.88193 0.76938 0.4162 0.0
C141 C 0.87018 0.74383 0.40357 0.0
C142 C 0.79907 0.65589 0.3768 0.0
C143 C 0.79172 0.66224 0.40621 0.0
C144 C 0.6454 0.85904 0.85694 0.0
C145 C 0.62947 0.85289 0.88355 0.0
C146 C 0.62993 0.82755 0.89708 0.0
C147 C 0.64628 0.80908 0.88456 0.0
H148 H 0.7108 0.75865 0.90943 0.0
H149 H 0.73883 0.73053 0.93697 0.0
H150 H 0.75042 0.68414 0.85729 0.0
H151 H 0.72254 0.71206 0.82987 0.0
H152 H 0.73656 0.75081 0.76995 0.0
H153 H 0.7717 0.76477 0.72987 0.0
H154 H 0.7559 0.84786 0.73794 0.0
H155 H 0.72014 0.83375 0.7773 0.0
H156 H 0.67373 0.84623 0.82398 0.0
H157 H 0.64605 0.87852 0.84613 0.0
H158 H 0.61757 0.8219 0.91735 0.0
H159 H 0.64625 0.78984 0.89567 0.0
N160 N 0.68685 0.77523 0.86113 0.0
N161 N 0.7154 0.76306 0.82148 0.0
N162 N 0.6923 0.80088 0.81733 0.0
C163 C 0.70421 0.75839 0.84929 0.0
C164 C 0.70966 0.78421 0.80535 0.0
C165 C 0.68043 0.79631 0.84502 0.0
C166 C 0.71474 0.73774 0.86743 0.0
C167 C 0.71857 0.74191 0.89804 0.0
C168 C 0.73481 0.72598 0.91373 0.0
C169 C 0.74708 0.70537 0.89918 0.0
C170 C 0.74116 0.69978 0.86914 0.0
C171 C 0.72529 0.71588 0.85341 0.0
C172 C 0.72593 0.79128 0.77717 0.0
C173 C 0.74011 0.77193 0.76271 0.0
C174 C 0.76036 0.77995 0.73983 0.0
C175 C 0.76708 0.80754 0.73109 0.0
C176 C 0.75118 0.8264 0.74396 0.0
C177 C 0.73069 0.81832 0.76667 0.0
C178 C 0.66236 0.81539 0.85806 0.0
C179 C 0.66149 0.84051 0.8443 0.0
C180 C 0.74392 0.17137 0.34474 0.0
C181 C 0.71537 0.17459 0.33866 0.0
C182 C 0.70046 0.18889 0.35912 0.0
C183 C 0.71376 0.19966 0.38517 0.0
H184 H 0.69564 0.23194 0.46667 0.0
H185 H 0.67022 0.26027 0.49835 0.0
H186 H 0.75031 0.29226 0.54303 0.0
H187 H 0.77602 0.26378 0.51122 0.0
H188 H 0.82374 0.22507 0.50428 0.0
H189 H 0.86319 0.20481 0.52326 0.0
H190 H 0.86976 0.16234 0.43997 0.0
H191 H 0.83012 0.18241 0.42068 0.0
H192 H 0.77918 0.17902 0.37488 0.0
H193 H 0.75584 0.16017 0.32952 0.0
H194 H 0.67855 0.19197 0.35486 0.0
H195 H 0.70156 0.21053 0.40044 0.0
N196 N 0.7416 0.2212 0.43895 0.0
N197 N 0.78068 0.22627 0.47134 0.0
N198 N 0.783 0.20266 0.42626 0.0
C199 C 0.7538 0.23082 0.46492 0.0
C200 C 0.79544 0.2122 0.45219 0.0
C201 C 0.75611 0.20722 0.4194 0.0
C202 C 0.73792 0.24596 0.4861 0.0
C203 C 0.70782 0.24469 0.48349 0.0
C204 C 0.69315 0.26062 0.50196 0.0
C205 C 0.70832 0.27831 0.52326 0.0
C206 C 0.73816 0.27869 0.52683 0.0
C207 C 0.75282 0.26248 0.50855 0.0
C208 C 0.82321 0.20478 0.46118 0.0
C209 C 0.83391 0.2119 0.48966 0.0
C210 C 0.85656 0.20041 0.50059 0.0
C211 C 0.86913 0.18185 0.48316 0.0
C212 C 0.86041 0.17671 0.45377 0.0
C213 C 0.83756 0.18805 0.44285 0.0
C214 C 0.74228 0.1963 0.39142 0.0
C215 C 0.75723 0.18207 0.37084 0.0
C216 C 0.2738 0.62961 0.16957 0.0
C217 C 0.25469 0.64457 0.1563 0.0
C218 C 0.26162 0.67342 0.15754 0.0
C219 C 0.28714 0.68694 0.1712 0.0
H220 H 0.3505 0.75595 0.15906 0.0
H221 H 0.37241 0.80003 0.13841 0.0
H222 H 0.44572 0.80406 0.19583 0.0
H223 H 0.4233 0.75984 0.21718 0.0
H224 H 0.41608 0.711 0.27133 0.0
H225 H 0.43508 0.69 0.31351 0.0
H226 H 0.37306 0.6153 0.29842 0.0
H227 H 0.35361 0.6365 0.25705 0.0
H228 H 0.31311 0.63096 0.19399 0.0
H229 H 0.26907 0.60737 0.16913 0.0
H230 H 0.24749 0.68559 0.14747 0.0
H231 H 0.29181 0.70918 0.17138 0.0
N232 N 0.34632 0.71217 0.1896 0.0
N233 N 0.38308 0.71422 0.22475 0.0
N234 N 0.34582 0.67516 0.22158 0.0
C235 C 0.37118 0.7261 0.20195 0.0
C236 C 0.37048 0.68872 0.23486 0.0
C237 C 0.33349 0.68676 0.19905 0.0
C238 C 0.38499 0.75387 0.18995 0.0
C239 C 0.3713 0.76607 0.16749 0.0
C240 C 0.38407 0.79153 0.15535 0.0
C241 C 0.41115 0.80594 0.16504 0.0
C242 C 0.42476 0.79395 0.1878 0.0
C243 C 0.41191 0.76837 0.20003 0.0
C244 C 0.38308 0.67569 0.26045 0.0
C245 C 0.40645 0.69008 0.27694 0.0
C246 C 0.41753 0.67786 0.30123 0.0
C247 C 0.40574 0.65073 0.30994 0.0
C248 C 0.38256 0.63633 0.29318 0.0
C249 C 0.37144 0.64855 0.26905 0.0
C250 C 0.30619 0.67206 0.18475 0.0
C251 C 0.29899 0.64316 0.18395 0.0
C252 C 0.13456 0.27666 0.64622 0.0
C253 C 0.11358 0.25761 0.66164 0.0
C254 C 0.10365 0.26583 0.68958 0.0
C255 C 0.11477 0.29197 0.70179 0.0
H256 H 0.10041 0.35509 0.76751 0.0
H257 H 0.07991 0.37708 0.80985 0.0
H258 H 0.15025 0.44671 0.80245 0.0
H259 H 0.17093 0.42469 0.76087 0.0
H260 H 0.22027 0.42822 0.7106 0.0
H261 H 0.26557 0.45136 0.68678 0.0
H262 H 0.26332 0.38251 0.62664 0.0
H263 H 0.21859 0.35929 0.65051 0.0
H264 H 0.16199 0.31621 0.64562 0.0
H265 H 0.14234 0.27176 0.62438 0.0
H266 H 0.0877 0.25187 0.70239 0.0
H267 H 0.1069 0.29732 0.72344 0.0
N268 N 0.13774 0.34953 0.72337 0.0
N269 N 0.1756 0.3882 0.721 0.0
N270 N 0.17468 0.35217 0.6867 0.0
C271 C 0.15054 0.37473 0.73432 0.0
C272 C 0.18789 0.37708 0.69721 0.0
C273 C 0.14973 0.33812 0.69938 0.0
C274 C 0.13752 0.38788 0.76047 0.0
C275 C 0.11159 0.37506 0.77493 0.0
C276 C 0.09968 0.38782 0.79924 0.0
C277 C 0.11333 0.41381 0.80999 0.0
C278 C 0.13922 0.42655 0.79545 0.0
C279 C 0.15106 0.41387 0.77123 0.0
C280 C 0.21554 0.39172 0.68268 0.0
C281 C 0.22942 0.41796 0.69232 0.0
C282 C 0.2554 0.43135 0.67851 0.0
C283 C 0.26838 0.41885 0.65476 0.0
C284 C 0.2544 0.39268 0.64512 0.0
C285 C 0.22847 0.37938 0.6588 0.0
C286 C 0.1363 0.31063 0.68652 0.0
C287 C 0.14578 0.3025 0.65845 0.0
Sm288 Sm 0.01122 0.03666 0.5016 0.0
Sm289 Sm 0.01349 1.00728 0.5605 0.0
C290 C 1.00904 0.07184 0.45877 0.0
C291 C 0.03245 0.09193 0.44465 0.0
C292 C 0.03025 0.11977 0.44358 0.0
C293 C 0.0535 0.13918 0.43247 0.0
C294 C 0.07924 0.13096 0.42207 0.0
C295 C 0.08125 0.10305 0.42295 0.0
C296 C 0.0582 0.08377 0.43421 0.0
C297 C 0.05902 1.01234 0.50798 0.0
C298 C 0.03971 0.07185 0.56113 0.0
C299 C 0.01708 0.97189 0.60288 0.0
C300 C 0.99639 0.9475 0.61254 0.0
C301 C 0.99749 0.93752 0.64126 0.0
C302 C 0.97491 0.91731 0.6521 0.0
C303 C 0.95091 0.90688 0.63434 0.0
C304 C 0.9507 0.91603 0.60506 0.0
C305 C 0.97316 0.93627 0.59434 0.0
C306 C 0.96602 0.03225 0.55392 0.0
C307 C 0.98319 0.97248 0.50158 0.0
O308 O 1.00268 0.07699 0.4864 0.0
O309 O 1.01002 0.04594 0.45387 0.0
O310 O 0.04797 1.02555 0.52773 0.0
O311 O 0.04647 1.01377 0.48297 0.0
O312 O 0.02599 0.07205 0.53576 0.0
O313 O 0.04274 0.04836 0.5732 0.0
O314 O 0.02908 0.9704 0.57656 0.0
O315 O 1.00808 0.99508 0.60761 0.0
O316 O 0.97685 1.01855 0.53447 0.0
O317 O 0.9788 0.03107 0.57889 0.0
O318 O 0.99731 0.97198 0.52664 0.0
O319 O 0.98057 0.99615 0.48968 0.0
H320 H 0.01076 0.12656 0.45174 0.0
H321 H 0.05133 0.16056 0.43191 0.0
H322 H 0.10097 0.09617 0.41553 0.0
H323 H 0.06086 0.06254 0.43521 0.0
H324 H 0.01515 0.94614 0.65567 0.0
H325 H 0.97577 0.91044 0.67467 0.0
H326 H 0.93238 0.90871 0.59097 0.0
H327 H 0.97162 0.94408 0.5723 0.0
Sm328 Sm 0.54087 0.03514 0.04468 0.0
Sm329 Sm 0.48377 1.02258 1.02182 0.0
C330 C 0.59188 0.05724 0.06733 0.0
C331 C 0.60292 0.06948 0.09556 0.0
C332 C 0.58558 0.08286 0.11445 0.0
C333 C 0.59647 0.09418 0.14134 0.0
C334 C 0.62475 0.09206 0.14984 0.0
C335 C 0.64194 0.07853 0.13086 0.0
C336 C 0.6311 0.06736 0.10392 0.0
C337 C 0.50922 0.9863 0.06744 0.0
C338 C 0.48929 0.06161 0.07771 0.0
C339 C 0.43282 0.99968 0.99974 0.0
C340 C 0.4215 0.98907 0.97097 0.0
C341 C 0.40046 0.96499 0.96991 0.0
C342 C 0.38984 0.95418 0.94275 0.0
C343 C 0.40002 0.96738 0.91614 0.0
C344 C 0.42113 0.99158 0.91735 0.0
C345 C 0.4319 1.00225 0.94451 0.0
C346 C 0.51519 0.07128 0.99864 0.0
C347 C 0.53573 0.99639 0.98856 0.0
O348 O 0.57608 0.07107 0.05215 0.0
O349 O 0.5815 0.03095 0.06751 0.0
O350 O 0.49955 1.00844 0.06489 0.0
O351 O 0.53601 0.98966 0.058 0.0
O352 O 0.51717 0.06561 0.07032 0.0
O353 O 0.47118 0.04128 0.06557 0.0
O354 O 0.45015 0.98568 1.01244 0.0
O355 O 0.4416 1.02619 1.00212 0.0
O356 O 0.52504 0.04926 1.0015 0.0
O357 O 0.48824 0.06772 1.0076 0.0
O358 O 0.50773 0.99255 0.99553 0.0
O359 O 0.55388 1.01638 1.00119 0.0
H360 H 0.56363 0.08449 0.10847 0.0
H361 H 0.58265 0.10427 0.15567 0.0
H362 H 0.66392 0.07686 0.13669 0.0
H363 H 0.64474 0.05705 0.0896 0.0
H364 H 0.39241 0.95443 0.99012 0.0
H365 H 0.37397 0.93527 0.94258 0.0
H366 H 0.42917 1.00244 0.89732 0.0
H367 H 0.44834 1.02078 0.94482 0.0
Sm368 Sm 0.50655 0.50153 0.51146 0.0
Sm369 Sm 0.50568 0.55062 0.55243 0.0
C370 C 0.521 0.45972 0.48176 0.0
C371 C 0.54262 0.44289 0.48857 0.0
C372 C 0.56692 0.45405 0.50547 0.0
C373 C 0.58586 0.4374 0.5149 0.0
C374 C 0.5808 0.40933 0.50759 0.0
C375 C 0.5566 0.39828 0.49038 0.0
C376 C 0.5376 0.41498 0.48099 0.0
C377 C 0.4541 0.50087 0.54112 0.0
C378 C 0.53345 0.50059 0.57964 0.0
C379 C 0.48603 0.58722 0.58604 0.0
C380 C 0.48415 0.61565 0.57956 0.0
C381 C 0.463 0.62799 0.59395 0.0
C382 C 0.45762 0.65312 0.5841 0.0
C383 C 0.47335 0.66622 0.55968 0.0
C384 C 0.49536 0.65421 0.54609 0.0
C385 C 0.50063 0.62905 0.55588 0.0
C386 C 0.55693 0.56245 0.51881 0.0
C387 C 0.48391 0.55344 0.48256 0.0
O388 O 0.53142 0.48531 0.47505 0.0
O389 O 0.49873 0.45709 0.50023 0.0
O390 O 0.47911 0.50755 0.5522 0.0
O391 O 0.45637 0.49455 0.51322 0.0
O392 O 0.53149 0.48992 0.55246 0.0
O393 O 0.52339 0.52332 0.58604 0.0
O394 O 0.46897 0.56906 0.56994 0.0
O395 O 0.51241 0.58195 0.5884 0.0
O396 O 0.53789 0.54084 0.51726 0.0
O397 O 0.54926 0.57861 0.5391 0.0
O398 O 0.48343 0.56315 0.51008 0.0
O399 O 0.4942 0.53077 0.47657 0.0
H400 H 0.57101 0.47557 0.5118 0.0
H401 H 0.6045 0.4465 0.52783 0.0
H402 H 0.55203 0.37662 0.48472 0.0
H403 H 0.51867 0.406 0.46841 0.0
H404 H 0.44974 0.61762 0.61187 0.0
H405 H 0.44013 0.66158 0.59471 0.0
H406 H 0.50797 0.66389 0.52741 0.0
H407 H 0.51675 0.61953 0.54417 0.0
Sm408 Sm 0.01371 0.49813 0.04622 0.0
Sm409 Sm 1.00814 0.55483 1.01838 0.0
C410 C 0.03238 0.45347 0.06288 0.0
C411 C 0.06046 0.44631 0.07155 0.0
C412 C 0.07615 0.43237 0.05141 0.0
C413 C 0.10253 0.42526 0.0594 0.0
C414 C 0.11364 0.43169 0.08781 0.0
C415 C 0.09802 0.44573 0.10791 0.0
C416 C 0.07173 0.45298 0.09988 0.0
C417 C 0.98305 0.53038 0.08034 0.0
C418 C 0.06816 0.55237 0.05389 0.0
C419 C 0.98873 0.60148 1.01393 0.0
C420 C 0.9654 0.61219 0.99935 0.0
C421 C 0.95254 0.63202 1.01437 0.0
C422 C 0.92797 0.64026 1.00312 0.0
C423 C 0.91587 0.6289 0.97653 0.0
C424 C 0.92923 0.6095 0.96105 0.0
C425 C 0.95371 0.60101 0.97253 0.0
C426 C 0.03108 0.52319 0.97544 0.0
C427 C 0.95671 0.49964 1.00592 0.0
O428 O 0.03017 0.45984 0.03513 0.0
O429 O 0.02019 0.46893 0.08119 0.0
O430 O 1.00612 0.53875 0.06523 0.0
O431 O 0.97565 0.50378 0.07798 0.0
O432 O 0.05844 0.52561 0.05714 0.0
O433 O 0.05281 0.56836 0.04034 0.0
O434 O 0.97964 0.58317 0.03425 0.0
O435 O 1.0104 0.59566 0.99749 0.0
O436 O 0.02377 0.51691 1.00193 0.0
O437 O 0.02658 0.54795 0.97087 0.0
O438 O 0.96392 0.52683 1.00705 0.0
O439 O 0.97355 0.4837 1.01718 0.0
H440 H 0.06794 0.42679 0.02949 0.0
H441 H 0.11391 0.41415 0.04357 0.0
H442 H 0.10618 0.45116 0.12987 0.0
H443 H 0.06024 0.46371 0.11596 0.0
H444 H 0.96107 0.64061 0.03528 0.0
H445 H 0.91829 0.65545 1.01531 0.0
H446 H 0.92019 0.60032 0.9406 0.0
H447 H 0.96303 0.58527 0.96091 0.0
C448 C 0.20255 0.24119 0.34334 0.0
C449 C 0.2303 0.2359 0.34958 0.0
C450 C 0.17753 0.22696 0.3578 0.0
C451 C 0.18029 0.20682 0.3789 0.0
C452 C 0.20833 0.2026 0.38667 0.0
C453 C 0.23303 0.2172 0.37191 0.0
C454 C 0.14803 0.23212 0.34894 0.0
C455 C 0.21217 0.18144 0.40925 0.0
C456 C 0.11426 0.17571 0.42611 0.0
C457 C 0.10423 0.15122 0.41054 0.0
C458 C 0.13903 0.19414 0.41614 0.0
C459 C 0.15389 0.18792 0.38996 0.0
C460 C 0.14351 0.16344 0.37393 0.0
C461 C 0.11884 0.14541 0.38443 0.0
C462 C 0.14953 0.22004 0.43378 0.0
C463 C 0.1586 0.15615 0.34575 0.0
H464 H 0.20014 0.25534 0.32589 0.0
H465 H 0.25444 0.21333 0.37717 0.0
H466 H 0.13671 0.21426 0.336 0.0
H467 H 0.13424 0.23443 0.36882 0.0
H468 H 0.14974 0.2508 0.3352 0.0
H469 H 0.23531 0.183 0.41543 0.0
H470 H 0.19898 0.18372 0.42958 0.0
H471 H 0.20432 0.16057 0.40007 0.0
H472 H 0.10317 0.18011 0.44648 0.0
H473 H 0.1109 0.12666 0.37215 0.0
H474 H 0.15066 0.23828 0.41955 0.0
H475 H 0.17187 0.22007 0.44162 0.0
H476 H 0.13513 0.22217 0.45329 0.0
H477 H 0.15919 0.17258 0.32919 0.0
H478 H 0.14762 0.1364 0.33586 0.0
H479 H 0.18149 0.15461 0.3503 0.0
C480 C 0.33509 0.92977 0.7557 0.0
C481 C 0.33517 0.90229 0.74795 0.0
C482 C 0.34545 0.94044 0.78314 0.0
C483 C 0.35587 0.92311 0.80335 0.0
C484 C 0.35571 0.89526 0.79577 0.0
C485 C 0.34548 0.8852 0.76804 0.0
C486 C 0.34561 0.97033 0.79036 0.0
C487 C 0.36634 0.87611 0.81692 0.0
C488 C 0.40758 0.956 0.8626 0.0
C489 C 0.38871 0.95589 0.88725 0.0
C490 C 0.39716 0.94544 0.83513 0.0
C491 C 0.36721 0.93423 0.83233 0.0
C492 C 0.34807 0.93383 0.85713 0.0
C493 C 0.35902 0.94481 0.88426 0.0
C494 C 0.4182 0.94632 0.80908 0.0
C495 C 0.316 0.92191 0.85498 0.0
H496 H 0.32743 0.94307 0.74002 0.0
H497 H 0.34529 0.86388 0.76214 0.0
H498 H 0.33262 0.9722 0.81093 0.0
H499 H 0.36821 0.98105 0.79446 0.0
H500 H 0.33659 0.98099 0.77226 0.0
H501 H 0.36429 0.8549 0.80782 0.0
H502 H 0.38954 0.88388 0.82204 0.0
H503 H 0.35376 0.87537 0.83813 0.0
H504 H 0.43062 0.96411 0.86484 0.0
H505 H 0.34421 0.94502 0.90307 0.0
H506 H 0.41102 0.95797 0.79072 0.0
H507 H 0.41842 0.9252 0.80069 0.0
H508 H 0.44077 0.95603 0.81488 0.0
H509 H 0.30587 0.93344 0.83852 0.0
H510 H 0.30417 0.92255 0.87654 0.0
H511 H 0.31306 0.90027 0.84712 0.0
C512 C 0.62319 0.43243 0.70223 0.0
C513 C 0.60466 0.41708 0.72347 0.0
C514 C 0.61214 0.44555 0.67849 0.0
C515 C 0.58162 0.4435 0.6754 0.0
C516 C 0.56277 0.42778 0.69646 0.0
C517 C 0.5744 0.41489 0.72004 0.0
C518 C 0.63327 0.4618 0.65669 0.0
C519 C 0.53014 0.42474 0.69426 0.0
C520 C 0.55262 0.49879 0.63165 0.0
C521 C 0.54643 0.48614 0.60383 0.0
C522 C 0.56418 0.48534 0.6548 0.0
C523 C 0.5695 0.4582 0.65057 0.0
C524 C 0.56318 0.44526 0.62258 0.0
C525 C 0.55209 0.45937 0.59962 0.0
C526 C 0.57071 0.50027 0.68392 0.0
C527 C 0.56795 0.41631 0.6169 0.0
H528 H 0.64654 0.43404 0.70394 0.0
H529 H 0.55962 0.40351 0.7362 0.0
H530 H 0.6293 0.45312 0.63405 0.0
H531 H 0.62983 0.48336 0.65625 0.0
H532 H 0.65634 0.46178 0.66218 0.0
H533 H 0.51829 0.41109 0.7116 0.0
H534 H 0.52373 0.44517 0.69644 0.0
H535 H 0.52306 0.41625 0.67219 0.0
H536 H 0.54852 0.51941 0.63541 0.0
H537 H 0.54743 0.44916 0.57843 0.0
H538 H 0.59404 0.50159 0.68911 0.0
H539 H 0.55773 0.48865 0.70204 0.0
H540 H 0.56578 0.52137 0.68374 0.0
H541 H 0.59151 0.41565 0.61812 0.0
H542 H 0.56005 0.40831 0.59488 0.0
H543 H 0.55655 0.4024 0.63421 0.0
C544 C 0.8997 0.61835 0.19583 0.0
C545 C 0.91387 0.62217 0.22312 0.0
C546 C 0.91104 0.60475 0.17174 0.0
C547 C 0.93699 0.59405 0.17494 0.0
C548 C 0.95145 0.59795 0.20242 0.0
C549 C 0.93993 0.61211 0.22594 0.0
C550 C 0.89512 0.60173 0.14284 0.0
C551 C 0.9788 0.58656 0.20723 0.0
C552 C 0.94935 0.53431 0.12398 0.0
C553 C 0.97064 0.54709 0.10366 0.0
C554 C 0.93839 0.54925 0.14714 0.0
C555 C 0.94841 0.57798 0.14999 0.0
C556 C 0.96951 0.59111 0.12916 0.0
C557 C 0.9806 0.57552 0.10658 0.0
C558 C 0.91635 0.53413 0.16891 0.0
C559 C 0.9805 0.62167 0.13079 0.0
H560 H 0.87976 0.62625 0.1932 0.0
H561 H 0.95096 0.61466 0.24693 0.0
H562 H 0.91018 0.61011 0.12446 0.0
H563 H 0.88723 0.57967 0.13783 0.0
H564 H 0.87618 0.61242 0.14329 0.0
H565 H 0.9877 0.59153 0.22967 0.0
H566 H 0.97416 0.56391 0.20431 0.0
H567 H 0.99577 0.59487 0.1905 0.0
H568 H 0.94156 0.51237 0.12213 0.0
H569 H 0.9972 0.58563 0.09125 0.0
H570 H 0.89598 0.54265 0.16865 0.0
H571 H 0.92489 0.53705 0.19168 0.0
H572 H 0.91096 0.51177 0.16394 0.0
H573 H 0.96189 0.63276 0.13062 0.0
H574 H 0.99565 0.62907 0.11209 0.0
H575 H 0.99199 0.62707 0.15188 0.0
C576 C 0.41405 0.18242 0.13726 0.0
C577 C 0.41358 0.18624 0.16812 0.0
C578 C 0.42783 0.16224 0.12404 0.0
C579 C 0.44119 0.14517 0.14209 0.0
C580 C 0.44119 0.14913 0.17319 0.0
C581 C 0.42757 0.16971 0.1858 0.0
C582 C 0.4276 0.15883 0.09075 0.0
C583 C 0.45513 0.13128 0.19316 0.0
C584 C 0.44885 0.07652 0.10733 0.0
C585 C 0.47794 0.08169 0.09723 0.0
C586 C 0.43692 0.09668 0.12297 0.0
C587 C 0.45441 0.12274 0.12834 0.0
C588 C 0.48407 0.12775 0.1191 0.0
C589 C 0.49553 0.10711 0.10381 0.0
C590 C 0.40532 0.09039 0.1329 0.0
C591 C 0.50338 0.15532 0.1242 0.0
H592 H 0.40297 0.19474 0.1234 0.0
H593 H 0.42781 0.17279 0.20961 0.0
H594 H 0.45016 0.16011 0.08188 0.0
H595 H 0.41525 0.13825 0.08469 0.0
H596 H 0.41756 0.17463 0.07978 0.0
H597 H 0.45378 0.13735 0.21686 0.0
H598 H 0.44425 0.10953 0.19064 0.0
H599 H 0.47838 0.13242 0.18671 0.0
H600 H 0.43517 0.05688 0.10248 0.0
H601 H 0.51802 0.11133 0.09601 0.0
H602 H 0.39277 0.10349 0.12073 0.0
H603 H 0.40322 0.0952 0.15684 0.0
H604 H 0.39532 0.06854 0.129 0.0
H605 H 0.49541 0.17117 0.11118 0.0
H606 H 0.52645 0.15527 0.11762 0.0
H607 H 0.50249 0.16147 0.14787 0.0
C608 C 0.16929 0.91167 0.5286 0.0
C609 C 0.16069 0.89218 0.55076 0.0
C610 C 0.15097 0.92949 0.5203 0.0
C611 C 0.12326 0.92749 0.53428 0.0
C612 C 0.11372 0.90679 0.55542 0.0
C613 C 0.13275 0.88948 0.56368 0.0
C614 C 0.16203 0.95155 0.49793 0.0
C615 C 0.08397 0.90372 0.57021 0.0
C616 C 0.09353 0.99352 0.53913 0.0
C617 C 0.07559 0.99083 0.51453 0.0
C618 C 0.1089 0.97277 0.54608 0.0
C619 C 0.10547 0.94858 0.52839 0.0
C620 C 0.08656 0.94543 0.50408 0.0
C621 C 0.07213 0.96685 0.49715 0.0
C622 C 0.12925 0.97698 0.57194 0.0
C623 C 0.08174 0.91957 0.48532 0.0
H624 H 0.19108 0.91408 0.51895 0.0
H625 H 0.12611 0.87431 0.58074 0.0
H626 H 0.14619 0.95108 0.47993 0.0
H627 H 0.16442 0.97204 0.50884 0.0
H628 H 0.18343 0.94929 0.48791 0.0
H629 H 0.07855 0.88459 0.58332 0.0
H630 H 0.08322 0.92148 0.58528 0.0
H631 H 0.06696 0.90363 0.55344 0.0
H632 H 0.09586 1.01204 0.55265 0.0
H633 H 0.05766 0.96459 0.47848 0.0
H634 H 0.15182 0.97641 0.56405 0.0
H635 H 0.12302 0.96014 0.58805 0.0
H636 H 0.12913 0.99687 0.58361 0.0
H637 H 0.10221 0.91759 0.47322 0.0
H638 H 0.06433 0.91941 0.46892 0.0
H639 H 0.07575 0.90127 0.49959 0.0
C640 C 0.82203 0.43429 0.90123 0.0
C641 C 0.79647 0.42428 0.91775 0.0
C642 C 0.84808 0.44669 0.91513 0.0
C643 C 0.84884 0.44955 0.94645 0.0
C644 C 0.82302 0.43983 0.96321 0.0
C645 C 0.79737 0.42731 0.94877 0.0
C646 C 0.87497 0.45645 0.89625 0.0
C647 C 0.82248 0.44263 0.99653 0.0
C648 C 0.92216 0.45824 0.98583 0.0
C649 C 0.92893 0.48674 0.99104 0.0
C650 C 0.89645 0.44599 0.97127 0.0
C651 C 0.87659 0.46244 0.96171 0.0
C652 C 0.88323 0.4912 0.96701 0.0
C653 C 0.9092 0.50294 0.98141 0.0
C654 C 0.89059 0.41534 0.966 0.0
C655 C 0.86281 0.50965 0.95753 0.0
H656 H 0.82189 0.43187 0.87734 0.0
H657 H 0.7778 0.42011 0.96187 0.0
H658 H 0.88295 0.47868 0.9002 0.0
H659 H 0.89264 0.44554 0.90252 0.0
H660 H 0.8709 0.453 0.87223 0.0
H661 H 0.80064 0.4345 1.00641 0.0
H662 H 0.83854 0.43145 1.00609 0.0
H663 H 0.82888 0.46455 1.00307 0.0
H664 H 0.93712 0.4454 0.99291 0.0
H665 H 0.91397 0.52494 0.98519 0.0
H666 H 0.88823 0.41081 0.94195 0.0
H667 H 0.86977 0.40596 0.97711 0.0
H668 H 0.90825 0.40539 0.97435 0.0
H669 H 0.85971 0.50779 0.93325 0.0
H670 H 0.87099 0.53156 0.9632 0.0
H671 H 0.8411 0.50318 0.96834 0.0
C672 C 0.69146 0.61301 0.4046 0.0
C673 C 0.7181 0.61534 0.41911 0.0
C674 C 0.66476 0.60232 0.41912 0.0
C675 C 0.66454 0.59327 0.44881 0.0
C676 C 0.69149 0.59453 0.46311 0.0
C677 C 0.71779 0.60571 0.44825 0.0
C678 C 0.63667 0.60183 0.40308 0.0
C679 C 0.69253 0.58479 0.49452 0.0
C680 C 0.59875 0.59698 0.49955 0.0
C681 C 0.58384 0.56967 0.49996 0.0
C682 C 0.6245 0.60487 0.4826 0.0
C683 C 0.63625 0.58492 0.46583 0.0
C684 C 0.62126 0.55722 0.46607 0.0
C685 C 0.59509 0.54997 0.4829 0.0
C686 C 0.63926 0.63467 0.48281 0.0
C687 C 0.63313 0.53518 0.44894 0.0
H688 H 0.69138 0.62056 0.3822 0.0
H689 H 0.73824 0.60706 0.45955 0.0
H690 H 0.62289 0.58109 0.40417 0.0
H691 H 0.6242 0.61635 0.41406 0.0
H692 H 0.64049 0.60765 0.37945 0.0
H693 H 0.71515 0.58468 0.50154 0.0
H694 H 0.68268 0.59842 0.50984 0.0
H695 H 0.67957 0.56377 0.49682 0.0
H696 H 0.59015 0.6124 0.51251 0.0
H697 H 0.58378 0.52881 0.48318 0.0
H698 H 0.64214 0.64248 0.45983 0.0
H699 H 0.66127 0.63671 0.49229 0.0
H700 H 0.62672 0.64786 0.49595 0.0
H701 H 0.63559 0.5405 0.42513 0.0
H702 H 0.61888 0.5147 0.45114 0.0
H703 H 0.65512 0.53384 0.45695 0.0
C704 C 0.26177 0.39726 0.15132 0.0
C705 C 0.26295 0.36956 0.14567 0.0
C706 C 0.23961 0.40936 0.13961 0.0
C707 C 0.21802 0.3933 0.12202 0.0
C708 C 0.22003 0.36577 0.11492 0.0
C709 C 0.24251 0.35425 0.12678 0.0
C710 C 0.23843 0.43889 0.14735 0.0
C711 C 0.19739 0.34792 0.09634 0.0
C712 C 0.14199 0.41032 0.12427 0.0
C713 C 0.14088 0.42289 0.09682 0.0
C714 C 0.1671 0.40092 0.13281 0.0
C715 C 0.19181 0.40432 0.1135 0.0
C716 C 0.19103 0.41741 0.08595 0.0
C717 C 0.16549 0.42643 0.07787 0.0
C718 C 0.16696 0.38686 0.16228 0.0
C719 C 0.21705 0.42165 0.06495 0.0
H720 H 0.2777 0.40924 0.16568 0.0
H721 H 0.24306 0.33275 0.12261 0.0
H722 H 0.23515 0.45038 0.12719 0.0
H723 H 0.21963 0.43968 0.16262 0.0
H724 H 0.25859 0.44944 0.15824 0.0
H725 H 0.20357 0.32785 0.09052 0.0
H726 H 0.17625 0.34399 0.10873 0.0
H727 H 0.19398 0.35851 0.0756 0.0
H728 H 0.12291 0.40723 0.13883 0.0
H729 H 0.1648 0.43639 0.05675 0.0
H730 H 0.18506 0.39765 0.17596 0.0
H731 H 0.17049 0.36549 0.15875 0.0
H732 H 0.14615 0.38626 0.17492 0.0
H733 H 0.23647 0.43306 0.07633 0.0
H734 H 0.21332 0.43314 0.04489 0.0
H735 H 0.22217 0.40149 0.05791 0.0
C736 C 0.59955 0.21974 0.94236 0.0
C737 C 0.5971 0.2237 0.91174 0.0
C738 C 0.58738 0.19467 0.95611 0.0
C739 C 0.57202 0.17258 0.93913 0.0
C740 C 0.56943 0.17634 0.90825 0.0
C741 C 0.5819 0.20166 0.89502 0.0
C742 C 0.59067 0.19196 0.98905 0.0
C743 C 0.5533 0.15358 0.88912 0.0
C744 C 0.55888 0.0996 0.97177 0.0
C745 C 0.53023 0.0968 0.98313 0.0
C746 C 0.57268 0.12391 0.95729 0.0
C747 C 0.5576 0.14613 0.95395 0.0
C748 C 0.52866 0.14327 0.96539 0.0
C749 C 0.51547 0.11886 0.97974 0.0
C750 C 0.60353 0.12589 0.94565 0.0
C751 C 0.51153 0.16614 0.96258 0.0
H752 H 0.61066 0.2365 0.95588 0.0
H753 H 0.58002 0.20402 0.87137 0.0
H754 H 0.5689 0.18842 1.0002 0.0
H755 H 0.60083 0.17392 0.99363 0.0
H756 H 0.60418 0.21051 0.99903 0.0
H757 H 0.5537 0.15933 0.86541 0.0
H758 H 0.56305 0.13488 0.89105 0.0
H759 H 0.53027 0.14818 0.89689 0.0
H760 H 0.57057 0.0828 0.97427 0.0
H761 H 0.49338 0.1171 0.98843 0.0
H762 H 0.6179 0.14336 0.95653 0.0
H763 H 0.60451 0.12999 0.92153 0.0
H764 H 0.61222 0.10684 0.94952 0.0
H765 H 0.52296 0.18492 0.97394 0.0
H766 H 0.48914 0.16068 0.97222 0.0
H767 H 0.50996 0.17126 0.93891 0.0
C768 C 0.89703 0.8301 0.43159 0.0
C769 C 0.91543 0.81586 0.41483 0.0
C770 C 0.90764 0.85564 0.44532 0.0
C771 C 0.93747 0.8678 0.44215 0.0
C772 C 0.95611 0.85387 0.42488 0.0
C773 C 0.94497 0.82819 0.41157 0.0
C774 C 0.88686 0.86952 0.46351 0.0
C775 C 0.98802 0.86599 0.42071 0.0
C776 C 0.95951 0.9452 0.45785 0.0
C777 C 0.97077 0.94583 0.48651 0.0
C778 C 0.94889 0.92011 0.44312 0.0
C779 C 0.94915 0.89479 0.45735 0.0
C780 C 0.96028 0.89532 0.48636 0.0
C781 C 0.97105 0.92065 0.50042 0.0
C782 C 0.93752 0.9207 0.41217 0.0
C783 C 0.9608 0.86903 0.50266 0.0
H784 H 0.87407 0.82136 0.4339 0.0
H785 H 0.95963 0.81751 0.39906 0.0
H786 H 0.89443 0.87249 0.48664 0.0
H787 H 0.88644 0.89015 0.45452 0.0
H788 H 0.8643 0.8575 0.46386 0.0
H789 H 0.9995 0.8532 0.40585 0.0
H790 H 0.99053 0.88687 0.41128 0.0
H791 H 0.9988 0.86812 0.44247 0.0
H792 H 0.95932 0.96438 0.44669 0.0
H793 H 0.97973 0.92066 0.52246 0.0
H794 H 0.91441 0.9102 0.41165 0.0
H795 H 0.95001 0.90936 0.39674 0.0
H796 H 0.93905 0.94195 0.40396 0.0
H797 H 0.93842 0.8568 0.50455 0.0
H798 H 0.96968 0.87285 0.52525 0.0
H799 H 0.97427 0.85639 0.49002 0.0
C800 C 0.37282 0.7635 0.51566 0.0
C801 C 0.38479 0.79158 0.51629 0.0
C802 C 0.39085 0.74384 0.51447 0.0
C803 C 0.42145 0.75264 0.51362 0.0
C804 C 0.43337 0.78074 0.50961 0.0
C805 C 0.41483 0.80004 0.51131 0.0
C806 C 0.37722 0.71397 0.51817 0.0
C807 C 0.46582 0.79065 0.50688 0.0
C808 C 0.45705 0.71117 0.56612 0.0
C809 C 0.46503 0.69109 0.54717 0.0
C810 C 0.44438 0.73233 0.55508 0.0
C811 C 0.44006 0.7337 0.5242 0.0
C812 C 0.45035 0.71488 0.50467 0.0
C813 C 0.46253 0.69359 0.51643 0.0
C814 C 0.43383 0.7521 0.57678 0.0
C815 C 0.44692 0.71592 0.47158 0.0
H816 H 0.34959 0.75682 0.51939 0.0
H817 H 0.42406 0.82178 0.51109 0.0
H818 H 0.38744 0.70088 0.50258 0.0
H819 H 0.38088 0.70751 0.54101 0.0
H820 H 0.35337 0.71019 0.51444 0.0
H821 H 0.47109 0.81139 0.49693 0.0
H822 H 0.47543 0.79181 0.52921 0.0
H823 H 0.47623 0.77618 0.4932 0.0
H824 H 0.45967 0.70971 0.5898 0.0
H825 H 0.46868 0.67814 0.50158 0.0
H826 H 0.40974 0.74957 0.57604 0.0
H827 H 0.44302 0.77359 0.57068 0.0
H828 H 0.43995 0.74883 0.59991 0.0
H829 H 0.42571 0.70326 0.46548 0.0
H830 H 0.46433 0.70732 0.4596 0.0
H831 H 0.4474 0.73718 0.46393 0.0
C832 C 0.79242 0.83819 0.69093 0.0
C833 C 0.79282 0.81732 0.71149 0.0
C834 C 0.81797 0.85049 0.67579 0.0
C835 C 0.84449 0.84159 0.68125 0.0
C836 C 0.84467 0.8194 0.70054 0.0
C837 C 0.81889 0.80763 0.71553 0.0
C838 C 0.8169 0.87404 0.65525 0.0
C839 C 0.87247 0.80921 0.70683 0.0
C840 C 0.91 0.86634 0.63068 0.0
C841 C 0.92487 0.88868 0.64703 0.0
C842 C 0.88392 0.85054 0.64162 0.0
C843 C 0.87246 0.85738 0.66944 0.0
C844 C 0.88762 0.87963 0.68622 0.0
C845 C 0.91364 0.89497 0.67482 0.0
C846 C 0.86847 0.8268 0.62328 0.0
C847 C 0.87605 0.88764 0.71597 0.0
H848 H 0.77228 0.84549 0.68733 0.0
H849 H 0.8196 0.79178 0.73164 0.0
H850 H 0.82882 0.89339 0.66516 0.0
H851 H 0.82784 0.87087 0.63375 0.0
H852 H 0.79421 0.87662 0.65105 0.0
H853 H 0.86831 0.78967 0.7193 0.0
H854 H 0.88435 0.80603 0.68588 0.0
H855 H 0.88696 0.82488 0.72009 0.0
H856 H 0.91871 0.86133 0.60926 0.0
H857 H 0.92472 0.91251 0.6873 0.0
H858 H 0.84653 0.83044 0.6175 0.0
H859 H 0.86527 0.80761 0.63627 0.0
H860 H 0.88068 0.8237 0.60248 0.0
H861 H 0.85431 0.89326 0.71339 0.0
H862 H 0.8907 0.90525 0.72637 0.0
H863 H 0.87323 0.86997 0.73125 0.0
C864 C 0.71648 0.1657 0.28399 0.0
C865 C 0.70111 0.1629 0.31114 0.0
C866 C 0.7034 0.15446 0.25786 0.0
C867 C 0.67429 0.14001 0.25895 0.0
C868 C 0.65858 0.13725 0.28625 0.0
C869 C 0.67219 0.14876 0.31204 0.0
C870 C 0.72078 0.15793 0.22909 0.0
C871 C 0.62755 0.12186 0.28826 0.0
C872 C 0.63312 0.13059 0.18694 0.0
C873 C 0.63644 0.10401 0.17833 0.0
C874 C 0.64505 0.14249 0.21333 0.0
C875 C 0.66052 0.12735 0.23154 0.0
C876 C 0.66346 0.10033 0.22323 0.0
C877 C 0.65143 0.089 0.19667 0.0
C878 C 0.64159 0.17141 0.22145 0.0
C879 C 0.67958 0.08348 0.24224 0.0
H880 H 0.73871 0.17692 0.28315 0.0
H881 H 0.66034 0.14628 0.33304 0.0
H882 H 0.72277 0.13751 0.21972 0.0
H883 H 0.7093 0.16826 0.21265 0.0
H884 H 0.743 0.17015 0.23195 0.0
H885 H 0.61819 0.12204 0.31109 0.0
H886 H 0.61366 0.13103 0.27315 0.0
H887 H 0.62663 0.10021 0.28105 0.0
H888 H 0.62176 0.14233 0.17266 0.0
H889 H 0.65367 0.0683 0.19027 0.0
H890 H 0.66332 0.18489 0.22245 0.0
H891 H 0.63118 0.17182 0.24375 0.0
H892 H 0.62822 0.18009 0.20531 0.0
H893 H 0.70262 0.09388 0.24424 0.0
H894 H 0.67918 0.06249 0.23304 0.0
H895 H 0.66982 0.08171 0.26492 0.0
C896 C 0.44713 0.64323 0.34323 0.0
C897 C 0.41735 0.63747 0.33621 0.0
C898 C 0.4582 0.63055 0.36732 0.0
C899 C 0.43929 0.61132 0.38516 0.0
C900 C 0.40923 0.6056 0.37843 0.0
C901 C 0.39871 0.61868 0.35435 0.0
C902 C 0.49034 0.63756 0.37349 0.0
C903 C 0.38803 0.58549 0.3967 0.0
C904 C 0.47117 0.5577 0.42863 0.0
C905 C 0.47249 0.56839 0.45773 0.0
C906 C 0.46058 0.5714 0.40507 0.0
C907 C 0.45096 0.59667 0.41029 0.0
C908 C 0.45227 0.60763 0.43961 0.0
C909 C 0.46298 0.59348 0.46278 0.0
C910 C 0.45959 0.55866 0.37446 0.0
C911 C 0.44259 0.63451 0.44655 0.0
H912 H 0.46208 0.65733 0.32951 0.0
H913 H 0.37561 0.61426 0.34995 0.0
H914 H 0.49365 0.64516 0.39662 0.0
H915 H 0.50016 0.61884 0.37121 0.0
H916 H 0.50215 0.65342 0.35826 0.0
H917 H 0.36531 0.58334 0.38895 0.0
H918 H 0.39447 0.56501 0.39577 0.0
H919 H 0.38863 0.59224 0.42025 0.0
H920 H 0.47837 0.53843 0.42415 0.0
H921 H 0.46395 0.60223 0.48496 0.0
H922 H 0.47277 0.57309 0.35869 0.0
H923 H 0.43685 0.55469 0.36658 0.0
H924 H 0.46791 0.53904 0.37384 0.0
H925 H 0.45798 0.65153 0.43594 0.0
H926 H 0.44172 0.63873 0.47075 0.0
H927 H 0.42074 0.63456 0.43742 0.0
C928 C 0.07048 0.42613 0.83989 0.0
C929 C 0.10076 0.42781 0.83596 0.0
C930 C 0.05864 0.44018 0.86334 0.0
C931 C 0.07735 0.45651 0.88367 0.0
C932 C 0.10785 0.45785 0.88021 0.0
C933 C 0.11909 0.44357 0.85662 0.0
C934 C 0.02603 0.43805 0.86594 0.0
C935 C 0.12877 0.47481 0.90121 0.0
C936 C 0.05051 0.51626 0.92403 0.0
C937 C 0.04289 0.50572 0.95244 0.0
C938 C 0.06155 0.50052 0.90166 0.0
C939 C 0.0652 0.47331 0.90752 0.0
C940 C 0.0575 0.46251 0.9362 0.0
C941 C 0.04646 0.47877 0.9582 0.0
C942 C 0.06941 0.51314 0.87165 0.0
C943 C 0.06093 0.43371 0.94366 0.0
H944 H 0.05593 0.41437 0.82412 0.0
H945 H 0.14244 0.44476 0.85444 0.0
H946 H 0.01821 0.43136 0.88852 0.0
H947 H 0.02028 0.45852 0.86252 0.0
H948 H 0.01429 0.42339 0.84954 0.0
H949 H 0.15176 0.47293 0.89637 0.0
H950 H 0.12691 0.49675 0.89972 0.0
H951 H 0.12315 0.46839 0.92438 0.0
H952 H 0.04786 0.53701 0.91919 0.0
H953 H 0.04055 0.47034 0.9799 0.0
H954 H 0.05672 0.5005 0.85427 0.0
H955 H 0.09282 0.51349 0.86646 0.0
H956 H 0.06517 0.53444 0.87047 0.0
H957 H 0.04768 0.41878 0.92857 0.0
H958 H 0.05416 0.42829 0.9669 0.0
H959 H 0.08399 0.43145 0.9403 0.0
C960 C 0.61307 0.8772 0.92831 0.0
C961 C 0.61322 0.87322 0.89747 0.0
C962 C 0.59897 0.89711 0.94164 0.0
C963 C 0.58495 0.91375 0.92371 0.0
C964 C 0.58467 0.90967 0.89264 0.0
C965 C 0.59863 0.88936 0.87992 0.0
C966 C 0.59956 0.90068 0.97491 0.0
C967 C 0.57004 0.92707 0.87279 0.0
C968 C 0.53004 0.95082 0.96259 0.0
C969 C 0.54723 0.9765 0.9689 0.0
C970 C 0.5418 0.9304 0.94721 0.0
C971 C 0.57134 0.93592 0.93758 0.0
C972 C 0.5884 0.96223 0.94266 0.0
C973 C 0.57619 0.98214 0.95842 0.0
C974 C 0.52296 0.90254 0.94244 0.0
C975 C 0.61985 0.96906 0.93232 0.0
H976 H 0.6246 0.86519 0.94207 0.0
H977 H 0.59814 0.88615 0.85613 0.0
H978 H 0.61156 0.92146 0.98075 0.0
H979 H 0.57704 0.89899 0.98405 0.0
H980 H 0.61014 0.88521 0.9858 0.0
H981 H 0.57129 0.92097 0.84909 0.0
H982 H 0.54679 0.92546 0.87949 0.0
H983 H 0.58047 0.94897 0.87517 0.0
H984 H 0.50766 0.94624 0.97072 0.0
H985 H 0.58956 1.00199 0.96304 0.0
H986 H 0.53156 0.88696 0.95529 0.0
H987 H 0.5236 0.89637 0.91876 0.0
H988 H 0.49992 0.90214 0.94942 0.0
H989 H 0.6329 0.95633 0.94436 0.0
H990 H 0.62946 0.99104 0.93603 0.0
H991 H 0.62176 0.96419 0.90837 0.0
C992 C 0.91365 0.16046 0.48341 0.0
C993 C 0.88747 0.16449 0.49694 0.0
C994 C 0.92886 0.14095 0.49441 0.0
C995 C 0.91703 0.12477 0.51889 0.0
C996 C 0.89117 0.12955 0.53326 0.0
C997 C 0.87682 0.14955 0.52223 0.0
C998 C 0.95684 0.13683 0.47911 0.0
C999 C 0.87765 0.11236 0.5591 0.0
C1000 C 0.93287 0.05276 0.52288 0.0
C1001 C 0.95222 0.05538 0.54629 0.0
C1002 C 0.92118 0.07528 0.51378 0.0
C1003 C 0.93001 0.10113 0.52783 0.0
C1004 C 0.95015 0.10399 0.55108 0.0
C1005 C 0.96062 0.08086 0.56046 0.0
C1006 C 0.89928 0.07136 0.48927 0.0
C1007 C 0.96093 0.13146 0.56574 0.0
H1008 H 0.92183 0.17213 0.46389 0.0
H1009 H 0.85631 0.15242 0.5324 0.0
H1010 H 0.97393 0.13612 0.4956 0.0
H1011 H 0.95321 0.11689 0.46701 0.0
H1012 H 0.96503 0.15338 0.46305 0.0
H1013 H 0.85842 0.11982 0.56884 0.0
H1014 H 0.87066 0.09076 0.55164 0.0
H1015 H 0.89385 0.1124 0.57668 0.0
H1016 H 0.92679 0.03302 0.5118 0.0
H1017 H 0.97621 0.08294 0.57815 0.0
H1018 H 0.90767 0.08478 0.47036 0.0
H1019 H 0.87868 0.07743 0.49725 0.0
H1020 H 0.89433 0.04977 0.48113 0.0
H1021 H 0.97008 0.14683 0.54878 0.0
H1022 H 0.97796 0.13044 0.58226 0.0
H1023 H 0.9425 0.13898 0.57703 0.0
C1024 C 0.20031 0.63674 0.14867 0.0
C1025 C 0.22765 0.63029 0.14115 0.0
C1026 C 0.17469 0.62362 0.13456 0.0
C1027 C 0.1763 0.60402 0.1116 0.0
C1028 C 0.20396 0.59767 0.10371 0.0
C1029 C 0.22912 0.61052 0.11881 0.0
C1030 C 0.14579 0.63059 0.14446 0.0
C1031 C 0.20706 0.57756 0.07893 0.0
C1032 C 0.10746 0.55228 0.09142 0.0
C1033 C 0.09656 0.56504 0.06761 0.0
C1034 C 0.13317 0.56467 0.10588 0.0
C1035 C 0.1491 0.59024 0.09595 0.0
C1036 C 0.13861 0.60286 0.0714 0.0
C1037 C 0.11238 0.59038 0.05788 0.0
C1038 C 0.14287 0.55064 0.13231 0.0
C1039 C 0.15511 0.62965 0.05939 0.0
H1040 H 0.1989 0.65183 0.16601 0.0
H1041 H 0.25014 0.60557 0.11265 0.0
H1042 H 0.13578 0.63957 0.12583 0.0
H1043 H 0.13058 0.61164 0.15115 0.0
H1044 H 0.14798 0.6454 0.16335 0.0
H1045 H 0.23008 0.57535 0.07487 0.0
H1046 H 0.19403 0.5571 0.08423 0.0
H1047 H 0.19844 0.58442 0.05819 0.0
H1048 H 0.09541 0.53286 0.09941 0.0
H1049 H 0.10436 0.60042 0.03946 0.0
H1050 H 0.14348 0.56429 0.15209 0.0
H1051 H 0.16526 0.54666 0.12838 0.0
H1052 H 0.12821 0.53085 0.13731 0.0
H1053 H 0.15569 0.6461 0.07641 0.0
H1054 H 0.14515 0.63603 0.03914 0.0
H1055 H 0.17801 0.62782 0.05408 0.0
C1056 C 0.30138 0.46112 0.63411 0.0
C1057 C 0.29629 0.43282 0.63997 0.0
C1058 C 0.327 0.4741 0.61914 0.0
C1059 C 0.34829 0.45855 0.60973 0.0
C1060 C 0.34353 0.43012 0.61608 0.0
C1061 C 0.31775 0.41767 0.63103 0.0
C1062 C 0.33101 0.50441 0.61283 0.0
C1063 C 0.36558 0.41267 0.60673 0.0
C1064 C 0.40041 0.48207 0.54467 0.0
C1065 C 0.42661 0.49252 0.55889 0.0
C1066 C 0.37471 0.47169 0.56092 0.0
C1067 C 0.37501 0.47163 0.59232 0.0
C1068 C 0.40122 0.48291 0.60683 0.0
C1069 C 0.42663 0.49324 0.58999 0.0
C1070 C 0.34739 0.46006 0.5444 0.0
C1071 C 0.40264 0.48336 0.64018 0.0
H1072 H 0.28496 0.47307 0.64058 0.0
H1073 H 0.31445 0.39594 0.63582 0.0
H1074 H 0.35208 0.51523 0.62161 0.0
H1075 H 0.33174 0.50765 0.58855 0.0
H1076 H 0.31319 0.51392 0.62273 0.0
H1077 H 0.35915 0.39107 0.61408 0.0
H1078 H 0.36821 0.41275 0.58225 0.0
H1079 H 0.38715 0.42137 0.616 0.0
H1080 H 0.4001 0.48149 0.52068 0.0
H1081 H 0.44674 0.50127 0.6012 0.0
H1082 H 0.32912 0.46999 0.55227 0.0
H1083 H 0.34103 0.43778 0.54885 0.0
H1084 H 0.35025 0.46292 0.52009 0.0
H1085 H 0.38528 0.49354 0.64992 0.0
H1086 H 0.42407 0.49422 0.64818 0.0
H1087 H 0.39875 0.46202 0.64852 0.0
C1088 C 0.79183 0.70806 0.92907 0.0
C1089 C 0.76874 0.69195 0.914 0.0
C1090 C 0.8147 0.69648 0.93993 0.0
C1091 C 0.81433 0.66802 0.93589 0.0
C1092 C 0.79052 0.65144 0.92169 0.0
C1093 C 0.76808 0.66365 0.91072 0.0
C1094 C 0.83981 0.71492 0.95472 0.0
C1095 C 0.78913 0.62095 0.91743 0.0
C1096 C 0.88787 0.64545 0.93607 0.0
C1097 C 0.88912 0.63712 0.96544 0.0
C1098 C 0.86337 0.65506 0.92597 0.0
C1099 C 0.83945 0.65596 0.94564 0.0
C1100 C 0.84023 0.64664 0.97503 0.0
C1101 C 0.86515 0.6375 0.98464 0.0
C1102 C 0.86349 0.66509 0.89456 0.0
C1103 C 0.81499 0.64685 0.99651 0.0
H1104 H 0.79268 0.73002 0.93123 0.0
H1105 H 0.75018 0.65113 0.89918 0.0
H1106 H 0.84308 0.70714 0.97707 0.0
H1107 H 0.8602 0.71482 0.94162 0.0
H1108 H 0.83633 0.73645 0.95697 0.0
H1109 H 0.7682 0.61066 0.9078 0.0
H1110 H 0.80723 0.61726 0.90247 0.0
H1111 H 0.79189 0.61126 0.93892 0.0
H1112 H 0.90645 0.64529 0.92127 0.0
H1113 H 0.86595 0.6307 1.00726 0.0
H1114 H 0.86236 0.68728 0.89472 0.0
H1115 H 0.84403 0.65414 0.8829 0.0
H1116 H 0.88331 0.66211 0.88177 0.0
H1117 H 0.8122 0.6683 1.00097 0.0
H1118 H 0.81821 0.63716 1.01792 0.0
H1119 H 0.79448 0.63583 0.98675 0.0
C1120 C 0.42228 0.83766 0.12076 0.0
C1121 C 0.425 0.83306 0.15121 0.0
C1122 C 0.43485 0.86284 0.10743 0.0
C1123 C 0.45085 0.88437 0.12467 0.0
C1124 C 0.45366 0.87996 0.1554 0.0
C1125 C 0.44081 0.85456 0.1682 0.0
C1126 C 0.43129 0.86625 0.07463 0.0
C1127 C 0.47044 0.90213 0.17481 0.0
C1128 C 0.50806 0.93807 0.08482 0.0
C1129 C 0.49381 0.96057 0.0823 0.0
C1130 C 0.49447 0.91347 0.09859 0.0
C1131 C 0.46566 0.91091 0.11031 0.0
C1132 C 0.45109 0.93358 0.10782 0.0
C1133 C 0.46527 0.95805 0.09389 0.0
C1134 C 0.51104 0.89011 0.10049 0.0
C1135 C 0.42041 0.93195 0.1198 0.0
H1136 H 0.41067 0.82132 0.10704 0.0
H1137 H 0.4429 0.8517 0.19174 0.0
H1138 H 0.42154 0.88465 0.07065 0.0
H1139 H 0.45295 0.86956 0.06325 0.0
H1140 H 0.41732 0.84809 0.06442 0.0
H1141 H 0.47013 0.89592 0.19837 0.0
H1142 H 0.49343 0.9072 0.16683 0.0
H1143 H 0.46115 0.92113 0.17346 0.0
H1144 H 0.53006 0.93963 0.07593 0.0
H1145 H 0.45398 0.97519 0.09205 0.0
H1146 H 0.49909 0.87172 0.08886 0.0
H1147 H 0.51278 0.88448 0.12398 0.0
H1148 H 0.53334 0.89533 0.09058 0.0
H1149 H 0.40564 0.91489 0.10871 0.0
H1150 H 0.41211 0.9513 0.11652 0.0
H1151 H 0.41954 0.92739 0.14382 0.0
C1152 C 0.12111 0.21594 0.63104 0.0
C1153 C 0.10251 0.22948 0.64842 0.0
C1154 C 0.11104 0.19027 0.61735 0.0
C1155 C 0.08159 0.17716 0.62125 0.0
C1156 C 0.06278 0.1903 0.63924 0.0
C1157 C 0.07336 0.21619 0.65245 0.0
C1158 C 0.13198 0.1773 0.59834 0.0
C1159 C 0.03129 0.17712 0.64429 0.0
C1160 C 0.04882 0.12371 0.56313 0.0
C1161 C 0.05091 0.09869 0.5765 0.0
C1162 C 0.05853 0.14918 0.57741 0.0
C1163 C 0.07049 0.14999 0.60607 0.0
C1164 C 0.07243 0.12481 0.61982 0.0
C1165 C 0.06278 0.0996 0.60491 0.0
C1166 C 0.05612 0.1753 0.56164 0.0
C1167 C 0.08466 0.1245 0.65043 0.0
H1168 H 0.14381 0.22537 0.62814 0.0
H1169 H 0.05853 0.22626 0.66546 0.0
H1170 H 0.1335 0.1568 0.60705 0.0
H1171 H 0.12378 0.17416 0.57545 0.0
H1172 H 0.15419 0.19003 0.59742 0.0
H1173 H 0.01966 0.18937 0.65963 0.0
H1174 H 0.01986 0.17464 0.62289 0.0
H1175 H 0.0299 0.1563 0.65358 0.0
H1176 H 0.03958 0.12348 0.54131 0.0
H1177 H 0.06433 0.08054 0.61569 0.0
H1178 H 0.07804 0.18825 0.55885 0.0
H1179 H 0.04263 0.18731 0.57513 0.0
H1180 H 0.04627 0.17127 0.53948 0.0
H1181 H 0.10755 0.13562 0.65042 0.0
H1182 H 0.08407 0.10331 0.65846 0.0
H1183 H 0.0721 0.13535 0.66631 0.0
C1184 C 0.66507 0.29199 0.54856 0.0
C1185 C 0.69377 0.29923 0.53771 0.0
C1186 C 0.64756 0.31195 0.55246 0.0
C1187 C 0.6591 0.33944 0.54488 0.0
C1188 C 0.68921 0.34735 0.53833 0.0
C1189 C 0.70631 0.32704 0.5348 0.0
C1190 C 0.61583 0.30304 0.56092 0.0
C1191 C 0.70249 0.37667 0.53105 0.0
C1192 C 0.61004 0.37284 0.49774 0.0
C1193 C 0.60089 0.39164 0.51756 0.0
C1194 C 0.62899 0.35585 0.50658 0.0
C1195 C 0.639 0.35765 0.53607 0.0
C1196 C 0.63004 0.37674 0.55622 0.0
C1197 C 0.61103 0.39357 0.54667 0.0
C1198 C 0.63838 0.33601 0.48418 0.0
C1199 C 0.63978 0.37907 0.58795 0.0
H1200 H 0.65561 0.2705 0.55151 0.0
H1201 H 0.72859 0.33274 0.52665 0.0
H1202 H 0.60841 0.31834 0.57604 0.0
H1203 H 0.60255 0.30152 0.54069 0.0
H1204 H 0.61171 0.28269 0.57181 0.0
H1205 H 0.72664 0.38038 0.53214 0.0
H1206 H 0.69649 0.38122 0.50825 0.0
H1207 H 0.69402 0.39118 0.54642 0.0
H1208 H 0.60265 0.37169 0.47509 0.0
H1209 H 0.60386 0.40804 0.56207 0.0
H1210 H 0.63168 0.31463 0.49205 0.0
H1211 H 0.66247 0.3401 0.48155 0.0
H1212 H 0.62882 0.3375 0.46209 0.0
H1213 H 0.62539 0.36322 0.60126 0.0
H1214 H 0.63828 0.3995 0.59771 0.0
H1215 H 0.66247 0.37562 0.58992 0.0
loop_
_geom_bond_atom_site_label_1
_geom_bond_atom_site_label_2
_geom_bond_distance
_geom_bond_site_symmetry_2
_ccdc_geom_bond_type
C0 C1 1.384 . S
C0 H13 0.947 . S
C0 C35 1.382 . S
C1 C0 1.384 . S
C1 C2 1.378 . S
C2 C1 1.378 . S
C2 C3 1.378 . S
C2 H14 0.952 . S
C3 C2 1.378 . S
C3 H15 0.950 . S
C3 C34 1.383 . S
H4 C23 0.947 . S
H5 C24 0.946 . S
H6 C26 0.953 . S
H7 C27 0.945 . S
H8 C29 0.952 . S
H9 C30 0.949 . S
H10 C32 0.950 . S
H11 C33 0.948 . S
H12 C35 0.951 . S
H13 C0 0.947 . S
H14 C2 0.952 . S
H15 C3 0.950 . S
N16 C19 1.382 . S
N16 C21 1.363 . S
N17 C19 1.371 . S
N17 C20 1.372 . S
N18 C20 1.361 . S
N18 C21 1.377 . S
C19 N16 1.382 . S
C19 N17 1.371 . S
C19 C22 1.480 . S
C20 N17 1.372 . S
C20 N18 1.361 . S
C20 C28 1.457 . S
C21 N16 1.363 . S
C21 N18 1.377 . S
C21 C34 1.479 . S
C22 C19 1.480 . S
C22 C23 1.383 . S
C22 C27 1.385 . S
C23 H4 0.947 . S
C23 C22 1.383 . S
C23 C24 1.388 . S
C24 H5 0.946 . S
C24 C23 1.388 . S
C24 C25 1.384 . S
C25 C24 1.384 . S
C25 C26 1.377 . S
C26 H6 0.953 . S
C26 C25 1.377 . S
C26 C27 1.369 . S
C27 H7 0.945 . S
C27 C22 1.385 . S
C27 C26 1.369 . S
C28 C20 1.457 . S
C28 C29 1.372 . S
C28 C33 1.364 . S
C29 H8 0.952 . S
C29 C28 1.372 . S
C29 C30 1.389 . S
C30 H9 0.949 . S
C30 C29 1.389 . S
C30 C31 1.387 . S
C31 C30 1.387 . S
C31 C32 1.372 . S
C32 H10 0.950 . S
C32 C31 1.372 . S
C32 C33 1.379 . S
C33 H11 0.948 . S
C33 C28 1.364 . S
C33 C32 1.379 . S
C34 C3 1.383 . S
C34 C21 1.479 . S
C34 C35 1.398 . S
C35 C0 1.382 . S
C35 H12 0.951 . S
C35 C34 1.398 . S
C36 C37 1.384 . S
C36 H49 0.947 . S
C36 C71 1.382 . S
C37 C36 1.384 . S
C37 C38 1.378 . S
C38 C37 1.378 . S
C38 C39 1.378 . S
C38 H50 0.952 . S
C39 C38 1.378 . S
C39 H51 0.950 . S
C39 C70 1.383 . S
H40 C59 0.947 . S
H41 C60 0.946 . S
H42 C62 0.953 . S
H43 C63 0.945 . S
H44 C65 0.952 . S
H45 C66 0.949 . S
H46 C68 0.950 . S
H47 C69 0.948 . S
H48 C71 0.951 . S
H49 C36 0.947 . S
H50 C38 0.952 . S
H51 C39 0.950 . S
N52 C55 1.382 . S
N52 C57 1.363 . S
N53 C55 1.371 . S
N53 C56 1.372 . S
N54 C56 1.361 . S
N54 C57 1.377 . S
C55 N52 1.382 . S
C55 N53 1.371 . S
C55 C58 1.480 . S
C56 N53 1.372 . S
C56 N54 1.361 . S
C56 C64 1.457 . S
C57 N52 1.363 . S
C57 N54 1.377 . S
C57 C70 1.479 . S
C58 C55 1.480 . S
C58 C59 1.383 . S
C58 C63 1.385 . S
C59 H40 0.947 . S
C59 C58 1.383 . S
C59 C60 1.388 . S
C60 H41 0.946 . S
C60 C59 1.388 . S
C60 C61 1.384 . S
C61 C60 1.384 . S
C61 C62 1.377 . S
C62 H42 0.953 . S
C62 C61 1.377 . S
C62 C63 1.369 . S
C63 H43 0.945 . S
C63 C58 1.385 . S
C63 C62 1.369 . S
C64 C56 1.457 . S
C64 C65 1.372 . S
C64 C69 1.364 . S
C65 H44 0.952 . S
C65 C64 1.372 . S
C65 C66 1.389 . S
C66 H45 0.949 . S
C66 C65 1.389 . S
C66 C67 1.387 . S
C67 C66 1.387 . S
C67 C68 1.372 . S
C68 H46 0.950 . S
C68 C67 1.372 . S
C68 C69 1.379 . S
C69 H47 0.948 . S
C69 C64 1.364 . S
C69 C68 1.379 . S
C70 C39 1.383 . S
C70 C57 1.479 . S
C70 C71 1.398 . S
C71 C36 1.382 . S
C71 H48 0.951 . S
C71 C70 1.398 . S
C72 C73 1.384 . S
C72 H85 0.947 . S
C72 C107 1.382 . S
C73 C72 1.384 . S
C73 C74 1.378 . S
C74 C73 1.378 . S
C74 C75 1.378 . S
C74 H86 0.952 . S
C75 C74 1.378 . S
C75 H87 0.950 . S
C75 C106 1.383 . S
H76 C95 0.947 . S
H77 C96 0.946 . S
H78 C98 0.953 . S
H79 C99 0.945 . S
H80 C101 0.952 . S
H81 C102 0.949 . S
H82 C104 0.950 . S
H83 C105 0.948 . S
H84 C107 0.951 . S
H85 C72 0.947 . S
H86 C74 0.952 . S
H87 C75 0.950 . S
N88 C91 1.382 . S
N88 C93 1.363 . S
N89 C91 1.371 . S
N89 C92 1.372 . S
N90 C92 1.361 . S
N90 C93 1.377 . S
C91 N88 1.382 . S
C91 N89 1.371 . S
C91 C94 1.480 . S
C92 N89 1.372 . S
C92 N90 1.361 . S
C92 C100 1.457 . S
C93 N88 1.363 . S
C93 N90 1.377 . S
C93 C106 1.479 . S
C94 C91 1.480 . S
C94 C95 1.383 . S
C94 C99 1.385 . S
C95 H76 0.947 . S
C95 C94 1.383 . S
C95 C96 1.388 . S
C96 H77 0.946 . S
C96 C95 1.388 . S
C96 C97 1.384 . S
C97 C96 1.384 . S
C97 C98 1.377 . S
C98 H78 0.953 . S
C98 C97 1.377 . S
C98 C99 1.369 . S
C99 H79 0.945 . S
C99 C94 1.385 . S
C99 C98 1.369 . S
C100 C92 1.457 . S
C100 C101 1.372 . S
C100 C105 1.364 . S
C101 H80 0.952 . S
C101 C100 1.372 . S
C101 C102 1.389 . S
C102 H81 0.949 . S
C102 C101 1.389 . S
C102 C103 1.387 . S
C103 C102 1.387 . S
C103 C104 1.372 . S
C104 H82 0.950 . S
C104 C103 1.372 . S
C104 C105 1.379 . S
C105 H83 0.948 . S
C105 C100 1.364 . S
C105 C104 1.379 . S
C106 C75 1.383 . S
C106 C93 1.479 . S
C106 C107 1.398 . S
C107 C72 1.382 . S
C107 H84 0.951 . S
C107 C106 1.398 . S
C108 C109 1.384 . S
C108 H121 0.947 . S
C108 C143 1.382 . S
C109 C108 1.384 . S
C109 C110 1.378 . S
C110 C109 1.378 . S
C110 C111 1.378 . S
C110 H122 0.952 . S
C111 C110 1.378 . S
C111 H123 0.950 . S
C111 C142 1.383 . S
H112 C131 0.947 . S
H113 C132 0.946 . S
H114 C134 0.953 . S
H115 C135 0.945 . S
H116 C137 0.952 . S
H117 C138 0.949 . S
H118 C140 0.950 . S
H119 C141 0.948 . S
H120 C143 0.951 . S
H121 C108 0.947 . S
H122 C110 0.952 . S
H123 C111 0.950 . S
N124 C127 1.382 . S
N124 C129 1.363 . S
N125 C127 1.371 . S
N125 C128 1.372 . S
N126 C128 1.361 . S
N126 C129 1.377 . S
C127 N124 1.382 . S
C127 N125 1.371 . S
C127 C130 1.480 . S
C128 N125 1.372 . S
C128 N126 1.361 . S
C128 C136 1.457 . S
C129 N124 1.363 . S
C129 N126 1.377 . S
C129 C142 1.479 . S
C130 C127 1.480 . S
C130 C131 1.383 . S
C130 C135 1.385 . S
C131 H112 0.947 . S
C131 C130 1.383 . S
C131 C132 1.388 . S
C132 H113 0.946 . S
C132 C131 1.388 . S
C132 C133 1.384 . S
C133 C132 1.384 . S
C133 C134 1.377 . S
C134 H114 0.953 . S
C134 C133 1.377 . S
C134 C135 1.369 . S
C135 H115 0.945 . S
C135 C130 1.385 . S
C135 C134 1.369 . S
C136 C128 1.457 . S
C136 C137 1.372 . S
C136 C141 1.364 . S
C137 H116 0.952 . S
C137 C136 1.372 . S
C137 C138 1.389 . S
C138 H117 0.949 . S
C138 C137 1.389 . S
C138 C139 1.387 . S
C139 C138 1.387 . S
C139 C140 1.372 . S
C140 H118 0.950 . S
C140 C139 1.372 . S
C140 C141 1.379 . S
C141 H119 0.948 . S
C141 C136 1.364 . S
C141 C140 1.379 . S
C142 C111 1.383 . S
C142 C129 1.479 . S
C142 C143 1.398 . S
C143 C108 1.382 . S
C143 H120 0.951 . S
C143 C142 1.398 . S
C144 C145 1.384 . S
C144 H157 0.947 . S
C144 C179 1.382 . S
C145 C144 1.384 . S
C145 C146 1.378 . S
C146 C145 1.378 . S
C146 C147 1.378 . S
C146 H158 0.952 . S
C147 C146 1.378 . S
C147 H159 0.950 . S
C147 C178 1.383 . S
H148 C167 0.947 . S
H149 C168 0.946 . S
H150 C170 0.953 . S
H151 C171 0.945 . S
H152 C173 0.952 . S
H153 C174 0.949 . S
H154 C176 0.950 . S
H155 C177 0.948 . S
H156 C179 0.951 . S
H157 C144 0.947 . S
H158 C146 0.952 . S
H159 C147 0.950 . S
N160 C163 1.382 . S
N160 C165 1.363 . S
N161 C163 1.371 . S
N161 C164 1.372 . S
N162 C164 1.361 . S
N162 C165 1.377 . S
C163 N160 1.382 . S
C163 N161 1.371 . S
C163 C166 1.480 . S
C164 N161 1.372 . S
C164 N162 1.361 . S
C164 C172 1.457 . S
C165 N160 1.363 . S
C165 N162 1.377 . S
C165 C178 1.479 . S
C166 C163 1.480 . S
C166 C167 1.383 . S
C166 C171 1.385 . S
C167 H148 0.947 . S
C167 C166 1.383 . S
C167 C168 1.388 . S
C168 H149 0.946 . S
C168 C167 1.388 . S
C168 C169 1.384 . S
C169 C168 1.384 . S
C169 C170 1.377 . S
C170 H150 0.953 . S
C170 C169 1.377 . S
C170 C171 1.369 . S
C171 H151 0.945 . S
C171 C166 1.385 . S
C171 C170 1.369 . S
C172 C164 1.457 . S
C172 C173 1.372 . S
C172 C177 1.364 . S
C173 H152 0.952 . S
C173 C172 1.372 . S
C173 C174 1.389 . S
C174 H153 0.949 . S
C174 C173 1.389 . S
C174 C175 1.387 . S
C175 C174 1.387 . S
C175 C176 1.372 . S
C176 H154 0.950 . S
C176 C175 1.372 . S
C176 C177 1.379 . S
C177 H155 0.948 . S
C177 C172 1.364 . S
C177 C176 1.379 . S
C178 C147 1.383 . S
C178 C165 1.479 . S
C178 C179 1.398 . S
C179 C144 1.382 . S
C179 H156 0.951 . S
C179 C178 1.398 . S
C180 C181 1.384 . S
C180 H193 0.947 . S
C180 C215 1.382 . S
C181 C180 1.384 . S
C181 C182 1.378 . S
C182 C181 1.378 . S
C182 C183 1.378 . S
C182 H194 0.952 . S
C183 C182 1.378 . S
C183 H195 0.950 . S
C183 C214 1.383 . S
H184 C203 0.947 . S
H185 C204 0.946 . S
H186 C206 0.953 . S
H187 C207 0.945 . S
H188 C209 0.952 . S
H189 C210 0.949 . S
H190 C212 0.950 . S
H191 C213 0.948 . S
H192 C215 0.951 . S
H193 C180 0.947 . S
H194 C182 0.952 . S
H195 C183 0.950 . S
N196 C199 1.382 . S
N196 C201 1.363 . S
N197 C199 1.371 . S
N197 C200 1.372 . S
N198 C200 1.361 . S
N198 C201 1.377 . S
C199 N196 1.382 . S
C199 N197 1.371 . S
C199 C202 1.480 . S
C200 N197 1.372 . S
C200 N198 1.361 . S
C200 C208 1.457 . S
C201 N196 1.363 . S
C201 N198 1.377 . S
C201 C214 1.479 . S
C202 C199 1.480 . S
C202 C203 1.383 . S
C202 C207 1.385 . S
C203 H184 0.947 . S
C203 C202 1.383 . S
C203 C204 1.388 . S
C204 H185 0.946 . S
C204 C203 1.388 . S
C204 C205 1.384 . S
C205 C204 1.384 . S
C205 C206 1.377 . S
C206 H186 0.953 . S
C206 C205 1.377 . S
C206 C207 1.369 . S
C207 H187 0.945 . S
C207 C202 1.385 . S
C207 C206 1.369 . S
C208 C200 1.457 . S
C208 C209 1.372 . S
C208 C213 1.364 . S
C209 H188 0.952 . S
C209 C208 1.372 . S
C209 C210 1.389 . S
C210 H189 0.949 . S
C210 C209 1.389 . S
C210 C211 1.387 . S
C211 C210 1.387 . S
C211 C212 1.372 . S
C212 H190 0.950 . S
C212 C211 1.372 . S
C212 C213 1.379 . S
C213 H191 0.948 . S
C213 C208 1.364 . S
C213 C212 1.379 . S
C214 C183 1.383 . S
C214 C201 1.479 . S
C214 C215 1.398 . S
C215 C180 1.382 . S
C215 H192 0.951 . S
C215 C214 1.398 . S
C216 C217 1.384 . S
C216 H229 0.947 . S
C216 C251 1.382 . S
C217 C216 1.384 . S
C217 C218 1.378 . S
C218 C217 1.378 . S
C218 C219 1.378 . S
C218 H230 0.952 . S
C219 C218 1.378 . S
C219 H231 0.950 . S
C219 C250 1.383 . S
H220 C239 0.947 . S
H221 C240 0.946 . S
H222 C242 0.953 . S
H223 C243 0.945 . S
H224 C245 0.952 . S
H225 C246 0.949 . S
H226 C248 0.950 . S
H227 C249 0.948 . S
H228 C251 0.951 . S
H229 C216 0.947 . S
H230 C218 0.952 . S
H231 C219 0.950 . S
N232 C235 1.382 . S
N232 C237 1.363 . S
N233 C235 1.371 . S
N233 C236 1.372 . S
N234 C236 1.361 . S
N234 C237 1.377 . S
C235 N232 1.382 . S
C235 N233 1.371 . S
C235 C238 1.480 . S
C236 N233 1.372 . S
C236 N234 1.361 . S
C236 C244 1.457 . S
C237 N232 1.363 . S
C237 N234 1.377 . S
C237 C250 1.479 . S
C238 C235 1.480 . S
C238 C239 1.383 . S
C238 C243 1.385 . S
C239 H220 0.947 . S
C239 C238 1.383 . S
C239 C240 1.388 . S
C240 H221 0.946 . S
C240 C239 1.388 . S
C240 C241 1.384 . S
C241 C240 1.384 . S
C241 C242 1.377 . S
C242 H222 0.953 . S
C242 C241 1.377 . S
C242 C243 1.369 . S
C243 H223 0.945 . S
C243 C238 1.385 . S
C243 C242 1.369 . S
C244 C236 1.457 . S
C244 C245 1.372 . S
C244 C249 1.364 . S
C245 H224 0.952 . S
C245 C244 1.372 . S
C245 C246 1.389 . S
C246 H225 0.949 . S
C246 C245 1.389 . S
C246 C247 1.387 . S
C247 C246 1.387 . S
C247 C248 1.372 . S
C248 H226 0.950 . S
C248 C247 1.372 . S
C248 C249 1.379 . S
C249 H227 0.948 . S
C249 C244 1.364 . S
C249 C248 1.379 . S
C250 C219 1.383 . S
C250 C237 1.479 . S
C250 C251 1.398 . S
C251 C216 1.382 . S
C251 H228 0.951 . S
C251 C250 1.398 . S
C252 C253 1.384 . S
C252 H265 0.947 . S
C252 C287 1.382 . S
C253 C252 1.384 . S
C253 C254 1.378 . S
C254 C253 1.378 . S
C254 C255 1.378 . S
C254 H266 0.952 . S
C255 C254 1.378 . S
C255 H267 0.950 . S
C255 C286 1.383 . S
H256 C275 0.947 . S
H257 C276 0.946 . S
H258 C278 0.953 . S
H259 C279 0.945 . S
H260 C281 0.952 . S
H261 C282 0.949 . S
H262 C284 0.950 . S
H263 C285 0.948 . S
H264 C287 0.951 . S
H265 C252 0.947 . S
H266 C254 0.952 . S
H267 C255 0.950 . S
N268 C271 1.382 . S
N268 C273 1.363 . S
N269 C271 1.371 . S
N269 C272 1.372 . S
N270 C272 1.361 . S
N270 C273 1.377 . S
C271 N268 1.382 . S
C271 N269 1.371 . S
C271 C274 1.480 . S
C272 N269 1.372 . S
C272 N270 1.361 . S
C272 C280 1.457 . S
C273 N268 1.363 . S
C273 N270 1.377 . S
C273 C286 1.479 . S
C274 C271 1.480 . S
C274 C275 1.383 . S
C274 C279 1.385 . S
C275 H256 0.947 . S
C275 C274 1.383 . S
C275 C276 1.388 . S
C276 H257 0.946 . S
C276 C275 1.388 . S
C276 C277 1.384 . S
C277 C276 1.384 . S
C277 C278 1.377 . S
C278 H258 0.953 . S
C278 C277 1.377 . S
C278 C279 1.369 . S
C279 H259 0.945 . S
C279 C274 1.385 . S
C279 C278 1.369 . S
C280 C272 1.457 . S
C280 C281 1.372 . S
C280 C285 1.364 . S
C281 H260 0.952 . S
C281 C280 1.372 . S
C281 C282 1.389 . S
C282 H261 0.949 . S
C282 C281 1.389 . S
C282 C283 1.387 . S
C283 C282 1.387 . S
C283 C284 1.372 . S
C284 H262 0.950 . S
C284 C283 1.372 . S
C284 C285 1.379 . S
C285 H263 0.948 . S
C285 C280 1.364 . S
C285 C284 1.379 . S
C286 C255 1.383 . S
C286 C273 1.479 . S
C286 C287 1.398 . S
C287 C252 1.382 . S
C287 H264 0.951 . S
C287 C286 1.398 . S
Sm288 C290 2.846 . S
Sm288 O308 2.543 . S
Sm288 O309 2.450 . S
Sm288 O310 2.681 1_545 S
Sm288 O311 2.464 1_545 S
Sm288 O312 2.396 . S
Sm288 O316 2.386 1_455 S
Sm288 O319 2.408 1_445 S
Sm289 C299 2.846 . S
Sm289 O310 2.386 1_655 S
Sm289 O313 2.408 1_665 S
Sm289 O314 2.543 . S
Sm289 O315 2.450 . S
Sm289 O316 2.681 1_565 S
Sm289 O317 2.464 1_565 S
Sm289 O318 2.396 . S
C290 Sm288 2.846 . S
C290 C291 1.506 . S
C290 O308 1.261 . S
C290 O309 1.242 . S
C291 C290 1.506 . S
C291 C292 1.358 . S
C291 C296 1.382 . S
C292 C291 1.358 . S
C292 C293 1.385 . S
C292 H320 0.930 . S
C293 C292 1.385 . S
C293 C294 1.395 . S
C293 H321 0.929 . S
C294 C293 1.395 . S
C294 C295 1.335 . S
C295 C294 1.335 . S
C295 C296 1.398 . S
C295 H322 0.930 . S
C296 C291 1.382 . S
C296 C295 1.398 . S
C296 H323 0.929 . S
C297 O310 1.271 . S
C297 O311 1.251 . S
C298 O312 1.252 . S
C298 O313 1.272 . S
C299 Sm289 2.846 . S
C299 C300 1.506 . S
C299 O314 1.261 . S
C299 O315 1.242 . S
C300 C299 1.506 . S
C300 C301 1.358 . S
C300 C305 1.382 . S
C301 C300 1.358 . S
C301 C302 1.385 . S
C301 H324 0.930 . S
C302 C301 1.385 . S
C302 C303 1.395 . S
C302 H325 0.929 . S
C303 C302 1.395 . S
C303 C304 1.335 . S
C304 C303 1.335 . S
C304 C305 1.398 . S
C304 H326 0.930 . S
C305 C300 1.382 . S
C305 C304 1.398 . S
C305 H327 0.929 . S
C306 O316 1.271 . S
C306 O317 1.251 . S
C307 O318 1.252 . S
C307 O319 1.272 . S
O308 Sm288 2.543 . S
O308 C290 1.261 . S
O309 Sm288 2.450 . S
O309 C290 1.242 . S
O310 Sm288 2.681 1_565 S
O310 Sm289 2.386 1_455 S
O310 C297 1.271 . S
O311 Sm288 2.464 1_565 S
O311 C297 1.251 . S
O312 Sm288 2.396 . S
O312 C298 1.252 . S
O313 Sm289 2.408 1_445 S
O313 C298 1.272 . S
O314 Sm289 2.543 . S
O314 C299 1.261 . S
O315 Sm289 2.450 . S
O315 C299 1.242 . S
O316 Sm288 2.386 1_655 S
O316 Sm289 2.681 1_545 S
O316 C306 1.271 . S
O317 Sm289 2.464 1_545 S
O317 C306 1.251 . S
O318 Sm289 2.396 . S
O318 C307 1.252 . S
O319 Sm288 2.408 1_665 S
O319 C307 1.272 . S
H320 C292 0.930 . S
H321 C293 0.929 . S
H322 C295 0.930 . S
H323 C296 0.929 . S
H324 C301 0.930 . S
H325 C302 0.929 . S
H326 C304 0.930 . S
H327 C305 0.929 . S
Sm328 C330 2.833 1_565 S
Sm328 O348 2.520 1_565 S
Sm328 O349 2.448 1_565 S
Sm328 O350 2.692 . S
Sm328 O351 2.483 . S
Sm328 O352 2.382 1_565 S
Sm328 O356 2.368 1_564 S
Sm328 O359 2.423 1_554 S
Sm329 C339 2.846 1_545 S
Sm329 O350 2.386 1_546 S
Sm329 O353 2.408 1_556 S
Sm329 O354 2.543 1_545 S
Sm329 O355 2.450 1_545 S
Sm329 O356 2.681 . S
Sm329 O357 2.464 . S
Sm329 O358 2.396 1_545 S
C330 Sm328 2.833 1_545 S
C330 C331 1.506 . S
C330 O348 1.261 . S
C330 O349 1.242 . S
C331 C330 1.506 . S
C331 C332 1.358 . S
C331 C336 1.382 . S
C332 C331 1.358 . S
C332 C333 1.385 . S
C332 H360 0.930 . S
C333 C332 1.385 . S
C333 C334 1.395 . S
C333 H361 0.929 . S
C334 C333 1.395 . S
C334 C335 1.335 . S
C335 C334 1.335 . S
C335 C336 1.398 . S
C335 H362 0.930 . S
C336 C331 1.382 . S
C336 C335 1.398 . S
C336 H363 0.929 . S
C337 O350 1.271 . S
C337 O351 1.251 . S
C338 O352 1.252 . S
C338 O353 1.272 . S
C339 Sm329 2.846 1_565 S
C339 C340 1.506 . S
C339 O354 1.261 . S
C339 O355 1.242 . S
C340 C339 1.506 . S
C340 C341 1.358 . S
C340 C345 1.382 . S
C341 C340 1.358 . S
C341 C342 1.385 . S
C341 H364 0.930 . S
C342 C341 1.385 . S
C342 C343 1.395 . S
C342 H365 0.929 . S
C343 C342 1.395 . S
C343 C344 1.335 . S
C344 C343 1.335 . S
C344 C345 1.398 . S
C344 H366 0.930 . S
C345 C340 1.382 . S
C345 C344 1.398 . S
C345 H367 0.929 . S
C346 O356 1.271 . S
C346 O357 1.251 . S
C347 O358 1.252 . S
C347 O359 1.272 . S
O348 Sm328 2.520 1_545 S
O348 C330 1.261 . S
O349 Sm328 2.448 1_545 S
O349 C330 1.242 . S
O350 Sm328 2.692 . S
O350 Sm329 2.386 1_564 S
O350 C337 1.271 . S
O351 Sm328 2.483 . S
O351 C337 1.251 . S
O352 Sm328 2.382 1_545 S
O352 C338 1.252 . S
O353 Sm329 2.408 1_554 S
O353 C338 1.272 . S
O354 Sm329 2.543 1_565 S
O354 C339 1.261 . S
O355 Sm329 2.450 1_565 S
O355 C339 1.242 . S
O356 Sm328 2.368 1_546 S
O356 Sm329 2.681 . S
O356 C346 1.271 . S
O357 Sm329 2.464 . S
O357 C346 1.251 . S
O358 Sm329 2.396 1_565 S
O358 C347 1.252 . S
O359 Sm328 2.423 1_556 S
O359 C347 1.272 . S
H360 C332 0.930 . S
H361 C333 0.929 . S
H362 C335 0.930 . S
H363 C336 0.929 . S
H364 C341 0.930 . S
H365 C342 0.929 . S
H366 C344 0.930 . S
H367 C345 0.929 . S
Sm368 C370 2.846 . S
Sm368 O388 2.543 . S
Sm368 O389 2.450 . S
Sm368 O390 2.681 . S
Sm368 O391 2.464 . S
Sm368 O392 2.396 . S
Sm368 O396 2.386 . S
Sm368 O399 2.408 . S
Sm369 C379 2.846 . S
Sm369 O390 2.386 . S
Sm369 O393 2.408 . S
Sm369 O394 2.543 . S
Sm369 O395 2.450 . S
Sm369 O396 2.681 . S
Sm369 O397 2.464 . S
Sm369 O398 2.396 . S
C370 Sm368 2.846 . S
C370 C371 1.506 . S
C370 O388 1.261 . S
C370 O389 1.242 . S
C371 C370 1.506 . S
C371 C372 1.358 . S
C371 C376 1.382 . S
C372 C371 1.358 . S
C372 C373 1.385 . S
C372 H400 0.930 . S
C373 C372 1.385 . S
C373 C374 1.395 . S
C373 H401 0.929 . S
C374 C373 1.395 . S
C374 C375 1.335 . S
C375 C374 1.335 . S
C375 C376 1.398 . S
C375 H402 0.930 . S
C376 C371 1.382 . S
C376 C375 1.398 . S
C376 H403 0.929 . S
C377 O390 1.271 . S
C377 O391 1.251 . S
C378 O392 1.252 . S
C378 O393 1.272 . S
C379 Sm369 2.846 . S
C379 C380 1.506 . S
C379 O394 1.261 . S
C379 O395 1.242 . S
C380 C379 1.506 . S
C380 C381 1.358 . S
C380 C385 1.382 . S
C381 C380 1.358 . S
C381 C382 1.385 . S
C381 H404 0.930 . S
C382 C381 1.385 . S
C382 C383 1.395 . S
C382 H405 0.929 . S
C383 C382 1.395 . S
C383 C384 1.335 . S
C384 C383 1.335 . S
C384 C385 1.398 . S
C384 H406 0.930 . S
C385 C380 1.382 . S
C385 C384 1.398 . S
C385 H407 0.929 . S
C386 O396 1.271 . S
C386 O397 1.251 . S
C387 O398 1.252 . S
C387 O399 1.272 . S
O388 Sm368 2.543 . S
O388 C370 1.261 . S
O389 Sm368 2.450 . S
O389 C370 1.242 . S
O390 Sm368 2.681 . S
O390 Sm369 2.386 . S
O390 C377 1.271 . S
O391 Sm368 2.464 . S
O391 C377 1.251 . S
O392 Sm368 2.396 . S
O392 C378 1.252 . S
O393 Sm369 2.408 . S
O393 C378 1.272 . S
O394 Sm369 2.543 . S
O394 C379 1.261 . S
O395 Sm369 2.450 . S
O395 C379 1.242 . S
O396 Sm368 2.386 . S
O396 Sm369 2.681 . S
O396 C386 1.271 . S
O397 Sm369 2.464 . S
O397 C386 1.251 . S
O398 Sm369 2.396 . S
O398 C387 1.252 . S
O399 Sm368 2.408 . S
O399 C387 1.272 . S
H400 C372 0.930 . S
H401 C373 0.929 . S
H402 C375 0.930 . S
H403 C376 0.929 . S
H404 C381 0.930 . S
H405 C382 0.929 . S
H406 C384 0.930 . S
H407 C385 0.929 . S
Sm408 C410 2.846 . S
Sm408 O428 2.543 . S
Sm408 O429 2.450 . S
Sm408 O430 2.681 1_455 S
Sm408 O431 2.464 1_455 S
Sm408 O432 2.396 . S
Sm408 O436 2.386 1_554 S
Sm408 O439 2.408 1_454 S
Sm409 C419 2.845 . S
Sm409 O430 2.386 1_556 S
Sm409 O433 2.409 1_656 S
Sm409 O434 2.542 . S
Sm409 O435 2.449 . S
Sm409 O436 2.682 1_655 S
Sm409 O437 2.464 1_655 S
Sm409 O438 2.395 . S
C410 Sm408 2.846 . S
C410 C411 1.506 . S
C410 O428 1.261 . S
C410 O429 1.242 . S
C411 C410 1.506 . S
C411 C412 1.358 . S
C411 C416 1.382 . S
C412 C411 1.358 . S
C412 C413 1.385 . S
C412 H440 0.930 . S
C413 C412 1.385 . S
C413 C414 1.395 . S
C413 H441 0.929 . S
C414 C413 1.395 . S
C414 C415 1.335 . S
C415 C414 1.335 . S
C415 C416 1.398 . S
C415 H442 0.930 . S
C416 C411 1.382 . S
C416 C415 1.398 . S
C416 H443 0.929 . S
C417 O430 1.271 . S
C417 O431 1.251 . S
C418 O432 1.252 . S
C418 O433 1.272 . S
C419 Sm409 2.845 . S
C419 C420 1.506 . S
C419 O434 1.261 . S
C419 O435 1.242 . S
C420 C419 1.506 . S
C420 C421 1.358 . S
C420 C425 1.382 . S
C421 C420 1.358 . S
C421 C422 1.385 . S
C421 H444 0.930 . S
C422 C421 1.385 . S
C422 C423 1.395 . S
C422 H445 0.929 . S
C423 C422 1.395 . S
C423 C424 1.335 . S
C424 C423 1.335 . S
C424 C425 1.398 . S
C424 H446 0.930 . S
C425 C420 1.382 . S
C425 C424 1.398 . S
C425 H447 0.929 . S
C426 O436 1.271 . S
C426 O437 1.251 . S
C427 O438 1.252 . S
C427 O439 1.272 . S
O428 Sm408 2.543 . S
O428 C410 1.261 . S
O429 Sm408 2.450 . S
O429 C410 1.242 . S
O430 Sm408 2.681 1_655 S
O430 Sm409 2.386 1_554 S
O430 C417 1.271 . S
O431 Sm408 2.464 1_655 S
O431 C417 1.251 . S
O432 Sm408 2.396 . S
O432 C418 1.252 . S
O433 Sm409 2.409 1_454 S
O433 C418 1.272 . S
O434 Sm409 2.542 . S
O434 C419 1.261 . S
O435 Sm409 2.449 . S
O435 C419 1.242 . S
O436 Sm408 2.386 1_556 S
O436 Sm409 2.682 1_455 S
O436 C426 1.271 . S
O437 Sm409 2.464 1_455 S
O437 C426 1.251 . S
O438 Sm409 2.395 . S
O438 C427 1.252 . S
O439 Sm408 2.408 1_656 S
O439 C427 1.272 . S
H440 C412 0.930 . S
H441 C413 0.929 . S
H442 C415 0.930 . S
H443 C416 0.929 . S
H444 C421 0.930 . S
H445 C422 0.929 . S
H446 C424 0.930 . S
H447 C425 0.929 . S
C448 C449 1.391 . S
C448 C450 1.394 . S
C448 H464 0.931 . S
C449 C448 1.391 . S
C449 C453 1.376 . S
C450 C448 1.394 . S
C450 C451 1.369 . S
C450 C454 1.531 . S
C451 C450 1.369 . S
C451 C452 1.410 . S
C451 C459 1.503 . S
C452 C451 1.410 . S
C452 C453 1.392 . S
C452 C455 1.511 . S
C453 C449 1.376 . S
C453 C452 1.392 . S
C453 H465 0.929 . S
C454 C450 1.531 . S
C454 H466 0.960 . S
C454 H467 0.962 . S
C454 H468 0.960 . S
C455 C452 1.511 . S
C455 H469 0.961 . S
C455 H470 0.961 . S
C455 H471 0.961 . S
C456 C457 1.370 . S
C456 C458 1.363 . S
C456 H472 0.931 . S
C457 C456 1.370 . S
C457 C461 1.408 . S
C458 C456 1.363 . S
C458 C459 1.370 . S
C458 C462 1.524 . S
C459 C451 1.503 . S
C459 C458 1.370 . S
C459 C460 1.403 . S
C460 C459 1.403 . S
C460 C461 1.404 . S
C460 C463 1.539 . S
C461 C457 1.408 . S
C461 C460 1.404 . S
C461 H473 0.930 . S
C462 C458 1.524 . S
C462 H474 0.956 . S
C462 H475 0.961 . S
C462 H476 0.961 . S
C463 C460 1.539 . S
C463 H477 0.958 . S
C463 H478 0.961 . S
C463 H479 0.960 . S
H464 C448 0.931 . S
H465 C453 0.929 . S
H466 C454 0.960 . S
H467 C454 0.962 . S
H468 C454 0.960 . S
H469 C455 0.961 . S
H470 C455 0.961 . S
H471 C455 0.961 . S
H472 C456 0.931 . S
H473 C461 0.930 . S
H474 C462 0.956 . S
H475 C462 0.961 . S
H476 C462 0.961 . S
H477 C463 0.958 . S
H478 C463 0.961 . S
H479 C463 0.960 . S
C480 C481 1.391 . S
C480 C482 1.394 . S
C480 H496 0.931 . S
C481 C480 1.391 . S
C481 C485 1.376 . S
C482 C480 1.394 . S
C482 C483 1.369 . S
C482 C486 1.531 . S
C483 C482 1.369 . S
C483 C484 1.410 . S
C483 C491 1.503 . S
C484 C483 1.410 . S
C484 C485 1.392 . S
C484 C487 1.511 . S
C485 C481 1.376 . S
C485 C484 1.392 . S
C485 H497 0.929 . S
C486 C482 1.531 . S
C486 H498 0.960 . S
C486 H499 0.962 . S
C486 H500 0.960 . S
C487 C484 1.511 . S
C487 H501 0.961 . S
C487 H502 0.961 . S
C487 H503 0.961 . S
C488 C489 1.370 . S
C488 C490 1.363 . S
C488 H504 0.931 . S
C489 C488 1.370 . S
C489 C493 1.408 . S
C490 C488 1.363 . S
C490 C491 1.370 . S
C490 C494 1.524 . S
C491 C483 1.503 . S
C491 C490 1.370 . S
C491 C492 1.403 . S
C492 C491 1.403 . S
C492 C493 1.404 . S
C492 C495 1.539 . S
C493 C489 1.408 . S
C493 C492 1.404 . S
C493 H505 0.930 . S
C494 C490 1.524 . S
C494 H506 0.956 . S
C494 H507 0.961 . S
C494 H508 0.961 . S
C495 C492 1.539 . S
C495 H509 0.958 . S
C495 H510 0.961 . S
C495 H511 0.960 . S
H496 C480 0.931 . S
H497 C485 0.929 . S
H498 C486 0.960 . S
H499 C486 0.962 . S
H500 C486 0.960 . S
H501 C487 0.961 . S
H502 C487 0.961 . S
H503 C487 0.961 . S
H504 C488 0.931 . S
H505 C493 0.930 . S
H506 C494 0.956 . S
H507 C494 0.961 . S
H508 C494 0.961 . S
H509 C495 0.958 . S
H510 C495 0.961 . S
H511 C495 0.960 . S
C512 C513 1.391 . S
C512 C514 1.394 . S
C512 H528 0.931 . S
C513 C512 1.391 . S
C513 C517 1.376 . S
C514 C512 1.394 . S
C514 C515 1.369 . S
C514 C518 1.531 . S
C515 C514 1.369 . S
C515 C516 1.410 . S
C515 C523 1.503 . S
C516 C515 1.410 . S
C516 C517 1.392 . S
C516 C519 1.511 . S
C517 C513 1.376 . S
C517 C516 1.392 . S
C517 H529 0.929 . S
C518 C514 1.531 . S
C518 H530 0.960 . S
C518 H531 0.962 . S
C518 H532 0.960 . S
C519 C516 1.511 . S
C519 H533 0.961 . S
C519 H534 0.961 . S
C519 H535 0.961 . S
C520 C521 1.370 . S
C520 C522 1.363 . S
C520 H536 0.931 . S
C521 C520 1.370 . S
C521 C525 1.408 . S
C522 C520 1.363 . S
C522 C523 1.370 . S
C522 C526 1.524 . S
C523 C515 1.503 . S
C523 C522 1.370 . S
C523 C524 1.403 . S
C524 C523 1.403 . S
C524 C525 1.404 . S
C524 C527 1.539 . S
C525 C521 1.408 . S
C525 C524 1.404 . S
C525 H537 0.930 . S
C526 C522 1.524 . S
C526 H538 0.956 . S
C526 H539 0.961 . S
C526 H540 0.961 . S
C527 C524 1.539 . S
C527 H541 0.958 . S
C527 H542 0.961 . S
C527 H543 0.960 . S
H528 C512 0.931 . S
H529 C517 0.929 . S
H530 C518 0.960 . S
H531 C518 0.962 . S
H532 C518 0.960 . S
H533 C519 0.961 . S
H534 C519 0.961 . S
H535 C519 0.961 . S
H536 C520 0.931 . S
H537 C525 0.930 . S
H538 C526 0.956 . S
H539 C526 0.961 . S
H540 C526 0.961 . S
H541 C527 0.958 . S
H542 C527 0.961 . S
H543 C527 0.960 . S
C544 C545 1.391 . S
C544 C546 1.394 . S
C544 H560 0.931 . S
C545 C544 1.391 . S
C545 C549 1.376 . S
C546 C544 1.394 . S
C546 C547 1.369 . S
C546 C550 1.531 . S
C547 C546 1.369 . S
C547 C548 1.410 . S
C547 C555 1.503 . S
C548 C547 1.410 . S
C548 C549 1.392 . S
C548 C551 1.511 . S
C549 C545 1.376 . S
C549 C548 1.392 . S
C549 H561 0.929 . S
C550 C546 1.531 . S
C550 H562 0.960 . S
C550 H563 0.962 . S
C550 H564 0.960 . S
C551 C548 1.511 . S
C551 H565 0.961 . S
C551 H566 0.961 . S
C551 H567 0.961 . S
C552 C553 1.370 . S
C552 C554 1.363 . S
C552 H568 0.931 . S
C553 C552 1.370 . S
C553 C557 1.408 . S
C554 C552 1.363 . S
C554 C555 1.370 . S
C554 C558 1.524 . S
C555 C547 1.503 . S
C555 C554 1.370 . S
C555 C556 1.403 . S
C556 C555 1.403 . S
C556 C557 1.404 . S
C556 C559 1.539 . S
C557 C553 1.408 . S
C557 C556 1.404 . S
C557 H569 0.930 . S
C558 C554 1.524 . S
C558 H570 0.956 . S
C558 H571 0.961 . S
C558 H572 0.961 . S
C559 C556 1.539 . S
C559 H573 0.958 . S
C559 H574 0.961 . S
C559 H575 0.960 . S
H560 C544 0.931 . S
H561 C549 0.929 . S
H562 C550 0.960 . S
H563 C550 0.962 . S
H564 C550 0.960 . S
H565 C551 0.961 . S
H566 C551 0.961 . S
H567 C551 0.961 . S
H568 C552 0.931 . S
H569 C557 0.930 . S
H570 C558 0.956 . S
H571 C558 0.961 . S
H572 C558 0.961 . S
H573 C559 0.958 . S
H574 C559 0.961 . S
H575 C559 0.960 . S
C576 C577 1.391 . S
C576 C578 1.394 . S
C576 H592 0.931 . S
C577 C576 1.391 . S
C577 C581 1.376 . S
C578 C576 1.394 . S
C578 C579 1.369 . S
C578 C582 1.531 . S
C579 C578 1.369 . S
C579 C580 1.410 . S
C579 C587 1.503 . S
C580 C579 1.410 . S
C580 C581 1.392 . S
C580 C583 1.511 . S
C581 C577 1.376 . S
C581 C580 1.392 . S
C581 H593 0.929 . S
C582 C578 1.531 . S
C582 H594 0.960 . S
C582 H595 0.962 . S
C582 H596 0.960 . S
C583 C580 1.511 . S
C583 H597 0.961 . S
C583 H598 0.961 . S
C583 H599 0.961 . S
C584 C585 1.370 . S
C584 C586 1.363 . S
C584 H600 0.931 . S
C585 C584 1.370 . S
C585 C589 1.408 . S
C586 C584 1.363 . S
C586 C587 1.370 . S
C586 C590 1.524 . S
C587 C579 1.503 . S
C587 C586 1.370 . S
C587 C588 1.403 . S
C588 C587 1.403 . S
C588 C589 1.404 . S
C588 C591 1.539 . S
C589 C585 1.408 . S
C589 C588 1.404 . S
C589 H601 0.930 . S
C590 C586 1.524 . S
C590 H602 0.956 . S
C590 H603 0.961 . S
C590 H604 0.961 . S
C591 C588 1.539 . S
C591 H605 0.958 . S
C591 H606 0.961 . S
C591 H607 0.960 . S
H592 C576 0.931 . S
H593 C581 0.929 . S
H594 C582 0.960 . S
H595 C582 0.962 . S
H596 C582 0.960 . S
H597 C583 0.961 . S
H598 C583 0.961 . S
H599 C583 0.961 . S
H600 C584 0.931 . S
H601 C589 0.930 . S
H602 C590 0.956 . S
H603 C590 0.961 . S
H604 C590 0.961 . S
H605 C591 0.958 . S
H606 C591 0.961 . S
H607 C591 0.960 . S
C608 C609 1.391 . S
C608 C610 1.394 . S
C608 H624 0.931 . S
C609 C608 1.391 . S
C609 C613 1.376 . S
C610 C608 1.394 . S
C610 C611 1.369 . S
C610 C614 1.531 . S
C611 C610 1.369 . S
C611 C612 1.410 . S
C611 C619 1.503 . S
C612 C611 1.410 . S
C612 C613 1.392 . S
C612 C615 1.511 . S
C613 C609 1.376 . S
C613 C612 1.392 . S
C613 H625 0.929 . S
C614 C610 1.531 . S
C614 H626 0.960 . S
C614 H627 0.962 . S
C614 H628 0.960 . S
C615 C612 1.511 . S
C615 H629 0.961 . S
C615 H630 0.961 . S
C615 H631 0.961 . S
C616 C617 1.370 . S
C616 C618 1.363 . S
C616 H632 0.931 . S
C617 C616 1.370 . S
C617 C621 1.408 . S
C618 C616 1.363 . S
C618 C619 1.370 . S
C618 C622 1.524 . S
C619 C611 1.503 . S
C619 C618 1.370 . S
C619 C620 1.403 . S
C620 C619 1.403 . S
C620 C621 1.404 . S
C620 C623 1.539 . S
C621 C617 1.408 . S
C621 C620 1.404 . S
C621 H633 0.930 . S
C622 C618 1.524 . S
C622 H634 0.956 . S
C622 H635 0.961 . S
C622 H636 0.961 . S
C623 C620 1.539 . S
C623 H637 0.958 . S
C623 H638 0.961 . S
C623 H639 0.960 . S
H624 C608 0.931 . S
H625 C613 0.929 . S
H626 C614 0.960 . S
H627 C614 0.962 . S
H628 C614 0.960 . S
H629 C615 0.961 . S
H630 C615 0.961 . S
H631 C615 0.961 . S
H632 C616 0.931 . S
H633 C621 0.930 . S
H634 C622 0.956 . S
H635 C622 0.961 . S
H636 C622 0.961 . S
H637 C623 0.958 . S
H638 C623 0.961 . S
H639 C623 0.960 . S
C640 C641 1.391 . S
C640 C642 1.394 . S
C640 H656 0.931 . S
C641 C640 1.391 . S
C641 C645 1.376 . S
C642 C640 1.394 . S
C642 C643 1.369 . S
C642 C646 1.531 . S
C643 C642 1.369 . S
C643 C644 1.410 . S
C643 C651 1.503 . S
C644 C643 1.410 . S
C644 C645 1.392 . S
C644 C647 1.511 . S
C645 C641 1.376 . S
C645 C644 1.392 . S
C645 H657 0.929 . S
C646 C642 1.531 . S
C646 H658 0.960 . S
C646 H659 0.962 . S
C646 H660 0.960 . S
C647 C644 1.511 . S
C647 H661 0.961 . S
C647 H662 0.961 . S
C647 H663 0.961 . S
C648 C649 1.370 . S
C648 C650 1.363 . S
C648 H664 0.931 . S
C649 C648 1.370 . S
C649 C653 1.408 . S
C650 C648 1.363 . S
C650 C651 1.370 . S
C650 C654 1.524 . S
C651 C643 1.503 . S
C651 C650 1.370 . S
C651 C652 1.403 . S
C652 C651 1.403 . S
C652 C653 1.404 . S
C652 C655 1.539 . S
C653 C649 1.408 . S
C653 C652 1.404 . S
C653 H665 0.930 . S
C654 C650 1.524 . S
C654 H666 0.956 . S
C654 H667 0.961 . S
C654 H668 0.961 . S
C655 C652 1.539 . S
C655 H669 0.958 . S
C655 H670 0.961 . S
C655 H671 0.960 . S
H656 C640 0.931 . S
H657 C645 0.929 . S
H658 C646 0.960 . S
H659 C646 0.962 . S
H660 C646 0.960 . S
H661 C647 0.961 . S
H662 C647 0.961 . S
H663 C647 0.961 . S
H664 C648 0.931 . S
H665 C653 0.930 . S
H666 C654 0.956 . S
H667 C654 0.961 . S
H668 C654 0.961 . S
H669 C655 0.958 . S
H670 C655 0.961 . S
H671 C655 0.960 . S
C672 C673 1.391 . S
C672 C674 1.394 . S
C672 H688 0.931 . S
C673 C672 1.391 . S
C673 C677 1.376 . S
C674 C672 1.394 . S
C674 C675 1.369 . S
C674 C678 1.531 . S
C675 C674 1.369 . S
C675 C676 1.410 . S
C675 C683 1.503 . S
C676 C675 1.410 . S
C676 C677 1.392 . S
C676 C679 1.511 . S
C677 C673 1.376 . S
C677 C676 1.392 . S
C677 H689 0.929 . S
C678 C674 1.531 . S
C678 H690 0.960 . S
C678 H691 0.962 . S
C678 H692 0.960 . S
C679 C676 1.511 . S
C679 H693 0.961 . S
C679 H694 0.961 . S
C679 H695 0.961 . S
C680 C681 1.370 . S
C680 C682 1.363 . S
C680 H696 0.931 . S
C681 C680 1.370 . S
C681 C685 1.408 . S
C682 C680 1.363 . S
C682 C683 1.370 . S
C682 C686 1.524 . S
C683 C675 1.503 . S
C683 C682 1.370 . S
C683 C684 1.403 . S
C684 C683 1.403 . S
C684 C685 1.404 . S
C684 C687 1.539 . S
C685 C681 1.408 . S
C685 C684 1.404 . S
C685 H697 0.930 . S
C686 C682 1.524 . S
C686 H698 0.956 . S
C686 H699 0.961 . S
C686 H700 0.961 . S
C687 C684 1.539 . S
C687 H701 0.958 . S
C687 H702 0.961 . S
C687 H703 0.960 . S
H688 C672 0.931 . S
H689 C677 0.929 . S
H690 C678 0.960 . S
H691 C678 0.962 . S
H692 C678 0.960 . S
H693 C679 0.961 . S
H694 C679 0.961 . S
H695 C679 0.961 . S
H696 C680 0.931 . S
H697 C685 0.930 . S
H698 C686 0.956 . S
H699 C686 0.961 . S
H700 C686 0.961 . S
H701 C687 0.958 . S
H702 C687 0.961 . S
H703 C687 0.960 . S
C704 C705 1.391 . S
C704 C706 1.394 . S
C704 H720 0.931 . S
C705 C704 1.391 . S
C705 C709 1.376 . S
C706 C704 1.394 . S
C706 C707 1.369 . S
C706 C710 1.531 . S
C707 C706 1.369 . S
C707 C708 1.410 . S
C707 C715 1.503 . S
C708 C707 1.410 . S
C708 C709 1.392 . S
C708 C711 1.511 . S
C709 C705 1.376 . S
C709 C708 1.392 . S
C709 H721 0.929 . S
C710 C706 1.531 . S
C710 H722 0.960 . S
C710 H723 0.962 . S
C710 H724 0.960 . S
C711 C708 1.511 . S
C711 H725 0.961 . S
C711 H726 0.961 . S
C711 H727 0.961 . S
C712 C713 1.370 . S
C712 C714 1.363 . S
C712 H728 0.931 . S
C713 C712 1.370 . S
C713 C717 1.408 . S
C714 C712 1.363 . S
C714 C715 1.370 . S
C714 C718 1.524 . S
C715 C707 1.503 . S
C715 C714 1.370 . S
C715 C716 1.403 . S
C716 C715 1.403 . S
C716 C717 1.404 . S
C716 C719 1.539 . S
C717 C713 1.408 . S
C717 C716 1.404 . S
C717 H729 0.930 . S
C718 C714 1.524 . S
C718 H730 0.956 . S
C718 H731 0.961 . S
C718 H732 0.961 . S
C719 C716 1.539 . S
C719 H733 0.958 . S
C719 H734 0.961 . S
C719 H735 0.960 . S
H720 C704 0.931 . S
H721 C709 0.929 . S
H722 C710 0.960 . S
H723 C710 0.962 . S
H724 C710 0.960 . S
H725 C711 0.961 . S
H726 C711 0.961 . S
H727 C711 0.961 . S
H728 C712 0.931 . S
H729 C717 0.930 . S
H730 C718 0.956 . S
H731 C718 0.961 . S
H732 C718 0.961 . S
H733 C719 0.958 . S
H734 C719 0.961 . S
H735 C719 0.960 . S
C736 C737 1.391 . S
C736 C738 1.394 . S
C736 H752 0.931 . S
C737 C736 1.391 . S
C737 C741 1.376 . S
C738 C736 1.394 . S
C738 C739 1.369 . S
C738 C742 1.531 . S
C739 C738 1.369 . S
C739 C740 1.410 . S
C739 C747 1.503 . S
C740 C739 1.410 . S
C740 C741 1.392 . S
C740 C743 1.511 . S
C741 C737 1.376 . S
C741 C740 1.392 . S
C741 H753 0.929 . S
C742 C738 1.531 . S
C742 H754 0.960 . S
C742 H755 0.962 . S
C742 H756 0.960 . S
C743 C740 1.511 . S
C743 H757 0.961 . S
C743 H758 0.961 . S
C743 H759 0.961 . S
C744 C745 1.370 . S
C744 C746 1.363 . S
C744 H760 0.931 . S
C745 C744 1.370 . S
C745 C749 1.408 . S
C746 C744 1.363 . S
C746 C747 1.370 . S
C746 C750 1.524 . S
C747 C739 1.503 . S
C747 C746 1.370 . S
C747 C748 1.403 . S
C748 C747 1.403 . S
C748 C749 1.404 . S
C748 C751 1.539 . S
C749 C745 1.408 . S
C749 C748 1.404 . S
C749 H761 0.930 . S
C750 C746 1.524 . S
C750 H762 0.956 . S
C750 H763 0.961 . S
C750 H764 0.961 . S
C751 C748 1.539 . S
C751 H765 0.958 . S
C751 H766 0.961 . S
C751 H767 0.960 . S
H752 C736 0.931 . S
H753 C741 0.929 . S
H754 C742 0.960 . S
H755 C742 0.962 . S
H756 C742 0.960 . S
H757 C743 0.961 . S
H758 C743 0.961 . S
H759 C743 0.961 . S
H760 C744 0.931 . S
H761 C749 0.930 . S
H762 C750 0.956 . S
H763 C750 0.961 . S
H764 C750 0.961 . S
H765 C751 0.958 . S
H766 C751 0.961 . S
H767 C751 0.960 . S
C768 C769 1.391 . S
C768 C770 1.394 . S
C768 H784 0.931 . S
C769 C768 1.391 . S
C769 C773 1.376 . S
C770 C768 1.394 . S
C770 C771 1.369 . S
C770 C774 1.531 . S
C771 C770 1.369 . S
C771 C772 1.410 . S
C771 C779 1.503 . S
C772 C771 1.410 . S
C772 C773 1.392 . S
C772 C775 1.511 . S
C773 C769 1.376 . S
C773 C772 1.392 . S
C773 H785 0.929 . S
C774 C770 1.531 . S
C774 H786 0.960 . S
C774 H787 0.962 . S
C774 H788 0.960 . S
C775 C772 1.511 . S
C775 H789 0.961 . S
C775 H790 0.961 . S
C775 H791 0.961 . S
C776 C777 1.370 . S
C776 C778 1.363 . S
C776 H792 0.931 . S
C777 C776 1.370 . S
C777 C781 1.408 . S
C778 C776 1.363 . S
C778 C779 1.370 . S
C778 C782 1.524 . S
C779 C771 1.503 . S
C779 C778 1.370 . S
C779 C780 1.403 . S
C780 C779 1.403 . S
C780 C781 1.404 . S
C780 C783 1.539 . S
C781 C777 1.408 . S
C781 C780 1.404 . S
C781 H793 0.930 . S
C782 C778 1.524 . S
C782 H794 0.956 . S
C782 H795 0.961 . S
C782 H796 0.961 . S
C783 C780 1.539 . S
C783 H797 0.958 . S
C783 H798 0.961 . S
C783 H799 0.960 . S
H784 C768 0.931 . S
H785 C773 0.929 . S
H786 C774 0.960 . S
H787 C774 0.962 . S
H788 C774 0.960 . S
H789 C775 0.961 . S
H790 C775 0.961 . S
H791 C775 0.961 . S
H792 C776 0.931 . S
H793 C781 0.930 . S
H794 C782 0.956 . S
H795 C782 0.961 . S
H796 C782 0.961 . S
H797 C783 0.958 . S
H798 C783 0.961 . S
H799 C783 0.960 . S
C800 C801 1.391 . S
C800 C802 1.394 . S
C800 H816 0.931 . S
C801 C800 1.391 . S
C801 C805 1.376 . S
C802 C800 1.394 . S
C802 C803 1.369 . S
C802 C806 1.531 . S
C803 C802 1.369 . S
C803 C804 1.410 . S
C803 C811 1.503 . S
C804 C803 1.410 . S
C804 C805 1.392 . S
C804 C807 1.511 . S
C805 C801 1.376 . S
C805 C804 1.392 . S
C805 H817 0.929 . S
C806 C802 1.531 . S
C806 H818 0.960 . S
C806 H819 0.962 . S
C806 H820 0.960 . S
C807 C804 1.511 . S
C807 H821 0.961 . S
C807 H822 0.961 . S
C807 H823 0.961 . S
C808 C809 1.370 . S
C808 C810 1.363 . S
C808 H824 0.931 . S
C809 C808 1.370 . S
C809 C813 1.408 . S
C810 C808 1.363 . S
C810 C811 1.370 . S
C810 C814 1.524 . S
C811 C803 1.503 . S
C811 C810 1.370 . S
C811 C812 1.403 . S
C812 C811 1.403 . S
C812 C813 1.404 . S
C812 C815 1.539 . S
C813 C809 1.408 . S
C813 C812 1.404 . S
C813 H825 0.930 . S
C814 C810 1.524 . S
C814 H826 0.956 . S
C814 H827 0.961 . S
C814 H828 0.961 . S
C815 C812 1.539 . S
C815 H829 0.958 . S
C815 H830 0.961 . S
C815 H831 0.960 . S
H816 C800 0.931 . S
H817 C805 0.929 . S
H818 C806 0.960 . S
H819 C806 0.962 . S
H820 C806 0.960 . S
H821 C807 0.961 . S
H822 C807 0.961 . S
H823 C807 0.961 . S
H824 C808 0.931 . S
H825 C813 0.930 . S
H826 C814 0.956 . S
H827 C814 0.961 . S
H828 C814 0.961 . S
H829 C815 0.958 . S
H830 C815 0.961 . S
H831 C815 0.960 . S
C832 C833 1.391 . S
C832 C834 1.394 . S
C832 H848 0.931 . S
C833 C832 1.391 . S
C833 C837 1.376 . S
C834 C832 1.394 . S
C834 C835 1.369 . S
C834 C838 1.531 . S
C835 C834 1.369 . S
C835 C836 1.410 . S
C835 C843 1.503 . S
C836 C835 1.410 . S
C836 C837 1.392 . S
C836 C839 1.511 . S
C837 C833 1.376 . S
C837 C836 1.392 . S
C837 H849 0.929 . S
C838 C834 1.531 . S
C838 H850 0.960 . S
C838 H851 0.962 . S
C838 H852 0.960 . S
C839 C836 1.511 . S
C839 H853 0.961 . S
C839 H854 0.961 . S
C839 H855 0.961 . S
C840 C841 1.370 . S
C840 C842 1.363 . S
C840 H856 0.931 . S
C841 C840 1.370 . S
C841 C845 1.408 . S
C842 C840 1.363 . S
C842 C843 1.370 . S
C842 C846 1.524 . S
C843 C835 1.503 . S
C843 C842 1.370 . S
C843 C844 1.403 . S
C844 C843 1.403 . S
C844 C845 1.404 . S
C844 C847 1.539 . S
C845 C841 1.408 . S
C845 C844 1.404 . S
C845 H857 0.930 . S
C846 C842 1.524 . S
C846 H858 0.956 . S
C846 H859 0.961 . S
C846 H860 0.961 . S
C847 C844 1.539 . S
C847 H861 0.958 . S
C847 H862 0.961 . S
C847 H863 0.960 . S
H848 C832 0.931 . S
H849 C837 0.929 . S
H850 C838 0.960 . S
H851 C838 0.962 . S
H852 C838 0.960 . S
H853 C839 0.961 . S
H854 C839 0.961 . S
H855 C839 0.961 . S
H856 C840 0.931 . S
H857 C845 0.930 . S
H858 C846 0.956 . S
H859 C846 0.961 . S
H860 C846 0.961 . S
H861 C847 0.958 . S
H862 C847 0.961 . S
H863 C847 0.960 . S
C864 C865 1.391 . S
C864 C866 1.394 . S
C864 H880 0.931 . S
C865 C864 1.391 . S
C865 C869 1.376 . S
C866 C864 1.394 . S
C866 C867 1.369 . S
C866 C870 1.531 . S
C867 C866 1.369 . S
C867 C868 1.410 . S
C867 C875 1.503 . S
C868 C867 1.410 . S
C868 C869 1.392 . S
C868 C871 1.511 . S
C869 C865 1.376 . S
C869 C868 1.392 . S
C869 H881 0.929 . S
C870 C866 1.531 . S
C870 H882 0.960 . S
C870 H883 0.962 . S
C870 H884 0.960 . S
C871 C868 1.511 . S
C871 H885 0.961 . S
C871 H886 0.961 . S
C871 H887 0.961 . S
C872 C873 1.370 . S
C872 C874 1.363 . S
C872 H888 0.931 . S
C873 C872 1.370 . S
C873 C877 1.408 . S
C874 C872 1.363 . S
C874 C875 1.370 . S
C874 C878 1.524 . S
C875 C867 1.503 . S
C875 C874 1.370 . S
C875 C876 1.403 . S
C876 C875 1.403 . S
C876 C877 1.404 . S
C876 C879 1.539 . S
C877 C873 1.408 . S
C877 C876 1.404 . S
C877 H889 0.930 . S
C878 C874 1.524 . S
C878 H890 0.956 . S
C878 H891 0.961 . S
C878 H892 0.961 . S
C879 C876 1.539 . S
C879 H893 0.958 . S
C879 H894 0.961 . S
C879 H895 0.960 . S
H880 C864 0.931 . S
H881 C869 0.929 . S
H882 C870 0.960 . S
H883 C870 0.962 . S
H884 C870 0.960 . S
H885 C871 0.961 . S
H886 C871 0.961 . S
H887 C871 0.961 . S
H888 C872 0.931 . S
H889 C877 0.930 . S
H890 C878 0.956 . S
H891 C878 0.961 . S
H892 C878 0.961 . S
H893 C879 0.958 . S
H894 C879 0.961 . S
H895 C879 0.960 . S
C896 C897 1.391 . S
C896 C898 1.394 . S
C896 H912 0.931 . S
C897 C896 1.391 . S
C897 C901 1.376 . S
C898 C896 1.394 . S
C898 C899 1.369 . S
C898 C902 1.531 . S
C899 C898 1.369 . S
C899 C900 1.410 . S
C899 C907 1.503 . S
C900 C899 1.410 . S
C900 C901 1.392 . S
C900 C903 1.511 . S
C901 C897 1.376 . S
C901 C900 1.392 . S
C901 H913 0.929 . S
C902 C898 1.531 . S
C902 H914 0.960 . S
C902 H915 0.962 . S
C902 H916 0.960 . S
C903 C900 1.511 . S
C903 H917 0.961 . S
C903 H918 0.961 . S
C903 H919 0.961 . S
C904 C905 1.370 . S
C904 C906 1.363 . S
C904 H920 0.931 . S
C905 C904 1.370 . S
C905 C909 1.408 . S
C906 C904 1.363 . S
C906 C907 1.370 . S
C906 C910 1.524 . S
C907 C899 1.503 . S
C907 C906 1.370 . S
C907 C908 1.403 . S
C908 C907 1.403 . S
C908 C909 1.404 . S
C908 C911 1.539 . S
C909 C905 1.408 . S
C909 C908 1.404 . S
C909 H921 0.930 . S
C910 C906 1.524 . S
C910 H922 0.956 . S
C910 H923 0.961 . S
C910 H924 0.961 . S
C911 C908 1.539 . S
C911 H925 0.958 . S
C911 H926 0.961 . S
C911 H927 0.960 . S
H912 C896 0.931 . S
H913 C901 0.929 . S
H914 C902 0.960 . S
H915 C902 0.962 . S
H916 C902 0.960 . S
H917 C903 0.961 . S
H918 C903 0.961 . S
H919 C903 0.961 . S
H920 C904 0.931 . S
H921 C909 0.930 . S
H922 C910 0.956 . S
H923 C910 0.961 . S
H924 C910 0.961 . S
H925 C911 0.958 . S
H926 C911 0.961 . S
H927 C911 0.960 . S
C928 C929 1.391 . S
C928 C930 1.394 . S
C928 H944 0.931 . S
C929 C928 1.391 . S
C929 C933 1.376 . S
C930 C928 1.394 . S
C930 C931 1.369 . S
C930 C934 1.531 . S
C931 C930 1.369 . S
C931 C932 1.410 . S
C931 C939 1.503 . S
C932 C931 1.410 . S
C932 C933 1.392 . S
C932 C935 1.511 . S
C933 C929 1.376 . S
C933 C932 1.392 . S
C933 H945 0.929 . S
C934 C930 1.531 . S
C934 H946 0.960 . S
C934 H947 0.962 . S
C934 H948 0.960 . S
C935 C932 1.511 . S
C935 H949 0.961 . S
C935 H950 0.961 . S
C935 H951 0.961 . S
C936 C937 1.370 . S
C936 C938 1.363 . S
C936 H952 0.931 . S
C937 C936 1.370 . S
C937 C941 1.408 . S
C938 C936 1.363 . S
C938 C939 1.370 . S
C938 C942 1.524 . S
C939 C931 1.503 . S
C939 C938 1.370 . S
C939 C940 1.403 . S
C940 C939 1.403 . S
C940 C941 1.404 . S
C940 C943 1.539 . S
C941 C937 1.408 . S
C941 C940 1.404 . S
C941 H953 0.930 . S
C942 C938 1.524 . S
C942 H954 0.956 . S
C942 H955 0.961 . S
C942 H956 0.961 . S
C943 C940 1.539 . S
C943 H957 0.958 . S
C943 H958 0.961 . S
C943 H959 0.960 . S
H944 C928 0.931 . S
H945 C933 0.929 . S
H946 C934 0.960 . S
H947 C934 0.962 . S
H948 C934 0.960 . S
H949 C935 0.961 . S
H950 C935 0.961 . S
H951 C935 0.961 . S
H952 C936 0.931 . S
H953 C941 0.930 . S
H954 C942 0.956 . S
H955 C942 0.961 . S
H956 C942 0.961 . S
H957 C943 0.958 . S
H958 C943 0.961 . S
H959 C943 0.960 . S
C960 C961 1.391 . S
C960 C962 1.394 . S
C960 H976 0.931 . S
C961 C960 1.391 . S
C961 C965 1.376 . S
C962 C960 1.394 . S
C962 C963 1.369 . S
C962 C966 1.531 . S
C963 C962 1.369 . S
C963 C964 1.410 . S
C963 C971 1.503 . S
C964 C963 1.410 . S
C964 C965 1.392 . S
C964 C967 1.511 . S
C965 C961 1.376 . S
C965 C964 1.392 . S
C965 H977 0.929 . S
C966 C962 1.531 . S
C966 H978 0.960 . S
C966 H979 0.962 . S
C966 H980 0.960 . S
C967 C964 1.511 . S
C967 H981 0.961 . S
C967 H982 0.961 . S
C967 H983 0.961 . S
C968 C969 1.370 . S
C968 C970 1.363 . S
C968 H984 0.931 . S
C969 C968 1.370 . S
C969 C973 1.408 . S
C970 C968 1.363 . S
C970 C971 1.370 . S
C970 C974 1.524 . S
C971 C963 1.503 . S
C971 C970 1.370 . S
C971 C972 1.403 . S
C972 C971 1.403 . S
C972 C973 1.404 . S
C972 C975 1.539 . S
C973 C969 1.408 . S
C973 C972 1.404 . S
C973 H985 0.930 . S
C974 C970 1.524 . S
C974 H986 0.956 . S
C974 H987 0.961 . S
C974 H988 0.961 . S
C975 C972 1.539 . S
C975 H989 0.958 . S
C975 H990 0.961 . S
C975 H991 0.960 . S
H976 C960 0.931 . S
H977 C965 0.929 . S
H978 C966 0.960 . S
H979 C966 0.962 . S
H980 C966 0.960 . S
H981 C967 0.961 . S
H982 C967 0.961 . S
H983 C967 0.961 . S
H984 C968 0.931 . S
H985 C973 0.930 . S
H986 C974 0.956 . S
H987 C974 0.961 . S
H988 C974 0.961 . S
H989 C975 0.958 . S
H990 C975 0.961 . S
H991 C975 0.960 . S
C992 C993 1.391 . S
C992 C994 1.394 . S
C992 H1008 0.931 . S
C993 C992 1.391 . S
C993 C997 1.376 . S
C994 C992 1.394 . S
C994 C995 1.369 . S
C994 C998 1.531 . S
C995 C994 1.369 . S
C995 C996 1.410 . S
C995 C1003 1.503 . S
C996 C995 1.410 . S
C996 C997 1.392 . S
C996 C999 1.511 . S
C997 C993 1.376 . S
C997 C996 1.392 . S
C997 H1009 0.929 . S
C998 C994 1.531 . S
C998 H1010 0.960 . S
C998 H1011 0.962 . S
C998 H1012 0.960 . S
C999 C996 1.511 . S
C999 H1013 0.961 . S
C999 H1014 0.961 . S
C999 H1015 0.961 . S
C1000 C1001 1.370 . S
C1000 C1002 1.363 . S
C1000 H1016 0.931 . S
C1001 C1000 1.370 . S
C1001 C1005 1.408 . S
C1002 C1000 1.363 . S
C1002 C1003 1.370 . S
C1002 C1006 1.524 . S
C1003 C995 1.503 . S
C1003 C1002 1.370 . S
C1003 C1004 1.403 . S
C1004 C1003 1.403 . S
C1004 C1005 1.404 . S
C1004 C1007 1.539 . S
C1005 C1001 1.408 . S
C1005 C1004 1.404 . S
C1005 H1017 0.930 . S
C1006 C1002 1.524 . S
C1006 H1018 0.956 . S
C1006 H1019 0.961 . S
C1006 H1020 0.961 . S
C1007 C1004 1.539 . S
C1007 H1021 0.958 . S
C1007 H1022 0.961 . S
C1007 H1023 0.960 . S
H1008 C992 0.931 . S
H1009 C997 0.929 . S
H1010 C998 0.960 . S
H1011 C998 0.962 . S
H1012 C998 0.960 . S
H1013 C999 0.961 . S
H1014 C999 0.961 . S
H1015 C999 0.961 . S
H1016 C1000 0.931 . S
H1017 C1005 0.930 . S
H1018 C1006 0.956 . S
H1019 C1006 0.961 . S
H1020 C1006 0.961 . S
H1021 C1007 0.958 . S
H1022 C1007 0.961 . S
H1023 C1007 0.960 . S
C1024 C1025 1.391 . S
C1024 C1026 1.394 . S
C1024 H1040 0.931 . S
C1025 C1024 1.391 . S
C1025 C1029 1.376 . S
C1026 C1024 1.394 . S
C1026 C1027 1.369 . S
C1026 C1030 1.531 . S
C1027 C1026 1.369 . S
C1027 C1028 1.410 . S
C1027 C1035 1.503 . S
C1028 C1027 1.410 . S
C1028 C1029 1.392 . S
C1028 C1031 1.511 . S
C1029 C1025 1.376 . S
C1029 C1028 1.392 . S
C1029 H1041 0.929 . S
C1030 C1026 1.531 . S
C1030 H1042 0.960 . S
C1030 H1043 0.962 . S
C1030 H1044 0.960 . S
C1031 C1028 1.511 . S
C1031 H1045 0.961 . S
C1031 H1046 0.961 . S
C1031 H1047 0.961 . S
C1032 C1033 1.370 . S
C1032 C1034 1.363 . S
C1032 H1048 0.931 . S
C1033 C1032 1.370 . S
C1033 C1037 1.408 . S
C1034 C1032 1.363 . S
C1034 C1035 1.370 . S
C1034 C1038 1.524 . S
C1035 C1027 1.503 . S
C1035 C1034 1.370 . S
C1035 C1036 1.403 . S
C1036 C1035 1.403 . S
C1036 C1037 1.404 . S
C1036 C1039 1.539 . S
C1037 C1033 1.408 . S
C1037 C1036 1.404 . S
C1037 H1049 0.930 . S
C1038 C1034 1.524 . S
C1038 H1050 0.956 . S
C1038 H1051 0.961 . S
C1038 H1052 0.961 . S
C1039 C1036 1.539 . S
C1039 H1053 0.958 . S
C1039 H1054 0.961 . S
C1039 H1055 0.960 . S
H1040 C1024 0.931 . S
H1041 C1029 0.929 . S
H1042 C1030 0.960 . S
H1043 C1030 0.962 . S
H1044 C1030 0.960 . S
H1045 C1031 0.961 . S
H1046 C1031 0.961 . S
H1047 C1031 0.961 . S
H1048 C1032 0.931 . S
H1049 C1037 0.930 . S
H1050 C1038 0.956 . S
H1051 C1038 0.961 . S
H1052 C1038 0.961 . S
H1053 C1039 0.958 . S
H1054 C1039 0.961 . S
H1055 C1039 0.960 . S
C1056 C1057 1.391 . S
C1056 C1058 1.394 . S
C1056 H1072 0.931 . S
C1057 C1056 1.391 . S
C1057 C1061 1.376 . S
C1058 C1056 1.394 . S
C1058 C1059 1.369 . S
C1058 C1062 1.531 . S
C1059 C1058 1.369 . S
C1059 C1060 1.410 . S
C1059 C1067 1.503 . S
C1060 C1059 1.410 . S
C1060 C1061 1.392 . S
C1060 C1063 1.511 . S
C1061 C1057 1.376 . S
C1061 C1060 1.392 . S
C1061 H1073 0.929 . S
C1062 C1058 1.531 . S
C1062 H1074 0.960 . S
C1062 H1075 0.962 . S
C1062 H1076 0.960 . S
C1063 C1060 1.511 . S
C1063 H1077 0.961 . S
C1063 H1078 0.961 . S
C1063 H1079 0.961 . S
C1064 C1065 1.370 . S
C1064 C1066 1.363 . S
C1064 H1080 0.931 . S
C1065 C1064 1.370 . S
C1065 C1069 1.408 . S
C1066 C1064 1.363 . S
C1066 C1067 1.370 . S
C1066 C1070 1.524 . S
C1067 C1059 1.503 . S
C1067 C1066 1.370 . S
C1067 C1068 1.403 . S
C1068 C1067 1.403 . S
C1068 C1069 1.404 . S
C1068 C1071 1.539 . S
C1069 C1065 1.408 . S
C1069 C1068 1.404 . S
C1069 H1081 0.930 . S
C1070 C1066 1.524 . S
C1070 H1082 0.956 . S
C1070 H1083 0.961 . S
C1070 H1084 0.961 . S
C1071 C1068 1.539 . S
C1071 H1085 0.958 . S
C1071 H1086 0.961 . S
C1071 H1087 0.960 . S
H1072 C1056 0.931 . S
H1073 C1061 0.929 . S
H1074 C1062 0.960 . S
H1075 C1062 0.962 . S
H1076 C1062 0.960 . S
H1077 C1063 0.961 . S
H1078 C1063 0.961 . S
H1079 C1063 0.961 . S
H1080 C1064 0.931 . S
H1081 C1069 0.930 . S
H1082 C1070 0.956 . S
H1083 C1070 0.961 . S
H1084 C1070 0.961 . S
H1085 C1071 0.958 . S
H1086 C1071 0.961 . S
H1087 C1071 0.960 . S
C1088 C1089 1.391 . S
C1088 C1090 1.394 . S
C1088 H1104 0.931 . S
C1089 C1088 1.391 . S
C1089 C1093 1.376 . S
C1090 C1088 1.394 . S
C1090 C1091 1.369 . S
C1090 C1094 1.531 . S
C1091 C1090 1.369 . S
C1091 C1092 1.410 . S
C1091 C1099 1.503 . S
C1092 C1091 1.410 . S
C1092 C1093 1.392 . S
C1092 C1095 1.511 . S
C1093 C1089 1.376 . S
C1093 C1092 1.392 . S
C1093 H1105 0.929 . S
C1094 C1090 1.531 . S
C1094 H1106 0.960 . S
C1094 H1107 0.962 . S
C1094 H1108 0.960 . S
C1095 C1092 1.511 . S
C1095 H1109 0.961 . S
C1095 H1110 0.961 . S
C1095 H1111 0.961 . S
C1096 C1097 1.370 . S
C1096 C1098 1.363 . S
C1096 H1112 0.931 . S
C1097 C1096 1.370 . S
C1097 C1101 1.408 . S
C1098 C1096 1.363 . S
C1098 C1099 1.370 . S
C1098 C1102 1.524 . S
C1099 C1091 1.503 . S
C1099 C1098 1.370 . S
C1099 C1100 1.403 . S
C1100 C1099 1.403 . S
C1100 C1101 1.404 . S
C1100 C1103 1.539 . S
C1101 C1097 1.408 . S
C1101 C1100 1.404 . S
C1101 H1113 0.930 . S
C1102 C1098 1.524 . S
C1102 H1114 0.956 . S
C1102 H1115 0.961 . S
C1102 H1116 0.961 . S
C1103 C1100 1.539 . S
C1103 H1117 0.958 . S
C1103 H1118 0.961 . S
C1103 H1119 0.960 . S
H1104 C1088 0.931 . S
H1105 C1093 0.929 . S
H1106 C1094 0.960 . S
H1107 C1094 0.962 . S
H1108 C1094 0.960 . S
H1109 C1095 0.961 . S
H1110 C1095 0.961 . S
H1111 C1095 0.961 . S
H1112 C1096 0.931 . S
H1113 C1101 0.930 . S
H1114 C1102 0.956 . S
H1115 C1102 0.961 . S
H1116 C1102 0.961 . S
H1117 C1103 0.958 . S
H1118 C1103 0.961 . S
H1119 C1103 0.960 . S
C1120 C1121 1.391 . S
C1120 C1122 1.394 . S
C1120 H1136 0.931 . S
C1121 C1120 1.391 . S
C1121 C1125 1.376 . S
C1122 C1120 1.394 . S
C1122 C1123 1.369 . S
C1122 C1126 1.531 . S
C1123 C1122 1.369 . S
C1123 C1124 1.410 . S
C1123 C1131 1.503 . S
C1124 C1123 1.410 . S
C1124 C1125 1.392 . S
C1124 C1127 1.511 . S
C1125 C1121 1.376 . S
C1125 C1124 1.392 . S
C1125 H1137 0.929 . S
C1126 C1122 1.531 . S
C1126 H1138 0.960 . S
C1126 H1139 0.962 . S
C1126 H1140 0.960 . S
C1127 C1124 1.511 . S
C1127 H1141 0.961 . S
C1127 H1142 0.961 . S
C1127 H1143 0.961 . S
C1128 C1129 1.370 . S
C1128 C1130 1.363 . S
C1128 H1144 0.931 . S
C1129 C1128 1.370 . S
C1129 C1133 1.408 . S
C1130 C1128 1.363 . S
C1130 C1131 1.370 . S
C1130 C1134 1.524 . S
C1131 C1123 1.503 . S
C1131 C1130 1.370 . S
C1131 C1132 1.403 . S
C1132 C1131 1.403 . S
C1132 C1133 1.404 . S
C1132 C1135 1.539 . S
C1133 C1129 1.408 . S
C1133 C1132 1.404 . S
C1133 H1145 0.930 . S
C1134 C1130 1.524 . S
C1134 H1146 0.956 . S
C1134 H1147 0.961 . S
C1134 H1148 0.961 . S
C1135 C1132 1.539 . S
C1135 H1149 0.958 . S
C1135 H1150 0.961 . S
C1135 H1151 0.960 . S
H1136 C1120 0.931 . S
H1137 C1125 0.929 . S
H1138 C1126 0.960 . S
H1139 C1126 0.962 . S
H1140 C1126 0.960 . S
H1141 C1127 0.961 . S
H1142 C1127 0.961 . S
H1143 C1127 0.961 . S
H1144 C1128 0.931 . S
H1145 C1133 0.930 . S
H1146 C1134 0.956 . S
H1147 C1134 0.961 . S
H1148 C1134 0.961 . S
H1149 C1135 0.958 . S
H1150 C1135 0.961 . S
H1151 C1135 0.960 . S
C1152 C1153 1.391 . S
C1152 C1154 1.394 . S
C1152 H1168 0.931 . S
C1153 C1152 1.391 . S
C1153 C1157 1.376 . S
C1154 C1152 1.394 . S
C1154 C1155 1.369 . S
C1154 C1158 1.531 . S
C1155 C1154 1.369 . S
C1155 C1156 1.410 . S
C1155 C1163 1.503 . S
C1156 C1155 1.410 . S
C1156 C1157 1.392 . S
C1156 C1159 1.511 . S
C1157 C1153 1.376 . S
C1157 C1156 1.392 . S
C1157 H1169 0.929 . S
C1158 C1154 1.531 . S
C1158 H1170 0.960 . S
C1158 H1171 0.962 . S
C1158 H1172 0.960 . S
C1159 C1156 1.511 . S
C1159 H1173 0.961 . S
C1159 H1174 0.961 . S
C1159 H1175 0.961 . S
C1160 C1161 1.370 . S
C1160 C1162 1.363 . S
C1160 H1176 0.931 . S
C1161 C1160 1.370 . S
C1161 C1165 1.408 . S
C1162 C1160 1.363 . S
C1162 C1163 1.370 . S
C1162 C1166 1.524 . S
C1163 C1155 1.503 . S
C1163 C1162 1.370 . S
C1163 C1164 1.403 . S
C1164 C1163 1.403 . S
C1164 C1165 1.404 . S
C1164 C1167 1.539 . S
C1165 C1161 1.408 . S
C1165 C1164 1.404 . S
C1165 H1177 0.930 . S
C1166 C1162 1.524 . S
C1166 H1178 0.956 . S
C1166 H1179 0.961 . S
C1166 H1180 0.961 . S
C1167 C1164 1.539 . S
C1167 H1181 0.958 . S
C1167 H1182 0.961 . S
C1167 H1183 0.960 . S
H1168 C1152 0.931 . S
H1169 C1157 0.929 . S
H1170 C1158 0.960 . S
H1171 C1158 0.962 . S
H1172 C1158 0.960 . S
H1173 C1159 0.961 . S
H1174 C1159 0.961 . S
H1175 C1159 0.961 . S
H1176 C1160 0.931 . S
H1177 C1165 0.930 . S
H1178 C1166 0.956 . S
H1179 C1166 0.961 . S
H1180 C1166 0.961 . S
H1181 C1167 0.958 . S
H1182 C1167 0.961 . S
H1183 C1167 0.960 . S
C1184 C1185 1.391 . S
C1184 C1186 1.394 . S
C1184 H1200 0.931 . S
C1185 C1184 1.391 . S
C1185 C1189 1.376 . S
C1186 C1184 1.394 . S
C1186 C1187 1.369 . S
C1186 C1190 1.531 . S
C1187 C1186 1.369 . S
C1187 C1188 1.410 . S
C1187 C1195 1.503 . S
C1188 C1187 1.410 . S
C1188 C1189 1.392 . S
C1188 C1191 1.511 . S
C1189 C1185 1.376 . S
C1189 C1188 1.392 . S
C1189 H1201 0.929 . S
C1190 C1186 1.531 . S
C1190 H1202 0.960 . S
C1190 H1203 0.962 . S
C1190 H1204 0.960 . S
C1191 C1188 1.511 . S
C1191 H1205 0.961 . S
C1191 H1206 0.961 . S
C1191 H1207 0.961 . S
C1192 C1193 1.370 . S
C1192 C1194 1.363 . S
C1192 H1208 0.931 . S
C1193 C1192 1.370 . S
C1193 C1197 1.408 . S
C1194 C1192 1.363 . S
C1194 C1195 1.370 . S
C1194 C1198 1.524 . S
C1195 C1187 1.503 . S
C1195 C1194 1.370 . S
C1195 C1196 1.403 . S
C1196 C1195 1.403 . S
C1196 C1197 1.404 . S
C1196 C1199 1.539 . S
C1197 C1193 1.408 . S
C1197 C1196 1.404 . S
C1197 H1209 0.930 . S
C1198 C1194 1.524 . S
C1198 H1210 0.956 . S
C1198 H1211 0.961 . S
C1198 H1212 0.961 . S
C1199 C1196 1.539 . S
C1199 H1213 0.958 . S
C1199 H1214 0.961 . S
C1199 H1215 0.960 . S
H1200 C1184 0.931 . S
H1201 C1189 0.929 . S
H1202 C1190 0.960 . S
H1203 C1190 0.962 . S
H1204 C1190 0.960 . S
H1205 C1191 0.961 . S
H1206 C1191 0.961 . S
H1207 C1191 0.961 . S
H1208 C1192 0.931 . S
H1209 C1197 0.930 . S
H1210 C1198 0.956 . S
H1211 C1198 0.961 . S
H1212 C1198 0.961 . S
H1213 C1199 0.958 . S
H1214 C1199 0.961 . S
H1215 C1199 0.960 . S
C449 C1 1.233 . S
C457 C294 1.272 . S
C481 C67 0.965 . S
C489 C343 0.973 . S
C521 C378 2.455 . S
C513 C97 2.487 . S
C545 C133 2.398 . S
C553 C417 2.345 . S
C585 C338 2.493 . S
C577 C25 2.414 . S
C617 C297 0.837 . S
C609 C37 0.878 . S
C649 C427 1.904 . S
C641 C103 1.948 . S
C681 C386 1.613 . S
C673 C109 1.630 . S
C705 C31 1.710 . S
C713 C414 1.737 . S
C745 C346 2.304 . S
C737 C73 2.392 . S
C769 C139 2.352 . S
C777 C307 2.355 . S
C801 C61 0.864 . S
C809 C383 0.846 . S
C841 C303 1.283 . S
C833 C175 1.156 . S
C865 C181 0.976 . S
C873 C334 0.953 . S
C897 C247 2.516 . S
C905 C387 2.483 . S
C929 C277 2.389 . S
C937 C426 2.334 . S
C961 C145 2.309 . S
C969 C347 2.484 . S
C1001 C306 0.847 . S
C993 C211 0.868 . S
C1033 C418 1.897 . S
C1025 C217 1.909 . S
C1065 C377 1.621 . S
C1057 C283 1.651 . S
C1089 C169 1.644 . S
C1097 C423 1.730 . S
C1129 C337 2.325 . S
C1121 C241 2.393 . S
C1161 C298 2.333 . S
C1153 C253 2.343 . S
C1185 C205 0.881 . S
C1193 C374 0.845 . S
