# Generated by pormake.
# Topology anh, (6,3)-cn, num edge types: 1
# Building blocks:
#     Node 0, Type 0, BuildingBlock: HISSIN_clean_sbu_0, # of connection points: 6
#     Node 1, Type 0, BuildingBlock: HISSIN_clean_sbu_0, # of connection points: 6
#     Node 2, Type 0, BuildingBlock: HISSIN_clean_sbu_0, # of connection points: 6
#     Node 3, Type 1, BuildingBlock: PAMTOO_clean_linker_0, # of connection points: 3
#     Node 4, Type 1, BuildingBlock: PAMTOO_clean_linker_0, # of connection points: 3
#     Node 5, Type 1, BuildingBlock: PAMTOO_clean_linker_0, # of connection points: 3
#     Node 6, Type 1, BuildingBlock: PAMTOO_clean_linker_0, # of connection points: 3
#     Node 7, Type 1, BuildingBlock: PAMTOO_clean_linker_0, # of connection points: 3
#     Node 8, Type 1, BuildingBlock: PAMTOO_clean_linker_0, # of connection points: 3
#     Edge 9, Type (0, 1), BuildingBlock: MIFKUJ_clean_linker_0, # of connection points: 2
#     Edge 10, Type (0, 1), BuildingBlock: MIFKUJ_clean_linker_0, # of connection points: 2
#     Edge 11, Type (0, 1), BuildingBlock: MIFKUJ_clean_linker_0, # of connection points: 2
#     Edge 12, Type (0, 1), BuildingBlock: MIFKUJ_clean_linker_0, # of connection points: 2
#     Edge 13, Type (0, 1), BuildingBlock: MIFKUJ_clean_linker_0, # of connection points: 2
#     Edge 14, Type (0, 1), BuildingBlock: MIFKUJ_clean_linker_0, # of connection points: 2
#     Edge 15, Type (0, 1), BuildingBlock: MIFKUJ_clean_linker_0, # of connection points: 2
#     Edge 16, Type (0, 1), BuildingBlock: MIFKUJ_clean_linker_0, # of connection points: 2
#     Edge 17, Type (0, 1), BuildingBlock: MIFKUJ_clean_linker_0, # of connection points: 2
#     Edge 18, Type (0, 1), BuildingBlock: MIFKUJ_clean_linker_0, # of connection points: 2
#     Edge 19, Type (0, 1), BuildingBlock: MIFKUJ_clean_linker_0, # of connection points: 2
#     Edge 20, Type (0, 1), BuildingBlock: MIFKUJ_clean_linker_0, # of connection points: 2
#     Edge 21, Type (0, 1), BuildingBlock: MIFKUJ_clean_linker_0, # of connection points: 2
#     Edge 22, Type (0, 1), BuildingBlock: MIFKUJ_clean_linker_0, # of connection points: 2
#     Edge 23, Type (0, 1), BuildingBlock: MIFKUJ_clean_linker_0, # of connection points: 2
#     Edge 24, Type (0, 1), BuildingBlock: MIFKUJ_clean_linker_0, # of connection points: 2
#     Edge 25, Type (0, 1), BuildingBlock: MIFKUJ_clean_linker_0, # of connection points: 2
#     Edge 26, Type (0, 1), BuildingBlock: MIFKUJ_clean_linker_0, # of connection points: 2
# Relax obj value: 0.184
# Max RMSD: 0.144
# Mean RMSD: 0.114
data_MOF--net-anh--node1-HISSIN_clean_sbu_0--node2-PAMTOO_clean_linker_0--edge1-MIFKUJ_clean_linker_0
_symmetry_space_group_name_H-M    P1
_symmetry_Int_Tables_number       1
_symmetry_cell_setting            triclinic
loop_
_symmetry_equiv_pos_as_xyz
'x, y, z'
_cell_length_a     41.104412
_cell_length_b     40.987454
_cell_length_c     64.45775
_cell_angle_alpha  89.238226
_cell_angle_beta   92.859878
_cell_angle_gamma 120.93253
loop_
_atom_site_label
_atom_site_type_symbol
_atom_site_fract_x
_atom_site_fract_y
_atom_site_fract_z
_atom_type_partial_charge
Eu0 Eu 0.09968 0.50685 0.16472 0.0
Eu1 Eu 0.14436 0.59729 0.16642 0.0
C2 C 0.11938 0.55069 0.20944 0.0
C3 C 1.01819 0.40674 0.16572 0.0
C4 C 0.99861 0.41922 0.17737 0.0
C5 C 0.95906 0.34809 0.15737 0.0
C6 C 0.95946 0.39635 0.17895 0.0
C7 C 0.99834 0.371 0.15585 0.0
C8 C 0.93924 0.36075 0.16877 0.0
C9 C 1.05817 0.43293 0.16179 0.0
O10 O 0.19244 0.58399 0.16049 0.0
O11 O 0.16236 0.52095 0.16883 0.0
C12 C 0.19411 0.55278 0.16422 0.0
O13 O 0.12533 0.52509 0.13368 0.0
O14 O 0.19473 0.65236 0.17446 0.0
O15 O 0.14531 0.64985 0.15927 0.0
O16 O 0.12886 0.58219 0.13256 0.0
C17 C 0.12827 0.55385 0.12315 0.0
O18 O 1.05134 0.52072 0.15854 0.0
O19 O 0.08197 0.58166 0.17098 0.0
O20 O 0.1423 0.58283 0.2004 0.0
O21 O 1.06356 0.4555 0.14624 0.0
O22 O 0.08056 0.45089 0.17797 0.0
O23 O 0.09754 0.51929 0.19858 0.0
C24 C 0.20481 0.70253 0.15151 0.0
C25 C 0.19208 0.72646 0.14388 0.0
C26 C 0.26447 0.74192 0.13493 0.0
C27 C 0.21554 0.75825 0.13226 0.0
C28 C 0.24084 0.7099 0.14648 0.0
C29 C 0.2524 0.76695 0.12817 0.0
C30 C 0.18074 0.67153 0.16551 0.0
C31 C 1.04985 0.55097 0.16423 0.0
H32 H 1.01344 0.44715 0.18472 0.0
H33 H 0.94416 0.32061 0.14954 0.0
H34 H 0.94487 0.40705 0.1876 0.0
H35 H 1.01306 0.36127 0.14656 0.0
H36 H 0.16441 0.72136 0.14758 0.0
H37 H 0.29271 0.7479 0.13193 0.0
H38 H 0.20562 0.77729 0.12762 0.0
H39 H 0.25129 0.69171 0.152 0.0
Eu40 Eu 0.67622 0.05187 0.50485 0.0
Eu41 Eu 0.62971 0.09456 0.50145 0.0
C42 C 0.65384 0.07757 0.54679 0.0
C43 C 0.72096 0.99049 0.49603 0.0
C44 C 0.68836 0.95494 0.4916 0.0
C45 C 0.76025 0.96685 0.48431 0.0
C46 C 0.69183 0.92515 0.484 0.0
C47 C 0.75676 0.99648 0.49194 0.0
C48 C 0.72792 0.93067 0.4807 0.0
C49 C 0.71884 1.02185 0.50506 0.0
O50 O 0.69108 0.14648 0.50348 0.0
O51 O 0.72288 0.11491 0.49949 0.0
C52 C 0.72329 0.14741 0.50077 0.0
O53 O 0.64714 1.03954 0.47287 0.0
O54 O 0.61661 0.13885 0.50748 0.0
O55 O 0.58206 0.09389 0.4849 0.0
O56 O 0.65625 0.09826 0.47134 0.0
C57 C 0.64893 0.06726 0.46183 0.0
O58 O 0.61474 1.0002 0.50657 0.0
O59 O 0.58264 1.03084 0.49771 0.0
O60 O 0.62874 0.08213 0.53574 0.0
O61 O 0.72226 0.0481 0.49219 0.0
O62 O 0.69312 1.01356 0.51859 0.0
O63 O 0.67836 0.07152 0.53782 0.0
C64 C 0.59595 0.15504 0.47647 0.0
C65 C 0.61952 0.16147 0.45996 0.0
C66 C 0.58384 0.20336 0.46319 0.0
C67 C 0.62547 0.18895 0.44517 0.0
C68 C 0.57784 0.17579 0.47789 0.0
C69 C 0.60792 0.21045 0.44672 0.0
C70 C 0.5907 0.12698 0.49228 0.0
C71 C 0.58228 0.99878 0.50155 0.0
H72 H 0.66043 0.94999 0.49447 0.0
H73 H 0.78833 0.97197 0.48171 0.0
H74 H 0.66646 0.89741 0.48161 0.0
H75 H 0.78215 1.02397 0.49506 0.0
H76 H 0.63372 0.14557 0.45865 0.0
H77 H 0.57076 0.22017 0.46528 0.0
H78 H 0.64412 0.19368 0.43273 0.0
H79 H 0.5597 0.17124 0.49058 0.0
Eu80 Eu 0.61082 0.58488 0.83305 0.0
Eu81 Eu 0.70179 0.63347 0.83924 0.0
C82 C 0.64986 0.60282 0.87925 0.0
C83 C 0.50959 0.55012 0.81226 0.0
C84 C 0.51133 0.5852 0.81073 0.0
C85 C 0.45188 0.52089 0.79016 0.0
C86 C 0.48272 0.58775 0.79954 0.0
C87 C 0.48026 0.5183 0.80148 0.0
C88 C 0.45228 0.55539 0.78953 0.0
C89 C 0.53766 0.54586 0.82511 0.0
O90 O 0.69094 0.57153 0.83741 0.0
O91 O 0.62624 0.53755 0.83147 0.0
C92 C 0.65894 0.53828 0.83379 0.0
O93 O 0.63277 0.60999 0.80203 0.0
O94 O 0.75386 0.6482 0.85734 0.0
O95 O 0.75631 0.67977 0.82959 0.0
O96 O 0.69058 0.61518 0.80579 0.0
C97 C 0.6629 0.61334 0.79399 0.0
O98 O 0.62203 0.64677 0.83541 0.0
O99 O 0.68672 0.68069 0.83355 0.0
O100 O 0.68073 0.63037 0.87136 0.0
O101 O 0.56167 0.54116 0.81498 0.0
O102 O 0.55367 0.56872 0.84118 0.0
O103 O 0.62108 0.57837 0.86719 0.0
C104 C 0.80892 0.67331 0.8385 0.0
C105 C 0.80585 0.64769 0.82322 0.0
C106 C 0.87548 0.69451 0.84475 0.0
C107 C 0.83749 0.64517 0.81891 0.0
C108 C 0.84396 0.69713 0.84896 0.0
C109 C 0.87237 0.66801 0.82998 0.0
C110 C 0.77563 0.67437 0.84449 0.0
C111 C 0.65409 0.68008 0.83379 0.0
H112 H 0.53416 0.61033 0.81864 0.0
H113 H 0.42845 0.49534 0.78291 0.0
H114 H 0.48367 0.61466 0.79928 0.0
H115 H 0.47868 0.4911 0.80234 0.0
H116 H 0.77882 0.62902 0.81506 0.0
H117 H 0.90212 0.71262 0.85337 0.0
H118 H 0.83428 0.62424 0.80761 0.0
H119 H 0.8467 0.7171 0.86076 0.0
H120 H 0.59047 0.12847 0.25136 0.0
H121 H 0.46879 0.05542 0.25204 0.0
H122 H 0.52036 0.11172 0.19615 0.0
H123 H 0.45825 0.11714 0.20578 0.0
C124 C 0.43791 0.08613 0.20765 0.0
O125 O 0.45653 0.06716 0.21339 0.0
H126 H 0.41826 0.08276 0.21985 0.0
C127 C 0.5626 0.11503 0.24352 0.0
C128 C 0.5595 0.12278 0.22247 0.0
C129 C 0.53035 0.08996 0.25441 0.0
C130 C 0.49427 0.07517 0.24428 0.0
C131 C 0.49093 0.08383 0.22348 0.0
C132 C 0.52342 0.10685 0.21251 0.0
H133 H 0.70061 0.63095 0.56722 0.0
H134 H 0.65009 0.51064 0.57714 0.0
H135 H 0.68243 0.55556 0.51633 0.0
H136 H 0.60629 0.49256 0.52218 0.0
C137 C 0.6197 0.47516 0.52532 0.0
O138 O 0.65191 0.49403 0.53835 0.0
H139 H 0.59873 0.44874 0.53308 0.0
C140 C 0.69158 0.60275 0.56131 0.0
C141 C 0.69309 0.59704 0.54001 0.0
C142 C 0.67634 0.57179 0.57489 0.0
C143 C 0.66223 0.53491 0.56696 0.0
C144 C 0.66489 0.52934 0.54594 0.0
C145 C 0.68094 0.56035 0.53264 0.0
H146 H 0.11847 0.57385 0.89357 0.0
H147 H 0.15117 0.49009 0.90287 0.0
H148 H 0.14064 0.52493 0.84134 0.0
H149 H 0.10052 0.44402 0.85033 0.0
C150 C 0.1281 0.44556 0.85391 0.0
O151 O 0.15449 0.47953 0.8636 0.0
H152 H 0.12257 0.42163 0.86435 0.0
C153 C 0.1276 0.55556 0.8874 0.0
C154 C 0.12909 0.55274 0.86576 0.0
C155 C 0.13583 0.53346 0.90111 0.0
C156 C 0.14447 0.50742 0.89279 0.0
C157 C 0.14576 0.5043 0.87135 0.0
C158 C 0.13906 0.52749 0.85791 0.0
H159 H 0.06605 0.49283 0.43619 0.0
H160 H 0.17604 0.59554 0.4389 0.0
H161 H 0.12396 0.54069 0.49561 0.0
H162 H 0.19013 0.63969 0.49882 0.0
C163 C 0.19891 0.63852 0.48297 0.0
O164 O 0.18831 0.60039 0.47871 0.0
H165 H 0.18184 0.64618 0.47228 0.0
C166 C 0.08997 0.51497 0.44531 0.0
C167 C 0.08981 0.51243 0.46713 0.0
C168 C 0.12071 0.54446 0.43497 0.0
C169 C 0.15236 0.57286 0.44675 0.0
C170 C 0.15443 0.57286 0.46855 0.0
C171 C 0.12271 0.54201 0.47883 0.0
H172 H 0.65542 1.02895 0.77422 0.0
H173 H 0.66183 0.13703 0.77539 0.0
H174 H 0.65604 0.07923 0.83294 0.0
H175 H 0.61018 0.13637 0.82291 0.0
C176 C 0.63414 0.15629 0.81337 0.0
O177 O 0.66168 0.14495 0.81523 0.0
H178 H 0.62227 0.15116 0.79708 0.0
C179 C 0.6559 0.0515 0.7831 0.0
C180 C 0.65559 0.04893 0.80488 0.0
C181 C 0.65769 0.0826 0.77241 0.0
C182 C 0.65983 0.11295 0.7837 0.0
C183 C 0.65824 0.11266 0.80545 0.0
C184 C 0.65613 0.07995 0.81615 0.0
H185 H 0.69768 0.55873 0.10315 0.0
H186 H 0.5978 0.56562 0.1079 0.0
H187 H 0.65315 0.55244 0.16356 0.0
H188 H 0.54665 0.50767 0.15552 0.0
C189 C 0.55171 0.53215 0.14568 0.0
O190 O 0.59157 0.55927 0.14758 0.0
H191 H 0.54424 0.52067 0.12951 0.0
C192 C 0.67735 0.55922 0.11301 0.0
C193 C 0.68168 0.55649 0.13473 0.0
C194 C 0.6476 0.56237 0.10334 0.0
C195 C 0.61984 0.56193 0.11543 0.0
C196 C 0.61979 0.55724 0.13704 0.0
C197 C 0.65138 0.55448 0.14684 0.0
H198 H 0.21213 0.49685 0.1752 0.0
H199 H 0.27156 0.49684 0.17286 0.0
H200 H 0.32474 0.60912 0.14732 0.0
H201 H 0.26515 0.60922 0.14973 0.0
H202 H 0.35256 0.57266 0.12738 0.0
H203 H 0.34385 0.58526 0.20048 0.0
H204 H 0.31349 0.56729 0.23413 0.0
H205 H 0.30619 0.45917 0.23041 0.0
H206 H 0.33607 0.47631 0.1966 0.0
H207 H 0.54006 0.59256 0.13118 0.0
H208 H 0.48494 0.60021 0.13484 0.0
H209 H 0.43343 0.50056 0.17286 0.0
H210 H 0.4891 0.49462 0.17019 0.0
H211 H 0.40526 0.53353 0.18675 0.0
H212 H 0.4089 0.51672 0.11343 0.0
H213 H 0.43597 0.5312 0.07886 0.0
H214 H 0.44957 0.6422 0.08175 0.0
H215 H 0.42292 0.62848 0.11644 0.0
C216 C 0.2363 0.52186 0.16913 0.0
C217 C 0.23238 0.55312 0.16283 0.0
C218 C 0.27115 0.52193 0.16786 0.0
C219 C 0.30466 0.5532 0.16009 0.0
C220 C 0.30057 0.58423 0.15347 0.0
C221 C 0.2658 0.58433 0.15496 0.0
C222 C 0.34314 0.55349 0.1589 0.0
C223 C 0.364 0.56447 0.14061 0.0
C224 C 0.35948 0.54215 0.17554 0.0
C225 C 0.34188 0.53194 0.19593 0.0
C226 C 0.33557 0.55756 0.20679 0.0
C227 C 0.31847 0.54754 0.22589 0.0
C228 C 0.30783 0.51208 0.23437 0.0
C229 C 0.31439 0.48661 0.2238 0.0
C230 C 0.33144 0.49648 0.20468 0.0
C231 C 0.51767 0.5729 0.14091 0.0
C232 C 0.52115 0.54367 0.15094 0.0
C233 C 0.48481 0.57663 0.14263 0.0
C234 C 0.45243 0.5505 0.15384 0.0
C235 C 0.45654 0.52183 0.16408 0.0
C236 C 0.48939 0.51851 0.16263 0.0
C237 C 0.41482 0.55219 0.15504 0.0
C238 C 0.394 0.54163 0.17342 0.0
C239 C 0.39823 0.56335 0.13835 0.0
C240 C 0.41436 0.57174 0.11761 0.0
C241 C 0.41789 0.54429 0.10673 0.0
C242 C 0.43312 0.55235 0.08712 0.0
C243 C 0.4446 0.58765 0.07815 0.0
C244 C 0.44076 0.61491 0.08874 0.0
C245 C 0.42558 0.60701 0.10837 0.0
H246 H 0.45638 0.59383 0.06296 0.0
H247 H 0.29456 0.50435 0.24915 0.0
H248 H 0.73712 0.22213 0.49965 0.0
H249 H 0.79692 0.28263 0.49576 0.0
H250 H 0.85667 0.22221 0.49258 0.0
H251 H 0.79702 0.1618 0.49672 0.0
H252 H 0.90252 0.28361 0.51327 0.0
H253 H 0.83153 0.26651 0.44931 0.0
H254 H 0.77754 0.25717 0.42635 0.0
H255 H 0.79347 0.36346 0.4476 0.0
H256 H 0.8466 0.37276 0.47134 0.0
H257 H 0.07795 0.44068 0.4764 0.0
H258 H 1.01831 0.38144 0.48268 0.0
H259 H 0.9595 0.44321 0.48203 0.0
H260 H 1.01921 0.50224 0.4751 0.0
H261 H 0.91275 0.38144 0.46373 0.0
H262 H 0.98101 0.3972 0.52883 0.0
H263 H 1.03442 0.40655 0.55236 0.0
H264 H 1.02377 0.30388 0.5287 0.0
H265 H 0.97057 0.29415 0.50484 0.0
C266 C 0.76285 0.22139 0.49814 0.0
C267 C 0.76105 0.18587 0.49855 0.0
C268 C 0.79764 0.2566 0.49572 0.0
C269 C 0.83278 0.25846 0.49346 0.0
C270 C 0.83098 0.22297 0.49418 0.0
C271 C 0.79621 0.18779 0.49653 0.0
C272 C 0.87094 0.29663 0.49051 0.0
C273 C 0.90442 0.30454 0.50217 0.0
C274 C 0.875 0.32574 0.47649 0.0
C275 C 0.84278 0.32006 0.46236 0.0
C276 C 0.82321 0.28766 0.44933 0.0
C277 C 0.79269 0.28234 0.43619 0.0
C278 C 0.78186 0.30955 0.43566 0.0
C279 C 0.80165 0.34223 0.44819 0.0
C280 C 0.8319 0.34747 0.46154 0.0
C281 C 1.05268 0.44209 0.47833 0.0
C282 C 1.05476 0.47755 0.47612 0.0
C283 C 1.01785 0.40758 0.48188 0.0
C284 C 0.98284 0.40633 0.48341 0.0
C285 C 0.98505 0.44193 0.48119 0.0
C286 C 1.01988 0.47639 0.47754 0.0
C287 C 0.94434 0.36849 0.48656 0.0
C288 C 0.9108 0.36058 0.47489 0.0
C289 C 0.94012 0.33941 0.50063 0.0
C290 C 0.97208 0.34517 0.51491 0.0
C291 C 0.99024 0.37676 0.52855 0.0
C292 C 1.02044 0.38211 0.54196 0.0
C293 C 1.03255 0.35589 0.54198 0.0
C294 C 1.0144 0.3242 0.52864 0.0
C295 C 0.9842 0.31874 0.51518 0.0
H296 H 1.05593 0.36007 0.55237 0.0
H297 H 0.75827 0.30543 0.42546 0.0
H298 H 0.71431 0.7552 0.82905 0.0
H299 H 0.71433 0.81478 0.82566 0.0
H300 H 0.59322 0.75365 0.83104 0.0
H301 H 0.5931 0.69363 0.83388 0.0
H302 H 0.60438 0.80666 0.806 0.0
H303 H 0.67089 0.82095 0.87156 0.0
H304 H 0.72008 0.82251 0.89578 0.0
H305 H 0.80727 0.9114 0.86056 0.0
H306 H 0.75859 0.91006 0.83598 0.0
H307 H 0.59513 0.97795 0.81681 0.0
H308 H 0.59388 0.91792 0.82293 0.0
H309 H 0.71458 0.97595 0.81631 0.0
H310 H 0.71566 1.0359 0.81056 0.0
H311 H 0.70289 0.92428 0.84271 0.0
H312 H 0.63676 0.90982 0.77709 0.0
H313 H 0.58784 0.90854 0.75276 0.0
H314 H 0.50017 0.82024 0.78802 0.0
H315 H 0.54859 0.82133 0.81272 0.0
C316 C 0.68743 0.75398 0.82963 0.0
C317 C 0.65375 0.71814 0.83197 0.0
C318 C 0.68747 0.78894 0.82783 0.0
C319 C 0.65388 0.79078 0.82847 0.0
C320 C 0.62008 0.75481 0.83051 0.0
C321 C 0.62002 0.71975 0.83226 0.0
C322 C 0.65392 0.82931 0.82684 0.0
C323 C 0.62583 0.83196 0.81441 0.0
C324 C 0.68182 0.86418 0.83709 0.0
C325 C 0.71111 0.86513 0.85183 0.0
C326 C 0.70056 0.84067 0.86891 0.0
C327 C 0.72835 0.84153 0.88271 0.0
C328 C 0.76678 0.86697 0.87968 0.0
C329 C 0.7775 0.89167 0.86287 0.0
C330 C 0.74982 0.89089 0.84901 0.0
C331 C 0.62176 0.97847 0.81734 0.0
C332 C 0.65577 1.01344 0.81397 0.0
C333 C 0.62098 0.94327 0.82042 0.0
C334 C 0.65407 0.94041 0.81987 0.0
C335 C 0.68816 0.97563 0.81701 0.0
C336 C 0.68889 1.01073 0.8139 0.0
C337 C 0.65337 0.90161 0.82189 0.0
C338 C 0.68138 0.89894 0.83435 0.0
C339 C 0.62542 0.86675 0.81167 0.0
C340 C 0.59628 0.86595 0.79686 0.0
C341 C 0.60704 0.8903 0.77972 0.0
C342 C 0.57941 0.8896 0.76586 0.0
C343 C 0.54092 0.8644 0.76888 0.0
C344 C 0.52999 0.83979 0.78573 0.0
C345 C 0.55751 0.84042 0.79966 0.0
H346 H 0.51957 0.86389 0.75813 0.0
H347 H 0.78825 0.86759 0.89037 0.0
H348 H 1.0325 0.6046 0.17876 0.0
H349 H 0.97291 0.60464 0.17671 0.0
H350 H 0.91795 0.49748 0.1436 0.0
H351 H 0.97741 0.49664 0.14662 0.0
H352 H 0.86383 0.49237 0.16149 0.0
H353 H 0.92775 0.65417 0.17296 0.0
H354 H 0.98581 0.71479 0.16541 0.0
H355 H 1.0068 0.66083 0.11544 0.0
H356 H 0.94867 0.60003 0.12254 0.0
H357 H 0.69655 0.513 0.16542 0.0
H358 H 0.75519 0.51122 0.17261 0.0
H359 H 0.81171 0.59825 0.1273 0.0
H360 H 0.75509 0.602 0.1215 0.0
H361 H 0.86492 0.61212 0.14853 0.0
H362 H 0.77276 0.48459 0.12612 0.0
H363 H 0.71448 0.42129 0.12681 0.0
H364 H 0.74826 0.40297 0.18789 0.0
H365 H 0.80649 0.46638 0.18766 0.0
C366 C 1.00795 0.58083 0.17096 0.0
C367 C 1.0114 0.55075 0.16281 0.0
C368 C 0.97305 0.58103 0.16952 0.0
C369 C 0.93904 0.55159 0.15936 0.0
C370 C 0.94241 0.52117 0.1515 0.0
C371 C 0.97726 0.52073 0.15319 0.0
C372 C 0.90086 0.55244 0.15702 0.0
C373 C 0.86463 0.5189 0.15872 0.0
C374 C 0.89928 0.58608 0.15286 0.0
C375 C 0.93414 0.62249 0.14846 0.0
C376 C 0.94473 0.65529 0.16034 0.0
C377 C 0.97765 0.68966 0.15614 0.0
C378 C 1.00005 0.69162 0.14001 0.0
C379 C 0.98951 0.65924 0.12798 0.0
C380 C 0.9566 0.62482 0.13209 0.0
C381 C 0.72159 0.53242 0.15724 0.0
C382 C 0.71929 0.55753 0.14259 0.0
C383 C 0.75578 0.53085 0.16105 0.0
C384 C 0.78982 0.5538 0.15023 0.0
C385 C 0.78749 0.57962 0.13623 0.0
C386 C 0.75393 0.58156 0.13271 0.0
C387 C 0.82754 0.55206 0.15311 0.0
C388 C 0.86385 0.58551 0.15143 0.0
C389 C 0.829 0.51811 0.15661 0.0
C390 C 0.79371 0.48041 0.15697 0.0
C391 C 0.76757 0.46718 0.13976 0.0
C392 C 0.73458 0.43128 0.14006 0.0
C393 C 0.7276 0.40818 0.15741 0.0
C394 C 0.75362 0.42094 0.17449 0.0
C395 C 0.78661 0.45686 0.17429 0.0
H396 H 0.7021 0.38036 0.15758 0.0
H397 H 1.02553 0.71825 0.1368 0.0
H398 H 0.51341 0.98234 0.48198 0.0
H399 H 0.45316 0.92218 0.47794 0.0
H400 H 0.50145 0.86565 0.51297 0.0
H401 H 0.56281 0.92589 0.51589 0.0
H402 H 0.45537 0.81461 0.48885 0.0
H403 H 0.42773 0.8922 0.53017 0.0
H404 H 0.4245 0.94847 0.53983 0.0
H405 H 0.35502 0.93361 0.48463 0.0
H406 H 0.35819 0.87748 0.47453 0.0
H407 H 0.26538 0.6478 0.50471 0.0
H408 H 0.32971 0.70485 0.50776 0.0
H409 H 0.29477 0.76238 0.46393 0.0
H410 H 0.23121 0.70574 0.46078 0.0
H411 H 0.33399 0.81144 0.49397 0.0
H412 H 0.36149 0.7306 0.45422 0.0
H413 H 0.36414 0.6731 0.44699 0.0
H414 H 0.43299 0.69257 0.50306 0.0
H415 H 0.43032 0.74993 0.51076 0.0
C416 C 0.51153 0.9573 0.48898 0.0
C417 C 0.54407 0.96025 0.49951 0.0
C418 C 0.47618 0.9222 0.48684 0.0
C419 C 0.47057 0.88782 0.49565 0.0
C420 C 0.50338 0.89068 0.50594 0.0
C421 C 0.53908 0.92577 0.50773 0.0
C422 C 0.43133 0.8496 0.49394 0.0
C423 C 0.42911 0.81439 0.49033 0.0
C424 C 0.39553 0.84722 0.4955 0.0
C425 C 0.39352 0.88089 0.5015 0.0
C426 C 0.41195 0.90108 0.52004 0.0
C427 C 0.41011 0.93293 0.5256 0.0
C428 C 0.38966 0.94467 0.51282 0.0
C429 C 0.3709 0.92452 0.49449 0.0
C430 C 0.37268 0.89267 0.48885 0.0
C431 C 0.27161 0.67205 0.49514 0.0
C432 C 0.24225 0.67062 0.48192 0.0
C433 C 0.30887 0.70534 0.49702 0.0
C434 C 0.31866 0.73931 0.48605 0.0
C435 C 0.28934 0.73756 0.47275 0.0
C436 C 0.25248 0.70436 0.47072 0.0
C437 C 0.35815 0.77676 0.48874 0.0
C438 C 0.36034 0.81181 0.49253 0.0
C439 C 0.3938 0.77879 0.48776 0.0
C440 C 0.39535 0.74432 0.48318 0.0
C441 C 0.37693 0.72244 0.46509 0.0
C442 C 0.37848 0.68991 0.4609 0.0
C443 C 0.39863 0.67912 0.47459 0.0
C444 C 0.41734 0.70091 0.49248 0.0
C445 C 0.41583 0.73345 0.49677 0.0
H446 H 0.39981 0.65394 0.4713 0.0
H447 H 0.38827 0.96934 0.51715 0.0
H448 H 0.71919 0.52555 0.82714 0.0
H449 H 0.71889 0.46551 0.82421 0.0
H450 H 0.59927 0.40246 0.83421 0.0
H451 H 0.59934 0.46232 0.83662 0.0
H452 H 0.63051 0.36744 0.8558 0.0
H453 H 0.63784 0.40083 0.78268 0.0
H454 H 0.66483 0.44141 0.75224 0.0
H455 H 0.77396 0.45593 0.76896 0.0
H456 H 0.74723 0.41433 0.79916 0.0
H457 H 0.59045 0.17961 0.83205 0.0
H458 H 0.5965 0.24139 0.83525 0.0
H459 H 0.70671 0.29418 0.80959 0.0
H460 H 0.69913 0.2307 0.80504 0.0
H461 H 0.6844 0.33709 0.79718 0.0
H462 H 0.67866 0.29979 0.8676 0.0
H463 H 0.65455 0.25909 0.89828 0.0
H464 H 0.54906 0.25676 0.89009 0.0
H465 H 0.57238 0.29711 0.85921 0.0
C466 C 0.69258 0.49907 0.82868 0.0
C467 C 0.65928 0.50025 0.83218 0.0
C468 C 0.69234 0.464 0.82683 0.0
C469 C 0.65894 0.42765 0.82874 0.0
C470 C 0.62584 0.42893 0.83254 0.0
C471 C 0.62589 0.46391 0.83392 0.0
C472 C 0.6584 0.389 0.82725 0.0
C473 C 0.64196 0.36097 0.84273 0.0
C474 C 0.67431 0.37918 0.81091 0.0
C475 C 0.6907 0.40494 0.79324 0.0
C476 C 0.66765 0.41294 0.77993 0.0
C477 C 0.68287 0.43602 0.7627 0.0
C478 C 0.7212 0.45169 0.75881 0.0
C479 C 0.74432 0.44392 0.77203 0.0
C480 C 0.7291 0.42038 0.78912 0.0
C481 C 0.61679 0.20422 0.8276 0.0
C482 C 0.64494 0.19867 0.81918 0.0
C483 C 0.6204 0.24063 0.82956 0.0
C484 C 0.65289 0.27493 0.82358 0.0
C485 C 0.6812 0.2696 0.81487 0.0
C486 C 0.67718 0.23264 0.81253 0.0
C487 C 0.65609 0.31496 0.8257 0.0
C488 C 0.673 0.34333 0.81035 0.0
C489 C 0.64134 0.32547 0.84248 0.0
C490 C 0.62713 0.30115 0.86097 0.0
C491 C 0.65023 0.2904 0.87227 0.0
C492 C 0.63672 0.26742 0.8897 0.0
C493 C 0.60026 0.25526 0.89609 0.0
C494 C 0.57727 0.26615 0.8851 0.0
C495 C 0.59063 0.2891 0.86764 0.0
H496 H 0.58985 0.23748 0.90959 0.0
H497 H 0.73292 0.46965 0.74549 0.0
H498 H 0.6862 0.873 0.45223 0.0
H499 H 0.68621 0.81339 0.44937 0.0
H500 H 0.77819 0.85473 0.49604 0.0
H501 H 0.77865 0.91403 0.49874 0.0
H502 H 0.78356 0.80903 0.46892 0.0
H503 H 0.68513 0.80738 0.50932 0.0
H504 H 0.62976 0.81449 0.5136 0.0
H505 H 0.56627 0.72926 0.46625 0.0
H506 H 0.62155 0.72209 0.4615 0.0
H507 H 0.75185 0.6709 0.54409 0.0
H508 H 0.76325 0.72405 0.52169 0.0
H509 H 0.66994 0.64711 0.48008 0.0
H510 H 0.65772 0.59413 0.50261 0.0
H511 H 0.6619 0.70375 0.4937 0.0
H512 H 0.75854 0.69376 0.46265 0.0
H513 H 0.81476 0.68722 0.46139 0.0
H514 H 0.88276 0.79401 0.49386 0.0
H515 H 0.82684 0.80096 0.49562 0.0
C516 C 0.70692 0.86956 0.46151 0.0
C517 C 0.73208 0.89787 0.4759 0.0
C518 C 0.70704 0.83568 0.4598 0.0
C519 C 0.7318 0.82947 0.47275 0.0
C520 C 0.75894 0.85896 0.48584 0.0
C521 C 0.75909 0.89286 0.48741 0.0
C522 C 0.72584 0.79094 0.47544 0.0
C523 C 0.75694 0.78581 0.47419 0.0
C524 C 0.69082 0.76048 0.48191 0.0
C525 C 0.65756 0.76458 0.48486 0.0
C526 C 0.65943 0.79035 0.49974 0.0
C527 C 0.62808 0.79438 0.50225 0.0
C528 C 0.59456 0.77243 0.49016 0.0
C529 C 0.59229 0.74632 0.47556 0.0
C530 C 0.62362 0.74228 0.47294 0.0
C531 C 0.73413 0.6653 0.53002 0.0
C532 C 0.70379 0.62844 0.52518 0.0
C533 C 0.74097 0.69555 0.51709 0.0
C534 C 0.71761 0.68938 0.49913 0.0
C535 C 0.68845 0.65235 0.49377 0.0
C536 C 0.68163 0.62212 0.50665 0.0
C537 C 0.72003 0.72215 0.4879 0.0
C538 C 0.6882 0.72625 0.48766 0.0
C539 C 0.75452 0.7517 0.4804 0.0
C540 C 0.78838 0.7478 0.47933 0.0
C541 C 0.78541 0.71574 0.46965 0.0
C542 C 0.81725 0.71198 0.46883 0.0
C543 C 0.8523 0.74017 0.47755 0.0
C544 C 0.85559 0.77221 0.4871 0.0
C545 C 0.82384 0.77611 0.48798 0.0
H546 H 0.87692 0.73719 0.4769 0.0
H547 H 0.5703 0.77556 0.49213 0.0
H548 H 0.91429 0.65946 0.8609 0.0
H549 H 0.96444 0.64499 0.85777 0.0
H550 H 0.95264 0.64698 0.79098 0.0
H551 H 0.90185 0.6615 0.794 0.0
H552 H 0.95283 0.57886 0.83604 0.0
H553 H 1.05289 0.68575 0.77787 0.0
H554 H 0.07184 0.74948 0.76442 0.0
H555 H 1.04706 0.78029 0.82242 0.0
H556 H 1.02852 0.71702 0.83629 0.0
H557 H 0.08489 0.52574 0.82977 0.0
H558 H 1.05022 0.55234 0.81199 0.0
H559 H 0.10769 0.65135 0.85223 0.0
H560 H 0.14378 0.62571 0.86959 0.0
H561 H 0.08322 0.66643 0.81314 0.0
H562 H 1.0346 0.57622 0.87043 0.0
H563 H 1.01804 0.51505 0.88664 0.0
H564 H 0.94055 0.45469 0.83489 0.0
H565 H 0.95723 0.51562 0.81823 0.0
C566 C 0.92272 0.65742 0.84553 0.0
C567 C 0.90435 0.66172 0.82768 0.0
C568 C 0.95117 0.64893 0.84378 0.0
C569 C 0.96209 0.64497 0.82417 0.0
C570 C 0.94454 0.65009 0.80623 0.0
C571 C 0.91558 0.65819 0.80798 0.0
C572 C 0.99052 0.63345 0.82293 0.0
C573 C 0.98111 0.59772 0.83066 0.0
C574 C 1.02738 0.65822 0.81602 0.0
C575 C 1.03879 0.69648 0.80797 0.0
C576 C 1.05154 0.70617 0.78774 0.0
C577 C 1.06223 0.74221 0.78005 0.0
C578 C 1.06048 0.76885 0.79252 0.0
C579 C 1.04821 0.75957 0.81274 0.0
C580 C 1.03753 0.72359 0.8205 0.0
C581 C 0.09156 0.55398 0.83424 0.0
C582 C 0.11625 0.57314 0.85154 0.0
C583 C 0.07166 0.56914 0.82402 0.0
C584 C 0.07581 0.60334 0.83114 0.0
C585 C 0.10394 0.62478 0.84659 0.0
C586 C 0.12409 0.60979 0.85672 0.0
C587 C 1.04549 0.61197 0.82642 0.0
C588 C 1.05451 0.64706 0.81774 0.0
C589 C 1.00821 0.5869 0.83277 0.0
C590 C 0.99742 0.55036 0.84301 0.0
C591 C 1.01415 0.54988 0.86249 0.0
C592 C 1.00477 0.51528 0.87175 0.0
C593 C 0.97831 0.481 0.86178 0.0
C594 C 0.96109 0.48127 0.84257 0.0
C595 C 0.97051 0.51581 0.83321 0.0
H596 H 0.97109 0.45423 0.86896 0.0
H597 H 0.06876 0.79673 0.78654 0.0
H598 H 0.24142 0.80493 0.09565 0.0
H599 H 0.28 0.87329 0.08925 0.0
H600 H 0.36172 0.88297 0.13731 0.0
H601 H 0.32425 0.81542 0.14318 0.0
H602 H 0.28672 0.92144 0.11445 0.0
H603 H 0.44264 0.95653 0.13889 0.0
H604 H 0.48652 0.9368 0.12782 0.0
H605 H 0.42376 0.89752 0.06923 0.0
H606 H 0.37978 0.91759 0.07975 0.0
H607 H 0.36616 1.02568 0.20185 0.0
H608 H 0.33784 0.98724 0.1704 0.0
H609 H 0.4344 0.06788 0.13644 0.0
H610 H 0.46333 0.10593 0.16839 0.0
H611 H 0.42509 1.00319 0.13046 0.0
H612 H 0.3413 1.04556 0.11995 0.0
H613 H 0.29784 0.06807 0.12749 0.0
H614 H 0.21828 0.95837 0.15113 0.0
H615 H 0.26144 0.93531 0.14409 0.0
C616 C 0.26839 0.82161 0.10426 0.0
C617 C 0.27966 0.80494 0.12006 0.0
C618 C 0.29044 0.86064 0.10057 0.0
C619 C 0.32392 0.88359 0.11274 0.0
C620 C 0.33668 0.86614 0.12723 0.0
C621 C 0.31498 0.82723 0.13072 0.0
C622 C 0.34115 0.92556 0.11391 0.0
C623 C 0.31708 0.93959 0.11751 0.0
C624 C 0.38092 0.95032 0.11659 0.0
C625 C 0.40787 0.93877 0.11011 0.0
C626 C 0.43838 0.94414 0.12353 0.0
C627 C 0.46323 0.93274 0.11738 0.0
C628 C 0.45795 0.91595 0.09783 0.0
C629 C 0.42781 0.91052 0.08438 0.0
C630 C 0.40287 0.92186 0.09045 0.0
C631 C 0.38054 1.03596 0.18748 0.0
C632 C 0.4165 0.06898 0.18739 0.0
C633 C 0.3643 1.0141 0.1694 0.0
C634 C 0.38366 1.02487 0.15084 0.0
C635 C 0.41874 0.05914 0.15047 0.0
C636 C 0.43513 0.08095 0.16866 0.0
C637 C 0.37009 0.99676 0.13344 0.0
C638 C 0.39493 0.98564 0.12658 0.0
C639 C 0.33117 0.97523 0.12708 0.0
C640 C 0.30469 0.98865 0.13138 0.0
C641 C 0.31461 1.02624 0.12683 0.0
C642 C 0.29 1.03911 0.13103 0.0
C643 C 0.2553 1.01465 0.13975 0.0
C644 C 0.24512 0.97726 0.1443 0.0
C645 C 0.26963 0.96423 0.14015 0.0
H646 H 0.23629 1.02468 0.143 0.0
H647 H 0.4772 0.90711 0.09311 0.0
H648 H 0.67798 0.26218 0.43269 0.0
H649 H 0.6982 0.32802 0.42508 0.0
H650 H 0.5816 0.3001 0.42376 0.0
H651 H 0.561 0.23381 0.42981 0.0
H652 H 0.62344 0.36867 0.40832 0.0
H653 H 0.62869 0.3015 0.47133 0.0
H654 H 0.65073 0.26465 0.49191 0.0
H655 H 0.7666 0.35277 0.4848 0.0
H656 H 0.74519 0.38957 0.46356 0.0
H657 H 0.57044 0.4253 0.49574 0.0
H658 H 0.58498 0.40211 0.4648 0.0
H659 H 0.70458 0.48067 0.47755 0.0
H660 H 0.6905 0.50335 0.50849 0.0
H661 H 0.68646 0.40842 0.47865 0.0
H662 H 0.66553 0.48423 0.43069 0.0
H663 H 0.63327 0.51544 0.41434 0.0
H664 H 0.53578 0.40641 0.39801 0.0
H665 H 0.56713 0.37447 0.41454 0.0
C666 C 0.65637 0.26944 0.42942 0.0
C667 C 0.61803 0.24344 0.43312 0.0
C668 C 0.66807 0.30729 0.42507 0.0
C669 C 0.64162 0.31928 0.42519 0.0
C670 C 0.60273 0.29176 0.42429 0.0
C671 C 0.59096 0.25384 0.4281 0.0
C672 C 0.65313 0.35759 0.43327 0.0
C673 C 0.63776 0.37794 0.42355 0.0
C674 C 0.67234 0.37 0.45307 0.0
C675 C 0.6854 0.34785 0.46555 0.0
C676 C 0.65888 0.31279 0.47399 0.0
C677 C 0.67125 0.29188 0.4857 0.0
C678 C 0.71007 0.30618 0.48945 0.0
C679 C 0.73657 0.34152 0.48161 0.0
C680 C 0.72435 0.36233 0.46966 0.0
C681 C 0.59975 0.43807 0.49167 0.0
C682 C 0.62919 0.46521 0.5049 0.0
C683 C 0.60803 0.4253 0.47382 0.0
C684 C 0.64591 0.43985 0.46883 0.0
C685 C 0.67518 0.46927 0.48107 0.0
C686 C 0.66696 0.48192 0.49892 0.0
C687 C 0.65483 0.41827 0.45428 0.0
C688 C 0.67405 0.40095 0.46291 0.0
C689 C 0.63789 0.40795 0.43397 0.0
C690 C 0.61878 0.42693 0.42389 0.0
C691 C 0.63713 0.46687 0.42372 0.0
C692 C 0.619 0.4847 0.4144 0.0
C693 C 0.58251 0.46292 0.40513 0.0
C694 C 0.56408 0.42325 0.40515 0.0
C695 C 0.58207 0.40526 0.41446 0.0
H696 H 0.56852 0.47678 0.39793 0.0
H697 H 0.71963 0.29002 0.49856 0.0
H698 H 0.4154 0.58423 0.80887 0.0
H699 H 0.35001 0.56705 0.8019 0.0
H700 H 0.34529 0.5095 0.7452 0.0
H701 H 0.411 0.52553 0.7527 0.0
H702 H 0.29943 0.56736 0.77709 0.0
H703 H 0.26398 0.42606 0.7426 0.0
H704 H 0.29258 0.38648 0.73802 0.0
H705 H 0.35849 0.43076 0.79543 0.0
H706 H 0.32994 0.47021 0.8004 0.0
H707 H 0.11736 0.46582 0.81454 0.0
H708 H 0.15898 0.47942 0.78563 0.0
H709 H 0.22091 0.43744 0.82171 0.0
H710 H 0.17853 0.42248 0.84998 0.0
H711 H 0.22549 0.42678 0.7827 0.0
H712 H 0.24263 0.53392 0.826 0.0
H713 H 0.21905 0.57368 0.83948 0.0
H714 H 0.19798 0.59895 0.77711 0.0
H715 H 0.22139 0.55918 0.76331 0.0
C716 C 0.40103 0.5692 0.79449 0.0
C717 C 0.41795 0.55548 0.78156 0.0
C718 C 0.36348 0.55941 0.79045 0.0
C719 C 0.34227 0.536 0.77331 0.0
C720 C 0.36081 0.52678 0.75879 0.0
C721 C 0.3983 0.53595 0.76307 0.0
C722 C 0.3002 0.51557 0.77353 0.0
C723 C 0.28288 0.53654 0.77768 0.0
C724 C 0.27844 0.4753 0.77439 0.0
C725 C 0.29524 0.45131 0.77169 0.0
C726 C 0.28452 0.42722 0.75423 0.0
C727 C 0.30071 0.40484 0.75158 0.0
C728 C 0.32744 0.40621 0.76639 0.0
C729 C 0.33786 0.42978 0.78395 0.0
C730 C 0.32166 0.4521 0.7867 0.0
C731 C 0.13876 0.45786 0.81577 0.0
C732 C 0.14477 0.4429 0.83433 0.0
C733 C 0.16267 0.46589 0.79935 0.0
C734 C 0.19355 0.46018 0.80164 0.0
C735 C 0.19724 0.442 0.81948 0.0
C736 C 0.17307 0.43346 0.83568 0.0
C737 C 0.22592 0.47879 0.78784 0.0
C738 C 0.24117 0.45742 0.78085 0.0
C739 C 0.2465 0.51881 0.78545 0.0
C740 C 0.23333 0.54338 0.79365 0.0
C741 C 0.23294 0.54798 0.8152 0.0
C742 C 0.21959 0.57046 0.82289 0.0
C743 C 0.20684 0.58867 0.80916 0.0
C744 C 0.20774 0.58471 0.78772 0.0
C745 C 0.22108 0.56225 0.77995 0.0
H746 H 0.19634 0.60592 0.81515 0.0
H747 H 0.34 0.38894 0.76428 0.0
H748 H 0.89773 0.34643 0.20292 0.0
H749 H 0.82886 0.30807 0.20482 0.0
H750 H 0.81746 0.28425 0.13897 0.0
H751 H 0.88664 0.32266 0.13699 0.0
H752 H 0.77152 0.31353 0.18691 0.0
H753 H 0.74157 0.19247 0.1313 0.0
H754 H 0.77452 0.16276 0.11638 0.0
H755 H 0.84998 0.19546 0.1707 0.0
H756 H 0.81718 0.22492 0.18601 0.0
H757 H 0.57345 0.17864 0.19414 0.0
H758 H 0.63288 0.2195 0.17691 0.0
H759 H 0.68309 0.16073 0.20794 0.0
H760 H 0.62375 0.11911 0.22438 0.0
H761 H 0.70498 0.17572 0.16957 0.0
H762 H 0.69329 0.24466 0.22725 0.0
H763 H 0.66299 0.27357 0.24578 0.0
H764 H 0.67489 0.34378 0.19327 0.0
H765 H 0.70493 0.31497 0.17433 0.0
C766 C 0.88054 0.33327 0.18882 0.0
C767 C 0.89749 0.33733 0.16983 0.0
C768 C 0.84123 0.31147 0.1899 0.0
C769 C 0.81812 0.29332 0.17204 0.0
C770 C 0.83487 0.29778 0.15296 0.0
C771 C 0.87431 0.31948 0.15188 0.0
C772 C 0.77672 0.26836 0.1739 0.0
C773 C 0.75678 0.28347 0.18286 0.0
C774 C 0.75756 0.22924 0.16855 0.0
C775 C 0.77725 0.2113 0.15964 0.0
C776 C 0.76516 0.19323 0.14005 0.0
C777 C 0.7838 0.17645 0.13154 0.0
C778 C 0.81443 0.17737 0.14255 0.0
C779 C 0.82636 0.19492 0.16215 0.0
C780 C 0.80779 0.21169 0.17074 0.0
C781 C 0.59702 0.1741 0.19697 0.0
C782 C 0.59422 0.14614 0.21089 0.0
C783 C 0.63094 0.19754 0.18721 0.0
C784 C 0.66251 0.19343 0.19135 0.0
C785 C 0.65911 0.16445 0.20453 0.0
C786 C 0.62533 0.141 0.21414 0.0
C787 C 0.70013 0.22057 0.18336 0.0
C788 C 0.71933 0.20596 0.17306 0.0
C789 C 0.71887 0.26002 0.18792 0.0
C790 C 0.70078 0.27725 0.19927 0.0
C791 C 0.68914 0.26603 0.2196 0.0
C792 C 0.67209 0.28245 0.23018 0.0
C793 C 0.66689 0.31039 0.22067 0.0
C794 C 0.67884 0.32206 0.20058 0.0
C795 C 0.69587 0.3057 0.18992 0.0
H796 H 0.6537 0.32308 0.2289 0.0
H797 H 0.82884 0.16439 0.13593 0.0
H798 H 0.1429 0.61193 0.0965 0.0
H799 H 0.14587 0.61147 0.05872 0.0
H800 H 0.12117 0.49564 0.06043 0.0
H801 H 0.11903 0.49615 0.09816 0.0
H802 H 0.17576 0.5355 0.03504 0.0
H803 H 1.05286 0.51791 0.04559 0.0
H804 H 1.00765 0.53362 0.05949 0.0
H805 H 1.06128 0.64005 0.02761 0.0
H806 H 0.10717 0.62518 0.01374 0.0
H807 H 0.11132 0.47741 0.93038 0.0
H808 H 0.11268 0.48465 0.968 0.0
H809 H 0.15829 0.6051 0.96143 0.0
H810 H 0.15875 0.59861 0.92382 0.0
H811 H 0.09578 0.56695 0.98879 0.0
H812 H 0.21715 0.58187 0.97716 0.0
H813 H 0.26054 0.56399 0.96297 0.0
H814 H 0.2071 0.45963 -0.00322 0.0
H815 H 0.16298 0.47664 0.01093 0.0
C816 C 0.13812 0.58637 0.08883 0.0
C817 C 0.13061 0.55403 0.10033 0.0
C818 C 0.13969 0.5861 0.06722 0.0
C819 C 0.13326 0.55335 0.05672 0.0
C820 C 0.12622 0.52123 0.06821 0.0
C821 C 0.12493 0.52156 0.08979 0.0
C822 C 0.13394 0.55237 0.03375 0.0
C823 C 0.15795 0.54199 0.02495 0.0
C824 C 0.11133 0.56167 0.02057 0.0
C825 C 0.0837 0.57061 0.02882 0.0
C826 C 1.0552 0.54479 0.04168 0.0
C827 C 1.02942 0.55352 0.04953 0.0
C828 C 1.03167 0.58786 0.04449 0.0
C829 C 1.05963 0.61349 0.03153 0.0
C830 C 0.08551 0.60492 0.02366 0.0
C831 C 0.12215 0.50557 0.93688 0.0
C832 C 0.13517 0.53746 0.92399 0.0
C833 C 0.12261 0.50957 0.95838 0.0
C834 C 0.13574 0.54542 0.96742 0.0
C835 C 0.14794 0.57719 0.95468 0.0
C836 C 0.14798 0.57333 0.93317 0.0
C837 C 0.13719 0.54964 0.99024 0.0
C838 C 0.11365 0.56066 -0.00105 0.0
C839 C 0.15995 0.54063 0.00337 0.0
C840 C 0.18651 0.53036 -0.00506 0.0
C841 C 0.21442 0.55494 0.98142 0.0
C842 C 0.23919 0.545 0.97341 0.0
C843 C 0.23651 0.51065 0.97892 0.0
C844 C 0.20911 0.48621 0.9925 0.0
C845 C 0.18423 0.496 0.00053 0.0
H846 H 0.25573 0.503 0.97271 0.0
H847 H 1.01168 0.59457 0.05058 0.0
H848 H 0.6642 0.12248 0.43368 0.0
H849 H 0.63492 0.11492 0.39891 0.0
H850 H 0.57418 0.99289 0.40532 0.0
H851 H 0.60405 1.00036 0.44024 0.0
H852 H 0.59551 1.00987 0.36735 0.0
H853 H 0.52972 1.04133 0.41176 0.0
H854 H 0.51579 0.07395 0.43866 0.0
H855 H 0.56323 0.17522 0.40223 0.0
H856 H 0.57857 0.14367 0.37537 0.0
H857 H 0.4833 0.07191 0.2872 0.0
H858 H 0.49241 0.05337 0.32216 0.0
H859 H 0.59879 0.06613 0.30557 0.0
H860 H 0.58788 0.08021 0.27031 0.0
H861 H 0.53796 0.08853 0.35092 0.0
H862 H 0.62832 1.01886 0.33359 0.0
H863 H 0.62835 0.9754 0.30753 0.0
H864 H 0.51026 0.93216 0.29188 0.0
H865 H 0.50933 0.97494 0.31806 0.0
C866 C 0.64496 0.094 0.42761 0.0
C867 C 0.63614 0.06201 0.43971 0.0
C868 C 0.62804 0.08972 0.40778 0.0
C869 C 0.60157 0.05338 0.39973 0.0
C870 C 0.59428 1.02122 0.41131 0.0
C871 C 0.61149 1.0255 0.43119 0.0
C872 C 0.58136 0.04952 0.37937 0.0
C873 C 0.58274 1.02688 0.36373 0.0
C874 C 0.56288 0.07016 0.37496 0.0
C875 C 0.55543 0.09009 0.39153 0.0
C876 C 0.53769 0.07073 0.40959 0.0
C877 C 0.52946 0.08901 0.42482 0.0
C878 C 0.53838 0.12652 0.42208 0.0
C879 C 0.55615 0.14608 0.40427 0.0
C880 C 0.56471 0.12804 0.38905 0.0
C881 C 0.50812 0.06975 0.29081 0.0
C882 C 0.535 0.07808 0.27582 0.0
C883 C 0.5135 0.05947 0.31093 0.0
C884 C 0.54611 0.05781 0.31659 0.0
C885 C 0.57283 0.06604 0.30162 0.0
C886 C 0.56698 0.07519 0.28144 0.0
C887 C 0.55404 0.05058 0.33843 0.0
C888 C 0.55025 0.07107 0.35447 0.0
C889 C 0.56857 1.02648 0.34339 0.0
C890 C 0.56883 1.00032 0.32774 0.0
C891 C 0.60228 0.99991 0.3247 0.0
C892 C 0.60247 0.97543 0.30987 0.0
C893 C 0.56935 0.95109 0.29803 0.0
C894 C 0.53593 0.95111 0.30102 0.0
C895 C 0.53557 0.97551 0.31584 0.0
H896 H 0.56957 0.93218 0.28655 0.0
H897 H 0.53153 0.14043 0.43378 0.0
H898 H 0.60421 0.5862 0.76494 0.0
H899 H 0.60748 0.5832 0.72726 0.0
H900 H 0.72956 0.63974 0.73392 0.0
H901 H 0.72656 0.64204 0.77174 0.0
H902 H 0.69381 0.66508 0.69917 0.0
H903 H 0.69341 0.55662 0.72983 0.0
H904 H 0.66714 0.50187 0.75317 0.0
H905 H 0.56151 0.44893 0.71695 0.0
H906 H 0.58665 0.50444 0.69392 0.0
H907 H 0.73375 0.62319 0.60087 0.0
H908 H 0.73173 0.63299 0.63801 0.0
H909 H 0.61327 0.54482 0.63629 0.0
H910 H 0.61564 0.53415 0.59924 0.0
H911 H 0.647 0.5367 0.66906 0.0
H912 H 0.64389 0.642 0.63858 0.0
H913 H 0.665 0.69832 0.61653 0.0
H914 H 0.77153 0.75654 0.65177 0.0
H915 H 0.75125 0.70033 0.67387 0.0
C916 C 0.63179 0.59836 0.75837 0.0
C917 C 0.66514 0.61411 0.77124 0.0
C918 C 0.63357 0.59667 0.73689 0.0
C919 C 0.66874 0.61126 0.72795 0.0
C920 C 0.70222 0.6285 0.74063 0.0
C921 C 0.70042 0.62952 0.76218 0.0
C922 C 0.67022 0.60568 0.70555 0.0
C923 C 0.68407 0.63718 0.69252 0.0
C924 C 0.65643 0.56903 0.69702 0.0
C925 C 0.64176 0.53494 0.71031 0.0
C926 C 0.66444 0.53352 0.72696 0.0
C927 C 0.64974 0.50232 0.74014 0.0
C928 C 0.61267 0.47184 0.73653 0.0
C929 C 0.59022 0.47258 0.71974 0.0
C930 C 0.60463 0.50399 0.70666 0.0
C931 C 0.70728 0.60609 0.60844 0.0
C932 C 0.67482 0.57802 0.59726 0.0
C933 C 0.70608 0.61176 0.62963 0.0
C934 C 0.67217 0.59006 0.63989 0.0
C935 C 0.63975 0.56191 0.62871 0.0
C936 C 0.64109 0.55583 0.60758 0.0
C937 C 0.6707 0.59622 0.66237 0.0
C938 C 0.6568 0.56473 0.67553 0.0
C939 C 0.68394 0.63287 0.67095 0.0
C940 C 0.69618 0.66681 0.65775 0.0
C941 C 0.67193 0.6667 0.64153 0.0
C942 C 0.68373 0.69863 0.62904 0.0
C943 C 0.71962 0.73095 0.63271 0.0
C944 C 0.74375 0.73146 0.64893 0.0
C945 C 0.73211 0.69959 0.66145 0.0
H946 H 0.7287 0.75564 0.62303 0.0
H947 H 0.60137 0.44764 0.74674 0.0
H948 H 0.60354 0.08194 0.5716 0.0
H949 H 0.60472 0.08361 0.60956 0.0
H950 H 0.70751 0.07933 0.61266 0.0
H951 H 0.70597 0.07666 0.57477 0.0
H952 H 0.66379 1.03462 0.64056 0.0
H953 H 0.70633 0.16341 0.62205 0.0
H954 H 0.70336 0.21529 0.60396 0.0
H955 H 0.59972 0.18435 0.633 0.0
H956 H 0.60182 0.13195 0.65106 0.0
H957 H 0.70202 0.14233 0.74705 0.0
H958 H 0.70213 0.14252 0.70904 0.0
H959 H 0.61236 1.02472 0.70697 0.0
H960 H 0.61241 1.02428 0.7449 0.0
H961 H 0.65312 0.13276 0.67871 0.0
H962 H 0.6199 0.97869 0.66619 0.0
H963 H 0.62977 0.93114 0.6847 0.0
H964 H 0.72773 1.02046 0.71808 0.0
H965 H 0.71875 0.06853 0.69958 0.0
C966 C 0.62649 0.08144 0.58032 0.0
C967 C 0.65472 0.07928 0.56998 0.0
C968 C 0.62722 0.08257 0.60212 0.0
C969 C 0.65649 0.08208 0.61417 0.0
C970 C 0.68457 0.07972 0.60386 0.0
C971 C 0.68371 0.07832 0.58209 0.0
C972 C 0.65775 0.08367 0.63747 0.0
C973 C 0.66138 0.05609 0.64884 0.0
C974 C 0.65534 0.112 0.64853 0.0
C975 C 0.65405 0.14354 0.63775 0.0
C976 C 0.68277 0.16751 0.62446 0.0
C977 C 0.68127 0.19703 0.61423 0.0
C978 C 0.65132 0.20305 0.61729 0.0
C979 C 0.62287 0.17962 0.63063 0.0
C980 C 0.62422 0.15003 0.64088 0.0
C981 C 0.68214 0.11651 0.7385 0.0
C982 C 0.6574 0.08321 0.74913 0.0
C983 C 0.68225 0.11663 0.71672 0.0
C984 C 0.65763 0.0835 0.70498 0.0
C985 C 0.63229 0.05047 0.71555 0.0
C986 C 0.63234 0.05026 0.73731 0.0
C987 C 0.6586 0.08339 0.68175 0.0
C988 C 0.65539 0.11123 0.6704 0.0
C989 C 0.66229 0.05583 0.67072 0.0
C990 C 0.6684 1.02717 0.68164 0.0
C991 C 0.64364 0.98817 0.67741 0.0
C992 C 0.64906 0.96113 0.68791 0.0
C993 C 0.67928 0.97276 0.7026 0.0
C994 C 0.70425 1.01147 0.70675 0.0
C995 C 0.69899 1.03863 0.69627 0.0
H996 H 0.68338 0.95178 0.71074 0.0
H997 H 0.65021 0.22592 0.60936 0.0
H998 H 0.58879 0.55377 0.90194 0.0
H999 H 0.5866 0.54671 0.93973 0.0
H1000 H 0.7042 0.63581 0.94668 0.0
H1001 H 0.70669 0.643 0.90899 0.0
H1002 H 0.68996 0.57521 0.97054 0.0
H1003 H 0.63347 0.65188 0.95798 0.0
H1004 H 0.58766 0.66746 0.94166 0.0
H1005 H 0.49536 0.5661 0.96648 0.0
H1006 H 0.54062 0.54964 0.98272 0.0
H1007 H 0.70608 0.60904 0.07877 0.0
H1008 H 0.70446 0.61539 0.04105 0.0
H1009 H 0.58447 0.53246 0.03771 0.0
H1010 H 0.58588 0.52645 0.07561 0.0
H1011 H 0.59795 0.58749 0.01175 0.0
H1012 H 0.65274 0.51035 0.02454 0.0
H1013 H 0.69736 0.4931 0.04078 0.0
H1014 H 0.79107 0.59228 0.0152 0.0
H1015 H 0.74704 0.61042 -0.00096 0.0
C1016 C 0.61418 0.57201 0.91149 0.0
C1017 C 0.6479 0.59905 0.90231 0.0
C1018 C 0.61284 0.568 0.93315 0.0
C1019 C 0.64517 0.59089 0.94617 0.0
C1020 C 0.67885 0.61779 0.93704 0.0
C1021 C 0.68017 0.62198 0.91542 0.0
C1022 C 0.64422 0.58649 0.96926 0.0
C1023 C 0.67014 0.57838 0.97956 0.0
C1024 C 0.61764 0.58943 0.98108 0.0
C1025 C 0.59041 0.59933 0.97138 0.0
C1026 C 0.60338 0.63275 0.95981 0.0
C1027 C 0.57752 0.64177 0.9506 0.0
C1028 C 0.53862 0.61773 0.95298 0.0
C1029 C 0.5255 0.58466 0.96462 0.0
C1030 C 0.55124 0.57549 0.97384 0.0
C1031 C 0.67935 0.59197 0.07001 0.0
C1032 C 0.64618 0.56694 0.08027 0.0
C1033 C 0.67845 0.5956 0.04838 0.0
C1034 C 0.64448 0.57388 0.03632 0.0
C1035 C 0.6111 0.5495 0.04656 0.0
C1036 C 0.61193 0.54609 0.06826 0.0
C1037 C 0.64395 0.57653 0.01309 0.0
C1038 C 0.61773 0.58423 0.00275 0.0
C1039 C 0.67006 0.57289 0.00118 0.0
C1040 C 0.69661 0.56192 0.01073 0.0
C1041 C 0.68288 0.52862 0.02249 0.0
C1042 C 0.70807 0.51866 0.03167 0.0
C1043 C 0.74703 0.54163 0.02906 0.0
C1044 C 0.76088 0.57454 0.01722 0.0
C1045 C 0.73582 0.58466 0.00804 0.0
H1046 H 0.76648 0.53388 0.03618 0.0
H1047 H 0.51864 0.62476 0.94584 0.0
H1048 H 0.15372 0.61109 0.23696 0.0
H1049 H 0.15346 0.60979 0.27489 0.0
H1050 H 0.08275 0.48754 0.27262 0.0
H1051 H 0.08288 0.48853 0.23462 0.0
H1052 H 0.09751 0.58568 0.3019 0.0
H1053 H 0.10872 0.45182 0.31485 0.0
H1054 H 0.13454 0.417 0.29777 0.0
H1055 H 0.21651 0.5198 0.26871 0.0
H1056 H 0.19152 0.5553 0.28582 0.0
H1057 H 1.0609 0.52833 0.40725 0.0
H1058 H 1.06012 0.52872 0.36927 0.0
H1059 H 0.17858 0.56315 0.37169 0.0
H1060 H 0.17924 0.56155 0.40963 0.0
H1061 H 0.14184 0.51067 0.34226 0.0
H1062 H 0.14858 0.62696 0.36095 0.0
H1063 H 0.12847 0.66666 0.37814 0.0
H1064 H 1.0207 0.60777 0.34412 0.0
H1065 H 1.04 0.56736 0.32692 0.0
C1066 C 0.13805 0.58385 0.24447 0.0
C1067 C 0.11844 0.54989 0.2326 0.0
C1068 C 0.13781 0.5832 0.26622 0.0
C1069 C 0.11834 0.54858 0.27674 0.0
C1070 C 0.09836 0.51463 0.26495 0.0
C1071 C 0.09836 0.51527 0.24317 0.0
C1072 C 0.11935 0.54807 0.29999 0.0
C1073 C 0.10705 0.56912 0.3107 0.0
C1074 C 0.13243 0.52709 0.31163 0.0
C1075 C 0.14794 0.50609 0.30144 0.0
C1076 C 0.13232 0.467 0.30486 0.0
C1077 C 0.14681 0.44714 0.29517 0.0
C1078 C 0.17705 0.46615 0.2821 0.0
C1079 C 0.19298 0.50508 0.27876 0.0
C1080 C 0.17863 0.52506 0.28843 0.0
C1081 C 0.08675 0.53569 0.39974 0.0
C1082 C 0.12018 0.54508 0.41166 0.0
C1083 C 0.08635 0.53624 0.37795 0.0
C1084 C 0.11941 0.54639 0.36746 0.0
C1085 C 0.15268 0.55532 0.3793 0.0
C1086 C 0.15311 0.55477 0.40108 0.0
C1087 C 0.11943 0.54782 0.34421 0.0
C1088 C 0.13199 0.52698 0.33348 0.0
C1089 C 0.1072 0.56952 0.33256 0.0
C1090 C 0.0956 0.5939 0.3428 0.0
C1091 C 0.12049 0.6223 0.35725 0.0
C1092 C 0.10925 0.64496 0.36697 0.0
C1093 C 0.07329 0.63968 0.36226 0.0
C1094 C 1.04853 0.61179 0.34777 0.0
C1095 C 1.05961 0.58903 0.33801 0.0
H1096 H 1.06464 0.65725 0.36981 0.0
H1097 H 0.18821 0.45072 0.27461 0.0
loop_
_geom_bond_atom_site_label_1
_geom_bond_atom_site_label_2
_geom_bond_distance
_geom_bond_site_symmetry_2
_ccdc_geom_bond_type
Eu0 C9 2.828 . S
Eu0 O11 2.392 1_655 S
Eu0 O13 2.418 . S
Eu0 O18 2.373 . S
Eu0 O21 2.488 . S
Eu0 O22 2.471 . S
Eu0 O23 2.349 . S
Eu1 O10 2.373 . S
Eu1 O14 2.488 . S
Eu1 O15 2.471 . S
Eu1 O16 2.349 . S
Eu1 O19 2.392 1_455 S
Eu1 O20 2.418 . S
Eu1 C30 2.828 . S
C2 O20 1.244 . S
C2 O23 1.265 1_455 S
C3 C4 1.379 . S
C3 C7 1.373 . S
C3 C9 1.505 . S
C4 C3 1.379 . S
C4 C6 1.369 . S
C4 H32 0.930 . S
C5 C7 1.383 . S
C5 C8 1.382 . S
C5 H33 0.930 . S
C6 C4 1.369 . S
C6 C8 1.392 . S
C6 H34 0.930 . S
C7 C3 1.373 . S
C7 C5 1.383 . S
C7 H35 0.931 . S
C8 C5 1.382 . S
C8 C6 1.392 . S
C9 Eu0 2.828 . S
C9 C3 1.505 . S
C9 O21 1.249 . S
C9 O22 1.244 . S
O10 Eu1 2.373 . S
O10 C12 1.258 . S
O11 Eu0 2.392 1_455 S
O11 C12 1.242 . S
C12 O10 1.258 . S
C12 O11 1.242 . S
O13 Eu0 2.418 . S
O13 C17 1.244 1_655 S
O14 Eu1 2.488 . S
O14 C30 1.249 . S
O15 Eu1 2.471 . S
O15 C30 1.244 . S
O16 Eu1 2.349 . S
O16 C17 1.265 . S
C17 O13 1.244 1_455 S
C17 O16 1.265 . S
O18 Eu0 2.373 . S
O18 C31 1.258 . S
O19 Eu1 2.392 1_655 S
O19 C31 1.242 . S
O20 Eu1 2.418 . S
O20 C2 1.244 . S
O21 Eu0 2.488 . S
O21 C9 1.249 . S
O22 Eu0 2.471 . S
O22 C9 1.244 . S
O23 Eu0 2.349 . S
O23 C2 1.265 1_655 S
C24 C25 1.379 . S
C24 C28 1.373 . S
C24 C30 1.505 . S
C25 C24 1.379 . S
C25 C27 1.369 . S
C25 H36 0.930 . S
C26 C28 1.383 . S
C26 C29 1.382 . S
C26 H37 0.930 . S
C27 C25 1.369 . S
C27 C29 1.392 . S
C27 H38 0.930 . S
C28 C24 1.373 . S
C28 C26 1.383 . S
C28 H39 0.931 . S
C29 C26 1.382 . S
C29 C27 1.392 . S
C30 Eu1 2.828 . S
C30 O14 1.249 . S
C30 O15 1.244 . S
C30 C24 1.505 . S
C31 O18 1.258 . S
C31 O19 1.242 . S
H32 C4 0.930 . S
H33 C5 0.930 . S
H34 C6 0.930 . S
H35 C7 0.931 . S
H36 C25 0.930 . S
H37 C26 0.930 . S
H38 C27 0.930 . S
H39 C28 0.931 . S
Eu40 C49 2.828 . S
Eu40 O51 2.392 1_565 S
Eu40 O53 2.412 1_565 S
Eu40 O58 2.373 . S
Eu40 O61 2.488 . S
Eu40 O62 2.471 . S
Eu40 O63 2.349 1_565 S
Eu41 O50 2.373 . S
Eu41 O54 2.488 . S
Eu41 O55 2.471 . S
Eu41 O56 2.349 . S
Eu41 O59 2.392 1_545 S
Eu41 O60 2.418 . S
Eu41 C70 2.828 . S
C42 O60 1.244 . S
C42 O63 1.265 . S
C43 C44 1.379 . S
C43 C47 1.373 . S
C43 C49 1.505 . S
C44 C43 1.379 . S
C44 C46 1.369 . S
C44 H72 0.930 . S
C45 C47 1.383 . S
C45 C48 1.382 . S
C45 H73 0.930 . S
C46 C44 1.369 . S
C46 C48 1.392 . S
C46 H74 0.930 . S
C47 C43 1.373 . S
C47 C45 1.383 . S
C47 H75 0.931 . S
C48 C45 1.382 . S
C48 C46 1.392 . S
C49 Eu40 2.828 . S
C49 C43 1.505 . S
C49 O61 1.249 . S
C49 O62 1.244 . S
O50 Eu41 2.373 . S
O50 C52 1.258 . S
O51 Eu40 2.392 1_545 S
O51 C52 1.242 . S
C52 O50 1.258 . S
C52 O51 1.242 . S
O53 Eu40 2.412 1_545 S
O53 C57 1.275 . S
O54 Eu41 2.488 . S
O54 C70 1.249 . S
O55 Eu41 2.471 . S
O55 C70 1.244 . S
O56 Eu41 2.349 . S
O56 C57 1.265 . S
C57 O53 1.275 . S
C57 O56 1.265 . S
O58 Eu40 2.373 . S
O58 C71 1.258 . S
O59 Eu41 2.392 1_565 S
O59 C71 1.242 . S
O60 Eu41 2.418 . S
O60 C42 1.244 . S
O61 Eu40 2.488 . S
O61 C49 1.249 . S
O62 Eu40 2.471 . S
O62 C49 1.244 . S
O63 Eu40 2.349 1_545 S
O63 C42 1.265 . S
C64 C65 1.379 . S
C64 C68 1.373 . S
C64 C70 1.505 . S
C65 C64 1.379 . S
C65 C67 1.369 . S
C65 H76 0.930 . S
C66 C68 1.383 . S
C66 C69 1.382 . S
C66 H77 0.930 . S
C67 C65 1.369 . S
C67 C69 1.392 . S
C67 H78 0.930 . S
C68 C64 1.373 . S
C68 C66 1.383 . S
C68 H79 0.931 . S
C69 C66 1.382 . S
C69 C67 1.392 . S
C70 Eu41 2.828 . S
C70 O54 1.249 . S
C70 O55 1.244 . S
C70 C64 1.505 . S
C71 O58 1.258 . S
C71 O59 1.242 . S
H72 C44 0.930 . S
H73 C45 0.930 . S
H74 C46 0.930 . S
H75 C47 0.931 . S
H76 C65 0.930 . S
H77 C66 0.930 . S
H78 C67 0.930 . S
H79 C68 0.931 . S
Eu80 C89 2.828 . S
Eu80 O91 2.392 . S
Eu80 O93 2.418 . S
Eu80 O98 2.373 . S
Eu80 O101 2.488 . S
Eu80 O102 2.471 . S
Eu80 O103 2.349 . S
Eu81 O90 2.373 . S
Eu81 O94 2.488 . S
Eu81 O95 2.471 . S
Eu81 O96 2.349 . S
Eu81 O99 2.392 . S
Eu81 O100 2.418 . S
Eu81 C110 2.828 . S
C82 O100 1.244 . S
C82 O103 1.265 . S
C83 C84 1.379 . S
C83 C87 1.373 . S
C83 C89 1.505 . S
C84 C83 1.379 . S
C84 C86 1.369 . S
C84 H112 0.930 . S
C85 C87 1.383 . S
C85 C88 1.382 . S
C85 H113 0.930 . S
C86 C84 1.369 . S
C86 C88 1.392 . S
C86 H114 0.930 . S
C87 C83 1.373 . S
C87 C85 1.383 . S
C87 H115 0.931 . S
C88 C85 1.382 . S
C88 C86 1.392 . S
C89 Eu80 2.828 . S
C89 C83 1.505 . S
C89 O101 1.249 . S
C89 O102 1.244 . S
O90 Eu81 2.373 . S
O90 C92 1.258 . S
O91 Eu80 2.392 . S
O91 C92 1.242 . S
C92 O90 1.258 . S
C92 O91 1.242 . S
O93 Eu80 2.418 . S
O93 C97 1.244 . S
O94 Eu81 2.488 . S
O94 C110 1.249 . S
O95 Eu81 2.471 . S
O95 C110 1.244 . S
O96 Eu81 2.349 . S
O96 C97 1.265 . S
C97 O93 1.244 . S
C97 O96 1.265 . S
O98 Eu80 2.373 . S
O98 C111 1.258 . S
O99 Eu81 2.392 . S
O99 C111 1.242 . S
O100 Eu81 2.418 . S
O100 C82 1.244 . S
O101 Eu80 2.488 . S
O101 C89 1.249 . S
O102 Eu80 2.471 . S
O102 C89 1.244 . S
O103 Eu80 2.349 . S
O103 C82 1.265 . S
C104 C105 1.379 . S
C104 C108 1.373 . S
C104 C110 1.505 . S
C105 C104 1.379 . S
C105 C107 1.369 . S
C105 H116 0.930 . S
C106 C108 1.383 . S
C106 C109 1.382 . S
C106 H117 0.930 . S
C107 C105 1.369 . S
C107 C109 1.392 . S
C107 H118 0.930 . S
C108 C104 1.373 . S
C108 C106 1.383 . S
C108 H119 0.931 . S
C109 C106 1.382 . S
C109 C107 1.392 . S
C110 Eu81 2.828 . S
C110 O94 1.249 . S
C110 O95 1.244 . S
C110 C104 1.505 . S
C111 O98 1.258 . S
C111 O99 1.242 . S
H112 C84 0.930 . S
H113 C85 0.930 . S
H114 C86 0.930 . S
H115 C87 0.931 . S
H116 C105 0.930 . S
H117 C106 0.930 . S
H118 C107 0.930 . S
H119 C108 0.931 . S
H120 C127 0.929 . S
H121 C130 0.930 1_565 S
H122 C132 0.929 . S
H123 C124 0.969 . S
C124 H123 0.969 . S
C124 O125 1.550 . S
C124 H126 0.973 . S
O125 C124 1.550 . S
O125 C131 1.412 1_565 S
H126 C124 0.973 . S
C127 H120 0.929 . S
C127 C128 1.400 . S
C127 C129 1.364 . S
C128 C127 1.400 . S
C128 C132 1.377 . S
C129 C127 1.364 . S
C129 C130 1.374 . S
C130 H121 0.930 1_545 S
C130 C129 1.374 . S
C130 C131 1.383 . S
C131 O125 1.412 1_545 S
C131 C130 1.383 . S
C131 C132 1.394 . S
C132 H122 0.929 . S
C132 C128 1.377 . S
C132 C131 1.394 . S
H133 C140 0.929 . S
H134 C143 0.930 . S
H135 C145 0.929 . S
H136 C137 0.969 . S
C137 H136 0.969 . S
C137 O138 1.550 . S
C137 H139 0.973 . S
O138 C137 1.550 . S
O138 C144 1.412 . S
H139 C137 0.973 . S
C140 H133 0.929 . S
C140 C141 1.400 . S
C140 C142 1.364 . S
C141 C140 1.400 . S
C141 C145 1.377 . S
C142 C140 1.364 . S
C142 C143 1.374 . S
C143 H134 0.930 . S
C143 C142 1.374 . S
C143 C144 1.383 . S
C144 O138 1.412 . S
C144 C143 1.383 . S
C144 C145 1.394 . S
C145 H135 0.929 . S
C145 C141 1.377 . S
C145 C144 1.394 . S
H146 C153 0.929 . S
H147 C156 0.930 . S
H148 C158 0.929 . S
H149 C150 0.969 . S
C150 H149 0.969 . S
C150 O151 1.550 . S
C150 H152 0.973 . S
O151 C150 1.550 . S
O151 C157 1.412 . S
H152 C150 0.973 . S
C153 H146 0.929 . S
C153 C154 1.400 . S
C153 C155 1.364 . S
C154 C153 1.400 . S
C154 C158 1.377 . S
C155 C153 1.364 . S
C155 C156 1.374 . S
C156 H147 0.930 . S
C156 C155 1.374 . S
C156 C157 1.383 . S
C157 O151 1.412 . S
C157 C156 1.383 . S
C157 C158 1.394 . S
C158 H148 0.929 . S
C158 C154 1.377 . S
C158 C157 1.394 . S
H159 C166 0.929 . S
H160 C169 0.930 . S
H161 C171 0.929 . S
H162 C163 0.969 . S
C163 H162 0.969 . S
C163 O164 1.550 . S
C163 H165 0.973 . S
O164 C163 1.550 . S
O164 C170 1.412 . S
H165 C163 0.973 . S
C166 H159 0.929 . S
C166 C167 1.400 . S
C166 C168 1.364 . S
C167 C166 1.400 . S
C167 C171 1.377 . S
C168 C166 1.364 . S
C168 C169 1.374 . S
C169 H160 0.930 . S
C169 C168 1.374 . S
C169 C170 1.383 . S
C170 O164 1.412 . S
C170 C169 1.383 . S
C170 C171 1.394 . S
C171 H161 0.929 . S
C171 C167 1.377 . S
C171 C170 1.394 . S
H172 C179 0.929 1_565 S
H173 C182 0.930 . S
H174 C184 0.929 . S
H175 C176 0.969 . S
C176 H175 0.969 . S
C176 O177 1.550 . S
C176 H178 0.973 . S
O177 C176 1.550 . S
O177 C183 1.412 . S
H178 C176 0.973 . S
C179 H172 0.929 1_545 S
C179 C180 1.400 . S
C179 C181 1.364 . S
C180 C179 1.400 . S
C180 C184 1.377 . S
C181 C179 1.364 . S
C181 C182 1.374 . S
C182 H173 0.930 . S
C182 C181 1.374 . S
C182 C183 1.383 . S
C183 O177 1.412 . S
C183 C182 1.383 . S
C183 C184 1.394 . S
C184 H174 0.929 . S
C184 C180 1.377 . S
C184 C183 1.394 . S
H185 C192 0.929 . S
H186 C195 0.930 . S
H187 C197 0.929 . S
H188 C189 0.969 . S
C189 H188 0.969 . S
C189 O190 1.550 . S
C189 H191 0.973 . S
O190 C189 1.550 . S
O190 C196 1.412 . S
H191 C189 0.973 . S
C192 H185 0.929 . S
C192 C193 1.400 . S
C192 C194 1.364 . S
C193 C192 1.400 . S
C193 C197 1.377 . S
C194 C192 1.364 . S
C194 C195 1.374 . S
C195 H186 0.930 . S
C195 C194 1.374 . S
C195 C196 1.383 . S
C196 O190 1.412 . S
C196 C195 1.383 . S
C196 C197 1.394 . S
C197 H187 0.929 . S
C197 C193 1.377 . S
C197 C196 1.394 . S
H198 C216 0.951 . S
H199 C218 0.951 . S
H200 C220 0.950 . S
H201 C221 0.950 . S
H202 C223 0.950 . S
H203 C226 0.950 . S
H204 C227 0.950 . S
H205 C229 0.950 . S
H206 C230 0.950 . S
H207 C231 0.951 . S
H208 C233 0.951 . S
H209 C235 0.950 . S
H210 C236 0.950 . S
H211 C238 0.950 . S
H212 C241 0.950 . S
H213 C242 0.950 . S
H214 C244 0.950 . S
H215 C245 0.950 . S
C216 H198 0.951 . S
C216 C217 1.366 . S
C216 C218 1.388 . S
C217 C216 1.366 . S
C217 C221 1.385 . S
C218 H199 0.951 . S
C218 C216 1.388 . S
C218 C219 1.366 . S
C219 C218 1.366 . S
C219 C220 1.414 . S
C219 C222 1.499 . S
C220 H200 0.950 . S
C220 C219 1.414 . S
C220 C221 1.374 . S
C221 H201 0.950 . S
C221 C217 1.385 . S
C221 C220 1.374 . S
C222 C219 1.499 . S
C222 C223 1.373 . S
C222 C224 1.389 . S
C223 H202 0.950 . S
C223 C222 1.373 . S
C223 C239 1.377 . S
C224 C222 1.389 . S
C224 C225 1.524 . S
C224 C238 1.377 . S
C225 C224 1.524 . S
C225 C226 1.397 . S
C225 C230 1.363 . S
C226 H203 0.950 . S
C226 C225 1.397 . S
C226 C227 1.334 . S
C227 H204 0.950 . S
C227 C226 1.334 . S
C227 C228 1.287 . S
C228 C227 1.287 . S
C228 C229 1.524 . S
C228 H247 0.913 . S
C229 H205 0.950 . S
C229 C228 1.524 . S
C229 C230 1.415 . S
C230 H206 0.950 . S
C230 C225 1.363 . S
C230 C229 1.415 . S
C231 H207 0.951 . S
C231 C232 1.366 . S
C231 C233 1.388 . S
C232 C231 1.366 . S
C232 C236 1.385 . S
C233 H208 0.951 . S
C233 C231 1.388 . S
C233 C234 1.366 . S
C234 C233 1.366 . S
C234 C235 1.414 . S
C234 C237 1.499 . S
C235 H209 0.950 . S
C235 C234 1.414 . S
C235 C236 1.374 . S
C236 H210 0.950 . S
C236 C232 1.385 . S
C236 C235 1.374 . S
C237 C234 1.499 . S
C237 C238 1.373 . S
C237 C239 1.389 . S
C238 H211 0.950 . S
C238 C224 1.377 . S
C238 C237 1.373 . S
C239 C223 1.377 . S
C239 C237 1.389 . S
C239 C240 1.524 . S
C240 C239 1.524 . S
C240 C241 1.397 . S
C240 C245 1.363 . S
C241 H212 0.950 . S
C241 C240 1.397 . S
C241 C242 1.334 . S
C242 H213 0.950 . S
C242 C241 1.334 . S
C242 C243 1.287 . S
C243 C242 1.287 . S
C243 C244 1.524 . S
C243 H246 0.999 . S
C244 H214 0.950 . S
C244 C243 1.524 . S
C244 C245 1.415 . S
C245 H215 0.950 . S
C245 C240 1.363 . S
C245 C244 1.415 . S
H246 C243 0.999 . S
H247 C228 0.913 . S
H248 C266 0.951 . S
H249 C268 0.951 . S
H250 C270 0.950 . S
H251 C271 0.950 . S
H252 C273 0.950 . S
H253 C276 0.950 . S
H254 C277 0.950 . S
H255 C279 0.950 . S
H256 C280 0.950 . S
H257 C281 0.951 . S
H258 C283 0.951 . S
H259 C285 0.950 . S
H260 C286 0.950 . S
H261 C288 0.950 . S
H262 C291 0.950 . S
H263 C292 0.950 . S
H264 C294 0.950 . S
H265 C295 0.950 . S
C266 H248 0.951 . S
C266 C267 1.366 . S
C266 C268 1.388 . S
C267 C266 1.366 . S
C267 C271 1.385 . S
C268 H249 0.951 . S
C268 C266 1.388 . S
C268 C269 1.366 . S
C269 C268 1.366 . S
C269 C270 1.414 . S
C269 C272 1.499 . S
C270 H250 0.950 . S
C270 C269 1.414 . S
C270 C271 1.374 . S
C271 H251 0.950 . S
C271 C267 1.385 . S
C271 C270 1.374 . S
C272 C269 1.499 . S
C272 C273 1.373 . S
C272 C274 1.389 . S
C273 H252 0.950 . S
C273 C272 1.373 . S
C273 C289 1.377 . S
C274 C272 1.389 . S
C274 C275 1.524 . S
C274 C288 1.377 . S
C275 C274 1.524 . S
C275 C276 1.397 . S
C275 C280 1.363 . S
C276 H253 0.950 . S
C276 C275 1.397 . S
C276 C277 1.334 . S
C277 H254 0.950 . S
C277 C276 1.334 . S
C277 C278 1.287 . S
C278 C277 1.287 . S
C278 C279 1.524 . S
C278 H297 0.913 . S
C279 H255 0.950 . S
C279 C278 1.524 . S
C279 C280 1.415 . S
C280 H256 0.950 . S
C280 C275 1.363 . S
C280 C279 1.415 . S
C281 H257 0.951 . S
C281 C282 1.366 . S
C281 C283 1.388 . S
C282 C281 1.366 . S
C282 C286 1.385 . S
C283 H258 0.951 . S
C283 C281 1.388 . S
C283 C284 1.366 . S
C284 C283 1.366 . S
C284 C285 1.414 . S
C284 C287 1.499 . S
C285 H259 0.950 . S
C285 C284 1.414 . S
C285 C286 1.374 . S
C286 H260 0.950 . S
C286 C282 1.385 . S
C286 C285 1.374 . S
C287 C284 1.499 . S
C287 C288 1.373 . S
C287 C289 1.389 . S
C288 H261 0.950 . S
C288 C274 1.377 . S
C288 C287 1.373 . S
C289 C273 1.377 . S
C289 C287 1.389 . S
C289 C290 1.524 . S
C290 C289 1.524 . S
C290 C291 1.397 . S
C290 C295 1.363 . S
C291 H262 0.950 . S
C291 C290 1.397 . S
C291 C292 1.334 . S
C292 H263 0.950 . S
C292 C291 1.334 . S
C292 C293 1.287 . S
C293 C292 1.287 . S
C293 C294 1.524 . S
C293 H296 0.999 . S
C294 H264 0.950 . S
C294 C293 1.524 . S
C294 C295 1.415 . S
C295 H265 0.950 . S
C295 C290 1.363 . S
C295 C294 1.415 . S
H296 C293 0.999 . S
H297 C278 0.913 . S
H298 C316 0.951 . S
H299 C318 0.951 . S
H300 C320 0.950 . S
H301 C321 0.950 . S
H302 C323 0.950 . S
H303 C326 0.950 . S
H304 C327 0.950 . S
H305 C329 0.950 . S
H306 C330 0.950 . S
H307 C331 0.951 . S
H308 C333 0.951 . S
H309 C335 0.950 . S
H310 C336 0.950 . S
H311 C338 0.950 . S
H312 C341 0.950 . S
H313 C342 0.950 . S
H314 C344 0.950 . S
H315 C345 0.950 . S
C316 H298 0.951 . S
C316 C317 1.366 . S
C316 C318 1.388 . S
C317 C316 1.366 . S
C317 C321 1.385 . S
C318 H299 0.951 . S
C318 C316 1.388 . S
C318 C319 1.366 . S
C319 C318 1.366 . S
C319 C320 1.414 . S
C319 C322 1.499 . S
C320 H300 0.950 . S
C320 C319 1.414 . S
C320 C321 1.374 . S
C321 H301 0.950 . S
C321 C317 1.385 . S
C321 C320 1.374 . S
C322 C319 1.499 . S
C322 C323 1.373 . S
C322 C324 1.389 . S
C323 H302 0.950 . S
C323 C322 1.373 . S
C323 C339 1.377 . S
C324 C322 1.389 . S
C324 C325 1.524 . S
C324 C338 1.377 . S
C325 C324 1.524 . S
C325 C326 1.397 . S
C325 C330 1.363 . S
C326 H303 0.950 . S
C326 C325 1.397 . S
C326 C327 1.334 . S
C327 H304 0.950 . S
C327 C326 1.334 . S
C327 C328 1.287 . S
C328 C327 1.287 . S
C328 C329 1.524 . S
C328 H347 0.913 . S
C329 H305 0.950 . S
C329 C328 1.524 . S
C329 C330 1.415 . S
C330 H306 0.950 . S
C330 C325 1.363 . S
C330 C329 1.415 . S
C331 H307 0.951 . S
C331 C332 1.366 . S
C331 C333 1.388 . S
C332 C331 1.366 . S
C332 C336 1.385 . S
C333 H308 0.951 . S
C333 C331 1.388 . S
C333 C334 1.366 . S
C334 C333 1.366 . S
C334 C335 1.414 . S
C334 C337 1.499 . S
C335 H309 0.950 . S
C335 C334 1.414 . S
C335 C336 1.374 . S
C336 H310 0.950 . S
C336 C332 1.385 . S
C336 C335 1.374 . S
C337 C334 1.499 . S
C337 C338 1.373 . S
C337 C339 1.389 . S
C338 H311 0.950 . S
C338 C324 1.377 . S
C338 C337 1.373 . S
C339 C323 1.377 . S
C339 C337 1.389 . S
C339 C340 1.524 . S
C340 C339 1.524 . S
C340 C341 1.397 . S
C340 C345 1.363 . S
C341 H312 0.950 . S
C341 C340 1.397 . S
C341 C342 1.334 . S
C342 H313 0.950 . S
C342 C341 1.334 . S
C342 C343 1.287 . S
C343 C342 1.287 . S
C343 C344 1.524 . S
C343 H346 0.999 . S
C344 H314 0.950 . S
C344 C343 1.524 . S
C344 C345 1.415 . S
C345 H315 0.950 . S
C345 C340 1.363 . S
C345 C344 1.415 . S
H346 C343 0.999 . S
H347 C328 0.913 . S
H348 C366 0.951 . S
H349 C368 0.951 . S
H350 C370 0.950 . S
H351 C371 0.950 . S
H352 C373 0.950 . S
H353 C376 0.950 . S
H354 C377 0.950 . S
H355 C379 0.950 . S
H356 C380 0.950 . S
H357 C381 0.951 . S
H358 C383 0.951 . S
H359 C385 0.950 . S
H360 C386 0.950 . S
H361 C388 0.950 . S
H362 C391 0.950 . S
H363 C392 0.950 . S
H364 C394 0.950 . S
H365 C395 0.950 . S
C366 H348 0.951 . S
C366 C367 1.366 . S
C366 C368 1.388 . S
C367 C366 1.366 . S
C367 C371 1.385 . S
C368 H349 0.951 . S
C368 C366 1.388 . S
C368 C369 1.366 . S
C369 C368 1.366 . S
C369 C370 1.414 . S
C369 C372 1.499 . S
C370 H350 0.950 . S
C370 C369 1.414 . S
C370 C371 1.374 . S
C371 H351 0.950 . S
C371 C367 1.385 . S
C371 C370 1.374 . S
C372 C369 1.499 . S
C372 C373 1.373 . S
C372 C374 1.389 . S
C373 H352 0.950 . S
C373 C372 1.373 . S
C373 C389 1.377 . S
C374 C372 1.389 . S
C374 C375 1.524 . S
C374 C388 1.377 . S
C375 C374 1.524 . S
C375 C376 1.397 . S
C375 C380 1.363 . S
C376 H353 0.950 . S
C376 C375 1.397 . S
C376 C377 1.334 . S
C377 H354 0.950 . S
C377 C376 1.334 . S
C377 C378 1.287 . S
C378 C377 1.287 . S
C378 C379 1.524 . S
C378 H397 0.913 . S
C379 H355 0.950 . S
C379 C378 1.524 . S
C379 C380 1.415 . S
C380 H356 0.950 . S
C380 C375 1.363 . S
C380 C379 1.415 . S
C381 H357 0.951 . S
C381 C382 1.366 . S
C381 C383 1.388 . S
C382 C381 1.366 . S
C382 C386 1.385 . S
C383 H358 0.951 . S
C383 C381 1.388 . S
C383 C384 1.366 . S
C384 C383 1.366 . S
C384 C385 1.414 . S
C384 C387 1.499 . S
C385 H359 0.950 . S
C385 C384 1.414 . S
C385 C386 1.374 . S
C386 H360 0.950 . S
C386 C382 1.385 . S
C386 C385 1.374 . S
C387 C384 1.499 . S
C387 C388 1.373 . S
C387 C389 1.389 . S
C388 H361 0.950 . S
C388 C374 1.377 . S
C388 C387 1.373 . S
C389 C373 1.377 . S
C389 C387 1.389 . S
C389 C390 1.524 . S
C390 C389 1.524 . S
C390 C391 1.397 . S
C390 C395 1.363 . S
C391 H362 0.950 . S
C391 C390 1.397 . S
C391 C392 1.334 . S
C392 H363 0.950 . S
C392 C391 1.334 . S
C392 C393 1.287 . S
C393 C392 1.287 . S
C393 C394 1.524 . S
C393 H396 0.999 . S
C394 H364 0.950 . S
C394 C393 1.524 . S
C394 C395 1.415 . S
C395 H365 0.950 . S
C395 C390 1.363 . S
C395 C394 1.415 . S
H396 C393 0.999 . S
H397 C378 0.913 . S
H398 C416 0.951 . S
H399 C418 0.951 . S
H400 C420 0.950 . S
H401 C421 0.950 . S
H402 C423 0.950 . S
H403 C426 0.950 . S
H404 C427 0.950 . S
H405 C429 0.950 . S
H406 C430 0.950 . S
H407 C431 0.951 . S
H408 C433 0.951 . S
H409 C435 0.950 . S
H410 C436 0.950 . S
H411 C438 0.950 . S
H412 C441 0.950 . S
H413 C442 0.950 . S
H414 C444 0.950 . S
H415 C445 0.950 . S
C416 H398 0.951 . S
C416 C417 1.366 . S
C416 C418 1.388 . S
C417 C416 1.366 . S
C417 C421 1.385 . S
C418 H399 0.951 . S
C418 C416 1.388 . S
C418 C419 1.366 . S
C419 C418 1.366 . S
C419 C420 1.414 . S
C419 C422 1.499 . S
C420 H400 0.950 . S
C420 C419 1.414 . S
C420 C421 1.374 . S
C421 H401 0.950 . S
C421 C417 1.385 . S
C421 C420 1.374 . S
C422 C419 1.499 . S
C422 C423 1.373 . S
C422 C424 1.389 . S
C423 H402 0.950 . S
C423 C422 1.373 . S
C423 C439 1.377 . S
C424 C422 1.389 . S
C424 C425 1.524 . S
C424 C438 1.377 . S
C425 C424 1.524 . S
C425 C426 1.397 . S
C425 C430 1.363 . S
C426 H403 0.950 . S
C426 C425 1.397 . S
C426 C427 1.334 . S
C427 H404 0.950 . S
C427 C426 1.334 . S
C427 C428 1.287 . S
C428 C427 1.287 . S
C428 C429 1.524 . S
C428 H447 0.913 . S
C429 H405 0.950 . S
C429 C428 1.524 . S
C429 C430 1.415 . S
C430 H406 0.950 . S
C430 C425 1.363 . S
C430 C429 1.415 . S
C431 H407 0.951 . S
C431 C432 1.366 . S
C431 C433 1.388 . S
C432 C431 1.366 . S
C432 C436 1.385 . S
C433 H408 0.951 . S
C433 C431 1.388 . S
C433 C434 1.366 . S
C434 C433 1.366 . S
C434 C435 1.414 . S
C434 C437 1.499 . S
C435 H409 0.950 . S
C435 C434 1.414 . S
C435 C436 1.374 . S
C436 H410 0.950 . S
C436 C432 1.385 . S
C436 C435 1.374 . S
C437 C434 1.499 . S
C437 C438 1.373 . S
C437 C439 1.389 . S
C438 H411 0.950 . S
C438 C424 1.377 . S
C438 C437 1.373 . S
C439 C423 1.377 . S
C439 C437 1.389 . S
C439 C440 1.524 . S
C440 C439 1.524 . S
C440 C441 1.397 . S
C440 C445 1.363 . S
C441 H412 0.950 . S
C441 C440 1.397 . S
C441 C442 1.334 . S
C442 H413 0.950 . S
C442 C441 1.334 . S
C442 C443 1.287 . S
C443 C442 1.287 . S
C443 C444 1.524 . S
C443 H446 0.999 . S
C444 H414 0.950 . S
C444 C443 1.524 . S
C444 C445 1.415 . S
C445 H415 0.950 . S
C445 C440 1.363 . S
C445 C444 1.415 . S
H446 C443 0.999 . S
H447 C428 0.913 . S
H448 C466 0.951 . S
H449 C468 0.951 . S
H450 C470 0.950 . S
H451 C471 0.950 . S
H452 C473 0.950 . S
H453 C476 0.950 . S
H454 C477 0.950 . S
H455 C479 0.950 . S
H456 C480 0.950 . S
H457 C481 0.951 . S
H458 C483 0.951 . S
H459 C485 0.950 . S
H460 C486 0.950 . S
H461 C488 0.950 . S
H462 C491 0.950 . S
H463 C492 0.950 . S
H464 C494 0.950 . S
H465 C495 0.950 . S
C466 H448 0.951 . S
C466 C467 1.366 . S
C466 C468 1.388 . S
C467 C466 1.366 . S
C467 C471 1.385 . S
C468 H449 0.951 . S
C468 C466 1.388 . S
C468 C469 1.366 . S
C469 C468 1.366 . S
C469 C470 1.414 . S
C469 C472 1.499 . S
C470 H450 0.950 . S
C470 C469 1.414 . S
C470 C471 1.374 . S
C471 H451 0.950 . S
C471 C467 1.385 . S
C471 C470 1.374 . S
C472 C469 1.499 . S
C472 C473 1.373 . S
C472 C474 1.389 . S
C473 H452 0.950 . S
C473 C472 1.373 . S
C473 C489 1.377 . S
C474 C472 1.389 . S
C474 C475 1.524 . S
C474 C488 1.377 . S
C475 C474 1.524 . S
C475 C476 1.397 . S
C475 C480 1.363 . S
C476 H453 0.950 . S
C476 C475 1.397 . S
C476 C477 1.334 . S
C477 H454 0.950 . S
C477 C476 1.334 . S
C477 C478 1.287 . S
C478 C477 1.287 . S
C478 C479 1.524 . S
C478 H497 0.913 . S
C479 H455 0.950 . S
C479 C478 1.524 . S
C479 C480 1.415 . S
C480 H456 0.950 . S
C480 C475 1.363 . S
C480 C479 1.415 . S
C481 H457 0.951 . S
C481 C482 1.366 . S
C481 C483 1.388 . S
C482 C481 1.366 . S
C482 C486 1.385 . S
C483 H458 0.951 . S
C483 C481 1.388 . S
C483 C484 1.366 . S
C484 C483 1.366 . S
C484 C485 1.414 . S
C484 C487 1.499 . S
C485 H459 0.950 . S
C485 C484 1.414 . S
C485 C486 1.374 . S
C486 H460 0.950 . S
C486 C482 1.385 . S
C486 C485 1.374 . S
C487 C484 1.499 . S
C487 C488 1.373 . S
C487 C489 1.389 . S
C488 H461 0.950 . S
C488 C474 1.377 . S
C488 C487 1.373 . S
C489 C473 1.377 . S
C489 C487 1.389 . S
C489 C490 1.524 . S
C490 C489 1.524 . S
C490 C491 1.397 . S
C490 C495 1.363 . S
C491 H462 0.950 . S
C491 C490 1.397 . S
C491 C492 1.334 . S
C492 H463 0.950 . S
C492 C491 1.334 . S
C492 C493 1.287 . S
C493 C492 1.287 . S
C493 C494 1.524 . S
C493 H496 0.999 . S
C494 H464 0.950 . S
C494 C493 1.524 . S
C494 C495 1.415 . S
C495 H465 0.950 . S
C495 C490 1.363 . S
C495 C494 1.415 . S
H496 C493 0.999 . S
H497 C478 0.913 . S
H498 C516 0.951 . S
H499 C518 0.951 . S
H500 C520 0.950 . S
H501 C521 0.950 . S
H502 C523 0.950 . S
H503 C526 0.950 . S
H504 C527 0.950 . S
H505 C529 0.950 . S
H506 C530 0.950 . S
H507 C531 0.951 . S
H508 C533 0.951 . S
H509 C535 0.950 . S
H510 C536 0.950 . S
H511 C538 0.950 . S
H512 C541 0.950 . S
H513 C542 0.950 . S
H514 C544 0.950 . S
H515 C545 0.950 . S
C516 H498 0.951 . S
C516 C517 1.366 . S
C516 C518 1.388 . S
C517 C516 1.366 . S
C517 C521 1.385 . S
C518 H499 0.951 . S
C518 C516 1.388 . S
C518 C519 1.366 . S
C519 C518 1.366 . S
C519 C520 1.414 . S
C519 C522 1.499 . S
C520 H500 0.950 . S
C520 C519 1.414 . S
C520 C521 1.374 . S
C521 H501 0.950 . S
C521 C517 1.385 . S
C521 C520 1.374 . S
C522 C519 1.499 . S
C522 C523 1.373 . S
C522 C524 1.389 . S
C523 H502 0.950 . S
C523 C522 1.373 . S
C523 C539 1.377 . S
C524 C522 1.389 . S
C524 C525 1.524 . S
C524 C538 1.377 . S
C525 C524 1.524 . S
C525 C526 1.397 . S
C525 C530 1.363 . S
C526 H503 0.950 . S
C526 C525 1.397 . S
C526 C527 1.334 . S
C527 H504 0.950 . S
C527 C526 1.334 . S
C527 C528 1.287 . S
C528 C527 1.287 . S
C528 C529 1.524 . S
C528 H547 0.913 . S
C529 H505 0.950 . S
C529 C528 1.524 . S
C529 C530 1.415 . S
C530 H506 0.950 . S
C530 C525 1.363 . S
C530 C529 1.415 . S
C531 H507 0.951 . S
C531 C532 1.366 . S
C531 C533 1.388 . S
C532 C531 1.366 . S
C532 C536 1.385 . S
C533 H508 0.951 . S
C533 C531 1.388 . S
C533 C534 1.366 . S
C534 C533 1.366 . S
C534 C535 1.414 . S
C534 C537 1.499 . S
C535 H509 0.950 . S
C535 C534 1.414 . S
C535 C536 1.374 . S
C536 H510 0.950 . S
C536 C532 1.385 . S
C536 C535 1.374 . S
C537 C534 1.499 . S
C537 C538 1.373 . S
C537 C539 1.389 . S
C538 H511 0.950 . S
C538 C524 1.377 . S
C538 C537 1.373 . S
C539 C523 1.377 . S
C539 C537 1.389 . S
C539 C540 1.524 . S
C540 C539 1.524 . S
C540 C541 1.397 . S
C540 C545 1.363 . S
C541 H512 0.950 . S
C541 C540 1.397 . S
C541 C542 1.334 . S
C542 H513 0.950 . S
C542 C541 1.334 . S
C542 C543 1.287 . S
C543 C542 1.287 . S
C543 C544 1.524 . S
C543 H546 0.999 . S
C544 H514 0.950 . S
C544 C543 1.524 . S
C544 C545 1.415 . S
C545 H515 0.950 . S
C545 C540 1.363 . S
C545 C544 1.415 . S
H546 C543 0.999 . S
H547 C528 0.913 . S
H548 C566 0.951 . S
H549 C568 0.951 . S
H550 C570 0.950 . S
H551 C571 0.950 . S
H552 C573 0.950 . S
H553 C576 0.950 . S
H554 C577 0.950 . S
H555 C579 0.950 . S
H556 C580 0.950 . S
H557 C581 0.951 . S
H558 C583 0.951 . S
H559 C585 0.950 . S
H560 C586 0.950 . S
H561 C588 0.950 . S
H562 C591 0.950 . S
H563 C592 0.950 . S
H564 C594 0.950 . S
H565 C595 0.950 . S
C566 H548 0.951 . S
C566 C567 1.366 . S
C566 C568 1.388 . S
C567 C566 1.366 . S
C567 C571 1.385 . S
C568 H549 0.951 . S
C568 C566 1.388 . S
C568 C569 1.366 . S
C569 C568 1.366 . S
C569 C570 1.414 . S
C569 C572 1.499 . S
C570 H550 0.950 . S
C570 C569 1.414 . S
C570 C571 1.374 . S
C571 H551 0.950 . S
C571 C567 1.385 . S
C571 C570 1.374 . S
C572 C569 1.499 . S
C572 C573 1.373 . S
C572 C574 1.389 . S
C573 H552 0.950 . S
C573 C572 1.373 . S
C573 C589 1.377 . S
C574 C572 1.389 . S
C574 C575 1.524 . S
C574 C588 1.377 . S
C575 C574 1.524 . S
C575 C576 1.397 . S
C575 C580 1.363 . S
C576 H553 0.950 . S
C576 C575 1.397 . S
C576 C577 1.334 . S
C577 H554 0.950 . S
C577 C576 1.334 . S
C577 C578 1.287 . S
C578 C577 1.287 . S
C578 C579 1.524 . S
C578 H597 0.913 . S
C579 H555 0.950 . S
C579 C578 1.524 . S
C579 C580 1.415 . S
C580 H556 0.950 . S
C580 C575 1.363 . S
C580 C579 1.415 . S
C581 H557 0.951 . S
C581 C582 1.366 . S
C581 C583 1.388 1_455 S
C582 C581 1.366 . S
C582 C586 1.385 . S
C583 H558 0.951 . S
C583 C581 1.388 1_655 S
C583 C584 1.366 . S
C584 C583 1.366 . S
C584 C585 1.414 . S
C584 C587 1.499 . S
C585 H559 0.950 . S
C585 C584 1.414 . S
C585 C586 1.374 1_655 S
C586 H560 0.950 . S
C586 C582 1.385 . S
C586 C585 1.374 1_455 S
C587 C584 1.499 . S
C587 C588 1.373 . S
C587 C589 1.389 . S
C588 H561 0.950 . S
C588 C574 1.377 . S
C588 C587 1.373 . S
C589 C573 1.377 . S
C589 C587 1.389 . S
C589 C590 1.524 . S
C590 C589 1.524 . S
C590 C591 1.397 . S
C590 C595 1.363 . S
C591 H562 0.950 . S
C591 C590 1.397 . S
C591 C592 1.334 . S
C592 H563 0.950 . S
C592 C591 1.334 . S
C592 C593 1.287 . S
C593 C592 1.287 . S
C593 C594 1.524 . S
C593 H596 0.999 . S
C594 H564 0.950 . S
C594 C593 1.524 . S
C594 C595 1.415 . S
C595 H565 0.950 . S
C595 C590 1.363 . S
C595 C594 1.415 . S
H596 C593 0.999 . S
H597 C578 0.913 . S
H598 C616 0.951 . S
H599 C618 0.951 . S
H600 C620 0.950 . S
H601 C621 0.950 . S
H602 C623 0.950 . S
H603 C626 0.950 . S
H604 C627 0.950 . S
H605 C629 0.950 . S
H606 C630 0.950 . S
H607 C631 0.951 . S
H608 C633 0.951 . S
H609 C635 0.950 . S
H610 C636 0.950 . S
H611 C638 0.950 . S
H612 C641 0.950 . S
H613 C642 0.950 . S
H614 C644 0.950 . S
H615 C645 0.950 . S
C616 H598 0.951 . S
C616 C617 1.366 . S
C616 C618 1.388 . S
C617 C616 1.366 . S
C617 C621 1.385 . S
C618 H599 0.951 . S
C618 C616 1.388 . S
C618 C619 1.366 . S
C619 C618 1.366 . S
C619 C620 1.414 . S
C619 C622 1.499 . S
C620 H600 0.950 . S
C620 C619 1.414 . S
C620 C621 1.374 . S
C621 H601 0.950 . S
C621 C617 1.385 . S
C621 C620 1.374 . S
C622 C619 1.499 . S
C622 C623 1.373 . S
C622 C624 1.389 . S
C623 H602 0.950 . S
C623 C622 1.373 . S
C623 C639 1.377 . S
C624 C622 1.389 . S
C624 C625 1.524 . S
C624 C638 1.377 . S
C625 C624 1.524 . S
C625 C626 1.397 . S
C625 C630 1.363 . S
C626 H603 0.950 . S
C626 C625 1.397 . S
C626 C627 1.334 . S
C627 H604 0.950 . S
C627 C626 1.334 . S
C627 C628 1.287 . S
C628 C627 1.287 . S
C628 C629 1.524 . S
C628 H647 0.913 . S
C629 H605 0.950 . S
C629 C628 1.524 . S
C629 C630 1.415 . S
C630 H606 0.950 . S
C630 C625 1.363 . S
C630 C629 1.415 . S
C631 H607 0.951 . S
C631 C632 1.366 . S
C631 C633 1.388 . S
C632 C631 1.366 . S
C632 C636 1.385 . S
C633 H608 0.951 . S
C633 C631 1.388 . S
C633 C634 1.366 . S
C634 C633 1.366 . S
C634 C635 1.414 . S
C634 C637 1.499 . S
C635 H609 0.950 . S
C635 C634 1.414 . S
C635 C636 1.374 . S
C636 H610 0.950 . S
C636 C632 1.385 . S
C636 C635 1.374 . S
C637 C634 1.499 . S
C637 C638 1.373 . S
C637 C639 1.389 . S
C638 H611 0.950 . S
C638 C624 1.377 . S
C638 C637 1.373 . S
C639 C623 1.377 . S
C639 C637 1.389 . S
C639 C640 1.524 . S
C640 C639 1.524 . S
C640 C641 1.397 . S
C640 C645 1.363 . S
C641 H612 0.950 . S
C641 C640 1.397 . S
C641 C642 1.334 . S
C642 H613 0.950 . S
C642 C641 1.334 . S
C642 C643 1.287 . S
C643 C642 1.287 . S
C643 C644 1.524 . S
C643 H646 0.999 . S
C644 H614 0.950 . S
C644 C643 1.524 . S
C644 C645 1.415 . S
C645 H615 0.950 . S
C645 C640 1.363 . S
C645 C644 1.415 . S
H646 C643 0.999 . S
H647 C628 0.913 . S
H648 C666 0.951 . S
H649 C668 0.951 . S
H650 C670 0.950 . S
H651 C671 0.950 . S
H652 C673 0.950 . S
H653 C676 0.950 . S
H654 C677 0.950 . S
H655 C679 0.950 . S
H656 C680 0.950 . S
H657 C681 0.951 . S
H658 C683 0.951 . S
H659 C685 0.950 . S
H660 C686 0.950 . S
H661 C688 0.950 . S
H662 C691 0.950 . S
H663 C692 0.950 . S
H664 C694 0.950 . S
H665 C695 0.950 . S
C666 H648 0.951 . S
C666 C667 1.366 . S
C666 C668 1.388 . S
C667 C666 1.366 . S
C667 C671 1.385 . S
C668 H649 0.951 . S
C668 C666 1.388 . S
C668 C669 1.366 . S
C669 C668 1.366 . S
C669 C670 1.414 . S
C669 C672 1.499 . S
C670 H650 0.950 . S
C670 C669 1.414 . S
C670 C671 1.374 . S
C671 H651 0.950 . S
C671 C667 1.385 . S
C671 C670 1.374 . S
C672 C669 1.499 . S
C672 C673 1.373 . S
C672 C674 1.389 . S
C673 H652 0.950 . S
C673 C672 1.373 . S
C673 C689 1.377 . S
C674 C672 1.389 . S
C674 C675 1.524 . S
C674 C688 1.377 . S
C675 C674 1.524 . S
C675 C676 1.397 . S
C675 C680 1.363 . S
C676 H653 0.950 . S
C676 C675 1.397 . S
C676 C677 1.334 . S
C677 H654 0.950 . S
C677 C676 1.334 . S
C677 C678 1.287 . S
C678 C677 1.287 . S
C678 C679 1.524 . S
C678 H697 0.913 . S
C679 H655 0.950 . S
C679 C678 1.524 . S
C679 C680 1.415 . S
C680 H656 0.950 . S
C680 C675 1.363 . S
C680 C679 1.415 . S
C681 H657 0.951 . S
C681 C682 1.366 . S
C681 C683 1.388 . S
C682 C681 1.366 . S
C682 C686 1.385 . S
C683 H658 0.951 . S
C683 C681 1.388 . S
C683 C684 1.366 . S
C684 C683 1.366 . S
C684 C685 1.414 . S
C684 C687 1.499 . S
C685 H659 0.950 . S
C685 C684 1.414 . S
C685 C686 1.374 . S
C686 H660 0.950 . S
C686 C682 1.385 . S
C686 C685 1.374 . S
C687 C684 1.499 . S
C687 C688 1.373 . S
C687 C689 1.389 . S
C688 H661 0.950 . S
C688 C674 1.377 . S
C688 C687 1.373 . S
C689 C673 1.377 . S
C689 C687 1.389 . S
C689 C690 1.524 . S
C690 C689 1.524 . S
C690 C691 1.397 . S
C690 C695 1.363 . S
C691 H662 0.950 . S
C691 C690 1.397 . S
C691 C692 1.334 . S
C692 H663 0.950 . S
C692 C691 1.334 . S
C692 C693 1.287 . S
C693 C692 1.287 . S
C693 C694 1.524 . S
C693 H696 0.999 . S
C694 H664 0.950 . S
C694 C693 1.524 . S
C694 C695 1.415 . S
C695 H665 0.950 . S
C695 C690 1.363 . S
C695 C694 1.415 . S
H696 C693 0.999 . S
H697 C678 0.913 . S
H698 C716 0.951 . S
H699 C718 0.951 . S
H700 C720 0.950 . S
H701 C721 0.950 . S
H702 C723 0.950 . S
H703 C726 0.950 . S
H704 C727 0.950 . S
H705 C729 0.950 . S
H706 C730 0.950 . S
H707 C731 0.951 . S
H708 C733 0.951 . S
H709 C735 0.950 . S
H710 C736 0.950 . S
H711 C738 0.950 . S
H712 C741 0.950 . S
H713 C742 0.950 . S
H714 C744 0.950 . S
H715 C745 0.950 . S
C716 H698 0.951 . S
C716 C717 1.366 . S
C716 C718 1.388 . S
C717 C716 1.366 . S
C717 C721 1.385 . S
C718 H699 0.951 . S
C718 C716 1.388 . S
C718 C719 1.366 . S
C719 C718 1.366 . S
C719 C720 1.414 . S
C719 C722 1.499 . S
C720 H700 0.950 . S
C720 C719 1.414 . S
C720 C721 1.374 . S
C721 H701 0.950 . S
C721 C717 1.385 . S
C721 C720 1.374 . S
C722 C719 1.499 . S
C722 C723 1.373 . S
C722 C724 1.389 . S
C723 H702 0.950 . S
C723 C722 1.373 . S
C723 C739 1.377 . S
C724 C722 1.389 . S
C724 C725 1.524 . S
C724 C738 1.377 . S
C725 C724 1.524 . S
C725 C726 1.397 . S
C725 C730 1.363 . S
C726 H703 0.950 . S
C726 C725 1.397 . S
C726 C727 1.334 . S
C727 H704 0.950 . S
C727 C726 1.334 . S
C727 C728 1.287 . S
C728 C727 1.287 . S
C728 C729 1.524 . S
C728 H747 0.913 . S
C729 H705 0.950 . S
C729 C728 1.524 . S
C729 C730 1.415 . S
C730 H706 0.950 . S
C730 C725 1.363 . S
C730 C729 1.415 . S
C731 H707 0.951 . S
C731 C732 1.366 . S
C731 C733 1.388 . S
C732 C731 1.366 . S
C732 C736 1.385 . S
C733 H708 0.951 . S
C733 C731 1.388 . S
C733 C734 1.366 . S
C734 C733 1.366 . S
C734 C735 1.414 . S
C734 C737 1.499 . S
C735 H709 0.950 . S
C735 C734 1.414 . S
C735 C736 1.374 . S
C736 H710 0.950 . S
C736 C732 1.385 . S
C736 C735 1.374 . S
C737 C734 1.499 . S
C737 C738 1.373 . S
C737 C739 1.389 . S
C738 H711 0.950 . S
C738 C724 1.377 . S
C738 C737 1.373 . S
C739 C723 1.377 . S
C739 C737 1.389 . S
C739 C740 1.524 . S
C740 C739 1.524 . S
C740 C741 1.397 . S
C740 C745 1.363 . S
C741 H712 0.950 . S
C741 C740 1.397 . S
C741 C742 1.334 . S
C742 H713 0.950 . S
C742 C741 1.334 . S
C742 C743 1.287 . S
C743 C742 1.287 . S
C743 C744 1.524 . S
C743 H746 0.999 . S
C744 H714 0.950 . S
C744 C743 1.524 . S
C744 C745 1.415 . S
C745 H715 0.950 . S
C745 C740 1.363 . S
C745 C744 1.415 . S
H746 C743 0.999 . S
H747 C728 0.913 . S
H748 C766 0.951 . S
H749 C768 0.951 . S
H750 C770 0.950 . S
H751 C771 0.950 . S
H752 C773 0.950 . S
H753 C776 0.950 . S
H754 C777 0.950 . S
H755 C779 0.950 . S
H756 C780 0.950 . S
H757 C781 0.951 . S
H758 C783 0.951 . S
H759 C785 0.950 . S
H760 C786 0.950 . S
H761 C788 0.950 . S
H762 C791 0.950 . S
H763 C792 0.950 . S
H764 C794 0.950 . S
H765 C795 0.950 . S
C766 H748 0.951 . S
C766 C767 1.366 . S
C766 C768 1.388 . S
C767 C766 1.366 . S
C767 C771 1.385 . S
C768 H749 0.951 . S
C768 C766 1.388 . S
C768 C769 1.366 . S
C769 C768 1.366 . S
C769 C770 1.414 . S
C769 C772 1.499 . S
C770 H750 0.950 . S
C770 C769 1.414 . S
C770 C771 1.374 . S
C771 H751 0.950 . S
C771 C767 1.385 . S
C771 C770 1.374 . S
C772 C769 1.499 . S
C772 C773 1.373 . S
C772 C774 1.389 . S
C773 H752 0.950 . S
C773 C772 1.373 . S
C773 C789 1.377 . S
C774 C772 1.389 . S
C774 C775 1.524 . S
C774 C788 1.377 . S
C775 C774 1.524 . S
C775 C776 1.397 . S
C775 C780 1.363 . S
C776 H753 0.950 . S
C776 C775 1.397 . S
C776 C777 1.334 . S
C777 H754 0.950 . S
C777 C776 1.334 . S
C777 C778 1.287 . S
C778 C777 1.287 . S
C778 C779 1.524 . S
C778 H797 0.913 . S
C779 H755 0.950 . S
C779 C778 1.524 . S
C779 C780 1.415 . S
C780 H756 0.950 . S
C780 C775 1.363 . S
C780 C779 1.415 . S
C781 H757 0.951 . S
C781 C782 1.366 . S
C781 C783 1.388 . S
C782 C781 1.366 . S
C782 C786 1.385 . S
C783 H758 0.951 . S
C783 C781 1.388 . S
C783 C784 1.366 . S
C784 C783 1.366 . S
C784 C785 1.414 . S
C784 C787 1.499 . S
C785 H759 0.950 . S
C785 C784 1.414 . S
C785 C786 1.374 . S
C786 H760 0.950 . S
C786 C782 1.385 . S
C786 C785 1.374 . S
C787 C784 1.499 . S
C787 C788 1.373 . S
C787 C789 1.389 . S
C788 H761 0.950 . S
C788 C774 1.377 . S
C788 C787 1.373 . S
C789 C773 1.377 . S
C789 C787 1.389 . S
C789 C790 1.524 . S
C790 C789 1.524 . S
C790 C791 1.397 . S
C790 C795 1.363 . S
C791 H762 0.950 . S
C791 C790 1.397 . S
C791 C792 1.334 . S
C792 H763 0.950 . S
C792 C791 1.334 . S
C792 C793 1.287 . S
C793 C792 1.287 . S
C793 C794 1.524 . S
C793 H796 0.999 . S
C794 H764 0.950 . S
C794 C793 1.524 . S
C794 C795 1.415 . S
C795 H765 0.950 . S
C795 C790 1.363 . S
C795 C794 1.415 . S
H796 C793 0.999 . S
H797 C778 0.913 . S
H798 C816 0.951 1_655 S
H799 C818 0.951 . S
H800 C820 0.950 . S
H801 C821 0.950 . S
H802 C823 0.950 . S
H803 C826 0.950 . S
H804 C827 0.950 . S
H805 C829 0.950 . S
H806 C830 0.950 . S
H807 C831 0.951 . S
H808 C833 0.951 . S
H809 C835 0.950 . S
H810 C836 0.950 . S
H811 C838 0.950 1_655 S
H812 C841 0.950 . S
H813 C842 0.950 . S
H814 C844 0.950 . S
H815 C845 0.950 . S
C816 H798 0.951 1_455 S
C816 C817 1.366 . S
C816 C818 1.388 . S
C817 C816 1.366 . S
C817 C821 1.385 . S
C818 H799 0.951 . S
C818 C816 1.388 . S
C818 C819 1.366 . S
C819 C818 1.366 . S
C819 C820 1.414 . S
C819 C822 1.499 . S
C820 H800 0.950 . S
C820 C819 1.414 . S
C820 C821 1.374 . S
C821 H801 0.950 . S
C821 C817 1.385 . S
C821 C820 1.374 . S
C822 C819 1.499 . S
C822 C823 1.373 . S
C822 C824 1.389 . S
C823 H802 0.950 . S
C823 C822 1.373 . S
C823 C839 1.377 . S
C824 C822 1.389 . S
C824 C825 1.524 1_455 S
C824 C838 1.377 1_554 S
C825 C824 1.524 1_655 S
C825 C826 1.397 . S
C825 C830 1.363 . S
C826 H803 0.950 . S
C826 C825 1.397 . S
C826 C827 1.334 . S
C827 H804 0.950 . S
C827 C826 1.334 . S
C827 C828 1.287 . S
C828 C827 1.287 . S
C828 C829 1.524 . S
C828 H847 0.913 . S
C829 H805 0.950 . S
C829 C828 1.524 . S
C829 C830 1.415 . S
C830 H806 0.950 . S
C830 C825 1.363 . S
C830 C829 1.415 . S
C831 H807 0.951 . S
C831 C832 1.366 . S
C831 C833 1.388 . S
C832 C831 1.366 . S
C832 C836 1.385 . S
C833 H808 0.951 . S
C833 C831 1.388 . S
C833 C834 1.366 . S
C834 C833 1.366 . S
C834 C835 1.414 . S
C834 C837 1.499 . S
C835 H809 0.950 . S
C835 C834 1.414 . S
C835 C836 1.374 . S
C836 H810 0.950 . S
C836 C832 1.385 . S
C836 C835 1.374 . S
C837 C834 1.499 . S
C837 C838 1.373 . S
C837 C839 1.389 1_556 S
C838 H811 0.950 1_455 S
C838 C824 1.377 1_556 S
C838 C837 1.373 . S
C839 C823 1.377 . S
C839 C837 1.389 1_554 S
C839 C840 1.524 . S
C840 C839 1.524 . S
C840 C841 1.397 1_554 S
C840 C845 1.363 . S
C841 H812 0.950 . S
C841 C840 1.397 1_556 S
C841 C842 1.334 . S
C842 H813 0.950 . S
C842 C841 1.334 . S
C842 C843 1.287 . S
C843 C842 1.287 . S
C843 C844 1.524 1_556 S
C843 H846 0.999 . S
C844 H814 0.950 . S
C844 C843 1.524 1_554 S
C844 C845 1.415 . S
C845 H815 0.950 . S
C845 C840 1.363 . S
C845 C844 1.415 . S
H846 C843 0.999 . S
H847 C828 0.913 . S
H848 C866 0.951 . S
H849 C868 0.951 . S
H850 C870 0.950 . S
H851 C871 0.950 . S
H852 C873 0.958 . S
H853 C876 0.950 . S
H854 C877 0.950 . S
H855 C879 0.950 . S
H856 C880 0.950 . S
H857 C881 0.951 . S
H858 C883 0.951 . S
H859 C885 0.950 . S
H860 C886 0.950 . S
H861 C888 0.950 . S
H862 C891 0.950 1_545 S
H863 C892 0.950 . S
H864 C894 0.950 . S
H865 C895 0.950 . S
C866 H848 0.951 . S
C866 C867 1.366 . S
C866 C868 1.388 . S
C867 C866 1.366 . S
C867 C871 1.385 1_545 S
C868 H849 0.951 . S
C868 C866 1.388 . S
C868 C869 1.366 . S
C869 C868 1.366 . S
C869 C870 1.414 1_545 S
C869 C872 1.499 . S
C870 H850 0.950 . S
C870 C869 1.414 1_565 S
C870 C871 1.374 . S
C871 H851 0.950 . S
C871 C867 1.385 1_565 S
C871 C870 1.374 . S
C872 C869 1.499 . S
C872 C873 1.367 1_545 S
C872 C874 1.389 . S
C873 H852 0.958 . S
C873 C872 1.367 1_565 S
C873 C889 1.374 1_565 S
C874 C872 1.389 . S
C874 C875 1.524 . S
C874 C888 1.377 . S
C875 C874 1.524 . S
C875 C876 1.397 . S
C875 C880 1.363 . S
C876 H853 0.950 . S
C876 C875 1.397 . S
C876 C877 1.334 . S
C877 H854 0.950 . S
C877 C876 1.334 . S
C877 C878 1.287 . S
C878 C877 1.287 . S
C878 C879 1.524 . S
C878 H897 0.913 . S
C879 H855 0.950 . S
C879 C878 1.524 . S
C879 C880 1.415 . S
C880 H856 0.950 . S
C880 C875 1.363 . S
C880 C879 1.415 . S
C881 H857 0.951 . S
C881 C882 1.366 1_565 S
C881 C883 1.388 . S
C882 C881 1.366 1_545 S
C882 C886 1.385 . S
C883 H858 0.951 . S
C883 C881 1.388 . S
C883 C884 1.366 1_565 S
C884 C883 1.366 1_545 S
C884 C885 1.414 . S
C884 C887 1.499 . S
C885 H859 0.950 . S
C885 C884 1.414 . S
C885 C886 1.374 . S
C886 H860 0.950 . S
C886 C882 1.385 . S
C886 C885 1.374 . S
C887 C884 1.499 . S
C887 C888 1.373 . S
C887 C889 1.411 . S
C888 H861 0.950 . S
C888 C874 1.377 . S
C888 C887 1.373 . S
C889 C873 1.374 1_545 S
C889 C887 1.411 . S
C889 C890 1.504 1_545 S
C890 C889 1.504 1_565 S
C890 C891 1.397 . S
C890 C895 1.363 . S
C891 H862 0.950 1_565 S
C891 C890 1.397 . S
C891 C892 1.334 . S
C892 H863 0.950 . S
C892 C891 1.334 . S
C892 C893 1.287 . S
C893 C892 1.287 . S
C893 C894 1.524 . S
C893 H896 0.999 . S
C894 H864 0.950 . S
C894 C893 1.524 . S
C894 C895 1.415 . S
C895 H865 0.950 . S
C895 C890 1.363 . S
C895 C894 1.415 . S
H896 C893 0.999 . S
H897 C878 0.913 . S
H898 C916 0.951 . S
H899 C918 0.951 . S
H900 C920 0.950 . S
H901 C921 0.950 . S
H902 C923 0.950 . S
H903 C926 0.950 . S
H904 C927 0.950 . S
H905 C929 0.950 . S
H906 C930 0.950 . S
H907 C931 0.951 . S
H908 C933 0.951 . S
H909 C935 0.950 . S
H910 C936 0.950 . S
H911 C938 0.950 . S
H912 C941 0.950 . S
H913 C942 0.950 . S
H914 C944 0.950 . S
H915 C945 0.950 . S
C916 H898 0.951 . S
C916 C917 1.366 . S
C916 C918 1.388 . S
C917 C916 1.366 . S
C917 C921 1.385 . S
C918 H899 0.951 . S
C918 C916 1.388 . S
C918 C919 1.366 . S
C919 C918 1.366 . S
C919 C920 1.414 . S
C919 C922 1.499 . S
C920 H900 0.950 . S
C920 C919 1.414 . S
C920 C921 1.374 . S
C921 H901 0.950 . S
C921 C917 1.385 . S
C921 C920 1.374 . S
C922 C919 1.499 . S
C922 C923 1.373 . S
C922 C924 1.389 . S
C923 H902 0.950 . S
C923 C922 1.373 . S
C923 C939 1.377 . S
C924 C922 1.389 . S
C924 C925 1.524 . S
C924 C938 1.377 . S
C925 C924 1.524 . S
C925 C926 1.397 . S
C925 C930 1.363 . S
C926 H903 0.950 . S
C926 C925 1.397 . S
C926 C927 1.334 . S
C927 H904 0.950 . S
C927 C926 1.334 . S
C927 C928 1.287 . S
C928 C927 1.287 . S
C928 C929 1.524 . S
C928 H947 0.913 . S
C929 H905 0.950 . S
C929 C928 1.524 . S
C929 C930 1.415 . S
C930 H906 0.950 . S
C930 C925 1.363 . S
C930 C929 1.415 . S
C931 H907 0.951 . S
C931 C932 1.366 . S
C931 C933 1.388 . S
C932 C931 1.366 . S
C932 C936 1.385 . S
C933 H908 0.951 . S
C933 C931 1.388 . S
C933 C934 1.366 . S
C934 C933 1.366 . S
C934 C935 1.414 . S
C934 C937 1.499 . S
C935 H909 0.950 . S
C935 C934 1.414 . S
C935 C936 1.374 . S
C936 H910 0.950 . S
C936 C932 1.385 . S
C936 C935 1.374 . S
C937 C934 1.499 . S
C937 C938 1.373 . S
C937 C939 1.389 . S
C938 H911 0.950 . S
C938 C924 1.377 . S
C938 C937 1.373 . S
C939 C923 1.377 . S
C939 C937 1.389 . S
C939 C940 1.524 . S
C940 C939 1.524 . S
C940 C941 1.397 . S
C940 C945 1.363 . S
C941 H912 0.950 . S
C941 C940 1.397 . S
C941 C942 1.334 . S
C942 H913 0.950 . S
C942 C941 1.334 . S
C942 C943 1.287 . S
C943 C942 1.287 . S
C943 C944 1.524 . S
C943 H946 0.999 . S
C944 H914 0.950 . S
C944 C943 1.524 . S
C944 C945 1.415 . S
C945 H915 0.950 . S
C945 C940 1.363 . S
C945 C944 1.415 . S
H946 C943 0.999 . S
H947 C928 0.913 . S
H948 C966 0.951 . S
H949 C968 0.951 . S
H950 C970 0.950 . S
H951 C971 0.950 . S
H952 C973 0.950 . S
H953 C976 0.950 . S
H954 C977 0.950 . S
H955 C979 0.950 . S
H956 C980 0.950 . S
H957 C981 0.951 . S
H958 C983 0.951 . S
H959 C985 0.950 1_565 S
H960 C986 0.950 1_565 S
H961 C988 0.950 . S
H962 C991 0.950 1_565 S
H963 C992 0.950 1_565 S
H964 C994 0.950 . S
H965 C995 0.950 . S
C966 H948 0.951 . S
C966 C967 1.366 1_565 S
C966 C968 1.388 . S
C967 C966 1.366 1_545 S
C967 C971 1.385 . S
C968 H949 0.951 . S
C968 C966 1.388 . S
C968 C969 1.366 1_565 S
C969 C968 1.366 1_545 S
C969 C970 1.414 . S
C969 C972 1.499 . S
C970 H950 0.950 . S
C970 C969 1.414 . S
C970 C971 1.374 . S
C971 H951 0.950 . S
C971 C967 1.385 . S
C971 C970 1.374 . S
C972 C969 1.499 . S
C972 C973 1.373 . S
C972 C974 1.389 . S
C973 H952 0.950 . S
C973 C972 1.373 . S
C973 C989 1.377 . S
C974 C972 1.389 . S
C974 C975 1.524 . S
C974 C988 1.377 . S
C975 C974 1.524 . S
C975 C976 1.397 . S
C975 C980 1.363 1_545 S
C976 H953 0.950 . S
C976 C975 1.397 . S
C976 C977 1.334 . S
C977 H954 0.950 . S
C977 C976 1.334 . S
C977 C978 1.287 . S
C978 C977 1.287 . S
C978 C979 1.524 1_545 S
C978 H997 0.913 . S
C979 H955 0.950 . S
C979 C978 1.524 1_565 S
C979 C980 1.415 . S
C980 H956 0.950 . S
C980 C975 1.363 1_565 S
C980 C979 1.415 . S
C981 H957 0.951 . S
C981 C982 1.366 . S
C981 C983 1.388 . S
C982 C981 1.366 . S
C982 C986 1.385 . S
C983 H958 0.951 . S
C983 C981 1.388 . S
C983 C984 1.366 . S
C984 C983 1.366 . S
C984 C985 1.414 . S
C984 C987 1.499 . S
C985 H959 0.950 1_545 S
C985 C984 1.414 . S
C985 C986 1.374 . S
C986 H960 0.950 1_545 S
C986 C982 1.385 . S
C986 C985 1.374 . S
C987 C984 1.499 . S
C987 C988 1.373 . S
C987 C989 1.389 . S
C988 H961 0.950 . S
C988 C974 1.377 . S
C988 C987 1.373 . S
C989 C973 1.377 . S
C989 C987 1.389 . S
C989 C990 1.524 . S
C990 C989 1.524 . S
C990 C991 1.397 . S
C990 C995 1.363 . S
C991 H962 0.950 1_545 S
C991 C990 1.397 . S
C991 C992 1.334 . S
C992 H963 0.950 1_545 S
C992 C991 1.334 . S
C992 C993 1.287 . S
C993 C992 1.287 . S
C993 C994 1.524 . S
C993 H996 0.999 . S
C994 H964 0.950 . S
C994 C993 1.524 . S
C994 C995 1.415 . S
C995 H965 0.950 . S
C995 C990 1.363 . S
C995 C994 1.415 . S
H996 C993 0.999 . S
H997 C978 0.913 . S
H998 C1016 0.951 . S
H999 C1018 0.951 . S
H1000 C1020 0.950 . S
H1001 C1021 0.950 . S
H1002 C1023 0.950 . S
H1003 C1026 0.950 . S
H1004 C1027 0.950 . S
H1005 C1029 0.950 . S
H1006 C1030 0.950 . S
H1007 C1031 0.951 . S
H1008 C1033 0.951 . S
H1009 C1035 0.950 . S
H1010 C1036 0.950 . S
H1011 C1038 0.950 . S
H1012 C1041 0.950 . S
H1013 C1042 0.950 . S
H1014 C1044 0.950 . S
H1015 C1045 0.950 . S
C1016 H998 0.951 . S
C1016 C1017 1.366 . S
C1016 C1018 1.388 . S
C1017 C1016 1.366 . S
C1017 C1021 1.385 . S
C1018 H999 0.951 . S
C1018 C1016 1.388 . S
C1018 C1019 1.366 . S
C1019 C1018 1.366 . S
C1019 C1020 1.414 . S
C1019 C1022 1.499 . S
C1020 H1000 0.950 . S
C1020 C1019 1.414 . S
C1020 C1021 1.374 . S
C1021 H1001 0.950 . S
C1021 C1017 1.385 . S
C1021 C1020 1.374 . S
C1022 C1019 1.499 . S
C1022 C1023 1.373 . S
C1022 C1024 1.389 . S
C1023 H1002 0.950 . S
C1023 C1022 1.373 . S
C1023 C1039 1.377 . S
C1024 C1022 1.389 . S
C1024 C1025 1.524 . S
C1024 C1038 1.377 . S
C1025 C1024 1.524 . S
C1025 C1026 1.397 . S
C1025 C1030 1.363 . S
C1026 H1003 0.950 . S
C1026 C1025 1.397 . S
C1026 C1027 1.334 . S
C1027 H1004 0.950 . S
C1027 C1026 1.334 . S
C1027 C1028 1.287 . S
C1028 C1027 1.287 . S
C1028 C1029 1.524 . S
C1028 H1047 0.913 . S
C1029 H1005 0.950 . S
C1029 C1028 1.524 . S
C1029 C1030 1.415 . S
C1030 H1006 0.950 . S
C1030 C1025 1.363 . S
C1030 C1029 1.415 . S
C1031 H1007 0.951 . S
C1031 C1032 1.366 . S
C1031 C1033 1.388 . S
C1032 C1031 1.366 . S
C1032 C1036 1.385 . S
C1033 H1008 0.951 . S
C1033 C1031 1.388 . S
C1033 C1034 1.366 . S
C1034 C1033 1.366 . S
C1034 C1035 1.414 . S
C1034 C1037 1.499 . S
C1035 H1009 0.950 . S
C1035 C1034 1.414 . S
C1035 C1036 1.374 . S
C1036 H1010 0.950 . S
C1036 C1032 1.385 . S
C1036 C1035 1.374 . S
C1037 C1034 1.499 . S
C1037 C1038 1.373 1_554 S
C1037 C1039 1.389 1_554 S
C1038 H1011 0.950 . S
C1038 C1024 1.377 . S
C1038 C1037 1.373 1_556 S
C1039 C1023 1.377 . S
C1039 C1037 1.389 1_556 S
C1039 C1040 1.524 1_556 S
C1040 C1039 1.524 1_554 S
C1040 C1041 1.397 . S
C1040 C1045 1.363 . S
C1041 H1012 0.950 . S
C1041 C1040 1.397 . S
C1041 C1042 1.334 . S
C1042 H1013 0.950 . S
C1042 C1041 1.334 . S
C1042 C1043 1.287 . S
C1043 C1042 1.287 . S
C1043 C1044 1.524 . S
C1043 H1046 0.999 . S
C1044 H1014 0.950 . S
C1044 C1043 1.524 . S
C1044 C1045 1.415 . S
C1045 H1015 0.950 . S
C1045 C1040 1.363 . S
C1045 C1044 1.415 . S
H1046 C1043 0.999 . S
H1047 C1028 0.913 . S
H1048 C1066 0.951 . S
H1049 C1068 0.951 . S
H1050 C1070 0.950 . S
H1051 C1071 0.950 . S
H1052 C1073 0.950 . S
H1053 C1076 0.950 1_655 S
H1054 C1077 0.950 1_655 S
H1055 C1079 0.950 . S
H1056 C1080 0.950 . S
H1057 C1081 0.951 . S
H1058 C1083 0.951 . S
H1059 C1085 0.950 . S
H1060 C1086 0.950 . S
H1061 C1088 0.950 . S
H1062 C1091 0.950 . S
H1063 C1092 0.950 . S
H1064 C1094 0.950 . S
H1065 C1095 0.952 . S
C1066 H1048 0.951 . S
C1066 C1067 1.366 . S
C1066 C1068 1.388 . S
C1067 C1066 1.366 . S
C1067 C1071 1.385 1_455 S
C1068 H1049 0.951 . S
C1068 C1066 1.388 . S
C1068 C1069 1.366 . S
C1069 C1068 1.366 . S
C1069 C1070 1.414 1_455 S
C1069 C1072 1.499 . S
C1070 H1050 0.950 . S
C1070 C1069 1.414 1_655 S
C1070 C1071 1.374 . S
C1071 H1051 0.950 . S
C1071 C1067 1.385 1_655 S
C1071 C1070 1.374 . S
C1072 C1069 1.499 . S
C1072 C1073 1.373 . S
C1072 C1074 1.389 . S
C1073 H1052 0.950 . S
C1073 C1072 1.373 . S
C1073 C1089 1.377 . S
C1074 C1072 1.389 . S
C1074 C1075 1.524 . S
C1074 C1088 1.377 . S
C1075 C1074 1.524 . S
C1075 C1076 1.397 . S
C1075 C1080 1.363 . S
C1076 H1053 0.950 1_455 S
C1076 C1075 1.397 . S
C1076 C1077 1.334 . S
C1077 H1054 0.950 1_455 S
C1077 C1076 1.334 . S
C1077 C1078 1.287 . S
C1078 C1077 1.287 . S
C1078 C1079 1.524 . S
C1078 H1097 0.913 . S
C1079 H1055 0.950 . S
C1079 C1078 1.524 . S
C1079 C1080 1.415 . S
C1080 H1056 0.950 . S
C1080 C1075 1.363 . S
C1080 C1079 1.415 . S
C1081 H1057 0.951 . S
C1081 C1082 1.366 . S
C1081 C1083 1.388 . S
C1082 C1081 1.366 . S
C1082 C1086 1.385 . S
C1083 H1058 0.951 . S
C1083 C1081 1.388 . S
C1083 C1084 1.366 . S
C1084 C1083 1.366 . S
C1084 C1085 1.414 . S
C1084 C1087 1.499 . S
C1085 H1059 0.950 . S
C1085 C1084 1.414 . S
C1085 C1086 1.374 . S
C1086 H1060 0.950 . S
C1086 C1082 1.385 . S
C1086 C1085 1.374 . S
C1087 C1084 1.499 . S
C1087 C1088 1.373 . S
C1087 C1089 1.389 . S
C1088 H1061 0.950 . S
C1088 C1074 1.377 . S
C1088 C1087 1.373 . S
C1089 C1073 1.377 . S
C1089 C1087 1.389 . S
C1089 C1090 1.524 . S
C1090 C1089 1.524 . S
C1090 C1091 1.397 . S
C1090 C1095 1.359 1_455 S
C1091 H1062 0.950 . S
C1091 C1090 1.397 . S
C1091 C1092 1.334 . S
C1092 H1063 0.950 . S
C1092 C1091 1.334 . S
C1092 C1093 1.287 . S
C1093 C1092 1.287 . S
C1093 C1094 1.524 1_455 S
C1093 H1096 0.999 . S
C1094 H1064 0.950 . S
C1094 C1093 1.524 1_655 S
C1094 C1095 1.417 . S
C1095 H1065 0.952 . S
C1095 C1090 1.359 1_655 S
C1095 C1094 1.417 . S
H1096 C1093 0.999 . S
H1097 C1078 0.913 . S
C217 C12 2.981 . S
C232 C189 2.796 . S
C267 C52 2.822 . S
C282 C167 2.790 1_655 S
C317 C111 2.870 . S
C332 C180 2.833 1_565 S
C367 C31 3.002 . S
C382 C193 2.959 . S
C432 C163 2.968 . S
C417 C71 3.171 . S
C482 C176 2.913 . S
C467 C92 3.115 . S
C517 C48 0.239 . S
C532 C141 0.254 . S
C567 C109 0.284 . S
C582 C154 0.194 . S
C617 C29 0.417 . S
C632 C124 0.483 . S
C682 C137 0.478 . S
C667 C69 0.379 . S
C732 C150 0.498 . S
C717 C88 0.346 . S
C767 C8 0.192 . S
C782 C128 0.220 . S
C832 C155 1.293 . S
C817 C17 1.272 . S
C867 C57 1.310 . S
C882 C129 1.324 . S
C917 C97 1.252 . S
C932 C142 1.290 . S
C982 C181 1.787 . S
C967 C42 1.699 . S
C1032 C194 1.740 . S
C1017 C82 1.720 . S
C1067 C2 1.706 . S
C1082 C168 1.774 . S
