# Generated by pormake.
# Topology pto, (3,4)-cn, num edge types: 1
# Building blocks:
#     Node 0, Type 0, BuildingBlock: BETDIP_clean_linker_0, # of connection points: 3
#     Node 1, Type 0, BuildingBlock: BETDIP_clean_linker_0, # of connection points: 3
#     Node 2, Type 0, BuildingBlock: BETDIP_clean_linker_0, # of connection points: 3
#     Node 3, Type 0, BuildingBlock: BETDIP_clean_linker_0, # of connection points: 3
#     Node 4, Type 0, BuildingBlock: BETDIP_clean_linker_0, # of connection points: 3
#     Node 5, Type 0, BuildingBlock: BETDIP_clean_linker_0, # of connection points: 3
#     Node 6, Type 0, BuildingBlock: BETDIP_clean_linker_0, # of connection points: 3
#     Node 7, Type 0, BuildingBlock: BETDIP_clean_linker_0, # of connection points: 3
#     Node 8, Type 1, BuildingBlock: NAWXER_clean_sbu_0, # of connection points: 4
#     Node 9, Type 1, BuildingBlock: NAWXER_clean_sbu_0, # of connection points: 4
#     Node 10, Type 1, BuildingBlock: NAWXER_clean_sbu_0, # of connection points: 4
#     Node 11, Type 1, BuildingBlock: NAWXER_clean_sbu_0, # of connection points: 4
#     Node 12, Type 1, BuildingBlock: NAWXER_clean_sbu_0, # of connection points: 4
#     Node 13, Type 1, BuildingBlock: NAWXER_clean_sbu_0, # of connection points: 4
#     Edge 14, Type (0, 1), BuildingBlock: AJUNOK_clean_linker_0, # of connection points: 2
#     Edge 15, Type (0, 1), BuildingBlock: AJUNOK_clean_linker_0, # of connection points: 2
#     Edge 16, Type (0, 1), BuildingBlock: AJUNOK_clean_linker_0, # of connection points: 2
#     Edge 17, Type (0, 1), BuildingBlock: AJUNOK_clean_linker_0, # of connection points: 2
#     Edge 18, Type (0, 1), BuildingBlock: AJUNOK_clean_linker_0, # of connection points: 2
#     Edge 19, Type (0, 1), BuildingBlock: AJUNOK_clean_linker_0, # of connection points: 2
#     Edge 20, Type (0, 1), BuildingBlock: AJUNOK_clean_linker_0, # of connection points: 2
#     Edge 21, Type (0, 1), BuildingBlock: AJUNOK_clean_linker_0, # of connection points: 2
#     Edge 22, Type (0, 1), BuildingBlock: AJUNOK_clean_linker_0, # of connection points: 2
#     Edge 23, Type (0, 1), BuildingBlock: AJUNOK_clean_linker_0, # of connection points: 2
#     Edge 24, Type (0, 1), BuildingBlock: AJUNOK_clean_linker_0, # of connection points: 2
#     Edge 25, Type (0, 1), BuildingBlock: AJUNOK_clean_linker_0, # of connection points: 2
#     Edge 26, Type (0, 1), BuildingBlock: AJUNOK_clean_linker_0, # of connection points: 2
#     Edge 27, Type (0, 1), BuildingBlock: AJUNOK_clean_linker_0, # of connection points: 2
#     Edge 28, Type (0, 1), BuildingBlock: AJUNOK_clean_linker_0, # of connection points: 2
#     Edge 29, Type (0, 1), BuildingBlock: AJUNOK_clean_linker_0, # of connection points: 2
#     Edge 30, Type (0, 1), BuildingBlock: AJUNOK_clean_linker_0, # of connection points: 2
#     Edge 31, Type (0, 1), BuildingBlock: AJUNOK_clean_linker_0, # of connection points: 2
#     Edge 32, Type (0, 1), BuildingBlock: AJUNOK_clean_linker_0, # of connection points: 2
#     Edge 33, Type (0, 1), BuildingBlock: AJUNOK_clean_linker_0, # of connection points: 2
#     Edge 34, Type (0, 1), BuildingBlock: AJUNOK_clean_linker_0, # of connection points: 2
#     Edge 35, Type (0, 1), BuildingBlock: AJUNOK_clean_linker_0, # of connection points: 2
#     Edge 36, Type (0, 1), BuildingBlock: AJUNOK_clean_linker_0, # of connection points: 2
#     Edge 37, Type (0, 1), BuildingBlock: AJUNOK_clean_linker_0, # of connection points: 2
# Relax obj value: 0.017
# Max RMSD: 0.142
# Mean RMSD: 0.061
data_MOF--net-pto--node1-NAWXER_clean_sbu_0--node2-BETDIP_clean_linker_0--edge1-AJUNOK_clean_linker_0
_symmetry_space_group_name_H-M    P1
_symmetry_Int_Tables_number       1
_symmetry_cell_setting            triclinic
loop_
_symmetry_equiv_pos_as_xyz
'x, y, z'
_cell_length_a     29.970827
_cell_length_b     29.065901
_cell_length_c     27.656519
_cell_angle_alpha  100.74684
_cell_angle_beta   101.37437
_cell_angle_gamma 102.59416
loop_
_atom_site_label
_atom_site_type_symbol
_atom_site_fract_x
_atom_site_fract_y
_atom_site_fract_z
_atom_type_partial_charge
H0 H 0.18849 0.35528 0.28062 0.0
H1 H 0.32829 0.33867 0.31056 0.0
H2 H 0.29115 0.43258 0.21455 0.0
H3 H 0.27759 0.25447 0.27884 0.0
C4 C 0.25795 0.25878 0.30776 0.0
C5 C 0.22374 0.36401 0.27465 0.0
C6 C 0.23679 0.39904 0.24751 0.0
C7 C 0.25598 0.34009 0.29442 0.0
C8 C 0.30261 0.35371 0.29018 0.0
C9 C 0.31571 0.38509 0.25927 0.0
C10 C 0.28227 0.4081 0.23838 0.0
N11 N 0.24094 0.30084 0.31657 0.0
H12 H 0.18213 0.75138 0.6701 0.0
H13 H 0.33301 0.80352 0.69496 0.0
H14 H 0.27499 0.69515 0.76789 0.0
H15 H 0.315 0.83293 0.6279 0.0
C16 C 0.2812 0.84106 0.62666 0.0
C17 C 0.21755 0.74969 0.68646 0.0
C18 C 0.22442 0.71932 0.71943 0.0
C19 C 0.25624 0.77987 0.67652 0.0
C20 C 0.30244 0.779 0.69992 0.0
C21 C 0.30944 0.74752 0.73206 0.0
C22 C 0.2701 0.71782 0.74129 0.0
N23 N 0.24723 0.81311 0.64633 0.0
H24 H 0.74963 0.71688 0.19674 0.0
H25 H 0.81455 0.7835 0.35475 0.0
H26 H 0.68956 0.81692 0.28029 0.0
H27 H 0.87641 0.75861 0.33786 0.0
C28 C 0.86596 0.73072 0.30268 0.0
C29 C 0.74932 0.74008 0.23219 0.0
C30 C 0.71433 0.76489 0.23367 0.0
C31 C 0.78594 0.74695 0.27498 0.0
C32 C 0.78699 0.77846 0.32097 0.0
C33 C 0.75167 0.80336 0.32358 0.0
C34 C 0.71579 0.79655 0.27946 0.0
N35 N 0.82097 0.72179 0.26905 0.0
H36 H 0.67107 0.2323 0.80303 0.0
H37 H 0.75119 0.38264 0.85655 0.0
H38 H 0.79617 0.28426 0.7535 0.0
H39 H 0.68435 0.39541 0.87149 0.0
C40 C 0.66914 0.36401 0.88452 0.0
C41 C 0.70029 0.26173 0.80295 0.0
C42 C 0.73311 0.25247 0.77469 0.0
C43 C 0.70587 0.30895 0.83216 0.0
C44 C 0.74496 0.34653 0.83314 0.0
C45 C 0.77691 0.33778 0.80415 0.0
C46 C 0.77082 0.29095 0.77524 0.0
N47 N 0.67333 0.31718 0.86207 0.0
H48 H 0.79552 0.80191 0.8978 0.0
H49 H 0.88486 0.85233 0.8043 0.0
H50 H 0.76963 0.91442 0.82354 0.0
H51 H 0.94029 0.82999 0.87356 0.0
C52 C 0.91696 0.79411 0.86803 0.0
C53 C 0.80531 0.82659 0.8744 0.0
C54 C 0.77867 0.85948 0.86444 0.0
C55 C 0.84426 0.82467 0.85419 0.0
C56 C 0.8562 0.85524 0.8222 0.0
C57 C 0.82948 0.88799 0.81136 0.0
C58 C 0.79129 0.8905 0.83331 0.0
N59 N 0.86793 0.78859 0.86316 0.0
H60 H 0.73357 0.25943 0.31919 0.0
H61 H 0.88198 0.32515 0.38427 0.0
H62 H 0.80359 0.38575 0.27678 0.0
H63 H 0.88138 0.26037 0.4152 0.0
C64 C 0.84553 0.24114 0.41339 0.0
C65 C 0.76539 0.28705 0.32184 0.0
C66 C 0.76314 0.32296 0.29461 0.0
C67 C 0.80789 0.28695 0.35381 0.0
C68 C 0.84911 0.32371 0.35874 0.0
C69 C 0.84778 0.36007 0.33161 0.0
C70 C 0.80473 0.35887 0.29906 0.0
N71 N 0.80661 0.25029 0.38158 0.0
H72 H 0.18524 0.35763 0.79402 0.0
H73 H 0.29082 0.2922 0.85516 0.0
H74 H 0.24194 0.38952 0.9566 0.0
H75 H 0.31851 0.32392 0.78704 0.0
C76 C 0.28612 0.30218 0.75949 0.0
C77 C 0.20803 0.35251 0.8271 0.0
C78 C 0.20897 0.37737 0.87635 0.0
C79 C 0.23857 0.32347 0.81963 0.0
C80 C 0.26722 0.31489 0.86144 0.0
C81 C 0.26782 0.33724 0.91103 0.0
C82 C 0.23927 0.36954 0.9185 0.0
N83 N 0.24206 0.30494 0.76981 0.0
H84 H 0.40307 0.89644 0.29944 0.0
H85 H 0.31737 0.74948 0.23971 0.0
H86 H 0.29837 0.83876 0.37339 0.0
H87 H 0.33583 0.76562 0.16403 0.0
C88 C 0.36837 0.79448 0.17476 0.0
C89 C 0.37622 0.86607 0.30242 0.0
C90 C 0.35272 0.87207 0.34089 0.0
C91 C 0.36323 0.8227 0.26539 0.0
C92 C 0.3273 0.78347 0.26811 0.0
C93 C 0.30473 0.78828 0.30849 0.0
C94 C 0.31757 0.83313 0.34438 0.0
N95 N 0.38693 0.82146 0.22582 0.0
C96 C 1.01271 0.50785 0.33054 0.0
C97 C 0.14098 0.64072 0.31776 0.0
O98 O 0.04671 0.53479 0.36696 0.0
Zn99 Zn 0.07747 0.57578 0.32775 0.0
O100 O 1.00973 0.51412 0.28556 0.0
Zn101 Zn 0.04725 0.56028 0.24698 0.0
O102 O 0.0685 0.51471 0.20074 0.0
O103 O 0.10514 0.5281 0.28178 0.0
O104 O 0.11062 0.61872 0.27563 0.0
O105 O 0.13485 0.62846 0.35839 0.0
O106 O 0.02659 0.6136 0.30613 0.0
O107 O 1.00005 0.59305 0.22277 0.0
C108 C 0.09996 0.50806 0.23505 0.0
C109 C 0.99932 0.61723 0.26591 0.0
C110 C 0.94453 0.48441 0.80773 0.0
C111 C 0.07675 0.59798 0.78206 0.0
O112 O 0.97177 0.51025 0.85049 0.0
Zn113 Zn 0.03781 0.56596 0.87519 0.0
O114 O 0.95587 0.4898 0.76696 0.0
Zn115 Zn 1.01246 0.5403 0.79571 0.0
O116 O 0.0627 0.50587 0.83022 0.0
O117 O 0.08101 0.53611 0.91305 0.0
O118 O 0.04313 0.5666 0.74883 0.0
O119 O 0.07903 0.60074 0.82942 0.0
O120 O 0.02171 0.62171 0.91099 0.0
O121 O 0.9886 0.60074 0.82854 0.0
C122 C 0.08584 0.50733 0.87499 0.0
C123 C 0.99542 0.62875 0.87249 0.0
C124 C 0.26191 0.01052 0.54867 0.0
C125 C 0.25601 0.12801 0.44237 0.0
O126 O 0.2246 0.0137 0.51958 0.0
Zn127 Zn 0.25446 0.07098 0.49773 0.0
O128 O 0.30071 0.0427 0.55554 0.0
Zn129 Zn 0.32891 0.10452 0.5301 0.0
O130 O 0.34763 0.15745 0.58963 0.0
O131 O 0.27043 0.12873 0.56284 0.0
O132 O 0.29676 0.13351 0.47132 0.0
O133 O 0.22048 0.09642 0.44539 0.0
O134 O 0.30201 0.042 0.46057 0.0
O135 O 0.37602 0.0809 0.50197 0.0
C136 C 0.30663 0.15913 0.59425 0.0
C137 C 0.34649 0.04801 0.46587 0.0
C138 C 0.58723 0.76172 0.04334 0.0
C139 C 0.47574 0.76017 0.88605 0.0
O140 O 0.56418 0.72386 0.00854 0.0
Zn141 Zn 0.53175 0.75722 0.9631 0.0
O142 O 0.58275 0.80331 0.03767 0.0
Zn143 Zn 0.54586 0.83561 0.98588 0.0
O144 O 0.50826 0.86291 0.02786 0.0
O145 O 0.48817 0.78278 0.00781 0.0
O146 O 0.49554 0.8024 0.91548 0.0
O147 O 0.48648 0.72328 0.8987 0.0
O148 O 0.58857 0.7969 0.93988 0.0
O149 O 0.59779 0.87554 0.96641 0.0
C150 C 0.4825 0.82282 0.03067 0.0
C151 C 0.61076 0.84072 0.94296 0.0
C152 C 0.82925 0.99162 0.65282 0.0
C153 C 0.82279 0.09691 0.53468 0.0
O154 O 0.7869 0.98678 0.62801 0.0
Zn155 Zn 0.75208 0.0167 0.57026 0.0
O156 O 0.86359 0.02046 0.64425 0.0
Zn157 Zn 0.8266 0.04268 0.59242 0.0
O158 O 0.7891 0.08258 0.63627 0.0
O159 O 0.71274 0.04928 0.60544 0.0
O160 O 0.85907 0.09171 0.56351 0.0
O161 O 0.7819 0.07113 0.53385 0.0
O162 O 0.7226 0.96032 0.5139 0.0
O163 O 0.80003 0.98 0.5287 0.0
C164 C 0.74638 0.08176 0.63765 0.0
C165 C 0.7597 0.95219 0.50254 0.0
C166 C 0.58422 0.32684 0.16646 0.0
C167 C 0.43689 0.32554 0.04642 0.0
O168 O 0.55257 0.28847 0.14062 0.0
Zn169 Zn 0.50995 0.31964 0.10272 0.0
O170 O 0.5792 0.36825 0.16069 0.0
Zn171 Zn 0.53237 0.40008 0.11894 0.0
O172 O 0.50838 0.43639 0.17259 0.0
O173 O 0.48564 0.35689 0.1598 0.0
O174 O 0.46644 0.36677 0.06722 0.0
O175 O 0.44775 0.28705 0.05464 0.0
O176 O 0.54986 0.34693 0.05534 0.0
O177 O 0.56998 0.42687 0.07416 0.0
C178 C 0.4849 0.39884 0.18309 0.0
C179 C 0.57098 0.38667 0.04687 0.0
C180 C 0.15502 0.40433 0.20965 0.0
C181 C 0.20331 0.42761 0.23168 0.0
C182 C 0.12111 0.43099 0.20545 0.0
C183 C 0.1346 0.48168 0.22314 0.0
H184 H 0.14308 0.36505 0.19833 0.0
H185 H 0.08407 0.41166 0.19207 0.0
S186 S 0.25622 0.56053 0.27848 0.0
N187 N 0.26271 0.50485 0.26717 0.0
N188 N 0.1991 0.5546 0.25883 0.0
C189 C 0.18285 0.50556 0.24139 0.0
C190 C 0.21726 0.47863 0.24565 0.0
C191 C 0.14914 0.65425 0.69927 0.0
C192 C 0.18456 0.69166 0.73491 0.0
C193 C 0.11396 0.62441 0.71476 0.0
C194 C 0.11309 0.63122 0.76638 0.0
H195 H 0.1495 0.6471 0.65949 0.0
H196 H 0.08786 0.59527 0.68613 0.0
S197 S 0.19603 0.7282 0.87342 0.0
N198 N 0.21529 0.73658 0.82296 0.0
N199 N 0.1493 0.681 0.85246 0.0
C200 C 0.14758 0.66996 0.80202 0.0
C201 C 0.18329 0.70008 0.78617 0.0
C202 C 0.94136 0.70844 0.32715 0.0
C203 C 0.89979 0.70256 0.29014 0.0
C204 C 0.9737 0.68162 0.3182 0.0
C205 C 0.96611 0.64796 0.27158 0.0
H206 H 0.94867 0.73348 0.36384 0.0
H207 H 1.00477 0.68706 0.34852 0.0
S208 S 0.86371 0.62051 0.16072 0.0
N209 N 0.8534 0.66163 0.20393 0.0
N210 N 0.91442 0.61138 0.18719 0.0
C211 C 0.92528 0.64262 0.23355 0.0
C212 C 0.89203 0.66979 0.2428 0.0
C213 C 0.8504 0.40289 0.85066 0.0
C214 C 0.81768 0.3772 0.80466 0.0
C215 C 0.89111 0.43787 0.85135 0.0
C216 C 0.9004 0.44846 0.80604 0.0
H217 H 0.84509 0.39499 0.88619 0.0
H218 H 0.91578 0.45612 0.88764 0.0
S219 S 0.8227 0.39378 0.67607 0.0
N220 N 0.79517 0.36643 0.71324 0.0
N221 N 0.8714 0.43212 0.71407 0.0
C222 C 0.86696 0.42383 0.75989 0.0
C223 C 0.82568 0.38821 0.75933 0.0
C224 C 0.22109 0.21835 0.36904 0.0
C225 C 0.25471 0.22339 0.33992 0.0
C226 C 0.21962 0.18528 0.40041 0.0
C227 C 0.25244 0.15732 0.40431 0.0
H228 H 0.19602 0.24016 0.36779 0.0
H229 H 0.19403 0.18299 0.42319 0.0
S230 S 0.34633 0.15627 0.33493 0.0
N231 N 0.31998 0.19622 0.31552 0.0
N232 N 0.31845 0.13599 0.37573 0.0
C233 C 0.28558 0.1617 0.37484 0.0
C234 C 0.28637 0.19424 0.34227 0.0
C235 C 0.38629 0.79502 0.79207 0.0
C236 C 0.35708 0.75 0.76241 0.0
C237 C 0.42601 0.79776 0.83002 0.0
C238 C 0.43809 0.75558 0.84008 0.0
H239 H 0.37678 0.82829 0.78827 0.0
H240 H 0.44601 0.83339 0.85323 0.0
S241 S 0.3773 0.62918 0.76676 0.0
N242 N 0.34619 0.66262 0.74065 0.0
N243 N 0.42058 0.66762 0.81258 0.0
C244 C 0.41118 0.71048 0.808 0.0
C245 C 0.37076 0.70776 0.76909 0.0
C246 C 0.79577 0.87375 0.39795 0.0
C247 C 0.75343 0.83864 0.37128 0.0
C248 C 0.7975 0.90963 0.44062 0.0
C249 C 0.75695 0.91211 0.45854 0.0
H250 H 0.82764 0.87441 0.38491 0.0
H251 H 0.83086 0.93628 0.45903 0.0
S252 S 0.6382 0.82566 0.40514 0.0
N253 N 0.67071 0.80634 0.36822 0.0
N254 N 0.67367 0.87397 0.4477 0.0
C255 C 0.71463 0.87631 0.43303 0.0
C256 C 0.71296 0.83964 0.38968 0.0
C257 C 0.62111 0.33097 0.94108 0.0
C258 C 0.64395 0.37102 0.92549 0.0
C259 C 0.59783 0.33697 0.98004 0.0
C260 C 0.59633 0.38333 0.00553 0.0
H261 H 0.6211 0.2945 0.92317 0.0
H262 H 0.58097 0.30451 0.99025 0.0
S263 S 0.65112 0.50025 0.97899 0.0
N264 N 0.66395 0.45886 0.93828 0.0
N265 N 0.62018 0.47016 0.0119 0.0
C266 C 0.61912 0.42383 0.99032 0.0
C267 C 0.64284 0.41764 0.95026 0.0
C268 C 0.31255 0.91629 0.60109 0.0
C269 C 0.27328 0.8835 0.60694 0.0
C270 C 0.30808 0.95734 0.58326 0.0
C271 C 0.2639 0.96731 0.56967 0.0
H272 H 0.34735 0.91033 0.61067 0.0
H273 H 0.3398 0.98102 0.57927 0.0
S274 S 0.14942 0.89211 0.57685 0.0
N275 N 0.18827 0.86322 0.59755 0.0
N276 N 0.17974 0.9404 0.56286 0.0
C277 C 0.22401 0.93458 0.57486 0.0
C278 C 0.22871 0.89275 0.59386 0.0
C279 C 0.67371 0.80487 0.17289 0.0
C280 C 0.67958 0.76182 0.18595 0.0
C281 C 0.64402 0.80392 0.12675 0.0
C282 C 0.61868 0.75982 0.09135 0.0
H283 H 0.69313 0.83983 0.19804 0.0
H284 H 0.64135 0.83848 0.11886 0.0
S285 S 0.62033 0.6365 0.10839 0.0
N286 N 0.65665 0.67353 0.1608 0.0
N287 N 0.60076 0.67168 0.07344 0.0
C288 C 0.62381 0.71628 0.10409 0.0
C289 C 0.65426 0.7173 0.15144 0.0
C290 C 0.77072 0.18537 0.75337 0.0
C291 C 0.73051 0.20316 0.74511 0.0
C292 C 0.7743 0.14474 0.71964 0.0
C293 C 0.73772 0.11985 0.67612 0.0
H294 H 0.80072 0.20449 0.78506 0.0
H295 H 0.80681 0.13376 0.72695 0.0
S296 S 0.62314 0.14926 0.63947 0.0
N297 N 0.65203 0.19106 0.69214 0.0
N298 N 0.65831 0.114 0.62871 0.0
C299 C 0.69597 0.13531 0.66908 0.0
C300 C 0.69246 0.1771 0.70358 0.0
C301 C 0.38733 0.43531 0.23853 0.0
C302 C 0.36287 0.39098 0.24646 0.0
C303 C 0.42939 0.43961 0.22195 0.0
C304 C 0.44928 0.40008 0.21387 0.0
H305 H 0.37327 0.46667 0.24377 0.0
H306 H 0.44498 0.47327 0.21302 0.0
S307 S 0.4021 0.27706 0.23291 0.0
N308 N 0.3629 0.30668 0.24442 0.0
N309 N 0.44413 0.31683 0.22079 0.0
C310 C 0.42725 0.35689 0.22567 0.0
C311 C 0.38353 0.35172 0.23983 0.0
C312 C 0.90913 0.70459 0.84879 0.0
C313 C 0.93692 0.75221 0.87226 0.0
C314 C 0.92806 0.66463 0.85025 0.0
C315 C 0.97496 0.67072 0.87657 0.0
H316 H 0.87291 0.69817 0.82779 0.0
H317 H 0.90597 0.62869 0.83022 0.0
S318 S 0.06203 0.78765 0.94515 0.0
N319 N 1.01362 0.80318 0.9226 0.0
N320 N 0.04865 0.7278 0.92697 0.0
C321 C 1.00273 0.71795 0.90134 0.0
C322 C 0.98385 0.75878 0.89869 0.0
C323 C 0.93387 0.38738 0.33256 0.0
C324 C 0.89137 0.39918 0.33693 0.0
C325 C 0.97425 0.42322 0.33332 0.0
C326 C 0.97373 0.47215 0.33928 0.0
H327 H 0.93539 0.3499 0.32646 0.0
H328 H 1.00551 0.41237 0.32742 0.0
S329 S 0.87318 0.52301 0.35591 0.0
N330 N 0.8527 0.46424 0.35055 0.0
N331 N 0.92833 0.53105 0.35132 0.0
C332 C 0.93223 0.48473 0.34536 0.0
C333 C 0.89114 0.44842 0.34444 0.0
C334 C 0.17851 0.44381 0.847 0.0
C335 C 0.18086 0.41395 0.88172 0.0
C336 C 0.14828 0.4743 0.84602 0.0
C337 C 0.12002 0.47762 0.88071 0.0
H338 H 0.19963 0.44303 0.81942 0.0
H339 H 0.14685 0.49535 0.81753 0.0
S340 S 0.11479 0.41054 0.98192 0.0
N341 N 0.153 0.39129 0.95312 0.0
N342 N 0.0978 0.45083 0.95275 0.0
C343 C 0.12367 0.45032 0.91758 0.0
C344 C 0.1538 0.41811 0.91786 0.0
C345 C 0.22786 0.72508 0.2683 0.0
C346 C 0.2651 0.7485 0.31145 0.0
C347 C 0.18808 0.69077 0.2711 0.0
C348 C 0.18366 0.67819 0.31718 0.0
H349 H 0.22883 0.73426 0.23224 0.0
H350 H 0.16037 0.67424 0.23661 0.0
S351 S 0.27323 0.72666 0.44063 0.0
N352 N 0.29642 0.75487 0.40123 0.0
N353 N 0.22155 0.69073 0.40664 0.0
C354 C 0.22118 0.70066 0.36049 0.0
C355 C 0.26181 0.73564 0.35758 0.0
C356 C 0.82871 0.89071 0.72155 0.0
C357 C 0.83731 0.91569 0.77261 0.0
C358 C 0.82794 0.91576 0.68274 0.0
C359 C 0.83695 0.96656 0.69402 0.0
H360 H 0.82012 0.8514 0.71133 0.0
H361 H 0.819 0.89523 0.6436 0.0
S362 S 0.86328 0.0488 0.82153 0.0
N363 N 0.856 0.99395 0.83236 0.0
N364 N 0.85606 0.04112 0.75948 0.0
C365 C 0.8475 0.99207 0.74496 0.0
C366 C 0.84732 0.96657 0.78432 0.0
C367 C 0.68681 0.28162 0.22808 0.0
C368 C 0.71694 0.32387 0.26308 0.0
C369 C 0.64328 0.28221 0.19787 0.0
C370 C 0.62819 0.32507 0.20163 0.0
H371 H 0.69737 0.24804 0.22331 0.0
H372 H 0.62191 0.24916 0.17059 0.0
S373 S 0.6918 0.44404 0.29192 0.0
N374 N 0.72683 0.40851 0.30268 0.0
N375 N 0.64573 0.41004 0.24641 0.0
C376 C 0.65745 0.36712 0.23785 0.0
C377 C 0.7016 0.36644 0.26835 0.0
C378 C 0.33439 0.26184 0.71163 0.0
C379 C 0.28956 0.26689 0.71541 0.0
C380 C 0.33966 0.22712 0.67224 0.0
C381 C 0.3002 0.1961 0.63511 0.0
H382 H 0.36574 0.28452 0.73982 0.0
H383 H 0.37496 0.22436 0.67128 0.0
S384 S 0.17483 0.1965 0.62655 0.0
N385 N 0.20493 0.23936 0.67778 0.0
N386 N 0.21452 0.17406 0.60369 0.0
C387 C 0.25504 0.20144 0.63797 0.0
C388 C 0.24976 0.23687 0.67813 0.0
C389 C 0.38639 0.76999 0.09099 0.0
C390 C 0.39435 0.80545 0.136 0.0
C391 C 0.41349 0.7772 0.05578 0.0
C392 C 0.44916 0.8205 0.06384 0.0
H393 H 0.36029 0.73561 0.08384 0.0
H394 H 0.40734 0.74788 0.02264 0.0
S395 S 0.47971 0.92748 0.17266 0.0
N396 N 0.43739 0.8876 0.18454 0.0
N397 N 0.48809 0.901 0.1182 0.0
C398 C 0.45543 0.85752 0.10717 0.0
C399 C 0.42816 0.85 0.14336 0.0
C400 C 0.87751 0.19411 0.47243 0.0
C401 C 0.83807 0.20378 0.44334 0.0
C402 C 0.87232 0.15946 0.50159 0.0
C403 C 0.82738 0.13297 0.50286 0.0
H404 H 0.91283 0.21357 0.47275 0.0
H405 H 0.90391 0.15352 0.52333 0.0
S406 S 0.71234 0.14494 0.43377 0.0
N407 N 0.75225 0.18415 0.41789 0.0
N408 N 0.74245 0.11929 0.47237 0.0
C409 C 0.78753 0.14232 0.47383 0.0
C410 C 0.79285 0.17763 0.44418 0.0
C411 C 0.33785 0.37381 0.98431 0.0
C412 C 0.30445 0.33205 0.95303 0.0
C413 C 0.37964 0.37065 0.01496 0.0
C414 C 0.39007 0.32556 0.01575 0.0
H415 H 0.33314 0.40947 0.98278 0.0
H416 H 0.40464 0.4044 0.03709 0.0
S417 S 0.31052 0.20476 0.94608 0.0
N418 N 0.28163 0.24371 0.92868 0.0
N419 N 0.36066 0.23783 0.98626 0.0
C420 C 0.35546 0.28322 0.98719 0.0
C421 C 0.31262 0.28647 0.95592 0.0
C422 C 0.37741 0.93168 0.42524 0.0
C423 C 0.35982 0.92105 0.37232 0.0
C424 C 0.37849 0.97646 0.45571 0.0
C425 C 0.36124 0.01114 0.43395 0.0
H426 H 0.38854 0.90456 0.44317 0.0
H427 H 0.38921 0.98235 0.49665 0.0
S428 S 0.31338 1.00105 0.29728 0.0
N429 N 0.32734 0.94939 0.29926 0.0
N430 N 0.32785 0.03275 0.35682 0.0
C431 C 0.34558 1.00161 0.38103 0.0
C432 C 0.34522 0.95662 0.35006 0.0
C433 C 0.70199 0.81244 0.87322 0.0
C434 C 0.73502 0.85748 0.88257 0.0
C435 C 0.66152 0.80818 0.89165 0.0
C436 C 0.6522 0.84877 0.92056 0.0
H437 H 0.7076 0.77998 0.85161 0.0
H438 H 0.63772 0.77229 0.88363 0.0
S439 S 0.72709 0.97558 0.95392 0.0
N440 N 0.75546 0.944 0.92097 0.0
N441 N 0.67904 0.93613 0.95606 0.0
C442 C 0.68433 0.89447 0.92899 0.0
C443 C 0.72576 0.89879 0.90987 0.0
loop_
_geom_bond_atom_site_label_1
_geom_bond_atom_site_label_2
_geom_bond_distance
_geom_bond_site_symmetry_2
_ccdc_geom_bond_type
H0 C5 0.930 . S
H1 C8 0.930 . S
H2 C10 0.930 . S
H3 C4 1.016 . S
C4 H3 1.016 . S
C4 N11 1.286 . S
C5 H0 0.930 . S
C5 C6 1.397 . S
C5 C7 1.361 . S
C6 C5 1.397 . S
C6 C10 1.390 . S
C7 C5 1.361 . S
C7 C8 1.393 . S
C7 N11 1.413 . S
C8 H1 0.930 . S
C8 C7 1.393 . S
C8 C9 1.399 . S
C9 C8 1.399 . S
C9 C10 1.381 . S
C10 H2 0.930 . S
C10 C6 1.390 . S
C10 C9 1.381 . S
N11 C4 1.286 . S
N11 C7 1.413 . S
H12 C17 0.930 . S
H13 C20 0.930 . S
H14 C22 0.930 . S
H15 C16 1.016 . S
C16 H15 1.016 . S
C16 N23 1.286 . S
C17 H12 0.930 . S
C17 C18 1.397 . S
C17 C19 1.361 . S
C18 C17 1.397 . S
C18 C22 1.390 . S
C19 C17 1.361 . S
C19 C20 1.393 . S
C19 N23 1.413 . S
C20 H13 0.930 . S
C20 C19 1.393 . S
C20 C21 1.399 . S
C21 C20 1.399 . S
C21 C22 1.381 . S
C22 H14 0.930 . S
C22 C18 1.390 . S
C22 C21 1.381 . S
N23 C16 1.286 . S
N23 C19 1.413 . S
H24 C29 0.930 . S
H25 C32 0.930 . S
H26 C34 0.930 . S
H27 C28 1.016 . S
C28 H27 1.016 . S
C28 N35 1.286 . S
C29 H24 0.930 . S
C29 C30 1.397 . S
C29 C31 1.361 . S
C30 C29 1.397 . S
C30 C34 1.390 . S
C31 C29 1.361 . S
C31 C32 1.393 . S
C31 N35 1.413 . S
C32 H25 0.930 . S
C32 C31 1.393 . S
C32 C33 1.399 . S
C33 C32 1.399 . S
C33 C34 1.381 . S
C34 H26 0.930 . S
C34 C30 1.390 . S
C34 C33 1.381 . S
N35 C28 1.286 . S
N35 C31 1.413 . S
H36 C41 0.930 . S
H37 C44 0.930 . S
H38 C46 0.930 . S
H39 C40 1.016 . S
C40 H39 1.016 . S
C40 N47 1.286 . S
C41 H36 0.930 . S
C41 C42 1.397 . S
C41 C43 1.361 . S
C42 C41 1.397 . S
C42 C46 1.390 . S
C43 C41 1.361 . S
C43 C44 1.393 . S
C43 N47 1.413 . S
C44 H37 0.930 . S
C44 C43 1.393 . S
C44 C45 1.399 . S
C45 C44 1.399 . S
C45 C46 1.381 . S
C46 H38 0.930 . S
C46 C42 1.390 . S
C46 C45 1.381 . S
N47 C40 1.286 . S
N47 C43 1.413 . S
H48 C53 0.930 . S
H49 C56 0.930 . S
H50 C58 0.930 . S
H51 C52 1.016 . S
C52 H51 1.016 . S
C52 N59 1.286 . S
C53 H48 0.930 . S
C53 C54 1.397 . S
C53 C55 1.361 . S
C54 C53 1.397 . S
C54 C58 1.390 . S
C55 C53 1.361 . S
C55 C56 1.393 . S
C55 N59 1.413 . S
C56 H49 0.930 . S
C56 C55 1.393 . S
C56 C57 1.399 . S
C57 C56 1.399 . S
C57 C58 1.381 . S
C58 H50 0.930 . S
C58 C54 1.390 . S
C58 C57 1.381 . S
N59 C52 1.286 . S
N59 C55 1.413 . S
H60 C65 0.930 . S
H61 C68 0.930 . S
H62 C70 0.930 . S
H63 C64 1.016 . S
C64 H63 1.016 . S
C64 N71 1.286 . S
C65 H60 0.930 . S
C65 C66 1.397 . S
C65 C67 1.361 . S
C66 C65 1.397 . S
C66 C70 1.390 . S
C67 C65 1.361 . S
C67 C68 1.393 . S
C67 N71 1.413 . S
C68 H61 0.930 . S
C68 C67 1.393 . S
C68 C69 1.399 . S
C69 C68 1.399 . S
C69 C70 1.381 . S
C70 H62 0.930 . S
C70 C66 1.390 . S
C70 C69 1.381 . S
N71 C64 1.286 . S
N71 C67 1.413 . S
H72 C77 0.930 . S
H73 C80 0.930 . S
H74 C82 0.930 . S
H75 C76 1.016 . S
C76 H75 1.016 . S
C76 N83 1.286 . S
C77 H72 0.930 . S
C77 C78 1.397 . S
C77 C79 1.361 . S
C78 C77 1.397 . S
C78 C82 1.390 . S
C79 C77 1.361 . S
C79 C80 1.393 . S
C79 N83 1.413 . S
C80 H73 0.930 . S
C80 C79 1.393 . S
C80 C81 1.399 . S
C81 C80 1.399 . S
C81 C82 1.381 . S
C82 H74 0.930 . S
C82 C78 1.390 . S
C82 C81 1.381 . S
N83 C76 1.286 . S
N83 C79 1.413 . S
H84 C89 0.930 . S
H85 C92 0.930 . S
H86 C94 0.930 . S
H87 C88 1.016 . S
C88 H87 1.016 . S
C88 N95 1.286 . S
C89 H84 0.930 . S
C89 C90 1.397 . S
C89 C91 1.361 . S
C90 C89 1.397 . S
C90 C94 1.390 . S
C91 C89 1.361 . S
C91 C92 1.393 . S
C91 N95 1.413 . S
C92 H85 0.930 . S
C92 C91 1.393 . S
C92 C93 1.399 . S
C93 C92 1.399 . S
C93 C94 1.381 . S
C94 H86 0.930 . S
C94 C90 1.390 . S
C94 C93 1.381 . S
N95 C88 1.286 . S
N95 C91 1.413 . S
C96 O98 1.247 . S
C96 O100 1.258 . S
C97 O104 1.247 . S
C97 O105 1.258 . S
O98 C96 1.247 . S
O98 Zn99 2.028 1_655 S
Zn99 O98 2.028 1_455 S
Zn99 O103 2.035 . S
Zn99 O105 2.035 . S
Zn99 O106 2.028 . S
O100 C96 1.258 . S
O100 Zn101 2.035 1_655 S
Zn101 O100 2.035 1_455 S
Zn101 O102 2.028 . S
Zn101 O104 2.028 . S
Zn101 O107 2.035 1_455 S
O102 Zn101 2.028 . S
O102 C108 1.247 . S
O103 Zn99 2.035 . S
O103 C108 1.258 . S
O104 C97 1.247 . S
O104 Zn101 2.028 . S
O105 C97 1.258 . S
O105 Zn99 2.035 . S
O106 Zn99 2.028 . S
O106 C109 1.247 1_455 S
O107 Zn101 2.035 1_655 S
O107 C109 1.258 . S
C108 O102 1.247 . S
C108 O103 1.258 . S
C109 O106 1.247 1_655 S
C109 O107 1.258 . S
C110 O112 1.247 1_655 S
C110 O114 1.258 . S
C111 O118 1.247 . S
C111 O119 1.258 . S
O112 C110 1.247 1_455 S
O112 Zn113 2.028 . S
Zn113 O112 2.028 . S
Zn113 O117 2.035 . S
Zn113 O119 2.035 . S
Zn113 O120 2.028 . S
O114 C110 1.258 . S
O114 Zn115 2.035 1_655 S
Zn115 O114 2.035 1_455 S
Zn115 O116 2.028 . S
Zn115 O118 2.028 . S
Zn115 O121 2.035 . S
O116 Zn115 2.028 . S
O116 C122 1.247 . S
O117 Zn113 2.035 . S
O117 C122 1.258 . S
O118 C111 1.247 . S
O118 Zn115 2.028 . S
O119 C111 1.258 . S
O119 Zn113 2.035 . S
O120 Zn113 2.028 . S
O120 C123 1.247 . S
O121 Zn115 2.035 . S
O121 C123 1.258 . S
C122 O116 1.247 . S
C122 O117 1.258 . S
C123 O120 1.247 . S
C123 O121 1.258 . S
C124 O126 1.247 . S
C124 O128 1.258 . S
C125 O132 1.247 . S
C125 O133 1.258 . S
O126 C124 1.247 . S
O126 Zn127 2.028 . S
Zn127 O126 2.028 . S
Zn127 O131 2.035 1_565 S
Zn127 O133 2.035 1_565 S
Zn127 O134 2.028 . S
O128 C124 1.258 . S
O128 Zn129 2.035 1_565 S
Zn129 O128 2.035 1_545 S
Zn129 O130 2.028 . S
Zn129 O132 2.028 . S
Zn129 O135 2.035 1_545 S
O130 Zn129 2.028 . S
O130 C136 1.247 . S
O131 Zn127 2.035 1_545 S
O131 C136 1.258 . S
O132 C125 1.247 . S
O132 Zn129 2.028 . S
O133 C125 1.258 . S
O133 Zn127 2.035 1_545 S
O134 Zn127 2.028 . S
O134 C137 1.247 . S
O135 Zn129 2.035 1_565 S
O135 C137 1.258 . S
C136 O130 1.247 . S
C136 O131 1.258 . S
C137 O134 1.247 . S
C137 O135 1.258 . S
C138 O140 1.247 . S
C138 O142 1.258 . S
C139 O146 1.247 . S
C139 O147 1.258 . S
O140 C138 1.247 . S
O140 Zn141 2.028 1_554 S
Zn141 O140 2.028 1_556 S
Zn141 O145 2.035 1_556 S
Zn141 O147 2.035 . S
Zn141 O148 2.028 . S
O142 C138 1.258 . S
O142 Zn143 2.035 . S
Zn143 O142 2.035 . S
Zn143 O144 2.028 . S
Zn143 O146 2.028 1_554 S
Zn143 O149 2.035 1_554 S
O144 Zn143 2.028 . S
O144 C150 1.247 . S
O145 Zn141 2.035 1_554 S
O145 C150 1.258 . S
O146 C139 1.247 . S
O146 Zn143 2.028 1_556 S
O147 C139 1.258 . S
O147 Zn141 2.035 . S
O148 Zn141 2.028 . S
O148 C151 1.247 . S
O149 Zn143 2.035 1_556 S
O149 C151 1.258 . S
C150 O144 1.247 . S
C150 O145 1.258 . S
C151 O148 1.247 . S
C151 O149 1.258 . S
C152 O154 1.247 . S
C152 O156 1.258 1_565 S
C153 O160 1.247 . S
C153 O161 1.258 . S
O154 C152 1.247 . S
O154 Zn155 2.028 1_565 S
Zn155 O154 2.028 1_545 S
Zn155 O159 2.035 . S
Zn155 O161 2.035 . S
Zn155 O162 2.028 1_545 S
O156 C152 1.258 1_545 S
O156 Zn157 2.035 . S
Zn157 O156 2.035 . S
Zn157 O158 2.028 . S
Zn157 O160 2.028 . S
Zn157 O163 2.035 . S
O158 Zn157 2.028 . S
O158 C164 1.247 . S
O159 Zn155 2.035 . S
O159 C164 1.258 . S
O160 C153 1.247 . S
O160 Zn157 2.028 . S
O161 C153 1.258 . S
O161 Zn155 2.035 . S
O162 Zn155 2.028 1_565 S
O162 C165 1.247 . S
O163 Zn157 2.035 . S
O163 C165 1.258 1_545 S
C164 O158 1.247 . S
C164 O159 1.258 . S
C165 O162 1.247 . S
C165 O163 1.258 1_565 S
C166 O168 1.247 . S
C166 O170 1.258 . S
C167 O174 1.247 . S
C167 O175 1.258 . S
O168 C166 1.247 . S
O168 Zn169 2.028 . S
Zn169 O168 2.028 . S
Zn169 O173 2.035 . S
Zn169 O175 2.035 . S
Zn169 O176 2.028 . S
O170 C166 1.258 . S
O170 Zn171 2.035 . S
Zn171 O170 2.035 . S
Zn171 O172 2.028 . S
Zn171 O174 2.028 . S
Zn171 O177 2.035 . S
O172 Zn171 2.028 . S
O172 C178 1.247 . S
O173 Zn169 2.035 . S
O173 C178 1.258 . S
O174 C167 1.247 . S
O174 Zn171 2.028 . S
O175 C167 1.258 . S
O175 Zn169 2.035 . S
O176 Zn169 2.028 . S
O176 C179 1.247 . S
O177 Zn171 2.035 . S
O177 C179 1.258 . S
C178 O172 1.247 . S
C178 O173 1.258 . S
C179 O176 1.247 . S
C179 O177 1.258 . S
C180 C181 1.369 . S
C180 C182 1.419 . S
C180 H184 0.930 . S
C181 C180 1.369 . S
C181 C190 1.429 . S
C182 C180 1.419 . S
C182 C183 1.363 . S
C182 H185 0.929 . S
C183 C182 1.363 . S
C183 C189 1.428 . S
H184 C180 0.930 . S
H185 C182 0.929 . S
S186 N187 1.613 . S
S186 N188 1.610 . S
N187 S186 1.613 . S
N187 C190 1.350 . S
N188 S186 1.610 . S
N188 C189 1.351 . S
C189 C183 1.428 . S
C189 N188 1.351 . S
C189 C190 1.434 . S
C190 C181 1.429 . S
C190 N187 1.350 . S
C190 C189 1.434 . S
C191 C192 1.369 . S
C191 C193 1.419 . S
C191 H195 0.930 . S
C192 C191 1.369 . S
C192 C201 1.429 . S
C193 C191 1.419 . S
C193 C194 1.363 . S
C193 H196 0.929 . S
C194 C193 1.363 . S
C194 C200 1.428 . S
H195 C191 0.930 . S
H196 C193 0.929 . S
S197 N198 1.613 . S
S197 N199 1.610 . S
N198 S197 1.613 . S
N198 C201 1.350 . S
N199 S197 1.610 . S
N199 C200 1.351 . S
C200 C194 1.428 . S
C200 N199 1.351 . S
C200 C201 1.434 . S
C201 C192 1.429 . S
C201 N198 1.350 . S
C201 C200 1.434 . S
C202 C203 1.369 . S
C202 C204 1.419 . S
C202 H206 0.930 . S
C203 C202 1.369 . S
C203 C212 1.429 . S
C204 C202 1.419 . S
C204 C205 1.363 . S
C204 H207 0.929 . S
C205 C204 1.363 . S
C205 C211 1.428 . S
H206 C202 0.930 . S
H207 C204 0.929 . S
S208 N209 1.613 . S
S208 N210 1.610 . S
N209 S208 1.613 . S
N209 C212 1.350 . S
N210 S208 1.610 . S
N210 C211 1.351 . S
C211 C205 1.428 . S
C211 N210 1.351 . S
C211 C212 1.434 . S
C212 C203 1.429 . S
C212 N209 1.350 . S
C212 C211 1.434 . S
C213 C214 1.369 . S
C213 C215 1.419 . S
C213 H217 0.930 . S
C214 C213 1.369 . S
C214 C223 1.429 . S
C215 C213 1.419 . S
C215 C216 1.363 . S
C215 H218 0.929 . S
C216 C215 1.363 . S
C216 C222 1.428 . S
H217 C213 0.930 . S
H218 C215 0.929 . S
S219 N220 1.613 . S
S219 N221 1.610 . S
N220 S219 1.613 . S
N220 C223 1.350 . S
N221 S219 1.610 . S
N221 C222 1.351 . S
C222 C216 1.428 . S
C222 N221 1.351 . S
C222 C223 1.434 . S
C223 C214 1.429 . S
C223 N220 1.350 . S
C223 C222 1.434 . S
C224 C225 1.369 . S
C224 C226 1.419 . S
C224 H228 0.930 . S
C225 C224 1.369 . S
C225 C234 1.429 . S
C226 C224 1.419 . S
C226 C227 1.363 . S
C226 H229 0.929 . S
C227 C226 1.363 . S
C227 C233 1.428 . S
H228 C224 0.930 . S
H229 C226 0.929 . S
S230 N231 1.613 . S
S230 N232 1.610 . S
N231 S230 1.613 . S
N231 C234 1.350 . S
N232 S230 1.610 . S
N232 C233 1.351 . S
C233 C227 1.428 . S
C233 N232 1.351 . S
C233 C234 1.434 . S
C234 C225 1.429 . S
C234 N231 1.350 . S
C234 C233 1.434 . S
C235 C236 1.369 . S
C235 C237 1.419 . S
C235 H239 0.930 . S
C236 C235 1.369 . S
C236 C245 1.429 . S
C237 C235 1.419 . S
C237 C238 1.363 . S
C237 H240 0.929 . S
C238 C237 1.363 . S
C238 C244 1.428 . S
H239 C235 0.930 . S
H240 C237 0.929 . S
S241 N242 1.613 . S
S241 N243 1.610 . S
N242 S241 1.613 . S
N242 C245 1.350 . S
N243 S241 1.610 . S
N243 C244 1.351 . S
C244 C238 1.428 . S
C244 N243 1.351 . S
C244 C245 1.434 . S
C245 C236 1.429 . S
C245 N242 1.350 . S
C245 C244 1.434 . S
C246 C247 1.369 . S
C246 C248 1.419 . S
C246 H250 0.930 . S
C247 C246 1.369 . S
C247 C256 1.429 . S
C248 C246 1.419 . S
C248 C249 1.363 . S
C248 H251 0.929 . S
C249 C248 1.363 . S
C249 C255 1.428 . S
H250 C246 0.930 . S
H251 C248 0.929 . S
S252 N253 1.613 . S
S252 N254 1.610 . S
N253 S252 1.613 . S
N253 C256 1.350 . S
N254 S252 1.610 . S
N254 C255 1.351 . S
C255 C249 1.428 . S
C255 N254 1.351 . S
C255 C256 1.434 . S
C256 C247 1.429 . S
C256 N253 1.350 . S
C256 C255 1.434 . S
C257 C258 1.369 1_554 S
C257 C259 1.419 . S
C257 H261 0.930 . S
C258 C257 1.369 1_556 S
C258 C267 1.429 . S
C259 C257 1.419 . S
C259 C260 1.363 . S
C259 H262 0.929 . S
C260 C259 1.363 . S
C260 C266 1.435 . S
H261 C257 0.930 . S
H262 C259 0.929 . S
S263 N264 1.613 . S
S263 N265 1.610 . S
N264 S263 1.613 . S
N264 C267 1.350 . S
N265 S263 1.610 . S
N265 C266 1.349 1_556 S
C266 C260 1.435 . S
C266 N265 1.349 1_554 S
C266 C267 1.429 1_554 S
C267 C258 1.429 . S
C267 N264 1.350 . S
C267 C266 1.429 1_556 S
C268 C269 1.369 . S
C268 C270 1.419 . S
C268 H272 0.930 . S
C269 C268 1.369 . S
C269 C278 1.429 . S
C270 C268 1.419 . S
C270 C271 1.363 . S
C270 H273 0.929 . S
C271 C270 1.363 . S
C271 C277 1.428 . S
H272 C268 0.930 . S
H273 C270 0.929 . S
S274 N275 1.613 . S
S274 N276 1.610 . S
N275 S274 1.613 . S
N275 C278 1.350 . S
N276 S274 1.610 . S
N276 C277 1.351 . S
C277 C271 1.428 . S
C277 N276 1.351 . S
C277 C278 1.434 . S
C278 C269 1.429 . S
C278 N275 1.350 . S
C278 C277 1.434 . S
C279 C280 1.369 . S
C279 C281 1.419 . S
C279 H283 0.930 . S
C280 C279 1.369 . S
C280 C289 1.429 . S
C281 C279 1.419 . S
C281 C282 1.363 . S
C281 H284 0.929 . S
C282 C281 1.363 . S
C282 C288 1.428 . S
H283 C279 0.930 . S
H284 C281 0.929 . S
S285 N286 1.613 . S
S285 N287 1.610 . S
N286 S285 1.613 . S
N286 C289 1.350 . S
N287 S285 1.610 . S
N287 C288 1.351 . S
C288 C282 1.428 . S
C288 N287 1.351 . S
C288 C289 1.434 . S
C289 C280 1.429 . S
C289 N286 1.350 . S
C289 C288 1.434 . S
C290 C291 1.369 . S
C290 C292 1.419 . S
C290 H294 0.930 . S
C291 C290 1.369 . S
C291 C300 1.429 . S
C292 C290 1.419 . S
C292 C293 1.363 . S
C292 H295 0.929 . S
C293 C292 1.363 . S
C293 C299 1.428 . S
H294 C290 0.930 . S
H295 C292 0.929 . S
S296 N297 1.613 . S
S296 N298 1.610 . S
N297 S296 1.613 . S
N297 C300 1.350 . S
N298 S296 1.610 . S
N298 C299 1.351 . S
C299 C293 1.428 . S
C299 N298 1.351 . S
C299 C300 1.434 . S
C300 C291 1.429 . S
C300 N297 1.350 . S
C300 C299 1.434 . S
C301 C302 1.369 . S
C301 C303 1.419 . S
C301 H305 0.930 . S
C302 C301 1.369 . S
C302 C311 1.429 . S
C303 C301 1.419 . S
C303 C304 1.363 . S
C303 H306 0.929 . S
C304 C303 1.363 . S
C304 C310 1.428 . S
H305 C301 0.930 . S
H306 C303 0.929 . S
S307 N308 1.613 . S
S307 N309 1.610 . S
N308 S307 1.613 . S
N308 C311 1.350 . S
N309 S307 1.610 . S
N309 C310 1.351 . S
C310 C304 1.428 . S
C310 N309 1.351 . S
C310 C311 1.434 . S
C311 C302 1.429 . S
C311 N308 1.350 . S
C311 C310 1.434 . S
C312 C313 1.369 . S
C312 C314 1.419 . S
C312 H316 0.930 . S
C313 C312 1.369 . S
C313 C322 1.429 . S
C314 C312 1.419 . S
C314 C315 1.363 . S
C314 H317 0.929 . S
C315 C314 1.363 . S
C315 C321 1.428 . S
H316 C312 0.930 . S
H317 C314 0.929 . S
S318 N319 1.613 1_455 S
S318 N320 1.610 . S
N319 S318 1.613 1_655 S
N319 C322 1.350 . S
N320 S318 1.610 . S
N320 C321 1.351 1_455 S
C321 C315 1.428 . S
C321 N320 1.351 1_655 S
C321 C322 1.434 . S
C322 C313 1.429 . S
C322 N319 1.350 . S
C322 C321 1.434 . S
C323 C324 1.369 . S
C323 C325 1.419 . S
C323 H327 0.930 . S
C324 C323 1.369 . S
C324 C333 1.429 . S
C325 C323 1.419 . S
C325 C326 1.363 . S
C325 H328 0.929 . S
C326 C325 1.363 . S
C326 C332 1.428 . S
H327 C323 0.930 . S
H328 C325 0.929 . S
S329 N330 1.613 . S
S329 N331 1.610 . S
N330 S329 1.613 . S
N330 C333 1.350 . S
N331 S329 1.610 . S
N331 C332 1.351 . S
C332 C326 1.428 . S
C332 N331 1.351 . S
C332 C333 1.434 . S
C333 C324 1.429 . S
C333 N330 1.350 . S
C333 C332 1.434 . S
C334 C335 1.369 . S
C334 C336 1.419 . S
C334 H338 0.930 . S
C335 C334 1.369 . S
C335 C344 1.429 . S
C336 C334 1.419 . S
C336 C337 1.363 . S
C336 H339 0.929 . S
C337 C336 1.363 . S
C337 C343 1.428 . S
H338 C334 0.930 . S
H339 C336 0.929 . S
S340 N341 1.613 . S
S340 N342 1.610 . S
N341 S340 1.613 . S
N341 C344 1.350 . S
N342 S340 1.610 . S
N342 C343 1.351 . S
C343 C337 1.428 . S
C343 N342 1.351 . S
C343 C344 1.434 . S
C344 C335 1.429 . S
C344 N341 1.350 . S
C344 C343 1.434 . S
C345 C346 1.369 . S
C345 C347 1.419 . S
C345 H349 0.930 . S
C346 C345 1.369 . S
C346 C355 1.429 . S
C347 C345 1.419 . S
C347 C348 1.363 . S
C347 H350 0.929 . S
C348 C347 1.363 . S
C348 C354 1.428 . S
H349 C345 0.930 . S
H350 C347 0.929 . S
S351 N352 1.613 . S
S351 N353 1.610 . S
N352 S351 1.613 . S
N352 C355 1.350 . S
N353 S351 1.610 . S
N353 C354 1.351 . S
C354 C348 1.428 . S
C354 N353 1.351 . S
C354 C355 1.434 . S
C355 C346 1.429 . S
C355 N352 1.350 . S
C355 C354 1.434 . S
C356 C357 1.369 . S
C356 C358 1.419 . S
C356 H360 0.930 . S
C357 C356 1.369 . S
C357 C366 1.429 . S
C358 C356 1.419 . S
C358 C359 1.363 . S
C358 H361 0.929 . S
C359 C358 1.363 . S
C359 C365 1.428 . S
H360 C356 0.930 . S
H361 C358 0.929 . S
S362 N363 1.613 . S
S362 N364 1.610 . S
N363 S362 1.613 . S
N363 C366 1.350 . S
N364 S362 1.610 . S
N364 C365 1.351 . S
C365 C359 1.428 . S
C365 N364 1.351 . S
C365 C366 1.434 . S
C366 C357 1.429 . S
C366 N363 1.350 . S
C366 C365 1.434 . S
C367 C368 1.369 . S
C367 C369 1.419 . S
C367 H371 0.930 . S
C368 C367 1.369 . S
C368 C377 1.429 . S
C369 C367 1.419 . S
C369 C370 1.363 . S
C369 H372 0.929 . S
C370 C369 1.363 . S
C370 C376 1.428 . S
H371 C367 0.930 . S
H372 C369 0.929 . S
S373 N374 1.613 . S
S373 N375 1.610 . S
N374 S373 1.613 . S
N374 C377 1.350 . S
N375 S373 1.610 . S
N375 C376 1.351 . S
C376 C370 1.428 . S
C376 N375 1.351 . S
C376 C377 1.434 . S
C377 C368 1.429 . S
C377 N374 1.350 . S
C377 C376 1.434 . S
C378 C379 1.369 . S
C378 C380 1.419 . S
C378 H382 0.930 . S
C379 C378 1.369 . S
C379 C388 1.429 . S
C380 C378 1.419 . S
C380 C381 1.363 . S
C380 H383 0.929 . S
C381 C380 1.363 . S
C381 C387 1.428 . S
H382 C378 0.930 . S
H383 C380 0.929 . S
S384 N385 1.613 . S
S384 N386 1.610 . S
N385 S384 1.613 . S
N385 C388 1.350 . S
N386 S384 1.610 . S
N386 C387 1.351 . S
C387 C381 1.428 . S
C387 N386 1.351 . S
C387 C388 1.434 . S
C388 C379 1.429 . S
C388 N385 1.350 . S
C388 C387 1.434 . S
C389 C390 1.369 . S
C389 C391 1.419 . S
C389 H393 0.930 . S
C390 C389 1.369 . S
C390 C399 1.429 . S
C391 C389 1.419 . S
C391 C392 1.363 . S
C391 H394 0.929 . S
C392 C391 1.363 . S
C392 C398 1.428 . S
H393 C389 0.930 . S
H394 C391 0.929 . S
S395 N396 1.613 . S
S395 N397 1.610 . S
N396 S395 1.613 . S
N396 C399 1.350 . S
N397 S395 1.610 . S
N397 C398 1.351 . S
C398 C392 1.428 . S
C398 N397 1.351 . S
C398 C399 1.434 . S
C399 C390 1.429 . S
C399 N396 1.350 . S
C399 C398 1.434 . S
C400 C401 1.369 . S
C400 C402 1.419 . S
C400 H404 0.930 . S
C401 C400 1.369 . S
C401 C410 1.429 . S
C402 C400 1.419 . S
C402 C403 1.363 . S
C402 H405 0.929 . S
C403 C402 1.363 . S
C403 C409 1.428 . S
H404 C400 0.930 . S
H405 C402 0.929 . S
S406 N407 1.613 . S
S406 N408 1.610 . S
N407 S406 1.613 . S
N407 C410 1.350 . S
N408 S406 1.610 . S
N408 C409 1.351 . S
C409 C403 1.428 . S
C409 N408 1.351 . S
C409 C410 1.434 . S
C410 C401 1.429 . S
C410 N407 1.350 . S
C410 C409 1.434 . S
C411 C412 1.369 . S
C411 C413 1.419 . S
C411 H415 0.930 . S
C412 C411 1.369 . S
C412 C421 1.429 . S
C413 C411 1.419 . S
C413 C414 1.363 . S
C413 H416 0.929 . S
C414 C413 1.363 . S
C414 C420 1.428 . S
H415 C411 0.930 . S
H416 C413 0.929 . S
S417 N418 1.613 . S
S417 N419 1.610 1_556 S
N418 S417 1.613 . S
N418 C421 1.350 . S
N419 S417 1.610 1_554 S
N419 C420 1.351 1_554 S
C420 C414 1.428 . S
C420 N419 1.351 1_556 S
C420 C421 1.434 . S
C421 C412 1.429 . S
C421 N418 1.350 . S
C421 C420 1.434 . S
C422 C423 1.369 . S
C422 C424 1.419 . S
C422 H426 0.930 . S
C423 C422 1.369 . S
C423 C432 1.429 . S
C424 C422 1.419 . S
C424 C425 1.363 . S
C424 H427 0.929 . S
C425 C424 1.363 . S
C425 C431 1.428 . S
H426 C422 0.930 . S
H427 C424 0.929 . S
S428 N429 1.613 . S
S428 N430 1.610 . S
N429 S428 1.613 . S
N429 C432 1.350 . S
N430 S428 1.610 . S
N430 C431 1.351 . S
C431 C425 1.428 . S
C431 N430 1.351 . S
C431 C432 1.434 . S
C432 C423 1.429 . S
C432 N429 1.350 . S
C432 C431 1.434 . S
C433 C434 1.369 . S
C433 C435 1.419 . S
C433 H437 0.930 . S
C434 C433 1.369 . S
C434 C443 1.429 . S
C435 C433 1.419 . S
C435 C436 1.363 . S
C435 H438 0.929 . S
C436 C435 1.363 . S
C436 C442 1.428 . S
H437 C433 0.930 . S
H438 C435 0.929 . S
S439 N440 1.613 . S
S439 N441 1.610 . S
N440 S439 1.613 . S
N440 C443 1.350 . S
N441 S439 1.610 . S
N441 C442 1.351 . S
C442 C436 1.428 . S
C442 N441 1.351 . S
C442 C443 1.434 . S
C443 C434 1.429 . S
C443 N440 1.350 . S
C443 C442 1.434 . S
C183 C108 1.565 . S
C181 C6 1.572 . S
C194 C111 1.617 . S
C192 C18 1.611 . S
C205 C109 1.530 . S
C203 C28 1.541 . S
C216 C110 1.631 . S
C214 C45 1.655 . S
C227 C125 1.452 . S
C225 C4 1.467 . S
C238 C139 1.633 . S
C236 C21 1.634 . S
C247 C33 1.636 . S
C249 C165 1.651 . S
C260 C179 1.652 . S
C258 C40 1.650 . S
C271 C124 1.583 . S
C269 C16 1.555 . S
C280 C30 1.607 . S
C282 C138 1.584 . S
C293 C164 1.621 . S
C291 C42 1.616 . S
C304 C178 1.668 . S
C302 C9 1.685 . S
C313 C52 1.648 . S
C315 C123 1.622 1_655 S
C326 C96 1.676 . S
C324 C69 1.654 . S
C335 C78 1.542 . S
C337 C122 1.531 . S
C346 C93 1.359 . S
C348 C97 1.384 . S
C359 C152 1.694 . S
C357 C57 1.675 . S
C370 C166 1.693 . S
C368 C66 1.706 . S
C381 C136 1.452 . S
C379 C76 1.457 . S
C390 C88 1.461 . S
C392 C150 1.441 . S
C403 C153 1.620 . S
C401 C64 1.604 . S
C414 C167 1.618 1_556 S
C412 C81 1.635 . S
C425 C137 1.386 . S
C423 C90 1.387 . S
C434 C54 1.587 . S
C436 C151 1.586 . S
