# Generated by pormake.
# Topology ptr, (4,4)-cn, num edge types: 1
# Building blocks:
#     Node 0, Type 0, BuildingBlock: NAHDIM_clean_sbu_0, # of connection points: 4
#     Node 1, Type 0, BuildingBlock: NAHDIM_clean_sbu_0, # of connection points: 4
#     Node 2, Type 0, BuildingBlock: NAHDIM_clean_sbu_0, # of connection points: 4
#     Node 3, Type 0, BuildingBlock: NAHDIM_clean_sbu_0, # of connection points: 4
#     Node 4, Type 0, BuildingBlock: NAHDIM_clean_sbu_0, # of connection points: 4
#     Node 5, Type 0, BuildingBlock: NAHDIM_clean_sbu_0, # of connection points: 4
#     Node 6, Type 0, BuildingBlock: NAHDIM_clean_sbu_0, # of connection points: 4
#     Node 7, Type 0, BuildingBlock: NAHDIM_clean_sbu_0, # of connection points: 4
#     Node 8, Type 0, BuildingBlock: NAHDIM_clean_sbu_0, # of connection points: 4
#     Node 9, Type 0, BuildingBlock: NAHDIM_clean_sbu_0, # of connection points: 4
#     Node 10, Type 0, BuildingBlock: NAHDIM_clean_sbu_0, # of connection points: 4
#     Node 11, Type 0, BuildingBlock: NAHDIM_clean_sbu_0, # of connection points: 4
#     Node 12, Type 0, BuildingBlock: NAHDIM_clean_sbu_0, # of connection points: 4
#     Node 13, Type 0, BuildingBlock: NAHDIM_clean_sbu_0, # of connection points: 4
#     Node 14, Type 0, BuildingBlock: NAHDIM_clean_sbu_0, # of connection points: 4
#     Node 15, Type 0, BuildingBlock: NAHDIM_clean_sbu_0, # of connection points: 4
#     Node 16, Type 0, BuildingBlock: NAHDIM_clean_sbu_0, # of connection points: 4
#     Node 17, Type 0, BuildingBlock: NAHDIM_clean_sbu_0, # of connection points: 4
#     Node 18, Type 1, BuildingBlock: MUDLON_clean_linker_0, # of connection points: 4
#     Node 19, Type 1, BuildingBlock: MUDLON_clean_linker_0, # of connection points: 4
#     Node 20, Type 1, BuildingBlock: MUDLON_clean_linker_0, # of connection points: 4
#     Node 21, Type 1, BuildingBlock: MUDLON_clean_linker_0, # of connection points: 4
#     Node 22, Type 1, BuildingBlock: MUDLON_clean_linker_0, # of connection points: 4
#     Node 23, Type 1, BuildingBlock: MUDLON_clean_linker_0, # of connection points: 4
#     Node 24, Type 1, BuildingBlock: MUDLON_clean_linker_0, # of connection points: 4
#     Node 25, Type 1, BuildingBlock: MUDLON_clean_linker_0, # of connection points: 4
#     Node 26, Type 1, BuildingBlock: MUDLON_clean_linker_0, # of connection points: 4
#     Node 27, Type 1, BuildingBlock: MUDLON_clean_linker_0, # of connection points: 4
#     Node 28, Type 1, BuildingBlock: MUDLON_clean_linker_0, # of connection points: 4
#     Node 29, Type 1, BuildingBlock: MUDLON_clean_linker_0, # of connection points: 4
#     Node 30, Type 1, BuildingBlock: MUDLON_clean_linker_0, # of connection points: 4
#     Node 31, Type 1, BuildingBlock: MUDLON_clean_linker_0, # of connection points: 4
#     Node 32, Type 1, BuildingBlock: MUDLON_clean_linker_0, # of connection points: 4
#     Node 33, Type 1, BuildingBlock: MUDLON_clean_linker_0, # of connection points: 4
#     Node 34, Type 1, BuildingBlock: MUDLON_clean_linker_0, # of connection points: 4
#     Node 35, Type 1, BuildingBlock: MUDLON_clean_linker_0, # of connection points: 4
#     Edge 36, Type (0, 1), BuildingBlock: AJUNOK_clean_linker_0, # of connection points: 2
#     Edge 37, Type (0, 1), BuildingBlock: AJUNOK_clean_linker_0, # of connection points: 2
#     Edge 38, Type (0, 1), BuildingBlock: AJUNOK_clean_linker_0, # of connection points: 2
#     Edge 39, Type (0, 1), BuildingBlock: AJUNOK_clean_linker_0, # of connection points: 2
#     Edge 40, Type (0, 1), BuildingBlock: AJUNOK_clean_linker_0, # of connection points: 2
#     Edge 41, Type (0, 1), BuildingBlock: AJUNOK_clean_linker_0, # of connection points: 2
#     Edge 42, Type (0, 1), BuildingBlock: AJUNOK_clean_linker_0, # of connection points: 2
#     Edge 43, Type (0, 1), BuildingBlock: AJUNOK_clean_linker_0, # of connection points: 2
#     Edge 44, Type (0, 1), BuildingBlock: AJUNOK_clean_linker_0, # of connection points: 2
#     Edge 45, Type (0, 1), BuildingBlock: AJUNOK_clean_linker_0, # of connection points: 2
#     Edge 46, Type (0, 1), BuildingBlock: AJUNOK_clean_linker_0, # of connection points: 2
#     Edge 47, Type (0, 1), BuildingBlock: AJUNOK_clean_linker_0, # of connection points: 2
#     Edge 48, Type (0, 1), BuildingBlock: AJUNOK_clean_linker_0, # of connection points: 2
#     Edge 49, Type (0, 1), BuildingBlock: AJUNOK_clean_linker_0, # of connection points: 2
#     Edge 50, Type (0, 1), BuildingBlock: AJUNOK_clean_linker_0, # of connection points: 2
#     Edge 51, Type (0, 1), BuildingBlock: AJUNOK_clean_linker_0, # of connection points: 2
#     Edge 52, Type (0, 1), BuildingBlock: AJUNOK_clean_linker_0, # of connection points: 2
#     Edge 53, Type (0, 1), BuildingBlock: AJUNOK_clean_linker_0, # of connection points: 2
#     Edge 54, Type (0, 1), BuildingBlock: AJUNOK_clean_linker_0, # of connection points: 2
#     Edge 55, Type (0, 1), BuildingBlock: AJUNOK_clean_linker_0, # of connection points: 2
#     Edge 56, Type (0, 1), BuildingBlock: AJUNOK_clean_linker_0, # of connection points: 2
#     Edge 57, Type (0, 1), BuildingBlock: AJUNOK_clean_linker_0, # of connection points: 2
#     Edge 58, Type (0, 1), BuildingBlock: AJUNOK_clean_linker_0, # of connection points: 2
#     Edge 59, Type (0, 1), BuildingBlock: AJUNOK_clean_linker_0, # of connection points: 2
#     Edge 60, Type (0, 1), BuildingBlock: AJUNOK_clean_linker_0, # of connection points: 2
#     Edge 61, Type (0, 1), BuildingBlock: AJUNOK_clean_linker_0, # of connection points: 2
#     Edge 62, Type (0, 1), BuildingBlock: AJUNOK_clean_linker_0, # of connection points: 2
#     Edge 63, Type (0, 1), BuildingBlock: AJUNOK_clean_linker_0, # of connection points: 2
#     Edge 64, Type (0, 1), BuildingBlock: AJUNOK_clean_linker_0, # of connection points: 2
#     Edge 65, Type (0, 1), BuildingBlock: AJUNOK_clean_linker_0, # of connection points: 2
#     Edge 66, Type (0, 1), BuildingBlock: AJUNOK_clean_linker_0, # of connection points: 2
#     Edge 67, Type (0, 1), BuildingBlock: AJUNOK_clean_linker_0, # of connection points: 2
#     Edge 68, Type (0, 1), BuildingBlock: AJUNOK_clean_linker_0, # of connection points: 2
#     Edge 69, Type (0, 1), BuildingBlock: AJUNOK_clean_linker_0, # of connection points: 2
#     Edge 70, Type (0, 1), BuildingBlock: AJUNOK_clean_linker_0, # of connection points: 2
#     Edge 71, Type (0, 1), BuildingBlock: AJUNOK_clean_linker_0, # of connection points: 2
#     Edge 72, Type (0, 1), BuildingBlock: AJUNOK_clean_linker_0, # of connection points: 2
#     Edge 73, Type (0, 1), BuildingBlock: AJUNOK_clean_linker_0, # of connection points: 2
#     Edge 74, Type (0, 1), BuildingBlock: AJUNOK_clean_linker_0, # of connection points: 2
#     Edge 75, Type (0, 1), BuildingBlock: AJUNOK_clean_linker_0, # of connection points: 2
#     Edge 76, Type (0, 1), BuildingBlock: AJUNOK_clean_linker_0, # of connection points: 2
#     Edge 77, Type (0, 1), BuildingBlock: AJUNOK_clean_linker_0, # of connection points: 2
#     Edge 78, Type (0, 1), BuildingBlock: AJUNOK_clean_linker_0, # of connection points: 2
#     Edge 79, Type (0, 1), BuildingBlock: AJUNOK_clean_linker_0, # of connection points: 2
#     Edge 80, Type (0, 1), BuildingBlock: AJUNOK_clean_linker_0, # of connection points: 2
#     Edge 81, Type (0, 1), BuildingBlock: AJUNOK_clean_linker_0, # of connection points: 2
#     Edge 82, Type (0, 1), BuildingBlock: AJUNOK_clean_linker_0, # of connection points: 2
#     Edge 83, Type (0, 1), BuildingBlock: AJUNOK_clean_linker_0, # of connection points: 2
#     Edge 84, Type (0, 1), BuildingBlock: AJUNOK_clean_linker_0, # of connection points: 2
#     Edge 85, Type (0, 1), BuildingBlock: AJUNOK_clean_linker_0, # of connection points: 2
#     Edge 86, Type (0, 1), BuildingBlock: AJUNOK_clean_linker_0, # of connection points: 2
#     Edge 87, Type (0, 1), BuildingBlock: AJUNOK_clean_linker_0, # of connection points: 2
#     Edge 88, Type (0, 1), BuildingBlock: AJUNOK_clean_linker_0, # of connection points: 2
#     Edge 89, Type (0, 1), BuildingBlock: AJUNOK_clean_linker_0, # of connection points: 2
#     Edge 90, Type (0, 1), BuildingBlock: AJUNOK_clean_linker_0, # of connection points: 2
#     Edge 91, Type (0, 1), BuildingBlock: AJUNOK_clean_linker_0, # of connection points: 2
#     Edge 92, Type (0, 1), BuildingBlock: AJUNOK_clean_linker_0, # of connection points: 2
#     Edge 93, Type (0, 1), BuildingBlock: AJUNOK_clean_linker_0, # of connection points: 2
#     Edge 94, Type (0, 1), BuildingBlock: AJUNOK_clean_linker_0, # of connection points: 2
#     Edge 95, Type (0, 1), BuildingBlock: AJUNOK_clean_linker_0, # of connection points: 2
#     Edge 96, Type (0, 1), BuildingBlock: AJUNOK_clean_linker_0, # of connection points: 2
#     Edge 97, Type (0, 1), BuildingBlock: AJUNOK_clean_linker_0, # of connection points: 2
#     Edge 98, Type (0, 1), BuildingBlock: AJUNOK_clean_linker_0, # of connection points: 2
#     Edge 99, Type (0, 1), BuildingBlock: AJUNOK_clean_linker_0, # of connection points: 2
#     Edge 100, Type (0, 1), BuildingBlock: AJUNOK_clean_linker_0, # of connection points: 2
#     Edge 101, Type (0, 1), BuildingBlock: AJUNOK_clean_linker_0, # of connection points: 2
#     Edge 102, Type (0, 1), BuildingBlock: AJUNOK_clean_linker_0, # of connection points: 2
#     Edge 103, Type (0, 1), BuildingBlock: AJUNOK_clean_linker_0, # of connection points: 2
#     Edge 104, Type (0, 1), BuildingBlock: AJUNOK_clean_linker_0, # of connection points: 2
#     Edge 105, Type (0, 1), BuildingBlock: AJUNOK_clean_linker_0, # of connection points: 2
#     Edge 106, Type (0, 1), BuildingBlock: AJUNOK_clean_linker_0, # of connection points: 2
#     Edge 107, Type (0, 1), BuildingBlock: AJUNOK_clean_linker_0, # of connection points: 2
# Relax obj value: 0.062
# Max RMSD: 0.205
# Mean RMSD: 0.105
data_MOF--net-ptr--node1-NAHDIM_clean_sbu_0--node2-MUDLON_clean_linker_0--edge1-AJUNOK_clean_linker_0
_symmetry_space_group_name_H-M    P1
_symmetry_Int_Tables_number       1
_symmetry_cell_setting            triclinic
loop_
_symmetry_equiv_pos_as_xyz
'x, y, z'
_cell_length_a     86.367625
_cell_length_b     84.821923
_cell_length_c     49.260313
_cell_angle_alpha  91.746128
_cell_angle_beta   89.152912
_cell_angle_gamma 121.70045
loop_
_atom_site_label
_atom_site_type_symbol
_atom_site_fract_x
_atom_site_fract_y
_atom_site_fract_z
_atom_type_partial_charge
C0 C 0.03183 0.35695 0.00682 0.0
O1 O 0.02107 0.34862 0.98584 0.0
O2 O 0.98721 0.3491 0.00402 0.0
Zn3 Zn 0.00979 0.37336 0.01483 0.0
O4 O 0.00592 0.38327 0.05044 0.0
C5 C 0.00244 0.39094 0.97344 0.0
O6 O 0.98594 0.37939 0.98238 0.0
O7 O 0.02997 0.36863 0.02097 0.0
C8 C 0.00142 0.39528 0.05334 0.0
O9 O 0.99838 0.40196 0.03174 0.0
C10 C 0.98175 0.3339 0.01572 0.0
O11 O 0.99079 0.3338 0.03687 0.0
O12 O 0.0158 0.3912 0.98448 0.0
C13 C 0.67836 0.65782 0.99611 0.0
O14 O 0.66873 0.6637 0.98468 0.0
O15 O 0.64493 0.66106 0.03214 0.0
Zn16 Zn 0.64465 0.63779 0.02124 0.0
O17 O 0.63057 0.62567 0.9867 0.0
C18 C 0.62152 0.62116 0.06601 0.0
O19 O 0.61593 0.63184 0.05733 0.0
O20 O 0.67074 0.64541 0.01386 0.0
C21 C 0.61381 0.61308 0.98518 0.0
O22 O 0.60409 0.60764 0.0075 0.0
C23 C 0.64171 0.67148 0.01841 0.0
O24 O 0.63758 0.66768 0.99252 0.0
O25 O 0.63399 0.62053 0.05286 0.0
C26 C 0.35858 0.02999 0.98566 0.0
O27 O 0.34883 0.01342 0.97414 0.0
O28 O 0.3432 0.99051 0.02704 0.0
Zn29 Zn 0.36873 0.00931 0.01545 0.0
O30 O 0.37618 0.00014 0.98256 0.0
C31 C 0.38753 0.00168 0.05483 0.0
O32 O 0.37944 0.98579 0.04117 0.0
O33 O 0.36905 0.03222 0.00519 0.0
C34 C 0.39273 0.00581 0.97728 0.0
O35 O 0.40542 0.01736 0.99447 0.0
C36 C 0.33238 0.9752 0.01482 0.0
O37 O 0.33787 0.97057 0.99266 0.0
O38 O 0.38536 0.01455 0.04707 0.0
C39 C 0.97515 0.64939 0.98979 0.0
O40 O 0.99104 0.65504 0.97847 0.0
O41 O 0.01204 0.65208 0.02207 0.0
Zn42 Zn 0.98722 0.62904 0.0157 0.0
O43 O 0.98711 0.61406 0.98306 0.0
C44 C 0.98325 0.62029 0.07247 0.0
O45 O 0.98986 0.63818 0.0753 0.0
O46 O 0.96969 0.63736 0.00812 0.0
C47 C 0.99905 0.62047 0.96441 0.0
O48 O 0.01281 0.63767 0.96666 0.0
C49 C 0.02451 0.65192 0.03517 0.0
O50 O 0.02159 0.63611 0.04395 0.0
O51 O 0.98011 0.61306 0.04867 0.0
C52 C 0.31966 0.35829 0.01284 0.0
O53 O 0.31993 0.34914 0.99102 0.0
O54 O 0.35039 0.34391 0.00437 0.0
Zn55 Zn 0.35741 0.37008 0.01398 0.0
O56 O 0.3747 0.37995 0.04572 0.0
C57 C 0.38489 0.39152 0.9746 0.0
O58 O 0.39448 0.3875 0.99021 0.0
O59 O 0.33448 0.36898 0.02542 0.0
C60 C 0.38496 0.39723 0.05086 0.0
O61 O 0.38455 0.40905 0.03472 0.0
C62 C 0.36143 0.33829 0.0031 0.0
O63 O 0.37866 0.34992 0.00895 0.0
O64 O 0.3685 0.38581 0.98105 0.0
C65 C 0.64761 0.9691 0.00395 0.0
O66 O 0.65563 0.97763 0.9815 0.0
O67 O 0.65266 0.01343 0.99159 0.0
Zn68 Zn 0.62941 0.98972 0.00077 0.0
O69 O 0.61413 0.99273 0.02931 0.0
C70 C 0.61217 0.9918 0.95472 0.0
O71 O 0.62032 0.00883 0.96481 0.0
O72 O 0.63575 0.97182 0.01483 0.0
C73 C 0.61884 0.00536 0.04755 0.0
O74 O 0.63585 0.01915 0.04891 0.0
C75 C 0.66685 0.02195 0.00636 0.0
O76 O 0.66675 0.01584 0.03058 0.0
O77 O 0.61413 0.97992 0.9668 0.0
C78 C 0.69061 0.68678 0.36469 0.0
O79 O 0.67437 0.67922 0.37565 0.0
O80 O 0.65283 0.68245 0.33087 0.0
Zn81 Zn 0.67646 0.70613 0.34043 0.0
O82 O 0.67504 0.71931 0.37419 0.0
C83 C 0.67062 0.72249 0.29565 0.0
O84 O 0.65389 0.71169 0.30432 0.0
O85 O 0.69529 0.69944 0.34758 0.0
C86 C 0.66339 0.72377 0.37962 0.0
O87 O 0.65011 0.71909 0.36237 0.0
C88 C 0.63935 0.67197 0.34583 0.0
O89 O 0.63952 0.67635 0.37167 0.0
O90 O 0.68354 0.72297 0.30847 0.0
C91 C 0.33532 0.97685 0.34202 0.0
O92 O 0.33615 0.98808 0.3617 0.0
O93 O 0.30347 0.99026 0.35172 0.0
Zn94 Zn 0.2969 0.96407 0.34352 0.0
O95 O 0.27882 0.952 0.31292 0.0
C96 C 0.29255 0.95596 0.40041 0.0
O97 O 0.30592 0.97336 0.40239 0.0
O98 O 0.31989 0.96506 0.33181 0.0
C99 C 0.27653 0.96071 0.29445 0.0
O100 O 0.2859 0.97892 0.2955 0.0
C101 C 0.29253 0.99548 0.35825 0.0
O102 O 0.27499 0.98315 0.35907 0.0
O103 O 0.28643 0.94884 0.377 0.0
C104 C 0.02372 0.36626 0.34958 0.0
O105 O 0.01556 0.3569 0.37142 0.0
O106 O 0.00965 0.31874 0.35557 0.0
Zn107 Zn 0.0343 0.33901 0.34323 0.0
O108 O 0.04117 0.33086 0.30859 0.0
C109 C 0.05494 0.33093 0.37807 0.0
O110 O 0.048 0.31629 0.36165 0.0
O111 O 0.03317 0.3616 0.33535 0.0
C112 C 0.05738 0.3352 0.30327 0.0
O113 O 0.0704 0.34545 0.32083 0.0
C114 C 0.99473 0.31463 0.34457 0.0
O115 O 0.99507 0.32365 0.32312 0.0
O116 O 0.05157 0.34355 0.37381 0.0
C117 C 0.64057 0.9778 0.3157 0.0
O118 O 0.65668 0.98832 0.30471 0.0
O119 O 0.68062 0.9957 0.35507 0.0
Zn120 Zn 0.66215 0.96893 0.34564 0.0
O121 O 0.67077 0.96088 0.3129 0.0
C122 C 0.66741 0.94617 0.38295 0.0
O123 O 0.67999 0.94849 0.36541 0.0
O124 O 0.63904 0.96748 0.335 0.0
C125 C 0.66363 0.94404 0.30514 0.0
O126 O 0.65074 0.93095 0.31989 0.0
C127 C 0.69601 0.00097 0.36557 0.0
O128 O 0.70024 0.98858 0.37065 0.0
O129 O 0.65791 0.95324 0.37826 0.0
C130 C 0.99649 0.69082 0.36635 0.0
O131 O 0.00452 0.68334 0.37827 0.0
O132 O 0.0248 0.68049 0.32725 0.0
Zn133 Zn 0.02948 0.70548 0.33958 0.0
O134 O 0.04427 0.7151 0.37399 0.0
C135 C 0.0581 0.73647 0.30898 0.0
O136 O 0.06677 0.74191 0.3323 0.0
O137 O 0.00493 0.70213 0.34748 0.0
C138 C 0.05876 0.71543 0.37952 0.0
O139 O 0.06554 0.70901 0.36141 0.0
C140 C 0.02573 0.6682 0.33994 0.0
O141 O 0.03085 0.67129 0.36552 0.0
O142 O 0.04205 0.7223 0.30818 0.0
C143 C 0.3133 0.31297 0.36645 0.0
O144 O 0.32053 0.32922 0.37895 0.0
O145 O 0.32354 0.35103 0.32454 0.0
Zn146 Zn 0.29896 0.33034 0.33732 0.0
O147 O 0.28929 0.33706 0.37052 0.0
C148 C 0.27531 0.33341 0.30094 0.0
O149 O 0.28107 0.3486 0.31578 0.0
O150 O 0.30233 0.30929 0.34694 0.0
C151 C 0.29217 0.35287 0.37802 0.0
O152 O 0.30264 0.36742 0.36335 0.0
C153 C 0.33641 0.36433 0.3382 0.0
O154 O 0.33427 0.36637 0.36425 0.0
O155 O 0.28109 0.32281 0.30633 0.0
C156 C 0.36406 0.02868 0.70596 0.0
O157 O 0.35321 0.03076 0.7226 0.0
O158 O 0.32291 0.01638 0.65974 0.0
Zn159 Zn 0.34681 0.03984 0.66923 0.0
O160 O 0.3446 0.05555 0.69869 0.0
C161 C 0.34328 0.05749 0.62509 0.0
O162 O 0.32717 0.04984 0.63657 0.0
O163 O 0.36459 0.03264 0.68114 0.0
C164 C 0.33117 0.05116 0.71432 0.0
O165 O 0.3165 0.03452 0.71211 0.0
C166 C 0.31464 0.00186 0.67376 0.0
O167 O 0.32113 0.00186 0.69769 0.0
O168 O 0.35527 0.05517 0.63562 0.0
C169 C 0.00841 0.31494 0.65682 0.0
O170 O 0.00335 0.32642 0.64995 0.0
O171 O 0.98188 0.32564 0.69905 0.0
Zn172 Zn 0.97497 0.30047 0.68387 0.0
O173 O 0.95913 0.29371 0.65045 0.0
C174 C 0.94921 0.28238 0.72563 0.0
O175 O 0.94445 0.29381 0.71727 0.0
O176 O 0.99809 0.30177 0.67239 0.0
C177 C 0.94315 0.27956 0.64778 0.0
O178 O 0.93575 0.26821 0.66803 0.0
C179 C 0.978 0.33675 0.68892 0.0
O180 O 0.96852 0.33192 0.6663 0.0
O181 O 0.96234 0.28225 0.71382 0.0
C182 C 0.68759 0.69969 0.66284 0.0
O183 O 0.67525 0.68269 0.65502 0.0
O184 O 0.67797 0.65975 0.70039 0.0
Zn185 Zn 0.70234 0.68025 0.68713 0.0
O186 O 0.71007 0.672 0.65348 0.0
C187 C 0.72788 0.678 0.72157 0.0
O188 O 0.72408 0.66388 0.70523 0.0
O189 O 0.7007 0.70223 0.67757 0.0
C190 C 0.72661 0.68024 0.64599 0.0
O191 O 0.73907 0.69408 0.661 0.0
C192 C 0.66746 0.64482 0.68707 0.0
O193 O 0.67234 0.64237 0.6627 0.0
O194 O 0.72036 0.6872 0.71755 0.0
C195 C 0.31411 0.31653 0.6503 0.0
O196 O 0.33006 0.32358 0.63844 0.0
O197 O 0.35223 0.32632 0.68498 0.0
Zn198 Zn 0.3305 0.30075 0.67664 0.0
O199 O 0.33406 0.28931 0.64245 0.0
C200 C 0.33756 0.28468 0.72164 0.0
O201 O 0.35436 0.29629 0.71404 0.0
O202 O 0.31012 0.30497 0.66898 0.0
C203 C 0.34321 0.28153 0.63991 0.0
O204 O 0.35194 0.28082 0.66097 0.0
C205 C 0.36914 0.33258 0.68237 0.0
O206 O 0.37476 0.32167 0.67351 0.0
O207 O 0.3246 0.28412 0.70881 0.0
C208 C 0.65447 0.02331 0.67232 0.0
O209 O 0.6569 0.0127 0.65505 0.0
O210 O 0.69359 0.01961 0.66923 0.0
Zn211 Zn 0.69391 0.04333 0.67711 0.0
O212 O 0.70863 0.05737 0.71037 0.0
C213 C 0.72173 0.06616 0.64013 0.0
O214 O 0.7311 0.0626 0.65697 0.0
O215 O 0.66822 0.03732 0.68339 0.0
C216 C 0.71634 0.052 0.7262 0.0
O217 O 0.71533 0.03623 0.72076 0.0
C218 C 0.68402 0.00483 0.68235 0.0
O219 O 0.67474 0.00512 0.70354 0.0
O220 O 0.7049 0.05941 0.64475 0.0
C221 C 0.97394 0.63744 0.67703 0.0
O222 O 0.98781 0.64814 0.66139 0.0
O223 O 0.99132 0.68432 0.66215 0.0
Zn224 Zn 0.96564 0.66676 0.67451 0.0
O225 O 0.96006 0.67611 0.70898 0.0
C226 C 0.94837 0.6547 0.62278 0.0
O227 O 0.95989 0.64906 0.62055 0.0
O228 O 0.96289 0.64246 0.68389 0.0
C229 C 0.95033 0.68325 0.71111 0.0
O230 O 0.94392 0.68612 0.68902 0.0
C231 C 0.9993 0.70188 0.66359 0.0
O232 O 0.99054 0.70945 0.67398 0.0
O233 O 0.94814 0.66283 0.64474 0.0
H234 H 0.23133 0.34514 0.15145 0.0
N235 N 0.20814 0.3119 0.1256 0.0
H236 H 0.24591 0.34955 0.19536 0.0
H237 H 0.20226 0.2859 0.16017 0.0
H238 H 0.2166 0.29024 0.2047 0.0
H239 H 0.22132 0.29358 0.09993 0.0
H240 H 0.24718 0.30604 0.0686 0.0
H241 H 0.22542 0.34653 0.10311 0.0
H242 H 0.25085 0.35882 0.0716 0.0
H243 H 0.20421 0.3418 0.13433 0.0
H244 H 0.17553 0.28376 0.11172 0.0
H245 H 0.17665 0.34226 0.12846 0.0
H246 H 0.14725 0.28344 0.1086 0.0
H247 H 0.09213 0.33901 0.13864 0.0
H248 H 0.08321 0.34399 0.18366 0.0
H249 H 0.06828 0.2889 0.20545 0.0
H250 H 0.07659 0.2835 0.15955 0.0
H251 H 0.05809 0.28934 0.09349 0.0
H252 H 0.04662 0.30187 0.06065 0.0
H253 H 0.09864 0.3534 0.06163 0.0
H254 H 0.10997 0.34081 0.09474 0.0
H255 H 0.1209 0.33301 0.14673 0.0
H256 H 0.14962 0.33451 0.14732 0.0
H257 H 0.12955 0.2909 0.08529 0.0
N258 N 0.08993 0.30712 0.11888 0.0
H259 H 0.10005 0.28826 0.087 0.0
C260 C 0.21561 0.31511 0.15256 0.0
C261 C 0.22777 0.33308 0.16303 0.0
C262 C 0.23606 0.33559 0.18825 0.0
C263 C 0.23226 0.32023 0.20357 0.0
C264 C 0.21981 0.30231 0.1933 0.0
C265 C 0.21155 0.29982 0.16804 0.0
C266 C 0.22137 0.319 0.10403 0.0
C267 C 0.2275 0.30773 0.09339 0.0
C268 C 0.24222 0.31485 0.07551 0.0
C269 C 0.25114 0.33347 0.06801 0.0
C270 C 0.24441 0.34451 0.07747 0.0
C271 C 0.22971 0.33738 0.09542 0.0
C272 C 0.19204 0.31278 0.1227 0.0
C273 C 0.192 0.32914 0.12788 0.0
C274 C 0.17599 0.32926 0.12504 0.0
C275 C 0.15947 0.31289 0.11798 0.0
C276 C 0.15963 0.29649 0.11328 0.0
C277 C 0.17576 0.29654 0.11534 0.0
C278 C 0.08465 0.3106 0.14535 0.0
C279 C 0.08664 0.32778 0.15267 0.0
C280 C 0.08164 0.33071 0.1785 0.0
C281 C 0.07503 0.31679 0.19772 0.0
C282 C 0.07333 0.29978 0.19077 0.0
C283 C 0.078 0.2967 0.16469 0.0
C284 C 0.0848 0.31406 0.09653 0.0
C285 C 0.06714 0.30315 0.08607 0.0
C286 C 0.06067 0.3103 0.06722 0.0
C287 C 0.07181 0.32856 0.05843 0.0
C288 C 0.08981 0.33927 0.06802 0.0
C289 C 0.09631 0.33206 0.08683 0.0
C290 C 0.108 0.31006 0.11731 0.0
C291 C 0.12254 0.32362 0.1334 0.0
C292 C 0.13922 0.32465 0.1334 0.0
C293 C 0.14207 0.31266 0.11661 0.0
C294 C 0.12783 0.29996 0.09925 0.0
C295 C 0.11097 0.29856 0.09989 0.0
H296 H 0.71209 0.77846 0.14254 0.0
N297 N 0.69162 0.79002 0.12193 0.0
H298 H 0.70793 0.76331 0.18599 0.0
H299 H 0.66834 0.78716 0.1631 0.0
H300 H 0.6646 0.77271 0.20647 0.0
H301 H 0.6551 0.76368 0.12286 0.0
H302 H 0.63963 0.73554 0.09436 0.0
H303 H 0.70474 0.7822 0.07798 0.0
H304 H 0.68936 0.75374 0.04969 0.0
H305 H 0.72066 0.82367 0.11665 0.0
H306 H 0.6621 0.79414 0.11972 0.0
H307 H 0.72177 0.85294 0.11359 0.0
H308 H 0.66301 0.82319 0.11869 0.0
H309 H 0.71587 0.94006 0.15314 0.0
H310 H 0.70969 0.94848 0.19825 0.0
H311 H 0.65799 0.89658 0.19952 0.0
H312 H 0.6648 0.88786 0.15514 0.0
H313 H 0.6585 0.89706 0.11411 0.0
H314 H 0.64668 0.90929 0.08174 0.0
H315 H 0.70138 0.94769 0.05432 0.0
H316 H 0.71311 0.93482 0.08627 0.0
H317 H 0.7189 0.9028 0.14225 0.0
H318 H 0.71817 0.87369 0.14038 0.0
H319 H 0.66822 0.84831 0.09393 0.0
N320 N 0.69449 0.90962 0.12352 0.0
H321 H 0.66842 0.87692 0.09745 0.0
C322 C 0.69062 0.78399 0.14935 0.0
C323 C 0.70192 0.77752 0.15665 0.0
C324 C 0.69953 0.76889 0.18142 0.0
C325 C 0.68573 0.76656 0.19934 0.0
C326 C 0.67508 0.77396 0.19274 0.0
C327 C 0.67737 0.78244 0.16792 0.0
C328 C 0.68119 0.77508 0.10256 0.0
C329 C 0.66258 0.76197 0.10645 0.0
C330 C 0.65376 0.74578 0.09029 0.0
C331 C 0.66339 0.74235 0.07015 0.0
C332 C 0.6816 0.75606 0.06503 0.0
C333 C 0.6904 0.77228 0.08116 0.0
C334 C 0.69141 0.80675 0.11874 0.0
C335 C 0.70806 0.82355 0.11678 0.0
C336 C 0.70863 0.84026 0.11531 0.0
C337 C 0.69249 0.84058 0.11627 0.0
C338 C 0.67574 0.8236 0.11757 0.0
C339 C 0.67519 0.80686 0.11847 0.0
C340 C 0.69073 0.91355 0.15066 0.0
C341 C 0.70329 0.93049 0.16332 0.0
C342 C 0.69964 0.93533 0.18891 0.0
C343 C 0.68313 0.92339 0.20214 0.0
C344 C 0.67078 0.9061 0.18979 0.0
C345 C 0.67458 0.90117 0.16433 0.0
C346 C 0.68679 0.91495 0.10249 0.0
C347 C 0.66797 0.90782 0.10081 0.0
C348 C 0.6612 0.91489 0.08232 0.0
C349 C 0.67307 0.9294 0.06537 0.0
C350 C 0.69183 0.93621 0.06662 0.0
C351 C 0.69857 0.92898 0.08495 0.0
C352 C 0.69385 0.8923 0.12008 0.0
C353 C 0.70782 0.89093 0.13162 0.0
C354 C 0.70744 0.87427 0.13029 0.0
C355 C 0.69315 0.85852 0.11689 0.0
C356 C 0.67928 0.85999 0.10485 0.0
C357 C 0.6795 0.87658 0.10666 0.0
H358 H 0.13214 0.76166 0.1753 0.0
N359 N 0.1211 0.76745 0.12867 0.0
H360 H 0.11759 0.75694 0.21994 0.0
H361 H 0.09105 0.76944 0.14099 0.0
H362 H 0.07673 0.76509 0.18537 0.0
H363 H 0.0947 0.76493 0.09549 0.0
H364 H 0.07265 0.73731 0.06939 0.0
H365 H 0.12311 0.73792 0.11705 0.0
H366 H 0.10206 0.71074 0.08913 0.0
H367 H 0.15564 0.78065 0.11619 0.0
H368 H 0.11521 0.79577 0.12089 0.0
H369 H 0.17917 0.81283 0.10767 0.0
H370 H 0.13867 0.8281 0.11414 0.0
H371 H 0.24412 0.90173 0.14211 0.0
H372 H 0.25619 0.91496 0.18693 0.0
H373 H 0.21633 0.93072 0.19646 0.0
H374 H 0.2039 0.91704 0.1512 0.0
H375 H 0.2267 0.93252 0.09137 0.0
H376 H 0.2535 0.94958 0.06233 0.0
H377 H 0.26344 0.90487 0.06654 0.0
H378 H 0.23657 0.88779 0.09501 0.0
H379 H 0.21787 0.87235 0.13682 0.0
H380 H 0.1945 0.83986 0.13486 0.0
H381 H 0.16077 0.85204 0.08666 0.0
N382 N 0.21581 0.90111 0.11627 0.0
H383 H 0.18422 0.88512 0.08998 0.0
C384 C 0.11275 0.76586 0.1548 0.0
C385 C 0.12016 0.76261 0.1775 0.0
C386 C 0.11193 0.76008 0.20295 0.0
C387 C 0.09614 0.76085 0.20614 0.0
C388 C 0.08889 0.76443 0.18346 0.0
C389 C 0.09712 0.76694 0.15803 0.0
C390 C 0.11028 0.75323 0.10869 0.0
C391 C 0.09642 0.75319 0.09409 0.0
C392 C 0.08398 0.73745 0.07877 0.0
C393 C 0.08553 0.72172 0.07717 0.0
C394 C 0.10028 0.72247 0.09025 0.0
C395 C 0.11242 0.73801 0.10599 0.0
C396 C 0.1338 0.78586 0.11965 0.0
C397 C 0.15185 0.79093 0.11512 0.0
C398 C 0.16528 0.80937 0.11058 0.0
C399 C 0.16095 0.82322 0.11088 0.0
C400 C 0.14257 0.81787 0.11371 0.0
C401 C 0.12909 0.79933 0.11784 0.0
C402 C 0.22284 0.90815 0.14329 0.0
C403 C 0.23769 0.90771 0.1538 0.0
C404 C 0.24461 0.91527 0.17951 0.0
C405 C 0.23702 0.92363 0.19519 0.0
C406 C 0.22231 0.92424 0.18474 0.0
C407 C 0.21521 0.91642 0.15905 0.0
C408 C 0.22955 0.90892 0.0954 0.0
C409 C 0.23437 0.9262 0.08535 0.0
C410 C 0.24971 0.93594 0.06895 0.0
C411 C 0.26054 0.92854 0.06223 0.0
C412 C 0.25518 0.91078 0.07105 0.0
C413 C 0.23981 0.90102 0.08746 0.0
C414 C 0.20274 0.88141 0.11387 0.0
C415 C 0.20553 0.86825 0.12586 0.0
C416 C 0.19212 0.84944 0.12438 0.0
C417 C 0.17566 0.8432 0.11056 0.0
C418 C 0.17314 0.85632 0.09783 0.0
C419 C 0.18654 0.87521 0.09955 0.0
H420 H 0.34666 0.25158 0.88108 0.0
N421 N 0.31636 0.21976 0.89823 0.0
H422 H 0.35114 0.26555 0.83695 0.0
H423 H 0.29352 0.20667 0.85602 0.0
H424 H 0.29811 0.22057 0.81124 0.0
H425 H 0.30011 0.23863 0.90811 0.0
H426 H 0.31067 0.26596 0.93771 0.0
H427 H 0.34232 0.23136 0.93982 0.0
H428 H 0.35235 0.25812 0.96974 0.0
H429 H 0.35144 0.22767 0.89333 0.0
H430 H 0.29595 0.18345 0.90567 0.0
H431 H 0.36131 0.20569 0.89306 0.0
H432 H 0.30551 0.16094 0.90364 0.0
H433 H 0.37967 0.12653 0.84977 0.0
H434 H 0.37224 0.10888 0.80671 0.0
H435 H 0.31588 0.09213 0.81652 0.0
H436 H 0.32344 0.10974 0.85986 0.0
H437 H 0.3266 0.09734 0.90212 0.0
H438 H 0.3263 0.07468 0.93179 0.0
H439 H 0.38448 0.11002 0.9423 0.0
H440 H 0.38455 0.13298 0.91325 0.0
H441 H 0.3708 0.16109 0.86076 0.0
H442 H 0.36104 0.18322 0.86527 0.0
H443 H 0.3207 0.14838 0.92426 0.0
N444 N 0.35697 0.12877 0.88411 0.0
H445 H 0.32975 0.12583 0.91827 0.0
C446 C 0.3197 0.22796 0.87182 0.0
C447 C 0.33605 0.24454 0.86591 0.0
C448 C 0.33864 0.2525 0.84061 0.0
C449 C 0.32507 0.24399 0.82055 0.0
C450 C 0.30878 0.22739 0.82636 0.0
C451 C 0.30618 0.21942 0.85178 0.0
C452 C 0.32075 0.23319 0.92039 0.0
C453 C 0.3114 0.24265 0.92173 0.0
C454 C 0.31744 0.25826 0.93872 0.0
C455 C 0.33277 0.26458 0.95537 0.0
C456 C 0.341 0.25406 0.95622 0.0
C457 C 0.33515 0.23858 0.93889 0.0
C458 C 0.32288 0.20723 0.8999 0.0
C459 C 0.34133 0.21319 0.89597 0.0
C460 C 0.34694 0.20048 0.89554 0.0
C461 C 0.33422 0.1814 0.89805 0.0
C462 C 0.31579 0.1755 0.90211 0.0
C463 C 0.31024 0.18832 0.90314 0.0
C464 C 0.35219 0.1195 0.85785 0.0
C465 C 0.36578 0.11926 0.84238 0.0
C466 C 0.36152 0.10927 0.81779 0.0
C467 C 0.34352 0.09935 0.80813 0.0
C468 C 0.32986 0.09971 0.82352 0.0
C469 C 0.33416 0.10976 0.84818 0.0
C470 C 0.35565 0.117 0.90567 0.0
C471 C 0.33919 0.10055 0.91153 0.0
C472 C 0.33906 0.08752 0.92834 0.0
C473 C 0.35536 0.09056 0.93937 0.0
C474 C 0.37164 0.10742 0.93459 0.0
C475 C 0.37173 0.12053 0.91795 0.0
C476 C 0.35119 0.14179 0.88909 0.0
C477 C 0.35987 0.15828 0.87471 0.0
C478 C 0.35434 0.171 0.87754 0.0
C479 C 0.34013 0.16776 0.89536 0.0
C480 C 0.33152 0.15128 0.91007 0.0
C481 C 0.33685 0.13835 0.9068 0.0
H482 H 0.73985 0.11981 0.87267 0.0
N483 N 0.76697 0.12349 0.90248 0.0
H484 H 0.72867 0.10309 0.82898 0.0
H485 H 0.7831 0.10855 0.87107 0.0
H486 H 0.77241 0.09249 0.82735 0.0
H487 H 0.76425 0.0904 0.91155 0.0
H488 H 0.74184 0.06619 0.94098 0.0
H489 H 0.74705 0.12727 0.94069 0.0
H490 H 0.72493 0.10316 0.97086 0.0
H491 H 0.78116 0.15975 0.90292 0.0
H492 H 0.79504 0.11855 0.91458 0.0
H493 H 0.81306 0.18425 0.90792 0.0
H494 H 0.82716 0.14266 0.91695 0.0
H495 H 0.90198 0.25141 0.88411 0.0
H496 H 0.91297 0.26444 0.83971 0.0
H497 H 0.92148 0.21981 0.81829 0.0
H498 H 0.91084 0.20694 0.86363 0.0
H499 H 0.93186 0.23131 0.92579 0.0
H500 H 0.94966 0.25781 0.95696 0.0
H501 H 0.90482 0.26664 0.9625 0.0
H502 H 0.88723 0.24038 0.93097 0.0
H503 H 0.87122 0.22131 0.8811 0.0
H504 H 0.83936 0.19785 0.8837 0.0
H505 H 0.85175 0.16715 0.9388 0.0
N506 N 0.89971 0.22034 0.90401 0.0
H507 H 0.88416 0.19024 0.93406 0.0
C508 C 0.76233 0.11559 0.87526 0.0
C509 C 0.74713 0.11407 0.86268 0.0
C510 C 0.74078 0.10453 0.83778 0.0
C511 C 0.74952 0.09626 0.82497 0.0
C512 C 0.76516 0.09837 0.83704 0.0
C513 C 0.77144 0.10782 0.86201 0.0
C514 C 0.75713 0.11061 0.92369 0.0
C515 C 0.75606 0.09351 0.92483 0.0
C516 C 0.74327 0.07968 0.94164 0.0
C517 C 0.73171 0.08289 0.95803 0.0
C518 C 0.73382 0.10046 0.95854 0.0
C519 C 0.7464 0.11419 0.94138 0.0
C520 C 0.78577 0.13738 0.90769 0.0
C521 C 0.79119 0.15603 0.90638 0.0
C522 C 0.8095 0.17 0.90892 0.0
C523 C 0.82297 0.16557 0.91215 0.0
C524 C 0.81734 0.14677 0.91461 0.0
C525 C 0.79891 0.13284 0.91283 0.0
C526 C 0.90564 0.22812 0.87738 0.0
C527 C 0.90622 0.24436 0.87008 0.0
C528 C 0.91231 0.25171 0.84446 0.0
C529 C 0.91781 0.24298 0.82538 0.0
C530 C 0.91728 0.22679 0.83261 0.0
C531 C 0.91118 0.21942 0.85838 0.0
C532 C 0.9083 0.23386 0.92595 0.0
C533 C 0.92575 0.23873 0.93422 0.0
C534 C 0.93587 0.25383 0.95199 0.0
C535 C 0.9287 0.26443 0.9618 0.0
C536 C 0.91078 0.2589 0.95484 0.0
C537 C 0.90066 0.24377 0.93702 0.0
C538 C 0.88034 0.20738 0.90689 0.0
C539 C 0.86728 0.20953 0.89356 0.0
C540 C 0.84879 0.19608 0.89547 0.0
C541 C 0.84272 0.18038 0.91144 0.0
C542 C 0.85579 0.17872 0.92574 0.0
C543 C 0.87435 0.192 0.92329 0.0
H544 H 0.79118 0.72502 0.87067 0.0
N545 N 0.79425 0.70023 0.89775 0.0
H546 H 0.77741 0.72098 0.82587 0.0
H547 H 0.78214 0.67005 0.86337 0.0
H548 H 0.7674 0.66543 0.81947 0.0
H549 H 0.76596 0.66441 0.90445 0.0
H550 H 0.73968 0.65481 0.93382 0.0
H551 H 0.79121 0.72016 0.93763 0.0
H552 H 0.76505 0.71044 0.96786 0.0
H553 H 0.82835 0.72797 0.89458 0.0
H554 H 0.79561 0.66933 0.90824 0.0
H555 H 0.85591 0.72682 0.89733 0.0
H556 H 0.82312 0.66807 0.91205 0.0
H557 H 0.92752 0.72651 0.86082 0.0
H558 H 0.9376 0.72341 0.81504 0.0
H559 H 0.91064 0.66429 0.8244 0.0
H560 H 0.90067 0.66737 0.86968 0.0
H561 H 0.89274 0.66492 0.91697 0.0
H562 H 0.90773 0.65284 0.94375 0.0
H563 H 0.95606 0.70764 0.94896 0.0
H564 H 0.94123 0.71939 0.92113 0.0
H565 H 0.90356 0.72403 0.92259 0.0
H566 H 0.87489 0.72313 0.92725 0.0
H567 H 0.84705 0.67009 0.88429 0.0
N568 N 0.90932 0.69985 0.89646 0.0
H569 H 0.87555 0.67074 0.881 0.0
C570 C 0.78759 0.69786 0.87039 0.0
C571 C 0.78632 0.71214 0.85926 0.0
C572 C 0.77836 0.70974 0.83381 0.0
C573 C 0.77133 0.6929 0.81905 0.0
C574 C 0.77301 0.67873 0.82999 0.0
C575 C 0.78124 0.68125 0.8553 0.0
C576 C 0.78049 0.69317 0.91856 0.0
C577 C 0.76613 0.67451 0.91853 0.0
C578 C 0.75109 0.66898 0.93546 0.0
C579 C 0.75018 0.68197 0.95268 0.0
C580 C 0.76524 0.70023 0.95432 0.0
C581 C 0.78022 0.70577 0.93728 0.0
C582 C 0.81 0.69886 0.90135 0.0
C583 C 0.82718 0.7149 0.89863 0.0
C584 C 0.8429 0.7142 0.90041 0.0
C585 C 0.84179 0.69736 0.90514 0.0
C586 C 0.82449 0.68124 0.90817 0.0
C587 C 0.8087 0.68196 0.90619 0.0
C588 C 0.91352 0.69729 0.86883 0.0
C589 C 0.92365 0.71289 0.8528 0.0
C590 C 0.92936 0.71111 0.82677 0.0
C591 C 0.92511 0.69366 0.8165 0.0
C592 C 0.91436 0.67794 0.83212 0.0
C593 C 0.9086 0.67971 0.85801 0.0
C594 C 0.91603 0.69306 0.91678 0.0
C595 C 0.90643 0.67439 0.92429 0.0
C596 C 0.91496 0.66753 0.93982 0.0
C597 C 0.93311 0.67929 0.94834 0.0
C598 C 0.94213 0.69821 0.94243 0.0
C599 C 0.93368 0.70497 0.92673 0.0
C600 C 0.89181 0.69769 0.90111 0.0
C601 C 0.89118 0.7121 0.91459 0.0
C602 C 0.87481 0.71161 0.917 0.0
C603 C 0.85868 0.69669 0.90568 0.0
C604 C 0.85916 0.68176 0.89335 0.0
C605 C 0.87555 0.6822 0.89122 0.0
H606 H 0.73525 0.62588 0.49688 0.0
N607 N 0.76353 0.64922 0.46703 0.0
H608 H 0.72633 0.63201 0.54152 0.0
H609 H 0.78316 0.6808 0.49841 0.0
H610 H 0.77384 0.68747 0.54223 0.0
H611 H 0.77266 0.68474 0.45675 0.0
H612 H 0.75672 0.69347 0.42613 0.0
H613 H 0.73892 0.62765 0.4299 0.0
H614 H 0.72301 0.63642 0.39861 0.0
H615 H 0.76918 0.62191 0.47411 0.0
H616 H 0.79654 0.67918 0.45194 0.0
H617 H 0.79773 0.62265 0.46999 0.0
H618 H 0.82504 0.67991 0.44651 0.0
H619 H 0.87443 0.61966 0.48246 0.0
H620 H 0.88921 0.61933 0.52447 0.0
H621 H 0.91412 0.6786 0.53376 0.0
H622 H 0.89932 0.67883 0.49216 0.0
H623 H 0.90345 0.68535 0.44565 0.0
H624 H 0.93095 0.69612 0.41827 0.0
H625 H 0.91223 0.63948 0.39415 0.0
H626 H 0.88516 0.62882 0.4225 0.0
H627 H 0.84672 0.62305 0.43901 0.0
H628 H 0.8188 0.62373 0.43812 0.0
H629 H 0.84823 0.67971 0.47175 0.0
N630 N 0.87902 0.64915 0.45756 0.0
H631 H 0.87618 0.67915 0.47104 0.0
C632 C 0.75966 0.65291 0.4942 0.0
C633 C 0.7438 0.63926 0.5069 0.0
C634 C 0.73864 0.64288 0.53219 0.0
C635 C 0.74912 0.66041 0.54507 0.0
C636 C 0.76543 0.67386 0.53277 0.0
C637 C 0.77071 0.67012 0.50762 0.0
C638 C 0.75692 0.65543 0.44569 0.0
C639 C 0.76222 0.67413 0.44369 0.0
C640 C 0.75314 0.67916 0.42598 0.0
C641 C 0.73866 0.66563 0.40991 0.0
C642 C 0.73412 0.64712 0.4108 0.0
C643 C 0.7432 0.64211 0.42853 0.0
C644 C 0.78062 0.65033 0.4631 0.0
C645 C 0.78134 0.63457 0.46795 0.0
C646 C 0.79767 0.63502 0.46537 0.0
C647 C 0.81373 0.6513 0.45761 0.0
C648 C 0.81299 0.66717 0.45271 0.0
C649 C 0.79661 0.66673 0.45558 0.0
C650 C 0.88567 0.64917 0.48419 0.0
C651 C 0.88278 0.63249 0.49393 0.0
C652 C 0.89134 0.63236 0.5177 0.0
C653 C 0.90299 0.64899 0.5321 0.0
C654 C 0.90516 0.66559 0.52307 0.0
C655 C 0.89665 0.66571 0.49925 0.0
C656 C 0.89244 0.65622 0.43638 0.0
C657 C 0.90505 0.6753 0.43397 0.0
C658 C 0.9207 0.68146 0.41812 0.0
C659 C 0.92379 0.66861 0.40428 0.0
C660 C 0.91028 0.64967 0.40482 0.0
C661 C 0.89478 0.64356 0.4208 0.0
C662 C 0.8634 0.65087 0.45543 0.0
C663 C 0.84711 0.63552 0.44583 0.0
C664 C 0.83117 0.6359 0.44562 0.0
C665 C 0.83113 0.65166 0.45535 0.0
C666 C 0.84772 0.66736 0.464 0.0
C667 C 0.86375 0.66701 0.46388 0.0
H668 H 0.37526 0.10739 0.46516 0.0
N669 N 0.35436 0.11981 0.44956 0.0
H670 H 0.37444 0.09365 0.50856 0.0
H671 H 0.33555 0.11974 0.49545 0.0
H672 H 0.33533 0.1069 0.53888 0.0
H673 H 0.31906 0.0919 0.45793 0.0
H674 H 0.30265 0.06283 0.4317 0.0
H675 H 0.36368 0.11257 0.40135 0.0
H676 H 0.34692 0.08377 0.37411 0.0
H677 H 0.38233 0.15306 0.43812 0.0
H678 H 0.32467 0.12352 0.45347 0.0
H679 H 0.38272 0.18188 0.43454 0.0
H680 H 0.32504 0.15241 0.45223 0.0
H681 H 0.38056 0.2689 0.48188 0.0
H682 H 0.37704 0.27801 0.52829 0.0
H683 H 0.32429 0.22772 0.53351 0.0
H684 H 0.32804 0.21851 0.48732 0.0
H685 H 0.3208 0.22808 0.44698 0.0
H686 H 0.30971 0.24413 0.42078 0.0
H687 H 0.3639 0.28049 0.38996 0.0
H688 H 0.37501 0.26441 0.41653 0.0
H689 H 0.3828 0.23286 0.46463 0.0
H690 H 0.38182 0.2037 0.46194 0.0
H691 H 0.32752 0.17667 0.42808 0.0
N692 N 0.35665 0.23896 0.45335 0.0
H693 H 0.32824 0.2057 0.43272 0.0
C694 C 0.35565 0.11477 0.47684 0.0
C695 C 0.36682 0.10768 0.48141 0.0
C696 C 0.3664 0.09991 0.50626 0.0
C697 C 0.35488 0.09928 0.52722 0.0
C698 C 0.34426 0.10709 0.52305 0.0
C699 C 0.34452 0.11464 0.49812 0.0
C700 C 0.34276 0.10431 0.43172 0.0
C701 C 0.32508 0.09042 0.43937 0.0
C702 C 0.31562 0.07382 0.42418 0.0
C703 C 0.32351 0.07097 0.40083 0.0
C704 C 0.34058 0.08549 0.39216 0.0
C705 C 0.35011 0.10196 0.40754 0.0
C706 C 0.35364 0.13627 0.4466 0.0
C707 C 0.36978 0.15288 0.44095 0.0
C708 C 0.36996 0.16937 0.43919 0.0
C709 C 0.35398 0.1697 0.44365 0.0
C710 C 0.33762 0.15282 0.44846 0.0
C711 C 0.33741 0.13624 0.44955 0.0
C712 C 0.35454 0.24321 0.48116 0.0
C713 C 0.36834 0.2598 0.49319 0.0
C714 C 0.36633 0.26494 0.51959 0.0
C715 C 0.35034 0.25362 0.53423 0.0
C716 C 0.33664 0.23676 0.52242 0.0
C717 C 0.33876 0.23152 0.49611 0.0
C718 C 0.34884 0.24507 0.43369 0.0
C719 C 0.33023 0.23908 0.43396 0.0
C720 C 0.32385 0.24824 0.41887 0.0
C721 C 0.33595 0.26355 0.40337 0.0
C722 C 0.35429 0.26873 0.40179 0.0
C723 C 0.36063 0.25953 0.41678 0.0
C724 C 0.35576 0.22163 0.44873 0.0
C725 C 0.37075 0.22063 0.45643 0.0
C726 C 0.37018 0.20391 0.45465 0.0
C727 C 0.35463 0.18767 0.44456 0.0
C728 C 0.33965 0.18875 0.43631 0.0
C729 C 0.34011 0.2055 0.43866 0.0
H730 H 0.77657 0.10211 0.48503 0.0
N731 N 0.76787 0.12452 0.45914 0.0
H732 H 0.76677 0.08976 0.53041 0.0
H733 H 0.74987 0.13286 0.49502 0.0
H734 H 0.74025 0.12079 0.54085 0.0
H735 H 0.73453 0.10849 0.43934 0.0
H736 H 0.71825 0.07973 0.41223 0.0
H737 H 0.78335 0.10649 0.43412 0.0
H738 H 0.76738 0.07819 0.40631 0.0
H739 H 0.80151 0.12877 0.46471 0.0
H740 H 0.77409 0.1572 0.44528 0.0
H741 H 0.83078 0.15728 0.46005 0.0
H742 H 0.80323 0.18633 0.44325 0.0
H743 H 0.91265 0.24283 0.48172 0.0
H744 H 0.92596 0.25153 0.52706 0.0
H745 H 0.8884 0.26859 0.54992 0.0
H746 H 0.87521 0.26019 0.50395 0.0
H747 H 0.90024 0.27993 0.44154 0.0
H748 H 0.92549 0.29421 0.40917 0.0
H749 H 0.92486 0.24301 0.40208 0.0
H750 H 0.89975 0.22889 0.43476 0.0
H751 H 0.87774 0.21428 0.48639 0.0
H752 H 0.84988 0.18438 0.4825 0.0
H753 H 0.8301 0.20576 0.42225 0.0
N754 N 0.88505 0.24652 0.46235 0.0
H755 H 0.85754 0.23633 0.42839 0.0
C756 C 0.76392 0.11845 0.48671 0.0
C757 C 0.76892 0.10651 0.4972 0.0
C758 C 0.76338 0.09952 0.52321 0.0
C759 C 0.75286 0.10443 0.53921 0.0
C760 C 0.74831 0.11675 0.52891 0.0
C761 C 0.75383 0.1237 0.5029 0.0
C762 C 0.76015 0.10982 0.43875 0.0
C763 C 0.74189 0.10221 0.43153 0.0
C764 C 0.73264 0.08581 0.41594 0.0
C765 C 0.74157 0.07674 0.40694 0.0
C766 C 0.76013 0.08484 0.41304 0.0
C767 C 0.76934 0.10119 0.42886 0.0
C768 C 0.78553 0.14074 0.45459 0.0
C769 C 0.80175 0.14109 0.45896 0.0
C770 C 0.81859 0.15764 0.45687 0.0
C771 C 0.81961 0.17438 0.45141 0.0
C772 C 0.80326 0.17382 0.44683 0.0
C773 C 0.78649 0.15717 0.44817 0.0
C774 C 0.89303 0.25115 0.48922 0.0
C775 C 0.90734 0.24863 0.49621 0.0
C776 C 0.91493 0.25353 0.5222 0.0
C777 C 0.90819 0.26072 0.54185 0.0
C778 C 0.89373 0.26296 0.5351 0.0
C779 C 0.88626 0.25825 0.50894 0.0
C780 C 0.89818 0.25346 0.44061 0.0
C781 C 0.90537 0.27173 0.43262 0.0
C782 C 0.91973 0.27982 0.41414 0.0
C783 C 0.92723 0.26976 0.40339 0.0
C784 C 0.91949 0.25114 0.4104 0.0
C785 C 0.90507 0.24304 0.42889 0.0
C786 C 0.86959 0.22788 0.45822 0.0
C787 C 0.86743 0.2127 0.47247 0.0
C788 C 0.85143 0.19533 0.46986 0.0
C789 C 0.8374 0.19247 0.45227 0.0
C790 C 0.8402 0.20742 0.43671 0.0
C791 C 0.85599 0.22492 0.43993 0.0
H792 H 0.00688 0.57448 0.20977 0.0
N793 N 0.97593 0.54872 0.23596 0.0
H794 H 0.00811 0.59088 0.16916 0.0
H795 H 0.94848 0.54027 0.20261 0.0
H796 H 0.94968 0.55676 0.16167 0.0
H797 H 0.95783 0.5622 0.26096 0.0
H798 H 0.97068 0.59053 0.28943 0.0
H799 H 0.01029 0.56754 0.25775 0.0
H800 H 0.02317 0.5959 0.28643 0.0
H801 H 0.00118 0.54326 0.20906 0.0
H802 H 0.9588 0.52086 0.26954 0.0
H803 H 0.0045 0.51672 0.21285 0.0
H804 H 0.96282 0.49471 0.27478 0.0
H805 H 0.01829 0.44762 0.2149 0.0
H806 H 0.0224 0.43801 0.16939 0.0
H807 H 0.96417 0.40615 0.15787 0.0
H808 H 0.96009 0.41566 0.20373 0.0
H809 H 0.96545 0.40531 0.26566 0.0
H810 H 0.97565 0.39087 0.29727 0.0
H811 H 0.03022 0.43877 0.29402 0.0
H812 H 0.01991 0.45315 0.26252 0.0
H813 H 0.01501 0.47219 0.23605 0.0
H814 H 0.0141 0.50048 0.23843 0.0
H815 H 0.95591 0.46754 0.25136 0.0
N816 N 0.98578 0.43667 0.23993 0.0
H817 H 0.95729 0.43955 0.25053 0.0
C818 C 0.9775 0.55609 0.20932 0.0
C819 C 0.99434 0.57022 0.19919 0.0
C820 C 0.99503 0.57971 0.1761 0.0
C821 C 0.97895 0.5753 0.16268 0.0
C822 C 0.96226 0.56044 0.17175 0.0
C823 C 0.96156 0.55099 0.19497 0.0
C824 C 0.98305 0.56281 0.25723 0.0
C825 C 0.97196 0.56916 0.26716 0.0
C826 C 0.97929 0.5853 0.28328 0.0
C827 C 0.99785 0.59527 0.28989 0.0
C828 C 0.00878 0.58828 0.28165 0.0
C829 C 0.00143 0.57213 0.26531 0.0
C830 C 0.97935 0.5339 0.23866 0.0
C831 C 0.99265 0.53276 0.22337 0.0
C832 C 0.99472 0.51756 0.22582 0.0
C833 C 0.98381 0.50336 0.24395 0.0
C834 C 0.97115 0.50506 0.26008 0.0
C835 C 0.96889 0.52006 0.25727 0.0
C836 C 0.9888 0.43213 0.21279 0.0
C837 C 0.00639 0.43857 0.2027 0.0
C838 C 0.00875 0.43306 0.17672 0.0
C839 C 0.99358 0.42121 0.16037 0.0
C840 C 0.97606 0.41528 0.17015 0.0
C841 C 0.97371 0.42065 0.19623 0.0
C842 C 0.99183 0.43023 0.26168 0.0
C843 C 0.9795 0.41288 0.27235 0.0
C844 C 0.98534 0.4047 0.29046 0.0
C845 C 0.00372 0.41376 0.29822 0.0
C846 C 0.01598 0.4315 0.28835 0.0
C847 C 0.01007 0.43974 0.27034 0.0
C848 C 0.98619 0.45376 0.24361 0.0
C849 C 0.00217 0.47112 0.24017 0.0
C850 C 0.00156 0.4873 0.24111 0.0
C851 C 0.98492 0.48641 0.24506 0.0
C852 C 0.96905 0.46895 0.24888 0.0
C853 C 0.96975 0.45287 0.24829 0.0
H854 H 0.60293 0.56568 0.21992 0.0
N855 N 0.57018 0.55433 0.24049 0.0
H856 H 0.61527 0.58081 0.17643 0.0
H857 H 0.55095 0.5581 0.19967 0.0
H858 H 0.56301 0.57262 0.15637 0.0
H859 H 0.56126 0.58098 0.23976 0.0
H860 H 0.57393 0.60858 0.26942 0.0
H861 H 0.58945 0.56102 0.28545 0.0
H862 H 0.60227 0.58874 0.31522 0.0
H863 H 0.56463 0.52067 0.24423 0.0
H864 H 0.53627 0.54991 0.24268 0.0
H865 H 0.53559 0.49119 0.24534 0.0
H866 H 0.50725 0.52065 0.24175 0.0
H867 H 0.44319 0.405 0.19837 0.0
H868 H 0.42918 0.39709 0.15319 0.0
H869 H 0.42757 0.44719 0.15595 0.0
H870 H 0.44248 0.45542 0.20044 0.0
H871 H 0.42681 0.44536 0.24223 0.0
H872 H 0.40044 0.42984 0.27219 0.0
H873 H 0.41545 0.39052 0.29255 0.0
H874 H 0.44224 0.40642 0.26292 0.0
H875 H 0.48297 0.44212 0.2121 0.0
H876 H 0.5119 0.47141 0.21646 0.0
H877 H 0.4856 0.49437 0.26427 0.0
N878 N 0.45066 0.434 0.23005 0.0
H879 H 0.45666 0.46555 0.25833 0.0
C880 C 0.57606 0.56071 0.21325 0.0
C881 C 0.59409 0.56691 0.2059 0.0
C882 C 0.6011 0.5755 0.18113 0.0
C883 C 0.59015 0.57812 0.1633 0.0
C884 C 0.57184 0.5711 0.17002 0.0
C885 C 0.56488 0.5626 0.1948 0.0
C886 C 0.57452 0.56892 0.26035 0.0
C887 C 0.56976 0.58224 0.2566 0.0
C888 C 0.57704 0.59806 0.27353 0.0
C889 C 0.58904 0.60077 0.29462 0.0
C890 C 0.59282 0.58687 0.29941 0.0
C891 C 0.5856 0.57109 0.28239 0.0
C892 C 0.5527 0.53745 0.24301 0.0
C893 C 0.5521 0.52068 0.24406 0.0
C894 C 0.53545 0.50385 0.24439 0.0
C895 C 0.51894 0.5034 0.24315 0.0
C896 C 0.51959 0.52034 0.24297 0.0
C897 C 0.53628 0.53719 0.2432 0.0
C898 C 0.44373 0.43065 0.20273 0.0
C899 C 0.44006 0.41437 0.18893 0.0
C900 C 0.43199 0.40986 0.16327 0.0
C901 C 0.42729 0.42152 0.15097 0.0
C902 C 0.43133 0.43808 0.16462 0.0
C903 C 0.43963 0.4427 0.1902 0.0
C904 C 0.43672 0.42718 0.25063 0.0
C905 C 0.42484 0.43379 0.25372 0.0
C906 C 0.40975 0.42493 0.27084 0.0
C907 C 0.40606 0.40911 0.28467 0.0
C908 C 0.41814 0.40279 0.28216 0.0
C909 C 0.43341 0.41186 0.26541 0.0
C910 C 0.46754 0.4514 0.2348 0.0
C911 C 0.48349 0.45349 0.22356 0.0
C912 C 0.50008 0.47025 0.22633 0.0
C913 C 0.50124 0.48537 0.2409 0.0
C914 C 0.48525 0.48319 0.25254 0.0
C915 C 0.46856 0.46648 0.24931 0.0
H916 H 0.54284 0.9518 0.17519 0.0
N917 N 0.54003 0.97354 0.21214 0.0
H918 H 0.56061 0.96103 0.13317 0.0
H919 H 0.55815 0.00839 0.19149 0.0
H920 H 0.57612 0.0178 0.14941 0.0
H921 H 0.5693 0.00512 0.2339 0.0
H922 H 0.59239 0.00654 0.26361 0.0
H923 H 0.53836 0.94553 0.23755 0.0
H924 H 0.56169 0.94679 0.26683 0.0
H925 H 0.51 0.96204 0.1836 0.0
H926 H 0.53934 0.99623 0.25362 0.0
H927 H 0.48691 0.96995 0.19039 0.0
H928 H 0.51584 0.00329 0.26138 0.0
H929 H 0.41565 0.97877 0.20938 0.0
H930 H 0.40317 0.9784 0.16515 0.0
H931 H 0.44759 0.0345 0.15277 0.0
H932 H 0.45982 0.03496 0.19767 0.0
H933 H 0.43696 0.03039 0.2581 0.0
H934 H 0.41099 0.0217 0.28812 0.0
H935 H 0.39906 0.96549 0.28789 0.0
H936 H 0.42466 0.97407 0.25764 0.0
H937 H 0.44 0.97382 0.21904 0.0
H938 H 0.46258 0.96503 0.2172 0.0
H939 H 0.5037 0.02026 0.24512 0.0
N940 N 0.44592 0.00809 0.2336 0.0
H941 H 0.48052 0.02848 0.24872 0.0
C942 C 0.54918 0.97934 0.18637 0.0
C943 C 0.54983 0.96616 0.16941 0.0
C944 C 0.5599 0.97145 0.14544 0.0
C945 C 0.56958 0.9901 0.13796 0.0
C946 C 0.56875 0.00334 0.15475 0.0
C947 C 0.55852 0.99799 0.17871 0.0
C948 C 0.55199 0.97514 0.23363 0.0
C949 C 0.56726 0.99235 0.24156 0.0
C950 C 0.5805 0.99314 0.25846 0.0
C951 C 0.57884 0.97678 0.26757 0.0
C952 C 0.56318 0.95966 0.26062 0.0
C953 C 0.54987 0.95889 0.24386 0.0
C954 C 0.52663 0.97856 0.21769 0.0
C955 C 0.51142 0.97115 0.20055 0.0
C956 C 0.49808 0.97554 0.2047 0.0
C957 C 0.49936 0.98721 0.22659 0.0
C958 C 0.5145 0.9945 0.24405 0.0
C959 C 0.52804 0.99034 0.23961 0.0
C960 C 0.43864 0.00705 0.20698 0.0
C961 C 0.42276 0.99101 0.19725 0.0
C962 C 0.41566 0.99077 0.17187 0.0
C963 C 0.42428 0.0065 0.15567 0.0
C964 C 0.44043 0.02232 0.16508 0.0
C965 C 0.44749 0.02258 0.19056 0.0
C966 C 0.43285 0.00302 0.25536 0.0
C967 C 0.42899 0.0163 0.26504 0.0
C968 C 0.41415 0.0113 0.28215 0.0
C969 C 0.40282 0.99283 0.28992 0.0
C970 C 0.40735 0.97974 0.2817 0.0
C971 C 0.42217 0.98474 0.2645 0.0
C972 C 0.45851 0.00181 0.23452 0.0
C973 C 0.45372 0.98391 0.22554 0.0
C974 C 0.46681 0.97898 0.22402 0.0
C975 C 0.48511 0.99196 0.23071 0.0
C976 C 0.48976 0.00976 0.24017 0.0
C977 C 0.47655 0.01455 0.24216 0.0
H978 H 0.39935 0.95365 0.8246 0.0
N979 N 0.42887 0.97645 0.79646 0.0
H980 H 0.3906 0.95935 0.86966 0.0
H981 H 0.44991 0.00629 0.83016 0.0
H982 H 0.4409 0.01257 0.8747 0.0
H983 H 0.4423 0.01324 0.78773 0.0
H984 H 0.42751 0.02551 0.76097 0.0
H985 H 0.40159 0.95764 0.76168 0.0
H986 H 0.38654 0.96993 0.7352 0.0
H987 H 0.43529 0.95136 0.81442 0.0
H988 H 0.46039 0.00188 0.76954 0.0
H989 H 0.46294 0.95054 0.81009 0.0
H990 H 0.48762 0.00054 0.76367 0.0
H991 H 0.55497 0.9506 0.79834 0.0
H992 H 0.57118 0.95388 0.84057 0.0
H993 H 0.56113 0.99632 0.86923 0.0
H994 H 0.54582 0.99364 0.82697 0.0
H995 H 0.57233 0.0061 0.78751 0.0
H996 H 0.59806 0.01974 0.75666 0.0
H997 H 0.56817 0.97359 0.70002 0.0
H998 H 0.54292 0.95922 0.73237 0.0
H999 H 0.50774 0.94318 0.77957 0.0
H1000 H 0.4802 0.94454 0.78014 0.0
H1001 H 0.51333 0.00444 0.7854 0.0
N1002 N 0.54197 0.97116 0.78255 0.0
H1003 H 0.54069 0.00281 0.78292 0.0
C1004 C 0.4251 0.9796 0.82399 0.0
C1005 C 0.40854 0.96642 0.83566 0.0
C1006 C 0.40351 0.9698 0.8612 0.0
C1007 C 0.41486 0.98662 0.87539 0.0
C1008 C 0.43184 0.99953 0.86417 0.0
C1009 C 0.43695 0.99603 0.83868 0.0
C1010 C 0.4231 0.98443 0.77651 0.0
C1011 C 0.43054 0.00369 0.77558 0.0
C1012 C 0.4221 0.01072 0.76031 0.0
C1013 C 0.40594 0.99862 0.74618 0.0
C1014 C 0.39906 0.9795 0.7459 0.0
C1015 C 0.40765 0.9725 0.76087 0.0
C1016 C 0.44554 0.97657 0.79243 0.0
C1017 C 0.4467 0.96217 0.80336 0.0
C1018 C 0.46252 0.96164 0.80059 0.0
C1019 C 0.47759 0.97538 0.78625 0.0
C1020 C 0.47643 0.98983 0.77515 0.0
C1021 C 0.46065 0.99053 0.77837 0.0
C1022 C 0.54897 0.97166 0.80929 0.0
C1023 C 0.55598 0.96035 0.81399 0.0
C1024 C 0.56515 0.96218 0.83816 0.0
C1025 C 0.56735 0.97531 0.85829 0.0
C1026 C 0.55975 0.98616 0.85402 0.0
C1027 C 0.55077 0.98448 0.82978 0.0
C1028 C 0.55582 0.98135 0.76249 0.0
C1029 C 0.57118 0.99897 0.76837 0.0
C1030 C 0.58586 0.00694 0.7504 0.0
C1031 C 0.58524 0.99781 0.72571 0.0
C1032 C 0.56923 0.98088 0.719 0.0
C1033 C 0.55473 0.97271 0.73732 0.0
C1034 C 0.52619 0.97279 0.78154 0.0
C1035 C 0.50897 0.95657 0.78056 0.0
C1036 C 0.49326 0.95742 0.78118 0.0
C1037 C 0.49442 0.97462 0.78333 0.0
C1038 C 0.5118 0.99095 0.78352 0.0
C1039 C 0.52752 0.99005 0.78234 0.0
H1040 H 0.95002 0.54495 0.82618 0.0
N1041 N 0.97335 0.54299 0.79271 0.0
H1042 H 0.95687 0.56346 0.86848 0.0
H1043 H 0.00685 0.5635 0.81767 0.0
H1044 H 0.01361 0.58145 0.85998 0.0
H1045 H 0.00276 0.57543 0.7751 0.0
H1046 H 0.00187 0.59603 0.74248 0.0
H1047 H 0.94619 0.53501 0.75939 0.0
H1048 H 0.94536 0.55532 0.72582 0.0
H1049 H 0.95209 0.50671 0.79762 0.0
H1050 H 0.00677 0.54933 0.77705 0.0
H1051 H 0.96067 0.48354 0.79437 0.0
H1052 H 0.01605 0.52677 0.77635 0.0
H1053 H 0.98537 0.42188 0.81834 0.0
H1054 H 0.98364 0.40903 0.86239 0.0
H1055 H 0.03806 0.45432 0.88113 0.0
H1056 H 0.03998 0.46705 0.83608 0.0
H1057 H 0.03746 0.44425 0.7746 0.0
H1058 H 0.02965 0.41739 0.74484 0.0
H1059 H 0.97389 0.40344 0.74226 0.0
H1060 H 0.98183 0.4305 0.77155 0.0
H1061 H 0.98549 0.45177 0.82326 0.0
H1062 H 0.97566 0.47335 0.81903 0.0
H1063 H 0.01619 0.50186 0.75683 0.0
N1064 N 0.01471 0.45297 0.79702 0.0
H1065 H 0.02709 0.48082 0.76295 0.0
C1066 C 0.97779 0.55269 0.8187 0.0
C1067 C 0.96389 0.55277 0.83363 0.0
C1068 C 0.96782 0.56331 0.85773 0.0
C1069 C 0.98581 0.57407 0.86732 0.0
C1070 C 0.99968 0.57359 0.85277 0.0
C1071 C 0.99575 0.5631 0.82863 0.0
C1072 C 0.97439 0.55376 0.76997 0.0
C1073 C 0.99027 0.57076 0.76415 0.0
C1074 C 0.98976 0.58252 0.7454 0.0
C1075 C 0.97342 0.57745 0.73209 0.0
C1076 C 0.958 0.5598 0.73633 0.0
C1077 C 0.95848 0.54812 0.75523 0.0
C1078 C 0.97882 0.52974 0.7883 0.0
C1079 C 0.966 0.51104 0.79257 0.0
C1080 C 0.97104 0.49787 0.79102 0.0
C1081 C 0.98922 0.50322 0.78579 0.0
C1082 C 0.00191 0.52197 0.78033 0.0
C1083 C 0.99669 0.53505 0.78116 0.0
C1084 C 0.01292 0.44554 0.82374 0.0
C1085 C 0.99701 0.42914 0.8317 0.0
C1086 C 0.99592 0.42188 0.85713 0.0
C1087 C 0.01061 0.43084 0.87534 0.0
C1088 C 0.02652 0.44719 0.86748 0.0
C1089 C 0.02761 0.45449 0.8419 0.0
C1090 C 0.01029 0.43933 0.77547 0.0
C1091 C 0.02368 0.43567 0.76702 0.0
C1092 C 0.01916 0.42027 0.75027 0.0
C1093 C 0.00109 0.40817 0.74181 0.0
C1094 C 0.98791 0.41255 0.74859 0.0
C1095 C 0.99245 0.42801 0.76531 0.0
C1096 C 0.00746 0.46481 0.79377 0.0
C1097 C 0.99249 0.46265 0.80881 0.0
C1098 C 0.9866 0.475 0.80603 0.0
C1099 C 0.99507 0.48953 0.78756 0.0
C1100 C 0.00955 0.49119 0.77174 0.0
C1101 C 0.01573 0.47906 0.77501 0.0
H1102 H 0.43617 0.41892 0.81761 0.0
N1103 N 0.43813 0.44884 0.7943 0.0
H1104 H 0.42338 0.40646 0.86197 0.0
H1105 H 0.42463 0.46222 0.83093 0.0
H1106 H 0.41197 0.44988 0.8758 0.0
H1107 H 0.40506 0.43311 0.77328 0.0
H1108 H 0.39003 0.40631 0.7423 0.0
H1109 H 0.4544 0.43208 0.76793 0.0
H1110 H 0.43991 0.40618 0.73519 0.0
H1111 H 0.46627 0.44887 0.82012 0.0
H1112 H 0.45381 0.47932 0.76512 0.0
H1113 H 0.49802 0.47312 0.81962 0.0
H1114 H 0.48614 0.50328 0.76275 0.0
H1115 H 0.59435 0.54905 0.83543 0.0
H1116 H 0.60413 0.56435 0.88037 0.0
H1117 H 0.56563 0.58198 0.8753 0.0
H1118 H 0.55595 0.56677 0.83069 0.0
H1119 H 0.57092 0.57979 0.7878 0.0
H1120 H 0.59215 0.60243 0.75547 0.0
H1121 H 0.61401 0.56771 0.73759 0.0
H1122 H 0.59256 0.54501 0.76976 0.0
H1123 H 0.55655 0.51231 0.80177 0.0
H1124 H 0.52487 0.48729 0.79584 0.0
H1125 H 0.50953 0.52794 0.78714 0.0
N1126 N 0.56993 0.54843 0.80271 0.0
H1127 H 0.54136 0.5526 0.7907 0.0
C1128 C 0.43126 0.44152 0.82088 0.0
C1129 C 0.43092 0.42579 0.8301 0.0
C1130 C 0.42368 0.41871 0.85551 0.0
C1131 C 0.41656 0.42712 0.87218 0.0
C1132 C 0.41711 0.44296 0.86314 0.0
C1133 C 0.42441 0.45008 0.83769 0.0
C1134 C 0.43087 0.43483 0.77277 0.0
C1135 C 0.41283 0.4275 0.76462 0.0
C1136 C 0.40433 0.41228 0.74664 0.0
C1137 C 0.41386 0.40428 0.7357 0.0
C1138 C 0.43217 0.412 0.7432 0.0
C1139 C 0.44055 0.42699 0.76177 0.0
C1140 C 0.45742 0.46245 0.7931 0.0
C1141 C 0.47031 0.46072 0.80774 0.0
C1142 C 0.4887 0.4746 0.80707 0.0
C1143 C 0.49483 0.49034 0.79118 0.0
C1144 C 0.48198 0.49165 0.77573 0.0
C1145 C 0.46349 0.4779 0.77685 0.0
C1146 C 0.57434 0.55655 0.82974 0.0
C1147 C 0.5879 0.55604 0.84421 0.0
C1148 C 0.5935 0.56482 0.86972 0.0
C1149 C 0.58552 0.57421 0.88131 0.0
C1150 C 0.57177 0.57456 0.867 0.0
C1151 C 0.56626 0.56587 0.84138 0.0
C1152 C 0.58019 0.56068 0.78113 0.0
C1153 C 0.57994 0.57681 0.77647 0.0
C1154 C 0.59213 0.58978 0.75807 0.0
C1155 C 0.60466 0.58678 0.74394 0.0
C1156 C 0.60428 0.57023 0.74777 0.0
C1157 C 0.59213 0.55731 0.76619 0.0
C1158 C 0.55127 0.53426 0.7973 0.0
C1159 C 0.5463 0.51571 0.79823 0.0
C1160 C 0.52814 0.50146 0.79513 0.0
C1161 C 0.51443 0.50549 0.79158 0.0
C1162 C 0.5196 0.52419 0.78968 0.0
C1163 C 0.53787 0.53842 0.79217 0.0
H1164 H 0.68515 0.92349 0.54552 0.0
N1165 N 0.65525 0.89362 0.56824 0.0
H1166 H 0.68741 0.93461 0.49976 0.0
H1167 H 0.62948 0.87991 0.53021 0.0
H1168 H 0.63173 0.89116 0.484 0.0
H1169 H 0.6328 0.90203 0.59235 0.0
H1170 H 0.64054 0.92763 0.62465 0.0
H1171 H 0.68863 0.91628 0.59263 0.0
H1172 H 0.6964 0.94178 0.62506 0.0
H1173 H 0.6879 0.89749 0.55349 0.0
H1174 H 0.63554 0.86009 0.58889 0.0
H1175 H 0.69529 0.87362 0.55378 0.0
H1176 H 0.64318 0.83609 0.5904 0.0
H1177 H 0.70845 0.80715 0.5104 0.0
H1178 H 0.70157 0.79027 0.46654 0.0
H1179 H 0.64868 0.74889 0.49654 0.0
H1180 H 0.65554 0.7658 0.54003 0.0
H1181 H 0.65969 0.77445 0.58818 0.0
H1182 H 0.65923 0.75225 0.61948 0.0
H1183 H 0.71537 0.77208 0.6 0.0
H1184 H 0.71571 0.7942 0.56889 0.0
H1185 H 0.70995 0.83178 0.57201 0.0
H1186 H 0.70258 0.85569 0.5803 0.0
H1187 H 0.64641 0.81587 0.55957 0.0
N1188 N 0.68792 0.79711 0.55469 0.0
H1189 H 0.65378 0.792 0.5527 0.0
C1190 C 0.65708 0.90072 0.54134 0.0
C1191 C 0.67341 0.91622 0.53235 0.0
C1192 C 0.67475 0.92255 0.50608 0.0
C1193 C 0.65982 0.91358 0.4883 0.0
C1194 C 0.64344 0.89826 0.49734 0.0
C1195 C 0.64215 0.89184 0.52361 0.0
C1196 C 0.66002 0.90715 0.59005 0.0
C1197 C 0.64662 0.9104 0.59991 0.0
C1198 C 0.65105 0.92496 0.61844 0.0
C1199 C 0.66905 0.9366 0.62755 0.0
C1200 C 0.68241 0.93299 0.61839 0.0
C1201 C 0.67795 0.91836 0.59988 0.0
C1202 C 0.66098 0.88053 0.57095 0.0
C1203 C 0.67804 0.88424 0.56174 0.0
C1204 C 0.68235 0.87052 0.56215 0.0
C1205 C 0.66982 0.85283 0.57201 0.0
C1206 C 0.65305 0.84942 0.58221 0.0
C1207 C 0.6487 0.86315 0.58161 0.0
C1208 C 0.68258 0.78785 0.52844 0.0
C1209 C 0.69527 0.79462 0.50727 0.0
C1210 C 0.69135 0.78495 0.48237 0.0
C1211 C 0.67457 0.76833 0.47816 0.0
C1212 C 0.6616 0.76182 0.49908 0.0
C1213 C 0.66555 0.77148 0.52403 0.0
C1214 C 0.6878 0.78597 0.57623 0.0
C1215 C 0.67198 0.77426 0.59107 0.0
C1216 C 0.67172 0.76158 0.60889 0.0
C1217 C 0.6873 0.76055 0.6123 0.0
C1218 C 0.70328 0.77282 0.59825 0.0
C1219 C 0.70349 0.78539 0.58041 0.0
C1220 C 0.68257 0.81023 0.56136 0.0
C1221 C 0.69602 0.82823 0.56963 0.0
C1222 C 0.69179 0.84188 0.57414 0.0
C1223 C 0.67393 0.83782 0.57023 0.0
C1224 C 0.66027 0.81951 0.56299 0.0
C1225 C 0.66452 0.80581 0.55876 0.0
H1226 H 0.27055 0.89449 0.54937 0.0
N1227 N 0.23825 0.88422 0.57048 0.0
H1228 H 0.28369 0.9112 0.50727 0.0
H1229 H 0.2203 0.89162 0.53245 0.0
H1230 H 0.23341 0.90841 0.49029 0.0
H1231 H 0.22783 0.90957 0.5763 0.0
H1232 H 0.24254 0.93744 0.60557 0.0
H1233 H 0.2613 0.89147 0.61076 0.0
H1234 H 0.27659 0.91968 0.63944 0.0
H1235 H 0.22931 0.85152 0.54907 0.0
H1236 H 0.20643 0.87908 0.59376 0.0
H1237 H 0.19967 0.82288 0.54826 0.0
H1238 H 0.17711 0.85032 0.59444 0.0
H1239 H 0.10944 0.7335 0.53846 0.0
H1240 H 0.09621 0.7217 0.49308 0.0
H1241 H 0.0983 0.77278 0.47917 0.0
H1242 H 0.11124 0.78436 0.52422 0.0
H1243 H 0.09169 0.77533 0.56387 0.0
H1244 H 0.06443 0.76182 0.59197 0.0
H1245 H 0.08233 0.72992 0.63314 0.0
H1246 H 0.10949 0.7432 0.60428 0.0
H1247 H 0.14944 0.76964 0.57009 0.0
H1248 H 0.17878 0.79864 0.57471 0.0
H1249 H 0.15181 0.82929 0.56818 0.0
N1250 N 0.11712 0.76522 0.56267 0.0
H1251 H 0.12254 0.80022 0.56561 0.0
C1252 C 0.24453 0.89183 0.54397 0.0
C1253 C 0.2623 0.89724 0.53631 0.0
C1254 C 0.2698 0.90688 0.51248 0.0
C1255 C 0.25961 0.91128 0.49584 0.0
C1256 C 0.24151 0.90517 0.50285 0.0
C1257 C 0.23404 0.8956 0.52685 0.0
C1258 C 0.24348 0.89838 0.59144 0.0
C1259 C 0.23803 0.91136 0.59065 0.0
C1260 C 0.2466 0.9274 0.60716 0.0
C1261 C 0.261 0.93093 0.62431 0.0
C1262 C 0.26551 0.91733 0.62646 0.0
C1263 C 0.2568 0.9012 0.61015 0.0
C1264 C 0.22034 0.86759 0.57133 0.0
C1265 C 0.21794 0.85135 0.55894 0.0
C1266 C 0.20097 0.83491 0.55877 0.0
C1267 C 0.1859 0.83413 0.57152 0.0
C1268 C 0.18829 0.8504 0.58409 0.0
C1269 C 0.20526 0.86698 0.58384 0.0
C1270 C 0.11131 0.75973 0.53487 0.0
C1271 C 0.10726 0.74221 0.52541 0.0
C1272 C 0.09975 0.73552 0.49959 0.0
C1273 C 0.09604 0.74626 0.48287 0.0
C1274 C 0.10075 0.76411 0.4919 0.0
C1275 C 0.10828 0.77079 0.51767 0.0
C1276 C 0.10265 0.76019 0.58194 0.0
C1277 C 0.09004 0.76579 0.57931 0.0
C1278 C 0.07444 0.75811 0.59554 0.0
C1279 C 0.07126 0.74483 0.6148 0.0
C1280 C 0.08439 0.74005 0.61836 0.0
C1281 C 0.09993 0.74768 0.60206 0.0
C1282 C 0.13386 0.7827 0.56708 0.0
C1283 C 0.14992 0.78266 0.56999 0.0
C1284 C 0.16669 0.79929 0.57231 0.0
C1285 C 0.16782 0.81643 0.57129 0.0
C1286 C 0.15156 0.81643 0.56921 0.0
C1287 C 0.13473 0.79973 0.56739 0.0
H1288 H 0.24077 0.32785 0.53423 0.0
N1289 N 0.2383 0.35584 0.55946 0.0
H1290 H 0.25367 0.32865 0.48993 0.0
H1291 H 0.25004 0.38242 0.5231 0.0
H1292 H 0.2621 0.38284 0.4775 0.0
H1293 H 0.26933 0.37822 0.58531 0.0
H1294 H 0.28661 0.36927 0.61311 0.0
H1295 H 0.22519 0.32116 0.57987 0.0
H1296 H 0.24257 0.31208 0.60675 0.0
H1297 H 0.20974 0.3231 0.53854 0.0
H1298 H 0.22342 0.37265 0.58504 0.0
H1299 H 0.17782 0.31354 0.53909 0.0
H1300 H 0.19121 0.36282 0.58664 0.0
H1301 H 0.09227 0.29286 0.50668 0.0
H1302 H 0.08133 0.29822 0.46448 0.0
H1303 H 0.10295 0.35523 0.49023 0.0
H1304 H 0.1124 0.34931 0.53305 0.0
H1305 H 0.11367 0.34551 0.58202 0.0
H1306 H 0.09163 0.3461 0.61309 0.0
H1307 H 0.05368 0.288 0.59527 0.0
H1308 H 0.07596 0.28744 0.56461 0.0
H1309 H 0.11953 0.29413 0.55963 0.0
H1310 H 0.15112 0.30278 0.56619 0.0
H1311 H 0.16879 0.3603 0.55597 0.0
N1312 N 0.10734 0.31613 0.5488 0.0
H1313 H 0.13739 0.35164 0.55054 0.0
C1314 C 0.24474 0.35532 0.53238 0.0
C1315 C 0.24551 0.34003 0.5223 0.0
C1316 C 0.25277 0.34042 0.49669 0.0
C1317 C 0.25917 0.35591 0.48028 0.0
C1318 C 0.25778 0.37091 0.48994 0.0
C1319 C 0.25073 0.37063 0.51582 0.0
C1320 C 0.24606 0.35047 0.58033 0.0
C1321 C 0.26318 0.36386 0.59073 0.0
C1322 C 0.27305 0.3587 0.60642 0.0
C1323 C 0.26599 0.33996 0.61193 0.0
C1324 C 0.24828 0.32666 0.60317 0.0
C1325 C 0.23834 0.33186 0.58763 0.0
C1326 C 0.21907 0.3488 0.56152 0.0
C1327 C 0.20588 0.33185 0.54918 0.0
C1328 C 0.18752 0.3263 0.54973 0.0
C1329 C 0.1819 0.33745 0.56278 0.0
C1330 C 0.19507 0.35404 0.57597 0.0
C1331 C 0.21344 0.35963 0.57528 0.0
C1332 C 0.10337 0.32065 0.52288 0.0
C1333 C 0.09478 0.30654 0.503 0.0
C1334 C 0.0886 0.30967 0.47891 0.0
C1335 C 0.09105 0.32711 0.47409 0.0
C1336 C 0.1004 0.3415 0.49356 0.0
C1337 C 0.10622 0.33823 0.51791 0.0
C1338 C 0.09638 0.31637 0.57089 0.0
C1339 C 0.10081 0.33281 0.58522 0.0
C1340 C 0.08814 0.33317 0.60284 0.0
C1341 C 0.07082 0.31717 0.60618 0.0
C1342 C 0.06692 0.30052 0.59315 0.0
C1343 C 0.0796 0.30017 0.57565 0.0
C1344 C 0.126 0.3221 0.55434 0.0
C1345 C 0.13026 0.30861 0.55914 0.0
C1346 C 0.14832 0.31358 0.56268 0.0
C1347 C 0.16255 0.33224 0.56139 0.0
C1348 C 0.15819 0.34583 0.55739 0.0
C1349 C 0.14012 0.34083 0.55401 0.0
C1350 C 0.99031 0.41117 0.08439 0.0
C1351 C 0.9997 0.4018 0.08086 0.0
C1352 C 0.98835 0.41737 0.11018 0.0
C1353 C 0.99596 0.41471 0.13329 0.0
H1354 H 0.98425 0.41358 0.06716 0.0
H1355 H 0.98095 0.42444 0.11203 0.0
S1356 S 0.0218 0.39106 0.13537 0.0
N1357 N 0.01665 0.39016 0.10298 0.0
N1358 N 0.01303 0.402 0.15131 0.0
C1359 C 0.00544 0.40548 0.13014 0.0
C1360 C 0.00728 0.39897 0.10396 0.0
C1361 C 0.61588 0.59559 0.09679 0.0
C1362 C 0.61351 0.61034 0.0909 0.0
C1363 C 0.60829 0.58518 0.12022 0.0
C1364 C 0.59807 0.58914 0.13855 0.0
H1365 H 0.62351 0.59194 0.08311 0.0
H1366 H 0.61028 0.57383 0.12387 0.0
S1367 S 0.58933 0.62738 0.134 0.0
N1368 N 0.60105 0.629 0.10635 0.0
N1369 N 0.58703 0.60956 0.1503 0.0
C1370 C 0.59591 0.60406 0.13321 0.0
C1371 C 0.60357 0.61462 0.10942 0.0
C1372 C 0.4014 0.99008 0.08668 0.0
C1373 C 0.39809 0.00403 0.07975 0.0
C1374 C 0.41023 0.9912 0.11094 0.0
C1375 C 0.41613 0.00632 0.12925 0.0
H1376 H 0.39695 0.97801 0.07344 0.0
H1377 H 0.41234 0.98004 0.11548 0.0
S1378 S 0.41086 0.04659 0.12098 0.0
N1379 N 0.40169 0.03365 0.09324 0.0
N1380 N 0.41804 0.03556 0.13899 0.0
C1381 C 0.41322 0.02055 0.12245 0.0
C1382 C 0.40426 0.01945 0.09769 0.0
C1383 C 0.41522 0.00284 0.94839 0.0
C1384 C 0.39778 0.00021 0.95145 0.0
C1385 C 0.42059 0.99827 0.92387 0.0
C1386 C 0.40876 0.99096 0.90141 0.0
H1387 H 0.42484 0.00846 0.96508 0.0
H1388 H 0.4341 0.00042 0.92252 0.0
S1389 S 0.36204 0.98249 0.89818 0.0
N1390 N 0.36887 0.99029 0.92952 0.0
N1391 N 0.37911 0.9821 0.88337 0.0
C1392 C 0.39133 0.98837 0.90411 0.0
C1393 C 0.38581 0.99289 0.92911 0.0
C1394 C 0.02094 0.4097 0.93399 0.0
C1395 C 0.00519 0.40276 0.95011 0.0
C1396 C 0.02296 0.41942 0.91032 0.0
C1397 C 0.00934 0.42261 0.90205 0.0
H1398 H 0.03149 0.40702 0.9391 0.0
H1399 H 0.03493 0.42383 0.89787 0.0
S1400 S 0.96684 0.40987 0.93929 0.0
N1401 N 0.97662 0.40146 0.95754 0.0
N1402 N 0.98057 0.41992 0.91335 0.0
C1403 C 0.99402 0.41665 0.91878 0.0
C1404 C 0.99191 0.40668 0.94273 0.0
C1405 C 0.6176 0.60652 0.9365 0.0
C1406 C 0.60594 0.60357 0.95865 0.0
C1407 C 0.61084 0.59698 0.91164 0.0
C1408 C 0.59215 0.58427 0.90778 0.0
H1409 H 0.63215 0.61605 0.93843 0.0
H1410 H 0.62034 0.59963 0.89524 0.0
S1411 S 0.55572 0.57169 0.95875 0.0
N1412 N 0.57461 0.5871 0.97476 0.0
N1413 N 0.56199 0.56925 0.92785 0.0
C1414 C 0.58026 0.58137 0.92946 0.0
C1415 C 0.58714 0.59097 0.95493 0.0
C1416 C 0.98287 0.58992 0.93911 0.0
C1417 C 0.99671 0.60883 0.93981 0.0
C1418 C 0.97961 0.57875 0.91576 0.0
C1419 C 0.99006 0.58602 0.89215 0.0
H1420 H 0.97435 0.58364 0.9567 0.0
H1421 H 0.9688 0.56429 0.91618 0.0
S1422 S 0.02762 0.63468 0.88287 0.0
N1423 N 0.0209 0.63432 0.91451 0.0
N1424 N 0.01456 0.61333 0.87057 0.0
C1425 C 0.00402 0.60484 0.89253 0.0
C1426 C 0.00739 0.61623 0.91635 0.0
C1427 C 0.41062 0.40646 0.94156 0.0
C1428 C 0.3929 0.40164 0.94912 0.0
C1429 C 0.41825 0.41498 0.91691 0.0
C1430 C 0.40854 0.41917 0.89888 0.0
H1431 H 0.41865 0.40336 0.95456 0.0
H1432 H 0.43186 0.41823 0.91185 0.0
S1433 S 0.36183 0.40984 0.90889 0.0
N1434 N 0.36596 0.4021 0.93653 0.0
N1435 N 0.38037 0.41805 0.89013 0.0
C1436 C 0.39097 0.41482 0.9063 0.0
C1437 C 0.38314 0.40607 0.9314 0.0
C1438 C 0.60259 0.00108 0.91373 0.0
C1439 C 0.60085 0.98684 0.9299 0.0
C1440 C 0.59179 0.99714 0.89065 0.0
C1441 C 0.57866 0.97879 0.88281 0.0
H1442 H 0.61245 0.01547 0.91884 0.0
H1443 H 0.59383 0.00861 0.87873 0.0
S1444 S 0.5682 0.93642 0.91857 0.0
N1445 N 0.58482 0.95358 0.93657 0.0
N1446 N 0.56423 0.9462 0.89333 0.0
C1447 C 0.57675 0.96437 0.8987 0.0
C1448 C 0.58789 0.96838 0.9222 0.0
C1449 C 0.61184 0.0132 0.09381 0.0
C1450 C 0.60563 0.00313 0.06901 0.0
C1451 C 0.59991 0.00954 0.11569 0.0
C1452 C 0.58135 0.99569 0.11353 0.0
H1453 H 0.62615 0.02345 0.09681 0.0
H1454 H 0.60541 0.01699 0.1348 0.0
S1455 S 0.55765 0.96745 0.05188 0.0
N1456 N 0.57921 0.98016 0.04276 0.0
N1457 N 0.55692 0.97338 0.08389 0.0
C1458 C 0.57476 0.98633 0.08842 0.0
C1459 C 0.58686 0.99004 0.06615 0.0
C1460 C 0.97259 0.58959 0.09333 0.0
C1461 C 0.98134 0.60903 0.09627 0.0
C1462 C 0.97161 0.57871 0.11496 0.0
C1463 C 0.97955 0.58687 0.14023 0.0
H1464 H 0.96656 0.58269 0.07407 0.0
H1465 H 0.96492 0.56384 0.11173 0.0
S1466 S 0.00315 0.63687 0.1593 0.0
N1467 N 0.99747 0.63581 0.12714 0.0
N1468 N 0.99561 0.6153 0.16759 0.0
C1469 C 0.98801 0.60618 0.14369 0.0
C1470 C 0.98889 0.61726 0.12179 0.0
C1471 C 0.39224 0.39157 0.09706 0.0
C1472 C 0.39641 0.40379 0.07565 0.0
C1473 C 0.40235 0.39744 0.12117 0.0
C1474 C 0.41718 0.41573 0.1248 0.0
H1475 H 0.38082 0.37741 0.09547 0.0
H1476 H 0.39829 0.38762 0.1373 0.0
S1477 S 0.43474 0.45277 0.07409 0.0
N1478 N 0.41694 0.43484 0.05914 0.0
N1479 N 0.43623 0.44574 0.1043 0.0
C1480 C 0.42177 0.42801 0.10335 0.0
C1481 C 0.41135 0.42207 0.07882 0.0
C1482 C 0.68137 0.7419 0.42061 0.0
C1483 C 0.66554 0.73494 0.4047 0.0
C1484 C 0.68418 0.7528 0.44407 0.0
C1485 C 0.67125 0.75712 0.45278 0.0
H1486 H 0.69181 0.739 0.41489 0.0
H1487 H 0.69651 0.75769 0.45571 0.0
S1488 S 0.6276 0.74267 0.41865 0.0
N1489 N 0.63675 0.73336 0.39947 0.0
N1490 N 0.64213 0.75389 0.44373 0.0
C1491 C 0.65534 0.75028 0.43726 0.0
C1492 C 0.65248 0.73922 0.41318 0.0
C1493 C 0.26814 0.9274 0.42308 0.0
C1494 C 0.28445 0.94484 0.42508 0.0
C1495 C 0.26007 0.91667 0.44606 0.0
C1496 C 0.26814 0.92287 0.47182 0.0
H1497 H 0.26144 0.92199 0.40364 0.0
H1498 H 0.24755 0.90333 0.44362 0.0
S1499 S 0.31048 0.96756 0.48849 0.0
N1500 N 0.30815 0.96787 0.45534 0.0
N1501 N 0.29295 0.94762 0.49834 0.0
C1502 C 0.28436 0.94024 0.47421 0.0
C1503 C 0.29251 0.95125 0.4509 0.0
C1504 C 0.07551 0.32311 0.40102 0.0
C1505 C 0.06551 0.33189 0.40207 0.0
C1506 C 0.08427 0.32224 0.42413 0.0
C1507 C 0.08312 0.32985 0.44934 0.0
H1508 H 0.07644 0.31669 0.38222 0.0
H1509 H 0.09179 0.31531 0.42231 0.0
S1510 S 0.05799 0.35383 0.46293 0.0
N1511 N 0.05497 0.34844 0.43016 0.0
N1512 N 0.07076 0.34617 0.47392 0.0
C1513 C 0.0733 0.33888 0.45055 0.0
C1514 C 0.06465 0.34005 0.42685 0.0
C1515 C 0.05101 0.32706 0.2539 0.0
C1516 C 0.06162 0.32954 0.27691 0.0
C1517 C 0.05533 0.32271 0.22834 0.0
C1518 C 0.07011 0.32025 0.22507 0.0
H1519 H 0.03959 0.32901 0.25549 0.0
H1520 H 0.04713 0.32137 0.21096 0.0
S1521 S 0.10154 0.32417 0.27884 0.0
N1522 N 0.08727 0.32867 0.29479 0.0
N1523 N 0.09504 0.32003 0.2467 0.0
C1524 C 0.08052 0.32216 0.24791 0.0
C1525 C 0.07636 0.32694 0.27386 0.0
C1526 C 0.69203 0.74807 0.26503 0.0
C1527 C 0.67422 0.73364 0.27111 0.0
C1528 C 0.69569 0.75875 0.24189 0.0
C1529 C 0.68166 0.7554 0.224 0.0
H1530 H 0.70325 0.75124 0.27831 0.0
H1531 H 0.70956 0.7698 0.23807 0.0
S1532 S 0.63296 0.71835 0.22932 0.0
N1533 N 0.64254 0.71607 0.25644 0.0
N1534 N 0.64951 0.73596 0.21295 0.0
C1535 C 0.66387 0.74086 0.22958 0.0
C1536 C 0.66012 0.73003 0.25312 0.0
C1537 C 0.26165 0.96019 0.25081 0.0
C1538 C 0.26471 0.9505 0.27066 0.0
C1539 C 0.25194 0.95122 0.22694 0.0
C1540 C 0.24509 0.93228 0.22194 0.0
H1541 H 0.26713 0.97493 0.25339 0.0
H1542 H 0.25041 0.95932 0.21181 0.0
S1543 S 0.24775 0.9001 0.26809 0.0
N1544 N 0.2588 0.92041 0.28427 0.0
N1545 N 0.24075 0.90377 0.23929 0.0
C1546 C 0.24737 0.92225 0.24195 0.0
C1547 C 0.25711 0.93129 0.26635 0.0
C1548 C 0.66652 0.92156 0.27468 0.0
C1549 C 0.66918 0.93928 0.27909 0.0
C1550 C 0.67123 0.91658 0.24989 0.0
C1551 C 0.67862 0.92909 0.22848 0.0
H1552 H 0.66085 0.91146 0.29056 0.0
H1553 H 0.66914 0.90285 0.24753 0.0
S1554 S 0.68685 0.97669 0.22892 0.0
N1555 N 0.67902 0.96913 0.25959 0.0
N1556 N 0.68736 0.95962 0.21284 0.0
C1557 C 0.68111 0.94678 0.23252 0.0
C1558 C 0.67652 0.95191 0.25784 0.0
C1559 C 0.05857 0.73737 0.25826 0.0
C1560 C 0.06771 0.74478 0.28318 0.0
C1561 C 0.06775 0.74313 0.23347 0.0
C1562 C 0.08646 0.75653 0.23256 0.0
H1563 H 0.04429 0.72655 0.25779 0.0
H1564 H 0.06028 0.7365 0.21491 0.0
S1565 S 0.11633 0.78199 0.29153 0.0
N1566 N 0.09634 0.7675 0.30512 0.0
N1567 N 0.1135 0.77833 0.25837 0.0
C1568 C 0.09561 0.76473 0.25714 0.0
C1569 C 0.08626 0.7589 0.28246 0.0
C1570 C 0.26089 0.31603 0.25738 0.0
C1571 C 0.26321 0.32938 0.27727 0.0
C1572 C 0.25052 0.31287 0.23393 0.0
C1573 C 0.24204 0.32289 0.22948 0.0
H1574 H 0.2675 0.30826 0.25955 0.0
H1575 H 0.24958 0.30286 0.2188 0.0
S1576 S 0.24208 0.35787 0.27656 0.0
N1577 N 0.25495 0.35173 0.29177 0.0
N1578 N 0.23536 0.34559 0.24783 0.0
C1579 C 0.24367 0.33578 0.24961 0.0
C1580 C 0.25426 0.33905 0.27346 0.0
C1581 C 0.26703 0.33936 0.41191 0.0
C1582 C 0.2836 0.35462 0.40321 0.0
C1583 C 0.25897 0.34017 0.43635 0.0
C1584 C 0.26729 0.35618 0.45331 0.0
H1585 H 0.26021 0.32663 0.39976 0.0
H1586 H 0.24618 0.32805 0.44212 0.0
S1587 S 0.31109 0.39979 0.44004 0.0
N1588 N 0.30807 0.38627 0.41327 0.0
N1589 N 0.29326 0.38761 0.45976 0.0
C1590 C 0.2838 0.37164 0.44469 0.0
C1591 C 0.29188 0.37089 0.41953 0.0
C1592 C 0.65065 0.93308 0.42645 0.0
C1593 C 0.66507 0.93659 0.40883 0.0
C1594 C 0.64874 0.92515 0.45179 0.0
C1595 C 0.66127 0.92058 0.46059 0.0
H1596 H 0.64085 0.93671 0.42085 0.0
H1597 H 0.63768 0.92307 0.46492 0.0
S1598 S 0.70064 0.9256 0.42175 0.0
N1599 N 0.69156 0.93386 0.40168 0.0
N1600 N 0.68791 0.91904 0.44934 0.0
C1601 C 0.67544 0.92351 0.44301 0.0
C1602 C 0.67734 0.93146 0.41711 0.0
C1603 C 0.08395 0.72347 0.41241 0.0
C1604 C 0.06801 0.7233 0.40605 0.0
C1605 C 0.09295 0.73086 0.43731 0.0
C1606 C 0.08644 0.73852 0.45664 0.0
H1607 H 0.08957 0.71785 0.3981 0.0
H1608 H 0.1052 0.73077 0.44135 0.0
S1609 S 0.04489 0.74078 0.45086 0.0
N1610 N 0.04585 0.73106 0.42187 0.0
N1611 N 0.0628 0.74485 0.46847 0.0
C1612 C 0.07048 0.73832 0.45074 0.0
C1613 C 0.06126 0.73074 0.42551 0.0
C1614 C 0.32208 0.05738 0.76002 0.0
C1615 C 0.333 0.06413 0.73666 0.0
C1616 C 0.32506 0.06905 0.78272 0.0
C1617 C 0.33901 0.08787 0.7828 0.0
H1618 H 0.31165 0.04283 0.76127 0.0
H1619 H 0.3169 0.06311 0.80073 0.0
S1620 S 0.36948 0.11301 0.72528 0.0
N1621 N 0.35703 0.09132 0.71402 0.0
N1622 N 0.36244 0.11319 0.75657 0.0
C1623 C 0.3493 0.09502 0.75904 0.0
C1624 C 0.34634 0.08316 0.736 0.0
C1625 C 0.94903 0.26398 0.76463 0.0
C1626 C 0.94013 0.27073 0.74945 0.0
C1627 C 0.94144 0.25444 0.78871 0.0
C1628 C 0.92464 0.25123 0.7984 0.0
H1629 H 0.96227 0.26665 0.75842 0.0
H1630 H 0.94909 0.25015 0.80033 0.0
S1631 S 0.8946 0.26356 0.76414 0.0
N1632 N 0.91275 0.27189 0.7445 0.0
N1633 N 0.89843 0.25374 0.78948 0.0
C1634 C 0.91517 0.25703 0.78267 0.0
C1635 C 0.92292 0.26682 0.75828 0.0
C1636 C 0.73793 0.6916 0.76833 0.0
C1637 C 0.73982 0.68242 0.74547 0.0
C1638 C 0.74832 0.69509 0.79181 0.0
C1639 C 0.7612 0.68975 0.79328 0.0
H1640 H 0.72798 0.6957 0.76842 0.0
H1641 H 0.7459 0.70165 0.80919 0.0
S1642 S 0.7728 0.66709 0.73785 0.0
N1643 N 0.75632 0.66903 0.72509 0.0
N1644 N 0.77626 0.6761 0.76898 0.0
C1645 C 0.76366 0.68109 0.77023 0.0
C1646 C 0.7529 0.67732 0.74639 0.0
C1647 C 0.74987 0.67907 0.61659 0.0
C1648 C 0.73182 0.67454 0.62044 0.0
C1649 C 0.75529 0.67425 0.59236 0.0
C1650 C 0.74291 0.66485 0.57092 0.0
H1651 H 0.75991 0.68632 0.63249 0.0
H1652 H 0.76929 0.67787 0.59044 0.0
S1653 S 0.69432 0.6509 0.57005 0.0
N1654 N 0.70166 0.66055 0.60046 0.0
N1655 N 0.71196 0.65198 0.55467 0.0
C1656 C 0.72484 0.66037 0.57442 0.0
C1657 C 0.71927 0.6651 0.59921 0.0
C1658 C 0.33224 0.06641 0.58538 0.0
C1659 C 0.34697 0.06833 0.6002 0.0
C1660 C 0.33501 0.07651 0.56199 0.0
C1661 C 0.35264 0.08908 0.55245 0.0
H1662 H 0.31836 0.05688 0.59172 0.0
H1663 H 0.32318 0.07423 0.55106 0.0
S1664 S 0.39591 0.09998 0.58449 0.0
N1665 N 0.37991 0.08411 0.60398 0.0
N1666 N 0.38512 0.10339 0.56015 0.0
C1667 C 0.36754 0.09127 0.56712 0.0
C1668 C 0.36471 0.08085 0.59094 0.0
C1669 C 0.94372 0.2832 0.59755 0.0
C1670 C 0.93364 0.27524 0.6213 0.0
C1671 C 0.93533 0.27855 0.57199 0.0
C1672 C 0.91651 0.26601 0.56924 0.0
H1673 H 0.95831 0.29279 0.59857 0.0
H1674 H 0.94365 0.28477 0.55419 0.0
S1675 S 0.88377 0.24182 0.62488 0.0
N1676 N 0.90363 0.25449 0.64035 0.0
N1677 N 0.8879 0.24596 0.5922 0.0
C1678 C 0.90616 0.25827 0.59276 0.0
C1679 C 0.91472 0.26282 0.61881 0.0
C1680 C 0.35886 0.27106 0.60758 0.0
C1681 C 0.34434 0.27372 0.61316 0.0
C1682 C 0.36065 0.2644 0.58205 0.0
C1683 C 0.34779 0.25982 0.5614 0.0
H1684 H 0.36916 0.27451 0.62283 0.0
H1685 H 0.37218 0.26283 0.5784 0.0
S1686 S 0.30705 0.26372 0.56566 0.0
N1687 N 0.3167 0.27092 0.59585 0.0
N1688 N 0.32004 0.25821 0.54806 0.0
C1689 C 0.33305 0.26207 0.5668 0.0
C1690 C 0.33134 0.26908 0.59262 0.0
C1691 C 0.71944 0.0783 0.59566 0.0
C1692 C 0.73031 0.07692 0.61533 0.0
C1693 C 0.72693 0.08753 0.57141 0.0
C1694 C 0.74559 0.09575 0.56581 0.0
H1695 H 0.70492 0.07192 0.59873 0.0
H1696 H 0.71793 0.08782 0.55661 0.0
S1697 S 0.78032 0.09753 0.61129 0.0
N1698 N 0.761 0.08554 0.62804 0.0
N1699 N 0.77501 0.10298 0.58245 0.0
C1700 C 0.75673 0.09493 0.5855 0.0
C1701 C 0.74912 0.08552 0.61025 0.0
C1702 C 0.92502 0.65968 0.60183 0.0
C1703 C 0.93629 0.65228 0.59977 0.0
C1704 C 0.91407 0.65831 0.58005 0.0
C1705 C 0.91381 0.64934 0.55545 0.0
H1706 H 0.9248 0.66683 0.62029 0.0
H1707 H 0.90577 0.66438 0.58243 0.0
S1708 S 0.94076 0.62772 0.53921 0.0
N1709 N 0.94639 0.63558 0.57083 0.0
N1710 N 0.92587 0.63315 0.53001 0.0
C1711 C 0.92481 0.6417 0.55314 0.0
C1712 C 0.93603 0.64314 0.57524 0.0
C1713 C 0.93532 0.69593 0.74093 0.0
C1714 C 0.94504 0.68683 0.73839 0.0
C1715 C 0.92922 0.69847 0.76632 0.0
C1716 C 0.93244 0.69181 0.79002 0.0
H1717 H 0.9322 0.70097 0.72315 0.0
H1718 H 0.92157 0.70529 0.76734 0.0
S1719 S 0.95811 0.66812 0.79508 0.0
N1720 N 0.95826 0.67192 0.76239 0.0
N1721 N 0.94672 0.67669 0.80984 0.0
C1722 C 0.94246 0.6831 0.78796 0.0
C1723 C 0.9488 0.68063 0.76223 0.0
C1724 C 0.31746 0.2657 0.75979 0.0
C1725 C 0.33398 0.27301 0.7455 0.0
C1726 C 0.31444 0.25584 0.78365 0.0
C1727 C 0.32778 0.25288 0.79398 0.0
H1728 H 0.30701 0.26809 0.753 0.0
H1729 H 0.30181 0.25104 0.79455 0.0
S1730 S 0.37225 0.26685 0.76221 0.0
N1731 N 0.36315 0.27508 0.74214 0.0
N1732 N 0.3573 0.25637 0.78669 0.0
C1733 C 0.34397 0.25934 0.7792 0.0
C1734 C 0.3471 0.26944 0.75504 0.0
C1735 C 0.72891 0.08128 0.75432 0.0
C1736 C 0.7257 0.06323 0.75104 0.0
C1737 C 0.73686 0.09194 0.77806 0.0
C1738 C 0.74195 0.08503 0.79949 0.0
H1739 H 0.72515 0.08724 0.7385 0.0
H1740 H 0.73902 0.10573 0.77965 0.0
S1741 S 0.73614 0.03851 0.80163 0.0
N1742 N 0.72821 0.03891 0.77154 0.0
N1743 N 0.74291 0.05889 0.81626 0.0
C1744 C 0.73897 0.06708 0.79648 0.0
C1745 C 0.73091 0.05621 0.77225 0.0
C1746 C 0.05566 0.3604 0.0389 0.0
C1747 C 0.04407 0.35093 0.01662 0.0
C1748 C 0.06539 0.35359 0.05131 0.0
C1749 C 0.06389 0.33701 0.04202 0.0
H1750 H 0.05675 0.37284 0.04755 0.0
H1751 H 0.07342 0.36088 0.0692 0.0
S1752 S 0.03736 0.30812 0.98239 0.0
N1753 N 0.03307 0.32494 0.98422 0.0
N1754 N 0.05144 0.31223 0.00768 0.0
C1755 C 0.05323 0.32796 0.01885 0.0
C1756 C 0.04334 0.33492 0.00608 0.0
C1757 C 0.65096 0.70476 0.01582 0.0
C1758 C 0.64465 0.68883 0.03128 0.0
C1759 C 0.65638 0.72199 0.02839 0.0
C1760 C 0.65534 0.72378 0.05675 0.0
H1761 H 0.65255 0.70412 0.99404 0.0
H1762 H 0.66185 0.73409 0.01592 0.0
S1763 S 0.63833 0.68593 0.10605 0.0
N1764 N 0.63654 0.6757 0.07622 0.0
N1765 N 0.64671 0.70798 0.09975 0.0
C1766 C 0.64822 0.70777 0.07225 0.0
C1767 C 0.64288 0.69032 0.05953 0.0
C1768 C 0.30785 0.96926 0.04801 0.0
C1769 C 0.31375 0.96295 0.02573 0.0
C1770 C 0.29053 0.95814 0.05921 0.0
C1771 C 0.27837 0.9402 0.04871 0.0
H1772 H 0.31669 0.98291 0.05709 0.0
H1773 H 0.28679 0.96352 0.07665 0.0
S1774 S 0.28663 0.91716 0.99003 0.0
N1775 N 0.30569 0.93759 0.99314 0.0
N1776 N 0.27305 0.91672 0.01435 0.0
C1777 C 0.28391 0.9337 0.02631 0.0
C1778 C 0.30159 0.94508 0.01475 0.0
C1779 C 0.34773 0.04306 0.95132 0.0
C1780 C 0.35757 0.04567 0.97529 0.0
C1781 C 0.34681 0.05755 0.94034 0.0
C1782 C 0.35564 0.07529 0.95286 0.0
H1783 H 0.34087 0.02977 0.94059 0.0
H1784 H 0.33949 0.05493 0.92143 0.0
S1785 S 0.38217 0.08925 0.01695 0.0
N1786 N 0.37574 0.06729 0.01189 0.0
N1787 N 0.37379 0.09451 0.99124 0.0
C1788 C 0.36523 0.07808 0.97712 0.0
C1789 C 0.36622 0.06328 0.98834 0.0
C1790 C 0.96373 0.29918 0.01232 0.0
C1791 C 0.9667 0.31624 0.00367 0.0
C1792 C 0.95098 0.2824 0.99929 0.0
C1793 C 0.94055 0.282 0.97732 0.0
H1794 H 0.97173 0.29877 0.02871 0.0
H1795 H 0.9495 0.26966 0.00614 0.0
S1796 S 0.94238 0.3226 0.94751 0.0
N1797 N 0.95746 0.33151 0.97238 0.0
N1798 N 0.93368 0.30002 0.94785 0.0
C1799 C 0.9429 0.29885 0.96906 0.0
C1800 C 0.95592 0.31594 0.98222 0.0
C1801 C 0.70575 0.65488 0.99171 0.0
C1802 C 0.69736 0.66501 0.98727 0.0
C1803 C 0.7231 0.66068 0.98117 0.0
C1804 C 0.73277 0.67697 0.96621 0.0
H1805 H 0.69865 0.64206 0.00263 0.0
H1806 H 0.72888 0.65223 0.98438 0.0
S1807 S 0.71726 0.70895 0.95 0.0
N1808 N 0.70047 0.69259 0.96784 0.0
N1809 N 0.73285 0.70331 0.94793 0.0
C1810 C 0.72477 0.68751 0.96238 0.0
C1811 C 0.70713 0.68158 0.97292 0.0
C1812 C 0.97056 0.66947 0.95922 0.0
C1813 C 0.96399 0.65684 0.98051 0.0
C1814 C 0.96052 0.67669 0.94934 0.0
C1815 C 0.94346 0.67167 0.96031 0.0
H1816 H 0.98355 0.67378 0.94978 0.0
H1817 H 0.96608 0.68607 0.93256 0.0
S1818 S 0.92023 0.63966 0.01695 0.0
N1819 N 0.93936 0.63988 0.01269 0.0
N1820 N 0.92054 0.65368 0.99412 0.0
C1821 C 0.93669 0.65918 0.98174 0.0
C1822 C 0.94696 0.65175 0.99187 0.0
C1823 C 0.33627 0.30543 0.99508 0.0
C1824 C 0.3549 0.31911 0.99334 0.0
C1825 C 0.32935 0.28759 0.98382 0.0
C1826 C 0.34075 0.28276 0.97015 0.0
H1827 H 0.32688 0.3086 0.00489 0.0
H1828 H 0.31489 0.27761 0.98539 0.0
S1829 S 0.39055 0.31358 0.95969 0.0
N1830 N 0.38469 0.32653 0.97726 0.0
N1831 N 0.37163 0.29319 0.95538 0.0
C1832 C 0.35949 0.29619 0.96876 0.0
C1833 C 0.36657 0.31431 0.98051 0.0
C1834 C 0.68673 0.03804 0.96685 0.0
C1835 C 0.68374 0.0376 0.99505 0.0
C1836 C 0.70257 0.05251 0.95529 0.0
C1837 C 0.71587 0.06727 0.97141 0.0
H1838 H 0.67681 0.02701 0.95356 0.0
H1839 H 0.70427 0.05235 0.93346 0.0
S1840 S 0.71463 0.07294 0.04611 0.0
N1841 N 0.69552 0.05319 0.03886 0.0
N1842 N 0.72515 0.08075 0.01684 0.0
C1843 C 0.7131 0.06712 0.99957 0.0
C1844 C 0.69709 0.05216 0.01148 0.0
C1845 C 0.64782 0.95271 0.04509 0.0
C1846 C 0.65348 0.9579 0.01816 0.0
C1847 C 0.65399 0.94324 0.05988 0.0
C1848 C 0.66601 0.93845 0.04837 0.0
H1849 H 0.63886 0.95636 0.0552 0.0
H1850 H 0.64966 0.9401 0.0808 0.0
S1851 S 0.6837 0.94724 0.97785 0.0
N1852 N 0.67108 0.95658 0.98006 0.0
N1853 N 0.68244 0.93848 0.00786 0.0
C1854 C 0.6714 0.94304 0.02123 0.0
C1855 C 0.66517 0.9528 0.00613 0.0
C1856 C 0.04999 0.67043 0.06785 0.0
C1857 C 0.04101 0.6696 0.0438 0.0
C1858 C 0.06455 0.68725 0.07805 0.0
C1859 C 0.07093 0.70396 0.06445 0.0
H1860 H 0.04532 0.65809 0.07952 0.0
H1861 H 0.07044 0.68722 0.09729 0.0
S1862 S 0.05342 0.70888 0.99889 0.0
N1863 N 0.04024 0.68666 0.0056 0.0
N1864 N 0.06805 0.71826 0.02431 0.0
C1865 C 0.06254 0.7032 0.03975 0.0
C1866 C 0.04751 0.68604 0.02953 0.0
C1867 C 0.28569 0.33852 0.01505 0.0
C1868 C 0.30205 0.35394 0.02498 0.0
C1869 C 0.26914 0.33238 0.02847 0.0
C1870 C 0.26826 0.34155 0.05215 0.0
H1871 H 0.28572 0.33062 0.99738 0.0
H1872 H 0.25699 0.3201 0.02064 0.0
S1873 S 0.3068 0.3834 0.08549 0.0
N1874 N 0.31604 0.37894 0.0591 0.0
N1875 N 0.28494 0.36727 0.08438 0.0
C1876 C 0.28431 0.35748 0.06161 0.0
C1877 C 0.30119 0.36371 0.04801 0.0
C1878 C 0.69638 0.66513 0.38931 0.0
C1879 C 0.7032 0.68097 0.37344 0.0
C1880 C 0.7079 0.65991 0.39998 0.0
C1881 C 0.72676 0.67034 0.39534 0.0
H1882 H 0.68202 0.65681 0.39407 0.0
H1883 H 0.70204 0.64798 0.41287 0.0
S1884 S 0.75145 0.71211 0.35338 0.0
N1885 N 0.73001 0.70645 0.35225 0.0
N1886 N 0.75169 0.69654 0.37241 0.0
C1887 C 0.73375 0.68583 0.37874 0.0
C1888 C 0.72197 0.69114 0.3677 0.0
C1889 C 0.31872 0.02665 0.37213 0.0
C1890 C 0.29993 0.01505 0.36713 0.0
C1891 C 0.32617 0.0448 0.38226 0.0
C1892 C 0.3152 0.05224 0.38767 0.0
H1893 H 0.3278 0.02156 0.36894 0.0
H1894 H 0.34061 0.05285 0.38672 0.0
S1895 S 0.26548 0.02841 0.37562 0.0
N1896 N 0.27063 0.01276 0.36681 0.0
N1897 N 0.28478 0.0471 0.38548 0.0
C1898 C 0.29648 0.04107 0.38193 0.0
C1899 C 0.28883 0.02246 0.37172 0.0
C1900 C 0.96118 0.30076 0.35041 0.0
C1901 C 0.9772 0.3014 0.35777 0.0
C1902 C 0.94489 0.28998 0.36465 0.0
C1903 C 0.94393 0.27927 0.38657 0.0
H1904 H 0.96133 0.30914 0.33413 0.0
H1905 H 0.93302 0.29031 0.35881 0.0
S1906 S 0.98163 0.27522 0.41316 0.0
N1907 N 0.99077 0.28957 0.38775 0.0
N1908 N 0.96018 0.26948 0.41452 0.0
C1909 C 0.95962 0.27921 0.39352 0.0
C1910 C 0.97624 0.29024 0.37913 0.0
C1911 C 0.02934 0.39046 0.3163 0.0
C1912 C 0.02004 0.3803 0.33938 0.0
C1913 C 0.02459 0.40202 0.30398 0.0
C1914 C 0.01028 0.40382 0.31414 0.0
H1915 H 0.04002 0.38905 0.30706 0.0
H1916 H 0.03161 0.40891 0.28559 0.0
S1917 S 0.98294 0.38206 0.37574 0.0
N1918 N 0.99678 0.37416 0.37323 0.0
N1919 N 0.98792 0.39589 0.34991 0.0
C1920 C 0.00147 0.39454 0.33795 0.0
C1921 C 0.00636 0.38283 0.35064 0.0
C1922 C 0.62175 0.65225 0.30584 0.0
C1923 C 0.6245 0.65414 0.33414 0.0
C1924 C 0.6095 0.63508 0.29349 0.0
C1925 C 0.59963 0.61906 0.30889 0.0
H1926 H 0.6295 0.66406 0.29298 0.0
H1927 H 0.6084 0.6342 0.27154 0.0
S1928 S 0.60065 0.61666 0.3838 0.0
N1929 N 0.61539 0.63867 0.37743 0.0
N1930 N 0.5924 0.60628 0.35402 0.0
C1931 C 0.60163 0.62083 0.33728 0.0
C1932 C 0.61401 0.6384 0.34996 0.0
C1933 C 0.36937 0.99363 0.34005 0.0
C1934 C 0.35235 0.97928 0.3301 0.0
C1935 C 0.38566 0.99753 0.32754 0.0
C1936 C 0.38562 0.98716 0.30471 0.0
H1937 H 0.37016 0.0023 0.35724 0.0
H1938 H 0.39839 0.00898 0.33552 0.0
S1939 S 0.34491 0.94771 0.27107 0.0
N1940 N 0.33662 0.95419 0.29644 0.0
N1941 N 0.36722 0.96171 0.27286 0.0
C1942 C 0.36879 0.9724 0.29503 0.0
C1943 C 0.35217 0.96842 0.30773 0.0
C1944 C 0.6267 0.98819 0.28197 0.0
C1945 C 0.62457 0.97774 0.30492 0.0
C1946 C 0.61191 0.98807 0.27053 0.0
C1947 C 0.59434 0.97752 0.28155 0.0
H1948 H 0.63987 0.99637 0.27237 0.0
H1949 H 0.61421 0.99596 0.25243 0.0
S1950 S 0.58148 0.9487 0.34261 0.0
N1951 N 0.60349 0.95711 0.33901 0.0
N1952 N 0.57571 0.95707 0.3175 0.0
C1953 C 0.592 0.9673 0.30482 0.0
C1954 C 0.6071 0.96739 0.31653 0.0
C1955 C 0.01968 0.63579 0.3406 0.0
C1956 C 0.01977 0.65001 0.32631 0.0
C1957 C 0.013 0.61812 0.32859 0.0
C1958 C 0.00608 0.6141 0.30202 0.0
H1959 H 0.02452 0.63819 0.36136 0.0
H1960 H 0.01283 0.60744 0.34033 0.0
S1961 S 0.00447 0.64642 0.25493 0.0
N1962 N 0.01326 0.65883 0.28319 0.0
N1963 N 0.00061 0.62564 0.26112 0.0
C1964 C 0.00655 0.6282 0.28723 0.0
C1965 C 0.01343 0.64615 0.29923 0.0
C1966 C 0.35937 0.36909 0.30295 0.0
C1967 C 0.35426 0.37625 0.32511 0.0
C1968 C 0.37632 0.37975 0.29043 0.0
C1969 C 0.38867 0.39806 0.29928 0.0
H1970 H 0.35029 0.35503 0.29539 0.0
H1971 H 0.3797 0.37371 0.27341 0.0
S1972 S 0.3819 0.42352 0.356 0.0
N1973 N 0.36299 0.40285 0.35535 0.0
N1974 N 0.39477 0.42305 0.33122 0.0
C1975 C 0.38376 0.4055 0.3212 0.0
C1976 C 0.36658 0.39453 0.33431 0.0
C1977 C 0.33436 0.30646 0.39075 0.0
C1978 C 0.31873 0.29983 0.37455 0.0
C1979 C 0.33998 0.29467 0.39925 0.0
C1980 C 0.33014 0.27568 0.39215 0.0
H1981 H 0.34241 0.32095 0.39702 0.0
H1982 H 0.35194 0.30041 0.41208 0.0
S1983 S 0.28849 0.25125 0.34965 0.0
N1984 N 0.29365 0.27297 0.35125 0.0
N1985 N 0.30422 0.25073 0.36759 0.0
C1986 C 0.31456 0.2688 0.37583 0.0
C1987 C 0.30889 0.28089 0.36688 0.0
C1988 C 0.72197 0.02535 0.39351 0.0
C1989 C 0.70845 0.02067 0.37388 0.0
C1990 C 0.73301 0.04363 0.40337 0.0
C1991 C 0.73108 0.05798 0.39383 0.0
H1992 H 0.72367 0.01474 0.40207 0.0
H1993 H 0.74268 0.04638 0.41934 0.0
S1994 S 0.69938 0.05349 0.33988 0.0
N1995 N 0.69478 0.03216 0.34357 0.0
N1996 N 0.71581 0.06658 0.36176 0.0
C1997 C 0.7182 0.05365 0.37329 0.0
C1998 C 0.70683 0.035 0.36339 0.0
C1999 C 0.9681 0.67055 0.39214 0.0
C2000 C 0.97782 0.68553 0.37472 0.0
C2001 C 0.95059 0.6651 0.40101 0.0
C2002 C 0.94199 0.67441 0.39297 0.0
H2003 H 0.97403 0.66289 0.39916 0.0
H2004 H 0.94386 0.65368 0.41481 0.0
S2005 S 0.9612 0.71429 0.34717 0.0
N2006 N 0.97736 0.70949 0.34938 0.0
N2007 N 0.94427 0.69915 0.36625 0.0
C2008 C 0.95141 0.68936 0.37546 0.0
C2009 C 0.96933 0.6949 0.36622 0.0
C2010 C 0.3913 0.02538 0.70395 0.0
C2011 C 0.3745 0.02065 0.7158 0.0
C2012 C 0.4015 0.01818 0.71372 0.0
C2013 C 0.39497 0.00566 0.7351 0.0
H2014 H 0.39676 0.03498 0.68743 0.0
H2015 H 0.41454 0.02238 0.70452 0.0
S2016 S 0.35163 0.98837 0.77239 0.0
N2017 N 0.35175 0.00242 0.74981 0.0
N2018 N 0.37076 0.98872 0.76764 0.0
C2019 C 0.37811 0.0006 0.74675 0.0
C2020 C 0.36791 0.00814 0.73722 0.0
C2021 C 0.97991 0.36734 0.69136 0.0
C2022 C 0.98421 0.355 0.70254 0.0
C2023 C 0.98548 0.38458 0.704 0.0
C2024 C 0.9957 0.39018 0.72814 0.0
H2025 H 0.97211 0.36368 0.67273 0.0
H2026 H 0.98184 0.39363 0.69477 0.0
S2027 S 0.0099 0.3629 0.76655 0.0
N2028 N 0.99901 0.34962 0.7398 0.0
N2029 N 0.0093 0.38188 0.76341 0.0
C2030 C 1.00002 0.378 0.73964 0.0
C2031 C 0.99433 0.36046 0.72689 0.0
C2032 C 0.64533 0.63348 0.72562 0.0
C2033 C 0.65043 0.63009 0.69982 0.0
C2034 C 0.63011 0.61958 0.73919 0.0
C2035 C 0.61937 0.60167 0.72762 0.0
H2036 H 0.65336 0.64691 0.73577 0.0
H2037 H 0.62713 0.62271 0.75938 0.0
S2038 S 0.62569 0.58583 0.65968 0.0
N2039 N 0.64267 0.60762 0.66252 0.0
N2040 N 0.61402 0.58152 0.68821 0.0
C2041 C 0.62386 0.59819 0.7015 0.0
C2042 C 0.63936 0.61238 0.68755 0.0
C2043 C 0.67292 0.71237 0.63465 0.0
C2044 C 0.68689 0.71563 0.65267 0.0
C2045 C 0.67273 0.72703 0.62267 0.0
C2046 C 0.6865 0.74555 0.62818 0.0
H2047 H 0.66228 0.69835 0.62907 0.0
H2048 H 0.66211 0.7238 0.60811 0.0
S2049 S 0.72498 0.76185 0.67615 0.0
N2050 N 0.71408 0.73902 0.67708 0.0
N2051 N 0.71359 0.76651 0.65453 0.0
C2052 C 0.70008 0.7491 0.64706 0.0
C2053 C 0.70029 0.73417 0.65933 0.0
C2054 C 0.29099 0.96804 0.67678 0.0
C2055 C 0.29919 0.98442 0.66184 0.0
C2056 C 0.27803 0.95089 0.66491 0.0
C2057 C 0.27268 0.94944 0.63768 0.0
H2058 H 0.29501 0.96831 0.6976 0.0
H2059 H 0.27249 0.93859 0.67695 0.0
S2060 S 0.28927 0.98815 0.58995 0.0
N2061 N 0.3002 0.99812 0.61858 0.0
N2062 N 0.27618 0.96589 0.59625 0.0
C2063 C 0.28019 0.96578 0.6228 0.0
C2064 C 0.29335 0.98325 0.63488 0.0
C2065 C 0.03014 0.30384 0.65191 0.0
C2066 C 0.02528 0.31674 0.6454 0.0
C2067 C 0.04526 0.30443 0.63989 0.0
C2068 C 0.05618 0.31803 0.62103 0.0
H2069 H 0.022 0.29292 0.66598 0.0
H2070 H 0.04827 0.294 0.64507 0.0
S2071 S 0.04965 0.35522 0.59721 0.0
N2072 N 0.03304 0.34385 0.61917 0.0
N2073 N 0.06121 0.34473 0.59644 0.0
C2074 C 0.05178 0.33127 0.61481 0.0
C2075 C 0.03639 0.33069 0.62701 0.0
C2076 C 0.3068 0.33523 0.62106 0.0
C2077 C 0.30142 0.32229 0.64179 0.0
C2078 C 0.29536 0.34103 0.61208 0.0
C2079 C 0.278 0.33418 0.6234 0.0
H2080 H 0.31996 0.34091 0.6114 0.0
H2081 H 0.30003 0.3507 0.59564 0.0
S2082 S 0.25749 0.30066 0.67897 0.0
N2083 N 0.27759 0.30312 0.67395 0.0
N2084 N 0.25609 0.3142 0.65702 0.0
C2085 C 0.27243 0.32139 0.64434 0.0
C2086 C 0.28414 0.31544 0.65358 0.0
C2087 C 0.69193 0.98731 0.64894 0.0
C2088 C 0.68145 0.98709 0.6713 0.0
C2089 C 0.68836 0.97086 0.63575 0.0
C2090 C 0.67412 0.95351 0.64429 0.0
H2091 H 0.70265 0.00033 0.64094 0.0
H2092 H 0.6963 0.97181 0.61797 0.0
S2093 S 0.64392 0.94496 0.70348 0.0
N2094 N 0.65711 0.96776 0.7027 0.0
N2095 N 0.65051 0.93688 0.67783 0.0
C2096 C 0.66411 0.95297 0.66737 0.0
C2097 C 0.66777 0.96973 0.68093 0.0
C2098 C 0.02654 0.70473 0.6403 0.0
C2099 C 0.01803 0.71344 0.65262 0.0
C2100 C 0.04387 0.71504 0.62876 0.0
C2101 C 0.05348 0.73451 0.62901 0.0
H2102 H 0.01968 0.68975 0.63913 0.0
H2103 H 0.04958 0.70763 0.6189 0.0
S2104 S 0.03805 0.76428 0.66023 0.0
N2105 N 0.02104 0.74291 0.66538 0.0
N2106 N 0.05373 0.76224 0.64377 0.0
C2107 C 0.04539 0.74349 0.64173 0.0
C2108 C 0.02768 0.73298 0.65355 0.0
C2109 C 0.98567 0.6163 0.68349 0.0
C2110 C 0.97233 0.62076 0.68904 0.0
C2111 C 0.98561 0.60188 0.69678 0.0
C2112 C 0.97216 0.59126 0.71599 0.0
H2113 H 0.99656 0.62432 0.6693 0.0
H2114 H 0.99637 0.59922 0.69233 0.0
S2115 S 0.93386 0.59681 0.73744 0.0
N2116 N 0.94488 0.61281 0.71456 0.0
N2117 N 0.94502 0.58599 0.73973 0.0
C2118 C 0.95844 0.59517 0.72116 0.0
C2119 C 0.95846 0.60983 0.70765 0.0
C2120 C 0.3961 0.35484 0.71036 0.0
C2121 C 0.38221 0.35155 0.69235 0.0
C2122 C 0.4068 0.37219 0.72348 0.0
C2123 C 0.40419 0.38694 0.71863 0.0
H2124 H 0.39803 0.34366 0.71552 0.0
H2125 H 0.41658 0.37373 0.73848 0.0
S2126 S 0.37157 0.38597 0.66929 0.0
N2127 N 0.36749 0.36464 0.66812 0.0
N2128 N 0.38825 0.39758 0.69146 0.0
C2129 C 0.39116 0.38408 0.69905 0.0
C2130 C 0.38001 0.3663 0.68625 0.0
C2131 C 0.62332 0.99825 0.68543 0.0
C2132 C 0.63605 0.01724 0.68252 0.0
C2133 C 0.60666 0.99211 0.69848 0.0
C2134 C 0.60191 0.00472 0.70872 0.0
H2135 H 0.62663 0.98805 0.67886 0.0
H2136 H 0.59782 0.97739 0.70163 0.0
S2137 S 0.62942 0.05585 0.70209 0.0
N2138 N 0.64226 0.04857 0.68852 0.0
N2139 N 0.61052 0.03705 0.71189 0.0
C2140 C 0.61409 0.02373 0.70432 0.0
C2141 C 0.63124 0.02998 0.69151 0.0
loop_
_geom_bond_atom_site_label_1
_geom_bond_atom_site_label_2
_geom_bond_distance
_geom_bond_site_symmetry_2
_ccdc_geom_bond_type
C0 O1 1.160 . S
C0 O7 1.185 . S
O1 C0 1.160 . S
O2 Zn3 1.899 1_656 S
O2 C10 1.284 1_556 S
Zn3 O2 1.899 1_454 S
Zn3 O4 2.032 . S
Zn3 O7 2.086 . S
Zn3 O12 1.977 1_554 S
O4 Zn3 2.032 . S
O4 C8 1.278 1_455 S
C5 O6 1.203 1_455 S
C5 O12 1.267 . S
O6 C5 1.203 1_655 S
O7 C0 1.185 . S
O7 Zn3 2.086 . S
C8 O4 1.278 1_655 S
C8 O9 1.211 . S
O9 C8 1.211 . S
C10 O2 1.284 1_554 S
C10 O11 1.273 . S
O11 C10 1.273 . S
O12 Zn3 1.977 1_556 S
O12 C5 1.267 . S
C13 O14 1.166 . S
C13 O20 1.176 1_556 S
O14 C13 1.166 . S
O15 Zn16 1.899 . S
O15 C23 1.284 . S
Zn16 O15 1.899 . S
Zn16 O17 2.032 1_554 S
Zn16 O20 2.086 . S
Zn16 O25 1.977 . S
O17 Zn16 2.032 1_556 S
O17 C21 1.278 . S
C18 O19 1.203 . S
C18 O25 1.267 . S
O19 C18 1.203 . S
O20 C13 1.176 1_554 S
O20 Zn16 2.086 . S
C21 O17 1.278 . S
C21 O22 1.211 . S
O22 C21 1.211 . S
C23 O15 1.284 . S
C23 O24 1.273 . S
O24 C23 1.273 . S
O25 Zn16 1.977 . S
O25 C18 1.267 . S
C26 O27 1.160 1_554 S
C26 O33 1.185 . S
O27 C26 1.160 1_556 S
O28 Zn29 1.899 1_565 S
O28 C36 1.284 . S
Zn29 O28 1.899 1_545 S
Zn29 O30 2.032 1_554 S
Zn29 O33 2.086 . S
Zn29 O38 1.977 . S
O30 Zn29 2.032 1_556 S
O30 C34 1.257 1_545 S
C31 O32 1.203 1_545 S
C31 O38 1.267 . S
O32 C31 1.203 1_565 S
O33 C26 1.185 . S
O33 Zn29 2.086 . S
C34 O30 1.257 1_565 S
C34 O35 1.227 . S
O35 C34 1.227 . S
C36 O28 1.284 . S
C36 O37 1.273 . S
O37 C36 1.273 . S
O38 Zn29 1.977 . S
O38 C31 1.267 . S
C39 O40 1.160 . S
C39 O46 1.185 1_556 S
O40 C39 1.160 . S
O41 Zn42 1.899 1_455 S
O41 C49 1.284 . S
Zn42 O41 1.899 1_655 S
Zn42 O43 2.032 1_554 S
Zn42 O46 2.086 . S
Zn42 O51 1.977 . S
O43 Zn42 2.032 1_556 S
O43 C47 1.278 1_655 S
C44 O45 1.203 1_655 S
C44 O51 1.267 . S
O45 C44 1.203 1_455 S
O46 C39 1.185 1_554 S
O46 Zn42 2.086 . S
C47 O43 1.278 1_455 S
C47 O48 1.211 . S
O48 C47 1.211 . S
C49 O41 1.284 . S
C49 O50 1.273 . S
O50 C49 1.273 . S
O51 Zn42 1.977 . S
O51 C44 1.267 . S
C52 O53 1.160 . S
C52 O59 1.185 . S
O53 C52 1.160 . S
O54 Zn55 1.899 1_556 S
O54 C62 1.284 . S
Zn55 O54 1.899 1_554 S
Zn55 O56 2.032 . S
Zn55 O59 2.086 . S
Zn55 O64 1.977 1_554 S
O56 Zn55 2.032 . S
O56 C60 1.278 . S
C57 O58 1.203 . S
C57 O64 1.267 . S
O58 C57 1.203 . S
O59 C52 1.185 . S
O59 Zn55 2.086 . S
C60 O56 1.278 . S
C60 O61 1.211 . S
O61 C60 1.211 . S
C62 O54 1.284 . S
C62 O63 1.273 1_556 S
O63 C62 1.273 1_554 S
O64 Zn55 1.977 1_556 S
O64 C57 1.267 . S
C65 O66 1.160 . S
C65 O72 1.185 . S
O66 C65 1.160 . S
O67 Zn68 1.899 1_546 S
O67 C75 1.284 1_556 S
Zn68 O67 1.899 1_564 S
Zn68 O69 2.032 . S
Zn68 O72 2.086 . S
Zn68 O77 1.977 1_554 S
O69 Zn68 2.032 . S
O69 C73 1.278 1_565 S
C70 O71 1.203 1_565 S
C70 O77 1.267 . S
O71 C70 1.203 1_545 S
O72 C65 1.185 . S
O72 Zn68 2.086 . S
C73 O69 1.278 1_545 S
C73 O74 1.211 . S
O74 C73 1.211 . S
C75 O67 1.284 1_554 S
C75 O76 1.273 . S
O76 C75 1.273 . S
O77 Zn68 1.977 1_556 S
O77 C70 1.267 . S
C78 O79 1.160 . S
C78 O85 1.185 . S
O79 C78 1.160 . S
O80 Zn81 1.899 . S
O80 C88 1.284 . S
Zn81 O80 1.899 . S
Zn81 O82 2.032 . S
Zn81 O85 2.086 . S
Zn81 O90 1.977 . S
O82 Zn81 2.032 . S
O82 C86 1.278 . S
C83 O84 1.203 . S
C83 O90 1.267 . S
O84 C83 1.203 . S
O85 C78 1.185 . S
O85 Zn81 2.086 . S
C86 O82 1.278 . S
C86 O87 1.211 . S
O87 C86 1.211 . S
C88 O80 1.284 . S
C88 O89 1.273 . S
O89 C88 1.273 . S
O90 Zn81 1.977 . S
O90 C83 1.267 . S
C91 O92 1.160 . S
C91 O98 1.185 . S
O92 C91 1.160 . S
O93 Zn94 1.899 . S
O93 C101 1.284 1_565 S
Zn94 O93 1.899 . S
Zn94 O95 2.032 . S
Zn94 O98 2.086 . S
Zn94 O103 1.977 . S
O95 Zn94 2.032 . S
O95 C99 1.278 . S
C96 O97 1.203 . S
C96 O103 1.267 . S
O97 C96 1.203 . S
O98 C91 1.185 . S
O98 Zn94 2.086 . S
C99 O95 1.278 . S
C99 O100 1.211 . S
O100 C99 1.211 . S
C101 O93 1.284 1_545 S
C101 O102 1.273 1_545 S
O102 C101 1.273 1_565 S
O103 Zn94 1.977 . S
O103 C96 1.267 . S
C104 O105 1.160 . S
C104 O111 1.185 . S
O105 C104 1.160 . S
O106 Zn107 1.899 . S
O106 C114 1.284 . S
Zn107 O106 1.899 . S
Zn107 O108 2.032 . S
Zn107 O111 2.086 . S
Zn107 O116 1.977 . S
O108 Zn107 2.032 . S
O108 C112 1.278 . S
C109 O110 1.203 . S
C109 O116 1.267 . S
O110 C109 1.203 . S
O111 C104 1.185 . S
O111 Zn107 2.086 . S
C112 O108 1.278 . S
C112 O113 1.211 . S
O113 C112 1.211 . S
C114 O106 1.284 . S
C114 O115 1.273 . S
O115 C114 1.273 . S
O116 Zn107 1.977 . S
O116 C109 1.267 . S
C117 O118 1.160 . S
C117 O124 1.185 . S
O118 C117 1.160 . S
O119 Zn120 1.899 . S
O119 C127 1.284 1_565 S
Zn120 O119 1.899 . S
Zn120 O121 2.032 . S
Zn120 O124 2.086 . S
Zn120 O129 1.977 . S
O121 Zn120 2.032 . S
O121 C125 1.278 . S
C122 O123 1.203 . S
C122 O129 1.267 . S
O123 C122 1.203 . S
O124 C117 1.185 . S
O124 Zn120 2.086 . S
C125 O121 1.278 . S
C125 O126 1.211 . S
O126 C125 1.211 . S
C127 O119 1.284 1_545 S
C127 O128 1.273 1_545 S
O128 C127 1.273 1_565 S
O129 Zn120 1.977 . S
O129 C122 1.267 . S
C130 O131 1.160 . S
C130 O137 1.185 . S
O131 C130 1.160 . S
O132 Zn133 1.899 . S
O132 C140 1.284 . S
Zn133 O132 1.899 . S
Zn133 O134 2.032 . S
Zn133 O137 2.086 1_455 S
Zn133 O142 1.977 . S
O134 Zn133 2.032 . S
O134 C138 1.278 . S
C135 O136 1.203 . S
C135 O142 1.267 . S
O136 C135 1.203 . S
O137 C130 1.185 . S
O137 Zn133 2.086 1_655 S
C138 O134 1.278 . S
C138 O139 1.211 . S
O139 C138 1.211 . S
C140 O132 1.284 . S
C140 O141 1.273 . S
O141 C140 1.273 . S
O142 Zn133 1.977 . S
O142 C135 1.267 . S
C143 O144 1.160 . S
C143 O150 1.185 . S
O144 C143 1.160 . S
O145 Zn146 1.899 . S
O145 C153 1.284 . S
Zn146 O145 1.899 . S
Zn146 O147 2.032 . S
Zn146 O150 2.086 . S
Zn146 O155 1.977 . S
O147 Zn146 2.032 . S
O147 C151 1.278 . S
C148 O149 1.203 . S
C148 O155 1.267 . S
O149 C148 1.203 . S
O150 C143 1.185 . S
O150 Zn146 2.086 . S
C151 O147 1.278 . S
C151 O152 1.211 . S
O152 C151 1.211 . S
C153 O145 1.284 . S
C153 O154 1.273 . S
O154 C153 1.273 . S
O155 Zn146 1.977 . S
O155 C148 1.267 . S
C156 O157 1.160 . S
C156 O163 1.185 . S
O157 C156 1.160 . S
O158 Zn159 1.899 . S
O158 C166 1.285 . S
Zn159 O158 1.899 . S
Zn159 O160 2.032 . S
Zn159 O163 2.086 . S
Zn159 O168 1.977 . S
O160 Zn159 2.032 . S
O160 C164 1.278 . S
C161 O162 1.203 . S
C161 O168 1.267 . S
O162 C161 1.203 . S
O163 C156 1.185 . S
O163 Zn159 2.086 . S
C164 O160 1.278 . S
C164 O165 1.211 . S
O165 C164 1.211 . S
C166 O158 1.285 . S
C166 O167 1.267 . S
O167 C166 1.267 . S
O168 Zn159 1.977 . S
O168 C161 1.267 . S
C169 O170 1.160 . S
C169 O176 1.185 . S
O170 C169 1.160 . S
O171 Zn172 1.899 . S
O171 C179 1.284 . S
Zn172 O171 1.899 . S
Zn172 O173 2.032 . S
Zn172 O176 2.086 1_655 S
Zn172 O181 1.977 . S
O173 Zn172 2.032 . S
O173 C177 1.278 . S
C174 O175 1.203 . S
C174 O181 1.267 . S
O175 C174 1.203 . S
O176 C169 1.185 . S
O176 Zn172 2.086 1_455 S
C177 O173 1.278 . S
C177 O178 1.211 . S
O178 C177 1.211 . S
C179 O171 1.284 . S
C179 O180 1.273 . S
O180 C179 1.273 . S
O181 Zn172 1.977 . S
O181 C174 1.267 . S
C182 O183 1.160 . S
C182 O189 1.185 . S
O183 C182 1.160 . S
O184 Zn185 1.899 . S
O184 C192 1.284 . S
Zn185 O184 1.899 . S
Zn185 O186 2.032 . S
Zn185 O189 2.086 . S
Zn185 O194 1.977 . S
O186 Zn185 2.032 . S
O186 C190 1.278 . S
C187 O188 1.203 . S
C187 O194 1.267 . S
O188 C187 1.203 . S
O189 C182 1.185 . S
O189 Zn185 2.086 . S
C190 O186 1.278 . S
C190 O191 1.211 . S
O191 C190 1.211 . S
C192 O184 1.284 . S
C192 O193 1.273 . S
O193 C192 1.273 . S
O194 Zn185 1.977 . S
O194 C187 1.267 . S
C195 O196 1.160 . S
C195 O202 1.185 . S
O196 C195 1.160 . S
O197 Zn198 1.899 . S
O197 C205 1.284 . S
Zn198 O197 1.899 . S
Zn198 O199 2.032 . S
Zn198 O202 2.086 . S
Zn198 O207 1.977 . S
O199 Zn198 2.032 . S
O199 C203 1.278 . S
C200 O201 1.203 . S
C200 O207 1.267 . S
O201 C200 1.203 . S
O202 C195 1.185 . S
O202 Zn198 2.086 . S
C203 O199 1.278 . S
C203 O204 1.211 . S
O204 C203 1.211 . S
C205 O197 1.284 . S
C205 O206 1.273 . S
O206 C205 1.273 . S
O207 Zn198 1.977 . S
O207 C200 1.267 . S
C208 O209 1.160 . S
C208 O215 1.185 . S
O209 C208 1.160 . S
O210 Zn211 1.899 . S
O210 C218 1.322 . S
Zn211 O210 1.899 . S
Zn211 O212 2.032 . S
Zn211 O215 2.086 . S
Zn211 O220 1.977 . S
O212 Zn211 2.032 . S
O212 C216 1.278 . S
C213 O214 1.203 . S
C213 O220 1.267 . S
O214 C213 1.203 . S
O215 C208 1.185 . S
O215 Zn211 2.086 . S
C216 O212 1.278 . S
C216 O217 1.211 . S
O217 C216 1.211 . S
C218 O210 1.322 . S
C218 O219 1.277 . S
O219 C218 1.277 . S
O220 Zn211 1.977 . S
O220 C213 1.267 . S
C221 O222 1.160 . S
C221 O228 1.185 . S
O222 C221 1.160 . S
O223 Zn224 1.899 . S
O223 C231 1.284 . S
Zn224 O223 1.899 . S
Zn224 O225 2.032 . S
Zn224 O228 2.086 . S
Zn224 O233 1.977 . S
O225 Zn224 2.032 . S
O225 C229 1.278 . S
C226 O227 1.203 . S
C226 O233 1.267 . S
O227 C226 1.203 . S
O228 C221 1.185 . S
O228 Zn224 2.086 . S
C229 O225 1.278 . S
C229 O230 1.211 . S
O230 C229 1.211 . S
C231 O223 1.284 . S
C231 O232 1.273 . S
O232 C231 1.273 . S
O233 Zn224 1.977 . S
O233 C226 1.267 . S
H234 C261 0.929 . S
N235 C260 1.433 . S
N235 C266 1.435 . S
N235 C272 1.423 . S
H236 C262 0.930 . S
H237 C265 0.931 . S
H238 C264 0.929 . S
H239 C267 0.930 . S
H240 C268 0.932 . S
H241 C271 0.929 . S
H242 C270 0.931 . S
H243 C273 0.929 . S
H244 C277 0.932 . S
H245 C274 0.931 . S
H246 C276 0.929 . S
H247 C279 0.929 . S
H248 C280 0.930 . S
H249 C282 0.929 . S
H250 C283 0.931 . S
H251 C285 0.930 . S
H252 C286 0.932 . S
H253 C288 0.931 . S
H254 C289 0.929 . S
H255 C291 0.929 . S
H256 C292 0.931 . S
H257 C294 0.929 . S
N258 C278 1.433 . S
N258 C284 1.435 . S
N258 C290 1.423 . S
H259 C295 0.932 . S
C260 N235 1.433 . S
C260 C261 1.363 . S
C260 C265 1.370 . S
C261 H234 0.929 . S
C261 C260 1.363 . S
C261 C262 1.385 . S
C262 H236 0.930 . S
C262 C261 1.385 . S
C262 C263 1.357 . S
C263 C262 1.357 . S
C263 C264 1.406 . S
C264 H238 0.929 . S
C264 C263 1.406 . S
C264 C265 1.391 . S
C265 H237 0.931 . S
C265 C260 1.370 . S
C265 C264 1.391 . S
C266 N235 1.435 . S
C266 C267 1.358 . S
C266 C271 1.371 . S
C267 H239 0.930 . S
C267 C266 1.358 . S
C267 C268 1.405 . S
C268 H240 0.932 . S
C268 C267 1.405 . S
C268 C269 1.383 . S
C269 C268 1.383 . S
C269 C270 1.393 . S
C270 H242 0.931 . S
C270 C269 1.393 . S
C270 C271 1.382 . S
C271 H241 0.929 . S
C271 C266 1.371 . S
C271 C270 1.382 . S
C272 N235 1.423 . S
C272 C273 1.362 . S
C272 C277 1.388 . S
C273 H243 0.929 . S
C273 C272 1.362 . S
C273 C274 1.376 . S
C274 H245 0.931 . S
C274 C273 1.376 . S
C274 C275 1.396 . S
C275 C274 1.396 . S
C275 C276 1.348 . S
C275 C293 1.472 . S
C276 H246 0.929 . S
C276 C275 1.348 . S
C276 C277 1.443 . S
C277 H244 0.932 . S
C277 C272 1.388 . S
C277 C276 1.443 . S
C278 N258 1.433 . S
C278 C279 1.363 . S
C278 C283 1.370 . S
C279 H247 0.929 . S
C279 C278 1.363 . S
C279 C280 1.385 . S
C280 H248 0.930 . S
C280 C279 1.385 . S
C280 C281 1.357 . S
C281 C280 1.357 . S
C281 C282 1.406 . S
C282 H249 0.929 . S
C282 C281 1.406 . S
C282 C283 1.391 . S
C283 H250 0.931 . S
C283 C278 1.370 . S
C283 C282 1.391 . S
C284 N258 1.435 . S
C284 C285 1.358 . S
C284 C289 1.371 . S
C285 H251 0.930 . S
C285 C284 1.358 . S
C285 C286 1.405 . S
C286 H252 0.932 . S
C286 C285 1.405 . S
C286 C287 1.383 . S
C287 C286 1.383 . S
C287 C288 1.393 . S
C288 H253 0.931 . S
C288 C287 1.393 . S
C288 C289 1.382 . S
C289 H254 0.929 . S
C289 C284 1.371 . S
C289 C288 1.382 . S
C290 N258 1.423 . S
C290 C291 1.362 . S
C290 C295 1.388 . S
C291 H255 0.929 . S
C291 C290 1.362 . S
C291 C292 1.376 . S
C292 H256 0.931 . S
C292 C291 1.376 . S
C292 C293 1.396 . S
C293 C275 1.472 . S
C293 C292 1.396 . S
C293 C294 1.348 . S
C294 H257 0.929 . S
C294 C293 1.348 . S
C294 C295 1.443 . S
C295 H259 0.932 . S
C295 C290 1.388 . S
C295 C294 1.443 . S
H296 C323 0.929 . S
N297 C322 1.433 . S
N297 C328 1.435 . S
N297 C334 1.423 . S
H298 C324 0.930 . S
H299 C327 0.931 . S
H300 C326 0.929 . S
H301 C329 0.930 . S
H302 C330 0.932 . S
H303 C333 0.929 . S
H304 C332 0.931 . S
H305 C335 0.929 . S
H306 C339 0.932 . S
H307 C336 0.931 . S
H308 C338 0.929 . S
H309 C341 0.929 . S
H310 C342 0.930 . S
H311 C344 0.929 . S
H312 C345 0.931 . S
H313 C347 0.930 . S
H314 C348 0.932 . S
H315 C350 0.931 . S
H316 C351 0.929 . S
H317 C353 0.929 . S
H318 C354 0.931 . S
H319 C356 0.929 . S
N320 C340 1.433 . S
N320 C346 1.435 . S
N320 C352 1.423 . S
H321 C357 0.932 . S
C322 N297 1.433 . S
C322 C323 1.363 . S
C322 C327 1.370 . S
C323 H296 0.929 . S
C323 C322 1.363 . S
C323 C324 1.385 . S
C324 H298 0.930 . S
C324 C323 1.385 . S
C324 C325 1.357 . S
C325 C324 1.357 . S
C325 C326 1.406 . S
C326 H300 0.929 . S
C326 C325 1.406 . S
C326 C327 1.391 . S
C327 H299 0.931 . S
C327 C322 1.370 . S
C327 C326 1.391 . S
C328 N297 1.435 . S
C328 C329 1.358 . S
C328 C333 1.371 . S
C329 H301 0.930 . S
C329 C328 1.358 . S
C329 C330 1.405 . S
C330 H302 0.932 . S
C330 C329 1.405 . S
C330 C331 1.383 . S
C331 C330 1.383 . S
C331 C332 1.393 . S
C332 H304 0.931 . S
C332 C331 1.393 . S
C332 C333 1.382 . S
C333 H303 0.929 . S
C333 C328 1.371 . S
C333 C332 1.382 . S
C334 N297 1.423 . S
C334 C335 1.362 . S
C334 C339 1.388 . S
C335 H305 0.929 . S
C335 C334 1.362 . S
C335 C336 1.376 . S
C336 H307 0.931 . S
C336 C335 1.376 . S
C336 C337 1.396 . S
C337 C336 1.396 . S
C337 C338 1.348 . S
C337 C355 1.472 . S
C338 H308 0.929 . S
C338 C337 1.348 . S
C338 C339 1.443 . S
C339 H306 0.932 . S
C339 C334 1.388 . S
C339 C338 1.443 . S
C340 N320 1.433 . S
C340 C341 1.363 . S
C340 C345 1.370 . S
C341 H309 0.929 . S
C341 C340 1.363 . S
C341 C342 1.385 . S
C342 H310 0.930 . S
C342 C341 1.385 . S
C342 C343 1.357 . S
C343 C342 1.357 . S
C343 C344 1.406 . S
C344 H311 0.929 . S
C344 C343 1.406 . S
C344 C345 1.391 . S
C345 H312 0.931 . S
C345 C340 1.370 . S
C345 C344 1.391 . S
C346 N320 1.435 . S
C346 C347 1.358 . S
C346 C351 1.371 . S
C347 H313 0.930 . S
C347 C346 1.358 . S
C347 C348 1.405 . S
C348 H314 0.932 . S
C348 C347 1.405 . S
C348 C349 1.383 . S
C349 C348 1.383 . S
C349 C350 1.393 . S
C350 H315 0.931 . S
C350 C349 1.393 . S
C350 C351 1.382 . S
C351 H316 0.929 . S
C351 C346 1.371 . S
C351 C350 1.382 . S
C352 N320 1.423 . S
C352 C353 1.362 . S
C352 C357 1.388 . S
C353 H317 0.929 . S
C353 C352 1.362 . S
C353 C354 1.376 . S
C354 H318 0.931 . S
C354 C353 1.376 . S
C354 C355 1.396 . S
C355 C337 1.472 . S
C355 C354 1.396 . S
C355 C356 1.348 . S
C356 H319 0.929 . S
C356 C355 1.348 . S
C356 C357 1.443 . S
C357 H321 0.932 . S
C357 C352 1.388 . S
C357 C356 1.443 . S
H358 C385 0.929 . S
N359 C384 1.433 . S
N359 C390 1.435 . S
N359 C396 1.423 . S
H360 C386 0.930 . S
H361 C389 0.931 . S
H362 C388 0.929 . S
H363 C391 0.930 . S
H364 C392 0.932 . S
H365 C395 0.929 . S
H366 C394 0.931 . S
H367 C397 0.929 . S
H368 C401 0.932 . S
H369 C398 0.931 . S
H370 C400 0.929 . S
H371 C403 0.929 . S
H372 C404 0.930 . S
H373 C406 0.929 . S
H374 C407 0.931 . S
H375 C409 0.930 . S
H376 C410 0.932 . S
H377 C412 0.931 . S
H378 C413 0.929 . S
H379 C415 0.929 . S
H380 C416 0.931 . S
H381 C418 0.929 . S
N382 C402 1.433 . S
N382 C408 1.435 . S
N382 C414 1.423 . S
H383 C419 0.932 . S
C384 N359 1.433 . S
C384 C385 1.363 . S
C384 C389 1.370 . S
C385 H358 0.929 . S
C385 C384 1.363 . S
C385 C386 1.385 . S
C386 H360 0.930 . S
C386 C385 1.385 . S
C386 C387 1.357 . S
C387 C386 1.357 . S
C387 C388 1.406 . S
C388 H362 0.929 . S
C388 C387 1.406 . S
C388 C389 1.391 . S
C389 H361 0.931 . S
C389 C384 1.370 . S
C389 C388 1.391 . S
C390 N359 1.435 . S
C390 C391 1.358 . S
C390 C395 1.371 . S
C391 H363 0.930 . S
C391 C390 1.358 . S
C391 C392 1.405 . S
C392 H364 0.932 . S
C392 C391 1.405 . S
C392 C393 1.383 . S
C393 C392 1.383 . S
C393 C394 1.393 . S
C394 H366 0.931 . S
C394 C393 1.393 . S
C394 C395 1.382 . S
C395 H365 0.929 . S
C395 C390 1.371 . S
C395 C394 1.382 . S
C396 N359 1.423 . S
C396 C397 1.362 . S
C396 C401 1.388 . S
C397 H367 0.929 . S
C397 C396 1.362 . S
C397 C398 1.376 . S
C398 H369 0.931 . S
C398 C397 1.376 . S
C398 C399 1.396 . S
C399 C398 1.396 . S
C399 C400 1.348 . S
C399 C417 1.472 . S
C400 H370 0.929 . S
C400 C399 1.348 . S
C400 C401 1.443 . S
C401 H368 0.932 . S
C401 C396 1.388 . S
C401 C400 1.443 . S
C402 N382 1.433 . S
C402 C403 1.363 . S
C402 C407 1.370 . S
C403 H371 0.929 . S
C403 C402 1.363 . S
C403 C404 1.385 . S
C404 H372 0.930 . S
C404 C403 1.385 . S
C404 C405 1.357 . S
C405 C404 1.357 . S
C405 C406 1.406 . S
C406 H373 0.929 . S
C406 C405 1.406 . S
C406 C407 1.391 . S
C407 H374 0.931 . S
C407 C402 1.370 . S
C407 C406 1.391 . S
C408 N382 1.435 . S
C408 C409 1.358 . S
C408 C413 1.371 . S
C409 H375 0.930 . S
C409 C408 1.358 . S
C409 C410 1.405 . S
C410 H376 0.932 . S
C410 C409 1.405 . S
C410 C411 1.383 . S
C411 C410 1.383 . S
C411 C412 1.393 . S
C412 H377 0.931 . S
C412 C411 1.393 . S
C412 C413 1.382 . S
C413 H378 0.929 . S
C413 C408 1.371 . S
C413 C412 1.382 . S
C414 N382 1.423 . S
C414 C415 1.362 . S
C414 C419 1.388 . S
C415 H379 0.929 . S
C415 C414 1.362 . S
C415 C416 1.376 . S
C416 H380 0.931 . S
C416 C415 1.376 . S
C416 C417 1.396 . S
C417 C399 1.472 . S
C417 C416 1.396 . S
C417 C418 1.348 . S
C418 H381 0.929 . S
C418 C417 1.348 . S
C418 C419 1.443 . S
C419 H383 0.932 . S
C419 C414 1.388 . S
C419 C418 1.443 . S
H420 C447 0.929 . S
N421 C446 1.433 . S
N421 C452 1.435 . S
N421 C458 1.423 . S
H422 C448 0.930 . S
H423 C451 0.931 . S
H424 C450 0.929 . S
H425 C453 0.930 . S
H426 C454 0.932 . S
H427 C457 0.929 . S
H428 C456 0.931 . S
H429 C459 0.929 . S
H430 C463 0.932 . S
H431 C460 0.931 . S
H432 C462 0.929 . S
H433 C465 0.929 . S
H434 C466 0.930 . S
H435 C468 0.929 . S
H436 C469 0.931 . S
H437 C471 0.930 . S
H438 C472 0.932 . S
H439 C474 0.931 . S
H440 C475 0.929 . S
H441 C477 0.929 . S
H442 C478 0.931 . S
H443 C480 0.929 . S
N444 C464 1.433 . S
N444 C470 1.435 . S
N444 C476 1.423 . S
H445 C481 0.932 . S
C446 N421 1.433 . S
C446 C447 1.363 . S
C446 C451 1.370 . S
C447 H420 0.929 . S
C447 C446 1.363 . S
C447 C448 1.385 . S
C448 H422 0.930 . S
C448 C447 1.385 . S
C448 C449 1.357 . S
C449 C448 1.357 . S
C449 C450 1.406 . S
C450 H424 0.929 . S
C450 C449 1.406 . S
C450 C451 1.391 . S
C451 H423 0.931 . S
C451 C446 1.370 . S
C451 C450 1.391 . S
C452 N421 1.435 . S
C452 C453 1.358 . S
C452 C457 1.371 . S
C453 H425 0.930 . S
C453 C452 1.358 . S
C453 C454 1.405 . S
C454 H426 0.932 . S
C454 C453 1.405 . S
C454 C455 1.383 . S
C455 C454 1.383 . S
C455 C456 1.393 . S
C456 H428 0.931 . S
C456 C455 1.393 . S
C456 C457 1.382 . S
C457 H427 0.929 . S
C457 C452 1.371 . S
C457 C456 1.382 . S
C458 N421 1.423 . S
C458 C459 1.362 . S
C458 C463 1.388 . S
C459 H429 0.929 . S
C459 C458 1.362 . S
C459 C460 1.376 . S
C460 H431 0.931 . S
C460 C459 1.376 . S
C460 C461 1.396 . S
C461 C460 1.396 . S
C461 C462 1.348 . S
C461 C479 1.472 . S
C462 H432 0.929 . S
C462 C461 1.348 . S
C462 C463 1.443 . S
C463 H430 0.932 . S
C463 C458 1.388 . S
C463 C462 1.443 . S
C464 N444 1.433 . S
C464 C465 1.363 . S
C464 C469 1.370 . S
C465 H433 0.929 . S
C465 C464 1.363 . S
C465 C466 1.385 . S
C466 H434 0.930 . S
C466 C465 1.385 . S
C466 C467 1.357 . S
C467 C466 1.357 . S
C467 C468 1.406 . S
C468 H435 0.929 . S
C468 C467 1.406 . S
C468 C469 1.391 . S
C469 H436 0.931 . S
C469 C464 1.370 . S
C469 C468 1.391 . S
C470 N444 1.435 . S
C470 C471 1.358 . S
C470 C475 1.371 . S
C471 H437 0.930 . S
C471 C470 1.358 . S
C471 C472 1.405 . S
C472 H438 0.932 . S
C472 C471 1.405 . S
C472 C473 1.383 . S
C473 C472 1.383 . S
C473 C474 1.393 . S
C474 H439 0.931 . S
C474 C473 1.393 . S
C474 C475 1.382 . S
C475 H440 0.929 . S
C475 C470 1.371 . S
C475 C474 1.382 . S
C476 N444 1.423 . S
C476 C477 1.362 . S
C476 C481 1.388 . S
C477 H441 0.929 . S
C477 C476 1.362 . S
C477 C478 1.376 . S
C478 H442 0.931 . S
C478 C477 1.376 . S
C478 C479 1.396 . S
C479 C461 1.472 . S
C479 C478 1.396 . S
C479 C480 1.348 . S
C480 H443 0.929 . S
C480 C479 1.348 . S
C480 C481 1.443 . S
C481 H445 0.932 . S
C481 C476 1.388 . S
C481 C480 1.443 . S
H482 C509 0.929 . S
N483 C508 1.433 . S
N483 C514 1.435 . S
N483 C520 1.423 . S
H484 C510 0.930 . S
H485 C513 0.931 . S
H486 C512 0.929 . S
H487 C515 0.930 . S
H488 C516 0.932 . S
H489 C519 0.929 . S
H490 C518 0.931 . S
H491 C521 0.929 . S
H492 C525 0.932 . S
H493 C522 0.931 . S
H494 C524 0.929 . S
H495 C527 0.929 . S
H496 C528 0.930 . S
H497 C530 0.929 . S
H498 C531 0.931 . S
H499 C533 0.930 . S
H500 C534 0.932 . S
H501 C536 0.931 . S
H502 C537 0.929 . S
H503 C539 0.929 . S
H504 C540 0.931 . S
H505 C542 0.929 . S
N506 C526 1.433 . S
N506 C532 1.435 . S
N506 C538 1.423 . S
H507 C543 0.932 . S
C508 N483 1.433 . S
C508 C509 1.363 . S
C508 C513 1.370 . S
C509 H482 0.929 . S
C509 C508 1.363 . S
C509 C510 1.385 . S
C510 H484 0.930 . S
C510 C509 1.385 . S
C510 C511 1.357 . S
C511 C510 1.357 . S
C511 C512 1.406 . S
C512 H486 0.929 . S
C512 C511 1.406 . S
C512 C513 1.391 . S
C513 H485 0.931 . S
C513 C508 1.370 . S
C513 C512 1.391 . S
C514 N483 1.435 . S
C514 C515 1.358 . S
C514 C519 1.371 . S
C515 H487 0.930 . S
C515 C514 1.358 . S
C515 C516 1.405 . S
C516 H488 0.932 . S
C516 C515 1.405 . S
C516 C517 1.383 . S
C517 C516 1.383 . S
C517 C518 1.393 . S
C518 H490 0.931 . S
C518 C517 1.393 . S
C518 C519 1.382 . S
C519 H489 0.929 . S
C519 C514 1.371 . S
C519 C518 1.382 . S
C520 N483 1.423 . S
C520 C521 1.362 . S
C520 C525 1.388 . S
C521 H491 0.929 . S
C521 C520 1.362 . S
C521 C522 1.376 . S
C522 H493 0.931 . S
C522 C521 1.376 . S
C522 C523 1.396 . S
C523 C522 1.396 . S
C523 C524 1.348 . S
C523 C541 1.472 . S
C524 H494 0.929 . S
C524 C523 1.348 . S
C524 C525 1.443 . S
C525 H492 0.932 . S
C525 C520 1.388 . S
C525 C524 1.443 . S
C526 N506 1.433 . S
C526 C527 1.363 . S
C526 C531 1.370 . S
C527 H495 0.929 . S
C527 C526 1.363 . S
C527 C528 1.385 . S
C528 H496 0.930 . S
C528 C527 1.385 . S
C528 C529 1.357 . S
C529 C528 1.357 . S
C529 C530 1.406 . S
C530 H497 0.929 . S
C530 C529 1.406 . S
C530 C531 1.391 . S
C531 H498 0.931 . S
C531 C526 1.370 . S
C531 C530 1.391 . S
C532 N506 1.435 . S
C532 C533 1.358 . S
C532 C537 1.371 . S
C533 H499 0.930 . S
C533 C532 1.358 . S
C533 C534 1.405 . S
C534 H500 0.932 . S
C534 C533 1.405 . S
C534 C535 1.383 . S
C535 C534 1.383 . S
C535 C536 1.393 . S
C536 H501 0.931 . S
C536 C535 1.393 . S
C536 C537 1.382 . S
C537 H502 0.929 . S
C537 C532 1.371 . S
C537 C536 1.382 . S
C538 N506 1.423 . S
C538 C539 1.362 . S
C538 C543 1.388 . S
C539 H503 0.929 . S
C539 C538 1.362 . S
C539 C540 1.376 . S
C540 H504 0.931 . S
C540 C539 1.376 . S
C540 C541 1.396 . S
C541 C523 1.472 . S
C541 C540 1.396 . S
C541 C542 1.348 . S
C542 H505 0.929 . S
C542 C541 1.348 . S
C542 C543 1.443 . S
C543 H507 0.932 . S
C543 C538 1.388 . S
C543 C542 1.443 . S
H544 C571 0.929 . S
N545 C570 1.433 . S
N545 C576 1.435 . S
N545 C582 1.423 . S
H546 C572 0.930 . S
H547 C575 0.931 . S
H548 C574 0.929 . S
H549 C577 0.930 . S
H550 C578 0.932 . S
H551 C581 0.929 . S
H552 C580 0.931 . S
H553 C583 0.929 . S
H554 C587 0.932 . S
H555 C584 0.931 . S
H556 C586 0.929 . S
H557 C589 0.929 . S
H558 C590 0.930 . S
H559 C592 0.929 . S
H560 C593 0.931 . S
H561 C595 0.930 . S
H562 C596 0.932 . S
H563 C598 0.931 . S
H564 C599 0.929 . S
H565 C601 0.929 . S
H566 C602 0.931 . S
H567 C604 0.929 . S
N568 C588 1.433 . S
N568 C594 1.435 . S
N568 C600 1.423 . S
H569 C605 0.932 . S
C570 N545 1.433 . S
C570 C571 1.363 . S
C570 C575 1.370 . S
C571 H544 0.929 . S
C571 C570 1.363 . S
C571 C572 1.385 . S
C572 H546 0.930 . S
C572 C571 1.385 . S
C572 C573 1.357 . S
C573 C572 1.357 . S
C573 C574 1.406 . S
C574 H548 0.929 . S
C574 C573 1.406 . S
C574 C575 1.391 . S
C575 H547 0.931 . S
C575 C570 1.370 . S
C575 C574 1.391 . S
C576 N545 1.435 . S
C576 C577 1.358 . S
C576 C581 1.371 . S
C577 H549 0.930 . S
C577 C576 1.358 . S
C577 C578 1.405 . S
C578 H550 0.932 . S
C578 C577 1.405 . S
C578 C579 1.383 . S
C579 C578 1.383 . S
C579 C580 1.393 . S
C580 H552 0.931 . S
C580 C579 1.393 . S
C580 C581 1.382 . S
C581 H551 0.929 . S
C581 C576 1.371 . S
C581 C580 1.382 . S
C582 N545 1.423 . S
C582 C583 1.362 . S
C582 C587 1.388 . S
C583 H553 0.929 . S
C583 C582 1.362 . S
C583 C584 1.376 . S
C584 H555 0.931 . S
C584 C583 1.376 . S
C584 C585 1.396 . S
C585 C584 1.396 . S
C585 C586 1.348 . S
C585 C603 1.472 . S
C586 H556 0.929 . S
C586 C585 1.348 . S
C586 C587 1.443 . S
C587 H554 0.932 . S
C587 C582 1.388 . S
C587 C586 1.443 . S
C588 N568 1.433 . S
C588 C589 1.363 . S
C588 C593 1.370 . S
C589 H557 0.929 . S
C589 C588 1.363 . S
C589 C590 1.385 . S
C590 H558 0.930 . S
C590 C589 1.385 . S
C590 C591 1.357 . S
C591 C590 1.357 . S
C591 C592 1.406 . S
C592 H559 0.929 . S
C592 C591 1.406 . S
C592 C593 1.391 . S
C593 H560 0.931 . S
C593 C588 1.370 . S
C593 C592 1.391 . S
C594 N568 1.435 . S
C594 C595 1.358 . S
C594 C599 1.371 . S
C595 H561 0.930 . S
C595 C594 1.358 . S
C595 C596 1.405 . S
C596 H562 0.932 . S
C596 C595 1.405 . S
C596 C597 1.383 . S
C597 C596 1.383 . S
C597 C598 1.393 . S
C598 H563 0.931 . S
C598 C597 1.393 . S
C598 C599 1.382 . S
C599 H564 0.929 . S
C599 C594 1.371 . S
C599 C598 1.382 . S
C600 N568 1.423 . S
C600 C601 1.362 . S
C600 C605 1.388 . S
C601 H565 0.929 . S
C601 C600 1.362 . S
C601 C602 1.376 . S
C602 H566 0.931 . S
C602 C601 1.376 . S
C602 C603 1.396 . S
C603 C585 1.472 . S
C603 C602 1.396 . S
C603 C604 1.348 . S
C604 H567 0.929 . S
C604 C603 1.348 . S
C604 C605 1.443 . S
C605 H569 0.932 . S
C605 C600 1.388 . S
C605 C604 1.443 . S
H606 C633 0.929 . S
N607 C632 1.433 . S
N607 C638 1.435 . S
N607 C644 1.423 . S
H608 C634 0.930 . S
H609 C637 0.931 . S
H610 C636 0.929 . S
H611 C639 0.930 . S
H612 C640 0.932 . S
H613 C643 0.929 . S
H614 C642 0.931 . S
H615 C645 0.929 . S
H616 C649 0.932 . S
H617 C646 0.931 . S
H618 C648 0.929 . S
H619 C651 0.929 . S
H620 C652 0.930 . S
H621 C654 0.929 . S
H622 C655 0.931 . S
H623 C657 0.930 . S
H624 C658 0.932 . S
H625 C660 0.931 . S
H626 C661 0.929 . S
H627 C663 0.929 . S
H628 C664 0.931 . S
H629 C666 0.929 . S
N630 C650 1.433 . S
N630 C656 1.435 . S
N630 C662 1.423 . S
H631 C667 0.932 . S
C632 N607 1.433 . S
C632 C633 1.363 . S
C632 C637 1.370 . S
C633 H606 0.929 . S
C633 C632 1.363 . S
C633 C634 1.385 . S
C634 H608 0.930 . S
C634 C633 1.385 . S
C634 C635 1.357 . S
C635 C634 1.357 . S
C635 C636 1.406 . S
C636 H610 0.929 . S
C636 C635 1.406 . S
C636 C637 1.391 . S
C637 H609 0.931 . S
C637 C632 1.370 . S
C637 C636 1.391 . S
C638 N607 1.435 . S
C638 C639 1.358 . S
C638 C643 1.371 . S
C639 H611 0.930 . S
C639 C638 1.358 . S
C639 C640 1.405 . S
C640 H612 0.932 . S
C640 C639 1.405 . S
C640 C641 1.383 . S
C641 C640 1.383 . S
C641 C642 1.393 . S
C642 H614 0.931 . S
C642 C641 1.393 . S
C642 C643 1.382 . S
C643 H613 0.929 . S
C643 C638 1.371 . S
C643 C642 1.382 . S
C644 N607 1.423 . S
C644 C645 1.362 . S
C644 C649 1.388 . S
C645 H615 0.929 . S
C645 C644 1.362 . S
C645 C646 1.376 . S
C646 H617 0.931 . S
C646 C645 1.376 . S
C646 C647 1.396 . S
C647 C646 1.396 . S
C647 C648 1.348 . S
C647 C665 1.472 . S
C648 H618 0.929 . S
C648 C647 1.348 . S
C648 C649 1.443 . S
C649 H616 0.932 . S
C649 C644 1.388 . S
C649 C648 1.443 . S
C650 N630 1.433 . S
C650 C651 1.363 . S
C650 C655 1.370 . S
C651 H619 0.929 . S
C651 C650 1.363 . S
C651 C652 1.385 . S
C652 H620 0.930 . S
C652 C651 1.385 . S
C652 C653 1.357 . S
C653 C652 1.357 . S
C653 C654 1.406 . S
C654 H621 0.929 . S
C654 C653 1.406 . S
C654 C655 1.391 . S
C655 H622 0.931 . S
C655 C650 1.370 . S
C655 C654 1.391 . S
C656 N630 1.435 . S
C656 C657 1.358 . S
C656 C661 1.371 . S
C657 H623 0.930 . S
C657 C656 1.358 . S
C657 C658 1.405 . S
C658 H624 0.932 . S
C658 C657 1.405 . S
C658 C659 1.383 . S
C659 C658 1.383 . S
C659 C660 1.393 . S
C660 H625 0.931 . S
C660 C659 1.393 . S
C660 C661 1.382 . S
C661 H626 0.929 . S
C661 C656 1.371 . S
C661 C660 1.382 . S
C662 N630 1.423 . S
C662 C663 1.362 . S
C662 C667 1.388 . S
C663 H627 0.929 . S
C663 C662 1.362 . S
C663 C664 1.376 . S
C664 H628 0.931 . S
C664 C663 1.376 . S
C664 C665 1.396 . S
C665 C647 1.472 . S
C665 C664 1.396 . S
C665 C666 1.348 . S
C666 H629 0.929 . S
C666 C665 1.348 . S
C666 C667 1.443 . S
C667 H631 0.932 . S
C667 C662 1.388 . S
C667 C666 1.443 . S
H668 C695 0.929 . S
N669 C694 1.433 . S
N669 C700 1.435 . S
N669 C706 1.423 . S
H670 C696 0.930 . S
H671 C699 0.931 . S
H672 C698 0.929 . S
H673 C701 0.930 . S
H674 C702 0.932 . S
H675 C705 0.929 . S
H676 C704 0.931 . S
H677 C707 0.929 . S
H678 C711 0.932 . S
H679 C708 0.931 . S
H680 C710 0.929 . S
H681 C713 0.929 . S
H682 C714 0.930 . S
H683 C716 0.929 . S
H684 C717 0.931 . S
H685 C719 0.930 . S
H686 C720 0.932 . S
H687 C722 0.931 . S
H688 C723 0.929 . S
H689 C725 0.929 . S
H690 C726 0.931 . S
H691 C728 0.929 . S
N692 C712 1.433 . S
N692 C718 1.435 . S
N692 C724 1.423 . S
H693 C729 0.932 . S
C694 N669 1.433 . S
C694 C695 1.363 . S
C694 C699 1.370 . S
C695 H668 0.929 . S
C695 C694 1.363 . S
C695 C696 1.385 . S
C696 H670 0.930 . S
C696 C695 1.385 . S
C696 C697 1.357 . S
C697 C696 1.357 . S
C697 C698 1.406 . S
C698 H672 0.929 . S
C698 C697 1.406 . S
C698 C699 1.391 . S
C699 H671 0.931 . S
C699 C694 1.370 . S
C699 C698 1.391 . S
C700 N669 1.435 . S
C700 C701 1.358 . S
C700 C705 1.371 . S
C701 H673 0.930 . S
C701 C700 1.358 . S
C701 C702 1.405 . S
C702 H674 0.932 . S
C702 C701 1.405 . S
C702 C703 1.383 . S
C703 C702 1.383 . S
C703 C704 1.393 . S
C704 H676 0.931 . S
C704 C703 1.393 . S
C704 C705 1.382 . S
C705 H675 0.929 . S
C705 C700 1.371 . S
C705 C704 1.382 . S
C706 N669 1.423 . S
C706 C707 1.362 . S
C706 C711 1.388 . S
C707 H677 0.929 . S
C707 C706 1.362 . S
C707 C708 1.376 . S
C708 H679 0.931 . S
C708 C707 1.376 . S
C708 C709 1.396 . S
C709 C708 1.396 . S
C709 C710 1.348 . S
C709 C727 1.472 . S
C710 H680 0.929 . S
C710 C709 1.348 . S
C710 C711 1.443 . S
C711 H678 0.932 . S
C711 C706 1.388 . S
C711 C710 1.443 . S
C712 N692 1.433 . S
C712 C713 1.363 . S
C712 C717 1.370 . S
C713 H681 0.929 . S
C713 C712 1.363 . S
C713 C714 1.385 . S
C714 H682 0.930 . S
C714 C713 1.385 . S
C714 C715 1.357 . S
C715 C714 1.357 . S
C715 C716 1.406 . S
C716 H683 0.929 . S
C716 C715 1.406 . S
C716 C717 1.391 . S
C717 H684 0.931 . S
C717 C712 1.370 . S
C717 C716 1.391 . S
C718 N692 1.435 . S
C718 C719 1.358 . S
C718 C723 1.371 . S
C719 H685 0.930 . S
C719 C718 1.358 . S
C719 C720 1.405 . S
C720 H686 0.932 . S
C720 C719 1.405 . S
C720 C721 1.383 . S
C721 C720 1.383 . S
C721 C722 1.393 . S
C722 H687 0.931 . S
C722 C721 1.393 . S
C722 C723 1.382 . S
C723 H688 0.929 . S
C723 C718 1.371 . S
C723 C722 1.382 . S
C724 N692 1.423 . S
C724 C725 1.362 . S
C724 C729 1.388 . S
C725 H689 0.929 . S
C725 C724 1.362 . S
C725 C726 1.376 . S
C726 H690 0.931 . S
C726 C725 1.376 . S
C726 C727 1.396 . S
C727 C709 1.472 . S
C727 C726 1.396 . S
C727 C728 1.348 . S
C728 H691 0.929 . S
C728 C727 1.348 . S
C728 C729 1.443 . S
C729 H693 0.932 . S
C729 C724 1.388 . S
C729 C728 1.443 . S
H730 C757 0.929 . S
N731 C756 1.433 . S
N731 C762 1.435 . S
N731 C768 1.423 . S
H732 C758 0.930 . S
H733 C761 0.931 . S
H734 C760 0.929 . S
H735 C763 0.930 . S
H736 C764 0.932 . S
H737 C767 0.929 . S
H738 C766 0.931 . S
H739 C769 0.929 . S
H740 C773 0.932 . S
H741 C770 0.931 . S
H742 C772 0.929 . S
H743 C775 0.929 . S
H744 C776 0.930 . S
H745 C778 0.929 . S
H746 C779 0.931 . S
H747 C781 0.930 . S
H748 C782 0.932 . S
H749 C784 0.931 . S
H750 C785 0.929 . S
H751 C787 0.929 . S
H752 C788 0.931 . S
H753 C790 0.929 . S
N754 C774 1.433 . S
N754 C780 1.435 . S
N754 C786 1.423 . S
H755 C791 0.932 . S
C756 N731 1.433 . S
C756 C757 1.363 . S
C756 C761 1.370 . S
C757 H730 0.929 . S
C757 C756 1.363 . S
C757 C758 1.385 . S
C758 H732 0.930 . S
C758 C757 1.385 . S
C758 C759 1.357 . S
C759 C758 1.357 . S
C759 C760 1.406 . S
C760 H734 0.929 . S
C760 C759 1.406 . S
C760 C761 1.391 . S
C761 H733 0.931 . S
C761 C756 1.370 . S
C761 C760 1.391 . S
C762 N731 1.435 . S
C762 C763 1.358 . S
C762 C767 1.371 . S
C763 H735 0.930 . S
C763 C762 1.358 . S
C763 C764 1.405 . S
C764 H736 0.932 . S
C764 C763 1.405 . S
C764 C765 1.383 . S
C765 C764 1.383 . S
C765 C766 1.393 . S
C766 H738 0.931 . S
C766 C765 1.393 . S
C766 C767 1.382 . S
C767 H737 0.929 . S
C767 C762 1.371 . S
C767 C766 1.382 . S
C768 N731 1.423 . S
C768 C769 1.362 . S
C768 C773 1.388 . S
C769 H739 0.929 . S
C769 C768 1.362 . S
C769 C770 1.376 . S
C770 H741 0.931 . S
C770 C769 1.376 . S
C770 C771 1.396 . S
C771 C770 1.396 . S
C771 C772 1.348 . S
C771 C789 1.472 . S
C772 H742 0.929 . S
C772 C771 1.348 . S
C772 C773 1.443 . S
C773 H740 0.932 . S
C773 C768 1.388 . S
C773 C772 1.443 . S
C774 N754 1.433 . S
C774 C775 1.363 . S
C774 C779 1.370 . S
C775 H743 0.929 . S
C775 C774 1.363 . S
C775 C776 1.385 . S
C776 H744 0.930 . S
C776 C775 1.385 . S
C776 C777 1.357 . S
C777 C776 1.357 . S
C777 C778 1.406 . S
C778 H745 0.929 . S
C778 C777 1.406 . S
C778 C779 1.391 . S
C779 H746 0.931 . S
C779 C774 1.370 . S
C779 C778 1.391 . S
C780 N754 1.435 . S
C780 C781 1.358 . S
C780 C785 1.371 . S
C781 H747 0.930 . S
C781 C780 1.358 . S
C781 C782 1.405 . S
C782 H748 0.932 . S
C782 C781 1.405 . S
C782 C783 1.383 . S
C783 C782 1.383 . S
C783 C784 1.393 . S
C784 H749 0.931 . S
C784 C783 1.393 . S
C784 C785 1.382 . S
C785 H750 0.929 . S
C785 C780 1.371 . S
C785 C784 1.382 . S
C786 N754 1.423 . S
C786 C787 1.362 . S
C786 C791 1.388 . S
C787 H751 0.929 . S
C787 C786 1.362 . S
C787 C788 1.376 . S
C788 H752 0.931 . S
C788 C787 1.376 . S
C788 C789 1.396 . S
C789 C771 1.472 . S
C789 C788 1.396 . S
C789 C790 1.348 . S
C790 H753 0.929 . S
C790 C789 1.348 . S
C790 C791 1.443 . S
C791 H755 0.932 . S
C791 C786 1.388 . S
C791 C790 1.443 . S
H792 C819 0.929 . S
N793 C818 1.433 . S
N793 C824 1.435 . S
N793 C830 1.423 . S
H794 C820 0.930 . S
H795 C823 0.931 . S
H796 C822 0.929 . S
H797 C825 0.930 . S
H798 C826 0.932 . S
H799 C829 0.929 . S
H800 C828 0.931 . S
H801 C831 0.929 . S
H802 C835 0.932 1_655 S
H803 C832 0.931 . S
H804 C834 0.929 . S
H805 C837 0.929 . S
H806 C838 0.930 . S
H807 C840 0.929 . S
H808 C841 0.931 . S
H809 C843 0.930 . S
H810 C844 0.932 . S
H811 C846 0.931 . S
H812 C847 0.929 . S
H813 C849 0.929 . S
H814 C850 0.931 . S
H815 C852 0.929 . S
N816 C836 1.433 . S
N816 C842 1.435 . S
N816 C848 1.423 . S
H817 C853 0.932 1_655 S
C818 N793 1.433 . S
C818 C819 1.363 . S
C818 C823 1.370 1_455 S
C819 H792 0.929 . S
C819 C818 1.363 . S
C819 C820 1.385 . S
C820 H794 0.930 . S
C820 C819 1.385 . S
C820 C821 1.357 1_455 S
C821 C820 1.357 1_655 S
C821 C822 1.406 . S
C822 H796 0.929 . S
C822 C821 1.406 . S
C822 C823 1.391 . S
C823 H795 0.931 . S
C823 C818 1.370 1_655 S
C823 C822 1.391 . S
C824 N793 1.435 . S
C824 C825 1.358 1_455 S
C824 C829 1.371 . S
C825 H797 0.930 . S
C825 C824 1.358 1_655 S
C825 C826 1.405 . S
C826 H798 0.932 . S
C826 C825 1.405 . S
C826 C827 1.383 1_655 S
C827 C826 1.383 1_455 S
C827 C828 1.393 . S
C828 H800 0.931 . S
C828 C827 1.393 . S
C828 C829 1.382 . S
C829 H799 0.929 . S
C829 C824 1.371 . S
C829 C828 1.382 . S
C830 N793 1.423 . S
C830 C831 1.362 . S
C830 C835 1.388 . S
C831 H801 0.929 . S
C831 C830 1.362 . S
C831 C832 1.376 . S
C832 H803 0.931 . S
C832 C831 1.376 . S
C832 C833 1.396 . S
C833 C832 1.396 . S
C833 C834 1.348 . S
C833 C851 1.472 . S
C834 H804 0.929 . S
C834 C833 1.348 . S
C834 C835 1.443 . S
C835 H802 0.932 1_455 S
C835 C830 1.388 . S
C835 C834 1.443 . S
C836 N816 1.433 . S
C836 C837 1.363 . S
C836 C841 1.370 1_455 S
C837 H805 0.929 . S
C837 C836 1.363 . S
C837 C838 1.385 . S
C838 H806 0.930 . S
C838 C837 1.385 . S
C838 C839 1.357 1_455 S
C839 C838 1.357 1_655 S
C839 C840 1.406 . S
C840 H807 0.929 . S
C840 C839 1.406 . S
C840 C841 1.391 . S
C841 H808 0.931 . S
C841 C836 1.370 1_655 S
C841 C840 1.391 . S
C842 N816 1.435 . S
C842 C843 1.358 1_455 S
C842 C847 1.371 . S
C843 H809 0.930 . S
C843 C842 1.358 1_655 S
C843 C844 1.405 . S
C844 H810 0.932 . S
C844 C843 1.405 . S
C844 C845 1.383 1_655 S
C845 C844 1.383 1_455 S
C845 C846 1.393 . S
C846 H811 0.931 . S
C846 C845 1.393 . S
C846 C847 1.382 . S
C847 H812 0.929 . S
C847 C842 1.371 . S
C847 C846 1.382 . S
C848 N816 1.423 . S
C848 C849 1.362 . S
C848 C853 1.388 . S
C849 H813 0.929 . S
C849 C848 1.362 . S
C849 C850 1.376 . S
C850 H814 0.931 . S
C850 C849 1.376 . S
C850 C851 1.396 . S
C851 C833 1.472 . S
C851 C850 1.396 . S
C851 C852 1.348 . S
C852 H815 0.929 . S
C852 C851 1.348 . S
C852 C853 1.443 . S
C853 H817 0.932 1_455 S
C853 C848 1.388 . S
C853 C852 1.443 . S
H854 C881 0.929 . S
N855 C880 1.433 . S
N855 C886 1.435 . S
N855 C892 1.423 . S
H856 C882 0.930 . S
H857 C885 0.931 . S
H858 C884 0.929 . S
H859 C887 0.930 . S
H860 C888 0.932 . S
H861 C891 0.929 . S
H862 C890 0.931 . S
H863 C893 0.929 . S
H864 C897 0.932 . S
H865 C894 0.931 . S
H866 C896 0.929 . S
H867 C899 0.929 . S
H868 C900 0.930 . S
H869 C902 0.929 . S
H870 C903 0.931 . S
H871 C905 0.930 . S
H872 C906 0.932 . S
H873 C908 0.931 . S
H874 C909 0.929 . S
H875 C911 0.929 . S
H876 C912 0.931 . S
H877 C914 0.929 . S
N878 C898 1.433 . S
N878 C904 1.435 . S
N878 C910 1.423 . S
H879 C915 0.932 . S
C880 N855 1.433 . S
C880 C881 1.363 . S
C880 C885 1.370 . S
C881 H854 0.929 . S
C881 C880 1.363 . S
C881 C882 1.385 . S
C882 H856 0.930 . S
C882 C881 1.385 . S
C882 C883 1.357 . S
C883 C882 1.357 . S
C883 C884 1.406 . S
C884 H858 0.929 . S
C884 C883 1.406 . S
C884 C885 1.391 . S
C885 H857 0.931 . S
C885 C880 1.370 . S
C885 C884 1.391 . S
C886 N855 1.435 . S
C886 C887 1.358 . S
C886 C891 1.371 . S
C887 H859 0.930 . S
C887 C886 1.358 . S
C887 C888 1.405 . S
C888 H860 0.932 . S
C888 C887 1.405 . S
C888 C889 1.383 . S
C889 C888 1.383 . S
C889 C890 1.393 . S
C890 H862 0.931 . S
C890 C889 1.393 . S
C890 C891 1.382 . S
C891 H861 0.929 . S
C891 C886 1.371 . S
C891 C890 1.382 . S
C892 N855 1.423 . S
C892 C893 1.362 . S
C892 C897 1.388 . S
C893 H863 0.929 . S
C893 C892 1.362 . S
C893 C894 1.376 . S
C894 H865 0.931 . S
C894 C893 1.376 . S
C894 C895 1.396 . S
C895 C894 1.396 . S
C895 C896 1.348 . S
C895 C913 1.472 . S
C896 H866 0.929 . S
C896 C895 1.348 . S
C896 C897 1.443 . S
C897 H864 0.932 . S
C897 C892 1.388 . S
C897 C896 1.443 . S
C898 N878 1.433 . S
C898 C899 1.363 . S
C898 C903 1.370 . S
C899 H867 0.929 . S
C899 C898 1.363 . S
C899 C900 1.385 . S
C900 H868 0.930 . S
C900 C899 1.385 . S
C900 C901 1.357 . S
C901 C900 1.357 . S
C901 C902 1.406 . S
C902 H869 0.929 . S
C902 C901 1.406 . S
C902 C903 1.391 . S
C903 H870 0.931 . S
C903 C898 1.370 . S
C903 C902 1.391 . S
C904 N878 1.435 . S
C904 C905 1.358 . S
C904 C909 1.371 . S
C905 H871 0.930 . S
C905 C904 1.358 . S
C905 C906 1.405 . S
C906 H872 0.932 . S
C906 C905 1.405 . S
C906 C907 1.383 . S
C907 C906 1.383 . S
C907 C908 1.393 . S
C908 H873 0.931 . S
C908 C907 1.393 . S
C908 C909 1.382 . S
C909 H874 0.929 . S
C909 C904 1.371 . S
C909 C908 1.382 . S
C910 N878 1.423 . S
C910 C911 1.362 . S
C910 C915 1.388 . S
C911 H875 0.929 . S
C911 C910 1.362 . S
C911 C912 1.376 . S
C912 H876 0.931 . S
C912 C911 1.376 . S
C912 C913 1.396 . S
C913 C895 1.472 . S
C913 C912 1.396 . S
C913 C914 1.348 . S
C914 H877 0.929 . S
C914 C913 1.348 . S
C914 C915 1.443 . S
C915 H879 0.932 . S
C915 C910 1.388 . S
C915 C914 1.443 . S
H916 C943 0.929 . S
N917 C942 1.433 . S
N917 C948 1.435 . S
N917 C954 1.423 . S
H918 C944 0.930 . S
H919 C947 0.931 . S
H920 C946 0.929 . S
H921 C949 0.930 . S
H922 C950 0.932 . S
H923 C953 0.929 . S
H924 C952 0.931 . S
H925 C955 0.929 . S
H926 C959 0.932 1_545 S
H927 C956 0.931 . S
H928 C958 0.929 . S
H929 C961 0.929 . S
H930 C962 0.930 . S
H931 C964 0.929 . S
H932 C965 0.931 . S
H933 C967 0.930 . S
H934 C968 0.932 . S
H935 C970 0.931 . S
H936 C971 0.929 . S
H937 C973 0.929 . S
H938 C974 0.931 . S
H939 C976 0.929 . S
N940 C960 1.433 . S
N940 C966 1.435 . S
N940 C972 1.423 . S
H941 C977 0.932 1_545 S
C942 N917 1.433 . S
C942 C943 1.363 . S
C942 C947 1.370 1_565 S
C943 H916 0.929 . S
C943 C942 1.363 . S
C943 C944 1.385 . S
C944 H918 0.930 . S
C944 C943 1.385 . S
C944 C945 1.357 1_565 S
C945 C944 1.357 1_545 S
C945 C946 1.406 . S
C946 H920 0.929 . S
C946 C945 1.406 . S
C946 C947 1.391 . S
C947 H919 0.931 . S
C947 C942 1.370 1_545 S
C947 C946 1.391 . S
C948 N917 1.435 . S
C948 C949 1.358 1_565 S
C948 C953 1.371 . S
C949 H921 0.930 . S
C949 C948 1.358 1_545 S
C949 C950 1.405 . S
C950 H922 0.932 . S
C950 C949 1.405 . S
C950 C951 1.383 1_545 S
C951 C950 1.383 1_565 S
C951 C952 1.393 . S
C952 H924 0.931 . S
C952 C951 1.393 . S
C952 C953 1.382 . S
C953 H923 0.929 . S
C953 C948 1.371 . S
C953 C952 1.382 . S
C954 N917 1.423 . S
C954 C955 1.362 . S
C954 C959 1.388 . S
C955 H925 0.929 . S
C955 C954 1.362 . S
C955 C956 1.376 . S
C956 H927 0.931 . S
C956 C955 1.376 . S
C956 C957 1.396 . S
C957 C956 1.396 . S
C957 C958 1.348 . S
C957 C975 1.472 . S
C958 H928 0.929 . S
C958 C957 1.348 . S
C958 C959 1.443 . S
C959 H926 0.932 1_565 S
C959 C954 1.388 . S
C959 C958 1.443 . S
C960 N940 1.433 . S
C960 C961 1.363 . S
C960 C965 1.370 1_565 S
C961 H929 0.929 . S
C961 C960 1.363 . S
C961 C962 1.385 . S
C962 H930 0.930 . S
C962 C961 1.385 . S
C962 C963 1.357 1_565 S
C963 C962 1.357 1_545 S
C963 C964 1.406 . S
C964 H931 0.929 . S
C964 C963 1.406 . S
C964 C965 1.391 . S
C965 H932 0.931 . S
C965 C960 1.370 1_545 S
C965 C964 1.391 . S
C966 N940 1.435 . S
C966 C967 1.358 1_565 S
C966 C971 1.371 . S
C967 H933 0.930 . S
C967 C966 1.358 1_545 S
C967 C968 1.405 . S
C968 H934 0.932 . S
C968 C967 1.405 . S
C968 C969 1.383 1_545 S
C969 C968 1.383 1_565 S
C969 C970 1.393 . S
C970 H935 0.931 . S
C970 C969 1.393 . S
C970 C971 1.382 . S
C971 H936 0.929 . S
C971 C966 1.371 . S
C971 C970 1.382 . S
C972 N940 1.423 . S
C972 C973 1.362 . S
C972 C977 1.388 . S
C973 H937 0.929 . S
C973 C972 1.362 . S
C973 C974 1.376 . S
C974 H938 0.931 . S
C974 C973 1.376 . S
C974 C975 1.396 . S
C975 C957 1.472 . S
C975 C974 1.396 . S
C975 C976 1.348 . S
C976 H939 0.929 . S
C976 C975 1.348 . S
C976 C977 1.443 . S
C977 H941 0.932 1_565 S
C977 C972 1.388 . S
C977 C976 1.443 . S
H978 C1005 0.929 . S
N979 C1004 1.433 . S
N979 C1010 1.435 . S
N979 C1016 1.423 . S
H980 C1006 0.930 . S
H981 C1009 0.931 . S
H982 C1008 0.929 . S
H983 C1011 0.930 . S
H984 C1012 0.932 . S
H985 C1015 0.929 . S
H986 C1014 0.931 . S
H987 C1017 0.929 . S
H988 C1021 0.932 . S
H989 C1018 0.931 . S
H990 C1020 0.923 1_545 S
H991 C1023 0.929 . S
H992 C1024 0.930 . S
H993 C1026 0.954 . S
H994 C1027 0.947 . S
H995 C1029 0.930 . S
H996 C1030 0.932 . S
H997 C1032 0.931 . S
H998 C1033 0.929 . S
H999 C1035 0.929 . S
H1000 C1036 0.931 . S
H1001 C1038 0.886 1_545 S
N1002 C1022 1.433 . S
N1002 C1028 1.435 . S
N1002 C1034 1.423 . S
H1003 C1039 0.932 . S
C1004 N979 1.433 . S
C1004 C1005 1.363 . S
C1004 C1009 1.370 1_565 S
C1005 H978 0.929 . S
C1005 C1004 1.363 . S
C1005 C1006 1.385 . S
C1006 H980 0.930 . S
C1006 C1005 1.385 . S
C1006 C1007 1.357 . S
C1007 C1006 1.357 . S
C1007 C1008 1.406 1_565 S
C1008 H982 0.929 . S
C1008 C1007 1.406 1_545 S
C1008 C1009 1.391 . S
C1009 H981 0.931 . S
C1009 C1004 1.370 1_545 S
C1009 C1008 1.391 . S
C1010 N979 1.435 . S
C1010 C1011 1.358 1_565 S
C1010 C1015 1.371 . S
C1011 H983 0.930 . S
C1011 C1010 1.358 1_545 S
C1011 C1012 1.405 . S
C1012 H984 0.932 . S
C1012 C1011 1.405 . S
C1012 C1013 1.383 . S
C1013 C1012 1.383 . S
C1013 C1014 1.393 1_545 S
C1014 H986 0.931 . S
C1014 C1013 1.393 1_565 S
C1014 C1015 1.382 . S
C1015 H985 0.929 . S
C1015 C1010 1.371 . S
C1015 C1014 1.382 . S
C1016 N979 1.423 . S
C1016 C1017 1.362 . S
C1016 C1021 1.388 1_565 S
C1017 H987 0.929 . S
C1017 C1016 1.362 . S
C1017 C1018 1.376 . S
C1018 H989 0.931 . S
C1018 C1017 1.376 . S
C1018 C1019 1.396 . S
C1019 C1018 1.396 . S
C1019 C1020 1.374 . S
C1019 C1037 1.472 . S
C1020 H990 0.923 1_565 S
C1020 C1019 1.374 . S
C1020 C1021 1.423 1_565 S
C1021 H988 0.932 . S
C1021 C1016 1.388 1_545 S
C1021 C1020 1.423 1_545 S
C1022 N1002 1.433 . S
C1022 C1023 1.363 . S
C1022 C1027 1.358 1_565 S
C1023 H991 0.929 . S
C1023 C1022 1.363 . S
C1023 C1024 1.385 . S
C1024 H992 0.930 . S
C1024 C1023 1.385 . S
C1024 C1025 1.357 . S
C1025 C1024 1.357 . S
C1025 C1026 1.375 1_565 S
C1026 H993 0.954 . S
C1026 C1025 1.375 1_545 S
C1026 C1027 1.395 . S
C1027 H994 0.947 . S
C1027 C1022 1.358 1_545 S
C1027 C1026 1.395 . S
C1028 N1002 1.435 . S
C1028 C1029 1.358 1_565 S
C1028 C1033 1.371 . S
C1029 H995 0.930 . S
C1029 C1028 1.358 1_545 S
C1029 C1030 1.405 . S
C1030 H996 0.932 . S
C1030 C1029 1.405 . S
C1030 C1031 1.383 . S
C1031 C1030 1.383 . S
C1031 C1032 1.393 1_545 S
C1032 H997 0.931 . S
C1032 C1031 1.393 1_565 S
C1032 C1033 1.382 . S
C1033 H998 0.929 . S
C1033 C1028 1.371 . S
C1033 C1032 1.382 . S
C1034 N1002 1.423 . S
C1034 C1035 1.362 . S
C1034 C1039 1.388 1_565 S
C1035 H999 0.929 . S
C1035 C1034 1.362 . S
C1035 C1036 1.376 . S
C1036 H1000 0.931 . S
C1036 C1035 1.376 . S
C1036 C1037 1.396 . S
C1037 C1019 1.472 . S
C1037 C1036 1.396 . S
C1037 C1038 1.365 . S
C1038 H1001 0.886 1_565 S
C1038 C1037 1.365 . S
C1038 C1039 1.470 1_565 S
C1039 H1003 0.932 . S
C1039 C1034 1.388 1_545 S
C1039 C1038 1.470 1_545 S
H1040 C1067 0.929 . S
N1041 C1066 1.433 . S
N1041 C1072 1.435 . S
N1041 C1078 1.423 . S
H1042 C1068 0.930 . S
H1043 C1071 0.931 . S
H1044 C1070 0.929 . S
H1045 C1073 0.930 . S
H1046 C1074 0.932 . S
H1047 C1077 0.929 . S
H1048 C1076 0.931 . S
H1049 C1079 0.929 . S
H1050 C1083 0.932 1_455 S
H1051 C1080 0.931 . S
H1052 C1082 0.929 . S
H1053 C1085 0.929 . S
H1054 C1086 0.930 . S
H1055 C1088 0.929 . S
H1056 C1089 0.931 . S
H1057 C1091 0.930 . S
H1058 C1092 0.932 . S
H1059 C1094 0.931 . S
H1060 C1095 0.929 . S
H1061 C1097 0.929 . S
H1062 C1098 0.931 . S
H1063 C1100 0.929 . S
N1064 C1084 1.433 . S
N1064 C1090 1.435 . S
N1064 C1096 1.423 . S
H1065 C1101 0.932 1_455 S
C1066 N1041 1.433 . S
C1066 C1067 1.363 . S
C1066 C1071 1.370 1_655 S
C1067 H1040 0.929 . S
C1067 C1066 1.363 . S
C1067 C1068 1.385 . S
C1068 H1042 0.930 . S
C1068 C1067 1.385 . S
C1068 C1069 1.357 1_655 S
C1069 C1068 1.357 1_455 S
C1069 C1070 1.406 . S
C1070 H1044 0.929 . S
C1070 C1069 1.406 . S
C1070 C1071 1.391 . S
C1071 H1043 0.931 . S
C1071 C1066 1.370 1_455 S
C1071 C1070 1.391 . S
C1072 N1041 1.435 . S
C1072 C1073 1.358 1_655 S
C1072 C1077 1.371 . S
C1073 H1045 0.930 . S
C1073 C1072 1.358 1_455 S
C1073 C1074 1.405 . S
C1074 H1046 0.932 . S
C1074 C1073 1.405 . S
C1074 C1075 1.383 1_455 S
C1075 C1074 1.383 1_655 S
C1075 C1076 1.393 . S
C1076 H1048 0.931 . S
C1076 C1075 1.393 . S
C1076 C1077 1.382 . S
C1077 H1047 0.929 . S
C1077 C1072 1.371 . S
C1077 C1076 1.382 . S
C1078 N1041 1.423 . S
C1078 C1079 1.362 . S
C1078 C1083 1.388 . S
C1079 H1049 0.929 . S
C1079 C1078 1.362 . S
C1079 C1080 1.376 . S
C1080 H1051 0.931 . S
C1080 C1079 1.376 . S
C1080 C1081 1.396 . S
C1081 C1080 1.396 . S
C1081 C1082 1.348 . S
C1081 C1099 1.472 . S
C1082 H1052 0.929 . S
C1082 C1081 1.348 . S
C1082 C1083 1.443 . S
C1083 H1050 0.932 1_655 S
C1083 C1078 1.388 . S
C1083 C1082 1.443 . S
C1084 N1064 1.433 . S
C1084 C1085 1.363 . S
C1084 C1089 1.370 1_655 S
C1085 H1053 0.929 . S
C1085 C1084 1.363 . S
C1085 C1086 1.385 . S
C1086 H1054 0.930 . S
C1086 C1085 1.385 . S
C1086 C1087 1.357 1_655 S
C1087 C1086 1.357 1_455 S
C1087 C1088 1.406 . S
C1088 H1055 0.929 . S
C1088 C1087 1.406 . S
C1088 C1089 1.391 . S
C1089 H1056 0.931 . S
C1089 C1084 1.370 1_455 S
C1089 C1088 1.391 . S
C1090 N1064 1.435 . S
C1090 C1091 1.358 1_655 S
C1090 C1095 1.371 . S
C1091 H1057 0.930 . S
C1091 C1090 1.358 1_455 S
C1091 C1092 1.405 . S
C1092 H1058 0.932 . S
C1092 C1091 1.405 . S
C1092 C1093 1.383 1_455 S
C1093 C1092 1.383 1_655 S
C1093 C1094 1.393 . S
C1094 H1059 0.931 . S
C1094 C1093 1.393 . S
C1094 C1095 1.382 . S
C1095 H1060 0.929 . S
C1095 C1090 1.371 . S
C1095 C1094 1.382 . S
C1096 N1064 1.423 . S
C1096 C1097 1.362 . S
C1096 C1101 1.388 . S
C1097 H1061 0.929 . S
C1097 C1096 1.362 . S
C1097 C1098 1.376 . S
C1098 H1062 0.931 . S
C1098 C1097 1.376 . S
C1098 C1099 1.396 . S
C1099 C1081 1.472 . S
C1099 C1098 1.396 . S
C1099 C1100 1.348 . S
C1100 H1063 0.929 . S
C1100 C1099 1.348 . S
C1100 C1101 1.443 . S
C1101 H1065 0.932 1_655 S
C1101 C1096 1.388 . S
C1101 C1100 1.443 . S
H1102 C1129 0.929 . S
N1103 C1128 1.433 . S
N1103 C1134 1.435 . S
N1103 C1140 1.423 . S
H1104 C1130 0.930 . S
H1105 C1133 0.931 . S
H1106 C1132 0.929 . S
H1107 C1135 0.930 . S
H1108 C1136 0.932 . S
H1109 C1139 0.929 . S
H1110 C1138 0.931 . S
H1111 C1141 0.929 . S
H1112 C1145 0.932 . S
H1113 C1142 0.931 . S
H1114 C1144 0.929 . S
H1115 C1147 0.929 . S
H1116 C1148 0.930 . S
H1117 C1150 0.929 . S
H1118 C1151 0.931 . S
H1119 C1153 0.930 . S
H1120 C1154 0.932 . S
H1121 C1156 0.931 . S
H1122 C1157 0.929 . S
H1123 C1159 0.929 . S
H1124 C1160 0.931 . S
H1125 C1162 0.929 . S
N1126 C1146 1.433 . S
N1126 C1152 1.435 . S
N1126 C1158 1.423 . S
H1127 C1163 0.932 . S
C1128 N1103 1.433 . S
C1128 C1129 1.363 . S
C1128 C1133 1.370 . S
C1129 H1102 0.929 . S
C1129 C1128 1.363 . S
C1129 C1130 1.385 . S
C1130 H1104 0.930 . S
C1130 C1129 1.385 . S
C1130 C1131 1.357 . S
C1131 C1130 1.357 . S
C1131 C1132 1.406 . S
C1132 H1106 0.929 . S
C1132 C1131 1.406 . S
C1132 C1133 1.391 . S
C1133 H1105 0.931 . S
C1133 C1128 1.370 . S
C1133 C1132 1.391 . S
C1134 N1103 1.435 . S
C1134 C1135 1.358 . S
C1134 C1139 1.371 . S
C1135 H1107 0.930 . S
C1135 C1134 1.358 . S
C1135 C1136 1.405 . S
C1136 H1108 0.932 . S
C1136 C1135 1.405 . S
C1136 C1137 1.383 . S
C1137 C1136 1.383 . S
C1137 C1138 1.393 . S
C1138 H1110 0.931 . S
C1138 C1137 1.393 . S
C1138 C1139 1.382 . S
C1139 H1109 0.929 . S
C1139 C1134 1.371 . S
C1139 C1138 1.382 . S
C1140 N1103 1.423 . S
C1140 C1141 1.362 . S
C1140 C1145 1.388 . S
C1141 H1111 0.929 . S
C1141 C1140 1.362 . S
C1141 C1142 1.376 . S
C1142 H1113 0.931 . S
C1142 C1141 1.376 . S
C1142 C1143 1.396 . S
C1143 C1142 1.396 . S
C1143 C1144 1.348 . S
C1143 C1161 1.472 . S
C1144 H1114 0.929 . S
C1144 C1143 1.348 . S
C1144 C1145 1.443 . S
C1145 H1112 0.932 . S
C1145 C1140 1.388 . S
C1145 C1144 1.443 . S
C1146 N1126 1.433 . S
C1146 C1147 1.363 . S
C1146 C1151 1.370 . S
C1147 H1115 0.929 . S
C1147 C1146 1.363 . S
C1147 C1148 1.385 . S
C1148 H1116 0.930 . S
C1148 C1147 1.385 . S
C1148 C1149 1.357 . S
C1149 C1148 1.357 . S
C1149 C1150 1.406 . S
C1150 H1117 0.929 . S
C1150 C1149 1.406 . S
C1150 C1151 1.391 . S
C1151 H1118 0.931 . S
C1151 C1146 1.370 . S
C1151 C1150 1.391 . S
C1152 N1126 1.435 . S
C1152 C1153 1.358 . S
C1152 C1157 1.371 . S
C1153 H1119 0.930 . S
C1153 C1152 1.358 . S
C1153 C1154 1.405 . S
C1154 H1120 0.932 . S
C1154 C1153 1.405 . S
C1154 C1155 1.383 . S
C1155 C1154 1.383 . S
C1155 C1156 1.393 . S
C1156 H1121 0.931 . S
C1156 C1155 1.393 . S
C1156 C1157 1.382 . S
C1157 H1122 0.929 . S
C1157 C1152 1.371 . S
C1157 C1156 1.382 . S
C1158 N1126 1.423 . S
C1158 C1159 1.362 . S
C1158 C1163 1.388 . S
C1159 H1123 0.929 . S
C1159 C1158 1.362 . S
C1159 C1160 1.376 . S
C1160 H1124 0.931 . S
C1160 C1159 1.376 . S
C1160 C1161 1.396 . S
C1161 C1143 1.472 . S
C1161 C1160 1.396 . S
C1161 C1162 1.348 . S
C1162 H1125 0.929 . S
C1162 C1161 1.348 . S
C1162 C1163 1.443 . S
C1163 H1127 0.932 . S
C1163 C1158 1.388 . S
C1163 C1162 1.443 . S
H1164 C1191 0.929 . S
N1165 C1190 1.433 . S
N1165 C1196 1.435 . S
N1165 C1202 1.423 . S
H1166 C1192 0.930 . S
H1167 C1195 0.931 . S
H1168 C1194 0.929 . S
H1169 C1197 0.930 . S
H1170 C1198 0.932 . S
H1171 C1201 0.929 . S
H1172 C1200 0.931 . S
H1173 C1203 0.929 . S
H1174 C1207 0.932 . S
H1175 C1204 0.931 . S
H1176 C1206 0.929 . S
H1177 C1209 0.929 . S
H1178 C1210 0.930 . S
H1179 C1212 0.929 . S
H1180 C1213 0.931 . S
H1181 C1215 0.930 . S
H1182 C1216 0.932 . S
H1183 C1218 0.931 . S
H1184 C1219 0.929 . S
H1185 C1221 0.929 . S
H1186 C1222 0.931 . S
H1187 C1224 0.929 . S
N1188 C1208 1.433 . S
N1188 C1214 1.435 . S
N1188 C1220 1.423 . S
H1189 C1225 0.932 . S
C1190 N1165 1.433 . S
C1190 C1191 1.363 . S
C1190 C1195 1.370 . S
C1191 H1164 0.929 . S
C1191 C1190 1.363 . S
C1191 C1192 1.385 . S
C1192 H1166 0.930 . S
C1192 C1191 1.385 . S
C1192 C1193 1.357 . S
C1193 C1192 1.357 . S
C1193 C1194 1.406 . S
C1194 H1168 0.929 . S
C1194 C1193 1.406 . S
C1194 C1195 1.391 . S
C1195 H1167 0.931 . S
C1195 C1190 1.370 . S
C1195 C1194 1.391 . S
C1196 N1165 1.435 . S
C1196 C1197 1.358 . S
C1196 C1201 1.371 . S
C1197 H1169 0.930 . S
C1197 C1196 1.358 . S
C1197 C1198 1.405 . S
C1198 H1170 0.932 . S
C1198 C1197 1.405 . S
C1198 C1199 1.383 . S
C1199 C1198 1.383 . S
C1199 C1200 1.393 . S
C1200 H1172 0.931 . S
C1200 C1199 1.393 . S
C1200 C1201 1.382 . S
C1201 H1171 0.929 . S
C1201 C1196 1.371 . S
C1201 C1200 1.382 . S
C1202 N1165 1.423 . S
C1202 C1203 1.362 . S
C1202 C1207 1.388 . S
C1203 H1173 0.929 . S
C1203 C1202 1.362 . S
C1203 C1204 1.376 . S
C1204 H1175 0.931 . S
C1204 C1203 1.376 . S
C1204 C1205 1.396 . S
C1205 C1204 1.396 . S
C1205 C1206 1.348 . S
C1205 C1223 1.472 . S
C1206 H1176 0.929 . S
C1206 C1205 1.348 . S
C1206 C1207 1.443 . S
C1207 H1174 0.932 . S
C1207 C1202 1.388 . S
C1207 C1206 1.443 . S
C1208 N1188 1.433 . S
C1208 C1209 1.363 . S
C1208 C1213 1.370 . S
C1209 H1177 0.929 . S
C1209 C1208 1.363 . S
C1209 C1210 1.385 . S
C1210 H1178 0.930 . S
C1210 C1209 1.385 . S
C1210 C1211 1.357 . S
C1211 C1210 1.357 . S
C1211 C1212 1.406 . S
C1212 H1179 0.929 . S
C1212 C1211 1.406 . S
C1212 C1213 1.391 . S
C1213 H1180 0.931 . S
C1213 C1208 1.370 . S
C1213 C1212 1.391 . S
C1214 N1188 1.435 . S
C1214 C1215 1.358 . S
C1214 C1219 1.371 . S
C1215 H1181 0.930 . S
C1215 C1214 1.358 . S
C1215 C1216 1.405 . S
C1216 H1182 0.932 . S
C1216 C1215 1.405 . S
C1216 C1217 1.383 . S
C1217 C1216 1.383 . S
C1217 C1218 1.393 . S
C1218 H1183 0.931 . S
C1218 C1217 1.393 . S
C1218 C1219 1.382 . S
C1219 H1184 0.929 . S
C1219 C1214 1.371 . S
C1219 C1218 1.382 . S
C1220 N1188 1.423 . S
C1220 C1221 1.362 . S
C1220 C1225 1.388 . S
C1221 H1185 0.929 . S
C1221 C1220 1.362 . S
C1221 C1222 1.376 . S
C1222 H1186 0.931 . S
C1222 C1221 1.376 . S
C1222 C1223 1.396 . S
C1223 C1205 1.472 . S
C1223 C1222 1.396 . S
C1223 C1224 1.348 . S
C1224 H1187 0.929 . S
C1224 C1223 1.348 . S
C1224 C1225 1.443 . S
C1225 H1189 0.932 . S
C1225 C1220 1.388 . S
C1225 C1224 1.443 . S
H1226 C1253 0.929 . S
N1227 C1252 1.433 . S
N1227 C1258 1.435 . S
N1227 C1264 1.423 . S
H1228 C1254 0.930 . S
H1229 C1257 0.931 . S
H1230 C1256 0.929 . S
H1231 C1259 0.930 . S
H1232 C1260 0.932 . S
H1233 C1263 0.929 . S
H1234 C1262 0.931 . S
H1235 C1265 0.929 . S
H1236 C1269 0.932 . S
H1237 C1266 0.931 . S
H1238 C1268 0.929 . S
H1239 C1271 0.929 . S
H1240 C1272 0.930 . S
H1241 C1274 0.929 . S
H1242 C1275 0.931 . S
H1243 C1277 0.930 . S
H1244 C1278 0.932 . S
H1245 C1280 0.931 . S
H1246 C1281 0.929 . S
H1247 C1283 0.929 . S
H1248 C1284 0.931 . S
H1249 C1286 0.929 . S
N1250 C1270 1.433 . S
N1250 C1276 1.435 . S
N1250 C1282 1.423 . S
H1251 C1287 0.932 . S
C1252 N1227 1.433 . S
C1252 C1253 1.363 . S
C1252 C1257 1.370 . S
C1253 H1226 0.929 . S
C1253 C1252 1.363 . S
C1253 C1254 1.385 . S
C1254 H1228 0.930 . S
C1254 C1253 1.385 . S
C1254 C1255 1.357 . S
C1255 C1254 1.357 . S
C1255 C1256 1.406 . S
C1256 H1230 0.929 . S
C1256 C1255 1.406 . S
C1256 C1257 1.391 . S
C1257 H1229 0.931 . S
C1257 C1252 1.370 . S
C1257 C1256 1.391 . S
C1258 N1227 1.435 . S
C1258 C1259 1.358 . S
C1258 C1263 1.371 . S
C1259 H1231 0.930 . S
C1259 C1258 1.358 . S
C1259 C1260 1.405 . S
C1260 H1232 0.932 . S
C1260 C1259 1.405 . S
C1260 C1261 1.383 . S
C1261 C1260 1.383 . S
C1261 C1262 1.393 . S
C1262 H1234 0.931 . S
C1262 C1261 1.393 . S
C1262 C1263 1.382 . S
C1263 H1233 0.929 . S
C1263 C1258 1.371 . S
C1263 C1262 1.382 . S
C1264 N1227 1.423 . S
C1264 C1265 1.362 . S
C1264 C1269 1.388 . S
C1265 H1235 0.929 . S
C1265 C1264 1.362 . S
C1265 C1266 1.376 . S
C1266 H1237 0.931 . S
C1266 C1265 1.376 . S
C1266 C1267 1.396 . S
C1267 C1266 1.396 . S
C1267 C1268 1.348 . S
C1267 C1285 1.472 . S
C1268 H1238 0.929 . S
C1268 C1267 1.348 . S
C1268 C1269 1.443 . S
C1269 H1236 0.932 . S
C1269 C1264 1.388 . S
C1269 C1268 1.443 . S
C1270 N1250 1.433 . S
C1270 C1271 1.363 . S
C1270 C1275 1.370 . S
C1271 H1239 0.929 . S
C1271 C1270 1.363 . S
C1271 C1272 1.385 . S
C1272 H1240 0.930 . S
C1272 C1271 1.385 . S
C1272 C1273 1.357 . S
C1273 C1272 1.357 . S
C1273 C1274 1.406 . S
C1274 H1241 0.929 . S
C1274 C1273 1.406 . S
C1274 C1275 1.391 . S
C1275 H1242 0.931 . S
C1275 C1270 1.370 . S
C1275 C1274 1.391 . S
C1276 N1250 1.435 . S
C1276 C1277 1.358 . S
C1276 C1281 1.371 . S
C1277 H1243 0.930 . S
C1277 C1276 1.358 . S
C1277 C1278 1.405 . S
C1278 H1244 0.932 . S
C1278 C1277 1.405 . S
C1278 C1279 1.383 . S
C1279 C1278 1.383 . S
C1279 C1280 1.393 . S
C1280 H1245 0.931 . S
C1280 C1279 1.393 . S
C1280 C1281 1.382 . S
C1281 H1246 0.929 . S
C1281 C1276 1.371 . S
C1281 C1280 1.382 . S
C1282 N1250 1.423 . S
C1282 C1283 1.362 . S
C1282 C1287 1.388 . S
C1283 H1247 0.929 . S
C1283 C1282 1.362 . S
C1283 C1284 1.376 . S
C1284 H1248 0.931 . S
C1284 C1283 1.376 . S
C1284 C1285 1.396 . S
C1285 C1267 1.472 . S
C1285 C1284 1.396 . S
C1285 C1286 1.348 . S
C1286 H1249 0.929 . S
C1286 C1285 1.348 . S
C1286 C1287 1.443 . S
C1287 H1251 0.932 . S
C1287 C1282 1.388 . S
C1287 C1286 1.443 . S
H1288 C1315 0.929 . S
N1289 C1314 1.433 . S
N1289 C1320 1.435 . S
N1289 C1326 1.423 . S
H1290 C1316 0.930 . S
H1291 C1319 0.931 . S
H1292 C1318 0.929 . S
H1293 C1321 0.930 . S
H1294 C1322 0.932 . S
H1295 C1325 0.929 . S
H1296 C1324 0.931 . S
H1297 C1327 0.929 . S
H1298 C1331 0.932 . S
H1299 C1328 0.931 . S
H1300 C1330 0.929 . S
H1301 C1333 0.929 . S
H1302 C1334 0.930 . S
H1303 C1336 0.929 . S
H1304 C1337 0.931 . S
H1305 C1339 0.930 . S
H1306 C1340 0.932 . S
H1307 C1342 0.931 . S
H1308 C1343 0.929 . S
H1309 C1345 0.929 . S
H1310 C1346 0.931 . S
H1311 C1348 0.929 . S
N1312 C1332 1.433 . S
N1312 C1338 1.435 . S
N1312 C1344 1.423 . S
H1313 C1349 0.932 . S
C1314 N1289 1.433 . S
C1314 C1315 1.363 . S
C1314 C1319 1.370 . S
C1315 H1288 0.929 . S
C1315 C1314 1.363 . S
C1315 C1316 1.385 . S
C1316 H1290 0.930 . S
C1316 C1315 1.385 . S
C1316 C1317 1.357 . S
C1317 C1316 1.357 . S
C1317 C1318 1.406 . S
C1318 H1292 0.929 . S
C1318 C1317 1.406 . S
C1318 C1319 1.391 . S
C1319 H1291 0.931 . S
C1319 C1314 1.370 . S
C1319 C1318 1.391 . S
C1320 N1289 1.435 . S
C1320 C1321 1.358 . S
C1320 C1325 1.371 . S
C1321 H1293 0.930 . S
C1321 C1320 1.358 . S
C1321 C1322 1.405 . S
C1322 H1294 0.932 . S
C1322 C1321 1.405 . S
C1322 C1323 1.383 . S
C1323 C1322 1.383 . S
C1323 C1324 1.393 . S
C1324 H1296 0.931 . S
C1324 C1323 1.393 . S
C1324 C1325 1.382 . S
C1325 H1295 0.929 . S
C1325 C1320 1.371 . S
C1325 C1324 1.382 . S
C1326 N1289 1.423 . S
C1326 C1327 1.362 . S
C1326 C1331 1.388 . S
C1327 H1297 0.929 . S
C1327 C1326 1.362 . S
C1327 C1328 1.376 . S
C1328 H1299 0.931 . S
C1328 C1327 1.376 . S
C1328 C1329 1.396 . S
C1329 C1328 1.396 . S
C1329 C1330 1.348 . S
C1329 C1347 1.472 . S
C1330 H1300 0.929 . S
C1330 C1329 1.348 . S
C1330 C1331 1.443 . S
C1331 H1298 0.932 . S
C1331 C1326 1.388 . S
C1331 C1330 1.443 . S
C1332 N1312 1.433 . S
C1332 C1333 1.363 . S
C1332 C1337 1.370 . S
C1333 H1301 0.929 . S
C1333 C1332 1.363 . S
C1333 C1334 1.385 . S
C1334 H1302 0.930 . S
C1334 C1333 1.385 . S
C1334 C1335 1.357 . S
C1335 C1334 1.357 . S
C1335 C1336 1.406 . S
C1336 H1303 0.929 . S
C1336 C1335 1.406 . S
C1336 C1337 1.391 . S
C1337 H1304 0.931 . S
C1337 C1332 1.370 . S
C1337 C1336 1.391 . S
C1338 N1312 1.435 . S
C1338 C1339 1.358 . S
C1338 C1343 1.371 . S
C1339 H1305 0.930 . S
C1339 C1338 1.358 . S
C1339 C1340 1.405 . S
C1340 H1306 0.932 . S
C1340 C1339 1.405 . S
C1340 C1341 1.383 . S
C1341 C1340 1.383 . S
C1341 C1342 1.393 . S
C1342 H1307 0.931 . S
C1342 C1341 1.393 . S
C1342 C1343 1.382 . S
C1343 H1308 0.929 . S
C1343 C1338 1.371 . S
C1343 C1342 1.382 . S
C1344 N1312 1.423 . S
C1344 C1345 1.362 . S
C1344 C1349 1.388 . S
C1345 H1309 0.929 . S
C1345 C1344 1.362 . S
C1345 C1346 1.376 . S
C1346 H1310 0.931 . S
C1346 C1345 1.376 . S
C1346 C1347 1.396 . S
C1347 C1329 1.472 . S
C1347 C1346 1.396 . S
C1347 C1348 1.348 . S
C1348 H1311 0.929 . S
C1348 C1347 1.348 . S
C1348 C1349 1.443 . S
C1349 H1313 0.932 . S
C1349 C1344 1.388 . S
C1349 C1348 1.443 . S
C1350 C1351 1.369 . S
C1350 C1352 1.419 . S
C1350 H1354 0.930 . S
C1351 C1350 1.369 . S
C1351 C1360 1.425 1_655 S
C1352 C1350 1.419 . S
C1352 C1353 1.363 . S
C1352 H1355 0.929 . S
C1353 C1352 1.363 . S
C1353 C1359 1.428 1_655 S
H1354 C1350 0.930 . S
H1355 C1352 0.929 . S
S1356 N1357 1.613 . S
S1356 N1358 1.610 . S
N1357 S1356 1.613 . S
N1357 C1360 1.357 . S
N1358 S1356 1.610 . S
N1358 C1359 1.351 . S
C1359 C1353 1.428 1_455 S
C1359 N1358 1.351 . S
C1359 C1360 1.431 . S
C1360 C1351 1.425 1_455 S
C1360 N1357 1.357 . S
C1360 C1359 1.431 . S
C1361 C1362 1.369 . S
C1361 C1363 1.419 . S
C1361 H1365 0.930 . S
C1362 C1361 1.369 . S
C1362 C1371 1.429 . S
C1363 C1361 1.419 . S
C1363 C1364 1.363 . S
C1363 H1366 0.929 . S
C1364 C1363 1.363 . S
C1364 C1370 1.428 . S
H1365 C1361 0.930 . S
H1366 C1363 0.929 . S
S1367 N1368 1.613 . S
S1367 N1369 1.610 . S
N1368 S1367 1.613 . S
N1368 C1371 1.350 . S
N1369 S1367 1.610 . S
N1369 C1370 1.351 . S
C1370 C1364 1.428 . S
C1370 N1369 1.351 . S
C1370 C1371 1.434 . S
C1371 C1362 1.429 . S
C1371 N1368 1.350 . S
C1371 C1370 1.434 . S
C1372 C1373 1.369 1_565 S
C1372 C1374 1.419 . S
C1372 H1376 0.930 . S
C1373 C1372 1.369 1_545 S
C1373 C1382 1.429 . S
C1374 C1372 1.419 . S
C1374 C1375 1.363 1_565 S
C1374 H1377 0.929 . S
C1375 C1374 1.363 1_545 S
C1375 C1381 1.428 . S
H1376 C1372 0.930 . S
H1377 C1374 0.929 . S
S1378 N1379 1.613 . S
S1378 N1380 1.610 . S
N1379 S1378 1.613 . S
N1379 C1382 1.350 . S
N1380 S1378 1.610 . S
N1380 C1381 1.351 . S
C1381 C1375 1.428 . S
C1381 N1380 1.351 . S
C1381 C1382 1.434 . S
C1382 C1373 1.429 . S
C1382 N1379 1.350 . S
C1382 C1381 1.434 . S
C1383 C1384 1.369 . S
C1383 C1385 1.419 . S
C1383 H1387 0.930 . S
C1384 C1383 1.369 . S
C1384 C1393 1.429 . S
C1385 C1383 1.419 . S
C1385 C1386 1.363 . S
C1385 H1388 0.929 . S
C1386 C1385 1.363 . S
C1386 C1392 1.428 . S
H1387 C1383 0.930 . S
H1388 C1385 0.929 . S
S1389 N1390 1.613 . S
S1389 N1391 1.595 1_545 S
N1390 S1389 1.613 . S
N1390 C1393 1.335 1_545 S
N1391 S1389 1.595 1_565 S
N1391 C1392 1.351 . S
C1392 C1386 1.428 . S
C1392 N1391 1.351 . S
C1392 C1393 1.434 . S
C1393 C1384 1.429 . S
C1393 N1390 1.335 1_565 S
C1393 C1392 1.434 . S
C1394 C1395 1.369 . S
C1394 C1396 1.419 . S
C1394 H1398 0.930 . S
C1395 C1394 1.369 . S
C1395 C1404 1.429 1_455 S
C1396 C1394 1.419 . S
C1396 C1397 1.363 . S
C1396 H1399 0.929 . S
C1397 C1396 1.363 . S
C1397 C1403 1.428 1_455 S
H1398 C1394 0.930 . S
H1399 C1396 0.929 . S
S1400 N1401 1.613 . S
S1400 N1402 1.610 . S
N1401 S1400 1.613 . S
N1401 C1404 1.350 . S
N1402 S1400 1.610 . S
N1402 C1403 1.351 . S
C1403 C1397 1.428 1_655 S
C1403 N1402 1.351 . S
C1403 C1404 1.434 . S
C1404 C1395 1.429 1_655 S
C1404 N1401 1.350 . S
C1404 C1403 1.434 . S
C1405 C1406 1.369 . S
C1405 C1407 1.419 . S
C1405 H1409 0.930 . S
C1406 C1405 1.369 . S
C1406 C1415 1.429 . S
C1407 C1405 1.419 . S
C1407 C1408 1.363 . S
C1407 H1410 0.929 . S
C1408 C1407 1.363 . S
C1408 C1414 1.428 . S
H1409 C1405 0.930 . S
H1410 C1407 0.929 . S
S1411 N1412 1.613 . S
S1411 N1413 1.610 . S
N1412 S1411 1.613 . S
N1412 C1415 1.350 . S
N1413 S1411 1.610 . S
N1413 C1414 1.351 . S
C1414 C1408 1.428 . S
C1414 N1413 1.351 . S
C1414 C1415 1.434 . S
C1415 C1406 1.429 . S
C1415 N1412 1.350 . S
C1415 C1414 1.434 . S
C1416 C1417 1.369 1_655 S
C1416 C1418 1.419 . S
C1416 H1420 0.930 . S
C1417 C1416 1.369 1_455 S
C1417 C1426 1.429 . S
C1418 C1416 1.419 . S
C1418 C1419 1.363 1_655 S
C1418 H1421 0.929 . S
C1419 C1418 1.363 1_455 S
C1419 C1425 1.428 . S
H1420 C1416 0.930 . S
H1421 C1418 0.929 . S
S1422 N1423 1.613 . S
S1422 N1424 1.610 . S
N1423 S1422 1.613 . S
N1423 C1426 1.350 . S
N1424 S1422 1.610 . S
N1424 C1425 1.351 . S
C1425 C1419 1.428 . S
C1425 N1424 1.351 . S
C1425 C1426 1.434 . S
C1426 C1417 1.429 . S
C1426 N1423 1.350 . S
C1426 C1425 1.434 . S
C1427 C1428 1.369 . S
C1427 C1429 1.419 . S
C1427 H1431 0.930 . S
C1428 C1427 1.369 . S
C1428 C1437 1.429 . S
C1429 C1427 1.419 . S
C1429 C1430 1.363 . S
C1429 H1432 0.929 . S
C1430 C1429 1.363 . S
C1430 C1436 1.428 . S
H1431 C1427 0.930 . S
H1432 C1429 0.929 . S
S1433 N1434 1.613 . S
S1433 N1435 1.610 . S
N1434 S1433 1.613 . S
N1434 C1437 1.350 . S
N1435 S1433 1.610 . S
N1435 C1436 1.351 . S
C1436 C1430 1.428 . S
C1436 N1435 1.351 . S
C1436 C1437 1.434 . S
C1437 C1428 1.429 . S
C1437 N1434 1.350 . S
C1437 C1436 1.434 . S
C1438 C1439 1.369 1_545 S
C1438 C1440 1.419 . S
C1438 H1442 0.930 . S
C1439 C1438 1.369 1_565 S
C1439 C1448 1.429 . S
C1440 C1438 1.419 . S
C1440 C1441 1.363 1_545 S
C1440 H1443 0.929 . S
C1441 C1440 1.363 1_565 S
C1441 C1447 1.428 . S
H1442 C1438 0.930 . S
H1443 C1440 0.929 . S
S1444 N1445 1.613 . S
S1444 N1446 1.610 . S
N1445 S1444 1.613 . S
N1445 C1448 1.350 . S
N1446 S1444 1.610 . S
N1446 C1447 1.351 . S
C1447 C1441 1.428 . S
C1447 N1446 1.351 . S
C1447 C1448 1.434 . S
C1448 C1439 1.429 . S
C1448 N1445 1.350 . S
C1448 C1447 1.434 . S
C1449 C1450 1.369 . S
C1449 C1451 1.419 . S
C1449 H1453 0.930 . S
C1450 C1449 1.369 . S
C1450 C1459 1.429 1_545 S
C1451 C1449 1.419 . S
C1451 C1452 1.363 . S
C1451 H1454 0.929 . S
C1452 C1451 1.363 . S
C1452 C1458 1.428 1_545 S
H1453 C1449 0.930 . S
H1454 C1451 0.929 . S
S1455 N1456 1.613 . S
S1455 N1457 1.610 . S
N1456 S1455 1.613 . S
N1456 C1459 1.350 . S
N1457 S1455 1.610 . S
N1457 C1458 1.351 . S
C1458 C1452 1.428 1_565 S
C1458 N1457 1.351 . S
C1458 C1459 1.434 . S
C1459 C1450 1.429 1_565 S
C1459 N1456 1.350 . S
C1459 C1458 1.434 . S
C1460 C1461 1.369 . S
C1460 C1462 1.419 . S
C1460 H1464 0.930 . S
C1461 C1460 1.369 . S
C1461 C1470 1.429 . S
C1462 C1460 1.419 . S
C1462 C1463 1.363 . S
C1462 H1465 0.929 . S
C1463 C1462 1.363 . S
C1463 C1469 1.418 . S
H1464 C1460 0.930 . S
H1465 C1462 0.929 . S
S1466 N1467 1.613 . S
S1466 N1468 1.610 . S
N1467 S1466 1.613 . S
N1467 C1470 1.350 1_455 S
N1468 S1466 1.610 . S
N1468 C1469 1.343 1_455 S
C1469 C1463 1.418 . S
C1469 N1468 1.343 1_655 S
C1469 C1470 1.455 . S
C1470 C1461 1.429 . S
C1470 N1467 1.350 1_655 S
C1470 C1469 1.455 . S
C1471 C1472 1.369 . S
C1471 C1473 1.419 . S
C1471 H1475 0.930 . S
C1472 C1471 1.369 . S
C1472 C1481 1.429 . S
C1473 C1471 1.419 . S
C1473 C1474 1.363 . S
C1473 H1476 0.929 . S
C1474 C1473 1.363 . S
C1474 C1480 1.428 . S
H1475 C1471 0.930 . S
H1476 C1473 0.929 . S
S1477 N1478 1.613 . S
S1477 N1479 1.610 . S
N1478 S1477 1.613 . S
N1478 C1481 1.350 . S
N1479 S1477 1.610 . S
N1479 C1480 1.351 . S
C1480 C1474 1.428 . S
C1480 N1479 1.351 . S
C1480 C1481 1.434 . S
C1481 C1472 1.429 . S
C1481 N1478 1.350 . S
C1481 C1480 1.434 . S
C1482 C1483 1.369 . S
C1482 C1484 1.419 . S
C1482 H1486 0.930 . S
C1483 C1482 1.369 . S
C1483 C1492 1.429 . S
C1484 C1482 1.419 . S
C1484 C1485 1.363 . S
C1484 H1487 0.929 . S
C1485 C1484 1.363 . S
C1485 C1491 1.428 . S
H1486 C1482 0.930 . S
H1487 C1484 0.929 . S
S1488 N1489 1.613 . S
S1488 N1490 1.610 . S
N1489 S1488 1.613 . S
N1489 C1492 1.350 . S
N1490 S1488 1.610 . S
N1490 C1491 1.351 . S
C1491 C1485 1.428 . S
C1491 N1490 1.351 . S
C1491 C1492 1.434 . S
C1492 C1483 1.429 . S
C1492 N1489 1.350 . S
C1492 C1491 1.434 . S
C1493 C1494 1.369 . S
C1493 C1495 1.419 . S
C1493 H1497 0.930 . S
C1494 C1493 1.369 . S
C1494 C1503 1.429 . S
C1495 C1493 1.419 . S
C1495 C1496 1.363 . S
C1495 H1498 0.929 . S
C1496 C1495 1.363 . S
C1496 C1502 1.428 . S
H1497 C1493 0.930 . S
H1498 C1495 0.929 . S
S1499 N1500 1.613 . S
S1499 N1501 1.610 . S
N1500 S1499 1.613 . S
N1500 C1503 1.350 . S
N1501 S1499 1.610 . S
N1501 C1502 1.351 . S
C1502 C1496 1.428 . S
C1502 N1501 1.351 . S
C1502 C1503 1.434 . S
C1503 C1494 1.429 . S
C1503 N1500 1.350 . S
C1503 C1502 1.434 . S
C1504 C1505 1.369 . S
C1504 C1506 1.419 . S
C1504 H1508 0.930 . S
C1505 C1504 1.369 . S
C1505 C1514 1.429 . S
C1506 C1504 1.419 . S
C1506 C1507 1.363 . S
C1506 H1509 0.929 . S
C1507 C1506 1.363 . S
C1507 C1513 1.428 . S
H1508 C1504 0.930 . S
H1509 C1506 0.929 . S
S1510 N1511 1.613 . S
S1510 N1512 1.610 . S
N1511 S1510 1.613 . S
N1511 C1514 1.350 . S
N1512 S1510 1.610 . S
N1512 C1513 1.351 . S
C1513 C1507 1.428 . S
C1513 N1512 1.351 . S
C1513 C1514 1.434 . S
C1514 C1505 1.429 . S
C1514 N1511 1.350 . S
C1514 C1513 1.434 . S
C1515 C1516 1.369 . S
C1515 C1517 1.419 . S
C1515 H1519 0.930 . S
C1516 C1515 1.369 . S
C1516 C1525 1.429 . S
C1517 C1515 1.419 . S
C1517 C1518 1.363 . S
C1517 H1520 0.929 . S
C1518 C1517 1.363 . S
C1518 C1524 1.428 . S
H1519 C1515 0.930 . S
H1520 C1517 0.929 . S
S1521 N1522 1.613 . S
S1521 N1523 1.610 . S
N1522 S1521 1.613 . S
N1522 C1525 1.350 . S
N1523 S1521 1.610 . S
N1523 C1524 1.351 . S
C1524 C1518 1.428 . S
C1524 N1523 1.351 . S
C1524 C1525 1.434 . S
C1525 C1516 1.429 . S
C1525 N1522 1.350 . S
C1525 C1524 1.434 . S
C1526 C1527 1.369 . S
C1526 C1528 1.419 . S
C1526 H1530 0.930 . S
C1527 C1526 1.369 . S
C1527 C1536 1.429 . S
C1528 C1526 1.419 . S
C1528 C1529 1.363 . S
C1528 H1531 0.929 . S
C1529 C1528 1.363 . S
C1529 C1535 1.428 . S
H1530 C1526 0.930 . S
H1531 C1528 0.929 . S
S1532 N1533 1.613 . S
S1532 N1534 1.610 . S
N1533 S1532 1.613 . S
N1533 C1536 1.350 . S
N1534 S1532 1.610 . S
N1534 C1535 1.351 . S
C1535 C1529 1.428 . S
C1535 N1534 1.351 . S
C1535 C1536 1.434 . S
C1536 C1527 1.429 . S
C1536 N1533 1.350 . S
C1536 C1535 1.434 . S
C1537 C1538 1.369 . S
C1537 C1539 1.419 . S
C1537 H1541 0.930 . S
C1538 C1537 1.369 . S
C1538 C1547 1.429 . S
C1539 C1537 1.419 . S
C1539 C1540 1.363 . S
C1539 H1542 0.929 . S
C1540 C1539 1.363 . S
C1540 C1546 1.428 . S
H1541 C1537 0.930 . S
H1542 C1539 0.929 . S
S1543 N1544 1.613 . S
S1543 N1545 1.610 . S
N1544 S1543 1.613 . S
N1544 C1547 1.350 . S
N1545 S1543 1.610 . S
N1545 C1546 1.351 . S
C1546 C1540 1.428 . S
C1546 N1545 1.351 . S
C1546 C1547 1.434 . S
C1547 C1538 1.429 . S
C1547 N1544 1.350 . S
C1547 C1546 1.434 . S
C1548 C1549 1.369 . S
C1548 C1550 1.419 . S
C1548 H1552 0.930 . S
C1549 C1548 1.369 . S
C1549 C1558 1.429 . S
C1550 C1548 1.419 . S
C1550 C1551 1.363 . S
C1550 H1553 0.929 . S
C1551 C1550 1.363 . S
C1551 C1557 1.428 . S
H1552 C1548 0.930 . S
H1553 C1550 0.929 . S
S1554 N1555 1.613 . S
S1554 N1556 1.610 . S
N1555 S1554 1.613 . S
N1555 C1558 1.350 . S
N1556 S1554 1.610 . S
N1556 C1557 1.351 . S
C1557 C1551 1.428 . S
C1557 N1556 1.351 . S
C1557 C1558 1.434 . S
C1558 C1549 1.429 . S
C1558 N1555 1.350 . S
C1558 C1557 1.434 . S
C1559 C1560 1.369 . S
C1559 C1561 1.419 . S
C1559 H1563 0.930 . S
C1560 C1559 1.369 . S
C1560 C1569 1.429 . S
C1561 C1559 1.419 . S
C1561 C1562 1.363 . S
C1561 H1564 0.929 . S
C1562 C1561 1.363 . S
C1562 C1568 1.428 . S
H1563 C1559 0.930 . S
H1564 C1561 0.929 . S
S1565 N1566 1.613 . S
S1565 N1567 1.610 . S
N1566 S1565 1.613 . S
N1566 C1569 1.350 . S
N1567 S1565 1.610 . S
N1567 C1568 1.351 . S
C1568 C1562 1.428 . S
C1568 N1567 1.351 . S
C1568 C1569 1.434 . S
C1569 C1560 1.429 . S
C1569 N1566 1.350 . S
C1569 C1568 1.434 . S
C1570 C1571 1.369 . S
C1570 C1572 1.419 . S
C1570 H1574 0.930 . S
C1571 C1570 1.369 . S
C1571 C1580 1.429 . S
C1572 C1570 1.419 . S
C1572 C1573 1.363 . S
C1572 H1575 0.929 . S
C1573 C1572 1.363 . S
C1573 C1579 1.428 . S
H1574 C1570 0.930 . S
H1575 C1572 0.929 . S
S1576 N1577 1.613 . S
S1576 N1578 1.610 . S
N1577 S1576 1.613 . S
N1577 C1580 1.350 . S
N1578 S1576 1.610 . S
N1578 C1579 1.351 . S
C1579 C1573 1.428 . S
C1579 N1578 1.351 . S
C1579 C1580 1.434 . S
C1580 C1571 1.429 . S
C1580 N1577 1.350 . S
C1580 C1579 1.434 . S
C1581 C1582 1.369 . S
C1581 C1583 1.419 . S
C1581 H1585 0.930 . S
C1582 C1581 1.369 . S
C1582 C1591 1.429 . S
C1583 C1581 1.419 . S
C1583 C1584 1.363 . S
C1583 H1586 0.929 . S
C1584 C1583 1.363 . S
C1584 C1590 1.428 . S
H1585 C1581 0.930 . S
H1586 C1583 0.929 . S
S1587 N1588 1.613 . S
S1587 N1589 1.610 . S
N1588 S1587 1.613 . S
N1588 C1591 1.350 . S
N1589 S1587 1.610 . S
N1589 C1590 1.351 . S
C1590 C1584 1.428 . S
C1590 N1589 1.351 . S
C1590 C1591 1.434 . S
C1591 C1582 1.429 . S
C1591 N1588 1.350 . S
C1591 C1590 1.434 . S
C1592 C1593 1.369 . S
C1592 C1594 1.419 . S
C1592 H1596 0.930 . S
C1593 C1592 1.369 . S
C1593 C1602 1.429 . S
C1594 C1592 1.419 . S
C1594 C1595 1.363 . S
C1594 H1597 0.929 . S
C1595 C1594 1.363 . S
C1595 C1601 1.428 . S
H1596 C1592 0.930 . S
H1597 C1594 0.929 . S
S1598 N1599 1.613 . S
S1598 N1600 1.610 . S
N1599 S1598 1.613 . S
N1599 C1602 1.350 . S
N1600 S1598 1.610 . S
N1600 C1601 1.351 . S
C1601 C1595 1.428 . S
C1601 N1600 1.351 . S
C1601 C1602 1.434 . S
C1602 C1593 1.429 . S
C1602 N1599 1.350 . S
C1602 C1601 1.434 . S
C1603 C1604 1.369 . S
C1603 C1605 1.419 . S
C1603 H1607 0.930 . S
C1604 C1603 1.369 . S
C1604 C1613 1.429 . S
C1605 C1603 1.419 . S
C1605 C1606 1.363 . S
C1605 H1608 0.929 . S
C1606 C1605 1.363 . S
C1606 C1612 1.428 . S
H1607 C1603 0.930 . S
H1608 C1605 0.929 . S
S1609 N1610 1.613 . S
S1609 N1611 1.610 . S
N1610 S1609 1.613 . S
N1610 C1613 1.350 . S
N1611 S1609 1.610 . S
N1611 C1612 1.351 . S
C1612 C1606 1.428 . S
C1612 N1611 1.351 . S
C1612 C1613 1.434 . S
C1613 C1604 1.429 . S
C1613 N1610 1.350 . S
C1613 C1612 1.434 . S
C1614 C1615 1.369 . S
C1614 C1616 1.419 . S
C1614 H1618 0.930 . S
C1615 C1614 1.369 . S
C1615 C1624 1.429 . S
C1616 C1614 1.419 . S
C1616 C1617 1.363 . S
C1616 H1619 0.929 . S
C1617 C1616 1.363 . S
C1617 C1623 1.428 . S
H1618 C1614 0.930 . S
H1619 C1616 0.929 . S
S1620 N1621 1.613 . S
S1620 N1622 1.610 . S
N1621 S1620 1.613 . S
N1621 C1624 1.350 . S
N1622 S1620 1.610 . S
N1622 C1623 1.351 . S
C1623 C1617 1.428 . S
C1623 N1622 1.351 . S
C1623 C1624 1.434 . S
C1624 C1615 1.429 . S
C1624 N1621 1.350 . S
C1624 C1623 1.434 . S
C1625 C1626 1.369 . S
C1625 C1627 1.419 . S
C1625 H1629 0.930 . S
C1626 C1625 1.369 . S
C1626 C1635 1.429 . S
C1627 C1625 1.419 . S
C1627 C1628 1.363 . S
C1627 H1630 0.929 . S
C1628 C1627 1.363 . S
C1628 C1634 1.428 . S
H1629 C1625 0.930 . S
H1630 C1627 0.929 . S
S1631 N1632 1.613 . S
S1631 N1633 1.610 . S
N1632 S1631 1.613 . S
N1632 C1635 1.350 . S
N1633 S1631 1.610 . S
N1633 C1634 1.351 . S
C1634 C1628 1.428 . S
C1634 N1633 1.351 . S
C1634 C1635 1.434 . S
C1635 C1626 1.429 . S
C1635 N1632 1.350 . S
C1635 C1634 1.434 . S
C1636 C1637 1.369 . S
C1636 C1638 1.419 . S
C1636 H1640 0.930 . S
C1637 C1636 1.369 . S
C1637 C1646 1.429 . S
C1638 C1636 1.419 . S
C1638 C1639 1.363 . S
C1638 H1641 0.929 . S
C1639 C1638 1.363 . S
C1639 C1645 1.428 . S
H1640 C1636 0.930 . S
H1641 C1638 0.929 . S
S1642 N1643 1.613 . S
S1642 N1644 1.610 . S
N1643 S1642 1.613 . S
N1643 C1646 1.350 . S
N1644 S1642 1.610 . S
N1644 C1645 1.351 . S
C1645 C1639 1.428 . S
C1645 N1644 1.351 . S
C1645 C1646 1.434 . S
C1646 C1637 1.429 . S
C1646 N1643 1.350 . S
C1646 C1645 1.434 . S
C1647 C1648 1.369 . S
C1647 C1649 1.419 . S
C1647 H1651 0.930 . S
C1648 C1647 1.369 . S
C1648 C1657 1.429 . S
C1649 C1647 1.419 . S
C1649 C1650 1.363 . S
C1649 H1652 0.929 . S
C1650 C1649 1.363 . S
C1650 C1656 1.428 . S
H1651 C1647 0.930 . S
H1652 C1649 0.929 . S
S1653 N1654 1.613 . S
S1653 N1655 1.610 . S
N1654 S1653 1.613 . S
N1654 C1657 1.350 . S
N1655 S1653 1.610 . S
N1655 C1656 1.351 . S
C1656 C1650 1.428 . S
C1656 N1655 1.351 . S
C1656 C1657 1.434 . S
C1657 C1648 1.429 . S
C1657 N1654 1.350 . S
C1657 C1656 1.434 . S
C1658 C1659 1.369 . S
C1658 C1660 1.419 . S
C1658 H1662 0.930 . S
C1659 C1658 1.369 . S
C1659 C1668 1.429 . S
C1660 C1658 1.419 . S
C1660 C1661 1.363 . S
C1660 H1663 0.929 . S
C1661 C1660 1.363 . S
C1661 C1667 1.428 . S
H1662 C1658 0.930 . S
H1663 C1660 0.929 . S
S1664 N1665 1.613 . S
S1664 N1666 1.610 . S
N1665 S1664 1.613 . S
N1665 C1668 1.350 . S
N1666 S1664 1.610 . S
N1666 C1667 1.351 . S
C1667 C1661 1.428 . S
C1667 N1666 1.351 . S
C1667 C1668 1.434 . S
C1668 C1659 1.429 . S
C1668 N1665 1.350 . S
C1668 C1667 1.434 . S
C1669 C1670 1.369 . S
C1669 C1671 1.419 . S
C1669 H1673 0.930 . S
C1670 C1669 1.369 . S
C1670 C1679 1.429 . S
C1671 C1669 1.419 . S
C1671 C1672 1.363 . S
C1671 H1674 0.929 . S
C1672 C1671 1.363 . S
C1672 C1678 1.428 . S
H1673 C1669 0.930 . S
H1674 C1671 0.929 . S
S1675 N1676 1.613 . S
S1675 N1677 1.610 . S
N1676 S1675 1.613 . S
N1676 C1679 1.350 . S
N1677 S1675 1.610 . S
N1677 C1678 1.351 . S
C1678 C1672 1.428 . S
C1678 N1677 1.351 . S
C1678 C1679 1.434 . S
C1679 C1670 1.429 . S
C1679 N1676 1.350 . S
C1679 C1678 1.434 . S
C1680 C1681 1.369 . S
C1680 C1682 1.419 . S
C1680 H1684 0.930 . S
C1681 C1680 1.369 . S
C1681 C1690 1.429 . S
C1682 C1680 1.419 . S
C1682 C1683 1.363 . S
C1682 H1685 0.929 . S
C1683 C1682 1.363 . S
C1683 C1689 1.428 . S
H1684 C1680 0.930 . S
H1685 C1682 0.929 . S
S1686 N1687 1.613 . S
S1686 N1688 1.610 . S
N1687 S1686 1.613 . S
N1687 C1690 1.350 . S
N1688 S1686 1.610 . S
N1688 C1689 1.351 . S
C1689 C1683 1.428 . S
C1689 N1688 1.351 . S
C1689 C1690 1.434 . S
C1690 C1681 1.429 . S
C1690 N1687 1.350 . S
C1690 C1689 1.434 . S
C1691 C1692 1.369 . S
C1691 C1693 1.419 . S
C1691 H1695 0.930 . S
C1692 C1691 1.369 . S
C1692 C1701 1.429 . S
C1693 C1691 1.419 . S
C1693 C1694 1.363 . S
C1693 H1696 0.929 . S
C1694 C1693 1.363 . S
C1694 C1700 1.428 . S
H1695 C1691 0.930 . S
H1696 C1693 0.929 . S
S1697 N1698 1.613 . S
S1697 N1699 1.610 . S
N1698 S1697 1.613 . S
N1698 C1701 1.350 . S
N1699 S1697 1.610 . S
N1699 C1700 1.351 . S
C1700 C1694 1.428 . S
C1700 N1699 1.351 . S
C1700 C1701 1.434 . S
C1701 C1692 1.429 . S
C1701 N1698 1.350 . S
C1701 C1700 1.434 . S
C1702 C1703 1.369 . S
C1702 C1704 1.419 . S
C1702 H1706 0.930 . S
C1703 C1702 1.369 . S
C1703 C1712 1.429 . S
C1704 C1702 1.419 . S
C1704 C1705 1.363 . S
C1704 H1707 0.929 . S
C1705 C1704 1.363 . S
C1705 C1711 1.428 . S
H1706 C1702 0.930 . S
H1707 C1704 0.929 . S
S1708 N1709 1.613 . S
S1708 N1710 1.610 . S
N1709 S1708 1.613 . S
N1709 C1712 1.350 . S
N1710 S1708 1.610 . S
N1710 C1711 1.351 . S
C1711 C1705 1.428 . S
C1711 N1710 1.351 . S
C1711 C1712 1.434 . S
C1712 C1703 1.429 . S
C1712 N1709 1.350 . S
C1712 C1711 1.434 . S
C1713 C1714 1.369 . S
C1713 C1715 1.419 . S
C1713 H1717 0.930 . S
C1714 C1713 1.369 . S
C1714 C1723 1.429 . S
C1715 C1713 1.419 . S
C1715 C1716 1.363 . S
C1715 H1718 0.929 . S
C1716 C1715 1.363 . S
C1716 C1722 1.428 . S
H1717 C1713 0.930 . S
H1718 C1715 0.929 . S
S1719 N1720 1.613 . S
S1719 N1721 1.610 . S
N1720 S1719 1.613 . S
N1720 C1723 1.350 . S
N1721 S1719 1.610 . S
N1721 C1722 1.351 . S
C1722 C1716 1.428 . S
C1722 N1721 1.351 . S
C1722 C1723 1.434 . S
C1723 C1714 1.429 . S
C1723 N1720 1.350 . S
C1723 C1722 1.434 . S
C1724 C1725 1.369 . S
C1724 C1726 1.419 . S
C1724 H1728 0.930 . S
C1725 C1724 1.369 . S
C1725 C1734 1.429 . S
C1726 C1724 1.419 . S
C1726 C1727 1.363 . S
C1726 H1729 0.929 . S
C1727 C1726 1.363 . S
C1727 C1733 1.428 . S
H1728 C1724 0.930 . S
H1729 C1726 0.929 . S
S1730 N1731 1.613 . S
S1730 N1732 1.610 . S
N1731 S1730 1.613 . S
N1731 C1734 1.350 . S
N1732 S1730 1.610 . S
N1732 C1733 1.351 . S
C1733 C1727 1.428 . S
C1733 N1732 1.351 . S
C1733 C1734 1.434 . S
C1734 C1725 1.429 . S
C1734 N1731 1.350 . S
C1734 C1733 1.434 . S
C1735 C1736 1.369 . S
C1735 C1737 1.419 . S
C1735 H1739 0.930 . S
C1736 C1735 1.369 . S
C1736 C1745 1.429 . S
C1737 C1735 1.419 . S
C1737 C1738 1.363 . S
C1737 H1740 0.929 . S
C1738 C1737 1.363 . S
C1738 C1744 1.428 . S
H1739 C1735 0.930 . S
H1740 C1737 0.929 . S
S1741 N1742 1.613 . S
S1741 N1743 1.610 . S
N1742 S1741 1.613 . S
N1742 C1745 1.350 . S
N1743 S1741 1.610 . S
N1743 C1744 1.351 . S
C1744 C1738 1.428 . S
C1744 N1743 1.351 . S
C1744 C1745 1.434 . S
C1745 C1736 1.429 . S
C1745 N1742 1.350 . S
C1745 C1744 1.434 . S
C1746 C1747 1.369 . S
C1746 C1748 1.419 . S
C1746 H1750 0.930 . S
C1747 C1746 1.369 . S
C1747 C1756 1.429 . S
C1748 C1746 1.419 . S
C1748 C1749 1.363 . S
C1748 H1751 0.929 . S
C1749 C1748 1.363 . S
C1749 C1755 1.428 . S
H1750 C1746 0.930 . S
H1751 C1748 0.929 . S
S1752 N1753 1.613 . S
S1752 N1754 1.610 . S
N1753 S1752 1.613 . S
N1753 C1756 1.350 . S
N1754 S1752 1.610 . S
N1754 C1755 1.351 . S
C1755 C1749 1.428 . S
C1755 N1754 1.351 . S
C1755 C1756 1.434 . S
C1756 C1747 1.429 . S
C1756 N1753 1.350 . S
C1756 C1755 1.434 . S
C1757 C1758 1.369 . S
C1757 C1759 1.419 . S
C1757 H1761 0.930 1_554 S
C1758 C1757 1.369 . S
C1758 C1767 1.429 . S
C1759 C1757 1.419 . S
C1759 C1760 1.363 . S
C1759 H1762 0.929 . S
C1760 C1759 1.363 . S
C1760 C1766 1.428 . S
H1761 C1757 0.930 1_556 S
H1762 C1759 0.929 . S
S1763 N1764 1.613 . S
S1763 N1765 1.610 . S
N1764 S1763 1.613 . S
N1764 C1767 1.350 . S
N1765 S1763 1.610 . S
N1765 C1766 1.351 . S
C1766 C1760 1.428 . S
C1766 N1765 1.351 . S
C1766 C1767 1.434 . S
C1767 C1758 1.429 . S
C1767 N1764 1.350 . S
C1767 C1766 1.434 . S
C1768 C1769 1.369 . S
C1768 C1770 1.419 . S
C1768 H1772 0.930 . S
C1769 C1768 1.369 . S
C1769 C1778 1.429 . S
C1770 C1768 1.419 . S
C1770 C1771 1.363 . S
C1770 H1773 0.929 . S
C1771 C1770 1.363 . S
C1771 C1777 1.428 . S
H1772 C1768 0.930 . S
H1773 C1770 0.929 . S
S1774 N1775 1.612 1_556 S
S1774 N1776 1.608 1_556 S
N1775 S1774 1.612 1_554 S
N1775 C1778 1.350 . S
N1776 S1774 1.608 1_554 S
N1776 C1777 1.351 . S
C1777 C1771 1.428 . S
C1777 N1776 1.351 . S
C1777 C1778 1.434 . S
C1778 C1769 1.429 . S
C1778 N1775 1.350 . S
C1778 C1777 1.434 . S
C1779 C1780 1.369 . S
C1779 C1781 1.419 . S
C1779 H1783 0.930 . S
C1780 C1779 1.369 . S
C1780 C1789 1.429 1_556 S
C1781 C1779 1.419 . S
C1781 C1782 1.363 . S
C1781 H1784 0.929 . S
C1782 C1781 1.363 . S
C1782 C1788 1.428 1_556 S
H1783 C1779 0.930 . S
H1784 C1781 0.929 . S
S1785 N1786 1.613 . S
S1785 N1787 1.610 . S
N1786 S1785 1.613 . S
N1786 C1789 1.350 . S
N1787 S1785 1.610 . S
N1787 C1788 1.351 . S
C1788 C1782 1.428 1_554 S
C1788 N1787 1.351 . S
C1788 C1789 1.434 . S
C1789 C1780 1.429 1_554 S
C1789 N1786 1.350 . S
C1789 C1788 1.434 . S
C1790 C1791 1.369 1_554 S
C1790 C1792 1.419 . S
C1790 H1794 0.930 . S
C1791 C1790 1.369 1_556 S
C1791 C1800 1.429 . S
C1792 C1790 1.419 . S
C1792 C1793 1.363 1_554 S
C1792 H1795 0.929 . S
C1793 C1792 1.363 1_556 S
C1793 C1799 1.428 . S
H1794 C1790 0.930 . S
H1795 C1792 0.929 . S
S1796 N1797 1.613 . S
S1796 N1798 1.610 . S
N1797 S1796 1.613 . S
N1797 C1800 1.350 . S
N1798 S1796 1.610 . S
N1798 C1799 1.351 . S
C1799 C1793 1.428 . S
C1799 N1798 1.351 . S
C1799 C1800 1.434 . S
C1800 C1791 1.429 . S
C1800 N1797 1.350 . S
C1800 C1799 1.434 . S
C1801 C1802 1.369 1_554 S
C1801 C1803 1.419 . S
C1801 H1805 0.930 . S
C1802 C1801 1.369 1_556 S
C1802 C1811 1.429 . S
C1803 C1801 1.419 . S
C1803 C1804 1.363 1_554 S
C1803 H1806 0.929 . S
C1804 C1803 1.363 1_556 S
C1804 C1810 1.428 . S
H1805 C1801 0.930 . S
H1806 C1803 0.929 . S
S1807 N1808 1.613 . S
S1807 N1809 1.610 . S
N1808 S1807 1.613 . S
N1808 C1811 1.350 . S
N1809 S1807 1.610 . S
N1809 C1810 1.351 . S
C1810 C1804 1.428 . S
C1810 N1809 1.351 . S
C1810 C1811 1.434 . S
C1811 C1802 1.429 . S
C1811 N1808 1.350 . S
C1811 C1810 1.434 . S
C1812 C1813 1.369 . S
C1812 C1814 1.419 . S
C1812 H1816 0.930 1_556 S
C1813 C1812 1.369 . S
C1813 C1822 1.429 . S
C1814 C1812 1.419 . S
C1814 C1815 1.363 . S
C1814 H1817 0.929 . S
C1815 C1814 1.363 . S
C1815 C1821 1.428 . S
H1816 C1812 0.930 1_554 S
H1817 C1814 0.929 . S
S1818 N1819 1.613 . S
S1818 N1820 1.610 . S
N1819 S1818 1.613 . S
N1819 C1822 1.350 . S
N1820 S1818 1.610 . S
N1820 C1821 1.351 . S
C1821 C1815 1.428 . S
C1821 N1820 1.351 . S
C1821 C1822 1.434 . S
C1822 C1813 1.429 . S
C1822 N1819 1.350 . S
C1822 C1821 1.434 . S
C1823 C1824 1.369 . S
C1823 C1825 1.419 . S
C1823 H1827 0.930 1_556 S
C1824 C1823 1.369 . S
C1824 C1833 1.429 . S
C1825 C1823 1.419 . S
C1825 C1826 1.363 . S
C1825 H1828 0.929 . S
C1826 C1825 1.363 . S
C1826 C1832 1.428 . S
H1827 C1823 0.930 1_554 S
H1828 C1825 0.929 . S
S1829 N1830 1.613 . S
S1829 N1831 1.610 . S
N1830 S1829 1.613 . S
N1830 C1833 1.350 . S
N1831 S1829 1.610 . S
N1831 C1832 1.351 . S
C1832 C1826 1.428 . S
C1832 N1831 1.351 . S
C1832 C1833 1.434 . S
C1833 C1824 1.429 . S
C1833 N1830 1.350 . S
C1833 C1832 1.434 . S
C1834 C1835 1.369 . S
C1834 C1836 1.419 . S
C1834 H1838 0.930 . S
C1835 C1834 1.369 . S
C1835 C1844 1.415 1_556 S
C1836 C1834 1.419 . S
C1836 C1837 1.363 . S
C1836 H1839 0.929 . S
C1837 C1836 1.363 . S
C1837 C1843 1.428 . S
H1838 C1834 0.930 . S
H1839 C1836 0.929 . S
S1840 N1841 1.613 . S
S1840 N1842 1.610 . S
N1841 S1840 1.613 . S
N1841 C1844 1.373 . S
N1842 S1840 1.610 . S
N1842 C1843 1.351 1_554 S
C1843 C1837 1.428 . S
C1843 N1842 1.351 1_556 S
C1843 C1844 1.425 1_556 S
C1844 C1835 1.415 1_554 S
C1844 N1841 1.373 . S
C1844 C1843 1.425 1_554 S
C1845 C1846 1.369 . S
C1845 C1847 1.419 . S
C1845 H1849 0.930 . S
C1846 C1845 1.369 . S
C1846 C1855 1.429 . S
C1847 C1845 1.419 . S
C1847 C1848 1.363 . S
C1847 H1850 0.929 . S
C1848 C1847 1.363 . S
C1848 C1854 1.428 . S
H1849 C1845 0.930 . S
H1850 C1847 0.929 . S
S1851 N1852 1.613 . S
S1851 N1853 1.610 . S
N1852 S1851 1.613 . S
N1852 C1855 1.350 1_556 S
N1853 S1851 1.610 . S
N1853 C1854 1.351 1_556 S
C1854 C1848 1.428 . S
C1854 N1853 1.351 1_554 S
C1854 C1855 1.434 . S
C1855 C1846 1.429 . S
C1855 N1852 1.350 1_554 S
C1855 C1854 1.434 . S
C1856 C1857 1.369 . S
C1856 C1858 1.419 . S
C1856 H1860 0.930 . S
C1857 C1856 1.369 . S
C1857 C1866 1.429 . S
C1858 C1856 1.419 . S
C1858 C1859 1.363 . S
C1858 H1861 0.929 . S
C1859 C1858 1.363 . S
C1859 C1865 1.428 . S
H1860 C1856 0.930 . S
H1861 C1858 0.929 . S
S1862 N1863 1.613 1_556 S
S1862 N1864 1.610 1_556 S
N1863 S1862 1.613 1_554 S
N1863 C1866 1.350 . S
N1864 S1862 1.610 1_554 S
N1864 C1865 1.351 . S
C1865 C1859 1.428 . S
C1865 N1864 1.351 . S
C1865 C1866 1.434 . S
C1866 C1857 1.429 . S
C1866 N1863 1.350 . S
C1866 C1865 1.434 . S
C1867 C1868 1.369 . S
C1867 C1869 1.419 . S
C1867 H1871 0.930 . S
C1868 C1867 1.369 . S
C1868 C1877 1.429 . S
C1869 C1867 1.419 . S
C1869 C1870 1.363 . S
C1869 H1872 0.929 . S
C1870 C1869 1.363 . S
C1870 C1876 1.428 . S
H1871 C1867 0.930 . S
H1872 C1869 0.929 . S
S1873 N1874 1.613 . S
S1873 N1875 1.610 . S
N1874 S1873 1.613 . S
N1874 C1877 1.350 . S
N1875 S1873 1.610 . S
N1875 C1876 1.351 . S
C1876 C1870 1.428 . S
C1876 N1875 1.351 . S
C1876 C1877 1.434 . S
C1877 C1868 1.429 . S
C1877 N1874 1.350 . S
C1877 C1876 1.434 . S
C1878 C1879 1.369 . S
C1878 C1880 1.419 . S
C1878 H1882 0.930 . S
C1879 C1878 1.369 . S
C1879 C1888 1.429 . S
C1880 C1878 1.419 . S
C1880 C1881 1.363 . S
C1880 H1883 0.929 . S
C1881 C1880 1.363 . S
C1881 C1887 1.428 . S
H1882 C1878 0.930 . S
H1883 C1880 0.929 . S
S1884 N1885 1.613 . S
S1884 N1886 1.610 . S
N1885 S1884 1.613 . S
N1885 C1888 1.350 . S
N1886 S1884 1.610 . S
N1886 C1887 1.351 . S
C1887 C1881 1.428 . S
C1887 N1886 1.351 . S
C1887 C1888 1.434 . S
C1888 C1879 1.429 . S
C1888 N1885 1.350 . S
C1888 C1887 1.434 . S
C1889 C1890 1.369 . S
C1889 C1891 1.419 . S
C1889 H1893 0.930 . S
C1890 C1889 1.369 . S
C1890 C1899 1.429 . S
C1891 C1889 1.419 . S
C1891 C1892 1.363 . S
C1891 H1894 0.929 . S
C1892 C1891 1.363 . S
C1892 C1898 1.428 . S
H1893 C1889 0.930 . S
H1894 C1891 0.929 . S
S1895 N1896 1.613 . S
S1895 N1897 1.610 . S
N1896 S1895 1.613 . S
N1896 C1899 1.350 . S
N1897 S1895 1.610 . S
N1897 C1898 1.351 . S
C1898 C1892 1.428 . S
C1898 N1897 1.351 . S
C1898 C1899 1.434 . S
C1899 C1890 1.429 . S
C1899 N1896 1.350 . S
C1899 C1898 1.434 . S
C1900 C1901 1.369 . S
C1900 C1902 1.419 . S
C1900 H1904 0.930 . S
C1901 C1900 1.369 . S
C1901 C1910 1.429 . S
C1902 C1900 1.419 . S
C1902 C1903 1.363 . S
C1902 H1905 0.929 . S
C1903 C1902 1.363 . S
C1903 C1909 1.428 . S
H1904 C1900 0.930 . S
H1905 C1902 0.929 . S
S1906 N1907 1.613 . S
S1906 N1908 1.610 . S
N1907 S1906 1.613 . S
N1907 C1910 1.350 . S
N1908 S1906 1.610 . S
N1908 C1909 1.351 . S
C1909 C1903 1.428 . S
C1909 N1908 1.351 . S
C1909 C1910 1.434 . S
C1910 C1901 1.429 . S
C1910 N1907 1.350 . S
C1910 C1909 1.434 . S
C1911 C1912 1.369 . S
C1911 C1913 1.419 . S
C1911 H1915 0.930 . S
C1912 C1911 1.369 . S
C1912 C1921 1.429 . S
C1913 C1911 1.419 . S
C1913 C1914 1.363 . S
C1913 H1916 0.929 . S
C1914 C1913 1.363 . S
C1914 C1920 1.432 . S
H1915 C1911 0.930 . S
H1916 C1913 0.929 . S
S1917 N1918 1.613 . S
S1917 N1919 1.610 . S
N1918 S1917 1.613 . S
N1918 C1921 1.350 1_655 S
N1919 S1917 1.610 . S
N1919 C1920 1.333 1_655 S
C1920 C1914 1.432 . S
C1920 N1919 1.333 1_455 S
C1920 C1921 1.450 . S
C1921 C1912 1.429 . S
C1921 N1918 1.350 1_455 S
C1921 C1920 1.450 . S
C1922 C1923 1.369 . S
C1922 C1924 1.419 . S
C1922 H1926 0.930 . S
C1923 C1922 1.369 . S
C1923 C1932 1.429 . S
C1924 C1922 1.419 . S
C1924 C1925 1.363 . S
C1924 H1927 0.929 . S
C1925 C1924 1.363 . S
C1925 C1931 1.428 . S
H1926 C1922 0.930 . S
H1927 C1924 0.929 . S
S1928 N1929 1.613 . S
S1928 N1930 1.610 . S
N1929 S1928 1.613 . S
N1929 C1932 1.350 . S
N1930 S1928 1.610 . S
N1930 C1931 1.351 . S
C1931 C1925 1.428 . S
C1931 N1930 1.351 . S
C1931 C1932 1.434 . S
C1932 C1923 1.429 . S
C1932 N1929 1.350 . S
C1932 C1931 1.434 . S
C1933 C1934 1.369 . S
C1933 C1935 1.419 1_565 S
C1933 H1937 0.930 1_565 S
C1934 C1933 1.369 . S
C1934 C1943 1.429 . S
C1935 C1933 1.419 1_545 S
C1935 C1936 1.363 1_545 S
C1935 H1938 0.929 . S
C1936 C1935 1.363 1_565 S
C1936 C1942 1.428 . S
H1937 C1933 0.930 1_545 S
H1938 C1935 0.929 . S
S1939 N1940 1.613 . S
S1939 N1941 1.610 . S
N1940 S1939 1.613 . S
N1940 C1943 1.350 . S
N1941 S1939 1.610 . S
N1941 C1942 1.351 . S
C1942 C1936 1.428 . S
C1942 N1941 1.351 . S
C1942 C1943 1.434 . S
C1943 C1934 1.429 . S
C1943 N1940 1.350 . S
C1943 C1942 1.434 . S
C1944 C1945 1.369 . S
C1944 C1946 1.419 . S
C1944 H1948 0.930 . S
C1945 C1944 1.369 . S
C1945 C1954 1.429 . S
C1946 C1944 1.419 . S
C1946 C1947 1.363 . S
C1946 H1949 0.929 1_565 S
C1947 C1946 1.363 . S
C1947 C1953 1.428 . S
H1948 C1944 0.930 . S
H1949 C1946 0.929 1_545 S
S1950 N1951 1.613 . S
S1950 N1952 1.610 . S
N1951 S1950 1.613 . S
N1951 C1954 1.350 . S
N1952 S1950 1.610 . S
N1952 C1953 1.351 . S
C1953 C1947 1.428 . S
C1953 N1952 1.351 . S
C1953 C1954 1.434 . S
C1954 C1945 1.429 . S
C1954 N1951 1.350 . S
C1954 C1953 1.434 . S
C1955 C1956 1.369 . S
C1955 C1957 1.419 . S
C1955 H1959 0.930 . S
C1956 C1955 1.369 . S
C1956 C1965 1.429 . S
C1957 C1955 1.419 . S
C1957 C1958 1.363 . S
C1957 H1960 0.929 . S
C1958 C1957 1.363 . S
C1958 C1964 1.428 . S
H1959 C1955 0.930 . S
H1960 C1957 0.929 . S
S1961 N1962 1.613 1_655 S
S1961 N1963 1.610 . S
N1962 S1961 1.613 1_455 S
N1962 C1965 1.350 . S
N1963 S1961 1.610 . S
N1963 C1964 1.351 1_655 S
C1964 C1958 1.428 . S
C1964 N1963 1.351 1_455 S
C1964 C1965 1.434 . S
C1965 C1956 1.429 . S
C1965 N1962 1.350 . S
C1965 C1964 1.434 . S
C1966 C1967 1.369 . S
C1966 C1968 1.419 . S
C1966 H1970 0.930 . S
C1967 C1966 1.369 . S
C1967 C1976 1.429 . S
C1968 C1966 1.419 . S
C1968 C1969 1.363 . S
C1968 H1971 0.929 . S
C1969 C1968 1.363 . S
C1969 C1975 1.428 . S
H1970 C1966 0.930 . S
H1971 C1968 0.929 . S
S1972 N1973 1.613 . S
S1972 N1974 1.610 . S
N1973 S1972 1.613 . S
N1973 C1976 1.350 . S
N1974 S1972 1.610 . S
N1974 C1975 1.351 . S
C1975 C1969 1.428 . S
C1975 N1974 1.351 . S
C1975 C1976 1.434 . S
C1976 C1967 1.429 . S
C1976 N1973 1.350 . S
C1976 C1975 1.434 . S
C1977 C1978 1.369 . S
C1977 C1979 1.419 . S
C1977 H1981 0.930 . S
C1978 C1977 1.369 . S
C1978 C1987 1.429 . S
C1979 C1977 1.419 . S
C1979 C1980 1.363 . S
C1979 H1982 0.929 . S
C1980 C1979 1.363 . S
C1980 C1986 1.428 . S
H1981 C1977 0.930 . S
H1982 C1979 0.929 . S
S1983 N1984 1.613 . S
S1983 N1985 1.610 . S
N1984 S1983 1.613 . S
N1984 C1987 1.350 . S
N1985 S1983 1.610 . S
N1985 C1986 1.351 . S
C1986 C1980 1.428 . S
C1986 N1985 1.351 . S
C1986 C1987 1.434 . S
C1987 C1978 1.429 . S
C1987 N1984 1.350 . S
C1987 C1986 1.434 . S
C1988 C1989 1.369 . S
C1988 C1990 1.419 . S
C1988 H1992 0.930 . S
C1989 C1988 1.369 . S
C1989 C1998 1.429 . S
C1990 C1988 1.419 . S
C1990 C1991 1.363 . S
C1990 H1993 0.929 . S
C1991 C1990 1.363 . S
C1991 C1997 1.428 . S
H1992 C1988 0.930 . S
H1993 C1990 0.929 . S
S1994 N1995 1.613 . S
S1994 N1996 1.610 . S
N1995 S1994 1.613 . S
N1995 C1998 1.350 . S
N1996 S1994 1.610 . S
N1996 C1997 1.351 . S
C1997 C1991 1.428 . S
C1997 N1996 1.351 . S
C1997 C1998 1.434 . S
C1998 C1989 1.429 . S
C1998 N1995 1.350 . S
C1998 C1997 1.434 . S
C1999 C2000 1.369 . S
C1999 C2001 1.419 . S
C1999 H2003 0.930 . S
C2000 C1999 1.369 . S
C2000 C2009 1.429 . S
C2001 C1999 1.419 . S
C2001 C2002 1.363 . S
C2001 H2004 0.929 . S
C2002 C2001 1.363 . S
C2002 C2008 1.428 . S
H2003 C1999 0.930 . S
H2004 C2001 0.929 . S
S2005 N2006 1.613 . S
S2005 N2007 1.610 . S
N2006 S2005 1.613 . S
N2006 C2009 1.350 . S
N2007 S2005 1.610 . S
N2007 C2008 1.351 . S
C2008 C2002 1.428 . S
C2008 N2007 1.351 . S
C2008 C2009 1.434 . S
C2009 C2000 1.429 . S
C2009 N2006 1.350 . S
C2009 C2008 1.434 . S
C2010 C2011 1.369 . S
C2010 C2012 1.419 . S
C2010 H2014 0.930 . S
C2011 C2010 1.369 . S
C2011 C2020 1.429 . S
C2012 C2010 1.419 . S
C2012 C2013 1.363 . S
C2012 H2015 0.929 . S
C2013 C2012 1.363 . S
C2013 C2019 1.431 . S
H2014 C2010 0.930 . S
H2015 C2012 0.929 . S
S2016 N2017 1.613 . S
S2016 N2018 1.610 . S
N2017 S2016 1.613 . S
N2017 C2020 1.350 1_565 S
N2018 S2016 1.610 . S
N2018 C2019 1.304 1_565 S
C2019 C2013 1.431 . S
C2019 N2018 1.304 1_545 S
C2019 C2020 1.487 . S
C2020 C2011 1.429 . S
C2020 N2017 1.350 1_545 S
C2020 C2019 1.487 . S
C2021 C2022 1.369 . S
C2021 C2023 1.419 . S
C2021 H2025 0.930 . S
C2022 C2021 1.369 . S
C2022 C2031 1.429 . S
C2023 C2021 1.419 . S
C2023 C2024 1.363 . S
C2023 H2026 0.929 . S
C2024 C2023 1.363 . S
C2024 C2030 1.428 . S
H2025 C2021 0.930 . S
H2026 C2023 0.929 . S
S2027 N2028 1.613 1_455 S
S2027 N2029 1.610 . S
N2028 S2027 1.613 1_655 S
N2028 C2031 1.350 . S
N2029 S2027 1.610 . S
N2029 C2030 1.351 1_455 S
C2030 C2024 1.428 . S
C2030 N2029 1.351 1_655 S
C2030 C2031 1.434 . S
C2031 C2022 1.429 . S
C2031 N2028 1.350 . S
C2031 C2030 1.434 . S
C2032 C2033 1.369 . S
C2032 C2034 1.419 . S
C2032 H2036 0.930 . S
C2033 C2032 1.369 . S
C2033 C2042 1.429 . S
C2034 C2032 1.419 . S
C2034 C2035 1.363 . S
C2034 H2037 0.929 . S
C2035 C2034 1.363 . S
C2035 C2041 1.428 . S
H2036 C2032 0.930 . S
H2037 C2034 0.929 . S
S2038 N2039 1.613 . S
S2038 N2040 1.610 . S
N2039 S2038 1.613 . S
N2039 C2042 1.350 . S
N2040 S2038 1.610 . S
N2040 C2041 1.351 . S
C2041 C2035 1.428 . S
C2041 N2040 1.351 . S
C2041 C2042 1.434 . S
C2042 C2033 1.429 . S
C2042 N2039 1.350 . S
C2042 C2041 1.434 . S
C2043 C2044 1.369 . S
C2043 C2045 1.419 . S
C2043 H2047 0.930 . S
C2044 C2043 1.369 . S
C2044 C2053 1.429 . S
C2045 C2043 1.419 . S
C2045 C2046 1.363 . S
C2045 H2048 0.929 . S
C2046 C2045 1.363 . S
C2046 C2052 1.428 . S
H2047 C2043 0.930 . S
H2048 C2045 0.929 . S
S2049 N2050 1.613 . S
S2049 N2051 1.610 . S
N2050 S2049 1.613 . S
N2050 C2053 1.350 . S
N2051 S2049 1.610 . S
N2051 C2052 1.351 . S
C2052 C2046 1.428 . S
C2052 N2051 1.351 . S
C2052 C2053 1.434 . S
C2053 C2044 1.429 . S
C2053 N2050 1.350 . S
C2053 C2052 1.434 . S
C2054 C2055 1.369 . S
C2054 C2056 1.419 . S
C2054 H2058 0.930 . S
C2055 C2054 1.369 . S
C2055 C2064 1.429 . S
C2056 C2054 1.419 . S
C2056 C2057 1.363 . S
C2056 H2059 0.929 . S
C2057 C2056 1.363 . S
C2057 C2063 1.428 . S
H2058 C2054 0.930 . S
H2059 C2056 0.929 . S
S2060 N2061 1.613 . S
S2060 N2062 1.610 . S
N2061 S2060 1.613 . S
N2061 C2064 1.350 . S
N2062 S2060 1.610 . S
N2062 C2063 1.351 . S
C2063 C2057 1.428 . S
C2063 N2062 1.351 . S
C2063 C2064 1.434 . S
C2064 C2055 1.429 . S
C2064 N2061 1.350 . S
C2064 C2063 1.434 . S
C2065 C2066 1.369 . S
C2065 C2067 1.419 . S
C2065 H2069 0.930 . S
C2066 C2065 1.369 . S
C2066 C2075 1.429 . S
C2067 C2065 1.419 . S
C2067 C2068 1.363 . S
C2067 H2070 0.929 . S
C2068 C2067 1.363 . S
C2068 C2074 1.428 . S
H2069 C2065 0.930 . S
H2070 C2067 0.929 . S
S2071 N2072 1.613 . S
S2071 N2073 1.610 . S
N2072 S2071 1.613 . S
N2072 C2075 1.350 . S
N2073 S2071 1.610 . S
N2073 C2074 1.351 . S
C2074 C2068 1.428 . S
C2074 N2073 1.351 . S
C2074 C2075 1.434 . S
C2075 C2066 1.429 . S
C2075 N2072 1.350 . S
C2075 C2074 1.434 . S
C2076 C2077 1.369 . S
C2076 C2078 1.419 . S
C2076 H2080 0.930 . S
C2077 C2076 1.369 . S
C2077 C2086 1.429 . S
C2078 C2076 1.419 . S
C2078 C2079 1.363 . S
C2078 H2081 0.929 . S
C2079 C2078 1.363 . S
C2079 C2085 1.428 . S
H2080 C2076 0.930 . S
H2081 C2078 0.929 . S
S2082 N2083 1.613 . S
S2082 N2084 1.610 . S
N2083 S2082 1.613 . S
N2083 C2086 1.350 . S
N2084 S2082 1.610 . S
N2084 C2085 1.351 . S
C2085 C2079 1.428 . S
C2085 N2084 1.351 . S
C2085 C2086 1.434 . S
C2086 C2077 1.429 . S
C2086 N2083 1.350 . S
C2086 C2085 1.434 . S
C2087 C2088 1.369 . S
C2087 C2089 1.419 . S
C2087 H2091 0.930 . S
C2088 C2087 1.369 . S
C2088 C2097 1.429 . S
C2089 C2087 1.419 . S
C2089 C2090 1.363 . S
C2089 H2092 0.929 . S
C2090 C2089 1.363 . S
C2090 C2096 1.428 . S
H2091 C2087 0.930 . S
H2092 C2089 0.929 . S
S2093 N2094 1.613 . S
S2093 N2095 1.610 . S
N2094 S2093 1.613 . S
N2094 C2097 1.350 . S
N2095 S2093 1.610 . S
N2095 C2096 1.351 . S
C2096 C2090 1.428 . S
C2096 N2095 1.351 . S
C2096 C2097 1.434 . S
C2097 C2088 1.429 . S
C2097 N2094 1.350 . S
C2097 C2096 1.434 . S
C2098 C2099 1.369 . S
C2098 C2100 1.419 . S
C2098 H2102 0.930 . S
C2099 C2098 1.369 . S
C2099 C2108 1.429 . S
C2100 C2098 1.419 . S
C2100 C2101 1.363 . S
C2100 H2103 0.929 . S
C2101 C2100 1.363 . S
C2101 C2107 1.428 . S
H2102 C2098 0.930 . S
H2103 C2100 0.929 . S
S2104 N2105 1.613 . S
S2104 N2106 1.610 . S
N2105 S2104 1.613 . S
N2105 C2108 1.350 . S
N2106 S2104 1.610 . S
N2106 C2107 1.351 . S
C2107 C2101 1.428 . S
C2107 N2106 1.351 . S
C2107 C2108 1.434 . S
C2108 C2099 1.429 . S
C2108 N2105 1.350 . S
C2108 C2107 1.434 . S
C2109 C2110 1.369 . S
C2109 C2111 1.437 . S
C2109 H2113 0.930 1_655 S
C2110 C2109 1.369 . S
C2110 C2119 1.429 . S
C2111 C2109 1.437 . S
C2111 C2112 1.367 . S
C2111 H2114 0.907 1_655 S
C2112 C2111 1.367 . S
C2112 C2118 1.428 . S
H2113 C2109 0.930 1_455 S
H2114 C2111 0.907 1_455 S
S2115 N2116 1.613 . S
S2115 N2117 1.610 . S
N2116 S2115 1.613 . S
N2116 C2119 1.350 . S
N2117 S2115 1.610 . S
N2117 C2118 1.351 . S
C2118 C2112 1.428 . S
C2118 N2117 1.351 . S
C2118 C2119 1.434 . S
C2119 C2110 1.429 . S
C2119 N2116 1.350 . S
C2119 C2118 1.434 . S
C2120 C2121 1.369 . S
C2120 C2122 1.419 . S
C2120 H2124 0.930 . S
C2121 C2120 1.369 . S
C2121 C2130 1.429 . S
C2122 C2120 1.419 . S
C2122 C2123 1.363 . S
C2122 H2125 0.929 . S
C2123 C2122 1.363 . S
C2123 C2129 1.428 . S
H2124 C2120 0.930 . S
H2125 C2122 0.929 . S
S2126 N2127 1.613 . S
S2126 N2128 1.610 . S
N2127 S2126 1.613 . S
N2127 C2130 1.350 . S
N2128 S2126 1.610 . S
N2128 C2129 1.351 . S
C2129 C2123 1.428 . S
C2129 N2128 1.351 . S
C2129 C2130 1.434 . S
C2130 C2121 1.429 . S
C2130 N2127 1.350 . S
C2130 C2129 1.434 . S
C2131 C2132 1.369 . S
C2131 C2133 1.419 1_545 S
C2131 H2135 0.930 1_545 S
C2132 C2131 1.369 . S
C2132 C2141 1.429 . S
C2133 C2131 1.419 1_565 S
C2133 C2134 1.363 1_565 S
C2133 H2136 0.929 . S
C2134 C2133 1.363 1_545 S
C2134 C2140 1.428 . S
H2135 C2131 0.930 1_565 S
H2136 C2133 0.929 . S
S2137 N2138 1.613 . S
S2137 N2139 1.610 . S
N2138 S2137 1.613 . S
N2138 C2141 1.350 . S
N2139 S2137 1.610 . S
N2139 C2140 1.351 . S
C2140 C2134 1.428 . S
C2140 N2139 1.351 . S
C2140 C2141 1.434 . S
C2141 C2132 1.429 . S
C2141 N2138 1.350 . S
C2141 C2140 1.434 . S
C1351 C8 1.565 . S
C1353 C839 1.556 . S
C1362 C18 1.549 . S
C1364 C883 1.553 . S
C1375 C963 1.547 . S
C1373 C31 1.548 . S
C1384 C34 1.601 . S
C1386 C1007 1.595 . S
C1395 C5 1.563 . S
C1397 C1087 1.552 . S
C1406 C21 1.587 . S
C1408 C1149 1.579 . S
C1417 C47 1.559 . S
C1419 C1069 1.555 . S
C1430 C1131 1.544 . S
C1428 C57 1.552 . S
C1441 C1025 1.575 . S
C1439 C70 1.582 . S
C1450 C73 1.558 . S
C1452 C945 1.557 . S
C1463 C821 1.557 . S
C1461 C44 1.574 . S
C1472 C60 1.584 . S
C1474 C901 1.599 . S
C1483 C86 1.623 . S
C1485 C1211 1.603 . S
C1494 C96 1.575 . S
C1496 C1255 1.572 . S
C1507 C1335 1.591 . S
C1505 C109 1.652 . S
C1516 C112 1.676 . S
C1518 C281 1.631 . S
C1527 C83 1.643 . S
C1529 C325 1.636 . S
C1538 C99 1.622 . S
C1540 C405 1.596 . S
C1549 C125 1.607 . S
C1551 C343 1.609 . S
C1560 C135 1.577 . S
C1562 C387 1.567 . S
C1573 C263 1.585 . S
C1571 C148 1.641 . S
C1584 C1317 1.652 . S
C1582 C151 1.692 . S
C1595 C1193 1.583 . S
C1593 C122 1.631 . S
C1606 C1273 1.642 . S
C1604 C138 1.630 . S
C1615 C164 1.610 . S
C1617 C467 1.583 . S
C1626 C174 1.569 . S
C1628 C529 1.555 . S
C1637 C187 1.635 . S
C1639 C573 1.622 . S
C1648 C190 1.697 . S
C1650 C635 1.694 . S
C1661 C697 1.630 . S
C1659 C161 1.649 . S
C1672 C777 1.617 . S
C1670 C177 1.633 . S
C1683 C715 1.643 . S
C1681 C203 1.631 . S
C1694 C759 1.567 . S
C1692 C213 1.584 . S
C1703 C226 1.646 . S
C1705 C653 1.621 . S
C1716 C591 1.672 . S
C1714 C229 1.669 . S
C1725 C200 1.637 . S
C1727 C449 1.596 . S
C1738 C511 1.608 . S
C1736 C216 1.628 . S
C1749 C287 1.407 . S
C1747 C0 1.417 . S
C1758 C23 1.483 . S
C1760 C331 1.386 . S
C1771 C411 1.382 . S
C1769 C36 1.481 . S
C1782 C473 1.426 . S
C1780 C26 1.438 1_556 S
C1793 C535 1.355 . S
C1791 C10 1.478 1_556 S
C1804 C579 1.431 . S
C1802 C13 1.438 . S
C1813 C39 1.431 . S
C1815 C597 1.437 . S
C1824 C62 1.471 . S
C1826 C455 1.349 . S
C1835 C75 1.455 1_556 S
C1837 C517 1.354 . S
C1846 C65 1.469 . S
C1848 C349 1.480 . S
C1859 C393 1.366 . S
C1857 C49 1.475 . S
C1868 C52 1.440 . S
C1870 C269 1.401 . S
C1881 C641 1.434 . S
C1879 C78 1.430 . S
C1890 C101 1.515 . S
C1892 C703 1.424 . S
C1901 C114 1.504 1_655 S
C1903 C783 1.392 . S
C1914 C845 1.349 . S
C1912 C104 1.372 . S
C1923 C88 1.457 . S
C1925 C889 1.376 . S
C1934 C91 1.314 . S
C1936 C969 1.273 . S
C1945 C117 1.331 . S
C1947 C951 1.286 . S
C1956 C140 1.398 . S
C1958 C827 1.301 . S
C1969 C907 1.380 . S
C1967 C153 1.458 . S
C1978 C143 1.452 . S
C1980 C721 1.447 . S
C1989 C127 1.515 . S
C1991 C765 1.402 . S
C2002 C659 1.461 . S
C2000 C130 1.464 . S
C2013 C1013 1.329 . S
C2011 C156 1.345 . S
C2022 C179 1.391 . S
C2024 C1093 1.293 . S
C2033 C192 1.452 . S
C2035 C1155 1.363 . S
C2046 C1217 1.404 . S
C2044 C182 1.425 . S
C2057 C1261 1.416 . S
C2055 C166 1.524 1_565 S
C2066 C169 1.461 . S
C2068 C1341 1.421 . S
C2077 C195 1.436 . S
C2079 C1323 1.408 . S
C2088 C218 1.461 1_565 S
C2090 C1199 1.396 . S
C2101 C1279 1.400 . S
C2099 C231 1.487 1_455 S
C2112 C1075 1.331 . S
C2110 C221 1.371 . S
C2123 C1137 1.358 . S
C2121 C205 1.463 . S
C2132 C208 1.343 . S
C2134 C1031 1.320 . S
