# Generated by pormake.
# Topology anh, (6,3)-cn, num edge types: 1
# Building blocks:
#     Node 0, Type 0, BuildingBlock: BETDAH_clean_sbu_0, # of connection points: 6
#     Node 1, Type 0, BuildingBlock: BETDAH_clean_sbu_0, # of connection points: 6
#     Node 2, Type 0, BuildingBlock: BETDAH_clean_sbu_0, # of connection points: 6
#     Node 3, Type 1, BuildingBlock: PAMTOO_clean_linker_0, # of connection points: 3
#     Node 4, Type 1, BuildingBlock: PAMTOO_clean_linker_0, # of connection points: 3
#     Node 5, Type 1, BuildingBlock: PAMTOO_clean_linker_0, # of connection points: 3
#     Node 6, Type 1, BuildingBlock: PAMTOO_clean_linker_0, # of connection points: 3
#     Node 7, Type 1, BuildingBlock: PAMTOO_clean_linker_0, # of connection points: 3
#     Node 8, Type 1, BuildingBlock: PAMTOO_clean_linker_0, # of connection points: 3
#     Edge 9, Type (0, 1), BuildingBlock: UVAHIK_clean_linker_0, # of connection points: 2
#     Edge 10, Type (0, 1), BuildingBlock: UVAHIK_clean_linker_0, # of connection points: 2
#     Edge 11, Type (0, 1), BuildingBlock: UVAHIK_clean_linker_0, # of connection points: 2
#     Edge 12, Type (0, 1), BuildingBlock: UVAHIK_clean_linker_0, # of connection points: 2
#     Edge 13, Type (0, 1), BuildingBlock: UVAHIK_clean_linker_0, # of connection points: 2
#     Edge 14, Type (0, 1), BuildingBlock: UVAHIK_clean_linker_0, # of connection points: 2
#     Edge 15, Type (0, 1), BuildingBlock: UVAHIK_clean_linker_0, # of connection points: 2
#     Edge 16, Type (0, 1), BuildingBlock: UVAHIK_clean_linker_0, # of connection points: 2
#     Edge 17, Type (0, 1), BuildingBlock: UVAHIK_clean_linker_0, # of connection points: 2
#     Edge 18, Type (0, 1), BuildingBlock: UVAHIK_clean_linker_0, # of connection points: 2
#     Edge 19, Type (0, 1), BuildingBlock: UVAHIK_clean_linker_0, # of connection points: 2
#     Edge 20, Type (0, 1), BuildingBlock: UVAHIK_clean_linker_0, # of connection points: 2
#     Edge 21, Type (0, 1), BuildingBlock: UVAHIK_clean_linker_0, # of connection points: 2
#     Edge 22, Type (0, 1), BuildingBlock: UVAHIK_clean_linker_0, # of connection points: 2
#     Edge 23, Type (0, 1), BuildingBlock: UVAHIK_clean_linker_0, # of connection points: 2
#     Edge 24, Type (0, 1), BuildingBlock: UVAHIK_clean_linker_0, # of connection points: 2
#     Edge 25, Type (0, 1), BuildingBlock: UVAHIK_clean_linker_0, # of connection points: 2
#     Edge 26, Type (0, 1), BuildingBlock: UVAHIK_clean_linker_0, # of connection points: 2
# Relax obj value: 0.136
# Max RMSD: 0.171
# Mean RMSD: 0.122
data_MOF--net-anh--node1-BETDAH_clean_sbu_0--node2-PAMTOO_clean_linker_0--edge1-UVAHIK_clean_linker_0
_symmetry_space_group_name_H-M    P1
_symmetry_Int_Tables_number       1
_symmetry_cell_setting            triclinic
loop_
_symmetry_equiv_pos_as_xyz
'x, y, z'
_cell_length_a     39.087227
_cell_length_b     46.975878
_cell_length_c     63.302871
_cell_angle_alpha  89.459335
_cell_angle_beta   91.915632
_cell_angle_gamma 128.00539
loop_
_atom_site_label
_atom_site_type_symbol
_atom_site_fract_x
_atom_site_fract_y
_atom_site_fract_z
_atom_type_partial_charge
Ho0 Ho 0.1493 0.53225 0.14968 0.0
Ho1 Ho 0.09597 0.55082 0.1712 0.0
C2 C 0.19194 0.61707 0.16072 0.0
C3 C 0.19606 0.52942 0.12333 0.0
C4 C 0.24239 0.54752 0.12077 0.0
C5 C 0.25787 0.55124 0.10051 0.0
C6 C 0.30054 0.56402 0.09799 0.0
C7 C 0.32819 0.57287 0.11577 0.0
C8 C 0.31328 0.57147 0.13598 0.0
C9 C 0.27079 0.55906 0.13845 0.0
C10 C 0.15432 0.53342 0.19222 0.0
C11 C 1.05442 0.46669 0.16191 0.0
C12 C 1.04212 0.54772 0.19535 0.0
C13 C 0.9967 0.51638 0.19848 0.0
C14 C 0.97626 0.51195 0.21737 0.0
C15 C 0.93388 0.48056 0.22051 0.0
C16 C 0.91189 0.45304 0.20493 0.0
C17 C 0.93278 0.45767 0.18613 0.0
C18 C 0.9746 0.48902 0.18292 0.0
C19 C 0.09195 0.54859 0.12846 0.0
O20 O 0.19285 0.59388 0.14934 0.0
O21 O 0.15931 0.60617 0.17303 0.0
O22 O 0.17862 0.5083 0.13968 0.0
O23 O 0.18341 0.54929 0.12035 0.0
O24 O 0.15756 0.51257 0.18067 0.0
O25 O 0.15309 0.55471 0.1807 0.0
O26 O 1.05654 0.49019 0.17439 0.0
O27 O 0.08402 0.47759 0.14766 0.0
O28 O 1.05055 0.56165 0.17645 0.0
O29 O 0.07062 0.54355 0.20233 0.0
O30 O 0.09152 0.57157 0.13943 0.0
O31 O 0.09188 0.52741 0.14064 0.0
H32 H 0.23645 0.54292 0.08668 0.0
H33 H 0.31125 0.56544 0.08219 0.0
H34 H 0.33336 0.57766 0.15006 0.0
H35 H 0.25952 0.55683 0.15424 0.0
H36 H 0.99308 0.53261 0.22965 0.0
H37 H 0.91837 0.47771 0.23509 0.0
H38 H 0.91639 0.43737 0.17363 0.0
H39 H 0.9898 0.49178 0.16823 0.0
Ho40 Ho 0.65523 0.02399 0.48857 0.0
Ho41 Ho 0.59726 0.04344 0.47456 0.0
C42 C 0.55186 0.96027 0.47764 0.0
C43 C 0.68857 0.997 0.50782 0.0
C44 C 0.67965 0.96159 0.5091 0.0
C45 C 0.6794 0.94808 0.52898 0.0
C46 C 0.6721 0.91505 0.53067 0.0
C47 C 0.66517 0.89495 0.51246 0.0
C48 C 0.66514 0.9084 0.49253 0.0
C49 C 0.67208 0.94133 0.49085 0.0
C50 C 0.65099 0.03144 0.44647 0.0
C51 C 0.7015 0.10705 0.48313 0.0
C52 C 0.56451 0.07258 0.45776 0.0
C53 C 0.57262 0.10714 0.46181 0.0
C54 C 0.56443 0.12326 0.44583 0.0
C55 C 0.57203 0.15607 0.44969 0.0
C56 C 0.58781 0.17331 0.46966 0.0
C57 C 0.59634 0.15705 0.48556 0.0
C58 C 0.58908 0.12446 0.48163 0.0
C59 C 0.60336 0.03696 0.51671 0.0
O60 O 0.5872 0.97026 0.48868 0.0
O61 O 0.55061 0.98419 0.46726 0.0
O62 O 0.70211 0.01382 0.48982 0.0
O63 O 0.6603 0.99929 0.51635 0.0
O64 O 0.68551 0.04014 0.45675 0.0
O65 O 0.61964 0.01674 0.45864 0.0
O66 O 0.66509 0.09655 0.4731 0.0
O67 O 0.70391 0.08385 0.49363 0.0
O68 O 0.54647 0.04914 0.47299 0.0
O69 O 0.59646 0.07496 0.44959 0.0
O70 O 0.56803 0.02694 0.50676 0.0
O71 O 0.63392 0.05172 0.50414 0.0
H72 H 0.68523 0.96326 0.54325 0.0
H73 H 0.67276 0.90559 0.54623 0.0
H74 H 0.65944 0.89333 0.47824 0.0
H75 H 0.67173 0.95097 0.4753 0.0
H76 H 0.55218 0.11049 0.43037 0.0
H77 H 0.56582 0.16803 0.43694 0.0
H78 H 0.6079 0.16911 0.50121 0.0
H79 H 0.59599 0.1126 0.49416 0.0
Ho80 Ho 0.65909 0.56841 0.84364 0.0
Ho81 Ho 0.59721 0.4877 0.84988 0.0
C82 C 0.55492 0.52777 0.84889 0.0
C83 C 0.69733 0.63362 0.83065 0.0
C84 C 0.6875 0.65933 0.82844 0.0
C85 C 0.68276 0.66911 0.80816 0.0
C86 C 0.6747 0.6941 0.80562 0.0
C87 C 0.67159 0.71014 0.82333 0.0
C88 C 0.67633 0.70038 0.84364 0.0
C89 C 0.68411 0.67516 0.84619 0.0
C90 C 0.64961 0.54657 0.88399 0.0
C91 C 0.70207 0.52894 0.84513 0.0
C92 C 0.56107 0.42271 0.86247 0.0
C93 C 0.56975 0.39679 0.85884 0.0
C94 C 0.56295 0.37328 0.87493 0.0
C95 C 0.57135 0.3487 0.87168 0.0
C96 C 0.58651 0.34704 0.8522 0.0
C97 C 0.59368 0.37103 0.83619 0.0
C98 C 0.58567 0.39579 0.83953 0.0
C99 C 0.60642 0.50847 0.80929 0.0
O100 O 0.59241 0.55571 0.8413 0.0
O101 O 0.55062 0.49932 0.85636 0.0
O102 O 0.70263 0.62596 0.84982 0.0
O103 O 0.67528 0.60524 0.81806 0.0
O104 O 0.68647 0.57353 0.87664 0.0
O105 O 0.61991 0.53393 0.87001 0.0
O106 O 0.66374 0.50011 0.85139 0.0
O107 O 0.70738 0.55828 0.83873 0.0
O108 O 0.54688 0.43022 0.84602 0.0
O109 O 0.59073 0.45143 0.87376 0.0
O110 O 0.57018 0.48113 0.81685 0.0
O111 O 0.63642 0.5219 0.82325 0.0
H112 H 0.68567 0.65764 0.79422 0.0
H113 H 0.67184 0.70145 0.78976 0.0
H114 H 0.67376 0.71207 0.85758 0.0
H115 H 0.68767 0.66829 0.86206 0.0
H116 H 0.55123 0.37399 0.89003 0.0
H117 H 0.56623 0.3312 0.88451 0.0
H118 H 0.60476 0.37032 0.8209 0.0
H119 H 0.59166 0.414 0.82695 0.0
H120 H 0.69799 0.11056 0.22404 0.0
H121 H 0.5901 0.99942 0.21046 0.0
H122 H 0.6551 0.07386 0.15958 0.0
H123 H 0.55838 0.00831 0.14517 0.0
C124 C 0.55402 0.99887 0.16174 0.0
O125 O 0.59245 0.00659 0.16946 0.0
H126 H 0.5453 0.01361 0.1709 0.0
C127 C 0.676 0.08916 0.21267 0.0
C128 C 0.68042 0.09685 0.19099 0.0
C129 C 0.64375 0.05422 0.21993 0.0
C130 C 0.61515 0.02661 0.2052 0.0
C131 C 0.61945 0.03371 0.1835 0.0
C132 C 0.65222 0.06868 0.17639 0.0
H133 H 0.63915 0.59238 0.58731 0.0
H134 H 0.64572 0.50586 0.57582 0.0
H135 H 0.64208 0.5629 0.52346 0.0
H136 H 0.59083 0.48502 0.51429 0.0
C137 C 0.60444 0.47808 0.5272 0.0
O138 O 0.64333 0.50955 0.53457 0.0
H139 H 0.58066 0.46498 0.54005 0.0
C140 C 0.64039 0.57556 0.57625 0.0
C141 C 0.6406 0.58134 0.55441 0.0
C142 C 0.64246 0.54864 0.58411 0.0
C143 C 0.64494 0.52722 0.56997 0.0
C144 C 0.64433 0.53216 0.54813 0.0
C145 C 0.64284 0.55951 0.54038 0.0
H146 H 1.05167 0.53092 0.89988 0.0
H147 H 0.16927 0.54176 0.8987 0.0
H148 H 0.10505 0.53585 0.84037 0.0
H149 H 0.15418 0.5018 0.8368 0.0
C150 C 0.17109 0.51254 0.85252 0.0
O151 O 0.17283 0.54207 0.8577 0.0
H152 H 0.1515 0.49043 0.86404 0.0
C153 C 0.07632 0.53278 0.89109 0.0
C154 C 0.07379 0.53265 0.86896 0.0
C155 C 0.11042 0.53605 0.90205 0.0
C156 C 0.14285 0.53945 0.89051 0.0
C157 C 0.14098 0.53902 0.86833 0.0
C158 C 0.1065 0.53596 0.85749 0.0
H159 H 1.06368 0.4577 0.41464 0.0
H160 H 0.17993 0.56586 0.42769 0.0
H161 H 0.10354 0.49701 0.47888 0.0
H162 H 0.15896 0.58036 0.4928 0.0
C163 C 0.16802 0.58614 0.47598 0.0
O164 O 0.17321 0.56142 0.46864 0.0
H165 H 0.14096 0.5835 0.4672 0.0
C166 C 0.08634 0.47912 0.42586 0.0
C167 C 0.07885 0.47323 0.44759 0.0
C168 C 0.12274 0.51229 0.41845 0.0
C169 C 0.15161 0.54007 0.43306 0.0
C170 C 0.14471 0.53452 0.45477 0.0
C171 C 0.10866 0.50102 0.46205 0.0
H172 H 0.63404 0.97715 0.74015 0.0
H173 H 0.64089 0.07077 0.75097 0.0
H174 H 0.64206 0.01332 0.80378 0.0
H175 H 0.59129 0.03875 0.81196 0.0
C176 C 0.60346 0.0587 0.79903 0.0
O177 O 0.64182 0.06692 0.79223 0.0
H178 H 0.57841 0.04638 0.7859 0.0
C179 C 0.63597 0.99578 0.75106 0.0
C180 C 0.63818 0.99163 0.77297 0.0
C181 C 0.63723 0.02431 0.743 0.0
C182 C 0.64063 0.04897 0.75699 0.0
C183 C 0.64185 0.04467 0.77886 0.0
C184 C 0.64131 0.01643 0.78683 0.0
H185 H 0.59154 0.37155 0.08867 0.0
H186 H 0.56615 0.44482 0.10785 0.0
H187 H 0.57268 0.3815 0.15399 0.0
H188 H 0.52576 0.41813 0.17271 0.0
C189 C 0.52546 0.42064 0.15524 0.0
O190 O 0.56468 0.43161 0.14798 0.0
H191 H 0.49789 0.39344 0.14881 0.0
C192 C 0.58365 0.38276 0.10066 0.0
C193 C 0.58087 0.37202 0.12178 0.0
C194 C 0.57859 0.40922 0.09524 0.0
C195 C 0.57025 0.42447 0.11137 0.0
C196 C 0.56808 0.41422 0.13237 0.0
C197 C 0.57281 0.38791 0.13749 0.0
C198 C 0.37062 0.55537 0.09988 0.0
C199 C 0.36939 0.57794 0.11372 0.0
C200 C 0.40464 0.55327 0.10139 0.0
C201 C 0.47167 0.55721 0.14347 0.0
H202 H 0.50916 0.52728 0.09874 0.0
C203 C 0.53886 0.47957 0.16176 0.0
C204 C 0.51939 0.44826 0.1493 0.0
C205 C 0.53408 0.50574 0.15598 0.0
C206 C 0.49909 0.5357 0.1114 0.0
H207 H 0.40568 0.61927 0.13823 0.0
H208 H 0.46494 0.61507 0.14111 0.0
H209 H 0.47915 0.55884 0.08989 0.0
H210 H 0.48223 0.42053 0.12045 0.0
H211 H 0.47263 0.46565 0.11054 0.0
H212 H 0.48902 0.53227 0.16488 0.0
C213 C 0.43914 0.59868 0.12929 0.0
C214 C 0.48215 0.55391 0.10635 0.0
C215 C 0.40515 0.60097 0.12769 0.0
C216 C 0.49665 0.44416 0.13051 0.0
C217 C 0.49181 0.47026 0.12472 0.0
C218 C 0.48852 0.53898 0.14852 0.0
C219 C 0.43811 0.57354 0.11684 0.0
C220 C 0.46653 0.56344 0.12226 0.0
C221 C 0.51004 0.50115 0.13752 0.0
C222 C 0.50067 0.52667 0.13246 0.0
H223 H 0.34355 0.53696 0.08906 0.0
H224 H 0.40257 0.53335 0.09169 0.0
H225 H 0.45946 0.56377 0.1561 0.0
H226 H 0.55753 0.48361 0.17604 0.0
H227 H 0.54895 0.52944 0.16602 0.0
C228 C 0.73809 0.16999 0.4703 0.0
C229 C 0.74014 0.14569 0.48229 0.0
C230 C 0.77481 0.20595 0.46836 0.0
C231 C 0.88274 0.27809 0.49212 0.0
H232 H 0.90549 0.3171 0.43561 0.0
C233 C 1.04287 0.41808 0.47036 0.0
C234 C 1.03967 0.43789 0.45476 0.0
C235 C 1.00641 0.38303 0.47527 0.0
C236 C 0.89938 0.30694 0.45157 0.0
H237 H 0.78237 0.14061 0.50218 0.0
H238 H 0.84667 0.20367 0.49879 0.0
H239 H 0.8421 0.25518 0.44138 0.0
H240 H 0.99541 0.43759 0.43307 0.0
H241 H 0.93182 0.37719 0.44195 0.0
H242 H 0.94002 0.33015 0.50232 0.0
C243 C 0.81645 0.19472 0.49093 0.0
C244 C 0.86302 0.27131 0.45486 0.0
C245 C 0.77965 0.15856 0.49278 0.0
C246 C 0.99898 0.42269 0.4449 0.0
C247 C 0.9626 0.38796 0.44992 0.0
C248 C 0.91913 0.31398 0.48886 0.0
C249 C 0.81457 0.21867 0.47842 0.0
C250 C 0.85403 0.25648 0.47517 0.0
C251 C 0.96596 0.36724 0.46478 0.0
C252 C 0.92773 0.32896 0.46854 0.0
H253 H 0.70821 0.16121 0.4621 0.0
H254 H 0.77208 0.22384 0.4589 0.0
H255 H 0.87655 0.26749 0.50798 0.0
H256 H 0.07391 0.42909 0.47812 0.0
H257 H 1.01034 0.36787 0.4867 0.0
C258 C 0.63388 0.73207 0.80515 0.0
C259 C 0.66426 0.73747 0.82048 0.0
C260 C 0.62857 0.75855 0.80163 0.0
C261 C 0.65146 0.84131 0.82477 0.0
H262 H 0.63881 0.85984 0.76633 0.0
C263 C 0.66574 0.96679 0.79751 0.0
C264 C 0.63704 0.96126 0.78107 0.0
C265 C 0.66699 0.93876 0.80377 0.0
C266 C 0.64176 0.85473 0.78276 0.0
H267 H 0.71253 0.77475 0.84435 0.0
H268 H 0.7036 0.82123 0.83807 0.0
H269 H 0.64485 0.8124 0.77449 0.0
H270 H 0.5853 0.9214 0.75925 0.0
H271 H 0.58748 0.87267 0.77012 0.0
H272 H 0.64894 0.8842 0.83292 0.0
C273 C 0.68337 0.79626 0.82897 0.0
C274 C 0.64517 0.82746 0.78744 0.0
C275 C 0.68854 0.76964 0.83256 0.0
C276 C 0.60847 0.92676 0.77163 0.0
C277 C 0.60973 0.89884 0.77786 0.0
C278 C 0.64816 0.86874 0.82005 0.0
C279 C 0.65369 0.79121 0.81327 0.0
C280 C 0.64989 0.82028 0.8085 0.0
C281 C 0.63955 0.90466 0.79371 0.0
C282 C 0.64308 0.87564 0.79898 0.0
H283 H 0.61415 0.70729 0.79584 0.0
H284 H 0.60475 0.75343 0.78973 0.0
H285 H 0.65464 0.83626 0.84117 0.0
H286 H 0.68833 0.99313 0.805 0.0
H287 H 0.69052 0.94417 0.81594 0.0
C288 C 0.85159 0.38672 0.20017 0.0
C289 C 0.8659 0.42098 0.20696 0.0
C290 C 0.80732 0.35862 0.19672 0.0
C291 C 0.6974 0.33672 0.19854 0.0
H292 H 0.68916 0.30845 0.14014 0.0
C293 C 0.5716 0.32399 0.14474 0.0
C294 C 0.59307 0.34884 0.1283 0.0
C295 C 0.59069 0.31034 0.15519 0.0
C296 C 0.69051 0.31552 0.15655 0.0
H297 H 0.8451 0.45164 0.21763 0.0
H298 H 0.76836 0.40333 0.21129 0.0
H299 H 0.75277 0.32841 0.16182 0.0
H300 H 0.64864 0.37538 0.10828 0.0
H301 H 0.68184 0.35199 0.12632 0.0
H302 H 0.63757 0.32795 0.19249 0.0
C303 C 0.79084 0.39757 0.20884 0.0
C304 C 0.7269 0.32666 0.16914 0.0
C305 C 0.83505 0.42552 0.21242 0.0
C306 C 0.63116 0.35624 0.12083 0.0
C307 C 0.65021 0.34263 0.13124 0.0
C308 C 0.66126 0.32602 0.18586 0.0
C309 C 0.77659 0.36444 0.19982 0.0
C310 C 0.73226 0.34005 0.18979 0.0
C311 C 0.63158 0.32135 0.14937 0.0
C312 C 0.65915 0.31803 0.16426 0.0
H313 H 0.87476 0.38233 0.19622 0.0
H314 H 0.79744 0.33322 0.19024 0.0
H315 H 0.69989 0.34574 0.2146 0.0
H316 H 0.54165 0.31721 0.15053 0.0
H317 H 0.57504 0.29338 0.1688 0.0
C318 C 0.47769 0.90953 0.46287 0.0
C319 C 0.51364 0.92142 0.47635 0.0
C320 C 0.44143 0.873 0.46185 0.0
C321 C 0.40477 0.78079 0.47513 0.0
H322 H 0.29023 0.75625 0.47011 0.0
C323 C 0.24555 0.63612 0.4879 0.0
C324 C 0.20979 0.62406 0.47429 0.0
C325 C 0.28359 0.67187 0.48716 0.0
C326 C 0.32198 0.76261 0.47126 0.0
H327 H 0.53955 0.904 0.49931 0.0
H328 H 0.47606 0.84053 0.49786 0.0
H329 H 0.3543 0.81945 0.471 0.0
H330 H 0.18622 0.63928 0.44863 0.0
H331 H 0.25257 0.70178 0.44732 0.0
H332 H 0.37213 0.72376 0.47576 0.0
C333 C 0.47613 0.8593 0.48776 0.0
C334 C 0.35882 0.79892 0.47174 0.0
C335 C 0.51252 0.89582 0.4887 0.0
C336 C 0.21318 0.64805 0.45947 0.0
C337 C 0.25108 0.68384 0.4588 0.0
C338 C 0.36786 0.74444 0.47477 0.0
C339 C 0.43999 0.84738 0.47437 0.0
C340 C 0.40076 0.80856 0.47368 0.0
C341 C 0.28658 0.69632 0.4728 0.0
C342 C 0.32601 0.73491 0.47283 0.0
H343 H 0.47752 0.92842 0.45302 0.0
H344 H 0.41462 0.86483 0.45108 0.0
H345 H 0.43648 0.78708 0.47629 0.0
H346 H 0.2437 0.61801 0.49938 0.0
H347 H 0.3102 0.68063 0.49824 0.0
C348 C 0.6283 0.32852 0.83595 0.0
C349 C 0.59397 0.31998 0.84839 0.0
C350 C 0.63402 0.30257 0.83161 0.0
C351 C 0.60812 0.21714 0.85039 0.0
H352 H 0.62157 0.20225 0.79205 0.0
C353 C 0.58449 0.08934 0.82287 0.0
C354 C 0.60993 0.0921 0.80663 0.0
C355 C 0.58681 0.11907 0.82879 0.0
C356 C 0.61869 0.20641 0.80849 0.0
H357 H 0.53888 0.27718 0.86605 0.0
H358 H 0.54963 0.23237 0.85889 0.0
H359 H 0.61844 0.2509 0.8011 0.0
H360 H 0.6568 0.12787 0.78335 0.0
H361 H 0.66222 0.18032 0.79417 0.0
H362 H 0.60863 0.17292 0.85789 0.0
C363 C 0.57216 0.25924 0.85258 0.0
C364 C 0.61674 0.23426 0.81364 0.0
C365 C 0.56612 0.28502 0.85673 0.0
C366 C 0.63758 0.1252 0.79628 0.0
C367 C 0.64022 0.15511 0.80232 0.0
C368 C 0.61053 0.18954 0.84528 0.0
C369 C 0.60591 0.26763 0.83981 0.0
C370 C 0.61083 0.23959 0.83459 0.0
C371 C 0.61456 0.15235 0.81854 0.0
C372 C 0.61519 0.18343 0.82421 0.0
H373 H 0.65095 0.35532 0.8296 0.0
H374 H 0.66063 0.30991 0.82192 0.0
H375 H 0.60417 0.22096 0.86672 0.0
H376 H 0.56203 0.06385 0.83071 0.0
H377 H 0.56577 0.11556 0.84098 0.0
C378 C 0.63146 0.83517 0.52969 0.0
C379 C 0.65873 0.86039 0.51436 0.0
C380 C 0.62703 0.80348 0.53225 0.0
C381 C 0.64668 0.74401 0.50651 0.0
H382 H 0.64232 0.71331 0.56409 0.0
C383 C 0.66507 0.63375 0.5307 0.0
C384 C 0.63804 0.60999 0.54664 0.0
C385 C 0.66549 0.66291 0.52508 0.0
C386 C 0.64301 0.72126 0.54789 0.0
H387 H 0.70234 0.87192 0.48953 0.0
H388 H 0.69517 0.81683 0.49421 0.0
H389 H 0.64724 0.76676 0.55761 0.0
H390 H 0.58806 0.5967 0.56807 0.0
H391 H 0.58897 0.64742 0.55838 0.0
H392 H 0.64323 0.69855 0.49695 0.0
C393 C 0.67659 0.82121 0.50401 0.0
C394 C 0.64573 0.75191 0.54416 0.0
C395 C 0.68078 0.85284 0.50135 0.0
C396 C 0.61004 0.61502 0.5561 0.0
C397 C 0.61055 0.64408 0.55055 0.0
C398 C 0.6442 0.71334 0.51028 0.0
C399 C 0.65003 0.79632 0.51968 0.0
C400 C 0.64731 0.76361 0.52343 0.0
C401 C 0.63893 0.66883 0.53532 0.0
C402 C 0.64203 0.70151 0.53102 0.0
H403 H 0.61347 0.83993 0.5397 0.0
H404 H 0.60551 0.78457 0.54414 0.0
H405 H 0.64743 0.75201 0.49033 0.0
H406 H 0.68713 0.63068 0.52318 0.0
H407 H 0.68782 0.68159 0.51334 0.0
C408 C 0.78118 0.55855 0.83921 0.0
C409 C 0.73972 0.52802 0.845 0.0
C410 C 0.81673 0.55796 0.83951 0.0
C411 C 0.8547 0.5079 0.86266 0.0
H412 H 0.94341 0.55905 0.82085 0.0
C413 C 0.99379 0.49696 0.86201 0.0
C414 C 1.03602 0.52877 0.85888 0.0
C415 C 0.9574 0.49566 0.85781 0.0
C416 C 0.91917 0.54483 0.83277 0.0
H417 H 0.70349 0.47258 0.85533 0.0
H418 H 0.76499 0.4714 0.85563 0.0
H419 H 0.88098 0.55921 0.8188 0.0
H420 H 0.07307 0.58399 0.84841 0.0
H421 H 1.00956 0.58192 0.84095 0.0
H422 H 0.89285 0.49379 0.87678 0.0
C423 C 0.77036 0.49614 0.85117 0.0
C424 C 0.88323 0.54495 0.83162 0.0
C425 C 0.73484 0.49674 0.85089 0.0
C426 C 1.04089 0.55884 0.85049 0.0
C427 C 1.00436 0.55763 0.84635 0.0
C428 C 0.89053 0.50777 0.86381 0.0
C429 C 0.81201 0.52681 0.84561 0.0
C430 C 0.85035 0.52647 0.84656 0.0
C431 C 0.96208 0.52634 0.8506 0.0
C432 C 0.9234 0.52617 0.84888 0.0
H433 H 0.78643 0.58321 0.83463 0.0
H434 H 0.84817 0.5823 0.83537 0.0
H435 H 0.83081 0.49397 0.87475 0.0
H436 H 0.98907 0.47352 0.86874 0.0
H437 H 0.92555 0.47079 0.86084 0.0
C438 C 0.26362 0.6694 0.14663 0.0
C439 C 0.22956 0.65611 0.16051 0.0
C440 C 0.29917 0.70621 0.14666 0.0
C441 C 0.3334 0.79614 0.16379 0.0
H442 H 0.44958 0.82632 0.15663 0.0
C443 C 0.486 0.94398 0.1775 0.0
C444 C 0.51796 0.95872 0.16228 0.0
C445 C 0.45161 0.9069 0.17743 0.0
C446 C 0.41729 0.81833 0.15847 0.0
H447 H 0.20653 0.67124 0.18544 0.0
H448 H 0.26858 0.73498 0.18574 0.0
H449 H 0.38789 0.76207 0.15598 0.0
H450 H 0.54031 0.94636 0.13568 0.0
H451 H 0.48017 0.88136 0.1355 0.0
H452 H 0.36287 0.85238 0.16648 0.0
C453 C 0.26755 0.7172 0.17451 0.0
C454 C 0.38187 0.78148 0.15805 0.0
C455 C 0.23197 0.68049 0.17442 0.0
C456 C 0.51579 0.93557 0.14745 0.0
C457 C 0.48153 0.89843 0.14744 0.0
C458 C 0.3688 0.83292 0.16433 0.0
C459 C 0.30162 0.73062 0.16061 0.0
C460 C 0.33943 0.76988 0.16075 0.0
C461 C 0.44872 0.88371 0.16227 0.0
C462 C 0.41119 0.84448 0.16172 0.0
H463 H 0.2628 0.65143 0.13565 0.0
H464 H 0.32448 0.7156 0.13553 0.0
H465 H 0.30117 0.78834 0.1655 0.0
H466 H 0.48733 0.96122 0.1893 0.0
H467 H 0.42731 0.89634 0.18929 0.0
C468 C 0.6293 0.23456 0.48745 0.0
C469 C 0.5946 0.20767 0.47409 0.0
C470 C 0.63449 0.26604 0.49233 0.0
C471 C 0.60559 0.32365 0.47396 0.0
H472 H 0.62387 0.35352 0.53279 0.0
C473 C 0.58369 0.42755 0.50258 0.0
C474 C 0.61049 0.45127 0.5193 0.0
C475 C 0.58557 0.40009 0.49636 0.0
C476 C 0.61959 0.34606 0.51623 0.0
H477 H 0.53828 0.19327 0.45537 0.0
H478 H 0.54803 0.24849 0.46352 0.0
H479 H 0.62058 0.30179 0.52305 0.0
H480 H 0.65939 0.46414 0.54311 0.0
H481 H 0.664 0.41702 0.53181 0.0
H482 H 0.60488 0.36794 0.46704 0.0
C483 C 0.57128 0.24517 0.47013 0.0
C484 C 0.61755 0.31627 0.51068 0.0
C485 C 0.56581 0.21353 0.46541 0.0
C486 C 0.63908 0.44679 0.52983 0.0
C487 C 0.64126 0.41946 0.5235 0.0
C488 C 0.60806 0.35365 0.47948 0.0
C489 C 0.60544 0.27163 0.4838 0.0
C490 C 0.60999 0.30447 0.48951 0.0
C491 C 0.61424 0.39551 0.50679 0.0
C492 C 0.61452 0.36501 0.50073 0.0
H493 H 0.65267 0.23143 0.4941 0.0
H494 H 0.66146 0.28616 0.5027 0.0
H495 H 0.60036 0.31551 0.45748 0.0
H496 H 0.5605 0.42978 0.49458 0.0
H497 H 0.5635 0.38175 0.48378 0.0
C498 C 0.47717 0.4995 0.85727 0.0
C499 C 0.51747 0.52894 0.84962 0.0
C500 C 0.44197 0.50046 0.85794 0.0
C501 C 0.4003 0.54851 0.83564 0.0
H502 H 0.32021 0.50168 0.88135 0.0
C503 C 0.23339 0.52168 0.83328 0.0
C504 C 0.21613 0.52213 0.85231 0.0
C505 C 0.27207 0.52562 0.83328 0.0
C506 C 0.3424 0.5153 0.86855 0.0
H507 H 0.55188 0.58272 0.83676 0.0
H508 H 0.49093 0.58456 0.83815 0.0
H509 H 0.38311 0.50255 0.88101 0.0
H510 H 0.22698 0.52843 0.88621 0.0
H511 H 0.29494 0.53606 0.88632 0.0
H512 H 0.35992 0.56175 0.82336 0.0
C513 C 0.48621 0.56038 0.84338 0.0
C514 C 0.37837 0.51533 0.86819 0.0
C515 C 0.52143 0.55941 0.84269 0.0
C516 C 0.23947 0.528 0.8713 0.0
C517 C 0.27821 0.53194 0.87133 0.0
C518 C 0.36429 0.54846 0.83599 0.0
C519 C 0.44581 0.53091 0.85102 0.0
C520 C 0.40785 0.53173 0.85166 0.0
C521 C 0.29481 0.53017 0.85233 0.0
C522 C 0.33452 0.53167 0.85239 0.0
H523 H 0.4726 0.47547 0.86268 0.0
H524 H 0.41143 0.47693 0.86362 0.0
H525 H 0.42178 0.56117 0.82251 0.0
H526 H 0.21612 0.517 0.81837 0.0
H527 H 0.2832 0.52369 0.81832 0.0
C528 C 0.98723 0.41634 0.17967 0.0
C529 C 1.01674 0.42787 0.16347 0.0
C530 C 0.95106 0.38012 0.18114 0.0
C531 C 0.88034 0.29407 0.15043 0.0
H532 H 0.84367 0.25367 0.20631 0.0
C533 C 0.74266 0.1413 0.16773 0.0
C534 C 0.71507 0.13437 0.1841 0.0
C535 C 0.77873 0.17685 0.16338 0.0
C536 C 0.85324 0.26462 0.19058 0.0
H537 H 1.03133 0.41009 0.13611 0.0
H538 H 0.96822 0.34647 0.13886 0.0
H539 H 0.90911 0.31542 0.20268 0.0
H540 H 0.7017 0.15942 0.20755 0.0
H541 H 0.76438 0.22104 0.20006 0.0
H542 H 0.8243 0.2426 0.13846 0.0
C543 C 0.97286 0.36569 0.15027 0.0
C544 C 0.89078 0.30011 0.18849 0.0
C545 C 1.00924 0.40212 0.14879 0.0
C546 C 0.72291 0.16378 0.19518 0.0
C547 C 0.75884 0.19909 0.1909 0.0
C548 C 0.84278 0.25829 0.15254 0.0
C549 C 0.9433 0.35423 0.1665 0.0
C550 C 0.90456 0.31557 0.16842 0.0
C551 C 0.78784 0.20602 0.17536 0.0
C552 C 0.8285 0.24339 0.17268 0.0
H553 H 0.99196 0.43529 0.19133 0.0
H554 H 0.9289 0.3725 0.19371 0.0
H555 H 0.88973 0.30514 0.13473 0.0
H556 H 0.73755 0.11921 0.15896 0.0
H557 H 0.80053 0.18136 0.15131 0.0
C558 C 0.09768 0.5739 0.09248 0.0
C559 C 0.09494 0.54809 0.10531 0.0
C560 C 0.10111 0.57308 0.07055 0.0
C561 C 0.0809 0.51127 0.02716 0.0
H562 H 0.15452 0.59959 0.99554 0.0
C563 C 0.07296 0.51181 0.93637 0.0
C564 C 0.11152 0.53591 0.92555 0.0
C565 C 0.07273 0.51334 0.95834 0.0
C566 C 0.13421 0.57466 0.00418 0.0
H567 H 0.09377 0.50133 0.10541 0.0
H568 H 0.10079 0.50041 0.06753 0.0
H569 H 0.15084 0.60283 0.03379 0.0
H570 H 0.18043 0.57994 0.92944 0.0
H571 H 0.18032 0.58203 0.96804 0.0
H572 H 1.06503 0.48302 -0.00223 0.0
C573 C 0.09944 0.52088 0.07413 0.0
C574 C 0.13159 0.57654 0.02606 0.0
C575 C 0.09571 0.52155 0.09591 0.0
C576 C 0.15024 0.56089 0.93732 0.0
C577 C 0.15004 0.56238 0.9594 0.0
C578 C 0.08366 0.5094 0.00536 0.0
C579 C 0.10194 0.54647 0.06112 0.0
C580 C 0.10481 0.54484 0.03782 0.0
C581 C 0.11115 0.53884 0.97016 0.0
C582 C 0.1101 0.54104 0.99355 0.0
H583 H 0.09712 0.59462 0.09936 0.0
H584 H 0.10247 0.59296 0.06097 0.0
H585 H 1.05951 0.48629 0.03562 0.0
H586 H 1.04268 0.4919 0.9278 0.0
H587 H 1.04209 0.49503 0.96602 0.0
C588 C 0.60726 0.01856 0.41305 0.0
C589 C 0.64747 0.03329 0.42333 0.0
C590 C 0.60419 0.01973 0.391 0.0
C591 C 0.67065 0.06892 0.34488 0.0
H592 H 0.57835 0.98386 0.31267 0.0
C593 C 0.67872 0.06123 0.2553 0.0
C594 C 0.64078 0.04716 0.24295 0.0
C595 C 0.67709 0.0578 0.27722 0.0
C596 C 0.60402 0.00795 0.32146 0.0
H597 H 0.71594 0.06099 0.4188 0.0
H598 H 0.71067 0.06305 0.38042 0.0
H599 H 0.5799 0.98215 0.35132 0.0
H600 H 0.57108 0.01727 0.24378 0.0
H601 H 0.56816 0.01136 0.28231 0.0
H602 H 0.69488 0.0948 0.3152 0.0
C603 C 0.68155 0.05081 0.3893 0.0
C604 C 0.60489 0.00698 0.34358 0.0
C605 C 0.68455 0.04947 0.41127 0.0
C606 C 0.6008 0.02825 0.25292 0.0
C607 C 0.59917 0.0249 0.27496 0.0
C608 C 0.66973 0.06992 0.32285 0.0
C609 C 0.64135 0.03592 0.3789 0.0
C610 C 0.63859 0.03733 0.3555 0.0
C611 C 0.63748 0.04031 0.28737 0.0
C612 C 0.63681 0.03931 0.31085 0.0
H613 H 0.57818 0.00598 0.42202 0.0
H614 H 0.57286 0.00833 0.38345 0.0
H615 H 0.69653 0.09299 0.35362 0.0
H616 H 0.70987 0.07529 0.248 0.0
H617 H 0.70703 0.06913 0.28624 0.0
C618 C 0.57728 0.50247 0.77274 0.0
C619 C 0.61307 0.51565 0.78651 0.0
C620 C 0.58246 0.50662 0.75094 0.0
C621 C 0.66563 0.55574 0.70966 0.0
H622 H 0.57127 0.47816 0.67392 0.0
C623 C 0.67363 0.54523 0.61843 0.0
C624 C 0.64002 0.54222 0.60709 0.0
C625 C 0.6722 0.54148 0.64043 0.0
C626 C 0.59785 0.49998 0.68374 0.0
H627 H 0.68258 0.54415 0.78852 0.0
H628 H 0.69162 0.55026 0.75034 0.0
H629 H 0.56591 0.47334 0.71217 0.0
H630 H 0.57826 0.5321 0.60947 0.0
H631 H 0.57505 0.5244 0.64782 0.0
H632 H 0.6978 0.58176 0.68088 0.0
C633 C 0.65958 0.53743 0.7563 0.0
C634 C 0.5947 0.49746 0.70567 0.0
C635 C 0.65444 0.53382 0.77818 0.0
C636 C 0.60452 0.53454 0.61794 0.0
C637 C 0.60266 0.53006 0.6398 0.0
C638 C 0.66906 0.55793 0.68766 0.0
C639 C 0.62351 0.52343 0.74235 0.0
C640 C 0.62817 0.5256 0.71897 0.0
C641 C 0.63665 0.53385 0.65127 0.0
C642 C 0.63488 0.53032 0.67453 0.0
H643 H 0.5451 0.48871 0.77881 0.0
H644 H 0.55411 0.49646 0.74084 0.0
H645 H 0.69188 0.57813 0.71929 0.0
H646 H 0.70139 0.55134 0.61034 0.0
H647 H 0.69869 0.54439 0.64897 0.0
C648 C 0.64948 0.05764 0.54992 0.0
C649 C 0.60821 0.03562 0.53978 0.0
C650 C 0.65375 0.05722 0.57192 0.0
C651 C 0.60365 1.00102 0.61763 0.0
H652 H 0.65943 0.08976 0.65015 0.0
C653 C 0.59788 0.99847 0.70824 0.0
C654 C 0.63378 0.02741 0.71992 0.0
C655 C 0.59521 1.00036 0.6863 0.0
C656 C 0.64445 0.0648 0.64137 0.0
H657 H 0.53926 0.99533 0.5444 0.0
H658 H 0.5469 0.99372 0.58288 0.0
H659 H 0.65546 0.09104 0.61162 0.0
H660 H 0.69507 0.08099 0.71811 0.0
H661 H 0.69166 0.08392 0.6796 0.0
H662 H 0.59389 0.97473 0.647 0.0
C663 C 0.57576 0.01163 0.57383 0.0
C664 C 0.64201 0.06559 0.6193 0.0
C665 C 0.5714 0.01264 0.55189 0.0
C666 C 0.66691 0.05847 0.70936 0.0
C667 C 0.66473 0.06012 0.68731 0.0
C668 C 0.60684 1.00029 0.63964 0.0
C669 C 0.61691 0.03415 0.58403 0.0
C670 C 0.62119 0.03364 0.60729 0.0
C671 C 0.62893 0.03096 0.67544 0.0
C672 C 0.62681 0.03209 0.65188 0.0
H673 H 0.67836 0.0756 0.54089 0.0
H674 H 0.68581 0.07466 0.57948 0.0
H675 H 0.58784 0.9761 0.60865 0.0
H676 H 0.57176 0.97436 0.71614 0.0
H677 H 0.56654 0.97775 0.67789 0.0
C678 C 0.67792 0.54127 0.91862 0.0
C679 C 0.64276 0.53248 0.90559 0.0
C680 C 0.67087 0.52714 0.93897 0.0
C681 C 0.63655 0.4714 0.97516 0.0
H682 H 0.57289 0.48599 0.01343 0.0
C683 C 0.57208 0.39922 0.0557 0.0
C684 C 0.58476 0.42257 0.07314 0.0
C685 C 0.57922 0.41222 0.03505 0.0
C686 C 0.59065 0.48171 0.00288 0.0
H687 H 0.57289 0.50236 0.90349 0.0
H688 H 0.56079 0.47861 0.9393 0.0
H689 H 0.58577 0.50975 0.97752 0.0
H690 H 0.61569 0.47834 0.08219 0.0
H691 H 0.62598 0.50027 0.04622 0.0
H692 H 0.64071 0.44277 0.00044 0.0
C693 C 0.59363 0.49609 0.93371 0.0
C694 C 0.59787 0.49515 0.98238 0.0
C695 C 0.60056 0.50959 0.91325 0.0
C696 C 0.60436 0.45919 0.06929 0.0
C697 C 0.61066 0.47195 0.04867 0.0
C698 C 0.62854 0.45729 0.99554 0.0
C699 C 0.62868 0.50464 0.94672 0.0
C700 C 0.62108 0.49029 0.96839 0.0
C701 C 0.59839 0.44865 0.03139 0.0
C702 C 0.60576 0.46254 0.0096 0.0
H703 H 0.71072 0.55872 0.91299 0.0
H704 H 0.6984 0.53419 0.94878 0.0
H705 H 0.65432 0.46717 0.96459 0.0
H706 H 0.5563 0.37079 0.05794 0.0
H707 H 0.56916 0.39368 0.02192 0.0
C708 C 0.1503 0.50587 0.22686 0.0
C709 C 0.15415 0.53343 0.2155 0.0
C710 C 0.14932 0.50549 0.24892 0.0
C711 C 0.12844 0.54213 0.29399 0.0
H712 H 0.18529 0.51081 0.32667 0.0
C713 C 0.14138 0.54881 0.38552 0.0
C714 C 0.13048 0.51745 0.39545 0.0
C715 C 0.14673 0.55273 0.36367 0.0
C716 C 0.16907 0.51944 0.31774 0.0
H717 H 0.16056 0.58249 0.21814 0.0
H718 H 0.15967 0.5823 0.25667 0.0
H719 H 0.18994 0.51398 0.2883 0.0
H720 H 0.11798 0.46616 0.39044 0.0
H721 H 0.12727 0.47295 0.35236 0.0
H722 H 0.10776 0.54769 0.32354 0.0
C723 C 0.15656 0.56054 0.24861 0.0
C724 C 0.1716 0.52115 0.29574 0.0
C725 C 0.15732 0.56079 0.22654 0.0
C726 C 0.12595 0.49047 0.38318 0.0
C727 C 0.13166 0.49451 0.36141 0.0
C728 C 0.12617 0.54064 0.31602 0.0
C729 C 0.15243 0.53282 0.26008 0.0
C730 C 0.15098 0.53219 0.28356 0.0
C731 C 0.14177 0.52553 0.35138 0.0
C732 C 0.14612 0.52896 0.32811 0.0
H733 H 0.14753 0.48434 0.21869 0.0
H734 H 0.14537 0.4834 0.25719 0.0
H735 H 0.11163 0.55024 0.28512 0.0
H736 H 0.14485 0.56996 0.39458 0.0
H737 H 0.15485 0.57706 0.35638 0.0
loop_
_geom_bond_atom_site_label_1
_geom_bond_atom_site_label_2
_geom_bond_distance
_geom_bond_site_symmetry_2
_ccdc_geom_bond_type
Ho0 C3 2.811 . S
Ho0 O20 2.322 . S
Ho0 O22 2.378 . S
Ho0 O23 2.524 . S
Ho0 O24 2.381 . S
Ho0 O25 2.669 1_455 S
Ho0 O27 2.346 1_455 S
Ho0 O31 2.305 . S
Ho1 C12 2.811 . S
Ho1 O21 2.346 1_655 S
Ho1 O25 2.305 . S
Ho1 O26 2.322 . S
Ho1 O28 2.378 . S
Ho1 O29 2.524 . S
Ho1 O30 2.381 . S
Ho1 O31 2.669 1_655 S
C2 O20 1.259 . S
C2 O21 1.268 . S
C3 Ho0 2.811 . S
C3 C4 1.488 . S
C3 O22 1.215 . S
C3 O23 1.289 . S
C4 C3 1.488 . S
C4 C5 1.348 . S
C4 C9 1.413 . S
C5 C4 1.348 . S
C5 C6 1.442 . S
C5 H32 0.930 . S
C6 C5 1.442 . S
C6 C7 1.381 . S
C6 H33 0.931 . S
C7 C6 1.381 . S
C7 C8 1.321 . S
C8 C7 1.321 . S
C8 C9 1.403 . S
C8 H34 0.934 . S
C9 C4 1.413 . S
C9 C8 1.403 . S
C9 H35 0.930 . S
C10 O24 1.275 . S
C10 O25 1.256 1_455 S
C11 O26 1.259 . S
C11 O27 1.268 . S
C12 Ho1 2.811 . S
C12 C13 1.488 . S
C12 O28 1.215 . S
C12 O29 1.289 . S
C13 C12 1.488 . S
C13 C14 1.348 . S
C13 C18 1.413 . S
C14 C13 1.348 . S
C14 C15 1.442 . S
C14 H36 0.930 . S
C15 C14 1.442 . S
C15 C16 1.381 . S
C15 H37 0.931 . S
C16 C15 1.381 . S
C16 C17 1.321 . S
C17 C16 1.321 . S
C17 C18 1.403 . S
C17 H38 0.934 . S
C18 C13 1.413 . S
C18 C17 1.403 . S
C18 H39 0.930 . S
C19 O30 1.275 1_455 S
C19 O31 1.256 . S
O20 Ho0 2.322 . S
O20 C2 1.259 . S
O21 Ho1 2.346 1_455 S
O21 C2 1.268 . S
O22 Ho0 2.378 . S
O22 C3 1.215 . S
O23 Ho0 2.524 . S
O23 C3 1.289 . S
O24 Ho0 2.381 . S
O24 C10 1.275 . S
O25 Ho0 2.669 1_655 S
O25 Ho1 2.305 . S
O25 C10 1.256 1_655 S
O26 Ho1 2.322 . S
O26 C11 1.259 . S
O27 Ho0 2.346 1_655 S
O27 C11 1.268 . S
O28 Ho1 2.378 . S
O28 C12 1.215 . S
O29 Ho1 2.524 . S
O29 C12 1.289 . S
O30 Ho1 2.381 . S
O30 C19 1.275 1_655 S
O31 Ho0 2.305 . S
O31 Ho1 2.669 1_455 S
O31 C19 1.256 . S
H32 C5 0.930 . S
H33 C6 0.931 . S
H34 C8 0.934 . S
H35 C9 0.930 . S
H36 C14 0.930 . S
H37 C15 0.931 . S
H38 C17 0.934 . S
H39 C18 0.930 . S
Ho40 C43 2.811 1_545 S
Ho40 O60 2.322 1_545 S
Ho40 O62 2.378 1_545 S
Ho40 O63 2.524 1_545 S
Ho40 O64 2.381 . S
Ho40 O65 2.669 . S
Ho40 O67 2.346 . S
Ho40 O71 2.305 . S
Ho41 C52 2.811 . S
Ho41 O61 2.346 1_545 S
Ho41 O65 2.305 . S
Ho41 O66 2.322 . S
Ho41 O68 2.378 . S
Ho41 O69 2.524 . S
Ho41 O70 2.381 . S
Ho41 O71 2.669 . S
C42 O60 1.259 . S
C42 O61 1.268 . S
C43 Ho40 2.811 1_565 S
C43 C44 1.488 . S
C43 O62 1.215 . S
C43 O63 1.289 . S
C44 C43 1.488 . S
C44 C45 1.348 . S
C44 C49 1.413 . S
C45 C44 1.348 . S
C45 C46 1.442 . S
C45 H72 0.930 . S
C46 C45 1.442 . S
C46 C47 1.381 . S
C46 H73 0.931 . S
C47 C46 1.381 . S
C47 C48 1.321 . S
C48 C47 1.321 . S
C48 C49 1.403 . S
C48 H74 0.934 . S
C49 C44 1.413 . S
C49 C48 1.403 . S
C49 H75 0.930 . S
C50 O64 1.275 . S
C50 O65 1.256 . S
C51 O66 1.259 . S
C51 O67 1.268 . S
C52 Ho41 2.811 . S
C52 C53 1.488 . S
C52 O68 1.215 . S
C52 O69 1.289 . S
C53 C52 1.488 . S
C53 C54 1.348 . S
C53 C58 1.413 . S
C54 C53 1.348 . S
C54 C55 1.442 . S
C54 H76 0.930 . S
C55 C54 1.442 . S
C55 C56 1.381 . S
C55 H77 0.931 . S
C56 C55 1.381 . S
C56 C57 1.321 . S
C57 C56 1.321 . S
C57 C58 1.403 . S
C57 H78 0.934 . S
C58 C53 1.413 . S
C58 C57 1.403 . S
C58 H79 0.930 . S
C59 O70 1.275 . S
C59 O71 1.256 . S
O60 Ho40 2.322 1_565 S
O60 C42 1.259 . S
O61 Ho41 2.346 1_565 S
O61 C42 1.268 . S
O62 Ho40 2.378 1_565 S
O62 C43 1.215 . S
O63 Ho40 2.524 1_565 S
O63 C43 1.289 . S
O64 Ho40 2.381 . S
O64 C50 1.275 . S
O65 Ho40 2.669 . S
O65 Ho41 2.305 . S
O65 C50 1.256 . S
O66 Ho41 2.322 . S
O66 C51 1.259 . S
O67 Ho40 2.346 . S
O67 C51 1.268 . S
O68 Ho41 2.378 . S
O68 C52 1.215 . S
O69 Ho41 2.524 . S
O69 C52 1.289 . S
O70 Ho41 2.381 . S
O70 C59 1.275 . S
O71 Ho40 2.305 . S
O71 Ho41 2.669 . S
O71 C59 1.256 . S
H72 C45 0.930 . S
H73 C46 0.931 . S
H74 C48 0.934 . S
H75 C49 0.930 . S
H76 C54 0.930 . S
H77 C55 0.931 . S
H78 C57 0.934 . S
H79 C58 0.930 . S
Ho80 C83 2.811 . S
Ho80 O100 2.322 . S
Ho80 O102 2.378 . S
Ho80 O103 2.524 . S
Ho80 O104 2.381 . S
Ho80 O105 2.669 . S
Ho80 O107 2.346 . S
Ho80 O111 2.305 . S
Ho81 C92 2.811 . S
Ho81 O101 2.346 . S
Ho81 O105 2.305 . S
Ho81 O106 2.322 . S
Ho81 O108 2.378 . S
Ho81 O109 2.524 . S
Ho81 O110 2.381 . S
Ho81 O111 2.669 . S
C82 O100 1.259 . S
C82 O101 1.268 . S
C83 Ho80 2.811 . S
C83 C84 1.488 . S
C83 O102 1.215 . S
C83 O103 1.289 . S
C84 C83 1.488 . S
C84 C85 1.348 . S
C84 C89 1.413 . S
C85 C84 1.348 . S
C85 C86 1.442 . S
C85 H112 0.930 . S
C86 C85 1.442 . S
C86 C87 1.381 . S
C86 H113 0.931 . S
C87 C86 1.381 . S
C87 C88 1.321 . S
C88 C87 1.321 . S
C88 C89 1.403 . S
C88 H114 0.934 . S
C89 C84 1.413 . S
C89 C88 1.403 . S
C89 H115 0.930 . S
C90 O104 1.275 . S
C90 O105 1.256 . S
C91 O106 1.259 . S
C91 O107 1.268 . S
C92 Ho81 2.811 . S
C92 C93 1.488 . S
C92 O108 1.215 . S
C92 O109 1.289 . S
C93 C92 1.488 . S
C93 C94 1.348 . S
C93 C98 1.413 . S
C94 C93 1.348 . S
C94 C95 1.442 . S
C94 H116 0.930 . S
C95 C94 1.442 . S
C95 C96 1.381 . S
C95 H117 0.931 . S
C96 C95 1.381 . S
C96 C97 1.321 . S
C97 C96 1.321 . S
C97 C98 1.403 . S
C97 H118 0.934 . S
C98 C93 1.413 . S
C98 C97 1.403 . S
C98 H119 0.930 . S
C99 O110 1.275 . S
C99 O111 1.256 . S
O100 Ho80 2.322 . S
O100 C82 1.259 . S
O101 Ho81 2.346 . S
O101 C82 1.268 . S
O102 Ho80 2.378 . S
O102 C83 1.215 . S
O103 Ho80 2.524 . S
O103 C83 1.289 . S
O104 Ho80 2.381 . S
O104 C90 1.275 . S
O105 Ho80 2.669 . S
O105 Ho81 2.305 . S
O105 C90 1.256 . S
O106 Ho81 2.322 . S
O106 C91 1.259 . S
O107 Ho80 2.346 . S
O107 C91 1.268 . S
O108 Ho81 2.378 . S
O108 C92 1.215 . S
O109 Ho81 2.524 . S
O109 C92 1.289 . S
O110 Ho81 2.381 . S
O110 C99 1.275 . S
O111 Ho80 2.305 . S
O111 Ho81 2.669 . S
O111 C99 1.256 . S
H112 C85 0.930 . S
H113 C86 0.931 . S
H114 C88 0.934 . S
H115 C89 0.930 . S
H116 C94 0.930 . S
H117 C95 0.931 . S
H118 C97 0.934 . S
H119 C98 0.930 . S
H120 C127 0.929 . S
H121 C130 0.930 . S
H122 C132 0.929 . S
H123 C124 0.969 . S
C124 H123 0.969 . S
C124 O125 1.550 . S
C124 H126 0.973 . S
O125 C124 1.550 . S
O125 C131 1.412 . S
H126 C124 0.973 . S
C127 H120 0.929 . S
C127 C128 1.400 . S
C127 C129 1.364 . S
C128 C127 1.400 . S
C128 C132 1.377 . S
C129 C127 1.364 . S
C129 C130 1.374 1_545 S
C130 H121 0.930 . S
C130 C129 1.374 1_565 S
C130 C131 1.383 . S
C131 O125 1.412 . S
C131 C130 1.383 . S
C131 C132 1.394 1_565 S
C132 H122 0.929 . S
C132 C128 1.377 . S
C132 C131 1.394 1_545 S
H133 C140 0.929 . S
H134 C143 0.930 . S
H135 C145 0.929 . S
H136 C137 0.969 . S
C137 H136 0.969 . S
C137 O138 1.550 . S
C137 H139 0.973 . S
O138 C137 1.550 . S
O138 C144 1.412 . S
H139 C137 0.973 . S
C140 H133 0.929 . S
C140 C141 1.400 . S
C140 C142 1.364 . S
C141 C140 1.400 . S
C141 C145 1.377 . S
C142 C140 1.364 . S
C142 C143 1.374 . S
C143 H134 0.930 . S
C143 C142 1.374 . S
C143 C144 1.383 . S
C144 O138 1.412 . S
C144 C143 1.383 . S
C144 C145 1.394 . S
C145 H135 0.929 . S
C145 C141 1.377 . S
C145 C144 1.394 . S
H146 C153 0.929 . S
H147 C156 0.930 . S
H148 C158 0.929 . S
H149 C150 0.969 . S
C150 H149 0.969 . S
C150 O151 1.550 . S
C150 H152 0.973 . S
O151 C150 1.550 . S
O151 C157 1.412 . S
H152 C150 0.973 . S
C153 H146 0.929 . S
C153 C154 1.400 . S
C153 C155 1.364 . S
C154 C153 1.400 . S
C154 C158 1.377 . S
C155 C153 1.364 . S
C155 C156 1.374 . S
C156 H147 0.930 . S
C156 C155 1.374 . S
C156 C157 1.383 . S
C157 O151 1.412 . S
C157 C156 1.383 . S
C157 C158 1.394 . S
C158 H148 0.929 . S
C158 C154 1.377 . S
C158 C157 1.394 . S
H159 C166 0.935 . S
H160 C169 0.930 . S
H161 C171 0.929 . S
H162 C163 0.969 . S
C163 H162 0.969 . S
C163 O164 1.550 . S
C163 H165 0.973 . S
O164 C163 1.550 . S
O164 C170 1.412 . S
H165 C163 0.973 . S
C166 H159 0.935 . S
C166 C167 1.400 . S
C166 C168 1.358 1_655 S
C167 C166 1.400 . S
C167 C171 1.377 1_655 S
C168 C166 1.358 1_455 S
C168 C169 1.374 . S
C169 H160 0.930 . S
C169 C168 1.374 . S
C169 C170 1.383 . S
C170 O164 1.412 . S
C170 C169 1.383 . S
C170 C171 1.394 . S
C171 H161 0.929 . S
C171 C167 1.377 1_455 S
C171 C170 1.394 . S
H172 C179 0.929 . S
H173 C182 0.930 . S
H174 C184 0.929 . S
H175 C176 0.969 . S
C176 H175 0.969 . S
C176 O177 1.550 . S
C176 H178 0.973 . S
O177 C176 1.550 . S
O177 C183 1.412 . S
H178 C176 0.973 . S
C179 H172 0.929 . S
C179 C180 1.400 . S
C179 C181 1.364 1_565 S
C180 C179 1.400 . S
C180 C184 1.377 1_565 S
C181 C179 1.364 1_545 S
C181 C182 1.374 . S
C182 H173 0.930 . S
C182 C181 1.374 . S
C182 C183 1.383 . S
C183 O177 1.412 . S
C183 C182 1.383 . S
C183 C184 1.394 . S
C184 H174 0.929 . S
C184 C180 1.377 1_545 S
C184 C183 1.394 . S
H185 C192 0.929 . S
H186 C195 0.930 . S
H187 C197 0.929 . S
H188 C189 0.969 . S
C189 H188 0.969 . S
C189 O190 1.550 . S
C189 H191 0.973 . S
O190 C189 1.550 . S
O190 C196 1.412 . S
H191 C189 0.973 . S
C192 H185 0.929 . S
C192 C193 1.400 . S
C192 C194 1.364 . S
C193 C192 1.400 . S
C193 C197 1.377 . S
C194 C192 1.364 . S
C194 C195 1.374 . S
C195 H186 0.930 . S
C195 C194 1.374 . S
C195 C196 1.383 . S
C196 O190 1.412 . S
C196 C195 1.383 . S
C196 C197 1.394 . S
C197 H187 0.929 . S
C197 C193 1.377 . S
C197 C196 1.394 . S
C198 C199 1.349 . S
C198 C200 1.327 . S
C198 H223 0.950 . S
C199 C198 1.349 . S
C199 C215 1.349 . S
C200 C198 1.327 . S
C200 C219 1.429 . S
C200 H224 0.950 . S
C201 C218 1.574 . S
C201 C220 1.368 . S
C201 H225 0.949 . S
H202 C206 0.949 . S
C203 C204 1.349 . S
C203 C205 1.327 . S
C203 H226 0.950 . S
C204 C203 1.349 . S
C204 C216 1.349 . S
C205 C203 1.327 . S
C205 C221 1.429 . S
C205 H227 0.950 . S
C206 H202 0.949 . S
C206 C214 1.574 . S
C206 C222 1.368 . S
H207 C215 0.950 . S
H208 C213 0.950 . S
H209 C214 0.949 . S
H210 C216 0.950 . S
H211 C217 0.950 . S
H212 C218 0.949 . S
C213 H208 0.950 . S
C213 C215 1.327 . S
C213 C219 1.429 . S
C214 C206 1.574 . S
C214 H209 0.949 . S
C214 C220 1.368 . S
C215 C199 1.349 . S
C215 H207 0.950 . S
C215 C213 1.327 . S
C216 C204 1.349 . S
C216 H210 0.950 . S
C216 C217 1.327 . S
C217 H211 0.950 . S
C217 C216 1.327 . S
C217 C221 1.429 . S
C218 C201 1.574 . S
C218 H212 0.949 . S
C218 C222 1.368 . S
C219 C200 1.429 . S
C219 C213 1.429 . S
C219 C220 1.523 . S
C220 C201 1.368 . S
C220 C214 1.368 . S
C220 C219 1.523 . S
C221 C205 1.429 . S
C221 C217 1.429 . S
C221 C222 1.523 . S
C222 C206 1.368 . S
C222 C218 1.368 . S
C222 C221 1.523 . S
H223 C198 0.950 . S
H224 C200 0.950 . S
H225 C201 0.949 . S
H226 C203 0.950 . S
H227 C205 0.950 . S
C228 C229 1.349 . S
C228 C230 1.327 . S
C228 H253 0.950 . S
C229 C228 1.349 . S
C229 C245 1.349 . S
C230 C228 1.327 . S
C230 C249 1.429 . S
C230 H254 0.950 . S
C231 C248 1.574 . S
C231 C250 1.368 . S
C231 H255 0.949 . S
H232 C236 0.949 . S
C233 C234 1.349 . S
C233 C235 1.327 . S
C233 H256 0.950 . S
C234 C233 1.349 . S
C234 C246 1.349 . S
C235 C233 1.327 . S
C235 C251 1.429 . S
C235 H257 0.950 . S
C236 H232 0.949 . S
C236 C244 1.574 . S
C236 C252 1.368 . S
H237 C245 0.950 . S
H238 C243 0.950 . S
H239 C244 0.949 . S
H240 C246 0.950 . S
H241 C247 0.950 . S
H242 C248 0.949 . S
C243 H238 0.950 . S
C243 C245 1.327 . S
C243 C249 1.429 . S
C244 C236 1.574 . S
C244 H239 0.949 . S
C244 C250 1.368 . S
C245 C229 1.349 . S
C245 H237 0.950 . S
C245 C243 1.327 . S
C246 C234 1.349 . S
C246 H240 0.950 . S
C246 C247 1.327 . S
C247 H241 0.950 . S
C247 C246 1.327 . S
C247 C251 1.429 . S
C248 C231 1.574 . S
C248 H242 0.949 . S
C248 C252 1.368 . S
C249 C230 1.429 . S
C249 C243 1.429 . S
C249 C250 1.523 . S
C250 C231 1.368 . S
C250 C244 1.368 . S
C250 C249 1.523 . S
C251 C235 1.429 . S
C251 C247 1.429 . S
C251 C252 1.523 . S
C252 C236 1.368 . S
C252 C248 1.368 . S
C252 C251 1.523 . S
H253 C228 0.950 . S
H254 C230 0.950 . S
H255 C231 0.949 . S
H256 C233 0.950 . S
H257 C235 0.950 . S
C258 C259 1.349 . S
C258 C260 1.327 . S
C258 H283 0.950 . S
C259 C258 1.349 . S
C259 C275 1.349 . S
C260 C258 1.327 . S
C260 C279 1.429 . S
C260 H284 0.950 . S
C261 C278 1.574 . S
C261 C280 1.368 . S
C261 H285 0.949 . S
H262 C266 0.949 . S
C263 C264 1.349 . S
C263 C265 1.327 . S
C263 H286 0.950 . S
C264 C263 1.349 . S
C264 C276 1.349 . S
C265 C263 1.327 . S
C265 C281 1.429 . S
C265 H287 0.950 . S
C266 H262 0.949 . S
C266 C274 1.574 . S
C266 C282 1.368 . S
H267 C275 0.950 . S
H268 C273 0.950 . S
H269 C274 0.949 . S
H270 C276 0.950 . S
H271 C277 0.950 . S
H272 C278 0.949 . S
C273 H268 0.950 . S
C273 C275 1.327 . S
C273 C279 1.429 . S
C274 C266 1.574 . S
C274 H269 0.949 . S
C274 C280 1.368 . S
C275 C259 1.349 . S
C275 H267 0.950 . S
C275 C273 1.327 . S
C276 C264 1.349 . S
C276 H270 0.950 . S
C276 C277 1.327 . S
C277 H271 0.950 . S
C277 C276 1.327 . S
C277 C281 1.429 . S
C278 C261 1.574 . S
C278 H272 0.949 . S
C278 C282 1.368 . S
C279 C260 1.429 . S
C279 C273 1.429 . S
C279 C280 1.523 . S
C280 C261 1.368 . S
C280 C274 1.368 . S
C280 C279 1.523 . S
C281 C265 1.429 . S
C281 C277 1.429 . S
C281 C282 1.523 . S
C282 C266 1.368 . S
C282 C278 1.368 . S
C282 C281 1.523 . S
H283 C258 0.950 . S
H284 C260 0.950 . S
H285 C261 0.949 . S
H286 C263 0.950 . S
H287 C265 0.950 . S
C288 C289 1.349 . S
C288 C290 1.327 . S
C288 H313 0.950 . S
C289 C288 1.349 . S
C289 C305 1.349 . S
C290 C288 1.327 . S
C290 C309 1.429 . S
C290 H314 0.950 . S
C291 C308 1.574 . S
C291 C310 1.368 . S
C291 H315 0.949 . S
H292 C296 0.949 . S
C293 C294 1.349 . S
C293 C295 1.327 . S
C293 H316 0.950 . S
C294 C293 1.349 . S
C294 C306 1.349 . S
C295 C293 1.327 . S
C295 C311 1.429 . S
C295 H317 0.950 . S
C296 H292 0.949 . S
C296 C304 1.574 . S
C296 C312 1.368 . S
H297 C305 0.950 . S
H298 C303 0.950 . S
H299 C304 0.949 . S
H300 C306 0.950 . S
H301 C307 0.950 . S
H302 C308 0.949 . S
C303 H298 0.950 . S
C303 C305 1.327 . S
C303 C309 1.429 . S
C304 C296 1.574 . S
C304 H299 0.949 . S
C304 C310 1.368 . S
C305 C289 1.349 . S
C305 H297 0.950 . S
C305 C303 1.327 . S
C306 C294 1.349 . S
C306 H300 0.950 . S
C306 C307 1.327 . S
C307 H301 0.950 . S
C307 C306 1.327 . S
C307 C311 1.429 . S
C308 C291 1.574 . S
C308 H302 0.949 . S
C308 C312 1.368 . S
C309 C290 1.429 . S
C309 C303 1.429 . S
C309 C310 1.523 . S
C310 C291 1.368 . S
C310 C304 1.368 . S
C310 C309 1.523 . S
C311 C295 1.429 . S
C311 C307 1.429 . S
C311 C312 1.523 . S
C312 C296 1.368 . S
C312 C308 1.368 . S
C312 C311 1.523 . S
H313 C288 0.950 . S
H314 C290 0.950 . S
H315 C291 0.949 . S
H316 C293 0.950 . S
H317 C295 0.950 . S
C318 C319 1.349 . S
C318 C320 1.327 . S
C318 H343 0.950 . S
C319 C318 1.349 . S
C319 C335 1.349 . S
C320 C318 1.327 . S
C320 C339 1.429 . S
C320 H344 0.950 . S
C321 C338 1.574 . S
C321 C340 1.368 . S
C321 H345 0.949 . S
H322 C326 0.949 . S
C323 C324 1.349 . S
C323 C325 1.327 . S
C323 H346 0.950 . S
C324 C323 1.349 . S
C324 C336 1.349 . S
C325 C323 1.327 . S
C325 C341 1.429 . S
C325 H347 0.950 . S
C326 H322 0.949 . S
C326 C334 1.574 . S
C326 C342 1.368 . S
H327 C335 0.950 . S
H328 C333 0.950 . S
H329 C334 0.949 . S
H330 C336 0.950 . S
H331 C337 0.950 . S
H332 C338 0.949 . S
C333 H328 0.950 . S
C333 C335 1.327 . S
C333 C339 1.429 . S
C334 C326 1.574 . S
C334 H329 0.949 . S
C334 C340 1.368 . S
C335 C319 1.349 . S
C335 H327 0.950 . S
C335 C333 1.327 . S
C336 C324 1.349 . S
C336 H330 0.950 . S
C336 C337 1.327 . S
C337 H331 0.950 . S
C337 C336 1.327 . S
C337 C341 1.429 . S
C338 C321 1.574 . S
C338 H332 0.949 . S
C338 C342 1.368 . S
C339 C320 1.429 . S
C339 C333 1.429 . S
C339 C340 1.523 . S
C340 C321 1.368 . S
C340 C334 1.368 . S
C340 C339 1.523 . S
C341 C325 1.429 . S
C341 C337 1.429 . S
C341 C342 1.523 . S
C342 C326 1.368 . S
C342 C338 1.368 . S
C342 C341 1.523 . S
H343 C318 0.950 . S
H344 C320 0.950 . S
H345 C321 0.949 . S
H346 C323 0.950 . S
H347 C325 0.950 . S
C348 C349 1.349 . S
C348 C350 1.327 . S
C348 H373 0.950 . S
C349 C348 1.349 . S
C349 C365 1.349 . S
C350 C348 1.327 . S
C350 C369 1.429 . S
C350 H374 0.950 . S
C351 C368 1.574 . S
C351 C370 1.368 . S
C351 H375 0.949 . S
H352 C356 0.949 . S
C353 C354 1.349 . S
C353 C355 1.327 . S
C353 H376 0.950 . S
C354 C353 1.349 . S
C354 C366 1.349 . S
C355 C353 1.327 . S
C355 C371 1.429 . S
C355 H377 0.950 . S
C356 H352 0.949 . S
C356 C364 1.574 . S
C356 C372 1.368 . S
H357 C365 0.950 . S
H358 C363 0.950 . S
H359 C364 0.949 . S
H360 C366 0.950 . S
H361 C367 0.950 . S
H362 C368 0.949 . S
C363 H358 0.950 . S
C363 C365 1.327 . S
C363 C369 1.429 . S
C364 C356 1.574 . S
C364 H359 0.949 . S
C364 C370 1.368 . S
C365 C349 1.349 . S
C365 H357 0.950 . S
C365 C363 1.327 . S
C366 C354 1.349 . S
C366 H360 0.950 . S
C366 C367 1.327 . S
C367 H361 0.950 . S
C367 C366 1.327 . S
C367 C371 1.429 . S
C368 C351 1.574 . S
C368 H362 0.949 . S
C368 C372 1.368 . S
C369 C350 1.429 . S
C369 C363 1.429 . S
C369 C370 1.523 . S
C370 C351 1.368 . S
C370 C364 1.368 . S
C370 C369 1.523 . S
C371 C355 1.429 . S
C371 C367 1.429 . S
C371 C372 1.523 . S
C372 C356 1.368 . S
C372 C368 1.368 . S
C372 C371 1.523 . S
H373 C348 0.950 . S
H374 C350 0.950 . S
H375 C351 0.949 . S
H376 C353 0.950 . S
H377 C355 0.950 . S
C378 C379 1.349 . S
C378 C380 1.327 . S
C378 H403 0.950 . S
C379 C378 1.349 . S
C379 C395 1.349 . S
C380 C378 1.327 . S
C380 C399 1.429 . S
C380 H404 0.950 . S
C381 C398 1.574 . S
C381 C400 1.368 . S
C381 H405 0.949 . S
H382 C386 0.949 . S
C383 C384 1.349 . S
C383 C385 1.327 . S
C383 H406 0.950 . S
C384 C383 1.349 . S
C384 C396 1.349 . S
C385 C383 1.327 . S
C385 C401 1.429 . S
C385 H407 0.950 . S
C386 H382 0.949 . S
C386 C394 1.574 . S
C386 C402 1.368 . S
H387 C395 0.950 . S
H388 C393 0.950 . S
H389 C394 0.949 . S
H390 C396 0.950 . S
H391 C397 0.950 . S
H392 C398 0.949 . S
C393 H388 0.950 . S
C393 C395 1.327 . S
C393 C399 1.429 . S
C394 C386 1.574 . S
C394 H389 0.949 . S
C394 C400 1.368 . S
C395 C379 1.349 . S
C395 H387 0.950 . S
C395 C393 1.327 . S
C396 C384 1.349 . S
C396 H390 0.950 . S
C396 C397 1.327 . S
C397 H391 0.950 . S
C397 C396 1.327 . S
C397 C401 1.429 . S
C398 C381 1.574 . S
C398 H392 0.949 . S
C398 C402 1.368 . S
C399 C380 1.429 . S
C399 C393 1.429 . S
C399 C400 1.523 . S
C400 C381 1.368 . S
C400 C394 1.368 . S
C400 C399 1.523 . S
C401 C385 1.429 . S
C401 C397 1.429 . S
C401 C402 1.523 . S
C402 C386 1.368 . S
C402 C398 1.368 . S
C402 C401 1.523 . S
H403 C378 0.950 . S
H404 C380 0.950 . S
H405 C381 0.949 . S
H406 C383 0.950 . S
H407 C385 0.950 . S
C408 C409 1.349 . S
C408 C410 1.327 . S
C408 H433 0.950 . S
C409 C408 1.349 . S
C409 C425 1.349 . S
C410 C408 1.327 . S
C410 C429 1.429 . S
C410 H434 0.950 . S
C411 C428 1.574 . S
C411 C430 1.368 . S
C411 H435 0.949 . S
H412 C416 0.949 . S
C413 C414 1.349 . S
C413 C415 1.327 . S
C413 H436 0.950 . S
C414 C413 1.349 . S
C414 C426 1.349 . S
C415 C413 1.327 . S
C415 C431 1.429 . S
C415 H437 0.950 . S
C416 H412 0.949 . S
C416 C424 1.574 . S
C416 C432 1.368 . S
H417 C425 0.950 . S
H418 C423 0.950 . S
H419 C424 0.949 . S
H420 C426 0.950 1_455 S
H421 C427 0.950 . S
H422 C428 0.949 . S
C423 H418 0.950 . S
C423 C425 1.327 . S
C423 C429 1.429 . S
C424 C416 1.574 . S
C424 H419 0.949 . S
C424 C430 1.368 . S
C425 C409 1.349 . S
C425 H417 0.950 . S
C425 C423 1.327 . S
C426 C414 1.349 . S
C426 H420 0.950 1_655 S
C426 C427 1.327 . S
C427 H421 0.950 . S
C427 C426 1.327 . S
C427 C431 1.429 . S
C428 C411 1.574 . S
C428 H422 0.949 . S
C428 C432 1.368 . S
C429 C410 1.429 . S
C429 C423 1.429 . S
C429 C430 1.523 . S
C430 C411 1.368 . S
C430 C424 1.368 . S
C430 C429 1.523 . S
C431 C415 1.429 . S
C431 C427 1.429 . S
C431 C432 1.523 . S
C432 C416 1.368 . S
C432 C428 1.368 . S
C432 C431 1.523 . S
H433 C408 0.950 . S
H434 C410 0.950 . S
H435 C411 0.949 . S
H436 C413 0.950 . S
H437 C415 0.950 . S
C438 C439 1.349 . S
C438 C440 1.327 . S
C438 H463 0.950 . S
C439 C438 1.349 . S
C439 C455 1.349 . S
C440 C438 1.327 . S
C440 C459 1.429 . S
C440 H464 0.950 . S
C441 C458 1.574 . S
C441 C460 1.368 . S
C441 H465 0.949 . S
H442 C446 0.949 . S
C443 C444 1.349 . S
C443 C445 1.327 . S
C443 H466 0.950 . S
C444 C443 1.349 . S
C444 C456 1.349 . S
C445 C443 1.327 . S
C445 C461 1.429 . S
C445 H467 0.950 . S
C446 H442 0.949 . S
C446 C454 1.574 . S
C446 C462 1.368 . S
H447 C455 0.950 . S
H448 C453 0.950 . S
H449 C454 0.949 . S
H450 C456 0.950 . S
H451 C457 0.950 . S
H452 C458 0.949 . S
C453 H448 0.950 . S
C453 C455 1.327 . S
C453 C459 1.429 . S
C454 C446 1.574 . S
C454 H449 0.949 . S
C454 C460 1.368 . S
C455 C439 1.349 . S
C455 H447 0.950 . S
C455 C453 1.327 . S
C456 C444 1.349 . S
C456 H450 0.950 . S
C456 C457 1.327 . S
C457 H451 0.950 . S
C457 C456 1.327 . S
C457 C461 1.429 . S
C458 C441 1.574 . S
C458 H452 0.949 . S
C458 C462 1.368 . S
C459 C440 1.429 . S
C459 C453 1.429 . S
C459 C460 1.523 . S
C460 C441 1.368 . S
C460 C454 1.368 . S
C460 C459 1.523 . S
C461 C445 1.429 . S
C461 C457 1.429 . S
C461 C462 1.523 . S
C462 C446 1.368 . S
C462 C458 1.368 . S
C462 C461 1.523 . S
H463 C438 0.950 . S
H464 C440 0.950 . S
H465 C441 0.949 . S
H466 C443 0.950 . S
H467 C445 0.950 . S
C468 C469 1.349 . S
C468 C470 1.327 . S
C468 H493 0.950 . S
C469 C468 1.349 . S
C469 C485 1.349 . S
C470 C468 1.327 . S
C470 C489 1.429 . S
C470 H494 0.950 . S
C471 C488 1.574 . S
C471 C490 1.368 . S
C471 H495 0.949 . S
H472 C476 0.949 . S
C473 C474 1.349 . S
C473 C475 1.327 . S
C473 H496 0.950 . S
C474 C473 1.349 . S
C474 C486 1.349 . S
C475 C473 1.327 . S
C475 C491 1.429 . S
C475 H497 0.950 . S
C476 H472 0.949 . S
C476 C484 1.574 . S
C476 C492 1.368 . S
H477 C485 0.950 . S
H478 C483 0.950 . S
H479 C484 0.949 . S
H480 C486 0.950 . S
H481 C487 0.950 . S
H482 C488 0.949 . S
C483 H478 0.950 . S
C483 C485 1.327 . S
C483 C489 1.429 . S
C484 C476 1.574 . S
C484 H479 0.949 . S
C484 C490 1.368 . S
C485 C469 1.349 . S
C485 H477 0.950 . S
C485 C483 1.327 . S
C486 C474 1.349 . S
C486 H480 0.950 . S
C486 C487 1.327 . S
C487 H481 0.950 . S
C487 C486 1.327 . S
C487 C491 1.429 . S
C488 C471 1.574 . S
C488 H482 0.949 . S
C488 C492 1.368 . S
C489 C470 1.429 . S
C489 C483 1.429 . S
C489 C490 1.523 . S
C490 C471 1.368 . S
C490 C484 1.368 . S
C490 C489 1.523 . S
C491 C475 1.429 . S
C491 C487 1.429 . S
C491 C492 1.523 . S
C492 C476 1.368 . S
C492 C488 1.368 . S
C492 C491 1.523 . S
H493 C468 0.950 . S
H494 C470 0.950 . S
H495 C471 0.949 . S
H496 C473 0.950 . S
H497 C475 0.950 . S
C498 C499 1.349 . S
C498 C500 1.327 . S
C498 H523 0.950 . S
C499 C498 1.349 . S
C499 C515 1.349 . S
C500 C498 1.327 . S
C500 C519 1.429 . S
C500 H524 0.950 . S
C501 C518 1.574 . S
C501 C520 1.368 . S
C501 H525 0.949 . S
H502 C506 0.949 . S
C503 C504 1.349 . S
C503 C505 1.327 . S
C503 H526 0.950 . S
C504 C503 1.349 . S
C504 C516 1.349 . S
C505 C503 1.327 . S
C505 C521 1.429 . S
C505 H527 0.950 . S
C506 H502 0.949 . S
C506 C514 1.574 . S
C506 C522 1.368 . S
H507 C515 0.950 . S
H508 C513 0.950 . S
H509 C514 0.949 . S
H510 C516 0.950 . S
H511 C517 0.950 . S
H512 C518 0.949 . S
C513 H508 0.950 . S
C513 C515 1.327 . S
C513 C519 1.429 . S
C514 C506 1.574 . S
C514 H509 0.949 . S
C514 C520 1.368 . S
C515 C499 1.349 . S
C515 H507 0.950 . S
C515 C513 1.327 . S
C516 C504 1.349 . S
C516 H510 0.950 . S
C516 C517 1.327 . S
C517 H511 0.950 . S
C517 C516 1.327 . S
C517 C521 1.429 . S
C518 C501 1.574 . S
C518 H512 0.949 . S
C518 C522 1.368 . S
C519 C500 1.429 . S
C519 C513 1.429 . S
C519 C520 1.523 . S
C520 C501 1.368 . S
C520 C514 1.368 . S
C520 C519 1.523 . S
C521 C505 1.429 . S
C521 C517 1.429 . S
C521 C522 1.523 . S
C522 C506 1.368 . S
C522 C518 1.368 . S
C522 C521 1.523 . S
H523 C498 0.950 . S
H524 C500 0.950 . S
H525 C501 0.949 . S
H526 C503 0.950 . S
H527 C505 0.950 . S
C528 C529 1.349 . S
C528 C530 1.327 . S
C528 H553 0.950 . S
C529 C528 1.349 . S
C529 C545 1.349 . S
C530 C528 1.327 . S
C530 C549 1.429 . S
C530 H554 0.950 . S
C531 C548 1.574 . S
C531 C550 1.368 . S
C531 H555 0.949 . S
H532 C536 0.949 . S
C533 C534 1.349 . S
C533 C535 1.327 . S
C533 H556 0.950 . S
C534 C533 1.349 . S
C534 C546 1.349 . S
C535 C533 1.327 . S
C535 C551 1.429 . S
C535 H557 0.950 . S
C536 H532 0.949 . S
C536 C544 1.574 . S
C536 C552 1.368 . S
H537 C545 0.950 . S
H538 C543 0.950 . S
H539 C544 0.949 . S
H540 C546 0.950 . S
H541 C547 0.950 . S
H542 C548 0.949 . S
C543 H538 0.950 . S
C543 C545 1.327 . S
C543 C549 1.429 . S
C544 C536 1.574 . S
C544 H539 0.949 . S
C544 C550 1.368 . S
C545 C529 1.349 . S
C545 H537 0.950 . S
C545 C543 1.327 . S
C546 C534 1.349 . S
C546 H540 0.950 . S
C546 C547 1.327 . S
C547 H541 0.950 . S
C547 C546 1.327 . S
C547 C551 1.429 . S
C548 C531 1.574 . S
C548 H542 0.949 . S
C548 C552 1.368 . S
C549 C530 1.429 . S
C549 C543 1.429 . S
C549 C550 1.523 . S
C550 C531 1.368 . S
C550 C544 1.368 . S
C550 C549 1.523 . S
C551 C535 1.429 . S
C551 C547 1.429 . S
C551 C552 1.523 . S
C552 C536 1.368 . S
C552 C548 1.368 . S
C552 C551 1.523 . S
H553 C528 0.950 . S
H554 C530 0.950 . S
H555 C531 0.949 . S
H556 C533 0.950 . S
H557 C535 0.950 . S
C558 C559 1.349 . S
C558 C560 1.327 . S
C558 H583 0.950 . S
C559 C558 1.349 . S
C559 C575 1.349 1_455 S
C560 C558 1.327 . S
C560 C579 1.429 . S
C560 H584 0.950 . S
C561 C578 1.531 1_554 S
C561 C580 1.384 . S
C561 H585 0.931 1_455 S
H562 C566 0.958 . S
C563 C564 1.349 . S
C563 C565 1.327 . S
C563 H586 0.950 . S
C564 C563 1.349 . S
C564 C576 1.349 . S
C565 C563 1.327 . S
C565 C581 1.429 . S
C565 H587 0.950 1_455 S
C566 H562 0.958 . S
C566 C574 1.574 . S
C566 C582 1.368 1_554 S
H567 C575 0.950 . S
H568 C573 0.950 . S
H569 C574 0.949 . S
H570 C576 0.950 . S
H571 C577 0.950 . S
H572 C578 0.984 1_655 S
C573 H568 0.950 . S
C573 C575 1.327 . S
C573 C579 1.429 1_655 S
C574 C566 1.574 . S
C574 H569 0.949 . S
C574 C580 1.368 . S
C575 C559 1.349 1_655 S
C575 H567 0.950 . S
C575 C573 1.327 . S
C576 C564 1.349 . S
C576 H570 0.950 . S
C576 C577 1.327 . S
C577 H571 0.950 . S
C577 C576 1.327 . S
C577 C581 1.429 . S
C578 C561 1.531 1_556 S
C578 H572 0.984 1_455 S
C578 C582 1.380 . S
C579 C560 1.429 . S
C579 C573 1.429 1_455 S
C579 C580 1.523 . S
C580 C561 1.384 . S
C580 C574 1.368 . S
C580 C579 1.523 . S
C581 C565 1.429 . S
C581 C577 1.429 . S
C581 C582 1.523 . S
C582 C566 1.368 1_556 S
C582 C578 1.380 . S
C582 C581 1.523 . S
H583 C558 0.950 . S
H584 C560 0.950 . S
H585 C561 0.931 1_655 S
H586 C563 0.950 . S
H587 C565 0.950 1_655 S
C588 C589 1.349 1_565 S
C588 C590 1.327 . S
C588 H613 0.950 . S
C589 C588 1.349 1_545 S
C589 C605 1.349 . S
C590 C588 1.327 . S
C590 C609 1.429 1_565 S
C590 H614 0.950 . S
C591 C608 1.574 . S
C591 C610 1.368 . S
C591 H615 0.949 . S
H592 C596 0.949 . S
C593 C594 1.349 . S
C593 C595 1.327 . S
C593 H616 0.950 . S
C594 C593 1.349 . S
C594 C606 1.349 1_545 S
C595 C593 1.327 . S
C595 C611 1.429 . S
C595 H617 0.950 . S
C596 H592 0.949 . S
C596 C604 1.574 . S
C596 C612 1.368 1_565 S
H597 C605 0.950 . S
H598 C603 0.950 . S
H599 C604 0.949 . S
H600 C606 0.950 . S
H601 C607 0.950 . S
H602 C608 0.949 . S
C603 H598 0.950 . S
C603 C605 1.327 . S
C603 C609 1.429 . S
C604 C596 1.574 . S
C604 H599 0.949 . S
C604 C610 1.368 1_565 S
C605 C589 1.349 . S
C605 H597 0.950 . S
C605 C603 1.327 . S
C606 C594 1.349 1_565 S
C606 H600 0.950 . S
C606 C607 1.327 . S
C607 H601 0.950 . S
C607 C606 1.327 . S
C607 C611 1.429 1_565 S
C608 C591 1.574 . S
C608 H602 0.949 . S
C608 C612 1.368 . S
C609 C590 1.429 1_545 S
C609 C603 1.429 . S
C609 C610 1.523 . S
C610 C591 1.368 . S
C610 C604 1.368 1_545 S
C610 C609 1.523 . S
C611 C595 1.429 . S
C611 C607 1.429 1_545 S
C611 C612 1.523 . S
C612 C596 1.368 1_545 S
C612 C608 1.368 . S
C612 C611 1.523 . S
H613 C588 0.950 . S
H614 C590 0.950 . S
H615 C591 0.949 . S
H616 C593 0.950 . S
H617 C595 0.950 . S
C618 C619 1.349 . S
C618 C620 1.327 . S
C618 H643 0.950 . S
C619 C618 1.349 . S
C619 C635 1.349 . S
C620 C618 1.327 . S
C620 C639 1.429 . S
C620 H644 0.950 . S
C621 C638 1.574 . S
C621 C640 1.368 . S
C621 H645 0.949 . S
H622 C626 0.949 . S
C623 C624 1.349 . S
C623 C625 1.327 . S
C623 H646 0.950 . S
C624 C623 1.349 . S
C624 C636 1.349 . S
C625 C623 1.327 . S
C625 C641 1.429 . S
C625 H647 0.950 . S
C626 H622 0.949 . S
C626 C634 1.574 . S
C626 C642 1.368 . S
H627 C635 0.950 . S
H628 C633 0.950 . S
H629 C634 0.949 . S
H630 C636 0.950 . S
H631 C637 0.950 . S
H632 C638 0.949 . S
C633 H628 0.950 . S
C633 C635 1.327 . S
C633 C639 1.429 . S
C634 C626 1.574 . S
C634 H629 0.949 . S
C634 C640 1.368 . S
C635 C619 1.349 . S
C635 H627 0.950 . S
C635 C633 1.327 . S
C636 C624 1.349 . S
C636 H630 0.950 . S
C636 C637 1.327 . S
C637 H631 0.950 . S
C637 C636 1.327 . S
C637 C641 1.429 . S
C638 C621 1.574 . S
C638 H632 0.949 . S
C638 C642 1.368 . S
C639 C620 1.429 . S
C639 C633 1.429 . S
C639 C640 1.523 . S
C640 C621 1.368 . S
C640 C634 1.368 . S
C640 C639 1.523 . S
C641 C625 1.429 . S
C641 C637 1.429 . S
C641 C642 1.523 . S
C642 C626 1.368 . S
C642 C638 1.368 . S
C642 C641 1.523 . S
H643 C618 0.950 . S
H644 C620 0.950 . S
H645 C621 0.949 . S
H646 C623 0.950 . S
H647 C625 0.950 . S
C648 C649 1.349 . S
C648 C650 1.327 . S
C648 H673 0.950 . S
C649 C648 1.349 . S
C649 C665 1.349 1_545 S
C650 C648 1.327 . S
C650 C669 1.429 . S
C650 H674 0.950 . S
C651 C668 1.574 . S
C651 C670 1.368 1_565 S
C651 H675 0.949 . S
H652 C656 0.949 . S
C653 C654 1.349 1_565 S
C653 C655 1.327 . S
C653 H676 0.950 . S
C654 C653 1.349 1_545 S
C654 C666 1.349 . S
C655 C653 1.327 . S
C655 C671 1.429 1_565 S
C655 H677 0.950 . S
C656 H652 0.949 . S
C656 C664 1.574 . S
C656 C672 1.368 . S
H657 C665 0.950 . S
H658 C663 0.950 . S
H659 C664 0.949 . S
H660 C666 0.950 . S
H661 C667 0.950 . S
H662 C668 0.949 . S
C663 H658 0.950 . S
C663 C665 1.327 . S
C663 C669 1.429 1_565 S
C664 C656 1.574 . S
C664 H659 0.949 . S
C664 C670 1.368 . S
C665 C649 1.349 1_565 S
C665 H657 0.950 . S
C665 C663 1.327 . S
C666 C654 1.349 . S
C666 H660 0.950 . S
C666 C667 1.327 . S
C667 H661 0.950 . S
C667 C666 1.327 . S
C667 C671 1.429 . S
C668 C651 1.574 . S
C668 H662 0.949 . S
C668 C672 1.368 1_565 S
C669 C650 1.429 . S
C669 C663 1.429 1_545 S
C669 C670 1.523 . S
C670 C651 1.368 1_545 S
C670 C664 1.368 . S
C670 C669 1.523 . S
C671 C655 1.429 1_545 S
C671 C667 1.429 . S
C671 C672 1.523 . S
C672 C656 1.368 . S
C672 C668 1.368 1_545 S
C672 C671 1.523 . S
H673 C648 0.950 . S
H674 C650 0.950 . S
H675 C651 0.949 . S
H676 C653 0.950 . S
H677 C655 0.950 . S
C678 C679 1.349 . S
C678 C680 1.327 . S
C678 H703 0.950 . S
C679 C678 1.349 . S
C679 C695 1.349 . S
C680 C678 1.327 . S
C680 C699 1.429 . S
C680 H704 0.950 . S
C681 C698 1.574 . S
C681 C700 1.368 . S
C681 H705 0.949 . S
H682 C686 0.949 1_554 S
C683 C684 1.349 . S
C683 C685 1.327 . S
C683 H706 0.950 . S
C684 C683 1.349 . S
C684 C696 1.349 . S
C685 C683 1.327 . S
C685 C701 1.429 . S
C685 H707 0.950 . S
C686 H682 0.949 1_556 S
C686 C694 1.574 . S
C686 C702 1.368 1_556 S
H687 C695 0.950 . S
H688 C693 0.950 . S
H689 C694 0.949 . S
H690 C696 0.950 . S
H691 C697 0.950 . S
H692 C698 0.949 1_554 S
C693 H688 0.950 . S
C693 C695 1.327 . S
C693 C699 1.429 . S
C694 C686 1.574 . S
C694 H689 0.949 . S
C694 C700 1.368 . S
C695 C679 1.349 . S
C695 H687 0.950 . S
C695 C693 1.327 . S
C696 C684 1.349 . S
C696 H690 0.950 . S
C696 C697 1.327 . S
C697 H691 0.950 . S
C697 C696 1.327 . S
C697 C701 1.429 . S
C698 C681 1.574 . S
C698 H692 0.949 1_556 S
C698 C702 1.368 1_556 S
C699 C680 1.429 . S
C699 C693 1.429 . S
C699 C700 1.523 . S
C700 C681 1.368 . S
C700 C694 1.368 . S
C700 C699 1.523 . S
C701 C685 1.429 . S
C701 C697 1.429 . S
C701 C702 1.523 . S
C702 C686 1.368 1_554 S
C702 C698 1.368 1_554 S
C702 C701 1.523 . S
H703 C678 0.950 . S
H704 C680 0.950 . S
H705 C681 0.949 . S
H706 C683 0.950 . S
H707 C685 0.950 . S
C708 C709 1.349 . S
C708 C710 1.327 1_655 S
C708 H733 0.950 . S
C709 C708 1.349 . S
C709 C725 1.349 1_655 S
C710 C708 1.327 1_455 S
C710 C729 1.429 . S
C710 H734 0.950 . S
C711 C728 1.574 . S
C711 C730 1.368 . S
C711 H735 0.949 . S
H712 C716 0.949 . S
C713 C714 1.349 . S
C713 C715 1.327 . S
C713 H736 0.950 . S
C714 C713 1.349 . S
C714 C726 1.349 . S
C715 C713 1.327 . S
C715 C731 1.429 . S
C715 H737 0.950 . S
C716 H712 0.949 . S
C716 C724 1.574 . S
C716 C732 1.368 . S
H717 C725 0.950 . S
H718 C723 0.950 . S
H719 C724 0.949 . S
H720 C726 0.950 . S
H721 C727 0.950 . S
H722 C728 0.949 . S
C723 H718 0.950 . S
C723 C725 1.327 . S
C723 C729 1.429 . S
C724 C716 1.574 . S
C724 H719 0.949 . S
C724 C730 1.368 . S
C725 C709 1.349 1_455 S
C725 H717 0.950 . S
C725 C723 1.327 . S
C726 C714 1.349 . S
C726 H720 0.950 . S
C726 C727 1.327 . S
C727 H721 0.950 . S
C727 C726 1.327 . S
C727 C731 1.429 . S
C728 C711 1.574 . S
C728 H722 0.949 . S
C728 C732 1.368 . S
C729 C710 1.429 . S
C729 C723 1.429 . S
C729 C730 1.523 . S
C730 C711 1.368 . S
C730 C724 1.368 . S
C730 C729 1.523 . S
C731 C715 1.429 . S
C731 C727 1.429 . S
C731 C732 1.523 . S
C732 C716 1.368 . S
C732 C728 1.368 . S
C732 C731 1.523 . S
H733 C708 0.950 . S
H734 C710 0.950 . S
H735 C711 0.949 . S
H736 C713 0.950 . S
H737 C715 0.950 . S
C199 C7 0.491 . S
C204 C189 0.558 . S
C229 C51 1.795 . S
C234 C167 1.770 . S
C259 C87 1.106 . S
C264 C180 1.101 . S
C289 C16 0.295 . S
C294 C193 0.187 . S
C324 C163 1.876 . S
C319 C42 2.015 . S
C354 C176 1.247 . S
C349 C96 1.319 . S
C379 C47 1.053 . S
C384 C141 1.045 . S
C409 C91 2.999 . S
C414 C154 2.963 1_655 S
C439 C2 2.014 . S
C444 C124 1.878 . S
C474 C137 1.271 . S
C469 C56 1.334 . S
C504 C150 2.867 . S
C499 C82 3.030 . S
C529 C11 1.800 . S
C534 C128 1.784 . S
C564 C155 1.735 . S
C559 C19 1.696 . S
C589 C50 1.471 . S
C594 C129 1.501 . S
C619 C99 1.526 . S
C624 C142 1.608 . S
C654 C181 1.549 . S
C649 C59 1.483 . S
C684 C194 1.353 . S
C679 C90 1.339 . S
C709 C10 1.447 1_655 S
C714 C168 1.493 . S
