# Generated by pormake.
# Topology ftw, (4,12)-cn, num edge types: 1
# Building blocks:
#     Node 0, Type 0, BuildingBlock: MUDLON_clean_linker_0, # of connection points: 4
#     Node 1, Type 0, BuildingBlock: MUDLON_clean_linker_0, # of connection points: 4
#     Node 2, Type 0, BuildingBlock: MUDLON_clean_linker_0, # of connection points: 4
#     Node 3, Type 1, BuildingBlock: QEWDON_clean_sbu_0, # of connection points: 12
#     Edge 4, Type (0, 1), BuildingBlock: MIFKUJ_clean_linker_0, # of connection points: 2
#     Edge 5, Type (0, 1), BuildingBlock: MIFKUJ_clean_linker_0, # of connection points: 2
#     Edge 6, Type (0, 1), BuildingBlock: MIFKUJ_clean_linker_0, # of connection points: 2
#     Edge 7, Type (0, 1), BuildingBlock: MIFKUJ_clean_linker_0, # of connection points: 2
#     Edge 8, Type (0, 1), BuildingBlock: MIFKUJ_clean_linker_0, # of connection points: 2
#     Edge 9, Type (0, 1), BuildingBlock: MIFKUJ_clean_linker_0, # of connection points: 2
#     Edge 10, Type (0, 1), BuildingBlock: MIFKUJ_clean_linker_0, # of connection points: 2
#     Edge 11, Type (0, 1), BuildingBlock: MIFKUJ_clean_linker_0, # of connection points: 2
#     Edge 12, Type (0, 1), BuildingBlock: MIFKUJ_clean_linker_0, # of connection points: 2
#     Edge 13, Type (0, 1), BuildingBlock: MIFKUJ_clean_linker_0, # of connection points: 2
#     Edge 14, Type (0, 1), BuildingBlock: MIFKUJ_clean_linker_0, # of connection points: 2
#     Edge 15, Type (0, 1), BuildingBlock: MIFKUJ_clean_linker_0, # of connection points: 2
# Relax obj value: 0.098
# Max RMSD: 0.254
# Mean RMSD: 0.184
data_MOF--net-ftw--node1-QEWDON_clean_sbu_0--node2-MUDLON_clean_linker_0--edge1-MIFKUJ_clean_linker_0
_symmetry_space_group_name_H-M    P1
_symmetry_Int_Tables_number       1
_symmetry_cell_setting            triclinic
loop_
_symmetry_equiv_pos_as_xyz
'x, y, z'
_cell_length_a     35.083769
_cell_length_b     40.036979
_cell_length_c     38.303581
_cell_angle_alpha  89.813464
_cell_angle_beta   90.080302
_cell_angle_gamma 90.236216
loop_
_atom_site_label
_atom_site_type_symbol
_atom_site_fract_x
_atom_site_fract_y
_atom_site_fract_z
_atom_type_partial_charge
H0 H 0.97381 0.6521 0.53011 0.0
N1 N 0.03657 0.61641 0.51098 0.0
H2 H 0.96662 0.6849 0.58372 0.0
H3 H 0.08336 0.61767 0.56568 0.0
H4 H 0.07611 0.64975 0.61966 0.0
H5 H 0.09462 0.65091 0.48444 0.0
H6 H 0.09397 0.68895 0.43428 0.0
H7 H 0.9756 0.6292 0.46845 0.0
H8 H 0.97433 0.66751 0.4186 0.0
H9 H 0.96758 0.58471 0.50871 0.0
H10 H 0.08866 0.56851 0.50803 0.0
H11 H 0.9565 0.52465 0.50317 0.0
H12 H 0.07837 0.50825 0.50508 0.0
H13 H 0.94654 0.31823 0.52081 0.0
H14 H 0.95281 0.2861 0.5745 0.0
H15 H 0.05167 0.34531 0.60267 0.0
H16 H 0.04686 0.37513 0.54719 0.0
H17 H 0.05033 0.32796 0.48008 0.0
H18 H 0.05401 0.29183 0.42881 0.0
H19 H 0.94758 0.3328 0.39118 0.0
H20 H 0.9433 0.367 0.44365 0.0
H21 H 0.94623 0.41381 0.52721 0.0
H22 H 0.95695 0.47392 0.53087 0.0
H23 H 0.06154 0.46272 0.47232 0.0
N24 N -0.00939 0.36795 0.49805 0.0
H25 H 0.05148 0.40227 0.47111 0.0
C26 C 0.02934 0.6326 0.54386 0.0
C27 C -0.00391 0.65127 0.54963 0.0
C28 C -0.00791 0.67009 0.58022 0.0
C29 C 0.02086 0.67001 0.60588 0.0
C30 C 0.0533 0.65015 0.60057 0.0
C31 C 0.05753 0.63183 0.56979 0.0
C32 C 0.03543 0.63691 0.47995 0.0
C33 C 0.06843 0.65421 0.46986 0.0
C34 C 0.06784 0.67619 0.44141 0.0
C35 C 0.03405 0.68146 0.42234 0.0
C36 C 0.00098 0.66378 0.43234 0.0
C37 C 0.00163 0.64181 0.46092 0.0
C38 C 0.02902 0.58107 0.50817 0.0
C39 C -0.0082 0.56814 0.50728 0.0
C40 C -0.01439 0.53355 0.50464 0.0
C41 C 0.0165 0.51099 0.50358 0.0
C42 C 0.05371 0.52438 0.50494 0.0
C43 C 0.05977 0.55892 0.50697 0.0
C44 C -0.00422 0.34935 0.53012 0.0
C45 C 0.9697 0.32402 0.53855 0.0
C46 C 0.97316 0.30594 0.56963 0.0
C47 C 0.00237 0.31326 0.59378 0.0
C48 C 0.02896 0.33846 0.58492 0.0
C49 C 0.02603 0.35596 0.55324 0.0
C50 C -0.00371 0.35 0.46577 0.0
C51 C 0.02798 0.32922 0.4606 0.0
C52 C 0.03007 0.30865 0.43104 0.0
C53 C 0.00083 0.3088 0.40565 0.0
C54 C 0.97017 0.33101 0.41036 0.0
C55 C 0.96786 0.35107 0.44013 0.0
C56 C -0.00226 0.40357 0.49866 0.0
C57 C 0.97146 0.42446 0.51522 0.0
C58 C 0.97756 0.459 0.51696 0.0
C59 C 0.01005 0.47381 0.50166 0.0
C60 C 0.03643 0.4526 0.48494 0.0
C61 C 0.03057 0.41788 0.48381 0.0
H62 H 0.49097 0.96021 0.34432 0.0
N63 N 0.50033 0.01887 0.38002 0.0
H64 H 0.43549 0.94385 0.30945 0.0
H65 H 0.43522 0.05181 0.37264 0.0
H66 H 0.37976 0.03603 0.33746 0.0
H67 H 0.52328 0.07319 0.34614 0.0
H68 H 0.58103 0.08056 0.31121 0.0
H69 H 0.55496 0.97166 0.36883 0.0
H70 H 0.61241 0.97824 0.33299 0.0
H71 H 0.47458 0.96106 0.412 0.0
H72 H 0.53651 0.05275 0.4297 0.0
H73 H 0.47919 0.94741 0.47344 0.0
H74 H 0.54445 0.03784 0.49091 0.0
H75 H 0.49451 0.91163 0.67897 0.0
H76 H 0.43732 0.91247 0.71523 0.0
H77 H 0.40389 0.00561 0.66675 0.0
H78 H 0.46195 0.00558 0.63266 0.0
H79 H 0.52572 0.01195 0.67778 0.0
H80 H 0.57968 0.02359 0.71677 0.0
H81 H 0.64064 0.94022 0.67311 0.0
H82 H 0.58599 0.92783 0.63513 0.0
H83 H 0.51643 0.91592 0.58097 0.0
H84 H 0.51525 0.92923 0.51882 0.0
H85 H 0.51589 0.03464 0.54397 0.0
N86 N 0.5186 0.95793 0.6343 0.0
H87 H 0.52073 0.02059 0.60579 0.0
C88 C 0.46725 0.00745 0.36091 0.0
C89 C 0.46677 0.97682 0.34301 0.0
C90 C 0.43503 0.96755 0.32299 0.0
C91 C 0.40312 0.98866 0.32047 0.0
C92 C 0.40352 0.01892 0.3391 0.0
C93 C 0.43524 0.02812 0.35908 0.0
C94 C 0.53481 0.02197 0.35981 0.0
C95 C 0.54275 0.05245 0.34333 0.0
C96 C 0.57564 0.05648 0.32322 0.0
C97 C 0.60138 0.02994 0.31901 0.0
C98 C 0.59348 -0.00066 0.33589 0.0
C99 C 0.5605 0.99539 0.35614 0.0
C100 C 0.50486 0.00836 0.41598 0.0
C101 C 0.48967 0.97818 0.42889 0.0
C102 C 0.49278 0.97013 0.46437 0.0
C103 C 0.51215 0.99147 0.48774 0.0
C104 C 0.5284 0.02106 0.47433 0.0
C105 C 0.52436 0.0295 0.4391 0.0
C106 C 0.48269 0.95821 0.65282 0.0
C107 C 0.47462 0.93207 0.6761 0.0
C108 C 0.4417 0.93254 0.69664 0.0
C109 C 0.41569 0.95914 0.69412 0.0
C110 C 0.42343 0.98498 0.67005 0.0
C111 C 0.45669 0.98476 0.64998 0.0
C112 C 0.55161 0.9685 0.65398 0.0
C113 C 0.55071 0.99626 0.67643 0.0
C114 C 0.58152 0.00292 0.69868 0.0
C115 C 0.61412 0.98264 0.69804 0.0
C116 C 0.61588 0.95627 0.67403 0.0
C117 C 0.58477 0.94916 0.65241 0.0
C118 C 0.51802 0.96715 0.5979 0.0
C119 C 0.51656 0.94185 0.57284 0.0
C120 C 0.51545 0.94964 0.53726 0.0
C121 C 0.51495 0.98314 0.52584 0.0
C122 C 0.51679 0.00854 0.55129 0.0
C123 C 0.51897 0.00062 0.58687 0.0
H124 H 0.43454 0.34706 0.15233 0.0
N125 N 0.48557 0.38477 0.11978 0.0
H126 H 0.37129 0.33072 0.13162 0.0
H127 H 0.4514 0.40591 0.05908 0.0
H128 H 0.3878 0.39035 0.03852 0.0
H129 H 0.49872 0.35951 0.0543 0.0
H130 H 0.54474 0.31685 0.03895 0.0
H131 H 0.53525 0.35491 0.16178 0.0
H132 H 0.58251 0.31248 0.14631 0.0
H133 H 0.45999 0.43474 0.15808 0.0
H134 H 0.53536 0.41343 0.072 0.0
H135 H 0.47088 0.49432 0.14944 0.0
H136 H 0.54853 0.47229 0.06501 0.0
H137 H 0.50587 0.68404 0.11425 0.0
H138 H 0.45294 0.71995 0.09675 0.0
H139 H 0.42457 0.65124 1.01383 0.0
H140 H 0.4777 0.61591 0.03101 0.0
H141 H 0.54054 0.64356 1.01395 0.0
H142 H 0.59949 0.6647 0.98781 0.0
H143 H 0.65653 0.65524 0.08717 0.0
H144 H 0.59693 0.63553 0.11384 0.0
H145 H 0.51998 0.59833 0.14423 0.0
H146 H 0.51354 0.53841 0.15499 0.0
H147 H 0.52045 0.52057 0.04373 0.0
N148 N 0.5295 0.62887 0.08355 0.0
H149 H 0.52998 0.58009 0.03386 0.0
C150 C 0.44757 0.37762 0.10747 0.0
C151 C 0.42425 0.35685 0.12768 0.0
C152 C 0.38807 0.34785 0.11591 0.0
C153 C 0.37445 0.35961 0.08359 0.0
C154 C 0.39759 0.38092 0.06349 0.0
C155 C 0.43387 0.38988 0.0753 0.0
C156 C 0.5133 0.36021 0.10947 0.0
C157 C 0.51657 0.3493 0.07468 0.0
C158 C 0.54324 0.3251 0.06582 0.0
C159 C 0.56719 0.3113 0.09144 0.0
C160 C 0.56407 0.32237 0.12611 0.0
C161 C 0.53736 0.34666 0.13496 0.0
C162 C 0.49668 0.41936 0.11602 0.0
C163 C 0.47956 0.44287 0.1379 0.0
C164 C 0.48604 0.47692 0.133 0.0
C165 C 0.51056 0.48823 0.10642 0.0
C166 C 0.52881 0.46459 0.08523 0.0
C167 C 0.5216 0.43057 0.0896 0.0
C168 C 0.49584 0.64734 0.0742 0.0
C169 C 0.48786 0.67658 0.09263 0.0
C170 C 0.45757 0.69691 0.08267 0.0
C171 C 0.43463 0.68833 0.05392 0.0
C172 C 0.44199 0.65857 0.0359 0.0
C173 C 0.47229 0.63818 0.04596 0.0
C174 C 0.56416 0.63877 0.06626 0.0
C175 C 0.56552 0.64608 0.03026 0.0
C176 C 0.59923 0.65789 0.0152 0.0
C177 C 0.63219 0.66138 0.0356 0.0
C178 C 0.63135 0.65243 0.071 0.0
C179 C 0.59749 0.64142 0.08622 0.0
C180 C 0.52476 0.59355 0.0884 0.0
C181 C 0.52015 0.58128 0.12233 0.0
C182 C 0.51622 0.5471 0.12831 0.0
C183 C 0.51618 0.52454 0.10022 0.0
C184 C 0.52091 0.53704 0.06609 0.0
C185 C 0.5257 0.57118 0.06027 0.0
Zn186 Zn 0.06318 0.06075 0.97482 0.0
Zn187 Zn 0.05437 0.05894 0.05974 0.0
O188 O 0.041 0.03421 0.01534 0.0
H189 H 0.04126 0.0103 1.01249 0.0
C190 C -0.00539 0.12868 0.91891 0.0
O191 O 0.01798 0.13474 0.94498 0.0
Zn192 Zn 0.9661 0.93855 0.07773 0.0
Zn193 Zn 0.97065 0.94942 0.99499 0.0
O194 O -0.00851 0.96711 0.04198 0.0
H195 H -0.00274 0.99005 0.04742 0.0
Zn196 Zn 0.94387 0.08859 0.97033 0.0
O197 O 0.97258 0.06692 1.0116 0.0
Zn198 Zn 0.93382 0.0598 0.05031 0.0
H199 H 0.96219 0.07704 0.99076 0.0
Zn200 Zn 0.05867 0.91222 0.9744 0.0
O201 O 0.03161 0.91404 0.0219 0.0
H202 H 0.01206 0.89817 0.02831 0.0
Zn203 Zn 0.07033 0.92959 0.057 0.0
C204 C 0.04104 0.89014 0.90285 0.0
O205 O 0.05112 0.92121 0.89648 0.0
O206 O 0.08741 0.10485 0.9902 0.0
O207 O 0.08749 0.09893 0.04799 0.0
O208 O 0.9464 0.90271 0.99829 0.0
O209 O 0.93556 0.90125 0.05538 0.0
O210 O 0.88793 0.09886 0.98097 0.0
O211 O 0.88189 0.07645 0.03388 0.0
C212 C 0.08843 0.99663 0.08911 0.0
O213 O 0.11674 0.91134 0.98087 0.0
O214 O 0.12212 0.91653 0.03853 0.0
O215 O 0.93774 0.97748 0.96008 0.0
C216 C 0.09664 0.1151 0.02047 0.0
O217 O 0.09598 0.03762 0.93659 0.0
C218 C 0.91995 0.99773 0.09586 0.0
O219 O 0.96549 0.1102 0.92398 0.0
C220 C 0.93163 0.88884 0.02497 0.0
O221 O 0.04004 0.88004 0.9344 0.0
C222 C 0.98156 0.09203 0.10328 0.0
O223 O 0.08447 0.02819 0.09108 0.0
O224 O 0.07043 0.98009 0.06579 0.0
C225 C 0.86778 0.09161 1.00755 0.0
O226 O 0.92929 0.96786 0.10349 0.0
O227 O 0.93364 0.01143 0.06833 0.0
C228 C 0.03233 0.90278 0.12259 0.0
O229 O 0.94795 0.08761 0.09174 0.0
O230 O 0.00954 0.07939 0.08667 0.0
C231 C 0.13691 0.91169 1.00854 0.0
O232 O 0.06125 0.90538 0.1026 0.0
O233 O -5e-05 0.91502 0.11424 0.0
C234 C 0.90201 0.97409 0.96479 0.0
O235 O 0.89023 0.95846 0.99303 0.0
C236 C 0.10556 0.00715 0.93356 0.0
O237 O 0.09252 0.98498 0.95596 0.0
H238 H 0.06314 0.28477 0.36933 0.0
H239 H 0.06365 0.24579 0.32058 0.0
H240 H 0.94078 0.24211 0.32188 0.0
H241 H 0.94007 0.27872 0.37235 0.0
H242 H 0.96389 0.18342 0.31066 0.0
H243 H -0.00272 0.28937 0.25981 0.0
H244 H 0.03461 0.34132 0.25306 0.0
H245 H 0.13542 0.28416 0.23269 0.0
H246 H 0.09877 0.23184 0.2398 0.0
H247 H 0.92655 0.1219 0.14234 0.0
H248 H 0.93389 0.1567 0.19374 0.0
H249 H 0.05587 0.14477 0.18908 0.0
H250 H 0.04879 0.1102 0.13644 0.0
H251 H 0.03766 0.20853 0.2033 0.0
H252 H -0.0002 0.10196 0.25007 0.0
H253 H 0.95931 0.05161 0.25429 0.0
H254 H 0.86277 0.11225 0.2801 0.0
H255 H 0.90257 0.16303 0.2756 0.0
C256 C 0.03616 0.27539 0.35969 0.0
C257 C 0.00154 0.28543 0.37502 0.0
C258 C 0.03649 0.25335 0.33127 0.0
C259 C 0.00221 0.2413 0.3168 0.0
C260 C 0.9677 0.25103 0.33223 0.0
C261 C 0.96735 0.27254 0.36097 0.0
C262 C 0.00203 0.21848 0.28582 0.0
C263 C 0.97975 0.18921 0.2871 0.0
C264 C 0.02333 0.2253 0.25512 0.0
C265 C 0.04537 0.2567 0.25069 0.0
C266 C 0.02747 0.28788 0.25413 0.0
C267 C 0.04849 0.31739 0.25021 0.0
C268 C 0.08738 0.31604 0.24254 0.0
C269 C 0.10531 0.28517 0.23869 0.0
C270 C 0.08442 0.25558 0.24264 0.0
C271 C 0.95509 0.12653 0.15207 0.0
C272 C -0.01289 0.11299 0.13511 0.0
C273 C 0.95919 0.14638 0.18178 0.0
C274 C -0.00462 0.15297 0.19589 0.0
C275 C 0.02758 0.13991 0.17888 0.0
C276 C 0.02351 0.12003 0.14884 0.0
C277 C -0.00083 0.17385 0.22807 0.0
C278 C 0.02209 0.2027 0.227 0.0
C279 C 0.97801 0.1669 0.25881 0.0
C280 C 0.95416 0.13633 0.26228 0.0
C281 C 0.96991 0.10457 0.2565 0.0
C282 C 0.94708 0.07596 0.25896 0.0
C283 C 0.9085 0.07873 0.26744 0.0
C284 C 0.89267 0.11013 0.27357 0.0
C285 C 0.91538 0.13884 0.27112 0.0
H286 H 0.89091 0.05653 0.2693 0.0
H287 H 0.10361 0.33891 0.23951 0.0
H288 H 0.67358 0.00564 0.33036 0.0
H289 H 0.72947 0.01154 0.29282 0.0
H290 H 0.66394 0.07069 0.22023 0.0
H291 H 0.60756 0.06368 0.25681 0.0
H292 H 0.7028 0.02682 0.18599 0.0
H293 H 0.73408 0.10607 0.27367 0.0
H294 H 0.74518 0.12847 0.33271 0.0
H295 H 0.83414 0.05679 0.34945 0.0
H296 H 0.82306 0.03354 0.29078 0.0
H297 H 0.86317 0.04141 0.07977 0.0
H298 H 0.81366 0.06287 0.11831 0.0
H299 H 0.86325 0.00775 0.20395 0.0
H300 H 0.91525 0.99019 0.16615 0.0
H301 H 0.83083 0.05992 0.22913 0.0
H302 H 0.78898 0.9748 0.14454 0.0
H303 H 0.7804 0.95539 0.0839 0.0
H304 H 0.71236 0.04166 0.06084 0.0
H305 H 0.72077 0.06162 0.1213 0.0
C306 C 0.67095 0.01976 0.30632 0.0
C307 C 0.63594 0.03419 0.29671 0.0
C308 C 0.70314 0.02354 0.28509 0.0
C309 C 0.7012 0.04205 0.25388 0.0
C310 C 0.66632 0.05651 0.24426 0.0
C311 C 0.63411 0.05265 0.2654 0.0
C312 C 0.73486 0.04457 0.2303 0.0
C313 C 0.73063 0.03462 0.1954 0.0
C314 C 0.77138 0.05451 0.24234 0.0
C315 C 0.77748 0.06787 0.27795 0.0
C316 C 0.7557 0.09484 0.2901 0.0
C317 C 0.76205 0.10773 0.32348 0.0
C318 C 0.79028 0.094 0.34486 0.0
C319 C 0.81221 0.06734 0.33291 0.0
C320 C 0.8059 0.0543 0.2996 0.0
C321 C 0.86503 0.03612 0.10717 0.0
C322 C 0.89373 0.01515 0.11989 0.0
C323 C 0.83593 0.04731 0.12913 0.0
C324 C 0.83385 0.03604 0.16389 0.0
C325 C 0.86386 0.01669 0.17723 0.0
C326 C 0.89353 0.00647 0.1555 0.0
C327 C 0.79893 0.04105 0.18538 0.0
C328 C 0.80287 0.05245 0.2198 0.0
C329 C 0.76209 0.0325 0.17297 0.0
C330 C 0.75565 0.01972 0.13724 0.0
C331 C 0.77212 0.98953 0.1265 0.0
C332 C 0.76735 0.97848 0.09219 0.0
C333 C 0.7459 0.99731 0.06852 0.0
C334 C 0.72894 0.0271 0.0792 0.0
C335 C 0.73363 0.03825 0.11348 0.0
H336 H 0.74238 0.9888 0.04192 0.0
H337 H 0.7952 0.10408 0.37067 0.0
H338 H 0.06957 0.74254 0.41729 0.0
H339 H 0.06965 0.78126 0.36785 0.0
H340 H -0.00284 0.7139 0.31011 0.0
H341 H -0.0029 0.67494 0.35938 0.0
H342 H 0.09507 0.77559 0.30338 0.0
H343 H 0.94166 0.75052 0.2616 0.0
H344 H 0.87881 0.73895 0.2882 0.0
H345 H 0.91059 0.7959 0.37859 0.0
H346 H 0.9737 0.8074 0.35264 0.0
H347 H 0.07952 0.84993 0.13544 0.0
H348 H 0.08031 0.81336 0.18651 0.0
H349 H -0.00614 0.87398 0.23505 0.0
H350 H -0.00888 0.90909 0.18279 0.0
H351 H 0.97582 0.81649 0.24862 0.0
H352 H 0.09761 0.87077 0.26234 0.0
H353 H 0.16209 0.89008 0.24708 0.0
H354 H 0.19578 0.78941 0.22514 0.0
H355 H 0.13135 0.76933 0.24074 0.0
C356 C 0.05379 0.73581 0.39402 0.0
C357 C 0.03337 0.70549 0.3924 0.0
C358 C 0.05376 0.75809 0.36578 0.0
C359 C 0.03315 0.75073 0.33528 0.0
C360 C 0.01269 0.72053 0.33356 0.0
C361 C 0.01268 0.69822 0.36182 0.0
C362 C 0.0338 0.77429 0.30504 0.0
C363 C 0.06902 0.78453 0.29132 0.0
C364 C -1e-05 0.78664 0.28973 0.0
C365 C 0.96224 0.77967 0.30529 0.0
C366 C 0.93511 0.76057 0.28711 0.0
C367 C 0.89955 0.75393 0.30212 0.0
C368 C 0.89073 0.76666 0.33508 0.0
C369 C 0.9175 0.78595 0.35314 0.0
C370 C 0.9532 0.79239 0.33838 0.0
C371 C 0.06095 0.85564 0.15717 0.0
C372 C 0.03535 0.88252 0.15509 0.0
C373 C 0.06159 0.83478 0.18662 0.0
C374 C 0.03764 0.84096 0.21533 0.0
C375 C 0.0126 0.86832 0.21344 0.0
C376 C 0.01117 0.88859 0.18357 0.0
C377 C 0.03737 0.81826 0.2466 0.0
C378 C 0.00209 0.80778 0.26043 0.0
C379 C 0.0713 0.80669 0.26282 0.0
C380 C 0.10959 0.81865 0.25228 0.0
C381 C 0.11867 0.8528 0.25394 0.0
C382 C 0.15527 0.86387 0.24533 0.0
C383 C 0.18304 0.8411 0.23486 0.0
C384 C 0.17425 0.80707 0.23315 0.0
C385 C 0.13773 0.7958 0.24201 0.0
H386 H 0.21138 0.84982 0.22824 0.0
H387 H 0.86314 0.7616 0.34659 0.0
H388 H 0.32689 0.99773 0.33333 0.0
H389 H 0.27347 0.98794 0.29372 0.0
H390 H 0.35075 0.9494 0.21631 0.0
H391 H 0.40454 0.96029 0.25536 0.0
H392 H 0.30481 0.9924 0.18726 0.0
H393 H 0.28586 0.89701 0.25931 0.0
H394 H 0.27759 0.86366 0.31301 0.0
H395 H 0.17805 0.92031 0.33924 0.0
H396 H 0.18606 0.95434 0.28594 0.0
H397 H 0.15232 0.96188 0.07251 0.0
H398 H 0.205 0.94756 0.11165 0.0
H399 H 0.14223 0.98819 0.19842 0.0
H400 H 0.08862 0.00025 0.15952 0.0
H401 H 0.18314 0.93751 0.22011 0.0
H402 H 0.2076 0.03557 0.14965 0.0
H403 H 0.21465 0.06612 0.09397 0.0
H404 H 0.30478 0.0001 0.06348 0.0
H405 H 0.2979 0.96893 0.11883 0.0
C406 C 0.33257 0.98711 0.30791 0.0
C407 C 0.37013 0.97992 0.29756 0.0
C408 C 0.30187 0.98111 0.2854 0.0
C409 C 0.3079 0.96754 0.25208 0.0
C410 C 0.34528 0.95972 0.24192 0.0
C411 C 0.37602 0.96574 0.26442 0.0
C412 C 0.2756 0.964 0.227 0.0
C413 C 0.27858 0.97959 0.19422 0.0
C414 C 0.24095 0.94793 0.23609 0.0
C415 C 0.23681 0.92842 0.26882 0.0
C416 C 0.2625 0.90263 0.27676 0.0
C417 C 0.25778 0.88353 0.30707 0.0
C418 C 0.22738 0.88991 0.32957 0.0
C419 C 0.20165 0.91544 0.32184 0.0
C420 C 0.20628 0.93466 0.2916 0.0
C421 C 0.1488 0.96559 0.10024 0.0
C422 C 0.11583 0.98087 0.11321 0.0
C423 C 0.17939 0.95837 0.12252 0.0
C424 C 0.17798 0.96741 0.15795 0.0
C425 C 0.14412 0.98097 0.17125 0.0
C426 C 0.11344 0.98778 0.14905 0.0
C427 C 0.21249 0.96556 0.18061 0.0
C428 C 0.2098 0.94937 0.21301 0.0
C429 C 0.24751 0.98077 0.1711 0.0
C430 C 0.25198 -0.00024 0.13813 0.0
C431 C 0.22878 0.0275 0.13097 0.0
C432 C 0.23275 0.04492 0.09949 0.0
C433 C 0.26007 0.035 0.07516 0.0
C434 C 0.28358 0.00772 0.08232 0.0
C435 C 0.27968 0.99018 0.11373 0.0
H436 H 0.26308 0.0485 0.05079 0.0
H437 H 0.22371 0.87503 0.35297 0.0
H438 H 0.00033 0.73579 0.60902 0.0
H439 H 7e-05 0.77227 0.66029 0.0
H440 H 0.03516 0.68971 0.72516 0.0
H441 H 0.03556 0.65308 0.67393 0.0
H442 H 0.97633 0.72983 0.75504 0.0
H443 H 0.09971 0.74267 0.70096 0.0
H444 H 0.14386 0.75473 0.65246 0.0
H445 H 0.0971 0.85322 0.64203 0.0
H446 H 0.05222 0.84154 0.6901 0.0
H447 H 0.03755 0.8216 0.90449 0.0
H448 H 0.03067 0.78358 0.85498 0.0
H449 H 0.02065 0.86792 0.78519 0.0
H450 H 0.02925 0.90593 0.83428 0.0
H451 H 0.06585 0.82603 0.75754 0.0
H452 H 0.94264 0.81558 0.80964 0.0
H453 H 0.89653 0.80547 0.85708 0.0
H454 H 0.93864 0.70559 0.86967 0.0
H455 H -0.01458 0.71529 0.82264 0.0
C456 C 0.0075 0.7253 0.63427 0.0
C457 C 0.01804 0.69156 0.63741 0.0
C458 C 0.00756 0.74622 0.66351 0.0
C459 C 0.01785 0.73377 0.69651 0.0
C460 C 0.02717 0.69985 0.69994 0.0
C461 C 0.02759 0.67901 0.67064 0.0
C462 C 0.02023 0.7564 0.72718 0.0
C463 C -0.00385 0.75068 0.75583 0.0
C464 C 0.0454 0.7841 0.7278 0.0
C465 C 0.07229 0.79107 0.69883 0.0
C466 C 0.09857 0.76677 0.68808 0.0
C467 C 0.12378 0.77356 0.66071 0.0
C468 C 0.1232 0.80468 0.64409 0.0
C469 C 0.09746 0.8291 0.65486 0.0
C470 C 0.07214 0.82241 0.68217 0.0
C471 C 0.03353 0.83204 0.87863 0.0
C472 C 0.03381 0.86684 0.87341 0.0
C473 C 0.02942 0.81024 0.85029 0.0
C474 C 0.02467 0.82275 0.81619 0.0
C475 C 0.02435 0.85752 0.81111 0.0
C476 C 0.02909 0.87929 0.8393 0.0
C477 C 0.02163 0.79982 0.7856 0.0
C478 C 0.04577 0.80536 0.7569 0.0
C479 C -0.00394 0.77228 0.78476 0.0
C480 C 0.96781 0.76629 0.81288 0.0
C481 C 0.94226 0.79155 0.82271 0.0
C482 C 0.91598 0.78588 0.8495 0.0
C483 C 0.91473 0.75495 0.86646 0.0
C484 C 0.93969 0.72957 0.85656 0.0
C485 C 0.96607 0.73512 0.82982 0.0
H486 H 0.89438 0.75062 0.88721 0.0
H487 H 0.14277 0.8099 0.62293 0.0
H488 H 0.38248 0.01467 0.72285 0.0
H489 H 0.32794 0.01726 0.76165 0.0
H490 H 0.31824 0.90984 0.75993 0.0
H491 H 0.37116 0.90711 0.71863 0.0
H492 H 0.25001 0.93471 0.76049 0.0
H493 H 0.36032 0.95245 0.82975 0.0
H494 H 0.42201 0.9772 0.84687 0.0
H495 H 0.36965 0.07353 0.85593 0.0
H496 H 0.30773 0.04945 0.83834 0.0
H497 H 0.13215 0.94448 0.91718 0.0
H498 H 0.18322 0.93059 0.87596 0.0
H499 H 0.19473 0.03476 0.84882 0.0
H500 H 0.14414 0.04881 0.88957 0.0
H501 H 0.2636 0.0041 0.86688 0.0
H502 H 0.15223 0.98252 0.79434 0.0
H503 H 0.09169 0.95397 0.78039 0.0
H504 H 0.14828 0.85912 0.78276 0.0
H505 H 0.20909 0.88707 0.79733 0.0
C506 C 0.36841 0.99153 0.72995 0.0
C507 C 0.38159 0.96064 0.71744 0.0
C508 C 0.33743 0.99304 0.75273 0.0
C509 C 0.31942 0.9637 0.7645 0.0
C510 C 0.33181 0.93284 0.75151 0.0
C511 C 0.36247 0.93133 0.72817 0.0
C512 C 0.28821 0.9655 0.7908 0.0
C513 C 0.25322 0.94946 0.78402 0.0
C514 C 0.29225 0.98455 0.82171 0.0
C515 C 0.32941 -0.00084 0.8325 0.0
C516 C 0.362 0.97895 0.83518 0.0
C517 C 0.39701 0.99286 0.84499 0.0
C518 C 0.39976 0.02692 0.85243 0.0
C519 C 0.36748 0.04714 0.85014 0.0
C520 C 0.3324 0.03337 0.84029 0.0
C521 C 0.14539 0.96436 0.90224 0.0
C522 C 0.13416 0.99778 0.90686 0.0
C523 C 0.17447 0.95637 0.87864 0.0
C524 C 0.19279 0.98169 0.85941 0.0
C525 C 0.18108 0.01487 0.86351 0.0
C526 C 0.152 0.02283 0.88679 0.0
C527 C 0.22527 0.97432 0.83593 0.0
C528 C 0.2606 0.98916 0.84345 0.0
C529 C 0.22168 0.95359 0.80625 0.0
C530 C 0.18515 0.93687 0.79726 0.0
C531 C 0.15172 0.95555 0.7922 0.0
C532 C 0.11736 0.93948 0.78414 0.0
C533 C 0.11615 0.90476 0.78074 0.0
C534 C 0.14928 0.88602 0.78543 0.0
C535 C 0.1837 0.90196 0.79357 0.0
H536 H 0.08959 0.89238 0.77433 0.0
H537 H 0.42689 0.03764 0.86003 0.0
H538 H 0.06615 0.29831 0.63367 0.0
H539 H 0.06875 0.26945 0.68961 0.0
H540 H 0.94689 0.25479 0.68644 0.0
H541 H 0.94342 0.28678 0.63277 0.0
H542 H 0.96298 0.2679 0.74772 0.0
H543 H 0.02004 0.19108 0.66647 0.0
H544 H 0.06603 0.1728 0.62185 0.0
H545 H 0.15865 0.19167 0.6926 0.0
H546 H 0.11321 0.21044 0.7375 0.0
H547 H 0.94383 0.13207 0.86476 0.0
H548 H 0.94958 0.16405 0.81061 0.0
H549 H 0.06201 0.1967 0.84098 0.0
H550 H 0.05639 0.16495 0.8957 0.0
H551 H 0.05511 0.17635 0.7688 0.0
H552 H -0.00501 0.24981 0.8509 0.0
H553 H 0.94712 0.2649 0.89513 0.0
H554 H 0.85738 0.24853 0.82068 0.0
H555 H 0.90474 0.23288 0.77612 0.0
C556 C 0.0397 0.28957 0.64503 0.0
C557 C 0.00457 0.29491 0.62799 0.0
C558 C 0.04136 0.27236 0.67693 0.0
C559 C 0.00815 0.259 0.69215 0.0
C560 C 0.97309 0.26452 0.67538 0.0
C561 C 0.97125 0.28249 0.64408 0.0
C562 C 0.0094 0.23977 0.72571 0.0
C563 C -0.01711 0.24761 0.75191 0.0
C564 C 0.03596 0.21377 0.7321 0.0
C565 C 0.06327 0.20249 0.70517 0.0
C566 C 0.05023 0.19154 0.6724 0.0
C567 C 0.0762 0.18106 0.64709 0.0
C568 C 0.11524 0.18117 0.65435 0.0
C569 C 0.12841 0.19166 0.68698 0.0
C570 C 0.10257 0.2022 0.71238 0.0
C571 C 0.96997 0.14578 0.85992 0.0
C572 C -0.00039 0.14599 0.88475 0.0
C573 C 0.97314 0.16416 0.82894 0.0
C574 C 0.00608 0.18298 0.82189 0.0
C575 C 0.03631 0.18237 0.84594 0.0
C576 C 0.033 0.16427 0.87723 0.0
C577 C 0.00818 0.20408 0.78989 0.0
C578 C 0.03535 0.19668 0.76428 0.0
C579 C 0.98189 0.23013 0.78373 0.0
C580 C 0.95338 0.23988 0.81031 0.0
C581 C 0.96503 0.24919 0.84405 0.0
C582 C 0.93799 0.25788 0.86916 0.0
C583 C 0.89922 0.25759 0.86075 0.0
C584 C 0.88742 0.24871 0.82717 0.0
C585 C 0.91435 0.23996 0.80197 0.0
H586 H 0.87833 0.26431 0.88024 0.0
H587 H 0.13529 0.17305 0.63471 0.0
H588 H 0.69036 0.99037 0.68559 0.0
H589 H 0.74173 0.99502 0.72872 0.0
H590 H 0.65905 0.98765 0.81186 0.0
H591 H 0.60771 0.98504 0.7687 0.0
H592 H 0.70815 0.02877 0.8315 0.0
H593 H 0.71882 0.91963 0.7817 0.0
H594 H 0.72569 0.87768 0.73514 0.0
H595 H 0.83341 0.92064 0.70587 0.0
H596 H 0.82689 0.96315 0.75195 0.0
H597 H 0.82474 0.96806 0.96744 0.0
H598 H 0.77933 0.97407 0.91981 0.0
H599 H 0.87012 0.00385 0.85047 0.0
H600 H 0.91636 0.99703 0.89817 0.0
H601 H 0.82109 0.95513 0.82197 0.0
H602 H 0.8047 0.0663 0.87399 0.0
H603 H 0.79897 0.10011 0.92731 0.0
H604 H 0.70132 0.04248 0.95891 0.0
H605 H 0.70574 0.00912 0.90498 0.0
C606 C 0.6833 0.99007 0.71311 0.0
C607 C 0.64516 0.98738 0.72388 0.0
C608 C 0.71266 0.99242 0.73779 0.0
C609 C 0.70457 0.99092 0.77374 0.0
C610 C 0.66626 0.98888 0.78439 0.0
C611 C 0.63688 0.98737 0.75973 0.0
C612 C 0.73577 0.99111 0.80033 0.0
C613 C 0.73262 0.01246 0.82924 0.0
C614 C 0.76826 0.9702 0.79775 0.0
C615 C 0.77213 0.9448 0.76994 0.0
C616 C 0.7438 0.92029 0.76512 0.0
C617 C 0.74766 0.89639 0.73886 0.0
C618 C 0.7799 0.89657 0.71748 0.0
C619 C 0.80841 0.92059 0.72238 0.0
C620 C 0.80465 0.94458 0.74856 0.0
C621 C 0.83517 0.97632 0.94224 0.0
C622 C 0.87427 0.98219 0.93673 0.0
C623 C 0.80905 0.97984 0.91498 0.0
C624 C 0.82119 0.98981 0.88163 0.0
C625 C 0.8601 0.99624 0.87604 0.0
C626 C 0.88643 0.99258 0.90338 0.0
C627 C 0.79305 0.99254 0.85266 0.0
C628 C 0.79678 0.97173 0.82354 0.0
C629 C 0.76068 0.01322 0.85533 0.0
C630 C 0.75551 0.0354 0.88562 0.0
C631 C 0.78172 0.06122 0.89214 0.0
C632 C 0.77872 0.08025 0.92248 0.0
C633 C 0.74993 0.07331 0.94664 0.0
C634 C 0.72358 0.04781 0.94015 0.0
C635 C 0.72599 0.02915 0.9095 0.0
H636 H 0.74781 0.08775 0.97029 0.0
H637 H 0.78285 0.87803 0.69717 0.0
H638 H 0.30767 0.35244 0.11925 0.0
H639 H 0.25247 0.31934 0.10123 0.0
H640 H 0.30222 0.30583 0.99944 0.0
H641 H 0.35814 0.3382 0.0175 0.0
H642 H 0.21273 0.31073 1.00642 0.0
H643 H 0.32645 0.25028 0.0425 0.0
H644 H 0.38148 0.24188 0.08164 0.0
H645 H 0.30589 0.22957 0.16887 0.0
H646 H 0.25043 0.2386 0.13027 0.0
H647 H 0.13074 0.15084 0.96814 0.0
H648 H 0.17166 0.19993 0.97402 0.0
H649 H 0.15421 0.19881 0.08553 0.0
H650 H 0.11397 0.14924 0.08005 0.0
H651 H 0.22751 0.20323 0.07003 0.0
H652 H 0.11268 0.25819 0.03186 0.0
H653 H 0.0582 0.26739 0.99228 0.0
H654 H 0.13504 0.28949 0.90808 0.0
H655 H 0.19001 0.27997 0.94705 0.0
C656 C 0.30647 0.34308 0.09277 0.0
C657 C 0.33753 0.34723 0.07004 0.0
C658 C 0.27477 0.32456 0.08241 0.0
C659 C 0.27363 0.31011 0.04917 0.0
C660 C 0.30265 0.3171 0.02512 0.0
C661 C 0.33458 0.33551 0.03554 0.0
C662 C 0.24682 0.28249 0.04263 0.0
C663 C 0.21596 0.28705 0.01992 0.0
C664 C 0.25122 0.25188 0.06056 0.0
C665 C 0.28439 0.24547 0.08362 0.0
C666 C 0.32161 0.24605 0.07008 0.0
C667 C 0.35287 0.24116 0.09215 0.0
C668 C 0.3472 0.23529 0.12775 0.0
C669 C 0.31024 0.23418 0.14131 0.0
C670 C 0.27889 0.23918 0.11935 0.0
C671 C 0.13532 0.1612 0.9939 0.0
C672 C 0.1193 0.14604 0.02368 0.0
C673 C 0.15854 0.18937 0.99716 0.0
C674 C 0.16566 0.20313 0.03016 0.0
C675 C 0.14902 0.18851 0.05982 0.0
C676 C 0.12607 0.1602 0.05664 0.0
C677 C 0.19254 0.23134 0.03419 0.0
C678 C 0.22387 0.22682 0.05641 0.0
C679 C 0.18848 0.26177 0.01557 0.0
C680 C 0.15545 0.26811 0.99231 0.0
C681 C 0.11796 0.26483 1.00485 0.0
C682 C 0.08699 0.27012 0.98253 0.0
C683 C 0.09315 0.27895 0.94767 0.0
C684 C 0.1303 0.28263 0.93508 0.0
C685 C 0.16138 0.27733 0.95729 0.0
H686 H 0.06914 0.28299 0.93041 0.0
H687 H 0.37143 0.23152 0.14481 0.0
H688 H 0.41845 0.70739 0.98686 0.0
H689 H 0.37381 0.7509 0.96807 0.0
H690 H 0.33909 0.76512 0.07495 0.0
H691 H 0.38307 0.72152 0.09385 0.0
H692 H 0.29265 0.76058 0.97858 0.0
H693 H 0.34188 0.84761 0.09027 0.0
H694 H 0.3998 0.85739 0.12541 0.0
H695 H 0.46929 0.82212 0.04113 0.0
H696 H 0.41186 0.81267 1.00527 0.0
H697 H 0.18573 0.89881 0.0624 0.0
H698 H 0.24555 0.86862 0.05881 0.0
H699 H 0.24009 0.87205 0.9463 0.0
H700 H 0.17944 0.90162 0.94957 0.0
H701 H 0.31563 0.87199 0.03149 0.0
H702 H 0.26312 0.79517 0.91638 0.0
H703 H 0.20341 0.78325 0.88445 0.0
H704 H 0.1393 0.79545 0.97896 0.0
H705 H 0.19867 0.80705 1.01145 0.0
C706 C 0.40068 0.71932 1.00623 0.0
C707 C 0.40452 0.71142 0.04189 0.0
C708 C 0.37536 0.74417 0.99545 0.0
C709 C 0.35385 0.76149 0.02025 0.0
C710 C 0.35607 0.75234 0.05556 0.0
C711 C 0.38123 0.72756 0.06632 0.0
C712 C 0.33048 0.79044 1.01003 0.0
C713 C 0.2981 0.78518 0.98934 0.0
C714 C 0.33769 0.82238 0.02431 0.0
C715 C 0.37252 0.82933 0.04515 0.0
C716 C 0.36954 0.84225 0.07911 0.0
C717 C 0.40228 0.84766 0.09918 0.0
C718 C 0.43819 0.84033 0.08553 0.0
C719 C 0.44145 0.82773 0.0517 0.0
C720 C 0.40881 0.82234 0.03149 0.0
C721 C 0.19761 0.89392 0.03684 0.0
C722 C 0.17725 0.90168 1.00628 0.0
C723 C 0.23198 0.87677 0.03484 0.0
C724 C 0.24663 0.86731 1.00229 0.0
C725 C 0.22872 0.87848 0.97167 0.0
C726 C 0.19408 0.89539 0.97363 0.0
C727 C 0.27701 0.84188 1.00108 0.0
C728 C 0.31078 0.84773 0.0197 0.0
C729 C 0.27093 0.81041 0.98509 0.0
C730 C 0.23523 0.80229 0.96618 0.0
C731 C 0.23627 0.79512 0.93033 0.0
C732 C 0.20251 0.78846 0.91214 0.0
C733 C 0.16757 0.7887 0.92964 0.0
C734 C 0.16636 0.79536 0.96542 0.0
C735 C 0.20005 0.80195 0.98372 0.0
H736 H 0.14146 0.78367 0.91549 0.0
H737 H 0.4635 0.84445 0.10116 0.0
H738 H 0.58373 0.25387 0.12697 0.0
H739 H 0.62958 0.21075 0.11077 0.0
H740 H 0.65908 0.26669 0.01813 0.0
H741 H 0.61356 0.31 0.03428 0.0
H742 H 0.64919 0.20087 1.00401 0.0
H743 H 0.71698 0.26781 0.08731 0.0
H744 H 0.72808 0.29606 0.14353 0.0
H745 H 0.72315 0.20167 0.19697 0.0
H746 H 0.71141 0.17291 0.14107 0.0
H747 H 0.8377 0.14256 0.9696 0.0
H748 H 0.77881 0.17227 0.98095 0.0
H749 H 0.75095 0.10236 0.063 0.0
H750 H 0.81037 0.07231 0.0519 0.0
H751 H 0.75561 0.17013 0.08312 0.0
H752 H 0.66002 0.11271 0.99805 0.0
H753 H 0.64676 0.0874 0.94052 0.0
H754 H 0.71069 0.16551 0.89015 0.0
H755 H 0.72274 0.192 0.9473 0.0
C756 C 0.60027 0.25711 0.10333 0.0
C757 C 0.59516 0.28533 0.08193 0.0
C758 C 0.62628 0.23243 0.09406 0.0
C759 C 0.64776 0.23567 0.06336 0.0
C760 C 0.64257 0.26368 0.04183 0.0
C761 C 0.61657 0.28835 0.05107 0.0
C762 C 0.676 0.21005 0.05378 0.0
C763 C 0.67254 0.1943 0.02128 0.0
C764 C 0.70609 0.20103 0.07649 0.0
C765 C 0.71279 0.21829 0.11011 0.0
C766 C 0.71784 0.25313 0.11111 0.0
C767 C 0.72434 0.26922 0.14289 0.0
C768 C 0.72617 0.25069 0.17382 0.0
C769 C 0.72161 0.21601 0.17301 0.0
C770 C 0.71503 0.1998 0.14129 0.0
C771 C 0.81856 0.13278 0.98935 0.0
C772 C 0.82883 0.10518 1.01001 0.0
C773 C 0.78465 0.14969 0.99558 0.0
C774 C 0.76016 0.13913 0.02232 0.0
C775 C 0.76933 0.11059 0.04193 0.0
C776 C 0.80336 0.09362 0.03571 0.0
C777 C 0.72884 0.16113 0.03338 0.0
C778 C 0.73182 0.17633 0.06618 0.0
C779 C 0.69872 0.17004 1.01083 0.0
C780 C 0.69298 0.15378 0.97677 0.0
C781 C 0.67131 0.12433 0.97465 0.0
C782 C 0.66365 0.11002 0.94213 0.0
C783 C 0.67815 0.12467 0.91172 0.0
C784 C 0.69971 0.15404 0.91372 0.0
C785 C 0.70672 0.16884 0.94612 0.0
H786 H 0.6726 0.11331 0.88661 0.0
H787 H 0.73125 0.26319 0.19841 0.0
H788 H 0.63874 0.72464 1.01197 0.0
H789 H 0.69754 0.7547 0.99853 0.0
H790 H 0.76167 0.66375 1.01296 0.0
H791 H 0.7027 0.63424 0.0287 0.0
H792 H 0.79383 0.70803 0.04736 0.0
H793 H 0.75233 0.70635 0.93002 0.0
H794 H 0.70778 0.71195 0.88053 0.0
H795 H 0.69625 0.81673 0.90143 0.0
H796 H 0.74023 0.81168 0.95138 0.0
H797 H 0.9259 0.84915 0.96711 0.0
H798 H 0.88398 0.80078 0.95899 0.0
H799 H 0.84117 0.81297 0.06376 0.0
H800 H 0.88363 0.86038 0.07244 0.0
H801 H 0.81013 0.79718 0.95838 0.0
H802 H 0.81496 0.74255 0.09976 0.0
H803 H 0.86206 0.73474 0.14687 0.0
H804 H 0.95283 0.73639 0.07181 0.0
H805 H 0.90626 0.74369 0.02416 0.0
C806 C 0.66536 0.71102 1.0114 0.0
C807 C 0.66654 0.6773 0.02118 0.0
C808 C 0.69896 0.72809 1.00347 0.0
C809 C 0.73417 0.71144 1.0042 0.0
C810 C 0.73493 0.67715 1.0122 0.0
C811 C 0.70137 0.66028 0.02102 0.0
C812 C 0.77019 0.73078 1.00105 0.0
C813 C 0.7976 0.72715 0.02753 0.0
C814 C 0.77579 0.75528 0.97478 0.0
C815 C 0.74954 0.75858 0.94453 0.0
C816 C 0.74015 0.73055 0.92417 0.0
C817 C 0.71499 0.73364 0.89603 0.0
C818 C 0.69918 0.76467 0.88785 0.0
C819 C 0.70855 0.79271 0.90777 0.0
C820 C 0.73365 0.78976 0.93597 0.0
C821 C 0.90788 0.84122 0.98855 0.0
C822 C 0.90815 0.8585 0.02047 0.0
C823 C 0.88394 0.81363 0.98384 0.0
C824 C 0.85986 0.80297 1.01092 0.0
C825 C 0.86023 0.82017 0.0428 0.0
C826 C 0.8844 0.84743 0.04767 0.0
C827 C 0.83247 0.77525 1.00553 0.0
C828 C 0.80676 0.77738 0.97754 0.0
C829 C 0.82889 0.74885 0.02991 0.0
C830 C 0.85707 0.74378 0.05838 0.0
C831 C 0.84494 0.74097 0.09325 0.0
C832 C 0.87156 0.7367 0.12007 0.0
C833 C 0.91041 0.73511 0.11234 0.0
C834 C 0.92273 0.73769 0.07776 0.0
C835 C 0.89623 0.74192 0.05084 0.0
H836 H 0.93098 0.73185 0.13315 0.0
H837 H 0.6797 0.767 0.86606 0.0
loop_
_geom_bond_atom_site_label_1
_geom_bond_atom_site_label_2
_geom_bond_distance
_geom_bond_site_symmetry_2
_ccdc_geom_bond_type
H0 C27 0.929 1_655 S
N1 C26 1.433 . S
N1 C32 1.435 . S
N1 C38 1.423 . S
H2 C28 0.930 1_655 S
H3 C31 0.931 . S
H4 C30 0.929 . S
H5 C33 0.930 . S
H6 C34 0.932 . S
H7 C37 0.929 . S
H8 C36 0.931 . S
H9 C39 0.929 . S
H10 C43 0.932 . S
H11 C40 0.931 . S
H12 C42 0.929 . S
H13 C45 0.929 1_655 S
H14 C46 0.930 1_655 S
H15 C48 0.929 . S
H16 C49 0.931 . S
H17 C51 0.930 . S
H18 C52 0.932 . S
H19 C54 0.931 . S
H20 C55 0.929 . S
H21 C57 0.929 . S
H22 C58 0.931 . S
H23 C60 0.929 . S
N24 C44 1.433 . S
N24 C50 1.435 . S
N24 C56 1.423 . S
H25 C61 0.932 . S
C26 N1 1.433 . S
C26 C27 1.364 . S
C26 C31 1.370 . S
C27 H0 0.929 1_455 S
C27 C26 1.364 . S
C27 C28 1.385 . S
C28 H2 0.930 1_455 S
C28 C27 1.385 . S
C28 C29 1.357 . S
C29 C28 1.357 . S
C29 C30 1.406 . S
C30 H4 0.929 . S
C30 C29 1.406 . S
C30 C31 1.391 . S
C31 H3 0.931 . S
C31 C26 1.370 . S
C31 C30 1.391 . S
C32 N1 1.435 . S
C32 C33 1.358 . S
C32 C37 1.371 1_455 S
C33 H5 0.930 . S
C33 C32 1.358 . S
C33 C34 1.405 . S
C34 H6 0.932 . S
C34 C33 1.405 . S
C34 C35 1.383 . S
C35 C34 1.383 . S
C35 C36 1.393 1_455 S
C36 H8 0.931 . S
C36 C35 1.393 1_655 S
C36 C37 1.382 . S
C37 H7 0.929 . S
C37 C32 1.371 1_655 S
C37 C36 1.382 . S
C38 N1 1.423 . S
C38 C39 1.362 1_455 S
C38 C43 1.388 . S
C39 H9 0.929 . S
C39 C38 1.362 1_655 S
C39 C40 1.376 . S
C40 H11 0.931 . S
C40 C39 1.376 . S
C40 C41 1.385 1_655 S
C41 C40 1.385 1_455 S
C41 C42 1.359 . S
C41 C59 1.472 . S
C42 H12 0.929 . S
C42 C41 1.359 . S
C42 C43 1.443 . S
C43 H10 0.932 . S
C43 C38 1.388 . S
C43 C42 1.443 . S
C44 N24 1.433 . S
C44 C45 1.364 . S
C44 C49 1.370 . S
C45 H13 0.929 1_455 S
C45 C44 1.364 . S
C45 C46 1.385 . S
C46 H14 0.930 1_455 S
C46 C45 1.385 . S
C46 C47 1.357 . S
C47 C46 1.357 . S
C47 C48 1.406 . S
C48 H15 0.929 . S
C48 C47 1.406 . S
C48 C49 1.391 . S
C49 H16 0.931 . S
C49 C44 1.370 . S
C49 C48 1.391 . S
C50 N24 1.435 . S
C50 C51 1.358 . S
C50 C55 1.371 1_455 S
C51 H17 0.930 . S
C51 C50 1.358 . S
C51 C52 1.405 . S
C52 H18 0.932 . S
C52 C51 1.405 . S
C52 C53 1.383 . S
C53 C52 1.383 . S
C53 C54 1.393 1_455 S
C54 H19 0.931 . S
C54 C53 1.393 1_655 S
C54 C55 1.382 . S
C55 H20 0.929 . S
C55 C50 1.371 1_655 S
C55 C54 1.382 . S
C56 N24 1.423 . S
C56 C57 1.362 1_455 S
C56 C61 1.388 . S
C57 H21 0.929 . S
C57 C56 1.362 1_655 S
C57 C58 1.376 . S
C58 H22 0.931 . S
C58 C57 1.376 . S
C58 C59 1.385 1_655 S
C59 C41 1.472 . S
C59 C58 1.385 1_455 S
C59 C60 1.359 . S
C60 H23 0.929 . S
C60 C59 1.359 . S
C60 C61 1.443 . S
C61 H25 0.932 . S
C61 C56 1.388 . S
C61 C60 1.443 . S
H62 C89 0.929 . S
N63 C88 1.433 . S
N63 C94 1.435 . S
N63 C100 1.423 . S
H64 C90 0.930 . S
H65 C93 0.931 . S
H66 C92 0.929 . S
H67 C95 0.930 . S
H68 C96 0.932 . S
H69 C99 0.929 . S
H70 C98 0.931 . S
H71 C101 0.929 . S
H72 C105 0.915 1_545 S
H73 C102 0.931 . S
H74 C104 0.929 1_545 S
H75 C107 0.929 . S
H76 C108 0.930 . S
H77 C110 0.929 . S
H78 C111 0.931 . S
H79 C113 0.930 . S
H80 C114 0.932 . S
H81 C116 0.931 . S
H82 C117 0.929 . S
H83 C119 0.929 . S
H84 C120 0.931 . S
H85 C122 0.929 1_545 S
N86 C106 1.433 . S
N86 C112 1.435 . S
N86 C118 1.423 . S
H87 C123 0.915 1_545 S
C88 N63 1.433 . S
C88 C89 1.363 . S
C88 C93 1.370 1_565 S
C89 H62 0.929 . S
C89 C88 1.363 . S
C89 C90 1.385 . S
C90 H64 0.930 . S
C90 C89 1.385 . S
C90 C91 1.357 . S
C91 C90 1.357 . S
C91 C92 1.406 1_565 S
C92 H66 0.929 . S
C92 C91 1.406 1_545 S
C92 C93 1.391 . S
C93 H65 0.931 . S
C93 C88 1.370 1_545 S
C93 C92 1.391 . S
C94 N63 1.435 . S
C94 C95 1.358 1_565 S
C94 C99 1.371 . S
C95 H67 0.930 . S
C95 C94 1.358 1_545 S
C95 C96 1.405 . S
C96 H68 0.932 . S
C96 C95 1.405 . S
C96 C97 1.380 1_545 S
C97 C96 1.380 1_565 S
C97 C98 1.397 . S
C98 H70 0.931 . S
C98 C97 1.397 . S
C98 C99 1.382 . S
C99 H69 0.929 . S
C99 C94 1.371 . S
C99 C98 1.382 . S
C100 N63 1.423 . S
C100 C101 1.362 . S
C100 C105 1.403 . S
C101 H71 0.929 . S
C101 C100 1.362 . S
C101 C102 1.376 . S
C102 H73 0.931 . S
C102 C101 1.376 . S
C102 C103 1.396 . S
C103 C102 1.396 . S
C103 C104 1.348 . S
C103 C121 1.472 . S
C104 H74 0.929 1_565 S
C104 C103 1.348 . S
C104 C105 1.446 . S
C105 H72 0.915 1_565 S
C105 C100 1.403 . S
C105 C104 1.446 . S
C106 N86 1.433 . S
C106 C107 1.363 . S
C106 C111 1.370 1_565 S
C107 H75 0.929 . S
C107 C106 1.363 . S
C107 C108 1.385 . S
C108 H76 0.930 . S
C108 C107 1.385 . S
C108 C109 1.357 . S
C109 C108 1.357 . S
C109 C110 1.406 1_565 S
C110 H77 0.929 . S
C110 C109 1.406 1_545 S
C110 C111 1.391 . S
C111 H78 0.931 . S
C111 C106 1.370 1_545 S
C111 C110 1.391 . S
C112 N86 1.435 . S
C112 C113 1.358 1_565 S
C112 C117 1.371 . S
C113 H79 0.930 . S
C113 C112 1.358 1_545 S
C113 C114 1.405 . S
C114 H80 0.932 . S
C114 C113 1.405 . S
C114 C115 1.380 1_545 S
C115 C114 1.380 1_565 S
C115 C116 1.397 . S
C116 H81 0.931 . S
C116 C115 1.397 . S
C116 C117 1.382 . S
C117 H82 0.929 . S
C117 C112 1.371 . S
C117 C116 1.382 . S
C118 N86 1.423 . S
C118 C119 1.362 . S
C118 C123 1.403 . S
C119 H83 0.929 . S
C119 C118 1.362 . S
C119 C120 1.376 . S
C120 H84 0.931 . S
C120 C119 1.376 . S
C120 C121 1.396 . S
C121 C103 1.472 . S
C121 C120 1.396 . S
C121 C122 1.348 . S
C122 H85 0.929 1_565 S
C122 C121 1.348 . S
C122 C123 1.446 . S
C123 H87 0.915 1_565 S
C123 C118 1.403 . S
C123 C122 1.446 . S
H124 C151 0.929 . S
N125 C150 1.433 . S
N125 C156 1.435 . S
N125 C162 1.423 . S
H126 C152 0.930 . S
H127 C155 0.924 1_556 S
H128 C154 0.929 . S
H129 C157 0.930 . S
H130 C158 0.932 . S
H131 C161 0.929 . S
H132 C160 0.931 . S
H133 C163 0.929 . S
H134 C167 0.932 1_556 S
H135 C164 0.931 . S
H136 C166 0.929 . S
H137 C169 0.929 . S
H138 C170 0.930 . S
H139 C172 0.929 . S
H140 C173 0.924 1_556 S
H141 C175 0.930 . S
H142 C176 0.932 . S
H143 C178 0.931 . S
H144 C179 0.929 . S
H145 C181 0.929 . S
H146 C182 0.931 . S
H147 C184 0.929 . S
N148 C168 1.433 . S
N148 C174 1.435 . S
N148 C180 1.423 . S
H149 C185 0.932 1_556 S
C150 N125 1.433 . S
C150 C151 1.363 . S
C150 C155 1.379 . S
C151 H124 0.929 . S
C151 C150 1.363 . S
C151 C152 1.385 . S
C152 H126 0.930 . S
C152 C151 1.385 . S
C152 C153 1.357 . S
C153 C152 1.357 . S
C153 C154 1.406 1_554 S
C154 H128 0.929 . S
C154 C153 1.406 1_556 S
C154 C155 1.389 1_556 S
C155 H127 0.924 1_554 S
C155 C150 1.379 . S
C155 C154 1.389 1_554 S
C156 N125 1.435 . S
C156 C157 1.358 1_554 S
C156 C161 1.371 . S
C157 H129 0.930 . S
C157 C156 1.358 1_556 S
C157 C158 1.405 . S
C158 H130 0.932 . S
C158 C157 1.405 . S
C158 C159 1.383 1_556 S
C159 C158 1.383 1_554 S
C159 C160 1.393 . S
C160 H132 0.931 . S
C160 C159 1.393 . S
C160 C161 1.382 . S
C161 H131 0.929 . S
C161 C156 1.371 . S
C161 C160 1.382 . S
C162 N125 1.423 . S
C162 C163 1.362 . S
C162 C167 1.388 . S
C163 H133 0.929 . S
C163 C162 1.362 . S
C163 C164 1.376 . S
C164 H135 0.931 . S
C164 C163 1.376 . S
C164 C165 1.396 . S
C165 C164 1.396 . S
C165 C166 1.348 . S
C165 C183 1.472 . S
C166 H136 0.929 . S
C166 C165 1.348 . S
C166 C167 1.443 . S
C167 H134 0.932 1_554 S
C167 C162 1.388 . S
C167 C166 1.443 . S
C168 N148 1.433 . S
C168 C169 1.363 . S
C168 C173 1.379 . S
C169 H137 0.929 . S
C169 C168 1.363 . S
C169 C170 1.385 . S
C170 H138 0.930 . S
C170 C169 1.385 . S
C170 C171 1.357 . S
C171 C170 1.357 . S
C171 C172 1.406 1_554 S
C172 H139 0.929 . S
C172 C171 1.406 1_556 S
C172 C173 1.389 1_556 S
C173 H140 0.924 1_554 S
C173 C168 1.379 . S
C173 C172 1.389 1_554 S
C174 N148 1.435 . S
C174 C175 1.358 1_554 S
C174 C179 1.371 . S
C175 H141 0.930 . S
C175 C174 1.358 1_556 S
C175 C176 1.405 . S
C176 H142 0.932 . S
C176 C175 1.405 . S
C176 C177 1.383 1_556 S
C177 C176 1.383 1_554 S
C177 C178 1.393 . S
C178 H143 0.931 . S
C178 C177 1.393 . S
C178 C179 1.382 . S
C179 H144 0.929 . S
C179 C174 1.371 . S
C179 C178 1.382 . S
C180 N148 1.423 . S
C180 C181 1.362 . S
C180 C185 1.388 . S
C181 H145 0.929 . S
C181 C180 1.362 . S
C181 C182 1.376 . S
C182 H146 0.931 . S
C182 C181 1.376 . S
C182 C183 1.396 . S
C183 C165 1.472 . S
C183 C182 1.396 . S
C183 C184 1.348 . S
C184 H147 0.929 . S
C184 C183 1.348 . S
C184 C185 1.443 . S
C185 H149 0.932 1_554 S
C185 C180 1.388 . S
C185 C184 1.443 . S
Zn186 O188 1.933 1_556 S
Zn186 O206 1.985 . S
Zn186 O217 1.955 . S
Zn187 O188 1.911 . S
Zn187 O207 1.970 . S
Zn187 O223 1.945 . S
Zn187 O230 1.981 . S
O188 Zn186 1.933 1_554 S
O188 Zn187 1.911 . S
O188 H189 0.841 . S
H189 O188 0.841 . S
C190 O191 1.246 . S
C190 O219 1.276 1_455 S
O191 C190 1.246 . S
Zn192 O194 1.911 . S
Zn192 O209 1.970 . S
Zn192 O226 1.945 . S
Zn192 O233 1.981 1_655 S
Zn193 O194 1.933 1_556 S
Zn193 O208 1.985 . S
Zn193 O215 1.955 . S
O194 Zn192 1.911 . S
O194 Zn193 1.933 1_554 S
O194 H195 0.841 . S
H195 O194 0.841 . S
Zn196 O197 1.933 1_556 S
Zn196 O210 1.985 . S
Zn196 O219 1.955 . S
O197 Zn196 1.933 1_554 S
O197 Zn198 1.911 . S
O197 H199 0.841 1_655 S
Zn198 O197 1.911 . S
Zn198 O211 1.970 . S
Zn198 O227 1.981 . S
Zn198 O229 1.945 . S
H199 O197 0.841 1_455 S
Zn200 O201 1.933 1_556 S
Zn200 O213 1.985 . S
Zn200 O221 1.955 . S
O201 Zn200 1.933 1_554 S
O201 H202 0.841 . S
O201 Zn203 1.911 . S
H202 O201 0.841 . S
Zn203 O201 1.911 . S
Zn203 O214 1.970 . S
Zn203 O224 1.981 . S
Zn203 O232 1.945 . S
C204 O205 1.246 . S
C204 O221 1.276 . S
O205 C204 1.246 . S
O206 Zn186 1.985 . S
O206 C216 1.245 1_556 S
O207 Zn187 1.970 . S
O207 C216 1.263 . S
O208 Zn193 1.985 . S
O208 C220 1.245 1_556 S
O209 Zn192 1.970 . S
O209 C220 1.263 . S
O210 Zn196 1.985 . S
O210 C225 1.245 1_556 S
O211 Zn198 1.970 . S
O211 C225 1.263 . S
C212 O223 1.276 . S
C212 O224 1.237 1_545 S
O213 Zn200 1.985 . S
O213 C231 1.245 1_556 S
O214 Zn203 1.970 . S
O214 C231 1.263 . S
O215 Zn193 1.955 . S
O215 C234 1.276 1_565 S
C216 O206 1.245 1_554 S
C216 O207 1.263 . S
O217 Zn186 1.955 . S
O217 C236 1.276 1_545 S
C218 O226 1.248 1_545 S
C218 O227 1.253 . S
O219 C190 1.276 1_655 S
O219 Zn196 1.955 . S
C220 O208 1.245 1_554 S
C220 O209 1.263 . S
O221 Zn200 1.955 . S
O221 C204 1.276 . S
C222 O229 1.262 1_455 S
C222 O230 1.245 . S
O223 Zn187 1.945 . S
O223 C212 1.276 . S
O224 Zn203 1.981 . S
O224 C212 1.237 1_565 S
C225 O210 1.245 1_554 S
C225 O211 1.263 . S
O226 Zn192 1.945 . S
O226 C218 1.248 1_565 S
O227 Zn198 1.981 . S
O227 C218 1.253 . S
C228 O232 1.262 . S
C228 O233 1.245 . S
O229 Zn198 1.945 . S
O229 C222 1.262 1_655 S
O230 Zn187 1.981 . S
O230 C222 1.245 . S
C231 O213 1.245 1_554 S
C231 O214 1.263 . S
O232 Zn203 1.945 . S
O232 C228 1.262 . S
O233 Zn192 1.981 1_455 S
O233 C228 1.245 . S
C234 O215 1.276 1_545 S
C234 O235 1.246 . S
O235 C234 1.246 . S
C236 O217 1.276 1_565 S
C236 O237 1.246 . S
O237 C236 1.246 . S
H238 C256 0.951 . S
H239 C258 0.951 . S
H240 C260 0.950 . S
H241 C261 0.950 . S
H242 C263 0.950 1_655 S
H243 C266 0.950 . S
H244 C267 0.950 . S
H245 C269 0.950 . S
H246 C270 0.950 . S
H247 C271 0.951 1_655 S
H248 C273 0.951 1_655 S
H249 C275 0.950 . S
H250 C276 0.950 . S
H251 C278 0.950 . S
H252 C281 0.950 . S
H253 C282 0.950 . S
H254 C284 0.950 . S
H255 C285 0.950 . S
C256 H238 0.951 . S
C256 C257 1.366 . S
C256 C258 1.388 . S
C257 C256 1.366 . S
C257 C261 1.385 1_455 S
C258 H239 0.951 . S
C258 C256 1.388 . S
C258 C259 1.366 . S
C259 C258 1.366 . S
C259 C260 1.414 1_455 S
C259 C262 1.499 . S
C260 H240 0.950 . S
C260 C259 1.414 1_655 S
C260 C261 1.374 . S
C261 H241 0.950 . S
C261 C257 1.385 1_655 S
C261 C260 1.374 . S
C262 C259 1.499 . S
C262 C263 1.373 . S
C262 C264 1.389 . S
C263 H242 0.950 1_455 S
C263 C262 1.373 . S
C263 C279 1.377 . S
C264 C262 1.389 . S
C264 C265 1.524 . S
C264 C278 1.377 . S
C265 C264 1.524 . S
C265 C266 1.397 . S
C265 C270 1.363 . S
C266 H243 0.950 . S
C266 C265 1.397 . S
C266 C267 1.334 . S
C267 H244 0.950 . S
C267 C266 1.334 . S
C267 C268 1.287 . S
C268 C267 1.287 . S
C268 C269 1.524 . S
C268 H287 0.913 . S
C269 H245 0.950 . S
C269 C268 1.524 . S
C269 C270 1.415 . S
C270 H246 0.950 . S
C270 C265 1.363 . S
C270 C269 1.415 . S
C271 H247 0.951 1_455 S
C271 C272 1.366 . S
C271 C273 1.388 . S
C272 C271 1.366 . S
C272 C276 1.385 . S
C273 H248 0.951 1_455 S
C273 C271 1.388 . S
C273 C274 1.366 . S
C274 C273 1.366 . S
C274 C275 1.414 . S
C274 C277 1.499 . S
C275 H249 0.950 . S
C275 C274 1.414 . S
C275 C276 1.374 . S
C276 H250 0.950 . S
C276 C272 1.385 . S
C276 C275 1.374 . S
C277 C274 1.499 . S
C277 C278 1.373 . S
C277 C279 1.389 . S
C278 H251 0.950 . S
C278 C264 1.377 . S
C278 C277 1.373 . S
C279 C263 1.377 . S
C279 C277 1.389 . S
C279 C280 1.524 1_455 S
C280 C279 1.524 1_655 S
C280 C281 1.397 1_655 S
C280 C285 1.363 . S
C281 H252 0.950 . S
C281 C280 1.397 1_455 S
C281 C282 1.334 1_455 S
C282 H253 0.950 . S
C282 C281 1.334 1_655 S
C282 C283 1.287 . S
C283 C282 1.287 . S
C283 C284 1.524 . S
C283 H286 0.999 . S
C284 H254 0.950 . S
C284 C283 1.524 . S
C284 C285 1.415 . S
C285 H255 0.950 . S
C285 C280 1.363 . S
C285 C284 1.415 . S
H286 C283 0.999 . S
H287 C268 0.913 . S
H288 C306 0.951 . S
H289 C308 0.951 . S
H290 C310 0.950 . S
H291 C311 0.950 . S
H292 C313 0.948 1_565 S
H293 C316 0.950 . S
H294 C317 0.950 . S
H295 C319 0.950 . S
H296 C320 0.950 1_565 S
H297 C321 0.951 . S
H298 C323 0.951 . S
H299 C325 0.950 . S
H300 C326 0.950 . S
H301 C328 0.950 . S
H302 C331 0.950 . S
H303 C332 0.950 . S
H304 C334 0.950 1_545 S
H305 C335 0.950 . S
C306 H288 0.951 . S
C306 C307 1.366 1_565 S
C306 C308 1.388 . S
C307 C306 1.366 1_545 S
C307 C311 1.385 . S
C308 H289 0.951 . S
C308 C306 1.388 . S
C308 C309 1.366 1_565 S
C309 C308 1.366 1_545 S
C309 C310 1.414 . S
C309 C312 1.499 . S
C310 H290 0.950 . S
C310 C309 1.414 . S
C310 C311 1.374 . S
C311 H291 0.950 . S
C311 C307 1.385 . S
C311 C310 1.374 . S
C312 C309 1.499 . S
C312 C313 1.376 . S
C312 C314 1.389 . S
C313 H292 0.948 1_545 S
C313 C312 1.376 . S
C313 C329 1.376 1_545 S
C314 C312 1.389 . S
C314 C315 1.524 . S
C314 C328 1.377 . S
C315 C314 1.524 . S
C315 C316 1.397 . S
C315 C320 1.363 . S
C316 H293 0.950 . S
C316 C315 1.397 . S
C316 C317 1.334 . S
C317 H294 0.950 . S
C317 C316 1.334 . S
C317 C318 1.287 . S
C318 C317 1.287 . S
C318 C319 1.524 . S
C318 H337 0.913 . S
C319 H295 0.950 . S
C319 C318 1.524 . S
C319 C320 1.415 . S
C320 H296 0.950 1_545 S
C320 C315 1.363 . S
C320 C319 1.415 . S
C321 H297 0.951 . S
C321 C322 1.366 . S
C321 C323 1.388 . S
C322 C321 1.366 . S
C322 C326 1.385 1_545 S
C323 H298 0.951 . S
C323 C321 1.388 . S
C323 C324 1.366 . S
C324 C323 1.366 . S
C324 C325 1.414 1_545 S
C324 C327 1.499 . S
C325 H299 0.950 . S
C325 C324 1.414 1_565 S
C325 C326 1.374 . S
C326 H300 0.950 . S
C326 C322 1.385 1_565 S
C326 C325 1.374 . S
C327 C324 1.499 . S
C327 C328 1.373 . S
C327 C329 1.389 1_545 S
C328 H301 0.950 . S
C328 C314 1.377 . S
C328 C327 1.373 . S
C329 C313 1.376 1_565 S
C329 C327 1.389 1_565 S
C329 C330 1.524 . S
C330 C329 1.524 . S
C330 C331 1.397 . S
C330 C335 1.363 1_565 S
C331 H302 0.950 . S
C331 C330 1.397 . S
C331 C332 1.334 . S
C332 H303 0.950 . S
C332 C331 1.334 . S
C332 C333 1.287 . S
C333 C332 1.287 . S
C333 C334 1.524 . S
C333 H336 0.999 . S
C334 H304 0.950 1_565 S
C334 C333 1.524 . S
C334 C335 1.415 1_565 S
C335 H305 0.950 . S
C335 C330 1.363 1_545 S
C335 C334 1.415 1_545 S
H336 C333 0.999 . S
H337 C318 0.913 . S
H338 C356 0.951 . S
H339 C358 0.951 . S
H340 C360 0.950 . S
H341 C361 0.950 . S
H342 C363 0.950 . S
H343 C366 0.950 . S
H344 C367 0.950 . S
H345 C369 0.950 . S
H346 C370 0.950 . S
H347 C371 0.951 . S
H348 C373 0.951 . S
H349 C375 0.950 . S
H350 C376 0.950 . S
H351 C378 0.950 . S
H352 C381 0.950 . S
H353 C382 0.950 . S
H354 C384 0.950 . S
H355 C385 0.950 . S
C356 H338 0.951 . S
C356 C357 1.366 . S
C356 C358 1.388 . S
C357 C356 1.366 . S
C357 C361 1.385 . S
C358 H339 0.951 . S
C358 C356 1.388 . S
C358 C359 1.366 . S
C359 C358 1.366 . S
C359 C360 1.414 . S
C359 C362 1.499 . S
C360 H340 0.950 . S
C360 C359 1.414 . S
C360 C361 1.374 . S
C361 H341 0.950 . S
C361 C357 1.385 . S
C361 C360 1.374 . S
C362 C359 1.499 . S
C362 C363 1.373 . S
C362 C364 1.389 1_455 S
C363 H342 0.950 . S
C363 C362 1.373 . S
C363 C379 1.377 . S
C364 C362 1.389 1_655 S
C364 C365 1.524 . S
C364 C378 1.377 . S
C365 C364 1.524 . S
C365 C366 1.397 . S
C365 C370 1.363 . S
C366 H343 0.950 . S
C366 C365 1.397 . S
C366 C367 1.334 . S
C367 H344 0.950 . S
C367 C366 1.334 . S
C367 C368 1.287 . S
C368 C367 1.287 . S
C368 C369 1.524 . S
C368 H387 0.913 . S
C369 H345 0.950 . S
C369 C368 1.524 . S
C369 C370 1.415 . S
C370 H346 0.950 . S
C370 C365 1.363 . S
C370 C369 1.415 . S
C371 H347 0.951 . S
C371 C372 1.366 . S
C371 C373 1.388 . S
C372 C371 1.366 . S
C372 C376 1.385 . S
C373 H348 0.951 . S
C373 C371 1.388 . S
C373 C374 1.366 . S
C374 C373 1.366 . S
C374 C375 1.414 . S
C374 C377 1.499 . S
C375 H349 0.950 . S
C375 C374 1.414 . S
C375 C376 1.374 . S
C376 H350 0.950 . S
C376 C372 1.385 . S
C376 C375 1.374 . S
C377 C374 1.499 . S
C377 C378 1.373 1_455 S
C377 C379 1.389 . S
C378 H351 0.950 . S
C378 C364 1.377 . S
C378 C377 1.373 1_655 S
C379 C363 1.377 . S
C379 C377 1.389 . S
C379 C380 1.524 . S
C380 C379 1.524 . S
C380 C381 1.397 . S
C380 C385 1.363 . S
C381 H352 0.950 . S
C381 C380 1.397 . S
C381 C382 1.334 . S
C382 H353 0.950 . S
C382 C381 1.334 . S
C382 C383 1.287 . S
C383 C382 1.287 . S
C383 C384 1.524 . S
C383 H386 0.999 . S
C384 H354 0.950 . S
C384 C383 1.524 . S
C384 C385 1.415 . S
C385 H355 0.950 . S
C385 C380 1.363 . S
C385 C384 1.415 . S
H386 C383 0.999 . S
H387 C368 0.913 . S
H388 C406 0.951 . S
H389 C408 0.951 . S
H390 C410 0.950 . S
H391 C411 0.950 . S
H392 C413 0.950 . S
H393 C416 0.950 . S
H394 C417 0.950 . S
H395 C419 0.950 . S
H396 C420 0.950 1_545 S
H397 C421 0.951 . S
H398 C423 0.951 . S
H399 C425 0.950 . S
H400 C426 0.950 . S
H401 C428 0.950 . S
H402 C431 0.950 . S
H403 C432 0.950 . S
H404 C434 0.950 . S
H405 C435 0.950 1_565 S
C406 H388 0.951 . S
C406 C407 1.381 . S
C406 C408 1.388 . S
C407 C406 1.381 . S
C407 C411 1.368 1_545 S
C408 H389 0.951 . S
C408 C406 1.388 . S
C408 C409 1.366 1_545 S
C409 C408 1.366 1_565 S
C409 C410 1.414 . S
C409 C412 1.499 . S
C410 H390 0.950 . S
C410 C409 1.414 . S
C410 C411 1.374 . S
C411 H391 0.950 . S
C411 C407 1.368 1_565 S
C411 C410 1.374 . S
C412 C409 1.499 . S
C412 C413 1.373 1_565 S
C412 C414 1.389 . S
C413 H392 0.950 . S
C413 C412 1.373 1_545 S
C413 C429 1.377 . S
C414 C412 1.389 . S
C414 C415 1.524 . S
C414 C428 1.377 . S
C415 C414 1.524 . S
C415 C416 1.397 . S
C415 C420 1.363 . S
C416 H393 0.950 . S
C416 C415 1.397 . S
C416 C417 1.334 . S
C417 H394 0.950 . S
C417 C416 1.334 . S
C417 C418 1.287 . S
C418 C417 1.287 . S
C418 C419 1.524 . S
C418 H437 0.913 . S
C419 H395 0.950 . S
C419 C418 1.524 . S
C419 C420 1.415 . S
C420 H396 0.950 1_565 S
C420 C415 1.363 . S
C420 C419 1.415 . S
C421 H397 0.951 . S
C421 C422 1.366 . S
C421 C423 1.388 . S
C422 C421 1.366 . S
C422 C426 1.385 1_565 S
C423 H398 0.951 . S
C423 C421 1.388 . S
C423 C424 1.366 . S
C424 C423 1.366 . S
C424 C425 1.414 1_565 S
C424 C427 1.499 . S
C425 H399 0.950 . S
C425 C424 1.414 1_545 S
C425 C426 1.374 . S
C426 H400 0.950 . S
C426 C422 1.385 1_545 S
C426 C425 1.374 . S
C427 C424 1.499 . S
C427 C428 1.373 . S
C427 C429 1.389 1_565 S
C428 H401 0.950 . S
C428 C414 1.377 . S
C428 C427 1.373 . S
C429 C413 1.377 . S
C429 C427 1.389 1_545 S
C429 C430 1.524 . S
C430 C429 1.524 . S
C430 C431 1.397 . S
C430 C435 1.363 . S
C431 H402 0.950 . S
C431 C430 1.397 . S
C431 C432 1.334 . S
C432 H403 0.950 . S
C432 C431 1.334 . S
C432 C433 1.287 . S
C433 C432 1.287 . S
C433 C434 1.524 . S
C433 H436 0.999 . S
C434 H404 0.950 . S
C434 C433 1.524 . S
C434 C435 1.415 . S
C435 H405 0.950 1_545 S
C435 C430 1.363 . S
C435 C434 1.415 . S
H436 C433 0.999 . S
H437 C418 0.913 . S
H438 C456 0.951 . S
H439 C458 0.951 . S
H440 C460 0.950 . S
H441 C461 0.950 . S
H442 C463 0.950 1_655 S
H443 C466 0.950 . S
H444 C467 0.950 . S
H445 C469 0.950 . S
H446 C470 0.950 . S
H447 C471 0.951 . S
H448 C473 0.951 . S
H449 C475 0.950 . S
H450 C476 0.950 . S
H451 C478 0.950 . S
H452 C481 0.950 . S
H453 C482 0.950 . S
H454 C484 0.950 . S
H455 C485 0.950 . S
C456 H438 0.951 . S
C456 C457 1.366 . S
C456 C458 1.388 . S
C457 C456 1.366 . S
C457 C461 1.385 . S
C458 H439 0.951 . S
C458 C456 1.388 . S
C458 C459 1.366 . S
C459 C458 1.366 . S
C459 C460 1.414 . S
C459 C462 1.499 . S
C460 H440 0.950 . S
C460 C459 1.414 . S
C460 C461 1.374 . S
C461 H441 0.950 . S
C461 C457 1.385 . S
C461 C460 1.374 . S
C462 C459 1.499 . S
C462 C463 1.373 . S
C462 C464 1.389 . S
C463 H442 0.950 1_455 S
C463 C462 1.373 . S
C463 C479 1.377 1_455 S
C464 C462 1.389 . S
C464 C465 1.524 . S
C464 C478 1.377 . S
C465 C464 1.524 . S
C465 C466 1.397 . S
C465 C470 1.363 . S
C466 H443 0.950 . S
C466 C465 1.397 . S
C466 C467 1.334 . S
C467 H444 0.950 . S
C467 C466 1.334 . S
C467 C468 1.287 . S
C468 C467 1.287 . S
C468 C469 1.524 . S
C468 H487 0.913 . S
C469 H445 0.950 . S
C469 C468 1.524 . S
C469 C470 1.415 . S
C470 H446 0.950 . S
C470 C465 1.363 . S
C470 C469 1.415 . S
C471 H447 0.951 . S
C471 C472 1.366 . S
C471 C473 1.388 . S
C472 C471 1.366 . S
C472 C476 1.385 . S
C473 H448 0.951 . S
C473 C471 1.388 . S
C473 C474 1.366 . S
C474 C473 1.366 . S
C474 C475 1.414 . S
C474 C477 1.499 . S
C475 H449 0.950 . S
C475 C474 1.414 . S
C475 C476 1.374 . S
C476 H450 0.950 . S
C476 C472 1.385 . S
C476 C475 1.374 . S
C477 C474 1.499 . S
C477 C478 1.373 . S
C477 C479 1.389 1_455 S
C478 H451 0.950 . S
C478 C464 1.377 . S
C478 C477 1.373 . S
C479 C463 1.377 1_655 S
C479 C477 1.389 1_655 S
C479 C480 1.524 . S
C480 C479 1.524 . S
C480 C481 1.397 . S
C480 C485 1.363 . S
C481 H452 0.950 . S
C481 C480 1.397 . S
C481 C482 1.334 . S
C482 H453 0.950 . S
C482 C481 1.334 . S
C482 C483 1.287 . S
C483 C482 1.287 . S
C483 C484 1.524 . S
C483 H486 0.999 . S
C484 H454 0.950 . S
C484 C483 1.524 . S
C484 C485 1.415 . S
C485 H455 0.950 . S
C485 C480 1.363 . S
C485 C484 1.415 . S
H486 C483 0.999 . S
H487 C468 0.913 . S
H488 C506 0.951 . S
H489 C508 0.951 . S
H490 C510 0.950 . S
H491 C511 0.950 . S
H492 C513 0.950 . S
H493 C516 0.950 . S
H494 C517 0.950 . S
H495 C519 0.950 . S
H496 C520 0.950 . S
H497 C521 0.951 . S
H498 C523 0.951 . S
H499 C525 0.950 . S
H500 C526 0.950 . S
H501 C528 0.950 . S
H502 C531 0.950 . S
H503 C532 0.950 1_545 S
H504 C534 0.950 . S
H505 C535 0.950 . S
C506 H488 0.951 . S
C506 C507 1.383 . S
C506 C508 1.388 . S
C507 C506 1.383 . S
C507 C511 1.367 1_545 S
C508 H489 0.951 . S
C508 C506 1.388 . S
C508 C509 1.366 1_545 S
C509 C508 1.366 1_565 S
C509 C510 1.414 . S
C509 C512 1.499 . S
C510 H490 0.950 . S
C510 C509 1.414 . S
C510 C511 1.374 . S
C511 H491 0.950 . S
C511 C507 1.367 1_565 S
C511 C510 1.374 . S
C512 C509 1.499 . S
C512 C513 1.373 . S
C512 C514 1.389 1_565 S
C513 H492 0.950 . S
C513 C512 1.373 . S
C513 C529 1.377 . S
C514 C512 1.389 1_545 S
C514 C515 1.524 . S
C514 C528 1.377 . S
C515 C514 1.524 . S
C515 C516 1.397 1_545 S
C515 C520 1.363 . S
C516 H493 0.950 . S
C516 C515 1.397 1_565 S
C516 C517 1.334 . S
C517 H494 0.950 . S
C517 C516 1.334 . S
C517 C518 1.287 1_565 S
C518 C517 1.287 1_545 S
C518 C519 1.524 . S
C518 H537 0.913 . S
C519 H495 0.950 . S
C519 C518 1.524 . S
C519 C520 1.415 . S
C520 H496 0.950 . S
C520 C515 1.363 . S
C520 C519 1.415 . S
C521 H497 0.951 . S
C521 C522 1.366 . S
C521 C523 1.388 . S
C522 C521 1.366 . S
C522 C526 1.385 1_565 S
C523 H498 0.951 . S
C523 C521 1.388 . S
C523 C524 1.366 . S
C524 C523 1.366 . S
C524 C525 1.414 1_565 S
C524 C527 1.499 . S
C525 H499 0.950 . S
C525 C524 1.414 1_545 S
C525 C526 1.374 . S
C526 H500 0.950 . S
C526 C522 1.385 1_545 S
C526 C525 1.374 . S
C527 C524 1.499 . S
C527 C528 1.373 1_565 S
C527 C529 1.389 . S
C528 H501 0.950 . S
C528 C514 1.377 . S
C528 C527 1.373 1_545 S
C529 C513 1.377 . S
C529 C527 1.389 . S
C529 C530 1.524 . S
C530 C529 1.524 . S
C530 C531 1.397 1_565 S
C530 C535 1.363 . S
C531 H502 0.950 . S
C531 C530 1.397 1_545 S
C531 C532 1.334 1_545 S
C532 H503 0.950 1_565 S
C532 C531 1.334 1_565 S
C532 C533 1.287 . S
C533 C532 1.287 . S
C533 C534 1.524 . S
C533 H536 0.999 . S
C534 H504 0.950 . S
C534 C533 1.524 . S
C534 C535 1.415 . S
C535 H505 0.950 . S
C535 C530 1.363 . S
C535 C534 1.415 . S
H536 C533 0.999 . S
H537 C518 0.913 . S
H538 C556 0.951 . S
H539 C558 0.951 . S
H540 C560 0.950 1_655 S
H541 C561 0.948 . S
H542 C563 0.950 1_655 S
H543 C566 0.950 . S
H544 C567 0.950 . S
H545 C569 0.950 . S
H546 C570 0.950 . S
H547 C571 0.951 1_655 S
H548 C573 0.951 1_655 S
H549 C575 0.950 . S
H550 C576 0.950 . S
H551 C578 0.950 . S
H552 C581 0.950 1_455 S
H553 C582 0.950 . S
H554 C584 0.950 . S
H555 C585 0.950 . S
C556 H538 0.951 . S
C556 C557 1.366 . S
C556 C558 1.388 . S
C557 C556 1.366 . S
C557 C561 1.387 1_455 S
C558 H539 0.951 . S
C558 C556 1.388 . S
C558 C559 1.366 . S
C559 C558 1.366 . S
C559 C560 1.414 . S
C559 C562 1.499 . S
C560 H540 0.950 1_455 S
C560 C559 1.414 . S
C560 C561 1.374 1_455 S
C561 H541 0.948 . S
C561 C557 1.387 1_655 S
C561 C560 1.374 1_655 S
C562 C559 1.499 . S
C562 C563 1.373 . S
C562 C564 1.389 . S
C563 H542 0.950 1_455 S
C563 C562 1.373 . S
C563 C579 1.377 . S
C564 C562 1.389 . S
C564 C565 1.524 . S
C564 C578 1.377 . S
C565 C564 1.524 . S
C565 C566 1.397 . S
C565 C570 1.363 . S
C566 H543 0.950 . S
C566 C565 1.397 . S
C566 C567 1.334 . S
C567 H544 0.950 . S
C567 C566 1.334 . S
C567 C568 1.287 . S
C568 C567 1.287 . S
C568 C569 1.524 . S
C568 H587 0.913 . S
C569 H545 0.950 . S
C569 C568 1.524 . S
C569 C570 1.415 . S
C570 H546 0.950 . S
C570 C565 1.363 . S
C570 C569 1.415 . S
C571 H547 0.951 1_455 S
C571 C572 1.366 . S
C571 C573 1.388 . S
C572 C571 1.366 . S
C572 C576 1.385 . S
C573 H548 0.951 1_455 S
C573 C571 1.388 . S
C573 C574 1.366 . S
C574 C573 1.366 . S
C574 C575 1.414 . S
C574 C577 1.499 . S
C575 H549 0.950 . S
C575 C574 1.414 . S
C575 C576 1.374 . S
C576 H550 0.950 . S
C576 C572 1.385 . S
C576 C575 1.374 . S
C577 C574 1.499 . S
C577 C578 1.373 . S
C577 C579 1.389 . S
C578 H551 0.950 . S
C578 C564 1.377 . S
C578 C577 1.373 . S
C579 C563 1.377 . S
C579 C577 1.389 . S
C579 C580 1.524 1_455 S
C580 C579 1.524 1_655 S
C580 C581 1.397 . S
C580 C585 1.363 . S
C581 H552 0.950 1_655 S
C581 C580 1.397 . S
C581 C582 1.334 . S
C582 H553 0.950 . S
C582 C581 1.334 . S
C582 C583 1.287 . S
C583 C582 1.287 . S
C583 C584 1.524 . S
C583 H586 0.999 . S
C584 H554 0.950 . S
C584 C583 1.524 . S
C584 C585 1.415 . S
C585 H555 0.950 . S
C585 C580 1.363 . S
C585 C584 1.415 . S
H586 C583 0.999 . S
H587 C568 0.913 . S
H588 C606 0.951 . S
H589 C608 0.951 . S
H590 C610 0.950 . S
H591 C611 0.950 . S
H592 C613 0.950 . S
H593 C616 0.950 . S
H594 C617 0.950 . S
H595 C619 0.950 . S
H596 C620 0.950 . S
H597 C621 0.941 1_565 S
H598 C623 0.945 1_565 S
H599 C625 0.950 . S
H600 C626 0.950 . S
H601 C628 0.950 . S
H602 C631 0.950 . S
H603 C632 0.950 . S
H604 C634 0.950 . S
H605 C635 0.950 . S
C606 H588 0.951 . S
C606 C607 1.366 . S
C606 C608 1.388 . S
C607 C606 1.366 . S
C607 C611 1.385 1_545 S
C608 H589 0.951 . S
C608 C606 1.388 . S
C608 C609 1.366 . S
C609 C608 1.366 . S
C609 C610 1.414 1_545 S
C609 C612 1.499 . S
C610 H590 0.950 . S
C610 C609 1.414 1_565 S
C610 C611 1.374 . S
C611 H591 0.950 . S
C611 C607 1.385 1_565 S
C611 C610 1.374 . S
C612 C609 1.499 . S
C612 C613 1.373 . S
C612 C614 1.389 1_545 S
C613 H592 0.950 . S
C613 C612 1.373 . S
C613 C629 1.377 . S
C614 C612 1.389 1_565 S
C614 C615 1.524 . S
C614 C628 1.377 . S
C615 C614 1.524 . S
C615 C616 1.397 . S
C615 C620 1.363 . S
C616 H593 0.950 . S
C616 C615 1.397 . S
C616 C617 1.334 . S
C617 H594 0.950 . S
C617 C616 1.334 . S
C617 C618 1.287 . S
C618 C617 1.287 . S
C618 C619 1.524 . S
C618 H637 0.913 . S
C619 H595 0.950 . S
C619 C618 1.524 . S
C619 C620 1.415 . S
C620 H596 0.950 . S
C620 C615 1.363 . S
C620 C619 1.415 . S
C621 H597 0.941 1_545 S
C621 C622 1.377 . S
C621 C623 1.388 . S
C622 C621 1.377 . S
C622 C626 1.385 . S
C623 H598 0.945 1_545 S
C623 C621 1.388 . S
C623 C624 1.372 . S
C624 C623 1.372 . S
C624 C625 1.414 . S
C624 C627 1.499 . S
C625 H599 0.950 . S
C625 C624 1.414 . S
C625 C626 1.374 . S
C626 H600 0.950 . S
C626 C622 1.385 . S
C626 C625 1.374 . S
C627 C624 1.499 . S
C627 C628 1.373 1_545 S
C627 C629 1.389 . S
C628 H601 0.950 . S
C628 C614 1.377 . S
C628 C627 1.373 1_565 S
C629 C613 1.377 . S
C629 C627 1.389 . S
C629 C630 1.524 . S
C630 C629 1.524 . S
C630 C631 1.397 . S
C630 C635 1.363 . S
C631 H602 0.950 . S
C631 C630 1.397 . S
C631 C632 1.334 . S
C632 H603 0.950 . S
C632 C631 1.334 . S
C632 C633 1.287 . S
C633 C632 1.287 . S
C633 C634 1.524 . S
C633 H636 0.999 . S
C634 H604 0.950 . S
C634 C633 1.524 . S
C634 C635 1.415 . S
C635 H605 0.950 . S
C635 C630 1.363 . S
C635 C634 1.415 . S
H636 C633 0.999 . S
H637 C618 0.913 . S
H638 C656 0.951 . S
H639 C658 0.951 . S
H640 C660 0.950 . S
H641 C661 0.950 . S
H642 C663 0.950 . S
H643 C666 0.950 . S
H644 C667 0.950 . S
H645 C669 0.950 . S
H646 C670 0.950 . S
H647 C671 0.951 . S
H648 C673 0.951 . S
H649 C675 0.950 . S
H650 C676 0.950 . S
H651 C678 0.950 . S
H652 C681 0.950 1_554 S
H653 C682 0.950 . S
H654 C684 0.950 . S
H655 C685 0.950 . S
C656 H638 0.951 . S
C656 C657 1.366 . S
C656 C658 1.388 . S
C657 C656 1.366 . S
C657 C661 1.385 1_554 S
C658 H639 0.951 . S
C658 C656 1.388 . S
C658 C659 1.366 . S
C659 C658 1.366 . S
C659 C660 1.414 1_554 S
C659 C662 1.499 . S
C660 H640 0.950 . S
C660 C659 1.414 1_556 S
C660 C661 1.374 . S
C661 H641 0.950 . S
C661 C657 1.385 1_556 S
C661 C660 1.374 . S
C662 C659 1.499 . S
C662 C663 1.373 1_554 S
C662 C664 1.389 . S
C663 H642 0.950 . S
C663 C662 1.373 1_556 S
C663 C679 1.377 . S
C664 C662 1.389 . S
C664 C665 1.524 . S
C664 C678 1.377 . S
C665 C664 1.524 . S
C665 C666 1.397 . S
C665 C670 1.363 . S
C666 H643 0.950 . S
C666 C665 1.397 . S
C666 C667 1.334 . S
C667 H644 0.950 . S
C667 C666 1.334 . S
C667 C668 1.287 . S
C668 C667 1.287 . S
C668 C669 1.524 . S
C668 H687 0.913 . S
C669 H645 0.950 . S
C669 C668 1.524 . S
C669 C670 1.415 . S
C670 H646 0.950 . S
C670 C665 1.363 . S
C670 C669 1.415 . S
C671 H647 0.951 . S
C671 C672 1.366 1_556 S
C671 C673 1.388 . S
C672 C671 1.366 1_554 S
C672 C676 1.385 . S
C673 H648 0.951 . S
C673 C671 1.388 . S
C673 C674 1.366 1_556 S
C674 C673 1.366 1_554 S
C674 C675 1.414 . S
C674 C677 1.499 . S
C675 H649 0.950 . S
C675 C674 1.414 . S
C675 C676 1.374 . S
C676 H650 0.950 . S
C676 C672 1.385 . S
C676 C675 1.374 . S
C677 C674 1.499 . S
C677 C678 1.373 . S
C677 C679 1.389 1_554 S
C678 H651 0.950 . S
C678 C664 1.377 . S
C678 C677 1.373 . S
C679 C663 1.377 . S
C679 C677 1.389 1_556 S
C679 C680 1.524 . S
C680 C679 1.524 . S
C680 C681 1.397 . S
C680 C685 1.363 . S
C681 H652 0.950 1_556 S
C681 C680 1.397 . S
C681 C682 1.334 . S
C682 H653 0.950 . S
C682 C681 1.334 . S
C682 C683 1.287 . S
C683 C682 1.287 . S
C683 C684 1.524 . S
C683 H686 0.999 . S
C684 H654 0.950 . S
C684 C683 1.524 . S
C684 C685 1.415 . S
C685 H655 0.950 . S
C685 C680 1.363 . S
C685 C684 1.415 . S
H686 C683 0.999 . S
H687 C668 0.913 . S
H688 C706 0.950 . S
H689 C708 0.954 . S
H690 C710 0.950 . S
H691 C711 0.950 . S
H692 C713 0.950 . S
H693 C716 0.950 . S
H694 C717 0.950 . S
H695 C719 0.950 . S
H696 C720 0.950 . S
H697 C721 0.951 . S
H698 C723 0.951 . S
H699 C725 0.950 1_556 S
H700 C726 0.948 1_556 S
H701 C728 0.950 . S
H702 C731 0.950 . S
H703 C732 0.950 . S
H704 C734 0.950 . S
H705 C735 0.950 . S
C706 H688 0.950 . S
C706 C707 1.366 . S
C706 C708 1.388 . S
C707 C706 1.366 . S
C707 C711 1.385 . S
C708 H689 0.954 . S
C708 C706 1.388 . S
C708 C709 1.366 . S
C709 C708 1.366 . S
C709 C710 1.414 . S
C709 C712 1.499 . S
C710 H690 0.950 . S
C710 C709 1.414 . S
C710 C711 1.374 . S
C711 H691 0.950 . S
C711 C707 1.385 . S
C711 C710 1.374 . S
C712 C709 1.499 . S
C712 C713 1.373 1_554 S
C712 C714 1.389 . S
C713 H692 0.950 . S
C713 C712 1.373 1_556 S
C713 C729 1.377 . S
C714 C712 1.389 . S
C714 C715 1.524 . S
C714 C728 1.377 . S
C715 C714 1.524 . S
C715 C716 1.397 . S
C715 C720 1.363 . S
C716 H693 0.950 . S
C716 C715 1.397 . S
C716 C717 1.334 . S
C717 H694 0.950 . S
C717 C716 1.334 . S
C717 C718 1.287 . S
C718 C717 1.287 . S
C718 C719 1.524 . S
C718 H737 0.913 . S
C719 H695 0.950 . S
C719 C718 1.524 . S
C719 C720 1.415 . S
C720 H696 0.950 . S
C720 C715 1.363 . S
C720 C719 1.415 . S
C721 H697 0.951 . S
C721 C722 1.366 . S
C721 C723 1.388 . S
C722 C721 1.366 . S
C722 C726 1.387 . S
C723 H698 0.951 . S
C723 C721 1.388 . S
C723 C724 1.366 . S
C724 C723 1.366 . S
C724 C725 1.415 . S
C724 C727 1.499 . S
C725 H699 0.950 1_554 S
C725 C724 1.415 . S
C725 C726 1.374 . S
C726 H700 0.948 1_554 S
C726 C722 1.387 . S
C726 C725 1.374 . S
C727 C724 1.499 . S
C727 C728 1.373 . S
C727 C729 1.389 1_554 S
C728 H701 0.950 . S
C728 C714 1.377 . S
C728 C727 1.373 . S
C729 C713 1.377 . S
C729 C727 1.389 1_556 S
C729 C730 1.524 . S
C730 C729 1.524 . S
C730 C731 1.397 . S
C730 C735 1.363 . S
C731 H702 0.950 . S
C731 C730 1.397 . S
C731 C732 1.334 . S
C732 H703 0.950 . S
C732 C731 1.334 . S
C732 C733 1.287 . S
C733 C732 1.287 . S
C733 C734 1.524 . S
C733 H736 0.999 . S
C734 H704 0.950 . S
C734 C733 1.524 . S
C734 C735 1.415 . S
C735 H705 0.950 . S
C735 C730 1.363 . S
C735 C734 1.415 . S
H736 C733 0.999 . S
H737 C718 0.913 . S
H738 C756 0.951 . S
H739 C758 0.951 . S
H740 C760 0.950 . S
H741 C761 0.950 . S
H742 C763 0.950 . S
H743 C766 0.950 . S
H744 C767 0.950 . S
H745 C769 0.950 . S
H746 C770 0.950 . S
H747 C771 0.951 . S
H748 C773 0.951 . S
H749 C775 0.950 . S
H750 C776 0.950 . S
H751 C778 0.950 . S
H752 C781 0.950 . S
H753 C782 0.950 . S
H754 C784 0.950 . S
H755 C785 0.950 . S
C756 H738 0.951 . S
C756 C757 1.366 . S
C756 C758 1.388 . S
C757 C756 1.366 . S
C757 C761 1.385 1_554 S
C758 H739 0.951 . S
C758 C756 1.388 . S
C758 C759 1.366 . S
C759 C758 1.366 . S
C759 C760 1.414 1_554 S
C759 C762 1.499 . S
C760 H740 0.950 . S
C760 C759 1.414 1_556 S
C760 C761 1.374 . S
C761 H741 0.950 . S
C761 C757 1.385 1_556 S
C761 C760 1.374 . S
C762 C759 1.499 . S
C762 C763 1.373 1_554 S
C762 C764 1.389 . S
C763 H742 0.950 . S
C763 C762 1.373 1_556 S
C763 C779 1.377 . S
C764 C762 1.389 . S
C764 C765 1.524 . S
C764 C778 1.377 . S
C765 C764 1.524 . S
C765 C766 1.397 . S
C765 C770 1.363 . S
C766 H743 0.950 . S
C766 C765 1.397 . S
C766 C767 1.334 . S
C767 H744 0.950 . S
C767 C766 1.334 . S
C767 C768 1.287 . S
C768 C767 1.287 . S
C768 C769 1.524 . S
C768 H787 0.913 . S
C769 H745 0.950 . S
C769 C768 1.524 . S
C769 C770 1.415 . S
C770 H746 0.950 . S
C770 C765 1.363 . S
C770 C769 1.415 . S
C771 H747 0.951 . S
C771 C772 1.366 1_556 S
C771 C773 1.388 . S
C772 C771 1.366 1_554 S
C772 C776 1.385 . S
C773 H748 0.951 . S
C773 C771 1.388 . S
C773 C774 1.366 1_556 S
C774 C773 1.366 1_554 S
C774 C775 1.414 . S
C774 C777 1.499 . S
C775 H749 0.950 . S
C775 C774 1.414 . S
C775 C776 1.374 . S
C776 H750 0.950 . S
C776 C772 1.385 . S
C776 C775 1.374 . S
C777 C774 1.499 . S
C777 C778 1.373 . S
C777 C779 1.389 1_554 S
C778 H751 0.950 . S
C778 C764 1.377 . S
C778 C777 1.373 . S
C779 C763 1.377 . S
C779 C777 1.389 1_556 S
C779 C780 1.524 . S
C780 C779 1.524 . S
C780 C781 1.397 . S
C780 C785 1.363 . S
C781 H752 0.950 . S
C781 C780 1.397 . S
C781 C782 1.334 . S
C782 H753 0.950 . S
C782 C781 1.334 . S
C782 C783 1.287 . S
C783 C782 1.287 . S
C783 C784 1.524 . S
C783 H786 0.999 . S
C784 H754 0.950 . S
C784 C783 1.524 . S
C784 C785 1.415 . S
C785 H755 0.950 . S
C785 C780 1.363 . S
C785 C784 1.415 . S
H786 C783 0.999 . S
H787 C768 0.913 . S
H788 C806 0.951 . S
H789 C808 0.951 . S
H790 C810 0.950 . S
H791 C811 0.950 . S
H792 C813 0.950 . S
H793 C816 0.950 . S
H794 C817 0.950 . S
H795 C819 0.950 . S
H796 C820 0.950 . S
H797 C821 0.951 . S
H798 C823 0.951 . S
H799 C825 0.950 . S
H800 C826 0.950 . S
H801 C828 0.950 . S
H802 C831 0.950 . S
H803 C832 0.950 . S
H804 C834 0.950 . S
H805 C835 0.950 . S
C806 H788 0.951 . S
C806 C807 1.366 . S
C806 C808 1.388 . S
C807 C806 1.366 . S
C807 C811 1.385 . S
C808 H789 0.951 . S
C808 C806 1.388 . S
C808 C809 1.366 . S
C809 C808 1.366 . S
C809 C810 1.414 . S
C809 C812 1.499 . S
C810 H790 0.950 . S
C810 C809 1.414 . S
C810 C811 1.374 . S
C811 H791 0.950 . S
C811 C807 1.385 . S
C811 C810 1.374 . S
C812 C809 1.499 . S
C812 C813 1.373 . S
C812 C814 1.389 1_554 S
C813 H792 0.950 . S
C813 C812 1.373 . S
C813 C829 1.377 . S
C814 C812 1.389 1_556 S
C814 C815 1.524 . S
C814 C828 1.377 . S
C815 C814 1.524 . S
C815 C816 1.397 . S
C815 C820 1.363 . S
C816 H793 0.950 . S
C816 C815 1.397 . S
C816 C817 1.334 . S
C817 H794 0.950 . S
C817 C816 1.334 . S
C817 C818 1.287 . S
C818 C817 1.287 . S
C818 C819 1.524 . S
C818 H837 0.913 . S
C819 H795 0.950 . S
C819 C818 1.524 . S
C819 C820 1.415 . S
C820 H796 0.950 . S
C820 C815 1.363 . S
C820 C819 1.415 . S
C821 H797 0.951 . S
C821 C822 1.366 . S
C821 C823 1.388 . S
C822 C821 1.366 . S
C822 C826 1.385 . S
C823 H798 0.951 . S
C823 C821 1.388 . S
C823 C824 1.366 . S
C824 C823 1.366 . S
C824 C825 1.414 . S
C824 C827 1.499 . S
C825 H799 0.950 . S
C825 C824 1.414 . S
C825 C826 1.374 . S
C826 H800 0.950 . S
C826 C822 1.385 . S
C826 C825 1.374 . S
C827 C824 1.499 . S
C827 C828 1.373 1_554 S
C827 C829 1.389 . S
C828 H801 0.950 . S
C828 C814 1.377 . S
C828 C827 1.373 1_556 S
C829 C813 1.377 . S
C829 C827 1.389 . S
C829 C830 1.524 . S
C830 C829 1.524 . S
C830 C831 1.397 . S
C830 C835 1.363 . S
C831 H802 0.950 . S
C831 C830 1.397 . S
C831 C832 1.334 . S
C832 H803 0.950 . S
C832 C831 1.334 . S
C832 C833 1.287 . S
C833 C832 1.287 . S
C833 C834 1.524 . S
C833 H836 0.999 . S
C834 H804 0.950 . S
C834 C833 1.524 . S
C834 C835 1.415 . S
C835 H805 0.950 . S
C835 C830 1.363 . S
C835 C834 1.415 . S
H836 C833 0.999 . S
H837 C818 0.913 . S
C272 C222 2.244 . S
C257 C53 2.320 . S
C322 C218 1.145 . S
C307 C97 1.214 1_545 S
C372 C228 2.247 . S
C357 C35 2.320 . S
C422 C212 1.353 1_565 S
C407 C91 1.380 1_545 S
C457 C29 2.585 . S
C472 C204 2.527 . S
C522 C236 1.479 . S
C507 C109 1.524 1_545 S
C557 C47 2.593 . S
C572 C190 2.529 . S
C607 C115 1.360 1_545 S
C622 C234 1.260 . S
C657 C153 1.055 . S
C672 C216 1.066 . S
C707 C171 1.087 . S
C722 C231 1.103 . S
C772 C225 0.844 . S
C757 C159 0.849 . S
C822 C220 0.885 . S
C807 C177 0.901 . S
