# Generated by pormake.
# Topology cml, (3,6)-cn, num edge types: 1
# Building blocks:
#     Node 0, Type 0, BuildingBlock: PAMTOO_clean_linker_0, # of connection points: 3
#     Node 1, Type 0, BuildingBlock: PAMTOO_clean_linker_0, # of connection points: 3
#     Node 2, Type 0, BuildingBlock: PAMTOO_clean_linker_0, # of connection points: 3
#     Node 3, Type 0, BuildingBlock: PAMTOO_clean_linker_0, # of connection points: 3
#     Node 4, Type 0, BuildingBlock: PAMTOO_clean_linker_0, # of connection points: 3
#     Node 5, Type 0, BuildingBlock: PAMTOO_clean_linker_0, # of connection points: 3
#     Node 6, Type 0, BuildingBlock: PAMTOO_clean_linker_0, # of connection points: 3
#     Node 7, Type 0, BuildingBlock: PAMTOO_clean_linker_0, # of connection points: 3
#     Node 8, Type 1, BuildingBlock: OJICUG_clean_sbu_0, # of connection points: 6
#     Node 9, Type 1, BuildingBlock: OJICUG_clean_sbu_0, # of connection points: 6
#     Node 10, Type 1, BuildingBlock: OJICUG_clean_sbu_0, # of connection points: 6
#     Node 11, Type 1, BuildingBlock: OJICUG_clean_sbu_0, # of connection points: 6
#     Edge 12, Type (0, 1), BuildingBlock: TEMPAE_clean_linker_10, # of connection points: 2
#     Edge 13, Type (0, 1), BuildingBlock: TEMPAE_clean_linker_10, # of connection points: 2
#     Edge 14, Type (0, 1), BuildingBlock: TEMPAE_clean_linker_10, # of connection points: 2
#     Edge 15, Type (0, 1), BuildingBlock: TEMPAE_clean_linker_10, # of connection points: 2
#     Edge 16, Type (0, 1), BuildingBlock: TEMPAE_clean_linker_10, # of connection points: 2
#     Edge 17, Type (0, 1), BuildingBlock: TEMPAE_clean_linker_10, # of connection points: 2
#     Edge 18, Type (0, 1), BuildingBlock: TEMPAE_clean_linker_10, # of connection points: 2
#     Edge 19, Type (0, 1), BuildingBlock: TEMPAE_clean_linker_10, # of connection points: 2
#     Edge 20, Type (0, 1), BuildingBlock: TEMPAE_clean_linker_10, # of connection points: 2
#     Edge 21, Type (0, 1), BuildingBlock: TEMPAE_clean_linker_10, # of connection points: 2
#     Edge 22, Type (0, 1), BuildingBlock: TEMPAE_clean_linker_10, # of connection points: 2
#     Edge 23, Type (0, 1), BuildingBlock: TEMPAE_clean_linker_10, # of connection points: 2
#     Edge 24, Type (0, 1), BuildingBlock: TEMPAE_clean_linker_10, # of connection points: 2
#     Edge 25, Type (0, 1), BuildingBlock: TEMPAE_clean_linker_10, # of connection points: 2
#     Edge 26, Type (0, 1), BuildingBlock: TEMPAE_clean_linker_10, # of connection points: 2
#     Edge 27, Type (0, 1), BuildingBlock: TEMPAE_clean_linker_10, # of connection points: 2
#     Edge 28, Type (0, 1), BuildingBlock: TEMPAE_clean_linker_10, # of connection points: 2
#     Edge 29, Type (0, 1), BuildingBlock: TEMPAE_clean_linker_10, # of connection points: 2
#     Edge 30, Type (0, 1), BuildingBlock: TEMPAE_clean_linker_10, # of connection points: 2
#     Edge 31, Type (0, 1), BuildingBlock: TEMPAE_clean_linker_10, # of connection points: 2
#     Edge 32, Type (0, 1), BuildingBlock: TEMPAE_clean_linker_10, # of connection points: 2
#     Edge 33, Type (0, 1), BuildingBlock: TEMPAE_clean_linker_10, # of connection points: 2
#     Edge 34, Type (0, 1), BuildingBlock: TEMPAE_clean_linker_10, # of connection points: 2
#     Edge 35, Type (0, 1), BuildingBlock: TEMPAE_clean_linker_10, # of connection points: 2
# Relax obj value: 0.007
# Max RMSD: 0.054
# Mean RMSD: 0.044
data_MOF--net-cml--node1-OJICUG_clean_sbu_0--node2-PAMTOO_clean_linker_0--edge1-TEMPAE_clean_linker_10
_symmetry_space_group_name_H-M    P1
_symmetry_Int_Tables_number       1
_symmetry_cell_setting            triclinic
loop_
_symmetry_equiv_pos_as_xyz
'x, y, z'
_cell_length_a     41.108271
_cell_length_b     40.466877
_cell_length_c     35.232944
_cell_angle_alpha  89.902766
_cell_angle_beta   88.119803
_cell_angle_gamma 90.001603
loop_
_atom_site_label
_atom_site_type_symbol
_atom_site_fract_x
_atom_site_fract_y
_atom_site_fract_z
_atom_type_partial_charge
H0 H 0.34151 0.42354 0.03988 0.0
H1 H 0.25861 0.43297 0.96882 0.0
H2 H 0.27153 0.34494 0.03456 0.0
H3 H 0.25988 0.34017 0.94975 0.0
C4 C 0.23901 0.35773 0.94938 0.0
O5 O 0.23615 0.37394 0.98378 0.0
H6 H 0.24392 0.376 0.92629 0.0
C7 C 0.31906 0.41389 0.02908 0.0
C8 C 0.30839 0.38246 0.04103 0.0
C9 C 0.30146 0.43268 0.00311 0.0
C10 C 0.27273 0.41926 0.98893 0.0
C11 C 0.26234 0.38754 -0.00012 0.0
C12 C 0.27982 0.36941 0.0263 0.0
H13 H 0.64622 0.56937 0.5273 0.0
H14 H 0.72185 0.64238 0.53546 0.0
H15 H 0.72327 0.57491 0.44175 0.0
H16 H 0.78844 0.58882 0.47639 0.0
C17 C 0.78373 0.61494 0.48477 0.0
O18 O 0.75321 0.62401 0.47341 0.0
H19 H 0.78507 0.61704 0.51616 0.0
C20 C 0.66816 0.58104 0.51583 0.0
C21 C 0.68264 0.56913 0.48187 0.0
C22 C 0.68198 0.60745 0.53551 0.0
C23 C 0.71096 0.62169 0.52108 0.0
C24 C 0.72587 0.6096 0.48761 0.0
C25 C 0.71181 0.58343 0.46808 0.0
H26 H 0.67381 0.44762 0.06851 0.0
H27 H 0.7486 0.37761 0.03687 0.0
H28 H 0.73441 0.46352 0.96806 0.0
H29 H 0.75995 0.41144 0.91927 0.0
C30 C 0.76107 0.39338 0.94299 0.0
O31 O 0.76836 0.40995 0.97587 0.0
H32 H 0.73682 0.38111 0.946 0.0
C33 C 0.69413 0.44044 0.04992 0.0
C34 C 0.70195 0.45945 0.01751 0.0
C35 C 0.71083 0.41095 0.05718 0.0
C36 C 0.73615 0.40082 0.03227 0.0
C37 C 0.745 0.42037 0.00078 0.0
C38 C 0.72824 0.4497 0.99367 0.0
H39 H 0.35535 0.56926 0.53363 0.0
H40 H 0.28362 0.5773 0.44784 0.0
H41 H 0.28154 0.64458 0.54201 0.0
H42 H 0.2166 0.61514 0.51637 0.0
C43 C 0.22195 0.61709 0.48526 0.0
O44 O 0.25356 0.62783 0.47916 0.0
H45 H 0.21895 0.59232 0.4722 0.0
C46 C 0.33433 0.58152 0.52222 0.0
C47 C 0.32043 0.60853 0.54172 0.0
C48 C 0.32137 0.56995 0.48839 0.0
C49 C 0.29369 0.58544 0.47428 0.0
C50 C 0.27925 0.6121 0.49385 0.0
C51 C 0.29247 0.6235 0.5276 0.0
H52 H 0.84863 0.9208 0.03772 0.0
H53 H 0.7654 0.92804 0.96675 0.0
H54 H 0.77843 0.84215 0.03588 0.0
H55 H 0.76629 0.83423 0.9518 0.0
C56 C 0.74575 0.85212 0.95047 0.0
O57 O 0.74303 0.86953 0.98409 0.0
H58 H 0.75108 0.86951 0.92659 0.0
C59 C 0.82615 0.91083 0.02736 0.0
C60 C 0.81536 0.87984 0.04078 0.0
C61 C 0.8085 0.9288 0.00066 0.0
C62 C 0.77968 0.91495 0.98723 0.0
C63 C 0.76931 0.8836 -0.00053 0.0
C64 C 0.78679 0.86633 0.02658 0.0
H65 H 0.14306 0.07795 0.52476 0.0
H66 H 0.21863 0.15151 0.52731 0.0
H67 H 0.22152 0.07708 0.44078 0.0
H68 H 0.28606 0.09343 0.47421 0.0
C69 C 0.28123 0.11988 0.48096 0.0
O70 O 0.25105 0.12844 0.4681 0.0
H71 H 0.28185 0.12329 0.51226 0.0
C72 C 0.16516 0.0888 0.51261 0.0
C73 C 0.18023 0.0743 0.4804 0.0
C74 C 0.17867 0.11667 0.52983 0.0
C75 C 0.2079 0.12984 0.51472 0.0
C76 C 0.22334 0.11526 0.48293 0.0
C77 C 0.20959 0.08763 0.46582 0.0
H78 H 0.1506 0.92931 0.03782 0.0
H79 H 0.22978 0.86128 0.01731 0.0
H80 H 0.22417 0.95022 0.95145 0.0
H81 H 0.25533 0.90106 0.90477 0.0
C82 C 0.25468 0.88157 0.92704 0.0
O83 O 0.25695 0.89622 0.9622 0.0
H84 H 0.23118 0.86803 0.92489 0.0
C85 C 0.17276 0.92244 0.02225 0.0
C86 C 0.18518 0.94335 0.99347 0.0
C87 C 0.18854 0.89275 0.03112 0.0
C88 C 0.21752 0.88433 0.01135 0.0
C89 C 0.23027 0.90529 0.98288 0.0
C90 C 0.21444 0.93487 0.97436 0.0
H91 H 0.85327 0.07218 0.52924 0.0
H92 H 0.78266 0.07574 0.44181 0.0
H93 H 0.77914 0.14736 0.53162 0.0
H94 H 0.71529 0.1149 0.50712 0.0
C95 C 0.72039 0.117 0.47596 0.0
O96 O 0.75204 0.12749 0.46948 0.0
H97 H 0.71708 0.09234 0.46278 0.0
C98 C 0.83239 0.08378 0.51671 0.0
C99 C 0.81813 0.11158 0.53429 0.0
C100 C 0.81991 0.07055 0.48341 0.0
C101 C 0.79236 0.08518 0.46789 0.0
C102 C 0.7776 0.11264 0.48552 0.0
C103 C 0.79035 0.12571 0.51872 0.0
Sc104 Sc 0.00625 0.78327 0.30431 0.0
Sc105 Sc 0.00563 0.87028 0.30493 0.0
Sc106 Sc 0.00494 0.82719 0.39135 0.0
O107 O 0.00558 0.82683 0.33355 0.0
C108 C 0.95733 0.76688 0.37371 0.0
C109 C 0.9583 0.82704 0.2551 0.0
C110 C 0.95555 0.88568 0.37389 0.0
C111 C 0.05581 0.82714 0.25449 0.0
C112 C 0.05424 0.76829 0.37233 0.0
C113 C 0.0527 0.88766 0.37189 0.0
O114 O 0.96731 0.76286 0.33947 0.0
O115 O 0.96846 0.85427 0.26803 0.0
O116 O 0.96579 0.86291 0.39545 0.0
O117 O 0.04544 0.79908 0.2659 0.0
O118 O 0.04396 0.79185 0.39333 0.0
O119 O 0.04287 0.89157 0.33841 0.0
O120 O 0.0424 0.76178 0.34023 0.0
O121 O 0.04328 0.8542 0.26588 0.0
O122 O 0.04091 0.86585 0.39441 0.0
O123 O 0.96997 0.79926 0.26483 0.0
O124 O 0.96916 0.78843 0.39557 0.0
O125 O 0.96794 0.8912 0.34099 0.0
Sc126 Sc 0.99236 0.21147 0.8079 0.0
Sc127 Sc 0.9939 0.12504 0.81757 0.0
Sc128 Sc 0.98795 0.17484 0.89914 0.0
O129 O 0.99133 0.17051 0.84155 0.0
C130 C 0.03783 0.23254 0.87583 0.0
C131 C 0.04251 0.16566 0.76214 0.0
C132 C 0.04 0.11644 0.8872 0.0
C133 C 0.94547 0.16256 0.76352 0.0
C134 C 0.94026 0.23204 0.87274 0.0
C135 C 0.94342 0.11207 0.88713 0.0
O136 O 0.02804 0.23553 0.84208 0.0
O137 O 0.03038 0.13917 0.77574 0.0
O138 O 0.02515 0.13796 0.90762 0.0
O139 O 0.95697 0.19115 0.77017 0.0
O140 O 0.95063 0.21208 0.89747 0.0
O141 O 0.95823 0.10388 0.85639 0.0
O142 O 0.95273 0.23416 0.83937 0.0
O143 O 0.95564 0.13646 0.77951 0.0
O144 O 0.94975 0.13833 0.90518 0.0
O145 O 0.03209 0.19404 0.77186 0.0
O146 O 0.02571 0.21172 0.8994 0.0
O147 O 0.03238 0.11006 0.85332 0.0
Sc148 Sc 0.50473 0.28551 0.29819 0.0
Sc149 Sc 0.50302 0.37243 0.29902 0.0
Sc150 Sc 0.50415 0.32895 0.38513 0.0
O151 O 0.50398 0.3289 0.32747 0.0
C152 C 0.45639 0.26864 0.36762 0.0
C153 C 0.45522 0.32931 0.25058 0.0
C154 C 0.4547 0.38752 0.36991 0.0
C155 C 0.55226 0.32955 0.24697 0.0
C156 C 0.5532 0.27027 0.36565 0.0
C157 C 0.5517 0.3895 0.36424 0.0
O158 O 0.46537 0.26541 0.33291 0.0
O159 O 0.46394 0.35654 0.26491 0.0
O160 O 0.4644 0.36378 0.39038 0.0
O161 O 0.54456 0.30152 0.26093 0.0
O162 O 0.54389 0.29443 0.38628 0.0
O163 O 0.54214 0.39298 0.33052 0.0
O164 O 0.54037 0.26334 0.33424 0.0
O165 O 0.53829 0.35631 0.25689 0.0
O166 O 0.53939 0.3683 0.38723 0.0
O167 O 0.46883 0.30193 0.2583 0.0
O168 O 0.46911 0.28946 0.38972 0.0
O169 O 0.46726 0.39389 0.33731 0.0
Sc170 Sc 0.49821 0.70515 0.81305 0.0
Sc171 Sc 0.49844 0.61912 0.82735 0.0
Sc172 Sc 0.49134 0.67245 0.90599 0.0
O173 O 0.49596 0.6656 0.8488 0.0
C174 C 0.54267 0.72836 0.88088 0.0
C175 C 0.54852 0.6568 0.77096 0.0
C176 C 0.54283 0.61307 0.89907 0.0
C177 C 0.45149 0.6552 0.77009 0.0
C178 C 0.44509 0.72898 0.87523 0.0
C179 C 0.44601 0.6099 0.89573 0.0
O180 O 0.53377 0.7299 0.84666 0.0
O181 O 0.53616 0.63098 0.78598 0.0
O182 O 0.52795 0.63581 0.91752 0.0
O183 O 0.46303 0.6839 0.77594 0.0
O184 O 0.45449 0.70981 0.90126 0.0
O185 O 0.46133 0.60027 0.8659 0.0
O186 O 0.45848 0.72978 0.84224 0.0
O187 O 0.46132 0.62949 0.78719 0.0
O188 O 0.45258 0.63661 0.91278 0.0
O189 O 0.53805 0.6856 0.77874 0.0
O190 O 0.52952 0.70895 0.90535 0.0
O191 O 0.53574 0.605 0.86545 0.0
C192 C 0.20878 0.30626 0.93105 0.0
C193 C 0.20796 0.3397 0.94131 0.0
C194 C 0.18033 0.28964 0.9212 0.0
C195 C 0.15036 0.30692 0.92162 0.0
C196 C 0.14936 0.34065 0.93225 0.0
C197 C 0.17826 0.35671 0.94173 0.0
C198 C 0.18244 0.25372 0.90982 0.0
C199 C 0.11784 0.35982 0.93319 0.0
C200 C 0.08408 0.27144 0.86106 0.0
C201 C 0.06539 0.25334 0.8879 0.0
C202 C 0.11145 0.28949 0.87178 0.0
C203 C 0.12023 0.28968 0.91029 0.0
C204 C 0.10101 0.27224 0.93769 0.0
C205 C 0.07391 0.25419 0.92617 0.0
C206 C 0.13148 0.30763 0.84169 0.0
C207 C 0.10945 0.2721 0.97909 0.0
H208 H 0.2318 0.29318 0.9303 0.0
H209 H 0.17778 0.38269 0.94921 0.0
H210 H 0.16605 0.23864 0.92854 0.0
H211 H 0.1742 0.2507 0.88035 0.0
H212 H 0.20755 0.24379 0.91138 0.0
H213 H 0.12104 0.38559 0.94326 0.0
H214 H 0.10776 0.36058 0.90438 0.0
H215 H 0.09958 0.34731 0.95212 0.0
H216 H 0.07781 0.27091 0.83143 0.0
H217 H 0.05956 0.24049 0.9472 0.0
H218 H 0.15641 0.2971 0.83978 0.0
H219 H 0.13386 0.33405 0.84946 0.0
H220 H 0.12069 0.30607 0.81325 0.0
H221 H 0.13344 0.26008 0.98247 0.0
H222 H 0.09104 0.25879 0.99713 0.0
H223 H 0.11153 0.2978 0.98965 0.0
C224 C 0.83977 0.62493 0.45606 0.0
C225 C 0.80905 0.63741 0.46678 0.0
C226 C 0.86404 0.64571 0.44042 0.0
C227 C 0.85732 0.67973 0.43543 0.0
C228 C 0.82641 0.69252 0.44652 0.0
C229 C 0.8028 0.67127 0.46262 0.0
C230 C 0.89696 0.63136 0.42963 0.0
C231 C 0.81832 0.72864 0.4415 0.0
C232 C 0.92765 0.74029 0.42868 0.0
C233 C 0.93139 0.74491 0.3893 0.0
C234 C 0.90383 0.7189 0.44403 0.0
C235 C 0.88288 0.70216 0.41944 0.0
C236 C 0.88627 0.70696 0.3797 0.0
C237 C 0.91069 0.72809 0.36506 0.0
C238 C 0.90126 0.71402 0.48654 0.0
C239 C 0.86399 0.6899 0.35269 0.0
H240 H 0.84483 0.5989 0.46012 0.0
H241 H 0.77934 0.68114 0.47184 0.0
H242 H 0.90261 0.63568 0.39902 0.0
H243 H 0.91612 0.64392 0.44574 0.0
H244 H 0.89823 0.60439 0.43533 0.0
H245 H 0.79275 0.73437 0.45029 0.0
H246 H 0.83473 0.74403 0.45852 0.0
H247 H 0.8223 0.73592 0.41132 0.0
H248 H 0.94375 0.75297 0.44758 0.0
H249 H 0.91335 0.7317 0.33462 0.0
H250 H 0.90434 0.68748 0.49354 0.0
H251 H 0.87675 0.7215 0.49747 0.0
H252 H 0.91978 0.72849 0.50166 0.0
H253 H 0.86618 0.66271 0.35571 0.0
H254 H 0.86952 0.69666 0.32259 0.0
H255 H 0.8383 0.69648 0.3598 0.0
C256 C 0.77893 0.33566 0.92548 0.0
C257 C 0.78714 0.36841 0.93371 0.0
C258 C 0.80309 0.31242 0.91582 0.0
C259 C 0.83614 0.32228 0.91449 0.0
C260 C 0.84453 0.35535 0.92282 0.0
C261 C 0.81985 0.37812 0.93202 0.0
C262 C 0.79326 0.27744 0.90669 0.0
C263 C 0.87955 0.36671 0.92184 0.0
C264 C 0.90197 0.25711 0.92141 0.0
C265 C 0.91281 0.25422 0.88337 0.0
C266 C 0.8768 0.27897 0.93193 0.0
C267 C 0.86199 0.29819 0.9037 0.0
C268 C 0.87235 0.29497 0.86521 0.0
C269 C 0.8977 0.27311 0.85551 0.0
C270 C 0.86642 0.28192 0.97331 0.0
C271 C 0.85689 0.31489 0.8343 0.0
H272 H 0.75357 0.32827 0.92639 0.0
H273 H 0.82605 0.4036 0.93797 0.0
H274 H 0.80155 0.27114 0.8773 0.0
H275 H 0.80522 0.25987 0.92601 0.0
H276 H 0.76651 0.27372 0.90933 0.0
H277 H 0.88198 0.39307 0.93004 0.0
H278 H 0.89389 0.3514 0.94139 0.0
H279 H 0.89045 0.36342 0.89287 0.0
H280 H 0.9135 0.24268 0.94315 0.0
H281 H 0.90571 0.2709 0.82601 0.0
H282 H 0.84001 0.27676 0.97703 0.0
H283 H 0.87051 0.30756 0.98322 0.0
H284 H 0.87994 0.2647 0.99165 0.0
H285 H 0.83023 0.31057 0.83481 0.0
H286 H 0.86703 0.30864 0.80558 0.0
H287 H 0.86072 0.34164 0.83932 0.0
C288 C 0.16624 0.64246 0.48254 0.0
C289 C 0.19822 0.64064 0.46767 0.0
C290 C 0.14317 0.66316 0.46611 0.0
C291 C 0.15233 0.6825 0.43397 0.0
C292 C 0.18447 0.68043 0.41845 0.0
C293 C 0.20691 0.65914 0.43515 0.0
C294 C 0.10898 0.66426 0.48309 0.0
C295 C 0.19518 0.70079 0.38433 0.0
C296 C 0.08508 0.71484 0.37229 0.0
C297 C 0.0805 0.74691 0.38658 0.0
C298 C 0.10854 0.69367 0.38725 0.0
C299 C 0.12824 0.70502 0.41676 0.0
C300 C 0.12434 0.73766 0.43058 0.0
C301 C 0.10037 0.75811 0.41554 0.0
C302 C 0.11169 0.65889 0.3721 0.0
C303 C 0.14525 0.75085 0.46159 0.0
H304 H 0.15927 0.62754 0.50707 0.0
H305 H 0.23132 0.65715 0.42281 0.0
H306 H 0.10309 0.68971 0.49273 0.0
H307 H 0.09128 0.65761 0.46125 0.0
H308 H 0.10561 0.64717 0.50761 0.0
H309 H 0.22117 0.69667 0.37605 0.0
H310 H 0.18008 0.69466 0.35979 0.0
H311 H 0.19155 0.72745 0.39048 0.0
H312 H 0.06971 0.70592 0.35008 0.0
H313 H 0.09718 0.78294 0.42653 0.0
H314 H 0.10618 0.64091 0.39524 0.0
H315 H 0.13704 0.65421 0.36175 0.0
H316 H 0.09503 0.65411 0.34852 0.0
H317 H 0.14095 0.73626 0.48796 0.0
H318 H 0.14018 0.77727 0.46795 0.0
H319 H 0.17138 0.74821 0.45324 0.0
C320 C 0.71473 0.8007 0.93381 0.0
C321 C 0.71442 0.83437 0.94303 0.0
C322 C 0.68601 0.78427 0.92458 0.0
C323 C 0.6563 0.80199 0.92457 0.0
C324 C 0.65582 0.83597 0.93414 0.0
C325 C 0.68499 0.85183 0.943 0.0
C326 C 0.68755 0.74808 0.91429 0.0
C327 C 0.6246 0.85562 0.93457 0.0
C328 C 0.58949 0.76624 0.86507 0.0
C329 C 0.57049 0.74904 0.89242 0.0
C330 C 0.61714 0.78409 0.87526 0.0
C331 C 0.62591 0.78498 0.91376 0.0
C332 C 0.6064 0.76846 0.94166 0.0
C333 C 0.579 0.75061 0.93066 0.0
C334 C 0.63745 0.80126 0.84466 0.0
C335 C 0.61486 0.76906 0.98304 0.0
H336 H 0.73756 0.78729 0.93337 0.0
H337 H 0.6849 0.87798 0.94965 0.0
H338 H 0.67092 0.73367 0.93344 0.0
H339 H 0.67927 0.74453 0.88492 0.0
H340 H 0.71251 0.7378 0.91617 0.0
H341 H 0.62819 0.88154 0.94388 0.0
H342 H 0.61449 0.8559 0.90576 0.0
H343 H 0.60617 0.84378 0.95387 0.0
H344 H 0.58324 0.76517 0.83545 0.0
H345 H 0.56444 0.73759 0.95208 0.0
H346 H 0.6622 0.7903 0.84306 0.0
H347 H 0.64026 0.8278 0.85166 0.0
H348 H 0.62663 0.79926 0.81627 0.0
H349 H 0.63865 0.75672 0.98675 0.0
H350 H 0.59624 0.75644 0.00146 0.0
H351 H 0.61738 0.79494 0.99286 0.0
C352 C 0.33709 0.12846 0.45102 0.0
C353 C 0.30688 0.14167 0.46255 0.0
C354 C 0.36159 0.14869 0.43489 0.0
C355 C 0.35561 0.1829 0.43025 0.0
C356 C 0.32518 0.1964 0.44209 0.0
C357 C 0.30133 0.17567 0.4586 0.0
C358 C 0.39397 0.13357 0.42324 0.0
C359 C 0.31789 0.23273 0.43747 0.0
C360 C 0.42724 0.24178 0.42277 0.0
C361 C 0.43044 0.2468 0.38341 0.0
C362 C 0.40319 0.22077 0.43833 0.0
C363 C 0.38149 0.20478 0.41399 0.0
C364 C 0.38439 0.2099 0.37427 0.0
C365 C 0.40903 0.23067 0.3594 0.0
C366 C 0.40112 0.21555 0.48081 0.0
C367 C 0.36134 0.19362 0.34753 0.0
H368 H 0.34159 0.10228 0.45482 0.0
H369 H 0.27821 0.18603 0.46835 0.0
H370 H 0.39928 0.13807 0.39259 0.0
H371 H 0.4137 0.14544 0.43911 0.0
H372 H 0.39464 0.10652 0.42858 0.0
H373 H 0.29257 0.23905 0.44679 0.0
H374 H 0.33491 0.2476 0.45427 0.0
H375 H 0.32161 0.24011 0.40729 0.0
H376 H 0.44387 0.25392 0.4415 0.0
H377 H 0.41126 0.23459 0.32898 0.0
H378 H 0.40356 0.18887 0.48746 0.0
H379 H 0.37697 0.22364 0.49231 0.0
H380 H 0.42026 0.22934 0.4957 0.0
H381 H 0.36284 0.16636 0.35035 0.0
H382 H 0.36669 0.2004 0.3174 0.0
H383 H 0.33592 0.20087 0.3551 0.0
C384 C 0.31462 0.87119 0.91854 0.0
C385 C 0.2829 0.85858 0.92038 0.0
C386 C 0.34137 0.85023 0.91211 0.0
C387 C 0.33609 0.81597 0.90711 0.0
C388 C 0.30405 0.80311 0.90912 0.0
C389 C 0.27778 0.82461 0.91592 0.0
C390 C 0.37523 0.86475 0.91044 0.0
C391 C 0.29752 0.76672 0.90368 0.0
C392 C 0.40151 0.76713 0.85379 0.0
C393 C 0.41722 0.75125 0.88352 0.0
C394 C 0.37496 0.78814 0.86109 0.0
C395 C 0.36405 0.79364 0.89905 0.0
C396 C 0.37981 0.77784 0.92922 0.0
C397 C 0.40613 0.75668 0.92108 0.0
C398 C 0.3585 0.80435 0.82817 0.0
C399 C 0.36896 0.7834 0.97008 0.0
H400 H 0.31839 0.8975 0.92211 0.0
H401 H 0.25319 0.81491 0.91747 0.0
H402 H 0.39053 0.85245 0.93164 0.0
H403 H 0.38684 0.86027 0.88205 0.0
H404 H 0.37518 0.89177 0.91597 0.0
H405 H 0.27118 0.76069 0.90641 0.0
H406 H 0.30678 0.75884 0.87518 0.0
H407 H 0.31067 0.75205 0.92493 0.0
H408 H 0.40975 0.76291 0.82465 0.0
H409 H 0.4182 0.74462 0.94423 0.0
H410 H 0.35973 0.83162 0.83091 0.0
H411 H 0.33237 0.79744 0.82851 0.0
H412 H 0.36977 0.7972 0.8003 0.0
H413 H 0.37039 0.81008 0.97701 0.0
H414 H 0.38397 0.76941 0.99025 0.0
H415 H 0.34317 0.77581 0.97444 0.0
C416 C 0.70507 0.15885 0.42583 0.0
C417 C 0.69673 0.14089 0.45886 0.0
C418 C 0.68272 0.18048 0.40956 0.0
C419 C 0.65098 0.18346 0.42605 0.0
C420 C 0.64216 0.16469 0.45875 0.0
C421 C 0.66515 0.14362 0.47473 0.0
C422 C 0.69308 0.2002 0.37481 0.0
C423 C 0.60838 0.16676 0.47678 0.0
C424 C 0.6001 0.25983 0.40768 0.0
C425 C 0.57937 0.24862 0.37956 0.0
C426 C 0.624 0.23912 0.42242 0.0
C427 C 0.62694 0.20622 0.40917 0.0
C428 C 0.60637 0.19483 0.38051 0.0
C429 C 0.58301 0.21625 0.36583 0.0
C430 C 0.64585 0.25233 0.4525 0.0
C431 C 0.60849 0.15978 0.366 0.0
H432 H 0.72916 0.15614 0.41277 0.0
H433 H 0.65842 0.12913 0.49967 0.0
H434 H 0.67733 0.19405 0.35085 0.0
H435 H 0.69008 0.227 0.38057 0.0
H436 H 0.71882 0.19548 0.36585 0.0
H437 H 0.60524 0.1501 0.50173 0.0
H438 H 0.60323 0.19247 0.48605 0.0
H439 H 0.59002 0.16016 0.45568 0.0
H440 H 0.59764 0.28489 0.41823 0.0
H441 H 0.56698 0.20731 0.34429 0.0
H442 H 0.67176 0.24905 0.44344 0.0
H443 H 0.64185 0.23819 0.47926 0.0
H444 H 0.64144 0.27893 0.45848 0.0
H445 H 0.63352 0.15445 0.35496 0.0
H446 H 0.59119 0.15498 0.34308 0.0
H447 H 0.60319 0.14225 0.38965 0.0
C448 C 0.33216 0.48546 0.01351 0.0
C449 C 0.31468 0.46503 0.98922 0.0
C450 C 0.35019 0.51248 -0.00061 0.0
C451 C 0.34977 0.5201 0.96021 0.0
C452 C 0.32959 0.5017 0.93623 0.0
C453 C 0.31267 0.47408 0.95087 0.0
C454 C 0.37176 0.53108 0.02588 0.0
C455 C 0.32763 0.50972 0.89451 0.0
C456 C 0.3912 0.59978 0.92689 0.0
C457 C 0.42101 0.58763 0.9124 0.0
C458 C 0.36726 0.57807 0.94182 0.0
C459 C 0.37397 0.54375 0.94347 0.0
C460 C 0.40437 0.53162 0.92948 0.0
C461 C 0.42725 0.55365 0.91354 0.0
C462 C 0.33472 0.59171 0.95525 0.0
C463 C 0.41293 0.49536 0.9317 0.0
H464 H 0.33298 0.47949 0.04346 0.0
H465 H 0.29937 0.45864 0.93166 0.0
H466 H 0.39762 0.52514 0.0188 0.0
H467 H 0.36878 0.55812 0.02239 0.0
H468 H 0.36661 0.52457 0.05613 0.0
H469 H 0.30656 0.49741 0.88153 0.0
H470 H 0.3256 0.53679 0.89011 0.0
H471 H 0.35018 0.5013 0.87932 0.0
H472 H 0.38636 0.62609 0.92568 0.0
H473 H 0.45046 0.54435 0.90263 0.0
H474 H 0.33016 0.5858 0.9857 0.0
H475 H 0.31502 0.57989 0.9393 0.0
H476 H 0.33318 0.61892 0.95144 0.0
H477 H 0.41039 0.48662 0.96152 0.0
H478 H 0.43817 0.49024 0.92106 0.0
H479 H 0.39591 0.48066 0.91472 0.0
C480 C 0.63291 0.54284 0.45651 0.0
C481 C 0.6667 0.54224 0.46076 0.0
C482 C 0.61695 0.51695 0.43853 0.0
C483 C 0.63524 0.4898 0.42422 0.0
C484 C 0.66948 0.48941 0.42742 0.0
C485 C 0.68485 0.51569 0.44571 0.0
C486 C 0.58039 0.51836 0.43554 0.0
C487 C 0.68973 0.46091 0.41236 0.0
C488 C 0.58553 0.41153 0.41635 0.0
C489 C 0.57665 0.41259 0.37823 0.0
C490 C 0.606 0.43564 0.43123 0.0
C491 C 0.61801 0.46137 0.40741 0.0
C492 C 0.61072 0.46155 0.36844 0.0
C493 C 0.59008 0.43719 0.35431 0.0
C494 C 0.6133 0.43456 0.47296 0.0
C495 C 0.62335 0.48844 0.3421 0.0
H496 H 0.61887 0.56363 0.46743 0.0
H497 H 0.71095 0.51505 0.44911 0.0
H498 H 0.57366 0.51613 0.40542 0.0
H499 H 0.56906 0.49728 0.45121 0.0
H500 H 0.56991 0.54168 0.4472 0.0
H501 H 0.71624 0.46542 0.41477 0.0
H502 H 0.68323 0.43808 0.42837 0.0
H503 H 0.68453 0.45629 0.38213 0.0
H504 H 0.57555 0.39253 0.43507 0.0
H505 H 0.58368 0.4381 0.32473 0.0
H506 H 0.60121 0.45568 0.48768 0.0
H507 H 0.63984 0.43702 0.47696 0.0
H508 H 0.6047 0.41131 0.48676 0.0
H509 H 0.61125 0.51216 0.34962 0.0
H510 H 0.61876 0.4829 0.31187 0.0
H511 H 0.64988 0.49199 0.34528 0.0
C512 C 0.64628 0.48194 0.00796 0.0
C513 C 0.68011 0.48657 0.00578 0.0
C514 C 0.62512 0.50528 0.99291 0.0
C515 C 0.63808 0.53394 0.97503 0.0
C516 C 0.6721 0.53951 0.97408 0.0
C517 C 0.69276 0.51569 0.98945 0.0
C518 C 0.58897 0.49841 0.99445 0.0
C519 C 0.68674 0.56991 0.95544 0.0
C520 C 0.58555 0.56898 0.89844 0.0
C521 C 0.56899 0.59453 0.91781 0.0
C522 C 0.60896 0.54988 0.9164 0.0
C523 C 0.61607 0.55646 0.95467 0.0
C524 C 0.60036 0.58289 0.97405 0.0
C525 C 0.57697 0.60162 0.9554 0.0
C526 C 0.62526 0.52188 0.89476 0.0
C527 C 0.60745 0.59066 0.01485 0.0
H528 H 0.6363 0.45925 0.01987 0.0
H529 H 0.71887 0.51951 0.988 0.0
H530 H 0.57546 0.52 0.00625 0.0
H531 H 0.58044 0.49424 0.96529 0.0
H532 H 0.58265 0.47635 0.012 0.0
H533 H 0.71319 0.57218 0.96039 0.0
H534 H 0.68325 0.56887 0.92437 0.0
H535 H 0.67425 0.59248 0.96622 0.0
H536 H 0.57981 0.5634 0.86934 0.0
H537 H 0.56451 0.62142 0.9706 0.0
H538 H 0.61827 0.49794 0.90811 0.0
H539 H 0.6521 0.52408 0.89595 0.0
H540 H 0.61848 0.52129 0.8645 0.0
H541 H 0.59885 0.57004 0.03339 0.0
H542 H 0.59537 0.61379 0.02478 0.0
H543 H 0.63405 0.5931 0.01839 0.0
C544 C 0.31952 0.51554 0.45431 0.0
C545 C 0.33757 0.54221 0.46781 0.0
C546 C 0.33516 0.48824 0.43713 0.0
C547 C 0.36957 0.48781 0.43331 0.0
C548 C 0.38779 0.51505 0.44612 0.0
C549 C 0.37157 0.54189 0.46313 0.0
C550 C 0.31499 0.45965 0.4237 0.0
C551 C 0.4245 0.51573 0.44224 0.0
C552 C 0.41934 0.40917 0.42377 0.0
C553 C 0.42916 0.41022 0.38527 0.0
C554 C 0.39839 0.43333 0.43945 0.0
C555 C 0.38695 0.45904 0.41604 0.0
C556 C 0.39519 0.4591 0.37676 0.0
C557 C 0.41618 0.43473 0.36186 0.0
C558 C 0.39 0.43239 0.48148 0.0
C559 C 0.38335 0.48597 0.35081 0.0
H560 H 0.29324 0.51565 0.45811 0.0
H561 H 0.38556 0.56272 0.47296 0.0
H562 H 0.32064 0.45467 0.39324 0.0
H563 H 0.32115 0.43698 0.43969 0.0
H564 H 0.28845 0.46434 0.42748 0.0
H565 H 0.43499 0.53893 0.4534 0.0
H566 H 0.43487 0.49455 0.45782 0.0
H567 H 0.43231 0.51315 0.41195 0.0
H568 H 0.42905 0.39029 0.44208 0.0
H569 H 0.42323 0.43557 0.33196 0.0
H570 H 0.36341 0.43543 0.48662 0.0
H571 H 0.40219 0.45323 0.4957 0.0
H572 H 0.39779 0.40894 0.49488 0.0
H573 H 0.35673 0.4896 0.35499 0.0
H574 H 0.38876 0.48037 0.3204 0.0
H575 H 0.39531 0.50968 0.35781 0.0
C576 C 0.81826 0.96941 0.94717 0.0
C577 C 0.82144 0.96091 0.98555 0.0
C578 C 0.8339 0.99739 0.93157 0.0
C579 C 0.85411 0.01674 0.95452 0.0
C580 C 0.8561 0.00938 0.99364 0.0
C581 C 0.83923 0.98201 0.0088 0.0
C582 C 0.8303 0.00507 0.88997 0.0
C583 C 0.87789 0.02895 0.01898 0.0
C584 C 0.92802 0.05472 0.90442 0.0
C585 C 0.91994 0.08832 0.90402 0.0
C586 C 0.90692 0.03136 0.92118 0.0
C587 C 0.8764 0.04172 0.93673 0.0
C588 C 0.86776 0.07561 0.93568 0.0
C589 C 0.89 0.0987 0.91995 0.0
C590 C 0.91756 0.99565 0.92274 0.0
C591 C 0.83498 0.08735 0.95073 0.0
H592 H 0.80481 0.95343 0.92868 0.0
H593 H 0.84098 0.97651 0.03876 0.0
H594 H 0.82669 0.03197 0.88561 0.0
H595 H 0.85285 0.99787 0.87392 0.0
H596 H 0.80953 0.99156 0.87786 0.0
H597 H 0.87461 0.02186 0.04935 0.0
H598 H 0.9037 0.0247 0.01009 0.0
H599 H 0.87313 0.0558 0.01621 0.0
H600 H 0.95138 0.0468 0.89243 0.0
H601 H 0.88376 0.12472 0.91937 0.0
H602 H 0.90071 0.98 0.90663 0.0
H603 H 0.91665 0.98678 0.95258 0.0
H604 H 0.94264 0.99198 0.91078 0.0
H605 H 0.81535 0.07405 0.93616 0.0
H606 H 0.8316 0.11435 0.94663 0.0
H607 H 0.83208 0.08166 0.98145 0.0
C608 C 0.13109 0.0456 0.45687 0.0
C609 C 0.16477 0.04564 0.46198 0.0
C610 C 0.11561 0.0183 0.44112 0.0
C611 C 0.13428 0.99036 0.42998 0.0
C612 C 0.16839 0.99043 0.43434 0.0
C613 C 0.18328 0.01813 0.45033 0.0
C614 C 0.07918 0.01927 0.43673 0.0
C615 C 0.18902 0.96108 0.42265 0.0
C616 C 0.08465 0.91175 0.42455 0.0
C617 C 0.07728 0.91109 0.38594 0.0
C618 C 0.10465 0.93652 0.43899 0.0
C619 C 0.11767 0.9611 0.41422 0.0
C620 C 0.11192 0.95945 0.37491 0.0
C621 C 0.09177 0.9345 0.36124 0.0
C622 C 0.11033 0.93744 0.4811 0.0
C623 C 0.1256 0.98508 0.34756 0.0
H624 H 0.11678 0.06705 0.4652 0.0
H625 H 0.20929 0.01798 0.45448 0.0
H626 H 0.07331 0.0156 0.40651 0.0
H627 H 0.06751 -0.00115 0.45322 0.0
H628 H 0.06828 0.04301 0.44656 0.0
H629 H 0.21536 0.96554 0.42658 0.0
H630 H 0.18147 0.93911 0.43964 0.0
H631 H 0.18533 0.95502 0.3924 0.0
H632 H 0.07378 0.89371 0.44386 0.0
H633 H 0.08659 0.93402 0.33128 0.0
H634 H 0.09754 0.95907 0.4939 0.0
H635 H 0.13662 0.94039 0.48635 0.0
H636 H 0.10137 0.91475 0.49584 0.0
H637 H 0.11343 0.00915 0.3531 0.0
H638 H 0.12201 0.9782 0.31747 0.0
H639 H 0.15199 0.98868 0.35175 0.0
C640 C 0.18145 0.00262 0.97272 0.0
C641 C 0.16614 0.97244 0.98143 0.0
C642 C 0.16357 0.02953 0.95925 0.0
C643 C 0.12972 0.02598 0.95426 0.0
C644 C 0.11407 0.99581 0.96383 0.0
C645 C 0.13248 0.96943 0.9772 0.0
C646 C 0.18097 0.06143 0.94948 0.0
C647 C 0.07802 0.99099 0.95874 0.0
C648 C 0.07142 0.0976 0.94314 0.0
C649 C 0.06614 0.09652 0.904 0.0
C650 C 0.09353 0.07595 0.95978 0.0
C651 C 0.1107 0.05279 0.93671 0.0
C652 C 0.10688 0.05289 0.89696 0.0
C653 C 0.08467 0.07473 0.8811 0.0
C654 C 0.09714 0.07664 0.00228 0.0
C655 C 0.12489 0.02864 0.87137 0.0
H656 H 0.20742 0.00512 0.97628 0.0
H657 H 0.12059 0.946 0.98325 0.0
H658 H 0.18014 0.066 0.91847 0.0
H659 H 0.16857 0.0825 0.96392 0.0
H660 H 0.20683 0.06099 0.95766 0.0
H661 H 0.06932 0.96659 0.96942 0.0
H662 H 0.06401 0.01065 0.9739 0.0
H663 H 0.07254 0.99293 0.92819 0.0
H664 H 0.0574 0.11447 0.96106 0.0
H665 H 0.08115 0.07399 0.85075 0.0
H666 H 0.12322 0.07635 0.00939 0.0
H667 H 0.08573 0.05422 0.01508 0.0
H668 H 0.08543 0.09874 0.01549 0.0
H669 H 0.15128 0.02893 0.87698 0.0
H670 H 0.12164 0.03407 0.84081 0.0
H671 H 0.11587 0.00325 0.87737 0.0
C672 C 0.81874 0.0147 0.45244 0.0
C673 C 0.83649 0.04203 0.46475 0.0
C674 C 0.83469 0.98691 0.43678 0.0
C675 C 0.86912 0.98665 0.43325 0.0
C676 C 0.88705 0.01448 0.445 0.0
C677 C 0.87052 0.04178 0.46055 0.0
C678 C 0.81482 0.95767 0.42453 0.0
C679 C 0.92377 0.01536 0.44137 0.0
C680 C 0.91973 0.90835 0.42681 0.0
C681 C 0.92962 0.9084 0.38831 0.0
C682 C 0.89847 0.93268 0.44152 0.0
C683 C 0.8868 0.95757 0.41714 0.0
C684 C 0.8951 0.95657 0.37789 0.0
C685 C 0.91638 0.93203 0.36396 0.0
C686 C 0.89 0.93284 0.48354 0.0
C687 C 0.88305 0.98254 0.35091 0.0
H688 H 0.79244 0.01474 0.45589 0.0
H689 H 0.8843 0.06309 0.46948 0.0
H690 H 0.82041 0.95194 0.39423 0.0
H691 H 0.82134 0.93553 0.44126 0.0
H692 H 0.78824 0.96209 0.4283 0.0
H693 H 0.93402 0.03896 0.45174 0.0
H694 H 0.93421 0.99473 0.45779 0.0
H695 H 0.93176 0.012 0.41124 0.0
H696 H 0.92963 0.89014 0.44585 0.0
H697 H 0.92347 0.93209 0.33405 0.0
H698 H 0.86338 0.93585 0.4885 0.0
H699 H 0.90204 0.95415 0.49703 0.0
H700 H 0.89788 0.90983 0.4978 0.0
H701 H 0.85639 0.98596 0.35485 0.0
H702 H 0.88862 0.97614 0.32073 0.0
H703 H 0.89474 0.00658 0.35706 0.0
C704 C 0.36143 0.36283 0.0653 0.0
C705 C 0.32739 0.36394 0.06918 0.0
C706 C 0.38036 0.35114 0.0948 0.0
C707 C 0.36486 0.34004 0.12896 0.0
C708 C 0.33044 0.33838 0.13176 0.0
C709 C 0.31204 0.35046 0.10178 0.0
C710 C 0.41698 0.35322 0.09049 0.0
C711 C 0.31301 0.32622 0.16746 0.0
C712 C 0.42164 0.30249 0.20053 0.0
C713 C 0.42922 0.33034 0.22228 0.0
C714 C 0.39937 0.30468 0.17112 0.0
C715 C 0.38459 0.33543 0.16323 0.0
C716 C 0.39098 0.36314 0.18626 0.0
C717 C 0.41304 0.36023 0.21548 0.0
C718 C 0.39277 0.27449 0.1475 0.0
C719 C 0.3757 0.39644 0.17891 0.0
H720 H 0.37334 0.37256 0.03973 0.0
H721 H 0.28573 0.35118 0.10485 0.0
H722 H 0.426 0.37308 0.10913 0.0
H723 H 0.42834 0.32975 0.09946 0.0
H724 H 0.42521 0.35873 0.0608 0.0
H725 H 0.287 0.32065 0.16266 0.0
H726 H 0.32491 0.3037 0.17846 0.0
H727 H 0.31416 0.34548 0.18975 0.0
H728 H 0.4338 0.27922 0.20567 0.0
H729 H 0.41829 0.38184 0.23235 0.0
H730 H 0.40467 0.27738 0.11898 0.0
H731 H 0.36627 0.27163 0.1434 0.0
H732 H 0.40216 0.25157 0.16066 0.0
H733 H 0.38431 0.40587 0.15074 0.0
H734 H 0.38176 0.415 0.20077 0.0
H735 H 0.34884 0.3941 0.17828 0.0
C736 C 0.63194 0.62372 0.57302 0.0
C737 C 0.66584 0.61988 0.57097 0.0
C738 C 0.61578 0.63256 0.6071 0.0
C739 C 0.63398 0.6379 0.63995 0.0
C740 C 0.66835 0.63551 0.63773 0.0
C741 C 0.68391 0.62645 0.6032 0.0
C742 C 0.57908 0.63497 0.60824 0.0
C743 C 0.68854 0.64122 0.67213 0.0
C744 C 0.58617 0.68005 0.72004 0.0
C745 C 0.57436 0.65273 0.74091 0.0
C746 C 0.60722 0.67581 0.68821 0.0
C747 C 0.61655 0.64352 0.67698 0.0
C748 C 0.60629 0.61605 0.69921 0.0
C749 C 0.58542 0.62099 0.73092 0.0
C750 C 0.61802 0.70572 0.66544 0.0
C751 C 0.61579 0.5812 0.68823 0.0
H752 H 0.61794 0.61932 0.54798 0.0
H753 H 0.71012 0.62338 0.60179 0.0
H754 H 0.56864 0.61571 0.6275 0.0
H755 H 0.57123 0.65931 0.61971 0.0
H756 H 0.56872 0.63175 0.57976 0.0
H757 H 0.71501 0.64197 0.66476 0.0
H758 H 0.68145 0.66476 0.68622 0.0
H759 H 0.68399 0.62107 0.69303 0.0
H760 H 0.57804 0.70472 0.72764 0.0
H761 H 0.57678 0.5997 0.74701 0.0
H762 H 0.60552 0.70598 0.63801 0.0
H763 H 0.64457 0.7047 0.65885 0.0
H764 H 0.61235 0.72917 0.68061 0.0
H765 H 0.60415 0.57448 0.66134 0.0
H766 H 0.60826 0.56288 0.71034 0.0
H767 H 0.6425 0.57938 0.68318 0.0
C768 C 0.69507 0.40183 0.12509 0.0
C769 C 0.69858 0.38932 0.0882 0.0
C770 C 0.67596 0.38524 0.1527 0.0
C771 C 0.65945 0.35594 0.14272 0.0
C772 C 0.66553 0.3416 0.10655 0.0
C773 C 0.68525 0.35847 0.07964 0.0
C774 C 0.67075 0.40095 0.19125 0.0
C775 C 0.64845 0.31043 0.0948 0.0
C776 C 0.6079 0.31492 0.22119 0.0
C777 C 0.57848 0.33197 0.21765 0.0
C778 C 0.63448 0.32138 0.19608 0.0
C779 C 0.63107 0.34492 0.16666 0.0
C780 C 0.60065 0.36051 0.16172 0.0
C781 C 0.57488 0.35409 0.18753 0.0
C782 C 0.66659 0.30453 0.20243 0.0
C783 C 0.59566 0.38525 0.13023 0.0
H784 H 0.70563 0.42563 0.13161 0.0
H785 H 0.68794 0.34893 0.05097 0.0
H786 H 0.6465 0.41304 0.1928 0.0
H787 H 0.67117 0.38201 0.21403 0.0
H788 H 0.68951 0.41995 0.1968 0.0
H789 H 0.66062 0.29896 0.06947 0.0
H790 H 0.64744 0.29212 0.11827 0.0
H791 H 0.62302 0.31647 0.08768 0.0
H792 H 0.61066 0.29794 0.2447 0.0
H793 H 0.55195 0.36697 0.18463 0.0
H794 H 0.68351 0.32238 0.21524 0.0
H795 H 0.678 0.29617 0.17514 0.0
H796 H 0.6638 0.28296 0.2218 0.0
H797 H 0.61054 0.40763 0.13512 0.0
H798 H 0.5698 0.3929 0.12841 0.0
H799 H 0.60377 0.37469 0.10246 0.0
C800 C 0.37 0.62491 0.57597 0.0
C801 C 0.3361 0.6211 0.57617 0.0
C802 C 0.38601 0.63318 0.60908 0.0
C803 C 0.36766 0.63793 0.64333 0.0
C804 C 0.33326 0.6357 0.64339 0.0
C805 C 0.31782 0.6273 0.6097 0.0
C806 C 0.42272 0.63553 0.60769 0.0
C807 C 0.31291 0.64082 0.67933 0.0
C808 C 0.41595 0.61964 0.7306 0.0
C809 C 0.42677 0.65126 0.74061 0.0
C810 C 0.39527 0.61516 0.70016 0.0
C811 C 0.385 0.64295 0.67925 0.0
C812 C 0.39432 0.67505 0.69043 0.0
C813 C 0.41516 0.67884 0.72092 0.0
C814 C 0.38584 0.58048 0.68914 0.0
C815 C 0.38361 0.7053 0.66904 0.0
H816 H 0.38413 0.62075 0.54988 0.0
H817 H 0.29161 0.62431 0.60993 0.0
H818 H 0.43058 0.65962 0.61923 0.0
H819 H 0.43304 0.61587 0.6257 0.0
H820 H 0.4332 0.63286 0.57839 0.0
H821 H 0.28647 0.64178 0.67381 0.0
H822 H 0.31729 0.62027 0.69941 0.0
H823 H 0.32001 0.66406 0.69352 0.0
H824 H 0.4245 0.59814 0.74572 0.0
H825 H 0.42303 0.70343 0.72861 0.0
H826 H 0.39749 0.57423 0.66121 0.0
H827 H 0.35913 0.57871 0.68608 0.0
H828 H 0.39338 0.56181 0.71027 0.0
H829 H 0.39603 0.70588 0.64061 0.0
H830 H 0.3894 0.72854 0.68414 0.0
H831 H 0.35703 0.70446 0.66456 0.0
C832 C 0.81816 0.84936 0.10264 0.0
C833 C 0.83403 0.86228 0.07004 0.0
C834 C 0.83602 0.83763 0.13323 0.0
C835 C 0.87046 0.83904 0.13108 0.0
C836 C 0.88652 0.84976 0.09709 0.0
C837 C 0.86811 0.86115 0.06697 0.0
C838 C 0.81801 0.82598 0.16878 0.0
C839 C 0.92319 0.85152 0.09349 0.0
C840 C 0.91748 0.85865 0.2187 0.0
C841 C 0.93289 0.82846 0.22613 0.0
C842 C 0.89608 0.8619 0.18885 0.0
C843 C 0.88964 0.83424 0.16575 0.0
C844 C 0.90369 0.80324 0.17418 0.0
C845 C 0.92523 0.80069 0.20429 0.0
C846 C 0.88152 0.89543 0.18099 0.0
C847 C 0.89707 0.77313 0.15043 0.0
H848 H 0.79182 0.85013 0.10514 0.0
H849 H 0.88045 0.87041 0.04144 0.0
H850 H 0.82935 0.80328 0.18007 0.0
H851 H 0.81933 0.84531 0.19098 0.0
H852 H 0.79195 0.82091 0.16368 0.0
H853 H 0.9319 0.85685 0.06393 0.0
H854 H 0.93212 0.87135 0.11223 0.0
H855 H 0.93421 0.82797 0.1028 0.0
H856 H 0.92279 0.88019 0.23566 0.0
H857 H 0.93685 0.77722 0.20987 0.0
H858 H 0.85467 0.89356 0.17968 0.0
H859 H 0.8908 0.90464 0.15299 0.0
H860 H 0.88748 0.91394 0.20295 0.0
H861 H 0.8706 0.77053 0.14596 0.0
H862 H 0.9061 0.7501 0.1637 0.0
H863 H 0.90927 0.77595 0.12206 0.0
C864 C 0.12823 0.13523 0.56492 0.0
C865 C 0.16213 0.13136 0.56381 0.0
C866 C 0.11152 0.14496 0.5983 0.0
C867 C 0.12917 0.15116 0.63137 0.0
C868 C 0.16359 0.1493 0.62983 0.0
C869 C 0.17971 0.13934 0.59599 0.0
C870 C 0.0748 0.14679 0.5987 0.0
C871 C 0.18322 0.15604 0.66443 0.0
C872 C 0.07922 0.19087 0.7115 0.0
C873 C 0.06831 0.16291 0.73187 0.0
C874 C 0.10061 0.18771 0.67978 0.0
C875 C 0.11116 0.1559 0.66819 0.0
C876 C 0.10171 0.12784 0.68989 0.0
C877 C 0.0805 0.1317 0.72147 0.0
C878 C 0.11055 0.21822 0.65758 0.0
C879 C 0.11252 0.09346 0.67854 0.0
H880 H 0.11464 0.12974 0.53983 0.0
H881 H 0.20592 0.13632 0.59527 0.0
H882 H 0.06442 0.12701 0.61731 0.0
H883 H 0.06632 0.17079 0.61051 0.0
H884 H 0.06497 0.14381 0.5699 0.0
H885 H 0.20964 0.15832 0.65721 0.0
H886 H 0.1748 0.17904 0.67873 0.0
H887 H 0.17975 0.1355 0.68507 0.0
H888 H 0.07018 0.21513 0.71944 0.0
H889 H 0.07261 0.10995 0.73723 0.0
H890 H 0.09809 0.21846 0.63012 0.0
H891 H 0.13713 0.21809 0.65104 0.0
H892 H 0.10414 0.24129 0.67316 0.0
H893 H 0.1017 0.08672 0.65116 0.0
H894 H 0.10514 0.07459 0.70009 0.0
H895 H 0.13936 0.09258 0.67427 0.0
C896 C 0.19272 0.85932 0.09073 0.0
C897 C 0.17403 0.87097 0.06095 0.0
C898 C 0.17769 0.84448 0.12286 0.0
C899 C 0.14333 0.84165 0.12509 0.0
C900 C 0.12485 0.85044 0.09341 0.0
C901 C 0.14048 0.86487 0.06167 0.0
C902 C 0.19829 0.83451 0.15563 0.0
C903 C 0.08818 0.84764 0.0944 0.0
C904 C 0.09232 0.80121 0.20403 0.0
C905 C 0.08239 0.82907 0.22511 0.0
C906 C 0.11423 0.80433 0.17271 0.0
C907 C 0.1261 0.83602 0.16223 0.0
C908 C 0.11789 0.86374 0.18501 0.0
C909 C 0.09634 0.85988 0.2162 0.0
C910 C 0.12309 0.77407 0.14966 0.0
C911 C 0.13006 0.89803 0.175 0.0
H912 H 0.21874 0.86374 0.09008 0.0
H913 H 0.12614 0.8731 0.03814 0.0
H914 H 0.19704 0.85407 0.17766 0.0
H915 H 0.18915 0.81127 0.16889 0.0
H916 H 0.2242 0.83114 0.1465 0.0
H917 H 0.0779 0.85173 0.066 0.0
H918 H 0.08039 0.82296 0.10494 0.0
H919 H 0.07765 0.86636 0.11426 0.0
H920 H 0.08196 0.77723 0.21093 0.0
H921 H 0.08942 0.88148 0.23274 0.0
H922 H 0.14908 0.77468 0.14012 0.0
H923 H 0.10826 0.77342 0.12393 0.0
H924 H 0.1184 0.75097 0.16602 0.0
H925 H 0.15694 0.89801 0.17109 0.0
H926 H 0.1232 0.91652 0.19712 0.0
H927 H 0.11973 0.90604 0.14776 0.0
C928 C 0.86699 0.12938 0.56904 0.0
C929 C 0.8331 0.12575 0.56839 0.0
C930 C 0.88229 0.13891 0.60219 0.0
C931 C 0.86321 0.14522 0.63556 0.0
C932 C 0.82883 0.14343 0.63458 0.0
C933 C 0.81412 0.13367 0.6009 0.0
C934 C 0.91902 0.14067 0.60193 0.0
C935 C 0.8077 0.15028 0.66951 0.0
C936 C 0.90892 0.12755 0.72479 0.0
C937 C 0.92068 0.159 0.73405 0.0
C938 C 0.88867 0.12304 0.694 0.0
C939 C 0.87974 0.15064 0.67194 0.0
C940 C 0.88981 0.1827 0.68245 0.0
C941 C 0.91024 0.18652 0.71335 0.0
C942 C 0.87842 0.08841 0.68376 0.0
C943 C 0.88043 0.21277 0.65989 0.0
H944 H 0.88169 0.12395 0.54369 0.0
H945 H 0.78791 0.13088 0.60049 0.0
H946 H 0.92702 0.1649 0.61295 0.0
H947 H 0.92856 0.12128 0.6209 0.0
H948 H 0.93013 0.13711 0.57305 0.0
H949 H 0.78154 0.15212 0.66285 0.0
H950 H 0.81064 0.13006 0.69043 0.0
H951 H 0.81528 0.17357 0.68325 0.0
H952 H 0.91648 0.10612 0.74074 0.0
H953 H 0.91887 0.21098 0.72042 0.0
H954 H 0.89045 0.08117 0.65636 0.0
H955 H 0.85176 0.08735 0.67997 0.0
H956 H 0.88494 0.07001 0.70568 0.0
H957 H 0.89381 0.21263 0.63202 0.0
H958 H 0.88619 0.23614 0.67476 0.0
H959 H 0.85405 0.21238 0.65418 0.0
loop_
_geom_bond_atom_site_label_1
_geom_bond_atom_site_label_2
_geom_bond_distance
_geom_bond_site_symmetry_2
_ccdc_geom_bond_type
H0 C7 0.929 . S
H1 C10 0.930 . S
H2 C12 0.929 . S
H3 C4 0.969 . S
C4 H3 0.969 . S
C4 O5 1.550 1_556 S
C4 H6 0.973 . S
O5 C4 1.550 1_554 S
O5 C11 1.412 . S
H6 C4 0.973 . S
C7 H0 0.929 . S
C7 C8 1.400 . S
C7 C9 1.364 1_554 S
C8 C7 1.400 . S
C8 C12 1.377 . S
C9 C7 1.364 1_556 S
C9 C10 1.374 . S
C10 H1 0.930 . S
C10 C9 1.374 . S
C10 C11 1.383 1_556 S
C11 O5 1.412 . S
C11 C10 1.383 1_554 S
C11 C12 1.394 . S
C12 H2 0.929 . S
C12 C8 1.377 . S
C12 C11 1.394 . S
H13 C20 0.929 . S
H14 C23 0.930 . S
H15 C25 0.929 . S
H16 C17 0.969 . S
C17 H16 0.969 . S
C17 O18 1.550 . S
C17 H19 0.973 . S
O18 C17 1.550 . S
O18 C24 1.412 . S
H19 C17 0.973 . S
C20 H13 0.929 . S
C20 C21 1.400 . S
C20 C22 1.364 . S
C21 C20 1.400 . S
C21 C25 1.377 . S
C22 C20 1.364 . S
C22 C23 1.374 . S
C23 H14 0.930 . S
C23 C22 1.374 . S
C23 C24 1.383 . S
C24 O18 1.412 . S
C24 C23 1.383 . S
C24 C25 1.394 . S
C25 H15 0.929 . S
C25 C21 1.377 . S
C25 C24 1.394 . S
H26 C33 0.929 . S
H27 C36 0.930 . S
H28 C38 0.929 . S
H29 C30 0.969 . S
C30 H29 0.969 . S
C30 O31 1.550 . S
C30 H32 0.973 1_556 S
O31 C30 1.550 . S
O31 C37 1.412 . S
H32 C30 0.973 1_554 S
C33 H26 0.929 . S
C33 C34 1.400 1_554 S
C33 C35 1.364 . S
C34 C33 1.400 1_556 S
C34 C38 1.377 . S
C35 C33 1.364 . S
C35 C36 1.374 . S
C36 H27 0.930 . S
C36 C35 1.374 . S
C36 C37 1.383 1_554 S
C37 O31 1.412 . S
C37 C36 1.383 1_556 S
C37 C38 1.394 . S
C38 H28 0.929 . S
C38 C34 1.377 . S
C38 C37 1.394 . S
H39 C46 0.929 . S
H40 C49 0.930 . S
H41 C51 0.929 . S
H42 C43 0.969 . S
C43 H42 0.969 . S
C43 O44 1.550 . S
C43 H45 0.973 . S
O44 C43 1.550 . S
O44 C50 1.412 . S
H45 C43 0.973 . S
C46 H39 0.929 . S
C46 C47 1.400 . S
C46 C48 1.364 . S
C47 C46 1.400 . S
C47 C51 1.377 . S
C48 C46 1.364 . S
C48 C49 1.374 . S
C49 H40 0.930 . S
C49 C48 1.374 . S
C49 C50 1.383 . S
C50 O44 1.412 . S
C50 C49 1.383 . S
C50 C51 1.394 . S
C51 H41 0.929 . S
C51 C47 1.377 . S
C51 C50 1.394 . S
H52 C59 0.929 . S
H53 C62 0.930 . S
H54 C64 0.929 . S
H55 C56 0.969 . S
C56 H55 0.969 . S
C56 O57 1.550 1_556 S
C56 H58 0.973 . S
O57 C56 1.550 1_554 S
O57 C63 1.412 . S
H58 C56 0.973 . S
C59 H52 0.929 . S
C59 C60 1.400 . S
C59 C61 1.364 1_554 S
C60 C59 1.400 . S
C60 C64 1.377 . S
C61 C59 1.364 1_556 S
C61 C62 1.374 . S
C62 H53 0.930 . S
C62 C61 1.374 . S
C62 C63 1.383 1_556 S
C63 O57 1.412 . S
C63 C62 1.383 1_554 S
C63 C64 1.394 . S
C64 H54 0.929 . S
C64 C60 1.377 . S
C64 C63 1.394 . S
H65 C72 0.929 . S
H66 C75 0.930 . S
H67 C77 0.929 . S
H68 C69 0.969 . S
C69 H68 0.969 . S
C69 O70 1.550 . S
C69 H71 0.973 . S
O70 C69 1.550 . S
O70 C76 1.412 . S
H71 C69 0.973 . S
C72 H65 0.929 . S
C72 C73 1.400 . S
C72 C74 1.364 . S
C73 C72 1.400 . S
C73 C77 1.377 . S
C74 C72 1.364 . S
C74 C75 1.374 . S
C75 H66 0.930 . S
C75 C74 1.374 . S
C75 C76 1.383 . S
C76 O70 1.412 . S
C76 C75 1.383 . S
C76 C77 1.394 . S
C77 H67 0.929 . S
C77 C73 1.377 . S
C77 C76 1.394 . S
H78 C85 0.929 . S
H79 C88 0.930 . S
H80 C90 0.929 . S
H81 C82 0.969 . S
C82 H81 0.969 . S
C82 O83 1.550 . S
C82 H84 0.973 1_556 S
O83 C82 1.550 . S
O83 C89 1.412 . S
H84 C82 0.973 1_554 S
C85 H78 0.929 . S
C85 C86 1.400 1_554 S
C85 C87 1.364 . S
C86 C85 1.400 1_556 S
C86 C90 1.377 . S
C87 C85 1.364 . S
C87 C88 1.374 . S
C88 H79 0.930 . S
C88 C87 1.374 . S
C88 C89 1.383 1_554 S
C89 O83 1.412 . S
C89 C88 1.383 1_556 S
C89 C90 1.394 . S
C90 H80 0.929 . S
C90 C86 1.377 . S
C90 C89 1.394 . S
H91 C98 0.929 . S
H92 C101 0.930 . S
H93 C103 0.929 . S
H94 C95 0.969 . S
C95 H94 0.969 . S
C95 O96 1.550 . S
C95 H97 0.973 . S
O96 C95 1.550 . S
O96 C102 1.412 . S
H97 C95 0.973 . S
C98 H91 0.929 . S
C98 C99 1.400 . S
C98 C100 1.364 . S
C99 C98 1.400 . S
C99 C103 1.377 . S
C100 C98 1.364 . S
C100 C101 1.374 . S
C101 H92 0.930 . S
C101 C100 1.374 . S
C101 C102 1.383 . S
C102 O96 1.412 . S
C102 C101 1.383 . S
C102 C103 1.394 . S
C103 H93 0.929 . S
C103 C99 1.377 . S
C103 C102 1.394 . S
Sc104 O107 2.025 . S
Sc104 O114 2.105 1_455 S
Sc104 O117 2.105 . S
Sc104 O120 2.105 . S
Sc104 O123 2.105 1_455 S
Sc105 O107 2.025 . S
Sc105 O115 2.105 1_455 S
Sc105 O119 2.105 . S
Sc105 O121 2.105 . S
Sc105 O125 2.105 1_455 S
Sc106 O107 2.025 . S
Sc106 O116 2.086 1_455 S
Sc106 O118 2.124 . S
Sc106 O122 2.124 . S
Sc106 O124 2.086 1_455 S
O107 Sc104 2.025 . S
O107 Sc105 2.025 . S
O107 Sc106 2.025 . S
C108 O114 1.268 . S
C108 O124 1.268 . S
C109 O115 1.268 . S
C109 O123 1.268 . S
C110 O116 1.268 . S
C110 O125 1.268 . S
C111 O117 1.268 . S
C111 O121 1.268 . S
C112 O118 1.268 . S
C112 O120 1.268 . S
C113 O119 1.268 . S
C113 O122 1.268 . S
O114 Sc104 2.105 1_655 S
O114 C108 1.268 . S
O115 Sc105 2.105 1_655 S
O115 C109 1.268 . S
O116 Sc106 2.086 1_655 S
O116 C110 1.268 . S
O117 Sc104 2.105 . S
O117 C111 1.268 . S
O118 Sc106 2.124 . S
O118 C112 1.268 . S
O119 Sc105 2.105 . S
O119 C113 1.268 . S
O120 Sc104 2.105 . S
O120 C112 1.268 . S
O121 Sc105 2.105 . S
O121 C111 1.268 . S
O122 Sc106 2.124 . S
O122 C113 1.268 . S
O123 Sc104 2.105 1_655 S
O123 C109 1.268 . S
O124 Sc106 2.086 1_655 S
O124 C108 1.268 . S
O125 Sc105 2.105 1_655 S
O125 C110 1.268 . S
Sc126 O129 2.025 . S
Sc126 O136 2.105 . S
Sc126 O139 2.105 1_455 S
Sc126 O142 2.105 1_455 S
Sc126 O145 2.105 . S
Sc127 O129 2.025 . S
Sc127 O137 2.105 . S
Sc127 O141 2.105 1_455 S
Sc127 O143 2.105 1_455 S
Sc127 O147 2.105 . S
Sc128 O129 2.025 . S
Sc128 O138 2.124 . S
Sc128 O140 2.086 1_455 S
Sc128 O144 2.086 1_455 S
Sc128 O146 2.124 . S
O129 Sc126 2.025 . S
O129 Sc127 2.025 . S
O129 Sc128 2.025 . S
C130 O136 1.268 . S
C130 O146 1.268 . S
C131 O137 1.268 . S
C131 O145 1.268 . S
C132 O138 1.268 . S
C132 O147 1.268 . S
C133 O139 1.268 . S
C133 O143 1.268 . S
C134 O140 1.268 . S
C134 O142 1.268 . S
C135 O141 1.268 . S
C135 O144 1.268 . S
O136 Sc126 2.105 . S
O136 C130 1.268 . S
O137 Sc127 2.105 . S
O137 C131 1.268 . S
O138 Sc128 2.124 . S
O138 C132 1.268 . S
O139 Sc126 2.105 1_655 S
O139 C133 1.268 . S
O140 Sc128 2.086 1_655 S
O140 C134 1.268 . S
O141 Sc127 2.105 1_655 S
O141 C135 1.268 . S
O142 Sc126 2.105 1_655 S
O142 C134 1.268 . S
O143 Sc127 2.105 1_655 S
O143 C133 1.268 . S
O144 Sc128 2.086 1_655 S
O144 C135 1.268 . S
O145 Sc126 2.105 . S
O145 C131 1.268 . S
O146 Sc128 2.124 . S
O146 C130 1.268 . S
O147 Sc127 2.105 . S
O147 C132 1.268 . S
Sc148 O151 2.025 . S
Sc148 O158 2.105 . S
Sc148 O161 2.105 . S
Sc148 O164 2.105 . S
Sc148 O167 2.105 . S
Sc149 O151 2.025 . S
Sc149 O159 2.105 . S
Sc149 O163 2.105 . S
Sc149 O165 2.105 . S
Sc149 O169 2.105 . S
Sc150 O151 2.025 . S
Sc150 O160 2.105 . S
Sc150 O162 2.105 . S
Sc150 O166 2.105 . S
Sc150 O168 2.105 . S
O151 Sc148 2.025 . S
O151 Sc149 2.025 . S
O151 Sc150 2.025 . S
C152 O158 1.268 . S
C152 O168 1.268 . S
C153 O159 1.268 . S
C153 O167 1.268 . S
C154 O160 1.268 . S
C154 O169 1.268 . S
C155 O161 1.268 . S
C155 O165 1.268 . S
C156 O162 1.268 . S
C156 O164 1.268 . S
C157 O163 1.268 . S
C157 O166 1.268 . S
O158 Sc148 2.105 . S
O158 C152 1.268 . S
O159 Sc149 2.105 . S
O159 C153 1.268 . S
O160 Sc150 2.105 . S
O160 C154 1.268 . S
O161 Sc148 2.105 . S
O161 C155 1.268 . S
O162 Sc150 2.105 . S
O162 C156 1.268 . S
O163 Sc149 2.105 . S
O163 C157 1.268 . S
O164 Sc148 2.105 . S
O164 C156 1.268 . S
O165 Sc149 2.105 . S
O165 C155 1.268 . S
O166 Sc150 2.105 . S
O166 C157 1.268 . S
O167 Sc148 2.105 . S
O167 C153 1.268 . S
O168 Sc150 2.105 . S
O168 C152 1.268 . S
O169 Sc149 2.105 . S
O169 C154 1.268 . S
Sc170 O173 2.025 . S
Sc170 O180 2.105 . S
Sc170 O183 2.105 . S
Sc170 O186 2.105 . S
Sc170 O189 2.105 . S
Sc171 O173 2.025 . S
Sc171 O181 2.105 . S
Sc171 O185 2.105 . S
Sc171 O187 2.105 . S
Sc171 O191 2.105 . S
Sc172 O173 2.025 . S
Sc172 O182 2.105 . S
Sc172 O184 2.105 . S
Sc172 O188 2.105 . S
Sc172 O190 2.105 . S
O173 Sc170 2.025 . S
O173 Sc171 2.025 . S
O173 Sc172 2.025 . S
C174 O180 1.268 . S
C174 O190 1.268 . S
C175 O181 1.268 . S
C175 O189 1.268 . S
C176 O182 1.268 . S
C176 O191 1.268 . S
C177 O183 1.268 . S
C177 O187 1.268 . S
C178 O184 1.268 . S
C178 O186 1.268 . S
C179 O185 1.268 . S
C179 O188 1.268 . S
O180 Sc170 2.105 . S
O180 C174 1.268 . S
O181 Sc171 2.105 . S
O181 C175 1.268 . S
O182 Sc172 2.105 . S
O182 C176 1.268 . S
O183 Sc170 2.105 . S
O183 C177 1.268 . S
O184 Sc172 2.105 . S
O184 C178 1.268 . S
O185 Sc171 2.105 . S
O185 C179 1.268 . S
O186 Sc170 2.105 . S
O186 C178 1.268 . S
O187 Sc171 2.105 . S
O187 C177 1.268 . S
O188 Sc172 2.105 . S
O188 C179 1.268 . S
O189 Sc170 2.105 . S
O189 C175 1.268 . S
O190 Sc172 2.105 . S
O190 C174 1.268 . S
O191 Sc171 2.105 . S
O191 C176 1.268 . S
C192 C193 1.391 . S
C192 C194 1.394 . S
C192 H208 0.931 . S
C193 C192 1.391 . S
C193 C197 1.376 . S
C194 C192 1.394 . S
C194 C195 1.369 . S
C194 C198 1.531 . S
C195 C194 1.369 . S
C195 C196 1.410 . S
C195 C203 1.503 . S
C196 C195 1.410 . S
C196 C197 1.392 . S
C196 C199 1.511 . S
C197 C193 1.376 . S
C197 C196 1.392 . S
C197 H209 0.929 . S
C198 C194 1.531 . S
C198 H210 0.960 . S
C198 H211 0.962 . S
C198 H212 0.960 . S
C199 C196 1.511 . S
C199 H213 0.961 . S
C199 H214 0.961 . S
C199 H215 0.961 . S
C200 C201 1.370 . S
C200 C202 1.363 . S
C200 H216 0.931 . S
C201 C200 1.370 . S
C201 C205 1.408 . S
C202 C200 1.363 . S
C202 C203 1.370 . S
C202 C206 1.524 . S
C203 C195 1.503 . S
C203 C202 1.370 . S
C203 C204 1.403 . S
C204 C203 1.403 . S
C204 C205 1.404 . S
C204 C207 1.539 . S
C205 C201 1.408 . S
C205 C204 1.404 . S
C205 H217 0.930 . S
C206 C202 1.524 . S
C206 H218 0.956 . S
C206 H219 0.961 . S
C206 H220 0.961 . S
C207 C204 1.539 . S
C207 H221 0.968 . S
C207 H222 0.961 . S
C207 H223 0.960 . S
H208 C192 0.931 . S
H209 C197 0.929 . S
H210 C198 0.960 . S
H211 C198 0.962 . S
H212 C198 0.960 . S
H213 C199 0.961 . S
H214 C199 0.961 . S
H215 C199 0.961 . S
H216 C200 0.931 . S
H217 C205 0.930 . S
H218 C206 0.956 . S
H219 C206 0.961 . S
H220 C206 0.961 . S
H221 C207 0.968 . S
H222 C207 0.961 . S
H223 C207 0.960 . S
C224 C225 1.391 . S
C224 C226 1.394 . S
C224 H240 0.931 . S
C225 C224 1.391 . S
C225 C229 1.376 . S
C226 C224 1.394 . S
C226 C227 1.369 . S
C226 C230 1.531 . S
C227 C226 1.369 . S
C227 C228 1.410 . S
C227 C235 1.503 . S
C228 C227 1.410 . S
C228 C229 1.392 . S
C228 C231 1.511 . S
C229 C225 1.376 . S
C229 C228 1.392 . S
C229 H241 0.929 . S
C230 C226 1.531 . S
C230 H242 0.960 . S
C230 H243 0.962 . S
C230 H244 0.960 . S
C231 C228 1.511 . S
C231 H245 0.961 . S
C231 H246 0.961 . S
C231 H247 0.961 . S
C232 C233 1.370 . S
C232 C234 1.363 . S
C232 H248 0.931 . S
C233 C232 1.370 . S
C233 C237 1.408 . S
C234 C232 1.363 . S
C234 C235 1.370 . S
C234 C238 1.524 . S
C235 C227 1.503 . S
C235 C234 1.370 . S
C235 C236 1.403 . S
C236 C235 1.403 . S
C236 C237 1.404 . S
C236 C239 1.539 . S
C237 C233 1.408 . S
C237 C236 1.404 . S
C237 H249 0.930 . S
C238 C234 1.524 . S
C238 H250 0.956 . S
C238 H251 0.961 . S
C238 H252 0.961 . S
C239 C236 1.539 . S
C239 H253 0.958 . S
C239 H254 0.961 . S
C239 H255 0.960 . S
H240 C224 0.931 . S
H241 C229 0.929 . S
H242 C230 0.960 . S
H243 C230 0.962 . S
H244 C230 0.960 . S
H245 C231 0.961 . S
H246 C231 0.961 . S
H247 C231 0.961 . S
H248 C232 0.931 . S
H249 C237 0.930 . S
H250 C238 0.956 . S
H251 C238 0.961 . S
H252 C238 0.961 . S
H253 C239 0.958 . S
H254 C239 0.961 . S
H255 C239 0.960 . S
C256 C257 1.391 . S
C256 C258 1.394 . S
C256 H272 0.931 . S
C257 C256 1.391 . S
C257 C261 1.376 . S
C258 C256 1.394 . S
C258 C259 1.369 . S
C258 C262 1.531 . S
C259 C258 1.369 . S
C259 C260 1.410 . S
C259 C267 1.503 . S
C260 C259 1.410 . S
C260 C261 1.392 . S
C260 C263 1.511 . S
C261 C257 1.376 . S
C261 C260 1.392 . S
C261 H273 0.929 . S
C262 C258 1.531 . S
C262 H274 0.960 . S
C262 H275 0.962 . S
C262 H276 0.960 . S
C263 C260 1.511 . S
C263 H277 0.961 . S
C263 H278 0.961 . S
C263 H279 0.961 . S
C264 C265 1.370 . S
C264 C266 1.363 . S
C264 H280 0.931 . S
C265 C264 1.370 . S
C265 C269 1.408 . S
C266 C264 1.363 . S
C266 C267 1.370 . S
C266 C270 1.524 . S
C267 C259 1.503 . S
C267 C266 1.370 . S
C267 C268 1.403 . S
C268 C267 1.403 . S
C268 C269 1.404 . S
C268 C271 1.539 . S
C269 C265 1.408 . S
C269 C268 1.404 . S
C269 H281 0.930 . S
C270 C266 1.524 . S
C270 H282 0.956 . S
C270 H283 0.961 . S
C270 H284 0.961 . S
C271 C268 1.539 . S
C271 H285 0.958 . S
C271 H286 0.961 . S
C271 H287 0.960 . S
H272 C256 0.931 . S
H273 C261 0.929 . S
H274 C262 0.960 . S
H275 C262 0.962 . S
H276 C262 0.960 . S
H277 C263 0.961 . S
H278 C263 0.961 . S
H279 C263 0.961 . S
H280 C264 0.931 . S
H281 C269 0.930 . S
H282 C270 0.956 . S
H283 C270 0.961 . S
H284 C270 0.961 . S
H285 C271 0.958 . S
H286 C271 0.961 . S
H287 C271 0.960 . S
C288 C289 1.391 . S
C288 C290 1.394 . S
C288 H304 0.931 . S
C289 C288 1.391 . S
C289 C293 1.376 . S
C290 C288 1.394 . S
C290 C291 1.369 . S
C290 C294 1.531 . S
C291 C290 1.369 . S
C291 C292 1.410 . S
C291 C299 1.503 . S
C292 C291 1.410 . S
C292 C293 1.392 . S
C292 C295 1.511 . S
C293 C289 1.376 . S
C293 C292 1.392 . S
C293 H305 0.929 . S
C294 C290 1.531 . S
C294 H306 0.960 . S
C294 H307 0.962 . S
C294 H308 0.960 . S
C295 C292 1.511 . S
C295 H309 0.961 . S
C295 H310 0.961 . S
C295 H311 0.961 . S
C296 C297 1.370 . S
C296 C298 1.363 . S
C296 H312 0.931 . S
C297 C296 1.370 . S
C297 C301 1.408 . S
C298 C296 1.363 . S
C298 C299 1.370 . S
C298 C302 1.524 . S
C299 C291 1.503 . S
C299 C298 1.370 . S
C299 C300 1.403 . S
C300 C299 1.403 . S
C300 C301 1.404 . S
C300 C303 1.539 . S
C301 C297 1.408 . S
C301 C300 1.404 . S
C301 H313 0.930 . S
C302 C298 1.524 . S
C302 H314 0.956 . S
C302 H315 0.961 . S
C302 H316 0.961 . S
C303 C300 1.539 . S
C303 H317 0.958 . S
C303 H318 0.961 . S
C303 H319 0.960 . S
H304 C288 0.931 . S
H305 C293 0.929 . S
H306 C294 0.960 . S
H307 C294 0.962 . S
H308 C294 0.960 . S
H309 C295 0.961 . S
H310 C295 0.961 . S
H311 C295 0.961 . S
H312 C296 0.931 . S
H313 C301 0.930 . S
H314 C302 0.956 . S
H315 C302 0.961 . S
H316 C302 0.961 . S
H317 C303 0.958 . S
H318 C303 0.961 . S
H319 C303 0.960 . S
C320 C321 1.391 . S
C320 C322 1.394 . S
C320 H336 0.931 . S
C321 C320 1.391 . S
C321 C325 1.376 . S
C322 C320 1.394 . S
C322 C323 1.369 . S
C322 C326 1.531 . S
C323 C322 1.369 . S
C323 C324 1.410 . S
C323 C331 1.503 . S
C324 C323 1.410 . S
C324 C325 1.392 . S
C324 C327 1.511 . S
C325 C321 1.376 . S
C325 C324 1.392 . S
C325 H337 0.929 1_556 S
C326 C322 1.531 . S
C326 H338 0.960 . S
C326 H339 0.962 . S
C326 H340 0.960 . S
C327 C324 1.511 . S
C327 H341 0.961 1_556 S
C327 H342 0.961 . S
C327 H343 0.961 1_556 S
C328 C329 1.370 . S
C328 C330 1.363 . S
C328 H344 0.931 . S
C329 C328 1.370 . S
C329 C333 1.408 . S
C330 C328 1.363 . S
C330 C331 1.370 . S
C330 C334 1.524 . S
C331 C323 1.503 . S
C331 C330 1.370 . S
C331 C332 1.403 . S
C332 C331 1.403 . S
C332 C333 1.404 . S
C332 C335 1.539 . S
C333 C329 1.408 . S
C333 C332 1.404 . S
C333 H345 0.930 . S
C334 C330 1.524 . S
C334 H346 0.956 . S
C334 H347 0.961 . S
C334 H348 0.961 . S
C335 C332 1.539 . S
C335 H349 0.958 . S
C335 H350 0.961 . S
C335 H351 0.960 . S
H336 C320 0.931 . S
H337 C325 0.929 1_554 S
H338 C326 0.960 . S
H339 C326 0.962 . S
H340 C326 0.960 . S
H341 C327 0.961 1_554 S
H342 C327 0.961 . S
H343 C327 0.961 1_554 S
H344 C328 0.931 . S
H345 C333 0.930 . S
H346 C334 0.956 . S
H347 C334 0.961 . S
H348 C334 0.961 . S
H349 C335 0.958 . S
H350 C335 0.961 . S
H351 C335 0.960 . S
C352 C353 1.391 . S
C352 C354 1.394 . S
C352 H368 0.931 . S
C353 C352 1.391 . S
C353 C357 1.376 . S
C354 C352 1.394 . S
C354 C355 1.369 . S
C354 C358 1.531 . S
C355 C354 1.369 . S
C355 C356 1.410 . S
C355 C363 1.503 . S
C356 C355 1.410 . S
C356 C357 1.392 . S
C356 C359 1.511 . S
C357 C353 1.376 . S
C357 C356 1.392 . S
C357 H369 0.929 . S
C358 C354 1.531 . S
C358 H370 0.960 . S
C358 H371 0.962 . S
C358 H372 0.960 . S
C359 C356 1.511 . S
C359 H373 0.961 . S
C359 H374 0.961 . S
C359 H375 0.961 . S
C360 C361 1.370 . S
C360 C362 1.363 . S
C360 H376 0.931 . S
C361 C360 1.370 . S
C361 C365 1.408 . S
C362 C360 1.363 . S
C362 C363 1.370 . S
C362 C366 1.524 . S
C363 C355 1.503 . S
C363 C362 1.370 . S
C363 C364 1.403 . S
C364 C363 1.403 . S
C364 C365 1.404 . S
C364 C367 1.539 . S
C365 C361 1.408 . S
C365 C364 1.404 . S
C365 H377 0.930 . S
C366 C362 1.524 . S
C366 H378 0.956 . S
C366 H379 0.961 . S
C366 H380 0.961 . S
C367 C364 1.539 . S
C367 H381 0.958 . S
C367 H382 0.961 . S
C367 H383 0.960 . S
H368 C352 0.931 . S
H369 C357 0.929 . S
H370 C358 0.960 . S
H371 C358 0.962 . S
H372 C358 0.960 . S
H373 C359 0.961 . S
H374 C359 0.961 . S
H375 C359 0.961 . S
H376 C360 0.931 . S
H377 C365 0.930 . S
H378 C366 0.956 . S
H379 C366 0.961 . S
H380 C366 0.961 . S
H381 C367 0.958 . S
H382 C367 0.961 . S
H383 C367 0.960 . S
C384 C385 1.391 . S
C384 C386 1.394 . S
C384 H400 0.931 . S
C385 C384 1.391 . S
C385 C389 1.376 . S
C386 C384 1.394 . S
C386 C387 1.369 . S
C386 C390 1.531 . S
C387 C386 1.369 . S
C387 C388 1.410 . S
C387 C395 1.503 . S
C388 C387 1.410 . S
C388 C389 1.392 . S
C388 C391 1.511 . S
C389 C385 1.376 . S
C389 C388 1.392 . S
C389 H401 0.929 . S
C390 C386 1.531 . S
C390 H402 0.960 . S
C390 H403 0.962 . S
C390 H404 0.960 . S
C391 C388 1.511 . S
C391 H405 0.961 . S
C391 H406 0.961 . S
C391 H407 0.961 . S
C392 C393 1.370 . S
C392 C394 1.363 . S
C392 H408 0.931 . S
C393 C392 1.370 . S
C393 C397 1.408 . S
C394 C392 1.363 . S
C394 C395 1.370 . S
C394 C398 1.524 . S
C395 C387 1.503 . S
C395 C394 1.370 . S
C395 C396 1.403 . S
C396 C395 1.403 . S
C396 C397 1.404 . S
C396 C399 1.539 . S
C397 C393 1.408 . S
C397 C396 1.404 . S
C397 H409 0.930 . S
C398 C394 1.524 . S
C398 H410 0.956 . S
C398 H411 0.961 . S
C398 H412 0.961 . S
C399 C396 1.539 . S
C399 H413 0.958 . S
C399 H414 0.961 . S
C399 H415 0.960 . S
H400 C384 0.931 . S
H401 C389 0.929 . S
H402 C390 0.960 . S
H403 C390 0.962 . S
H404 C390 0.960 . S
H405 C391 0.961 . S
H406 C391 0.961 . S
H407 C391 0.961 . S
H408 C392 0.931 . S
H409 C397 0.930 . S
H410 C398 0.956 . S
H411 C398 0.961 . S
H412 C398 0.961 . S
H413 C399 0.958 . S
H414 C399 0.961 . S
H415 C399 0.960 . S
C416 C417 1.391 . S
C416 C418 1.394 . S
C416 H432 0.931 . S
C417 C416 1.391 . S
C417 C421 1.376 . S
C418 C416 1.394 . S
C418 C419 1.369 . S
C418 C422 1.531 . S
C419 C418 1.369 . S
C419 C420 1.410 . S
C419 C427 1.503 . S
C420 C419 1.410 . S
C420 C421 1.392 . S
C420 C423 1.511 . S
C421 C417 1.376 . S
C421 C420 1.392 . S
C421 H433 0.929 . S
C422 C418 1.531 . S
C422 H434 0.960 . S
C422 H435 0.962 . S
C422 H436 0.960 . S
C423 C420 1.511 . S
C423 H437 0.961 . S
C423 H438 0.961 . S
C423 H439 0.961 . S
C424 C425 1.370 . S
C424 C426 1.363 . S
C424 H440 0.931 . S
C425 C424 1.370 . S
C425 C429 1.408 . S
C426 C424 1.363 . S
C426 C427 1.370 . S
C426 C430 1.524 . S
C427 C419 1.503 . S
C427 C426 1.370 . S
C427 C428 1.403 . S
C428 C427 1.403 . S
C428 C429 1.404 . S
C428 C431 1.539 . S
C429 C425 1.408 . S
C429 C428 1.404 . S
C429 H441 0.930 . S
C430 C426 1.524 . S
C430 H442 0.956 . S
C430 H443 0.961 . S
C430 H444 0.961 . S
C431 C428 1.539 . S
C431 H445 0.958 . S
C431 H446 0.961 . S
C431 H447 0.960 . S
H432 C416 0.931 . S
H433 C421 0.929 . S
H434 C422 0.960 . S
H435 C422 0.962 . S
H436 C422 0.960 . S
H437 C423 0.961 . S
H438 C423 0.961 . S
H439 C423 0.961 . S
H440 C424 0.931 . S
H441 C429 0.930 . S
H442 C430 0.956 . S
H443 C430 0.961 . S
H444 C430 0.961 . S
H445 C431 0.958 . S
H446 C431 0.961 . S
H447 C431 0.960 . S
C448 C449 1.391 . S
C448 C450 1.394 . S
C448 H464 0.931 1_556 S
C449 C448 1.391 . S
C449 C453 1.376 . S
C450 C448 1.394 . S
C450 C451 1.369 . S
C450 C454 1.531 1_556 S
C451 C450 1.369 . S
C451 C452 1.410 . S
C451 C459 1.503 . S
C452 C451 1.410 . S
C452 C453 1.392 . S
C452 C455 1.511 . S
C453 C449 1.376 . S
C453 C452 1.392 . S
C453 H465 0.929 . S
C454 C450 1.531 1_554 S
C454 H466 0.960 1_554 S
C454 H467 0.962 . S
C454 H468 0.960 . S
C455 C452 1.511 . S
C455 H469 0.961 . S
C455 H470 0.961 . S
C455 H471 0.961 . S
C456 C457 1.370 . S
C456 C458 1.363 . S
C456 H472 0.931 . S
C457 C456 1.370 . S
C457 C461 1.408 . S
C458 C456 1.363 . S
C458 C459 1.370 . S
C458 C462 1.524 . S
C459 C451 1.503 . S
C459 C458 1.370 . S
C459 C460 1.403 . S
C460 C459 1.403 . S
C460 C461 1.404 . S
C460 C463 1.539 . S
C461 C457 1.408 . S
C461 C460 1.404 . S
C461 H473 0.930 . S
C462 C458 1.524 . S
C462 H474 0.956 . S
C462 H475 0.961 . S
C462 H476 0.961 . S
C463 C460 1.539 . S
C463 H477 0.958 . S
C463 H478 0.961 . S
C463 H479 0.960 . S
H464 C448 0.931 1_554 S
H465 C453 0.929 . S
H466 C454 0.960 1_556 S
H467 C454 0.962 . S
H468 C454 0.960 . S
H469 C455 0.961 . S
H470 C455 0.961 . S
H471 C455 0.961 . S
H472 C456 0.931 . S
H473 C461 0.930 . S
H474 C462 0.956 . S
H475 C462 0.961 . S
H476 C462 0.961 . S
H477 C463 0.958 . S
H478 C463 0.961 . S
H479 C463 0.960 . S
C480 C481 1.391 . S
C480 C482 1.394 . S
C480 H496 0.931 . S
C481 C480 1.391 . S
C481 C485 1.376 . S
C482 C480 1.394 . S
C482 C483 1.369 . S
C482 C486 1.531 . S
C483 C482 1.369 . S
C483 C484 1.410 . S
C483 C491 1.503 . S
C484 C483 1.410 . S
C484 C485 1.392 . S
C484 C487 1.511 . S
C485 C481 1.376 . S
C485 C484 1.392 . S
C485 H497 0.929 . S
C486 C482 1.531 . S
C486 H498 0.960 . S
C486 H499 0.962 . S
C486 H500 0.960 . S
C487 C484 1.511 . S
C487 H501 0.961 . S
C487 H502 0.961 . S
C487 H503 0.961 . S
C488 C489 1.370 . S
C488 C490 1.363 . S
C488 H504 0.931 . S
C489 C488 1.370 . S
C489 C493 1.408 . S
C490 C488 1.363 . S
C490 C491 1.370 . S
C490 C494 1.524 . S
C491 C483 1.503 . S
C491 C490 1.370 . S
C491 C492 1.403 . S
C492 C491 1.403 . S
C492 C493 1.404 . S
C492 C495 1.539 . S
C493 C489 1.408 . S
C493 C492 1.404 . S
C493 H505 0.930 . S
C494 C490 1.524 . S
C494 H506 0.956 . S
C494 H507 0.961 . S
C494 H508 0.961 . S
C495 C492 1.539 . S
C495 H509 0.958 . S
C495 H510 0.961 . S
C495 H511 0.960 . S
H496 C480 0.931 . S
H497 C485 0.929 . S
H498 C486 0.960 . S
H499 C486 0.962 . S
H500 C486 0.960 . S
H501 C487 0.961 . S
H502 C487 0.961 . S
H503 C487 0.961 . S
H504 C488 0.931 . S
H505 C493 0.930 . S
H506 C494 0.956 . S
H507 C494 0.961 . S
H508 C494 0.961 . S
H509 C495 0.958 . S
H510 C495 0.961 . S
H511 C495 0.960 . S
C512 C513 1.391 . S
C512 C514 1.394 . S
C512 H528 0.931 1_556 S
C513 C512 1.391 . S
C513 C517 1.376 . S
C514 C512 1.394 . S
C514 C515 1.369 . S
C514 C518 1.531 . S
C515 C514 1.369 . S
C515 C516 1.410 . S
C515 C523 1.503 . S
C516 C515 1.410 . S
C516 C517 1.392 . S
C516 C519 1.511 . S
C517 C513 1.376 . S
C517 C516 1.392 . S
C517 H529 0.929 . S
C518 C514 1.531 . S
C518 H530 0.960 . S
C518 H531 0.962 . S
C518 H532 0.960 1_556 S
C519 C516 1.511 . S
C519 H533 0.961 . S
C519 H534 0.961 . S
C519 H535 0.961 . S
C520 C521 1.370 . S
C520 C522 1.363 . S
C520 H536 0.931 . S
C521 C520 1.370 . S
C521 C525 1.408 . S
C522 C520 1.363 . S
C522 C523 1.370 . S
C522 C526 1.524 . S
C523 C515 1.503 . S
C523 C522 1.370 . S
C523 C524 1.403 . S
C524 C523 1.403 . S
C524 C525 1.404 . S
C524 C527 1.539 . S
C525 C521 1.408 . S
C525 C524 1.404 . S
C525 H537 0.930 . S
C526 C522 1.524 . S
C526 H538 0.956 . S
C526 H539 0.961 . S
C526 H540 0.961 . S
C527 C524 1.539 . S
C527 H541 0.958 . S
C527 H542 0.961 . S
C527 H543 0.960 . S
H528 C512 0.931 1_554 S
H529 C517 0.929 . S
H530 C518 0.960 . S
H531 C518 0.962 . S
H532 C518 0.960 1_554 S
H533 C519 0.961 . S
H534 C519 0.961 . S
H535 C519 0.961 . S
H536 C520 0.931 . S
H537 C525 0.930 . S
H538 C526 0.956 . S
H539 C526 0.961 . S
H540 C526 0.961 . S
H541 C527 0.958 . S
H542 C527 0.961 . S
H543 C527 0.960 . S
C544 C545 1.391 . S
C544 C546 1.394 . S
C544 H560 0.931 . S
C545 C544 1.391 . S
C545 C549 1.376 . S
C546 C544 1.394 . S
C546 C547 1.369 . S
C546 C550 1.531 . S
C547 C546 1.369 . S
C547 C548 1.410 . S
C547 C555 1.503 . S
C548 C547 1.410 . S
C548 C549 1.392 . S
C548 C551 1.511 . S
C549 C545 1.376 . S
C549 C548 1.392 . S
C549 H561 0.929 . S
C550 C546 1.531 . S
C550 H562 0.960 . S
C550 H563 0.962 . S
C550 H564 0.960 . S
C551 C548 1.511 . S
C551 H565 0.961 . S
C551 H566 0.961 . S
C551 H567 0.961 . S
C552 C553 1.370 . S
C552 C554 1.363 . S
C552 H568 0.931 . S
C553 C552 1.370 . S
C553 C557 1.408 . S
C554 C552 1.363 . S
C554 C555 1.370 . S
C554 C558 1.524 . S
C555 C547 1.503 . S
C555 C554 1.370 . S
C555 C556 1.403 . S
C556 C555 1.403 . S
C556 C557 1.404 . S
C556 C559 1.539 . S
C557 C553 1.408 . S
C557 C556 1.404 . S
C557 H569 0.930 . S
C558 C554 1.524 . S
C558 H570 0.956 . S
C558 H571 0.961 . S
C558 H572 0.961 . S
C559 C556 1.539 . S
C559 H573 0.958 . S
C559 H574 0.961 . S
C559 H575 0.960 . S
H560 C544 0.931 . S
H561 C549 0.929 . S
H562 C550 0.960 . S
H563 C550 0.962 . S
H564 C550 0.960 . S
H565 C551 0.961 . S
H566 C551 0.961 . S
H567 C551 0.961 . S
H568 C552 0.931 . S
H569 C557 0.930 . S
H570 C558 0.956 . S
H571 C558 0.961 . S
H572 C558 0.961 . S
H573 C559 0.958 . S
H574 C559 0.961 . S
H575 C559 0.960 . S
C576 C577 1.391 . S
C576 C578 1.394 . S
C576 H592 0.931 . S
C577 C576 1.391 . S
C577 C581 1.376 . S
C578 C576 1.394 . S
C578 C579 1.369 . S
C578 C582 1.531 . S
C579 C578 1.369 . S
C579 C580 1.410 . S
C579 C587 1.503 1_565 S
C580 C579 1.410 . S
C580 C581 1.392 . S
C580 C583 1.511 1_556 S
C581 C577 1.376 . S
C581 C580 1.392 . S
C581 H593 0.929 1_556 S
C582 C578 1.531 . S
C582 H594 0.960 1_565 S
C582 H595 0.962 . S
C582 H596 0.960 . S
C583 C580 1.511 1_554 S
C583 H597 0.961 . S
C583 H598 0.963 1_554 S
C583 H599 0.961 1_565 S
C584 C585 1.370 . S
C584 C586 1.363 . S
C584 H600 0.931 . S
C585 C584 1.370 . S
C585 C589 1.408 . S
C586 C584 1.363 . S
C586 C587 1.370 . S
C586 C590 1.524 1_545 S
C587 C579 1.503 1_545 S
C587 C586 1.370 . S
C587 C588 1.403 . S
C588 C587 1.403 . S
C588 C589 1.404 . S
C588 C591 1.539 . S
C589 C585 1.408 . S
C589 C588 1.404 . S
C589 H601 0.930 . S
C590 C586 1.524 1_565 S
C590 H602 0.956 . S
C590 H603 0.961 . S
C590 H604 0.961 . S
C591 C588 1.539 . S
C591 H605 0.958 . S
C591 H606 0.961 . S
C591 H607 0.960 . S
H592 C576 0.931 . S
H593 C581 0.929 1_554 S
H594 C582 0.960 1_545 S
H595 C582 0.962 . S
H596 C582 0.960 . S
H597 C583 0.961 . S
H598 C583 0.963 1_556 S
H599 C583 0.961 1_545 S
H600 C584 0.931 . S
H601 C589 0.930 . S
H602 C590 0.956 . S
H603 C590 0.961 . S
H604 C590 0.961 . S
H605 C591 0.958 . S
H606 C591 0.961 . S
H607 C591 0.960 . S
C608 C609 1.391 . S
C608 C610 1.394 . S
C608 H624 0.931 . S
C609 C608 1.391 . S
C609 C613 1.376 . S
C610 C608 1.394 . S
C610 C611 1.369 . S
C610 C614 1.531 . S
C611 C610 1.369 . S
C611 C612 1.410 1_545 S
C611 C619 1.503 1_545 S
C612 C611 1.410 1_565 S
C612 C613 1.392 1_565 S
C612 C615 1.511 . S
C613 C609 1.376 . S
C613 C612 1.392 1_545 S
C613 H625 0.929 . S
C614 C610 1.531 . S
C614 H626 0.960 . S
C614 H627 0.962 . S
C614 H628 0.960 . S
C615 C612 1.511 . S
C615 H629 0.961 . S
C615 H630 0.961 . S
C615 H631 0.961 . S
C616 C617 1.370 . S
C616 C618 1.363 . S
C616 H632 0.931 . S
C617 C616 1.370 . S
C617 C621 1.408 . S
C618 C616 1.363 . S
C618 C619 1.370 . S
C618 C622 1.524 . S
C619 C611 1.503 1_565 S
C619 C618 1.370 . S
C619 C620 1.403 . S
C620 C619 1.403 . S
C620 C621 1.404 . S
C620 C623 1.539 . S
C621 C617 1.408 . S
C621 C620 1.404 . S
C621 H633 0.930 . S
C622 C618 1.524 . S
C622 H634 0.956 . S
C622 H635 0.961 . S
C622 H636 0.961 . S
C623 C620 1.539 . S
C623 H637 0.958 1_565 S
C623 H638 0.961 . S
C623 H639 0.960 1_565 S
H624 C608 0.931 . S
H625 C613 0.929 . S
H626 C614 0.960 . S
H627 C614 0.962 . S
H628 C614 0.960 . S
H629 C615 0.961 . S
H630 C615 0.961 . S
H631 C615 0.961 . S
H632 C616 0.931 . S
H633 C621 0.930 . S
H634 C622 0.956 . S
H635 C622 0.961 . S
H636 C622 0.961 . S
H637 C623 0.958 1_545 S
H638 C623 0.961 . S
H639 C623 0.960 1_545 S
C640 C641 1.391 . S
C640 C642 1.394 1_565 S
C640 H656 0.931 1_556 S
C641 C640 1.391 . S
C641 C645 1.376 . S
C642 C640 1.394 1_545 S
C642 C643 1.369 1_545 S
C642 C646 1.531 . S
C643 C642 1.369 1_565 S
C643 C644 1.410 . S
C643 C651 1.503 1_565 S
C644 C643 1.410 . S
C644 C645 1.392 . S
C644 C647 1.511 . S
C645 C641 1.376 . S
C645 C644 1.392 . S
C645 H657 0.929 . S
C646 C642 1.531 . S
C646 H658 0.960 . S
C646 H659 0.962 . S
C646 H660 0.960 . S
C647 C644 1.511 . S
C647 H661 0.961 . S
C647 H662 0.961 . S
C647 H663 0.961 . S
C648 C649 1.370 . S
C648 C650 1.363 . S
C648 H664 0.931 . S
C649 C648 1.370 . S
C649 C653 1.408 . S
C650 C648 1.363 . S
C650 C651 1.370 . S
C650 C654 1.524 1_545 S
C651 C643 1.503 1_545 S
C651 C650 1.370 . S
C651 C652 1.403 . S
C652 C651 1.403 . S
C652 C653 1.404 . S
C652 C655 1.539 . S
C653 C649 1.408 . S
C653 C652 1.404 . S
C653 H665 0.930 . S
C654 C650 1.524 1_565 S
C654 H666 0.956 . S
C654 H667 0.961 . S
C654 H668 0.961 . S
C655 C652 1.539 . S
C655 H669 0.958 . S
C655 H670 0.961 . S
C655 H671 0.960 . S
H656 C640 0.931 1_554 S
H657 C645 0.929 . S
H658 C646 0.960 . S
H659 C646 0.962 . S
H660 C646 0.960 . S
H661 C647 0.961 . S
H662 C647 0.961 . S
H663 C647 0.961 . S
H664 C648 0.931 . S
H665 C653 0.930 . S
H666 C654 0.956 . S
H667 C654 0.961 . S
H668 C654 0.961 . S
H669 C655 0.958 . S
H670 C655 0.961 . S
H671 C655 0.960 . S
C672 C673 1.391 . S
C672 C674 1.394 . S
C672 H688 0.931 . S
C673 C672 1.391 . S
C673 C677 1.376 . S
C674 C672 1.394 . S
C674 C675 1.369 . S
C674 C678 1.531 1_545 S
C675 C674 1.369 . S
C675 C676 1.410 . S
C675 C683 1.503 1_545 S
C676 C675 1.410 . S
C676 C677 1.392 . S
C676 C679 1.511 . S
C677 C673 1.376 . S
C677 C676 1.392 . S
C677 H689 0.929 . S
C678 C674 1.531 1_565 S
C678 H690 0.960 . S
C678 H691 0.962 . S
C678 H692 0.960 1_565 S
C679 C676 1.511 . S
C679 H693 0.961 . S
C679 H694 0.961 . S
C679 H695 0.961 . S
C680 C681 1.370 . S
C680 C682 1.363 . S
C680 H696 0.931 . S
C681 C680 1.370 . S
C681 C685 1.408 . S
C682 C680 1.363 . S
C682 C683 1.370 . S
C682 C686 1.524 . S
C683 C675 1.503 1_565 S
C683 C682 1.370 . S
C683 C684 1.403 1_565 S
C684 C683 1.403 1_545 S
C684 C685 1.404 1_545 S
C684 C687 1.539 . S
C685 C681 1.408 . S
C685 C684 1.404 1_565 S
C685 H697 0.930 . S
C686 C682 1.524 . S
C686 H698 0.956 . S
C686 H699 0.961 . S
C686 H700 0.961 . S
C687 C684 1.539 . S
C687 H701 0.958 . S
C687 H702 0.961 . S
C687 H703 0.960 . S
H688 C672 0.931 . S
H689 C677 0.929 . S
H690 C678 0.960 . S
H691 C678 0.962 . S
H692 C678 0.960 1_545 S
H693 C679 0.961 . S
H694 C679 0.961 . S
H695 C679 0.961 . S
H696 C680 0.931 . S
H697 C685 0.930 . S
H698 C686 0.956 . S
H699 C686 0.961 . S
H700 C686 0.961 . S
H701 C687 0.958 . S
H702 C687 0.961 . S
H703 C687 0.960 . S
C704 C705 1.391 . S
C704 C706 1.394 . S
C704 H720 0.931 . S
C705 C704 1.391 . S
C705 C709 1.376 . S
C706 C704 1.394 . S
C706 C707 1.369 . S
C706 C710 1.531 . S
C707 C706 1.369 . S
C707 C708 1.410 . S
C707 C715 1.503 . S
C708 C707 1.410 . S
C708 C709 1.392 . S
C708 C711 1.511 . S
C709 C705 1.376 . S
C709 C708 1.392 . S
C709 H721 0.929 . S
C710 C706 1.531 . S
C710 H722 0.960 . S
C710 H723 0.962 . S
C710 H724 0.960 . S
C711 C708 1.511 . S
C711 H725 0.961 . S
C711 H726 0.961 . S
C711 H727 0.961 . S
C712 C713 1.370 . S
C712 C714 1.363 . S
C712 H728 0.931 . S
C713 C712 1.370 . S
C713 C717 1.408 . S
C714 C712 1.363 . S
C714 C715 1.370 . S
C714 C718 1.524 . S
C715 C707 1.503 . S
C715 C714 1.370 . S
C715 C716 1.403 . S
C716 C715 1.403 . S
C716 C717 1.404 . S
C716 C719 1.539 . S
C717 C713 1.408 . S
C717 C716 1.404 . S
C717 H729 0.930 . S
C718 C714 1.524 . S
C718 H730 0.956 . S
C718 H731 0.961 . S
C718 H732 0.961 . S
C719 C716 1.539 . S
C719 H733 0.958 . S
C719 H734 0.961 . S
C719 H735 0.960 . S
H720 C704 0.931 . S
H721 C709 0.929 . S
H722 C710 0.960 . S
H723 C710 0.962 . S
H724 C710 0.960 . S
H725 C711 0.961 . S
H726 C711 0.961 . S
H727 C711 0.961 . S
H728 C712 0.931 . S
H729 C717 0.930 . S
H730 C718 0.956 . S
H731 C718 0.961 . S
H732 C718 0.961 . S
H733 C719 0.958 . S
H734 C719 0.961 . S
H735 C719 0.960 . S
C736 C737 1.391 . S
C736 C738 1.394 . S
C736 H752 0.931 . S
C737 C736 1.391 . S
C737 C741 1.376 . S
C738 C736 1.394 . S
C738 C739 1.369 . S
C738 C742 1.531 . S
C739 C738 1.369 . S
C739 C740 1.410 . S
C739 C747 1.503 . S
C740 C739 1.410 . S
C740 C741 1.392 . S
C740 C743 1.511 . S
C741 C737 1.376 . S
C741 C740 1.392 . S
C741 H753 0.929 . S
C742 C738 1.531 . S
C742 H754 0.960 . S
C742 H755 0.962 . S
C742 H756 0.960 . S
C743 C740 1.511 . S
C743 H757 0.961 . S
C743 H758 0.961 . S
C743 H759 0.961 . S
C744 C745 1.370 . S
C744 C746 1.363 . S
C744 H760 0.931 . S
C745 C744 1.370 . S
C745 C749 1.408 . S
C746 C744 1.363 . S
C746 C747 1.370 . S
C746 C750 1.524 . S
C747 C739 1.503 . S
C747 C746 1.370 . S
C747 C748 1.403 . S
C748 C747 1.403 . S
C748 C749 1.404 . S
C748 C751 1.539 . S
C749 C745 1.408 . S
C749 C748 1.404 . S
C749 H761 0.930 . S
C750 C746 1.524 . S
C750 H762 0.956 . S
C750 H763 0.961 . S
C750 H764 0.961 . S
C751 C748 1.539 . S
C751 H765 0.958 . S
C751 H766 0.961 . S
C751 H767 0.960 . S
H752 C736 0.931 . S
H753 C741 0.929 . S
H754 C742 0.960 . S
H755 C742 0.962 . S
H756 C742 0.960 . S
H757 C743 0.961 . S
H758 C743 0.961 . S
H759 C743 0.961 . S
H760 C744 0.931 . S
H761 C749 0.930 . S
H762 C750 0.956 . S
H763 C750 0.961 . S
H764 C750 0.961 . S
H765 C751 0.958 . S
H766 C751 0.961 . S
H767 C751 0.960 . S
C768 C769 1.391 . S
C768 C770 1.394 . S
C768 H784 0.931 . S
C769 C768 1.391 . S
C769 C773 1.376 . S
C770 C768 1.394 . S
C770 C771 1.369 . S
C770 C774 1.531 . S
C771 C770 1.369 . S
C771 C772 1.410 . S
C771 C779 1.503 . S
C772 C771 1.410 . S
C772 C773 1.392 . S
C772 C775 1.511 . S
C773 C769 1.376 . S
C773 C772 1.392 . S
C773 H785 0.929 . S
C774 C770 1.531 . S
C774 H786 0.960 . S
C774 H787 0.962 . S
C774 H788 0.960 . S
C775 C772 1.511 . S
C775 H789 0.961 . S
C775 H790 0.961 . S
C775 H791 0.961 . S
C776 C777 1.370 . S
C776 C778 1.363 . S
C776 H792 0.931 . S
C777 C776 1.370 . S
C777 C781 1.408 . S
C778 C776 1.363 . S
C778 C779 1.370 . S
C778 C782 1.524 . S
C779 C771 1.503 . S
C779 C778 1.370 . S
C779 C780 1.403 . S
C780 C779 1.403 . S
C780 C781 1.404 . S
C780 C783 1.539 . S
C781 C777 1.408 . S
C781 C780 1.404 . S
C781 H793 0.930 . S
C782 C778 1.524 . S
C782 H794 0.956 . S
C782 H795 0.961 . S
C782 H796 0.961 . S
C783 C780 1.539 . S
C783 H797 0.958 . S
C783 H798 0.961 . S
C783 H799 0.960 . S
H784 C768 0.931 . S
H785 C773 0.929 . S
H786 C774 0.960 . S
H787 C774 0.962 . S
H788 C774 0.960 . S
H789 C775 0.961 . S
H790 C775 0.961 . S
H791 C775 0.961 . S
H792 C776 0.931 . S
H793 C781 0.930 . S
H794 C782 0.956 . S
H795 C782 0.961 . S
H796 C782 0.961 . S
H797 C783 0.958 . S
H798 C783 0.961 . S
H799 C783 0.960 . S
C800 C801 1.391 . S
C800 C802 1.394 . S
C800 H816 0.931 . S
C801 C800 1.391 . S
C801 C805 1.376 . S
C802 C800 1.394 . S
C802 C803 1.369 . S
C802 C806 1.531 . S
C803 C802 1.369 . S
C803 C804 1.410 . S
C803 C811 1.503 . S
C804 C803 1.410 . S
C804 C805 1.392 . S
C804 C807 1.511 . S
C805 C801 1.376 . S
C805 C804 1.392 . S
C805 H817 0.929 . S
C806 C802 1.531 . S
C806 H818 0.960 . S
C806 H819 0.962 . S
C806 H820 0.960 . S
C807 C804 1.511 . S
C807 H821 0.961 . S
C807 H822 0.961 . S
C807 H823 0.961 . S
C808 C809 1.370 . S
C808 C810 1.363 . S
C808 H824 0.931 . S
C809 C808 1.370 . S
C809 C813 1.408 . S
C810 C808 1.363 . S
C810 C811 1.370 . S
C810 C814 1.524 . S
C811 C803 1.503 . S
C811 C810 1.370 . S
C811 C812 1.403 . S
C812 C811 1.403 . S
C812 C813 1.404 . S
C812 C815 1.539 . S
C813 C809 1.408 . S
C813 C812 1.404 . S
C813 H825 0.930 . S
C814 C810 1.524 . S
C814 H826 0.956 . S
C814 H827 0.961 . S
C814 H828 0.961 . S
C815 C812 1.539 . S
C815 H829 0.958 . S
C815 H830 0.961 . S
C815 H831 0.960 . S
H816 C800 0.931 . S
H817 C805 0.929 . S
H818 C806 0.960 . S
H819 C806 0.962 . S
H820 C806 0.960 . S
H821 C807 0.961 . S
H822 C807 0.961 . S
H823 C807 0.961 . S
H824 C808 0.931 . S
H825 C813 0.930 . S
H826 C814 0.956 . S
H827 C814 0.961 . S
H828 C814 0.961 . S
H829 C815 0.958 . S
H830 C815 0.961 . S
H831 C815 0.960 . S
C832 C833 1.391 . S
C832 C834 1.394 . S
C832 H848 0.931 . S
C833 C832 1.391 . S
C833 C837 1.376 . S
C834 C832 1.394 . S
C834 C835 1.369 . S
C834 C838 1.531 . S
C835 C834 1.369 . S
C835 C836 1.410 . S
C835 C843 1.503 . S
C836 C835 1.410 . S
C836 C837 1.392 . S
C836 C839 1.511 . S
C837 C833 1.376 . S
C837 C836 1.392 . S
C837 H849 0.929 . S
C838 C834 1.531 . S
C838 H850 0.960 . S
C838 H851 0.962 . S
C838 H852 0.960 . S
C839 C836 1.511 . S
C839 H853 0.961 . S
C839 H854 0.961 . S
C839 H855 0.961 . S
C840 C841 1.370 . S
C840 C842 1.363 . S
C840 H856 0.931 . S
C841 C840 1.370 . S
C841 C845 1.408 . S
C842 C840 1.363 . S
C842 C843 1.370 . S
C842 C846 1.524 . S
C843 C835 1.503 . S
C843 C842 1.370 . S
C843 C844 1.403 . S
C844 C843 1.403 . S
C844 C845 1.404 . S
C844 C847 1.539 . S
C845 C841 1.408 . S
C845 C844 1.404 . S
C845 H857 0.930 . S
C846 C842 1.524 . S
C846 H858 0.956 . S
C846 H859 0.961 . S
C846 H860 0.961 . S
C847 C844 1.539 . S
C847 H861 0.958 . S
C847 H862 0.961 . S
C847 H863 0.960 . S
H848 C832 0.931 . S
H849 C837 0.929 . S
H850 C838 0.960 . S
H851 C838 0.962 . S
H852 C838 0.960 . S
H853 C839 0.961 . S
H854 C839 0.961 . S
H855 C839 0.961 . S
H856 C840 0.931 . S
H857 C845 0.930 . S
H858 C846 0.956 . S
H859 C846 0.961 . S
H860 C846 0.961 . S
H861 C847 0.958 . S
H862 C847 0.961 . S
H863 C847 0.960 . S
C864 C865 1.391 . S
C864 C866 1.394 . S
C864 H880 0.931 . S
C865 C864 1.391 . S
C865 C869 1.376 . S
C866 C864 1.394 . S
C866 C867 1.369 . S
C866 C870 1.531 . S
C867 C866 1.369 . S
C867 C868 1.410 . S
C867 C875 1.503 . S
C868 C867 1.410 . S
C868 C869 1.392 . S
C868 C871 1.511 . S
C869 C865 1.376 . S
C869 C868 1.392 . S
C869 H881 0.929 . S
C870 C866 1.531 . S
C870 H882 0.960 . S
C870 H883 0.962 . S
C870 H884 0.960 . S
C871 C868 1.511 . S
C871 H885 0.961 . S
C871 H886 0.961 . S
C871 H887 0.961 . S
C872 C873 1.370 . S
C872 C874 1.363 . S
C872 H888 0.931 . S
C873 C872 1.370 . S
C873 C877 1.408 . S
C874 C872 1.363 . S
C874 C875 1.370 . S
C874 C878 1.524 . S
C875 C867 1.503 . S
C875 C874 1.370 . S
C875 C876 1.403 . S
C876 C875 1.403 . S
C876 C877 1.404 . S
C876 C879 1.539 . S
C877 C873 1.408 . S
C877 C876 1.404 . S
C877 H889 0.930 . S
C878 C874 1.524 . S
C878 H890 0.956 . S
C878 H891 0.961 . S
C878 H892 0.961 . S
C879 C876 1.539 . S
C879 H893 0.958 . S
C879 H894 0.961 . S
C879 H895 0.960 . S
H880 C864 0.931 . S
H881 C869 0.929 . S
H882 C870 0.960 . S
H883 C870 0.962 . S
H884 C870 0.960 . S
H885 C871 0.961 . S
H886 C871 0.961 . S
H887 C871 0.961 . S
H888 C872 0.931 . S
H889 C877 0.930 . S
H890 C878 0.956 . S
H891 C878 0.961 . S
H892 C878 0.961 . S
H893 C879 0.958 . S
H894 C879 0.961 . S
H895 C879 0.960 . S
C896 C897 1.391 . S
C896 C898 1.394 . S
C896 H912 0.931 . S
C897 C896 1.391 . S
C897 C901 1.376 . S
C898 C896 1.394 . S
C898 C899 1.369 . S
C898 C902 1.531 . S
C899 C898 1.369 . S
C899 C900 1.410 . S
C899 C907 1.503 . S
C900 C899 1.410 . S
C900 C901 1.392 . S
C900 C903 1.511 . S
C901 C897 1.376 . S
C901 C900 1.392 . S
C901 H913 0.929 . S
C902 C898 1.531 . S
C902 H914 0.960 . S
C902 H915 0.962 . S
C902 H916 0.960 . S
C903 C900 1.511 . S
C903 H917 0.961 . S
C903 H918 0.961 . S
C903 H919 0.961 . S
C904 C905 1.370 . S
C904 C906 1.363 . S
C904 H920 0.931 . S
C905 C904 1.370 . S
C905 C909 1.408 . S
C906 C904 1.363 . S
C906 C907 1.370 . S
C906 C910 1.524 . S
C907 C899 1.503 . S
C907 C906 1.370 . S
C907 C908 1.403 . S
C908 C907 1.403 . S
C908 C909 1.404 . S
C908 C911 1.539 . S
C909 C905 1.408 . S
C909 C908 1.404 . S
C909 H921 0.930 . S
C910 C906 1.524 . S
C910 H922 0.956 . S
C910 H923 0.961 . S
C910 H924 0.961 . S
C911 C908 1.539 . S
C911 H925 0.958 . S
C911 H926 0.961 . S
C911 H927 0.960 . S
H912 C896 0.931 . S
H913 C901 0.929 . S
H914 C902 0.960 . S
H915 C902 0.962 . S
H916 C902 0.960 . S
H917 C903 0.961 . S
H918 C903 0.961 . S
H919 C903 0.961 . S
H920 C904 0.931 . S
H921 C909 0.930 . S
H922 C910 0.956 . S
H923 C910 0.961 . S
H924 C910 0.961 . S
H925 C911 0.958 . S
H926 C911 0.961 . S
H927 C911 0.960 . S
C928 C929 1.391 . S
C928 C930 1.394 . S
C928 H944 0.931 . S
C929 C928 1.391 . S
C929 C933 1.376 . S
C930 C928 1.394 . S
C930 C931 1.369 . S
C930 C934 1.531 . S
C931 C930 1.369 . S
C931 C932 1.410 . S
C931 C939 1.503 . S
C932 C931 1.410 . S
C932 C933 1.392 . S
C932 C935 1.511 . S
C933 C929 1.376 . S
C933 C932 1.392 . S
C933 H945 0.929 . S
C934 C930 1.531 . S
C934 H946 0.960 . S
C934 H947 0.962 . S
C934 H948 0.960 . S
C935 C932 1.511 . S
C935 H949 0.961 . S
C935 H950 0.961 . S
C935 H951 0.961 . S
C936 C937 1.370 . S
C936 C938 1.363 . S
C936 H952 0.931 . S
C937 C936 1.370 . S
C937 C941 1.408 . S
C938 C936 1.363 . S
C938 C939 1.370 . S
C938 C942 1.524 . S
C939 C931 1.503 . S
C939 C938 1.370 . S
C939 C940 1.403 . S
C940 C939 1.403 . S
C940 C941 1.404 . S
C940 C943 1.539 . S
C941 C937 1.408 . S
C941 C940 1.404 . S
C941 H953 0.930 . S
C942 C938 1.524 . S
C942 H954 0.956 . S
C942 H955 0.961 . S
C942 H956 0.961 . S
C943 C940 1.539 . S
C943 H957 0.958 . S
C943 H958 0.961 . S
C943 H959 0.960 . S
H944 C928 0.931 . S
H945 C933 0.929 . S
H946 C934 0.960 . S
H947 C934 0.962 . S
H948 C934 0.960 . S
H949 C935 0.961 . S
H950 C935 0.961 . S
H951 C935 0.961 . S
H952 C936 0.931 . S
H953 C941 0.930 . S
H954 C942 0.956 . S
H955 C942 0.961 . S
H956 C942 0.961 . S
H957 C943 0.958 . S
H958 C943 0.961 . S
H959 C943 0.960 . S
C193 C4 1.564 . S
C201 C130 1.578 . S
C233 C108 1.460 . S
C225 C17 1.473 . S
C265 C134 1.454 . S
C257 C30 1.434 . S
C297 C112 1.594 . S
C289 C43 1.586 . S
C329 C174 1.589 . S
C321 C56 1.532 . S
C361 C152 1.458 . S
C353 C69 1.471 . S
C385 C82 1.397 . S
C393 C178 1.453 . S
C425 C156 1.582 . S
C417 C95 1.549 . S
C449 C9 1.515 . S
C457 C179 1.551 . S
C489 C157 1.437 . S
C481 C21 1.446 . S
C513 C34 1.439 . S
C521 C176 1.435 . S
C545 C48 1.536 . S
C553 C154 1.554 . S
C585 C135 1.563 . S
C577 C61 1.547 . S
C609 C73 1.440 . S
C617 C113 1.435 . S
C649 C132 1.437 . S
C641 C86 1.445 . S
C681 C110 1.554 . S
C673 C100 1.540 . S
C713 C153 1.489 . S
C705 C8 1.488 . S
C745 C175 1.487 . S
C737 C22 1.456 . S
C769 C35 1.451 . S
C777 C155 1.485 . S
C809 C177 1.489 . S
C801 C47 1.488 . S
C841 C109 1.493 . S
C833 C60 1.497 . S
C865 C74 1.488 . S
C873 C131 1.498 . S
C897 C87 1.463 . S
C905 C111 1.488 . S
C929 C99 1.499 . S
C937 C133 1.494 . S
