# Generated by pormake.
# Topology pyr, (3,6)-cn, num edge types: 1
# Building blocks:
#     Node 0, Type 0, BuildingBlock: PAMTOO_clean_linker_0, # of connection points: 3
#     Node 1, Type 0, BuildingBlock: PAMTOO_clean_linker_0, # of connection points: 3
#     Node 2, Type 0, BuildingBlock: PAMTOO_clean_linker_0, # of connection points: 3
#     Node 3, Type 0, BuildingBlock: PAMTOO_clean_linker_0, # of connection points: 3
#     Node 4, Type 0, BuildingBlock: PAMTOO_clean_linker_0, # of connection points: 3
#     Node 5, Type 0, BuildingBlock: PAMTOO_clean_linker_0, # of connection points: 3
#     Node 6, Type 0, BuildingBlock: PAMTOO_clean_linker_0, # of connection points: 3
#     Node 7, Type 0, BuildingBlock: PAMTOO_clean_linker_0, # of connection points: 3
#     Node 8, Type 1, BuildingBlock: JUFBIX_clean_sbu_0, # of connection points: 6
#     Node 9, Type 1, BuildingBlock: JUFBIX_clean_sbu_0, # of connection points: 6
#     Node 10, Type 1, BuildingBlock: JUFBIX_clean_sbu_0, # of connection points: 6
#     Node 11, Type 1, BuildingBlock: JUFBIX_clean_sbu_0, # of connection points: 6
#     Edge 12, Type (0, 1), BuildingBlock: XIVTED_clean_linker_0, # of connection points: 2
#     Edge 13, Type (0, 1), BuildingBlock: XIVTED_clean_linker_0, # of connection points: 2
#     Edge 14, Type (0, 1), BuildingBlock: XIVTED_clean_linker_0, # of connection points: 2
#     Edge 15, Type (0, 1), BuildingBlock: XIVTED_clean_linker_0, # of connection points: 2
#     Edge 16, Type (0, 1), BuildingBlock: XIVTED_clean_linker_0, # of connection points: 2
#     Edge 17, Type (0, 1), BuildingBlock: XIVTED_clean_linker_0, # of connection points: 2
#     Edge 18, Type (0, 1), BuildingBlock: XIVTED_clean_linker_0, # of connection points: 2
#     Edge 19, Type (0, 1), BuildingBlock: XIVTED_clean_linker_0, # of connection points: 2
#     Edge 20, Type (0, 1), BuildingBlock: XIVTED_clean_linker_0, # of connection points: 2
#     Edge 21, Type (0, 1), BuildingBlock: XIVTED_clean_linker_0, # of connection points: 2
#     Edge 22, Type (0, 1), BuildingBlock: XIVTED_clean_linker_0, # of connection points: 2
#     Edge 23, Type (0, 1), BuildingBlock: XIVTED_clean_linker_0, # of connection points: 2
#     Edge 24, Type (0, 1), BuildingBlock: XIVTED_clean_linker_0, # of connection points: 2
#     Edge 25, Type (0, 1), BuildingBlock: XIVTED_clean_linker_0, # of connection points: 2
#     Edge 26, Type (0, 1), BuildingBlock: XIVTED_clean_linker_0, # of connection points: 2
#     Edge 27, Type (0, 1), BuildingBlock: XIVTED_clean_linker_0, # of connection points: 2
#     Edge 28, Type (0, 1), BuildingBlock: XIVTED_clean_linker_0, # of connection points: 2
#     Edge 29, Type (0, 1), BuildingBlock: XIVTED_clean_linker_0, # of connection points: 2
#     Edge 30, Type (0, 1), BuildingBlock: XIVTED_clean_linker_0, # of connection points: 2
#     Edge 31, Type (0, 1), BuildingBlock: XIVTED_clean_linker_0, # of connection points: 2
#     Edge 32, Type (0, 1), BuildingBlock: XIVTED_clean_linker_0, # of connection points: 2
#     Edge 33, Type (0, 1), BuildingBlock: XIVTED_clean_linker_0, # of connection points: 2
#     Edge 34, Type (0, 1), BuildingBlock: XIVTED_clean_linker_0, # of connection points: 2
#     Edge 35, Type (0, 1), BuildingBlock: XIVTED_clean_linker_0, # of connection points: 2
# Relax obj value: 0.124
# Max RMSD: 0.202
# Mean RMSD: 0.138
data_MOF--net-pry--node1-JUFBIX_clean_sbu_0--node2-PAMTOO_clean_linker_0--edge1-XIVTED_clean_linker_0
_symmetry_space_group_name_H-M    P1
_symmetry_Int_Tables_number       1
_symmetry_cell_setting            triclinic
loop_
_symmetry_equiv_pos_as_xyz
'x, y, z'
_cell_length_a     36.609237
_cell_length_b     35.838167
_cell_length_c     37.29548
_cell_angle_alpha  83.090575
_cell_angle_beta   88.437425
_cell_angle_gamma 94.375552
loop_
_atom_site_label
_atom_site_type_symbol
_atom_site_fract_x
_atom_site_fract_y
_atom_site_fract_z
_atom_type_partial_charge
H0 H 0.15182 0.19232 0.23555 0.0
H1 H 0.23399 0.11224 0.24733 0.0
H2 H 0.23742 0.19415 0.15341 0.0
H3 H 0.24672 0.1132 0.14338 0.0
C4 C 0.26672 0.1076 0.16497 0.0
O5 O 0.26899 0.13712 0.18576 0.0
H6 H 0.25646 0.08121 0.18225 0.0
C7 C 0.17607 0.18103 0.2253 0.0
C8 C 0.1925 0.19737 0.19179 0.0
C9 C 0.19072 0.15044 0.24595 0.0
C10 C 0.2223 0.13595 0.23229 0.0
C11 C 0.23865 0.15138 0.19873 0.0
C12 C 0.22387 0.18203 0.17879 0.0
H13 H 0.42821 0.97579 0.65772 0.0
H14 H 0.41796 0.89064 0.58611 0.0
H15 H 0.51815 0.90819 0.64067 0.0
H16 H 0.52461 0.88373 0.56252 0.0
C17 C 0.49804 0.86619 0.56505 0.0
O18 O 0.48217 0.86645 0.59885 0.0
H19 H 0.47974 0.8779 0.5439 0.0
C20 C 0.44057 0.95478 0.6438 0.0
C21 C 0.47624 0.94523 0.65184 0.0
C22 C 0.41941 0.93554 0.61996 0.0
C23 C 0.43445 0.90695 0.6033 0.0
C24 C 0.47003 0.89744 0.61075 0.0
C25 C 0.49107 0.91679 0.63447 0.0
H26 H 0.76473 0.30279 0.9353 0.0
H27 H 0.67648 0.32806 0.86403 0.0
H28 H 0.76895 0.4084 0.86642 0.0
H29 H 0.70229 0.4445 0.85456 0.0
C30 C 0.68514 0.4217 0.8438 0.0
O31 O 0.7068 0.39368 0.83599 0.0
H32 H 0.66371 0.41021 0.86486 0.0
C33 C 0.75239 0.32153 0.91491 0.0
C34 C 0.77068 0.35681 0.90268 0.0
C35 C 0.71812 0.31071 0.90144 0.0
C36 C 0.70292 0.33546 0.87471 0.0
C37 C 0.72135 0.37043 0.86207 0.0
C38 C 0.75503 0.38114 0.87617 0.0
H39 H 0.95126 0.68858 0.51687 0.0
H40 H 0.94244 0.60631 0.44149 0.0
H41 H 0.03258 0.69048 0.43105 0.0
H42 H 1.00669 0.6791 0.36294 0.0
C43 C 0.98919 0.65235 0.37028 0.0
O44 O 1.0002 0.63445 0.40259 0.0
H45 H 0.96031 0.65984 0.37284 0.0
C46 C 0.96257 0.67578 0.49458 0.0
C47 C 0.99458 0.6929 0.47596 0.0
C48 C 0.94329 0.64438 0.48251 0.0
C49 C 0.95758 0.6292 0.45253 0.0
C50 C 0.98976 0.64575 0.43429 0.0
C51 C 1.00851 0.67705 0.44634 0.0
H52 H 0.83517 0.911 0.84566 0.0
H53 H 0.8347 0.8219 0.93453 0.0
H54 H 0.91793 0.83128 0.85042 0.0
H55 H 0.88309 0.75566 0.87457 0.0
C56 C 0.88322 0.75681 0.90428 0.0
O57 O 0.89329 0.79313 0.91122 0.0
H58 H 0.85488 0.74829 0.91534 0.0
C59 C 0.84672 0.88623 0.85892 0.0
C60 C 0.87852 0.87356 0.84368 0.0
C61 C 0.83061 0.86812 0.89192 0.0
C62 C 0.84669 0.83664 0.90939 0.0
C63 C 0.87802 0.82346 0.89429 0.0
C64 C 0.89386 0.842 0.86176 0.0
H65 H 0.6974 0.12748 0.36761 0.0
H66 H 0.59524 0.17963 0.36795 0.0
H67 H 0.67732 0.20603 0.4431 0.0
H68 H 0.60275 0.18925 0.4707 0.0
C69 C 0.58985 0.20962 0.45095 0.0
O70 O 0.61212 0.21956 0.42032 0.0
H71 H 0.56335 0.19602 0.44328 0.0
C72 C 0.67968 0.14662 0.37848 0.0
C73 C 0.6916 0.16624 0.40688 0.0
C74 C 0.64495 0.15105 0.36432 0.0
C75 C 0.62215 0.17581 0.37856 0.0
C76 C 0.63389 0.19546 0.40696 0.0
C77 C 0.66854 0.19073 0.42107 0.0
H78 H 0.34204 0.6931 0.12248 0.0
H79 H 0.33036 0.60252 0.21008 0.0
H80 H 0.42335 0.68299 0.20407 0.0
H81 H 0.43406 0.59975 0.22055 0.0
C82 C 0.41129 0.59318 0.24132 0.0
O83 O 0.39006 0.62336 0.24126 0.0
H84 H 0.39425 0.56816 0.23445 0.0
C85 C 0.35252 0.67834 0.14663 0.0
C86 C 0.38528 0.69251 0.1609 0.0
C87 C 0.33241 0.64588 0.16411 0.0
C88 C 0.34523 0.62771 0.19628 0.0
C89 C 0.37792 0.64119 0.21041 0.0
C90 C 0.39788 0.67332 0.1928 0.0
H91 H 0.06637 0.34529 0.68049 0.0
H92 H 0.12812 0.44814 0.63446 0.0
H93 H 0.08575 0.36942 0.56545 0.0
H94 H 0.14605 0.43646 0.51776 0.0
C95 C 0.15102 0.42579 0.54629 0.0
O96 O 0.12213 0.43452 0.56761 0.0
H97 H 0.15191 0.39471 0.54701 0.0
C98 C 0.07841 0.36367 0.65732 0.0
C99 C 0.07465 0.35249 0.62263 0.0
C100 C 0.09716 0.3984 0.66218 0.0
C101 C 0.11261 0.42177 0.63159 0.0
C102 C 0.10795 0.41145 0.5969 0.0
C103 C 0.0883 0.37736 0.59245 0.0
Co104 Co 1.00786 0.02527 0.53631 0.0
C105 C 0.03877 0.95632 0.53208 0.0
Co106 Co 0.06154 0.01996 0.56092 0.0
C107 C 0.94395 0.05547 0.50266 0.0
C108 C 0.93716 0.99588 0.5189 0.0
N109 N 0.96213 0.0259 0.51642 0.0
N110 N 0.90855 0.04499 0.49721 0.0
C111 C 0.90423 0.00755 0.50722 0.0
H112 H 0.95563 0.08441 0.49908 0.0
H113 H 0.94193 0.96763 0.53055 0.0
C114 C 0.03097 0.08877 0.56584 0.0
N115 N 0.10603 0.01882 0.58293 0.0
C116 C 0.13698 1.00329 0.57405 0.0
C117 C 0.11287 0.03245 0.61445 0.0
N118 N 0.16263 0.00648 0.59911 0.0
C119 C 0.14754 0.02501 0.6244 0.0
C120 C 0.0663 0.04965 0.48773 0.0
O121 O 1.00432 0.07492 0.5493 0.0
O122 O 0.05814 0.06949 0.57258 0.0
O123 O 0.08517 0.03991 0.51508 0.0
O124 O 0.03141 0.04601 0.49116 0.0
O125 O 0.06468 0.97021 0.54952 0.0
H126 H 0.09351 0.04624 0.62971 0.0
H127 H 0.14013 0.98885 0.55041 0.0
O128 O 1.0121 0.97585 0.52342 0.0
O129 O 0.98443 1.00435 0.58174 0.0
O130 O 0.03774 1.0 0.60609 0.0
C131 C 1.00304 0.99517 0.6092 0.0
H132 H 0.87868 0.99017 0.50739 0.0
H133 H 0.16055 0.0325 0.64853 0.0
Co134 Co 0.53868 0.99797 1.00037 0.0
C135 C 0.52223 0.93417 0.04918 0.0
Co136 Co 0.56697 1.00005 0.0515 0.0
C137 C 0.53051 0.99964 0.92364 0.0
C138 C 0.47861 0.99544 0.95233 0.0
N139 N 0.51507 0.99739 0.9572 0.0
N140 N 0.50517 0.99942 0.89814 0.0
C141 C 0.47245 0.99691 0.91599 0.0
H142 H 0.55979 1.00174 0.91788 0.0
H143 H 0.45777 0.99287 0.97379 0.0
C144 C 0.58351 0.0639 1.003 0.0
N145 N 0.59035 1.00051 0.09464 0.0
C146 C 0.58862 0.02603 0.11826 0.0
C147 C 0.61072 0.97387 0.11055 0.0
N148 N 0.6068 0.01626 0.14854 0.0
C149 C 0.62092 0.98348 0.14365 0.0
C150 C 0.60719 0.96892 0.99928 0.0
O151 O 0.56215 0.04634 0.98327 0.0
O152 O 0.58924 0.0488 0.03476 0.0
O153 O 0.60779 0.97807 0.03118 0.0
O154 O 0.57895 0.97463 0.98095 0.0
O155 O 0.54461 0.95153 0.06805 0.0
H156 H 0.61705 0.94864 0.09917 0.0
H157 H 0.57319 0.05064 0.1138 0.0
O158 O 0.51529 0.94943 0.01778 0.0
O159 O 0.49865 0.02141 0.02027 0.0
O160 O 0.52596 0.02193 0.0716 0.0
C161 C 0.49843 0.02908 0.05267 0.0
H162 H 0.44603 0.9952 0.90368 0.0
H163 H 0.63726 0.96739 0.16266 0.0
Co164 Co 0.57341 0.53577 0.53585 0.0
C165 C 0.51657 0.53701 0.48661 0.0
Co166 Co 0.51818 0.51652 0.55976 0.0
C167 C 0.65269 0.55212 0.5244 0.0
C168 C 0.6211 0.58447 0.48641 0.0
N169 N 0.61793 0.55622 0.51402 0.0
N170 N 0.677 0.57714 0.50461 0.0
C171 C 0.65722 0.59732 0.48062 0.0
H172 H 0.65979 0.53308 0.54747 0.0
H173 H 0.59839 0.5967 0.47271 0.0
C174 C 0.57505 0.51481 0.60892 0.0
N175 N 0.47347 0.49697 0.58152 0.0
C176 C 0.43928 0.50627 0.57355 0.0
C177 C 0.46855 0.46775 0.60799 0.0
N178 N 0.41318 0.48385 0.59395 0.0
C179 C 0.4317 0.45968 0.6157 0.0
C180 C 0.55863 0.46024 0.53556 0.0
O181 O 0.59531 0.52766 0.58133 0.0
O182 O 0.54077 0.50859 0.60531 0.0
O183 O 0.52852 0.46724 0.55024 0.0
O184 O 0.58334 0.48692 0.52675 0.0
O185 O 0.49614 0.52449 0.51416 0.0
H186 H 0.49035 0.45243 0.62014 0.0
H187 H 0.43373 0.52864 0.55274 0.0
O188 O 0.55074 0.54338 0.49045 0.0
O189 O 0.56328 0.58444 0.54507 0.0
O190 O 0.50831 0.56619 0.56857 0.0
C191 C 0.5334 0.59238 0.55921 0.0
H192 H 0.66802 0.6208 0.46126 0.0
H193 H 0.41957 0.43661 0.63473 0.0
Co194 Co 0.07081 0.48461 1.01177 0.0
C195 C 1.00039 0.45002 1.01402 0.0
Co196 Co 0.04055 0.48641 0.06356 0.0
C197 C 0.09067 0.46455 0.9404 0.0
C198 C 0.1207 0.51452 0.95318 0.0
N199 N 0.09592 0.4864 0.96729 0.0
N200 N 0.11084 0.47833 0.91011 0.0
C201 C 0.12995 0.5096 0.91827 0.0
H202 H 0.07086 0.44032 0.94221 0.0
H203 H 0.13021 0.53832 0.96666 0.0
C204 C 0.11055 0.52168 0.06153 0.0
N205 N 1.01591 0.4857 0.10756 0.0
C206 C 0.01853 0.51273 0.12977 0.0
C207 C 0.99427 0.45721 0.12592 0.0
N208 N 0.99985 0.50216 0.1615 0.0
C209 C 0.98426 0.46729 0.15909 0.0
C210 C 0.08199 0.42368 0.06211 0.0
O211 O 0.11162 0.51198 0.02992 0.0
O212 O 0.08167 0.51304 0.08123 0.0
O213 O 0.06001 0.44033 0.08054 0.0
O214 O 0.09093 0.43789 0.02973 0.0
O215 O 0.9995 0.46005 0.04555 0.0
H216 H 0.98727 0.43036 0.11631 0.0
H217 H 0.03443 0.53948 0.12292 0.0
O218 O 0.0296 0.45726 0.99439 0.0
O219 O 0.05025 0.53128 0.99448 0.0
O220 O 0.02125 0.53251 0.04645 0.0
C221 C 0.02889 0.54738 1.0142 0.0
H222 H 0.14847 0.5283 0.89994 0.0
H223 H 0.9681 0.44968 0.18029 0.0
H224 H 0.22381 0.1257 0.30914 0.0
H225 H 0.03415 0.07313 0.42416 0.0
H226 H 0.1171 0.13772 0.26479 0.0
H227 H 0.14022 0.05996 0.46961 0.0
H228 H 0.06433 0.09661 0.3657 0.0
H229 H 0.19412 0.10077 0.3677 0.0
C230 C 0.19416 0.12289 0.31155 0.0
C231 C 0.17306 0.13407 0.28175 0.0
C232 C 0.08108 0.08862 0.38841 0.0
C233 C 0.13875 0.10579 0.3492 0.0
C234 C 0.06381 0.0752 0.42193 0.0
C235 C 0.08459 0.06451 0.45207 0.0
C236 C 0.11955 0.09148 0.3847 0.0
C237 C 0.123 0.06787 0.44726 0.0
C238 C 0.1772 0.10885 0.34515 0.0
C239 C 0.13466 0.13014 0.28693 0.0
N240 N 0.13919 0.08102 0.41431 0.0
N241 N 0.11886 0.11642 0.31984 0.0
H242 H 0.47785 0.01756 0.66986 0.0
H243 H 0.55488 0.96134 0.86557 0.0
H244 H 0.51651 0.90848 0.70414 0.0
H245 H 0.4692 0.03615 0.8443 0.0
H246 H 0.55942 0.95464 0.80077 0.0
H247 H 0.49414 0.03742 0.72825 0.0
C248 C 0.49037 0.998 0.68932 0.0
C249 C 0.49487 0.96091 0.68235 0.0
C250 C 0.54012 0.97303 0.8103 0.0
C251 C 0.51418 0.98382 0.74873 0.0
C252 C 0.53761 0.97693 0.84707 0.0
C253 C 0.51132 0.99897 0.86005 0.0
C254 C 0.51667 0.99191 0.78649 0.0
C255 C 0.48939 0.01848 0.83522 0.0
C256 C 0.49972 0.00943 0.72253 0.0
C257 C 0.51236 0.93726 0.70819 0.0
N258 N 0.49244 0.0144 0.79958 0.0
N259 N 0.5209 0.94894 0.74049 0.0
H260 H 0.61344 0.41116 0.82461 0.0
H261 H 0.64693 0.52563 0.62697 0.0
H262 H 0.71776 0.46746 0.78587 0.0
H263 H 0.54024 0.48092 0.67163 0.0
H264 H 0.67355 0.5049 0.68474 0.0
H265 H 0.58623 0.43627 0.76838 0.0
C266 C 0.6305 0.42905 0.80426 0.0
C267 C 0.66773 0.43768 0.80986 0.0
C268 C 0.64429 0.49983 0.68195 0.0
C269 C 0.63706 0.46615 0.74536 0.0
C270 C 0.62906 0.51169 0.64898 0.0
C271 C 0.59129 0.50494 0.64439 0.0
C272 C 0.62165 0.48086 0.71051 0.0
C273 C 0.56949 0.48674 0.67389 0.0
C274 C 0.61502 0.44337 0.77219 0.0
C275 C 0.68884 0.46052 0.78254 0.0
N276 N 0.58501 0.47517 0.70557 0.0
N277 N 0.67324 0.47395 0.75141 0.0
H278 H 0.94044 0.59461 0.35637 0.0
H279 H 0.05181 0.55434 0.17919 0.0
H280 H 0.04439 0.65269 0.31898 0.0
H281 H 0.94706 0.49648 0.21496 0.0
H282 H 0.05037 0.58899 0.23141 0.0
H283 H 0.94352 0.55594 0.30652 0.0
C284 C 0.96392 0.59904 0.3376 0.0
C285 C 0.99188 0.62715 0.34117 0.0
C286 C 0.02767 0.56871 0.2279 0.0
C287 C 0.99579 0.58325 0.28443 0.0
C288 C 0.02832 0.5491 0.19785 0.0
C289 C 0.99931 0.52265 0.19244 0.0
C290 C 0.99778 0.56194 0.25282 0.0
C291 C 0.97008 0.51643 0.21815 0.0
C292 C 0.9657 0.57708 0.30922 0.0
C293 C 0.02206 0.63159 0.3167 0.0
N294 N 0.96998 0.53604 0.24716 0.0
N295 N 0.0231 0.61004 0.28918 0.0
H296 H 0.33063 0.09213 0.19921 0.0
H297 H 0.43649 0.05049 0.01867 0.0
H298 H 0.28645 0.10826 0.09309 0.0
H299 H 0.48592 0.04326 0.12275 0.0
H300 H 0.38212 0.07333 0.04548 0.0
H301 H 0.38851 0.0762 0.17199 0.0
C302 C 0.33336 0.09282 0.17014 0.0
C303 C 0.30382 0.1018 0.14837 0.0
C304 C 0.40489 0.06694 0.06249 0.0
C305 C 0.36962 0.08296 0.117 0.0
C306 C 0.43603 0.05384 0.04715 0.0
C307 C 0.46593 0.04478 0.06844 0.0
C308 C 0.4033 0.07089 0.09955 0.0
C309 C 0.46358 0.04982 0.10524 0.0
C310 C 0.36629 0.08359 0.15461 0.0
C311 C 0.30857 0.10175 0.11088 0.0
N312 N 0.4328 0.06231 0.11963 0.0
N313 N 0.34067 0.09233 0.09646 0.0
H314 H 0.3688 0.93965 0.67356 0.0
H315 H 0.20777 0.99694 0.5423 0.0
H316 H 0.38123 0.94638 0.55756 0.0
H317 H 0.1982 0.98206 0.65877 0.0
H318 H 0.27004 0.97579 0.54599 0.0
H319 H 0.30508 0.95315 0.66757 0.0
C320 C 0.35805 0.94421 0.64674 0.0
C321 C 0.38037 0.94254 0.61597 0.0
C322 C 0.25415 0.97703 0.57067 0.0
C323 C 0.30711 0.9577 0.60878 0.0
C324 C 0.21865 0.98892 0.56857 0.0
C325 C 0.19808 0.99178 0.60029 0.0
C326 C 0.26887 0.96789 0.60474 0.0
C327 C 0.2134 0.98119 0.63365 0.0
C328 C 0.32156 0.95167 0.6433 0.0
C329 C 0.36482 0.94764 0.58191 0.0
N330 N 0.24784 0.96991 0.63497 0.0
N331 N 0.32909 0.95533 0.57916 0.0
H332 H 0.8353 0.32319 0.90342 0.0
H333 H 0.92986 0.45314 0.0379 0.0
H334 H 0.78425 0.41761 0.93869 0.0
H335 H 0.99444 0.40869 0.95672 0.0
H336 H 0.87406 0.42921 1.01086 0.0
H337 H 0.89241 0.34403 0.93129 0.0
C338 C 0.83623 0.34825 0.91708 0.0
C339 C 0.80535 0.36892 0.91876 0.0
C340 C 0.90048 0.42457 0.99912 0.0
C341 C 0.86967 0.39221 0.95105 0.0
C342 C 0.93232 0.43795 1.01463 0.0
C343 C 0.96682 0.43294 0.99945 0.0
C344 C 0.90311 0.40536 0.96866 0.0
C345 C 0.96834 0.41326 0.96914 0.0
C346 C 0.86866 0.36011 0.9328 0.0
C347 C 0.80767 0.40115 0.93669 0.0
N348 N 0.93686 0.39997 0.95478 0.0
N349 N 0.83922 0.41166 0.95245 0.0
H350 H 0.91059 0.57184 0.49542 0.0
H351 H 0.71189 0.64563 0.50569 0.0
H352 H 0.8893 0.68789 0.50103 0.0
H353 H 0.7287 0.52723 0.51748 0.0
H354 H 0.7776 0.66038 0.50943 0.0
H355 H 0.84531 0.55334 0.50889 0.0
C356 C 0.89235 0.59334 0.50003 0.0
C357 C 0.90553 0.63153 0.49686 0.0
C358 C 0.76713 0.63108 0.51156 0.0
C359 C 0.83094 0.61058 0.51215 0.0
C360 C 0.72963 0.62274 0.50925 0.0
C361 C 0.71517 0.58525 0.51077 0.0
C362 C 0.79061 0.60174 0.5148 0.0
C363 C 0.73906 0.55649 0.51608 0.0
C364 C 0.85514 0.58274 0.50782 0.0
C365 C 0.88071 0.6581 0.50352 0.0
N366 N 0.77585 0.56533 0.51733 0.0
N367 N 0.84467 0.64716 0.51039 0.0
H368 H 0.1885 0.2148 0.1176 0.0
H369 H 0.074 0.39377 0.1328 0.0
H370 H 0.16161 0.25679 0.21805 0.0
H371 H 0.1264 0.37519 0.03208 0.0
H372 H 0.10117 0.33929 0.16297 0.0
H373 H 0.16249 0.26946 0.0847 0.0
C374 C 0.17737 0.23546 0.13284 0.0
C375 C 0.17715 0.23071 0.1709 0.0
C376 C 0.10683 0.347 0.13427 0.0
C377 C 0.14667 0.29313 0.13316 0.0
C378 C 0.09114 0.37815 0.11686 0.0
C379 C 0.09787 0.38931 0.07968 0.0
C380 C 0.12938 0.32622 0.11457 0.0
C381 C 0.12047 0.36772 0.06075 0.0
C382 C 0.16236 0.2666 0.11394 0.0
C383 C 0.16177 0.25842 0.18889 0.0
N384 N 0.13536 0.33713 0.07838 0.0
N385 N 0.14711 0.28813 0.16994 0.0
H386 H 0.67788 0.26099 0.86433 0.0
H387 H 0.62751 0.11103 0.03907 0.0
H388 H 0.7119 0.27711 0.97171 0.0
H389 H 0.58275 0.10111 0.93441 0.0
H390 H 0.65996 0.17115 1.01447 0.0
H391 H 0.6441 0.20161 0.88908 0.0
C392 C 0.67815 0.25217 0.89313 0.0
C393 C 0.69787 0.27416 0.91592 0.0
C394 C 0.64296 0.15588 0.9969 0.0
C395 C 0.6595 0.20589 0.94441 0.0
C396 C 0.62442 0.12153 1.01093 0.0
C397 C 0.60236 0.10096 0.98878 0.0
C398 C 0.63962 0.16977 0.96036 0.0
C399 C 0.5994 0.11601 0.95251 0.0
C400 C 0.65896 0.21815 0.90722 0.0
C401 C 0.69762 0.26089 0.95296 0.0
N402 N 0.6179 0.14942 0.93943 0.0
N403 N 0.67879 0.22767 0.96601 0.0
H404 H 1.00847 0.75543 0.42734 0.0
H405 H 0.07038 0.89642 0.56789 0.0
H406 H 1.01277 0.71669 0.54112 0.0
H407 H 1.00665 0.92821 0.4751 0.0
H408 H 0.06535 0.83088 0.55376 0.0
H409 H 0.02496 0.81981 0.43991 0.0
C410 C 1.01369 0.76039 0.4549 0.0
C411 C 1.00934 0.73075 0.48328 0.0
C412 C 0.05279 0.8524 0.53645 0.0
C413 C 0.02794 0.80428 0.49775 0.0
C414 C 0.05578 0.88967 0.54433 0.0
C415 C 0.03873 0.91756 0.52267 0.0
C416 C 0.03348 0.84345 0.50623 0.0
C417 C 0.01995 0.90744 0.49259 0.0
C418 C 0.02276 0.79712 0.46204 0.0
C419 C 1.01577 0.73886 0.51857 0.0
N420 N 0.01795 0.87121 0.48517 0.0
N421 N 0.02476 0.775 0.52488 0.0
H422 H 0.44579 0.81051 0.55453 0.0
H423 H 0.58608 0.6504 0.55612 0.0
H424 H 0.56194 0.83064 0.56759 0.0
H425 H 0.46892 0.62516 0.56917 0.0
H426 H 0.57757 0.71706 0.55613 0.0
H427 H 0.45354 0.74307 0.55448 0.0
C428 C 0.47299 0.80065 0.55675 0.0
C429 C 0.5034 0.82598 0.56041 0.0
C430 C 0.55369 0.697 0.55921 0.0
C431 C 0.5124 0.74928 0.56112 0.0
C432 C 0.5585 0.65889 0.55923 0.0
C433 C 0.52811 0.6322 0.56264 0.0
C434 C 0.51818 0.70873 0.56225 0.0
C435 C 0.49307 0.64483 0.56666 0.0
C436 C 0.47735 0.76227 0.55709 0.0
C437 C 0.53796 0.812 0.5641 0.0
N438 N 0.48902 0.68233 0.56609 0.0
N439 N 0.54154 0.77455 0.56428 0.0
H440 H 0.84526 0.90233 0.78207 0.0
H441 H 0.03505 0.97185 0.67274 0.0
H442 H 0.9519 0.88984 0.82643 0.0
H443 H 0.9292 0.98054 0.62561 0.0
H444 H 1.00468 0.94363 0.72976 0.0
H445 H 0.875 0.93316 0.72539 0.0
C446 C 0.8749 0.90626 0.78003 0.0
C447 C 0.89604 0.89325 0.80916 0.0
C448 C 0.98803 0.95173 0.707 0.0
C449 C 0.93035 0.92836 0.74407 0.0
C450 C 1.00539 0.9679 0.67436 0.0
C451 C 0.98471 0.9786 0.6442 0.0
C452 C 0.94958 0.94614 0.70974 0.0
C453 C 0.94631 0.97274 0.64808 0.0
C454 C 0.89188 0.92369 0.74754 0.0
C455 C 0.93441 0.89881 0.80463 0.0
N456 N 0.93002 0.95691 0.68018 0.0
N457 N 0.95024 0.91587 0.77282 0.0
H458 H 0.64841 0.076 0.36045 0.0
H459 H 0.59866 0.09051 0.15259 0.0
H460 H 0.61507 0.17762 0.30066 0.0
H461 H 0.61935 0.98647 0.21717 0.0
H462 H 0.60246 0.12265 0.20661 0.0
H463 H 0.63549 0.04227 0.30858 0.0
C464 C 0.63814 0.09111 0.33637 0.0
C465 C 0.63312 0.12967 0.33458 0.0
C466 C 0.60601 0.09275 0.20894 0.0
C467 C 0.61845 0.0914 0.27504 0.0
C468 C 0.60376 0.07431 0.17809 0.0
C469 C 0.6089 0.03568 0.18017 0.0
C470 C 0.61362 0.07247 0.24212 0.0
C471 C 0.61589 0.01635 0.214 0.0
C472 C 0.63069 0.07187 0.3068 0.0
C473 C 0.61924 0.14785 0.30304 0.0
N474 N 0.61817 0.03497 0.24356 0.0
N475 N 0.61274 0.12863 0.27428 0.0
H476 H 0.3755 0.55709 0.30273 0.0
H477 H 0.55274 0.56734 0.42357 0.0
H478 H 0.48085 0.6104 0.26347 0.0
H479 H 0.44511 0.52476 0.46727 0.0
H480 H 0.52703 0.58108 0.36432 0.0
H481 H 0.40045 0.54308 0.3629 0.0
C482 C 0.40394 0.56566 0.30689 0.0
C483 C 0.42638 0.58435 0.27819 0.0
C484 C 0.50898 0.56874 0.38682 0.0
C485 C 0.45503 0.5688 0.34662 0.0
C486 C 0.52367 0.5608 0.42072 0.0
C487 C 0.50105 0.54483 0.4505 0.0
C488 C 0.47136 0.56059 0.38246 0.0
C489 C 0.46357 0.53705 0.44508 0.0
C490 C 0.41814 0.55777 0.34113 0.0
C491 C 0.46284 0.59547 0.28486 0.0
N492 N 0.44989 0.54497 0.41169 0.0
N493 N 0.47609 0.58737 0.31834 0.0
H494 H 0.09424 0.46953 0.68188 0.0
H495 H 0.09829 0.40635 0.8946 0.0
H496 H 0.10661 0.35454 0.72683 0.0
H497 H 0.11863 0.52148 0.84522 0.0
H498 H 0.09532 0.38596 0.83403 0.0
H499 H 0.09805 0.48847 0.74234 0.0
C500 C 0.0981 0.44825 0.70434 0.0
C501 C 0.10018 0.41033 0.69901 0.0
C502 C 0.10058 0.41566 0.83657 0.0
C503 C 0.10371 0.43185 0.76873 0.0
C504 C 0.10207 0.42727 0.87105 0.0
C505 C 0.10899 0.4656 0.87494 0.0
C506 C 0.1055 0.44268 0.80585 0.0
C507 C 0.11387 0.4916 0.84354 0.0
C508 C 0.10002 0.45909 0.73896 0.0
C509 C 0.10429 0.38399 0.72954 0.0
N510 N 0.11188 0.47969 0.81041 0.0
N511 N 0.10579 0.39523 0.76307 0.0
H512 H 0.81565 0.87531 0.96336 0.0
H513 H 0.61782 0.95286 0.92972 0.0
H514 H 0.76963 0.8934 0.858 0.0
H515 H 0.67009 0.94835 0.03231 0.0
H516 H 0.6716 0.92794 0.90367 0.0
H517 H 0.76114 0.8986 0.98965 0.0
C518 C 0.79401 0.88395 0.94573 0.0
C519 C 0.79738 0.88229 0.90832 0.0
C520 C 0.67131 0.93236 0.93189 0.0
C521 C 0.73469 0.90936 0.93839 0.0
C522 C 0.64052 0.94652 0.94685 0.0
C523 C 0.63932 0.95279 0.98334 0.0
C524 C 0.70122 0.92413 0.95353 0.0
C525 C 0.66972 0.94407 1.00407 0.0
C526 C 0.76293 0.8975 0.96077 0.0
C527 C 0.76853 0.89451 0.88688 0.0
N528 N 0.69932 0.9302 0.98892 0.0
N529 N 0.73846 0.90738 0.90219 0.0
H530 H 0.75837 0.16937 0.3718 0.0
H531 H 0.84119 0.04052 0.52886 0.0
H532 H 0.70531 0.14539 0.47758 0.0
H533 H 0.91087 0.10408 0.44447 0.0
H534 H 0.79078 0.07848 0.51001 0.0
H535 H 0.81486 0.14651 0.39698 0.0
C536 C 0.75892 0.15987 0.40046 0.0
C537 C 0.72727 0.15896 0.4227 0.0
C538 C 0.81718 0.08449 0.49583 0.0
C539 C 0.79121 0.13231 0.45142 0.0
C540 C 0.84576 0.06265 0.50637 0.0
C541 C 0.87987 0.06906 0.48781 0.0
C542 C 0.82254 0.11241 0.46599 0.0
C543 C 0.88481 0.09839 0.45927 0.0
C544 C 0.79109 0.14696 0.41481 0.0
C545 C 0.72924 0.14658 0.45963 0.0
N546 N 0.85618 0.11869 0.44875 0.0
N547 N 0.76053 0.13306 0.47276 0.0
H548 H 0.2673 0.61981 0.19969 0.0
H549 H 0.17556 0.54767 0.02559 0.0
H550 H 0.31995 0.63682 0.09342 0.0
H551 H 0.11867 0.54268 0.12922 0.0
H552 H 0.22874 0.58033 0.04978 0.0
H553 H 0.2126 0.5914 0.17428 0.0
C554 C 0.26733 0.61756 0.17099 0.0
C555 C 0.29829 0.63054 0.14866 0.0
C556 C 0.20457 0.5722 0.06719 0.0
C557 C 0.2357 0.59812 0.11933 0.0
C558 C 0.17421 0.5535 0.05341 0.0
C559 C 0.14264 0.54229 0.07544 0.0
C560 C 0.20347 0.5796 0.10333 0.0
C561 C 0.14244 0.5507 0.11126 0.0
C562 C 0.23603 0.6015 0.15646 0.0
C563 C 0.2966 0.62743 0.11157 0.0
N564 N 0.17243 0.5687 0.12411 0.0
N565 N 0.26592 0.61132 0.0981 0.0
H566 H 0.19609 0.48407 0.51038 0.0
H567 H 0.3609 0.45401 0.64474 0.0
H568 H 0.18851 0.4045 0.60713 0.0
H569 H 0.37505 0.51108 0.53594 0.0
H570 H 0.29505 0.44571 0.63651 0.0
H571 H 0.2588 0.50451 0.52487 0.0
C572 C 0.20749 0.47138 0.535 0.0
C573 C 0.18731 0.44247 0.55756 0.0
C574 C 0.31257 0.46029 0.61454 0.0
C575 C 0.25888 0.4655 0.57421 0.0
C576 C 0.35027 0.46491 0.61913 0.0
C577 C 0.37388 0.48273 0.59079 0.0
C578 C 0.29815 0.47373 0.58142 0.0
C579 C 0.35814 0.4972 0.5586 0.0
C580 C 0.24327 0.48292 0.54317 0.0
C581 C 0.20323 0.42692 0.58912 0.0
N582 N 0.32133 0.49211 0.5547 0.0
N583 N 0.2382 0.43845 0.5964 0.0
H584 H 0.94158 0.72741 0.8724 0.0
H585 H 0.98175 0.58784 0.04929 0.0
H586 H 0.88384 0.72475 0.97497 0.0
H587 H 0.03551 0.58531 0.94526 0.0
H588 H 0.94961 0.64152 0.02373 0.0
H589 H 0.98015 0.67934 0.89968 0.0
C590 C 0.93722 0.7168 0.90075 0.0
C591 C 0.90916 0.72956 0.92139 0.0
C592 C 0.96857 0.62941 1.00649 0.0
C593 C 0.95319 0.67467 0.95288 0.0
C594 C 0.98703 0.5987 0.02109 0.0
C595 C 1.01134 0.58179 0.99939 0.0
C596 C 0.97428 0.64352 0.96979 0.0
C597 C 0.017 0.5973 0.96304 0.0
C598 C 0.95917 0.68934 0.91632 0.0
C599 C 0.90493 0.71529 0.95809 0.0
N600 N 0.9985 0.62712 0.94937 0.0
N601 N 0.92648 0.68844 0.97259 0.0
H602 H 0.3961 0.71653 0.088 0.0
H603 H 0.52538 0.89917 0.11798 0.0
H604 H 0.42153 0.74892 0.19294 0.0
H605 H 0.47638 0.88553 0.01587 0.0
H606 H 0.49277 0.84006 0.14433 0.0
H607 H 0.42976 0.77479 0.05977 0.0
C608 C 0.40856 0.73587 0.10516 0.0
C609 C 0.40593 0.72759 0.14302 0.0
C610 C 0.48912 0.84993 0.11615 0.0
C611 C 0.44506 0.79399 0.11074 0.0
C612 C 0.50787 0.88366 0.101 0.0
C613 C 0.50355 0.89743 0.06463 0.0
C614 C 0.46599 0.82948 0.09483 0.0
C615 C 0.48043 0.87602 0.04404 0.0
C616 C 0.42792 0.76903 0.08897 0.0
C617 C 0.42328 0.75355 0.16372 0.0
N618 N 0.46251 0.84304 0.05943 0.0
N619 N 0.44211 0.78544 0.14732 0.0
H620 H 0.02894 0.32915 0.57055 0.0
H621 H 0.07058 0.115 0.61912 0.0
H622 H 0.08749 0.28699 0.66391 0.0
H623 H 0.99188 0.1485 0.53984 0.0
H624 H 0.07489 0.17828 0.6365 0.0
H625 H 1.01258 0.26397 0.55944 0.0
C626 C 0.03803 0.30623 0.58891 0.0
C627 C 0.05985 0.31361 0.61809 0.0
C628 C 0.05642 0.17192 0.61548 0.0
C629 C 0.04131 0.23917 0.60548 0.0
C630 C 0.05406 0.13574 0.60541 0.0
C631 C 0.0311 0.1266 0.57774 0.0
C632 C 0.0361 0.19959 0.59744 0.0
C633 C 1.01 0.1545 0.56126 0.0
C634 C 0.02854 0.26907 0.58263 0.0
C635 C 0.07041 0.2828 0.64127 0.0
N636 N 1.01335 0.19001 0.57104 0.0
N637 N 0.06139 0.24707 0.63422 0.0
H638 H 0.52501 0.23911 0.46761 0.0
H639 H 0.62234 0.43271 0.51423 0.0
H640 H 0.64218 0.25879 0.47385 0.0
H641 H 0.5075 0.4001 0.53843 0.0
H642 H 0.63005 0.36975 0.49774 0.0
H643 H 0.51753 0.29857 0.49233 0.0
C644 C 0.5491 0.25593 0.47441 0.0
C645 C 0.58427 0.24447 0.4684 0.0
C646 C 0.60323 0.37629 0.50692 0.0
C647 C 0.57607 0.31231 0.4963 0.0
C648 C 0.59878 0.41225 0.51623 0.0
C649 C 0.56419 0.4217 0.52754 0.0
C650 C 0.57277 0.34975 0.50849 0.0
C651 C 0.53466 0.39402 0.5298 0.0
C652 C 0.54487 0.28975 0.48853 0.0
C653 C 0.61465 0.267 0.47784 0.0
N654 N 0.53955 0.35938 0.52002 0.0
N655 N 0.60989 0.30008 0.49098 0.0
loop_
_geom_bond_atom_site_label_1
_geom_bond_atom_site_label_2
_geom_bond_distance
_geom_bond_site_symmetry_2
_ccdc_geom_bond_type
H0 C7 0.929 . S
H1 C10 0.930 . S
H2 C12 0.929 . S
H3 C4 0.969 . S
C4 H3 0.969 . S
C4 O5 1.550 . S
C4 H6 0.973 . S
O5 C4 1.550 . S
O5 C11 1.412 . S
H6 C4 0.973 . S
C7 H0 0.929 . S
C7 C8 1.400 . S
C7 C9 1.364 . S
C8 C7 1.400 . S
C8 C12 1.377 . S
C9 C7 1.364 . S
C9 C10 1.374 . S
C10 H1 0.930 . S
C10 C9 1.374 . S
C10 C11 1.383 . S
C11 O5 1.412 . S
C11 C10 1.383 . S
C11 C12 1.394 . S
C12 H2 0.929 . S
C12 C8 1.377 . S
C12 C11 1.394 . S
H13 C20 0.929 . S
H14 C23 0.930 . S
H15 C25 0.929 . S
H16 C17 0.969 . S
C17 H16 0.969 . S
C17 O18 1.550 . S
C17 H19 0.973 . S
O18 C17 1.550 . S
O18 C24 1.412 . S
H19 C17 0.973 . S
C20 H13 0.929 . S
C20 C21 1.400 . S
C20 C22 1.364 . S
C21 C20 1.400 . S
C21 C25 1.377 . S
C22 C20 1.364 . S
C22 C23 1.374 . S
C23 H14 0.930 . S
C23 C22 1.374 . S
C23 C24 1.383 . S
C24 O18 1.412 . S
C24 C23 1.383 . S
C24 C25 1.394 . S
C25 H15 0.929 . S
C25 C21 1.377 . S
C25 C24 1.394 . S
H26 C33 0.929 . S
H27 C36 0.930 . S
H28 C38 0.929 . S
H29 C30 0.969 . S
C30 H29 0.969 . S
C30 O31 1.550 . S
C30 H32 0.973 . S
O31 C30 1.550 . S
O31 C37 1.412 . S
H32 C30 0.973 . S
C33 H26 0.929 . S
C33 C34 1.400 . S
C33 C35 1.364 . S
C34 C33 1.400 . S
C34 C38 1.377 . S
C35 C33 1.364 . S
C35 C36 1.374 . S
C36 H27 0.930 . S
C36 C35 1.374 . S
C36 C37 1.383 . S
C37 O31 1.412 . S
C37 C36 1.383 . S
C37 C38 1.394 . S
C38 H28 0.929 . S
C38 C34 1.377 . S
C38 C37 1.394 . S
H39 C46 0.929 . S
H40 C49 0.930 . S
H41 C51 0.929 . S
H42 C43 0.969 . S
C43 H42 0.969 . S
C43 O44 1.550 . S
C43 H45 0.973 . S
O44 C43 1.550 . S
O44 C50 1.412 . S
H45 C43 0.973 . S
C46 H39 0.929 . S
C46 C47 1.400 . S
C46 C48 1.364 . S
C47 C46 1.400 . S
C47 C51 1.377 . S
C48 C46 1.364 . S
C48 C49 1.374 . S
C49 H40 0.930 . S
C49 C48 1.374 . S
C49 C50 1.383 . S
C50 O44 1.412 . S
C50 C49 1.383 . S
C50 C51 1.394 . S
C51 H41 0.929 . S
C51 C47 1.377 . S
C51 C50 1.394 . S
H52 C59 0.929 . S
H53 C62 0.930 . S
H54 C64 0.929 . S
H55 C56 0.969 . S
C56 H55 0.969 . S
C56 O57 1.550 . S
C56 H58 0.973 . S
O57 C56 1.550 . S
O57 C63 1.412 . S
H58 C56 0.973 . S
C59 H52 0.929 . S
C59 C60 1.400 . S
C59 C61 1.364 . S
C60 C59 1.400 . S
C60 C64 1.377 . S
C61 C59 1.364 . S
C61 C62 1.374 . S
C62 H53 0.930 . S
C62 C61 1.374 . S
C62 C63 1.383 . S
C63 O57 1.412 . S
C63 C62 1.383 . S
C63 C64 1.394 . S
C64 H54 0.929 . S
C64 C60 1.377 . S
C64 C63 1.394 . S
H65 C72 0.929 . S
H66 C75 0.930 . S
H67 C77 0.929 . S
H68 C69 0.969 . S
C69 H68 0.969 . S
C69 O70 1.550 . S
C69 H71 0.973 . S
O70 C69 1.550 . S
O70 C76 1.412 . S
H71 C69 0.973 . S
C72 H65 0.929 . S
C72 C73 1.400 . S
C72 C74 1.364 . S
C73 C72 1.400 . S
C73 C77 1.377 . S
C74 C72 1.364 . S
C74 C75 1.374 . S
C75 H66 0.930 . S
C75 C74 1.374 . S
C75 C76 1.383 . S
C76 O70 1.412 . S
C76 C75 1.383 . S
C76 C77 1.394 . S
C77 H67 0.929 . S
C77 C73 1.377 . S
C77 C76 1.394 . S
H78 C85 0.929 . S
H79 C88 0.930 . S
H80 C90 0.929 . S
H81 C82 0.969 . S
C82 H81 0.969 . S
C82 O83 1.550 . S
C82 H84 0.973 . S
O83 C82 1.550 . S
O83 C89 1.412 . S
H84 C82 0.973 . S
C85 H78 0.929 . S
C85 C86 1.400 . S
C85 C87 1.364 . S
C86 C85 1.400 . S
C86 C90 1.377 . S
C87 C85 1.364 . S
C87 C88 1.374 . S
C88 H79 0.930 . S
C88 C87 1.374 . S
C88 C89 1.383 . S
C89 O83 1.412 . S
C89 C88 1.383 . S
C89 C90 1.394 . S
C90 H80 0.929 . S
C90 C86 1.377 . S
C90 C89 1.394 . S
H91 C98 0.929 . S
H92 C101 0.930 . S
H93 C103 0.929 . S
H94 C95 0.969 . S
C95 H94 0.969 . S
C95 O96 1.550 . S
C95 H97 0.973 . S
O96 C95 1.550 . S
O96 C102 1.412 . S
H97 C95 0.973 . S
C98 H91 0.929 . S
C98 C99 1.400 . S
C98 C100 1.364 . S
C99 C98 1.400 . S
C99 C103 1.377 . S
C100 C98 1.364 . S
C100 C101 1.374 . S
C101 H92 0.930 . S
C101 C100 1.374 . S
C101 C102 1.383 . S
C102 O96 1.412 . S
C102 C101 1.383 . S
C102 C103 1.394 . S
C103 H93 0.929 . S
C103 C99 1.377 . S
C103 C102 1.394 . S
Co104 N109 2.057 . S
Co104 O121 2.021 . S
Co104 O124 2.075 . S
Co104 O128 2.117 1_545 S
Co104 O129 2.020 . S
C105 O125 1.259 1_655 S
C105 O128 1.258 . S
Co106 N115 2.052 1_545 S
Co106 O122 2.117 . S
Co106 O123 2.020 . S
Co106 O125 2.021 1_545 S
Co106 O130 2.062 1_545 S
C107 N109 1.316 . S
C107 N110 1.347 . S
C107 H112 0.931 . S
C108 N109 1.375 . S
C108 C111 1.350 . S
C108 H113 0.930 1_545 S
N109 Co104 2.057 . S
N109 C107 1.316 . S
N109 C108 1.375 . S
N110 C107 1.347 . S
N110 C111 1.373 . S
C111 C108 1.350 . S
C111 N110 1.373 . S
C111 H132 0.931 . S
H112 C107 0.931 . S
H113 C108 0.930 1_565 S
C114 O121 1.259 1_455 S
C114 O122 1.258 . S
N115 Co106 2.052 1_565 S
N115 C116 1.345 . S
N115 C117 1.353 1_565 S
C116 N115 1.345 . S
C116 N118 1.347 . S
C116 H127 0.931 . S
C117 N115 1.353 1_545 S
C117 C119 1.350 . S
C117 H126 0.930 . S
N118 C116 1.347 . S
N118 C119 1.373 1_565 S
C119 C117 1.350 . S
C119 N118 1.373 1_545 S
C119 H133 0.931 . S
C120 O123 1.256 . S
C120 O124 1.224 1_455 S
O121 Co104 2.021 . S
O121 C114 1.259 1_655 S
O122 Co106 2.117 . S
O122 C114 1.258 . S
O123 Co106 2.020 . S
O123 C120 1.256 . S
O124 Co104 2.075 . S
O124 C120 1.224 1_655 S
O125 C105 1.259 1_455 S
O125 Co106 2.021 1_565 S
H126 C117 0.930 . S
H127 C116 0.931 . S
O128 Co104 2.117 1_565 S
O128 C105 1.258 . S
O129 Co104 2.020 . S
O129 C131 1.256 1_545 S
O130 Co106 2.062 1_565 S
O130 C131 1.255 1_455 S
C131 O129 1.256 1_565 S
C131 O130 1.255 1_655 S
H132 C111 0.931 . S
H133 C119 0.931 . S
Co134 N139 2.057 1_545 S
Co134 O151 2.021 . S
Co134 O154 2.062 1_545 S
Co134 O158 2.117 1_546 S
Co134 O159 2.020 . S
C135 O155 1.259 . S
C135 O158 1.258 . S
Co136 N145 2.057 . S
Co136 O152 2.117 . S
Co136 O153 2.020 . S
Co136 O155 2.021 1_545 S
Co136 O160 2.062 . S
C137 N139 1.316 . S
C137 N140 1.347 . S
C137 H142 0.931 1_565 S
C138 N139 1.375 . S
C138 C141 1.350 . S
C138 H143 0.930 . S
N139 Co134 2.057 1_565 S
N139 C137 1.316 . S
N139 C138 1.375 . S
N140 C137 1.347 . S
N140 C141 1.373 . S
C141 C138 1.350 . S
C141 N140 1.373 . S
C141 H162 0.931 . S
H142 C137 0.931 1_545 S
H143 C138 0.930 . S
C144 O151 1.259 . S
C144 O152 1.258 1_556 S
N145 Co136 2.057 . S
N145 C146 1.316 . S
N145 C147 1.375 . S
C146 N145 1.316 . S
C146 N148 1.347 . S
C146 H157 0.931 . S
C147 N145 1.375 . S
C147 C149 1.350 . S
C147 H156 0.930 . S
N148 C146 1.347 . S
N148 C149 1.373 . S
C149 C147 1.350 . S
C149 N148 1.373 . S
C149 H163 0.931 . S
C150 O153 1.256 1_566 S
C150 O154 1.255 . S
O151 Co134 2.021 . S
O151 C144 1.259 . S
O152 Co136 2.117 . S
O152 C144 1.258 1_554 S
O153 Co136 2.020 . S
O153 C150 1.256 1_544 S
O154 Co134 2.062 1_565 S
O154 C150 1.255 . S
O155 C135 1.259 . S
O155 Co136 2.021 1_565 S
H156 C147 0.930 . S
H157 C146 0.931 . S
O158 Co134 2.117 1_564 S
O158 C135 1.258 . S
O159 Co134 2.020 . S
O159 C161 1.256 1_556 S
O160 Co136 2.062 . S
O160 C161 1.255 . S
C161 O159 1.256 1_554 S
C161 O160 1.255 . S
H162 C141 0.931 . S
H163 C149 0.931 . S
Co164 N169 2.057 . S
Co164 O181 2.021 . S
Co164 O184 2.062 . S
Co164 O188 2.117 . S
Co164 O189 2.020 . S
C165 O185 1.259 . S
C165 O188 1.258 . S
Co166 N175 2.057 . S
Co166 O182 2.117 . S
Co166 O183 2.020 . S
Co166 O185 2.021 . S
Co166 O190 2.062 . S
C167 N169 1.316 . S
C167 N170 1.347 . S
C167 H172 0.931 . S
C168 N169 1.375 . S
C168 C171 1.350 . S
C168 H173 0.930 . S
N169 Co164 2.057 . S
N169 C167 1.316 . S
N169 C168 1.375 . S
N170 C167 1.347 . S
N170 C171 1.373 . S
C171 C168 1.350 . S
C171 N170 1.373 . S
C171 H192 0.931 . S
H172 C167 0.931 . S
H173 C168 0.930 . S
C174 O181 1.259 . S
C174 O182 1.258 . S
N175 Co166 2.057 . S
N175 C176 1.316 . S
N175 C177 1.375 . S
C176 N175 1.316 . S
C176 N178 1.347 . S
C176 H187 0.931 . S
C177 N175 1.375 . S
C177 C179 1.350 . S
C177 H186 0.930 . S
N178 C176 1.347 . S
N178 C179 1.373 . S
C179 C177 1.350 . S
C179 N178 1.373 . S
C179 H193 0.931 . S
C180 O183 1.256 . S
C180 O184 1.255 . S
O181 Co164 2.021 . S
O181 C174 1.259 . S
O182 Co166 2.117 . S
O182 C174 1.258 . S
O183 Co166 2.020 . S
O183 C180 1.256 . S
O184 Co164 2.062 . S
O184 C180 1.255 . S
O185 C165 1.259 . S
O185 Co166 2.021 . S
H186 C177 0.930 . S
H187 C176 0.931 . S
O188 Co164 2.117 . S
O188 C165 1.258 . S
O189 Co164 2.020 . S
O189 C191 1.256 . S
O190 Co166 2.062 . S
O190 C191 1.255 . S
C191 O189 1.256 . S
C191 O190 1.255 . S
H192 C171 0.931 . S
H193 C179 0.931 . S
Co194 N199 2.057 . S
Co194 O211 2.021 1_556 S
Co194 O214 2.062 1_556 S
Co194 O218 2.117 1_455 S
Co194 O219 2.020 . S
C195 O215 1.259 . S
C195 O218 1.258 1_554 S
Co196 N205 2.057 . S
Co196 O212 2.117 . S
Co196 O213 2.020 . S
Co196 O215 2.021 1_455 S
Co196 O220 2.062 . S
C197 N199 1.316 . S
C197 N200 1.347 . S
C197 H202 0.931 . S
C198 N199 1.375 . S
C198 C201 1.350 . S
C198 H203 0.930 1_455 S
N199 Co194 2.057 . S
N199 C197 1.316 . S
N199 C198 1.375 . S
N200 C197 1.347 . S
N200 C201 1.373 . S
C201 C198 1.350 . S
C201 N200 1.373 . S
C201 H222 0.931 . S
H202 C197 0.931 . S
H203 C198 0.930 1_655 S
C204 O211 1.259 . S
C204 O212 1.258 . S
N205 Co196 2.057 . S
N205 C206 1.316 1_455 S
N205 C207 1.375 . S
C206 N205 1.316 1_655 S
C206 N208 1.347 . S
C206 H217 0.931 . S
C207 N205 1.375 . S
C207 C209 1.350 . S
C207 H216 0.930 . S
N208 C206 1.347 . S
N208 C209 1.373 1_655 S
C209 C207 1.350 . S
C209 N208 1.373 1_455 S
C209 H223 0.931 . S
C210 O213 1.256 . S
C210 O214 1.255 . S
O211 Co194 2.021 1_554 S
O211 C204 1.259 . S
O212 Co196 2.117 . S
O212 C204 1.258 . S
O213 Co196 2.020 . S
O213 C210 1.256 . S
O214 Co194 2.062 1_554 S
O214 C210 1.255 . S
O215 C195 1.259 . S
O215 Co196 2.021 1_655 S
H216 C207 0.930 . S
H217 C206 0.931 . S
O218 Co194 2.117 1_655 S
O218 C195 1.258 1_556 S
O219 Co194 2.020 . S
O219 C221 1.256 1_556 S
O220 Co196 2.062 . S
O220 C221 1.255 . S
C221 O219 1.256 1_554 S
C221 O220 1.255 . S
H222 C201 0.931 . S
H223 C209 0.931 . S
H224 C230 0.930 . S
H225 C234 0.930 . S
H226 C239 0.929 . S
H227 C237 0.929 . S
H228 C232 0.929 . S
H229 C238 0.929 . S
C230 H224 0.930 . S
C230 C231 1.367 . S
C230 C238 1.378 . S
C231 C230 1.367 . S
C231 C239 1.433 . S
C232 H228 0.929 . S
C232 C234 1.378 . S
C232 C236 1.350 . S
C233 C236 1.463 . S
C233 C238 1.350 . S
C233 N241 1.427 . S
C234 H225 0.930 . S
C234 C232 1.378 . S
C234 C235 1.367 . S
C235 C234 1.367 . S
C235 C237 1.433 . S
C236 C232 1.350 . S
C236 C233 1.463 . S
C236 N240 1.427 . S
C237 H227 0.929 . S
C237 C235 1.433 . S
C237 N240 1.384 . S
C238 H229 0.929 . S
C238 C230 1.378 . S
C238 C233 1.350 . S
C239 H226 0.929 . S
C239 C231 1.433 . S
C239 N241 1.384 . S
N240 C236 1.427 . S
N240 C237 1.384 . S
N241 C233 1.427 . S
N241 C239 1.384 . S
H242 C248 0.930 . S
H243 C252 0.930 . S
H244 C257 0.929 . S
H245 C255 0.929 1_545 S
H246 C250 0.929 . S
H247 C256 0.929 . S
C248 H242 0.930 . S
C248 C249 1.367 . S
C248 C256 1.378 . S
C249 C248 1.367 . S
C249 C257 1.433 . S
C250 H246 0.929 . S
C250 C252 1.378 . S
C250 C254 1.350 . S
C251 C254 1.463 . S
C251 C256 1.350 . S
C251 N259 1.427 . S
C252 H243 0.930 . S
C252 C250 1.378 . S
C252 C253 1.367 . S
C253 C252 1.367 . S
C253 C255 1.433 . S
C254 C250 1.350 . S
C254 C251 1.463 . S
C254 N258 1.427 . S
C255 H245 0.929 1_565 S
C255 C253 1.433 . S
C255 N258 1.384 . S
C256 H247 0.929 . S
C256 C248 1.378 . S
C256 C251 1.350 . S
C257 H244 0.929 . S
C257 C249 1.433 . S
C257 N259 1.384 . S
N258 C254 1.427 . S
N258 C255 1.384 . S
N259 C251 1.427 . S
N259 C257 1.384 . S
H260 C266 0.930 . S
H261 C270 0.930 . S
H262 C275 0.929 . S
H263 C273 0.929 . S
H264 C268 0.929 . S
H265 C274 0.929 . S
C266 H260 0.930 . S
C266 C267 1.367 . S
C266 C274 1.378 . S
C267 C266 1.367 . S
C267 C275 1.433 . S
C268 H264 0.929 . S
C268 C270 1.378 . S
C268 C272 1.350 . S
C269 C272 1.463 . S
C269 C274 1.350 . S
C269 N277 1.427 . S
C270 H261 0.930 . S
C270 C268 1.378 . S
C270 C271 1.367 . S
C271 C270 1.367 . S
C271 C273 1.433 . S
C272 C268 1.350 . S
C272 C269 1.463 . S
C272 N276 1.427 . S
C273 H263 0.929 . S
C273 C271 1.433 . S
C273 N276 1.384 . S
C274 H265 0.929 . S
C274 C266 1.378 . S
C274 C269 1.350 . S
C275 H262 0.929 . S
C275 C267 1.433 . S
C275 N277 1.384 . S
N276 C272 1.427 . S
N276 C273 1.384 . S
N277 C269 1.427 . S
N277 C275 1.384 . S
H278 C284 0.930 . S
H279 C288 0.930 1_455 S
H280 C293 0.929 . S
H281 C291 0.929 . S
H282 C286 0.929 1_455 S
H283 C292 0.929 . S
C284 H278 0.930 . S
C284 C285 1.367 . S
C284 C292 1.378 . S
C285 C284 1.367 . S
C285 C293 1.433 . S
C286 H282 0.929 1_655 S
C286 C288 1.378 . S
C286 C290 1.350 . S
C287 C290 1.463 . S
C287 C292 1.350 . S
C287 N295 1.427 . S
C288 H279 0.930 1_655 S
C288 C286 1.378 . S
C288 C289 1.367 . S
C289 C288 1.367 . S
C289 C291 1.433 . S
C290 C286 1.350 . S
C290 C287 1.463 . S
C290 N294 1.427 . S
C291 H281 0.929 . S
C291 C289 1.433 . S
C291 N294 1.384 . S
C292 H283 0.929 . S
C292 C284 1.378 . S
C292 C287 1.350 . S
C293 H280 0.929 . S
C293 C285 1.433 . S
C293 N295 1.384 . S
N294 C290 1.427 . S
N294 C291 1.384 . S
N295 C287 1.427 . S
N295 C293 1.384 . S
H296 C302 0.930 . S
H297 C306 0.930 1_565 S
H298 C311 0.929 . S
H299 C309 0.929 . S
H300 C304 0.929 1_565 S
H301 C310 0.929 . S
C302 H296 0.930 . S
C302 C303 1.367 . S
C302 C310 1.378 . S
C303 C302 1.367 . S
C303 C311 1.433 . S
C304 H300 0.929 1_545 S
C304 C306 1.378 . S
C304 C308 1.350 . S
C305 C308 1.463 . S
C305 C310 1.350 . S
C305 N313 1.427 . S
C306 H297 0.930 1_545 S
C306 C304 1.378 . S
C306 C307 1.367 . S
C307 C306 1.367 . S
C307 C309 1.433 . S
C308 C304 1.350 . S
C308 C305 1.463 . S
C308 N312 1.427 . S
C309 H299 0.929 . S
C309 C307 1.433 . S
C309 N312 1.384 . S
C310 H301 0.929 . S
C310 C302 1.378 . S
C310 C305 1.350 . S
C311 H298 0.929 . S
C311 C303 1.433 . S
C311 N313 1.384 . S
N312 C308 1.427 . S
N312 C309 1.384 . S
N313 C305 1.427 . S
N313 C311 1.384 . S
H314 C320 0.930 . S
H315 C324 0.930 . S
H316 C329 0.929 . S
H317 C327 0.929 . S
H318 C322 0.929 . S
H319 C328 0.929 . S
C320 H314 0.930 . S
C320 C321 1.367 . S
C320 C328 1.378 . S
C321 C320 1.367 . S
C321 C329 1.433 . S
C322 H318 0.929 . S
C322 C324 1.378 . S
C322 C326 1.350 . S
C323 C326 1.463 . S
C323 C328 1.350 . S
C323 N331 1.427 . S
C324 H315 0.930 . S
C324 C322 1.378 . S
C324 C325 1.367 . S
C325 C324 1.367 . S
C325 C327 1.433 . S
C326 C322 1.350 . S
C326 C323 1.463 . S
C326 N330 1.427 . S
C327 H317 0.929 . S
C327 C325 1.433 . S
C327 N330 1.384 . S
C328 H319 0.929 . S
C328 C320 1.378 . S
C328 C323 1.350 . S
C329 H316 0.929 . S
C329 C321 1.433 . S
C329 N331 1.384 . S
N330 C326 1.427 . S
N330 C327 1.384 . S
N331 C323 1.427 . S
N331 C329 1.384 . S
H332 C338 0.930 . S
H333 C342 0.930 . S
H334 C347 0.929 . S
H335 C345 0.929 . S
H336 C340 0.929 . S
H337 C346 0.929 . S
C338 H332 0.930 . S
C338 C339 1.367 . S
C338 C346 1.378 . S
C339 C338 1.367 . S
C339 C347 1.433 . S
C340 H336 0.929 . S
C340 C342 1.378 . S
C340 C344 1.350 . S
C341 C344 1.463 . S
C341 C346 1.350 . S
C341 N349 1.427 . S
C342 H333 0.930 . S
C342 C340 1.378 . S
C342 C343 1.367 . S
C343 C342 1.367 . S
C343 C345 1.433 . S
C344 C340 1.350 . S
C344 C341 1.463 . S
C344 N348 1.427 . S
C345 H335 0.929 . S
C345 C343 1.433 . S
C345 N348 1.384 . S
C346 H337 0.929 . S
C346 C338 1.378 . S
C346 C341 1.350 . S
C347 H334 0.929 . S
C347 C339 1.433 . S
C347 N349 1.384 . S
N348 C344 1.427 . S
N348 C345 1.384 . S
N349 C341 1.427 . S
N349 C347 1.384 . S
H350 C356 0.930 . S
H351 C360 0.930 . S
H352 C365 0.929 . S
H353 C363 0.929 . S
H354 C358 0.929 . S
H355 C364 0.929 . S
C356 H350 0.930 . S
C356 C357 1.367 . S
C356 C364 1.378 . S
C357 C356 1.367 . S
C357 C365 1.433 . S
C358 H354 0.929 . S
C358 C360 1.378 . S
C358 C362 1.350 . S
C359 C362 1.463 . S
C359 C364 1.350 . S
C359 N367 1.427 . S
C360 H351 0.930 . S
C360 C358 1.378 . S
C360 C361 1.367 . S
C361 C360 1.367 . S
C361 C363 1.433 . S
C362 C358 1.350 . S
C362 C359 1.463 . S
C362 N366 1.427 . S
C363 H353 0.929 . S
C363 C361 1.433 . S
C363 N366 1.384 . S
C364 H355 0.929 . S
C364 C356 1.378 . S
C364 C359 1.350 . S
C365 H352 0.929 . S
C365 C357 1.433 . S
C365 N367 1.384 . S
N366 C362 1.427 . S
N366 C363 1.384 . S
N367 C359 1.427 . S
N367 C365 1.384 . S
H368 C374 0.930 . S
H369 C378 0.930 . S
H370 C383 0.929 . S
H371 C381 0.929 . S
H372 C376 0.929 . S
H373 C382 0.929 . S
C374 H368 0.930 . S
C374 C375 1.367 . S
C374 C382 1.378 . S
C375 C374 1.367 . S
C375 C383 1.433 . S
C376 H372 0.929 . S
C376 C378 1.378 . S
C376 C380 1.350 . S
C377 C380 1.463 . S
C377 C382 1.350 . S
C377 N385 1.427 . S
C378 H369 0.930 . S
C378 C376 1.378 . S
C378 C379 1.367 . S
C379 C378 1.367 . S
C379 C381 1.433 . S
C380 C376 1.350 . S
C380 C377 1.463 . S
C380 N384 1.427 . S
C381 H371 0.929 . S
C381 C379 1.433 . S
C381 N384 1.384 . S
C382 H373 0.929 . S
C382 C374 1.378 . S
C382 C377 1.350 . S
C383 H370 0.929 . S
C383 C375 1.433 . S
C383 N385 1.384 . S
N384 C380 1.427 . S
N384 C381 1.384 . S
N385 C377 1.427 . S
N385 C383 1.384 . S
H386 C392 0.930 . S
H387 C396 0.930 1_554 S
H388 C401 0.929 . S
H389 C399 0.929 . S
H390 C394 0.929 1_554 S
H391 C400 0.929 . S
C392 H386 0.930 . S
C392 C393 1.367 . S
C392 C400 1.378 . S
C393 C392 1.367 . S
C393 C401 1.433 . S
C394 H390 0.929 1_556 S
C394 C396 1.378 . S
C394 C398 1.350 . S
C395 C398 1.463 . S
C395 C400 1.350 . S
C395 N403 1.427 . S
C396 H387 0.930 1_556 S
C396 C394 1.378 . S
C396 C397 1.367 . S
C397 C396 1.367 . S
C397 C399 1.433 . S
C398 C394 1.350 . S
C398 C395 1.463 . S
C398 N402 1.427 . S
C399 H389 0.929 . S
C399 C397 1.433 . S
C399 N402 1.384 . S
C400 H391 0.929 . S
C400 C392 1.378 . S
C400 C395 1.350 . S
C401 H388 0.929 . S
C401 C393 1.433 . S
C401 N403 1.384 . S
N402 C398 1.427 . S
N402 C399 1.384 . S
N403 C395 1.427 . S
N403 C401 1.384 . S
H404 C410 0.930 . S
H405 C414 0.930 . S
H406 C419 0.929 . S
H407 C417 0.929 . S
H408 C412 0.929 . S
H409 C418 0.929 . S
C410 H404 0.930 . S
C410 C411 1.367 . S
C410 C418 1.378 . S
C411 C410 1.367 . S
C411 C419 1.433 . S
C412 H408 0.929 . S
C412 C414 1.378 . S
C412 C416 1.350 . S
C413 C416 1.463 . S
C413 C418 1.350 . S
C413 N421 1.427 . S
C414 H405 0.930 . S
C414 C412 1.378 . S
C414 C415 1.367 . S
C415 C414 1.367 . S
C415 C417 1.433 . S
C416 C412 1.350 . S
C416 C413 1.463 . S
C416 N420 1.427 . S
C417 H407 0.929 . S
C417 C415 1.433 . S
C417 N420 1.384 . S
C418 H409 0.929 . S
C418 C410 1.378 . S
C418 C413 1.350 . S
C419 H406 0.929 . S
C419 C411 1.433 . S
C419 N421 1.384 . S
N420 C416 1.427 . S
N420 C417 1.384 . S
N421 C413 1.427 . S
N421 C419 1.384 . S
H422 C428 0.930 . S
H423 C432 0.930 . S
H424 C437 0.929 . S
H425 C435 0.929 . S
H426 C430 0.929 . S
H427 C436 0.929 . S
C428 H422 0.930 . S
C428 C429 1.367 . S
C428 C436 1.378 . S
C429 C428 1.367 . S
C429 C437 1.433 . S
C430 H426 0.929 . S
C430 C432 1.378 . S
C430 C434 1.350 . S
C431 C434 1.463 . S
C431 C436 1.350 . S
C431 N439 1.427 . S
C432 H423 0.930 . S
C432 C430 1.378 . S
C432 C433 1.367 . S
C433 C432 1.367 . S
C433 C435 1.433 . S
C434 C430 1.350 . S
C434 C431 1.463 . S
C434 N438 1.427 . S
C435 H425 0.929 . S
C435 C433 1.433 . S
C435 N438 1.384 . S
C436 H427 0.929 . S
C436 C428 1.378 . S
C436 C431 1.350 . S
C437 H424 0.929 . S
C437 C429 1.433 . S
C437 N439 1.384 . S
N438 C434 1.427 . S
N438 C435 1.384 . S
N439 C431 1.427 . S
N439 C437 1.384 . S
H440 C446 0.930 . S
H441 C450 0.943 1_545 S
H442 C455 0.929 . S
H443 C453 0.929 . S
H444 C448 0.929 1_455 S
H445 C454 0.929 . S
C446 H440 0.930 . S
C446 C447 1.367 . S
C446 C454 1.378 . S
C447 C446 1.367 . S
C447 C455 1.433 . S
C448 H444 0.929 1_655 S
C448 C450 1.372 1_655 S
C448 C452 1.350 . S
C449 C452 1.463 . S
C449 C454 1.350 . S
C449 N457 1.427 . S
C450 H441 0.943 1_565 S
C450 C448 1.372 1_455 S
C450 C451 1.359 1_455 S
C451 C450 1.359 1_655 S
C451 C453 1.433 . S
C452 C448 1.350 . S
C452 C449 1.463 . S
C452 N456 1.427 . S
C453 H443 0.929 . S
C453 C451 1.433 . S
C453 N456 1.384 . S
C454 H445 0.929 . S
C454 C446 1.378 . S
C454 C449 1.350 . S
C455 H442 0.929 . S
C455 C447 1.433 . S
C455 N457 1.384 . S
N456 C452 1.427 . S
N456 C453 1.384 . S
N457 C449 1.427 . S
N457 C455 1.384 . S
H458 C464 0.930 . S
H459 C468 0.930 . S
H460 C473 0.929 . S
H461 C471 0.929 . S
H462 C466 0.929 . S
H463 C472 0.929 . S
C464 H458 0.930 . S
C464 C465 1.367 . S
C464 C472 1.378 . S
C465 C464 1.367 . S
C465 C473 1.433 . S
C466 H462 0.929 . S
C466 C468 1.378 . S
C466 C470 1.350 . S
C467 C470 1.463 . S
C467 C472 1.350 . S
C467 N475 1.427 . S
C468 H459 0.930 . S
C468 C466 1.378 . S
C468 C469 1.367 . S
C469 C468 1.367 . S
C469 C471 1.433 . S
C470 C466 1.350 . S
C470 C467 1.463 . S
C470 N474 1.427 . S
C471 H461 0.929 . S
C471 C469 1.433 . S
C471 N474 1.384 . S
C472 H463 0.929 . S
C472 C464 1.378 . S
C472 C467 1.350 . S
C473 H460 0.929 . S
C473 C465 1.433 . S
C473 N475 1.384 . S
N474 C470 1.427 . S
N474 C471 1.384 . S
N475 C467 1.427 . S
N475 C473 1.384 . S
H476 C482 0.930 . S
H477 C486 0.930 . S
H478 C491 0.929 . S
H479 C489 0.929 . S
H480 C484 0.929 . S
H481 C490 0.929 . S
C482 H476 0.930 . S
C482 C483 1.367 . S
C482 C490 1.378 . S
C483 C482 1.367 . S
C483 C491 1.433 . S
C484 H480 0.929 . S
C484 C486 1.378 . S
C484 C488 1.350 . S
C485 C488 1.463 . S
C485 C490 1.350 . S
C485 N493 1.427 . S
C486 H477 0.930 . S
C486 C484 1.378 . S
C486 C487 1.367 . S
C487 C486 1.367 . S
C487 C489 1.433 . S
C488 C484 1.350 . S
C488 C485 1.463 . S
C488 N492 1.427 . S
C489 H479 0.929 . S
C489 C487 1.433 . S
C489 N492 1.384 . S
C490 H481 0.929 . S
C490 C482 1.378 . S
C490 C485 1.350 . S
C491 H478 0.929 . S
C491 C483 1.433 . S
C491 N493 1.384 . S
N492 C488 1.427 . S
N492 C489 1.384 . S
N493 C485 1.427 . S
N493 C491 1.384 . S
H494 C500 0.930 . S
H495 C504 0.930 . S
H496 C509 0.929 . S
H497 C507 0.929 . S
H498 C502 0.929 . S
H499 C508 0.929 . S
C500 H494 0.930 . S
C500 C501 1.367 . S
C500 C508 1.378 . S
C501 C500 1.367 . S
C501 C509 1.433 . S
C502 H498 0.929 . S
C502 C504 1.378 . S
C502 C506 1.350 . S
C503 C506 1.463 . S
C503 C508 1.350 . S
C503 N511 1.427 . S
C504 H495 0.930 . S
C504 C502 1.378 . S
C504 C505 1.367 . S
C505 C504 1.367 . S
C505 C507 1.433 . S
C506 C502 1.350 . S
C506 C503 1.463 . S
C506 N510 1.427 . S
C507 H497 0.929 . S
C507 C505 1.433 . S
C507 N510 1.384 . S
C508 H499 0.929 . S
C508 C500 1.378 . S
C508 C503 1.350 . S
C509 H496 0.929 . S
C509 C501 1.433 . S
C509 N511 1.384 . S
N510 C506 1.427 . S
N510 C507 1.384 . S
N511 C503 1.427 . S
N511 C509 1.384 . S
H512 C518 0.930 . S
H513 C522 0.930 . S
H514 C527 0.929 . S
H515 C525 0.929 . S
H516 C520 0.929 . S
H517 C526 0.957 . S
C518 H512 0.930 . S
C518 C519 1.367 . S
C518 C526 1.378 . S
C519 C518 1.367 . S
C519 C527 1.433 . S
C520 H516 0.929 . S
C520 C522 1.378 . S
C520 C524 1.350 . S
C521 C524 1.463 . S
C521 C526 1.350 . S
C521 N529 1.427 . S
C522 H513 0.930 . S
C522 C520 1.378 . S
C522 C523 1.367 . S
C523 C522 1.367 . S
C523 C525 1.433 1_556 S
C524 C520 1.350 . S
C524 C521 1.463 . S
C524 N528 1.427 . S
C525 H515 0.929 . S
C525 C523 1.433 1_554 S
C525 N528 1.384 1_554 S
C526 H517 0.957 . S
C526 C518 1.378 . S
C526 C521 1.350 . S
C527 H514 0.929 . S
C527 C519 1.433 . S
C527 N529 1.384 . S
N528 C524 1.427 . S
N528 C525 1.384 1_556 S
N529 C521 1.427 . S
N529 C527 1.384 . S
H530 C536 0.930 . S
H531 C540 0.930 . S
H532 C545 0.929 . S
H533 C543 0.929 . S
H534 C538 0.929 . S
H535 C544 0.929 . S
C536 H530 0.930 . S
C536 C537 1.367 . S
C536 C544 1.378 . S
C537 C536 1.367 . S
C537 C545 1.433 . S
C538 H534 0.929 . S
C538 C540 1.378 . S
C538 C542 1.350 . S
C539 C542 1.463 . S
C539 C544 1.350 . S
C539 N547 1.427 . S
C540 H531 0.930 . S
C540 C538 1.378 . S
C540 C541 1.367 . S
C541 C540 1.367 . S
C541 C543 1.433 . S
C542 C538 1.350 . S
C542 C539 1.463 . S
C542 N546 1.427 . S
C543 H533 0.929 . S
C543 C541 1.433 . S
C543 N546 1.384 . S
C544 H535 0.929 . S
C544 C536 1.378 . S
C544 C539 1.350 . S
C545 H532 0.929 . S
C545 C537 1.433 . S
C545 N547 1.384 . S
N546 C542 1.427 . S
N546 C543 1.384 . S
N547 C539 1.427 . S
N547 C545 1.384 . S
H548 C554 0.930 . S
H549 C558 0.930 . S
H550 C563 0.929 . S
H551 C561 0.929 . S
H552 C556 0.929 . S
H553 C562 0.929 . S
C554 H548 0.930 . S
C554 C555 1.367 . S
C554 C562 1.378 . S
C555 C554 1.367 . S
C555 C563 1.433 . S
C556 H552 0.929 . S
C556 C558 1.378 . S
C556 C560 1.350 . S
C557 C560 1.463 . S
C557 C562 1.350 . S
C557 N565 1.427 . S
C558 H549 0.930 . S
C558 C556 1.378 . S
C558 C559 1.367 . S
C559 C558 1.367 . S
C559 C561 1.433 . S
C560 C556 1.350 . S
C560 C557 1.463 . S
C560 N564 1.427 . S
C561 H551 0.929 . S
C561 C559 1.433 . S
C561 N564 1.384 . S
C562 H553 0.929 . S
C562 C554 1.378 . S
C562 C557 1.350 . S
C563 H550 0.929 . S
C563 C555 1.433 . S
C563 N565 1.384 . S
N564 C560 1.427 . S
N564 C561 1.384 . S
N565 C557 1.427 . S
N565 C563 1.384 . S
H566 C572 0.930 . S
H567 C576 0.930 . S
H568 C581 0.929 . S
H569 C579 0.929 . S
H570 C574 0.929 . S
H571 C580 0.929 . S
C572 H566 0.930 . S
C572 C573 1.367 . S
C572 C580 1.378 . S
C573 C572 1.367 . S
C573 C581 1.433 . S
C574 H570 0.929 . S
C574 C576 1.378 . S
C574 C578 1.350 . S
C575 C578 1.463 . S
C575 C580 1.350 . S
C575 N583 1.427 . S
C576 H567 0.930 . S
C576 C574 1.378 . S
C576 C577 1.367 . S
C577 C576 1.367 . S
C577 C579 1.433 . S
C578 C574 1.350 . S
C578 C575 1.463 . S
C578 N582 1.427 . S
C579 H569 0.929 . S
C579 C577 1.433 . S
C579 N582 1.384 . S
C580 H571 0.929 . S
C580 C572 1.378 . S
C580 C575 1.350 . S
C581 H568 0.929 . S
C581 C573 1.433 . S
C581 N583 1.384 . S
N582 C578 1.427 . S
N582 C579 1.384 . S
N583 C575 1.427 . S
N583 C581 1.384 . S
H584 C590 0.930 . S
H585 C594 0.930 . S
H586 C599 0.929 1_554 S
H587 C597 0.929 . S
H588 C592 0.929 . S
H589 C598 0.929 . S
C590 H584 0.930 . S
C590 C591 1.367 . S
C590 C598 1.378 . S
C591 C590 1.367 . S
C591 C599 1.433 . S
C592 H588 0.929 . S
C592 C594 1.378 . S
C592 C596 1.350 1_454 S
C593 C596 1.463 . S
C593 C598 1.350 . S
C593 N601 1.427 . S
C594 H585 0.930 . S
C594 C592 1.378 . S
C594 C595 1.367 1_554 S
C595 C594 1.367 1_556 S
C595 C597 1.433 1_455 S
C596 C592 1.350 1_656 S
C596 C593 1.463 . S
C596 N600 1.427 . S
C597 H587 0.929 . S
C597 C595 1.433 1_655 S
C597 N600 1.384 . S
C598 H589 0.929 . S
C598 C590 1.378 . S
C598 C593 1.350 . S
C599 H586 0.929 1_556 S
C599 C591 1.433 . S
C599 N601 1.384 . S
N600 C596 1.427 . S
N600 C597 1.384 . S
N601 C593 1.427 . S
N601 C599 1.384 . S
H602 C608 0.930 . S
H603 C612 0.930 . S
H604 C617 0.929 . S
H605 C615 0.929 . S
H606 C610 0.929 . S
H607 C616 0.929 . S
C608 H602 0.930 . S
C608 C609 1.367 . S
C608 C616 1.378 . S
C609 C608 1.367 . S
C609 C617 1.433 . S
C610 H606 0.929 . S
C610 C612 1.378 . S
C610 C614 1.350 . S
C611 C614 1.463 . S
C611 C616 1.350 . S
C611 N619 1.427 . S
C612 H603 0.930 . S
C612 C610 1.378 . S
C612 C613 1.367 . S
C613 C612 1.367 . S
C613 C615 1.433 . S
C614 C610 1.350 . S
C614 C611 1.463 . S
C614 N618 1.427 . S
C615 H605 0.929 . S
C615 C613 1.433 . S
C615 N618 1.384 . S
C616 H607 0.929 . S
C616 C608 1.378 . S
C616 C611 1.350 . S
C617 H604 0.929 . S
C617 C609 1.433 . S
C617 N619 1.384 . S
N618 C614 1.427 . S
N618 C615 1.384 . S
N619 C611 1.427 . S
N619 C617 1.384 . S
H620 C626 0.930 . S
H621 C630 0.930 . S
H622 C635 0.929 . S
H623 C633 0.929 1_655 S
H624 C628 0.929 . S
H625 C634 0.929 . S
C626 H620 0.930 . S
C626 C627 1.367 . S
C626 C634 1.378 . S
C627 C626 1.367 . S
C627 C635 1.433 . S
C628 H624 0.929 . S
C628 C630 1.378 . S
C628 C632 1.350 . S
C629 C632 1.463 . S
C629 C634 1.350 . S
C629 N637 1.427 . S
C630 H621 0.930 . S
C630 C628 1.378 . S
C630 C631 1.367 . S
C631 C630 1.367 . S
C631 C633 1.433 . S
C632 C628 1.350 . S
C632 C629 1.463 . S
C632 N636 1.427 . S
C633 H623 0.929 1_455 S
C633 C631 1.433 . S
C633 N636 1.384 . S
C634 H625 0.929 . S
C634 C626 1.378 . S
C634 C629 1.350 . S
C635 H622 0.929 . S
C635 C627 1.433 . S
C635 N637 1.384 . S
N636 C632 1.427 . S
N636 C633 1.384 . S
N637 C629 1.427 . S
N637 C635 1.384 . S
H638 C644 0.930 . S
H639 C648 0.930 . S
H640 C653 0.929 . S
H641 C651 0.929 . S
H642 C646 0.929 . S
H643 C652 0.929 . S
C644 H638 0.930 . S
C644 C645 1.367 . S
C644 C652 1.378 . S
C645 C644 1.367 . S
C645 C653 1.433 . S
C646 H642 0.929 . S
C646 C648 1.378 . S
C646 C650 1.350 . S
C647 C650 1.463 . S
C647 C652 1.350 . S
C647 N655 1.427 . S
C648 H639 0.930 . S
C648 C646 1.378 . S
C648 C649 1.367 . S
C649 C648 1.367 . S
C649 C651 1.433 . S
C650 C646 1.350 . S
C650 C647 1.463 . S
C650 N654 1.427 . S
C651 H641 0.929 . S
C651 C649 1.433 . S
C651 N654 1.384 . S
C652 H643 0.929 . S
C652 C644 1.378 . S
C652 C647 1.350 . S
C653 H640 0.929 . S
C653 C645 1.433 . S
C653 N655 1.384 . S
N654 C650 1.427 . S
N654 C651 1.384 . S
N655 C647 1.427 . S
N655 C653 1.384 . S
C231 C9 2.521 . S
C235 C120 2.538 . S
C249 C21 1.079 . S
C253 N140 1.059 . S
C271 C174 1.677 . S
C267 C30 1.644 . S
C285 C43 1.013 . S
C289 N208 1.052 . S
C307 C161 2.226 . S
C303 C4 2.207 . S
C325 N118 1.555 . S
C321 C22 1.591 . S
C343 C195 1.653 1_556 S
C339 C34 1.648 . S
C361 N170 0.883 . S
C357 C48 0.895 . S
C375 C8 1.855 . S
C379 C210 1.861 . S
C397 C144 1.758 . S
C393 C35 1.744 . S
C411 C47 1.461 . S
C415 C105 1.475 . S
C429 C17 1.198 . S
C433 C191 1.208 . S
C451 C131 2.166 . S
C447 C60 2.142 . S
C465 C74 1.344 . S
C469 N148 1.324 . S
C483 C82 1.460 . S
C487 C165 1.469 . S
C501 C100 1.529 . S
C505 N200 1.466 . S
C519 C61 2.599 . S
C523 C150 2.617 . S
C541 N110 1.167 . S
C537 C73 1.193 . S
C559 C204 2.034 . S
C555 C87 2.029 . S
C577 N178 0.682 . S
C573 C95 0.705 . S
C591 C56 1.811 . S
C595 C221 1.892 1_556 S
C613 C135 1.771 . S
C609 C86 1.754 . S
C631 C114 1.422 . S
C627 C99 1.403 . S
C645 C69 1.310 . S
C649 C180 1.330 . S
