# Generated by pormake.
# Topology ctn, (3,4)-cn, num edge types: 1
# Building blocks:
#     Node 0, Type 0, BuildingBlock: KAKCAD_clean_linker_0, # of connection points: 3
#     Node 1, Type 0, BuildingBlock: KAKCAD_clean_linker_0, # of connection points: 3
#     Node 2, Type 0, BuildingBlock: KAKCAD_clean_linker_0, # of connection points: 3
#     Node 3, Type 0, BuildingBlock: KAKCAD_clean_linker_0, # of connection points: 3
#     Node 4, Type 0, BuildingBlock: KAKCAD_clean_linker_0, # of connection points: 3
#     Node 5, Type 0, BuildingBlock: KAKCAD_clean_linker_0, # of connection points: 3
#     Node 6, Type 0, BuildingBlock: KAKCAD_clean_linker_0, # of connection points: 3
#     Node 7, Type 0, BuildingBlock: KAKCAD_clean_linker_0, # of connection points: 3
#     Node 8, Type 0, BuildingBlock: KAKCAD_clean_linker_0, # of connection points: 3
#     Node 9, Type 0, BuildingBlock: KAKCAD_clean_linker_0, # of connection points: 3
#     Node 10, Type 0, BuildingBlock: KAKCAD_clean_linker_0, # of connection points: 3
#     Node 11, Type 0, BuildingBlock: KAKCAD_clean_linker_0, # of connection points: 3
#     Node 12, Type 0, BuildingBlock: KAKCAD_clean_linker_0, # of connection points: 3
#     Node 13, Type 0, BuildingBlock: KAKCAD_clean_linker_0, # of connection points: 3
#     Node 14, Type 0, BuildingBlock: KAKCAD_clean_linker_0, # of connection points: 3
#     Node 15, Type 0, BuildingBlock: KAKCAD_clean_linker_0, # of connection points: 3
#     Node 16, Type 1, BuildingBlock: QUQFOY_clean_sbu_1, # of connection points: 4
#     Node 17, Type 1, BuildingBlock: QUQFOY_clean_sbu_1, # of connection points: 4
#     Node 18, Type 1, BuildingBlock: QUQFOY_clean_sbu_1, # of connection points: 4
#     Node 19, Type 1, BuildingBlock: QUQFOY_clean_sbu_1, # of connection points: 4
#     Node 20, Type 1, BuildingBlock: QUQFOY_clean_sbu_1, # of connection points: 4
#     Node 21, Type 1, BuildingBlock: QUQFOY_clean_sbu_1, # of connection points: 4
#     Node 22, Type 1, BuildingBlock: QUQFOY_clean_sbu_1, # of connection points: 4
#     Node 23, Type 1, BuildingBlock: QUQFOY_clean_sbu_1, # of connection points: 4
#     Node 24, Type 1, BuildingBlock: QUQFOY_clean_sbu_1, # of connection points: 4
#     Node 25, Type 1, BuildingBlock: QUQFOY_clean_sbu_1, # of connection points: 4
#     Node 26, Type 1, BuildingBlock: QUQFOY_clean_sbu_1, # of connection points: 4
#     Node 27, Type 1, BuildingBlock: QUQFOY_clean_sbu_1, # of connection points: 4
#     Edge 28, Type (0, 1), BuildingBlock: ZUJKAS_clean_linker_0, # of connection points: 2
#     Edge 29, Type (0, 1), BuildingBlock: ZUJKAS_clean_linker_0, # of connection points: 2
#     Edge 30, Type (0, 1), BuildingBlock: ZUJKAS_clean_linker_0, # of connection points: 2
#     Edge 31, Type (0, 1), BuildingBlock: ZUJKAS_clean_linker_0, # of connection points: 2
#     Edge 32, Type (0, 1), BuildingBlock: ZUJKAS_clean_linker_0, # of connection points: 2
#     Edge 33, Type (0, 1), BuildingBlock: ZUJKAS_clean_linker_0, # of connection points: 2
#     Edge 34, Type (0, 1), BuildingBlock: ZUJKAS_clean_linker_0, # of connection points: 2
#     Edge 35, Type (0, 1), BuildingBlock: ZUJKAS_clean_linker_0, # of connection points: 2
#     Edge 36, Type (0, 1), BuildingBlock: ZUJKAS_clean_linker_0, # of connection points: 2
#     Edge 37, Type (0, 1), BuildingBlock: ZUJKAS_clean_linker_0, # of connection points: 2
#     Edge 38, Type (0, 1), BuildingBlock: ZUJKAS_clean_linker_0, # of connection points: 2
#     Edge 39, Type (0, 1), BuildingBlock: ZUJKAS_clean_linker_0, # of connection points: 2
#     Edge 40, Type (0, 1), BuildingBlock: ZUJKAS_clean_linker_0, # of connection points: 2
#     Edge 41, Type (0, 1), BuildingBlock: ZUJKAS_clean_linker_0, # of connection points: 2
#     Edge 42, Type (0, 1), BuildingBlock: ZUJKAS_clean_linker_0, # of connection points: 2
#     Edge 43, Type (0, 1), BuildingBlock: ZUJKAS_clean_linker_0, # of connection points: 2
#     Edge 44, Type (0, 1), BuildingBlock: ZUJKAS_clean_linker_0, # of connection points: 2
#     Edge 45, Type (0, 1), BuildingBlock: ZUJKAS_clean_linker_0, # of connection points: 2
#     Edge 46, Type (0, 1), BuildingBlock: ZUJKAS_clean_linker_0, # of connection points: 2
#     Edge 47, Type (0, 1), BuildingBlock: ZUJKAS_clean_linker_0, # of connection points: 2
#     Edge 48, Type (0, 1), BuildingBlock: ZUJKAS_clean_linker_0, # of connection points: 2
#     Edge 49, Type (0, 1), BuildingBlock: ZUJKAS_clean_linker_0, # of connection points: 2
#     Edge 50, Type (0, 1), BuildingBlock: ZUJKAS_clean_linker_0, # of connection points: 2
#     Edge 51, Type (0, 1), BuildingBlock: ZUJKAS_clean_linker_0, # of connection points: 2
#     Edge 52, Type (0, 1), BuildingBlock: ZUJKAS_clean_linker_0, # of connection points: 2
#     Edge 53, Type (0, 1), BuildingBlock: ZUJKAS_clean_linker_0, # of connection points: 2
#     Edge 54, Type (0, 1), BuildingBlock: ZUJKAS_clean_linker_0, # of connection points: 2
#     Edge 55, Type (0, 1), BuildingBlock: ZUJKAS_clean_linker_0, # of connection points: 2
#     Edge 56, Type (0, 1), BuildingBlock: ZUJKAS_clean_linker_0, # of connection points: 2
#     Edge 57, Type (0, 1), BuildingBlock: ZUJKAS_clean_linker_0, # of connection points: 2
#     Edge 58, Type (0, 1), BuildingBlock: ZUJKAS_clean_linker_0, # of connection points: 2
#     Edge 59, Type (0, 1), BuildingBlock: ZUJKAS_clean_linker_0, # of connection points: 2
#     Edge 60, Type (0, 1), BuildingBlock: ZUJKAS_clean_linker_0, # of connection points: 2
#     Edge 61, Type (0, 1), BuildingBlock: ZUJKAS_clean_linker_0, # of connection points: 2
#     Edge 62, Type (0, 1), BuildingBlock: ZUJKAS_clean_linker_0, # of connection points: 2
#     Edge 63, Type (0, 1), BuildingBlock: ZUJKAS_clean_linker_0, # of connection points: 2
#     Edge 64, Type (0, 1), BuildingBlock: ZUJKAS_clean_linker_0, # of connection points: 2
#     Edge 65, Type (0, 1), BuildingBlock: ZUJKAS_clean_linker_0, # of connection points: 2
#     Edge 66, Type (0, 1), BuildingBlock: ZUJKAS_clean_linker_0, # of connection points: 2
#     Edge 67, Type (0, 1), BuildingBlock: ZUJKAS_clean_linker_0, # of connection points: 2
#     Edge 68, Type (0, 1), BuildingBlock: ZUJKAS_clean_linker_0, # of connection points: 2
#     Edge 69, Type (0, 1), BuildingBlock: ZUJKAS_clean_linker_0, # of connection points: 2
#     Edge 70, Type (0, 1), BuildingBlock: ZUJKAS_clean_linker_0, # of connection points: 2
#     Edge 71, Type (0, 1), BuildingBlock: ZUJKAS_clean_linker_0, # of connection points: 2
#     Edge 72, Type (0, 1), BuildingBlock: ZUJKAS_clean_linker_0, # of connection points: 2
#     Edge 73, Type (0, 1), BuildingBlock: ZUJKAS_clean_linker_0, # of connection points: 2
#     Edge 74, Type (0, 1), BuildingBlock: ZUJKAS_clean_linker_0, # of connection points: 2
#     Edge 75, Type (0, 1), BuildingBlock: ZUJKAS_clean_linker_0, # of connection points: 2
# Relax obj value: 0.035
# Max RMSD: 0.143
# Mean RMSD: 0.064
data_MOF--net-ctn--node1-QUQFOY_clean_sbu_1--node2-KAKCAD_clean_linker_0--edge1-ZUJKAS_clean_linker_0
_symmetry_space_group_name_H-M    P1
_symmetry_Int_Tables_number       1
_symmetry_cell_setting            triclinic
loop_
_symmetry_equiv_pos_as_xyz
'x, y, z'
_cell_length_a     83.883964
_cell_length_b     83.752978
_cell_length_c     83.8562
_cell_angle_alpha  92.752734
_cell_angle_beta   90.387804
_cell_angle_gamma 94.515824
loop_
_atom_site_label
_atom_site_type_symbol
_atom_site_fract_x
_atom_site_fract_y
_atom_site_fract_z
_atom_type_partial_charge
C0 C 0.07868 0.13696 0.03574 0.0
C1 C 0.07442 0.1528 0.03804 0.0
C2 C 0.08049 0.12744 0.04876 0.0
C3 C 0.07811 0.13354 0.06441 0.0
C4 C 0.07432 0.14954 0.06675 0.0
C5 C 0.07251 0.15906 0.05371 0.0
C6 C 0.07876 0.12296 0.07812 0.0
C7 C 0.0904 0.11182 0.07877 0.0
C8 C 0.09024 0.1008 0.09091 0.0
C9 C 0.0785 0.10135 0.10274 0.0
C10 C 0.06674 0.1124 0.10233 0.0
C11 C 0.06703 0.12321 0.09001 0.0
C12 C 0.05352 0.11187 0.11409 0.0
C13 C 0.04644 0.09705 0.11873 0.0
C14 C 0.04758 0.12606 0.12045 0.0
C15 C 0.03484 0.12542 0.13116 0.0
C16 C 0.02785 0.11057 0.1358 0.0
C17 C 0.1015 0.08792 0.09054 0.0
C18 C 0.10486 0.07988 0.076 0.0
C19 C 0.10825 0.08295 0.1047 0.0
C20 C 0.11785 0.07 0.10435 0.0
C21 C 0.12096 0.06181 0.08981 0.0
C22 C 0.11448 0.06701 0.07564 0.0
C23 C 0.03381 0.09642 0.12948 0.0
H24 H 0.08042 0.13183 0.02383 0.0
H25 H 0.08326 0.11513 0.04651 0.0
H26 H 0.07256 0.15464 0.07866 0.0
H27 H 0.06909 0.17117 0.0559 0.0
H28 H 0.09956 0.11165 0.06973 0.0
H29 H 0.05761 0.13129 0.0892 0.0
H30 H 0.07821 0.0928 0.11205 0.0
H31 H 0.05042 0.08588 0.11379 0.0
H32 H 0.05285 0.13767 0.11724 0.0
H33 H 0.03056 0.13652 0.13593 0.0
H34 H 0.09961 0.08315 0.0649 0.0
H35 H 0.10607 0.08901 0.11608 0.0
H36 H 0.02847 0.08479 0.13257 0.0
H37 H 0.11641 0.06079 0.06428 0.0
H38 H 0.12282 0.06639 0.11544 0.0
C39 C 0.33463 0.75277 0.26536 0.0
C40 C 0.34354 0.73933 0.26644 0.0
C41 C 0.32016 0.75161 0.25685 0.0
C42 C 0.31432 0.73699 0.24921 0.0
C43 C 0.32334 0.7236 0.25016 0.0
C44 C 0.33776 0.72474 0.25872 0.0
C45 C 0.29883 0.73562 0.24036 0.0
C46 C 0.29466 0.74787 0.23063 0.0
C47 C 0.28015 0.74645 0.222 0.0
C48 C 0.26981 0.7325 0.22313 0.0
C49 C 0.27377 0.72012 0.2328 0.0
C50 C 0.28823 0.7219 0.24149 0.0
C51 C 0.26295 0.70524 0.23373 0.0
C52 C 0.24626 0.7059 0.23398 0.0
C53 C 0.26928 0.69023 0.23442 0.0
C54 C 0.2592 0.67626 0.23555 0.0
C55 C 0.2425 0.6769 0.23584 0.0
C56 C 0.27595 0.75935 0.21152 0.0
C57 C 0.27897 0.7756 0.21649 0.0
C58 C 0.26899 0.7555 0.19639 0.0
C59 C 0.26516 0.76758 0.18646 0.0
C60 C 0.26826 0.78382 0.19139 0.0
C61 C 0.27519 0.7877 0.20652 0.0
C62 C 0.23616 0.6919 0.23495 0.0
H63 H 0.33867 0.76412 0.27136 0.0
H64 H 0.31341 0.7621 0.25652 0.0
H65 H 0.31934 0.71224 0.24417 0.0
H66 H 0.34448 0.71424 0.25914 0.0
H67 H 0.30295 0.75832 0.22938 0.0
H68 H 0.29115 0.71266 0.24939 0.0
H69 H 0.25869 0.73125 0.21638 0.0
H70 H 0.24096 0.71726 0.23364 0.0
H71 H 0.28206 0.68922 0.23401 0.0
H72 H 0.26455 0.66498 0.23643 0.0
H73 H 0.28412 0.77897 0.22817 0.0
H74 H 0.26678 0.74313 0.19206 0.0
H75 H 0.22336 0.69284 0.23492 0.0
H76 H 0.27758 0.8001 0.2107 0.0
H77 H 0.26012 0.7642 0.17475 0.0
C78 C 0.94703 0.46174 0.13307 0.0
C79 C 0.96284 0.45761 0.131 0.0
C80 C 0.93635 0.46078 0.1201 0.0
C81 C 0.94133 0.4558 0.10479 0.0
C82 C 0.95719 0.45177 0.1028 0.0
C83 C 0.96776 0.45257 0.11574 0.0
C84 C 0.9303 0.45503 0.09076 0.0
C85 C 0.91988 0.46708 0.08853 0.0
C86 C 0.91059 0.4671 0.07447 0.0
C87 C 0.91199 0.45489 0.0625 0.0
C88 C 0.92252 0.4429 0.0645 0.0
C89 C 0.93113 0.44278 0.07887 0.0
C90 C 0.92571 0.43119 0.05126 0.0
C91 C 0.91329 0.42352 0.04166 0.0
C92 C 0.94153 0.42762 0.0482 0.0
C93 C 0.94486 0.41633 0.03622 0.0
C94 C 0.93248 0.40835 0.02688 0.0
C95 C 0.90027 0.48045 0.0719 0.0
C96 C 0.89159 0.48702 0.08458 0.0
C97 C 0.89941 0.48707 0.05684 0.0
C98 C 0.89017 0.49994 0.05454 0.0
C99 C 0.88166 0.5066 0.06726 0.0
C100 C 0.88244 0.5 0.0823 0.0
C101 C 0.91666 0.4122 0.02953 0.0
H102 H 0.94293 0.46563 0.14474 0.0
H103 H 0.92419 0.46385 0.12206 0.0
H104 H 0.96161 0.44832 0.09113 0.0
H105 H 0.97997 0.44967 0.11371 0.0
H106 H 0.91959 0.4769 0.09739 0.0
H107 H 0.93885 0.43322 0.08067 0.0
H108 H 0.90524 0.45496 0.05146 0.0
H109 H 0.90099 0.42602 0.04374 0.0
H110 H 0.95144 0.43366 0.05504 0.0
H111 H 0.9572 0.41391 0.03419 0.0
H112 H 0.8918 0.48208 0.09628 0.0
H113 H 0.9062 0.48258 0.04689 0.0
H114 H 0.90689 0.40622 0.02248 0.0
H115 H 0.87586 0.50478 0.09227 0.0
H116 H 0.88998 0.50494 0.04287 0.0
C117 C 0.7137 0.77495 0.17932 0.0
C118 C 0.72959 0.77239 0.17529 0.0
C119 C 0.7104 0.78614 0.19152 0.0
C120 C 0.7229 0.79511 0.1999 0.0
C121 C 0.73878 0.79252 0.19596 0.0
C122 C 0.74208 0.78126 0.18383 0.0
C123 C 0.71939 0.8073 0.21257 0.0
C124 C 0.70759 0.80379 0.22397 0.0
C125 C 0.70415 0.81528 0.23597 0.0
C126 C 0.71265 0.83046 0.23639 0.0
C127 C 0.7245 0.83418 0.2251 0.0
C128 C 0.72779 0.8225 0.21324 0.0
C129 C 0.73349 0.85023 0.22576 0.0
C130 C 0.72561 0.8642 0.22911 0.0
C131 C 0.75009 0.85167 0.22326 0.0
C132 C 0.75863 0.86671 0.22428 0.0
C133 C 0.75078 0.88065 0.22784 0.0
C134 C 0.69173 0.81146 0.24809 0.0
C135 C 0.67725 0.80271 0.24365 0.0
C136 C 0.69419 0.81665 0.26418 0.0
C137 C 0.6824 0.81333 0.27552 0.0
C138 C 0.66788 0.80468 0.27106 0.0
C139 C 0.66549 0.79934 0.255 0.0
C140 C 0.73416 0.87923 0.23016 0.0
H141 H 0.70377 0.76856 0.17283 0.0
H142 H 0.69804 0.78802 0.19416 0.0
H143 H 0.74866 0.7991 0.20237 0.0
H144 H 0.75445 0.77942 0.18124 0.0
H145 H 0.70136 0.79194 0.22373 0.0
H146 H 0.73665 0.82538 0.20426 0.0
H147 H 0.71005 0.8394 0.24557 0.0
H148 H 0.71279 0.86353 0.23082 0.0
H149 H 0.75656 0.84114 0.22088 0.0
H150 H 0.77146 0.86736 0.22267 0.0
H151 H 0.6749 0.79865 0.23134 0.0
H152 H 0.70528 0.82323 0.26806 0.0
H153 H 0.72773 0.88977 0.2327 0.0
H154 H 0.65453 0.79248 0.25118 0.0
H155 H 0.68459 0.81778 0.28774 0.0
C156 C 0.01568 0.96786 0.40108 0.0
C157 C 0.02065 0.97489 0.3869 0.0
C158 C 0.02691 0.9628 0.41175 0.0
C159 C 0.04335 0.96449 0.40836 0.0
C160 C 0.04822 0.97099 0.39383 0.0
C161 C 0.037 0.97623 0.38328 0.0
C162 C 0.0554 0.96046 0.42035 0.0
C163 C 0.05232 0.94738 0.43013 0.0
C164 C 0.06307 0.94443 0.44238 0.0
C165 C 0.07714 0.95453 0.4446 0.0
C166 C 0.08044 0.96757 0.43496 0.0
C167 C 0.0696 0.97041 0.42282 0.0
C168 C 0.09462 0.97892 0.43842 0.0
C169 C 0.09799 0.98475 0.45415 0.0
C170 C 0.10468 0.98419 0.4261 0.0
C171 C 0.11794 0.99505 0.42949 0.0
C172 C 0.12129 0.00095 0.44526 0.0
C173 C 0.05913 0.93176 0.45382 0.0
C174 C 0.04382 0.93005 0.46052 0.0
C175 C 0.07102 0.92234 0.45925 0.0
C176 C 0.06788 0.91198 0.47162 0.0
C177 C 0.05279 0.91085 0.47883 0.0
C178 C 0.04069 0.91971 0.47289 0.0
C179 C 0.11112 0.99568 0.45752 0.0
H180 H 0.00315 0.96682 0.40422 0.0
H181 H 0.0227 0.95813 0.42291 0.0
H182 H 0.06074 0.97218 0.39067 0.0
H183 H 0.04112 0.98141 0.37231 0.0
H184 H 0.0415 0.93953 0.42831 0.0
H185 H 0.07186 0.98092 0.41587 0.0
H186 H 0.08535 0.95257 0.45423 0.0
H187 H 0.09025 0.98112 0.46384 0.0
H188 H 0.10239 0.97979 0.41388 0.0
H189 H 0.12563 0.99871 0.41978 0.0
H190 H 0.03444 0.93723 0.45668 0.0
H191 H 0.08289 0.92329 0.4542 0.0
H192 H 0.11308 0.00025 0.46974 0.0
H193 H 0.02886 0.9189 0.47804 0.0
H194 H 0.07747 0.90535 0.47595 0.0
C195 C 0.17302 0.74778 0.76028 0.0
C196 C 0.16953 0.76356 0.75738 0.0
C197 C 0.18461 0.74488 0.77162 0.0
C198 C 0.19287 0.75768 0.78041 0.0
C199 C 0.18958 0.77344 0.77738 0.0
C200 C 0.1781 0.77635 0.76596 0.0
C201 C 0.2046 0.7546 0.793 0.0
C202 C 0.21604 0.74345 0.79014 0.0
C203 C 0.22714 0.74049 0.80206 0.0
C204 C 0.22662 0.74879 0.81701 0.0
C205 C 0.21517 0.75988 0.82013 0.0
C206 C 0.20424 0.76272 0.80802 0.0
C207 C 0.21451 0.76841 0.83607 0.0
C208 C 0.21677 0.76033 0.85012 0.0
C209 C 0.21154 0.78471 0.83734 0.0
C210 C 0.21089 0.79274 0.85229 0.0
C211 C 0.21328 0.78469 0.86634 0.0
C212 C 0.23922 0.72867 0.79898 0.0
C213 C 0.23487 0.71385 0.79093 0.0
C214 C 0.25513 0.73202 0.80427 0.0
C215 C 0.26638 0.72074 0.8017 0.0
C216 C 0.262 0.70585 0.79378 0.0
C217 C 0.24612 0.70257 0.78836 0.0
C218 C 0.2162 0.76837 0.86507 0.0
H219 H 0.1665 0.73762 0.75411 0.0
H220 H 0.18678 0.7326 0.77384 0.0
H221 H 0.19594 0.78355 0.78382 0.0
H222 H 0.17595 0.78866 0.76383 0.0
H223 H 0.21652 0.73733 0.77848 0.0
H224 H 0.1951 0.77095 0.81041 0.0
H225 H 0.23513 0.74655 0.82626 0.0
H226 H 0.21887 0.74772 0.84959 0.0
H227 H 0.20989 0.79135 0.82676 0.0
H228 H 0.20843 0.80525 0.85282 0.0
H229 H 0.22266 0.71082 0.7869 0.0
H230 H 0.25892 0.74343 0.81029 0.0
H231 H 0.21827 0.76184 0.87563 0.0
H232 H 0.24227 0.69112 0.78245 0.0
H233 H 0.27857 0.72374 0.80581 0.0
C234 C 0.95222 0.63805 0.47715 0.0
C235 C 0.94809 0.6384 0.49335 0.0
C236 C 0.9482 0.62434 0.46731 0.0
C237 C 0.94016 0.61067 0.47355 0.0
C238 C 0.93602 0.61114 0.48978 0.0
C239 C 0.93985 0.62487 0.49953 0.0
C240 C 0.93661 0.59572 0.46344 0.0
C241 C 0.94775 0.59061 0.45226 0.0
C242 C 0.94502 0.57587 0.44359 0.0
C243 C 0.93101 0.56608 0.4463 0.0
C244 C 0.91974 0.57097 0.45744 0.0
C245 C 0.92248 0.58596 0.46566 0.0
C246 C 0.90557 0.5601 0.46125 0.0
C247 C 0.89702 0.55073 0.44919 0.0
C248 C 0.90075 0.55874 0.47719 0.0
C249 C 0.88772 0.54829 0.48099 0.0
C250 C 0.87924 0.53887 0.46897 0.0
C251 C 0.95718 0.57044 0.43224 0.0
C252 C 0.96461 0.58117 0.42169 0.0
C253 C 0.96172 0.55464 0.43213 0.0
C254 C 0.97357 0.54972 0.42178 0.0
C255 C 0.98107 0.56048 0.41131 0.0
C256 C 0.97641 0.57624 0.41132 0.0
C257 C 0.88401 0.54018 0.45302 0.0
H258 H 0.95848 0.64839 0.47208 0.0
H259 H 0.95139 0.62448 0.45482 0.0
H260 H 0.93018 0.60074 0.49512 0.0
H261 H 0.93676 0.62474 0.51205 0.0
H262 H 0.95893 0.59778 0.45079 0.0
H263 H 0.9136 0.58998 0.47394 0.0
H264 H 0.92906 0.55452 0.43993 0.0
H265 H 0.90032 0.55163 0.43678 0.0
H266 H 0.90728 0.56549 0.48682 0.0
H267 H 0.88452 0.54732 0.49342 0.0
H268 H 0.96127 0.59339 0.42144 0.0
H269 H 0.95633 0.54615 0.44024 0.0
H270 H 0.87759 0.53314 0.44351 0.0
H271 H 0.98208 0.58486 0.4035 0.0
H272 H 0.97681 0.53746 0.42194 0.0
C273 C 0.79552 0.77956 0.8436 0.0
C274 C 0.781 0.77157 0.84804 0.0
C275 C 0.79626 0.78879 0.83016 0.0
C276 C 0.78252 0.79019 0.8208 0.0
C277 C 0.76796 0.78226 0.82529 0.0
C278 C 0.76721 0.77307 0.83879 0.0
C279 C 0.78346 0.7999 0.80641 0.0
C280 C 0.79669 0.79939 0.7963 0.0
C281 C 0.79826 0.80911 0.78312 0.0
C282 C 0.78608 0.81913 0.77986 0.0
C283 C 0.77259 0.81964 0.78969 0.0
C284 C 0.77142 0.81 0.80297 0.0
C285 C 0.76 0.83063 0.78642 0.0
C286 C 0.76419 0.84627 0.78167 0.0
C287 C 0.74373 0.8257 0.78832 0.0
C288 C 0.73195 0.83624 0.78571 0.0
C289 C 0.73618 0.8519 0.78109 0.0
C290 C 0.81281 0.80903 0.77307 0.0
C291 C 0.82791 0.80788 0.78012 0.0
C292 C 0.81178 0.8101 0.75641 0.0
C293 C 0.82551 0.80998 0.74706 0.0
C294 C 0.84059 0.80866 0.75412 0.0
C295 C 0.84159 0.8076 0.77077 0.0
C296 C 0.75242 0.85676 0.779 0.0
H297 H 0.80629 0.77886 0.85064 0.0
H298 H 0.8076 0.795 0.82723 0.0
H299 H 0.7572 0.78295 0.81823 0.0
H300 H 0.75588 0.7669 0.84182 0.0
H301 H 0.80575 0.79124 0.79862 0.0
H302 H 0.76139 0.81079 0.81097 0.0
H303 H 0.78718 0.82669 0.76973 0.0
H304 H 0.77661 0.85056 0.78038 0.0
H305 H 0.74009 0.81367 0.79175 0.0
H306 H 0.71952 0.8321 0.78726 0.0
H307 H 0.82922 0.8073 0.79293 0.0
H308 H 0.80034 0.81084 0.75055 0.0
H309 H 0.75608 0.86884 0.77572 0.0
H310 H 0.85293 0.80633 0.77663 0.0
H311 H 0.82429 0.81103 0.7343 0.0
C312 C 0.29509 0.28302 0.34597 0.0
C313 C 0.28031 0.27618 0.3512 0.0
C314 C 0.29596 0.29178 0.33221 0.0
C315 C 0.28212 0.2938 0.32321 0.0
C316 C 0.26732 0.28707 0.3285 0.0
C317 C 0.26642 0.27842 0.34236 0.0
C318 C 0.28319 0.30274 0.30829 0.0
C319 C 0.29615 0.30118 0.29797 0.0
C320 C 0.29761 0.30987 0.28407 0.0
C321 C 0.28561 0.31988 0.28026 0.0
C322 C 0.27246 0.32156 0.29035 0.0
C323 C 0.27141 0.31299 0.30438 0.0
C324 C 0.26006 0.3326 0.2865 0.0
C325 C 0.26441 0.34751 0.28009 0.0
C326 C 0.24381 0.32844 0.28944 0.0
C327 C 0.23224 0.33904 0.2863 0.0
C328 C 0.23662 0.35403 0.28006 0.0
C329 C 0.3119 0.30877 0.27383 0.0
C330 C 0.32717 0.30862 0.28081 0.0
C331 C 0.31047 0.30799 0.25709 0.0
C332 C 0.32402 0.30704 0.24756 0.0
C333 C 0.33926 0.3068 0.25458 0.0
C334 C 0.34068 0.30762 0.2713 0.0
C335 C 0.25284 0.35805 0.27685 0.0
H336 H 0.30607 0.28139 0.35234 0.0
H337 H 0.30754 0.29701 0.32866 0.0
H338 H 0.25643 0.28827 0.32181 0.0
H339 H 0.2548 0.27353 0.34614 0.0
H340 H 0.30508 0.29299 0.30063 0.0
H341 H 0.26167 0.3147 0.31254 0.0
H342 H 0.28662 0.32653 0.2695 0.0
H343 H 0.27682 0.35121 0.27785 0.0
H344 H 0.24 0.31696 0.29417 0.0
H345 H 0.21989 0.3356 0.28908 0.0
H346 H 0.32874 0.30952 0.29367 0.0
H347 H 0.29886 0.30789 0.25134 0.0
H348 H 0.25664 0.36939 0.27184 0.0
H349 H 0.35229 0.30773 0.27706 0.0
H350 H 0.32253 0.30624 0.2347 0.0
C351 C 0.44779 0.95836 0.63612 0.0
C352 C 0.46364 0.95438 0.63388 0.0
C353 C 0.4372 0.95813 0.6231 0.0
C354 C 0.44231 0.95395 0.60762 0.0
C355 C 0.4582 0.95016 0.60545 0.0
C356 C 0.4687 0.95033 0.61839 0.0
C357 C 0.4314 0.95369 0.59356 0.0
C358 C 0.42144 0.96614 0.59136 0.0
C359 C 0.41274 0.96681 0.57702 0.0
C360 C 0.41407 0.95479 0.56486 0.0
C361 C 0.42398 0.94228 0.56693 0.0
C362 C 0.43214 0.9416 0.5815 0.0
C363 C 0.42705 0.93062 0.5536 0.0
C364 C 0.41463 0.92364 0.54358 0.0
C365 C 0.44272 0.92638 0.55092 0.0
C366 C 0.44588 0.91507 0.53889 0.0
C367 C 0.43348 0.90778 0.52911 0.0
C368 C 0.40326 0.98071 0.5743 0.0
C369 C 0.39356 0.98682 0.58639 0.0
C370 C 0.40419 0.98824 0.55968 0.0
C371 C 0.39569 0.0016 0.55721 0.0
C372 C 0.38603 0.00776 0.56929 0.0
C373 C 0.385 0.00017 0.58389 0.0
C374 C 0.41783 0.91232 0.53139 0.0
H375 H 0.44357 0.96153 0.64794 0.0
H376 H 0.42501 0.96107 0.62514 0.0
H377 H 0.46268 0.94733 0.59365 0.0
H378 H 0.48094 0.94765 0.61618 0.0
H379 H 0.42117 0.97578 0.60042 0.0
H380 H 0.4395 0.93175 0.5833 0.0
H381 H 0.40777 0.95544 0.55361 0.0
H382 H 0.40243 0.92667 0.54536 0.0
H383 H 0.45265 0.93188 0.55809 0.0
H384 H 0.45811 0.91212 0.53715 0.0
H385 H 0.39255 0.98122 0.59775 0.0
H386 H 0.41172 0.98398 0.5502 0.0
H387 H 0.40805 0.90686 0.52399 0.0
H388 H 0.37774 0.00469 0.59347 0.0
H389 H 0.39658 0.00703 0.54575 0.0
C390 C 0.21514 0.27302 0.67969 0.0
C391 C 0.23093 0.27004 0.6757 0.0
C392 C 0.21211 0.28435 0.69185 0.0
C393 C 0.22479 0.29299 0.70027 0.0
C394 C 0.24057 0.28988 0.69644 0.0
C395 C 0.24361 0.27851 0.68431 0.0
C396 C 0.22157 0.30548 0.71276 0.0
C397 C 0.20934 0.30267 0.7239 0.0
C398 C 0.20612 0.31453 0.73562 0.0
C399 C 0.21519 0.32938 0.73599 0.0
C400 C 0.22748 0.33237 0.72499 0.0
C401 C 0.23063 0.32035 0.71346 0.0
C402 C 0.2371 0.34803 0.72561 0.0
C403 C 0.22961 0.36245 0.72714 0.0
C404 C 0.25386 0.34863 0.7249 0.0
C405 C 0.26297 0.36335 0.72597 0.0
C406 C 0.2555 0.37777 0.72761 0.0
C407 C 0.19336 0.31139 0.74756 0.0
C408 C 0.17855 0.30346 0.74291 0.0
C409 C 0.19588 0.31641 0.76368 0.0
C410 C 0.18383 0.31369 0.77487 0.0
C411 C 0.16897 0.30588 0.77021 0.0
C412 C 0.16649 0.30074 0.75411 0.0
C413 C 0.23872 0.37718 0.72804 0.0
H414 H 0.2051 0.26691 0.67314 0.0
H415 H 0.19983 0.28663 0.69439 0.0
H416 H 0.25059 0.29617 0.70288 0.0
H417 H 0.2559 0.27632 0.68173 0.0
H418 H 0.20259 0.29109 0.72369 0.0
H419 H 0.23989 0.32274 0.70474 0.0
H420 H 0.21273 0.33865 0.7449 0.0
H421 H 0.2167 0.36233 0.72758 0.0
H422 H 0.25994 0.33769 0.72381 0.0
H423 H 0.27588 0.36345 0.72547 0.0
H424 H 0.17615 0.29963 0.73055 0.0
H425 H 0.20726 0.32231 0.7677 0.0
H426 H 0.23266 0.38811 0.7294 0.0
H427 H 0.15509 0.2949 0.75008 0.0
H428 H 0.18621 0.31758 0.78722 0.0
C429 C 0.83362 0.25168 0.76667 0.0
C430 C 0.84358 0.23894 0.76665 0.0
C431 C 0.81952 0.25038 0.75757 0.0
C432 C 0.81503 0.23626 0.74838 0.0
C433 C 0.82509 0.2236 0.7482 0.0
C434 C 0.83924 0.22495 0.7572 0.0
C435 C 0.7997 0.23451 0.73934 0.0
C436 C 0.79507 0.24685 0.72998 0.0
C437 C 0.7806 0.24509 0.72126 0.0
C438 C 0.77069 0.23081 0.72215 0.0
C439 C 0.77518 0.21834 0.73144 0.0
C440 C 0.78967 0.22035 0.74002 0.0
C441 C 0.76483 0.20316 0.73216 0.0
C442 C 0.74815 0.20336 0.73343 0.0
C443 C 0.77165 0.18834 0.73183 0.0
C444 C 0.76205 0.17407 0.73303 0.0
C445 C 0.7454 0.17428 0.7345 0.0
C446 C 0.77612 0.25791 0.71079 0.0
C447 C 0.77893 0.27419 0.71569 0.0
C448 C 0.76925 0.25392 0.69565 0.0
C449 C 0.76543 0.26589 0.68558 0.0
C450 C 0.7685 0.28217 0.69034 0.0
C451 C 0.77518 0.28619 0.70557 0.0
C452 C 0.73852 0.18906 0.73456 0.0
H453 H 0.83675 0.26267 0.77372 0.0
H454 H 0.81195 0.26029 0.75799 0.0
H455 H 0.822 0.21263 0.7411 0.0
H456 H 0.84662 0.21489 0.75703 0.0
H457 H 0.80302 0.25761 0.72909 0.0
H458 H 0.79303 0.21097 0.74756 0.0
H459 H 0.75952 0.22932 0.71549 0.0
H460 H 0.74254 0.21458 0.73391 0.0
H461 H 0.78443 0.18775 0.73056 0.0
H462 H 0.76766 0.16285 0.7327 0.0
H463 H 0.78404 0.27769 0.72735 0.0
H464 H 0.76708 0.24151 0.6914 0.0
H465 H 0.72574 0.18961 0.73587 0.0
H466 H 0.77781 0.29861 0.70957 0.0
H467 H 0.76008 0.26235 0.67404 0.0
C468 C 0.57626 0.636 0.53499 0.0
C469 C 0.57236 0.65196 0.53734 0.0
C470 C 0.57817 0.62649 0.54799 0.0
C471 C 0.57628 0.63271 0.56369 0.0
C472 C 0.57285 0.64881 0.56607 0.0
C473 C 0.57092 0.65833 0.55304 0.0
C474 C 0.57709 0.62217 0.5774 0.0
C475 C 0.58841 0.61067 0.57769 0.0
C476 C 0.58832 0.59967 0.58983 0.0
C477 C 0.57702 0.60057 0.60204 0.0
C478 C 0.56554 0.61192 0.60197 0.0
C479 C 0.56575 0.62276 0.58966 0.0
C480 C 0.55256 0.61159 0.61399 0.0
C481 C 0.5452 0.59685 0.61849 0.0
C482 C 0.5471 0.62587 0.62069 0.0
C483 C 0.53457 0.62538 0.63165 0.0
C484 C 0.52729 0.6106 0.63616 0.0
C485 C 0.59904 0.58635 0.58902 0.0
C486 C 0.6011 0.5778 0.57445 0.0
C487 C 0.60649 0.58144 0.60285 0.0
C488 C 0.61551 0.56806 0.60214 0.0
C489 C 0.61718 0.55928 0.58762 0.0
C490 C 0.61006 0.56444 0.57376 0.0
C491 C 0.53277 0.59636 0.62945 0.0
H492 H 0.57764 0.63078 0.52306 0.0
H493 H 0.58064 0.6141 0.54569 0.0
H494 H 0.57148 0.65401 0.57801 0.0
H495 H 0.56778 0.67053 0.55528 0.0
H496 H 0.59724 0.61016 0.56834 0.0
H497 H 0.55652 0.63108 0.58914 0.0
H498 H 0.57679 0.59201 0.61134 0.0
H499 H 0.5488 0.58563 0.61327 0.0
H500 H 0.55259 0.63742 0.61755 0.0
H501 H 0.53067 0.63654 0.6367 0.0
H502 H 0.59539 0.58114 0.56361 0.0
H503 H 0.60521 0.58786 0.61423 0.0
H504 H 0.52719 0.58479 0.63241 0.0
H505 H 0.61133 0.55809 0.56234 0.0
H506 H 0.62083 0.56436 0.61304 0.0
C507 C 0.51334 0.4694 0.90645 0.0
C508 C 0.51756 0.47517 0.89146 0.0
C509 C 0.52499 0.46443 0.91669 0.0
C510 C 0.54113 0.4651 0.91217 0.0
C511 C 0.54529 0.4705 0.89702 0.0
C512 C 0.53364 0.47548 0.88678 0.0
C513 C 0.55368 0.46095 0.92352 0.0
C514 C 0.551 0.44785 0.9333 0.0
C515 C 0.56248 0.44454 0.94472 0.0
C516 C 0.57684 0.45432 0.94608 0.0
C517 C 0.57964 0.46761 0.93661 0.0
C518 C 0.56805 0.47075 0.92526 0.0
C519 C 0.59411 0.47886 0.93945 0.0
C520 C 0.59961 0.48288 0.95512 0.0
C521 C 0.60224 0.48603 0.92667 0.0
C522 C 0.61546 0.49707 0.92955 0.0
C523 C 0.62088 0.50104 0.94524 0.0
C524 C 0.55903 0.43187 0.95629 0.0
C525 C 0.54416 0.43044 0.96392 0.0
C526 C 0.57105 0.42219 0.96093 0.0
C527 C 0.5685 0.41188 0.97344 0.0
C528 C 0.55389 0.41103 0.98158 0.0
C529 C 0.54162 0.42013 0.97642 0.0
C530 C 0.61288 0.49376 0.95797 0.0
H531 H 0.50103 0.4688 0.91033 0.0
H532 H 0.5214 0.46049 0.92834 0.0
H533 H 0.55759 0.47101 0.89311 0.0
H534 H 0.53733 0.47998 0.87538 0.0
H535 H 0.53995 0.44025 0.9321 0.0
H536 H 0.56984 0.48133 0.91834 0.0
H537 H 0.58564 0.45192 0.95498 0.0
H538 H 0.59343 0.47792 0.96528 0.0
H539 H 0.59841 0.48308 0.91445 0.0
H540 H 0.62149 0.50246 0.91952 0.0
H541 H 0.5347 0.43781 0.96072 0.0
H542 H 0.58257 0.4229 0.95516 0.0
H543 H 0.61661 0.49683 0.9702 0.0
H544 H 0.53013 0.41953 0.98226 0.0
H545 H 0.57821 0.40506 0.97714 0.0
C546 C 0.67294 0.24335 0.25939 0.0
C547 C 0.66802 0.25875 0.25706 0.0
C548 C 0.68472 0.2411 0.27075 0.0
C549 C 0.69184 0.25418 0.28006 0.0
C550 C 0.68714 0.26962 0.27751 0.0
C551 C 0.67537 0.27187 0.26615 0.0
C552 C 0.70382 0.2517 0.29266 0.0
C553 C 0.71571 0.24101 0.28988 0.0
C554 C 0.72687 0.23841 0.30187 0.0
C555 C 0.72612 0.24678 0.31675 0.0
C556 C 0.7143 0.25752 0.31978 0.0
C557 C 0.70319 0.25983 0.30766 0.0
C558 C 0.71348 0.26624 0.33561 0.0
C559 C 0.71629 0.25856 0.34979 0.0
C560 C 0.70985 0.28237 0.33664 0.0
C561 C 0.7091 0.29061 0.35145 0.0
C562 C 0.71207 0.28299 0.36564 0.0
C563 C 0.73912 0.22672 0.29897 0.0
C564 C 0.73499 0.21188 0.29083 0.0
C565 C 0.75492 0.23013 0.30457 0.0
C566 C 0.76627 0.21889 0.30227 0.0
C567 C 0.76208 0.20397 0.29431 0.0
C568 C 0.74633 0.20066 0.28852 0.0
C569 C 0.71564 0.26685 0.36462 0.0
H570 H 0.66764 0.23301 0.25246 0.0
H571 H 0.68798 0.22904 0.27249 0.0
H572 H 0.69253 0.27997 0.28436 0.0
H573 H 0.67176 0.28387 0.26476 0.0
H574 H 0.71644 0.23492 0.27824 0.0
H575 H 0.69371 0.26767 0.31005 0.0
H576 H 0.7347 0.24486 0.32603 0.0
H577 H 0.7189 0.24609 0.34947 0.0
H578 H 0.70777 0.28872 0.32596 0.0
H579 H 0.7061 0.30296 0.35178 0.0
H580 H 0.7229 0.2088 0.28649 0.0
H581 H 0.75854 0.24152 0.31072 0.0
H582 H 0.71818 0.26064 0.37527 0.0
H583 H 0.74275 0.18938 0.28216 0.0
H584 H 0.77825 0.22178 0.307 0.0
C585 C 0.45451 0.13716 0.97691 0.0
C586 C 0.45346 0.13614 0.99356 0.0
C587 C 0.44923 0.12406 0.96674 0.0
C588 C 0.4427 0.10975 0.97303 0.0
C589 C 0.44151 0.10883 0.98967 0.0
C590 C 0.44682 0.12186 -0.00019 0.0
C591 C 0.43756 0.09559 0.96241 0.0
C592 C 0.44729 0.09082 0.9498 0.0
C593 C 0.4432 0.07663 0.94058 0.0
C594 C 0.42913 0.06724 0.94402 0.0
C595 C 0.4192 0.0719 0.95654 0.0
C596 C 0.42343 0.08621 0.96553 0.0
C597 C 0.40486 0.06147 0.96082 0.0
C598 C 0.39497 0.05336 0.94893 0.0
C599 C 0.40117 0.05931 0.97694 0.0
C600 C 0.3879 0.04933 0.98109 0.0
C601 C 0.37809 0.04116 0.96923 0.0
C602 C 0.45417 0.07119 0.928 0.0
C603 C 0.46135 0.08214 0.91752 0.0
C604 C 0.45804 0.05516 0.92683 0.0
C605 C 0.46911 0.05025 0.91562 0.0
C606 C 0.4765 0.06126 0.90532 0.0
C607 C 0.47238 0.07722 0.90628 0.0
C608 C 0.38174 0.04326 0.9531 0.0
H609 H 0.45964 0.14799 0.97177 0.0
H610 H 0.45022 0.12514 0.95396 0.0
H611 H 0.43672 0.0979 0.99489 0.0
H612 H 0.44566 0.12078 0.01258 0.0
H613 H 0.45847 0.09774 0.94766 0.0
H614 H 0.41572 0.09007 0.97505 0.0
H615 H 0.42611 0.05612 0.93713 0.0
H616 H 0.39737 0.05492 0.9364 0.0
H617 H 0.40872 0.06507 0.98641 0.0
H618 H 0.38553 0.04772 0.99362 0.0
H619 H 0.4585 0.09455 0.91808 0.0
H620 H 0.45283 0.04648 0.93486 0.0
H621 H 0.37428 0.0372 0.94371 0.0
H622 H 0.47798 0.08602 0.8986 0.0
H623 H 0.47193 0.03784 0.91505 0.0
O624 O 0.23545 0.88052 0.02017 0.0
Cd625 Cd 0.24461 0.8967 0.03785 0.0
Cd626 Cd 0.22171 0.91417 0.02702 0.0
O627 O 0.21531 0.89392 0.0127 0.0
O628 O 0.25802 0.88413 0.05136 0.0
O629 O 0.2364 0.89503 0.06026 0.0
C630 C 0.24825 0.88651 0.06287 0.0
C631 C 0.20291 0.92751 0.0417 0.0
C632 C 0.22319 0.88157 0.01142 0.0
C633 C 0.2556 0.92758 0.02342 0.0
O634 O 0.24098 0.92884 0.02008 0.0
O635 O 0.25968 0.91581 0.03111 0.0
O636 O 0.20346 0.92784 0.02636 0.0
O637 O 0.21265 0.91885 0.04876 0.0
O638 O 0.14175 0.52708 0.27298 0.0
Cd639 Cd 0.12724 0.50814 0.28109 0.0
Cd640 Cd 0.10586 0.51871 0.26088 0.0
O641 O 0.12484 0.53425 0.2549 0.0
O642 O 0.14154 0.49313 0.29033 0.0
O643 O 0.12644 0.48691 0.2688 0.0
C644 C 0.13685 0.48285 0.27899 0.0
C645 C 0.08898 0.50654 0.24089 0.0
C646 C 0.13842 0.53607 0.26183 0.0
C647 C 0.0979 0.51981 0.29585 0.0
O648 O 0.09435 0.52358 0.28186 0.0
O649 O 0.11052 0.51282 0.29833 0.0
O650 O 0.0891 0.52162 0.24472 0.0
O651 O 0.09904 0.49832 0.24803 0.0
O652 O 0.75746 0.6735 0.99192 0.0
Cd653 Cd 0.75021 0.65849 0.00969 0.0
Cd654 Cd 0.77366 0.64163 0.99801 0.0
O655 O 0.77867 0.66126 0.98437 0.0
O656 O 0.73709 0.67146 0.02423 0.0
O657 O 0.75994 0.6624 0.03166 0.0
C658 C 0.74786 0.67055 0.03512 0.0
C659 C 0.79337 0.63071 0.01273 0.0
C660 C 0.76973 0.67273 0.9832 0.0
C661 C 0.74029 0.62618 0.99465 0.0
O662 O 0.75484 0.62558 0.99074 0.0
O663 O 0.73593 0.63807 0.00304 0.0
O664 O 0.7928 0.62907 0.99737 0.0
O665 O 0.78308 0.63926 0.01978 0.0
O666 O 0.90396 0.03135 0.26939 0.0
Cd667 Cd 0.88925 0.03862 0.25182 0.0
Cd668 Cd 0.87273 0.04873 0.27684 0.0
O669 O 0.89251 0.0433 0.28977 0.0
O670 O 0.9024 0.03889 0.23217 0.0
O671 O 0.89378 0.06079 0.24388 0.0
C672 C 0.90197 0.05426 0.2327 0.0
C673 C 0.86287 0.07392 0.27988 0.0
C674 C 0.90361 0.03522 0.28421 0.0
C675 C 0.85691 0.02201 0.25569 0.0
O676 O 0.85656 0.03009 0.2689 0.0
O677 O 0.86866 0.02429 0.24635 0.0
O678 O 0.86049 0.06342 0.29054 0.0
O679 O 0.8713 0.07024 0.26759 0.0
O680 O 0.25796 0.17209 0.49168 0.0
Cd681 Cd 0.25213 0.15674 0.50968 0.0
Cd682 Cd 0.27547 0.14117 0.49633 0.0
O683 O 0.28016 0.1617 0.48401 0.0
O684 O 0.23863 0.16901 0.52447 0.0
O685 O 0.2622 0.1613 0.53146 0.0
C686 C 0.2497 0.16871 0.53516 0.0
C687 C 0.29518 0.1294 0.51025 0.0
C688 C 0.27039 0.17248 0.48307 0.0
C689 C 0.24259 0.12483 0.4938 0.0
O690 O 0.25669 0.12542 0.48831 0.0
O691 O 0.23855 0.13568 0.50372 0.0
O692 O 0.29457 0.12862 0.49486 0.0
O693 O 0.28498 0.13767 0.51781 0.0
O694 O 0.40314 0.5334 0.77252 0.0
Cd695 Cd 0.38869 0.54058 0.7546 0.0
Cd696 Cd 0.37097 0.54861 0.7795 0.0
O697 O 0.39028 0.54334 0.79307 0.0
O698 O 0.40258 0.54058 0.73548 0.0
O699 O 0.39346 0.56263 0.74628 0.0
C700 C 0.40208 0.55592 0.73558 0.0
C701 C 0.36037 0.57343 0.78217 0.0
C702 C 0.40203 0.53624 0.78748 0.0
C703 C 0.35681 0.52236 0.75702 0.0
O704 O 0.35584 0.52961 0.7706 0.0
O705 O 0.36861 0.52577 0.74804 0.0
O706 O 0.35767 0.56274 0.79262 0.0
O707 O 0.36956 0.57014 0.77034 0.0
O708 O 0.73604 0.37842 0.5201 0.0
Cd709 Cd 0.74521 0.39449 0.53788 0.0
Cd710 Cd 0.72287 0.41246 0.52688 0.0
O711 O 0.71622 0.39225 0.51261 0.0
O712 O 0.75761 0.38183 0.55227 0.0
O713 O 0.73605 0.39364 0.55996 0.0
C714 C 0.74749 0.38484 0.56331 0.0
C715 C 0.70391 0.42682 0.54029 0.0
C716 C 0.72387 0.37975 0.51129 0.0
C717 C 0.75715 0.42497 0.52347 0.0
O718 O 0.7426 0.42655 0.52008 0.0
O719 O 0.76092 0.41315 0.53124 0.0
O720 O 0.7052 0.42671 0.52498 0.0
O721 O 0.71296 0.41803 0.54806 0.0
O722 O 0.64191 0.02695 0.77337 0.0
Cd723 Cd 0.62677 0.00814 0.78076 0.0
Cd724 Cd 0.60734 0.01805 0.75859 0.0
O725 O 0.62713 0.0327 0.75292 0.0
O726 O 0.64044 0.99379 0.79189 0.0
O727 O 0.6274 0.98658 0.7693 0.0
C728 C 0.63702 0.98312 0.78051 0.0
C729 C 0.59211 0.00377 0.73862 0.0
C730 C 0.6399 0.03508 0.7612 0.0
C731 C 0.59653 0.02071 0.79252 0.0
O732 O 0.59443 0.02459 0.77825 0.0
O733 O 0.60849 0.01314 0.79613 0.0
O734 O 0.59221 0.01914 0.74047 0.0
O735 O 0.60125 0.99644 0.74781 0.0
O736 O 0.98839 0.28004 0.9154 0.0
Cd737 Cd 0.99589 0.26081 0.90207 0.0
Cd738 Cd 0.00752 0.28385 0.88324 0.0
O739 O -2e-05 0.2991 0.90124 0.0
O740 O 0.99486 0.24292 0.91685 0.0
O741 O 0.01752 0.2532 0.90681 0.0
C742 C 0.01023 0.24319 0.91608 0.0
C743 C 0.03298 0.28829 0.87253 0.0
C744 C 0.99166 0.29482 0.91315 0.0
C745 C 0.98132 0.26041 0.86957 0.0
O746 O 0.99025 0.27315 0.86776 0.0
O747 O 0.98211 0.25293 0.88235 0.0
O748 O 0.02174 0.29742 0.8696 0.0
O749 O 0.02989 0.27677 0.88203 0.0
O750 O 0.4877 0.78027 0.4152 0.0
Cd751 Cd 0.49537 0.76131 0.40152 0.0
Cd752 Cd 0.5076 0.78477 0.38381 0.0
O753 O 0.50033 0.79964 0.40222 0.0
O754 O 0.49394 0.74297 0.41578 0.0
O755 O 0.51685 0.75353 0.40653 0.0
C756 C 0.50932 0.74327 0.41538 0.0
C757 C 0.53355 0.78787 0.37407 0.0
C758 C 0.4915 0.7951 0.41367 0.0
C759 C 0.48139 0.7623 0.36889 0.0
O760 O 0.49024 0.77523 0.36784 0.0
O761 O 0.48218 0.7541 0.3812 0.0
O762 O 0.52315 0.7979 0.37107 0.0
O763 O 0.52931 0.7762 0.38306 0.0
O764 O 0.98807 0.78113 0.659 0.0
Cd765 Cd 0.0068 0.77433 0.64496 0.0
Cd766 Cd 0.9959 0.79631 0.62558 0.0
O767 O 0.98134 0.80092 0.64456 0.0
O768 O 0.02055 0.76286 0.65921 0.0
O769 O 0.02866 0.78571 0.64852 0.0
C770 C 0.03162 0.77422 0.65759 0.0
C771 C 0.00747 0.81746 0.61144 0.0
C772 C 0.97945 0.79268 0.65683 0.0
C773 C 0.99408 0.76203 0.61297 0.0
O774 O 0.98993 0.7761 0.61131 0.0
O775 O 0.0018 0.7588 0.62535 0.0
O776 O 0.99229 0.81367 0.61101 0.0
O777 O 0.01618 0.80964 0.62059 0.0
O778 O 0.48636 0.27994 0.15898 0.0
Cd779 Cd 0.5054 0.27332 0.14537 0.0
Cd780 Cd 0.49488 0.2955 0.12597 0.0
O781 O 0.47973 0.29982 0.14463 0.0
O782 O 0.51863 0.2617 0.15996 0.0
O783 O 0.52731 0.28444 0.14941 0.0
C784 C 0.5299 0.27291 0.15856 0.0
C785 C 0.50714 0.31676 0.1125 0.0
C786 C 0.47768 0.29142 0.15678 0.0
C787 C 0.49364 0.26129 0.11299 0.0
O788 O 0.48963 0.27541 0.11124 0.0
O789 O 0.50078 0.25792 0.12565 0.0
O790 O 0.49196 0.31308 0.11148 0.0
O791 O 0.51542 0.30879 0.12193 0.0
H792 H 0.2255 0.81529 0.87452 0.0
H793 H 0.22521 0.82947 0.9006 0.0
H794 H 0.20078 0.78786 0.92046 0.0
H795 H 0.20036 0.77377 0.89418 0.0
H796 H 0.18807 0.81584 0.93055 0.0
H797 H 0.25393 0.82166 0.93808 0.0
H798 H 0.24753 0.82972 0.91988 0.0
H799 H 0.24391 0.80859 0.92278 0.0
C800 C 0.21989 0.80919 0.88436 0.0
C801 C 0.213 0.79335 0.88224 0.0
C802 C 0.21992 0.81725 0.89932 0.0
C803 C 0.21326 0.80961 0.91253 0.0
C804 C 0.20612 0.79392 0.91044 0.0
H805 H 0.23435 0.85182 0.00801 0.0
H806 H 0.23015 0.83252 0.98531 0.0
C807 C 0.20601 0.78585 0.89544 0.0
C808 C 0.21372 0.81808 0.92847 0.0
H809 H 0.23923 0.83801 0.95582 0.0
C810 C 0.19925 0.82057 0.93618 0.0
C811 C 0.22833 0.82395 0.93594 0.0
C812 C 0.24431 0.82071 0.92883 0.0
C813 C 0.19898 0.82932 0.95088 0.0
C814 C 0.21356 0.83601 0.95786 0.0
C815 C 0.22804 0.83301 0.95041 0.0
C816 C 0.21421 0.84665 0.97256 0.0
C817 C 0.1831 0.83122 0.9588 0.0
C818 C 0.2064 0.86089 0.97309 0.0
C819 C 0.20864 0.87189 0.98614 0.0
C820 C 0.21897 0.86898 0.99877 0.0
C821 C 0.22636 0.85446 0.99845 0.0
C822 C 0.22398 0.84341 0.98548 0.0
H823 H 0.17411 0.8213 0.95496 0.0
H824 H 0.18428 0.83154 0.97202 0.0
H825 H 0.17849 0.84262 0.95532 0.0
H826 H 0.19912 0.86386 0.96311 0.0
H827 H 0.20287 0.883 0.98596 0.0
H828 H 0.98514 0.56699 0.37992 0.0
H829 H 0.00659 0.55921 0.36229 0.0
H830 H 0.0273 0.53478 0.40053 0.0
H831 H 0.00589 0.54257 0.41829 0.0
H832 H 0.03965 0.56678 0.3669 0.0
H833 H 0.02429 0.50084 0.36328 0.0
H834 H 0.01044 0.51489 0.37051 0.0
H835 H 0.02658 0.50998 0.38308 0.0
C836 C 0.99428 0.55999 0.38459 0.0
C837 C 0.99382 0.55537 0.40049 0.0
C838 C 0.00648 0.55551 0.3745 0.0
C839 C 0.0184 0.54628 0.38007 0.0
C840 C 0.01801 0.54164 0.39592 0.0
H841 H 0.1 0.51177 0.32714 0.0
H842 H 0.08188 0.51834 0.34893 0.0
C843 C 0.00578 0.54609 0.40604 0.0
C844 C 0.03148 0.542 0.36934 0.0
H845 H 0.04745 0.51042 0.34977 0.0
C846 C 0.04141 0.55446 0.36321 0.0
C847 C 0.03378 0.5259 0.36467 0.0
C848 C 0.02316 0.5121 0.3706 0.0
C849 C 0.05344 0.55127 0.35228 0.0
C850 C 0.05543 0.53521 0.34722 0.0
C851 C 0.04586 0.52271 0.35373 0.0
C852 C 0.06651 0.53129 0.33426 0.0
C853 C 0.06387 0.56509 0.34612 0.0
C854 C 0.06368 0.53623 0.31885 0.0
C855 C 0.0739 0.53249 0.30643 0.0
C856 C 0.08717 0.52368 0.30918 0.0
C857 C 0.08993 0.51863 0.32465 0.0
C858 C 0.0796 0.52234 0.33709 0.0
H859 H 0.06382 0.57597 0.35424 0.0
H860 H 0.0764 0.56191 0.34465 0.0
H861 H 0.05927 0.5681 0.33428 0.0
H862 H 0.05346 0.54291 0.31639 0.0
H863 H 0.07137 0.53653 0.29467 0.0
H864 H 0.8022 0.75042 0.85702 0.0
H865 H 0.80107 0.73422 0.88058 0.0
H866 H 0.75729 0.75435 0.89485 0.0
H867 H 0.7583 0.77054 0.8713 0.0
H868 H 0.80088 0.7438 0.91268 0.0
H869 H 0.74538 0.70629 0.89547 0.0
H870 H 0.75637 0.71864 0.88157 0.0
H871 H 0.74317 0.72744 0.89569 0.0
C872 C 0.79236 0.75143 0.86522 0.0
C873 C 0.78029 0.76169 0.86228 0.0
C874 C 0.79172 0.74214 0.87863 0.0
C875 C 0.77898 0.74291 0.88932 0.0
C876 C 0.76703 0.7533 0.88655 0.0
H877 H 0.75228 0.69788 0.97669 0.0
H878 H 0.75566 0.71564 0.9545 0.0
C879 C 0.76762 0.76254 0.8731 0.0
C880 C 0.77831 0.73299 0.90348 0.0
H881 H 0.75518 0.70411 0.92184 0.0
C882 C 0.79093 0.73506 0.91466 0.0
C883 C 0.76535 0.72157 0.90598 0.0
C884 C 0.75186 0.71821 0.89398 0.0
C885 C 0.79075 0.72623 0.92849 0.0
C886 C 0.77769 0.71498 0.93107 0.0
C887 C 0.76513 0.71285 0.91985 0.0
C888 C 0.77673 0.70521 0.9453 0.0
C889 C 0.80435 0.72922 0.94039 0.0
C890 C 0.78758 0.69358 0.94755 0.0
C891 C 0.78569 0.68337 0.96023 0.0
C892 C 0.77285 0.68458 0.97082 0.0
C893 C 0.7623 0.69659 0.96877 0.0
C894 C 0.76418 0.70675 0.95609 0.0
H895 H 0.81164 0.7406 0.93841 0.0
H896 H 0.79977 0.72965 0.95279 0.0
H897 H 0.81228 0.71924 0.93921 0.0
H898 H 0.79721 0.69207 0.9392 0.0
H899 H 0.794 0.67423 0.96143 0.0
H900 H 0.02251 0.00432 0.37425 0.0
H901 H 0.00264 0.01564 0.35755 0.0
H902 H 0.97261 0.97143 0.35849 0.0
H903 H 0.99226 0.96025 0.37563 0.0
H904 H 0.99139 0.0072 0.32878 0.0
H905 H 0.94114 0.00312 0.3712 0.0
H906 H 0.96133 -0.00019 0.37696 0.0
H907 H 0.94876 0.984 0.36684 0.0
C908 C 0.01167 0.99702 0.37086 0.0
C909 C 0.00887 0.98144 0.37627 0.0
C910 C 0.00031 0.00351 0.36136 0.0
C911 C 0.98597 0.99452 0.35702 0.0
C912 C 0.98334 0.97879 0.36209 0.0
H913 H 0.92464 0.01259 0.27775 0.0
H914 H 0.94473 0.00344 0.29558 0.0
C915 C 0.99461 0.97237 0.37178 0.0
C916 C 0.974 0.00148 0.34685 0.0
H917 H 0.93455 0.00854 0.34433 0.0
C918 C 0.97898 0.00759 0.33224 0.0
C919 C 0.95788 0.00231 0.35149 0.0
C920 C 0.95199 0.99712 0.36756 0.0
C921 C 0.96823 0.01415 0.32198 0.0
C922 C 0.95192 0.01412 0.32621 0.0
C923 C 0.94701 0.00838 0.34099 0.0
C924 C 0.9397 0.01977 0.31538 0.0
C925 C 0.97456 0.02128 0.30686 0.0
C926 C 0.92976 0.03161 0.32074 0.0
C927 C 0.918 0.03666 0.31065 0.0
C928 C 0.91604 0.03001 0.29497 0.0
C929 C 0.92597 0.01811 0.28968 0.0
C930 C 0.93756 0.01293 0.29983 0.0
H931 H 0.98751 0.02514 0.30798 0.0
H932 H 0.97306 0.01208 0.29688 0.0
H933 H 0.96805 0.03176 0.30373 0.0
H934 H 0.93113 0.03698 0.33274 0.0
H935 H 0.91053 0.04584 0.31509 0.0
H936 H 0.25425 0.27303 0.65308 0.0
H937 H 0.25881 0.25455 0.63042 0.0
H938 H 0.21918 0.22273 0.64487 0.0
H939 H 0.2149 0.24084 0.66794 0.0
H940 H 0.2459 0.20671 0.63524 0.0
H941 H 0.22966 0.25001 0.59089 0.0
H942 H 0.24543 0.25754 0.60448 0.0
H943 H 0.22565 0.2528 0.61191 0.0
C944 C 0.24665 0.26199 0.6516 0.0
C945 C 0.23414 0.25848 0.66229 0.0
C946 C 0.24917 0.25153 0.63854 0.0
C947 C 0.23916 0.23742 0.63582 0.0
C948 C 0.22697 0.23362 0.6467 0.0
H949 H 0.22369 0.18271 0.54681 0.0
H950 H 0.22155 0.19833 0.57189 0.0
C951 C 0.22446 0.24405 0.6598 0.0
C952 C 0.24111 0.22683 0.62141 0.0
H953 H 0.2396 0.22596 0.5807 0.0
C954 C 0.24454 0.21089 0.6233 0.0
C955 C 0.23911 0.23229 0.60587 0.0
C956 C 0.23461 0.24904 0.6031 0.0
C957 C 0.24612 0.20025 0.61003 0.0
C958 C 0.24445 0.20582 0.59449 0.0
C959 C 0.24098 0.22176 0.59263 0.0
C960 C 0.24563 0.19526 0.57991 0.0
C961 C 0.24918 0.18308 0.61274 0.0
C962 C 0.25987 0.18821 0.57614 0.0
C963 C 0.26112 0.17916 0.56178 0.0
C964 C 0.24819 0.17717 0.55091 0.0
C965 C 0.23389 0.18404 0.55488 0.0
C966 C 0.23264 0.19298 0.56922 0.0
H967 H 0.24627 0.17978 0.62513 0.0
H968 H 0.24204 0.17472 0.60427 0.0
H969 H 0.26202 0.18143 0.61075 0.0
H970 H 0.27015 0.19006 0.58408 0.0
H971 H 0.27232 0.1741 0.55901 0.0
H972 H 0.52276 0.59076 0.66086 0.0
H973 H 0.49931 0.58734 0.67782 0.0
H974 H 0.47802 0.62544 0.65462 0.0
H975 H 0.50136 0.62866 0.63724 0.0
H976 H 0.4845 0.60889 0.699 0.0
H977 H 0.44491 0.58646 0.64779 0.0
H978 H 0.46642 0.58824 0.64629 0.0
H979 H 0.45551 0.60583 0.64627 0.0
C980 C 0.5131 0.59842 0.65936 0.0
C981 C 0.51382 0.60982 0.64756 0.0
C982 C 0.49977 0.59654 0.66914 0.0
C983 C 0.48685 0.60599 0.66732 0.0
C984 C 0.48778 0.61788 0.65605 0.0
H985 H 0.40765 0.58868 0.73528 0.0
H986 H 0.4265 0.60385 0.71828 0.0
C987 C 0.50117 0.61979 0.64624 0.0
C988 C 0.47219 0.60259 0.67672 0.0
H989 H 0.434 0.58529 0.6734 0.0
C990 C 0.47334 0.60401 0.69344 0.0
C991 C 0.45772 0.59612 0.66937 0.0
C992 C 0.45598 0.59394 0.65145 0.0
C993 C 0.46062 0.59845 0.70304 0.0
C994 C 0.44634 0.59148 0.69568 0.0
C995 C 0.44494 0.59075 0.67897 0.0
C996 C 0.4337 0.58289 0.70497 0.0
C997 C 0.4629 0.59918 0.72094 0.0
C998 C 0.43112 0.56619 0.7027 0.0
C999 C 0.4204 0.55755 0.7123 0.0
C1000 C 0.41196 0.56543 0.72434 0.0
C1001 C 0.41401 0.58226 0.72614 0.0
C1002 C 0.42482 0.59093 0.71651 0.0
H1003 H 0.47547 0.60285 0.72457 0.0
H1004 H 0.45513 0.60801 0.72643 0.0
H1005 H 0.4594 0.58733 0.72581 0.0
H1006 H 0.43783 0.55976 0.69384 0.0
H1007 H 0.41905 0.54461 0.71053 0.0
H1008 H 0.77342 0.28205 0.65815 0.0
H1009 H 0.76754 0.30257 0.63976 0.0
H1010 H 0.7505 0.33176 0.67879 0.0
H1011 H 0.75598 0.31105 0.69736 0.0
H1012 H 0.73594 0.31587 0.63552 0.0
H1013 H 0.78567 0.36086 0.65488 0.0
H1014 H 0.78607 0.33985 0.65871 0.0
H1015 H 0.77305 0.35201 0.66994 0.0
C1016 C 0.76824 0.29273 0.66285 0.0
C1017 C 0.76509 0.29485 0.67925 0.0
C1018 C 0.76499 0.30448 0.65233 0.0
C1019 C 0.75866 0.31866 0.65796 0.0
C1020 C 0.75553 0.32093 0.67428 0.0
H1021 H 0.72568 0.38432 0.58758 0.0
H1022 H 0.7271 0.37025 0.61253 0.0
C1023 C 0.75872 0.30911 0.68485 0.0
C1024 C 0.75532 0.3309 0.64653 0.0
H1025 H 0.77016 0.36673 0.63276 0.0
C1026 C 0.74321 0.32713 0.63504 0.0
C1027 C 0.76493 0.34549 0.64597 0.0
C1028 C 0.77824 0.34988 0.65795 0.0
C1029 C 0.74081 0.33734 0.62261 0.0
C1030 C 0.75074 0.35172 0.62176 0.0
C1031 C 0.76251 0.35574 0.63356 0.0
C1032 C 0.75032 0.36166 0.60768 0.0
C1033 C 0.72825 0.3323 0.61 0.0
C1034 C 0.76308 0.36181 0.59698 0.0
C1035 C 0.7623 0.36974 0.58278 0.0
C1036 C 0.74876 0.37778 0.57905 0.0
C1037 C 0.73625 0.37819 0.59011 0.0
C1038 C 0.73701 0.37014 0.60432 0.0
H1039 H 0.72298 0.31985 0.61132 0.0
H1040 H 0.71848 0.34049 0.6109 0.0
H1041 H 0.73345 0.33316 0.5979 0.0
H1042 H 0.77345 0.35532 0.59938 0.0
H1043 H 0.77219 0.36927 0.57458 0.0
H1044 H 0.48566 0.93304 0.64002 0.0
H1045 H 0.50758 0.93645 0.65957 0.0
H1046 H 0.49002 0.98079 0.67759 0.0
H1047 H 0.46817 0.97757 0.65795 0.0
H1048 H 0.5302 0.96283 0.65966 0.0
H1049 H 0.50085 0.95827 0.71849 0.0
H1050 H 0.49118 0.9506 0.70006 0.0
H1051 H 0.49191 0.97165 0.70559 0.0
C1052 C 0.48636 0.94342 0.64829 0.0
C1053 C 0.47528 0.95512 0.64736 0.0
C1054 C 0.49883 0.9453 0.65949 0.0
C1055 C 0.50035 0.9588 0.67008 0.0
C1056 C 0.48888 0.97012 0.66972 0.0
H1057 H 0.5769 0.01582 0.71372 0.0
H1058 H 0.55581 0.00223 0.69666 0.0
C1059 C 0.4764 0.96827 0.65848 0.0
C1060 C 0.51488 0.96204 0.68018 0.0
H1061 H 0.52763 0.97078 0.71857 0.0
C1062 C 0.52968 0.96431 0.67256 0.0
C1063 C 0.51418 0.96382 0.697 0.0
C1064 C 0.4987 0.96081 0.70581 0.0
C1065 C 0.54369 0.96915 0.68128 0.0
C1066 C 0.54283 0.97182 0.69798 0.0
C1067 C 0.5282 0.96875 0.70571 0.0
C1068 C 0.5566 0.97933 0.7074 0.0
C1069 C 0.55926 0.97179 0.67254 0.0
C1070 C 0.5641 0.97085 0.71896 0.0
C1071 C 0.57631 0.97856 0.72865 0.0
C1072 C 0.58092 0.99492 0.72707 0.0
C1073 C 0.5736 0.00322 0.71521 0.0
C1074 C 0.56159 0.99547 0.70544 0.0
H1075 H 0.55872 0.96561 0.6605 0.0
H1076 H 0.56192 0.98482 0.67105 0.0
H1077 H 0.56927 0.96746 0.67945 0.0
H1078 H 0.56032 0.95839 0.72065 0.0
H1079 H 0.58166 0.97191 0.73777 0.0
H1080 H 0.87331 0.23035 0.7583 0.0
H1081 H 0.89748 0.23218 0.77503 0.0
H1082 H 0.87114 0.25172 0.8144 0.0
H1083 H 0.84699 0.25009 0.79769 0.0
H1084 H 0.89939 0.26871 0.81022 0.0
H1085 H 0.90863 0.20388 0.81076 0.0
H1086 H 0.90739 0.21121 0.79106 0.0
H1087 H 0.89026 0.21119 0.80383 0.0
C1088 C 0.87266 0.23491 0.77057 0.0
C1089 C 0.85827 0.24007 0.7767 0.0
C1090 C 0.88645 0.23588 0.78013 0.0
C1091 C 0.88603 0.24182 0.79604 0.0
C1092 C 0.8717 0.24704 0.80216 0.0
H1093 H 0.95575 0.23828 0.87211 0.0
H1094 H 0.93317 0.23301 0.85347 0.0
C1095 C 0.85795 0.24618 0.79259 0.0
C1096 C 0.90067 0.24327 0.80616 0.0
H1097 H 0.92965 0.22193 0.82173 0.0
C1098 C 0.90599 0.25848 0.81276 0.0
C1099 C 0.90914 0.22986 0.80961 0.0
C1100 C 0.9035 0.21309 0.80358 0.0
C1101 C 0.91961 0.2607 0.82262 0.0
C1102 C 0.9284 0.24739 0.82564 0.0
C1103 C 0.92301 0.23214 0.8192 0.0
C1104 C 0.94291 0.24911 0.83593 0.0
C1105 C 0.92423 0.27722 0.83003 0.0
C1106 C 0.95612 0.25939 0.83192 0.0
C1107 C 0.96897 0.26253 0.84258 0.0
C1108 C 0.96892 0.25525 0.85736 0.0
C1109 C 0.95614 0.24412 0.86086 0.0
C1110 C 0.94322 0.24109 0.85023 0.0
H1111 H 0.91408 0.28498 0.82993 0.0
H1112 H 0.92843 0.27656 0.84255 0.0
H1113 H 0.9341 0.28304 0.8231 0.0
H1114 H 0.95628 0.26539 0.82076 0.0
H1115 H 0.97872 0.27101 0.83943 0.0
H1116 H 0.45176 0.88268 0.53232 0.0
H1117 H 0.46025 0.86405 0.51134 0.0
H1118 H 0.43211 0.88638 0.47677 0.0
H1119 H 0.42348 0.90514 0.49782 0.0
H1120 H 0.43004 0.85237 0.4736 0.0
H1121 H 0.49295 0.87819 0.47747 0.0
H1122 H 0.48508 0.87216 0.4963 0.0
H1123 H 0.47665 0.88816 0.48639 0.0
C1124 C 0.44736 0.88362 0.52025 0.0
C1125 C 0.43714 0.8955 0.51664 0.0
C1126 C 0.45224 0.87299 0.50829 0.0
C1127 C 0.4471 0.87411 0.49247 0.0
C1128 C 0.43629 0.88544 0.48892 0.0
H1129 H 0.49477 0.82784 0.41259 0.0
H1130 H 0.48318 0.84747 0.43069 0.0
C1131 C 0.43134 0.89608 0.50093 0.0
C1132 C 0.45339 0.86362 0.47969 0.0
H1133 H 0.48818 0.85322 0.4627 0.0
C1134 C 0.44273 0.85262 0.47109 0.0
C1135 C 0.46991 0.86419 0.47628 0.0
C1136 C 0.48181 0.87642 0.48447 0.0
C1137 C 0.44825 0.84172 0.45956 0.0
C1138 C 0.46488 0.84171 0.45679 0.0
C1139 C 0.47546 0.85312 0.46498 0.0
C1140 C 0.47164 0.82978 0.44568 0.0
C1141 C 0.43624 0.83037 0.45041 0.0
C1142 C 0.46923 0.81335 0.4483 0.0
C1143 C 0.47581 0.80211 0.43798 0.0
C1144 C 0.48507 0.80709 0.42493 0.0
C1145 C 0.4877 0.82359 0.42252 0.0
C1146 C 0.48106 0.83483 0.43282 0.0
H1147 H 0.42417 0.83498 0.45045 0.0
H1148 H 0.43996 0.82834 0.43784 0.0
H1149 H 0.43529 0.81866 0.45612 0.0
H1150 H 0.46236 0.80922 0.4584 0.0
H1151 H 0.47363 0.78951 0.44026 0.0
H1152 H 0.14837 0.27915 0.77322 0.0
H1153 H 0.12636 0.27549 0.79204 0.0
H1154 H 0.13828 0.32305 0.81284 0.0
H1155 H 0.16023 0.32688 0.794 0.0
H1156 H 0.13174 0.29931 0.83558 0.0
H1157 H 0.08448 0.29782 0.78863 0.0
H1158 H 0.09927 0.28367 0.78525 0.0
H1159 H 0.10501 0.30479 0.78511 0.0
C1160 C 0.14625 0.28887 0.78174 0.0
C1161 C 0.15599 0.30335 0.78203 0.0
C1162 C 0.1337 0.28674 0.7925 0.0
C1163 C 0.13059 0.29908 0.80369 0.0
C1164 C 0.1405 0.31339 0.80429 0.0
H1165 H 0.04303 0.31247 0.85352 0.0
H1166 H 0.06753 0.31503 0.83803 0.0
C1167 C 0.15306 0.31553 0.79355 0.0
C1168 C 0.11676 0.29725 0.81452 0.0
H1169 H 0.07598 0.29262 0.8148 0.0
C1170 C 0.11954 0.29782 0.83107 0.0
C1171 C 0.10087 0.2955 0.80857 0.0
C1172 C 0.09715 0.29554 0.79093 0.0
C1173 C 0.1068 0.2966 0.84187 0.0
C1174 C 0.09093 0.2946 0.83589 0.0
C1175 C 0.08818 0.29406 0.81934 0.0
C1176 C 0.07688 0.2936 0.84652 0.0
C1177 C 0.11039 0.29784 0.85955 0.0
C1178 C 0.07409 0.28078 0.8566 0.0
C1179 C 0.06007 0.2793 0.86555 0.0
C1180 C 0.04856 0.29056 0.86445 0.0
C1181 C 0.05162 0.30358 0.85463 0.0
C1182 C 0.06561 0.30506 0.84575 0.0
H1183 H 0.12281 0.30296 0.86218 0.0
H1184 H 0.10194 0.3054 0.86594 0.0
H1185 H 0.10899 0.28569 0.86434 0.0
H1186 H 0.08252 0.27167 0.85717 0.0
H1187 H 0.05802 0.2691 0.87294 0.0
H1188 H 0.58119 0.68376 0.53321 0.0
H1189 H 0.57367 0.69992 0.51115 0.0
H1190 H 0.54832 0.6582 0.48812 0.0
H1191 H 0.55561 0.64202 0.5101 0.0
H1192 H 0.56705 0.67771 0.46701 0.0
H1193 H 0.52739 0.71265 0.5058 0.0
H1194 H 0.54777 0.7126 0.51253 0.0
H1195 H 0.53505 0.6943 0.51182 0.0
C1196 C 0.57401 0.67803 0.52345 0.0
C1197 C 0.56892 0.66162 0.52347 0.0
C1198 C 0.56977 0.68727 0.51085 0.0
C1199 C 0.5603 0.68027 0.49811 0.0
C1200 C 0.55567 0.66381 0.49783 0.0
H1201 H 0.4964 0.7201 0.4342 0.0
H1202 H 0.51022 0.70484 0.4533 0.0
C1203 C 0.5599 0.65457 0.51039 0.0
C1204 C 0.55446 0.69016 0.48546 0.0
H1205 H 0.52921 0.71924 0.47889 0.0
C1206 C 0.55887 0.68689 0.46958 0.0
C1207 C 0.54367 0.70199 0.48888 0.0
C1208 C 0.53805 0.70557 0.50565 0.0
C1209 C 0.55262 0.69506 0.45698 0.0
C1210 C 0.54179 0.70682 0.46043 0.0
C1211 C 0.53758 0.71024 0.47632 0.0
C1212 C 0.53387 0.71513 0.44773 0.0
C1213 C 0.5572 0.69068 0.44006 0.0
C1214 C 0.54264 0.72583 0.43809 0.0
C1215 C 0.53475 0.73459 0.42708 0.0
C1216 C 0.51797 0.73284 0.42563 0.0
C1217 C 0.50932 0.72177 0.43501 0.0
C1218 C 0.5172 0.71304 0.44596 0.0
H1219 H 0.56333 0.67939 0.43921 0.0
H1220 H 0.54646 0.68931 0.43215 0.0
H1221 H 0.56544 0.70044 0.43557 0.0
H1222 H 0.5555 0.72777 0.43943 0.0
H1223 H 0.54173 0.74309 0.42008 0.0
H1224 H 0.87085 0.82211 0.76132 0.0
H1225 H 0.89502 0.8201 0.74559 0.0
H1226 H 0.86761 0.79291 0.70838 0.0
H1227 H 0.84355 0.79395 0.72446 0.0
H1228 H 0.89443 0.77947 0.71454 0.0
H1229 H 0.90883 0.84441 0.70737 0.0
H1230 H 0.90735 0.83945 0.72791 0.0
H1231 H 0.88995 0.83652 0.71509 0.0
C1232 C 0.86995 0.81558 0.74985 0.0
C1233 C 0.8552 0.80819 0.74419 0.0
C1234 C 0.88376 0.81466 0.74075 0.0
C1235 C 0.88308 0.80662 0.72567 0.0
C1236 C 0.86839 0.79929 0.71994 0.0
H1237 H 0.95493 0.81165 0.65251 0.0
H1238 H 0.93205 0.81502 0.6698 0.0
C1239 C 0.8546 0.80003 0.7291 0.0
C1240 C 0.89776 0.80526 0.71611 0.0
H1241 H 0.9289 0.82714 0.69952 0.0
C1242 C 0.90194 0.7899 0.7112 0.0
C1243 C 0.90745 0.81888 0.71162 0.0
C1244 C 0.9031 0.83575 0.71563 0.0
C1245 C 0.91555 0.78775 0.70196 0.0
C1246 C 0.92555 0.80135 0.69795 0.0
C1247 C 0.92134 0.81672 0.7028 0.0
C1248 C 0.93998 0.79991 0.68803 0.0
C1249 C 0.91877 0.77096 0.6962 0.0
C1250 C 0.95227 0.79063 0.69272 0.0
C1251 C 0.96531 0.78852 0.68275 0.0
C1252 C 0.96642 0.7959 0.66805 0.0
C1253 C 0.95445 0.80578 0.66374 0.0
C1254 C 0.94134 0.80772 0.67362 0.0
H1255 H 0.90783 0.7626 0.6965 0.0
H1256 H 0.92339 0.77076 0.68383 0.0
H1257 H 0.92787 0.76641 0.70411 0.0
H1258 H 0.9517 0.78487 0.70401 0.0
H1259 H 0.97442 0.78097 0.68649 0.0
H1260 H 0.06225 0.88085 0.48389 0.0
H1261 H 0.05769 0.86522 0.50764 0.0
H1262 H 0.03231 0.90324 0.52951 0.0
H1263 H 0.03715 0.91909 0.50606 0.0
H1264 H 0.05497 0.89013 0.55012 0.0
H1265 H 0.01337 0.84349 0.51898 0.0
H1266 H 0.03261 0.8473 0.50998 0.0
H1267 H 0.01879 0.86263 0.51066 0.0
C1268 C 0.05578 0.88591 0.4938 0.0
C1269 C 0.04991 0.90114 0.49303 0.0
C1270 C 0.05312 0.87694 0.50731 0.0
C1271 C 0.04455 0.88304 0.52023 0.0
C1272 C 0.03892 0.89832 0.51962 0.0
H1273 H 0.99168 0.83769 0.5938 0.0
H1274 H 0.00247 0.85425 0.57268 0.0
C1275 C 0.04154 0.90727 0.50614 0.0
C1276 C 0.041 0.87341 0.53429 0.0
H1277 H 0.0188 0.84028 0.54614 0.0
C1278 C 0.04717 0.87915 0.54928 0.0
C1279 C 0.03072 0.85919 0.53309 0.0
C1280 C 0.02336 0.85279 0.51736 0.0
C1281 C 0.04313 0.87112 0.56319 0.0
C1282 C 0.03273 0.85699 0.56198 0.0
C1283 C 0.02681 0.85111 0.54696 0.0
C1284 C 0.02692 0.84859 0.57618 0.0
C1285 C 0.04951 0.87803 0.57912 0.0
C1286 C 0.03721 0.84025 0.58542 0.0
C1287 C 0.03106 0.83075 0.5976 0.0
C1288 C 0.01454 0.82941 0.60058 0.0
C1289 C 0.00445 0.8384 0.59176 0.0
C1290 C 0.01058 0.84786 0.57967 0.0
H1291 H 0.05541 0.8903 0.57827 0.0
H1292 H 0.0397 0.87843 0.58793 0.0
H1293 H 0.05841 0.87021 0.58372 0.0
H1294 H 0.04984 0.84054 0.58277 0.0
H1295 H 0.03911 0.8239 0.60414 0.0
H1296 H 0.16204 0.74776 0.72851 0.0
H1297 H 0.13975 0.7517 0.7106 0.0
H1298 H 0.12594 0.79052 0.74187 0.0
H1299 H 0.14766 0.78613 0.76025 0.0
H1300 H 0.10095 0.77003 0.73389 0.0
H1301 H 0.13385 0.78571 0.67907 0.0
H1302 H 0.13909 0.76707 0.68652 0.0
H1303 H 0.14362 0.78543 0.69829 0.0
C1304 C 0.15425 0.75713 0.73161 0.0
C1305 C 0.15667 0.76662 0.74586 0.0
C1306 C 0.14165 0.75953 0.72122 0.0
C1307 C 0.13134 0.7716 0.72474 0.0
C1308 C 0.13384 0.78122 0.73883 0.0
H1309 H 0.05597 0.79811 0.66036 0.0
H1310 H 0.08048 0.79835 0.67656 0.0
C1311 C 0.14635 0.77877 0.74928 0.0
C1312 C 0.11725 0.77342 0.71438 0.0
H1313 H 0.10572 0.77849 0.67591 0.0
C1314 C 0.10202 0.77203 0.72124 0.0
C1315 C 0.11865 0.77626 0.69792 0.0
C1316 C 0.1347 0.77887 0.69004 0.0
C1317 C 0.08814 0.77291 0.71204 0.0
C1318 C 0.08949 0.77485 0.69542 0.0
C1319 C 0.10471 0.77678 0.68861 0.0
C1320 C 0.07516 0.77449 0.68493 0.0
C1321 C 0.07215 0.77183 0.72024 0.0
C1322 C 0.06431 0.76085 0.68394 0.0
C1323 C 0.05033 0.76071 0.67482 0.0
C1324 C 0.04699 0.77416 0.66633 0.0
C1325 C 0.05818 0.7876 0.66681 0.0
C1326 C 0.07217 0.78775 0.67605 0.0
H1327 H 0.0734 0.77517 0.7332 0.0
H1328 H 0.06381 0.77974 0.71482 0.0
H1329 H 0.06676 0.7593 0.71899 0.0
H1330 H 0.06658 0.75034 0.69038 0.0
H1331 H 0.04205 0.7501 0.67456 0.0
H1332 H 0.92939 0.65357 0.51473 0.0
H1333 H 0.93766 0.67557 0.53401 0.0
H1334 H 0.98572 0.6767 0.51583 0.0
H1335 H 0.9774 0.6549 0.4963 0.0
H1336 H 0.95935 0.67505 0.55757 0.0
H1337 H 0.97792 0.72368 0.5174 0.0
H1338 H 0.96656 0.70547 0.5104 0.0
H1339 H 0.98784 0.70572 0.51339 0.0
C1340 C 0.94168 0.65865 0.51476 0.0
C1341 C 0.95276 0.65259 0.50404 0.0
C1342 C 0.94638 0.6712 0.52574 0.0
C1343 C 0.96227 0.67788 0.52625 0.0
C1344 C 0.97332 0.67199 0.5154 0.0
H1345 H 0.0047 0.73193 0.60972 0.0
H1346 H 0.99762 0.71135 0.58859 0.0
C1347 C 0.96857 0.65953 0.50428 0.0
C1348 C 0.9674 0.69031 0.53879 0.0
H1349 H 0.98479 0.72834 0.54491 0.0
C1350 C 0.96486 0.68673 0.5548 0.0
C1351 C 0.97447 0.70557 0.53513 0.0
C1352 C 0.97673 0.71043 0.51815 0.0
C1353 C 0.96921 0.69799 0.56729 0.0
C1354 C 0.9767 0.71308 0.56367 0.0
C1355 C 0.9792 0.71669 0.54765 0.0
C1356 C 0.9814 0.72557 0.57628 0.0
C1357 C 0.96533 0.69374 0.5842 0.0
C1358 C 0.97501 0.74053 0.57609 0.0
C1359 C 0.97919 0.75236 0.58799 0.0
C1360 C 0.98982 0.74944 0.60036 0.0
C1361 C 0.99635 0.73448 0.60045 0.0
C1362 C 0.99226 0.72269 0.58843 0.0
H1363 H 0.9559 0.68368 0.58456 0.0
H1364 H 0.97622 0.68996 0.59006 0.0
H1365 H 0.96126 0.70421 0.59124 0.0
H1366 H 0.96664 0.74301 0.5668 0.0
H1367 H 0.97395 0.76374 0.58755 0.0
H1368 H 0.7475 0.90457 0.25068 0.0
H1369 H 0.76348 0.93024 0.25421 0.0
H1370 H 0.79122 0.91811 0.21289 0.0
H1371 H 0.77504 0.89258 0.20902 0.0
H1372 H 0.79672 0.93368 0.25936 0.0
H1373 H 0.77972 0.96397 0.20503 0.0
H1374 H 0.76803 0.94684 0.21232 0.0
H1375 H 0.786 0.94413 0.20129 0.0
C1376 C 0.7568 0.90749 0.24216 0.0
C1377 C 0.75999 0.89655 0.22955 0.0
C1378 C 0.76597 0.92212 0.24425 0.0
C1379 C 0.77839 0.92615 0.2337 0.0
C1380 C 0.7815 0.91535 0.221 0.0
H1381 H 0.85521 0.0006 0.2299 0.0
H1382 H 0.83532 0.97799 0.22461 0.0
C1383 C 0.77236 0.9007 0.21892 0.0
C1384 C 0.78878 0.94115 0.23662 0.0
H1385 H 0.80201 0.97616 0.22005 0.0
C1386 C 0.79778 0.94305 0.25085 0.0
C1387 C 0.79018 0.95327 0.22543 0.0
C1388 C 0.78037 0.95207 0.21021 0.0
C1389 C 0.80846 0.95659 0.25402 0.0
C1390 C 0.80992 0.9687 0.24281 0.0
C1391 C 0.80083 0.96686 0.22863 0.0
C1392 C 0.82118 0.98314 0.24544 0.0
C1393 C 0.81846 0.95754 0.26912 0.0
C1394 C 0.81956 0.99378 0.25866 0.0
C1395 C 0.83094 0.00668 0.26177 0.0
C1396 C 0.84409 0.00924 0.25163 0.0
C1397 C 0.84528 0.99895 0.238 0.0
C1398 C 0.83391 0.98602 0.23494 0.0
H1399 H 0.8188 0.94564 0.27439 0.0
H1400 H 0.83092 0.96232 0.26682 0.0
H1401 H 0.81325 0.96575 0.27808 0.0
H1402 H 0.80962 0.99195 0.26673 0.0
H1403 H 0.82957 0.01445 0.27229 0.0
H1404 H 0.75725 0.17162 0.29758 0.0
H1405 H 0.77668 0.1515 0.29428 0.0
H1406 H 0.81325 0.18841 0.28353 0.0
H1407 H 0.79381 0.20866 0.28659 0.0
H1408 H 0.79507 0.14446 0.26679 0.0
H1409 H 0.83306 0.16418 0.31986 0.0
H1410 H 0.81311 0.17039 0.31726 0.0
H1411 H 0.8294 0.17939 0.30616 0.0
C1412 C 0.76938 0.17547 0.29437 0.0
C1413 C 0.77396 0.19177 0.29233 0.0
C1414 C 0.78049 0.16396 0.29258 0.0
C1415 C 0.79642 0.1685 0.28882 0.0
C1416 C 0.80107 0.18471 0.2867 0.0
H1417 H 0.86304 0.09746 0.25823 0.0
H1418 H 0.84839 0.12168 0.25986 0.0
C1419 C 0.78994 0.19626 0.28847 0.0
C1420 C 0.80802 0.15611 0.28692 0.0
H1421 H 0.84122 0.14246 0.30378 0.0
C1422 C 0.80524 0.14407 0.27479 0.0
C1423 C 0.82117 0.15561 0.29747 0.0
C1424 C 0.82438 0.16799 0.31102 0.0
C1425 C 0.81516 0.13138 0.27304 0.0
C1426 C 0.82832 0.13086 0.28359 0.0
C1427 C 0.83121 0.14301 0.29562 0.0
C1428 C 0.83842 0.11712 0.28308 0.0
C1429 C 0.81116 0.11832 0.26028 0.0
C1430 C 0.83808 0.10687 0.29583 0.0
C1431 C 0.84644 0.09309 0.29497 0.0
C1432 C 0.85537 0.08933 0.28135 0.0
C1433 C 0.85622 0.09998 0.26885 0.0
C1434 C 0.84781 0.11377 0.26972 0.0
H1435 H 0.79897 0.11893 0.25518 0.0
H1436 H 0.81988 0.11957 0.25044 0.0
H1437 H 0.81195 0.10631 0.26515 0.0
H1438 H 0.83094 0.10928 0.30626 0.0
H1439 H 0.84559 0.08519 0.30483 0.0
H1440 H 0.36958 0.01084 0.95707 0.0
H1441 H 0.34785 0.99218 0.96588 0.0
H1442 H 0.33388 0.02813 0.00048 0.0
H1443 H 0.35571 0.04676 0.99185 0.0
H1444 H 0.33625 0.99949 0.0135 0.0
H1445 H 0.30016 0.99118 0.95767 0.0
H1446 H 0.32065 0.98704 0.95492 0.0
H1447 H 0.31588 0.00705 0.96074 0.0
C1448 C 0.36171 0.01483 0.96638 0.0
C1449 C 0.36431 0.03024 0.97378 0.0
C1450 C 0.34929 0.00418 0.97137 0.0
C1451 C 0.33912 0.00885 0.98369 0.0
C1452 C 0.34158 0.0243 0.99094 0.0
H1453 H 0.25086 0.95593 0.00998 0.0
H1454 H 0.27114 0.97594 0.00096 0.0
C1455 C 0.35405 0.03491 0.98603 0.0
C1456 C 0.32647 0.99736 0.9896 0.0
H1457 H 0.29356 0.97291 0.97801 0.0
C1458 C 0.32685 0.99374 0.00577 0.0
C1459 C 0.31412 0.99003 0.97953 0.0
C1460 C 0.31255 0.99413 0.96229 0.0
C1461 C 0.31536 0.98279 0.0121 0.0
C1462 C 0.3034 0.97498 0.00188 0.0
C1463 C 0.30285 0.9788 0.98577 0.0
C1464 C 0.29122 0.96292 0.00768 0.0
C1465 C 0.316 0.97991 0.02971 0.0
C1466 C 0.2958 0.9489 0.01435 0.0
C1467 C 0.28425 0.93748 0.01965 0.0
C1468 C 0.26789 0.93979 0.01815 0.0
C1469 C 0.26335 0.95378 0.01132 0.0
C1470 C 0.27492 0.96523 0.00613 0.0
H1471 H 0.32281 0.98997 0.03651 0.0
H1472 H 0.30379 0.97831 0.03474 0.0
H1473 H 0.3221 0.96885 0.03152 0.0
H1474 H 0.30832 0.94671 0.01531 0.0
H1475 H 0.28814 0.92677 0.02472 0.0
H1476 H 0.20584 0.34782 0.2686 0.0
H1477 H 0.18568 0.36708 0.26517 0.0
H1478 H 0.21968 0.40565 0.2818 0.0
H1479 H 0.2397 0.38658 0.28572 0.0
H1480 H 0.17459 0.389 0.28996 0.0
H1481 H 0.20168 0.42044 0.23882 0.0
H1482 H 0.20664 0.40069 0.24391 0.0
H1483 H 0.21544 0.41817 0.25492 0.0
C1484 C 0.20901 0.36039 0.2716 0.0
C1485 C 0.22444 0.36564 0.27738 0.0
C1486 C 0.19751 0.37137 0.26953 0.0
C1487 C 0.2013 0.38777 0.273 0.0
C1488 C 0.21665 0.39306 0.27873 0.0
H1489 H 0.15474 0.46939 0.30113 0.0
H1490 H 0.1678 0.44442 0.29828 0.0
C1491 C 0.22809 0.38213 0.28091 0.0
C1492 C 0.18909 0.39943 0.27147 0.0
H1493 H 0.18207 0.43404 0.2537 0.0
C1494 C 0.17604 0.3987 0.28185 0.0
C1495 C 0.19093 0.41194 0.26073 0.0
C1496 C 0.20435 0.41283 0.24884 0.0
C1497 C 0.1653 0.41074 0.28244 0.0
C1498 C 0.16779 0.42383 0.27247 0.0
C1499 C 0.18026 0.42403 0.2614 0.0
C1500 C 0.15864 0.43817 0.27443 0.0
C1501 C 0.15162 0.40961 0.29402 0.0
C1502 C 0.14922 0.44297 0.2619 0.0
C1503 C 0.14166 0.45728 0.26351 0.0
C1504 C 0.14367 0.4671 0.27757 0.0
C1505 C 0.15296 0.46211 0.29014 0.0
C1506 C 0.16035 0.44778 0.28859 0.0
H1507 H 0.14868 0.39705 0.29738 0.0
H1508 H 0.15505 0.41694 0.30506 0.0
H1509 H 0.14077 0.41426 0.28888 0.0
H1510 H 0.14789 0.43575 0.25083 0.0
H1511 H 0.13463 0.46085 0.25359 0.0
H1512 H 0.14144 0.00257 0.47122 0.0
H1513 H 0.16254 0.02341 0.47851 0.0
H1514 H 0.1543 0.04648 0.43464 0.0
H1515 H 0.13251 0.02621 0.42767 0.0
H1516 H 0.19022 0.03303 0.46466 0.0
H1517 H 0.15022 0.08277 0.4674 0.0
H1518 H 0.14268 0.06199 0.46571 0.0
H1519 H 0.14989 0.07202 0.44836 0.0
C1520 C 0.14397 0.01217 0.46319 0.0
C1521 C 0.13508 0.01283 0.44897 0.0
C1522 C 0.15615 0.02399 0.46731 0.0
C1523 C 0.15977 0.03668 0.45728 0.0
C1524 C 0.15144 0.03701 0.44275 0.0
H1525 H 0.24496 0.10315 0.46865 0.0
H1526 H 0.22517 0.08164 0.45952 0.0
C1527 C 0.13913 0.02527 0.43868 0.0
C1528 C 0.17211 0.04963 0.46223 0.0
H1529 H 0.178 0.09001 0.47022 0.0
C1530 C 0.18756 0.04549 0.46589 0.0
C1531 C 0.16853 0.06584 0.46408 0.0
C1532 C 0.1519 0.07094 0.46134 0.0
C1533 C 0.19957 0.05714 0.4713 0.0
C1534 C 0.19612 0.07342 0.47266 0.0
C1535 C 0.18066 0.07754 0.46904 0.0
C1536 C 0.20823 0.08637 0.4782 0.0
C1537 C 0.21568 0.05181 0.47593 0.0
C1538 C 0.2051 0.09649 0.49145 0.0
C1539 C 0.21626 0.10897 0.49653 0.0
C1540 C 0.23082 0.11153 0.48849 0.0
C1541 C 0.23393 0.10139 0.47521 0.0
C1542 C 0.22267 0.08902 0.47003 0.0
H1543 H 0.21491 0.03891 0.47861 0.0
H1544 H 0.22404 0.05352 0.46585 0.0
H1545 H 0.22077 0.05893 0.48653 0.0
H1546 H 0.194 0.09469 0.4979 0.0
H1547 H 0.2135 0.11656 0.50681 0.0
H1548 H 0.75117 0.14966 0.75338 0.0
H1549 H 0.73432 0.12485 0.7567 0.0
H1550 H 0.6998 0.14007 0.72346 0.0
H1551 H 0.71672 0.16482 0.71985 0.0
H1552 H 0.70166 0.1231 0.76731 0.0
H1553 H 0.70814 0.09374 0.70708 0.0
H1554 H 0.72201 0.10983 0.71497 0.0
H1555 H 0.70282 0.11413 0.70738 0.0
C1556 C 0.7401 0.14762 0.74661 0.0
C1557 C 0.73529 0.15915 0.7363 0.0
C1558 C 0.73047 0.1335 0.74858 0.0
C1559 C 0.71595 0.13058 0.74017 0.0
C1560 C 0.7111 0.14202 0.72986 0.0
H1561 H 0.63802 0.05687 0.73813 0.0
H1562 H 0.6571 0.07957 0.73303 0.0
C1563 C 0.72068 0.1562 0.72794 0.0
C1564 C 0.70554 0.11588 0.74276 0.0
H1565 H 0.68892 0.08137 0.72411 0.0
C1566 C 0.69893 0.11391 0.75792 0.0
C1567 C 0.702 0.10401 0.73043 0.0
C1568 C 0.70919 0.10539 0.71406 0.0
C1569 C 0.68855 0.10049 0.76101 0.0
C1570 C 0.68501 0.08856 0.74869 0.0
C1571 C 0.6917 0.09051 0.73353 0.0
C1572 C 0.67404 0.0742 0.7512 0.0
C1573 C 0.68108 0.09945 0.77729 0.0
C1574 C 0.67746 0.06342 0.76283 0.0
C1575 C 0.66654 0.05047 0.76585 0.0
C1576 C 0.65207 0.04799 0.75717 0.0
C1577 C 0.64901 0.05845 0.74508 0.0
C1578 C 0.6599 0.07143 0.74213 0.0
H1579 H 0.68173 0.11132 0.78389 0.0
H1580 H 0.66834 0.09472 0.77633 0.0
H1581 H 0.68758 0.09119 0.78444 0.0
H1582 H 0.68849 0.06513 0.7697 0.0
H1583 H 0.66934 0.04255 0.77514 0.0
H1584 H 0.39654 0.03514 0.55478 0.0
H1585 H 0.38113 0.05763 0.54845 0.0
H1586 H 0.33989 0.03528 0.57142 0.0
H1587 H 0.35512 0.01248 0.57743 0.0
H1588 H 0.33346 0.04452 0.54111 0.0
H1589 H 0.36592 0.0947 0.57634 0.0
H1590 H 0.37881 0.08335 0.56402 0.0
H1591 H 0.36816 0.07392 0.58005 0.0
C1592 C 0.3842 0.03503 0.55853 0.0
C1593 C 0.37703 0.02199 0.56655 0.0
C1594 C 0.37548 0.048 0.5551 0.0
C1595 C 0.35944 0.04825 0.55968 0.0
C1596 C 0.35231 0.03539 0.56792 0.0
H1597 H 0.29742 0.12555 0.5425 0.0
H1598 H 0.31318 0.10653 0.55588 0.0
C1599 C 0.36104 0.02241 0.57139 0.0
C1600 C 0.34979 0.06123 0.55461 0.0
H1601 H 0.34842 0.10194 0.55554 0.0
C1602 C 0.33662 0.05706 0.54443 0.0
C1603 C 0.35384 0.07757 0.55906 0.0
C1604 C 0.36736 0.08267 0.5706 0.0
C1605 C 0.32779 0.06882 0.53807 0.0
C1606 C 0.33235 0.08518 0.54185 0.0
C1607 C 0.34509 0.08938 0.55254 0.0
C1608 C 0.32429 0.09798 0.53425 0.0
C1609 C 0.31372 0.06367 0.52719 0.0
C1610 C 0.3258 0.09982 0.51779 0.0
C1611 C 0.3169 0.11063 0.51014 0.0
C1612 C 0.3063 0.11985 0.51882 0.0
C1613 C 0.30545 0.11861 0.53548 0.0
C1614 C 0.31442 0.10776 0.54314 0.0
H1615 H 0.30953 0.05088 0.52844 0.0
H1616 H 0.3036 0.07117 0.52971 0.0
H1617 H 0.31731 0.06521 0.51461 0.0
H1618 H 0.33353 0.09251 0.51077 0.0
H1619 H 0.31792 0.11135 0.49732 0.0
H1620 H 0.64585 0.55451 0.60193 0.0
H1621 H 0.66101 0.53066 0.59909 0.0
H1622 H 0.62376 0.50722 0.56861 0.0
H1623 H 0.6084 0.53076 0.57168 0.0
H1624 H 0.63653 0.48703 0.59156 0.0
H1625 H 0.68345 0.52005 0.5564 0.0
H1626 H 0.67923 0.52865 0.57582 0.0
H1627 H 0.66428 0.52774 0.56032 0.0
C1628 C 0.6408 0.54418 0.59481 0.0
C1629 C 0.62603 0.54459 0.58684 0.0
C1630 C 0.6495 0.53062 0.59314 0.0
C1631 C 0.64357 0.51728 0.58349 0.0
C1632 C 0.62856 0.51742 0.57607 0.0
H1633 H 0.68267 0.44508 0.52665 0.0
H1634 H 0.66813 0.46612 0.53957 0.0
C1635 C 0.61989 0.53094 0.5777 0.0
C1636 C 0.65329 0.50352 0.58015 0.0
H1637 H 0.68574 0.4926 0.55917 0.0
C1638 C 0.64743 0.48824 0.5847 0.0
C1639 C 0.66742 0.50518 0.57108 0.0
C1640 C 0.67398 0.52124 0.56549 0.0
C1641 C 0.65514 0.47449 0.58 0.0
C1642 C 0.66898 0.47615 0.57056 0.0
C1643 C 0.67512 0.49145 0.56647 0.0
C1644 C 0.67645 0.46213 0.5634 0.0
C1645 C 0.64809 0.45823 0.58448 0.0
C1646 C 0.68568 0.45269 0.57262 0.0
C1647 C 0.69407 0.44057 0.56524 0.0
C1648 C 0.69336 0.43782 0.54855 0.0
C1649 C 0.68354 0.4469 0.53951 0.0
C1650 C 0.67522 0.45895 0.54686 0.0
H1651 H 0.63657 0.45889 0.59085 0.0
H1652 H 0.6461 0.45019 0.57361 0.0
H1653 H 0.65663 0.45274 0.59233 0.0
H1654 H 0.68685 0.45507 0.5854 0.0
H1655 H 0.70158 0.43382 0.57252 0.0
H1656 H 0.70054 0.27212 0.39409 0.0
H1657 H 0.70093 0.28676 0.42005 0.0
H1658 H 0.72267 0.32887 0.39872 0.0
H1659 H 0.72309 0.31414 0.37294 0.0
H1660 H 0.73769 0.32274 0.42591 0.0
H1661 H 0.67224 0.32073 0.4359 0.0
H1662 H 0.6797 0.30138 0.43235 0.0
H1663 H 0.68066 0.31546 0.41679 0.0
C1664 C 0.70549 0.28447 0.39493 0.0
C1665 C 0.71174 0.29195 0.38138 0.0
C1666 C 0.7055 0.29289 0.40975 0.0
C1667 C 0.71157 0.30899 0.41127 0.0
C1668 C 0.7178 0.31648 0.39779 0.0
H1669 H 0.70314 0.38158 0.48623 0.0
H1670 H 0.69945 0.36308 0.46284 0.0
C1671 C 0.7179 0.30807 0.38302 0.0
C1672 C 0.71214 0.31793 0.42699 0.0
H1673 H 0.689 0.33127 0.45744 0.0
C1674 C 0.72705 0.32459 0.43282 0.0
C1675 C 0.69821 0.32045 0.43589 0.0
C1676 C 0.68178 0.31427 0.42988 0.0
C1677 C 0.72843 0.33379 0.44724 0.0
C1678 C 0.71455 0.33603 0.45633 0.0
C1679 C 0.69963 0.32935 0.45054 0.0
C1680 C 0.71526 0.34608 0.4714 0.0
C1681 C 0.74468 0.34148 0.4523 0.0
C1682 C 0.72487 0.34234 0.48425 0.0
C1683 C 0.72713 0.35297 0.49758 0.0
C1684 C 0.71963 0.36742 0.49839 0.0
C1685 C 0.70915 0.37059 0.48597 0.0
C1686 C 0.70701 0.36002 0.47258 0.0
H1687 H 0.75315 0.34195 0.44218 0.0
H1688 H 0.7438 0.35387 0.45738 0.0
H1689 H 0.74978 0.33434 0.46161 0.0
H1690 H 0.73102 0.33143 0.48375 0.0
H1691 H 0.73513 0.35007 0.50703 0.0
H1692 H 0.48003 0.06896 0.87414 0.0
H1693 H 0.50094 0.06138 0.85569 0.0
H1694 H 0.52176 0.03491 0.89235 0.0
H1695 H 0.50093 0.04245 0.91087 0.0
H1696 H 0.53393 0.06811 0.85958 0.0
H1697 H 0.51784 0.00242 0.85419 0.0
H1698 H 0.50439 0.01643 0.86235 0.0
H1699 H 0.52059 0.01056 0.87432 0.0
C1700 C 0.48906 0.06152 0.87826 0.0
C1701 C 0.4888 0.05624 0.89393 0.0
C1702 C 0.50095 0.05716 0.86771 0.0
C1703 C 0.51275 0.04742 0.87261 0.0
C1704 C 0.51255 0.04214 0.88823 0.0
H1705 H 0.59581 0.01274 0.82387 0.0
H1706 H 0.57606 0.01955 0.84398 0.0
C1707 C 0.50064 0.04645 0.89878 0.0
C1708 C 0.5256 0.0433 0.86153 0.0
H1709 H 0.54198 0.0119 0.84207 0.0
C1710 C 0.53568 0.05583 0.85572 0.0
C1711 C 0.52788 0.02726 0.85662 0.0
C1712 C 0.51703 0.01338 0.86206 0.0
C1713 C 0.54804 0.05274 0.84512 0.0
C1714 C 0.5502 0.03672 0.84006 0.0
C1715 C 0.54028 0.02417 0.84603 0.0
C1716 C 0.56227 0.03281 0.82805 0.0
C1717 C 0.55878 0.06662 0.83951 0.0
C1718 C 0.56089 0.03788 0.81246 0.0
C1719 C 0.57208 0.03401 0.80097 0.0
C1720 C 0.58485 0.02493 0.80485 0.0
C1721 C 0.58616 0.0198 0.82051 0.0
C1722 C 0.57489 0.02365 0.832 0.0
H1723 H 0.55823 0.07751 0.84752 0.0
H1724 H 0.57139 0.0635 0.83881 0.0
H1725 H 0.55489 0.06956 0.82739 0.0
H1726 H 0.55105 0.04472 0.80913 0.0
H1727 H 0.57066 0.0381 0.78902 0.0
H1728 H 0.26128 0.24871 0.35597 0.0
H1729 H 0.26014 0.23269 0.37953 0.0
H1730 H 0.29704 0.26488 0.40227 0.0
H1731 H 0.2976 0.28154 0.37916 0.0
H1732 H 0.28292 0.21657 0.39217 0.0
H1733 H 0.26436 0.26201 0.4371 0.0
H1734 H 0.26374 0.26493 0.41593 0.0
H1735 H 0.2823 0.26838 0.4269 0.0
C1736 C 0.26891 0.25262 0.3661 0.0
C1737 C 0.27946 0.26651 0.36566 0.0
C1738 C 0.26835 0.24334 0.37952 0.0
C1739 C 0.27834 0.2477 0.39276 0.0
C1740 C 0.28897 0.26147 0.39234 0.0
H1741 H 0.29698 0.17938 0.46506 0.0
H1742 H 0.29995 0.19835 0.44378 0.0
C1743 C 0.28943 0.27086 0.37899 0.0
C1744 C 0.278 0.23746 0.40673 0.0
H1745 H 0.27235 0.23772 0.44702 0.0
C1746 C 0.28058 0.22119 0.40417 0.0
C1747 C 0.27478 0.24347 0.42234 0.0
C1748 C 0.27098 0.26061 0.42575 0.0
C1749 C 0.28001 0.21073 0.41676 0.0
C1750 C 0.27725 0.21684 0.43246 0.0
C1751 C 0.27467 0.23311 0.43502 0.0
C1752 C 0.27612 0.20633 0.44621 0.0
C1753 C 0.28185 0.19316 0.41303 0.0
C1754 C 0.26205 0.20512 0.45518 0.0
C1755 C 0.26042 0.19451 0.46751 0.0
C1756 C 0.27282 0.18485 0.47109 0.0
C1757 C 0.28714 0.18652 0.46249 0.0
C1758 C 0.28882 0.19727 0.45025 0.0
H1759 H 0.27955 0.18982 0.40018 0.0
H1760 H 0.29427 0.19051 0.41588 0.0
H1761 H 0.27355 0.18551 0.42023 0.0
H1762 H 0.25213 0.21206 0.45233 0.0
H1763 H 0.24924 0.19355 0.47391 0.0
H1764 H 0.51425 0.47071 0.85896 0.0
H1765 H 0.49471 0.48178 0.84164 0.0
H1766 H 0.47336 0.50407 0.8828 0.0
H1767 H 0.49317 0.49356 0.90014 0.0
H1768 H 0.46149 0.47713 0.84175 0.0
H1769 H 0.48161 0.54139 0.85355 0.0
H1770 H 0.49349 0.52539 0.85896 0.0
H1771 H 0.477 0.53066 0.87119 0.0
C1772 C 0.5055 0.47811 0.86431 0.0
C1773 C 0.50533 0.48132 0.88093 0.0
C1774 C 0.4943 0.48434 0.85441 0.0
C1775 C 0.48277 0.49395 0.86092 0.0
C1776 C 0.48236 0.49694 0.87751 0.0
H1777 H 0.40373 0.54018 0.82013 0.0
H1778 H 0.42326 0.52987 0.83805 0.0
C1779 C 0.49357 0.49074 0.88742 0.0
C1780 C 0.47099 0.50062 0.85035 0.0
H1781 H 0.45755 0.5357 0.83857 0.0
C1782 C 0.46066 0.48993 0.841 0.0
C1783 C 0.46994 0.51733 0.84944 0.0
C1784 C 0.48119 0.52939 0.8587 0.0
C1785 C 0.44915 0.49551 0.83088 0.0
C1786 C 0.44811 0.51221 0.82996 0.0
C1787 C 0.45838 0.52291 0.83935 0.0
C1788 C 0.43658 0.5188 0.8191 0.0
C1789 C 0.438 0.48349 0.82146 0.0
C1790 C 0.43784 0.51625 0.80252 0.0
C1791 C 0.42675 0.52213 0.79226 0.0
C1792 C 0.41421 0.53073 0.79839 0.0
C1793 C 0.41321 0.53357 0.81502 0.0
C1794 C 0.42434 0.52769 0.82527 0.0
H1795 H 0.43774 0.47138 0.82636 0.0
H1796 H 0.42564 0.48737 0.82134 0.0
H1797 H 0.44213 0.48253 0.80893 0.0
H1798 H 0.44739 0.50967 0.79752 0.0
H1799 H 0.42795 0.51979 0.77953 0.0
H1800 H 0.71395 0.74299 0.16749 0.0
H1801 H 0.7188 0.72478 0.14472 0.0
H1802 H 0.75826 0.75697 0.13051 0.0
H1803 H 0.75302 0.77562 0.15279 0.0
H1804 H 0.73869 0.7477 0.10584 0.0
H1805 H 0.75331 0.6942 0.13765 0.0
H1806 H 0.73445 0.70123 0.1435 0.0
H1807 H 0.75261 0.7137 0.14764 0.0
C1808 C 0.72364 0.74623 0.15951 0.0
C1809 C 0.73309 0.7608 0.16199 0.0
C1810 C 0.72655 0.73568 0.14662 0.0
C1811 C 0.73908 0.73936 0.13607 0.0
C1812 C 0.74862 0.75381 0.13859 0.0
H1813 H 0.77028 0.67478 0.05924 0.0
H1814 H 0.7688 0.69131 0.08407 0.0
C1815 C 0.74567 0.76441 0.15141 0.0
C1816 C 0.74156 0.7287 0.1218 0.0
H1817 H 0.74753 0.69012 0.10966 0.0
C1818 C 0.74076 0.73514 0.1067 0.0
C1819 C 0.74447 0.71237 0.12292 0.0
C1820 C 0.74643 0.70499 0.13881 0.0
C1821 C 0.74234 0.72561 0.09268 0.0
C1822 C 0.74442 0.7091 0.09377 0.0
C1823 C 0.74572 0.70274 0.10886 0.0
C1824 C 0.74498 0.69826 0.07932 0.0
C1825 C 0.74188 0.73337 0.07682 0.0
C1826 C 0.73192 0.69632 0.0687 0.0
C1827 C 0.73275 0.68699 0.05453 0.0
C1828 C 0.74662 0.67925 0.05078 0.0
C1829 C 0.75946 0.68063 0.06177 0.0
C1830 C 0.75863 0.69006 0.07595 0.0
H1831 H 0.74487 0.74653 0.07815 0.0
H1832 H 0.75035 0.72817 0.06827 0.0
H1833 H 0.72964 0.73132 0.07164 0.0
H1834 H 0.72112 0.70223 0.07126 0.0
H1835 H 0.72258 0.68605 0.04641 0.0
H1836 H 0.00123 0.12756 0.13561 0.0
H1837 H 0.9777 0.12426 0.15272 0.0
H1838 H -0.00012 0.08789 0.17776 0.0
H1839 H 0.02346 0.09135 0.161 0.0
H1840 H 0.95824 0.09616 0.15471 0.0
H1841 H 0.98327 0.11579 0.21424 0.0
H1842 H 0.99333 0.12075 0.19593 0.0
H1843 H 0.99505 0.10151 0.2042 0.0
C1844 C 0.00121 0.11912 0.145 0.0
C1845 C 0.01417 0.10968 0.14695 0.0
C1846 C 0.98775 0.1172 0.15471 0.0
C1847 C 0.98713 0.10599 0.16664 0.0
C1848 C 0.00022 0.09685 0.16884 0.0
H1849 H 0.91755 0.04362 0.20637 0.0
H1850 H 0.93599 0.05912 0.18964 0.0
C1851 C 0.01361 0.0987 0.15913 0.0
C1852 C 0.97237 0.10268 0.17592 0.0
H1853 H 0.95923 0.09779 0.21393 0.0
C1854 C 0.95834 0.09683 0.16766 0.0
C1855 C 0.97242 0.10381 0.19281 0.0
C1856 C 0.98679 0.11097 0.20231 0.0
C1857 C 0.94473 0.09099 0.17586 0.0
C1858 C 0.94528 0.09081 0.19271 0.0
C1859 C 0.95889 0.09775 0.20099 0.0
C1860 C 0.93267 0.08197 0.20183 0.0
C1861 C 0.93005 0.08465 0.16638 0.0
C1862 C 0.92468 0.08965 0.21431 0.0
C1863 C 0.91409 0.08077 0.22397 0.0
C1864 C 0.91152 0.06404 0.22141 0.0
C1865 C 0.91923 0.05649 0.20864 0.0
C1866 C 0.92971 0.06535 0.19898 0.0
H1867 H 0.9295 0.09038 0.15473 0.0
H1868 H 0.93048 0.07155 0.16389 0.0
H1869 H 0.91894 0.08668 0.17306 0.0
H1870 H 0.92692 0.10245 0.21679 0.0
H1871 H 0.90838 0.08692 0.23377 0.0
H1872 H 0.2415 0.78538 0.1729 0.0
H1873 H 0.23677 0.80505 0.15308 0.0
H1874 H 0.28211 0.83069 0.1654 0.0
H1875 H 0.28696 0.81105 0.18524 0.0
H1876 H 0.25652 0.85084 0.16034 0.0
H1877 H 0.26208 0.80489 0.11102 0.0
H1878 H 0.24736 0.79956 0.12571 0.0
H1879 H 0.26817 0.80192 0.13127 0.0
C1880 C 0.25044 0.79523 0.17141 0.0
C1881 C 0.26469 0.79656 0.18049 0.0
C1882 C 0.24771 0.80646 0.16013 0.0
C1883 C 0.25921 0.81916 0.15764 0.0
C1884 C 0.2731 0.82096 0.16716 0.0
H1885 H 0.27356 0.87075 0.07233 0.0
H1886 H 0.27605 0.85591 0.09641 0.0
C1887 C 0.27583 0.80974 0.1785 0.0
C1888 C 0.25723 0.82996 0.14442 0.0
H1889 H 0.25506 0.83031 0.10381 0.0
C1890 C 0.25616 0.84639 0.14796 0.0
C1891 C 0.25698 0.8241 0.12832 0.0
C1892 C 0.25884 0.80669 0.12377 0.0
C1893 C 0.25476 0.85715 0.13575 0.0
C1894 C 0.25428 0.85122 0.11967 0.0
C1895 C 0.25535 0.83479 0.11617 0.0
C1896 C 0.2533 0.86181 0.1061 0.0
C1897 C 0.25421 0.87477 0.14011 0.0
C1898 C 0.23975 0.87026 0.10367 0.0
C1899 C 0.2383 0.87885 0.08988 0.0
C1900 C 0.25032 0.87896 0.07826 0.0
C1901 C 0.26405 0.87086 0.081 0.0
C1902 C 0.26551 0.86237 0.09477 0.0
H1903 H 0.25825 0.8778 0.15261 0.0
H1904 H 0.2618 0.88212 0.13198 0.0
H1905 H 0.24173 0.8781 0.13889 0.0
H1906 H 0.23006 0.86976 0.11215 0.0
H1907 H 0.22755 0.88493 0.08807 0.0
H1908 H 0.96821 0.48282 0.15269 0.0
H1909 H 0.98977 0.48698 0.17262 0.0
H1910 H 0.00542 0.44034 0.1595 0.0
H1911 H 0.98399 0.4362 0.13939 0.0
H1912 H 0.99821 0.47034 0.19872 0.0
H1913 H 0.04534 0.46991 0.15234 0.0
H1914 H 0.02448 0.47093 0.14745 0.0
H1915 H 0.03185 0.45217 0.15234 0.0
C1916 C 0.97609 0.47336 0.15424 0.0
C1917 C 0.97454 0.45926 0.1444 0.0
C1918 C 0.98843 0.47576 0.16557 0.0
C1919 C 0.99939 0.46411 0.16728 0.0
C1920 C 0.99734 0.44965 0.15808 0.0
H1921 H 0.0851 0.47501 0.22985 0.0
H1922 H 0.06357 0.46249 0.21228 0.0
C1923 C 0.98508 0.44729 0.14665 0.0
C1924 C 0.01327 0.46748 0.17825 0.0
H1925 H 0.054 0.47416 0.17908 0.0
C1926 C 0.01041 0.47102 0.19446 0.0
C1927 C 0.0292 0.46835 0.17263 0.0
C1928 C 0.03297 0.46527 0.15523 0.0
C1929 C 0.02303 0.4758 0.20512 0.0
C1930 C 0.03885 0.47714 0.19939 0.0
C1931 C 0.04181 0.47301 0.18337 0.0
C1932 C 0.05218 0.48448 0.20949 0.0
C1933 C 0.01937 0.47978 0.22238 0.0
C1934 C 0.05302 0.50098 0.21332 0.0
C1935 C 0.06527 0.50815 0.22314 0.0
C1936 C 0.07693 0.49893 0.22939 0.0
C1937 C 0.07629 0.48241 0.22523 0.0
C1938 C 0.06402 0.47525 0.21525 0.0
H1939 H 0.0072 0.47487 0.22564 0.0
H1940 H 0.02828 0.47501 0.23038 0.0
H1941 H 0.02006 0.493 0.22446 0.0
H1942 H 0.04407 0.5083 0.20879 0.0
H1943 H 0.0654 0.5209 0.22608 0.0
H1944 H 0.36767 0.76327 0.26674 0.0
H1945 H 0.39239 0.76541 0.28264 0.0
H1946 H 0.37831 0.72028 0.30319 0.0
H1947 H 0.35362 0.71801 0.28728 0.0
H1948 H 0.395 0.76676 0.31525 0.0
H1949 H 0.42401 0.7141 0.28973 0.0
H1950 H 0.40728 0.72216 0.28011 0.0
H1951 H 0.40406 0.70943 0.29664 0.0
C1952 C 0.36986 0.75379 0.27463 0.0
C1953 C 0.35873 0.74046 0.27574 0.0
C1954 C 0.38401 0.75499 0.28364 0.0
C1955 C 0.3873 0.74288 0.29389 0.0
C1956 C 0.37621 0.72955 0.29504 0.0
H1957 H 0.45896 0.73659 0.36793 0.0
H1958 H 0.43664 0.73115 0.34894 0.0
C1959 C 0.36209 0.7283 0.28598 0.0
C1960 C 0.40189 0.74469 0.30408 0.0
H1961 H 0.43592 0.72703 0.3133 0.0
C1962 C 0.404 0.75813 0.31474 0.0
C1963 C 0.41356 0.73336 0.30344 0.0
C1964 C 0.41223 0.71902 0.29177 0.0
C1965 C 0.41737 0.76046 0.32494 0.0
C1966 C 0.42902 0.74915 0.3243 0.0
C1967 C 0.42693 0.73566 0.31371 0.0
C1968 C 0.44346 0.7513 0.3346 0.0
C1969 C 0.41881 0.77488 0.33652 0.0
C1970 C 0.45491 0.7641 0.33244 0.0
C1971 C 0.46765 0.76724 0.34321 0.0
C1972 C 0.46917 0.75761 0.35635 0.0
C1973 C 0.45811 0.74428 0.35799 0.0
C1974 C 0.44536 0.74113 0.34716 0.0
H1975 H 0.40732 0.78055 0.33784 0.0
H1976 H 0.42282 0.7715 0.34845 0.0
H1977 H 0.42788 0.78395 0.3321 0.0
H1978 H 0.45372 0.77194 0.32266 0.0
H1979 H 0.476 0.77754 0.3415 0.0
H1980 H 0.95212 0.38433 0.02995 0.0
H1981 H 0.96081 0.36575 0.00903 0.0
H1982 H 0.93038 0.38592 0.97491 0.0
H1983 H 0.92157 0.40465 0.99591 0.0
H1984 H 0.92972 0.35193 0.97254 0.0
H1985 H 0.99171 0.38031 0.97372 0.0
H1986 H 0.9848 0.37455 0.99299 0.0
H1987 H 0.97527 0.3898 0.98294 0.0
C1988 C 0.94727 0.38481 0.01799 0.0
C1989 C 0.93635 0.39608 0.01449 0.0
C1990 C 0.95226 0.37422 0.00606 0.0
C1991 C 0.94653 0.37475 0.99038 0.0
C1992 C 0.93505 0.38545 0.98695 0.0
H1993 H 0.99372 0.32743 0.91062 0.0
H1994 H 0.9819 0.34735 0.92822 0.0
C1995 C 0.92998 0.39607 0.99893 0.0
C1996 C 0.95282 0.36426 0.97761 0.0
H1997 H 0.98756 0.35472 0.95991 0.0
C1998 C 0.94233 0.35261 0.96965 0.0
C1999 C 0.96923 0.36538 0.97368 0.0
C2000 C 0.98089 0.37829 0.98116 0.0
C2001 C 0.94796 0.34159 0.95829 0.0
C2002 C 0.96453 0.34213 0.95506 0.0
C2003 C 0.9749 0.3542 0.96255 0.0
C2004 C 0.97146 0.33004 0.94427 0.0
C2005 C 0.93611 0.32951 0.94985 0.0
C2006 C 0.96978 0.31376 0.94765 0.0
C2007 C 0.97649 0.30236 0.93764 0.0
C2008 C 0.98517 0.30704 0.92411 0.0
C2009 C 0.98711 0.32341 0.92093 0.0
C2010 C 0.98033 0.33481 0.93094 0.0
H2011 H 0.92385 0.33366 0.95 0.0
H2012 H 0.93957 0.3271 0.93725 0.0
H2013 H 0.93576 0.31807 0.95604 0.0
H2014 H 0.96335 0.30987 0.95812 0.0
H2015 H 0.97485 0.28987 0.94051 0.0
H2016 H 0.67142 0.79653 0.30215 0.0
H2017 H 0.65046 0.79204 0.32198 0.0
H2018 H 0.61471 0.80097 0.28704 0.0
H2019 H 0.63554 0.80582 0.26724 0.0
H2020 H 0.62779 0.81396 0.33264 0.0
H2021 H 0.59842 0.75751 0.30513 0.0
H2022 H 0.61838 0.76513 0.3 0.0
H2023 H 0.60129 0.77347 0.29161 0.0
C2024 C 0.65911 0.79762 0.29869 0.0
C2025 C 0.65517 0.80149 0.28306 0.0
C2026 C 0.64715 0.79496 0.31002 0.0
C2027 C 0.63105 0.79595 0.30589 0.0
C2028 C 0.62706 0.79982 0.29035 0.0
H2029 H 0.54664 0.81274 0.35745 0.0
H2030 H 0.57177 0.81415 0.34291 0.0
C2031 C 0.63899 0.80255 0.27904 0.0
C2032 C 0.61838 0.79354 0.31795 0.0
H2033 H 0.58386 0.7709 0.32541 0.0
C2034 C 0.61828 0.80444 0.33118 0.0
C2035 C 0.60612 0.78098 0.31612 0.0
C2036 C 0.60608 0.7685 0.30253 0.0
C2037 C 0.6058 0.80355 0.34226 0.0
C2038 C 0.59309 0.79152 0.33993 0.0
C2039 C 0.59358 0.78018 0.32711 0.0
C2040 C 0.57864 0.79113 0.34999 0.0
C2041 C 0.60623 0.81558 0.35626 0.0
C2042 C 0.57413 0.77768 0.35876 0.0
C2043 C 0.55973 0.77683 0.36714 0.0
C2044 C 0.54952 0.78933 0.36666 0.0
C2045 C 0.55424 0.80291 0.35809 0.0
C2046 C 0.56865 0.80379 0.34984 0.0
H2047 H 0.61857 0.82093 0.35885 0.0
H2048 H 0.59872 0.82543 0.35344 0.0
H2049 H 0.6014 0.80997 0.36714 0.0
H2050 H 0.58164 0.76774 0.35892 0.0
H2051 H 0.55639 0.76618 0.37357 0.0
H2052 H 0.08287 0.1847 0.0341 0.0
H2053 H 0.07535 0.20082 0.01202 0.0
H2054 H 0.05087 0.15885 0.98856 0.0
H2055 H 0.05822 0.1427 0.01054 0.0
H2056 H 0.06916 0.17865 0.96765 0.0
H2057 H 0.02904 0.21296 0.00649 0.0
H2058 H 0.04945 0.21328 0.01322 0.0
H2059 H 0.03704 0.19478 0.01252 0.0
C2060 C 0.0759 0.17891 0.02422 0.0
C2061 C 0.07106 0.16243 0.02413 0.0
C2062 C 0.07165 0.18813 0.01162 0.0
C2063 C 0.0624 0.18105 0.99876 0.0
C2064 C 0.05804 0.16453 0.99836 0.0
H2065 H 0.99774 0.22012 0.93522 0.0
H2066 H 0.0119 0.20515 0.9543 0.0
C2067 C 0.0623 0.15531 0.01092 0.0
C2068 C 0.05645 0.19091 0.98613 0.0
H2069 H 0.03084 0.21969 0.97963 0.0
C2070 C 0.06088 0.18772 0.97024 0.0
C2071 C 0.04552 0.2026 0.98958 0.0
C2072 C 0.03984 0.20608 0.00634 0.0
C2073 C 0.0545 0.19581 0.95766 0.0
C2074 C 0.04353 0.20744 0.96113 0.0
C2075 C 0.03932 0.21079 0.97704 0.0
C2076 C 0.03541 0.2156 0.94845 0.0
C2077 C 0.05909 0.19149 0.94073 0.0
C2078 C 0.04398 0.2263 0.93865 0.0
C2079 C 0.03589 0.23489 0.92763 0.0
C2080 C 0.0191 0.23297 0.92636 0.0
C2081 C 0.01066 0.22191 0.93591 0.0
C2082 C 0.01873 0.21335 0.94685 0.0
H2083 H 0.06532 0.18025 0.93986 0.0
H2084 H 0.04834 0.19002 0.93283 0.0
H2085 H 0.06724 0.20131 0.93623 0.0
H2086 H 0.05685 0.22836 0.93986 0.0
H2087 H 0.04272 0.24338 0.9205 0.0
H2088 H 0.36408 0.28813 0.25879 0.0
H2089 H 0.3881 0.28665 0.24256 0.0
H2090 H 0.37089 0.32107 0.2113 0.0
H2091 H 0.34695 0.32288 0.22767 0.0
H2092 H 0.38934 0.278 0.20916 0.0
H2093 H 0.41687 0.33957 0.22389 0.0
H2094 H 0.40128 0.3301 0.23578 0.0
H2095 H 0.3964 0.3383 0.21713 0.0
C2096 C 0.36548 0.29551 0.24855 0.0
C2097 C 0.35367 0.30569 0.24455 0.0
C2098 C 0.37916 0.29458 0.23926 0.0
C2099 C 0.38134 0.30391 0.22589 0.0
C2100 C 0.36952 0.31397 0.22174 0.0
H2101 H 0.45513 0.31313 0.15435 0.0
H2102 H 0.43196 0.31628 0.1714 0.0
C2103 C 0.35579 0.31486 0.23099 0.0
C2104 C 0.39581 0.30276 0.21606 0.0
H2105 H 0.42956 0.32414 0.20405 0.0
C2106 C 0.39818 0.28805 0.20807 0.0
C2107 C 0.40723 0.31594 0.21466 0.0
C2108 C 0.40546 0.33185 0.22341 0.0
C2109 C 0.41161 0.28622 0.19848 0.0
C2110 C 0.42313 0.29936 0.19718 0.0
C2111 C 0.42072 0.31409 0.20513 0.0
C2112 C 0.43768 0.29805 0.18747 0.0
C2113 C 0.41316 0.27034 0.18956 0.0
C2114 C 0.4488 0.28708 0.19113 0.0
C2115 C 0.46204 0.2852 0.18139 0.0
C2116 C 0.46446 0.29438 0.16788 0.0
C2117 C 0.45361 0.30583 0.16462 0.0
C2118 C 0.44035 0.30765 0.17435 0.0
H2119 H 0.40151 0.26306 0.18851 0.0
H2120 H 0.41791 0.27211 0.17739 0.0
H2121 H 0.4216 0.2634 0.19611 0.0
H2122 H 0.44714 0.27981 0.20143 0.0
H2123 H 0.47022 0.27637 0.18433 0.0
H2124 H 0.53969 0.41934 0.00964 0.0
H2125 H 0.53576 0.40341 0.03311 0.0
H2126 H 0.55971 0.36516 0.00976 0.0
H2127 H 0.56326 0.38086 0.98594 0.0
H2128 H 0.5313 0.35475 0.02301 0.0
H2129 H 0.56767 0.39327 0.06727 0.0
H2130 H 0.55346 0.40411 0.057 0.0
H2131 H 0.56932 0.39553 0.04602 0.0
C2132 C 0.54405 0.40751 0.00944 0.0
C2133 C 0.55172 0.40133 0.99588 0.0
C2134 C 0.54203 0.39853 0.02298 0.0
C2135 C 0.54774 0.38325 0.0233 0.0
C2136 C 0.5554 0.37702 0.00981 0.0
H2137 H 0.53913 0.32302 0.10656 0.0
H2138 H 0.55088 0.3394 0.08542 0.0
C2139 C 0.55744 0.38601 0.99624 0.0
C2140 C 0.54459 0.37338 0.03729 0.0
H2141 H 0.54838 0.37382 0.07792 0.0
C2142 C 0.53524 0.35881 0.03498 0.0
C2143 C 0.54991 0.37859 0.05288 0.0
C2144 C 0.56079 0.39365 0.05595 0.0
C2145 C 0.53037 0.34971 0.04793 0.0
C2146 C 0.53481 0.35546 0.06359 0.0
C2147 C 0.54484 0.36959 0.06589 0.0
C2148 C 0.52828 0.34731 0.07765 0.0
C2149 C 0.52026 0.33415 0.0448 0.0
C2150 C 0.51185 0.34694 0.08061 0.0
C2151 C 0.50514 0.33768 0.0926 0.0
C2152 C 0.51477 0.32865 0.1019 0.0
C2153 C 0.53141 0.32984 0.09958 0.0
C2154 C 0.53813 0.33914 0.08751 0.0
H2155 H 0.52128 0.32947 0.03225 0.0
H2156 H 0.52375 0.32489 0.05291 0.0
H2157 H 0.50753 0.33618 0.04699 0.0
H2158 H 0.50411 0.35338 0.07326 0.0
H2159 H 0.49231 0.33714 0.09416 0.0
H2160 H 0.64007 0.24002 0.25231 0.0
H2161 H 0.61801 0.24417 0.23419 0.0
H2162 H 0.64367 0.28709 0.21838 0.0
H2163 H 0.66606 0.28278 0.23617 0.0
H2164 H 0.6001 0.2713 0.23482 0.0
H2165 H 0.62978 0.26218 0.17631 0.0
H2166 H 0.63784 0.25564 0.1947 0.0
H2167 H 0.64 0.27646 0.19029 0.0
C2168 C 0.64117 0.25019 0.24477 0.0
C2169 C 0.65487 0.26103 0.24563 0.0
C2170 C 0.6285 0.2526 0.23451 0.0
C2171 C 0.62928 0.26584 0.22484 0.0
C2172 C 0.64294 0.27666 0.22557 0.0
H2173 H 0.55616 0.29472 0.1588 0.0
H2174 H 0.58077 0.29431 0.17477 0.0
C2175 C 0.65564 0.27427 0.23586 0.0
C2176 C 0.61544 0.26858 0.21455 0.0
H2177 H 0.60318 0.2696 0.1757 0.0
C2178 C 0.60079 0.27097 0.2219 0.0
C2179 C 0.61642 0.26829 0.1977 0.0
C2180 C 0.6318 0.26539 0.18921 0.0
C2181 C 0.58701 0.27287 0.21285 0.0
C2182 C 0.58786 0.27208 0.196 0.0
C2183 C 0.6026 0.27017 0.18863 0.0
C2184 C 0.57333 0.27221 0.18591 0.0
C2185 C 0.57163 0.27565 0.2214 0.0
C2186 C 0.56122 0.25976 0.18667 0.0
C2187 C 0.54724 0.25994 0.17762 0.0
C2188 C 0.5451 0.27257 0.16754 0.0
C2189 C 0.55743 0.28487 0.1665 0.0
C2190 C 0.57148 0.28465 0.17558 0.0
H2191 H 0.57388 0.2803 0.23391 0.0
H2192 H 0.5647 0.28425 0.21511 0.0
H2193 H 0.56418 0.26412 0.22173 0.0
H2194 H 0.56257 0.2499 0.19435 0.0
H2195 H 0.53805 0.25022 0.17864 0.0
H2196 H 0.44875 0.16787 0.99091 0.0
H2197 H 0.45714 0.19023 0.00983 0.0
H2198 H 0.47903 0.1576 0.03993 0.0
H2199 H 0.47106 0.13532 0.02095 0.0
H2200 H 0.44803 0.19249 0.04201 0.0
H2201 H 0.51402 0.19432 0.0365 0.0
H2202 H 0.50053 0.18414 0.02176 0.0
H2203 H 0.5047 0.17478 0.04002 0.0
C2204 C 0.45561 0.16553 0.00142 0.0
C2205 C 0.45923 0.14985 0.00448 0.0
C2206 C 0.46032 0.17828 0.01223 0.0
C2207 C 0.46886 0.17557 0.02616 0.0
C2208 C 0.47269 0.15998 0.02911 0.0
H2209 H 0.49999 0.22967 0.11248 0.0
H2210 H 0.49384 0.20919 0.09104 0.0
C2211 C 0.46796 0.14724 0.01835 0.0
C2212 C 0.47286 0.1888 0.03816 0.0
H2213 H 0.50398 0.20912 0.05874 0.0
C2214 C 0.46026 0.19626 0.04557 0.0
C2215 C 0.48882 0.19359 0.04279 0.0
C2216 C 0.50282 0.18641 0.03476 0.0
C2217 C 0.46319 0.2081 0.05785 0.0
C2218 C 0.47915 0.21277 0.06261 0.0
C2219 C 0.49176 0.20545 0.05508 0.0
C2220 C 0.48298 0.22521 0.07546 0.0
C2221 C 0.44917 0.2152 0.06594 0.0
C2222 C 0.47907 0.24099 0.07366 0.0
C2223 C 0.48252 0.25268 0.08588 0.0
C2224 C 0.49003 0.24883 0.10008 0.0
C2225 C 0.49414 0.23302 0.10174 0.0
C2226 C 0.49067 0.22133 0.0895 0.0
H2227 H 0.43783 0.20764 0.0636 0.0
H2228 H 0.45117 0.2167 0.07905 0.0
H2229 H 0.44772 0.22719 0.06131 0.0
H2230 H 0.47341 0.24427 0.06279 0.0
H2231 H 0.47929 0.26477 0.08414 0.0
H2232 H 0.28164 0.38539 0.74674 0.0
H2233 H 0.29753 0.41111 0.74984 0.0
H2234 H 0.26747 0.43091 0.7151 0.0
H2235 H 0.2513 0.40524 0.71221 0.0
H2236 H 0.31497 0.42753 0.72856 0.0
H2237 H 0.26695 0.46416 0.75148 0.0
H2238 H 0.26461 0.44255 0.74981 0.0
H2239 H 0.26242 0.45403 0.73245 0.0
C2240 C 0.27844 0.39522 0.73974 0.0
C2241 C 0.26521 0.39334 0.72927 0.0
C2242 C 0.2875 0.40992 0.74155 0.0
C2243 C 0.28355 0.42302 0.73289 0.0
C2244 C 0.27049 0.42111 0.72222 0.0
H2245 H 0.35261 0.50687 0.72758 0.0
H2246 H 0.33404 0.48362 0.72029 0.0
C2247 C 0.26131 0.40643 0.72053 0.0
C2248 C 0.29339 0.43852 0.73491 0.0
H2249 H 0.29188 0.47808 0.74624 0.0
C2250 C 0.30992 0.4386 0.73239 0.0
C2251 C 0.28679 0.45291 0.74005 0.0
C2252 C 0.26925 0.45344 0.74376 0.0
C2253 C 0.32009 0.4526 0.73509 0.0
C2254 C 0.31347 0.46706 0.73999 0.0
C2255 C 0.2969 0.46703 0.74232 0.0
C2256 C 0.32366 0.48207 0.74379 0.0
C2257 C 0.33788 0.45159 0.73327 0.0
C2258 C 0.32342 0.48941 0.75917 0.0
C2259 C 0.33381 0.50285 0.7633 0.0
C2260 C 0.34471 0.50917 0.75212 0.0
C2261 C 0.34449 0.50218 0.73652 0.0
C2262 C 0.33396 0.48883 0.73236 0.0
H2263 H 0.34123 0.43903 0.7335 0.0
H2264 H 0.34165 0.45631 0.72163 0.0
H2265 H 0.34463 0.45883 0.74289 0.0
H2266 H 0.31551 0.48445 0.76816 0.0
H2267 H 0.33363 0.50795 0.7754 0.0
H2268 H 0.28454 0.69775 0.81508 0.0
H2269 H 0.30316 0.67684 0.81168 0.0
H2270 H 0.28467 0.66515 0.76409 0.0
H2271 H 0.26609 0.68615 0.76732 0.0
H2272 H 0.28582 0.63871 0.78261 0.0
H2273 H 0.34391 0.67535 0.78505 0.0
H2274 H 0.33101 0.67951 0.80149 0.0
H2275 H 0.32511 0.68383 0.78161 0.0
C2276 C 0.28463 0.69094 0.80377 0.0
C2277 C 0.27382 0.69364 0.79146 0.0
C2278 C 0.2953 0.67901 0.80185 0.0
C2279 C 0.29544 0.6696 0.78756 0.0
C2280 C 0.28479 0.67233 0.77519 0.0
H2281 H 0.36238 0.59795 0.76155 0.0
H2282 H 0.34713 0.62179 0.76248 0.0
C2283 C 0.27412 0.68426 0.7771 0.0
C2284 C 0.30594 0.6562 0.78591 0.0
H2285 H 0.34492 0.64712 0.7873 0.0
C2286 C 0.29874 0.64056 0.78352 0.0
C2287 C 0.32281 0.65866 0.78695 0.0
C2288 C 0.33121 0.67525 0.78876 0.0
C2289 C 0.30793 0.62727 0.78257 0.0
C2290 C 0.32474 0.62968 0.78426 0.0
C2291 C 0.33201 0.64533 0.78618 0.0
C2292 C 0.33486 0.61598 0.7843 0.0
C2293 C 0.29956 0.61075 0.77973 0.0
C2294 C 0.33331 0.60511 0.7965 0.0
C2295 C 0.34197 0.59153 0.79603 0.0
C2296 C 0.3524 0.58859 0.78335 0.0
C2297 C 0.3544 0.59984 0.77145 0.0
C2298 C 0.34572 0.61346 0.77195 0.0
H2299 H 0.28727 0.61124 0.77484 0.0
H2300 H 0.30641 0.60331 0.77133 0.0
H2301 H 0.29863 0.60472 0.79122 0.0
H2302 H 0.32517 0.60699 0.80627 0.0
H2303 H 0.34022 0.58318 0.80544 0.0
H2304 H 0.87305 0.50769 0.4581 0.0
H2305 H 0.85178 0.48838 0.46671 0.0
H2306 H 0.83382 0.52493 0.49817 0.0
H2307 H 0.85509 0.54426 0.4897 0.0
H2308 H 0.83758 0.497 0.51304 0.0
H2309 H 0.80417 0.48453 0.45587 0.0
H2310 H 0.82513 0.4817 0.45452 0.0
H2311 H 0.81879 0.50141 0.45904 0.0
C2312 C 0.8644 0.51167 0.46665 0.0
C2313 C 0.86572 0.52747 0.47324 0.0
C2314 C 0.85226 0.50063 0.47154 0.0
C2315 C 0.84114 0.50528 0.48295 0.0
C2316 C 0.84229 0.52112 0.48935 0.0
H2317 H 0.75301 0.45276 0.50875 0.0
H2318 H 0.77364 0.47219 0.49938 0.0
C2319 C 0.85445 0.53212 0.48453 0.0
C2320 C 0.82878 0.49348 0.48884 0.0
H2321 H 0.79695 0.46762 0.47706 0.0
C2322 C 0.82866 0.4906 0.50519 0.0
C2323 C 0.81708 0.48528 0.47858 0.0
C2324 C 0.81615 0.48847 0.46105 0.0
C2325 C 0.81722 0.47964 0.51157 0.0
C2326 C 0.8058 0.47111 0.50125 0.0
C2327 C 0.80583 0.47409 0.48491 0.0
C2328 C 0.79344 0.45934 0.5072 0.0
C2329 C 0.81725 0.47755 0.52935 0.0
C2330 C 0.79776 0.44563 0.51464 0.0
C2331 C 0.78599 0.43452 0.52011 0.0
C2332 C 0.7697 0.43686 0.51807 0.0
C2333 C 0.76545 0.45058 0.51052 0.0
C2334 C 0.77721 0.4617 0.50513 0.0
H2335 H 0.82393 0.48782 0.53596 0.0
H2336 H 0.80487 0.47627 0.53398 0.0
H2337 H 0.82314 0.46653 0.53189 0.0
H2338 H 0.81023 0.44344 0.51606 0.0
H2339 H 0.78967 0.42403 0.52576 0.0
H2340 H 0.73381 0.87288 0.75732 0.0
H2341 H 0.71486 0.89351 0.75537 0.0
H2342 H 0.69176 0.87763 0.79824 0.0
H2343 H 0.71064 0.85696 0.80027 0.0
H2344 H 0.67018 0.88514 0.77398 0.0
H2345 H 0.71861 0.93354 0.7859 0.0
H2346 H 0.72201 0.92005 0.76919 0.0
H2347 H 0.72126 0.91275 0.789 0.0
C2348 C 0.72467 0.87377 0.76631 0.0
C2349 C 0.72382 0.86341 0.77904 0.0
C2350 C 0.71385 0.88553 0.76516 0.0
C2351 C 0.70209 0.88724 0.77681 0.0
C2352 C 0.70077 0.8765 0.78914 0.0
H2353 H 0.65539 0.97183 0.80368 0.0
H2354 H 0.66982 0.94764 0.80232 0.0
C2355 C 0.71154 0.86468 0.79026 0.0
C2356 C 0.69176 0.90077 0.77667 0.0
H2357 H 0.69295 0.9416 0.78021 0.0
C2358 C 0.67512 0.8975 0.7753 0.0
C2359 C 0.69827 0.91686 0.77859 0.0
C2360 C 0.716 0.92108 0.7809 0.0
C2361 C 0.66479 0.90994 0.77577 0.0
C2362 C 0.67134 0.92602 0.77749 0.0
C2363 C 0.68798 0.92925 0.77881 0.0
C2364 C 0.66125 0.93977 0.77863 0.0
C2365 C 0.64697 0.90578 0.77487 0.0
C2366 C 0.65148 0.94327 0.7658 0.0
C2367 C 0.64312 0.95711 0.76656 0.0
C2368 C 0.64455 0.96772 0.78011 0.0
C2369 C 0.65406 0.96395 0.79305 0.0
C2370 C 0.66233 0.95012 0.7923 0.0
H2371 H 0.64379 0.89299 0.77725 0.0
H2372 H 0.64066 0.91342 0.78356 0.0
H2373 H 0.64256 0.90796 0.76272 0.0
H2374 H 0.6507 0.93558 0.75502 0.0
H2375 H 0.63594 0.95974 0.75637 0.0
H2376 H 0.64623 0.49905 0.9654 0.0
H2377 H 0.66728 0.52007 0.97275 0.0
H2378 H 0.64707 0.55149 0.94014 0.0
H2379 H 0.62608 0.53042 0.93258 0.0
H2380 H 0.67997 0.55308 0.93911 0.0
H2381 H 0.65912 0.55895 0.00161 0.0
H2382 H 0.66374 0.53899 0.99561 0.0
H2383 H 0.64746 0.54773 0.98608 0.0
C2384 C 0.64632 0.51043 0.95977 0.0
C2385 C 0.63446 0.51318 0.94854 0.0
C2386 C 0.6583 0.52242 0.96401 0.0
C2387 C 0.6585 0.53744 0.95726 0.0
C2388 C 0.64706 0.54 0.94555 0.0
H2389 H 0.70775 0.62533 0.99715 0.0
H2390 H 0.68804 0.604 0.98738 0.0
C2391 C 0.63513 0.52795 0.94121 0.0
C2392 C 0.67038 0.55061 0.9627 0.0
H2393 H 0.68379 0.57321 0.99574 0.0
C2394 C 0.68081 0.55752 0.95148 0.0
C2395 C 0.67123 0.55655 0.97879 0.0
C2396 C 0.65969 0.5503 0.99119 0.0
C2397 C 0.69226 0.57009 0.95598 0.0
C2398 C 0.69351 0.57561 0.97219 0.0
C2399 C 0.68292 0.56884 0.98335 0.0
C2400 C 0.70555 0.58855 0.97786 0.0
C2401 C 0.70268 0.57752 0.94328 0.0
C2402 C 0.72193 0.58684 0.97593 0.0
C2403 C 0.73323 0.59905 0.98141 0.0
C2404 C 0.72834 0.61312 0.98911 0.0
C2405 C 0.71192 0.61466 0.99127 0.0
C2406 C 0.70063 0.60249 0.98569 0.0
H2407 H 0.69727 0.57515 0.93118 0.0
H2408 H 0.7048 0.59069 0.94556 0.0
H2409 H 0.71442 0.57227 0.94331 0.0
H2410 H 0.726 0.57601 0.97029 0.0
H2411 H 0.74579 0.59742 0.97967 0.0
H2412 H 0.24599 0.64688 0.22227 0.0
H2413 H 0.22906 0.62228 0.22583 0.0
H2414 H 0.19745 0.64863 0.25558 0.0
H2415 H 0.21483 0.67309 0.25294 0.0
H2416 H 0.20392 0.62158 0.26864 0.0
H2417 H 0.1866 0.6082 0.20522 0.0
H2418 H 0.20785 0.60999 0.20838 0.0
H2419 H 0.19656 0.62716 0.21216 0.0
C2420 C 0.23551 0.64745 0.22968 0.0
C2421 C 0.2318 0.66202 0.23731 0.0
C2422 C 0.2257 0.6334 0.2315 0.0
C2423 C 0.21182 0.63367 0.24072 0.0
C2424 C 0.20804 0.64817 0.2483 0.0
H2425 H 0.13307 0.56113 0.24337 0.0
H2426 H 0.15149 0.58426 0.23813 0.0
C2427 C 0.21793 0.66219 0.24664 0.0
C2428 C 0.20155 0.61874 0.24305 0.0
H2429 H 0.17966 0.58776 0.22325 0.0
C2430 C 0.19858 0.6142 0.25872 0.0
C2431 C 0.19446 0.60923 0.23009 0.0
C2432 C 0.19638 0.61396 0.21303 0.0
C2433 C 0.18871 0.60042 0.26181 0.0
C2434 C 0.18203 0.59062 0.24884 0.0
C2435 C 0.18497 0.59518 0.23317 0.0
C2436 C 0.1713 0.57605 0.25132 0.0
C2437 C 0.18516 0.5968 0.27895 0.0
C2438 C 0.17644 0.56353 0.26013 0.0
C2439 C 0.16586 0.55036 0.26332 0.0
C2440 C 0.15004 0.54934 0.25749 0.0
C2441 C 0.14516 0.56154 0.24806 0.0
C2442 C 0.15568 0.57478 0.24504 0.0
H2443 H 0.1875 0.60761 0.28709 0.0
H2444 H 0.17251 0.59211 0.28032 0.0
H2445 H 0.19298 0.58759 0.28279 0.0
H2446 H 0.18858 0.56405 0.26471 0.0
H2447 H 0.17004 0.54106 0.27047 0.0
H2448 H 0.88086 0.53399 0.0863 0.0
H2449 H 0.86601 0.55746 0.08154 0.0
H2450 H 0.84659 0.53423 0.03786 0.0
H2451 H 0.86125 0.51075 0.04258 0.0
H2452 H 0.86875 0.57637 0.05327 0.0
H2453 H 0.80709 0.54961 0.06259 0.0
H2454 H 0.82459 0.5411 0.07021 0.0
H2455 H 0.8189 0.53775 0.04955 0.0
C2456 C 0.87324 0.53382 0.0758 0.0
C2457 C 0.87219 0.52054 0.06481 0.0
C2458 C 0.86485 0.54724 0.07307 0.0
C2459 C 0.8551 0.54748 0.05944 0.0
C2460 C 0.8539 0.53418 0.04855 0.0
H2461 H 0.81893 0.61575 0.00134 0.0
H2462 H 0.83499 0.59771 0.01538 0.0
C2463 C 0.86237 0.52084 0.0512 0.0
C2464 C 0.8467 0.56185 0.0561 0.0
H2465 H 0.80959 0.5741 0.04897 0.0
C2466 C 0.85581 0.57599 0.05256 0.0
C2467 C 0.82983 0.56136 0.0554 0.0
C2468 C 0.81949 0.54669 0.05978 0.0
C2469 C 0.84848 0.58939 0.04745 0.0
C2470 C 0.83165 0.58853 0.04578 0.0
C2471 C 0.82251 0.5747 0.05019 0.0
C2472 C 0.82335 0.60115 0.0381 0.0
C2473 C 0.8588 0.60423 0.04358 0.0
C2474 C 0.81153 0.60916 0.04625 0.0
C2475 C 0.80232 0.61956 0.03825 0.0
C2476 C 0.80463 0.62186 0.02189 0.0
C2477 C 0.81686 0.61424 0.01394 0.0
C2478 C 0.82612 0.60399 0.02197 0.0
H2479 H 0.87058 0.6048 0.0498 0.0
H2480 H 0.86099 0.60404 0.03054 0.0
H2481 H 0.85281 0.61526 0.04694 0.0
H2482 H 0.80914 0.60702 0.05868 0.0
H2483 H 0.79293 0.62519 0.04467 0.0
H2484 H 0.144 0.05429 0.06847 0.0
H2485 H 0.15749 0.02949 0.06595 0.0
H2486 H 0.13314 0.01232 0.10767 0.0
H2487 H 0.11922 0.03698 0.11004 0.0
H2488 H 0.17725 0.01463 0.08755 0.0
H2489 H 0.12076 0.97741 0.07223 0.0
H2490 H 0.12217 0.99901 0.07202 0.0
H2491 H 0.12114 0.98933 0.09066 0.0
C2492 C 0.1415 0.04525 0.07712 0.0
C2493 C 0.1304 0.04752 0.08934 0.0
C2494 C 0.1493 0.03114 0.07573 0.0
C2495 C 0.14613 0.019 0.08649 0.0
C2496 C 0.13557 0.02146 0.09911 0.0
H2497 H 0.20306 0.9348 0.07398 0.0
H2498 H 0.18841 0.95541 0.088 0.0
C2499 C 0.12776 0.03562 0.10053 0.0
C2500 C 0.15341 0.00355 0.08386 0.0
H2501 H 0.14461 0.96455 0.0709 0.0
C2502 C 0.17014 0.00359 0.08418 0.0
C2503 C 0.14405 0.98923 0.07937 0.0
C2504 C 0.12604 0.98864 0.07841 0.0
C2505 C 0.1778 0.98984 0.07948 0.0
C2506 C 0.16845 0.97565 0.07453 0.0
C2507 C 0.15171 0.97543 0.07484 0.0
C2508 C 0.17578 0.96172 0.06691 0.0
C2509 C 0.19584 0.99087 0.07895 0.0
C2510 C 0.17298 0.958 0.0506 0.0
C2511 C 0.18124 0.94626 0.04262 0.0
C2512 C 0.19242 0.93795 0.0508 0.0
C2513 C 0.19454 0.94103 0.06735 0.0
C2514 C 0.18627 0.95286 0.07535 0.0
H2515 H 0.20119 0.00337 0.08093 0.0
H2516 H 0.20045 0.98355 0.08839 0.0
H2517 H 0.19992 0.98601 0.06725 0.0
H2518 H 0.1649 0.96466 0.04388 0.0
H2519 H 0.17926 0.94413 0.02989 0.0
loop_
_geom_bond_atom_site_label_1
_geom_bond_atom_site_label_2
_geom_bond_distance
_geom_bond_site_symmetry_2
_ccdc_geom_bond_type
C0 C1 1.386 . S
C0 C2 1.397 . S
C0 H24 0.931 . S
C1 C0 1.386 . S
C1 C5 1.397 . S
C2 C0 1.397 . S
C2 C3 1.384 . S
C2 H25 0.930 . S
C3 C2 1.384 . S
C3 C4 1.377 . S
C3 C6 1.481 . S
C4 C3 1.377 . S
C4 C5 1.389 . S
C4 H26 0.929 . S
C5 C1 1.397 . S
C5 C4 1.389 . S
C5 H27 0.931 . S
C6 C3 1.481 . S
C6 C7 1.387 . S
C6 C11 1.390 . S
C7 C6 1.387 . S
C7 C8 1.401 . S
C7 H28 0.930 . S
C8 C7 1.401 . S
C8 C9 1.376 . S
C8 C17 1.511 . S
C9 C8 1.376 . S
C9 C10 1.392 . S
C9 H30 0.931 . S
C10 C9 1.392 . S
C10 C11 1.361 . S
C10 C12 1.500 . S
C11 C6 1.390 . S
C11 C10 1.361 . S
C11 H29 0.931 . S
C12 C10 1.500 . S
C12 C13 1.371 . S
C12 C14 1.365 . S
C13 C12 1.371 . S
C13 C23 1.386 . S
C13 H31 0.931 . S
C14 C12 1.365 . S
C14 C15 1.409 . S
C14 H32 0.929 . S
C15 C14 1.409 . S
C15 C16 1.380 . S
C15 H33 0.930 . S
C16 C15 1.380 . S
C16 C23 1.357 . S
C17 C8 1.511 . S
C17 C18 1.341 . S
C17 C19 1.371 . S
C18 C17 1.341 . S
C18 C22 1.394 . S
C18 H34 0.930 . S
C19 C17 1.371 . S
C19 C20 1.392 . S
C19 H35 0.931 . S
C20 C19 1.392 . S
C20 C21 1.331 . S
C20 H38 0.932 . S
C21 C20 1.331 . S
C21 C22 1.336 . S
C22 C18 1.394 . S
C22 C21 1.336 . S
C22 H37 0.929 . S
C23 C13 1.386 . S
C23 C16 1.357 . S
C23 H36 0.928 . S
H24 C0 0.931 . S
H25 C2 0.930 . S
H26 C4 0.929 . S
H27 C5 0.931 . S
H28 C7 0.930 . S
H29 C11 0.931 . S
H30 C9 0.931 . S
H31 C13 0.931 . S
H32 C14 0.929 . S
H33 C15 0.930 . S
H34 C18 0.930 . S
H35 C19 0.931 . S
H36 C23 0.928 . S
H37 C22 0.929 . S
H38 C20 0.932 . S
C39 C40 1.386 . S
C39 C41 1.397 . S
C39 H63 0.931 . S
C40 C39 1.386 . S
C40 C44 1.397 . S
C41 C39 1.397 . S
C41 C42 1.384 . S
C41 H64 0.930 . S
C42 C41 1.384 . S
C42 C43 1.377 . S
C42 C45 1.481 . S
C43 C42 1.377 . S
C43 C44 1.389 . S
C43 H65 0.929 . S
C44 C40 1.397 . S
C44 C43 1.389 . S
C44 H66 0.931 . S
C45 C42 1.481 . S
C45 C46 1.387 . S
C45 C50 1.390 . S
C46 C45 1.387 . S
C46 C47 1.401 . S
C46 H67 0.930 . S
C47 C46 1.401 . S
C47 C48 1.376 . S
C47 C56 1.511 . S
C48 C47 1.376 . S
C48 C49 1.392 . S
C48 H69 0.931 . S
C49 C48 1.392 . S
C49 C50 1.361 . S
C49 C51 1.500 . S
C50 C45 1.390 . S
C50 C49 1.361 . S
C50 H68 0.931 . S
C51 C49 1.500 . S
C51 C52 1.371 . S
C51 C53 1.365 . S
C52 C51 1.371 . S
C52 C62 1.386 . S
C52 H70 0.931 . S
C53 C51 1.365 . S
C53 C54 1.409 . S
C53 H71 0.929 . S
C54 C53 1.409 . S
C54 C55 1.380 . S
C54 H72 0.930 . S
C55 C54 1.380 . S
C55 C62 1.357 . S
C56 C47 1.511 . S
C56 C57 1.341 . S
C56 C58 1.371 . S
C57 C56 1.341 . S
C57 C61 1.394 . S
C57 H73 0.930 . S
C58 C56 1.371 . S
C58 C59 1.392 . S
C58 H74 0.931 . S
C59 C58 1.392 . S
C59 C60 1.331 . S
C59 H77 0.932 . S
C60 C59 1.331 . S
C60 C61 1.336 . S
C61 C57 1.394 . S
C61 C60 1.336 . S
C61 H76 0.929 . S
C62 C52 1.386 . S
C62 C55 1.357 . S
C62 H75 0.928 . S
H63 C39 0.931 . S
H64 C41 0.930 . S
H65 C43 0.929 . S
H66 C44 0.931 . S
H67 C46 0.930 . S
H68 C50 0.931 . S
H69 C48 0.931 . S
H70 C52 0.931 . S
H71 C53 0.929 . S
H72 C54 0.930 . S
H73 C57 0.930 . S
H74 C58 0.931 . S
H75 C62 0.928 . S
H76 C61 0.929 . S
H77 C59 0.932 . S
C78 C79 1.386 . S
C78 C80 1.397 . S
C78 H102 0.931 . S
C79 C78 1.386 . S
C79 C83 1.397 . S
C80 C78 1.397 . S
C80 C81 1.384 . S
C80 H103 0.930 . S
C81 C80 1.384 . S
C81 C82 1.377 . S
C81 C84 1.481 . S
C82 C81 1.377 . S
C82 C83 1.389 . S
C82 H104 0.929 . S
C83 C79 1.397 . S
C83 C82 1.389 . S
C83 H105 0.931 . S
C84 C81 1.481 . S
C84 C85 1.387 . S
C84 C89 1.390 . S
C85 C84 1.387 . S
C85 C86 1.401 . S
C85 H106 0.930 . S
C86 C85 1.401 . S
C86 C87 1.376 . S
C86 C95 1.511 . S
C87 C86 1.376 . S
C87 C88 1.392 . S
C87 H108 0.931 . S
C88 C87 1.392 . S
C88 C89 1.361 . S
C88 C90 1.500 . S
C89 C84 1.390 . S
C89 C88 1.361 . S
C89 H107 0.931 . S
C90 C88 1.500 . S
C90 C91 1.371 . S
C90 C92 1.365 . S
C91 C90 1.371 . S
C91 C101 1.386 . S
C91 H109 0.931 . S
C92 C90 1.365 . S
C92 C93 1.409 . S
C92 H110 0.929 . S
C93 C92 1.409 . S
C93 C94 1.380 . S
C93 H111 0.930 . S
C94 C93 1.380 . S
C94 C101 1.357 . S
C95 C86 1.511 . S
C95 C96 1.341 . S
C95 C97 1.371 . S
C96 C95 1.341 . S
C96 C100 1.394 . S
C96 H112 0.930 . S
C97 C95 1.371 . S
C97 C98 1.392 . S
C97 H113 0.931 . S
C98 C97 1.392 . S
C98 C99 1.331 . S
C98 H116 0.932 . S
C99 C98 1.331 . S
C99 C100 1.336 . S
C100 C96 1.394 . S
C100 C99 1.336 . S
C100 H115 0.929 . S
C101 C91 1.386 . S
C101 C94 1.357 . S
C101 H114 0.928 . S
H102 C78 0.931 . S
H103 C80 0.930 . S
H104 C82 0.929 . S
H105 C83 0.931 . S
H106 C85 0.930 . S
H107 C89 0.931 . S
H108 C87 0.931 . S
H109 C91 0.931 . S
H110 C92 0.929 . S
H111 C93 0.930 . S
H112 C96 0.930 . S
H113 C97 0.931 . S
H114 C101 0.928 . S
H115 C100 0.929 . S
H116 C98 0.932 . S
C117 C118 1.386 . S
C117 C119 1.397 . S
C117 H141 0.931 . S
C118 C117 1.386 . S
C118 C122 1.397 . S
C119 C117 1.397 . S
C119 C120 1.384 . S
C119 H142 0.930 . S
C120 C119 1.384 . S
C120 C121 1.377 . S
C120 C123 1.481 . S
C121 C120 1.377 . S
C121 C122 1.389 . S
C121 H143 0.929 . S
C122 C118 1.397 . S
C122 C121 1.389 . S
C122 H144 0.931 . S
C123 C120 1.481 . S
C123 C124 1.387 . S
C123 C128 1.390 . S
C124 C123 1.387 . S
C124 C125 1.401 . S
C124 H145 0.930 . S
C125 C124 1.401 . S
C125 C126 1.376 . S
C125 C134 1.511 . S
C126 C125 1.376 . S
C126 C127 1.392 . S
C126 H147 0.931 . S
C127 C126 1.392 . S
C127 C128 1.361 . S
C127 C129 1.500 . S
C128 C123 1.390 . S
C128 C127 1.361 . S
C128 H146 0.931 . S
C129 C127 1.500 . S
C129 C130 1.371 . S
C129 C131 1.365 . S
C130 C129 1.371 . S
C130 C140 1.386 . S
C130 H148 0.931 . S
C131 C129 1.365 . S
C131 C132 1.409 . S
C131 H149 0.929 . S
C132 C131 1.409 . S
C132 C133 1.380 . S
C132 H150 0.930 . S
C133 C132 1.380 . S
C133 C140 1.357 . S
C134 C125 1.511 . S
C134 C135 1.341 . S
C134 C136 1.371 . S
C135 C134 1.341 . S
C135 C139 1.394 . S
C135 H151 0.930 . S
C136 C134 1.371 . S
C136 C137 1.392 . S
C136 H152 0.931 . S
C137 C136 1.392 . S
C137 C138 1.331 . S
C137 H155 0.932 . S
C138 C137 1.331 . S
C138 C139 1.336 . S
C139 C135 1.394 . S
C139 C138 1.336 . S
C139 H154 0.929 . S
C140 C130 1.386 . S
C140 C133 1.357 . S
C140 H153 0.928 . S
H141 C117 0.931 . S
H142 C119 0.930 . S
H143 C121 0.929 . S
H144 C122 0.931 . S
H145 C124 0.930 . S
H146 C128 0.931 . S
H147 C126 0.931 . S
H148 C130 0.931 . S
H149 C131 0.929 . S
H150 C132 0.930 . S
H151 C135 0.930 . S
H152 C136 0.931 . S
H153 C140 0.928 . S
H154 C139 0.929 . S
H155 C137 0.932 . S
C156 C157 1.386 . S
C156 C158 1.397 . S
C156 H180 0.931 . S
C157 C156 1.386 . S
C157 C161 1.397 . S
C158 C156 1.397 . S
C158 C159 1.384 . S
C158 H181 0.930 . S
C159 C158 1.384 . S
C159 C160 1.377 . S
C159 C162 1.481 . S
C160 C159 1.377 . S
C160 C161 1.389 . S
C160 H182 0.929 . S
C161 C157 1.397 . S
C161 C160 1.389 . S
C161 H183 0.931 . S
C162 C159 1.481 . S
C162 C163 1.387 . S
C162 C167 1.390 . S
C163 C162 1.387 . S
C163 C164 1.401 . S
C163 H184 0.930 . S
C164 C163 1.401 . S
C164 C165 1.376 . S
C164 C173 1.511 . S
C165 C164 1.376 . S
C165 C166 1.392 . S
C165 H186 0.931 . S
C166 C165 1.392 . S
C166 C167 1.361 . S
C166 C168 1.500 . S
C167 C162 1.390 . S
C167 C166 1.361 . S
C167 H185 0.931 . S
C168 C166 1.500 . S
C168 C169 1.371 . S
C168 C170 1.365 . S
C169 C168 1.371 . S
C169 C179 1.386 . S
C169 H187 0.931 . S
C170 C168 1.365 . S
C170 C171 1.409 . S
C170 H188 0.929 . S
C171 C170 1.409 . S
C171 C172 1.380 . S
C171 H189 0.930 . S
C172 C171 1.380 . S
C172 C179 1.357 . S
C173 C164 1.511 . S
C173 C174 1.341 . S
C173 C175 1.371 . S
C174 C173 1.341 . S
C174 C178 1.394 . S
C174 H190 0.930 . S
C175 C173 1.371 . S
C175 C176 1.392 . S
C175 H191 0.931 . S
C176 C175 1.392 . S
C176 C177 1.331 . S
C176 H194 0.932 . S
C177 C176 1.331 . S
C177 C178 1.336 . S
C178 C174 1.394 . S
C178 C177 1.336 . S
C178 H193 0.929 . S
C179 C169 1.386 . S
C179 C172 1.357 . S
C179 H192 0.928 . S
H180 C156 0.931 . S
H181 C158 0.930 . S
H182 C160 0.929 . S
H183 C161 0.931 . S
H184 C163 0.930 . S
H185 C167 0.931 . S
H186 C165 0.931 . S
H187 C169 0.931 . S
H188 C170 0.929 . S
H189 C171 0.930 . S
H190 C174 0.930 . S
H191 C175 0.931 . S
H192 C179 0.928 . S
H193 C178 0.929 . S
H194 C176 0.932 . S
C195 C196 1.386 . S
C195 C197 1.397 . S
C195 H219 0.931 . S
C196 C195 1.386 . S
C196 C200 1.397 . S
C197 C195 1.397 . S
C197 C198 1.384 . S
C197 H220 0.930 . S
C198 C197 1.384 . S
C198 C199 1.377 . S
C198 C201 1.481 . S
C199 C198 1.377 . S
C199 C200 1.389 . S
C199 H221 0.929 . S
C200 C196 1.397 . S
C200 C199 1.389 . S
C200 H222 0.931 . S
C201 C198 1.481 . S
C201 C202 1.387 . S
C201 C206 1.390 . S
C202 C201 1.387 . S
C202 C203 1.401 . S
C202 H223 0.930 . S
C203 C202 1.401 . S
C203 C204 1.376 . S
C203 C212 1.511 . S
C204 C203 1.376 . S
C204 C205 1.392 . S
C204 H225 0.931 . S
C205 C204 1.392 . S
C205 C206 1.361 . S
C205 C207 1.500 . S
C206 C201 1.390 . S
C206 C205 1.361 . S
C206 H224 0.931 . S
C207 C205 1.500 . S
C207 C208 1.371 . S
C207 C209 1.365 . S
C208 C207 1.371 . S
C208 C218 1.386 . S
C208 H226 0.931 . S
C209 C207 1.365 . S
C209 C210 1.409 . S
C209 H227 0.929 . S
C210 C209 1.409 . S
C210 C211 1.380 . S
C210 H228 0.930 . S
C211 C210 1.380 . S
C211 C218 1.357 . S
C212 C203 1.511 . S
C212 C213 1.341 . S
C212 C214 1.371 . S
C213 C212 1.341 . S
C213 C217 1.394 . S
C213 H229 0.930 . S
C214 C212 1.371 . S
C214 C215 1.392 . S
C214 H230 0.931 . S
C215 C214 1.392 . S
C215 C216 1.331 . S
C215 H233 0.932 . S
C216 C215 1.331 . S
C216 C217 1.336 . S
C217 C213 1.394 . S
C217 C216 1.336 . S
C217 H232 0.929 . S
C218 C208 1.386 . S
C218 C211 1.357 . S
C218 H231 0.928 . S
H219 C195 0.931 . S
H220 C197 0.930 . S
H221 C199 0.929 . S
H222 C200 0.931 . S
H223 C202 0.930 . S
H224 C206 0.931 . S
H225 C204 0.931 . S
H226 C208 0.931 . S
H227 C209 0.929 . S
H228 C210 0.930 . S
H229 C213 0.930 . S
H230 C214 0.931 . S
H231 C218 0.928 . S
H232 C217 0.929 . S
H233 C215 0.932 . S
C234 C235 1.386 . S
C234 C236 1.397 . S
C234 H258 0.931 . S
C235 C234 1.386 . S
C235 C239 1.397 . S
C236 C234 1.397 . S
C236 C237 1.384 . S
C236 H259 0.930 . S
C237 C236 1.384 . S
C237 C238 1.377 . S
C237 C240 1.481 . S
C238 C237 1.377 . S
C238 C239 1.389 . S
C238 H260 0.929 . S
C239 C235 1.397 . S
C239 C238 1.389 . S
C239 H261 0.931 . S
C240 C237 1.481 . S
C240 C241 1.387 . S
C240 C245 1.390 . S
C241 C240 1.387 . S
C241 C242 1.401 . S
C241 H262 0.930 . S
C242 C241 1.401 . S
C242 C243 1.376 . S
C242 C251 1.511 . S
C243 C242 1.376 . S
C243 C244 1.392 . S
C243 H264 0.931 . S
C244 C243 1.392 . S
C244 C245 1.361 . S
C244 C246 1.500 . S
C245 C240 1.390 . S
C245 C244 1.361 . S
C245 H263 0.931 . S
C246 C244 1.500 . S
C246 C247 1.371 . S
C246 C248 1.365 . S
C247 C246 1.371 . S
C247 C257 1.386 . S
C247 H265 0.931 . S
C248 C246 1.365 . S
C248 C249 1.409 . S
C248 H266 0.929 . S
C249 C248 1.409 . S
C249 C250 1.380 . S
C249 H267 0.930 . S
C250 C249 1.380 . S
C250 C257 1.357 . S
C251 C242 1.511 . S
C251 C252 1.341 . S
C251 C253 1.371 . S
C252 C251 1.341 . S
C252 C256 1.394 . S
C252 H268 0.930 . S
C253 C251 1.371 . S
C253 C254 1.392 . S
C253 H269 0.931 . S
C254 C253 1.392 . S
C254 C255 1.331 . S
C254 H272 0.932 . S
C255 C254 1.331 . S
C255 C256 1.336 . S
C256 C252 1.394 . S
C256 C255 1.336 . S
C256 H271 0.929 . S
C257 C247 1.386 . S
C257 C250 1.357 . S
C257 H270 0.928 . S
H258 C234 0.931 . S
H259 C236 0.930 . S
H260 C238 0.929 . S
H261 C239 0.931 . S
H262 C241 0.930 . S
H263 C245 0.931 . S
H264 C243 0.931 . S
H265 C247 0.931 . S
H266 C248 0.929 . S
H267 C249 0.930 . S
H268 C252 0.930 . S
H269 C253 0.931 . S
H270 C257 0.928 . S
H271 C256 0.929 . S
H272 C254 0.932 . S
C273 C274 1.386 . S
C273 C275 1.397 . S
C273 H297 0.931 . S
C274 C273 1.386 . S
C274 C278 1.397 . S
C275 C273 1.397 . S
C275 C276 1.384 . S
C275 H298 0.930 . S
C276 C275 1.384 . S
C276 C277 1.377 . S
C276 C279 1.481 . S
C277 C276 1.377 . S
C277 C278 1.389 . S
C277 H299 0.929 . S
C278 C274 1.397 . S
C278 C277 1.389 . S
C278 H300 0.931 . S
C279 C276 1.481 . S
C279 C280 1.387 . S
C279 C284 1.390 . S
C280 C279 1.387 . S
C280 C281 1.401 . S
C280 H301 0.930 . S
C281 C280 1.401 . S
C281 C282 1.376 . S
C281 C290 1.511 . S
C282 C281 1.376 . S
C282 C283 1.392 . S
C282 H303 0.931 . S
C283 C282 1.392 . S
C283 C284 1.361 . S
C283 C285 1.500 . S
C284 C279 1.390 . S
C284 C283 1.361 . S
C284 H302 0.931 . S
C285 C283 1.500 . S
C285 C286 1.371 . S
C285 C287 1.365 . S
C286 C285 1.371 . S
C286 C296 1.386 . S
C286 H304 0.931 . S
C287 C285 1.365 . S
C287 C288 1.409 . S
C287 H305 0.929 . S
C288 C287 1.409 . S
C288 C289 1.380 . S
C288 H306 0.930 . S
C289 C288 1.380 . S
C289 C296 1.357 . S
C290 C281 1.511 . S
C290 C291 1.341 . S
C290 C292 1.371 . S
C291 C290 1.341 . S
C291 C295 1.394 . S
C291 H307 0.930 . S
C292 C290 1.371 . S
C292 C293 1.392 . S
C292 H308 0.931 . S
C293 C292 1.392 . S
C293 C294 1.331 . S
C293 H311 0.932 . S
C294 C293 1.331 . S
C294 C295 1.336 . S
C295 C291 1.394 . S
C295 C294 1.336 . S
C295 H310 0.929 . S
C296 C286 1.386 . S
C296 C289 1.357 . S
C296 H309 0.928 . S
H297 C273 0.931 . S
H298 C275 0.930 . S
H299 C277 0.929 . S
H300 C278 0.931 . S
H301 C280 0.930 . S
H302 C284 0.931 . S
H303 C282 0.931 . S
H304 C286 0.931 . S
H305 C287 0.929 . S
H306 C288 0.930 . S
H307 C291 0.930 . S
H308 C292 0.931 . S
H309 C296 0.928 . S
H310 C295 0.929 . S
H311 C293 0.932 . S
C312 C313 1.386 . S
C312 C314 1.397 . S
C312 H336 0.931 . S
C313 C312 1.386 . S
C313 C317 1.397 . S
C314 C312 1.397 . S
C314 C315 1.384 . S
C314 H337 0.930 . S
C315 C314 1.384 . S
C315 C316 1.377 . S
C315 C318 1.481 . S
C316 C315 1.377 . S
C316 C317 1.389 . S
C316 H338 0.929 . S
C317 C313 1.397 . S
C317 C316 1.389 . S
C317 H339 0.931 . S
C318 C315 1.481 . S
C318 C319 1.387 . S
C318 C323 1.390 . S
C319 C318 1.387 . S
C319 C320 1.401 . S
C319 H340 0.930 . S
C320 C319 1.401 . S
C320 C321 1.376 . S
C320 C329 1.511 . S
C321 C320 1.376 . S
C321 C322 1.392 . S
C321 H342 0.931 . S
C322 C321 1.392 . S
C322 C323 1.361 . S
C322 C324 1.500 . S
C323 C318 1.390 . S
C323 C322 1.361 . S
C323 H341 0.931 . S
C324 C322 1.500 . S
C324 C325 1.371 . S
C324 C326 1.365 . S
C325 C324 1.371 . S
C325 C335 1.386 . S
C325 H343 0.931 . S
C326 C324 1.365 . S
C326 C327 1.409 . S
C326 H344 0.929 . S
C327 C326 1.409 . S
C327 C328 1.380 . S
C327 H345 0.930 . S
C328 C327 1.380 . S
C328 C335 1.357 . S
C329 C320 1.511 . S
C329 C330 1.341 . S
C329 C331 1.371 . S
C330 C329 1.341 . S
C330 C334 1.394 . S
C330 H346 0.930 . S
C331 C329 1.371 . S
C331 C332 1.392 . S
C331 H347 0.931 . S
C332 C331 1.392 . S
C332 C333 1.331 . S
C332 H350 0.932 . S
C333 C332 1.331 . S
C333 C334 1.336 . S
C334 C330 1.394 . S
C334 C333 1.336 . S
C334 H349 0.929 . S
C335 C325 1.386 . S
C335 C328 1.357 . S
C335 H348 0.928 . S
H336 C312 0.931 . S
H337 C314 0.930 . S
H338 C316 0.929 . S
H339 C317 0.931 . S
H340 C319 0.930 . S
H341 C323 0.931 . S
H342 C321 0.931 . S
H343 C325 0.931 . S
H344 C326 0.929 . S
H345 C327 0.930 . S
H346 C330 0.930 . S
H347 C331 0.931 . S
H348 C335 0.928 . S
H349 C334 0.929 . S
H350 C332 0.932 . S
C351 C352 1.386 . S
C351 C353 1.397 . S
C351 H375 0.931 . S
C352 C351 1.386 . S
C352 C356 1.397 . S
C353 C351 1.397 . S
C353 C354 1.384 . S
C353 H376 0.930 . S
C354 C353 1.384 . S
C354 C355 1.377 . S
C354 C357 1.481 . S
C355 C354 1.377 . S
C355 C356 1.389 . S
C355 H377 0.929 . S
C356 C352 1.397 . S
C356 C355 1.389 . S
C356 H378 0.931 . S
C357 C354 1.481 . S
C357 C358 1.387 . S
C357 C362 1.390 . S
C358 C357 1.387 . S
C358 C359 1.401 . S
C358 H379 0.930 . S
C359 C358 1.401 . S
C359 C360 1.376 . S
C359 C368 1.511 . S
C360 C359 1.376 . S
C360 C361 1.392 . S
C360 H381 0.931 . S
C361 C360 1.392 . S
C361 C362 1.361 . S
C361 C363 1.500 . S
C362 C357 1.390 . S
C362 C361 1.361 . S
C362 H380 0.931 . S
C363 C361 1.500 . S
C363 C364 1.371 . S
C363 C365 1.365 . S
C364 C363 1.371 . S
C364 C374 1.386 . S
C364 H382 0.931 . S
C365 C363 1.365 . S
C365 C366 1.409 . S
C365 H383 0.929 . S
C366 C365 1.409 . S
C366 C367 1.380 . S
C366 H384 0.930 . S
C367 C366 1.380 . S
C367 C374 1.357 . S
C368 C359 1.511 . S
C368 C369 1.341 . S
C368 C370 1.371 . S
C369 C368 1.341 . S
C369 C373 1.394 . S
C369 H385 0.930 . S
C370 C368 1.371 . S
C370 C371 1.392 . S
C370 H386 0.931 . S
C371 C370 1.392 . S
C371 C372 1.331 . S
C371 H389 0.932 . S
C372 C371 1.331 . S
C372 C373 1.336 . S
C373 C369 1.394 . S
C373 C372 1.336 . S
C373 H388 0.929 . S
C374 C364 1.386 . S
C374 C367 1.357 . S
C374 H387 0.928 . S
H375 C351 0.931 . S
H376 C353 0.930 . S
H377 C355 0.929 . S
H378 C356 0.931 . S
H379 C358 0.930 . S
H380 C362 0.931 . S
H381 C360 0.931 . S
H382 C364 0.931 . S
H383 C365 0.929 . S
H384 C366 0.930 . S
H385 C369 0.930 . S
H386 C370 0.931 . S
H387 C374 0.928 . S
H388 C373 0.929 . S
H389 C371 0.932 . S
C390 C391 1.386 . S
C390 C392 1.397 . S
C390 H414 0.931 . S
C391 C390 1.386 . S
C391 C395 1.397 . S
C392 C390 1.397 . S
C392 C393 1.384 . S
C392 H415 0.930 . S
C393 C392 1.384 . S
C393 C394 1.377 . S
C393 C396 1.481 . S
C394 C393 1.377 . S
C394 C395 1.389 . S
C394 H416 0.929 . S
C395 C391 1.397 . S
C395 C394 1.389 . S
C395 H417 0.931 . S
C396 C393 1.481 . S
C396 C397 1.387 . S
C396 C401 1.390 . S
C397 C396 1.387 . S
C397 C398 1.401 . S
C397 H418 0.930 . S
C398 C397 1.401 . S
C398 C399 1.376 . S
C398 C407 1.511 . S
C399 C398 1.376 . S
C399 C400 1.392 . S
C399 H420 0.931 . S
C400 C399 1.392 . S
C400 C401 1.361 . S
C400 C402 1.500 . S
C401 C396 1.390 . S
C401 C400 1.361 . S
C401 H419 0.931 . S
C402 C400 1.500 . S
C402 C403 1.371 . S
C402 C404 1.365 . S
C403 C402 1.371 . S
C403 C413 1.386 . S
C403 H421 0.931 . S
C404 C402 1.365 . S
C404 C405 1.409 . S
C404 H422 0.929 . S
C405 C404 1.409 . S
C405 C406 1.380 . S
C405 H423 0.930 . S
C406 C405 1.380 . S
C406 C413 1.357 . S
C407 C398 1.511 . S
C407 C408 1.341 . S
C407 C409 1.371 . S
C408 C407 1.341 . S
C408 C412 1.394 . S
C408 H424 0.930 . S
C409 C407 1.371 . S
C409 C410 1.392 . S
C409 H425 0.931 . S
C410 C409 1.392 . S
C410 C411 1.331 . S
C410 H428 0.932 . S
C411 C410 1.331 . S
C411 C412 1.336 . S
C412 C408 1.394 . S
C412 C411 1.336 . S
C412 H427 0.929 . S
C413 C403 1.386 . S
C413 C406 1.357 . S
C413 H426 0.928 . S
H414 C390 0.931 . S
H415 C392 0.930 . S
H416 C394 0.929 . S
H417 C395 0.931 . S
H418 C397 0.930 . S
H419 C401 0.931 . S
H420 C399 0.931 . S
H421 C403 0.931 . S
H422 C404 0.929 . S
H423 C405 0.930 . S
H424 C408 0.930 . S
H425 C409 0.931 . S
H426 C413 0.928 . S
H427 C412 0.929 . S
H428 C410 0.932 . S
C429 C430 1.386 . S
C429 C431 1.397 . S
C429 H453 0.931 . S
C430 C429 1.386 . S
C430 C434 1.397 . S
C431 C429 1.397 . S
C431 C432 1.384 . S
C431 H454 0.930 . S
C432 C431 1.384 . S
C432 C433 1.377 . S
C432 C435 1.481 . S
C433 C432 1.377 . S
C433 C434 1.389 . S
C433 H455 0.929 . S
C434 C430 1.397 . S
C434 C433 1.389 . S
C434 H456 0.931 . S
C435 C432 1.481 . S
C435 C436 1.387 . S
C435 C440 1.390 . S
C436 C435 1.387 . S
C436 C437 1.401 . S
C436 H457 0.930 . S
C437 C436 1.401 . S
C437 C438 1.376 . S
C437 C446 1.511 . S
C438 C437 1.376 . S
C438 C439 1.392 . S
C438 H459 0.931 . S
C439 C438 1.392 . S
C439 C440 1.361 . S
C439 C441 1.500 . S
C440 C435 1.390 . S
C440 C439 1.361 . S
C440 H458 0.931 . S
C441 C439 1.500 . S
C441 C442 1.371 . S
C441 C443 1.365 . S
C442 C441 1.371 . S
C442 C452 1.386 . S
C442 H460 0.931 . S
C443 C441 1.365 . S
C443 C444 1.409 . S
C443 H461 0.929 . S
C444 C443 1.409 . S
C444 C445 1.380 . S
C444 H462 0.930 . S
C445 C444 1.380 . S
C445 C452 1.357 . S
C446 C437 1.511 . S
C446 C447 1.341 . S
C446 C448 1.371 . S
C447 C446 1.341 . S
C447 C451 1.394 . S
C447 H463 0.930 . S
C448 C446 1.371 . S
C448 C449 1.392 . S
C448 H464 0.931 . S
C449 C448 1.392 . S
C449 C450 1.331 . S
C449 H467 0.932 . S
C450 C449 1.331 . S
C450 C451 1.336 . S
C451 C447 1.394 . S
C451 C450 1.336 . S
C451 H466 0.929 . S
C452 C442 1.386 . S
C452 C445 1.357 . S
C452 H465 0.928 . S
H453 C429 0.931 . S
H454 C431 0.930 . S
H455 C433 0.929 . S
H456 C434 0.931 . S
H457 C436 0.930 . S
H458 C440 0.931 . S
H459 C438 0.931 . S
H460 C442 0.931 . S
H461 C443 0.929 . S
H462 C444 0.930 . S
H463 C447 0.930 . S
H464 C448 0.931 . S
H465 C452 0.928 . S
H466 C451 0.929 . S
H467 C449 0.932 . S
C468 C469 1.386 . S
C468 C470 1.397 . S
C468 H492 0.931 . S
C469 C468 1.386 . S
C469 C473 1.397 . S
C470 C468 1.397 . S
C470 C471 1.384 . S
C470 H493 0.930 . S
C471 C470 1.384 . S
C471 C472 1.377 . S
C471 C474 1.481 . S
C472 C471 1.377 . S
C472 C473 1.389 . S
C472 H494 0.929 . S
C473 C469 1.397 . S
C473 C472 1.389 . S
C473 H495 0.931 . S
C474 C471 1.481 . S
C474 C475 1.387 . S
C474 C479 1.390 . S
C475 C474 1.387 . S
C475 C476 1.401 . S
C475 H496 0.930 . S
C476 C475 1.401 . S
C476 C477 1.376 . S
C476 C485 1.511 . S
C477 C476 1.376 . S
C477 C478 1.392 . S
C477 H498 0.931 . S
C478 C477 1.392 . S
C478 C479 1.361 . S
C478 C480 1.500 . S
C479 C474 1.390 . S
C479 C478 1.361 . S
C479 H497 0.931 . S
C480 C478 1.500 . S
C480 C481 1.371 . S
C480 C482 1.365 . S
C481 C480 1.371 . S
C481 C491 1.386 . S
C481 H499 0.931 . S
C482 C480 1.365 . S
C482 C483 1.409 . S
C482 H500 0.929 . S
C483 C482 1.409 . S
C483 C484 1.380 . S
C483 H501 0.930 . S
C484 C483 1.380 . S
C484 C491 1.357 . S
C485 C476 1.511 . S
C485 C486 1.341 . S
C485 C487 1.371 . S
C486 C485 1.341 . S
C486 C490 1.394 . S
C486 H502 0.930 . S
C487 C485 1.371 . S
C487 C488 1.392 . S
C487 H503 0.931 . S
C488 C487 1.392 . S
C488 C489 1.331 . S
C488 H506 0.932 . S
C489 C488 1.331 . S
C489 C490 1.336 . S
C490 C486 1.394 . S
C490 C489 1.336 . S
C490 H505 0.929 . S
C491 C481 1.386 . S
C491 C484 1.357 . S
C491 H504 0.928 . S
H492 C468 0.931 . S
H493 C470 0.930 . S
H494 C472 0.929 . S
H495 C473 0.931 . S
H496 C475 0.930 . S
H497 C479 0.931 . S
H498 C477 0.931 . S
H499 C481 0.931 . S
H500 C482 0.929 . S
H501 C483 0.930 . S
H502 C486 0.930 . S
H503 C487 0.931 . S
H504 C491 0.928 . S
H505 C490 0.929 . S
H506 C488 0.932 . S
C507 C508 1.386 . S
C507 C509 1.397 . S
C507 H531 0.931 . S
C508 C507 1.386 . S
C508 C512 1.397 . S
C509 C507 1.397 . S
C509 C510 1.384 . S
C509 H532 0.930 . S
C510 C509 1.384 . S
C510 C511 1.377 . S
C510 C513 1.481 . S
C511 C510 1.377 . S
C511 C512 1.389 . S
C511 H533 0.929 . S
C512 C508 1.397 . S
C512 C511 1.389 . S
C512 H534 0.931 . S
C513 C510 1.481 . S
C513 C514 1.387 . S
C513 C518 1.390 . S
C514 C513 1.387 . S
C514 C515 1.401 . S
C514 H535 0.930 . S
C515 C514 1.401 . S
C515 C516 1.376 . S
C515 C524 1.511 . S
C516 C515 1.376 . S
C516 C517 1.392 . S
C516 H537 0.931 . S
C517 C516 1.392 . S
C517 C518 1.361 . S
C517 C519 1.500 . S
C518 C513 1.390 . S
C518 C517 1.361 . S
C518 H536 0.931 . S
C519 C517 1.500 . S
C519 C520 1.371 . S
C519 C521 1.365 . S
C520 C519 1.371 . S
C520 C530 1.386 . S
C520 H538 0.931 . S
C521 C519 1.365 . S
C521 C522 1.409 . S
C521 H539 0.929 . S
C522 C521 1.409 . S
C522 C523 1.380 . S
C522 H540 0.930 . S
C523 C522 1.380 . S
C523 C530 1.357 . S
C524 C515 1.511 . S
C524 C525 1.341 . S
C524 C526 1.371 . S
C525 C524 1.341 . S
C525 C529 1.394 . S
C525 H541 0.930 . S
C526 C524 1.371 . S
C526 C527 1.392 . S
C526 H542 0.931 . S
C527 C526 1.392 . S
C527 C528 1.331 . S
C527 H545 0.932 . S
C528 C527 1.331 . S
C528 C529 1.336 . S
C529 C525 1.394 . S
C529 C528 1.336 . S
C529 H544 0.929 . S
C530 C520 1.386 . S
C530 C523 1.357 . S
C530 H543 0.928 . S
H531 C507 0.931 . S
H532 C509 0.930 . S
H533 C511 0.929 . S
H534 C512 0.931 . S
H535 C514 0.930 . S
H536 C518 0.931 . S
H537 C516 0.931 . S
H538 C520 0.931 . S
H539 C521 0.929 . S
H540 C522 0.930 . S
H541 C525 0.930 . S
H542 C526 0.931 . S
H543 C530 0.928 . S
H544 C529 0.929 . S
H545 C527 0.932 . S
C546 C547 1.386 . S
C546 C548 1.397 . S
C546 H570 0.931 . S
C547 C546 1.386 . S
C547 C551 1.397 . S
C548 C546 1.397 . S
C548 C549 1.384 . S
C548 H571 0.930 . S
C549 C548 1.384 . S
C549 C550 1.377 . S
C549 C552 1.481 . S
C550 C549 1.377 . S
C550 C551 1.389 . S
C550 H572 0.929 . S
C551 C547 1.397 . S
C551 C550 1.389 . S
C551 H573 0.931 . S
C552 C549 1.481 . S
C552 C553 1.387 . S
C552 C557 1.390 . S
C553 C552 1.387 . S
C553 C554 1.401 . S
C553 H574 0.930 . S
C554 C553 1.401 . S
C554 C555 1.376 . S
C554 C563 1.511 . S
C555 C554 1.376 . S
C555 C556 1.392 . S
C555 H576 0.931 . S
C556 C555 1.392 . S
C556 C557 1.361 . S
C556 C558 1.500 . S
C557 C552 1.390 . S
C557 C556 1.361 . S
C557 H575 0.931 . S
C558 C556 1.500 . S
C558 C559 1.371 . S
C558 C560 1.365 . S
C559 C558 1.371 . S
C559 C569 1.386 . S
C559 H577 0.931 . S
C560 C558 1.365 . S
C560 C561 1.409 . S
C560 H578 0.929 . S
C561 C560 1.409 . S
C561 C562 1.380 . S
C561 H579 0.930 . S
C562 C561 1.380 . S
C562 C569 1.357 . S
C563 C554 1.511 . S
C563 C564 1.341 . S
C563 C565 1.371 . S
C564 C563 1.341 . S
C564 C568 1.394 . S
C564 H580 0.930 . S
C565 C563 1.371 . S
C565 C566 1.392 . S
C565 H581 0.931 . S
C566 C565 1.392 . S
C566 C567 1.331 . S
C566 H584 0.932 . S
C567 C566 1.331 . S
C567 C568 1.336 . S
C568 C564 1.394 . S
C568 C567 1.336 . S
C568 H583 0.929 . S
C569 C559 1.386 . S
C569 C562 1.357 . S
C569 H582 0.928 . S
H570 C546 0.931 . S
H571 C548 0.930 . S
H572 C550 0.929 . S
H573 C551 0.931 . S
H574 C553 0.930 . S
H575 C557 0.931 . S
H576 C555 0.931 . S
H577 C559 0.931 . S
H578 C560 0.929 . S
H579 C561 0.930 . S
H580 C564 0.930 . S
H581 C565 0.931 . S
H582 C569 0.928 . S
H583 C568 0.929 . S
H584 C566 0.932 . S
C585 C586 1.386 . S
C585 C587 1.397 . S
C585 H609 0.931 . S
C586 C585 1.386 . S
C586 C590 1.397 . S
C587 C585 1.397 . S
C587 C588 1.384 . S
C587 H610 0.930 . S
C588 C587 1.384 . S
C588 C589 1.377 . S
C588 C591 1.481 . S
C589 C588 1.377 . S
C589 C590 1.389 . S
C589 H611 0.929 . S
C590 C586 1.397 . S
C590 C589 1.389 . S
C590 H612 0.931 . S
C591 C588 1.481 . S
C591 C592 1.387 . S
C591 C596 1.390 . S
C592 C591 1.387 . S
C592 C593 1.401 . S
C592 H613 0.930 . S
C593 C592 1.401 . S
C593 C594 1.376 . S
C593 C602 1.511 . S
C594 C593 1.376 . S
C594 C595 1.392 . S
C594 H615 0.931 . S
C595 C594 1.392 . S
C595 C596 1.361 . S
C595 C597 1.500 . S
C596 C591 1.390 . S
C596 C595 1.361 . S
C596 H614 0.931 . S
C597 C595 1.500 . S
C597 C598 1.371 . S
C597 C599 1.365 . S
C598 C597 1.371 . S
C598 C608 1.386 . S
C598 H616 0.931 . S
C599 C597 1.365 . S
C599 C600 1.409 . S
C599 H617 0.929 . S
C600 C599 1.409 . S
C600 C601 1.380 . S
C600 H618 0.930 . S
C601 C600 1.380 . S
C601 C608 1.357 . S
C602 C593 1.511 . S
C602 C603 1.341 . S
C602 C604 1.371 . S
C603 C602 1.341 . S
C603 C607 1.394 . S
C603 H619 0.930 . S
C604 C602 1.371 . S
C604 C605 1.392 . S
C604 H620 0.931 . S
C605 C604 1.392 . S
C605 C606 1.331 . S
C605 H623 0.932 . S
C606 C605 1.331 . S
C606 C607 1.336 . S
C607 C603 1.394 . S
C607 C606 1.336 . S
C607 H622 0.929 . S
C608 C598 1.386 . S
C608 C601 1.357 . S
C608 H621 0.928 . S
H609 C585 0.931 . S
H610 C587 0.930 . S
H611 C589 0.929 . S
H612 C590 0.931 . S
H613 C592 0.930 . S
H614 C596 0.931 . S
H615 C594 0.931 . S
H616 C598 0.931 . S
H617 C599 0.929 . S
H618 C600 0.930 . S
H619 C603 0.930 . S
H620 C604 0.931 . S
H621 C608 0.928 . S
H622 C607 0.929 . S
H623 C605 0.932 . S
O624 Cd625 2.223 . S
O624 C632 1.315 . S
Cd625 O624 2.223 . S
Cd625 O628 2.297 . S
Cd625 O629 2.439 . S
Cd625 O635 2.240 . S
Cd626 O627 2.240 . S
Cd626 O634 2.223 . S
Cd626 O636 2.297 . S
Cd626 O637 2.439 . S
O627 Cd626 2.240 . S
O627 C632 1.279 . S
O628 Cd625 2.297 . S
O628 C630 1.247 . S
O629 Cd625 2.439 . S
O629 C630 1.208 . S
C630 O628 1.247 . S
C630 O629 1.208 . S
C631 O636 1.247 . S
C631 O637 1.208 . S
C632 O624 1.315 . S
C632 O627 1.279 . S
C633 O634 1.315 . S
C633 O635 1.279 . S
O634 Cd626 2.223 . S
O634 C633 1.315 . S
O635 Cd625 2.240 . S
O635 C633 1.279 . S
O636 Cd626 2.297 . S
O636 C631 1.247 . S
O637 Cd626 2.439 . S
O637 C631 1.208 . S
O638 Cd639 2.223 . S
O638 C646 1.315 . S
Cd639 O638 2.223 . S
Cd639 O642 2.297 . S
Cd639 O643 2.439 . S
Cd639 O649 2.240 . S
Cd640 O641 2.240 . S
Cd640 O648 2.223 . S
Cd640 O650 2.297 . S
Cd640 O651 2.439 . S
O641 Cd640 2.240 . S
O641 C646 1.279 . S
O642 Cd639 2.297 . S
O642 C644 1.247 . S
O643 Cd639 2.439 . S
O643 C644 1.208 . S
C644 O642 1.247 . S
C644 O643 1.208 . S
C645 O650 1.247 . S
C645 O651 1.208 . S
C646 O638 1.315 . S
C646 O641 1.279 . S
C647 O648 1.315 . S
C647 O649 1.279 . S
O648 Cd640 2.223 . S
O648 C647 1.315 . S
O649 Cd639 2.240 . S
O649 C647 1.279 . S
O650 Cd640 2.297 . S
O650 C645 1.247 . S
O651 Cd640 2.439 . S
O651 C645 1.208 . S
O652 Cd653 2.223 1_556 S
O652 C660 1.315 . S
Cd653 O652 2.223 1_554 S
Cd653 O656 2.297 . S
Cd653 O657 2.439 . S
Cd653 O663 2.240 . S
Cd654 O655 2.240 . S
Cd654 O662 2.223 . S
Cd654 O664 2.297 1_556 S
Cd654 O665 2.439 1_556 S
O655 Cd654 2.240 . S
O655 C660 1.279 . S
O656 Cd653 2.297 . S
O656 C658 1.247 . S
O657 Cd653 2.439 . S
O657 C658 1.208 . S
C658 O656 1.247 . S
C658 O657 1.208 . S
C659 O664 1.247 . S
C659 O665 1.208 . S
C660 O652 1.315 . S
C660 O655 1.279 . S
C661 O662 1.315 . S
C661 O663 1.279 1_556 S
O662 Cd654 2.223 . S
O662 C661 1.315 . S
O663 Cd653 2.240 . S
O663 C661 1.279 1_554 S
O664 Cd654 2.297 1_554 S
O664 C659 1.247 . S
O665 Cd654 2.439 1_554 S
O665 C659 1.208 . S
O666 Cd667 2.223 . S
O666 C674 1.315 . S
Cd667 O666 2.223 . S
Cd667 O670 2.297 . S
Cd667 O671 2.439 . S
Cd667 O677 2.240 . S
Cd668 O669 2.240 . S
Cd668 O676 2.223 . S
Cd668 O678 2.297 . S
Cd668 O679 2.439 . S
O669 Cd668 2.240 . S
O669 C674 1.279 . S
O670 Cd667 2.297 . S
O670 C672 1.247 . S
O671 Cd667 2.439 . S
O671 C672 1.208 . S
C672 O670 1.247 . S
C672 O671 1.208 . S
C673 O678 1.247 . S
C673 O679 1.208 . S
C674 O666 1.315 . S
C674 O669 1.279 . S
C675 O676 1.315 . S
C675 O677 1.279 . S
O676 Cd668 2.223 . S
O676 C675 1.315 . S
O677 Cd667 2.240 . S
O677 C675 1.279 . S
O678 Cd668 2.297 . S
O678 C673 1.247 . S
O679 Cd668 2.439 . S
O679 C673 1.208 . S
O680 Cd681 2.223 . S
O680 C688 1.315 . S
Cd681 O680 2.223 . S
Cd681 O684 2.297 . S
Cd681 O685 2.439 . S
Cd681 O691 2.240 . S
Cd682 O683 2.240 . S
Cd682 O690 2.223 . S
Cd682 O692 2.297 . S
Cd682 O693 2.439 . S
O683 Cd682 2.240 . S
O683 C688 1.279 . S
O684 Cd681 2.297 . S
O684 C686 1.247 . S
O685 Cd681 2.439 . S
O685 C686 1.208 . S
C686 O684 1.247 . S
C686 O685 1.208 . S
C687 O692 1.247 . S
C687 O693 1.208 . S
C688 O680 1.315 . S
C688 O683 1.279 . S
C689 O690 1.315 . S
C689 O691 1.279 . S
O690 Cd682 2.223 . S
O690 C689 1.315 . S
O691 Cd681 2.240 . S
O691 C689 1.279 . S
O692 Cd682 2.297 . S
O692 C687 1.247 . S
O693 Cd682 2.439 . S
O693 C687 1.208 . S
O694 Cd695 2.223 . S
O694 C702 1.315 . S
Cd695 O694 2.223 . S
Cd695 O698 2.297 . S
Cd695 O699 2.439 . S
Cd695 O705 2.240 . S
Cd696 O697 2.240 . S
Cd696 O704 2.223 . S
Cd696 O706 2.297 . S
Cd696 O707 2.439 . S
O697 Cd696 2.240 . S
O697 C702 1.279 . S
O698 Cd695 2.297 . S
O698 C700 1.247 . S
O699 Cd695 2.439 . S
O699 C700 1.208 . S
C700 O698 1.247 . S
C700 O699 1.208 . S
C701 O706 1.247 . S
C701 O707 1.208 . S
C702 O694 1.315 . S
C702 O697 1.279 . S
C703 O704 1.315 . S
C703 O705 1.279 . S
O704 Cd696 2.223 . S
O704 C703 1.315 . S
O705 Cd695 2.240 . S
O705 C703 1.279 . S
O706 Cd696 2.297 . S
O706 C701 1.247 . S
O707 Cd696 2.439 . S
O707 C701 1.208 . S
O708 Cd709 2.223 . S
O708 C716 1.315 . S
Cd709 O708 2.223 . S
Cd709 O712 2.297 . S
Cd709 O713 2.439 . S
Cd709 O719 2.240 . S
Cd710 O711 2.240 . S
Cd710 O718 2.223 . S
Cd710 O720 2.297 . S
Cd710 O721 2.439 . S
O711 Cd710 2.240 . S
O711 C716 1.279 . S
O712 Cd709 2.297 . S
O712 C714 1.247 . S
O713 Cd709 2.439 . S
O713 C714 1.208 . S
C714 O712 1.247 . S
C714 O713 1.208 . S
C715 O720 1.247 . S
C715 O721 1.208 . S
C716 O708 1.315 . S
C716 O711 1.279 . S
C717 O718 1.315 . S
C717 O719 1.279 . S
O718 Cd710 2.223 . S
O718 C717 1.315 . S
O719 Cd709 2.240 . S
O719 C717 1.279 . S
O720 Cd710 2.297 . S
O720 C715 1.247 . S
O721 Cd710 2.439 . S
O721 C715 1.208 . S
O722 Cd723 2.223 1_545 S
O722 C730 1.315 . S
Cd723 O722 2.223 1_565 S
Cd723 O726 2.297 . S
Cd723 O727 2.439 . S
Cd723 O733 2.240 1_565 S
Cd724 O725 2.240 . S
Cd724 O732 2.223 . S
Cd724 O734 2.297 . S
Cd724 O735 2.439 1_545 S
O725 Cd724 2.240 . S
O725 C730 1.279 . S
O726 Cd723 2.297 . S
O726 C728 1.247 . S
O727 Cd723 2.439 . S
O727 C728 1.208 . S
C728 O726 1.247 . S
C728 O727 1.208 . S
C729 O734 1.247 1_565 S
C729 O735 1.208 . S
C730 O722 1.315 . S
C730 O725 1.279 . S
C731 O732 1.315 . S
C731 O733 1.279 . S
O732 Cd724 2.223 . S
O732 C731 1.315 . S
O733 Cd723 2.240 1_545 S
O733 C731 1.279 . S
O734 Cd724 2.297 . S
O734 C729 1.247 1_545 S
O735 Cd724 2.439 1_565 S
O735 C729 1.208 . S
O736 Cd737 2.223 . S
O736 C744 1.315 . S
Cd737 O736 2.223 . S
Cd737 O740 2.297 1_655 S
Cd737 O741 2.439 1_655 S
Cd737 O747 2.240 . S
Cd738 O739 2.240 . S
Cd738 O746 2.223 1_455 S
Cd738 O748 2.297 . S
Cd738 O749 2.439 . S
O739 Cd738 2.240 . S
O739 C744 1.279 1_455 S
O740 Cd737 2.297 1_455 S
O740 C742 1.247 . S
O741 Cd737 2.439 1_455 S
O741 C742 1.208 . S
C742 O740 1.247 . S
C742 O741 1.208 . S
C743 O748 1.247 . S
C743 O749 1.208 . S
C744 O736 1.315 . S
C744 O739 1.279 1_655 S
C745 O746 1.315 . S
C745 O747 1.279 . S
O746 Cd738 2.223 1_655 S
O746 C745 1.315 . S
O747 Cd737 2.240 . S
O747 C745 1.279 . S
O748 Cd738 2.297 . S
O748 C743 1.247 . S
O749 Cd738 2.439 . S
O749 C743 1.208 . S
O750 Cd751 2.223 . S
O750 C758 1.315 . S
Cd751 O750 2.223 . S
Cd751 O754 2.297 . S
Cd751 O755 2.439 . S
Cd751 O761 2.240 . S
Cd752 O753 2.240 . S
Cd752 O760 2.223 . S
Cd752 O762 2.297 . S
Cd752 O763 2.439 . S
O753 Cd752 2.240 . S
O753 C758 1.279 . S
O754 Cd751 2.297 . S
O754 C756 1.247 . S
O755 Cd751 2.439 . S
O755 C756 1.208 . S
C756 O754 1.247 . S
C756 O755 1.208 . S
C757 O762 1.247 . S
C757 O763 1.208 . S
C758 O750 1.315 . S
C758 O753 1.279 . S
C759 O760 1.315 . S
C759 O761 1.279 . S
O760 Cd752 2.223 . S
O760 C759 1.315 . S
O761 Cd751 2.240 . S
O761 C759 1.279 . S
O762 Cd752 2.297 . S
O762 C757 1.247 . S
O763 Cd752 2.439 . S
O763 C757 1.208 . S
O764 Cd765 2.223 1_655 S
O764 C772 1.315 . S
Cd765 O764 2.223 1_455 S
Cd765 O768 2.297 . S
Cd765 O769 2.439 . S
Cd765 O775 2.240 . S
Cd766 O767 2.240 . S
Cd766 O774 2.223 . S
Cd766 O776 2.297 1_655 S
Cd766 O777 2.439 1_655 S
O767 Cd766 2.240 . S
O767 C772 1.279 . S
O768 Cd765 2.297 . S
O768 C770 1.247 . S
O769 Cd765 2.439 . S
O769 C770 1.208 . S
C770 O768 1.247 . S
C770 O769 1.208 . S
C771 O776 1.247 . S
C771 O777 1.208 . S
C772 O764 1.315 . S
C772 O767 1.279 . S
C773 O774 1.315 . S
C773 O775 1.279 1_655 S
O774 Cd766 2.223 . S
O774 C773 1.315 . S
O775 Cd765 2.240 . S
O775 C773 1.279 1_455 S
O776 Cd766 2.297 1_455 S
O776 C771 1.247 . S
O777 Cd766 2.439 1_455 S
O777 C771 1.208 . S
O778 Cd779 2.223 . S
O778 C786 1.315 . S
Cd779 O778 2.223 . S
Cd779 O782 2.297 . S
Cd779 O783 2.439 . S
Cd779 O789 2.240 . S
Cd780 O781 2.240 . S
Cd780 O788 2.223 . S
Cd780 O790 2.297 . S
Cd780 O791 2.439 . S
O781 Cd780 2.240 . S
O781 C786 1.279 . S
O782 Cd779 2.297 . S
O782 C784 1.247 . S
O783 Cd779 2.439 . S
O783 C784 1.208 . S
C784 O782 1.247 . S
C784 O783 1.208 . S
C785 O790 1.247 . S
C785 O791 1.208 . S
C786 O778 1.315 . S
C786 O781 1.279 . S
C787 O788 1.315 . S
C787 O789 1.279 . S
O788 Cd780 2.223 . S
O788 C787 1.315 . S
O789 Cd779 2.240 . S
O789 C787 1.279 . S
O790 Cd780 2.297 . S
O790 C785 1.247 . S
O791 Cd780 2.439 . S
O791 C785 1.208 . S
H792 C800 0.929 . S
H793 C802 0.930 . S
H794 C804 0.930 . S
H795 C807 0.929 . S
H796 C810 0.930 . S
H797 C812 0.960 . S
H798 C812 0.960 . S
H799 C812 0.960 . S
C800 H792 0.929 . S
C800 C801 1.377 . S
C800 C802 1.384 . S
C801 C800 1.377 . S
C801 C807 1.390 . S
C802 H793 0.930 . S
C802 C800 1.384 . S
C802 C803 1.372 . S
C803 C802 1.372 . S
C803 C804 1.400 . S
C803 C808 1.490 . S
C804 H794 0.930 . S
C804 C803 1.400 . S
C804 C807 1.386 . S
H805 C821 0.930 . S
H806 C822 0.931 . S
C807 H795 0.929 . S
C807 C801 1.390 . S
C807 C804 1.386 . S
C808 C803 1.490 . S
C808 C810 1.395 . S
C808 C811 1.403 . S
H809 C815 0.930 . S
C810 H796 0.930 . S
C810 C808 1.395 . S
C810 C813 1.403 . S
C811 C808 1.403 . S
C811 C812 1.524 . S
C811 C815 1.400 . S
C812 H797 0.960 . S
C812 H798 0.960 . S
C812 H799 0.960 . S
C812 C811 1.524 . S
C813 C810 1.403 . S
C813 C814 1.392 . S
C813 C817 1.495 . S
C814 C813 1.392 . S
C814 C815 1.385 . S
C814 C816 1.478 . S
C815 H809 0.930 . S
C815 C811 1.400 . S
C815 C814 1.385 . S
C816 C814 1.478 . S
C816 C818 1.381 . S
C816 C822 1.383 . S
C817 C813 1.495 . S
C817 H823 0.959 . S
C817 H824 0.961 . S
C817 H825 0.960 . S
C818 C816 1.381 . S
C818 C819 1.394 . S
C818 H826 0.930 . S
C819 C818 1.394 . S
C819 C820 1.383 1_556 S
C819 H827 0.929 . S
C820 C819 1.383 1_554 S
C820 C821 1.377 . S
C821 H805 0.930 . S
C821 C820 1.377 . S
C821 C822 1.379 1_554 S
C822 H806 0.931 . S
C822 C816 1.383 . S
C822 C821 1.379 1_556 S
H823 C817 0.959 . S
H824 C817 0.961 . S
H825 C817 0.960 . S
H826 C818 0.930 . S
H827 C819 0.929 . S
H828 C836 0.929 . S
H829 C838 0.930 1_455 S
H830 C840 0.930 . S
H831 C843 0.929 . S
H832 C846 0.930 . S
H833 C848 0.960 . S
H834 C848 0.960 . S
H835 C848 0.960 . S
C836 H828 0.929 . S
C836 C837 1.377 . S
C836 C838 1.384 . S
C837 C836 1.377 . S
C837 C843 1.390 . S
C838 H829 0.930 1_655 S
C838 C836 1.384 . S
C838 C839 1.392 . S
C839 C838 1.392 . S
C839 C840 1.434 . S
C839 C844 1.439 1_655 S
C840 H830 0.930 . S
C840 C839 1.434 . S
C840 C843 1.386 . S
H841 C857 0.930 . S
H842 C858 0.931 . S
C843 H831 0.929 . S
C843 C837 1.390 . S
C843 C840 1.386 . S
C844 C839 1.439 1_455 S
C844 C846 1.395 . S
C844 C847 1.403 . S
H845 C851 0.930 . S
C846 H832 0.930 . S
C846 C844 1.395 . S
C846 C849 1.403 . S
C847 C844 1.403 . S
C847 C848 1.524 1_455 S
C847 C851 1.400 . S
C848 H833 0.960 . S
C848 H834 0.960 . S
C848 H835 0.960 . S
C848 C847 1.524 1_655 S
C849 C846 1.403 . S
C849 C850 1.392 . S
C849 C853 1.495 . S
C850 C849 1.392 . S
C850 C851 1.385 . S
C850 C852 1.478 . S
C851 H845 0.930 . S
C851 C847 1.400 . S
C851 C850 1.385 . S
C852 C850 1.478 . S
C852 C854 1.381 . S
C852 C858 1.383 . S
C853 C849 1.495 . S
C853 H859 0.959 . S
C853 H860 0.961 . S
C853 H861 0.960 . S
C854 C852 1.381 . S
C854 C855 1.394 . S
C854 H862 0.930 . S
C855 C854 1.394 . S
C855 C856 1.383 . S
C855 H863 0.929 . S
C856 C855 1.383 . S
C856 C857 1.377 . S
C857 H841 0.930 . S
C857 C856 1.377 . S
C857 C858 1.379 . S
C858 H842 0.931 . S
C858 C852 1.383 . S
C858 C857 1.379 . S
H859 C853 0.959 . S
H860 C853 0.961 . S
H861 C853 0.960 . S
H862 C854 0.930 . S
H863 C855 0.929 . S
H864 C872 0.929 . S
H865 C874 0.930 . S
H866 C876 0.930 . S
H867 C879 0.929 . S
H868 C882 0.930 . S
H869 C884 0.960 . S
H870 C884 0.960 . S
H871 C884 0.960 . S
C872 H864 0.929 . S
C872 C873 1.377 . S
C872 C874 1.384 . S
C873 C872 1.377 . S
C873 C879 1.390 . S
C874 H865 0.930 . S
C874 C872 1.384 . S
C874 C875 1.372 . S
C875 C874 1.372 . S
C875 C876 1.400 . S
C875 C880 1.490 . S
C876 H866 0.930 . S
C876 C875 1.400 . S
C876 C879 1.386 . S
H877 C893 0.930 . S
H878 C894 0.931 . S
C879 H867 0.929 . S
C879 C873 1.390 . S
C879 C876 1.386 . S
C880 C875 1.490 . S
C880 C882 1.395 . S
C880 C883 1.403 . S
H881 C887 0.930 . S
C882 H868 0.930 . S
C882 C880 1.395 . S
C882 C885 1.403 . S
C883 C880 1.403 . S
C883 C884 1.524 . S
C883 C887 1.400 . S
C884 H869 0.960 . S
C884 H870 0.960 . S
C884 H871 0.960 . S
C884 C883 1.524 . S
C885 C882 1.403 . S
C885 C886 1.392 . S
C885 C889 1.495 . S
C886 C885 1.392 . S
C886 C887 1.385 . S
C886 C888 1.478 . S
C887 H881 0.930 . S
C887 C883 1.400 . S
C887 C886 1.385 . S
C888 C886 1.478 . S
C888 C890 1.381 . S
C888 C894 1.383 . S
C889 C885 1.495 . S
C889 H895 0.959 . S
C889 H896 0.961 . S
C889 H897 0.960 . S
C890 C888 1.381 . S
C890 C891 1.394 . S
C890 H898 0.930 . S
C891 C890 1.394 . S
C891 C892 1.383 . S
C891 H899 0.929 . S
C892 C891 1.383 . S
C892 C893 1.377 . S
C893 H877 0.930 . S
C893 C892 1.377 . S
C893 C894 1.379 . S
C894 H878 0.931 . S
C894 C888 1.383 . S
C894 C893 1.379 . S
H895 C889 0.959 . S
H896 C889 0.961 . S
H897 C889 0.960 . S
H898 C890 0.930 . S
H899 C891 0.929 . S
H900 C908 0.929 . S
H901 C910 0.930 1_545 S
H902 C912 0.930 . S
H903 C915 0.929 . S
H904 C918 0.930 . S
H905 C920 0.960 . S
H906 C920 0.960 . S
H907 C920 0.960 . S
C908 H900 0.929 . S
C908 C909 1.377 . S
C908 C910 1.384 . S
C909 C908 1.377 . S
C909 C915 1.390 . S
C910 H901 0.930 1_565 S
C910 C908 1.384 . S
C910 C911 1.372 1_455 S
C911 C910 1.372 1_655 S
C911 C912 1.400 . S
C911 C916 1.490 . S
C912 H902 0.930 . S
C912 C911 1.400 . S
C912 C915 1.386 1_655 S
H913 C929 0.930 . S
H914 C930 0.931 1_565 S
C915 H903 0.929 . S
C915 C909 1.390 . S
C915 C912 1.386 1_455 S
C916 C911 1.490 . S
C916 C918 1.395 1_565 S
C916 C919 1.403 . S
H917 C923 0.927 1_565 S
C918 H904 0.930 . S
C918 C916 1.395 1_545 S
C918 C921 1.403 . S
C919 C916 1.403 . S
C919 C920 1.524 . S
C919 C923 1.386 1_565 S
C920 H905 0.960 . S
C920 H906 0.960 . S
C920 H907 0.960 . S
C920 C919 1.524 . S
C921 C918 1.403 . S
C921 C922 1.392 . S
C921 C925 1.495 . S
C922 C921 1.392 . S
C922 C923 1.402 . S
C922 C924 1.478 . S
C923 H917 0.927 1_545 S
C923 C919 1.386 1_545 S
C923 C922 1.402 . S
C924 C922 1.478 . S
C924 C926 1.381 . S
C924 C930 1.383 . S
C925 C921 1.495 . S
C925 H931 0.959 . S
C925 H932 0.961 . S
C925 H933 0.960 . S
C926 C924 1.381 . S
C926 C927 1.394 . S
C926 H934 0.930 . S
C927 C926 1.394 . S
C927 C928 1.383 . S
C927 H935 0.929 . S
C928 C927 1.383 . S
C928 C929 1.377 . S
C929 H913 0.930 . S
C929 C928 1.377 . S
C929 C930 1.379 . S
C930 H914 0.931 1_545 S
C930 C924 1.383 . S
C930 C929 1.379 . S
H931 C925 0.959 . S
H932 C925 0.961 . S
H933 C925 0.960 . S
H934 C926 0.930 . S
H935 C927 0.929 . S
H936 C944 0.929 . S
H937 C946 0.930 . S
H938 C948 0.930 . S
H939 C951 0.929 . S
H940 C954 0.930 . S
H941 C956 0.960 . S
H942 C956 0.960 . S
H943 C956 0.960 . S
C944 H936 0.929 . S
C944 C945 1.377 . S
C944 C946 1.384 . S
C945 C944 1.377 . S
C945 C951 1.390 . S
C946 H937 0.930 . S
C946 C944 1.384 . S
C946 C947 1.372 . S
C947 C946 1.372 . S
C947 C948 1.400 . S
C947 C952 1.490 . S
C948 H938 0.930 . S
C948 C947 1.400 . S
C948 C951 1.386 . S
H949 C965 0.930 . S
H950 C966 0.931 . S
C951 H939 0.929 . S
C951 C945 1.390 . S
C951 C948 1.386 . S
C952 C947 1.490 . S
C952 C954 1.395 . S
C952 C955 1.403 . S
H953 C959 0.930 . S
C954 H940 0.930 . S
C954 C952 1.395 . S
C954 C957 1.403 . S
C955 C952 1.403 . S
C955 C956 1.524 . S
C955 C959 1.400 . S
C956 H941 0.960 . S
C956 H942 0.960 . S
C956 H943 0.960 . S
C956 C955 1.524 . S
C957 C954 1.403 . S
C957 C958 1.392 . S
C957 C961 1.495 . S
C958 C957 1.392 . S
C958 C959 1.385 . S
C958 C960 1.478 . S
C959 H953 0.930 . S
C959 C955 1.400 . S
C959 C958 1.385 . S
C960 C958 1.478 . S
C960 C962 1.381 . S
C960 C966 1.383 . S
C961 C957 1.495 . S
C961 H967 0.959 . S
C961 H968 0.961 . S
C961 H969 0.960 . S
C962 C960 1.381 . S
C962 C963 1.394 . S
C962 H970 0.930 . S
C963 C962 1.394 . S
C963 C964 1.383 . S
C963 H971 0.929 . S
C964 C963 1.383 . S
C964 C965 1.377 . S
C965 H949 0.930 . S
C965 C964 1.377 . S
C965 C966 1.379 . S
C966 H950 0.931 . S
C966 C960 1.383 . S
C966 C965 1.379 . S
H967 C961 0.959 . S
H968 C961 0.961 . S
H969 C961 0.960 . S
H970 C962 0.930 . S
H971 C963 0.929 . S
H972 C980 0.929 . S
H973 C982 0.930 . S
H974 C984 0.930 . S
H975 C987 0.929 . S
H976 C990 0.930 . S
H977 C992 0.960 . S
H978 C992 0.960 . S
H979 C992 0.960 . S
C980 H972 0.929 . S
C980 C981 1.377 . S
C980 C982 1.384 . S
C981 C980 1.377 . S
C981 C987 1.390 . S
C982 H973 0.930 . S
C982 C980 1.384 . S
C982 C983 1.372 . S
C983 C982 1.372 . S
C983 C984 1.400 . S
C983 C988 1.490 . S
C984 H974 0.930 . S
C984 C983 1.400 . S
C984 C987 1.386 . S
H985 C1001 0.930 . S
H986 C1002 0.931 . S
C987 H975 0.929 . S
C987 C981 1.390 . S
C987 C984 1.386 . S
C988 C983 1.490 . S
C988 C990 1.395 . S
C988 C991 1.403 . S
H989 C995 0.930 . S
C990 H976 0.930 . S
C990 C988 1.395 . S
C990 C993 1.403 . S
C991 C988 1.403 . S
C991 C992 1.524 . S
C991 C995 1.400 . S
C992 H977 0.960 . S
C992 H978 0.960 . S
C992 H979 0.960 . S
C992 C991 1.524 . S
C993 C990 1.403 . S
C993 C994 1.392 . S
C993 C997 1.495 . S
C994 C993 1.392 . S
C994 C995 1.385 . S
C994 C996 1.478 . S
C995 H989 0.930 . S
C995 C991 1.400 . S
C995 C994 1.385 . S
C996 C994 1.478 . S
C996 C998 1.381 . S
C996 C1002 1.383 . S
C997 C993 1.495 . S
C997 H1003 0.959 . S
C997 H1004 0.961 . S
C997 H1005 0.960 . S
C998 C996 1.381 . S
C998 C999 1.394 . S
C998 H1006 0.930 . S
C999 C998 1.394 . S
C999 C1000 1.383 . S
C999 H1007 0.929 . S
C1000 C999 1.383 . S
C1000 C1001 1.377 . S
C1001 H985 0.930 . S
C1001 C1000 1.377 . S
C1001 C1002 1.379 . S
C1002 H986 0.931 . S
C1002 C996 1.383 . S
C1002 C1001 1.379 . S
H1003 C997 0.959 . S
H1004 C997 0.961 . S
H1005 C997 0.960 . S
H1006 C998 0.930 . S
H1007 C999 0.929 . S
H1008 C1016 0.929 . S
H1009 C1018 0.930 . S
H1010 C1020 0.930 . S
H1011 C1023 0.929 . S
H1012 C1026 0.930 . S
H1013 C1028 0.960 . S
H1014 C1028 0.960 . S
H1015 C1028 0.960 . S
C1016 H1008 0.929 . S
C1016 C1017 1.377 . S
C1016 C1018 1.384 . S
C1017 C1016 1.377 . S
C1017 C1023 1.390 . S
C1018 H1009 0.930 . S
C1018 C1016 1.384 . S
C1018 C1019 1.372 . S
C1019 C1018 1.372 . S
C1019 C1020 1.400 . S
C1019 C1024 1.490 . S
C1020 H1010 0.930 . S
C1020 C1019 1.400 . S
C1020 C1023 1.386 . S
H1021 C1037 0.930 . S
H1022 C1038 0.931 . S
C1023 H1011 0.929 . S
C1023 C1017 1.390 . S
C1023 C1020 1.386 . S
C1024 C1019 1.490 . S
C1024 C1026 1.395 . S
C1024 C1027 1.403 . S
H1025 C1031 0.930 . S
C1026 H1012 0.930 . S
C1026 C1024 1.395 . S
C1026 C1029 1.403 . S
C1027 C1024 1.403 . S
C1027 C1028 1.524 . S
C1027 C1031 1.400 . S
C1028 H1013 0.960 . S
C1028 H1014 0.960 . S
C1028 H1015 0.960 . S
C1028 C1027 1.524 . S
C1029 C1026 1.403 . S
C1029 C1030 1.392 . S
C1029 C1033 1.495 . S
C1030 C1029 1.392 . S
C1030 C1031 1.385 . S
C1030 C1032 1.478 . S
C1031 H1025 0.930 . S
C1031 C1027 1.400 . S
C1031 C1030 1.385 . S
C1032 C1030 1.478 . S
C1032 C1034 1.381 . S
C1032 C1038 1.383 . S
C1033 C1029 1.495 . S
C1033 H1039 0.959 . S
C1033 H1040 0.961 . S
C1033 H1041 0.960 . S
C1034 C1032 1.381 . S
C1034 C1035 1.394 . S
C1034 H1042 0.930 . S
C1035 C1034 1.394 . S
C1035 C1036 1.383 . S
C1035 H1043 0.929 . S
C1036 C1035 1.383 . S
C1036 C1037 1.377 . S
C1037 H1021 0.930 . S
C1037 C1036 1.377 . S
C1037 C1038 1.379 . S
C1038 H1022 0.931 . S
C1038 C1032 1.383 . S
C1038 C1037 1.379 . S
H1039 C1033 0.959 . S
H1040 C1033 0.961 . S
H1041 C1033 0.960 . S
H1042 C1034 0.930 . S
H1043 C1035 0.929 . S
H1044 C1052 0.929 . S
H1045 C1054 0.930 . S
H1046 C1056 0.930 . S
H1047 C1059 0.929 . S
H1048 C1062 0.930 . S
H1049 C1064 0.960 . S
H1050 C1064 0.960 . S
H1051 C1064 0.960 . S
C1052 H1044 0.929 . S
C1052 C1053 1.377 . S
C1052 C1054 1.384 . S
C1053 C1052 1.377 . S
C1053 C1059 1.390 . S
C1054 H1045 0.930 . S
C1054 C1052 1.384 . S
C1054 C1055 1.372 . S
C1055 C1054 1.372 . S
C1055 C1056 1.400 . S
C1055 C1060 1.490 . S
C1056 H1046 0.930 . S
C1056 C1055 1.400 . S
C1056 C1059 1.386 . S
H1057 C1073 0.930 1_545 S
H1058 C1074 0.931 . S
C1059 H1047 0.929 . S
C1059 C1053 1.390 . S
C1059 C1056 1.386 . S
C1060 C1055 1.490 . S
C1060 C1062 1.395 . S
C1060 C1063 1.403 . S
H1061 C1067 0.930 . S
C1062 H1048 0.930 . S
C1062 C1060 1.395 . S
C1062 C1065 1.403 . S
C1063 C1060 1.403 . S
C1063 C1064 1.524 . S
C1063 C1067 1.400 . S
C1064 H1049 0.960 . S
C1064 H1050 0.960 . S
C1064 H1051 0.960 . S
C1064 C1063 1.524 . S
C1065 C1062 1.403 . S
C1065 C1066 1.392 . S
C1065 C1069 1.495 . S
C1066 C1065 1.392 . S
C1066 C1067 1.385 . S
C1066 C1068 1.478 . S
C1067 H1061 0.930 . S
C1067 C1063 1.400 . S
C1067 C1066 1.385 . S
C1068 C1066 1.478 . S
C1068 C1070 1.381 . S
C1068 C1074 1.383 . S
C1069 C1065 1.495 . S
C1069 H1075 0.959 . S
C1069 H1076 0.961 . S
C1069 H1077 0.960 . S
C1070 C1068 1.381 . S
C1070 C1071 1.394 . S
C1070 H1078 0.930 . S
C1071 C1070 1.394 . S
C1071 C1072 1.383 . S
C1071 H1079 0.929 . S
C1072 C1071 1.383 . S
C1072 C1073 1.377 . S
C1073 H1057 0.930 1_565 S
C1073 C1072 1.377 . S
C1073 C1074 1.379 . S
C1074 H1058 0.931 . S
C1074 C1068 1.383 . S
C1074 C1073 1.379 . S
H1075 C1069 0.959 . S
H1076 C1069 0.961 . S
H1077 C1069 0.960 . S
H1078 C1070 0.930 . S
H1079 C1071 0.929 . S
H1080 C1088 0.929 . S
H1081 C1090 0.930 . S
H1082 C1092 0.930 . S
H1083 C1095 0.929 . S
H1084 C1098 0.930 . S
H1085 C1100 0.960 . S
H1086 C1100 0.960 . S
H1087 C1100 0.960 . S
C1088 H1080 0.929 . S
C1088 C1089 1.377 . S
C1088 C1090 1.384 . S
C1089 C1088 1.377 . S
C1089 C1095 1.390 . S
C1090 H1081 0.930 . S
C1090 C1088 1.384 . S
C1090 C1091 1.372 . S
C1091 C1090 1.372 . S
C1091 C1092 1.400 . S
C1091 C1096 1.490 . S
C1092 H1082 0.930 . S
C1092 C1091 1.400 . S
C1092 C1095 1.386 . S
H1093 C1109 0.930 . S
H1094 C1110 0.931 . S
C1095 H1083 0.929 . S
C1095 C1089 1.390 . S
C1095 C1092 1.386 . S
C1096 C1091 1.490 . S
C1096 C1098 1.395 . S
C1096 C1099 1.403 . S
H1097 C1103 0.930 . S
C1098 H1084 0.930 . S
C1098 C1096 1.395 . S
C1098 C1101 1.403 . S
C1099 C1096 1.403 . S
C1099 C1100 1.524 . S
C1099 C1103 1.400 . S
C1100 H1085 0.960 . S
C1100 H1086 0.960 . S
C1100 H1087 0.960 . S
C1100 C1099 1.524 . S
C1101 C1098 1.403 . S
C1101 C1102 1.392 . S
C1101 C1105 1.495 . S
C1102 C1101 1.392 . S
C1102 C1103 1.385 . S
C1102 C1104 1.478 . S
C1103 H1097 0.930 . S
C1103 C1099 1.400 . S
C1103 C1102 1.385 . S
C1104 C1102 1.478 . S
C1104 C1106 1.381 . S
C1104 C1110 1.383 . S
C1105 C1101 1.495 . S
C1105 H1111 0.959 . S
C1105 H1112 0.961 . S
C1105 H1113 0.960 . S
C1106 C1104 1.381 . S
C1106 C1107 1.394 . S
C1106 H1114 0.930 . S
C1107 C1106 1.394 . S
C1107 C1108 1.383 . S
C1107 H1115 0.929 . S
C1108 C1107 1.383 . S
C1108 C1109 1.377 . S
C1109 H1093 0.930 . S
C1109 C1108 1.377 . S
C1109 C1110 1.379 . S
C1110 H1094 0.931 . S
C1110 C1104 1.383 . S
C1110 C1109 1.379 . S
H1111 C1105 0.959 . S
H1112 C1105 0.961 . S
H1113 C1105 0.960 . S
H1114 C1106 0.930 . S
H1115 C1107 0.929 . S
H1116 C1124 0.929 . S
H1117 C1126 0.930 . S
H1118 C1128 0.930 . S
H1119 C1131 0.929 . S
H1120 C1134 0.930 . S
H1121 C1136 0.960 . S
H1122 C1136 0.960 . S
H1123 C1136 0.960 . S
C1124 H1116 0.929 . S
C1124 C1125 1.377 . S
C1124 C1126 1.384 . S
C1125 C1124 1.377 . S
C1125 C1131 1.390 . S
C1126 H1117 0.930 . S
C1126 C1124 1.384 . S
C1126 C1127 1.372 . S
C1127 C1126 1.372 . S
C1127 C1128 1.400 . S
C1127 C1132 1.490 . S
C1128 H1118 0.930 . S
C1128 C1127 1.400 . S
C1128 C1131 1.386 . S
H1129 C1145 0.930 . S
H1130 C1146 0.931 . S
C1131 H1119 0.929 . S
C1131 C1125 1.390 . S
C1131 C1128 1.386 . S
C1132 C1127 1.490 . S
C1132 C1134 1.395 . S
C1132 C1135 1.403 . S
H1133 C1139 0.930 . S
C1134 H1120 0.930 . S
C1134 C1132 1.395 . S
C1134 C1137 1.403 . S
C1135 C1132 1.403 . S
C1135 C1136 1.524 . S
C1135 C1139 1.400 . S
C1136 H1121 0.960 . S
C1136 H1122 0.960 . S
C1136 H1123 0.960 . S
C1136 C1135 1.524 . S
C1137 C1134 1.403 . S
C1137 C1138 1.392 . S
C1137 C1141 1.495 . S
C1138 C1137 1.392 . S
C1138 C1139 1.385 . S
C1138 C1140 1.478 . S
C1139 H1133 0.930 . S
C1139 C1135 1.400 . S
C1139 C1138 1.385 . S
C1140 C1138 1.478 . S
C1140 C1142 1.381 . S
C1140 C1146 1.383 . S
C1141 C1137 1.495 . S
C1141 H1147 0.959 . S
C1141 H1148 0.961 . S
C1141 H1149 0.960 . S
C1142 C1140 1.381 . S
C1142 C1143 1.394 . S
C1142 H1150 0.930 . S
C1143 C1142 1.394 . S
C1143 C1144 1.383 . S
C1143 H1151 0.929 . S
C1144 C1143 1.383 . S
C1144 C1145 1.377 . S
C1145 H1129 0.930 . S
C1145 C1144 1.377 . S
C1145 C1146 1.379 . S
C1146 H1130 0.931 . S
C1146 C1140 1.383 . S
C1146 C1145 1.379 . S
H1147 C1141 0.959 . S
H1148 C1141 0.961 . S
H1149 C1141 0.960 . S
H1150 C1142 0.930 . S
H1151 C1143 0.929 . S
H1152 C1160 0.929 . S
H1153 C1162 0.930 . S
H1154 C1164 0.930 . S
H1155 C1167 0.929 . S
H1156 C1170 0.930 . S
H1157 C1172 0.960 . S
H1158 C1172 0.960 . S
H1159 C1172 0.960 . S
C1160 H1152 0.929 . S
C1160 C1161 1.377 . S
C1160 C1162 1.384 . S
C1161 C1160 1.377 . S
C1161 C1167 1.390 . S
C1162 H1153 0.930 . S
C1162 C1160 1.384 . S
C1162 C1163 1.372 . S
C1163 C1162 1.372 . S
C1163 C1164 1.400 . S
C1163 C1168 1.490 . S
C1164 H1154 0.930 . S
C1164 C1163 1.400 . S
C1164 C1167 1.386 . S
H1165 C1181 0.930 . S
H1166 C1182 0.931 . S
C1167 H1155 0.929 . S
C1167 C1161 1.390 . S
C1167 C1164 1.386 . S
C1168 C1163 1.490 . S
C1168 C1170 1.395 . S
C1168 C1171 1.403 . S
H1169 C1175 0.930 . S
C1170 H1156 0.930 . S
C1170 C1168 1.395 . S
C1170 C1173 1.403 . S
C1171 C1168 1.403 . S
C1171 C1172 1.524 . S
C1171 C1175 1.400 . S
C1172 H1157 0.960 . S
C1172 H1158 0.960 . S
C1172 H1159 0.960 . S
C1172 C1171 1.524 . S
C1173 C1170 1.403 . S
C1173 C1174 1.392 . S
C1173 C1177 1.495 . S
C1174 C1173 1.392 . S
C1174 C1175 1.385 . S
C1174 C1176 1.478 . S
C1175 H1169 0.930 . S
C1175 C1171 1.400 . S
C1175 C1174 1.385 . S
C1176 C1174 1.478 . S
C1176 C1178 1.381 . S
C1176 C1182 1.383 . S
C1177 C1173 1.495 . S
C1177 H1183 0.959 . S
C1177 H1184 0.961 . S
C1177 H1185 0.960 . S
C1178 C1176 1.381 . S
C1178 C1179 1.394 . S
C1178 H1186 0.930 . S
C1179 C1178 1.394 . S
C1179 C1180 1.383 . S
C1179 H1187 0.929 . S
C1180 C1179 1.383 . S
C1180 C1181 1.377 . S
C1181 H1165 0.930 . S
C1181 C1180 1.377 . S
C1181 C1182 1.379 . S
C1182 H1166 0.931 . S
C1182 C1176 1.383 . S
C1182 C1181 1.379 . S
H1183 C1177 0.959 . S
H1184 C1177 0.961 . S
H1185 C1177 0.960 . S
H1186 C1178 0.930 . S
H1187 C1179 0.929 . S
H1188 C1196 0.929 . S
H1189 C1198 0.930 . S
H1190 C1200 0.930 . S
H1191 C1203 0.929 . S
H1192 C1206 0.930 . S
H1193 C1208 0.960 . S
H1194 C1208 0.960 . S
H1195 C1208 0.960 . S
C1196 H1188 0.929 . S
C1196 C1197 1.377 . S
C1196 C1198 1.384 . S
C1197 C1196 1.377 . S
C1197 C1203 1.390 . S
C1198 H1189 0.930 . S
C1198 C1196 1.384 . S
C1198 C1199 1.372 . S
C1199 C1198 1.372 . S
C1199 C1200 1.400 . S
C1199 C1204 1.490 . S
C1200 H1190 0.930 . S
C1200 C1199 1.400 . S
C1200 C1203 1.386 . S
H1201 C1217 0.930 . S
H1202 C1218 0.931 . S
C1203 H1191 0.929 . S
C1203 C1197 1.390 . S
C1203 C1200 1.386 . S
C1204 C1199 1.490 . S
C1204 C1206 1.395 . S
C1204 C1207 1.403 . S
H1205 C1211 0.930 . S
C1206 H1192 0.930 . S
C1206 C1204 1.395 . S
C1206 C1209 1.403 . S
C1207 C1204 1.403 . S
C1207 C1208 1.524 . S
C1207 C1211 1.400 . S
C1208 H1193 0.960 . S
C1208 H1194 0.960 . S
C1208 H1195 0.960 . S
C1208 C1207 1.524 . S
C1209 C1206 1.403 . S
C1209 C1210 1.392 . S
C1209 C1213 1.495 . S
C1210 C1209 1.392 . S
C1210 C1211 1.385 . S
C1210 C1212 1.478 . S
C1211 H1205 0.930 . S
C1211 C1207 1.400 . S
C1211 C1210 1.385 . S
C1212 C1210 1.478 . S
C1212 C1214 1.381 . S
C1212 C1218 1.383 . S
C1213 C1209 1.495 . S
C1213 H1219 0.959 . S
C1213 H1220 0.961 . S
C1213 H1221 0.960 . S
C1214 C1212 1.381 . S
C1214 C1215 1.394 . S
C1214 H1222 0.930 . S
C1215 C1214 1.394 . S
C1215 C1216 1.383 . S
C1215 H1223 0.929 . S
C1216 C1215 1.383 . S
C1216 C1217 1.377 . S
C1217 H1201 0.930 . S
C1217 C1216 1.377 . S
C1217 C1218 1.379 . S
C1218 H1202 0.931 . S
C1218 C1212 1.383 . S
C1218 C1217 1.379 . S
H1219 C1213 0.959 . S
H1220 C1213 0.961 . S
H1221 C1213 0.960 . S
H1222 C1214 0.930 . S
H1223 C1215 0.929 . S
H1224 C1232 0.929 . S
H1225 C1234 0.930 . S
H1226 C1236 0.930 . S
H1227 C1239 0.929 . S
H1228 C1242 0.930 . S
H1229 C1244 0.960 . S
H1230 C1244 0.960 . S
H1231 C1244 0.960 . S
C1232 H1224 0.929 . S
C1232 C1233 1.377 . S
C1232 C1234 1.384 . S
C1233 C1232 1.377 . S
C1233 C1239 1.390 . S
C1234 H1225 0.930 . S
C1234 C1232 1.384 . S
C1234 C1235 1.372 . S
C1235 C1234 1.372 . S
C1235 C1236 1.400 . S
C1235 C1240 1.490 . S
C1236 H1226 0.930 . S
C1236 C1235 1.400 . S
C1236 C1239 1.386 . S
H1237 C1253 0.930 . S
H1238 C1254 0.931 . S
C1239 H1227 0.929 . S
C1239 C1233 1.390 . S
C1239 C1236 1.386 . S
C1240 C1235 1.490 . S
C1240 C1242 1.395 . S
C1240 C1243 1.403 . S
H1241 C1247 0.930 . S
C1242 H1228 0.930 . S
C1242 C1240 1.395 . S
C1242 C1245 1.403 . S
C1243 C1240 1.403 . S
C1243 C1244 1.524 . S
C1243 C1247 1.400 . S
C1244 H1229 0.960 . S
C1244 H1230 0.960 . S
C1244 H1231 0.960 . S
C1244 C1243 1.524 . S
C1245 C1242 1.403 . S
C1245 C1246 1.392 . S
C1245 C1249 1.495 . S
C1246 C1245 1.392 . S
C1246 C1247 1.385 . S
C1246 C1248 1.478 . S
C1247 H1241 0.930 . S
C1247 C1243 1.400 . S
C1247 C1246 1.385 . S
C1248 C1246 1.478 . S
C1248 C1250 1.381 . S
C1248 C1254 1.383 . S
C1249 C1245 1.495 . S
C1249 H1255 0.959 . S
C1249 H1256 0.961 . S
C1249 H1257 0.960 . S
C1250 C1248 1.381 . S
C1250 C1251 1.394 . S
C1250 H1258 0.930 . S
C1251 C1250 1.394 . S
C1251 C1252 1.383 . S
C1251 H1259 0.929 . S
C1252 C1251 1.383 . S
C1252 C1253 1.377 . S
C1253 H1237 0.930 . S
C1253 C1252 1.377 . S
C1253 C1254 1.379 . S
C1254 H1238 0.931 . S
C1254 C1248 1.383 . S
C1254 C1253 1.379 . S
H1255 C1249 0.959 . S
H1256 C1249 0.961 . S
H1257 C1249 0.960 . S
H1258 C1250 0.930 . S
H1259 C1251 0.929 . S
H1260 C1268 0.929 . S
H1261 C1270 0.930 . S
H1262 C1272 0.930 . S
H1263 C1275 0.929 . S
H1264 C1278 0.930 . S
H1265 C1280 0.960 . S
H1266 C1280 0.960 . S
H1267 C1280 0.960 . S
C1268 H1260 0.929 . S
C1268 C1269 1.377 . S
C1268 C1270 1.384 . S
C1269 C1268 1.377 . S
C1269 C1275 1.390 . S
C1270 H1261 0.930 . S
C1270 C1268 1.384 . S
C1270 C1271 1.372 . S
C1271 C1270 1.372 . S
C1271 C1272 1.400 . S
C1271 C1276 1.490 . S
C1272 H1262 0.930 . S
C1272 C1271 1.400 . S
C1272 C1275 1.386 . S
H1273 C1289 0.930 . S
H1274 C1290 0.931 . S
C1275 H1263 0.929 . S
C1275 C1269 1.390 . S
C1275 C1272 1.386 . S
C1276 C1271 1.490 . S
C1276 C1278 1.395 . S
C1276 C1279 1.403 . S
H1277 C1283 0.930 . S
C1278 H1264 0.930 . S
C1278 C1276 1.395 . S
C1278 C1281 1.403 . S
C1279 C1276 1.403 . S
C1279 C1280 1.524 . S
C1279 C1283 1.400 . S
C1280 H1265 0.960 . S
C1280 H1266 0.960 . S
C1280 H1267 0.960 . S
C1280 C1279 1.524 . S
C1281 C1278 1.403 . S
C1281 C1282 1.392 . S
C1281 C1285 1.495 . S
C1282 C1281 1.392 . S
C1282 C1283 1.385 . S
C1282 C1284 1.478 . S
C1283 H1277 0.930 . S
C1283 C1279 1.400 . S
C1283 C1282 1.385 . S
C1284 C1282 1.478 . S
C1284 C1286 1.381 . S
C1284 C1290 1.383 . S
C1285 C1281 1.495 . S
C1285 H1291 0.959 . S
C1285 H1292 0.961 . S
C1285 H1293 0.960 . S
C1286 C1284 1.381 . S
C1286 C1287 1.394 . S
C1286 H1294 0.930 . S
C1287 C1286 1.394 . S
C1287 C1288 1.383 . S
C1287 H1295 0.929 . S
C1288 C1287 1.383 . S
C1288 C1289 1.377 . S
C1289 H1273 0.930 . S
C1289 C1288 1.377 . S
C1289 C1290 1.379 . S
C1290 H1274 0.931 . S
C1290 C1284 1.383 . S
C1290 C1289 1.379 . S
H1291 C1285 0.959 . S
H1292 C1285 0.961 . S
H1293 C1285 0.960 . S
H1294 C1286 0.930 . S
H1295 C1287 0.929 . S
H1296 C1304 0.929 . S
H1297 C1306 0.930 . S
H1298 C1308 0.930 . S
H1299 C1311 0.929 . S
H1300 C1314 0.930 . S
H1301 C1316 0.960 . S
H1302 C1316 0.960 . S
H1303 C1316 0.960 . S
C1304 H1296 0.929 . S
C1304 C1305 1.377 . S
C1304 C1306 1.384 . S
C1305 C1304 1.377 . S
C1305 C1311 1.390 . S
C1306 H1297 0.930 . S
C1306 C1304 1.384 . S
C1306 C1307 1.372 . S
C1307 C1306 1.372 . S
C1307 C1308 1.400 . S
C1307 C1312 1.490 . S
C1308 H1298 0.930 . S
C1308 C1307 1.400 . S
C1308 C1311 1.386 . S
H1309 C1325 0.930 . S
H1310 C1326 0.931 . S
C1311 H1299 0.929 . S
C1311 C1305 1.390 . S
C1311 C1308 1.386 . S
C1312 C1307 1.490 . S
C1312 C1314 1.395 . S
C1312 C1315 1.403 . S
H1313 C1319 0.930 . S
C1314 H1300 0.930 . S
C1314 C1312 1.395 . S
C1314 C1317 1.403 . S
C1315 C1312 1.403 . S
C1315 C1316 1.524 . S
C1315 C1319 1.400 . S
C1316 H1301 0.960 . S
C1316 H1302 0.960 . S
C1316 H1303 0.960 . S
C1316 C1315 1.524 . S
C1317 C1314 1.403 . S
C1317 C1318 1.392 . S
C1317 C1321 1.495 . S
C1318 C1317 1.392 . S
C1318 C1319 1.385 . S
C1318 C1320 1.478 . S
C1319 H1313 0.930 . S
C1319 C1315 1.400 . S
C1319 C1318 1.385 . S
C1320 C1318 1.478 . S
C1320 C1322 1.381 . S
C1320 C1326 1.383 . S
C1321 C1317 1.495 . S
C1321 H1327 0.959 . S
C1321 H1328 0.961 . S
C1321 H1329 0.960 . S
C1322 C1320 1.381 . S
C1322 C1323 1.394 . S
C1322 H1330 0.930 . S
C1323 C1322 1.394 . S
C1323 C1324 1.383 . S
C1323 H1331 0.929 . S
C1324 C1323 1.383 . S
C1324 C1325 1.377 . S
C1325 H1309 0.930 . S
C1325 C1324 1.377 . S
C1325 C1326 1.379 . S
C1326 H1310 0.931 . S
C1326 C1320 1.383 . S
C1326 C1325 1.379 . S
H1327 C1321 0.959 . S
H1328 C1321 0.961 . S
H1329 C1321 0.960 . S
H1330 C1322 0.930 . S
H1331 C1323 0.929 . S
H1332 C1340 0.929 . S
H1333 C1342 0.930 . S
H1334 C1344 0.930 . S
H1335 C1347 0.929 . S
H1336 C1350 0.930 . S
H1337 C1352 0.960 . S
H1338 C1352 0.960 . S
H1339 C1352 0.960 . S
C1340 H1332 0.929 . S
C1340 C1341 1.377 . S
C1340 C1342 1.384 . S
C1341 C1340 1.377 . S
C1341 C1347 1.390 . S
C1342 H1333 0.930 . S
C1342 C1340 1.384 . S
C1342 C1343 1.372 . S
C1343 C1342 1.372 . S
C1343 C1344 1.400 . S
C1343 C1348 1.490 . S
C1344 H1334 0.930 . S
C1344 C1343 1.400 . S
C1344 C1347 1.386 . S
H1345 C1361 0.930 1_455 S
H1346 C1362 0.931 . S
C1347 H1335 0.929 . S
C1347 C1341 1.390 . S
C1347 C1344 1.386 . S
C1348 C1343 1.490 . S
C1348 C1350 1.395 . S
C1348 C1351 1.403 . S
H1349 C1355 0.930 . S
C1350 H1336 0.930 . S
C1350 C1348 1.395 . S
C1350 C1353 1.403 . S
C1351 C1348 1.403 . S
C1351 C1352 1.524 . S
C1351 C1355 1.400 . S
C1352 H1337 0.960 . S
C1352 H1338 0.960 . S
C1352 H1339 0.960 . S
C1352 C1351 1.524 . S
C1353 C1350 1.403 . S
C1353 C1354 1.392 . S
C1353 C1357 1.495 . S
C1354 C1353 1.392 . S
C1354 C1355 1.385 . S
C1354 C1356 1.478 . S
C1355 H1349 0.930 . S
C1355 C1351 1.400 . S
C1355 C1354 1.385 . S
C1356 C1354 1.478 . S
C1356 C1358 1.381 . S
C1356 C1362 1.383 . S
C1357 C1353 1.495 . S
C1357 H1363 0.959 . S
C1357 H1364 0.961 . S
C1357 H1365 0.960 . S
C1358 C1356 1.381 . S
C1358 C1359 1.394 . S
C1358 H1366 0.930 . S
C1359 C1358 1.394 . S
C1359 C1360 1.383 . S
C1359 H1367 0.929 . S
C1360 C1359 1.383 . S
C1360 C1361 1.377 . S
C1361 H1345 0.930 1_655 S
C1361 C1360 1.377 . S
C1361 C1362 1.379 . S
C1362 H1346 0.931 . S
C1362 C1356 1.383 . S
C1362 C1361 1.379 . S
H1363 C1357 0.959 . S
H1364 C1357 0.961 . S
H1365 C1357 0.960 . S
H1366 C1358 0.930 . S
H1367 C1359 0.929 . S
H1368 C1376 0.929 . S
H1369 C1378 0.930 . S
H1370 C1380 0.930 . S
H1371 C1383 0.929 . S
H1372 C1386 0.930 . S
H1373 C1388 0.960 . S
H1374 C1388 0.960 . S
H1375 C1388 0.960 . S
C1376 H1368 0.929 . S
C1376 C1377 1.377 . S
C1376 C1378 1.384 . S
C1377 C1376 1.377 . S
C1377 C1383 1.390 . S
C1378 H1369 0.930 . S
C1378 C1376 1.384 . S
C1378 C1379 1.372 . S
C1379 C1378 1.372 . S
C1379 C1380 1.400 . S
C1379 C1384 1.490 . S
C1380 H1370 0.930 . S
C1380 C1379 1.400 . S
C1380 C1383 1.386 . S
H1381 C1397 0.930 . S
H1382 C1398 0.931 . S
C1383 H1371 0.929 . S
C1383 C1377 1.390 . S
C1383 C1380 1.386 . S
C1384 C1379 1.490 . S
C1384 C1386 1.395 . S
C1384 C1387 1.403 . S
H1385 C1391 0.930 . S
C1386 H1372 0.930 . S
C1386 C1384 1.395 . S
C1386 C1389 1.403 . S
C1387 C1384 1.403 . S
C1387 C1388 1.524 . S
C1387 C1391 1.400 . S
C1388 H1373 0.960 . S
C1388 H1374 0.960 . S
C1388 H1375 0.960 . S
C1388 C1387 1.524 . S
C1389 C1386 1.403 . S
C1389 C1390 1.392 . S
C1389 C1393 1.495 . S
C1390 C1389 1.392 . S
C1390 C1391 1.385 . S
C1390 C1392 1.478 . S
C1391 H1385 0.930 . S
C1391 C1387 1.400 . S
C1391 C1390 1.385 . S
C1392 C1390 1.478 . S
C1392 C1394 1.381 . S
C1392 C1398 1.383 . S
C1393 C1389 1.495 . S
C1393 H1399 0.959 . S
C1393 H1400 0.961 . S
C1393 H1401 0.960 . S
C1394 C1392 1.381 . S
C1394 C1395 1.394 1_565 S
C1394 H1402 0.930 . S
C1395 C1394 1.394 1_545 S
C1395 C1396 1.383 . S
C1395 H1403 0.929 . S
C1396 C1395 1.383 . S
C1396 C1397 1.377 . S
C1397 H1381 0.930 . S
C1397 C1396 1.377 . S
C1397 C1398 1.379 1_545 S
C1398 H1382 0.931 . S
C1398 C1392 1.383 . S
C1398 C1397 1.379 1_565 S
H1399 C1393 0.959 . S
H1400 C1393 0.961 . S
H1401 C1393 0.960 . S
H1402 C1394 0.930 . S
H1403 C1395 0.929 . S
H1404 C1412 0.929 . S
H1405 C1414 0.930 . S
H1406 C1416 0.930 . S
H1407 C1419 0.929 . S
H1408 C1422 0.930 . S
H1409 C1424 0.960 . S
H1410 C1424 0.960 . S
H1411 C1424 0.960 . S
C1412 H1404 0.929 . S
C1412 C1413 1.377 . S
C1412 C1414 1.384 . S
C1413 C1412 1.377 . S
C1413 C1419 1.390 . S
C1414 H1405 0.930 . S
C1414 C1412 1.384 . S
C1414 C1415 1.372 . S
C1415 C1414 1.372 . S
C1415 C1416 1.400 . S
C1415 C1420 1.490 . S
C1416 H1406 0.930 . S
C1416 C1415 1.400 . S
C1416 C1419 1.386 . S
H1417 C1433 0.930 . S
H1418 C1434 0.931 . S
C1419 H1407 0.929 . S
C1419 C1413 1.390 . S
C1419 C1416 1.386 . S
C1420 C1415 1.490 . S
C1420 C1422 1.395 . S
C1420 C1423 1.403 . S
H1421 C1427 0.930 . S
C1422 H1408 0.930 . S
C1422 C1420 1.395 . S
C1422 C1425 1.403 . S
C1423 C1420 1.403 . S
C1423 C1424 1.524 . S
C1423 C1427 1.400 . S
C1424 H1409 0.960 . S
C1424 H1410 0.960 . S
C1424 H1411 0.960 . S
C1424 C1423 1.524 . S
C1425 C1422 1.403 . S
C1425 C1426 1.392 . S
C1425 C1429 1.495 . S
C1426 C1425 1.392 . S
C1426 C1427 1.385 . S
C1426 C1428 1.478 . S
C1427 H1421 0.930 . S
C1427 C1423 1.400 . S
C1427 C1426 1.385 . S
C1428 C1426 1.478 . S
C1428 C1430 1.381 . S
C1428 C1434 1.383 . S
C1429 C1425 1.495 . S
C1429 H1435 0.959 . S
C1429 H1436 0.961 . S
C1429 H1437 0.960 . S
C1430 C1428 1.381 . S
C1430 C1431 1.394 . S
C1430 H1438 0.930 . S
C1431 C1430 1.394 . S
C1431 C1432 1.383 . S
C1431 H1439 0.929 . S
C1432 C1431 1.383 . S
C1432 C1433 1.377 . S
C1433 H1417 0.930 . S
C1433 C1432 1.377 . S
C1433 C1434 1.379 . S
C1434 H1418 0.931 . S
C1434 C1428 1.383 . S
C1434 C1433 1.379 . S
H1435 C1429 0.959 . S
H1436 C1429 0.961 . S
H1437 C1429 0.960 . S
H1438 C1430 0.930 . S
H1439 C1431 0.929 . S
H1440 C1448 0.929 . S
H1441 C1450 0.930 . S
H1442 C1452 0.930 . S
H1443 C1455 0.929 . S
H1444 C1458 0.924 1_545 S
H1445 C1460 0.960 . S
H1446 C1460 0.960 . S
H1447 C1460 0.960 . S
C1448 H1440 0.929 . S
C1448 C1449 1.377 . S
C1448 C1450 1.384 . S
C1449 C1448 1.377 . S
C1449 C1455 1.390 . S
C1450 H1441 0.930 . S
C1450 C1448 1.384 . S
C1450 C1451 1.372 . S
C1451 C1450 1.372 . S
C1451 C1452 1.400 . S
C1451 C1456 1.490 . S
C1452 H1442 0.930 . S
C1452 C1451 1.400 . S
C1452 C1455 1.386 . S
H1453 C1469 0.930 . S
H1454 C1470 0.931 . S
C1455 H1443 0.929 . S
C1455 C1449 1.390 . S
C1455 C1452 1.386 . S
C1456 C1451 1.490 . S
C1456 C1458 1.368 1_545 S
C1456 C1459 1.403 . S
H1457 C1463 0.930 . S
C1458 H1444 0.924 1_565 S
C1458 C1456 1.368 1_565 S
C1458 C1461 1.438 1_556 S
C1459 C1456 1.403 . S
C1459 C1460 1.524 . S
C1459 C1463 1.400 1_545 S
C1460 H1445 0.960 . S
C1460 H1446 0.960 . S
C1460 H1447 0.960 . S
C1460 C1459 1.524 . S
C1461 C1458 1.438 1_554 S
C1461 C1462 1.392 1_554 S
C1461 C1465 1.495 . S
C1462 C1461 1.392 1_556 S
C1462 C1463 1.385 . S
C1462 C1464 1.478 1_556 S
C1463 H1457 0.930 . S
C1463 C1459 1.400 1_565 S
C1463 C1462 1.385 . S
C1464 C1462 1.478 1_554 S
C1464 C1466 1.381 . S
C1464 C1470 1.383 . S
C1465 C1461 1.495 . S
C1465 H1471 0.959 . S
C1465 H1472 0.961 . S
C1465 H1473 0.960 . S
C1466 C1464 1.381 . S
C1466 C1467 1.394 . S
C1466 H1474 0.930 1_554 S
C1467 C1466 1.394 . S
C1467 C1468 1.383 . S
C1467 H1475 0.929 . S
C1468 C1467 1.383 . S
C1468 C1469 1.377 . S
C1469 H1453 0.930 . S
C1469 C1468 1.377 . S
C1469 C1470 1.379 . S
C1470 H1454 0.931 . S
C1470 C1464 1.383 . S
C1470 C1469 1.379 . S
H1471 C1465 0.959 . S
H1472 C1465 0.961 . S
H1473 C1465 0.960 . S
H1474 C1466 0.930 1_556 S
H1475 C1467 0.929 . S
H1476 C1484 0.929 . S
H1477 C1486 0.930 . S
H1478 C1488 0.930 . S
H1479 C1491 0.929 . S
H1480 C1494 0.930 . S
H1481 C1496 0.960 . S
H1482 C1496 0.960 . S
H1483 C1496 0.960 . S
C1484 H1476 0.929 . S
C1484 C1485 1.377 . S
C1484 C1486 1.384 . S
C1485 C1484 1.377 . S
C1485 C1491 1.390 . S
C1486 H1477 0.930 . S
C1486 C1484 1.384 . S
C1486 C1487 1.372 . S
C1487 C1486 1.372 . S
C1487 C1488 1.400 . S
C1487 C1492 1.490 . S
C1488 H1478 0.930 . S
C1488 C1487 1.400 . S
C1488 C1491 1.386 . S
H1489 C1505 0.930 . S
H1490 C1506 0.931 . S
C1491 H1479 0.929 . S
C1491 C1485 1.390 . S
C1491 C1488 1.386 . S
C1492 C1487 1.490 . S
C1492 C1494 1.395 . S
C1492 C1495 1.403 . S
H1493 C1499 0.930 . S
C1494 H1480 0.930 . S
C1494 C1492 1.395 . S
C1494 C1497 1.403 . S
C1495 C1492 1.403 . S
C1495 C1496 1.524 . S
C1495 C1499 1.400 . S
C1496 H1481 0.960 . S
C1496 H1482 0.960 . S
C1496 H1483 0.960 . S
C1496 C1495 1.524 . S
C1497 C1494 1.403 . S
C1497 C1498 1.392 . S
C1497 C1501 1.495 . S
C1498 C1497 1.392 . S
C1498 C1499 1.385 . S
C1498 C1500 1.478 . S
C1499 H1493 0.930 . S
C1499 C1495 1.400 . S
C1499 C1498 1.385 . S
C1500 C1498 1.478 . S
C1500 C1502 1.381 . S
C1500 C1506 1.383 . S
C1501 C1497 1.495 . S
C1501 H1507 0.959 . S
C1501 H1508 0.961 . S
C1501 H1509 0.960 . S
C1502 C1500 1.381 . S
C1502 C1503 1.394 . S
C1502 H1510 0.930 . S
C1503 C1502 1.394 . S
C1503 C1504 1.383 . S
C1503 H1511 0.929 . S
C1504 C1503 1.383 . S
C1504 C1505 1.377 . S
C1505 H1489 0.930 . S
C1505 C1504 1.377 . S
C1505 C1506 1.379 . S
C1506 H1490 0.931 . S
C1506 C1500 1.383 . S
C1506 C1505 1.379 . S
H1507 C1501 0.959 . S
H1508 C1501 0.961 . S
H1509 C1501 0.960 . S
H1510 C1502 0.930 . S
H1511 C1503 0.929 . S
H1512 C1520 0.944 . S
H1513 C1522 0.930 . S
H1514 C1524 0.930 . S
H1515 C1527 0.929 . S
H1516 C1530 0.930 . S
H1517 C1532 0.960 . S
H1518 C1532 0.960 . S
H1519 C1532 0.960 . S
C1520 H1512 0.944 . S
C1520 C1521 1.377 . S
C1520 C1522 1.384 . S
C1521 C1520 1.377 . S
C1521 C1527 1.390 . S
C1522 H1513 0.930 . S
C1522 C1520 1.384 . S
C1522 C1523 1.372 . S
C1523 C1522 1.372 . S
C1523 C1524 1.400 . S
C1523 C1528 1.490 . S
C1524 H1514 0.930 . S
C1524 C1523 1.400 . S
C1524 C1527 1.386 . S
H1525 C1541 0.930 . S
H1526 C1542 0.931 . S
C1527 H1515 0.929 . S
C1527 C1521 1.390 . S
C1527 C1524 1.386 . S
C1528 C1523 1.490 . S
C1528 C1530 1.395 . S
C1528 C1531 1.403 . S
H1529 C1535 0.930 . S
C1530 H1516 0.930 . S
C1530 C1528 1.395 . S
C1530 C1533 1.403 . S
C1531 C1528 1.403 . S
C1531 C1532 1.524 . S
C1531 C1535 1.400 . S
C1532 H1517 0.960 . S
C1532 H1518 0.960 . S
C1532 H1519 0.960 . S
C1532 C1531 1.524 . S
C1533 C1530 1.403 . S
C1533 C1534 1.392 . S
C1533 C1537 1.495 . S
C1534 C1533 1.392 . S
C1534 C1535 1.385 . S
C1534 C1536 1.478 . S
C1535 H1529 0.930 . S
C1535 C1531 1.400 . S
C1535 C1534 1.385 . S
C1536 C1534 1.478 . S
C1536 C1538 1.381 . S
C1536 C1542 1.383 . S
C1537 C1533 1.495 . S
C1537 H1543 0.959 . S
C1537 H1544 0.961 . S
C1537 H1545 0.960 . S
C1538 C1536 1.381 . S
C1538 C1539 1.394 . S
C1538 H1546 0.930 . S
C1539 C1538 1.394 . S
C1539 C1540 1.383 . S
C1539 H1547 0.929 . S
C1540 C1539 1.383 . S
C1540 C1541 1.377 . S
C1541 H1525 0.930 . S
C1541 C1540 1.377 . S
C1541 C1542 1.379 . S
C1542 H1526 0.931 . S
C1542 C1536 1.383 . S
C1542 C1541 1.379 . S
H1543 C1537 0.959 . S
H1544 C1537 0.961 . S
H1545 C1537 0.960 . S
H1546 C1538 0.930 . S
H1547 C1539 0.929 . S
H1548 C1556 0.929 . S
H1549 C1558 0.930 . S
H1550 C1560 0.930 . S
H1551 C1563 0.929 . S
H1552 C1566 0.930 . S
H1553 C1568 0.960 . S
H1554 C1568 0.960 . S
H1555 C1568 0.960 . S
C1556 H1548 0.929 . S
C1556 C1557 1.377 . S
C1556 C1558 1.384 . S
C1557 C1556 1.377 . S
C1557 C1563 1.390 . S
C1558 H1549 0.930 . S
C1558 C1556 1.384 . S
C1558 C1559 1.372 . S
C1559 C1558 1.372 . S
C1559 C1560 1.400 . S
C1559 C1564 1.490 . S
C1560 H1550 0.930 . S
C1560 C1559 1.400 . S
C1560 C1563 1.386 . S
H1561 C1577 0.930 . S
H1562 C1578 0.931 . S
C1563 H1551 0.929 . S
C1563 C1557 1.390 . S
C1563 C1560 1.386 . S
C1564 C1559 1.490 . S
C1564 C1566 1.395 . S
C1564 C1567 1.403 . S
H1565 C1571 0.930 . S
C1566 H1552 0.930 . S
C1566 C1564 1.395 . S
C1566 C1569 1.403 . S
C1567 C1564 1.403 . S
C1567 C1568 1.524 . S
C1567 C1571 1.400 . S
C1568 H1553 0.960 . S
C1568 H1554 0.960 . S
C1568 H1555 0.960 . S
C1568 C1567 1.524 . S
C1569 C1566 1.403 . S
C1569 C1570 1.392 . S
C1569 C1573 1.495 . S
C1570 C1569 1.392 . S
C1570 C1571 1.385 . S
C1570 C1572 1.478 . S
C1571 H1565 0.930 . S
C1571 C1567 1.400 . S
C1571 C1570 1.385 . S
C1572 C1570 1.478 . S
C1572 C1574 1.381 . S
C1572 C1578 1.383 . S
C1573 C1569 1.495 . S
C1573 H1579 0.959 . S
C1573 H1580 0.961 . S
C1573 H1581 0.960 . S
C1574 C1572 1.381 . S
C1574 C1575 1.394 . S
C1574 H1582 0.930 . S
C1575 C1574 1.394 . S
C1575 C1576 1.383 . S
C1575 H1583 0.929 . S
C1576 C1575 1.383 . S
C1576 C1577 1.377 . S
C1577 H1561 0.930 . S
C1577 C1576 1.377 . S
C1577 C1578 1.379 . S
C1578 H1562 0.931 . S
C1578 C1572 1.383 . S
C1578 C1577 1.379 . S
H1579 C1573 0.959 . S
H1580 C1573 0.961 . S
H1581 C1573 0.960 . S
H1582 C1574 0.930 . S
H1583 C1575 0.929 . S
H1584 C1592 0.929 . S
H1585 C1594 0.930 . S
H1586 C1596 0.929 . S
H1587 C1599 0.929 . S
H1588 C1602 0.930 . S
H1589 C1604 0.960 . S
H1590 C1604 0.960 . S
H1591 C1604 0.960 . S
C1592 H1584 0.929 . S
C1592 C1593 1.377 . S
C1592 C1594 1.384 1_565 S
C1593 C1592 1.377 . S
C1593 C1599 1.390 . S
C1594 H1585 0.930 . S
C1594 C1592 1.384 1_545 S
C1594 C1595 1.372 . S
C1595 C1594 1.372 . S
C1595 C1596 1.395 . S
C1595 C1600 1.490 . S
C1596 H1586 0.929 . S
C1596 C1595 1.395 . S
C1596 C1599 1.391 1_545 S
H1597 C1613 0.930 . S
H1598 C1614 0.931 . S
C1599 H1587 0.929 . S
C1599 C1593 1.390 . S
C1599 C1596 1.391 1_565 S
C1600 C1595 1.490 . S
C1600 C1602 1.395 . S
C1600 C1603 1.403 . S
H1601 C1607 0.930 . S
C1602 H1588 0.930 . S
C1602 C1600 1.395 . S
C1602 C1605 1.403 . S
C1603 C1600 1.403 . S
C1603 C1604 1.524 . S
C1603 C1607 1.400 . S
C1604 H1589 0.960 . S
C1604 H1590 0.960 . S
C1604 H1591 0.960 . S
C1604 C1603 1.524 . S
C1605 C1602 1.403 . S
C1605 C1606 1.392 . S
C1605 C1609 1.495 . S
C1606 C1605 1.392 . S
C1606 C1607 1.385 . S
C1606 C1608 1.478 . S
C1607 H1601 0.930 . S
C1607 C1603 1.400 . S
C1607 C1606 1.385 . S
C1608 C1606 1.478 . S
C1608 C1610 1.381 . S
C1608 C1614 1.383 . S
C1609 C1605 1.495 . S
C1609 H1615 0.959 . S
C1609 H1616 0.961 . S
C1609 H1617 0.960 . S
C1610 C1608 1.381 . S
C1610 C1611 1.394 . S
C1610 H1618 0.930 . S
C1611 C1610 1.394 . S
C1611 C1612 1.383 . S
C1611 H1619 0.929 . S
C1612 C1611 1.383 . S
C1612 C1613 1.377 . S
C1613 H1597 0.930 . S
C1613 C1612 1.377 . S
C1613 C1614 1.379 . S
C1614 H1598 0.931 . S
C1614 C1608 1.383 . S
C1614 C1613 1.379 . S
H1615 C1609 0.959 . S
H1616 C1609 0.961 . S
H1617 C1609 0.960 . S
H1618 C1610 0.930 . S
H1619 C1611 0.929 . S
H1620 C1628 0.929 . S
H1621 C1630 0.930 . S
H1622 C1632 0.930 . S
H1623 C1635 0.929 . S
H1624 C1638 0.930 . S
H1625 C1640 0.960 . S
H1626 C1640 0.960 . S
H1627 C1640 0.960 . S
C1628 H1620 0.929 . S
C1628 C1629 1.377 . S
C1628 C1630 1.384 . S
C1629 C1628 1.377 . S
C1629 C1635 1.390 . S
C1630 H1621 0.930 . S
C1630 C1628 1.384 . S
C1630 C1631 1.372 . S
C1631 C1630 1.372 . S
C1631 C1632 1.400 . S
C1631 C1636 1.490 . S
C1632 H1622 0.930 . S
C1632 C1631 1.400 . S
C1632 C1635 1.386 . S
H1633 C1649 0.930 . S
H1634 C1650 0.931 . S
C1635 H1623 0.929 . S
C1635 C1629 1.390 . S
C1635 C1632 1.386 . S
C1636 C1631 1.490 . S
C1636 C1638 1.395 . S
C1636 C1639 1.403 . S
H1637 C1643 0.930 . S
C1638 H1624 0.930 . S
C1638 C1636 1.395 . S
C1638 C1641 1.403 . S
C1639 C1636 1.403 . S
C1639 C1640 1.524 . S
C1639 C1643 1.400 . S
C1640 H1625 0.960 . S
C1640 H1626 0.960 . S
C1640 H1627 0.960 . S
C1640 C1639 1.524 . S
C1641 C1638 1.403 . S
C1641 C1642 1.392 . S
C1641 C1645 1.495 . S
C1642 C1641 1.392 . S
C1642 C1643 1.385 . S
C1642 C1644 1.478 . S
C1643 H1637 0.930 . S
C1643 C1639 1.400 . S
C1643 C1642 1.385 . S
C1644 C1642 1.478 . S
C1644 C1646 1.381 . S
C1644 C1650 1.383 . S
C1645 C1641 1.495 . S
C1645 H1651 0.959 . S
C1645 H1652 0.961 . S
C1645 H1653 0.960 . S
C1646 C1644 1.381 . S
C1646 C1647 1.394 . S
C1646 H1654 0.930 . S
C1647 C1646 1.394 . S
C1647 C1648 1.383 . S
C1647 H1655 0.929 . S
C1648 C1647 1.383 . S
C1648 C1649 1.377 . S
C1649 H1633 0.930 . S
C1649 C1648 1.377 . S
C1649 C1650 1.379 . S
C1650 H1634 0.931 . S
C1650 C1644 1.383 . S
C1650 C1649 1.379 . S
H1651 C1645 0.959 . S
H1652 C1645 0.961 . S
H1653 C1645 0.960 . S
H1654 C1646 0.930 . S
H1655 C1647 0.929 . S
H1656 C1664 0.929 . S
H1657 C1666 0.930 . S
H1658 C1668 0.930 . S
H1659 C1671 0.929 . S
H1660 C1674 0.930 . S
H1661 C1676 0.960 . S
H1662 C1676 0.960 . S
H1663 C1676 0.960 . S
C1664 H1656 0.929 . S
C1664 C1665 1.377 . S
C1664 C1666 1.384 . S
C1665 C1664 1.377 . S
C1665 C1671 1.390 . S
C1666 H1657 0.930 . S
C1666 C1664 1.384 . S
C1666 C1667 1.372 . S
C1667 C1666 1.372 . S
C1667 C1668 1.400 . S
C1667 C1672 1.490 . S
C1668 H1658 0.930 . S
C1668 C1667 1.400 . S
C1668 C1671 1.386 . S
H1669 C1685 0.930 . S
H1670 C1686 0.931 . S
C1671 H1659 0.929 . S
C1671 C1665 1.390 . S
C1671 C1668 1.386 . S
C1672 C1667 1.490 . S
C1672 C1674 1.395 . S
C1672 C1675 1.403 . S
H1673 C1679 0.930 . S
C1674 H1660 0.930 . S
C1674 C1672 1.395 . S
C1674 C1677 1.403 . S
C1675 C1672 1.403 . S
C1675 C1676 1.524 . S
C1675 C1679 1.400 . S
C1676 H1661 0.960 . S
C1676 H1662 0.960 . S
C1676 H1663 0.960 . S
C1676 C1675 1.524 . S
C1677 C1674 1.403 . S
C1677 C1678 1.392 . S
C1677 C1681 1.495 . S
C1678 C1677 1.392 . S
C1678 C1679 1.385 . S
C1678 C1680 1.478 . S
C1679 H1673 0.930 . S
C1679 C1675 1.400 . S
C1679 C1678 1.385 . S
C1680 C1678 1.478 . S
C1680 C1682 1.381 . S
C1680 C1686 1.383 . S
C1681 C1677 1.495 . S
C1681 H1687 0.959 . S
C1681 H1688 0.961 . S
C1681 H1689 0.960 . S
C1682 C1680 1.381 . S
C1682 C1683 1.394 . S
C1682 H1690 0.930 . S
C1683 C1682 1.394 . S
C1683 C1684 1.383 . S
C1683 H1691 0.929 . S
C1684 C1683 1.383 . S
C1684 C1685 1.377 . S
C1685 H1669 0.930 . S
C1685 C1684 1.377 . S
C1685 C1686 1.379 . S
C1686 H1670 0.931 . S
C1686 C1680 1.383 . S
C1686 C1685 1.379 . S
H1687 C1681 0.959 . S
H1688 C1681 0.961 . S
H1689 C1681 0.960 . S
H1690 C1682 0.930 . S
H1691 C1683 0.929 . S
H1692 C1700 0.929 . S
H1693 C1702 0.930 . S
H1694 C1704 0.930 . S
H1695 C1707 0.929 . S
H1696 C1710 0.930 . S
H1697 C1712 0.960 . S
H1698 C1712 0.960 . S
H1699 C1712 0.960 . S
C1700 H1692 0.929 . S
C1700 C1701 1.377 . S
C1700 C1702 1.384 . S
C1701 C1700 1.377 . S
C1701 C1707 1.390 . S
C1702 H1693 0.930 . S
C1702 C1700 1.384 . S
C1702 C1703 1.372 . S
C1703 C1702 1.372 . S
C1703 C1704 1.400 . S
C1703 C1708 1.490 . S
C1704 H1694 0.930 . S
C1704 C1703 1.400 . S
C1704 C1707 1.386 . S
H1705 C1721 0.930 . S
H1706 C1722 0.931 . S
C1707 H1695 0.929 . S
C1707 C1701 1.390 . S
C1707 C1704 1.386 . S
C1708 C1703 1.490 . S
C1708 C1710 1.395 . S
C1708 C1711 1.403 . S
H1709 C1715 0.930 . S
C1710 H1696 0.930 . S
C1710 C1708 1.395 . S
C1710 C1713 1.403 . S
C1711 C1708 1.403 . S
C1711 C1712 1.524 . S
C1711 C1715 1.400 . S
C1712 H1697 0.960 . S
C1712 H1698 0.960 . S
C1712 H1699 0.960 . S
C1712 C1711 1.524 . S
C1713 C1710 1.403 . S
C1713 C1714 1.392 . S
C1713 C1717 1.495 . S
C1714 C1713 1.392 . S
C1714 C1715 1.385 . S
C1714 C1716 1.478 . S
C1715 H1709 0.930 . S
C1715 C1711 1.400 . S
C1715 C1714 1.385 . S
C1716 C1714 1.478 . S
C1716 C1718 1.381 . S
C1716 C1722 1.383 . S
C1717 C1713 1.495 . S
C1717 H1723 0.959 . S
C1717 H1724 0.961 . S
C1717 H1725 0.960 . S
C1718 C1716 1.381 . S
C1718 C1719 1.394 . S
C1718 H1726 0.930 . S
C1719 C1718 1.394 . S
C1719 C1720 1.383 . S
C1719 H1727 0.929 . S
C1720 C1719 1.383 . S
C1720 C1721 1.377 . S
C1721 H1705 0.930 . S
C1721 C1720 1.377 . S
C1721 C1722 1.379 . S
C1722 H1706 0.931 . S
C1722 C1716 1.383 . S
C1722 C1721 1.379 . S
H1723 C1717 0.959 . S
H1724 C1717 0.961 . S
H1725 C1717 0.960 . S
H1726 C1718 0.930 . S
H1727 C1719 0.929 . S
H1728 C1736 0.929 . S
H1729 C1738 0.930 . S
H1730 C1740 0.930 . S
H1731 C1743 0.929 . S
H1732 C1746 0.930 . S
H1733 C1748 0.960 . S
H1734 C1748 0.960 . S
H1735 C1748 0.960 . S
C1736 H1728 0.929 . S
C1736 C1737 1.377 . S
C1736 C1738 1.384 . S
C1737 C1736 1.377 . S
C1737 C1743 1.390 . S
C1738 H1729 0.930 . S
C1738 C1736 1.384 . S
C1738 C1739 1.372 . S
C1739 C1738 1.372 . S
C1739 C1740 1.400 . S
C1739 C1744 1.490 . S
C1740 H1730 0.930 . S
C1740 C1739 1.400 . S
C1740 C1743 1.386 . S
H1741 C1757 0.930 . S
H1742 C1758 0.931 . S
C1743 H1731 0.929 . S
C1743 C1737 1.390 . S
C1743 C1740 1.386 . S
C1744 C1739 1.490 . S
C1744 C1746 1.395 . S
C1744 C1747 1.403 . S
H1745 C1751 0.930 . S
C1746 H1732 0.930 . S
C1746 C1744 1.395 . S
C1746 C1749 1.403 . S
C1747 C1744 1.403 . S
C1747 C1748 1.524 . S
C1747 C1751 1.400 . S
C1748 H1733 0.960 . S
C1748 H1734 0.960 . S
C1748 H1735 0.960 . S
C1748 C1747 1.524 . S
C1749 C1746 1.403 . S
C1749 C1750 1.392 . S
C1749 C1753 1.495 . S
C1750 C1749 1.392 . S
C1750 C1751 1.385 . S
C1750 C1752 1.478 . S
C1751 H1745 0.930 . S
C1751 C1747 1.400 . S
C1751 C1750 1.385 . S
C1752 C1750 1.478 . S
C1752 C1754 1.381 . S
C1752 C1758 1.383 . S
C1753 C1749 1.495 . S
C1753 H1759 0.959 . S
C1753 H1760 0.961 . S
C1753 H1761 0.960 . S
C1754 C1752 1.381 . S
C1754 C1755 1.394 . S
C1754 H1762 0.930 . S
C1755 C1754 1.394 . S
C1755 C1756 1.383 . S
C1755 H1763 0.929 . S
C1756 C1755 1.383 . S
C1756 C1757 1.377 . S
C1757 H1741 0.930 . S
C1757 C1756 1.377 . S
C1757 C1758 1.379 . S
C1758 H1742 0.931 . S
C1758 C1752 1.383 . S
C1758 C1757 1.379 . S
H1759 C1753 0.959 . S
H1760 C1753 0.961 . S
H1761 C1753 0.960 . S
H1762 C1754 0.930 . S
H1763 C1755 0.929 . S
H1764 C1772 0.929 . S
H1765 C1774 0.930 . S
H1766 C1776 0.930 . S
H1767 C1779 0.929 . S
H1768 C1782 0.930 . S
H1769 C1784 0.960 . S
H1770 C1784 0.960 . S
H1771 C1784 0.960 . S
C1772 H1764 0.929 . S
C1772 C1773 1.377 . S
C1772 C1774 1.384 . S
C1773 C1772 1.377 . S
C1773 C1779 1.390 . S
C1774 H1765 0.930 . S
C1774 C1772 1.384 . S
C1774 C1775 1.372 . S
C1775 C1774 1.372 . S
C1775 C1776 1.400 . S
C1775 C1780 1.490 . S
C1776 H1766 0.930 . S
C1776 C1775 1.400 . S
C1776 C1779 1.386 . S
H1777 C1793 0.930 . S
H1778 C1794 0.931 . S
C1779 H1767 0.929 . S
C1779 C1773 1.390 . S
C1779 C1776 1.386 . S
C1780 C1775 1.490 . S
C1780 C1782 1.395 . S
C1780 C1783 1.403 . S
H1781 C1787 0.930 . S
C1782 H1768 0.930 . S
C1782 C1780 1.395 . S
C1782 C1785 1.403 . S
C1783 C1780 1.403 . S
C1783 C1784 1.524 . S
C1783 C1787 1.400 . S
C1784 H1769 0.960 . S
C1784 H1770 0.960 . S
C1784 H1771 0.960 . S
C1784 C1783 1.524 . S
C1785 C1782 1.403 . S
C1785 C1786 1.392 . S
C1785 C1789 1.495 . S
C1786 C1785 1.392 . S
C1786 C1787 1.385 . S
C1786 C1788 1.478 . S
C1787 H1781 0.930 . S
C1787 C1783 1.400 . S
C1787 C1786 1.385 . S
C1788 C1786 1.478 . S
C1788 C1790 1.381 . S
C1788 C1794 1.383 . S
C1789 C1785 1.495 . S
C1789 H1795 0.959 . S
C1789 H1796 0.961 . S
C1789 H1797 0.960 . S
C1790 C1788 1.381 . S
C1790 C1791 1.394 . S
C1790 H1798 0.930 . S
C1791 C1790 1.394 . S
C1791 C1792 1.383 . S
C1791 H1799 0.929 . S
C1792 C1791 1.383 . S
C1792 C1793 1.377 . S
C1793 H1777 0.930 . S
C1793 C1792 1.377 . S
C1793 C1794 1.379 . S
C1794 H1778 0.931 . S
C1794 C1788 1.383 . S
C1794 C1793 1.379 . S
H1795 C1789 0.959 . S
H1796 C1789 0.961 . S
H1797 C1789 0.960 . S
H1798 C1790 0.930 . S
H1799 C1791 0.929 . S
H1800 C1808 0.929 . S
H1801 C1810 0.930 . S
H1802 C1812 0.930 . S
H1803 C1815 0.929 . S
H1804 C1818 0.930 . S
H1805 C1820 0.960 . S
H1806 C1820 0.960 . S
H1807 C1820 0.960 . S
C1808 H1800 0.929 . S
C1808 C1809 1.377 . S
C1808 C1810 1.384 . S
C1809 C1808 1.377 . S
C1809 C1815 1.390 . S
C1810 H1801 0.930 . S
C1810 C1808 1.384 . S
C1810 C1811 1.372 . S
C1811 C1810 1.372 . S
C1811 C1812 1.400 . S
C1811 C1816 1.490 . S
C1812 H1802 0.930 . S
C1812 C1811 1.400 . S
C1812 C1815 1.386 . S
H1813 C1829 0.930 . S
H1814 C1830 0.931 . S
C1815 H1803 0.929 . S
C1815 C1809 1.390 . S
C1815 C1812 1.386 . S
C1816 C1811 1.490 . S
C1816 C1818 1.395 . S
C1816 C1819 1.403 . S
H1817 C1823 0.930 . S
C1818 H1804 0.930 . S
C1818 C1816 1.395 . S
C1818 C1821 1.403 . S
C1819 C1816 1.403 . S
C1819 C1820 1.524 . S
C1819 C1823 1.400 . S
C1820 H1805 0.960 . S
C1820 H1806 0.960 . S
C1820 H1807 0.960 . S
C1820 C1819 1.524 . S
C1821 C1818 1.403 . S
C1821 C1822 1.392 . S
C1821 C1825 1.495 . S
C1822 C1821 1.392 . S
C1822 C1823 1.385 . S
C1822 C1824 1.478 . S
C1823 H1817 0.930 . S
C1823 C1819 1.400 . S
C1823 C1822 1.385 . S
C1824 C1822 1.478 . S
C1824 C1826 1.381 . S
C1824 C1830 1.383 . S
C1825 C1821 1.495 . S
C1825 H1831 0.959 . S
C1825 H1832 0.961 . S
C1825 H1833 0.960 . S
C1826 C1824 1.381 . S
C1826 C1827 1.394 . S
C1826 H1834 0.930 . S
C1827 C1826 1.394 . S
C1827 C1828 1.383 . S
C1827 H1835 0.929 . S
C1828 C1827 1.383 . S
C1828 C1829 1.377 . S
C1829 H1813 0.930 . S
C1829 C1828 1.377 . S
C1829 C1830 1.379 . S
C1830 H1814 0.931 . S
C1830 C1824 1.383 . S
C1830 C1829 1.379 . S
H1831 C1825 0.959 . S
H1832 C1825 0.961 . S
H1833 C1825 0.960 . S
H1834 C1826 0.930 . S
H1835 C1827 0.929 . S
H1836 C1844 0.929 . S
H1837 C1846 0.930 . S
H1838 C1848 0.930 . S
H1839 C1851 0.929 . S
H1840 C1854 0.930 . S
H1841 C1856 0.960 . S
H1842 C1856 0.960 . S
H1843 C1856 0.960 . S
C1844 H1836 0.929 . S
C1844 C1845 1.377 . S
C1844 C1846 1.384 . S
C1845 C1844 1.377 . S
C1845 C1851 1.390 . S
C1846 H1837 0.930 . S
C1846 C1844 1.384 . S
C1846 C1847 1.372 . S
C1847 C1846 1.372 . S
C1847 C1848 1.400 . S
C1847 C1852 1.490 . S
C1848 H1838 0.930 . S
C1848 C1847 1.400 . S
C1848 C1851 1.386 . S
H1849 C1865 0.930 . S
H1850 C1866 0.931 . S
C1851 H1839 0.929 . S
C1851 C1845 1.390 . S
C1851 C1848 1.386 . S
C1852 C1847 1.490 . S
C1852 C1854 1.395 1_455 S
C1852 C1855 1.403 . S
H1853 C1859 0.930 . S
C1854 H1840 0.930 . S
C1854 C1852 1.395 1_655 S
C1854 C1857 1.403 . S
C1855 C1852 1.403 . S
C1855 C1856 1.524 . S
C1855 C1859 1.400 1_455 S
C1856 H1841 0.960 . S
C1856 H1842 0.960 . S
C1856 H1843 0.960 . S
C1856 C1855 1.524 . S
C1857 C1854 1.403 . S
C1857 C1858 1.392 . S
C1857 C1861 1.495 . S
C1858 C1857 1.392 . S
C1858 C1859 1.385 . S
C1858 C1860 1.478 . S
C1859 H1853 0.930 . S
C1859 C1855 1.400 1_655 S
C1859 C1858 1.385 . S
C1860 C1858 1.478 . S
C1860 C1862 1.381 . S
C1860 C1866 1.383 . S
C1861 C1857 1.495 . S
C1861 H1867 0.959 . S
C1861 H1868 0.961 . S
C1861 H1869 0.960 . S
C1862 C1860 1.381 . S
C1862 C1863 1.394 . S
C1862 H1870 0.930 . S
C1863 C1862 1.394 . S
C1863 C1864 1.383 . S
C1863 H1871 0.929 . S
C1864 C1863 1.383 . S
C1864 C1865 1.377 . S
C1865 H1849 0.930 . S
C1865 C1864 1.377 . S
C1865 C1866 1.379 . S
C1866 H1850 0.931 . S
C1866 C1860 1.383 . S
C1866 C1865 1.379 . S
H1867 C1861 0.959 . S
H1868 C1861 0.961 . S
H1869 C1861 0.960 . S
H1870 C1862 0.930 . S
H1871 C1863 0.929 . S
H1872 C1880 0.929 . S
H1873 C1882 0.930 . S
H1874 C1884 0.930 . S
H1875 C1887 0.929 . S
H1876 C1890 0.930 . S
H1877 C1892 0.960 . S
H1878 C1892 0.960 . S
H1879 C1892 0.960 . S
C1880 H1872 0.929 . S
C1880 C1881 1.377 . S
C1880 C1882 1.384 . S
C1881 C1880 1.377 . S
C1881 C1887 1.390 . S
C1882 H1873 0.930 . S
C1882 C1880 1.384 . S
C1882 C1883 1.372 . S
C1883 C1882 1.372 . S
C1883 C1884 1.400 . S
C1883 C1888 1.490 . S
C1884 H1874 0.930 . S
C1884 C1883 1.400 . S
C1884 C1887 1.386 . S
H1885 C1901 0.930 . S
H1886 C1902 0.931 . S
C1887 H1875 0.929 . S
C1887 C1881 1.390 . S
C1887 C1884 1.386 . S
C1888 C1883 1.490 . S
C1888 C1890 1.395 . S
C1888 C1891 1.403 . S
H1889 C1895 0.930 . S
C1890 H1876 0.930 . S
C1890 C1888 1.395 . S
C1890 C1893 1.403 . S
C1891 C1888 1.403 . S
C1891 C1892 1.524 . S
C1891 C1895 1.400 . S
C1892 H1877 0.960 . S
C1892 H1878 0.960 . S
C1892 H1879 0.960 . S
C1892 C1891 1.524 . S
C1893 C1890 1.403 . S
C1893 C1894 1.392 . S
C1893 C1897 1.495 . S
C1894 C1893 1.392 . S
C1894 C1895 1.385 . S
C1894 C1896 1.478 . S
C1895 H1889 0.930 . S
C1895 C1891 1.400 . S
C1895 C1894 1.385 . S
C1896 C1894 1.478 . S
C1896 C1898 1.381 . S
C1896 C1902 1.383 . S
C1897 C1893 1.495 . S
C1897 H1903 0.959 . S
C1897 H1904 0.961 . S
C1897 H1905 0.960 . S
C1898 C1896 1.381 . S
C1898 C1899 1.394 . S
C1898 H1906 0.930 . S
C1899 C1898 1.394 . S
C1899 C1900 1.383 . S
C1899 H1907 0.929 . S
C1900 C1899 1.383 . S
C1900 C1901 1.377 . S
C1901 H1885 0.930 . S
C1901 C1900 1.377 . S
C1901 C1902 1.379 . S
C1902 H1886 0.931 . S
C1902 C1896 1.383 . S
C1902 C1901 1.379 . S
H1903 C1897 0.959 . S
H1904 C1897 0.961 . S
H1905 C1897 0.960 . S
H1906 C1898 0.930 . S
H1907 C1899 0.929 . S
H1908 C1916 0.929 . S
H1909 C1918 0.930 . S
H1910 C1920 0.930 . S
H1911 C1923 0.929 . S
H1912 C1926 0.930 . S
H1913 C1928 0.960 . S
H1914 C1928 0.960 . S
H1915 C1928 0.960 . S
C1916 H1908 0.929 . S
C1916 C1917 1.377 . S
C1916 C1918 1.384 . S
C1917 C1916 1.377 . S
C1917 C1923 1.390 . S
C1918 H1909 0.930 . S
C1918 C1916 1.384 . S
C1918 C1919 1.372 . S
C1919 C1918 1.372 . S
C1919 C1920 1.400 . S
C1919 C1924 1.490 . S
C1920 H1910 0.930 . S
C1920 C1919 1.400 . S
C1920 C1923 1.386 . S
H1921 C1937 0.930 . S
H1922 C1938 0.931 . S
C1923 H1911 0.929 . S
C1923 C1917 1.390 . S
C1923 C1920 1.386 . S
C1924 C1919 1.490 . S
C1924 C1926 1.395 . S
C1924 C1927 1.403 1_655 S
H1925 C1931 0.930 . S
C1926 H1912 0.930 . S
C1926 C1924 1.395 . S
C1926 C1929 1.403 1_655 S
C1927 C1924 1.403 1_455 S
C1927 C1928 1.524 . S
C1927 C1931 1.400 . S
C1928 H1913 0.960 . S
C1928 H1914 0.960 . S
C1928 H1915 0.960 . S
C1928 C1927 1.524 . S
C1929 C1926 1.403 1_455 S
C1929 C1930 1.392 . S
C1929 C1933 1.496 . S
C1930 C1929 1.392 . S
C1930 C1931 1.385 . S
C1930 C1932 1.478 . S
C1931 H1925 0.930 . S
C1931 C1927 1.400 . S
C1931 C1930 1.385 . S
C1932 C1930 1.478 . S
C1932 C1934 1.381 . S
C1932 C1938 1.383 . S
C1933 C1929 1.496 . S
C1933 H1939 0.957 1_455 S
C1933 H1940 0.962 . S
C1933 H1941 0.961 . S
C1934 C1932 1.381 . S
C1934 C1935 1.394 . S
C1934 H1942 0.930 . S
C1935 C1934 1.394 . S
C1935 C1936 1.383 . S
C1935 H1943 0.929 . S
C1936 C1935 1.383 . S
C1936 C1937 1.377 . S
C1937 H1921 0.930 . S
C1937 C1936 1.377 . S
C1937 C1938 1.379 . S
C1938 H1922 0.931 . S
C1938 C1932 1.383 . S
C1938 C1937 1.379 . S
H1939 C1933 0.957 1_655 S
H1940 C1933 0.962 . S
H1941 C1933 0.961 . S
H1942 C1934 0.930 . S
H1943 C1935 0.929 . S
H1944 C1952 0.929 . S
H1945 C1954 0.930 . S
H1946 C1956 0.930 . S
H1947 C1959 0.929 . S
H1948 C1962 0.930 . S
H1949 C1964 0.960 . S
H1950 C1964 0.960 . S
H1951 C1964 0.960 . S
C1952 H1944 0.929 . S
C1952 C1953 1.377 . S
C1952 C1954 1.384 . S
C1953 C1952 1.377 . S
C1953 C1959 1.390 . S
C1954 H1945 0.930 . S
C1954 C1952 1.384 . S
C1954 C1955 1.372 . S
C1955 C1954 1.372 . S
C1955 C1956 1.400 . S
C1955 C1960 1.490 . S
C1956 H1946 0.930 . S
C1956 C1955 1.400 . S
C1956 C1959 1.386 . S
H1957 C1973 0.930 . S
H1958 C1974 0.931 . S
C1959 H1947 0.929 . S
C1959 C1953 1.390 . S
C1959 C1956 1.386 . S
C1960 C1955 1.490 . S
C1960 C1962 1.395 . S
C1960 C1963 1.403 . S
H1961 C1967 0.930 . S
C1962 H1948 0.930 . S
C1962 C1960 1.395 . S
C1962 C1965 1.403 . S
C1963 C1960 1.403 . S
C1963 C1964 1.524 . S
C1963 C1967 1.400 . S
C1964 H1949 0.960 . S
C1964 H1950 0.960 . S
C1964 H1951 0.960 . S
C1964 C1963 1.524 . S
C1965 C1962 1.403 . S
C1965 C1966 1.392 . S
C1965 C1969 1.495 . S
C1966 C1965 1.392 . S
C1966 C1967 1.385 . S
C1966 C1968 1.478 . S
C1967 H1961 0.930 . S
C1967 C1963 1.400 . S
C1967 C1966 1.385 . S
C1968 C1966 1.478 . S
C1968 C1970 1.381 . S
C1968 C1974 1.383 . S
C1969 C1965 1.495 . S
C1969 H1975 0.959 . S
C1969 H1976 0.961 . S
C1969 H1977 0.960 . S
C1970 C1968 1.381 . S
C1970 C1971 1.394 . S
C1970 H1978 0.930 . S
C1971 C1970 1.394 . S
C1971 C1972 1.383 . S
C1971 H1979 0.929 . S
C1972 C1971 1.383 . S
C1972 C1973 1.377 . S
C1973 H1957 0.930 . S
C1973 C1972 1.377 . S
C1973 C1974 1.379 . S
C1974 H1958 0.931 . S
C1974 C1968 1.383 . S
C1974 C1973 1.379 . S
H1975 C1969 0.959 . S
H1976 C1969 0.961 . S
H1977 C1969 0.960 . S
H1978 C1970 0.930 . S
H1979 C1971 0.929 . S
H1980 C1988 0.929 . S
H1981 C1990 0.930 . S
H1982 C1992 0.896 1_556 S
H1983 C1995 0.929 . S
H1984 C1998 0.908 1_554 S
H1985 C2000 0.960 . S
H1986 C2000 0.960 . S
H1987 C2000 0.960 . S
C1988 H1980 0.929 . S
C1988 C1989 1.377 . S
C1988 C1990 1.384 . S
C1989 C1988 1.377 . S
C1989 C1995 1.390 . S
C1990 H1981 0.930 . S
C1990 C1988 1.384 . S
C1990 C1991 1.372 . S
C1991 C1990 1.372 . S
C1991 C1992 1.410 . S
C1991 C1996 1.490 1_554 S
C1992 H1982 0.896 1_554 S
C1992 C1991 1.410 . S
C1992 C1995 1.410 . S
H1993 C2009 0.930 . S
H1994 C2010 0.931 . S
C1995 H1983 0.929 . S
C1995 C1989 1.390 . S
C1995 C1992 1.410 . S
C1996 C1991 1.490 1_556 S
C1996 C1998 1.395 . S
C1996 C1999 1.403 . S
H1997 C2003 0.930 . S
C1998 H1984 0.908 1_556 S
C1998 C1996 1.395 . S
C1998 C2001 1.403 . S
C1999 C1996 1.403 . S
C1999 C2000 1.524 . S
C1999 C2003 1.400 . S
C2000 H1985 0.960 . S
C2000 H1986 0.960 . S
C2000 H1987 0.960 . S
C2000 C1999 1.524 . S
C2001 C1998 1.403 . S
C2001 C2002 1.392 . S
C2001 C2005 1.495 . S
C2002 C2001 1.392 . S
C2002 C2003 1.385 . S
C2002 C2004 1.478 . S
C2003 H1997 0.930 . S
C2003 C1999 1.400 . S
C2003 C2002 1.385 . S
C2004 C2002 1.478 . S
C2004 C2006 1.381 . S
C2004 C2010 1.383 . S
C2005 C2001 1.495 . S
C2005 H2011 0.959 . S
C2005 H2012 0.961 . S
C2005 H2013 0.960 . S
C2006 C2004 1.381 . S
C2006 C2007 1.394 . S
C2006 H2014 0.930 . S
C2007 C2006 1.394 . S
C2007 C2008 1.383 . S
C2007 H2015 0.929 . S
C2008 C2007 1.383 . S
C2008 C2009 1.377 . S
C2009 H1993 0.930 . S
C2009 C2008 1.377 . S
C2009 C2010 1.379 . S
C2010 H1994 0.931 . S
C2010 C2004 1.383 . S
C2010 C2009 1.379 . S
H2011 C2005 0.959 . S
H2012 C2005 0.961 . S
H2013 C2005 0.960 . S
H2014 C2006 0.930 . S
H2015 C2007 0.929 . S
H2016 C2024 0.929 . S
H2017 C2026 0.930 . S
H2018 C2028 0.930 . S
H2019 C2031 0.929 . S
H2020 C2034 0.930 . S
H2021 C2036 0.960 . S
H2022 C2036 0.960 . S
H2023 C2036 0.960 . S
C2024 H2016 0.929 . S
C2024 C2025 1.377 . S
C2024 C2026 1.384 . S
C2025 C2024 1.377 . S
C2025 C2031 1.390 . S
C2026 H2017 0.930 . S
C2026 C2024 1.384 . S
C2026 C2027 1.372 . S
C2027 C2026 1.372 . S
C2027 C2028 1.400 . S
C2027 C2032 1.490 . S
C2028 H2018 0.930 . S
C2028 C2027 1.400 . S
C2028 C2031 1.386 . S
H2029 C2045 0.930 . S
H2030 C2046 0.931 . S
C2031 H2019 0.929 . S
C2031 C2025 1.390 . S
C2031 C2028 1.386 . S
C2032 C2027 1.490 . S
C2032 C2034 1.395 . S
C2032 C2035 1.403 . S
H2033 C2039 0.930 . S
C2034 H2020 0.930 . S
C2034 C2032 1.395 . S
C2034 C2037 1.403 . S
C2035 C2032 1.403 . S
C2035 C2036 1.524 . S
C2035 C2039 1.400 . S
C2036 H2021 0.960 . S
C2036 H2022 0.960 . S
C2036 H2023 0.960 . S
C2036 C2035 1.524 . S
C2037 C2034 1.403 . S
C2037 C2038 1.392 . S
C2037 C2041 1.495 . S
C2038 C2037 1.392 . S
C2038 C2039 1.385 . S
C2038 C2040 1.478 . S
C2039 H2033 0.930 . S
C2039 C2035 1.400 . S
C2039 C2038 1.385 . S
C2040 C2038 1.478 . S
C2040 C2042 1.381 . S
C2040 C2046 1.383 . S
C2041 C2037 1.495 . S
C2041 H2047 0.959 . S
C2041 H2048 0.961 . S
C2041 H2049 0.960 . S
C2042 C2040 1.381 . S
C2042 C2043 1.394 . S
C2042 H2050 0.930 . S
C2043 C2042 1.394 . S
C2043 C2044 1.383 . S
C2043 H2051 0.929 . S
C2044 C2043 1.383 . S
C2044 C2045 1.377 . S
C2045 H2029 0.930 . S
C2045 C2044 1.377 . S
C2045 C2046 1.379 . S
C2046 H2030 0.931 . S
C2046 C2040 1.383 . S
C2046 C2045 1.379 . S
H2047 C2041 0.959 . S
H2048 C2041 0.961 . S
H2049 C2041 0.960 . S
H2050 C2042 0.930 . S
H2051 C2043 0.929 . S
H2052 C2060 0.929 . S
H2053 C2062 0.930 . S
H2054 C2064 0.930 . S
H2055 C2067 0.929 . S
H2056 C2070 0.930 . S
H2057 C2072 0.960 . S
H2058 C2072 0.960 . S
H2059 C2072 0.960 . S
C2060 H2052 0.929 . S
C2060 C2061 1.377 . S
C2060 C2062 1.384 . S
C2061 C2060 1.377 . S
C2061 C2067 1.390 . S
C2062 H2053 0.930 . S
C2062 C2060 1.384 . S
C2062 C2063 1.372 . S
C2063 C2062 1.372 . S
C2063 C2064 1.400 . S
C2063 C2068 1.490 . S
C2064 H2054 0.930 . S
C2064 C2063 1.400 . S
C2064 C2067 1.386 . S
H2065 C2081 0.930 . S
H2066 C2082 0.931 . S
C2067 H2055 0.929 . S
C2067 C2061 1.390 . S
C2067 C2064 1.386 . S
C2068 C2063 1.490 . S
C2068 C2070 1.395 . S
C2068 C2071 1.403 . S
H2069 C2075 0.930 . S
C2070 H2056 0.930 . S
C2070 C2068 1.395 . S
C2070 C2073 1.403 1_554 S
C2071 C2068 1.403 . S
C2071 C2072 1.524 . S
C2071 C2075 1.400 1_554 S
C2072 H2057 0.960 . S
C2072 H2058 0.960 . S
C2072 H2059 0.960 . S
C2072 C2071 1.524 . S
C2073 C2070 1.403 1_556 S
C2073 C2074 1.392 . S
C2073 C2077 1.495 . S
C2074 C2073 1.392 . S
C2074 C2075 1.385 . S
C2074 C2076 1.478 . S
C2075 H2069 0.930 . S
C2075 C2071 1.400 1_556 S
C2075 C2074 1.385 . S
C2076 C2074 1.478 . S
C2076 C2078 1.381 . S
C2076 C2082 1.383 . S
C2077 C2073 1.495 . S
C2077 H2083 0.959 . S
C2077 H2084 0.961 . S
C2077 H2085 0.960 . S
C2078 C2076 1.381 . S
C2078 C2079 1.394 . S
C2078 H2086 0.930 . S
C2079 C2078 1.394 . S
C2079 C2080 1.383 . S
C2079 H2087 0.929 . S
C2080 C2079 1.383 . S
C2080 C2081 1.377 . S
C2081 H2065 0.930 . S
C2081 C2080 1.377 . S
C2081 C2082 1.379 . S
C2082 H2066 0.931 . S
C2082 C2076 1.383 . S
C2082 C2081 1.379 . S
H2083 C2077 0.959 . S
H2084 C2077 0.961 . S
H2085 C2077 0.960 . S
H2086 C2078 0.930 . S
H2087 C2079 0.929 . S
H2088 C2096 0.929 . S
H2089 C2098 0.930 . S
H2090 C2100 0.930 . S
H2091 C2103 0.929 . S
H2092 C2106 0.930 . S
H2093 C2108 0.960 . S
H2094 C2108 0.960 . S
H2095 C2108 0.960 . S
C2096 H2088 0.929 . S
C2096 C2097 1.377 . S
C2096 C2098 1.384 . S
C2097 C2096 1.377 . S
C2097 C2103 1.390 . S
C2098 H2089 0.930 . S
C2098 C2096 1.384 . S
C2098 C2099 1.372 . S
C2099 C2098 1.372 . S
C2099 C2100 1.400 . S
C2099 C2104 1.490 . S
C2100 H2090 0.930 . S
C2100 C2099 1.400 . S
C2100 C2103 1.386 . S
H2101 C2117 0.930 . S
H2102 C2118 0.931 . S
C2103 H2091 0.929 . S
C2103 C2097 1.390 . S
C2103 C2100 1.386 . S
C2104 C2099 1.490 . S
C2104 C2106 1.395 . S
C2104 C2107 1.403 . S
H2105 C2111 0.930 . S
C2106 H2092 0.930 . S
C2106 C2104 1.395 . S
C2106 C2109 1.403 . S
C2107 C2104 1.403 . S
C2107 C2108 1.524 . S
C2107 C2111 1.400 . S
C2108 H2093 0.960 . S
C2108 H2094 0.960 . S
C2108 H2095 0.960 . S
C2108 C2107 1.524 . S
C2109 C2106 1.403 . S
C2109 C2110 1.392 . S
C2109 C2113 1.495 . S
C2110 C2109 1.392 . S
C2110 C2111 1.385 . S
C2110 C2112 1.478 . S
C2111 H2105 0.930 . S
C2111 C2107 1.400 . S
C2111 C2110 1.385 . S
C2112 C2110 1.478 . S
C2112 C2114 1.381 . S
C2112 C2118 1.383 . S
C2113 C2109 1.495 . S
C2113 H2119 0.959 . S
C2113 H2120 0.961 . S
C2113 H2121 0.960 . S
C2114 C2112 1.381 . S
C2114 C2115 1.394 . S
C2114 H2122 0.930 . S
C2115 C2114 1.394 . S
C2115 C2116 1.383 . S
C2115 H2123 0.929 . S
C2116 C2115 1.383 . S
C2116 C2117 1.377 . S
C2117 H2101 0.930 . S
C2117 C2116 1.377 . S
C2117 C2118 1.379 . S
C2118 H2102 0.931 . S
C2118 C2112 1.383 . S
C2118 C2117 1.379 . S
H2119 C2113 0.959 . S
H2120 C2113 0.961 . S
H2121 C2113 0.960 . S
H2122 C2114 0.930 . S
H2123 C2115 0.929 . S
H2124 C2132 0.929 . S
H2125 C2134 0.930 . S
H2126 C2136 0.930 . S
H2127 C2139 0.929 . S
H2128 C2142 0.930 . S
H2129 C2144 0.960 . S
H2130 C2144 0.960 . S
H2131 C2144 0.960 . S
C2132 H2124 0.929 . S
C2132 C2133 1.377 . S
C2132 C2134 1.384 . S
C2133 C2132 1.377 . S
C2133 C2139 1.390 . S
C2134 H2125 0.930 . S
C2134 C2132 1.384 . S
C2134 C2135 1.372 . S
C2135 C2134 1.372 . S
C2135 C2136 1.400 . S
C2135 C2140 1.490 1_556 S
C2136 H2126 0.930 . S
C2136 C2135 1.400 . S
C2136 C2139 1.386 . S
H2137 C2153 0.930 . S
H2138 C2154 0.931 . S
C2139 H2127 0.929 . S
C2139 C2133 1.390 . S
C2139 C2136 1.386 . S
C2140 C2135 1.490 1_554 S
C2140 C2142 1.395 . S
C2140 C2143 1.403 . S
H2141 C2147 0.930 . S
C2142 H2128 0.930 . S
C2142 C2140 1.395 . S
C2142 C2145 1.403 . S
C2143 C2140 1.403 . S
C2143 C2144 1.524 . S
C2143 C2147 1.400 . S
C2144 H2129 0.960 . S
C2144 H2130 0.960 . S
C2144 H2131 0.960 . S
C2144 C2143 1.524 . S
C2145 C2142 1.403 . S
C2145 C2146 1.392 . S
C2145 C2149 1.495 . S
C2146 C2145 1.392 . S
C2146 C2147 1.385 . S
C2146 C2148 1.478 . S
C2147 H2141 0.930 . S
C2147 C2143 1.400 . S
C2147 C2146 1.385 . S
C2148 C2146 1.478 . S
C2148 C2150 1.381 . S
C2148 C2154 1.383 . S
C2149 C2145 1.495 . S
C2149 H2155 0.959 . S
C2149 H2156 0.961 . S
C2149 H2157 0.960 . S
C2150 C2148 1.381 . S
C2150 C2151 1.394 . S
C2150 H2158 0.930 . S
C2151 C2150 1.394 . S
C2151 C2152 1.383 . S
C2151 H2159 0.929 . S
C2152 C2151 1.383 . S
C2152 C2153 1.377 . S
C2153 H2137 0.930 . S
C2153 C2152 1.377 . S
C2153 C2154 1.379 . S
C2154 H2138 0.931 . S
C2154 C2148 1.383 . S
C2154 C2153 1.379 . S
H2155 C2149 0.959 . S
H2156 C2149 0.961 . S
H2157 C2149 0.960 . S
H2158 C2150 0.930 . S
H2159 C2151 0.929 . S
H2160 C2168 0.929 . S
H2161 C2170 0.930 . S
H2162 C2172 0.930 . S
H2163 C2175 0.929 . S
H2164 C2178 0.930 . S
H2165 C2180 0.960 . S
H2166 C2180 0.960 . S
H2167 C2180 0.960 . S
C2168 H2160 0.929 . S
C2168 C2169 1.377 . S
C2168 C2170 1.384 . S
C2169 C2168 1.377 . S
C2169 C2175 1.390 . S
C2170 H2161 0.930 . S
C2170 C2168 1.384 . S
C2170 C2171 1.372 . S
C2171 C2170 1.372 . S
C2171 C2172 1.400 . S
C2171 C2176 1.490 . S
C2172 H2162 0.930 . S
C2172 C2171 1.400 . S
C2172 C2175 1.386 . S
H2173 C2189 0.930 . S
H2174 C2190 0.931 . S
C2175 H2163 0.929 . S
C2175 C2169 1.390 . S
C2175 C2172 1.386 . S
C2176 C2171 1.490 . S
C2176 C2178 1.395 . S
C2176 C2179 1.403 . S
H2177 C2183 0.930 . S
C2178 H2164 0.930 . S
C2178 C2176 1.395 . S
C2178 C2181 1.403 . S
C2179 C2176 1.403 . S
C2179 C2180 1.524 . S
C2179 C2183 1.400 . S
C2180 H2165 0.960 . S
C2180 H2166 0.960 . S
C2180 H2167 0.960 . S
C2180 C2179 1.524 . S
C2181 C2178 1.403 . S
C2181 C2182 1.392 . S
C2181 C2185 1.495 . S
C2182 C2181 1.392 . S
C2182 C2183 1.385 . S
C2182 C2184 1.478 . S
C2183 H2177 0.930 . S
C2183 C2179 1.400 . S
C2183 C2182 1.385 . S
C2184 C2182 1.478 . S
C2184 C2186 1.381 . S
C2184 C2190 1.383 . S
C2185 C2181 1.495 . S
C2185 H2191 0.959 . S
C2185 H2192 0.961 . S
C2185 H2193 0.960 . S
C2186 C2184 1.381 . S
C2186 C2187 1.394 . S
C2186 H2194 0.930 . S
C2187 C2186 1.394 . S
C2187 C2188 1.383 . S
C2187 H2195 0.929 . S
C2188 C2187 1.383 . S
C2188 C2189 1.377 . S
C2189 H2173 0.930 . S
C2189 C2188 1.377 . S
C2189 C2190 1.379 . S
C2190 H2174 0.931 . S
C2190 C2184 1.383 . S
C2190 C2189 1.379 . S
H2191 C2185 0.959 . S
H2192 C2185 0.961 . S
H2193 C2185 0.960 . S
H2194 C2186 0.930 . S
H2195 C2187 0.929 . S
H2196 C2204 0.929 . S
H2197 C2206 0.930 . S
H2198 C2208 0.930 . S
H2199 C2211 0.929 . S
H2200 C2214 0.930 . S
H2201 C2216 0.960 . S
H2202 C2216 0.960 . S
H2203 C2216 0.960 . S
C2204 H2196 0.929 . S
C2204 C2205 1.377 . S
C2204 C2206 1.384 . S
C2205 C2204 1.377 . S
C2205 C2211 1.390 1_556 S
C2206 H2197 0.930 . S
C2206 C2204 1.384 . S
C2206 C2207 1.372 1_556 S
C2207 C2206 1.372 1_554 S
C2207 C2208 1.400 . S
C2207 C2212 1.490 . S
C2208 H2198 0.930 . S
C2208 C2207 1.400 . S
C2208 C2211 1.386 . S
H2209 C2225 0.930 . S
H2210 C2226 0.931 . S
C2211 H2199 0.929 . S
C2211 C2205 1.390 1_554 S
C2211 C2208 1.386 . S
C2212 C2207 1.490 . S
C2212 C2214 1.395 . S
C2212 C2215 1.403 . S
H2213 C2219 0.930 . S
C2214 H2200 0.930 . S
C2214 C2212 1.395 . S
C2214 C2217 1.403 . S
C2215 C2212 1.403 . S
C2215 C2216 1.524 . S
C2215 C2219 1.400 . S
C2216 H2201 0.960 . S
C2216 H2202 0.960 . S
C2216 H2203 0.960 . S
C2216 C2215 1.524 . S
C2217 C2214 1.403 . S
C2217 C2218 1.392 . S
C2217 C2221 1.495 . S
C2218 C2217 1.392 . S
C2218 C2219 1.385 . S
C2218 C2220 1.478 . S
C2219 H2213 0.930 . S
C2219 C2215 1.400 . S
C2219 C2218 1.385 . S
C2220 C2218 1.478 . S
C2220 C2222 1.381 . S
C2220 C2226 1.383 . S
C2221 C2217 1.495 . S
C2221 H2227 0.959 . S
C2221 H2228 0.961 . S
C2221 H2229 0.960 . S
C2222 C2220 1.381 . S
C2222 C2223 1.394 . S
C2222 H2230 0.930 . S
C2223 C2222 1.394 . S
C2223 C2224 1.383 . S
C2223 H2231 0.929 . S
C2224 C2223 1.383 . S
C2224 C2225 1.377 . S
C2225 H2209 0.930 . S
C2225 C2224 1.377 . S
C2225 C2226 1.379 . S
C2226 H2210 0.931 . S
C2226 C2220 1.383 . S
C2226 C2225 1.379 . S
H2227 C2221 0.959 . S
H2228 C2221 0.961 . S
H2229 C2221 0.960 . S
H2230 C2222 0.930 . S
H2231 C2223 0.929 . S
H2232 C2240 0.929 . S
H2233 C2242 0.930 . S
H2234 C2244 0.930 . S
H2235 C2247 0.929 . S
H2236 C2250 0.930 . S
H2237 C2252 0.960 . S
H2238 C2252 0.960 . S
H2239 C2252 0.960 . S
C2240 H2232 0.929 . S
C2240 C2241 1.377 . S
C2240 C2242 1.384 . S
C2241 C2240 1.377 . S
C2241 C2247 1.390 . S
C2242 H2233 0.930 . S
C2242 C2240 1.384 . S
C2242 C2243 1.372 . S
C2243 C2242 1.372 . S
C2243 C2244 1.400 . S
C2243 C2248 1.490 . S
C2244 H2234 0.930 . S
C2244 C2243 1.400 . S
C2244 C2247 1.386 . S
H2245 C2261 0.930 . S
H2246 C2262 0.931 . S
C2247 H2235 0.929 . S
C2247 C2241 1.390 . S
C2247 C2244 1.386 . S
C2248 C2243 1.490 . S
C2248 C2250 1.395 . S
C2248 C2251 1.403 . S
H2249 C2255 0.930 . S
C2250 H2236 0.930 . S
C2250 C2248 1.395 . S
C2250 C2253 1.403 . S
C2251 C2248 1.403 . S
C2251 C2252 1.524 . S
C2251 C2255 1.400 . S
C2252 H2237 0.960 . S
C2252 H2238 0.960 . S
C2252 H2239 0.960 . S
C2252 C2251 1.524 . S
C2253 C2250 1.403 . S
C2253 C2254 1.392 . S
C2253 C2257 1.495 . S
C2254 C2253 1.392 . S
C2254 C2255 1.385 . S
C2254 C2256 1.478 . S
C2255 H2249 0.930 . S
C2255 C2251 1.400 . S
C2255 C2254 1.385 . S
C2256 C2254 1.478 . S
C2256 C2258 1.381 . S
C2256 C2262 1.383 . S
C2257 C2253 1.495 . S
C2257 H2263 0.959 . S
C2257 H2264 0.961 . S
C2257 H2265 0.960 . S
C2258 C2256 1.381 . S
C2258 C2259 1.394 . S
C2258 H2266 0.930 . S
C2259 C2258 1.394 . S
C2259 C2260 1.383 . S
C2259 H2267 0.929 . S
C2260 C2259 1.383 . S
C2260 C2261 1.377 . S
C2261 H2245 0.930 . S
C2261 C2260 1.377 . S
C2261 C2262 1.379 . S
C2262 H2246 0.931 . S
C2262 C2256 1.383 . S
C2262 C2261 1.379 . S
H2263 C2257 0.959 . S
H2264 C2257 0.961 . S
H2265 C2257 0.960 . S
H2266 C2258 0.930 . S
H2267 C2259 0.929 . S
H2268 C2276 0.929 . S
H2269 C2278 0.930 . S
H2270 C2280 0.930 . S
H2271 C2283 0.929 . S
H2272 C2286 0.930 . S
H2273 C2288 0.960 . S
H2274 C2288 0.960 . S
H2275 C2288 0.960 . S
C2276 H2268 0.929 . S
C2276 C2277 1.377 . S
C2276 C2278 1.384 . S
C2277 C2276 1.377 . S
C2277 C2283 1.390 . S
C2278 H2269 0.930 . S
C2278 C2276 1.384 . S
C2278 C2279 1.372 . S
C2279 C2278 1.372 . S
C2279 C2280 1.400 . S
C2279 C2284 1.490 . S
C2280 H2270 0.930 . S
C2280 C2279 1.400 . S
C2280 C2283 1.386 . S
H2281 C2297 0.930 . S
H2282 C2298 0.931 . S
C2283 H2271 0.929 . S
C2283 C2277 1.390 . S
C2283 C2280 1.386 . S
C2284 C2279 1.490 . S
C2284 C2286 1.395 . S
C2284 C2287 1.403 . S
H2285 C2291 0.930 . S
C2286 H2272 0.930 . S
C2286 C2284 1.395 . S
C2286 C2289 1.403 . S
C2287 C2284 1.403 . S
C2287 C2288 1.524 . S
C2287 C2291 1.400 . S
C2288 H2273 0.960 . S
C2288 H2274 0.960 . S
C2288 H2275 0.960 . S
C2288 C2287 1.524 . S
C2289 C2286 1.403 . S
C2289 C2290 1.392 . S
C2289 C2293 1.495 . S
C2290 C2289 1.392 . S
C2290 C2291 1.385 . S
C2290 C2292 1.478 . S
C2291 H2285 0.930 . S
C2291 C2287 1.400 . S
C2291 C2290 1.385 . S
C2292 C2290 1.478 . S
C2292 C2294 1.381 . S
C2292 C2298 1.383 . S
C2293 C2289 1.495 . S
C2293 H2299 0.959 . S
C2293 H2300 0.961 . S
C2293 H2301 0.960 . S
C2294 C2292 1.381 . S
C2294 C2295 1.394 . S
C2294 H2302 0.930 . S
C2295 C2294 1.394 . S
C2295 C2296 1.383 . S
C2295 H2303 0.929 . S
C2296 C2295 1.383 . S
C2296 C2297 1.377 . S
C2297 H2281 0.930 . S
C2297 C2296 1.377 . S
C2297 C2298 1.379 . S
C2298 H2282 0.931 . S
C2298 C2292 1.383 . S
C2298 C2297 1.379 . S
H2299 C2293 0.959 . S
H2300 C2293 0.961 . S
H2301 C2293 0.960 . S
H2302 C2294 0.930 . S
H2303 C2295 0.929 . S
H2304 C2312 0.929 . S
H2305 C2314 0.930 . S
H2306 C2316 0.930 . S
H2307 C2319 0.929 . S
H2308 C2322 0.930 . S
H2309 C2324 0.960 . S
H2310 C2324 0.960 . S
H2311 C2324 0.960 . S
C2312 H2304 0.929 . S
C2312 C2313 1.377 . S
C2312 C2314 1.384 . S
C2313 C2312 1.377 . S
C2313 C2319 1.390 . S
C2314 H2305 0.930 . S
C2314 C2312 1.384 . S
C2314 C2315 1.372 . S
C2315 C2314 1.372 . S
C2315 C2316 1.400 . S
C2315 C2320 1.490 . S
C2316 H2306 0.930 . S
C2316 C2315 1.400 . S
C2316 C2319 1.386 . S
H2317 C2333 0.930 . S
H2318 C2334 0.931 . S
C2319 H2307 0.929 . S
C2319 C2313 1.390 . S
C2319 C2316 1.386 . S
C2320 C2315 1.490 . S
C2320 C2322 1.395 . S
C2320 C2323 1.403 . S
H2321 C2327 0.930 . S
C2322 H2308 0.930 . S
C2322 C2320 1.395 . S
C2322 C2325 1.403 . S
C2323 C2320 1.403 . S
C2323 C2324 1.524 . S
C2323 C2327 1.400 . S
C2324 H2309 0.960 . S
C2324 H2310 0.960 . S
C2324 H2311 0.960 . S
C2324 C2323 1.524 . S
C2325 C2322 1.403 . S
C2325 C2326 1.392 . S
C2325 C2329 1.495 . S
C2326 C2325 1.392 . S
C2326 C2327 1.385 . S
C2326 C2328 1.478 . S
C2327 H2321 0.930 . S
C2327 C2323 1.400 . S
C2327 C2326 1.385 . S
C2328 C2326 1.478 . S
C2328 C2330 1.381 . S
C2328 C2334 1.383 . S
C2329 C2325 1.495 . S
C2329 H2335 0.959 . S
C2329 H2336 0.961 . S
C2329 H2337 0.960 . S
C2330 C2328 1.381 . S
C2330 C2331 1.394 . S
C2330 H2338 0.930 . S
C2331 C2330 1.394 . S
C2331 C2332 1.383 . S
C2331 H2339 0.929 . S
C2332 C2331 1.383 . S
C2332 C2333 1.377 . S
C2333 H2317 0.930 . S
C2333 C2332 1.377 . S
C2333 C2334 1.379 . S
C2334 H2318 0.931 . S
C2334 C2328 1.383 . S
C2334 C2333 1.379 . S
H2335 C2329 0.959 . S
H2336 C2329 0.961 . S
H2337 C2329 0.960 . S
H2338 C2330 0.930 . S
H2339 C2331 0.929 . S
H2340 C2348 0.929 . S
H2341 C2350 0.930 . S
H2342 C2352 0.930 . S
H2343 C2355 0.929 . S
H2344 C2358 0.930 . S
H2345 C2360 0.960 . S
H2346 C2360 0.960 . S
H2347 C2360 0.960 . S
C2348 H2340 0.929 . S
C2348 C2349 1.377 . S
C2348 C2350 1.384 . S
C2349 C2348 1.377 . S
C2349 C2355 1.390 . S
C2350 H2341 0.930 . S
C2350 C2348 1.384 . S
C2350 C2351 1.372 . S
C2351 C2350 1.372 . S
C2351 C2352 1.400 . S
C2351 C2356 1.490 . S
C2352 H2342 0.930 . S
C2352 C2351 1.400 . S
C2352 C2355 1.386 . S
H2353 C2369 0.930 . S
H2354 C2370 0.931 . S
C2355 H2343 0.929 . S
C2355 C2349 1.390 . S
C2355 C2352 1.386 . S
C2356 C2351 1.490 . S
C2356 C2358 1.395 . S
C2356 C2359 1.403 . S
H2357 C2363 0.930 . S
C2358 H2344 0.930 . S
C2358 C2356 1.395 . S
C2358 C2361 1.403 . S
C2359 C2356 1.403 . S
C2359 C2360 1.524 . S
C2359 C2363 1.400 . S
C2360 H2345 0.960 . S
C2360 H2346 0.960 . S
C2360 H2347 0.960 . S
C2360 C2359 1.524 . S
C2361 C2358 1.403 . S
C2361 C2362 1.392 . S
C2361 C2365 1.495 . S
C2362 C2361 1.392 . S
C2362 C2363 1.385 . S
C2362 C2364 1.478 . S
C2363 H2357 0.930 . S
C2363 C2359 1.400 . S
C2363 C2362 1.385 . S
C2364 C2362 1.478 . S
C2364 C2366 1.381 . S
C2364 C2370 1.383 . S
C2365 C2361 1.495 . S
C2365 H2371 0.959 . S
C2365 H2372 0.961 . S
C2365 H2373 0.960 . S
C2366 C2364 1.381 . S
C2366 C2367 1.394 . S
C2366 H2374 0.930 . S
C2367 C2366 1.394 . S
C2367 C2368 1.383 . S
C2367 H2375 0.929 . S
C2368 C2367 1.383 . S
C2368 C2369 1.377 . S
C2369 H2353 0.930 . S
C2369 C2368 1.377 . S
C2369 C2370 1.379 . S
C2370 H2354 0.931 . S
C2370 C2364 1.383 . S
C2370 C2369 1.379 . S
H2371 C2365 0.959 . S
H2372 C2365 0.961 . S
H2373 C2365 0.960 . S
H2374 C2366 0.930 . S
H2375 C2367 0.929 . S
H2376 C2384 0.929 . S
H2377 C2386 0.930 . S
H2378 C2388 0.930 . S
H2379 C2391 0.929 . S
H2380 C2394 0.930 . S
H2381 C2396 0.960 . S
H2382 C2396 0.960 . S
H2383 C2396 0.960 . S
C2384 H2376 0.929 . S
C2384 C2385 1.377 . S
C2384 C2386 1.384 . S
C2385 C2384 1.377 . S
C2385 C2391 1.390 . S
C2386 H2377 0.930 . S
C2386 C2384 1.384 . S
C2386 C2387 1.372 . S
C2387 C2386 1.372 . S
C2387 C2388 1.400 . S
C2387 C2392 1.490 . S
C2388 H2378 0.930 . S
C2388 C2387 1.400 . S
C2388 C2391 1.386 . S
H2389 C2405 0.930 . S
H2390 C2406 0.931 . S
C2391 H2379 0.929 . S
C2391 C2385 1.390 . S
C2391 C2388 1.386 . S
C2392 C2387 1.490 . S
C2392 C2394 1.395 . S
C2392 C2395 1.403 . S
H2393 C2399 0.930 . S
C2394 H2380 0.930 . S
C2394 C2392 1.395 . S
C2394 C2397 1.403 . S
C2395 C2392 1.403 . S
C2395 C2396 1.524 . S
C2395 C2399 1.400 . S
C2396 H2381 0.960 . S
C2396 H2382 0.960 . S
C2396 H2383 0.960 . S
C2396 C2395 1.524 . S
C2397 C2394 1.403 . S
C2397 C2398 1.392 . S
C2397 C2401 1.495 . S
C2398 C2397 1.392 . S
C2398 C2399 1.385 . S
C2398 C2400 1.478 . S
C2399 H2393 0.930 . S
C2399 C2395 1.400 . S
C2399 C2398 1.385 . S
C2400 C2398 1.478 . S
C2400 C2402 1.381 . S
C2400 C2406 1.383 . S
C2401 C2397 1.495 . S
C2401 H2407 0.959 . S
C2401 H2408 0.961 . S
C2401 H2409 0.960 . S
C2402 C2400 1.381 . S
C2402 C2403 1.394 . S
C2402 H2410 0.930 . S
C2403 C2402 1.394 . S
C2403 C2404 1.383 . S
C2403 H2411 0.929 . S
C2404 C2403 1.383 . S
C2404 C2405 1.377 . S
C2405 H2389 0.930 . S
C2405 C2404 1.377 . S
C2405 C2406 1.379 . S
C2406 H2390 0.931 . S
C2406 C2400 1.383 . S
C2406 C2405 1.379 . S
H2407 C2401 0.959 . S
H2408 C2401 0.961 . S
H2409 C2401 0.960 . S
H2410 C2402 0.930 . S
H2411 C2403 0.929 . S
H2412 C2420 0.929 . S
H2413 C2422 0.930 . S
H2414 C2424 0.930 . S
H2415 C2427 0.929 . S
H2416 C2430 0.930 . S
H2417 C2432 0.960 . S
H2418 C2432 0.960 . S
H2419 C2432 0.960 . S
C2420 H2412 0.929 . S
C2420 C2421 1.377 . S
C2420 C2422 1.384 . S
C2421 C2420 1.377 . S
C2421 C2427 1.390 . S
C2422 H2413 0.930 . S
C2422 C2420 1.384 . S
C2422 C2423 1.372 . S
C2423 C2422 1.372 . S
C2423 C2424 1.400 . S
C2423 C2428 1.490 . S
C2424 H2414 0.930 . S
C2424 C2423 1.400 . S
C2424 C2427 1.386 . S
H2425 C2441 0.930 . S
H2426 C2442 0.931 . S
C2427 H2415 0.929 . S
C2427 C2421 1.390 . S
C2427 C2424 1.386 . S
C2428 C2423 1.490 . S
C2428 C2430 1.395 . S
C2428 C2431 1.403 . S
H2429 C2435 0.930 . S
C2430 H2416 0.930 . S
C2430 C2428 1.395 . S
C2430 C2433 1.403 . S
C2431 C2428 1.403 . S
C2431 C2432 1.524 . S
C2431 C2435 1.400 . S
C2432 H2417 0.960 . S
C2432 H2418 0.960 . S
C2432 H2419 0.960 . S
C2432 C2431 1.524 . S
C2433 C2430 1.403 . S
C2433 C2434 1.392 . S
C2433 C2437 1.495 . S
C2434 C2433 1.392 . S
C2434 C2435 1.385 . S
C2434 C2436 1.478 . S
C2435 H2429 0.930 . S
C2435 C2431 1.400 . S
C2435 C2434 1.385 . S
C2436 C2434 1.478 . S
C2436 C2438 1.381 . S
C2436 C2442 1.383 . S
C2437 C2433 1.495 . S
C2437 H2443 0.959 . S
C2437 H2444 0.961 . S
C2437 H2445 0.960 . S
C2438 C2436 1.381 . S
C2438 C2439 1.394 . S
C2438 H2446 0.930 . S
C2439 C2438 1.394 . S
C2439 C2440 1.383 . S
C2439 H2447 0.929 . S
C2440 C2439 1.383 . S
C2440 C2441 1.377 . S
C2441 H2425 0.930 . S
C2441 C2440 1.377 . S
C2441 C2442 1.379 . S
C2442 H2426 0.931 . S
C2442 C2436 1.383 . S
C2442 C2441 1.379 . S
H2443 C2437 0.959 . S
H2444 C2437 0.961 . S
H2445 C2437 0.960 . S
H2446 C2438 0.930 . S
H2447 C2439 0.929 . S
H2448 C2456 0.929 . S
H2449 C2458 0.930 . S
H2450 C2460 0.930 . S
H2451 C2463 0.929 . S
H2452 C2466 0.930 . S
H2453 C2468 0.960 . S
H2454 C2468 0.960 . S
H2455 C2468 0.960 . S
C2456 H2448 0.929 . S
C2456 C2457 1.377 . S
C2456 C2458 1.384 . S
C2457 C2456 1.377 . S
C2457 C2463 1.390 . S
C2458 H2449 0.930 . S
C2458 C2456 1.384 . S
C2458 C2459 1.372 . S
C2459 C2458 1.372 . S
C2459 C2460 1.400 . S
C2459 C2464 1.490 . S
C2460 H2450 0.930 . S
C2460 C2459 1.400 . S
C2460 C2463 1.386 . S
H2461 C2477 0.930 . S
H2462 C2478 0.931 . S
C2463 H2451 0.929 . S
C2463 C2457 1.390 . S
C2463 C2460 1.386 . S
C2464 C2459 1.490 . S
C2464 C2466 1.395 . S
C2464 C2467 1.403 . S
H2465 C2471 0.930 . S
C2466 H2452 0.930 . S
C2466 C2464 1.395 . S
C2466 C2469 1.403 . S
C2467 C2464 1.403 . S
C2467 C2468 1.524 . S
C2467 C2471 1.400 . S
C2468 H2453 0.960 . S
C2468 H2454 0.960 . S
C2468 H2455 0.960 . S
C2468 C2467 1.524 . S
C2469 C2466 1.403 . S
C2469 C2470 1.392 . S
C2469 C2473 1.495 . S
C2470 C2469 1.392 . S
C2470 C2471 1.385 . S
C2470 C2472 1.478 . S
C2471 H2465 0.930 . S
C2471 C2467 1.400 . S
C2471 C2470 1.385 . S
C2472 C2470 1.478 . S
C2472 C2474 1.381 . S
C2472 C2478 1.383 . S
C2473 C2469 1.495 . S
C2473 H2479 0.959 . S
C2473 H2480 0.961 . S
C2473 H2481 0.960 . S
C2474 C2472 1.381 . S
C2474 C2475 1.394 . S
C2474 H2482 0.930 . S
C2475 C2474 1.394 . S
C2475 C2476 1.383 . S
C2475 H2483 0.929 . S
C2476 C2475 1.383 . S
C2476 C2477 1.377 . S
C2477 H2461 0.930 . S
C2477 C2476 1.377 . S
C2477 C2478 1.379 . S
C2478 H2462 0.931 . S
C2478 C2472 1.383 . S
C2478 C2477 1.379 . S
H2479 C2473 0.959 . S
H2480 C2473 0.961 . S
H2481 C2473 0.960 . S
H2482 C2474 0.930 . S
H2483 C2475 0.929 . S
H2484 C2492 0.929 . S
H2485 C2494 0.930 . S
H2486 C2496 0.930 . S
H2487 C2499 0.929 . S
H2488 C2502 0.930 . S
H2489 C2504 0.960 . S
H2490 C2504 0.960 . S
H2491 C2504 0.960 . S
C2492 H2484 0.929 . S
C2492 C2493 1.377 . S
C2492 C2494 1.384 . S
C2493 C2492 1.377 . S
C2493 C2499 1.390 . S
C2494 H2485 0.930 . S
C2494 C2492 1.384 . S
C2494 C2495 1.372 . S
C2495 C2494 1.372 . S
C2495 C2496 1.400 . S
C2495 C2500 1.490 . S
C2496 H2486 0.930 . S
C2496 C2495 1.400 . S
C2496 C2499 1.386 . S
H2497 C2513 0.930 . S
H2498 C2514 0.931 . S
C2499 H2487 0.929 . S
C2499 C2493 1.390 . S
C2499 C2496 1.386 . S
C2500 C2495 1.490 . S
C2500 C2502 1.395 . S
C2500 C2503 1.403 . S
H2501 C2507 0.930 . S
C2502 H2488 0.930 . S
C2502 C2500 1.395 . S
C2502 C2505 1.403 . S
C2503 C2500 1.403 . S
C2503 C2504 1.524 . S
C2503 C2507 1.400 . S
C2504 H2489 0.960 . S
C2504 H2490 0.960 . S
C2504 H2491 0.960 . S
C2504 C2503 1.524 . S
C2505 C2502 1.403 . S
C2505 C2506 1.392 . S
C2505 C2509 1.495 . S
C2506 C2505 1.392 . S
C2506 C2507 1.385 . S
C2506 C2508 1.478 1_545 S
C2507 H2501 0.930 . S
C2507 C2503 1.400 . S
C2507 C2506 1.385 . S
C2508 C2506 1.478 1_565 S
C2508 C2510 1.381 . S
C2508 C2514 1.383 . S
C2509 C2505 1.495 . S
C2509 H2515 0.959 . S
C2509 H2516 0.961 . S
C2509 H2517 0.960 . S
C2510 C2508 1.381 . S
C2510 C2511 1.394 . S
C2510 H2518 0.930 1_565 S
C2511 C2510 1.394 . S
C2511 C2512 1.383 . S
C2511 H2519 0.929 . S
C2512 C2511 1.383 . S
C2512 C2513 1.377 . S
C2513 H2497 0.930 . S
C2513 C2512 1.377 . S
C2513 C2514 1.379 . S
C2514 H2498 0.931 . S
C2514 C2508 1.383 . S
C2514 C2513 1.379 . S
H2515 C2509 0.959 . S
H2516 C2509 0.961 . S
H2517 C2509 0.960 . S
H2518 C2510 0.930 1_545 S
H2519 C2511 0.929 . S
C820 C632 1.649 . S
C801 C211 1.651 . S
C856 C647 1.754 . S
C837 C255 1.782 . S
C873 C274 1.758 . S
C892 C660 1.741 . S
C928 C674 1.535 . S
C909 C157 1.584 . S
C964 C686 1.720 . S
C945 C391 1.763 . S
C1000 C700 1.306 . S
C981 C484 1.290 . S
C1017 C450 1.823 . S
C1036 C714 1.785 . S
C1072 C729 1.480 . S
C1053 C352 1.487 . S
C1089 C430 1.711 . S
C1108 C745 1.686 . S
C1144 C758 1.510 . S
C1125 C367 1.535 . S
C1161 C411 1.644 . S
C1180 C743 1.603 . S
C1216 C756 1.516 . S
C1197 C469 1.489 . S
C1233 C294 1.904 . S
C1252 C772 1.886 . S
C1269 C177 1.587 . S
C1288 C771 1.597 . S
C1305 C196 1.803 . S
C1324 C770 1.734 . S
C1341 C235 1.641 . S
C1360 C773 1.634 . S
C1377 C133 1.733 . S
C1396 C675 1.728 . S
C1413 C567 1.515 . S
C1432 C673 1.496 . S
C1468 C633 1.558 . S
C1449 C601 1.567 . S
C1504 C644 1.784 . S
C1485 C328 1.823 . S
C1521 C172 1.617 1_545 S
C1540 C689 1.586 . S
C1576 C730 1.958 . S
C1557 C445 1.969 . S
C1612 C687 1.506 . S
C1593 C372 1.532 . S
C1648 C715 1.501 . S
C1629 C489 1.484 . S
C1684 C716 1.634 . S
C1665 C562 1.652 . S
C1701 C606 1.781 . S
C1720 C731 1.746 . S
C1737 C313 1.758 . S
C1756 C688 1.751 . S
C1792 C702 1.544 . S
C1773 C508 1.588 . S
C1809 C118 1.762 . S
C1828 C658 1.675 . S
C1864 C672 1.301 . S
C1845 C16 1.298 . S
C1900 C630 1.794 . S
C1881 C60 1.823 . S
C1936 C645 1.466 . S
C1917 C79 1.479 . S
C1953 C40 1.710 . S
C1972 C759 1.694 . S
C1989 C94 1.534 . S
C2008 C744 1.504 . S
C2025 C138 1.644 . S
C2044 C757 1.583 . S
C2061 C1 1.486 . S
C2080 C742 1.516 . S
C2116 C786 1.891 . S
C2097 C333 1.904 . S
C2152 C785 1.556 . S
C2133 C528 1.579 . S
C2188 C784 1.745 . S
C2169 C547 1.803 . S
C2205 C586 1.639 . S
C2224 C787 1.604 . S
C2241 C406 1.732 . S
C2260 C703 1.731 . S
C2296 C701 1.479 . S
C2277 C216 1.515 . S
C2332 C717 1.554 . S
C2313 C250 1.566 . S
C2368 C728 1.796 . S
C2349 C289 1.822 . S
C2385 C523 1.620 . S
C2404 C661 1.593 . S
C2440 C646 1.952 . S
C2421 C55 1.969 . S
C2457 C99 1.537 . S
C2476 C659 1.529 . S
C2512 C631 1.494 . S
C2493 C21 1.478 . S
