# Generated by pormake.
# Topology rtl, (3,6)-cn, num edge types: 1
# Building blocks:
#     Node 0, Type 0, BuildingBlock: BELTOD_clean_linker_0, # of connection points: 3
#     Node 1, Type 0, BuildingBlock: BELTOD_clean_linker_0, # of connection points: 3
#     Node 2, Type 0, BuildingBlock: BELTOD_clean_linker_0, # of connection points: 3
#     Node 3, Type 0, BuildingBlock: BELTOD_clean_linker_0, # of connection points: 3
#     Node 4, Type 1, BuildingBlock: KUMBUR_clean_sbu_1, # of connection points: 6
#     Node 5, Type 1, BuildingBlock: KUMBUR_clean_sbu_1, # of connection points: 6
#     Edge 6, Type (0, 1), BuildingBlock: EZIPEK_clean_linker_0, # of connection points: 2
#     Edge 7, Type (0, 1), BuildingBlock: EZIPEK_clean_linker_0, # of connection points: 2
#     Edge 8, Type (0, 1), BuildingBlock: EZIPEK_clean_linker_0, # of connection points: 2
#     Edge 9, Type (0, 1), BuildingBlock: EZIPEK_clean_linker_0, # of connection points: 2
#     Edge 10, Type (0, 1), BuildingBlock: EZIPEK_clean_linker_0, # of connection points: 2
#     Edge 11, Type (0, 1), BuildingBlock: EZIPEK_clean_linker_0, # of connection points: 2
#     Edge 12, Type (0, 1), BuildingBlock: EZIPEK_clean_linker_0, # of connection points: 2
#     Edge 13, Type (0, 1), BuildingBlock: EZIPEK_clean_linker_0, # of connection points: 2
#     Edge 14, Type (0, 1), BuildingBlock: EZIPEK_clean_linker_0, # of connection points: 2
#     Edge 15, Type (0, 1), BuildingBlock: EZIPEK_clean_linker_0, # of connection points: 2
#     Edge 16, Type (0, 1), BuildingBlock: EZIPEK_clean_linker_0, # of connection points: 2
#     Edge 17, Type (0, 1), BuildingBlock: EZIPEK_clean_linker_0, # of connection points: 2
# Relax obj value: 0.020
# Max RMSD: 0.118
# Mean RMSD: 0.074
data_MOF--net-rtl--node1-KUMBUR_clean_sbu_1--node2-BELTOD_clean_linker_0--edge1-EZIPEK_clean_linker_0
_symmetry_space_group_name_H-M    P1
_symmetry_Int_Tables_number       1
_symmetry_cell_setting            triclinic
loop_
_symmetry_equiv_pos_as_xyz
'x, y, z'
_cell_length_a     28.518178
_cell_length_b     29.302813
_cell_length_c     25.815131
_cell_angle_alpha  75.342468
_cell_angle_beta   99.753744
_cell_angle_gamma 90.383702
loop_
_atom_site_label
_atom_site_type_symbol
_atom_site_fract_x
_atom_site_fract_y
_atom_site_fract_z
_atom_type_partial_charge
P0 P 0.29316 0.90741 0.01845 0.0
H1 H 0.30923 0.86761 0.13647 0.0
H2 H 0.26555 0.87703 0.20763 0.0
H3 H 0.16244 0.97056 0.08656 0.0
H4 H 0.20586 0.96113 0.01536 0.0
H5 H 0.38484 0.8773 0.99975 0.0
H6 H 0.42064 0.79941 0.00785 0.0
H7 H 0.29911 0.73308 0.07016 0.0
H8 H 0.26365 0.81111 0.06312 0.0
H9 H 0.28949 0.97902 0.91452 0.0
H10 H 0.20985 0.85894 0.98066 0.0
O11 O 0.33443 0.94819 0.01547 0.0
H12 H 0.23377 0.99371 0.82765 0.0
H13 H 0.15441 0.87366 0.89402 0.0
C14 C 0.25997 0.9124 0.07045 0.0
C15 C 0.27692 0.88965 0.12509 0.0
C16 C 0.25224 0.89524 0.16565 0.0
C17 C 0.21061 0.92413 0.15213 0.0
C18 C 0.19427 0.94783 0.09762 0.0
C19 C 0.21891 0.94213 0.05707 0.0
C20 C 0.32193 0.84999 0.03165 0.0
C21 C 0.36634 0.84605 0.01637 0.0
C22 C 0.38674 0.80166 0.02086 0.0
C23 C 0.36266 0.7605 0.0399 0.0
C24 C 0.31845 0.7644 0.05586 0.0
C25 C 0.29824 0.80887 0.05178 0.0
C26 C 0.25381 0.91776 0.95393 0.0
C27 C 0.26031 0.95568 0.91033 0.0
C28 C 0.22865 0.96409 0.86084 0.0
C29 C 0.19012 0.93476 0.8547 0.0
C30 C 0.18399 0.89662 0.89816 0.0
C31 C 0.21563 0.88819 0.94744 0.0
P32 P 0.70838 0.69644 0.64767 0.0
H33 H 0.72413 0.72822 0.53524 0.0
H34 H 0.68908 0.70484 0.45328 0.0
H35 H 0.58602 0.62478 0.5394 0.0
H36 H 0.61925 0.65001 0.62063 0.0
H37 H 0.77932 0.72229 0.72768 0.0
H38 H 0.83442 0.78699 0.7216 0.0
H39 H 0.75884 0.85492 0.56136 0.0
H40 H 0.70162 0.79147 0.56877 0.0
H41 H 0.73054 0.62834 0.75337 0.0
H42 H 0.61583 0.72793 0.66553 0.0
O43 O 0.75244 0.65606 0.65894 0.0
H44 H 0.68458 0.59923 0.82594 0.0
H45 H 0.56931 0.69812 0.73871 0.0
C46 C 0.67324 0.69277 0.58389 0.0
C47 C 0.69203 0.70835 0.53578 0.0
C48 C 0.67239 0.69453 0.489 0.0
C49 C 0.63508 0.66303 0.49045 0.0
C50 C 0.61452 0.64946 0.53741 0.0
C51 C 0.63353 0.66415 0.58383 0.0
C52 C 0.73742 0.75118 0.64796 0.0
C53 C 0.77352 0.75181 0.69193 0.0
C54 C 0.80504 0.7886 0.68843 0.0
C55 C 0.80123 0.82505 0.64058 0.0
C56 C 0.76264 0.82667 0.59831 0.0
C57 C 0.73034 0.79019 0.60239 0.0
C58 C 0.67618 0.6797 0.70354 0.0
C59 C 0.69559 0.64419 0.74974 0.0
C60 C 0.66946 0.62756 0.79127 0.0
C61 C 0.62354 0.64626 0.78737 0.0
C62 C 0.60471 0.68321 0.74222 0.0
C63 C 0.63115 0.70016 0.70067 0.0
P64 P 0.79836 0.17527 0.07986 0.0
H65 H 0.80839 0.21539 0.96856 0.0
H66 H 0.82305 0.17986 0.89664 0.0
H67 H 0.79438 0.04261 0.99287 0.0
H68 H 0.78074 0.07838 0.06621 0.0
H69 H 0.79298 0.26 0.11653 0.0
H70 H 0.72822 0.31627 0.11034 0.0
H71 H 0.63005 0.23483 0.02731 0.0
H72 H 0.69566 0.17789 0.03327 0.0
H73 H 0.8682 0.09794 0.12549 0.0
H74 H 0.75665 0.16306 0.1795 0.0
O75 O 0.84666 0.20773 0.07775 0.0
H76 H 0.90028 0.05711 0.21994 0.0
H77 H 0.78934 0.1227 0.27394 0.0
C78 C 0.79459 0.14942 0.02308 0.0
C79 C 0.80428 0.17779 0.97396 0.0
C80 C 0.8127 0.1575 0.93293 0.0
C81 C 0.81099 0.1085 0.94004 0.0
C82 C 0.79665 0.08042 0.9871 0.0
C83 C 0.78882 0.10083 0.02877 0.0
C84 C 0.74925 0.21545 0.07426 0.0
C85 C 0.75769 0.25423 0.0966 0.0
C86 C 0.72077 0.2862 0.09338 0.0
C87 C 0.67464 0.27973 0.06816 0.0
C88 C 0.66562 0.24032 0.04673 0.0
C89 C 0.7029 0.20811 0.04996 0.0
C90 C 0.80992 0.13336 0.14528 0.0
C91 C 0.84944 0.10195 0.15731 0.0
C92 C 0.86787 0.07881 0.21116 0.0
C93 C 0.84719 0.08713 0.25367 0.0
C94 C 0.80552 0.11571 0.24153 0.0
C95 C 0.78697 0.13876 0.18754 0.0
P96 P 0.38926 0.24694 0.49401 0.0
H97 H 0.44035 0.21885 0.60653 0.0
H98 H 0.45213 0.25888 0.68042 0.0
H99 H 0.37223 0.38105 0.5737 0.0
H100 H 0.36124 0.34149 0.49947 0.0
H101 H 0.35185 0.16573 0.45616 0.0
H102 H 0.27813 0.12257 0.46465 0.0
H103 H 0.2262 0.22605 0.53585 0.0
H104 H 0.29965 0.26922 0.52747 0.0
H105 H 0.47364 0.27167 0.44521 0.0
H106 H 0.32382 0.31057 0.4037 0.0
O107 O 0.43015 0.20293 0.50888 0.0
H108 H 0.48707 0.32537 0.35982 0.0
H109 H 0.33752 0.36506 0.31793 0.0
C110 C 0.40022 0.27738 0.54732 0.0
C111 C 0.42584 0.25446 0.59873 0.0
C112 C 0.43257 0.27719 0.64092 0.0
C113 C 0.41286 0.32279 0.63251 0.0
C114 C 0.38769 0.34585 0.58093 0.0
C115 C 0.38145 0.32333 0.53863 0.0
C116 C 0.33171 0.22036 0.49192 0.0
C117 C 0.32438 0.17956 0.47291 0.0
C118 C 0.28239 0.1549 0.47774 0.0
C119 C 0.24696 0.17095 0.5013 0.0
C120 C 0.25323 0.21304 0.51777 0.0
C121 C 0.29524 0.23766 0.51297 0.0
C122 C 0.39756 0.28633 0.43025 0.0
C123 C 0.44356 0.29157 0.4176 0.0
C124 C 0.45133 0.32236 0.36905 0.0
C125 C 0.4133 0.34904 0.33259 0.0
C126 C 0.36728 0.34467 0.3456 0.0
C127 C 0.35946 0.31349 0.39427 0.0
Tb128 Tb 0.04251 0.96081 0.5267 0.0
C129 C 0.94181 0.15722 0.49591 0.0
N130 N 0.98385 0.13927 0.528 0.0
C131 C 0.01967 0.21381 0.50006 0.0
C132 C 0.93748 0.20408 0.46349 0.0
C133 C 0.02223 0.16717 0.53168 0.0
C134 C 0.97722 0.23227 0.46558 0.0
C135 C 0.85877 0.14576 0.46269 0.0
C136 C 0.90277 0.1285 0.49575 0.0
C137 C 0.85445 0.19232 0.43005 0.0
C138 C 0.89365 0.22141 0.43052 0.0
Tb139 Tb 0.98159 0.064 0.57977 0.0
N140 N 0.90823 0.08342 0.52744 0.0
C141 C 0.82037 0.11574 0.46359 0.0
C142 C 0.8706 0.0544 0.52949 0.0
C143 C 0.82629 0.06996 0.49733 0.0
H144 H 0.05481 0.15393 0.5594 0.0
H145 H 0.79672 0.04658 0.49864 0.0
H146 H 0.97301 0.87153 0.51503 0.0
H147 H 0.23163 0.96569 0.59228 0.0
H148 H 0.87435 0.01916 0.55543 0.0
H149 H 0.78597 0.12765 0.43873 0.0
H150 H 0.15176 0.99805 0.54451 0.0
H151 H 0.05032 0.23561 0.50267 0.0
H152 H 0.82087 0.20624 0.40446 0.0
H153 H 0.88965 0.25735 0.40536 0.0
H154 H 0.97943 0.78432 0.54342 0.0
H155 H 0.97531 0.26849 0.44135 0.0
H156 H 0.24361 0.87996 0.63572 0.0
N157 N 0.04372 0.88008 0.55287 0.0
C158 C 0.08572 0.85824 0.58029 0.0
C159 C 0.00949 0.80471 0.55452 0.0
C160 C 0.09093 0.80867 0.59779 0.0
C161 C 0.00599 0.85409 0.53858 0.0
C162 C 0.05186 0.78189 0.58516 0.0
N163 N 0.1181 0.93309 0.56627 0.0
C164 C 0.15628 0.96136 0.56558 0.0
C165 C 0.16968 0.86501 0.61234 0.0
C166 C 0.12453 0.88577 0.58669 0.0
C167 C 0.20835 0.8944 0.61591 0.0
C168 C 0.20171 0.94279 0.59165 0.0
H169 H 0.05446 0.74367 0.59748 0.0
H170 H 0.14009 0.74954 0.63948 0.0
H171 H 0.20902 0.79905 0.65294 0.0
O172 O 0.0783 0.98407 0.45962 0.0
O173 O 0.07247 0.95747 0.61194 0.0
O174 O 0.02912 0.0111 0.63997 0.0
O175 O 0.02411 0.93341 0.45851 0.0
O176 O 0.06168 0.03576 0.5102 0.0
O177 O 0.05813 0.06772 0.58171 0.0
O178 O 0.93409 0.06764 0.63325 0.0
O179 O 0.97341 0.065 0.49299 0.0
O180 O 0.96953 0.98678 0.49655 0.0
O181 O 0.99654 0.11093 0.62992 0.0
O182 O 0.95316 0.99423 0.6052 0.0
O183 O 0.98032 0.93729 0.56656 0.0
C184 C 0.05933 0.97482 0.65012 0.0
C185 C 0.08743 0.92488 0.41317 0.0
C186 C 0.12867 0.91197 0.34219 0.0
C187 C 0.14189 0.86596 0.37351 0.0
C188 C 0.10031 0.87819 0.44292 0.0
C189 C 0.12772 0.84922 0.4236 0.0
C190 C 0.10161 0.9417 0.36218 0.0
C191 C 0.08133 0.05913 0.54524 0.0
C192 C 0.05711 0.95479 0.43373 0.0
C193 C 0.13542 0.78758 0.62516 0.0
C194 C 0.17473 0.81574 0.63262 0.0
C195 C 0.95847 0.03062 0.47082 0.0
C196 C 0.9463 0.11913 0.69478 0.0
C197 C 0.90587 0.11507 0.7718 0.0
C198 C 0.92535 0.15808 0.77719 0.0
C199 C 0.96546 0.16206 0.70105 0.0
C200 C 0.91628 0.09554 0.73035 0.0
C201 C 0.95488 0.18141 0.74197 0.0
C202 C 0.95439 0.95114 0.59864 0.0
C203 C 0.95929 0.09872 0.65233 0.0
H204 H 0.16261 0.84273 0.35863 0.0
H205 H 0.08839 0.86335 0.48052 0.0
H206 H 0.13731 0.81338 0.44717 0.0
H207 H 0.09106 0.97717 0.33786 0.0
H208 H 0.91773 0.17352 0.80898 0.0
H209 H 0.98867 0.18073 0.67429 0.0
H210 H 0.90169 0.06206 0.72649 0.0
H211 H 0.96978 0.21452 0.74656 0.0
Tb212 Tb 0.44789 0.48713 1.00056 0.0
C213 C 0.6514 0.56034 0.06167 0.0
N214 N 0.63066 0.52021 0.08513 0.0
C215 C 0.70187 0.47485 0.09027 0.0
C216 C 0.69796 0.55904 0.05039 0.0
C217 C 0.65589 0.47801 0.10147 0.0
C218 C 0.72284 0.51544 0.06411 0.0
C219 C 0.64745 0.64574 0.0292 0.0
C220 C 0.62609 0.60311 0.05017 0.0
C221 C 0.69341 0.64455 0.01663 0.0
C222 C 0.71848 0.60129 0.02691 0.0
Tb223 Tb 0.55515 0.53072 0.10003 0.0
N224 N 0.5811 0.6029 0.06134 0.0
C225 C 0.62259 0.6883 0.02322 0.0
C226 C 0.55794 0.64424 0.05878 0.0
C227 C 0.5781 0.68753 0.0392 0.0
H228 H 0.64142 0.44676 0.12433 0.0
H229 H 0.55921 0.72025 0.03621 0.0
H230 H 0.35898 0.56135 1.00082 0.0
H231 H 0.45889 0.29768 0.03535 0.0
H232 H 0.52395 0.6441 0.07182 0.0
H233 H 0.63793 0.72186 0.00767 0.0
H234 H 0.48719 0.37836 0.00851 0.0
H235 H 0.72138 0.44119 0.10262 0.0
H236 H 0.71022 0.67694 0.9999 0.0
H237 H 0.75416 0.60099 0.01774 0.0
H238 H 0.27998 0.55504 0.02688 0.0
H239 H 0.75867 0.51292 0.05604 0.0
H240 H 0.38116 0.28431 0.06605 0.0
N241 N 0.37368 0.48699 0.02265 0.0
C242 C 0.35582 0.44355 0.03892 0.0
C243 C 0.30116 0.52339 0.03105 0.0
C244 C 0.31013 0.43837 0.0531 0.0
C245 C 0.34658 0.52679 0.01713 0.0
C246 C 0.28296 0.47901 0.0495 0.0
N247 N 0.42763 0.41054 0.0274 0.0
C248 C 0.45387 0.37315 0.02328 0.0
C249 C 0.36576 0.35858 0.05616 0.0
C250 C 0.38359 0.40414 0.04109 0.0
C251 C 0.39363 0.31989 0.05487 0.0
C252 C 0.43761 0.32728 0.03775 0.0
H253 H 0.24764 0.47653 0.05994 0.0
H254 H 0.25786 0.38825 0.08097 0.0
H255 H 0.3064 0.31842 0.0833 0.0
O256 O 0.45481 0.45823 0.93466 0.0
O257 O 0.44093 0.47177 0.08771 0.0
O258 O 0.51564 0.47236 0.14106 0.0
O259 O 0.39438 0.50482 0.931 0.0
O260 O 0.52011 0.45457 0.0177 0.0
O261 O 0.55632 0.45546 0.10442 0.0
O262 O 0.54941 0.56962 0.15696 0.0
O263 O 0.56117 0.54251 0.01339 0.0
O264 O 0.48509 0.5488 0.96339 0.0
O265 O 0.60724 0.51892 0.1707 0.0
O266 O 0.48413 0.56569 0.08417 0.0
O267 O 0.44262 0.56143 1.00028 0.0
C268 C 0.47015 0.46276 0.13504 0.0
C269 C 0.39585 0.47583 0.85071 0.0
C270 C 0.39422 0.43882 0.77555 0.0
C271 C 0.35676 0.47023 0.74518 0.0
C272 C 0.35822 0.50678 0.81945 0.0
C273 C 0.33902 0.50406 0.76698 0.0
C274 C 0.41423 0.44197 0.82829 0.0
C275 C 0.54839 0.43511 0.06398 0.0
C276 C 0.41543 0.47962 0.9062 0.0
C277 C 0.29285 0.39296 0.06977 0.0
C278 C 0.32053 0.35318 0.07116 0.0
C279 C 0.53098 0.55473 0.96719 0.0
C280 C 0.58165 0.53313 0.24774 0.0
C281 C 0.58585 0.55158 0.33505 0.0
C282 C 0.57293 0.5055 0.35772 0.0
C283 C 0.56914 0.48696 0.27086 0.0
C284 C 0.58972 0.56542 0.2799 0.0
C285 C 0.56447 0.4734 0.32562 0.0
C286 C 0.45249 0.58277 0.03977 0.0
C287 C 0.58678 0.54862 0.19042 0.0
H288 H 0.34111 0.46835 0.70452 0.0
H289 H 0.34366 0.53333 0.83546 0.0
H290 H 0.31011 0.52813 0.74321 0.0
H291 H 0.44323 0.41776 0.85177 0.0
H292 H 0.57012 0.49426 0.40038 0.0
H293 H 0.56284 0.46156 0.24665 0.0
H294 H 0.60007 0.60094 0.26245 0.0
H295 H 0.55466 0.43784 0.34331 0.0
C296 C 0.20656 0.1083 0.56284 0.0
C297 C 0.20463 0.14214 0.51215 0.0
C298 C 0.12159 0.12337 0.48399 0.0
C299 C 0.12367 0.08832 0.53401 0.0
N300 N 0.16547 0.05204 0.62448 0.0
N301 N 0.16362 0.17776 0.4215 0.0
C302 C 0.16545 0.08223 0.57447 0.0
C303 C 0.16306 0.14843 0.47187 0.0
N304 N 0.24861 0.09967 0.59887 0.0
N305 N 0.07888 0.13553 0.45001 0.0
H306 H 0.19269 0.19795 0.41182 0.0
H307 H 0.13686 0.17967 0.38807 0.0
H308 H 0.04723 0.12076 0.45963 0.0
H309 H 0.07348 0.16384 0.41564 0.0
H310 H 0.25481 0.07186 0.63369 0.0
H311 H 0.27904 0.1187 0.59236 0.0
H312 H 0.19207 0.04976 0.65809 0.0
H313 H 0.13741 0.03033 0.63363 0.0
C314 C 0.39685 0.6785 0.08786 0.0
C315 C 0.3821 0.71369 0.03894 0.0
C316 C 0.4101 0.6626 0.98739 0.0
C317 C 0.42339 0.62635 0.03667 0.0
N318 N 0.40764 0.59466 0.12751 0.0
N319 N 0.36103 0.73315 0.94126 0.0
C320 C 0.41051 0.63281 0.08523 0.0
C321 C 0.38458 0.70388 0.98841 0.0
N322 N 0.39866 0.68862 0.13695 0.0
N323 N 0.4226 0.6592 0.93967 0.0
H324 H 0.34124 0.76325 0.94031 0.0
H325 H 0.35689 0.72492 0.90381 0.0
H326 H 0.43864 0.62962 0.93411 0.0
H327 H 0.4198 0.68772 0.90554 0.0
H328 H 0.41356 0.6651 0.17357 0.0
H329 H 0.38936 0.72189 0.14063 0.0
H330 H 0.39543 0.5971 0.1626 0.0
H331 H 0.41051 0.56025 0.12366 0.0
C332 C 0.88542 0.83976 0.62728 0.0
C333 C 0.84106 0.85768 0.63318 0.0
C334 C 0.87758 0.93266 0.63863 0.0
C335 C 0.9192 0.9172 0.62324 0.0
N336 N 0.97032 0.84869 0.64086 0.0
N337 N 0.79378 0.92201 0.64276 0.0
C338 C 0.92547 0.86849 0.62816 0.0
C339 C 0.83673 0.90447 0.63822 0.0
N340 N 0.88908 0.79592 0.61857 0.0
N341 N 0.87922 0.97004 0.66137 0.0
H342 H 0.76368 0.9017 0.64532 0.0
H343 H 0.78727 0.95758 0.63996 0.0
H344 H 0.91136 0.98367 0.67518 0.0
H345 H 0.85076 0.98147 0.67596 0.0
H346 H 0.91968 0.78334 0.60883 0.0
H347 H 0.86034 0.77389 0.61615 0.0
H348 H 0.97734 0.81233 0.6521 0.0
H349 H 1.00004 0.86873 0.64708 0.0
C350 C 0.63143 0.35639 0.01981 0.0
C351 C 0.63687 0.31575 0.0639 0.0
C352 C 0.58557 0.35286 0.11037 0.0
C353 C 0.5805 0.39421 0.0661 0.0
N354 N 0.61274 0.43995 0.98933 0.0
N355 N 0.61408 0.27088 0.14673 0.0
C356 C 0.60675 0.39706 0.02324 0.0
C357 C 0.61242 0.31274 0.10796 0.0
N358 N 0.64972 0.356 0.97426 0.0
N359 N 0.56744 0.35274 0.15614 0.0
H360 H 0.63379 0.24123 0.14607 0.0
H361 H 0.59316 0.26388 0.17695 0.0
H362 H 0.54905 0.38134 0.16103 0.0
H363 H 0.57396 0.32584 0.19182 0.0
H364 H 0.64212 0.38254 0.93822 0.0
H365 H 0.66873 0.32697 0.97071 0.0
H366 H 0.63549 0.44517 0.96095 0.0
H367 H 0.60008 0.47146 0.99439 0.0
C368 C 0.20343 0.956 0.23218 0.0
C369 C 0.18419 0.92911 0.19548 0.0
C370 C 0.11854 0.90714 0.24598 0.0
C371 C 0.14245 0.92675 0.28759 0.0
N372 N 0.20788 0.96943 0.32186 0.0
N373 N 0.12467 0.87684 0.16823 0.0
C374 C 0.1846 0.9518 0.28076 0.0
C375 C 0.14159 0.90464 0.20204 0.0
N376 N 0.2394 0.98576 0.2202 0.0
N377 N 0.07387 0.89068 0.24896 0.0
H378 H 0.14045 0.87406 0.1355 0.0
H379 H 0.09703 0.85386 0.17481 0.0
H380 H 0.05631 0.89223 0.28086 0.0
H381 H 0.05259 0.87981 0.21767 0.0
H382 H 0.252 0.00965 0.24258 0.0
H383 H 0.25387 0.98953 0.1849 0.0
H384 H 0.24179 0.98288 0.32235 0.0
H385 H 0.19419 0.96837 0.35712 0.0
C386 C 0.58593 0.64957 0.86785 0.0
C387 C 0.59473 0.62497 0.82962 0.0
C388 C 0.55859 0.55473 0.8792 0.0
C389 C 0.54939 0.57964 0.91721 0.0
N390 N 0.53787 0.65528 0.93442 0.0
N391 N 0.57841 0.55896 0.79033 0.0
C392 C 0.55823 0.62844 0.90765 0.0
C393 C 0.57763 0.57893 0.83267 0.0
N394 N 0.60533 0.69238 0.86755 0.0
N395 N 0.54987 0.50781 0.88789 0.0
H396 H 0.59162 0.576 0.7554 0.0
H397 H 0.56202 0.52764 0.78739 0.0
H398 H 0.53407 0.48961 0.9201 0.0
H399 H 0.56102 0.48631 0.86545 0.0
H400 H 0.60414 0.7093 0.89832 0.0
H401 H 0.62584 0.70919 0.83897 0.0
H402 H 0.5384 0.69202 0.9245 0.0
H403 H 0.51617 0.64088 0.96249 0.0
C404 C 0.86002 0.03299 0.34845 0.0
C405 C 0.87376 0.07237 0.31019 0.0
C406 C 0.94631 0.07697 0.37363 0.0
C407 C 0.92998 0.04214 0.41487 0.0
N408 N 0.86786 0.98953 0.44295 0.0
N409 N 0.92463 0.13859 0.29098 0.0
C410 C 0.8859 0.02057 0.40274 0.0
C411 C 0.91511 0.09661 0.32436 0.0
N412 N 0.82307 0.00685 0.33258 0.0
N413 N 0.99297 0.08846 0.37957 0.0
H414 H 0.90248 0.15451 0.25437 0.0
H415 H 0.95201 0.1597 0.30244 0.0
H416 H 0.01813 0.0696 0.4118 0.0
H417 H 0.00763 0.11128 0.34898 0.0
H418 H 0.81473 0.97466 0.35672 0.0
H419 H 0.80292 0.01563 0.29349 0.0
H420 H 0.83352 0.97715 0.43759 0.0
H421 H 0.88548 0.97884 0.48302 0.0
C422 C 0.38828 0.33226 0.71868 0.0
C423 C 0.41695 0.34639 0.67781 0.0
C424 C 0.44116 0.41565 0.71156 0.0
C425 C 0.41079 0.40259 0.75069 0.0
N426 N 0.36678 0.34268 0.8022 0.0
N427 N 0.47993 0.39367 0.64396 0.0
C428 C 0.3884 0.35869 0.75798 0.0
C429 C 0.44655 0.38559 0.6772 0.0
N430 N 0.35859 0.29551 0.71784 0.0
N431 N 0.46329 0.45769 0.70608 0.0
H432 H 0.48468 0.37201 0.61865 0.0
H433 H 0.50545 0.41916 0.64464 0.0
H434 H 0.46207 0.47898 0.73273 0.0
H435 H 0.48128 0.47234 0.67427 0.0
H436 H 0.33282 0.28698 0.74249 0.0
H437 H 0.35728 0.27521 0.68983 0.0
H438 H 0.35387 0.30889 0.81299 0.0
H439 H 0.36578 0.3617 0.83114 0.0
C440 C 0.57786 0.64538 0.41275 0.0
C441 C 0.62316 0.63786 0.44692 0.0
C442 C 0.64623 0.58119 0.3995 0.0
C443 C 0.59911 0.58404 0.37043 0.0
N444 N 0.51866 0.61625 0.35062 0.0
N445 N 0.69766 0.59244 0.47941 0.0
C446 C 0.56448 0.61562 0.37719 0.0
C447 C 0.65679 0.60437 0.44183 0.0
N448 N 0.54823 0.68154 0.41362 0.0
N449 N 0.68108 0.55658 0.38638 0.0
H450 H 0.70647 0.60714 0.51242 0.0
H451 H 0.72078 0.56456 0.48102 0.0
H452 H 0.67459 0.53826 0.35626 0.0
H453 H 0.71712 0.55791 0.40183 0.0
H454 H 0.51663 0.69184 0.38619 0.0
H455 H 0.55718 0.70389 0.43918 0.0
H456 H 0.49051 0.63453 0.35827 0.0
H457 H 0.50815 0.596 0.32301 0.0
C458 C 0.80177 0.09918 0.84558 0.0
C459 C 0.82824 0.08814 0.89906 0.0
C460 C 0.89831 0.06836 0.86458 0.0
C461 C 0.87553 0.09149 0.81145 0.0
N462 N 0.80401 0.12228 0.74867 0.0
N463 N 0.90065 0.05713 0.96128 0.0
C464 C 0.82625 0.10366 0.80096 0.0
C465 C 0.87582 0.06966 0.90934 0.0
N466 N 0.75363 0.10676 0.83808 0.0
N467 N 0.94204 0.04672 0.87176 0.0
H468 H 0.88515 0.05662 0.99516 0.0
H469 H 0.93706 0.04895 0.97086 0.0
H470 H 0.95871 0.04599 0.83892 0.0
H471 H 0.95946 0.02602 0.90893 0.0
H472 H 0.7313 0.11226 0.80057 0.0
H473 H 0.7357 0.10345 0.87085 0.0
H474 H 0.76944 0.13677 0.73811 0.0
H475 H 0.82109 0.12408 0.71555 0.0
C476 C 0.43756 0.42711 0.27793 0.0
C477 C 0.42235 0.38049 0.28029 0.0
C478 C 0.44136 0.38685 0.18986 0.0
C479 C 0.45259 0.43489 0.18477 0.0
N480 N 0.45912 0.50203 0.22324 0.0
N481 N 0.40123 0.31905 0.23471 0.0
C482 C 0.44989 0.45543 0.22865 0.0
C483 C 0.42122 0.36156 0.23485 0.0
N484 N 0.44167 0.44366 0.32343 0.0
N485 N 0.45421 0.36381 0.15451 0.0
H486 H 0.38721 0.29876 0.26754 0.0
H487 H 0.39476 0.30609 0.20019 0.0
H488 H 0.47232 0.38036 0.12371 0.0
H489 H 0.45243 0.32742 0.1599 0.0
H490 H 0.45763 0.47505 0.32684 0.0
H491 H 0.43129 0.42456 0.35934 0.0
H492 H 0.45246 0.52083 0.25061 0.0
H493 H 0.47197 0.52268 0.18987 0.0
C494 C 0.15603 0.91462 0.76757 0.0
C495 C 0.15508 0.944 0.80332 0.0
C496 C 0.0802 0.98194 0.74828 0.0
C497 C 0.08545 0.95766 0.70808 0.0
N498 N 0.10875 0.88138 0.70088 0.0
N499 N 0.11718 0.00699 0.82775 0.0
C500 C 0.11814 0.91847 0.72327 0.0
C501 C 0.11744 0.97816 0.79363 0.0
N502 N 0.19366 0.88363 0.77507 0.0
N503 N 0.03734 0.00302 0.74736 0.0
H504 H 0.14229 0.00366 0.86304 0.0
H505 H 0.09409 0.03638 0.81898 0.0
H506 H 0.00624 0.99717 0.72259 0.0
H507 H 0.03044 0.01904 0.7771 0.0
H508 H 0.19824 0.86505 0.74665 0.0
H509 H 0.22224 0.87964 0.80718 0.0
H510 H 0.12827 0.84939 0.71464 0.0
H511 H 0.07692 0.88026 0.67486 0.0
loop_
_geom_bond_atom_site_label_1
_geom_bond_atom_site_label_2
_geom_bond_distance
_geom_bond_site_symmetry_2
_ccdc_geom_bond_type
P0 O11 1.490 . S
P0 C14 1.812 . S
P0 C20 1.803 . S
P0 C26 1.819 1_554 S
H1 C15 0.941 . S
H2 C16 0.939 . S
H3 C18 0.940 . S
H4 C19 0.940 . S
H5 C21 0.939 1_556 S
H6 C22 0.942 . S
H7 C24 0.940 . S
H8 C25 0.939 . S
H9 C27 0.941 . S
H10 C31 0.939 . S
O11 P0 1.490 . S
H12 C28 0.939 1_545 S
H13 C30 0.940 . S
C14 P0 1.812 . S
C14 C15 1.389 . S
C14 C19 1.391 . S
C15 H1 0.941 . S
C15 C14 1.389 . S
C15 C16 1.397 . S
C16 H2 0.939 . S
C16 C15 1.397 . S
C16 C17 1.378 . S
C17 C16 1.378 . S
C17 C18 1.378 . S
C18 H3 0.940 . S
C18 C17 1.378 . S
C18 C19 1.396 . S
C19 H4 0.940 . S
C19 C14 1.391 . S
C19 C18 1.396 . S
C20 P0 1.803 . S
C20 C21 1.378 . S
C20 C25 1.400 . S
C21 H5 0.939 1_554 S
C21 C20 1.378 . S
C21 C22 1.361 . S
C22 H6 0.942 . S
C22 C21 1.361 . S
C22 C23 1.369 . S
C23 C22 1.369 . S
C23 C24 1.404 . S
C24 H7 0.940 . S
C24 C23 1.404 . S
C24 C25 1.389 . S
C25 H8 0.939 . S
C25 C20 1.400 . S
C25 C24 1.389 . S
C26 P0 1.819 1_556 S
C26 C27 1.391 . S
C26 C31 1.391 . S
C27 H9 0.941 . S
C27 C26 1.391 . S
C27 C28 1.396 . S
C28 H12 0.939 1_565 S
C28 C27 1.396 . S
C28 C29 1.397 . S
C29 C28 1.397 . S
C29 C30 1.385 . S
C30 H13 0.940 . S
C30 C29 1.385 . S
C30 C31 1.388 . S
C31 H10 0.939 . S
C31 C26 1.391 . S
C31 C30 1.388 . S
P32 O43 1.490 . S
P32 C46 1.812 . S
P32 C52 1.803 . S
P32 C58 1.819 . S
H33 C47 0.941 . S
H34 C48 0.939 . S
H35 C50 0.940 . S
H36 C51 0.940 . S
H37 C53 0.939 . S
H38 C54 0.942 . S
H39 C56 0.940 . S
H40 C57 0.939 . S
H41 C59 0.941 . S
H42 C63 0.939 . S
O43 P32 1.490 . S
H44 C60 0.939 . S
H45 C62 0.940 . S
C46 P32 1.812 . S
C46 C47 1.389 . S
C46 C51 1.391 . S
C47 H33 0.941 . S
C47 C46 1.389 . S
C47 C48 1.397 . S
C48 H34 0.939 . S
C48 C47 1.397 . S
C48 C49 1.378 . S
C49 C48 1.378 . S
C49 C50 1.378 . S
C50 H35 0.940 . S
C50 C49 1.378 . S
C50 C51 1.396 . S
C51 H36 0.940 . S
C51 C46 1.391 . S
C51 C50 1.396 . S
C52 P32 1.803 . S
C52 C53 1.378 . S
C52 C57 1.400 . S
C53 H37 0.939 . S
C53 C52 1.378 . S
C53 C54 1.361 . S
C54 H38 0.942 . S
C54 C53 1.361 . S
C54 C55 1.369 . S
C55 C54 1.369 . S
C55 C56 1.404 . S
C56 H39 0.940 . S
C56 C55 1.404 . S
C56 C57 1.389 . S
C57 H40 0.939 . S
C57 C52 1.400 . S
C57 C56 1.389 . S
C58 P32 1.819 . S
C58 C59 1.391 . S
C58 C63 1.391 . S
C59 H41 0.941 . S
C59 C58 1.391 . S
C59 C60 1.396 . S
C60 H44 0.939 . S
C60 C59 1.396 . S
C60 C61 1.397 . S
C61 C60 1.397 . S
C61 C62 1.385 . S
C62 H45 0.940 . S
C62 C61 1.385 . S
C62 C63 1.388 . S
C63 H42 0.939 . S
C63 C58 1.391 . S
C63 C62 1.388 . S
P64 O75 1.490 . S
P64 C78 1.812 . S
P64 C84 1.803 . S
P64 C90 1.819 . S
H65 C79 0.941 . S
H66 C80 0.939 . S
H67 C82 0.940 1_554 S
H68 C83 0.940 . S
H69 C85 0.939 . S
H70 C86 0.942 . S
H71 C88 0.940 . S
H72 C89 0.939 . S
H73 C91 0.941 . S
H74 C95 0.939 . S
O75 P64 1.490 . S
H76 C92 0.939 . S
H77 C94 0.940 . S
C78 P64 1.812 . S
C78 C79 1.389 1_554 S
C78 C83 1.391 . S
C79 H65 0.941 . S
C79 C78 1.389 1_556 S
C79 C80 1.397 . S
C80 H66 0.939 . S
C80 C79 1.397 . S
C80 C81 1.378 . S
C81 C80 1.378 . S
C81 C82 1.378 . S
C82 H67 0.940 1_556 S
C82 C81 1.378 . S
C82 C83 1.396 1_556 S
C83 H68 0.940 . S
C83 C78 1.391 . S
C83 C82 1.396 1_554 S
C84 P64 1.803 . S
C84 C85 1.378 . S
C84 C89 1.400 . S
C85 H69 0.939 . S
C85 C84 1.378 . S
C85 C86 1.361 . S
C86 H70 0.942 . S
C86 C85 1.361 . S
C86 C87 1.369 . S
C87 C86 1.369 . S
C87 C88 1.404 . S
C88 H71 0.940 . S
C88 C87 1.404 . S
C88 C89 1.389 . S
C89 H72 0.939 . S
C89 C84 1.400 . S
C89 C88 1.389 . S
C90 P64 1.819 . S
C90 C91 1.391 . S
C90 C95 1.391 . S
C91 H73 0.941 . S
C91 C90 1.391 . S
C91 C92 1.396 . S
C92 H76 0.939 . S
C92 C91 1.396 . S
C92 C93 1.397 . S
C93 C92 1.397 . S
C93 C94 1.385 . S
C94 H77 0.940 . S
C94 C93 1.385 . S
C94 C95 1.388 . S
C95 H74 0.939 . S
C95 C90 1.391 . S
C95 C94 1.388 . S
P96 O107 1.490 . S
P96 C110 1.812 . S
P96 C116 1.803 . S
P96 C122 1.819 . S
H97 C111 0.941 . S
H98 C112 0.939 . S
H99 C114 0.940 . S
H100 C115 0.940 . S
H101 C117 0.939 . S
H102 C118 0.942 . S
H103 C120 0.940 . S
H104 C121 0.939 . S
H105 C123 0.941 . S
H106 C127 0.939 . S
O107 P96 1.490 . S
H108 C124 0.939 . S
H109 C126 0.940 . S
C110 P96 1.812 . S
C110 C111 1.389 . S
C110 C115 1.391 . S
C111 H97 0.941 . S
C111 C110 1.389 . S
C111 C112 1.397 . S
C112 H98 0.939 . S
C112 C111 1.397 . S
C112 C113 1.378 . S
C113 C112 1.378 . S
C113 C114 1.378 . S
C114 H99 0.940 . S
C114 C113 1.378 . S
C114 C115 1.396 . S
C115 H100 0.940 . S
C115 C110 1.391 . S
C115 C114 1.396 . S
C116 P96 1.803 . S
C116 C117 1.378 . S
C116 C121 1.400 . S
C117 H101 0.939 . S
C117 C116 1.378 . S
C117 C118 1.361 . S
C118 H102 0.942 . S
C118 C117 1.361 . S
C118 C119 1.369 . S
C119 C118 1.369 . S
C119 C120 1.404 . S
C120 H103 0.940 . S
C120 C119 1.404 . S
C120 C121 1.389 . S
C121 H104 0.939 . S
C121 C116 1.400 . S
C121 C120 1.389 . S
C122 P96 1.819 . S
C122 C123 1.391 . S
C122 C127 1.391 . S
C123 H105 0.941 . S
C123 C122 1.391 . S
C123 C124 1.396 . S
C124 H108 0.939 . S
C124 C123 1.396 . S
C124 C125 1.397 . S
C125 C124 1.397 . S
C125 C126 1.385 . S
C126 H109 0.940 . S
C126 C125 1.385 . S
C126 C127 1.388 . S
C127 H106 0.939 . S
C127 C122 1.391 . S
C127 C126 1.388 . S
Tb128 N157 2.617 . S
Tb128 N163 2.572 . S
Tb128 O172 2.465 . S
Tb128 O173 2.387 . S
Tb128 O175 2.428 . S
Tb128 O176 2.308 1_565 S
Tb128 O180 2.349 1_465 S
Tb128 O183 2.393 1_455 S
Tb128 C192 2.802 . S
C129 N130 1.379 . S
C129 C132 1.416 . S
C129 C136 1.424 . S
N130 C129 1.379 . S
N130 C133 1.347 . S
N130 Tb139 2.617 . S
C131 C133 1.390 . S
C131 C134 1.339 . S
C131 H151 0.930 1_655 S
C132 C129 1.416 . S
C132 C134 1.416 . S
C132 C138 1.448 . S
C133 N130 1.347 . S
C133 C131 1.390 . S
C133 H144 0.917 1_655 S
C134 C131 1.339 . S
C134 C132 1.416 . S
C134 H155 0.930 . S
C135 C136 1.413 . S
C135 C137 1.427 . S
C135 C141 1.416 . S
C136 C129 1.424 . S
C136 C135 1.413 . S
C136 N140 1.361 . S
C137 C135 1.427 . S
C137 C138 1.328 . S
C137 H152 0.929 . S
C138 C132 1.448 . S
C138 C137 1.328 . S
C138 H153 0.930 . S
Tb139 N130 2.617 . S
Tb139 N140 2.572 . S
Tb139 O174 2.349 1_655 S
Tb139 O177 2.393 1_655 S
Tb139 O178 2.465 . S
Tb139 O179 2.387 . S
Tb139 O181 2.428 . S
Tb139 O182 2.308 1_545 S
Tb139 C203 2.802 . S
N140 C136 1.361 . S
N140 Tb139 2.572 . S
N140 C142 1.340 . S
C141 C135 1.416 . S
C141 C143 1.332 . S
C141 H149 0.931 . S
C142 N140 1.340 . S
C142 C143 1.407 . S
C142 H148 0.930 . S
C143 C141 1.332 . S
C143 C142 1.407 . S
C143 H145 0.929 . S
H144 C133 0.917 1_455 S
H145 C143 0.929 . S
H146 C161 0.930 1_655 S
H147 C168 0.929 . S
H148 C142 0.930 . S
H149 C141 0.931 . S
H150 C164 0.930 . S
H151 C131 0.930 1_455 S
H152 C137 0.929 . S
H153 C138 0.930 . S
H154 C159 0.930 1_655 S
H155 C134 0.930 . S
H156 C167 0.931 . S
N157 Tb128 2.617 . S
N157 C158 1.379 . S
N157 C161 1.334 . S
C158 N157 1.379 . S
C158 C160 1.416 . S
C158 C166 1.424 . S
C159 H154 0.930 1_455 S
C159 C161 1.390 . S
C159 C162 1.339 . S
C160 C158 1.416 . S
C160 C162 1.416 . S
C160 C193 1.448 . S
C161 H146 0.930 1_455 S
C161 N157 1.334 . S
C161 C159 1.390 . S
C162 C159 1.339 . S
C162 C160 1.416 . S
C162 H169 0.930 . S
N163 Tb128 2.572 . S
N163 C164 1.340 . S
N163 C166 1.361 . S
C164 H150 0.930 . S
C164 N163 1.340 . S
C164 C168 1.407 . S
C165 C166 1.413 . S
C165 C167 1.416 . S
C165 C194 1.427 . S
C166 C158 1.424 . S
C166 N163 1.361 . S
C166 C165 1.413 . S
C167 H156 0.931 . S
C167 C165 1.416 . S
C167 C168 1.332 . S
C168 H147 0.929 . S
C168 C164 1.407 . S
C168 C167 1.332 . S
H169 C162 0.930 . S
H170 C193 0.930 . S
H171 C194 0.929 . S
O172 Tb128 2.465 . S
O172 C192 1.264 . S
O173 Tb128 2.387 . S
O173 C184 1.264 . S
O174 Tb139 2.349 1_455 S
O174 C184 1.243 1_545 S
O175 Tb128 2.428 . S
O175 C192 1.256 . S
O176 Tb128 2.308 1_545 S
O176 C191 1.266 . S
O177 Tb139 2.393 1_455 S
O177 C191 1.248 . S
O178 Tb139 2.465 . S
O178 C203 1.264 . S
O179 Tb139 2.387 . S
O179 C195 1.264 . S
O180 Tb128 2.349 1_645 S
O180 C195 1.243 . S
O181 Tb139 2.428 . S
O181 C203 1.256 . S
O182 Tb139 2.308 1_565 S
O182 C202 1.266 . S
O183 Tb128 2.393 1_655 S
O183 C202 1.248 . S
C184 O173 1.264 . S
C184 O174 1.243 1_565 S
C185 C188 1.399 . S
C185 C190 1.383 . S
C185 C192 1.496 . S
C186 C187 1.399 . S
C186 C190 1.389 . S
C187 C186 1.399 . S
C187 C189 1.380 . S
C187 H204 0.929 . S
C188 C185 1.399 . S
C188 C189 1.392 . S
C188 H205 0.929 . S
C189 C187 1.380 . S
C189 C188 1.392 . S
C189 H206 0.929 . S
C190 C185 1.383 . S
C190 C186 1.389 . S
C190 H207 0.931 . S
C191 O176 1.266 . S
C191 O177 1.248 . S
C192 Tb128 2.802 . S
C192 O172 1.264 . S
C192 O175 1.256 . S
C192 C185 1.496 . S
C193 C160 1.448 . S
C193 H170 0.930 . S
C193 C194 1.328 . S
C194 C165 1.427 . S
C194 H171 0.929 . S
C194 C193 1.328 . S
C195 O179 1.264 . S
C195 O180 1.243 . S
C196 C199 1.399 . S
C196 C200 1.383 . S
C196 C203 1.496 . S
C197 C198 1.399 . S
C197 C200 1.389 . S
C198 C197 1.399 . S
C198 C201 1.380 . S
C198 H208 0.929 . S
C199 C196 1.399 . S
C199 C201 1.392 . S
C199 H209 0.929 . S
C200 C196 1.383 . S
C200 C197 1.389 . S
C200 H210 0.931 . S
C201 C198 1.380 . S
C201 C199 1.392 . S
C201 H211 0.929 . S
C202 O182 1.266 . S
C202 O183 1.248 . S
C203 Tb139 2.802 . S
C203 O178 1.264 . S
C203 O181 1.256 . S
C203 C196 1.496 . S
H204 C187 0.929 . S
H205 C188 0.929 . S
H206 C189 0.929 . S
H207 C190 0.931 . S
H208 C198 0.929 . S
H209 C199 0.929 . S
H210 C200 0.931 . S
H211 C201 0.929 . S
Tb212 N241 2.617 1_556 S
Tb212 N247 2.572 1_556 S
Tb212 O256 2.465 . S
Tb212 O257 2.387 1_556 S
Tb212 O259 2.427 . S
Tb212 O260 2.308 1_556 S
Tb212 O264 2.349 . S
Tb212 O267 2.393 1_556 S
Tb212 C276 2.802 . S
C213 N214 1.379 . S
C213 C216 1.416 . S
C213 C220 1.424 . S
N214 C213 1.379 . S
N214 C217 1.334 . S
N214 Tb223 2.617 . S
C215 C217 1.390 . S
C215 C218 1.339 . S
C215 H235 0.930 . S
C216 C213 1.416 . S
C216 C218 1.416 . S
C216 C222 1.448 . S
C217 N214 1.334 . S
C217 C215 1.390 . S
C217 H228 0.930 . S
C218 C215 1.339 . S
C218 C216 1.416 . S
C218 H239 0.930 . S
C219 C220 1.413 . S
C219 C221 1.427 . S
C219 C225 1.416 . S
C220 C213 1.424 . S
C220 C219 1.413 . S
C220 N224 1.361 . S
C221 C219 1.427 . S
C221 C222 1.328 . S
C221 H236 0.929 . S
C222 C216 1.448 . S
C222 C221 1.328 . S
C222 H237 0.930 . S
Tb223 N214 2.617 . S
Tb223 N224 2.572 . S
Tb223 O258 2.349 . S
Tb223 O261 2.393 . S
Tb223 O262 2.465 . S
Tb223 O263 2.387 . S
Tb223 O265 2.428 . S
Tb223 O266 2.308 . S
Tb223 C287 2.802 . S
N224 C220 1.361 . S
N224 Tb223 2.572 . S
N224 C226 1.340 . S
C225 C219 1.416 . S
C225 C227 1.332 . S
C225 H233 0.931 . S
C226 N224 1.340 . S
C226 C227 1.407 . S
C226 H232 0.930 . S
C227 C225 1.332 . S
C227 C226 1.407 . S
C227 H229 0.929 . S
H228 C217 0.930 . S
H229 C227 0.929 . S
H230 C245 0.930 . S
H231 C252 0.929 . S
H232 C226 0.930 . S
H233 C225 0.931 . S
H234 C248 0.930 . S
H235 C215 0.930 . S
H236 C221 0.929 . S
H237 C222 0.930 . S
H238 C243 0.930 . S
H239 C218 0.930 . S
H240 C251 0.931 . S
N241 Tb212 2.617 1_554 S
N241 C242 1.379 . S
N241 C245 1.334 1_554 S
C242 N241 1.379 . S
C242 C244 1.416 . S
C242 C250 1.424 . S
C243 H238 0.930 . S
C243 C245 1.390 . S
C243 C246 1.339 1_556 S
C244 C242 1.416 . S
C244 C246 1.416 . S
C244 C277 1.448 . S
C245 H230 0.930 . S
C245 N241 1.334 1_556 S
C245 C243 1.390 . S
C246 C243 1.339 1_554 S
C246 C244 1.416 . S
C246 H253 0.930 . S
N247 Tb212 2.572 1_554 S
N247 C248 1.340 . S
N247 C250 1.361 . S
C248 H234 0.930 . S
C248 N247 1.340 . S
C248 C252 1.407 . S
C249 C250 1.413 . S
C249 C251 1.416 . S
C249 C278 1.427 . S
C250 C242 1.424 . S
C250 N247 1.361 . S
C250 C249 1.413 . S
C251 H240 0.931 . S
C251 C249 1.416 . S
C251 C252 1.332 . S
C252 H231 0.929 . S
C252 C248 1.407 . S
C252 C251 1.332 . S
H253 C246 0.930 . S
H254 C277 0.930 . S
H255 C278 0.929 . S
O256 Tb212 2.465 . S
O256 C276 1.264 . S
O257 Tb212 2.387 1_554 S
O257 C268 1.264 . S
O258 Tb223 2.349 . S
O258 C268 1.243 . S
O259 Tb212 2.427 . S
O259 C276 1.256 . S
O260 Tb212 2.308 1_554 S
O260 C275 1.266 . S
O261 Tb223 2.393 . S
O261 C275 1.248 . S
O262 Tb223 2.465 . S
O262 C287 1.264 . S
O263 Tb223 2.387 . S
O263 C279 1.264 1_554 S
O264 Tb212 2.349 . S
O264 C279 1.243 . S
O265 Tb223 2.428 . S
O265 C287 1.256 . S
O266 Tb223 2.308 . S
O266 C286 1.266 . S
O267 Tb212 2.393 1_554 S
O267 C286 1.248 . S
C268 O257 1.264 . S
C268 O258 1.243 . S
C269 C272 1.399 . S
C269 C274 1.383 . S
C269 C276 1.496 . S
C270 C271 1.399 . S
C270 C274 1.389 . S
C271 C270 1.399 . S
C271 C273 1.380 . S
C271 H288 0.929 . S
C272 C269 1.399 . S
C272 C273 1.392 . S
C272 H289 0.929 . S
C273 C271 1.380 . S
C273 C272 1.392 . S
C273 H290 0.929 . S
C274 C269 1.383 . S
C274 C270 1.389 . S
C274 H291 0.931 . S
C275 O260 1.266 . S
C275 O261 1.248 . S
C276 Tb212 2.802 . S
C276 O256 1.264 . S
C276 O259 1.256 . S
C276 C269 1.496 . S
C277 C244 1.448 . S
C277 H254 0.930 . S
C277 C278 1.328 . S
C278 C249 1.427 . S
C278 H255 0.929 . S
C278 C277 1.328 . S
C279 O263 1.264 1_556 S
C279 O264 1.243 . S
C280 C283 1.399 . S
C280 C284 1.383 . S
C280 C287 1.496 . S
C281 C282 1.399 . S
C281 C284 1.389 . S
C282 C281 1.399 . S
C282 C285 1.380 . S
C282 H292 0.929 . S
C283 C280 1.399 . S
C283 C285 1.392 . S
C283 H293 0.929 . S
C284 C280 1.383 . S
C284 C281 1.389 . S
C284 H294 0.931 . S
C285 C282 1.380 . S
C285 C283 1.392 . S
C285 H295 0.929 . S
C286 O266 1.266 . S
C286 O267 1.248 . S
C287 Tb223 2.802 . S
C287 O262 1.264 . S
C287 O265 1.256 . S
C287 C280 1.496 . S
H288 C271 0.929 . S
H289 C272 0.929 . S
H290 C273 0.929 . S
H291 C274 0.931 . S
H292 C282 0.929 . S
H293 C283 0.929 . S
H294 C284 0.931 . S
H295 C285 0.929 . S
C296 C297 1.363 . S
C296 C302 1.379 . S
C296 N304 1.356 . S
C297 C296 1.363 . S
C297 C303 1.363 . S
C298 C299 1.363 . S
C298 C303 1.379 . S
C298 N305 1.356 . S
C299 C298 1.363 . S
C299 C302 1.363 . S
N300 C302 1.356 . S
N300 H312 0.984 . S
N300 H313 0.985 . S
N301 C303 1.356 . S
N301 H306 0.984 . S
N301 H307 0.985 . S
C302 C296 1.379 . S
C302 C299 1.363 . S
C302 N300 1.356 . S
C303 C297 1.363 . S
C303 C298 1.379 . S
C303 N301 1.356 . S
N304 C296 1.356 . S
N304 H310 0.984 . S
N304 H311 0.984 . S
N305 C298 1.356 . S
N305 H308 0.984 . S
N305 H309 0.985 . S
H306 N301 0.984 . S
H307 N301 0.985 . S
H308 N305 0.984 . S
H309 N305 0.985 . S
H310 N304 0.984 . S
H311 N304 0.984 . S
H312 N300 0.984 . S
H313 N300 0.985 . S
C314 C315 1.363 . S
C314 C320 1.379 . S
C314 N322 1.356 . S
C315 C314 1.363 . S
C315 C321 1.346 1_554 S
C316 C317 1.350 1_556 S
C316 C321 1.378 . S
C316 N323 1.374 . S
C317 C316 1.350 1_554 S
C317 C320 1.363 . S
N318 C320 1.356 . S
N318 H330 0.984 . S
N318 H331 0.985 . S
N319 C321 1.364 . S
N319 H324 0.984 . S
N319 H325 0.985 . S
C320 C314 1.379 . S
C320 C317 1.363 . S
C320 N318 1.356 . S
C321 C315 1.346 1_556 S
C321 C316 1.378 . S
C321 N319 1.364 . S
N322 C314 1.356 . S
N322 H328 0.984 . S
N322 H329 0.984 . S
N323 C316 1.374 . S
N323 H326 0.984 . S
N323 H327 0.985 . S
H324 N319 0.984 . S
H325 N319 0.985 . S
H326 N323 0.984 . S
H327 N323 0.985 . S
H328 N322 0.984 . S
H329 N322 0.984 . S
H330 N318 0.984 . S
H331 N318 0.985 . S
C332 C333 1.363 . S
C332 C338 1.379 . S
C332 N340 1.356 . S
C333 C332 1.363 . S
C333 C339 1.363 . S
C334 C335 1.363 . S
C334 C339 1.379 . S
C334 N341 1.356 . S
C335 C334 1.363 . S
C335 C338 1.363 . S
N336 C338 1.356 . S
N336 H348 0.984 . S
N336 H349 0.985 . S
N337 C339 1.356 . S
N337 H342 0.984 . S
N337 H343 0.985 . S
C338 C332 1.379 . S
C338 C335 1.363 . S
C338 N336 1.356 . S
C339 C333 1.363 . S
C339 C334 1.379 . S
C339 N337 1.356 . S
N340 C332 1.356 . S
N340 H346 0.984 . S
N340 H347 0.984 . S
N341 C334 1.356 . S
N341 H344 0.984 . S
N341 H345 0.985 1_565 S
H342 N337 0.984 . S
H343 N337 0.985 . S
H344 N341 0.984 . S
H345 N341 0.985 1_545 S
H346 N340 0.984 . S
H347 N340 0.984 . S
H348 N336 0.984 . S
H349 N336 0.985 . S
C350 C351 1.363 . S
C350 C356 1.379 . S
C350 N358 1.356 1_554 S
C351 C350 1.363 . S
C351 C357 1.363 . S
C352 C353 1.363 . S
C352 C357 1.379 . S
C352 N359 1.356 . S
C353 C352 1.363 . S
C353 C356 1.363 . S
N354 C356 1.356 1_556 S
N354 H366 0.984 . S
N354 H367 0.985 . S
N355 C357 1.356 . S
N355 H360 0.984 . S
N355 H361 0.985 . S
C356 C350 1.379 . S
C356 C353 1.363 . S
C356 N354 1.356 1_554 S
C357 C351 1.363 . S
C357 C352 1.379 . S
C357 N355 1.356 . S
N358 C350 1.356 1_556 S
N358 H364 0.984 . S
N358 H365 0.984 . S
N359 C352 1.356 . S
N359 H362 0.984 . S
N359 H363 0.985 . S
H360 N355 0.984 . S
H361 N355 0.985 . S
H362 N359 0.984 . S
H363 N359 0.985 . S
H364 N358 0.984 . S
H365 N358 0.984 . S
H366 N354 0.984 . S
H367 N354 0.985 . S
C368 C369 1.363 . S
C368 C374 1.379 . S
C368 N376 1.356 . S
C369 C368 1.363 . S
C369 C375 1.363 . S
C370 C371 1.363 . S
C370 C375 1.379 . S
C370 N377 1.356 . S
C371 C370 1.363 . S
C371 C374 1.363 . S
N372 C374 1.356 . S
N372 H384 0.984 1_565 S
N372 H385 0.985 . S
N373 C375 1.356 . S
N373 H378 0.984 . S
N373 H379 0.985 . S
C374 C368 1.379 . S
C374 C371 1.363 . S
C374 N372 1.356 . S
C375 C369 1.363 . S
C375 C370 1.379 . S
C375 N373 1.356 . S
N376 C368 1.356 . S
N376 H382 0.984 . S
N376 H383 0.984 . S
N377 C370 1.356 . S
N377 H380 0.984 . S
N377 H381 0.985 . S
H378 N373 0.984 . S
H379 N373 0.985 . S
H380 N377 0.984 . S
H381 N377 0.985 . S
H382 N376 0.984 . S
H383 N376 0.984 . S
H384 N372 0.984 1_545 S
H385 N372 0.985 . S
C386 C387 1.363 . S
C386 C392 1.379 . S
C386 N394 1.356 . S
C387 C386 1.363 . S
C387 C393 1.363 . S
C388 C389 1.363 . S
C388 C393 1.379 . S
C388 N395 1.356 . S
C389 C388 1.363 . S
C389 C392 1.363 . S
N390 C392 1.356 . S
N390 H402 0.984 . S
N390 H403 0.985 . S
N391 C393 1.356 . S
N391 H396 0.984 . S
N391 H397 0.985 . S
C392 C386 1.379 . S
C392 C389 1.363 . S
C392 N390 1.356 . S
C393 C387 1.363 . S
C393 C388 1.379 . S
C393 N391 1.356 . S
N394 C386 1.356 . S
N394 H400 0.984 . S
N394 H401 0.984 . S
N395 C388 1.356 . S
N395 H398 0.984 . S
N395 H399 0.985 . S
H396 N391 0.984 . S
H397 N391 0.985 . S
H398 N395 0.984 . S
H399 N395 0.985 . S
H400 N394 0.984 . S
H401 N394 0.984 . S
H402 N390 0.984 . S
H403 N390 0.985 . S
C404 C405 1.363 . S
C404 C410 1.379 . S
C404 N412 1.356 1_545 S
C405 C404 1.363 . S
C405 C411 1.363 . S
C406 C407 1.363 . S
C406 C411 1.379 . S
C406 N413 1.356 . S
C407 C406 1.363 . S
C407 C410 1.363 . S
N408 C410 1.356 1_565 S
N408 H420 0.984 . S
N408 H421 0.985 . S
N409 C411 1.356 . S
N409 H414 0.984 . S
N409 H415 0.985 . S
C410 C404 1.379 . S
C410 C407 1.363 . S
C410 N408 1.356 1_545 S
C411 C405 1.363 . S
C411 C406 1.379 . S
C411 N409 1.356 . S
N412 C404 1.356 1_565 S
N412 H418 0.984 . S
N412 H419 0.984 1_565 S
N413 C406 1.356 . S
N413 H416 0.984 . S
N413 H417 0.985 . S
H414 N409 0.984 . S
H415 N409 0.985 . S
H416 N413 0.984 . S
H417 N413 0.985 . S
H418 N412 0.984 . S
H419 N412 0.984 1_545 S
H420 N408 0.984 . S
H421 N408 0.985 . S
C422 C423 1.363 . S
C422 C428 1.379 . S
C422 N430 1.356 . S
C423 C422 1.363 . S
C423 C429 1.363 . S
C424 C425 1.363 . S
C424 C429 1.379 . S
C424 N431 1.356 . S
C425 C424 1.363 . S
C425 C428 1.363 . S
N426 C428 1.356 . S
N426 H438 0.984 . S
N426 H439 0.985 . S
N427 C429 1.356 . S
N427 H432 0.984 . S
N427 H433 0.985 . S
C428 C422 1.379 . S
C428 C425 1.363 . S
C428 N426 1.356 . S
C429 C423 1.363 . S
C429 C424 1.379 . S
C429 N427 1.356 . S
N430 C422 1.356 . S
N430 H436 0.984 . S
N430 H437 0.984 . S
N431 C424 1.356 . S
N431 H434 0.984 . S
N431 H435 0.985 . S
H432 N427 0.984 . S
H433 N427 0.985 . S
H434 N431 0.984 . S
H435 N431 0.985 . S
H436 N430 0.984 . S
H437 N430 0.984 . S
H438 N426 0.984 . S
H439 N426 0.985 . S
C440 C441 1.363 . S
C440 C446 1.379 . S
C440 N448 1.356 . S
C441 C440 1.363 . S
C441 C447 1.363 . S
C442 C443 1.363 . S
C442 C447 1.379 . S
C442 N449 1.356 . S
C443 C442 1.363 . S
C443 C446 1.363 . S
N444 C446 1.356 . S
N444 H456 0.984 . S
N444 H457 0.985 . S
N445 C447 1.356 . S
N445 H450 0.984 . S
N445 H451 0.985 . S
C446 C440 1.379 . S
C446 C443 1.363 . S
C446 N444 1.356 . S
C447 C441 1.363 . S
C447 C442 1.379 . S
C447 N445 1.356 . S
N448 C440 1.356 . S
N448 H454 0.984 . S
N448 H455 0.984 . S
N449 C442 1.356 . S
N449 H452 0.984 . S
N449 H453 0.985 . S
H450 N445 0.984 . S
H451 N445 0.985 . S
H452 N449 0.984 . S
H453 N449 0.985 . S
H454 N448 0.984 . S
H455 N448 0.984 . S
H456 N444 0.984 . S
H457 N444 0.985 . S
C458 C459 1.363 . S
C458 C464 1.379 . S
C458 N466 1.356 . S
C459 C458 1.363 . S
C459 C465 1.363 . S
C460 C461 1.363 . S
C460 C465 1.379 . S
C460 N467 1.356 . S
C461 C460 1.363 . S
C461 C464 1.363 . S
N462 C464 1.356 . S
N462 H474 0.984 . S
N462 H475 0.985 . S
N463 C465 1.356 . S
N463 H468 0.984 . S
N463 H469 0.985 . S
C464 C458 1.379 . S
C464 C461 1.363 . S
C464 N462 1.356 . S
C465 C459 1.363 . S
C465 C460 1.379 . S
C465 N463 1.356 . S
N466 C458 1.356 . S
N466 H472 0.984 . S
N466 H473 0.984 . S
N467 C460 1.356 . S
N467 H470 0.984 . S
N467 H471 0.985 . S
H468 N463 0.984 . S
H469 N463 0.985 . S
H470 N467 0.984 . S
H471 N467 0.985 . S
H472 N466 0.984 . S
H473 N466 0.984 . S
H474 N462 0.984 . S
H475 N462 0.985 . S
C476 C477 1.363 . S
C476 C482 1.379 . S
C476 N484 1.356 . S
C477 C476 1.363 . S
C477 C483 1.363 . S
C478 C479 1.363 . S
C478 C483 1.379 . S
C478 N485 1.356 . S
C479 C478 1.363 . S
C479 C482 1.363 . S
N480 C482 1.356 . S
N480 H492 0.984 . S
N480 H493 0.985 . S
N481 C483 1.356 . S
N481 H486 0.984 . S
N481 H487 0.985 . S
C482 C476 1.379 . S
C482 C479 1.363 . S
C482 N480 1.356 . S
C483 C477 1.363 . S
C483 C478 1.379 . S
C483 N481 1.356 . S
N484 C476 1.356 . S
N484 H490 0.984 . S
N484 H491 0.984 . S
N485 C478 1.356 . S
N485 H488 0.984 . S
N485 H489 0.985 . S
H486 N481 0.984 . S
H487 N481 0.985 . S
H488 N485 0.984 . S
H489 N485 0.985 . S
H490 N484 0.984 . S
H491 N484 0.984 . S
H492 N480 0.984 . S
H493 N480 0.985 . S
C494 C495 1.363 . S
C494 C500 1.379 . S
C494 N502 1.356 . S
C495 C494 1.363 . S
C495 C501 1.363 . S
C496 C497 1.363 . S
C496 C501 1.379 . S
C496 N503 1.356 1_565 S
C497 C496 1.363 . S
C497 C500 1.363 . S
N498 C500 1.356 . S
N498 H510 0.984 . S
N498 H511 0.985 . S
N499 C501 1.356 1_545 S
N499 H504 0.984 1_545 S
N499 H505 0.985 . S
C500 C494 1.379 . S
C500 C497 1.363 . S
C500 N498 1.356 . S
C501 C495 1.363 . S
C501 C496 1.379 . S
C501 N499 1.356 1_565 S
N502 C494 1.356 . S
N502 H508 0.984 . S
N502 H509 0.984 . S
N503 C496 1.356 1_545 S
N503 H506 0.984 . S
N503 H507 0.985 . S
H504 N499 0.984 1_565 S
H505 N499 0.985 . S
H506 N503 0.984 . S
H507 N503 0.985 . S
H508 N502 0.984 . S
H509 N502 0.984 . S
H510 N498 0.984 . S
H511 N498 0.985 . S
C299 C191 1.652 . S
C297 C119 1.634 . S
C315 C23 1.639 . S
C317 C286 1.620 . S
C333 C55 1.564 . S
C335 C202 1.652 . S
C351 C87 1.524 . S
C353 C275 1.620 . S
C371 C186 1.397 . S
C369 C17 1.538 . S
C389 C279 1.618 . S
C387 C61 1.535 . S
C405 C93 1.494 . S
C407 C195 1.633 . S
C423 C113 1.517 . S
C425 C270 1.401 . S
C443 C281 1.401 . S
C441 C49 1.487 . S
C461 C197 1.397 . S
C459 C81 1.490 . S
C479 C268 1.618 . S
C477 C125 1.609 . S
C495 C29 1.634 . S
C497 C184 1.633 . S
