# Generated by pormake.
# Topology sit, (3,6)-cn, num edge types: 1
# Building blocks:
#     Node 0, Type 0, BuildingBlock: BELTOD_clean_linker_0, # of connection points: 3
#     Node 1, Type 0, BuildingBlock: BELTOD_clean_linker_0, # of connection points: 3
#     Node 2, Type 0, BuildingBlock: BELTOD_clean_linker_0, # of connection points: 3
#     Node 3, Type 0, BuildingBlock: BELTOD_clean_linker_0, # of connection points: 3
#     Node 4, Type 1, BuildingBlock: MIDCAF_clean_sbu_0, # of connection points: 6
#     Node 5, Type 1, BuildingBlock: MIDCAF_clean_sbu_0, # of connection points: 6
#     Edge 6, Type (0, 1), BuildingBlock: XIVTED_clean_linker_0, # of connection points: 2
#     Edge 7, Type (0, 1), BuildingBlock: XIVTED_clean_linker_0, # of connection points: 2
#     Edge 8, Type (0, 1), BuildingBlock: XIVTED_clean_linker_0, # of connection points: 2
#     Edge 9, Type (0, 1), BuildingBlock: XIVTED_clean_linker_0, # of connection points: 2
#     Edge 10, Type (0, 1), BuildingBlock: XIVTED_clean_linker_0, # of connection points: 2
#     Edge 11, Type (0, 1), BuildingBlock: XIVTED_clean_linker_0, # of connection points: 2
#     Edge 12, Type (0, 1), BuildingBlock: XIVTED_clean_linker_0, # of connection points: 2
#     Edge 13, Type (0, 1), BuildingBlock: XIVTED_clean_linker_0, # of connection points: 2
#     Edge 14, Type (0, 1), BuildingBlock: XIVTED_clean_linker_0, # of connection points: 2
#     Edge 15, Type (0, 1), BuildingBlock: XIVTED_clean_linker_0, # of connection points: 2
#     Edge 16, Type (0, 1), BuildingBlock: XIVTED_clean_linker_0, # of connection points: 2
#     Edge 17, Type (0, 1), BuildingBlock: XIVTED_clean_linker_0, # of connection points: 2
# Relax obj value: 0.105
# Max RMSD: 0.192
# Mean RMSD: 0.101
data_MOF--net-sit--node1-MIDCAF_clean_sbu_0--node2-BELTOD_clean_linker_0--edge1-XIVTED_clean_linker_0
_symmetry_space_group_name_H-M    P1
_symmetry_Int_Tables_number       1
_symmetry_cell_setting            triclinic
loop_
_symmetry_equiv_pos_as_xyz
'x, y, z'
_cell_length_a     26.782635
_cell_length_b     35.665808
_cell_length_c     41.124124
_cell_angle_alpha  90.096756
_cell_angle_beta   90.009056
_cell_angle_gamma 82.568098
loop_
_atom_site_label
_atom_site_type_symbol
_atom_site_fract_x
_atom_site_fract_y
_atom_site_fract_z
_atom_type_partial_charge
P0 P 0.09364 0.26353 0.96844 0.0
H1 H 0.19252 0.24491 0.9378 0.0
H2 H 0.26562 0.27935 0.93563 0.0
H3 H 0.19594 0.35927 0.0063 0.0
H4 H 0.1231 0.32427 0.0088 0.0
H5 H 0.10796 0.18255 0.98249 0.0
H6 H 0.09085 0.14604 0.03066 0.0
H7 H 0.0385 0.24989 0.08142 0.0
H8 H 0.05546 0.28613 0.03314 0.0
H9 H 0.0951 0.33604 0.93585 0.0
H10 H -0.01502 0.27626 0.9828 0.0
O11 O 0.09641 0.23523 0.93595 0.0
H12 H 0.03098 0.38933 0.92566 0.0
H13 H 0.9197 0.32908 0.97132 0.0
C14 C 0.15224 0.28241 0.97311 0.0
C15 C 0.19352 0.26921 0.95349 0.0
C16 C 0.23531 0.28887 0.95232 0.0
C17 C 0.23603 0.3222 0.97053 0.0
C18 C 0.19601 0.33387 -0.00819 0.0
C19 C 0.15463 0.3138 -0.00662 0.0
C20 C 0.08178 0.23695 0.00407 0.0
C21 C 0.09259 0.19742 0.00396 0.0
C22 C 0.08312 0.1766 0.03155 0.0
C23 C 0.06276 0.19507 0.05968 0.0
C24 C 0.05321 0.23481 0.05988 0.0
C25 C 0.06303 0.25557 0.03237 0.0
C26 C 0.04525 0.30264 0.96114 0.0
C27 C 0.05716 0.3345 0.94434 0.0
C28 C 0.02023 0.36492 0.93819 0.0
C29 C 0.97015 0.36373 0.94789 0.0
C30 C 0.95812 0.3314 0.96426 0.0
C31 C -0.00464 0.30103 0.97067 0.0
P32 P 0.01937 0.68161 0.08302 0.0
H33 H 0.10514 0.62506 0.09991 0.0
H34 H 0.17385 0.59229 0.06747 0.0
H35 H 0.12077 0.65939 0.98389 0.0
H36 H 0.05128 0.6909 0.01623 0.0
H37 H 0.95397 0.73546 0.12161 0.0
H38 H 0.95697 0.80127 0.13673 0.0
H39 H 0.08726 0.80368 0.07503 0.0
H40 H 0.08504 0.73746 0.06109 0.0
H41 H 0.97697 0.61245 0.07018 0.0
H42 H 0.94497 0.73004 0.04362 0.0
O43 O 0.01772 0.66005 0.11892 0.0
H44 H 0.90805 0.59754 0.03539 0.0
H45 H 0.87584 0.71536 0.00892 0.0
C46 C 0.0733 0.66048 0.06044 0.0
C47 C 0.10851 0.63283 0.07465 0.0
C48 C 0.14788 0.61414 0.05606 0.0
C49 C 0.15267 0.6229 0.02295 0.0
C50 C 0.11767 0.65126 0.00909 0.0
C51 C 0.07824 0.66967 0.02762 0.0
C52 C 0.01951 0.7314 0.09055 0.0
C53 C -0.01709 0.75031 0.11114 0.0
C54 C -0.01562 0.78815 0.11946 0.0
C55 C 0.02249 0.80794 0.10718 0.0
C56 C 0.05782 0.78923 0.08533 0.0
C57 C 0.05645 0.75127 0.07718 0.0
C58 C 0.96531 0.6724 0.05999 0.0
C59 C 0.95461 0.63512 0.05719 0.0
C60 C 0.91561 0.62659 0.03709 0.0
C61 C 0.88661 0.6553 0.01947 0.0
C62 C 0.89721 0.69276 0.02254 0.0
C63 C 0.93662 0.70119 0.04243 0.0
P64 P 0.57742 0.7609 0.46688 0.0
H65 H 0.68004 0.74026 0.44296 0.0
H66 H 0.75044 0.77685 0.43548 0.0
H67 H 0.66398 0.87334 0.48126 0.0
H68 H 0.59402 0.83669 0.48878 0.0
H69 H 0.54796 0.68651 0.48083 0.0
H70 H 0.53945 0.65218 0.53166 0.0
H71 H 0.59182 0.74367 0.58535 0.0
H72 H 0.60091 0.77763 0.53446 0.0
H73 H 0.52963 0.79702 0.40977 0.0
H74 H 0.50701 0.80253 0.51356 0.0
O75 O 0.58045 0.73105 0.43542 0.0
H76 H 0.46249 0.84934 0.40252 0.0
H77 H 0.44095 0.85579 0.50669 0.0
C78 C 0.63143 0.78601 0.46567 0.0
C79 C 0.67648 0.76915 0.45168 0.0
C80 C 0.71672 0.79004 0.44757 0.0
C81 C 0.71237 0.82812 0.45743 0.0
C82 C 0.668 0.84429 0.47289 0.0
C83 C 0.62801 0.82329 0.47722 0.0
C84 C 0.57543 0.73446 0.50392 0.0
C85 C 0.55838 0.6989 0.50349 0.0
C86 C 0.55364 0.67926 0.53249 0.0
C87 C 0.56495 0.69531 0.56236 0.0
C88 C 0.58263 0.73076 0.56263 0.0
C89 C 0.58802 0.7501 0.5336 0.0
C90 C 0.52257 0.79528 0.46208 0.0
C91 C 0.50971 0.80918 0.43099 0.0
C92 C 0.47189 0.83959 0.42696 0.0
C93 C 0.44664 0.85714 0.45408 0.0
C94 C 0.45927 0.84277 0.48527 0.0
C95 C 0.497 0.81215 0.48923 0.0
P96 P 0.51077 0.18219 0.58104 0.0
H97 H 0.59777 0.12578 0.59564 0.0
H98 H 0.66507 0.09398 0.56158 0.0
H99 H 0.60822 0.16316 0.48001 0.0
H100 H 0.5399 0.19346 0.51391 0.0
H101 H 0.45196 0.23224 0.62625 0.0
H102 H 0.45417 0.29777 0.64236 0.0
H103 H 0.56973 0.3074 0.57051 0.0
H104 H 0.56861 0.24134 0.55555 0.0
H105 H 0.46684 0.1138 0.56763 0.0
H106 H 0.43619 0.23204 0.54298 0.0
O107 O 0.51034 0.15898 0.61623 0.0
H108 H 0.39712 0.10024 0.53297 0.0
H109 H 0.36639 0.21868 0.50827 0.0
C110 C 0.56405 0.16211 0.5573 0.0
C111 C 0.60001 0.13422 0.57047 0.0
C112 C 0.63862 0.1161 0.55095 0.0
C113 C 0.64197 0.1257 0.5179 0.0
C114 C 0.60627 0.15434 0.5051 0.0
C115 C 0.56752 0.17212 0.52456 0.0
C116 C 0.51066 0.23166 0.59015 0.0
C117 C 0.47763 0.24855 0.61389 0.0
C118 C 0.47852 0.28628 0.62278 0.0
C119 C 0.51226 0.30807 0.60782 0.0
C120 C 0.54381 0.29139 0.58293 0.0
C121 C 0.54307 0.2535 0.57422 0.0
C122 C 0.45594 0.17396 0.55837 0.0
C123 C 0.44458 0.1369 0.55511 0.0
C124 C 0.40512 0.12915 0.53507 0.0
C125 C 0.37635 0.15841 0.51792 0.0
C126 C 0.38753 0.19566 0.52152 0.0
C127 C 0.42736 0.20332 0.5414 0.0
Zn128 Zn 0.00133 0.10511 0.34302 0.0
Zn129 Zn 0.07739 0.96069 0.33797 0.0
Zn130 Zn 0.03971 0.03193 0.34025 0.0
C131 C 0.06343 0.9834 0.27397 0.0
C132 C -0.01385 0.96354 0.37056 0.0
O133 O 0.09418 0.06251 0.36619 0.0
O134 O 0.05627 0.12138 0.37031 0.0
C135 C 0.01599 0.08641 0.27742 0.0
O136 O 0.04525 0.01443 0.2882 0.0
O137 O 0.08182 0.95515 0.29043 0.0
O138 O 0.02282 0.94006 0.36146 0.0
O139 O -0.0144 0.99908 0.36463 0.0
O140 O 0.00077 0.11405 0.29564 0.0
O141 O 0.03143 0.05372 0.28972 0.0
O142 O 0.96743 0.03774 0.36764 0.0
O143 O 0.93704 0.09843 0.36405 0.0
C144 C 0.93276 0.06547 0.37372 0.0
O145 O 0.11405 0.02392 0.3659 0.0
O146 O 0.13981 0.96251 0.3618 0.0
C147 C 0.09361 0.09688 0.37615 0.0
C148 C 0.14665 0.99483 0.37178 0.0
Zn149 Zn 0.51 0.60028 0.84799 0.0
Zn150 Zn 0.58407 0.45785 0.83706 0.0
Zn151 Zn 0.54724 0.52851 0.84231 0.0
C152 C 0.55896 0.48139 0.77461 0.0
C153 C 0.50004 0.45952 0.87663 0.0
O154 O 0.60392 0.55781 0.86778 0.0
O155 O 0.5645 0.61557 0.87591 0.0
C156 C 0.52179 0.58602 0.78172 0.0
O157 O 0.54667 0.51296 0.78971 0.0
O158 O 0.57616 0.45202 0.79002 0.0
O159 O 0.53689 0.43676 0.8667 0.0
O160 O 0.49636 0.49484 0.869 0.0
O161 O 0.50925 0.61276 0.80141 0.0
O162 O 0.53581 0.55229 0.79239 0.0
O163 O 0.47665 0.53323 0.87154 0.0
O164 O 0.44542 0.59376 0.86849 0.0
C165 C 0.4418 0.56067 0.87804 0.0
O166 O 0.62427 0.51963 0.86421 0.0
O167 O 0.6522 0.45985 0.85285 0.0
C168 C 0.60288 0.5914 0.87967 0.0
C169 C 0.65924 0.49115 0.865 0.0
H170 H -0.02145 0.20602 0.0976 0.0
H171 H 0.08485 0.05481 0.2323 0.0
H172 H 0.12018 0.13408 0.08768 0.0
H173 H 0.95033 0.13453 0.24264 0.0
H174 H 0.09218 0.07537 0.17568 0.0
H175 H 0.96197 0.17283 0.14739 0.0
C176 C 0.0062 0.1832 0.10595 0.0
C177 C 0.05114 0.17319 0.08875 0.0
C178 C 0.06065 0.0879 0.19023 0.0
C179 C 0.03235 0.13477 0.1458 0.0
C180 C 0.05619 0.07587 0.22238 0.0
C181 C 0.017 0.09309 0.24207 0.0
C182 C 0.02561 0.11727 0.17794 0.0
C183 C -0.0186 0.12081 0.22832 0.0
C184 C -0.00339 0.16407 0.1343 0.0
C185 C 0.08506 0.14274 0.10025 0.0
N186 N -0.01323 0.13221 0.19724 0.0
N187 N 0.07523 0.12483 0.12829 0.0
H188 H 0.94843 0.86661 0.12245 0.0
H189 H 0.13933 0.96012 0.2325 0.0
H190 H 0.10991 0.83686 0.12152 0.0
H191 H -0.0212 0.99182 0.23642 0.0
H192 H 0.13001 0.92883 0.18049 0.0
H193 H 0.9591 0.92369 0.15338 0.0
C194 C -0.01384 0.87227 0.12832 0.0
C195 C 0.02826 0.84629 0.11994 0.0
C196 C 0.09677 0.94342 0.19214 0.0
C197 C 0.04071 0.91184 0.1551 0.0
C198 C 0.10223 0.9616 0.22168 0.0
C199 C 0.05971 0.97815 0.23868 0.0
C200 C 0.04824 0.94072 0.18011 0.0
C201 C 0.01243 0.97924 0.2239 0.0
C202 C -0.00779 0.90505 0.14579 0.0
C203 C 0.07623 0.85581 0.12741 0.0
N204 N 0.00772 0.95976 0.19579 0.0
N205 N 0.08104 0.8874 0.14498 0.0
H206 H 0.51404 0.72636 0.61497 0.0
H207 H 0.58099 0.55088 0.73271 0.0
H208 H 0.59364 0.62125 0.57985 0.0
H209 H 0.46357 0.64308 0.7514 0.0
H210 H 0.58775 0.57414 0.67682 0.0
H211 H 0.49855 0.6957 0.66621 0.0
C212 C 0.52843 0.69678 0.61818 0.0
C213 C 0.55547 0.67636 0.59333 0.0
C214 C 0.55998 0.58881 0.69308 0.0
C215 C 0.53769 0.64084 0.65193 0.0
C216 C 0.55576 0.57533 0.72482 0.0
C217 C 0.52169 0.59508 0.74669 0.0
C218 C 0.53033 0.62245 0.68355 0.0
C219 C 0.49077 0.62721 0.73547 0.0
C220 C 0.51923 0.67915 0.64731 0.0
C221 C 0.57258 0.63791 0.59851 0.0
N222 N 0.49621 0.64006 0.70488 0.0
N223 N 0.56383 0.62138 0.62744 0.0
H224 H 0.59891 0.34088 0.61472 0.0
H225 H 0.47071 0.4913 0.74068 0.0
H226 H 0.43833 0.36326 0.63022 0.0
H227 H 0.63038 0.45902 0.72998 0.0
H228 H 0.4572 0.46004 0.6887 0.0
H229 H 0.60931 0.3983 0.64444 0.0
C230 C 0.56558 0.35823 0.62367 0.0
C231 C 0.51771 0.34654 0.62049 0.0
C232 C 0.49532 0.46089 0.69717 0.0
C233 C 0.52971 0.4122 0.65557 0.0
C234 C 0.50299 0.47912 0.7266 0.0
C235 C 0.55164 0.47732 0.73948 0.0
C236 C 0.53671 0.44081 0.6809 0.0
C237 C 0.59228 0.46075 0.72075 0.0
C238 C 0.57165 0.39104 0.64092 0.0
C239 C 0.47616 0.37041 0.63296 0.0
N240 N 0.58388 0.44255 0.69268 0.0
N241 N 0.4832 0.4017 0.65047 0.0
H242 H 0.2239 0.39786 0.95781 0.0
H243 H 0.51571 0.40242 0.92026 0.0
H244 H 0.33798 0.30165 0.96867 0.0
H245 H 0.39788 0.48105 0.87791 0.0
H246 H 0.4522 0.37246 0.94957 0.0
H247 H 0.28894 0.43596 0.94035 0.0
C248 C 0.26281 0.385 0.95715 0.0
C249 C 0.27574 0.34656 0.96455 0.0
C250 C 0.44025 0.39665 0.93427 0.0
C251 C 0.34988 0.38975 0.94448 0.0
C252 C 0.4764 0.41376 0.91756 0.0
C253 C 0.46191 0.44456 0.89697 0.0
C254 C 0.38915 0.41033 0.93029 0.0
C255 C 0.4106 0.45813 0.8943 0.0
C256 C 0.29973 0.40664 0.94695 0.0
C257 C 0.32651 0.33111 0.9629 0.0
N258 N 0.37588 0.44078 0.91068 0.0
N259 N 0.36175 0.35274 0.95292 0.0
H260 H 0.88933 0.59716 0.97568 0.0
H261 H 0.59774 0.63964 0.93107 0.0
H262 H 0.79107 0.69244 0.01393 0.0
H263 H 0.70386 0.56845 0.87192 0.0
H264 H 0.66724 0.6559 0.9645 0.0
H265 H 0.82073 0.58186 0.94067 0.0
C266 C 0.85325 0.61479 0.97674 0.0
C267 C 0.84576 0.64608 -0.00225 0.0
C268 C 0.67539 0.63653 0.94432 0.0
C269 C 0.76739 0.62884 0.9578 0.0
C270 C 0.63578 0.62726 0.92523 0.0
C271 C 0.64511 0.60171 0.89932 0.0
C272 C 0.72475 0.62011 0.93746 0.0
C273 C 0.69501 0.58674 0.89264 0.0
C274 C 0.8143 0.6062 0.95663 0.0
C275 C 0.79853 0.66825 -0.0021 0.0
N276 N 0.73308 0.59595 0.91174 0.0
N277 N 0.76104 0.65908 0.97836 0.0
H278 H 0.96098 0.40473 0.89143 0.0
H279 H 0.67999 0.49449 0.92964 0.0
H280 H 0.88792 0.39403 0.98395 0.0
H281 H 0.74874 0.48882 0.83484 0.0
H282 H 0.76304 0.47467 0.954 0.0
H283 H 0.89133 0.45131 0.87491 0.0
C284 C 0.93076 0.41263 0.90858 0.0
C285 C 0.93015 0.39495 0.93904 0.0
C286 C 0.76019 0.47888 0.92796 0.0
C287 C 0.84932 0.44795 0.91981 0.0
C288 C 0.71301 0.49056 0.91417 0.0
C289 C 0.70808 0.49316 0.88033 0.0
C290 C 0.80212 0.46957 0.90754 0.0
C291 C 0.75141 0.48714 0.86109 0.0
C292 C 0.89075 0.43918 0.89901 0.0
C293 C 0.88943 0.4062 0.95994 0.0
N294 N 0.79659 0.47511 0.87492 0.0
N295 N 0.8503 0.43162 0.94978 0.0
H296 H 0.25109 0.59993 0.04055 0.0
H297 H 0.34439 0.57557 0.86016 0.0
H298 H 0.14871 0.59993 0.95941 0.0
H299 H 0.43961 0.53537 0.94052 0.0
H300 H 0.27122 0.58042 0.8961 0.0
H301 H 0.31986 0.57254 0.00532 0.0
C302 C 0.24282 0.59368 0.01549 0.0
C303 C 0.19406 0.60296 0.00282 0.0
C304 C 0.30785 0.56973 0.90585 0.0
C305 C 0.27285 0.57208 0.9623 0.0
C306 C 0.34948 0.56689 0.88531 0.0
C307 C 0.39764 0.555 0.89757 0.0
C308 C 0.31477 0.56183 0.93912 0.0
C309 C 0.40277 0.54445 0.93031 0.0
C310 C 0.28218 0.57805 -0.00461 0.0
C311 C 0.18588 0.59438 0.97005 0.0
N312 N 0.36183 0.54882 0.95023 0.0
N313 N 0.22495 0.57994 0.95086 0.0
H314 H 0.81397 0.80934 0.46523 0.0
H315 H 0.88477 0.98803 0.36724 0.0
H316 H 0.70276 0.89962 0.43222 0.0
H317 H -0.00623 0.90497 0.41275 0.0
H318 H 0.81709 0.95901 0.3936 0.0
H319 H 0.88034 0.84609 0.44841 0.0
C320 C 0.80359 0.837 0.45456 0.0
C321 C 0.75288 0.85138 0.44994 0.0
C322 C 0.85586 0.94747 0.39817 0.0
C323 C 0.82853 0.89364 0.4305 0.0
C324 C 0.8944 0.96431 0.38343 0.0
C325 C 0.94476 0.94915 0.38822 0.0
C326 C 0.86801 0.91493 0.41734 0.0
C327 C 0.95532 0.91746 0.40838 0.0
C328 C 0.84143 0.85808 0.44508 0.0
C329 C 0.74145 0.8876 0.43639 0.0
N330 N 0.91731 0.90128 0.42202 0.0
N331 N 0.779 0.90736 0.42683 0.0
H332 H 0.37844 0.10082 0.47369 0.0
H333 H 0.08827 0.14788 0.42574 0.0
H334 H 0.28133 0.19666 0.51203 0.0
H335 H 0.19394 0.07223 0.37009 0.0
H336 H 0.15755 0.16397 0.45962 0.0
H337 H 0.31007 0.08665 0.43813 0.0
C338 C 0.34264 0.11881 0.47468 0.0
C339 C 0.33544 0.14991 0.4959 0.0
C340 C 0.16565 0.14368 0.4401 0.0
C341 C 0.25724 0.13401 0.45518 0.0
C342 C 0.12618 0.13455 0.42076 0.0
C343 C 0.13548 0.10773 0.3958 0.0
C344 C 0.21476 0.12587 0.43439 0.0
C345 C 0.18516 0.09154 0.39014 0.0
C346 C 0.30379 0.11087 0.45422 0.0
C347 C 0.28856 0.17259 0.49587 0.0
N348 N 0.22302 0.10064 0.40944 0.0
N349 N 0.25113 0.16407 0.47594 0.0
H350 H 0.35703 0.87329 0.48693 0.0
H351 H 0.23835 1.00481 0.34855 0.0
H352 H 0.44555 0.91599 0.411 0.0
H353 H 0.15887 0.98543 0.43662 0.0
H354 H 0.31799 0.98315 0.37572 0.0
H355 H 0.28798 0.92256 0.47418 0.0
C356 C 0.36237 0.8934 0.46796 0.0
C357 C 0.40683 0.88984 0.4495 0.0
C358 C 0.28341 0.9848 0.38958 0.0
C359 C 0.32744 0.9461 0.43442 0.0
C360 C 0.23806 0.99758 0.37413 0.0
C361 C 0.19244 0.99725 0.39062 0.0
C362 C 0.28268 0.97016 0.42128 0.0
C363 C 0.19359 0.98652 0.42336 0.0
C364 C 0.32281 0.92159 0.46065 0.0
C365 C 0.41135 0.91679 0.42515 0.0
N366 N 0.23798 0.97252 0.43747 0.0
N367 N 0.37187 0.94334 0.41796 0.0
H368 H 0.63552 0.10526 0.45379 0.0
H369 H 0.92939 0.03353 0.43389 0.0
H370 H 0.74084 0.10111 0.53368 0.0
H371 H 0.83558 0.08737 0.35778 0.0
H372 H 0.85533 0.0386 0.47 0.0
H373 H 0.70426 0.0797 0.41795 0.0
C374 C 0.673 0.09895 0.46388 0.0
C375 C 0.68247 0.10627 0.49674 0.0
C376 C 0.85094 0.04855 0.44517 0.0
C377 C 0.76103 0.07594 0.45587 0.0
C378 C 0.8929 0.04543 0.42461 0.0
C379 C 0.88816 0.06024 0.39306 0.0
C380 C 0.80426 0.06616 0.43374 0.0
C381 C 0.84049 0.07577 0.38206 0.0
C382 C 0.71209 0.08403 0.44342 0.0
C383 C 0.73163 0.09607 0.50857 0.0
N384 N 0.80036 0.07851 0.40243 0.0
N385 N 0.7692 0.08175 0.48807 0.0
loop_
_geom_bond_atom_site_label_1
_geom_bond_atom_site_label_2
_geom_bond_distance
_geom_bond_site_symmetry_2
_ccdc_geom_bond_type
P0 O11 1.490 . S
P0 C14 1.812 . S
P0 C20 1.803 1_556 S
P0 C26 1.819 . S
H1 C15 0.941 . S
H2 C16 0.939 . S
H3 C18 0.940 1_554 S
H4 C19 0.933 1_554 S
H5 C21 0.939 . S
H6 C22 0.942 . S
H7 C24 0.940 . S
H8 C25 0.939 . S
H9 C27 0.941 . S
H10 C31 0.939 . S
O11 P0 1.490 . S
H12 C28 0.939 . S
H13 C30 0.940 . S
C14 P0 1.812 . S
C14 C15 1.389 . S
C14 C19 1.396 . S
C15 H1 0.941 . S
C15 C14 1.389 . S
C15 C16 1.397 . S
C16 H2 0.939 . S
C16 C15 1.397 . S
C16 C17 1.378 . S
C17 C16 1.378 . S
C17 C18 1.378 . S
C18 H3 0.940 1_556 S
C18 C17 1.378 . S
C18 C19 1.399 . S
C19 H4 0.933 1_556 S
C19 C14 1.396 . S
C19 C18 1.399 . S
C20 P0 1.803 1_554 S
C20 C21 1.378 . S
C20 C25 1.400 . S
C21 H5 0.939 . S
C21 C20 1.378 . S
C21 C22 1.361 . S
C22 H6 0.942 . S
C22 C21 1.361 . S
C22 C23 1.369 . S
C23 C22 1.369 . S
C23 C24 1.404 . S
C24 H7 0.940 . S
C24 C23 1.404 . S
C24 C25 1.389 . S
C25 H8 0.939 . S
C25 C20 1.400 . S
C25 C24 1.389 . S
C26 P0 1.819 . S
C26 C27 1.391 . S
C26 C31 1.391 1_556 S
C27 H9 0.941 . S
C27 C26 1.391 . S
C27 C28 1.396 . S
C28 H12 0.939 . S
C28 C27 1.396 . S
C28 C29 1.397 1_455 S
C29 C28 1.397 1_655 S
C29 C30 1.385 1_556 S
C30 H13 0.940 . S
C30 C29 1.385 1_554 S
C30 C31 1.388 1_655 S
C31 H10 0.939 . S
C31 C26 1.391 1_554 S
C31 C30 1.388 1_455 S
P32 O43 1.490 . S
P32 C46 1.812 . S
P32 C52 1.803 . S
P32 C58 1.819 1_455 S
H33 C47 0.941 . S
H34 C48 0.939 . S
H35 C50 0.940 . S
H36 C51 0.940 . S
H37 C53 0.939 . S
H38 C54 0.942 . S
H39 C56 0.940 . S
H40 C57 0.939 . S
H41 C59 0.941 . S
H42 C63 0.939 . S
O43 P32 1.490 . S
H44 C60 0.946 . S
H45 C62 0.940 . S
C46 P32 1.812 . S
C46 C47 1.389 . S
C46 C51 1.391 1_554 S
C47 H33 0.941 . S
C47 C46 1.389 . S
C47 C48 1.397 . S
C48 H34 0.939 . S
C48 C47 1.397 . S
C48 C49 1.378 1_554 S
C49 C48 1.378 1_556 S
C49 C50 1.378 . S
C50 H35 0.940 . S
C50 C49 1.378 . S
C50 C51 1.396 . S
C51 H36 0.940 . S
C51 C46 1.391 1_556 S
C51 C50 1.396 . S
C52 P32 1.803 . S
C52 C53 1.378 1_455 S
C52 C57 1.400 . S
C53 H37 0.939 . S
C53 C52 1.378 1_655 S
C53 C54 1.361 . S
C54 H38 0.942 . S
C54 C53 1.361 . S
C54 C55 1.364 1_655 S
C55 C54 1.364 1_455 S
C55 C56 1.409 . S
C56 H39 0.940 . S
C56 C55 1.409 . S
C56 C57 1.389 . S
C57 H40 0.939 . S
C57 C52 1.400 . S
C57 C56 1.389 . S
C58 P32 1.819 1_655 S
C58 C59 1.391 . S
C58 C63 1.391 . S
C59 H41 0.941 . S
C59 C58 1.391 . S
C59 C60 1.387 1_554 S
C60 H44 0.946 . S
C60 C59 1.387 1_556 S
C60 C61 1.400 . S
C61 C60 1.400 . S
C61 C62 1.385 1_556 S
C62 H45 0.940 . S
C62 C61 1.385 1_554 S
C62 C63 1.388 . S
C63 H42 0.939 . S
C63 C58 1.391 . S
C63 C62 1.388 . S
P64 O75 1.490 . S
P64 C78 1.812 . S
P64 C84 1.803 . S
P64 C90 1.819 . S
H65 C79 0.941 . S
H66 C80 0.939 . S
H67 C82 0.940 . S
H68 C83 0.940 . S
H69 C85 0.939 . S
H70 C86 0.942 . S
H71 C88 0.940 . S
H72 C89 0.939 . S
H73 C91 0.941 . S
H74 C95 0.939 . S
O75 P64 1.490 . S
H76 C92 0.939 . S
H77 C94 0.940 . S
C78 P64 1.812 . S
C78 C79 1.389 . S
C78 C83 1.391 . S
C79 H65 0.941 . S
C79 C78 1.389 . S
C79 C80 1.397 . S
C80 H66 0.939 . S
C80 C79 1.397 . S
C80 C81 1.378 . S
C81 C80 1.378 . S
C81 C82 1.378 . S
C82 H67 0.940 . S
C82 C81 1.378 . S
C82 C83 1.396 . S
C83 H68 0.940 . S
C83 C78 1.391 . S
C83 C82 1.396 . S
C84 P64 1.803 . S
C84 C85 1.378 . S
C84 C89 1.400 . S
C85 H69 0.939 . S
C85 C84 1.378 . S
C85 C86 1.361 . S
C86 H70 0.942 . S
C86 C85 1.361 . S
C86 C87 1.369 . S
C87 C86 1.369 . S
C87 C88 1.404 . S
C88 H71 0.940 . S
C88 C87 1.404 . S
C88 C89 1.389 . S
C89 H72 0.939 . S
C89 C84 1.400 . S
C89 C88 1.389 . S
C90 P64 1.819 . S
C90 C91 1.391 . S
C90 C95 1.391 . S
C91 H73 0.941 . S
C91 C90 1.391 . S
C91 C92 1.396 . S
C92 H76 0.939 . S
C92 C91 1.396 . S
C92 C93 1.397 . S
C93 C92 1.397 . S
C93 C94 1.385 . S
C94 H77 0.940 . S
C94 C93 1.385 . S
C94 C95 1.388 . S
C95 H74 0.939 . S
C95 C90 1.391 . S
C95 C94 1.388 . S
P96 O107 1.490 . S
P96 C110 1.812 . S
P96 C116 1.803 . S
P96 C122 1.819 . S
H97 C111 0.941 . S
H98 C112 0.939 . S
H99 C114 0.940 . S
H100 C115 0.940 . S
H101 C117 0.939 . S
H102 C118 0.942 . S
H103 C120 0.940 . S
H104 C121 0.939 . S
H105 C123 0.941 . S
H106 C127 0.939 . S
O107 P96 1.490 . S
H108 C124 0.939 . S
H109 C126 0.940 . S
C110 P96 1.812 . S
C110 C111 1.389 . S
C110 C115 1.391 . S
C111 H97 0.941 . S
C111 C110 1.389 . S
C111 C112 1.397 . S
C112 H98 0.939 . S
C112 C111 1.397 . S
C112 C113 1.378 . S
C113 C112 1.378 . S
C113 C114 1.378 . S
C114 H99 0.940 . S
C114 C113 1.378 . S
C114 C115 1.396 . S
C115 H100 0.940 . S
C115 C110 1.391 . S
C115 C114 1.396 . S
C116 P96 1.803 . S
C116 C117 1.378 . S
C116 C121 1.400 . S
C117 H101 0.939 . S
C117 C116 1.378 . S
C117 C118 1.361 . S
C118 H102 0.942 . S
C118 C117 1.361 . S
C118 C119 1.369 . S
C119 C118 1.369 . S
C119 C120 1.404 . S
C120 H103 0.940 . S
C120 C119 1.404 . S
C120 C121 1.389 . S
C121 H104 0.939 . S
C121 C116 1.400 . S
C121 C120 1.389 . S
C122 P96 1.819 . S
C122 C123 1.391 . S
C122 C127 1.391 . S
C123 H105 0.941 . S
C123 C122 1.391 . S
C123 C124 1.396 . S
C124 H108 0.939 . S
C124 C123 1.396 . S
C124 C125 1.397 . S
C125 C124 1.397 . S
C125 C126 1.385 . S
C126 H109 0.940 . S
C126 C125 1.385 . S
C126 C127 1.388 . S
C127 H106 0.939 . S
C127 C122 1.391 . S
C127 C126 1.388 . S
Zn128 O134 1.920 . S
Zn128 O140 1.898 . S
Zn128 O143 1.905 1_455 S
Zn129 O137 1.905 . S
Zn129 O138 1.898 . S
Zn129 O146 1.920 . S
Zn130 O133 2.080 . S
Zn130 O136 2.114 1_545 S
Zn130 O139 2.120 1_545 S
Zn130 O141 2.120 . S
Zn130 O142 2.114 1_455 S
Zn130 O145 2.080 1_545 S
C131 O136 1.166 . S
C131 O137 1.182 . S
C132 O138 1.167 . S
C132 O139 1.299 . S
O133 Zn130 2.080 . S
O133 C147 1.305 . S
O134 Zn128 1.920 . S
O134 C147 1.234 . S
C135 O140 1.167 . S
C135 O141 1.299 . S
O136 Zn130 2.114 1_565 S
O136 C131 1.166 . S
O137 Zn129 1.905 . S
O137 C131 1.182 . S
O138 Zn129 1.898 . S
O138 C132 1.167 . S
O139 Zn130 2.120 1_565 S
O139 C132 1.299 . S
O140 Zn128 1.898 . S
O140 C135 1.167 . S
O141 Zn130 2.120 . S
O141 C135 1.299 . S
O142 Zn130 2.114 1_655 S
O142 C144 1.166 . S
O143 Zn128 1.905 1_655 S
O143 C144 1.182 . S
C144 O142 1.166 . S
C144 O143 1.182 . S
O145 Zn130 2.080 1_565 S
O145 C148 1.305 . S
O146 Zn129 1.920 . S
O146 C148 1.234 . S
C147 O133 1.305 . S
C147 O134 1.234 . S
C148 O145 1.305 . S
C148 O146 1.234 . S
Zn149 O155 1.920 . S
Zn149 O161 1.898 . S
Zn149 O164 1.905 . S
Zn150 O158 1.905 . S
Zn150 O159 1.898 . S
Zn150 O167 1.920 . S
Zn151 O154 2.080 . S
Zn151 O157 2.114 . S
Zn151 O160 2.120 . S
Zn151 O162 2.120 . S
Zn151 O163 2.114 . S
Zn151 O166 2.080 . S
C152 O157 1.166 . S
C152 O158 1.182 . S
C153 O159 1.167 . S
C153 O160 1.299 . S
O154 Zn151 2.080 . S
O154 C168 1.305 . S
O155 Zn149 1.920 . S
O155 C168 1.234 . S
C156 O161 1.167 . S
C156 O162 1.299 . S
O157 Zn151 2.114 . S
O157 C152 1.166 . S
O158 Zn150 1.905 . S
O158 C152 1.182 . S
O159 Zn150 1.898 . S
O159 C153 1.167 . S
O160 Zn151 2.120 . S
O160 C153 1.299 . S
O161 Zn149 1.898 . S
O161 C156 1.167 . S
O162 Zn151 2.120 . S
O162 C156 1.299 . S
O163 Zn151 2.114 . S
O163 C165 1.166 . S
O164 Zn149 1.905 . S
O164 C165 1.182 . S
C165 O163 1.166 . S
C165 O164 1.182 . S
O166 Zn151 2.080 . S
O166 C169 1.305 . S
O167 Zn150 1.920 . S
O167 C169 1.234 . S
C168 O154 1.305 . S
C168 O155 1.234 . S
C169 O166 1.305 . S
C169 O167 1.234 . S
H170 C176 0.930 . S
H171 C180 0.930 . S
H172 C185 0.929 . S
H173 C183 0.929 . S
H174 C178 0.929 . S
H175 C184 0.929 . S
C176 H170 0.930 . S
C176 C177 1.367 . S
C176 C184 1.378 . S
C177 C176 1.367 . S
C177 C185 1.433 . S
C178 H174 0.929 . S
C178 C180 1.378 . S
C178 C182 1.350 . S
C179 C182 1.463 . S
C179 C184 1.350 . S
C179 N187 1.427 . S
C180 H171 0.930 . S
C180 C178 1.378 . S
C180 C181 1.367 . S
C181 C180 1.367 . S
C181 C183 1.433 . S
C182 C178 1.350 . S
C182 C179 1.463 . S
C182 N186 1.427 . S
C183 H173 0.929 . S
C183 C181 1.433 . S
C183 N186 1.384 . S
C184 H175 0.929 . S
C184 C176 1.378 . S
C184 C179 1.350 . S
C185 H172 0.929 . S
C185 C177 1.433 . S
C185 N187 1.384 . S
N186 C182 1.427 . S
N186 C183 1.384 . S
N187 C179 1.427 . S
N187 C185 1.384 . S
H188 C194 0.930 . S
H189 C198 0.930 . S
H190 C203 0.929 . S
H191 C201 0.929 1_655 S
H192 C196 0.929 . S
H193 C202 0.929 . S
C194 H188 0.930 . S
C194 C195 1.364 1_655 S
C194 C202 1.378 . S
C195 C194 1.364 1_455 S
C195 C203 1.438 . S
C196 H192 0.929 . S
C196 C198 1.378 . S
C196 C200 1.350 . S
C197 C200 1.463 . S
C197 C202 1.350 1_455 S
C197 N205 1.427 . S
C198 H189 0.930 . S
C198 C196 1.378 . S
C198 C199 1.367 . S
C199 C198 1.367 . S
C199 C201 1.433 . S
C200 C196 1.350 . S
C200 C197 1.463 . S
C200 N204 1.427 . S
C201 H191 0.929 1_455 S
C201 C199 1.433 . S
C201 N204 1.384 . S
C202 H193 0.929 . S
C202 C194 1.378 . S
C202 C197 1.350 1_655 S
C203 H190 0.929 . S
C203 C195 1.438 . S
C203 N205 1.384 . S
N204 C200 1.427 . S
N204 C201 1.384 . S
N205 C197 1.427 . S
N205 C203 1.384 . S
H206 C212 0.930 . S
H207 C216 0.930 . S
H208 C221 0.929 . S
H209 C219 0.929 . S
H210 C214 0.929 . S
H211 C220 0.929 . S
C212 H206 0.930 . S
C212 C213 1.367 . S
C212 C220 1.378 . S
C213 C212 1.367 . S
C213 C221 1.433 . S
C214 H210 0.929 . S
C214 C216 1.378 . S
C214 C218 1.350 . S
C215 C218 1.463 . S
C215 C220 1.350 . S
C215 N223 1.427 . S
C216 H207 0.930 . S
C216 C214 1.378 . S
C216 C217 1.367 . S
C217 C216 1.367 . S
C217 C219 1.433 . S
C218 C214 1.350 . S
C218 C215 1.463 . S
C218 N222 1.427 . S
C219 H209 0.929 . S
C219 C217 1.433 . S
C219 N222 1.384 . S
C220 H211 0.929 . S
C220 C212 1.378 . S
C220 C215 1.350 . S
C221 H208 0.929 . S
C221 C213 1.433 . S
C221 N223 1.384 . S
N222 C218 1.427 . S
N222 C219 1.384 . S
N223 C215 1.427 . S
N223 C221 1.384 . S
H224 C230 0.930 . S
H225 C234 0.930 . S
H226 C239 0.929 . S
H227 C237 0.929 . S
H228 C232 0.929 . S
H229 C238 0.929 . S
C230 H224 0.930 . S
C230 C231 1.367 . S
C230 C238 1.378 . S
C231 C230 1.367 . S
C231 C239 1.433 . S
C232 H228 0.929 . S
C232 C234 1.378 . S
C232 C236 1.350 . S
C233 C236 1.463 . S
C233 C238 1.350 . S
C233 N241 1.427 . S
C234 H225 0.930 . S
C234 C232 1.378 . S
C234 C235 1.367 . S
C235 C234 1.367 . S
C235 C237 1.433 . S
C236 C232 1.350 . S
C236 C233 1.463 . S
C236 N240 1.427 . S
C237 H227 0.929 . S
C237 C235 1.433 . S
C237 N240 1.384 . S
C238 H229 0.929 . S
C238 C230 1.378 . S
C238 C233 1.350 . S
C239 H226 0.929 . S
C239 C231 1.433 . S
C239 N241 1.384 . S
N240 C236 1.427 . S
N240 C237 1.384 . S
N241 C233 1.427 . S
N241 C239 1.384 . S
H242 C248 0.930 . S
H243 C252 0.930 . S
H244 C257 0.929 1_554 S
H245 C255 0.929 . S
H246 C250 0.929 . S
H247 C256 0.929 . S
C248 H242 0.930 . S
C248 C249 1.367 . S
C248 C256 1.378 . S
C249 C248 1.367 . S
C249 C257 1.433 . S
C250 H246 0.929 . S
C250 C252 1.378 . S
C250 C254 1.350 . S
C251 C254 1.463 . S
C251 C256 1.350 . S
C251 N259 1.427 . S
C252 H243 0.930 . S
C252 C250 1.378 . S
C252 C253 1.367 . S
C253 C252 1.367 . S
C253 C255 1.433 . S
C254 C250 1.350 . S
C254 C251 1.463 . S
C254 N258 1.427 . S
C255 H245 0.929 . S
C255 C253 1.433 . S
C255 N258 1.384 . S
C256 H247 0.929 . S
C256 C248 1.378 . S
C256 C251 1.350 . S
C257 H244 0.929 1_556 S
C257 C249 1.433 . S
C257 N259 1.384 . S
N258 C254 1.427 . S
N258 C255 1.384 . S
N259 C251 1.427 . S
N259 C257 1.384 . S
H260 C266 0.930 . S
H261 C270 0.930 . S
H262 C275 0.929 . S
H263 C273 0.929 . S
H264 C268 0.929 . S
H265 C274 0.929 . S
C266 H260 0.930 . S
C266 C267 1.367 . S
C266 C274 1.378 . S
C267 C266 1.367 . S
C267 C275 1.433 1_556 S
C268 H264 0.929 . S
C268 C270 1.378 . S
C268 C272 1.350 . S
C269 C272 1.463 . S
C269 C274 1.350 . S
C269 N277 1.427 . S
C270 H261 0.930 . S
C270 C268 1.378 . S
C270 C271 1.367 . S
C271 C270 1.367 . S
C271 C273 1.433 . S
C272 C268 1.350 . S
C272 C269 1.463 . S
C272 N276 1.427 . S
C273 H263 0.929 . S
C273 C271 1.433 . S
C273 N276 1.384 . S
C274 H265 0.929 . S
C274 C266 1.378 . S
C274 C269 1.350 . S
C275 H262 0.929 . S
C275 C267 1.433 1_554 S
C275 N277 1.384 1_554 S
N276 C272 1.427 . S
N276 C273 1.384 . S
N277 C269 1.427 . S
N277 C275 1.384 1_556 S
H278 C284 0.930 . S
H279 C288 0.930 . S
H280 C293 0.929 1_554 S
H281 C291 0.929 . S
H282 C286 0.929 . S
H283 C292 0.929 . S
C284 H278 0.930 . S
C284 C285 1.367 . S
C284 C292 1.378 . S
C285 C284 1.367 . S
C285 C293 1.433 . S
C286 H282 0.929 . S
C286 C288 1.378 . S
C286 C290 1.350 . S
C287 C290 1.463 . S
C287 C292 1.350 . S
C287 N295 1.427 . S
C288 H279 0.930 . S
C288 C286 1.378 . S
C288 C289 1.367 . S
C289 C288 1.367 . S
C289 C291 1.433 . S
C290 C286 1.350 . S
C290 C287 1.463 . S
C290 N294 1.427 . S
C291 H281 0.929 . S
C291 C289 1.433 . S
C291 N294 1.384 . S
C292 H283 0.929 . S
C292 C284 1.378 . S
C292 C287 1.350 . S
C293 H280 0.929 1_556 S
C293 C285 1.433 . S
C293 N295 1.384 . S
N294 C290 1.427 . S
N294 C291 1.384 . S
N295 C287 1.427 . S
N295 C293 1.384 . S
H296 C302 0.930 . S
H297 C306 0.930 . S
H298 C311 0.929 . S
H299 C309 0.929 . S
H300 C304 0.929 . S
H301 C310 0.929 . S
C302 H296 0.930 . S
C302 C303 1.367 . S
C302 C310 1.378 . S
C303 C302 1.367 . S
C303 C311 1.433 . S
C304 H300 0.929 . S
C304 C306 1.378 . S
C304 C308 1.350 . S
C305 C308 1.463 . S
C305 C310 1.350 . S
C305 N313 1.427 . S
C306 H297 0.930 . S
C306 C304 1.378 . S
C306 C307 1.367 . S
C307 C306 1.367 . S
C307 C309 1.433 . S
C308 C304 1.350 . S
C308 C305 1.463 . S
C308 N312 1.427 . S
C309 H299 0.929 . S
C309 C307 1.433 . S
C309 N312 1.384 . S
C310 H301 0.929 . S
C310 C302 1.378 . S
C310 C305 1.350 . S
C311 H298 0.929 . S
C311 C303 1.433 . S
C311 N313 1.384 . S
N312 C308 1.427 . S
N312 C309 1.384 . S
N313 C305 1.427 . S
N313 C311 1.384 . S
H314 C320 0.930 . S
H315 C324 0.930 . S
H316 C329 0.929 . S
H317 C327 0.929 1_455 S
H318 C322 0.929 . S
H319 C328 0.929 . S
C320 H314 0.930 . S
C320 C321 1.367 . S
C320 C328 1.378 . S
C321 C320 1.367 . S
C321 C329 1.433 . S
C322 H318 0.929 . S
C322 C324 1.378 . S
C322 C326 1.350 . S
C323 C326 1.463 . S
C323 C328 1.350 . S
C323 N331 1.427 . S
C324 H315 0.930 . S
C324 C322 1.378 . S
C324 C325 1.367 . S
C325 C324 1.367 . S
C325 C327 1.433 . S
C326 C322 1.350 . S
C326 C323 1.463 . S
C326 N330 1.427 . S
C327 H317 0.929 1_655 S
C327 C325 1.433 . S
C327 N330 1.384 . S
C328 H319 0.929 . S
C328 C320 1.378 . S
C328 C323 1.350 . S
C329 H316 0.929 . S
C329 C321 1.433 . S
C329 N331 1.384 . S
N330 C326 1.427 . S
N330 C327 1.384 . S
N331 C323 1.427 . S
N331 C329 1.384 . S
H332 C338 0.930 . S
H333 C342 0.930 . S
H334 C347 0.929 . S
H335 C345 0.929 . S
H336 C340 0.929 . S
H337 C346 0.929 . S
C338 H332 0.930 . S
C338 C339 1.367 . S
C338 C346 1.378 . S
C339 C338 1.367 . S
C339 C347 1.433 . S
C340 H336 0.929 . S
C340 C342 1.378 . S
C340 C344 1.350 . S
C341 C344 1.463 . S
C341 C346 1.350 . S
C341 N349 1.427 . S
C342 H333 0.930 . S
C342 C340 1.378 . S
C342 C343 1.367 . S
C343 C342 1.367 . S
C343 C345 1.433 . S
C344 C340 1.350 . S
C344 C341 1.463 . S
C344 N348 1.427 . S
C345 H335 0.929 . S
C345 C343 1.433 . S
C345 N348 1.384 . S
C346 H337 0.929 . S
C346 C338 1.378 . S
C346 C341 1.350 . S
C347 H334 0.929 . S
C347 C339 1.433 . S
C347 N349 1.384 . S
N348 C344 1.427 . S
N348 C345 1.384 . S
N349 C341 1.427 . S
N349 C347 1.384 . S
H350 C356 0.930 . S
H351 C360 0.930 . S
H352 C365 0.929 . S
H353 C363 0.929 . S
H354 C358 0.929 . S
H355 C364 0.929 . S
C356 H350 0.930 . S
C356 C357 1.367 . S
C356 C364 1.378 . S
C357 C356 1.367 . S
C357 C365 1.433 . S
C358 H354 0.929 . S
C358 C360 1.378 . S
C358 C362 1.350 . S
C359 C362 1.463 . S
C359 C364 1.350 . S
C359 N367 1.427 . S
C360 H351 0.930 . S
C360 C358 1.378 . S
C360 C361 1.367 . S
C361 C360 1.367 . S
C361 C363 1.433 . S
C362 C358 1.350 . S
C362 C359 1.463 . S
C362 N366 1.427 . S
C363 H353 0.929 . S
C363 C361 1.433 . S
C363 N366 1.384 . S
C364 H355 0.929 . S
C364 C356 1.378 . S
C364 C359 1.350 . S
C365 H352 0.929 . S
C365 C357 1.433 . S
C365 N367 1.384 . S
N366 C362 1.427 . S
N366 C363 1.384 . S
N367 C359 1.427 . S
N367 C365 1.384 . S
H368 C374 0.930 . S
H369 C378 0.930 . S
H370 C383 0.929 . S
H371 C381 0.929 . S
H372 C376 0.929 . S
H373 C382 0.929 . S
C374 H368 0.930 . S
C374 C375 1.367 . S
C374 C382 1.378 . S
C375 C374 1.367 . S
C375 C383 1.433 . S
C376 H372 0.929 . S
C376 C378 1.378 . S
C376 C380 1.350 . S
C377 C380 1.463 . S
C377 C382 1.350 . S
C377 N385 1.427 . S
C378 H369 0.930 . S
C378 C376 1.378 . S
C378 C379 1.367 . S
C379 C378 1.367 . S
C379 C381 1.433 . S
C380 C376 1.350 . S
C380 C377 1.463 . S
C380 N384 1.427 . S
C381 H371 0.929 . S
C381 C379 1.433 . S
C381 N384 1.384 . S
C382 H373 0.929 . S
C382 C374 1.378 . S
C382 C377 1.350 . S
C383 H370 0.929 . S
C383 C375 1.433 . S
C383 N385 1.384 . S
N384 C380 1.427 . S
N384 C381 1.384 . S
N385 C377 1.427 . S
N385 C383 1.384 . S
C181 C135 1.419 . S
C177 C23 1.520 . S
C199 C131 1.418 . S
C195 C55 1.466 . S
C217 C156 1.421 . S
C213 C87 1.520 . S
C231 C119 1.448 . S
C235 C152 1.438 . S
C249 C17 1.228 . S
C253 C153 1.081 . S
C271 C168 1.112 . S
C267 C61 1.192 . S
C285 C29 1.682 . S
C289 C169 1.555 . S
C307 C165 1.571 . S
C303 C49 1.647 . S
C325 C132 1.089 1_655 S
C321 C81 1.231 . S
C339 C125 1.182 . S
C343 C147 1.098 . S
C361 C148 1.563 . S
C357 C93 1.683 . S
C379 C144 1.552 . S
C375 C113 1.643 . S
