# Generated by pormake.
# Topology tsx, (6,3)-cn, num edge types: 1
# Building blocks:
#     Node 0, Type 0, BuildingBlock: VOLQOD_clean_sbu_1, # of connection points: 6
#     Node 1, Type 0, BuildingBlock: VOLQOD_clean_sbu_1, # of connection points: 6
#     Node 2, Type 1, BuildingBlock: INOVEN_clean_linker_0, # of connection points: 3
#     Node 3, Type 1, BuildingBlock: INOVEN_clean_linker_0, # of connection points: 3
#     Node 4, Type 1, BuildingBlock: INOVEN_clean_linker_0, # of connection points: 3
#     Node 5, Type 1, BuildingBlock: INOVEN_clean_linker_0, # of connection points: 3
#     Edge 6, Type (0, 1), BuildingBlock: KIFKEQ_clean_linker_1, # of connection points: 2
#     Edge 7, Type (0, 1), BuildingBlock: KIFKEQ_clean_linker_1, # of connection points: 2
#     Edge 8, Type (0, 1), BuildingBlock: KIFKEQ_clean_linker_1, # of connection points: 2
#     Edge 9, Type (0, 1), BuildingBlock: KIFKEQ_clean_linker_1, # of connection points: 2
#     Edge 10, Type (0, 1), BuildingBlock: KIFKEQ_clean_linker_1, # of connection points: 2
#     Edge 11, Type (0, 1), BuildingBlock: KIFKEQ_clean_linker_1, # of connection points: 2
#     Edge 12, Type (0, 1), BuildingBlock: KIFKEQ_clean_linker_1, # of connection points: 2
#     Edge 13, Type (0, 1), BuildingBlock: KIFKEQ_clean_linker_1, # of connection points: 2
#     Edge 14, Type (0, 1), BuildingBlock: KIFKEQ_clean_linker_1, # of connection points: 2
#     Edge 15, Type (0, 1), BuildingBlock: KIFKEQ_clean_linker_1, # of connection points: 2
#     Edge 16, Type (0, 1), BuildingBlock: KIFKEQ_clean_linker_1, # of connection points: 2
#     Edge 17, Type (0, 1), BuildingBlock: KIFKEQ_clean_linker_1, # of connection points: 2
# Relax obj value: 0.050
# Max RMSD: 0.107
# Mean RMSD: 0.096
data_MOF--net-tsx--node1-VOLQOD_clean_sbu_1--node2-INOVEN_clean_linker_0--edge1-KIFKEQ_clean_linker_1
_symmetry_space_group_name_H-M    P1
_symmetry_Int_Tables_number       1
_symmetry_cell_setting            triclinic
loop_
_symmetry_equiv_pos_as_xyz
'x, y, z'
_cell_length_a     21.486327
_cell_length_b     22.309776
_cell_length_c     38.012306
_cell_angle_alpha  90.002291
_cell_angle_beta   97.796879
_cell_angle_gamma 90.191267
loop_
_atom_site_label
_atom_site_type_symbol
_atom_site_fract_x
_atom_site_fract_y
_atom_site_fract_z
_atom_type_partial_charge
O0 O 0.06766 0.00049 0.08627 0.0
Zn1 Zn 0.08033 0.00035 0.03454 0.0
O2 O 0.00163 0.01596 0.00352 0.0
Zn3 Zn 0.97762 0.94591 0.97358 0.0
Zn4 Zn 0.93611 0.03325 0.03292 0.0
Zn5 Zn 0.01222 0.08494 0.97322 0.0
O6 O 0.96968 0.96716 0.92132 0.0
O7 O 0.00445 0.06102 0.92184 0.0
O8 O 0.11837 0.92156 0.02238 0.0
O9 O 0.04564 0.88337 0.98134 0.0
O10 O 0.89689 0.9081 0.98517 0.0
O11 O 0.8712 0.9676 0.02777 0.0
O12 O 0.89288 0.11177 0.01953 0.0
O13 O 0.14341 0.06552 0.02924 0.0
O14 O 0.94569 0.14685 0.97758 0.0
O15 O 0.09678 0.12408 0.98639 0.0
C16 C 0.02273 0.01898 0.10211 0.0
C17 C 0.98503 0.01374 0.905 0.0
C18 C 0.86088 0.92153 0.00801 0.0
C19 C 0.09865 0.87976 0.00082 0.0
C20 C 0.90198 0.1519 0.99693 0.0
C21 C 0.14382 0.11128 0.00924 0.0
O22 O 0.97096 0.03606 0.08475 0.0
O23 O 0.5639 0.48093 0.58749 0.0
Zn24 Zn 0.58158 0.48186 0.53662 0.0
O25 O 0.50545 0.49114 0.50275 0.0
Zn26 Zn 0.48907 0.41823 0.4737 0.0
Zn27 Zn 0.43603 0.50674 0.5295 0.0
Zn28 Zn 0.51568 0.55924 0.47183 0.0
O29 O 0.48327 0.43774 0.421 0.0
O30 O 0.51117 0.53366 0.42107 0.0
O31 O 0.62664 0.40686 0.52638 0.0
O32 O 0.56205 0.36046 0.48433 0.0
O33 O 0.40824 0.37723 0.48337 0.0
O34 O 0.37306 0.44035 0.52136 0.0
O35 O 0.39256 0.58456 0.51528 0.0
O36 O 0.64112 0.55034 0.53268 0.0
O37 O 0.4474 0.61972 0.4743 0.0
O38 O 0.59785 0.60192 0.48582 0.0
C39 C 0.51549 0.49581 0.60138 0.0
C40 C 0.496 0.48509 0.40449 0.0
C41 C 0.36737 0.39226 0.50314 0.0
C42 C 0.61365 0.36284 0.50532 0.0
C43 C 0.40246 0.6245 0.49276 0.0
C44 C 0.64232 0.59376 0.51105 0.0
O45 O 0.46431 0.50942 0.58215 0.0
H46 H 0.05777 0.98223 0.47146 0.0
H47 H 0.1373 0.94573 0.37585 0.0
H48 H 0.98027 0.06552 0.37327 0.0
N49 N 0.9724 0.05999 0.44307 0.0
N50 N 0.95097 0.10942 0.43208 0.0
C51 C 0.05819 0.98905 0.44325 0.0
C52 C 0.10285 0.95989 0.42573 0.0
C53 C 0.01548 0.02885 0.42465 0.0
C54 C 0.01533 0.03689 0.38787 0.0
C55 C 0.05821 0.00602 0.36973 0.0
C56 C 0.10286 0.96883 0.38921 0.0
H57 H 0.96211 0.96601 0.53649 0.0
H58 H 0.92125 0.90887 0.63923 0.0
H59 H 0.03371 0.06593 0.63016 0.0
N60 N 0.0327 0.05899 0.55949 0.0
N61 N 0.03935 0.11324 0.56694 0.0
C62 C 0.96661 0.97162 0.56505 0.0
C63 C 0.93581 0.93216 0.58583 0.0
C64 C 0.00115 0.02027 0.58083 0.0
C65 C 0.00612 0.02891 0.61783 0.0
C66 C 0.97819 0.98813 0.63908 0.0
C67 C 0.94327 0.94008 0.62284 0.0
H68 H 0.54199 0.49827 0.97169 0.0
H69 H 0.61976 0.45251 0.87666 0.0
H70 H 0.45345 0.56017 0.86971 0.0
N71 N 0.44718 0.56354 0.94021 0.0
N72 N 0.40065 0.58767 0.92268 0.0
C73 C 0.54055 0.5008 0.94311 0.0
C74 C 0.58693 0.47222 0.9265 0.0
C75 C 0.4924 0.53297 0.92286 0.0
C76 C 0.49032 0.53536 0.88563 0.0
C77 C 0.53633 0.50682 0.86879 0.0
C78 C 0.5848 0.4759 0.8895 0.0
H79 H 0.48777 0.47267 0.03507 0.0
H80 H 0.44182 0.39464 0.1317 0.0
H81 H 0.53869 0.5641 0.13453 0.0
N82 N 0.54703 0.56817 0.0645 0.0
N83 N 0.55492 0.61996 0.07668 0.0
C84 C 0.4886 0.47452 0.06363 0.0
C85 C 0.46096 0.42842 0.08129 0.0
C86 C 0.51697 0.52335 0.08273 0.0
C87 C 0.51722 0.52608 0.1198 0.0
C88 C 0.49023 0.47977 0.13787 0.0
C89 C 0.46271 0.43087 0.11827 0.0
H90 H 0.17505 0.19838 0.96385 0.0
H91 H 0.23648 0.11689 0.0657 0.0
H92 H 0.26129 0.27036 0.97414 0.0
H93 H 0.32035 0.19009 0.07679 0.0
H94 H 0.35859 0.437 0.03135 0.0
H95 H 0.28789 0.3559 0.00883 0.0
H96 H 0.41617 0.22714 0.064 0.0
H97 H 0.48463 0.30913 0.08799 0.0
C98 C 0.20705 0.19577 0.9884 0.0
C99 C 0.19871 0.15214 0.01404 0.0
C100 C 0.25636 0.23721 0.99439 0.0
C101 C 0.29789 0.23647 0.02639 0.0
C102 C 0.29034 0.1916 0.05152 0.0
C103 C 0.24173 0.14973 0.0453 0.0
C104 C 0.37206 0.39115 0.03788 0.0
C105 C 0.42648 0.37899 0.0615 0.0
C106 C 0.33173 0.34451 0.02494 0.0
C107 C 0.34563 0.28475 0.03504 0.0
C108 C 0.40295 0.27262 0.05646 0.0
C109 C 0.44257 0.31935 0.06991 0.0
H110 H 0.06859 0.77755 0.96253 0.0
H111 H 0.22258 0.86503 0.02809 0.0
H112 H 0.13938 0.69899 0.94829 0.0
H113 H 0.29373 0.78696 0.01311 0.0
H114 H 0.4018 0.61702 0.99271 0.0
H115 H 0.3247 0.68089 0.01661 0.0
H116 H 0.22204 0.69848 0.91116 0.0
H117 H 0.29846 0.63424 0.88782 0.0
C118 C 0.11743 0.77981 0.97417 0.0
C119 C 0.14002 0.82811 0.99607 0.0
C120 C 0.15808 0.73484 0.96588 0.0
C121 C 0.22241 0.73717 0.97911 0.0
C122 C 0.24439 0.78361 0.00262 0.0
C123 C 0.2036 0.82857 0.01106 0.0
C124 C 0.36223 0.63406 0.97488 0.0
C125 C 0.35544 0.62091 0.93836 0.0
C126 C 0.31832 0.67081 0.98848 0.0
C127 C 0.26702 0.69461 0.96583 0.0
C128 C 0.26018 0.6801 0.9295 0.0
C129 C 0.30396 0.64372 0.91603 0.0
H130 H 0.80652 0.83265 0.96398 0.0
H131 H 0.79729 0.91776 0.0652 0.0
H132 H 0.7242 0.7625 0.97553 0.0
H133 H 0.71815 0.84642 0.07761 0.0
H134 H 0.54975 0.7367 0.08749 0.0
H135 H 0.61534 0.81414 0.06567 0.0
H136 H 0.70747 0.67852 0.00996 0.0
H137 H 0.63872 0.60238 0.0301 0.0
C138 C 0.7869 0.83639 0.98867 0.0
C139 C 0.80844 0.88085 0.01363 0.0
C140 C 0.73996 0.79591 0.99544 0.0
C141 C 0.71417 0.79843 0.02757 0.0
C142 C 0.73543 0.84359 0.05221 0.0
C143 C 0.78143 0.88448 0.0452 0.0
C144 C 0.58333 0.72412 0.06999 0.0
C145 C 0.58926 0.66411 0.06048 0.0
C146 C 0.62145 0.76815 0.05775 0.0
C147 C 0.66779 0.75275 0.03646 0.0
C148 C 0.67205 0.69249 0.02592 0.0
C149 C 0.63286 0.64864 0.0376 0.0
H150 H 0.89432 0.23554 0.94421 0.0
H151 H 0.81407 0.18753 0.03867 0.0
H152 H 0.82151 0.31834 0.93387 0.0
H153 H 0.74226 0.27232 0.02902 0.0
H154 H 0.5714 0.37546 0.96805 0.0
H155 H 0.65134 0.30201 0.99017 0.0
H156 H 0.79383 0.41366 0.95288 0.0
H157 H 0.71311 0.4852 0.9294 0.0
C158 C 0.86175 0.24321 0.96313 0.0
C159 C 0.8599 0.20463 0.99217 0.0
C160 C 0.82018 0.2912 0.95737 0.0
C161 C 0.77601 0.30245 0.98071 0.0
C162 C 0.7751 0.26465 0.01027 0.0
C163 C 0.81644 0.21615 0.01587 0.0
C164 C 0.6201 0.38467 0.96542 0.0
C165 C 0.63632 0.43543 0.94683 0.0
C166 C 0.66601 0.34272 0.9781 0.0
C167 C 0.72904 0.35125 0.97271 0.0
C168 C 0.74558 0.4047 0.95658 0.0
C169 C 0.69961 0.44603 0.94346 0.0
H170 H 0.729 0.60604 0.57001 0.0
H171 H 0.67189 0.68248 0.46609 0.0
H172 H 0.80434 0.68752 0.5836 0.0
H173 H 0.74862 0.76363 0.47991 0.0
H174 H 0.95416 0.85717 0.53045 0.0
H175 H 0.8879 0.77187 0.50754 0.0
H176 H 0.75948 0.81109 0.58227 0.0
H177 H 0.82297 0.89723 0.604 0.0
C178 C 0.73337 0.63939 0.54978 0.0
C179 C 0.6939 0.63817 0.51711 0.0
C180 C 0.77653 0.68587 0.55761 0.0
C181 C 0.78182 0.73135 0.53274 0.0
C182 C 0.74533 0.72857 0.4993 0.0
C183 C 0.70134 0.68242 0.49158 0.0
C184 C 0.9112 0.84819 0.54151 0.0
C185 C 0.89446 0.8833 0.56953 0.0
C186 C 0.87368 0.79939 0.52852 0.0
C187 C 0.81954 0.78497 0.54367 0.0
C188 C 0.80171 0.82111 0.57067 0.0
C189 C 0.83835 0.87008 0.5832 0.0
H190 H 0.60073 0.25299 0.47243 0.0
H191 H 0.7381 0.37027 0.53121 0.0
H192 H 0.68538 0.18559 0.46055 0.0
H193 H 0.82192 0.3036 0.51855 0.0
H194 H 0.92744 0.22476 0.42468 0.0
H195 H 0.8458 0.28161 0.44918 0.0
H196 H 0.78819 0.12112 0.49949 0.0
H197 H 0.87161 0.0646 0.47585 0.0
C198 C 0.64866 0.26387 0.48331 0.0
C199 C 0.66267 0.31725 0.50251 0.0
C200 C 0.69689 0.2252 0.47665 0.0
C201 C 0.75979 0.23985 0.4886 0.0
C202 C 0.77363 0.29158 0.50912 0.0
C203 C 0.72553 0.3296 0.51633 0.0
C204 C 0.89782 0.20212 0.44143 0.0
C205 C 0.90578 0.14098 0.44864 0.0
C206 C 0.85143 0.23437 0.45542 0.0
C207 C 0.81115 0.20551 0.47618 0.0
C208 C 0.81896 0.14411 0.48356 0.0
C209 C 0.86661 0.11205 0.47021 0.0
H210 H 0.32395 0.29555 0.46163 0.0
H211 H 0.28866 0.39833 0.55321 0.0
H212 H 0.23601 0.22921 0.46968 0.0
H213 H 0.20381 0.33145 0.56215 0.0
H214 H 0.02994 0.23113 0.56474 0.0
H215 H 0.10183 0.30146 0.54184 0.0
H216 H 0.2071 0.15244 0.50748 0.0
H217 H 0.13228 0.08283 0.52843 0.0
C218 C 0.2975 0.30399 0.48343 0.0
C219 C 0.31328 0.35235 0.50669 0.0
C220 C 0.24726 0.26585 0.48815 0.0
C221 C 0.2122 0.27503 0.51643 0.0
C222 C 0.2282 0.32366 0.53946 0.0
C223 C 0.27757 0.36194 0.53451 0.0
C224 C 0.06766 0.21391 0.55144 0.0
C225 C 0.0759 0.15214 0.54847 0.0
C226 C 0.10931 0.25391 0.53866 0.0
C227 C 0.16148 0.23277 0.52359 0.0
C228 C 0.16749 0.17056 0.51874 0.0
C229 C 0.12479 0.13054 0.53087 0.0
H230 H 0.39845 0.70908 0.44078 0.0
H231 H 0.31205 0.65953 0.53293 0.0
H232 H 0.3283 0.794 0.43069 0.0
H233 H 0.2428 0.74626 0.52346 0.0
H234 H 0.07936 0.85932 0.46235 0.0
H235 H 0.15447 0.78066 0.48313 0.0
H236 H 0.30535 0.88953 0.45272 0.0
H237 H 0.22963 0.96653 0.43069 0.0
C238 C 0.36495 0.71671 0.45918 0.0
C239 C 0.36078 0.67735 0.48759 0.0
C240 C 0.32498 0.76586 0.45357 0.0
C241 C 0.28014 0.77737 0.47644 0.0
C242 C 0.27639 0.73841 0.50516 0.0
C243 C 0.31621 0.68881 0.51064 0.0
C244 C 0.12883 0.86662 0.46089 0.0
C245 C 0.14897 0.91834 0.44469 0.0
C246 C 0.1719 0.82175 0.47281 0.0
C247 C 0.23586 0.82829 0.46899 0.0
C248 C 0.25625 0.88228 0.45515 0.0
C249 C 0.21315 0.9266 0.44284 0.0
H250 H 0.94538 0.07101 0.1448 0.0
H251 H 0.11738 0.96973 0.14855 0.0
H252 H 0.95621 0.07038 0.20951 0.0
H253 H 0.12804 0.96938 0.2133 0.0
H254 H 0.07428 0.91604 0.32295 0.0
H255 H 0.06892 0.92214 0.25874 0.0
H256 H 0.02713 0.11096 0.26263 0.0
H257 H 0.03411 0.10547 0.32728 0.0
C258 C 0.98561 0.04878 0.15939 0.0
C259 C 0.03038 0.02016 0.14145 0.0
C260 C 0.99197 0.04882 0.19647 0.0
C261 C 0.04288 0.01976 0.21642 0.0
C262 C 0.08798 0.99166 0.19856 0.0
C263 C 0.08198 0.9921 0.16148 0.0
C264 C 0.06507 0.9592 0.31031 0.0
C265 C 0.05508 0.01038 0.33043 0.0
C266 C 0.06182 0.96257 0.27345 0.0
C267 C 0.04784 0.01703 0.2557 0.0
C268 C 0.03749 0.06825 0.27563 0.0
C269 C 0.04132 0.06502 0.31263 0.0
H270 H 0.93886 0.92457 0.85908 0.0
H271 H 0.02635 0.0996 0.86209 0.0
H272 H 0.93877 0.92084 0.79508 0.0
H273 H 0.02786 0.09506 0.79822 0.0
H274 H 0.96114 0.08923 0.67745 0.0
H275 H 0.96189 0.09712 0.7417 0.0
H276 H 0.0114 0.90981 0.75302 0.0
H277 H 0.00938 0.90196 0.68898 0.0
C278 C 0.95818 0.96223 0.84614 0.0
C279 C 0.9827 0.01231 0.86582 0.0
C280 C 0.95856 0.95991 0.80942 0.0
C281 C 0.98381 0.00745 0.79147 0.0
C282 C 0.0075 0.05791 0.81108 0.0
C283 C 0.00685 0.06036 0.84779 0.0
C284 C 0.97288 0.05006 0.69382 0.0
C285 C 0.98467 0.99489 0.67824 0.0
C286 C 0.9733 0.05448 0.7306 0.0
C287 C 0.98593 0.00388 0.75253 0.0
C288 C -0.00011 0.9493 0.7369 0.0
C289 C -0.0009 0.94484 0.70023 0.0
H290 H 0.61032 0.45619 0.65143 0.0
H291 H 0.42803 0.54078 0.64017 0.0
H292 H 0.61496 0.45952 0.71579 0.0
H293 H 0.43358 0.54591 0.70442 0.0
H294 H 0.43364 0.48687 0.81945 0.0
H295 H 0.42883 0.48415 0.75504 0.0
H296 H 0.62684 0.52697 0.76505 0.0
H297 H 0.63166 0.52831 0.82954 0.0
C298 C 0.57139 0.47583 0.66266 0.0
C299 C 0.51873 0.49803 0.64058 0.0
C300 C 0.57423 0.47812 0.69961 0.0
C301 C 0.52466 0.50304 0.7154 0.0
C302 C 0.47217 0.5255 0.69326 0.0
C303 C 0.46913 0.52283 0.65634 0.0
C304 C 0.47596 0.49623 0.80782 0.0
C305 C 0.53301 0.50779 0.82952 0.0
C306 C 0.47325 0.49476 0.77089 0.0
C307 C 0.52747 0.50528 0.75475 0.0
C308 C 0.5844 0.51757 0.77653 0.0
C309 C 0.58717 0.51859 0.81348 0.0
H310 H 0.53509 0.57283 0.36232 0.0
H311 H 0.45334 0.39518 0.35787 0.0
H312 H 0.53331 0.57181 0.29819 0.0
H313 H 0.45197 0.39427 0.29345 0.0
H314 H 0.39575 0.44713 0.17582 0.0
H315 H 0.39736 0.4472 0.24006 0.0
H316 H 0.58615 0.51847 0.25309 0.0
H317 H 0.58522 0.51734 0.18881 0.0
C318 C 0.5167 0.53349 0.3477 0.0
C319 C 0.49429 0.48404 0.36533 0.0
C320 C 0.51609 0.53284 0.31092 0.0
C321 C 0.49265 0.48295 0.29077 0.0
C322 C 0.46986 0.43359 0.30826 0.0
C323 C 0.47092 0.43401 0.34518 0.0
C324 C 0.43793 0.46223 0.19235 0.0
C325 C 0.4905 0.482 0.17707 0.0
C326 C 0.43876 0.46229 0.22917 0.0
C327 C 0.49193 0.48263 0.25163 0.0
C328 C 0.54422 0.5031 0.23643 0.0
C329 C 0.54359 0.50264 0.19959 0.0
loop_
_geom_bond_atom_site_label_1
_geom_bond_atom_site_label_2
_geom_bond_distance
_geom_bond_site_symmetry_2
_ccdc_geom_bond_type
O0 Zn1 1.953 . S
O0 C16 1.225 1_565 S
Zn1 O0 1.953 . S
Zn1 O2 1.949 1_565 S
Zn1 O8 1.919 . S
Zn1 O13 1.924 1_565 S
O2 Zn1 1.949 1_545 S
O2 Zn3 1.923 1_444 S
O2 Zn4 1.950 1_455 S
O2 Zn5 1.945 1_554 S
Zn3 O2 1.923 1_666 S
Zn3 O6 1.933 . S
Zn3 O9 1.941 1_655 S
Zn3 O10 1.965 . S
Zn4 O2 1.950 1_655 S
Zn4 O11 1.938 1_545 S
Zn4 O12 1.906 . S
Zn4 O22 1.953 . S
Zn5 O2 1.945 1_556 S
Zn5 O7 1.932 . S
Zn5 O14 1.977 1_455 S
Zn5 O15 1.910 . S
O6 Zn3 1.933 . S
O6 C17 1.228 1_565 S
O7 Zn5 1.932 . S
O7 C17 1.306 1_455 S
O8 Zn1 1.919 . S
O8 C19 1.253 1_554 S
O9 Zn3 1.941 1_455 S
O9 C19 1.283 . S
O10 Zn3 1.965 . S
O10 C18 1.303 1_556 S
O11 Zn4 1.938 1_565 S
O11 C18 1.247 . S
O12 Zn4 1.906 . S
O12 C20 1.304 1_554 S
O13 Zn1 1.924 1_545 S
O13 C21 1.311 . S
O14 Zn5 1.977 1_655 S
O14 C20 1.272 . S
O15 Zn5 1.910 . S
O15 C21 1.231 1_556 S
C16 O0 1.225 1_545 S
C16 O22 1.298 1_455 S
C17 O6 1.228 1_545 S
C17 O7 1.306 1_655 S
C18 O10 1.303 1_554 S
C18 O11 1.247 . S
C19 O8 1.253 1_556 S
C19 O9 1.283 . S
C20 O12 1.304 1_556 S
C20 O14 1.272 . S
C21 O13 1.311 . S
C21 O15 1.231 1_554 S
O22 Zn4 1.953 . S
O22 C16 1.298 1_655 S
O23 Zn24 1.953 . S
O23 C39 1.225 . S
Zn24 O23 1.953 . S
Zn24 O25 1.949 . S
Zn24 O31 1.919 . S
Zn24 O36 1.924 . S
O25 Zn24 1.949 . S
O25 Zn26 1.923 . S
O25 Zn27 1.950 . S
O25 Zn28 1.945 . S
Zn26 O25 1.923 . S
Zn26 O29 1.933 . S
Zn26 O32 1.941 . S
Zn26 O33 1.965 . S
Zn27 O25 1.950 . S
Zn27 O34 1.938 . S
Zn27 O35 1.906 . S
Zn27 O45 1.953 . S
Zn28 O25 1.945 . S
Zn28 O30 1.932 . S
Zn28 O37 1.977 . S
Zn28 O38 1.910 . S
O29 Zn26 1.933 . S
O29 C40 1.226 . S
O30 Zn28 1.932 . S
O30 C40 1.307 . S
O31 Zn24 1.919 . S
O31 C42 1.253 . S
O32 Zn26 1.941 . S
O32 C42 1.283 . S
O33 Zn26 1.965 . S
O33 C41 1.303 . S
O34 Zn27 1.938 . S
O34 C41 1.247 . S
O35 Zn27 1.906 . S
O35 C43 1.304 . S
O36 Zn24 1.924 . S
O36 C44 1.311 . S
O37 Zn28 1.977 . S
O37 C43 1.272 . S
O38 Zn28 1.910 . S
O38 C44 1.231 . S
C39 O23 1.225 . S
C39 O45 1.298 . S
C40 O29 1.226 . S
C40 O30 1.307 . S
C41 O33 1.303 . S
C41 O34 1.247 . S
C42 O31 1.253 . S
C42 O32 1.283 . S
C43 O35 1.304 . S
C43 O37 1.272 . S
C44 O36 1.311 . S
C44 O38 1.231 . S
O45 Zn27 1.953 . S
O45 C39 1.298 . S
H46 C51 0.929 . S
H47 C56 0.931 . S
H48 C54 0.930 . S
N49 N50 1.234 . S
N49 C53 1.453 . S
N50 N49 1.234 . S
C51 H46 0.929 . S
C51 C52 1.373 . S
C51 C53 1.368 1_465 S
C52 C51 1.373 . S
C52 C56 1.397 . S
C53 N49 1.453 . S
C53 C51 1.368 1_645 S
C53 C54 1.373 . S
C54 H48 0.930 . S
C54 C53 1.373 . S
C54 C55 1.378 1_655 S
C55 C54 1.378 1_455 S
C55 C56 1.374 1_545 S
C56 H47 0.931 . S
C56 C52 1.397 . S
C56 C55 1.374 1_565 S
H57 C62 0.929 . S
H58 C67 0.931 . S
H59 C65 0.930 . S
N60 N61 1.234 . S
N60 C64 1.453 . S
N61 N60 1.234 . S
C62 H57 0.929 . S
C62 C63 1.373 . S
C62 C64 1.368 1_665 S
C63 C62 1.373 . S
C63 C67 1.397 . S
C64 N60 1.453 . S
C64 C62 1.368 1_445 S
C64 C65 1.373 . S
C65 H59 0.930 . S
C65 C64 1.373 . S
C65 C66 1.371 1_455 S
C66 C65 1.371 1_655 S
C66 C67 1.383 1_545 S
C67 H58 0.931 . S
C67 C63 1.397 . S
C67 C66 1.383 1_565 S
H68 C73 0.929 . S
H69 C78 0.931 . S
H70 C76 0.930 . S
N71 N72 1.234 . S
N71 C75 1.453 . S
N72 N71 1.234 . S
C73 H68 0.929 . S
C73 C74 1.373 . S
C73 C75 1.368 . S
C74 C73 1.373 . S
C74 C78 1.397 . S
C75 N71 1.453 . S
C75 C73 1.368 . S
C75 C76 1.373 . S
C76 H70 0.930 . S
C76 C75 1.373 . S
C76 C77 1.371 . S
C77 C76 1.371 . S
C77 C78 1.383 . S
C78 H69 0.931 . S
C78 C74 1.397 . S
C78 C77 1.383 . S
H79 C84 0.929 . S
H80 C89 0.931 . S
H81 C87 0.930 . S
N82 N83 1.234 . S
N82 C86 1.453 . S
N83 N82 1.234 . S
C84 H79 0.929 . S
C84 C85 1.373 . S
C84 C86 1.368 . S
C85 C84 1.373 . S
C85 C89 1.397 . S
C86 N82 1.453 . S
C86 C84 1.368 . S
C86 C87 1.373 . S
C87 H81 0.930 . S
C87 C86 1.373 . S
C87 C88 1.371 . S
C88 C87 1.371 . S
C88 C89 1.383 . S
C89 H80 0.931 . S
C89 C85 1.397 . S
C89 C88 1.383 . S
H90 C98 0.950 1_556 S
H91 C103 0.950 . S
H92 C100 0.926 1_556 S
H93 C102 0.950 . S
H94 C104 0.950 . S
H95 C106 0.950 . S
H96 C108 0.950 . S
H97 C109 0.950 . S
C98 H90 0.950 1_554 S
C98 C99 1.386 . S
C98 C100 1.391 . S
C99 C98 1.386 . S
C99 C103 1.393 . S
C100 H92 0.926 1_554 S
C100 C98 1.391 . S
C100 C101 1.400 . S
C101 C100 1.400 . S
C101 C102 1.398 . S
C101 C107 1.491 . S
C102 H93 0.950 . S
C102 C101 1.398 . S
C102 C103 1.391 . S
C103 H91 0.950 . S
C103 C99 1.393 . S
C103 C102 1.391 . S
C104 H94 0.950 . S
C104 C105 1.386 . S
C104 C106 1.391 . S
C105 C104 1.386 . S
C105 C109 1.393 . S
C106 H95 0.950 . S
C106 C104 1.391 . S
C106 C107 1.400 . S
C107 C101 1.491 . S
C107 C106 1.400 . S
C107 C108 1.398 . S
C108 H96 0.950 . S
C108 C107 1.398 . S
C108 C109 1.391 . S
C109 H97 0.950 . S
C109 C105 1.393 . S
C109 C108 1.391 . S
H110 C118 0.950 . S
H111 C123 0.950 . S
H112 C120 0.950 . S
H113 C122 0.950 . S
H114 C124 0.950 . S
H115 C126 0.950 1_554 S
H116 C128 0.950 . S
H117 C129 0.950 . S
C118 H110 0.950 . S
C118 C119 1.386 . S
C118 C120 1.391 . S
C119 C118 1.386 . S
C119 C123 1.393 1_556 S
C120 H112 0.950 . S
C120 C118 1.391 . S
C120 C121 1.400 . S
C121 C120 1.400 . S
C121 C122 1.398 1_556 S
C121 C127 1.491 . S
C122 H113 0.950 . S
C122 C121 1.398 1_554 S
C122 C123 1.391 . S
C123 H111 0.950 . S
C123 C119 1.393 1_554 S
C123 C122 1.391 . S
C124 H114 0.950 . S
C124 C125 1.386 . S
C124 C126 1.391 . S
C125 C124 1.386 . S
C125 C129 1.393 . S
C126 H115 0.950 1_556 S
C126 C124 1.391 . S
C126 C127 1.400 . S
C127 C121 1.491 . S
C127 C126 1.400 . S
C127 C128 1.398 . S
C128 H116 0.950 . S
C128 C127 1.398 . S
C128 C129 1.391 . S
C129 H117 0.950 . S
C129 C125 1.393 . S
C129 C128 1.391 . S
H130 C138 0.950 1_556 S
H131 C143 0.950 . S
H132 C140 0.950 1_556 S
H133 C142 0.950 . S
H134 C144 0.950 . S
H135 C146 0.950 . S
H136 C148 0.950 . S
H137 C149 0.950 . S
C138 H130 0.950 1_554 S
C138 C139 1.386 . S
C138 C140 1.391 . S
C139 C138 1.386 . S
C139 C143 1.393 . S
C140 H132 0.950 1_554 S
C140 C138 1.391 . S
C140 C141 1.400 . S
C141 C140 1.400 . S
C141 C142 1.398 . S
C141 C147 1.491 . S
C142 H133 0.950 . S
C142 C141 1.398 . S
C142 C143 1.391 . S
C143 H131 0.950 . S
C143 C139 1.393 . S
C143 C142 1.391 . S
C144 H134 0.950 . S
C144 C145 1.386 . S
C144 C146 1.391 . S
C145 C144 1.386 . S
C145 C149 1.393 . S
C146 H135 0.950 . S
C146 C144 1.391 . S
C146 C147 1.400 . S
C147 C141 1.491 . S
C147 C146 1.400 . S
C147 C148 1.398 . S
C148 H136 0.950 . S
C148 C147 1.398 . S
C148 C149 1.391 . S
C149 H137 0.950 . S
C149 C145 1.393 . S
C149 C148 1.391 . S
H150 C158 0.950 . S
H151 C163 0.950 1_554 S
H152 C160 0.950 . S
H153 C162 0.950 . S
H154 C164 0.950 . S
H155 C166 0.950 . S
H156 C168 0.950 . S
H157 C169 0.950 . S
C158 H150 0.950 . S
C158 C159 1.386 . S
C158 C160 1.391 . S
C159 C158 1.386 . S
C159 C163 1.393 . S
C160 H152 0.950 . S
C160 C158 1.391 . S
C160 C161 1.400 . S
C161 C160 1.400 . S
C161 C162 1.398 . S
C161 C167 1.491 . S
C162 H153 0.950 . S
C162 C161 1.398 . S
C162 C163 1.391 . S
C163 H151 0.950 1_556 S
C163 C159 1.393 . S
C163 C162 1.391 . S
C164 H154 0.950 . S
C164 C165 1.386 . S
C164 C166 1.391 . S
C165 C164 1.386 . S
C165 C169 1.393 . S
C166 H155 0.950 . S
C166 C164 1.391 . S
C166 C167 1.400 . S
C167 C161 1.491 . S
C167 C166 1.400 . S
C167 C168 1.398 . S
C168 H156 0.950 . S
C168 C167 1.398 . S
C168 C169 1.391 . S
C169 H157 0.950 . S
C169 C165 1.393 . S
C169 C168 1.391 . S
H170 C178 0.950 . S
H171 C183 0.950 . S
H172 C180 0.950 . S
H173 C182 0.950 . S
H174 C184 0.950 . S
H175 C186 0.950 . S
H176 C188 0.950 . S
H177 C189 0.950 . S
C178 H170 0.950 . S
C178 C179 1.386 . S
C178 C180 1.391 . S
C179 C178 1.386 . S
C179 C183 1.393 . S
C180 H172 0.950 . S
C180 C178 1.391 . S
C180 C181 1.400 . S
C181 C180 1.400 . S
C181 C182 1.398 . S
C181 C187 1.491 . S
C182 H173 0.950 . S
C182 C181 1.398 . S
C182 C183 1.391 . S
C183 H171 0.950 . S
C183 C179 1.393 . S
C183 C182 1.391 . S
C184 H174 0.950 . S
C184 C185 1.386 . S
C184 C186 1.391 . S
C185 C184 1.386 . S
C185 C189 1.393 . S
C186 H175 0.950 . S
C186 C184 1.391 . S
C186 C187 1.400 . S
C187 C181 1.491 . S
C187 C186 1.400 . S
C187 C188 1.398 . S
C188 H176 0.950 . S
C188 C187 1.398 . S
C188 C189 1.391 . S
C189 H177 0.950 . S
C189 C185 1.393 . S
C189 C188 1.391 . S
H190 C198 0.950 . S
H191 C203 0.950 . S
H192 C200 0.950 . S
H193 C202 0.950 . S
H194 C204 0.950 . S
H195 C206 0.950 . S
H196 C208 0.950 . S
H197 C209 0.950 . S
C198 H190 0.950 . S
C198 C199 1.386 . S
C198 C200 1.391 . S
C199 C198 1.386 . S
C199 C203 1.393 . S
C200 H192 0.950 . S
C200 C198 1.391 . S
C200 C201 1.400 . S
C201 C200 1.400 . S
C201 C202 1.398 . S
C201 C207 1.491 . S
C202 H193 0.950 . S
C202 C201 1.398 . S
C202 C203 1.391 . S
C203 H191 0.950 . S
C203 C199 1.393 . S
C203 C202 1.391 . S
C204 H194 0.950 . S
C204 C205 1.386 . S
C204 C206 1.391 . S
C205 C204 1.386 . S
C205 C209 1.393 . S
C206 H195 0.950 . S
C206 C204 1.391 . S
C206 C207 1.400 . S
C207 C201 1.491 . S
C207 C206 1.400 . S
C207 C208 1.398 . S
C208 H196 0.950 . S
C208 C207 1.398 . S
C208 C209 1.391 . S
C209 H197 0.950 . S
C209 C205 1.393 . S
C209 C208 1.391 . S
H210 C218 0.950 . S
H211 C223 0.950 . S
H212 C220 0.950 . S
H213 C222 0.950 . S
H214 C224 0.950 . S
H215 C226 0.950 . S
H216 C228 0.950 . S
H217 C229 0.950 . S
C218 H210 0.950 . S
C218 C219 1.386 . S
C218 C220 1.391 . S
C219 C218 1.386 . S
C219 C223 1.393 . S
C220 H212 0.950 . S
C220 C218 1.391 . S
C220 C221 1.400 . S
C221 C220 1.400 . S
C221 C222 1.398 . S
C221 C227 1.491 . S
C222 H213 0.950 . S
C222 C221 1.398 . S
C222 C223 1.391 . S
C223 H211 0.950 . S
C223 C219 1.393 . S
C223 C222 1.391 . S
C224 H214 0.950 . S
C224 C225 1.386 . S
C224 C226 1.391 . S
C225 C224 1.386 . S
C225 C229 1.393 . S
C226 H215 0.950 . S
C226 C224 1.391 . S
C226 C227 1.400 . S
C227 C221 1.491 . S
C227 C226 1.400 . S
C227 C228 1.398 . S
C228 H216 0.950 . S
C228 C227 1.398 . S
C228 C229 1.391 . S
C229 H217 0.950 . S
C229 C225 1.393 . S
C229 C228 1.391 . S
H230 C238 0.950 . S
H231 C243 0.950 . S
H232 C240 0.950 . S
H233 C242 0.950 . S
H234 C244 0.950 . S
H235 C246 0.950 . S
H236 C248 0.950 . S
H237 C249 0.950 . S
C238 H230 0.950 . S
C238 C239 1.386 . S
C238 C240 1.391 . S
C239 C238 1.386 . S
C239 C243 1.393 . S
C240 H232 0.950 . S
C240 C238 1.391 . S
C240 C241 1.400 . S
C241 C240 1.400 . S
C241 C242 1.398 . S
C241 C247 1.491 . S
C242 H233 0.950 . S
C242 C241 1.398 . S
C242 C243 1.391 . S
C243 H231 0.950 . S
C243 C239 1.393 . S
C243 C242 1.391 . S
C244 H234 0.950 . S
C244 C245 1.386 . S
C244 C246 1.391 . S
C245 C244 1.386 . S
C245 C249 1.393 . S
C246 H235 0.950 . S
C246 C244 1.391 . S
C246 C247 1.400 . S
C247 C241 1.491 . S
C247 C246 1.400 . S
C247 C248 1.398 . S
C248 H236 0.950 . S
C248 C247 1.398 . S
C248 C249 1.391 . S
C249 H237 0.950 . S
C249 C245 1.393 . S
C249 C248 1.391 . S
H250 C258 0.950 . S
H251 C263 0.950 . S
H252 C260 0.950 . S
H253 C262 0.950 . S
H254 C264 0.949 1_655 S
H255 C266 0.948 1_655 S
H256 C268 0.950 . S
H257 C269 0.950 . S
C258 H250 0.950 . S
C258 C259 1.386 . S
C258 C260 1.391 . S
C259 C258 1.386 . S
C259 C263 1.392 1_445 S
C260 H252 0.950 . S
C260 C258 1.391 . S
C260 C261 1.400 . S
C261 C260 1.400 . S
C261 C262 1.398 1_445 S
C261 C267 1.491 . S
C262 H253 0.950 . S
C262 C261 1.398 1_665 S
C262 C263 1.391 . S
C263 H251 0.950 . S
C263 C259 1.392 1_665 S
C263 C262 1.391 . S
C264 H254 0.949 1_455 S
C264 C265 1.386 1_565 S
C264 C266 1.390 . S
C265 C264 1.386 1_545 S
C265 C269 1.393 . S
C266 H255 0.948 1_455 S
C266 C264 1.390 . S
C266 C267 1.404 1_565 S
C267 C261 1.491 . S
C267 C266 1.404 1_545 S
C267 C268 1.398 . S
C268 H256 0.950 . S
C268 C267 1.398 . S
C268 C269 1.391 . S
C269 H257 0.950 . S
C269 C265 1.393 . S
C269 C268 1.391 . S
H270 C278 0.950 . S
H271 C283 0.950 . S
H272 C280 0.950 . S
H273 C282 0.950 . S
H274 C284 0.950 . S
H275 C286 0.950 . S
H276 C288 0.950 . S
H277 C289 0.950 . S
C278 H270 0.950 . S
C278 C279 1.386 1_465 S
C278 C280 1.391 . S
C279 C278 1.386 1_645 S
C279 C283 1.393 . S
C280 H272 0.950 . S
C280 C278 1.391 . S
C280 C281 1.400 1_465 S
C281 C280 1.400 1_645 S
C281 C282 1.398 . S
C281 C287 1.491 1_655 S
C282 H273 0.950 . S
C282 C281 1.398 . S
C282 C283 1.391 . S
C283 H271 0.950 . S
C283 C279 1.393 . S
C283 C282 1.391 . S
C284 H274 0.950 . S
C284 C285 1.386 1_655 S
C284 C286 1.391 . S
C285 C284 1.386 1_455 S
C285 C289 1.393 1_545 S
C286 H275 0.950 . S
C286 C284 1.391 . S
C286 C287 1.400 1_655 S
C287 C281 1.491 1_455 S
C287 C286 1.400 1_455 S
C287 C288 1.398 1_545 S
C288 H276 0.950 . S
C288 C287 1.398 1_565 S
C288 C289 1.391 . S
C289 H277 0.950 . S
C289 C285 1.393 1_565 S
C289 C288 1.391 . S
H290 C298 0.950 . S
H291 C303 0.950 . S
H292 C300 0.950 . S
H293 C302 0.950 . S
H294 C304 0.950 . S
H295 C306 0.950 . S
H296 C308 0.950 . S
H297 C309 0.950 . S
C298 H290 0.950 . S
C298 C299 1.386 . S
C298 C300 1.391 . S
C299 C298 1.386 . S
C299 C303 1.393 . S
C300 H292 0.950 . S
C300 C298 1.391 . S
C300 C301 1.400 . S
C301 C300 1.400 . S
C301 C302 1.398 . S
C301 C307 1.491 . S
C302 H293 0.950 . S
C302 C301 1.398 . S
C302 C303 1.391 . S
C303 H291 0.950 . S
C303 C299 1.393 . S
C303 C302 1.391 . S
C304 H294 0.950 . S
C304 C305 1.386 . S
C304 C306 1.391 . S
C305 C304 1.386 . S
C305 C309 1.393 . S
C306 H295 0.950 . S
C306 C304 1.391 . S
C306 C307 1.400 . S
C307 C301 1.491 . S
C307 C306 1.400 . S
C307 C308 1.398 . S
C308 H296 0.950 . S
C308 C307 1.398 . S
C308 C309 1.391 . S
C309 H297 0.950 . S
C309 C305 1.393 . S
C309 C308 1.391 . S
H310 C318 0.950 . S
H311 C323 0.950 . S
H312 C320 0.950 . S
H313 C322 0.950 . S
H314 C324 0.950 . S
H315 C326 0.950 . S
H316 C328 0.950 . S
H317 C329 0.950 . S
C318 H310 0.950 . S
C318 C319 1.386 . S
C318 C320 1.391 . S
C319 C318 1.386 . S
C319 C323 1.393 . S
C320 H312 0.950 . S
C320 C318 1.391 . S
C320 C321 1.400 . S
C321 C320 1.400 . S
C321 C322 1.398 . S
C321 C327 1.491 . S
C322 H313 0.950 . S
C322 C321 1.398 . S
C322 C323 1.391 . S
C323 H311 0.950 . S
C323 C319 1.393 . S
C323 C322 1.391 . S
C324 H314 0.950 . S
C324 C325 1.386 . S
C324 C326 1.391 . S
C325 C324 1.386 . S
C325 C329 1.393 . S
C326 H315 0.950 . S
C326 C324 1.391 . S
C326 C327 1.400 . S
C327 C321 1.491 . S
C327 C326 1.400 . S
C327 C328 1.398 . S
C328 H316 0.950 . S
C328 C327 1.398 . S
C328 C329 1.391 . S
C329 H317 0.950 . S
C329 C325 1.393 . S
C329 C328 1.391 . S
C105 C85 1.512 . S
C99 C21 1.514 . S
C119 C19 1.414 . S
C125 N72 1.391 . S
C139 C18 1.387 . S
C145 N83 1.378 . S
C159 C20 1.505 . S
C165 C74 1.508 . S
C179 C44 1.515 . S
C185 C63 1.521 . S
C199 C42 1.415 . S
C205 N50 1.400 . S
C225 N61 1.381 . S
C219 C41 1.383 . S
C245 C52 1.509 . S
C239 C43 1.505 . S
C259 C16 1.525 . S
C265 C55 1.518 . S
C279 C17 1.488 . S
C285 C66 1.488 1_455 S
C305 C77 1.517 . S
C299 C39 1.527 . S
C319 C40 1.489 . S
C325 C88 1.486 . S
