# Generated by pormake.
# Topology cml, (3,6)-cn, num edge types: 1
# Building blocks:
#     Node 0, Type 0, BuildingBlock: ESEHIV_clean_linker_0, # of connection points: 3
#     Node 1, Type 0, BuildingBlock: ESEHIV_clean_linker_0, # of connection points: 3
#     Node 2, Type 0, BuildingBlock: ESEHIV_clean_linker_0, # of connection points: 3
#     Node 3, Type 0, BuildingBlock: ESEHIV_clean_linker_0, # of connection points: 3
#     Node 4, Type 0, BuildingBlock: ESEHIV_clean_linker_0, # of connection points: 3
#     Node 5, Type 0, BuildingBlock: ESEHIV_clean_linker_0, # of connection points: 3
#     Node 6, Type 0, BuildingBlock: ESEHIV_clean_linker_0, # of connection points: 3
#     Node 7, Type 0, BuildingBlock: ESEHIV_clean_linker_0, # of connection points: 3
#     Node 8, Type 1, BuildingBlock: IZENUY_clean_sbu_0, # of connection points: 6
#     Node 9, Type 1, BuildingBlock: IZENUY_clean_sbu_0, # of connection points: 6
#     Node 10, Type 1, BuildingBlock: IZENUY_clean_sbu_0, # of connection points: 6
#     Node 11, Type 1, BuildingBlock: IZENUY_clean_sbu_0, # of connection points: 6
#     Edge 12, Type (0, 1), BuildingBlock: UVAHIK_clean_linker_0, # of connection points: 2
#     Edge 13, Type (0, 1), BuildingBlock: UVAHIK_clean_linker_0, # of connection points: 2
#     Edge 14, Type (0, 1), BuildingBlock: UVAHIK_clean_linker_0, # of connection points: 2
#     Edge 15, Type (0, 1), BuildingBlock: UVAHIK_clean_linker_0, # of connection points: 2
#     Edge 16, Type (0, 1), BuildingBlock: UVAHIK_clean_linker_0, # of connection points: 2
#     Edge 17, Type (0, 1), BuildingBlock: UVAHIK_clean_linker_0, # of connection points: 2
#     Edge 18, Type (0, 1), BuildingBlock: UVAHIK_clean_linker_0, # of connection points: 2
#     Edge 19, Type (0, 1), BuildingBlock: UVAHIK_clean_linker_0, # of connection points: 2
#     Edge 20, Type (0, 1), BuildingBlock: UVAHIK_clean_linker_0, # of connection points: 2
#     Edge 21, Type (0, 1), BuildingBlock: UVAHIK_clean_linker_0, # of connection points: 2
#     Edge 22, Type (0, 1), BuildingBlock: UVAHIK_clean_linker_0, # of connection points: 2
#     Edge 23, Type (0, 1), BuildingBlock: UVAHIK_clean_linker_0, # of connection points: 2
#     Edge 24, Type (0, 1), BuildingBlock: UVAHIK_clean_linker_0, # of connection points: 2
#     Edge 25, Type (0, 1), BuildingBlock: UVAHIK_clean_linker_0, # of connection points: 2
#     Edge 26, Type (0, 1), BuildingBlock: UVAHIK_clean_linker_0, # of connection points: 2
#     Edge 27, Type (0, 1), BuildingBlock: UVAHIK_clean_linker_0, # of connection points: 2
#     Edge 28, Type (0, 1), BuildingBlock: UVAHIK_clean_linker_0, # of connection points: 2
#     Edge 29, Type (0, 1), BuildingBlock: UVAHIK_clean_linker_0, # of connection points: 2
#     Edge 30, Type (0, 1), BuildingBlock: UVAHIK_clean_linker_0, # of connection points: 2
#     Edge 31, Type (0, 1), BuildingBlock: UVAHIK_clean_linker_0, # of connection points: 2
#     Edge 32, Type (0, 1), BuildingBlock: UVAHIK_clean_linker_0, # of connection points: 2
#     Edge 33, Type (0, 1), BuildingBlock: UVAHIK_clean_linker_0, # of connection points: 2
#     Edge 34, Type (0, 1), BuildingBlock: UVAHIK_clean_linker_0, # of connection points: 2
#     Edge 35, Type (0, 1), BuildingBlock: UVAHIK_clean_linker_0, # of connection points: 2
# Relax obj value: 0.055
# Max RMSD: 0.070
# Mean RMSD: 0.067
data_MOF--net-cml--node1-IZENUY_clean_sbu_0--node2-ESEHIV_clean_linker_0--edge1-UVAHIK_clean_linker_0
_symmetry_space_group_name_H-M    P1
_symmetry_Int_Tables_number       1
_symmetry_cell_setting            triclinic
loop_
_symmetry_equiv_pos_as_xyz
'x, y, z'
_cell_length_a     43.765128
_cell_length_b     50.836888
_cell_length_c     47.127125
_cell_angle_alpha  90.016787
_cell_angle_beta   90.024591
_cell_angle_gamma 89.970168
loop_
_atom_site_label
_atom_site_type_symbol
_atom_site_fract_x
_atom_site_fract_y
_atom_site_fract_z
_atom_type_partial_charge
H0 H 0.30627 0.42229 0.03017 0.0
H1 H 0.25233 0.4009 0.9575 0.0
H2 H 0.25508 0.35017 0.03055 0.0
C3 C 0.29033 0.40905 0.01989 0.0
C4 C 0.28147 0.38588 0.03384 0.0
C5 C 0.28011 0.41459 0.99227 0.0
C6 C 0.26037 0.39678 0.9788 0.0
C7 C 0.25136 0.37344 0.99235 0.0
C8 C 0.26215 0.36803 0.01984 0.0
H9 H 0.69543 0.57623 0.53028 0.0
H10 H 0.74873 0.5983 0.45756 0.0
H11 H 0.74502 0.6491 0.53061 0.0
C12 C 0.71109 0.58969 0.51997 0.0
C13 C 0.7198 0.61285 0.53404 0.0
C14 C 0.72103 0.58446 0.49222 0.0
C15 C 0.74031 0.60258 0.47868 0.0
C16 C 0.74908 0.626 0.49227 0.0
C17 C 0.73868 0.631 0.52 0.0
H18 H 0.69764 0.42422 0.03267 0.0
H19 H 0.75386 0.35498 0.03526 0.0
H20 H 0.75106 0.40276 0.95986 0.0
C21 C 0.71441 0.41147 0.0228 0.0
C22 C 0.72389 0.41666 0.99491 0.0
C23 C 0.72485 0.38914 0.03743 0.0
C24 C 0.74531 0.37197 0.02388 0.0
C25 C 0.7549 0.37662 0.99583 0.0
C26 C 0.74415 0.39913 0.98158 0.0
H27 H 0.30528 0.5753 0.53163 0.0
H28 H 0.25276 0.59541 0.4578 0.0
H29 H 0.25148 0.64601 0.53115 0.0
C30 C 0.28909 0.58819 0.52114 0.0
C31 C 0.2794 0.61128 0.53481 0.0
C32 C 0.27946 0.58222 0.49348 0.0
C33 C 0.25984 0.59974 0.47934 0.0
C34 C 0.24974 0.62295 0.49264 0.0
C35 C 0.25955 0.62846 0.52047 0.0
H36 H 0.80669 0.92088 0.03091 0.0
H37 H 0.76033 0.89699 0.95461 0.0
H38 H 0.75526 0.84906 0.02969 0.0
C39 C 0.79237 0.90708 0.01951 0.0
C40 C 0.78197 0.88444 0.03354 0.0
C41 C 0.78516 0.91168 0.99086 0.0
C42 C 0.76622 0.89365 0.97663 0.0
C43 C 0.75491 0.87121 0.99054 0.0
C44 C 0.76325 0.86659 0.01893 0.0
H45 H 0.19336 0.07818 0.5291 0.0
H46 H 0.24925 0.09705 0.45699 0.0
H47 H 0.24637 0.14926 0.52884 0.0
C48 C 0.20989 0.09089 0.51886 0.0
C49 C 0.21933 0.11402 0.53259 0.0
C50 C 0.22025 0.08477 0.49144 0.0
C51 C 0.24061 0.10198 0.47787 0.0
C52 C 0.25012 0.12535 0.49111 0.0
C53 C 0.23941 0.13118 0.51853 0.0
H54 H 0.19665 0.92515 0.03205 0.0
H55 H 0.25079 0.8546 0.03326 0.0
H56 H 0.2505 0.90444 0.95933 0.0
C57 C 0.21309 0.91219 0.022 0.0
C58 C 0.2232 0.9179 0.99444 0.0
C59 C 0.22263 0.88927 0.03609 0.0
C60 C 0.24282 0.87202 0.02227 0.0
C61 C 0.25309 0.87728 0.99453 0.0
C62 C 0.24311 0.90031 0.9808 0.0
H63 H 0.80381 0.07262 0.53152 0.0
H64 H 0.75079 0.09421 0.4586 0.0
H65 H 0.75688 0.14697 0.52987 0.0
C66 C 0.78905 0.08658 0.52086 0.0
C67 C 0.78202 0.11067 0.53401 0.0
C68 C 0.77809 0.08059 0.49363 0.0
C69 C 0.75898 0.09866 0.47977 0.0
C70 C 0.75085 0.12256 0.49279 0.0
C71 C 0.76258 0.12841 0.5199 0.0
Fe72 Fe -0.00042 0.81514 0.31388 0.0
Fe73 Fe 0.00216 0.84241 0.37195 0.0
O74 O 0.00018 0.84437 0.33451 0.0
Fe75 Fe -0.00129 0.87553 0.31786 0.0
O76 O 0.9624 0.86798 0.3014 0.0
O77 O 0.97521 0.82881 0.28567 0.0
O78 O 0.96477 0.80393 0.33111 0.0
C79 C 0.962 0.80103 0.35758 0.0
C80 C 0.03803 0.84596 0.28235 0.0
O81 O 0.98086 0.81155 0.37445 0.0
C82 C 0.04079 0.88529 0.35932 0.0
O83 O 0.02397 0.79622 0.33845 0.0
O84 O 0.03838 0.82534 0.37024 0.0
O85 O 0.02015 0.86519 0.28644 0.0
O86 O 0.03426 0.82442 0.2952 0.0
C87 C 0.96022 0.8818 0.36568 0.0
O88 O 0.02394 0.87285 0.37647 0.0
O89 O 0.03501 0.88533 0.33313 0.0
C90 C 0.0425 0.80384 0.35747 0.0
O91 O 0.96597 0.85943 0.37597 0.0
O92 O 0.97694 0.89144 0.34637 0.0
C93 C 0.95748 0.84854 0.28544 0.0
Fe94 Fe -0.0002 0.15553 0.87144 0.0
Fe95 Fe 0.00281 0.12362 0.81649 0.0
O96 O 0.00098 0.15438 0.83395 0.0
Fe97 Fe 0.00031 0.18393 0.81402 0.0
O98 O 0.0352 0.19555 0.83086 0.0
O99 O 0.02044 0.18671 0.87433 0.0
O100 O 0.03646 0.13907 0.87432 0.0
C101 C 0.04222 0.11687 0.8636 0.0
C102 C 0.95829 0.19375 0.85872 0.0
O103 O 0.02524 0.1074 0.84438 0.0
C104 C 0.9625 0.15317 0.78186 0.0
O105 O 0.97894 0.12454 0.87549 0.0
O106 O 0.9668 0.11315 0.83202 0.0
O107 O 0.97609 0.20189 0.8394 0.0
O108 O 0.96312 0.17206 0.87093 0.0
C109 C 0.04279 0.15193 0.78422 0.0
O110 O 0.98097 0.13429 0.78544 0.0
O111 O 0.96538 0.17425 0.79578 0.0
C112 C 0.96195 0.11215 0.85837 0.0
O113 O 0.03875 0.13206 0.7998 0.0
O114 O 0.02447 0.17125 0.78515 0.0
C115 C 0.03856 0.19796 0.85733 0.0
Fe116 Fe 0.50124 0.31519 0.31429 0.0
Fe117 Fe 0.50332 0.34276 0.37223 0.0
O118 O 0.50163 0.34452 0.33476 0.0
Fe119 Fe 0.50032 0.37558 0.31788 0.0
O120 O 0.46411 0.36794 0.30126 0.0
O121 O 0.47718 0.32875 0.28577 0.0
O122 O 0.46627 0.30406 0.33127 0.0
C123 C 0.46324 0.30128 0.35773 0.0
C124 C 0.54001 0.34589 0.283 0.0
O125 O 0.48183 0.31198 0.37473 0.0
C126 C 0.5422 0.38546 0.35951 0.0
O127 O 0.52532 0.29634 0.33916 0.0
O128 O 0.5395 0.32558 0.37091 0.0
O129 O 0.52195 0.36504 0.28668 0.0
O130 O 0.53614 0.3244 0.29591 0.0
C131 C 0.46162 0.38229 0.36549 0.0
O132 O 0.52523 0.37314 0.37667 0.0
O133 O 0.53652 0.38542 0.3333 0.0
C134 C 0.54369 0.30402 0.35827 0.0
O135 O 0.46716 0.35994 0.37593 0.0
O136 O 0.47843 0.39171 0.34614 0.0
C137 C 0.45942 0.34846 0.28528 0.0
Fe138 Fe 0.49859 0.6557 0.87205 0.0
Fe139 Fe 0.4999 0.62332 0.81733 0.0
O140 O 0.49963 0.65427 0.83452 0.0
Fe141 Fe 0.50043 0.68373 0.8143 0.0
O142 O 0.53577 0.69427 0.83108 0.0
O143 O 0.52083 0.68609 0.87466 0.0
O144 O 0.53438 0.63778 0.87514 0.0
C145 C 0.53908 0.61543 0.86434 0.0
C146 C 0.45885 0.69524 0.85891 0.0
O147 O 0.52162 0.60655 0.84519 0.0
C148 C 0.4607 0.65396 0.78292 0.0
O149 O 0.47595 0.62568 0.87639 0.0
O150 O 0.46362 0.6141 0.83301 0.0
O151 O 0.47696 0.70273 0.83952 0.0
O152 O 0.46285 0.67357 0.87137 0.0
C153 C 0.54124 0.64996 0.78478 0.0
O154 O 0.47827 0.63447 0.78639 0.0
O155 O 0.46516 0.67527 0.79603 0.0
C156 C 0.45839 0.61386 0.8593 0.0
O157 O 0.53611 0.63039 0.80049 0.0
O158 O 0.52398 0.66999 0.78553 0.0
C159 C 0.53913 0.69694 0.85752 0.0
C160 C 0.2053 0.36364 0.96257 0.0
C161 C 0.23109 0.3546 0.97742 0.0
C162 C 0.18657 0.34603 0.94792 0.0
C163 C 0.16584 0.27575 0.94472 0.0
H164 H 0.12874 0.29589 0.87317 0.0
C165 C 0.06385 0.21981 0.89854 0.0
C166 C 0.06237 0.21557 0.86908 0.0
C167 C 0.08622 0.23604 0.91016 0.0
C168 C 0.13921 0.28983 0.89294 0.0
H169 H 0.25776 0.32012 0.98827 0.0
H170 H 0.2252 0.28931 0.96249 0.0
H171 H 0.16506 0.32544 0.89612 0.0
H172 H 0.08342 0.2251 0.82871 0.0
H173 H 0.12292 0.25344 0.84919 0.0
H174 H 0.14038 0.24003 0.9414 0.0
C175 C 0.21913 0.30997 0.96255 0.0
C176 C 0.15972 0.30691 0.9063 0.0
C177 C 0.23777 0.32758 0.97734 0.0
C178 C 0.08387 0.22804 0.85148 0.0
C179 C 0.10641 0.24432 0.86319 0.0
C180 C 0.14545 0.25867 0.93134 0.0
C181 C 0.19329 0.31898 0.94767 0.0
C182 C 0.17293 0.30023 0.93255 0.0
C183 C 0.10788 0.24839 0.8927 0.0
C184 C 0.13149 0.26569 0.90554 0.0
H185 H 0.19939 0.38434 0.96256 0.0
H186 H 0.16653 0.3536 0.93719 0.0
H187 H 0.17538 0.27003 0.965 0.0
H188 H 0.04762 0.21066 0.91278 0.0
H189 H 0.08627 0.23916 0.9329 0.0
C190 C 0.76431 0.65057 0.44825 0.0
C191 C 0.7688 0.64529 0.47727 0.0
C192 C 0.78321 0.66829 0.43397 0.0
C193 C 0.83521 0.72394 0.44587 0.0
H194 H 0.86977 0.70447 0.37303 0.0
C195 C 0.93731 0.77873 0.39874 0.0
C196 C 0.93808 0.78362 0.36938 0.0
C197 C 0.91484 0.76269 0.41044 0.0
C198 C 0.85992 0.71039 0.39312 0.0
H199 H 0.79678 0.65448 0.51395 0.0
H200 H 0.82951 0.68567 0.48908 0.0
H201 H 0.83372 0.67493 0.39647 0.0
H202 H 0.91568 0.77543 0.32927 0.0
H203 H 0.876 0.74741 0.34992 0.0
H204 H 0.86134 0.7593 0.44269 0.0
C205 C 0.81118 0.67621 0.47747 0.0
C206 C 0.83934 0.69345 0.40657 0.0
C207 C 0.79241 0.65838 0.49173 0.0
C208 C 0.91578 0.77198 0.35196 0.0
C209 C 0.89313 0.75588 0.36375 0.0
C210 C 0.85561 0.7409 0.4324 0.0
C211 C 0.80684 0.68128 0.44843 0.0
C212 C 0.82718 0.69988 0.43329 0.0
C213 C 0.89237 0.75118 0.39318 0.0
C214 C 0.86864 0.73412 0.40612 0.0
H215 H 0.74598 0.64118 0.4366 0.0
H216 H 0.77909 0.67207 0.41167 0.0
H217 H 0.82573 0.72964 0.4662 0.0
H218 H 0.95417 0.78723 0.41284 0.0
H219 H 0.91533 0.75905 0.43309 0.0
C220 C 0.77113 0.33027 0.985 0.0
C221 C 0.77517 0.35749 0.9811 0.0
C222 C 0.78985 0.31223 0.97096 0.0
C223 C 0.83913 0.30461 0.90856 0.0
H224 H 0.87442 0.2466 0.95076 0.0
C225 C 0.93392 0.23823 0.86229 0.0
C226 C 0.93438 0.21152 0.86999 0.0
C227 C 0.91303 0.25553 0.87471 0.0
C228 C 0.86436 0.2624 0.9385 0.0
H229 H 0.80241 0.38698 0.95948 0.0
H230 H 0.83474 0.35538 0.93458 0.0
H231 H 0.84111 0.27784 0.97485 0.0
H232 H 0.91229 0.18181 0.89585 0.0
H233 H 0.87531 0.21183 0.91696 0.0
H234 H 0.86205 0.2891 0.87213 0.0
C235 C 0.81691 0.3481 0.94843 0.0
C236 C 0.84537 0.28037 0.95238 0.0
C237 C 0.79835 0.36618 0.96267 0.0
C238 C 0.91275 0.20232 0.88966 0.0
C239 C 0.89168 0.21959 0.9019 0.0
C240 C 0.85791 0.28651 0.8946 0.0
C241 C 0.81287 0.32095 0.95248 0.0
C242 C 0.8327 0.30173 0.93759 0.0
C243 C 0.89188 0.2465 0.89494 0.0
C244 C 0.87091 0.26525 0.90944 0.0
H245 H 0.75312 0.32284 0.99855 0.0
H246 H 0.78596 0.2914 0.97419 0.0
H247 H 0.82933 0.32071 0.89655 0.0
H248 H 0.95033 0.24601 0.84727 0.0
H249 H 0.91415 0.27615 0.86907 0.0
C250 C 0.23377 0.66898 0.48002 0.0
C251 C 0.22945 0.64168 0.47732 0.0
C252 C 0.21469 0.68662 0.46578 0.0
C253 C 0.16243 0.69246 0.40502 0.0
H254 H 0.12968 0.75184 0.44675 0.0
C255 C 0.0661 0.75895 0.36077 0.0
C256 C 0.06662 0.78581 0.36783 0.0
C257 C 0.08731 0.74157 0.37268 0.0
C258 C 0.139 0.73564 0.4346 0.0
H259 H 0.20147 0.61159 0.4575 0.0
H260 H 0.16846 0.64246 0.4323 0.0
H261 H 0.16397 0.72117 0.47039 0.0
H262 H 0.09082 0.81571 0.39179 0.0
H263 H 0.12824 0.78561 0.41191 0.0
H264 H 0.13767 0.70703 0.36912 0.0
C265 C 0.18679 0.65013 0.44534 0.0
C266 C 0.15857 0.718 0.44822 0.0
C267 C 0.20574 0.63247 0.45977 0.0
C268 C 0.08955 0.79508 0.38618 0.0
C269 C 0.11089 0.77776 0.39787 0.0
C270 C 0.143 0.71023 0.39129 0.0
C271 C 0.19099 0.67739 0.44832 0.0
C272 C 0.17044 0.69619 0.43361 0.0
C273 C 0.1097 0.75071 0.39172 0.0
C274 C 0.13099 0.73203 0.40594 0.0
H275 H 0.25217 0.67678 0.49289 0.0
H276 H 0.21873 0.70752 0.46816 0.0
H277 H 0.17151 0.67597 0.39314 0.0
H278 H 0.04868 0.75115 0.34677 0.0
H279 H 0.08549 0.72084 0.36767 0.0
C280 C 0.70843 0.8424 0.98933 0.0
C281 C 0.73412 0.8528 0.97545 0.0
C282 C 0.68813 0.82597 0.97492 0.0
C283 C 0.68069 0.78337 0.91157 0.0
H284 H 0.59412 0.7917 0.92666 0.0
C285 C 0.58509 0.72621 0.85134 0.0
C286 C 0.56254 0.71512 0.86892 0.0
C287 C 0.60674 0.74364 0.86259 0.0
C288 C 0.61824 0.78908 0.92231 0.0
H289 H 0.75907 0.85345 0.93567 0.0
H290 H 0.72318 0.82529 0.9103 0.0
H291 H 0.63065 0.82079 0.94973 0.0
H292 H 0.54529 0.71353 0.91212 0.0
H293 H 0.58273 0.7438 0.93144 0.0
H294 H 0.66798 0.75158 0.88403 0.0
C295 C 0.71889 0.82967 0.93243 0.0
C296 C 0.63919 0.80566 0.93562 0.0
C297 C 0.73927 0.84606 0.94689 0.0
C298 C 0.56223 0.72172 0.8979 0.0
C299 C 0.58359 0.73922 0.909 0.0
C300 C 0.65964 0.76683 0.8981 0.0
C301 C 0.69293 0.81961 0.94622 0.0
C302 C 0.67071 0.80274 0.9308 0.0
C303 C 0.60596 0.75048 0.89149 0.0
C304 C 0.62825 0.76926 0.90373 0.0
H305 H 0.70363 0.84738 0.01123 0.0
H306 H 0.66866 0.8182 0.98634 0.0
H307 H 0.70481 0.78046 0.90755 0.0
H308 H 0.586 0.72145 0.82895 0.0
H309 H 0.62374 0.75211 0.84862 0.0
C310 C 0.26669 0.1489 0.44685 0.0
C311 C 0.27068 0.14389 0.47599 0.0
C312 C 0.28591 0.16641 0.43263 0.0
C313 C 0.33706 0.22243 0.445 0.0
H314 H 0.37278 0.20345 0.3725 0.0
C315 C 0.43841 0.27885 0.39874 0.0
C316 C 0.43943 0.28367 0.36938 0.0
C317 C 0.41617 0.26247 0.41026 0.0
C318 C 0.3626 0.20922 0.3925 0.0
H319 H 0.29834 0.15312 0.51288 0.0
H320 H 0.3316 0.18397 0.48812 0.0
H321 H 0.33703 0.17339 0.39562 0.0
H322 H 0.41768 0.27501 0.32907 0.0
H323 H 0.37838 0.24641 0.3494 0.0
H324 H 0.36249 0.25818 0.44204 0.0
C325 C 0.31339 0.17448 0.47638 0.0
C326 C 0.34221 0.19198 0.40577 0.0
C327 C 0.29431 0.15685 0.49056 0.0
C328 C 0.41758 0.27164 0.35177 0.0
C329 C 0.39516 0.25519 0.36338 0.0
C330 C 0.35726 0.23968 0.43171 0.0
C331 C 0.30936 0.17946 0.44728 0.0
C332 C 0.32964 0.19826 0.43237 0.0
C333 C 0.39418 0.25053 0.3928 0.0
C334 C 0.3707 0.23309 0.40555 0.0
H335 H 0.24838 0.13959 0.43509 0.0
H336 H 0.28207 0.1701 0.41027 0.0
H337 H 0.32724 0.22801 0.46522 0.0
H338 H 0.45492 0.28765 0.41298 0.0
H339 H 0.41649 0.25888 0.43292 0.0
C340 C 0.26939 0.83116 0.9826 0.0
C341 C 0.27366 0.85845 0.97968 0.0
C342 C 0.28855 0.81344 0.96857 0.0
C343 C 0.34056 0.80733 0.90777 0.0
H344 H 0.37343 0.74801 0.94952 0.0
C345 C 0.43593 0.74034 0.8628 0.0
C346 C 0.43523 0.71348 0.86983 0.0
C347 C 0.41509 0.75786 0.87501 0.0
C348 C 0.36408 0.76421 0.93737 0.0
H349 H 0.30174 0.88842 0.95983 0.0
H350 H 0.33488 0.85742 0.93499 0.0
H351 H 0.33939 0.77885 0.97325 0.0
H352 H 0.41119 0.68375 0.89414 0.0
H353 H 0.37441 0.71412 0.91478 0.0
H354 H 0.36497 0.79258 0.87178 0.0
C355 C 0.31651 0.84982 0.94802 0.0
C356 C 0.34466 0.78193 0.95104 0.0
C357 C 0.29749 0.86756 0.96223 0.0
C358 C 0.41258 0.70438 0.88853 0.0
C359 C 0.3916 0.72184 0.90052 0.0
C360 C 0.35982 0.78947 0.894 0.0
C361 C 0.31229 0.82258 0.95112 0.0
C362 C 0.33275 0.80371 0.93642 0.0
C363 C 0.39291 0.74888 0.89432 0.0
C364 C 0.37187 0.76769 0.90865 0.0
H365 H 0.25091 0.82343 0.9954 0.0
H366 H 0.28451 0.79255 0.97106 0.0
H367 H 0.33142 0.82379 0.89589 0.0
H368 H 0.45316 0.748 0.84854 0.0
H369 H 0.41701 0.77857 0.86996 0.0
C370 C 0.70572 0.13275 0.46155 0.0
C371 C 0.73069 0.14163 0.47775 0.0
C372 C 0.68694 0.1506 0.44724 0.0
C373 C 0.66138 0.21911 0.44866 0.0
H374 H 0.63762 0.20663 0.37053 0.0
C375 C 0.59107 0.29551 0.3866 0.0
C376 C 0.56777 0.28604 0.36881 0.0
C377 C 0.61255 0.2783 0.39829 0.0
C378 C 0.64373 0.21028 0.39244 0.0
H379 H 0.75568 0.17638 0.4911 0.0
H380 H 0.72239 0.20751 0.46671 0.0
H381 H 0.67145 0.17555 0.39447 0.0
H382 H 0.54914 0.25111 0.34883 0.0
H383 H 0.58605 0.22099 0.36979 0.0
H384 H 0.63314 0.25336 0.44711 0.0
C385 C 0.71736 0.18669 0.46524 0.0
C386 C 0.66317 0.19249 0.40611 0.0
C387 C 0.73634 0.16884 0.47932 0.0
C388 C 0.56689 0.25906 0.36237 0.0
C389 C 0.58818 0.24179 0.37432 0.0
C390 C 0.64171 0.23674 0.43513 0.0
C391 C 0.6925 0.17776 0.44904 0.0
C392 C 0.67217 0.19673 0.43436 0.0
C393 C 0.61106 0.25114 0.39272 0.0
C394 C 0.6326 0.23258 0.40683 0.0
H395 H 0.70039 0.11198 0.46022 0.0
H396 H 0.66769 0.14318 0.4352 0.0
H397 H 0.66761 0.22268 0.47058 0.0
H398 H 0.59259 0.31625 0.39173 0.0
H399 H 0.63024 0.28632 0.41182 0.0
C400 C 0.295 0.4623 0.99146 0.0
C401 C 0.29142 0.43826 0.97708 0.0
C402 C 0.30821 0.48388 0.97786 0.0
C403 C 0.32909 0.51126 0.90786 0.0
H404 H 0.39475 0.54448 0.94987 0.0
C405 C 0.42136 0.57639 0.85498 0.0
C406 C 0.43374 0.59719 0.87089 0.0
C407 C 0.40014 0.55925 0.86724 0.0
C408 C 0.37611 0.53585 0.93796 0.0
H409 H 0.2982 0.41832 0.93684 0.0
H410 H 0.32096 0.45608 0.91306 0.0
H411 H 0.36393 0.51086 0.97261 0.0
H412 H 0.43206 0.61749 0.91134 0.0
H413 H 0.39453 0.58816 0.93239 0.0
H414 H 0.34149 0.53618 0.87309 0.0
C415 C 0.31331 0.45826 0.93479 0.0
C416 C 0.35846 0.51651 0.95103 0.0
C417 C 0.30025 0.43663 0.94844 0.0
C418 C 0.42334 0.60133 0.89872 0.0
C419 C 0.40191 0.58444 0.91083 0.0
C420 C 0.34664 0.5308 0.8948 0.0
C421 C 0.31798 0.48193 0.94954 0.0
C422 C 0.33498 0.50382 0.93606 0.0
C423 C 0.39063 0.56278 0.89552 0.0
C424 C 0.37057 0.54315 0.90963 0.0
H425 H 0.28792 0.46435 0.01337 0.0
H426 H 0.31114 0.50202 0.98961 0.0
H427 H 0.31094 0.50193 0.8959 0.0
H428 H 0.42893 0.57273 0.83346 0.0
H429 H 0.39213 0.54266 0.85489 0.0
C430 C 0.70672 0.53663 0.4911 0.0
C431 C 0.70988 0.56079 0.47691 0.0
C432 C 0.69354 0.51507 0.47743 0.0
C433 C 0.6717 0.48817 0.40741 0.0
H434 H 0.60689 0.45438 0.44995 0.0
C435 C 0.57871 0.42329 0.35515 0.0
C436 C 0.56682 0.40223 0.37097 0.0
C437 C 0.60005 0.44041 0.36729 0.0
C438 C 0.62529 0.46317 0.43788 0.0
H439 H 0.70244 0.58099 0.43693 0.0
H440 H 0.67969 0.54328 0.41303 0.0
H441 H 0.63797 0.48788 0.47264 0.0
H442 H 0.56945 0.3815 0.41112 0.0
H443 H 0.60716 0.41082 0.43195 0.0
H444 H 0.65877 0.46354 0.37253 0.0
C445 C 0.68765 0.54097 0.43466 0.0
C446 C 0.64309 0.48243 0.45092 0.0
C447 C 0.70071 0.56258 0.44837 0.0
C448 C 0.57778 0.39786 0.39858 0.0
C449 C 0.59931 0.41473 0.41056 0.0
C450 C 0.65399 0.46871 0.39437 0.0
C451 C 0.68336 0.51717 0.44923 0.0
C452 C 0.66626 0.49533 0.43577 0.0
C453 C 0.61014 0.43661 0.39536 0.0
C454 C 0.63036 0.45617 0.4094 0.0
H455 H 0.71409 0.53447 0.51292 0.0
H456 H 0.6909 0.49682 0.48904 0.0
H457 H 0.6896 0.49766 0.3953 0.0
H458 H 0.57071 0.42712 0.33379 0.0
H459 H 0.6077 0.45717 0.35505 0.0
C460 C 0.7068 0.46383 0.99288 0.0
C461 C 0.71086 0.43944 0.97928 0.0
C462 C 0.69178 0.48448 0.9791 0.0
C463 C 0.63503 0.49523 0.92295 0.0
H464 H 0.65826 0.5686 0.92958 0.0
C465 C 0.57096 0.57485 0.86129 0.0
C466 C 0.56302 0.59791 0.876 0.0
C467 C 0.5917 0.55702 0.87287 0.0
C468 C 0.65137 0.54821 0.92775 0.0
H469 H 0.70313 0.41793 0.94018 0.0
H470 H 0.67753 0.45408 0.91595 0.0
H471 H 0.69022 0.53459 0.95131 0.0
H472 H 0.57168 0.62088 0.91395 0.0
H473 H 0.60771 0.58936 0.9345 0.0
H474 H 0.59606 0.50863 0.89985 0.0
C475 C 0.6856 0.45712 0.93744 0.0
C476 C 0.66968 0.52875 0.94015 0.0
C477 C 0.7006 0.4365 0.9512 0.0
C478 C 0.57725 0.60324 0.90213 0.0
C479 C 0.59799 0.58524 0.91384 0.0
C480 C 0.61679 0.5146 0.91065 0.0
C481 C 0.68045 0.48116 0.95143 0.0
C482 C 0.66172 0.50202 0.9378 0.0
C483 C 0.60495 0.56168 0.89955 0.0
C484 C 0.62474 0.54132 0.91279 0.0
H485 H 0.71477 0.4668 0.01441 0.0
H486 H 0.68806 0.50269 0.99052 0.0
H487 H 0.62784 0.4749 0.92132 0.0
H488 H 0.56083 0.57033 0.84088 0.0
H489 H 0.59711 0.53938 0.86098 0.0
C490 C 0.29326 0.53429 0.49376 0.0
C491 C 0.29126 0.5583 0.47907 0.0
C492 C 0.30673 0.51232 0.48106 0.0
C493 C 0.33238 0.48529 0.41174 0.0
H494 H 0.39025 0.44653 0.45801 0.0
C495 C 0.42923 0.42278 0.36443 0.0
C496 C 0.43719 0.39898 0.37771 0.0
C497 C 0.40739 0.4394 0.37643 0.0
C498 C 0.37379 0.45682 0.44491 0.0
H499 H 0.30128 0.57792 0.43933 0.0
H500 H 0.32494 0.53969 0.41719 0.0
H501 H 0.35912 0.48085 0.47957 0.0
H502 H 0.42772 0.37362 0.41367 0.0
H503 H 0.38952 0.40283 0.43473 0.0
H504 H 0.34779 0.46171 0.3769 0.0
C505 C 0.31568 0.53767 0.43838 0.0
C506 C 0.35591 0.47651 0.45727 0.0
C507 C 0.30214 0.55962 0.45107 0.0
C508 C 0.42221 0.39187 0.40296 0.0
C509 C 0.40044 0.40863 0.41509 0.0
C510 C 0.35032 0.46564 0.39937 0.0
C511 C 0.31856 0.51387 0.45338 0.0
C512 C 0.33538 0.49131 0.44073 0.0
C513 C 0.39301 0.43269 0.40206 0.0
C514 C 0.37162 0.45152 0.41572 0.0
H515 H 0.28466 0.53257 0.51523 0.0
H516 H 0.30811 0.49417 0.49302 0.0
H517 H 0.3164 0.49597 0.39851 0.0
H518 H 0.44017 0.42882 0.34488 0.0
H519 H 0.40248 0.45793 0.36604 0.0
C520 C 0.78156 0.94809 0.95446 0.0
C521 C 0.79827 0.93479 0.97566 0.0
C522 C 0.79445 0.96933 0.93986 0.0
C523 C 0.84617 0.02295 0.9468 0.0
H524 H 0.87056 0.01493 0.86816 0.0
C525 C 0.93937 0.08732 0.89883 0.0
C526 C 0.93858 0.0941 0.86995 0.0
C527 C 0.91798 0.07 0.91014 0.0
C528 C 0.86331 0.01783 0.88989 0.0
H529 H 0.84203 0.93343 0.99751 0.0
H530 H 0.86356 0.97128 0.97311 0.0
H531 H 0.83982 0.98074 0.89095 0.0
H532 H 0.91427 0.08837 0.83034 0.0
H533 H 0.87614 0.05847 0.85035 0.0
H534 H 0.86922 0.05992 0.94611 0.0
C535 C 0.84058 0.96502 0.96784 0.0
C536 C 0.84584 0.9982 0.9029 0.0
C537 C 0.82805 0.94349 0.98197 0.0
C538 C 0.91557 0.08338 0.85265 0.0
C539 C 0.8938 0.06619 0.86411 0.0
C540 C 0.86309 0.04277 0.93372 0.0
C541 C 0.82395 0.97799 0.94664 0.0
C542 C 0.83797 0.00034 0.93164 0.0
C543 C 0.89482 0.05923 0.89302 0.0
C544 C 0.87285 0.04005 0.9054 0.0
H545 H 0.75843 0.94229 0.94928 0.0
H546 H 0.78128 0.97922 0.92357 0.0
H547 H 0.84008 0.02498 0.96898 0.0
H548 H 0.95694 0.09502 0.91274 0.0
H549 H 0.92012 0.06462 0.93228 0.0
C550 C 0.20417 0.03735 0.49107 0.0
C551 C 0.20846 0.06116 0.47646 0.0
C552 C 0.19066 0.01585 0.47756 0.0
C553 C 0.16994 0.98828 0.40749 0.0
H554 H 0.10397 0.95553 0.44944 0.0
C555 C 0.07737 0.9231 0.35487 0.0
C556 C 0.06529 0.9022 0.37082 0.0
C557 C 0.09854 0.94037 0.36703 0.0
C558 C 0.12268 0.96406 0.43755 0.0
H559 H 0.20256 0.08082 0.43594 0.0
H560 H 0.17918 0.04323 0.41235 0.0
H561 H 0.1349 0.98915 0.47212 0.0
H562 H 0.06743 0.88193 0.41127 0.0
H563 H 0.10477 0.91155 0.43216 0.0
H564 H 0.15744 0.96327 0.37278 0.0
C565 C 0.18655 0.04113 0.43418 0.0
C566 C 0.1404 0.98338 0.45059 0.0
C567 C 0.19995 0.06266 0.44772 0.0
C568 C 0.0759 0.89815 0.39861 0.0
C569 C 0.09723 0.91519 0.41063 0.0
C570 C 0.15228 0.96879 0.39446 0.0
C571 C 0.18123 0.01767 0.44911 0.0
C572 C 0.16403 0.99587 0.43565 0.0
C573 C 0.10824 0.93689 0.39527 0.0
C574 C 0.12826 0.95661 0.40928 0.0
H575 H 0.21098 0.03542 0.51308 0.0
H576 H 0.18725 0.99787 0.48947 0.0
H577 H 0.18821 0.99743 0.39555 0.0
H578 H 0.06966 0.92669 0.33337 0.0
H579 H 0.10637 0.95699 0.35466 0.0
C580 C 0.20953 0.96583 0.99392 0.0
C581 C 0.2116 0.94165 0.97959 0.0
C582 C 0.19627 0.98767 0.98077 0.0
C583 C 0.1711 0.01383 0.91088 0.0
H584 H 0.11328 0.05338 0.95637 0.0
C585 C 0.07465 0.07637 0.86261 0.0
C586 C 0.06681 0.10029 0.87572 0.0
C587 C 0.09645 0.05978 0.87472 0.0
C588 C 0.12973 0.04286 0.94348 0.0
H589 H 0.20193 0.92153 0.94004 0.0
H590 H 0.17855 0.95951 0.91715 0.0
H591 H 0.1441 0.01921 0.97852 0.0
H592 H 0.07654 0.12592 0.91142 0.0
H593 H 0.11466 0.09679 0.93265 0.0
H594 H 0.15595 0.03703 0.87565 0.0
C595 C 0.18763 0.96178 0.93839 0.0
C596 C 0.14744 0.02326 0.95618 0.0
C597 C 0.201 0.93998 0.95151 0.0
C598 C 0.08194 0.10758 0.90085 0.0
C599 C 0.10367 0.09086 0.91308 0.0
C600 C 0.15331 0.03339 0.89816 0.0
C601 C 0.18467 0.98578 0.95302 0.0
C602 C 0.16797 0.0082 0.93994 0.0
C603 C 0.1109 0.06665 0.90029 0.0
C604 C 0.13206 0.04782 0.91424 0.0
H605 H 0.21793 0.9678 0.01545 0.0
H606 H 0.19484 0.00597 0.99246 0.0
H607 H 0.18709 0.00292 0.89787 0.0
H608 H 0.06358 0.0702 0.84315 0.0
H609 H 0.10124 0.04114 0.86451 0.0
C610 C 0.79012 0.03225 0.49387 0.0
C611 C 0.78849 0.05624 0.47912 0.0
C612 C 0.80308 0.01005 0.48114 0.0
C613 C 0.82879 0.98271 0.41186 0.0
H614 H 0.88707 0.94457 0.45827 0.0
C615 C 0.92725 0.92197 0.36483 0.0
C616 C 0.93555 0.89818 0.37796 0.0
C617 C 0.90499 0.93817 0.37681 0.0
C618 C 0.87049 0.95468 0.44514 0.0
H619 H 0.79845 0.07555 0.43918 0.0
H620 H 0.82117 0.03697 0.41702 0.0
H621 H 0.85532 0.97849 0.47978 0.0
H622 H 0.92626 0.87243 0.41364 0.0
H623 H 0.88735 0.90094 0.43468 0.0
H624 H 0.84479 0.95943 0.37702 0.0
C625 C 0.81202 0.03512 0.43827 0.0
C626 C 0.85224 0.97413 0.45746 0.0
C627 C 0.799 0.05728 0.45098 0.0
C628 C 0.92051 0.89068 0.40306 0.0
C629 C 0.89831 0.90704 0.41517 0.0
C630 C 0.84712 0.96332 0.39952 0.0
C631 C 0.81476 0.01137 0.45339 0.0
C632 C 0.8316 0.98875 0.44086 0.0
C633 C 0.8905 0.93106 0.40227 0.0
C634 C 0.8686 0.94946 0.41591 0.0
H635 H 0.78179 0.03076 0.51546 0.0
H636 H 0.80435 0.99195 0.4932 0.0
H637 H 0.81273 0.99326 0.39858 0.0
H638 H 0.93822 0.92829 0.3454 0.0
H639 H 0.89978 0.9567 0.36653 0.0
C640 C 0.30597 0.35546 0.06913 0.0
C641 C 0.29341 0.38018 0.06267 0.0
C642 C 0.3199 0.35101 0.09543 0.0
C643 C 0.35699 0.38776 0.15356 0.0
H644 H 0.35426 0.32074 0.19273 0.0
C645 C 0.41737 0.37304 0.26066 0.0
C646 C 0.43545 0.35027 0.26312 0.0
C647 C 0.39672 0.37581 0.23826 0.0
C648 C 0.35532 0.33953 0.18195 0.0
H649 H 0.28395 0.41912 0.07919 0.0
H650 H 0.30772 0.41129 0.1252 0.0
H651 H 0.32373 0.32721 0.14984 0.0
H652 H 0.44488 0.31203 0.24459 0.0
H653 H 0.40894 0.31697 0.20539 0.0
H654 H 0.38873 0.40003 0.18539 0.0
C655 C 0.30761 0.39552 0.10975 0.0
C656 C 0.33788 0.34323 0.15736 0.0
C657 C 0.2939 0.4 0.08343 0.0
C658 C 0.43143 0.32988 0.24329 0.0
C659 C 0.41069 0.33263 0.2209 0.0
C660 C 0.37428 0.3841 0.17813 0.0
C661 C 0.32139 0.37117 0.11586 0.0
C662 C 0.33866 0.36737 0.14277 0.0
C663 C 0.39355 0.35585 0.21782 0.0
C664 C 0.37382 0.35991 0.19252 0.0
H665 H 0.30613 0.33989 0.05343 0.0
H666 H 0.33054 0.33211 0.09928 0.0
H667 H 0.3587 0.40642 0.14258 0.0
H668 H 0.41964 0.38906 0.27569 0.0
H669 H 0.38347 0.39375 0.23673 0.0
C670 C 0.70766 0.59849 0.5836 0.0
C671 C 0.7079 0.61837 0.56291 0.0
C672 C 0.69402 0.60284 0.60997 0.0
C673 C 0.66367 0.65488 0.6578 0.0
H674 H 0.61259 0.59808 0.68538 0.0
C675 C 0.56958 0.6684 0.74296 0.0
C676 C 0.56526 0.648 0.76272 0.0
C677 C 0.59049 0.66556 0.72074 0.0
C678 C 0.62711 0.614 0.67825 0.0
H679 H 0.69476 0.6586 0.55383 0.0
H680 H 0.67055 0.66613 0.59976 0.0
H681 H 0.64288 0.59173 0.64273 0.0
H682 H 0.58071 0.60912 0.77534 0.0
H683 H 0.6172 0.6043 0.73669 0.0
H684 H 0.64713 0.67733 0.69313 0.0
C685 C 0.68133 0.64731 0.59582 0.0
C686 C 0.64454 0.61036 0.65378 0.0
C687 C 0.69515 0.643 0.56947 0.0
C688 C 0.58319 0.62514 0.76036 0.0
C689 C 0.60404 0.6223 0.73813 0.0
C690 C 0.64611 0.65855 0.68229 0.0
C691 C 0.68011 0.62711 0.6162 0.0
C692 C 0.6629 0.63078 0.64312 0.0
C693 C 0.60752 0.64228 0.71778 0.0
C694 C 0.6275 0.63819 0.69268 0.0
H695 H 0.71774 0.57945 0.57926 0.0
H696 H 0.69407 0.58703 0.62538 0.0
H697 H 0.67786 0.67091 0.65038 0.0
H698 H 0.55624 0.68631 0.74419 0.0
H699 H 0.59247 0.68124 0.70529 0.0
C700 C 0.70385 0.35735 0.07333 0.0
C701 C 0.71274 0.38311 0.06617 0.0
C702 C 0.68925 0.35225 0.09914 0.0
C703 C 0.64013 0.38546 0.15019 0.0
H704 H 0.65563 0.32545 0.19892 0.0
C705 C 0.57486 0.37375 0.2542 0.0
C706 C 0.56426 0.34857 0.26141 0.0
C707 C 0.59599 0.37708 0.2324 0.0
C708 C 0.65083 0.34215 0.18537 0.0
H709 H 0.71511 0.42334 0.08134 0.0
H710 H 0.68931 0.41447 0.12618 0.0
H711 H 0.6878 0.33282 0.15715 0.0
H712 H 0.56832 0.30696 0.25217 0.0
H713 H 0.60473 0.31281 0.21324 0.0
H714 H 0.60276 0.39452 0.17749 0.0
C715 C 0.69327 0.39832 0.11164 0.0
C716 C 0.66932 0.3464 0.16154 0.0
C717 C 0.70798 0.40339 0.08595 0.0
C718 C 0.5761 0.32661 0.24701 0.0
C719 C 0.59703 0.32998 0.22481 0.0
C720 C 0.62157 0.38112 0.17373 0.0
C721 C 0.68312 0.37282 0.11821 0.0
C722 C 0.66422 0.36821 0.14383 0.0
C723 C 0.60674 0.35535 0.21689 0.0
C724 C 0.62676 0.35953 0.19177 0.0
H725 H 0.7069 0.34132 0.05846 0.0
H726 H 0.68148 0.33245 0.10357 0.0
H727 H 0.63519 0.40209 0.13656 0.0
H728 H 0.56661 0.39102 0.26529 0.0
H729 H 0.60362 0.39683 0.22749 0.0
C730 C 0.29489 0.59799 0.58402 0.0
C731 C 0.29131 0.61782 0.56351 0.0
C732 C 0.30932 0.60337 0.60979 0.0
C733 C 0.33432 0.65583 0.65861 0.0
H734 H 0.39823 0.60596 0.67741 0.0
C735 C 0.42601 0.67404 0.74622 0.0
C736 C 0.43645 0.65191 0.76122 0.0
C737 C 0.40544 0.67105 0.72362 0.0
C738 C 0.38015 0.61988 0.67285 0.0
H739 H 0.29889 0.65918 0.55457 0.0
H740 H 0.32386 0.6686 0.59984 0.0
H741 H 0.36669 0.59856 0.63585 0.0
H742 H 0.43191 0.60967 0.76585 0.0
H743 H 0.39548 0.60456 0.7274 0.0
H744 H 0.34785 0.67711 0.69586 0.0
C745 C 0.31541 0.64891 0.5959 0.0
C746 C 0.3621 0.61563 0.64893 0.0
C747 C 0.30107 0.6435 0.57 0.0
C748 C 0.42472 0.62703 0.75429 0.0
C749 C 0.40395 0.6241 0.73212 0.0
C750 C 0.35229 0.65999 0.68282 0.0
C751 C 0.32037 0.62872 0.61573 0.0
C752 C 0.33893 0.63347 0.64157 0.0
C753 C 0.39472 0.64591 0.71592 0.0
C754 C 0.37535 0.64196 0.69029 0.0
H755 H 0.28704 0.57815 0.57994 0.0
H756 H 0.31233 0.58753 0.62491 0.0
H757 H 0.31656 0.66987 0.65343 0.0
H758 H 0.4347 0.69346 0.75114 0.0
H759 H 0.3989 0.68827 0.71154 0.0
C760 C 0.80432 0.85437 0.07023 0.0
C761 C 0.79211 0.87903 0.06301 0.0
C762 C 0.81723 0.85022 0.09701 0.0
C763 C 0.85294 0.88772 0.15519 0.0
H764 H 0.85062 0.82079 0.1946 0.0
C765 C 0.91491 0.87311 0.26158 0.0
C766 C 0.9331 0.85037 0.26367 0.0
C767 C 0.89378 0.87587 0.23956 0.0
C768 C 0.85154 0.83956 0.18377 0.0
H769 H 0.78206 0.91816 0.07866 0.0
H770 H 0.80406 0.91084 0.12558 0.0
H771 H 0.81999 0.82702 0.15174 0.0
H772 H 0.94225 0.81218 0.2449 0.0
H773 H 0.9055 0.81711 0.20637 0.0
H774 H 0.88474 0.90017 0.18689 0.0
C775 C 0.80445 0.89488 0.11035 0.0
C776 C 0.83403 0.84313 0.15921 0.0
C777 C 0.79175 0.89907 0.08353 0.0
C778 C 0.92872 0.83 0.24388 0.0
C779 C 0.90751 0.83275 0.22187 0.0
C780 C 0.8703 0.88418 0.17975 0.0
C781 C 0.81804 0.87061 0.11719 0.0
C782 C 0.83478 0.86718 0.14445 0.0
C783 C 0.89024 0.85593 0.21915 0.0
C784 C 0.87007 0.86 0.19417 0.0
H785 H 0.80517 0.83864 0.05474 0.0
H786 H 0.82778 0.83138 0.1014 0.0
H787 H 0.85461 0.90632 0.14411 0.0
H788 H 0.91744 0.8891 0.2766 0.0
H789 H 0.88046 0.89379 0.23829 0.0
C790 C 0.20424 0.10127 0.58208 0.0
C791 C 0.20694 0.12071 0.56103 0.0
C792 C 0.19056 0.10705 0.60813 0.0
C793 C 0.13494 0.15241 0.63962 0.0
H794 H 0.16365 0.12338 0.7109 0.0
C795 C 0.07142 0.17291 0.74412 0.0
C796 C 0.06659 0.15109 0.76188 0.0
C797 C 0.09193 0.17139 0.72146 0.0
C798 C 0.15525 0.1315 0.69114 0.0
H799 H 0.19796 0.16163 0.55105 0.0
H800 H 0.17442 0.17183 0.59668 0.0
H801 H 0.19356 0.11672 0.66774 0.0
H802 H 0.08054 0.11088 0.7704 0.0
H803 H 0.11587 0.10811 0.73063 0.0
H804 H 0.09629 0.16662 0.66269 0.0
C805 C 0.18267 0.15204 0.59292 0.0
C806 C 0.1724 0.1277 0.66643 0.0
C807 C 0.19643 0.14627 0.5669 0.0
C808 C 0.08363 0.12805 0.75711 0.0
C809 C 0.10406 0.12651 0.73438 0.0
C810 C 0.11778 0.15614 0.66426 0.0
C811 C 0.17919 0.1324 0.61368 0.0
C812 C 0.16226 0.13789 0.64034 0.0
C813 C 0.10804 0.14801 0.71598 0.0
C814 C 0.12754 0.14551 0.69028 0.0
H815 H 0.21241 0.08146 0.57828 0.0
H816 H 0.18801 0.09143 0.62356 0.0
H817 H 0.12622 0.16015 0.61979 0.0
H818 H 0.05893 0.19107 0.74736 0.0
H819 H 0.09488 0.18848 0.70802 0.0
C820 C 0.20572 0.90298 0.08478 0.0
C821 C 0.21014 0.88294 0.06463 0.0
C822 C 0.19073 0.89776 0.11029 0.0
C823 C 0.16584 0.84571 0.15946 0.0
H824 H 0.09999 0.89441 0.17591 0.0
C825 C 0.07343 0.82655 0.24586 0.0
C826 C 0.06189 0.84858 0.26036 0.0
C827 C 0.09405 0.82981 0.22339 0.0
C828 C 0.11859 0.88083 0.17202 0.0
H829 H 0.20342 0.84139 0.05613 0.0
H830 H 0.17757 0.83223 0.10101 0.0
H831 H 0.13236 0.90185 0.13491 0.0
H832 H 0.06439 0.89104 0.26404 0.0
H833 H 0.1009 0.89664 0.22577 0.0
H834 H 0.15211 0.82478 0.19682 0.0
C835 C 0.18578 0.85197 0.09695 0.0
C836 C 0.13711 0.8851 0.14842 0.0
C837 C 0.20063 0.85723 0.07128 0.0
C838 C 0.07243 0.87372 0.25289 0.0
C839 C 0.09326 0.87693 0.23082 0.0
C840 C 0.14743 0.84156 0.18336 0.0
C841 C 0.17999 0.87234 0.11636 0.0
C842 C 0.16096 0.86766 0.14189 0.0
C843 C 0.10376 0.85512 0.21526 0.0
C844 C 0.12362 0.85915 0.18997 0.0
H845 H 0.21336 0.92287 0.08061 0.0
H846 H 0.18706 0.91375 0.12512 0.0
H847 H 0.18414 0.83199 0.15493 0.0
H848 H 0.06569 0.80693 0.25119 0.0
H849 H 0.10152 0.81258 0.21179 0.0
C850 C 0.77987 0.13184 0.58261 0.0
C851 C 0.79612 0.11754 0.56188 0.0
C852 C 0.79337 0.13777 0.60881 0.0
C853 C 0.8463 0.11238 0.65942 0.0
H854 H 0.86936 0.18315 0.6815 0.0
C855 C 0.94087 0.1297 0.73999 0.0
C856 C 0.9393 0.1509 0.75908 0.0
C857 C 0.9194 0.12694 0.71842 0.0
C858 C 0.86251 0.16332 0.67602 0.0
H859 H 0.83994 0.09942 0.55231 0.0
H860 H 0.86258 0.10861 0.59837 0.0
H861 H 0.83807 0.17625 0.63894 0.0
H862 H 0.9137 0.18588 0.77042 0.0
H863 H 0.87553 0.18076 0.7327 0.0
H864 H 0.87044 0.09916 0.69609 0.0
C865 C 0.83945 0.11517 0.5942 0.0
C866 C 0.84471 0.15943 0.65164 0.0
C867 C 0.82628 0.1097 0.56793 0.0
C868 C 0.91558 0.16936 0.756 0.0
C869 C 0.89379 0.16646 0.73437 0.0
C870 C 0.8636 0.11624 0.68391 0.0
C871 C 0.8231 0.12911 0.61486 0.0
C872 C 0.83733 0.13386 0.64277 0.0
C873 C 0.8954 0.1451 0.7154 0.0
C874 C 0.87292 0.14167 0.69196 0.0
H875 H 0.75654 0.13801 0.57885 0.0
H876 H 0.7804 0.14852 0.62458 0.0
H877 H 0.84059 0.0925 0.65303 0.0
H878 H 0.95897 0.11521 0.74146 0.0
H879 H 0.92198 0.11066 0.70378 0.0
loop_
_geom_bond_atom_site_label_1
_geom_bond_atom_site_label_2
_geom_bond_distance
_geom_bond_site_symmetry_2
_ccdc_geom_bond_type
H0 C3 0.931 . S
H1 C6 0.928 . S
H2 C8 0.930 . S
C3 H0 0.931 . S
C3 C4 1.413 . S
C3 C5 1.360 1_554 S
C4 C3 1.413 . S
C4 C8 1.429 . S
C5 C3 1.360 1_556 S
C5 C6 1.372 . S
C6 H1 0.928 . S
C6 C5 1.372 . S
C6 C7 1.404 . S
C7 C6 1.404 . S
C7 C8 1.391 1_556 S
C8 H2 0.930 . S
C8 C4 1.429 . S
C8 C7 1.391 1_554 S
H9 C12 0.931 . S
H10 C15 0.928 . S
H11 C17 0.930 . S
C12 H9 0.931 . S
C12 C13 1.413 . S
C12 C14 1.360 . S
C13 C12 1.413 . S
C13 C17 1.429 . S
C14 C12 1.360 . S
C14 C15 1.372 . S
C15 H10 0.928 . S
C15 C14 1.372 . S
C15 C16 1.404 . S
C16 C15 1.404 . S
C16 C17 1.391 . S
C17 H11 0.930 . S
C17 C13 1.429 . S
C17 C16 1.391 . S
H18 C21 0.931 . S
H19 C24 0.928 . S
H20 C26 0.930 . S
C21 H18 0.931 . S
C21 C22 1.413 1_554 S
C21 C23 1.360 . S
C22 C21 1.413 1_556 S
C22 C26 1.429 . S
C23 C21 1.360 . S
C23 C24 1.372 . S
C24 H19 0.928 . S
C24 C23 1.372 . S
C24 C25 1.404 1_554 S
C25 C24 1.404 1_556 S
C25 C26 1.391 . S
C26 H20 0.930 . S
C26 C22 1.429 . S
C26 C25 1.391 . S
H27 C30 0.931 . S
H28 C33 0.928 . S
H29 C35 0.930 . S
C30 H27 0.931 . S
C30 C31 1.413 . S
C30 C32 1.360 . S
C31 C30 1.413 . S
C31 C35 1.429 . S
C32 C30 1.360 . S
C32 C33 1.372 . S
C33 H28 0.928 . S
C33 C32 1.372 . S
C33 C34 1.404 . S
C34 C33 1.404 . S
C34 C35 1.391 . S
C35 H29 0.930 . S
C35 C31 1.429 . S
C35 C34 1.391 . S
H36 C39 0.931 . S
H37 C42 0.928 . S
H38 C44 0.930 . S
C39 H36 0.931 . S
C39 C40 1.413 . S
C39 C41 1.360 1_554 S
C40 C39 1.413 . S
C40 C44 1.429 . S
C41 C39 1.360 1_556 S
C41 C42 1.372 . S
C42 H37 0.928 . S
C42 C41 1.372 . S
C42 C43 1.404 . S
C43 C42 1.404 . S
C43 C44 1.391 1_556 S
C44 H38 0.930 . S
C44 C40 1.429 . S
C44 C43 1.391 1_554 S
H45 C48 0.931 . S
H46 C51 0.928 . S
H47 C53 0.930 . S
C48 H45 0.931 . S
C48 C49 1.413 . S
C48 C50 1.360 . S
C49 C48 1.413 . S
C49 C53 1.429 . S
C50 C48 1.360 . S
C50 C51 1.372 . S
C51 H46 0.928 . S
C51 C50 1.372 . S
C51 C52 1.404 . S
C52 C51 1.404 . S
C52 C53 1.391 . S
C53 H47 0.930 . S
C53 C49 1.429 . S
C53 C52 1.391 . S
H54 C57 0.931 . S
H55 C60 0.928 . S
H56 C62 0.930 . S
C57 H54 0.931 . S
C57 C58 1.413 1_554 S
C57 C59 1.360 . S
C58 C57 1.413 1_556 S
C58 C62 1.429 . S
C59 C57 1.360 . S
C59 C60 1.372 . S
C60 H55 0.928 . S
C60 C59 1.372 . S
C60 C61 1.404 1_554 S
C61 C60 1.404 1_556 S
C61 C62 1.391 . S
C62 H56 0.930 . S
C62 C58 1.429 . S
C62 C61 1.391 . S
H63 C66 0.931 . S
H64 C69 0.928 . S
H65 C71 0.930 . S
C66 H63 0.931 . S
C66 C67 1.413 . S
C66 C68 1.360 . S
C67 C66 1.413 . S
C67 C71 1.429 . S
C68 C66 1.360 . S
C68 C69 1.372 . S
C69 H64 0.928 . S
C69 C68 1.372 . S
C69 C70 1.404 . S
C70 C69 1.404 . S
C70 C71 1.391 . S
C71 H65 0.930 . S
C71 C67 1.429 . S
C71 C70 1.391 . S
Fe72 O74 1.918 . S
Fe72 O77 1.997 1_455 S
Fe72 O78 2.002 1_455 S
Fe72 O83 1.976 . S
Fe72 O86 1.996 . S
Fe73 O74 1.918 . S
Fe73 O81 1.997 1_455 S
Fe73 O84 1.996 . S
Fe73 O88 1.976 . S
Fe73 O91 2.002 1_455 S
O74 Fe72 1.918 . S
O74 Fe73 1.918 . S
O74 Fe75 1.918 . S
Fe75 O74 1.918 . S
Fe75 O76 2.002 1_455 S
Fe75 O85 1.976 . S
Fe75 O89 1.996 . S
Fe75 O92 1.997 1_455 S
O76 Fe75 2.002 1_655 S
O76 C93 1.295 . S
O77 Fe72 1.997 1_655 S
O77 C93 1.235 . S
O78 Fe72 2.002 1_655 S
O78 C79 1.295 . S
C79 O78 1.295 . S
C79 O81 1.235 . S
C80 O85 1.287 . S
C80 O86 1.255 . S
O81 Fe73 1.997 1_655 S
O81 C79 1.235 . S
C82 O88 1.287 . S
C82 O89 1.255 . S
O83 Fe72 1.976 . S
O83 C90 1.287 . S
O84 Fe73 1.996 . S
O84 C90 1.255 . S
O85 Fe75 1.976 . S
O85 C80 1.287 . S
O86 Fe72 1.996 . S
O86 C80 1.255 . S
C87 O91 1.295 . S
C87 O92 1.235 . S
O88 Fe73 1.976 . S
O88 C82 1.287 . S
O89 Fe75 1.996 . S
O89 C82 1.255 . S
C90 O83 1.287 . S
C90 O84 1.255 . S
O91 Fe73 2.002 1_655 S
O91 C87 1.295 . S
O92 Fe75 1.997 1_655 S
O92 C87 1.235 . S
C93 O76 1.295 . S
C93 O77 1.235 . S
Fe94 O96 1.919 . S
Fe94 O99 1.972 1_655 S
Fe94 O100 1.977 1_655 S
Fe94 O105 2.001 . S
Fe94 O108 2.021 . S
Fe95 O96 1.919 . S
Fe95 O103 1.972 1_655 S
Fe95 O106 2.020 . S
Fe95 O110 2.001 . S
Fe95 O113 1.977 1_655 S
O96 Fe94 1.919 . S
O96 Fe95 1.919 . S
O96 Fe97 1.919 . S
Fe97 O96 1.919 . S
Fe97 O98 1.978 1_655 S
Fe97 O107 2.000 . S
Fe97 O111 2.019 . S
Fe97 O114 1.973 1_655 S
O98 Fe97 1.978 1_455 S
O98 C115 1.295 . S
O99 Fe94 1.972 1_455 S
O99 C115 1.235 . S
O100 Fe94 1.977 1_455 S
O100 C101 1.295 . S
C101 O100 1.295 . S
C101 O103 1.235 . S
C102 O107 1.287 . S
C102 O108 1.255 . S
O103 Fe95 1.972 1_455 S
O103 C101 1.235 . S
C104 O110 1.287 . S
C104 O111 1.255 . S
O105 Fe94 2.001 . S
O105 C112 1.287 . S
O106 Fe95 2.020 . S
O106 C112 1.255 . S
O107 Fe97 2.000 . S
O107 C102 1.287 . S
O108 Fe94 2.021 . S
O108 C102 1.255 . S
C109 O113 1.295 . S
C109 O114 1.235 . S
O110 Fe95 2.001 . S
O110 C104 1.287 . S
O111 Fe97 2.019 . S
O111 C104 1.255 . S
C112 O105 1.287 . S
C112 O106 1.255 . S
O113 Fe95 1.977 1_455 S
O113 C109 1.295 . S
O114 Fe97 1.973 1_455 S
O114 C109 1.235 . S
C115 O98 1.295 . S
C115 O99 1.235 . S
Fe116 O118 1.918 . S
Fe116 O121 1.997 . S
Fe116 O122 2.002 . S
Fe116 O127 1.976 . S
Fe116 O130 1.996 . S
Fe117 O118 1.918 . S
Fe117 O125 1.997 . S
Fe117 O128 1.996 . S
Fe117 O132 1.976 . S
Fe117 O135 2.002 . S
O118 Fe116 1.918 . S
O118 Fe117 1.918 . S
O118 Fe119 1.918 . S
Fe119 O118 1.918 . S
Fe119 O120 2.002 . S
Fe119 O129 1.976 . S
Fe119 O133 1.996 . S
Fe119 O136 1.997 . S
O120 Fe119 2.002 . S
O120 C137 1.295 . S
O121 Fe116 1.997 . S
O121 C137 1.235 . S
O122 Fe116 2.002 . S
O122 C123 1.295 . S
C123 O122 1.295 . S
C123 O125 1.235 . S
C124 O129 1.287 . S
C124 O130 1.255 . S
O125 Fe117 1.997 . S
O125 C123 1.235 . S
C126 O132 1.287 . S
C126 O133 1.255 . S
O127 Fe116 1.976 . S
O127 C134 1.287 . S
O128 Fe117 1.996 . S
O128 C134 1.255 . S
O129 Fe119 1.976 . S
O129 C124 1.287 . S
O130 Fe116 1.996 . S
O130 C124 1.255 . S
C131 O135 1.295 . S
C131 O136 1.235 . S
O132 Fe117 1.976 . S
O132 C126 1.287 . S
O133 Fe119 1.996 . S
O133 C126 1.255 . S
C134 O127 1.287 . S
C134 O128 1.255 . S
O135 Fe117 2.002 . S
O135 C131 1.295 . S
O136 Fe119 1.997 . S
O136 C131 1.235 . S
C137 O120 1.295 . S
C137 O121 1.235 . S
Fe138 O140 1.918 . S
Fe138 O143 1.997 . S
Fe138 O144 2.002 . S
Fe138 O149 1.976 . S
Fe138 O152 1.996 . S
Fe139 O140 1.918 . S
Fe139 O147 1.997 . S
Fe139 O150 1.996 . S
Fe139 O154 1.976 . S
Fe139 O157 2.002 . S
O140 Fe138 1.918 . S
O140 Fe139 1.918 . S
O140 Fe141 1.918 . S
Fe141 O140 1.918 . S
Fe141 O142 2.002 . S
Fe141 O151 1.976 . S
Fe141 O155 1.996 . S
Fe141 O158 1.997 . S
O142 Fe141 2.002 . S
O142 C159 1.295 . S
O143 Fe138 1.997 . S
O143 C159 1.235 . S
O144 Fe138 2.002 . S
O144 C145 1.295 . S
C145 O144 1.295 . S
C145 O147 1.235 . S
C146 O151 1.287 . S
C146 O152 1.255 . S
O147 Fe139 1.997 . S
O147 C145 1.235 . S
C148 O154 1.287 . S
C148 O155 1.255 . S
O149 Fe138 1.976 . S
O149 C156 1.287 . S
O150 Fe139 1.996 . S
O150 C156 1.255 . S
O151 Fe141 1.976 . S
O151 C146 1.287 . S
O152 Fe138 1.996 . S
O152 C146 1.255 . S
C153 O157 1.295 . S
C153 O158 1.235 . S
O154 Fe139 1.976 . S
O154 C148 1.287 . S
O155 Fe141 1.996 . S
O155 C148 1.255 . S
C156 O149 1.287 . S
C156 O150 1.255 . S
O157 Fe139 2.002 . S
O157 C153 1.295 . S
O158 Fe141 1.997 . S
O158 C153 1.235 . S
C159 O142 1.295 . S
C159 O143 1.235 . S
C160 C161 1.349 . S
C160 C162 1.327 . S
C160 H185 0.950 . S
C161 C160 1.349 . S
C161 C177 1.349 . S
C162 C160 1.327 . S
C162 C181 1.429 . S
C162 H186 0.950 . S
C163 C180 1.574 . S
C163 C182 1.368 . S
C163 H187 0.949 . S
H164 C168 0.949 . S
C165 C166 1.349 . S
C165 C167 1.327 . S
C165 H188 0.950 . S
C166 C165 1.349 . S
C166 C178 1.349 . S
C167 C165 1.327 . S
C167 C183 1.429 . S
C167 H189 0.950 . S
C168 H164 0.949 . S
C168 C176 1.574 . S
C168 C184 1.368 . S
H169 C177 0.950 1_554 S
H170 C175 0.950 . S
H171 C176 0.949 . S
H172 C178 0.950 . S
H173 C179 0.950 . S
H174 C180 0.949 . S
C175 H170 0.950 . S
C175 C177 1.327 . S
C175 C181 1.429 . S
C176 C168 1.574 . S
C176 H171 0.949 . S
C176 C182 1.368 . S
C177 C161 1.349 . S
C177 H169 0.950 1_556 S
C177 C175 1.327 . S
C178 C166 1.349 . S
C178 H172 0.950 . S
C178 C179 1.327 . S
C179 H173 0.950 . S
C179 C178 1.327 . S
C179 C183 1.429 . S
C180 C163 1.574 . S
C180 H174 0.949 . S
C180 C184 1.368 . S
C181 C162 1.429 . S
C181 C175 1.429 . S
C181 C182 1.523 . S
C182 C163 1.368 . S
C182 C176 1.368 . S
C182 C181 1.523 . S
C183 C167 1.429 . S
C183 C179 1.429 . S
C183 C184 1.523 . S
C184 C168 1.368 . S
C184 C180 1.368 . S
C184 C183 1.523 . S
H185 C160 0.950 . S
H186 C162 0.950 . S
H187 C163 0.949 . S
H188 C165 0.950 . S
H189 C167 0.950 . S
C190 C191 1.349 . S
C190 C192 1.327 . S
C190 H215 0.950 . S
C191 C190 1.349 . S
C191 C207 1.349 . S
C192 C190 1.327 . S
C192 C211 1.429 . S
C192 H216 0.950 . S
C193 C210 1.574 . S
C193 C212 1.368 . S
C193 H217 0.949 . S
H194 C198 0.949 . S
C195 C196 1.349 . S
C195 C197 1.327 . S
C195 H218 0.950 . S
C196 C195 1.349 . S
C196 C208 1.349 . S
C197 C195 1.327 . S
C197 C213 1.429 . S
C197 H219 0.950 . S
C198 H194 0.949 . S
C198 C206 1.574 . S
C198 C214 1.368 . S
H199 C207 0.950 . S
H200 C205 0.950 . S
H201 C206 0.949 . S
H202 C208 0.950 . S
H203 C209 0.950 . S
H204 C210 0.949 . S
C205 H200 0.950 . S
C205 C207 1.327 . S
C205 C211 1.429 . S
C206 C198 1.574 . S
C206 H201 0.949 . S
C206 C212 1.368 . S
C207 C191 1.349 . S
C207 H199 0.950 . S
C207 C205 1.327 . S
C208 C196 1.349 . S
C208 H202 0.950 . S
C208 C209 1.327 . S
C209 H203 0.950 . S
C209 C208 1.327 . S
C209 C213 1.429 . S
C210 C193 1.574 . S
C210 H204 0.949 . S
C210 C214 1.368 . S
C211 C192 1.429 . S
C211 C205 1.429 . S
C211 C212 1.523 . S
C212 C193 1.368 . S
C212 C206 1.368 . S
C212 C211 1.523 . S
C213 C197 1.429 . S
C213 C209 1.429 . S
C213 C214 1.523 . S
C214 C198 1.368 . S
C214 C210 1.368 . S
C214 C213 1.523 . S
H215 C190 0.950 . S
H216 C192 0.950 . S
H217 C193 0.949 . S
H218 C195 0.950 . S
H219 C197 0.950 . S
C220 C221 1.349 . S
C220 C222 1.327 . S
C220 H245 0.950 1_556 S
C221 C220 1.349 . S
C221 C237 1.349 . S
C222 C220 1.327 . S
C222 C241 1.429 . S
C222 H246 0.950 . S
C223 C240 1.574 . S
C223 C242 1.368 . S
C223 H247 0.949 . S
H224 C228 0.949 . S
C225 C226 1.349 . S
C225 C227 1.327 . S
C225 H248 0.950 . S
C226 C225 1.349 . S
C226 C238 1.349 . S
C227 C225 1.327 . S
C227 C243 1.429 . S
C227 H249 0.950 . S
C228 H224 0.949 . S
C228 C236 1.574 . S
C228 C244 1.368 . S
H229 C237 0.950 . S
H230 C235 0.950 . S
H231 C236 0.949 . S
H232 C238 0.950 . S
H233 C239 0.950 . S
H234 C240 0.949 . S
C235 H230 0.950 . S
C235 C237 1.327 . S
C235 C241 1.429 . S
C236 C228 1.574 . S
C236 H231 0.949 . S
C236 C242 1.368 . S
C237 C221 1.349 . S
C237 H229 0.950 . S
C237 C235 1.327 . S
C238 C226 1.349 . S
C238 H232 0.950 . S
C238 C239 1.327 . S
C239 H233 0.950 . S
C239 C238 1.327 . S
C239 C243 1.429 . S
C240 C223 1.574 . S
C240 H234 0.949 . S
C240 C244 1.368 . S
C241 C222 1.429 . S
C241 C235 1.429 . S
C241 C242 1.523 . S
C242 C223 1.368 . S
C242 C236 1.368 . S
C242 C241 1.523 . S
C243 C227 1.429 . S
C243 C239 1.429 . S
C243 C244 1.523 . S
C244 C228 1.368 . S
C244 C240 1.368 . S
C244 C243 1.523 . S
H245 C220 0.950 1_554 S
H246 C222 0.950 . S
H247 C223 0.949 . S
H248 C225 0.950 . S
H249 C227 0.950 . S
C250 C251 1.349 . S
C250 C252 1.327 . S
C250 H275 0.950 . S
C251 C250 1.349 . S
C251 C267 1.349 . S
C252 C250 1.327 . S
C252 C271 1.429 . S
C252 H276 0.950 . S
C253 C270 1.574 . S
C253 C272 1.368 . S
C253 H277 0.949 . S
H254 C258 0.949 . S
C255 C256 1.349 . S
C255 C257 1.327 . S
C255 H278 0.950 . S
C256 C255 1.349 . S
C256 C268 1.349 . S
C257 C255 1.327 . S
C257 C273 1.429 . S
C257 H279 0.950 . S
C258 H254 0.949 . S
C258 C266 1.574 . S
C258 C274 1.368 . S
H259 C267 0.950 . S
H260 C265 0.950 . S
H261 C266 0.949 . S
H262 C268 0.950 . S
H263 C269 0.950 . S
H264 C270 0.949 . S
C265 H260 0.950 . S
C265 C267 1.327 . S
C265 C271 1.429 . S
C266 C258 1.574 . S
C266 H261 0.949 . S
C266 C272 1.368 . S
C267 C251 1.349 . S
C267 H259 0.950 . S
C267 C265 1.327 . S
C268 C256 1.349 . S
C268 H262 0.950 . S
C268 C269 1.327 . S
C269 H263 0.950 . S
C269 C268 1.327 . S
C269 C273 1.429 . S
C270 C253 1.574 . S
C270 H264 0.949 . S
C270 C274 1.368 . S
C271 C252 1.429 . S
C271 C265 1.429 . S
C271 C272 1.523 . S
C272 C253 1.368 . S
C272 C266 1.368 . S
C272 C271 1.523 . S
C273 C257 1.429 . S
C273 C269 1.429 . S
C273 C274 1.523 . S
C274 C258 1.368 . S
C274 C270 1.368 . S
C274 C273 1.523 . S
H275 C250 0.950 . S
H276 C252 0.950 . S
H277 C253 0.949 . S
H278 C255 0.950 . S
H279 C257 0.950 . S
C280 C281 1.349 . S
C280 C282 1.327 . S
C280 H305 0.950 1_556 S
C281 C280 1.349 . S
C281 C297 1.349 . S
C282 C280 1.327 . S
C282 C301 1.429 . S
C282 H306 0.950 . S
C283 C300 1.574 . S
C283 C302 1.368 . S
C283 H307 0.949 . S
H284 C288 0.949 . S
C285 C286 1.349 . S
C285 C287 1.327 . S
C285 H308 0.950 . S
C286 C285 1.349 . S
C286 C298 1.349 . S
C287 C285 1.327 . S
C287 C303 1.429 . S
C287 H309 0.950 . S
C288 H284 0.949 . S
C288 C296 1.574 . S
C288 C304 1.368 . S
H289 C297 0.950 . S
H290 C295 0.950 . S
H291 C296 0.949 . S
H292 C298 0.950 . S
H293 C299 0.950 . S
H294 C300 0.949 . S
C295 H290 0.950 . S
C295 C297 1.327 . S
C295 C301 1.429 . S
C296 C288 1.574 . S
C296 H291 0.949 . S
C296 C302 1.368 . S
C297 C281 1.349 . S
C297 H289 0.950 . S
C297 C295 1.327 . S
C298 C286 1.349 . S
C298 H292 0.950 . S
C298 C299 1.327 . S
C299 H293 0.950 . S
C299 C298 1.327 . S
C299 C303 1.429 . S
C300 C283 1.574 . S
C300 H294 0.949 . S
C300 C304 1.368 . S
C301 C282 1.429 . S
C301 C295 1.429 . S
C301 C302 1.523 . S
C302 C283 1.368 . S
C302 C296 1.368 . S
C302 C301 1.523 . S
C303 C287 1.429 . S
C303 C299 1.429 . S
C303 C304 1.523 . S
C304 C288 1.368 . S
C304 C300 1.368 . S
C304 C303 1.523 . S
H305 C280 0.950 1_554 S
H306 C282 0.950 . S
H307 C283 0.949 . S
H308 C285 0.950 . S
H309 C287 0.950 . S
C310 C311 1.349 . S
C310 C312 1.327 . S
C310 H335 0.950 . S
C311 C310 1.349 . S
C311 C327 1.349 . S
C312 C310 1.327 . S
C312 C331 1.429 . S
C312 H336 0.950 . S
C313 C330 1.574 . S
C313 C332 1.368 . S
C313 H337 0.949 . S
H314 C318 0.949 . S
C315 C316 1.349 . S
C315 C317 1.327 . S
C315 H338 0.950 . S
C316 C315 1.349 . S
C316 C328 1.349 . S
C317 C315 1.327 . S
C317 C333 1.429 . S
C317 H339 0.950 . S
C318 H314 0.949 . S
C318 C326 1.574 . S
C318 C334 1.368 . S
H319 C327 0.950 . S
H320 C325 0.950 . S
H321 C326 0.949 . S
H322 C328 0.950 . S
H323 C329 0.950 . S
H324 C330 0.949 . S
C325 H320 0.950 . S
C325 C327 1.327 . S
C325 C331 1.429 . S
C326 C318 1.574 . S
C326 H321 0.949 . S
C326 C332 1.368 . S
C327 C311 1.349 . S
C327 H319 0.950 . S
C327 C325 1.327 . S
C328 C316 1.349 . S
C328 H322 0.950 . S
C328 C329 1.327 . S
C329 H323 0.950 . S
C329 C328 1.327 . S
C329 C333 1.429 . S
C330 C313 1.574 . S
C330 H324 0.949 . S
C330 C334 1.368 . S
C331 C312 1.429 . S
C331 C325 1.429 . S
C331 C332 1.523 . S
C332 C313 1.368 . S
C332 C326 1.368 . S
C332 C331 1.523 . S
C333 C317 1.429 . S
C333 C329 1.429 . S
C333 C334 1.523 . S
C334 C318 1.368 . S
C334 C330 1.368 . S
C334 C333 1.523 . S
H335 C310 0.950 . S
H336 C312 0.950 . S
H337 C313 0.949 . S
H338 C315 0.950 . S
H339 C317 0.950 . S
C340 C341 1.349 . S
C340 C342 1.327 . S
C340 H365 0.950 1_556 S
C341 C340 1.349 . S
C341 C357 1.349 . S
C342 C340 1.327 . S
C342 C361 1.429 . S
C342 H366 0.950 . S
C343 C360 1.574 . S
C343 C362 1.368 . S
C343 H367 0.949 . S
H344 C348 0.949 . S
C345 C346 1.349 . S
C345 C347 1.327 . S
C345 H368 0.950 . S
C346 C345 1.349 . S
C346 C358 1.349 . S
C347 C345 1.327 . S
C347 C363 1.429 . S
C347 H369 0.950 . S
C348 H344 0.949 . S
C348 C356 1.574 . S
C348 C364 1.368 . S
H349 C357 0.950 . S
H350 C355 0.950 . S
H351 C356 0.949 . S
H352 C358 0.950 . S
H353 C359 0.950 . S
H354 C360 0.949 . S
C355 H350 0.950 . S
C355 C357 1.327 . S
C355 C361 1.429 . S
C356 C348 1.574 . S
C356 H351 0.949 . S
C356 C362 1.368 . S
C357 C341 1.349 . S
C357 H349 0.950 . S
C357 C355 1.327 . S
C358 C346 1.349 . S
C358 H352 0.950 . S
C358 C359 1.327 . S
C359 H353 0.950 . S
C359 C358 1.327 . S
C359 C363 1.429 . S
C360 C343 1.574 . S
C360 H354 0.949 . S
C360 C364 1.368 . S
C361 C342 1.429 . S
C361 C355 1.429 . S
C361 C362 1.523 . S
C362 C343 1.368 . S
C362 C356 1.368 . S
C362 C361 1.523 . S
C363 C347 1.429 . S
C363 C359 1.429 . S
C363 C364 1.523 . S
C364 C348 1.368 . S
C364 C360 1.368 . S
C364 C363 1.523 . S
H365 C340 0.950 1_554 S
H366 C342 0.950 . S
H367 C343 0.949 . S
H368 C345 0.950 . S
H369 C347 0.950 . S
C370 C371 1.349 . S
C370 C372 1.327 . S
C370 H395 0.950 . S
C371 C370 1.349 . S
C371 C387 1.349 . S
C372 C370 1.327 . S
C372 C391 1.429 . S
C372 H396 0.950 . S
C373 C390 1.574 . S
C373 C392 1.368 . S
C373 H397 0.949 . S
H374 C378 0.949 . S
C375 C376 1.349 . S
C375 C377 1.327 . S
C375 H398 0.950 . S
C376 C375 1.349 . S
C376 C388 1.349 . S
C377 C375 1.327 . S
C377 C393 1.429 . S
C377 H399 0.950 . S
C378 H374 0.949 . S
C378 C386 1.574 . S
C378 C394 1.368 . S
H379 C387 0.950 . S
H380 C385 0.950 . S
H381 C386 0.949 . S
H382 C388 0.950 . S
H383 C389 0.950 . S
H384 C390 0.949 . S
C385 H380 0.950 . S
C385 C387 1.327 . S
C385 C391 1.429 . S
C386 C378 1.574 . S
C386 H381 0.949 . S
C386 C392 1.368 . S
C387 C371 1.349 . S
C387 H379 0.950 . S
C387 C385 1.327 . S
C388 C376 1.349 . S
C388 H382 0.950 . S
C388 C389 1.327 . S
C389 H383 0.950 . S
C389 C388 1.327 . S
C389 C393 1.429 . S
C390 C373 1.574 . S
C390 H384 0.949 . S
C390 C394 1.368 . S
C391 C372 1.429 . S
C391 C385 1.429 . S
C391 C392 1.523 . S
C392 C373 1.368 . S
C392 C386 1.368 . S
C392 C391 1.523 . S
C393 C377 1.429 . S
C393 C389 1.429 . S
C393 C394 1.523 . S
C394 C378 1.368 . S
C394 C390 1.368 . S
C394 C393 1.523 . S
H395 C370 0.950 . S
H396 C372 0.950 . S
H397 C373 0.949 . S
H398 C375 0.950 . S
H399 C377 0.950 . S
C400 C401 1.349 . S
C400 C402 1.327 . S
C400 H425 0.950 1_556 S
C401 C400 1.349 . S
C401 C417 1.349 . S
C402 C400 1.327 . S
C402 C421 1.429 . S
C402 H426 0.950 . S
C403 C420 1.574 . S
C403 C422 1.368 . S
C403 H427 0.949 . S
H404 C408 0.949 . S
C405 C406 1.349 . S
C405 C407 1.327 . S
C405 H428 0.950 . S
C406 C405 1.349 . S
C406 C418 1.349 . S
C407 C405 1.327 . S
C407 C423 1.429 . S
C407 H429 0.950 . S
C408 H404 0.949 . S
C408 C416 1.574 . S
C408 C424 1.368 . S
H409 C417 0.950 . S
H410 C415 0.950 . S
H411 C416 0.949 . S
H412 C418 0.950 . S
H413 C419 0.950 . S
H414 C420 0.949 . S
C415 H410 0.950 . S
C415 C417 1.327 . S
C415 C421 1.429 . S
C416 C408 1.574 . S
C416 H411 0.949 . S
C416 C422 1.368 . S
C417 C401 1.349 . S
C417 H409 0.950 . S
C417 C415 1.327 . S
C418 C406 1.349 . S
C418 H412 0.950 . S
C418 C419 1.327 . S
C419 H413 0.950 . S
C419 C418 1.327 . S
C419 C423 1.429 . S
C420 C403 1.574 . S
C420 H414 0.949 . S
C420 C424 1.368 . S
C421 C402 1.429 . S
C421 C415 1.429 . S
C421 C422 1.523 . S
C422 C403 1.368 . S
C422 C416 1.368 . S
C422 C421 1.523 . S
C423 C407 1.429 . S
C423 C419 1.429 . S
C423 C424 1.523 . S
C424 C408 1.368 . S
C424 C420 1.368 . S
C424 C423 1.523 . S
H425 C400 0.950 1_554 S
H426 C402 0.950 . S
H427 C403 0.949 . S
H428 C405 0.950 . S
H429 C407 0.950 . S
C430 C431 1.349 . S
C430 C432 1.327 . S
C430 H455 0.950 . S
C431 C430 1.349 . S
C431 C447 1.349 . S
C432 C430 1.327 . S
C432 C451 1.429 . S
C432 H456 0.950 . S
C433 C450 1.574 . S
C433 C452 1.368 . S
C433 H457 0.949 . S
H434 C438 0.949 . S
C435 C436 1.349 . S
C435 C437 1.327 . S
C435 H458 0.950 . S
C436 C435 1.349 . S
C436 C448 1.349 . S
C437 C435 1.327 . S
C437 C453 1.429 . S
C437 H459 0.950 . S
C438 H434 0.949 . S
C438 C446 1.574 . S
C438 C454 1.368 . S
H439 C447 0.950 . S
H440 C445 0.950 . S
H441 C446 0.949 . S
H442 C448 0.950 . S
H443 C449 0.950 . S
H444 C450 0.949 . S
C445 H440 0.950 . S
C445 C447 1.327 . S
C445 C451 1.429 . S
C446 C438 1.574 . S
C446 H441 0.949 . S
C446 C452 1.368 . S
C447 C431 1.349 . S
C447 H439 0.950 . S
C447 C445 1.327 . S
C448 C436 1.349 . S
C448 H442 0.950 . S
C448 C449 1.327 . S
C449 H443 0.950 . S
C449 C448 1.327 . S
C449 C453 1.429 . S
C450 C433 1.574 . S
C450 H444 0.949 . S
C450 C454 1.368 . S
C451 C432 1.429 . S
C451 C445 1.429 . S
C451 C452 1.523 . S
C452 C433 1.368 . S
C452 C446 1.368 . S
C452 C451 1.523 . S
C453 C437 1.429 . S
C453 C449 1.429 . S
C453 C454 1.523 . S
C454 C438 1.368 . S
C454 C450 1.368 . S
C454 C453 1.523 . S
H455 C430 0.950 . S
H456 C432 0.950 . S
H457 C433 0.949 . S
H458 C435 0.950 . S
H459 C437 0.950 . S
C460 C461 1.349 . S
C460 C462 1.327 . S
C460 H485 0.950 . S
C461 C460 1.349 . S
C461 C477 1.349 . S
C462 C460 1.327 . S
C462 C481 1.429 . S
C462 H486 0.950 . S
C463 C480 1.574 . S
C463 C482 1.368 . S
C463 H487 0.949 . S
H464 C468 0.949 . S
C465 C466 1.349 . S
C465 C467 1.327 . S
C465 H488 0.950 . S
C466 C465 1.349 . S
C466 C478 1.349 . S
C467 C465 1.327 . S
C467 C483 1.429 . S
C467 H489 0.950 . S
C468 H464 0.949 . S
C468 C476 1.574 . S
C468 C484 1.368 . S
H469 C477 0.950 . S
H470 C475 0.950 . S
H471 C476 0.949 . S
H472 C478 0.950 . S
H473 C479 0.950 . S
H474 C480 0.949 . S
C475 H470 0.950 . S
C475 C477 1.327 . S
C475 C481 1.429 . S
C476 C468 1.574 . S
C476 H471 0.949 . S
C476 C482 1.368 . S
C477 C461 1.349 . S
C477 H469 0.950 . S
C477 C475 1.327 . S
C478 C466 1.349 . S
C478 H472 0.950 . S
C478 C479 1.327 . S
C479 H473 0.950 . S
C479 C478 1.327 . S
C479 C483 1.429 . S
C480 C463 1.574 . S
C480 H474 0.949 . S
C480 C484 1.368 . S
C481 C462 1.429 . S
C481 C475 1.429 . S
C481 C482 1.523 . S
C482 C463 1.368 . S
C482 C476 1.368 . S
C482 C481 1.523 . S
C483 C467 1.429 . S
C483 C479 1.429 . S
C483 C484 1.523 . S
C484 C468 1.368 . S
C484 C480 1.368 . S
C484 C483 1.523 . S
H485 C460 0.950 . S
H486 C462 0.950 . S
H487 C463 0.949 . S
H488 C465 0.950 . S
H489 C467 0.950 . S
C490 C491 1.349 . S
C490 C492 1.327 . S
C490 H515 0.950 . S
C491 C490 1.349 . S
C491 C507 1.349 . S
C492 C490 1.327 . S
C492 C511 1.429 . S
C492 H516 0.950 . S
C493 C510 1.574 . S
C493 C512 1.368 . S
C493 H517 0.949 . S
H494 C498 0.949 . S
C495 C496 1.349 . S
C495 C497 1.327 . S
C495 H518 0.950 . S
C496 C495 1.349 . S
C496 C508 1.349 . S
C497 C495 1.327 . S
C497 C513 1.429 . S
C497 H519 0.950 . S
C498 H494 0.949 . S
C498 C506 1.574 . S
C498 C514 1.368 . S
H499 C507 0.950 . S
H500 C505 0.950 . S
H501 C506 0.949 . S
H502 C508 0.950 . S
H503 C509 0.950 . S
H504 C510 0.949 . S
C505 H500 0.950 . S
C505 C507 1.327 . S
C505 C511 1.429 . S
C506 C498 1.574 . S
C506 H501 0.949 . S
C506 C512 1.368 . S
C507 C491 1.349 . S
C507 H499 0.950 . S
C507 C505 1.327 . S
C508 C496 1.349 . S
C508 H502 0.950 . S
C508 C509 1.327 . S
C509 H503 0.950 . S
C509 C508 1.327 . S
C509 C513 1.429 . S
C510 C493 1.574 . S
C510 H504 0.949 . S
C510 C514 1.368 . S
C511 C492 1.429 . S
C511 C505 1.429 . S
C511 C512 1.523 . S
C512 C493 1.368 . S
C512 C506 1.368 . S
C512 C511 1.523 . S
C513 C497 1.429 . S
C513 C509 1.429 . S
C513 C514 1.523 . S
C514 C498 1.368 . S
C514 C510 1.368 . S
C514 C513 1.523 . S
H515 C490 0.950 . S
H516 C492 0.950 . S
H517 C493 0.949 . S
H518 C495 0.950 . S
H519 C497 0.950 . S
C520 C521 1.349 . S
C520 C522 1.327 . S
C520 H545 0.950 . S
C521 C520 1.349 . S
C521 C537 1.349 . S
C522 C520 1.327 . S
C522 C541 1.429 . S
C522 H546 0.950 . S
C523 C540 1.564 1_565 S
C523 C542 1.369 . S
C523 H547 0.957 . S
H524 C528 0.949 . S
C525 C526 1.349 . S
C525 C527 1.327 . S
C525 H548 0.950 . S
C526 C525 1.349 . S
C526 C538 1.349 . S
C527 C525 1.327 . S
C527 C543 1.429 . S
C527 H549 0.950 . S
C528 H524 0.949 . S
C528 C536 1.574 . S
C528 C544 1.368 . S
H529 C537 0.950 1_554 S
H530 C535 0.950 . S
H531 C536 0.949 . S
H532 C538 0.950 . S
H533 C539 0.950 . S
H534 C540 0.949 . S
C535 H530 0.950 . S
C535 C537 1.327 . S
C535 C541 1.429 . S
C536 C528 1.574 . S
C536 H531 0.949 . S
C536 C542 1.368 1_545 S
C537 C521 1.349 . S
C537 H529 0.950 1_556 S
C537 C535 1.327 . S
C538 C526 1.349 . S
C538 H532 0.950 . S
C538 C539 1.327 . S
C539 H533 0.950 . S
C539 C538 1.327 . S
C539 C543 1.429 . S
C540 C523 1.564 1_545 S
C540 H534 0.949 . S
C540 C544 1.368 . S
C541 C522 1.429 . S
C541 C535 1.429 . S
C541 C542 1.523 . S
C542 C523 1.369 . S
C542 C536 1.368 1_565 S
C542 C541 1.523 . S
C543 C527 1.429 . S
C543 C539 1.429 . S
C543 C544 1.523 . S
C544 C528 1.368 . S
C544 C540 1.368 . S
C544 C543 1.523 . S
H545 C520 0.950 . S
H546 C522 0.950 . S
H547 C523 0.957 . S
H548 C525 0.950 . S
H549 C527 0.950 . S
C550 C551 1.349 . S
C550 C552 1.327 . S
C550 H575 0.950 . S
C551 C550 1.349 . S
C551 C567 1.349 . S
C552 C550 1.327 . S
C552 C571 1.429 . S
C552 H576 0.950 . S
C553 C570 1.574 1_545 S
C553 C572 1.368 . S
C553 H577 0.949 . S
H554 C558 0.949 . S
C555 C556 1.349 . S
C555 C557 1.327 . S
C555 H578 0.950 . S
C556 C555 1.349 . S
C556 C568 1.349 . S
C557 C555 1.327 . S
C557 C573 1.429 . S
C557 H579 0.950 . S
C558 H554 0.949 . S
C558 C566 1.574 . S
C558 C574 1.368 . S
H559 C567 0.950 . S
H560 C565 0.950 . S
H561 C566 0.949 . S
H562 C568 0.950 . S
H563 C569 0.950 . S
H564 C570 0.949 . S
C565 H560 0.950 . S
C565 C567 1.327 . S
C565 C571 1.429 . S
C566 C558 1.574 . S
C566 H561 0.949 . S
C566 C572 1.368 1_565 S
C567 C551 1.349 . S
C567 H559 0.950 . S
C567 C565 1.327 . S
C568 C556 1.349 . S
C568 H562 0.950 . S
C568 C569 1.327 . S
C569 H563 0.950 . S
C569 C568 1.327 . S
C569 C573 1.429 . S
C570 C553 1.574 1_565 S
C570 H564 0.949 . S
C570 C574 1.368 . S
C571 C552 1.429 . S
C571 C565 1.429 . S
C571 C572 1.523 . S
C572 C553 1.368 . S
C572 C566 1.368 1_545 S
C572 C571 1.523 . S
C573 C557 1.429 . S
C573 C569 1.429 . S
C573 C574 1.523 . S
C574 C558 1.368 . S
C574 C570 1.368 . S
C574 C573 1.523 . S
H575 C550 0.950 . S
H576 C552 0.950 . S
H577 C553 0.949 . S
H578 C555 0.950 . S
H579 C557 0.950 . S
C580 C581 1.349 . S
C580 C582 1.327 . S
C580 H605 0.950 1_556 S
C581 C580 1.349 . S
C581 C597 1.349 . S
C582 C580 1.327 . S
C582 C601 1.429 . S
C582 H606 0.950 . S
C583 C600 1.574 . S
C583 C602 1.368 . S
C583 H607 0.949 1_545 S
H584 C588 0.949 . S
C585 C586 1.349 . S
C585 C587 1.327 . S
C585 H608 0.950 . S
C586 C585 1.349 . S
C586 C598 1.349 . S
C587 C585 1.327 . S
C587 C603 1.429 . S
C587 H609 0.950 . S
C588 H584 0.949 . S
C588 C596 1.574 . S
C588 C604 1.368 . S
H589 C597 0.950 . S
H590 C595 0.950 . S
H591 C596 0.949 . S
H592 C598 0.950 . S
H593 C599 0.950 . S
H594 C600 0.949 . S
C595 H590 0.950 . S
C595 C597 1.327 . S
C595 C601 1.429 . S
C596 C588 1.574 . S
C596 H591 0.949 . S
C596 C602 1.368 . S
C597 C581 1.349 . S
C597 H589 0.950 . S
C597 C595 1.327 . S
C598 C586 1.349 . S
C598 H592 0.950 . S
C598 C599 1.327 . S
C599 H593 0.950 . S
C599 C598 1.327 . S
C599 C603 1.429 . S
C600 C583 1.574 . S
C600 H594 0.949 . S
C600 C604 1.368 . S
C601 C582 1.429 . S
C601 C595 1.429 . S
C601 C602 1.523 1_565 S
C602 C583 1.368 . S
C602 C596 1.368 . S
C602 C601 1.523 1_545 S
C603 C587 1.429 . S
C603 C599 1.429 . S
C603 C604 1.523 . S
C604 C588 1.368 . S
C604 C600 1.368 . S
C604 C603 1.523 . S
H605 C580 0.950 1_554 S
H606 C582 0.950 . S
H607 C583 0.949 1_565 S
H608 C585 0.950 . S
H609 C587 0.950 . S
C610 C611 1.349 . S
C610 C612 1.327 . S
C610 H635 0.950 . S
C611 C610 1.349 . S
C611 C627 1.349 . S
C612 C610 1.327 . S
C612 C631 1.429 . S
C612 H636 0.950 . S
C613 C630 1.574 . S
C613 C632 1.368 . S
C613 H637 0.949 1_565 S
H614 C618 0.949 . S
C615 C616 1.349 . S
C615 C617 1.327 . S
C615 H638 0.950 . S
C616 C615 1.349 . S
C616 C628 1.349 . S
C617 C615 1.327 . S
C617 C633 1.429 . S
C617 H639 0.950 . S
C618 H614 0.949 . S
C618 C626 1.574 . S
C618 C634 1.368 . S
H619 C627 0.950 . S
H620 C625 0.950 . S
H621 C626 0.949 . S
H622 C628 0.950 . S
H623 C629 0.950 . S
H624 C630 0.949 . S
C625 H620 0.950 . S
C625 C627 1.327 . S
C625 C631 1.429 . S
C626 C618 1.574 . S
C626 H621 0.949 . S
C626 C632 1.368 . S
C627 C611 1.349 . S
C627 H619 0.950 . S
C627 C625 1.327 . S
C628 C616 1.349 . S
C628 H622 0.950 . S
C628 C629 1.327 . S
C629 H623 0.950 . S
C629 C628 1.327 . S
C629 C633 1.429 . S
C630 C613 1.574 . S
C630 H624 0.949 . S
C630 C634 1.368 . S
C631 C612 1.429 . S
C631 C625 1.429 . S
C631 C632 1.523 1_545 S
C632 C613 1.368 . S
C632 C626 1.368 . S
C632 C631 1.523 1_565 S
C633 C617 1.429 . S
C633 C629 1.429 . S
C633 C634 1.523 . S
C634 C618 1.368 . S
C634 C630 1.368 . S
C634 C633 1.523 . S
H635 C610 0.950 . S
H636 C612 0.950 . S
H637 C613 0.949 1_545 S
H638 C615 0.950 . S
H639 C617 0.950 . S
C640 C641 1.349 . S
C640 C642 1.327 . S
C640 H665 0.950 . S
C641 C640 1.349 . S
C641 C657 1.349 . S
C642 C640 1.327 . S
C642 C661 1.429 . S
C642 H666 0.950 . S
C643 C660 1.574 . S
C643 C662 1.368 . S
C643 H667 0.949 . S
H644 C648 0.949 . S
C645 C646 1.349 . S
C645 C647 1.327 . S
C645 H668 0.950 . S
C646 C645 1.349 . S
C646 C658 1.349 . S
C647 C645 1.327 . S
C647 C663 1.429 . S
C647 H669 0.950 . S
C648 H644 0.949 . S
C648 C656 1.574 . S
C648 C664 1.368 . S
H649 C657 0.950 . S
H650 C655 0.950 . S
H651 C656 0.949 . S
H652 C658 0.950 . S
H653 C659 0.950 . S
H654 C660 0.949 . S
C655 H650 0.950 . S
C655 C657 1.327 . S
C655 C661 1.429 . S
C656 C648 1.574 . S
C656 H651 0.949 . S
C656 C662 1.368 . S
C657 C641 1.349 . S
C657 H649 0.950 . S
C657 C655 1.327 . S
C658 C646 1.349 . S
C658 H652 0.950 . S
C658 C659 1.327 . S
C659 H653 0.950 . S
C659 C658 1.327 . S
C659 C663 1.429 . S
C660 C643 1.574 . S
C660 H654 0.949 . S
C660 C664 1.368 . S
C661 C642 1.429 . S
C661 C655 1.429 . S
C661 C662 1.523 . S
C662 C643 1.368 . S
C662 C656 1.368 . S
C662 C661 1.523 . S
C663 C647 1.429 . S
C663 C659 1.429 . S
C663 C664 1.523 . S
C664 C648 1.368 . S
C664 C660 1.368 . S
C664 C663 1.523 . S
H665 C640 0.950 . S
H666 C642 0.950 . S
H667 C643 0.949 . S
H668 C645 0.950 . S
H669 C647 0.950 . S
C670 C671 1.349 . S
C670 C672 1.327 . S
C670 H695 0.950 . S
C671 C670 1.349 . S
C671 C687 1.349 . S
C672 C670 1.327 . S
C672 C691 1.429 . S
C672 H696 0.950 . S
C673 C690 1.574 . S
C673 C692 1.368 . S
C673 H697 0.949 . S
H674 C678 0.949 . S
C675 C676 1.349 . S
C675 C677 1.327 . S
C675 H698 0.950 . S
C676 C675 1.349 . S
C676 C688 1.349 . S
C677 C675 1.327 . S
C677 C693 1.429 . S
C677 H699 0.950 . S
C678 H674 0.949 . S
C678 C686 1.574 . S
C678 C694 1.368 . S
H679 C687 0.950 . S
H680 C685 0.950 . S
H681 C686 0.949 . S
H682 C688 0.950 . S
H683 C689 0.950 . S
H684 C690 0.949 . S
C685 H680 0.950 . S
C685 C687 1.327 . S
C685 C691 1.429 . S
C686 C678 1.574 . S
C686 H681 0.949 . S
C686 C692 1.368 . S
C687 C671 1.349 . S
C687 H679 0.950 . S
C687 C685 1.327 . S
C688 C676 1.349 . S
C688 H682 0.950 . S
C688 C689 1.327 . S
C689 H683 0.950 . S
C689 C688 1.327 . S
C689 C693 1.429 . S
C690 C673 1.574 . S
C690 H684 0.949 . S
C690 C694 1.368 . S
C691 C672 1.429 . S
C691 C685 1.429 . S
C691 C692 1.523 . S
C692 C673 1.368 . S
C692 C686 1.368 . S
C692 C691 1.523 . S
C693 C677 1.429 . S
C693 C689 1.429 . S
C693 C694 1.523 . S
C694 C678 1.368 . S
C694 C690 1.368 . S
C694 C693 1.523 . S
H695 C670 0.950 . S
H696 C672 0.950 . S
H697 C673 0.949 . S
H698 C675 0.950 . S
H699 C677 0.950 . S
C700 C701 1.349 . S
C700 C702 1.327 . S
C700 H725 0.950 . S
C701 C700 1.349 . S
C701 C717 1.349 . S
C702 C700 1.327 . S
C702 C721 1.429 . S
C702 H726 0.950 . S
C703 C720 1.574 . S
C703 C722 1.368 . S
C703 H727 0.949 . S
H704 C708 0.949 . S
C705 C706 1.349 . S
C705 C707 1.327 . S
C705 H728 0.950 . S
C706 C705 1.349 . S
C706 C718 1.349 . S
C707 C705 1.327 . S
C707 C723 1.429 . S
C707 H729 0.950 . S
C708 H704 0.949 . S
C708 C716 1.574 . S
C708 C724 1.368 . S
H709 C717 0.950 . S
H710 C715 0.950 . S
H711 C716 0.949 . S
H712 C718 0.950 . S
H713 C719 0.950 . S
H714 C720 0.949 . S
C715 H710 0.950 . S
C715 C717 1.327 . S
C715 C721 1.429 . S
C716 C708 1.574 . S
C716 H711 0.949 . S
C716 C722 1.368 . S
C717 C701 1.349 . S
C717 H709 0.950 . S
C717 C715 1.327 . S
C718 C706 1.349 . S
C718 H712 0.950 . S
C718 C719 1.327 . S
C719 H713 0.950 . S
C719 C718 1.327 . S
C719 C723 1.429 . S
C720 C703 1.574 . S
C720 H714 0.949 . S
C720 C724 1.368 . S
C721 C702 1.429 . S
C721 C715 1.429 . S
C721 C722 1.523 . S
C722 C703 1.368 . S
C722 C716 1.368 . S
C722 C721 1.523 . S
C723 C707 1.429 . S
C723 C719 1.429 . S
C723 C724 1.523 . S
C724 C708 1.368 . S
C724 C720 1.368 . S
C724 C723 1.523 . S
H725 C700 0.950 . S
H726 C702 0.950 . S
H727 C703 0.949 . S
H728 C705 0.950 . S
H729 C707 0.950 . S
C730 C731 1.349 . S
C730 C732 1.327 . S
C730 H755 0.950 . S
C731 C730 1.349 . S
C731 C747 1.349 . S
C732 C730 1.327 . S
C732 C751 1.429 . S
C732 H756 0.950 . S
C733 C750 1.574 . S
C733 C752 1.368 . S
C733 H757 0.949 . S
H734 C738 0.949 . S
C735 C736 1.349 . S
C735 C737 1.327 . S
C735 H758 0.950 . S
C736 C735 1.349 . S
C736 C748 1.349 . S
C737 C735 1.327 . S
C737 C753 1.429 . S
C737 H759 0.950 . S
C738 H734 0.949 . S
C738 C746 1.574 . S
C738 C754 1.368 . S
H739 C747 0.950 . S
H740 C745 0.950 . S
H741 C746 0.949 . S
H742 C748 0.950 . S
H743 C749 0.950 . S
H744 C750 0.949 . S
C745 H740 0.950 . S
C745 C747 1.327 . S
C745 C751 1.429 . S
C746 C738 1.574 . S
C746 H741 0.949 . S
C746 C752 1.368 . S
C747 C731 1.349 . S
C747 H739 0.950 . S
C747 C745 1.327 . S
C748 C736 1.349 . S
C748 H742 0.950 . S
C748 C749 1.327 . S
C749 H743 0.950 . S
C749 C748 1.327 . S
C749 C753 1.429 . S
C750 C733 1.574 . S
C750 H744 0.949 . S
C750 C754 1.368 . S
C751 C732 1.429 . S
C751 C745 1.429 . S
C751 C752 1.523 . S
C752 C733 1.368 . S
C752 C746 1.368 . S
C752 C751 1.523 . S
C753 C737 1.429 . S
C753 C749 1.429 . S
C753 C754 1.523 . S
C754 C738 1.368 . S
C754 C750 1.368 . S
C754 C753 1.523 . S
H755 C730 0.950 . S
H756 C732 0.950 . S
H757 C733 0.949 . S
H758 C735 0.950 . S
H759 C737 0.950 . S
C760 C761 1.349 . S
C760 C762 1.327 . S
C760 H785 0.950 . S
C761 C760 1.349 . S
C761 C777 1.349 . S
C762 C760 1.327 . S
C762 C781 1.429 . S
C762 H786 0.950 . S
C763 C780 1.574 . S
C763 C782 1.368 . S
C763 H787 0.949 . S
H764 C768 0.949 . S
C765 C766 1.349 . S
C765 C767 1.327 . S
C765 H788 0.950 . S
C766 C765 1.349 . S
C766 C778 1.349 . S
C767 C765 1.327 . S
C767 C783 1.429 . S
C767 H789 0.950 . S
C768 H764 0.949 . S
C768 C776 1.574 . S
C768 C784 1.368 . S
H769 C777 0.950 . S
H770 C775 0.950 . S
H771 C776 0.949 . S
H772 C778 0.950 . S
H773 C779 0.950 . S
H774 C780 0.949 . S
C775 H770 0.950 . S
C775 C777 1.327 . S
C775 C781 1.429 . S
C776 C768 1.574 . S
C776 H771 0.949 . S
C776 C782 1.368 . S
C777 C761 1.349 . S
C777 H769 0.950 . S
C777 C775 1.327 . S
C778 C766 1.349 . S
C778 H772 0.950 . S
C778 C779 1.327 . S
C779 H773 0.950 . S
C779 C778 1.327 . S
C779 C783 1.429 . S
C780 C763 1.574 . S
C780 H774 0.949 . S
C780 C784 1.368 . S
C781 C762 1.429 . S
C781 C775 1.429 . S
C781 C782 1.523 . S
C782 C763 1.368 . S
C782 C776 1.368 . S
C782 C781 1.523 . S
C783 C767 1.429 . S
C783 C779 1.429 . S
C783 C784 1.523 . S
C784 C768 1.368 . S
C784 C780 1.368 . S
C784 C783 1.523 . S
H785 C760 0.950 . S
H786 C762 0.950 . S
H787 C763 0.949 . S
H788 C765 0.950 . S
H789 C767 0.950 . S
C790 C791 1.349 . S
C790 C792 1.327 . S
C790 H815 0.950 . S
C791 C790 1.349 . S
C791 C807 1.349 . S
C792 C790 1.327 . S
C792 C811 1.429 . S
C792 H816 0.950 . S
C793 C810 1.574 . S
C793 C812 1.368 . S
C793 H817 0.949 . S
H794 C798 0.949 . S
C795 C796 1.349 . S
C795 C797 1.327 . S
C795 H818 0.950 . S
C796 C795 1.349 . S
C796 C808 1.349 . S
C797 C795 1.327 . S
C797 C813 1.429 . S
C797 H819 0.950 . S
C798 H794 0.949 . S
C798 C806 1.574 . S
C798 C814 1.368 . S
H799 C807 0.950 . S
H800 C805 0.950 . S
H801 C806 0.949 . S
H802 C808 0.950 . S
H803 C809 0.950 . S
H804 C810 0.949 . S
C805 H800 0.950 . S
C805 C807 1.327 . S
C805 C811 1.429 . S
C806 C798 1.574 . S
C806 H801 0.949 . S
C806 C812 1.368 . S
C807 C791 1.349 . S
C807 H799 0.950 . S
C807 C805 1.327 . S
C808 C796 1.349 . S
C808 H802 0.950 . S
C808 C809 1.327 . S
C809 H803 0.950 . S
C809 C808 1.327 . S
C809 C813 1.429 . S
C810 C793 1.574 . S
C810 H804 0.949 . S
C810 C814 1.368 . S
C811 C792 1.429 . S
C811 C805 1.429 . S
C811 C812 1.523 . S
C812 C793 1.368 . S
C812 C806 1.368 . S
C812 C811 1.523 . S
C813 C797 1.429 . S
C813 C809 1.429 . S
C813 C814 1.523 . S
C814 C798 1.368 . S
C814 C810 1.368 . S
C814 C813 1.523 . S
H815 C790 0.950 . S
H816 C792 0.950 . S
H817 C793 0.949 . S
H818 C795 0.950 . S
H819 C797 0.950 . S
C820 C821 1.349 . S
C820 C822 1.327 . S
C820 H845 0.950 . S
C821 C820 1.349 . S
C821 C837 1.349 . S
C822 C820 1.327 . S
C822 C841 1.429 . S
C822 H846 0.950 . S
C823 C840 1.574 . S
C823 C842 1.368 . S
C823 H847 0.949 . S
H824 C828 0.949 . S
C825 C826 1.349 . S
C825 C827 1.327 . S
C825 H848 0.950 . S
C826 C825 1.349 . S
C826 C838 1.349 . S
C827 C825 1.327 . S
C827 C843 1.429 . S
C827 H849 0.950 . S
C828 H824 0.949 . S
C828 C836 1.574 . S
C828 C844 1.368 . S
H829 C837 0.950 . S
H830 C835 0.950 . S
H831 C836 0.949 . S
H832 C838 0.950 . S
H833 C839 0.950 . S
H834 C840 0.949 . S
C835 H830 0.950 . S
C835 C837 1.327 . S
C835 C841 1.429 . S
C836 C828 1.574 . S
C836 H831 0.949 . S
C836 C842 1.368 . S
C837 C821 1.349 . S
C837 H829 0.950 . S
C837 C835 1.327 . S
C838 C826 1.349 . S
C838 H832 0.950 . S
C838 C839 1.327 . S
C839 H833 0.950 . S
C839 C838 1.327 . S
C839 C843 1.429 . S
C840 C823 1.574 . S
C840 H834 0.949 . S
C840 C844 1.368 . S
C841 C822 1.429 . S
C841 C835 1.429 . S
C841 C842 1.523 . S
C842 C823 1.368 . S
C842 C836 1.368 . S
C842 C841 1.523 . S
C843 C827 1.429 . S
C843 C839 1.429 . S
C843 C844 1.523 . S
C844 C828 1.368 . S
C844 C840 1.368 . S
C844 C843 1.523 . S
H845 C820 0.950 . S
H846 C822 0.950 . S
H847 C823 0.949 . S
H848 C825 0.950 . S
H849 C827 0.950 . S
C850 C851 1.349 . S
C850 C852 1.327 . S
C850 H875 0.950 . S
C851 C850 1.349 . S
C851 C867 1.349 . S
C852 C850 1.327 . S
C852 C871 1.429 . S
C852 H876 0.950 . S
C853 C870 1.574 . S
C853 C872 1.368 . S
C853 H877 0.949 . S
H854 C858 0.949 . S
C855 C856 1.349 . S
C855 C857 1.327 . S
C855 H878 0.950 . S
C856 C855 1.349 . S
C856 C868 1.349 . S
C857 C855 1.327 . S
C857 C873 1.429 . S
C857 H879 0.950 . S
C858 H854 0.949 . S
C858 C866 1.574 . S
C858 C874 1.368 . S
H859 C867 0.950 . S
H860 C865 0.950 . S
H861 C866 0.949 . S
H862 C868 0.950 . S
H863 C869 0.950 . S
H864 C870 0.949 . S
C865 H860 0.950 . S
C865 C867 1.327 . S
C865 C871 1.429 . S
C866 C858 1.574 . S
C866 H861 0.949 . S
C866 C872 1.368 . S
C867 C851 1.349 . S
C867 H859 0.950 . S
C867 C865 1.327 . S
C868 C856 1.349 . S
C868 H862 0.950 . S
C868 C869 1.327 . S
C869 H863 0.950 . S
C869 C868 1.327 . S
C869 C873 1.429 . S
C870 C853 1.574 . S
C870 H864 0.949 . S
C870 C874 1.368 . S
C871 C852 1.429 . S
C871 C865 1.429 . S
C871 C872 1.523 . S
C872 C853 1.368 . S
C872 C866 1.368 . S
C872 C871 1.523 . S
C873 C857 1.429 . S
C873 C869 1.429 . S
C873 C874 1.523 . S
C874 C858 1.368 . S
C874 C870 1.368 . S
C874 C873 1.523 . S
H875 C850 0.950 . S
H876 C852 0.950 . S
H877 C853 0.949 . S
H878 C855 0.950 . S
H879 C857 0.950 . S
C161 C7 1.513 . S
C166 C115 1.502 . S
C196 C79 1.502 . S
C191 C16 1.513 . S
C226 C102 1.486 . S
C221 C25 1.489 . S
C256 C90 1.491 . S
C251 C34 1.491 . S
C286 C159 1.502 . S
C281 C43 1.513 . S
C316 C123 1.502 . S
C311 C52 1.512 . S
C341 C61 1.490 . S
C346 C146 1.487 . S
C376 C134 1.491 . S
C371 C70 1.491 . S
C401 C5 1.443 . S
C406 C156 1.446 . S
C436 C126 1.446 . S
C431 C14 1.444 . S
C461 C22 1.469 . S
C466 C145 1.461 . S
C491 C32 1.471 . S
C496 C131 1.465 . S
C526 C112 1.446 . S
C521 C41 1.443 . S
C551 C50 1.444 . S
C556 C82 1.446 . S
C586 C101 1.461 . S
C581 C58 1.469 . S
C616 C87 1.465 . S
C611 C68 1.471 . S
C646 C137 1.442 . S
C641 C4 1.455 . S
C676 C153 1.443 . S
C671 C13 1.455 . S
C701 C23 1.417 . S
C706 C124 1.419 . S
C736 C148 1.419 . S
C731 C31 1.415 . S
C766 C93 1.442 . S
C761 C40 1.454 . S
C791 C49 1.456 . S
C796 C109 1.443 . S
C821 C59 1.417 . S
C826 C80 1.419 . S
C851 C67 1.415 . S
C856 C104 1.419 . S
