# Generated by pormake.
# Topology anh, (6,3)-cn, num edge types: 1
# Building blocks:
#     Node 0, Type 0, BuildingBlock: INOVEN_clean_sbu_0, # of connection points: 6
#     Node 1, Type 0, BuildingBlock: INOVEN_clean_sbu_0, # of connection points: 6
#     Node 2, Type 0, BuildingBlock: INOVEN_clean_sbu_0, # of connection points: 6
#     Node 3, Type 1, BuildingBlock: MIDCAF_clean_linker_0, # of connection points: 3
#     Node 4, Type 1, BuildingBlock: MIDCAF_clean_linker_0, # of connection points: 3
#     Node 5, Type 1, BuildingBlock: MIDCAF_clean_linker_0, # of connection points: 3
#     Node 6, Type 1, BuildingBlock: MIDCAF_clean_linker_0, # of connection points: 3
#     Node 7, Type 1, BuildingBlock: MIDCAF_clean_linker_0, # of connection points: 3
#     Node 8, Type 1, BuildingBlock: MIDCAF_clean_linker_0, # of connection points: 3
#     Edge 9, Type (0, 1), BuildingBlock: CIFDUS_clean_linker_0, # of connection points: 2
#     Edge 10, Type (0, 1), BuildingBlock: CIFDUS_clean_linker_0, # of connection points: 2
#     Edge 11, Type (0, 1), BuildingBlock: CIFDUS_clean_linker_0, # of connection points: 2
#     Edge 12, Type (0, 1), BuildingBlock: CIFDUS_clean_linker_0, # of connection points: 2
#     Edge 13, Type (0, 1), BuildingBlock: CIFDUS_clean_linker_0, # of connection points: 2
#     Edge 14, Type (0, 1), BuildingBlock: CIFDUS_clean_linker_0, # of connection points: 2
#     Edge 15, Type (0, 1), BuildingBlock: CIFDUS_clean_linker_0, # of connection points: 2
#     Edge 16, Type (0, 1), BuildingBlock: CIFDUS_clean_linker_0, # of connection points: 2
#     Edge 17, Type (0, 1), BuildingBlock: CIFDUS_clean_linker_0, # of connection points: 2
#     Edge 18, Type (0, 1), BuildingBlock: CIFDUS_clean_linker_0, # of connection points: 2
#     Edge 19, Type (0, 1), BuildingBlock: CIFDUS_clean_linker_0, # of connection points: 2
#     Edge 20, Type (0, 1), BuildingBlock: CIFDUS_clean_linker_0, # of connection points: 2
#     Edge 21, Type (0, 1), BuildingBlock: CIFDUS_clean_linker_0, # of connection points: 2
#     Edge 22, Type (0, 1), BuildingBlock: CIFDUS_clean_linker_0, # of connection points: 2
#     Edge 23, Type (0, 1), BuildingBlock: CIFDUS_clean_linker_0, # of connection points: 2
#     Edge 24, Type (0, 1), BuildingBlock: CIFDUS_clean_linker_0, # of connection points: 2
#     Edge 25, Type (0, 1), BuildingBlock: CIFDUS_clean_linker_0, # of connection points: 2
#     Edge 26, Type (0, 1), BuildingBlock: CIFDUS_clean_linker_0, # of connection points: 2
# Relax obj value: 0.191
# Max RMSD: 0.219
# Mean RMSD: 0.161
data_MOF--net-anh--node1-INOVEN_clean_sbu_0--node2-MIDCAF_clean_linker_0--edge1-CIFDUS_clean_linker_0
_symmetry_space_group_name_H-M    P1
_symmetry_Int_Tables_number       1
_symmetry_cell_setting            triclinic
loop_
_symmetry_equiv_pos_as_xyz
'x, y, z'
_cell_length_a     33.002349
_cell_length_b     39.89852
_cell_length_c     59.923715
_cell_angle_alpha  92.530349
_cell_angle_beta   89.701995
_cell_angle_gamma 129.48635
loop_
_atom_site_label
_atom_site_type_symbol
_atom_site_fract_x
_atom_site_fract_y
_atom_site_fract_z
_atom_type_partial_charge
Gd0 Gd 0.1292 0.51058 0.14985 0.0
Gd1 Gd 0.07199 0.54309 0.14733 0.0
C2 C 0.19534 0.61465 0.15111 0.0
C3 C 0.20283 0.50735 0.15007 0.0
C4 C 0.2521 0.53927 0.16305 0.0
C5 C 0.25629 0.53429 0.18586 0.0
C6 C 0.29626 0.5755 0.15284 0.0
C7 C 0.35023 0.58364 0.18287 0.0
C8 C 0.34536 0.60006 0.16375 0.0
C9 C 0.30604 0.55874 0.19625 0.0
C10 C 0.08797 0.50849 0.18908 0.0
C11 C 1.00993 0.4396 0.14217 0.0
C12 C 1.02665 0.57195 0.16334 0.0
C13 C 0.99422 0.55896 0.18281 0.0
C14 C 0.96926 0.57637 0.18729 0.0
C15 C 0.98024 0.52318 0.19426 0.0
C16 C 0.90394 0.51264 0.20771 0.0
C17 C 0.93565 0.5005 0.20716 0.0
C18 C 0.92453 0.5536 0.20011 0.0
C19 C 0.08911 0.53356 0.1043 0.0
O20 O 0.19395 0.5824 0.15662 0.0
O21 O 0.15239 0.60731 0.14439 0.0
O22 O 0.16087 0.48079 0.16167 0.0
O23 O 0.19488 0.5222 0.13304 0.0
O24 O 0.08647 0.47715 0.18088 0.0
O25 O 0.11068 0.53919 0.17587 0.0
O26 O 1.00884 0.46998 0.1513 0.0
O27 O 1.05448 0.4503 0.13513 0.0
O28 O 1.00573 0.54181 0.14707 0.0
O29 O 0.07598 0.59119 0.16769 0.0
O30 O 1.06345 0.54668 0.11056 0.0
O31 O 0.10386 0.52511 0.12097 0.0
H32 H 0.22244 0.50884 0.19491 0.0
H33 H 0.29375 0.58275 0.13594 0.0
H34 H 0.37971 0.62348 0.15427 0.0
H35 H 0.30932 0.5491 0.21232 0.0
H36 H 0.98052 0.60454 0.17885 0.0
H37 H 0.99975 0.5097 0.19104 0.0
H38 H 0.92128 0.46959 0.21327 0.0
H39 H 0.90168 0.56447 0.20063 0.0
Gd40 Gd 0.62084 1.00653 0.47271 0.0
Gd41 Gd 0.56122 0.03836 0.46769 0.0
C42 C 0.49373 0.93668 0.4651 0.0
C43 C 0.65547 0.96663 0.48335 0.0
C44 C 0.63607 0.92153 0.48248 0.0
C45 C 0.63199 0.90023 0.4622 0.0
C46 C 0.62396 0.90016 0.50241 0.0
C47 C 0.60726 0.83815 0.48212 0.0
C48 C 0.60952 0.85887 0.50224 0.0
C49 C 0.6178 0.85891 0.46204 0.0
C50 C 0.61675 0.02581 0.43079 0.0
C51 C 0.68877 0.10861 0.47459 0.0
C52 C 0.52796 0.07864 0.45562 0.0
C53 C 0.54375 0.1222 0.46 0.0
C54 C 0.55036 0.13931 0.4819 0.0
C55 C 0.55242 0.14713 0.44196 0.0
C56 C 0.57203 0.20504 0.46763 0.0
C57 C 0.5665 0.18822 0.44573 0.0
C58 C 0.56414 0.18022 0.48567 0.0
C59 C 0.57069 0.02373 0.51042 0.0
O60 O 0.53607 0.94429 0.4734 0.0
O61 O 0.49586 0.96859 0.45808 0.0
O62 O 0.66476 0.98476 0.46429 0.0
O63 O 0.63341 0.97603 0.49761 0.0
O64 O 0.65783 0.03413 0.44004 0.0
O65 O 0.57844 1.00578 0.44373 0.0
O66 O 0.64538 0.10091 0.4678 0.0
O67 O 0.6883 0.07694 0.48063 0.0
O68 O 0.50867 0.05284 0.47229 0.0
O69 O 0.56014 0.07702 0.44379 0.0
O70 O 0.52931 0.01642 0.50221 0.0
O71 O 0.60605 0.04105 0.4962 0.0
H72 H 0.64091 0.91578 0.4465 0.0
H73 H 0.62707 0.9159 0.51827 0.0
H74 H 0.60249 0.84403 0.51804 0.0
H75 H 0.61605 0.84356 0.4463 0.0
H76 H 0.54432 0.12096 0.49616 0.0
H77 H 0.54799 0.13467 0.42493 0.0
H78 H 0.57295 0.20677 0.4315 0.0
H79 H 0.56729 0.19189 0.50275 0.0
Gd80 Gd 0.67841 0.59852 0.83171 0.0
Gd81 Gd 0.59962 0.50175 0.83646 0.0
C82 C 0.55183 0.55057 0.83577 0.0
C83 C 0.72596 0.67683 0.81994 0.0
C84 C 0.71204 0.70536 0.81825 0.0
C85 C 0.73647 0.7423 0.83286 0.0
C86 C 0.67512 0.69659 0.80215 0.0
C87 C 0.68934 0.76245 0.81466 0.0
C88 C 0.66401 0.72487 0.80034 0.0
C89 C 0.72505 0.77037 0.83118 0.0
C90 C 0.66155 0.5734 0.87387 0.0
C91 C 0.72733 0.55082 0.8358 0.0
C92 C 0.55326 0.42284 0.84693 0.0
C93 C 0.55868 0.38995 0.83947 0.0
C94 C 0.55731 0.37955 0.81661 0.0
C95 C 0.56572 0.36884 0.85522 0.0
C96 C 0.56591 0.32522 0.82545 0.0
C97 C 0.56953 0.33688 0.84828 0.0
C98 C 0.56072 0.34752 0.80972 0.0
C99 C 0.6169 0.52595 0.79389 0.0
O100 O 0.5983 0.58303 0.82788 0.0
O101 O 0.54472 0.51672 0.84382 0.0
O102 O 0.72984 0.66779 0.84013 0.0
O103 O 0.70304 0.64331 0.80561 0.0
O104 O 0.70727 0.60599 0.86703 0.0
O105 O 0.62699 0.55757 0.85862 0.0
O106 O 0.67869 0.51685 0.84075 0.0
O107 O 0.73751 0.58671 0.82905 0.0
O108 O 0.53376 0.43291 0.83227 0.0
O109 O 0.59285 0.45681 0.85866 0.0
O110 O 0.57192 0.49292 0.80095 0.0
O111 O 0.65165 0.54259 0.80919 0.0
H112 H 0.76481 0.7497 0.84552 0.0
H113 H 0.65531 0.66825 0.79069 0.0
H114 H 0.63676 0.7179 0.78725 0.0
H115 H 0.74456 0.79848 0.84277 0.0
H116 H 0.55305 0.39583 0.804 0.0
H117 H 0.56756 0.37667 0.87292 0.0
H118 H 0.57353 0.32032 0.8608 0.0
H119 H 0.55887 0.33994 0.79198 0.0
C120 C 0.47353 0.8755 0.18367 0.0
C121 C 0.44427 0.86886 0.16454 0.0
C122 C 0.46058 0.9057 0.1531 0.0
C123 C 0.50315 0.948 0.16138 0.0
H124 H 0.66519 0.09473 0.15308 0.0
H125 H 0.73487 0.1681 0.1399 0.0
H126 H 0.77369 0.22041 0.20807 0.0
H127 H 0.70626 0.1491 0.22118 0.0
H128 H 0.64355 0.10247 0.26035 0.0
H129 H 0.63445 0.10018 0.30072 0.0
H130 H 0.5127 0.96066 0.29417 0.0
H131 H 0.52078 0.96289 0.25382 0.0
H132 H 0.53565 0.92085 0.20712 0.0
H133 H 0.46222 0.84856 0.19333 0.0
H134 H 0.43957 0.90197 0.13812 0.0
H135 H 0.51292 0.97576 0.15306 0.0
N136 N 0.60349 0.03497 0.18411 0.0
N137 N 0.62804 0.07134 0.21966 0.0
N138 N 0.55936 0.9968 0.21624 0.0
C139 C 0.63551 0.07267 0.19726 0.0
C140 C 0.59012 0.0338 0.22927 0.0
C141 C 0.56537 0.99674 0.19383 0.0
C142 C 0.67899 0.11567 0.1882 0.0
C143 C 0.68882 0.12189 0.16521 0.0
C144 C 0.72878 0.1638 0.15767 0.0
C145 C 0.75904 0.20005 0.17299 0.0
C146 C 0.75041 0.19334 0.19584 0.0
C147 C 0.71134 0.15204 0.20332 0.0
C148 C 0.58317 0.03284 0.25377 0.0
C149 C 0.61455 0.0713 0.26746 0.0
C150 C 0.60945 0.07 0.29065 0.0
C151 C 0.57295 0.03021 0.30071 0.0
C152 C 0.5407 0.99192 0.28697 0.0
C153 C 0.5457 0.99321 0.2638 0.0
C154 C 0.52999 0.95407 0.18125 0.0
C155 C 0.51576 0.91728 0.19176 0.0
C156 C 0.60585 0.40937 0.54381 0.0
C157 C 0.61813 0.41229 0.52119 0.0
C158 C 0.62611 0.44536 0.50909 0.0
C159 C 0.6244 0.47637 0.51989 0.0
H160 H 0.60509 0.57212 0.5117 0.0
H161 H 0.58676 0.61561 0.49404 0.0
H162 H 0.58562 0.66602 0.55906 0.0
H163 H 0.60368 0.62314 0.5767 0.0
H164 H 0.63677 0.60238 0.62056 0.0
H165 H 0.63297 0.59921 0.66142 0.0
H166 H 0.61001 0.47999 0.6563 0.0
H167 H 0.61449 0.48299 0.61587 0.0
H168 H 0.59512 0.43682 0.57209 0.0
H169 H 0.59806 0.38346 0.55336 0.0
H170 H 0.63528 0.448 0.49155 0.0
H171 H 0.63229 0.5024 0.51045 0.0
N172 N 0.61276 0.53575 0.54473 0.0
N173 N 0.61879 0.56874 0.57947 0.0
N174 N 0.62186 0.51185 0.57791 0.0
C175 C 0.61361 0.56596 0.55679 0.0
C176 C 0.62313 0.54184 0.59014 0.0
C177 C 0.61683 0.50851 0.55531 0.0
C178 C 0.6055 0.59381 0.54566 0.0
C179 C 0.60101 0.59254 0.52222 0.0
C180 C 0.59054 0.61738 0.51208 0.0
C181 C 0.58382 0.64346 0.52523 0.0
C182 C 0.58935 0.64536 0.54855 0.0
C183 C 0.60018 0.62097 0.55864 0.0
C184 C 0.62548 0.54275 0.61487 0.0
C185 C 0.63158 0.57579 0.62816 0.0
C186 C 0.6297 0.57419 0.65148 0.0
C187 C 0.62104 0.53929 0.66176 0.0
C188 C 0.6166 0.50712 0.64862 0.0
C189 C 0.61917 0.50896 0.62546 0.0
C190 C 0.61457 0.47448 0.54288 0.0
C191 C 0.60412 0.44002 0.55452 0.0
C192 C 0.9687 0.52243 0.85731 0.0
C193 C 0.97877 0.5548 0.84362 0.0
C194 C 1.02937 0.58183 0.83411 0.0
C195 C 1.06855 0.57828 0.83923 0.0
H196 H 0.24543 0.58517 0.83294 0.0
H197 H 0.31542 0.58025 0.82664 0.0
H198 H 0.25497 0.49237 0.88069 0.0
H199 H 0.18598 0.49451 0.88486 0.0
H200 H 0.16913 0.5221 0.93005 0.0
H201 H 0.15232 0.51122 0.96992 0.0
H202 H 1.06505 0.55799 0.96668 0.0
H203 H 0.08001 0.56715 0.927 0.0
H204 H 0.99766 0.49434 0.87353 0.0
H205 H 0.93183 0.50095 0.86558 0.0
H206 H 1.03971 0.60671 0.82303 0.0
H207 H 0.10755 0.60157 0.83283 0.0
N208 N 0.13775 0.54834 0.855 0.0
N209 N 0.16743 0.54731 0.89059 0.0
N210 N 0.09914 0.54979 0.888 0.0
C211 C 0.17152 0.54718 0.86799 0.0
C212 C 0.13187 0.54868 0.90072 0.0
C213 C 0.1011 0.54978 0.86537 0.0
C214 C 0.2091 0.54005 0.8594 0.0
C215 C 0.24652 0.56361 0.84276 0.0
C216 C 0.28769 0.56124 0.83949 0.0
C217 C 0.2934 0.53576 0.85297 0.0
C218 C 0.25441 0.51187 0.86909 0.0
C219 C 0.21349 0.51337 0.87184 0.0
C220 C 0.12561 0.54526 0.92526 0.0
C221 C 0.14658 0.53026 0.93792 0.0
C222 C 0.13704 0.52409 0.96082 0.0
C223 C 0.10662 0.53307 0.97156 0.0
C224 C 0.08733 0.54946 0.95894 0.0
C225 C 0.0963 0.55512 0.93613 0.0
C226 C 1.05838 0.54702 0.85372 0.0
C227 C 1.00721 0.51851 0.86203 0.0
C228 C 0.21538 0.67742 0.43503 0.0
C229 C 0.24362 0.68364 0.45444 0.0
C230 C 0.22566 0.64698 0.46639 0.0
C231 C 0.18145 0.60504 0.45861 0.0
H232 H 0.99839 0.46803 0.46899 0.0
H233 H 0.92735 0.39808 0.48468 0.0
H234 H 0.94097 0.33056 0.43075 0.0
H235 H 1.01105 0.39958 0.41533 0.0
H236 H 0.99761 0.44172 0.36729 0.0
H237 H 0.99233 0.43487 0.32671 0.0
H238 H 0.1343 0.56838 0.32414 0.0
H239 H 0.1387 0.57573 0.3648 0.0
H240 H 0.15205 0.63267 0.41196 0.0
H241 H 0.22821 0.70449 0.4251 0.0
H242 H 0.2462 0.65062 0.48153 0.0
H243 H 0.16952 0.57725 0.46765 0.0
N244 N 0.08209 0.51917 0.4398 0.0
N245 N 1.04193 0.47688 0.40618 0.0
N246 N 0.10885 0.55179 0.40516 0.0
C247 C 1.04592 0.47963 0.42886 0.0
C248 C 0.07308 0.51275 0.39419 0.0
C249 C 0.11382 0.55548 0.42783 0.0
C250 C 1.00998 0.43918 0.44089 0.0
C251 C 0.98687 0.4382 0.46088 0.0
C252 C 0.946 0.39822 0.46971 0.0
C253 C 0.92844 0.35878 0.45891 0.0
C254 C 0.9538 0.36023 0.43964 0.0
C255 C 0.99381 0.39985 0.43071 0.0
C256 C 1.06882 0.50918 0.36939 0.0
C257 C 1.02763 0.46975 0.35812 0.0
C258 C 1.02473 0.46575 0.33478 0.0
C259 C 1.06317 0.50093 0.32205 0.0
C260 C 0.10369 0.54071 0.33333 0.0
C261 C 0.1064 0.54482 0.35671 0.0
C262 C 0.15496 0.59914 0.43862 0.0
C263 C 0.17175 0.63595 0.42732 0.0
C264 C 0.59753 0.14646 0.7643 0.0
C265 C 0.60255 0.15117 0.78772 0.0
C266 C 0.61067 0.12567 0.79912 0.0
C267 C 0.61241 0.09539 0.78726 0.0
H268 H 0.63974 1.00183 0.79088 0.0
H269 H 0.6426 0.94825 0.80755 0.0
H270 H 0.57638 0.86782 0.74644 0.0
H271 H 0.57404 0.92105 0.72967 0.0
H272 H 0.60399 0.97509 0.6837 0.0
H273 H 0.59215 0.97174 0.64305 0.0
H274 H 0.57906 0.07254 0.65012 0.0
H275 H 0.5912 0.07645 0.69038 0.0
H276 H 0.59496 0.11412 0.73452 0.0
H277 H 0.59238 0.16617 0.75492 0.0
H278 H 0.61468 0.12854 0.81718 0.0
H279 H 0.6181 0.07586 0.79648 0.0
N280 N 0.60851 0.02893 0.76072 0.0
N281 N 0.60382 0.99792 0.72546 0.0
N282 N 0.60416 0.05669 0.72797 0.0
C283 C 0.60678 0.99864 0.74817 0.0
C284 C 0.60273 0.02701 0.71521 0.0
C285 C 0.60703 0.05808 0.75063 0.0
C286 C 0.60693 0.96588 0.75889 0.0
C287 C 0.62553 0.97261 0.78106 0.0
C288 C 0.62729 0.94206 0.79059 0.0
C289 C 0.60945 0.90388 0.77829 0.0
C290 C 0.58982 0.89675 0.75637 0.0
C291 C 0.58891 0.92749 0.74673 0.0
C292 C 0.59814 0.0258 0.69044 0.0
C293 C 0.59893 0.99675 0.67659 0.0
C294 C 0.5924 0.99491 0.65331 0.0
C295 C 0.58429 0.02165 0.64351 0.0
C296 C 0.58462 0.05121 0.65728 0.0
C297 C 0.59171 0.05343 0.68039 0.0
C298 C 0.60658 0.09041 0.76378 0.0
C299 C 0.59946 0.11663 0.75255 0.0
C300 C 0.67644 0.4084 0.10966 0.0
C301 C 0.66246 0.39873 0.1321 0.0
C302 C 0.61454 0.38678 0.13905 0.0
C303 C 0.58208 0.38624 0.12418 0.0
H304 H 0.50478 0.42799 0.13176 0.0
H305 H 0.46274 0.45201 0.15196 0.0
H306 H 0.39343 0.44897 0.0902 0.0
H307 H 0.43565 0.42492 0.06958 0.0
H308 H 0.47812 0.41495 0.02526 0.0
H309 H 0.49256 0.43412 0.98664 0.0
H310 H 0.63317 0.44756 0.98781 0.0
H311 H 0.61936 0.42898 0.02703 0.0
H312 H 0.65635 0.41745 0.07773 0.0
H313 H 0.71367 0.41823 0.10399 0.0
H314 H 0.60268 0.3788 0.15618 0.0
H315 H 0.54592 0.37786 0.13041 0.0
N316 N 0.53232 0.40777 0.09822 0.0
N317 N 0.50908 0.41875 0.06442 0.0
N318 N 0.57094 0.40756 0.06539 0.0
C319 C 0.50425 0.41543 0.08676 0.0
C320 C 0.54195 0.41458 0.05355 0.0
C321 C 0.56536 0.40352 0.08788 0.0
C322 C 0.47376 0.42487 0.09901 0.0
C323 C 0.48011 0.43185 0.1224 0.0
C324 C 0.45647 0.44586 0.13401 0.0
C325 C 0.42572 0.45257 0.12247 0.0
C326 C 0.41724 0.44385 0.09929 0.0
C327 C 0.44138 0.43023 0.08757 0.0
C328 C 0.54794 0.42083 0.02932 0.0
C329 C 0.51191 0.42147 0.01734 0.0
C330 C 0.51983 0.43208 0.99509 0.0
C331 C 0.56393 0.44229 0.98428 0.0
C332 C 0.599 0.44006 -0.0041 0.0
C333 C 0.59095 0.42922 0.01826 0.0
C334 C 0.59689 0.39792 0.10198 0.0
C335 C 0.64379 0.40801 0.09465 0.0
H336 H 0.29977 0.5048 0.16381 0.0
H337 H 0.45344 0.61756 0.18848 0.0
H338 H 0.49071 0.58429 0.1729 0.0
H339 H 0.47859 0.52534 0.14952 0.0
H340 H 0.32454 0.41885 0.12181 0.0
H341 H 0.28761 0.44876 0.14097 0.0
C342 C 0.34135 0.52214 0.16627 0.0
C343 C 0.37388 0.5632 0.17768 0.0
C344 C 0.36206 0.50439 0.15628 0.0
C345 C 0.42781 0.58552 0.18012 0.0
C346 C 0.44888 0.56674 0.17103 0.0
C347 C 0.43687 0.50865 0.14802 0.0
C348 C 0.40384 0.47002 0.13456 0.0
C349 C 0.41632 0.52655 0.15869 0.0
C350 C 0.35019 0.44865 0.13215 0.0
C351 C 0.32924 0.46557 0.14312 0.0
H352 H 0.70369 0.18401 0.47829 0.0
H353 H 0.78655 0.13373 0.4701 0.0
H354 H 0.86892 0.20726 0.46607 0.0
H355 H 0.91648 0.28526 0.46278 0.0
H356 H 0.83415 0.33593 0.4711 0.0
H357 H 0.75284 0.26308 0.47782 0.0
C358 C 0.73993 0.18927 0.47586 0.0
C359 C 0.73908 0.15351 0.47448 0.0
C360 C 0.78726 0.23171 0.47371 0.0
C361 C 0.78628 0.16075 0.47143 0.0
C362 C 0.83335 0.20277 0.46902 0.0
C363 C 0.88082 0.28039 0.46624 0.0
C364 C 0.88135 0.31595 0.46631 0.0
C365 C 0.83418 0.2384 0.46986 0.0
C366 C 0.83498 0.30923 0.47114 0.0
C367 C 0.78834 0.26749 0.47477 0.0
H368 H 0.59765 0.74617 0.80358 0.0
H369 H 0.76239 0.85122 0.81839 0.0
H370 H 0.75068 0.90411 0.81095 0.0
H371 H 0.69556 0.92079 0.79718 0.0
H372 H 0.5326 0.81609 0.77968 0.0
H373 H 0.54175 0.76293 0.79101 0.0
C374 C 0.63107 0.78061 0.80512 0.0
C375 C 0.68086 0.79448 0.81152 0.0
C376 C 0.62443 0.81103 0.80021 0.0
C377 C 0.72341 0.83939 0.81383 0.0
C378 C 0.7169 0.8698 0.80939 0.0
C379 C 0.66191 0.88637 0.79623 0.0
C380 C 0.61353 0.87229 0.78762 0.0
C381 C 0.66783 0.85601 0.80223 0.0
C382 C 0.57032 0.82758 0.78616 0.0
C383 C 0.57556 0.79723 0.79261 0.0
H384 H 0.85105 0.43647 0.18389 0.0
H385 H 0.8279 0.51321 0.2261 0.0
H386 H 0.74324 0.47814 0.20712 0.0
H387 H 0.68921 0.44052 0.17281 0.0
H388 H 0.71865 0.37032 0.12847 0.0
H389 H 0.78877 0.38888 0.15386 0.0
C390 C 0.82651 0.44414 0.1898 0.0
C391 C 0.84628 0.47826 0.20602 0.0
C392 C 0.78026 0.4264 0.17772 0.0
C393 C 0.81365 0.4874 0.21347 0.0
C394 C 0.7658 0.46796 0.20232 0.0
C395 C 0.70999 0.42823 0.16905 0.0
C396 C 0.6995 0.40458 0.14873 0.0
C397 C 0.7508 0.43984 0.18344 0.0
C398 C 0.72694 0.38926 0.14386 0.0
C399 C 0.76664 0.3996 0.15841 0.0
H400 H 0.47411 0.86068 0.47395 0.0
H401 H 0.3983 0.91146 0.45281 0.0
H402 H 0.31412 0.83839 0.44999 0.0
H403 H 0.26203 0.76025 0.45249 0.0
H404 H 0.33693 0.70747 0.47092 0.0
H405 H 0.42076 0.78113 0.47675 0.0
C406 C 0.43916 0.85577 0.46878 0.0
C407 C 0.44281 0.89171 0.46353 0.0
C408 C 0.39046 0.8133 0.46698 0.0
C409 C 0.39698 0.88459 0.45685 0.0
C410 C 0.34861 0.84274 0.4553 0.0
C411 C 0.29666 0.76468 0.45768 0.0
C412 C 0.29303 0.72815 0.461 0.0
C413 C 0.34495 0.8069 0.46017 0.0
C414 C 0.33822 0.73484 0.46839 0.0
C415 C 0.3864 0.77701 0.47148 0.0
H416 H 0.629 0.30675 0.83922 0.0
H417 H 0.49839 0.26019 0.79473 0.0
H418 H 0.49598 0.20079 0.7806 0.0
H419 H 0.53242 0.16353 0.77961 0.0
H420 H 0.66466 0.20979 0.82274 0.0
H421 H 0.66389 0.26681 0.83918 0.0
C422 C 0.59979 0.28335 0.82658 0.0
C423 C 0.56433 0.28831 0.81785 0.0
C424 C 0.5987 0.24906 0.81836 0.0
C425 C 0.52681 0.25773 0.80142 0.0
C426 C 0.52514 0.22354 0.79341 0.0
C427 C 0.56123 0.18614 0.79258 0.0
C428 C 0.59897 0.18272 0.7997 0.0
C429 C 0.56125 0.21922 0.80153 0.0
C430 C 0.63507 0.21158 0.81697 0.0
C431 C 0.63489 0.24442 0.82624 0.0
H432 H 0.5349 0.76742 0.5054 0.0
H433 H 0.66218 0.81747 0.46037 0.0
H434 H 0.66097 0.75698 0.4673 0.0
H435 H 0.63311 0.69672 0.49073 0.0
H436 H 0.50886 0.64929 0.53713 0.0
H437 H 0.49965 0.70192 0.52523 0.0
C438 C 0.56189 0.76472 0.4969 0.0
C439 C 0.59908 0.79715 0.4827 0.0
C440 C 0.56207 0.73069 0.50149 0.0
C441 C 0.63309 0.79284 0.47138 0.0
C442 C 0.63277 0.75849 0.47549 0.0
C443 C 0.60321 0.69728 0.4978 0.0
C444 C 0.57231 0.66979 0.51502 0.0
C445 C 0.59882 0.7282 0.49118 0.0
C446 C 0.53375 0.6708 0.52413 0.0
C447 C 0.52842 0.7008 0.51732 0.0
H448 H 0.83542 0.61075 0.82759 0.0
H449 H 0.716 0.48112 0.84964 0.0
H450 H 0.78056 0.47084 0.85335 0.0
H451 H 0.86971 0.49641 0.84941 0.0
H452 H 0.99257 0.6279 0.8303 0.0
H453 H 0.928 0.63815 0.82562 0.0
C454 C 0.82341 0.58021 0.83317 0.0
C455 C 0.76987 0.54672 0.83804 0.0
C456 C 0.86152 0.5742 0.83551 0.0
C457 C 0.75612 0.50764 0.84547 0.0
C458 C 0.79334 0.50155 0.84764 0.0
C459 C 0.8836 0.52788 0.84461 0.0
C460 C 0.9377 0.56104 0.84026 0.0
C461 C 0.84616 0.53441 0.8426 0.0
C462 C 0.95209 0.6008 0.83343 0.0
C463 C 0.91481 0.6071 0.83094 0.0
H464 H 0.21567 0.69073 0.14177 0.0
H465 H 0.28947 0.64038 0.16625 0.0
H466 H 0.37318 0.71354 0.17035 0.0
H467 H 0.42554 0.79181 0.16766 0.0
H468 H 0.35122 0.84395 0.1468 0.0
H469 H 0.26857 0.77028 0.13983 0.0
C470 C 0.2501 0.69575 0.14792 0.0
C471 C 0.2461 0.65977 0.15341 0.0
C472 C 0.2984 0.73836 0.15067 0.0
C473 C 0.29122 0.66712 0.16153 0.0
C474 C 0.3393 0.70912 0.16397 0.0
C475 C 0.39132 0.78738 0.16178 0.0
C476 C 0.39514 0.82391 0.15792 0.0
C477 C 0.34332 0.74498 0.15867 0.0
C478 C 0.35022 0.81683 0.14965 0.0
C479 C 0.30255 0.77456 0.14591 0.0
H480 H 0.63801 0.26826 0.49942 0.0
H481 H 0.53147 0.23668 0.44525 0.0
H482 H 0.54167 0.30176 0.45523 0.0
H483 H 0.57253 0.36283 0.48231 0.0
H484 H 0.67559 0.39148 0.53737 0.0
H485 H 0.67463 0.33224 0.52429 0.0
C486 C 0.61707 0.27564 0.48977 0.0
C487 C 0.58344 0.2473 0.47185 0.0
C488 C 0.62204 0.31241 0.49594 0.0
C489 C 0.55773 0.25799 0.45912 0.0
C490 C 0.5632 0.29504 0.46492 0.0
C491 C 0.59555 0.35654 0.49111 0.0
C492 C 0.62352 0.38097 0.5109 0.0
C493 C 0.5941 0.32184 0.48369 0.0
C494 C 0.65314 0.37257 0.52225 0.0
C495 C 0.65264 0.33876 0.5148 0.0
H496 H 0.46079 0.50303 0.85959 0.0
H497 H 0.54304 0.6043 0.81274 0.0
H498 H 0.47247 0.60902 0.81334 0.0
H499 H 0.3869 0.58508 0.82782 0.0
H500 H 0.3055 0.48012 0.87341 0.0
H501 H 0.3759 0.47834 0.87302 0.0
C502 C 0.46348 0.52615 0.84942 0.0
C503 C 0.50789 0.5532 0.83615 0.0
C504 C 0.4226 0.52894 0.84987 0.0
C505 C 0.50994 0.58305 0.82328 0.0
C506 C 0.46925 0.58577 0.8236 0.0
C507 C 0.38359 0.5614 0.83766 0.0
C508 C 0.33875 0.53378 0.85109 0.0
C509 C 0.42507 0.5589 0.83694 0.0
C510 C 0.33795 0.50365 0.86336 0.0
C511 C 0.37891 0.50179 0.86301 0.0
H512 H 0.91664 0.40299 0.16237 0.0
H513 H 0.99912 0.3699 0.1242 0.0
H514 H 0.92756 0.29276 0.12886 0.0
H515 H 0.84324 0.23417 0.14589 0.0
H516 H 0.76272 0.2682 0.18477 0.0
H517 H 0.83106 0.34481 0.17758 0.0
C518 C 0.91869 0.37894 0.15476 0.0
C519 C 0.9634 0.39255 0.14292 0.0
C520 C 0.87754 0.33443 0.15772 0.0
C521 C 0.9653 0.36064 0.13339 0.0
C522 C 0.92433 0.31633 0.13608 0.0
C523 C 0.84033 0.25835 0.1524 0.0
C524 C 0.79794 0.24549 0.16584 0.0
C525 C 0.88047 0.30276 0.14848 0.0
C526 C 0.79506 0.27729 0.17445 0.0
C527 C 0.83418 0.32116 0.17037 0.0
H528 H 1.02399 0.50944 0.06936 0.0
H529 H 0.17525 0.54755 0.0864 0.0
H530 H 0.19392 0.54892 0.04648 0.0
H531 H 0.16923 0.54521 0.00674 0.0
H532 H 1.01404 0.50105 0.99079 0.0
H533 H 0.99495 0.49606 0.03024 0.0
C534 C 1.06083 0.5176 0.06431 0.0
C535 C 0.09847 0.52892 0.08065 0.0
C536 C 1.07075 0.51766 0.04152 0.0
C537 C 0.14572 0.53875 0.07401 0.0
C538 C 0.15643 0.53973 0.05122 0.0
C539 C 0.13094 0.53382 0.01185 0.0
C540 C 0.09384 0.52499 -0.00432 0.0
C541 C 0.11956 0.53008 0.03479 0.0
C542 C 1.04425 0.50984 0.00277 0.0
C543 C 1.03301 0.50658 0.02538 0.0
H544 H 0.53069 0.9898 0.40318 0.0
H545 H 0.70006 0.0826 0.40601 0.0
H546 H 0.70126 0.09451 0.36642 0.0
H547 H 0.65519 0.07441 0.33046 0.0
H548 H 0.48594 0.98083 0.32654 0.0
H549 H 0.48368 0.97298 0.36691 0.0
C550 C 0.56768 0.01292 0.3951 0.0
C551 C 0.61523 0.035 0.40738 0.0
C552 C 0.56819 0.01909 0.37209 0.0
C553 C 0.66296 0.06487 0.3968 0.0
C554 C 0.66373 0.07173 0.37417 0.0
C555 C 0.61769 0.05295 0.33845 0.0
C556 C 0.57086 0.0282 0.32546 0.0
C557 C 0.61671 0.04841 0.36156 0.0
C558 C 0.52267 0.99989 0.33611 0.0
C559 C 0.52133 0.9955 0.35922 0.0
H560 H 0.54806 0.48078 0.75937 0.0
H561 H 0.7079 0.59472 0.7754 0.0
H562 H 0.72247 0.61145 0.73583 0.0
H563 H 0.68995 0.59147 0.69626 0.0
H564 H 0.53201 0.47405 0.6809 0.0
H565 H 0.51631 0.46063 0.72062 0.0
C566 C 0.58608 0.50938 0.75423 0.0
C567 C 0.62671 0.53673 0.77023 0.0
C568 C 0.59442 0.51797 0.73155 0.0
C569 C 0.67589 0.57343 0.76335 0.0
C570 C 0.68424 0.5829 0.74074 0.0
C571 C 0.65209 0.56329 0.70178 0.0
C572 C 0.612 0.5338 0.68591 0.0
C573 C 0.64383 0.55521 0.72465 0.0
C574 C 0.56323 0.49705 0.69299 0.0
C575 C 0.5543 0.48938 0.71562 0.0
H576 H 0.50939 0.01101 0.54481 0.0
H577 H 0.6523 0.03304 0.52983 0.0
H578 H 0.66733 0.03084 0.56951 0.0
H579 H 0.64146 0.02574 0.60893 0.0
H580 H 0.50208 0.00957 0.62364 0.0
H581 H 0.48423 1.00674 0.5838 0.0
C582 C 0.54368 0.01511 0.55023 0.0
C583 C 0.57937 0.0217 0.53438 0.0
C584 C 0.55288 0.01519 0.57312 0.0
C585 C 0.62395 0.02747 0.54168 0.0
C586 C 0.63267 0.02639 0.56439 0.0
C587 C 0.60699 0.0212 0.60332 0.0
C588 C 0.57308 0.01784 0.61916 0.0
C589 C 0.5976 0.02061 0.58032 0.0
C590 C 0.52886 0.01247 0.61173 0.0
C591 C 0.5186 0.01079 0.58897 0.0
H592 H 0.57045 0.50029 0.88764 0.0
H593 H 0.73187 0.60366 0.9084 0.0
H594 H 0.7165 0.57057 0.94419 0.0
H595 H 0.65655 0.51311 0.96969 0.0
H596 H 0.49569 0.40894 0.94847 0.0
H597 H 0.51164 0.44121 0.91242 0.0
C598 C 0.60226 0.51547 0.89999 0.0
C599 C 0.65215 0.55423 0.89554 0.0
C600 C 0.59334 0.49598 0.92027 0.0
C601 C 0.6931 0.57375 0.91159 0.0
C602 C 0.68439 0.55481 0.93197 0.0
C603 C 0.62533 0.49705 0.95699 0.0
C604 C 0.57512 0.45874 0.96162 0.0
C605 C 0.63468 0.51591 0.93645 0.0
C606 C 0.53462 0.43863 0.94524 0.0
C607 C 0.54367 0.45706 0.92469 0.0
H608 H 1.05409 0.44902 0.21992 0.0
H609 H 0.10812 0.57863 0.21246 0.0
H610 H 0.10395 0.58756 0.25296 0.0
H611 H 0.08755 0.55901 0.29065 0.0
H612 H 1.03744 0.43026 0.29744 0.0
H613 H 1.03701 0.42047 0.25708 0.0
C614 C 1.06468 0.47917 0.22711 0.0
C615 C 0.08155 0.51317 0.21322 0.0
C616 C 1.06291 0.48423 0.25034 0.0
C617 C 0.09504 0.55198 0.22281 0.0
C618 C 0.09279 0.55711 0.24597 0.0
C619 C 0.07678 0.52889 0.28332 0.0
C620 C 1.06223 0.49535 0.29722 0.0
C621 C 0.07737 0.52361 0.25994 0.0
C622 C 1.04782 0.45637 0.28729 0.0
C623 C 1.04793 0.4508 0.26415 0.0
loop_
_geom_bond_atom_site_label_1
_geom_bond_atom_site_label_2
_geom_bond_distance
_geom_bond_site_symmetry_2
_ccdc_geom_bond_type
Gd0 C3 2.818 . S
Gd0 O20 2.377 . S
Gd0 O22 2.448 . S
Gd0 O23 2.506 . S
Gd0 O24 2.435 . S
Gd0 O25 2.717 . S
Gd0 O27 2.395 1_455 S
Gd0 O31 2.327 . S
Gd1 C12 2.822 . S
Gd1 O21 2.393 1_655 S
Gd1 O25 2.325 1_655 S
Gd1 O26 2.377 . S
Gd1 O28 2.452 . S
Gd1 O29 2.509 . S
Gd1 O30 2.435 1_655 S
Gd1 O31 2.714 1_655 S
C2 O20 1.240 . S
C2 O21 1.240 . S
C3 Gd0 2.818 . S
C3 C4 1.510 . S
C3 O22 1.249 . S
C3 O23 1.252 . S
C4 C3 1.510 . S
C4 C5 1.404 . S
C4 C6 1.352 . S
C5 C4 1.404 . S
C5 C9 1.389 . S
C5 H32 0.930 . S
C6 C4 1.352 . S
C6 C8 1.374 . S
C6 H33 0.931 . S
C7 C8 1.359 . S
C7 C9 1.364 . S
C8 C6 1.374 . S
C8 C7 1.359 . S
C8 H34 0.931 . S
C9 C5 1.389 . S
C9 C7 1.364 . S
C9 H35 0.931 . S
C10 O24 1.256 . S
C10 O25 1.257 . S
C11 O26 1.240 . S
C11 O27 1.240 . S
C12 Gd1 2.822 . S
C12 C13 1.510 . S
C12 O28 1.249 . S
C12 O29 1.252 . S
C13 C12 1.510 . S
C13 C14 1.404 . S
C13 C15 1.352 . S
C14 C13 1.404 . S
C14 C18 1.389 . S
C14 H36 0.930 . S
C15 C13 1.352 . S
C15 C17 1.374 . S
C15 H37 0.931 . S
C16 C17 1.359 . S
C16 C18 1.364 . S
C17 C15 1.374 . S
C17 C16 1.359 . S
C17 H38 0.931 . S
C18 C14 1.389 . S
C18 C16 1.364 . S
C18 H39 0.931 . S
C19 O30 1.256 . S
C19 O31 1.257 . S
O20 Gd0 2.377 . S
O20 C2 1.240 . S
O21 Gd1 2.393 1_455 S
O21 C2 1.240 . S
O22 Gd0 2.448 . S
O22 C3 1.249 . S
O23 Gd0 2.506 . S
O23 C3 1.252 . S
O24 Gd0 2.435 . S
O24 C10 1.256 . S
O25 Gd0 2.717 . S
O25 Gd1 2.325 1_455 S
O25 C10 1.257 . S
O26 Gd1 2.377 . S
O26 C11 1.240 . S
O27 Gd0 2.395 1_655 S
O27 C11 1.240 . S
O28 Gd1 2.452 . S
O28 C12 1.249 . S
O29 Gd1 2.509 . S
O29 C12 1.252 . S
O30 Gd1 2.435 1_455 S
O30 C19 1.256 . S
O31 Gd0 2.327 . S
O31 Gd1 2.714 1_455 S
O31 C19 1.257 . S
H32 C5 0.930 . S
H33 C6 0.931 . S
H34 C8 0.931 . S
H35 C9 0.931 . S
H36 C14 0.930 . S
H37 C15 0.931 . S
H38 C17 0.931 . S
H39 C18 0.931 . S
Gd40 C43 2.818 . S
Gd40 O60 2.377 . S
Gd40 O62 2.448 . S
Gd40 O63 2.506 . S
Gd40 O64 2.435 . S
Gd40 O65 2.717 1_565 S
Gd40 O67 2.395 1_565 S
Gd40 O71 2.327 1_565 S
Gd41 C52 2.818 . S
Gd41 O61 2.395 1_545 S
Gd41 O65 2.327 . S
Gd41 O66 2.377 . S
Gd41 O68 2.448 . S
Gd41 O69 2.506 . S
Gd41 O70 2.435 . S
Gd41 O71 2.717 . S
C42 O60 1.240 . S
C42 O61 1.240 . S
C43 Gd40 2.818 . S
C43 C44 1.510 . S
C43 O62 1.249 . S
C43 O63 1.252 . S
C44 C43 1.510 . S
C44 C45 1.404 . S
C44 C46 1.352 . S
C45 C44 1.404 . S
C45 C49 1.389 . S
C45 H72 0.930 . S
C46 C44 1.352 . S
C46 C48 1.374 . S
C46 H73 0.931 . S
C47 C48 1.359 . S
C47 C49 1.364 . S
C48 C46 1.374 . S
C48 C47 1.359 . S
C48 H74 0.931 . S
C49 C45 1.389 . S
C49 C47 1.364 . S
C49 H75 0.931 . S
C50 O64 1.256 1_545 S
C50 O65 1.257 . S
C51 O66 1.240 . S
C51 O67 1.240 . S
C52 Gd41 2.818 . S
C52 C53 1.510 . S
C52 O68 1.249 . S
C52 O69 1.252 . S
C53 C52 1.510 . S
C53 C54 1.404 . S
C53 C55 1.352 . S
C54 C53 1.404 . S
C54 C58 1.389 . S
C54 H76 0.930 . S
C55 C53 1.352 . S
C55 C57 1.374 . S
C55 H77 0.931 . S
C56 C57 1.359 . S
C56 C58 1.364 . S
C57 C55 1.374 . S
C57 C56 1.359 . S
C57 H78 0.931 . S
C58 C54 1.389 . S
C58 C56 1.364 . S
C58 H79 0.931 . S
C59 O70 1.256 . S
C59 O71 1.257 . S
O60 Gd40 2.377 . S
O60 C42 1.240 . S
O61 Gd41 2.395 1_565 S
O61 C42 1.240 . S
O62 Gd40 2.448 . S
O62 C43 1.249 . S
O63 Gd40 2.506 . S
O63 C43 1.252 . S
O64 Gd40 2.435 . S
O64 C50 1.256 1_565 S
O65 Gd40 2.717 1_545 S
O65 Gd41 2.327 . S
O65 C50 1.257 . S
O66 Gd41 2.377 . S
O66 C51 1.240 . S
O67 Gd40 2.395 1_545 S
O67 C51 1.240 . S
O68 Gd41 2.448 . S
O68 C52 1.249 . S
O69 Gd41 2.506 . S
O69 C52 1.252 . S
O70 Gd41 2.435 . S
O70 C59 1.256 . S
O71 Gd40 2.327 1_545 S
O71 Gd41 2.717 . S
O71 C59 1.257 . S
H72 C45 0.930 . S
H73 C46 0.931 . S
H74 C48 0.931 . S
H75 C49 0.931 . S
H76 C54 0.930 . S
H77 C55 0.931 . S
H78 C57 0.931 . S
H79 C58 0.931 . S
Gd80 C83 2.818 . S
Gd80 O100 2.377 . S
Gd80 O102 2.448 . S
Gd80 O103 2.506 . S
Gd80 O104 2.435 . S
Gd80 O105 2.717 . S
Gd80 O107 2.395 . S
Gd80 O111 2.327 . S
Gd81 C92 2.818 . S
Gd81 O101 2.395 . S
Gd81 O105 2.327 . S
Gd81 O106 2.377 . S
Gd81 O108 2.448 . S
Gd81 O109 2.506 . S
Gd81 O110 2.435 . S
Gd81 O111 2.717 . S
C82 O100 1.240 . S
C82 O101 1.240 . S
C83 Gd80 2.818 . S
C83 C84 1.510 . S
C83 O102 1.249 . S
C83 O103 1.252 . S
C84 C83 1.510 . S
C84 C85 1.404 . S
C84 C86 1.352 . S
C85 C84 1.404 . S
C85 C89 1.389 . S
C85 H112 0.930 . S
C86 C84 1.352 . S
C86 C88 1.374 . S
C86 H113 0.931 . S
C87 C88 1.359 . S
C87 C89 1.364 . S
C88 C86 1.374 . S
C88 C87 1.359 . S
C88 H114 0.931 . S
C89 C85 1.389 . S
C89 C87 1.364 . S
C89 H115 0.931 . S
C90 O104 1.256 . S
C90 O105 1.257 . S
C91 O106 1.240 . S
C91 O107 1.240 . S
C92 Gd81 2.818 . S
C92 C93 1.510 . S
C92 O108 1.249 . S
C92 O109 1.252 . S
C93 C92 1.510 . S
C93 C94 1.404 . S
C93 C95 1.352 . S
C94 C93 1.404 . S
C94 C98 1.389 . S
C94 H116 0.930 . S
C95 C93 1.352 . S
C95 C97 1.374 . S
C95 H117 0.931 . S
C96 C97 1.359 . S
C96 C98 1.364 . S
C97 C95 1.374 . S
C97 C96 1.359 . S
C97 H118 0.931 . S
C98 C94 1.389 . S
C98 C96 1.364 . S
C98 H119 0.931 . S
C99 O110 1.256 . S
C99 O111 1.257 . S
O100 Gd80 2.377 . S
O100 C82 1.240 . S
O101 Gd81 2.395 . S
O101 C82 1.240 . S
O102 Gd80 2.448 . S
O102 C83 1.249 . S
O103 Gd80 2.506 . S
O103 C83 1.252 . S
O104 Gd80 2.435 . S
O104 C90 1.256 . S
O105 Gd80 2.717 . S
O105 Gd81 2.327 . S
O105 C90 1.257 . S
O106 Gd81 2.377 . S
O106 C91 1.240 . S
O107 Gd80 2.395 . S
O107 C91 1.240 . S
O108 Gd81 2.448 . S
O108 C92 1.249 . S
O109 Gd81 2.506 . S
O109 C92 1.252 . S
O110 Gd81 2.435 . S
O110 C99 1.256 . S
O111 Gd80 2.327 . S
O111 Gd81 2.717 . S
O111 C99 1.257 . S
H112 C85 0.930 . S
H113 C86 0.931 . S
H114 C88 0.931 . S
H115 C89 0.931 . S
H116 C94 0.930 . S
H117 C95 0.931 . S
H118 C97 0.931 . S
H119 C98 0.931 . S
C120 C121 1.384 . S
C120 H133 0.947 . S
C120 C155 1.382 . S
C121 C120 1.384 . S
C121 C122 1.378 . S
C122 C121 1.378 . S
C122 C123 1.378 . S
C122 H134 0.952 . S
C123 C122 1.378 . S
C123 H135 0.950 . S
C123 C154 1.383 . S
H124 C143 0.947 . S
H125 C144 0.946 . S
H126 C146 0.953 . S
H127 C147 0.945 . S
H128 C149 0.952 . S
H129 C150 0.949 . S
H130 C152 0.950 . S
H131 C153 0.948 . S
H132 C155 0.951 . S
H133 C120 0.947 . S
H134 C122 0.952 . S
H135 C123 0.950 . S
N136 C139 1.382 . S
N136 C141 1.363 1_545 S
N137 C139 1.371 . S
N137 C140 1.372 . S
N138 C140 1.361 1_565 S
N138 C141 1.377 . S
C139 N136 1.382 . S
C139 N137 1.371 . S
C139 C142 1.480 . S
C140 N137 1.372 . S
C140 N138 1.361 1_545 S
C140 C148 1.457 . S
C141 N136 1.363 1_565 S
C141 N138 1.377 . S
C141 C154 1.479 . S
C142 C139 1.480 . S
C142 C143 1.383 . S
C142 C147 1.385 . S
C143 H124 0.947 . S
C143 C142 1.383 . S
C143 C144 1.388 . S
C144 H125 0.946 . S
C144 C143 1.388 . S
C144 C145 1.384 . S
C145 C144 1.384 . S
C145 C146 1.377 . S
C146 H126 0.953 . S
C146 C145 1.377 . S
C146 C147 1.369 . S
C147 H127 0.945 . S
C147 C142 1.385 . S
C147 C146 1.369 . S
C148 C140 1.457 . S
C148 C149 1.372 . S
C148 C153 1.364 1_545 S
C149 H128 0.952 . S
C149 C148 1.372 . S
C149 C150 1.389 . S
C150 H129 0.949 . S
C150 C149 1.389 . S
C150 C151 1.387 . S
C151 C150 1.387 . S
C151 C152 1.372 1_545 S
C152 H130 0.950 . S
C152 C151 1.372 1_565 S
C152 C153 1.379 . S
C153 H131 0.948 . S
C153 C148 1.364 1_565 S
C153 C152 1.379 . S
C154 C123 1.383 . S
C154 C141 1.479 . S
C154 C155 1.398 . S
C155 C120 1.382 . S
C155 H132 0.951 . S
C155 C154 1.398 . S
C156 C157 1.384 . S
C156 H169 0.947 . S
C156 C191 1.382 . S
C157 C156 1.384 . S
C157 C158 1.378 . S
C158 C157 1.378 . S
C158 C159 1.378 . S
C158 H170 0.952 . S
C159 C158 1.378 . S
C159 H171 0.950 . S
C159 C190 1.383 . S
H160 C179 0.947 . S
H161 C180 0.946 . S
H162 C182 0.953 . S
H163 C183 0.945 . S
H164 C185 0.952 . S
H165 C186 0.949 . S
H166 C188 0.950 . S
H167 C189 0.948 . S
H168 C191 0.951 . S
H169 C156 0.947 . S
H170 C158 0.952 . S
H171 C159 0.950 . S
N172 C175 1.382 . S
N172 C177 1.363 . S
N173 C175 1.371 . S
N173 C176 1.372 . S
N174 C176 1.361 . S
N174 C177 1.377 . S
C175 N172 1.382 . S
C175 N173 1.371 . S
C175 C178 1.480 . S
C176 N173 1.372 . S
C176 N174 1.361 . S
C176 C184 1.457 . S
C177 N172 1.363 . S
C177 N174 1.377 . S
C177 C190 1.479 . S
C178 C175 1.480 . S
C178 C179 1.383 . S
C178 C183 1.385 . S
C179 H160 0.947 . S
C179 C178 1.383 . S
C179 C180 1.388 . S
C180 H161 0.946 . S
C180 C179 1.388 . S
C180 C181 1.384 . S
C181 C180 1.384 . S
C181 C182 1.377 . S
C182 H162 0.953 . S
C182 C181 1.377 . S
C182 C183 1.369 . S
C183 H163 0.945 . S
C183 C178 1.385 . S
C183 C182 1.369 . S
C184 C176 1.457 . S
C184 C185 1.372 . S
C184 C189 1.364 . S
C185 H164 0.952 . S
C185 C184 1.372 . S
C185 C186 1.389 . S
C186 H165 0.949 . S
C186 C185 1.389 . S
C186 C187 1.387 . S
C187 C186 1.387 . S
C187 C188 1.372 . S
C188 H166 0.950 . S
C188 C187 1.372 . S
C188 C189 1.379 . S
C189 H167 0.948 . S
C189 C184 1.364 . S
C189 C188 1.379 . S
C190 C159 1.383 . S
C190 C177 1.479 . S
C190 C191 1.398 . S
C191 C156 1.382 . S
C191 H168 0.951 . S
C191 C190 1.398 . S
C192 C193 1.384 . S
C192 H205 0.947 . S
C192 C227 1.382 . S
C193 C192 1.384 . S
C193 C194 1.378 . S
C194 C193 1.378 . S
C194 C195 1.378 . S
C194 H206 0.952 . S
C195 C194 1.378 . S
C195 H207 0.950 1_655 S
C195 C226 1.383 . S
H196 C215 0.947 . S
H197 C216 0.946 . S
H198 C218 0.953 . S
H199 C219 0.945 . S
H200 C221 0.952 . S
H201 C222 0.949 . S
H202 C224 0.950 1_655 S
H203 C225 0.948 1_655 S
H204 C227 0.951 . S
H205 C192 0.947 . S
H206 C194 0.952 . S
H207 C195 0.950 1_455 S
N208 C211 1.382 . S
N208 C213 1.363 . S
N209 C211 1.371 . S
N209 C212 1.372 . S
N210 C212 1.361 . S
N210 C213 1.377 . S
C211 N208 1.382 . S
C211 N209 1.371 . S
C211 C214 1.480 . S
C212 N209 1.372 . S
C212 N210 1.361 . S
C212 C220 1.457 . S
C213 N208 1.363 . S
C213 N210 1.377 . S
C213 C226 1.479 1_455 S
C214 C211 1.480 . S
C214 C215 1.383 . S
C214 C219 1.385 . S
C215 H196 0.947 . S
C215 C214 1.383 . S
C215 C216 1.388 . S
C216 H197 0.946 . S
C216 C215 1.388 . S
C216 C217 1.384 . S
C217 C216 1.384 . S
C217 C218 1.377 . S
C218 H198 0.953 . S
C218 C217 1.377 . S
C218 C219 1.369 . S
C219 H199 0.945 . S
C219 C214 1.385 . S
C219 C218 1.369 . S
C220 C212 1.457 . S
C220 C221 1.372 . S
C220 C225 1.364 . S
C221 H200 0.952 . S
C221 C220 1.372 . S
C221 C222 1.389 . S
C222 H201 0.949 . S
C222 C221 1.389 . S
C222 C223 1.387 . S
C223 C222 1.387 . S
C223 C224 1.372 . S
C224 H202 0.950 1_455 S
C224 C223 1.372 . S
C224 C225 1.379 . S
C225 H203 0.948 1_455 S
C225 C220 1.364 . S
C225 C224 1.379 . S
C226 C195 1.383 . S
C226 C213 1.479 1_655 S
C226 C227 1.398 . S
C227 C192 1.382 . S
C227 H204 0.951 . S
C227 C226 1.398 . S
C228 C229 1.384 . S
C228 H241 0.947 . S
C228 C263 1.382 . S
C229 C228 1.384 . S
C229 C230 1.378 . S
C230 C229 1.378 . S
C230 C231 1.378 . S
C230 H242 0.952 . S
C231 C230 1.378 . S
C231 H243 0.950 . S
C231 C262 1.383 . S
H232 C251 0.947 . S
H233 C252 0.946 . S
H234 C254 0.953 . S
H235 C255 0.945 . S
H236 C257 0.952 . S
H237 C258 0.949 . S
H238 C260 0.950 . S
H239 C261 0.948 . S
H240 C263 0.951 . S
H241 C228 0.947 . S
H242 C230 0.952 . S
H243 C231 0.950 . S
N244 C247 1.382 1_455 S
N244 C249 1.363 . S
N245 C247 1.371 . S
N245 C248 1.372 1_655 S
N246 C248 1.361 . S
N246 C249 1.377 . S
C247 N244 1.382 1_655 S
C247 N245 1.371 . S
C247 C250 1.480 . S
C248 N245 1.372 1_455 S
C248 N246 1.361 . S
C248 C256 1.457 . S
C249 N244 1.363 . S
C249 N246 1.377 . S
C249 C262 1.479 . S
C250 C247 1.480 . S
C250 C251 1.383 . S
C250 C255 1.385 . S
C251 H232 0.947 . S
C251 C250 1.383 . S
C251 C252 1.388 . S
C252 H233 0.946 . S
C252 C251 1.388 . S
C252 C253 1.384 . S
C253 C252 1.384 . S
C253 C254 1.377 . S
C254 H234 0.953 . S
C254 C253 1.377 . S
C254 C255 1.369 . S
C255 H235 0.945 . S
C255 C250 1.385 . S
C255 C254 1.369 . S
C256 C248 1.457 . S
C256 C257 1.372 1_455 S
C256 C261 1.364 . S
C257 H236 0.952 . S
C257 C256 1.372 1_655 S
C257 C258 1.389 . S
C258 H237 0.949 . S
C258 C257 1.389 . S
C258 C259 1.387 1_655 S
C259 C258 1.387 1_455 S
C259 C260 1.372 . S
C260 H238 0.950 . S
C260 C259 1.372 . S
C260 C261 1.379 . S
C261 H239 0.948 . S
C261 C256 1.364 . S
C261 C260 1.379 . S
C262 C231 1.383 . S
C262 C249 1.479 . S
C262 C263 1.398 . S
C263 C228 1.382 . S
C263 H240 0.951 . S
C263 C262 1.398 . S
C264 C265 1.384 . S
C264 H277 0.947 . S
C264 C299 1.382 . S
C265 C264 1.384 . S
C265 C266 1.378 . S
C266 C265 1.378 . S
C266 C267 1.378 . S
C266 H278 0.952 . S
C267 C266 1.378 . S
C267 H279 0.950 . S
C267 C298 1.383 . S
H268 C287 0.947 . S
H269 C288 0.946 . S
H270 C290 0.953 . S
H271 C291 0.945 . S
H272 C293 0.952 . S
H273 C294 0.949 . S
H274 C296 0.950 . S
H275 C297 0.948 . S
H276 C299 0.951 . S
H277 C264 0.947 . S
H278 C266 0.952 . S
H279 C267 0.950 . S
N280 C283 1.382 1_545 S
N280 C285 1.363 . S
N281 C283 1.371 . S
N281 C284 1.372 1_565 S
N282 C284 1.361 . S
N282 C285 1.377 . S
C283 N280 1.382 1_565 S
C283 N281 1.371 . S
C283 C286 1.480 . S
C284 N281 1.372 1_545 S
C284 N282 1.361 . S
C284 C292 1.457 . S
C285 N280 1.363 . S
C285 N282 1.377 . S
C285 C298 1.479 . S
C286 C283 1.480 . S
C286 C287 1.383 . S
C286 C291 1.385 . S
C287 H268 0.947 . S
C287 C286 1.383 . S
C287 C288 1.388 . S
C288 H269 0.946 . S
C288 C287 1.388 . S
C288 C289 1.384 . S
C289 C288 1.384 . S
C289 C290 1.377 . S
C290 H270 0.953 . S
C290 C289 1.377 . S
C290 C291 1.369 . S
C291 H271 0.945 . S
C291 C286 1.385 . S
C291 C290 1.369 . S
C292 C284 1.457 . S
C292 C293 1.372 1_545 S
C292 C297 1.364 . S
C293 H272 0.952 . S
C293 C292 1.372 1_565 S
C293 C294 1.389 . S
C294 H273 0.949 . S
C294 C293 1.389 . S
C294 C295 1.387 . S
C295 C294 1.387 . S
C295 C296 1.372 1_565 S
C296 H274 0.950 . S
C296 C295 1.372 1_545 S
C296 C297 1.379 . S
C297 H275 0.948 . S
C297 C292 1.364 . S
C297 C296 1.379 . S
C298 C267 1.383 . S
C298 C285 1.479 . S
C298 C299 1.398 . S
C299 C264 1.382 . S
C299 H276 0.951 . S
C299 C298 1.398 . S
C300 C301 1.384 . S
C300 H313 0.947 . S
C300 C335 1.382 . S
C301 C300 1.384 . S
C301 C302 1.378 . S
C302 C301 1.378 . S
C302 C303 1.378 . S
C302 H314 0.952 . S
C303 C302 1.378 . S
C303 H315 0.950 . S
C303 C334 1.383 . S
H304 C323 0.947 . S
H305 C324 0.946 . S
H306 C326 0.953 . S
H307 C327 0.945 . S
H308 C329 0.952 . S
H309 C330 0.949 1_556 S
H310 C332 0.950 1_556 S
H311 C333 0.948 . S
H312 C335 0.951 . S
H313 C300 0.947 . S
H314 C302 0.952 . S
H315 C303 0.950 . S
N316 C319 1.382 . S
N316 C321 1.363 . S
N317 C319 1.371 . S
N317 C320 1.372 . S
N318 C320 1.361 . S
N318 C321 1.377 . S
C319 N316 1.382 . S
C319 N317 1.371 . S
C319 C322 1.480 . S
C320 N317 1.372 . S
C320 N318 1.361 . S
C320 C328 1.457 . S
C321 N316 1.363 . S
C321 N318 1.377 . S
C321 C334 1.479 . S
C322 C319 1.480 . S
C322 C323 1.383 . S
C322 C327 1.385 . S
C323 H304 0.947 . S
C323 C322 1.383 . S
C323 C324 1.388 . S
C324 H305 0.946 . S
C324 C323 1.388 . S
C324 C325 1.384 . S
C325 C324 1.384 . S
C325 C326 1.377 . S
C326 H306 0.953 . S
C326 C325 1.377 . S
C326 C327 1.369 . S
C327 H307 0.945 . S
C327 C322 1.385 . S
C327 C326 1.369 . S
C328 C320 1.457 . S
C328 C329 1.372 . S
C328 C333 1.364 . S
C329 H308 0.952 . S
C329 C328 1.372 . S
C329 C330 1.389 . S
C330 H309 0.949 1_554 S
C330 C329 1.389 . S
C330 C331 1.387 1_554 S
C331 C330 1.387 1_556 S
C331 C332 1.372 1_556 S
C332 H310 0.950 1_554 S
C332 C331 1.372 1_554 S
C332 C333 1.379 . S
C333 H311 0.948 . S
C333 C328 1.364 . S
C333 C332 1.379 . S
C334 C303 1.383 . S
C334 C321 1.479 . S
C334 C335 1.398 . S
C335 C300 1.382 . S
C335 H312 0.951 . S
C335 C334 1.398 . S
H336 C342 0.930 . S
H337 C345 0.930 . S
H338 C346 0.930 . S
H339 C347 0.930 . S
H340 C350 0.930 . S
H341 C351 0.930 . S
C342 H336 0.930 . S
C342 C343 1.355 . S
C342 C344 1.415 . S
C343 C342 1.355 . S
C343 C345 1.419 . S
C344 C342 1.415 . S
C344 C349 1.425 . S
C344 C351 1.409 . S
C345 H337 0.930 . S
C345 C343 1.419 . S
C345 C346 1.362 . S
C346 H338 0.930 . S
C346 C345 1.362 . S
C346 C349 1.409 . S
C347 H339 0.930 . S
C347 C348 1.355 . S
C347 C349 1.415 . S
C348 C347 1.355 . S
C348 C350 1.419 . S
C349 C344 1.425 . S
C349 C346 1.409 . S
C349 C347 1.415 . S
C350 H340 0.930 . S
C350 C348 1.419 . S
C350 C351 1.362 . S
C351 H341 0.930 . S
C351 C344 1.409 . S
C351 C350 1.362 . S
H352 C358 0.930 . S
H353 C361 0.930 . S
H354 C362 0.930 . S
H355 C363 0.930 . S
H356 C366 0.930 . S
H357 C367 0.930 . S
C358 H352 0.930 . S
C358 C359 1.355 . S
C358 C360 1.415 . S
C359 C358 1.355 . S
C359 C361 1.419 . S
C360 C358 1.415 . S
C360 C365 1.425 . S
C360 C367 1.409 . S
C361 H353 0.930 . S
C361 C359 1.419 . S
C361 C362 1.362 . S
C362 H354 0.930 . S
C362 C361 1.362 . S
C362 C365 1.409 . S
C363 H355 0.930 . S
C363 C364 1.355 . S
C363 C365 1.415 . S
C364 C363 1.355 . S
C364 C366 1.419 . S
C365 C360 1.425 . S
C365 C362 1.409 . S
C365 C363 1.415 . S
C366 H356 0.930 . S
C366 C364 1.419 . S
C366 C367 1.362 . S
C367 H357 0.930 . S
C367 C360 1.409 . S
C367 C366 1.362 . S
H368 C374 0.930 . S
H369 C377 0.930 . S
H370 C378 0.930 . S
H371 C379 0.930 . S
H372 C382 0.930 . S
H373 C383 0.930 . S
C374 H368 0.930 . S
C374 C375 1.355 . S
C374 C376 1.415 . S
C375 C374 1.355 . S
C375 C377 1.419 . S
C376 C374 1.415 . S
C376 C381 1.425 . S
C376 C383 1.409 . S
C377 H369 0.930 . S
C377 C375 1.419 . S
C377 C378 1.362 . S
C378 H370 0.930 . S
C378 C377 1.362 . S
C378 C381 1.409 . S
C379 H371 0.930 . S
C379 C380 1.355 . S
C379 C381 1.415 . S
C380 C379 1.355 . S
C380 C382 1.419 . S
C381 C376 1.425 . S
C381 C378 1.409 . S
C381 C379 1.415 . S
C382 H372 0.930 . S
C382 C380 1.419 . S
C382 C383 1.362 . S
C383 H373 0.930 . S
C383 C376 1.409 . S
C383 C382 1.362 . S
H384 C390 0.930 . S
H385 C393 0.930 . S
H386 C394 0.930 . S
H387 C395 0.930 . S
H388 C398 0.930 . S
H389 C399 0.930 . S
C390 H384 0.930 . S
C390 C391 1.355 . S
C390 C392 1.415 . S
C391 C390 1.355 . S
C391 C393 1.419 . S
C392 C390 1.415 . S
C392 C397 1.425 . S
C392 C399 1.409 . S
C393 H385 0.930 . S
C393 C391 1.419 . S
C393 C394 1.362 . S
C394 H386 0.930 . S
C394 C393 1.362 . S
C394 C397 1.409 . S
C395 H387 0.930 . S
C395 C396 1.355 . S
C395 C397 1.415 . S
C396 C395 1.355 . S
C396 C398 1.419 . S
C397 C392 1.425 . S
C397 C394 1.409 . S
C397 C395 1.415 . S
C398 H388 0.930 . S
C398 C396 1.419 . S
C398 C399 1.362 . S
C399 H389 0.930 . S
C399 C392 1.409 . S
C399 C398 1.362 . S
H400 C406 0.930 . S
H401 C409 0.930 . S
H402 C410 0.930 . S
H403 C411 0.930 . S
H404 C414 0.930 . S
H405 C415 0.930 . S
C406 H400 0.930 . S
C406 C407 1.355 . S
C406 C408 1.415 . S
C407 C406 1.355 . S
C407 C409 1.419 . S
C408 C406 1.415 . S
C408 C413 1.425 . S
C408 C415 1.409 . S
C409 H401 0.930 . S
C409 C407 1.419 . S
C409 C410 1.362 . S
C410 H402 0.930 . S
C410 C409 1.362 . S
C410 C413 1.409 . S
C411 H403 0.930 . S
C411 C412 1.355 . S
C411 C413 1.415 . S
C412 C411 1.355 . S
C412 C414 1.419 . S
C413 C408 1.425 . S
C413 C410 1.409 . S
C413 C411 1.415 . S
C414 H404 0.930 . S
C414 C412 1.419 . S
C414 C415 1.362 . S
C415 H405 0.930 . S
C415 C408 1.409 . S
C415 C414 1.362 . S
H416 C422 0.930 . S
H417 C425 0.930 . S
H418 C426 0.930 . S
H419 C427 0.930 . S
H420 C430 0.930 . S
H421 C431 0.930 . S
C422 H416 0.930 . S
C422 C423 1.355 . S
C422 C424 1.415 . S
C423 C422 1.355 . S
C423 C425 1.419 . S
C424 C422 1.415 . S
C424 C429 1.425 . S
C424 C431 1.409 . S
C425 H417 0.930 . S
C425 C423 1.419 . S
C425 C426 1.362 . S
C426 H418 0.930 . S
C426 C425 1.362 . S
C426 C429 1.409 . S
C427 H419 0.930 . S
C427 C428 1.355 . S
C427 C429 1.415 . S
C428 C427 1.355 . S
C428 C430 1.419 . S
C429 C424 1.425 . S
C429 C426 1.409 . S
C429 C427 1.415 . S
C430 H420 0.930 . S
C430 C428 1.419 . S
C430 C431 1.362 . S
C431 H421 0.930 . S
C431 C424 1.409 . S
C431 C430 1.362 . S
H432 C438 0.930 . S
H433 C441 0.930 . S
H434 C442 0.930 . S
H435 C443 0.930 . S
H436 C446 0.930 . S
H437 C447 0.930 . S
C438 H432 0.930 . S
C438 C439 1.355 . S
C438 C440 1.415 . S
C439 C438 1.355 . S
C439 C441 1.419 . S
C440 C438 1.415 . S
C440 C445 1.425 . S
C440 C447 1.409 . S
C441 H433 0.930 . S
C441 C439 1.419 . S
C441 C442 1.362 . S
C442 H434 0.930 . S
C442 C441 1.362 . S
C442 C445 1.409 . S
C443 H435 0.930 . S
C443 C444 1.355 . S
C443 C445 1.415 . S
C444 C443 1.355 . S
C444 C446 1.419 . S
C445 C440 1.425 . S
C445 C442 1.409 . S
C445 C443 1.415 . S
C446 H436 0.930 . S
C446 C444 1.419 . S
C446 C447 1.362 . S
C447 H437 0.930 . S
C447 C440 1.409 . S
C447 C446 1.362 . S
H448 C454 0.930 . S
H449 C457 0.930 . S
H450 C458 0.930 . S
H451 C459 0.930 . S
H452 C462 0.930 . S
H453 C463 0.930 . S
C454 H448 0.930 . S
C454 C455 1.355 . S
C454 C456 1.415 . S
C455 C454 1.355 . S
C455 C457 1.419 . S
C456 C454 1.415 . S
C456 C461 1.425 . S
C456 C463 1.409 . S
C457 H449 0.930 . S
C457 C455 1.419 . S
C457 C458 1.362 . S
C458 H450 0.930 . S
C458 C457 1.362 . S
C458 C461 1.409 . S
C459 H451 0.930 . S
C459 C460 1.355 . S
C459 C461 1.415 . S
C460 C459 1.355 . S
C460 C462 1.419 . S
C461 C456 1.425 . S
C461 C458 1.409 . S
C461 C459 1.415 . S
C462 H452 0.930 . S
C462 C460 1.419 . S
C462 C463 1.362 . S
C463 H453 0.930 . S
C463 C456 1.409 . S
C463 C462 1.362 . S
H464 C470 0.930 . S
H465 C473 0.930 . S
H466 C474 0.930 . S
H467 C475 0.930 . S
H468 C478 0.930 . S
H469 C479 0.930 . S
C470 H464 0.930 . S
C470 C471 1.355 . S
C470 C472 1.415 . S
C471 C470 1.355 . S
C471 C473 1.419 . S
C472 C470 1.415 . S
C472 C477 1.425 . S
C472 C479 1.409 . S
C473 H465 0.930 . S
C473 C471 1.419 . S
C473 C474 1.362 . S
C474 H466 0.930 . S
C474 C473 1.362 . S
C474 C477 1.409 . S
C475 H467 0.930 . S
C475 C476 1.355 . S
C475 C477 1.415 . S
C476 C475 1.355 . S
C476 C478 1.419 . S
C477 C472 1.425 . S
C477 C474 1.409 . S
C477 C475 1.415 . S
C478 H468 0.930 . S
C478 C476 1.419 . S
C478 C479 1.362 . S
C479 H469 0.930 . S
C479 C472 1.409 . S
C479 C478 1.362 . S
H480 C486 0.930 . S
H481 C489 0.930 . S
H482 C490 0.930 . S
H483 C491 0.930 . S
H484 C494 0.930 . S
H485 C495 0.930 . S
C486 H480 0.930 . S
C486 C487 1.355 . S
C486 C488 1.415 . S
C487 C486 1.355 . S
C487 C489 1.419 . S
C488 C486 1.415 . S
C488 C493 1.425 . S
C488 C495 1.409 . S
C489 H481 0.930 . S
C489 C487 1.419 . S
C489 C490 1.362 . S
C490 H482 0.930 . S
C490 C489 1.362 . S
C490 C493 1.409 . S
C491 H483 0.930 . S
C491 C492 1.355 . S
C491 C493 1.415 . S
C492 C491 1.355 . S
C492 C494 1.419 . S
C493 C488 1.425 . S
C493 C490 1.409 . S
C493 C491 1.415 . S
C494 H484 0.930 . S
C494 C492 1.419 . S
C494 C495 1.362 . S
C495 H485 0.930 . S
C495 C488 1.409 . S
C495 C494 1.362 . S
H496 C502 0.930 . S
H497 C505 0.930 . S
H498 C506 0.930 . S
H499 C507 0.930 . S
H500 C510 0.930 . S
H501 C511 0.930 . S
C502 H496 0.930 . S
C502 C503 1.355 . S
C502 C504 1.415 . S
C503 C502 1.355 . S
C503 C505 1.419 . S
C504 C502 1.415 . S
C504 C509 1.425 . S
C504 C511 1.409 . S
C505 H497 0.930 . S
C505 C503 1.419 . S
C505 C506 1.362 . S
C506 H498 0.930 . S
C506 C505 1.362 . S
C506 C509 1.409 . S
C507 H499 0.930 . S
C507 C508 1.355 . S
C507 C509 1.415 . S
C508 C507 1.355 . S
C508 C510 1.419 . S
C509 C504 1.425 . S
C509 C506 1.409 . S
C509 C507 1.415 . S
C510 H500 0.930 . S
C510 C508 1.419 . S
C510 C511 1.362 . S
C511 H501 0.930 . S
C511 C504 1.409 . S
C511 C510 1.362 . S
H512 C518 0.930 . S
H513 C521 0.930 . S
H514 C522 0.930 . S
H515 C523 0.930 . S
H516 C526 0.930 . S
H517 C527 0.930 . S
C518 H512 0.930 . S
C518 C519 1.355 . S
C518 C520 1.415 . S
C519 C518 1.355 . S
C519 C521 1.419 . S
C520 C518 1.415 . S
C520 C525 1.425 . S
C520 C527 1.409 . S
C521 H513 0.930 . S
C521 C519 1.419 . S
C521 C522 1.362 . S
C522 H514 0.930 . S
C522 C521 1.362 . S
C522 C525 1.409 . S
C523 H515 0.930 . S
C523 C524 1.355 . S
C523 C525 1.415 . S
C524 C523 1.355 . S
C524 C526 1.419 . S
C525 C520 1.425 . S
C525 C522 1.409 . S
C525 C523 1.415 . S
C526 H516 0.930 . S
C526 C524 1.419 . S
C526 C527 1.362 . S
C527 H517 0.930 . S
C527 C520 1.409 . S
C527 C526 1.362 . S
H528 C534 0.930 1_655 S
H529 C537 0.930 . S
H530 C538 0.930 . S
H531 C539 0.930 . S
H532 C542 0.930 . S
H533 C543 0.930 . S
C534 H528 0.930 1_455 S
C534 C535 1.355 . S
C534 C536 1.415 . S
C535 C534 1.355 . S
C535 C537 1.419 . S
C536 C534 1.415 . S
C536 C541 1.425 . S
C536 C543 1.409 1_455 S
C537 H529 0.930 . S
C537 C535 1.419 . S
C537 C538 1.362 . S
C538 H530 0.930 . S
C538 C537 1.362 . S
C538 C541 1.409 . S
C539 H531 0.930 . S
C539 C540 1.355 . S
C539 C541 1.415 . S
C540 C539 1.355 . S
C540 C542 1.419 1_455 S
C541 C536 1.425 . S
C541 C538 1.409 . S
C541 C539 1.415 . S
C542 H532 0.930 . S
C542 C540 1.419 1_655 S
C542 C543 1.362 . S
C543 H533 0.930 . S
C543 C536 1.409 1_655 S
C543 C542 1.362 . S
H544 C550 0.930 1_565 S
H545 C553 0.930 . S
H546 C554 0.930 . S
H547 C555 0.930 . S
H548 C558 0.930 . S
H549 C559 0.930 1_565 S
C550 H544 0.930 1_545 S
C550 C551 1.355 . S
C550 C552 1.415 . S
C551 C550 1.355 . S
C551 C553 1.419 . S
C552 C550 1.415 . S
C552 C557 1.425 . S
C552 C559 1.409 . S
C553 H545 0.930 . S
C553 C551 1.419 . S
C553 C554 1.362 . S
C554 H546 0.930 . S
C554 C553 1.362 . S
C554 C557 1.409 . S
C555 H547 0.930 . S
C555 C556 1.355 . S
C555 C557 1.415 . S
C556 C555 1.355 . S
C556 C558 1.419 . S
C557 C552 1.425 . S
C557 C554 1.409 . S
C557 C555 1.415 . S
C558 H548 0.930 . S
C558 C556 1.419 . S
C558 C559 1.362 . S
C559 H549 0.930 1_545 S
C559 C552 1.409 . S
C559 C558 1.362 . S
H560 C566 0.930 . S
H561 C569 0.930 . S
H562 C570 0.930 . S
H563 C571 0.930 . S
H564 C574 0.930 . S
H565 C575 0.930 . S
C566 H560 0.930 . S
C566 C567 1.355 . S
C566 C568 1.415 . S
C567 C566 1.355 . S
C567 C569 1.419 . S
C568 C566 1.415 . S
C568 C573 1.425 . S
C568 C575 1.409 . S
C569 H561 0.930 . S
C569 C567 1.419 . S
C569 C570 1.362 . S
C570 H562 0.930 . S
C570 C569 1.362 . S
C570 C573 1.409 . S
C571 H563 0.930 . S
C571 C572 1.355 . S
C571 C573 1.415 . S
C572 C571 1.355 . S
C572 C574 1.419 . S
C573 C568 1.425 . S
C573 C570 1.409 . S
C573 C571 1.415 . S
C574 H564 0.930 . S
C574 C572 1.419 . S
C574 C575 1.362 . S
C575 H565 0.930 . S
C575 C568 1.409 . S
C575 C574 1.362 . S
H576 C582 0.930 . S
H577 C585 0.930 . S
H578 C586 0.930 . S
H579 C587 0.930 . S
H580 C590 0.930 . S
H581 C591 0.930 . S
C582 H576 0.930 . S
C582 C583 1.355 . S
C582 C584 1.415 . S
C583 C582 1.355 . S
C583 C585 1.419 1_545 S
C584 C582 1.415 . S
C584 C589 1.425 1_545 S
C584 C591 1.409 . S
C585 H577 0.930 . S
C585 C583 1.419 1_565 S
C585 C586 1.362 . S
C586 H578 0.930 . S
C586 C585 1.362 . S
C586 C589 1.409 . S
C587 H579 0.930 . S
C587 C588 1.355 . S
C587 C589 1.415 . S
C588 C587 1.355 . S
C588 C590 1.419 1_565 S
C589 C584 1.425 1_565 S
C589 C586 1.409 . S
C589 C587 1.415 . S
C590 H580 0.930 . S
C590 C588 1.419 1_545 S
C590 C591 1.362 . S
C591 H581 0.930 . S
C591 C584 1.409 . S
C591 C590 1.362 . S
H592 C598 0.930 . S
H593 C601 0.930 . S
H594 C602 0.930 . S
H595 C603 0.930 . S
H596 C606 0.930 . S
H597 C607 0.930 . S
C598 H592 0.930 . S
C598 C599 1.355 . S
C598 C600 1.415 . S
C599 C598 1.355 . S
C599 C601 1.419 . S
C600 C598 1.415 . S
C600 C605 1.425 . S
C600 C607 1.409 . S
C601 H593 0.930 . S
C601 C599 1.419 . S
C601 C602 1.362 . S
C602 H594 0.930 . S
C602 C601 1.362 . S
C602 C605 1.409 . S
C603 H595 0.930 . S
C603 C604 1.355 . S
C603 C605 1.415 . S
C604 C603 1.355 . S
C604 C606 1.419 . S
C605 C600 1.425 . S
C605 C602 1.409 . S
C605 C603 1.415 . S
C606 H596 0.930 . S
C606 C604 1.419 . S
C606 C607 1.362 . S
C607 H597 0.930 . S
C607 C600 1.409 . S
C607 C606 1.362 . S
H608 C614 0.930 1_655 S
H609 C617 0.930 . S
H610 C618 0.930 . S
H611 C619 0.930 . S
H612 C622 0.930 . S
H613 C623 0.930 . S
C614 H608 0.930 1_455 S
C614 C615 1.355 . S
C614 C616 1.415 . S
C615 C614 1.355 . S
C615 C617 1.419 . S
C616 C614 1.415 . S
C616 C621 1.425 . S
C616 C623 1.409 1_455 S
C617 H609 0.930 . S
C617 C615 1.419 . S
C617 C618 1.362 . S
C618 H610 0.930 . S
C618 C617 1.362 . S
C618 C621 1.409 . S
C619 H611 0.930 . S
C619 C620 1.354 1_455 S
C619 C621 1.415 . S
C620 C619 1.354 1_655 S
C620 C622 1.420 . S
C621 C616 1.425 . S
C621 C618 1.409 . S
C621 C619 1.415 . S
C622 H612 0.930 . S
C622 C620 1.420 . S
C622 C623 1.362 . S
C623 H613 0.930 . S
C623 C616 1.409 1_655 S
C623 C622 1.362 . S
C343 C7 0.809 . S
C348 C325 0.744 . S
C359 C51 1.957 . S
C364 C253 1.901 . S
C375 C87 1.269 . S
C380 C289 1.310 . S
C391 C16 0.561 . S
C396 C301 0.417 . S
C412 C229 2.031 . S
C407 C42 2.086 . S
C428 C265 1.365 . S
C423 C96 1.337 . S
C439 C47 1.223 . S
C444 C181 1.235 . S
C455 C91 3.140 . S
C460 C193 3.087 . S
C471 C2 2.148 . S
C476 C121 2.095 . S
C492 C157 1.346 . S
C487 C56 1.359 . S
C508 C217 2.936 . S
C503 C82 3.037 . S
C519 C11 1.930 . S
C524 C145 1.873 . S
C540 C223 1.760 1_554 S
C535 C19 1.727 . S
C551 C50 1.300 . S
C556 C151 1.375 . S
C567 C99 1.490 . S
C572 C187 1.506 . S
C588 C295 1.473 . S
C583 C59 1.481 . S
C604 C331 1.127 . S
C599 C90 1.116 . S
C615 C10 1.359 . S
C620 C259 1.346 1_655 S
