# Generated by pormake.
# Topology anh, (6,3)-cn, num edge types: 1
# Building blocks:
#     Node 0, Type 0, BuildingBlock: MIFKUJ_clean_sbu_0, # of connection points: 6
#     Node 1, Type 0, BuildingBlock: MIFKUJ_clean_sbu_0, # of connection points: 6
#     Node 2, Type 0, BuildingBlock: MIFKUJ_clean_sbu_0, # of connection points: 6
#     Node 3, Type 1, BuildingBlock: KAKCAD_clean_linker_0, # of connection points: 3
#     Node 4, Type 1, BuildingBlock: KAKCAD_clean_linker_0, # of connection points: 3
#     Node 5, Type 1, BuildingBlock: KAKCAD_clean_linker_0, # of connection points: 3
#     Node 6, Type 1, BuildingBlock: KAKCAD_clean_linker_0, # of connection points: 3
#     Node 7, Type 1, BuildingBlock: KAKCAD_clean_linker_0, # of connection points: 3
#     Node 8, Type 1, BuildingBlock: KAKCAD_clean_linker_0, # of connection points: 3
#     Edge 9, Type (0, 1), BuildingBlock: OJICUG_clean_linker_0, # of connection points: 2
#     Edge 10, Type (0, 1), BuildingBlock: OJICUG_clean_linker_0, # of connection points: 2
#     Edge 11, Type (0, 1), BuildingBlock: OJICUG_clean_linker_0, # of connection points: 2
#     Edge 12, Type (0, 1), BuildingBlock: OJICUG_clean_linker_0, # of connection points: 2
#     Edge 13, Type (0, 1), BuildingBlock: OJICUG_clean_linker_0, # of connection points: 2
#     Edge 14, Type (0, 1), BuildingBlock: OJICUG_clean_linker_0, # of connection points: 2
#     Edge 15, Type (0, 1), BuildingBlock: OJICUG_clean_linker_0, # of connection points: 2
#     Edge 16, Type (0, 1), BuildingBlock: OJICUG_clean_linker_0, # of connection points: 2
#     Edge 17, Type (0, 1), BuildingBlock: OJICUG_clean_linker_0, # of connection points: 2
#     Edge 18, Type (0, 1), BuildingBlock: OJICUG_clean_linker_0, # of connection points: 2
#     Edge 19, Type (0, 1), BuildingBlock: OJICUG_clean_linker_0, # of connection points: 2
#     Edge 20, Type (0, 1), BuildingBlock: OJICUG_clean_linker_0, # of connection points: 2
#     Edge 21, Type (0, 1), BuildingBlock: OJICUG_clean_linker_0, # of connection points: 2
#     Edge 22, Type (0, 1), BuildingBlock: OJICUG_clean_linker_0, # of connection points: 2
#     Edge 23, Type (0, 1), BuildingBlock: OJICUG_clean_linker_0, # of connection points: 2
#     Edge 24, Type (0, 1), BuildingBlock: OJICUG_clean_linker_0, # of connection points: 2
#     Edge 25, Type (0, 1), BuildingBlock: OJICUG_clean_linker_0, # of connection points: 2
#     Edge 26, Type (0, 1), BuildingBlock: OJICUG_clean_linker_0, # of connection points: 2
# Relax obj value: 0.134
# Max RMSD: 0.185
# Mean RMSD: 0.149
data_MOF--net-anh--node1-MIFKUJ_clean_sbu_0--node2-KAKCAD_clean_linker_0--edge1-OJICUG_clean_linker_0
_symmetry_space_group_name_H-M    P1
_symmetry_Int_Tables_number       1
_symmetry_cell_setting            triclinic
loop_
_symmetry_equiv_pos_as_xyz
'x, y, z'
_cell_length_a     29.853814
_cell_length_b     29.45551
_cell_length_c     49.678263
_cell_angle_alpha  93.745661
_cell_angle_beta   90.87772
_cell_angle_gamma 119.45597
loop_
_atom_site_label
_atom_site_type_symbol
_atom_site_fract_x
_atom_site_fract_y
_atom_site_fract_z
_atom_type_partial_charge
Zn0 Zn 0.05218 0.59117 0.1593 0.0
Zn1 Zn 0.89458 0.48147 0.16574 0.0
C2 C 0.12693 0.5588 0.16782 0.0
O3 O 0.12951 0.57964 0.19239 0.0
C4 C 0.7996 0.47092 0.15393 0.0
O5 O 0.79686 0.42822 0.14226 0.0
O6 O 0.09326 0.66601 0.14965 0.0
O7 O 0.982 0.54627 0.1439 0.0
O8 O 0.91271 0.48031 0.1263 0.0
C9 C 0.12651 0.67565 0.13193 0.0
O10 O 0.12559 0.63628 0.11739 0.0
O11 O 0.09432 0.55678 0.15038 0.0
C12 C 0.8283 0.40298 0.19713 0.0
O13 O 0.83075 0.44507 0.20943 0.0
O14 O 0.85704 0.40813 0.17761 0.0
O15 O 0.95754 0.52759 0.19237 0.0
O16 O 0.03995 0.58792 0.19908 0.0
O17 O 0.84185 0.50553 0.16594 0.0
C18 C 0.9576 0.51716 0.12306 0.0
C19 C -0.00319 0.55639 0.20842 0.0
Zn20 Zn 0.55788 0.0639 0.50197 0.0
Zn21 Zn 0.47941 0.90627 0.5017 0.0
C22 C 0.66577 0.12658 0.51066 0.0
O23 O 0.65145 0.13584 0.53432 0.0
C24 C 0.39971 0.79722 0.50507 0.0
O25 O 0.43668 0.78641 0.50006 0.0
O26 O 0.55174 0.12868 0.50498 0.0
O27 O 0.5135 0.02106 0.46949 0.0
O28 O 0.46868 0.93461 0.46812 0.0
C29 C 0.56325 0.15704 0.4852 0.0
O30 O 0.5761 0.14159 0.46266 0.0
O31 O 0.63193 0.09171 0.49384 0.0
C32 C 0.5691 0.89181 0.50737 0.0
O33 O 0.58342 0.92714 0.528 0.0
O34 O 0.52791 0.87899 0.49353 0.0
O35 O 0.5 0.94927 0.53748 0.0
O36 O 0.54323 0.03596 0.53843 0.0
O37 O 0.40976 0.84458 0.50688 0.0
C38 C 0.48239 0.97701 0.45729 0.0
C39 C 0.52215 0.99415 0.55041 0.0
Zn40 Zn 0.58385 0.52148 0.82137 0.0
Zn41 Zn 0.46975 0.53616 0.81572 0.0
C42 C 0.55974 0.4203 0.84133 0.0
O43 O 0.57811 0.4476 0.86475 0.0
C44 C 0.47935 0.63455 0.81348 0.0
O45 O 0.44445 0.60499 0.79423 0.0
O46 O 0.66026 0.55189 0.82381 0.0
O47 O 0.56623 0.53592 0.78504 0.0
O48 O 0.48972 0.52975 0.77782 0.0
C49 C 0.67938 0.53199 0.80741 0.0
O50 O 0.64878 0.4949 0.789 0.0
O51 O 0.5559 0.44297 0.82115 0.0
C52 C 0.38168 0.51881 0.83994 0.0
O53 O 0.41692 0.53581 0.85988 0.0
O54 O 0.39379 0.51109 0.81635 0.0
O55 O 0.48355 0.49674 0.84352 0.0
O56 O 0.5652 0.54932 0.85461 0.0
O57 O 0.50122 0.6145 0.82676 0.0
C58 C 0.53233 0.53624 0.76938 0.0
C59 C 0.51903 0.5247 0.86136 0.0
C60 C 0.44034 0.01035 0.33029 0.0
C61 C 0.44613 0.97164 0.34249 0.0
C62 C 0.44602 0.01534 0.30268 0.0
C63 C 0.45653 0.98113 0.28663 0.0
C64 C 0.45898 0.94028 0.29824 0.0
C65 C 0.4541 0.93571 0.32603 0.0
C66 C 0.46881 0.9912 0.25832 0.0
C67 C 0.51184 0.03805 0.25264 0.0
C68 C 0.52163 0.05196 0.22596 0.0
C69 C 0.48756 0.01746 0.20478 0.0
C70 C 0.44508 0.96961 0.21036 0.0
C71 C 0.43619 0.95646 0.23716 0.0
C72 C 0.40696 0.93446 0.18884 0.0
C73 C 0.37529 0.94994 0.17574 0.0
C74 C 0.39676 0.88269 0.18441 0.0
C75 C 0.35379 0.8461 0.16827 0.0
C76 C 0.31977 0.86049 0.15674 0.0
C77 C 0.56648 0.10325 0.22079 0.0
C78 C 0.5807 0.14729 0.23902 0.0
C79 C 0.59633 0.10854 0.19836 0.0
C80 C 0.63965 0.1567 0.19445 0.0
C81 C 0.65422 0.20048 0.21301 0.0
C82 C 0.62424 0.1949 0.2354 0.0
C83 C 0.33164 0.91305 0.15997 0.0
H84 H 0.433 0.03787 0.34222 0.0
H85 H 0.44347 0.04679 0.29391 0.0
H86 H 0.46719 0.91361 0.28608 0.0
H87 H 0.45926 0.90575 0.33478 0.0
H88 H 0.5376 0.06379 0.26929 0.0
H89 H 0.40246 0.92041 0.24163 0.0
H90 H 0.49337 0.02799 0.18411 0.0
H91 H 0.38236 0.98969 0.17918 0.0
H92 H 0.42061 0.87002 0.19453 0.0
H93 H 0.34523 0.80573 0.16639 0.0
H94 H 0.55815 0.14518 0.25625 0.0
H95 H 0.58672 0.07533 0.18403 0.0
H96 H 0.30598 0.92503 0.15128 0.0
H97 H 0.63452 0.22728 0.25042 0.0
H98 H 0.66136 0.15966 0.17676 0.0
C99 C 0.55554 0.5772 0.63884 0.0
C100 C 0.57651 0.55634 0.65655 0.0
C101 C 0.5665 0.57924 0.61154 0.0
C102 C 0.5986 0.56042 0.60145 0.0
C103 C 0.61986 0.54003 0.61924 0.0
C104 C 0.60878 0.5378 0.64641 0.0
C105 C 0.60867 0.56033 0.57232 0.0
C106 C 0.61831 0.60311 0.55781 0.0
C107 C 0.62602 0.60199 0.53003 0.0
C108 C 0.62432 0.55771 0.51654 0.0
C109 C 0.61646 0.51534 0.53114 0.0
C110 C 0.608 0.51676 0.55882 0.0
C111 C 0.6163 0.4686 0.51827 0.0
C112 C 0.58282 0.43947 0.49584 0.0
C113 C 0.64484 0.44902 0.53095 0.0
C114 C 0.63703 0.39944 0.52288 0.0
C115 C 0.60073 0.36851 0.50184 0.0
C116 C 0.63318 0.64691 0.51559 0.0
C117 C 0.59237 0.64262 0.49932 0.0
C118 C 0.6761 0.69634 0.52249 0.0
C119 C 0.67638 0.74136 0.51503 0.0
C120 C 0.63316 0.73766 0.50111 0.0
C121 C 0.59222 0.68764 0.4922 0.0
C122 C 0.57512 0.38959 0.48762 0.0
H123 H 0.53092 0.59222 0.64609 0.0
H124 H 0.54911 0.59468 0.59825 0.0
H125 H 0.64516 0.52573 0.61216 0.0
H126 H 0.62501 0.52083 0.65941 0.0
H127 H 0.61938 0.63733 0.56805 0.0
H128 H 0.59961 0.48302 0.56976 0.0
H129 H 0.63007 0.55672 0.49506 0.0
H130 H 0.56028 0.45378 0.48583 0.0
H131 H 0.67142 0.47112 0.54806 0.0
H132 H 0.65798 0.3844 0.53378 0.0
H133 H 0.55865 0.60475 0.49412 0.0
H134 H 0.70791 0.70025 0.53513 0.0
H135 H 0.54704 0.36637 0.47126 0.0
H136 H 0.55801 0.68302 0.4817 0.0
H137 H 0.70907 0.77912 0.52166 0.0
C138 C 0.0653 0.58249 0.00497 0.0
C139 C 0.01745 0.54519 0.01374 0.0
C140 C 0.0719 0.59004 0.97749 0.0
C141 C 0.03069 0.56068 0.95833 0.0
C142 C 0.98287 0.52367 0.96716 0.0
C143 C 0.97632 0.51606 0.99453 0.0
C144 C 0.0377 0.56718 0.92908 0.0
C145 C 0.08125 0.56974 0.9174 0.0
C146 C 0.08642 0.57162 0.88936 0.0
C147 C 0.04801 0.57217 0.87297 0.0
C148 C 0.0045 0.56987 0.88447 0.0
C149 C -0.00058 0.56733 0.91241 0.0
C150 C 0.96225 0.56635 0.8673 0.0
C151 C 0.96733 0.61034 0.85533 0.0
C152 C 0.91533 0.51931 0.86427 0.0
C153 C 0.87344 0.51649 0.84994 0.0
C154 C 0.87762 0.56094 0.83879 0.0
C155 C 0.12988 0.56836 0.87742 0.0
C156 C 0.17969 0.59829 0.88959 0.0
C157 C 0.12101 0.53138 0.85567 0.0
C158 C 0.16065 0.52227 0.84739 0.0
C159 C 0.20961 0.54995 0.86079 0.0
C160 C 0.21916 0.58923 0.88134 0.0
C161 C 0.92504 0.6078 0.84134 0.0
H162 H 0.0977 0.60549 0.01931 0.0
H163 H 0.10914 0.61905 0.97125 0.0
H164 H 0.95058 0.49998 0.95286 0.0
H165 H 0.93869 0.48771 0.00066 0.0
H166 H 0.10984 0.56728 0.93 0.0
H167 H 0.96537 0.56515 0.92109 0.0
H168 H 0.05128 0.57305 0.85128 0.0
H169 H 0.00338 0.64698 0.85763 0.0
H170 H 0.91087 0.48508 0.8735 0.0
H171 H 0.8371 0.48013 0.84858 0.0
H172 H 0.18769 0.62761 0.90611 0.0
H173 H 0.08281 0.50751 0.84607 0.0
H174 H 0.92903 0.64255 0.83293 0.0
H175 H 0.25695 0.61205 0.89156 0.0
H176 H 0.15233 0.4918 0.83149 0.0
C177 C 0.94803 0.50587 0.33682 0.0
C178 C 0.99303 0.52595 0.3223 0.0
C179 C 0.94946 0.49608 0.36391 0.0
C180 C -0.00408 0.50627 0.37701 0.0
C181 C 0.04075 0.52597 0.36242 0.0
C182 C 0.03932 0.53567 0.33541 0.0
C183 C -0.00189 0.49705 0.40589 0.0
C184 C 0.96034 0.45096 0.416 0.0
C185 C 0.96326 0.44149 0.44324 0.0
C186 C 0.00515 0.47891 0.46028 0.0
C187 C 0.04318 0.52516 0.45036 0.0
C188 C 0.03911 0.53397 0.42326 0.0
C189 C 0.08904 0.56357 0.4675 0.0
C190 C 0.10712 0.61735 0.46667 0.0
C191 C 0.11839 0.54716 0.48214 0.0
C192 C 0.16675 0.58389 0.494 0.0
C193 C 0.18648 0.63764 0.49149 0.0
C194 C 0.9227 0.3924 0.45364 0.0
C195 C 0.87096 0.37077 0.44429 0.0
C196 C 0.93517 0.36648 0.47275 0.0
C197 C 0.89679 0.32017 0.48223 0.0
C198 C 0.84541 0.29843 0.47246 0.0
C199 C 0.83289 0.32418 0.45343 0.0
C200 C 0.1553 0.65398 0.47849 0.0
H201 H 0.91185 0.4984 0.32736 0.0
H202 H 0.91441 0.48137 0.37473 0.0
H203 H 0.07694 0.53329 0.37181 0.0
H204 H 0.07443 0.55001 0.32466 0.0
H205 H 0.92953 0.4217 0.40235 0.0
H206 H 0.06861 0.56947 0.41549 0.0
H207 H 0.00792 0.47266 0.48135 0.0
H208 H 0.08495 0.63105 0.45577 0.0
H209 H 0.10535 0.50589 0.48306 0.0
H210 H 0.18952 0.57011 0.50424 0.0
H211 H 0.85959 0.39014 0.43012 0.0
H212 H 0.97465 0.3815 0.48013 0.0
H213 H 0.1693 0.69495 0.47595 0.0
H214 H 0.79334 0.30876 0.446 0.0
H215 H 0.90734 0.30093 0.4969 0.0
C216 C 0.50014 0.96883 0.68206 0.0
C217 C 0.53517 0.01008 0.6675 0.0
C218 C 0.50336 0.97351 0.7103 0.0
C219 C 0.5413 0.01972 0.72457 0.0
C220 C 0.57658 0.06076 0.71012 0.0
C221 C 0.57375 0.05589 0.68192 0.0
C222 C 0.54334 0.02573 0.75446 0.0
C223 C 0.54135 0.98652 0.76965 0.0
C224 C 0.54256 0.99172 0.79799 0.0
C225 C 0.5451 0.03681 0.81133 0.0
C226 C 0.54843 0.07724 0.79619 0.0
C227 C 0.54706 0.07083 0.76783 0.0
C228 C 0.55369 0.12693 0.80894 0.0
C229 C 0.51948 0.12715 0.82805 0.0
C230 C 0.58948 0.17459 0.79917 0.0
C231 C 0.58858 0.22058 0.80661 0.0
C232 C 0.55232 0.22041 0.82429 0.0
C233 C 0.54068 0.94864 0.81263 0.0
C234 C 0.49556 0.91423 0.82475 0.0
C235 C 0.57954 0.93529 0.80927 0.0
C236 C 0.57187 0.88666 0.81598 0.0
C237 C 0.52483 0.85009 0.82585 0.0
C238 C 0.48764 0.86531 0.83127 0.0
C239 C 0.51892 0.1737 0.83575 0.0
H240 H 0.46947 0.93329 0.67168 0.0
H241 H 0.47536 0.9415 0.72099 0.0
H242 H 0.60662 0.09654 0.72067 0.0
H243 H 0.60209 0.08801 0.67143 0.0
H244 H 0.53899 0.9517 0.75937 0.0
H245 H 0.54781 0.10081 0.75598 0.0
H246 H 0.54602 0.04102 0.8332 0.0
H247 H 0.49138 0.091 0.83584 0.0
H248 H 0.61695 0.1759 0.78481 0.0
H249 H 0.61553 0.25623 0.79793 0.0
H250 H 0.46482 0.92343 0.82721 0.0
H251 H 0.61445 0.96106 0.79967 0.0
H252 H 0.49074 0.17262 0.84955 0.0
H253 H 0.45119 0.83819 0.83911 0.0
H254 H 0.60112 0.87618 0.81135 0.0
C255 C 0.46922 0.47485 0.98704 0.0
C256 C 0.478 0.5195 0.97435 0.0
C257 C 0.46406 0.47353 0.01488 0.0
C258 C 0.4667 0.51646 0.03035 0.0
C259 C 0.47394 0.56052 0.01758 0.0
C260 C 0.48008 0.56224 0.98978 0.0
C261 C 0.46419 0.5161 0.05995 0.0
C262 C 0.49805 0.50634 0.07493 0.0
C263 C 0.49668 0.50623 0.10312 0.0
C264 C 0.46057 0.51582 0.11642 0.0
C265 C 0.42566 0.52493 0.10147 0.0
C266 C 0.42818 0.5254 0.07322 0.0
C267 C 0.38483 0.53166 0.1147 0.0
C268 C 0.35617 0.49917 0.13469 0.0
C269 C 0.37134 0.56783 0.1057 0.0
C270 C 0.32855 0.56952 0.11531 0.0
C271 C 0.29864 0.53556 0.13439 0.0
C272 C 0.53373 0.49619 0.11801 0.0
C273 C 0.54018 0.4538 0.10889 0.0
C274 C 0.56696 0.53183 0.13898 0.0
C275 C 0.60799 0.52679 0.14947 0.0
C276 C 0.61609 0.48583 0.13925 0.0
C277 C 0.58088 0.44874 0.1193 0.0
C278 C 0.31351 0.50127 0.14455 0.0
H279 H 0.46782 0.44159 0.97554 0.0
H280 H 0.45834 0.43912 0.02439 0.0
H281 H 0.47632 0.59411 0.02922 0.0
H282 H 0.48666 0.59697 0.98033 0.0
H283 H 0.52643 0.49989 0.06458 0.0
H284 H 0.40099 0.53126 0.06131 0.0
H285 H 0.45938 0.51567 0.13821 0.0
H286 H 0.36534 0.47061 0.14189 0.0
H287 H 0.39332 0.59423 0.09077 0.0
H288 H 0.31856 0.59718 0.10764 0.0
H289 H 0.51488 0.42567 0.09281 0.0
H290 H 0.56281 0.56499 0.14623 0.0
H291 H 0.29103 0.47477 0.15933 0.0
H292 H 0.58615 0.4171 0.11063 0.0
H293 H 0.6341 0.55565 0.16505 0.0
C294 C 0.201 0.54465 0.17876 0.0
C295 C 0.16684 0.54592 0.15942 0.0
H296 H 0.26963 0.54005 0.18593 0.0
C297 C 0.1741 0.53949 0.13185 0.0
H298 H 0.19622 0.5493 0.20015 0.0
C299 C 0.21625 0.53474 0.1238 0.0
C300 C 0.2516 0.5357 0.14313 0.0
H301 H 0.14844 0.54022 0.11644 0.0
H302 H 0.22176 0.53124 0.10241 0.0
C303 C 0.24289 0.53925 0.17066 0.0
C304 C 0.72478 0.16715 0.47356 0.0
C305 C 0.71653 0.1647 0.50135 0.0
H306 H 0.77225 0.21176 0.44268 0.0
C307 C 0.75437 0.20352 0.51971 0.0
H308 H 0.69642 0.13793 0.45886 0.0
C309 C 0.79802 0.24566 0.51037 0.0
C310 C 0.80417 0.24994 0.48252 0.0
H311 H 0.74916 0.20265 0.54123 0.0
H312 H 0.82539 0.27636 0.52485 0.0
C313 C 0.76799 0.20957 0.46425 0.0
C314 C 0.45382 0.70299 0.81116 0.0
C315 C 0.49036 0.68916 0.81958 0.0
H316 H 0.43582 0.76395 0.80682 0.0
C317 C 0.53705 0.72813 0.8325 0.0
H318 H 0.4172 0.67385 0.80138 0.0
C319 C 0.54788 0.78041 0.8356 0.0
C320 C 0.51176 0.79435 0.82632 0.0
H321 H 0.56586 0.7186 0.83928 0.0
H322 H 0.58483 0.81008 0.84477 0.0
C323 C 0.46424 0.75471 0.81458 0.0
C324 C 0.70454 0.43107 0.15231 0.0
C325 C 0.75315 0.4763 0.15386 0.0
H326 H 0.62305 0.3988 0.14788 0.0
C327 C 0.75636 0.52544 0.15389 0.0
H328 H 0.70101 0.39272 0.15285 0.0
C329 C 0.71152 0.52894 0.1505 0.0
C330 C 0.66285 0.48334 0.14746 0.0
H331 H 0.7935 0.56085 0.15512 0.0
H332 H 0.71524 0.56711 0.14886 0.0
C333 C 0.6599 0.43457 0.14943 0.0
C334 C 0.33205 0.70301 0.4967 0.0
C335 C 0.34575 0.75469 0.50557 0.0
H336 H 0.27095 0.62558 0.4851 0.0
C337 C 0.30684 0.76601 0.513 0.0
H338 H 0.36113 0.69299 0.49087 0.0
C339 C 0.2551 0.72715 0.51008 0.0
C340 C 0.24113 0.67622 0.49947 0.0
H341 H 0.31621 0.80532 0.52028 0.0
H342 H 0.22593 0.73744 0.51528 0.0
C343 C 0.28027 0.66422 0.49359 0.0
C344 C 0.55221 0.339 0.85954 0.0
C345 C 0.55126 0.36611 0.83738 0.0
H346 H 0.55258 0.27107 0.87282 0.0
C347 C 0.54646 0.34266 0.81115 0.0
H348 H 0.55574 0.3559 0.88002 0.0
C349 C 0.5453 0.29469 0.80712 0.0
C350 C 0.54825 0.26856 0.82918 0.0
H351 H 0.54559 0.36226 0.79361 0.0
H352 H 0.54306 0.2784 0.78662 0.0
C353 C 0.55029 0.29043 0.85547 0.0
C354 C 0.5823 0.82567 0.47979 0.0
C355 C 0.5948 0.86021 0.50311 0.0
H356 H 0.58648 0.76104 0.46026 0.0
C357 C 0.62715 0.8596 0.52369 0.0
H358 H 0.55806 0.82579 0.46337 0.0
C359 C 0.6427 0.82194 0.52212 0.0
C360 C 0.62676 0.78449 0.49976 0.0
H361 H 0.63757 0.8858 0.54188 0.0
H362 H 0.66408 0.82003 0.53939 0.0
C363 C 0.5984 0.7884 0.47805 0.0
C364 C 0.76778 0.58803 0.8291 0.0
C365 C 0.73338 0.54454 0.81174 0.0
H366 H 0.84118 0.62771 0.85094 0.0
C367 C 0.74959 0.51026 0.80062 0.0
H368 H 0.75643 0.61528 0.83783 0.0
C369 C 0.79787 0.51719 0.80829 0.0
C370 C 0.83103 0.55896 0.82685 0.0
H371 H 0.72399 0.47646 0.78713 0.0
H372 H 0.80856 0.48882 0.8005 0.0
C373 C 0.81636 0.59536 0.83647 0.0
C374 C 0.17619 0.77028 0.14912 0.0
C375 C 0.17311 0.72792 0.13282 0.0
H376 H 0.22553 0.84623 0.16912 0.0
C377 C 0.21771 0.73364 0.12068 0.0
H378 H 0.14252 0.7672 0.15865 0.0
C379 C 0.26525 0.77866 0.12689 0.0
C380 C 0.26894 0.81916 0.14495 0.0
H381 H 0.21673 0.70188 0.10791 0.0
H382 H 0.29957 0.78063 0.11873 0.0
C383 C 0.2237 0.81565 0.15501 0.0
C384 C 0.57833 0.24041 0.46667 0.0
C385 C 0.56797 0.20943 0.48863 0.0
H386 H 0.5965 0.31545 0.45358 0.0
C387 C 0.56532 0.23025 0.51442 0.0
H388 H 0.58041 0.22533 0.44653 0.0
C389 C 0.57496 0.28158 0.51839 0.0
C390 C 0.587 0.31311 0.49666 0.0
H391 H 0.55729 0.20745 0.53175 0.0
H392 H 0.57361 0.29693 0.5386 0.0
C393 C 0.58742 0.29182 0.47063 0.0
C394 C 0.30275 0.52008 0.82294 0.0
C395 C 0.33288 0.51849 0.8445 0.0
H396 H 0.24001 0.53199 0.81121 0.0
C397 C 0.31936 0.52285 0.87109 0.0
H398 H 0.31247 0.51705 0.80223 0.0
C399 C 0.2784 0.53155 0.87616 0.0
C400 C 0.25002 0.53616 0.85477 0.0
H401 H 0.3415 0.52123 0.88812 0.0
H402 H 0.26948 0.53564 0.89694 0.0
C403 C 0.26149 0.52881 0.82805 0.0
C404 C 0.74116 0.34717 0.21343 0.0
C405 C 0.78562 0.35101 0.20223 0.0
H406 H 0.66445 0.29731 0.22433 0.0
C407 C 0.78699 0.30504 0.19443 0.0
H408 H 0.73847 0.38187 0.21909 0.0
C409 C 0.74458 0.25602 0.19803 0.0
C410 C 0.69974 0.25217 0.20904 0.0
H411 H 0.82081 0.30699 0.18564 0.0
H412 H 0.74713 0.22128 0.19237 0.0
C413 C 0.69862 0.29847 0.2165 0.0
C414 C 0.96421 0.48007 0.07782 0.0
C415 C 0.98047 0.52349 0.09664 0.0
H416 H 0.96476 0.45284 0.03694 0.0
C417 C 0.01357 0.57375 0.08883 0.0
H418 H 0.93882 0.44088 0.08346 0.0
C419 C 0.02794 0.58079 0.06212 0.0
C420 C 0.00927 0.53754 0.04284 0.0
H421 H 0.02546 0.60783 0.10288 0.0
H422 H 0.05108 0.62024 0.05627 0.0
C423 C 0.9788 0.487 0.05121 0.0
C424 C 0.43784 0.92693 0.41314 0.0
C425 C 0.46652 0.97504 0.42867 0.0
H426 H 0.40798 0.88796 0.37374 0.0
C427 C 0.48402 0.02163 0.41597 0.0
H428 H 0.4235 0.89026 0.42232 0.0
C429 C 0.47568 0.02027 0.3882 0.0
C430 C 0.44916 0.97227 0.37239 0.0
H431 H 0.50605 0.05939 0.42725 0.0
H432 H 0.49225 0.05706 0.37899 0.0
C433 C 0.42925 0.92557 0.38527 0.0
C434 C 0.59326 0.55923 0.73233 0.0
C435 C 0.54318 0.54324 0.74056 0.0
H436 H 0.64321 0.57731 0.69964 0.0
C437 C 0.5043 0.53374 0.72105 0.0
H438 H 0.62436 0.56761 0.74685 0.0
C439 C 0.51513 0.53876 0.69375 0.0
C440 C 0.56507 0.55368 0.68553 0.0
H441 H 0.46536 0.52143 0.72678 0.0
H442 H 0.48413 0.52968 0.67903 0.0
C443 C 0.60409 0.5646 0.7052 0.0
C444 C 0.53849 0.04564 0.59513 0.0
C445 C 0.52453 0.99787 0.58031 0.0
H446 H 0.55136 0.08661 0.63407 0.0
C447 C 0.51368 0.95396 0.59433 0.0
H448 H 0.54675 0.08014 0.58495 0.0
C449 C 0.51724 0.95789 0.62256 0.0
C450 C 0.53124 0.00569 0.63743 0.0
H451 H 0.50322 0.91666 0.58352 0.0
H452 H 0.50983 0.92359 0.63269 0.0
C453 C 0.54149 0.04942 0.62334 0.0
C454 C 0.46236 0.48299 0.89911 0.0
C455 C 0.50752 0.52433 0.89012 0.0
H456 H 0.41779 0.44903 0.93307 0.0
C457 C 0.54197 0.5649 0.90889 0.0
H458 H 0.43516 0.45116 0.88507 0.0
C459 C 0.53159 0.564 0.93622 0.0
C460 C 0.48707 0.52208 0.94525 0.0
H461 H 0.57694 0.59734 0.90247 0.0
H462 H 0.559 0.5954 0.9504 0.0
C463 C 0.45245 0.48165 0.9265 0.0
C464 C 0.95202 0.50737 0.24792 0.0
C465 C 0.99354 0.55093 0.23781 0.0
H466 H 0.91948 0.46496 0.28242 0.0
C467 C 0.03359 0.58758 0.25591 0.0
H468 H 0.92109 0.47799 0.23446 0.0
C469 C 0.03269 0.58019 0.28342 0.0
C470 C 0.99187 0.53582 0.29343 0.0
H471 H 0.06606 0.6217 0.24879 0.0
H472 H 0.06424 0.60907 0.29682 0.0
C473 C 0.95115 0.49988 0.27543 0.0
loop_
_geom_bond_atom_site_label_1
_geom_bond_atom_site_label_2
_geom_bond_distance
_geom_bond_site_symmetry_2
_ccdc_geom_bond_type
Zn0 O6 1.969 . S
Zn0 O7 1.965 . S
Zn0 O11 2.024 . S
Zn0 O16 1.969 . S
Zn1 O8 1.969 . S
Zn1 O14 1.969 . S
Zn1 O15 1.965 . S
Zn1 O17 2.024 . S
C2 O3 1.229 . S
C2 O11 1.058 . S
O3 C2 1.229 . S
C4 O5 1.229 . S
C4 O17 1.058 . S
O5 C4 1.229 . S
O6 Zn0 1.969 . S
O6 C9 1.267 . S
O7 Zn0 1.965 . S
O7 C18 1.260 1_455 S
O8 Zn1 1.969 . S
O8 C18 1.258 . S
C9 O6 1.267 . S
C9 O10 1.228 . S
O10 C9 1.228 . S
O11 Zn0 2.024 . S
O11 C2 1.058 . S
C12 O13 1.228 . S
C12 O14 1.267 . S
O13 C12 1.228 . S
O14 Zn1 1.969 . S
O14 C12 1.267 . S
O15 Zn1 1.965 . S
O15 C19 1.260 1_655 S
O16 Zn0 1.969 . S
O16 C19 1.258 . S
O17 Zn1 2.024 . S
O17 C4 1.058 . S
C18 O7 1.260 1_655 S
C18 O8 1.258 . S
C19 O15 1.260 1_455 S
C19 O16 1.258 . S
Zn20 O26 1.969 . S
Zn20 O27 1.965 . S
Zn20 O31 2.024 . S
Zn20 O36 1.969 . S
Zn21 O28 1.969 . S
Zn21 O34 1.969 . S
Zn21 O35 1.965 . S
Zn21 O37 2.024 . S
C22 O23 1.229 . S
C22 O31 1.058 . S
O23 C22 1.229 . S
C24 O25 1.229 . S
C24 O37 1.058 . S
O25 C24 1.229 . S
O26 Zn20 1.969 . S
O26 C29 1.267 . S
O27 Zn20 1.965 . S
O27 C38 1.260 . S
O28 Zn21 1.969 . S
O28 C38 1.258 1_565 S
C29 O26 1.267 . S
C29 O30 1.228 . S
O30 C29 1.228 . S
O31 Zn20 2.024 . S
O31 C22 1.058 . S
C32 O33 1.228 . S
C32 O34 1.267 . S
O33 C32 1.228 . S
O34 Zn21 1.969 . S
O34 C32 1.267 . S
O35 Zn21 1.965 . S
O35 C39 1.260 1_565 S
O36 Zn20 1.969 . S
O36 C39 1.258 . S
O37 Zn21 2.024 . S
O37 C24 1.058 . S
C38 O27 1.260 . S
C38 O28 1.258 1_545 S
C39 O35 1.260 1_545 S
C39 O36 1.258 . S
Zn40 O46 1.969 . S
Zn40 O47 1.965 . S
Zn40 O51 2.024 . S
Zn40 O56 1.969 . S
Zn41 O48 1.969 . S
Zn41 O54 1.969 . S
Zn41 O55 1.965 . S
Zn41 O57 2.024 . S
C42 O43 1.229 . S
C42 O51 1.058 . S
O43 C42 1.229 . S
C44 O45 1.229 . S
C44 O57 1.058 . S
O45 C44 1.229 . S
O46 Zn40 1.969 . S
O46 C49 1.267 . S
O47 Zn40 1.965 . S
O47 C58 1.260 . S
O48 Zn41 1.969 . S
O48 C58 1.258 . S
C49 O46 1.267 . S
C49 O50 1.228 . S
O50 C49 1.228 . S
O51 Zn40 2.024 . S
O51 C42 1.058 . S
C52 O53 1.228 . S
C52 O54 1.267 . S
O53 C52 1.228 . S
O54 Zn41 1.969 . S
O54 C52 1.267 . S
O55 Zn41 1.965 . S
O55 C59 1.260 . S
O56 Zn40 1.969 . S
O56 C59 1.258 . S
O57 Zn41 2.024 . S
O57 C44 1.058 . S
C58 O47 1.260 . S
C58 O48 1.258 . S
C59 O55 1.260 . S
C59 O56 1.258 . S
C60 C61 1.386 . S
C60 C62 1.397 . S
C60 H84 0.931 . S
C61 C60 1.386 . S
C61 C65 1.397 1_545 S
C62 C60 1.397 . S
C62 C63 1.384 . S
C62 H85 0.930 . S
C63 C62 1.384 . S
C63 C64 1.377 1_545 S
C63 C66 1.481 . S
C64 C63 1.377 1_565 S
C64 C65 1.389 . S
C64 H86 0.929 . S
C65 C61 1.397 1_565 S
C65 C64 1.389 . S
C65 H87 0.931 . S
C66 C63 1.481 . S
C66 C67 1.387 . S
C66 C71 1.390 1_545 S
C67 C66 1.387 . S
C67 C68 1.401 . S
C67 H88 0.930 . S
C68 C67 1.401 . S
C68 C69 1.376 . S
C68 C77 1.511 . S
C69 C68 1.376 . S
C69 C70 1.392 1_545 S
C69 H90 0.931 . S
C70 C69 1.392 1_565 S
C70 C71 1.361 . S
C70 C72 1.500 . S
C71 C66 1.390 1_565 S
C71 C70 1.361 . S
C71 H89 0.931 . S
C72 C70 1.500 . S
C72 C73 1.371 . S
C72 C74 1.365 . S
C73 C72 1.371 . S
C73 C83 1.386 . S
C73 H91 0.931 . S
C74 C72 1.365 . S
C74 C75 1.409 . S
C74 H92 0.929 . S
C75 C74 1.409 . S
C75 C76 1.380 . S
C75 H93 0.930 . S
C76 C75 1.380 . S
C76 C83 1.357 . S
C77 C68 1.511 . S
C77 C78 1.341 . S
C77 C79 1.371 . S
C78 C77 1.341 . S
C78 C82 1.394 . S
C78 H94 0.930 . S
C79 C77 1.371 . S
C79 C80 1.392 . S
C79 H95 0.931 . S
C80 C79 1.392 . S
C80 C81 1.331 . S
C80 H98 0.932 . S
C81 C80 1.331 . S
C81 C82 1.336 . S
C82 C78 1.394 . S
C82 C81 1.336 . S
C82 H97 0.929 . S
C83 C73 1.386 . S
C83 C76 1.357 . S
C83 H96 0.928 . S
H84 C60 0.931 . S
H85 C62 0.930 . S
H86 C64 0.929 . S
H87 C65 0.931 . S
H88 C67 0.930 . S
H89 C71 0.931 . S
H90 C69 0.931 . S
H91 C73 0.931 . S
H92 C74 0.929 . S
H93 C75 0.930 . S
H94 C78 0.930 . S
H95 C79 0.931 . S
H96 C83 0.928 . S
H97 C82 0.929 . S
H98 C80 0.932 . S
C99 C100 1.386 . S
C99 C101 1.397 . S
C99 H123 0.931 . S
C100 C99 1.386 . S
C100 C104 1.397 . S
C101 C99 1.397 . S
C101 C102 1.384 . S
C101 H124 0.930 . S
C102 C101 1.384 . S
C102 C103 1.377 . S
C102 C105 1.481 . S
C103 C102 1.377 . S
C103 C104 1.389 . S
C103 H125 0.929 . S
C104 C100 1.397 . S
C104 C103 1.389 . S
C104 H126 0.931 . S
C105 C102 1.481 . S
C105 C106 1.387 . S
C105 C110 1.390 . S
C106 C105 1.387 . S
C106 C107 1.401 . S
C106 H127 0.930 . S
C107 C106 1.401 . S
C107 C108 1.376 . S
C107 C116 1.511 . S
C108 C107 1.376 . S
C108 C109 1.392 . S
C108 H129 0.931 . S
C109 C108 1.392 . S
C109 C110 1.361 . S
C109 C111 1.500 . S
C110 C105 1.390 . S
C110 C109 1.361 . S
C110 H128 0.931 . S
C111 C109 1.500 . S
C111 C112 1.371 . S
C111 C113 1.365 . S
C112 C111 1.371 . S
C112 C122 1.386 . S
C112 H130 0.931 . S
C113 C111 1.365 . S
C113 C114 1.409 . S
C113 H131 0.929 . S
C114 C113 1.409 . S
C114 C115 1.380 . S
C114 H132 0.930 . S
C115 C114 1.380 . S
C115 C122 1.357 . S
C116 C107 1.511 . S
C116 C117 1.341 . S
C116 C118 1.371 . S
C117 C116 1.341 . S
C117 C121 1.394 . S
C117 H133 0.930 . S
C118 C116 1.371 . S
C118 C119 1.392 . S
C118 H134 0.931 . S
C119 C118 1.392 . S
C119 C120 1.331 . S
C119 H137 0.932 . S
C120 C119 1.331 . S
C120 C121 1.336 . S
C121 C117 1.394 . S
C121 C120 1.336 . S
C121 H136 0.929 . S
C122 C112 1.386 . S
C122 C115 1.357 . S
C122 H135 0.928 . S
H123 C99 0.931 . S
H124 C101 0.930 . S
H125 C103 0.929 . S
H126 C104 0.931 . S
H127 C106 0.930 . S
H128 C110 0.931 . S
H129 C108 0.931 . S
H130 C112 0.931 . S
H131 C113 0.929 . S
H132 C114 0.930 . S
H133 C117 0.930 . S
H134 C118 0.931 . S
H135 C122 0.928 . S
H136 C121 0.929 . S
H137 C119 0.932 . S
C138 C139 1.386 . S
C138 C140 1.397 1_554 S
C138 H162 0.930 . S
C139 C138 1.386 . S
C139 C143 1.397 1_454 S
C140 C138 1.397 1_556 S
C140 C141 1.384 . S
C140 H163 0.930 . S
C141 C140 1.384 . S
C141 C142 1.377 1_455 S
C141 C144 1.481 . S
C142 C141 1.377 1_655 S
C142 C143 1.389 . S
C142 H164 0.929 . S
C143 C139 1.397 1_656 S
C143 C142 1.389 . S
C143 H165 0.931 1_556 S
C144 C141 1.481 . S
C144 C145 1.387 . S
C144 C149 1.390 1_455 S
C145 C144 1.387 . S
C145 C146 1.401 . S
C145 H166 0.930 . S
C146 C145 1.401 . S
C146 C147 1.376 . S
C146 C155 1.511 . S
C147 C146 1.376 . S
C147 C148 1.392 1_455 S
C147 H168 0.931 . S
C148 C147 1.392 1_655 S
C148 C149 1.361 . S
C148 C150 1.500 . S
C149 C144 1.390 1_655 S
C149 C148 1.361 . S
C149 H167 0.931 . S
C150 C148 1.500 . S
C150 C151 1.371 . S
C150 C152 1.365 . S
C151 C150 1.371 . S
C151 C161 1.386 . S
C151 H169 0.931 . S
C152 C150 1.365 . S
C152 C153 1.409 . S
C152 H170 0.929 . S
C153 C152 1.409 . S
C153 C154 1.380 . S
C153 H171 0.930 . S
C154 C153 1.380 . S
C154 C161 1.357 . S
C155 C146 1.511 . S
C155 C156 1.341 . S
C155 C157 1.371 . S
C156 C155 1.341 . S
C156 C160 1.394 . S
C156 H172 0.930 . S
C157 C155 1.371 . S
C157 C158 1.392 . S
C157 H173 0.931 . S
C158 C157 1.392 . S
C158 C159 1.331 . S
C158 H176 0.932 . S
C159 C158 1.331 . S
C159 C160 1.336 . S
C160 C156 1.394 . S
C160 C159 1.336 . S
C160 H175 0.929 . S
C161 C151 1.386 . S
C161 C154 1.357 . S
C161 H174 0.928 . S
H162 C138 0.930 . S
H163 C140 0.930 . S
H164 C142 0.929 . S
H165 C143 0.931 1_554 S
H166 C145 0.930 . S
H167 C149 0.931 . S
H168 C147 0.931 . S
H169 C151 0.931 . S
H170 C152 0.929 . S
H171 C153 0.930 . S
H172 C156 0.930 . S
H173 C157 0.931 . S
H174 C161 0.928 . S
H175 C160 0.929 . S
H176 C158 0.932 . S
C177 C178 1.386 1_655 S
C177 C179 1.397 . S
C177 H201 0.931 . S
C178 C177 1.386 1_455 S
C178 C182 1.397 . S
C179 C177 1.397 . S
C179 C180 1.384 1_655 S
C179 H202 0.930 . S
C180 C179 1.384 1_455 S
C180 C181 1.377 . S
C180 C183 1.481 . S
C181 C180 1.377 . S
C181 C182 1.389 . S
C181 H203 0.929 . S
C182 C178 1.397 . S
C182 C181 1.389 . S
C182 H204 0.931 . S
C183 C180 1.481 . S
C183 C184 1.387 1_455 S
C183 C188 1.390 . S
C184 C183 1.387 1_655 S
C184 C185 1.401 . S
C184 H205 0.930 . S
C185 C184 1.401 . S
C185 C186 1.376 1_655 S
C185 C194 1.511 . S
C186 C185 1.376 1_455 S
C186 C187 1.392 . S
C186 H207 0.931 . S
C187 C186 1.392 . S
C187 C188 1.361 . S
C187 C189 1.500 . S
C188 C183 1.390 . S
C188 C187 1.361 . S
C188 H206 0.931 . S
C189 C187 1.500 . S
C189 C190 1.371 . S
C189 C191 1.365 . S
C190 C189 1.371 . S
C190 C200 1.386 . S
C190 H208 0.931 . S
C191 C189 1.365 . S
C191 C192 1.409 . S
C191 H209 0.929 . S
C192 C191 1.409 . S
C192 C193 1.380 . S
C192 H210 0.930 . S
C193 C192 1.380 . S
C193 C200 1.357 . S
C194 C185 1.511 . S
C194 C195 1.341 . S
C194 C196 1.371 . S
C195 C194 1.341 . S
C195 C199 1.394 . S
C195 H211 0.930 . S
C196 C194 1.371 . S
C196 C197 1.392 . S
C196 H212 0.931 . S
C197 C196 1.392 . S
C197 C198 1.331 . S
C197 H215 0.932 . S
C198 C197 1.331 . S
C198 C199 1.336 . S
C199 C195 1.394 . S
C199 C198 1.336 . S
C199 H214 0.929 . S
C200 C190 1.386 . S
C200 C193 1.357 . S
C200 H213 0.928 . S
H201 C177 0.931 . S
H202 C179 0.930 . S
H203 C181 0.929 . S
H204 C182 0.931 . S
H205 C184 0.930 . S
H206 C188 0.931 . S
H207 C186 0.931 . S
H208 C190 0.931 . S
H209 C191 0.929 . S
H210 C192 0.930 . S
H211 C195 0.930 . S
H212 C196 0.931 . S
H213 C200 0.928 . S
H214 C199 0.929 . S
H215 C197 0.932 . S
C216 C217 1.386 1_565 S
C216 C218 1.397 . S
C216 H240 0.931 . S
C217 C216 1.386 1_545 S
C217 C221 1.397 . S
C218 C216 1.397 . S
C218 C219 1.384 1_565 S
C218 H241 0.930 . S
C219 C218 1.384 1_545 S
C219 C220 1.377 . S
C219 C222 1.481 . S
C220 C219 1.377 . S
C220 C221 1.389 . S
C220 H242 0.929 . S
C221 C217 1.397 . S
C221 C220 1.389 . S
C221 H243 0.931 . S
C222 C219 1.481 . S
C222 C223 1.387 1_545 S
C222 C227 1.390 . S
C223 C222 1.387 1_565 S
C223 C224 1.401 . S
C223 H244 0.930 . S
C224 C223 1.401 . S
C224 C225 1.376 1_565 S
C224 C233 1.511 . S
C225 C224 1.376 1_545 S
C225 C226 1.392 . S
C225 H246 0.931 . S
C226 C225 1.392 . S
C226 C227 1.361 . S
C226 C228 1.500 . S
C227 C222 1.390 . S
C227 C226 1.361 . S
C227 H245 0.931 . S
C228 C226 1.500 . S
C228 C229 1.371 . S
C228 C230 1.365 . S
C229 C228 1.371 . S
C229 C239 1.386 . S
C229 H247 0.931 . S
C230 C228 1.365 . S
C230 C231 1.409 . S
C230 H248 0.929 . S
C231 C230 1.409 . S
C231 C232 1.380 . S
C231 H249 0.930 . S
C232 C231 1.380 . S
C232 C239 1.357 . S
C233 C224 1.511 . S
C233 C234 1.341 . S
C233 C235 1.371 . S
C234 C233 1.341 . S
C234 C238 1.394 . S
C234 H250 0.930 . S
C235 C233 1.371 . S
C235 C236 1.392 . S
C235 H251 0.931 . S
C236 C235 1.392 . S
C236 C237 1.331 . S
C236 H254 0.932 . S
C237 C236 1.331 . S
C237 C238 1.336 . S
C238 C234 1.394 . S
C238 C237 1.336 . S
C238 H253 0.929 . S
C239 C229 1.386 . S
C239 C232 1.357 . S
C239 H252 0.928 . S
H240 C216 0.931 . S
H241 C218 0.930 . S
H242 C220 0.929 . S
H243 C221 0.931 . S
H244 C223 0.930 . S
H245 C227 0.931 . S
H246 C225 0.931 . S
H247 C229 0.931 . S
H248 C230 0.929 . S
H249 C231 0.930 . S
H250 C234 0.930 . S
H251 C235 0.931 . S
H252 C239 0.928 . S
H253 C238 0.929 . S
H254 C236 0.932 . S
C255 C256 1.386 1_554 S
C255 C257 1.397 . S
C255 H279 0.931 1_554 S
C256 C255 1.386 1_556 S
C256 C260 1.397 1_556 S
C257 C255 1.397 . S
C257 C258 1.384 . S
C257 H280 0.930 . S
C258 C257 1.384 . S
C258 C259 1.377 . S
C258 C261 1.481 . S
C259 C258 1.377 . S
C259 C260 1.389 . S
C259 H281 0.929 . S
C260 C256 1.397 1_554 S
C260 C259 1.389 . S
C260 H282 0.931 1_554 S
C261 C258 1.481 . S
C261 C262 1.387 . S
C261 C266 1.390 . S
C262 C261 1.387 . S
C262 C263 1.401 . S
C262 H283 0.930 . S
C263 C262 1.401 . S
C263 C264 1.376 . S
C263 C272 1.511 . S
C264 C263 1.376 . S
C264 C265 1.392 . S
C264 H285 0.931 . S
C265 C264 1.392 . S
C265 C266 1.361 . S
C265 C267 1.500 . S
C266 C261 1.390 . S
C266 C265 1.361 . S
C266 H284 0.931 . S
C267 C265 1.500 . S
C267 C268 1.371 . S
C267 C269 1.365 . S
C268 C267 1.371 . S
C268 C278 1.386 . S
C268 H286 0.931 . S
C269 C267 1.365 . S
C269 C270 1.409 . S
C269 H287 0.929 . S
C270 C269 1.409 . S
C270 C271 1.380 . S
C270 H288 0.930 . S
C271 C270 1.380 . S
C271 C278 1.357 . S
C272 C263 1.511 . S
C272 C273 1.341 . S
C272 C274 1.371 . S
C273 C272 1.341 . S
C273 C277 1.394 . S
C273 H289 0.930 . S
C274 C272 1.371 . S
C274 C275 1.392 . S
C274 H290 0.931 . S
C275 C274 1.392 . S
C275 C276 1.331 . S
C275 H293 0.932 . S
C276 C275 1.331 . S
C276 C277 1.336 . S
C277 C273 1.394 . S
C277 C276 1.336 . S
C277 H292 0.929 . S
C278 C268 1.386 . S
C278 C271 1.357 . S
C278 H291 0.928 . S
H279 C255 0.931 1_556 S
H280 C257 0.930 . S
H281 C259 0.929 . S
H282 C260 0.931 1_556 S
H283 C262 0.930 . S
H284 C266 0.931 . S
H285 C264 0.931 . S
H286 C268 0.931 . S
H287 C269 0.929 . S
H288 C270 0.930 . S
H289 C273 0.930 . S
H290 C274 0.931 . S
H291 C278 0.928 . S
H292 C277 0.929 . S
H293 C275 0.932 . S
C294 C295 1.387 . S
C294 H298 0.950 . S
C294 C303 1.390 . S
C295 C294 1.387 . S
C295 C297 1.387 . S
H296 C303 0.950 . S
C297 C295 1.387 . S
C297 C299 1.390 . S
C297 H301 0.950 . S
H298 C294 0.950 . S
C299 C297 1.390 . S
C299 C300 1.387 . S
C299 H302 0.950 . S
C300 C299 1.387 . S
C300 C303 1.387 . S
H301 C297 0.950 . S
H302 C299 0.950 . S
C303 C294 1.390 . S
C303 H296 0.950 . S
C303 C300 1.387 . S
C304 C305 1.387 . S
C304 H308 0.950 . S
C304 C313 1.390 . S
C305 C304 1.387 . S
C305 C307 1.387 . S
H306 C313 0.950 . S
C307 C305 1.387 . S
C307 C309 1.390 . S
C307 H311 0.950 . S
H308 C304 0.950 . S
C309 C307 1.390 . S
C309 C310 1.387 . S
C309 H312 0.950 . S
C310 C309 1.387 . S
C310 C313 1.387 . S
H311 C307 0.950 . S
H312 C309 0.950 . S
C313 C304 1.390 . S
C313 H306 0.950 . S
C313 C310 1.387 . S
C314 C315 1.387 . S
C314 H318 0.950 . S
C314 C323 1.390 . S
C315 C314 1.387 . S
C315 C317 1.387 . S
H316 C323 0.950 . S
C317 C315 1.387 . S
C317 C319 1.390 . S
C317 H321 0.950 . S
H318 C314 0.950 . S
C319 C317 1.390 . S
C319 C320 1.387 . S
C319 H322 0.950 . S
C320 C319 1.387 . S
C320 C323 1.387 . S
H321 C317 0.950 . S
H322 C319 0.950 . S
C323 C314 1.390 . S
C323 H316 0.950 . S
C323 C320 1.387 . S
C324 C325 1.387 . S
C324 H328 0.950 . S
C324 C333 1.390 . S
C325 C324 1.387 . S
C325 C327 1.387 . S
H326 C333 0.950 . S
C327 C325 1.387 . S
C327 C329 1.390 . S
C327 H331 0.950 . S
H328 C324 0.950 . S
C329 C327 1.390 . S
C329 C330 1.387 . S
C329 H332 0.950 . S
C330 C329 1.387 . S
C330 C333 1.387 . S
H331 C327 0.950 . S
H332 C329 0.950 . S
C333 C324 1.390 . S
C333 H326 0.950 . S
C333 C330 1.387 . S
C334 C335 1.387 . S
C334 H338 0.950 . S
C334 C343 1.390 . S
C335 C334 1.387 . S
C335 C337 1.387 . S
H336 C343 0.950 . S
C337 C335 1.387 . S
C337 C339 1.390 . S
C337 H341 0.950 . S
H338 C334 0.950 . S
C339 C337 1.390 . S
C339 C340 1.387 . S
C339 H342 0.950 . S
C340 C339 1.387 . S
C340 C343 1.387 . S
H341 C337 0.950 . S
H342 C339 0.950 . S
C343 C334 1.390 . S
C343 H336 0.950 . S
C343 C340 1.387 . S
C344 C345 1.387 . S
C344 H348 0.950 . S
C344 C353 1.390 . S
C345 C344 1.387 . S
C345 C347 1.387 . S
H346 C353 0.950 . S
C347 C345 1.387 . S
C347 C349 1.390 . S
C347 H351 0.950 . S
H348 C344 0.950 . S
C349 C347 1.390 . S
C349 C350 1.387 . S
C349 H352 0.950 . S
C350 C349 1.387 . S
C350 C353 1.387 . S
H351 C347 0.950 . S
H352 C349 0.950 . S
C353 C344 1.390 . S
C353 H346 0.950 . S
C353 C350 1.387 . S
C354 C355 1.387 . S
C354 H358 0.950 . S
C354 C363 1.390 . S
C355 C354 1.387 . S
C355 C357 1.387 . S
H356 C363 0.950 . S
C357 C355 1.387 . S
C357 C359 1.390 . S
C357 H361 0.950 . S
H358 C354 0.950 . S
C359 C357 1.390 . S
C359 C360 1.387 . S
C359 H362 0.950 . S
C360 C359 1.387 . S
C360 C363 1.387 . S
H361 C357 0.950 . S
H362 C359 0.950 . S
C363 C354 1.390 . S
C363 H356 0.950 . S
C363 C360 1.387 . S
C364 C365 1.387 . S
C364 H368 0.950 . S
C364 C373 1.390 . S
C365 C364 1.387 . S
C365 C367 1.387 . S
H366 C373 0.950 . S
C367 C365 1.387 . S
C367 C369 1.390 . S
C367 H371 0.950 . S
H368 C364 0.950 . S
C369 C367 1.390 . S
C369 C370 1.387 . S
C369 H372 0.950 . S
C370 C369 1.387 . S
C370 C373 1.387 . S
H371 C367 0.950 . S
H372 C369 0.950 . S
C373 C364 1.390 . S
C373 H366 0.950 . S
C373 C370 1.387 . S
C374 C375 1.387 . S
C374 H378 0.950 . S
C374 C383 1.390 . S
C375 C374 1.387 . S
C375 C377 1.387 . S
H376 C383 0.950 . S
C377 C375 1.387 . S
C377 C379 1.390 . S
C377 H381 0.950 . S
H378 C374 0.950 . S
C379 C377 1.390 . S
C379 C380 1.387 . S
C379 H382 0.950 . S
C380 C379 1.387 . S
C380 C383 1.387 . S
H381 C377 0.950 . S
H382 C379 0.950 . S
C383 C374 1.390 . S
C383 H376 0.950 . S
C383 C380 1.387 . S
C384 C385 1.387 . S
C384 H388 0.950 . S
C384 C393 1.390 . S
C385 C384 1.387 . S
C385 C387 1.387 . S
H386 C393 0.950 . S
C387 C385 1.387 . S
C387 C389 1.390 . S
C387 H391 0.950 . S
H388 C384 0.950 . S
C389 C387 1.390 . S
C389 C390 1.387 . S
C389 H392 0.950 . S
C390 C389 1.387 . S
C390 C393 1.387 . S
H391 C387 0.950 . S
H392 C389 0.950 . S
C393 C384 1.390 . S
C393 H386 0.950 . S
C393 C390 1.387 . S
C394 C395 1.387 . S
C394 H398 0.950 . S
C394 C403 1.390 . S
C395 C394 1.387 . S
C395 C397 1.387 . S
H396 C403 0.950 . S
C397 C395 1.387 . S
C397 C399 1.390 . S
C397 H401 0.950 . S
H398 C394 0.950 . S
C399 C397 1.390 . S
C399 C400 1.387 . S
C399 H402 0.950 . S
C400 C399 1.387 . S
C400 C403 1.387 . S
H401 C397 0.950 . S
H402 C399 0.950 . S
C403 C394 1.390 . S
C403 H396 0.950 . S
C403 C400 1.387 . S
C404 C405 1.387 . S
C404 H408 0.950 . S
C404 C413 1.390 . S
C405 C404 1.387 . S
C405 C407 1.387 . S
H406 C413 0.950 . S
C407 C405 1.387 . S
C407 C409 1.390 . S
C407 H411 0.950 . S
H408 C404 0.950 . S
C409 C407 1.390 . S
C409 C410 1.387 . S
C409 H412 0.950 . S
C410 C409 1.387 . S
C410 C413 1.387 . S
H411 C407 0.950 . S
H412 C409 0.950 . S
C413 C404 1.390 . S
C413 H406 0.950 . S
C413 C410 1.387 . S
C414 C415 1.387 1_655 S
C414 H418 0.950 . S
C414 C423 1.390 . S
C415 C414 1.387 1_455 S
C415 C417 1.387 . S
H416 C423 0.950 . S
C417 C415 1.387 . S
C417 C419 1.390 . S
C417 H421 0.950 . S
H418 C414 0.950 . S
C419 C417 1.390 . S
C419 C420 1.387 . S
C419 H422 0.950 . S
C420 C419 1.387 . S
C420 C423 1.387 1_455 S
H421 C417 0.950 . S
H422 C419 0.950 . S
C423 C414 1.390 . S
C423 H416 0.950 . S
C423 C420 1.387 1_655 S
C424 C425 1.387 1_565 S
C424 H428 0.950 . S
C424 C433 1.390 . S
C425 C424 1.387 1_545 S
C425 C427 1.387 . S
H426 C433 0.950 . S
C427 C425 1.387 . S
C427 C429 1.390 . S
C427 H431 0.950 . S
H428 C424 0.950 . S
C429 C427 1.390 . S
C429 C430 1.387 . S
C429 H432 0.950 . S
C430 C429 1.387 . S
C430 C433 1.387 1_545 S
H431 C427 0.950 . S
H432 C429 0.950 . S
C433 C424 1.390 . S
C433 H426 0.950 . S
C433 C430 1.387 1_565 S
C434 C435 1.387 . S
C434 H438 0.950 . S
C434 C443 1.390 . S
C435 C434 1.387 . S
C435 C437 1.387 . S
H436 C443 0.950 . S
C437 C435 1.387 . S
C437 C439 1.390 . S
C437 H441 0.950 . S
H438 C434 0.950 . S
C439 C437 1.390 . S
C439 C440 1.387 . S
C439 H442 0.950 . S
C440 C439 1.387 . S
C440 C443 1.387 . S
H441 C437 0.950 . S
H442 C439 0.950 . S
C443 C434 1.390 . S
C443 H436 0.950 . S
C443 C440 1.387 . S
C444 C445 1.387 . S
C444 H448 0.950 . S
C444 C453 1.390 . S
C445 C444 1.387 . S
C445 C447 1.387 1_545 S
H446 C453 0.950 . S
C447 C445 1.387 1_565 S
C447 C449 1.390 . S
C447 H451 0.950 . S
H448 C444 0.950 . S
C449 C447 1.390 . S
C449 C450 1.387 1_565 S
C449 H452 0.950 . S
C450 C449 1.387 1_545 S
C450 C453 1.387 . S
H451 C447 0.950 . S
H452 C449 0.950 . S
C453 C444 1.390 . S
C453 H446 0.950 . S
C453 C450 1.387 . S
C454 C455 1.387 . S
C454 H458 0.950 . S
C454 C463 1.390 . S
C455 C454 1.387 . S
C455 C457 1.387 . S
H456 C463 0.950 . S
C457 C455 1.387 . S
C457 C459 1.390 . S
C457 H461 0.950 . S
H458 C454 0.950 . S
C459 C457 1.390 . S
C459 C460 1.387 . S
C459 H462 0.950 . S
C460 C459 1.387 . S
C460 C463 1.387 . S
H461 C457 0.950 . S
H462 C459 0.950 . S
C463 C454 1.390 . S
C463 H456 0.950 . S
C463 C460 1.387 . S
C464 C465 1.387 . S
C464 H468 0.950 . S
C464 C473 1.390 . S
C465 C464 1.387 . S
C465 C467 1.387 1_655 S
H466 C473 0.950 . S
C467 C465 1.387 1_455 S
C467 C469 1.390 . S
C467 H471 0.950 . S
H468 C464 0.950 . S
C469 C467 1.390 . S
C469 C470 1.388 . S
C469 H472 0.950 . S
C470 C469 1.388 . S
C470 C473 1.387 1_455 S
H471 C467 0.950 . S
H472 C469 0.950 . S
C473 C464 1.390 . S
C473 H466 0.950 . S
C473 C470 1.387 1_655 S
C295 C2 1.461 . S
C300 C271 1.529 . S
C305 C22 1.444 . S
C310 C198 1.526 . S
C315 C44 1.508 . S
C320 C237 1.564 . S
C325 C4 1.637 . S
C330 C276 1.690 . S
C340 C193 1.700 . S
C335 C24 1.671 . S
C350 C232 1.646 . S
C345 C42 1.580 . S
C355 C32 1.442 . S
C360 C120 1.410 . S
C365 C49 1.390 . S
C370 C154 1.371 . S
C375 C9 1.362 . S
C380 C76 1.349 . S
C390 C115 1.362 . S
C385 C29 1.317 . S
C400 C159 1.389 . S
C395 C52 1.349 . S
C405 C12 1.354 . S
C410 C81 1.383 . S
C420 C139 1.447 . S
C415 C18 1.440 1_455 S
C425 C38 1.431 . S
C430 C61 1.446 . S
C435 C58 1.425 . S
C440 C100 1.448 . S
C450 C217 1.511 . S
C445 C39 1.494 . S
C460 C256 1.502 . S
C455 C59 1.481 . S
C465 C19 1.478 1_655 S
C470 C178 1.503 . S
