# Generated by pormake.
# Topology zzz, (3,6)-cn, num edge types: 1
# Building blocks:
#     Node 0, Type 0, BuildingBlock: PAMTOO_clean_linker_0, # of connection points: 3
#     Node 1, Type 0, BuildingBlock: PAMTOO_clean_linker_0, # of connection points: 3
#     Node 2, Type 0, BuildingBlock: PAMTOO_clean_linker_0, # of connection points: 3
#     Node 3, Type 0, BuildingBlock: PAMTOO_clean_linker_0, # of connection points: 3
#     Node 4, Type 0, BuildingBlock: PAMTOO_clean_linker_0, # of connection points: 3
#     Node 5, Type 0, BuildingBlock: PAMTOO_clean_linker_0, # of connection points: 3
#     Node 6, Type 0, BuildingBlock: PAMTOO_clean_linker_0, # of connection points: 3
#     Node 7, Type 0, BuildingBlock: PAMTOO_clean_linker_0, # of connection points: 3
#     Node 8, Type 1, BuildingBlock: KUMJIN_clean_sbu_0, # of connection points: 6
#     Node 9, Type 1, BuildingBlock: KUMJIN_clean_sbu_0, # of connection points: 6
#     Node 10, Type 1, BuildingBlock: KUMJIN_clean_sbu_0, # of connection points: 6
#     Node 11, Type 1, BuildingBlock: KUMJIN_clean_sbu_0, # of connection points: 6
#     Edge 12, Type (0, 1), BuildingBlock: EZIPEK_clean_linker_0, # of connection points: 2
#     Edge 13, Type (0, 1), BuildingBlock: EZIPEK_clean_linker_0, # of connection points: 2
#     Edge 14, Type (0, 1), BuildingBlock: EZIPEK_clean_linker_0, # of connection points: 2
#     Edge 15, Type (0, 1), BuildingBlock: EZIPEK_clean_linker_0, # of connection points: 2
#     Edge 16, Type (0, 1), BuildingBlock: EZIPEK_clean_linker_0, # of connection points: 2
#     Edge 17, Type (0, 1), BuildingBlock: EZIPEK_clean_linker_0, # of connection points: 2
#     Edge 18, Type (0, 1), BuildingBlock: EZIPEK_clean_linker_0, # of connection points: 2
#     Edge 19, Type (0, 1), BuildingBlock: EZIPEK_clean_linker_0, # of connection points: 2
#     Edge 20, Type (0, 1), BuildingBlock: EZIPEK_clean_linker_0, # of connection points: 2
#     Edge 21, Type (0, 1), BuildingBlock: EZIPEK_clean_linker_0, # of connection points: 2
#     Edge 22, Type (0, 1), BuildingBlock: EZIPEK_clean_linker_0, # of connection points: 2
#     Edge 23, Type (0, 1), BuildingBlock: EZIPEK_clean_linker_0, # of connection points: 2
#     Edge 24, Type (0, 1), BuildingBlock: EZIPEK_clean_linker_0, # of connection points: 2
#     Edge 25, Type (0, 1), BuildingBlock: EZIPEK_clean_linker_0, # of connection points: 2
#     Edge 26, Type (0, 1), BuildingBlock: EZIPEK_clean_linker_0, # of connection points: 2
#     Edge 27, Type (0, 1), BuildingBlock: EZIPEK_clean_linker_0, # of connection points: 2
#     Edge 28, Type (0, 1), BuildingBlock: EZIPEK_clean_linker_0, # of connection points: 2
#     Edge 29, Type (0, 1), BuildingBlock: EZIPEK_clean_linker_0, # of connection points: 2
#     Edge 30, Type (0, 1), BuildingBlock: EZIPEK_clean_linker_0, # of connection points: 2
#     Edge 31, Type (0, 1), BuildingBlock: EZIPEK_clean_linker_0, # of connection points: 2
#     Edge 32, Type (0, 1), BuildingBlock: EZIPEK_clean_linker_0, # of connection points: 2
#     Edge 33, Type (0, 1), BuildingBlock: EZIPEK_clean_linker_0, # of connection points: 2
#     Edge 34, Type (0, 1), BuildingBlock: EZIPEK_clean_linker_0, # of connection points: 2
#     Edge 35, Type (0, 1), BuildingBlock: EZIPEK_clean_linker_0, # of connection points: 2
# Relax obj value: 0.231
# Max RMSD: 0.184
# Mean RMSD: 0.118
data_MOF--net-zzz--node1-KUMJIN_clean_sbu_0--node2-PAMTOO_clean_linker_0--edge1-EZIPEK_clean_linker_0
_symmetry_space_group_name_H-M    P1
_symmetry_Int_Tables_number       1
_symmetry_cell_setting            triclinic
loop_
_symmetry_equiv_pos_as_xyz
'x, y, z'
_cell_length_a     37.340186
_cell_length_b     37.338638
_cell_length_c     11.164358
_cell_angle_alpha  90.921514
_cell_angle_beta   90.237701
_cell_angle_gamma 90.098035
loop_
_atom_site_label
_atom_site_type_symbol
_atom_site_fract_x
_atom_site_fract_y
_atom_site_fract_z
_atom_type_partial_charge
H0 H 0.84536 0.59348 0.32 0.0
H1 H 0.75392 0.58197 0.08727 0.0
H2 H 0.75531 0.53074 0.42885 0.0
H3 H 0.69706 0.59386 0.14073 0.0
C4 C 0.68561 0.57312 0.19962 0.0
O5 O 0.71285 0.54839 0.23073 0.0
H6 H 0.67993 0.58921 0.28019 0.0
C7 C 0.81851 0.58373 0.30239 0.0
C8 C 0.80374 0.56133 0.38811 0.0
C9 C 0.80231 0.58884 0.18931 0.0
C10 C 0.76684 0.57741 0.17211 0.0
C11 C 0.74783 0.55891 0.25946 0.0
C12 C 0.76735 0.54897 0.36683 0.0
H13 H 0.93722 0.84294 0.32612 0.0
H14 H 0.94654 0.74278 0.13819 0.0
H15 H 0.02141 0.77075 0.42079 0.0
H16 H 0.04185 0.69551 0.18954 0.0
C17 C 0.01424 0.70204 0.15981 0.0
O18 O 0.99603 0.71593 0.26218 0.0
H19 H 0.01892 0.72363 0.0946 0.0
C20 C 0.95126 0.81816 0.31098 0.0
C21 C 0.9811 0.81243 0.38433 0.0
C22 C 0.94324 0.79625 0.20836 0.0
C23 C 0.95632 0.76147 0.20545 0.0
C24 C 0.98444 0.75114 0.27885 0.0
C25 C 0.9984 0.77752 0.36652 0.0
H26 H 0.6902 0.98053 0.31599 0.0
H27 H 0.79818 0.98237 0.18319 0.0
H28 H 0.77059 0.04118 0.50374 0.0
H29 H 0.86838 0.05477 0.35215 0.0
C30 C 0.85129 0.04054 0.28511 0.0
O31 O 0.82519 0.02115 0.35039 0.0
H32 H 0.8383 0.06278 0.2368 0.0
C33 C 0.71753 0.98981 0.32138 0.0
C34 C 0.72603 1.01128 0.42136 0.0
C35 C 0.74219 0.98226 0.22733 0.0
C36 C 0.77804 0.99216 0.24426 0.0
C37 C 0.78875 0.01524 0.33698 0.0
C38 C 0.76247 0.02473 0.42768 0.0
H39 H 0.56534 0.69588 0.27238 0.0
H40 H 0.58578 0.80424 0.17336 0.0
H41 H 0.53076 0.78228 0.50264 0.0
H42 H 0.49746 0.84818 0.29145 0.0
C43 C 0.52475 0.85066 0.25374 0.0
O44 O 0.54832 0.83482 0.33687 0.0
H45 H 0.52352 0.83398 0.17037 0.0
C46 C 0.56425 0.72434 0.29259 0.0
C47 C 0.5506 0.73502 0.40433 0.0
C48 C 0.57495 0.74923 0.20542 0.0
C49 C 0.57435 0.7855 0.2344 0.0
C50 C 0.55572 0.79843 0.33403 0.0
C51 C 0.5442 0.77291 0.42241 0.0
H52 H 0.19732 0.51038 0.19974 0.0
H53 H 0.2966 0.47442 0.34232 0.0
H54 H 0.28311 0.48572 0.95934 0.0
H55 H 0.33761 0.51855 0.29679 0.0
C56 C 0.35389 0.50789 0.22214 0.0
O57 O 0.33339 0.48255 0.1537 0.0
H58 H 0.35618 0.53169 0.16601 0.0
C59 C 0.22377 0.49991 0.18431 0.0
C60 C 0.23356 0.49332 0.06564 0.0
C61 C 0.24595 0.49179 0.28232 0.0
C62 C 0.28034 0.48018 0.26451 0.0
C63 C 0.29605 0.48302 0.15266 0.0
C64 C 0.27212 0.4875 0.04872 0.0
H65 H 0.03617 0.18669 0.2048 0.0
H66 H 0.07464 0.28751 0.33318 0.0
H67 H 0.03024 0.27806 0.97454 0.0
H68 H 0.03515 0.32935 0.3515 0.0
C69 C 0.02995 0.34441 0.26889 0.0
O70 O 0.04797 0.32711 0.16997 0.0
H71 H 1.00089 0.34 0.2565 0.0
C72 C 0.04248 0.2144 0.18564 0.0
C73 C 0.03784 0.22676 0.06905 0.0
C74 C 0.05213 0.23761 0.28032 0.0
C75 C 0.06365 0.27208 0.25873 0.0
C76 C 0.05071 0.2895 0.15836 0.0
C77 C 0.03862 0.26615 0.05774 0.0
H78 H 0.34813 0.01964 0.15867 0.0
H79 H 0.2449 0.03331 0.31582 0.0
H80 H 0.26459 0.0734 0.96106 0.0
H81 H 0.19583 0.01602 0.14898 0.0
C82 C 0.18487 0.04368 0.15225 0.0
O83 O 0.21469 0.06714 0.14939 0.0
H84 H 0.16963 0.04656 0.06823 0.0
C85 C 0.32144 0.03104 0.15225 0.0
C86 C 0.31107 0.04816 0.04762 0.0
C87 C 0.29721 0.02454 0.24383 0.0
C88 C 0.26298 0.03868 0.24237 0.0
C89 C 0.25007 0.05607 0.14253 0.0
C90 C 0.27417 0.06059 0.04127 0.0
H91 H 0.54327 0.34692 0.13223 0.0
H92 H 0.53865 0.24482 0.29946 0.0
H93 H 0.45005 0.27999 0.07956 0.0
H94 H 0.43683 0.22115 0.34789 0.0
C95 C 0.46618 0.21682 0.34289 0.0
O96 O 0.47561 0.22638 0.22585 0.0
H97 H 0.47823 0.23596 0.40907 0.0
C98 C 0.52856 0.3223 0.14802 0.0
C99 C 0.49543 0.31718 0.09284 0.0
C100 C 0.54392 0.29633 0.22056 0.0
C101 C 0.5261 0.26451 0.2428 0.0
C102 C 0.49165 0.25843 0.1976 0.0
C103 C 0.47605 0.28486 0.11983 0.0
Eu104 Eu 0.04701 1.00766 0.81409 0.0
C105 C 0.92126 1.00296 0.44346 0.0
C106 C 0.97063 0.97259 0.21359 0.0
C107 C 0.88085 0.95051 0.22985 0.0
C108 C 0.96556 1.00033 0.36065 0.0
C109 C 0.87901 0.97814 0.38581 0.0
C110 C 0.92756 0.94841 0.14124 0.0
C111 C 0.86198 0.98741 0.59174 0.0
N112 N 0.9239 1.00978 0.56104 0.0
C113 C 0.89337 1.00663 0.62801 0.0
C114 C 0.85573 0.97131 0.47844 0.0
Eu115 Eu 0.9815 0.03625 0.61913 0.0
N116 N 0.9943 1.00387 0.43119 0.0
C117 C 0.02531 0.98779 0.39411 0.0
C118 C 1.0051 0.96311 0.19391 0.0
C119 C 0.03111 0.97028 0.28182 0.0
H120 H 0.89223 0.02014 0.71352 0.0
H121 H 0.05735 0.95897 0.26639 0.0
H122 H 0.93 0.93223 0.06061 0.0
H123 H 0.84097 0.98481 0.65759 0.0
H124 H 0.04664 0.98622 0.45596 0.0
H125 H 0.03341 0.08997 0.22528 0.0
H126 H 1.01076 0.94558 0.12102 0.0
H127 H 0.13079 0.98181 0.71179 0.0
H128 H 0.02154 0.03853 0.09424 0.0
H129 H 0.1905 1.00874 0.69069 0.0
H130 H 0.85802 0.93497 0.19932 0.0
H131 H 0.08493 0.12954 0.18493 0.0
H132 H 0.14052 0.14064 0.06586 0.0
H133 H 0.8322 0.95493 0.46272 0.0
H134 H 0.18363 0.1186 0.91622 0.0
N135 N 0.0612 0.05175 0.96497 0.0
C136 C 0.04192 0.05696 0.0678 0.0
C137 C 0.07878 0.10759 0.12356 0.0
C138 C 0.10136 0.09915 0.02767 0.0
C139 C 0.04957 0.08553 0.14612 0.0
C140 C 0.09213 0.0702 0.95048 0.0
H141 H 0.20316 0.06853 0.77943 0.0
N142 N 0.10869 0.02673 0.80709 0.0
C143 C 0.16983 0.02304 0.73932 0.0
C144 C 0.11649 0.05757 0.86736 0.0
C145 C 0.13598 1.00773 0.75278 0.0
C146 C 0.17674 0.05689 0.78858 0.0
C147 C 0.1504 0.07401 0.85724 0.0
O148 O 0.08502 0.96561 0.86272 0.0
O149 O 1.00202 0.98268 0.69072 0.0
O150 O 0.95037 0.02112 0.79529 0.0
O151 O 0.99521 1.01222 0.93276 0.0
O152 O 0.05145 0.9606 0.68438 0.0
O153 O 0.04021 0.97733 0.97504 0.0
O154 O 0.93305 0.06751 0.5935 0.0
O155 O 0.024 0.06056 0.74763 0.0
O156 O 0.07858 0.02594 0.64852 0.0
O157 O 0.03666 0.05009 0.52212 0.0
O158 O 0.97442 0.08171 0.75639 0.0
O159 O 0.97768 0.07402 0.47359 0.0
C160 C 0.01986 0.95629 0.64124 0.0
C161 C 0.06176 0.91749 0.96985 0.0
C162 C 0.02268 0.86552 0.98532 0.0
C163 C 0.02792 0.90142 0.95403 0.0
C164 C 0.05212 0.84496 0.02166 0.0
C165 C 0.09084 0.89664 0.00658 0.0
C166 C 0.08611 0.86038 0.03053 0.0
C167 C 0.96057 0.0166 0.90941 0.0
C168 C 0.06724 0.95619 0.95595 0.0
C169 C 0.15797 0.10529 0.9241 0.0
C170 C 0.13355 0.11767 0.00996 0.0
C171 C 1.00582 0.08553 0.8022 0.0
C172 C 0.93691 0.12079 0.49095 0.0
C173 C 0.95475 0.14453 0.56769 0.0
C174 C 0.96372 0.17802 0.52646 0.0
C175 C 0.94476 0.19132 0.42612 0.0
C176 C 0.91879 0.13319 0.39 0.0
C177 C 0.92127 0.1692 0.36128 0.0
C178 C 0.07095 0.04178 0.54683 0.0
C179 C 0.94481 0.0832 0.49896 0.0
H180 H 1.00518 0.91739 0.92644 0.0
H181 H 0.04849 0.81737 0.04781 0.0
H182 H 0.11711 0.90859 0.01877 0.0
H183 H 0.1086 0.84454 0.06028 0.0
H184 H 0.96673 0.13541 0.64924 0.0
H185 H 0.94966 0.2177 0.3918 0.0
H186 H 0.90457 0.11482 0.33048 0.0
H187 H 0.90783 0.1791 0.28239 0.0
Eu188 Eu 0.53691 0.0657 0.85517 0.0
C189 C 0.56787 0.93774 0.62587 0.0
C190 C 0.59146 0.95291 0.43173 0.0
C191 C 0.61337 0.90011 0.53061 0.0
C192 C 0.56993 0.9615 0.53155 0.0
C193 C 0.58939 0.90648 0.6247 0.0
C194 C 0.61389 0.92291 0.43315 0.0
C195 C 0.55576 0.88467 0.79118 0.0
N196 N 0.54208 0.94278 0.71037 0.0
C197 C 0.5339 0.91483 0.7848 0.0
C198 C 0.58429 0.88092 0.71282 0.0
Eu199 Eu 0.50619 0.99596 0.68638 0.0
N200 N 0.54817 0.99074 0.53036 0.0
C201 C 0.54569 1.01099 0.43045 0.0
C202 C 0.58813 0.97333 0.32953 0.0
C203 C 0.56625 1.00324 0.32978 0.0
H204 H 0.50972 0.91454 0.83739 0.0
H205 H 0.5642 0.01934 0.25069 0.0
H206 H 0.63104 0.91657 0.35774 0.0
H207 H 0.54967 0.86368 0.85371 0.0
H208 H 0.52635 0.0317 0.42476 0.0
H209 H 0.48343 0.04737 0.30469 0.0
H210 H 0.60056 0.96471 0.24771 0.0
H211 H 0.53973 0.14732 0.70995 0.0
H212 H 0.51901 0.03257 0.1284 0.0
H213 H 0.50448 0.20198 0.69963 0.0
H214 H 0.63006 0.87639 0.52884 0.0
H215 H 0.44615 0.1014 0.30866 0.0
H216 H 0.4247 0.15621 0.20803 0.0
H217 H 0.60045 0.85686 0.71517 0.0
H218 H 0.42741 0.19648 0.03706 0.0
N219 N 0.50033 0.07635 0.02558 0.0
C220 C 0.50288 0.0561 0.1262 0.0
C221 C 0.46273 0.09569 0.23165 0.0
C222 C 0.46172 0.11763 0.13184 0.0
C223 C 0.48372 0.06505 0.22941 0.0
C224 C 0.48141 0.10744 0.02904 0.0
H225 H 0.45648 0.21351 0.84623 0.0
N226 N 0.5073 0.12297 0.84527 0.0
C227 C 0.49768 0.18187 0.76451 0.0
C228 C 0.48363 0.13052 0.93386 0.0
C229 C 0.51691 0.14993 0.76872 0.0
C230 C 0.47069 0.18823 0.84723 0.0
C231 C 0.46475 0.1634 0.93713 0.0
O232 O 0.57098 0.11204 0.89351 0.0
O233 O 0.56106 0.02123 0.73569 0.0
O234 O 0.50577 0.97436 0.87538 0.0
O235 O 0.54779 1.01199 0.95791 0.0
O236 O 0.58085 0.07244 0.72098 0.0
O237 O 0.57452 0.06533 1.00445 0.0
O238 O 0.49077 0.94492 0.60802 0.0
O239 O 0.48162 0.04309 0.79371 0.0
O240 O 0.52865 0.08792 0.66866 0.0
O241 O 0.48937 0.04768 0.58466 0.0
O242 O 0.46348 0.99271 0.83223 0.0
O243 O 0.46222 0.99147 0.55354 0.0
C244 C 0.58506 0.04039 0.67984 0.0
C245 C 0.62782 0.09594 0.96059 0.0
C246 C 0.6816 0.06013 0.95701 0.0
C247 C 0.64544 0.06423 0.92753 0.0
C248 C 0.70172 0.09049 0.99154 0.0
C249 C 0.64776 0.12622 0.99447 0.0
C250 C 0.68493 0.12374 0.00558 0.0
C251 C 0.52911 0.98153 0.96063 0.0
C252 C 0.58897 0.09584 0.97568 0.0
C253 C 0.44246 0.1717 0.03413 0.0
C254 C 0.44124 0.14901 0.13195 0.0
C255 C 0.45669 0.0264 0.85241 0.0
C256 C 0.43063 0.93547 0.56074 0.0
C257 C 0.39918 0.94723 0.50642 0.0
C258 C 0.36688 0.92896 0.52435 0.0
C259 C 0.36613 0.89776 0.59178 0.0
C260 C 0.42982 0.90382 0.62803 0.0
C261 C 0.39774 0.88507 0.64268 0.0
C262 C 0.50448 0.08 0.58732 0.0
C263 C 0.46379 0.95662 0.54863 0.0
H264 H 0.62994 0.04074 0.90161 0.0
H265 H 0.72975 0.08806 0.01523 0.0
H266 H 0.63448 0.15118 0.01724 0.0
H267 H 0.70032 0.14693 0.03429 0.0
H268 H 0.39949 0.97139 0.45357 0.0
H269 H 0.34126 0.88337 0.60442 0.0
H270 H 0.4538 0.8936 0.67019 0.0
H271 H 0.39736 0.86083 0.69449 0.0
Eu272 Eu 0.55119 0.50336 0.64213 0.0
C273 C 0.40401 0.4997 0.77801 0.0
C274 C 0.37425 0.52545 0.60694 0.0
C275 C 0.34599 0.4768 0.71371 0.0
C276 C 0.40412 0.52331 0.68398 0.0
C277 C 0.37411 0.47739 0.79712 0.0
C278 C 0.34604 0.50082 0.61893 0.0
C279 C 0.39789 0.46453 0.99261 0.0
N280 N 0.43101 0.5018 0.85921 0.0
C281 C 0.42567 0.48866 0.97173 0.0
C282 C 0.37234 0.45814 0.90336 0.0
Eu283 Eu 0.48079 0.53835 0.8065 0.0
N284 N 0.43204 0.54631 0.6739 0.0
C285 C 0.42994 0.57447 0.59789 0.0
C286 C 0.37347 0.55277 0.52241 0.0
C287 C 0.40109 0.57779 0.51952 0.0
H288 H 0.44424 0.49527 0.04278 0.0
H289 H 0.39999 0.59988 0.45798 0.0
H290 H 0.32367 0.50044 0.55782 0.0
H291 H 0.39585 0.45141 0.07797 0.0
H292 H 0.4496 0.59534 0.60128 0.0
H293 H 0.59167 0.43435 0.06463 0.0
H294 H 0.35134 0.55584 0.4616 0.0
H295 H 0.60598 0.56534 0.51432 0.0
H296 H 0.55087 0.46739 0.941 0.0
H297 H 0.67062 0.57373 0.48211 0.0
H298 H 0.32321 0.45917 0.72507 0.0
H299 H 0.6553 0.42915 0.00729 0.0
H300 H 0.70422 0.44377 0.86874 0.0
H301 H 0.35008 0.44035 0.9208 0.0
H302 H 0.72586 0.4816 0.70666 0.0
N303 N 0.58825 0.47823 0.80093 0.0
C304 C 0.57743 0.46401 0.90802 0.0
C305 C 0.63662 0.44227 0.94884 0.0
C306 C 0.64859 0.45868 0.84554 0.0
C307 C 0.60102 0.44557 0.98169 0.0
C308 C 0.62377 0.47746 0.77421 0.0
H309 H 0.71368 0.53251 0.57226 0.0
N310 N 0.61233 0.52077 0.6286 0.0
C311 C 0.66101 0.55202 0.53599 0.0
C312 C 0.63613 0.49922 0.68449 0.0
C313 C 0.6244 0.54746 0.55645 0.0
C314 C 0.68538 0.52853 0.5863 0.0
C315 C 0.67323 0.50196 0.66234 0.0
O316 O 0.56741 0.50895 0.4551 0.0
O317 O 0.4935 0.52117 0.61738 0.0
O318 O 0.4794 0.47709 0.83553 0.0
O319 O 0.52884 0.45395 0.73938 0.0
O320 O 0.50563 0.47148 0.55017 0.0
O321 O 0.57774 0.4588 0.55007 0.0
O322 O 0.47091 0.55668 0.98894 0.0
O323 O 0.54238 0.54153 0.79732 0.0
O324 O 0.54793 0.56464 0.59112 0.0
O325 O 0.50307 0.58825 0.71168 0.0
O326 O 0.52073 0.52833 0.95727 0.0
O327 O 0.4491 0.58606 0.84136 0.0
C328 C 0.48008 0.49446 0.5589 0.0
C329 C 0.6007 0.463 0.34829 0.0
C330 C 0.62514 0.40503 0.28835 0.0
C331 C 0.59599 0.42648 0.32454 0.0
C332 C 0.65791 0.4217 0.26295 0.0
C333 C 0.63239 0.47963 0.31175 0.0
C334 C 0.6607 0.45904 0.26719 0.0
C335 C 0.50056 0.44965 0.80988 0.0
C336 C 0.58283 0.47759 0.45442 0.0
C337 C 0.69737 0.48022 0.72413 0.0
C338 C 0.68507 0.45874 0.81635 0.0
C339 C 0.55048 0.53737 0.90789 0.0
C340 C 0.466 0.61799 0.01008 0.0
C341 C 0.49909 0.632 0.97602 0.0
C342 C 0.51026 0.66485 0.02265 0.0
C343 C 0.48826 0.6833 0.10538 0.0
C344 C 0.44384 0.63662 0.08969 0.0
C345 C 0.45496 0.66944 0.13677 0.0
C346 C 0.52821 0.59258 0.62938 0.0
C347 C 0.45364 0.58501 0.9563 0.0
H348 H 0.57117 0.4139 0.35201 0.0
H349 H 0.68158 0.40606 0.24314 0.0
H350 H 0.63715 0.5076 0.33223 0.0
H351 H 0.68589 0.47178 0.24607 0.0
H352 H 0.51547 0.61799 0.91083 0.0
H353 H 0.49629 0.70913 0.14205 0.0
H354 H 0.41776 0.62616 0.11322 0.0
H355 H 0.4373 0.68453 0.19497 0.0
Eu356 Eu 0.03316 0.55605 0.62799 0.0
C357 C 0.02289 0.41329 0.72314 0.0
C358 C 0.97825 0.39052 0.58256 0.0
C359 C 0.02978 0.35405 0.63121 0.0
C360 C 0.99125 0.41835 0.65836 0.0
C361 C 0.04147 0.38035 0.71321 0.0
C362 C 0.99817 0.35914 0.56685 0.0
C363 C 0.07666 0.39779 0.88557 0.0
N364 N 0.0334 0.43861 0.80486 0.0
C365 C 0.05657 0.42917 0.89443 0.0
C366 C 0.06992 0.37376 0.79159 0.0
Eu367 Eu 0.99908 0.49221 0.80859 0.0
N368 N 0.97184 0.44892 0.67599 0.0
C369 C 0.93744 0.45042 0.63217 0.0
C370 C 0.9449 0.39427 0.52734 0.0
C371 C 0.92414 0.42406 0.55423 0.0
H372 H 0.05949 0.44582 0.9735 0.0
H373 H 0.89726 0.4262 0.51826 0.0
H374 H 0.98865 0.33821 0.50736 0.0
H375 H 0.09642 0.39163 0.95338 0.0
H376 H 0.91855 0.47034 0.66019 0.0
H377 H 0.11281 0.62054 0.98843 0.0
H378 H 0.9342 0.37349 0.46848 0.0
H379 H 0.96425 0.59396 0.46048 0.0
H380 H 0.08556 0.57056 0.88896 0.0
H381 H 0.93876 0.65242 0.42974 0.0
H382 H 0.04406 0.32896 0.62087 0.0
H383 H 0.09373 0.68215 0.94477 0.0
H384 H 0.05505 0.72277 0.8275 0.0
H385 H 0.0849 0.34897 0.78605 0.0
H386 H 1.0079 0.73106 0.67733 0.0
N387 N 0.05346 0.60117 0.76869 0.0
C388 C 0.07788 0.59632 0.85902 0.0
C389 C 0.08197 0.65977 0.89563 0.0
C390 C 0.05571 0.665 0.80854 0.0
C391 C 0.09274 0.62523 0.92132 0.0
C392 C 0.04111 0.63486 0.74697 0.0
H393 H 0.96302 0.70523 0.53721 0.0
N394 N 0.99916 0.61019 0.60581 0.0
C395 C 0.95926 0.64913 0.49751 0.0
C396 C 0.01349 0.63945 0.66382 0.0
C397 C 0.97325 0.61527 0.51965 0.0
C398 C 0.97329 0.67886 0.55725 0.0
C399 C 1.00108 0.67444 0.63951 0.0
O400 O 0.03592 0.56313 0.43468 0.0
O401 O 0.0137 0.49794 0.6126 0.0
O402 O 0.06143 0.49701 0.84699 0.0
O403 O 0.0864 0.53462 0.70941 0.0
O404 O 0.06389 0.50824 0.54562 0.0
O405 O 0.06648 0.59725 0.55359 0.0
O406 O 0.99763 0.48763 1.00474 0.0
O407 O 0.01896 0.54982 0.81952 0.0
O408 O 0.97184 0.54738 0.58236 0.0
O409 O 0.94675 0.51801 0.73995 0.0
O410 O 0.9684 0.54167 0.88076 0.0
O411 O 0.9677 0.45093 0.89278 0.0
C412 C 0.04033 0.48312 0.55702 0.0
C413 C 0.089 0.5888 0.3682 0.0
C414 C 0.14747 0.5644 0.34638 0.0
C415 C 0.11502 0.5651 0.40245 0.0
C416 C 0.155 0.58879 0.25508 0.0
C417 C 0.09618 0.61457 0.2816 0.0
C418 C 0.12957 0.61462 0.22557 0.0
C419 C 0.09076 0.51178 0.79919 0.0
C420 C 0.0581 0.5901 0.44334 0.0
C421 C 0.01686 0.7042 0.69679 0.0
C422 C 0.04381 0.6995 0.78181 0.0
C423 C 0.99256 0.566 0.86919 0.0
C424 C 0.93978 0.46867 0.0648 0.0
C425 C 0.92609 0.50337 0.07245 0.0
C426 C 0.8896 0.50907 0.08843 0.0
C427 C 0.86729 0.4796 0.11155 0.0
C428 C 0.9172 0.43945 0.0864 0.0
C429 C 0.88134 0.44506 0.11442 0.0
C430 C 0.94265 0.53633 0.64005 0.0
C431 C 0.97327 0.46255 1.00097 0.0
H432 H 0.11076 0.54829 0.47893 0.0
H433 H 0.18107 0.58923 0.21285 0.0
H434 H 0.07708 0.63535 0.26164 0.0
H435 H 0.13636 0.63552 0.16381 0.0
H436 H 0.94321 0.52584 0.0567 0.0
H437 H 0.83875 0.48325 0.12324 0.0
H438 H 0.92681 0.41227 0.07505 0.0
H439 H 0.86393 0.42246 0.13047 0.0
C440 C 0.14795 0.07703 0.32918 0.0
C441 C 0.15695 0.04565 0.25994 0.0
C442 C 0.11482 1.01232 0.39053 0.0
C443 C 0.10163 0.04381 0.4497 0.0
N444 N 0.12205 0.1019 0.51157 0.0
N445 N 0.13579 0.98596 0.20582 0.0
C446 C 0.1225 0.07525 0.42774 0.0
C447 C 0.13634 0.0143 0.28496 0.0
N448 N 0.16169 0.10938 0.29786 0.0
N449 N 0.11117 0.97996 0.44301 0.0
H450 H 0.14772 0.9863 0.12168 0.0
H451 H 0.11941 0.96366 0.2179 0.0
H452 H 0.10081 0.97774 0.52843 0.0
H453 H 0.1231 0.95666 0.40931 0.0
H454 H 0.15285 0.13353 0.33525 0.0
H455 H 0.17897 0.11264 0.22618 0.0
H456 H 0.14117 0.12225 0.51574 0.0
H457 H 0.10549 0.10063 0.58531 0.0
C458 C 0.5067 0.15765 0.35565 0.0
C459 C 0.47541 0.17781 0.3879 0.0
C460 C 0.45988 0.12895 0.53107 0.0
C461 C 0.49244 0.1107 0.50672 0.0
N462 N 0.54746 0.10871 0.39661 0.0
N463 N 0.42656 0.18509 0.52256 0.0
C464 C 0.51603 0.12572 0.42024 0.0
C465 C 0.45318 0.16355 0.47993 0.0
N466 N 0.52663 0.16701 0.25862 0.0
N467 N 0.43506 0.11315 0.60284 0.0
H468 H 0.41066 0.17955 0.59656 0.0
H469 H 0.41066 0.17955 0.59656 0.0
H470 H 0.43951 0.08888 0.64522 0.0
H471 H 0.40884 0.12217 0.61172 0.0
H472 H 0.54588 0.1505 0.21948 0.0
H473 H 0.52212 0.18925 0.20705 0.0
H474 H 0.56865 0.1201 0.35034 0.0
H475 H 0.55286 0.08336 0.42845 0.0
C476 C 0.42079 0.52076 0.28243 0.0
C477 C 0.39072 0.49676 0.28582 0.0
C478 C 0.42135 0.46843 0.46329 0.0
C479 C 0.44925 0.49474 0.46434 0.0
N480 N 0.4818 0.53481 0.34069 0.0
N481 N 0.36519 0.44503 0.37903 0.0
C482 C 0.45053 0.51769 0.36447 0.0
C483 C 0.3923 0.46944 0.37523 0.0
N484 N 0.42103 0.54805 0.20275 0.0
N485 N 0.42294 0.44197 0.54636 0.0
H486 H 0.34705 0.44165 0.30899 0.0
H487 H 0.36065 0.42786 0.44974 0.0
H488 H 0.44258 0.44132 0.61301 0.0
H489 H 0.40602 0.41987 0.54784 0.0
H490 H 0.43653 0.57099 0.21616 0.0
H491 H 0.40631 0.54791 0.12346 0.0
H492 H 0.4858 0.54939 0.26352 0.0
H493 H 0.50442 0.53287 0.39494 0.0
C494 C 0.06927 0.39335 0.38373 0.0
C495 C 0.03842 0.38477 0.31156 0.0
C496 C 0.01404 0.44427 0.37992 0.0
C497 C 0.04054 0.44932 0.47025 0.0
N498 N 0.09639 0.42812 0.54957 0.0
N499 N 0.9801 0.40474 0.24891 0.0
C500 C 0.06934 0.42388 0.46792 0.0
C501 C 1.0107 0.41114 0.31211 0.0
N502 N 0.09878 0.37219 0.37131 0.0
N503 N 0.99418 0.47292 0.3481 0.0
H504 H 0.97835 0.38578 0.17956 0.0
H505 H 0.95639 0.418 0.27036 0.0
H506 H 1.00049 0.49853 0.38022 0.0
H507 H 0.97566 0.4721 0.27824 0.0
H508 H 0.12346 0.37799 0.4107 0.0
H509 H 0.0993 0.35052 0.31124 0.0
H510 H 0.11641 0.40928 0.5632 0.0
H511 H 0.09748 0.44972 0.6099 0.0
C512 C 0.91491 1.00228 0.23588 0.0
C513 C 0.87797 0.01832 0.19979 0.0
C514 C 0.89569 1.00448 0.98963 0.0
C515 C 0.93159 0.01442 0.01354 0.0
N516 N 0.95599 0.05223 0.17313 0.0
N517 N 0.83615 0.02322 0.02739 0.0
C518 C 0.93602 0.02335 0.1407 0.0
C519 C 0.86878 0.01492 0.0732 0.0
N520 N 0.92948 0.95626 0.33118 0.0
N521 N 0.88698 0.98372 0.89315 0.0
H522 H 0.8148 0.03306 0.07772 0.0
H523 H 0.8148 0.03306 0.07772 0.0
H524 H 0.90667 0.97154 0.84046 0.0
H525 H 0.86055 0.97587 0.87632 0.0
H526 H 0.92235 0.93425 0.38585 0.0
H527 H 0.92235 0.93425 0.38585 0.0
H528 H 0.95638 0.06194 0.26091 0.0
H529 H 0.96881 0.06764 0.1095 0.0
C530 C 0.50393 0.91534 0.21421 0.0
C531 C 0.53242 0.89018 0.21048 0.0
C532 C 0.56323 0.93043 0.0661 0.0
C533 C 0.53296 0.95372 0.06108 0.0
N534 N 0.47309 0.96636 0.12699 0.0
N535 N 0.59356 0.87942 0.15583 0.0
C536 C 0.50315 0.9458 0.13601 0.0
C537 C 0.56331 0.89935 0.14238 0.0
N538 N 0.47769 0.90925 0.29562 0.0
N539 N 0.59166 0.93749 0.99407 0.0
H540 H 0.59591 0.86064 0.22298 0.0
H541 H 0.61753 0.8839 0.1116 0.0
H542 H 0.5942 0.9618 0.95094 0.0
H543 H 0.61201 0.91937 0.97442 0.0
H544 H 0.45599 0.92606 0.31213 0.0
H545 H 0.45599 0.92606 0.31213 0.0
H546 H 0.44839 0.96015 0.16384 0.0
H547 H 0.47221 0.98904 0.07453 0.0
C548 C 0.65202 0.55343 1.00298 0.0
C549 C 0.65091 0.55881 0.1299 0.0
C550 C 0.58452 0.54995 0.11059 0.0
C551 C 0.58544 0.54688 0.98232 0.0
N552 N 0.62113 0.56796 0.82001 0.0
N553 N 0.60994 0.57764 0.28735 0.0
C554 C 0.61959 0.55448 0.93162 0.0
C555 C 0.61558 0.56082 0.1796 0.0
N556 N 0.68428 0.54944 0.94794 0.0
N557 N 0.55292 0.54701 0.16914 0.0
H558 H 0.62965 0.58912 0.34054 0.0
H559 H 0.58451 0.58443 0.31852 0.0
H560 H 0.52917 0.55641 0.1329 0.0
H561 H 0.55194 0.54072 0.25956 0.0
H562 H 0.68663 0.54543 0.85589 0.0
H563 H 0.7082 0.54717 0.99555 0.0
H564 H 0.64455 0.5787 0.78471 0.0
H565 H 0.59814 0.57208 0.76972 0.0
C566 C 1.00666 0.63297 0.14042 0.0
C567 C 0.99888 0.66686 0.09396 0.0
C568 C 0.97455 0.63267 0.91605 0.0
C569 C 0.99326 0.60076 0.94847 0.0
N570 N 0.02559 0.57134 0.10543 0.0
N571 N 0.96982 0.6977 0.93273 0.0
C572 C 1.00867 0.60116 0.0651 0.0
C573 C 0.9807 0.66627 0.98078 0.0
N574 N 1.00743 0.63088 0.26051 0.0
N575 N 0.95091 0.63105 0.82303 0.0
H576 H 0.97436 0.72224 0.97489 0.0
H577 H 0.95815 0.69962 0.84832 0.0
H578 H 0.94848 0.60833 0.76862 0.0
H579 H 0.9329 0.65142 0.80342 0.0
H580 H 1.00512 0.60637 0.30227 0.0
H581 H 1.00512 0.60637 0.30227 0.0
H582 H 0.03951 0.57094 0.1863 0.0
H583 H 0.02782 0.54791 0.05423 0.0
C584 C 0.0127 0.24713 0.461 0.0
C585 C 0.04131 0.22859 0.40262 0.0
C586 C 0.03007 0.17689 0.52323 0.0
C587 C 0.99839 0.19437 0.56485 0.0
N588 N 0.97562 0.25003 0.63818 0.0
N589 N 0.08613 0.18326 0.41606 0.0
C590 C 0.99803 0.2317 0.56383 0.0
C591 C 0.05358 0.19625 0.44937 0.0
N592 N 0.99393 0.27341 0.40564 0.0
N593 N 0.03498 0.14114 0.53805 0.0
H594 H 0.10311 0.19727 0.35923 0.0
H595 H 0.09724 0.16082 0.45452 0.0
H596 H 0.02068 0.12644 0.59961 0.0
H597 H 0.05319 0.12621 0.48766 0.0
H598 H 0.97024 0.28377 0.44111 0.0
H599 H 0.99768 0.27968 0.31639 0.0
H600 H 0.97367 0.27791 0.63711 0.0
H601 H 0.96157 0.23683 0.70525 0.0
C602 C 0.30988 1.00308 0.44998 0.0
C603 C 0.30516 0.99588 0.32665 0.0
C604 C 0.32787 0.93543 0.34744 0.0
C605 C 0.33452 0.94349 0.4691 0.0
N606 N 0.31391 0.97541 0.64277 0.0
N607 N 0.29469 0.95151 0.1702 0.0
C608 C 0.31966 0.97438 0.52297 0.0
C609 C 0.309 0.96062 0.27926 0.0
N610 N 0.30665 0.03699 0.49629 0.0
N611 N 0.34143 0.90499 0.29611 0.0
H612 H 0.27922 0.96928 0.1208 0.0
H613 H 0.29485 0.92542 0.13568 0.0
H614 H 0.3544 0.88551 0.34628 0.0
H615 H 0.34104 0.9 0.20401 0.0
H616 H 0.31338 0.04348 0.58481 0.0
H617 H 0.29979 0.0589 0.44415 0.0
H618 H 0.30085 0.99665 0.6857 0.0
H619 H 0.31784 0.95247 0.69325 0.0
C620 C 0.60657 0.30951 0.18941 0.0
C621 C 0.57921 0.30424 0.27273 0.0
C622 C 0.60414 0.35161 0.39822 0.0
C623 C 0.62112 0.36536 0.2948 0.0
N624 N 0.6424 0.35383 0.09227 0.0
N625 N 0.55493 0.31501 0.46731 0.0
C626 C 0.62484 0.34271 0.19163 0.0
C627 C 0.58002 0.32261 0.38334 0.0
N628 N 0.61179 0.28433 0.10162 0.0
N629 N 0.60937 0.36791 0.50718 0.0
H630 H 0.53755 0.29321 0.45881 0.0
H631 H 0.55054 0.33119 0.5416 0.0
H632 H 0.62702 0.38948 0.51812 0.0
H633 H 0.5989 0.35804 0.58649 0.0
H634 H 0.63277 0.28543 0.04054 0.0
H635 H 0.59668 0.26072 0.09892 0.0
H636 H 0.6409 0.34039 0.00989 0.0
H637 H 0.65795 0.37674 0.0908 0.0
C638 C 0.20134 0.4836 0.43013 0.0
C639 C 0.23401 0.49999 0.40471 0.0
C640 C 0.20741 0.55802 0.43472 0.0
C641 C 0.17483 0.54183 0.39871 0.0
N642 N 0.1392 0.48702 0.37426 0.0
N643 N 0.27048 0.55217 0.44336 0.0
C644 C 0.17035 0.50384 0.40662 0.0
C645 C 0.23789 0.53654 0.43513 0.0
N646 N 0.20045 0.44796 0.45259 0.0
N647 N 0.20963 0.59375 0.4614 0.0
H648 H 0.29391 0.53743 0.43409 0.0
H649 H 0.29391 0.53743 0.43409 0.0
H650 H 0.18699 0.61008 0.46625 0.0
H651 H 0.23382 0.60612 0.48485 0.0
H652 H 0.17695 0.43448 0.4744 0.0
H653 H 0.2242 0.43328 0.45809 0.0
H654 H 0.13709 0.45926 0.36633 0.0
H655 H 0.11648 0.50033 0.3446 0.0
C656 C 0.92869 0.84951 0.10092 0.0
C657 C 0.92979 0.81253 0.09286 0.0
C658 C 0.97517 0.81897 0.93818 0.0
C659 C 0.98595 0.85094 0.99933 0.0
N660 N 0.97613 0.88695 0.17747 0.0
N661 N 0.92946 0.77199 0.92535 0.0
C662 C 0.96271 0.86581 0.08775 0.0
C663 C 0.9451 0.79998 0.98444 0.0
N664 N 0.9012 0.8645 0.16231 0.0
N665 N 0.99432 0.80632 0.84294 0.0
H666 H 0.90733 0.759 0.96194 0.0
H667 H 0.9371 0.76345 0.83996 0.0
H668 H 0.0154 0.8209 0.80635 0.0
H669 H 0.98951 0.78148 0.80244 0.0
H670 H 0.9036 0.88887 0.20568 0.0
H671 H 0.87785 0.84994 0.17898 0.0
H672 H 0.96109 0.89448 0.25199 0.0
H673 H 1.00356 0.89123 0.18729 0.0
C674 C 0.74677 0.98389 1.00373 0.0
C675 C 0.72933 0.96966 0.10477 0.0
C676 C 0.67631 1.00124 0.06223 0.0
C677 C 0.69537 0.02376 0.98236 0.0
N678 N 0.74622 0.03017 0.8514 0.0
N679 N 0.67355 0.94134 0.14185 0.0
C680 C 0.72981 0.01264 0.94228 0.0
C681 C 0.69228 0.96856 0.09303 0.0
N682 N 0.77785 0.96867 0.96575 0.0
N683 N 0.64865 0.01377 0.12998 0.0
H684 H 0.68663 0.91901 0.17641 0.0
H685 H 0.64575 0.94135 0.14336 0.0
H686 H 0.6386 0.03967 0.12785 0.0
H687 H 0.64131 1.00059 0.2068 0.0
H688 H 0.79108 0.97604 0.88804 0.0
H689 H 0.78877 0.94689 0.01074 0.0
H690 H 0.77251 0.02532 0.82526 0.0
H691 H 0.733 0.04986 0.80273 0.0
C692 C 0.59809 0.70279 0.07052 0.0
C693 C 0.58207 0.73684 0.07965 0.0
C694 C 0.53716 0.71727 0.93498 0.0
C695 C 0.54268 0.68262 0.97762 0.0
N696 N 0.58522 0.63928 0.0459 0.0
N697 N 0.54757 0.77961 0.96211 0.0
C698 C 0.5763 0.67406 0.02811 0.0
C699 C 0.55622 0.74547 0.99036 0.0
N700 N 0.63085 0.69778 0.12127 0.0
N701 N 0.5105 0.72341 0.8543 0.0
H702 H 0.5612 0.80206 0.99499 0.0
H703 H 0.5612 0.80206 0.99499 0.0
H704 H 0.49587 0.70222 0.81594 0.0
H705 H 0.50429 0.74905 0.82466 0.0
H706 H 0.64455 0.67353 0.1184 0.0
H707 H 0.64476 0.71938 0.16003 0.0
H708 H 0.60828 0.63138 0.09073 0.0
H709 H 0.569 0.61852 0.01397 0.0
C710 C 0.86073 0.60659 0.10851 0.0
C711 C 0.8248 0.59844 0.08248 0.0
C712 C 0.84445 0.54517 0.97697 0.0
C713 C 0.87351 0.54424 0.06034 0.0
N714 N 0.91296 0.57888 0.19456 0.0
N715 N 0.79435 0.58064 0.90231 0.0
C716 C 0.88423 0.57696 0.11878 0.0
C717 C 0.82062 0.57468 0.98435 0.0
N718 N 0.86978 0.64038 0.14382 0.0
N719 N 0.84003 0.51835 0.89365 0.0
H720 H 0.77804 0.60327 0.90985 0.0
H721 H 0.79028 0.56479 0.82589 0.0
H722 H 0.85937 0.49854 0.88014 0.0
H723 H 0.81782 0.5162 0.83734 0.0
H724 H 0.89615 0.64805 0.16195 0.0
H725 H 0.85057 0.66071 0.14517 0.0
H726 H 0.91928 0.60196 0.24403 0.0
H727 H 0.92858 0.55695 0.21675 0.0
C728 C 0.05582 0.17696 0.9106 0.0
C729 C 0.02849 0.196 0.97495 0.0
C730 C 0.98929 0.14179 0.93682 0.0
C731 C 0.01599 0.12286 0.86687 0.0
N732 N 0.07338 0.12872 0.7729 0.0
N733 N 0.96638 0.19777 0.02467 0.0
C734 C 0.04876 0.14252 0.84973 0.0
C735 C 0.99449 0.17861 0.97942 0.0
N736 N 0.08941 0.19142 0.9104 0.0
N737 N 0.95891 0.12404 0.96938 0.0
H738 H 0.96933 0.22405 0.05655 0.0
H739 H 0.93985 0.18929 0.01886 0.0
H740 H 0.95336 0.09764 0.94498 0.0
H741 H 0.94081 0.13403 0.03216 0.0
H742 H 0.11191 0.17819 0.87755 0.0
H743 H 0.09499 0.21653 0.94856 0.0
H744 H 0.09565 0.14279 0.74331 0.0
H745 H 0.07005 0.10356 0.73385 0.0
C746 C 0.35202 0.01593 0.89489 0.0
C747 C 0.34082 0.04867 0.95161 0.0
C748 C 0.40461 0.0621 0.96227 0.0
C749 C 0.41593 0.0374 0.87224 0.0
N750 N 0.39342 0.98702 0.75768 0.0
N751 N 0.36084 0.1076 0.00884 0.0
C752 C 0.38718 0.01324 0.83949 0.0
C753 C 0.36837 0.07463 0.9631 0.0
N754 N 0.3306 0.98652 0.9023 0.0
N755 N 0.418 0.05662 0.07261 0.0
H756 H 0.3345 0.11633 0.02045 0.0
H757 H 0.38118 0.12599 0.02713 0.0
H758 H 0.43638 0.03627 0.08698 0.0
H759 H 0.40486 0.0666 0.14872 0.0
H760 H 0.34002 0.96066 0.88572 0.0
H761 H 0.30425 0.98814 0.93264 0.0
H762 H 0.37569 0.96628 0.73902 0.0
H763 H 0.41506 0.98903 0.70094 0.0
C764 C 0.50001 0.34695 0.8895 0.0
C765 C 0.48516 0.34702 0.00661 0.0
C766 C 0.48286 0.41328 0.99844 0.0
C767 C 0.49457 0.41374 0.87609 0.0
N768 N 0.52097 0.37898 0.71664 0.0
N769 N 0.45466 0.38055 0.15945 0.0
C770 C 0.50436 0.37987 0.82449 0.0
C771 C 0.47357 0.38029 0.05518 0.0
N772 N 0.50883 0.31477 0.8378 0.0
N773 N 0.48619 0.44337 0.06836 0.0
H774 H 0.44803 0.35692 0.20308 0.0
H775 H 0.44261 0.40362 0.19439 0.0
H776 H 0.49804 0.46675 0.03832 0.0
H777 H 0.4815 0.44377 0.16038 0.0
H778 H 0.51688 0.31176 0.74899 0.0
H779 H 0.50546 0.29058 0.88203 0.0
H780 H 0.54086 0.36027 0.69982 0.0
H781 H 0.51771 0.39848 0.65191 0.0
C782 C 0.16752 0.47679 0.01429 0.0
C783 C 0.20039 0.49308 0.97612 0.0
C784 C 0.16295 0.5155 0.80475 0.0
C785 C 0.12922 0.50566 0.85882 0.0
N786 N 0.10549 0.49003 0.05298 0.0
N787 N 0.22536 0.53423 0.83539 0.0
C788 C 0.1332 0.48974 0.97398 0.0
C789 C 0.19688 0.51433 0.87137 0.0
N790 N 0.16867 0.44936 0.0934 0.0
N791 N 0.16367 0.52435 0.68748 0.0
H792 H 0.24992 0.53389 0.87998 0.0
H793 H 0.2235 0.55313 0.7679 0.0
H794 H 0.14166 0.5212 0.63136 0.0
H795 H 0.18758 0.52927 0.64348 0.0
H796 H 0.14566 0.43569 0.11963 0.0
H797 H 0.19279 0.43805 0.12136 0.0
H798 H 0.10788 0.47984 0.13901 0.0
H799 H 0.08238 0.50506 0.04006 0.0
C800 C 0.0254 0.86534 0.44057 0.0
C801 C 0.99322 0.84627 0.46364 0.0
C802 C 0.9749 0.90162 0.58671 0.0
C803 C 1.00926 0.9188 0.57625 0.0
N804 N 0.07112 0.90509 0.51511 0.0
N805 N 0.93946 0.8462 0.58118 0.0
C806 C 0.03544 0.89724 0.50972 0.0
C807 C 0.96872 0.86468 0.54315 0.0
N808 N 0.04675 0.85391 0.34863 0.0
N809 N 0.94751 0.92026 0.63848 0.0
H810 H 0.93463 0.81968 0.55478 0.0
H811 H 0.92234 0.85565 0.6479 0.0
H812 H 0.95059 0.94592 0.67448 0.0
H813 H 0.92102 0.91148 0.63636 0.0
H814 H 0.06773 0.86935 0.31573 0.0
H815 H 0.04133 0.83097 0.29729 0.0
H816 H 0.09063 0.88835 0.47817 0.0
H817 H 0.08269 0.92441 0.56936 0.0
C818 C 0.67685 0.99336 0.57705 0.0
C819 C 0.69398 0.0203 0.50689 0.0
C820 C 0.63937 0.05785 0.54207 0.0
C821 C 0.62216 0.03141 0.6167 0.0
N822 N 0.63321 0.97826 0.72994 0.0
N823 N 0.69286 0.08133 0.44507 0.0
C824 C 0.64344 1.00034 0.64054 0.0
C825 C 0.67552 0.05332 0.49694 0.0
N826 N 0.69248 0.96043 0.58291 0.0
N827 N 0.62108 0.08776 0.50946 0.0
H828 H 0.71821 0.07905 0.40719 0.0
H829 H 0.68383 0.10769 0.44975 0.0
H830 H 0.59723 0.09607 0.54703 0.0
H831 H 0.62874 0.10379 0.43849 0.0
H832 H 0.67975 0.9382 0.61866 0.0
H833 H 0.71755 0.95501 0.54596 0.0
H834 H 0.64912 0.95767 0.76249 0.0
H835 H 0.60999 0.98269 0.7784 0.0
C836 C 0.51095 0.68219 0.45988 0.0
C837 C 0.54088 0.70406 0.48892 0.0
C838 C 0.56007 0.65522 0.62662 0.0
C839 C 0.53378 0.63086 0.57884 0.0
N840 N 0.48691 0.62381 0.42944 0.0
N841 N 0.59634 0.70898 0.59794 0.0
C842 C 0.51002 0.64519 0.49114 0.0
C843 C 0.56613 0.68978 0.57206 0.0
N844 N 0.48297 0.69647 0.3987 0.0
N845 N 0.57817 0.64625 0.72787 0.0
H846 H 0.60053 0.73462 0.56472 0.0
H847 H 0.61776 0.6987 0.64654 0.0
H848 H 0.57156 0.62355 0.77583 0.0
H849 H 0.59613 0.66335 0.77186 0.0
H850 H 0.45931 0.68209 0.3847 0.0
H851 H 0.48246 0.72327 0.37343 0.0
H852 H 0.48633 0.59616 0.43863 0.0
H853 H 0.48633 0.59616 0.43863 0.0
C854 C 0.843 0.57015 0.58097 0.0
C855 C 0.8315 0.54817 0.4817 0.0
C856 C 0.89261 0.52288 0.47968 0.0
C857 C 0.90405 0.5416 0.58575 0.0
N858 N 0.88361 0.57778 0.75224 0.0
N859 N 0.84465 0.4948 0.3684 0.0
C860 C 0.87706 0.56345 0.64151 0.0
C861 C 0.85585 0.5213 0.4444 0.0
N862 N 0.82157 0.59779 0.61657 0.0
N863 N 0.9165 0.50857 0.40247 0.0
H864 H 0.81815 0.4929 0.33872 0.0
H865 H 0.86127 0.47317 0.34736 0.0
H866 H 0.9437 0.51368 0.41065 0.0
H867 H 0.9437 0.51368 0.41065 0.0
H868 H 0.82949 0.61739 0.67865 0.0
H869 H 0.7963 0.60175 0.57864 0.0
H870 H 0.86567 0.59425 0.79785 0.0
H871 H 0.90557 0.57005 0.80331 0.0
loop_
_geom_bond_atom_site_label_1
_geom_bond_atom_site_label_2
_geom_bond_distance
_geom_bond_site_symmetry_2
_ccdc_geom_bond_type
H0 C7 0.929 . S
H1 C10 0.930 . S
H2 C12 0.929 . S
H3 C4 0.969 . S
C4 H3 0.969 . S
C4 O5 1.550 . S
C4 H6 0.973 . S
O5 C4 1.550 . S
O5 C11 1.412 . S
H6 C4 0.973 . S
C7 H0 0.929 . S
C7 C8 1.400 . S
C7 C9 1.364 . S
C8 C7 1.400 . S
C8 C12 1.377 . S
C9 C7 1.364 . S
C9 C10 1.374 . S
C10 H1 0.930 . S
C10 C9 1.374 . S
C10 C11 1.383 . S
C11 O5 1.412 . S
C11 C10 1.383 . S
C11 C12 1.394 . S
C12 H2 0.929 . S
C12 C8 1.377 . S
C12 C11 1.394 . S
H13 C20 0.929 . S
H14 C23 0.930 . S
H15 C25 0.929 . S
H16 C17 0.969 . S
C17 H16 0.969 . S
C17 O18 1.550 . S
C17 H19 0.973 . S
O18 C17 1.550 . S
O18 C24 1.412 . S
H19 C17 0.973 . S
C20 H13 0.929 . S
C20 C21 1.400 . S
C20 C22 1.364 . S
C21 C20 1.400 . S
C21 C25 1.377 . S
C22 C20 1.364 . S
C22 C23 1.374 . S
C23 H14 0.930 . S
C23 C22 1.374 . S
C23 C24 1.383 . S
C24 O18 1.412 . S
C24 C23 1.383 . S
C24 C25 1.394 . S
C25 H15 0.929 . S
C25 C21 1.377 . S
C25 C24 1.394 . S
H26 C33 0.929 . S
H27 C36 0.930 . S
H28 C38 0.929 . S
H29 C30 0.948 1_545 S
C30 H29 0.948 1_565 S
C30 O31 1.550 . S
C30 H32 0.973 . S
O31 C30 1.550 . S
O31 C37 1.412 . S
H32 C30 0.973 . S
C33 H26 0.929 . S
C33 C34 1.400 . S
C33 C35 1.364 . S
C34 C33 1.400 . S
C34 C38 1.377 . S
C35 C33 1.364 . S
C35 C36 1.374 . S
C36 H27 0.930 . S
C36 C35 1.374 . S
C36 C37 1.383 . S
C37 O31 1.412 . S
C37 C36 1.383 . S
C37 C38 1.394 . S
C38 H28 0.929 . S
C38 C34 1.377 . S
C38 C37 1.394 . S
H39 C46 0.929 . S
H40 C49 0.930 . S
H41 C51 0.929 . S
H42 C43 0.969 . S
C43 H42 0.969 . S
C43 O44 1.550 . S
C43 H45 0.973 . S
O44 C43 1.550 . S
O44 C50 1.412 . S
H45 C43 0.973 . S
C46 H39 0.929 . S
C46 C47 1.400 . S
C46 C48 1.364 . S
C47 C46 1.400 . S
C47 C51 1.377 . S
C48 C46 1.364 . S
C48 C49 1.374 . S
C49 H40 0.930 . S
C49 C48 1.374 . S
C49 C50 1.383 . S
C50 O44 1.412 . S
C50 C49 1.383 . S
C50 C51 1.394 . S
C51 H41 0.929 . S
C51 C47 1.377 . S
C51 C50 1.394 . S
H52 C59 0.929 . S
H53 C62 0.930 . S
H54 C64 0.929 . S
H55 C56 0.969 . S
C56 H55 0.969 . S
C56 O57 1.550 . S
C56 H58 0.973 . S
O57 C56 1.550 . S
O57 C63 1.412 . S
H58 C56 0.973 . S
C59 H52 0.929 . S
C59 C60 1.400 . S
C59 C61 1.364 1_556 S
C60 C59 1.400 . S
C60 C64 1.377 . S
C61 C59 1.364 1_554 S
C61 C62 1.374 . S
C62 H53 0.930 . S
C62 C61 1.374 . S
C62 C63 1.383 . S
C63 O57 1.412 . S
C63 C62 1.383 . S
C63 C64 1.394 1_554 S
C64 H54 0.929 . S
C64 C60 1.377 . S
C64 C63 1.394 1_556 S
H65 C72 0.929 . S
H66 C75 0.930 . S
H67 C77 0.929 . S
H68 C69 0.969 . S
C69 H68 0.969 . S
C69 O70 1.550 . S
C69 H71 0.973 . S
O70 C69 1.550 . S
O70 C76 1.412 . S
H71 C69 0.973 . S
C72 H65 0.929 . S
C72 C73 1.400 . S
C72 C74 1.364 1_556 S
C73 C72 1.400 . S
C73 C77 1.377 . S
C74 C72 1.364 1_554 S
C74 C75 1.374 . S
C75 H66 0.930 . S
C75 C74 1.374 . S
C75 C76 1.383 . S
C76 O70 1.412 . S
C76 C75 1.383 . S
C76 C77 1.394 1_554 S
C77 H67 0.929 . S
C77 C73 1.377 . S
C77 C76 1.394 1_556 S
H78 C85 0.929 . S
H79 C88 0.930 . S
H80 C90 0.929 . S
H81 C82 0.969 . S
C82 H81 0.969 . S
C82 O83 1.550 . S
C82 H84 0.973 . S
O83 C82 1.550 . S
O83 C89 1.412 . S
H84 C82 0.973 . S
C85 H78 0.929 . S
C85 C86 1.400 . S
C85 C87 1.364 1_556 S
C86 C85 1.400 . S
C86 C90 1.377 . S
C87 C85 1.364 1_554 S
C87 C88 1.374 . S
C88 H79 0.930 . S
C88 C87 1.374 . S
C88 C89 1.383 . S
C89 O83 1.412 . S
C89 C88 1.383 . S
C89 C90 1.394 1_554 S
C90 H80 0.929 . S
C90 C86 1.377 . S
C90 C89 1.394 1_556 S
H91 C98 0.929 . S
H92 C101 0.930 . S
H93 C103 0.929 . S
H94 C95 0.969 . S
C95 H94 0.969 . S
C95 O96 1.550 . S
C95 H97 0.973 . S
O96 C95 1.550 . S
O96 C102 1.412 . S
H97 C95 0.973 . S
C98 H91 0.929 . S
C98 C99 1.400 . S
C98 C100 1.364 1_556 S
C99 C98 1.400 . S
C99 C103 1.377 . S
C100 C98 1.364 1_554 S
C100 C101 1.374 . S
C101 H92 0.930 . S
C101 C100 1.374 . S
C101 C102 1.383 . S
C102 O96 1.412 . S
C102 C101 1.383 . S
C102 C103 1.394 1_554 S
C103 H93 0.929 . S
C103 C99 1.377 . S
C103 C102 1.394 1_556 S
Eu104 N135 2.657 1_566 S
Eu104 N142 2.609 1_565 S
Eu104 O148 2.558 . S
Eu104 O149 2.612 1_455 S
Eu104 O151 2.339 1_455 S
Eu104 O152 2.563 . S
Eu104 O153 2.419 1_556 S
Eu104 O155 2.380 1_565 S
Eu104 O156 2.432 . S
Eu104 C168 2.848 . S
C105 C108 1.429 . S
C105 C109 1.411 . S
C105 N112 1.377 1_565 S
C106 C108 1.420 . S
C106 C110 1.423 . S
C106 C118 1.392 . S
C107 C109 1.420 . S
C107 C110 1.351 . S
C107 H130 0.931 . S
C108 C105 1.429 . S
C108 C106 1.420 . S
C108 N116 1.362 . S
C109 C105 1.411 . S
C109 C107 1.420 . S
C109 C114 1.395 1_565 S
C110 C106 1.423 . S
C110 C107 1.351 . S
C110 H122 0.930 . S
C111 C113 1.400 . S
C111 C114 1.386 . S
C111 H123 0.930 . S
N112 C105 1.377 1_545 S
N112 C113 1.321 . S
N112 Eu115 2.609 . S
C113 C111 1.400 . S
C113 N112 1.321 . S
C113 H120 0.930 . S
C114 C109 1.395 1_545 S
C114 C111 1.386 . S
C114 H133 0.930 . S
Eu115 N112 2.609 . S
Eu115 N116 2.657 1_545 S
Eu115 O149 2.380 1_545 S
Eu115 O150 2.432 . S
Eu115 O154 2.558 . S
Eu115 O155 2.612 1_655 S
Eu115 O157 2.339 1_655 S
Eu115 O158 2.563 1_655 S
Eu115 O159 2.419 . S
Eu115 C179 2.848 . S
N116 C108 1.362 . S
N116 Eu115 2.657 1_565 S
N116 C117 1.334 1_655 S
C117 N116 1.334 1_455 S
C117 C119 1.413 . S
C117 H124 0.929 . S
C118 C106 1.392 . S
C118 C119 1.367 1_655 S
C118 H126 0.930 . S
C119 C117 1.413 . S
C119 C118 1.367 1_455 S
C119 H121 0.930 . S
H120 C113 0.930 . S
H121 C119 0.930 . S
H122 C110 0.930 . S
H123 C111 0.930 . S
H124 C117 0.929 . S
H125 C139 0.930 1_655 S
H126 C118 0.930 . S
H127 C145 0.930 . S
H128 C136 0.929 1_655 S
H129 C143 0.930 . S
H130 C107 0.931 . S
H131 C137 0.930 . S
H132 C170 0.930 . S
H133 C114 0.930 . S
H134 C169 0.931 . S
N135 Eu104 2.657 1_544 S
N135 C136 1.334 . S
N135 C140 1.362 . S
C136 H128 0.929 1_455 S
C136 N135 1.334 . S
C136 C139 1.413 . S
C137 H131 0.930 . S
C137 C138 1.392 . S
C137 C139 1.367 . S
C138 C137 1.392 . S
C138 C140 1.420 . S
C138 C170 1.423 . S
C139 H125 0.930 1_455 S
C139 C136 1.413 . S
C139 C137 1.367 . S
C140 N135 1.362 . S
C140 C138 1.420 . S
C140 C144 1.429 . S
H141 C146 0.930 . S
N142 Eu104 2.609 1_545 S
N142 C144 1.377 1_556 S
N142 C145 1.321 1_545 S
C143 H129 0.930 . S
C143 C145 1.400 . S
C143 C146 1.386 1_566 S
C144 C140 1.429 . S
C144 N142 1.377 1_554 S
C144 C147 1.411 . S
C145 H127 0.930 . S
C145 N142 1.321 1_565 S
C145 C143 1.400 . S
C146 H141 0.930 . S
C146 C143 1.386 1_544 S
C146 C147 1.395 . S
C147 C144 1.411 . S
C147 C146 1.395 . S
C147 C169 1.420 . S
O148 Eu104 2.558 . S
O148 C168 1.257 . S
O149 Eu104 2.612 1_655 S
O149 Eu115 2.380 1_565 S
O149 C160 1.276 . S
O150 Eu115 2.432 . S
O150 C167 1.264 . S
O151 Eu104 2.339 1_655 S
O151 C167 1.254 1_565 S
O152 Eu104 2.563 . S
O152 C160 1.235 1_455 S
O153 Eu104 2.419 1_554 S
O153 C168 1.249 1_554 S
O154 Eu115 2.558 . S
O154 C179 1.257 . S
O155 Eu104 2.380 1_545 S
O155 Eu115 2.612 1_455 S
O155 C171 1.276 . S
O156 Eu104 2.432 . S
O156 C178 1.264 1_565 S
O157 Eu115 2.339 1_455 S
O157 C178 1.254 . S
O158 Eu115 2.563 1_455 S
O158 C171 1.235 . S
O159 Eu115 2.419 . S
O159 C179 1.249 . S
C160 O149 1.276 . S
C160 O152 1.235 1_655 S
C161 C163 1.393 . S
C161 C165 1.395 . S
C161 C168 1.492 1_554 S
C162 C163 1.392 . S
C162 C164 1.386 . S
C163 C161 1.393 . S
C163 C162 1.392 . S
C163 H180 0.930 . S
C164 C162 1.386 . S
C164 C166 1.395 . S
C164 H181 0.930 . S
C165 C161 1.395 . S
C165 C166 1.379 . S
C165 H182 0.930 . S
C166 C164 1.395 . S
C166 C165 1.379 . S
C166 H183 0.930 . S
C167 O150 1.264 . S
C167 O151 1.254 1_545 S
C168 Eu104 2.848 . S
C168 O148 1.257 . S
C168 O153 1.249 1_556 S
C168 C161 1.492 1_556 S
C169 H134 0.931 . S
C169 C147 1.420 . S
C169 C170 1.351 . S
C170 H132 0.930 . S
C170 C138 1.423 . S
C170 C169 1.351 . S
C171 O155 1.276 . S
C171 O158 1.235 . S
C172 C173 1.393 . S
C172 C176 1.395 . S
C172 C179 1.492 . S
C173 C172 1.393 . S
C173 C174 1.392 . S
C173 H184 0.930 1_655 S
C174 C173 1.392 . S
C174 C175 1.386 . S
C175 C174 1.386 . S
C175 C177 1.395 . S
C175 H185 0.930 . S
C176 C172 1.395 . S
C176 C177 1.379 . S
C176 H186 0.930 . S
C177 C175 1.395 . S
C177 C176 1.379 . S
C177 H187 0.930 . S
C178 O156 1.264 1_545 S
C178 O157 1.254 . S
C179 Eu115 2.848 . S
C179 O154 1.257 . S
C179 O159 1.249 . S
C179 C172 1.492 . S
H180 C163 0.930 . S
H181 C164 0.930 . S
H182 C165 0.930 . S
H183 C166 0.930 . S
H184 C173 0.930 1_455 S
H185 C175 0.930 . S
H186 C176 0.930 . S
H187 C177 0.930 . S
Eu188 N219 2.657 1_556 S
Eu188 N226 2.609 . S
Eu188 O232 2.558 . S
Eu188 O233 2.612 1_545 S
Eu188 O235 2.339 1_545 S
Eu188 O236 2.563 . S
Eu188 O237 2.419 1_556 S
Eu188 O239 2.380 . S
Eu188 O240 2.432 . S
Eu188 C252 2.848 . S
C189 C192 1.429 . S
C189 C193 1.411 . S
C189 N196 1.377 . S
C190 C192 1.420 . S
C190 C194 1.423 . S
C190 C202 1.392 . S
C191 C193 1.420 . S
C191 C194 1.351 . S
C191 H214 0.931 . S
C192 C189 1.429 . S
C192 C190 1.420 . S
C192 N200 1.362 . S
C193 C189 1.411 . S
C193 C191 1.420 . S
C193 C198 1.395 . S
C194 C190 1.423 . S
C194 C191 1.351 . S
C194 H206 0.930 . S
C195 C197 1.400 . S
C195 C198 1.386 . S
C195 H207 0.930 . S
N196 C189 1.377 . S
N196 C197 1.321 . S
N196 Eu199 2.609 . S
C197 C195 1.400 . S
C197 N196 1.321 . S
C197 H204 0.930 . S
C198 C193 1.395 . S
C198 C195 1.386 . S
C198 H217 0.930 . S
Eu199 N196 2.609 . S
Eu199 N200 2.657 . S
Eu199 O233 2.380 . S
Eu199 O234 2.432 . S
Eu199 O238 2.558 . S
Eu199 O239 2.612 1_565 S
Eu199 O241 2.339 1_565 S
Eu199 O242 2.563 1_565 S
Eu199 O243 2.419 . S
Eu199 C263 2.848 . S
N200 C192 1.362 . S
N200 Eu199 2.657 . S
N200 C201 1.334 1_565 S
C201 N200 1.334 1_545 S
C201 C203 1.413 . S
C201 H208 0.929 . S
C202 C190 1.392 . S
C202 C203 1.367 1_565 S
C202 H210 0.930 . S
C203 C201 1.413 . S
C203 C202 1.367 1_545 S
C203 H205 0.930 . S
H204 C197 0.930 . S
H205 C203 0.930 . S
H206 C194 0.930 . S
H207 C195 0.930 . S
H208 C201 0.929 . S
H209 C223 0.930 1_565 S
H210 C202 0.930 . S
H211 C229 0.930 . S
H212 C220 0.929 1_565 S
H213 C227 0.930 . S
H214 C191 0.931 . S
H215 C221 0.930 . S
H216 C254 0.930 . S
H217 C198 0.930 . S
H218 C253 0.931 . S
N219 Eu188 2.657 1_554 S
N219 C220 1.334 . S
N219 C224 1.362 . S
C220 H212 0.929 1_545 S
C220 N219 1.334 . S
C220 C223 1.413 . S
C221 H215 0.930 . S
C221 C222 1.392 . S
C221 C223 1.367 . S
C222 C221 1.392 . S
C222 C224 1.420 . S
C222 C254 1.423 . S
C223 H209 0.930 1_545 S
C223 C220 1.413 . S
C223 C221 1.367 . S
C224 N219 1.362 . S
C224 C222 1.420 . S
C224 C228 1.429 . S
H225 C230 0.930 . S
N226 Eu188 2.609 . S
N226 C228 1.377 1_556 S
N226 C229 1.321 . S
C227 H213 0.930 . S
C227 C229 1.400 . S
C227 C230 1.386 1_556 S
C228 C224 1.429 . S
C228 N226 1.377 1_554 S
C228 C231 1.411 . S
C229 H211 0.930 . S
C229 N226 1.321 . S
C229 C227 1.400 . S
C230 H225 0.930 . S
C230 C227 1.386 1_554 S
C230 C231 1.395 . S
C231 C228 1.411 . S
C231 C230 1.395 . S
C231 C253 1.420 . S
O232 Eu188 2.558 . S
O232 C252 1.257 . S
O233 Eu188 2.612 1_565 S
O233 Eu199 2.380 . S
O233 C244 1.276 . S
O234 Eu199 2.432 . S
O234 C251 1.264 . S
O235 Eu188 2.339 1_565 S
O235 C251 1.254 . S
O236 Eu188 2.563 . S
O236 C244 1.235 1_545 S
O237 Eu188 2.419 1_554 S
O237 C252 1.249 1_554 S
O238 Eu199 2.558 . S
O238 C263 1.257 . S
O239 Eu188 2.380 . S
O239 Eu199 2.612 1_545 S
O239 C255 1.276 . S
O240 Eu188 2.432 . S
O240 C262 1.264 . S
O241 Eu199 2.339 1_545 S
O241 C262 1.254 . S
O242 Eu199 2.563 1_545 S
O242 C255 1.235 . S
O243 Eu199 2.419 . S
O243 C263 1.249 . S
C244 O233 1.276 . S
C244 O236 1.235 1_565 S
C245 C247 1.393 . S
C245 C249 1.395 . S
C245 C252 1.492 1_554 S
C246 C247 1.392 . S
C246 C248 1.386 . S
C247 C245 1.393 . S
C247 C246 1.392 . S
C247 H264 0.930 . S
C248 C246 1.386 . S
C248 C250 1.395 . S
C248 H265 0.930 . S
C249 C245 1.395 . S
C249 C250 1.379 . S
C249 H266 0.930 . S
C250 C248 1.395 . S
C250 C249 1.379 . S
C250 H267 0.930 . S
C251 O234 1.264 . S
C251 O235 1.254 . S
C252 Eu188 2.848 . S
C252 O232 1.257 . S
C252 O237 1.249 1_556 S
C252 C245 1.492 1_556 S
C253 H218 0.931 . S
C253 C231 1.420 . S
C253 C254 1.351 . S
C254 H216 0.930 . S
C254 C222 1.423 . S
C254 C253 1.351 . S
C255 O239 1.276 . S
C255 O242 1.235 . S
C256 C257 1.393 . S
C256 C260 1.395 . S
C256 C263 1.492 . S
C257 C256 1.393 . S
C257 C258 1.392 . S
C257 H268 0.930 1_565 S
C258 C257 1.392 . S
C258 C259 1.386 . S
C259 C258 1.386 . S
C259 C261 1.395 . S
C259 H269 0.930 . S
C260 C256 1.395 . S
C260 C261 1.379 . S
C260 H270 0.930 . S
C261 C259 1.395 . S
C261 C260 1.379 . S
C261 H271 0.930 . S
C262 O240 1.264 . S
C262 O241 1.254 . S
C263 Eu199 2.848 . S
C263 O238 1.257 . S
C263 O243 1.249 . S
C263 C256 1.492 . S
H264 C247 0.930 . S
H265 C248 0.930 . S
H266 C249 0.930 . S
H267 C250 0.930 . S
H268 C257 0.930 1_545 S
H269 C259 0.930 . S
H270 C260 0.930 . S
H271 C261 0.930 . S
Eu272 N303 2.657 . S
Eu272 N310 2.609 . S
Eu272 O316 2.558 . S
Eu272 O317 2.612 . S
Eu272 O319 2.339 . S
Eu272 O320 2.563 . S
Eu272 O321 2.419 . S
Eu272 O323 2.380 . S
Eu272 O324 2.432 . S
Eu272 C336 2.848 . S
C273 C276 1.429 . S
C273 C277 1.411 . S
C273 N280 1.377 . S
C274 C276 1.420 . S
C274 C278 1.423 . S
C274 C286 1.392 . S
C275 C277 1.420 . S
C275 C278 1.351 . S
C275 H298 0.931 . S
C276 C273 1.429 . S
C276 C274 1.420 . S
C276 N284 1.362 . S
C277 C273 1.411 . S
C277 C275 1.420 . S
C277 C282 1.395 1_556 S
C278 C274 1.423 . S
C278 C275 1.351 . S
C278 H290 0.930 . S
C279 C281 1.400 . S
C279 C282 1.386 . S
C279 H291 0.930 . S
N280 C273 1.377 . S
N280 C281 1.321 1_556 S
N280 Eu283 2.609 . S
C281 C279 1.400 . S
C281 N280 1.321 1_554 S
C281 H288 0.930 . S
C282 C277 1.395 1_554 S
C282 C279 1.386 . S
C282 H301 0.930 . S
Eu283 N280 2.609 . S
Eu283 N284 2.657 . S
Eu283 O317 2.380 . S
Eu283 O318 2.432 . S
Eu283 O322 2.558 1_556 S
Eu283 O323 2.612 . S
Eu283 O325 2.339 . S
Eu283 O326 2.563 . S
Eu283 O327 2.419 . S
Eu283 C347 2.848 1_556 S
N284 C276 1.362 . S
N284 Eu283 2.657 . S
N284 C285 1.334 . S
C285 N284 1.334 . S
C285 C287 1.413 . S
C285 H292 0.929 . S
C286 C274 1.392 . S
C286 C287 1.367 . S
C286 H294 0.930 . S
C287 C285 1.413 . S
C287 C286 1.367 . S
C287 H289 0.930 . S
H288 C281 0.930 . S
H289 C287 0.930 . S
H290 C278 0.930 . S
H291 C279 0.930 . S
H292 C285 0.929 . S
H293 C307 0.930 . S
H294 C286 0.930 . S
H295 C313 0.930 . S
H296 C304 0.929 . S
H297 C311 0.930 . S
H298 C275 0.931 . S
H299 C305 0.930 . S
H300 C338 0.930 . S
H301 C282 0.930 . S
H302 C337 0.931 . S
N303 Eu272 2.657 . S
N303 C304 1.334 . S
N303 C308 1.362 . S
C304 H296 0.929 . S
C304 N303 1.334 . S
C304 C307 1.413 . S
C305 H299 0.930 . S
C305 C306 1.392 . S
C305 C307 1.367 . S
C306 C305 1.392 . S
C306 C308 1.420 . S
C306 C338 1.423 . S
C307 H293 0.930 . S
C307 C304 1.413 . S
C307 C305 1.367 . S
C308 N303 1.362 . S
C308 C306 1.420 . S
C308 C312 1.429 . S
H309 C314 0.930 . S
N310 Eu272 2.609 . S
N310 C312 1.377 . S
N310 C313 1.321 . S
C311 H297 0.930 . S
C311 C313 1.400 . S
C311 C314 1.386 . S
C312 C308 1.429 . S
C312 N310 1.377 . S
C312 C315 1.411 . S
C313 H295 0.930 . S
C313 N310 1.321 . S
C313 C311 1.400 . S
C314 H309 0.930 . S
C314 C311 1.386 . S
C314 C315 1.395 . S
C315 C312 1.411 . S
C315 C314 1.395 . S
C315 C337 1.420 . S
O316 Eu272 2.558 . S
O316 C336 1.257 . S
O317 Eu272 2.612 . S
O317 Eu283 2.380 . S
O317 C328 1.276 . S
O318 Eu283 2.432 . S
O318 C335 1.264 . S
O319 Eu272 2.339 . S
O319 C335 1.254 . S
O320 Eu272 2.563 . S
O320 C328 1.235 . S
O321 Eu272 2.419 . S
O321 C336 1.249 . S
O322 Eu283 2.558 1_554 S
O322 C347 1.257 . S
O323 Eu272 2.380 . S
O323 Eu283 2.612 . S
O323 C339 1.276 . S
O324 Eu272 2.432 . S
O324 C346 1.264 . S
O325 Eu283 2.339 . S
O325 C346 1.254 . S
O326 Eu283 2.563 . S
O326 C339 1.235 . S
O327 Eu283 2.419 . S
O327 C347 1.249 1_556 S
C328 O317 1.276 . S
C328 O320 1.235 . S
C329 C331 1.393 . S
C329 C333 1.395 . S
C329 C336 1.492 . S
C330 C331 1.392 . S
C330 C332 1.386 . S
C331 C329 1.393 . S
C331 C330 1.392 . S
C331 H348 0.930 . S
C332 C330 1.386 . S
C332 C334 1.395 . S
C332 H349 0.930 . S
C333 C329 1.395 . S
C333 C334 1.379 . S
C333 H350 0.930 . S
C334 C332 1.395 . S
C334 C333 1.379 . S
C334 H351 0.930 . S
C335 O318 1.264 . S
C335 O319 1.254 . S
C336 Eu272 2.848 . S
C336 O316 1.257 . S
C336 O321 1.249 . S
C336 C329 1.492 . S
C337 H302 0.931 . S
C337 C315 1.420 . S
C337 C338 1.351 . S
C338 H300 0.930 . S
C338 C306 1.423 . S
C338 C337 1.351 . S
C339 O323 1.276 . S
C339 O326 1.235 . S
C340 C341 1.393 . S
C340 C344 1.395 . S
C340 C347 1.492 . S
C341 C340 1.393 . S
C341 C342 1.392 . S
C341 H352 0.930 . S
C342 C341 1.392 . S
C342 C343 1.386 . S
C343 C342 1.386 . S
C343 C345 1.395 . S
C343 H353 0.930 . S
C344 C340 1.395 . S
C344 C345 1.379 . S
C344 H354 0.930 . S
C345 C343 1.395 . S
C345 C344 1.379 . S
C345 H355 0.930 . S
C346 O324 1.264 . S
C346 O325 1.254 . S
C347 Eu283 2.848 1_554 S
C347 O322 1.257 . S
C347 O327 1.249 1_554 S
C347 C340 1.492 . S
H348 C331 0.930 . S
H349 C332 0.930 . S
H350 C333 0.930 . S
H351 C334 0.930 . S
H352 C341 0.930 . S
H353 C343 0.930 . S
H354 C344 0.930 . S
H355 C345 0.930 . S
Eu356 N387 2.657 . S
Eu356 N394 2.609 . S
Eu356 O400 2.558 . S
Eu356 O401 2.612 . S
Eu356 O403 2.339 . S
Eu356 O404 2.563 . S
Eu356 O405 2.419 . S
Eu356 O407 2.380 . S
Eu356 O408 2.432 1_455 S
Eu356 C420 2.848 . S
C357 C360 1.429 . S
C357 C361 1.411 . S
C357 N364 1.381 . S
C358 C360 1.420 . S
C358 C362 1.423 . S
C358 C370 1.392 . S
C359 C361 1.420 . S
C359 C362 1.351 . S
C359 H382 0.931 . S
C360 C357 1.429 . S
C360 C358 1.420 . S
C360 N368 1.362 . S
C361 C357 1.411 . S
C361 C359 1.420 . S
C361 C366 1.395 1_656 S
C362 C358 1.423 . S
C362 C359 1.351 . S
C362 H374 0.930 . S
C363 C365 1.400 . S
C363 C366 1.386 . S
C363 H375 0.930 . S
N364 C357 1.381 . S
N364 C365 1.316 1_656 S
N364 Eu367 2.611 . S
C365 C363 1.400 . S
C365 N364 1.316 1_454 S
C365 H372 0.930 . S
C366 C361 1.395 1_454 S
C366 C363 1.386 . S
C366 H385 0.930 . S
Eu367 N364 2.611 . S
Eu367 N368 2.657 . S
Eu367 O401 2.380 1_655 S
Eu367 O402 2.432 1_655 S
Eu367 O406 2.558 1_556 S
Eu367 O407 2.612 1_655 S
Eu367 O409 2.339 . S
Eu367 O410 2.563 . S
Eu367 O411 2.419 . S
Eu367 C431 2.848 1_556 S
N368 C360 1.362 . S
N368 Eu367 2.657 . S
N368 C369 1.334 . S
C369 N368 1.334 . S
C369 C371 1.413 . S
C369 H376 0.929 . S
C370 C358 1.392 . S
C370 C371 1.367 . S
C370 H378 0.930 . S
C371 C369 1.413 . S
C371 C370 1.367 . S
C371 H373 0.930 . S
H372 C365 0.930 . S
H373 C371 0.930 . S
H374 C362 0.930 . S
H375 C363 0.930 . S
H376 C369 0.929 . S
H377 C391 0.930 . S
H378 C370 0.930 . S
H379 C397 0.930 . S
H380 C388 0.929 . S
H381 C395 0.930 . S
H382 C359 0.931 . S
H383 C389 0.930 . S
H384 C422 0.930 . S
H385 C366 0.930 . S
H386 C421 0.931 . S
N387 Eu356 2.657 . S
N387 C388 1.334 . S
N387 C392 1.362 . S
C388 H380 0.929 . S
C388 N387 1.334 . S
C388 C391 1.413 . S
C389 H383 0.930 . S
C389 C390 1.392 . S
C389 C391 1.367 . S
C390 C389 1.392 . S
C390 C392 1.420 . S
C390 C422 1.423 . S
C391 H377 0.930 . S
C391 C388 1.413 . S
C391 C389 1.367 . S
C392 N387 1.362 . S
C392 C390 1.420 . S
C392 C396 1.429 . S
H393 C398 0.930 1_655 S
N394 Eu356 2.609 . S
N394 C396 1.377 . S
N394 C397 1.321 1_455 S
C395 H381 0.930 . S
C395 C397 1.400 . S
C395 C398 1.386 1_655 S
C396 C392 1.429 . S
C396 N394 1.377 . S
C396 C399 1.411 . S
C397 H379 0.930 . S
C397 N394 1.321 1_655 S
C397 C395 1.400 . S
C398 H393 0.930 1_455 S
C398 C395 1.386 1_455 S
C398 C399 1.395 . S
C399 C396 1.411 . S
C399 C398 1.395 . S
C399 C421 1.420 . S
O400 Eu356 2.558 . S
O400 C420 1.257 . S
O401 Eu356 2.612 . S
O401 Eu367 2.380 1_455 S
O401 C412 1.276 . S
O402 Eu367 2.432 1_455 S
O402 C419 1.264 . S
O403 Eu356 2.339 . S
O403 C419 1.254 . S
O404 Eu356 2.563 . S
O404 C412 1.235 . S
O405 Eu356 2.419 . S
O405 C420 1.249 . S
O406 Eu367 2.558 1_554 S
O406 C431 1.257 . S
O407 Eu356 2.380 . S
O407 Eu367 2.612 1_455 S
O407 C423 1.276 1_455 S
O408 Eu356 2.432 1_655 S
O408 C430 1.264 . S
O409 Eu367 2.339 . S
O409 C430 1.254 . S
O410 Eu367 2.563 . S
O410 C423 1.235 . S
O411 Eu367 2.419 . S
O411 C431 1.249 1_556 S
C412 O401 1.276 . S
C412 O404 1.235 . S
C413 C415 1.393 . S
C413 C417 1.395 . S
C413 C420 1.492 . S
C414 C415 1.392 . S
C414 C416 1.386 . S
C415 C413 1.393 . S
C415 C414 1.392 . S
C415 H432 0.930 . S
C416 C414 1.386 . S
C416 C418 1.395 . S
C416 H433 0.930 . S
C417 C413 1.395 . S
C417 C418 1.379 . S
C417 H434 0.930 . S
C418 C416 1.395 . S
C418 C417 1.379 . S
C418 H435 0.930 . S
C419 O402 1.264 . S
C419 O403 1.254 . S
C420 Eu356 2.848 . S
C420 O400 1.257 . S
C420 O405 1.249 . S
C420 C413 1.492 . S
C421 H386 0.931 . S
C421 C399 1.420 . S
C421 C422 1.351 . S
C422 H384 0.930 . S
C422 C390 1.423 . S
C422 C421 1.351 . S
C423 O407 1.276 1_655 S
C423 O410 1.235 . S
C424 C425 1.393 . S
C424 C428 1.395 . S
C424 C431 1.492 . S
C425 C424 1.393 . S
C425 C426 1.392 . S
C425 H436 0.930 . S
C426 C425 1.392 . S
C426 C427 1.386 . S
C427 C426 1.386 . S
C427 C429 1.395 . S
C427 H437 0.930 . S
C428 C424 1.395 . S
C428 C429 1.379 . S
C428 H438 0.930 . S
C429 C427 1.395 . S
C429 C428 1.379 . S
C429 H439 0.930 . S
C430 O408 1.264 . S
C430 O409 1.254 . S
C431 Eu367 2.848 1_554 S
C431 O406 1.257 . S
C431 O411 1.249 1_554 S
C431 C424 1.492 . S
H432 C415 0.930 . S
H433 C416 0.930 . S
H434 C417 0.930 . S
H435 C418 0.930 . S
H436 C425 0.930 . S
H437 C427 0.930 . S
H438 C428 0.930 . S
H439 C429 0.930 . S
C440 C441 1.363 . S
C440 C446 1.379 . S
C440 N448 1.356 . S
C441 C440 1.363 . S
C441 C447 1.363 . S
C442 C443 1.363 . S
C442 C447 1.379 . S
C442 N449 1.356 1_545 S
C443 C442 1.363 . S
C443 C446 1.363 . S
N444 C446 1.356 . S
N444 H456 0.984 . S
N444 H457 0.985 . S
N445 C447 1.357 . S
N445 H450 0.985 . S
N445 H451 0.983 1_545 S
C446 C440 1.379 . S
C446 C443 1.363 . S
C446 N444 1.356 . S
C447 C441 1.363 . S
C447 C442 1.379 . S
C447 N445 1.357 . S
N448 C440 1.356 . S
N448 H454 0.984 . S
N448 H455 0.984 . S
N449 C442 1.356 1_565 S
N449 H452 0.984 . S
N449 H453 0.985 . S
H450 N445 0.985 . S
H451 N445 0.983 1_565 S
H452 N449 0.984 . S
H453 N449 0.985 . S
H454 N448 0.984 . S
H455 N448 0.984 . S
H456 N444 0.984 . S
H457 N444 0.985 . S
C458 C459 1.363 . S
C458 C464 1.379 . S
C458 N466 1.356 . S
C459 C458 1.363 . S
C459 C465 1.363 . S
C460 C461 1.363 . S
C460 C465 1.379 . S
C460 N467 1.356 . S
C461 C460 1.363 . S
C461 C464 1.363 . S
N462 C464 1.356 . S
N462 H474 0.984 . S
N462 H475 0.985 . S
N463 C465 1.356 . S
N463 H468 0.984 . S
N463 H469 0.985 . S
C464 C458 1.379 . S
C464 C461 1.363 . S
C464 N462 1.356 . S
C465 C459 1.363 . S
C465 C460 1.379 . S
C465 N463 1.356 . S
N466 C458 1.356 . S
N466 H472 0.984 . S
N466 H473 0.984 . S
N467 C460 1.356 . S
N467 H470 0.984 . S
N467 H471 0.985 . S
H468 N463 0.984 . S
H469 N463 0.985 . S
H470 N467 0.984 . S
H471 N467 0.985 . S
H472 N466 0.984 . S
H473 N466 0.984 . S
H474 N462 0.984 . S
H475 N462 0.985 . S
C476 C477 1.363 . S
C476 C482 1.379 . S
C476 N484 1.356 . S
C477 C476 1.363 . S
C477 C483 1.363 . S
C478 C479 1.363 . S
C478 C483 1.379 . S
C478 N485 1.356 . S
C479 C478 1.363 . S
C479 C482 1.363 . S
N480 C482 1.356 . S
N480 H492 0.984 . S
N480 H493 0.985 . S
N481 C483 1.356 . S
N481 H486 0.984 . S
N481 H487 0.985 . S
C482 C476 1.379 . S
C482 C479 1.363 . S
C482 N480 1.356 . S
C483 C477 1.363 . S
C483 C478 1.379 . S
C483 N481 1.356 . S
N484 C476 1.356 . S
N484 H490 0.984 . S
N484 H491 0.984 . S
N485 C478 1.356 . S
N485 H488 0.984 . S
N485 H489 0.985 . S
H486 N481 0.984 . S
H487 N481 0.985 . S
H488 N485 0.984 . S
H489 N485 0.985 . S
H490 N484 0.984 . S
H491 N484 0.984 . S
H492 N480 0.984 . S
H493 N480 0.985 . S
C494 C495 1.363 . S
C494 C500 1.379 . S
C494 N502 1.356 . S
C495 C494 1.363 . S
C495 C501 1.363 . S
C496 C497 1.363 . S
C496 C501 1.379 . S
C496 N503 1.356 1_455 S
C497 C496 1.363 . S
C497 C500 1.363 . S
N498 C500 1.356 . S
N498 H510 0.984 . S
N498 H511 0.985 . S
N499 C501 1.356 1_655 S
N499 H504 0.984 1_655 S
N499 H505 0.985 . S
C500 C494 1.379 . S
C500 C497 1.363 . S
C500 N498 1.356 . S
C501 C495 1.363 . S
C501 C496 1.379 . S
C501 N499 1.356 1_455 S
N502 C494 1.356 . S
N502 H508 0.984 . S
N502 H509 0.984 . S
N503 C496 1.356 1_655 S
N503 H506 0.984 . S
N503 H507 0.985 . S
H504 N499 0.984 1_455 S
H505 N499 0.985 . S
H506 N503 0.984 . S
H507 N503 0.985 . S
H508 N502 0.984 . S
H509 N502 0.984 . S
H510 N498 0.984 . S
H511 N498 0.985 . S
C512 C513 1.363 . S
C512 C518 1.379 . S
C512 N520 1.356 . S
C513 C512 1.363 . S
C513 C519 1.363 . S
C514 C515 1.361 1_554 S
C514 C519 1.379 . S
C514 N521 1.356 1_564 S
C515 C514 1.361 1_556 S
C515 C518 1.355 1_556 S
N516 C518 1.356 . S
N516 H528 0.984 . S
N516 H529 0.985 1_554 S
N517 C519 1.356 . S
N517 H522 0.984 . S
N517 H523 0.985 . S
C518 C512 1.379 . S
C518 C515 1.355 1_554 S
C518 N516 1.356 . S
C519 C513 1.363 . S
C519 C514 1.379 . S
C519 N517 1.356 . S
N520 C512 1.356 . S
N520 H526 0.984 . S
N520 H527 0.984 . S
N521 C514 1.356 1_546 S
N521 H524 0.984 . S
N521 H525 0.985 . S
H522 N517 0.984 . S
H523 N517 0.985 . S
H524 N521 0.984 . S
H525 N521 0.985 . S
H526 N520 0.984 . S
H527 N520 0.984 . S
H528 N516 0.984 . S
H529 N516 0.985 1_556 S
C530 C531 1.363 . S
C530 C536 1.379 . S
C530 N538 1.356 . S
C531 C530 1.363 . S
C531 C537 1.363 . S
C532 C533 1.363 1_554 S
C532 C537 1.379 . S
C532 N539 1.356 1_554 S
C533 C532 1.363 1_556 S
C533 C536 1.363 1_556 S
N534 C536 1.356 . S
N534 H546 0.984 . S
N534 H547 0.985 1_554 S
N535 C537 1.356 . S
N535 H540 0.984 . S
N535 H541 0.985 . S
C536 C530 1.379 . S
C536 C533 1.363 1_554 S
C536 N534 1.356 . S
C537 C531 1.363 . S
C537 C532 1.379 . S
C537 N535 1.356 . S
N538 C530 1.356 . S
N538 H544 0.984 . S
N538 H545 0.984 . S
N539 C532 1.356 1_556 S
N539 H542 0.984 . S
N539 H543 0.985 . S
H540 N535 0.984 . S
H541 N535 0.985 . S
H542 N539 0.984 . S
H543 N539 0.985 . S
H544 N538 0.984 . S
H545 N538 0.984 . S
H546 N534 0.984 . S
H547 N534 0.985 1_556 S
C548 C549 1.363 . S
C548 C554 1.379 . S
C548 N556 1.356 . S
C549 C548 1.363 . S
C549 C555 1.363 . S
C550 C551 1.363 1_554 S
C550 C555 1.379 . S
C550 N557 1.356 . S
C551 C550 1.363 1_556 S
C551 C554 1.363 1_556 S
N552 C554 1.356 1_556 S
N552 H564 0.984 . S
N552 H565 0.985 . S
N553 C555 1.356 . S
N553 H558 0.984 . S
N553 H559 0.985 . S
C554 C548 1.379 . S
C554 C551 1.363 1_554 S
C554 N552 1.356 1_554 S
C555 C549 1.363 . S
C555 C550 1.379 . S
C555 N553 1.356 . S
N556 C548 1.356 . S
N556 H562 0.984 . S
N556 H563 0.984 . S
N557 C550 1.356 . S
N557 H560 0.984 1_554 S
N557 H561 0.985 . S
H558 N553 0.984 . S
H559 N553 0.985 . S
H560 N557 0.984 1_556 S
H561 N557 0.985 . S
H562 N556 0.984 . S
H563 N556 0.984 . S
H564 N552 0.984 . S
H565 N552 0.985 . S
C566 C567 1.363 . S
C566 C572 1.379 . S
C566 N574 1.356 . S
C567 C566 1.363 . S
C567 C573 1.363 . S
C568 C569 1.363 1_554 S
C568 C573 1.379 . S
C568 N575 1.356 1_554 S
C569 C568 1.363 1_556 S
C569 C572 1.363 1_556 S
N570 C572 1.356 1_455 S
N570 H582 0.984 . S
N570 H583 0.985 1_554 S
N571 C573 1.356 . S
N571 H576 0.984 . S
N571 H577 0.985 . S
C572 C566 1.379 . S
C572 C569 1.363 1_554 S
C572 N570 1.356 1_655 S
C573 C567 1.363 . S
C573 C568 1.379 . S
C573 N571 1.356 . S
N574 C566 1.356 . S
N574 H580 0.984 1_655 S
N574 H581 0.984 . S
N575 C568 1.356 1_556 S
N575 H578 0.984 . S
N575 H579 0.985 . S
H576 N571 0.984 . S
H577 N571 0.985 . S
H578 N575 0.984 . S
H579 N575 0.985 . S
H580 N574 0.984 1_455 S
H581 N574 0.984 . S
H582 N570 0.984 . S
H583 N570 0.985 1_556 S
C584 C585 1.363 . S
C584 C590 1.379 1_455 S
C584 N592 1.356 . S
C585 C584 1.363 . S
C585 C591 1.363 . S
C586 C587 1.339 1_455 S
C586 C591 1.379 . S
C586 N593 1.356 . S
C587 C586 1.339 1_655 S
C587 C590 1.368 . S
N588 C590 1.356 . S
N588 H600 0.984 . S
N588 H601 0.985 . S
N589 C591 1.356 . S
N589 H594 0.984 . S
N589 H595 0.985 . S
C590 C584 1.379 1_655 S
C590 C587 1.368 . S
C590 N588 1.356 . S
C591 C585 1.363 . S
C591 C586 1.379 . S
C591 N589 1.356 . S
N592 C584 1.356 . S
N592 H598 0.984 . S
N592 H599 0.984 . S
N593 C586 1.356 . S
N593 H596 0.984 . S
N593 H597 0.985 . S
H594 N589 0.984 . S
H595 N589 0.985 . S
H596 N593 0.984 . S
H597 N593 0.985 . S
H598 N592 0.984 . S
H599 N592 0.984 . S
H600 N588 0.984 . S
H601 N588 0.985 . S
C602 C603 1.363 . S
C602 C608 1.379 . S
C602 N610 1.356 . S
C603 C602 1.363 . S
C603 C609 1.363 . S
C604 C605 1.364 . S
C604 C609 1.379 1_565 S
C604 N611 1.356 . S
C605 C604 1.364 . S
C605 C608 1.340 1_565 S
N606 C608 1.356 . S
N606 H618 0.984 . S
N606 H619 0.985 1_545 S
N607 C609 1.356 1_556 S
N607 H612 0.984 . S
N607 H613 0.985 . S
C608 C602 1.379 . S
C608 C605 1.340 1_545 S
C608 N606 1.356 . S
C609 C603 1.363 . S
C609 C604 1.379 1_545 S
C609 N607 1.356 1_554 S
N610 C602 1.356 . S
N610 H616 0.984 . S
N610 H617 0.984 . S
N611 C604 1.356 . S
N611 H614 0.984 . S
N611 H615 0.985 1_554 S
H612 N607 0.984 . S
H613 N607 0.985 . S
H614 N611 0.984 . S
H615 N611 0.985 1_556 S
H616 N610 0.984 . S
H617 N610 0.984 . S
H618 N606 0.984 . S
H619 N606 0.985 1_565 S
C620 C621 1.363 . S
C620 C626 1.379 . S
C620 N628 1.356 1_554 S
C621 C620 1.363 . S
C621 C627 1.363 . S
C622 C623 1.363 . S
C622 C627 1.379 . S
C622 N629 1.356 . S
C623 C622 1.363 . S
C623 C626 1.363 . S
N624 C626 1.356 . S
N624 H636 0.984 1_554 S
N624 H637 0.985 . S
N625 C627 1.356 . S
N625 H630 0.984 . S
N625 H631 0.985 . S
C626 C620 1.379 . S
C626 C623 1.363 . S
C626 N624 1.356 . S
C627 C621 1.363 . S
C627 C622 1.379 . S
C627 N625 1.356 . S
N628 C620 1.356 1_556 S
N628 H634 0.984 . S
N628 H635 0.984 . S
N629 C622 1.356 . S
N629 H632 0.984 . S
N629 H633 0.985 . S
H630 N625 0.984 . S
H631 N625 0.985 . S
H632 N629 0.984 . S
H633 N629 0.985 . S
H634 N628 0.984 . S
H635 N628 0.984 . S
H636 N624 0.984 1_556 S
H637 N624 0.985 . S
C638 C639 1.363 . S
C638 C644 1.379 . S
C638 N646 1.356 . S
C639 C638 1.363 . S
C639 C645 1.363 . S
C640 C641 1.363 . S
C640 C645 1.379 . S
C640 N647 1.356 . S
C641 C640 1.363 . S
C641 C644 1.363 . S
N642 C644 1.356 . S
N642 H654 0.984 . S
N642 H655 0.985 . S
N643 C645 1.356 . S
N643 H648 0.984 . S
N643 H649 0.985 . S
C644 C638 1.379 . S
C644 C641 1.363 . S
C644 N642 1.356 . S
C645 C639 1.363 . S
C645 C640 1.379 . S
C645 N643 1.356 . S
N646 C638 1.356 . S
N646 H652 0.984 . S
N646 H653 0.984 . S
N647 C640 1.356 . S
N647 H650 0.984 . S
N647 H651 0.985 . S
H648 N643 0.984 . S
H649 N643 0.985 . S
H650 N647 0.984 . S
H651 N647 0.985 . S
H652 N646 0.984 . S
H653 N646 0.984 . S
H654 N642 0.984 . S
H655 N642 0.985 . S
C656 C657 1.363 . S
C656 C662 1.379 . S
C656 N664 1.356 . S
C657 C656 1.363 . S
C657 C663 1.363 . S
C658 C659 1.363 . S
C658 C663 1.379 1_455 S
C658 N665 1.356 . S
C659 C658 1.363 . S
C659 C662 1.363 1_455 S
N660 C662 1.356 1_455 S
N660 H672 0.984 1_455 S
N660 H673 0.985 . S
N661 C663 1.356 . S
N661 H666 0.984 . S
N661 H667 0.985 . S
C662 C656 1.379 . S
C662 C659 1.363 1_655 S
C662 N660 1.356 1_655 S
C663 C657 1.363 . S
C663 C658 1.379 1_655 S
C663 N661 1.356 . S
N664 C656 1.356 . S
N664 H670 0.984 . S
N664 H671 0.984 . S
N665 C658 1.356 . S
N665 H668 0.984 . S
N665 H669 0.985 . S
H666 N661 0.984 . S
H667 N661 0.985 . S
H668 N665 0.984 . S
H669 N665 0.985 . S
H670 N664 0.984 . S
H671 N664 0.984 . S
H672 N660 0.984 1_655 S
H673 N660 0.985 . S
C674 C675 1.363 . S
C674 C680 1.379 1_565 S
C674 N682 1.356 . S
C675 C674 1.363 . S
C675 C681 1.363 . S
C676 C677 1.363 . S
C676 C681 1.379 1_545 S
C676 N683 1.356 . S
C677 C676 1.363 . S
C677 C680 1.363 . S
N678 C680 1.356 . S
N678 H690 0.984 1_554 S
N678 H691 0.985 . S
N679 C681 1.356 . S
N679 H684 0.984 . S
N679 H685 0.985 . S
C680 C674 1.379 1_545 S
C680 C677 1.363 . S
C680 N678 1.356 . S
C681 C675 1.363 . S
C681 C676 1.379 1_565 S
C681 N679 1.356 . S
N682 C674 1.356 . S
N682 H688 0.984 . S
N682 H689 0.984 . S
N683 C676 1.356 . S
N683 H686 0.984 . S
N683 H687 0.985 . S
H684 N679 0.984 . S
H685 N679 0.985 . S
H686 N683 0.984 . S
H687 N683 0.985 . S
H688 N682 0.984 . S
H689 N682 0.984 . S
H690 N678 0.984 1_556 S
H691 N678 0.985 . S
C692 C693 1.363 . S
C692 C698 1.379 . S
C692 N700 1.356 . S
C693 C692 1.363 . S
C693 C699 1.363 . S
C694 C695 1.363 . S
C694 C699 1.379 . S
C694 N701 1.356 . S
C695 C694 1.363 . S
C695 C698 1.363 . S
N696 C698 1.356 . S
N696 H708 0.984 . S
N696 H709 0.985 . S
N697 C699 1.356 . S
N697 H702 0.984 . S
N697 H703 0.985 . S
C698 C692 1.379 . S
C698 C695 1.363 . S
C698 N696 1.356 . S
C699 C693 1.363 . S
C699 C694 1.379 . S
C699 N697 1.356 . S
N700 C692 1.356 . S
N700 H706 0.984 . S
N700 H707 0.984 . S
N701 C694 1.356 . S
N701 H704 0.984 . S
N701 H705 0.985 . S
H702 N697 0.984 . S
H703 N697 0.985 . S
H704 N701 0.984 . S
H705 N701 0.985 . S
H706 N700 0.984 . S
H707 N700 0.984 . S
H708 N696 0.984 . S
H709 N696 0.985 . S
C710 C711 1.363 . S
C710 C716 1.379 . S
C710 N718 1.356 . S
C711 C710 1.363 . S
C711 C717 1.363 . S
C712 C713 1.363 . S
C712 C717 1.379 . S
C712 N719 1.356 . S
C713 C712 1.363 . S
C713 C716 1.363 . S
N714 C716 1.356 . S
N714 H726 0.984 . S
N714 H727 0.985 . S
N715 C717 1.356 . S
N715 H720 0.984 . S
N715 H721 0.985 . S
C716 C710 1.379 . S
C716 C713 1.363 . S
C716 N714 1.356 . S
C717 C711 1.363 . S
C717 C712 1.379 . S
C717 N715 1.356 . S
N718 C710 1.356 . S
N718 H724 0.984 . S
N718 H725 0.984 . S
N719 C712 1.356 . S
N719 H722 0.984 . S
N719 H723 0.985 . S
H720 N715 0.984 . S
H721 N715 0.985 . S
H722 N719 0.984 . S
H723 N719 0.985 . S
H724 N718 0.984 . S
H725 N718 0.984 . S
H726 N714 0.984 . S
H727 N714 0.985 . S
C728 C729 1.363 . S
C728 C734 1.379 . S
C728 N736 1.356 . S
C729 C728 1.363 . S
C729 C735 1.363 . S
C730 C731 1.363 . S
C730 C735 1.379 . S
C730 N737 1.356 . S
C731 C730 1.363 . S
C731 C734 1.363 . S
N732 C734 1.356 . S
N732 H744 0.984 1_556 S
N732 H745 0.985 . S
N733 C735 1.356 . S
N733 H738 0.984 . S
N733 H739 0.985 1_455 S
C734 C728 1.379 . S
C734 C731 1.363 . S
C734 N732 1.356 . S
C735 C729 1.363 . S
C735 C730 1.379 . S
C735 N733 1.356 . S
N736 C728 1.356 . S
N736 H742 0.984 1_556 S
N736 H743 0.984 . S
N737 C730 1.356 . S
N737 H740 0.984 . S
N737 H741 0.985 1_455 S
H738 N733 0.984 . S
H739 N733 0.985 1_655 S
H740 N737 0.984 . S
H741 N737 0.985 1_655 S
H742 N736 0.984 1_554 S
H743 N736 0.984 . S
H744 N732 0.984 1_554 S
H745 N732 0.985 . S
C746 C747 1.363 . S
C746 C752 1.379 . S
C746 N754 1.356 . S
C747 C746 1.363 . S
C747 C753 1.363 . S
C748 C749 1.363 . S
C748 C753 1.379 . S
C748 N755 1.356 . S
C749 C748 1.363 . S
C749 C752 1.363 . S
N750 C752 1.356 . S
N750 H762 0.984 . S
N750 H763 0.985 . S
N751 C753 1.356 . S
N751 H756 0.984 . S
N751 H757 0.985 1_556 S
C752 C746 1.379 . S
C752 C749 1.363 . S
C752 N750 1.356 . S
C753 C747 1.363 . S
C753 C748 1.379 . S
C753 N751 1.356 . S
N754 C746 1.356 . S
N754 H760 0.984 . S
N754 H761 0.984 . S
N755 C748 1.356 . S
N755 H758 0.984 . S
N755 H759 0.985 1_556 S
H756 N751 0.984 . S
H757 N751 0.985 1_554 S
H758 N755 0.984 . S
H759 N755 0.985 1_554 S
H760 N754 0.984 . S
H761 N754 0.984 . S
H762 N750 0.984 . S
H763 N750 0.985 . S
C764 C765 1.363 . S
C764 C770 1.379 . S
C764 N772 1.356 . S
C765 C764 1.363 . S
C765 C771 1.363 . S
C766 C767 1.363 . S
C766 C771 1.379 . S
C766 N773 1.356 . S
C767 C766 1.363 . S
C767 C770 1.363 . S
N768 C770 1.356 . S
N768 H780 0.984 . S
N768 H781 0.985 . S
N769 C771 1.356 . S
N769 H774 0.984 . S
N769 H775 0.985 1_556 S
C770 C764 1.379 . S
C770 C767 1.363 . S
C770 N768 1.356 . S
C771 C765 1.363 . S
C771 C766 1.379 . S
C771 N769 1.356 . S
N772 C764 1.356 . S
N772 H778 0.984 . S
N772 H779 0.984 . S
N773 C766 1.356 . S
N773 H776 0.984 . S
N773 H777 0.985 1_556 S
H774 N769 0.984 . S
H775 N769 0.985 1_554 S
H776 N773 0.984 . S
H777 N773 0.985 1_554 S
H778 N772 0.984 . S
H779 N772 0.984 . S
H780 N768 0.984 . S
H781 N768 0.985 . S
C782 C783 1.363 . S
C782 C788 1.379 . S
C782 N790 1.356 . S
C783 C782 1.363 . S
C783 C789 1.363 . S
C784 C785 1.363 . S
C784 C789 1.379 . S
C784 N791 1.356 . S
C785 C784 1.363 . S
C785 C788 1.363 . S
N786 C788 1.356 . S
N786 H798 0.984 1_556 S
N786 H799 0.985 . S
N787 C789 1.356 . S
N787 H792 0.984 . S
N787 H793 0.985 . S
C788 C782 1.379 . S
C788 C785 1.363 . S
C788 N786 1.356 . S
C789 C783 1.363 . S
C789 C784 1.379 . S
C789 N787 1.356 . S
N790 C782 1.356 . S
N790 H796 0.984 1_556 S
N790 H797 0.984 . S
N791 C784 1.356 . S
N791 H794 0.984 . S
N791 H795 0.985 . S
H792 N787 0.984 . S
H793 N787 0.985 . S
H794 N791 0.984 . S
H795 N791 0.985 . S
H796 N790 0.984 1_554 S
H797 N790 0.984 . S
H798 N786 0.984 1_554 S
H799 N786 0.985 . S
C800 C801 1.363 . S
C800 C806 1.379 . S
C800 N808 1.356 . S
C801 C800 1.363 . S
C801 C807 1.363 . S
C802 C803 1.363 . S
C802 C807 1.379 . S
C802 N809 1.356 . S
C803 C802 1.363 . S
C803 C806 1.363 . S
N804 C806 1.356 1_455 S
N804 H816 0.984 . S
N804 H817 0.985 . S
N805 C807 1.356 . S
N805 H810 0.984 . S
N805 H811 0.985 . S
C806 C800 1.379 . S
C806 C803 1.363 . S
C806 N804 1.356 1_655 S
C807 C801 1.363 . S
C807 C802 1.379 . S
C807 N805 1.356 . S
N808 C800 1.356 . S
N808 H814 0.984 1_655 S
N808 H815 0.984 . S
N809 C802 1.356 . S
N809 H812 0.984 . S
N809 H813 0.985 . S
H810 N805 0.984 . S
H811 N805 0.985 . S
H812 N809 0.984 . S
H813 N809 0.985 . S
H814 N808 0.984 1_455 S
H815 N808 0.984 . S
H816 N804 0.984 . S
H817 N804 0.985 . S
C818 C819 1.363 . S
C818 C824 1.379 . S
C818 N826 1.356 . S
C819 C818 1.363 . S
C819 C825 1.363 1_565 S
C820 C821 1.363 1_545 S
C820 C825 1.379 . S
C820 N827 1.356 . S
C821 C820 1.363 1_565 S
C821 C824 1.363 . S
N822 C824 1.356 . S
N822 H834 0.984 . S
N822 H835 0.985 . S
N823 C825 1.356 . S
N823 H828 0.984 . S
N823 H829 0.985 . S
C824 C818 1.379 . S
C824 C821 1.363 . S
C824 N822 1.356 . S
C825 C819 1.363 1_545 S
C825 C820 1.379 . S
C825 N823 1.356 . S
N826 C818 1.356 . S
N826 H832 0.984 . S
N826 H833 0.984 . S
N827 C820 1.356 . S
N827 H830 0.984 . S
N827 H831 0.985 . S
H828 N823 0.984 . S
H829 N823 0.985 . S
H830 N827 0.984 . S
H831 N827 0.985 . S
H832 N826 0.984 . S
H833 N826 0.984 . S
H834 N822 0.984 . S
H835 N822 0.985 . S
C836 C837 1.363 . S
C836 C842 1.379 . S
C836 N844 1.356 . S
C837 C836 1.363 . S
C837 C843 1.363 . S
C838 C839 1.363 . S
C838 C843 1.379 . S
C838 N845 1.356 . S
C839 C838 1.363 . S
C839 C842 1.363 . S
N840 C842 1.356 . S
N840 H852 0.984 . S
N840 H853 0.985 . S
N841 C843 1.356 . S
N841 H846 0.984 . S
N841 H847 0.985 . S
C842 C836 1.379 . S
C842 C839 1.363 . S
C842 N840 1.356 . S
C843 C837 1.363 . S
C843 C838 1.379 . S
C843 N841 1.356 . S
N844 C836 1.356 . S
N844 H850 0.984 . S
N844 H851 0.984 . S
N845 C838 1.356 . S
N845 H848 0.984 . S
N845 H849 0.985 . S
H846 N841 0.984 . S
H847 N841 0.985 . S
H848 N845 0.984 . S
H849 N845 0.985 . S
H850 N844 0.984 . S
H851 N844 0.984 . S
H852 N840 0.984 . S
H853 N840 0.985 . S
C854 C855 1.363 . S
C854 C860 1.379 . S
C854 N862 1.356 . S
C855 C854 1.363 . S
C855 C861 1.363 . S
C856 C857 1.363 . S
C856 C861 1.379 . S
C856 N863 1.356 . S
C857 C856 1.363 . S
C857 C860 1.363 . S
N858 C860 1.356 . S
N858 H870 0.984 . S
N858 H871 0.985 . S
N859 C861 1.356 . S
N859 H864 0.984 . S
N859 H865 0.985 . S
C860 C854 1.379 . S
C860 C857 1.363 . S
C860 N858 1.356 . S
C861 C855 1.363 . S
C861 C856 1.379 . S
C861 N859 1.356 . S
N862 C854 1.356 . S
N862 H868 0.984 . S
N862 H869 0.984 . S
N863 C856 1.356 . S
N863 H866 0.984 . S
N863 H867 0.985 . S
H864 N859 0.984 . S
H865 N859 0.985 . S
H866 N863 0.984 . S
H867 N863 0.985 . S
H868 N862 0.984 . S
H869 N862 0.984 . S
H870 N858 0.984 . S
H871 N858 0.985 . S
C441 C82 1.803 . S
C443 C178 2.083 . S
C461 C262 2.094 . S
C459 C95 1.818 . S
C479 C328 2.004 . S
C477 C56 1.894 . S
C497 C412 1.996 . S
C495 C69 1.880 . S
C515 C167 2.091 1_565 S
C513 C30 1.748 . S
C531 C43 1.754 . S
C533 C251 2.093 . S
C549 C4 1.823 . S
C551 C339 2.003 . S
C567 C17 1.817 . S
C569 C423 1.996 . S
C587 C174 0.970 . S
C585 C74 0.895 . S
C605 C258 0.938 . S
C603 C87 0.870 . S
C623 C330 0.888 . S
C621 C100 0.847 . S
C639 C61 0.870 . S
C641 C414 0.922 . S
C657 C22 0.892 . S
C659 C162 0.949 . S
C677 C246 0.913 . S
C675 C35 0.868 . S
C695 C342 0.889 . S
C693 C48 0.845 . S
C711 C9 0.867 . S
C713 C426 0.922 . S
C729 C73 2.108 . S
C731 C171 2.210 . S
C747 C86 2.087 . S
C749 C255 2.189 . S
C767 C335 2.278 . S
C765 C99 2.008 . S
C785 C419 2.298 . S
C783 C60 2.028 . S
C801 C21 2.104 . S
C803 C160 2.210 . S
C821 C244 2.189 . S
C819 C34 2.083 . S
C839 C346 2.278 . S
C837 C47 2.004 . S
C855 C8 2.024 . S
C857 C430 2.298 . S
