# Generated by pormake.
# Topology tsx, (6,3)-cn, num edge types: 1
# Building blocks:
#     Node 0, Type 0, BuildingBlock: JUFBIX_clean_sbu_0, # of connection points: 6
#     Node 1, Type 0, BuildingBlock: JUFBIX_clean_sbu_0, # of connection points: 6
#     Node 2, Type 1, BuildingBlock: BELTOD_clean_linker_0, # of connection points: 3
#     Node 3, Type 1, BuildingBlock: BELTOD_clean_linker_0, # of connection points: 3
#     Node 4, Type 1, BuildingBlock: BELTOD_clean_linker_0, # of connection points: 3
#     Node 5, Type 1, BuildingBlock: BELTOD_clean_linker_0, # of connection points: 3
#     Edge 6, Type (0, 1), BuildingBlock: OJICUG_clean_linker_0, # of connection points: 2
#     Edge 7, Type (0, 1), BuildingBlock: OJICUG_clean_linker_0, # of connection points: 2
#     Edge 8, Type (0, 1), BuildingBlock: OJICUG_clean_linker_0, # of connection points: 2
#     Edge 9, Type (0, 1), BuildingBlock: OJICUG_clean_linker_0, # of connection points: 2
#     Edge 10, Type (0, 1), BuildingBlock: OJICUG_clean_linker_0, # of connection points: 2
#     Edge 11, Type (0, 1), BuildingBlock: OJICUG_clean_linker_0, # of connection points: 2
#     Edge 12, Type (0, 1), BuildingBlock: OJICUG_clean_linker_0, # of connection points: 2
#     Edge 13, Type (0, 1), BuildingBlock: OJICUG_clean_linker_0, # of connection points: 2
#     Edge 14, Type (0, 1), BuildingBlock: OJICUG_clean_linker_0, # of connection points: 2
#     Edge 15, Type (0, 1), BuildingBlock: OJICUG_clean_linker_0, # of connection points: 2
#     Edge 16, Type (0, 1), BuildingBlock: OJICUG_clean_linker_0, # of connection points: 2
#     Edge 17, Type (0, 1), BuildingBlock: OJICUG_clean_linker_0, # of connection points: 2
# Relax obj value: 0.145
# Max RMSD: 0.163
# Mean RMSD: 0.130
data_MOF--net-tsx--node1-JUFBIX_clean_sbu_0--node2-BELTOD_clean_linker_0--edge1-OJICUG_clean_linker_0
_symmetry_space_group_name_H-M    P1
_symmetry_Int_Tables_number       1
_symmetry_cell_setting            triclinic
loop_
_symmetry_equiv_pos_as_xyz
'x, y, z'
_cell_length_a     17.249998
_cell_length_b     20.549924
_cell_length_c     30.577085
_cell_angle_alpha  93.644744
_cell_angle_beta   89.369544
_cell_angle_gamma 100.43053
loop_
_atom_site_label
_atom_site_type_symbol
_atom_site_fract_x
_atom_site_fract_y
_atom_site_fract_z
_atom_type_partial_charge
Co0 Co 0.05176 0.97827 0.00089 0.0
C1 C 0.96697 0.99941 0.92679 0.0
Co2 Co 0.95705 0.03707 0.01333 0.0
C3 C 0.15748 0.88062 0.0034 0.0
C4 C 0.17563 0.94169 0.94862 0.0
N5 N 0.13182 0.93134 0.98526 0.0
N6 N 0.21447 0.85893 0.97886 0.0
C7 C 0.22591 0.89712 0.9445 0.0
H8 H 0.13387 0.8592 0.03327 0.0
H9 H 0.17061 0.97894 0.92588 0.0
C10 C 0.04094 0.01511 0.08781 0.0
N11 N 0.87775 0.0849 0.02762 0.0
C12 C 0.85674 0.13444 0.00609 0.0
C13 C 0.83239 0.08085 0.06395 0.0
N14 N 0.80093 0.16184 0.02784 0.0
C15 C 0.78563 0.12854 0.06436 0.0
C16 C 0.90888 0.90033 0.01751 0.0
O17 O 0.08126 0.98465 0.06112 0.0
O18 O 0.9852 0.0405 0.07324 0.0
O19 O 0.88537 0.95575 0.0203 0.0
O20 O 0.98104 0.89889 0.00943 0.0
O21 O 0.92996 0.03328 0.95295 0.0
H22 H 0.83461 0.04651 0.0891 0.0
H23 H 0.88416 0.15194 0.97596 0.0
O24 O 0.02063 0.97193 0.9415 0.0
O25 O 0.12208 0.05873 0.99225 0.0
O26 O 0.02968 0.11751 0.00678 0.0
C27 C 0.10082 0.11478 -0.00313 0.0
H28 H 0.2679 0.89295 0.91835 0.0
H29 H 0.74423 0.13853 0.08968 0.0
Co30 Co 0.54819 0.47378 0.50159 0.0
C31 C 0.46739 0.49364 0.42608 0.0
Co32 Co 0.45144 0.53072 0.5126 0.0
C33 C 0.65516 0.37736 0.50563 0.0
C34 C 0.68188 0.44484 0.45465 0.0
N35 N 0.63113 0.42917 0.48791 0.0
N36 N 0.71874 0.36089 0.48448 0.0
C37 C 0.73573 0.40319 0.45258 0.0
H38 H 0.627 0.35253 0.53337 0.0
H39 H 0.6798 0.48423 0.43308 0.0
C40 C 0.53187 0.51013 0.58843 0.0
N41 N 0.36923 0.57597 0.52517 0.0
C42 C 0.34876 0.62612 0.50407 0.0
C43 C 0.31977 0.56823 0.55971 0.0
N44 N 0.28924 0.6504 0.52442 0.0
C45 C 0.27097 0.6143 0.55953 0.0
C46 C 0.40626 0.3935 0.51616 0.0
O47 O 0.57467 0.48134 0.56225 0.0
O48 O 0.47546 0.534 0.57319 0.0
O49 O 0.3817 0.4484 0.51797 0.0
O50 O 0.47908 0.39298 0.50951 0.0
O51 O 0.4286 0.52699 0.45161 0.0
H52 H 0.32037 0.53235 0.58405 0.0
H53 H 0.37897 0.64621 0.47532 0.0
O54 O 0.52056 0.46642 0.44167 0.0
O55 O 0.61651 0.5557 0.4937 0.0
O56 O 0.52209 0.61254 0.50762 0.0
C57 C 0.59373 0.61113 0.49827 0.0
H58 H 0.78386 0.40376 0.42949 0.0
H59 H 0.22609 0.62124 0.58353 0.0
P60 P 0.1359 0.07801 0.42429 0.0
H61 H 0.12576 0.21698 0.43574 0.0
H62 H 0.02207 0.27605 0.46092 0.0
H63 H 0.87204 0.09018 0.48674 0.0
H64 H 0.97761 0.03071 0.46143 0.0
H65 H 0.24475 0.04923 0.48923 0.0
H66 H 0.27053 0.94605 0.51621 0.0
H67 H 0.07661 0.83632 0.43885 0.0
H68 H 0.04912 0.94069 0.41304 0.0
H69 H 0.99255 0.04073 0.37086 0.0
H70 H 0.24402 0.07438 0.35042 0.0
O71 O 0.22162 0.13042 0.43089 0.0
H72 H 0.97129 0.02109 0.292 0.0
H73 H 0.2233 0.0561 0.27123 0.0
C74 C 0.05999 0.11955 0.44736 0.0
C75 C 0.07122 0.18877 0.44751 0.0
C76 C 0.01183 0.22261 0.46219 0.0
C77 C 0.93902 0.18794 0.47639 0.0
C78 C 0.92759 0.11828 0.47615 0.0
C79 C 0.98783 0.0843 0.46181 0.0
C80 C 0.14505 0.00271 0.44921 0.0
C81 C 0.20622 0.00333 0.47903 0.0
C82 C 0.22116 0.94423 0.49429 0.0
C83 C 0.17605 0.88321 0.47925 0.0
C84 C 0.11278 0.88275 0.45054 0.0
C85 C 0.09688 0.94226 0.43597 0.0
C86 C 0.11985 0.06079 0.36636 0.0
C87 C 0.04323 0.04433 0.3494 0.0
C88 C 0.03119 0.03318 0.30424 0.0
C89 C 0.09564 0.03794 0.27524 0.0
C90 C 0.17242 0.05185 0.29263 0.0
C91 C 0.18433 0.06293 0.33785 0.0
P92 P 0.05191 0.95577 0.60076 0.0
H93 H 0.04145 0.83292 0.54638 0.0
H94 H 0.93084 0.76123 0.51055 0.0
H95 H 0.78973 0.91427 0.53297 0.0
H96 H 0.90052 0.98433 0.57166 0.0
H97 H 0.2202 0.00713 0.60311 0.0
H98 H 0.29976 0.11038 0.58212 0.0
H99 H 0.08985 0.17487 0.53897 0.0
H100 H 0.01027 0.07085 0.56021 0.0
H101 H 0.93237 0.874 0.65063 0.0
H102 H 0.07114 0.07122 0.66463 0.0
O103 O 0.11288 0.90419 0.61111 0.0
H104 H 0.88797 0.8851 0.72648 0.0
H105 H 0.02712 0.08233 0.74037 0.0
C106 C 0.97898 0.91362 0.5622 0.0
C107 C 0.98738 0.85179 0.54278 0.0
C108 C 0.92361 0.81077 0.5218 0.0
C109 C 0.8501 0.83111 0.51941 0.0
C110 C 0.84455 0.89605 0.53519 0.0
C111 C 0.90833 0.93674 0.55678 0.0
C112 C 0.10959 0.03025 0.5817 0.0
C113 C 0.19124 0.04286 0.58838 0.0
C114 C 0.23683 0.1021 0.57631 0.0
C115 C 0.20155 0.15015 0.55743 0.0
C116 C 0.11913 0.13831 0.55236 0.0
C117 C 0.07353 0.07863 0.56423 0.0
C118 C 1.00469 0.97181 0.65191 0.0
C119 C 0.95131 0.92044 0.66955 0.0
C120 C 0.92613 0.92674 0.71287 0.0
C121 C 0.95435 0.98448 0.73926 0.0
C122 C 1.00364 0.03763 0.72059 0.0
C123 C 0.02917 0.03113 0.67727 0.0
P124 P 0.63846 0.58531 0.92421 0.0
H125 H 0.63114 0.72111 0.95549 0.0
H126 H 0.52253 0.77559 0.9796 0.0
H127 H 0.36377 0.58695 0.97058 0.0
H128 H 0.47353 0.53213 0.94678 0.0
H129 H 0.76302 0.55934 0.98063 0.0
H130 H 0.79337 0.45802 0.00821 0.0
H131 H 0.58068 0.34611 0.94863 0.0
H132 H 0.54933 0.44849 0.92186 0.0
H133 H 0.5573 0.65102 0.86156 0.0
H134 H 0.67823 0.48456 0.85921 0.0
O135 O 0.7223 0.64057 0.92787 0.0
H136 H 0.53398 0.63219 0.78308 0.0
H137 H 0.65191 0.46336 0.78086 0.0
C138 C 0.56085 0.6223 0.94985 0.0
C139 C 0.57353 0.69098 0.95967 0.0
C140 C 0.51134 0.72217 0.97373 0.0
C141 C 0.4347 0.6855 0.97727 0.0
C142 C 0.42234 0.61637 0.96837 0.0
C143 C 0.48507 0.58499 0.95489 0.0
C144 C 0.65367 0.51166 0.94945 0.0
C145 C 0.7218 0.51344 0.97431 0.0
C146 C 0.73926 0.45542 0.99 0.0
C147 C 0.68952 0.39428 0.98039 0.0
C148 C 0.62016 0.39267 0.95631 0.0
C149 C 0.60192 0.45114 0.94136 0.0
C150 C 0.61707 0.56784 0.86667 0.0
C151 C 0.57736 0.60945 0.84437 0.0
C152 C 0.56385 0.59845 0.79934 0.0
C153 C 0.59004 0.5456 0.77555 0.0
C154 C 0.63111 0.50464 0.79798 0.0
C155 C 0.64522 0.51615 0.84303 0.0
P156 P 0.56251 0.45725 0.09959 0.0
H157 H 0.55027 0.33141 0.0483 0.0
H158 H 0.4395 0.25983 0.0125 0.0
H159 H 0.30235 0.41645 0.02923 0.0
H160 H 0.4129 0.48646 0.06801 0.0
H161 H 0.73103 0.50616 0.09316 0.0
H162 H 0.80807 0.61081 0.07311 0.0
H163 H 0.5934 0.68296 0.0484 0.0
H164 H 0.51636 0.57726 0.06808 0.0
H165 H 0.44284 0.37382 0.14852 0.0
H166 H 0.58232 0.57051 0.16515 0.0
O167 O 0.62534 0.40699 0.1094 0.0
H168 H 0.39765 0.38291 0.22435 0.0
H169 H 0.53709 0.57974 0.24079 0.0
C170 C 0.48981 0.41418 0.06116 0.0
C171 C 0.49707 0.35106 0.0435 0.0
C172 C 0.43327 0.31008 0.0225 0.0
C173 C 0.36082 0.33165 0.0184 0.0
C174 C 0.35637 0.39743 0.03268 0.0
C175 C 0.42014 0.43811 0.05429 0.0
C176 C 0.61785 0.53292 0.08068 0.0
C177 C 0.70027 0.54386 0.08256 0.0
C178 C 0.74446 0.60398 0.071 0.0
C179 C 0.7071 0.65473 0.0575 0.0
C180 C 0.62421 0.64437 0.05725 0.0
C181 C 0.57994 0.5837 0.06832 0.0
C182 C 0.5153 0.47165 0.15102 0.0
C183 C 0.46175 0.41975 0.16799 0.0
C184 C 0.43613 0.42487 0.21131 0.0
C185 C 0.46394 0.48201 0.23834 0.0
C186 C 0.51382 0.53556 0.22046 0.0
C187 C 0.53994 0.53017 0.17719 0.0
C188 C 0.15265 0.23287 0.021 0.0
C189 C 0.1607 0.17569 -0.00493 0.0
H190 H 0.2098 0.32642 0.04951 0.0
C191 C 0.23071 0.17464 0.9714 0.0
H192 H 0.0993 0.23491 0.03968 0.0
C193 C 0.29358 0.22801 0.97592 0.0
C194 C 0.28861 0.28284 0.00518 0.0
H195 H 0.23795 0.13145 0.95061 0.0
H196 H 0.34735 0.22479 0.95797 0.0
C197 C 0.21617 0.28565 0.02636 0.0
C198 C 0.24977 0.75203 0.95529 0.0
C199 C 0.25642 0.80638 0.98603 0.0
H200 H 0.30031 0.67005 0.92909 0.0
C201 C 0.31568 0.81529 0.01798 0.0
H202 H 0.2051 0.74523 0.92997 0.0
C203 C 0.37119 0.77313 0.01715 0.0
C204 C 0.36745 0.72098 0.98462 0.0
H205 H 0.3224 0.85771 0.04142 0.0
H206 H 0.41931 0.78325 0.04049 0.0
C207 C 0.30422 0.70922 0.95485 0.0
C208 C 0.87506 0.77686 0.01189 0.0
C209 C 0.85381 0.83804 0.02476 0.0
H210 H 0.84438 0.67143 0.0107 0.0
C211 C 0.78131 0.83876 0.04603 0.0
H212 H 0.93001 0.77465 -0.00515 0.0
C213 C 0.73258 0.77932 0.05589 0.0
C214 C 0.75517 0.71804 0.04431 0.0
H215 H 0.76343 0.88524 0.05635 0.0
H216 H 0.67864 0.78159 0.07389 0.0
C217 C 0.82609 0.71764 0.02124 0.0
C218 C 0.74545 0.2239 0.97321 0.0
C219 C 0.76934 0.21854 0.01636 0.0
H220 H 0.69916 0.28332 0.92829 0.0
C221 C 0.76382 0.27003 0.04803 0.0
H222 H 0.74917 0.18462 0.94837 0.0
C223 C 0.73709 0.32687 0.03645 0.0
C224 C 0.71296 0.33232 0.99333 0.0
H225 H 0.78266 0.26711 0.08139 0.0
H226 H 0.73606 0.3669 0.06109 0.0
C227 C 0.71643 0.27994 0.9619 0.0
C228 C 0.72154 0.67356 0.47204 0.0
C229 C 0.65229 0.67283 0.49667 0.0
H230 H 0.83659 0.72597 0.45757 0.0
C231 C 0.64381 0.72901 0.52351 0.0
H232 H 0.72898 0.63115 0.45053 0.0
C233 C 0.70642 0.78258 0.52874 0.0
C234 C 0.77827 0.7816 0.50647 0.0
H235 H 0.59099 0.72961 0.54293 0.0
H236 H 0.69995 0.82248 0.55257 0.0
C237 C 0.78339 0.72778 0.47637 0.0
C238 C 0.83592 0.32892 0.51472 0.0
C239 C 0.76323 0.31065 0.49323 0.0
H240 H 0.94814 0.3033 0.52738 0.0
C241 C 0.74395 0.24748 0.47176 0.0
H242 H 0.85211 0.37797 0.53076 0.0
C243 C 0.79895 0.2048 0.46927 0.0
C244 C 0.8744 0.22519 0.48785 0.0
H245 H 0.6887 0.23333 0.45418 0.0
H246 H 0.78465 0.15823 0.4499 0.0
C247 C 0.89089 0.28649 0.51229 0.0
C248 C 0.37528 0.26985 0.51503 0.0
C249 C 0.35132 0.33117 0.52349 0.0
H250 H 0.34587 0.16466 0.51775 0.0
C251 C 0.2756 0.3324 0.54064 0.0
H252 H 0.43286 0.26719 0.50128 0.0
C253 C 0.22607 0.27359 0.55076 0.0
C254 C 0.25112 0.21236 0.54369 0.0
H255 H 0.25545 0.37895 0.54751 0.0
H256 H 0.16934 0.27644 0.56552 0.0
C257 C 0.32556 0.21111 0.52475 0.0
C258 C 0.24099 0.71632 0.46937 0.0
C259 C 0.25669 0.70681 0.51323 0.0
H260 H 0.20091 0.77909 0.42437 0.0
C261 C 0.24208 0.75402 0.54605 0.0
H262 H 0.25165 0.68038 0.44359 0.0
C263 C 0.21465 0.81082 0.53509 0.0
C264 C 0.19904 0.82057 0.49124 0.0
H265 H 0.25448 0.748 0.58004 0.0
H266 H 0.20656 0.84757 0.56083 0.0
C267 C 0.21144 0.77233 0.45851 0.0
C268 C 0.01132 0.05566 0.16372 0.0
C269 C 0.05671 0.02084 0.13553 0.0
H270 H 0.98871 0.08893 0.2294 0.0
C271 C 0.1156 0.99153 0.15359 0.0
H272 H 0.96566 0.07917 0.151 0.0
C273 C 0.12845 0.99682 0.19896 0.0
C274 C 0.08251 0.03135 0.22708 0.0
H275 H 0.15142 0.96425 0.13275 0.0
H276 H 0.17363 0.97317 0.21206 0.0
C277 C 0.02409 0.06087 0.20883 0.0
C278 C 0.96566 0.93584 0.85517 0.0
C279 C 0.9508 0.99253 0.87945 0.0
H280 H 0.97707 0.88876 0.79183 0.0
C281 C 0.92811 0.0441 0.85752 0.0
H282 H 0.98291 0.89526 0.87136 0.0
C283 C 0.92557 0.04069 0.81164 0.0
C284 C 0.94388 0.98501 0.78735 0.0
H285 H 0.91664 0.0884 0.87565 0.0
H286 H 0.91171 0.08225 0.79511 0.0
C287 C 0.96167 0.9319 0.80964 0.0
C288 C 0.61728 0.50447 0.65368 0.0
C289 C 0.54659 0.51649 0.63622 0.0
H290 H 0.68739 0.50559 0.71119 0.0
C291 C 0.48967 0.53608 0.66491 0.0
H292 H 0.66235 0.4895 0.63238 0.0
C293 C 0.50334 0.54427 0.70997 0.0
C294 C 0.57473 0.53387 0.72757 0.0
H295 H 0.43414 0.54504 0.65259 0.0
H296 H 0.45759 0.55857 0.73102 0.0
C297 C 0.63137 0.51336 0.69889 0.0
C298 C 0.43193 0.53924 0.35644 0.0
C299 C 0.45404 0.48751 0.37845 0.0
H300 H 0.41816 0.57837 0.29403 0.0
C301 C 0.47087 0.43152 0.35413 0.0
H302 H 0.41899 0.58303 0.37459 0.0
C303 C 0.46915 0.4284 0.30855 0.0
C304 C 0.45178 0.48168 0.28628 0.0
H305 H 0.48776 0.39084 0.37038 0.0
H306 H 0.48579 0.38576 0.29073 0.0
C307 C 0.43173 0.53669 0.31055 0.0
loop_
_geom_bond_atom_site_label_1
_geom_bond_atom_site_label_2
_geom_bond_distance
_geom_bond_site_symmetry_2
_ccdc_geom_bond_type
Co0 N5 2.057 . S
Co0 O17 2.021 . S
Co0 O20 2.062 1_455 S
Co0 O24 2.117 1_554 S
Co0 O25 2.020 1_565 S
C1 O21 1.259 1_455 S
C1 O24 1.258 1_545 S
Co2 N11 2.057 . S
Co2 O18 2.117 . S
Co2 O19 2.020 1_545 S
Co2 O21 2.021 1_554 S
Co2 O26 2.062 1_655 S
C3 N5 1.316 . S
C3 N6 1.347 . S
C3 H8 0.931 . S
C4 N5 1.375 1_556 S
C4 C7 1.350 . S
C4 H9 0.930 . S
N5 Co0 2.057 . S
N5 C3 1.316 . S
N5 C4 1.375 1_554 S
N6 C3 1.347 . S
N6 C7 1.373 1_554 S
C7 C4 1.350 . S
C7 N6 1.373 1_556 S
C7 H28 0.931 . S
H8 C3 0.931 . S
H9 C4 0.930 . S
C10 O17 1.259 1_545 S
C10 O18 1.258 1_455 S
N11 Co2 2.057 . S
N11 C12 1.316 . S
N11 C13 1.375 . S
C12 N11 1.316 . S
C12 N14 1.347 . S
C12 H23 0.931 1_554 S
C13 N11 1.375 . S
C13 C15 1.350 . S
C13 H22 0.930 . S
N14 C12 1.347 . S
N14 C15 1.373 . S
C15 C13 1.350 . S
C15 N14 1.373 . S
C15 H29 0.931 . S
C16 O19 1.256 . S
C16 O20 1.255 . S
O17 Co0 2.021 . S
O17 C10 1.259 1_565 S
O18 Co2 2.117 . S
O18 C10 1.258 1_655 S
O19 Co2 2.020 1_565 S
O19 C16 1.256 . S
O20 Co0 2.062 1_655 S
O20 C16 1.255 . S
O21 C1 1.259 1_655 S
O21 Co2 2.021 1_556 S
H22 C13 0.930 . S
H23 C12 0.931 1_556 S
O24 Co0 2.117 1_556 S
O24 C1 1.258 1_565 S
O25 Co0 2.020 1_545 S
O25 C27 1.256 . S
O26 Co2 2.062 1_455 S
O26 C27 1.255 . S
C27 O25 1.256 . S
C27 O26 1.255 . S
H28 C7 0.931 . S
H29 C15 0.931 . S
Co30 N35 2.057 . S
Co30 O47 2.021 . S
Co30 O50 2.062 . S
Co30 O54 2.117 . S
Co30 O55 2.020 . S
C31 O51 1.259 . S
C31 O54 1.258 . S
Co32 N41 2.057 . S
Co32 O48 2.117 . S
Co32 O49 2.020 . S
Co32 O51 2.021 . S
Co32 O56 2.062 . S
C33 N35 1.316 . S
C33 N36 1.347 . S
C33 H38 0.931 . S
C34 N35 1.375 . S
C34 C37 1.350 . S
C34 H39 0.930 . S
N35 Co30 2.057 . S
N35 C33 1.316 . S
N35 C34 1.375 . S
N36 C33 1.347 . S
N36 C37 1.373 . S
C37 C34 1.350 . S
C37 N36 1.373 . S
C37 H58 0.931 . S
H38 C33 0.931 . S
H39 C34 0.930 . S
C40 O47 1.259 . S
C40 O48 1.258 . S
N41 Co32 2.057 . S
N41 C42 1.316 . S
N41 C43 1.375 . S
C42 N41 1.316 . S
C42 N44 1.347 . S
C42 H53 0.931 . S
C43 N41 1.375 . S
C43 C45 1.350 . S
C43 H52 0.930 . S
N44 C42 1.347 . S
N44 C45 1.373 . S
C45 C43 1.350 . S
C45 N44 1.373 . S
C45 H59 0.931 . S
C46 O49 1.256 . S
C46 O50 1.255 . S
O47 Co30 2.021 . S
O47 C40 1.259 . S
O48 Co32 2.117 . S
O48 C40 1.258 . S
O49 Co32 2.020 . S
O49 C46 1.256 . S
O50 Co30 2.062 . S
O50 C46 1.255 . S
O51 C31 1.259 . S
O51 Co32 2.021 . S
H52 C43 0.930 . S
H53 C42 0.931 . S
O54 Co30 2.117 . S
O54 C31 1.258 . S
O55 Co30 2.020 . S
O55 C57 1.256 . S
O56 Co32 2.062 . S
O56 C57 1.255 . S
C57 O55 1.256 . S
C57 O56 1.255 . S
H58 C37 0.931 . S
H59 C45 0.931 . S
P60 O71 1.490 . S
P60 C74 1.812 . S
P60 C80 1.803 1_545 S
P60 C86 1.819 . S
H61 C75 0.941 . S
H62 C76 0.939 . S
H63 C78 0.940 . S
H64 C79 0.940 . S
H65 C81 0.939 1_545 S
H66 C82 0.942 . S
H67 C84 0.940 . S
H68 C85 0.928 1_655 S
H69 C87 0.941 . S
H70 C91 0.939 . S
O71 P60 1.490 . S
H72 C88 0.939 . S
H73 C90 0.940 . S
C74 P60 1.812 . S
C74 C75 1.389 . S
C74 C79 1.391 1_455 S
C75 H61 0.941 . S
C75 C74 1.389 . S
C75 C76 1.397 1_455 S
C76 H62 0.939 . S
C76 C75 1.397 1_655 S
C76 C77 1.378 . S
C77 C76 1.378 . S
C77 C78 1.378 . S
C78 H63 0.940 . S
C78 C77 1.378 . S
C78 C79 1.396 . S
C79 H64 0.940 . S
C79 C74 1.391 1_655 S
C79 C78 1.396 . S
C80 P60 1.803 1_565 S
C80 C81 1.378 . S
C80 C85 1.400 . S
C81 H65 0.939 1_565 S
C81 C80 1.378 . S
C81 C82 1.361 . S
C82 H66 0.942 . S
C82 C81 1.361 . S
C82 C83 1.369 . S
C83 C82 1.369 . S
C83 C84 1.404 . S
C84 H67 0.940 . S
C84 C83 1.404 . S
C84 C85 1.389 . S
C85 H68 0.928 1_455 S
C85 C80 1.400 . S
C85 C84 1.389 . S
C86 P60 1.819 . S
C86 C87 1.391 . S
C86 C91 1.391 1_545 S
C87 H69 0.941 . S
C87 C86 1.391 . S
C87 C88 1.396 . S
C88 H72 0.939 . S
C88 C87 1.396 . S
C88 C89 1.397 . S
C89 C88 1.397 . S
C89 C90 1.385 1_545 S
C90 H73 0.940 . S
C90 C89 1.385 1_565 S
C90 C91 1.388 . S
C91 H70 0.939 . S
C91 C86 1.391 1_565 S
C91 C90 1.388 . S
P92 O103 1.490 . S
P92 C106 1.812 1_455 S
P92 C112 1.803 1_565 S
P92 C118 1.819 . S
H93 C107 0.941 1_455 S
H94 C108 0.939 . S
H95 C110 0.940 . S
H96 C111 0.940 . S
H97 C113 0.939 . S
H98 C114 0.942 . S
H99 C116 0.940 . S
H100 C117 0.939 . S
H101 C119 0.941 . S
H102 C123 0.939 . S
O103 P92 1.490 . S
H104 C120 0.939 . S
H105 C122 0.940 . S
C106 P92 1.812 1_655 S
C106 C107 1.389 . S
C106 C111 1.391 . S
C107 H93 0.941 1_655 S
C107 C106 1.389 . S
C107 C108 1.397 . S
C108 H94 0.939 . S
C108 C107 1.397 . S
C108 C109 1.378 . S
C109 C108 1.378 . S
C109 C110 1.378 . S
C110 H95 0.940 . S
C110 C109 1.378 . S
C110 C111 1.396 . S
C111 H96 0.940 . S
C111 C106 1.391 . S
C111 C110 1.396 . S
C112 P92 1.803 1_545 S
C112 C113 1.378 . S
C112 C117 1.400 . S
C113 H97 0.939 . S
C113 C112 1.378 . S
C113 C114 1.361 . S
C114 H98 0.942 . S
C114 C113 1.361 . S
C114 C115 1.369 . S
C115 C114 1.369 . S
C115 C116 1.404 . S
C116 H99 0.940 . S
C116 C115 1.404 . S
C116 C117 1.389 . S
C117 H100 0.939 . S
C117 C112 1.400 . S
C117 C116 1.389 . S
C118 P92 1.819 . S
C118 C119 1.391 . S
C118 C123 1.391 1_565 S
C119 H101 0.941 . S
C119 C118 1.391 . S
C119 C120 1.396 . S
C120 H104 0.939 . S
C120 C119 1.396 . S
C120 C121 1.397 1_565 S
C121 C120 1.397 1_545 S
C121 C122 1.385 . S
C122 H105 0.940 . S
C122 C121 1.385 . S
C122 C123 1.388 . S
C123 H102 0.939 . S
C123 C118 1.391 1_545 S
C123 C122 1.388 . S
P124 O135 1.490 . S
P124 C138 1.812 . S
P124 C144 1.803 . S
P124 C150 1.819 . S
H125 C139 0.941 . S
H126 C140 0.939 . S
H127 C142 0.940 . S
H128 C143 0.940 . S
H129 C145 0.939 . S
H130 C146 0.942 . S
H131 C148 0.940 1_554 S
H132 C149 0.939 . S
H133 C151 0.941 . S
H134 C155 0.939 . S
O135 P124 1.490 . S
H136 C152 0.939 . S
H137 C154 0.940 . S
C138 P124 1.812 . S
C138 C139 1.389 . S
C138 C143 1.391 . S
C139 H125 0.941 . S
C139 C138 1.389 . S
C139 C140 1.397 1_556 S
C140 H126 0.939 . S
C140 C139 1.397 1_554 S
C140 C141 1.378 1_554 S
C141 C140 1.378 1_556 S
C141 C142 1.378 . S
C142 H127 0.940 . S
C142 C141 1.378 . S
C142 C143 1.396 . S
C143 H128 0.940 . S
C143 C138 1.391 . S
C143 C142 1.396 . S
C144 P124 1.803 . S
C144 C145 1.378 . S
C144 C149 1.400 . S
C145 H129 0.939 . S
C145 C144 1.378 . S
C145 C146 1.361 . S
C146 H130 0.942 . S
C146 C145 1.361 . S
C146 C147 1.369 . S
C147 C146 1.369 . S
C147 C148 1.404 . S
C148 H131 0.940 1_556 S
C148 C147 1.404 . S
C148 C149 1.389 . S
C149 H132 0.939 . S
C149 C144 1.400 . S
C149 C148 1.389 . S
C150 P124 1.819 . S
C150 C151 1.391 . S
C150 C155 1.391 . S
C151 H133 0.941 . S
C151 C150 1.391 . S
C151 C152 1.396 . S
C152 H136 0.939 . S
C152 C151 1.396 . S
C152 C153 1.397 . S
C153 C152 1.397 . S
C153 C154 1.385 . S
C154 H137 0.940 . S
C154 C153 1.385 . S
C154 C155 1.388 . S
C155 H134 0.939 . S
C155 C150 1.391 . S
C155 C154 1.388 . S
P156 O167 1.490 . S
P156 C170 1.812 . S
P156 C176 1.803 . S
P156 C182 1.819 . S
H157 C171 0.941 . S
H158 C172 0.939 1_556 S
H159 C174 0.940 . S
H160 C175 0.940 . S
H161 C177 0.939 . S
H162 C178 0.942 . S
H163 C180 0.940 . S
H164 C181 0.939 . S
H165 C183 0.941 . S
H166 C187 0.939 . S
O167 P156 1.490 . S
H168 C184 0.939 . S
H169 C186 0.940 . S
C170 P156 1.812 . S
C170 C171 1.389 . S
C170 C175 1.391 . S
C171 H157 0.941 . S
C171 C170 1.389 . S
C171 C172 1.397 . S
C172 H158 0.939 1_554 S
C172 C171 1.397 . S
C172 C173 1.378 . S
C173 C172 1.378 . S
C173 C174 1.378 . S
C174 H159 0.940 . S
C174 C173 1.378 . S
C174 C175 1.396 . S
C175 H160 0.940 . S
C175 C170 1.391 . S
C175 C174 1.396 . S
C176 P156 1.803 . S
C176 C177 1.378 . S
C176 C181 1.400 . S
C177 H161 0.939 . S
C177 C176 1.378 . S
C177 C178 1.361 . S
C178 H162 0.942 . S
C178 C177 1.361 . S
C178 C179 1.369 . S
C179 C178 1.369 . S
C179 C180 1.404 . S
C180 H163 0.940 . S
C180 C179 1.404 . S
C180 C181 1.389 . S
C181 H164 0.939 . S
C181 C176 1.400 . S
C181 C180 1.389 . S
C182 P156 1.819 . S
C182 C183 1.391 . S
C182 C187 1.391 . S
C183 H165 0.941 . S
C183 C182 1.391 . S
C183 C184 1.396 . S
C184 H168 0.939 . S
C184 C183 1.396 . S
C184 C185 1.397 . S
C185 C184 1.397 . S
C185 C186 1.385 . S
C186 H169 0.940 . S
C186 C185 1.385 . S
C186 C187 1.388 . S
C187 H166 0.939 . S
C187 C182 1.391 . S
C187 C186 1.388 . S
C188 C189 1.387 . S
C188 H192 0.950 . S
C188 C197 1.390 . S
C189 C188 1.387 . S
C189 C191 1.387 1_554 S
H190 C197 0.950 . S
C191 C189 1.387 1_556 S
C191 C193 1.390 . S
C191 H195 0.950 . S
H192 C188 0.950 . S
C193 C191 1.390 . S
C193 C194 1.387 1_556 S
C193 H196 0.950 . S
C194 C193 1.387 1_554 S
C194 C197 1.387 . S
H195 C191 0.950 . S
H196 C193 0.950 . S
C197 C188 1.390 . S
C197 H190 0.950 . S
C197 C194 1.387 . S
C198 C199 1.387 1_556 S
C198 H202 0.950 . S
C198 C207 1.390 . S
C199 C198 1.387 1_554 S
C199 C201 1.387 . S
H200 C207 0.950 . S
C201 C199 1.387 . S
C201 C203 1.390 . S
C201 H205 0.950 . S
H202 C198 0.950 . S
C203 C201 1.390 . S
C203 C204 1.387 . S
C203 H206 0.950 . S
C204 C203 1.387 . S
C204 C207 1.387 1_554 S
H205 C201 0.950 . S
H206 C203 0.950 . S
C207 C198 1.390 . S
C207 H200 0.950 . S
C207 C204 1.387 1_556 S
C208 C209 1.387 1_556 S
C208 H212 0.950 . S
C208 C217 1.390 . S
C209 C208 1.387 1_554 S
C209 C211 1.387 . S
H210 C217 0.950 . S
C211 C209 1.387 . S
C211 C213 1.390 . S
C211 H215 0.950 . S
H212 C208 0.950 . S
C213 C211 1.390 . S
C213 C214 1.387 . S
C213 H216 0.950 . S
C214 C213 1.387 . S
C214 C217 1.387 1_554 S
H215 C211 0.950 . S
H216 C213 0.950 . S
C217 C208 1.390 . S
C217 H210 0.950 . S
C217 C214 1.387 1_556 S
C218 C219 1.387 1_556 S
C218 H222 0.950 . S
C218 C227 1.390 . S
C219 C218 1.387 1_554 S
C219 C221 1.387 . S
H220 C227 0.950 . S
C221 C219 1.387 . S
C221 C223 1.390 . S
C221 H225 0.950 . S
H222 C218 0.950 . S
C223 C221 1.390 . S
C223 C224 1.387 . S
C223 H226 0.950 . S
C224 C223 1.387 . S
C224 C227 1.387 1_554 S
H225 C221 0.950 . S
H226 C223 0.950 . S
C227 C218 1.390 . S
C227 H220 0.950 . S
C227 C224 1.387 1_556 S
C228 C229 1.387 . S
C228 H232 0.950 . S
C228 C237 1.390 . S
C229 C228 1.387 . S
C229 C231 1.387 . S
H230 C237 0.950 . S
C231 C229 1.387 . S
C231 C233 1.390 . S
C231 H235 0.950 . S
H232 C228 0.950 . S
C233 C231 1.390 . S
C233 C234 1.387 . S
C233 H236 0.950 . S
C234 C233 1.387 . S
C234 C237 1.387 . S
H235 C231 0.950 . S
H236 C233 0.950 . S
C237 C228 1.390 . S
C237 H230 0.950 . S
C237 C234 1.387 . S
C238 C239 1.387 . S
C238 H242 0.950 . S
C238 C247 1.390 . S
C239 C238 1.387 . S
C239 C241 1.387 . S
H240 C247 0.950 . S
C241 C239 1.387 . S
C241 C243 1.390 . S
C241 H245 0.950 . S
H242 C238 0.950 . S
C243 C241 1.390 . S
C243 C244 1.387 . S
C243 H246 0.950 . S
C244 C243 1.387 . S
C244 C247 1.387 . S
H245 C241 0.950 . S
H246 C243 0.950 . S
C247 C238 1.390 . S
C247 H240 0.950 . S
C247 C244 1.387 . S
C248 C249 1.387 . S
C248 H252 0.950 . S
C248 C257 1.390 . S
C249 C248 1.387 . S
C249 C251 1.387 . S
H250 C257 0.950 . S
C251 C249 1.387 . S
C251 C253 1.390 . S
C251 H255 0.950 . S
H252 C248 0.950 . S
C253 C251 1.390 . S
C253 C254 1.387 . S
C253 H256 0.950 . S
C254 C253 1.387 . S
C254 C257 1.387 . S
H255 C251 0.950 . S
H256 C253 0.950 . S
C257 C248 1.390 . S
C257 H250 0.950 . S
C257 C254 1.387 . S
C258 C259 1.387 . S
C258 H262 0.950 . S
C258 C267 1.390 . S
C259 C258 1.387 . S
C259 C261 1.387 . S
H260 C267 0.950 . S
C261 C259 1.387 . S
C261 C263 1.390 . S
C261 H265 0.950 . S
H262 C258 0.950 . S
C263 C261 1.390 . S
C263 C264 1.387 . S
C263 H266 0.950 . S
C264 C263 1.387 . S
C264 C267 1.387 . S
H265 C261 0.950 . S
H266 C263 0.950 . S
C267 C258 1.390 . S
C267 H260 0.950 . S
C267 C264 1.387 . S
C268 C269 1.387 . S
C268 H272 0.950 . S
C268 C277 1.390 . S
C269 C268 1.387 . S
C269 C271 1.387 1_445 S
H270 C277 0.950 . S
C271 C269 1.387 1_665 S
C271 C273 1.390 . S
C271 H275 0.950 . S
H272 C268 0.950 . S
C273 C271 1.390 . S
C273 C274 1.387 1_665 S
C273 H276 0.950 . S
C274 C273 1.387 1_445 S
C274 C277 1.387 . S
H275 C271 0.950 . S
H276 C273 0.950 . S
C277 C268 1.390 . S
C277 H270 0.950 . S
C277 C274 1.387 . S
C278 C279 1.387 1_565 S
C278 H282 0.950 . S
C278 C287 1.390 . S
C279 C278 1.387 1_545 S
C279 C281 1.387 1_455 S
H280 C287 0.950 . S
C281 C279 1.387 1_655 S
C281 C283 1.390 . S
C281 H285 0.950 . S
H282 C278 0.950 . S
C283 C281 1.390 . S
C283 C284 1.387 1_655 S
C283 H286 0.950 . S
C284 C283 1.387 1_455 S
C284 C287 1.387 1_545 S
H285 C281 0.950 . S
H286 C283 0.950 . S
C287 C278 1.390 . S
C287 H280 0.950 . S
C287 C284 1.387 1_565 S
C288 C289 1.387 . S
C288 H292 0.950 . S
C288 C297 1.390 . S
C289 C288 1.387 . S
C289 C291 1.387 . S
H290 C297 0.950 . S
C291 C289 1.387 . S
C291 C293 1.390 . S
C291 H295 0.950 . S
H292 C288 0.950 . S
C293 C291 1.390 . S
C293 C294 1.387 . S
C293 H296 0.950 . S
C294 C293 1.387 . S
C294 C297 1.387 . S
H295 C291 0.950 . S
H296 C293 0.950 . S
C297 C288 1.390 . S
C297 H290 0.950 . S
C297 C294 1.387 . S
C298 C299 1.387 . S
C298 H302 0.950 . S
C298 C307 1.390 . S
C299 C298 1.387 . S
C299 C301 1.387 . S
H300 C307 0.950 . S
C301 C299 1.387 . S
C301 C303 1.390 . S
C301 H305 0.950 . S
H302 C298 0.950 . S
C303 C301 1.390 . S
C303 C304 1.387 . S
C303 H306 0.950 . S
C304 C303 1.387 . S
C304 C307 1.387 . S
H305 C301 0.950 . S
H306 C303 0.950 . S
C307 C298 1.390 . S
C307 H300 0.950 . S
C307 C304 1.387 . S
C194 C173 1.468 . S
C189 C27 1.524 . S
C199 N6 1.429 . S
C204 C141 1.427 1_554 S
C209 C16 1.513 . S
C214 C179 1.455 . S
C219 N14 1.444 . S
C224 C147 1.421 1_554 S
C229 C57 1.524 . S
C234 C109 1.470 . S
C239 N36 1.428 . S
C244 C77 1.429 . S
C254 C115 1.455 . S
C249 C46 1.513 . S
C264 C83 1.421 . S
C259 N44 1.444 . S
C269 C10 1.400 . S
C274 C89 1.371 . S
C279 C1 1.537 . S
C284 C121 1.507 . S
C294 C153 1.370 . S
C289 C40 1.400 . S
C299 C31 1.537 . S
C304 C185 1.506 . S
