# Generated by pormake.
# Topology nom, (4,4)-cn, num edge types: 1
# Building blocks:
#     Node 0, Type 0, BuildingBlock: NAWXER_clean_linker_0, # of connection points: 4
#     Node 1, Type 0, BuildingBlock: NAWXER_clean_linker_0, # of connection points: 4
#     Node 2, Type 0, BuildingBlock: NAWXER_clean_linker_0, # of connection points: 4
#     Node 3, Type 0, BuildingBlock: NAWXER_clean_linker_0, # of connection points: 4
#     Node 4, Type 0, BuildingBlock: NAWXER_clean_linker_0, # of connection points: 4
#     Node 5, Type 0, BuildingBlock: NAWXER_clean_linker_0, # of connection points: 4
#     Node 6, Type 1, BuildingBlock: GALJAG_clean_sbu_0, # of connection points: 4
#     Node 7, Type 1, BuildingBlock: GALJAG_clean_sbu_0, # of connection points: 4
#     Node 8, Type 1, BuildingBlock: GALJAG_clean_sbu_0, # of connection points: 4
#     Node 9, Type 1, BuildingBlock: GALJAG_clean_sbu_0, # of connection points: 4
#     Node 10, Type 1, BuildingBlock: GALJAG_clean_sbu_0, # of connection points: 4
#     Node 11, Type 1, BuildingBlock: GALJAG_clean_sbu_0, # of connection points: 4
#     Edge 12, Type (0, 1), BuildingBlock: EZIPEK_clean_linker_0, # of connection points: 2
#     Edge 13, Type (0, 1), BuildingBlock: EZIPEK_clean_linker_0, # of connection points: 2
#     Edge 14, Type (0, 1), BuildingBlock: EZIPEK_clean_linker_0, # of connection points: 2
#     Edge 15, Type (0, 1), BuildingBlock: EZIPEK_clean_linker_0, # of connection points: 2
#     Edge 16, Type (0, 1), BuildingBlock: EZIPEK_clean_linker_0, # of connection points: 2
#     Edge 17, Type (0, 1), BuildingBlock: EZIPEK_clean_linker_0, # of connection points: 2
#     Edge 18, Type (0, 1), BuildingBlock: EZIPEK_clean_linker_0, # of connection points: 2
#     Edge 19, Type (0, 1), BuildingBlock: EZIPEK_clean_linker_0, # of connection points: 2
#     Edge 20, Type (0, 1), BuildingBlock: EZIPEK_clean_linker_0, # of connection points: 2
#     Edge 21, Type (0, 1), BuildingBlock: EZIPEK_clean_linker_0, # of connection points: 2
#     Edge 22, Type (0, 1), BuildingBlock: EZIPEK_clean_linker_0, # of connection points: 2
#     Edge 23, Type (0, 1), BuildingBlock: EZIPEK_clean_linker_0, # of connection points: 2
#     Edge 24, Type (0, 1), BuildingBlock: EZIPEK_clean_linker_0, # of connection points: 2
#     Edge 25, Type (0, 1), BuildingBlock: EZIPEK_clean_linker_0, # of connection points: 2
#     Edge 26, Type (0, 1), BuildingBlock: EZIPEK_clean_linker_0, # of connection points: 2
#     Edge 27, Type (0, 1), BuildingBlock: EZIPEK_clean_linker_0, # of connection points: 2
#     Edge 28, Type (0, 1), BuildingBlock: EZIPEK_clean_linker_0, # of connection points: 2
#     Edge 29, Type (0, 1), BuildingBlock: EZIPEK_clean_linker_0, # of connection points: 2
#     Edge 30, Type (0, 1), BuildingBlock: EZIPEK_clean_linker_0, # of connection points: 2
#     Edge 31, Type (0, 1), BuildingBlock: EZIPEK_clean_linker_0, # of connection points: 2
#     Edge 32, Type (0, 1), BuildingBlock: EZIPEK_clean_linker_0, # of connection points: 2
#     Edge 33, Type (0, 1), BuildingBlock: EZIPEK_clean_linker_0, # of connection points: 2
#     Edge 34, Type (0, 1), BuildingBlock: EZIPEK_clean_linker_0, # of connection points: 2
#     Edge 35, Type (0, 1), BuildingBlock: EZIPEK_clean_linker_0, # of connection points: 2
# Relax obj value: 0.004
# Max RMSD: 0.115
# Mean RMSD: 0.086
data_MOF--net-nom--node1-GALJAG_clean_sbu_0--node2-NAWXER_clean_linker_0--edge1-EZIPEK_clean_linker_0
_symmetry_space_group_name_H-M    P1
_symmetry_Int_Tables_number       1
_symmetry_cell_setting            triclinic
loop_
_symmetry_equiv_pos_as_xyz
'x, y, z'
_cell_length_a     40.517556
_cell_length_b     40.452848
_cell_length_c     46.100736
_cell_angle_alpha  89.99068
_cell_angle_beta   90.009614
_cell_angle_gamma 120.06783
loop_
_atom_site_label
_atom_site_type_symbol
_atom_site_fract_x
_atom_site_fract_y
_atom_site_fract_z
_atom_type_partial_charge
C0 C 0.87649 0.51184 0.33811 0.0
C1 C 0.86186 0.48711 0.36196 0.0
C2 C 0.91402 0.52547 0.32904 0.0
C3 C 0.93719 0.51364 0.34313 0.0
C4 C 0.885 0.47568 0.37634 0.0
C5 C 0.9223 0.48874 0.36696 0.0
C6 C 0.97796 0.53008 0.33531 0.0
C7 C 0.91621 0.47085 0.25358 0.0
C8 C 0.92435 0.49445 0.22921 0.0
C9 C 0.9377 0.48511 0.27894 0.0
C10 C 0.9673 0.5234 0.28045 0.0
C11 C 0.95401 0.53254 0.23053 0.0
C12 C 0.9754 0.54686 0.25592 0.0
C13 C 0.99191 0.53827 0.30653 0.0
C14 C 0.16162 0.60606 0.31757 0.0
C15 C 0.17336 0.63907 0.30081 0.0
C16 C 0.12335 0.58367 0.32573 0.0
C17 C 0.09659 0.59424 0.31727 0.0
C18 C 0.14666 0.64951 0.29229 0.0
C19 C 0.10851 0.62712 0.3003 0.0
C20 C 0.05577 0.57064 0.32458 0.0
C21 C 0.11779 0.613 0.4104 0.0
C22 C 0.11048 0.58323 0.42969 0.0
C23 C 0.09586 0.60561 0.38523 0.0
C24 C 0.06665 0.56825 0.37892 0.0
C25 C 0.08118 0.54605 0.42354 0.0
C26 C 0.05933 0.53867 0.39843 0.0
C27 C 0.04191 0.55962 0.35312 0.0
H28 H 0.85907 0.52116 0.32691 0.0
H29 H 0.92509 0.54596 0.31148 0.0
H30 H 0.87417 0.4567 0.39487 0.0
H31 H 0.93966 0.47964 0.37852 0.0
H32 H 0.89352 0.44131 0.25281 0.0
H33 H 0.93163 0.46599 0.29715 0.0
H34 H 0.96068 0.55108 0.21186 0.0
H35 H 0.99835 0.5763 0.25639 0.0
H36 H 0.182 0.59762 0.32417 0.0
H37 H 0.11461 0.55796 0.3383 0.0
H38 H 0.15536 0.67486 0.27927 0.0
H39 H 0.08825 0.63557 0.29336 0.0
H40 H 0.14019 0.64192 0.41499 0.0
H41 H 0.10135 0.62911 0.37098 0.0
H42 H 0.07515 0.52282 0.43827 0.0
H43 H 0.03669 0.50973 0.39416 0.0
N44 N 0.00357 0.54024 0.35733 0.0
N45 N 0.03024 0.55909 0.30243 0.0
C46 C 0.38783 0.87681 0.50715 0.0
C47 C 0.39891 0.86386 0.53147 0.0
C48 C 0.41085 0.91406 0.49701 0.0
C49 C 0.44587 0.93868 0.51058 0.0
C50 C 0.43361 0.88838 0.54523 0.0
C51 C 0.45693 0.92544 0.53483 0.0
C52 C 0.46916 0.97927 0.50173 0.0
C53 C 0.46841 0.91552 0.42144 0.0
C54 C 0.4508 0.92109 0.39721 0.0
C55 C 0.47541 0.93786 0.4463 0.0
C56 C 0.46472 0.96598 0.44733 0.0
C57 C 0.44001 0.94905 0.39818 0.0
C58 C 0.44718 0.97151 0.42299 0.0
C59 C 0.47469 0.99184 0.47261 0.0
C60 C 0.5791 0.16147 0.47869 0.0
C61 C 0.55773 0.1736 0.4625 0.0
C62 C 0.56268 0.12331 0.48739 0.0
C63 C 0.52471 0.09704 0.48004 0.0
C64 C 0.52009 0.14718 0.45473 0.0
C65 C 0.5038 0.1091 0.46326 0.0
C66 C 0.50654 0.05663 0.4888 0.0
C67 C 0.53099 0.1264 0.57099 0.0
C68 C 0.54761 0.11616 0.59343 0.0
C69 C 0.51598 0.1031 0.5465 0.0
C70 C 0.51895 0.07006 0.54338 0.0
C71 C 0.54941 0.08256 0.5908 0.0
C72 C 0.53551 0.05996 0.56598 0.0
C73 C 0.50314 0.04421 0.5179 0.0
H74 H 0.36092 0.85832 0.49646 0.0
H75 H 0.40064 0.92383 0.47912 0.0
H76 H 0.44246 0.87888 0.56413 0.0
H77 H 0.48347 0.94396 0.54597 0.0
H78 H 0.47707 0.89417 0.42095 0.0
H79 H 0.48995 0.93374 0.46445 0.0
H80 H 0.42643 0.9537 0.37963 0.0
H81 H 0.4391 0.99331 0.42315 0.0
H82 H 0.60829 0.18159 0.48471 0.0
H83 H 0.57948 0.11433 0.49986 0.0
H84 H 0.50331 0.15612 0.44219 0.0
H85 H 0.4746 0.08912 0.45715 0.0
H86 H 0.52894 0.15202 0.57276 0.0
H87 H 0.50162 0.11077 0.53034 0.0
H88 H 0.56182 0.07396 0.60796 0.0
H89 H 0.53773 0.03441 0.56446 0.0
N90 N 0.48422 0.00598 0.52307 0.0
N91 N 0.49243 0.02999 0.46739 0.0
C92 C 0.56652 0.46531 0.58816 0.0
C93 C 0.54458 0.4524 0.56278 0.0
C94 C 0.55167 0.47291 0.61302 0.0
C95 C 0.51422 0.46666 0.61312 0.0
C96 C 0.50755 0.44688 0.56257 0.0
C97 C 0.49249 0.45391 0.58754 0.0
C98 C 0.49852 0.47624 0.63882 0.0
C99 C 0.52215 0.38528 0.67068 0.0
C100 C 0.54627 0.39485 0.69488 0.0
C101 C 0.50868 0.40935 0.66167 0.0
C102 C 0.52 0.44402 0.67619 0.0
C103 C 0.55666 0.42884 0.70994 0.0
C104 C 0.54381 0.45327 0.70059 0.0
C105 C 0.50456 0.46908 0.66786 0.0
C106 C 0.4251 0.53157 0.74144 0.0
C107 C 0.45526 0.55373 0.76051 0.0
C108 C 0.43133 0.51547 0.71669 0.0
C109 C 0.46808 0.5223 0.71007 0.0
C110 C 0.49185 0.56007 0.75422 0.0
C111 C 0.4982 0.54458 0.72918 0.0
C112 C 0.47544 0.50428 0.68479 0.0
C113 C 0.43983 0.5798 0.62875 0.0
C114 C 0.39981 0.55758 0.62816 0.0
C115 C 0.4616 0.56413 0.6389 0.0
C116 C 0.44359 0.526 0.64812 0.0
C117 C 0.38198 0.51942 0.63745 0.0
C118 C 0.40378 0.50353 0.6467 0.0
C119 C 0.46618 0.50809 0.65597 0.0
H120 H 0.59528 0.46999 0.58855 0.0
H121 H 0.56972 0.4842 0.63197 0.0
H122 H 0.4903 0.43698 0.5431 0.0
H123 H 0.46378 0.44937 0.58685 0.0
H124 H 0.51351 0.359 0.65892 0.0
H125 H 0.48896 0.40049 0.64362 0.0
H126 H 0.57487 0.4365 0.72889 0.0
H127 H 0.5524 0.47941 0.71254 0.0
H128 H 0.39652 0.52582 0.74621 0.0
H129 H 0.40712 0.4966 0.7035 0.0
H130 H 0.51539 0.57673 0.76883 0.0
H131 H 0.52668 0.54974 0.72484 0.0
H132 H 0.4541 0.60916 0.62134 0.0
H133 H 0.49241 0.58149 0.63909 0.0
H134 H 0.3512 0.50175 0.63696 0.0
H135 H 0.38957 0.47366 0.65283 0.0
N136 N 0.47872 0.4947 0.63412 0.0
N137 N 0.49383 0.48446 0.68958 0.0
C138 C 0.87764 0.38088 0.8177 0.0
C139 C 0.86085 0.3934 0.7971 0.0
C140 C 0.91499 0.40517 0.82694 0.0
C141 C 0.93616 0.44234 0.81564 0.0
C142 C 0.88185 0.43055 0.78584 0.0
C143 C 0.91943 0.45474 0.79484 0.0
C144 C 0.97669 0.46685 0.82365 0.0
C145 C 0.91351 0.46507 0.90378 0.0
C146 C 0.91907 0.44752 0.92805 0.0
C147 C 0.93584 0.47206 0.87895 0.0
C148 C 0.96403 0.46149 0.87796 0.0
C149 C 0.94702 0.43673 0.92711 0.0
C150 C 0.96954 0.44395 0.90232 0.0
C151 C 0.98975 0.47157 0.85254 0.0
C152 C 0.16096 0.5694 0.84283 0.0
C153 C 0.1707 0.54808 0.86139 0.0
C154 C 0.12306 0.55487 0.83414 0.0
C155 C 0.09462 0.51855 0.84354 0.0
C156 C 0.14228 0.51215 0.87109 0.0
C157 C 0.10456 0.49756 0.86229 0.0
C158 C 0.05406 0.50254 0.83554 0.0
C159 C 0.11642 0.52163 0.74955 0.0
C160 C 0.11093 0.54589 0.73087 0.0
C161 C 0.09415 0.50713 0.7746 0.0
C162 C 0.06636 0.51701 0.78134 0.0
C163 C 0.0831 0.55559 0.73753 0.0
C164 C 0.06085 0.54109 0.76247 0.0
C165 C 0.041 0.50075 0.8068 0.0
H166 H 0.86186 0.35221 0.82647 0.0
H167 H 0.92763 0.39456 0.84237 0.0
H168 H 0.86926 0.4406 0.76989 0.0
H169 H 0.93544 0.48311 0.78559 0.0
H170 H 0.89224 0.4738 0.90423 0.0
H171 H 0.93173 0.48667 0.86085 0.0
H172 H 0.95171 0.42323 0.94571 0.0
H173 H 0.99136 0.43593 0.9022 0.0
H174 H 0.18263 0.59733 0.83532 0.0
H175 H 0.11599 0.57215 0.82042 0.0
H176 H 0.14935 0.49543 0.8855 0.0
H177 H 0.08307 0.46968 0.87006 0.0
H178 H 0.13768 0.51371 0.74459 0.0
H179 H 0.09825 0.48784 0.78843 0.0
H180 H 0.07846 0.5742 0.7233 0.0
H181 H 0.0393 0.54874 0.76708 0.0
N182 N 0.00277 0.48247 0.80198 0.0
N183 N 0.02788 0.48838 0.8573 0.0
C184 C 0.511 0.88155 0.984 0.0
C185 C 0.47995 0.86431 0.96487 0.0
C186 C 0.52467 0.91895 0.9934 0.0
C187 C 0.50774 0.93988 0.98359 0.0
C188 C 0.46268 0.88502 0.95528 0.0
C189 C 0.47685 0.92278 0.96429 0.0
C190 C 0.52437 0.98042 0.99178 0.0
C191 C 0.4626 0.91781 0.0722 0.0
C192 C 0.48619 0.92121 0.09564 0.0
C193 C 0.47803 0.94032 0.04746 0.0
C194 C 0.51729 0.96681 0.04583 0.0
C195 C 0.5255 0.94731 0.09393 0.0
C196 C 0.54086 0.97026 0.06933 0.0
C197 C 0.53301 0.99302 0.02073 0.0
C198 C 0.60422 0.1635 0.01512 0.0
C199 C 0.63818 0.17402 0.03019 0.0
C200 C 0.58059 0.12555 0.00648 0.0
C201 C 0.59088 0.09794 0.01279 0.0
C202 C 0.6482 0.14638 0.03675 0.0
C203 C 0.62455 0.10854 0.0283 0.0
C204 C 0.56652 0.05761 0.00436 0.0
C205 C 0.60925 0.1263 0.92148 0.0
C206 C 0.58108 0.11741 0.90029 0.0
C207 C 0.6015 0.10289 0.94584 0.0
C208 C 0.56488 0.07109 0.95009 0.0
C209 C 0.54492 0.08508 0.90407 0.0
C210 C 0.53686 0.06233 0.92877 0.0
C211 C 0.55548 0.04514 0.97543 0.0
H212 H 0.52477 0.86605 0.99151 0.0
H213 H 0.5491 0.93189 0.00777 0.0
H214 H 0.43866 0.8721 0.94052 0.0
H215 H 0.46369 0.93862 0.95626 0.0
H216 H 0.43219 0.89797 0.07322 0.0
H217 H 0.45908 0.9378 0.02994 0.0
H218 H 0.54411 0.95031 0.11185 0.0
H219 H 0.57113 0.99077 0.06864 0.0
H220 H 0.59615 0.18463 0.01003 0.0
H221 H 0.55437 0.11775 0.99498 0.0
H222 H 0.67428 0.15414 0.04845 0.0
H223 H 0.63277 0.08755 0.03356 0.0
H224 H 0.63749 0.1509 0.91879 0.0
H225 H 0.62436 0.10943 0.96098 0.0
H226 H 0.52289 0.07753 0.88787 0.0
H227 H 0.50856 0.03772 0.9312 0.0
N228 N 0.53519 0.00687 0.97032 0.0
N229 N 0.55447 0.03108 0.02587 0.0
C230 C 0.50858 0.64721 0.17509 0.0
C231 C 0.47753 0.63316 0.19421 0.0
C232 C 0.5225 0.62369 0.1658 0.0
C233 C 0.50576 0.58583 0.1757 0.0
C234 C 0.4605 0.5952 0.20392 0.0
C235 C 0.47488 0.57182 0.195 0.0
C236 C 0.52238 0.562 0.16746 0.0
C237 C 0.4605 0.5637 0.08756 0.0
C238 C 0.48412 0.58438 0.06426 0.0
C239 C 0.47584 0.55595 0.11202 0.0
C240 C 0.51505 0.56857 0.11351 0.0
C241 C 0.52338 0.59738 0.06581 0.0
C242 C 0.53866 0.58915 0.09014 0.0
C243 C 0.5307 0.55783 0.13848 0.0
C244 C 0.59679 0.45488 0.14248 0.0
C245 C 0.63237 0.4783 0.12937 0.0
C246 C 0.57413 0.47026 0.15104 0.0
C247 C 0.58677 0.50908 0.14629 0.0
C248 C 0.64479 0.51698 0.12448 0.0
C249 C 0.62193 0.53216 0.13258 0.0
C250 C 0.56343 0.52604 0.15474 0.0
C251 C 0.60604 0.49953 0.23749 0.0
C252 C 0.57855 0.48219 0.25945 0.0
C253 C 0.59825 0.51472 0.21288 0.0
C254 C 0.56216 0.51129 0.20913 0.0
C255 C 0.54295 0.47967 0.25613 0.0
C256 C 0.53477 0.49378 0.23117 0.0
C257 C 0.55287 0.52788 0.18373 0.0
H258 H 0.52215 0.67648 0.1675 0.0
H259 H 0.54692 0.63534 0.15141 0.0
H260 H 0.43649 0.58394 0.21869 0.0
H261 H 0.46186 0.54282 0.20308 0.0
H262 H 0.43012 0.55323 0.08665 0.0
H263 H 0.45687 0.53921 0.12944 0.0
H264 H 0.542 0.6133 0.04797 0.0
H265 H 0.56889 0.59883 0.09073 0.0
H266 H 0.58684 0.42492 0.14631 0.0
H267 H 0.54683 0.45197 0.16128 0.0
H268 H 0.67214 0.53533 0.11432 0.0
H269 H 0.63196 0.56212 0.12858 0.0
H270 H 0.63387 0.50218 0.2398 0.0
H271 H 0.62084 0.52985 0.19727 0.0
H272 H 0.52145 0.4667 0.27291 0.0
H273 H 0.5069 0.49115 0.22918 0.0
N274 N 0.53309 0.54629 0.18888 0.0
N275 N 0.55162 0.54074 0.13325 0.0
In276 In 0.63237 0.40191 0.41271 0.0
O277 O 0.69597 0.44149 0.42161 0.0
O278 O 0.67944 0.40828 0.38285 0.0
C279 C 0.60447 0.42053 0.45899 0.0
C280 C 0.61074 0.42525 0.36519 0.0
C281 C 0.61215 0.32984 0.42791 0.0
O282 O 0.63981 0.43662 0.4538 0.0
O283 O 0.58332 0.39599 0.44053 0.0
O284 O 0.59073 0.33747 0.41293 0.0
O285 O 0.64381 0.35822 0.43463 0.0
C286 C 0.70626 0.43221 0.39856 0.0
O287 O 0.60822 0.39291 0.3668 0.0
O288 O 0.62281 0.44518 0.38792 0.0
In289 In 0.24759 0.63477 0.58025 0.0
O290 O 0.28656 0.61156 0.56673 0.0
O291 O 0.2843 0.6233 0.61127 0.0
C292 C 0.19931 0.61321 0.53481 0.0
C293 C 0.20007 0.60689 0.62595 0.0
C294 C 0.2967 0.70909 0.56932 0.0
O295 O 0.21661 0.59571 0.54183 0.0
O296 O 0.20511 0.64048 0.5513 0.0
O297 O 0.27628 0.69836 0.59187 0.0
O298 O 0.29251 0.68255 0.55273 0.0
C299 C 0.29824 0.6117 0.59212 0.0
O300 O 0.22043 0.64232 0.62116 0.0
O301 O 0.20257 0.58553 0.60714 0.0
In302 In 0.63094 0.25013 0.74656 0.0
O303 O 0.69294 0.26311 0.74611 0.0
O304 O 0.68088 0.30369 0.76525 0.0
C305 C 0.60601 0.20614 0.69866 0.0
C306 C 0.61091 0.20691 0.79502 0.0
C307 C 0.60124 0.29458 0.73293 0.0
O308 O 0.63894 0.23517 0.70042 0.0
O309 O 0.58608 0.1987 0.72138 0.0
O310 O 0.58828 0.27093 0.75362 0.0
O311 O 0.62879 0.29561 0.71947 0.0
C312 C 0.70553 0.29453 0.75924 0.0
O313 O 0.61113 0.23819 0.79376 0.0
O314 O 0.6194 0.19683 0.77159 0.0
In315 In 0.40042 0.63557 0.91251 0.0
O316 O 0.33739 0.5896 0.91628 0.0
O317 O 0.35231 0.63707 0.88841 0.0
C318 C 0.42297 0.61536 0.96093 0.0
C319 C 0.42321 0.61183 0.86554 0.0
C320 C 0.42673 0.70907 0.92715 0.0
O321 O 0.38813 0.60123 0.95448 0.0
O322 O 0.44623 0.63901 0.94287 0.0
O323 O 0.44478 0.69925 0.91017 0.0
O324 O 0.39561 0.68202 0.93645 0.0
C325 C 0.32635 0.60602 0.8987 0.0
O326 O 0.4184 0.64028 0.86489 0.0
O327 O 0.41791 0.59626 0.89007 0.0
In328 In 0.78547 0.40325 0.07977 0.0
O329 O 0.80858 0.39855 0.12385 0.0
O330 O 0.83591 0.45265 0.10284 0.0
C331 C 0.73955 0.32967 0.06575 0.0
C332 C 0.73531 0.42541 0.09502 0.0
C333 C 0.82969 0.4217 0.03227 0.0
O334 O 0.7631 0.33954 0.08643 0.0
O335 O 0.73914 0.35661 0.05233 0.0
O336 O 0.8067 0.43378 0.03633 0.0
O337 O 0.8311 0.40124 0.05235 0.0
C338 C 0.83401 0.43336 0.12491 0.0
O339 O 0.76026 0.44258 0.07568 0.0
O340 O 0.73537 0.39707 0.10625 0.0
In341 In 0.40083 0.78436 0.24653 0.0
O342 O 0.44409 0.76383 0.24804 0.0
O343 O 0.39375 0.73176 0.22299 0.0
C344 C 0.42215 0.83073 0.29314 0.0
C345 C 0.42439 0.83007 0.19944 0.0
C346 C 0.32841 0.73682 0.26267 0.0
O347 O 0.43244 0.80629 0.28953 0.0
O348 O 0.4022 0.83271 0.27296 0.0
O349 O 0.33654 0.75681 0.23993 0.0
O350 O 0.35653 0.74047 0.27702 0.0
C351 C 0.42498 0.73557 0.23162 0.0
O352 O 0.38955 0.80924 0.20561 0.0
O353 O 0.44726 0.82873 0.21728 0.0
C354 C 0.22598 0.65481 0.26519 0.0
C355 C 0.21366 0.66287 0.29172 0.0
C356 C 0.27567 0.72096 0.29789 0.0
C357 C 0.28879 0.71156 0.27238 0.0
N358 N 0.27921 0.66714 0.23402 0.0
N359 N 0.22761 0.6998 0.33566 0.0
C360 C 0.26469 0.67783 0.25659 0.0
C361 C 0.23883 0.69481 0.30882 0.0
N362 N 0.20042 0.62569 0.24794 0.0
N363 N 0.29777 0.75566 0.31088 0.0
H364 H 0.20051 0.68161 0.3441 0.0
H365 H 0.24596 0.72009 0.35051 0.0
H366 H 0.32463 0.77585 0.30314 0.0
H367 H 0.28836 0.76592 0.32777 0.0
H368 H 0.20641 0.62114 0.22685 0.0
H369 H 0.17215 0.60737 0.254 0.0
H370 H 0.26436 0.64079 0.22366 0.0
H371 H 0.30738 0.68344 0.22699 0.0
C372 C 0.58366 0.22478 0.42443 0.0
C373 C 0.57435 0.2142 0.45392 0.0
C374 C 0.59619 0.28074 0.46688 0.0
C375 C 0.601 0.29048 0.43694 0.0
N376 N 0.59817 0.27203 0.3868 0.0
N377 N 0.56631 0.23046 0.50274 0.0
C378 C 0.59428 0.26251 0.41557 0.0
C379 C 0.57935 0.24176 0.47508 0.0
N380 N 0.58361 0.19906 0.40514 0.0
N381 N 0.60785 0.3086 0.48756 0.0
H382 H 0.55375 0.20216 0.50969 0.0
H383 H 0.56492 0.24849 0.51819 0.0
H384 H 0.61948 0.33746 0.48275 0.0
H385 H 0.609 0.30354 0.50958 0.0
H386 H 0.59384 0.20599 0.38401 0.0
H387 H 0.57627 0.17128 0.41098 0.0
H388 H 0.58903 0.25204 0.37011 0.0
H389 H 0.60895 0.29996 0.37945 0.0
C390 C 0.35187 0.55654 0.59306 0.0
C391 C 0.37624 0.57367 0.61726 0.0
C392 C 0.35553 0.62092 0.61984 0.0
C393 C 0.32636 0.59962 0.59926 0.0
N394 N 0.29234 0.54197 0.57051 0.0
N395 N 0.39584 0.61822 0.65727 0.0
C396 C 0.32337 0.56609 0.5868 0.0
C397 C 0.37669 0.60487 0.63166 0.0
N398 N 0.35633 0.53167 0.57571 0.0
N399 N 0.36415 0.65706 0.62735 0.0
H400 H 0.41067 0.60647 0.66731 0.0
H401 H 0.39373 0.63841 0.66995 0.0
H402 H 0.35106 0.67094 0.61784 0.0
H403 H 0.38742 0.67483 0.64036 0.0
H404 H 0.34154 0.52117 0.55629 0.0
H405 H 0.37768 0.52484 0.5791 0.0
H406 H 0.2874 0.51539 0.56344 0.0
H407 H 0.2694 0.54623 0.56676 0.0
C408 C 0.79054 0.35658 0.80696 0.0
C409 C 0.82117 0.36737 0.78729 0.0
C410 C 0.77587 0.33128 0.74849 0.0
C411 C 0.74559 0.31797 0.76883 0.0
N412 N 0.72522 0.31022 0.81884 0.0
N413 N 0.84384 0.35879 0.74105 0.0
C414 C 0.75322 0.3284 0.7985 0.0
C415 C 0.8141 0.35289 0.75851 0.0
N416 N 0.79684 0.3741 0.83337 0.0
N417 N 0.76818 0.32483 0.71951 0.0
H418 H 0.87224 0.37417 0.74771 0.0
H419 H 0.84018 0.34553 0.72099 0.0
H420 H 0.74056 0.3096 0.71121 0.0
H421 H 0.78901 0.33745 0.70352 0.0
H422 H 0.77489 0.37017 0.84728 0.0
H423 H 0.82373 0.39531 0.84029 0.0
H424 H 0.73028 0.31404 0.84108 0.0
H425 H 0.69786 0.28822 0.81372 0.0
C426 C 0.45015 0.79421 0.97522 0.0
C427 C 0.46583 0.82454 0.95484 0.0
C428 C 0.45296 0.77869 0.91563 0.0
C429 C 0.44133 0.74908 0.93648 0.0
N430 N 0.43818 0.73088 0.98675 0.0
N431 N 0.48953 0.8467 0.90646 0.0
C432 C 0.44247 0.75742 0.96649 0.0
C433 C 0.46937 0.81712 0.92523 0.0
N434 N 0.44165 0.80023 0.00271 0.0
N435 N 0.44688 0.77012 0.88675 0.0
H436 H 0.50264 0.87529 0.91272 0.0
H437 H 0.49631 0.84282 0.88541 0.0
H438 H 0.43395 0.74228 0.87879 0.0
H439 H 0.45122 0.79031 0.87093 0.0
H440 H 0.42672 0.77818 0.01751 0.0
H441 H 0.4461 0.82665 0.00981 0.0
H442 H 0.44229 0.73677 0.00888 0.0
H443 H 0.43496 0.70445 0.98121 0.0
C444 C 0.65875 0.45349 0.09136 0.0
C445 C 0.65714 0.46264 0.12086 0.0
C446 C 0.70737 0.44815 0.13336 0.0
C447 C 0.70793 0.43755 0.10404 0.0
N448 N 0.6795 0.42284 0.05642 0.0
N449 N 0.67574 0.46436 0.17078 0.0
C450 C 0.68243 0.43834 0.08333 0.0
C451 C 0.68012 0.45852 0.14213 0.0
N452 N 0.63794 0.45973 0.07097 0.0
N453 N 0.73407 0.45006 0.15251 0.0
H454 H 0.65763 0.47401 0.17796 0.0
H455 H 0.68809 0.45732 0.18771 0.0
H456 H 0.75398 0.44192 0.14726 0.0
H457 H 0.73842 0.46217 0.17307 0.0
H458 H 0.64147 0.45833 0.04872 0.0
H459 H 0.61852 0.46858 0.07619 0.0
H460 H 0.65866 0.41876 0.04136 0.0
H461 H 0.69585 0.41082 0.0499 0.0
C462 C 0.33784 0.81548 0.5553 0.0
C463 C 0.37357 0.82481 0.54296 0.0
C464 C 0.36156 0.76056 0.55408 0.0
C465 C 0.3237 0.74964 0.56236 0.0
N466 N 0.27358 0.76536 0.56604 0.0
N467 N 0.4171 0.80448 0.52631 0.0
C468 C 0.31121 0.77676 0.56189 0.0
C469 C 0.38489 0.7969 0.54122 0.0
N470 N 0.32965 0.84368 0.56132 0.0
N471 N 0.37571 0.73676 0.5594 0.0
H472 H 0.43471 0.83057 0.51616 0.0
H473 H 0.4244 0.78373 0.52175 0.0
H474 H 0.35998 0.71046 0.5698 0.0
H475 H 0.40426 0.74484 0.55636 0.0
H476 H 0.30565 0.83892 0.57301 0.0
H477 H 0.34866 0.87248 0.55715 0.0
H478 H 0.26242 0.78334 0.56275 0.0
H479 H 0.25271 0.73712 0.56999 0.0
C480 C 0.60004 0.38259 0.70642 0.0
C481 C 0.5604 0.36911 0.70472 0.0
C482 C 0.54679 0.30559 0.7205 0.0
C483 C 0.58642 0.32029 0.72511 0.0
N484 N 0.64962 0.37542 0.72948 0.0
N485 N 0.49645 0.32152 0.71492 0.0
C486 C 0.61276 0.35959 0.7201 0.0
C487 C 0.53385 0.33141 0.71324 0.0
N488 N 0.62552 0.41662 0.69395 0.0
N489 N 0.52194 0.2671 0.72126 0.0
H490 H 0.47487 0.29557 0.72305 0.0
H491 H 0.47487 0.29557 0.72305 0.0
H492 H 0.53029 0.24713 0.72578 0.0
H493 H 0.49364 0.25464 0.71459 0.0
H494 H 0.65452 0.42593 0.69213 0.0
H495 H 0.61716 0.43359 0.6827 0.0
H496 H 0.66894 0.40467 0.72872 0.0
H497 H 0.65968 0.3601 0.74105 0.0
C498 C 0.23223 0.54749 0.85919 0.0
C499 C 0.21072 0.56322 0.87092 0.0
C500 C 0.26549 0.60777 0.90043 0.0
C501 C 0.28601 0.59014 0.89026 0.0
N502 N 0.28803 0.54033 0.86298 0.0
N503 N 0.2041 0.60391 0.90583 0.0
C504 C 0.26901 0.55898 0.87063 0.0
C505 C 0.22662 0.59226 0.89237 0.0
N506 N 0.21805 0.5227 0.8363 0.0
N507 N 0.28329 0.63953 0.91763 0.0
H508 H 0.17553 0.5933 0.90046 0.0
H509 H 0.21271 0.62185 0.92384 0.0
H510 H 0.31101 0.65043 0.92541 0.0
H511 H 0.2715 0.65649 0.9228 0.0
H512 H 0.23385 0.51333 0.8247 0.0
H513 H 0.19131 0.51382 0.82722 0.0
H514 H 0.2756 0.51478 0.85144 0.0
H515 H 0.31564 0.54895 0.86995 0.0
C516 C 0.69353 0.23927 0.02048 0.0
C517 C 0.66367 0.21412 0.03922 0.0
C518 C 0.68298 0.26515 0.07523 0.0
C519 C 0.71436 0.28944 0.05734 0.0
N520 N 0.75364 0.29858 0.01547 0.0
N521 N 0.63222 0.20069 0.08569 0.0
C522 C 0.72075 0.27625 0.03059 0.0
C523 C 0.65905 0.22636 0.06701 0.0
N524 N 0.69545 0.22793 0.99288 0.0
N525 N 0.67522 0.27957 0.09946 0.0
H526 H 0.61323 0.17239 0.08003 0.0
H527 H 0.63034 0.20661 0.1074 0.0
H528 H 0.69239 0.30772 0.10636 0.0
H529 H 0.65038 0.2646 0.11162 0.0
H530 H 0.7139 0.24627 0.97709 0.0
H531 H 0.67656 0.20068 0.98498 0.0
H532 H 0.76192 0.28928 0.99729 0.0
H533 H 0.77454 0.32554 0.02258 0.0
C534 C 0.44689 0.67253 0.18377 0.0
C535 C 0.46317 0.65857 0.20415 0.0
C536 C 0.45067 0.69193 0.2432 0.0
C537 C 0.43859 0.70941 0.2223 0.0
N538 N 0.43398 0.72313 0.17193 0.0
N539 N 0.48764 0.66107 0.25239 0.0
C540 C 0.43903 0.70154 0.19233 0.0
C541 C 0.46708 0.66997 0.23367 0.0
N542 N 0.43809 0.65749 0.15643 0.0
N543 N 0.44505 0.69489 0.2721 0.0
H544 H 0.50074 0.64561 0.24618 0.0
H545 H 0.49472 0.67211 0.27333 0.0
H546 H 0.43207 0.70974 0.28001 0.0
H547 H 0.44977 0.67943 0.28802 0.0
H548 H 0.42273 0.66404 0.14166 0.0
H549 H 0.4428 0.63566 0.14945 0.0
H550 H 0.43769 0.72098 0.14979 0.0
H551 H 0.43043 0.74617 0.17727 0.0
C552 C 0.79472 0.43387 0.36985 0.0
C553 C 0.82222 0.47323 0.37204 0.0
C554 C 0.77315 0.48644 0.39025 0.0
C555 C 0.74668 0.44663 0.39082 0.0
N556 N 0.73532 0.38206 0.38807 0.0
N557 N 0.83965 0.53592 0.39014 0.0
C558 C 0.75832 0.42018 0.3826 0.0
C559 C 0.81206 0.49926 0.38399 0.0
N560 N 0.80282 0.40972 0.35475 0.0
N561 N 0.76098 0.51212 0.39421 0.0
H562 H 0.86856 0.54624 0.38631 0.0
H563 H 0.83423 0.55492 0.40157 0.0
H564 H 0.73255 0.50404 0.39797 0.0
H565 H 0.77846 0.54138 0.39094 0.0
H566 H 0.78236 0.38158 0.34996 0.0
H567 H 0.82893 0.41874 0.34452 0.0
H568 H 0.74409 0.3621 0.38504 0.0
H569 H 0.70915 0.3709 0.39867 0.0
C570 C 0.17061 0.59629 0.45515 0.0
C571 C 0.13328 0.59091 0.45663 0.0
C572 C 0.13769 0.59565 0.50969 0.0
C573 C 0.17623 0.60448 0.50799 0.0
N574 N 0.23183 0.6207 0.47876 0.0
N575 N 0.08309 0.59125 0.4845 0.0
C576 C 0.19338 0.60671 0.48063 0.0
C577 C 0.1173 0.59222 0.4837 0.0
N578 N 0.184 0.59059 0.42951 0.0
N579 N 0.12014 0.58911 0.53609 0.0
H580 H 0.06722 0.58857 0.46592 0.0
H581 H 0.07193 0.5963 0.50322 0.0
H582 H 0.13405 0.59097 0.55556 0.0
H583 H 0.091 0.57855 0.5386 0.0
H584 H 0.20924 0.58984 0.42782 0.0
H585 H 0.16835 0.58343 0.41027 0.0
H586 H 0.2465 0.62693 0.45915 0.0
H587 H 0.24986 0.6296 0.49674 0.0
C588 C 0.53811 0.14614 0.63829 0.0
C589 C 0.56279 0.14018 0.61998 0.0
C590 C 0.61458 0.17345 0.6551 0.0
C591 C 0.59125 0.18348 0.67155 0.0
N592 N 0.5338 0.18779 0.67369 0.0
N593 N 0.62714 0.15631 0.6078 0.0
C594 C 0.5538 0.17221 0.66175 0.0
C595 C 0.60187 0.15631 0.62742 0.0
N596 N 0.49955 0.12602 0.63405 0.0
N597 N 0.64799 0.17846 0.66635 0.0
H598 H 0.61919 0.14514 0.58692 0.0
H599 H 0.65652 0.17096 0.6112 0.0
H600 H 0.65746 0.18887 0.6872 0.0
H601 H 0.66411 0.16822 0.65624 0.0
H602 H 0.48025 0.12675 0.64862 0.0
H603 H 0.48665 0.10564 0.61773 0.0
H604 H 0.50783 0.18297 0.66538 0.0
H605 H 0.54506 0.20901 0.68952 0.0
C606 C 0.46508 0.60872 0.79225 0.0
C607 C 0.44809 0.56877 0.7878 0.0
C608 C 0.41254 0.557 0.8332 0.0
C609 C 0.43261 0.59686 0.83923 0.0
N610 N 0.48499 0.65959 0.82742 0.0
N611 N 0.41302 0.50505 0.80764 0.0
C612 C 0.4609 0.6225 0.81958 0.0
C613 C 0.42407 0.54294 0.80939 0.0
N614 N 0.48418 0.63355 0.77014 0.0
N615 N 0.38113 0.5326 0.84903 0.0
H616 H 0.42155 0.49367 0.79089 0.0
H617 H 0.39871 0.48575 0.82437 0.0
H618 H 0.37026 0.54143 0.86587 0.0
H619 H 0.36335 0.50407 0.84338 0.0
H620 H 0.4937 0.66269 0.77134 0.0
H621 H 0.48732 0.62458 0.74963 0.0
H622 H 0.50838 0.67842 0.81495 0.0
H623 H 0.48429 0.67041 0.84779 0.0
C624 C 0.85686 0.41281 0.95496 0.0
C625 C 0.89606 0.44124 0.95474 0.0
C626 C 0.89203 0.45593 0.00584 0.0
C627 C 0.8523 0.42951 0.00537 0.0
N628 N 0.79539 0.3868 0.97868 0.0
N629 N 0.94963 0.49454 0.978 0.0
C630 C 0.83422 0.40926 0.97963 0.0
C631 C 0.91334 0.46408 0.97968 0.0
N632 N 0.84168 0.38819 0.93206 0.0
N633 N 0.90945 0.47303 0.03135 0.0
H634 H 0.96606 0.50161 0.95917 0.0
H635 H 0.96239 0.51473 0.99441 0.0
H636 H 0.8945 0.46928 0.05064 0.0
H637 H 0.93892 0.48898 0.03389 0.0
H638 H 0.81448 0.36424 0.93221 0.0
H639 H 0.85741 0.38977 0.91367 0.0
H640 H 0.78019 0.37464 0.9597 0.0
H641 H 0.77788 0.38252 0.99653 0.0
C642 C 0.45362 0.8576 0.12099 0.0
C643 C 0.46947 0.89781 0.12223 0.0
C644 C 0.45602 0.89368 0.17445 0.0
C645 C 0.43776 0.85331 0.17267 0.0
N646 N 0.41246 0.79623 0.14346 0.0
N647 N 0.47893 0.95345 0.1486 0.0
C648 C 0.43433 0.83507 0.14565 0.0
C649 C 0.46884 0.91573 0.14857 0.0
N650 N 0.45849 0.84111 0.09669 0.0
N651 N 0.46123 0.91097 0.20087 0.0
H652 H 0.48777 0.97039 0.13 0.0
H653 H 0.47531 0.96713 0.16641 0.0
H654 H 0.45022 0.89574 0.22009 0.0
H655 H 0.47837 0.94029 0.20399 0.0
H656 H 0.45123 0.81253 0.09563 0.0
H657 H 0.47306 0.8567 0.07835 0.0
H658 H 0.4057 0.78168 0.12376 0.0
H659 H 0.3982 0.77866 0.16106 0.0
C660 C 0.56486 0.42816 0.29369 0.0
C661 C 0.58717 0.46742 0.28632 0.0
C662 C 0.62797 0.47749 0.32845 0.0
C663 C 0.60243 0.43968 0.33808 0.0
N664 N 0.5416 0.38171 0.33249 0.0
N665 N 0.63477 0.53128 0.30078 0.0
C666 C 0.56946 0.41566 0.32143 0.0
C667 C 0.61723 0.49268 0.3049 0.0
N668 N 0.54012 0.40254 0.27394 0.0
N669 N 0.66335 0.49835 0.3406 0.0
H670 H 0.62694 0.54378 0.2844 0.0
H671 H 0.65429 0.55089 0.3155 0.0
H672 H 0.67372 0.48759 0.3565 0.0
H673 H 0.68409 0.52467 0.3324 0.0
H674 H 0.52595 0.37311 0.27729 0.0
H675 H 0.5368 0.41035 0.25305 0.0
H676 H 0.51543 0.36499 0.32225 0.0
H677 H 0.54274 0.37229 0.35332 0.0
C678 C 0.41474 0.8589 0.37045 0.0
C679 C 0.44397 0.89781 0.3706 0.0
C680 C 0.45786 0.8932 0.3194 0.0
C681 C 0.43061 0.85364 0.31995 0.0
N682 N 0.3869 0.79719 0.34681 0.0
N683 N 0.49764 0.95072 0.34712 0.0
C684 C 0.41029 0.83596 0.34578 0.0
C685 C 0.46671 0.91468 0.34555 0.0
N686 N 0.3902 0.84432 0.39344 0.0
N687 N 0.47509 0.91028 0.29384 0.0
H688 H 0.50512 0.96725 0.36593 0.0
H689 H 0.51771 0.96314 0.33062 0.0
H690 H 0.47084 0.89511 0.27459 0.0
H691 H 0.49174 0.93973 0.29123 0.0
H692 H 0.36569 0.81751 0.39331 0.0
H693 H 0.39247 0.86026 0.41189 0.0
H694 H 0.37469 0.78218 0.36586 0.0
H695 H 0.3818 0.77945 0.32897 0.0
C696 C 0.58448 0.47477 0.51753 0.0
C697 C 0.56025 0.44436 0.5363 0.0
C698 C 0.56664 0.39868 0.5052 0.0
C699 C 0.58889 0.42871 0.48542 0.0
N700 N 0.61379 0.4939 0.47 0.0
N701 N 0.52453 0.37698 0.54695 0.0
C702 C 0.59662 0.46646 0.49091 0.0
C703 C 0.55019 0.40618 0.52978 0.0
N704 N 0.59608 0.51164 0.52527 0.0
N705 N 0.56265 0.36335 0.50123 0.0
H706 H 0.51354 0.38138 0.56609 0.0
H707 H 0.5122 0.34825 0.54141 0.0
H708 H 0.57359 0.35633 0.48335 0.0
H709 H 0.55098 0.34164 0.51664 0.0
H710 H 0.61729 0.53534 0.5144 0.0
H711 H 0.58631 0.51876 0.54385 0.0
H712 H 0.61657 0.52087 0.47127 0.0
H713 H 0.62241 0.48874 0.45001 0.0
C714 C 0.17256 0.59077 0.70589 0.0
C715 C 0.13402 0.56103 0.70402 0.0
C716 C 0.1377 0.56412 0.65089 0.0
C717 C 0.17715 0.59146 0.65278 0.0
N718 N 0.23399 0.62474 0.68217 0.0
N719 N 0.08154 0.51458 0.67518 0.0
C720 C 0.19513 0.60324 0.68031 0.0
C721 C 0.11704 0.54628 0.67661 0.0
N722 N 0.18734 0.60783 0.732 0.0
N723 N 0.11959 0.55633 0.62465 0.0
H724 H 0.06555 0.50073 0.69356 0.0
H725 H 0.06934 0.50006 0.65595 0.0
H726 H 0.13361 0.56926 0.6054 0.0
H727 H 0.09012 0.53979 0.6223 0.0
H728 H 0.21385 0.63249 0.73414 0.0
H729 H 0.17182 0.59931 0.7513 0.0
H730 H 0.24883 0.6306 0.7017 0.0
H731 H 0.25184 0.63362 0.66409 0.0
C732 C 0.56849 0.16012 0.8679 0.0
C733 C 0.58947 0.14137 0.87376 0.0
C734 C 0.62823 0.17084 0.83048 0.0
C735 C 0.60361 0.18479 0.82234 0.0
N736 N 0.54531 0.1859 0.83097 0.0
N737 N 0.63401 0.12238 0.85686 0.0
C738 C 0.57235 0.17767 0.84043 0.0
C739 C 0.61785 0.14484 0.85397 0.0
N740 N 0.54572 0.16219 0.88883 0.0
N741 N 0.6625 0.18377 0.81684 0.0
H742 H 0.62637 0.10199 0.8732 0.0
H743 H 0.65207 0.12128 0.84128 0.0
H744 H 0.67258 0.20475 0.80079 0.0
H745 H 0.68286 0.17703 0.82389 0.0
H746 H 0.53274 0.17872 0.88663 0.0
H747 H 0.54297 0.15065 0.90952 0.0
H748 H 0.52008 0.17776 0.84224 0.0
H749 H 0.54599 0.19713 0.81048 0.0
C750 C 0.45185 0.61599 0.03937 0.0
C751 C 0.46742 0.59144 0.03786 0.0
C752 C 0.45386 0.58263 0.98566 0.0
C753 C 0.43601 0.60506 0.98764 0.0
N754 N 0.41123 0.63694 0.01714 0.0
N755 N 0.47617 0.5451 0.01113 0.0
C756 C 0.43275 0.6197 0.01478 0.0
C757 C 0.46652 0.57301 0.0114 0.0
N758 N 0.45679 0.63704 0.06387 0.0
N759 N 0.45886 0.57061 0.95915 0.0
H760 H 0.4849 0.53671 0.02963 0.0
H761 H 0.47227 0.52783 0.99323 0.0
H762 H 0.44789 0.57498 0.93998 0.0
H763 H 0.47582 0.55832 0.95589 0.0
H764 H 0.44973 0.65845 0.06518 0.0
H765 H 0.47116 0.63561 0.08217 0.0
H766 H 0.40461 0.64469 0.03689 0.0
H767 H 0.39711 0.64053 0.99958 0.0
C768 C 0.87468 0.49014 0.19447 0.0
C769 C 0.9018 0.47927 0.20213 0.0
C770 C 0.88418 0.43776 0.15929 0.0
C771 C 0.85874 0.4505 0.15068 0.0
N772 N 0.83463 0.49394 0.15723 0.0
N773 N 0.9373 0.44802 0.18987 0.0
C774 C 0.85561 0.4784 0.16733 0.0
C775 C 0.90788 0.45444 0.18402 0.0
N776 N 0.86595 0.51035 0.21372 0.0
N777 N 0.88578 0.40978 0.14377 0.0
H778 H 0.95523 0.45976 0.20776 0.0
H779 H 0.94597 0.43363 0.17589 0.0
H780 H 0.87127 0.39902 0.12426 0.0
H781 H 0.89996 0.3958 0.15091 0.0
H782 H 0.84328 0.51529 0.21095 0.0
H783 H 0.87925 0.51945 0.23385 0.0
H784 H 0.83496 0.51745 0.16674 0.0
H785 H 0.81906 0.48547 0.13802 0.0
loop_
_geom_bond_atom_site_label_1
_geom_bond_atom_site_label_2
_geom_bond_distance
_geom_bond_site_symmetry_2
_ccdc_geom_bond_type
C0 C1 1.384 . S
C0 C2 1.384 . S
C0 H28 0.931 . S
C1 C0 1.384 . S
C1 C4 1.382 . S
C2 C0 1.384 . S
C2 C3 1.381 . S
C2 H29 0.930 . S
C3 C2 1.381 . S
C3 C5 1.381 . S
C3 C6 1.487 . S
C4 C1 1.382 . S
C4 C5 1.387 . S
C4 H30 0.930 . S
C5 C3 1.381 . S
C5 C4 1.387 . S
C5 H31 0.931 . S
C6 C3 1.487 . S
C6 C13 1.399 . S
C6 N44 1.343 1_655 S
C7 C8 1.384 . S
C7 C9 1.384 . S
C7 H32 0.931 . S
C8 C7 1.384 . S
C8 C11 1.382 . S
C9 C7 1.384 . S
C9 C10 1.381 . S
C9 H33 0.930 . S
C10 C9 1.381 . S
C10 C12 1.381 . S
C10 C13 1.487 . S
C11 C8 1.382 . S
C11 C12 1.387 . S
C11 H34 0.930 . S
C12 C10 1.381 . S
C12 C11 1.387 . S
C12 H35 0.931 . S
C13 C6 1.399 . S
C13 C10 1.487 . S
C13 N45 1.343 1_655 S
C14 C15 1.384 . S
C14 C16 1.384 . S
C14 H36 0.931 . S
C15 C14 1.384 . S
C15 C18 1.382 . S
C16 C14 1.384 . S
C16 C17 1.381 . S
C16 H37 0.930 . S
C17 C16 1.381 . S
C17 C19 1.381 . S
C17 C20 1.487 . S
C18 C15 1.382 . S
C18 C19 1.387 . S
C18 H38 0.930 . S
C19 C17 1.381 . S
C19 C18 1.387 . S
C19 H39 0.931 . S
C20 C17 1.487 . S
C20 C27 1.399 . S
C20 N45 1.343 . S
C21 C22 1.384 . S
C21 C23 1.384 . S
C21 H40 0.931 . S
C22 C21 1.384 . S
C22 C25 1.382 . S
C23 C21 1.384 . S
C23 C24 1.381 . S
C23 H41 0.930 . S
C24 C23 1.381 . S
C24 C26 1.381 . S
C24 C27 1.487 . S
C25 C22 1.382 . S
C25 C26 1.387 . S
C25 H42 0.930 . S
C26 C24 1.381 . S
C26 C25 1.387 . S
C26 H43 0.931 . S
C27 C20 1.399 . S
C27 C24 1.487 . S
C27 N44 1.343 . S
H28 C0 0.931 . S
H29 C2 0.930 . S
H30 C4 0.930 . S
H31 C5 0.931 . S
H32 C7 0.931 . S
H33 C9 0.930 . S
H34 C11 0.930 . S
H35 C12 0.931 . S
H36 C14 0.931 . S
H37 C16 0.930 . S
H38 C18 0.930 . S
H39 C19 0.931 . S
H40 C21 0.931 . S
H41 C23 0.930 . S
H42 C25 0.930 . S
H43 C26 0.931 . S
N44 C6 1.343 1_455 S
N44 C27 1.343 . S
N45 C13 1.343 1_455 S
N45 C20 1.343 . S
C46 C47 1.384 . S
C46 C48 1.384 . S
C46 H74 0.931 . S
C47 C46 1.384 . S
C47 C50 1.382 . S
C48 C46 1.384 . S
C48 C49 1.381 . S
C48 H75 0.930 . S
C49 C48 1.381 . S
C49 C51 1.381 . S
C49 C52 1.487 . S
C50 C47 1.382 . S
C50 C51 1.387 . S
C50 H76 0.930 . S
C51 C49 1.381 . S
C51 C50 1.387 . S
C51 H77 0.931 . S
C52 C49 1.487 . S
C52 C59 1.399 . S
C52 N90 1.343 1_565 S
C53 C54 1.384 . S
C53 C55 1.384 . S
C53 H78 0.931 . S
C54 C53 1.384 . S
C54 C57 1.382 . S
C55 C53 1.384 . S
C55 C56 1.381 . S
C55 H79 0.930 . S
C56 C55 1.381 . S
C56 C58 1.381 . S
C56 C59 1.487 . S
C57 C54 1.382 . S
C57 C58 1.387 . S
C57 H80 0.930 . S
C58 C56 1.381 . S
C58 C57 1.387 . S
C58 H81 0.931 . S
C59 C52 1.399 . S
C59 C56 1.487 . S
C59 N91 1.343 1_565 S
C60 C61 1.384 . S
C60 C62 1.384 . S
C60 H82 0.931 . S
C61 C60 1.384 . S
C61 C64 1.382 . S
C62 C60 1.384 . S
C62 C63 1.381 . S
C62 H83 0.930 . S
C63 C62 1.381 . S
C63 C65 1.381 . S
C63 C66 1.487 . S
C64 C61 1.382 . S
C64 C65 1.387 . S
C64 H84 0.930 . S
C65 C63 1.381 . S
C65 C64 1.387 . S
C65 H85 0.931 . S
C66 C63 1.487 . S
C66 C73 1.399 . S
C66 N91 1.343 . S
C67 C68 1.384 . S
C67 C69 1.384 . S
C67 H86 0.931 . S
C68 C67 1.384 . S
C68 C71 1.382 . S
C69 C67 1.384 . S
C69 C70 1.381 . S
C69 H87 0.930 . S
C70 C69 1.381 . S
C70 C72 1.381 . S
C70 C73 1.487 . S
C71 C68 1.382 . S
C71 C72 1.387 . S
C71 H88 0.930 . S
C72 C70 1.381 . S
C72 C71 1.387 . S
C72 H89 0.931 . S
C73 C66 1.399 . S
C73 C70 1.487 . S
C73 N90 1.343 . S
H74 C46 0.931 . S
H75 C48 0.930 . S
H76 C50 0.930 . S
H77 C51 0.931 . S
H78 C53 0.931 . S
H79 C55 0.930 . S
H80 C57 0.930 . S
H81 C58 0.931 . S
H82 C60 0.931 . S
H83 C62 0.930 . S
H84 C64 0.930 . S
H85 C65 0.931 . S
H86 C67 0.931 . S
H87 C69 0.930 . S
H88 C71 0.930 . S
H89 C72 0.931 . S
N90 C52 1.343 1_545 S
N90 C73 1.343 . S
N91 C59 1.343 1_545 S
N91 C66 1.343 . S
C92 C93 1.384 . S
C92 C94 1.384 . S
C92 H120 0.931 . S
C93 C92 1.384 . S
C93 C96 1.382 . S
C94 C92 1.384 . S
C94 C95 1.381 . S
C94 H121 0.930 . S
C95 C94 1.381 . S
C95 C97 1.381 . S
C95 C98 1.487 . S
C96 C93 1.382 . S
C96 C97 1.387 . S
C96 H122 0.930 . S
C97 C95 1.381 . S
C97 C96 1.387 . S
C97 H123 0.931 . S
C98 C95 1.487 . S
C98 C105 1.399 . S
C98 N136 1.343 . S
C99 C100 1.384 . S
C99 C101 1.384 . S
C99 H124 0.931 . S
C100 C99 1.384 . S
C100 C103 1.382 . S
C101 C99 1.384 . S
C101 C102 1.381 . S
C101 H125 0.930 . S
C102 C101 1.381 . S
C102 C104 1.381 . S
C102 C105 1.487 . S
C103 C100 1.382 . S
C103 C104 1.387 . S
C103 H126 0.930 . S
C104 C102 1.381 . S
C104 C103 1.387 . S
C104 H127 0.931 . S
C105 C98 1.399 . S
C105 C102 1.487 . S
C105 N137 1.343 . S
C106 C107 1.384 . S
C106 C108 1.384 . S
C106 H128 0.931 . S
C107 C106 1.384 . S
C107 C110 1.382 . S
C108 C106 1.384 . S
C108 C109 1.381 . S
C108 H129 0.930 . S
C109 C108 1.381 . S
C109 C111 1.381 . S
C109 C112 1.487 . S
C110 C107 1.382 . S
C110 C111 1.387 . S
C110 H130 0.930 . S
C111 C109 1.381 . S
C111 C110 1.387 . S
C111 H131 0.931 . S
C112 C109 1.487 . S
C112 C119 1.399 . S
C112 N137 1.343 . S
C113 C114 1.384 . S
C113 C115 1.384 . S
C113 H132 0.931 . S
C114 C113 1.384 . S
C114 C117 1.382 . S
C115 C113 1.384 . S
C115 C116 1.381 . S
C115 H133 0.930 . S
C116 C115 1.381 . S
C116 C118 1.381 . S
C116 C119 1.487 . S
C117 C114 1.382 . S
C117 C118 1.387 . S
C117 H134 0.930 . S
C118 C116 1.381 . S
C118 C117 1.387 . S
C118 H135 0.931 . S
C119 C112 1.399 . S
C119 C116 1.487 . S
C119 N136 1.343 . S
H120 C92 0.931 . S
H121 C94 0.930 . S
H122 C96 0.930 . S
H123 C97 0.931 . S
H124 C99 0.931 . S
H125 C101 0.930 . S
H126 C103 0.930 . S
H127 C104 0.931 . S
H128 C106 0.931 . S
H129 C108 0.930 . S
H130 C110 0.930 . S
H131 C111 0.931 . S
H132 C113 0.931 . S
H133 C115 0.930 . S
H134 C117 0.930 . S
H135 C118 0.931 . S
N136 C98 1.343 . S
N136 C119 1.343 . S
N137 C105 1.343 . S
N137 C112 1.343 . S
C138 C139 1.384 . S
C138 C140 1.384 . S
C138 H166 0.931 . S
C139 C138 1.384 . S
C139 C142 1.382 . S
C140 C138 1.384 . S
C140 C141 1.381 . S
C140 H167 0.930 . S
C141 C140 1.381 . S
C141 C143 1.381 . S
C141 C144 1.487 . S
C142 C139 1.382 . S
C142 C143 1.387 . S
C142 H168 0.930 . S
C143 C141 1.381 . S
C143 C142 1.387 . S
C143 H169 0.931 . S
C144 C141 1.487 . S
C144 C151 1.399 . S
C144 N182 1.343 1_655 S
C145 C146 1.384 . S
C145 C147 1.384 . S
C145 H170 0.931 . S
C146 C145 1.384 . S
C146 C149 1.382 . S
C147 C145 1.384 . S
C147 C148 1.381 . S
C147 H171 0.930 . S
C148 C147 1.381 . S
C148 C150 1.381 . S
C148 C151 1.487 . S
C149 C146 1.382 . S
C149 C150 1.387 . S
C149 H172 0.930 . S
C150 C148 1.381 . S
C150 C149 1.387 . S
C150 H173 0.931 . S
C151 C144 1.399 . S
C151 C148 1.487 . S
C151 N183 1.343 1_655 S
C152 C153 1.384 . S
C152 C154 1.384 . S
C152 H174 0.931 . S
C153 C152 1.384 . S
C153 C156 1.382 . S
C154 C152 1.384 . S
C154 C155 1.381 . S
C154 H175 0.930 . S
C155 C154 1.381 . S
C155 C157 1.381 . S
C155 C158 1.487 . S
C156 C153 1.382 . S
C156 C157 1.387 . S
C156 H176 0.930 . S
C157 C155 1.381 . S
C157 C156 1.387 . S
C157 H177 0.931 . S
C158 C155 1.487 . S
C158 C165 1.399 . S
C158 N183 1.343 . S
C159 C160 1.384 . S
C159 C161 1.384 . S
C159 H178 0.931 . S
C160 C159 1.384 . S
C160 C163 1.382 . S
C161 C159 1.384 . S
C161 C162 1.381 . S
C161 H179 0.930 . S
C162 C161 1.381 . S
C162 C164 1.381 . S
C162 C165 1.487 . S
C163 C160 1.382 . S
C163 C164 1.387 . S
C163 H180 0.930 . S
C164 C162 1.381 . S
C164 C163 1.387 . S
C164 H181 0.931 . S
C165 C158 1.399 . S
C165 C162 1.487 . S
C165 N182 1.343 . S
H166 C138 0.931 . S
H167 C140 0.930 . S
H168 C142 0.930 . S
H169 C143 0.931 . S
H170 C145 0.931 . S
H171 C147 0.930 . S
H172 C149 0.930 . S
H173 C150 0.931 . S
H174 C152 0.931 . S
H175 C154 0.930 . S
H176 C156 0.930 . S
H177 C157 0.931 . S
H178 C159 0.931 . S
H179 C161 0.930 . S
H180 C163 0.930 . S
H181 C164 0.931 . S
N182 C144 1.343 1_455 S
N182 C165 1.343 . S
N183 C151 1.343 1_455 S
N183 C158 1.343 . S
C184 C185 1.384 . S
C184 C186 1.384 . S
C184 H212 0.931 . S
C185 C184 1.384 . S
C185 C188 1.382 . S
C186 C184 1.384 . S
C186 C187 1.381 . S
C186 H213 0.930 1_556 S
C187 C186 1.381 . S
C187 C189 1.381 . S
C187 C190 1.487 . S
C188 C185 1.382 . S
C188 C189 1.387 . S
C188 H214 0.930 . S
C189 C187 1.381 . S
C189 C188 1.387 . S
C189 H215 0.931 . S
C190 C187 1.487 . S
C190 C197 1.399 1_556 S
C190 N228 1.343 1_565 S
C191 C192 1.384 . S
C191 C193 1.384 . S
C191 H216 0.931 . S
C192 C191 1.384 . S
C192 C195 1.382 . S
C193 C191 1.384 . S
C193 C194 1.381 . S
C193 H217 0.930 . S
C194 C193 1.381 . S
C194 C196 1.381 . S
C194 C197 1.487 . S
C195 C192 1.382 . S
C195 C196 1.387 . S
C195 H218 0.930 . S
C196 C194 1.381 . S
C196 C195 1.387 . S
C196 H219 0.931 . S
C197 C190 1.399 1_554 S
C197 C194 1.487 . S
C197 N229 1.343 1_565 S
C198 C199 1.384 . S
C198 C200 1.384 1_554 S
C198 H220 0.920 1_554 S
C199 C198 1.384 . S
C199 C202 1.382 . S
C200 C198 1.384 1_556 S
C200 C201 1.381 1_556 S
C200 H221 0.930 . S
C201 C200 1.381 1_554 S
C201 C203 1.381 . S
C201 C204 1.484 1_554 S
C202 C199 1.382 . S
C202 C203 1.387 . S
C202 H222 0.930 . S
C203 C201 1.381 . S
C203 C202 1.387 . S
C203 H223 0.931 . S
C204 C201 1.484 1_556 S
C204 C211 1.410 . S
C204 N229 1.334 1_556 S
C205 C206 1.384 . S
C205 C207 1.384 . S
C205 H224 0.931 . S
C206 C205 1.384 . S
C206 C209 1.382 . S
C207 C205 1.384 . S
C207 C208 1.381 . S
C207 H225 0.930 . S
C208 C207 1.381 . S
C208 C210 1.381 . S
C208 C211 1.487 . S
C209 C206 1.382 . S
C209 C210 1.387 . S
C209 H226 0.930 . S
C210 C208 1.381 . S
C210 C209 1.387 . S
C210 H227 0.931 . S
C211 C204 1.410 . S
C211 C208 1.487 . S
C211 N228 1.343 . S
H212 C184 0.931 . S
H213 C186 0.930 1_554 S
H214 C188 0.930 . S
H215 C189 0.931 . S
H216 C191 0.931 . S
H217 C193 0.930 . S
H218 C195 0.930 . S
H219 C196 0.931 . S
H220 C198 0.920 1_556 S
H221 C200 0.930 . S
H222 C202 0.930 . S
H223 C203 0.931 . S
H224 C205 0.931 . S
H225 C207 0.930 . S
H226 C209 0.930 . S
H227 C210 0.931 . S
N228 C190 1.343 1_545 S
N228 C211 1.343 . S
N229 C197 1.343 1_545 S
N229 C204 1.334 1_554 S
C230 C231 1.384 . S
C230 C232 1.384 . S
C230 H258 0.931 . S
C231 C230 1.384 . S
C231 C234 1.382 . S
C232 C230 1.384 . S
C232 C233 1.381 . S
C232 H259 0.930 . S
C233 C232 1.381 . S
C233 C235 1.381 . S
C233 C236 1.487 . S
C234 C231 1.382 . S
C234 C235 1.387 . S
C234 H260 0.930 . S
C235 C233 1.381 . S
C235 C234 1.387 . S
C235 H261 0.931 . S
C236 C233 1.487 . S
C236 C243 1.399 . S
C236 N274 1.343 . S
C237 C238 1.384 . S
C237 C239 1.384 . S
C237 H262 0.931 . S
C238 C237 1.384 . S
C238 C241 1.382 . S
C239 C237 1.384 . S
C239 C240 1.381 . S
C239 H263 0.930 . S
C240 C239 1.381 . S
C240 C242 1.381 . S
C240 C243 1.487 . S
C241 C238 1.382 . S
C241 C242 1.387 . S
C241 H264 0.930 . S
C242 C240 1.381 . S
C242 C241 1.387 . S
C242 H265 0.931 . S
C243 C236 1.399 . S
C243 C240 1.487 . S
C243 N275 1.343 . S
C244 C245 1.384 . S
C244 C246 1.384 . S
C244 H266 0.931 . S
C245 C244 1.384 . S
C245 C248 1.382 . S
C246 C244 1.384 . S
C246 C247 1.381 . S
C246 H267 0.930 . S
C247 C246 1.381 . S
C247 C249 1.381 . S
C247 C250 1.487 . S
C248 C245 1.382 . S
C248 C249 1.387 . S
C248 H268 0.930 . S
C249 C247 1.381 . S
C249 C248 1.387 . S
C249 H269 0.931 . S
C250 C247 1.487 . S
C250 C257 1.399 . S
C250 N275 1.343 . S
C251 C252 1.384 . S
C251 C253 1.384 . S
C251 H270 0.931 . S
C252 C251 1.384 . S
C252 C255 1.382 . S
C253 C251 1.384 . S
C253 C254 1.381 . S
C253 H271 0.930 . S
C254 C253 1.381 . S
C254 C256 1.381 . S
C254 C257 1.487 . S
C255 C252 1.382 . S
C255 C256 1.387 . S
C255 H272 0.930 . S
C256 C254 1.381 . S
C256 C255 1.387 . S
C256 H273 0.931 . S
C257 C250 1.399 . S
C257 C254 1.487 . S
C257 N274 1.343 . S
H258 C230 0.931 . S
H259 C232 0.930 . S
H260 C234 0.930 . S
H261 C235 0.931 . S
H262 C237 0.931 . S
H263 C239 0.930 . S
H264 C241 0.930 . S
H265 C242 0.931 . S
H266 C244 0.931 . S
H267 C246 0.930 . S
H268 C248 0.930 . S
H269 C249 0.931 . S
H270 C251 0.931 . S
H271 C253 0.930 . S
H272 C255 0.930 . S
H273 C256 0.931 . S
N274 C236 1.343 . S
N274 C257 1.343 . S
N275 C243 1.343 . S
N275 C250 1.343 . S
In276 O277 2.294 . S
In276 O278 2.326 . S
In276 O282 2.266 . S
In276 O283 2.326 . S
In276 O284 2.266 . S
In276 O285 2.326 . S
In276 O287 2.294 . S
In276 O288 2.326 . S
O277 In276 2.294 . S
O277 C286 1.240 . S
O278 In276 2.326 . S
O278 C286 1.252 . S
C279 O282 1.252 . S
C279 O283 1.260 . S
C280 O287 1.240 . S
C280 O288 1.252 . S
C281 O284 1.252 . S
C281 O285 1.260 . S
O282 In276 2.266 . S
O282 C279 1.252 . S
O283 In276 2.326 . S
O283 C279 1.260 . S
O284 In276 2.266 . S
O284 C281 1.252 . S
O285 In276 2.326 . S
O285 C281 1.260 . S
C286 O277 1.240 . S
C286 O278 1.252 . S
O287 In276 2.294 . S
O287 C280 1.240 . S
O288 In276 2.326 . S
O288 C280 1.252 . S
In289 O290 2.294 . S
In289 O291 2.326 . S
In289 O295 2.266 . S
In289 O296 2.326 . S
In289 O297 2.266 . S
In289 O298 2.326 . S
In289 O300 2.294 . S
In289 O301 2.326 . S
O290 In289 2.294 . S
O290 C299 1.240 . S
O291 In289 2.326 . S
O291 C299 1.252 . S
C292 O295 1.252 . S
C292 O296 1.260 . S
C293 O300 1.240 . S
C293 O301 1.252 . S
C294 O297 1.252 . S
C294 O298 1.260 . S
O295 In289 2.266 . S
O295 C292 1.252 . S
O296 In289 2.326 . S
O296 C292 1.260 . S
O297 In289 2.266 . S
O297 C294 1.252 . S
O298 In289 2.326 . S
O298 C294 1.260 . S
C299 O290 1.240 . S
C299 O291 1.252 . S
O300 In289 2.294 . S
O300 C293 1.240 . S
O301 In289 2.326 . S
O301 C293 1.252 . S
In302 O303 2.294 . S
In302 O304 2.326 . S
In302 O308 2.266 . S
In302 O309 2.326 . S
In302 O310 2.266 . S
In302 O311 2.326 . S
In302 O313 2.294 . S
In302 O314 2.326 . S
O303 In302 2.294 . S
O303 C312 1.240 . S
O304 In302 2.326 . S
O304 C312 1.252 . S
C305 O308 1.252 . S
C305 O309 1.260 . S
C306 O313 1.240 . S
C306 O314 1.252 . S
C307 O310 1.252 . S
C307 O311 1.260 . S
O308 In302 2.266 . S
O308 C305 1.252 . S
O309 In302 2.326 . S
O309 C305 1.260 . S
O310 In302 2.266 . S
O310 C307 1.252 . S
O311 In302 2.326 . S
O311 C307 1.260 . S
C312 O303 1.240 . S
C312 O304 1.252 . S
O313 In302 2.294 . S
O313 C306 1.240 . S
O314 In302 2.326 . S
O314 C306 1.252 . S
In315 O316 2.294 . S
In315 O317 2.326 . S
In315 O321 2.266 . S
In315 O322 2.326 . S
In315 O323 2.266 . S
In315 O324 2.326 . S
In315 O326 2.294 . S
In315 O327 2.326 . S
O316 In315 2.294 . S
O316 C325 1.240 . S
O317 In315 2.326 . S
O317 C325 1.252 . S
C318 O321 1.252 . S
C318 O322 1.260 . S
C319 O326 1.240 . S
C319 O327 1.252 . S
C320 O323 1.252 . S
C320 O324 1.260 . S
O321 In315 2.266 . S
O321 C318 1.252 . S
O322 In315 2.326 . S
O322 C318 1.260 . S
O323 In315 2.266 . S
O323 C320 1.252 . S
O324 In315 2.326 . S
O324 C320 1.260 . S
C325 O316 1.240 . S
C325 O317 1.252 . S
O326 In315 2.294 . S
O326 C319 1.240 . S
O327 In315 2.326 . S
O327 C319 1.252 . S
In328 O329 2.294 . S
In328 O330 2.326 . S
In328 O334 2.266 . S
In328 O335 2.326 . S
In328 O336 2.266 . S
In328 O337 2.326 . S
In328 O339 2.294 . S
In328 O340 2.326 . S
O329 In328 2.294 . S
O329 C338 1.240 . S
O330 In328 2.326 . S
O330 C338 1.252 . S
C331 O334 1.252 . S
C331 O335 1.260 . S
C332 O339 1.240 . S
C332 O340 1.252 . S
C333 O336 1.252 . S
C333 O337 1.260 . S
O334 In328 2.266 . S
O334 C331 1.252 . S
O335 In328 2.326 . S
O335 C331 1.260 . S
O336 In328 2.266 . S
O336 C333 1.252 . S
O337 In328 2.326 . S
O337 C333 1.260 . S
C338 O329 1.240 . S
C338 O330 1.252 . S
O339 In328 2.294 . S
O339 C332 1.240 . S
O340 In328 2.326 . S
O340 C332 1.252 . S
In341 O342 2.294 . S
In341 O343 2.326 . S
In341 O347 2.266 . S
In341 O348 2.326 . S
In341 O349 2.266 . S
In341 O350 2.326 . S
In341 O352 2.294 . S
In341 O353 2.326 . S
O342 In341 2.294 . S
O342 C351 1.240 . S
O343 In341 2.326 . S
O343 C351 1.252 . S
C344 O347 1.252 . S
C344 O348 1.260 . S
C345 O352 1.240 . S
C345 O353 1.252 . S
C346 O349 1.252 . S
C346 O350 1.260 . S
O347 In341 2.266 . S
O347 C344 1.252 . S
O348 In341 2.326 . S
O348 C344 1.260 . S
O349 In341 2.266 . S
O349 C346 1.252 . S
O350 In341 2.326 . S
O350 C346 1.260 . S
C351 O342 1.240 . S
C351 O343 1.252 . S
O352 In341 2.294 . S
O352 C345 1.240 . S
O353 In341 2.326 . S
O353 C345 1.252 . S
C354 C355 1.363 . S
C354 C360 1.379 . S
C354 N362 1.356 . S
C355 C354 1.363 . S
C355 C361 1.363 . S
C356 C357 1.363 . S
C356 C361 1.379 . S
C356 N363 1.356 . S
C357 C356 1.363 . S
C357 C360 1.363 . S
N358 C360 1.356 . S
N358 H370 0.984 . S
N358 H371 0.985 . S
N359 C361 1.356 . S
N359 H364 0.984 . S
N359 H365 0.985 . S
C360 C354 1.379 . S
C360 C357 1.363 . S
C360 N358 1.356 . S
C361 C355 1.363 . S
C361 C356 1.379 . S
C361 N359 1.356 . S
N362 C354 1.356 . S
N362 H368 0.984 . S
N362 H369 0.984 . S
N363 C356 1.356 . S
N363 H366 0.984 . S
N363 H367 0.985 . S
H364 N359 0.984 . S
H365 N359 0.985 . S
H366 N363 0.984 . S
H367 N363 0.985 . S
H368 N362 0.984 . S
H369 N362 0.984 . S
H370 N358 0.984 . S
H371 N358 0.985 . S
C372 C373 1.363 . S
C372 C378 1.379 . S
C372 N380 1.356 . S
C373 C372 1.363 . S
C373 C379 1.363 . S
C374 C375 1.363 . S
C374 C379 1.379 . S
C374 N381 1.356 . S
C375 C374 1.363 . S
C375 C378 1.363 . S
N376 C378 1.356 . S
N376 H388 0.984 . S
N376 H389 0.985 . S
N377 C379 1.356 . S
N377 H382 0.984 . S
N377 H383 0.985 . S
C378 C372 1.379 . S
C378 C375 1.363 . S
C378 N376 1.356 . S
C379 C373 1.363 . S
C379 C374 1.379 . S
C379 N377 1.356 . S
N380 C372 1.356 . S
N380 H386 0.984 . S
N380 H387 0.984 . S
N381 C374 1.356 . S
N381 H384 0.984 . S
N381 H385 0.985 . S
H382 N377 0.984 . S
H383 N377 0.985 . S
H384 N381 0.984 . S
H385 N381 0.985 . S
H386 N380 0.984 . S
H387 N380 0.984 . S
H388 N376 0.984 . S
H389 N376 0.985 . S
C390 C391 1.363 . S
C390 C396 1.379 . S
C390 N398 1.356 . S
C391 C390 1.363 . S
C391 C397 1.363 . S
C392 C393 1.363 . S
C392 C397 1.379 . S
C392 N399 1.356 . S
C393 C392 1.363 . S
C393 C396 1.363 . S
N394 C396 1.356 . S
N394 H406 0.984 . S
N394 H407 0.985 . S
N395 C397 1.356 . S
N395 H400 0.984 . S
N395 H401 0.985 . S
C396 C390 1.379 . S
C396 C393 1.363 . S
C396 N394 1.356 . S
C397 C391 1.363 . S
C397 C392 1.379 . S
C397 N395 1.356 . S
N398 C390 1.356 . S
N398 H404 0.984 . S
N398 H405 0.984 . S
N399 C392 1.356 . S
N399 H402 0.984 . S
N399 H403 0.985 . S
H400 N395 0.984 . S
H401 N395 0.985 . S
H402 N399 0.984 . S
H403 N399 0.985 . S
H404 N398 0.984 . S
H405 N398 0.984 . S
H406 N394 0.984 . S
H407 N394 0.985 . S
C408 C409 1.363 . S
C408 C414 1.379 . S
C408 N416 1.356 . S
C409 C408 1.363 . S
C409 C415 1.363 . S
C410 C411 1.363 . S
C410 C415 1.379 . S
C410 N417 1.356 . S
C411 C410 1.363 . S
C411 C414 1.363 . S
N412 C414 1.356 . S
N412 H424 0.984 . S
N412 H425 0.985 . S
N413 C415 1.356 . S
N413 H418 0.984 . S
N413 H419 0.985 . S
C414 C408 1.379 . S
C414 C411 1.363 . S
C414 N412 1.356 . S
C415 C409 1.363 . S
C415 C410 1.379 . S
C415 N413 1.356 . S
N416 C408 1.356 . S
N416 H422 0.984 . S
N416 H423 0.984 . S
N417 C410 1.356 . S
N417 H420 0.984 . S
N417 H421 0.985 . S
H418 N413 0.984 . S
H419 N413 0.985 . S
H420 N417 0.984 . S
H421 N417 0.985 . S
H422 N416 0.984 . S
H423 N416 0.984 . S
H424 N412 0.984 . S
H425 N412 0.985 . S
C426 C427 1.363 . S
C426 C432 1.379 . S
C426 N434 1.356 . S
C427 C426 1.363 . S
C427 C433 1.363 . S
C428 C429 1.363 . S
C428 C433 1.379 . S
C428 N435 1.356 . S
C429 C428 1.363 . S
C429 C432 1.363 . S
N430 C432 1.356 . S
N430 H442 0.984 . S
N430 H443 0.985 . S
N431 C433 1.356 . S
N431 H436 0.984 . S
N431 H437 0.985 . S
C432 C426 1.379 . S
C432 C429 1.363 . S
C432 N430 1.356 . S
C433 C427 1.363 . S
C433 C428 1.379 . S
C433 N431 1.356 . S
N434 C426 1.356 . S
N434 H440 0.984 1_556 S
N434 H441 0.984 . S
N435 C428 1.356 . S
N435 H438 0.984 . S
N435 H439 0.985 . S
H436 N431 0.984 . S
H437 N431 0.985 . S
H438 N435 0.984 . S
H439 N435 0.985 . S
H440 N434 0.984 1_554 S
H441 N434 0.984 . S
H442 N430 0.984 . S
H443 N430 0.985 . S
C444 C445 1.363 . S
C444 C450 1.379 . S
C444 N452 1.356 . S
C445 C444 1.363 . S
C445 C451 1.363 . S
C446 C447 1.363 . S
C446 C451 1.379 . S
C446 N453 1.356 . S
C447 C446 1.363 . S
C447 C450 1.363 . S
N448 C450 1.356 . S
N448 H460 0.984 . S
N448 H461 0.985 . S
N449 C451 1.356 . S
N449 H454 0.984 . S
N449 H455 0.985 . S
C450 C444 1.379 . S
C450 C447 1.363 . S
C450 N448 1.356 . S
C451 C445 1.363 . S
C451 C446 1.379 . S
C451 N449 1.356 . S
N452 C444 1.356 . S
N452 H458 0.984 . S
N452 H459 0.984 . S
N453 C446 1.356 . S
N453 H456 0.984 . S
N453 H457 0.985 . S
H454 N449 0.984 . S
H455 N449 0.985 . S
H456 N453 0.984 . S
H457 N453 0.985 . S
H458 N452 0.984 . S
H459 N452 0.984 . S
H460 N448 0.984 . S
H461 N448 0.985 . S
C462 C463 1.363 . S
C462 C468 1.379 . S
C462 N470 1.356 . S
C463 C462 1.363 . S
C463 C469 1.363 . S
C464 C465 1.363 . S
C464 C469 1.379 . S
C464 N471 1.356 . S
C465 C464 1.363 . S
C465 C468 1.363 . S
N466 C468 1.356 . S
N466 H478 0.984 . S
N466 H479 0.985 . S
N467 C469 1.356 . S
N467 H472 0.984 . S
N467 H473 0.985 . S
C468 C462 1.379 . S
C468 C465 1.363 . S
C468 N466 1.356 . S
C469 C463 1.363 . S
C469 C464 1.379 . S
C469 N467 1.356 . S
N470 C462 1.356 . S
N470 H476 0.984 . S
N470 H477 0.984 . S
N471 C464 1.356 . S
N471 H474 0.984 . S
N471 H475 0.985 . S
H472 N467 0.984 . S
H473 N467 0.985 . S
H474 N471 0.984 . S
H475 N471 0.985 . S
H476 N470 0.984 . S
H477 N470 0.984 . S
H478 N466 0.984 . S
H479 N466 0.985 . S
C480 C481 1.363 . S
C480 C486 1.379 . S
C480 N488 1.356 . S
C481 C480 1.363 . S
C481 C487 1.363 . S
C482 C483 1.363 . S
C482 C487 1.379 . S
C482 N489 1.356 . S
C483 C482 1.363 . S
C483 C486 1.363 . S
N484 C486 1.356 . S
N484 H496 0.984 . S
N484 H497 0.985 . S
N485 C487 1.356 . S
N485 H490 0.984 . S
N485 H491 0.985 . S
C486 C480 1.379 . S
C486 C483 1.363 . S
C486 N484 1.356 . S
C487 C481 1.363 . S
C487 C482 1.379 . S
C487 N485 1.356 . S
N488 C480 1.356 . S
N488 H494 0.984 . S
N488 H495 0.984 . S
N489 C482 1.356 . S
N489 H492 0.984 . S
N489 H493 0.985 . S
H490 N485 0.984 . S
H491 N485 0.985 . S
H492 N489 0.984 . S
H493 N489 0.985 . S
H494 N488 0.984 . S
H495 N488 0.984 . S
H496 N484 0.984 . S
H497 N484 0.985 . S
C498 C499 1.363 . S
C498 C504 1.379 . S
C498 N506 1.356 . S
C499 C498 1.363 . S
C499 C505 1.363 . S
C500 C501 1.363 . S
C500 C505 1.379 . S
C500 N507 1.356 . S
C501 C500 1.363 . S
C501 C504 1.363 . S
N502 C504 1.356 . S
N502 H514 0.984 . S
N502 H515 0.985 . S
N503 C505 1.356 . S
N503 H508 0.984 . S
N503 H509 0.985 . S
C504 C498 1.379 . S
C504 C501 1.363 . S
C504 N502 1.356 . S
C505 C499 1.363 . S
C505 C500 1.379 . S
C505 N503 1.356 . S
N506 C498 1.356 . S
N506 H512 0.984 . S
N506 H513 0.984 . S
N507 C500 1.356 . S
N507 H510 0.984 . S
N507 H511 0.985 . S
H508 N503 0.984 . S
H509 N503 0.985 . S
H510 N507 0.984 . S
H511 N507 0.985 . S
H512 N506 0.984 . S
H513 N506 0.984 . S
H514 N502 0.984 . S
H515 N502 0.985 . S
C516 C517 1.363 . S
C516 C522 1.379 . S
C516 N524 1.356 1_554 S
C517 C516 1.363 . S
C517 C523 1.363 . S
C518 C519 1.363 . S
C518 C523 1.379 . S
C518 N525 1.356 . S
C519 C518 1.363 . S
C519 C522 1.363 . S
N520 C522 1.356 . S
N520 H532 0.984 1_554 S
N520 H533 0.985 . S
N521 C523 1.356 . S
N521 H526 0.984 . S
N521 H527 0.985 . S
C522 C516 1.379 . S
C522 C519 1.363 . S
C522 N520 1.356 . S
C523 C517 1.363 . S
C523 C518 1.379 . S
C523 N521 1.356 . S
N524 C516 1.356 1_556 S
N524 H530 0.984 . S
N524 H531 0.984 . S
N525 C518 1.356 . S
N525 H528 0.984 . S
N525 H529 0.985 . S
H526 N521 0.984 . S
H527 N521 0.985 . S
H528 N525 0.984 . S
H529 N525 0.985 . S
H530 N524 0.984 . S
H531 N524 0.984 . S
H532 N520 0.984 1_556 S
H533 N520 0.985 . S
C534 C535 1.363 . S
C534 C540 1.379 . S
C534 N542 1.356 . S
C535 C534 1.363 . S
C535 C541 1.363 . S
C536 C537 1.363 . S
C536 C541 1.379 . S
C536 N543 1.356 . S
C537 C536 1.363 . S
C537 C540 1.363 . S
N538 C540 1.356 . S
N538 H550 0.984 . S
N538 H551 0.985 . S
N539 C541 1.356 . S
N539 H544 0.984 . S
N539 H545 0.985 . S
C540 C534 1.379 . S
C540 C537 1.363 . S
C540 N538 1.356 . S
C541 C535 1.363 . S
C541 C536 1.379 . S
C541 N539 1.356 . S
N542 C534 1.356 . S
N542 H548 0.984 . S
N542 H549 0.984 . S
N543 C536 1.356 . S
N543 H546 0.984 . S
N543 H547 0.985 . S
H544 N539 0.984 . S
H545 N539 0.985 . S
H546 N543 0.984 . S
H547 N543 0.985 . S
H548 N542 0.984 . S
H549 N542 0.984 . S
H550 N538 0.984 . S
H551 N538 0.985 . S
C552 C553 1.363 . S
C552 C558 1.379 . S
C552 N560 1.356 . S
C553 C552 1.363 . S
C553 C559 1.363 . S
C554 C555 1.363 . S
C554 C559 1.379 . S
C554 N561 1.356 . S
C555 C554 1.363 . S
C555 C558 1.363 . S
N556 C558 1.356 . S
N556 H568 0.984 . S
N556 H569 0.985 . S
N557 C559 1.356 . S
N557 H562 0.984 . S
N557 H563 0.985 . S
C558 C552 1.379 . S
C558 C555 1.363 . S
C558 N556 1.356 . S
C559 C553 1.363 . S
C559 C554 1.379 . S
C559 N557 1.356 . S
N560 C552 1.356 . S
N560 H566 0.984 . S
N560 H567 0.984 . S
N561 C554 1.356 . S
N561 H564 0.984 . S
N561 H565 0.985 . S
H562 N557 0.984 . S
H563 N557 0.985 . S
H564 N561 0.984 . S
H565 N561 0.985 . S
H566 N560 0.984 . S
H567 N560 0.984 . S
H568 N556 0.984 . S
H569 N556 0.985 . S
C570 C571 1.363 . S
C570 C576 1.379 . S
C570 N578 1.356 . S
C571 C570 1.363 . S
C571 C577 1.363 . S
C572 C573 1.363 . S
C572 C577 1.379 . S
C572 N579 1.356 . S
C573 C572 1.363 . S
C573 C576 1.363 . S
N574 C576 1.356 . S
N574 H586 0.984 . S
N574 H587 0.985 . S
N575 C577 1.356 . S
N575 H580 0.984 . S
N575 H581 0.985 . S
C576 C570 1.379 . S
C576 C573 1.363 . S
C576 N574 1.356 . S
C577 C571 1.363 . S
C577 C572 1.379 . S
C577 N575 1.356 . S
N578 C570 1.356 . S
N578 H584 0.984 . S
N578 H585 0.984 . S
N579 C572 1.356 . S
N579 H582 0.984 . S
N579 H583 0.985 . S
H580 N575 0.984 . S
H581 N575 0.985 . S
H582 N579 0.984 . S
H583 N579 0.985 . S
H584 N578 0.984 . S
H585 N578 0.984 . S
H586 N574 0.984 . S
H587 N574 0.985 . S
C588 C589 1.363 . S
C588 C594 1.379 . S
C588 N596 1.356 . S
C589 C588 1.363 . S
C589 C595 1.363 . S
C590 C591 1.363 . S
C590 C595 1.379 . S
C590 N597 1.356 . S
C591 C590 1.363 . S
C591 C594 1.363 . S
N592 C594 1.356 . S
N592 H604 0.984 . S
N592 H605 0.985 . S
N593 C595 1.356 . S
N593 H598 0.984 . S
N593 H599 0.985 . S
C594 C588 1.379 . S
C594 C591 1.363 . S
C594 N592 1.356 . S
C595 C589 1.363 . S
C595 C590 1.379 . S
C595 N593 1.356 . S
N596 C588 1.356 . S
N596 H602 0.984 . S
N596 H603 0.984 . S
N597 C590 1.356 . S
N597 H600 0.984 . S
N597 H601 0.985 . S
H598 N593 0.984 . S
H599 N593 0.985 . S
H600 N597 0.984 . S
H601 N597 0.985 . S
H602 N596 0.984 . S
H603 N596 0.984 . S
H604 N592 0.984 . S
H605 N592 0.985 . S
C606 C607 1.363 . S
C606 C612 1.379 . S
C606 N614 1.356 . S
C607 C606 1.363 . S
C607 C613 1.363 . S
C608 C609 1.363 . S
C608 C613 1.379 . S
C608 N615 1.356 . S
C609 C608 1.363 . S
C609 C612 1.363 . S
N610 C612 1.356 . S
N610 H622 0.984 . S
N610 H623 0.985 . S
N611 C613 1.356 . S
N611 H616 0.984 . S
N611 H617 0.985 . S
C612 C606 1.379 . S
C612 C609 1.363 . S
C612 N610 1.356 . S
C613 C607 1.363 . S
C613 C608 1.379 . S
C613 N611 1.356 . S
N614 C606 1.356 . S
N614 H620 0.984 . S
N614 H621 0.984 . S
N615 C608 1.356 . S
N615 H618 0.984 . S
N615 H619 0.985 . S
H616 N611 0.984 . S
H617 N611 0.985 . S
H618 N615 0.984 . S
H619 N615 0.985 . S
H620 N614 0.984 . S
H621 N614 0.984 . S
H622 N610 0.984 . S
H623 N610 0.985 . S
C624 C625 1.363 . S
C624 C630 1.379 . S
C624 N632 1.356 . S
C625 C624 1.363 . S
C625 C631 1.363 . S
C626 C627 1.363 . S
C626 C631 1.379 1_554 S
C626 N633 1.356 . S
C627 C626 1.363 . S
C627 C630 1.363 1_554 S
N628 C630 1.356 . S
N628 H640 0.984 . S
N628 H641 0.985 1_556 S
N629 C631 1.356 . S
N629 H634 0.984 . S
N629 H635 0.985 . S
C630 C624 1.379 . S
C630 C627 1.363 1_556 S
C630 N628 1.356 . S
C631 C625 1.363 . S
C631 C626 1.379 1_556 S
C631 N629 1.356 . S
N632 C624 1.356 . S
N632 H638 0.984 . S
N632 H639 0.984 . S
N633 C626 1.356 . S
N633 H636 0.984 . S
N633 H637 0.985 . S
H634 N629 0.984 . S
H635 N629 0.985 . S
H636 N633 0.984 . S
H637 N633 0.985 . S
H638 N632 0.984 . S
H639 N632 0.984 . S
H640 N628 0.984 . S
H641 N628 0.985 1_554 S
C642 C643 1.363 . S
C642 C648 1.379 . S
C642 N650 1.356 . S
C643 C642 1.363 . S
C643 C649 1.363 . S
C644 C645 1.363 . S
C644 C649 1.379 . S
C644 N651 1.356 . S
C645 C644 1.363 . S
C645 C648 1.363 . S
N646 C648 1.356 . S
N646 H658 0.984 . S
N646 H659 0.985 . S
N647 C649 1.356 . S
N647 H652 0.984 . S
N647 H653 0.985 . S
C648 C642 1.379 . S
C648 C645 1.363 . S
C648 N646 1.356 . S
C649 C643 1.363 . S
C649 C644 1.379 . S
C649 N647 1.356 . S
N650 C642 1.356 . S
N650 H656 0.984 . S
N650 H657 0.984 . S
N651 C644 1.356 . S
N651 H654 0.984 . S
N651 H655 0.985 . S
H652 N647 0.984 . S
H653 N647 0.985 . S
H654 N651 0.984 . S
H655 N651 0.985 . S
H656 N650 0.984 . S
H657 N650 0.984 . S
H658 N646 0.984 . S
H659 N646 0.985 . S
C660 C661 1.363 . S
C660 C666 1.379 . S
C660 N668 1.356 . S
C661 C660 1.363 . S
C661 C667 1.363 . S
C662 C663 1.363 . S
C662 C667 1.379 . S
C662 N669 1.356 . S
C663 C662 1.363 . S
C663 C666 1.363 . S
N664 C666 1.356 . S
N664 H676 0.984 . S
N664 H677 0.985 . S
N665 C667 1.356 . S
N665 H670 0.984 . S
N665 H671 0.985 . S
C666 C660 1.379 . S
C666 C663 1.363 . S
C666 N664 1.356 . S
C667 C661 1.363 . S
C667 C662 1.379 . S
C667 N665 1.356 . S
N668 C660 1.356 . S
N668 H674 0.984 . S
N668 H675 0.984 . S
N669 C662 1.356 . S
N669 H672 0.984 . S
N669 H673 0.985 . S
H670 N665 0.984 . S
H671 N665 0.985 . S
H672 N669 0.984 . S
H673 N669 0.985 . S
H674 N668 0.984 . S
H675 N668 0.984 . S
H676 N664 0.984 . S
H677 N664 0.985 . S
C678 C679 1.363 . S
C678 C684 1.379 . S
C678 N686 1.356 . S
C679 C678 1.363 . S
C679 C685 1.363 . S
C680 C681 1.363 . S
C680 C685 1.379 . S
C680 N687 1.356 . S
C681 C680 1.363 . S
C681 C684 1.363 . S
N682 C684 1.356 . S
N682 H694 0.984 . S
N682 H695 0.985 . S
N683 C685 1.356 . S
N683 H688 0.984 . S
N683 H689 0.985 . S
C684 C678 1.379 . S
C684 C681 1.363 . S
C684 N682 1.356 . S
C685 C679 1.363 . S
C685 C680 1.379 . S
C685 N683 1.356 . S
N686 C678 1.356 . S
N686 H692 0.984 . S
N686 H693 0.984 . S
N687 C680 1.356 . S
N687 H690 0.984 . S
N687 H691 0.985 . S
H688 N683 0.984 . S
H689 N683 0.985 . S
H690 N687 0.984 . S
H691 N687 0.985 . S
H692 N686 0.984 . S
H693 N686 0.984 . S
H694 N682 0.984 . S
H695 N682 0.985 . S
C696 C697 1.363 . S
C696 C702 1.379 . S
C696 N704 1.356 . S
C697 C696 1.363 . S
C697 C703 1.363 . S
C698 C699 1.363 . S
C698 C703 1.379 . S
C698 N705 1.356 . S
C699 C698 1.363 . S
C699 C702 1.363 . S
N700 C702 1.356 . S
N700 H712 0.984 . S
N700 H713 0.985 . S
N701 C703 1.356 . S
N701 H706 0.984 . S
N701 H707 0.985 . S
C702 C696 1.379 . S
C702 C699 1.363 . S
C702 N700 1.356 . S
C703 C697 1.363 . S
C703 C698 1.379 . S
C703 N701 1.356 . S
N704 C696 1.356 . S
N704 H710 0.984 . S
N704 H711 0.984 . S
N705 C698 1.356 . S
N705 H708 0.984 . S
N705 H709 0.985 . S
H706 N701 0.984 . S
H707 N701 0.985 . S
H708 N705 0.984 . S
H709 N705 0.985 . S
H710 N704 0.984 . S
H711 N704 0.984 . S
H712 N700 0.984 . S
H713 N700 0.985 . S
C714 C715 1.363 . S
C714 C720 1.379 . S
C714 N722 1.356 . S
C715 C714 1.363 . S
C715 C721 1.363 . S
C716 C717 1.363 . S
C716 C721 1.379 . S
C716 N723 1.356 . S
C717 C716 1.363 . S
C717 C720 1.363 . S
N718 C720 1.356 . S
N718 H730 0.984 . S
N718 H731 0.985 . S
N719 C721 1.356 . S
N719 H724 0.984 . S
N719 H725 0.985 . S
C720 C714 1.379 . S
C720 C717 1.363 . S
C720 N718 1.356 . S
C721 C715 1.363 . S
C721 C716 1.379 . S
C721 N719 1.356 . S
N722 C714 1.356 . S
N722 H728 0.984 . S
N722 H729 0.984 . S
N723 C716 1.356 . S
N723 H726 0.984 . S
N723 H727 0.985 . S
H724 N719 0.984 . S
H725 N719 0.985 . S
H726 N723 0.984 . S
H727 N723 0.985 . S
H728 N722 0.984 . S
H729 N722 0.984 . S
H730 N718 0.984 . S
H731 N718 0.985 . S
C732 C733 1.363 . S
C732 C738 1.379 . S
C732 N740 1.356 . S
C733 C732 1.363 . S
C733 C739 1.363 . S
C734 C735 1.363 . S
C734 C739 1.379 . S
C734 N741 1.356 . S
C735 C734 1.363 . S
C735 C738 1.363 . S
N736 C738 1.356 . S
N736 H748 0.984 . S
N736 H749 0.985 . S
N737 C739 1.356 . S
N737 H742 0.984 . S
N737 H743 0.985 . S
C738 C732 1.379 . S
C738 C735 1.363 . S
C738 N736 1.356 . S
C739 C733 1.363 . S
C739 C734 1.379 . S
C739 N737 1.356 . S
N740 C732 1.356 . S
N740 H746 0.984 . S
N740 H747 0.984 . S
N741 C734 1.356 . S
N741 H744 0.984 . S
N741 H745 0.985 . S
H742 N737 0.984 . S
H743 N737 0.985 . S
H744 N741 0.984 . S
H745 N741 0.985 . S
H746 N740 0.984 . S
H747 N740 0.984 . S
H748 N736 0.984 . S
H749 N736 0.985 . S
C750 C751 1.363 . S
C750 C756 1.379 . S
C750 N758 1.356 . S
C751 C750 1.363 . S
C751 C757 1.363 . S
C752 C753 1.363 . S
C752 C757 1.379 1_556 S
C752 N759 1.356 . S
C753 C752 1.363 . S
C753 C756 1.363 1_556 S
N754 C756 1.356 1_556 S
N754 H766 0.984 1_556 S
N754 H767 0.985 . S
N755 C757 1.356 . S
N755 H760 0.984 . S
N755 H761 0.985 . S
C756 C750 1.379 . S
C756 C753 1.363 1_554 S
C756 N754 1.356 1_554 S
C757 C751 1.363 . S
C757 C752 1.379 1_554 S
C757 N755 1.356 . S
N758 C750 1.356 . S
N758 H764 0.984 . S
N758 H765 0.984 . S
N759 C752 1.356 . S
N759 H762 0.984 . S
N759 H763 0.985 . S
H760 N755 0.984 . S
H761 N755 0.985 . S
H762 N759 0.984 . S
H763 N759 0.985 . S
H764 N758 0.984 . S
H765 N758 0.984 . S
H766 N754 0.984 1_554 S
H767 N754 0.985 . S
C768 C769 1.363 . S
C768 C774 1.379 . S
C768 N776 1.356 . S
C769 C768 1.363 . S
C769 C775 1.363 . S
C770 C771 1.363 . S
C770 C775 1.379 . S
C770 N777 1.356 . S
C771 C770 1.363 . S
C771 C774 1.363 . S
N772 C774 1.356 . S
N772 H784 0.984 . S
N772 H785 0.985 . S
N773 C775 1.356 . S
N773 H778 0.984 . S
N773 H779 0.985 . S
C774 C768 1.379 . S
C774 C771 1.363 . S
C774 N772 1.356 . S
C775 C769 1.363 . S
C775 C770 1.379 . S
C775 N773 1.356 . S
N776 C768 1.356 . S
N776 H782 0.984 . S
N776 H783 0.984 . S
N777 C770 1.356 . S
N777 H780 0.984 . S
N777 H781 0.985 . S
H778 N773 0.984 . S
H779 N773 0.985 . S
H780 N777 0.984 . S
H781 N777 0.985 . S
H782 N776 0.984 . S
H783 N776 0.984 . S
H784 N772 0.984 . S
H785 N772 0.985 . S
C357 C346 1.564 . S
C355 C15 1.550 . S
C373 C61 1.550 . S
C375 C281 1.564 . S
C391 C114 1.549 . S
C393 C299 1.564 . S
C409 C139 1.549 . S
C411 C312 1.556 . S
C429 C320 1.567 . S
C427 C185 1.560 . S
C445 C245 1.548 . S
C447 C332 1.563 . S
C463 C47 1.558 . S
C465 C294 1.564 . S
C481 C100 1.557 . S
C483 C307 1.563 . S
C499 C153 1.548 . S
C501 C325 1.563 . S
C519 C331 1.567 . S
C517 C199 1.553 . S
C537 C351 1.557 . S
C535 C231 1.550 . S
C555 C286 1.564 . S
C553 C1 1.557 . S
C571 C22 1.567 . S
C573 C292 1.585 . S
C589 C68 1.571 . S
C591 C305 1.589 . S
C609 C319 1.583 . S
C607 C107 1.567 . S
C625 C146 1.583 . S
C627 C333 1.590 . S
C645 C345 1.580 . S
C643 C192 1.574 . S
C663 C280 1.583 . S
C661 C252 1.566 . S
C681 C344 1.589 . S
C679 C54 1.582 . S
C697 C93 1.578 . S
C699 C279 1.585 . S
C717 C293 1.583 . S
C715 C160 1.566 . S
C733 C206 1.563 . S
C735 C306 1.580 . S
C751 C238 1.583 . S
C753 C318 1.589 . S
C769 C8 1.578 . S
C771 C338 1.583 . S
