# Generated by pormake.
# Topology pth, (4,4)-cn, num edge types: 1
# Building blocks:
#     Node 0, Type 0, BuildingBlock: NAHDIM_clean_sbu_0, # of connection points: 4
#     Node 1, Type 0, BuildingBlock: NAHDIM_clean_sbu_0, # of connection points: 4
#     Node 2, Type 0, BuildingBlock: NAHDIM_clean_sbu_0, # of connection points: 4
#     Node 3, Type 1, BuildingBlock: MUDLON_clean_linker_0, # of connection points: 4
#     Node 4, Type 1, BuildingBlock: MUDLON_clean_linker_0, # of connection points: 4
#     Node 5, Type 1, BuildingBlock: MUDLON_clean_linker_0, # of connection points: 4
#     Edge 6, Type (0, 1), BuildingBlock: CIFDUS_clean_linker_0, # of connection points: 2
#     Edge 7, Type (0, 1), BuildingBlock: CIFDUS_clean_linker_0, # of connection points: 2
#     Edge 8, Type (0, 1), BuildingBlock: CIFDUS_clean_linker_0, # of connection points: 2
#     Edge 9, Type (0, 1), BuildingBlock: CIFDUS_clean_linker_0, # of connection points: 2
#     Edge 10, Type (0, 1), BuildingBlock: CIFDUS_clean_linker_0, # of connection points: 2
#     Edge 11, Type (0, 1), BuildingBlock: CIFDUS_clean_linker_0, # of connection points: 2
#     Edge 12, Type (0, 1), BuildingBlock: CIFDUS_clean_linker_0, # of connection points: 2
#     Edge 13, Type (0, 1), BuildingBlock: CIFDUS_clean_linker_0, # of connection points: 2
#     Edge 14, Type (0, 1), BuildingBlock: CIFDUS_clean_linker_0, # of connection points: 2
#     Edge 15, Type (0, 1), BuildingBlock: CIFDUS_clean_linker_0, # of connection points: 2
#     Edge 16, Type (0, 1), BuildingBlock: CIFDUS_clean_linker_0, # of connection points: 2
#     Edge 17, Type (0, 1), BuildingBlock: CIFDUS_clean_linker_0, # of connection points: 2
# Relax obj value: 0.057
# Max RMSD: 0.170
# Mean RMSD: 0.116
data_MOF--net-pth--node1-NAHDIM_clean_sbu_0--node2-MUDLON_clean_linker_0--edge1-CIFDUS_clean_linker_0
_symmetry_space_group_name_H-M    P1
_symmetry_Int_Tables_number       1
_symmetry_cell_setting            triclinic
loop_
_symmetry_equiv_pos_as_xyz
'x, y, z'
_cell_length_a     30.454174
_cell_length_b     30.573245
_cell_length_c     60.948713
_cell_angle_alpha  91.797741
_cell_angle_beta   89.998372
_cell_angle_gamma 120.51487
loop_
_atom_site_label
_atom_site_type_symbol
_atom_site_fract_x
_atom_site_fract_y
_atom_site_fract_z
_atom_type_partial_charge
C0 C 0.00543 0.94411 0.04845 0.0
O1 O 0.96172 0.9388 0.04208 0.0
O2 O 0.02095 0.07608 0.04683 0.0
Zn3 Zn 0.03508 0.03262 0.02577 0.0
O4 O 0.97773 0.99171 0.00397 0.0
C5 C 0.0914 0.11983 0.00295 0.0
O6 O 0.04951 0.11989 0.00801 0.0
O7 O 0.04646 0.98364 0.0431 0.0
C8 C 0.93786 0.99415 0.00065 0.0
O9 O 0.93098 0.02723 0.01211 0.0
C10 C 0.98757 0.06675 0.06128 0.0
O11 O 0.95224 0.01958 0.06474 0.0
O12 O 0.09611 0.08262 0.00854 0.0
C13 C 0.05392 0.12756 0.34382 0.0
O14 O 0.02126 0.11707 0.3597 0.0
O15 O 0.02262 0.97618 0.33788 0.0
Zn16 Zn 0.05167 0.03751 0.35859 0.0
O17 O 0.99958 0.03176 0.38049 0.0
C18 C 0.13369 0.019 0.36797 0.0
O19 O 0.11908 0.99393 0.34897 0.0
O20 O 0.07336 0.09964 0.34063 0.0
C21 C 0.9649 0.99154 0.38894 0.0
O22 O 0.96094 0.94768 0.38364 0.0
C23 C 0.9771 0.95016 0.33049 0.0
O24 O 0.94326 0.96249 0.33654 0.0
O25 O 0.11152 0.04225 0.37512 0.0
C26 C 0.08806 0.99624 0.65995 0.0
O27 O 0.08453 0.03706 0.65811 0.0
O28 O 0.98074 0.00435 0.67471 0.0
Zn29 Zn 0.0225 0.98631 0.69399 0.0
O30 O 0.07111 0.04673 0.713 0.0
C31 C 0.93052 0.89653 0.70616 0.0
O32 O 0.91881 0.89587 0.68536 0.0
O33 O 0.06332 0.96561 0.67493 0.0
C34 C 0.09329 0.03995 0.72907 0.0
O35 O 0.08388 0.99382 0.73262 0.0
C36 C 0.97501 0.04225 0.6785 0.0
O37 O 0.99807 0.07265 0.69565 0.0
O38 O 0.97426 0.93059 0.71339 0.0
H39 H 0.86793 0.67438 0.19975 0.0
N40 N 0.927 0.63759 0.18754 0.0
H41 H 0.88339 0.73612 0.22948 0.0
H42 H 0.00176 0.67077 0.2202 0.0
H43 H 0.01525 0.72915 0.25054 0.0
H44 H 0.01035 0.73103 0.18012 0.0
H45 H 0.02158 0.78324 0.14885 0.0
H46 H 0.87286 0.60805 0.15025 0.0
H47 H 0.88551 0.65867 0.11808 0.0
H48 H 0.86835 0.53939 0.19481 0.0
H49 H 0.02332 0.65392 0.18188 0.0
H50 H 0.89383 0.47561 0.1969 0.0
H51 H 0.05002 0.59155 0.18522 0.0
H52 H 0.95818 0.30743 0.22178 0.0
H53 H 0.96104 0.26839 0.25555 0.0
H54 H 0.12366 0.37103 0.2608 0.0
H55 H 0.12041 0.41115 0.22696 0.0
H56 H 0.10196 0.36304 0.17782 0.0
H57 H 0.07889 0.29534 0.14988 0.0
H58 H 0.92014 0.25008 0.15611 0.0
H59 H 0.94378 0.3183 0.18408 0.0
H60 H 0.96239 0.38652 0.22313 0.0
H61 H 0.93661 0.4487 0.21934 0.0
H62 H 0.04866 0.52085 0.16898 0.0
N63 N 0.0399 0.38289 0.20074 0.0
H64 H 0.07666 0.45977 0.17393 0.0
C65 C 0.93339 0.66766 0.20742 0.0
C66 C 0.89981 0.6858 0.21098 0.0
C67 C 0.90863 0.72097 0.22809 0.0
C68 C 0.95099 0.73826 0.24238 0.0
C69 C 0.98303 0.71788 0.23955 0.0
C70 C 0.97485 0.68362 0.22215 0.0
C71 C 0.93979 0.666 0.16774 0.0
C72 C 0.98314 0.71484 0.16657 0.0
C73 C 0.98979 0.74456 0.14851 0.0
C74 C 0.95387 0.72567 0.13105 0.0
C75 C 0.91306 0.67515 0.13151 0.0
C76 C 0.90595 0.64589 0.14975 0.0
C77 C 0.94378 0.60123 0.18835 0.0
C78 C 0.90797 0.5507 0.19258 0.0
C79 C 0.9228 0.51448 0.19396 0.0
C80 C 0.97419 0.52829 0.19144 0.0
C81 C 0.01002 0.57912 0.18693 0.0
C82 C 0.9949 0.61508 0.18517 0.0
C83 C 0.03917 0.36301 0.22199 0.0
C84 C 0.99431 0.32261 0.2304 0.0
C85 C 0.99595 0.30022 0.24974 0.0
C86 C 0.04254 0.31688 0.26079 0.0
C87 C 0.08727 0.35759 0.25257 0.0
C88 C 0.08544 0.38064 0.2334 0.0
C89 C 0.02479 0.34563 0.18297 0.0
C90 C 0.06232 0.33892 0.17289 0.0
C91 C 0.04902 0.30035 0.15694 0.0
C92 C 0.99767 0.26743 0.1508 0.0
C93 C 0.95995 0.27463 0.16066 0.0
C94 C 0.97341 0.31364 0.17656 0.0
C95 C 0.02234 0.41859 0.19895 0.0
C96 C 0.98198 0.41562 0.21137 0.0
C97 C 0.96667 0.45127 0.20899 0.0
C98 C 0.99041 0.4901 0.19383 0.0
C99 C 0.03007 0.49231 0.18116 0.0
C100 C 0.04595 0.45718 0.18383 0.0
H101 H 0.81618 0.14701 0.55081 0.0
N102 N 0.73124 0.07966 0.52952 0.0
H103 H 0.8569 0.13237 0.58208 0.0
H104 H 0.68825 0.9944 0.55432 0.0
H105 H 0.72799 0.97992 0.58575 0.0
H106 H 0.74097 0.99635 0.52044 0.0
H107 H 0.78826 0.9865 0.49064 0.0
H108 H 0.77031 0.13889 0.49539 0.0
H109 H 0.81511 0.12772 0.46437 0.0
H110 H 0.68754 0.13311 0.5405 0.0
H111 H 0.65345 0.98559 0.51532 0.0
H112 H 0.59686 0.10602 0.53826 0.0
H113 H 0.56299 0.9581 0.51323 0.0
H114 H 0.37678 0.05738 0.53727 0.0
H115 H 0.32611 0.06914 0.56508 0.0
H116 H 0.23144 0.90619 0.56937 0.0
H117 H 0.28394 0.89492 0.5419 0.0
H118 H 0.28311 0.90349 0.4921 0.0
H119 H 0.24889 0.92555 0.46069 0.0
H120 H 0.36777 0.08262 0.46975 0.0
H121 H 0.40245 0.06005 0.50085 0.0
H122 H 0.42734 0.02052 0.55392 0.0
H123 H 0.5165 0.04672 0.5559 0.0
H124 H 0.50445 0.97479 0.49234 0.0
N125 N 0.35922 0.96656 0.51909 0.0
H126 H 0.41421 0.94805 0.49015 0.0
C127 C 0.74933 0.07211 0.55016 0.0
C128 C 0.79631 0.11088 0.55871 0.0
C129 C 0.81941 0.10244 0.57659 0.0
C130 C 0.79583 0.05481 0.58627 0.0
C131 C 0.74744 0.01678 0.57843 0.0
C132 C 0.72439 0.02525 0.56054 0.0
C133 C 0.75305 0.06919 0.51045 0.0
C134 C 0.75695 0.0253 0.50834 0.0
C135 C 0.78366 0.01937 0.49101 0.0
C136 C 0.80619 0.05657 0.47511 0.0
C137 C 0.79951 0.0989 0.47659 0.0
C138 C 0.77349 0.1052 0.49416 0.0
C139 C 0.67742 0.06177 0.52797 0.0
C140 C 0.66043 0.0949 0.53452 0.0
C141 C 0.60867 0.07925 0.53334 0.0
C142 C 0.57276 0.02992 0.52553 0.0
C143 C 0.58979 0.99657 0.51903 0.0
C144 C 0.64159 0.01223 0.52028 0.0
C145 C 0.33434 0.97504 0.53757 0.0
C146 C 0.34558 0.02415 0.54435 0.0
C147 C 0.31625 0.0308 0.56021 0.0
C148 C 0.27424 0.9886 0.56932 0.0
C149 C 0.26385 0.93957 0.56293 0.0
C150 C 0.2937 0.93299 0.54722 0.0
C151 C 0.34482 0.97998 0.49892 0.0
C152 C 0.30234 0.94242 0.48698 0.0
C153 C 0.28298 0.95511 0.46907 0.0
C154 C 0.30555 0.00587 0.46291 0.0
C155 C 0.34938 0.0433 0.47433 0.0
C156 C 0.36914 0.03045 0.49208 0.0
C157 C 0.41326 0.98376 0.52124 0.0
C158 C 0.44315 0.01098 0.53999 0.0
C159 C 0.49475 0.02597 0.54128 0.0
C160 C 0.51777 0.01345 0.52418 0.0
C161 C 0.48787 0.98504 0.50582 0.0
C162 C 0.43632 0.97015 0.50448 0.0
H163 H 0.65598 0.83524 0.86661 0.0
N164 N 0.63384 0.74144 0.85572 0.0
H165 H 0.7055 0.88773 0.89863 0.0
H166 H 0.66471 0.70894 0.891 0.0
H167 H 0.71307 0.76051 0.923 0.0
H168 H 0.71461 0.72527 0.85666 0.0
H169 H 0.77838 0.74726 0.8283 0.0
H170 H 0.63385 0.77585 0.81633 0.0
H171 H 0.6979 0.7985 0.78788 0.0
H172 H 0.53747 0.71728 0.85214 0.0
H173 H 0.63203 0.65155 0.86089 0.0
H174 H 0.46142 0.63288 0.85242 0.0
H175 H 0.55649 0.5675 0.86268 0.0
H176 H 0.2342 0.36786 0.87852 0.0
H177 H 0.20346 0.31327 0.90999 0.0
H178 H 0.34225 0.30733 0.91118 0.0
H179 H 0.37272 0.3624 0.87946 0.0
H180 H 0.34986 0.33154 0.84183 0.0
H181 H 0.31314 0.27147 0.81062 0.0
H182 H 0.21397 0.33022 0.79652 0.0
H183 H 0.25244 0.39153 0.82745 0.0
H184 H 0.33189 0.48345 0.87373 0.0
H185 H 0.40942 0.56681 0.87503 0.0
H186 H 0.48991 0.50204 0.84174 0.0
N187 N 0.31926 0.39695 0.85692 0.0
H188 H 0.41317 0.4186 0.84188 0.0
C189 C 0.65657 0.76827 0.87628 0.0
C190 C 0.66759 0.81854 0.87911 0.0
C191 C 0.69571 0.84836 0.89742 0.0
C192 C 0.71354 0.82835 0.91325 0.0
C193 C 0.7005 0.77721 0.91091 0.0
C194 C 0.67239 0.74747 0.8926 0.0
C195 C 0.66949 0.74928 0.83861 0.0
C196 C 0.71019 0.74055 0.84161 0.0
C197 C 0.74682 0.75336 0.82541 0.0
C198 C 0.7433 0.7748 0.8059 0.0
C199 C 0.70141 0.78151 0.80261 0.0
C200 C 0.66495 0.76888 0.81885 0.0
C201 C 0.59027 0.69095 0.85675 0.0
C202 C 0.54166 0.68459 0.85447 0.0
C203 C 0.49826 0.63628 0.85482 0.0
C204 C 0.50254 0.59308 0.85778 0.0
C205 C 0.55155 0.59963 0.86012 0.0
C206 C 0.59499 0.64798 0.85939 0.0
C207 C 0.30542 0.36902 0.87674 0.0
C208 C 0.25823 0.35538 0.88582 0.0
C209 C 0.24092 0.32436 0.90382 0.0
C210 C 0.27059 0.30617 0.91314 0.0
C211 C 0.31851 0.32057 0.90426 0.0
C212 C 0.33598 0.35206 0.88622 0.0
C213 C 0.30394 0.36626 0.83689 0.0
C214 C 0.3212 0.33245 0.83173 0.0
C215 C 0.29972 0.29768 0.81397 0.0
C216 C 0.2602 0.29561 0.80119 0.0
C217 C 0.24469 0.33108 0.80584 0.0
C218 C 0.26646 0.36605 0.82352 0.0
C219 C 0.36633 0.44498 0.85746 0.0
C220 C 0.36647 0.48742 0.86684 0.0
C221 C 0.41077 0.53509 0.86737 0.0
C222 C 0.45603 0.54159 0.8582 0.0
C223 C 0.45604 0.49862 0.84914 0.0
C224 C 0.41179 0.45067 0.84898 0.0
H225 H 0.92996 0.06293 0.09649 0.0
H226 H 0.05325 0.16752 0.05613 0.0
H227 H 0.06458 0.23868 0.07936 0.0
H228 H 0.04327 0.27129 0.11222 0.0
H229 H 0.92161 0.16813 0.15335 0.0
H230 H 0.90521 0.09666 0.12853 0.0
C231 C 0.95901 0.10131 0.0927 0.0
C232 C 0.991 0.10963 0.07471 0.0
C233 C 0.96567 0.14244 0.10625 0.0
C234 C 0.02831 0.15975 0.06997 0.0
C235 C 0.0349 0.20064 0.08324 0.0
C236 C 0.0131 0.23315 0.11573 0.0
C237 C 0.98404 0.22492 0.13467 0.0
C238 C 0.00442 0.19237 0.10161 0.0
C239 C 0.94437 0.17547 0.13879 0.0
C240 C 0.93524 0.13456 0.12469 0.0
H241 H 0.97275 0.07668 0.40788 0.0
H242 H 0.8765 0.91338 0.40479 0.0
H243 H 0.8174 0.91923 0.43022 0.0
H244 H 0.79356 0.9708 0.45346 0.0
H245 H 0.89372 0.13374 0.45822 0.0
H246 H 0.94984 0.12783 0.43146 0.0
C247 C 0.93881 0.04229 0.41271 0.0
C248 C 0.9291 0.99465 0.40444 0.0
C249 C 0.90536 0.04587 0.42747 0.0
C250 C 0.88502 0.95052 0.41098 0.0
C251 C 0.85114 0.95385 0.42547 0.0
C252 C 0.82785 0.00506 0.44883 0.0
C253 C 0.83897 0.05267 0.4579 0.0
C254 C 0.86105 0.00135 0.43389 0.0
C255 C 0.88328 0.09662 0.45127 0.0
C256 C 0.91587 0.09329 0.43611 0.0
H257 H 0.94165 0.89054 0.75006 0.0
H258 H 0.83025 0.82756 0.69701 0.0
H259 H 0.76277 0.78099 0.72313 0.0
H260 H 0.7344 0.76387 0.7613 0.0
H261 H 0.84572 0.82883 0.81427 0.0
H262 H 0.91419 0.86816 0.7879 0.0
C263 C 0.90271 0.86617 0.74415 0.0
C264 C 0.89101 0.86305 0.72162 0.0
C265 C 0.86397 0.83994 0.75927 0.0
C266 C 0.84037 0.83094 0.71427 0.0
C267 C 0.80167 0.80438 0.72921 0.0
C268 C 0.77369 0.78646 0.76704 0.0
C269 C 0.78488 0.79367 0.78971 0.0
C270 C 0.81286 0.80958 0.75179 0.0
C271 C 0.83605 0.82231 0.79691 0.0
C272 C 0.87523 0.84515 0.78184 0.0
H273 H 0.92345 0.86062 0.06366 0.0
H274 H 0.08794 0.94088 0.06481 0.0
H275 H 0.08668 0.87834 0.0894 0.0
H276 H 0.03839 0.80244 0.1116 0.0
H277 H 0.87384 0.72687 0.11156 0.0
H278 H 0.87585 0.78535 0.08505 0.0
C279 C 0.95918 0.86449 0.06916 0.0
C280 C 0.00573 0.90554 0.06246 0.0
C281 C 0.95816 0.82895 0.08341 0.0
C282 C 0.05154 0.90973 0.06977 0.0
C283 C 0.05083 0.87398 0.08383 0.0
C284 C 0.00295 0.7988 0.10586 0.0
C285 C 0.95603 0.75979 0.11359 0.0
C286 C 0.00429 0.83371 0.09096 0.0
C287 C 0.91055 0.7555 0.10564 0.0
C288 C 0.91159 0.78939 0.09061 0.0
H289 H 0.18164 0.07502 0.40514 0.0
H290 H 0.17035 0.95461 0.36218 0.0
H291 H 0.22532 0.94202 0.3871 0.0
H292 H 0.27155 0.96097 0.42244 0.0
H293 H 0.28359 0.08176 0.46522 0.0
H294 H 0.23404 0.0989 0.43893 0.0
C295 C 0.19156 0.04632 0.40114 0.0
C296 C 0.17142 0.01545 0.38195 0.0
C297 C 0.22328 0.03927 0.41554 0.0
C298 C 0.18515 0.97882 0.37687 0.0
C299 C 0.21649 0.97145 0.39115 0.0
C300 C 0.26359 0.99127 0.42587 0.0
C301 C 0.28087 0.01986 0.44575 0.0
C302 C 0.23495 1.00077 0.41073 0.0
C303 C 0.27095 0.05947 0.44994 0.0
C304 C 0.24233 0.06904 0.435 0.0
H305 H 0.12771 0.1405 0.72424 0.0
H306 H 0.13656 0.03602 0.76756 0.0
H307 H 0.19067 0.1062 0.79311 0.0
H308 H 0.23198 0.19628 0.80401 0.0
H309 H 0.22505 0.30155 0.76059 0.0
H310 H 0.17324 0.23178 0.7343 0.0
C311 C 0.14162 0.13309 0.73923 0.0
C312 C 0.12783 0.08301 0.74402 0.0
C313 C 0.17285 0.17367 0.75388 0.0
C314 C 0.14647 0.07414 0.76346 0.0
C315 C 0.1774 0.11426 0.77812 0.0
C316 C 0.22008 0.20425 0.78861 0.0
C317 C 0.23244 0.25416 0.78431 0.0
C318 C 0.19048 0.16407 0.77357 0.0
C319 C 0.21562 0.26344 0.76444 0.0
C320 C 0.18613 0.22359 0.74936 0.0
H321 H 0.91218 0.97972 0.64572 0.0
H322 H 0.9644 0.12591 0.67812 0.0
H323 H 0.91197 0.14199 0.65302 0.0
H324 H 0.85279 0.11524 0.62123 0.0
H325 H 0.8018 0.96921 0.5889 0.0
H326 H 0.85157 0.95208 0.61488 0.0
C327 C 0.91216 0.01514 0.64732 0.0
C328 C 0.94246 0.0517 0.66368 0.0
C329 C 0.88186 0.02405 0.63292 0.0
C330 C 0.94152 0.09715 0.66564 0.0
C331 C 0.91156 0.1064 0.65129 0.0
C332 C 0.85262 0.07969 0.61989 0.0
C333 C 0.8235 0.04355 0.60316 0.0
C334 C 0.88183 0.07024 0.63477 0.0
C335 C 0.8232 0.99739 0.6018 0.0
C336 C 0.85202 0.98771 0.61654 0.0
H337 H 0.84891 0.98895 0.98831 0.0
H338 H 0.94065 0.92025 0.97569 0.0
H339 H 0.87874 0.86241 0.94822 0.0
H340 H 0.79992 0.8324 0.92712 0.0
H341 H 0.7072 0.89993 0.93917 0.0
H342 H 0.76831 0.95737 0.9674 0.0
C343 C 0.8553 0.96129 0.97957 0.0
C344 C 0.8995 0.95914 0.98407 0.0
C345 C 0.81945 0.92795 0.96366 0.0
C346 C 0.90712 0.92298 0.97257 0.0
C347 C 0.87169 0.88975 0.95684 0.0
C348 C 0.7926 0.85911 0.93616 0.0
C349 C 0.74892 0.86165 0.93116 0.0
C350 C 0.82784 0.89197 0.95222 0.0
C351 C 0.74069 0.89739 0.94265 0.0
C352 C 0.77555 0.93013 0.95882 0.0
H353 H 0.04127 0.92903 0.30813 0.0
H354 H 0.88142 0.87381 0.31791 0.0
H355 H 0.85904 0.80206 0.29223 0.0
H356 H 0.8852 0.75534 0.26696 0.0
H357 H 0.0456 0.81544 0.25551 0.0
H358 H 0.06721 0.8841 0.28234 0.0
C359 C 0.00148 0.90125 0.30472 0.0
C360 C 0.96308 0.9067 0.31496 0.0
C361 C 0.98895 0.86065 0.28977 0.0
C362 C 0.91173 0.87057 0.3102 0.0
C363 C 0.89892 0.82949 0.29555 0.0
C364 C 0.9249 0.78363 0.27015 0.0
C365 C 0.96358 0.77954 0.25925 0.0
C366 C 0.93726 0.82425 0.28518 0.0
C367 C 0.01484 0.81648 0.26394 0.0
C368 C 0.02737 0.85627 0.27915 0.0
H369 H 0.13479 0.04805 0.62381 0.0
H370 H 0.11529 0.92368 0.66244 0.0
H371 H 0.17155 0.91047 0.63796 0.0
H372 H 0.22744 0.93542 0.60586 0.0
H373 H 0.24323 0.05784 0.56671 0.0
H374 H 0.18795 0.07109 0.59139 0.0
C375 C 0.14278 0.01801 0.62692 0.0
C376 C 0.12099 0.98702 0.64497 0.0
C377 C 0.17486 0.01053 0.61277 0.0
C378 C 0.13154 0.94807 0.64864 0.0
C379 C 0.16378 0.94056 0.63467 0.0
C380 C 0.21845 0.9647 0.60261 0.0
C381 C 0.24008 0.99591 0.58454 0.0
C382 C 0.18576 0.97167 0.6167 0.0
C383 C 0.22825 0.03399 0.58075 0.0
C384 C 0.19621 0.04136 0.59475 0.0
H385 H 0.16168 0.11974 0.97489 0.0
H386 H 0.10908 0.21564 0.00339 0.0
H387 H 0.16531 0.28433 0.97995 0.0
H388 H 0.22234 0.31421 0.94892 0.0
H389 H 0.27164 0.21786 0.91819 0.0
H390 H 0.22513 0.15302 0.94521 0.0
C391 C 0.16331 0.156 0.97617 0.0
C392 C 0.1309 0.16246 0.99064 0.0
C393 C 0.19499 0.19522 0.96218 0.0
C394 C 0.13317 0.20953 0.99214 0.0
C395 C 0.16535 0.24889 0.97877 0.0
C396 C 0.22316 0.27913 0.94821 0.0
C397 C 0.24974 0.27054 0.93142 0.0
C398 C 0.19522 0.24163 0.96331 0.0
C399 C 0.2515 0.22544 0.93101 0.0
C400 C 0.22455 0.18817 0.94634 0.0
H401 H 0.00565 0.18141 0.34206 0.0
H402 H 0.12375 0.16431 0.311 0.0
H403 H 0.13405 0.2256 0.28371 0.0
H404 H 0.1046 0.27874 0.26696 0.0
H405 H 0.98345 0.29187 0.29702 0.0
H406 H 0.97936 0.23756 0.32653 0.0
C407 C 0.03407 0.19144 0.32948 0.0
C408 C 0.06369 0.16807 0.32852 0.0
C409 C 0.03904 0.22583 0.3136 0.0
C410 C 0.10025 0.18152 0.31206 0.0
C411 C 0.10615 0.21654 0.29643 0.0
C412 C 0.07802 0.2704 0.28022 0.0
C413 C 0.04438 0.28917 0.27991 0.0
C414 C 0.07509 0.2382 0.29681 0.0
C415 C 0.00951 0.27756 0.29694 0.0
C416 C 0.00716 0.24654 0.31376 0.0
loop_
_geom_bond_atom_site_label_1
_geom_bond_atom_site_label_2
_geom_bond_distance
_geom_bond_site_symmetry_2
_ccdc_geom_bond_type
C0 O1 1.160 . S
C0 O7 1.185 . S
O1 C0 1.160 . S
O2 Zn3 1.899 . S
O2 C10 1.284 1_455 S
Zn3 O2 1.899 . S
Zn3 O4 2.032 1_445 S
Zn3 O7 2.086 1_545 S
Zn3 O12 1.977 . S
O4 Zn3 2.032 1_665 S
O4 C8 1.278 . S
C5 O6 1.203 . S
C5 O12 1.267 . S
O6 C5 1.203 . S
O7 C0 1.185 . S
O7 Zn3 2.086 1_565 S
C8 O4 1.278 . S
C8 O9 1.211 1_564 S
O9 C8 1.211 1_546 S
C10 O2 1.284 1_655 S
C10 O11 1.273 . S
O11 C10 1.273 . S
O12 Zn3 1.977 . S
O12 C5 1.267 . S
C13 O14 1.160 . S
C13 O20 1.185 . S
O14 C13 1.160 . S
O15 Zn16 1.899 1_565 S
O15 C23 1.284 . S
Zn16 O15 1.899 1_545 S
Zn16 O17 2.032 1_455 S
Zn16 O20 2.086 . S
Zn16 O25 1.977 . S
O17 Zn16 2.032 1_655 S
O17 C21 1.278 . S
C18 O19 1.203 1_545 S
C18 O25 1.267 . S
O19 C18 1.203 1_565 S
O20 C13 1.185 . S
O20 Zn16 2.086 . S
C21 O17 1.278 . S
C21 O22 1.211 1_545 S
O22 C21 1.211 1_565 S
C23 O15 1.284 . S
C23 O24 1.273 1_455 S
O24 C23 1.273 1_655 S
O25 Zn16 1.977 . S
O25 C18 1.267 . S
C26 O27 1.160 1_565 S
C26 O33 1.185 . S
O27 C26 1.160 1_545 S
O28 Zn29 1.899 1_655 S
O28 C36 1.284 1_565 S
Zn29 O28 1.899 1_455 S
Zn29 O30 2.032 1_565 S
Zn29 O33 2.086 . S
Zn29 O38 1.977 1_455 S
O30 Zn29 2.032 1_545 S
O30 C34 1.278 . S
C31 O32 1.203 . S
C31 O38 1.267 . S
O32 C31 1.203 . S
O33 C26 1.185 . S
O33 Zn29 2.086 . S
C34 O30 1.278 . S
C34 O35 1.211 . S
O35 C34 1.211 . S
C36 O28 1.284 1_545 S
C36 O37 1.273 . S
O37 C36 1.273 . S
O38 Zn29 1.977 1_655 S
O38 C31 1.267 . S
H39 C66 0.929 . S
N40 C65 1.433 . S
N40 C71 1.435 . S
N40 C77 1.423 . S
H41 C67 0.930 . S
H42 C70 0.931 . S
H43 C69 0.929 . S
H44 C72 0.930 . S
H45 C73 0.932 . S
H46 C76 0.929 . S
H47 C75 0.931 . S
H48 C78 0.929 . S
H49 C82 0.932 . S
H50 C79 0.931 . S
H51 C81 0.929 1_455 S
H52 C84 0.929 . S
H53 C85 0.930 . S
H54 C87 0.929 . S
H55 C88 0.931 . S
H56 C90 0.930 . S
H57 C91 0.932 . S
H58 C93 0.931 . S
H59 C94 0.929 . S
H60 C96 0.929 . S
H61 C97 0.931 . S
H62 C99 0.929 1_455 S
N63 C83 1.433 . S
N63 C89 1.435 . S
N63 C95 1.423 . S
H64 C100 0.932 . S
C65 N40 1.433 . S
C65 C66 1.363 . S
C65 C70 1.370 1_655 S
C66 H39 0.929 . S
C66 C65 1.363 . S
C66 C67 1.385 . S
C67 H41 0.930 . S
C67 C66 1.385 . S
C67 C68 1.357 1_655 S
C68 C67 1.357 1_455 S
C68 C69 1.406 . S
C69 H43 0.929 . S
C69 C68 1.406 . S
C69 C70 1.391 . S
C70 H42 0.931 . S
C70 C65 1.370 1_455 S
C70 C69 1.391 . S
C71 N40 1.435 . S
C71 C72 1.358 1_655 S
C71 C76 1.371 . S
C72 H44 0.930 . S
C72 C71 1.358 1_455 S
C72 C73 1.405 . S
C73 H45 0.932 . S
C73 C72 1.405 . S
C73 C74 1.392 . S
C74 C73 1.392 . S
C74 C75 1.388 1_455 S
C75 H47 0.931 . S
C75 C74 1.388 1_655 S
C75 C76 1.382 . S
C76 H46 0.929 . S
C76 C71 1.371 . S
C76 C75 1.382 . S
C77 N40 1.423 . S
C77 C78 1.362 . S
C77 C82 1.388 1_655 S
C78 H48 0.929 . S
C78 C77 1.362 . S
C78 C79 1.376 . S
C79 H50 0.931 . S
C79 C78 1.376 . S
C79 C80 1.396 . S
C80 C79 1.396 . S
C80 C81 1.348 . S
C80 C98 1.472 . S
C81 H51 0.929 1_655 S
C81 C80 1.348 . S
C81 C82 1.443 1_655 S
C82 H49 0.932 . S
C82 C77 1.388 1_455 S
C82 C81 1.443 1_455 S
C83 N63 1.433 . S
C83 C84 1.363 . S
C83 C88 1.370 1_655 S
C84 H52 0.929 . S
C84 C83 1.363 . S
C84 C85 1.385 . S
C85 H53 0.930 . S
C85 C84 1.385 . S
C85 C86 1.357 1_655 S
C86 C85 1.357 1_455 S
C86 C87 1.406 . S
C87 H54 0.929 . S
C87 C86 1.406 . S
C87 C88 1.391 . S
C88 H55 0.931 . S
C88 C83 1.370 1_455 S
C88 C87 1.391 . S
C89 N63 1.435 . S
C89 C90 1.358 1_655 S
C89 C94 1.371 . S
C90 H56 0.930 . S
C90 C89 1.358 1_455 S
C90 C91 1.405 . S
C91 H57 0.932 . S
C91 C90 1.405 . S
C91 C92 1.393 . S
C92 C91 1.393 . S
C92 C93 1.375 1_455 S
C93 H58 0.931 . S
C93 C92 1.375 1_655 S
C93 C94 1.382 . S
C94 H59 0.929 . S
C94 C89 1.371 . S
C94 C93 1.382 . S
C95 N63 1.423 . S
C95 C96 1.362 . S
C95 C100 1.388 1_655 S
C96 H60 0.929 . S
C96 C95 1.362 . S
C96 C97 1.376 . S
C97 H61 0.931 . S
C97 C96 1.376 . S
C97 C98 1.396 . S
C98 C80 1.472 . S
C98 C97 1.396 . S
C98 C99 1.348 . S
C99 H62 0.929 1_655 S
C99 C98 1.348 . S
C99 C100 1.443 1_655 S
C100 H64 0.932 . S
C100 C95 1.388 1_455 S
C100 C99 1.443 1_455 S
H101 C128 0.929 . S
N102 C127 1.433 . S
N102 C133 1.435 . S
N102 C139 1.423 . S
H103 C129 0.930 . S
H104 C132 0.931 . S
H105 C131 0.929 . S
H106 C134 0.930 . S
H107 C135 0.932 . S
H108 C138 0.929 . S
H109 C137 0.931 . S
H110 C140 0.929 . S
H111 C144 0.932 1_565 S
H112 C141 0.931 . S
H113 C143 0.929 . S
H114 C146 0.929 . S
H115 C147 0.930 . S
H116 C149 0.929 . S
H117 C150 0.931 . S
H118 C152 0.930 . S
H119 C153 0.932 . S
H120 C155 0.931 . S
H121 C156 0.929 . S
H122 C158 0.929 . S
H123 C159 0.931 . S
H124 C161 0.929 . S
N125 C145 1.433 . S
N125 C151 1.435 . S
N125 C157 1.423 . S
H126 C162 0.932 1_565 S
C127 N102 1.433 . S
C127 C128 1.363 . S
C127 C132 1.370 1_545 S
C128 H101 0.929 . S
C128 C127 1.363 . S
C128 C129 1.385 . S
C129 H103 0.930 . S
C129 C128 1.385 . S
C129 C130 1.357 . S
C130 C129 1.357 . S
C130 C131 1.406 1_545 S
C131 H105 0.929 . S
C131 C130 1.406 1_565 S
C131 C132 1.391 . S
C132 H104 0.931 . S
C132 C127 1.370 1_565 S
C132 C131 1.391 . S
C133 N102 1.435 . S
C133 C134 1.358 1_545 S
C133 C138 1.371 . S
C134 H106 0.930 . S
C134 C133 1.358 1_565 S
C134 C135 1.405 . S
C135 H107 0.932 . S
C135 C134 1.405 . S
C135 C136 1.383 1_565 S
C136 C135 1.383 1_545 S
C136 C137 1.393 . S
C137 H109 0.931 . S
C137 C136 1.393 . S
C137 C138 1.382 . S
C138 H108 0.929 . S
C138 C133 1.371 . S
C138 C137 1.382 . S
C139 N102 1.423 . S
C139 C140 1.362 . S
C139 C144 1.388 . S
C140 H110 0.929 . S
C140 C139 1.362 . S
C140 C141 1.376 . S
C141 H112 0.931 . S
C141 C140 1.376 . S
C141 C142 1.396 . S
C142 C141 1.396 . S
C142 C143 1.348 . S
C142 C160 1.472 . S
C143 H113 0.929 . S
C143 C142 1.348 . S
C143 C144 1.443 . S
C144 H111 0.932 1_545 S
C144 C139 1.388 . S
C144 C143 1.443 . S
C145 N125 1.433 . S
C145 C146 1.363 . S
C145 C150 1.370 1_545 S
C146 H114 0.929 . S
C146 C145 1.363 . S
C146 C147 1.385 . S
C147 H115 0.930 . S
C147 C146 1.385 . S
C147 C148 1.357 . S
C148 C147 1.357 . S
C148 C149 1.406 1_545 S
C149 H116 0.929 . S
C149 C148 1.406 1_565 S
C149 C150 1.391 . S
C150 H117 0.931 . S
C150 C145 1.370 1_565 S
C150 C149 1.391 . S
C151 N125 1.435 . S
C151 C152 1.358 1_545 S
C151 C156 1.371 . S
C152 H118 0.930 . S
C152 C151 1.358 1_565 S
C152 C153 1.405 . S
C153 H119 0.932 . S
C153 C152 1.405 . S
C153 C154 1.383 1_565 S
C154 C153 1.383 1_545 S
C154 C155 1.393 . S
C155 H120 0.931 . S
C155 C154 1.393 . S
C155 C156 1.382 . S
C156 H121 0.929 . S
C156 C151 1.371 . S
C156 C155 1.382 . S
C157 N125 1.423 . S
C157 C158 1.362 . S
C157 C162 1.388 . S
C158 H122 0.929 . S
C158 C157 1.362 . S
C158 C159 1.376 . S
C159 H123 0.931 . S
C159 C158 1.376 . S
C159 C160 1.396 . S
C160 C142 1.472 . S
C160 C159 1.396 . S
C160 C161 1.348 . S
C161 H124 0.929 . S
C161 C160 1.348 . S
C161 C162 1.443 . S
C162 H126 0.932 1_545 S
C162 C157 1.388 . S
C162 C161 1.443 . S
H163 C190 0.929 . S
N164 C189 1.433 . S
N164 C195 1.435 . S
N164 C201 1.423 . S
H165 C191 0.930 . S
H166 C194 0.931 . S
H167 C193 0.929 . S
H168 C196 0.930 . S
H169 C197 0.932 . S
H170 C200 0.929 . S
H171 C199 0.931 . S
H172 C202 0.929 . S
H173 C206 0.932 . S
H174 C203 0.931 . S
H175 C205 0.929 . S
H176 C208 0.929 . S
H177 C209 0.930 . S
H178 C211 0.929 . S
H179 C212 0.931 . S
H180 C214 0.930 . S
H181 C215 0.932 . S
H182 C217 0.931 . S
H183 C218 0.929 . S
H184 C220 0.929 . S
H185 C221 0.931 . S
H186 C223 0.929 . S
N187 C207 1.433 . S
N187 C213 1.435 . S
N187 C219 1.423 . S
H188 C224 0.932 . S
C189 N164 1.433 . S
C189 C190 1.363 . S
C189 C194 1.370 . S
C190 H163 0.929 . S
C190 C189 1.363 . S
C190 C191 1.385 . S
C191 H165 0.930 . S
C191 C190 1.385 . S
C191 C192 1.357 . S
C192 C191 1.357 . S
C192 C193 1.406 . S
C193 H167 0.929 . S
C193 C192 1.406 . S
C193 C194 1.391 . S
C194 H166 0.931 . S
C194 C189 1.370 . S
C194 C193 1.391 . S
C195 N164 1.435 . S
C195 C196 1.358 . S
C195 C200 1.371 . S
C196 H168 0.930 . S
C196 C195 1.358 . S
C196 C197 1.405 . S
C197 H169 0.932 . S
C197 C196 1.405 . S
C197 C198 1.383 . S
C198 C197 1.383 . S
C198 C199 1.393 . S
C199 H171 0.931 . S
C199 C198 1.393 . S
C199 C200 1.382 . S
C200 H170 0.929 . S
C200 C195 1.371 . S
C200 C199 1.382 . S
C201 N164 1.423 . S
C201 C202 1.362 . S
C201 C206 1.388 . S
C202 H172 0.929 . S
C202 C201 1.362 . S
C202 C203 1.376 . S
C203 H174 0.931 . S
C203 C202 1.376 . S
C203 C204 1.396 . S
C204 C203 1.396 . S
C204 C205 1.348 . S
C204 C222 1.472 . S
C205 H175 0.929 . S
C205 C204 1.348 . S
C205 C206 1.443 . S
C206 H173 0.932 . S
C206 C201 1.388 . S
C206 C205 1.443 . S
C207 N187 1.433 . S
C207 C208 1.363 . S
C207 C212 1.370 . S
C208 H176 0.929 . S
C208 C207 1.363 . S
C208 C209 1.385 . S
C209 H177 0.930 . S
C209 C208 1.385 . S
C209 C210 1.357 . S
C210 C209 1.357 . S
C210 C211 1.406 . S
C211 H178 0.929 . S
C211 C210 1.406 . S
C211 C212 1.391 . S
C212 H179 0.931 . S
C212 C207 1.370 . S
C212 C211 1.391 . S
C213 N187 1.435 . S
C213 C214 1.358 . S
C213 C218 1.371 . S
C214 H180 0.930 . S
C214 C213 1.358 . S
C214 C215 1.405 . S
C215 H181 0.932 . S
C215 C214 1.405 . S
C215 C216 1.383 . S
C216 C215 1.383 . S
C216 C217 1.393 . S
C217 H182 0.931 . S
C217 C216 1.393 . S
C217 C218 1.382 . S
C218 H183 0.929 . S
C218 C213 1.371 . S
C218 C217 1.382 . S
C219 N187 1.423 . S
C219 C220 1.362 . S
C219 C224 1.388 . S
C220 H184 0.929 . S
C220 C219 1.362 . S
C220 C221 1.376 . S
C221 H185 0.931 . S
C221 C220 1.376 . S
C221 C222 1.396 . S
C222 C204 1.472 . S
C222 C221 1.396 . S
C222 C223 1.348 . S
C223 H186 0.929 . S
C223 C222 1.348 . S
C223 C224 1.443 . S
C224 H188 0.932 . S
C224 C219 1.388 . S
C224 C223 1.443 . S
H225 C231 0.930 . S
H226 C234 0.930 . S
H227 C235 0.930 . S
H228 C236 0.930 . S
H229 C239 0.930 . S
H230 C240 0.930 . S
C231 H225 0.930 . S
C231 C232 1.355 1_655 S
C231 C233 1.415 . S
C232 C231 1.355 1_455 S
C232 C234 1.419 . S
C233 C231 1.415 . S
C233 C238 1.425 1_655 S
C233 C240 1.409 . S
C234 H226 0.930 . S
C234 C232 1.419 . S
C234 C235 1.362 . S
C235 H227 0.930 . S
C235 C234 1.362 . S
C235 C238 1.409 . S
C236 H228 0.930 . S
C236 C237 1.355 1_455 S
C236 C238 1.415 . S
C237 C236 1.355 1_655 S
C237 C239 1.419 . S
C238 C233 1.425 1_455 S
C238 C235 1.409 . S
C238 C236 1.415 . S
C239 H229 0.930 . S
C239 C237 1.419 . S
C239 C240 1.362 . S
C240 H230 0.930 . S
C240 C233 1.409 . S
C240 C239 1.362 . S
H241 C247 0.930 . S
H242 C250 0.930 . S
H243 C251 0.930 . S
H244 C252 0.930 . S
H245 C255 0.930 . S
H246 C256 0.930 . S
C247 H241 0.930 . S
C247 C248 1.355 . S
C247 C249 1.415 . S
C248 C247 1.355 . S
C248 C250 1.419 1_545 S
C249 C247 1.415 . S
C249 C254 1.425 1_545 S
C249 C256 1.409 . S
C250 H242 0.930 . S
C250 C248 1.419 1_565 S
C250 C251 1.362 . S
C251 H243 0.930 . S
C251 C250 1.362 . S
C251 C254 1.409 . S
C252 H244 0.930 . S
C252 C253 1.355 1_565 S
C252 C254 1.415 . S
C253 C252 1.355 1_545 S
C253 C255 1.419 . S
C254 C249 1.425 1_565 S
C254 C251 1.409 . S
C254 C252 1.415 . S
C255 H245 0.930 . S
C255 C253 1.419 . S
C255 C256 1.362 . S
C256 H246 0.930 . S
C256 C249 1.409 . S
C256 C255 1.362 . S
H257 C263 0.930 . S
H258 C266 0.930 . S
H259 C267 0.930 . S
H260 C268 0.930 . S
H261 C271 0.930 . S
H262 C272 0.930 . S
C263 H257 0.930 . S
C263 C264 1.355 . S
C263 C265 1.415 . S
C264 C263 1.355 . S
C264 C266 1.419 . S
C265 C263 1.415 . S
C265 C270 1.425 . S
C265 C272 1.409 . S
C266 H258 0.930 . S
C266 C264 1.419 . S
C266 C267 1.362 . S
C267 H259 0.930 . S
C267 C266 1.362 . S
C267 C270 1.409 . S
C268 H260 0.930 . S
C268 C269 1.355 . S
C268 C270 1.415 . S
C269 C268 1.355 . S
C269 C271 1.419 . S
C270 C265 1.425 . S
C270 C267 1.409 . S
C270 C268 1.415 . S
C271 H261 0.930 . S
C271 C269 1.419 . S
C271 C272 1.362 . S
C272 H262 0.930 . S
C272 C265 1.409 . S
C272 C271 1.362 . S
H273 C279 0.930 1_655 S
H274 C282 0.930 . S
H275 C283 0.930 . S
H276 C284 0.930 . S
H277 C287 0.930 . S
H278 C288 0.930 . S
C279 H273 0.930 1_455 S
C279 C280 1.355 . S
C279 C281 1.412 . S
C280 C279 1.355 . S
C280 C282 1.419 . S
C281 C279 1.412 . S
C281 C286 1.432 . S
C281 C288 1.405 1_455 S
C282 H274 0.930 . S
C282 C280 1.419 . S
C282 C283 1.362 . S
C283 H275 0.930 . S
C283 C282 1.362 . S
C283 C286 1.409 . S
C284 H276 0.930 . S
C284 C285 1.355 . S
C284 C286 1.415 . S
C285 C284 1.355 . S
C285 C287 1.419 1_455 S
C286 C281 1.432 . S
C286 C283 1.409 . S
C286 C284 1.415 . S
C287 H277 0.930 . S
C287 C285 1.419 1_655 S
C287 C288 1.362 . S
C288 H278 0.930 . S
C288 C281 1.405 1_655 S
C288 C287 1.362 . S
H289 C295 0.930 . S
H290 C298 0.930 1_565 S
H291 C299 0.930 . S
H292 C300 0.930 . S
H293 C303 0.930 . S
H294 C304 0.930 . S
C295 H289 0.930 . S
C295 C296 1.355 . S
C295 C297 1.415 . S
C296 C295 1.355 . S
C296 C298 1.419 . S
C297 C295 1.415 . S
C297 C302 1.425 . S
C297 C304 1.409 . S
C298 H290 0.930 1_545 S
C298 C296 1.419 . S
C298 C299 1.362 1_545 S
C299 H291 0.930 . S
C299 C298 1.362 1_565 S
C299 C302 1.409 1_565 S
C300 H292 0.930 . S
C300 C301 1.355 1_565 S
C300 C302 1.415 1_565 S
C301 C300 1.355 1_545 S
C301 C303 1.419 . S
C302 C297 1.425 . S
C302 C299 1.409 1_545 S
C302 C300 1.415 1_545 S
C303 H293 0.930 . S
C303 C301 1.419 . S
C303 C304 1.362 . S
C304 H294 0.930 . S
C304 C297 1.409 . S
C304 C303 1.362 . S
H305 C311 0.930 . S
H306 C314 0.930 . S
H307 C315 0.930 . S
H308 C316 0.930 . S
H309 C319 0.930 . S
H310 C320 0.930 . S
C311 H305 0.930 . S
C311 C312 1.355 . S
C311 C313 1.415 . S
C312 C311 1.355 . S
C312 C314 1.419 . S
C313 C311 1.415 . S
C313 C318 1.425 . S
C313 C320 1.409 . S
C314 H306 0.930 . S
C314 C312 1.419 . S
C314 C315 1.362 . S
C315 H307 0.930 . S
C315 C314 1.362 . S
C315 C318 1.409 . S
C316 H308 0.930 . S
C316 C317 1.355 . S
C316 C318 1.415 . S
C317 C316 1.355 . S
C317 C319 1.419 . S
C318 C313 1.425 . S
C318 C315 1.409 . S
C318 C316 1.415 . S
C319 H309 0.930 . S
C319 C317 1.419 . S
C319 C320 1.362 . S
C320 H310 0.930 . S
C320 C313 1.409 . S
C320 C319 1.362 . S
H321 C327 0.930 1_565 S
H322 C330 0.930 . S
H323 C331 0.930 . S
H324 C332 0.930 . S
H325 C335 0.930 . S
H326 C336 0.930 . S
C327 H321 0.930 1_545 S
C327 C328 1.355 . S
C327 C329 1.415 . S
C328 C327 1.355 . S
C328 C330 1.419 . S
C329 C327 1.415 . S
C329 C334 1.425 . S
C329 C336 1.409 1_545 S
C330 H322 0.930 . S
C330 C328 1.419 . S
C330 C331 1.362 . S
C331 H323 0.930 . S
C331 C330 1.362 . S
C331 C334 1.409 . S
C332 H324 0.930 . S
C332 C333 1.355 . S
C332 C334 1.415 . S
C333 C332 1.355 . S
C333 C335 1.419 1_545 S
C334 C329 1.425 . S
C334 C331 1.409 . S
C334 C332 1.415 . S
C335 H325 0.930 . S
C335 C333 1.419 1_565 S
C335 C336 1.362 . S
C336 H326 0.930 . S
C336 C329 1.409 1_565 S
C336 C335 1.362 . S
H337 C343 0.930 1_554 S
H338 C346 0.930 . S
H339 C347 0.930 . S
H340 C348 0.930 . S
H341 C351 0.930 . S
H342 C352 0.930 1_554 S
C343 H337 0.930 1_556 S
C343 C344 1.355 . S
C343 C345 1.415 . S
C344 C343 1.355 . S
C344 C346 1.419 . S
C345 C343 1.415 . S
C345 C350 1.425 . S
C345 C352 1.409 . S
C346 H338 0.930 . S
C346 C344 1.419 . S
C346 C347 1.362 . S
C347 H339 0.930 . S
C347 C346 1.362 . S
C347 C350 1.409 . S
C348 H340 0.930 . S
C348 C349 1.355 . S
C348 C350 1.415 . S
C349 C348 1.355 . S
C349 C351 1.419 . S
C350 C345 1.425 . S
C350 C347 1.409 . S
C350 C348 1.415 . S
C351 H341 0.930 . S
C351 C349 1.419 . S
C351 C352 1.362 . S
C352 H342 0.930 1_556 S
C352 C345 1.409 . S
C352 C351 1.362 . S
H353 C359 0.930 . S
H354 C362 0.930 . S
H355 C363 0.930 . S
H356 C364 0.930 . S
H357 C367 0.930 . S
H358 C368 0.930 . S
C359 H353 0.930 . S
C359 C360 1.355 . S
C359 C361 1.415 . S
C360 C359 1.355 . S
C360 C362 1.419 1_455 S
C361 C359 1.415 . S
C361 C366 1.425 1_455 S
C361 C368 1.409 . S
C362 H354 0.930 . S
C362 C360 1.419 1_655 S
C362 C363 1.362 . S
C363 H355 0.930 . S
C363 C362 1.362 . S
C363 C366 1.409 . S
C364 H356 0.930 . S
C364 C365 1.355 1_655 S
C364 C366 1.415 . S
C365 C364 1.355 1_455 S
C365 C367 1.419 . S
C366 C361 1.425 1_655 S
C366 C363 1.409 . S
C366 C364 1.415 . S
C367 H357 0.930 . S
C367 C365 1.419 . S
C367 C368 1.362 . S
C368 H358 0.930 . S
C368 C361 1.409 . S
C368 C367 1.362 . S
H369 C375 0.930 . S
H370 C378 0.930 . S
H371 C379 0.930 . S
H372 C380 0.930 . S
H373 C383 0.930 . S
H374 C384 0.930 . S
C375 H369 0.930 . S
C375 C376 1.355 . S
C375 C377 1.415 . S
C376 C375 1.355 . S
C376 C378 1.419 . S
C377 C375 1.415 . S
C377 C382 1.424 . S
C377 C384 1.409 . S
C378 H370 0.930 . S
C378 C376 1.419 . S
C378 C379 1.363 1_565 S
C379 H371 0.930 . S
C379 C378 1.363 1_545 S
C379 C382 1.409 1_545 S
C380 H372 0.930 . S
C380 C381 1.355 . S
C380 C382 1.416 1_545 S
C381 C380 1.355 . S
C381 C383 1.419 1_545 S
C382 C377 1.424 . S
C382 C379 1.409 1_565 S
C382 C380 1.416 1_565 S
C383 H373 0.930 . S
C383 C381 1.419 1_565 S
C383 C384 1.362 . S
C384 H374 0.930 . S
C384 C377 1.409 . S
C384 C383 1.362 . S
H385 C391 0.930 . S
H386 C394 0.930 1_554 S
H387 C395 0.930 . S
H388 C396 0.930 . S
H389 C399 0.930 . S
H390 C400 0.930 . S
C391 H385 0.930 . S
C391 C392 1.355 . S
C391 C393 1.415 . S
C392 C391 1.355 . S
C392 C394 1.419 . S
C393 C391 1.415 . S
C393 C398 1.425 . S
C393 C400 1.409 . S
C394 H386 0.930 1_556 S
C394 C392 1.419 . S
C394 C395 1.362 . S
C395 H387 0.930 . S
C395 C394 1.362 . S
C395 C398 1.409 . S
C396 H388 0.930 . S
C396 C397 1.355 . S
C396 C398 1.415 . S
C397 C396 1.355 . S
C397 C399 1.419 . S
C398 C393 1.425 . S
C398 C395 1.409 . S
C398 C396 1.415 . S
C399 H389 0.930 . S
C399 C397 1.419 . S
C399 C400 1.362 . S
C400 H390 0.930 . S
C400 C393 1.409 . S
C400 C399 1.362 . S
H401 C407 0.930 . S
H402 C410 0.930 . S
H403 C411 0.930 . S
H404 C412 0.930 . S
H405 C415 0.930 1_655 S
H406 C416 0.930 . S
C407 H401 0.930 . S
C407 C408 1.355 . S
C407 C409 1.415 . S
C408 C407 1.355 . S
C408 C410 1.419 . S
C409 C407 1.415 . S
C409 C414 1.425 . S
C409 C416 1.409 . S
C410 H402 0.930 . S
C410 C408 1.419 . S
C410 C411 1.362 . S
C411 H403 0.930 . S
C411 C410 1.362 . S
C411 C414 1.409 . S
C412 H404 0.930 . S
C412 C413 1.355 . S
C412 C414 1.415 . S
C413 C412 1.355 . S
C413 C415 1.419 . S
C414 C409 1.425 . S
C414 C411 1.409 . S
C414 C412 1.415 . S
C415 H405 0.930 1_455 S
C415 C413 1.419 . S
C415 C416 1.362 . S
C416 H406 0.930 . S
C416 C409 1.409 . S
C416 C415 1.362 . S
C237 C92 1.280 1_655 S
C232 C10 1.300 1_455 S
C248 C21 1.328 . S
C253 C136 1.351 . S
C264 C31 1.328 . S
C269 C198 1.366 . S
C280 C0 1.307 . S
C285 C74 1.330 . S
C301 C154 1.323 . S
C296 C18 1.266 . S
C312 C34 1.257 . S
C317 C216 1.339 . S
C333 C130 1.471 . S
C328 C36 1.580 . S
C344 C8 1.602 1_556 S
C349 C192 1.566 . S
C365 C68 1.494 . S
C360 C23 1.601 . S
C381 C148 1.437 . S
C376 C26 1.580 . S
C397 C210 1.556 . S
C392 C5 1.541 1_556 S
C408 C13 1.587 . S
C413 C86 1.587 . S
