# Generated by pormake.
# Topology rtl, (3,6)-cn, num edge types: 1
# Building blocks:
#     Node 0, Type 0, BuildingBlock: BELTOD_clean_linker_0, # of connection points: 3
#     Node 1, Type 0, BuildingBlock: BELTOD_clean_linker_0, # of connection points: 3
#     Node 2, Type 0, BuildingBlock: BELTOD_clean_linker_0, # of connection points: 3
#     Node 3, Type 0, BuildingBlock: BELTOD_clean_linker_0, # of connection points: 3
#     Node 4, Type 1, BuildingBlock: LEVNOQ01_clean_sbu_1, # of connection points: 6
#     Node 5, Type 1, BuildingBlock: LEVNOQ01_clean_sbu_1, # of connection points: 6
#     Edge 6, Type (0, 1), BuildingBlock: FUNLAD_clean_linker_1, # of connection points: 2
#     Edge 7, Type (0, 1), BuildingBlock: FUNLAD_clean_linker_1, # of connection points: 2
#     Edge 8, Type (0, 1), BuildingBlock: FUNLAD_clean_linker_1, # of connection points: 2
#     Edge 9, Type (0, 1), BuildingBlock: FUNLAD_clean_linker_1, # of connection points: 2
#     Edge 10, Type (0, 1), BuildingBlock: FUNLAD_clean_linker_1, # of connection points: 2
#     Edge 11, Type (0, 1), BuildingBlock: FUNLAD_clean_linker_1, # of connection points: 2
#     Edge 12, Type (0, 1), BuildingBlock: FUNLAD_clean_linker_1, # of connection points: 2
#     Edge 13, Type (0, 1), BuildingBlock: FUNLAD_clean_linker_1, # of connection points: 2
#     Edge 14, Type (0, 1), BuildingBlock: FUNLAD_clean_linker_1, # of connection points: 2
#     Edge 15, Type (0, 1), BuildingBlock: FUNLAD_clean_linker_1, # of connection points: 2
#     Edge 16, Type (0, 1), BuildingBlock: FUNLAD_clean_linker_1, # of connection points: 2
#     Edge 17, Type (0, 1), BuildingBlock: FUNLAD_clean_linker_1, # of connection points: 2
# Relax obj value: 0.023
# Max RMSD: 0.060
# Mean RMSD: 0.042
data_MOF--net-rtl--node1-LEVNOQ01_clean_sbu_1--node2-BELTOD_clean_linker_0--edge1-FUNLAD_clean_linker_1
_symmetry_space_group_name_H-M    P1
_symmetry_Int_Tables_number       1
_symmetry_cell_setting            triclinic
loop_
_symmetry_equiv_pos_as_xyz
'x, y, z'
_cell_length_a     36.47108
_cell_length_b     41.054935
_cell_length_c     28.463449
_cell_angle_alpha  89.56473
_cell_angle_beta   97.590372
_cell_angle_gamma 89.969374
loop_
_atom_site_label
_atom_site_type_symbol
_atom_site_fract_x
_atom_site_fract_y
_atom_site_fract_z
_atom_type_partial_charge
P0 P 0.30194 0.91399 0.10131 0.0
H1 H 0.32493 0.93324 0.19895 0.0
H2 H 0.29124 0.94165 0.26668 0.0
H3 H 0.18981 0.91295 0.18073 0.0
H4 H 0.22363 0.90525 0.11341 0.0
H5 H 0.36929 0.88961 0.06917 0.0
H6 H 0.39716 0.83545 0.06943 0.0
H7 H 0.30664 0.79627 0.13623 0.0
H8 H 0.27894 0.8503 0.13514 0.0
H9 H 0.28126 0.97334 0.04773 0.0
H10 H 0.25827 0.87064 0.03337 0.0
O11 O 0.33613 0.94127 0.10579 0.0
H12 H 0.24322 0.98386 0.97172 0.0
H13 H 0.22057 0.8808 0.95734 0.0
C14 C 0.2766 0.91952 0.15087 0.0
C15 C 0.29535 0.92911 0.19468 0.0
C16 C 0.27607 0.93381 0.23339 0.0
C17 C 0.23765 0.92889 0.22918 0.0
C18 C 0.2191 0.91815 0.18538 0.0
C19 C 0.23849 0.9135 0.14663 0.0
C20 C 0.32236 0.87401 0.10274 0.0
C21 C 0.35557 0.86933 0.084 0.0
C22 C 0.37145 0.83836 0.08418 0.0
C23 C 0.35416 0.81136 0.10241 0.0
C24 C 0.32067 0.81618 0.12111 0.0
C25 C 0.30484 0.84725 0.12097 0.0
C26 C 0.27299 0.9212 0.04585 0.0
C27 C 0.268 0.95305 0.02822 0.0
C28 C 0.24623 0.95902 0.98483 0.0
C29 C 0.22847 0.93333 0.9586 0.0
C30 C 0.23308 0.90137 0.97681 0.0
C31 C 0.25504 0.89542 0.02022 0.0
P32 P 0.77883 0.6169 0.58494 0.0
H33 H 0.79735 0.59351 0.49504 0.0
H34 H 0.76119 0.58647 0.4173 0.0
H35 H 0.6639 0.62179 0.47305 0.0
H36 H 0.70028 0.62843 0.55047 0.0
H37 H 0.85003 0.64336 0.62564 0.0
H38 H 0.87416 0.69848 0.63283 0.0
H39 H 0.77216 0.735 0.55531 0.0
H40 H 0.74783 0.67957 0.54977 0.0
H41 H 0.72103 0.57094 0.60343 0.0
H42 H 0.78117 0.65058 0.67563 0.0
O43 O 0.81325 0.58978 0.59148 0.0
H44 H 0.68903 0.56161 0.67271 0.0
H45 H 0.7497 0.64102 0.7448 0.0
C46 C 0.75119 0.61046 0.52874 0.0
C47 C 0.7681 0.59926 0.49059 0.0
C48 C 0.74745 0.59546 0.44615 0.0
C49 C 0.70952 0.60293 0.43894 0.0
C50 C 0.69275 0.6149 0.47719 0.0
C51 C 0.71356 0.61874 0.52171 0.0
C52 C 0.79767 0.65729 0.58581 0.0
C53 C 0.83315 0.6632 0.60949 0.0
C54 C 0.84692 0.69492 0.6135 0.0
C55 C 0.82536 0.72128 0.59352 0.0
C56 C 0.78953 0.71518 0.57064 0.0
C57 C 0.77572 0.68348 0.56701 0.0
C58 C 0.75276 0.61197 0.63381 0.0
C59 C 0.72674 0.58685 0.63368 0.0
C60 C 0.70839 0.58163 0.67318 0.0
C61 C 0.71649 0.60113 0.71364 0.0
C62 C 0.74277 0.62599 0.71376 0.0
C63 C 0.76067 0.63146 0.67411 0.0
P64 P 0.80037 0.17839 0.99391 0.0
H65 H 0.81563 0.1945 0.89911 0.0
H66 H 0.82194 0.16112 0.83015 0.0
H67 H 0.78455 0.07689 0.90229 0.0
H68 H 0.77758 0.11081 0.97123 0.0
H69 H 0.79228 0.23613 0.04852 0.0
H70 H 0.74112 0.27361 0.05326 0.0
H71 H 0.67189 0.21621 0.94995 0.0
H72 H 0.7236 0.17896 0.94531 0.0
H73 H 0.86069 0.13594 0.03162 0.0
H74 H 0.75401 0.16314 0.06885 0.0
O75 O 0.83817 0.20149 0.9957 0.0
H76 H 0.87379 0.10505 0.10553 0.0
H77 H 0.7673 0.13282 0.14352 0.0
C78 C 0.79729 0.15486 0.94064 0.0
C79 C 0.80839 0.16893 0.8999 0.0
C80 C 0.81234 0.14971 0.86069 0.0
C81 C 0.80527 0.11602 0.86176 0.0
C82 C 0.79089 0.10263 0.90102 0.0
C83 C 0.78699 0.12195 0.94038 0.0
C84 C 0.76191 0.20538 0.99568 0.0
C85 C 0.76617 0.23185 0.02653 0.0
C86 C 0.73686 0.25314 0.02934 0.0
C87 C 0.70263 0.24842 0.00135 0.0
C88 C 0.69805 0.22124 0.97118 0.0
C89 C 0.72759 0.19978 0.96852 0.0
C90 C 0.8069 0.15249 0.04544 0.0
C91 C 0.84012 0.13523 0.0558 0.0
C92 C 0.84768 0.11784 0.09828 0.0
C93 C 0.82206 0.11765 0.13117 0.0
C94 C 0.78772 0.1331 0.11912 0.0
C95 C 0.78019 0.15052 0.07655 0.0
P96 P 0.26879 0.35845 0.49639 0.0
H97 H 0.26396 0.332 0.59012 0.0
H98 H 0.27395 0.3565 0.66909 0.0
H99 H 0.28165 0.45147 0.60515 0.0
H100 H 0.27003 0.42735 0.52655 0.0
H101 H 0.25801 0.30268 0.43479 0.0
H102 H 0.20683 0.26484 0.41599 0.0
H103 H 0.14125 0.32124 0.50235 0.0
H104 H 0.19274 0.35874 0.52076 0.0
H105 H 0.32678 0.40488 0.48546 0.0
H106 H 0.22361 0.37513 0.40532 0.0
O107 O 0.30628 0.33468 0.50286 0.0
H108 H 0.3385 0.44102 0.42051 0.0
H109 H 0.23601 0.41038 0.33946 0.0
C110 C 0.26716 0.3777 0.55254 0.0
C111 C 0.26682 0.35819 0.5931 0.0
C112 C 0.27248 0.37214 0.63805 0.0
C113 C 0.27941 0.40559 0.6428 0.0
C114 C 0.27716 0.42544 0.60214 0.0
C115 C 0.27068 0.41158 0.55722 0.0
C116 C 0.22945 0.33275 0.48033 0.0
C117 C 0.2325 0.30686 0.44948 0.0
C118 C 0.20309 0.28544 0.43847 0.0
C119 C 0.17003 0.28943 0.45815 0.0
C120 C 0.1663 0.31672 0.48699 0.0
C121 C 0.19587 0.33829 0.49782 0.0
C122 C 0.27444 0.38731 0.45019 0.0
C123 C 0.30645 0.40644 0.45412 0.0
C124 C 0.31302 0.42715 0.41717 0.0
C125 C 0.28831 0.42821 0.37505 0.0
C126 C 0.25564 0.40973 0.37152 0.0
C127 C 0.24862 0.38956 0.40911 0.0
O128 O 0.00937 0.06389 0.64367 0.0
Mg129 Mg 0.05681 0.05259 0.61203 0.0
O130 O 0.97367 0.03042 0.59703 0.0
Mg131 Mg 0.0105 0.00822 0.54371 0.0
O132 O 0.04579 0.05511 0.54037 0.0
O133 O 0.08353 0.08942 0.58423 0.0
O134 O 0.0473 0.98585 0.49012 0.0
O135 O 0.97524 0.03851 0.48165 0.0
Mg136 Mg 0.96324 0.97629 0.48031 0.0
O137 O 0.97382 0.96055 0.54904 0.0
O138 O 0.00405 0.96737 0.43542 0.0
O139 O 0.92355 0.01229 0.46298 0.0
O140 O 0.93573 0.93578 0.49143 0.0
C141 C 0.07704 0.98611 0.63593 0.0
C142 C 0.97829 0.05065 0.63119 0.0
C143 C 0.06676 0.08078 0.54347 0.0
C144 C 0.03782 0.97268 0.44984 0.0
C145 C 0.94237 0.03764 0.45999 0.0
C146 C 0.95046 0.93747 0.53508 0.0
O147 O 0.09022 0.01452 0.63981 0.0
O148 O 0.04813 0.98037 0.60654 0.0
O149 O 0.56479 0.5066 0.14736 0.0
Mg150 Mg 0.53113 0.46781 0.12159 0.0
O151 O 0.53067 0.54011 0.09847 0.0
Mg152 Mg 0.49676 0.51193 0.03593 0.0
O153 O 0.52817 0.46355 0.04956 0.0
O154 O 0.55576 0.42676 0.10035 0.0
O155 O 0.46134 0.48458 0.97344 0.0
O156 O 0.54254 0.52374 0.98637 0.0
Mg157 Mg 0.46802 0.55869 0.95603 0.0
O158 O 0.46655 0.56204 0.02632 0.0
O159 O 0.43346 0.52251 0.92563 0.0
O160 O 0.52002 0.56176 0.93496 0.0
O161 O 0.4444 0.60026 0.97317 0.0
C162 C 0.44934 0.48046 0.12037 0.0
C163 C 0.55534 0.53516 0.13387 0.0
C164 C 0.54589 0.43626 0.05719 0.0
C165 C 0.43825 0.49298 0.93776 0.0
C166 C 0.54589 0.54289 0.95156 0.0
C167 C 0.44998 0.58981 0.01647 0.0
O168 O 0.47746 0.46608 0.14219 0.0
O169 O 0.45128 0.49725 0.08285 0.0
H170 H 0.15034 0.24146 0.43197 0.0
C171 C 0.14276 0.2624 0.45192 0.0
H172 H 0.10527 0.27852 0.49787 0.0
H173 H 0.06409 0.12764 0.41355 0.0
H174 H 0.03652 0.15517 0.34162 0.0
H175 H 0.03778 0.21513 0.33501 0.0
H176 H 0.06699 0.24796 0.40052 0.0
C177 C 0.11384 0.25902 0.47633 0.0
C178 C 0.10105 0.22545 0.48518 0.0
C179 C 0.08303 0.20666 0.44755 0.0
C180 C 0.08135 0.17218 0.45203 0.0
C181 C 0.06496 0.15395 0.41277 0.0
C182 C 0.0493 0.16946 0.37114 0.0
C183 C 0.05011 0.20323 0.36735 0.0
C184 C 0.067 0.22174 0.40494 0.0
H185 H 0.04001 0.11378 0.4891 0.0
C186 C 0.06674 0.10392 0.50389 0.0
H187 H 0.12402 0.10984 0.51525 0.0
H188 H 0.13075 0.25547 0.56715 0.0
H189 H 0.1544 0.22909 0.64131 0.0
H190 H 0.15262 0.16932 0.64956 0.0
H191 H 0.12732 0.13587 0.58414 0.0
C192 C 0.09783 0.12065 0.5001 0.0
C193 C 0.09706 0.15677 0.49478 0.0
C194 C 0.11241 0.17607 0.53393 0.0
C195 C 0.11377 0.21048 0.52925 0.0
C196 C 0.12922 0.2292 0.56866 0.0
C197 C 0.14285 0.21439 0.61156 0.0
C198 C 0.1418 0.18079 0.61621 0.0
C199 C 0.12695 0.16179 0.57807 0.0
H200 H 0.40019 0.77819 0.0922 0.0
C201 C 0.37193 0.77884 0.10059 0.0
H202 H 0.32554 0.74934 0.10962 0.0
H203 H 0.38808 0.6439 0.97733 0.0
H204 H 0.33847 0.66749 0.92265 0.0
H205 H 0.30353 0.71499 0.94555 0.0
H206 H 0.31796 0.73898 0.02346 0.0
C207 C 0.35446 0.75031 0.10458 0.0
C208 C 0.37261 0.7194 0.09351 0.0
C209 C 0.36309 0.70525 0.04832 0.0
C210 C 0.38353 0.67824 0.0349 0.0
C211 C 0.37388 0.66481 0.98917 0.0
C212 C 0.34532 0.67802 0.95746 0.0
C213 C 0.32564 0.70472 0.97038 0.0
C214 C 0.33423 0.71825 0.01524 0.0
H215 H 0.42348 0.5997 0.08074 0.0
C216 C 0.43788 0.61051 0.05343 0.0
H217 H 0.45393 0.65287 0.0197 0.0
H218 H 0.39468 0.73832 0.18469 0.0
H219 H 0.44473 0.71464 0.23939 0.0
H220 H 0.48093 0.66822 0.21539 0.0
H221 H 0.46715 0.64502 0.13662 0.0
C222 C 0.43937 0.64293 0.04758 0.0
C223 C 0.41353 0.6656 0.06657 0.0
C224 C 0.42163 0.6784 0.11273 0.0
C225 C 0.40102 0.70538 0.12632 0.0
C226 C 0.40981 0.71806 0.17249 0.0
C227 C 0.43836 0.70464 0.20417 0.0
C228 C 0.45873 0.67848 0.19068 0.0
C229 C 0.45062 0.66543 0.14544 0.0
H230 H 0.81916 0.77462 0.5846 0.0
C231 C 0.83914 0.75532 0.595 0.0
H232 H 0.89659 0.74515 0.61123 0.0
H233 H 0.92022 0.86982 0.48216 0.0
H234 H 0.92057 0.82756 0.42341 0.0
H235 H 0.90602 0.77065 0.44227 0.0
H236 H 0.89102 0.75579 0.52013 0.0
C237 C 0.87508 0.76339 0.60374 0.0
C238 C 0.88675 0.7971 0.59445 0.0
C239 C 0.8963 0.80513 0.54917 0.0
C240 C 0.90456 0.83785 0.53834 0.0
C241 C 0.91342 0.84538 0.49242 0.0
C242 C 0.91383 0.82131 0.45828 0.0
C243 C 0.90566 0.78929 0.46891 0.0
C244 C 0.89706 0.78112 0.51376 0.0
H245 H 0.96287 0.90238 0.59459 0.0
C246 C 0.94137 0.91173 0.56783 0.0
H247 H 0.88747 0.90645 0.5319 0.0
H248 H 0.87109 0.78913 0.6851 0.0
H249 H 0.86955 0.8317 0.74381 0.0
H250 H 0.88367 0.88874 0.72488 0.0
H251 H 0.89952 0.9036 0.64713 0.0
C252 C 0.90853 0.89665 0.55897 0.0
C253 C 0.90358 0.86236 0.57304 0.0
C254 C 0.8949 0.85422 0.61869 0.0
C255 C 0.88648 0.82141 0.62945 0.0
C256 C 0.87747 0.81377 0.6751 0.0
C257 C 0.87654 0.83794 0.70906 0.0
C258 C 0.88452 0.87006 0.6984 0.0
C259 C 0.89359 0.87827 0.65374 0.0
H260 H 0.6782 0.29016 0.03401 0.0
C261 C 0.67302 0.27262 0.00539 0.0
H262 H 0.63578 0.26049 0.9442 0.0
H263 H 0.56251 0.36405 0.09009 0.0
H264 H 0.56113 0.31753 0.1427 0.0
H265 H 0.58394 0.26384 0.12083 0.0
H266 H 0.60846 0.25666 0.04605 0.0
C267 C 0.64169 0.27593 0.97498 0.0
C268 C 0.61701 0.30409 0.98066 0.0
C269 C 0.60119 0.30747 0.02317 0.0
C270 C 0.58784 0.33825 0.03549 0.0
C271 C 0.57343 0.3413 0.07911 0.0
C272 C 0.57227 0.3147 0.10953 0.0
C273 C 0.58511 0.2845 0.09723 0.0
C274 C 0.59931 0.28075 0.05448 0.0
H275 H 0.53323 0.40992 0.98932 0.0
C276 C 0.55471 0.41538 0.01837 0.0
H277 H 0.60713 0.40445 0.05461 0.0
H278 H 0.6373 0.3034 0.89156 0.0
H279 H 0.63498 0.34911 0.83659 0.0
H280 H 0.6119 0.40251 0.8581 0.0
H281 H 0.59121 0.41115 0.93506 0.0
C282 C 0.58644 0.39839 0.02481 0.0
C283 C 0.58997 0.36545 0.00497 0.0
C284 C 0.60132 0.36106 0.9598 0.0
C285 C 0.61464 0.33011 0.94743 0.0
C286 C 0.62697 0.32639 0.90271 0.0
C287 C 0.62576 0.35239 0.87087 0.0
C288 C 0.6128 0.38259 0.88306 0.0
C289 C 0.60097 0.38716 0.92715 0.0
H290 H 0.23543 0.93806 0.30544 0.0
C291 C 0.2184 0.935 0.27139 0.0
H292 H 0.16319 0.937 0.23662 0.0
H293 H 0.10637 0.90711 0.43744 0.0
H294 H 0.11498 0.85093 0.41512 0.0
H295 H 0.14605 0.83785 0.34566 0.0
H296 H 0.16908 0.88088 0.29837 0.0
C297 C 0.18157 0.93859 0.26969 0.0
C298 C 0.16453 0.94639 0.31303 0.0
C299 C 0.15084 0.92103 0.3399 0.0
C300 C 0.13214 0.92861 0.3793 0.0
C301 C 0.11972 0.90274 0.40631 0.0
C302 C 0.12473 0.87039 0.39409 0.0
C303 C 0.14229 0.86302 0.35503 0.0
C304 C 0.15532 0.88794 0.32817 0.0
H305 H 0.05467 0.95121 0.38559 0.0
C306 C 0.06521 0.96337 0.41844 0.0
H307 H 0.11273 0.98321 0.45863 0.0
H308 H 0.18933 0.00062 0.27067 0.0
H309 H 0.18162 0.05677 0.29363 0.0
H310 H 0.14871 0.07002 0.36143 0.0
H311 H 0.12331 0.02723 0.40673 0.0
C312 C 0.10157 0.96987 0.42715 0.0
C313 C 0.1263 0.96162 0.39102 0.0
C314 C 0.14162 0.98691 0.36553 0.0
C315 C 0.16062 0.97928 0.32638 0.0
C316 C 0.1748 0.00505 0.30079 0.0
C317 C 0.17054 0.03738 0.31356 0.0
C318 C 0.15201 0.04484 0.35173 0.0
C319 C 0.13756 0.02003 0.37745 0.0
H320 H 0.71782 0.59789 0.79115 0.0
C321 C 0.70036 0.59434 0.75754 0.0
H322 H 0.64724 0.58134 0.72436 0.0
H323 H 0.61602 0.48766 0.89129 0.0
H324 H 0.6127 0.45115 0.82397 0.0
H325 H 0.62881 0.46999 0.74719 0.0
H326 H 0.64772 0.52569 0.73636 0.0
C327 C 0.66534 0.58443 0.75754 0.0
C328 C 0.65187 0.57428 0.80248 0.0
C329 C 0.64156 0.54144 0.80844 0.0
C330 C 0.63169 0.53064 0.85264 0.0
C331 C 0.62245 0.49744 0.85791 0.0
C332 C 0.62097 0.47608 0.81991 0.0
C333 C 0.62994 0.48675 0.77653 0.0
C334 C 0.64065 0.51889 0.77081 0.0
H335 H 0.56259 0.53443 0.88306 0.0
C336 C 0.57385 0.53735 0.92015 0.0
H337 H 0.62094 0.55038 0.96686 0.0
H338 H 0.66396 0.64008 0.79984 0.0
H339 H 0.66232 0.67794 0.86434 0.0
H340 H 0.64697 0.65914 0.94187 0.0
H341 H 0.63288 0.60254 0.95517 0.0
C342 C 0.60974 0.54453 0.93066 0.0
C343 C 0.63037 0.55309 0.89021 0.0
C344 C 0.64084 0.58602 0.88412 0.0
C345 C 0.65082 0.59676 0.83988 0.0
C346 C 0.65798 0.63031 0.83339 0.0
C347 C 0.6567 0.65242 0.86996 0.0
C348 C 0.64794 0.64184 0.91354 0.0
C349 C 0.63988 0.60916 0.92066 0.0
H350 H 0.80826 0.0951 0.19759 0.0
C351 C 0.83098 0.10279 0.17891 0.0
H352 H 0.88858 0.11182 0.18566 0.0
H353 H 0.9032 0.12296 0.40846 0.0
H354 H 0.90909 0.17959 0.38572 0.0
H355 H 0.89869 0.19638 0.30161 0.0
H356 H 0.88206 0.15671 0.2398 0.0
C357 C 0.86567 0.10169 0.20174 0.0
C358 C 0.8732 0.09106 0.25203 0.0
C359 C 0.88359 0.1145 0.28765 0.0
C360 C 0.89029 0.10474 0.33607 0.0
C361 C 0.89901 0.12886 0.37105 0.0
C362 C 0.90218 0.16151 0.35851 0.0
C363 C 0.89628 0.17097 0.31116 0.0
C364 C 0.88686 0.1479 0.27602 0.0
H365 H 0.95124 0.07607 0.40828 0.0
C366 C 0.9302 0.06144 0.42212 0.0
H367 H 0.875 0.04523 0.41249 0.0
H368 H 0.85622 0.03986 0.19189 0.0
H369 H 0.85222 0.98298 0.21403 0.0
H370 H 0.86489 0.96568 0.29776 0.0
H371 H 0.88148 0.005 0.35969 0.0
C372 C 0.8957 0.06027 0.39865 0.0
C373 C 0.88756 0.07142 0.34852 0.0
C374 C 0.87763 0.04788 0.31267 0.0
C375 C 0.8704 0.05776 0.26437 0.0
C376 C 0.86136 0.03376 0.22921 0.0
C377 C 0.85918 0.00097 0.24138 0.0
C378 C 0.86631 0.99123 0.2885 0.0
C379 C 0.87561 0.01422 0.32381 0.0
H380 H 0.28002 0.40985 0.72027 0.0
C381 C 0.29259 0.41867 0.69002 0.0
H382 H 0.33701 0.44472 0.66712 0.0
H383 H 0.37812 0.53107 0.84706 0.0
H384 H 0.35974 0.57164 0.78663 0.0
H385 H 0.33109 0.55561 0.70683 0.0
H386 H 0.32146 0.49869 0.68689 0.0
C387 C 0.32344 0.43681 0.69703 0.0
C388 C 0.34041 0.4462 0.74528 0.0
C389 C 0.34459 0.4796 0.75673 0.0
C390 C 0.35978 0.4888 0.80323 0.0
C391 C 0.36546 0.52244 0.81297 0.0
C392 C 0.35524 0.54612 0.77842 0.0
C393 C 0.33921 0.5371 0.73348 0.0
C394 C 0.33388 0.50429 0.72254 0.0
H395 H 0.43514 0.45004 0.89192 0.0
C396 C 0.41882 0.46869 0.90643 0.0
H397 H 0.36862 0.494 0.90284 0.0
H398 H 0.34575 0.38023 0.73167 0.0
H399 H 0.36316 0.3393 0.79227 0.0
H400 H 0.38089 0.35499 0.87569 0.0
H401 H 0.38254 0.41181 0.89851 0.0
C402 C 0.38385 0.47496 0.88733 0.0
C403 C 0.36934 0.4645 0.83865 0.0
C404 C 0.3657 0.43108 0.82693 0.0
C405 C 0.35278 0.42195 0.77961 0.0
C406 C 0.35302 0.38851 0.76766 0.0
C407 C 0.36333 0.36474 0.80204 0.0
C408 C 0.3735 0.37358 0.84894 0.0
C409 C 0.37461 0.40633 0.86148 0.0
H410 H 0.70536 0.59249 0.3626 0.0
C411 C 0.68902 0.59768 0.39103 0.0
H412 H 0.63384 0.60105 0.40744 0.0
H413 H 0.58259 0.62471 0.18485 0.0
H414 H 0.56793 0.67714 0.21647 0.0
H415 H 0.5838 0.68895 0.3016 0.0
H416 H 0.61473 0.64838 0.35556 0.0
C417 C 0.65197 0.59643 0.38098 0.0
C418 C 0.63507 0.58713 0.33259 0.0
C419 C 0.61625 0.61072 0.30185 0.0
C420 C 0.60608 0.6035 0.25305 0.0
C421 C 0.58941 0.62829 0.22257 0.0
C422 C 0.58121 0.65865 0.24019 0.0
C423 C 0.59023 0.66533 0.2881 0.0
C424 C 0.60795 0.64187 0.31866 0.0
H425 H 0.54639 0.5742 0.18259 0.0
C426 C 0.56764 0.56183 0.16601 0.0
H427 H 0.62358 0.55038 0.16781 0.0
H428 H 0.66362 0.53459 0.38493 0.0
H429 H 0.67306 0.48032 0.35579 0.0
H430 H 0.65459 0.46701 0.27167 0.0
H431 H 0.62684 0.50763 0.21648 0.0
C432 C 0.60317 0.5634 0.18511 0.0
C433 C 0.61345 0.57211 0.2358 0.0
C434 C 0.62972 0.54768 0.26768 0.0
C435 C 0.64043 0.55523 0.31611 0.0
C436 C 0.65592 0.53035 0.34746 0.0
C437 C 0.66117 0.49899 0.33133 0.0
C438 C 0.65077 0.49151 0.28401 0.0
C439 C 0.63504 0.51532 0.25252 0.0
H440 H 0.7998 0.07159 0.81706 0.0
C441 C 0.81492 0.09425 0.82382 0.0
H442 H 0.8618 0.12131 0.81071 0.0
H443 H 0.95522 0.01257 0.73559 0.0
H444 H 0.98102 0.01014 0.81887 0.0
H445 H 0.9502 0.03826 0.87931 0.0
H446 H 0.89329 0.06875 0.8569 0.0
C447 C 0.84429 0.10037 0.80117 0.0
C448 C 0.85743 0.07741 0.76702 0.0
C449 C 0.89021 0.05934 0.78089 0.0
C450 C 0.90822 0.04355 0.74611 0.0
C451 C 0.94098 0.02563 0.76071 0.0
C452 C 0.95589 0.02388 0.80833 0.0
C453 C 0.93852 0.0397 0.84235 0.0
C454 C 0.906 0.05721 0.82902 0.0
H455 H 0.95302 0.07869 0.68345 0.0
C456 C 0.94837 0.05826 0.65923 0.0
H457 H 0.91278 0.01867 0.63783 0.0
H458 H 0.79212 0.106 0.7296 0.0
H459 H 0.76523 0.10615 0.64683 0.0
H460 H 0.79667 0.0785 0.58656 0.0
H461 H 0.85545 0.05061 0.60879 0.0
C462 C 0.9184 0.03952 0.66093 0.0
C463 C 0.89392 0.04664 0.69749 0.0
C464 C 0.85906 0.0615 0.68426 0.0
C465 C 0.8408 0.07716 0.71912 0.0
C466 C 0.80695 0.09344 0.70465 0.0
C467 C 0.79126 0.09373 0.65727 0.0
C468 C 0.80898 0.07818 0.62331 0.0
C469 C 0.84264 0.06235 0.63643 0.0
H470 H 0.31834 0.4666 0.34173 0.0
C471 C 0.29976 0.44601 0.33418 0.0
H472 H 0.28138 0.41022 0.28341 0.0
H473 H 0.35699 0.51533 0.14777 0.0
H474 H 0.29424 0.53587 0.1312 0.0
H475 H 0.24451 0.51317 0.17251 0.0
H476 H 0.25751 0.46993 0.2313 0.0
C477 C 0.29695 0.43254 0.29102 0.0
C478 C 0.32446 0.44167 0.25928 0.0
C479 C 0.31627 0.46593 0.22399 0.0
C480 C 0.34477 0.47815 0.19902 0.0
C481 C 0.33623 0.50402 0.16623 0.0
C482 C 0.30033 0.51629 0.15673 0.0
C483 C 0.27233 0.50358 0.1801 0.0
C484 C 0.28012 0.47885 0.21369 0.0
H485 H 0.38947 0.46974 0.11438 0.0
C486 C 0.41372 0.47655 0.13868 0.0
H487 H 0.43714 0.48544 0.20867 0.0
H488 H 0.34809 0.39256 0.32186 0.0
H489 H 0.41006 0.37034 0.33717 0.0
H490 H 0.45933 0.39022 0.29273 0.0
H491 H 0.44697 0.43241 0.23302 0.0
C492 C 0.41232 0.47836 0.18549 0.0
C493 C 0.38111 0.46505 0.20852 0.0
C494 C 0.38871 0.43953 0.24244 0.0
C495 C 0.36034 0.42786 0.26779 0.0
C496 C 0.36872 0.40263 0.30188 0.0
C497 C 0.40416 0.38948 0.31088 0.0
C498 C 0.43188 0.40069 0.2859 0.0
C499 C 0.42437 0.42518 0.25185 0.0
H500 H 0.21251 0.9639 0.89496 0.0
C501 C 0.20676 0.94091 0.9118 0.0
H502 H 0.17273 0.89887 0.90546 0.0
H503 H 0.09243 0.01051 0.75142 0.0
H504 H 0.08227 0.04132 0.82093 0.0
H505 H 0.10612 0.02144 0.90118 0.0
H506 H 0.1405 0.97074 0.91232 0.0
C507 C 0.17981 0.92182 0.88986 0.0
C508 C 0.15992 0.93115 0.84244 0.0
C509 C 0.13871 0.96024 0.83671 0.0
C510 C 0.1244 0.97139 0.79052 0.0
C511 C 0.10413 0.00097 0.78569 0.0
C512 C 0.09791 0.01883 0.82531 0.0
C513 C 0.11136 0.00765 0.87047 0.0
C514 C 0.13135 0.97864 0.87634 0.0
H515 H 0.07531 0.94028 0.67766 0.0
C516 C 0.09187 0.96158 0.67194 0.0
H517 H 0.13816 0.99033 0.69718 0.0
H518 H 0.19489 0.87216 0.84131 0.0
H519 H 0.20223 0.84012 0.77186 0.0
H520 H 0.17688 0.8594 0.69181 0.0
H521 H 0.1439 0.91091 0.68073 0.0
C522 C 0.12226 0.96855 0.70258 0.0
C523 C 0.13058 0.9531 0.75018 0.0
C524 C 0.14904 0.92274 0.75609 0.0
C525 C 0.16368 0.91168 0.80234 0.0
C526 C 0.18301 0.88167 0.80712 0.0
C527 C 0.18747 0.86306 0.76753 0.0
C528 C 0.1732 0.87392 0.72244 0.0
C529 C 0.15433 0.90348 0.71655 0.0
loop_
_geom_bond_atom_site_label_1
_geom_bond_atom_site_label_2
_geom_bond_distance
_geom_bond_site_symmetry_2
_ccdc_geom_bond_type
P0 O11 1.490 . S
P0 C14 1.812 . S
P0 C20 1.803 . S
P0 C26 1.819 . S
H1 C15 0.941 . S
H2 C16 0.939 . S
H3 C18 0.940 . S
H4 C19 0.940 . S
H5 C21 0.939 . S
H6 C22 0.942 . S
H7 C24 0.940 . S
H8 C25 0.939 . S
H9 C27 0.941 . S
H10 C31 0.939 . S
O11 P0 1.490 . S
H12 C28 0.939 . S
H13 C30 0.940 . S
C14 P0 1.812 . S
C14 C15 1.389 . S
C14 C19 1.391 . S
C15 H1 0.941 . S
C15 C14 1.389 . S
C15 C16 1.397 . S
C16 H2 0.939 . S
C16 C15 1.397 . S
C16 C17 1.378 . S
C17 C16 1.378 . S
C17 C18 1.378 . S
C18 H3 0.940 . S
C18 C17 1.378 . S
C18 C19 1.396 . S
C19 H4 0.940 . S
C19 C14 1.391 . S
C19 C18 1.396 . S
C20 P0 1.803 . S
C20 C21 1.378 . S
C20 C25 1.400 . S
C21 H5 0.939 . S
C21 C20 1.378 . S
C21 C22 1.361 . S
C22 H6 0.942 . S
C22 C21 1.361 . S
C22 C23 1.369 . S
C23 C22 1.369 . S
C23 C24 1.404 . S
C24 H7 0.940 . S
C24 C23 1.404 . S
C24 C25 1.389 . S
C25 H8 0.939 . S
C25 C20 1.400 . S
C25 C24 1.389 . S
C26 P0 1.819 . S
C26 C27 1.391 . S
C26 C31 1.391 . S
C27 H9 0.941 . S
C27 C26 1.391 . S
C27 C28 1.396 1_554 S
C28 H12 0.939 . S
C28 C27 1.396 1_556 S
C28 C29 1.397 . S
C29 C28 1.397 . S
C29 C30 1.385 . S
C30 H13 0.940 . S
C30 C29 1.385 . S
C30 C31 1.388 1_556 S
C31 H10 0.939 . S
C31 C26 1.391 . S
C31 C30 1.388 1_554 S
P32 O43 1.490 . S
P32 C46 1.812 . S
P32 C52 1.803 . S
P32 C58 1.819 . S
H33 C47 0.941 . S
H34 C48 0.939 . S
H35 C50 0.940 . S
H36 C51 0.940 . S
H37 C53 0.939 . S
H38 C54 0.942 . S
H39 C56 0.940 . S
H40 C57 0.939 . S
H41 C59 0.941 . S
H42 C63 0.939 . S
O43 P32 1.490 . S
H44 C60 0.939 . S
H45 C62 0.940 . S
C46 P32 1.812 . S
C46 C47 1.389 . S
C46 C51 1.391 . S
C47 H33 0.941 . S
C47 C46 1.389 . S
C47 C48 1.397 . S
C48 H34 0.939 . S
C48 C47 1.397 . S
C48 C49 1.378 . S
C49 C48 1.378 . S
C49 C50 1.378 . S
C50 H35 0.940 . S
C50 C49 1.378 . S
C50 C51 1.396 . S
C51 H36 0.940 . S
C51 C46 1.391 . S
C51 C50 1.396 . S
C52 P32 1.803 . S
C52 C53 1.378 . S
C52 C57 1.400 . S
C53 H37 0.939 . S
C53 C52 1.378 . S
C53 C54 1.361 . S
C54 H38 0.942 . S
C54 C53 1.361 . S
C54 C55 1.369 . S
C55 C54 1.369 . S
C55 C56 1.404 . S
C56 H39 0.940 . S
C56 C55 1.404 . S
C56 C57 1.389 . S
C57 H40 0.939 . S
C57 C52 1.400 . S
C57 C56 1.389 . S
C58 P32 1.819 . S
C58 C59 1.391 . S
C58 C63 1.391 . S
C59 H41 0.941 . S
C59 C58 1.391 . S
C59 C60 1.396 . S
C60 H44 0.939 . S
C60 C59 1.396 . S
C60 C61 1.397 . S
C61 C60 1.397 . S
C61 C62 1.385 . S
C62 H45 0.940 . S
C62 C61 1.385 . S
C62 C63 1.388 . S
C63 H42 0.939 . S
C63 C58 1.391 . S
C63 C62 1.388 . S
P64 O75 1.490 . S
P64 C78 1.812 1_554 S
P64 C84 1.803 . S
P64 C90 1.819 . S
H65 C79 0.941 . S
H66 C80 0.939 . S
H67 C82 0.940 . S
H68 C83 0.940 . S
H69 C85 0.939 . S
H70 C86 0.942 . S
H71 C88 0.940 . S
H72 C89 0.939 . S
H73 C91 0.941 . S
H74 C95 0.939 . S
O75 P64 1.490 . S
H76 C92 0.939 . S
H77 C94 0.940 . S
C78 P64 1.812 1_556 S
C78 C79 1.389 . S
C78 C83 1.391 . S
C79 H65 0.941 . S
C79 C78 1.389 . S
C79 C80 1.397 . S
C80 H66 0.939 . S
C80 C79 1.397 . S
C80 C81 1.378 . S
C81 C80 1.378 . S
C81 C82 1.378 . S
C82 H67 0.940 . S
C82 C81 1.378 . S
C82 C83 1.396 . S
C83 H68 0.940 . S
C83 C78 1.391 . S
C83 C82 1.396 . S
C84 P64 1.803 . S
C84 C85 1.378 . S
C84 C89 1.400 1_554 S
C85 H69 0.939 . S
C85 C84 1.378 . S
C85 C86 1.361 . S
C86 H70 0.942 . S
C86 C85 1.361 . S
C86 C87 1.369 1_554 S
C87 C86 1.369 1_556 S
C87 C88 1.404 . S
C88 H71 0.940 . S
C88 C87 1.404 . S
C88 C89 1.389 . S
C89 H72 0.939 . S
C89 C84 1.400 1_556 S
C89 C88 1.389 . S
C90 P64 1.819 . S
C90 C91 1.391 . S
C90 C95 1.391 . S
C91 H73 0.941 . S
C91 C90 1.391 . S
C91 C92 1.396 . S
C92 H76 0.939 . S
C92 C91 1.396 . S
C92 C93 1.397 . S
C93 C92 1.397 . S
C93 C94 1.385 . S
C94 H77 0.940 . S
C94 C93 1.385 . S
C94 C95 1.388 . S
C95 H74 0.939 . S
C95 C90 1.391 . S
C95 C94 1.388 . S
P96 O107 1.490 . S
P96 C110 1.812 . S
P96 C116 1.803 . S
P96 C122 1.819 . S
H97 C111 0.941 . S
H98 C112 0.939 . S
H99 C114 0.940 . S
H100 C115 0.940 . S
H101 C117 0.939 . S
H102 C118 0.942 . S
H103 C120 0.940 . S
H104 C121 0.939 . S
H105 C123 0.941 . S
H106 C127 0.939 . S
O107 P96 1.490 . S
H108 C124 0.939 . S
H109 C126 0.940 . S
C110 P96 1.812 . S
C110 C111 1.389 . S
C110 C115 1.391 . S
C111 H97 0.941 . S
C111 C110 1.389 . S
C111 C112 1.397 . S
C112 H98 0.939 . S
C112 C111 1.397 . S
C112 C113 1.378 . S
C113 C112 1.378 . S
C113 C114 1.378 . S
C114 H99 0.940 . S
C114 C113 1.378 . S
C114 C115 1.396 . S
C115 H100 0.940 . S
C115 C110 1.391 . S
C115 C114 1.396 . S
C116 P96 1.803 . S
C116 C117 1.378 . S
C116 C121 1.400 . S
C117 H101 0.939 . S
C117 C116 1.378 . S
C117 C118 1.361 . S
C118 H102 0.942 . S
C118 C117 1.361 . S
C118 C119 1.369 . S
C119 C118 1.369 . S
C119 C120 1.404 . S
C120 H103 0.940 . S
C120 C119 1.404 . S
C120 C121 1.389 . S
C121 H104 0.939 . S
C121 C116 1.400 . S
C121 C120 1.389 . S
C122 P96 1.819 . S
C122 C123 1.391 . S
C122 C127 1.391 . S
C123 H105 0.941 . S
C123 C122 1.391 . S
C123 C124 1.396 . S
C124 H108 0.939 . S
C124 C123 1.396 . S
C124 C125 1.397 . S
C125 C124 1.397 . S
C125 C126 1.385 . S
C126 H109 0.940 . S
C126 C125 1.385 . S
C126 C127 1.388 . S
C127 H106 0.939 . S
C127 C122 1.391 . S
C127 C126 1.388 . S
O128 Mg129 1.990 1_655 S
O128 C142 1.253 . S
Mg129 O128 1.990 1_455 S
Mg129 O132 2.180 . S
Mg129 O133 2.117 . S
Mg129 O147 2.030 . S
O130 Mg131 2.072 1_655 S
O130 C142 1.260 . S
Mg131 O130 2.072 1_455 S
Mg131 O132 2.099 . S
Mg131 O134 2.079 1_545 S
Mg131 O135 2.072 1_455 S
Mg131 O137 2.099 1_445 S
Mg131 O148 2.079 1_545 S
O132 Mg129 2.180 . S
O132 Mg131 2.099 . S
O132 C143 1.279 . S
O133 Mg129 2.117 . S
O133 C143 1.250 . S
O134 Mg131 2.079 1_565 S
O134 C144 1.264 . S
O135 Mg131 2.072 1_655 S
O135 C145 1.260 . S
Mg136 O137 2.180 . S
Mg136 O138 2.030 1_655 S
Mg136 O139 1.990 1_565 S
Mg136 O140 2.117 . S
O137 Mg131 2.099 1_665 S
O137 Mg136 2.180 . S
O137 C146 1.279 . S
O138 Mg136 2.030 1_455 S
O138 C144 1.248 . S
O139 Mg136 1.990 1_545 S
O139 C145 1.253 . S
O140 Mg136 2.117 . S
O140 C146 1.250 . S
C141 O147 1.248 1_565 S
C141 O148 1.264 . S
C142 O128 1.253 . S
C142 O130 1.260 . S
C143 O132 1.279 . S
C143 O133 1.250 . S
C144 O134 1.264 . S
C144 O138 1.248 . S
C145 O135 1.260 . S
C145 O139 1.253 . S
C146 O137 1.279 . S
C146 O140 1.250 . S
O147 Mg129 2.030 . S
O147 C141 1.248 1_545 S
O148 Mg131 2.079 1_565 S
O148 C141 1.264 . S
O149 Mg150 1.990 . S
O149 C163 1.253 . S
Mg150 O149 1.990 . S
Mg150 O153 2.180 . S
Mg150 O154 2.117 . S
Mg150 O168 2.030 . S
O151 Mg152 2.072 . S
O151 C163 1.260 . S
Mg152 O151 2.072 . S
Mg152 O153 2.099 . S
Mg152 O155 2.079 1_554 S
Mg152 O156 2.072 1_554 S
Mg152 O158 2.099 . S
Mg152 O169 2.079 . S
O153 Mg150 2.180 . S
O153 Mg152 2.099 . S
O153 C164 1.279 . S
O154 Mg150 2.117 . S
O154 C164 1.250 . S
O155 Mg152 2.079 1_556 S
O155 C165 1.264 . S
O156 Mg152 2.072 1_556 S
O156 C166 1.260 . S
Mg157 O158 2.180 1_556 S
Mg157 O159 2.030 . S
Mg157 O160 1.990 . S
Mg157 O161 2.117 . S
O158 Mg152 2.099 . S
O158 Mg157 2.180 1_554 S
O158 C167 1.279 . S
O159 Mg157 2.030 . S
O159 C165 1.248 . S
O160 Mg157 1.990 . S
O160 C166 1.253 . S
O161 Mg157 2.117 . S
O161 C167 1.250 1_556 S
C162 O168 1.248 . S
C162 O169 1.264 . S
C163 O149 1.253 . S
C163 O151 1.260 . S
C164 O153 1.279 . S
C164 O154 1.250 . S
C165 O155 1.264 . S
C165 O159 1.248 . S
C166 O156 1.260 . S
C166 O160 1.253 . S
C167 O158 1.279 . S
C167 O161 1.250 1_554 S
O168 Mg150 2.030 . S
O168 C162 1.248 . S
O169 Mg152 2.079 . S
O169 C162 1.264 . S
H170 C171 0.951 . S
C171 H170 0.951 . S
C171 C177 1.265 . S
H172 C177 0.950 . S
H173 C181 0.949 . S
H174 C182 0.950 . S
H175 C183 0.951 . S
H176 C184 0.951 . S
C177 C171 1.265 . S
C177 H172 0.950 . S
C177 C178 1.478 . S
C178 C177 1.478 . S
C178 C179 1.397 . S
C178 C195 1.394 . S
C179 C178 1.397 . S
C179 C180 1.438 . S
C179 C184 1.429 . S
C180 C179 1.438 . S
C180 C181 1.428 . S
C180 C193 1.394 . S
C181 H173 0.949 . S
C181 C180 1.428 . S
C181 C182 1.345 . S
C182 H174 0.950 . S
C182 C181 1.345 . S
C182 C183 1.424 . S
C183 H175 0.951 . S
C183 C182 1.424 . S
C183 C184 1.347 . S
C184 H176 0.951 . S
C184 C179 1.429 . S
C184 C183 1.347 . S
H185 C186 0.951 . S
C186 H185 0.951 . S
C186 C192 1.265 . S
H187 C192 0.950 . S
H188 C196 0.949 . S
H189 C197 0.950 . S
H190 C198 0.951 . S
H191 C199 0.951 . S
C192 C186 1.265 . S
C192 H187 0.950 . S
C192 C193 1.478 . S
C193 C180 1.394 . S
C193 C192 1.478 . S
C193 C194 1.397 . S
C194 C193 1.397 . S
C194 C195 1.438 . S
C194 C199 1.429 . S
C195 C178 1.394 . S
C195 C194 1.438 . S
C195 C196 1.428 . S
C196 H188 0.949 . S
C196 C195 1.428 . S
C196 C197 1.345 . S
C197 H189 0.950 . S
C197 C196 1.345 . S
C197 C198 1.424 . S
C198 H190 0.951 . S
C198 C197 1.424 . S
C198 C199 1.347 . S
C199 H191 0.951 . S
C199 C194 1.429 . S
C199 C198 1.347 . S
H200 C201 0.951 . S
C201 H200 0.951 . S
C201 C207 1.265 . S
H202 C207 0.950 . S
H203 C211 0.949 . S
H204 C212 0.950 . S
H205 C213 0.951 . S
H206 C214 0.951 . S
C207 C201 1.265 . S
C207 H202 0.950 . S
C207 C208 1.478 . S
C208 C207 1.478 . S
C208 C209 1.397 . S
C208 C225 1.394 . S
C209 C208 1.397 . S
C209 C210 1.438 . S
C209 C214 1.429 1_554 S
C210 C209 1.438 . S
C210 C211 1.428 1_554 S
C210 C223 1.394 . S
C211 H203 0.949 . S
C211 C210 1.428 1_556 S
C211 C212 1.345 . S
C212 H204 0.950 . S
C212 C211 1.345 . S
C212 C213 1.424 . S
C213 H205 0.951 . S
C213 C212 1.424 . S
C213 C214 1.347 . S
C214 H206 0.951 . S
C214 C209 1.429 1_556 S
C214 C213 1.347 . S
H215 C216 0.951 . S
C216 H215 0.951 . S
C216 C222 1.265 . S
H217 C222 0.950 . S
H218 C226 0.949 . S
H219 C227 0.950 . S
H220 C228 0.951 . S
H221 C229 0.951 . S
C222 C216 1.265 . S
C222 H217 0.950 . S
C222 C223 1.478 . S
C223 C210 1.394 . S
C223 C222 1.478 . S
C223 C224 1.397 . S
C224 C223 1.397 . S
C224 C225 1.438 . S
C224 C229 1.429 . S
C225 C208 1.394 . S
C225 C224 1.438 . S
C225 C226 1.428 . S
C226 H218 0.949 . S
C226 C225 1.428 . S
C226 C227 1.345 . S
C227 H219 0.950 . S
C227 C226 1.345 . S
C227 C228 1.424 . S
C228 H220 0.951 . S
C228 C227 1.424 . S
C228 C229 1.347 . S
C229 H221 0.951 . S
C229 C224 1.429 . S
C229 C228 1.347 . S
H230 C231 0.951 . S
C231 H230 0.951 . S
C231 C237 1.265 . S
H232 C237 0.950 . S
H233 C241 0.949 . S
H234 C242 0.950 . S
H235 C243 0.951 . S
H236 C244 0.951 . S
C237 C231 1.265 . S
C237 H232 0.950 . S
C237 C238 1.478 . S
C238 C237 1.478 . S
C238 C239 1.397 . S
C238 C255 1.394 . S
C239 C238 1.397 . S
C239 C240 1.438 . S
C239 C244 1.429 . S
C240 C239 1.438 . S
C240 C241 1.428 . S
C240 C253 1.394 . S
C241 H233 0.949 . S
C241 C240 1.428 . S
C241 C242 1.345 . S
C242 H234 0.950 . S
C242 C241 1.345 . S
C242 C243 1.424 . S
C243 H235 0.951 . S
C243 C242 1.424 . S
C243 C244 1.347 . S
C244 H236 0.951 . S
C244 C239 1.429 . S
C244 C243 1.347 . S
H245 C246 0.951 . S
C246 H245 0.951 . S
C246 C252 1.265 . S
H247 C252 0.950 . S
H248 C256 0.949 . S
H249 C257 0.950 . S
H250 C258 0.951 . S
H251 C259 0.951 . S
C252 C246 1.265 . S
C252 H247 0.950 . S
C252 C253 1.478 . S
C253 C240 1.394 . S
C253 C252 1.478 . S
C253 C254 1.397 . S
C254 C253 1.397 . S
C254 C255 1.438 . S
C254 C259 1.429 . S
C255 C238 1.394 . S
C255 C254 1.438 . S
C255 C256 1.428 . S
C256 H248 0.949 . S
C256 C255 1.428 . S
C256 C257 1.345 . S
C257 H249 0.950 . S
C257 C256 1.345 . S
C257 C258 1.424 . S
C258 H250 0.951 . S
C258 C257 1.424 . S
C258 C259 1.347 . S
C259 H251 0.951 . S
C259 C254 1.429 . S
C259 C258 1.347 . S
H260 C261 0.949 1_556 S
C261 H260 0.949 1_554 S
C261 C267 1.265 . S
H262 C267 0.950 . S
H263 C271 0.949 . S
H264 C272 0.950 . S
H265 C273 0.951 . S
H266 C274 0.951 . S
C267 C261 1.265 . S
C267 H262 0.950 . S
C267 C268 1.478 . S
C268 C267 1.478 . S
C268 C269 1.397 . S
C268 C285 1.394 1_554 S
C269 C268 1.397 . S
C269 C270 1.438 . S
C269 C274 1.429 . S
C270 C269 1.438 . S
C270 C271 1.428 . S
C270 C283 1.394 . S
C271 H263 0.949 . S
C271 C270 1.428 . S
C271 C272 1.345 . S
C272 H264 0.950 . S
C272 C271 1.345 . S
C272 C273 1.424 . S
C273 H265 0.951 . S
C273 C272 1.424 . S
C273 C274 1.347 . S
C274 H266 0.951 . S
C274 C269 1.429 . S
C274 C273 1.347 . S
H275 C276 0.951 . S
C276 H275 0.951 . S
C276 C282 1.265 . S
H277 C282 0.950 . S
H278 C286 0.949 . S
H279 C287 0.950 . S
H280 C288 0.951 . S
H281 C289 0.951 . S
C282 C276 1.265 . S
C282 H277 0.950 . S
C282 C283 1.478 . S
C283 C270 1.394 . S
C283 C282 1.478 . S
C283 C284 1.397 1_554 S
C284 C283 1.397 1_556 S
C284 C285 1.438 . S
C284 C289 1.429 . S
C285 C268 1.394 1_556 S
C285 C284 1.438 . S
C285 C286 1.428 . S
C286 H278 0.949 . S
C286 C285 1.428 . S
C286 C287 1.345 . S
C287 H279 0.950 . S
C287 C286 1.345 . S
C287 C288 1.424 . S
C288 H280 0.951 . S
C288 C287 1.424 . S
C288 C289 1.347 . S
C289 H281 0.951 . S
C289 C284 1.429 . S
C289 C288 1.347 . S
H290 C291 0.951 . S
C291 H290 0.951 . S
C291 C297 1.265 . S
H292 C297 0.950 . S
H293 C301 0.949 . S
H294 C302 0.950 . S
H295 C303 0.951 . S
H296 C304 0.951 . S
C297 C291 1.265 . S
C297 H292 0.950 . S
C297 C298 1.478 . S
C298 C297 1.478 . S
C298 C299 1.397 . S
C298 C315 1.394 . S
C299 C298 1.397 . S
C299 C300 1.438 . S
C299 C304 1.429 . S
C300 C299 1.438 . S
C300 C301 1.428 . S
C300 C313 1.394 . S
C301 H293 0.949 . S
C301 C300 1.428 . S
C301 C302 1.345 . S
C302 H294 0.950 . S
C302 C301 1.345 . S
C302 C303 1.424 . S
C303 H295 0.951 . S
C303 C302 1.424 . S
C303 C304 1.347 . S
C304 H296 0.951 . S
C304 C299 1.429 . S
C304 C303 1.347 . S
H305 C306 0.951 . S
C306 H305 0.951 . S
C306 C312 1.265 . S
H307 C312 0.950 . S
H308 C316 0.949 1_565 S
H309 C317 0.950 . S
H310 C318 0.951 . S
H311 C319 0.951 . S
C312 C306 1.265 . S
C312 H307 0.950 . S
C312 C313 1.478 . S
C313 C300 1.394 . S
C313 C312 1.478 . S
C313 C314 1.397 . S
C314 C313 1.397 . S
C314 C315 1.438 . S
C314 C319 1.429 1_565 S
C315 C298 1.394 . S
C315 C314 1.438 . S
C315 C316 1.428 1_565 S
C316 H308 0.949 1_545 S
C316 C315 1.428 1_545 S
C316 C317 1.345 . S
C317 H309 0.950 . S
C317 C316 1.345 . S
C317 C318 1.424 . S
C318 H310 0.951 . S
C318 C317 1.424 . S
C318 C319 1.347 . S
C319 H311 0.951 . S
C319 C314 1.429 1_545 S
C319 C318 1.347 . S
H320 C321 0.951 . S
C321 H320 0.951 . S
C321 C327 1.265 . S
H322 C327 0.950 . S
H323 C331 0.949 . S
H324 C332 0.950 . S
H325 C333 0.951 . S
H326 C334 0.951 . S
C327 C321 1.265 . S
C327 H322 0.950 . S
C327 C328 1.478 . S
C328 C327 1.478 . S
C328 C329 1.397 . S
C328 C345 1.394 . S
C329 C328 1.397 . S
C329 C330 1.438 . S
C329 C334 1.429 . S
C330 C329 1.438 . S
C330 C331 1.428 . S
C330 C343 1.394 . S
C331 H323 0.949 . S
C331 C330 1.428 . S
C331 C332 1.345 . S
C332 H324 0.950 . S
C332 C331 1.345 . S
C332 C333 1.424 . S
C333 H325 0.951 . S
C333 C332 1.424 . S
C333 C334 1.347 . S
C334 H326 0.951 . S
C334 C329 1.429 . S
C334 C333 1.347 . S
H335 C336 0.951 . S
C336 H335 0.951 . S
C336 C342 1.265 . S
H337 C342 0.950 . S
H338 C346 0.949 . S
H339 C347 0.950 . S
H340 C348 0.951 . S
H341 C349 0.951 . S
C342 C336 1.265 . S
C342 H337 0.950 . S
C342 C343 1.478 . S
C343 C330 1.394 . S
C343 C342 1.478 . S
C343 C344 1.397 . S
C344 C343 1.397 . S
C344 C345 1.438 . S
C344 C349 1.429 . S
C345 C328 1.394 . S
C345 C344 1.438 . S
C345 C346 1.428 . S
C346 H338 0.949 . S
C346 C345 1.428 . S
C346 C347 1.345 . S
C347 H339 0.950 . S
C347 C346 1.345 . S
C347 C348 1.424 . S
C348 H340 0.951 . S
C348 C347 1.424 . S
C348 C349 1.347 . S
C349 H341 0.951 . S
C349 C344 1.429 . S
C349 C348 1.347 . S
H350 C351 0.951 . S
C351 H350 0.951 . S
C351 C357 1.265 . S
H352 C357 0.950 . S
H353 C361 0.949 . S
H354 C362 0.950 . S
H355 C363 0.951 . S
H356 C364 0.951 . S
C357 C351 1.265 . S
C357 H352 0.950 . S
C357 C358 1.478 . S
C358 C357 1.478 . S
C358 C359 1.397 . S
C358 C375 1.394 . S
C359 C358 1.397 . S
C359 C360 1.438 . S
C359 C364 1.429 . S
C360 C359 1.438 . S
C360 C361 1.428 . S
C360 C373 1.394 . S
C361 H353 0.949 . S
C361 C360 1.428 . S
C361 C362 1.345 . S
C362 H354 0.950 . S
C362 C361 1.345 . S
C362 C363 1.424 . S
C363 H355 0.951 . S
C363 C362 1.424 . S
C363 C364 1.347 . S
C364 H356 0.951 . S
C364 C359 1.429 . S
C364 C363 1.347 . S
H365 C366 0.951 . S
C366 H365 0.951 . S
C366 C372 1.265 . S
H367 C372 0.950 . S
H368 C376 0.949 . S
H369 C377 0.950 . S
H370 C378 0.951 . S
H371 C379 0.951 1_565 S
C372 C366 1.265 . S
C372 H367 0.950 . S
C372 C373 1.478 . S
C373 C360 1.394 . S
C373 C372 1.478 . S
C373 C374 1.397 . S
C374 C373 1.397 . S
C374 C375 1.438 . S
C374 C379 1.429 . S
C375 C358 1.394 . S
C375 C374 1.438 . S
C375 C376 1.428 . S
C376 H368 0.949 . S
C376 C375 1.428 . S
C376 C377 1.345 1_545 S
C377 H369 0.950 . S
C377 C376 1.345 1_565 S
C377 C378 1.424 . S
C378 H370 0.951 . S
C378 C377 1.424 . S
C378 C379 1.347 1_565 S
C379 H371 0.951 1_545 S
C379 C374 1.429 . S
C379 C378 1.347 1_545 S
H380 C381 0.951 . S
C381 H380 0.951 . S
C381 C387 1.265 . S
H382 C387 0.950 . S
H383 C391 0.949 . S
H384 C392 0.950 . S
H385 C393 0.951 . S
H386 C394 0.951 . S
C387 C381 1.265 . S
C387 H382 0.950 . S
C387 C388 1.478 . S
C388 C387 1.478 . S
C388 C389 1.397 . S
C388 C405 1.394 . S
C389 C388 1.397 . S
C389 C390 1.438 . S
C389 C394 1.429 . S
C390 C389 1.438 . S
C390 C391 1.428 . S
C390 C403 1.394 . S
C391 H383 0.949 . S
C391 C390 1.428 . S
C391 C392 1.345 . S
C392 H384 0.950 . S
C392 C391 1.345 . S
C392 C393 1.424 . S
C393 H385 0.951 . S
C393 C392 1.424 . S
C393 C394 1.347 . S
C394 H386 0.951 . S
C394 C389 1.429 . S
C394 C393 1.347 . S
H395 C396 0.951 . S
C396 H395 0.951 . S
C396 C402 1.265 . S
H397 C402 0.950 . S
H398 C406 0.949 . S
H399 C407 0.950 . S
H400 C408 0.951 . S
H401 C409 0.951 . S
C402 C396 1.265 . S
C402 H397 0.950 . S
C402 C403 1.478 . S
C403 C390 1.394 . S
C403 C402 1.478 . S
C403 C404 1.397 . S
C404 C403 1.397 . S
C404 C405 1.438 . S
C404 C409 1.429 . S
C405 C388 1.394 . S
C405 C404 1.438 . S
C405 C406 1.428 . S
C406 H398 0.949 . S
C406 C405 1.428 . S
C406 C407 1.345 . S
C407 H399 0.950 . S
C407 C406 1.345 . S
C407 C408 1.424 . S
C408 H400 0.951 . S
C408 C407 1.424 . S
C408 C409 1.347 . S
C409 H401 0.951 . S
C409 C404 1.429 . S
C409 C408 1.347 . S
H410 C411 0.951 . S
C411 H410 0.951 . S
C411 C417 1.265 . S
H412 C417 0.950 . S
H413 C421 0.949 . S
H414 C422 0.950 . S
H415 C423 0.951 . S
H416 C424 0.951 . S
C417 C411 1.265 . S
C417 H412 0.950 . S
C417 C418 1.478 . S
C418 C417 1.478 . S
C418 C419 1.397 . S
C418 C435 1.394 . S
C419 C418 1.397 . S
C419 C420 1.438 . S
C419 C424 1.429 . S
C420 C419 1.438 . S
C420 C421 1.428 . S
C420 C433 1.394 . S
C421 H413 0.949 . S
C421 C420 1.428 . S
C421 C422 1.345 . S
C422 H414 0.950 . S
C422 C421 1.345 . S
C422 C423 1.424 . S
C423 H415 0.951 . S
C423 C422 1.424 . S
C423 C424 1.347 . S
C424 H416 0.951 . S
C424 C419 1.429 . S
C424 C423 1.347 . S
H425 C426 0.951 . S
C426 H425 0.951 . S
C426 C432 1.265 . S
H427 C432 0.950 . S
H428 C436 0.949 . S
H429 C437 0.950 . S
H430 C438 0.951 . S
H431 C439 0.951 . S
C432 C426 1.265 . S
C432 H427 0.950 . S
C432 C433 1.478 . S
C433 C420 1.394 . S
C433 C432 1.478 . S
C433 C434 1.397 . S
C434 C433 1.397 . S
C434 C435 1.438 . S
C434 C439 1.429 . S
C435 C418 1.394 . S
C435 C434 1.438 . S
C435 C436 1.428 . S
C436 H428 0.949 . S
C436 C435 1.428 . S
C436 C437 1.345 . S
C437 H429 0.950 . S
C437 C436 1.345 . S
C437 C438 1.424 . S
C438 H430 0.951 . S
C438 C437 1.424 . S
C438 C439 1.347 . S
C439 H431 0.951 . S
C439 C434 1.429 . S
C439 C438 1.347 . S
H440 C441 0.951 . S
C441 H440 0.951 . S
C441 C447 1.265 . S
H442 C447 0.950 . S
H443 C451 0.949 . S
H444 C452 0.950 . S
H445 C453 0.951 . S
H446 C454 0.951 . S
C447 C441 1.265 . S
C447 H442 0.950 . S
C447 C448 1.478 . S
C448 C447 1.478 . S
C448 C449 1.397 . S
C448 C465 1.394 . S
C449 C448 1.397 . S
C449 C450 1.438 . S
C449 C454 1.429 . S
C450 C449 1.438 . S
C450 C451 1.428 . S
C450 C463 1.394 . S
C451 H443 0.949 . S
C451 C450 1.428 . S
C451 C452 1.345 . S
C452 H444 0.950 . S
C452 C451 1.345 . S
C452 C453 1.424 . S
C453 H445 0.951 . S
C453 C452 1.424 . S
C453 C454 1.347 . S
C454 H446 0.951 . S
C454 C449 1.429 . S
C454 C453 1.347 . S
H455 C456 0.951 . S
C456 H455 0.951 . S
C456 C462 1.265 . S
H457 C462 0.950 . S
H458 C466 0.949 . S
H459 C467 0.950 . S
H460 C468 0.951 . S
H461 C469 0.951 . S
C462 C456 1.265 . S
C462 H457 0.950 . S
C462 C463 1.478 . S
C463 C450 1.394 . S
C463 C462 1.478 . S
C463 C464 1.397 . S
C464 C463 1.397 . S
C464 C465 1.438 . S
C464 C469 1.429 . S
C465 C448 1.394 . S
C465 C464 1.438 . S
C465 C466 1.428 . S
C466 H458 0.949 . S
C466 C465 1.428 . S
C466 C467 1.345 . S
C467 H459 0.950 . S
C467 C466 1.345 . S
C467 C468 1.424 . S
C468 H460 0.951 . S
C468 C467 1.424 . S
C468 C469 1.347 . S
C469 H461 0.951 . S
C469 C464 1.429 . S
C469 C468 1.347 . S
H470 C471 0.951 . S
C471 H470 0.951 . S
C471 C477 1.265 . S
H472 C477 0.950 . S
H473 C481 0.949 . S
H474 C482 0.950 . S
H475 C483 0.951 . S
H476 C484 0.951 . S
C477 C471 1.265 . S
C477 H472 0.950 . S
C477 C478 1.478 . S
C478 C477 1.478 . S
C478 C479 1.397 . S
C478 C495 1.394 . S
C479 C478 1.397 . S
C479 C480 1.438 . S
C479 C484 1.429 . S
C480 C479 1.438 . S
C480 C481 1.428 . S
C480 C493 1.394 . S
C481 H473 0.949 . S
C481 C480 1.428 . S
C481 C482 1.345 . S
C482 H474 0.950 . S
C482 C481 1.345 . S
C482 C483 1.424 . S
C483 H475 0.951 . S
C483 C482 1.424 . S
C483 C484 1.347 . S
C484 H476 0.951 . S
C484 C479 1.429 . S
C484 C483 1.347 . S
H485 C486 0.951 . S
C486 H485 0.951 . S
C486 C492 1.265 . S
H487 C492 0.950 . S
H488 C496 0.949 . S
H489 C497 0.950 . S
H490 C498 0.951 . S
H491 C499 0.951 . S
C492 C486 1.265 . S
C492 H487 0.950 . S
C492 C493 1.478 . S
C493 C480 1.394 . S
C493 C492 1.478 . S
C493 C494 1.397 . S
C494 C493 1.397 . S
C494 C495 1.438 . S
C494 C499 1.429 . S
C495 C478 1.394 . S
C495 C494 1.438 . S
C495 C496 1.428 . S
C496 H488 0.949 . S
C496 C495 1.428 . S
C496 C497 1.345 . S
C497 H489 0.950 . S
C497 C496 1.345 . S
C497 C498 1.424 . S
C498 H490 0.951 . S
C498 C497 1.424 . S
C498 C499 1.347 . S
C499 H491 0.951 . S
C499 C494 1.429 . S
C499 C498 1.347 . S
H500 C501 0.951 . S
C501 H500 0.951 . S
C501 C507 1.265 . S
H502 C507 0.950 . S
H503 C511 0.949 . S
H504 C512 0.950 . S
H505 C513 0.951 . S
H506 C514 0.951 1_565 S
C507 C501 1.265 . S
C507 H502 0.950 . S
C507 C508 1.478 . S
C508 C507 1.478 . S
C508 C509 1.397 . S
C508 C525 1.394 . S
C509 C508 1.397 . S
C509 C510 1.438 . S
C509 C514 1.429 1_565 S
C510 C509 1.438 . S
C510 C511 1.428 1_565 S
C510 C523 1.394 . S
C511 H503 0.949 . S
C511 C510 1.428 1_545 S
C511 C512 1.345 . S
C512 H504 0.950 . S
C512 C511 1.345 . S
C512 C513 1.424 . S
C513 H505 0.951 . S
C513 C512 1.424 . S
C513 C514 1.347 . S
C514 H506 0.951 1_545 S
C514 C509 1.429 1_545 S
C514 C513 1.347 . S
H515 C516 0.951 . S
C516 H515 0.951 . S
C516 C522 1.265 . S
H517 C522 0.950 . S
H518 C526 0.949 . S
H519 C527 0.950 . S
H520 C528 0.951 . S
H521 C529 0.951 . S
C522 C516 1.265 . S
C522 H517 0.950 . S
C522 C523 1.478 . S
C523 C510 1.394 . S
C523 C522 1.478 . S
C523 C524 1.397 . S
C524 C523 1.397 . S
C524 C525 1.438 . S
C524 C529 1.429 . S
C525 C508 1.394 . S
C525 C524 1.438 . S
C525 C526 1.428 . S
C526 H518 0.949 . S
C526 C525 1.428 . S
C526 C527 1.345 . S
C527 H519 0.950 . S
C527 C526 1.345 . S
C527 C528 1.424 . S
C528 H520 0.951 . S
C528 C527 1.424 . S
C528 C529 1.347 . S
C529 H521 0.951 . S
C529 C524 1.429 . S
C529 C528 1.347 . S
C186 C143 1.297 . S
C171 C119 1.346 . S
C201 C23 1.486 . S
C216 C167 1.308 . S
C231 C55 1.640 . S
C246 C146 1.404 . S
C261 C87 1.501 1_554 S
C276 C164 1.406 . S
C306 C144 1.496 . S
C291 C17 1.566 . S
C336 C166 1.497 . S
C321 C61 1.566 . S
C351 C93 1.524 . S
C366 C145 1.514 . S
C381 C113 1.484 . S
C396 C165 1.456 . S
C426 C163 1.501 . S
C411 C49 1.549 . S
C456 C142 1.478 . S
C441 C81 1.563 . S
C486 C162 1.555 . S
C471 C125 1.458 . S
C501 C29 1.550 . S
C516 C141 1.483 . S
