# Generated by pormake.
# Topology anh, (6,3)-cn, num edge types: 1
# Building blocks:
#     Node 0, Type 0, BuildingBlock: BETDEL_clean_sbu_0, # of connection points: 6
#     Node 1, Type 0, BuildingBlock: BETDEL_clean_sbu_0, # of connection points: 6
#     Node 2, Type 0, BuildingBlock: BETDEL_clean_sbu_0, # of connection points: 6
#     Node 3, Type 1, BuildingBlock: ESEHIV_clean_linker_0, # of connection points: 3
#     Node 4, Type 1, BuildingBlock: ESEHIV_clean_linker_0, # of connection points: 3
#     Node 5, Type 1, BuildingBlock: ESEHIV_clean_linker_0, # of connection points: 3
#     Node 6, Type 1, BuildingBlock: ESEHIV_clean_linker_0, # of connection points: 3
#     Node 7, Type 1, BuildingBlock: ESEHIV_clean_linker_0, # of connection points: 3
#     Node 8, Type 1, BuildingBlock: ESEHIV_clean_linker_0, # of connection points: 3
#     Edge 9, Type (0, 1), BuildingBlock: ZUJKAS_clean_linker_0, # of connection points: 2
#     Edge 10, Type (0, 1), BuildingBlock: ZUJKAS_clean_linker_0, # of connection points: 2
#     Edge 11, Type (0, 1), BuildingBlock: ZUJKAS_clean_linker_0, # of connection points: 2
#     Edge 12, Type (0, 1), BuildingBlock: ZUJKAS_clean_linker_0, # of connection points: 2
#     Edge 13, Type (0, 1), BuildingBlock: ZUJKAS_clean_linker_0, # of connection points: 2
#     Edge 14, Type (0, 1), BuildingBlock: ZUJKAS_clean_linker_0, # of connection points: 2
#     Edge 15, Type (0, 1), BuildingBlock: ZUJKAS_clean_linker_0, # of connection points: 2
#     Edge 16, Type (0, 1), BuildingBlock: ZUJKAS_clean_linker_0, # of connection points: 2
#     Edge 17, Type (0, 1), BuildingBlock: ZUJKAS_clean_linker_0, # of connection points: 2
#     Edge 18, Type (0, 1), BuildingBlock: ZUJKAS_clean_linker_0, # of connection points: 2
#     Edge 19, Type (0, 1), BuildingBlock: ZUJKAS_clean_linker_0, # of connection points: 2
#     Edge 20, Type (0, 1), BuildingBlock: ZUJKAS_clean_linker_0, # of connection points: 2
#     Edge 21, Type (0, 1), BuildingBlock: ZUJKAS_clean_linker_0, # of connection points: 2
#     Edge 22, Type (0, 1), BuildingBlock: ZUJKAS_clean_linker_0, # of connection points: 2
#     Edge 23, Type (0, 1), BuildingBlock: ZUJKAS_clean_linker_0, # of connection points: 2
#     Edge 24, Type (0, 1), BuildingBlock: ZUJKAS_clean_linker_0, # of connection points: 2
#     Edge 25, Type (0, 1), BuildingBlock: ZUJKAS_clean_linker_0, # of connection points: 2
#     Edge 26, Type (0, 1), BuildingBlock: ZUJKAS_clean_linker_0, # of connection points: 2
# Relax obj value: 0.140
# Max RMSD: 0.165
# Mean RMSD: 0.132
data_MOF--net-anh--node1-BETDEL_clean_sbu_0--node2-ESEHIV_clean_linker_0--edge1-ZUJKAS_clean_linker_0
_symmetry_space_group_name_H-M    P1
_symmetry_Int_Tables_number       1
_symmetry_cell_setting            triclinic
loop_
_symmetry_equiv_pos_as_xyz
'x, y, z'
_cell_length_a     36.842589
_cell_length_b     36.927473
_cell_length_c     66.41297
_cell_angle_alpha  89.864333
_cell_angle_beta   90.01416
_cell_angle_gamma 120.13645
loop_
_atom_site_label
_atom_site_type_symbol
_atom_site_fract_x
_atom_site_fract_y
_atom_site_fract_z
_atom_type_partial_charge
Dy0 Dy 0.05086 0.49208 0.15896 0.0
C1 C 0.9554 0.57383 0.1668 0.0
C2 C 0.10684 0.46563 0.15189 0.0
Dy3 Dy 0.0012 0.53558 0.15982 0.0
O4 O 0.10289 0.48122 0.16865 0.0
O5 O 0.0797 0.46394 0.13882 0.0
O6 O 0.0236 0.46136 0.18853 0.0
O7 O 0.03462 0.52215 0.18285 0.0
C8 C 0.01951 0.49212 0.19522 0.0
C9 C 0.00735 0.5084 0.12283 0.0
O10 O 0.0656 0.5932 0.1639 0.0
O11 O 0.10422 0.55951 0.16107 0.0
O12 O 0.98238 0.58334 0.15226 0.0
O13 O 0.95478 0.54451 0.1779 0.0
O14 O 0.97427 0.50805 0.12963 0.0
O15 O 0.03616 0.52489 0.13579 0.0
O16 O 0.98509 0.43661 0.15368 0.0
O17 O 0.9513 0.46912 0.16728 0.0
C18 C 0.10232 0.59433 0.16347 0.0
C19 C 0.95047 0.43459 0.16107 0.0
Dy20 Dy 0.47415 0.02051 0.49194 0.0
C21 C 0.6473 0.12212 0.50683 0.0
C22 C 0.39301 0.96658 0.4809 0.0
Dy23 Dy 0.56585 0.0669 0.49653 0.0
O24 O 0.40568 0.97971 0.49902 0.0
O25 O 0.42468 0.98345 0.46858 0.0
O26 O 0.46651 0.04274 0.52198 0.0
O27 O 0.5156 0.0299 0.51749 0.0
C28 C 0.49944 0.04393 0.52971 0.0
C29 C 0.54093 0.04528 0.4581 0.0
O30 O 0.55566 0.00348 0.5057 0.0
O31 O 0.48927 0.96734 0.49204 0.0
O32 O 0.63548 0.09415 0.49277 0.0
O33 O 0.61451 0.11924 0.51559 0.0
O34 O 0.57373 0.04667 0.46598 0.0
O35 O 0.52442 0.05845 0.47066 0.0
O36 O 0.48234 0.0853 0.48817 0.0
O37 O 0.55133 0.11983 0.49882 0.0
C38 C 0.52275 0.96759 0.49984 0.0
C39 C 0.51654 0.12028 0.49398 0.0
Dy40 Dy 0.57916 0.59276 0.82417 0.0
C41 C 0.50454 0.41577 0.84284 0.0
C42 C 0.60413 0.67421 0.81546 0.0
Dy43 Dy 0.53152 0.49458 0.82858 0.0
O44 O 0.59584 0.65756 0.83328 0.0
O45 O 0.59945 0.64636 0.80213 0.0
O46 O 0.60798 0.59734 0.8544 0.0
O47 O 0.5473 0.54735 0.84822 0.0
C48 C 0.57657 0.56246 0.86098 0.0
C49 C 0.54272 0.51622 0.78907 0.0
O50 O 0.47706 0.50542 0.8344 0.0
O51 O 0.51014 0.57553 0.82446 0.0
O52 O 0.48558 0.4254 0.82911 0.0
O53 O 0.53733 0.44957 0.84931 0.0
O54 O 0.52317 0.47785 0.79551 0.0
O55 O 0.55456 0.5398 0.80423 0.0
O56 O 0.63424 0.58225 0.81951 0.0
O57 O 0.60039 0.51331 0.83115 0.0
C58 C 0.47581 0.54017 0.83022 0.0
C59 C 0.63521 0.54825 0.82563 0.0
H60 H 0.46366 0.9602 0.2386 0.0
H61 H 0.57783 0.07912 0.23897 0.0
H62 H 0.52578 0.01659 0.18253 0.0
C63 C 0.48922 0.98579 0.23047 0.0
C64 C 0.49038 0.98386 0.20933 0.0
C65 C 0.5205 0.01988 0.24127 0.0
C66 C 0.55376 0.05277 0.23064 0.0
C67 C 0.55654 0.05249 0.20947 0.0
C68 C 0.52443 0.01751 0.19879 0.0
H69 H 0.53673 0.60867 0.57128 0.0
H70 H 0.53928 0.49394 0.57076 0.0
H71 H 0.52324 0.54479 0.51495 0.0
C72 C 0.5348 0.58257 0.5629 0.0
C73 C 0.52995 0.58133 0.54184 0.0
C74 C 0.53817 0.55135 0.57335 0.0
C75 C 0.53671 0.518 0.56257 0.0
C76 C 0.53096 0.51451 0.54152 0.0
C77 C 0.52695 0.54635 0.53115 0.0
H78 H 0.99521 0.54101 0.90444 0.0
H79 H 0.1062 0.531 0.90366 0.0
H80 H 0.05627 0.54781 0.84788 0.0
C81 C 0.02058 0.54131 0.89605 0.0
C82 C 0.02179 0.54592 0.87492 0.0
C83 C 0.05059 0.53579 0.90655 0.0
C84 C 0.08251 0.53445 0.89561 0.0
C85 C 0.0853 0.53862 0.8745 0.0
C86 C 0.05461 0.54445 0.86411 0.0
H87 H 0.94649 0.47122 0.41418 0.0
H88 H 0.03537 0.60173 0.4055 0.0
H89 H 0.00327 0.55066 0.4655 0.0
C90 C 0.96783 0.50189 0.42034 0.0
C91 C 0.97273 0.50687 0.44129 0.0
C92 C 0.98981 0.53604 0.40731 0.0
C93 C 0.01678 0.57564 0.41551 0.0
C94 C 0.02191 0.5814 0.43646 0.0
C95 C 0.99943 0.54678 0.44932 0.0
H96 H 0.56064 0.12758 0.7498 0.0
H97 H 0.57809 0.02266 0.73968 0.0
H98 H 0.57396 0.06126 0.80023 0.0
C99 C 0.56559 0.10305 0.75575 0.0
C100 C 0.56711 0.09818 0.77673 0.0
C101 C 0.57005 0.0763 0.7423 0.0
C102 C 0.57532 0.04389 0.74998 0.0
C103 C 0.57639 0.03803 0.77079 0.0
C104 C 0.57279 0.06556 0.78414 0.0
H105 H 0.46422 0.46805 0.07479 0.0
H106 H 0.598 0.52209 0.07732 0.0
H107 H 0.52771 0.50333 0.13192 0.0
C108 C 0.49289 0.48047 0.08349 0.0
C109 C 0.49125 0.48371 0.1045 0.0
C110 C 0.53121 0.49446 0.07352 0.0
C111 C 0.56819 0.511 0.0849 0.0
C112 C 0.56728 0.51414 0.10596 0.0
C113 C 0.52862 0.50042 0.11572 0.0
H114 H 0.12852 0.44558 0.11595 0.0
H115 H 0.19008 0.43821 0.10921 0.0
H116 H 0.22318 0.45844 0.17213 0.0
H117 H 0.1619 0.46553 0.17893 0.0
H118 H 0.27239 0.50195 0.11661 0.0
H119 H 0.23712 0.35775 0.15846 0.0
H120 H 0.19711 0.37024 0.15176 0.0
H121 H 0.23045 0.3948 0.17313 0.0
C122 C 0.14852 0.44758 0.12836 0.0
C123 C 0.14054 0.45611 0.14794 0.0
C124 C 0.18363 0.44345 0.12452 0.0
C125 C 0.2109 0.44729 0.14023 0.0
C126 C 0.20213 0.4545 0.15987 0.0
H127 H 0.47556 0.53022 0.13126 0.0
H128 H 0.40665 0.51863 0.14162 0.0
C129 C 0.16724 0.45881 0.1637 0.0
C130 C 0.25071 0.44802 0.13589 0.0
H131 H 0.30836 0.40195 0.14807 0.0
C132 C 0.28012 0.47988 0.12335 0.0
C133 C 0.26064 0.41912 0.14468 0.0
C134 C 0.22954 0.38329 0.15762 0.0
C135 C 0.31961 0.48424 0.11972 0.0
C136 C 0.33013 0.45629 0.12909 0.0
C137 C 0.30037 0.42372 0.1412 0.0
C138 C 0.37152 0.4599 0.12575 0.0
C139 C 0.34972 0.51857 0.10577 0.0
C140 C 0.37443 0.42967 0.11426 0.0
C141 C 0.41367 0.4361 0.10842 0.0
C142 C 0.45062 0.4728 0.11407 0.0
C143 C 0.44766 0.50157 0.12678 0.0
C144 C 0.40836 0.49518 0.13256 0.0
H145 H 0.33379 0.53172 0.09663 0.0
H146 H 0.37456 0.54432 0.11482 0.0
H147 H 0.36515 0.50677 0.09545 0.0
H148 H 0.34632 0.40214 0.10897 0.0
H149 H 0.41509 0.41322 0.09878 0.0
H150 H 0.7178 0.13252 0.48849 0.0
H151 H 0.78399 0.19841 0.48448 0.0
H152 H 0.73883 0.25958 0.52412 0.0
H153 H 0.67281 0.19353 0.52846 0.0
H154 H 0.77779 0.26316 0.46685 0.0
H155 H 0.86381 0.31529 0.53935 0.0
H156 H 0.82481 0.26132 0.53447 0.0
H157 H 0.80888 0.29861 0.54073 0.0
C158 C 0.7226 0.15966 0.49692 0.0
C159 C 0.69017 0.15813 0.50864 0.0
C160 C 0.7604 0.19726 0.49462 0.0
C161 C 0.76636 0.23387 0.50402 0.0
C162 C 0.73523 0.2316 0.51701 0.0
H163 H 0.92234 0.4969 0.47358 0.0
H164 H 0.87553 0.43103 0.49131 0.0
C165 C 0.69743 0.19387 0.5194 0.0
C166 C 0.80105 0.27505 0.49728 0.0
H167 H 0.88642 0.36615 0.51295 0.0
C168 C 0.8018 0.28546 0.47691 0.0
C169 C 0.83179 0.30435 0.51052 0.0
C170 C 0.83265 0.29434 0.53247 0.0
C171 C 0.83222 0.32444 0.46937 0.0
C172 C 0.86336 0.35361 0.4825 0.0
C173 C 0.86259 0.34353 0.50295 0.0
C174 C 0.89673 0.39456 0.47485 0.0
C175 C 0.83025 0.33441 0.44746 0.0
C176 C 0.92511 0.39598 0.46037 0.0
C177 C 0.95134 0.43318 0.45018 0.0
C178 C 0.94998 0.46972 0.45445 0.0
C179 C 0.9239 0.46909 0.47004 0.0
C180 C 0.89727 0.43161 0.48016 0.0
H181 H 0.79904 0.313 0.44075 0.0
H182 H 0.83709 0.36714 0.4456 0.0
H183 H 0.85414 0.33092 0.43887 0.0
H184 H 0.92546 0.36778 0.45627 0.0
H185 H 0.97167 0.43307 0.43841 0.0
H186 H 0.61565 0.7334 0.84276 0.0
H187 H 0.61712 0.79938 0.83654 0.0
H188 H 0.60935 0.77647 0.77263 0.0
H189 H 0.60804 0.7101 0.77875 0.0
H190 H 0.66814 0.86429 0.78633 0.0
H191 H 0.50591 0.7937 0.81687 0.0
H192 H 0.54335 0.78954 0.83263 0.0
H193 H 0.52847 0.76247 0.80898 0.0
C194 C 0.61493 0.7427 0.82735 0.0
C195 C 0.61139 0.71655 0.81122 0.0
C196 C 0.61567 0.78033 0.82385 0.0
C197 C 0.61273 0.79239 0.80418 0.0
C198 C 0.61153 0.76752 0.78793 0.0
H199 H 0.531 0.95681 0.75906 0.0
H200 H 0.54181 0.89886 0.76844 0.0
C201 C 0.6108 0.72973 0.79143 0.0
C202 C 0.6079 0.82934 0.80076 0.0
H203 H 0.53956 0.86515 0.80788 0.0
C204 C 0.64016 0.86466 0.79108 0.0
C205 C 0.57117 0.82941 0.80689 0.0
C206 C 0.53502 0.7917 0.81679 0.0
C207 C 0.6366 0.90024 0.78738 0.0
C208 C 0.59998 0.90038 0.79365 0.0
C209 C 0.56777 0.86503 0.80332 0.0
C210 C 0.59297 0.93556 0.7889 0.0
C211 C 0.67144 0.937 0.77632 0.0
C212 C 0.61752 0.97513 0.79772 0.0
C213 C 0.61126 0.00835 0.79244 0.0
C214 C 0.58054 0.00238 0.77819 0.0
C215 C 0.55522 0.96236 0.76991 0.0
C216 C 0.56129 0.92926 0.77527 0.0
H217 H 0.69442 0.92931 0.76968 0.0
H218 H 0.65841 0.94772 0.76411 0.0
H219 H 0.68837 0.96341 0.78696 0.0
H220 H 0.64173 0.98037 0.8085 0.0
H221 H 0.63124 0.03893 0.79898 0.0
H222 H 0.94842 0.62951 0.14244 0.0
H223 H 0.88531 0.63453 0.13725 0.0
H224 H 0.8234 0.54615 0.18553 0.0
H225 H 0.88667 0.54194 0.1911 0.0
H226 H 0.81522 0.56636 0.12495 0.0
H227 H 0.7787 0.62468 0.19432 0.0
H228 H 0.82993 0.63124 0.18953 0.0
H229 H 0.7882 0.58234 0.19916 0.0
C230 C 0.92187 0.6124 0.15243 0.0
C231 C 0.92229 0.58516 0.16708 0.0
C232 C 0.8858 0.6152 0.14943 0.0
C233 C 0.84958 0.59082 0.16103 0.0
C234 C 0.8511 0.56593 0.17666 0.0
H235 H 0.58405 0.48202 0.13957 0.0
H236 H 0.65318 0.50546 0.15474 0.0
C237 C 0.88729 0.56337 0.17976 0.0
C238 C 0.80873 0.58589 0.15463 0.0
H239 H 0.72153 0.58737 0.17109 0.0
C240 C 0.7951 0.57165 0.13497 0.0
C241 C 0.78215 0.59216 0.16778 0.0
C242 C 0.79565 0.60882 0.18882 0.0
C243 C 0.75538 0.56257 0.12824 0.0
C244 C 0.72865 0.56843 0.14142 0.0
C245 C 0.74219 0.58297 0.16104 0.0
C246 C 0.68631 0.55874 0.13486 0.0
C247 C 0.74181 0.54553 0.10722 0.0
C248 C 0.682 0.58191 0.11925 0.0
C249 C 0.6428 0.56855 0.11056 0.0
C250 C 0.60715 0.53188 0.11742 0.0
C251 C 0.61101 0.51039 0.13403 0.0
C252 C 0.6504 0.52372 0.14268 0.0
H253 H 0.76232 0.5346 0.10059 0.0
H254 H 0.70894 0.51906 0.10722 0.0
H255 H 0.74333 0.57055 0.09736 0.0
H256 H 0.7093 0.60933 0.1132 0.0
H257 H 0.64058 0.58612 0.098 0.0
H258 H 0.32735 0.9255 0.50654 0.0
H259 H 0.25991 0.86281 0.49958 0.0
H260 H 0.29478 0.86849 0.43715 0.0
H261 H 0.3629 0.93092 0.44415 0.0
H262 H 0.19398 0.8441 0.47365 0.0
H263 H 0.27217 0.7531 0.45511 0.0
H264 H 0.29972 0.80419 0.46658 0.0
H265 H 0.28917 0.79922 0.43998 0.0
C266 C 0.32044 0.91368 0.49127 0.0
C267 C 0.35041 0.9327 0.4759 0.0
C268 C 0.2819 0.87791 0.48733 0.0
C269 C 0.27272 0.86057 0.46795 0.0
C270 C 0.30167 0.88092 0.4523 0.0
H271 H 0.03611 0.65826 0.42424 0.0
H272 H 0.09499 0.72664 0.43346 0.0
C273 C 0.34038 0.91667 0.45627 0.0
C274 C 0.23388 0.82 0.46451 0.0
H275 H 0.19871 0.71896 0.45043 0.0
C276 C 0.19492 0.81669 0.46857 0.0
C277 C 0.23532 0.78412 0.45831 0.0
C278 C 0.27631 0.78505 0.45492 0.0
C279 C 0.15725 0.77852 0.46627 0.0
C280 C 0.15868 0.74301 0.45942 0.0
C281 C 0.19768 0.74626 0.45562 0.0
C282 C 0.12028 0.70223 0.45563 0.0
C283 C 0.11639 0.7764 0.47153 0.0
C284 C 0.11487 0.66574 0.46503 0.0
C285 C 0.0816 0.62651 0.45956 0.0
C286 C 0.05323 0.62308 0.4445 0.0
C287 C 0.05769 0.65986 0.43576 0.0
C288 C 0.09105 0.69903 0.44118 0.0
H289 H 0.12132 0.80187 0.48202 0.0
H290 H 0.10192 0.78005 0.45759 0.0
H291 H 0.094 0.74583 0.47852 0.0
H292 H 0.13723 0.66754 0.47616 0.0
H293 H 0.07936 0.59882 0.46641 0.0
H294 H 0.45698 0.34693 0.82008 0.0
H295 H 0.46201 0.2838 0.81886 0.0
H296 H 0.54267 0.32516 0.87106 0.0
H297 H 0.53956 0.38986 0.87154 0.0
H298 H 0.57914 0.30825 0.84382 0.0
H299 H 0.41845 0.1744 0.84503 0.0
H300 H 0.42105 0.20986 0.82593 0.0
H301 H 0.42977 0.22629 0.85195 0.0
C302 C 0.47464 0.34194 0.83171 0.0
C303 C 0.49806 0.37333 0.84584 0.0
C304 C 0.47728 0.30552 0.83111 0.0
C305 C 0.50242 0.29921 0.84499 0.0
C306 C 0.52307 0.32917 0.86016 0.0
H307 H 0.5225 0.07861 0.81221 0.0
H308 H 0.50977 0.12525 0.83347 0.0
C309 C 0.52112 0.36605 0.86051 0.0
C310 C 0.51245 0.26535 0.84149 0.0
H311 H 0.4692 0.16457 0.82499 0.0
C312 C 0.55492 0.27654 0.84023 0.0
C313 C 0.48123 0.22353 0.83723 0.0
C314 C 0.43513 0.20784 0.84036 0.0
C315 C 0.56693 0.24823 0.83332 0.0
C316 C 0.53575 0.2081 0.8267 0.0
C317 C 0.49327 0.19568 0.82955 0.0
C318 C 0.54647 0.18035 0.81509 0.0
C319 C 0.61306 0.26211 0.83282 0.0
C320 C 0.57146 0.19572 0.79773 0.0
C321 C 0.57943 0.16944 0.78581 0.0
C322 C 0.56174 0.12676 0.79064 0.0
C323 C 0.53708 0.11141 0.80817 0.0
C324 C 0.52948 0.13796 0.82026 0.0
H325 H 0.63009 0.28444 0.84522 0.0
H326 H 0.61842 0.23517 0.83414 0.0
H327 H 0.62681 0.27867 0.81842 0.0
H328 H 0.58402 0.22794 0.79305 0.0
H329 H 0.599 0.18253 0.77259 0.0
H330 H 0.45984 0.8865 0.49133 0.0
H331 H 0.45989 0.82069 0.49654 0.0
H332 H 0.58613 0.88978 0.51943 0.0
H333 H 0.58599 0.95543 0.51463 0.0
H334 H 0.50585 0.78799 0.48175 0.0
H335 H 0.53261 0.80598 0.56391 0.0
H336 H 0.51963 0.8394 0.54953 0.0
H337 H 0.57276 0.84939 0.55009 0.0
C338 C 0.48765 0.88784 0.49756 0.0
C339 C 0.52279 0.92685 0.50268 0.0
C340 C 0.48767 0.84989 0.50051 0.0
C341 C 0.52269 0.84944 0.50881 0.0
C342 C 0.55809 0.88847 0.51354 0.0
H343 H 0.59199 0.66312 0.54332 0.0
H344 H 0.589 0.72564 0.53393 0.0
C345 C 0.55808 0.92636 0.51063 0.0
C346 C 0.5224 0.80856 0.51239 0.0
H347 H 0.53983 0.75204 0.54839 0.0
C348 C 0.51305 0.78013 0.49639 0.0
C349 C 0.53153 0.79742 0.53144 0.0
C350 C 0.53927 0.82441 0.54977 0.0
C351 C 0.51399 0.74232 0.4987 0.0
C352 C 0.52383 0.73158 0.5177 0.0
C353 C 0.53256 0.75977 0.53373 0.0
C354 C 0.52644 0.69222 0.52137 0.0
C355 C 0.50579 0.71496 0.4805 0.0
C356 C 0.49275 0.65156 0.51718 0.0
C357 C 0.49472 0.61529 0.52236 0.0
C358 C 0.5303 0.61856 0.53203 0.0
C359 C 0.56427 0.65918 0.53566 0.0
C360 C 0.5624 0.69519 0.53043 0.0
H361 H 0.51065 0.73268 0.46626 0.0
H362 H 0.52649 0.70114 0.4804 0.0
H363 H 0.47271 0.68903 0.48083 0.0
H364 H 0.46407 0.64766 0.51067 0.0
H365 H 0.46753 0.58472 0.51978 0.0
H366 H 0.71642 0.6134 0.81781 0.0
H367 H 0.78312 0.61485 0.82323 0.0
H368 H 0.71553 0.48692 0.84384 0.0
H369 H 0.64917 0.48537 0.83869 0.0
H370 H 0.77922 0.53225 0.86878 0.0
H371 H 0.84265 0.56722 0.79116 0.0
H372 H 0.82996 0.60484 0.80088 0.0
H373 H 0.78884 0.5517 0.79682 0.0
C374 C 0.7156 0.58536 0.82329 0.0
C375 C 0.67674 0.54921 0.82765 0.0
C376 C 0.75407 0.58614 0.82631 0.0
C377 C 0.75509 0.55078 0.83375 0.0
C378 C 0.71629 0.51474 0.83804 0.0
H379 H 0.97059 0.50513 0.84189 0.0
H380 H 0.90736 0.50677 0.83092 0.0
C381 C 0.67798 0.51389 0.835 0.0
C382 C 0.79606 0.55148 0.83797 0.0
H383 H 0.88914 0.5698 0.81679 0.0
C384 C 0.80308 0.54046 0.85731 0.0
C385 C 0.82763 0.56154 0.82314 0.0
C386 C 0.82188 0.57161 0.80178 0.0
C387 C 0.84023 0.53995 0.86228 0.0
C388 C 0.87236 0.55124 0.84766 0.0
C389 C 0.86511 0.56146 0.82818 0.0
C390 C 0.91357 0.55316 0.85264 0.0
C391 C 0.84437 0.52652 0.88323 0.0
C392 C 0.93974 0.57984 0.86791 0.0
C393 C 0.97596 0.57915 0.87406 0.0
C394 C 0.98775 0.55181 0.86519 0.0
C395 C 0.96298 0.5268 0.84905 0.0
C396 C 0.92647 0.52753 0.84285 0.0
H397 H 0.81334 0.50807 0.89071 0.0
H398 H 0.85993 0.50742 0.88293 0.0
H399 H 0.86377 0.55474 0.89251 0.0
H400 H 0.93165 0.60079 0.87547 0.0
H401 H 0.99426 0.59937 0.88633 0.0
H402 H 0.11535 0.67521 0.16336 0.0
H403 H 0.1813 0.74151 0.16807 0.0
H404 H 0.2471 0.67353 0.17607 0.0
H405 H 0.18189 0.60763 0.17059 0.0
H406 H 0.23378 0.77651 0.19729 0.0
H407 H 0.32598 0.75649 0.13742 0.0
H408 H 0.27027 0.72156 0.13999 0.0
H409 H 0.30672 0.71418 0.15513 0.0
C410 C 0.14391 0.67429 0.16592 0.0
C411 C 0.14281 0.63553 0.16632 0.0
C412 C 0.1819 0.71251 0.16868 0.0
C413 C 0.22026 0.71348 0.17199 0.0
C414 C 0.21889 0.67463 0.17282 0.0
H415 H 0.4727 0.90258 0.21131 0.0
H416 H 0.40815 0.83896 0.20103 0.0
C417 C 0.18109 0.63652 0.16983 0.0
C418 C 0.26107 0.75464 0.1752 0.0
H419 H 0.36523 0.81045 0.16148 0.0
C420 C 0.26225 0.78389 0.18922 0.0
C421 C 0.29897 0.76532 0.16479 0.0
C422 C 0.30038 0.73794 0.14835 0.0
C423 C 0.29966 0.82203 0.19344 0.0
C424 C 0.33761 0.83203 0.18343 0.0
C425 C 0.3365 0.80313 0.16931 0.0
C426 C 0.37881 0.87153 0.18794 0.0
C427 C 0.29861 0.851 0.20909 0.0
C428 C 0.38516 0.91172 0.18349 0.0
C429 C 0.42272 0.94839 0.18902 0.0
C430 C 0.45498 0.94597 0.19922 0.0
C431 C 0.44901 0.90576 0.20312 0.0
C432 C 0.41181 0.86921 0.19737 0.0
H433 H 0.26909 0.83579 0.21801 0.0
H434 H 0.32563 0.86185 0.21954 0.0
H435 H 0.30112 0.87899 0.20152 0.0
H436 H 0.36065 0.9148 0.1761 0.0
H437 H 0.42569 0.97865 0.18617 0.0
H438 H 0.57956 0.19646 0.50779 0.0
H439 H 0.57886 0.26157 0.51286 0.0
H440 H 0.45271 0.20345 0.48975 0.0
H441 H 0.45282 0.13755 0.48514 0.0
H442 H 0.57324 0.31539 0.4891 0.0
H443 H 0.4351 0.2522 0.53962 0.0
H444 H 0.45923 0.22201 0.53257 0.0
H445 H 0.42359 0.22662 0.51563 0.0
C446 C 0.55147 0.19721 0.50376 0.0
C447 C 0.51615 0.16102 0.49607 0.0
C448 C 0.55114 0.23488 0.50669 0.0
C449 C 0.51547 0.23809 0.50215 0.0
C450 C 0.4804 0.20222 0.49404 0.0
H451 H 0.47004 0.45315 0.5169 0.0
H452 H 0.4653 0.38717 0.5057 0.0
C453 C 0.48063 0.16432 0.49117 0.0
C454 C 0.51576 0.27903 0.50564 0.0
H455 H 0.46369 0.32273 0.52922 0.0
C456 C 0.54915 0.3167 0.49791 0.0
C457 C 0.48452 0.28175 0.51707 0.0
C458 C 0.4488 0.2436 0.52688 0.0
C459 C 0.55215 0.35607 0.50117 0.0
C460 C 0.52127 0.35884 0.5128 0.0
C461 C 0.48744 0.32118 0.52023 0.0
C462 C 0.52489 0.40047 0.51837 0.0
C463 C 0.58843 0.39449 0.49185 0.0
C464 C 0.55992 0.43074 0.52915 0.0
C465 C 0.56263 0.4684 0.5355 0.0
C466 C 0.53049 0.47755 0.53133 0.0
C467 C 0.49581 0.44782 0.52009 0.0
C468 C 0.4929 0.40972 0.51386 0.0
H469 H 0.60137 0.38635 0.47863 0.0
H470 H 0.5789 0.41732 0.48702 0.0
H471 H 0.61392 0.40987 0.50313 0.0
H472 H 0.58482 0.4247 0.5333 0.0
H473 H 0.58962 0.49008 0.5443 0.0
H474 H 0.39947 0.47689 0.84461 0.0
H475 H 0.33381 0.47746 0.84949 0.0
H476 H 0.39283 0.60405 0.82715 0.0
H477 H 0.45848 0.60362 0.82207 0.0
H478 H 0.31502 0.52589 0.8734 0.0
H479 H 0.28608 0.55185 0.79428 0.0
H480 H 0.32461 0.53742 0.80104 0.0
H481 H 0.33644 0.59073 0.80368 0.0
C482 C 0.3986 0.50484 0.84055 0.0
C483 C 0.43484 0.54011 0.83279 0.0
C484 C 0.36075 0.50517 0.84341 0.0
C485 C 0.35741 0.54054 0.83842 0.0
C486 C 0.3936 0.57584 0.83072 0.0
H487 H 0.15152 0.59901 0.85179 0.0
H488 H 0.21692 0.60011 0.84249 0.0
C489 C 0.43154 0.57562 0.82794 0.0
C490 C 0.31677 0.54083 0.84199 0.0
H491 H 0.24129 0.55533 0.81894 0.0
C492 C 0.29895 0.53215 0.8614 0.0
C493 C 0.29531 0.54937 0.82655 0.0
C494 C 0.31129 0.55751 0.80517 0.0
C495 C 0.26134 0.53223 0.86582 0.0
C496 C 0.23941 0.54002 0.85033 0.0
C497 C 0.25744 0.54917 0.83093 0.0
C498 C 0.19772 0.53814 0.85403 0.0
C499 C 0.2462 0.5251 0.88736 0.0
C500 C 0.16368 0.5024 0.86276 0.0
C501 C 0.12633 0.50178 0.86802 0.0
C502 C 0.12105 0.53653 0.86441 0.0
C503 C 0.15399 0.57141 0.85454 0.0
C504 C 0.19171 0.57215 0.84937 0.0
H505 H 0.27231 0.53312 0.89808 0.0
H506 H 0.23138 0.54398 0.8912 0.0
H507 H 0.22265 0.4915 0.88953 0.0
H508 H 0.16629 0.47506 0.86601 0.0
H509 H 0.10189 0.47442 0.87566 0.0
H510 H 0.87609 0.41982 0.17796 0.0
H511 H 0.81109 0.35357 0.18305 0.0
H512 H 0.86623 0.28784 0.1546 0.0
H513 H 0.93217 0.35441 0.14989 0.0
H514 H 0.75529 0.29713 0.15868 0.0
H515 H 0.82026 0.21626 0.20361 0.0
H516 H 0.85057 0.27134 0.19774 0.0
H517 H 0.8442 0.23295 0.17928 0.0
C518 C 0.87475 0.39139 0.17278 0.0
C519 C 0.9101 0.39307 0.16354 0.0
C520 C 0.83714 0.35315 0.17572 0.0
C521 C 0.83313 0.3148 0.16961 0.0
C522 C 0.86818 0.31635 0.16006 0.0
H523 H 0.61533 0.05423 0.18261 0.0
H524 H 0.6813 0.11587 0.17121 0.0
C525 C 0.90606 0.35477 0.15717 0.0
C526 C 0.79209 0.27397 0.17299 0.0
H527 H 0.74858 0.17611 0.1946 0.0
C528 C 0.75412 0.2708 0.16655 0.0
C529 C 0.78959 0.23885 0.1832 0.0
C530 C 0.82823 0.23998 0.19154 0.0
C531 C 0.7146 0.23443 0.16996 0.0
C532 C 0.71206 0.19965 0.18044 0.0
C533 C 0.74999 0.20232 0.18652 0.0
C534 C 0.67045 0.16156 0.18623 0.0
C535 C 0.67577 0.23353 0.16206 0.0
C536 C 0.6416 0.16592 0.1984 0.0
C537 C 0.60396 0.13076 0.20487 0.0
C538 C 0.59346 0.08968 0.19945 0.0
C539 C 0.62176 0.0852 0.18683 0.0
C540 C 0.65984 0.12058 0.18047 0.0
H541 H 0.68328 0.25581 0.14935 0.0
H542 H 0.6521 0.20167 0.15692 0.0
H543 H 0.66161 0.24288 0.17427 0.0
H544 H 0.64875 0.19664 0.20348 0.0
H545 H 0.58335 0.13569 0.21469 0.0
H546 H 0.9492 0.4829 0.09298 0.0
H547 H 0.96045 0.48432 0.0567 0.0
H548 H 0.09187 0.52882 0.06664 0.0
H549 H 0.08081 0.52804 0.1032 0.0
H550 H 0.07951 0.57499 0.03794 0.0
H551 H 0.97887 0.4066 0.02084 0.0
H552 H 0.95118 0.42715 0.03447 0.0
H553 H 0.99453 0.42573 0.04618 0.0
C554 C 0.98044 0.49249 0.08749 0.0
C555 C 0.01412 0.50536 0.10099 0.0
C556 C 0.98679 0.49305 0.06669 0.0
C557 C 0.02691 0.50613 0.05883 0.0
C558 C 0.06057 0.5184 0.07231 0.0
H559 H 0.0655 0.48306 0.93004 0.0
H560 H 0.06317 0.47697 0.96678 0.0
C561 C 0.05421 0.51781 0.0932 0.0
C562 C 0.03381 0.50923 0.03658 0.0
H563 H 0.99834 0.45373 -0.00722 0.0
C564 C 0.06206 0.54835 0.02809 0.0
C565 C 0.01151 0.47445 0.02364 0.0
C566 C 0.98265 0.43103 0.03175 0.0
C567 C 0.0675 0.55395 0.0071 0.0
C568 C 0.04347 0.51966 -0.00588 0.0
C569 C 0.01636 0.48021 0.00264 0.0
C570 C 0.04568 0.5241 0.97171 0.0
C571 C 0.09922 0.59654 -0.00095 0.0
C572 C 0.03619 0.55229 0.9621 0.0
C573 C 0.03784 0.55612 0.94106 0.0
C574 C 0.04869 0.53157 0.92905 0.0
C575 C 0.0577 0.50299 0.93874 0.0
C576 C 0.05609 0.49924 0.95978 0.0
H577 H 0.12338 0.61528 0.01052 0.0
H578 H 0.11519 0.5939 0.98543 0.0
H579 H 0.08294 0.61391 -0.00508 0.0
H580 H 0.02716 0.5712 0.97086 0.0
H581 H 0.031 0.57868 0.93423 0.0
H582 H 0.584 0.0294 0.42978 0.0
H583 H 0.57366 0.02379 0.39345 0.0
H584 H 0.46771 0.04248 0.39994 0.0
H585 H 0.47883 0.04938 0.43662 0.0
H586 H 0.50976 0.9694 0.37071 0.0
H587 H 0.53504 0.12912 0.35755 0.0
H588 H 0.54672 0.11352 0.38132 0.0
H589 H 0.49342 0.09776 0.37485 0.0
C590 C 0.55851 0.03246 0.42353 0.0
C591 C 0.53246 0.04023 0.4361 0.0
C592 C 0.55257 0.02914 0.40269 0.0
C593 C 0.52034 0.03336 0.39377 0.0
C594 C 0.49348 0.04011 0.40633 0.0
H595 H 0.45195 0.00012 0.26511 0.0
H596 H 0.44897 0.00222 0.30201 0.0
C597 C 0.49962 0.04373 0.42731 0.0
C598 C 0.51537 0.03035 0.37137 0.0
H599 H 0.51835 0.0852 0.32911 0.0
C600 C 0.51142 0.9947 0.36168 0.0
C601 C 0.51772 0.06338 0.35944 0.0
C602 C 0.52383 0.10329 0.36874 0.0
C603 C 0.51031 0.99144 0.34055 0.0
C604 C 0.5131 0.02456 0.32871 0.0
C605 C 0.51609 0.0598 0.33828 0.0
C606 C 0.51485 0.02371 0.30635 0.0
C607 C 0.50677 0.95289 0.33089 0.0
C608 C 0.55289 0.03516 0.29657 0.0
C609 C 0.55474 0.03403 0.27551 0.0
C610 C 0.51849 0.0212 0.26376 0.0
C611 C 0.48037 0.00972 0.27367 0.0
C612 C 0.47863 0.01114 0.29475 0.0
H613 H 0.50114 0.92826 0.34212 0.0
H614 H 0.48076 0.93982 0.31976 0.0
H615 H 0.53621 0.96152 0.32261 0.0
H616 H 0.58118 0.04485 0.30526 0.0
H617 H 0.5845 0.04264 0.26844 0.0
H618 H 0.49435 0.46679 0.75907 0.0
H619 H 0.50027 0.48103 0.7231 0.0
H620 H 0.6047 0.60513 0.73365 0.0
H621 H 0.59767 0.59129 0.77027 0.0
H622 H 0.55444 0.60602 0.70404 0.0
H623 H 0.58699 0.47865 0.68795 0.0
H624 H 0.53839 0.4587 0.70131 0.0
H625 H 0.58681 0.49624 0.71324 0.0
C626 C 0.51854 0.49726 0.75381 0.0
C627 C 0.54584 0.5278 0.76749 0.0
C628 C 0.5221 0.50525 0.73315 0.0
C629 C 0.55381 0.54363 0.72548 0.0
C630 C 0.58028 0.57503 0.73915 0.0
H631 H 0.59836 0.54651 0.59538 0.0
H632 H 0.60731 0.55061 0.63201 0.0
C633 C 0.57626 0.56719 0.76005 0.0
C634 C 0.5588 0.55006 0.70319 0.0
H635 H 0.56289 0.50229 0.65993 0.0
C636 C 0.55687 0.58368 0.69438 0.0
C637 C 0.56307 0.52163 0.69047 0.0
C638 C 0.56943 0.4871 0.69876 0.0
C639 C 0.55704 0.58841 0.67329 0.0
C640 C 0.5577 0.55788 0.66058 0.0
C641 C 0.5616 0.52542 0.66947 0.0
C642 C 0.55378 0.55828 0.63812 0.0
C643 C 0.55701 0.62644 0.66497 0.0
C644 C 0.52066 0.56102 0.6291 0.0
C645 C 0.51603 0.55946 0.60811 0.0
C646 C 0.54368 0.55391 0.59564 0.0
C647 C 0.57645 0.5506 0.60461 0.0
C648 C 0.58159 0.55302 0.62558 0.0
H649 H 0.57178 0.65307 0.67568 0.0
H650 H 0.574 0.63659 0.65039 0.0
H651 H 0.52413 0.61891 0.66262 0.0
H652 H 0.49774 0.56349 0.63829 0.0
H653 H 0.49016 0.56155 0.60163 0.0
H654 H 0.56194 0.03943 0.54973 0.0
H655 H 0.57796 0.05073 0.58587 0.0
H656 H 0.48011 0.08119 0.59361 0.0
H657 H 0.46376 0.06968 0.5577 0.0
H658 H 0.59937 0.12345 0.61096 0.0
H659 H 0.44923 0.98256 0.63305 0.0
H660 H 0.46964 0.991 0.6077 0.0
H661 H 0.44389 0.0183 0.6166 0.0
C662 C 0.54401 0.04868 0.55917 0.0
C663 C 0.51127 0.05316 0.55105 0.0
C664 C 0.55323 0.05521 0.57974 0.0
C665 C 0.52973 0.06612 0.59238 0.0
C666 C 0.49808 0.07207 0.58412 0.0
H667 H 0.51447 0.09065 0.72138 0.0
H668 H 0.50772 0.09296 0.68479 0.0
C669 C 0.48886 0.06557 0.56363 0.0
C670 C 0.5373 0.07015 0.61433 0.0
H671 H 0.49093 0.02709 0.65934 0.0
C672 C 0.5758 0.10238 0.62158 0.0
C673 C 0.50637 0.04255 0.62806 0.0
C674 C 0.46507 0.0064 0.62103 0.0
C675 C 0.58392 0.10821 0.64234 0.0
C676 C 0.55293 0.08061 0.65607 0.0
C677 C 0.51449 0.04837 0.64877 0.0
C678 C 0.55992 0.08361 0.6781 0.0
C679 C 0.62521 0.14428 0.6494 0.0
C680 C 0.59167 0.07787 0.68641 0.0
C681 C 0.59575 0.07679 0.70728 0.0
C682 C 0.56791 0.08108 0.72021 0.0
C683 C 0.5367 0.08775 0.71183 0.0
C684 C 0.53266 0.08884 0.69095 0.0
H685 H 0.64024 0.16883 0.63761 0.0
H686 H 0.62096 0.15871 0.66319 0.0
H687 H 0.64693 0.13259 0.65302 0.0
H688 H 0.61253 0.07297 0.67678 0.0
H689 H 0.62033 0.07197 0.71329 0.0
H690 H 0.50702 0.49984 0.87944 0.0
H691 H 0.49877 0.48179 0.91537 0.0
H692 H 0.62916 0.57289 0.92528 0.0
H693 H 0.63735 0.59164 0.88955 0.0
H694 H 0.5394 0.45462 0.94251 0.0
H695 H 0.5663 0.61243 0.96183 0.0
H696 H 0.55683 0.59279 0.93639 0.0
H697 H 0.60797 0.61325 0.94746 0.0
C698 C 0.53397 0.51567 0.88928 0.0
C699 C 0.57263 0.54762 0.88187 0.0
C700 C 0.52925 0.50529 0.90975 0.0
C701 C 0.56315 0.52666 0.923 0.0
C702 C 0.60241 0.55672 0.91535 0.0
H703 H 0.5793 0.47442 0.04953 0.0
H704 H 0.58563 0.47938 0.01282 0.0
C705 C 0.60707 0.56729 0.89496 0.0
C706 C 0.55691 0.51951 0.94496 0.0
H707 H 0.56203 0.56901 0.98905 0.0
C708 C 0.54424 0.47952 0.95273 0.0
C709 C 0.56259 0.55195 0.95816 0.0
C710 C 0.57377 0.59492 0.95057 0.0
C711 C 0.53775 0.47129 0.97348 0.0
C712 C 0.54477 0.50414 0.98672 0.0
C713 C 0.55695 0.54394 0.97887 0.0
C714 C 0.53909 0.49817 0.00879 0.0
C715 C 0.52268 0.4274 0.98098 0.0
C716 C 0.51136 0.50773 0.01872 0.0
C717 C 0.5083 0.50576 0.03967 0.0
C718 C 0.53288 0.49408 0.05116 0.0
C719 C 0.56016 0.48382 0.04114 0.0
C720 C 0.56339 0.48606 0.02014 0.0
H721 H 0.50808 0.40397 0.96874 0.0
H722 H 0.54982 0.42544 0.98688 0.0
H723 H 0.49953 0.419 -0.00664 0.0
H724 H 0.49258 0.51749 0.01025 0.0
H725 H 0.48755 0.51463 0.04688 0.0
H726 H 0.01926 0.55837 0.21331 0.0
H727 H 0.00808 0.56551 0.24922 0.0
H728 H 0.98417 0.44024 0.26014 0.0
H729 H 0.99527 0.43286 0.22442 0.0
H730 H 0.93529 0.50914 0.27669 0.0
H731 H 0.08845 0.52236 0.29596 0.0
H732 H 0.07591 0.53137 0.27082 0.0
H733 H 0.05424 0.47889 0.28021 0.0
C734 C 0.01118 0.53225 0.22337 0.0
C735 C 0.00865 0.49527 0.21622 0.0
C736 C 0.00473 0.53633 0.24379 0.0
C737 C 0.99585 0.50356 0.25725 0.0
C738 C 0.99145 0.46598 0.24996 0.0
H739 H 0.987 0.47163 0.38581 0.0
H740 H 0.98452 0.46333 0.3493 0.0
C741 C 0.99778 0.46184 0.22958 0.0
C742 C 0.9936 0.50929 0.2791 0.0
H743 H 0.04488 0.51758 0.3231 0.0
C744 C 0.95924 0.5112 0.2869 0.0
C745 C 0.02503 0.51197 0.29223 0.0
C746 C 0.06323 0.51139 0.28446 0.0
C747 C 0.95491 0.5146 0.30772 0.0
C748 C 0.98623 0.51694 0.32088 0.0
C749 C 0.02082 0.51556 0.31297 0.0
C750 C 0.98393 0.52054 0.34297 0.0
C751 C 0.91637 0.51448 0.31547 0.0
C752 C 0.98424 0.55541 0.35151 0.0
C753 C 0.9852 0.56003 0.37242 0.0
C754 C 0.98626 0.53005 0.38514 0.0
C755 C 0.98551 0.49495 0.37649 0.0
C756 C 0.98438 0.49029 0.35562 0.0
H757 H 0.89064 0.50163 0.30419 0.0
H758 H 0.90474 0.49581 0.32955 0.0
H759 H 0.92443 0.54709 0.31886 0.0
H760 H 0.98474 0.57954 0.34202 0.0
H761 H 0.98544 0.58725 0.37862 0.0
loop_
_geom_bond_atom_site_label_1
_geom_bond_atom_site_label_2
_geom_bond_distance
_geom_bond_site_symmetry_2
_ccdc_geom_bond_type
Dy0 O4 2.398 . S
Dy0 O5 2.491 . S
Dy0 O6 2.403 . S
Dy0 O7 2.664 . S
Dy0 O11 2.326 . S
Dy0 O15 2.310 . S
Dy0 O16 2.351 1_455 S
C1 O12 1.185 . S
C1 O13 1.355 . S
C2 O4 1.185 . S
C2 O5 1.355 . S
Dy3 O7 2.317 . S
Dy3 O10 2.361 . S
Dy3 O12 2.386 1_455 S
Dy3 O13 2.481 1_455 S
Dy3 O14 2.405 . S
Dy3 O15 2.675 . S
Dy3 O17 2.325 1_455 S
O4 Dy0 2.398 . S
O4 C2 1.185 . S
O5 Dy0 2.491 . S
O5 C2 1.355 . S
O6 Dy0 2.403 . S
O6 C8 1.254 . S
O7 Dy0 2.664 . S
O7 Dy3 2.317 . S
O7 C8 1.268 . S
C8 O6 1.254 . S
C8 O7 1.268 . S
C9 O14 1.254 . S
C9 O15 1.268 . S
O10 Dy3 2.361 . S
O10 C18 1.249 . S
O11 Dy0 2.326 . S
O11 C18 1.267 . S
O12 C1 1.185 . S
O12 Dy3 2.386 1_655 S
O13 C1 1.355 . S
O13 Dy3 2.481 1_655 S
O14 Dy3 2.405 . S
O14 C9 1.254 . S
O15 Dy0 2.310 . S
O15 Dy3 2.675 . S
O15 C9 1.268 . S
O16 Dy0 2.351 1_655 S
O16 C19 1.249 . S
O17 Dy3 2.325 1_655 S
O17 C19 1.267 . S
C18 O10 1.249 . S
C18 O11 1.267 . S
C19 O16 1.249 . S
C19 O17 1.267 . S
Dy20 O24 2.398 1_545 S
Dy20 O25 2.491 1_545 S
Dy20 O26 2.403 . S
Dy20 O27 2.664 . S
Dy20 O31 2.326 1_545 S
Dy20 O35 2.310 . S
Dy20 O36 2.351 . S
C21 O32 1.185 . S
C21 O33 1.355 . S
C22 O24 1.185 . S
C22 O25 1.355 . S
Dy23 O27 2.310 . S
Dy23 O30 2.351 1_545 S
Dy23 O32 2.398 . S
Dy23 O33 2.491 . S
Dy23 O34 2.403 . S
Dy23 O35 2.664 . S
Dy23 O37 2.326 . S
O24 Dy20 2.398 1_565 S
O24 C22 1.185 . S
O25 Dy20 2.491 1_565 S
O25 C22 1.355 . S
O26 Dy20 2.403 . S
O26 C28 1.254 . S
O27 Dy20 2.664 . S
O27 Dy23 2.310 . S
O27 C28 1.268 . S
C28 O26 1.254 . S
C28 O27 1.268 . S
C29 O34 1.254 . S
C29 O35 1.268 . S
O30 Dy23 2.351 1_565 S
O30 C38 1.249 . S
O31 Dy20 2.326 1_565 S
O31 C38 1.267 . S
O32 C21 1.185 . S
O32 Dy23 2.398 . S
O33 C21 1.355 . S
O33 Dy23 2.491 . S
O34 Dy23 2.403 . S
O34 C29 1.254 . S
O35 Dy20 2.310 . S
O35 Dy23 2.664 . S
O35 C29 1.268 . S
O36 Dy20 2.351 . S
O36 C39 1.249 . S
O37 Dy23 2.326 . S
O37 C39 1.267 . S
C38 O30 1.249 . S
C38 O31 1.267 . S
C39 O36 1.249 . S
C39 O37 1.267 . S
Dy40 O44 2.398 . S
Dy40 O45 2.491 . S
Dy40 O46 2.403 . S
Dy40 O47 2.664 . S
Dy40 O51 2.326 . S
Dy40 O55 2.310 . S
Dy40 O56 2.351 . S
C41 O52 1.185 . S
C41 O53 1.355 . S
C42 O44 1.185 . S
C42 O45 1.355 . S
Dy43 O47 2.310 . S
Dy43 O50 2.351 . S
Dy43 O52 2.398 . S
Dy43 O53 2.491 . S
Dy43 O54 2.403 . S
Dy43 O55 2.664 . S
Dy43 O57 2.326 . S
O44 Dy40 2.398 . S
O44 C42 1.185 . S
O45 Dy40 2.491 . S
O45 C42 1.355 . S
O46 Dy40 2.403 . S
O46 C48 1.254 . S
O47 Dy40 2.664 . S
O47 Dy43 2.310 . S
O47 C48 1.268 . S
C48 O46 1.254 . S
C48 O47 1.268 . S
C49 O54 1.254 . S
C49 O55 1.268 . S
O50 Dy43 2.351 . S
O50 C58 1.249 . S
O51 Dy40 2.326 . S
O51 C58 1.267 . S
O52 C41 1.185 . S
O52 Dy43 2.398 . S
O53 C41 1.355 . S
O53 Dy43 2.491 . S
O54 Dy43 2.403 . S
O54 C49 1.254 . S
O55 Dy40 2.310 . S
O55 Dy43 2.664 . S
O55 C49 1.268 . S
O56 Dy40 2.351 . S
O56 C59 1.249 . S
O57 Dy43 2.326 . S
O57 C59 1.267 . S
C58 O50 1.249 . S
C58 O51 1.267 . S
C59 O56 1.249 . S
C59 O57 1.267 . S
H60 C63 0.931 . S
H61 C66 0.928 . S
H62 C68 0.930 . S
C63 H60 0.931 . S
C63 C64 1.413 . S
C63 C65 1.360 1_565 S
C64 C63 1.413 . S
C64 C68 1.429 1_565 S
C65 C63 1.360 1_545 S
C65 C66 1.372 . S
C66 H61 0.928 . S
C66 C65 1.372 . S
C66 C67 1.404 . S
C67 C66 1.404 . S
C67 C68 1.391 . S
C68 H62 0.930 . S
C68 C64 1.429 1_545 S
C68 C67 1.391 . S
H69 C72 0.931 . S
H70 C75 0.928 . S
H71 C77 0.930 . S
C72 H69 0.931 . S
C72 C73 1.413 . S
C72 C74 1.360 . S
C73 C72 1.413 . S
C73 C77 1.429 . S
C74 C72 1.360 . S
C74 C75 1.372 . S
C75 H70 0.928 . S
C75 C74 1.372 . S
C75 C76 1.404 . S
C76 C75 1.404 . S
C76 C77 1.391 . S
C77 H71 0.930 . S
C77 C73 1.429 . S
C77 C76 1.391 . S
H78 C81 0.931 . S
H79 C84 0.928 . S
H80 C86 0.930 . S
C81 H78 0.931 . S
C81 C82 1.413 . S
C81 C83 1.360 . S
C82 C81 1.413 . S
C82 C86 1.429 . S
C83 C81 1.360 . S
C83 C84 1.372 . S
C84 H79 0.928 . S
C84 C83 1.372 . S
C84 C85 1.404 . S
C85 C84 1.404 . S
C85 C86 1.391 . S
C86 H80 0.930 . S
C86 C82 1.429 . S
C86 C85 1.391 . S
H87 C90 0.931 . S
H88 C93 0.928 . S
H89 C95 0.930 . S
C90 H87 0.931 . S
C90 C91 1.413 . S
C90 C92 1.360 1_655 S
C91 C90 1.413 . S
C91 C95 1.429 1_655 S
C92 C90 1.360 1_455 S
C92 C93 1.372 . S
C93 H88 0.928 . S
C93 C92 1.372 . S
C93 C94 1.404 . S
C94 C93 1.404 . S
C94 C95 1.391 . S
C95 H89 0.930 . S
C95 C91 1.429 1_455 S
C95 C94 1.391 . S
H96 C99 0.931 . S
H97 C102 0.928 . S
H98 C104 0.930 . S
C99 H96 0.931 . S
C99 C100 1.413 . S
C99 C101 1.360 . S
C100 C99 1.413 . S
C100 C104 1.429 . S
C101 C99 1.360 . S
C101 C102 1.372 . S
C102 H97 0.928 . S
C102 C101 1.372 . S
C102 C103 1.404 . S
C103 C102 1.404 . S
C103 C104 1.391 . S
C104 H98 0.930 . S
C104 C100 1.429 . S
C104 C103 1.391 . S
H105 C108 0.931 . S
H106 C111 0.928 . S
H107 C113 0.930 . S
C108 H105 0.931 . S
C108 C109 1.413 . S
C108 C110 1.360 . S
C109 C108 1.413 . S
C109 C113 1.429 . S
C110 C108 1.360 . S
C110 C111 1.372 . S
C111 H106 0.928 . S
C111 C110 1.372 . S
C111 C112 1.404 . S
C112 C111 1.404 . S
C112 C113 1.391 . S
C113 H107 0.930 . S
C113 C109 1.429 . S
C113 C112 1.391 . S
H114 C122 0.929 . S
H115 C124 0.930 . S
H116 C126 0.930 . S
H117 C129 0.929 . S
H118 C132 0.930 . S
H119 C134 0.960 . S
H120 C134 0.960 . S
H121 C134 0.960 . S
C122 H114 0.929 . S
C122 C123 1.377 . S
C122 C124 1.384 . S
C123 C122 1.377 . S
C123 C129 1.390 . S
C124 H115 0.930 . S
C124 C122 1.384 . S
C124 C125 1.372 . S
C125 C124 1.372 . S
C125 C126 1.400 . S
C125 C130 1.490 . S
C126 H116 0.930 . S
C126 C125 1.400 . S
C126 C129 1.386 . S
H127 C143 0.930 . S
H128 C144 0.931 . S
C129 H117 0.929 . S
C129 C123 1.390 . S
C129 C126 1.386 . S
C130 C125 1.490 . S
C130 C132 1.395 . S
C130 C133 1.403 . S
H131 C137 0.930 . S
C132 H118 0.930 . S
C132 C130 1.395 . S
C132 C135 1.403 . S
C133 C130 1.403 . S
C133 C134 1.524 . S
C133 C137 1.400 . S
C134 H119 0.960 . S
C134 H120 0.960 . S
C134 H121 0.960 . S
C134 C133 1.524 . S
C135 C132 1.403 . S
C135 C136 1.392 . S
C135 C139 1.495 . S
C136 C135 1.392 . S
C136 C137 1.385 . S
C136 C138 1.478 . S
C137 H131 0.930 . S
C137 C133 1.400 . S
C137 C136 1.385 . S
C138 C136 1.478 . S
C138 C140 1.381 . S
C138 C144 1.383 . S
C139 C135 1.495 . S
C139 H145 0.959 . S
C139 H146 0.961 . S
C139 H147 0.960 . S
C140 C138 1.381 . S
C140 C141 1.394 . S
C140 H148 0.930 . S
C141 C140 1.394 . S
C141 C142 1.383 . S
C141 H149 0.929 . S
C142 C141 1.383 . S
C142 C143 1.377 . S
C143 H127 0.930 . S
C143 C142 1.377 . S
C143 C144 1.379 . S
C144 H128 0.931 . S
C144 C138 1.383 . S
C144 C143 1.379 . S
H145 C139 0.959 . S
H146 C139 0.961 . S
H147 C139 0.960 . S
H148 C140 0.930 . S
H149 C141 0.929 . S
H150 C158 0.929 . S
H151 C160 0.930 . S
H152 C162 0.930 . S
H153 C165 0.929 . S
H154 C168 0.930 . S
H155 C170 0.960 . S
H156 C170 0.960 . S
H157 C170 0.960 . S
C158 H150 0.929 . S
C158 C159 1.377 . S
C158 C160 1.384 . S
C159 C158 1.377 . S
C159 C165 1.390 . S
C160 H151 0.930 . S
C160 C158 1.384 . S
C160 C161 1.372 . S
C161 C160 1.372 . S
C161 C162 1.400 . S
C161 C166 1.490 . S
C162 H152 0.930 . S
C162 C161 1.400 . S
C162 C165 1.386 . S
H163 C179 0.930 . S
H164 C180 0.931 . S
C165 H153 0.929 . S
C165 C159 1.390 . S
C165 C162 1.386 . S
C166 C161 1.490 . S
C166 C168 1.395 . S
C166 C169 1.403 . S
H167 C173 0.930 . S
C168 H154 0.930 . S
C168 C166 1.395 . S
C168 C171 1.403 . S
C169 C166 1.403 . S
C169 C170 1.524 . S
C169 C173 1.400 . S
C170 H155 0.960 . S
C170 H156 0.960 . S
C170 H157 0.960 . S
C170 C169 1.524 . S
C171 C168 1.403 . S
C171 C172 1.392 . S
C171 C175 1.495 . S
C172 C171 1.392 . S
C172 C173 1.385 . S
C172 C174 1.478 . S
C173 H167 0.930 . S
C173 C169 1.400 . S
C173 C172 1.385 . S
C174 C172 1.478 . S
C174 C176 1.381 . S
C174 C180 1.383 . S
C175 C171 1.495 . S
C175 H181 0.959 . S
C175 H182 0.961 . S
C175 H183 0.960 . S
C176 C174 1.381 . S
C176 C177 1.394 . S
C176 H184 0.930 . S
C177 C176 1.394 . S
C177 C178 1.383 . S
C177 H185 0.929 . S
C178 C177 1.383 . S
C178 C179 1.377 . S
C179 H163 0.930 . S
C179 C178 1.377 . S
C179 C180 1.379 . S
C180 H164 0.931 . S
C180 C174 1.383 . S
C180 C179 1.379 . S
H181 C175 0.959 . S
H182 C175 0.961 . S
H183 C175 0.960 . S
H184 C176 0.930 . S
H185 C177 0.929 . S
H186 C194 0.929 . S
H187 C196 0.930 . S
H188 C198 0.930 . S
H189 C201 0.929 . S
H190 C204 0.930 . S
H191 C206 0.960 . S
H192 C206 0.960 . S
H193 C206 0.960 . S
C194 H186 0.929 . S
C194 C195 1.377 . S
C194 C196 1.384 . S
C195 C194 1.377 . S
C195 C201 1.390 . S
C196 H187 0.930 . S
C196 C194 1.384 . S
C196 C197 1.372 . S
C197 C196 1.372 . S
C197 C198 1.400 . S
C197 C202 1.490 . S
C198 H188 0.930 . S
C198 C197 1.400 . S
C198 C201 1.386 . S
H199 C215 0.930 . S
H200 C216 0.931 . S
C201 H189 0.929 . S
C201 C195 1.390 . S
C201 C198 1.386 . S
C202 C197 1.490 . S
C202 C204 1.395 . S
C202 C205 1.403 . S
H203 C209 0.930 . S
C204 H190 0.930 . S
C204 C202 1.395 . S
C204 C207 1.403 . S
C205 C202 1.403 . S
C205 C206 1.524 . S
C205 C209 1.400 . S
C206 H191 0.960 . S
C206 H192 0.960 . S
C206 H193 0.960 . S
C206 C205 1.524 . S
C207 C204 1.403 . S
C207 C208 1.392 . S
C207 C211 1.495 . S
C208 C207 1.392 . S
C208 C209 1.385 . S
C208 C210 1.478 . S
C209 H203 0.930 . S
C209 C205 1.400 . S
C209 C208 1.385 . S
C210 C208 1.478 . S
C210 C212 1.381 . S
C210 C216 1.383 . S
C211 C207 1.495 . S
C211 H217 0.959 . S
C211 H218 0.961 . S
C211 H219 0.960 . S
C212 C210 1.381 . S
C212 C213 1.394 1_565 S
C212 H220 0.930 . S
C213 C212 1.394 1_545 S
C213 C214 1.383 . S
C213 H221 0.929 . S
C214 C213 1.383 . S
C214 C215 1.377 1_545 S
C215 H199 0.930 . S
C215 C214 1.377 1_565 S
C215 C216 1.379 . S
C216 H200 0.931 . S
C216 C210 1.383 . S
C216 C215 1.379 . S
H217 C211 0.959 . S
H218 C211 0.961 . S
H219 C211 0.960 . S
H220 C212 0.930 . S
H221 C213 0.929 . S
H222 C230 0.929 . S
H223 C232 0.930 . S
H224 C234 0.930 . S
H225 C237 0.929 . S
H226 C240 0.930 . S
H227 C242 0.960 . S
H228 C242 0.960 . S
H229 C242 0.960 . S
C230 H222 0.929 . S
C230 C231 1.377 . S
C230 C232 1.384 . S
C231 C230 1.377 . S
C231 C237 1.390 . S
C232 H223 0.930 . S
C232 C230 1.384 . S
C232 C233 1.372 . S
C233 C232 1.372 . S
C233 C234 1.400 . S
C233 C238 1.490 . S
C234 H224 0.930 . S
C234 C233 1.400 . S
C234 C237 1.386 . S
H235 C251 0.930 . S
H236 C252 0.931 . S
C237 H225 0.929 . S
C237 C231 1.390 . S
C237 C234 1.386 . S
C238 C233 1.490 . S
C238 C240 1.395 . S
C238 C241 1.403 . S
H239 C245 0.930 . S
C240 H226 0.930 . S
C240 C238 1.395 . S
C240 C243 1.403 . S
C241 C238 1.403 . S
C241 C242 1.524 . S
C241 C245 1.400 . S
C242 H227 0.960 . S
C242 H228 0.960 . S
C242 H229 0.960 . S
C242 C241 1.524 . S
C243 C240 1.403 . S
C243 C244 1.392 . S
C243 C247 1.495 . S
C244 C243 1.392 . S
C244 C245 1.385 . S
C244 C246 1.478 . S
C245 H239 0.930 . S
C245 C241 1.400 . S
C245 C244 1.385 . S
C246 C244 1.478 . S
C246 C248 1.381 . S
C246 C252 1.383 . S
C247 C243 1.495 . S
C247 H253 0.959 . S
C247 H254 0.961 . S
C247 H255 0.960 . S
C248 C246 1.381 . S
C248 C249 1.394 . S
C248 H256 0.930 . S
C249 C248 1.394 . S
C249 C250 1.383 . S
C249 H257 0.929 . S
C250 C249 1.383 . S
C250 C251 1.377 . S
C251 H235 0.930 . S
C251 C250 1.377 . S
C251 C252 1.379 . S
C252 H236 0.931 . S
C252 C246 1.383 . S
C252 C251 1.379 . S
H253 C247 0.959 . S
H254 C247 0.961 . S
H255 C247 0.960 . S
H256 C248 0.930 . S
H257 C249 0.929 . S
H258 C266 0.929 . S
H259 C268 0.930 . S
H260 C270 0.930 . S
H261 C273 0.929 . S
H262 C276 0.930 . S
H263 C278 0.960 . S
H264 C278 0.960 . S
H265 C278 0.960 . S
C266 H258 0.929 . S
C266 C267 1.377 . S
C266 C268 1.384 . S
C267 C266 1.377 . S
C267 C273 1.390 . S
C268 H259 0.930 . S
C268 C266 1.384 . S
C268 C269 1.372 . S
C269 C268 1.372 . S
C269 C270 1.400 . S
C269 C274 1.490 . S
C270 H260 0.930 . S
C270 C269 1.400 . S
C270 C273 1.386 . S
H271 C287 0.930 . S
H272 C288 0.931 . S
C273 H261 0.929 . S
C273 C267 1.390 . S
C273 C270 1.386 . S
C274 C269 1.490 . S
C274 C276 1.395 . S
C274 C277 1.403 . S
H275 C281 0.930 . S
C276 H262 0.930 . S
C276 C274 1.395 . S
C276 C279 1.403 . S
C277 C274 1.403 . S
C277 C278 1.524 . S
C277 C281 1.400 . S
C278 H263 0.960 . S
C278 H264 0.960 . S
C278 H265 0.960 . S
C278 C277 1.524 . S
C279 C276 1.403 . S
C279 C280 1.392 . S
C279 C283 1.495 . S
C280 C279 1.392 . S
C280 C281 1.385 . S
C280 C282 1.478 . S
C281 H275 0.930 . S
C281 C277 1.400 . S
C281 C280 1.385 . S
C282 C280 1.478 . S
C282 C284 1.381 . S
C282 C288 1.383 . S
C283 C279 1.495 . S
C283 H289 0.959 . S
C283 H290 0.961 . S
C283 H291 0.960 . S
C284 C282 1.381 . S
C284 C285 1.394 . S
C284 H292 0.930 . S
C285 C284 1.394 . S
C285 C286 1.383 . S
C285 H293 0.929 . S
C286 C285 1.383 . S
C286 C287 1.377 . S
C287 H271 0.930 . S
C287 C286 1.377 . S
C287 C288 1.379 . S
C288 H272 0.931 . S
C288 C282 1.383 . S
C288 C287 1.379 . S
H289 C283 0.959 . S
H290 C283 0.961 . S
H291 C283 0.960 . S
H292 C284 0.930 . S
H293 C285 0.929 . S
H294 C302 0.929 . S
H295 C304 0.930 . S
H296 C306 0.930 . S
H297 C309 0.929 . S
H298 C312 0.930 . S
H299 C314 0.960 . S
H300 C314 0.960 . S
H301 C314 0.960 . S
C302 H294 0.929 . S
C302 C303 1.377 . S
C302 C304 1.384 . S
C303 C302 1.377 . S
C303 C309 1.390 . S
C304 H295 0.930 . S
C304 C302 1.384 . S
C304 C305 1.372 . S
C305 C304 1.372 . S
C305 C306 1.400 . S
C305 C310 1.490 . S
C306 H296 0.930 . S
C306 C305 1.400 . S
C306 C309 1.386 . S
H307 C323 0.930 . S
H308 C324 0.931 . S
C309 H297 0.929 . S
C309 C303 1.390 . S
C309 C306 1.386 . S
C310 C305 1.490 . S
C310 C312 1.395 . S
C310 C313 1.403 . S
H311 C317 0.930 . S
C312 H298 0.930 . S
C312 C310 1.395 . S
C312 C315 1.403 . S
C313 C310 1.403 . S
C313 C314 1.524 . S
C313 C317 1.400 . S
C314 H299 0.960 . S
C314 H300 0.960 . S
C314 H301 0.960 . S
C314 C313 1.524 . S
C315 C312 1.403 . S
C315 C316 1.392 . S
C315 C319 1.495 . S
C316 C315 1.392 . S
C316 C317 1.385 . S
C316 C318 1.478 . S
C317 H311 0.930 . S
C317 C313 1.400 . S
C317 C316 1.385 . S
C318 C316 1.478 . S
C318 C320 1.381 . S
C318 C324 1.383 . S
C319 C315 1.495 . S
C319 H325 0.959 . S
C319 H326 0.961 . S
C319 H327 0.960 . S
C320 C318 1.381 . S
C320 C321 1.394 . S
C320 H328 0.930 . S
C321 C320 1.394 . S
C321 C322 1.383 . S
C321 H329 0.929 . S
C322 C321 1.383 . S
C322 C323 1.377 . S
C323 H307 0.930 . S
C323 C322 1.377 . S
C323 C324 1.379 . S
C324 H308 0.931 . S
C324 C318 1.383 . S
C324 C323 1.379 . S
H325 C319 0.959 . S
H326 C319 0.961 . S
H327 C319 0.960 . S
H328 C320 0.930 . S
H329 C321 0.929 . S
H330 C338 0.929 . S
H331 C340 0.930 . S
H332 C342 0.930 . S
H333 C345 0.929 . S
H334 C348 0.930 . S
H335 C350 0.960 . S
H336 C350 0.960 . S
H337 C350 0.960 . S
C338 H330 0.929 . S
C338 C339 1.377 . S
C338 C340 1.384 . S
C339 C338 1.377 . S
C339 C345 1.390 . S
C340 H331 0.930 . S
C340 C338 1.384 . S
C340 C341 1.372 . S
C341 C340 1.372 . S
C341 C342 1.400 . S
C341 C346 1.490 . S
C342 H332 0.930 . S
C342 C341 1.400 . S
C342 C345 1.386 . S
H343 C359 0.930 . S
H344 C360 0.931 . S
C345 H333 0.929 . S
C345 C339 1.390 . S
C345 C342 1.386 . S
C346 C341 1.490 . S
C346 C348 1.395 . S
C346 C349 1.403 . S
H347 C353 0.930 . S
C348 H334 0.930 . S
C348 C346 1.395 . S
C348 C351 1.403 . S
C349 C346 1.403 . S
C349 C350 1.524 . S
C349 C353 1.400 . S
C350 H335 0.960 . S
C350 H336 0.960 . S
C350 H337 0.960 . S
C350 C349 1.524 . S
C351 C348 1.403 . S
C351 C352 1.392 . S
C351 C355 1.495 . S
C352 C351 1.392 . S
C352 C353 1.385 . S
C352 C354 1.478 . S
C353 H347 0.930 . S
C353 C349 1.400 . S
C353 C352 1.385 . S
C354 C352 1.478 . S
C354 C356 1.381 . S
C354 C360 1.383 . S
C355 C351 1.495 . S
C355 H361 0.959 . S
C355 H362 0.961 . S
C355 H363 0.960 . S
C356 C354 1.381 . S
C356 C357 1.394 . S
C356 H364 0.930 . S
C357 C356 1.394 . S
C357 C358 1.383 . S
C357 H365 0.929 . S
C358 C357 1.383 . S
C358 C359 1.377 . S
C359 H343 0.930 . S
C359 C358 1.377 . S
C359 C360 1.379 . S
C360 H344 0.931 . S
C360 C354 1.383 . S
C360 C359 1.379 . S
H361 C355 0.959 . S
H362 C355 0.961 . S
H363 C355 0.960 . S
H364 C356 0.930 . S
H365 C357 0.929 . S
H366 C374 0.929 . S
H367 C376 0.930 . S
H368 C378 0.930 . S
H369 C381 0.929 . S
H370 C384 0.930 . S
H371 C386 0.960 . S
H372 C386 0.960 . S
H373 C386 0.960 . S
C374 H366 0.929 . S
C374 C375 1.377 . S
C374 C376 1.384 . S
C375 C374 1.377 . S
C375 C381 1.390 . S
C376 H367 0.930 . S
C376 C374 1.384 . S
C376 C377 1.372 . S
C377 C376 1.372 . S
C377 C378 1.400 . S
C377 C382 1.490 . S
C378 H368 0.930 . S
C378 C377 1.400 . S
C378 C381 1.386 . S
H379 C395 0.930 . S
H380 C396 0.931 . S
C381 H369 0.929 . S
C381 C375 1.390 . S
C381 C378 1.386 . S
C382 C377 1.490 . S
C382 C384 1.395 . S
C382 C385 1.403 . S
H383 C389 0.930 . S
C384 H370 0.930 . S
C384 C382 1.395 . S
C384 C387 1.403 . S
C385 C382 1.403 . S
C385 C386 1.524 . S
C385 C389 1.400 . S
C386 H371 0.960 . S
C386 H372 0.960 . S
C386 H373 0.960 . S
C386 C385 1.524 . S
C387 C384 1.403 . S
C387 C388 1.392 . S
C387 C391 1.495 . S
C388 C387 1.392 . S
C388 C389 1.385 . S
C388 C390 1.478 . S
C389 H383 0.930 . S
C389 C385 1.400 . S
C389 C388 1.385 . S
C390 C388 1.478 . S
C390 C392 1.381 . S
C390 C396 1.383 . S
C391 C387 1.495 . S
C391 H397 0.959 . S
C391 H398 0.961 . S
C391 H399 0.960 . S
C392 C390 1.381 . S
C392 C393 1.394 . S
C392 H400 0.930 . S
C393 C392 1.394 . S
C393 C394 1.383 . S
C393 H401 0.929 . S
C394 C393 1.383 . S
C394 C395 1.377 . S
C395 H379 0.930 . S
C395 C394 1.377 . S
C395 C396 1.379 . S
C396 H380 0.931 . S
C396 C390 1.383 . S
C396 C395 1.379 . S
H397 C391 0.959 . S
H398 C391 0.961 . S
H399 C391 0.960 . S
H400 C392 0.930 . S
H401 C393 0.929 . S
H402 C410 0.929 . S
H403 C412 0.930 . S
H404 C414 0.930 . S
H405 C417 0.929 . S
H406 C420 0.930 . S
H407 C422 0.960 . S
H408 C422 0.960 . S
H409 C422 0.960 . S
C410 H402 0.929 . S
C410 C411 1.377 . S
C410 C412 1.384 . S
C411 C410 1.377 . S
C411 C417 1.390 . S
C412 H403 0.930 . S
C412 C410 1.384 . S
C412 C413 1.372 . S
C413 C412 1.372 . S
C413 C414 1.400 . S
C413 C418 1.490 . S
C414 H404 0.930 . S
C414 C413 1.400 . S
C414 C417 1.386 . S
H415 C431 0.930 . S
H416 C432 0.931 . S
C417 H405 0.929 . S
C417 C411 1.390 . S
C417 C414 1.386 . S
C418 C413 1.490 . S
C418 C420 1.395 . S
C418 C421 1.403 . S
H419 C425 0.930 . S
C420 H406 0.930 . S
C420 C418 1.395 . S
C420 C423 1.403 . S
C421 C418 1.403 . S
C421 C422 1.524 . S
C421 C425 1.400 . S
C422 H407 0.960 . S
C422 H408 0.960 . S
C422 H409 0.960 . S
C422 C421 1.524 . S
C423 C420 1.403 . S
C423 C424 1.392 . S
C423 C427 1.495 . S
C424 C423 1.392 . S
C424 C425 1.385 . S
C424 C426 1.478 . S
C425 H419 0.930 . S
C425 C421 1.400 . S
C425 C424 1.385 . S
C426 C424 1.478 . S
C426 C428 1.381 . S
C426 C432 1.383 . S
C427 C423 1.495 . S
C427 H433 0.959 . S
C427 H434 0.961 . S
C427 H435 0.960 . S
C428 C426 1.381 . S
C428 C429 1.394 . S
C428 H436 0.930 . S
C429 C428 1.394 . S
C429 C430 1.383 . S
C429 H437 0.929 . S
C430 C429 1.383 . S
C430 C431 1.377 . S
C431 H415 0.930 . S
C431 C430 1.377 . S
C431 C432 1.379 . S
C432 H416 0.931 . S
C432 C426 1.383 . S
C432 C431 1.379 . S
H433 C427 0.959 . S
H434 C427 0.961 . S
H435 C427 0.960 . S
H436 C428 0.930 . S
H437 C429 0.929 . S
H438 C446 0.929 . S
H439 C448 0.930 . S
H440 C450 0.930 . S
H441 C453 0.929 . S
H442 C456 0.930 . S
H443 C458 0.960 . S
H444 C458 0.960 . S
H445 C458 0.960 . S
C446 H438 0.929 . S
C446 C447 1.377 . S
C446 C448 1.384 . S
C447 C446 1.377 . S
C447 C453 1.390 . S
C448 H439 0.930 . S
C448 C446 1.384 . S
C448 C449 1.372 . S
C449 C448 1.372 . S
C449 C450 1.400 . S
C449 C454 1.490 . S
C450 H440 0.930 . S
C450 C449 1.400 . S
C450 C453 1.386 . S
H451 C467 0.930 . S
H452 C468 0.931 . S
C453 H441 0.929 . S
C453 C447 1.390 . S
C453 C450 1.386 . S
C454 C449 1.490 . S
C454 C456 1.395 . S
C454 C457 1.403 . S
H455 C461 0.930 . S
C456 H442 0.930 . S
C456 C454 1.395 . S
C456 C459 1.403 . S
C457 C454 1.403 . S
C457 C458 1.524 . S
C457 C461 1.400 . S
C458 H443 0.960 . S
C458 H444 0.960 . S
C458 H445 0.960 . S
C458 C457 1.524 . S
C459 C456 1.403 . S
C459 C460 1.392 . S
C459 C463 1.495 . S
C460 C459 1.392 . S
C460 C461 1.385 . S
C460 C462 1.478 . S
C461 H455 0.930 . S
C461 C457 1.400 . S
C461 C460 1.385 . S
C462 C460 1.478 . S
C462 C464 1.381 . S
C462 C468 1.383 . S
C463 C459 1.495 . S
C463 H469 0.959 . S
C463 H470 0.961 . S
C463 H471 0.960 . S
C464 C462 1.381 . S
C464 C465 1.394 . S
C464 H472 0.930 . S
C465 C464 1.394 . S
C465 C466 1.383 . S
C465 H473 0.929 . S
C466 C465 1.383 . S
C466 C467 1.377 . S
C467 H451 0.930 . S
C467 C466 1.377 . S
C467 C468 1.379 . S
C468 H452 0.931 . S
C468 C462 1.383 . S
C468 C467 1.379 . S
H469 C463 0.959 . S
H470 C463 0.961 . S
H471 C463 0.960 . S
H472 C464 0.930 . S
H473 C465 0.929 . S
H474 C482 0.929 . S
H475 C484 0.930 . S
H476 C486 0.930 . S
H477 C489 0.929 . S
H478 C492 0.930 . S
H479 C494 0.960 . S
H480 C494 0.960 . S
H481 C494 0.960 . S
C482 H474 0.929 . S
C482 C483 1.377 . S
C482 C484 1.384 . S
C483 C482 1.377 . S
C483 C489 1.390 . S
C484 H475 0.930 . S
C484 C482 1.384 . S
C484 C485 1.372 . S
C485 C484 1.372 . S
C485 C486 1.400 . S
C485 C490 1.490 . S
C486 H476 0.930 . S
C486 C485 1.400 . S
C486 C489 1.386 . S
H487 C503 0.930 . S
H488 C504 0.931 . S
C489 H477 0.929 . S
C489 C483 1.390 . S
C489 C486 1.386 . S
C490 C485 1.490 . S
C490 C492 1.395 . S
C490 C493 1.403 . S
H491 C497 0.930 . S
C492 H478 0.930 . S
C492 C490 1.395 . S
C492 C495 1.403 . S
C493 C490 1.403 . S
C493 C494 1.524 . S
C493 C497 1.400 . S
C494 H479 0.960 . S
C494 H480 0.960 . S
C494 H481 0.960 . S
C494 C493 1.524 . S
C495 C492 1.403 . S
C495 C496 1.392 . S
C495 C499 1.495 . S
C496 C495 1.392 . S
C496 C497 1.385 . S
C496 C498 1.478 . S
C497 H491 0.930 . S
C497 C493 1.400 . S
C497 C496 1.385 . S
C498 C496 1.478 . S
C498 C500 1.381 . S
C498 C504 1.383 . S
C499 C495 1.495 . S
C499 H505 0.959 . S
C499 H506 0.961 . S
C499 H507 0.960 . S
C500 C498 1.381 . S
C500 C501 1.394 . S
C500 H508 0.930 . S
C501 C500 1.394 . S
C501 C502 1.383 . S
C501 H509 0.929 . S
C502 C501 1.383 . S
C502 C503 1.377 . S
C503 H487 0.930 . S
C503 C502 1.377 . S
C503 C504 1.379 . S
C504 H488 0.931 . S
C504 C498 1.383 . S
C504 C503 1.379 . S
H505 C499 0.959 . S
H506 C499 0.961 . S
H507 C499 0.960 . S
H508 C500 0.930 . S
H509 C501 0.929 . S
H510 C518 0.929 . S
H511 C520 0.930 . S
H512 C522 0.930 . S
H513 C525 0.929 . S
H514 C528 0.930 . S
H515 C530 0.960 . S
H516 C530 0.960 . S
H517 C530 0.960 . S
C518 H510 0.929 . S
C518 C519 1.377 . S
C518 C520 1.384 . S
C519 C518 1.377 . S
C519 C525 1.390 . S
C520 H511 0.930 . S
C520 C518 1.384 . S
C520 C521 1.372 . S
C521 C520 1.372 . S
C521 C522 1.400 . S
C521 C526 1.490 . S
C522 H512 0.930 . S
C522 C521 1.400 . S
C522 C525 1.386 . S
H523 C539 0.930 . S
H524 C540 0.931 . S
C525 H513 0.929 . S
C525 C519 1.390 . S
C525 C522 1.386 . S
C526 C521 1.490 . S
C526 C528 1.395 . S
C526 C529 1.403 . S
H527 C533 0.930 . S
C528 H514 0.930 . S
C528 C526 1.395 . S
C528 C531 1.403 . S
C529 C526 1.403 . S
C529 C530 1.524 . S
C529 C533 1.400 . S
C530 H515 0.960 . S
C530 H516 0.960 . S
C530 H517 0.960 . S
C530 C529 1.524 . S
C531 C528 1.403 . S
C531 C532 1.392 . S
C531 C535 1.495 . S
C532 C531 1.392 . S
C532 C533 1.385 . S
C532 C534 1.478 . S
C533 H527 0.930 . S
C533 C529 1.400 . S
C533 C532 1.385 . S
C534 C532 1.478 . S
C534 C536 1.381 . S
C534 C540 1.383 . S
C535 C531 1.495 . S
C535 H541 0.959 . S
C535 H542 0.961 . S
C535 H543 0.960 . S
C536 C534 1.381 . S
C536 C537 1.394 . S
C536 H544 0.930 . S
C537 C536 1.394 . S
C537 C538 1.383 . S
C537 H545 0.929 . S
C538 C537 1.383 . S
C538 C539 1.377 . S
C539 H523 0.930 . S
C539 C538 1.377 . S
C539 C540 1.379 . S
C540 H524 0.931 . S
C540 C534 1.383 . S
C540 C539 1.379 . S
H541 C535 0.959 . S
H542 C535 0.961 . S
H543 C535 0.960 . S
H544 C536 0.930 . S
H545 C537 0.929 . S
H546 C554 0.929 1_655 S
H547 C556 0.930 1_655 S
H548 C558 0.930 . S
H549 C561 0.929 . S
H550 C564 0.930 . S
H551 C566 0.960 . S
H552 C566 0.960 1_655 S
H553 C566 0.960 . S
C554 H546 0.929 1_455 S
C554 C555 1.377 . S
C554 C556 1.384 . S
C555 C554 1.377 . S
C555 C561 1.390 . S
C556 H547 0.930 1_455 S
C556 C554 1.384 . S
C556 C557 1.372 . S
C557 C556 1.372 . S
C557 C558 1.400 . S
C557 C562 1.490 . S
C558 H548 0.930 . S
C558 C557 1.400 . S
C558 C561 1.386 . S
H559 C575 0.930 . S
H560 C576 0.931 . S
C561 H549 0.929 . S
C561 C555 1.390 . S
C561 C558 1.386 . S
C562 C557 1.490 . S
C562 C564 1.395 . S
C562 C565 1.403 . S
H563 C569 0.908 1_556 S
C564 H550 0.930 . S
C564 C562 1.395 . S
C564 C567 1.403 . S
C565 C562 1.403 . S
C565 C566 1.524 . S
C565 C569 1.400 . S
C566 H551 0.960 . S
C566 H552 0.960 1_455 S
C566 H553 0.960 . S
C566 C565 1.524 . S
C567 C564 1.403 . S
C567 C568 1.398 . S
C567 C571 1.495 . S
C568 C567 1.398 . S
C568 C569 1.389 . S
C568 C570 1.469 1_554 S
C569 H563 0.908 1_554 S
C569 C565 1.400 . S
C569 C568 1.389 . S
C570 C568 1.469 1_556 S
C570 C572 1.381 . S
C570 C576 1.383 . S
C571 C567 1.495 . S
C571 H577 0.959 . S
C571 H578 0.961 1_554 S
C571 H579 0.960 1_554 S
C572 C570 1.381 . S
C572 C573 1.394 . S
C572 H580 0.930 . S
C573 C572 1.394 . S
C573 C574 1.383 . S
C573 H581 0.929 . S
C574 C573 1.383 . S
C574 C575 1.377 . S
C575 H559 0.930 . S
C575 C574 1.377 . S
C575 C576 1.379 . S
C576 H560 0.931 . S
C576 C570 1.383 . S
C576 C575 1.379 . S
H577 C571 0.959 . S
H578 C571 0.961 1_556 S
H579 C571 0.960 1_556 S
H580 C572 0.930 . S
H581 C573 0.929 . S
H582 C590 0.929 . S
H583 C592 0.930 . S
H584 C594 0.930 1_565 S
H585 C597 0.929 1_565 S
H586 C600 0.921 1_565 S
H587 C602 0.960 . S
H588 C602 0.960 . S
H589 C602 0.960 . S
C590 H582 0.929 . S
C590 C591 1.377 . S
C590 C592 1.384 . S
C591 C590 1.377 . S
C591 C597 1.390 . S
C592 H583 0.930 . S
C592 C590 1.384 . S
C592 C593 1.372 . S
C593 C592 1.372 . S
C593 C594 1.400 . S
C593 C598 1.490 . S
C594 H584 0.930 1_545 S
C594 C593 1.400 . S
C594 C597 1.386 . S
H595 C611 0.930 . S
H596 C612 0.931 . S
C597 H585 0.929 1_545 S
C597 C591 1.390 . S
C597 C594 1.386 . S
C598 C593 1.490 . S
C598 C600 1.395 . S
C598 C601 1.403 . S
H599 C605 0.930 . S
C600 H586 0.921 1_545 S
C600 C598 1.395 . S
C600 C603 1.403 . S
C601 C598 1.403 . S
C601 C602 1.524 . S
C601 C605 1.400 . S
C602 H587 0.960 . S
C602 H588 0.960 . S
C602 H589 0.960 . S
C602 C601 1.524 . S
C603 C600 1.403 . S
C603 C604 1.392 . S
C603 C607 1.495 1_545 S
C604 C603 1.392 . S
C604 C605 1.385 . S
C604 C606 1.478 . S
C605 H599 0.930 . S
C605 C601 1.400 . S
C605 C604 1.385 . S
C606 C604 1.478 . S
C606 C608 1.381 . S
C606 C612 1.383 1_545 S
C607 C603 1.495 1_565 S
C607 H613 0.959 . S
C607 H614 0.961 . S
C607 H615 0.960 1_565 S
C608 C606 1.381 . S
C608 C609 1.394 . S
C608 H616 0.930 . S
C609 C608 1.394 . S
C609 C610 1.383 . S
C609 H617 0.929 . S
C610 C609 1.383 . S
C610 C611 1.377 1_545 S
C611 H595 0.930 . S
C611 C610 1.377 1_565 S
C611 C612 1.379 . S
C612 H596 0.931 . S
C612 C606 1.383 1_565 S
C612 C611 1.379 . S
H613 C607 0.959 . S
H614 C607 0.961 . S
H615 C607 0.960 1_545 S
H616 C608 0.930 . S
H617 C609 0.929 . S
H618 C626 0.929 . S
H619 C628 0.930 . S
H620 C630 0.930 . S
H621 C633 0.929 . S
H622 C636 0.930 . S
H623 C638 0.960 . S
H624 C638 0.960 . S
H625 C638 0.960 . S
C626 H618 0.929 . S
C626 C627 1.377 . S
C626 C628 1.384 . S
C627 C626 1.377 . S
C627 C633 1.390 . S
C628 H619 0.930 . S
C628 C626 1.384 . S
C628 C629 1.372 . S
C629 C628 1.372 . S
C629 C630 1.400 . S
C629 C634 1.490 . S
C630 H620 0.930 . S
C630 C629 1.400 . S
C630 C633 1.386 . S
H631 C647 0.930 . S
H632 C648 0.931 . S
C633 H621 0.929 . S
C633 C627 1.390 . S
C633 C630 1.386 . S
C634 C629 1.490 . S
C634 C636 1.395 . S
C634 C637 1.403 . S
H635 C641 0.930 . S
C636 H622 0.930 . S
C636 C634 1.395 . S
C636 C639 1.403 . S
C637 C634 1.403 . S
C637 C638 1.524 . S
C637 C641 1.400 . S
C638 H623 0.960 . S
C638 H624 0.960 . S
C638 H625 0.960 . S
C638 C637 1.524 . S
C639 C636 1.403 . S
C639 C640 1.392 . S
C639 C643 1.495 . S
C640 C639 1.392 . S
C640 C641 1.385 . S
C640 C642 1.478 . S
C641 H635 0.930 . S
C641 C637 1.400 . S
C641 C640 1.385 . S
C642 C640 1.478 . S
C642 C644 1.381 . S
C642 C648 1.383 . S
C643 C639 1.495 . S
C643 H649 0.959 . S
C643 H650 0.961 . S
C643 H651 0.960 . S
C644 C642 1.381 . S
C644 C645 1.394 . S
C644 H652 0.930 . S
C645 C644 1.394 . S
C645 C646 1.383 . S
C645 H653 0.929 . S
C646 C645 1.383 . S
C646 C647 1.377 . S
C647 H631 0.930 . S
C647 C646 1.377 . S
C647 C648 1.379 . S
C648 H632 0.931 . S
C648 C642 1.383 . S
C648 C647 1.379 . S
H649 C643 0.959 . S
H650 C643 0.961 . S
H651 C643 0.960 . S
H652 C644 0.930 . S
H653 C645 0.929 . S
H654 C662 0.929 . S
H655 C664 0.930 . S
H656 C666 0.930 . S
H657 C669 0.929 . S
H658 C672 0.930 . S
H659 C674 0.960 . S
H660 C674 0.960 1_565 S
H661 C674 0.960 . S
C662 H654 0.929 . S
C662 C663 1.377 . S
C662 C664 1.384 . S
C663 C662 1.377 . S
C663 C669 1.390 . S
C664 H655 0.930 . S
C664 C662 1.384 . S
C664 C665 1.372 . S
C665 C664 1.372 . S
C665 C666 1.400 . S
C665 C670 1.490 . S
C666 H656 0.930 . S
C666 C665 1.400 . S
C666 C669 1.386 . S
H667 C683 0.930 . S
H668 C684 0.931 . S
C669 H657 0.929 . S
C669 C663 1.390 . S
C669 C666 1.386 . S
C670 C665 1.490 . S
C670 C672 1.395 . S
C670 C673 1.403 . S
H671 C677 0.930 . S
C672 H658 0.930 . S
C672 C670 1.395 . S
C672 C675 1.403 . S
C673 C670 1.403 . S
C673 C674 1.524 . S
C673 C677 1.400 . S
C674 H659 0.960 . S
C674 H660 0.960 1_545 S
C674 H661 0.960 . S
C674 C673 1.524 . S
C675 C672 1.403 . S
C675 C676 1.392 . S
C675 C679 1.495 . S
C676 C675 1.392 . S
C676 C677 1.385 . S
C676 C678 1.478 . S
C677 H671 0.930 . S
C677 C673 1.400 . S
C677 C676 1.385 . S
C678 C676 1.478 . S
C678 C680 1.381 . S
C678 C684 1.383 . S
C679 C675 1.495 . S
C679 H685 0.959 . S
C679 H686 0.961 . S
C679 H687 0.960 . S
C680 C678 1.381 . S
C680 C681 1.394 . S
C680 H688 0.930 . S
C681 C680 1.394 . S
C681 C682 1.383 . S
C681 H689 0.929 . S
C682 C681 1.383 . S
C682 C683 1.377 . S
C683 H667 0.930 . S
C683 C682 1.377 . S
C683 C684 1.379 . S
C684 H668 0.931 . S
C684 C678 1.383 . S
C684 C683 1.379 . S
H685 C679 0.959 . S
H686 C679 0.961 . S
H687 C679 0.960 . S
H688 C680 0.930 . S
H689 C681 0.929 . S
H690 C698 0.929 . S
H691 C700 0.930 . S
H692 C702 0.930 . S
H693 C705 0.929 . S
H694 C708 0.930 . S
H695 C710 0.960 . S
H696 C710 0.960 . S
H697 C710 0.960 . S
C698 H690 0.929 . S
C698 C699 1.377 . S
C698 C700 1.384 . S
C699 C698 1.377 . S
C699 C705 1.390 . S
C700 H691 0.930 . S
C700 C698 1.384 . S
C700 C701 1.372 . S
C701 C700 1.372 . S
C701 C702 1.400 . S
C701 C706 1.490 . S
C702 H692 0.930 . S
C702 C701 1.400 . S
C702 C705 1.386 . S
H703 C719 0.930 . S
H704 C720 0.931 . S
C705 H693 0.929 . S
C705 C699 1.390 . S
C705 C702 1.386 . S
C706 C701 1.490 . S
C706 C708 1.395 . S
C706 C709 1.403 . S
H707 C713 0.930 1_554 S
C708 H694 0.930 . S
C708 C706 1.395 . S
C708 C711 1.403 . S
C709 C706 1.403 . S
C709 C710 1.524 . S
C709 C713 1.400 . S
C710 H695 0.960 . S
C710 H696 0.960 . S
C710 H697 0.960 . S
C710 C709 1.524 . S
C711 C708 1.403 . S
C711 C712 1.392 1_556 S
C711 C715 1.495 . S
C712 C711 1.392 1_554 S
C712 C713 1.385 1_554 S
C712 C714 1.478 . S
C713 H707 0.930 1_556 S
C713 C709 1.400 . S
C713 C712 1.385 1_556 S
C714 C712 1.478 . S
C714 C716 1.381 . S
C714 C720 1.383 . S
C715 C711 1.495 . S
C715 H721 0.959 . S
C715 H722 0.961 1_556 S
C715 H723 0.960 1_556 S
C716 C714 1.381 . S
C716 C717 1.394 . S
C716 H724 0.930 . S
C717 C716 1.394 . S
C717 C718 1.383 . S
C717 H725 0.929 . S
C718 C717 1.383 . S
C718 C719 1.377 . S
C719 H703 0.930 . S
C719 C718 1.377 . S
C719 C720 1.379 . S
C720 H704 0.931 . S
C720 C714 1.383 . S
C720 C719 1.379 . S
H721 C715 0.959 . S
H722 C715 0.961 1_554 S
H723 C715 0.960 1_554 S
H724 C716 0.930 . S
H725 C717 0.929 . S
H726 C734 0.929 . S
H727 C736 0.930 . S
H728 C738 0.930 . S
H729 C741 0.929 . S
H730 C744 0.930 . S
H731 C746 0.960 . S
H732 C746 0.960 . S
H733 C746 0.960 . S
C734 H726 0.929 . S
C734 C735 1.377 . S
C734 C736 1.384 . S
C735 C734 1.377 . S
C735 C741 1.390 . S
C736 H727 0.930 . S
C736 C734 1.384 . S
C736 C737 1.372 . S
C737 C736 1.372 . S
C737 C738 1.400 . S
C737 C742 1.490 . S
C738 H728 0.930 . S
C738 C737 1.400 . S
C738 C741 1.386 . S
H739 C755 0.930 1_655 S
H740 C756 0.931 1_655 S
C741 H729 0.929 . S
C741 C735 1.390 . S
C741 C738 1.386 . S
C742 C737 1.490 . S
C742 C744 1.395 1_455 S
C742 C745 1.403 . S
H743 C749 0.930 . S
C744 H730 0.930 . S
C744 C742 1.395 1_655 S
C744 C747 1.403 . S
C745 C742 1.403 . S
C745 C746 1.524 . S
C745 C749 1.400 . S
C746 H731 0.960 . S
C746 H732 0.960 . S
C746 H733 0.960 . S
C746 C745 1.524 . S
C747 C744 1.403 . S
C747 C748 1.392 1_655 S
C747 C751 1.495 . S
C748 C747 1.392 1_455 S
C748 C749 1.385 . S
C748 C750 1.478 . S
C749 H743 0.930 . S
C749 C745 1.400 . S
C749 C748 1.385 . S
C750 C748 1.478 . S
C750 C752 1.381 . S
C750 C756 1.383 . S
C751 C747 1.495 . S
C751 H757 0.959 . S
C751 H758 0.961 . S
C751 H759 0.960 . S
C752 C750 1.381 . S
C752 C753 1.394 . S
C752 H760 0.930 . S
C753 C752 1.394 . S
C753 C754 1.383 . S
C753 H761 0.929 . S
C754 C753 1.383 . S
C754 C755 1.377 . S
C755 H739 0.930 1_455 S
C755 C754 1.377 . S
C755 C756 1.379 . S
C756 H740 0.931 1_455 S
C756 C750 1.383 . S
C756 C755 1.379 . S
H757 C751 0.959 . S
H758 C751 0.961 . S
H759 C751 0.960 . S
H760 C752 0.930 . S
H761 C753 0.929 . S
C123 C2 0.970 . S
C142 C109 0.958 . S
C159 C21 0.915 . S
C178 C91 0.910 . S
C195 C42 0.961 . S
C214 C103 0.953 . S
C231 C1 0.898 . S
C250 C112 0.887 . S
C286 C94 0.980 . S
C267 C22 0.960 . S
C322 C100 0.926 . S
C303 C41 0.911 . S
C339 C38 1.727 . S
C358 C73 1.746 . S
C375 C59 1.816 . S
C394 C82 1.781 1_655 S
C411 C18 1.734 . S
C430 C64 1.734 . S
C466 C76 1.768 . S
C447 C39 1.799 . S
C502 C85 1.703 . S
C483 C58 1.713 . S
C519 C19 1.799 . S
C538 C67 1.781 . S
C574 C83 1.567 . S
C555 C9 1.506 . S
C591 C29 1.505 . S
C610 C65 1.569 . S
C627 C49 1.502 . S
C646 C74 1.567 . S
C682 C101 1.387 . S
C663 C28 1.355 . S
C718 C110 1.386 . S
C699 C48 1.354 . S
C735 C8 1.358 . S
C754 C92 1.387 . S
