# Generated by pormake.
# Topology pyr, (3,6)-cn, num edge types: 1
# Building blocks:
#     Node 0, Type 0, BuildingBlock: BELTOD_clean_linker_0, # of connection points: 3
#     Node 1, Type 0, BuildingBlock: BELTOD_clean_linker_0, # of connection points: 3
#     Node 2, Type 0, BuildingBlock: BELTOD_clean_linker_0, # of connection points: 3
#     Node 3, Type 0, BuildingBlock: BELTOD_clean_linker_0, # of connection points: 3
#     Node 4, Type 0, BuildingBlock: BELTOD_clean_linker_0, # of connection points: 3
#     Node 5, Type 0, BuildingBlock: BELTOD_clean_linker_0, # of connection points: 3
#     Node 6, Type 0, BuildingBlock: BELTOD_clean_linker_0, # of connection points: 3
#     Node 7, Type 0, BuildingBlock: BELTOD_clean_linker_0, # of connection points: 3
#     Node 8, Type 1, BuildingBlock: PAMTUU_clean_sbu_0, # of connection points: 6
#     Node 9, Type 1, BuildingBlock: PAMTUU_clean_sbu_0, # of connection points: 6
#     Node 10, Type 1, BuildingBlock: PAMTUU_clean_sbu_0, # of connection points: 6
#     Node 11, Type 1, BuildingBlock: PAMTUU_clean_sbu_0, # of connection points: 6
#     Edge 12, Type (0, 1), BuildingBlock: TEMPAE_clean_linker_10, # of connection points: 2
#     Edge 13, Type (0, 1), BuildingBlock: TEMPAE_clean_linker_10, # of connection points: 2
#     Edge 14, Type (0, 1), BuildingBlock: TEMPAE_clean_linker_10, # of connection points: 2
#     Edge 15, Type (0, 1), BuildingBlock: TEMPAE_clean_linker_10, # of connection points: 2
#     Edge 16, Type (0, 1), BuildingBlock: TEMPAE_clean_linker_10, # of connection points: 2
#     Edge 17, Type (0, 1), BuildingBlock: TEMPAE_clean_linker_10, # of connection points: 2
#     Edge 18, Type (0, 1), BuildingBlock: TEMPAE_clean_linker_10, # of connection points: 2
#     Edge 19, Type (0, 1), BuildingBlock: TEMPAE_clean_linker_10, # of connection points: 2
#     Edge 20, Type (0, 1), BuildingBlock: TEMPAE_clean_linker_10, # of connection points: 2
#     Edge 21, Type (0, 1), BuildingBlock: TEMPAE_clean_linker_10, # of connection points: 2
#     Edge 22, Type (0, 1), BuildingBlock: TEMPAE_clean_linker_10, # of connection points: 2
#     Edge 23, Type (0, 1), BuildingBlock: TEMPAE_clean_linker_10, # of connection points: 2
#     Edge 24, Type (0, 1), BuildingBlock: TEMPAE_clean_linker_10, # of connection points: 2
#     Edge 25, Type (0, 1), BuildingBlock: TEMPAE_clean_linker_10, # of connection points: 2
#     Edge 26, Type (0, 1), BuildingBlock: TEMPAE_clean_linker_10, # of connection points: 2
#     Edge 27, Type (0, 1), BuildingBlock: TEMPAE_clean_linker_10, # of connection points: 2
#     Edge 28, Type (0, 1), BuildingBlock: TEMPAE_clean_linker_10, # of connection points: 2
#     Edge 29, Type (0, 1), BuildingBlock: TEMPAE_clean_linker_10, # of connection points: 2
#     Edge 30, Type (0, 1), BuildingBlock: TEMPAE_clean_linker_10, # of connection points: 2
#     Edge 31, Type (0, 1), BuildingBlock: TEMPAE_clean_linker_10, # of connection points: 2
#     Edge 32, Type (0, 1), BuildingBlock: TEMPAE_clean_linker_10, # of connection points: 2
#     Edge 33, Type (0, 1), BuildingBlock: TEMPAE_clean_linker_10, # of connection points: 2
#     Edge 34, Type (0, 1), BuildingBlock: TEMPAE_clean_linker_10, # of connection points: 2
#     Edge 35, Type (0, 1), BuildingBlock: TEMPAE_clean_linker_10, # of connection points: 2
# Relax obj value: 0.096
# Max RMSD: 0.129
# Mean RMSD: 0.053
data_MOF--net-pyr--node1-PAMTUU_clean_sbu_0--node2-BELTOD_clean_linker_0--edge1-TEMPAE_clean_linker_10
_symmetry_space_group_name_H-M    P1
_symmetry_Int_Tables_number       1
_symmetry_cell_setting            triclinic
loop_
_symmetry_equiv_pos_as_xyz
'x, y, z'
_cell_length_a     43.67349
_cell_length_b     45.524689
_cell_length_c     43.830994
_cell_angle_alpha  90.077749
_cell_angle_beta   89.182494
_cell_angle_gamma 99.708275
loop_
_atom_site_label
_atom_site_type_symbol
_atom_site_fract_x
_atom_site_fract_y
_atom_site_fract_z
_atom_type_partial_charge
P0 P 0.36572 0.29742 0.23142 0.0
H1 H 0.39275 0.29416 0.16971 0.0
H2 H 0.41643 0.25551 0.14398 0.0
H3 H 0.40737 0.20385 0.22724 0.0
H4 H 0.38332 0.24203 0.25246 0.0
H5 H 0.34998 0.35701 0.23358 0.0
H6 H 0.31167 0.37994 0.20637 0.0
H7 H 0.29174 0.30194 0.149 0.0
H8 H 0.33081 0.27968 0.17563 0.0
H9 H 0.3629 0.29456 0.29861 0.0
H10 H 0.30868 0.25525 0.22289 0.0
O11 O 0.392 0.32187 0.24961 0.0
H12 H 0.32741 0.26356 0.33409 0.0
H13 H 0.27274 0.22533 0.25793 0.0
C14 C 0.38518 0.27043 0.21261 0.0
C15 C 0.39574 0.27443 0.18232 0.0
C16 C 0.40952 0.25246 0.16775 0.0
C17 C 0.4133 0.22639 0.18347 0.0
C18 C 0.40407 0.22329 0.21429 0.0
C19 C 0.39032 0.24518 0.22874 0.0
C20 C 0.34363 0.31685 0.20635 0.0
C21 C 0.3381 0.34527 0.21449 0.0
C22 C 0.31588 0.35819 0.19916 0.0
C23 C 0.29836 0.34265 0.17571 0.0
C24 C 0.30502 0.31471 0.16668 0.0
C25 C 0.32742 0.30192 0.18193 0.0
C26 C 0.33817 0.27752 0.25814 0.0
C27 C 0.34307 0.27974 0.28965 0.0
C28 C 0.32274 0.26207 0.30989 0.0
C29 C 0.29735 0.24188 0.29879 0.0
C30 C 0.29231 0.24031 0.2672 0.0
C31 C 0.31266 0.25776 0.24711 0.0
P32 P 0.21307 0.7978 0.67856 0.0
H33 H 0.27212 0.79207 0.7048 0.0
H34 H 0.29444 0.8039 0.75495 0.0
H35 H 0.20735 0.82732 0.7864 0.0
H36 H 0.18468 0.81337 0.73697 0.0
H37 H 0.22526 0.77212 0.6198 0.0
H38 H 0.24279 0.72561 0.6071 0.0
H39 H 0.22046 0.69366 0.69895 0.0
H40 H 0.2035 0.74082 0.71163 0.0
H41 H 0.19345 0.85373 0.692 0.0
H42 H 0.15291 0.76926 0.65313 0.0
O43 O 0.23851 0.82008 0.65655 0.0
H44 H 0.14701 0.87407 0.6801 0.0
H45 H 0.10595 0.7897 0.64083 0.0
C46 C 0.22712 0.80277 0.71689 0.0
C47 C 0.25773 0.79932 0.7227 0.0
C48 C 0.27049 0.80626 0.75133 0.0
C49 C 0.25295 0.81727 0.77455 0.0
C50 C 0.22158 0.81889 0.76914 0.0
C51 C 0.20868 0.81138 0.7406 0.0
C52 C 0.2141 0.76017 0.66686 0.0
C53 C 0.22321 0.75475 0.63693 0.0
C54 C 0.23304 0.72795 0.62965 0.0
C55 C 0.2337 0.70614 0.65224 0.0
C56 C 0.22087 0.71031 0.68125 0.0
C57 C 0.21108 0.7372 0.6885 0.0
C58 C 0.17639 0.80991 0.67389 0.0
C59 C 0.17411 0.83931 0.68163 0.0
C60 C 0.14746 0.85087 0.67493 0.0
C61 C 0.12267 0.83338 0.65982 0.0
C62 C 0.12467 0.80361 0.65262 0.0
C63 C 0.15141 0.79192 0.65968 0.0
P64 P 0.67885 0.34636 0.82913 0.0
H65 H 0.74202 0.33517 0.84001 0.0
H66 H 0.78615 0.3609 0.86828 0.0
H67 H 0.73251 0.42826 0.89536 0.0
H68 H 0.68792 0.40197 0.86675 0.0
H69 H 0.62235 0.30178 0.81753 0.0
H70 H 0.59588 0.25842 0.84623 0.0
H71 H 0.65907 0.28109 0.92047 0.0
H72 H 0.68439 0.32529 0.89255 0.0
H73 H 0.70377 0.39572 0.78846 0.0
H74 H 0.61244 0.35045 0.81405 0.0
O75 O 0.69492 0.32599 0.80375 0.0
H76 H 0.68154 0.42249 0.74849 0.0
H77 H 0.59002 0.37598 0.77305 0.0
C78 C 0.71155 0.3668 0.85054 0.0
C79 C 0.73963 0.35563 0.85171 0.0
C80 C 0.76512 0.37053 0.86796 0.0
C81 C 0.76341 0.39707 0.88402 0.0
C82 C 0.73492 0.40793 0.88342 0.0
C83 C 0.70934 0.39299 0.86688 0.0
C84 C 0.65471 0.31811 0.85311 0.0
C85 C 0.62964 0.29846 0.84058 0.0
C86 C 0.61473 0.27322 0.85689 0.0
C87 C 0.62524 0.26611 0.88577 0.0
C88 C 0.65028 0.28577 0.89834 0.0
C89 C 0.66465 0.3114 0.88235 0.0
C90 C 0.66007 0.37088 0.80475 0.0
C91 C 0.67879 0.39175 0.78584 0.0
C92 C 0.66595 0.40679 0.76239 0.0
C93 C 0.63375 0.40131 0.75661 0.0
C94 C 0.61484 0.38118 0.77644 0.0
C95 C 0.62778 0.36622 0.80007 0.0
P96 P 0.84436 0.68911 0.32573 0.0
H97 H 0.86024 0.75203 0.30823 0.0
H98 H 0.88402 0.79673 0.33477 0.0
H99 H 0.9062 0.74274 0.40972 0.0
H100 H 0.88073 0.69784 0.38319 0.0
H101 H 0.82159 0.6487 0.27636 0.0
H102 H 0.84605 0.62234 0.23718 0.0
H103 H 0.93622 0.65771 0.27347 0.0
H104 H 0.91102 0.68326 0.31381 0.0
H105 H 0.8145 0.70298 0.38329 0.0
H106 H 0.81588 0.62498 0.32775 0.0
O107 O 0.81929 0.70363 0.30438 0.0
H108 H 0.77269 0.67529 0.41473 0.0
H109 H 0.7735 0.59754 0.35859 0.0
C110 C 0.86824 0.72131 0.34368 0.0
C111 C 0.87043 0.74961 0.33026 0.0
C112 C 0.88437 0.77544 0.34559 0.0
C113 C 0.89715 0.77393 0.37482 0.0
C114 C 0.89618 0.74525 0.38764 0.0
C115 C 0.88193 0.71932 0.37226 0.0
C116 C 0.86425 0.66792 0.29844 0.0
C117 C 0.84664 0.65053 0.27629 0.0
C118 C 0.86084 0.63567 0.25341 0.0
C119 C 0.89341 0.63794 0.25145 0.0
C120 C 0.91112 0.65504 0.27409 0.0
C121 C 0.89672 0.66984 0.29728 0.0
C122 C 0.8192 0.66614 0.3533 0.0
C123 C 0.80658 0.67967 0.37829 0.0
C124 C 0.78237 0.66381 0.39623 0.0
C125 C 0.76949 0.63415 0.38918 0.0
C126 C 0.78261 0.6204 0.36458 0.0
C127 C 0.80716 0.63615 0.34695 0.0
P128 P 0.72229 0.7959 0.87023 0.0
H129 H 0.69949 0.80564 0.93149 0.0
H130 H 0.65314 0.82405 0.94907 0.0
H131 H 0.61477 0.81137 0.85869 0.0
H132 H 0.66173 0.79341 0.84111 0.0
H133 H 0.76661 0.76921 0.83407 0.0
H134 H 0.78657 0.72292 0.83887 0.0
H135 H 0.72195 0.69604 0.91309 0.0
H136 H 0.70072 0.74239 0.90719 0.0
H137 H 0.73743 0.85796 0.85223 0.0
H138 H 0.71515 0.77297 0.80722 0.0
O139 O 0.74836 0.81546 0.89314 0.0
H140 H 0.74815 0.88256 0.803 0.0
H141 H 0.72837 0.79695 0.75791 0.0
C142 C 0.68434 0.79897 0.88486 0.0
C143 C 0.68074 0.80601 0.91565 0.0
C144 C 0.65406 0.81639 0.92572 0.0
C145 C 0.63047 0.81974 0.90511 0.0
C146 C 0.63283 0.80963 0.87494 0.0
C147 C 0.65959 0.79923 0.86491 0.0
C148 C 0.7312 0.75878 0.86938 0.0
C149 C 0.75538 0.75277 0.85024 0.0
C150 C 0.76696 0.72626 0.8531 0.0
C151 C 0.75546 0.7057 0.87602 0.0
C152 C 0.73082 0.71137 0.89491 0.0
C153 C 0.71868 0.73776 0.89152 0.0
C154 C 0.72709 0.81355 0.83339 0.0
C155 C 0.73522 0.84455 0.83169 0.0
C156 C 0.74152 0.85854 0.80349 0.0
C157 C 0.74021 0.84168 0.77644 0.0
C158 C 0.72984 0.81071 0.77817 0.0
C159 C 0.72276 0.79685 0.80644 0.0
P160 P 0.86983 0.29354 0.31024 0.0
H161 H 0.86701 0.34601 0.34856 0.0
H162 H 0.8238 0.36359 0.37551 0.0
H163 H 0.76177 0.28449 0.34712 0.0
H164 H 0.8047 0.267 0.32066 0.0
H165 H 0.93261 0.27979 0.30557 0.0
H166 H 0.9574 0.24168 0.33019 0.0
H167 H 0.87594 0.21703 0.38759 0.0
H168 H 0.8514 0.25495 0.36304 0.0
H169 H 0.84091 0.31045 0.25483 0.0
H170 H 0.85828 0.22926 0.29691 0.0
O171 O 0.89435 0.32312 0.29722 0.0
H172 H 0.80758 0.28091 0.21734 0.0
H173 H 0.8254 0.20007 0.25981 0.0
C174 C 0.8389 0.30564 0.33193 0.0
C175 C 0.84412 0.33246 0.34827 0.0
C176 C 0.8195 0.34238 0.36375 0.0
C177 C 0.78939 0.32557 0.36299 0.0
C178 C 0.78461 0.29816 0.34757 0.0
C179 C 0.80918 0.28819 0.3324 0.0
C180 C 0.89044 0.27059 0.33288 0.0
C181 C 0.92048 0.26671 0.32403 0.0
C182 C 0.93454 0.24488 0.33799 0.0
C183 C 0.91845 0.22628 0.36058 0.0
C184 C 0.88871 0.23086 0.36998 0.0
C185 C 0.87482 0.2528 0.35622 0.0
C186 C 0.85233 0.27217 0.27853 0.0
C187 C 0.83833 0.28637 0.25546 0.0
C188 C 0.81927 0.26952 0.23416 0.0
C189 C 0.81371 0.23826 0.23598 0.0
C190 C 0.82901 0.22416 0.25817 0.0
C191 C 0.84808 0.24094 0.27929 0.0
P192 P 0.37083 0.67043 0.195 0.0
H193 H 0.34879 0.66538 0.1326 0.0
H194 H 0.2996 0.6447 0.109 0.0
H195 H 0.258 0.62555 0.19827 0.0
H196 H 0.30759 0.64697 0.22182 0.0
H197 H 0.43211 0.70493 0.17921 0.0
H198 H 0.44938 0.755 0.15873 0.0
H199 H 0.35622 0.77383 0.16895 0.0
H200 H 0.33893 0.72325 0.18921 0.0
H201 H 0.35148 0.61395 0.22796 0.0
H202 H 0.40723 0.69893 0.24746 0.0
O203 O 0.39409 0.65235 0.17431 0.0
H204 H 0.36778 0.59376 0.27543 0.0
H205 H 0.42335 0.67915 0.29556 0.0
C206 C 0.33231 0.65749 0.17907 0.0
C207 C 0.32909 0.65689 0.14722 0.0
C208 C 0.30082 0.64474 0.13366 0.0
C209 C 0.27457 0.63281 0.15151 0.0
C210 C 0.27751 0.63445 0.1836 0.0
C211 C 0.30602 0.64663 0.1972 0.0
C212 C 0.38407 0.70992 0.18575 0.0
C213 C 0.41533 0.71983 0.17743 0.0
C214 C 0.4252 0.74857 0.16539 0.0
C215 C 0.40423 0.76864 0.16163 0.0
C216 C 0.37316 0.75919 0.17144 0.0
C217 C 0.36319 0.73017 0.18317 0.0
C218 C 0.37707 0.65845 0.2342 0.0
C219 C 0.36637 0.62872 0.24299 0.0
C220 C 0.37597 0.61705 0.27038 0.0
C221 C 0.39709 0.63455 0.28999 0.0
C222 C 0.40741 0.66457 0.28129 0.0
C223 C 0.39773 0.67622 0.2538 0.0
P224 P 0.17618 0.34166 0.71481 0.0
H225 H 0.19767 0.29672 0.67692 0.0
H226 H 0.172 0.25338 0.64893 0.0
H227 H 0.08266 0.2756 0.67385 0.0
H228 H 0.10885 0.31963 0.70152 0.0
H229 H 0.23432 0.37998 0.73119 0.0
H230 H 0.27814 0.40644 0.70142 0.0
H231 H 0.22831 0.38172 0.61834 0.0
H232 H 0.18421 0.35574 0.64848 0.0
H233 H 0.12712 0.32171 0.76025 0.0
H234 H 0.176 0.40596 0.72726 0.0
O235 O 0.19616 0.32408 0.73893 0.0
H236 H 0.10363 0.34711 0.8013 0.0
H237 H 0.15218 0.43174 0.76792 0.0
C238 C 0.15536 0.31164 0.69145 0.0
C239 C 0.17253 0.29252 0.67617 0.0
C240 C 0.15771 0.26741 0.66034 0.0
C241 C 0.12507 0.26043 0.65928 0.0
C242 C 0.1078 0.28014 0.67396 0.0
C243 C 0.12278 0.3054 0.68994 0.0
C244 C 0.2059 0.36557 0.69223 0.0
C245 C 0.23258 0.38056 0.70658 0.0
C246 C 0.25787 0.39549 0.68941 0.0
C247 C 0.25726 0.39593 0.65726 0.0
C248 C 0.22981 0.38202 0.64298 0.0
C249 C 0.20446 0.36703 0.66025 0.0
C250 C 0.15299 0.36175 0.74001 0.0
C251 C 0.13209 0.34581 0.7612 0.0
C252 C 0.11867 0.36051 0.78492 0.0
C253 C 0.12591 0.39173 0.78845 0.0
C254 C 0.14623 0.40772 0.76654 0.0
C255 C 0.15964 0.39294 0.74281 0.0
Tb256 Tb 0.03709 0.02158 0.49722 0.0
Tb257 Tb 0.97132 0.01932 0.53398 0.0
C258 C 0.98094 0.96947 0.48554 0.0
C259 C 0.10958 0.04877 0.45418 0.0
C260 C 0.15085 0.09517 0.42588 0.0
C261 C 0.15842 0.06641 0.42799 0.0
C262 C 0.13792 0.04339 0.44205 0.0
C263 C 0.10184 0.07738 0.4522 0.0
C264 C 0.12231 0.10042 0.4381 0.0
C265 C 0.08856 0.02466 0.46947 0.0
O266 O 1.00805 0.04359 0.46783 0.0
O267 O 0.9766 0.05818 0.50497 0.0
O268 O 1.00588 0.05139 0.55841 0.0
O269 O 0.04099 0.06498 0.51954 0.0
O270 O 0.92354 0.02039 0.5322 0.0
O271 O 0.94674 0.01928 0.57539 0.0
O272 O 0.99009 0.98164 0.55127 0.0
O273 O 0.04114 1.00042 0.54109 0.0
O274 O 0.0112 0.97706 0.4883 0.0
O275 O 0.96184 0.98647 0.49683 0.0
C276 C 0.98863 0.06079 0.4774 0.0
O277 O 0.08569 0.02766 0.49887 0.0
O278 O 0.06175 0.01637 0.45664 0.0
C279 C 0.02929 0.07018 0.54645 0.0
C280 C 0.89443 0.99679 0.57375 0.0
C281 C 0.84729 0.95507 0.60127 0.0
C282 C 0.85196 0.9852 0.61015 0.0
C283 C 0.87524 1.00583 0.59644 0.0
C284 C 0.88962 0.96698 0.56414 0.0
C285 C 0.8661 0.94624 0.57775 0.0
C286 C 0.92027 0.01862 0.56181 0.0
C287 C 0.0197 0.98142 0.55527 0.0
H288 H 0.18002 0.06159 0.41838 0.0
H289 H 0.14418 0.02139 0.44346 0.0
H290 H 0.08004 0.08187 0.46167 0.0
H291 H 0.11598 0.12239 0.43705 0.0
H292 H 0.8385 0.99272 0.62864 0.0
H293 H 0.87886 0.02875 0.60422 0.0
H294 H 0.90441 0.95967 0.54663 0.0
H295 H 0.86299 0.92327 0.57026 0.0
Tb296 Tb 0.53978 0.0246 0.04736 0.0
Tb297 Tb 0.47656 0.01886 1.00739 0.0
C298 C 0.52714 0.98092 0.99164 0.0
C299 C 0.61264 0.05466 0.08901 0.0
C300 C 0.65652 0.09985 0.11525 0.0
C301 C 0.6653 0.08205 0.09153 0.0
C302 C 0.64362 0.0596 0.0787 0.0
C303 C 0.60354 0.07277 0.11227 0.0
C304 C 0.62532 0.09511 0.12534 0.0
C305 C 0.59061 0.03038 0.07521 0.0
O306 O 0.54228 0.06776 0.0246 0.0
O307 O 0.51221 0.05142 0.98369 0.0
O308 O 0.47604 0.05682 0.03704 0.0
O309 O 0.50838 0.04642 0.07485 0.0
O310 O 0.45573 0.01754 0.9646 0.0
O311 O 0.42817 0.01709 1.0061 0.0
O312 O 0.46523 0.98507 0.04362 0.0
O313 O 0.51408 0.98064 0.06009 0.0
O314 O 0.54715 1.0014 1.00512 0.0
O315 O 0.49728 0.98092 0.99384 0.0
C316 C 0.533 0.07181 0.99673 0.0
O317 O 0.56351 0.02275 0.08848 0.0
O318 O 0.58846 0.03138 0.04565 0.0
C319 C 0.48714 0.06103 0.06462 0.0
C320 C 0.40559 0.98865 0.96483 0.0
C321 C 0.36297 0.94229 0.93891 0.0
C322 C 0.35272 0.9674 0.95164 0.0
C323 C 0.3739 0.99044 0.96434 0.0
C324 C 0.41575 0.963 0.95359 0.0
C325 C 0.39468 0.94013 0.94057 0.0
C326 C 0.42778 1.01385 0.97654 0.0
C327 C 0.48393 0.97081 0.05915 0.0
H328 H 0.68898 0.08542 0.08287 0.0
H329 H 0.6511 0.04598 0.06068 0.0
H330 H 0.57974 0.06953 0.12061 0.0
H331 H 0.61786 0.10818 0.14381 0.0
H332 H 0.32841 0.96954 0.95124 0.0
H333 H 0.36561 1.00991 0.97331 0.0
H334 H 0.4401 0.96096 0.95408 0.0
H335 H 0.40352 0.92136 0.93069 0.0
Tb336 Tb 0.51479 0.48488 0.50365 0.0
Tb337 Tb 0.51224 0.54524 0.542 0.0
C338 C 0.48354 0.53761 0.47605 0.0
C339 C 0.54929 0.42539 0.46677 0.0
C340 C 0.6028 0.40201 0.44996 0.0
C341 C 0.57311 0.38681 0.44238 0.0
C342 C 0.54652 0.39853 0.45061 0.0
C343 C 0.57881 0.44009 0.47521 0.0
C344 C 0.60536 0.4286 0.46674 0.0
C345 C 0.52171 0.43887 0.47361 0.0
O346 O 0.56226 0.50998 0.50261 0.0
O347 O 0.55154 0.55685 0.51046 0.0
O348 O 0.54501 0.52247 0.56678 0.0
O349 O 0.52674 0.47516 0.55065 0.0
O350 O 0.51178 0.59132 0.54362 0.0
O351 O 0.51014 0.56546 0.58485 0.0
O352 O 0.47221 0.51341 0.55798 0.0
O353 O 0.46616 0.47927 0.51901 0.0
O354 O 0.49949 0.51592 0.47094 0.0
O355 O 0.48057 0.5477 0.50393 0.0
C356 C 0.5702 0.53908 0.50035 0.0
O357 O 0.51283 0.43837 0.50209 0.0
O358 O 0.52197 0.46498 0.46153 0.0
C359 C 0.54229 0.49341 0.57049 0.0
C360 C 0.47721 0.60159 0.5828 0.0
C361 C 0.41935 0.61769 0.59854 0.0
C362 C 0.43281 0.59871 0.61755 0.0
C363 C 0.46147 0.59083 0.60983 0.0
C364 C 0.46413 0.62124 0.56425 0.0
C365 C 0.43548 0.62914 0.57199 0.0
C366 C 0.50575 0.59055 0.57285 0.0
C367 C 0.45566 0.49073 0.54391 0.0
H368 H 0.57052 0.36637 0.42927 0.0
H369 H 0.5239 0.38693 0.4439 0.0
H370 H 0.58139 0.4607 0.48793 0.0
H371 H 0.62791 0.4406 0.47317 0.0
H372 H 0.4212 0.58999 0.63844 0.0
H373 H 0.47099 0.57583 0.62478 0.0
H374 H 0.47566 0.62997 0.54332 0.0
H375 H 0.42562 0.64368 0.55679 0.0
Tb376 Tb 0.01572 0.54607 1.00457 0.0
Tb377 Tb 0.01536 0.48484 0.04185 0.0
C378 C 0.04169 0.49235 0.97468 0.0
C379 C 0.98947 0.60091 0.95417 0.0
C380 C 0.93761 0.61404 0.9228 0.0
C381 C 0.94448 0.58493 0.92259 0.0
C382 C 0.97013 0.57838 0.93832 0.0
C383 C 0.98377 0.63021 0.95297 0.0
C384 C 0.95807 0.63675 0.93746 0.0
C385 C 0.01193 0.59341 0.97613 0.0
O386 O 0.96855 0.52127 0.99818 0.0
O387 O 0.9748 0.47408 1.01251 0.0
O388 O 0.98331 0.50921 0.06654 0.0
O389 O 1.00818 0.55525 0.05286 0.0
O390 O 0.01781 0.43904 0.04183 0.0
O391 O 0.01351 0.46261 0.08391 0.0
O392 O 0.05581 0.51516 0.05902 0.0
O393 O 0.0633 0.55121 0.02173 0.0
O394 O 0.02462 0.51313 0.97058 0.0
O395 O 0.04687 0.4837 1.0025 0.0
C396 C 0.9586 0.49225 0.99916 0.0
O397 O 1.00012 0.58702 1.0032 0.0
O398 O 0.02973 0.57461 0.96732 0.0
C399 C 0.98942 0.53809 0.07158 0.0
C400 C 0.04776 0.42751 0.08298 0.0
C401 C 0.10323 0.40832 0.10033 0.0
C402 C 0.09729 0.4366 0.10897 0.0
C403 C 0.06995 0.44613 0.10032 0.0
C404 C 0.05328 0.39903 0.07485 0.0
C405 C 0.08077 0.38951 0.08341 0.0
C406 C 0.02012 0.43841 0.07141 0.0
C407 C 0.07281 0.53869 0.0462 0.0
H408 H 0.92947 0.56706 0.91114 0.0
H409 H 0.974 0.55551 0.9393 0.0
H410 H 0.99818 0.64774 0.96551 0.0
H411 H 0.95328 0.6593 0.93853 0.0
H412 H 0.11381 0.45144 0.12246 0.0
H413 H 0.06645 0.46827 0.1069 0.0
H414 H 0.03663 0.3844 0.06128 0.0
H415 H 0.08474 0.36771 0.07614 0.0
C416 C 0.26695 0.19177 0.31156 0.0
C417 C 0.27668 0.22166 0.31973 0.0
C418 C 0.24662 0.17242 0.33033 0.0
C419 C 0.23594 0.18311 0.35817 0.0
C420 C 0.24606 0.21309 0.3669 0.0
C421 C 0.26632 0.23207 0.34752 0.0
C422 C 0.2364 0.14057 0.32025 0.0
C423 C 0.2352 0.22516 0.3965 0.0
C424 C 0.16118 0.13819 0.38957 0.0
C425 C 0.17245 0.11938 0.41039 0.0
C426 C 0.18156 0.15985 0.37321 0.0
C427 C 0.21394 0.16274 0.37783 0.0
C428 C 0.22538 0.14451 0.39958 0.0
C429 C 0.20448 0.12301 0.41559 0.0
C430 C 0.16852 0.17881 0.35009 0.0
C431 C 0.25975 0.14707 0.40524 0.0
H432 H 0.27537 0.18342 0.29042 0.0
H433 H 0.27359 0.25519 0.35384 0.0
H434 H 0.24295 0.12505 0.33754 0.0
H435 H 0.21073 0.13578 0.31831 0.0
H436 H 0.24687 0.1358 0.29792 0.0
H437 H 0.24595 0.24875 0.40038 0.0
H438 H 0.20958 0.22365 0.39645 0.0
H439 H 0.24088 0.21154 0.41593 0.0
H440 H 0.13647 0.1353 0.38528 0.0
H441 H 0.21323 0.10883 0.43204 0.0
H442 H 0.17607 0.17329 0.3268 0.0
H443 H 0.17759 0.20275 0.35402 0.0
H444 H 0.14272 0.17539 0.35091 0.0
H445 H 0.27158 0.14037 0.38442 0.0
H446 H 0.26468 0.13281 0.4245 0.0
H447 H 0.27005 0.17052 0.41023 0.0
C448 C 0.29813 0.84664 0.80144 0.0
C449 C 0.26811 0.82982 0.80298 0.0
C450 C 0.31177 0.8615 0.82708 0.0
C451 C 0.29484 0.85993 0.85495 0.0
C452 C 0.26503 0.84212 0.85712 0.0
C453 C 0.25204 0.82714 0.8311 0.0
C454 C 0.34376 0.88011 0.82386 0.0
C455 C 0.24632 0.83998 0.88649 0.0
C456 C 0.34445 0.88961 0.92194 0.0
C457 C 0.34145 0.91984 0.92144 0.0
C458 C 0.32781 0.86918 0.90168 0.0
C459 C 0.30754 0.87922 0.88068 0.0
C460 C 0.30263 0.90915 0.88167 0.0
C461 C 0.31979 0.92913 0.90187 0.0
C462 C 0.33359 0.83742 0.90136 0.0
C463 C 0.28094 0.92066 0.85983 0.0
H464 H 0.31058 0.84938 0.77979 0.0
H465 H 0.22903 0.81384 0.83263 0.0
H466 H 0.3421 0.90406 0.82633 0.0
H467 H 0.35909 0.87447 0.84215 0.0
H468 H 0.35486 0.87688 0.80142 0.0
H469 H 0.22527 0.82251 0.88547 0.0
H470 H 0.26066 0.83508 0.90592 0.0
H471 H 0.23891 0.8617 0.89123 0.0
H472 H 0.36063 0.8821 0.93746 0.0
H473 H 0.31747 0.95244 0.90101 0.0
H474 H 0.34783 0.83392 0.88092 0.0
H475 H 0.3114 0.82157 0.89985 0.0
H476 H 0.3461 0.83203 0.92196 0.0
H477 H 0.29118 0.9217 0.83646 0.0
H478 H 0.27666 0.94327 0.86615 0.0
H479 H 0.25832 0.90536 0.85914 0.0
C480 C 0.59039 0.42339 0.73077 0.0
C481 C 0.62037 0.41577 0.72959 0.0
C482 C 0.57769 0.43643 0.70551 0.0
C483 C 0.59516 0.44235 0.67793 0.0
C484 C 0.62543 0.43489 0.67659 0.0
C485 C 0.63749 0.42174 0.70209 0.0
C486 C 0.54537 0.4438 0.70833 0.0
C487 C 0.64514 0.44055 0.64796 0.0
C488 C 0.55258 0.44956 0.60239 0.0
C489 C 0.55635 0.48061 0.59784 0.0
C490 C 0.56485 0.437 0.62811 0.0
C491 C 0.58163 0.45568 0.65035 0.0
C492 C 0.58564 0.48704 0.64588 0.0
C493 C 0.57303 0.49904 0.61993 0.0
C494 C 0.55973 0.40354 0.63152 0.0
C495 C 0.60336 0.50804 0.66861 0.0
H496 H 0.57677 0.41946 0.75165 0.0
H497 H 0.66034 0.41561 0.70013 0.0
H498 H 0.546 0.46792 0.70413 0.0
H499 H 0.53024 0.43149 0.69078 0.0
H500 H 0.53471 0.43809 0.73118 0.0
H501 H 0.66853 0.43444 0.65066 0.0
H502 H 0.6334 0.4275 0.62878 0.0
H503 H 0.64798 0.46443 0.64154 0.0
H504 H 0.53979 0.43484 0.58579 0.0
H505 H 0.57622 0.523 0.61702 0.0
H506 H 0.54727 0.39693 0.65333 0.0
H507 H 0.58243 0.39571 0.63238 0.0
H508 H 0.54611 0.39196 0.6125 0.0
H509 H 0.59216 0.50448 0.6915 0.0
H510 H 0.60456 0.53178 0.6621 0.0
H511 H 0.62736 0.50334 0.67061 0.0
C512 C 0.8952 0.62069 0.19627 0.0
C513 C 0.90835 0.62296 0.22555 0.0
C514 C 0.90817 0.60626 0.17192 0.0
C515 C 0.93542 0.59378 0.17635 0.0
C516 C 0.94907 0.59618 0.20568 0.0
C517 C 0.93545 0.61059 0.22977 0.0
C518 C 0.89268 0.60453 0.14124 0.0
C519 C 0.97816 0.58347 0.21165 0.0
C520 C 0.95419 0.53491 0.11873 0.0
C521 C 0.97579 0.55185 0.09883 0.0
C522 C 0.94119 0.54807 0.14408 0.0
C523 C 0.94994 0.57902 0.15007 0.0
C524 C 0.97197 0.59612 0.13023 0.0
C525 C 0.98446 0.58247 0.10504 0.0
C526 C 0.91774 0.52884 0.16431 0.0
C527 C 0.98227 0.62907 0.13548 0.0
H528 H 0.87477 0.63059 0.19211 0.0
H529 H 0.94588 0.61173 0.2521 0.0
H530 H 0.90892 0.61634 0.12384 0.0
H531 H 0.88675 0.58094 0.1339 0.0
H532 H 0.87114 0.61448 0.14158 0.0
H533 H 0.98603 0.58703 0.23556 0.0
H534 H 0.97403 0.5592 0.20684 0.0
H535 H 0.99715 0.59392 0.19609 0.0
H536 H 0.9472 0.51131 0.11439 0.0
H537 H 1.00114 0.59598 0.09011 0.0
H538 H 0.89526 0.5371 0.16385 0.0
H539 H 0.92569 0.53026 0.18828 0.0
H540 H 0.9138 0.50509 0.15717 0.0
H541 H 0.96204 0.6408 0.13399 0.0
H542 H 1.00023 0.63916 0.11864 0.0
H543 H 0.9918 0.63294 0.15874 0.0
C544 C 0.45145 0.20821 0.14768 0.0
C545 C 0.42582 0.20196 0.16767 0.0
C546 C 0.46281 0.1852 0.13211 0.0
C547 C 0.44809 0.1553 0.13657 0.0
C548 C 0.42252 0.14884 0.15705 0.0
C549 C 0.41168 0.17224 0.17231 0.0
C550 C 0.49018 0.19292 0.11046 0.0
C551 C 0.40608 0.11727 0.16226 0.0
C552 C 0.45393 0.10003 0.07289 0.0
C553 C 0.47674 0.08449 0.08372 0.0
C554 C 0.44451 0.12312 0.08986 0.0
C555 C 0.45819 0.13092 0.11844 0.0
C556 C 0.48108 0.11527 0.12968 0.0
C557 C 0.4901 0.0922 0.11217 0.0
C558 C 0.41998 0.13926 0.07711 0.0
C559 C 0.49609 0.12297 0.16011 0.0
H560 H 0.46268 0.2311 0.14429 0.0
H561 H 0.39158 0.16728 0.18739 0.0
H562 H 0.50878 0.18022 0.11654 0.0
H563 H 0.48298 0.18645 0.08688 0.0
H564 H 0.49994 0.21709 0.11066 0.0
H565 H 0.38766 0.11586 0.1802 0.0
H566 H 0.3953 0.10808 0.14075 0.0
H567 H 0.42298 0.10289 0.16902 0.0
H568 H 0.44341 0.0943 0.05096 0.0
H569 H 0.50781 0.08041 0.1207 0.0
H570 H 0.42937 0.16336 0.07472 0.0
H571 H 0.39977 0.13716 0.09306 0.0
H572 H 0.41169 0.13048 0.05448 0.0
H573 H 0.5076 0.14664 0.16019 0.0
H574 H 0.51362 0.10875 0.16555 0.0
H575 H 0.47811 0.12032 0.1785 0.0
C576 C 0.08459 0.86826 0.66681 0.0
C577 C 0.09702 0.84778 0.64845 0.0
C578 C 0.0664 0.88764 0.6542 0.0
C579 C 0.06058 0.88642 0.62252 0.0
C580 C 0.07042 0.8638 0.60452 0.0
C581 C 0.08858 0.84471 0.61773 0.0
C582 C 0.05595 0.91116 0.67425 0.0
C583 C 0.06443 0.86159 0.57069 0.0
C584 C 1.0077 0.93422 0.58585 0.0
C585 C 0.02946 0.95821 0.57472 0.0
C586 C 0.01727 0.91087 0.60214 0.0
C587 C 0.04929 0.91163 0.60733 0.0
C588 C 0.07121 0.93623 0.59696 0.0
C589 C 0.06103 0.95918 0.5808 0.0
C590 C 0.99327 0.88504 0.61297 0.0
C591 C 0.10561 0.938 0.60222 0.0
H592 H 0.09065 0.87032 0.69072 0.0
H593 H 0.09819 0.829 0.60339 0.0
H594 H 0.07107 0.93292 0.66979 0.0
H595 H 0.03177 0.91377 0.66905 0.0
H596 H 0.0573 0.90582 0.69888 0.0
H597 H 0.06915 0.84019 0.56104 0.0
H598 H 0.04005 0.86372 0.56584 0.0
H599 H 0.07971 0.88012 0.55876 0.0
H600 H 0.98324 0.93328 0.58122 0.0
H601 H 0.078 0.97769 0.57248 0.0
H602 H 0.99654 0.88042 0.63744 0.0
H603 H 0.99616 0.86468 0.60007 0.0
H604 H 0.96918 0.88922 0.60982 0.0
H605 H 0.11005 0.93622 0.62695 0.0
H606 H 0.11947 0.95911 0.5935 0.0
H607 H 0.11399 0.91908 0.59068 0.0
C608 C 0.82154 0.4146 0.88895 0.0
C609 C 0.79129 0.41292 0.90117 0.0
C610 C 0.84805 0.42821 0.90501 0.0
C611 C 0.84473 0.44056 0.93437 0.0
C612 C 0.81428 0.43934 0.94672 0.0
C613 C 0.78809 0.42573 0.93004 0.0
C614 C 0.87976 0.42927 0.89049 0.0
C615 C 0.80936 0.45201 0.97788 0.0
C616 C 0.91578 0.44902 0.9867 0.0
C617 C 0.92854 0.47943 0.98381 0.0
C618 C 0.88841 0.43635 0.97136 0.0
C619 C 0.87314 0.45425 0.95217 0.0
C620 C 0.88575 0.485 0.94931 0.0
C621 C 0.91297 0.49719 0.96521 0.0
C622 C 0.876 0.40357 0.97541 0.0
C623 C 0.87062 0.50508 0.92914 0.0
H624 H 0.82458 0.40539 0.86652 0.0
H625 H 0.76507 0.42448 0.94003 0.0
H626 H 0.89188 0.4527 0.88886 0.0
H627 H 0.89411 0.41707 0.90493 0.0
H628 H 0.87855 0.41933 0.86728 0.0
H629 H 0.78436 0.44972 0.98425 0.0
H630 H 0.82122 0.44046 0.99529 0.0
H631 H 0.81982 0.47595 0.97854 0.0
H632 H 0.92731 0.4349 1.00091 0.0
H633 H 0.92235 0.52066 0.96258 0.0
H634 H 0.87649 0.39198 0.95318 0.0
H635 H 0.85143 0.40036 0.98338 0.0
H636 H 0.88965 0.39286 0.99202 0.0
H637 H 0.86723 0.49545 0.90592 0.0
H638 H 0.88461 0.52773 0.92719 0.0
H639 H 0.84734 0.50704 0.93856 0.0
C640 C 0.71594 0.60275 0.39049 0.0
C641 C 0.74144 0.61829 0.40629 0.0
C642 C 0.68867 0.58913 0.406 0.0
C643 C 0.68678 0.59051 0.4383 0.0
C644 C 0.71275 0.60556 0.45443 0.0
C645 C 0.73952 0.61947 0.43829 0.0
C646 C 0.66153 0.57391 0.38769 0.0
C647 C 0.71217 0.60719 0.48882 0.0
C648 C 0.60634 0.5824 0.47665 0.0
C649 C 0.60056 0.55226 0.48546 0.0
C650 C 0.63412 0.59499 0.4614 0.0
C651 C 0.65724 0.57729 0.45503 0.0
C652 C 0.65177 0.54694 0.46425 0.0
C653 C 0.62352 0.53479 0.47909 0.0
C654 C 0.6385 0.62723 0.45163 0.0
C655 C 0.67576 0.52724 0.45839 0.0
H656 H 0.71693 0.60199 0.36579 0.0
H657 H 0.75912 0.63118 0.45077 0.0
H658 H 0.65476 0.55042 0.39517 0.0
H659 H 0.64116 0.58512 0.39172 0.0
H660 H 0.66681 0.5742 0.36281 0.0
H661 H 0.73476 0.61818 0.49811 0.0
H662 H 0.69385 0.61979 0.49654 0.0
H663 H 0.70633 0.58444 0.49863 0.0
H664 H 0.58882 0.59616 0.48115 0.0
H665 H 0.6195 0.51154 0.48577 0.0
H666 H 0.64196 0.62887 0.42652 0.0
H667 H 0.65964 0.6399 0.46218 0.0
H668 H 0.61833 0.638 0.45808 0.0
H669 H 0.68031 0.52577 0.43352 0.0
H670 H 0.66836 0.50433 0.46748 0.0
H671 H 0.69803 0.53709 0.46907 0.0
C672 C 0.25143 0.36712 0.18186 0.0
C673 C 0.2715 0.35427 0.16264 0.0
C674 C 0.22481 0.37647 0.17051 0.0
C675 C 0.21787 0.37271 0.13917 0.0
C676 C 0.23819 0.36016 0.1195 0.0
C677 C 0.2648 0.35112 0.13146 0.0
C678 C 0.20374 0.38979 0.19222 0.0
C679 C 0.23152 0.35583 0.08594 0.0
C680 C 0.13313 0.3695 0.11887 0.0
C681 C 0.13287 0.3987 0.10885 0.0
C682 C 0.16081 0.36052 0.12802 0.0
C683 C 0.18888 0.38128 0.1273 0.0
C684 C 0.1889 0.41062 0.11668 0.0
C685 C 0.16093 0.41894 0.10749 0.0
C686 C 0.15987 0.329 0.13918 0.0
C687 C 0.21835 0.4334 0.1156 0.0
H688 H 0.25603 0.3691 0.20607 0.0
H689 H 0.28032 0.34147 0.11641 0.0
H690 H 0.20041 0.41204 0.18393 0.0
H691 H 0.18052 0.37548 0.19319 0.0
H692 H 0.21307 0.39223 0.21571 0.0
H693 H 0.25008 0.34652 0.07355 0.0
H694 H 0.20917 0.34049 0.08297 0.0
H695 H 0.22907 0.37738 0.07528 0.0
H696 H 0.11154 0.35381 0.12029 0.0
H697 H 0.16105 0.44139 0.09923 0.0
H698 H 0.16631 0.32927 0.16358 0.0
H699 H 0.17708 0.31828 0.12632 0.0
H700 H 0.13654 0.31514 0.13673 0.0
H701 H 0.22748 0.43753 0.139 0.0
H702 H 0.21463 0.45496 0.10571 0.0
H703 H 0.23646 0.42483 0.10188 0.0
C704 C 0.57896 0.23001 0.90679 0.0
C705 C 0.61122 0.23767 0.90203 0.0
C706 C 0.56569 0.20346 0.92222 0.0
C707 C 0.58489 0.18327 0.93248 0.0
C708 C 0.61746 0.19072 0.92724 0.0
C709 C 0.63017 0.21784 0.91259 0.0
C710 C 0.53106 0.1972 0.92793 0.0
C711 C 0.63897 0.16984 0.93684 0.0
C712 C 0.5572 0.12643 0.99635 0.0
C713 C 0.54591 0.10027 0.98009 0.0
C714 C 0.56923 0.15349 0.98127 0.0
C715 C 0.57107 0.15461 0.9489 0.0
C716 C 0.55998 0.12815 0.93236 0.0
C717 C 0.54717 0.1016 0.94804 0.0
C718 C 0.57978 0.18102 1.0001 0.0
C719 C 0.56211 0.12775 0.89798 0.0
H720 H 0.56407 0.24515 0.89892 0.0
H721 H 0.65506 0.22327 0.9088 0.0
H722 H 0.52076 0.17613 0.91659 0.0
H723 H 0.52612 0.19427 0.95275 0.0
H724 H 0.51936 0.21539 0.91943 0.0
H725 H 0.6635 0.17813 0.93006 0.0
H726 H 0.63772 0.16683 0.96195 0.0
H727 H 0.63157 0.14757 0.92644 0.0
H728 H 0.55616 0.12592 0.02107 0.0
H729 H 0.53873 0.08162 0.93513 0.0
H730 H 0.56751 0.19924 0.99285 0.0
H731 H 0.60499 0.18888 0.99631 0.0
H732 H 0.57544 0.17698 0.0249 0.0
H733 H 0.5486 0.14398 0.88828 0.0
H734 H 0.55326 0.10538 0.88839 0.0
H735 H 0.58663 0.13465 0.89044 0.0
C736 C 0.90784 0.80402 0.42388 0.0
C737 C 0.91043 0.80216 0.39187 0.0
C738 C 0.91907 0.83065 0.43983 0.0
C739 C 0.93302 0.85657 0.42363 0.0
C740 C 0.93586 0.85488 0.39142 0.0
C741 C 0.92489 0.82788 0.37611 0.0
C742 C 0.91583 0.83106 0.47415 0.0
C743 C 0.9504 0.88175 0.37299 0.0
C744 C 0.93708 0.93372 0.46115 0.0
C745 C 0.96828 0.94049 0.47005 0.0
C746 C 0.92533 0.90665 0.44619 0.0
C747 C 0.94497 0.88533 0.44024 0.0
C748 C 0.97633 0.89186 0.44967 0.0
C749 C 0.98757 0.91923 0.46414 0.0
C750 C 0.89188 0.90102 0.43636 0.0
C751 C 0.99815 0.86985 0.44444 0.0
H752 H 0.89644 0.78479 0.43661 0.0
H753 H 0.92788 0.82701 0.35158 0.0
H754 H 0.93894 0.83805 0.48452 0.0
H755 H 0.9011 0.84759 0.48111 0.0
H756 H 0.90535 0.80895 0.48359 0.0
H757 H 0.95022 0.87718 0.34808 0.0
H758 H 0.93775 0.90055 0.37742 0.0
H759 H 0.97479 0.88908 0.38003 0.0
H760 H 0.92184 0.94978 0.46549 0.0
H761 H 0.01163 0.92386 0.47106 0.0
H762 H 0.87946 0.88017 0.44692 0.0
H763 H 0.89079 0.89796 0.41125 0.0
H764 H 0.87949 0.91958 0.44272 0.0
H765 H 0.98834 0.8481 0.45501 0.0
H766 H 0.02152 0.87767 0.45403 0.0
H767 H 1.00081 0.86595 0.41963 0.0
C768 C 0.25397 0.6689 0.61852 0.0
C769 C 0.25301 0.68261 0.64712 0.0
C770 C 0.27789 0.65301 0.61089 0.0
C771 C 0.30127 0.65084 0.63241 0.0
C772 C 0.29864 0.66205 0.66227 0.0
C773 C 0.27455 0.67783 0.66926 0.0
C774 C 0.27964 0.64096 0.57893 0.0
C775 C 0.32296 0.66003 0.68598 0.0
C776 C 0.36422 0.60405 0.61731 0.0
C777 C 0.38869 0.62572 0.60648 0.0
C778 C 0.33529 0.61163 0.62531 0.0
C779 C 0.33086 0.64158 0.62243 0.0
C780 C 0.35536 0.66343 0.61113 0.0
C781 C 0.38395 0.65523 0.60333 0.0
C782 C 0.30968 0.58777 0.63719 0.0
C783 C 0.35159 0.69566 0.60779 0.0
H784 H 0.23708 0.67208 0.60148 0.0
H785 H 0.27425 0.68852 0.69135 0.0
H786 H 0.29777 0.65585 0.56566 0.0
H787 H 0.2863 0.6185 0.57925 0.0
H788 H 0.25722 0.63961 0.56693 0.0
H789 H 0.31507 0.6655 0.70919 0.0
H790 H 0.32913 0.63739 0.68642 0.0
H791 H 0.3444 0.67594 0.6801 0.0
H792 H 0.36765 0.5811 0.61937 0.0
H793 H 0.40287 0.67211 0.59534 0.0
H794 H 0.28833 0.58748 0.6237 0.0
H795 H 0.30385 0.59273 0.66116 0.0
H796 H 0.31627 0.56525 0.63634 0.0
H797 H 0.33153 0.69736 0.59305 0.0
H798 H 0.37262 0.70967 0.59777 0.0
H799 H 0.34674 0.70491 0.63044 0.0
C800 C 0.73796 0.84653 0.7192 0.0
C801 C 0.75171 0.85614 0.74707 0.0
C802 C 0.74993 0.85935 0.69144 0.0
C803 C 0.77583 0.88266 0.69167 0.0
C804 C 0.78952 0.8927 0.71969 0.0
C805 C 0.77758 0.87908 0.74691 0.0
C806 C 0.73515 0.84778 0.6619 0.0
C807 C 0.81704 0.91773 0.72098 0.0
C808 C 0.83319 0.90568 0.62749 0.0
C809 C 0.82492 0.93289 0.61874 0.0
C810 C 0.81545 0.88738 0.64924 0.0
C811 C 0.78921 0.89683 0.6629 0.0
C812 C 0.7792 0.9229 0.65222 0.0
C813 C 0.79702 0.94045 0.63 0.0
C814 C 0.82647 0.85934 0.65955 0.0
C815 C 0.75143 0.93384 0.66627 0.0
H816 H 0.71781 0.82901 0.71904 0.0
H817 H 0.78902 0.88615 0.76809 0.0
H818 H 0.727 0.86607 0.64934 0.0
H819 H 0.75261 0.83943 0.64707 0.0
H820 H 0.71516 0.82948 0.66562 0.0
H821 H 0.82406 0.92373 0.74476 0.0
H822 H 0.83719 0.91117 0.70865 0.0
H823 H 0.81147 0.93786 0.70952 0.0
H824 H 0.85468 0.89958 0.619 0.0
H825 H 0.79 0.96104 0.6227 0.0
H826 H 0.80658 0.84089 0.66274 0.0
H827 H 0.83813 0.86342 0.68185 0.0
H828 H 0.84324 0.85218 0.64299 0.0
H829 H 0.73162 0.91528 0.66918 0.0
H830 H 0.74384 0.95158 0.65231 0.0
H831 H 0.75758 0.94304 0.68926 0.0
C832 C 0.79033 0.22465 0.18489 0.0
C833 C 0.79025 0.22026 0.21652 0.0
C834 C 0.76858 0.20682 0.16646 0.0
C835 C 0.74615 0.18443 0.18015 0.0
C836 C 0.74551 0.18052 0.21219 0.0
C837 C 0.76764 0.19842 0.22995 0.0
C838 C 0.77004 0.21141 0.13234 0.0
C839 C 0.72175 0.15712 0.22769 0.0
C840 C 0.67287 0.1502 0.139 0.0
C841 C 0.68008 0.1225 0.13014 0.0
C842 C 0.6945 0.17105 0.15451 0.0
C843 C 0.72409 0.16407 0.16111 0.0
C844 C 0.73184 0.13656 0.15144 0.0
C845 C 0.7097 0.11605 0.13625 0.0
C846 C 0.68539 0.20014 0.16463 0.0
C847 C 0.76318 0.12833 0.15804 0.0
H848 H 0.80785 0.24154 0.17453 0.0
H849 H 0.76721 0.1954 0.2545 0.0
H850 H 0.77543 0.19108 0.12094 0.0
H851 H 0.74716 0.21512 0.12392 0.0
H852 H 0.78796 0.23065 0.12541 0.0
H853 H 0.7236 0.15785 0.25294 0.0
H854 H 0.69795 0.16019 0.22149 0.0
H855 H 0.72481 0.13462 0.21978 0.0
H856 H 0.65022 0.15554 0.13394 0.0
H857 H 0.71534 0.09455 0.12993 0.0
H858 H 0.70286 0.21916 0.15648 0.0
H859 H 0.68486 0.20117 0.18993 0.0
H860 H 0.66222 0.20292 0.15611 0.0
H861 H 0.78204 0.14627 0.15015 0.0
H862 H 0.76643 0.10713 0.14687 0.0
H863 H 0.76571 0.12591 0.18302 0.0
C864 C 0.43974 0.63018 0.32845 0.0
C865 C 0.40901 0.6212 0.3185 0.0
C866 C 0.45145 0.61716 0.35428 0.0
C867 C 0.43227 0.59427 0.37108 0.0
C868 C 0.40118 0.58528 0.36142 0.0
C869 C 0.39003 0.59873 0.33557 0.0
C870 C 0.48468 0.62772 0.36337 0.0
C871 C 0.37961 0.56115 0.37832 0.0
C872 C 0.47137 0.5405 0.41955 0.0
C873 C 0.46941 0.55158 0.44942 0.0
C874 C 0.45932 0.55393 0.3942 0.0
C875 C 0.44485 0.5794 0.39827 0.0
C876 C 0.44265 0.59063 0.42837 0.0
C877 C 0.45479 0.57668 0.45337 0.0
C878 C 0.46227 0.54083 0.36287 0.0
C879 C 0.42766 0.61767 0.4342 0.0
H880 H 0.4551 0.64703 0.3156 0.0
H881 H 0.36615 0.59165 0.32888 0.0
H882 H 0.48551 0.63525 0.38747 0.0
H883 H 0.49793 0.60901 0.36173 0.0
H884 H 0.49642 0.64631 0.34878 0.0
H885 H 0.35604 0.55676 0.36834 0.0
H886 H 0.38936 0.54017 0.3779 0.0
H887 H 0.37748 0.56754 0.40259 0.0
H888 H 0.48252 0.52124 0.41583 0.0
H889 H 0.45309 0.58575 0.47608 0.0
H890 H 0.476 0.5577 0.34762 0.0
H891 H 0.43894 0.5346 0.35272 0.0
H892 H 0.47366 0.52079 0.36334 0.0
H893 H 0.44033 0.63701 0.42127 0.0
H894 H 0.4274 0.62362 0.45879 0.0
H895 H 0.40342 0.61358 0.42597 0.0
C896 C 0.13159 0.43169 0.82978 0.0
C897 C 0.11333 0.40724 0.81539 0.0
C898 C 0.12051 0.44585 0.85546 0.0
C899 C 0.0903 0.43551 0.86757 0.0
C900 C 0.07168 0.41097 0.85314 0.0
C901 C 0.08329 0.39727 0.82743 0.0
C902 C 0.14136 0.47184 0.86984 0.0
C903 C 0.03933 0.39908 0.86493 0.0
C904 C 0.07131 0.4544 0.95077 0.0
C905 C 0.05477 0.47816 0.94739 0.0
C906 C 0.08294 0.44045 0.92521 0.0
C907 C 0.07819 0.45036 0.89519 0.0
C908 C 0.06169 0.47445 0.89165 0.0
C909 C 0.05022 0.48791 0.91758 0.0
C910 C 0.10022 0.41489 0.93037 0.0
C911 C 0.05601 0.48601 0.86034 0.0
H912 H 0.15497 0.43952 0.82135 0.0
H913 H 0.06857 0.37879 0.81656 0.0
H914 H 0.12974 0.49172 0.87005 0.0
H915 H 0.14578 0.46656 0.89392 0.0
H916 H 0.16402 0.47759 0.85759 0.0
H917 H 0.02773 0.37981 0.85142 0.0
H918 H 0.04027 0.39204 0.88907 0.0
H919 H 0.02487 0.4169 0.86431 0.0
H920 H 0.07501 0.44645 0.97349 0.0
H921 H 0.03755 0.50616 0.91439 0.0
H922 H 0.12392 0.42018 0.92021 0.0
H923 H 0.08813 0.3946 0.91881 0.0
H924 H 0.10221 0.40984 0.95498 0.0
H925 H 0.07849 0.4933 0.84823 0.0
H926 H 0.0431 0.50503 0.86129 0.0
H927 H 0.04257 0.46793 0.8466 0.0
C928 C 0.59337 0.83582 0.94343 0.0
C929 C 0.6065 0.83789 0.91395 0.0
C930 C 0.57623 0.85723 0.95422 0.0
C931 C 0.57207 0.8812 0.93501 0.0
C932 C 0.58301 0.882 0.90444 0.0
C933 C 0.60017 0.86038 0.8943 0.0
C934 C 0.56466 0.85544 0.98689 0.0
C935 C 0.57884 0.90704 0.88316 0.0
C936 C 0.51766 0.93332 0.96174 0.0
C937 C 0.53856 0.95639 0.97516 0.0
C938 C 0.52817 0.90882 0.94812 0.0
C939 C 0.56027 0.90736 0.94806 0.0
C940 C 0.5815 0.93087 0.96099 0.0
C941 C 0.57041 0.95509 0.97431 0.0
C942 C 0.5049 0.88426 0.93434 0.0
C943 C 0.61598 0.93019 0.96131 0.0
H944 H 0.59775 0.81822 0.95856 0.0
H945 H 0.61044 0.8624 0.87158 0.0
H946 H 0.57881 0.87325 1.00044 0.0
H947 H 0.54021 0.85913 0.98828 0.0
H948 H 0.56616 0.8336 0.99752 0.0
H949 H 0.58429 0.902 0.85907 0.0
H950 H 0.55469 0.91159 0.88457 0.0
H951 H 0.59452 0.9277 0.89 0.0
H952 H 0.49299 0.93411 0.96228 0.0
H953 H 0.58675 0.97277 0.9846 0.0
H954 H 0.5047 0.86325 0.94719 0.0
H955 H 0.51165 0.88012 0.91043 0.0
H956 H 0.48099 0.8896 0.93463 0.0
H957 H 0.62041 0.91042 0.97422 0.0
H958 H 0.62942 0.95048 0.97184 0.0
H959 H 0.62484 0.92817 0.93768 0.0
C960 C 0.96241 0.20581 0.38418 0.0
C961 C 0.93187 0.20129 0.37354 0.0
C962 C 0.97438 0.18265 0.39845 0.0
C963 C 0.95538 0.15435 0.40186 0.0
C964 C 0.92507 0.14934 0.38977 0.0
C965 C 0.91365 0.17291 0.37587 0.0
C966 C 1.00674 0.18887 0.41123 0.0
C967 C 0.90418 0.11942 0.39269 0.0
C968 C 0.9893 0.08653 0.4266 0.0
C969 C 0.98119 0.08495 0.45771 0.0
C970 C 0.98155 0.10931 0.40805 0.0
C971 C 0.96562 0.13103 0.42106 0.0
C972 C 0.95804 0.12988 0.45256 0.0
C973 C 0.96579 0.10684 0.47042 0.0
C974 C 0.98984 0.10982 0.37449 0.0
C975 C 0.94127 0.15275 0.4674 0.0
H976 H 0.97652 0.22775 0.38238 0.0
H977 H 0.89023 0.16923 0.36708 0.0
H978 H 1.00533 0.18849 0.43653 0.0
H979 H 0.02014 0.17134 0.40406 0.0
H980 H 0.01966 0.21091 0.40385 0.0
H981 H 0.88254 0.11834 0.3794 0.0
H982 H 0.91656 0.10138 0.38478 0.0
H983 H 0.89768 0.115 0.41702 0.0
H984 H 1.00128 0.06975 0.41665 0.0
H985 H 0.95972 0.10607 0.4945 0.0
H986 H 1.00341 0.13183 0.36805 0.0
H987 H 0.96831 0.10656 0.36087 0.0
H988 H 1.00355 0.0922 0.3682 0.0
H989 H 0.95424 0.17552 0.46309 0.0
H990 H 0.93833 0.14943 0.49245 0.0
H991 H 0.91794 0.15153 0.45729 0.0
C992 C 0.21545 0.62217 0.14811 0.0
C993 C 0.24474 0.61844 0.13645 0.0
C994 C 0.18757 0.60934 0.13361 0.0
C995 C 0.1886 0.59203 0.10673 0.0
C996 C 0.21805 0.5879 0.09506 0.0
C997 C 0.24551 0.60106 0.10991 0.0
C998 C 0.15691 0.61454 0.14698 0.0
C999 C 0.2206 0.56946 0.06679 0.0
C1000 C 0.11578 0.53673 0.08406 0.0
C1001 C 0.10303 0.55205 0.06082 0.0
C1002 C 0.14343 0.54929 0.09895 0.0
C1003 C 0.15903 0.57821 0.09084 0.0
C1004 C 0.14639 0.59376 0.06731 0.0
C1005 C 0.11881 0.58053 0.05258 0.0
C1006 C 0.15595 0.53152 0.12348 0.0
C1007 C 0.16192 0.62459 0.0578 0.0
H1008 H 0.21426 0.63566 0.16833 0.0
H1009 H 0.26774 0.59738 0.10081 0.0
H1010 H 0.14432 0.6258 0.12994 0.0
H1011 H 0.14211 0.59289 0.15259 0.0
H1012 H 0.15984 0.62838 0.16796 0.0
H1013 H 0.2451 0.56823 0.06055 0.0
H1014 H 0.20782 0.54649 0.07037 0.0
H1015 H 0.20973 0.57907 0.04728 0.0
H1016 H 0.10412 0.51472 0.09071 0.0
H1017 H 0.10934 0.5928 0.03486 0.0
H1018 H 0.15724 0.54391 0.14536 0.0
H1019 H 0.1799 0.52831 0.11735 0.0
H1020 H 0.14137 0.50928 0.12704 0.0
H1021 H 0.16338 0.63986 0.07767 0.0
H1022 H 0.14929 0.63388 0.03929 0.0
H1023 H 0.18604 0.62405 0.04982 0.0
C1024 C 0.28276 0.42632 0.61221 0.0
C1025 C 0.28549 0.40993 0.63894 0.0
C1026 C 0.30922 0.43961 0.59515 0.0
C1027 C 0.3394 0.43644 0.60476 0.0
C1028 C 0.34227 0.4197 0.63153 0.0
C1029 C 0.31549 0.40676 0.64816 0.0
C1030 C 0.30489 0.45737 0.56696 0.0
C1031 C 0.37378 0.4155 0.64272 0.0
C1032 C 0.40924 0.44909 0.54907 0.0
C1033 C 0.42473 0.47742 0.55767 0.0
C1034 C 0.38126 0.43575 0.5637 0.0
C1035 C 0.36805 0.4511 0.58742 0.0
C1036 C 0.3831 0.48008 0.5955 0.0
C1037 C 0.41114 0.49273 0.58074 0.0
C1038 C 0.3662 0.40485 0.55427 0.0
C1039 C 0.36994 0.49761 0.62028 0.0
H1040 H 0.25989 0.42925 0.60485 0.0
H1041 H 0.31811 0.39374 0.66835 0.0
H1042 H 0.31649 0.48082 0.56988 0.0
H1043 H 0.31599 0.44829 0.54693 0.0
H1044 H 0.27999 0.45719 0.56199 0.0
H1045 H 0.37218 0.40145 0.66357 0.0
H1046 H 0.38628 0.40495 0.62465 0.0
H1047 H 0.38799 0.43748 0.64785 0.0
H1048 H 0.4194 0.43694 0.53139 0.0
H1049 H 0.42257 0.51472 0.58755 0.0
H1050 H 0.34163 0.40477 0.5481 0.0
H1051 H 0.3661 0.38925 0.57371 0.0
H1052 H 0.37841 0.39637 0.53458 0.0
H1053 H 0.34544 0.49925 0.61538 0.0
H1054 H 0.38334 0.52049 0.62269 0.0
H1055 H 0.37006 0.48587 0.64243 0.0
C1056 C 0.78568 0.68032 0.91212 0.0
C1057 C 0.77308 0.68158 0.88305 0.0
C1058 C 0.80945 0.66382 0.91726 0.0
C1059 C 0.82045 0.64788 0.8928 0.0
C1060 C 0.80551 0.64657 0.86427 0.0
C1061 C 0.78218 0.66377 0.85961 0.0
C1062 C 0.8248 0.66588 0.94803 0.0
C1063 C 0.81583 0.62898 0.83799 0.0
C1064 C 0.90689 0.64761 0.8959 0.0
C1065 C 0.90789 0.62043 0.9105 0.0
C1066 C 0.87849 0.6562 0.88882 0.0
C1067 C 0.85037 0.63682 0.8959 0.0
C1068 C 0.85123 0.6084 0.90851 0.0
C1069 C 0.87999 0.60069 0.91603 0.0
C1070 C 0.87861 0.68676 0.87537 0.0
C1071 C 0.82183 0.58679 0.91566 0.0
H1072 H 0.77886 0.6943 0.93018 0.0
H1073 H 0.77225 0.66461 0.83715 0.0
H1074 H 0.82742 0.64344 0.95627 0.0
H1075 H 0.84843 0.67932 0.9459 0.0
H1076 H 0.81145 0.67647 0.96542 0.0
H1077 H 0.79821 0.62538 0.81973 0.0
H1078 H 0.83778 0.64127 0.82802 0.0
H1079 H 0.82045 0.60701 0.84588 0.0
H1080 H 0.92836 0.6627 0.89098 0.0
H1081 H 0.88043 0.57982 0.92768 0.0
H1082 H 0.86749 0.70052 0.89172 0.0
H1083 H 0.86491 0.68501 0.85415 0.0
H1084 H 0.90247 0.69858 0.87004 0.0
H1085 H 0.81085 0.59398 0.93673 0.0
H1086 H 0.82653 0.56382 0.91932 0.0
H1087 H 0.80488 0.58637 0.89698 0.0
C1088 C 0.43423 0.80152 0.12067 0.0
C1089 C 0.41471 0.79874 0.14672 0.0
C1090 C 0.44451 0.82939 0.10641 0.0
C1091 C 0.43563 0.85571 0.11852 0.0
C1092 C 0.4159 0.85308 0.14481 0.0
C1093 C 0.40551 0.8248 0.15832 0.0
C1094 C 0.46491 0.83063 0.07819 0.0
C1095 C 0.40612 0.88031 0.15901 0.0
C1096 C 0.48784 0.93022 0.09785 0.0
C1097 C 0.47089 0.94194 0.07512 0.0
C1098 C 0.4764 0.90276 0.11248 0.0
C1099 C 0.44742 0.88585 0.10397 0.0
C1100 C 0.4302 0.89755 0.08101 0.0
C1101 C 0.44191 0.92539 0.06718 0.0
C1102 C 0.49552 0.89176 0.13706 0.0
C1103 C 0.39956 0.88035 0.07058 0.0
H1104 H 0.44121 0.78168 0.11106 0.0
H1105 H 0.39068 0.8232 0.17849 0.0
H1106 H 0.45411 0.84102 0.05913 0.0
H1107 H 0.48772 0.84474 0.08251 0.0
H1108 H 0.46894 0.8082 0.0709 0.0
H1109 H 0.39077 0.87475 0.17934 0.0
H1110 H 0.42696 0.89626 0.16591 0.0
H1111 H 0.39366 0.89183 0.14208 0.0
H1112 H 0.51016 0.94264 0.10442 0.0
H1113 H 0.42859 0.93386 0.04953 0.0
H1114 H 0.50254 0.87045 0.12989 0.0
H1115 H 0.48143 0.88728 0.15833 0.0
H1116 H 0.51679 0.90802 0.14217 0.0
H1117 H 0.403 0.85838 0.06142 0.0
H1118 H 0.38884 0.89236 0.05264 0.0
H1119 H 0.38309 0.876 0.09019 0.0
C1120 C 0.12186 0.20586 0.64554 0.0
C1121 C 0.10954 0.23243 0.64344 0.0
C1122 C 0.10838 0.17962 0.63026 0.0
C1123 C 0.0817 0.1795 0.61216 0.0
C1124 C 0.06887 0.2061 0.61017 0.0
C1125 C 0.0828 0.23207 0.62582 0.0
C1126 C 0.12288 0.15194 0.6334 0.0
C1127 C 0.04059 0.20724 0.59113 0.0
C1128 C 0.06562 0.11967 0.54978 0.0
C1129 C 0.04245 0.09821 0.5633 0.0
C1130 C 0.07819 0.14618 0.56517 0.0
C1131 C 0.06763 0.15169 0.59507 0.0
C1132 C 0.04418 0.13018 0.60883 0.0
C1133 C 0.03189 0.1039 0.59285 0.0
C1134 C 0.10299 0.1683 0.54938 0.0
C1135 C 0.03221 0.13483 0.64063 0.0
H1136 H 0.14209 0.20544 0.65945 0.0
H1137 H 0.07308 0.25234 0.62367 0.0
H1138 H 0.10549 0.13337 0.64264 0.0
H1139 H 0.13042 0.1449 0.61065 0.0
H1140 H 0.14328 0.15541 0.64864 0.0
H1141 H 0.03298 0.22931 0.5923 0.0
H1142 H 0.04568 0.20237 0.56695 0.0
H1143 H 0.02109 0.1899 0.5989 0.0
H1144 H 0.07402 0.11582 0.52698 0.0
H1145 H 0.01404 0.08768 0.60368 0.0
H1146 H 0.12468 0.1712 0.56273 0.0
H1147 H 0.09553 0.19038 0.54814 0.0
H1148 H 0.10824 0.16119 0.52589 0.0
H1149 H 0.05155 0.13672 0.65704 0.0
H1150 H 0.01366 0.11634 0.64806 0.0
H1151 H 0.02286 0.15602 0.64169 0.0
C1152 C 0.73537 0.33648 0.36057 0.0
C1153 C 0.76265 0.33691 0.37715 0.0
C1154 C 0.70973 0.34708 0.37335 0.0
C1155 C 0.71129 0.3581 0.40359 0.0
C1156 C 0.73873 0.35847 0.42055 0.0
C1157 C 0.76423 0.34805 0.40701 0.0
C1158 C 0.68107 0.34671 0.35437 0.0
C1159 C 0.74108 0.36974 0.45298 0.0
C1160 C 0.65542 0.41038 0.42518 0.0
C1161 C 0.63112 0.39087 0.43937 0.0
C1162 C 0.6819 0.4001 0.41388 0.0
C1163 C 0.68426 0.36963 0.41717 0.0
C1164 C 0.66011 0.34996 0.4321 0.0
C1165 C 0.63369 0.36079 0.44283 0.0
C1166 C 0.70693 0.42168 0.39771 0.0
C1167 C 0.662 0.31742 0.43636 0.0
H1168 H 0.73426 0.32821 0.33733 0.0
H1169 H 0.78524 0.34818 0.41993 0.0
H1170 H 0.66069 0.33313 0.36586 0.0
H1171 H 0.67597 0.36967 0.3521 0.0
H1172 H 0.68368 0.33751 0.33117 0.0
H1173 H 0.76382 0.36799 0.46324 0.0
H1174 H 0.73788 0.3934 0.45368 0.0
H1175 H 0.7223 0.35687 0.46724 0.0
H1176 H 0.65333 0.43359 0.42218 0.0
H1177 H 0.61504 0.34576 0.45407 0.0
H1178 H 0.70906 0.41469 0.37361 0.0
H1179 H 0.72972 0.4215 0.4085 0.0
H1180 H 0.70204 0.44485 0.39801 0.0
H1181 H 0.66237 0.30641 0.4138 0.0
H1182 H 0.6421 0.30547 0.44999 0.0
H1183 H 0.6839 0.31509 0.44794 0.0
loop_
_geom_bond_atom_site_label_1
_geom_bond_atom_site_label_2
_geom_bond_distance
_geom_bond_site_symmetry_2
_ccdc_geom_bond_type
P0 O11 1.490 . S
P0 C14 1.812 . S
P0 C20 1.803 . S
P0 C26 1.819 . S
H1 C15 0.941 . S
H2 C16 0.939 . S
H3 C18 0.940 . S
H4 C19 0.940 . S
H5 C21 0.939 . S
H6 C22 0.942 . S
H7 C24 0.940 . S
H8 C25 0.939 . S
H9 C27 0.941 . S
H10 C31 0.939 . S
O11 P0 1.490 . S
H12 C28 0.939 . S
H13 C30 0.940 . S
C14 P0 1.812 . S
C14 C15 1.389 . S
C14 C19 1.391 . S
C15 H1 0.941 . S
C15 C14 1.389 . S
C15 C16 1.397 . S
C16 H2 0.939 . S
C16 C15 1.397 . S
C16 C17 1.378 . S
C17 C16 1.378 . S
C17 C18 1.378 . S
C18 H3 0.940 . S
C18 C17 1.378 . S
C18 C19 1.396 . S
C19 H4 0.940 . S
C19 C14 1.391 . S
C19 C18 1.396 . S
C20 P0 1.803 . S
C20 C21 1.378 . S
C20 C25 1.400 . S
C21 H5 0.939 . S
C21 C20 1.378 . S
C21 C22 1.361 . S
C22 H6 0.942 . S
C22 C21 1.361 . S
C22 C23 1.369 . S
C23 C22 1.369 . S
C23 C24 1.404 . S
C24 H7 0.940 . S
C24 C23 1.404 . S
C24 C25 1.389 . S
C25 H8 0.939 . S
C25 C20 1.400 . S
C25 C24 1.389 . S
C26 P0 1.819 . S
C26 C27 1.391 . S
C26 C31 1.391 . S
C27 H9 0.941 . S
C27 C26 1.391 . S
C27 C28 1.396 . S
C28 H12 0.939 . S
C28 C27 1.396 . S
C28 C29 1.397 . S
C29 C28 1.397 . S
C29 C30 1.385 . S
C30 H13 0.940 . S
C30 C29 1.385 . S
C30 C31 1.388 . S
C31 H10 0.939 . S
C31 C26 1.391 . S
C31 C30 1.388 . S
P32 O43 1.490 . S
P32 C46 1.812 . S
P32 C52 1.803 . S
P32 C58 1.819 . S
H33 C47 0.941 . S
H34 C48 0.939 . S
H35 C50 0.940 . S
H36 C51 0.940 . S
H37 C53 0.939 . S
H38 C54 0.942 . S
H39 C56 0.940 . S
H40 C57 0.939 . S
H41 C59 0.941 . S
H42 C63 0.939 . S
O43 P32 1.490 . S
H44 C60 0.939 . S
H45 C62 0.940 . S
C46 P32 1.812 . S
C46 C47 1.389 . S
C46 C51 1.391 . S
C47 H33 0.941 . S
C47 C46 1.389 . S
C47 C48 1.397 . S
C48 H34 0.939 . S
C48 C47 1.397 . S
C48 C49 1.378 . S
C49 C48 1.378 . S
C49 C50 1.378 . S
C50 H35 0.940 . S
C50 C49 1.378 . S
C50 C51 1.396 . S
C51 H36 0.940 . S
C51 C46 1.391 . S
C51 C50 1.396 . S
C52 P32 1.803 . S
C52 C53 1.378 . S
C52 C57 1.400 . S
C53 H37 0.939 . S
C53 C52 1.378 . S
C53 C54 1.361 . S
C54 H38 0.942 . S
C54 C53 1.361 . S
C54 C55 1.369 . S
C55 C54 1.369 . S
C55 C56 1.404 . S
C56 H39 0.940 . S
C56 C55 1.404 . S
C56 C57 1.389 . S
C57 H40 0.939 . S
C57 C52 1.400 . S
C57 C56 1.389 . S
C58 P32 1.819 . S
C58 C59 1.391 . S
C58 C63 1.391 . S
C59 H41 0.941 . S
C59 C58 1.391 . S
C59 C60 1.396 . S
C60 H44 0.939 . S
C60 C59 1.396 . S
C60 C61 1.397 . S
C61 C60 1.397 . S
C61 C62 1.385 . S
C62 H45 0.940 . S
C62 C61 1.385 . S
C62 C63 1.388 . S
C63 H42 0.939 . S
C63 C58 1.391 . S
C63 C62 1.388 . S
P64 O75 1.490 . S
P64 C78 1.812 . S
P64 C84 1.803 . S
P64 C90 1.819 . S
H65 C79 0.941 . S
H66 C80 0.939 . S
H67 C82 0.940 . S
H68 C83 0.940 . S
H69 C85 0.939 . S
H70 C86 0.942 . S
H71 C88 0.940 . S
H72 C89 0.939 . S
H73 C91 0.941 . S
H74 C95 0.939 . S
O75 P64 1.490 . S
H76 C92 0.939 . S
H77 C94 0.940 . S
C78 P64 1.812 . S
C78 C79 1.389 . S
C78 C83 1.391 . S
C79 H65 0.941 . S
C79 C78 1.389 . S
C79 C80 1.397 . S
C80 H66 0.939 . S
C80 C79 1.397 . S
C80 C81 1.378 . S
C81 C80 1.378 . S
C81 C82 1.378 . S
C82 H67 0.940 . S
C82 C81 1.378 . S
C82 C83 1.396 . S
C83 H68 0.940 . S
C83 C78 1.391 . S
C83 C82 1.396 . S
C84 P64 1.803 . S
C84 C85 1.378 . S
C84 C89 1.400 . S
C85 H69 0.939 . S
C85 C84 1.378 . S
C85 C86 1.361 . S
C86 H70 0.942 . S
C86 C85 1.361 . S
C86 C87 1.369 . S
C87 C86 1.369 . S
C87 C88 1.404 . S
C88 H71 0.940 . S
C88 C87 1.404 . S
C88 C89 1.389 . S
C89 H72 0.939 . S
C89 C84 1.400 . S
C89 C88 1.389 . S
C90 P64 1.819 . S
C90 C91 1.391 . S
C90 C95 1.391 . S
C91 H73 0.941 . S
C91 C90 1.391 . S
C91 C92 1.396 . S
C92 H76 0.939 . S
C92 C91 1.396 . S
C92 C93 1.397 . S
C93 C92 1.397 . S
C93 C94 1.385 . S
C94 H77 0.940 . S
C94 C93 1.385 . S
C94 C95 1.388 . S
C95 H74 0.939 . S
C95 C90 1.391 . S
C95 C94 1.388 . S
P96 O107 1.490 . S
P96 C110 1.812 . S
P96 C116 1.803 . S
P96 C122 1.819 . S
H97 C111 0.941 . S
H98 C112 0.939 . S
H99 C114 0.940 . S
H100 C115 0.940 . S
H101 C117 0.939 . S
H102 C118 0.942 . S
H103 C120 0.940 . S
H104 C121 0.939 . S
H105 C123 0.941 . S
H106 C127 0.939 . S
O107 P96 1.490 . S
H108 C124 0.939 . S
H109 C126 0.940 . S
C110 P96 1.812 . S
C110 C111 1.389 . S
C110 C115 1.391 . S
C111 H97 0.941 . S
C111 C110 1.389 . S
C111 C112 1.397 . S
C112 H98 0.939 . S
C112 C111 1.397 . S
C112 C113 1.378 . S
C113 C112 1.378 . S
C113 C114 1.378 . S
C114 H99 0.940 . S
C114 C113 1.378 . S
C114 C115 1.396 . S
C115 H100 0.940 . S
C115 C110 1.391 . S
C115 C114 1.396 . S
C116 P96 1.803 . S
C116 C117 1.378 . S
C116 C121 1.400 . S
C117 H101 0.939 . S
C117 C116 1.378 . S
C117 C118 1.361 . S
C118 H102 0.942 . S
C118 C117 1.361 . S
C118 C119 1.369 . S
C119 C118 1.369 . S
C119 C120 1.404 . S
C120 H103 0.940 . S
C120 C119 1.404 . S
C120 C121 1.389 . S
C121 H104 0.939 . S
C121 C116 1.400 . S
C121 C120 1.389 . S
C122 P96 1.819 . S
C122 C123 1.391 . S
C122 C127 1.391 . S
C123 H105 0.941 . S
C123 C122 1.391 . S
C123 C124 1.396 . S
C124 H108 0.939 . S
C124 C123 1.396 . S
C124 C125 1.397 . S
C125 C124 1.397 . S
C125 C126 1.385 . S
C126 H109 0.940 . S
C126 C125 1.385 . S
C126 C127 1.388 . S
C127 H106 0.939 . S
C127 C122 1.391 . S
C127 C126 1.388 . S
P128 O139 1.490 . S
P128 C142 1.812 . S
P128 C148 1.803 . S
P128 C154 1.819 . S
H129 C143 0.941 . S
H130 C144 0.939 . S
H131 C146 0.940 . S
H132 C147 0.940 . S
H133 C149 0.939 . S
H134 C150 0.942 . S
H135 C152 0.940 . S
H136 C153 0.939 . S
H137 C155 0.941 . S
H138 C159 0.939 . S
O139 P128 1.490 . S
H140 C156 0.939 . S
H141 C158 0.940 . S
C142 P128 1.812 . S
C142 C143 1.389 . S
C142 C147 1.391 . S
C143 H129 0.941 . S
C143 C142 1.389 . S
C143 C144 1.397 . S
C144 H130 0.939 . S
C144 C143 1.397 . S
C144 C145 1.378 . S
C145 C144 1.378 . S
C145 C146 1.378 . S
C146 H131 0.940 . S
C146 C145 1.378 . S
C146 C147 1.396 . S
C147 H132 0.940 . S
C147 C142 1.391 . S
C147 C146 1.396 . S
C148 P128 1.803 . S
C148 C149 1.378 . S
C148 C153 1.400 . S
C149 H133 0.939 . S
C149 C148 1.378 . S
C149 C150 1.361 . S
C150 H134 0.942 . S
C150 C149 1.361 . S
C150 C151 1.369 . S
C151 C150 1.369 . S
C151 C152 1.404 . S
C152 H135 0.940 . S
C152 C151 1.404 . S
C152 C153 1.389 . S
C153 H136 0.939 . S
C153 C148 1.400 . S
C153 C152 1.389 . S
C154 P128 1.819 . S
C154 C155 1.391 . S
C154 C159 1.391 . S
C155 H137 0.941 . S
C155 C154 1.391 . S
C155 C156 1.396 . S
C156 H140 0.939 . S
C156 C155 1.396 . S
C156 C157 1.397 . S
C157 C156 1.397 . S
C157 C158 1.385 . S
C158 H141 0.940 . S
C158 C157 1.385 . S
C158 C159 1.388 . S
C159 H138 0.939 . S
C159 C154 1.391 . S
C159 C158 1.388 . S
P160 O171 1.490 . S
P160 C174 1.812 . S
P160 C180 1.803 . S
P160 C186 1.819 . S
H161 C175 0.941 . S
H162 C176 0.939 . S
H163 C178 0.940 . S
H164 C179 0.940 . S
H165 C181 0.939 . S
H166 C182 0.942 . S
H167 C184 0.940 . S
H168 C185 0.939 . S
H169 C187 0.941 . S
H170 C191 0.939 . S
O171 P160 1.490 . S
H172 C188 0.939 . S
H173 C190 0.940 . S
C174 P160 1.812 . S
C174 C175 1.389 . S
C174 C179 1.391 . S
C175 H161 0.941 . S
C175 C174 1.389 . S
C175 C176 1.397 . S
C176 H162 0.939 . S
C176 C175 1.397 . S
C176 C177 1.378 . S
C177 C176 1.378 . S
C177 C178 1.378 . S
C178 H163 0.940 . S
C178 C177 1.378 . S
C178 C179 1.396 . S
C179 H164 0.940 . S
C179 C174 1.391 . S
C179 C178 1.396 . S
C180 P160 1.803 . S
C180 C181 1.378 . S
C180 C185 1.400 . S
C181 H165 0.939 . S
C181 C180 1.378 . S
C181 C182 1.361 . S
C182 H166 0.942 . S
C182 C181 1.361 . S
C182 C183 1.369 . S
C183 C182 1.369 . S
C183 C184 1.404 . S
C184 H167 0.940 . S
C184 C183 1.404 . S
C184 C185 1.389 . S
C185 H168 0.939 . S
C185 C180 1.400 . S
C185 C184 1.389 . S
C186 P160 1.819 . S
C186 C187 1.391 . S
C186 C191 1.391 . S
C187 H169 0.941 . S
C187 C186 1.391 . S
C187 C188 1.396 . S
C188 H172 0.939 . S
C188 C187 1.396 . S
C188 C189 1.397 . S
C189 C188 1.397 . S
C189 C190 1.385 . S
C190 H173 0.940 . S
C190 C189 1.385 . S
C190 C191 1.388 . S
C191 H170 0.939 . S
C191 C186 1.391 . S
C191 C190 1.388 . S
P192 O203 1.490 . S
P192 C206 1.812 . S
P192 C212 1.803 . S
P192 C218 1.819 . S
H193 C207 0.941 . S
H194 C208 0.939 . S
H195 C210 0.940 . S
H196 C211 0.940 . S
H197 C213 0.939 . S
H198 C214 0.942 . S
H199 C216 0.940 . S
H200 C217 0.939 . S
H201 C219 0.941 . S
H202 C223 0.939 . S
O203 P192 1.490 . S
H204 C220 0.939 . S
H205 C222 0.940 . S
C206 P192 1.812 . S
C206 C207 1.389 . S
C206 C211 1.391 . S
C207 H193 0.941 . S
C207 C206 1.389 . S
C207 C208 1.397 . S
C208 H194 0.939 . S
C208 C207 1.397 . S
C208 C209 1.378 . S
C209 C208 1.378 . S
C209 C210 1.378 . S
C210 H195 0.940 . S
C210 C209 1.378 . S
C210 C211 1.396 . S
C211 H196 0.940 . S
C211 C206 1.391 . S
C211 C210 1.396 . S
C212 P192 1.803 . S
C212 C213 1.378 . S
C212 C217 1.400 . S
C213 H197 0.939 . S
C213 C212 1.378 . S
C213 C214 1.361 . S
C214 H198 0.942 . S
C214 C213 1.361 . S
C214 C215 1.369 . S
C215 C214 1.369 . S
C215 C216 1.404 . S
C216 H199 0.940 . S
C216 C215 1.404 . S
C216 C217 1.389 . S
C217 H200 0.939 . S
C217 C212 1.400 . S
C217 C216 1.389 . S
C218 P192 1.819 . S
C218 C219 1.391 . S
C218 C223 1.391 . S
C219 H201 0.941 . S
C219 C218 1.391 . S
C219 C220 1.396 . S
C220 H204 0.939 . S
C220 C219 1.396 . S
C220 C221 1.397 . S
C221 C220 1.397 . S
C221 C222 1.385 . S
C222 H205 0.940 . S
C222 C221 1.385 . S
C222 C223 1.388 . S
C223 H202 0.939 . S
C223 C218 1.391 . S
C223 C222 1.388 . S
P224 O235 1.490 . S
P224 C238 1.812 . S
P224 C244 1.803 . S
P224 C250 1.819 . S
H225 C239 0.941 . S
H226 C240 0.939 . S
H227 C242 0.940 . S
H228 C243 0.940 . S
H229 C245 0.939 . S
H230 C246 0.942 . S
H231 C248 0.940 . S
H232 C249 0.939 . S
H233 C251 0.941 . S
H234 C255 0.939 . S
O235 P224 1.490 . S
H236 C252 0.939 . S
H237 C254 0.940 . S
C238 P224 1.812 . S
C238 C239 1.389 . S
C238 C243 1.391 . S
C239 H225 0.941 . S
C239 C238 1.389 . S
C239 C240 1.397 . S
C240 H226 0.939 . S
C240 C239 1.397 . S
C240 C241 1.378 . S
C241 C240 1.378 . S
C241 C242 1.378 . S
C242 H227 0.940 . S
C242 C241 1.378 . S
C242 C243 1.396 . S
C243 H228 0.940 . S
C243 C238 1.391 . S
C243 C242 1.396 . S
C244 P224 1.803 . S
C244 C245 1.378 . S
C244 C249 1.400 . S
C245 H229 0.939 . S
C245 C244 1.378 . S
C245 C246 1.361 . S
C246 H230 0.942 . S
C246 C245 1.361 . S
C246 C247 1.369 . S
C247 C246 1.369 . S
C247 C248 1.404 . S
C248 H231 0.940 . S
C248 C247 1.404 . S
C248 C249 1.389 . S
C249 H232 0.939 . S
C249 C244 1.400 . S
C249 C248 1.389 . S
C250 P224 1.819 . S
C250 C251 1.391 . S
C250 C255 1.391 . S
C251 H233 0.941 . S
C251 C250 1.391 . S
C251 C252 1.396 . S
C252 H236 0.939 . S
C252 C251 1.396 . S
C252 C253 1.397 . S
C253 C252 1.397 . S
C253 C254 1.385 . S
C254 H237 0.940 . S
C254 C253 1.385 . S
C254 C255 1.388 . S
C255 H234 0.939 . S
C255 C250 1.391 . S
C255 C254 1.388 . S
Tb256 C265 2.764 . S
Tb256 O266 2.325 1_455 S
Tb256 O269 2.303 . S
Tb256 O273 2.322 1_545 S
Tb256 O274 2.349 1_545 S
Tb256 O277 2.415 . S
Tb256 O278 2.399 . S
Tb257 O267 2.324 1_565 S
Tb257 O268 2.352 1_565 S
Tb257 O270 2.413 . S
Tb257 O271 2.399 . S
Tb257 O272 2.323 1_655 S
Tb257 O275 2.301 . S
Tb257 C286 2.763 . S
C258 O274 1.261 1_655 S
C258 O275 1.257 . S
C259 C262 1.358 . S
C259 C263 1.332 . S
C259 C265 1.504 . S
C260 C261 1.373 . S
C260 C264 1.308 . S
C261 C260 1.373 . S
C261 C262 1.429 . S
C261 H288 0.932 . S
C262 C259 1.358 . S
C262 C261 1.429 . S
C262 H289 0.930 . S
C263 C259 1.332 . S
C263 C264 1.394 . S
C263 H290 0.932 . S
C264 C260 1.308 . S
C264 C263 1.394 . S
C264 H291 0.929 . S
C265 Tb256 2.764 . S
C265 C259 1.504 . S
C265 O277 1.239 . S
C265 O278 1.263 . S
O266 Tb256 2.325 1_655 S
O266 C276 1.236 . S
O267 Tb257 2.324 1_545 S
O267 C276 1.257 . S
O268 Tb257 2.352 1_545 S
O268 C279 1.261 1_655 S
O269 Tb256 2.303 . S
O269 C279 1.257 . S
O270 Tb257 2.413 . S
O270 C286 1.239 . S
O271 Tb257 2.399 . S
O271 C286 1.263 . S
O272 Tb257 2.323 1_455 S
O272 C287 1.236 . S
O273 Tb256 2.322 1_565 S
O273 C287 1.257 . S
O274 Tb256 2.349 1_565 S
O274 C258 1.261 1_455 S
O275 Tb257 2.301 . S
O275 C258 1.257 . S
C276 O266 1.236 . S
C276 O267 1.257 . S
O277 Tb256 2.415 . S
O277 C265 1.239 . S
O278 Tb256 2.399 . S
O278 C265 1.263 . S
C279 O268 1.261 1_455 S
C279 O269 1.257 . S
C280 C283 1.358 . S
C280 C284 1.332 . S
C280 C286 1.504 . S
C281 C282 1.373 . S
C281 C285 1.308 . S
C282 C281 1.373 . S
C282 C283 1.429 . S
C282 H292 0.932 . S
C283 C280 1.358 . S
C283 C282 1.429 . S
C283 H293 0.930 . S
C284 C280 1.332 . S
C284 C285 1.394 . S
C284 H294 0.932 . S
C285 C281 1.308 . S
C285 C284 1.394 . S
C285 H295 0.929 . S
C286 Tb257 2.763 . S
C286 O270 1.239 . S
C286 O271 1.263 . S
C286 C280 1.504 . S
C287 O272 1.236 . S
C287 O273 1.257 . S
H288 C261 0.932 . S
H289 C262 0.930 . S
H290 C263 0.932 . S
H291 C264 0.929 . S
H292 C282 0.932 . S
H293 C283 0.930 . S
H294 C284 0.932 . S
H295 C285 0.929 . S
Tb296 C305 2.764 . S
Tb296 O306 2.325 . S
Tb296 O309 2.303 . S
Tb296 O313 2.322 1_545 S
Tb296 O314 2.349 1_545 S
Tb296 O317 2.415 . S
Tb296 O318 2.399 . S
Tb297 O307 2.322 . S
Tb297 O308 2.349 1_556 S
Tb297 O310 2.415 1_545 S
Tb297 O311 2.399 1_545 S
Tb297 O312 2.325 1_546 S
Tb297 O315 2.303 1_545 S
Tb297 C326 2.764 1_545 S
C298 O314 1.261 1_556 S
C298 O315 1.257 . S
C299 C302 1.358 . S
C299 C303 1.332 . S
C299 C305 1.504 . S
C300 C301 1.373 . S
C300 C304 1.308 . S
C301 C300 1.373 . S
C301 C302 1.429 . S
C301 H328 0.932 . S
C302 C299 1.358 . S
C302 C301 1.429 . S
C302 H329 0.930 . S
C303 C299 1.332 . S
C303 C304 1.394 . S
C303 H330 0.932 . S
C304 C300 1.308 . S
C304 C303 1.394 . S
C304 H331 0.929 . S
C305 Tb296 2.764 . S
C305 C299 1.504 . S
C305 O317 1.239 . S
C305 O318 1.263 . S
O306 Tb296 2.325 . S
O306 C316 1.236 1_554 S
O307 Tb297 2.322 . S
O307 C316 1.257 . S
O308 Tb297 2.349 1_554 S
O308 C319 1.261 . S
O309 Tb296 2.303 . S
O309 C319 1.257 . S
O310 Tb297 2.415 1_565 S
O310 C326 1.239 . S
O311 Tb297 2.399 1_565 S
O311 C326 1.263 . S
O312 Tb297 2.325 1_564 S
O312 C327 1.236 . S
O313 Tb296 2.322 1_565 S
O313 C327 1.257 . S
O314 Tb296 2.349 1_565 S
O314 C298 1.261 1_554 S
O315 Tb297 2.303 1_565 S
O315 C298 1.257 . S
C316 O306 1.236 1_556 S
C316 O307 1.257 . S
O317 Tb296 2.415 . S
O317 C305 1.239 . S
O318 Tb296 2.399 . S
O318 C305 1.263 . S
C319 O308 1.261 . S
C319 O309 1.257 . S
C320 C323 1.358 . S
C320 C324 1.332 . S
C320 C326 1.504 . S
C321 C322 1.373 . S
C321 C325 1.308 . S
C322 C321 1.373 . S
C322 C323 1.429 . S
C322 H332 0.932 . S
C323 C320 1.358 . S
C323 C322 1.429 . S
C323 H333 0.930 . S
C324 C320 1.332 . S
C324 C325 1.394 . S
C324 H334 0.932 . S
C325 C321 1.308 . S
C325 C324 1.394 . S
C325 H335 0.929 . S
C326 Tb297 2.764 1_565 S
C326 O310 1.239 . S
C326 O311 1.263 . S
C326 C320 1.504 . S
C327 O312 1.236 . S
C327 O313 1.257 . S
H328 C301 0.932 . S
H329 C302 0.930 . S
H330 C303 0.932 . S
H331 C304 0.929 . S
H332 C322 0.932 . S
H333 C323 0.930 . S
H334 C324 0.932 . S
H335 C325 0.929 . S
Tb336 C345 2.764 . S
Tb336 O346 2.325 . S
Tb336 O349 2.303 . S
Tb336 O353 2.322 . S
Tb336 O354 2.349 . S
Tb336 O357 2.415 . S
Tb336 O358 2.399 . S
Tb337 O347 2.322 . S
Tb337 O348 2.349 . S
Tb337 O350 2.415 . S
Tb337 O351 2.399 . S
Tb337 O352 2.325 . S
Tb337 O355 2.303 . S
Tb337 C366 2.764 . S
C338 O354 1.261 . S
C338 O355 1.257 . S
C339 C342 1.358 . S
C339 C343 1.332 . S
C339 C345 1.504 . S
C340 C341 1.373 . S
C340 C344 1.308 . S
C341 C340 1.373 . S
C341 C342 1.429 . S
C341 H368 0.932 . S
C342 C339 1.358 . S
C342 C341 1.429 . S
C342 H369 0.930 . S
C343 C339 1.332 . S
C343 C344 1.394 . S
C343 H370 0.932 . S
C344 C340 1.308 . S
C344 C343 1.394 . S
C344 H371 0.929 . S
C345 Tb336 2.764 . S
C345 C339 1.504 . S
C345 O357 1.239 . S
C345 O358 1.263 . S
O346 Tb336 2.325 . S
O346 C356 1.236 . S
O347 Tb337 2.322 . S
O347 C356 1.257 . S
O348 Tb337 2.349 . S
O348 C359 1.261 . S
O349 Tb336 2.303 . S
O349 C359 1.257 . S
O350 Tb337 2.415 . S
O350 C366 1.239 . S
O351 Tb337 2.399 . S
O351 C366 1.263 . S
O352 Tb337 2.325 . S
O352 C367 1.236 . S
O353 Tb336 2.322 . S
O353 C367 1.257 . S
O354 Tb336 2.349 . S
O354 C338 1.261 . S
O355 Tb337 2.303 . S
O355 C338 1.257 . S
C356 O346 1.236 . S
C356 O347 1.257 . S
O357 Tb336 2.415 . S
O357 C345 1.239 . S
O358 Tb336 2.399 . S
O358 C345 1.263 . S
C359 O348 1.261 . S
C359 O349 1.257 . S
C360 C363 1.358 . S
C360 C364 1.332 . S
C360 C366 1.504 . S
C361 C362 1.373 . S
C361 C365 1.308 . S
C362 C361 1.373 . S
C362 C363 1.429 . S
C362 H372 0.932 . S
C363 C360 1.358 . S
C363 C362 1.429 . S
C363 H373 0.930 . S
C364 C360 1.332 . S
C364 C365 1.394 . S
C364 H374 0.932 . S
C365 C361 1.308 . S
C365 C364 1.394 . S
C365 H375 0.929 . S
C366 Tb337 2.764 . S
C366 O350 1.239 . S
C366 O351 1.263 . S
C366 C360 1.504 . S
C367 O352 1.236 . S
C367 O353 1.257 . S
H368 C341 0.932 . S
H369 C342 0.930 . S
H370 C343 0.932 . S
H371 C344 0.929 . S
H372 C362 0.932 . S
H373 C363 0.930 . S
H374 C364 0.932 . S
H375 C365 0.929 . S
Tb376 C385 2.764 . S
Tb376 O386 2.325 . S
Tb376 O389 2.303 1_556 S
Tb376 O393 2.311 1_656 S
Tb376 O394 2.349 1_655 S
Tb376 O397 2.415 . S
Tb376 O398 2.399 . S
Tb377 O387 2.322 1_455 S
Tb377 O388 2.349 1_455 S
Tb377 O390 2.415 . S
Tb377 O391 2.399 . S
Tb377 O392 2.325 . S
Tb377 O395 2.303 1_554 S
Tb377 C406 2.764 . S
C378 O394 1.261 . S
C378 O395 1.257 . S
C379 C382 1.358 . S
C379 C383 1.332 . S
C379 C385 1.504 . S
C380 C381 1.373 . S
C380 C384 1.308 . S
C381 C380 1.373 . S
C381 C382 1.429 . S
C381 H408 0.932 . S
C382 C379 1.358 . S
C382 C381 1.429 . S
C382 H409 0.930 . S
C383 C379 1.332 . S
C383 C384 1.394 . S
C383 H410 0.932 . S
C384 C380 1.308 . S
C384 C383 1.394 . S
C384 H411 0.929 . S
C385 Tb376 2.764 . S
C385 C379 1.504 . S
C385 O397 1.239 . S
C385 O398 1.263 . S
O386 Tb376 2.325 . S
O386 C396 1.236 . S
O387 Tb377 2.322 1_655 S
O387 C396 1.257 1_554 S
O388 Tb377 2.349 1_655 S
O388 C399 1.261 . S
O389 Tb376 2.303 1_554 S
O389 C399 1.257 . S
O390 Tb377 2.415 . S
O390 C406 1.239 . S
O391 Tb377 2.399 . S
O391 C406 1.263 . S
O392 Tb377 2.325 . S
O392 C407 1.236 . S
O393 Tb376 2.311 1_454 S
O393 C407 1.275 . S
O394 Tb376 2.349 1_455 S
O394 C378 1.261 . S
O395 Tb377 2.303 1_556 S
O395 C378 1.257 . S
C396 O386 1.236 . S
C396 O387 1.257 1_556 S
O397 Tb376 2.415 . S
O397 C385 1.239 . S
O398 Tb376 2.399 . S
O398 C385 1.263 . S
C399 O388 1.261 . S
C399 O389 1.257 . S
C400 C403 1.358 . S
C400 C404 1.332 . S
C400 C406 1.504 . S
C401 C402 1.373 . S
C401 C405 1.308 . S
C402 C401 1.373 . S
C402 C403 1.429 . S
C402 H412 0.932 . S
C403 C400 1.358 . S
C403 C402 1.429 . S
C403 H413 0.930 . S
C404 C400 1.332 . S
C404 C405 1.394 . S
C404 H414 0.932 . S
C405 C401 1.308 . S
C405 C404 1.394 . S
C405 H415 0.929 . S
C406 Tb377 2.764 . S
C406 O390 1.239 . S
C406 O391 1.263 . S
C406 C400 1.504 . S
C407 O392 1.236 . S
C407 O393 1.275 . S
H408 C381 0.932 . S
H409 C382 0.930 . S
H410 C383 0.932 . S
H411 C384 0.929 . S
H412 C402 0.932 . S
H413 C403 0.930 . S
H414 C404 0.932 . S
H415 C405 0.929 . S
C416 C417 1.391 . S
C416 C418 1.394 . S
C416 H432 0.931 . S
C417 C416 1.391 . S
C417 C421 1.376 . S
C418 C416 1.394 . S
C418 C419 1.369 . S
C418 C422 1.531 . S
C419 C418 1.369 . S
C419 C420 1.410 . S
C419 C427 1.503 . S
C420 C419 1.410 . S
C420 C421 1.392 . S
C420 C423 1.511 . S
C421 C417 1.376 . S
C421 C420 1.392 . S
C421 H433 0.929 . S
C422 C418 1.531 . S
C422 H434 0.960 . S
C422 H435 0.962 . S
C422 H436 0.960 . S
C423 C420 1.511 . S
C423 H437 0.961 . S
C423 H438 0.961 . S
C423 H439 0.961 . S
C424 C425 1.370 . S
C424 C426 1.363 . S
C424 H440 0.931 . S
C425 C424 1.370 . S
C425 C429 1.408 . S
C426 C424 1.363 . S
C426 C427 1.370 . S
C426 C430 1.524 . S
C427 C419 1.503 . S
C427 C426 1.370 . S
C427 C428 1.403 . S
C428 C427 1.403 . S
C428 C429 1.404 . S
C428 C431 1.539 . S
C429 C425 1.408 . S
C429 C428 1.404 . S
C429 H441 0.930 . S
C430 C426 1.524 . S
C430 H442 0.956 . S
C430 H443 0.961 . S
C430 H444 0.961 . S
C431 C428 1.539 . S
C431 H445 0.958 . S
C431 H446 0.961 . S
C431 H447 0.960 . S
H432 C416 0.931 . S
H433 C421 0.929 . S
H434 C422 0.960 . S
H435 C422 0.962 . S
H436 C422 0.960 . S
H437 C423 0.961 . S
H438 C423 0.961 . S
H439 C423 0.961 . S
H440 C424 0.931 . S
H441 C429 0.930 . S
H442 C430 0.956 . S
H443 C430 0.961 . S
H444 C430 0.961 . S
H445 C431 0.958 . S
H446 C431 0.961 . S
H447 C431 0.960 . S
C448 C449 1.391 . S
C448 C450 1.394 . S
C448 H464 0.931 . S
C449 C448 1.391 . S
C449 C453 1.376 . S
C450 C448 1.394 . S
C450 C451 1.369 . S
C450 C454 1.531 . S
C451 C450 1.369 . S
C451 C452 1.410 . S
C451 C459 1.503 . S
C452 C451 1.410 . S
C452 C453 1.392 . S
C452 C455 1.511 . S
C453 C449 1.376 . S
C453 C452 1.392 . S
C453 H465 0.929 . S
C454 C450 1.531 . S
C454 H466 0.960 . S
C454 H467 0.962 . S
C454 H468 0.960 . S
C455 C452 1.511 . S
C455 H469 0.961 . S
C455 H470 0.961 . S
C455 H471 0.961 . S
C456 C457 1.370 . S
C456 C458 1.363 . S
C456 H472 0.931 . S
C457 C456 1.370 . S
C457 C461 1.408 . S
C458 C456 1.363 . S
C458 C459 1.370 . S
C458 C462 1.524 . S
C459 C451 1.503 . S
C459 C458 1.370 . S
C459 C460 1.403 . S
C460 C459 1.403 . S
C460 C461 1.404 . S
C460 C463 1.539 . S
C461 C457 1.408 . S
C461 C460 1.404 . S
C461 H473 0.930 . S
C462 C458 1.524 . S
C462 H474 0.956 . S
C462 H475 0.961 . S
C462 H476 0.961 . S
C463 C460 1.539 . S
C463 H477 0.958 . S
C463 H478 0.961 . S
C463 H479 0.960 . S
H464 C448 0.931 . S
H465 C453 0.929 . S
H466 C454 0.960 . S
H467 C454 0.962 . S
H468 C454 0.960 . S
H469 C455 0.961 . S
H470 C455 0.961 . S
H471 C455 0.961 . S
H472 C456 0.931 . S
H473 C461 0.930 . S
H474 C462 0.956 . S
H475 C462 0.961 . S
H476 C462 0.961 . S
H477 C463 0.958 . S
H478 C463 0.961 . S
H479 C463 0.960 . S
C480 C481 1.391 . S
C480 C482 1.394 . S
C480 H496 0.931 . S
C481 C480 1.391 . S
C481 C485 1.376 . S
C482 C480 1.394 . S
C482 C483 1.369 . S
C482 C486 1.531 . S
C483 C482 1.369 . S
C483 C484 1.410 . S
C483 C491 1.503 . S
C484 C483 1.410 . S
C484 C485 1.392 . S
C484 C487 1.511 . S
C485 C481 1.376 . S
C485 C484 1.392 . S
C485 H497 0.929 . S
C486 C482 1.531 . S
C486 H498 0.960 . S
C486 H499 0.962 . S
C486 H500 0.960 . S
C487 C484 1.511 . S
C487 H501 0.961 . S
C487 H502 0.961 . S
C487 H503 0.961 . S
C488 C489 1.370 . S
C488 C490 1.363 . S
C488 H504 0.931 . S
C489 C488 1.370 . S
C489 C493 1.408 . S
C490 C488 1.363 . S
C490 C491 1.370 . S
C490 C494 1.524 . S
C491 C483 1.503 . S
C491 C490 1.370 . S
C491 C492 1.403 . S
C492 C491 1.403 . S
C492 C493 1.404 . S
C492 C495 1.539 . S
C493 C489 1.408 . S
C493 C492 1.404 . S
C493 H505 0.930 . S
C494 C490 1.524 . S
C494 H506 0.956 . S
C494 H507 0.961 . S
C494 H508 0.961 . S
C495 C492 1.539 . S
C495 H509 0.958 . S
C495 H510 0.961 . S
C495 H511 0.960 . S
H496 C480 0.931 . S
H497 C485 0.929 . S
H498 C486 0.960 . S
H499 C486 0.962 . S
H500 C486 0.960 . S
H501 C487 0.961 . S
H502 C487 0.961 . S
H503 C487 0.961 . S
H504 C488 0.931 . S
H505 C493 0.930 . S
H506 C494 0.956 . S
H507 C494 0.961 . S
H508 C494 0.961 . S
H509 C495 0.958 . S
H510 C495 0.961 . S
H511 C495 0.960 . S
C512 C513 1.391 . S
C512 C514 1.394 . S
C512 H528 0.931 . S
C513 C512 1.391 . S
C513 C517 1.376 . S
C514 C512 1.394 . S
C514 C515 1.369 . S
C514 C518 1.531 . S
C515 C514 1.369 . S
C515 C516 1.410 . S
C515 C523 1.503 . S
C516 C515 1.410 . S
C516 C517 1.392 . S
C516 C519 1.511 . S
C517 C513 1.376 . S
C517 C516 1.392 . S
C517 H529 0.929 . S
C518 C514 1.531 . S
C518 H530 0.960 . S
C518 H531 0.962 . S
C518 H532 0.960 . S
C519 C516 1.511 . S
C519 H533 0.961 . S
C519 H534 0.961 . S
C519 H535 0.961 . S
C520 C521 1.370 . S
C520 C522 1.363 . S
C520 H536 0.931 . S
C521 C520 1.370 . S
C521 C525 1.408 . S
C522 C520 1.363 . S
C522 C523 1.370 . S
C522 C526 1.524 . S
C523 C515 1.503 . S
C523 C522 1.370 . S
C523 C524 1.403 . S
C524 C523 1.403 . S
C524 C525 1.404 . S
C524 C527 1.539 . S
C525 C521 1.408 . S
C525 C524 1.404 . S
C525 H537 0.930 . S
C526 C522 1.524 . S
C526 H538 0.956 . S
C526 H539 0.961 . S
C526 H540 0.961 . S
C527 C524 1.539 . S
C527 H541 0.958 . S
C527 H542 0.961 1_655 S
C527 H543 0.960 . S
H528 C512 0.931 . S
H529 C517 0.929 . S
H530 C518 0.960 . S
H531 C518 0.962 . S
H532 C518 0.960 . S
H533 C519 0.961 . S
H534 C519 0.961 . S
H535 C519 0.961 . S
H536 C520 0.931 . S
H537 C525 0.930 . S
H538 C526 0.956 . S
H539 C526 0.961 . S
H540 C526 0.961 . S
H541 C527 0.958 . S
H542 C527 0.961 1_455 S
H543 C527 0.960 . S
C544 C545 1.391 . S
C544 C546 1.394 . S
C544 H560 0.931 . S
C545 C544 1.391 . S
C545 C549 1.376 . S
C546 C544 1.394 . S
C546 C547 1.369 . S
C546 C550 1.531 . S
C547 C546 1.369 . S
C547 C548 1.410 . S
C547 C555 1.503 . S
C548 C547 1.410 . S
C548 C549 1.392 . S
C548 C551 1.511 . S
C549 C545 1.376 . S
C549 C548 1.392 . S
C549 H561 0.929 . S
C550 C546 1.531 . S
C550 H562 0.960 . S
C550 H563 0.962 . S
C550 H564 0.960 . S
C551 C548 1.511 . S
C551 H565 0.961 . S
C551 H566 0.961 . S
C551 H567 0.961 . S
C552 C553 1.370 . S
C552 C554 1.363 . S
C552 H568 0.931 . S
C553 C552 1.370 . S
C553 C557 1.408 . S
C554 C552 1.363 . S
C554 C555 1.370 . S
C554 C558 1.524 . S
C555 C547 1.503 . S
C555 C554 1.370 . S
C555 C556 1.403 . S
C556 C555 1.403 . S
C556 C557 1.404 . S
C556 C559 1.539 . S
C557 C553 1.408 . S
C557 C556 1.404 . S
C557 H569 0.930 . S
C558 C554 1.524 . S
C558 H570 0.956 . S
C558 H571 0.961 . S
C558 H572 0.961 . S
C559 C556 1.539 . S
C559 H573 0.958 . S
C559 H574 0.961 . S
C559 H575 0.960 . S
H560 C544 0.931 . S
H561 C549 0.929 . S
H562 C550 0.960 . S
H563 C550 0.962 . S
H564 C550 0.960 . S
H565 C551 0.961 . S
H566 C551 0.961 . S
H567 C551 0.961 . S
H568 C552 0.931 . S
H569 C557 0.930 . S
H570 C558 0.956 . S
H571 C558 0.961 . S
H572 C558 0.961 . S
H573 C559 0.958 . S
H574 C559 0.961 . S
H575 C559 0.960 . S
C576 C577 1.391 . S
C576 C578 1.394 . S
C576 H592 0.931 . S
C577 C576 1.391 . S
C577 C581 1.376 . S
C578 C576 1.394 . S
C578 C579 1.369 . S
C578 C582 1.531 . S
C579 C578 1.369 . S
C579 C580 1.410 . S
C579 C587 1.503 . S
C580 C579 1.410 . S
C580 C581 1.392 . S
C580 C583 1.511 . S
C581 C577 1.376 . S
C581 C580 1.392 . S
C581 H593 0.929 . S
C582 C578 1.531 . S
C582 H594 0.960 . S
C582 H595 0.962 . S
C582 H596 0.960 . S
C583 C580 1.511 . S
C583 H597 0.961 . S
C583 H598 0.961 . S
C583 H599 0.961 . S
C584 C585 1.370 . S
C584 C586 1.363 . S
C584 H600 0.923 1_455 S
C585 C584 1.370 . S
C585 C589 1.408 . S
C586 C584 1.363 . S
C586 C587 1.370 . S
C586 C590 1.524 . S
C587 C579 1.503 . S
C587 C586 1.370 . S
C587 C588 1.403 . S
C588 C587 1.403 . S
C588 C589 1.404 . S
C588 C591 1.539 . S
C589 C585 1.408 . S
C589 C588 1.404 . S
C589 H601 0.930 . S
C590 C586 1.524 . S
C590 H602 0.956 . S
C590 H603 0.961 . S
C590 H604 0.961 1_455 S
C591 C588 1.539 . S
C591 H605 0.958 . S
C591 H606 0.961 . S
C591 H607 0.960 . S
H592 C576 0.931 . S
H593 C581 0.929 . S
H594 C582 0.960 . S
H595 C582 0.962 . S
H596 C582 0.960 . S
H597 C583 0.961 . S
H598 C583 0.961 . S
H599 C583 0.961 . S
H600 C584 0.923 1_655 S
H601 C589 0.930 . S
H602 C590 0.956 . S
H603 C590 0.961 . S
H604 C590 0.961 1_655 S
H605 C591 0.958 . S
H606 C591 0.961 . S
H607 C591 0.960 . S
C608 C609 1.391 . S
C608 C610 1.394 . S
C608 H624 0.931 . S
C609 C608 1.391 . S
C609 C613 1.376 . S
C610 C608 1.394 . S
C610 C611 1.369 . S
C610 C614 1.531 . S
C611 C610 1.369 . S
C611 C612 1.410 . S
C611 C619 1.503 . S
C612 C611 1.410 . S
C612 C613 1.392 . S
C612 C615 1.511 . S
C613 C609 1.376 . S
C613 C612 1.392 . S
C613 H625 0.929 . S
C614 C610 1.531 . S
C614 H626 0.960 . S
C614 H627 0.962 . S
C614 H628 0.960 . S
C615 C612 1.511 . S
C615 H629 0.961 . S
C615 H630 0.961 . S
C615 H631 0.961 . S
C616 C617 1.370 . S
C616 C618 1.363 . S
C616 H632 0.931 . S
C617 C616 1.370 . S
C617 C621 1.408 . S
C618 C616 1.363 . S
C618 C619 1.370 . S
C618 C622 1.524 . S
C619 C611 1.503 . S
C619 C618 1.370 . S
C619 C620 1.403 . S
C620 C619 1.403 . S
C620 C621 1.404 . S
C620 C623 1.539 . S
C621 C617 1.408 . S
C621 C620 1.404 . S
C621 H633 0.930 . S
C622 C618 1.524 . S
C622 H634 0.956 . S
C622 H635 0.961 . S
C622 H636 0.961 . S
C623 C620 1.539 . S
C623 H637 0.958 . S
C623 H638 0.961 . S
C623 H639 0.960 . S
H624 C608 0.931 . S
H625 C613 0.929 . S
H626 C614 0.960 . S
H627 C614 0.962 . S
H628 C614 0.960 . S
H629 C615 0.961 . S
H630 C615 0.961 . S
H631 C615 0.961 . S
H632 C616 0.931 . S
H633 C621 0.930 . S
H634 C622 0.956 . S
H635 C622 0.961 . S
H636 C622 0.961 . S
H637 C623 0.958 . S
H638 C623 0.961 . S
H639 C623 0.960 . S
C640 C641 1.391 . S
C640 C642 1.394 . S
C640 H656 0.931 . S
C641 C640 1.391 . S
C641 C645 1.376 . S
C642 C640 1.394 . S
C642 C643 1.369 . S
C642 C646 1.531 . S
C643 C642 1.369 . S
C643 C644 1.410 . S
C643 C651 1.503 . S
C644 C643 1.410 . S
C644 C645 1.392 . S
C644 C647 1.511 . S
C645 C641 1.376 . S
C645 C644 1.392 . S
C645 H657 0.929 . S
C646 C642 1.531 . S
C646 H658 0.960 . S
C646 H659 0.962 . S
C646 H660 0.960 . S
C647 C644 1.511 . S
C647 H661 0.961 . S
C647 H662 0.961 . S
C647 H663 0.961 . S
C648 C649 1.370 . S
C648 C650 1.363 . S
C648 H664 0.931 . S
C649 C648 1.370 . S
C649 C653 1.408 . S
C650 C648 1.363 . S
C650 C651 1.370 . S
C650 C654 1.524 . S
C651 C643 1.503 . S
C651 C650 1.370 . S
C651 C652 1.403 . S
C652 C651 1.403 . S
C652 C653 1.404 . S
C652 C655 1.539 . S
C653 C649 1.408 . S
C653 C652 1.404 . S
C653 H665 0.930 . S
C654 C650 1.524 . S
C654 H666 0.956 . S
C654 H667 0.961 . S
C654 H668 0.961 . S
C655 C652 1.539 . S
C655 H669 0.958 . S
C655 H670 0.961 . S
C655 H671 0.960 . S
H656 C640 0.931 . S
H657 C645 0.929 . S
H658 C646 0.960 . S
H659 C646 0.962 . S
H660 C646 0.960 . S
H661 C647 0.961 . S
H662 C647 0.961 . S
H663 C647 0.961 . S
H664 C648 0.931 . S
H665 C653 0.930 . S
H666 C654 0.956 . S
H667 C654 0.961 . S
H668 C654 0.961 . S
H669 C655 0.958 . S
H670 C655 0.961 . S
H671 C655 0.960 . S
C672 C673 1.391 . S
C672 C674 1.394 . S
C672 H688 0.931 . S
C673 C672 1.391 . S
C673 C677 1.376 . S
C674 C672 1.394 . S
C674 C675 1.369 . S
C674 C678 1.531 . S
C675 C674 1.369 . S
C675 C676 1.410 . S
C675 C683 1.503 . S
C676 C675 1.410 . S
C676 C677 1.392 . S
C676 C679 1.511 . S
C677 C673 1.376 . S
C677 C676 1.392 . S
C677 H689 0.929 . S
C678 C674 1.531 . S
C678 H690 0.960 . S
C678 H691 0.962 . S
C678 H692 0.960 . S
C679 C676 1.511 . S
C679 H693 0.961 . S
C679 H694 0.961 . S
C679 H695 0.961 . S
C680 C681 1.370 . S
C680 C682 1.363 . S
C680 H696 0.931 . S
C681 C680 1.370 . S
C681 C685 1.408 . S
C682 C680 1.363 . S
C682 C683 1.370 . S
C682 C686 1.524 . S
C683 C675 1.503 . S
C683 C682 1.370 . S
C683 C684 1.403 . S
C684 C683 1.403 . S
C684 C685 1.404 . S
C684 C687 1.539 . S
C685 C681 1.408 . S
C685 C684 1.404 . S
C685 H697 0.930 . S
C686 C682 1.524 . S
C686 H698 0.956 . S
C686 H699 0.961 . S
C686 H700 0.961 . S
C687 C684 1.539 . S
C687 H701 0.958 . S
C687 H702 0.961 . S
C687 H703 0.960 . S
H688 C672 0.931 . S
H689 C677 0.929 . S
H690 C678 0.960 . S
H691 C678 0.962 . S
H692 C678 0.960 . S
H693 C679 0.961 . S
H694 C679 0.961 . S
H695 C679 0.961 . S
H696 C680 0.931 . S
H697 C685 0.930 . S
H698 C686 0.956 . S
H699 C686 0.961 . S
H700 C686 0.961 . S
H701 C687 0.958 . S
H702 C687 0.961 . S
H703 C687 0.960 . S
C704 C705 1.391 . S
C704 C706 1.394 . S
C704 H720 0.931 . S
C705 C704 1.391 . S
C705 C709 1.376 . S
C706 C704 1.394 . S
C706 C707 1.369 . S
C706 C710 1.531 . S
C707 C706 1.369 . S
C707 C708 1.410 . S
C707 C715 1.503 . S
C708 C707 1.410 . S
C708 C709 1.392 . S
C708 C711 1.511 . S
C709 C705 1.376 . S
C709 C708 1.392 . S
C709 H721 0.929 . S
C710 C706 1.531 . S
C710 H722 0.960 . S
C710 H723 0.962 . S
C710 H724 0.960 . S
C711 C708 1.511 . S
C711 H725 0.961 . S
C711 H726 0.961 . S
C711 H727 0.961 . S
C712 C713 1.370 . S
C712 C714 1.363 . S
C712 H728 0.931 . S
C713 C712 1.370 . S
C713 C717 1.408 . S
C714 C712 1.363 . S
C714 C715 1.370 . S
C714 C718 1.524 . S
C715 C707 1.503 . S
C715 C714 1.370 . S
C715 C716 1.403 . S
C716 C715 1.403 . S
C716 C717 1.404 . S
C716 C719 1.539 . S
C717 C713 1.408 . S
C717 C716 1.404 . S
C717 H729 0.930 . S
C718 C714 1.524 . S
C718 H730 0.956 . S
C718 H731 0.961 . S
C718 H732 0.976 . S
C719 C716 1.539 . S
C719 H733 0.958 . S
C719 H734 0.961 . S
C719 H735 0.960 . S
H720 C704 0.931 . S
H721 C709 0.929 . S
H722 C710 0.960 . S
H723 C710 0.962 . S
H724 C710 0.960 . S
H725 C711 0.961 . S
H726 C711 0.961 . S
H727 C711 0.961 . S
H728 C712 0.931 . S
H729 C717 0.930 . S
H730 C718 0.956 . S
H731 C718 0.961 . S
H732 C718 0.976 . S
H733 C719 0.958 . S
H734 C719 0.961 . S
H735 C719 0.960 . S
C736 C737 1.391 . S
C736 C738 1.394 . S
C736 H752 0.931 . S
C737 C736 1.391 . S
C737 C741 1.376 . S
C738 C736 1.394 . S
C738 C739 1.369 . S
C738 C742 1.531 . S
C739 C738 1.369 . S
C739 C740 1.410 . S
C739 C747 1.503 . S
C740 C739 1.410 . S
C740 C741 1.392 . S
C740 C743 1.511 . S
C741 C737 1.376 . S
C741 C740 1.392 . S
C741 H753 0.929 . S
C742 C738 1.531 . S
C742 H754 0.960 . S
C742 H755 0.962 . S
C742 H756 0.960 . S
C743 C740 1.511 . S
C743 H757 0.961 . S
C743 H758 0.961 . S
C743 H759 0.961 . S
C744 C745 1.370 . S
C744 C746 1.363 . S
C744 H760 0.931 . S
C745 C744 1.370 . S
C745 C749 1.408 . S
C746 C744 1.363 . S
C746 C747 1.370 . S
C746 C750 1.524 . S
C747 C739 1.503 . S
C747 C746 1.370 . S
C747 C748 1.403 . S
C748 C747 1.403 . S
C748 C749 1.404 . S
C748 C751 1.539 . S
C749 C745 1.408 . S
C749 C748 1.404 . S
C749 H761 0.930 . S
C750 C746 1.524 . S
C750 H762 0.956 . S
C750 H763 0.961 . S
C750 H764 0.961 . S
C751 C748 1.539 . S
C751 H765 0.958 . S
C751 H766 0.961 1_655 S
C751 H767 0.960 . S
H752 C736 0.931 . S
H753 C741 0.929 . S
H754 C742 0.960 . S
H755 C742 0.962 . S
H756 C742 0.960 . S
H757 C743 0.961 . S
H758 C743 0.961 . S
H759 C743 0.961 . S
H760 C744 0.931 . S
H761 C749 0.930 . S
H762 C750 0.956 . S
H763 C750 0.961 . S
H764 C750 0.961 . S
H765 C751 0.958 . S
H766 C751 0.961 1_455 S
H767 C751 0.960 . S
C768 C769 1.391 . S
C768 C770 1.394 . S
C768 H784 0.931 . S
C769 C768 1.391 . S
C769 C773 1.376 . S
C770 C768 1.394 . S
C770 C771 1.369 . S
C770 C774 1.531 . S
C771 C770 1.369 . S
C771 C772 1.410 . S
C771 C779 1.503 . S
C772 C771 1.410 . S
C772 C773 1.392 . S
C772 C775 1.511 . S
C773 C769 1.376 . S
C773 C772 1.392 . S
C773 H785 0.929 . S
C774 C770 1.531 . S
C774 H786 0.960 . S
C774 H787 0.962 . S
C774 H788 0.960 . S
C775 C772 1.511 . S
C775 H789 0.961 . S
C775 H790 0.961 . S
C775 H791 0.961 . S
C776 C777 1.370 . S
C776 C778 1.363 . S
C776 H792 0.931 . S
C777 C776 1.370 . S
C777 C781 1.408 . S
C778 C776 1.363 . S
C778 C779 1.370 . S
C778 C782 1.524 . S
C779 C771 1.503 . S
C779 C778 1.370 . S
C779 C780 1.403 . S
C780 C779 1.403 . S
C780 C781 1.404 . S
C780 C783 1.539 . S
C781 C777 1.408 . S
C781 C780 1.404 . S
C781 H793 0.930 . S
C782 C778 1.524 . S
C782 H794 0.956 . S
C782 H795 0.961 . S
C782 H796 0.961 . S
C783 C780 1.539 . S
C783 H797 0.958 . S
C783 H798 0.961 . S
C783 H799 0.960 . S
H784 C768 0.931 . S
H785 C773 0.929 . S
H786 C774 0.960 . S
H787 C774 0.962 . S
H788 C774 0.960 . S
H789 C775 0.961 . S
H790 C775 0.961 . S
H791 C775 0.961 . S
H792 C776 0.931 . S
H793 C781 0.930 . S
H794 C782 0.956 . S
H795 C782 0.961 . S
H796 C782 0.961 . S
H797 C783 0.958 . S
H798 C783 0.961 . S
H799 C783 0.960 . S
C800 C801 1.391 . S
C800 C802 1.394 . S
C800 H816 0.931 . S
C801 C800 1.391 . S
C801 C805 1.376 . S
C802 C800 1.394 . S
C802 C803 1.369 . S
C802 C806 1.531 . S
C803 C802 1.369 . S
C803 C804 1.410 . S
C803 C811 1.503 . S
C804 C803 1.410 . S
C804 C805 1.392 . S
C804 C807 1.511 . S
C805 C801 1.376 . S
C805 C804 1.392 . S
C805 H817 0.929 . S
C806 C802 1.531 . S
C806 H818 0.960 . S
C806 H819 0.962 . S
C806 H820 0.960 . S
C807 C804 1.511 . S
C807 H821 0.961 . S
C807 H822 0.961 . S
C807 H823 0.961 . S
C808 C809 1.370 . S
C808 C810 1.363 . S
C808 H824 0.931 . S
C809 C808 1.370 . S
C809 C813 1.408 . S
C810 C808 1.363 . S
C810 C811 1.370 . S
C810 C814 1.524 . S
C811 C803 1.503 . S
C811 C810 1.370 . S
C811 C812 1.403 . S
C812 C811 1.403 . S
C812 C813 1.404 . S
C812 C815 1.539 . S
C813 C809 1.408 . S
C813 C812 1.404 . S
C813 H825 0.930 . S
C814 C810 1.524 . S
C814 H826 0.956 . S
C814 H827 0.961 . S
C814 H828 0.961 . S
C815 C812 1.539 . S
C815 H829 0.958 . S
C815 H830 0.961 . S
C815 H831 0.960 . S
H816 C800 0.931 . S
H817 C805 0.929 . S
H818 C806 0.960 . S
H819 C806 0.962 . S
H820 C806 0.960 . S
H821 C807 0.961 . S
H822 C807 0.961 . S
H823 C807 0.961 . S
H824 C808 0.931 . S
H825 C813 0.930 . S
H826 C814 0.956 . S
H827 C814 0.961 . S
H828 C814 0.961 . S
H829 C815 0.958 . S
H830 C815 0.961 . S
H831 C815 0.960 . S
C832 C833 1.391 . S
C832 C834 1.394 . S
C832 H848 0.931 . S
C833 C832 1.391 . S
C833 C837 1.376 . S
C834 C832 1.394 . S
C834 C835 1.369 . S
C834 C838 1.531 . S
C835 C834 1.369 . S
C835 C836 1.410 . S
C835 C843 1.503 . S
C836 C835 1.410 . S
C836 C837 1.392 . S
C836 C839 1.511 . S
C837 C833 1.376 . S
C837 C836 1.392 . S
C837 H849 0.929 . S
C838 C834 1.531 . S
C838 H850 0.960 . S
C838 H851 0.962 . S
C838 H852 0.960 . S
C839 C836 1.511 . S
C839 H853 0.961 . S
C839 H854 0.961 . S
C839 H855 0.961 . S
C840 C841 1.370 . S
C840 C842 1.363 . S
C840 H856 0.931 . S
C841 C840 1.370 . S
C841 C845 1.408 . S
C842 C840 1.363 . S
C842 C843 1.370 . S
C842 C846 1.524 . S
C843 C835 1.503 . S
C843 C842 1.370 . S
C843 C844 1.403 . S
C844 C843 1.403 . S
C844 C845 1.404 . S
C844 C847 1.539 . S
C845 C841 1.408 . S
C845 C844 1.404 . S
C845 H857 0.930 . S
C846 C842 1.524 . S
C846 H858 0.956 . S
C846 H859 0.961 . S
C846 H860 0.961 . S
C847 C844 1.539 . S
C847 H861 0.958 . S
C847 H862 0.961 . S
C847 H863 0.960 . S
H848 C832 0.931 . S
H849 C837 0.929 . S
H850 C838 0.960 . S
H851 C838 0.962 . S
H852 C838 0.960 . S
H853 C839 0.961 . S
H854 C839 0.961 . S
H855 C839 0.961 . S
H856 C840 0.931 . S
H857 C845 0.930 . S
H858 C846 0.956 . S
H859 C846 0.961 . S
H860 C846 0.961 . S
H861 C847 0.958 . S
H862 C847 0.961 . S
H863 C847 0.960 . S
C864 C865 1.391 . S
C864 C866 1.394 . S
C864 H880 0.931 . S
C865 C864 1.391 . S
C865 C869 1.376 . S
C866 C864 1.394 . S
C866 C867 1.369 . S
C866 C870 1.531 . S
C867 C866 1.369 . S
C867 C868 1.410 . S
C867 C875 1.503 . S
C868 C867 1.410 . S
C868 C869 1.392 . S
C868 C871 1.511 . S
C869 C865 1.376 . S
C869 C868 1.392 . S
C869 H881 0.929 . S
C870 C866 1.531 . S
C870 H882 0.960 . S
C870 H883 0.962 . S
C870 H884 0.960 . S
C871 C868 1.511 . S
C871 H885 0.961 . S
C871 H886 0.961 . S
C871 H887 0.961 . S
C872 C873 1.370 . S
C872 C874 1.363 . S
C872 H888 0.931 . S
C873 C872 1.370 . S
C873 C877 1.408 . S
C874 C872 1.363 . S
C874 C875 1.370 . S
C874 C878 1.524 . S
C875 C867 1.503 . S
C875 C874 1.370 . S
C875 C876 1.403 . S
C876 C875 1.403 . S
C876 C877 1.404 . S
C876 C879 1.539 . S
C877 C873 1.408 . S
C877 C876 1.404 . S
C877 H889 0.930 . S
C878 C874 1.524 . S
C878 H890 0.956 . S
C878 H891 0.961 . S
C878 H892 0.961 . S
C879 C876 1.539 . S
C879 H893 0.958 . S
C879 H894 0.961 . S
C879 H895 0.960 . S
H880 C864 0.931 . S
H881 C869 0.929 . S
H882 C870 0.960 . S
H883 C870 0.962 . S
H884 C870 0.960 . S
H885 C871 0.961 . S
H886 C871 0.961 . S
H887 C871 0.961 . S
H888 C872 0.931 . S
H889 C877 0.930 . S
H890 C878 0.956 . S
H891 C878 0.961 . S
H892 C878 0.961 . S
H893 C879 0.958 . S
H894 C879 0.961 . S
H895 C879 0.960 . S
C896 C897 1.391 . S
C896 C898 1.394 . S
C896 H912 0.931 . S
C897 C896 1.391 . S
C897 C901 1.376 . S
C898 C896 1.394 . S
C898 C899 1.369 . S
C898 C902 1.531 . S
C899 C898 1.369 . S
C899 C900 1.410 . S
C899 C907 1.503 . S
C900 C899 1.410 . S
C900 C901 1.392 . S
C900 C903 1.511 . S
C901 C897 1.376 . S
C901 C900 1.392 . S
C901 H913 0.929 . S
C902 C898 1.531 . S
C902 H914 0.960 . S
C902 H915 0.962 . S
C902 H916 0.960 . S
C903 C900 1.511 . S
C903 H917 0.961 . S
C903 H918 0.961 . S
C903 H919 0.961 . S
C904 C905 1.370 . S
C904 C906 1.363 . S
C904 H920 0.931 . S
C905 C904 1.370 . S
C905 C909 1.408 . S
C906 C904 1.363 . S
C906 C907 1.370 . S
C906 C910 1.524 . S
C907 C899 1.503 . S
C907 C906 1.370 . S
C907 C908 1.403 . S
C908 C907 1.403 . S
C908 C909 1.404 . S
C908 C911 1.539 . S
C909 C905 1.408 . S
C909 C908 1.404 . S
C909 H921 0.930 . S
C910 C906 1.524 . S
C910 H922 0.956 . S
C910 H923 0.961 . S
C910 H924 0.961 . S
C911 C908 1.539 . S
C911 H925 0.958 . S
C911 H926 0.961 . S
C911 H927 0.960 . S
H912 C896 0.931 . S
H913 C901 0.929 . S
H914 C902 0.960 . S
H915 C902 0.962 . S
H916 C902 0.960 . S
H917 C903 0.961 . S
H918 C903 0.961 . S
H919 C903 0.961 . S
H920 C904 0.931 . S
H921 C909 0.930 . S
H922 C910 0.956 . S
H923 C910 0.961 . S
H924 C910 0.961 . S
H925 C911 0.958 . S
H926 C911 0.961 . S
H927 C911 0.960 . S
C928 C929 1.391 . S
C928 C930 1.394 . S
C928 H944 0.931 . S
C929 C928 1.391 . S
C929 C933 1.376 . S
C930 C928 1.394 . S
C930 C931 1.369 . S
C930 C934 1.531 . S
C931 C930 1.369 . S
C931 C932 1.410 . S
C931 C939 1.503 . S
C932 C931 1.410 . S
C932 C933 1.392 . S
C932 C935 1.511 . S
C933 C929 1.376 . S
C933 C932 1.392 . S
C933 H945 0.929 . S
C934 C930 1.531 . S
C934 H946 0.960 . S
C934 H947 0.962 . S
C934 H948 0.960 . S
C935 C932 1.511 . S
C935 H949 0.961 . S
C935 H950 0.961 . S
C935 H951 0.961 . S
C936 C937 1.370 . S
C936 C938 1.363 . S
C936 H952 0.931 . S
C937 C936 1.370 . S
C937 C941 1.408 . S
C938 C936 1.363 . S
C938 C939 1.370 . S
C938 C942 1.524 . S
C939 C931 1.503 . S
C939 C938 1.370 . S
C939 C940 1.403 . S
C940 C939 1.403 . S
C940 C941 1.404 . S
C940 C943 1.539 . S
C941 C937 1.408 . S
C941 C940 1.404 . S
C941 H953 0.930 1_556 S
C942 C938 1.524 . S
C942 H954 0.956 . S
C942 H955 0.961 . S
C942 H956 0.961 . S
C943 C940 1.539 . S
C943 H957 0.958 . S
C943 H958 0.961 1_556 S
C943 H959 0.960 . S
H944 C928 0.931 . S
H945 C933 0.929 . S
H946 C934 0.960 . S
H947 C934 0.962 . S
H948 C934 0.960 . S
H949 C935 0.961 . S
H950 C935 0.961 . S
H951 C935 0.961 . S
H952 C936 0.931 . S
H953 C941 0.930 1_554 S
H954 C942 0.956 . S
H955 C942 0.961 . S
H956 C942 0.961 . S
H957 C943 0.958 . S
H958 C943 0.961 1_554 S
H959 C943 0.960 . S
C960 C961 1.391 . S
C960 C962 1.394 . S
C960 H976 0.931 . S
C961 C960 1.391 . S
C961 C965 1.376 . S
C962 C960 1.394 . S
C962 C963 1.369 . S
C962 C966 1.531 . S
C963 C962 1.369 . S
C963 C964 1.410 . S
C963 C971 1.503 . S
C964 C963 1.410 . S
C964 C965 1.392 . S
C964 C967 1.511 . S
C965 C961 1.376 . S
C965 C964 1.392 . S
C965 H977 0.929 . S
C966 C962 1.531 . S
C966 H978 0.960 . S
C966 H979 0.962 . S
C966 H980 0.960 . S
C967 C964 1.511 . S
C967 H981 0.961 . S
C967 H982 0.961 . S
C967 H983 0.961 . S
C968 C969 1.370 . S
C968 C970 1.363 . S
C968 H984 0.931 . S
C969 C968 1.370 . S
C969 C973 1.408 . S
C970 C968 1.363 . S
C970 C971 1.370 . S
C970 C974 1.524 . S
C971 C963 1.503 . S
C971 C970 1.370 . S
C971 C972 1.403 . S
C972 C971 1.403 . S
C972 C973 1.404 . S
C972 C975 1.539 . S
C973 C969 1.408 . S
C973 C972 1.404 . S
C973 H985 0.930 . S
C974 C970 1.524 . S
C974 H986 0.965 . S
C974 H987 0.961 . S
C974 H988 0.961 1_655 S
C975 C972 1.539 . S
C975 H989 0.958 . S
C975 H990 0.961 . S
C975 H991 0.960 . S
H976 C960 0.931 . S
H977 C965 0.929 . S
H978 C966 0.960 . S
H979 C966 0.962 . S
H980 C966 0.960 . S
H981 C967 0.961 . S
H982 C967 0.961 . S
H983 C967 0.961 . S
H984 C968 0.931 . S
H985 C973 0.930 . S
H986 C974 0.965 . S
H987 C974 0.961 . S
H988 C974 0.961 1_455 S
H989 C975 0.958 . S
H990 C975 0.961 . S
H991 C975 0.960 . S
C992 C993 1.391 . S
C992 C994 1.394 . S
C992 H1008 0.931 . S
C993 C992 1.391 . S
C993 C997 1.376 . S
C994 C992 1.394 . S
C994 C995 1.369 . S
C994 C998 1.531 . S
C995 C994 1.369 . S
C995 C996 1.410 . S
C995 C1003 1.503 . S
C996 C995 1.410 . S
C996 C997 1.392 . S
C996 C999 1.511 . S
C997 C993 1.376 . S
C997 C996 1.392 . S
C997 H1009 0.929 . S
C998 C994 1.531 . S
C998 H1010 0.960 . S
C998 H1011 0.962 . S
C998 H1012 0.960 . S
C999 C996 1.511 . S
C999 H1013 0.961 . S
C999 H1014 0.961 . S
C999 H1015 0.961 . S
C1000 C1001 1.370 . S
C1000 C1002 1.363 . S
C1000 H1016 0.931 . S
C1001 C1000 1.370 . S
C1001 C1005 1.408 . S
C1002 C1000 1.363 . S
C1002 C1003 1.370 . S
C1002 C1006 1.524 . S
C1003 C995 1.503 . S
C1003 C1002 1.370 . S
C1003 C1004 1.403 . S
C1004 C1003 1.403 . S
C1004 C1005 1.404 . S
C1004 C1007 1.539 . S
C1005 C1001 1.408 . S
C1005 C1004 1.404 . S
C1005 H1017 0.930 1_554 S
C1006 C1002 1.524 . S
C1006 H1018 0.956 . S
C1006 H1019 0.961 . S
C1006 H1020 0.961 . S
C1007 C1004 1.539 . S
C1007 H1021 0.958 . S
C1007 H1022 0.961 1_554 S
C1007 H1023 0.960 . S
H1008 C992 0.931 . S
H1009 C997 0.929 . S
H1010 C998 0.960 . S
H1011 C998 0.962 . S
H1012 C998 0.960 . S
H1013 C999 0.961 . S
H1014 C999 0.961 . S
H1015 C999 0.961 . S
H1016 C1000 0.931 . S
H1017 C1005 0.930 1_556 S
H1018 C1006 0.956 . S
H1019 C1006 0.961 . S
H1020 C1006 0.961 . S
H1021 C1007 0.958 . S
H1022 C1007 0.961 1_556 S
H1023 C1007 0.960 . S
C1024 C1025 1.391 . S
C1024 C1026 1.394 . S
C1024 H1040 0.931 . S
C1025 C1024 1.391 . S
C1025 C1029 1.376 . S
C1026 C1024 1.394 . S
C1026 C1027 1.369 . S
C1026 C1030 1.531 . S
C1027 C1026 1.369 . S
C1027 C1028 1.410 . S
C1027 C1035 1.503 . S
C1028 C1027 1.410 . S
C1028 C1029 1.392 . S
C1028 C1031 1.511 . S
C1029 C1025 1.376 . S
C1029 C1028 1.392 . S
C1029 H1041 0.929 . S
C1030 C1026 1.531 . S
C1030 H1042 0.960 . S
C1030 H1043 0.962 . S
C1030 H1044 0.960 . S
C1031 C1028 1.511 . S
C1031 H1045 0.961 . S
C1031 H1046 0.961 . S
C1031 H1047 0.961 . S
C1032 C1033 1.370 . S
C1032 C1034 1.363 . S
C1032 H1048 0.931 . S
C1033 C1032 1.370 . S
C1033 C1037 1.408 . S
C1034 C1032 1.363 . S
C1034 C1035 1.370 . S
C1034 C1038 1.524 . S
C1035 C1027 1.503 . S
C1035 C1034 1.370 . S
C1035 C1036 1.403 . S
C1036 C1035 1.403 . S
C1036 C1037 1.404 . S
C1036 C1039 1.539 . S
C1037 C1033 1.408 . S
C1037 C1036 1.404 . S
C1037 H1049 0.930 . S
C1038 C1034 1.524 . S
C1038 H1050 0.956 . S
C1038 H1051 0.961 . S
C1038 H1052 0.961 . S
C1039 C1036 1.539 . S
C1039 H1053 0.958 . S
C1039 H1054 0.961 . S
C1039 H1055 0.960 . S
H1040 C1024 0.931 . S
H1041 C1029 0.929 . S
H1042 C1030 0.960 . S
H1043 C1030 0.962 . S
H1044 C1030 0.960 . S
H1045 C1031 0.961 . S
H1046 C1031 0.961 . S
H1047 C1031 0.961 . S
H1048 C1032 0.931 . S
H1049 C1037 0.930 . S
H1050 C1038 0.956 . S
H1051 C1038 0.961 . S
H1052 C1038 0.961 . S
H1053 C1039 0.958 . S
H1054 C1039 0.961 . S
H1055 C1039 0.960 . S
C1056 C1057 1.391 . S
C1056 C1058 1.394 . S
C1056 H1072 0.931 . S
C1057 C1056 1.391 . S
C1057 C1061 1.376 . S
C1058 C1056 1.394 . S
C1058 C1059 1.369 . S
C1058 C1062 1.531 . S
C1059 C1058 1.369 . S
C1059 C1060 1.410 . S
C1059 C1067 1.503 . S
C1060 C1059 1.410 . S
C1060 C1061 1.392 . S
C1060 C1063 1.511 . S
C1061 C1057 1.376 . S
C1061 C1060 1.392 . S
C1061 H1073 0.929 . S
C1062 C1058 1.531 . S
C1062 H1074 0.960 . S
C1062 H1075 0.962 . S
C1062 H1076 0.960 . S
C1063 C1060 1.511 . S
C1063 H1077 0.961 . S
C1063 H1078 0.961 . S
C1063 H1079 0.961 . S
C1064 C1065 1.370 . S
C1064 C1066 1.363 . S
C1064 H1080 0.931 . S
C1065 C1064 1.370 . S
C1065 C1069 1.408 . S
C1066 C1064 1.363 . S
C1066 C1067 1.370 . S
C1066 C1070 1.524 . S
C1067 C1059 1.503 . S
C1067 C1066 1.370 . S
C1067 C1068 1.403 . S
C1068 C1067 1.403 . S
C1068 C1069 1.404 . S
C1068 C1071 1.539 . S
C1069 C1065 1.408 . S
C1069 C1068 1.404 . S
C1069 H1081 0.930 . S
C1070 C1066 1.524 . S
C1070 H1082 0.956 . S
C1070 H1083 0.961 . S
C1070 H1084 0.961 . S
C1071 C1068 1.539 . S
C1071 H1085 0.958 . S
C1071 H1086 0.961 . S
C1071 H1087 0.960 . S
H1072 C1056 0.931 . S
H1073 C1061 0.929 . S
H1074 C1062 0.960 . S
H1075 C1062 0.962 . S
H1076 C1062 0.960 . S
H1077 C1063 0.961 . S
H1078 C1063 0.961 . S
H1079 C1063 0.961 . S
H1080 C1064 0.931 . S
H1081 C1069 0.930 . S
H1082 C1070 0.956 . S
H1083 C1070 0.961 . S
H1084 C1070 0.961 . S
H1085 C1071 0.958 . S
H1086 C1071 0.961 . S
H1087 C1071 0.960 . S
C1088 C1089 1.391 . S
C1088 C1090 1.394 . S
C1088 H1104 0.931 . S
C1089 C1088 1.391 . S
C1089 C1093 1.376 . S
C1090 C1088 1.394 . S
C1090 C1091 1.369 . S
C1090 C1094 1.531 . S
C1091 C1090 1.369 . S
C1091 C1092 1.410 . S
C1091 C1099 1.503 . S
C1092 C1091 1.410 . S
C1092 C1093 1.392 . S
C1092 C1095 1.511 . S
C1093 C1089 1.376 . S
C1093 C1092 1.392 . S
C1093 H1105 0.929 . S
C1094 C1090 1.531 . S
C1094 H1106 0.960 . S
C1094 H1107 0.962 . S
C1094 H1108 0.960 . S
C1095 C1092 1.511 . S
C1095 H1109 0.961 . S
C1095 H1110 0.961 . S
C1095 H1111 0.961 . S
C1096 C1097 1.370 . S
C1096 C1098 1.363 . S
C1096 H1112 0.931 . S
C1097 C1096 1.370 . S
C1097 C1101 1.408 . S
C1098 C1096 1.363 . S
C1098 C1099 1.370 . S
C1098 C1102 1.524 . S
C1099 C1091 1.503 . S
C1099 C1098 1.370 . S
C1099 C1100 1.403 . S
C1100 C1099 1.403 . S
C1100 C1101 1.404 . S
C1100 C1103 1.539 . S
C1101 C1097 1.408 . S
C1101 C1100 1.404 . S
C1101 H1113 0.930 . S
C1102 C1098 1.524 . S
C1102 H1114 0.956 . S
C1102 H1115 0.961 . S
C1102 H1116 0.961 . S
C1103 C1100 1.539 . S
C1103 H1117 0.958 . S
C1103 H1118 0.961 . S
C1103 H1119 0.960 . S
H1104 C1088 0.931 . S
H1105 C1093 0.929 . S
H1106 C1094 0.960 . S
H1107 C1094 0.962 . S
H1108 C1094 0.960 . S
H1109 C1095 0.961 . S
H1110 C1095 0.961 . S
H1111 C1095 0.961 . S
H1112 C1096 0.931 . S
H1113 C1101 0.930 . S
H1114 C1102 0.956 . S
H1115 C1102 0.961 . S
H1116 C1102 0.961 . S
H1117 C1103 0.958 . S
H1118 C1103 0.961 . S
H1119 C1103 0.960 . S
C1120 C1121 1.391 . S
C1120 C1122 1.394 . S
C1120 H1136 0.931 . S
C1121 C1120 1.391 . S
C1121 C1125 1.376 . S
C1122 C1120 1.394 . S
C1122 C1123 1.369 . S
C1122 C1126 1.531 . S
C1123 C1122 1.369 . S
C1123 C1124 1.410 . S
C1123 C1131 1.503 . S
C1124 C1123 1.410 . S
C1124 C1125 1.392 . S
C1124 C1127 1.511 . S
C1125 C1121 1.376 . S
C1125 C1124 1.392 . S
C1125 H1137 0.929 . S
C1126 C1122 1.531 . S
C1126 H1138 0.960 . S
C1126 H1139 0.962 . S
C1126 H1140 0.960 . S
C1127 C1124 1.511 . S
C1127 H1141 0.961 . S
C1127 H1142 0.961 . S
C1127 H1143 0.961 . S
C1128 C1129 1.370 . S
C1128 C1130 1.363 . S
C1128 H1144 0.931 . S
C1129 C1128 1.370 . S
C1129 C1133 1.408 . S
C1130 C1128 1.363 . S
C1130 C1131 1.370 . S
C1130 C1134 1.524 . S
C1131 C1123 1.503 . S
C1131 C1130 1.370 . S
C1131 C1132 1.403 . S
C1132 C1131 1.403 . S
C1132 C1133 1.404 . S
C1132 C1135 1.539 . S
C1133 C1129 1.408 . S
C1133 C1132 1.404 . S
C1133 H1145 0.930 . S
C1134 C1130 1.524 . S
C1134 H1146 0.956 . S
C1134 H1147 0.961 . S
C1134 H1148 0.961 . S
C1135 C1132 1.539 . S
C1135 H1149 0.958 . S
C1135 H1150 0.961 1_455 S
C1135 H1151 0.960 . S
H1136 C1120 0.931 . S
H1137 C1125 0.929 . S
H1138 C1126 0.960 . S
H1139 C1126 0.962 . S
H1140 C1126 0.960 . S
H1141 C1127 0.961 . S
H1142 C1127 0.961 . S
H1143 C1127 0.961 . S
H1144 C1128 0.931 . S
H1145 C1133 0.930 . S
H1146 C1134 0.956 . S
H1147 C1134 0.961 . S
H1148 C1134 0.961 . S
H1149 C1135 0.958 . S
H1150 C1135 0.961 1_655 S
H1151 C1135 0.960 . S
C1152 C1153 1.391 . S
C1152 C1154 1.394 . S
C1152 H1168 0.931 . S
C1153 C1152 1.391 . S
C1153 C1157 1.376 . S
C1154 C1152 1.394 . S
C1154 C1155 1.369 . S
C1154 C1158 1.531 . S
C1155 C1154 1.369 . S
C1155 C1156 1.410 . S
C1155 C1163 1.503 . S
C1156 C1155 1.410 . S
C1156 C1157 1.392 . S
C1156 C1159 1.511 . S
C1157 C1153 1.376 . S
C1157 C1156 1.392 . S
C1157 H1169 0.929 . S
C1158 C1154 1.531 . S
C1158 H1170 0.960 . S
C1158 H1171 0.962 . S
C1158 H1172 0.960 . S
C1159 C1156 1.511 . S
C1159 H1173 0.961 . S
C1159 H1174 0.961 . S
C1159 H1175 0.961 . S
C1160 C1161 1.370 . S
C1160 C1162 1.363 . S
C1160 H1176 0.931 . S
C1161 C1160 1.370 . S
C1161 C1165 1.408 . S
C1162 C1160 1.363 . S
C1162 C1163 1.370 . S
C1162 C1166 1.524 . S
C1163 C1155 1.503 . S
C1163 C1162 1.370 . S
C1163 C1164 1.403 . S
C1164 C1163 1.403 . S
C1164 C1165 1.404 . S
C1164 C1167 1.539 . S
C1165 C1161 1.408 . S
C1165 C1164 1.404 . S
C1165 H1177 0.930 . S
C1166 C1162 1.524 . S
C1166 H1178 0.956 . S
C1166 H1179 0.961 . S
C1166 H1180 0.961 . S
C1167 C1164 1.539 . S
C1167 H1181 0.958 . S
C1167 H1182 0.961 . S
C1167 H1183 0.960 . S
H1168 C1152 0.931 . S
H1169 C1157 0.929 . S
H1170 C1158 0.960 . S
H1171 C1158 0.962 . S
H1172 C1158 0.960 . S
H1173 C1159 0.961 . S
H1174 C1159 0.961 . S
H1175 C1159 0.961 . S
H1176 C1160 0.931 . S
H1177 C1165 0.930 . S
H1178 C1166 0.956 . S
H1179 C1166 0.961 . S
H1180 C1166 0.961 . S
H1181 C1167 0.958 . S
H1182 C1167 0.961 . S
H1183 C1167 0.960 . S
C417 C29 0.949 . S
C425 C260 0.914 . S
C449 C49 1.056 . S
C457 C321 1.123 . S
C489 C359 2.542 . S
C481 C93 2.547 . S
C513 C119 2.248 . S
C521 C399 2.255 . S
C553 C319 1.191 . S
C545 C17 1.188 . S
C585 C287 2.051 . S
C577 C61 1.767 . S
C617 C396 1.736 . S
C609 C81 1.716 . S
C649 C356 1.904 . S
C641 C125 1.884 . S
C673 C23 1.038 . S
C681 C401 1.044 . S
C713 C316 2.356 . S
C705 C87 2.272 . S
C737 C113 2.196 . S
C745 C258 2.190 . S
C769 C55 1.282 . S
C777 C361 1.493 . S
C809 C281 0.904 . S
C801 C157 0.894 . S
C833 C189 1.175 . S
C841 C300 1.166 . S
C865 C221 2.556 . S
C873 C338 2.521 . S
C897 C253 2.325 . S
C905 C378 2.324 . S
C929 C145 1.170 . S
C937 C298 1.274 . S
C969 C276 2.015 . S
C961 C183 1.988 . S
C1001 C407 1.783 . S
C993 C209 1.743 . S
C1033 C367 1.847 . S
C1025 C247 1.826 . S
C1057 C151 1.072 . S
C1065 C380 1.077 . S
C1097 C327 2.354 . S
C1089 C215 2.326 . S
C1129 C279 2.150 . S
C1121 C241 2.139 . S
C1153 C177 1.475 . S
C1161 C340 1.489 . S
