# Generated by pormake.
# Topology zzz, (3,6)-cn, num edge types: 1
# Building blocks:
#     Node 0, Type 0, BuildingBlock: CUQRIR_clean_linker_1, # of connection points: 3
#     Node 1, Type 0, BuildingBlock: CUQRIR_clean_linker_1, # of connection points: 3
#     Node 2, Type 0, BuildingBlock: CUQRIR_clean_linker_1, # of connection points: 3
#     Node 3, Type 0, BuildingBlock: CUQRIR_clean_linker_1, # of connection points: 3
#     Node 4, Type 0, BuildingBlock: CUQRIR_clean_linker_1, # of connection points: 3
#     Node 5, Type 0, BuildingBlock: CUQRIR_clean_linker_1, # of connection points: 3
#     Node 6, Type 0, BuildingBlock: CUQRIR_clean_linker_1, # of connection points: 3
#     Node 7, Type 0, BuildingBlock: CUQRIR_clean_linker_1, # of connection points: 3
#     Node 8, Type 1, BuildingBlock: PAMTOO_clean_sbu_0, # of connection points: 6
#     Node 9, Type 1, BuildingBlock: PAMTOO_clean_sbu_0, # of connection points: 6
#     Node 10, Type 1, BuildingBlock: PAMTOO_clean_sbu_0, # of connection points: 6
#     Node 11, Type 1, BuildingBlock: PAMTOO_clean_sbu_0, # of connection points: 6
#     Edge 12, Type (0, 1), BuildingBlock: CIFDUS_clean_linker_0, # of connection points: 2
#     Edge 13, Type (0, 1), BuildingBlock: CIFDUS_clean_linker_0, # of connection points: 2
#     Edge 14, Type (0, 1), BuildingBlock: CIFDUS_clean_linker_0, # of connection points: 2
#     Edge 15, Type (0, 1), BuildingBlock: CIFDUS_clean_linker_0, # of connection points: 2
#     Edge 16, Type (0, 1), BuildingBlock: CIFDUS_clean_linker_0, # of connection points: 2
#     Edge 17, Type (0, 1), BuildingBlock: CIFDUS_clean_linker_0, # of connection points: 2
#     Edge 18, Type (0, 1), BuildingBlock: CIFDUS_clean_linker_0, # of connection points: 2
#     Edge 19, Type (0, 1), BuildingBlock: CIFDUS_clean_linker_0, # of connection points: 2
#     Edge 20, Type (0, 1), BuildingBlock: CIFDUS_clean_linker_0, # of connection points: 2
#     Edge 21, Type (0, 1), BuildingBlock: CIFDUS_clean_linker_0, # of connection points: 2
#     Edge 22, Type (0, 1), BuildingBlock: CIFDUS_clean_linker_0, # of connection points: 2
#     Edge 23, Type (0, 1), BuildingBlock: CIFDUS_clean_linker_0, # of connection points: 2
#     Edge 24, Type (0, 1), BuildingBlock: CIFDUS_clean_linker_0, # of connection points: 2
#     Edge 25, Type (0, 1), BuildingBlock: CIFDUS_clean_linker_0, # of connection points: 2
#     Edge 26, Type (0, 1), BuildingBlock: CIFDUS_clean_linker_0, # of connection points: 2
#     Edge 27, Type (0, 1), BuildingBlock: CIFDUS_clean_linker_0, # of connection points: 2
#     Edge 28, Type (0, 1), BuildingBlock: CIFDUS_clean_linker_0, # of connection points: 2
#     Edge 29, Type (0, 1), BuildingBlock: CIFDUS_clean_linker_0, # of connection points: 2
#     Edge 30, Type (0, 1), BuildingBlock: CIFDUS_clean_linker_0, # of connection points: 2
#     Edge 31, Type (0, 1), BuildingBlock: CIFDUS_clean_linker_0, # of connection points: 2
#     Edge 32, Type (0, 1), BuildingBlock: CIFDUS_clean_linker_0, # of connection points: 2
#     Edge 33, Type (0, 1), BuildingBlock: CIFDUS_clean_linker_0, # of connection points: 2
#     Edge 34, Type (0, 1), BuildingBlock: CIFDUS_clean_linker_0, # of connection points: 2
#     Edge 35, Type (0, 1), BuildingBlock: CIFDUS_clean_linker_0, # of connection points: 2
# Relax obj value: 0.295
# Max RMSD: 0.254
# Mean RMSD: 0.133
data_MOF--net-zzz--node1-PAMTOO_clean_sbu_0--node2-CUQRIR_clean_linker_1--edge1-CIFDUS_clean_linker_0
_symmetry_space_group_name_H-M    P1
_symmetry_Int_Tables_number       1
_symmetry_cell_setting            triclinic
loop_
_symmetry_equiv_pos_as_xyz
'x, y, z'
_cell_length_a     46.571052
_cell_length_b     39.255251
_cell_length_c     12.226702
_cell_angle_alpha  92.709973
_cell_angle_beta   76.407226
_cell_angle_gamma 86.297339
loop_
_atom_site_label
_atom_site_type_symbol
_atom_site_fract_x
_atom_site_fract_y
_atom_site_fract_z
_atom_type_partial_charge
C0 C 0.80432 0.53372 0.71382 0.0
N1 N 0.83453 0.53153 0.68615 0.0
N2 N 0.79361 0.5332 0.61883 0.0
C3 C 0.78543 0.53447 0.83139 0.0
C4 C 0.81832 0.53086 0.53388 0.0
N5 N 0.84277 0.5299 0.57459 0.0
C6 C 0.81874 0.52766 0.41032 0.0
H7 H 0.7752 0.50976 0.84404 0.0
H8 H 0.76721 0.55496 0.8432 0.0
H9 H 0.79868 0.53866 0.89466 0.0
H10 H 0.83937 0.53682 0.35879 0.0
H11 H 0.7993 0.54242 0.39326 0.0
H12 H 0.81785 0.50034 0.38456 0.0
C13 C 1.02454 0.72219 0.56311 0.0
N14 N 1.01212 0.75453 0.59083 0.0
N15 N 1.00957 0.70457 0.49883 0.0
C16 C 0.05311 0.70906 0.58838 0.0
C17 C 0.98731 0.7276 0.49077 0.0
N18 N 0.98952 0.75847 0.54184 0.0
C19 C 0.96486 0.72056 0.42333 0.0
H20 H 0.07174 0.72065 0.53228 0.0
H21 H 0.05644 0.68078 0.5746 0.0
H22 H 0.05318 0.71684 0.67676 0.0
H23 H 0.95418 0.69693 0.45058 0.0
H24 H 0.97614 0.71607 0.33265 0.0
H25 H 0.94746 0.74198 0.43473 0.0
C26 C 0.79685 1.00364 0.49132 0.0
N27 N 0.76717 1.00927 0.50075 0.0
N28 N 0.81259 1.00783 0.38371 0.0
C29 C 0.81033 0.99406 0.58654 0.0
C30 C 0.79114 0.01689 0.32958 0.0
N31 N 0.76393 0.01756 0.40008 0.0
C32 C 0.79683 0.0258 0.20826 0.0
H33 H 0.81491 0.01775 0.63045 0.0
H34 H 0.83152 0.9782 0.55439 0.0
H35 H 0.79478 0.98002 0.64829 0.0
H36 H 0.7998 1.00187 0.15352 0.0
H37 H 0.81731 0.03946 0.18482 0.0
H38 H 0.77809 0.04181 0.19133 0.0
C39 C 0.55228 0.77333 0.44573 0.0
N40 N 0.54169 0.74212 0.46488 0.0
N41 N 0.53893 0.78985 0.37304 0.0
C42 C 0.57661 0.78688 0.49266 0.0
C43 C 0.51981 0.76738 0.35023 0.0
N44 N 0.5215 0.73857 0.40542 0.0
C45 C 0.49971 0.77294 0.27166 0.0
H46 H 0.56662 0.8052 0.56566 0.0
H47 H 0.59147 0.80084 0.42833 0.0
H48 H 0.58965 0.76601 0.52165 0.0
H49 H 0.5114 0.76275 0.18541 0.0
H50 H 0.49321 0.80056 0.26951 0.0
H51 H 0.4795 0.75896 0.29834 0.0
C52 C 0.26754 0.49849 0.14337 0.0
N53 N 0.24002 0.49142 0.13356 0.0
N54 N 0.27598 0.47981 0.22302 0.0
C55 C 0.28459 0.52644 0.08588 0.0
C56 C 0.25261 0.46108 0.26039 0.0
N57 N 0.23049 0.46849 0.20827 0.0
C58 C 0.25157 0.43529 0.34819 0.0
H59 H 0.30817 0.51709 0.05242 0.0
H60 H 0.2838 0.54807 0.1486 0.0
H61 H 0.27529 0.53569 0.01606 0.0
H62 H 0.24592 0.44856 0.43345 0.0
H63 H 0.27366 0.42125 0.33642 0.0
H64 H 0.23473 0.41687 0.34335 0.0
C65 C 0.04734 0.2921 0.1779 0.0
N66 N 0.03291 0.26291 0.18605 0.0
N67 N 0.03826 0.31266 0.2748 0.0
C68 C 0.06979 0.30063 0.07526 0.0
C69 C 1.01817 0.2945 0.34205 0.0
N70 N 1.01473 0.26484 0.2879 0.0
C71 C 1.00451 0.30365 0.46575 0.0
H72 H 0.09213 0.29064 0.08164 0.0
H73 H 0.0697 0.32874 0.06887 0.0
H74 H 0.06522 0.28841 0.99802 0.0
H75 H 0.98453 0.32146 0.47403 0.0
H76 H 1.02035 0.31631 0.50617 0.0
H77 H 0.99733 0.28104 0.51279 0.0
C78 C 0.2758 0.01302 0.25285 0.0
N79 N 0.30325 0.024 0.24815 0.0
N80 N 0.25625 0.02478 0.35117 0.0
C81 C 0.26872 0.98855 0.16702 0.0
C82 C 0.27314 0.04239 0.40653 0.0
N83 N 0.30146 0.04177 0.34524 0.0
C84 C 0.26298 0.05599 0.52753 0.0
H85 H 0.24501 0.99256 0.16542 0.0
H86 H 0.27291 0.96204 0.19039 0.0
H87 H 0.28304 0.99161 0.08221 0.0
H88 H 0.26426 0.03467 0.58309 0.0
H89 H 0.23959 0.06676 0.54577 0.0
H90 H 0.27725 0.07592 0.54667 0.0
C91 C 0.54469 0.25476 0.36245 0.0
N92 N 0.54185 0.28959 0.36913 0.0
N93 N 0.54331 0.24268 0.46624 0.0
C94 C 0.55167 0.2329 0.25437 0.0
C95 C 0.53987 0.27146 0.53508 0.0
N96 N 0.53913 0.29963 0.47644 0.0
C97 C 0.53768 0.27208 0.65992 0.0
H98 H 0.54206 0.24543 0.19017 0.0
H99 H 0.54319 0.2073 0.26846 0.0
H100 H 0.57608 0.22946 0.22195 0.0
H101 H 0.56029 0.27181 0.67478 0.0
H102 H 0.52716 0.24926 0.69635 0.0
H103 H 0.52472 0.29562 0.70341 0.0
Dy104 Dy 1.01695 0.01536 0.74102 0.0
Dy105 Dy 0.04697 1.00306 0.94709 0.0
C106 C 0.08862 0.0148 0.70102 0.0
O107 O 0.04183 0.96411 0.70309 0.0
O108 O 0.0362 0.95108 0.88562 0.0
O109 O 1.01247 0.03952 0.59078 0.0
O110 O 0.98334 1.00074 0.65628 0.0
O111 O 0.9977 1.0117 0.02694 0.0
O112 O 0.98225 0.9936 0.87316 0.0
O113 O 0.05094 0.05813 0.90949 0.0
O114 O 1.00844 0.06479 0.84968 0.0
O115 O 0.05416 0.02357 0.10449 0.0
O116 O 0.07141 0.97204 0.04153 0.0
C117 C 0.04116 0.94121 0.77797 0.0
O118 O 0.06451 0.02568 0.67001 0.0
O119 O 0.08705 1.00131 0.79912 0.0
C120 C 0.96378 0.04685 0.574 0.0
C121 C 0.93419 0.10751 0.53692 0.0
C122 C 0.93397 0.09932 0.64772 0.0
C123 C 0.9491 0.0691 0.66616 0.0
C124 C 0.95904 0.05203 0.46704 0.0
C125 C 0.94389 0.08219 0.44875 0.0
C126 C 0.98897 0.02404 0.58372 0.0
C127 C 0.9767 1.00077 0.98222 0.0
C128 C 1.02881 0.07807 0.89346 0.0
C129 C 0.04886 0.98081 0.23424 0.0
C130 C 1.01594 0.94203 0.39899 0.0
C131 C 1.00153 0.96775 0.3518 0.0
C132 C 1.0179 0.98718 0.27029 0.0
C133 C 0.06344 0.95688 0.28782 0.0
C134 C 0.04703 0.93744 0.36934 0.0
C135 C 0.06487 0.99413 0.12857 0.0
H136 H 0.92672 0.11864 0.71679 0.0
H137 H 0.95244 0.06528 0.74965 0.0
H138 H 0.96996 0.035 0.39525 0.0
H139 H 0.94433 0.08801 0.36259 0.0
H140 H 0.97754 0.97082 0.37087 0.0
H141 H 1.00608 1.00534 0.22964 0.0
H142 H 0.0872 0.9512 0.26002 0.0
H143 H 0.0584 0.91652 0.40049 0.0
Dy144 Dy 0.53496 0.98437 0.77208 0.0
Dy145 Dy 0.53881 0.03255 0.98771 0.0
C146 C 0.53454 0.0655 0.75808 0.0
O147 O 0.58393 0.99011 0.74603 0.0
O148 O 0.58718 0.01567 0.91597 0.0
O149 O 0.54773 0.97462 0.59136 0.0
O150 O 0.51756 0.94243 0.69415 0.0
O151 O 0.53863 0.97855 0.04656 0.0
O152 O 0.55152 0.9469 0.87763 0.0
O153 O 0.49193 0.03982 0.96704 0.0
O154 O 0.48928 0.98668 0.89105 0.0
O155 O 0.51698 0.04788 0.16087 0.0
O156 O 0.55547 0.07268 0.07695 0.0
C157 C 0.59973 1.00132 0.8148 0.0
O158 O 0.52199 0.03794 0.73531 0.0
O159 O 0.54698 0.06715 0.84387 0.0
C160 C 0.50536 0.96082 0.53129 0.0
C161 C 0.4517 0.97887 0.47388 0.0
C162 C 0.47016 1.00425 0.49351 0.0
C163 C 0.49689 0.99528 0.52071 0.0
C164 C 0.48821 0.93531 0.50332 0.0
C165 C 0.4619 0.94423 0.4724 0.0
C166 C 0.528 0.95239 0.59313 0.0
C167 C 0.54719 0.94911 0.9877 0.0
C168 C 0.47591 0.01488 0.94758 0.0
C169 C 0.55228 0.05972 0.26298 0.0
C170 C 0.59595 0.04369 0.38024 0.0
C171 C 0.58272 0.01753 0.33169 0.0
C172 C 0.56107 0.02551 0.27398 0.0
C173 C 0.56259 0.08575 0.32235 0.0
C174 C 0.58405 0.07774 0.38212 0.0
C175 C 0.5375 0.06779 0.17311 0.0
H176 H 0.4632 0.03118 0.49614 0.0
H177 H 0.50971 0.01556 0.54186 0.0
H178 H 0.49417 0.90863 0.51221 0.0
H179 H 0.44878 0.92394 0.4536 0.0
H180 H 0.59096 0.99098 0.32755 0.0
H181 H 0.55324 1.00498 0.22927 0.0
H182 H 0.55574 0.11233 0.31568 0.0
H183 H 0.59285 0.09847 0.4223 0.0
Dy184 Dy 0.57051 0.52292 0.96378 0.0
Dy185 Dy 0.50421 0.51434 0.88851 0.0
C186 C 0.53233 0.4571 0.03544 0.0
O187 O 0.57969 0.47959 0.83361 0.0
O188 O 0.54389 0.4992 0.74884 0.0
O189 O 0.61646 0.51089 0.96673 0.0
O190 O 0.59215 0.5559 0.06166 0.0
O191 O 0.51524 0.56784 0.86026 0.0
O192 O 0.56606 0.56166 0.83328 0.0
O193 O 0.49568 0.55709 0.02345 0.0
O194 O 0.53056 0.53467 0.10572 0.0
O195 O 0.48651 0.51202 0.74177 0.0
O196 O 0.45698 0.50586 0.90723 0.0
C197 C 0.56517 0.4764 0.75455 0.0
O198 O 0.55565 0.47422 0.03975 0.0
O199 O 0.51126 0.46808 0.98595 0.0
C200 C 0.63266 0.53176 0.12871 0.0
C201 C 0.66686 0.52289 0.29201 0.0
C202 C 0.65068 0.49628 0.26111 0.0
C203 C 0.63382 0.50064 0.18039 0.0
C204 C 0.64794 0.55861 0.16183 0.0
C205 C 0.66478 0.55429 0.24214 0.0
C206 C 0.61704 0.53684 0.03686 0.0
C207 C 0.54154 0.57901 0.82313 0.0
C208 C 0.50999 0.55879 0.10391 0.0
C209 C 0.43541 0.50419 0.73851 0.0
C210 C 0.38935 0.49938 0.62119 0.0
C211 C 0.41725 0.5098 0.56723 0.0
C212 C 0.43988 0.51208 0.6248 0.0
C213 C 0.40767 0.49363 0.79286 0.0
C214 C 0.385 0.49114 0.73498 0.0
C215 C 0.45977 0.50732 0.79826 0.0
H216 H 0.65127 0.47186 0.29848 0.0
H217 H 0.6221 0.47954 0.15719 0.0
H218 H 0.64746 0.58286 0.12319 0.0
H219 H 0.67712 0.57526 0.26171 0.0
H220 H 0.42155 0.51698 0.48081 0.0
H221 H 0.4609 0.52049 0.58005 0.0
H222 H 0.40348 0.48718 0.88007 0.0
H223 H 0.3641 0.48248 0.7796 0.0
Dy224 Dy 0.05896 0.55537 0.72762 0.0
Dy225 Dy 0.05167 0.48719 0.85684 0.0
C226 C 0.06437 0.48274 0.60264 0.0
O227 O 1.01022 0.55626 0.7995 0.0
O228 O 1.00669 0.499 0.81664 0.0
O229 O 0.04124 0.60174 0.66869 0.0
O230 O 0.08699 0.58331 0.60226 0.0
O231 O 0.03325 0.52848 0.99509 0.0
O232 O 0.05479 0.57452 0.90625 0.0
O233 O 0.09032 0.50966 0.90353 0.0
O234 O 0.10504 0.53728 0.74288 0.0
O235 O 0.07239 0.44592 0.9291 0.0
O236 O 1.02907 0.44162 0.89723 0.0
C237 C 0.99422 0.52975 0.80944 0.0
O238 O 0.04904 0.51227 0.61826 0.0
O239 O 0.07762 0.47444 0.68071 0.0
C240 C 0.05943 0.59398 0.47133 0.0
C241 C 0.07668 0.54359 0.29586 0.0
C242 C 0.0496 0.54225 0.3743 0.0
C243 C 0.04057 0.56797 0.46085 0.0
C244 C 0.08222 0.59949 0.37799 0.0
C245 C 0.09033 0.5746 0.28844 0.0
C246 C 0.06433 0.60154 0.58419 0.0
C247 C 0.04056 0.56053 0.9976 0.0
C248 C 0.11078 0.52435 0.8335 0.0
C249 C 0.03667 0.42074 0.06256 0.0
C250 C 0.99261 0.42958 0.26111 0.0
C251 C 1.01786 0.44805 0.24846 0.0
C252 C 0.03993 0.44348 0.14991 0.0
C253 C 1.01429 0.39803 0.083 0.0
C254 C 0.9921 0.40255 0.18225 0.0
C255 C 0.04887 0.42882 0.94657 0.0
H256 H 0.03833 0.5189 0.3808 0.0
H257 H 1.02204 0.56377 0.52993 0.0
H258 H 0.09674 0.61973 0.38257 0.0
H259 H 0.11082 0.5766 0.22633 0.0
H260 H 1.01912 0.46836 0.3098 0.0
H261 H 0.05723 0.461 0.13676 0.0
H262 H 1.01168 0.38012 0.01645 0.0
H263 H 0.973 0.38768 0.19057 0.0
H264 H 0.20324 0.05616 0.34764 0.0
H265 H 0.24419 0.9715 0.48017 0.0
H266 H 0.19614 0.96059 0.6026 0.0
H267 H 0.14247 0.97761 0.68112 0.0
H268 H 0.10154 0.06148 0.54211 0.0
H269 H 0.14895 0.0702 0.41464 0.0
C270 C 0.20135 0.03473 0.40096 0.0
C271 C 0.22713 0.01413 0.40291 0.0
C272 C 0.17355 0.02888 0.47202 0.0
C273 C 0.22454 0.98708 0.47511 0.0
C274 C 0.1971 0.98117 0.54616 0.0
C275 C 0.14391 0.99778 0.62293 0.0
C276 C 0.11821 0.01903 0.62282 0.0
C277 C 0.17145 1.00231 0.54716 0.0
C278 C 0.1207 0.04469 0.54503 0.0
C279 C 0.14794 0.04974 0.47159 0.0
H280 H 0.50904 0.18945 0.46836 0.0
H281 H 0.58996 0.21962 0.54211 0.0
H282 H 0.59482 0.16714 0.63906 0.0
H283 H 0.57363 0.11505 0.71795 0.0
H284 H 0.49398 0.08277 0.63654 0.0
H285 H 0.49103 0.13313 0.52785 0.0
C286 C 0.5281 0.18391 0.50298 0.0
C287 C 0.54917 0.20832 0.49818 0.0
C288 C 0.53061 0.15358 0.5595 0.0
C289 C 0.5736 0.2011 0.54461 0.0
C290 C 0.5762 0.17126 0.6009 0.0
C291 C 0.55561 0.11905 0.67649 0.0
C292 C 0.53369 0.09549 0.68782 0.0
C293 C 0.55439 0.14778 0.6119 0.0
C294 C 0.51098 0.10064 0.63064 0.0
C295 C 0.50927 0.12949 0.56821 0.0
H296 H 0.27193 0.50127 0.43835 0.0
H297 H 0.33462 0.46796 0.12763 0.0
H298 H 0.3756 0.47117 0.22234 0.0
H299 H 0.39317 0.4811 0.39652 0.0
H300 H 0.32966 0.51504 0.707 0.0
H301 H 0.28954 0.51283 0.61074 0.0
C302 C 0.29462 0.49473 0.3917 0.0
C303 C 0.30032 0.48433 0.27622 0.0
C304 C 0.31788 0.49624 0.4473 0.0
C305 C 0.32978 0.47631 0.21616 0.0
C306 C 0.35312 0.47791 0.2707 0.0
C307 C 0.37064 0.48841 0.44329 0.0
C308 C 0.36479 0.49799 0.56009 0.0
C309 C 0.34743 0.48755 0.38669 0.0
C310 C 0.33514 0.50684 0.61828 0.0
C311 C 0.31205 0.50591 0.56285 0.0
H312 H 1.0048 0.36775 0.38084 0.0
H313 H 0.09548 0.32925 0.24702 0.0
H314 H 0.11235 0.38025 0.33007 0.0
H315 H 0.10062 0.43348 0.45855 0.0
H316 H 1.00905 0.46862 0.59843 0.0
H317 H 0.99324 0.41905 0.50839 0.0
C318 C 1.02826 0.37035 0.37055 0.0
C319 C 0.04874 0.34465 0.30794 0.0
C320 C 0.0376 0.3985 0.42405 0.0
C321 C 0.07916 0.34891 0.29273 0.0
C322 C 0.08878 0.37783 0.34193 0.0
C323 C 0.07725 0.43069 0.46593 0.0
C324 C 0.056 0.45501 0.53322 0.0
C325 C 0.06814 0.40256 0.40963 0.0
C326 C 1.02579 0.45072 0.54508 0.0
C327 C 1.0167 0.42235 0.49349 0.0
H328 H 0.84266 0.97202 0.19231 0.0
H329 H 0.85475 0.03853 0.46498 0.0
H330 H 0.90723 0.04036 0.37058 0.0
H331 H 0.94936 0.02702 0.20068 0.0
H332 H 0.93473 0.96367 0.92342 0.0
H333 H 0.88415 0.95749 0.02718 0.0
C334 C 0.85679 0.98699 0.23107 0.0
C335 C 0.84452 1.00528 0.33567 0.0
C336 C 0.88675 0.989 0.17402 0.0
C337 C 0.86347 0.02391 0.38544 0.0
C338 C 0.89354 0.02528 0.33051 0.0
C339 C 0.9352 1.01164 0.1633 0.0
C340 C 0.94621 0.99603 0.05308 0.0
C341 C 0.90542 1.00854 0.22337 0.0
C342 C 0.92718 0.97631 1.00695 0.0
C343 C 0.89807 0.97264 0.06658 0.0
H344 H 0.55304 0.79857 0.15068 0.0
H345 H 0.54034 0.85269 0.47465 0.0
H346 H 0.54525 0.90726 0.38311 0.0
H347 H 0.54514 0.9402 0.21355 0.0
H348 H 0.55666 0.88419 0.89125 0.0
H349 H 0.55812 0.83045 0.98054 0.0
C350 C 0.55094 0.82238 0.20149 0.0
C351 C 0.54555 0.8216 0.31954 0.0
C352 C 0.5522 0.85363 0.14918 0.0
C353 C 0.5442 0.85256 0.3838 0.0
C354 C 0.54643 0.88381 0.33169 0.0
C355 C 0.54821 0.91628 0.16267 0.0
C356 C 0.5504 0.91668 0.04533 0.0
C357 C 0.54916 0.88484 0.21483 0.0
C358 C 0.55467 0.88514 0.9814 0.0
C359 C 0.55552 0.85413 0.03246 0.0
H360 H 0.77062 0.48149 0.52713 0.0
H361 H 0.75094 0.58521 0.66645 0.0
H362 H 0.70741 0.59063 0.5854 0.0
H363 H 0.67917 0.56802 0.45279 0.0
H364 H 0.70197 0.465 0.30327 0.0
H365 H 0.73957 0.45703 0.41028 0.0
C366 C 0.7561 0.50482 0.54281 0.0
C367 C 0.76373 0.53281 0.60378 0.0
C368 C 0.73199 0.50808 0.49161 0.0
C369 C 0.74516 0.56317 0.62191 0.0
C370 C 0.72059 0.56637 0.57377 0.0
C371 C 0.69223 0.54373 0.44384 0.0
C372 C 0.68756 0.51726 0.36859 0.0
C373 C 0.71446 0.53941 0.50464 0.0
C374 C 0.70454 0.48581 0.36065 0.0
C375 C 0.72633 0.48125 0.42154 0.0
H376 H 0.98633 0.64461 0.46561 0.0
H377 H 0.05916 0.70505 0.33556 0.0
H378 H 0.07547 0.66544 0.16878 0.0
H379 H 0.06741 0.61564 0.05457 0.0
H380 H 0.99544 0.55354 0.18353 0.0
H381 H 0.98019 0.59169 0.35511 0.0
C382 C 1.00602 0.64861 0.40132 0.0
C383 C 1.02182 0.67742 0.4134 0.0
C384 C 1.01499 0.62586 0.3044 0.0
C385 C 0.04716 0.6826 0.32929 0.0
C386 C 0.05617 0.66027 0.23314 0.0
C387 C 0.04837 0.6104 0.12015 0.0
C388 C 0.0324 0.58198 0.10547 0.0
C389 C 0.04 0.63215 0.21891 0.0
C390 C 1.00811 0.57527 0.1924 0.0
C391 C 0.99929 0.59719 0.29038 0.0
H392 H 0.961 0.24317 0.29374 0.0
H393 H 0.04105 0.22347 0.40573 0.0
H394 H 1.0198 0.17621 0.51269 0.0
H395 H 0.98005 0.13924 0.56429 0.0
H396 H 0.90242 0.15162 0.43151 0.0
H397 H 0.92045 0.20394 0.34379 0.0
C398 C 0.97353 0.22815 0.34135 0.0
C399 C 1.00233 0.23609 0.34316 0.0
C400 C 0.96138 0.20054 0.39966 0.0
C401 C 1.01886 0.21709 0.40418 0.0
C402 C 1.00667 0.19049 0.46535 0.0
C403 C 0.9666 0.15408 0.51919 0.0
C404 C 0.93957 0.14265 0.50705 0.0
C405 C 0.97806 0.18201 0.46327 0.0
C406 C 0.92289 0.16085 0.44422 0.0
C407 C 0.93342 0.19027 0.393 0.0
H408 H 0.31646 0.99599 0.47566 0.0
H409 H 0.34277 0.08806 0.31708 0.0
H410 H 0.39337 0.07625 0.34056 0.0
H411 H 0.43079 0.03523 0.38333 0.0
H412 H 0.40253 0.94492 0.55542 0.0
H413 H 0.3519 0.95992 0.54606 0.0
C414 C 0.33307 0.01412 0.45113 0.0
C415 C 0.32647 0.04255 0.39428 0.0
C416 C 0.3618 1.00672 0.46305 0.0
C417 C 0.34781 0.06596 0.36092 0.0
C418 C 0.37666 0.05892 0.37294 0.0
C419 C 0.41357 0.01909 0.42083 0.0
C420 C 0.42083 0.98848 0.46741 0.0
C421 C 0.38413 0.02857 0.41979 0.0
C422 C 0.39803 0.96787 0.51461 0.0
C423 C 0.36887 0.97672 0.51143 0.0
H424 H 0.58281 0.32354 0.55786 0.0
H425 H 0.49926 0.35257 0.48262 0.0
H426 H 0.50254 0.41209 0.54582 0.0
H427 H 0.52746 0.4543 0.63424 0.0
H428 H 0.60929 0.42474 0.72523 0.0
H429 H 0.60884 0.36684 0.64238 0.0
C430 C 0.56537 0.34307 0.55642 0.0
C431 C 0.54075 0.33419 0.51686 0.0
C432 C 0.56729 0.37688 0.59463 0.0
C433 C 0.51835 0.3593 0.51281 0.0
C434 C 0.52027 0.39312 0.5488 0.0
C435 C 0.54556 0.43547 0.63423 0.0
C436 C 0.56841 0.44382 0.68585 0.0
C437 C 0.54449 0.40208 0.59096 0.0
C438 C 0.59149 0.41894 0.68579 0.0
C439 C 0.59111 0.3858 0.63931 0.0
H440 H 0.18981 0.4495 0.09554 0.0
H441 H 0.20086 0.47924 0.42614 0.0
H442 H 0.1482 0.49405 0.49204 0.0
H443 H 0.10433 0.51709 0.43952 0.0
H444 H 0.09569 0.50282 0.09914 0.0
H445 H 0.14146 0.4645 0.05062 0.0
C446 C 0.18044 0.45866 0.18233 0.0
C447 C 0.19946 0.46422 0.25452 0.0
C448 C 0.15052 0.47123 0.21613 0.0
C449 C 0.18698 0.47455 0.36841 0.0
C450 C 0.1568 0.48382 0.40571 0.0
C451 C 0.11182 0.50422 0.35611 0.0
C452 C 0.09698 0.51239 0.27233 0.0
C453 C 0.13908 0.48503 0.32792 0.0
C454 C 0.107 0.49659 0.16392 0.0
C455 C 0.13319 0.47497 0.13674 0.0
H456 H 0.96805 0.81755 0.66693 0.0
H457 H 0.99387 0.77293 0.32554 0.0
H458 H 0.99594 0.82899 0.25312 0.0
H459 H 1.00391 0.88856 0.28505 0.0
H460 H 0.99204 0.93257 0.62307 0.0
H461 H 0.97246 0.87962 0.69947 0.0
C462 C 0.97367 0.8203 0.57687 0.0
C463 C 0.98102 0.79088 0.50241 0.0
C464 C 0.9786 0.85275 0.53545 0.0
C465 C 0.98745 0.7948 0.38551 0.0
C466 C 0.98941 0.82702 0.34362 0.0
C467 C 0.99629 0.88667 0.37546 0.0
C468 C 0.99923 0.91389 0.44882 0.0
C469 C 0.98708 0.8558 0.41765 0.0
C470 C 0.98971 0.91167 0.56566 0.0
C471 C 0.97866 0.88142 0.60891 0.0
H472 H 0.72007 0.97714 0.40504 0.0
H473 H 0.74477 0.07957 0.34802 0.0
H474 H 0.69378 0.09791 0.34112 0.0
H475 H 0.64244 0.08419 0.35596 0.0
H476 H 0.61599 0.98506 0.46361 0.0
H477 H 0.6674 0.96624 0.45271 0.0
C478 C 0.71404 1.00353 0.39255 0.0
C479 C 0.7358 0.027 0.3765 0.0
C480 C 0.68441 0.01448 0.40098 0.0
C481 C 0.72826 0.06102 0.35793 0.0
C482 C 0.69912 0.07155 0.35645 0.0
C483 C 0.64746 0.05883 0.38112 0.0
C484 C 0.62517 0.03578 0.4068 0.0
C485 C 0.67691 0.04856 0.37998 0.0
C486 C 0.63267 1.00302 0.43886 0.0
C487 C 0.6621 0.99216 0.43294 0.0
H488 H 0.55051 0.70237 0.22265 0.0
H489 H 0.47598 0.70225 0.50617 0.0
H490 H 0.46434 0.64576 0.43754 0.0
H491 H 0.47652 0.59598 0.29324 0.0
H492 H 0.55328 0.59801 0.01751 0.0
H493 H 0.56284 0.65404 0.08409 0.0
C494 C 0.53166 0.68982 0.26843 0.0
C495 C 0.5139 0.70595 0.36762 0.0
C496 C 0.52552 0.65782 0.22905 0.0
C497 C 0.4897 0.68991 0.4287 0.0
C498 C 0.48315 0.65779 0.38946 0.0
C499 C 0.49515 0.60896 0.24814 0.0
C500 C 0.51398 0.59312 0.14922 0.0
C501 C 0.50098 0.64141 0.28924 0.0
C502 C 0.53824 0.60984 0.09213 0.0
C503 C 0.54387 0.6419 0.13071 0.0
H504 H 0.86377 0.46554 0.5561 0.0
H505 H 0.88546 0.56647 0.46147 0.0
H506 H 0.93609 0.5442 0.36405 0.0
H507 H 0.97221 0.49558 0.29982 0.0
H508 H 0.9507 0.394 0.39513 0.0
H509 H 0.9014 0.41697 0.50158 0.0
C510 C 0.87982 0.48229 0.51331 0.0
C511 C 0.87158 0.51712 0.51271 0.0
C512 C 0.90847 0.46932 0.45993 0.0
C513 C 0.89186 0.53941 0.45979 0.0
C514 C 0.92056 0.52674 0.40562 0.0
C515 C 0.9571 0.4785 0.34638 0.0
C516 C 0.96498 0.44319 0.34048 0.0
C517 C 0.92894 0.4917 0.40479 0.0
C518 C 0.9449 0.42127 0.39849 0.0
C519 C 0.91682 0.43433 0.45876 0.0
H520 H 0.99389 0.23168 0.09273 0.0
H521 H 0.08465 0.22406 0.11715 0.0
H522 H 0.09205 0.16636 0.02327 0.0
H523 H 0.07127 0.11611 0.94941 0.0
H524 H 0.98015 0.12391 0.92524 0.0
H525 H 0.97419 0.18308 1.00417 0.0
C526 C 1.01539 0.2175 0.0754 0.0
C527 C 0.03879 0.23218 0.11097 0.0
C528 C 1.01922 0.1841 0.02309 0.0
C529 C 0.06653 0.21358 0.08865 0.0
C530 C 0.07059 0.18042 0.03627 0.0
C531 C 0.05015 0.1308 0.96043 0.0
C532 C 1.02611 0.11521 0.93193 0.0
C533 C 0.0469 0.16508 1.00543 0.0
C534 C 0.99904 0.13498 0.94618 0.0
C535 C 0.99559 0.16892 0.99165 0.0
H536 H 0.33945 0.06605 0.12635 0.0
H537 H 0.33189 0.96047 0.19713 0.0
H538 H 0.38449 0.9471 0.10203 0.0
H539 H 0.43453 0.96705 0.01517 0.0
H540 H 0.44177 0.07464 0.96831 0.0
H541 H 0.38828 0.08568 0.03839 0.0
C542 C 0.34921 0.03996 0.11826 0.0
C543 C 0.33147 0.01424 0.16729 0.0
C544 C 0.37993 0.03301 0.06973 0.0
C545 C 0.34465 0.98062 0.15786 0.0
C546 C 0.37497 0.97315 0.10511 0.0
C547 C 0.42434 0.99283 0.01904 0.0
C548 C 0.44255 0.01996 0.98558 0.0
C549 C 0.39315 0.99931 0.06318 0.0
C550 C 0.42869 0.05323 0.99334 0.0
C551 C 0.39792 0.0596 0.03325 0.0
H552 H 0.49987 0.32043 0.28173 0.0
H553 H 0.59311 0.31392 0.26711 0.0
H554 H 0.59888 0.36539 0.15998 0.0
H555 H 0.57636 0.41538 0.08622 0.0
H556 H 0.4826 0.42226 0.10236 0.0
H557 H 0.47793 0.36803 0.19302 0.0
C558 C 0.52156 0.32968 0.25098 0.0
C559 C 0.54622 0.31297 0.27958 0.0
C560 C 0.52441 0.35997 0.19237 0.0
C561 C 0.57407 0.32582 0.24306 0.0
C562 C 0.5772 0.35558 0.18361 0.0
C563 C 0.55488 0.40505 0.10931 0.0
C564 C 0.5298 0.42338 0.08832 0.0
C565 C 0.55238 0.37346 0.16052 0.0
C566 C 0.50229 0.40904 0.11757 0.0
C567 C 0.49959 0.37788 0.16943 0.0
H568 H 0.23449 0.47668 0.92228 0.0
H569 H 0.20207 0.54625 0.21386 0.0
H570 H 0.16058 0.56709 0.13725 0.0
H571 H 0.12837 0.55724 1.00477 0.0
H572 H 0.16039 0.48725 0.71318 0.0
H573 H 0.20664 0.47446 0.77163 0.0
C574 C 0.21884 0.49727 0.96654 0.0
C575 C 0.22127 0.51004 0.07347 0.0
C576 C 0.19434 0.5082 0.92337 0.0
C577 C 0.2007 0.53636 0.13121 0.0
C578 C 0.17669 0.54781 0.08808 0.0
C579 C 0.14592 0.54004 0.95233 0.0
C580 C 0.141 0.5232 0.85468 0.0
C581 C 0.17249 0.5328 0.98686 0.0
C582 C 0.16375 0.50068 0.7881 0.0
C583 C 0.19013 0.49321 0.82206 0.0
H584 H 0.04986 0.80012 0.49867 0.0
H585 H 0.99706 0.77129 0.81318 0.0
H586 H 1.0039 0.82596 0.90649 0.0
H587 H 1.01894 0.88556 0.89044 0.0
H588 H 0.07164 0.91387 0.5736 0.0
H589 H 0.07084 0.85643 0.48931 0.0
C590 C 0.04089 0.80545 0.58849 0.0
C591 C 1.02314 0.78182 0.64951 0.0
C592 C 0.04429 0.83734 0.64041 0.0
C593 C 1.01106 0.78907 0.76538 0.0
C594 C 1.01468 0.82051 0.81814 0.0
C595 C 1.03081 0.87888 0.80384 0.0
C596 C 0.0447 0.90435 0.73748 0.0
C597 C 1.03034 0.84544 0.75557 0.0
C598 C 0.06002 0.8951 0.62541 0.0
C599 C 0.05978 0.86213 0.5773 0.0
H600 H 0.73446 0.95724 0.57692 0.0
H601 H 0.74213 0.06454 0.63597 0.0
H602 H 0.6911 0.07143 0.75178 0.0
H603 H 0.64149 0.0484 0.81199 0.0
H604 H 0.63251 0.94261 0.72587 0.0
H605 H 0.68594 0.93355 0.64538 0.0
C606 C 0.72528 0.98176 0.61944 0.0
C607 C 0.7424 1.01023 0.59951 0.0
C608 C 0.69503 0.98593 0.67861 0.0
C609 C 0.72979 0.04212 0.65208 0.0
C610 C 0.70031 0.04614 0.7164 0.0
C611 C 0.65136 0.02325 0.77742 0.0
C612 C 0.63287 0.99612 0.77601 0.0
C613 C 0.68225 0.01852 0.72651 0.0
C614 C 0.64608 0.96389 0.72851 0.0
C615 C 0.67675 0.95868 0.68259 0.0
H616 H 0.51084 0.72449 0.66293 0.0
H617 H 0.59104 0.6985 0.4086 0.0
H618 H 0.60042 0.64604 0.50198 0.0
H619 H 0.58257 0.6046 0.64845 0.0
H620 H 0.50098 0.63199 0.89819 0.0
H621 H 0.49557 0.68657 0.81652 0.0
C622 C 0.53079 0.70776 0.63044 0.0
C623 C 0.55058 0.71557 0.53104 0.0
C624 C 0.53555 0.67752 0.68344 0.0
C625 C 0.57596 0.69331 0.4869 0.0
C626 C 0.58108 0.66317 0.53972 0.0
C627 C 0.56396 0.62282 0.68594 0.0
C628 C 0.54203 0.61385 0.7788 0.0
C629 C 0.56065 0.65453 0.63705 0.0
C630 C 0.51796 0.63783 0.82583 0.0
C631 C 0.51481 0.66921 0.77927 0.0
H632 H 0.86993 0.57953 0.71892 0.0
H633 H 0.85021 0.47663 0.79197 0.0
H634 H 0.89823 0.46604 0.84082 0.0
H635 H 0.94895 0.4847 0.8404 0.0
H636 H 0.96688 0.58871 0.76357 0.0
H637 H 0.91721 0.59996 0.73864 0.0
C638 C 0.8756 0.55535 0.75097 0.0
C639 C 0.85605 0.5293 0.75505 0.0
C640 C 0.90364 0.54926 0.77498 0.0
C641 C 0.86429 0.49752 0.79201 0.0
C642 C 0.89212 0.49129 0.81746 0.0
C643 C 0.94189 0.50993 0.81959 0.0
C644 C 0.96226 0.53564 0.80372 0.0
C645 C 0.91253 0.51668 0.80571 0.0
C646 C 0.95224 0.56817 0.77669 0.0
C647 C 0.92357 0.57482 0.76229 0.0
loop_
_geom_bond_atom_site_label_1
_geom_bond_atom_site_label_2
_geom_bond_distance
_geom_bond_site_symmetry_2
_ccdc_geom_bond_type
C0 N1 1.317 . S
C0 N2 1.348 . S
C0 C3 1.485 . S
N1 C0 1.317 . S
N1 N5 1.370 . S
N2 C0 1.348 . S
N2 C4 1.346 . S
C3 C0 1.485 . S
C3 H7 0.960 . S
C3 H8 0.961 . S
C3 H9 0.960 . S
C4 N2 1.346 . S
C4 N5 1.307 . S
C4 C6 1.486 . S
N5 N1 1.370 . S
N5 C4 1.307 . S
C6 C4 1.486 . S
C6 H10 0.960 . S
C6 H11 0.960 . S
C6 H12 0.959 . S
H7 C3 0.960 . S
H8 C3 0.961 . S
H9 C3 0.960 . S
H10 C6 0.960 . S
H11 C6 0.960 . S
H12 C6 0.959 . S
C13 N14 1.317 . S
C13 N15 1.342 . S
C13 C16 1.485 . S
N14 C13 1.317 . S
N14 N18 1.369 . S
N15 C13 1.342 . S
N15 C17 1.348 1_655 S
C16 C13 1.485 . S
C16 H20 0.960 1_655 S
C16 H21 0.961 . S
C16 H22 0.960 . S
C17 N15 1.348 1_455 S
C17 N18 1.309 1_455 S
C17 C19 1.494 . S
N18 N14 1.369 . S
N18 C17 1.309 1_655 S
C19 C17 1.494 . S
C19 H23 0.917 1_455 S
C19 H24 0.987 . S
C19 H25 0.968 . S
H20 C16 0.960 1_455 S
H21 C16 0.961 . S
H22 C16 0.960 . S
H23 C19 0.917 1_655 S
H24 C19 0.987 . S
H25 C19 0.968 . S
C26 N27 1.317 . S
C26 N28 1.348 . S
C26 C29 1.485 . S
N27 C26 1.317 . S
N27 N31 1.372 . S
N28 C26 1.348 . S
N28 C30 1.346 1_565 S
C29 C26 1.485 . S
C29 H33 0.960 1_565 S
C29 H34 0.961 . S
C29 H35 0.960 . S
C30 N28 1.346 1_545 S
C30 N31 1.305 1_545 S
C30 C32 1.486 . S
N31 N27 1.372 . S
N31 C30 1.305 1_565 S
C32 C30 1.486 . S
C32 H36 0.960 1_545 S
C32 H37 0.960 . S
C32 H38 0.959 . S
H33 C29 0.960 1_545 S
H34 C29 0.961 . S
H35 C29 0.960 . S
H36 C32 0.960 1_565 S
H37 C32 0.960 . S
H38 C32 0.959 . S
C39 N40 1.317 . S
C39 N41 1.348 . S
C39 C42 1.485 . S
N40 C39 1.317 . S
N40 N44 1.370 . S
N41 C39 1.348 . S
N41 C43 1.346 . S
C42 C39 1.485 . S
C42 H46 0.960 . S
C42 H47 0.961 . S
C42 H48 0.960 . S
C43 N41 1.346 . S
C43 N44 1.307 . S
C43 C45 1.486 . S
N44 N40 1.370 . S
N44 C43 1.307 . S
C45 C43 1.486 . S
C45 H49 0.960 . S
C45 H50 0.960 . S
C45 H51 0.959 . S
H46 C42 0.960 . S
H47 C42 0.961 . S
H48 C42 0.960 . S
H49 C45 0.960 . S
H50 C45 0.960 . S
H51 C45 0.959 . S
C52 N53 1.317 . S
C52 N54 1.348 1_556 S
C52 C55 1.485 . S
N53 C52 1.317 . S
N53 N57 1.370 1_556 S
N54 C52 1.348 1_554 S
N54 C56 1.346 . S
C55 C52 1.485 . S
C55 H59 0.960 . S
C55 H60 0.961 . S
C55 H61 0.960 . S
C56 N54 1.346 . S
C56 N57 1.307 . S
C56 C58 1.486 . S
N57 N53 1.370 1_554 S
N57 C56 1.307 . S
C58 C56 1.486 . S
C58 H62 0.960 . S
C58 H63 0.960 . S
C58 H64 0.959 . S
H59 C55 0.960 . S
H60 C55 0.961 . S
H61 C55 0.960 . S
H62 C58 0.960 . S
H63 C58 0.960 . S
H64 C58 0.959 . S
C65 N66 1.317 . S
C65 N67 1.356 . S
C65 C68 1.485 1_554 S
N66 C65 1.317 . S
N66 N70 1.371 . S
N67 C65 1.356 . S
N67 C69 1.343 1_655 S
C68 C65 1.485 1_556 S
C68 H72 0.960 1_655 S
C68 H73 0.961 1_556 S
C68 H74 0.960 . S
C69 N67 1.343 1_455 S
C69 N70 1.304 1_455 S
C69 C71 1.489 . S
N70 N66 1.371 . S
N70 C69 1.304 1_655 S
C71 C69 1.489 . S
C71 H75 0.960 1_455 S
C71 H76 0.960 . S
C71 H77 0.959 . S
H72 C68 0.960 1_455 S
H73 C68 0.961 1_554 S
H74 C68 0.960 . S
H75 C71 0.960 1_655 S
H76 C71 0.960 . S
H77 C71 0.959 . S
C78 N79 1.317 . S
C78 N80 1.346 . S
C78 C81 1.485 . S
N79 C78 1.317 . S
N79 N83 1.370 . S
N80 C78 1.346 . S
N80 C82 1.345 1_565 S
C81 C78 1.485 . S
C81 H85 0.960 1_565 S
C81 H86 0.961 . S
C81 H87 0.960 . S
C82 N80 1.345 1_545 S
C82 N83 1.308 1_545 S
C82 C84 1.485 . S
N83 N79 1.370 . S
N83 C82 1.308 1_565 S
C84 C82 1.485 . S
C84 H88 0.960 1_545 S
C84 H89 0.960 . S
C84 H90 0.959 . S
H85 C81 0.960 1_545 S
H86 C81 0.961 . S
H87 C81 0.960 . S
H88 C84 0.960 1_565 S
H89 C84 0.960 . S
H90 C84 0.959 . S
C91 N92 1.317 . S
C91 N93 1.348 . S
C91 C94 1.485 . S
N92 C91 1.317 . S
N92 N96 1.370 . S
N93 C91 1.348 . S
N93 C95 1.346 . S
C94 C91 1.485 . S
C94 H98 0.960 . S
C94 H99 0.961 . S
C94 H100 0.960 . S
C95 N93 1.346 . S
C95 N96 1.307 . S
C95 C97 1.486 . S
N96 N92 1.370 . S
N96 C95 1.307 . S
C97 C95 1.486 . S
C97 H101 0.960 . S
C97 H102 0.960 . S
C97 H103 0.959 . S
H98 C94 0.960 . S
H99 C94 0.961 . S
H100 C94 0.960 . S
H101 C97 0.960 . S
H102 C97 0.960 . S
H103 C97 0.959 . S
Dy104 O107 2.307 1_545 S
Dy104 O109 2.395 1_655 S
Dy104 O110 2.379 . S
Dy104 O112 2.339 . S
Dy104 O114 2.298 . S
Dy104 O118 2.275 1_655 S
Dy104 C126 2.738 . S
Dy105 O108 2.298 . S
Dy105 O111 2.275 1_455 S
Dy105 O113 2.307 1_565 S
Dy105 O115 2.395 1_456 S
Dy105 O116 2.379 1_556 S
Dy105 O119 2.339 . S
Dy105 C135 2.738 1_556 S
C106 O118 1.254 1_565 S
C106 O119 1.257 . S
O107 Dy104 2.307 1_565 S
O107 C117 1.266 . S
O108 Dy105 2.298 . S
O108 C117 1.236 1_455 S
O109 Dy104 2.395 1_455 S
O109 C126 1.255 1_455 S
O110 Dy104 2.379 . S
O110 C126 1.249 . S
O111 Dy105 2.275 1_655 S
O111 C127 1.254 1_565 S
O112 Dy104 2.339 . S
O112 C127 1.257 . S
O113 Dy105 2.307 1_545 S
O113 C128 1.266 . S
O114 Dy104 2.298 . S
O114 C128 1.236 1_655 S
O115 Dy105 2.395 1_654 S
O115 C135 1.255 1_655 S
O116 Dy105 2.379 1_554 S
O116 C135 1.249 . S
C117 O107 1.266 . S
C117 O108 1.236 1_655 S
O118 Dy104 2.275 1_455 S
O118 C106 1.254 1_545 S
O119 Dy105 2.339 . S
O119 C106 1.257 . S
C120 C123 1.344 1_655 S
C120 C124 1.328 . S
C120 C126 1.516 . S
C121 C122 1.304 1_655 S
C121 C125 1.323 . S
C122 C121 1.304 1_455 S
C122 C123 1.371 . S
C122 H136 0.930 . S
C123 C120 1.344 1_455 S
C123 C122 1.371 . S
C123 H137 0.931 . S
C124 C120 1.328 . S
C124 C125 1.433 . S
C124 H138 0.931 . S
C125 C121 1.323 . S
C125 C124 1.433 . S
C125 H139 0.933 . S
C126 Dy104 2.738 . S
C126 O109 1.255 1_655 S
C126 O110 1.249 . S
C126 C120 1.516 . S
C127 O111 1.254 1_545 S
C127 O112 1.257 . S
C128 O113 1.266 . S
C128 O114 1.236 1_455 S
C129 C132 1.344 1_455 S
C129 C133 1.328 . S
C129 C135 1.516 . S
C130 C131 1.304 1_455 S
C130 C134 1.323 . S
C131 C130 1.304 1_655 S
C131 C132 1.371 . S
C131 H140 0.930 . S
C132 C129 1.344 1_655 S
C132 C131 1.371 . S
C132 H141 0.931 . S
C133 C129 1.328 . S
C133 C134 1.433 . S
C133 H142 0.931 . S
C134 C130 1.323 . S
C134 C133 1.433 . S
C134 H143 0.933 . S
C135 Dy105 2.738 1_554 S
C135 O115 1.255 1_455 S
C135 O116 1.249 . S
C135 C129 1.516 . S
H136 C122 0.930 . S
H137 C123 0.931 . S
H138 C124 0.931 . S
H139 C125 0.933 . S
H140 C131 0.930 . S
H141 C132 0.931 . S
H142 C133 0.931 . S
H143 C134 0.933 . S
Dy144 O147 2.307 . S
Dy144 O149 2.395 1_565 S
Dy144 O150 2.379 . S
Dy144 O152 2.339 . S
Dy144 O154 2.298 . S
Dy144 O158 2.275 1_565 S
Dy144 C166 2.738 . S
Dy145 O148 2.298 1_554 S
Dy145 O151 2.275 1_544 S
Dy145 O153 2.307 . S
Dy145 O155 2.395 1_545 S
Dy145 O156 2.379 . S
Dy145 O159 2.339 1_554 S
Dy145 C175 2.738 . S
C146 O158 1.254 . S
C146 O159 1.257 . S
O147 Dy144 2.307 . S
O147 C157 1.266 . S
O148 Dy145 2.298 1_556 S
O148 C157 1.236 1_545 S
O149 Dy144 2.395 1_545 S
O149 C166 1.255 1_545 S
O150 Dy144 2.379 . S
O150 C166 1.249 . S
O151 Dy145 2.275 1_566 S
O151 C167 1.254 . S
O152 Dy144 2.339 . S
O152 C167 1.257 . S
O153 Dy145 2.307 . S
O153 C168 1.266 1_554 S
O154 Dy144 2.298 . S
O154 C168 1.236 1_565 S
O155 Dy145 2.395 1_565 S
O155 C175 1.255 1_565 S
O156 Dy145 2.379 . S
O156 C175 1.249 . S
C157 O147 1.266 . S
C157 O148 1.236 1_565 S
O158 Dy144 2.275 1_545 S
O158 C146 1.254 . S
O159 Dy145 2.339 1_556 S
O159 C146 1.257 . S
C160 C163 1.334 1_565 S
C160 C164 1.328 . S
C160 C166 1.516 . S
C161 C162 1.304 . S
C161 C165 1.323 . S
C162 C161 1.304 . S
C162 C163 1.370 1_565 S
C162 H176 0.930 1_565 S
C163 C160 1.334 1_545 S
C163 C162 1.370 1_545 S
C163 H177 0.943 . S
C164 C160 1.328 . S
C164 C165 1.433 . S
C164 H178 0.931 . S
C165 C161 1.323 . S
C165 C164 1.433 . S
C165 H179 0.933 . S
C166 Dy144 2.738 . S
C166 O149 1.255 1_565 S
C166 O150 1.249 . S
C166 C160 1.516 . S
C167 O151 1.254 . S
C167 O152 1.257 . S
C168 O153 1.266 1_556 S
C168 O154 1.236 1_545 S
C169 C172 1.340 1_545 S
C169 C173 1.328 . S
C169 C175 1.516 . S
C170 C171 1.304 . S
C170 C174 1.323 . S
C171 C170 1.304 . S
C171 C172 1.370 1_545 S
C171 H180 0.930 1_545 S
C172 C169 1.340 1_565 S
C172 C171 1.370 1_565 S
C172 H181 0.936 . S
C173 C169 1.328 . S
C173 C174 1.433 . S
C173 H182 0.931 . S
C174 C170 1.323 . S
C174 C173 1.433 . S
C174 H183 0.933 . S
C175 Dy145 2.738 . S
C175 O155 1.255 1_545 S
C175 O156 1.249 . S
C175 C169 1.516 . S
H176 C162 0.930 1_545 S
H177 C163 0.943 . S
H178 C164 0.931 . S
H179 C165 0.933 . S
H180 C171 0.930 1_565 S
H181 C172 0.936 . S
H182 C173 0.931 . S
H183 C174 0.933 . S
Dy184 O187 2.307 . S
Dy184 O189 2.395 1_556 S
Dy184 O190 2.379 . S
Dy184 O192 2.339 . S
Dy184 O194 2.298 . S
Dy184 O198 2.275 . S
Dy184 C206 2.738 . S
Dy185 O188 2.298 . S
Dy185 O191 2.275 . S
Dy185 O193 2.307 1_556 S
Dy185 O195 2.395 . S
Dy185 O196 2.379 . S
Dy185 O199 2.339 1_556 S
Dy185 C215 2.738 . S
C186 O198 1.254 1_554 S
C186 O199 1.257 . S
O187 Dy184 2.307 . S
O187 C197 1.266 . S
O188 Dy185 2.298 . S
O188 C197 1.236 . S
O189 Dy184 2.395 1_554 S
O189 C206 1.255 1_554 S
O190 Dy184 2.379 . S
O190 C206 1.249 . S
O191 Dy185 2.275 . S
O191 C207 1.254 . S
O192 Dy184 2.339 . S
O192 C207 1.257 . S
O193 Dy185 2.307 1_554 S
O193 C208 1.266 . S
O194 Dy184 2.298 . S
O194 C208 1.236 1_556 S
O195 Dy185 2.395 . S
O195 C215 1.255 . S
O196 Dy185 2.379 . S
O196 C215 1.249 . S
C197 O187 1.266 . S
C197 O188 1.236 . S
O198 Dy184 2.275 . S
O198 C186 1.254 1_556 S
O199 Dy185 2.339 1_554 S
O199 C186 1.257 . S
C200 C203 1.344 . S
C200 C204 1.328 . S
C200 C206 1.516 1_554 S
C201 C202 1.304 . S
C201 C205 1.323 . S
C202 C201 1.304 . S
C202 C203 1.371 . S
C202 H216 0.930 . S
C203 C200 1.344 . S
C203 C202 1.371 . S
C203 H217 0.931 . S
C204 C200 1.328 . S
C204 C205 1.433 . S
C204 H218 0.931 1_554 S
C205 C201 1.323 . S
C205 C204 1.433 . S
C205 H219 0.933 . S
C206 Dy184 2.738 . S
C206 O189 1.255 1_556 S
C206 O190 1.249 . S
C206 C200 1.516 1_556 S
C207 O191 1.254 . S
C207 O192 1.257 . S
C208 O193 1.266 . S
C208 O194 1.236 1_554 S
C209 C212 1.344 . S
C209 C213 1.328 . S
C209 C215 1.516 . S
C210 C211 1.304 . S
C210 C214 1.323 . S
C211 C210 1.304 . S
C211 C212 1.371 . S
C211 H220 0.930 . S
C212 C209 1.344 . S
C212 C211 1.371 . S
C212 H221 0.931 . S
C213 C209 1.328 . S
C213 C214 1.433 . S
C213 H222 0.931 . S
C214 C210 1.323 . S
C214 C213 1.433 . S
C214 H223 0.933 . S
C215 Dy185 2.738 . S
C215 O195 1.255 . S
C215 O196 1.249 . S
C215 C209 1.516 . S
H216 C202 0.930 . S
H217 C203 0.931 . S
H218 C204 0.931 1_556 S
H219 C205 0.933 . S
H220 C211 0.930 . S
H221 C212 0.931 . S
H222 C213 0.931 . S
H223 C214 0.933 . S
Dy224 O227 2.307 1_455 S
Dy224 O229 2.395 . S
Dy224 O230 2.379 . S
Dy224 O232 2.339 . S
Dy224 O234 2.298 . S
Dy224 O238 2.275 . S
Dy224 C246 2.738 . S
Dy225 O228 2.298 . S
Dy225 O231 2.275 . S
Dy225 O233 2.307 1_655 S
Dy225 O235 2.395 1_556 S
Dy225 O236 2.379 1_556 S
Dy225 O239 2.339 . S
Dy225 C255 2.738 1_556 S
C226 O238 1.254 1_655 S
C226 O239 1.257 . S
O227 Dy224 2.307 1_655 S
O227 C237 1.266 . S
O228 Dy225 2.298 . S
O228 C237 1.236 . S
O229 Dy224 2.395 . S
O229 C246 1.255 . S
O230 Dy224 2.379 . S
O230 C246 1.249 . S
O231 Dy225 2.275 . S
O231 C247 1.254 1_655 S
O232 Dy224 2.339 . S
O232 C247 1.257 . S
O233 Dy225 2.307 1_455 S
O233 C248 1.266 . S
O234 Dy224 2.298 . S
O234 C248 1.236 . S
O235 Dy225 2.395 1_554 S
O235 C255 1.255 . S
O236 Dy225 2.379 1_554 S
O236 C255 1.249 . S
C237 O227 1.266 . S
C237 O228 1.236 . S
O238 Dy224 2.275 . S
O238 C226 1.254 1_455 S
O239 Dy225 2.339 . S
O239 C226 1.257 . S
C240 C243 1.344 . S
C240 C244 1.328 . S
C240 C246 1.516 . S
C241 C242 1.304 . S
C241 C245 1.323 . S
C242 C241 1.304 . S
C242 C243 1.371 . S
C242 H256 0.930 . S
C243 C240 1.344 . S
C243 C242 1.371 . S
C243 H257 0.931 . S
C244 C240 1.328 . S
C244 C245 1.433 . S
C244 H258 0.931 . S
C245 C241 1.323 . S
C245 C244 1.433 . S
C245 H259 0.933 . S
C246 Dy224 2.738 . S
C246 O229 1.255 . S
C246 O230 1.249 . S
C246 C240 1.516 . S
C247 O231 1.254 1_455 S
C247 O232 1.257 . S
C248 O233 1.266 . S
C248 O234 1.236 . S
C249 C252 1.344 . S
C249 C253 1.328 . S
C249 C255 1.516 . S
C250 C251 1.304 . S
C250 C254 1.323 . S
C251 C250 1.304 . S
C251 C252 1.371 . S
C251 H260 0.930 . S
C252 C249 1.344 . S
C252 C251 1.371 . S
C252 H261 0.931 . S
C253 C249 1.328 . S
C253 C254 1.433 . S
C253 H262 0.931 . S
C254 C250 1.323 . S
C254 C253 1.433 . S
C254 H263 0.933 . S
C255 Dy225 2.738 1_554 S
C255 O235 1.255 . S
C255 O236 1.249 . S
C255 C249 1.516 . S
H256 C242 0.930 . S
H257 C243 0.931 . S
H258 C244 0.931 . S
H259 C245 0.933 . S
H260 C251 0.930 . S
H261 C252 0.931 . S
H262 C253 0.931 . S
H263 C254 0.933 . S
H264 C270 0.930 . S
H265 C273 0.930 . S
H266 C274 0.930 . S
H267 C275 0.930 . S
H268 C278 0.930 . S
H269 C279 0.930 . S
C270 H264 0.930 . S
C270 C271 1.357 . S
C270 C272 1.412 . S
C271 C270 1.357 . S
C271 C273 1.419 . S
C272 C270 1.412 . S
C272 C277 1.425 . S
C272 C279 1.409 1_545 S
C273 H265 0.930 . S
C273 C271 1.419 . S
C273 C274 1.362 . S
C274 H266 0.930 . S
C274 C273 1.362 . S
C274 C277 1.409 . S
C275 H267 0.930 . S
C275 C276 1.354 . S
C275 C277 1.415 . S
C276 C275 1.354 . S
C276 C278 1.419 1_545 S
C277 C272 1.425 . S
C277 C274 1.409 . S
C277 C275 1.415 . S
C278 H268 0.930 . S
C278 C276 1.419 1_565 S
C278 C279 1.362 . S
C279 H269 0.930 . S
C279 C272 1.409 1_565 S
C279 C278 1.362 . S
H280 C286 0.930 . S
H281 C289 0.930 . S
H282 C290 0.930 . S
H283 C291 0.930 . S
H284 C294 0.930 . S
H285 C295 0.930 . S
C286 H280 0.930 . S
C286 C287 1.355 . S
C286 C288 1.415 . S
C287 C286 1.355 . S
C287 C289 1.419 . S
C288 C286 1.415 . S
C288 C293 1.425 . S
C288 C295 1.409 . S
C289 H281 0.930 . S
C289 C287 1.419 . S
C289 C290 1.362 . S
C290 H282 0.930 . S
C290 C289 1.362 . S
C290 C293 1.409 . S
C291 H283 0.930 . S
C291 C292 1.355 . S
C291 C293 1.415 . S
C292 C291 1.355 . S
C292 C294 1.419 . S
C293 C288 1.425 . S
C293 C290 1.409 . S
C293 C291 1.415 . S
C294 H284 0.930 . S
C294 C292 1.419 . S
C294 C295 1.362 . S
C295 H285 0.930 . S
C295 C288 1.409 . S
C295 C294 1.362 . S
H296 C302 0.930 . S
H297 C305 0.930 . S
H298 C306 0.930 . S
H299 C307 0.930 . S
H300 C310 0.930 . S
H301 C311 0.930 . S
C302 H296 0.930 . S
C302 C303 1.355 . S
C302 C304 1.415 . S
C303 C302 1.355 . S
C303 C305 1.419 . S
C304 C302 1.415 . S
C304 C309 1.425 . S
C304 C311 1.409 . S
C305 H297 0.930 . S
C305 C303 1.419 . S
C305 C306 1.362 . S
C306 H298 0.930 . S
C306 C305 1.362 . S
C306 C309 1.409 . S
C307 H299 0.930 . S
C307 C308 1.355 . S
C307 C309 1.415 . S
C308 C307 1.355 . S
C308 C310 1.419 . S
C309 C304 1.425 . S
C309 C306 1.409 . S
C309 C307 1.415 . S
C310 H300 0.930 . S
C310 C308 1.419 . S
C310 C311 1.362 . S
C311 H301 0.930 . S
C311 C304 1.409 . S
C311 C310 1.362 . S
H312 C318 0.930 . S
H313 C321 0.930 . S
H314 C322 0.930 . S
H315 C323 0.930 . S
H316 C326 0.930 . S
H317 C327 0.930 . S
C318 H312 0.930 . S
C318 C319 1.355 1_655 S
C318 C320 1.415 . S
C319 C318 1.355 1_455 S
C319 C321 1.419 . S
C320 C318 1.415 . S
C320 C325 1.425 1_655 S
C320 C327 1.409 . S
C321 H313 0.930 . S
C321 C319 1.419 . S
C321 C322 1.362 . S
C322 H314 0.930 . S
C322 C321 1.362 . S
C322 C325 1.409 . S
C323 H315 0.930 . S
C323 C324 1.360 . S
C323 C325 1.415 . S
C324 C323 1.360 . S
C324 C326 1.406 1_455 S
C325 C320 1.425 1_455 S
C325 C322 1.409 . S
C325 C323 1.415 . S
C326 H316 0.930 . S
C326 C324 1.406 1_655 S
C326 C327 1.362 . S
C327 H317 0.930 . S
C327 C320 1.409 . S
C327 C326 1.362 . S
H328 C334 0.930 . S
H329 C337 0.930 . S
H330 C338 0.930 . S
H331 C339 0.930 . S
H332 C342 0.930 1_556 S
H333 C343 0.930 . S
C334 H328 0.930 . S
C334 C335 1.351 1_565 S
C334 C336 1.415 . S
C335 C334 1.351 1_545 S
C335 C337 1.425 . S
C336 C334 1.415 . S
C336 C341 1.425 1_565 S
C336 C343 1.409 . S
C337 H329 0.930 . S
C337 C335 1.425 . S
C337 C338 1.362 . S
C338 H330 0.930 . S
C338 C337 1.362 . S
C338 C341 1.409 . S
C339 H331 0.930 . S
C339 C340 1.355 1_545 S
C339 C341 1.415 . S
C340 C339 1.355 1_565 S
C340 C342 1.419 . S
C341 C336 1.425 1_545 S
C341 C338 1.409 . S
C341 C339 1.415 . S
C342 H332 0.930 1_554 S
C342 C340 1.419 . S
C342 C343 1.362 . S
C343 H333 0.930 . S
C343 C336 1.409 . S
C343 C342 1.362 . S
H344 C350 0.930 . S
H345 C353 0.930 . S
H346 C354 0.930 . S
H347 C355 0.930 . S
H348 C358 0.930 . S
H349 C359 0.930 . S
C350 H344 0.930 . S
C350 C351 1.355 . S
C350 C352 1.415 . S
C351 C350 1.355 . S
C351 C353 1.419 . S
C352 C350 1.415 . S
C352 C357 1.425 . S
C352 C359 1.409 1_554 S
C353 H345 0.930 . S
C353 C351 1.419 . S
C353 C354 1.362 . S
C354 H346 0.930 . S
C354 C353 1.362 . S
C354 C357 1.409 . S
C355 H347 0.930 . S
C355 C356 1.355 1_554 S
C355 C357 1.415 . S
C356 C355 1.355 1_556 S
C356 C358 1.419 . S
C357 C352 1.425 . S
C357 C354 1.409 . S
C357 C355 1.415 . S
C358 H348 0.930 . S
C358 C356 1.419 . S
C358 C359 1.362 . S
C359 H349 0.930 . S
C359 C352 1.409 1_556 S
C359 C358 1.362 . S
H360 C366 0.930 . S
H361 C369 0.930 . S
H362 C370 0.930 . S
H363 C371 0.930 . S
H364 C374 0.930 . S
H365 C375 0.930 . S
C366 H360 0.930 . S
C366 C367 1.355 . S
C366 C368 1.415 . S
C367 C366 1.355 . S
C367 C369 1.419 . S
C368 C366 1.415 . S
C368 C373 1.425 . S
C368 C375 1.409 . S
C369 H361 0.930 . S
C369 C367 1.419 . S
C369 C370 1.362 . S
C370 H362 0.930 . S
C370 C369 1.362 . S
C370 C373 1.409 . S
C371 H363 0.930 . S
C371 C372 1.355 . S
C371 C373 1.415 . S
C372 C371 1.355 . S
C372 C374 1.419 . S
C373 C368 1.425 . S
C373 C370 1.409 . S
C373 C371 1.415 . S
C374 H364 0.930 . S
C374 C372 1.419 . S
C374 C375 1.362 . S
C375 H365 0.930 . S
C375 C368 1.409 . S
C375 C374 1.362 . S
H376 C382 0.930 . S
H377 C385 0.930 . S
H378 C386 0.930 . S
H379 C387 0.930 . S
H380 C390 0.930 . S
H381 C391 0.930 . S
C382 H376 0.930 . S
C382 C383 1.355 1_655 S
C382 C384 1.415 . S
C383 C382 1.355 1_455 S
C383 C385 1.419 . S
C384 C382 1.415 . S
C384 C389 1.425 1_655 S
C384 C391 1.409 . S
C385 H377 0.930 . S
C385 C383 1.419 . S
C385 C386 1.362 . S
C386 H378 0.930 . S
C386 C385 1.362 . S
C386 C389 1.409 . S
C387 H379 0.930 . S
C387 C388 1.355 1_455 S
C387 C389 1.415 . S
C388 C387 1.355 1_655 S
C388 C390 1.419 . S
C389 C384 1.425 1_455 S
C389 C386 1.409 . S
C389 C387 1.415 . S
C390 H380 0.930 . S
C390 C388 1.419 . S
C390 C391 1.362 . S
C391 H381 0.930 . S
C391 C384 1.409 . S
C391 C390 1.362 . S
H392 C398 0.930 . S
H393 C401 0.930 . S
H394 C402 0.930 . S
H395 C403 0.930 1_455 S
H396 C406 0.930 . S
H397 C407 0.930 . S
C398 H392 0.930 . S
C398 C399 1.355 1_655 S
C398 C400 1.415 . S
C399 C398 1.355 1_455 S
C399 C401 1.419 . S
C400 C398 1.415 . S
C400 C405 1.425 . S
C400 C407 1.409 . S
C401 H393 0.930 . S
C401 C399 1.419 . S
C401 C402 1.362 . S
C402 H394 0.930 . S
C402 C401 1.362 . S
C402 C405 1.409 1_455 S
C403 H395 0.930 1_655 S
C403 C404 1.355 . S
C403 C405 1.415 . S
C404 C403 1.355 . S
C404 C406 1.419 . S
C405 C400 1.425 . S
C405 C402 1.409 1_655 S
C405 C403 1.415 . S
C406 H396 0.930 . S
C406 C404 1.419 . S
C406 C407 1.362 . S
C407 H397 0.930 . S
C407 C400 1.409 . S
C407 C406 1.362 . S
H408 C414 0.930 . S
H409 C417 0.930 . S
H410 C418 0.930 . S
H411 C419 0.930 . S
H412 C422 0.930 . S
H413 C423 0.930 . S
C414 H408 0.930 . S
C414 C415 1.355 1_565 S
C414 C416 1.415 . S
C415 C414 1.355 1_545 S
C415 C417 1.419 . S
C416 C414 1.415 . S
C416 C421 1.425 . S
C416 C423 1.409 . S
C417 H409 0.930 . S
C417 C415 1.419 . S
C417 C418 1.362 1_545 S
C418 H410 0.930 . S
C418 C417 1.362 1_565 S
C418 C421 1.409 . S
C419 H411 0.930 . S
C419 C420 1.355 . S
C419 C421 1.415 . S
C420 C419 1.355 . S
C420 C422 1.419 . S
C421 C416 1.425 . S
C421 C418 1.409 . S
C421 C419 1.415 . S
C422 H412 0.930 . S
C422 C420 1.419 . S
C422 C423 1.362 . S
C423 H413 0.930 . S
C423 C416 1.409 . S
C423 C422 1.362 . S
H424 C430 0.930 . S
H425 C433 0.930 . S
H426 C434 0.930 . S
H427 C435 0.930 . S
H428 C438 0.930 . S
H429 C439 0.930 . S
C430 H424 0.930 . S
C430 C431 1.355 . S
C430 C432 1.415 . S
C431 C430 1.355 . S
C431 C433 1.419 . S
C432 C430 1.415 . S
C432 C437 1.425 . S
C432 C439 1.409 . S
C433 H425 0.930 . S
C433 C431 1.419 . S
C433 C434 1.362 . S
C434 H426 0.930 . S
C434 C433 1.362 . S
C434 C437 1.409 . S
C435 H427 0.930 . S
C435 C436 1.355 . S
C435 C437 1.415 . S
C436 C435 1.355 . S
C436 C438 1.419 . S
C437 C432 1.425 . S
C437 C434 1.409 . S
C437 C435 1.415 . S
C438 H428 0.930 . S
C438 C436 1.419 . S
C438 C439 1.362 . S
C439 H429 0.930 . S
C439 C432 1.409 . S
C439 C438 1.362 . S
H440 C446 0.930 . S
H441 C449 0.930 . S
H442 C450 0.930 . S
H443 C451 0.930 . S
H444 C454 0.930 . S
H445 C455 0.930 . S
C446 H440 0.930 . S
C446 C447 1.355 . S
C446 C448 1.415 . S
C447 C446 1.355 . S
C447 C449 1.419 . S
C448 C446 1.415 . S
C448 C453 1.425 . S
C448 C455 1.409 . S
C449 H441 0.930 . S
C449 C447 1.419 . S
C449 C450 1.362 . S
C450 H442 0.930 . S
C450 C449 1.362 . S
C450 C453 1.409 . S
C451 H443 0.930 . S
C451 C452 1.355 . S
C451 C453 1.415 . S
C452 C451 1.355 . S
C452 C454 1.419 . S
C453 C448 1.425 . S
C453 C450 1.409 . S
C453 C451 1.415 . S
C454 H444 0.930 . S
C454 C452 1.419 . S
C454 C455 1.362 . S
C455 H445 0.930 . S
C455 C448 1.409 . S
C455 C454 1.362 . S
H456 C462 0.930 . S
H457 C465 0.930 . S
H458 C466 0.930 . S
H459 C467 0.930 . S
H460 C470 0.930 . S
H461 C471 0.930 . S
C462 H456 0.930 . S
C462 C463 1.357 . S
C462 C464 1.426 . S
C463 C462 1.357 . S
C463 C465 1.415 1_655 S
C464 C462 1.426 . S
C464 C469 1.403 1_655 S
C464 C471 1.419 . S
C465 H457 0.930 . S
C465 C463 1.415 1_455 S
C465 C466 1.362 . S
C466 H458 0.930 . S
C466 C465 1.362 . S
C466 C469 1.409 . S
C467 H459 0.930 . S
C467 C468 1.355 . S
C467 C469 1.415 . S
C468 C467 1.355 . S
C468 C470 1.419 1_455 S
C469 C464 1.403 1_455 S
C469 C466 1.409 . S
C469 C467 1.415 . S
C470 H460 0.930 . S
C470 C468 1.419 1_655 S
C470 C471 1.362 . S
C471 H461 0.930 . S
C471 C464 1.419 . S
C471 C470 1.362 . S
H472 C478 0.930 . S
H473 C481 0.930 . S
H474 C482 0.930 . S
H475 C483 0.930 . S
H476 C486 0.930 . S
H477 C487 0.930 . S
C478 H472 0.930 . S
C478 C479 1.355 1_565 S
C478 C480 1.420 . S
C479 C478 1.355 1_545 S
C479 C481 1.419 . S
C480 C478 1.420 . S
C480 C485 1.410 1_565 S
C480 C487 1.418 . S
C481 H473 0.930 . S
C481 C479 1.419 . S
C481 C482 1.362 . S
C482 H474 0.930 . S
C482 C481 1.362 . S
C482 C485 1.409 . S
C483 H475 0.930 . S
C483 C484 1.355 . S
C483 C485 1.415 . S
C484 C483 1.355 . S
C484 C486 1.419 1_545 S
C485 C480 1.410 1_545 S
C485 C482 1.409 . S
C485 C483 1.415 . S
C486 H476 0.930 . S
C486 C484 1.419 1_565 S
C486 C487 1.362 . S
C487 H477 0.930 . S
C487 C480 1.418 . S
C487 C486 1.362 . S
H488 C494 0.930 . S
H489 C497 0.930 . S
H490 C498 0.930 . S
H491 C499 0.930 . S
H492 C502 0.930 1_556 S
H493 C503 0.930 1_556 S
C494 H488 0.930 . S
C494 C495 1.355 . S
C494 C496 1.415 . S
C495 C494 1.355 . S
C495 C497 1.419 . S
C496 C494 1.415 . S
C496 C501 1.425 . S
C496 C503 1.409 . S
C497 H489 0.930 . S
C497 C495 1.419 . S
C497 C498 1.362 . S
C498 H490 0.930 . S
C498 C497 1.362 . S
C498 C501 1.409 . S
C499 H491 0.930 . S
C499 C500 1.355 . S
C499 C501 1.415 . S
C500 C499 1.355 . S
C500 C502 1.419 . S
C501 C496 1.425 . S
C501 C498 1.409 . S
C501 C499 1.415 . S
C502 H492 0.930 1_554 S
C502 C500 1.419 . S
C502 C503 1.362 . S
C503 H493 0.930 1_554 S
C503 C496 1.409 . S
C503 C502 1.362 . S
H504 C510 0.930 . S
H505 C513 0.930 . S
H506 C514 0.930 . S
H507 C515 0.930 . S
H508 C518 0.930 . S
H509 C519 0.930 . S
C510 H504 0.930 . S
C510 C511 1.355 . S
C510 C512 1.415 . S
C511 C510 1.355 . S
C511 C513 1.419 . S
C512 C510 1.415 . S
C512 C517 1.425 . S
C512 C519 1.409 . S
C513 H505 0.930 . S
C513 C511 1.419 . S
C513 C514 1.362 . S
C514 H506 0.930 . S
C514 C513 1.362 . S
C514 C517 1.409 . S
C515 H507 0.930 . S
C515 C516 1.355 . S
C515 C517 1.415 . S
C516 C515 1.355 . S
C516 C518 1.419 . S
C517 C512 1.425 . S
C517 C514 1.409 . S
C517 C515 1.415 . S
C518 H508 0.930 . S
C518 C516 1.419 . S
C518 C519 1.362 . S
C519 H509 0.930 . S
C519 C512 1.409 . S
C519 C518 1.362 . S
H520 C526 0.930 . S
H521 C529 0.930 . S
H522 C530 0.939 . S
H523 C531 0.924 1_655 S
H524 C534 0.930 . S
H525 C535 0.930 . S
C526 H520 0.930 . S
C526 C527 1.355 . S
C526 C528 1.415 . S
C527 C526 1.355 . S
C527 C529 1.419 1_454 S
C528 C526 1.415 . S
C528 C533 1.425 1_554 S
C528 C535 1.409 . S
C529 H521 0.930 . S
C529 C527 1.419 1_656 S
C529 C530 1.359 . S
C530 H522 0.939 . S
C530 C529 1.359 . S
C530 C533 1.405 1_655 S
C531 H523 0.924 1_455 S
C531 C532 1.355 . S
C531 C533 1.415 . S
C532 C531 1.355 . S
C532 C534 1.419 1_556 S
C533 C528 1.425 1_556 S
C533 C530 1.405 1_455 S
C533 C531 1.415 . S
C534 H524 0.930 . S
C534 C532 1.419 1_554 S
C534 C535 1.362 . S
C535 H525 0.930 . S
C535 C528 1.409 . S
C535 C534 1.362 . S
H536 C542 0.930 . S
H537 C545 0.930 . S
H538 C546 0.930 . S
H539 C547 0.930 . S
H540 C550 0.930 . S
H541 C551 0.930 . S
C542 H536 0.930 . S
C542 C543 1.336 1_545 S
C542 C544 1.415 . S
C543 C542 1.336 1_565 S
C543 C545 1.439 . S
C544 C542 1.415 . S
C544 C549 1.425 1_545 S
C544 C551 1.409 . S
C545 H537 0.930 . S
C545 C543 1.439 . S
C545 C546 1.362 . S
C546 H538 0.930 . S
C546 C545 1.362 . S
C546 C549 1.409 . S
C547 H539 0.930 . S
C547 C548 1.355 1_565 S
C547 C549 1.415 . S
C548 C547 1.355 1_545 S
C548 C550 1.419 . S
C549 C544 1.425 1_565 S
C549 C546 1.409 . S
C549 C547 1.415 . S
C550 H540 0.930 . S
C550 C548 1.419 . S
C550 C551 1.362 . S
C551 H541 0.930 . S
C551 C544 1.409 . S
C551 C550 1.362 . S
H552 C558 0.930 . S
H553 C561 0.930 . S
H554 C562 0.930 . S
H555 C563 0.930 . S
H556 C566 0.930 . S
H557 C567 0.930 . S
C558 H552 0.930 . S
C558 C559 1.355 . S
C558 C560 1.415 . S
C559 C558 1.355 . S
C559 C561 1.419 . S
C560 C558 1.415 . S
C560 C565 1.425 . S
C560 C567 1.409 . S
C561 H553 0.930 . S
C561 C559 1.419 . S
C561 C562 1.362 . S
C562 H554 0.930 . S
C562 C561 1.362 . S
C562 C565 1.409 . S
C563 H555 0.930 . S
C563 C564 1.355 . S
C563 C565 1.415 . S
C564 C563 1.355 . S
C564 C566 1.419 . S
C565 C560 1.425 . S
C565 C562 1.409 . S
C565 C563 1.415 . S
C566 H556 0.930 . S
C566 C564 1.419 . S
C566 C567 1.362 . S
C567 H557 0.930 . S
C567 C560 1.409 . S
C567 C566 1.362 . S
H568 C574 0.930 . S
H569 C577 0.930 . S
H570 C578 0.930 . S
H571 C579 0.930 . S
H572 C582 0.930 . S
H573 C583 0.930 1_554 S
C574 H568 0.930 . S
C574 C575 1.355 . S
C574 C576 1.415 . S
C575 C574 1.355 . S
C575 C577 1.419 . S
C576 C574 1.415 . S
C576 C581 1.425 . S
C576 C583 1.409 . S
C577 H569 0.930 . S
C577 C575 1.419 . S
C577 C578 1.362 . S
C578 H570 0.930 . S
C578 C577 1.362 . S
C578 C581 1.409 . S
C579 H571 0.930 . S
C579 C580 1.355 . S
C579 C581 1.415 . S
C580 C579 1.355 . S
C580 C582 1.419 . S
C581 C576 1.425 . S
C581 C578 1.409 . S
C581 C579 1.415 . S
C582 H572 0.930 . S
C582 C580 1.419 . S
C582 C583 1.362 . S
C583 H573 0.930 1_556 S
C583 C576 1.409 . S
C583 C582 1.362 . S
H584 C590 0.930 . S
H585 C593 0.930 . S
H586 C594 0.930 . S
H587 C595 0.930 . S
H588 C598 0.930 . S
H589 C599 0.930 . S
C590 H584 0.930 . S
C590 C591 1.355 1_455 S
C590 C592 1.415 . S
C591 C590 1.355 1_655 S
C591 C593 1.419 . S
C592 C590 1.415 . S
C592 C597 1.425 1_455 S
C592 C599 1.409 . S
C593 H585 0.930 . S
C593 C591 1.419 . S
C593 C594 1.362 . S
C594 H586 0.930 . S
C594 C593 1.362 . S
C594 C597 1.409 . S
C595 H587 0.930 . S
C595 C596 1.355 . S
C595 C597 1.415 . S
C596 C595 1.355 . S
C596 C598 1.419 1_655 S
C597 C592 1.425 1_655 S
C597 C594 1.409 . S
C597 C595 1.415 . S
C598 H588 0.930 . S
C598 C596 1.419 1_455 S
C598 C599 1.362 . S
C599 H589 0.930 . S
C599 C592 1.409 . S
C599 C598 1.362 . S
H600 C606 0.930 . S
H601 C609 0.930 . S
H602 C610 0.930 . S
H603 C611 0.930 . S
H604 C614 0.930 . S
H605 C615 0.930 . S
C606 H600 0.930 . S
C606 C607 1.355 1_565 S
C606 C608 1.415 . S
C607 C606 1.355 1_545 S
C607 C609 1.419 . S
C608 C606 1.415 . S
C608 C613 1.425 1_565 S
C608 C615 1.409 . S
C609 H601 0.930 . S
C609 C607 1.419 . S
C609 C610 1.362 . S
C610 H602 0.930 . S
C610 C609 1.362 . S
C610 C613 1.409 . S
C611 H603 0.930 . S
C611 C612 1.355 1_545 S
C611 C613 1.415 . S
C612 C611 1.355 1_565 S
C612 C614 1.419 . S
C613 C608 1.425 1_545 S
C613 C610 1.409 . S
C613 C611 1.415 . S
C614 H604 0.930 . S
C614 C612 1.419 . S
C614 C615 1.362 . S
C615 H605 0.930 . S
C615 C608 1.409 . S
C615 C614 1.362 . S
H616 C622 0.930 . S
H617 C625 0.930 . S
H618 C626 0.930 . S
H619 C627 0.930 . S
H620 C630 0.930 . S
H621 C631 0.930 . S
C622 H616 0.930 . S
C622 C623 1.355 . S
C622 C624 1.415 . S
C623 C622 1.355 . S
C623 C625 1.419 . S
C624 C622 1.415 . S
C624 C629 1.425 . S
C624 C631 1.409 . S
C625 H617 0.930 . S
C625 C623 1.419 . S
C625 C626 1.362 . S
C626 H618 0.930 . S
C626 C625 1.362 . S
C626 C629 1.409 . S
C627 H619 0.930 . S
C627 C628 1.355 . S
C627 C629 1.415 . S
C628 C627 1.355 . S
C628 C630 1.419 . S
C629 C624 1.425 . S
C629 C626 1.409 . S
C629 C627 1.415 . S
C630 H620 0.930 . S
C630 C628 1.419 . S
C630 C631 1.362 . S
C631 H621 0.930 . S
C631 C624 1.409 . S
C631 C630 1.362 . S
H632 C638 0.930 . S
H633 C641 0.930 . S
H634 C642 0.930 . S
H635 C643 0.930 . S
H636 C646 0.930 . S
H637 C647 0.930 . S
C638 H632 0.930 . S
C638 C639 1.355 . S
C638 C640 1.415 . S
C639 C638 1.355 . S
C639 C641 1.419 . S
C640 C638 1.415 . S
C640 C645 1.425 . S
C640 C647 1.409 . S
C641 H633 0.930 . S
C641 C639 1.419 . S
C641 C642 1.362 . S
C642 H634 0.930 . S
C642 C641 1.362 . S
C642 C645 1.409 . S
C643 H635 0.930 . S
C643 C644 1.355 . S
C643 C645 1.415 . S
C644 C643 1.355 . S
C644 C646 1.419 . S
C645 C640 1.425 . S
C645 C642 1.409 . S
C645 C643 1.415 . S
C646 H636 0.930 . S
C646 C644 1.419 . S
C646 C647 1.362 . S
C647 H637 0.930 . S
C647 C640 1.409 . S
C647 C646 1.362 . S
C271 N80 2.122 1_545 S
C276 C106 2.169 1_545 S
C292 C146 2.080 . S
C287 N93 2.033 . S
C308 C210 1.897 . S
C303 N54 1.841 . S
C324 C226 1.689 1_455 S
C319 N67 1.538 1_455 S
C340 C127 2.170 1_564 S
C335 N28 2.163 1_545 S
C351 N41 2.073 . S
C356 C167 2.069 . S
C367 N2 1.768 . S
C372 C201 1.831 . S
C383 N15 1.559 1_455 S
C388 C247 1.718 1_654 S
C404 C121 0.573 . S
C399 N70 0.529 1_455 S
C420 C161 0.778 . S
C415 N83 0.790 1_545 S
C436 C197 0.832 . S
C431 N96 0.901 . S
C447 N57 0.573 . S
C452 C241 0.561 . S
C463 N18 0.418 . S
C468 C130 0.494 . S
C484 C170 0.733 . S
C479 N31 0.755 1_545 S
C500 C208 0.836 . S
C495 N44 0.862 . S
C511 N5 0.639 . S
C516 C250 0.712 . S
C527 N66 1.951 1_455 S
C532 C128 2.016 . S
C543 N79 2.099 . S
C548 C168 2.164 1_554 S
C564 C186 1.702 . S
C559 N92 1.742 . S
C580 C248 2.447 . S
C575 N53 2.341 . S
C591 N14 1.884 . S
C596 C117 2.002 . S
C612 C157 2.162 . S
C607 N27 2.086 1_545 S
C628 C207 1.703 . S
C623 N40 1.749 . S
C639 N1 2.312 . S
C644 C237 2.452 . S
