# Generated by pormake.
# Topology pyr, (3,6)-cn, num edge types: 1
# Building blocks:
#     Node 0, Type 0, BuildingBlock: QEWDON_clean_linker_0, # of connection points: 3
#     Node 1, Type 0, BuildingBlock: QEWDON_clean_linker_0, # of connection points: 3
#     Node 2, Type 0, BuildingBlock: QEWDON_clean_linker_0, # of connection points: 3
#     Node 3, Type 0, BuildingBlock: QEWDON_clean_linker_0, # of connection points: 3
#     Node 4, Type 0, BuildingBlock: QEWDON_clean_linker_0, # of connection points: 3
#     Node 5, Type 0, BuildingBlock: QEWDON_clean_linker_0, # of connection points: 3
#     Node 6, Type 0, BuildingBlock: QEWDON_clean_linker_0, # of connection points: 3
#     Node 7, Type 0, BuildingBlock: QEWDON_clean_linker_0, # of connection points: 3
#     Node 8, Type 1, BuildingBlock: PAMTOO_clean_sbu_0, # of connection points: 6
#     Node 9, Type 1, BuildingBlock: PAMTOO_clean_sbu_0, # of connection points: 6
#     Node 10, Type 1, BuildingBlock: PAMTOO_clean_sbu_0, # of connection points: 6
#     Node 11, Type 1, BuildingBlock: PAMTOO_clean_sbu_0, # of connection points: 6
#     Edge 12, Type (0, 1), BuildingBlock: XUDNAN_clean_linker_2, # of connection points: 2
#     Edge 13, Type (0, 1), BuildingBlock: XUDNAN_clean_linker_2, # of connection points: 2
#     Edge 14, Type (0, 1), BuildingBlock: XUDNAN_clean_linker_2, # of connection points: 2
#     Edge 15, Type (0, 1), BuildingBlock: XUDNAN_clean_linker_2, # of connection points: 2
#     Edge 16, Type (0, 1), BuildingBlock: XUDNAN_clean_linker_2, # of connection points: 2
#     Edge 17, Type (0, 1), BuildingBlock: XUDNAN_clean_linker_2, # of connection points: 2
#     Edge 18, Type (0, 1), BuildingBlock: XUDNAN_clean_linker_2, # of connection points: 2
#     Edge 19, Type (0, 1), BuildingBlock: XUDNAN_clean_linker_2, # of connection points: 2
#     Edge 20, Type (0, 1), BuildingBlock: XUDNAN_clean_linker_2, # of connection points: 2
#     Edge 21, Type (0, 1), BuildingBlock: XUDNAN_clean_linker_2, # of connection points: 2
#     Edge 22, Type (0, 1), BuildingBlock: XUDNAN_clean_linker_2, # of connection points: 2
#     Edge 23, Type (0, 1), BuildingBlock: XUDNAN_clean_linker_2, # of connection points: 2
#     Edge 24, Type (0, 1), BuildingBlock: XUDNAN_clean_linker_2, # of connection points: 2
#     Edge 25, Type (0, 1), BuildingBlock: XUDNAN_clean_linker_2, # of connection points: 2
#     Edge 26, Type (0, 1), BuildingBlock: XUDNAN_clean_linker_2, # of connection points: 2
#     Edge 27, Type (0, 1), BuildingBlock: XUDNAN_clean_linker_2, # of connection points: 2
#     Edge 28, Type (0, 1), BuildingBlock: XUDNAN_clean_linker_2, # of connection points: 2
#     Edge 29, Type (0, 1), BuildingBlock: XUDNAN_clean_linker_2, # of connection points: 2
#     Edge 30, Type (0, 1), BuildingBlock: XUDNAN_clean_linker_2, # of connection points: 2
#     Edge 31, Type (0, 1), BuildingBlock: XUDNAN_clean_linker_2, # of connection points: 2
#     Edge 32, Type (0, 1), BuildingBlock: XUDNAN_clean_linker_2, # of connection points: 2
#     Edge 33, Type (0, 1), BuildingBlock: XUDNAN_clean_linker_2, # of connection points: 2
#     Edge 34, Type (0, 1), BuildingBlock: XUDNAN_clean_linker_2, # of connection points: 2
#     Edge 35, Type (0, 1), BuildingBlock: XUDNAN_clean_linker_2, # of connection points: 2
# Relax obj value: 0.146
# Max RMSD: 0.247
# Mean RMSD: 0.179
data_MOF--net-pyr--node1-PAMTOO_clean_sbu_0--node2-QEWDON_clean_linker_0--edge1-XUDNAN_clean_linker_2
_symmetry_space_group_name_H-M    P1
_symmetry_Int_Tables_number       1
_symmetry_cell_setting            triclinic
loop_
_symmetry_equiv_pos_as_xyz
'x, y, z'
_cell_length_a     37.25632
_cell_length_b     39.841753
_cell_length_c     42.136575
_cell_angle_alpha  90.444238
_cell_angle_beta   90.392935
_cell_angle_gamma 113.59979
loop_
_atom_site_label
_atom_site_type_symbol
_atom_site_fract_x
_atom_site_fract_y
_atom_site_fract_z
_atom_type_partial_charge
H0 H 0.41708 0.32645 0.18999 0.0
C1 C 0.39083 0.30721 0.20094 0.0
C2 C 0.3844 0.2699 0.20347 0.0
C3 C 0.36356 0.32039 0.21253 0.0
H4 H 0.34411 0.21759 0.22186 0.0
C5 C 0.35057 0.24643 0.21943 0.0
C6 C 0.32413 0.25971 0.23242 0.0
C7 C 0.3302 0.2964 0.22813 0.0
C8 C 0.3705 0.35953 0.2091 0.0
H9 H 0.30996 0.30676 0.23837 0.0
C10 C 0.34047 0.36952 0.19791 0.0
C11 C 0.34743 0.4066 0.19363 0.0
C12 C 0.40737 0.3871 0.21662 0.0
H13 H 0.43082 0.38017 0.22563 0.0
C14 C 0.41421 0.42391 0.21291 0.0
H15 H 0.31218 0.34839 0.19147 0.0
C16 C 0.38456 0.43367 0.2014 0.0
H17 H 0.39061 0.46245 0.19871 0.0
H18 H 0.44265 0.44497 0.2189 0.0
H19 H 0.19039 0.84637 0.76907 0.0
C20 C 0.21089 0.8366 0.75844 0.0
C21 C 0.24825 0.84626 0.77203 0.0
C22 C 0.20007 0.81556 0.73046 0.0
H23 H 0.30397 0.84205 0.76725 0.0
C24 C 0.27448 0.83347 0.75777 0.0
C25 C 0.26387 0.812 0.72987 0.0
C26 C 0.22632 0.80272 0.71665 0.0
C27 C 0.16416 0.81213 0.71307 0.0
H28 H 0.2182 0.78701 0.69468 0.0
C29 C 0.15821 0.84395 0.70634 0.0
C30 C 0.127 0.84267 0.6868 0.0
C31 C 0.13762 0.77829 0.70104 0.0
H32 H 0.14182 0.75342 0.70581 0.0
C33 C 0.10551 0.77649 0.68265 0.0
H34 H 0.17887 0.87005 0.71561 0.0
C35 C 0.10028 0.80845 0.67534 0.0
H36 H 0.07607 0.80643 0.65998 0.0
H37 H 0.08508 0.75032 0.67342 0.0
H38 H 0.70296 0.47112 0.90477 0.0
C39 C 0.69111 0.44184 0.90848 0.0
C40 C 0.71289 0.42577 0.92551 0.0
C41 C 0.65272 0.42086 0.89785 0.0
H42 H 0.71238 0.37465 0.94236 0.0
C43 C 0.69533 0.38775 0.93105 0.0
C44 C 0.65598 0.36643 0.9224 0.0
C45 C 0.63508 0.38352 0.90555 0.0
C46 C 0.62875 0.43948 0.8841 0.0
H47 H 0.60446 0.36839 0.89951 0.0
C48 C 0.62917 0.44762 0.85139 0.0
C49 C 0.60674 0.46656 0.83963 0.0
C50 C 0.6057 0.45007 0.90471 0.0
H51 H 0.60501 0.44414 0.92981 0.0
C52 C 0.58359 0.46858 0.89329 0.0
H53 H 0.647 0.43956 0.83537 0.0
C54 C 0.58408 0.4768 0.86115 0.0
H55 H 0.56596 0.49062 0.85303 0.0
H56 H 0.56585 0.47654 0.90945 0.0
H57 H 0.89846 0.77885 0.36446 0.0
C58 C 0.87788 0.76138 0.38147 0.0
C59 C 0.87544 0.77517 0.41207 0.0
C60 C 0.85171 0.72591 0.372 0.0
H61 H 0.84535 0.76241 0.45695 0.0
C62 C 0.84704 0.75253 0.4332 0.0
C63 C 0.82093 0.71709 0.42425 0.0
C64 C 0.82369 0.704 0.39368 0.0
C65 C 0.84813 0.71363 0.33818 0.0
H66 H 0.80271 0.6772 0.38611 0.0
C67 C 0.87687 0.70473 0.32264 0.0
C68 C 0.86996 0.69 0.29127 0.0
C69 C 0.81343 0.70878 0.32178 0.0
H70 H 0.79105 0.71544 0.33313 0.0
C71 C 0.807 0.69515 0.29081 0.0
H72 H 0.90359 0.70806 0.33517 0.0
C73 C 0.83482 0.6857 0.27572 0.0
H74 H 0.82896 0.67538 0.25154 0.0
H75 H 0.78015 0.6917 0.27845 0.0
H76 H 0.71279 0.78942 0.95619 0.0
C77 C 0.72927 0.81244 0.94132 0.0
C78 C 0.76918 0.82132 0.93546 0.0
C79 C 0.71022 0.83301 0.92777 0.0
H80 H 0.81991 0.8573 0.90992 0.0
C81 C 0.78957 0.85094 0.91555 0.0
C82 C 0.77068 0.87149 0.90161 0.0
C83 C 0.73115 0.86274 0.90839 0.0
C84 C 0.66742 0.82113 0.93045 0.0
H85 H 0.7158 0.87745 0.89685 0.0
C86 C 0.65153 0.84483 0.94321 0.0
C87 C 0.61074 0.83568 0.94189 0.0
C88 C 0.64248 0.78736 0.91731 0.0
H89 H 0.65429 0.76889 0.90719 0.0
C90 C 0.60228 0.77799 0.9157 0.0
H91 H 0.6714 0.87016 0.95415 0.0
C92 C 0.58656 0.80205 0.92731 0.0
H93 H 0.55542 0.79418 0.92418 0.0
H94 H 0.58325 0.75228 0.90474 0.0
H95 H 0.87416 0.27615 0.48045 0.0
C96 C 0.85976 0.27453 0.45773 0.0
C97 C 0.86932 0.25684 0.43227 0.0
C98 C 0.8304 0.28797 0.45463 0.0
H99 H 0.85782 0.24008 0.38334 0.0
C100 C 0.85166 0.25523 0.40249 0.0
C101 C 0.8236 0.27017 0.39823 0.0
C102 C 0.81353 0.28669 0.42439 0.0
C103 C 0.81344 0.29834 0.48335 0.0
H104 H 0.79099 0.29698 0.42132 0.0
C105 C 0.79335 0.32158 0.48075 0.0
C106 C 0.76955 0.32462 0.50543 0.0
C107 C 0.81277 0.28139 0.51276 0.0
H108 H 0.82677 0.26253 0.516 0.0
C109 C 0.79192 0.28682 0.53823 0.0
H110 H 0.79489 0.33638 0.45904 0.0
C111 C 0.76979 0.30764 0.5345 0.0
H112 H 0.7516 0.309 0.55397 0.0
H113 H 0.7913 0.27325 0.56051 0.0
H114 H 0.44953 0.78527 0.26971 0.0
C115 C 0.42041 0.77331 0.25931 0.0
C116 C 0.40772 0.79384 0.23825 0.0
C117 C 0.39642 0.73646 0.26594 0.0
H118 H 0.36098 0.79072 0.20639 0.0
C119 C 0.37021 0.77655 0.22437 0.0
C120 C 0.34483 0.74048 0.23184 0.0
C121 C 0.35852 0.72033 0.25236 0.0
C122 C 0.41422 0.71298 0.28084 0.0
H123 H 0.34027 0.69191 0.25715 0.0
C124 C 0.41451 0.70742 0.31403 0.0
C125 C 0.43323 0.68551 0.32676 0.0
C126 C 0.43253 0.69667 0.26069 0.0
H127 H 0.43272 0.70069 0.23527 0.0
C128 C 0.4513 0.67562 0.27298 0.0
H129 H 0.40012 0.7198 0.32958 0.0
C130 C 0.45196 0.67029 0.30556 0.0
H131 H 0.46794 0.65463 0.3141 0.0
H132 H 0.46582 0.66362 0.25716 0.0
H133 H 0.19134 0.46653 0.74854 0.0
C134 C 0.17993 0.43728 0.74395 0.0
C135 C 0.19592 0.42363 0.7194 0.0
C136 C 0.14645 0.41367 0.76006 0.0
H137 H 0.18997 0.37689 0.69116 0.0
C138 C 0.17854 0.38617 0.71137 0.0
C139 C 0.14557 0.36162 0.72747 0.0
C140 C 0.13045 0.37592 0.75241 0.0
C141 C 0.12179 0.42896 0.77773 0.0
H142 H 0.10473 0.35829 0.76508 0.0
C143 C 0.13113 0.44485 0.80855 0.0
C144 C 0.10574 0.45855 0.82385 0.0
C145 C 0.08736 0.42709 0.76258 0.0
H146 H 0.07967 0.41517 0.73899 0.0
C147 C 0.06249 0.44044 0.77745 0.0
H148 H 0.15765 0.44641 0.82041 0.0
C149 C 0.0714 0.45584 0.80774 0.0
H150 H 0.05072 0.465 0.81884 0.0
H151 H 0.03592 0.43856 0.76551 0.0
Dy152 Dy 0.06998 0.09177 0.5451 0.0
Dy153 Dy 0.98421 0.05277 0.58003 0.0
C154 C 0.04894 0.12705 0.60788 0.0
O155 O 0.08228 0.06897 0.58985 0.0
O156 O 0.02099 0.02406 0.59743 0.0
O157 O 0.1167 0.14033 0.52798 0.0
O158 O 0.1204 0.08769 0.52286 0.0
O159 O 0.97673 0.02402 0.53315 0.0
O160 O 0.04111 0.03445 0.52541 0.0
O161 O 0.98147 0.09686 0.54925 0.0
O162 O 0.02731 0.1 0.51223 0.0
O163 O 0.93537 1.00451 0.59533 0.0
O164 O 0.93501 0.05821 0.60283 0.0
C165 C 0.05901 0.03796 0.60252 0.0
O166 O 0.06687 0.13313 0.5804 0.0
O167 O 0.02173 0.0949 0.61486 0.0
C168 C 0.146 0.13005 0.48119 0.0
C169 C 0.169 0.14629 0.41739 0.0
C170 C 0.14492 0.16134 0.43207 0.0
C171 C 0.13341 0.1532 0.46353 0.0
C172 C 0.16969 0.11469 0.46656 0.0
C173 C 0.18094 0.12257 0.43496 0.0
C174 C 0.13504 0.12208 0.51481 0.0
C175 C 1.0036 0.01547 0.51952 0.0
C176 C 0.99735 0.10682 0.52133 0.0
C177 C 0.90553 0.01417 0.64179 0.0
C178 C 0.88136 0.99778 0.70503 0.0
C179 C 0.85848 1.00759 0.68332 0.0
C180 C 0.87047 0.01564 0.65194 0.0
C181 C 0.92877 1.00486 0.66345 0.0
C182 C 0.91665 0.99652 0.69479 0.0
C183 C 0.91791 0.02338 0.60884 0.0
H184 H 0.13569 0.18022 0.41956 0.0
H185 H 0.11502 0.16547 0.47404 0.0
H186 H 0.17966 0.09666 0.47964 0.0
H187 H 0.19904 0.11008 0.42432 0.0
H188 H 0.83094 1.00836 0.69045 0.0
H189 H 0.85232 0.02297 0.63556 0.0
H190 H 0.95625 1.00405 0.65614 0.0
H191 H 0.93502 0.98938 0.71109 0.0
Dy192 Dy 0.48965 0.06274 0.07044 0.0
Dy193 Dy 0.58415 0.09604 0.08943 0.0
C194 C 0.5213 0.02822 0.12731 0.0
O195 O 0.49628 0.09435 0.11549 0.0
O196 O 0.55913 0.1351 0.10728 0.0
O197 O 0.43286 0.01801 0.06731 0.0
O198 O 0.4397 0.07211 0.05292 0.0
O199 O 0.58147 0.11758 0.04118 0.0
O200 O 0.51875 0.11456 0.04297 0.0
O201 O 0.57444 0.0463 0.06001 0.0
O202 O 0.51635 0.03842 0.03475 0.0
O203 O 0.6421 0.13849 0.08429 0.0
O204 O 0.63287 0.09389 0.11636 0.0
C205 C 0.52461 0.12666 0.12004 0.0
O206 O 0.49567 0.02257 0.10424 0.0
O207 O 0.55373 0.05818 0.12918 0.0
C208 C 0.39666 0.02201 0.02305 0.0
C209 C 0.3579 0.99089 0.96583 0.0
C210 C 0.39662 0.99481 0.97134 0.0
C211 C 0.41588 1.01034 0.99967 0.0
C212 C 0.35821 0.01852 1.01762 0.0
C213 C 0.33894 1.00314 0.98914 0.0
C214 C 0.41671 0.03743 0.05311 0.0
C215 C 0.55429 0.12825 0.03136 0.0
C216 C 0.54707 0.03041 0.03844 0.0
C217 C 0.67747 0.15225 0.13253 0.0
C218 C 0.71005 0.19613 0.1866 0.0
C219 C 0.68111 0.20152 0.16836 0.0
C220 C 0.66478 0.17963 0.14169 0.0
C221 C 0.70774 0.14803 0.14965 0.0
C222 C 0.72396 0.16982 0.17649 0.0
C223 C 0.65699 0.12606 0.10706 0.0
H224 H 0.41215 0.98611 0.95363 0.0
H225 H 0.44571 0.01306 1.00339 0.0
H226 H 0.34303 0.02745 0.03547 0.0
H227 H 0.309 1.00021 0.98559 0.0
H228 H 0.67016 0.22188 0.17532 0.0
H229 H 0.64133 0.18332 0.12889 0.0
H230 H 0.71772 0.1269 0.14299 0.0
H231 H 0.74587 0.16468 0.19025 0.0
Dy232 Dy 0.50552 0.53951 0.56424 0.0
Dy233 Dy 0.52814 0.61528 0.60538 0.0
C234 C 0.54505 0.54901 0.63414 0.0
O235 O 0.44815 0.53962 0.57868 0.0
O236 O 0.46982 0.57568 0.62313 0.0
O237 O 0.4799 0.48033 0.56097 0.0
O238 O 0.50605 0.51271 0.51976 0.0
O239 O 0.49028 0.61926 0.56504 0.0
O240 O 0.50175 0.58068 0.52995 0.0
O241 O 0.5779 0.62587 0.57148 0.0
O242 O 0.57064 0.56663 0.56415 0.0
O243 O 0.55159 0.67435 0.60776 0.0
O244 O 0.52912 0.64279 0.65004 0.0
C245 C 0.44135 0.55152 0.60614 0.0
O246 O 0.5196 0.52706 0.61352 0.0
O247 O 0.55804 0.58485 0.63187 0.0
C248 C 0.51747 0.46009 0.52759 0.0
C249 C 0.56904 0.42602 0.51479 0.0
C250 C 0.58073 0.45711 0.53473 0.0
C251 C 0.55509 0.4738 0.54122 0.0
C252 C 0.50523 0.42881 0.50814 0.0
C253 C 0.53077 0.41173 0.50189 0.0
C254 C 0.4925 0.4802 0.53219 0.0
C255 C 0.49009 0.60711 0.5359 0.0
C256 C 0.59134 0.60186 0.56132 0.0
C257 C 0.51492 0.69429 0.64233 0.0
C258 C 0.46331 0.72877 0.65354 0.0
C259 C 0.45626 0.70349 0.62839 0.0
C260 C 0.48173 0.68634 0.62292 0.0
C261 C 0.52222 0.71946 0.66747 0.0
C262 C 0.49651 0.73657 0.67311 0.0
C263 C 0.54055 0.67487 0.63698 0.0
H264 H 0.61009 0.46928 0.54467 0.0
H265 H 0.56499 0.49801 0.5563 0.0
H266 H 0.47622 0.41794 0.49745 0.0
H267 H 0.52061 0.38748 0.48686 0.0
H268 H 0.43056 0.69639 0.61329 0.0
H269 H 0.47525 0.66654 0.60369 0.0
H270 H 0.54757 0.72566 0.68283 0.0
H271 H 0.5027 0.75603 0.69261 0.0
Dy272 Dy 0.03895 0.61953 0.05689 0.0
Dy273 Dy 0.02362 0.54359 0.09537 0.0
C274 C 1.00193 0.60553 0.12688 0.0
O275 O 0.0983 0.62884 0.07549 0.0
O276 O 0.07913 0.58664 0.11566 0.0
O277 O 0.05362 0.67783 0.05599 0.0
O278 O 0.03653 0.64576 1.01273 0.0
O279 O 0.06618 0.54626 0.0571 0.0
O280 O 0.05088 0.58227 1.02218 0.0
O281 O 0.97462 0.52936 0.05931 0.0
O282 O 0.97468 0.58649 0.05543 0.0
O283 O 1.00496 0.48479 0.09549 0.0
O284 O 0.02639 0.516 0.13883 0.0
C285 C 0.10534 0.61584 0.10231 0.0
O286 O 0.02701 0.6288 0.10752 0.0
O287 O 0.9892 0.56993 0.12199 0.0
C288 C 0.01216 0.6908 1.02041 0.0
C289 C 0.95071 0.71225 1.0052 0.0
C290 C 0.94543 0.68511 0.02795 0.0
C291 C 0.97587 0.67453 0.03549 0.0
C292 C 0.01796 0.71841 0.99819 0.0
C293 C 0.98749 0.72921 0.99071 0.0
C294 C 0.04262 0.67698 0.02647 0.0
C295 C 0.06593 0.55824 0.02818 0.0
C296 C 0.95825 0.55123 0.04957 0.0
C297 C 0.04851 0.46953 0.1277 0.0
C298 C 0.11502 0.45295 0.13522 0.0
C299 C 0.10134 0.45646 0.10479 0.0
C300 C 0.06856 0.46473 0.10106 0.0
C301 C 0.06076 0.46398 0.15808 0.0
C302 C 0.0937 0.45568 0.16183 0.0
C303 C 0.01858 0.48492 0.12412 0.0
H304 H 0.91765 0.67191 0.03983 0.0
H305 H 0.97087 0.65317 0.05276 0.0
H306 H 0.04572 0.73105 0.98617 0.0
H307 H 0.9923 0.74999 0.97291 0.0
H308 H 0.11671 0.45387 0.0838 0.0
H309 H 0.05997 0.46881 0.07728 0.0
H310 H 0.04593 0.46775 0.17898 0.0
H311 H 0.10363 0.4533 0.1856 0.0
H312 H 0.33112 0.22286 0.28433 0.0
H313 H 0.24608 0.24603 0.22814 0.0
H314 H 0.19455 0.21283 0.26691 0.0
H315 H 0.2644 0.13175 0.31409 0.0
H316 H 0.28748 0.14074 0.35277 0.0
H317 H 0.31571 0.161 0.31812 0.0
H318 H 0.33653 0.22547 0.3438 0.0
H319 H 0.30832 0.20548 0.37839 0.0
H320 H 0.29936 0.24044 0.35702 0.0
H321 H 0.15404 0.18166 0.31406 0.0
H322 H 0.12832 0.15787 0.36679 0.0
H323 H 0.2417 0.15921 0.39345 0.0
C324 C 0.30133 0.21986 0.27973 0.0
C325 C 0.29218 0.23627 0.25309 0.0
C326 C 0.25335 0.23318 0.24832 0.0
C327 C 0.22399 0.21432 0.27012 0.0
C328 C 0.23416 0.19903 0.29658 0.0
C329 C 0.27194 0.20169 0.30147 0.0
C330 C 0.27636 0.18654 0.33339 0.0
C331 C 0.28658 0.15301 0.32934 0.0
C332 C 0.30693 0.21626 0.35438 0.0
C333 C 0.2354 0.17569 0.34607 0.0
C334 C 0.2113 0.18249 0.32429 0.0
C335 C 0.17261 0.17606 0.33123 0.0
C336 C 0.15838 0.16285 0.36138 0.0
C337 C 0.18297 0.15675 0.38445 0.0
C338 C 0.22182 0.16283 0.3763 0.0
H339 H 0.29268 0.84434 0.82391 0.0
H340 H 0.23296 0.9073 0.78185 0.0
H341 H 0.2532 0.95022 0.82734 0.0
H342 H 0.27078 0.85519 0.90517 0.0
H343 H 0.31805 0.85987 0.92005 0.0
H344 H 0.29804 0.8334 0.88449 0.0
H345 H 0.36042 0.87329 0.85375 0.0
H346 H 0.38064 0.89985 0.88923 0.0
H347 H 0.37583 0.92234 0.85349 0.0
H348 H 0.27978 0.98638 0.8773 0.0
H349 H 0.31298 0.01439 0.92774 0.0
H350 H 0.35678 0.92897 0.93643 0.0
C351 C 0.284 0.86723 0.82419 0.0
C352 C 0.26075 0.8721 0.79949 0.0
C353 C 0.24992 0.90241 0.80084 0.0
C354 C 0.26152 0.92714 0.82647 0.0
C355 C 0.28421 0.92141 0.85046 0.0
C356 C 0.29553 0.89235 0.8495 0.0
C357 C 0.32051 0.89282 0.8781 0.0
C358 C 0.30064 0.85827 0.89813 0.0
C359 C 0.3618 0.89735 0.86803 0.0
C360 C 0.32139 0.92665 0.89527 0.0
C361 C 0.30016 0.94267 0.87899 0.0
C362 C 0.29651 0.97411 0.89029 0.0
C363 C 0.31525 0.98969 0.91899 0.0
C364 C 0.33745 0.97387 0.9359 0.0
C365 C 0.34038 0.9419 0.92381 0.0
H366 H 0.60892 0.53036 0.81298 0.0
H367 H 0.59912 0.42117 0.78813 0.0
H368 H 0.58648 0.43181 0.7321 0.0
H369 H 0.53216 0.53019 0.76447 0.0
H370 H 0.55561 0.57762 0.75338 0.0
H371 H 0.56782 0.56286 0.79066 0.0
H372 H 0.64111 0.58926 0.77547 0.0
H373 H 0.62917 0.60435 0.73818 0.0
H374 H 0.65556 0.57506 0.73872 0.0
H375 H 0.5671 0.45202 0.67985 0.0
H376 H 0.54787 0.48148 0.63527 0.0
H377 H 0.57208 0.57839 0.69367 0.0
C378 C 0.60468 0.50881 0.79569 0.0
C379 C 0.60505 0.47482 0.80511 0.0
C380 C 0.59951 0.44754 0.78158 0.0
C381 C 0.59203 0.4533 0.74969 0.0
C382 C 0.59066 0.4867 0.74148 0.0
C383 C 0.59744 0.51421 0.76377 0.0
C384 C 0.593 0.54712 0.74914 0.0
C385 C 0.5602 0.55488 0.76538 0.0
C386 C 0.63204 0.58095 0.75046 0.0
C387 C 0.58177 0.53361 0.71524 0.0
C388 C 0.58055 0.49865 0.71132 0.0
C389 C 0.56857 0.47957 0.68262 0.0
C390 C 0.55752 0.49651 0.65742 0.0
C391 C 0.55874 0.53241 0.66077 0.0
C392 C 0.57147 0.55122 0.6901 0.0
H393 H 0.85519 0.62757 0.25568 0.0
H394 H 0.94942 0.72913 0.2859 0.0
H395 H 0.99457 0.71617 0.2497 0.0
H396 H 0.91592 0.57376 0.24544 0.0
H397 H 0.88816 0.54963 0.2111 0.0
H398 H 0.8647 0.56507 0.2418 0.0
H399 H 0.84239 0.60019 0.19997 0.0
H400 H 0.86603 0.58517 0.16922 0.0
H401 H 0.87846 0.63339 0.17533 0.0
H402 H 0.02689 0.696 0.20511 0.0
H403 H 0.04577 0.66797 0.15927 0.0
H404 H 0.93123 0.57801 0.15882 0.0
C405 C 0.88554 0.6468 0.25512 0.0
C406 C 0.89877 0.67947 0.27373 0.0
C407 C 0.93869 0.7038 0.27227 0.0
C408 C 0.96446 0.69673 0.25158 0.0
C409 C 0.95006 0.66491 0.2328 0.0
C410 C 0.91165 0.64002 0.2348 0.0
C411 C 0.90301 0.60864 0.21114 0.0
C412 C 0.89232 0.57211 0.22841 0.0
C413 C 0.87056 0.60676 0.18752 0.0
C414 C 0.94231 0.62017 0.19486 0.0
C415 C 0.969 0.65275 0.20774 0.0
C416 C 1.0064 0.67021 0.19527 0.0
C417 C 0.01678 0.65413 0.16907 0.0
C418 C 0.99013 0.62061 0.15555 0.0
C419 C 0.9525 0.60325 0.16896 0.0
H420 H 0.39759 0.20797 0.22039 0.0
H421 H 0.43562 0.29806 0.15339 0.0
H422 H 0.48233 0.27556 0.13127 0.0
H423 H 0.48832 0.19635 0.2302 0.0
H424 H 0.46484 0.14705 0.22897 0.0
H425 H 0.43876 0.17333 0.24389 0.0
H426 H 0.38271 0.14166 0.20309 0.0
H427 H 0.40836 0.11502 0.18834 0.0
H428 H 0.39408 0.1426 0.1615 0.0
H429 H 0.52449 0.24292 0.11512 0.0
H430 H 0.54963 0.19656 0.0995 0.0
H431 H 0.47601 0.12239 0.1699 0.0
C432 C 0.41522 0.22321 0.20096 0.0
C433 C 0.41285 0.25575 0.18959 0.0
C434 C 0.43744 0.27421 0.16405 0.0
C435 C 0.46413 0.26142 0.15091 0.0
C436 C 0.4654 0.22944 0.16275 0.0
C437 C 0.44089 0.21004 0.18662 0.0
C438 C 0.44444 0.17392 0.19217 0.0
C439 C 0.46002 0.17261 0.22581 0.0
C440 C 0.40506 0.14139 0.18588 0.0
C441 C 0.47441 0.17589 0.16733 0.0
C442 C 0.48705 0.20872 0.15136 0.0
C443 C 0.51478 0.21708 0.12741 0.0
C444 C 0.52907 0.1907 0.11886 0.0
C445 C 0.51475 0.15606 0.13359 0.0
C446 C 0.48748 0.14877 0.15841 0.0
H447 H 0.06034 0.85612 0.67825 0.0
H448 H 0.18725 0.90754 0.67209 0.0
H449 H 0.18339 0.96512 0.65605 0.0
H450 H 0.04263 0.89657 0.60872 0.0
H451 H 1.00013 0.90204 0.62386 0.0
H452 H 0.01287 0.86587 0.63844 0.0
H453 H 0.01422 0.88991 0.69599 0.0
H454 H 1.00178 0.92639 0.68149 0.0
H455 H 0.04513 0.93688 0.70565 0.0
H456 H 0.16638 0.01601 0.6378 0.0
H457 H 0.13684 0.05562 0.61449 0.0
H458 H 0.02086 0.97089 0.63006 0.0
C459 C 0.08733 0.87949 0.67365 0.0
C460 C 0.12413 0.87733 0.67711 0.0
C461 C 0.15872 0.90865 0.67066 0.0
C462 C 0.15689 0.94155 0.66136 0.0
C463 C 0.12026 0.94276 0.65835 0.0
C464 C 0.08606 0.91256 0.66403 0.0
C465 C 0.05041 0.92053 0.65666 0.0
C466 C 0.02503 0.89473 0.63035 0.0
C467 C 0.02648 0.9183 0.68674 0.0
C468 C 0.07003 0.95961 0.64524 0.0
C469 C 0.11032 0.97205 0.64692 0.0
C470 C 0.13486 1.00673 0.63655 0.0
C471 C 0.11773 0.02901 0.62336 0.0
C472 C 0.0765 0.01638 0.62039 0.0
C473 C 0.05243 0.98147 0.63214 0.0
H474 H 0.74932 0.41406 0.97992 0.0
H475 H 0.76845 0.49046 0.9022 0.0
H476 H 0.83118 0.53066 0.9266 0.0
H477 H 0.79296 0.478 0.04195 0.0
H478 H 0.81629 0.45153 0.061 0.0
H479 H 0.77188 0.42875 0.03823 0.0
H480 H 0.80628 0.39684 1.00351 0.0
H481 H 0.85073 0.41922 0.02636 0.0
H482 H 0.85125 0.42419 0.98386 0.0
H483 H 0.88985 0.56486 0.96115 0.0
H484 H 0.94502 0.58677 0.99937 0.0
H485 H 0.89328 0.48493 0.05091 0.0
C486 C 0.76675 0.43876 0.96741 0.0
C487 C 0.75285 0.4489 0.93905 0.0
C488 C 0.77714 0.48214 0.92432 0.0
C489 C 0.81324 0.50519 0.93789 0.0
C490 C 0.82551 0.49447 0.9659 0.0
C491 C 0.80346 0.46168 0.98013 0.0
C492 C 0.82424 0.45604 1.00953 0.0
C493 C 0.79988 0.45343 0.03944 0.0
C494 C 0.83369 0.42206 1.00557 0.0
C495 C 0.86128 0.49104 1.00976 0.0
C496 C 0.86096 0.51304 0.98461 0.0
C497 C 0.89069 0.54763 0.98063 0.0
C498 C 0.92181 0.55991 1.0026 0.0
C499 C 0.9236 0.53746 0.02798 0.0
C500 C 0.8929 0.50247 0.03152 0.0
H501 H 0.77195 0.73814 0.4604 0.0
H502 H 0.79876 0.64438 0.4376 0.0
H503 H 0.7457 0.60594 0.47287 0.0
H504 H 0.74674 0.71578 0.5436 0.0
H505 H 0.70738 0.73119 0.54274 0.0
H506 H 0.74888 0.75186 0.51715 0.0
H507 H 0.70242 0.7364 0.46819 0.0
H508 H 0.66082 0.71575 0.4936 0.0
H509 H 0.66848 0.6897 0.46115 0.0
H510 H 0.68855 0.57725 0.50913 0.0
H511 H 0.62954 0.55938 0.54193 0.0
H512 H 0.6387 0.67155 0.54118 0.0
C513 C 0.76704 0.70964 0.46322 0.0
C514 C 0.78971 0.69429 0.44634 0.0
C515 C 0.78172 0.65669 0.45015 0.0
C516 C 0.75179 0.63471 0.47028 0.0
C517 C 0.72992 0.65065 0.48643 0.0
C518 C 0.73704 0.68722 0.48307 0.0
C519 C 0.70796 0.69709 0.50193 0.0
C520 C 0.729 0.72568 0.5279 0.0
C521 C 0.68347 0.71052 0.4799 0.0
C522 C 0.68311 0.66026 0.51619 0.0
C523 C 0.69656 0.63396 0.50712 0.0
C524 C 0.67789 0.59766 0.51649 0.0
C525 C 0.64428 0.58779 0.53519 0.0
C526 C 0.62932 0.61402 0.54434 0.0
C527 C 0.64949 0.65088 0.53495 0.0
H528 H 0.26948 0.38081 0.20965 0.0
H529 H 0.35582 0.45633 0.14709 0.0
H530 H 0.30544 0.47533 0.125 0.0
H531 H 0.18753 0.3529 0.15397 0.0
H532 H 0.1523 0.35068 0.18387 0.0
H533 H 0.19491 0.34226 0.19437 0.0
H534 H 0.21347 0.39313 0.23764 0.0
H535 H 0.17099 0.40176 0.22723 0.0
H536 H 0.21895 0.4386 0.2268 0.0
H537 H 0.24663 0.48676 0.11012 0.0
H538 H 0.18275 0.49087 0.10378 0.0
H539 H 0.13364 0.40796 0.17578 0.0
C540 C 0.27763 0.40109 0.1911 0.0
C541 C 0.3166 0.41719 0.18012 0.0
C542 C 0.32627 0.44397 0.1561 0.0
C543 C 0.29783 0.45479 0.14329 0.0
C544 C 0.25982 0.43862 0.15477 0.0
C545 C 0.24959 0.4124 0.17815 0.0
C546 C 0.20674 0.40004 0.1867 0.0
C547 C 0.18403 0.35903 0.17928 0.0
C548 C 0.20229 0.40893 0.22166 0.0
C549 C 0.19459 0.42352 0.16452 0.0
C550 C 0.22568 0.4454 0.14624 0.0
C551 C 0.22197 0.4696 0.12414 0.0
C552 C 0.18547 0.47156 0.12057 0.0
C553 C 0.15307 0.44948 0.13904 0.0
C554 C 0.15786 0.42522 0.16137 0.0
H555 H 0.67113 0.33395 0.97611 0.0
H556 H 0.59569 0.30873 0.89235 0.0
H557 H 0.56151 0.24539 0.91086 0.0
H558 H 0.68237 0.24746 0.97582 0.0
H559 H 0.68345 0.24542 1.01852 0.0
H560 H 0.70107 0.28916 0.99916 0.0
H561 H 0.65308 0.30756 0.03194 0.0
H562 H 0.63518 0.26385 0.05129 0.0
H563 H 0.60148 0.27859 0.03083 0.0
H564 H 0.5324 0.18505 0.94085 0.0
H565 H 0.51578 0.13201 0.97689 0.0
H566 H 0.61562 0.1947 0.03668 0.0
C567 C 0.64807 0.31523 0.96105 0.0
C568 C 0.63633 0.32711 0.9326 0.0
C569 C 0.60504 0.30114 0.91452 0.0
C570 C 0.58551 0.2648 0.92473 0.0
C571 C 0.5979 0.25431 0.95284 0.0
C572 C 0.62889 0.27868 0.97045 0.0
C573 C 0.63714 0.26044 0.99944 0.0
C574 C 0.67846 0.26063 0.99814 0.0
C575 C 0.63137 0.2787 0.03018 0.0
C576 C 0.60585 0.22198 0.9955 0.0
C577 C 0.58305 0.21909 0.96874 0.0
C578 C 0.55056 0.18686 0.96149 0.0
C579 C 0.5413 0.15691 0.98203 0.0
C580 C 0.56499 0.1591 1.00899 0.0
C581 C 0.59773 0.19202 1.01565 0.0
H582 H 0.85513 0.82404 0.4462 0.0
H583 H 0.95432 0.81314 0.40108 0.0
H584 H 0.99751 0.87489 0.42113 0.0
H585 H 0.88496 0.92161 0.43289 0.0
H586 H 0.86733 0.92935 0.47081 0.0
H587 H 0.84413 0.88552 0.45108 0.0
H588 H 0.85603 0.85342 0.50085 0.0
H589 H 0.87926 0.8971 0.52072 0.0
H590 H 0.90506 0.86751 0.51665 0.0
H591 H 0.03063 0.93665 0.44954 0.0
H592 H 0.05037 0.99297 0.48236 0.0
H593 H 0.92916 0.96281 0.50901 0.0
C594 C 0.88594 0.83453 0.44046 0.0
C595 C 0.90129 0.81346 0.42211 0.0
C596 C 0.94172 0.82873 0.4148 0.0
C597 C 0.96652 0.86375 0.42624 0.0
C598 C 0.95047 0.88338 0.44479 0.0
C599 C 0.91102 0.86932 0.45166 0.0
C600 C 0.90108 0.89529 0.47284 0.0
C601 C 0.8727 0.90874 0.45588 0.0
C602 C 0.88438 0.87725 0.50465 0.0
C603 C 0.94121 0.92604 0.47727 0.0
C604 C 0.96933 0.91876 0.46084 0.0
C605 C 0.00874 0.94268 0.46226 0.0
C606 C 0.01968 0.97465 0.48104 0.0
C607 C 0.99137 0.98261 0.49824 0.0
C608 C 0.95156 0.95791 0.49598 0.0
H609 H 0.31541 0.78531 0.75504 0.0
H610 H 0.27894 0.81743 0.66635 0.0
H611 H 0.32781 0.80191 0.63769 0.0
H612 H 0.4192 0.82022 0.73736 0.0
H613 H 0.42619 0.78282 0.75627 0.0
H614 H 0.38872 0.79701 0.77012 0.0
H615 H 0.33644 0.7309 0.762 0.0
H616 H 0.37375 0.71649 0.74827 0.0
H617 H 0.33134 0.70885 0.72371 0.0
H618 H 0.37953 0.78226 0.61848 0.0
H619 H 0.42995 0.75778 0.60961 0.0
H620 H 0.4333 0.73843 0.71061 0.0
C621 C 0.31793 0.78927 0.72962 0.0
C622 C 0.29317 0.80228 0.71288 0.0
C623 C 0.2971 0.80686 0.67958 0.0
C624 C 0.325 0.79844 0.66313 0.0
C625 C 0.34886 0.78561 0.68031 0.0
C626 C 0.34563 0.78095 0.71278 0.0
C627 C 0.37432 0.76587 0.72536 0.0
C628 C 0.40386 0.79311 0.74866 0.0
C629 C 0.35266 0.7283 0.74073 0.0
C630 C 0.39391 0.76252 0.69482 0.0
C631 C 0.37889 0.77425 0.66917 0.0
C632 C 0.39159 0.77303 0.63836 0.0
C633 C 0.42009 0.75896 0.63356 0.0
C634 C 0.43547 0.74619 0.65941 0.0
C635 C 0.42247 0.74847 0.69047 0.0
H636 H 0.81668 0.86595 0.85332 0.0
H637 H 0.76866 0.93918 0.89423 0.0
H638 H 0.7962 0.98221 0.85007 0.0
H639 H 0.90774 0.93783 0.82282 0.0
H640 H 0.9066 0.91139 0.78762 0.0
H641 H 0.88655 0.88849 0.82413 0.0
H642 H 0.82034 0.85218 0.79538 0.0
H643 H 0.84002 0.87511 0.75892 0.0
H644 H 0.79596 0.87677 0.77481 0.0
H645 H 0.82374 0.0142 0.7989 0.0
H646 H 0.85037 0.03334 0.74529 0.0
H647 H 0.88072 0.93917 0.73869 0.0
C648 C 0.81296 0.89155 0.85357 0.0
C649 C 0.7908 0.89938 0.87735 0.0
C650 C 0.78549 0.93263 0.87619 0.0
C651 C 0.80117 0.95729 0.85132 0.0
C652 C 0.82225 0.94834 0.82794 0.0
C653 C 0.82841 0.91639 0.82901 0.0
C654 C 0.84987 0.91197 0.79999 0.0
C655 C 0.89008 0.91246 0.8092 0.0
C656 C 0.82505 0.87694 0.78117 0.0
C657 C 0.85406 0.94602 0.78201 0.0
C658 C 0.83819 0.96679 0.79859 0.0
C659 C 0.83668 0.9984 0.78589 0.0
C660 C 0.85162 1.00891 0.75539 0.0
C661 C 0.86777 0.98783 0.73796 0.0
C662 C 0.86929 0.95622 0.75171 0.0
H663 H 0.85079 0.26966 0.33733 0.0
H664 H 0.74573 0.25672 0.38943 0.0
H665 H 0.7088 0.2461 0.33951 0.0
H666 H 0.82935 0.30968 0.26438 0.0
H667 H 0.84731 0.28353 0.23877 0.0
H668 H 0.86802 0.29684 0.278 0.0
H669 H 0.85225 0.22894 0.29097 0.0
H670 H 0.83165 0.21548 0.25183 0.0
H671 H 0.80271 0.19535 0.2862 0.0
H672 H 0.68113 0.23101 0.28557 0.0
H673 H 0.6632 0.20727 0.23114 0.0
H674 H 0.78423 0.2255 0.21322 0.0
C675 C 0.82012 0.26496 0.3383 0.0
C676 C 0.80172 0.26511 0.36757 0.0
C677 C 0.7613 0.25843 0.36752 0.0
C678 C 0.7398 0.25205 0.33918 0.0
C679 C 0.75877 0.25186 0.31094 0.0
C680 C 0.7979 0.25777 0.31021 0.0
C681 C 0.80991 0.25182 0.27703 0.0
C682 C 0.84046 0.28761 0.26377 0.0
C683 C 0.825 0.22107 0.27649 0.0
C684 C 0.77104 0.24046 0.25959 0.0
C685 C 0.74223 0.24155 0.27952 0.0
C686 C 0.70349 0.23054 0.26953 0.0
C687 C 0.69365 0.21727 0.23848 0.0
C688 C 0.72237 0.21481 0.21781 0.0
C689 C 0.76169 0.22717 0.22845 0.0
H690 H 0.43128 0.62292 0.35582 0.0
H691 H 0.43969 0.73254 0.37751 0.0
H692 H 0.45019 0.72298 0.43424 0.0
H693 H 0.38535 0.57875 0.429 0.0
H694 H 0.41363 0.55118 0.4307 0.0
H695 H 0.40176 0.56514 0.39288 0.0
H696 H 0.47548 0.5942 0.37896 0.0
H697 H 0.48758 0.58046 0.41673 0.0
H698 H 0.50945 0.62791 0.40548 0.0
H699 H 0.46434 0.702 0.48906 0.0
H700 H 0.48196 0.6729 0.53495 0.0
H701 H 0.46924 0.5794 0.47543 0.0
C702 C 0.43528 0.64512 0.37231 0.0
C703 C 0.43482 0.6787 0.36174 0.0
C704 C 0.43936 0.7064 0.38471 0.0
C705 C 0.44564 0.70127 0.41707 0.0
C706 C 0.44735 0.66829 0.42629 0.0
C707 C 0.44223 0.64072 0.40442 0.0
C708 C 0.44793 0.60878 0.41961 0.0
C709 C 0.4099 0.5739 0.41795 0.0
C710 C 0.48214 0.60249 0.40428 0.0
C711 C 0.45774 0.62278 0.45345 0.0
C712 C 0.4567 0.65691 0.45707 0.0
C713 C 0.46509 0.67525 0.48636 0.0
C714 C 0.47505 0.65846 0.51235 0.0
C715 C 0.47717 0.62385 0.50891 0.0
C716 C 0.46809 0.6059 0.47897 0.0
H717 H 0.0943 0.51852 0.8461 0.0
H718 H 0.13129 0.43359 0.87681 0.0
H719 H 0.13094 0.45338 0.93271 0.0
H720 H 0.14665 0.5877 0.90786 0.0
H721 H 0.10692 0.60239 0.91123 0.0
H722 H 0.1159 0.58495 0.87388 0.0
H723 H 0.04426 0.53669 0.87255 0.0
H724 H 0.03514 0.55371 0.90996 0.0
H725 H 0.0262 0.50599 0.90546 0.0
H726 H 0.11898 0.47861 0.98612 0.0
H727 H 0.09857 0.50721 0.03087 0.0
H728 H 0.06711 0.57393 0.96448 0.0
C729 C 0.10298 0.50436 0.86448 0.0
C730 C 0.11281 0.47436 0.85688 0.0
C731 C 0.12417 0.4569 0.88182 0.0
C732 C 0.12377 0.46784 0.91372 0.0
C733 C 0.11223 0.4965 0.92036 0.0
C734 C 0.10243 0.51473 0.89629 0.0
C735 C 0.08836 0.54285 0.90946 0.0
C736 C 0.11612 0.58178 0.90005 0.0
C737 C 0.04598 0.53428 0.89872 0.0
C738 C 0.09076 0.53711 0.94479 0.0
C739 C 0.10498 0.51056 0.95071 0.0
C740 C 0.10821 0.49967 0.98163 0.0
C741 C 0.09642 0.51607 1.00698 0.0
C742 C 0.0812 0.54299 1.00142 0.0
C743 C 0.07884 0.55372 0.96977 0.0
H744 H 0.64673 0.91142 0.95241 0.0
H745 H 0.53516 0.81808 0.96347 0.0
H746 H 0.50616 0.8593 0.98314 0.0
H747 H 0.6393 0.95129 0.02735 0.0
H748 H 0.66406 0.99771 1.01391 0.0
H749 H 0.67517 0.96169 0.99637 0.0
H750 H 0.65875 0.97924 0.94069 0.0
H751 H 0.64714 0.01508 0.95811 0.0
H752 H 0.61147 0.9803 0.93346 0.0
H753 H 0.48827 0.91055 1.00101 0.0
H754 H 0.48596 0.96636 0.02512 0.0
H755 H 0.61108 0.02401 1.01164 0.0
C756 C 0.61633 0.89905 0.95915 0.0
C757 C 0.59342 0.86094 0.95519 0.0
C758 C 0.55349 0.84704 0.96449 0.0
C759 C 0.53656 0.87029 0.97613 0.0
C760 C 0.56 0.90742 0.97942 0.0
C761 C 0.59926 0.92159 0.97204 0.0
C762 C 0.61891 0.96187 0.98102 0.0
C763 C 0.65126 0.96851 1.00616 0.0
C764 C 0.63501 0.98551 0.95156 0.0
C765 C 0.58447 0.968 0.99468 0.0
C766 C 0.55056 0.93643 0.99268 0.0
C767 C 0.51467 0.93538 1.00295 0.0
C768 C 0.5136 0.96722 1.0164 0.0
C769 C 0.54835 0.99926 1.02021 0.0
C770 C 0.58417 0.99974 1.00901 0.0
H771 H 0.86058 0.20992 0.48059 0.0
H772 H 0.93068 0.25457 0.39731 0.0
H773 H 0.96983 0.21811 0.409 0.0
H774 H 0.9374 0.21164 0.53085 0.0
H775 H 0.9081 0.16948 0.55029 0.0
H776 H 0.88519 0.19771 0.53401 0.0
H777 H 0.83851 0.14255 0.50028 0.0
H778 H 0.86141 0.11417 0.51637 0.0
H779 H 0.85882 0.11892 0.47401 0.0
H780 H 1.00302 0.17837 0.43226 0.0
H781 H 0.02697 0.13963 0.46444 0.0
H782 H 0.93341 0.12214 0.53158 0.0
C783 C 0.88435 0.21227 0.46488 0.0
C784 C 0.89311 0.2354 0.43834 0.0
C785 C 0.92373 0.23703 0.41786 0.0
C786 C 0.946 0.21646 0.42432 0.0
C787 C 0.93679 0.19422 0.45106 0.0
C788 C 0.90651 0.19199 0.47086 0.0
C789 C 0.90263 0.16685 0.49839 0.0
C790 C 0.90871 0.18767 0.53026 0.0
C791 C 0.86299 0.13365 0.49717 0.0
C792 C 0.93601 0.15571 0.4915 0.0
C793 C 0.95531 0.17144 0.46404 0.0
C794 C 0.98791 0.16572 0.45366 0.0
C795 C 1.00125 0.14366 0.47207 0.0
C796 C 0.98203 0.12783 0.50054 0.0
C797 C 0.94877 0.13373 0.50997 0.0
H798 H 0.30235 0.66977 0.20767 0.0
H799 H 0.29599 0.77538 0.22202 0.0
H800 H 0.23552 0.75464 0.19011 0.0
H801 H 0.26662 0.65314 0.12898 0.0
H802 H 0.23661 0.60506 0.13345 0.0
H803 H 0.2792 0.62699 0.15846 0.0
H804 H 0.23655 0.60567 0.20858 0.0
H805 H 0.19391 0.58318 0.18369 0.0
H806 H 0.19423 0.61644 0.21306 0.0
H807 H 0.18102 0.72636 0.15174 0.0
H808 H 0.127 0.68719 0.11658 0.0
H809 H 0.16148 0.59653 0.13112 0.0
C810 C 0.28779 0.68824 0.2047 0.0
C811 C 0.30481 0.72469 0.2168 0.0
C812 C 0.28451 0.74781 0.21225 0.0
C813 C 0.24992 0.73624 0.19424 0.0
C814 C 0.23496 0.70096 0.18151 0.0
C815 C 0.25239 0.67679 0.1872 0.0
C816 C 0.2292 0.64005 0.17094 0.0
C817 C 0.25442 0.63078 0.14651 0.0
C818 C 0.21247 0.60953 0.19554 0.0
C819 C 0.19676 0.64789 0.15472 0.0
C820 C 0.2012 0.68345 0.16091 0.0
C821 C 0.17677 0.69825 0.14714 0.0
C822 C 0.14643 0.67594 0.12697 0.0
C823 C 0.14019 0.63901 0.12118 0.0
C824 C 0.16561 0.6247 0.13533 0.0
H825 H 0.27225 0.46912 0.73552 0.0
H826 H 0.19054 0.43251 0.65623 0.0
H827 H 0.24377 0.46577 0.61926 0.0
H828 H 0.33429 0.56128 0.70243 0.0
H829 H 0.379 0.55989 0.71763 0.0
H830 H 0.33371 0.537 0.73848 0.0
H831 H 0.34361 0.47631 0.73571 0.0
H832 H 0.38869 0.4989 0.71467 0.0
H833 H 0.35036 0.45878 0.69765 0.0
H834 H 0.30607 0.49585 0.59035 0.0
H835 H 0.37393 0.52435 0.57113 0.0
H836 H 0.41689 0.54392 0.66841 0.0
C837 C 0.26556 0.46912 0.71047 0.0
C838 C 0.22729 0.44847 0.69865 0.0
C839 C 0.21965 0.44828 0.66568 0.0
C840 C 0.24968 0.4671 0.64453 0.0
C841 C 0.28731 0.48629 0.65667 0.0
C842 C 0.29543 0.48788 0.68887 0.0
C843 C 0.33907 0.50867 0.6952 0.0
C844 C 0.34698 0.5438 0.71459 0.0
C845 C 0.35644 0.4842 0.71178 0.0
C846 C 0.35415 0.5175 0.66153 0.0
C847 C 0.32365 0.50441 0.63976 0.0
C848 C 0.33016 0.50681 0.60717 0.0
C849 C 0.36884 0.52289 0.59647 0.0
C850 C 0.40068 0.53665 0.61822 0.0
C851 C 0.3931 0.53428 0.65121 0.0
H852 H 0.84505 0.84421 0.95768 0.0
H853 H 0.73887 0.74644 0.94144 0.0
H854 H 0.77303 0.70831 0.95975 0.0
H855 H 0.91019 0.80654 0.92811 0.0
H856 H 0.94861 0.83003 0.95656 0.0
H857 H 0.91499 0.84998 0.94477 0.0
H858 H 0.89691 0.85363 1.00361 0.0
H859 H 0.93061 0.83382 1.01561 0.0
H860 H 0.88002 0.81277 0.02723 0.0
H861 H 0.81943 0.68057 0.97745 0.0
H862 H 0.87493 0.66518 0.99317 0.0
H863 H 0.9515 0.78081 0.99602 0.0
C864 C 0.82888 0.81479 0.95797 0.0
C865 C 0.7891 0.79844 0.94828 0.0
C866 C 0.76906 0.75979 0.94935 0.0
C867 C 0.78831 0.73783 0.95949 0.0
C868 C 0.82763 0.75486 0.96839 0.0
C869 C 0.84771 0.79245 0.96773 0.0
C870 C 0.89027 0.80381 0.97728 0.0
C871 C 0.91762 0.82376 0.95006 0.0
C872 C 0.90001 0.8274 1.00775 0.0
C873 C 0.89109 0.76669 0.98311 0.0
C874 C 0.85458 0.73883 0.97807 0.0
C875 C 0.84809 0.70215 0.98168 0.0
C876 C 0.87975 0.6937 0.99073 0.0
C877 C 0.91748 0.7218 0.99594 0.0
C878 C 0.92307 0.75874 0.99201 0.0
H879 H 0.38588 0.8497 0.2196 0.0
H880 H 0.48906 0.82611 0.23417 0.0
H881 H 0.53025 0.88712 0.2137 0.0
H882 H 0.41468 0.88776 0.14432 0.0
H883 H 0.39329 0.9209 0.14846 0.0
H884 H 0.37299 0.87843 0.16958 0.0
H885 H 0.38183 0.91433 0.22264 0.0
H886 H 0.40236 0.957 0.20166 0.0
H887 H 0.42952 0.94811 0.23372 0.0
H888 H 0.56024 0.95053 0.18803 0.0
H889 H 0.57452 1.00583 0.1553 0.0
H890 H 0.45063 0.98284 0.15122 0.0
C891 C 0.41708 0.85688 0.21853 0.0
C892 C 0.43374 0.83232 0.22875 0.0
C893 C 0.4751 0.84414 0.22734 0.0
C894 C 0.49891 0.87887 0.21546 0.0
C895 C 0.48114 0.90161 0.20464 0.0
C896 C 0.44104 0.89079 0.20581 0.0
C897 C 0.42839 0.91815 0.18957 0.0
C898 C 0.40072 0.90024 0.16131 0.0
C899 C 0.40941 0.93542 0.21332 0.0
C900 C 0.46757 0.94591 0.17857 0.0
C901 C 0.49785 0.93649 0.18815 0.0
C902 C 0.53669 0.9581 0.1805 0.0
C903 C 0.54458 0.98956 0.16204 0.0
C904 C 0.51371 0.9986 0.15077 0.0
C905 C 0.47484 0.97662 0.15954 0.0
H906 H 0.17626 0.31825 0.69392 0.0
H907 H 0.06683 0.3149 0.73276 0.0
H908 H 0.0327 0.25306 0.71082 0.0
H909 H 0.1331 0.27911 0.61978 0.0
H910 H 0.16405 0.25456 0.61396 0.0
H911 H 0.18166 0.29639 0.63701 0.0
H912 H 0.19608 0.2625 0.6844 0.0
H913 H 0.17846 0.22051 0.66151 0.0
H914 H 0.15744 0.22206 0.69961 0.0
H915 H 0.00919 0.19143 0.68313 0.0
H916 H 0.99742 0.13834 0.64759 0.0
H917 H 0.1193 0.18561 0.61969 0.0
C918 C 0.1451 0.30509 0.69789 0.0
C919 C 0.12495 0.32243 0.71583 0.0
C920 C 0.08402 0.30274 0.72038 0.0
C921 C 0.06396 0.26735 0.70759 0.0
C922 C 0.08469 0.25183 0.68956 0.0
C923 C 0.12426 0.27029 0.68432 0.0
C924 C 0.13895 0.249 0.66149 0.0
C925 C 0.1554 0.27108 0.63127 0.0
C926 C 0.16955 0.23786 0.67773 0.0
C927 C 0.10133 0.21582 0.65448 0.0
C928 C 0.07057 0.21762 0.67154 0.0
C929 C 0.03304 0.18985 0.66958 0.0
C930 C 0.02666 0.15972 0.64939 0.0
C931 C 0.05737 0.15789 0.63078 0.0
C932 C 0.09521 0.18637 0.63348 0.0
H933 H 0.74485 0.3644 0.5474 0.0
H934 H 0.72858 0.32224 0.45051 0.0
H935 H 0.6777 0.34583 0.44178 0.0
H936 H 0.64391 0.33786 0.56229 0.0
H937 H 0.65044 0.37732 0.58664 0.0
H938 H 0.68884 0.36083 0.58445 0.0
H939 H 0.73775 0.42492 0.56672 0.0
H940 H 0.69952 0.44168 0.56902 0.0
H941 H 0.72608 0.44589 0.53264 0.0
H942 H 0.62624 0.37117 0.44412 0.0
H943 H 0.57823 0.3972 0.45749 0.0
H944 H 0.62406 0.41768 0.55408 0.0
C945 C 0.73082 0.36025 0.52427 0.0
C946 C 0.74132 0.34183 0.49958 0.0
C947 C 0.72209 0.33716 0.46963 0.0
C948 C 0.69277 0.35015 0.46447 0.0
C949 C 0.68269 0.36748 0.48951 0.0
C950 C 0.70109 0.37257 0.51881 0.0
C951 C 0.68323 0.39027 0.54224 0.0
C952 C 0.66555 0.36505 0.57057 0.0
C953 C 0.71345 0.42793 0.55329 0.0
C954 C 0.65168 0.39398 0.52157 0.0
C955 C 0.65205 0.38094 0.49118 0.0
C956 C 0.62558 0.38142 0.46787 0.0
C957 C 0.59815 0.39592 0.47581 0.0
C958 C 0.59719 0.40942 0.50688 0.0
C959 C 0.62428 0.40811 0.52999 0.0
loop_
_geom_bond_atom_site_label_1
_geom_bond_atom_site_label_2
_geom_bond_distance
_geom_bond_site_symmetry_2
_ccdc_geom_bond_type
H0 C1 0.949 . S
C1 H0 0.949 . S
C1 C2 1.395 . S
C1 C3 1.391 . S
C2 C1 1.395 . S
C2 C5 1.390 . S
C3 C1 1.391 . S
C3 C7 1.387 . S
C3 C8 1.491 . S
H4 C5 0.950 . S
C5 C2 1.390 . S
C5 H4 0.950 . S
C5 C6 1.378 . S
C6 C5 1.378 . S
C6 C7 1.409 . S
C7 C3 1.387 . S
C7 C6 1.409 . S
C7 H9 0.951 . S
C8 C3 1.491 . S
C8 C10 1.382 . S
C8 C12 1.404 . S
H9 C7 0.951 . S
C10 C8 1.382 . S
C10 C11 1.390 . S
C10 H15 0.949 . S
C11 C10 1.390 . S
C11 C16 1.399 . S
C12 C8 1.404 . S
C12 H13 0.950 . S
C12 C14 1.375 . S
H13 C12 0.950 . S
C14 C12 1.375 . S
C14 C16 1.382 . S
C14 H18 0.950 . S
H15 C10 0.949 . S
C16 C11 1.399 . S
C16 C14 1.382 . S
C16 H17 0.952 . S
H17 C16 0.952 . S
H18 C14 0.950 . S
H19 C20 0.949 . S
C20 H19 0.949 . S
C20 C21 1.395 . S
C20 C22 1.391 . S
C21 C20 1.395 . S
C21 C24 1.390 . S
C22 C20 1.391 . S
C22 C26 1.387 . S
C22 C27 1.491 . S
H23 C24 0.950 . S
C24 C21 1.390 . S
C24 H23 0.950 . S
C24 C25 1.378 . S
C25 C24 1.378 . S
C25 C26 1.409 . S
C26 C22 1.387 . S
C26 C25 1.409 . S
C26 H28 0.951 . S
C27 C22 1.491 . S
C27 C29 1.382 . S
C27 C31 1.404 . S
H28 C26 0.951 . S
C29 C27 1.382 . S
C29 C30 1.390 . S
C29 H34 0.949 . S
C30 C29 1.390 . S
C30 C35 1.399 . S
C31 C27 1.404 . S
C31 H32 0.950 . S
C31 C33 1.375 . S
H32 C31 0.950 . S
C33 C31 1.375 . S
C33 C35 1.382 . S
C33 H37 0.950 . S
H34 C29 0.949 . S
C35 C30 1.399 . S
C35 C33 1.382 . S
C35 H36 0.952 . S
H36 C35 0.952 . S
H37 C33 0.950 . S
H38 C39 0.949 . S
C39 H38 0.949 . S
C39 C40 1.395 . S
C39 C41 1.391 . S
C40 C39 1.395 . S
C40 C43 1.390 . S
C41 C39 1.391 . S
C41 C45 1.387 . S
C41 C46 1.491 . S
H42 C43 0.950 . S
C43 C40 1.390 . S
C43 H42 0.950 . S
C43 C44 1.378 . S
C44 C43 1.378 . S
C44 C45 1.409 . S
C45 C41 1.387 . S
C45 C44 1.409 . S
C45 H47 0.951 . S
C46 C41 1.491 . S
C46 C48 1.382 . S
C46 C50 1.404 . S
H47 C45 0.951 . S
C48 C46 1.382 . S
C48 C49 1.390 . S
C48 H53 0.949 . S
C49 C48 1.390 . S
C49 C54 1.399 . S
C50 C46 1.404 . S
C50 H51 0.950 . S
C50 C52 1.375 . S
H51 C50 0.950 . S
C52 C50 1.375 . S
C52 C54 1.382 . S
C52 H56 0.950 . S
H53 C48 0.949 . S
C54 C49 1.399 . S
C54 C52 1.382 . S
C54 H55 0.952 . S
H55 C54 0.952 . S
H56 C52 0.950 . S
H57 C58 0.949 . S
C58 H57 0.949 . S
C58 C59 1.395 . S
C58 C60 1.391 . S
C59 C58 1.395 . S
C59 C62 1.390 . S
C60 C58 1.391 . S
C60 C64 1.387 . S
C60 C65 1.491 . S
H61 C62 0.950 . S
C62 C59 1.390 . S
C62 H61 0.950 . S
C62 C63 1.378 . S
C63 C62 1.378 . S
C63 C64 1.409 . S
C64 C60 1.387 . S
C64 C63 1.409 . S
C64 H66 0.951 . S
C65 C60 1.491 . S
C65 C67 1.382 . S
C65 C69 1.404 . S
H66 C64 0.951 . S
C67 C65 1.382 . S
C67 C68 1.390 . S
C67 H72 0.949 . S
C68 C67 1.390 . S
C68 C73 1.399 . S
C69 C65 1.404 . S
C69 H70 0.950 . S
C69 C71 1.375 . S
H70 C69 0.950 . S
C71 C69 1.375 . S
C71 C73 1.382 . S
C71 H75 0.950 . S
H72 C67 0.949 . S
C73 C68 1.399 . S
C73 C71 1.382 . S
C73 H74 0.952 . S
H74 C73 0.952 . S
H75 C71 0.950 . S
H76 C77 0.949 . S
C77 H76 0.949 . S
C77 C78 1.395 . S
C77 C79 1.391 . S
C78 C77 1.395 . S
C78 C81 1.390 . S
C79 C77 1.391 . S
C79 C83 1.387 . S
C79 C84 1.491 . S
H80 C81 0.950 . S
C81 C78 1.390 . S
C81 H80 0.950 . S
C81 C82 1.378 . S
C82 C81 1.378 . S
C82 C83 1.409 . S
C83 C79 1.387 . S
C83 C82 1.409 . S
C83 H85 0.951 . S
C84 C79 1.491 . S
C84 C86 1.382 . S
C84 C88 1.404 . S
H85 C83 0.951 . S
C86 C84 1.382 . S
C86 C87 1.390 . S
C86 H91 0.949 . S
C87 C86 1.390 . S
C87 C92 1.399 . S
C88 C84 1.404 . S
C88 H89 0.950 . S
C88 C90 1.375 . S
H89 C88 0.950 . S
C90 C88 1.375 . S
C90 C92 1.382 . S
C90 H94 0.950 . S
H91 C86 0.949 . S
C92 C87 1.399 . S
C92 C90 1.382 . S
C92 H93 0.952 . S
H93 C92 0.952 . S
H94 C90 0.950 . S
H95 C96 0.949 . S
C96 H95 0.949 . S
C96 C97 1.395 . S
C96 C98 1.391 . S
C97 C96 1.395 . S
C97 C100 1.390 . S
C98 C96 1.391 . S
C98 C102 1.387 . S
C98 C103 1.491 . S
H99 C100 0.950 . S
C100 C97 1.390 . S
C100 H99 0.950 . S
C100 C101 1.378 . S
C101 C100 1.378 . S
C101 C102 1.409 . S
C102 C98 1.387 . S
C102 C101 1.409 . S
C102 H104 0.951 . S
C103 C98 1.491 . S
C103 C105 1.382 . S
C103 C107 1.404 . S
H104 C102 0.951 . S
C105 C103 1.382 . S
C105 C106 1.390 . S
C105 H110 0.949 . S
C106 C105 1.390 . S
C106 C111 1.399 . S
C107 C103 1.404 . S
C107 H108 0.950 . S
C107 C109 1.375 . S
H108 C107 0.950 . S
C109 C107 1.375 . S
C109 C111 1.382 . S
C109 H113 0.950 . S
H110 C105 0.949 . S
C111 C106 1.399 . S
C111 C109 1.382 . S
C111 H112 0.952 . S
H112 C111 0.952 . S
H113 C109 0.950 . S
H114 C115 0.949 . S
C115 H114 0.949 . S
C115 C116 1.395 . S
C115 C117 1.391 . S
C116 C115 1.395 . S
C116 C119 1.390 . S
C117 C115 1.391 . S
C117 C121 1.387 . S
C117 C122 1.491 . S
H118 C119 0.950 . S
C119 C116 1.390 . S
C119 H118 0.950 . S
C119 C120 1.378 . S
C120 C119 1.378 . S
C120 C121 1.409 . S
C121 C117 1.387 . S
C121 C120 1.409 . S
C121 H123 0.951 . S
C122 C117 1.491 . S
C122 C124 1.382 . S
C122 C126 1.404 . S
H123 C121 0.951 . S
C124 C122 1.382 . S
C124 C125 1.390 . S
C124 H129 0.949 . S
C125 C124 1.390 . S
C125 C130 1.399 . S
C126 C122 1.404 . S
C126 H127 0.950 . S
C126 C128 1.375 . S
H127 C126 0.950 . S
C128 C126 1.375 . S
C128 C130 1.382 . S
C128 H132 0.950 . S
H129 C124 0.949 . S
C130 C125 1.399 . S
C130 C128 1.382 . S
C130 H131 0.952 . S
H131 C130 0.952 . S
H132 C128 0.950 . S
H133 C134 0.949 . S
C134 H133 0.949 . S
C134 C135 1.395 . S
C134 C136 1.391 . S
C135 C134 1.395 . S
C135 C138 1.390 . S
C136 C134 1.391 . S
C136 C140 1.387 . S
C136 C141 1.491 . S
H137 C138 0.950 . S
C138 C135 1.390 . S
C138 H137 0.950 . S
C138 C139 1.378 . S
C139 C138 1.378 . S
C139 C140 1.409 . S
C140 C136 1.387 . S
C140 C139 1.409 . S
C140 H142 0.951 . S
C141 C136 1.491 . S
C141 C143 1.382 . S
C141 C145 1.404 . S
H142 C140 0.951 . S
C143 C141 1.382 . S
C143 C144 1.390 . S
C143 H148 0.949 . S
C144 C143 1.390 . S
C144 C149 1.399 . S
C145 C141 1.404 . S
C145 H146 0.950 . S
C145 C147 1.375 . S
H146 C145 0.950 . S
C147 C145 1.375 . S
C147 C149 1.382 . S
C147 H151 0.950 . S
H148 C143 0.949 . S
C149 C144 1.399 . S
C149 C147 1.382 . S
C149 H150 0.952 . S
H150 C149 0.952 . S
H151 C147 0.950 . S
Dy152 O155 2.307 . S
Dy152 O157 2.395 . S
Dy152 O158 2.379 . S
Dy152 O160 2.339 1_545 S
Dy152 O162 2.298 . S
Dy152 O166 2.275 . S
Dy152 C174 2.738 . S
Dy153 O156 2.298 1_655 S
Dy153 O159 2.275 1_545 S
Dy153 O161 2.307 . S
Dy153 O163 2.395 1_545 S
Dy153 O164 2.379 . S
Dy153 O167 2.339 1_655 S
Dy153 C183 2.738 1_545 S
C154 O166 1.254 . S
C154 O167 1.257 . S
O155 Dy152 2.307 . S
O155 C165 1.266 1_545 S
O156 Dy153 2.298 1_455 S
O156 C165 1.236 1_545 S
O157 Dy152 2.395 . S
O157 C174 1.255 . S
O158 Dy152 2.379 . S
O158 C174 1.249 . S
O159 Dy153 2.275 1_565 S
O159 C175 1.254 . S
O160 Dy152 2.339 1_565 S
O160 C175 1.257 1_455 S
O161 Dy153 2.307 . S
O161 C176 1.266 . S
O162 Dy152 2.298 . S
O162 C176 1.236 1_455 S
O163 Dy153 2.395 1_565 S
O163 C183 1.255 . S
O164 Dy153 2.379 . S
O164 C183 1.249 1_545 S
C165 O155 1.266 1_565 S
C165 O156 1.236 1_565 S
O166 Dy152 2.275 . S
O166 C154 1.254 . S
O167 Dy153 2.339 1_455 S
O167 C154 1.257 . S
C168 C171 1.344 . S
C168 C172 1.328 . S
C168 C174 1.516 . S
C169 C170 1.304 . S
C169 C173 1.323 . S
C170 C169 1.304 . S
C170 C171 1.371 . S
C170 H184 0.930 . S
C171 C168 1.344 . S
C171 C170 1.371 . S
C171 H185 0.931 . S
C172 C168 1.328 . S
C172 C173 1.433 . S
C172 H186 0.931 . S
C173 C169 1.323 . S
C173 C172 1.433 . S
C173 H187 0.933 . S
C174 Dy152 2.738 . S
C174 O157 1.255 . S
C174 O158 1.249 . S
C174 C168 1.516 . S
C175 O159 1.254 . S
C175 O160 1.257 1_655 S
C176 O161 1.266 . S
C176 O162 1.236 1_655 S
C177 C180 1.344 . S
C177 C181 1.328 . S
C177 C183 1.516 . S
C178 C179 1.304 . S
C178 C182 1.323 . S
C179 C178 1.304 . S
C179 C180 1.371 . S
C179 H188 0.930 . S
C180 C177 1.344 . S
C180 C179 1.371 . S
C180 H189 0.931 . S
C181 C177 1.328 . S
C181 C182 1.433 . S
C181 H190 0.931 . S
C182 C178 1.323 . S
C182 C181 1.433 . S
C182 H191 0.933 . S
C183 Dy153 2.738 1_565 S
C183 O163 1.255 . S
C183 O164 1.249 1_565 S
C183 C177 1.516 . S
H184 C170 0.930 . S
H185 C171 0.931 . S
H186 C172 0.931 . S
H187 C173 0.933 . S
H188 C179 0.930 . S
H189 C180 0.931 . S
H190 C181 0.931 . S
H191 C182 0.933 . S
Dy192 O195 2.307 . S
Dy192 O197 2.395 1_545 S
Dy192 O198 2.379 1_554 S
Dy192 O200 2.339 . S
Dy192 O202 2.284 1_545 S
Dy192 O206 2.275 1_545 S
Dy192 C214 2.765 1_545 S
Dy193 O196 2.298 . S
Dy193 O199 2.275 . S
Dy193 O201 2.307 . S
Dy193 O203 2.395 . S
Dy193 O204 2.379 . S
Dy193 O207 2.339 1_545 S
Dy193 C223 2.738 . S
C194 O206 1.254 . S
C194 O207 1.257 . S
O195 Dy192 2.307 . S
O195 C205 1.266 . S
O196 Dy193 2.298 . S
O196 C205 1.236 . S
O197 Dy192 2.395 1_565 S
O197 C214 1.292 . S
O198 Dy192 2.379 1_556 S
O198 C214 1.241 1_546 S
O199 Dy193 2.275 . S
O199 C215 1.254 . S
O200 Dy192 2.339 . S
O200 C215 1.257 . S
O201 Dy193 2.307 . S
O201 C216 1.266 1_545 S
O202 Dy192 2.284 1_565 S
O202 C216 1.249 . S
O203 Dy193 2.395 . S
O203 C223 1.255 . S
O204 Dy193 2.379 . S
O204 C223 1.249 . S
C205 O195 1.266 . S
C205 O196 1.236 . S
O206 Dy192 2.275 1_565 S
O206 C194 1.254 . S
O207 Dy193 2.339 1_565 S
O207 C194 1.257 . S
C208 C211 1.344 . S
C208 C212 1.328 . S
C208 C214 1.489 1_556 S
C209 C210 1.304 . S
C209 C213 1.323 . S
C210 C209 1.304 . S
C210 C211 1.371 . S
C210 H224 0.930 . S
C211 C208 1.344 . S
C211 C210 1.371 . S
C211 H225 0.931 . S
C212 C208 1.328 . S
C212 C213 1.433 . S
C212 H226 0.931 . S
C213 C209 1.323 . S
C213 C212 1.433 . S
C213 H227 0.933 . S
C214 Dy192 2.765 1_565 S
C214 O197 1.292 . S
C214 O198 1.241 1_564 S
C214 C208 1.489 1_554 S
C215 O199 1.254 . S
C215 O200 1.257 . S
C216 O201 1.266 1_565 S
C216 O202 1.249 . S
C217 C220 1.344 . S
C217 C221 1.328 . S
C217 C223 1.516 . S
C218 C219 1.304 . S
C218 C222 1.323 . S
C219 C218 1.304 . S
C219 C220 1.371 . S
C219 H228 0.930 . S
C220 C217 1.344 . S
C220 C219 1.371 . S
C220 H229 0.931 . S
C221 C217 1.328 . S
C221 C222 1.433 . S
C221 H230 0.931 . S
C222 C218 1.323 . S
C222 C221 1.433 . S
C222 H231 0.933 . S
C223 Dy193 2.738 . S
C223 O203 1.255 . S
C223 O204 1.249 . S
C223 C217 1.516 . S
H224 C210 0.930 . S
H225 C211 0.931 . S
H226 C212 0.931 . S
H227 C213 0.933 . S
H228 C219 0.930 . S
H229 C220 0.931 . S
H230 C221 0.931 . S
H231 C222 0.933 . S
Dy232 O235 2.307 . S
Dy232 O237 2.395 . S
Dy232 O238 2.379 . S
Dy232 O240 2.339 . S
Dy232 O242 2.298 . S
Dy232 O246 2.275 . S
Dy232 C254 2.738 . S
Dy233 O236 2.298 . S
Dy233 O239 2.275 . S
Dy233 O241 2.307 . S
Dy233 O243 2.395 . S
Dy233 O244 2.379 . S
Dy233 O247 2.339 . S
Dy233 C263 2.738 . S
C234 O246 1.254 . S
C234 O247 1.257 . S
O235 Dy232 2.307 . S
O235 C245 1.266 . S
O236 Dy233 2.298 . S
O236 C245 1.236 . S
O237 Dy232 2.395 . S
O237 C254 1.255 . S
O238 Dy232 2.379 . S
O238 C254 1.249 . S
O239 Dy233 2.275 . S
O239 C255 1.254 . S
O240 Dy232 2.339 . S
O240 C255 1.257 . S
O241 Dy233 2.307 . S
O241 C256 1.266 . S
O242 Dy232 2.298 . S
O242 C256 1.236 . S
O243 Dy233 2.395 . S
O243 C263 1.255 . S
O244 Dy233 2.379 . S
O244 C263 1.249 . S
C245 O235 1.266 . S
C245 O236 1.236 . S
O246 Dy232 2.275 . S
O246 C234 1.254 . S
O247 Dy233 2.339 . S
O247 C234 1.257 . S
C248 C251 1.344 . S
C248 C252 1.328 . S
C248 C254 1.516 . S
C249 C250 1.304 . S
C249 C253 1.323 . S
C250 C249 1.304 . S
C250 C251 1.371 . S
C250 H264 0.930 . S
C251 C248 1.344 . S
C251 C250 1.371 . S
C251 H265 0.931 . S
C252 C248 1.328 . S
C252 C253 1.433 . S
C252 H266 0.931 . S
C253 C249 1.323 . S
C253 C252 1.433 . S
C253 H267 0.933 . S
C254 Dy232 2.738 . S
C254 O237 1.255 . S
C254 O238 1.249 . S
C254 C248 1.516 . S
C255 O239 1.254 . S
C255 O240 1.257 . S
C256 O241 1.266 . S
C256 O242 1.236 . S
C257 C260 1.344 . S
C257 C261 1.328 . S
C257 C263 1.516 . S
C258 C259 1.304 . S
C258 C262 1.323 . S
C259 C258 1.304 . S
C259 C260 1.371 . S
C259 H268 0.930 . S
C260 C257 1.344 . S
C260 C259 1.371 . S
C260 H269 0.931 . S
C261 C257 1.328 . S
C261 C262 1.433 . S
C261 H270 0.931 . S
C262 C258 1.323 . S
C262 C261 1.433 . S
C262 H271 0.933 . S
C263 Dy233 2.738 . S
C263 O243 1.255 . S
C263 O244 1.249 . S
C263 C257 1.516 . S
H264 C250 0.930 . S
H265 C251 0.931 . S
H266 C252 0.931 . S
H267 C253 0.933 . S
H268 C259 0.930 . S
H269 C260 0.931 . S
H270 C261 0.931 . S
H271 C262 0.933 . S
Dy272 O275 2.307 1_556 S
Dy272 O277 2.393 . S
Dy272 O278 2.379 . S
Dy272 O280 2.339 . S
Dy272 O282 2.298 1_455 S
Dy272 O286 2.275 1_556 S
Dy272 C294 2.738 . S
Dy273 O276 2.298 . S
Dy273 O279 2.275 1_554 S
Dy273 O281 2.307 1_455 S
Dy273 O283 2.395 . S
Dy273 O284 2.379 . S
Dy273 O287 2.339 . S
Dy273 C303 2.738 . S
C274 O286 1.254 . S
C274 O287 1.257 . S
O275 Dy272 2.307 1_554 S
O275 C285 1.266 . S
O276 Dy273 2.298 . S
O276 C285 1.236 . S
O277 Dy272 2.393 . S
O277 C294 1.255 . S
O278 Dy272 2.379 . S
O278 C294 1.249 . S
O279 Dy273 2.275 1_556 S
O279 C295 1.254 . S
O280 Dy272 2.339 . S
O280 C295 1.257 . S
O281 Dy273 2.307 1_655 S
O281 C296 1.266 1_554 S
O282 Dy272 2.298 1_655 S
O282 C296 1.236 . S
O283 Dy273 2.395 . S
O283 C303 1.255 . S
O284 Dy273 2.379 . S
O284 C303 1.249 . S
C285 O275 1.266 . S
C285 O276 1.236 . S
O286 Dy272 2.275 1_554 S
O286 C274 1.254 . S
O287 Dy273 2.339 . S
O287 C274 1.257 . S
C288 C291 1.344 . S
C288 C292 1.328 . S
C288 C294 1.516 1_655 S
C289 C290 1.304 . S
C289 C293 1.323 . S
C290 C289 1.304 . S
C290 C291 1.371 . S
C290 H304 0.930 . S
C291 C288 1.344 . S
C291 C290 1.371 . S
C291 H305 0.931 . S
C292 C288 1.328 . S
C292 C293 1.433 . S
C292 H306 0.931 1_655 S
C293 C289 1.323 . S
C293 C292 1.433 . S
C293 H307 0.933 . S
C294 Dy272 2.738 . S
C294 O277 1.255 . S
C294 O278 1.249 . S
C294 C288 1.516 1_455 S
C295 O279 1.254 . S
C295 O280 1.257 . S
C296 O281 1.266 1_556 S
C296 O282 1.236 . S
C297 C300 1.344 . S
C297 C301 1.328 . S
C297 C303 1.516 . S
C298 C299 1.304 . S
C298 C302 1.323 . S
C299 C298 1.304 . S
C299 C300 1.371 . S
C299 H308 0.930 . S
C300 C297 1.344 . S
C300 C299 1.371 . S
C300 H309 0.931 . S
C301 C297 1.328 . S
C301 C302 1.433 . S
C301 H310 0.931 . S
C302 C298 1.323 . S
C302 C301 1.433 . S
C302 H311 0.933 . S
C303 Dy273 2.738 . S
C303 O283 1.255 . S
C303 O284 1.249 . S
C303 C297 1.516 . S
H304 C290 0.930 . S
H305 C291 0.931 . S
H306 C292 0.931 1_455 S
H307 C293 0.933 . S
H308 C299 0.930 . S
H309 C300 0.931 . S
H310 C301 0.931 . S
H311 C302 0.933 . S
H312 C324 0.930 . S
H313 C326 0.930 . S
H314 C327 0.930 . S
H315 C331 0.959 . S
H316 C331 0.959 . S
H317 C331 0.961 . S
H318 C332 0.960 . S
H319 C332 0.961 . S
H320 C332 0.959 . S
H321 C335 0.929 . S
H322 C336 0.931 . S
H323 C338 0.930 . S
C324 H312 0.930 . S
C324 C325 1.399 . S
C324 C329 1.399 . S
C325 C324 1.399 . S
C325 C326 1.376 . S
C326 H313 0.930 . S
C326 C325 1.376 . S
C326 C327 1.388 . S
C327 H314 0.930 . S
C327 C326 1.388 . S
C327 C328 1.390 . S
C328 C327 1.390 . S
C328 C329 1.394 . S
C328 C334 1.465 . S
C329 C324 1.399 . S
C329 C328 1.394 . S
C329 C330 1.516 . S
C330 C329 1.516 . S
C330 C331 1.502 . S
C330 C332 1.561 . S
C330 C333 1.526 . S
C331 H315 0.959 . S
C331 H316 0.959 . S
C331 H317 0.961 . S
C331 C330 1.502 . S
C332 H318 0.960 . S
C332 H319 0.961 . S
C332 H320 0.959 . S
C332 C330 1.561 . S
C333 C330 1.526 . S
C333 C334 1.396 . S
C333 C338 1.390 . S
C334 C328 1.465 . S
C334 C333 1.396 . S
C334 C335 1.399 . S
C335 H321 0.929 . S
C335 C334 1.399 . S
C335 C336 1.385 . S
C336 H322 0.931 . S
C336 C335 1.385 . S
C336 C337 1.389 . S
C337 C336 1.389 . S
C337 C338 1.387 . S
C338 H323 0.930 . S
C338 C333 1.390 . S
C338 C337 1.387 . S
H339 C351 0.930 . S
H340 C353 0.930 . S
H341 C354 0.930 . S
H342 C358 0.959 . S
H343 C358 0.959 . S
H344 C358 0.961 . S
H345 C359 0.960 . S
H346 C359 0.961 . S
H347 C359 0.959 . S
H348 C362 0.929 . S
H349 C363 0.931 . S
H350 C365 0.930 . S
C351 H339 0.930 . S
C351 C352 1.399 . S
C351 C356 1.399 . S
C352 C351 1.399 . S
C352 C353 1.376 . S
C353 H340 0.930 . S
C353 C352 1.376 . S
C353 C354 1.388 . S
C354 H341 0.930 . S
C354 C353 1.388 . S
C354 C355 1.390 . S
C355 C354 1.390 . S
C355 C356 1.394 . S
C355 C361 1.465 . S
C356 C351 1.399 . S
C356 C355 1.394 . S
C356 C357 1.516 . S
C357 C356 1.516 . S
C357 C358 1.502 . S
C357 C359 1.561 . S
C357 C360 1.526 . S
C358 H342 0.959 . S
C358 H343 0.959 . S
C358 H344 0.961 . S
C358 C357 1.502 . S
C359 H345 0.960 . S
C359 H346 0.961 . S
C359 H347 0.959 . S
C359 C357 1.561 . S
C360 C357 1.526 . S
C360 C361 1.396 . S
C360 C365 1.390 . S
C361 C355 1.465 . S
C361 C360 1.396 . S
C361 C362 1.399 . S
C362 H348 0.929 . S
C362 C361 1.399 . S
C362 C363 1.385 . S
C363 H349 0.931 . S
C363 C362 1.385 . S
C363 C364 1.389 . S
C364 C363 1.389 . S
C364 C365 1.387 . S
C365 H350 0.930 . S
C365 C360 1.390 . S
C365 C364 1.387 . S
H366 C378 0.930 . S
H367 C380 0.930 . S
H368 C381 0.930 . S
H369 C385 0.959 . S
H370 C385 0.959 . S
H371 C385 0.961 . S
H372 C386 0.960 . S
H373 C386 0.961 . S
H374 C386 0.959 . S
H375 C389 0.929 . S
H376 C390 0.931 . S
H377 C392 0.930 . S
C378 H366 0.930 . S
C378 C379 1.399 . S
C378 C383 1.399 . S
C379 C378 1.399 . S
C379 C380 1.376 . S
C380 H367 0.930 . S
C380 C379 1.376 . S
C380 C381 1.388 . S
C381 H368 0.930 . S
C381 C380 1.388 . S
C381 C382 1.390 . S
C382 C381 1.390 . S
C382 C383 1.394 . S
C382 C388 1.465 . S
C383 C378 1.399 . S
C383 C382 1.394 . S
C383 C384 1.516 . S
C384 C383 1.516 . S
C384 C385 1.502 . S
C384 C386 1.561 . S
C384 C387 1.526 . S
C385 H369 0.959 . S
C385 H370 0.959 . S
C385 H371 0.961 . S
C385 C384 1.502 . S
C386 H372 0.960 . S
C386 H373 0.961 . S
C386 H374 0.959 . S
C386 C384 1.561 . S
C387 C384 1.526 . S
C387 C388 1.396 . S
C387 C392 1.390 . S
C388 C382 1.465 . S
C388 C387 1.396 . S
C388 C389 1.399 . S
C389 H375 0.929 . S
C389 C388 1.399 . S
C389 C390 1.385 . S
C390 H376 0.931 . S
C390 C389 1.385 . S
C390 C391 1.389 . S
C391 C390 1.389 . S
C391 C392 1.387 . S
C392 H377 0.930 . S
C392 C387 1.390 . S
C392 C391 1.387 . S
H393 C405 0.930 . S
H394 C407 0.930 . S
H395 C408 0.930 . S
H396 C412 0.951 1_455 S
H397 C412 0.959 . S
H398 C412 0.961 . S
H399 C413 0.960 . S
H400 C413 0.961 . S
H401 C413 0.959 . S
H402 C416 0.929 . S
H403 C417 0.931 . S
H404 C419 0.930 . S
C405 H393 0.930 . S
C405 C406 1.399 . S
C405 C410 1.399 . S
C406 C405 1.399 . S
C406 C407 1.376 . S
C407 H394 0.930 . S
C407 C406 1.376 . S
C407 C408 1.388 . S
C408 H395 0.930 . S
C408 C407 1.388 . S
C408 C409 1.390 . S
C409 C408 1.390 . S
C409 C410 1.394 . S
C409 C415 1.465 . S
C410 C405 1.399 . S
C410 C409 1.394 . S
C410 C411 1.516 . S
C411 C410 1.516 . S
C411 C412 1.502 . S
C411 C413 1.561 . S
C411 C414 1.526 . S
C412 H396 0.951 1_655 S
C412 H397 0.959 . S
C412 H398 0.961 . S
C412 C411 1.502 . S
C413 H399 0.960 . S
C413 H400 0.961 . S
C413 H401 0.959 . S
C413 C411 1.561 . S
C414 C411 1.526 . S
C414 C415 1.396 . S
C414 C419 1.390 . S
C415 C409 1.465 . S
C415 C414 1.396 . S
C415 C416 1.399 . S
C416 H402 0.929 . S
C416 C415 1.399 . S
C416 C417 1.385 . S
C417 H403 0.931 . S
C417 C416 1.385 . S
C417 C418 1.389 . S
C418 C417 1.389 . S
C418 C419 1.387 . S
C419 H404 0.930 . S
C419 C414 1.390 . S
C419 C418 1.387 . S
H420 C432 0.930 . S
H421 C434 0.930 . S
H422 C435 0.930 . S
H423 C439 0.959 . S
H424 C439 0.959 . S
H425 C439 0.961 . S
H426 C440 0.960 . S
H427 C440 0.961 . S
H428 C440 0.959 . S
H429 C443 0.929 . S
H430 C444 0.931 . S
H431 C446 0.930 . S
C432 H420 0.930 . S
C432 C433 1.399 . S
C432 C437 1.399 . S
C433 C432 1.399 . S
C433 C434 1.376 . S
C434 H421 0.930 . S
C434 C433 1.376 . S
C434 C435 1.388 . S
C435 H422 0.930 . S
C435 C434 1.388 . S
C435 C436 1.390 . S
C436 C435 1.390 . S
C436 C437 1.394 . S
C436 C442 1.465 . S
C437 C432 1.399 . S
C437 C436 1.394 . S
C437 C438 1.516 . S
C438 C437 1.516 . S
C438 C439 1.502 . S
C438 C440 1.561 . S
C438 C441 1.526 . S
C439 H423 0.959 . S
C439 H424 0.959 . S
C439 H425 0.961 . S
C439 C438 1.502 . S
C440 H426 0.960 . S
C440 H427 0.961 . S
C440 H428 0.959 . S
C440 C438 1.561 . S
C441 C438 1.526 . S
C441 C442 1.396 . S
C441 C446 1.390 . S
C442 C436 1.465 . S
C442 C441 1.396 . S
C442 C443 1.399 . S
C443 H429 0.929 . S
C443 C442 1.399 . S
C443 C444 1.385 . S
C444 H430 0.931 . S
C444 C443 1.385 . S
C444 C445 1.389 . S
C445 C444 1.389 . S
C445 C446 1.387 . S
C446 H431 0.930 . S
C446 C441 1.390 . S
C446 C445 1.387 . S
H447 C459 0.930 1_655 S
H448 C461 0.930 . S
H449 C462 0.930 . S
H450 C466 0.959 . S
H451 C466 0.959 . S
H452 C466 0.961 . S
H453 C467 0.960 . S
H454 C467 0.961 . S
H455 C467 0.959 1_455 S
H456 C470 0.929 . S
H457 C471 0.931 . S
H458 C473 0.930 1_655 S
C459 H447 0.930 1_455 S
C459 C460 1.399 . S
C459 C464 1.399 . S
C460 C459 1.399 . S
C460 C461 1.376 . S
C461 H448 0.930 . S
C461 C460 1.376 . S
C461 C462 1.388 . S
C462 H449 0.930 . S
C462 C461 1.388 . S
C462 C463 1.390 . S
C463 C462 1.390 . S
C463 C464 1.394 . S
C463 C469 1.465 . S
C464 C459 1.399 . S
C464 C463 1.394 . S
C464 C465 1.516 . S
C465 C464 1.516 . S
C465 C466 1.502 1_455 S
C465 C467 1.561 1_455 S
C465 C468 1.526 . S
C466 H450 0.959 . S
C466 H451 0.959 . S
C466 H452 0.961 . S
C466 C465 1.502 1_655 S
C467 H453 0.960 . S
C467 H454 0.961 . S
C467 H455 0.959 1_655 S
C467 C465 1.561 1_655 S
C468 C465 1.526 . S
C468 C469 1.396 . S
C468 C473 1.390 . S
C469 C463 1.465 . S
C469 C468 1.396 . S
C469 C470 1.399 . S
C470 H456 0.929 . S
C470 C469 1.399 . S
C470 C471 1.385 . S
C471 H457 0.931 . S
C471 C470 1.385 . S
C471 C472 1.389 . S
C472 C471 1.389 . S
C472 C473 1.387 . S
C473 H458 0.930 1_455 S
C473 C468 1.390 . S
C473 C472 1.387 . S
H474 C486 0.930 . S
H475 C488 0.930 . S
H476 C489 0.930 . S
H477 C493 0.959 . S
H478 C493 0.959 1_554 S
H479 C493 0.961 . S
H480 C494 0.960 . S
H481 C494 0.961 . S
H482 C494 0.959 . S
H483 C497 0.929 . S
H484 C498 0.931 . S
H485 C500 0.930 1_554 S
C486 H474 0.930 . S
C486 C487 1.399 . S
C486 C491 1.399 . S
C487 C486 1.399 . S
C487 C488 1.376 . S
C488 H475 0.930 . S
C488 C487 1.376 . S
C488 C489 1.388 . S
C489 H476 0.930 . S
C489 C488 1.388 . S
C489 C490 1.390 . S
C490 C489 1.390 . S
C490 C491 1.394 . S
C490 C496 1.465 . S
C491 C486 1.399 . S
C491 C490 1.394 . S
C491 C492 1.516 . S
C492 C491 1.516 . S
C492 C493 1.502 . S
C492 C494 1.561 1_556 S
C492 C495 1.526 . S
C493 H477 0.959 . S
C493 H478 0.959 1_556 S
C493 H479 0.961 . S
C493 C492 1.502 . S
C494 H480 0.960 . S
C494 H481 0.961 . S
C494 H482 0.959 . S
C494 C492 1.561 1_554 S
C495 C492 1.526 . S
C495 C496 1.396 . S
C495 C500 1.390 . S
C496 C490 1.465 . S
C496 C495 1.396 . S
C496 C497 1.399 . S
C497 H483 0.929 . S
C497 C496 1.399 . S
C497 C498 1.385 . S
C498 H484 0.931 . S
C498 C497 1.385 . S
C498 C499 1.389 . S
C499 C498 1.389 . S
C499 C500 1.387 . S
C500 H485 0.930 1_556 S
C500 C495 1.390 . S
C500 C499 1.387 . S
H501 C513 0.930 . S
H502 C515 0.930 . S
H503 C516 0.930 . S
H504 C520 0.959 . S
H505 C520 0.959 . S
H506 C520 0.961 . S
H507 C521 0.960 . S
H508 C521 0.961 . S
H509 C521 0.959 . S
H510 C524 0.929 . S
H511 C525 0.931 . S
H512 C527 0.930 . S
C513 H501 0.930 . S
C513 C514 1.399 . S
C513 C518 1.399 . S
C514 C513 1.399 . S
C514 C515 1.376 . S
C515 H502 0.930 . S
C515 C514 1.376 . S
C515 C516 1.388 . S
C516 H503 0.930 . S
C516 C515 1.388 . S
C516 C517 1.390 . S
C517 C516 1.390 . S
C517 C518 1.394 . S
C517 C523 1.465 . S
C518 C513 1.399 . S
C518 C517 1.394 . S
C518 C519 1.516 . S
C519 C518 1.516 . S
C519 C520 1.502 . S
C519 C521 1.561 . S
C519 C522 1.526 . S
C520 H504 0.959 . S
C520 H505 0.959 . S
C520 H506 0.961 . S
C520 C519 1.502 . S
C521 H507 0.960 . S
C521 H508 0.961 . S
C521 H509 0.959 . S
C521 C519 1.561 . S
C522 C519 1.526 . S
C522 C523 1.396 . S
C522 C527 1.390 . S
C523 C517 1.465 . S
C523 C522 1.396 . S
C523 C524 1.399 . S
C524 H510 0.929 . S
C524 C523 1.399 . S
C524 C525 1.385 . S
C525 H511 0.931 . S
C525 C524 1.385 . S
C525 C526 1.389 . S
C526 C525 1.389 . S
C526 C527 1.387 . S
C527 H512 0.930 . S
C527 C522 1.390 . S
C527 C526 1.387 . S
H528 C540 0.930 . S
H529 C542 0.930 . S
H530 C543 0.930 . S
H531 C547 0.959 . S
H532 C547 0.959 . S
H533 C547 0.961 . S
H534 C548 0.960 . S
H535 C548 0.961 . S
H536 C548 0.959 . S
H537 C551 0.929 . S
H538 C552 0.931 . S
H539 C554 0.930 . S
C540 H528 0.930 . S
C540 C541 1.399 . S
C540 C545 1.399 . S
C541 C540 1.399 . S
C541 C542 1.376 . S
C542 H529 0.930 . S
C542 C541 1.376 . S
C542 C543 1.388 . S
C543 H530 0.930 . S
C543 C542 1.388 . S
C543 C544 1.390 . S
C544 C543 1.390 . S
C544 C545 1.394 . S
C544 C550 1.465 . S
C545 C540 1.399 . S
C545 C544 1.394 . S
C545 C546 1.516 . S
C546 C545 1.516 . S
C546 C547 1.502 . S
C546 C548 1.561 . S
C546 C549 1.526 . S
C547 H531 0.959 . S
C547 H532 0.959 . S
C547 H533 0.961 . S
C547 C546 1.502 . S
C548 H534 0.960 . S
C548 H535 0.961 . S
C548 H536 0.959 . S
C548 C546 1.561 . S
C549 C546 1.526 . S
C549 C550 1.396 . S
C549 C554 1.390 . S
C550 C544 1.465 . S
C550 C549 1.396 . S
C550 C551 1.399 . S
C551 H537 0.929 . S
C551 C550 1.399 . S
C551 C552 1.385 . S
C552 H538 0.931 . S
C552 C551 1.385 . S
C552 C553 1.389 . S
C553 C552 1.389 . S
C553 C554 1.387 . S
C554 H539 0.930 . S
C554 C549 1.390 . S
C554 C553 1.387 . S
H555 C567 0.930 . S
H556 C569 0.930 . S
H557 C570 0.930 . S
H558 C574 0.959 . S
H559 C574 0.959 . S
H560 C574 0.961 . S
H561 C575 0.960 . S
H562 C575 0.961 . S
H563 C575 0.959 . S
H564 C578 0.929 . S
H565 C579 0.931 . S
H566 C581 0.930 . S
C567 H555 0.930 . S
C567 C568 1.399 . S
C567 C572 1.399 . S
C568 C567 1.399 . S
C568 C569 1.376 . S
C569 H556 0.930 . S
C569 C568 1.376 . S
C569 C570 1.388 . S
C570 H557 0.930 . S
C570 C569 1.388 . S
C570 C571 1.390 . S
C571 C570 1.390 . S
C571 C572 1.394 . S
C571 C577 1.465 . S
C572 C567 1.399 . S
C572 C571 1.394 . S
C572 C573 1.516 1_556 S
C573 C572 1.516 1_554 S
C573 C574 1.502 . S
C573 C575 1.561 . S
C573 C576 1.526 . S
C574 H558 0.959 . S
C574 H559 0.959 . S
C574 H560 0.961 . S
C574 C573 1.502 . S
C575 H561 0.960 . S
C575 H562 0.961 . S
C575 H563 0.959 . S
C575 C573 1.561 . S
C576 C573 1.526 . S
C576 C577 1.396 1_554 S
C576 C581 1.390 . S
C577 C571 1.465 . S
C577 C576 1.396 1_556 S
C577 C578 1.399 . S
C578 H564 0.929 . S
C578 C577 1.399 . S
C578 C579 1.385 . S
C579 H565 0.931 . S
C579 C578 1.385 . S
C579 C580 1.389 1_556 S
C580 C579 1.389 1_554 S
C580 C581 1.387 . S
C581 H566 0.930 . S
C581 C576 1.390 . S
C581 C580 1.387 . S
H582 C594 0.930 . S
H583 C596 0.930 . S
H584 C597 0.930 . S
H585 C601 0.959 . S
H586 C601 0.959 . S
H587 C601 0.961 . S
H588 C602 0.960 . S
H589 C602 0.961 . S
H590 C602 0.959 . S
H591 C605 0.929 . S
H592 C606 0.931 . S
H593 C608 0.930 . S
C594 H582 0.930 . S
C594 C595 1.399 . S
C594 C599 1.399 . S
C595 C594 1.399 . S
C595 C596 1.376 . S
C596 H583 0.930 . S
C596 C595 1.376 . S
C596 C597 1.388 . S
C597 H584 0.930 . S
C597 C596 1.388 . S
C597 C598 1.390 . S
C598 C597 1.390 . S
C598 C599 1.394 . S
C598 C604 1.465 . S
C599 C594 1.399 . S
C599 C598 1.394 . S
C599 C600 1.516 . S
C600 C599 1.516 . S
C600 C601 1.502 . S
C600 C602 1.561 . S
C600 C603 1.526 . S
C601 H585 0.959 . S
C601 H586 0.959 . S
C601 H587 0.961 . S
C601 C600 1.502 . S
C602 H588 0.960 . S
C602 H589 0.961 . S
C602 H590 0.959 . S
C602 C600 1.561 . S
C603 C600 1.526 . S
C603 C604 1.396 . S
C603 C608 1.390 . S
C604 C598 1.465 . S
C604 C603 1.396 . S
C604 C605 1.399 . S
C605 H591 0.929 . S
C605 C604 1.399 . S
C605 C606 1.385 . S
C606 H592 0.931 . S
C606 C605 1.385 . S
C606 C607 1.389 . S
C607 C606 1.389 . S
C607 C608 1.387 . S
C608 H593 0.930 . S
C608 C603 1.390 . S
C608 C607 1.387 . S
H609 C621 0.930 . S
H610 C623 0.930 . S
H611 C624 0.930 . S
H612 C628 0.959 . S
H613 C628 0.959 . S
H614 C628 0.961 . S
H615 C629 0.960 . S
H616 C629 0.961 . S
H617 C629 0.959 . S
H618 C632 0.929 . S
H619 C633 0.931 . S
H620 C635 0.930 . S
C621 H609 0.930 . S
C621 C622 1.399 . S
C621 C626 1.399 . S
C622 C621 1.399 . S
C622 C623 1.376 . S
C623 H610 0.930 . S
C623 C622 1.376 . S
C623 C624 1.388 . S
C624 H611 0.930 . S
C624 C623 1.388 . S
C624 C625 1.390 . S
C625 C624 1.390 . S
C625 C626 1.394 . S
C625 C631 1.465 . S
C626 C621 1.399 . S
C626 C625 1.394 . S
C626 C627 1.516 . S
C627 C626 1.516 . S
C627 C628 1.502 . S
C627 C629 1.561 . S
C627 C630 1.526 . S
C628 H612 0.959 . S
C628 H613 0.959 . S
C628 H614 0.961 . S
C628 C627 1.502 . S
C629 H615 0.960 . S
C629 H616 0.961 . S
C629 H617 0.959 . S
C629 C627 1.561 . S
C630 C627 1.526 . S
C630 C631 1.396 . S
C630 C635 1.390 . S
C631 C625 1.465 . S
C631 C630 1.396 . S
C631 C632 1.399 . S
C632 H618 0.929 . S
C632 C631 1.399 . S
C632 C633 1.385 . S
C633 H619 0.931 . S
C633 C632 1.385 . S
C633 C634 1.389 . S
C634 C633 1.389 . S
C634 C635 1.387 . S
C635 H620 0.930 . S
C635 C630 1.390 . S
C635 C634 1.387 . S
H636 C648 0.930 . S
H637 C650 0.930 . S
H638 C651 0.930 . S
H639 C655 0.959 . S
H640 C655 0.959 . S
H641 C655 0.961 . S
H642 C656 0.960 . S
H643 C656 0.961 . S
H644 C656 0.959 . S
H645 C659 0.929 . S
H646 C660 0.931 . S
H647 C662 0.930 . S
C648 H636 0.930 . S
C648 C649 1.399 . S
C648 C653 1.399 . S
C649 C648 1.399 . S
C649 C650 1.376 . S
C650 H637 0.930 . S
C650 C649 1.376 . S
C650 C651 1.388 . S
C651 H638 0.930 . S
C651 C650 1.388 . S
C651 C652 1.390 . S
C652 C651 1.390 . S
C652 C653 1.394 . S
C652 C658 1.465 . S
C653 C648 1.399 . S
C653 C652 1.394 . S
C653 C654 1.516 . S
C654 C653 1.516 . S
C654 C655 1.502 . S
C654 C656 1.561 . S
C654 C657 1.526 . S
C655 H639 0.959 . S
C655 H640 0.959 . S
C655 H641 0.961 . S
C655 C654 1.502 . S
C656 H642 0.960 . S
C656 H643 0.961 . S
C656 H644 0.959 . S
C656 C654 1.561 . S
C657 C654 1.526 . S
C657 C658 1.396 . S
C657 C662 1.390 . S
C658 C652 1.465 . S
C658 C657 1.396 . S
C658 C659 1.399 . S
C659 H645 0.929 . S
C659 C658 1.399 . S
C659 C660 1.385 . S
C660 H646 0.931 . S
C660 C659 1.385 . S
C660 C661 1.389 . S
C661 C660 1.389 . S
C661 C662 1.387 . S
C662 H647 0.930 . S
C662 C657 1.390 . S
C662 C661 1.387 . S
H663 C675 0.930 . S
H664 C677 0.930 . S
H665 C678 0.930 . S
H666 C682 0.959 . S
H667 C682 0.959 . S
H668 C682 0.961 . S
H669 C683 0.960 . S
H670 C683 0.961 . S
H671 C683 0.959 . S
H672 C686 0.929 . S
H673 C687 0.931 . S
H674 C689 0.930 . S
C675 H663 0.930 . S
C675 C676 1.399 . S
C675 C680 1.399 . S
C676 C675 1.399 . S
C676 C677 1.376 . S
C677 H664 0.930 . S
C677 C676 1.376 . S
C677 C678 1.388 . S
C678 H665 0.930 . S
C678 C677 1.388 . S
C678 C679 1.390 . S
C679 C678 1.390 . S
C679 C680 1.394 . S
C679 C685 1.465 . S
C680 C675 1.399 . S
C680 C679 1.394 . S
C680 C681 1.516 . S
C681 C680 1.516 . S
C681 C682 1.502 . S
C681 C683 1.561 . S
C681 C684 1.526 . S
C682 H666 0.959 . S
C682 H667 0.959 . S
C682 H668 0.961 . S
C682 C681 1.502 . S
C683 H669 0.960 . S
C683 H670 0.961 . S
C683 H671 0.959 . S
C683 C681 1.561 . S
C684 C681 1.526 . S
C684 C685 1.396 . S
C684 C689 1.390 . S
C685 C679 1.465 . S
C685 C684 1.396 . S
C685 C686 1.399 . S
C686 H672 0.929 . S
C686 C685 1.399 . S
C686 C687 1.385 . S
C687 H673 0.931 . S
C687 C686 1.385 . S
C687 C688 1.389 . S
C688 C687 1.389 . S
C688 C689 1.387 . S
C689 H674 0.930 . S
C689 C684 1.390 . S
C689 C688 1.387 . S
H690 C702 0.930 . S
H691 C704 0.930 . S
H692 C705 0.930 . S
H693 C709 0.959 . S
H694 C709 0.959 . S
H695 C709 0.961 . S
H696 C710 0.960 . S
H697 C710 0.961 . S
H698 C710 0.959 . S
H699 C713 0.929 . S
H700 C714 0.931 . S
H701 C716 0.930 . S
C702 H690 0.930 . S
C702 C703 1.399 . S
C702 C707 1.399 . S
C703 C702 1.399 . S
C703 C704 1.376 . S
C704 H691 0.930 . S
C704 C703 1.376 . S
C704 C705 1.388 . S
C705 H692 0.930 . S
C705 C704 1.388 . S
C705 C706 1.390 . S
C706 C705 1.390 . S
C706 C707 1.394 . S
C706 C712 1.465 . S
C707 C702 1.399 . S
C707 C706 1.394 . S
C707 C708 1.516 . S
C708 C707 1.516 . S
C708 C709 1.502 . S
C708 C710 1.561 . S
C708 C711 1.526 . S
C709 H693 0.959 . S
C709 H694 0.959 . S
C709 H695 0.961 . S
C709 C708 1.502 . S
C710 H696 0.960 . S
C710 H697 0.961 . S
C710 H698 0.959 . S
C710 C708 1.561 . S
C711 C708 1.526 . S
C711 C712 1.396 . S
C711 C716 1.390 . S
C712 C706 1.465 . S
C712 C711 1.396 . S
C712 C713 1.399 . S
C713 H699 0.929 . S
C713 C712 1.399 . S
C713 C714 1.385 . S
C714 H700 0.931 . S
C714 C713 1.385 . S
C714 C715 1.389 . S
C715 C714 1.389 . S
C715 C716 1.387 . S
C716 H701 0.930 . S
C716 C711 1.390 . S
C716 C715 1.387 . S
H717 C729 0.930 . S
H718 C731 0.930 . S
H719 C732 0.930 . S
H720 C736 0.959 . S
H721 C736 0.959 . S
H722 C736 0.961 . S
H723 C737 0.960 . S
H724 C737 0.961 . S
H725 C737 0.959 . S
H726 C740 0.929 . S
H727 C741 0.931 . S
H728 C743 0.930 . S
C729 H717 0.930 . S
C729 C730 1.399 . S
C729 C734 1.399 . S
C730 C729 1.399 . S
C730 C731 1.376 . S
C731 H718 0.930 . S
C731 C730 1.376 . S
C731 C732 1.388 . S
C732 H719 0.930 . S
C732 C731 1.388 . S
C732 C733 1.390 . S
C733 C732 1.390 . S
C733 C734 1.394 . S
C733 C739 1.465 . S
C734 C729 1.399 . S
C734 C733 1.394 . S
C734 C735 1.516 . S
C735 C734 1.516 . S
C735 C736 1.502 . S
C735 C737 1.561 . S
C735 C738 1.526 . S
C736 H720 0.959 . S
C736 H721 0.959 . S
C736 H722 0.961 . S
C736 C735 1.502 . S
C737 H723 0.960 . S
C737 H724 0.961 . S
C737 H725 0.959 . S
C737 C735 1.561 . S
C738 C735 1.526 . S
C738 C739 1.396 . S
C738 C743 1.390 . S
C739 C733 1.465 . S
C739 C738 1.396 . S
C739 C740 1.399 . S
C740 H726 0.929 . S
C740 C739 1.399 . S
C740 C741 1.385 . S
C741 H727 0.931 . S
C741 C740 1.385 . S
C741 C742 1.389 . S
C742 C741 1.389 . S
C742 C743 1.387 . S
C743 H728 0.930 . S
C743 C738 1.390 . S
C743 C742 1.387 . S
H744 C756 0.930 . S
H745 C758 0.930 . S
H746 C759 0.930 . S
H747 C763 0.959 . S
H748 C763 0.959 . S
H749 C763 0.961 . S
H750 C764 0.960 . S
H751 C764 0.961 . S
H752 C764 0.959 . S
H753 C767 0.929 . S
H754 C768 0.931 . S
H755 C770 0.930 . S
C756 H744 0.930 . S
C756 C757 1.399 . S
C756 C761 1.399 . S
C757 C756 1.399 . S
C757 C758 1.376 . S
C758 H745 0.930 . S
C758 C757 1.376 . S
C758 C759 1.388 . S
C759 H746 0.930 . S
C759 C758 1.388 . S
C759 C760 1.390 . S
C760 C759 1.390 . S
C760 C761 1.394 . S
C760 C766 1.465 . S
C761 C756 1.399 . S
C761 C760 1.394 . S
C761 C762 1.516 . S
C762 C761 1.516 . S
C762 C763 1.502 1_556 S
C762 C764 1.561 . S
C762 C765 1.526 . S
C763 H747 0.959 . S
C763 H748 0.959 . S
C763 H749 0.961 . S
C763 C762 1.502 1_554 S
C764 H750 0.960 . S
C764 H751 0.961 . S
C764 H752 0.959 . S
C764 C762 1.561 . S
C765 C762 1.526 . S
C765 C766 1.396 . S
C765 C770 1.390 1_556 S
C766 C760 1.465 . S
C766 C765 1.396 . S
C766 C767 1.399 . S
C767 H753 0.929 . S
C767 C766 1.399 . S
C767 C768 1.385 1_556 S
C768 H754 0.931 . S
C768 C767 1.385 1_554 S
C768 C769 1.389 . S
C769 C768 1.389 . S
C769 C770 1.387 . S
C770 H755 0.930 . S
C770 C765 1.390 1_554 S
C770 C769 1.387 . S
H771 C783 0.930 . S
H772 C785 0.930 . S
H773 C786 0.930 . S
H774 C790 0.959 . S
H775 C790 0.959 . S
H776 C790 0.961 . S
H777 C791 0.960 . S
H778 C791 0.961 . S
H779 C791 0.959 . S
H780 C794 0.929 . S
H781 C795 0.931 . S
H782 C797 0.930 . S
C783 H771 0.930 . S
C783 C784 1.399 . S
C783 C788 1.399 . S
C784 C783 1.399 . S
C784 C785 1.376 . S
C785 H772 0.930 . S
C785 C784 1.376 . S
C785 C786 1.388 . S
C786 H773 0.930 . S
C786 C785 1.388 . S
C786 C787 1.390 . S
C787 C786 1.390 . S
C787 C788 1.394 . S
C787 C793 1.465 . S
C788 C783 1.399 . S
C788 C787 1.394 . S
C788 C789 1.516 . S
C789 C788 1.516 . S
C789 C790 1.502 . S
C789 C791 1.561 . S
C789 C792 1.526 . S
C790 H774 0.959 . S
C790 H775 0.959 . S
C790 H776 0.961 . S
C790 C789 1.502 . S
C791 H777 0.960 . S
C791 H778 0.961 . S
C791 H779 0.959 . S
C791 C789 1.561 . S
C792 C789 1.526 . S
C792 C793 1.396 . S
C792 C797 1.390 . S
C793 C787 1.465 . S
C793 C792 1.396 . S
C793 C794 1.399 . S
C794 H780 0.929 . S
C794 C793 1.399 . S
C794 C795 1.385 . S
C795 H781 0.931 . S
C795 C794 1.385 . S
C795 C796 1.389 . S
C796 C795 1.389 . S
C796 C797 1.387 . S
C797 H782 0.930 . S
C797 C792 1.390 . S
C797 C796 1.387 . S
H798 C810 0.930 . S
H799 C812 0.930 . S
H800 C813 0.930 . S
H801 C817 0.959 . S
H802 C817 0.959 . S
H803 C817 0.961 . S
H804 C818 0.960 . S
H805 C818 0.961 . S
H806 C818 0.959 . S
H807 C821 0.929 . S
H808 C822 0.931 . S
H809 C824 0.930 . S
C810 H798 0.930 . S
C810 C811 1.399 . S
C810 C815 1.399 . S
C811 C810 1.399 . S
C811 C812 1.376 . S
C812 H799 0.930 . S
C812 C811 1.376 . S
C812 C813 1.388 . S
C813 H800 0.930 . S
C813 C812 1.388 . S
C813 C814 1.390 . S
C814 C813 1.390 . S
C814 C815 1.394 . S
C814 C820 1.465 . S
C815 C810 1.399 . S
C815 C814 1.394 . S
C815 C816 1.516 . S
C816 C815 1.516 . S
C816 C817 1.502 . S
C816 C818 1.561 . S
C816 C819 1.526 . S
C817 H801 0.959 . S
C817 H802 0.959 . S
C817 H803 0.961 . S
C817 C816 1.502 . S
C818 H804 0.960 . S
C818 H805 0.961 . S
C818 H806 0.959 . S
C818 C816 1.561 . S
C819 C816 1.526 . S
C819 C820 1.396 . S
C819 C824 1.390 . S
C820 C814 1.465 . S
C820 C819 1.396 . S
C820 C821 1.399 . S
C821 H807 0.929 . S
C821 C820 1.399 . S
C821 C822 1.385 . S
C822 H808 0.931 . S
C822 C821 1.385 . S
C822 C823 1.389 . S
C823 C822 1.389 . S
C823 C824 1.387 . S
C824 H809 0.930 . S
C824 C819 1.390 . S
C824 C823 1.387 . S
H825 C837 0.930 . S
H826 C839 0.930 . S
H827 C840 0.930 . S
H828 C844 0.959 . S
H829 C844 0.959 . S
H830 C844 0.961 . S
H831 C845 0.960 . S
H832 C845 0.961 . S
H833 C845 0.959 . S
H834 C848 0.929 . S
H835 C849 0.931 . S
H836 C851 0.930 . S
C837 H825 0.930 . S
C837 C838 1.399 . S
C837 C842 1.399 . S
C838 C837 1.399 . S
C838 C839 1.376 . S
C839 H826 0.930 . S
C839 C838 1.376 . S
C839 C840 1.388 . S
C840 H827 0.930 . S
C840 C839 1.388 . S
C840 C841 1.390 . S
C841 C840 1.390 . S
C841 C842 1.394 . S
C841 C847 1.465 . S
C842 C837 1.399 . S
C842 C841 1.394 . S
C842 C843 1.516 . S
C843 C842 1.516 . S
C843 C844 1.502 . S
C843 C845 1.561 . S
C843 C846 1.526 . S
C844 H828 0.959 . S
C844 H829 0.959 . S
C844 H830 0.961 . S
C844 C843 1.502 . S
C845 H831 0.960 . S
C845 H832 0.961 . S
C845 H833 0.959 . S
C845 C843 1.561 . S
C846 C843 1.526 . S
C846 C847 1.396 . S
C846 C851 1.390 . S
C847 C841 1.465 . S
C847 C846 1.396 . S
C847 C848 1.399 . S
C848 H834 0.929 . S
C848 C847 1.399 . S
C848 C849 1.385 . S
C849 H835 0.931 . S
C849 C848 1.385 . S
C849 C850 1.389 . S
C850 C849 1.389 . S
C850 C851 1.387 . S
C851 H836 0.930 . S
C851 C846 1.390 . S
C851 C850 1.387 . S
H852 C864 0.930 . S
H853 C866 0.930 . S
H854 C867 0.930 . S
H855 C871 0.959 . S
H856 C871 0.959 . S
H857 C871 0.961 . S
H858 C872 0.960 . S
H859 C872 0.961 . S
H860 C872 0.959 . S
H861 C875 0.929 . S
H862 C876 0.931 . S
H863 C878 0.930 . S
C864 H852 0.930 . S
C864 C865 1.399 . S
C864 C869 1.399 . S
C865 C864 1.399 . S
C865 C866 1.376 . S
C866 H853 0.930 . S
C866 C865 1.376 . S
C866 C867 1.388 . S
C867 H854 0.930 . S
C867 C866 1.388 . S
C867 C868 1.390 . S
C868 C867 1.390 . S
C868 C869 1.394 . S
C868 C874 1.465 . S
C869 C864 1.399 . S
C869 C868 1.394 . S
C869 C870 1.516 . S
C870 C869 1.516 . S
C870 C871 1.502 . S
C870 C872 1.561 . S
C870 C873 1.526 . S
C871 H855 0.959 . S
C871 H856 0.959 . S
C871 H857 0.961 . S
C871 C870 1.502 . S
C872 H858 0.960 . S
C872 H859 0.961 . S
C872 H860 0.959 . S
C872 C870 1.561 . S
C873 C870 1.526 . S
C873 C874 1.396 . S
C873 C878 1.390 . S
C874 C868 1.465 . S
C874 C873 1.396 . S
C874 C875 1.399 . S
C875 H861 0.929 . S
C875 C874 1.399 . S
C875 C876 1.385 . S
C876 H862 0.931 . S
C876 C875 1.385 . S
C876 C877 1.389 . S
C877 C876 1.389 . S
C877 C878 1.387 . S
C878 H863 0.930 . S
C878 C873 1.390 . S
C878 C877 1.387 . S
H879 C891 0.930 . S
H880 C893 0.930 . S
H881 C894 0.930 . S
H882 C898 0.959 . S
H883 C898 0.959 . S
H884 C898 0.961 . S
H885 C899 0.960 . S
H886 C899 0.961 . S
H887 C899 0.959 . S
H888 C902 0.929 . S
H889 C903 0.931 . S
H890 C905 0.930 . S
C891 H879 0.930 . S
C891 C892 1.399 . S
C891 C896 1.399 . S
C892 C891 1.399 . S
C892 C893 1.376 . S
C893 H880 0.930 . S
C893 C892 1.376 . S
C893 C894 1.388 . S
C894 H881 0.930 . S
C894 C893 1.388 . S
C894 C895 1.390 . S
C895 C894 1.390 . S
C895 C896 1.394 . S
C895 C901 1.465 . S
C896 C891 1.399 . S
C896 C895 1.394 . S
C896 C897 1.516 . S
C897 C896 1.516 . S
C897 C898 1.502 . S
C897 C899 1.561 . S
C897 C900 1.526 . S
C898 H882 0.959 . S
C898 H883 0.959 . S
C898 H884 0.961 . S
C898 C897 1.502 . S
C899 H885 0.960 . S
C899 H886 0.961 . S
C899 H887 0.959 . S
C899 C897 1.561 . S
C900 C897 1.526 . S
C900 C901 1.396 . S
C900 C905 1.390 . S
C901 C895 1.465 . S
C901 C900 1.396 . S
C901 C902 1.399 . S
C902 H888 0.929 . S
C902 C901 1.399 . S
C902 C903 1.385 . S
C903 H889 0.931 . S
C903 C902 1.385 . S
C903 C904 1.389 . S
C904 C903 1.389 . S
C904 C905 1.387 . S
C905 H890 0.930 . S
C905 C900 1.390 . S
C905 C904 1.387 . S
H906 C918 0.930 . S
H907 C920 0.930 . S
H908 C921 0.930 . S
H909 C925 0.959 . S
H910 C925 0.959 . S
H911 C925 0.961 . S
H912 C926 0.960 . S
H913 C926 0.961 . S
H914 C926 0.959 . S
H915 C929 0.929 . S
H916 C930 0.931 . S
H917 C932 0.930 . S
C918 H906 0.930 . S
C918 C919 1.399 . S
C918 C923 1.399 . S
C919 C918 1.399 . S
C919 C920 1.376 . S
C920 H907 0.930 . S
C920 C919 1.376 . S
C920 C921 1.388 . S
C921 H908 0.930 . S
C921 C920 1.388 . S
C921 C922 1.390 . S
C922 C921 1.390 . S
C922 C923 1.394 . S
C922 C928 1.465 . S
C923 C918 1.399 . S
C923 C922 1.394 . S
C923 C924 1.516 . S
C924 C923 1.516 . S
C924 C925 1.502 . S
C924 C926 1.561 . S
C924 C927 1.526 . S
C925 H909 0.959 . S
C925 H910 0.959 . S
C925 H911 0.961 . S
C925 C924 1.502 . S
C926 H912 0.960 . S
C926 H913 0.961 . S
C926 H914 0.959 . S
C926 C924 1.561 . S
C927 C924 1.526 . S
C927 C928 1.396 . S
C927 C932 1.390 . S
C928 C922 1.465 . S
C928 C927 1.396 . S
C928 C929 1.399 . S
C929 H915 0.929 . S
C929 C928 1.399 . S
C929 C930 1.385 . S
C930 H916 0.931 . S
C930 C929 1.385 . S
C930 C931 1.389 . S
C931 C930 1.389 . S
C931 C932 1.387 . S
C932 H917 0.930 . S
C932 C927 1.390 . S
C932 C931 1.387 . S
H933 C945 0.930 . S
H934 C947 0.930 . S
H935 C948 0.930 . S
H936 C952 0.959 . S
H937 C952 0.959 . S
H938 C952 0.961 . S
H939 C953 0.960 . S
H940 C953 0.961 . S
H941 C953 0.959 . S
H942 C956 0.929 . S
H943 C957 0.931 . S
H944 C959 0.930 . S
C945 H933 0.930 . S
C945 C946 1.399 . S
C945 C950 1.399 . S
C946 C945 1.399 . S
C946 C947 1.376 . S
C947 H934 0.930 . S
C947 C946 1.376 . S
C947 C948 1.388 . S
C948 H935 0.930 . S
C948 C947 1.388 . S
C948 C949 1.390 . S
C949 C948 1.390 . S
C949 C950 1.394 . S
C949 C955 1.465 . S
C950 C945 1.399 . S
C950 C949 1.394 . S
C950 C951 1.516 . S
C951 C950 1.516 . S
C951 C952 1.502 . S
C951 C953 1.561 . S
C951 C954 1.526 . S
C952 H936 0.959 . S
C952 H937 0.959 . S
C952 H938 0.961 . S
C952 C951 1.502 . S
C953 H939 0.960 . S
C953 H940 0.961 . S
C953 H941 0.959 . S
C953 C951 1.561 . S
C954 C951 1.526 . S
C954 C955 1.396 . S
C954 C959 1.390 . S
C955 C949 1.465 . S
C955 C954 1.396 . S
C955 C956 1.399 . S
C956 H942 0.929 . S
C956 C955 1.399 . S
C956 C957 1.385 . S
C957 H943 0.931 . S
C957 C956 1.385 . S
C957 C958 1.389 . S
C958 C957 1.389 . S
C958 C959 1.387 . S
C959 H944 0.930 . S
C959 C954 1.390 . S
C959 C958 1.387 . S
C325 C6 1.160 . S
C337 C169 1.217 . S
C352 C21 1.401 . S
C364 C209 1.491 . S
C391 C234 1.829 . S
C379 C49 1.813 . S
C406 C68 2.121 . S
C418 C274 2.233 1_655 S
C445 C205 2.498 . S
C433 C2 2.417 . S
C472 C165 1.462 . S
C460 C30 1.397 . S
C499 C296 1.578 . S
C487 C40 1.602 . S
C526 C256 1.477 . S
C514 C63 1.609 . S
C541 C11 1.101 . S
C553 C298 1.240 . S
C580 C215 2.409 . S
C568 C44 2.469 . S
C595 C59 1.701 . S
C607 C175 1.738 . S
C622 C25 1.846 . S
C634 C258 1.802 . S
C661 C178 1.413 . S
C649 C82 1.404 . S
C676 C101 1.119 . S
C688 C218 1.215 . S
C703 C125 2.187 . S
C715 C255 2.218 . S
C730 C144 1.831 . S
C742 C295 1.907 . S
C757 C87 1.384 . S
C769 C216 1.491 . S
C796 C176 2.456 . S
C784 C97 2.345 . S
C823 C285 1.490 . S
C811 C120 1.535 . S
C850 C245 1.618 . S
C838 C135 1.612 . S
C865 C78 1.885 . S
C877 C289 1.854 . S
C904 C194 1.702 . S
C892 C116 1.697 . S
C931 C154 2.386 . S
C919 C139 2.447 . S
C946 C106 1.078 . S
C958 C249 1.243 . S
