# Generated by pormake.
# Topology llk, (3,12)-cn, num edge types: 1
# Building blocks:
#     Node 0, Type 0, BuildingBlock: PAMTOO_clean_linker_0, # of connection points: 3
#     Node 1, Type 0, BuildingBlock: PAMTOO_clean_linker_0, # of connection points: 3
#     Node 2, Type 0, BuildingBlock: PAMTOO_clean_linker_0, # of connection points: 3
#     Node 3, Type 0, BuildingBlock: PAMTOO_clean_linker_0, # of connection points: 3
#     Node 4, Type 0, BuildingBlock: PAMTOO_clean_linker_0, # of connection points: 3
#     Node 5, Type 0, BuildingBlock: PAMTOO_clean_linker_0, # of connection points: 3
#     Node 6, Type 0, BuildingBlock: PAMTOO_clean_linker_0, # of connection points: 3
#     Node 7, Type 0, BuildingBlock: PAMTOO_clean_linker_0, # of connection points: 3
#     Node 8, Type 0, BuildingBlock: PAMTOO_clean_linker_0, # of connection points: 3
#     Node 9, Type 0, BuildingBlock: PAMTOO_clean_linker_0, # of connection points: 3
#     Node 10, Type 0, BuildingBlock: PAMTOO_clean_linker_0, # of connection points: 3
#     Node 11, Type 0, BuildingBlock: PAMTOO_clean_linker_0, # of connection points: 3
#     Node 12, Type 0, BuildingBlock: PAMTOO_clean_linker_0, # of connection points: 3
#     Node 13, Type 0, BuildingBlock: PAMTOO_clean_linker_0, # of connection points: 3
#     Node 14, Type 0, BuildingBlock: PAMTOO_clean_linker_0, # of connection points: 3
#     Node 15, Type 0, BuildingBlock: PAMTOO_clean_linker_0, # of connection points: 3
#     Node 16, Type 0, BuildingBlock: PAMTOO_clean_linker_0, # of connection points: 3
#     Node 17, Type 0, BuildingBlock: PAMTOO_clean_linker_0, # of connection points: 3
#     Node 18, Type 0, BuildingBlock: PAMTOO_clean_linker_0, # of connection points: 3
#     Node 19, Type 0, BuildingBlock: PAMTOO_clean_linker_0, # of connection points: 3
#     Node 20, Type 0, BuildingBlock: PAMTOO_clean_linker_0, # of connection points: 3
#     Node 21, Type 0, BuildingBlock: PAMTOO_clean_linker_0, # of connection points: 3
#     Node 22, Type 0, BuildingBlock: PAMTOO_clean_linker_0, # of connection points: 3
#     Node 23, Type 0, BuildingBlock: PAMTOO_clean_linker_0, # of connection points: 3
#     Node 24, Type 1, BuildingBlock: QEWDON_clean_sbu_0, # of connection points: 12
#     Node 25, Type 1, BuildingBlock: QEWDON_clean_sbu_0, # of connection points: 12
#     Node 26, Type 1, BuildingBlock: QEWDON_clean_sbu_0, # of connection points: 12
#     Node 27, Type 1, BuildingBlock: QEWDON_clean_sbu_0, # of connection points: 12
#     Node 28, Type 1, BuildingBlock: QEWDON_clean_sbu_0, # of connection points: 12
#     Node 29, Type 1, BuildingBlock: QEWDON_clean_sbu_0, # of connection points: 12
#     Edge 30, Type (0, 1), BuildingBlock: CIFDUS_clean_linker_0, # of connection points: 2
#     Edge 31, Type (0, 1), BuildingBlock: CIFDUS_clean_linker_0, # of connection points: 2
#     Edge 32, Type (0, 1), BuildingBlock: CIFDUS_clean_linker_0, # of connection points: 2
#     Edge 33, Type (0, 1), BuildingBlock: CIFDUS_clean_linker_0, # of connection points: 2
#     Edge 34, Type (0, 1), BuildingBlock: CIFDUS_clean_linker_0, # of connection points: 2
#     Edge 35, Type (0, 1), BuildingBlock: CIFDUS_clean_linker_0, # of connection points: 2
#     Edge 36, Type (0, 1), BuildingBlock: CIFDUS_clean_linker_0, # of connection points: 2
#     Edge 37, Type (0, 1), BuildingBlock: CIFDUS_clean_linker_0, # of connection points: 2
#     Edge 38, Type (0, 1), BuildingBlock: CIFDUS_clean_linker_0, # of connection points: 2
#     Edge 39, Type (0, 1), BuildingBlock: CIFDUS_clean_linker_0, # of connection points: 2
#     Edge 40, Type (0, 1), BuildingBlock: CIFDUS_clean_linker_0, # of connection points: 2
#     Edge 41, Type (0, 1), BuildingBlock: CIFDUS_clean_linker_0, # of connection points: 2
#     Edge 42, Type (0, 1), BuildingBlock: CIFDUS_clean_linker_0, # of connection points: 2
#     Edge 43, Type (0, 1), BuildingBlock: CIFDUS_clean_linker_0, # of connection points: 2
#     Edge 44, Type (0, 1), BuildingBlock: CIFDUS_clean_linker_0, # of connection points: 2
#     Edge 45, Type (0, 1), BuildingBlock: CIFDUS_clean_linker_0, # of connection points: 2
#     Edge 46, Type (0, 1), BuildingBlock: CIFDUS_clean_linker_0, # of connection points: 2
#     Edge 47, Type (0, 1), BuildingBlock: CIFDUS_clean_linker_0, # of connection points: 2
#     Edge 48, Type (0, 1), BuildingBlock: CIFDUS_clean_linker_0, # of connection points: 2
#     Edge 49, Type (0, 1), BuildingBlock: CIFDUS_clean_linker_0, # of connection points: 2
#     Edge 50, Type (0, 1), BuildingBlock: CIFDUS_clean_linker_0, # of connection points: 2
#     Edge 51, Type (0, 1), BuildingBlock: CIFDUS_clean_linker_0, # of connection points: 2
#     Edge 52, Type (0, 1), BuildingBlock: CIFDUS_clean_linker_0, # of connection points: 2
#     Edge 53, Type (0, 1), BuildingBlock: CIFDUS_clean_linker_0, # of connection points: 2
#     Edge 54, Type (0, 1), BuildingBlock: CIFDUS_clean_linker_0, # of connection points: 2
#     Edge 55, Type (0, 1), BuildingBlock: CIFDUS_clean_linker_0, # of connection points: 2
#     Edge 56, Type (0, 1), BuildingBlock: CIFDUS_clean_linker_0, # of connection points: 2
#     Edge 57, Type (0, 1), BuildingBlock: CIFDUS_clean_linker_0, # of connection points: 2
#     Edge 58, Type (0, 1), BuildingBlock: CIFDUS_clean_linker_0, # of connection points: 2
#     Edge 59, Type (0, 1), BuildingBlock: CIFDUS_clean_linker_0, # of connection points: 2
#     Edge 60, Type (0, 1), BuildingBlock: CIFDUS_clean_linker_0, # of connection points: 2
#     Edge 61, Type (0, 1), BuildingBlock: CIFDUS_clean_linker_0, # of connection points: 2
#     Edge 62, Type (0, 1), BuildingBlock: CIFDUS_clean_linker_0, # of connection points: 2
#     Edge 63, Type (0, 1), BuildingBlock: CIFDUS_clean_linker_0, # of connection points: 2
#     Edge 64, Type (0, 1), BuildingBlock: CIFDUS_clean_linker_0, # of connection points: 2
#     Edge 65, Type (0, 1), BuildingBlock: CIFDUS_clean_linker_0, # of connection points: 2
#     Edge 66, Type (0, 1), BuildingBlock: CIFDUS_clean_linker_0, # of connection points: 2
#     Edge 67, Type (0, 1), BuildingBlock: CIFDUS_clean_linker_0, # of connection points: 2
#     Edge 68, Type (0, 1), BuildingBlock: CIFDUS_clean_linker_0, # of connection points: 2
#     Edge 69, Type (0, 1), BuildingBlock: CIFDUS_clean_linker_0, # of connection points: 2
#     Edge 70, Type (0, 1), BuildingBlock: CIFDUS_clean_linker_0, # of connection points: 2
#     Edge 71, Type (0, 1), BuildingBlock: CIFDUS_clean_linker_0, # of connection points: 2
#     Edge 72, Type (0, 1), BuildingBlock: CIFDUS_clean_linker_0, # of connection points: 2
#     Edge 73, Type (0, 1), BuildingBlock: CIFDUS_clean_linker_0, # of connection points: 2
#     Edge 74, Type (0, 1), BuildingBlock: CIFDUS_clean_linker_0, # of connection points: 2
#     Edge 75, Type (0, 1), BuildingBlock: CIFDUS_clean_linker_0, # of connection points: 2
#     Edge 76, Type (0, 1), BuildingBlock: CIFDUS_clean_linker_0, # of connection points: 2
#     Edge 77, Type (0, 1), BuildingBlock: CIFDUS_clean_linker_0, # of connection points: 2
#     Edge 78, Type (0, 1), BuildingBlock: CIFDUS_clean_linker_0, # of connection points: 2
#     Edge 79, Type (0, 1), BuildingBlock: CIFDUS_clean_linker_0, # of connection points: 2
#     Edge 80, Type (0, 1), BuildingBlock: CIFDUS_clean_linker_0, # of connection points: 2
#     Edge 81, Type (0, 1), BuildingBlock: CIFDUS_clean_linker_0, # of connection points: 2
#     Edge 82, Type (0, 1), BuildingBlock: CIFDUS_clean_linker_0, # of connection points: 2
#     Edge 83, Type (0, 1), BuildingBlock: CIFDUS_clean_linker_0, # of connection points: 2
#     Edge 84, Type (0, 1), BuildingBlock: CIFDUS_clean_linker_0, # of connection points: 2
#     Edge 85, Type (0, 1), BuildingBlock: CIFDUS_clean_linker_0, # of connection points: 2
#     Edge 86, Type (0, 1), BuildingBlock: CIFDUS_clean_linker_0, # of connection points: 2
#     Edge 87, Type (0, 1), BuildingBlock: CIFDUS_clean_linker_0, # of connection points: 2
#     Edge 88, Type (0, 1), BuildingBlock: CIFDUS_clean_linker_0, # of connection points: 2
#     Edge 89, Type (0, 1), BuildingBlock: CIFDUS_clean_linker_0, # of connection points: 2
#     Edge 90, Type (0, 1), BuildingBlock: CIFDUS_clean_linker_0, # of connection points: 2
#     Edge 91, Type (0, 1), BuildingBlock: CIFDUS_clean_linker_0, # of connection points: 2
#     Edge 92, Type (0, 1), BuildingBlock: CIFDUS_clean_linker_0, # of connection points: 2
#     Edge 93, Type (0, 1), BuildingBlock: CIFDUS_clean_linker_0, # of connection points: 2
#     Edge 94, Type (0, 1), BuildingBlock: CIFDUS_clean_linker_0, # of connection points: 2
#     Edge 95, Type (0, 1), BuildingBlock: CIFDUS_clean_linker_0, # of connection points: 2
#     Edge 96, Type (0, 1), BuildingBlock: CIFDUS_clean_linker_0, # of connection points: 2
#     Edge 97, Type (0, 1), BuildingBlock: CIFDUS_clean_linker_0, # of connection points: 2
#     Edge 98, Type (0, 1), BuildingBlock: CIFDUS_clean_linker_0, # of connection points: 2
#     Edge 99, Type (0, 1), BuildingBlock: CIFDUS_clean_linker_0, # of connection points: 2
#     Edge 100, Type (0, 1), BuildingBlock: CIFDUS_clean_linker_0, # of connection points: 2
#     Edge 101, Type (0, 1), BuildingBlock: CIFDUS_clean_linker_0, # of connection points: 2
# Relax obj value: 0.093
# Max RMSD: 0.172
# Mean RMSD: 0.130
data_MOF--net-llk--node1-QEWDON_clean_sbu_0--node2-PAMTOO_clean_linker_0--edge1-CIFDUS_clean_linker_0
_symmetry_space_group_name_H-M    P1
_symmetry_Int_Tables_number       1
_symmetry_cell_setting            triclinic
loop_
_symmetry_equiv_pos_as_xyz
'x, y, z'
_cell_length_a     40.26005
_cell_length_b     43.229971
_cell_length_c     41.843018
_cell_angle_alpha  90.189599
_cell_angle_beta   89.900931
_cell_angle_gamma 89.697904
loop_
_atom_site_label
_atom_site_type_symbol
_atom_site_fract_x
_atom_site_fract_y
_atom_site_fract_z
_atom_type_partial_charge
H0 H 0.03665 0.35302 0.25955 0.0
H1 H 0.04661 0.27469 0.32215 0.0
H2 H 0.07195 0.26599 0.22267 0.0
H3 H 0.05584 0.19942 0.25243 0.0
C4 C 0.04763 0.213 0.27364 0.0
O5 O 0.06932 0.2373 0.2781 0.0
H6 H 0.02203 0.22148 0.26827 0.0
C7 C 0.04241 0.32877 0.26326 0.0
C8 C 0.05337 0.31093 0.23725 0.0
C9 C 0.03962 0.31614 0.29399 0.0
C10 C 0.0488 0.28511 0.29873 0.0
C11 C 0.06052 0.26713 0.2731 0.0
C12 C 0.06305 0.28008 0.24239 0.0
H13 H 0.73058 0.05188 0.31514 0.0
H14 H 0.70944 0.04259 0.21492 0.0
H15 H 0.81021 0.05432 0.24647 0.0
H16 H 0.79286 0.0713 0.16171 0.0
C17 C 0.76856 0.06791 0.17379 0.0
O18 O 0.77213 0.04552 0.19696 0.0
H19 H 0.76109 0.09064 0.18429 0.0
C20 C 0.73915 0.0512 0.29054 0.0
C21 C 0.77311 0.05344 0.28389 0.0
C22 C 0.7161 0.04795 0.26575 0.0
C23 C 0.72709 0.04611 0.23408 0.0
C24 C 0.76108 0.04889 0.22722 0.0
C25 C 0.78395 0.05306 0.25201 0.0
H26 H 0.04411 0.75821 0.35093 0.0
H27 H 0.04704 0.69825 0.26866 0.0
H28 H 0.03278 0.79564 0.25607 0.0
H29 H -3e-05 0.75605 0.19956 0.0
C30 C 0.01024 0.73478 0.21069 0.0
O31 O 0.03903 0.74216 0.227 0.0
H32 H 0.99113 0.72553 0.22737 0.0
C33 C 0.04327 0.75511 0.32525 0.0
C34 C 0.03844 0.78093 0.30532 0.0
C35 C 0.0459 0.72513 0.3124 0.0
C36 C 0.04483 0.72115 0.2791 0.0
C37 C 0.04017 0.74653 0.25899 0.0
C38 C 0.03697 0.77632 0.272 0.0
H39 H 0.3421 0.00417 0.2441 0.0
H40 H 0.24484 0.98574 0.28081 0.0
H41 H 0.26356 0.97496 0.18057 0.0
H42 H 0.17746 0.9808 0.2021 0.0
C43 C 0.19321 0.98921 0.22206 0.0
O44 O 0.21964 0.96906 0.2258 0.0
H45 H 0.20179 0.01276 0.21521 0.0
C46 C 0.3166 0.99771 0.23953 0.0
C47 C 0.30625 0.98971 0.20843 0.0
C48 C 0.29446 0.99712 0.26543 0.0
C49 C 0.26199 0.98674 0.26085 0.0
C50 C 0.25117 0.97869 0.2302 0.0
C51 C 0.27298 0.98051 0.2041 0.0
H52 H 0.00415 0.67971 0.75981 0.0
H53 H 0.00873 0.76741 0.71152 0.0
H54 H 0.00126 0.76468 0.81377 0.0
H55 H 0.97295 0.83205 0.77929 0.0
C56 C 0.98049 0.82001 0.7569 0.0
O57 O 0.00702 0.80064 0.76338 0.0
H58 H 0.95846 0.80679 0.74844 0.0
C59 C 0.00409 0.70478 0.76056 0.0
C60 C 0.0026 0.72001 0.79021 0.0
C61 C 0.00588 0.72159 0.73196 0.0
C62 C 0.00686 0.754 0.73328 0.0
C63 C 0.00495 0.76945 0.76264 0.0
C64 C 0.00238 0.75254 0.7911 0.0
H65 H 0.34983 0.9848 0.79929 0.0
H66 H 0.26853 0.00479 0.73691 0.0
H67 H 0.25022 0.99119 0.8371 0.0
H68 H 0.1764 0.98516 0.78132 0.0
C69 C 0.20157 0.97992 0.7718 0.0
O70 O 0.22291 1.0029 0.78168 0.0
H71 H 0.20926 0.95717 0.78192 0.0
C72 C 0.32326 0.98735 0.79592 0.0
C73 C 0.3016 0.98673 0.82227 0.0
C74 C 0.31151 0.99373 0.76528 0.0
C75 C 0.27768 0.9994 0.76057 0.0
C76 C 0.25558 0.99769 0.78638 0.0
C77 C 0.26746 0.99149 0.8172 0.0
H78 H 0.00923 0.27567 0.65735 0.0
H79 H 0.02133 0.32569 0.74588 0.0
H80 H 0.01817 0.22656 0.74611 0.0
H81 H -0.00221 0.25496 0.81747 0.0
C82 C 0.99636 0.27638 0.80292 0.0
O83 O 0.02275 0.27651 0.78178 0.0
H84 H 0.97208 0.27568 0.79014 0.0
C85 C 0.01167 0.27603 0.68315 0.0
C86 C 0.01294 0.24802 0.69979 0.0
C87 C 0.01476 0.30432 0.69945 0.0
C88 C 0.01806 0.30421 0.73289 0.0
C89 C 0.01873 0.27628 0.74971 0.0
C90 C 0.01659 0.24816 0.73312 0.0
H91 H 0.79913 0.05126 0.6989 0.0
H92 H 0.72148 0.05821 0.76937 0.0
H93 H 0.82393 0.05783 0.7986 0.0
H94 H 0.74268 0.10423 0.81566 0.0
C95 C 0.75171 0.08689 0.83333 0.0
O96 O 0.76155 0.05981 0.81836 0.0
H97 H 0.77335 0.09712 0.84592 0.0
C98 C 0.79127 0.05293 0.72367 0.0
C99 C 0.81532 0.05397 0.74774 0.0
C100 C 0.75741 0.05478 0.73104 0.0
C101 C 0.74761 0.05729 0.76316 0.0
C102 C 0.7715 0.05852 0.7875 0.0
C103 C 0.80549 0.05709 0.7798 0.0
H104 H 0.25559 0.35027 0.03785 0.0
H105 H 0.30941 0.2649 0.02778 0.0
H106 H 0.20351 0.26581 0.01611 0.0
H107 H 0.24196 0.18973 0.03094 0.0
C108 C 0.26005 0.20817 0.03686 0.0
O109 O 0.25714 0.2315 0.01457 0.0
H110 H 0.25375 0.2168 0.06128 0.0
C111 C 0.25532 0.32536 0.03472 0.0
C112 C 0.22546 0.31016 0.02742 0.0
C113 C 0.28549 0.30912 0.03523 0.0
C114 C 0.28601 0.27739 0.02863 0.0
C115 C 0.25633 0.26179 0.02241 0.0
C116 C 0.22613 0.27805 0.02196 0.0
H117 H 0.2359 0.70296 0.0288 0.0
H118 H 0.28324 0.79122 0.04116 0.0
H119 H 0.17677 0.78586 0.0359 0.0
H120 H 0.20541 0.8592 0.02219 0.0
C121 C 0.22811 0.8446 0.02038 0.0
O122 O 0.2274 0.82276 0.04443 0.0
H123 H 0.22789 0.83329 0.99639 0.0
C124 C 0.23422 0.72779 0.03236 0.0
C125 C 0.20296 0.74222 0.03241 0.0
C126 C 0.26338 0.74513 0.03515 0.0
C127 C 0.261 0.77742 0.03863 0.0
C128 C 0.22975 0.79198 0.03921 0.0
C129 C 0.2008 0.77444 0.03568 0.0
H130 H 0.82124 0.34174 0.99938 0.0
H131 H 0.75943 0.26077 0.99608 0.0
H132 H 0.86575 0.25155 0.99055 0.0
H133 H 0.82912 0.1902 0.96001 0.0
C134 C 0.80693 0.20541 0.96237 0.0
O135 O 0.80903 0.22157 0.99088 0.0
H136 H 0.80709 0.22145 0.94155 0.0
C137 C 0.81851 0.31689 0.99696 0.0
C138 C 0.84696 0.29831 0.99436 0.0
C139 C 0.78679 0.30374 0.99776 0.0
C140 C 0.78373 0.27142 0.99555 0.0
C141 C 0.81215 0.25266 0.9925 0.0
C142 C 0.84383 0.26611 0.99221 0.0
H143 H 0.78483 0.68001 0.98162 0.0
H144 H 0.73128 0.76395 0.96044 0.0
H145 H 0.838 0.76363 0.96088 0.0
H146 H 0.79988 0.83981 0.96661 0.0
C147 C 0.78491 0.82008 0.97541 0.0
O148 O 0.78465 0.79737 0.95216 0.0
H149 H 0.79735 0.81159 0.99752 0.0
C150 C 0.78471 0.70429 0.97515 0.0
C151 C 0.81497 0.71977 0.97127 0.0
C152 C 0.75436 0.72 0.97158 0.0
C153 C 0.75446 0.75138 0.96314 0.0
C154 C 0.78463 0.76698 0.95936 0.0
C155 C 0.81481 0.75127 0.96355 0.0
H156 H 0.54747 0.85728 0.76278 0.0
H157 H 0.54606 0.77274 0.81686 0.0
H158 H 0.57004 0.7701 0.71706 0.0
H159 H 0.54889 0.69807 0.74681 0.0
C160 C 0.53972 0.71543 0.76438 0.0
O161 O 0.56411 0.73737 0.76891 0.0
H162 H 0.51683 0.72614 0.75416 0.0
C163 C 0.55032 0.83235 0.76383 0.0
C164 C 0.55901 0.81566 0.73611 0.0
C165 C 0.54544 0.81709 0.79303 0.0
C166 C 0.54941 0.78484 0.79444 0.0
C167 C 0.55849 0.76812 0.76707 0.0
C168 C 0.56317 0.78344 0.73804 0.0
H169 H 0.28523 0.5463 0.82824 0.0
H170 H 0.24962 0.55852 0.73227 0.0
H171 H 0.35377 0.54326 0.74921 0.0
H172 H 0.33253 0.57464 0.67101 0.0
C173 C 0.30967 0.57623 0.68582 0.0
O174 O 0.30814 0.55063 0.70541 0.0
H175 H 0.3113 0.598 0.70007 0.0
C176 C 0.29021 0.54855 0.80286 0.0
C177 C 0.32272 0.54454 0.79137 0.0
C178 C 0.26387 0.55416 0.7818 0.0
C179 C 0.27001 0.5554 0.74886 0.0
C180 C 0.30257 0.55205 0.73721 0.0
C181 C 0.32894 0.5471 0.75849 0.0
H182 H 0.49288 0.26084 0.82216 0.0
H183 H 0.47829 0.20696 0.73735 0.0
H184 H 0.48004 0.30639 0.73141 0.0
H185 H 0.43782 0.26067 0.6666 0.0
C186 C 0.44795 0.2423 0.68237 0.0
O187 O 0.47522 0.25412 0.69846 0.0
H188 H 0.4279 0.23564 0.69935 0.0
C189 C 0.48858 0.25994 0.79658 0.0
C190 C 0.48733 0.28742 0.77884 0.0
C191 C 0.48518 0.23111 0.78184 0.0
C192 C 0.4799 0.22935 0.74893 0.0
C193 C 0.47737 0.25643 0.73072 0.0
C194 C 0.48066 0.28558 0.74574 0.0
H195 H 0.80964 0.49859 0.77941 0.0
H196 H 0.71441 0.48214 0.82208 0.0
H197 H 0.72034 0.50928 0.72354 0.0
H198 H 0.6411 0.52234 0.75691 0.0
C199 C 0.66003 0.52112 0.77616 0.0
O200 O 0.67994 0.49545 0.77073 0.0
H201 H 0.67458 0.54292 0.77455 0.0
C202 C 0.78279 0.49825 0.7773 0.0
C203 C 0.76766 0.50496 0.74792 0.0
C204 C 0.76367 0.49031 0.804 0.0
C205 C 0.72911 0.48886 0.80157 0.0
C206 C 0.71349 0.49623 0.77271 0.0
C207 C 0.73271 0.50396 0.74585 0.0
H208 H 0.5184 0.1938 0.26165 0.0
H209 H 0.52326 0.27594 0.20426 0.0
H210 H 0.49476 0.28259 0.3031 0.0
H211 H 0.46982 0.34588 0.24904 0.0
C212 C 0.48319 0.32976 0.23271 0.0
O213 O 0.50715 0.31404 0.2502 0.0
H214 H 0.46455 0.31348 0.22264 0.0
C215 C 0.51563 0.21867 0.25937 0.0
C216 C 0.50648 0.23634 0.28617 0.0
C217 C 0.52121 0.23258 0.22966 0.0
C218 C 0.51851 0.2648 0.22696 0.0
C219 C 0.50848 0.28283 0.25316 0.0
C220 C 0.50196 0.26855 0.28273 0.0
H221 H 0.81483 0.52227 0.28057 0.0
H222 H 0.74147 0.49406 0.21186 0.0
H223 H 0.71642 0.49807 0.31171 0.0
H224 H 0.67177 0.44691 0.26632 0.0
C225 C 0.68389 0.45781 0.24534 0.0
O226 O 0.69381 0.48738 0.2535 0.0
H227 H 0.70552 0.44302 0.23845 0.0
C228 C 0.78967 0.51525 0.27492 0.0
C229 C 0.76656 0.51164 0.29971 0.0
C230 C 0.78118 0.50833 0.24327 0.0
C231 C 0.74869 0.49886 0.23631 0.0
C232 C 0.72539 0.49507 0.26088 0.0
C233 C 0.73446 0.50097 0.29273 0.0
H234 H 0.52153 0.76918 0.20262 0.0
H235 H 0.5476 0.8274 0.28213 0.0
H236 H 0.5714 0.73037 0.28423 0.0
H237 H 0.57558 0.76974 0.36195 0.0
C238 C 0.55828 0.78031 0.34443 0.0
O239 O 0.57487 0.78336 0.31563 0.0
H240 H 0.537 0.76412 0.34178 0.0
C241 C 0.5322 0.7719 0.22624 0.0
C242 C 0.54585 0.74606 0.24171 0.0
C243 C 0.53292 0.80134 0.24042 0.0
C244 C 0.54654 0.80476 0.27102 0.0
C245 C 0.5602 0.77924 0.28687 0.0
C246 C 0.56029 0.74993 0.27207 0.0
H247 H 0.31999 0.55085 0.18898 0.0
H248 H 0.25416 0.5601 0.26946 0.0
H249 H 0.35982 0.56645 0.28295 0.0
H250 H 0.30938 0.55249 0.35579 0.0
C251 C 0.29805 0.54526 0.3328 0.0
O252 O 0.30134 0.56913 0.31121 0.0
H253 H 0.31204 0.52441 0.32446 0.0
C254 C 0.31609 0.5553 0.21425 0.0
C255 C 0.34359 0.55938 0.23427 0.0
C256 C 0.28382 0.55511 0.22666 0.0
C257 C 0.27902 0.55993 0.2595 0.0
C258 C 0.30634 0.56424 0.27969 0.0
C259 C 0.33873 0.56358 0.26718 0.0
H260 H 0.77622 0.86282 0.49003 0.0
H261 H 0.83951 0.78258 0.4823 0.0
H262 H 0.73553 0.77471 0.4623 0.0
H263 H 0.76884 0.70507 0.47354 0.0
C264 C 0.78697 0.72108 0.48472 0.0
O265 O 0.79262 0.74525 0.46394 0.0
H266 H 0.77516 0.72935 0.50734 0.0
C267 C 0.77925 0.8383 0.48536 0.0
C268 C 0.75153 0.82062 0.4764 0.0
C269 C 0.81111 0.82496 0.48751 0.0
C270 C 0.81512 0.79324 0.48122 0.0
C271 C 0.78793 0.77532 0.472 0.0
C272 C 0.75628 0.78894 0.46952 0.0
H273 H 0.78056 0.17375 0.5126 0.0
H274 H 0.83326 0.25896 0.50207 0.0
H275 H 0.72687 0.25978 0.50187 0.0
H276 H 0.7616 0.31887 0.46454 0.0
C277 C 0.7859 0.31065 0.47389 0.0
O278 O 0.78052 0.29404 0.50158 0.0
H279 H 0.79757 0.29592 0.45501 0.0
C280 C 0.78011 0.19846 0.50847 0.0
C281 C 0.74949 0.21425 0.5066 0.0
C282 C 0.81043 0.21409 0.50573 0.0
C283 C 0.81016 0.24641 0.50356 0.0
C284 C 0.7801 0.26276 0.50255 0.0
C285 C 0.74984 0.24675 0.50351 0.0
H286 H 0.25674 0.85283 0.52486 0.0
H287 H 0.19832 0.77145 0.54096 0.0
H288 H 0.30473 0.76678 0.54907 0.0
H289 H 0.27327 0.69886 0.53315 0.0
C290 C 0.24967 0.71201 0.53039 0.0
O291 O 0.24874 0.73528 0.55312 0.0
H292 H 0.24989 0.72163 0.50569 0.0
C293 C 0.25537 0.8284 0.53053 0.0
C294 C 0.28472 0.81168 0.53623 0.0
C295 C 0.22418 0.81425 0.53231 0.0
C296 C 0.22226 0.78269 0.53951 0.0
C297 C 0.25121 0.76561 0.54557 0.0
C298 C 0.28245 0.78012 0.54425 0.0
H299 H 0.27037 0.16875 0.52853 0.0
H300 H 0.20017 0.24331 0.54213 0.0
H301 H 0.29952 0.26266 0.51104 0.0
H302 H 0.26697 0.31043 0.55612 0.0
C303 C 0.24098 0.30723 0.54777 0.0
O304 O 0.24044 0.28631 0.52286 0.0
H305 H 0.22608 0.29841 0.56821 0.0
C306 C 0.26431 0.19321 0.52854 0.0
C307 C 0.28874 0.21436 0.51915 0.0
C308 C 0.23227 0.2031 0.53733 0.0
C309 C 0.22476 0.23489 0.536 0.0
C310 C 0.24887 0.25623 0.52638 0.0
C311 C 0.28101 0.24605 0.51848 0.0
Zn312 Zn 0.96005 0.98307 0.44193 0.0
Zn313 Zn 0.96211 0.05568 0.45159 0.0
O314 O 0.99176 0.01978 0.44107 0.0
H315 H 0.00884 0.02094 0.42487 0.0
C316 C 0.94201 0.95769 0.52472 0.0
O317 O 0.94019 0.98687 0.51615 0.0
Zn318 Zn 0.09003 0.04743 0.56603 0.0
Zn319 Zn 0.07318 0.97636 0.58329 0.0
O320 O 0.05299 0.019 0.57791 0.0
H321 H 0.03556 0.02539 0.59243 0.0
Zn322 Zn 0.98688 0.98507 0.5705 0.0
O323 O -0.00221 0.0232 0.5441 0.0
Zn324 Zn 0.98657 0.05978 0.57152 0.0
H325 H 0.00106 0.0231 0.52128 0.0
Zn326 Zn 0.06328 0.98075 0.44129 0.0
O327 O 0.05246 0.01853 0.4682 0.0
H328 H 0.04728 0.01818 0.4907 0.0
Zn329 Zn 0.06869 0.05468 0.44364 0.0
C330 C 0.09904 0.94978 0.49166 0.0
O331 O 0.09984 0.97845 0.50212 0.0
O332 O 0.91369 0.9956 0.42568 0.0
O333 O 0.91715 0.04651 0.43253 0.0
O334 O 0.12118 0.98203 0.59784 0.0
O335 O 0.13273 0.03098 0.58605 0.0
O336 O 0.96659 0.99535 0.61463 0.0
O337 O 0.96266 0.04662 0.6122 0.0
C338 C 0.00687 0.09871 0.41826 0.0
O339 O 0.0873 0.99133 0.39905 0.0
O340 O 0.09621 0.04181 0.40487 0.0
O341 O 0.0481 0.94645 0.61398 0.0
C342 C 0.90135 0.02265 0.42325 0.0
O343 O 0.97671 0.93982 0.42626 0.0
C344 C 0.0529 0.0988 0.59405 0.0
O345 O 0.96168 0.95011 0.5471 0.0
C346 C 0.14085 0.00501 0.59844 0.0
O347 O 0.08367 0.94387 0.46588 0.0
C348 C 0.94975 0.08611 0.51691 0.0
O349 O 0.97741 0.09264 0.42706 0.0
O350 O 0.0308 0.08183 0.42796 0.0
C351 C 0.95751 0.02114 0.62672 0.0
O352 O 0.08148 0.08794 0.58752 0.0
O353 O 0.02717 0.08396 0.58549 0.0
C354 C 0.09969 0.07882 0.50317 0.0
O355 O 0.95649 0.08776 0.54659 0.0
O356 O 0.96278 0.06477 0.49978 0.0
C357 C 0.09995 0.01657 0.38927 0.0
O358 O 0.09472 0.08144 0.47326 0.0
O359 O 0.09101 0.05435 0.51788 0.0
C360 C 0.03134 0.923 0.60547 0.0
O361 O 0.02799 0.91687 0.57487 0.0
C362 C 0.99409 0.93661 0.40103 0.0
O363 O 0.00331 0.96138 0.38528 0.0
Zn364 Zn 0.47747 0.07533 0.03531 0.0
Zn365 Zn 0.47479 0.07848 0.95856 0.0
O366 O 0.49624 0.05553 0.99463 0.0
H367 H 0.50955 0.03695 0.99304 0.0
C368 C 0.54884 0.10695 0.09221 0.0
O369 O 0.5302 0.08346 0.08378 0.0
Zn370 Zn 0.57232 0.96624 0.95699 0.0
Zn371 Zn 0.58817 0.96021 0.03198 0.0
O372 O 0.57113 0.98921 0.9982 0.0
H373 H 0.55825 0.00761 0.00272 0.0
Zn374 Zn 0.58858 0.08726 0.0368 0.0
O375 O 0.5545 0.08894 0.00107 0.0
Zn376 Zn 0.58182 0.0807 0.96253 0.0
H377 H 0.53562 0.10283 0.00147 0.0
Zn378 Zn 0.45669 0.95405 0.0501 0.0
O379 O 0.48706 0.96119 0.01249 0.0
H380 H 0.51103 0.96183 0.01314 0.0
Zn381 Zn 0.45841 0.96386 0.97406 0.0
C382 C 0.47317 0.92693 0.1138 0.0
O383 O 0.45295 0.94795 0.12574 0.0
O384 O 0.44339 0.11011 0.02756 0.0
O385 O 0.44228 0.11123 0.97461 0.0
O386 O 0.6114 0.92208 0.01256 0.0
O387 O 0.6018 0.92806 0.96062 0.0
O388 O 0.6364 0.09587 0.02178 0.0
O389 O 0.62892 0.09682 0.96919 0.0
C390 C 0.44195 0.02109 0.93998 0.0
O391 O 0.40896 0.94315 0.03632 0.0
O392 O 0.41104 0.95058 0.98377 0.0
O393 O 0.61742 0.98246 0.06474 0.0
C394 C 0.43183 0.12097 0.00164 0.0
O395 O 0.46316 0.04947 0.07454 0.0
C396 C 0.59543 0.02277 0.92793 0.0
O397 O 0.5751 0.11256 0.07651 0.0
C398 C 0.61534 0.91339 0.98367 0.0
O399 O 0.47792 0.92572 0.08383 0.0
C400 C 0.5337 0.109 0.91442 0.0
O401 O 0.44489 0.04976 0.93429 0.0
O402 O 0.46086 0.00821 0.96018 0.0
C403 C 0.64737 0.10061 0.99367 0.0
O404 O 0.59273 0.99381 0.92352 0.0
O405 O 0.58166 0.03525 0.95213 0.0
C406 C 0.50737 0.93635 0.93397 0.0
O407 O 0.56255 0.10346 0.92549 0.0
O408 O 0.50749 0.09922 0.92821 0.0
C409 C 0.39515 0.94284 0.00892 0.0
O410 O 0.47654 0.93527 0.94005 0.0
O411 O 0.52465 0.95548 0.94979 0.0
C412 C 0.61149 0.00949 0.07533 0.0
O413 O 0.58388 0.02373 0.06719 0.0
C414 C 0.43896 0.03077 0.07279 0.0
O415 O 0.42639 0.02421 0.04462 0.0
Zn416 Zn 0.96077 0.47222 0.95149 0.0
Zn417 Zn 0.95428 0.54738 0.95492 0.0
O418 O 0.9873 0.51227 0.95268 0.0
H419 H 0.00983 0.51324 0.94488 0.0
C420 C 0.96946 0.42885 0.04012 0.0
O421 O 0.9784 0.44552 0.01539 0.0
Zn422 Zn 0.08823 0.55767 0.0579 0.0
Zn423 Zn 0.09379 0.48441 0.07267 0.0
O424 O 0.06118 0.51869 0.0608 0.0
H425 H 0.03965 0.5155 0.05128 0.0
Zn426 Zn 0.97451 0.48773 0.07861 0.0
O427 O 0.97419 0.52012 0.04363 0.0
Zn428 Zn 0.97122 0.55951 0.06948 0.0
H429 H 0.98513 0.51738 0.02324 0.0
Zn430 Zn 0.07598 0.48837 0.94255 0.0
O431 O 0.06761 0.52517 0.97161 0.0
H432 H 0.05497 0.52366 0.99118 0.0
Zn433 Zn 0.06777 0.56187 0.94277 0.0
C434 C 0.10403 0.44993 0.9929 0.0
O435 O 0.10214 0.47649 0.00814 0.0
O436 O 0.91119 0.47976 0.94223 0.0
O437 O 0.90893 0.53112 0.94196 0.0
O438 O 0.13595 0.50162 0.09299 0.0
O439 O 0.13457 0.55041 0.07631 0.0
O440 O 0.94465 0.50144 0.11557 0.0
O441 O 0.94281 0.55247 0.10935 0.0
C442 C -0.00188 0.58714 0.92018 0.0
O443 O 0.09968 0.50116 0.90097 0.0
O444 O 0.09566 0.55252 0.90272 0.0
O445 O 0.07857 0.44227 0.09139 0.0
C446 C 0.89512 0.50489 0.93825 0.0
O447 O 0.97936 0.43555 0.92445 0.0
C448 C 0.03688 0.59238 0.0907 0.0
O449 O 0.96747 0.44153 0.06748 0.0
C450 C 0.14888 0.52833 0.0911 0.0
O451 O 0.09364 0.44839 0.96427 0.0
C452 C 0.94413 0.58928 0.01348 0.0
O453 O 0.96752 0.58172 0.9248 0.0
O454 O 0.01916 0.57 0.93434 0.0
C455 C 0.93413 0.52801 0.12411 0.0
O456 O 0.06793 0.5908 0.0858 0.0
O457 O 0.01867 0.57206 0.07751 0.0
C458 C 0.09322 0.59715 0.99649 0.0
O459 O 0.94902 0.59262 0.04329 0.0
O460 O 0.95416 0.56439 0.00013 0.0
C461 C 0.10601 0.52767 0.88922 0.0
O462 O 0.08728 0.5981 0.96663 0.0
O463 O 0.08709 0.57219 0.01153 0.0
C464 C 0.05023 0.43906 0.10425 0.0
O465 O 0.02941 0.46254 0.10408 0.0
C466 C 0.97443 0.43788 0.89454 0.0
O467 O 0.9605 0.46328 0.8836 0.0
Zn468 Zn 0.47654 0.4712 0.9772 0.0
Zn469 Zn 0.47543 0.47314 0.05352 0.0
O470 O 0.48205 0.50018 0.01484 0.0
H471 H 0.47833 0.52216 0.01279 0.0
C472 C 0.54033 0.41985 0.9027 0.0
O473 O 0.52548 0.44666 0.89852 0.0
Zn474 Zn 0.56819 0.56925 0.07276 0.0
Zn475 Zn 0.55463 0.56797 0.99776 0.0
O476 O 0.53881 0.54947 0.04035 0.0
H477 H 0.53028 0.52883 0.04306 0.0
Zn478 Zn 0.57933 0.4465 0.96131 0.0
O479 O 0.55304 0.4555 0.00228 0.0
Zn480 Zn 0.58464 0.45528 0.04003 0.0
H481 H 0.52911 0.45465 0.00339 0.0
Zn482 Zn 0.47467 0.60993 0.98373 0.0
O483 O 0.50491 0.59739 0.02049 0.0
H484 H 0.49324 0.6035 0.00138 0.0
Zn485 Zn 0.47467 0.59018 0.05762 0.0
C486 C 0.52091 0.63731 0.93685 0.0
O487 O 0.53964 0.64104 0.96224 0.0
O488 O 0.44962 0.43313 0.99043 0.0
O489 O 0.44235 0.43904 0.04287 0.0
O490 O 0.58785 0.60387 0.00231 0.0
O491 O 0.6035 0.59589 0.05243 0.0
O492 O 0.62749 0.43442 0.97294 0.0
O493 O 0.62882 0.43609 0.02633 0.0
C494 C 0.45976 0.52878 0.09163 0.0
O495 O 0.432 0.63137 0.99904 0.0
O496 O 0.43059 0.61339 0.04877 0.0
O497 O 0.5679 0.54098 0.95843 0.0
C498 C 0.4364 0.42479 0.01669 0.0
O499 O 0.45745 0.48955 0.93531 0.0
C500 C 0.59596 0.50711 0.08667 0.0
O501 O 0.56056 0.4164 0.92587 0.0
C502 C 0.60711 0.60945 0.02566 0.0
O503 O 0.49303 0.62402 0.93976 0.0
C504 C 0.53511 0.43421 0.08178 0.0
O505 O 0.46008 0.4993 0.09078 0.0
O506 O 0.46909 0.54383 0.06697 0.0
C507 C 0.64239 0.42991 0.99939 0.0
O508 O 0.5909 0.5348 0.09602 0.0
O509 O 0.58792 0.49897 0.05837 0.0
C510 C 0.51958 0.61211 0.11379 0.0
O511 O 0.5656 0.42964 0.07552 0.0
O512 O 0.51953 0.45319 0.06394 0.0
C513 C 0.41788 0.62931 0.02617 0.0
O514 O 0.49364 0.61042 0.09655 0.0
O515 O 0.54627 0.59757 0.10654 0.0
C516 C 0.59889 0.53521 0.95741 0.0
O517 O 0.61698 0.54215 0.98252 0.0
C518 C 0.46479 0.51389 0.91992 0.0
O519 O 0.48896 0.53167 0.93011 0.0
Zn520 Zn 0.95142 0.4788 0.4655 0.0
Zn521 Zn 0.94624 0.55371 0.46117 0.0
O522 O 0.97783 0.51847 0.46723 0.0
H523 H 0.00127 0.51983 0.47182 0.0
C524 C 0.87963 0.46696 0.52188 0.0
O525 O 0.86581 0.49381 0.5286 0.0
Zn526 Zn 0.08218 0.5693 0.56256 0.0
Zn527 Zn 0.09427 0.4972 0.5571 0.0
O528 O 0.05803 0.52939 0.56241 0.0
H529 H 0.03456 0.52614 0.55927 0.0
Zn530 Zn 0.93212 0.49569 0.5587 0.0
O531 O 0.9635 0.52844 0.54289 0.0
Zn532 Zn 0.95959 0.56497 0.57285 0.0
H533 H 0.98258 0.52434 0.52951 0.0
Zn534 Zn 0.08855 0.49524 0.45574 0.0
O535 O 0.07024 0.53156 0.48093 0.0
H536 H 0.05664 0.52925 0.49978 0.0
Zn537 Zn 0.06678 0.56683 0.44995 0.0
C538 C 0.1374 0.45313 0.48358 0.0
O539 O 0.15716 0.47489 0.47292 0.0
O540 O 0.90266 0.48652 0.45258 0.0
O541 O 0.90156 0.53744 0.44519 0.0
O542 O 0.13995 0.51314 0.57204 0.0
O543 O 0.12895 0.56311 0.57993 0.0
O544 O 0.90668 0.5096 0.59807 0.0
O545 O 0.93 0.55422 0.61236 0.0
C546 C 0.99704 0.58545 0.42388 0.0
O547 O 0.11568 0.51038 0.41745 0.0
O548 O 0.09651 0.55837 0.41078 0.0
O549 O 0.08162 0.45318 0.57167 0.0
C550 C 0.88755 0.511 0.44376 0.0
O551 O 0.97241 0.44399 0.43789 0.0
C552 C 0.02507 0.59852 0.59434 0.0
O553 O 0.9095 0.46212 0.53045 0.0
C554 C 0.14884 0.54001 0.58122 0.0
O555 O 0.10622 0.45624 0.47977 0.0
C556 C 0.93 0.5977 0.51953 0.0
O557 O 0.96592 0.58178 0.42774 0.0
O558 O 0.01704 0.57181 0.44271 0.0
C559 C 0.90897 0.53249 0.6171 0.0
O560 O 0.05642 0.59906 0.59005 0.0
O561 O 0.00799 0.57771 0.58043 0.0
C562 C 0.09302 0.60617 0.49967 0.0
O563 O 0.93543 0.59938 0.54944 0.0
O564 O 0.94233 0.57476 0.50438 0.0
C565 C 0.11567 0.53599 0.40244 0.0
O566 O 0.08661 0.60518 0.46999 0.0
O567 O 0.083 0.58395 0.51697 0.0
C568 C 0.05997 0.45102 0.59368 0.0
O569 O 0.04648 0.47642 0.6053 0.0
C570 C 0.96454 0.44665 0.40864 0.0
O571 O 0.94618 0.47039 0.39996 0.0
Zn572 Zn 0.46043 0.9903 0.44537 0.0
Zn573 Zn 0.44658 0.06391 0.44779 0.0
O574 O 0.48308 0.03197 0.44151 0.0
H575 H 0.50129 0.03339 0.42654 0.0
C576 C 0.41849 0.94498 0.52528 0.0
O577 O 0.41619 0.96951 0.50692 0.0
Zn578 Zn 0.5804 0.067 0.55038 0.0
Zn579 Zn 0.58302 0.99206 0.55863 0.0
O580 O 0.55288 0.02865 0.55022 0.0
H581 H 0.52916 0.02724 0.54751 0.0
Zn582 Zn 0.45946 0.98714 0.56571 0.0
O583 O 0.46559 0.02426 0.53635 0.0
Zn584 Zn 0.463 0.06266 0.56423 0.0
H585 H 0.47467 0.02306 0.51499 0.0
Zn586 Zn 0.56146 0.99441 0.45083 0.0
O587 O 0.54872 0.03542 0.47201 0.0
H588 H 0.53369 0.03697 0.48994 0.0
Zn589 Zn 0.55442 0.06953 0.43976 0.0
C590 C 0.59814 0.93717 0.45941 0.0
O591 O 0.58197 0.93164 0.43277 0.0
O592 O 0.41205 0.99438 0.43001 0.0
O593 O 0.40457 0.04554 0.42847 0.0
O594 O 0.62799 0.00649 0.57632 0.0
O595 O 0.62502 0.0578 0.57109 0.0
O596 O 0.44086 1.00145 0.60876 0.0
O597 O 0.44049 0.05292 0.60653 0.0
C598 C 0.48929 0.10873 0.42098 0.0
O599 O 0.57275 1.00009 0.40333 0.0
O600 O 0.57075 0.05128 0.39777 0.0
O601 O 0.56207 0.95711 0.58566 0.0
C602 C 0.39431 0.01801 0.42333 0.0
O603 O 0.48592 0.95099 0.42817 0.0
C604 C 0.52746 0.09956 0.58399 0.0
O605 O 0.43644 0.94636 0.5502 0.0
C606 C 0.64014 0.03337 0.58038 0.0
O607 O 0.59303 0.96279 0.47376 0.0
C608 C 0.43094 0.09475 0.51203 0.0
O609 O 0.45847 0.10385 0.42494 0.0
O610 O 0.50927 0.08897 0.43273 0.0
C611 C 0.43376 0.02771 0.62092 0.0
O612 O 0.55849 0.09902 0.57839 0.0
O613 O 0.50948 0.07945 0.57006 0.0
C614 C 0.5976 0.09892 0.48528 0.0
O615 O 0.43576 0.09464 0.54201 0.0
O616 O 0.44343 0.07301 0.49517 0.0
C617 C 0.57629 0.02428 0.38638 0.0
O618 O 0.58917 0.09914 0.45601 0.0
O619 O 0.58148 0.08191 0.50451 0.0
C620 C 0.57842 0.93241 0.59071 0.0
O621 O 0.60742 0.9287 0.5767 0.0
C622 C 0.47333 0.92488 0.43486 0.0
O623 O 0.44656 0.92428 0.45281 0.0
H624 H 0.16679 0.20482 0.52112 0.0
H625 H 0.2391 0.14838 0.57028 0.0
H626 H 0.2009 0.10475 0.56953 0.0
H627 H 0.15143 0.08027 0.54516 0.0
H628 H 0.07983 0.13775 0.49672 0.0
H629 H 0.11259 0.18362 0.50831 0.0
C630 C 0.17393 0.18344 0.53277 0.0
C631 C 0.20632 0.17967 0.54464 0.0
C632 C 0.15189 0.15845 0.53228 0.0
C633 C 0.21481 0.1516 0.5597 0.0
C634 C 0.1929 0.12662 0.55948 0.0
C635 C 0.1425 0.10302 0.53835 0.0
C636 C 0.11371 0.10576 0.51972 0.0
C637 C 0.16203 0.12932 0.54432 0.0
C638 C 0.10225 0.13524 0.5108 0.0
C639 C 0.12105 0.16143 0.51723 0.0
H640 H 0.82307 0.15962 0.4754 0.0
H641 H 0.86921 0.22875 0.53512 0.0
H642 H 0.91932 0.19693 0.53865 0.0
H643 H 0.94703 0.1468 0.53056 0.0
H644 H 0.89724 0.07507 0.47815 0.0
H645 H 0.85194 0.11057 0.4651 0.0
C646 C 0.84407 0.16774 0.48924 0.0
C647 C 0.84213 0.19632 0.50541 0.0
C648 C 0.87233 0.1489 0.49206 0.0
C649 C 0.86997 0.2069 0.5224 0.0
C650 C 0.89858 0.18863 0.52459 0.0
C651 C 0.92659 0.1393 0.51558 0.0
C652 C 0.92606 0.10878 0.50393 0.0
C653 C 0.89964 0.15926 0.51028 0.0
C654 C 0.89924 0.09896 0.48528 0.0
C655 C 0.87287 0.11907 0.47874 0.0
H656 H 0.82524 0.88164 0.46372 0.0
H657 H 0.86243 0.81216 0.52841 0.0
H658 H 0.90826 0.84616 0.54353 0.0
H659 H 0.9352 0.89708 0.5412 0.0
H660 H 0.89563 0.96725 0.47849 0.0
H661 H 0.85333 0.93148 0.45971 0.0
C662 C 0.84327 0.87398 0.48127 0.0
C663 C 0.84015 0.84462 0.49528 0.0
C664 C 0.86912 0.89377 0.49018 0.0
C665 C 0.86428 0.83467 0.51728 0.0
C666 C 0.89038 0.85415 0.52603 0.0
C667 C 0.91754 0.90445 0.52318 0.0
C668 C 0.91863 0.93484 0.51124 0.0
C669 C 0.89271 0.88395 0.51303 0.0
C670 C 0.89553 0.94398 0.48792 0.0
C671 C 0.87117 0.92358 0.4773 0.0
H672 H 0.20826 0.86922 0.55904 0.0
H673 H 0.1729 0.80122 0.49183 0.0
H674 H 0.1281 0.83637 0.47551 0.0
H675 H 0.10346 0.88862 0.47609 0.0
H676 H 0.14096 0.95703 0.54202 0.0
H677 H 0.18026 0.91945 0.56338 0.0
C678 C 0.19048 0.86204 0.54105 0.0
C679 C 0.19401 0.83299 0.52627 0.0
C680 C 0.16539 0.8825 0.53145 0.0
C681 C 0.17058 0.82355 0.50348 0.0
C682 C 0.14518 0.84371 0.49401 0.0
C683 C 0.11994 0.89518 0.4954 0.0
C684 C 0.11946 0.92569 0.50726 0.0
C685 C 0.143 0.87358 0.50716 0.0
C686 C 0.14078 0.93374 0.53248 0.0
C687 C 0.16342 0.9123 0.54459 0.0
H688 H 0.49115 0.17967 0.21096 0.0
H689 H 0.57013 0.24207 0.18554 0.0
H690 H 0.58548 0.20863 0.14056 0.0
H691 H 0.57733 0.16114 0.10957 0.0
H692 H 0.49813 0.09875 0.13482 0.0
H693 H 0.4822 0.13264 0.17918 0.0
C694 C 0.51184 0.18583 0.19564 0.0
C695 C 0.52967 0.21313 0.20162 0.0
C696 C 0.52056 0.16648 0.17002 0.0
C697 C 0.55596 0.22123 0.18126 0.0
C698 C 0.56484 0.20205 0.1557 0.0
C699 C 0.55661 0.15487 0.1248 0.0
C700 C 0.53908 0.12734 0.11904 0.0
C701 C 0.54746 0.17453 0.15004 0.0
C702 C 0.51211 0.11975 0.13881 0.0
C703 C 0.50297 0.13912 0.16415 0.0
H704 H 0.826 0.55385 0.23078 0.0
H705 H 0.79471 0.46321 0.20001 0.0
H706 H 0.84025 0.46105 0.16149 0.0
H707 H 0.88921 0.48422 0.13739 0.0
H708 H 0.91973 0.5759 0.16525 0.0
H709 H 0.8744 0.57828 0.20456 0.0
C710 C 0.82918 0.53373 0.2155 0.0
C711 C 0.80707 0.50872 0.21813 0.0
C712 C 0.85538 0.5327 0.19329 0.0
C713 C 0.81118 0.48287 0.1981 0.0
C714 C 0.83735 0.48151 0.17631 0.0
C715 C 0.88619 0.50464 0.15228 0.0
C716 C 0.90804 0.52966 0.14887 0.0
C717 C 0.8597 0.50614 0.17392 0.0
C718 C 0.90331 0.55628 0.16769 0.0
C719 C 0.87739 0.55765 0.19004 0.0
H720 H 0.54697 0.81536 0.17916 0.0
H721 H 0.49231 0.84835 0.26126 0.0
H722 H 0.47016 0.89149 0.22976 0.0
H723 H 0.46409 0.91794 0.17784 0.0
H724 H 0.5187 0.88349 0.09604 0.0
H725 H 0.54293 0.84269 0.12848 0.0
C726 C 0.53007 0.83192 0.19012 0.0
C727 C 0.52087 0.82851 0.22228 0.0
C728 C 0.51734 0.85631 0.17189 0.0
C729 C 0.49968 0.85055 0.23647 0.0
C730 C 0.48694 0.87509 0.21845 0.0
C731 C 0.48145 0.90163 0.16719 0.0
C732 C 0.48928 0.90364 0.13449 0.0
C733 C 0.49526 0.87795 0.18599 0.0
C734 C 0.51196 0.88238 0.12108 0.0
C735 C 0.52589 0.85899 0.1396 0.0
H736 H 0.26994 0.58081 0.16914 0.0
H737 H 0.23557 0.51243 0.23618 0.0
H738 H 0.19247 0.49635 0.19863 0.0
H739 H 0.16496 0.50158 0.14693 0.0
H740 H 0.19658 0.57204 0.08091 0.0
H741 H 0.24113 0.58707 0.11761 0.0
C742 C 0.25288 0.56247 0.17547 0.0
C743 C 0.25577 0.54779 0.20529 0.0
C744 C 0.2282 0.55344 0.15381 0.0
C745 C 0.23346 0.52426 0.21348 0.0
C746 C 0.2091 0.51488 0.19193 0.0
C747 C 0.18195 0.51989 0.14032 0.0
C748 C 0.17798 0.53534 0.11107 0.0
C749 C 0.20644 0.52915 0.16198 0.0
C750 C 0.19951 0.55961 0.10319 0.0
C751 C 0.22475 0.56832 0.12422 0.0
H752 H 0.57679 0.86682 0.81867 0.0
H753 H 0.4926 0.80693 0.83183 0.0
H754 H 0.47437 0.83785 0.87775 0.0
H755 H 0.48091 0.88312 0.91228 0.0
H756 H 0.5657 0.94257 0.90063 0.0
H757 H 0.58559 0.91035 0.85625 0.0
C758 C 0.55454 0.86059 0.83175 0.0
C759 C 0.53584 0.83487 0.82189 0.0
C760 C 0.54446 0.87827 0.85834 0.0
C761 C 0.50733 0.82663 0.83913 0.0
C762 C 0.49689 0.84432 0.86527 0.0
C763 C 0.5039 0.88894 0.9002 0.0
C764 C 0.52175 0.91532 0.90962 0.0
C765 C 0.51506 0.87035 0.87483 0.0
C766 C 0.55163 0.92233 0.89396 0.0
C767 C 0.56286 0.90402 0.86844 0.0
H768 H 0.22044 0.50762 0.78889 0.0
H769 H 0.23276 0.6052 0.80528 0.0
H770 H 0.18136 0.60672 0.83687 0.0
H771 H 0.13744 0.57866 0.8656 0.0
H772 H 0.12721 0.48022 0.85102 0.0
H773 H 0.17277 0.48068 0.81267 0.0
C774 C 0.21122 0.52928 0.79873 0.0
C775 C 0.22989 0.5563 0.7948 0.0
C776 C 0.18228 0.52971 0.81751 0.0
C777 C 0.21837 0.58425 0.80794 0.0
C778 C 0.18919 0.58503 0.82612 0.0
C779 C 0.1447 0.55742 0.85356 0.0
C780 C 0.12916 0.52938 0.86162 0.0
C781 C 0.17154 0.55768 0.83196 0.0
C782 C 0.13892 0.5021 0.84564 0.0
C783 C 0.16507 0.50229 0.8237 0.0
H784 H 0.54151 0.21255 0.80971 0.0
H785 H 0.43884 0.188 0.79739 0.0
H786 H 0.44505 0.14609 0.83651 0.0
H787 H 0.47889 0.11981 0.87757 0.0
H788 H 0.58214 0.14463 0.88839 0.0
H789 H 0.57662 0.18291 0.8463 0.0
C790 C 0.52074 0.19758 0.8153 0.0
C791 C 0.48981 0.20307 0.8011 0.0
C792 C 0.52455 0.17387 0.83768 0.0
C793 C 0.46289 0.18383 0.80817 0.0
C794 C 0.46642 0.16011 0.8306 0.0
C795 C 0.50023 0.13341 0.8705 0.0
C796 C 0.53073 0.12963 0.88647 0.0
C797 C 0.49698 0.15542 0.84607 0.0
C798 C 0.55829 0.14713 0.8767 0.0
C799 C 0.5552 0.16911 0.85264 0.0
H800 H 0.77237 0.53104 0.85171 0.0
H801 H 0.79366 0.43731 0.82295 0.0
H802 H 0.83228 0.43143 0.86776 0.0
H803 H 0.86661 0.45601 0.90855 0.0
H804 H 0.84939 0.5517 0.93382 0.0
H805 H 0.80192 0.55366 0.89762 0.0
C806 C 0.78484 0.50914 0.85601 0.0
C807 C 0.78045 0.48457 0.83452 0.0
C808 C 0.80789 0.50646 0.88094 0.0
C809 C 0.79679 0.45633 0.83959 0.0
C810 C 0.81892 0.45309 0.86501 0.0
C811 C 0.85195 0.47706 0.90685 0.0
C812 C 0.86185 0.5038 0.92345 0.0
C813 C 0.82569 0.47843 0.88496 0.0
C814 C 0.84251 0.53088 0.92099 0.0
C815 C 0.81548 0.53208 0.90017 0.0
H816 H 0.73982 0.68579 0.0234 0.0
H817 H 0.69852 0.71787 0.93443 0.0
H818 H 0.64831 0.68726 0.94381 0.0
H819 H 0.61782 0.64915 0.97614 0.0
H820 H 0.65977 0.61791 0.06545 0.0
H821 H 0.70817 0.65041 0.05702 0.0
C822 C 0.71979 0.68604 0.00608 0.0
C823 C 0.72291 0.70362 0.97809 0.0
C824 C 0.69126 0.66848 0.01163 0.0
C825 C 0.69658 0.70441 0.95613 0.0
C826 C 0.66801 0.68683 0.96143 0.0
C827 C 0.63747 0.64956 0.99383 0.0
C828 C 0.63523 0.63091 0.02128 0.0
C829 C 0.66532 0.66842 0.9889 0.0
C830 C 0.6608 0.63198 0.0441 0.0
C831 C 0.68857 0.65051 0.03929 0.0
H832 H 0.28357 0.6942 0.06763 0.0
H833 H 0.31556 0.75972 0.99662 0.0
H834 H 0.366 0.72916 0.98711 0.0
H835 H 0.39952 0.6826 0.99721 0.0
H836 H 0.36879 0.61801 0.06976 0.0
H837 H 0.31898 0.64922 0.08022 0.0
C838 C 0.30178 0.70186 0.05028 0.0
C839 C 0.2959 0.72907 0.03274 0.0
C840 C 0.33058 0.68414 0.04491 0.0
C841 C 0.31974 0.739 0.01057 0.0
C842 C 0.34838 0.72138 0.00492 0.0
C843 C 0.38181 0.67525 0.01518 0.0
C844 C 0.3875 0.64777 0.03231 0.0
C845 C 0.35376 0.69367 0.02158 0.0
C846 C 0.36478 0.63894 0.05607 0.0
C847 C 0.33639 0.6568 0.06211 0.0
H848 H 0.32431 0.32777 0.98729 0.0
H849 H 0.31484 0.32996 0.08971 0.0
H850 H 0.36296 0.36454 0.09357 0.0
H851 H 0.40474 0.3973 0.06703 0.0
H852 H 0.41198 0.39582 0.96395 0.0
H853 H 0.36778 0.35794 0.96109 0.0
C854 C 0.33329 0.3355 0.01041 0.0
C855 C 0.31662 0.32646 0.0382 0.0
C856 C 0.36025 0.35576 0.01226 0.0
C857 C 0.32774 0.33672 0.06812 0.0
C858 C 0.35504 0.35651 0.07025 0.0
C859 C 0.39686 0.38846 0.04399 0.0
C860 C 0.41165 0.39958 0.0158 0.0
C861 C 0.37106 0.36672 0.04239 0.0
C862 C 0.40117 0.38774 0.98611 0.0
C863 C 0.37578 0.36607 0.98436 0.0
H864 H 0.77273 0.35634 0.9654 0.0
H865 H 0.73541 0.29714 0.03987 0.0
H866 H 0.68924 0.33313 0.0495 0.0
H867 H 0.65911 0.38111 0.03603 0.0
H868 H 0.69449 0.43824 0.95904 0.0
H869 H 0.74256 0.40396 0.95173 0.0
C870 C 0.75449 0.35139 0.98378 0.0
C871 C 0.75741 0.32418 0.00193 0.0
C872 C 0.7281 0.37209 0.98906 0.0
C873 C 0.73343 0.31778 0.02537 0.0
C874 C 0.70726 0.33848 0.03108 0.0
C875 C 0.6778 0.38633 0.01815 0.0
C876 C 0.6738 0.41237 0.99847 0.0
C877 C 0.70443 0.36576 0.01314 0.0
C878 C 0.69746 0.4185 0.97469 0.0
C879 C 0.7247 0.39879 0.97035 0.0
H880 H 0.96954 0.67231 0.71181 0.0
H881 H 0.04795 0.73391 0.68268 0.0
H882 H 0.05669 0.70351 0.6342 0.0
H883 H 0.04693 0.65624 0.6038 0.0
H884 H 0.97149 0.5924 0.6341 0.0
H885 H 0.956 0.62716 0.67806 0.0
C886 C 0.98838 0.67912 0.69471 0.0
C887 C 0.00835 0.70509 0.70097 0.0
C888 C 0.99367 0.66121 0.66712 0.0
C889 C 0.0322 0.7141 0.67836 0.0
C890 C 0.03733 0.69664 0.65072 0.0
C891 C 0.02663 0.65023 0.61969 0.0
C892 C 0.01028 0.62185 0.61584 0.0
C893 C 0.01886 0.66974 0.64537 0.0
C894 C 0.98393 0.61437 0.6363 0.0
C895 C 0.9755 0.63403 0.66171 0.0
H896 H 0.32605 0.04372 0.72926 0.0
H897 H 0.35103 0.9477 0.7435 0.0
H898 H 0.39352 0.95059 0.70177 0.0
H899 H 0.42236 0.97996 0.66084 0.0
H900 H 0.39845 0.07639 0.64634 0.0
H901 H 0.35733 0.07414 0.68939 0.0
C902 C 0.34069 0.02348 0.72285 0.0
C903 C 0.33534 0.99541 0.73874 0.0
C904 C 0.36548 0.02554 0.69935 0.0
C905 C 0.35472 0.96938 0.73109 0.0
C906 C 0.37904 0.97109 0.70747 0.0
C907 C 0.40841 1.00063 0.66723 0.0
C908 C 0.41329 0.02823 0.65024 0.0
C909 C 0.38457 0.99903 0.69147 0.0
C910 C 0.39525 0.05485 0.65911 0.0
C911 C 0.37151 0.05351 0.68349 0.0
H912 H 0.04938 0.31474 0.6449 0.0
H913 H 0.98552 0.35992 0.71383 0.0
H914 H 0.99253 0.40914 0.68606 0.0
H915 H 0.0189 0.43958 0.64376 0.0
H916 H 0.08311 0.39421 0.57513 0.0
H917 H 0.07318 0.34455 0.60089 0.0
C918 C 0.03648 0.33522 0.65353 0.0
C919 C 0.01698 0.3337 0.68141 0.0
C920 C 0.04071 0.36336 0.63755 0.0
C921 C 0.00096 0.36059 0.69262 0.0
C922 C 0.00486 0.38868 0.6767 0.0
C923 C 0.03055 0.41881 0.63427 0.0
C924 C 0.05192 0.42065 0.60771 0.0
C925 C 0.02504 0.39039 0.6494 0.0
C926 C 0.0667 0.39348 0.59566 0.0
C927 C 0.06108 0.36507 0.61039 0.0
H928 H 0.75487 0.01578 0.68021 0.0
H929 H 0.70517 0.0943 0.72297 0.0
H930 H 0.66701 0.09693 0.6776 0.0
H931 H 0.64723 0.07626 0.62645 0.0
H932 H 0.69423 0.99548 0.58552 0.0
H933 H 0.73496 0.99498 0.62898 0.0
C934 C 0.73573 0.03352 0.67948 0.0
C935 C 0.7328 0.05486 0.70479 0.0
C936 C 0.71393 0.03482 0.65341 0.0
C937 C 0.70763 0.07744 0.70389 0.0
C938 C 0.68607 0.07914 0.67783 0.0
C939 C 0.66694 0.05905 0.62663 0.0
C940 C 0.6683 0.03634 0.60254 0.0
C941 C 0.68909 0.05802 0.65244 0.0
C942 C 0.69316 0.01347 0.60359 0.0
C943 C 0.71615 0.01301 0.62856 0.0
H944 H 0.98956 0.35808 0.29168 0.0
H945 H 0.06176 0.3187 0.35613 0.0
H946 H 0.04405 0.35489 0.39805 0.0
H947 H 0.00996 0.39981 0.41521 0.0
H948 H 0.94109 0.44073 0.34828 0.0
H949 H 0.95646 0.40242 0.30818 0.0
C950 C 0.00172 0.35752 0.31479 0.0
C951 C 0.02721 0.33592 0.3206 0.0
C952 C 0.99229 0.37895 0.33823 0.0
C953 C 0.0419 0.33494 0.35105 0.0
C954 C 0.03201 0.35583 0.37493 0.0
C955 C -0.00171 0.40024 0.39187 0.0
C956 C 0.97444 0.42312 0.38476 0.0
C957 C 0.00754 0.37825 0.36861 0.0
C958 C 0.95963 0.42349 0.35437 0.0
C959 C 0.9683 0.40152 0.33141 0.0
H960 H 0.6826 0.99714 0.2828 0.0
H961 H 0.67241 0.09543 0.26982 0.0
H962 H 0.62165 0.09576 0.30215 0.0
H963 H 0.58862 0.06991 0.34333 0.0
H964 H 0.60114 0.97173 0.35853 0.0
H965 H 0.64181 0.96928 0.31551 0.0
C966 C 0.6683 0.01828 0.28599 0.0
C967 C 0.6808 0.04619 0.2742 0.0
C968 C 0.64 0.01838 0.30553 0.0
C969 C 0.66276 0.0737 0.27862 0.0
C970 C 0.63405 0.07391 0.29737 0.0
C971 C 0.59956 0.04782 0.33668 0.0
C972 C 0.59265 0.02128 0.35483 0.0
C973 C 0.62363 0.04668 0.31244 0.0
C974 C 0.60647 0.9927 0.34541 0.0
C975 C 0.6299 0.99125 0.32085 0.0
H976 H 0.0093 0.6734 0.30652 0.0
H977 H 0.08257 0.71629 0.367 0.0
H978 H 0.07712 0.67417 0.40569 0.0
H979 H 0.04692 0.62788 0.42463 0.0
H980 H 0.97153 0.58771 0.36464 0.0
H981 H 0.98295 0.62556 0.32304 0.0
C982 C 0.02472 0.67317 0.32776 0.0
C983 C 0.04626 0.6979 0.3339 0.0
C984 C 0.02097 0.64935 0.35003 0.0
C985 C 0.06556 0.69759 0.3619 0.0
C986 C 0.06249 0.67351 0.38398 0.0
C987 C 0.03372 0.62705 0.4021 0.0
C988 C 0.00851 0.60515 0.39755 0.0
C989 C 0.03965 0.64964 0.37866 0.0
C990 C 0.99098 0.60453 0.36858 0.0
C991 C 0.99742 0.62617 0.34486 0.0
H992 H 0.29783 0.96477 0.32083 0.0
H993 H 0.31662 0.0543 0.27987 0.0
H994 H 0.34318 0.0713 0.32934 0.0
H995 H 0.36857 0.05794 0.38038 0.0
H996 H 0.35531 0.96656 0.41935 0.0
H997 H 0.31824 0.95328 0.37521 0.0
C998 C 0.30714 0.98817 0.32319 0.0
C999 C 0.30564 0.00827 0.29696 0.0
C1000 C 0.32342 0.99737 0.35131 0.0
C1001 C 0.31787 0.03848 0.29988 0.0
C1002 C 0.33301 0.04817 0.32809 0.0
C1003 C 0.35673 0.03546 0.3798 0.0
C1004 C 0.36487 0.01319 0.40293 0.0
C1005 C 0.33699 0.02745 0.35351 0.0
C1006 C 0.34954 0.98405 0.40168 0.0
C1007 C 0.32858 0.97636 0.37631 0.0
H1008 H -0.00084 0.20792 0.31894 0.0
H1009 H 0.09559 0.17219 0.29312 0.0
H1010 H 0.09322 0.13519 0.33743 0.0
H1011 H 0.06145 0.11034 0.38097 0.0
H1012 H 0.96399 0.14565 0.40495 0.0
H1013 H 0.96904 0.18537 0.36418 0.0
C1014 C 0.0197 0.19214 0.32321 0.0
C1015 C 0.04729 0.19233 0.30263 0.0
C1016 C 0.01788 0.17073 0.34835 0.0
C1017 C 0.07398 0.17212 0.30857 0.0
C1018 C 0.07258 0.15099 0.33384 0.0
C1019 C 0.04156 0.12702 0.37757 0.0
C1020 C 0.01233 0.12483 0.39594 0.0
C1021 C 0.04434 0.14966 0.35354 0.0
C1022 C 0.9867 0.14658 0.39106 0.0
C1023 C 0.98951 0.16936 0.36769 0.0
H1024 H 0.77797 0.01272 0.33235 0.0
H1025 H 0.82207 0.09548 0.2943 0.0
H1026 H 0.86301 0.09554 0.33759 0.0
H1027 H 0.88833 0.06999 0.38368 0.0
H1028 H 0.84803 0.98413 0.41836 0.0
H1029 H 0.80278 0.98761 0.37939 0.0
C1030 C 0.79638 0.03091 0.33385 0.0
C1031 C 0.79718 0.05412 0.31042 0.0
C1032 C 0.82022 0.03026 0.35821 0.0
C1033 C 0.82128 0.07736 0.31211 0.0
C1034 C 0.8445 0.07743 0.33685 0.0
C1035 C 0.8692 0.0524 0.38317 0.0
C1036 C 0.87118 0.02698 0.40395 0.0
C1037 C 0.84444 0.05378 0.35975 0.0
C1038 C 0.84678 0.00396 0.40262 0.0
C1039 C 0.82111 0.00586 0.38026 0.0
H1040 H 0.00408 0.79653 0.35931 0.0
H1041 H 0.06238 0.83624 0.28325 0.0
H1042 H 0.0544 0.88773 0.30637 0.0
H1043 H 0.03051 0.92154 0.34806 0.0
H1044 H 0.97376 0.8811 0.42487 0.0
H1045 H 0.98242 0.82975 0.402 0.0
C1046 C 0.01555 0.81631 0.34798 0.0
C1047 C 0.03388 0.81236 0.31953 0.0
C1048 C 0.01129 0.84577 0.36165 0.0
C1049 C 0.04778 0.83854 0.30489 0.0
C1050 C 0.04344 0.868 0.31824 0.0
C1051 C 0.02016 0.90149 0.35991 0.0
C1052 C 0.00139 0.90528 0.38812 0.0
C1053 C 0.02516 0.87191 0.34658 0.0
C1054 C 0.98829 0.87897 0.40315 0.0
C1055 C 0.99314 0.84954 0.39004 0.0
H1056 H 0.18938 0.03574 0.26642 0.0
H1057 H 0.15312 0.94427 0.24572 0.0
H1058 H 0.1214 0.94437 0.29573 0.0
H1059 H 0.10403 0.97051 0.34503 0.0
H1060 H 0.13927 0.06265 0.36547 0.0
H1061 H 0.17124 0.06234 0.31579 0.0
C1062 C 0.17428 0.016 0.27285 0.0
C1063 C 0.17309 0.99018 0.25239 0.0
C1064 C 0.15605 0.01634 0.30152 0.0
C1065 C 0.15397 0.96448 0.26107 0.0
C1066 C 0.13596 0.96453 0.28961 0.0
C1067 C 0.11873 0.99055 0.33871 0.0
C1068 C 0.11927 0.01653 0.35906 0.0
C1069 C 0.13681 0.99034 0.31001 0.0
C1070 C 0.13832 0.04234 0.35027 0.0
C1071 C 0.15666 0.04219 0.32187 0.0
H1072 H 0.97025 0.81783 0.69232 0.0
H1073 H 0.01506 0.87333 0.76609 0.0
H1074 H 0.03394 0.91056 0.72605 0.0
H1075 H 0.03835 0.9268 0.67009 0.0
H1076 H 0.99383 0.87115 0.59595 0.0
H1077 H 0.97384 0.83472 0.63606 0.0
C1078 C 0.98387 0.83827 0.69953 0.0
C1079 C 0.99078 0.84327 0.73207 0.0
C1080 C 0.99465 0.8595 0.67634 0.0
C1081 C 0.00905 0.8694 0.74119 0.0
C1082 C 0.01987 0.89059 0.71832 0.0
C1083 C 0.02412 0.90681 0.66265 0.0
C1084 C 0.01771 0.90174 0.62997 0.0
C1085 C 0.01285 0.88586 0.68582 0.0
C1086 C -0.00076 0.87564 0.62088 0.0
C1087 C 0.98781 0.85474 0.64382 0.0
H1088 H 0.20489 0.02782 0.72906 0.0
H1089 H 0.19266 0.92893 0.73427 0.0
H1090 H 0.18137 0.92686 0.6769 0.0
H1091 H 0.16606 0.95426 0.62804 0.0
H1092 H 0.17582 0.05357 0.62363 0.0
H1093 H 0.1995 0.05406 0.6772 0.0
C1094 C 0.20061 0.00573 0.71746 0.0
C1095 C 0.1997 0.9785 0.73579 0.0
C1096 C 0.19412 0.00476 0.68453 0.0
C1097 C 0.19364 0.95012 0.72057 0.0
C1098 C 0.18726 0.94894 0.6878 0.0
C1099 C 0.17435 0.97594 0.63836 0.0
C1100 C 0.168 0.00393 0.62227 0.0
C1101 C 0.18628 0.97626 0.66982 0.0
C1102 C 0.17983 0.03169 0.6356 0.0
C1103 C 0.19289 0.03207 0.66653 0.0
H1104 H 0.0673 0.2159 0.68331 0.0
H1105 H 0.96083 0.2164 0.67459 0.0
H1106 H 0.9634 0.16995 0.64058 0.0
H1107 H 0.99654 0.12975 0.61274 0.0
H1108 H 0.10357 0.13161 0.62016 0.0
H1109 H 0.10025 0.1766 0.65502 0.0
C1110 C 0.04474 0.20548 0.67418 0.0
C1111 C 0.01393 0.21885 0.68162 0.0
C1112 C 0.04657 0.17944 0.65421 0.0
C1113 C 0.98473 0.20592 0.66934 0.0
C1114 C 0.98626 0.17958 0.64983 0.0
C1115 C 0.01911 0.14007 0.6219 0.0
C1116 C 0.05022 0.1272 0.61382 0.0
C1117 C 0.01711 0.16623 0.64194 0.0
C1118 C 0.07925 0.14095 0.62589 0.0
C1119 C 0.07744 0.16668 0.64596 0.0
H1120 H 0.84898 1.00233 0.73212 0.0
H1121 H 0.85799 0.1013 0.73829 0.0
H1122 H 0.907 0.09957 0.7035 0.0
H1123 H 0.94029 0.07072 0.66389 0.0
H1124 H 0.92974 0.97155 0.65672 0.0
H1125 H 0.88872 0.97242 0.69956 0.0
C1126 C 0.86267 0.02327 0.7269 0.0
C1127 C 0.85036 0.05185 0.73781 0.0
C1128 C 0.88999 0.02211 0.70605 0.0
C1129 C 0.86757 0.07905 0.73049 0.0
C1130 C 0.89522 0.07806 0.71023 0.0
C1131 C 0.92946 0.04922 0.67208 0.0
C1132 C 0.93756 0.02123 0.65655 0.0
C1133 C 0.90559 0.04988 0.69663 0.0
C1134 C 0.92372 0.99352 0.6679 0.0
C1135 C 0.90016 0.99396 0.69241 0.0
H1136 H 0.35948 0.02858 0.20133 0.0
H1137 H 0.30713 0.9552 0.15252 0.0
H1138 H 0.3441 0.96055 0.10678 0.0
H1139 H 0.39026 0.98749 0.07976 0.0
H1140 H 0.44581 0.05627 0.13195 0.0
H1141 H 0.40958 0.04977 0.17798 0.0
C1142 C 0.35643 0.0129 0.18134 0.0
C1143 C 0.32995 0.99165 0.1808 0.0
C1144 C 0.3787 0.01501 0.15565 0.0
C1145 C 0.32644 0.97248 0.15368 0.0
C1146 C 0.34792 0.9752 0.1275 0.0
C1147 C 0.39478 1.00065 0.1014 0.0
C1148 C 0.42056 0.02253 0.10221 0.0
C1149 C 0.37396 0.99662 0.1281 0.0
C1150 C 0.42618 0.03927 0.13055 0.0
C1151 C 0.4053 0.03575 0.15688 0.0
H1152 H 0.00502 0.3437 0.20793 0.0
H1153 H 0.106 0.3122 0.19573 0.0
H1154 H 0.11262 0.34672 0.14979 0.0
H1155 H 0.09219 0.39131 0.11875 0.0
H1156 H 0.99182 0.42428 0.13338 0.0
H1157 H 0.9824 0.38363 0.17257 0.0
C1158 C 0.02828 0.34402 0.19479 0.0
C1159 C 0.05515 0.32582 0.20538 0.0
C1160 C 0.03214 0.36453 0.16918 0.0
C1161 C 0.08499 0.32601 0.18798 0.0
C1162 C 0.08885 0.34597 0.16194 0.0
C1163 C 0.06806 0.3893 0.1301 0.0
C1164 C 0.04294 0.41123 0.12357 0.0
C1165 C 0.063 0.3662 0.15317 0.0
C1166 C 0.01174 0.40804 0.13827 0.0
C1167 C 0.00632 0.3848 0.16073 0.0
H1168 H 0.70488 0.08861 0.16465 0.0
H1169 H 0.77595 0.02075 0.1316 0.0
H1170 H 0.73345 0.99653 0.09835 0.0
H1171 H 0.676 0.99341 0.08068 0.0
H1172 H 0.60434 0.06152 0.11236 0.0
H1173 H 0.64727 0.08721 0.14411 0.0
C1174 C 0.71107 0.06893 0.1496 0.0
C1175 C 0.74345 0.0566 0.15008 0.0
C1176 C 0.68645 0.0551 0.13069 0.0
C1177 C 0.75123 0.03077 0.13107 0.0
C1178 C 0.72694 0.01684 0.11232 0.0
C1179 C 0.66968 0.01385 0.09457 0.0
C1180 C 0.63699 0.02538 0.09448 0.0
C1181 C 0.69442 0.02856 0.11232 0.0
C1182 C 0.62934 0.05216 0.11217 0.0
C1183 C 0.65386 0.06683 0.13029 0.0
H1184 H 0.97643 0.68167 0.19579 0.0
H1185 H 0.06039 0.73642 0.16673 0.0
H1186 H 0.07436 0.69829 0.12548 0.0
H1187 H 0.06448 0.64833 0.0997 0.0
H1188 H 0.98095 0.59308 0.12829 0.0
H1189 H 0.9644 0.6327 0.16722 0.0
C1190 C -0.00224 0.68518 0.18038 0.0
C1191 C 0.01791 0.71139 0.18478 0.0
C1192 C 0.00546 0.66324 0.15652 0.0
C1193 C 0.045 0.71608 0.1642 0.0
C1194 C 0.05289 0.69437 0.14057 0.0
C1195 C 0.04241 0.64508 0.11422 0.0
C1196 C 0.02376 0.61779 0.111 0.0
C1197 C 0.03356 0.66771 0.13682 0.0
C1198 C 0.99522 0.61405 0.12983 0.0
C1199 C 0.98608 0.63658 0.15239 0.0
H1200 H 0.35252 0.95077 0.84334 0.0
H1201 H 0.28381 0.02182 0.87411 0.0
H1202 H 0.32008 0.03469 0.91872 0.0
H1203 H 0.37696 0.03462 0.94011 0.0
H1204 H 0.44913 0.97053 0.9022 0.0
H1205 H 0.40661 0.9462 0.86918 0.0
C1206 C 0.34519 0.96863 0.86025 0.0
C1207 C 0.31612 0.98601 0.8548 0.0
C1208 C 0.3674 0.97763 0.88416 0.0
C1209 C 0.3062 0.00825 0.87752 0.0
C1210 C 0.32724 0.016 0.90276 0.0
C1211 C 0.38297 0.01484 0.92511 0.0
C1212 C 0.41572 0.0037 0.92392 0.0
C1213 C 0.35881 1.00233 0.90488 0.0
C1214 C 0.42371 0.97837 0.90441 0.0
C1215 C 0.3995 0.9649 0.88515 0.0
H1216 H 0.97883 0.33514 0.78725 0.0
H1217 H 0.0165 0.28076 0.86542 0.0
H1218 H 0.01491 0.3263 0.90044 0.0
H1219 H -0.00027 0.38094 0.90941 0.0
H1220 H 0.96308 0.4353 0.83043 0.0
H1221 H 0.96793 0.39063 0.79506 0.0
C1222 C 0.98704 0.33345 0.81186 0.0
C1223 C 0.99736 0.30471 0.82393 0.0
C1224 C 0.98621 0.35969 0.8317 0.0
C1225 C 0.00807 0.30266 0.85579 0.0
C1226 C 0.00719 0.32866 0.87576 0.0
C1227 C 0.99311 0.3831 0.8844 0.0
C1228 C 0.98076 0.41141 0.87273 0.0
C1229 C 0.99583 0.35721 0.8641 0.0
C1230 C 0.97246 0.41379 0.84018 0.0
C1231 C 0.97515 0.38822 0.81988 0.0
H1232 H 0.68681 0.07606 0.81958 0.0
H1233 H 0.7553 0.08081 0.89845 0.0
H1234 H 0.71149 0.06462 0.93534 0.0
H1235 H 0.65513 0.04457 0.94419 0.0
H1236 H 0.58707 0.03767 0.86532 0.0
H1237 H 0.62902 0.05937 0.8292 0.0
C1238 C 0.69186 0.07392 0.84494 0.0
C1239 C 0.72404 0.07978 0.85641 0.0
C1240 C 0.66666 0.06418 0.86586 0.0
C1241 C 0.73062 0.0766 0.88919 0.0
C1242 C 0.70563 0.06729 0.91023 0.0
C1243 C 0.64927 0.0488 0.91927 0.0
C1244 C 0.61803 0.04038 0.90736 0.0
C1245 C 0.67374 0.06053 0.89874 0.0
C1246 C 0.6109 0.04457 0.87489 0.0
C1247 C 0.63491 0.05677 0.85432 0.0
H1248 H 0.04451 0.67406 0.80851 0.0
H1249 H 0.95674 0.72417 0.83794 0.0
H1250 H 0.94921 0.6886 0.88281 0.0
H1251 H 0.96455 0.64038 0.91019 0.0
H1252 H 0.05263 0.59054 0.88134 0.0
H1253 H 0.06351 0.62906 0.83991 0.0
C1254 C 0.024 0.67733 0.82505 0.0
C1255 C 0.00097 0.70142 0.81986 0.0
C1256 C 0.01989 0.65682 0.85071 0.0
C1257 C 0.97474 0.7058 0.84156 0.0
C1258 C 0.97035 0.68538 0.86705 0.0
C1259 C 0.98639 0.63821 0.89508 0.0
C1260 C 0.00775 0.61258 0.89864 0.0
C1261 C 0.9923 0.66039 0.87134 0.0
C1262 C 0.0361 0.61018 0.87924 0.0
C1263 C 0.0421 0.63207 0.85537 0.0
H1264 H 0.20166 0.35861 0.06243 0.0
H1265 H 0.1813 0.30398 0.97831 0.0
H1266 H 0.13844 0.34081 0.96218 0.0
H1267 H 0.11261 0.39213 0.96798 0.0
H1268 H 0.13595 0.4483 0.05035 0.0
H1269 H 0.17156 0.40738 0.0711 0.0
C1270 C 0.18755 0.3546 0.04077 0.0
C1271 C 0.19499 0.3288 0.02143 0.0
C1272 C 0.16373 0.3764 0.03106 0.0
C1273 C 0.17602 0.32354 0.99377 0.0
C1274 C 0.15172 0.3448 0.98431 0.0
C1275 C 0.12514 0.39528 0.99067 0.0
C1276 C 0.12185 0.42343 0.00738 0.0
C1277 C 0.14628 0.37189 0.00214 0.0
C1278 C 0.13802 0.42695 0.03692 0.0
C1279 C 0.15857 0.40358 0.04877 0.0
H1280 H 0.18416 0.69275 0.0668 0.0
H1281 H 0.15625 0.74837 0.98584 0.0
H1282 H 0.11577 0.70925 0.9695 0.0
H1283 H 0.09516 0.65596 0.97397 0.0
H1284 H 0.12488 0.60026 0.05414 0.0
H1285 H 0.15741 0.64265 0.07547 0.0
C1286 C 0.16857 0.69654 0.04603 0.0
C1287 C 0.17324 0.72303 0.02729 0.0
C1288 C 0.14606 0.67375 0.03649 0.0
C1289 C 0.1529 0.72807 0.00059 0.0
C1290 C 0.13005 0.7056 0.99111 0.0
C1291 C 0.10836 0.65322 0.99637 0.0
C1292 C 0.10801 0.62454 0.01225 0.0
C1293 C 0.12747 0.67779 0.00817 0.0
C1294 C 0.12477 0.62173 0.04144 0.0
C1295 C 0.14355 0.64607 0.05356 0.0
H1296 H 0.29717 0.19387 0.98424 0.0
H1297 H 0.29967 0.19133 0.08717 0.0
H1298 H 0.3545 0.16658 0.08547 0.0
H1299 H 0.4001 0.14321 0.05462 0.0
H1300 H 0.3973 0.14568 0.95144 0.0
H1301 H 0.34459 0.17367 0.9534 0.0
C1302 C 0.30997 0.18825 0.00627 0.0
C1303 C 0.29464 0.19465 0.0358 0.0
C1304 C 0.34144 0.17416 0.00507 0.0
C1305 C 0.31117 0.18683 0.06419 0.0
C1306 C 0.34247 0.1727 0.06321 0.0
C1307 C 0.38827 0.15023 0.03252 0.0
C1308 C 0.40269 0.14213 0.00292 0.0
C1309 C 0.35768 0.16597 0.03377 0.0
C1310 C 0.38688 0.15152 0.97458 0.0
C1311 C 0.35658 0.1674 0.97565 0.0
H1312 H 0.88245 0.3099 0.04712 0.0
H1313 H 0.88175 0.32302 0.94524 0.0
H1314 H 0.92511 0.3624 0.94993 0.0
H1315 H 0.95498 0.39933 0.98414 0.0
H1316 H 0.95274 0.38778 0.08661 0.0
H1317 H 0.91921 0.34141 0.08066 0.0
C1318 C 0.89287 0.32059 0.02594 0.0
C1319 C 0.87947 0.31361 0.99589 0.0
C1320 C 0.91667 0.34398 0.02905 0.0
C1321 C 0.89228 0.32791 0.96852 0.0
C1322 C 0.9167 0.35063 0.97128 0.0
C1323 C 0.94785 0.38625 0.00512 0.0
C1324 C 0.95574 0.39742 0.03579 0.0
C1325 C 0.9279 0.35987 0.00159 0.0
C1326 C 0.94651 0.38003 0.06272 0.0
C1327 C 0.92729 0.35347 0.05938 0.0
H1328 H 0.73809 0.83825 0.93251 0.0
H1329 H 0.75463 0.82769 0.03363 0.0
H1330 H 0.7007 0.85166 0.04502 0.0
H1331 H 0.65211 0.88054 0.02632 0.0
H1332 H 0.63615 0.8925 0.92502 0.0
H1333 H 0.68606 0.86214 0.91358 0.0
C1334 C 0.72951 0.84077 0.95697 0.0
C1335 C 0.75016 0.83135 0.98221 0.0
C1336 C 0.69864 0.85476 0.96329 0.0
C1337 C 0.73907 0.83481 0.01386 0.0
C1338 C 0.70829 0.8485 0.02035 0.0
C1339 C 0.65911 0.87606 0.00169 0.0
C1340 C 0.64063 0.88928 0.9766 0.0
C1341 C 0.68828 0.85926 0.99527 0.0
C1342 C 0.64999 0.88287 0.94485 0.0
C1343 C 0.67869 0.86567 0.93826 0.0
H1344 H 0.83654 0.66787 0.9417 0.0
H1345 H 0.86276 0.73381 0.01471 0.0
H1346 H 0.9087 0.7004 0.03192 0.0
H1347 H 0.93602 0.64938 0.03065 0.0
H1348 H 0.9091 0.58372 0.95781 0.0
H1349 H 0.86937 0.62011 0.93551 0.0
C1350 C 0.85282 0.6751 0.96094 0.0
C1351 C 0.8463 0.70292 0.97721 0.0
C1352 C 0.87884 0.65572 0.9708 0.0
C1353 C 0.86752 0.71241 0.0019 0.0
C1354 C 0.89356 0.69325 0.01185 0.0
C1355 C 0.92185 0.64321 0.00956 0.0
C1356 C 0.9252 0.61344 0.99616 0.0
C1357 C 0.89868 0.66436 0.99717 0.0
C1358 C 0.90706 0.60614 0.96861 0.0
C1359 C 0.8841 0.62703 0.95597 0.0
H1360 H 0.26351 0.87241 0.9731 0.0
H1361 H 0.25857 0.86408 0.07567 0.0
H1362 H 0.30808 0.89602 0.08116 0.0
H1363 H 0.35465 0.92337 0.05677 0.0
H1364 H 0.35958 0.93259 0.9541 0.0
H1365 H 0.30787 0.90378 0.94877 0.0
C1366 C 0.27342 0.87757 0.9966 0.0
C1367 C 0.25821 0.86496 0.02384 0.0
C1368 C 0.30174 0.8962 0.99959 0.0
C1369 C 0.27049 0.87267 0.05427 0.0
C1370 C 0.29868 0.89107 0.05744 0.0
C1371 C 0.3443 0.91941 0.0332 0.0
C1372 C 0.36132 0.92978 0.00588 0.0
C1373 C 0.31481 0.90252 0.03025 0.0
C1374 C 0.34721 0.9247 0.97557 0.0
C1375 C 0.31769 0.90807 0.97246 0.0
H1376 H 0.78766 0.16341 0.00689 0.0
H1377 H 0.75802 0.20274 0.91678 0.0
H1378 H 0.70788 0.17094 0.91664 0.0
H1379 H 0.67078 0.13447 0.94388 0.0
H1380 H 0.69906 0.09734 0.03558 0.0
H1381 H 0.75152 0.12537 0.03321 0.0
C1382 C 0.77012 0.16496 0.9873 0.0
C1383 C 0.77617 0.18566 0.96215 0.0
C1384 C 0.74118 0.14694 0.98763 0.0
C1385 C 0.75362 0.18723 0.93661 0.0
C1386 C 0.72503 0.16902 0.93648 0.0
C1387 C 0.68864 0.13215 0.96312 0.0
C1388 C 0.68095 0.11394 0.98992 0.0
C1389 C 0.71833 0.14909 0.96208 0.0
C1390 C 0.70429 0.11133 0.01475 0.0
C1391 C 0.73426 0.12743 0.01347 0.0
H1392 H 0.57943 0.7071 0.81734 0.0
H1393 H 0.48257 0.68563 0.77965 0.0
H1394 H 0.46879 0.65782 0.82875 0.0
H1395 H 0.48365 0.64126 0.88288 0.0
H1396 H 0.57992 0.66438 0.92126 0.0
H1397 H 0.59452 0.69007 0.87131 0.0
C1398 C 0.55516 0.69665 0.81998 0.0
C1399 C 0.53162 0.69915 0.79526 0.0
C1400 C 0.54735 0.68101 0.84834 0.0
C1401 C 0.50073 0.6846 0.7987 0.0
C1402 C 0.49292 0.66864 0.82667 0.0
C1403 C 0.50791 0.65176 0.88031 0.0
C1404 C 0.53061 0.65098 0.90585 0.0
C1405 C 0.51594 0.66693 0.85174 0.0
C1406 C 0.56193 0.66471 0.90204 0.0
C1407 C 0.57029 0.67946 0.87349 0.0
H1408 H 0.38078 0.57329 0.80741 0.0
H1409 H 0.32262 0.49158 0.82479 0.0
H1410 H 0.36288 0.47387 0.86433 0.0
H1411 H 0.41234 0.48283 0.89596 0.0
H1412 H 0.47013 0.5655 0.88182 0.0
H1413 H 0.43251 0.58158 0.83887 0.0
C1414 C 0.37728 0.55152 0.81975 0.0
C1415 C 0.34885 0.53374 0.81349 0.0
C1416 C 0.40029 0.54177 0.84305 0.0
C1417 C 0.34428 0.50564 0.82955 0.0
C1418 C 0.36725 0.49553 0.85208 0.0
C1419 C 0.41696 0.50432 0.88344 0.0
C1420 C 0.44395 0.52299 0.89227 0.0
C1421 C 0.39501 0.51362 0.85937 0.0
C1422 C 0.4495 0.55069 0.87558 0.0
C1423 C 0.42794 0.55993 0.85106 0.0
H1424 H 0.53757 0.29757 0.82013 0.0
H1425 H 0.45487 0.34381 0.77532 0.0
H1426 H 0.46446 0.3897 0.80893 0.0
H1427 H 0.49441 0.4151 0.85402 0.0
H1428 H 0.57505 0.36588 0.8996 0.0
H1429 H 0.56764 0.32259 0.86324 0.0
C1430 C 0.52151 0.31766 0.81769 0.0
C1431 C 0.49521 0.31705 0.79555 0.0
C1432 C 0.52655 0.34332 0.83762 0.0
C1433 C 0.47531 0.34365 0.79212 0.0
C1434 C 0.48062 0.36976 0.81157 0.0
C1435 C 0.51038 0.39492 0.85594 0.0
C1436 C 0.53514 0.39383 0.87983 0.0
C1437 C 0.50581 0.36963 0.8349 0.0
C1438 C 0.55562 0.36744 0.8818 0.0
C1439 C 0.55151 0.34261 0.86088 0.0
H1440 H 0.6881 0.53109 0.83427 0.0
H1441 H 0.59497 0.50737 0.79028 0.0
H1442 H 0.56777 0.50741 0.84277 0.0
H1443 H 0.57023 0.5173 0.901 0.0
H1444 H 0.66507 0.53677 0.94457 0.0
H1445 H 0.69212 0.53379 0.89263 0.0
C1446 C 0.66207 0.52512 0.83628 0.0
C1447 C 0.64358 0.51922 0.80855 0.0
C1448 C 0.64694 0.52428 0.86649 0.0
C1449 C 0.60966 0.51216 0.81136 0.0
C1450 C 0.59415 0.51212 0.84134 0.0
C1451 C 0.59687 0.52043 0.89917 0.0
C1452 C 0.61544 0.52773 0.92665 0.0
C1453 C 0.61248 0.51856 0.86907 0.0
C1454 C 0.65004 0.53133 0.92388 0.0
C1455 C 0.66559 0.52983 0.89411 0.0
H1456 H 0.45166 0.36839 0.19121 0.0
H1457 H 0.54933 0.33238 0.21281 0.0
H1458 H 0.57271 0.36151 0.16875 0.0
H1459 H 0.56604 0.3967 0.12392 0.0
H1460 H 0.46933 0.43394 0.10122 0.0
H1461 H 0.44507 0.40495 0.14575 0.0
C1462 C 0.47807 0.36702 0.18622 0.0
C1463 C 0.4985 0.34814 0.20549 0.0
C1464 C 0.49158 0.38399 0.16058 0.0
C1465 C 0.53274 0.34657 0.19868 0.0
C1466 C 0.54626 0.36329 0.17335 0.0
C1467 C 0.53957 0.39852 0.12851 0.0
C1468 C 0.5195 0.41731 0.10886 0.0
C1469 C 0.52595 0.38196 0.15413 0.0
C1470 C 0.48536 0.41952 0.11564 0.0
C1471 C 0.4715 0.40295 0.14119 0.0
H1472 H 0.69451 0.44543 0.18168 0.0
H1473 H 0.61949 0.4766 0.24815 0.0
H1474 H 0.58234 0.48921 0.20382 0.0
H1475 H 0.57487 0.49859 0.14662 0.0
H1476 H 0.64994 0.46912 0.07959 0.0
H1477 H 0.68301 0.4474 0.12344 0.0
C1478 C 0.6697 0.45424 0.18635 0.0
C1479 C 0.6596 0.4601 0.21806 0.0
C1480 C 0.64858 0.46164 0.16065 0.0
C1481 C 0.62759 0.47182 0.22391 0.0
C1482 C 0.60644 0.47907 0.1986 0.0
C1483 C 0.59799 0.48647 0.14159 0.0
C1484 C 0.61011 0.4854 0.1101 0.0
C1485 C 0.61712 0.47504 0.16694 0.0
C1486 C 0.64001 0.46979 0.10365 0.0
C1487 C 0.65911 0.45785 0.12879 0.0
H1488 H 0.49319 0.71745 0.21516 0.0
H1489 H 0.59862 0.70753 0.22941 0.0
H1490 H 0.59977 0.66307 0.19276 0.0
H1491 H 0.57139 0.6307 0.15214 0.0
H1492 H 0.46562 0.64199 0.13851 0.0
H1493 H 0.4641 0.68202 0.17931 0.0
C1494 C 0.51632 0.7052 0.2106 0.0
C1495 C 0.54579 0.7158 0.22476 0.0
C1496 C 0.51681 0.68011 0.18924 0.0
C1497 C 0.57557 0.69965 0.21892 0.0
C1498 C 0.57626 0.67443 0.19774 0.0
C1499 C 0.54794 0.6416 0.15841 0.0
C1500 C 0.51879 0.63352 0.14174 0.0
C1501 C 0.54714 0.66497 0.18205 0.0
C1502 C 0.4886 0.64787 0.15046 0.0
C1503 C 0.48762 0.67085 0.17389 0.0
H1504 H 0.36965 0.59727 0.19042 0.0
H1505 H 0.39016 0.51469 0.24423 0.0
H1506 H 0.43384 0.50005 0.2061 0.0
H1507 H 0.45693 0.5056 0.15184 0.0
H1508 H 0.43196 0.58614 0.09677 0.0
H1509 H 0.40007 0.6073 0.14091 0.0
C1510 C 0.38473 0.57676 0.19441 0.0
C1511 C 0.37685 0.55695 0.21976 0.0
C1512 C 0.40856 0.56791 0.17172 0.0
C1513 C 0.39613 0.53031 0.22488 0.0
C1514 C 0.42071 0.52175 0.20283 0.0
C1515 C 0.44509 0.52811 0.14978 0.0
C1516 C 0.44666 0.54433 0.12066 0.0
C1517 C 0.42571 0.53951 0.17521 0.0
C1518 C 0.4315 0.57347 0.11864 0.0
C1519 C 0.41292 0.5854 0.14397 0.0
H1520 H 0.82325 0.54115 0.74397 0.0
H1521 H 0.75974 0.48204 0.68777 0.0
H1522 H 0.79727 0.4868 0.6423 0.0
H1523 H 0.84945 0.5046 0.61971 0.0
H1524 H 0.91406 0.56364 0.67466 0.0
H1525 H 0.87473 0.56194 0.71964 0.0
C1526 C 0.8176 0.5294 0.72171 0.0
C1527 C 0.78872 0.5111 0.71937 0.0
C1528 C 0.83958 0.53198 0.69565 0.0
C1529 C 0.7815 0.49649 0.6902 0.0
C1530 C 0.80312 0.49898 0.66425 0.0
C1531 C 0.85509 0.51714 0.64152 0.0
C1532 C 0.88498 0.53379 0.64404 0.0
C1533 C 0.83246 0.51615 0.66694 0.0
C1534 C 0.89137 0.55049 0.6722 0.0
C1535 C 0.86891 0.54946 0.69788 0.0
H1536 H 0.52124 0.86124 0.70971 0.0
H1537 H 0.60991 0.80679 0.69387 0.0
H1538 H 0.62194 0.83619 0.64554 0.0
H1539 H 0.60979 0.88001 0.61036 0.0
H1540 H 0.52181 0.93541 0.62686 0.0
H1541 H 0.50698 0.90292 0.67223 0.0
C1542 C 0.54319 0.85585 0.69565 0.0
C1543 C 0.56482 0.83208 0.70553 0.0
C1544 C 0.55016 0.87306 0.66808 0.0
C1545 C 0.59278 0.82488 0.68672 0.0
C1546 C 0.59978 0.84179 0.65917 0.0
C1547 C 0.58717 0.88481 0.62364 0.0
C1548 C 0.5672 0.91035 0.61542 0.0
C1549 C 0.57899 0.8663 0.64997 0.0
C1550 C 0.53782 0.91604 0.63277 0.0
C1551 C 0.52934 0.89753 0.65881 0.0
H1552 H 0.29026 0.53094 0.64521 0.0
H1553 H 0.26234 0.62182 0.67858 0.0
H1554 H 0.21138 0.61978 0.64671 0.0
H1555 H 0.17291 0.59038 0.61281 0.0
H1556 H 0.19995 0.49823 0.58173 0.0
H1557 H 0.25304 0.50251 0.60925 0.0
C1558 C 0.27305 0.55033 0.64523 0.0
C1559 C 0.27976 0.57637 0.66426 0.0
C1560 C 0.24356 0.54865 0.62752 0.0
C1561 C 0.25752 0.60149 0.66415 0.0
C1562 C 0.2284 0.60028 0.64603 0.0
C1563 C 0.19052 0.57134 0.61177 0.0
C1564 C 0.18226 0.54394 0.5954 0.0
C1565 C 0.22085 0.57371 0.62813 0.0
C1566 C 0.20548 0.51952 0.59432 0.0
C1567 C 0.23589 0.52191 0.61007 0.0
H1568 H 0.50602 0.20738 0.68312 0.0
H1569 H 0.41055 0.21336 0.63695 0.0
H1570 H 0.42461 0.16819 0.60375 0.0
H1571 H 0.46568 0.12812 0.58628 0.0
H1572 H 0.56106 0.12447 0.63307 0.0
H1573 H 0.54519 0.16723 0.66766 0.0
C1574 C 0.48811 0.19898 0.6659 0.0
C1575 C 0.45735 0.21417 0.66226 0.0
C1576 C 0.49637 0.17315 0.64697 0.0
C1577 C 0.43457 0.20235 0.63992 0.0
C1578 C 0.44257 0.17646 0.62101 0.0
C1579 C 0.48267 0.13641 0.60437 0.0
C1580 C 0.51455 0.12306 0.60691 0.0
C1581 C 0.47358 0.16174 0.62411 0.0
C1582 C 0.53644 0.13437 0.63036 0.0
C1583 C 0.52745 0.15893 0.65021 0.0
H1584 H 0.77872 0.47012 0.3464 0.0
H1585 H 0.78124 0.56746 0.32524 0.0
H1586 H 0.81464 0.57702 0.37303 0.0
H1587 H 0.8514 0.55625 0.41444 0.0
H1588 H 0.85242 0.458 0.43287 0.0
H1589 H 0.80889 0.45034 0.3934 0.0
C1590 C 0.7856 0.4935 0.35307 0.0
C1591 C 0.77756 0.51811 0.33267 0.0
C1592 C 0.80595 0.49857 0.37984 0.0
C1593 C 0.78705 0.54829 0.34092 0.0
C1594 C 0.80638 0.55368 0.36804 0.0
C1595 C 0.84155 0.53325 0.41044 0.0
C1596 C 0.85568 0.50772 0.4263 0.0
C1597 C 0.81729 0.52879 0.38678 0.0
C1598 C 0.84229 0.47812 0.42093 0.0
C1599 C 0.81748 0.47364 0.39812 0.0
H1600 H 0.50808 0.79003 0.38613 0.0
H1601 H 0.58368 0.8393 0.33439 0.0
H1602 H 0.56465 0.88818 0.35805 0.0
H1603 H 0.52559 0.91709 0.39314 0.0
H1604 H 0.45158 0.86654 0.44619 0.0
H1605 H 0.47098 0.81824 0.42253 0.0
C1606 C 0.52014 0.81155 0.3798 0.0
C1607 C 0.54641 0.81113 0.35767 0.0
C1608 C 0.50944 0.83941 0.39391 0.0
C1609 C 0.56267 0.83904 0.35057 0.0
C1610 C 0.55192 0.867 0.36427 0.0
C1611 C 0.51385 0.89549 0.39964 0.0
C1612 C 0.487 0.8956 0.42135 0.0
C1613 C 0.52519 0.86751 0.3859 0.0
C1614 C 0.47215 0.86731 0.42949 0.0
C1615 C 0.4832 0.83958 0.41593 0.0
H1616 H 0.2452 0.5854 0.33781 0.0
H1617 H 0.27053 0.48849 0.34231 0.0
H1618 H 0.21392 0.47632 0.35909 0.0
H1619 H 0.15972 0.49392 0.37858 0.0
H1620 H 0.13455 0.5911 0.37569 0.0
H1621 H 0.18808 0.60228 0.35087 0.0
C1622 C 0.23806 0.56157 0.3418 0.0
C1623 C 0.26192 0.53781 0.33865 0.0
C1624 C 0.20548 0.55479 0.35163 0.0
C1625 C 0.25251 0.5071 0.34435 0.0
C1626 C 0.22018 0.50015 0.35398 0.0
C1627 C 0.16554 0.5175 0.37191 0.0
C1628 C 0.14324 0.54167 0.37957 0.0
C1629 C 0.19674 0.5239 0.35852 0.0
C1630 C 0.15119 0.57201 0.3703 0.0
C1631 C 0.182 0.57849 0.35637 0.0
H1632 H 0.54862 0.19623 0.3153 0.0
H1633 H 0.45244 0.2394 0.32572 0.0
H1634 H 0.4397 0.20507 0.37058 0.0
H1635 H 0.4536 0.15904 0.40256 0.0
H1636 H 0.5498 0.1157 0.39187 0.0
H1637 H 0.56494 0.15388 0.35141 0.0
C1638 C 0.52506 0.1984 0.32776 0.0
C1639 C 0.50133 0.22011 0.31707 0.0
C1640 C 0.51782 0.17832 0.35317 0.0
C1641 C 0.47111 0.22299 0.3336 0.0
C1642 C 0.46374 0.20317 0.35903 0.0
C1643 C 0.47805 0.15816 0.39165 0.0
C1644 C 0.50039 0.13426 0.39993 0.0
C1645 C 0.48653 0.18016 0.36837 0.0
C1646 C 0.53211 0.13372 0.38589 0.0
C1647 C 0.54072 0.1555 0.36266 0.0
H1648 H 0.72331 0.86606 0.51356 0.0
H1649 H 0.70508 0.81012 0.42977 0.0
H1650 H 0.65424 0.83921 0.4193 0.0
H1651 H 0.61798 0.88367 0.43064 0.0
H1652 H 0.63787 0.94182 0.51241 0.0
H1653 H 0.68512 0.90892 0.52669 0.0
C1654 C 0.7083 0.86022 0.49295 0.0
C1655 C 0.71844 0.83602 0.47232 0.0
C1656 C 0.67949 0.87767 0.48648 0.0
C1657 C 0.69799 0.82835 0.44626 0.0
C1658 C 0.66899 0.84522 0.44005 0.0
C1659 C 0.63243 0.88905 0.45178 0.0
C1660 C 0.62451 0.91543 0.47022 0.0
C1661 C 0.65994 0.87038 0.45952 0.0
C1662 C 0.64346 0.92182 0.49765 0.0
C1663 C 0.67056 0.90303 0.5058 0.0
H1664 H 0.7386 0.15633 0.48299 0.0
H1665 H 0.68824 0.23148 0.53155 0.0
H1666 H 0.6369 0.20148 0.53197 0.0
H1667 H 0.60571 0.15398 0.51655 0.0
H1668 H 0.65858 0.07876 0.47127 0.0
H1669 H 0.71018 0.10805 0.47345 0.0
C1670 C 0.71686 0.16609 0.49463 0.0
C1671 C 0.71776 0.19629 0.50738 0.0
C1672 C 0.68789 0.14836 0.4959 0.0
C1673 C 0.68849 0.20857 0.52104 0.0
C1674 C 0.65911 0.19125 0.52166 0.0
C1675 C 0.62883 0.14384 0.50811 0.0
C1676 C 0.62872 0.11419 0.49419 0.0
C1677 C 0.65846 0.16111 0.50903 0.0
C1678 C 0.65843 0.10139 0.48253 0.0
C1679 C 0.68778 0.11824 0.48344 0.0
H1680 H 0.81526 0.67282 0.45171 0.0
H1681 H 0.83023 0.73172 0.53364 0.0
H1682 H 0.87818 0.70042 0.54977 0.0
H1683 H 0.91185 0.65345 0.54361 0.0
H1684 H 0.89774 0.59431 0.46166 0.0
H1685 H 0.85368 0.6286 0.44222 0.0
C1686 C 0.82932 0.67887 0.47289 0.0
C1687 C 0.81884 0.70397 0.49201 0.0
C1688 C 0.85676 0.66062 0.48207 0.0
C1689 C 0.83754 0.71211 0.519 0.0
C1690 C 0.86489 0.69423 0.52819 0.0
C1691 C 0.89945 0.64819 0.52127 0.0
C1692 C 0.90768 0.62091 0.50444 0.0
C1693 C 0.87411 0.66795 0.51041 0.0
C1694 C 0.89172 0.61486 0.47526 0.0
C1695 C 0.86642 0.63447 0.4642 0.0
H1696 H 0.30601 0.85042 0.48977 0.0
H1697 H 0.33534 0.81111 0.58002 0.0
H1698 H 0.38219 0.84701 0.58294 0.0
H1699 H 0.41005 0.89406 0.56317 0.0
H1700 H 0.37807 0.93467 0.47412 0.0
H1701 H 0.3371 0.89387 0.46747 0.0
C1702 C 0.32294 0.84945 0.5099 0.0
C1703 C 0.31694 0.82841 0.53486 0.0
C1704 C 0.34909 0.87073 0.51184 0.0
C1705 C 0.33943 0.82701 0.56047 0.0
C1706 C 0.36601 0.84777 0.56228 0.0
C1707 C 0.39447 0.89375 0.54206 0.0
C1708 C 0.39697 0.91771 0.51937 0.0
C1709 C 0.37038 0.87044 0.53864 0.0
C1710 C 0.3766 0.91677 0.49212 0.0
C1711 C 0.35308 0.89342 0.48829 0.0
H1712 H 0.17569 0.32375 0.54417 0.0
H1713 H 0.27416 0.35755 0.52489 0.0
H1714 H 0.2509 0.40597 0.50432 0.0
H1715 H 0.2026 0.43812 0.49083 0.0
H1716 H 0.10377 0.40424 0.5094 0.0
H1717 H 0.12704 0.35659 0.53152 0.0
C1718 C 0.19193 0.34194 0.53573 0.0
C1719 C 0.22655 0.33749 0.53654 0.0
C1720 C 0.17833 0.3696 0.52378 0.0
C1721 C 0.24746 0.36079 0.52494 0.0
C1722 C 0.23416 0.38838 0.51312 0.0
C1723 C 0.1861 0.4204 0.49982 0.0
C1724 C 0.15146 0.42477 0.49831 0.0
C1725 C 0.19964 0.39299 0.51233 0.0
C1726 C 0.13051 0.40149 0.51013 0.0
C1727 C 0.14381 0.3742 0.52277 0.0
H1728 H 0.30506 0.16974 0.47618 0.0
H1729 H 0.34735 0.23187 0.54565 0.0
H1730 H 0.39961 0.20272 0.54417 0.0
H1731 H 0.42825 0.15401 0.53141 0.0
H1732 H 0.38476 0.09012 0.46448 0.0
H1733 H 0.33839 0.12587 0.45571 0.0
C1734 C 0.32612 0.17732 0.49026 0.0
C1735 C 0.32238 0.20253 0.51139 0.0
C1736 C 0.3557 0.15999 0.48983 0.0
C1737 C 0.34975 0.21251 0.52928 0.0
C1738 C 0.37949 0.19569 0.52862 0.0
C1739 C 0.40911 0.1484 0.51412 0.0
C1740 C 0.40964 0.11939 0.49876 0.0
C1741 C 0.38206 0.16856 0.51021 0.0
C1742 C 0.38501 0.11239 0.47627 0.0
C1743 C 0.35825 0.13267 0.47167 0.0
H1744 H 0.77123 0.37258 0.47396 0.0
H1745 H 0.85169 0.30835 0.48968 0.0
H1746 H 0.88843 0.35094 0.50422 0.0
H1747 H 0.897 0.4063 0.51451 0.0
H1748 H 0.81648 0.47073 0.49856 0.0
H1749 H 0.7808 0.42842 0.48126 0.0
C1750 C 0.79688 0.36802 0.48036 0.0
C1751 C 0.8087 0.33737 0.48102 0.0
C1752 C 0.81791 0.39269 0.48845 0.0
C1753 C 0.84198 0.33171 0.4893 0.0
C1754 C 0.86301 0.35607 0.4975 0.0
C1755 C 0.87175 0.41116 0.50696 0.0
C1756 C 0.8594 0.44166 0.50811 0.0
C1757 C 0.85117 0.38664 0.49744 0.0
C1758 C 0.82659 0.44746 0.49821 0.0
C1759 C 0.8061 0.42326 0.48834 0.0
H1760 H 0.1865 0.72107 0.50884 0.0
H1761 H 0.24701 0.65556 0.56013 0.0
H1762 H 0.20148 0.61819 0.55971 0.0
H1763 H 0.14719 0.60184 0.53814 0.0
H1764 H 0.08762 0.6669 0.48534 0.0
H1765 H 0.1296 0.70685 0.49316 0.0
C1766 C 0.1894 0.69879 0.52038 0.0
C1767 C 0.22017 0.69079 0.53395 0.0
C1768 C 0.16321 0.67734 0.51971 0.0
C1769 C 0.22365 0.662 0.54912 0.0
C1770 C 0.19762 0.64065 0.54889 0.0
C1771 C 0.14274 0.62513 0.52973 0.0
C1772 C 0.11403 0.63159 0.5118 0.0
C1773 C 0.16758 0.64773 0.53347 0.0
C1774 C 0.10935 0.66153 0.49957 0.0
C1775 C 0.13348 0.6843 0.50381 0.0
loop_
_geom_bond_atom_site_label_1
_geom_bond_atom_site_label_2
_geom_bond_distance
_geom_bond_site_symmetry_2
_ccdc_geom_bond_type
H0 C7 0.929 . S
H1 C10 0.930 . S
H2 C12 0.929 . S
H3 C4 0.969 . S
C4 H3 0.969 . S
C4 O5 1.550 . S
C4 H6 0.973 . S
O5 C4 1.550 . S
O5 C11 1.412 . S
H6 C4 0.973 . S
C7 H0 0.929 . S
C7 C8 1.400 . S
C7 C9 1.364 . S
C8 C7 1.400 . S
C8 C12 1.377 . S
C9 C7 1.364 . S
C9 C10 1.374 . S
C10 H1 0.930 . S
C10 C9 1.374 . S
C10 C11 1.383 . S
C11 O5 1.412 . S
C11 C10 1.383 . S
C11 C12 1.394 . S
C12 H2 0.929 . S
C12 C8 1.377 . S
C12 C11 1.394 . S
H13 C20 0.929 . S
H14 C23 0.930 . S
H15 C25 0.929 . S
H16 C17 0.969 . S
C17 H16 0.969 . S
C17 O18 1.550 . S
C17 H19 0.973 . S
O18 C17 1.550 . S
O18 C24 1.412 . S
H19 C17 0.973 . S
C20 H13 0.929 . S
C20 C21 1.400 . S
C20 C22 1.364 . S
C21 C20 1.400 . S
C21 C25 1.377 . S
C22 C20 1.364 . S
C22 C23 1.374 . S
C23 H14 0.930 . S
C23 C22 1.374 . S
C23 C24 1.383 . S
C24 O18 1.412 . S
C24 C23 1.383 . S
C24 C25 1.394 . S
C25 H15 0.929 . S
C25 C21 1.377 . S
C25 C24 1.394 . S
H26 C33 0.929 . S
H27 C36 0.930 . S
H28 C38 0.929 . S
H29 C30 0.969 1_655 S
C30 H29 0.969 1_455 S
C30 O31 1.550 . S
C30 H32 0.973 . S
O31 C30 1.550 . S
O31 C37 1.412 . S
H32 C30 0.973 . S
C33 H26 0.929 . S
C33 C34 1.400 . S
C33 C35 1.364 . S
C34 C33 1.400 . S
C34 C38 1.377 . S
C35 C33 1.364 . S
C35 C36 1.374 . S
C36 H27 0.930 . S
C36 C35 1.374 . S
C36 C37 1.383 . S
C37 O31 1.412 . S
C37 C36 1.383 . S
C37 C38 1.394 . S
C38 H28 0.929 . S
C38 C34 1.377 . S
C38 C37 1.394 . S
H39 C46 0.929 . S
H40 C49 0.930 . S
H41 C51 0.929 . S
H42 C43 0.969 . S
C43 H42 0.969 . S
C43 O44 1.550 1_545 S
C43 H45 0.973 1_545 S
O44 C43 1.550 1_565 S
O44 C50 1.412 1_565 S
H45 C43 0.973 1_565 S
C46 H39 0.929 . S
C46 C47 1.400 . S
C46 C48 1.364 . S
C47 C46 1.400 . S
C47 C51 1.377 . S
C48 C46 1.364 . S
C48 C49 1.374 . S
C49 H40 0.930 . S
C49 C48 1.374 . S
C49 C50 1.383 . S
C50 O44 1.412 1_545 S
C50 C49 1.383 . S
C50 C51 1.394 . S
C51 H41 0.929 . S
C51 C47 1.377 . S
C51 C50 1.394 . S
H52 C59 0.930 . S
H53 C62 0.930 . S
H54 C64 0.929 . S
H55 C56 0.969 . S
C56 H55 0.969 . S
C56 O57 1.550 1_655 S
C56 H58 0.973 1_655 S
O57 C56 1.550 1_455 S
O57 C63 1.412 1_455 S
H58 C56 0.973 1_455 S
C59 H52 0.930 . S
C59 C60 1.400 . S
C59 C61 1.364 . S
C60 C59 1.400 . S
C60 C64 1.377 . S
C61 C59 1.364 . S
C61 C62 1.374 . S
C62 H53 0.930 . S
C62 C61 1.374 . S
C62 C63 1.383 1_455 S
C63 O57 1.412 1_655 S
C63 C62 1.383 1_655 S
C63 C64 1.394 1_655 S
C64 H54 0.929 . S
C64 C60 1.377 . S
C64 C63 1.394 1_455 S
H65 C72 0.929 . S
H66 C75 0.930 . S
H67 C77 0.929 . S
H68 C69 0.971 . S
C69 H68 0.971 . S
C69 O70 1.549 1_565 S
C69 H71 0.972 1_565 S
O70 C69 1.549 1_545 S
O70 C76 1.412 . S
H71 C69 0.972 1_545 S
C72 H65 0.929 . S
C72 C73 1.400 . S
C72 C74 1.364 . S
C73 C72 1.400 . S
C73 C77 1.377 . S
C74 C72 1.364 . S
C74 C75 1.374 . S
C75 H66 0.930 . S
C75 C74 1.374 . S
C75 C76 1.383 . S
C76 O70 1.412 . S
C76 C75 1.383 . S
C76 C77 1.394 . S
C77 H67 0.929 . S
C77 C73 1.377 . S
C77 C76 1.394 . S
H78 C85 0.929 . S
H79 C88 0.930 . S
H80 C90 0.929 . S
H81 C82 0.969 1_655 S
C82 H81 0.969 1_455 S
C82 O83 1.550 . S
C82 H84 0.973 . S
O83 C82 1.550 . S
O83 C89 1.412 . S
H84 C82 0.973 . S
C85 H78 0.929 . S
C85 C86 1.400 . S
C85 C87 1.364 . S
C86 C85 1.400 . S
C86 C90 1.377 . S
C87 C85 1.364 . S
C87 C88 1.374 . S
C88 H79 0.930 . S
C88 C87 1.374 . S
C88 C89 1.383 . S
C89 O83 1.412 . S
C89 C88 1.383 . S
C89 C90 1.394 . S
C90 H80 0.929 . S
C90 C86 1.377 . S
C90 C89 1.394 . S
H91 C98 0.929 . S
H92 C101 0.930 . S
H93 C103 0.929 . S
H94 C95 0.969 . S
C95 H94 0.969 . S
C95 O96 1.550 . S
C95 H97 0.973 . S
O96 C95 1.550 . S
O96 C102 1.412 . S
H97 C95 0.973 . S
C98 H91 0.929 . S
C98 C99 1.400 . S
C98 C100 1.364 . S
C99 C98 1.400 . S
C99 C103 1.377 . S
C100 C98 1.364 . S
C100 C101 1.374 . S
C101 H92 0.930 . S
C101 C100 1.374 . S
C101 C102 1.383 . S
C102 O96 1.412 . S
C102 C101 1.383 . S
C102 C103 1.394 . S
C103 H93 0.929 . S
C103 C99 1.377 . S
C103 C102 1.394 . S
H104 C111 0.929 . S
H105 C114 0.930 . S
H106 C116 0.929 . S
H107 C108 0.969 . S
C108 H107 0.969 . S
C108 O109 1.550 . S
C108 H110 0.973 . S
O109 C108 1.550 . S
O109 C115 1.412 . S
H110 C108 0.973 . S
C111 H104 0.929 . S
C111 C112 1.400 . S
C111 C113 1.364 . S
C112 C111 1.400 . S
C112 C116 1.377 . S
C113 C111 1.364 . S
C113 C114 1.374 . S
C114 H105 0.930 . S
C114 C113 1.374 . S
C114 C115 1.383 . S
C115 O109 1.412 . S
C115 C114 1.383 . S
C115 C116 1.394 . S
C116 H106 0.929 . S
C116 C112 1.377 . S
C116 C115 1.394 . S
H117 C124 0.929 . S
H118 C127 0.930 . S
H119 C129 0.929 . S
H120 C121 0.969 1_556 S
C121 H120 0.969 1_554 S
C121 O122 1.550 . S
C121 H123 0.973 . S
O122 C121 1.550 . S
O122 C128 1.412 . S
H123 C121 0.973 . S
C124 H117 0.929 . S
C124 C125 1.400 . S
C124 C126 1.364 . S
C125 C124 1.400 . S
C125 C129 1.377 . S
C126 C124 1.364 . S
C126 C127 1.374 . S
C127 H118 0.930 . S
C127 C126 1.374 . S
C127 C128 1.383 . S
C128 O122 1.412 . S
C128 C127 1.383 . S
C128 C129 1.394 . S
C129 H119 0.929 . S
C129 C125 1.377 . S
C129 C128 1.394 . S
H130 C137 0.928 . S
H131 C140 0.932 . S
H132 C142 0.928 . S
H133 C134 0.969 . S
C134 H133 0.969 . S
C134 O135 1.550 1_556 S
C134 H136 0.973 1_556 S
O135 C134 1.550 1_554 S
O135 C141 1.409 1_554 S
H136 C134 0.973 1_554 S
C137 H130 0.928 . S
C137 C138 1.399 1_554 S
C137 C139 1.364 . S
C138 C137 1.399 1_556 S
C138 C142 1.377 1_556 S
C139 C137 1.364 . S
C139 C140 1.374 . S
C140 H131 0.932 . S
C140 C139 1.374 . S
C140 C141 1.382 1_554 S
C141 O135 1.409 1_556 S
C141 C140 1.382 1_556 S
C141 C142 1.394 1_556 S
C142 H132 0.928 . S
C142 C138 1.377 1_554 S
C142 C141 1.394 1_554 S
H143 C150 0.929 . S
H144 C153 0.930 . S
H145 C155 0.929 . S
H146 C147 0.969 . S
C147 H146 0.969 . S
C147 O148 1.550 1_554 S
C147 H149 0.973 1_554 S
O148 C147 1.550 1_556 S
O148 C154 1.412 1_556 S
H149 C147 0.973 1_556 S
C150 H143 0.929 . S
C150 C151 1.400 . S
C150 C152 1.364 . S
C151 C150 1.400 . S
C151 C155 1.377 . S
C152 C150 1.364 . S
C152 C153 1.374 . S
C153 H144 0.930 . S
C153 C152 1.374 . S
C153 C154 1.383 . S
C154 O148 1.412 1_554 S
C154 C153 1.383 . S
C154 C155 1.394 . S
C155 H145 0.929 . S
C155 C151 1.377 . S
C155 C154 1.394 . S
H156 C163 0.929 . S
H157 C166 0.930 . S
H158 C168 0.929 . S
H159 C160 0.969 . S
C160 H159 0.969 . S
C160 O161 1.550 . S
C160 H162 0.973 . S
O161 C160 1.550 . S
O161 C167 1.412 . S
H162 C160 0.973 . S
C163 H156 0.929 . S
C163 C164 1.400 . S
C163 C165 1.364 . S
C164 C163 1.400 . S
C164 C168 1.377 . S
C165 C163 1.364 . S
C165 C166 1.374 . S
C166 H157 0.930 . S
C166 C165 1.374 . S
C166 C167 1.383 . S
C167 O161 1.412 . S
C167 C166 1.383 . S
C167 C168 1.394 . S
C168 H158 0.929 . S
C168 C164 1.377 . S
C168 C167 1.394 . S
H169 C176 0.929 . S
H170 C179 0.930 . S
H171 C181 0.929 . S
H172 C173 0.969 . S
C173 H172 0.969 . S
C173 O174 1.550 . S
C173 H175 0.973 . S
O174 C173 1.550 . S
O174 C180 1.412 . S
H175 C173 0.973 . S
C176 H169 0.929 . S
C176 C177 1.400 . S
C176 C178 1.364 . S
C177 C176 1.400 . S
C177 C181 1.377 . S
C178 C176 1.364 . S
C178 C179 1.374 . S
C179 H170 0.930 . S
C179 C178 1.374 . S
C179 C180 1.383 . S
C180 O174 1.412 . S
C180 C179 1.383 . S
C180 C181 1.394 . S
C181 H171 0.929 . S
C181 C177 1.377 . S
C181 C180 1.394 . S
H182 C189 0.929 . S
H183 C192 0.930 . S
H184 C194 0.929 . S
H185 C186 0.969 . S
C186 H185 0.969 . S
C186 O187 1.550 . S
C186 H188 0.973 . S
O187 C186 1.550 . S
O187 C193 1.412 . S
H188 C186 0.973 . S
C189 H182 0.929 . S
C189 C190 1.400 . S
C189 C191 1.364 . S
C190 C189 1.400 . S
C190 C194 1.377 . S
C191 C189 1.364 . S
C191 C192 1.374 . S
C192 H183 0.930 . S
C192 C191 1.374 . S
C192 C193 1.383 . S
C193 O187 1.412 . S
C193 C192 1.383 . S
C193 C194 1.394 . S
C194 H184 0.929 . S
C194 C190 1.377 . S
C194 C193 1.394 . S
H195 C202 0.929 . S
H196 C205 0.930 . S
H197 C207 0.929 . S
H198 C199 0.969 . S
C199 H198 0.969 . S
C199 O200 1.550 . S
C199 H201 0.973 . S
O200 C199 1.550 . S
O200 C206 1.412 . S
H201 C199 0.973 . S
C202 H195 0.929 . S
C202 C203 1.400 . S
C202 C204 1.364 . S
C203 C202 1.400 . S
C203 C207 1.377 . S
C204 C202 1.364 . S
C204 C205 1.374 . S
C205 H196 0.930 . S
C205 C204 1.374 . S
C205 C206 1.383 . S
C206 O200 1.412 . S
C206 C205 1.383 . S
C206 C207 1.394 . S
C207 H197 0.929 . S
C207 C203 1.377 . S
C207 C206 1.394 . S
H208 C215 0.929 . S
H209 C218 0.930 . S
H210 C220 0.929 . S
H211 C212 0.969 . S
C212 H211 0.969 . S
C212 O213 1.550 . S
C212 H214 0.973 . S
O213 C212 1.550 . S
O213 C219 1.412 . S
H214 C212 0.973 . S
C215 H208 0.929 . S
C215 C216 1.400 . S
C215 C217 1.364 . S
C216 C215 1.400 . S
C216 C220 1.377 . S
C217 C215 1.364 . S
C217 C218 1.374 . S
C218 H209 0.930 . S
C218 C217 1.374 . S
C218 C219 1.383 . S
C219 O213 1.412 . S
C219 C218 1.383 . S
C219 C220 1.394 . S
C220 H210 0.929 . S
C220 C216 1.377 . S
C220 C219 1.394 . S
H221 C228 0.929 . S
H222 C231 0.930 . S
H223 C233 0.929 . S
H224 C225 0.969 . S
C225 H224 0.969 . S
C225 O226 1.550 . S
C225 H227 0.973 . S
O226 C225 1.550 . S
O226 C232 1.412 . S
H227 C225 0.973 . S
C228 H221 0.929 . S
C228 C229 1.400 . S
C228 C230 1.364 . S
C229 C228 1.400 . S
C229 C233 1.377 . S
C230 C228 1.364 . S
C230 C231 1.374 . S
C231 H222 0.930 . S
C231 C230 1.374 . S
C231 C232 1.383 . S
C232 O226 1.412 . S
C232 C231 1.383 . S
C232 C233 1.394 . S
C233 H223 0.929 . S
C233 C229 1.377 . S
C233 C232 1.394 . S
H234 C241 0.929 . S
H235 C244 0.930 . S
H236 C246 0.929 . S
H237 C238 0.969 . S
C238 H237 0.969 . S
C238 O239 1.550 . S
C238 H240 0.973 . S
O239 C238 1.550 . S
O239 C245 1.412 . S
H240 C238 0.973 . S
C241 H234 0.929 . S
C241 C242 1.400 . S
C241 C243 1.364 . S
C242 C241 1.400 . S
C242 C246 1.377 . S
C243 C241 1.364 . S
C243 C244 1.374 . S
C244 H235 0.930 . S
C244 C243 1.374 . S
C244 C245 1.383 . S
C245 O239 1.412 . S
C245 C244 1.383 . S
C245 C246 1.394 . S
C246 H236 0.929 . S
C246 C242 1.377 . S
C246 C245 1.394 . S
H247 C254 0.929 . S
H248 C257 0.930 . S
H249 C259 0.929 . S
H250 C251 0.969 . S
C251 H250 0.969 . S
C251 O252 1.550 . S
C251 H253 0.973 . S
O252 C251 1.550 . S
O252 C258 1.412 . S
H253 C251 0.973 . S
C254 H247 0.929 . S
C254 C255 1.400 . S
C254 C256 1.364 . S
C255 C254 1.400 . S
C255 C259 1.377 . S
C256 C254 1.364 . S
C256 C257 1.374 . S
C257 H248 0.930 . S
C257 C256 1.374 . S
C257 C258 1.383 . S
C258 O252 1.412 . S
C258 C257 1.383 . S
C258 C259 1.394 . S
C259 H249 0.929 . S
C259 C255 1.377 . S
C259 C258 1.394 . S
H260 C267 0.929 . S
H261 C270 0.930 . S
H262 C272 0.929 . S
H263 C264 0.969 . S
C264 H263 0.969 . S
C264 O265 1.550 . S
C264 H266 0.973 . S
O265 C264 1.550 . S
O265 C271 1.412 . S
H266 C264 0.973 . S
C267 H260 0.929 . S
C267 C268 1.400 . S
C267 C269 1.364 . S
C268 C267 1.400 . S
C268 C272 1.377 . S
C269 C267 1.364 . S
C269 C270 1.374 . S
C270 H261 0.930 . S
C270 C269 1.374 . S
C270 C271 1.383 . S
C271 O265 1.412 . S
C271 C270 1.383 . S
C271 C272 1.394 . S
C272 H262 0.929 . S
C272 C268 1.377 . S
C272 C271 1.394 . S
H273 C280 0.929 . S
H274 C283 0.930 . S
H275 C285 0.929 . S
H276 C277 0.969 . S
C277 H276 0.969 . S
C277 O278 1.550 . S
C277 H279 0.973 . S
O278 C277 1.550 . S
O278 C284 1.412 . S
H279 C277 0.973 . S
C280 H273 0.929 . S
C280 C281 1.400 . S
C280 C282 1.364 . S
C281 C280 1.400 . S
C281 C285 1.377 . S
C282 C280 1.364 . S
C282 C283 1.374 . S
C283 H274 0.930 . S
C283 C282 1.374 . S
C283 C284 1.383 . S
C284 O278 1.412 . S
C284 C283 1.383 . S
C284 C285 1.394 . S
C285 H275 0.929 . S
C285 C281 1.377 . S
C285 C284 1.394 . S
H286 C293 0.929 . S
H287 C296 0.930 . S
H288 C298 0.929 . S
H289 C290 0.969 . S
C290 H289 0.969 . S
C290 O291 1.550 . S
C290 H292 0.973 . S
O291 C290 1.550 . S
O291 C297 1.412 . S
H292 C290 0.973 . S
C293 H286 0.929 . S
C293 C294 1.400 . S
C293 C295 1.364 . S
C294 C293 1.400 . S
C294 C298 1.377 . S
C295 C293 1.364 . S
C295 C296 1.374 . S
C296 H287 0.930 . S
C296 C295 1.374 . S
C296 C297 1.383 . S
C297 O291 1.412 . S
C297 C296 1.383 . S
C297 C298 1.394 . S
C298 H288 0.929 . S
C298 C294 1.377 . S
C298 C297 1.394 . S
H299 C306 0.929 . S
H300 C309 0.930 . S
H301 C311 0.929 . S
H302 C303 0.969 . S
C303 H302 0.969 . S
C303 O304 1.550 . S
C303 H305 0.973 . S
O304 C303 1.550 . S
O304 C310 1.412 . S
H305 C303 0.973 . S
C306 H299 0.929 . S
C306 C307 1.400 . S
C306 C308 1.364 . S
C307 C306 1.400 . S
C307 C311 1.377 . S
C308 C306 1.364 . S
C308 C309 1.374 . S
C309 H300 0.930 . S
C309 C308 1.374 . S
C309 C310 1.383 . S
C310 O304 1.412 . S
C310 C309 1.383 . S
C310 C311 1.394 . S
C311 H301 0.929 . S
C311 C307 1.377 . S
C311 C310 1.394 . S
Zn312 O314 1.933 1_565 S
Zn312 O332 1.985 . S
Zn312 O343 1.955 . S
Zn313 O314 1.911 . S
Zn313 O333 1.970 . S
Zn313 O349 1.945 . S
Zn313 O356 1.981 . S
O314 Zn312 1.933 1_545 S
O314 Zn313 1.911 . S
O314 H315 0.841 1_655 S
H315 O314 0.841 1_455 S
C316 O317 1.246 . S
C316 O345 1.276 . S
O317 C316 1.246 . S
Zn318 O320 1.911 . S
Zn318 O335 1.970 . S
Zn318 O352 1.945 . S
Zn318 O359 1.981 . S
Zn319 O320 1.933 1_565 S
Zn319 O334 1.985 . S
Zn319 O341 1.955 . S
O320 Zn318 1.911 . S
O320 Zn319 1.933 1_545 S
O320 H321 0.841 . S
H321 O320 0.841 . S
Zn322 O323 1.933 1_565 S
Zn322 O336 1.985 . S
Zn322 O345 1.955 . S
O323 Zn322 1.933 1_545 S
O323 Zn324 1.911 . S
O323 H325 0.841 . S
Zn324 O323 1.911 . S
Zn324 O337 1.970 . S
Zn324 O353 1.981 . S
Zn324 O355 1.945 . S
H325 O323 0.841 . S
Zn326 O327 1.933 1_565 S
Zn326 O339 1.985 . S
Zn326 O347 1.955 . S
O327 Zn326 1.933 1_545 S
O327 H328 0.841 . S
O327 Zn329 1.911 . S
H328 O327 0.841 . S
Zn329 O327 1.911 . S
Zn329 O340 1.970 . S
Zn329 O350 1.981 . S
Zn329 O358 1.945 . S
C330 O331 1.246 . S
C330 O347 1.276 . S
O331 C330 1.246 . S
O332 Zn312 1.985 . S
O332 C342 1.245 1_565 S
O333 Zn313 1.970 . S
O333 C342 1.263 . S
O334 Zn319 1.985 . S
O334 C346 1.245 1_565 S
O335 Zn318 1.970 . S
O335 C346 1.263 . S
O336 Zn322 1.985 . S
O336 C351 1.245 1_565 S
O337 Zn324 1.970 . S
O337 C351 1.263 . S
C338 O349 1.262 1_455 S
C338 O350 1.245 . S
O339 Zn326 1.985 . S
O339 C357 1.245 1_565 S
O340 Zn329 1.970 . S
O340 C357 1.263 . S
O341 Zn319 1.955 . S
O341 C360 1.276 . S
C342 O332 1.245 1_545 S
C342 O333 1.263 . S
O343 Zn312 1.955 . S
O343 C362 1.276 1_655 S
C344 O352 1.262 . S
C344 O353 1.245 1_455 S
O345 C316 1.276 . S
O345 Zn322 1.955 . S
C346 O334 1.245 1_545 S
C346 O335 1.263 . S
O347 Zn326 1.955 . S
O347 C330 1.276 . S
C348 O355 1.262 . S
C348 O356 1.245 . S
O349 Zn313 1.945 . S
O349 C338 1.262 1_655 S
O350 Zn329 1.981 . S
O350 C338 1.245 . S
C351 O336 1.245 1_545 S
C351 O337 1.263 . S
O352 Zn318 1.945 . S
O352 C344 1.262 . S
O353 Zn324 1.981 . S
O353 C344 1.245 1_655 S
C354 O358 1.262 . S
C354 O359 1.245 . S
O355 Zn324 1.945 . S
O355 C348 1.262 . S
O356 Zn313 1.981 . S
O356 C348 1.245 . S
C357 O339 1.245 1_545 S
C357 O340 1.263 . S
O358 Zn329 1.945 . S
O358 C354 1.262 . S
O359 Zn318 1.981 . S
O359 C354 1.245 . S
C360 O341 1.276 . S
C360 O361 1.246 1_455 S
O361 C360 1.246 1_655 S
C362 O343 1.276 1_455 S
C362 O363 1.246 . S
O363 C362 1.246 . S
Zn364 O366 1.933 . S
Zn364 O384 1.985 . S
Zn364 O395 1.955 . S
Zn365 O366 1.911 1_556 S
Zn365 O385 1.970 . S
Zn365 O401 1.945 . S
Zn365 O408 1.981 . S
O366 Zn364 1.933 . S
O366 Zn365 1.911 1_554 S
O366 H367 0.841 . S
H367 O366 0.841 . S
C368 O369 1.246 . S
C368 O397 1.276 . S
O369 C368 1.246 . S
Zn370 O372 1.911 1_556 S
Zn370 O387 1.970 . S
Zn370 O404 1.945 . S
Zn370 O411 1.981 . S
Zn371 O372 1.933 . S
Zn371 O386 1.985 . S
Zn371 O393 1.955 . S
O372 Zn370 1.911 1_554 S
O372 Zn371 1.933 . S
O372 H373 0.841 1_565 S
H373 O372 0.841 1_545 S
Zn374 O375 1.933 . S
Zn374 O388 1.985 . S
Zn374 O397 1.955 . S
O375 Zn374 1.933 . S
O375 Zn376 1.911 1_554 S
O375 H377 0.841 . S
Zn376 O375 1.911 1_556 S
Zn376 O389 1.970 . S
Zn376 O405 1.981 . S
Zn376 O407 1.945 . S
H377 O375 0.841 . S
Zn378 O379 1.933 . S
Zn378 O391 1.985 . S
Zn378 O399 1.955 . S
O379 Zn378 1.933 . S
O379 H380 0.841 . S
O379 Zn381 1.911 1_554 S
H380 O379 0.841 . S
Zn381 O379 1.911 1_556 S
Zn381 O392 1.970 . S
Zn381 O402 1.978 1_565 S
Zn381 O410 1.945 . S
C382 O383 1.246 . S
C382 O399 1.276 . S
O383 C382 1.246 . S
O384 Zn364 1.985 . S
O384 C394 1.245 . S
O385 Zn365 1.970 . S
O385 C394 1.263 1_556 S
O386 Zn371 1.985 . S
O386 C398 1.245 . S
O387 Zn370 1.970 . S
O387 C398 1.263 1_556 S
O388 Zn374 1.985 . S
O388 C403 1.245 . S
O389 Zn376 1.970 . S
O389 C403 1.263 1_556 S
C390 O401 1.262 . S
C390 O402 1.247 . S
O391 Zn378 1.985 . S
O391 C409 1.245 . S
O392 Zn381 1.970 . S
O392 C409 1.263 1_556 S
O393 Zn371 1.955 . S
O393 C412 1.276 1_565 S
C394 O384 1.245 . S
C394 O385 1.263 1_554 S
O395 Zn364 1.955 . S
O395 C414 1.276 . S
C396 O404 1.262 1_545 S
C396 O405 1.245 . S
O397 C368 1.276 . S
O397 Zn374 1.955 . S
C398 O386 1.245 . S
C398 O387 1.263 1_554 S
O399 Zn378 1.955 . S
O399 C382 1.276 . S
C400 O407 1.262 . S
C400 O408 1.245 . S
O401 Zn365 1.945 . S
O401 C390 1.262 . S
O402 Zn381 1.978 1_545 S
O402 C390 1.247 . S
C403 O388 1.245 . S
C403 O389 1.263 1_554 S
O404 Zn370 1.945 . S
O404 C396 1.262 1_565 S
O405 Zn376 1.981 . S
O405 C396 1.245 . S
C406 O410 1.262 . S
C406 O411 1.245 . S
O407 Zn376 1.945 . S
O407 C400 1.262 . S
O408 Zn365 1.981 . S
O408 C400 1.245 . S
C409 O391 1.245 . S
C409 O392 1.263 1_554 S
O410 Zn381 1.945 . S
O410 C406 1.262 . S
O411 Zn370 1.981 . S
O411 C406 1.245 . S
C412 O393 1.276 1_545 S
C412 O413 1.246 . S
O413 C412 1.246 . S
C414 O395 1.276 . S
C414 O415 1.246 1_545 S
O415 C414 1.246 1_565 S
Zn416 O418 1.933 1_655 S
Zn416 O436 1.985 . S
Zn416 O447 1.955 1_655 S
Zn417 O418 1.911 1_655 S
Zn417 O437 1.970 . S
Zn417 O453 1.945 . S
Zn417 O460 1.981 . S
O418 Zn416 1.933 1_455 S
O418 Zn417 1.911 1_455 S
O418 H419 0.841 . S
H419 O418 0.841 . S
C420 O421 1.246 1_554 S
C420 O449 1.276 . S
O421 C420 1.246 1_556 S
Zn422 O424 1.911 . S
Zn422 O439 1.970 . S
Zn422 O456 1.945 . S
Zn422 O463 1.981 . S
Zn423 O424 1.933 . S
Zn423 O438 1.985 . S
Zn423 O445 1.955 . S
O424 Zn422 1.911 . S
O424 Zn423 1.933 . S
O424 H425 0.841 . S
H425 O424 0.841 . S
Zn426 O427 1.933 . S
Zn426 O440 1.985 . S
Zn426 O449 1.955 . S
O427 Zn426 1.933 . S
O427 Zn428 1.911 . S
O427 H429 0.841 . S
Zn428 O427 1.911 . S
Zn428 O441 1.970 . S
Zn428 O457 1.981 1_655 S
Zn428 O459 1.945 . S
H429 O427 0.841 . S
Zn430 O431 1.933 . S
Zn430 O443 1.985 . S
Zn430 O451 1.955 . S
O431 Zn430 1.933 . S
O431 H432 0.814 1_556 S
O431 Zn433 1.911 . S
H432 O431 0.814 1_554 S
Zn433 O431 1.911 . S
Zn433 O444 1.970 . S
Zn433 O454 1.981 . S
Zn433 O462 1.945 . S
C434 O435 1.246 . S
C434 O451 1.276 1_554 S
O435 C434 1.246 . S
O436 Zn416 1.985 . S
O436 C446 1.245 . S
O437 Zn417 1.970 . S
O437 C446 1.263 . S
O438 Zn423 1.985 . S
O438 C450 1.245 . S
O439 Zn422 1.970 . S
O439 C450 1.263 . S
O440 Zn426 1.985 . S
O440 C455 1.245 . S
O441 Zn428 1.970 . S
O441 C455 1.263 . S
C442 O453 1.262 1_455 S
C442 O454 1.245 . S
O443 Zn430 1.985 . S
O443 C461 1.245 . S
O444 Zn433 1.970 . S
O444 C461 1.263 . S
O445 Zn423 1.955 . S
O445 C464 1.276 . S
C446 O436 1.245 . S
C446 O437 1.263 . S
O447 Zn416 1.955 1_455 S
O447 C466 1.276 . S
C448 O456 1.262 . S
C448 O457 1.245 . S
O449 C420 1.276 . S
O449 Zn426 1.955 . S
C450 O438 1.245 . S
C450 O439 1.263 . S
O451 Zn430 1.955 . S
O451 C434 1.276 1_556 S
C452 O459 1.262 . S
C452 O460 1.245 1_554 S
O453 Zn417 1.945 . S
O453 C442 1.262 1_655 S
O454 Zn433 1.981 . S
O454 C442 1.245 . S
C455 O440 1.245 . S
C455 O441 1.263 . S
O456 Zn422 1.945 . S
O456 C448 1.262 . S
O457 Zn428 1.981 1_455 S
O457 C448 1.245 . S
C458 O462 1.262 1_554 S
C458 O463 1.245 . S
O459 Zn428 1.945 . S
O459 C452 1.262 . S
O460 Zn417 1.981 . S
O460 C452 1.245 1_556 S
C461 O443 1.245 . S
C461 O444 1.263 . S
O462 Zn433 1.945 . S
O462 C458 1.262 1_556 S
O463 Zn422 1.981 . S
O463 C458 1.245 . S
C464 O445 1.276 . S
C464 O465 1.246 . S
O465 C464 1.246 . S
C466 O447 1.276 . S
C466 O467 1.246 . S
O467 C466 1.246 . S
Zn468 O470 1.933 1_556 S
Zn468 O488 1.985 . S
Zn468 O499 1.955 . S
Zn469 O470 1.911 . S
Zn469 O489 1.970 . S
Zn469 O505 1.945 . S
Zn469 O512 1.981 . S
O470 Zn468 1.933 1_554 S
O470 Zn469 1.911 . S
O470 H471 0.841 . S
H471 O470 0.841 . S
C472 O473 1.246 . S
C472 O501 1.276 . S
O473 C472 1.246 . S
Zn474 O476 1.911 . S
Zn474 O491 1.970 . S
Zn474 O508 1.945 . S
Zn474 O515 1.981 . S
Zn475 O476 1.933 1_556 S
Zn475 O490 1.985 . S
Zn475 O497 1.955 . S
O476 Zn474 1.911 . S
O476 Zn475 1.933 1_554 S
O476 H477 0.841 . S
H477 O476 0.841 . S
Zn478 O479 1.933 1_556 S
Zn478 O492 1.985 . S
Zn478 O501 1.955 . S
O479 Zn478 1.933 1_554 S
O479 Zn480 1.911 . S
O479 H481 0.841 . S
Zn480 O479 1.911 . S
Zn480 O493 1.970 . S
Zn480 O509 1.981 . S
Zn480 O511 1.945 . S
H481 O479 0.841 . S
Zn482 O483 1.933 1_556 S
Zn482 O495 1.985 . S
Zn482 O503 1.955 . S
O483 Zn482 1.933 1_554 S
O483 H484 0.841 . S
O483 Zn485 1.911 . S
H484 O483 0.841 . S
Zn485 O483 1.911 . S
Zn485 O496 1.970 . S
Zn485 O506 1.981 . S
Zn485 O514 1.945 . S
C486 O487 1.246 . S
C486 O503 1.276 . S
O487 C486 1.246 . S
O488 Zn468 1.985 . S
O488 C498 1.245 1_556 S
O489 Zn469 1.970 . S
O489 C498 1.263 . S
O490 Zn475 1.985 . S
O490 C502 1.245 1_556 S
O491 Zn474 1.970 . S
O491 C502 1.263 . S
O492 Zn478 1.985 . S
O492 C507 1.245 1_556 S
O493 Zn480 1.970 . S
O493 C507 1.263 . S
C494 O505 1.262 . S
C494 O506 1.245 . S
O495 Zn482 1.985 . S
O495 C513 1.245 1_556 S
O496 Zn485 1.970 . S
O496 C513 1.263 . S
O497 Zn475 1.955 . S
O497 C516 1.276 . S
C498 O488 1.245 1_554 S
C498 O489 1.263 . S
O499 Zn468 1.955 . S
O499 C518 1.276 . S
C500 O508 1.262 . S
C500 O509 1.245 . S
O501 C472 1.276 . S
O501 Zn478 1.955 . S
C502 O490 1.245 1_554 S
C502 O491 1.263 . S
O503 Zn482 1.955 . S
O503 C486 1.276 . S
C504 O511 1.262 . S
C504 O512 1.245 . S
O505 Zn469 1.945 . S
O505 C494 1.262 . S
O506 Zn485 1.981 . S
O506 C494 1.245 . S
C507 O492 1.245 1_554 S
C507 O493 1.263 . S
O508 Zn474 1.945 . S
O508 C500 1.262 . S
O509 Zn480 1.981 . S
O509 C500 1.245 . S
C510 O514 1.262 . S
C510 O515 1.245 . S
O511 Zn480 1.945 . S
O511 C504 1.262 . S
O512 Zn469 1.981 . S
O512 C504 1.245 . S
C513 O495 1.245 1_554 S
C513 O496 1.263 . S
O514 Zn485 1.945 . S
O514 C510 1.262 . S
O515 Zn474 1.981 . S
O515 C510 1.245 . S
C516 O497 1.276 . S
C516 O517 1.246 . S
O517 C516 1.246 . S
C518 O499 1.276 . S
C518 O519 1.246 . S
O519 C518 1.246 . S
Zn520 O522 1.933 . S
Zn520 O540 1.985 . S
Zn520 O551 1.955 . S
Zn521 O522 1.911 . S
Zn521 O541 1.970 . S
Zn521 O557 1.945 . S
Zn521 O564 1.981 . S
O522 Zn520 1.933 . S
O522 Zn521 1.911 . S
O522 H523 0.841 1_655 S
H523 O522 0.841 1_455 S
C524 O525 1.246 . S
C524 O553 1.276 . S
O525 C524 1.246 . S
Zn526 O528 1.911 . S
Zn526 O543 1.970 . S
Zn526 O560 1.945 . S
Zn526 O567 1.981 . S
Zn527 O528 1.933 . S
Zn527 O542 1.985 . S
Zn527 O549 1.955 . S
O528 Zn526 1.911 . S
O528 Zn527 1.933 . S
O528 H529 0.841 . S
H529 O528 0.841 . S
Zn530 O531 1.933 . S
Zn530 O544 1.985 . S
Zn530 O553 1.955 . S
O531 Zn530 1.933 . S
O531 Zn532 1.911 . S
O531 H533 0.841 . S
Zn532 O531 1.911 . S
Zn532 O545 1.970 . S
Zn532 O561 1.981 1_655 S
Zn532 O563 1.945 . S
H533 O531 0.841 . S
Zn534 O535 1.933 . S
Zn534 O547 1.985 . S
Zn534 O555 1.955 . S
O535 Zn534 1.933 . S
O535 H536 0.841 . S
O535 Zn537 1.911 . S
H536 O535 0.841 . S
Zn537 O535 1.911 . S
Zn537 O548 1.970 . S
Zn537 O558 1.981 . S
Zn537 O566 1.945 . S
C538 O539 1.246 . S
C538 O555 1.276 . S
O539 C538 1.246 . S
O540 Zn520 1.985 . S
O540 C550 1.245 . S
O541 Zn521 1.970 . S
O541 C550 1.263 . S
O542 Zn527 1.985 . S
O542 C554 1.245 . S
O543 Zn526 1.970 . S
O543 C554 1.263 . S
O544 Zn530 1.985 . S
O544 C559 1.245 . S
O545 Zn532 1.970 . S
O545 C559 1.263 . S
C546 O557 1.262 1_455 S
C546 O558 1.245 . S
O547 Zn534 1.985 . S
O547 C565 1.245 . S
O548 Zn537 1.970 . S
O548 C565 1.263 . S
O549 Zn527 1.955 . S
O549 C568 1.276 . S
C550 O540 1.245 . S
C550 O541 1.263 . S
O551 Zn520 1.955 . S
O551 C570 1.276 1_655 S
C552 O560 1.262 . S
C552 O561 1.245 . S
O553 C524 1.276 . S
O553 Zn530 1.955 . S
C554 O542 1.245 . S
C554 O543 1.263 . S
O555 Zn534 1.955 . S
O555 C538 1.276 . S
C556 O563 1.262 . S
C556 O564 1.245 . S
O557 Zn521 1.945 . S
O557 C546 1.262 1_655 S
O558 Zn537 1.981 . S
O558 C546 1.245 . S
C559 O544 1.245 . S
C559 O545 1.263 . S
O560 Zn526 1.945 . S
O560 C552 1.262 . S
O561 Zn532 1.981 1_455 S
O561 C552 1.245 . S
C562 O566 1.262 . S
C562 O567 1.245 . S
O563 Zn532 1.945 . S
O563 C556 1.262 . S
O564 Zn521 1.981 . S
O564 C556 1.245 . S
C565 O547 1.245 . S
C565 O548 1.263 . S
O566 Zn537 1.945 . S
O566 C562 1.262 . S
O567 Zn526 1.981 . S
O567 C562 1.245 . S
C568 O549 1.276 . S
C568 O569 1.246 . S
O569 C568 1.246 . S
C570 O551 1.276 1_455 S
C570 O571 1.246 . S
O571 C570 1.246 . S
Zn572 O574 1.933 1_565 S
Zn572 O592 1.985 . S
Zn572 O603 1.955 . S
Zn573 O574 1.911 . S
Zn573 O593 1.970 . S
Zn573 O609 1.945 . S
Zn573 O616 1.981 . S
O574 Zn572 1.933 1_545 S
O574 Zn573 1.911 . S
O574 H575 0.841 . S
H575 O574 0.841 . S
C576 O577 1.246 . S
C576 O605 1.276 . S
O577 C576 1.246 . S
Zn578 O580 1.911 . S
Zn578 O595 1.970 . S
Zn578 O612 1.945 . S
Zn578 O619 1.981 . S
Zn579 O580 1.933 1_565 S
Zn579 O594 1.985 . S
Zn579 O601 1.955 . S
O580 Zn578 1.911 . S
O580 Zn579 1.933 1_545 S
O580 H581 0.841 . S
H581 O580 0.841 . S
Zn582 O583 1.933 1_565 S
Zn582 O596 1.985 . S
Zn582 O605 1.955 . S
O583 Zn582 1.933 1_545 S
O583 Zn584 1.911 . S
O583 H585 0.841 . S
Zn584 O583 1.911 . S
Zn584 O597 1.970 . S
Zn584 O613 1.981 . S
Zn584 O615 1.945 . S
H585 O583 0.841 . S
Zn586 O587 1.933 1_565 S
Zn586 O599 1.985 . S
Zn586 O607 1.955 . S
O587 Zn586 1.933 1_545 S
O587 H588 0.841 . S
O587 Zn589 1.911 . S
H588 O587 0.841 . S
Zn589 O587 1.911 . S
Zn589 O600 1.970 . S
Zn589 O610 1.981 . S
Zn589 O618 1.945 . S
C590 O591 1.246 . S
C590 O607 1.276 . S
O591 C590 1.246 . S
O592 Zn572 1.985 . S
O592 C602 1.245 1_565 S
O593 Zn573 1.970 . S
O593 C602 1.263 . S
O594 Zn579 1.985 . S
O594 C606 1.245 1_565 S
O595 Zn578 1.970 . S
O595 C606 1.263 . S
O596 Zn582 1.985 . S
O596 C611 1.245 1_565 S
O597 Zn584 1.970 . S
O597 C611 1.263 . S
C598 O609 1.262 . S
C598 O610 1.245 . S
O599 Zn586 1.985 . S
O599 C617 1.245 1_565 S
O600 Zn589 1.970 . S
O600 C617 1.263 . S
O601 Zn579 1.955 . S
O601 C620 1.276 . S
C602 O592 1.245 1_545 S
C602 O593 1.263 . S
O603 Zn572 1.955 . S
O603 C622 1.276 . S
C604 O612 1.262 . S
C604 O613 1.245 . S
O605 C576 1.276 . S
O605 Zn582 1.955 . S
C606 O594 1.245 1_545 S
C606 O595 1.263 . S
O607 Zn586 1.955 . S
O607 C590 1.276 . S
C608 O615 1.262 . S
C608 O616 1.245 . S
O609 Zn573 1.945 . S
O609 C598 1.262 . S
O610 Zn589 1.981 . S
O610 C598 1.245 . S
C611 O596 1.245 1_545 S
C611 O597 1.263 . S
O612 Zn578 1.945 . S
O612 C604 1.262 . S
O613 Zn584 1.981 . S
O613 C604 1.245 . S
C614 O618 1.262 . S
C614 O619 1.245 . S
O615 Zn584 1.945 . S
O615 C608 1.262 . S
O616 Zn573 1.981 . S
O616 C608 1.245 . S
C617 O599 1.245 1_545 S
C617 O600 1.263 . S
O618 Zn589 1.945 . S
O618 C614 1.262 . S
O619 Zn578 1.981 . S
O619 C614 1.245 . S
C620 O601 1.276 . S
C620 O621 1.246 . S
O621 C620 1.246 . S
C622 O603 1.276 . S
C622 O623 1.246 . S
O623 C622 1.246 . S
H624 C630 0.930 . S
H625 C633 0.930 . S
H626 C634 0.930 . S
H627 C635 0.930 . S
H628 C638 0.930 . S
H629 C639 0.930 . S
C630 H624 0.930 . S
C630 C631 1.355 . S
C630 C632 1.415 . S
C631 C630 1.355 . S
C631 C633 1.419 . S
C632 C630 1.415 . S
C632 C637 1.425 . S
C632 C639 1.409 . S
C633 H625 0.930 . S
C633 C631 1.419 . S
C633 C634 1.362 . S
C634 H626 0.930 . S
C634 C633 1.362 . S
C634 C637 1.409 . S
C635 H627 0.930 . S
C635 C636 1.355 . S
C635 C637 1.415 . S
C636 C635 1.355 . S
C636 C638 1.419 . S
C637 C632 1.425 . S
C637 C634 1.409 . S
C637 C635 1.415 . S
C638 H628 0.930 . S
C638 C636 1.419 . S
C638 C639 1.362 . S
C639 H629 0.930 . S
C639 C632 1.409 . S
C639 C638 1.362 . S
H640 C646 0.930 . S
H641 C649 0.930 . S
H642 C650 0.930 . S
H643 C651 0.930 . S
H644 C654 0.930 . S
H645 C655 0.930 . S
C646 H640 0.930 . S
C646 C647 1.355 . S
C646 C648 1.415 . S
C647 C646 1.355 . S
C647 C649 1.419 . S
C648 C646 1.415 . S
C648 C653 1.425 . S
C648 C655 1.409 . S
C649 H641 0.930 . S
C649 C647 1.419 . S
C649 C650 1.362 . S
C650 H642 0.930 . S
C650 C649 1.362 . S
C650 C653 1.409 . S
C651 H643 0.930 . S
C651 C652 1.355 . S
C651 C653 1.415 . S
C652 C651 1.355 . S
C652 C654 1.419 . S
C653 C648 1.425 . S
C653 C650 1.409 . S
C653 C651 1.415 . S
C654 H644 0.930 . S
C654 C652 1.419 . S
C654 C655 1.362 . S
C655 H645 0.930 . S
C655 C648 1.409 . S
C655 C654 1.362 . S
H656 C662 0.930 . S
H657 C665 0.930 . S
H658 C666 0.930 . S
H659 C667 0.930 . S
H660 C670 0.930 . S
H661 C671 0.930 . S
C662 H656 0.930 . S
C662 C663 1.355 . S
C662 C664 1.415 . S
C663 C662 1.355 . S
C663 C665 1.419 . S
C664 C662 1.415 . S
C664 C669 1.425 . S
C664 C671 1.409 . S
C665 H657 0.930 . S
C665 C663 1.419 . S
C665 C666 1.362 . S
C666 H658 0.930 . S
C666 C665 1.362 . S
C666 C669 1.409 . S
C667 H659 0.930 . S
C667 C668 1.355 . S
C667 C669 1.415 . S
C668 C667 1.355 . S
C668 C670 1.419 . S
C669 C664 1.425 . S
C669 C666 1.409 . S
C669 C667 1.415 . S
C670 H660 0.930 . S
C670 C668 1.419 . S
C670 C671 1.362 . S
C671 H661 0.930 . S
C671 C664 1.409 . S
C671 C670 1.362 . S
H672 C678 0.930 . S
H673 C681 0.930 . S
H674 C682 0.930 . S
H675 C683 0.930 . S
H676 C686 0.930 . S
H677 C687 0.930 . S
C678 H672 0.930 . S
C678 C679 1.355 . S
C678 C680 1.415 . S
C679 C678 1.355 . S
C679 C681 1.419 . S
C680 C678 1.415 . S
C680 C685 1.425 . S
C680 C687 1.409 . S
C681 H673 0.930 . S
C681 C679 1.419 . S
C681 C682 1.362 . S
C682 H674 0.930 . S
C682 C681 1.362 . S
C682 C685 1.409 . S
C683 H675 0.930 . S
C683 C684 1.355 . S
C683 C685 1.415 . S
C684 C683 1.355 . S
C684 C686 1.419 . S
C685 C680 1.425 . S
C685 C682 1.409 . S
C685 C683 1.415 . S
C686 H676 0.930 . S
C686 C684 1.419 . S
C686 C687 1.362 . S
C687 H677 0.930 . S
C687 C680 1.409 . S
C687 C686 1.362 . S
H688 C694 0.930 . S
H689 C697 0.930 . S
H690 C698 0.930 . S
H691 C699 0.930 . S
H692 C702 0.930 . S
H693 C703 0.930 . S
C694 H688 0.930 . S
C694 C695 1.355 . S
C694 C696 1.415 . S
C695 C694 1.355 . S
C695 C697 1.419 . S
C696 C694 1.415 . S
C696 C701 1.425 . S
C696 C703 1.409 . S
C697 H689 0.930 . S
C697 C695 1.419 . S
C697 C698 1.362 . S
C698 H690 0.930 . S
C698 C697 1.362 . S
C698 C701 1.409 . S
C699 H691 0.930 . S
C699 C700 1.355 . S
C699 C701 1.415 . S
C700 C699 1.355 . S
C700 C702 1.419 . S
C701 C696 1.425 . S
C701 C698 1.409 . S
C701 C699 1.415 . S
C702 H692 0.930 . S
C702 C700 1.419 . S
C702 C703 1.362 . S
C703 H693 0.930 . S
C703 C696 1.409 . S
C703 C702 1.362 . S
H704 C710 0.930 . S
H705 C713 0.930 . S
H706 C714 0.930 . S
H707 C715 0.930 . S
H708 C718 0.930 . S
H709 C719 0.930 . S
C710 H704 0.930 . S
C710 C711 1.355 . S
C710 C712 1.415 . S
C711 C710 1.355 . S
C711 C713 1.419 . S
C712 C710 1.415 . S
C712 C717 1.425 . S
C712 C719 1.409 . S
C713 H705 0.930 . S
C713 C711 1.419 . S
C713 C714 1.362 . S
C714 H706 0.930 . S
C714 C713 1.362 . S
C714 C717 1.409 . S
C715 H707 0.930 . S
C715 C716 1.355 . S
C715 C717 1.415 . S
C716 C715 1.355 . S
C716 C718 1.419 . S
C717 C712 1.425 . S
C717 C714 1.409 . S
C717 C715 1.415 . S
C718 H708 0.930 . S
C718 C716 1.419 . S
C718 C719 1.362 . S
C719 H709 0.930 . S
C719 C712 1.409 . S
C719 C718 1.362 . S
H720 C726 0.930 . S
H721 C729 0.930 . S
H722 C730 0.930 . S
H723 C731 0.930 . S
H724 C734 0.930 . S
H725 C735 0.930 . S
C726 H720 0.930 . S
C726 C727 1.355 . S
C726 C728 1.415 . S
C727 C726 1.355 . S
C727 C729 1.419 . S
C728 C726 1.415 . S
C728 C733 1.425 . S
C728 C735 1.409 . S
C729 H721 0.930 . S
C729 C727 1.419 . S
C729 C730 1.362 . S
C730 H722 0.930 . S
C730 C729 1.362 . S
C730 C733 1.409 . S
C731 H723 0.930 . S
C731 C732 1.355 . S
C731 C733 1.415 . S
C732 C731 1.355 . S
C732 C734 1.419 . S
C733 C728 1.425 . S
C733 C730 1.409 . S
C733 C731 1.415 . S
C734 H724 0.930 . S
C734 C732 1.419 . S
C734 C735 1.362 . S
C735 H725 0.930 . S
C735 C728 1.409 . S
C735 C734 1.362 . S
H736 C742 0.930 . S
H737 C745 0.930 . S
H738 C746 0.930 . S
H739 C747 0.930 . S
H740 C750 0.930 . S
H741 C751 0.930 . S
C742 H736 0.930 . S
C742 C743 1.355 . S
C742 C744 1.415 . S
C743 C742 1.355 . S
C743 C745 1.419 . S
C744 C742 1.415 . S
C744 C749 1.425 . S
C744 C751 1.409 . S
C745 H737 0.930 . S
C745 C743 1.419 . S
C745 C746 1.362 . S
C746 H738 0.930 . S
C746 C745 1.362 . S
C746 C749 1.409 . S
C747 H739 0.930 . S
C747 C748 1.355 . S
C747 C749 1.415 . S
C748 C747 1.355 . S
C748 C750 1.419 . S
C749 C744 1.425 . S
C749 C746 1.409 . S
C749 C747 1.415 . S
C750 H740 0.930 . S
C750 C748 1.419 . S
C750 C751 1.362 . S
C751 H741 0.930 . S
C751 C744 1.409 . S
C751 C750 1.362 . S
H752 C758 0.930 . S
H753 C761 0.930 . S
H754 C762 0.930 . S
H755 C763 0.930 . S
H756 C766 0.930 . S
H757 C767 0.930 . S
C758 H752 0.930 . S
C758 C759 1.355 . S
C758 C760 1.415 . S
C759 C758 1.355 . S
C759 C761 1.419 . S
C760 C758 1.415 . S
C760 C765 1.425 . S
C760 C767 1.409 . S
C761 H753 0.930 . S
C761 C759 1.419 . S
C761 C762 1.362 . S
C762 H754 0.930 . S
C762 C761 1.362 . S
C762 C765 1.409 . S
C763 H755 0.930 . S
C763 C764 1.355 . S
C763 C765 1.415 . S
C764 C763 1.355 . S
C764 C766 1.419 . S
C765 C760 1.425 . S
C765 C762 1.409 . S
C765 C763 1.415 . S
C766 H756 0.930 . S
C766 C764 1.419 . S
C766 C767 1.362 . S
C767 H757 0.930 . S
C767 C760 1.409 . S
C767 C766 1.362 . S
H768 C774 0.930 . S
H769 C777 0.930 . S
H770 C778 0.930 . S
H771 C779 0.930 . S
H772 C782 0.930 . S
H773 C783 0.930 . S
C774 H768 0.930 . S
C774 C775 1.355 . S
C774 C776 1.415 . S
C775 C774 1.355 . S
C775 C777 1.419 . S
C776 C774 1.415 . S
C776 C781 1.425 . S
C776 C783 1.409 . S
C777 H769 0.930 . S
C777 C775 1.419 . S
C777 C778 1.362 . S
C778 H770 0.930 . S
C778 C777 1.362 . S
C778 C781 1.409 . S
C779 H771 0.930 . S
C779 C780 1.355 . S
C779 C781 1.415 . S
C780 C779 1.355 . S
C780 C782 1.419 . S
C781 C776 1.425 . S
C781 C778 1.409 . S
C781 C779 1.415 . S
C782 H772 0.930 . S
C782 C780 1.419 . S
C782 C783 1.362 . S
C783 H773 0.930 . S
C783 C776 1.409 . S
C783 C782 1.362 . S
H784 C790 0.930 . S
H785 C793 0.930 . S
H786 C794 0.930 . S
H787 C795 0.930 . S
H788 C798 0.930 . S
H789 C799 0.930 . S
C790 H784 0.930 . S
C790 C791 1.355 . S
C790 C792 1.415 . S
C791 C790 1.355 . S
C791 C793 1.419 . S
C792 C790 1.415 . S
C792 C797 1.425 . S
C792 C799 1.409 . S
C793 H785 0.930 . S
C793 C791 1.419 . S
C793 C794 1.362 . S
C794 H786 0.930 . S
C794 C793 1.362 . S
C794 C797 1.409 . S
C795 H787 0.930 . S
C795 C796 1.355 . S
C795 C797 1.415 . S
C796 C795 1.355 . S
C796 C798 1.419 . S
C797 C792 1.425 . S
C797 C794 1.409 . S
C797 C795 1.415 . S
C798 H788 0.930 . S
C798 C796 1.419 . S
C798 C799 1.362 . S
C799 H789 0.930 . S
C799 C792 1.409 . S
C799 C798 1.362 . S
H800 C806 0.930 . S
H801 C809 0.930 . S
H802 C810 0.930 . S
H803 C811 0.930 . S
H804 C814 0.930 . S
H805 C815 0.930 . S
C806 H800 0.930 . S
C806 C807 1.355 . S
C806 C808 1.415 . S
C807 C806 1.355 . S
C807 C809 1.419 . S
C808 C806 1.415 . S
C808 C813 1.425 . S
C808 C815 1.409 . S
C809 H801 0.930 . S
C809 C807 1.419 . S
C809 C810 1.362 . S
C810 H802 0.930 . S
C810 C809 1.362 . S
C810 C813 1.409 . S
C811 H803 0.930 . S
C811 C812 1.355 . S
C811 C813 1.415 . S
C812 C811 1.355 . S
C812 C814 1.419 . S
C813 C808 1.425 . S
C813 C810 1.409 . S
C813 C811 1.415 . S
C814 H804 0.930 . S
C814 C812 1.419 . S
C814 C815 1.362 . S
C815 H805 0.930 . S
C815 C808 1.409 . S
C815 C814 1.362 . S
H816 C822 0.930 . S
H817 C825 0.930 . S
H818 C826 0.930 . S
H819 C827 0.930 . S
H820 C830 0.930 . S
H821 C831 0.930 . S
C822 H816 0.930 . S
C822 C823 1.355 . S
C822 C824 1.415 . S
C823 C822 1.355 . S
C823 C825 1.419 1_554 S
C824 C822 1.415 . S
C824 C829 1.425 1_554 S
C824 C831 1.409 . S
C825 H817 0.930 . S
C825 C823 1.419 1_556 S
C825 C826 1.362 . S
C826 H818 0.930 . S
C826 C825 1.362 . S
C826 C829 1.409 . S
C827 H819 0.930 . S
C827 C828 1.355 1_556 S
C827 C829 1.415 . S
C828 C827 1.355 1_554 S
C828 C830 1.419 . S
C829 C824 1.425 1_556 S
C829 C826 1.409 . S
C829 C827 1.415 . S
C830 H820 0.930 . S
C830 C828 1.419 . S
C830 C831 1.362 . S
C831 H821 0.930 . S
C831 C824 1.409 . S
C831 C830 1.362 . S
H832 C838 0.930 . S
H833 C841 0.930 . S
H834 C842 0.930 . S
H835 C843 0.930 . S
H836 C846 0.930 . S
H837 C847 0.930 . S
C838 H832 0.930 . S
C838 C839 1.355 . S
C838 C840 1.415 . S
C839 C838 1.355 . S
C839 C841 1.419 1_554 S
C840 C838 1.415 . S
C840 C845 1.425 1_554 S
C840 C847 1.409 . S
C841 H833 0.930 . S
C841 C839 1.419 1_556 S
C841 C842 1.362 . S
C842 H834 0.930 . S
C842 C841 1.362 . S
C842 C845 1.409 . S
C843 H835 0.930 . S
C843 C844 1.355 1_556 S
C843 C845 1.415 . S
C844 C843 1.355 1_554 S
C844 C846 1.419 . S
C845 C840 1.425 1_556 S
C845 C842 1.409 . S
C845 C843 1.415 . S
C846 H836 0.930 . S
C846 C844 1.419 . S
C846 C847 1.362 . S
C847 H837 0.930 . S
C847 C840 1.409 . S
C847 C846 1.362 . S
H848 C854 0.930 . S
H849 C857 0.930 . S
H850 C858 0.930 . S
H851 C859 0.930 . S
H852 C862 0.930 . S
H853 C863 0.930 . S
C854 H848 0.930 . S
C854 C855 1.355 . S
C854 C856 1.415 . S
C855 C854 1.355 . S
C855 C857 1.419 . S
C856 C854 1.415 . S
C856 C861 1.425 . S
C856 C863 1.409 . S
C857 H849 0.930 . S
C857 C855 1.419 . S
C857 C858 1.362 . S
C858 H850 0.930 . S
C858 C857 1.362 . S
C858 C861 1.409 . S
C859 H851 0.930 . S
C859 C860 1.355 . S
C859 C861 1.415 . S
C860 C859 1.355 . S
C860 C862 1.419 . S
C861 C856 1.425 . S
C861 C858 1.409 . S
C861 C859 1.415 . S
C862 H852 0.930 . S
C862 C860 1.419 . S
C862 C863 1.362 . S
C863 H853 0.930 . S
C863 C856 1.409 . S
C863 C862 1.362 . S
H864 C870 0.930 . S
H865 C873 0.930 . S
H866 C874 0.930 . S
H867 C875 0.930 . S
H868 C878 0.930 . S
H869 C879 0.930 . S
C870 H864 0.930 . S
C870 C871 1.355 1_556 S
C870 C872 1.415 . S
C871 C870 1.355 1_554 S
C871 C873 1.419 . S
C872 C870 1.415 . S
C872 C877 1.425 1_556 S
C872 C879 1.409 . S
C873 H865 0.930 . S
C873 C871 1.419 . S
C873 C874 1.362 . S
C874 H866 0.930 . S
C874 C873 1.362 . S
C874 C877 1.409 . S
C875 H867 0.930 . S
C875 C876 1.355 . S
C875 C877 1.415 . S
C876 C875 1.355 . S
C876 C878 1.419 1_554 S
C877 C872 1.425 1_554 S
C877 C874 1.409 . S
C877 C875 1.415 . S
C878 H868 0.930 . S
C878 C876 1.419 1_556 S
C878 C879 1.362 . S
C879 H869 0.930 . S
C879 C872 1.409 . S
C879 C878 1.362 . S
H880 C886 0.930 . S
H881 C889 0.930 . S
H882 C890 0.930 . S
H883 C891 0.930 . S
H884 C894 0.930 . S
H885 C895 0.930 . S
C886 H880 0.930 . S
C886 C887 1.355 1_655 S
C886 C888 1.415 . S
C887 C886 1.355 1_455 S
C887 C889 1.419 . S
C888 C886 1.415 . S
C888 C893 1.425 1_655 S
C888 C895 1.409 . S
C889 H881 0.930 . S
C889 C887 1.419 . S
C889 C890 1.362 . S
C890 H882 0.930 . S
C890 C889 1.362 . S
C890 C893 1.409 . S
C891 H883 0.930 . S
C891 C892 1.355 . S
C891 C893 1.415 . S
C892 C891 1.355 . S
C892 C894 1.419 1_455 S
C893 C888 1.425 1_455 S
C893 C890 1.409 . S
C893 C891 1.415 . S
C894 H884 0.930 . S
C894 C892 1.419 1_655 S
C894 C895 1.362 . S
C895 H885 0.930 . S
C895 C888 1.409 . S
C895 C894 1.362 . S
H896 C902 0.930 . S
H897 C905 0.927 1_565 S
H898 C906 0.930 . S
H899 C907 0.930 . S
H900 C910 0.930 . S
H901 C911 0.930 . S
C902 H896 0.930 . S
C902 C903 1.355 . S
C902 C904 1.415 . S
C903 C902 1.355 . S
C903 C905 1.419 . S
C904 C902 1.415 . S
C904 C909 1.425 . S
C904 C911 1.409 . S
C905 H897 0.927 1_545 S
C905 C903 1.419 . S
C905 C906 1.362 . S
C906 H898 0.930 . S
C906 C905 1.362 . S
C906 C909 1.409 . S
C907 H899 0.930 . S
C907 C908 1.355 . S
C907 C909 1.415 . S
C908 C907 1.355 . S
C908 C910 1.419 . S
C909 C904 1.425 . S
C909 C906 1.409 . S
C909 C907 1.415 . S
C910 H900 0.930 . S
C910 C908 1.419 . S
C910 C911 1.362 . S
C911 H901 0.930 . S
C911 C904 1.409 . S
C911 C910 1.362 . S
H912 C918 0.930 . S
H913 C921 0.930 . S
H914 C922 0.930 1_655 S
H915 C923 0.930 1_655 S
H916 C926 0.930 . S
H917 C927 0.930 . S
C918 H912 0.930 . S
C918 C919 1.355 . S
C918 C920 1.415 . S
C919 C918 1.355 . S
C919 C921 1.419 . S
C920 C918 1.415 . S
C920 C925 1.425 . S
C920 C927 1.409 . S
C921 H913 0.930 . S
C921 C919 1.419 . S
C921 C922 1.362 . S
C922 H914 0.930 1_455 S
C922 C921 1.362 . S
C922 C925 1.409 . S
C923 H915 0.930 1_455 S
C923 C924 1.355 . S
C923 C925 1.415 . S
C924 C923 1.355 . S
C924 C926 1.419 . S
C925 C920 1.425 . S
C925 C922 1.409 . S
C925 C923 1.415 . S
C926 H916 0.930 . S
C926 C924 1.419 . S
C926 C927 1.362 . S
C927 H917 0.930 . S
C927 C920 1.409 . S
C927 C926 1.362 . S
H928 C934 0.930 . S
H929 C937 0.930 . S
H930 C938 0.930 . S
H931 C939 0.930 . S
H932 C942 0.930 . S
H933 C943 0.930 . S
C934 H928 0.930 . S
C934 C935 1.355 . S
C934 C936 1.415 . S
C935 C934 1.355 . S
C935 C937 1.419 . S
C936 C934 1.415 . S
C936 C941 1.425 . S
C936 C943 1.409 . S
C937 H929 0.930 . S
C937 C935 1.419 . S
C937 C938 1.362 . S
C938 H930 0.930 . S
C938 C937 1.362 . S
C938 C941 1.409 . S
C939 H931 0.930 . S
C939 C940 1.355 . S
C939 C941 1.415 . S
C940 C939 1.355 . S
C940 C942 1.419 . S
C941 C936 1.425 . S
C941 C938 1.409 . S
C941 C939 1.415 . S
C942 H932 0.930 . S
C942 C940 1.419 . S
C942 C943 1.362 . S
C943 H933 0.930 . S
C943 C936 1.409 . S
C943 C942 1.362 . S
H944 C950 0.930 . S
H945 C953 0.930 . S
H946 C954 0.930 . S
H947 C955 0.930 . S
H948 C958 0.930 1_655 S
H949 C959 0.930 1_655 S
C950 H944 0.930 . S
C950 C951 1.355 . S
C950 C952 1.415 . S
C951 C950 1.355 . S
C951 C953 1.419 . S
C952 C950 1.415 . S
C952 C957 1.425 . S
C952 C959 1.409 . S
C953 H945 0.930 . S
C953 C951 1.419 . S
C953 C954 1.362 . S
C954 H946 0.930 . S
C954 C953 1.362 . S
C954 C957 1.409 . S
C955 H947 0.930 . S
C955 C956 1.355 . S
C955 C957 1.415 . S
C956 C955 1.355 . S
C956 C958 1.419 . S
C957 C952 1.425 . S
C957 C954 1.409 . S
C957 C955 1.415 . S
C958 H948 0.930 1_455 S
C958 C956 1.419 . S
C958 C959 1.362 . S
C959 H949 0.930 1_455 S
C959 C952 1.409 . S
C959 C958 1.362 . S
H960 C966 0.930 . S
H961 C969 0.930 . S
H962 C970 0.930 . S
H963 C971 0.930 . S
H964 C974 0.930 . S
H965 C975 0.930 . S
C966 H960 0.930 . S
C966 C967 1.355 . S
C966 C968 1.415 . S
C967 C966 1.355 . S
C967 C969 1.419 . S
C968 C966 1.415 . S
C968 C973 1.425 . S
C968 C975 1.409 . S
C969 H961 0.930 . S
C969 C967 1.419 . S
C969 C970 1.362 . S
C970 H962 0.930 . S
C970 C969 1.362 . S
C970 C973 1.409 . S
C971 H963 0.930 . S
C971 C972 1.355 . S
C971 C973 1.415 . S
C972 C971 1.355 . S
C972 C974 1.419 . S
C973 C968 1.425 . S
C973 C970 1.409 . S
C973 C971 1.415 . S
C974 H964 0.930 . S
C974 C972 1.419 . S
C974 C975 1.362 . S
C975 H965 0.930 . S
C975 C968 1.409 . S
C975 C974 1.362 . S
H976 C982 0.930 . S
H977 C985 0.930 . S
H978 C986 0.930 . S
H979 C987 0.930 . S
H980 C990 0.930 . S
H981 C991 0.931 . S
C982 H976 0.930 . S
C982 C983 1.355 . S
C982 C984 1.415 . S
C983 C982 1.355 . S
C983 C985 1.419 . S
C984 C982 1.415 . S
C984 C989 1.425 . S
C984 C991 1.409 . S
C985 H977 0.930 . S
C985 C983 1.419 . S
C985 C986 1.362 . S
C986 H978 0.930 . S
C986 C985 1.362 . S
C986 C989 1.409 . S
C987 H979 0.930 . S
C987 C988 1.355 . S
C987 C989 1.415 . S
C988 C987 1.355 . S
C988 C990 1.419 . S
C989 C984 1.425 . S
C989 C986 1.409 . S
C989 C987 1.415 . S
C990 H980 0.930 . S
C990 C988 1.419 . S
C990 C991 1.362 . S
C991 H981 0.931 . S
C991 C984 1.409 . S
C991 C990 1.362 . S
H992 C998 0.930 . S
H993 C1001 0.930 . S
H994 C1002 0.930 . S
H995 C1003 0.930 . S
H996 C1006 0.933 . S
H997 C1007 0.930 . S
C998 H992 0.930 . S
C998 C999 1.355 1_565 S
C998 C1000 1.415 1_565 S
C999 C998 1.355 1_545 S
C999 C1001 1.419 . S
C1000 C998 1.415 1_545 S
C1000 C1005 1.425 . S
C1000 C1007 1.409 1_545 S
C1001 H993 0.930 . S
C1001 C999 1.419 . S
C1001 C1002 1.362 . S
C1002 H994 0.930 . S
C1002 C1001 1.362 . S
C1002 C1005 1.409 . S
C1003 H995 0.930 . S
C1003 C1004 1.355 . S
C1003 C1005 1.415 . S
C1004 C1003 1.355 . S
C1004 C1006 1.415 1_545 S
C1005 C1000 1.425 . S
C1005 C1002 1.409 . S
C1005 C1003 1.415 . S
C1006 H996 0.933 . S
C1006 C1004 1.415 1_565 S
C1006 C1007 1.364 . S
C1007 H997 0.930 . S
C1007 C1000 1.409 1_565 S
C1007 C1006 1.364 . S
H1008 C1014 0.930 1_655 S
H1009 C1017 0.930 . S
H1010 C1018 0.930 . S
H1011 C1019 0.930 . S
H1012 C1022 0.930 . S
H1013 C1023 0.930 . S
C1014 H1008 0.930 1_455 S
C1014 C1015 1.355 . S
C1014 C1016 1.415 . S
C1015 C1014 1.355 . S
C1015 C1017 1.419 . S
C1016 C1014 1.415 . S
C1016 C1021 1.425 . S
C1016 C1023 1.409 1_455 S
C1017 H1009 0.930 . S
C1017 C1015 1.419 . S
C1017 C1018 1.362 . S
C1018 H1010 0.930 . S
C1018 C1017 1.362 . S
C1018 C1021 1.409 . S
C1019 H1011 0.930 . S
C1019 C1020 1.355 . S
C1019 C1021 1.415 . S
C1020 C1019 1.355 . S
C1020 C1022 1.419 1_455 S
C1021 C1016 1.425 . S
C1021 C1018 1.409 . S
C1021 C1019 1.415 . S
C1022 H1012 0.930 . S
C1022 C1020 1.419 1_655 S
C1022 C1023 1.362 . S
C1023 H1013 0.930 . S
C1023 C1016 1.409 1_655 S
C1023 C1022 1.362 . S
H1024 C1030 0.930 . S
H1025 C1033 0.930 . S
H1026 C1034 0.930 . S
H1027 C1035 0.930 . S
H1028 C1038 0.942 . S
H1029 C1039 0.930 . S
C1030 H1024 0.930 . S
C1030 C1031 1.355 . S
C1030 C1032 1.415 . S
C1031 C1030 1.355 . S
C1031 C1033 1.419 . S
C1032 C1030 1.415 . S
C1032 C1037 1.425 . S
C1032 C1039 1.409 1_545 S
C1033 H1025 0.930 . S
C1033 C1031 1.419 . S
C1033 C1034 1.362 . S
C1034 H1026 0.930 . S
C1034 C1033 1.362 . S
C1034 C1037 1.409 . S
C1035 H1027 0.930 . S
C1035 C1036 1.355 . S
C1035 C1037 1.415 . S
C1036 C1035 1.355 . S
C1036 C1038 1.406 1_545 S
C1037 C1032 1.425 . S
C1037 C1034 1.409 . S
C1037 C1035 1.415 . S
C1038 H1028 0.942 . S
C1038 C1036 1.406 1_565 S
C1038 C1039 1.363 . S
C1039 H1029 0.930 . S
C1039 C1032 1.409 1_565 S
C1039 C1038 1.363 . S
H1040 C1046 0.930 1_655 S
H1041 C1049 0.930 . S
H1042 C1050 0.930 . S
H1043 C1051 0.930 . S
H1044 C1054 0.930 . S
H1045 C1055 0.930 . S
C1046 H1040 0.930 1_455 S
C1046 C1047 1.355 . S
C1046 C1048 1.415 . S
C1047 C1046 1.355 . S
C1047 C1049 1.419 . S
C1048 C1046 1.415 . S
C1048 C1053 1.425 . S
C1048 C1055 1.409 1_455 S
C1049 H1041 0.930 . S
C1049 C1047 1.419 . S
C1049 C1050 1.362 . S
C1050 H1042 0.930 . S
C1050 C1049 1.362 . S
C1050 C1053 1.409 . S
C1051 H1043 0.930 . S
C1051 C1052 1.355 . S
C1051 C1053 1.415 . S
C1052 C1051 1.355 . S
C1052 C1054 1.419 1_455 S
C1053 C1048 1.425 . S
C1053 C1050 1.409 . S
C1053 C1051 1.415 . S
C1054 H1044 0.930 . S
C1054 C1052 1.419 1_655 S
C1054 C1055 1.362 . S
C1055 H1045 0.930 . S
C1055 C1048 1.409 1_655 S
C1055 C1054 1.362 . S
H1056 C1062 0.930 . S
H1057 C1065 0.930 . S
H1058 C1066 0.930 . S
H1059 C1067 0.930 1_565 S
H1060 C1070 0.930 . S
H1061 C1071 0.930 . S
C1062 H1056 0.930 . S
C1062 C1063 1.357 . S
C1062 C1064 1.415 . S
C1063 C1062 1.357 . S
C1063 C1065 1.417 1_545 S
C1064 C1062 1.415 . S
C1064 C1069 1.425 . S
C1064 C1071 1.409 . S
C1065 H1057 0.930 . S
C1065 C1063 1.417 1_565 S
C1065 C1066 1.362 . S
C1066 H1058 0.930 . S
C1066 C1065 1.362 . S
C1066 C1069 1.409 1_565 S
C1067 H1059 0.930 1_545 S
C1067 C1068 1.355 . S
C1067 C1069 1.415 . S
C1068 C1067 1.355 . S
C1068 C1070 1.419 . S
C1069 C1064 1.425 . S
C1069 C1066 1.409 1_545 S
C1069 C1067 1.415 . S
C1070 H1060 0.930 . S
C1070 C1068 1.419 . S
C1070 C1071 1.362 . S
C1071 H1061 0.930 . S
C1071 C1064 1.409 . S
C1071 C1070 1.362 . S
H1072 C1078 0.930 . S
H1073 C1081 0.930 . S
H1074 C1082 0.930 . S
H1075 C1083 0.930 . S
H1076 C1086 0.930 . S
H1077 C1087 0.930 . S
C1078 H1072 0.930 . S
C1078 C1079 1.355 1_655 S
C1078 C1080 1.415 . S
C1079 C1078 1.355 1_455 S
C1079 C1081 1.419 . S
C1080 C1078 1.415 . S
C1080 C1085 1.425 1_655 S
C1080 C1087 1.409 . S
C1081 H1073 0.930 . S
C1081 C1079 1.419 . S
C1081 C1082 1.362 . S
C1082 H1074 0.930 . S
C1082 C1081 1.362 . S
C1082 C1085 1.409 . S
C1083 H1075 0.930 . S
C1083 C1084 1.355 1_455 S
C1083 C1085 1.415 . S
C1084 C1083 1.355 1_655 S
C1084 C1086 1.419 . S
C1085 C1080 1.425 1_455 S
C1085 C1082 1.409 . S
C1085 C1083 1.415 . S
C1086 H1076 0.930 . S
C1086 C1084 1.419 . S
C1086 C1087 1.362 . S
C1087 H1077 0.930 . S
C1087 C1080 1.409 . S
C1087 C1086 1.362 . S
H1088 C1094 0.930 . S
H1089 C1097 0.930 . S
H1090 C1098 0.930 . S
H1091 C1099 0.930 1_565 S
H1092 C1102 0.930 . S
H1093 C1103 0.930 . S
C1094 H1088 0.930 . S
C1094 C1095 1.355 . S
C1094 C1096 1.415 . S
C1095 C1094 1.355 . S
C1095 C1097 1.419 1_545 S
C1096 C1094 1.415 . S
C1096 C1101 1.425 . S
C1096 C1103 1.409 . S
C1097 H1089 0.930 . S
C1097 C1095 1.419 1_565 S
C1097 C1098 1.362 . S
C1098 H1090 0.930 . S
C1098 C1097 1.362 . S
C1098 C1101 1.409 1_565 S
C1099 H1091 0.930 1_545 S
C1099 C1100 1.355 . S
C1099 C1101 1.415 . S
C1100 C1099 1.355 . S
C1100 C1102 1.419 . S
C1101 C1096 1.425 . S
C1101 C1098 1.409 1_545 S
C1101 C1099 1.415 . S
C1102 H1092 0.930 . S
C1102 C1100 1.419 . S
C1102 C1103 1.362 . S
C1103 H1093 0.930 . S
C1103 C1096 1.409 . S
C1103 C1102 1.362 . S
H1104 C1110 0.930 . S
H1105 C1113 0.930 . S
H1106 C1114 0.930 . S
H1107 C1115 0.930 . S
H1108 C1118 0.930 . S
H1109 C1119 0.930 . S
C1110 H1104 0.930 . S
C1110 C1111 1.355 . S
C1110 C1112 1.415 . S
C1111 C1110 1.355 . S
C1111 C1113 1.419 1_455 S
C1112 C1110 1.415 . S
C1112 C1117 1.425 . S
C1112 C1119 1.409 . S
C1113 H1105 0.930 . S
C1113 C1111 1.419 1_655 S
C1113 C1114 1.362 . S
C1114 H1106 0.930 . S
C1114 C1113 1.362 . S
C1114 C1117 1.409 1_655 S
C1115 H1107 0.930 . S
C1115 C1116 1.355 1_655 S
C1115 C1117 1.415 1_655 S
C1116 C1115 1.355 1_455 S
C1116 C1118 1.419 . S
C1117 C1112 1.425 . S
C1117 C1114 1.409 1_455 S
C1117 C1115 1.415 1_455 S
C1118 H1108 0.930 . S
C1118 C1116 1.419 . S
C1118 C1119 1.362 . S
C1119 H1109 0.930 . S
C1119 C1112 1.409 . S
C1119 C1118 1.362 . S
H1120 C1126 0.930 . S
H1121 C1129 0.930 . S
H1122 C1130 0.930 . S
H1123 C1131 0.930 . S
H1124 C1134 0.929 . S
H1125 C1135 0.949 . S
C1126 H1120 0.930 . S
C1126 C1127 1.355 . S
C1126 C1128 1.415 . S
C1127 C1126 1.355 . S
C1127 C1129 1.419 . S
C1128 C1126 1.415 . S
C1128 C1133 1.425 . S
C1128 C1135 1.392 1_545 S
C1129 H1121 0.930 . S
C1129 C1127 1.419 . S
C1129 C1130 1.362 . S
C1130 H1122 0.930 . S
C1130 C1129 1.362 . S
C1130 C1133 1.409 . S
C1131 H1123 0.930 . S
C1131 C1132 1.355 . S
C1131 C1133 1.415 . S
C1132 C1131 1.355 . S
C1132 C1134 1.420 1_545 S
C1133 C1128 1.425 . S
C1133 C1130 1.409 . S
C1133 C1131 1.415 . S
C1134 H1124 0.929 . S
C1134 C1132 1.420 1_565 S
C1134 C1135 1.362 . S
C1135 H1125 0.949 . S
C1135 C1128 1.392 1_565 S
C1135 C1134 1.362 . S
H1136 C1142 0.930 . S
H1137 C1145 0.930 . S
H1138 C1146 0.930 . S
H1139 C1147 0.930 . S
H1140 C1150 0.930 . S
H1141 C1151 0.930 . S
C1142 H1136 0.930 . S
C1142 C1143 1.355 . S
C1142 C1144 1.415 . S
C1143 C1142 1.355 . S
C1143 C1145 1.419 1_545 S
C1144 C1142 1.415 . S
C1144 C1149 1.418 1_545 S
C1144 C1151 1.409 . S
C1145 H1137 0.930 . S
C1145 C1143 1.419 1_565 S
C1145 C1146 1.362 . S
C1146 H1138 0.930 . S
C1146 C1145 1.362 . S
C1146 C1149 1.415 . S
C1147 H1139 0.930 . S
C1147 C1148 1.355 1_565 S
C1147 C1149 1.416 . S
C1148 C1147 1.355 1_545 S
C1148 C1150 1.419 . S
C1149 C1144 1.418 1_565 S
C1149 C1146 1.415 . S
C1149 C1147 1.416 . S
C1150 H1140 0.930 . S
C1150 C1148 1.419 . S
C1150 C1151 1.362 . S
C1151 H1141 0.930 . S
C1151 C1144 1.409 . S
C1151 C1150 1.362 . S
H1152 C1158 0.930 1_655 S
H1153 C1161 0.930 . S
H1154 C1162 0.930 . S
H1155 C1163 0.930 . S
H1156 C1166 0.930 . S
H1157 C1167 0.930 . S
C1158 H1152 0.930 1_455 S
C1158 C1159 1.355 . S
C1158 C1160 1.415 . S
C1159 C1158 1.355 . S
C1159 C1161 1.419 . S
C1160 C1158 1.415 . S
C1160 C1165 1.425 . S
C1160 C1167 1.409 1_455 S
C1161 H1153 0.930 . S
C1161 C1159 1.419 . S
C1161 C1162 1.362 . S
C1162 H1154 0.930 . S
C1162 C1161 1.362 . S
C1162 C1165 1.409 . S
C1163 H1155 0.930 . S
C1163 C1164 1.355 . S
C1163 C1165 1.415 . S
C1164 C1163 1.355 . S
C1164 C1166 1.419 1_455 S
C1165 C1160 1.425 . S
C1165 C1162 1.409 . S
C1165 C1163 1.415 . S
C1166 H1156 0.930 . S
C1166 C1164 1.419 1_655 S
C1166 C1167 1.362 . S
C1167 H1157 0.930 . S
C1167 C1160 1.409 1_655 S
C1167 C1166 1.362 . S
H1168 C1174 0.930 . S
H1169 C1177 0.930 . S
H1170 C1178 0.930 . S
H1171 C1179 0.930 . S
H1172 C1182 0.930 . S
H1173 C1183 0.930 . S
C1174 H1168 0.930 . S
C1174 C1175 1.355 . S
C1174 C1176 1.415 . S
C1175 C1174 1.355 . S
C1175 C1177 1.419 . S
C1176 C1174 1.415 . S
C1176 C1181 1.425 . S
C1176 C1183 1.409 . S
C1177 H1169 0.930 . S
C1177 C1175 1.419 . S
C1177 C1178 1.362 . S
C1178 H1170 0.930 . S
C1178 C1177 1.362 . S
C1178 C1181 1.409 . S
C1179 H1171 0.930 . S
C1179 C1180 1.355 . S
C1179 C1181 1.415 . S
C1180 C1179 1.355 . S
C1180 C1182 1.419 . S
C1181 C1176 1.425 . S
C1181 C1178 1.409 . S
C1181 C1179 1.415 . S
C1182 H1172 0.930 . S
C1182 C1180 1.419 . S
C1182 C1183 1.362 . S
C1183 H1173 0.930 . S
C1183 C1176 1.409 . S
C1183 C1182 1.362 . S
H1184 C1190 0.930 . S
H1185 C1193 0.930 . S
H1186 C1194 0.930 . S
H1187 C1195 0.930 . S
H1188 C1198 0.930 . S
H1189 C1199 0.930 . S
C1190 H1184 0.930 . S
C1190 C1191 1.355 . S
C1190 C1192 1.415 . S
C1191 C1190 1.355 . S
C1191 C1193 1.419 . S
C1192 C1190 1.415 . S
C1192 C1197 1.425 . S
C1192 C1199 1.409 . S
C1193 H1185 0.930 . S
C1193 C1191 1.419 . S
C1193 C1194 1.362 . S
C1194 H1186 0.930 . S
C1194 C1193 1.362 . S
C1194 C1197 1.409 . S
C1195 H1187 0.930 . S
C1195 C1196 1.355 . S
C1195 C1197 1.415 . S
C1196 C1195 1.355 . S
C1196 C1198 1.419 . S
C1197 C1192 1.425 . S
C1197 C1194 1.409 . S
C1197 C1195 1.415 . S
C1198 H1188 0.930 . S
C1198 C1196 1.419 . S
C1198 C1199 1.362 . S
C1199 H1189 0.930 . S
C1199 C1192 1.409 . S
C1199 C1198 1.362 . S
H1200 C1206 0.930 . S
H1201 C1209 0.930 . S
H1202 C1210 0.930 . S
H1203 C1211 0.930 . S
H1204 C1214 0.930 . S
H1205 C1215 0.930 . S
C1206 H1200 0.930 . S
C1206 C1207 1.355 1_565 S
C1206 C1208 1.415 1_565 S
C1207 C1206 1.355 1_545 S
C1207 C1209 1.419 . S
C1208 C1206 1.415 1_545 S
C1208 C1213 1.425 . S
C1208 C1215 1.409 1_545 S
C1209 H1201 0.930 . S
C1209 C1207 1.419 . S
C1209 C1210 1.362 . S
C1210 H1202 0.930 . S
C1210 C1209 1.362 . S
C1210 C1213 1.409 . S
C1211 H1203 0.930 . S
C1211 C1212 1.355 . S
C1211 C1213 1.415 . S
C1212 C1211 1.355 . S
C1212 C1214 1.419 1_545 S
C1213 C1208 1.425 . S
C1213 C1210 1.409 . S
C1213 C1211 1.415 . S
C1214 H1204 0.930 . S
C1214 C1212 1.419 1_565 S
C1214 C1215 1.362 . S
C1215 H1205 0.930 . S
C1215 C1208 1.409 1_565 S
C1215 C1214 1.362 . S
H1216 C1222 0.930 . S
H1217 C1225 0.930 . S
H1218 C1226 0.930 . S
H1219 C1227 0.930 . S
H1220 C1230 0.930 . S
H1221 C1231 0.930 . S
C1222 H1216 0.930 . S
C1222 C1223 1.355 . S
C1222 C1224 1.415 . S
C1223 C1222 1.355 . S
C1223 C1225 1.419 . S
C1224 C1222 1.415 . S
C1224 C1229 1.425 . S
C1224 C1231 1.409 . S
C1225 H1217 0.930 . S
C1225 C1223 1.419 . S
C1225 C1226 1.362 . S
C1226 H1218 0.930 . S
C1226 C1225 1.362 . S
C1226 C1229 1.409 . S
C1227 H1219 0.930 . S
C1227 C1228 1.355 . S
C1227 C1229 1.415 . S
C1228 C1227 1.355 . S
C1228 C1230 1.419 . S
C1229 C1224 1.425 . S
C1229 C1226 1.409 . S
C1229 C1227 1.415 . S
C1230 H1220 0.930 . S
C1230 C1228 1.419 . S
C1230 C1231 1.362 . S
C1231 H1221 0.930 . S
C1231 C1224 1.409 . S
C1231 C1230 1.362 . S
H1232 C1238 0.930 . S
H1233 C1241 0.930 . S
H1234 C1242 0.930 . S
H1235 C1243 0.930 . S
H1236 C1246 0.930 . S
H1237 C1247 0.930 . S
C1238 H1232 0.930 . S
C1238 C1239 1.355 . S
C1238 C1240 1.415 . S
C1239 C1238 1.355 . S
C1239 C1241 1.419 . S
C1240 C1238 1.415 . S
C1240 C1245 1.425 . S
C1240 C1247 1.409 . S
C1241 H1233 0.930 . S
C1241 C1239 1.419 . S
C1241 C1242 1.362 . S
C1242 H1234 0.930 . S
C1242 C1241 1.362 . S
C1242 C1245 1.409 . S
C1243 H1235 0.930 . S
C1243 C1244 1.355 . S
C1243 C1245 1.415 . S
C1244 C1243 1.355 . S
C1244 C1246 1.419 . S
C1245 C1240 1.425 . S
C1245 C1242 1.409 . S
C1245 C1243 1.415 . S
C1246 H1236 0.930 . S
C1246 C1244 1.419 . S
C1246 C1247 1.362 . S
C1247 H1237 0.930 . S
C1247 C1240 1.409 . S
C1247 C1246 1.362 . S
H1248 C1254 0.930 . S
H1249 C1257 0.930 . S
H1250 C1258 0.930 . S
H1251 C1259 0.930 . S
H1252 C1262 0.930 . S
H1253 C1263 0.930 . S
C1254 H1248 0.930 . S
C1254 C1255 1.355 . S
C1254 C1256 1.415 . S
C1255 C1254 1.355 . S
C1255 C1257 1.419 1_455 S
C1256 C1254 1.415 . S
C1256 C1261 1.425 . S
C1256 C1263 1.409 . S
C1257 H1249 0.930 . S
C1257 C1255 1.419 1_655 S
C1257 C1258 1.362 . S
C1258 H1250 0.930 . S
C1258 C1257 1.362 . S
C1258 C1261 1.409 1_655 S
C1259 H1251 0.930 . S
C1259 C1260 1.355 . S
C1259 C1261 1.415 . S
C1260 C1259 1.355 . S
C1260 C1262 1.419 . S
C1261 C1256 1.425 . S
C1261 C1258 1.409 1_455 S
C1261 C1259 1.415 . S
C1262 H1252 0.930 . S
C1262 C1260 1.419 . S
C1262 C1263 1.362 . S
C1263 H1253 0.930 . S
C1263 C1256 1.409 . S
C1263 C1262 1.362 . S
H1264 C1270 0.930 . S
H1265 C1273 0.930 . S
H1266 C1274 0.930 . S
H1267 C1275 0.930 . S
H1268 C1278 0.930 . S
H1269 C1279 0.930 . S
C1270 H1264 0.930 . S
C1270 C1271 1.355 . S
C1270 C1272 1.415 . S
C1271 C1270 1.355 . S
C1271 C1273 1.419 . S
C1272 C1270 1.415 . S
C1272 C1277 1.425 . S
C1272 C1279 1.409 . S
C1273 H1265 0.930 . S
C1273 C1271 1.419 . S
C1273 C1274 1.362 . S
C1274 H1266 0.930 . S
C1274 C1273 1.362 . S
C1274 C1277 1.409 . S
C1275 H1267 0.930 . S
C1275 C1276 1.355 . S
C1275 C1277 1.415 . S
C1276 C1275 1.355 . S
C1276 C1278 1.419 . S
C1277 C1272 1.425 . S
C1277 C1274 1.409 . S
C1277 C1275 1.415 . S
C1278 H1268 0.930 . S
C1278 C1276 1.419 . S
C1278 C1279 1.362 . S
C1279 H1269 0.930 . S
C1279 C1272 1.409 . S
C1279 C1278 1.362 . S
H1280 C1286 0.930 . S
H1281 C1289 0.930 1_556 S
H1282 C1290 0.925 1_556 S
H1283 C1291 0.930 . S
H1284 C1294 0.930 . S
H1285 C1295 0.930 . S
C1286 H1280 0.930 . S
C1286 C1287 1.355 . S
C1286 C1288 1.415 . S
C1287 C1286 1.355 . S
C1287 C1289 1.419 . S
C1288 C1286 1.415 . S
C1288 C1293 1.425 . S
C1288 C1295 1.409 . S
C1289 H1281 0.930 1_554 S
C1289 C1287 1.419 . S
C1289 C1290 1.363 . S
C1290 H1282 0.925 1_554 S
C1290 C1289 1.363 . S
C1290 C1293 1.414 . S
C1291 H1283 0.930 . S
C1291 C1292 1.355 . S
C1291 C1293 1.415 . S
C1292 C1291 1.355 . S
C1292 C1294 1.419 . S
C1293 C1288 1.425 . S
C1293 C1290 1.414 . S
C1293 C1291 1.415 . S
C1294 H1284 0.930 . S
C1294 C1292 1.419 . S
C1294 C1295 1.362 . S
C1295 H1285 0.930 . S
C1295 C1288 1.409 . S
C1295 C1294 1.362 . S
H1296 C1302 0.930 1_556 S
H1297 C1305 0.930 . S
H1298 C1306 0.930 . S
H1299 C1307 0.930 . S
H1300 C1310 0.930 . S
H1301 C1311 0.930 . S
C1302 H1296 0.930 1_554 S
C1302 C1303 1.355 . S
C1302 C1304 1.415 . S
C1303 C1302 1.355 . S
C1303 C1305 1.419 . S
C1304 C1302 1.415 . S
C1304 C1309 1.425 . S
C1304 C1311 1.409 1_554 S
C1305 H1297 0.930 . S
C1305 C1303 1.419 . S
C1305 C1306 1.362 . S
C1306 H1298 0.930 . S
C1306 C1305 1.362 . S
C1306 C1309 1.409 . S
C1307 H1299 0.930 . S
C1307 C1308 1.355 . S
C1307 C1309 1.415 . S
C1308 C1307 1.355 . S
C1308 C1310 1.419 1_554 S
C1309 C1304 1.425 . S
C1309 C1306 1.409 . S
C1309 C1307 1.415 . S
C1310 H1300 0.930 . S
C1310 C1308 1.419 1_556 S
C1310 C1311 1.362 . S
C1311 H1301 0.930 . S
C1311 C1304 1.409 1_556 S
C1311 C1310 1.362 . S
H1312 C1318 0.930 . S
H1313 C1321 0.930 . S
H1314 C1322 0.930 . S
H1315 C1323 0.930 . S
H1316 C1326 0.930 . S
H1317 C1327 0.930 . S
C1318 H1312 0.930 . S
C1318 C1319 1.355 1_554 S
C1318 C1320 1.415 . S
C1319 C1318 1.355 1_556 S
C1319 C1321 1.419 . S
C1320 C1318 1.415 . S
C1320 C1325 1.425 1_554 S
C1320 C1327 1.409 . S
C1321 H1313 0.930 . S
C1321 C1319 1.419 . S
C1321 C1322 1.362 . S
C1322 H1314 0.930 . S
C1322 C1321 1.362 . S
C1322 C1325 1.409 . S
C1323 H1315 0.930 . S
C1323 C1324 1.354 1_556 S
C1323 C1325 1.415 . S
C1324 C1323 1.354 1_554 S
C1324 C1326 1.421 . S
C1325 C1320 1.425 1_556 S
C1325 C1322 1.409 . S
C1325 C1323 1.415 . S
C1326 H1316 0.930 . S
C1326 C1324 1.421 . S
C1326 C1327 1.362 . S
C1327 H1317 0.930 . S
C1327 C1320 1.409 . S
C1327 C1326 1.362 . S
H1328 C1334 0.930 . S
H1329 C1337 0.930 . S
H1330 C1338 0.930 . S
H1331 C1339 0.930 . S
H1332 C1342 0.930 . S
H1333 C1343 0.930 . S
C1334 H1328 0.930 . S
C1334 C1335 1.355 . S
C1334 C1336 1.415 . S
C1335 C1334 1.355 . S
C1335 C1337 1.419 . S
C1336 C1334 1.415 . S
C1336 C1341 1.425 . S
C1336 C1343 1.409 . S
C1337 H1329 0.930 . S
C1337 C1335 1.419 . S
C1337 C1338 1.362 . S
C1338 H1330 0.930 . S
C1338 C1337 1.362 . S
C1338 C1341 1.409 . S
C1339 H1331 0.930 . S
C1339 C1340 1.355 . S
C1339 C1341 1.415 . S
C1340 C1339 1.355 . S
C1340 C1342 1.419 . S
C1341 C1336 1.425 . S
C1341 C1338 1.409 . S
C1341 C1339 1.415 . S
C1342 H1332 0.930 . S
C1342 C1340 1.419 . S
C1342 C1343 1.362 . S
C1343 H1333 0.930 . S
C1343 C1336 1.409 . S
C1343 C1342 1.362 . S
H1344 C1350 0.932 . S
H1345 C1353 0.930 . S
H1346 C1354 0.930 . S
H1347 C1355 0.930 . S
H1348 C1358 0.930 . S
H1349 C1359 0.930 . S
C1350 H1344 0.932 . S
C1350 C1351 1.352 1_556 S
C1350 C1352 1.415 . S
C1351 C1350 1.352 1_554 S
C1351 C1353 1.419 . S
C1352 C1350 1.415 . S
C1352 C1357 1.420 1_556 S
C1352 C1359 1.414 . S
C1353 H1345 0.930 . S
C1353 C1351 1.419 . S
C1353 C1354 1.362 . S
C1354 H1346 0.930 . S
C1354 C1353 1.362 . S
C1354 C1357 1.409 . S
C1355 H1347 0.930 . S
C1355 C1356 1.356 . S
C1355 C1357 1.415 . S
C1356 C1355 1.356 . S
C1356 C1358 1.418 1_554 S
C1357 C1352 1.420 1_554 S
C1357 C1354 1.409 . S
C1357 C1355 1.415 . S
C1358 H1348 0.930 . S
C1358 C1356 1.418 1_556 S
C1358 C1359 1.362 . S
C1359 H1349 0.930 . S
C1359 C1352 1.414 . S
C1359 C1358 1.362 . S
H1360 C1366 0.930 . S
H1361 C1369 0.930 . S
H1362 C1370 0.930 . S
H1363 C1371 0.930 . S
H1364 C1374 0.930 . S
H1365 C1375 0.930 . S
C1366 H1360 0.930 . S
C1366 C1367 1.355 1_556 S
C1366 C1368 1.415 . S
C1367 C1366 1.355 1_554 S
C1367 C1369 1.419 . S
C1368 C1366 1.415 . S
C1368 C1373 1.425 1_556 S
C1368 C1375 1.409 . S
C1369 H1361 0.930 . S
C1369 C1367 1.419 . S
C1369 C1370 1.362 . S
C1370 H1362 0.930 . S
C1370 C1369 1.362 . S
C1370 C1373 1.409 . S
C1371 H1363 0.930 . S
C1371 C1372 1.355 . S
C1371 C1373 1.415 . S
C1372 C1371 1.355 . S
C1372 C1374 1.419 1_554 S
C1373 C1368 1.425 1_554 S
C1373 C1370 1.409 . S
C1373 C1371 1.415 . S
C1374 H1364 0.930 . S
C1374 C1372 1.419 1_556 S
C1374 C1375 1.362 . S
C1375 H1365 0.930 . S
C1375 C1368 1.409 . S
C1375 C1374 1.362 . S
H1376 C1382 0.930 . S
H1377 C1385 0.930 . S
H1378 C1386 0.930 . S
H1379 C1387 0.930 . S
H1380 C1390 0.927 1_556 S
H1381 C1391 0.930 . S
C1382 H1376 0.930 . S
C1382 C1383 1.353 1_556 S
C1382 C1384 1.411 1_556 S
C1383 C1382 1.353 1_554 S
C1383 C1385 1.423 . S
C1384 C1382 1.411 1_554 S
C1384 C1389 1.432 . S
C1384 C1391 1.407 1_554 S
C1385 H1377 0.930 . S
C1385 C1383 1.423 . S
C1385 C1386 1.362 . S
C1386 H1378 0.930 . S
C1386 C1385 1.362 . S
C1386 C1389 1.409 . S
C1387 H1379 0.930 . S
C1387 C1388 1.355 . S
C1387 C1389 1.415 . S
C1388 C1387 1.355 . S
C1388 C1390 1.419 . S
C1389 C1384 1.432 . S
C1389 C1386 1.409 . S
C1389 C1387 1.415 . S
C1390 H1380 0.927 1_554 S
C1390 C1388 1.419 . S
C1390 C1391 1.362 1_554 S
C1391 H1381 0.930 . S
C1391 C1384 1.407 1_556 S
C1391 C1390 1.362 1_556 S
H1392 C1398 0.930 . S
H1393 C1401 0.930 . S
H1394 C1402 0.930 . S
H1395 C1403 0.930 . S
H1396 C1406 0.930 . S
H1397 C1407 0.930 . S
C1398 H1392 0.930 . S
C1398 C1399 1.355 . S
C1398 C1400 1.415 . S
C1399 C1398 1.355 . S
C1399 C1401 1.419 . S
C1400 C1398 1.415 . S
C1400 C1405 1.425 . S
C1400 C1407 1.409 . S
C1401 H1393 0.930 . S
C1401 C1399 1.419 . S
C1401 C1402 1.362 . S
C1402 H1394 0.930 . S
C1402 C1401 1.362 . S
C1402 C1405 1.409 . S
C1403 H1395 0.930 . S
C1403 C1404 1.355 . S
C1403 C1405 1.415 . S
C1404 C1403 1.355 . S
C1404 C1406 1.419 . S
C1405 C1400 1.425 . S
C1405 C1402 1.409 . S
C1405 C1403 1.415 . S
C1406 H1396 0.930 . S
C1406 C1404 1.419 . S
C1406 C1407 1.362 . S
C1407 H1397 0.930 . S
C1407 C1400 1.409 . S
C1407 C1406 1.362 . S
H1408 C1414 0.930 . S
H1409 C1417 0.930 . S
H1410 C1418 0.930 . S
H1411 C1419 0.930 . S
H1412 C1422 0.930 . S
H1413 C1423 0.930 . S
C1414 H1408 0.930 . S
C1414 C1415 1.355 . S
C1414 C1416 1.415 . S
C1415 C1414 1.355 . S
C1415 C1417 1.419 . S
C1416 C1414 1.415 . S
C1416 C1421 1.425 . S
C1416 C1423 1.409 . S
C1417 H1409 0.930 . S
C1417 C1415 1.419 . S
C1417 C1418 1.362 . S
C1418 H1410 0.930 . S
C1418 C1417 1.362 . S
C1418 C1421 1.409 . S
C1419 H1411 0.930 . S
C1419 C1420 1.355 . S
C1419 C1421 1.415 . S
C1420 C1419 1.355 . S
C1420 C1422 1.419 . S
C1421 C1416 1.425 . S
C1421 C1418 1.409 . S
C1421 C1419 1.415 . S
C1422 H1412 0.930 . S
C1422 C1420 1.419 . S
C1422 C1423 1.362 . S
C1423 H1413 0.930 . S
C1423 C1416 1.409 . S
C1423 C1422 1.362 . S
H1424 C1430 0.930 . S
H1425 C1433 0.930 . S
H1426 C1434 0.930 . S
H1427 C1435 0.930 . S
H1428 C1438 0.930 . S
H1429 C1439 0.930 . S
C1430 H1424 0.930 . S
C1430 C1431 1.355 . S
C1430 C1432 1.415 . S
C1431 C1430 1.355 . S
C1431 C1433 1.419 . S
C1432 C1430 1.415 . S
C1432 C1437 1.425 . S
C1432 C1439 1.409 . S
C1433 H1425 0.930 . S
C1433 C1431 1.419 . S
C1433 C1434 1.362 . S
C1434 H1426 0.930 . S
C1434 C1433 1.362 . S
C1434 C1437 1.409 . S
C1435 H1427 0.930 . S
C1435 C1436 1.355 . S
C1435 C1437 1.415 . S
C1436 C1435 1.355 . S
C1436 C1438 1.419 . S
C1437 C1432 1.425 . S
C1437 C1434 1.409 . S
C1437 C1435 1.415 . S
C1438 H1428 0.930 . S
C1438 C1436 1.419 . S
C1438 C1439 1.362 . S
C1439 H1429 0.930 . S
C1439 C1432 1.409 . S
C1439 C1438 1.362 . S
H1440 C1446 0.930 . S
H1441 C1449 0.930 . S
H1442 C1450 0.930 . S
H1443 C1451 0.930 . S
H1444 C1454 0.930 . S
H1445 C1455 0.930 . S
C1446 H1440 0.930 . S
C1446 C1447 1.355 . S
C1446 C1448 1.415 . S
C1447 C1446 1.355 . S
C1447 C1449 1.419 . S
C1448 C1446 1.415 . S
C1448 C1453 1.425 . S
C1448 C1455 1.409 . S
C1449 H1441 0.930 . S
C1449 C1447 1.419 . S
C1449 C1450 1.362 . S
C1450 H1442 0.930 . S
C1450 C1449 1.362 . S
C1450 C1453 1.409 . S
C1451 H1443 0.930 . S
C1451 C1452 1.355 . S
C1451 C1453 1.415 . S
C1452 C1451 1.355 . S
C1452 C1454 1.419 . S
C1453 C1448 1.425 . S
C1453 C1450 1.409 . S
C1453 C1451 1.415 . S
C1454 H1444 0.930 . S
C1454 C1452 1.419 . S
C1454 C1455 1.362 . S
C1455 H1445 0.930 . S
C1455 C1448 1.409 . S
C1455 C1454 1.362 . S
H1456 C1462 0.930 . S
H1457 C1465 0.930 . S
H1458 C1466 0.930 . S
H1459 C1467 0.930 . S
H1460 C1470 0.930 . S
H1461 C1471 0.930 . S
C1462 H1456 0.930 . S
C1462 C1463 1.355 . S
C1462 C1464 1.415 . S
C1463 C1462 1.355 . S
C1463 C1465 1.419 . S
C1464 C1462 1.415 . S
C1464 C1469 1.425 . S
C1464 C1471 1.409 . S
C1465 H1457 0.930 . S
C1465 C1463 1.419 . S
C1465 C1466 1.362 . S
C1466 H1458 0.930 . S
C1466 C1465 1.362 . S
C1466 C1469 1.409 . S
C1467 H1459 0.930 . S
C1467 C1468 1.355 . S
C1467 C1469 1.415 . S
C1468 C1467 1.355 . S
C1468 C1470 1.419 . S
C1469 C1464 1.425 . S
C1469 C1466 1.409 . S
C1469 C1467 1.415 . S
C1470 H1460 0.930 . S
C1470 C1468 1.419 . S
C1470 C1471 1.362 . S
C1471 H1461 0.930 . S
C1471 C1464 1.409 . S
C1471 C1470 1.362 . S
H1472 C1478 0.930 . S
H1473 C1481 0.930 . S
H1474 C1482 0.930 . S
H1475 C1483 0.930 . S
H1476 C1486 0.930 . S
H1477 C1487 0.930 . S
C1478 H1472 0.930 . S
C1478 C1479 1.355 . S
C1478 C1480 1.415 . S
C1479 C1478 1.355 . S
C1479 C1481 1.419 . S
C1480 C1478 1.415 . S
C1480 C1485 1.425 . S
C1480 C1487 1.409 . S
C1481 H1473 0.930 . S
C1481 C1479 1.419 . S
C1481 C1482 1.362 . S
C1482 H1474 0.930 . S
C1482 C1481 1.362 . S
C1482 C1485 1.409 . S
C1483 H1475 0.930 . S
C1483 C1484 1.355 . S
C1483 C1485 1.415 . S
C1484 C1483 1.355 . S
C1484 C1486 1.419 . S
C1485 C1480 1.425 . S
C1485 C1482 1.409 . S
C1485 C1483 1.415 . S
C1486 H1476 0.930 . S
C1486 C1484 1.419 . S
C1486 C1487 1.362 . S
C1487 H1477 0.930 . S
C1487 C1480 1.409 . S
C1487 C1486 1.362 . S
H1488 C1494 0.930 . S
H1489 C1497 0.930 . S
H1490 C1498 0.930 . S
H1491 C1499 0.930 . S
H1492 C1502 0.930 . S
H1493 C1503 0.930 . S
C1494 H1488 0.930 . S
C1494 C1495 1.355 . S
C1494 C1496 1.415 . S
C1495 C1494 1.355 . S
C1495 C1497 1.419 . S
C1496 C1494 1.415 . S
C1496 C1501 1.425 . S
C1496 C1503 1.409 . S
C1497 H1489 0.930 . S
C1497 C1495 1.419 . S
C1497 C1498 1.362 . S
C1498 H1490 0.930 . S
C1498 C1497 1.362 . S
C1498 C1501 1.409 . S
C1499 H1491 0.930 . S
C1499 C1500 1.355 . S
C1499 C1501 1.415 . S
C1500 C1499 1.355 . S
C1500 C1502 1.419 . S
C1501 C1496 1.425 . S
C1501 C1498 1.409 . S
C1501 C1499 1.415 . S
C1502 H1492 0.930 . S
C1502 C1500 1.419 . S
C1502 C1503 1.362 . S
C1503 H1493 0.930 . S
C1503 C1496 1.409 . S
C1503 C1502 1.362 . S
H1504 C1510 0.930 . S
H1505 C1513 0.930 . S
H1506 C1514 0.930 . S
H1507 C1515 0.930 . S
H1508 C1518 0.930 . S
H1509 C1519 0.930 . S
C1510 H1504 0.930 . S
C1510 C1511 1.355 . S
C1510 C1512 1.415 . S
C1511 C1510 1.355 . S
C1511 C1513 1.419 . S
C1512 C1510 1.415 . S
C1512 C1517 1.425 . S
C1512 C1519 1.409 . S
C1513 H1505 0.930 . S
C1513 C1511 1.419 . S
C1513 C1514 1.362 . S
C1514 H1506 0.930 . S
C1514 C1513 1.362 . S
C1514 C1517 1.409 . S
C1515 H1507 0.930 . S
C1515 C1516 1.355 . S
C1515 C1517 1.415 . S
C1516 C1515 1.355 . S
C1516 C1518 1.419 . S
C1517 C1512 1.425 . S
C1517 C1514 1.409 . S
C1517 C1515 1.415 . S
C1518 H1508 0.930 . S
C1518 C1516 1.419 . S
C1518 C1519 1.362 . S
C1519 H1509 0.930 . S
C1519 C1512 1.409 . S
C1519 C1518 1.362 . S
H1520 C1526 0.930 . S
H1521 C1529 0.930 . S
H1522 C1530 0.930 . S
H1523 C1531 0.930 . S
H1524 C1534 0.930 . S
H1525 C1535 0.930 . S
C1526 H1520 0.930 . S
C1526 C1527 1.355 . S
C1526 C1528 1.415 . S
C1527 C1526 1.355 . S
C1527 C1529 1.419 . S
C1528 C1526 1.415 . S
C1528 C1533 1.425 . S
C1528 C1535 1.409 . S
C1529 H1521 0.930 . S
C1529 C1527 1.419 . S
C1529 C1530 1.362 . S
C1530 H1522 0.930 . S
C1530 C1529 1.362 . S
C1530 C1533 1.409 . S
C1531 H1523 0.930 . S
C1531 C1532 1.355 . S
C1531 C1533 1.415 . S
C1532 C1531 1.355 . S
C1532 C1534 1.419 . S
C1533 C1528 1.425 . S
C1533 C1530 1.409 . S
C1533 C1531 1.415 . S
C1534 H1524 0.930 . S
C1534 C1532 1.419 . S
C1534 C1535 1.362 . S
C1535 H1525 0.930 . S
C1535 C1528 1.409 . S
C1535 C1534 1.362 . S
H1536 C1542 0.930 . S
H1537 C1545 0.930 . S
H1538 C1546 0.930 . S
H1539 C1547 0.930 . S
H1540 C1550 0.930 . S
H1541 C1551 0.930 . S
C1542 H1536 0.930 . S
C1542 C1543 1.355 . S
C1542 C1544 1.415 . S
C1543 C1542 1.355 . S
C1543 C1545 1.419 . S
C1544 C1542 1.415 . S
C1544 C1549 1.425 . S
C1544 C1551 1.409 . S
C1545 H1537 0.930 . S
C1545 C1543 1.419 . S
C1545 C1546 1.362 . S
C1546 H1538 0.930 . S
C1546 C1545 1.362 . S
C1546 C1549 1.409 . S
C1547 H1539 0.930 . S
C1547 C1548 1.355 . S
C1547 C1549 1.415 . S
C1548 C1547 1.355 . S
C1548 C1550 1.419 . S
C1549 C1544 1.425 . S
C1549 C1546 1.409 . S
C1549 C1547 1.415 . S
C1550 H1540 0.930 . S
C1550 C1548 1.419 . S
C1550 C1551 1.362 . S
C1551 H1541 0.930 . S
C1551 C1544 1.409 . S
C1551 C1550 1.362 . S
H1552 C1558 0.930 . S
H1553 C1561 0.930 . S
H1554 C1562 0.930 . S
H1555 C1563 0.930 . S
H1556 C1566 0.930 . S
H1557 C1567 0.930 . S
C1558 H1552 0.930 . S
C1558 C1559 1.355 . S
C1558 C1560 1.415 . S
C1559 C1558 1.355 . S
C1559 C1561 1.419 . S
C1560 C1558 1.415 . S
C1560 C1565 1.425 . S
C1560 C1567 1.409 . S
C1561 H1553 0.930 . S
C1561 C1559 1.419 . S
C1561 C1562 1.362 . S
C1562 H1554 0.930 . S
C1562 C1561 1.362 . S
C1562 C1565 1.409 . S
C1563 H1555 0.930 . S
C1563 C1564 1.355 . S
C1563 C1565 1.415 . S
C1564 C1563 1.355 . S
C1564 C1566 1.419 . S
C1565 C1560 1.425 . S
C1565 C1562 1.409 . S
C1565 C1563 1.415 . S
C1566 H1556 0.930 . S
C1566 C1564 1.419 . S
C1566 C1567 1.362 . S
C1567 H1557 0.930 . S
C1567 C1560 1.409 . S
C1567 C1566 1.362 . S
H1568 C1574 0.930 . S
H1569 C1577 0.930 . S
H1570 C1578 0.930 . S
H1571 C1579 0.930 . S
H1572 C1582 0.930 . S
H1573 C1583 0.930 . S
C1574 H1568 0.930 . S
C1574 C1575 1.355 . S
C1574 C1576 1.415 . S
C1575 C1574 1.355 . S
C1575 C1577 1.419 . S
C1576 C1574 1.415 . S
C1576 C1581 1.425 . S
C1576 C1583 1.409 . S
C1577 H1569 0.930 . S
C1577 C1575 1.419 . S
C1577 C1578 1.362 . S
C1578 H1570 0.930 . S
C1578 C1577 1.362 . S
C1578 C1581 1.409 . S
C1579 H1571 0.930 . S
C1579 C1580 1.355 . S
C1579 C1581 1.415 . S
C1580 C1579 1.355 . S
C1580 C1582 1.419 . S
C1581 C1576 1.425 . S
C1581 C1578 1.409 . S
C1581 C1579 1.415 . S
C1582 H1572 0.930 . S
C1582 C1580 1.419 . S
C1582 C1583 1.362 . S
C1583 H1573 0.930 . S
C1583 C1576 1.409 . S
C1583 C1582 1.362 . S
H1584 C1590 0.930 . S
H1585 C1593 0.930 . S
H1586 C1594 0.930 . S
H1587 C1595 0.930 . S
H1588 C1598 0.930 . S
H1589 C1599 0.930 . S
C1590 H1584 0.930 . S
C1590 C1591 1.355 . S
C1590 C1592 1.415 . S
C1591 C1590 1.355 . S
C1591 C1593 1.419 . S
C1592 C1590 1.415 . S
C1592 C1597 1.425 . S
C1592 C1599 1.409 . S
C1593 H1585 0.930 . S
C1593 C1591 1.419 . S
C1593 C1594 1.362 . S
C1594 H1586 0.930 . S
C1594 C1593 1.362 . S
C1594 C1597 1.409 . S
C1595 H1587 0.930 . S
C1595 C1596 1.355 . S
C1595 C1597 1.415 . S
C1596 C1595 1.355 . S
C1596 C1598 1.419 . S
C1597 C1592 1.425 . S
C1597 C1594 1.409 . S
C1597 C1595 1.415 . S
C1598 H1588 0.930 . S
C1598 C1596 1.419 . S
C1598 C1599 1.362 . S
C1599 H1589 0.930 . S
C1599 C1592 1.409 . S
C1599 C1598 1.362 . S
H1600 C1606 0.930 . S
H1601 C1609 0.930 . S
H1602 C1610 0.930 . S
H1603 C1611 0.930 . S
H1604 C1614 0.930 . S
H1605 C1615 0.930 . S
C1606 H1600 0.930 . S
C1606 C1607 1.355 . S
C1606 C1608 1.415 . S
C1607 C1606 1.355 . S
C1607 C1609 1.419 . S
C1608 C1606 1.415 . S
C1608 C1613 1.425 . S
C1608 C1615 1.409 . S
C1609 H1601 0.930 . S
C1609 C1607 1.419 . S
C1609 C1610 1.362 . S
C1610 H1602 0.930 . S
C1610 C1609 1.362 . S
C1610 C1613 1.409 . S
C1611 H1603 0.930 . S
C1611 C1612 1.355 . S
C1611 C1613 1.415 . S
C1612 C1611 1.355 . S
C1612 C1614 1.419 . S
C1613 C1608 1.425 . S
C1613 C1610 1.409 . S
C1613 C1611 1.415 . S
C1614 H1604 0.930 . S
C1614 C1612 1.419 . S
C1614 C1615 1.362 . S
C1615 H1605 0.930 . S
C1615 C1608 1.409 . S
C1615 C1614 1.362 . S
H1616 C1622 0.930 . S
H1617 C1625 0.930 . S
H1618 C1626 0.930 . S
H1619 C1627 0.930 . S
H1620 C1630 0.930 . S
H1621 C1631 0.930 . S
C1622 H1616 0.930 . S
C1622 C1623 1.355 . S
C1622 C1624 1.415 . S
C1623 C1622 1.355 . S
C1623 C1625 1.419 . S
C1624 C1622 1.415 . S
C1624 C1629 1.425 . S
C1624 C1631 1.409 . S
C1625 H1617 0.930 . S
C1625 C1623 1.419 . S
C1625 C1626 1.362 . S
C1626 H1618 0.930 . S
C1626 C1625 1.362 . S
C1626 C1629 1.409 . S
C1627 H1619 0.930 . S
C1627 C1628 1.355 . S
C1627 C1629 1.415 . S
C1628 C1627 1.355 . S
C1628 C1630 1.419 . S
C1629 C1624 1.425 . S
C1629 C1626 1.409 . S
C1629 C1627 1.415 . S
C1630 H1620 0.930 . S
C1630 C1628 1.419 . S
C1630 C1631 1.362 . S
C1631 H1621 0.930 . S
C1631 C1624 1.409 . S
C1631 C1630 1.362 . S
H1632 C1638 0.930 . S
H1633 C1641 0.930 . S
H1634 C1642 0.930 . S
H1635 C1643 0.930 . S
H1636 C1646 0.930 . S
H1637 C1647 0.930 . S
C1638 H1632 0.930 . S
C1638 C1639 1.355 . S
C1638 C1640 1.415 . S
C1639 C1638 1.355 . S
C1639 C1641 1.419 . S
C1640 C1638 1.415 . S
C1640 C1645 1.425 . S
C1640 C1647 1.409 . S
C1641 H1633 0.930 . S
C1641 C1639 1.419 . S
C1641 C1642 1.362 . S
C1642 H1634 0.930 . S
C1642 C1641 1.362 . S
C1642 C1645 1.409 . S
C1643 H1635 0.930 . S
C1643 C1644 1.355 . S
C1643 C1645 1.415 . S
C1644 C1643 1.355 . S
C1644 C1646 1.419 . S
C1645 C1640 1.425 . S
C1645 C1642 1.409 . S
C1645 C1643 1.415 . S
C1646 H1636 0.930 . S
C1646 C1644 1.419 . S
C1646 C1647 1.362 . S
C1647 H1637 0.930 . S
C1647 C1640 1.409 . S
C1647 C1646 1.362 . S
H1648 C1654 0.930 . S
H1649 C1657 0.930 . S
H1650 C1658 0.930 . S
H1651 C1659 0.930 . S
H1652 C1662 0.930 . S
H1653 C1663 0.930 . S
C1654 H1648 0.930 . S
C1654 C1655 1.355 . S
C1654 C1656 1.415 . S
C1655 C1654 1.355 . S
C1655 C1657 1.419 . S
C1656 C1654 1.415 . S
C1656 C1661 1.425 . S
C1656 C1663 1.409 . S
C1657 H1649 0.930 . S
C1657 C1655 1.419 . S
C1657 C1658 1.362 . S
C1658 H1650 0.930 . S
C1658 C1657 1.362 . S
C1658 C1661 1.409 . S
C1659 H1651 0.930 . S
C1659 C1660 1.355 . S
C1659 C1661 1.415 . S
C1660 C1659 1.355 . S
C1660 C1662 1.419 . S
C1661 C1656 1.425 . S
C1661 C1658 1.409 . S
C1661 C1659 1.415 . S
C1662 H1652 0.930 . S
C1662 C1660 1.419 . S
C1662 C1663 1.362 . S
C1663 H1653 0.930 . S
C1663 C1656 1.409 . S
C1663 C1662 1.362 . S
H1664 C1670 0.930 . S
H1665 C1673 0.930 . S
H1666 C1674 0.930 . S
H1667 C1675 0.930 . S
H1668 C1678 0.930 . S
H1669 C1679 0.930 . S
C1670 H1664 0.930 . S
C1670 C1671 1.355 . S
C1670 C1672 1.415 . S
C1671 C1670 1.355 . S
C1671 C1673 1.419 . S
C1672 C1670 1.415 . S
C1672 C1677 1.425 . S
C1672 C1679 1.409 . S
C1673 H1665 0.930 . S
C1673 C1671 1.419 . S
C1673 C1674 1.362 . S
C1674 H1666 0.930 . S
C1674 C1673 1.362 . S
C1674 C1677 1.409 . S
C1675 H1667 0.930 . S
C1675 C1676 1.355 . S
C1675 C1677 1.415 . S
C1676 C1675 1.355 . S
C1676 C1678 1.419 . S
C1677 C1672 1.425 . S
C1677 C1674 1.409 . S
C1677 C1675 1.415 . S
C1678 H1668 0.930 . S
C1678 C1676 1.419 . S
C1678 C1679 1.362 . S
C1679 H1669 0.930 . S
C1679 C1672 1.409 . S
C1679 C1678 1.362 . S
H1680 C1686 0.930 . S
H1681 C1689 0.930 . S
H1682 C1690 0.930 . S
H1683 C1691 0.930 . S
H1684 C1694 0.930 . S
H1685 C1695 0.930 . S
C1686 H1680 0.930 . S
C1686 C1687 1.355 . S
C1686 C1688 1.415 . S
C1687 C1686 1.355 . S
C1687 C1689 1.419 . S
C1688 C1686 1.415 . S
C1688 C1693 1.425 . S
C1688 C1695 1.409 . S
C1689 H1681 0.930 . S
C1689 C1687 1.419 . S
C1689 C1690 1.362 . S
C1690 H1682 0.930 . S
C1690 C1689 1.362 . S
C1690 C1693 1.409 . S
C1691 H1683 0.930 . S
C1691 C1692 1.355 . S
C1691 C1693 1.415 . S
C1692 C1691 1.355 . S
C1692 C1694 1.419 . S
C1693 C1688 1.425 . S
C1693 C1690 1.409 . S
C1693 C1691 1.415 . S
C1694 H1684 0.930 . S
C1694 C1692 1.419 . S
C1694 C1695 1.362 . S
C1695 H1685 0.930 . S
C1695 C1688 1.409 . S
C1695 C1694 1.362 . S
H1696 C1702 0.930 . S
H1697 C1705 0.930 . S
H1698 C1706 0.930 . S
H1699 C1707 0.930 . S
H1700 C1710 0.930 . S
H1701 C1711 0.930 . S
C1702 H1696 0.930 . S
C1702 C1703 1.355 . S
C1702 C1704 1.415 . S
C1703 C1702 1.355 . S
C1703 C1705 1.419 . S
C1704 C1702 1.415 . S
C1704 C1709 1.425 . S
C1704 C1711 1.409 . S
C1705 H1697 0.930 . S
C1705 C1703 1.419 . S
C1705 C1706 1.362 . S
C1706 H1698 0.930 . S
C1706 C1705 1.362 . S
C1706 C1709 1.409 . S
C1707 H1699 0.930 . S
C1707 C1708 1.355 . S
C1707 C1709 1.415 . S
C1708 C1707 1.355 . S
C1708 C1710 1.419 . S
C1709 C1704 1.425 . S
C1709 C1706 1.409 . S
C1709 C1707 1.415 . S
C1710 H1700 0.930 . S
C1710 C1708 1.419 . S
C1710 C1711 1.362 . S
C1711 H1701 0.930 . S
C1711 C1704 1.409 . S
C1711 C1710 1.362 . S
H1712 C1718 0.930 . S
H1713 C1721 0.930 . S
H1714 C1722 0.930 . S
H1715 C1723 0.930 . S
H1716 C1726 0.930 . S
H1717 C1727 0.930 . S
C1718 H1712 0.930 . S
C1718 C1719 1.355 . S
C1718 C1720 1.415 . S
C1719 C1718 1.355 . S
C1719 C1721 1.419 . S
C1720 C1718 1.415 . S
C1720 C1725 1.425 . S
C1720 C1727 1.409 . S
C1721 H1713 0.930 . S
C1721 C1719 1.419 . S
C1721 C1722 1.362 . S
C1722 H1714 0.930 . S
C1722 C1721 1.362 . S
C1722 C1725 1.409 . S
C1723 H1715 0.930 . S
C1723 C1724 1.355 . S
C1723 C1725 1.415 . S
C1724 C1723 1.355 . S
C1724 C1726 1.419 . S
C1725 C1720 1.425 . S
C1725 C1722 1.409 . S
C1725 C1723 1.415 . S
C1726 H1716 0.930 . S
C1726 C1724 1.419 . S
C1726 C1727 1.362 . S
C1727 H1717 0.930 . S
C1727 C1720 1.409 . S
C1727 C1726 1.362 . S
H1728 C1734 0.930 . S
H1729 C1737 0.930 . S
H1730 C1738 0.930 . S
H1731 C1739 0.930 . S
H1732 C1742 0.930 . S
H1733 C1743 0.930 . S
C1734 H1728 0.930 . S
C1734 C1735 1.355 . S
C1734 C1736 1.415 . S
C1735 C1734 1.355 . S
C1735 C1737 1.419 . S
C1736 C1734 1.415 . S
C1736 C1741 1.425 . S
C1736 C1743 1.409 . S
C1737 H1729 0.930 . S
C1737 C1735 1.419 . S
C1737 C1738 1.362 . S
C1738 H1730 0.930 . S
C1738 C1737 1.362 . S
C1738 C1741 1.409 . S
C1739 H1731 0.930 . S
C1739 C1740 1.355 . S
C1739 C1741 1.415 . S
C1740 C1739 1.355 . S
C1740 C1742 1.419 . S
C1741 C1736 1.425 . S
C1741 C1738 1.409 . S
C1741 C1739 1.415 . S
C1742 H1732 0.930 . S
C1742 C1740 1.419 . S
C1742 C1743 1.362 . S
C1743 H1733 0.930 . S
C1743 C1736 1.409 . S
C1743 C1742 1.362 . S
H1744 C1750 0.930 . S
H1745 C1753 0.930 . S
H1746 C1754 0.930 . S
H1747 C1755 0.930 . S
H1748 C1758 0.930 . S
H1749 C1759 0.930 . S
C1750 H1744 0.930 . S
C1750 C1751 1.355 . S
C1750 C1752 1.415 . S
C1751 C1750 1.355 . S
C1751 C1753 1.419 . S
C1752 C1750 1.415 . S
C1752 C1757 1.425 . S
C1752 C1759 1.409 . S
C1753 H1745 0.930 . S
C1753 C1751 1.419 . S
C1753 C1754 1.362 . S
C1754 H1746 0.930 . S
C1754 C1753 1.362 . S
C1754 C1757 1.409 . S
C1755 H1747 0.930 . S
C1755 C1756 1.355 . S
C1755 C1757 1.415 . S
C1756 C1755 1.355 . S
C1756 C1758 1.419 . S
C1757 C1752 1.425 . S
C1757 C1754 1.409 . S
C1757 C1755 1.415 . S
C1758 H1748 0.930 . S
C1758 C1756 1.419 . S
C1758 C1759 1.362 . S
C1759 H1749 0.930 . S
C1759 C1752 1.409 . S
C1759 C1758 1.362 . S
H1760 C1766 0.930 . S
H1761 C1769 0.930 . S
H1762 C1770 0.930 . S
H1763 C1771 0.930 . S
H1764 C1774 0.930 . S
H1765 C1775 0.930 . S
C1766 H1760 0.930 . S
C1766 C1767 1.355 . S
C1766 C1768 1.415 . S
C1767 C1766 1.355 . S
C1767 C1769 1.419 . S
C1768 C1766 1.415 . S
C1768 C1773 1.425 . S
C1768 C1775 1.409 . S
C1769 H1761 0.930 . S
C1769 C1767 1.419 . S
C1769 C1770 1.362 . S
C1770 H1762 0.930 . S
C1770 C1769 1.362 . S
C1770 C1773 1.409 . S
C1771 H1763 0.930 . S
C1771 C1772 1.355 . S
C1771 C1773 1.415 . S
C1772 C1771 1.355 . S
C1772 C1774 1.419 . S
C1773 C1768 1.425 . S
C1773 C1770 1.409 . S
C1773 C1771 1.415 . S
C1774 H1764 0.930 . S
C1774 C1772 1.419 . S
C1774 C1775 1.362 . S
C1775 H1765 0.930 . S
C1775 C1768 1.409 . S
C1775 C1774 1.362 . S
C636 C354 1.472 . S
C631 C308 1.575 . S
C647 C282 1.406 . S
C652 C348 1.311 . S
C668 C316 1.418 . S
C663 C269 1.533 . S
C679 C295 1.754 . S
C684 C330 1.580 . S
C700 C368 1.939 . S
C695 C217 2.011 . S
C716 C455 1.560 . S
C711 C230 1.576 . S
C727 C243 2.077 . S
C732 C382 1.937 . S
C748 C450 1.101 . S
C743 C256 1.093 . S
C759 C165 2.050 . S
C764 C406 1.990 . S
C780 C461 1.373 . S
C775 C178 1.451 . S
C791 C191 2.029 . S
C796 C400 1.891 . S
C807 C204 1.331 . S
C812 C446 1.330 . S
C828 C502 1.299 . S
C823 C152 1.362 . S
C839 C126 1.479 . S
C844 C513 1.461 . S
C855 C113 1.222 . S
C860 C498 1.159 . S
C876 C507 1.666 . S
C871 C139 1.695 . S
C887 C61 1.629 . S
C892 C552 1.572 . S
C903 C74 0.939 . S
C908 C611 0.898 . S
C919 C87 1.771 . S
C924 C568 1.695 . S
C935 C100 1.109 . S
C940 C606 1.102 . S
C956 C570 1.633 . S
C951 C9 1.793 . S
C972 C617 0.662 . S
C967 C22 0.723 . S
C983 C35 1.632 . S
C988 C546 1.536 . S
C1004 C602 1.254 . S
C999 C48 1.275 . S
C1020 C338 1.488 . S
C1015 C4 1.372 . S
C1031 C21 1.275 . S
C1036 C342 1.282 . S
C1047 C34 1.808 . S
C1052 C362 1.738 . S
C1063 C43 0.964 . S
C1068 C357 0.950 . S
C1079 C56 1.452 1_455 S
C1084 C360 1.573 1_655 S
C1100 C346 1.122 . S
C1095 C69 0.945 1_545 S
C1111 C86 1.723 . S
C1116 C344 1.652 . S
C1132 C351 1.028 . S
C1127 C99 0.972 . S
C1148 C414 1.604 . S
C1143 C47 1.657 . S
C1159 C8 1.965 . S
C1164 C464 1.877 . S
C1180 C412 1.016 . S
C1175 C17 0.901 . S
C1196 C448 1.609 . S
C1191 C30 1.516 . S
C1207 C73 1.387 . S
C1212 C390 1.358 . S
C1228 C466 1.628 . S
C1223 C82 1.601 . S
C1244 C396 1.299 . S
C1239 C95 1.212 . S
C1260 C442 1.809 . S
C1255 C60 1.920 . S
C1276 C434 1.400 . S
C1271 C112 1.467 . S
C1287 C125 1.317 . S
C1292 C458 1.306 . S
C1308 C394 1.146 . S
C1303 C108 0.960 . S
C1324 C420 1.445 . S
C1319 C138 1.540 . S
C1335 C147 0.902 . S
C1340 C398 1.094 . S
C1351 C151 1.605 . S
C1356 C452 1.555 . S
C1372 C409 1.390 . S
C1367 C121 1.135 . S
C1388 C403 1.433 . S
C1383 C134 1.132 1_554 S
C1404 C486 1.778 . S
C1399 C160 1.672 . S
C1420 C518 1.448 . S
C1415 C177 1.368 . S
C1431 C190 2.026 . S
C1436 C472 1.922 . S
C1452 C516 1.071 . S
C1447 C199 1.092 . S
C1468 C504 1.783 . S
C1463 C212 1.578 . S
C1479 C225 1.210 . S
C1484 C500 1.316 . S
C1495 C242 2.060 . S
C1500 C510 1.983 . S
C1516 C494 1.117 . S
C1511 C255 1.167 . S
C1532 C559 1.477 . S
C1527 C203 1.465 . S
C1543 C164 1.742 . S
C1548 C620 1.652 . S
C1564 C554 1.003 . S
C1559 C173 0.993 . S
C1580 C604 1.522 . S
C1575 C186 1.332 . S
C1596 C550 1.198 . S
C1591 C229 1.245 . S
C1607 C238 1.212 . S
C1612 C622 1.505 . S
C1628 C565 1.223 . S
C1623 C251 1.090 . S
C1644 C598 1.615 . S
C1639 C216 1.607 . S
C1660 C590 1.524 . S
C1655 C268 1.620 . S
C1671 C281 1.690 . S
C1676 C614 1.566 . S
C1692 C556 1.350 . S
C1687 C264 1.174 . S
C1703 C294 1.967 . S
C1708 C576 1.868 . S
C1724 C538 1.459 . S
C1719 C303 1.370 . S
C1740 C608 1.700 . S
C1735 C307 1.751 . S
C1756 C524 1.342 . S
C1751 C277 1.204 . S
C1767 C290 1.319 . S
C1772 C562 1.404 . S
