# Generated by pormake.
# Topology zzz, (3,6)-cn, num edge types: 1
# Building blocks:
#     Node 0, Type 0, BuildingBlock: PAMTOO_clean_linker_0, # of connection points: 3
#     Node 1, Type 0, BuildingBlock: PAMTOO_clean_linker_0, # of connection points: 3
#     Node 2, Type 0, BuildingBlock: PAMTOO_clean_linker_0, # of connection points: 3
#     Node 3, Type 0, BuildingBlock: PAMTOO_clean_linker_0, # of connection points: 3
#     Node 4, Type 0, BuildingBlock: PAMTOO_clean_linker_0, # of connection points: 3
#     Node 5, Type 0, BuildingBlock: PAMTOO_clean_linker_0, # of connection points: 3
#     Node 6, Type 0, BuildingBlock: PAMTOO_clean_linker_0, # of connection points: 3
#     Node 7, Type 0, BuildingBlock: PAMTOO_clean_linker_0, # of connection points: 3
#     Node 8, Type 1, BuildingBlock: KUMJIN_clean_sbu_0, # of connection points: 6
#     Node 9, Type 1, BuildingBlock: KUMJIN_clean_sbu_0, # of connection points: 6
#     Node 10, Type 1, BuildingBlock: KUMJIN_clean_sbu_0, # of connection points: 6
#     Node 11, Type 1, BuildingBlock: KUMJIN_clean_sbu_0, # of connection points: 6
#     Edge 12, Type (0, 1), BuildingBlock: MIFKUJ_clean_linker_0, # of connection points: 2
#     Edge 13, Type (0, 1), BuildingBlock: MIFKUJ_clean_linker_0, # of connection points: 2
#     Edge 14, Type (0, 1), BuildingBlock: MIFKUJ_clean_linker_0, # of connection points: 2
#     Edge 15, Type (0, 1), BuildingBlock: MIFKUJ_clean_linker_0, # of connection points: 2
#     Edge 16, Type (0, 1), BuildingBlock: MIFKUJ_clean_linker_0, # of connection points: 2
#     Edge 17, Type (0, 1), BuildingBlock: MIFKUJ_clean_linker_0, # of connection points: 2
#     Edge 18, Type (0, 1), BuildingBlock: MIFKUJ_clean_linker_0, # of connection points: 2
#     Edge 19, Type (0, 1), BuildingBlock: MIFKUJ_clean_linker_0, # of connection points: 2
#     Edge 20, Type (0, 1), BuildingBlock: MIFKUJ_clean_linker_0, # of connection points: 2
#     Edge 21, Type (0, 1), BuildingBlock: MIFKUJ_clean_linker_0, # of connection points: 2
#     Edge 22, Type (0, 1), BuildingBlock: MIFKUJ_clean_linker_0, # of connection points: 2
#     Edge 23, Type (0, 1), BuildingBlock: MIFKUJ_clean_linker_0, # of connection points: 2
#     Edge 24, Type (0, 1), BuildingBlock: MIFKUJ_clean_linker_0, # of connection points: 2
#     Edge 25, Type (0, 1), BuildingBlock: MIFKUJ_clean_linker_0, # of connection points: 2
#     Edge 26, Type (0, 1), BuildingBlock: MIFKUJ_clean_linker_0, # of connection points: 2
#     Edge 27, Type (0, 1), BuildingBlock: MIFKUJ_clean_linker_0, # of connection points: 2
#     Edge 28, Type (0, 1), BuildingBlock: MIFKUJ_clean_linker_0, # of connection points: 2
#     Edge 29, Type (0, 1), BuildingBlock: MIFKUJ_clean_linker_0, # of connection points: 2
#     Edge 30, Type (0, 1), BuildingBlock: MIFKUJ_clean_linker_0, # of connection points: 2
#     Edge 31, Type (0, 1), BuildingBlock: MIFKUJ_clean_linker_0, # of connection points: 2
#     Edge 32, Type (0, 1), BuildingBlock: MIFKUJ_clean_linker_0, # of connection points: 2
#     Edge 33, Type (0, 1), BuildingBlock: MIFKUJ_clean_linker_0, # of connection points: 2
#     Edge 34, Type (0, 1), BuildingBlock: MIFKUJ_clean_linker_0, # of connection points: 2
#     Edge 35, Type (0, 1), BuildingBlock: MIFKUJ_clean_linker_0, # of connection points: 2
# Relax obj value: 0.145
# Max RMSD: 0.152
# Mean RMSD: 0.111
data_MOF--net-zzz--node1-KUMJIN_clean_sbu_0--node2-PAMTOO_clean_linker_0--edge1-MIFKUJ_clean_linker_0
_symmetry_space_group_name_H-M    P1
_symmetry_Int_Tables_number       1
_symmetry_cell_setting            triclinic
loop_
_symmetry_equiv_pos_as_xyz
'x, y, z'
_cell_length_a     65.689273
_cell_length_b     65.548754
_cell_length_c     19.222985
_cell_angle_alpha  90.685565
_cell_angle_beta   90.055386
_cell_angle_gamma 89.934452
loop_
_atom_site_label
_atom_site_type_symbol
_atom_site_fract_x
_atom_site_fract_y
_atom_site_fract_z
_atom_type_partial_charge
H0 H 0.80324 0.59099 0.23109 0.0
H1 H 0.74708 0.59893 0.12741 0.0
H2 H 0.75157 0.55546 0.29512 0.0
H3 H 0.73316 0.56217 0.08887 0.0
C4 C 0.72058 0.56912 0.11991 0.0
O5 O 0.72655 0.56972 0.19051 0.0
H6 H 0.71878 0.58504 0.10175 0.0
C7 C 0.78697 0.58807 0.22921 0.0
C8 C 0.77845 0.57435 0.27621 0.0
C9 C 0.77603 0.59462 0.17161 0.0
C10 C 0.75503 0.59203 0.17031 0.0
C11 C 0.74583 0.57654 0.20972 0.0
C12 C 0.75796 0.56742 0.26356 0.0
H13 H 0.95223 0.80983 0.2367 0.0
H14 H 0.9495 0.7534 0.12939 0.0
H15 H 0.98931 0.76 0.30905 0.0
H16 H 0.97357 0.73178 0.09768 0.0
C17 C 0.97136 0.72227 0.14471 0.0
O18 O 0.97775 0.73362 0.20377 0.0
H19 H 0.95468 0.71957 0.14924 0.0
C20 C 0.95667 0.79394 0.23434 0.0
C21 C 0.97033 0.78639 0.28385 0.0
C22 C 0.95049 0.78232 0.17714 0.0
C23 C 0.95568 0.7618 0.17324 0.0
C24 C 0.97033 0.75317 0.21803 0.0
C25 C 0.97791 0.76592 0.27394 0.0
H26 H 0.72845 0.96349 0.22346 0.0
H27 H 0.78761 0.96432 0.12855 0.0
H28 H 0.77841 0.99214 0.33074 0.0
H29 H 0.82093 1.01046 0.23619 0.0
C30 C 0.81414 1.00034 0.19567 0.0
O31 O 0.80595 0.98334 0.22852 0.0
H32 H 0.80174 1.00932 0.17092 0.0
C33 C 0.74457 0.96689 0.22676 0.0
C34 C 0.75163 0.97746 0.28558 0.0
C35 C 0.7572 0.96222 0.16993 0.0
C36 C 0.77774 0.9678 0.17229 0.0
C37 C 0.78563 0.97862 0.22934 0.0
C38 C 0.77246 0.98375 0.28638 0.0
H39 H 0.57905 0.73517 0.20719 0.0
H40 H 0.5779 0.79493 0.11856 0.0
H41 H 0.55618 0.78601 0.32754 0.0
H42 H 0.53695 0.83034 0.23643 0.0
C43 C 0.54546 0.82199 0.19514 0.0
O44 O 0.56279 0.81349 0.22513 0.0
H45 H 0.53513 0.80968 0.17578 0.0
C46 C 0.57659 0.75147 0.21343 0.0
C47 C 0.56825 0.75881 0.27591 0.0
C48 C 0.5797 0.76422 0.15642 0.0
C49 C 0.57566 0.78506 0.16276 0.0
C50 C 0.56711 0.79311 0.22353 0.0
C51 C 0.56306 0.77991 0.28054 0.0
H52 H 0.23426 0.46019 0.03831 0.0
H53 H 0.29273 0.46664 0.13212 0.0
H54 H 0.28451 0.48228 0.91614 0.0
H55 H 0.3361 0.46892 0.97874 0.0
C56 C 0.32799 0.46822 0.02932 0.0
O57 O 0.31114 0.48124 0.02596 0.0
H58 H 0.32294 0.45213 0.03552 0.0
C59 C 0.25036 0.46315 0.03146 0.0
C60 C 0.2574 0.47032 0.96737 0.0
C61 C 0.26298 0.46121 0.08955 0.0
C62 C 0.28323 0.46727 0.08605 0.0
C63 C 0.29136 0.47461 0.02411 0.0
C64 C 0.27841 0.47622 0.96391 0.0
H65 H 0.09192 0.24121 0.95827 0.0
H66 H 0.08209 0.2907 0.10091 0.0
H67 H 0.04054 0.28093 0.93146 0.0
H68 H 0.05593 0.33358 0.98227 0.0
C69 C 0.06037 0.32698 0.03306 0.0
O70 O 0.05225 0.30725 0.03638 0.0
H71 H 0.07731 0.32627 0.03312 0.0
C72 C 0.08373 0.25492 0.97306 0.0
C73 C 0.06555 0.25896 0.93761 0.0
C74 C 0.08663 0.2633 0.03964 0.0
C75 C 0.07836 0.28272 0.05288 0.0
C76 C 0.06226 0.29008 0.01242 0.0
C77 C 0.05484 0.27732 0.95643 0.0
H78 H 0.30529 0.06977 0.01845 0.0
H79 H 0.24641 0.06503 0.10884 0.0
H80 H 0.2543 0.05241 0.8891 0.0
H81 H 0.203 0.06649 0.95673 0.0
C82 C 0.21133 0.06613 0.00701 0.0
O83 O 0.2276 0.05245 0.99956 0.0
H84 H 0.21714 0.08188 0.01658 0.0
C85 C 0.28911 0.06764 0.01029 0.0
C86 C 0.28188 0.06219 0.94404 0.0
C87 C 0.27644 0.06964 0.0681 0.0
C88 C 0.256 0.06438 0.063 0.0
C89 C 0.24768 0.05821 0.99932 0.0
C90 C 0.26061 0.0572 0.93867 0.0
H91 H 0.45038 0.30282 0.00718 0.0
H92 H 0.46113 0.24601 0.10797 0.0
H93 H 0.47913 0.25334 0.89477 0.0
H94 H 0.47001 0.19983 0.96137 0.0
C95 C 0.46601 0.20945 0.00727 0.0
O96 O 0.47739 0.2274 0.00439 0.0
H97 H 0.44947 0.21298 1.00269 0.0
C98 C 0.45454 0.28682 1.00282 0.0
C99 C 0.46386 0.27968 0.94169 0.0
C100 C 0.45422 0.27502 0.06287 0.0
C101 C 0.46068 0.25479 0.06049 0.0
C102 C 0.46908 0.24648 1.00004 0.0
C103 C 0.47122 0.25913 0.94026 0.0
Eu104 Eu 0.03637 1.00973 0.68367 0.0
C105 C 0.96753 1.01099 0.46652 0.0
C106 C 0.9843 0.99809 0.3626 0.0
C107 C 0.94747 0.99728 0.36988 0.0
C108 C 0.9853 1.00689 0.43022 0.0
C109 C 0.94841 1.00639 0.43617 0.0
C110 C 0.96536 0.99323 0.33306 0.0
C111 C 0.93218 0.02262 0.53455 0.0
N112 N 0.96877 0.02052 0.52949 0.0
C113 C 0.95136 0.02734 0.56146 0.0
C114 C 0.93068 0.01188 0.47192 0.0
Eu115 Eu 1.00168 0.03156 0.56586 0.0
N116 N 1.0035 1.01168 0.46016 0.0
C117 C 0.02117 1.0073 0.42499 0.0
C118 C 1.00235 0.9945 0.32612 0.0
C119 C 0.02087 0.99901 0.3577 0.0
H120 H 0.9522 0.03719 0.60669 0.0
H121 H 0.035 0.99565 0.33094 0.0
H122 H 0.96439 0.98648 0.28142 0.0
H123 H 0.91858 0.02787 0.56103 0.0
H124 H 0.03574 1.00905 0.4484 0.0
H125 H 0.99937 0.04417 0.91571 0.0
H126 H 1.00216 0.98787 0.2742 0.0
H127 H 0.08658 1.01159 0.64044 0.0
H128 H 1.00019 0.02643 0.80615 0.0
H129 H 0.11777 0.02832 0.67855 0.0
H130 H 0.93294 0.99372 0.34592 0.0
H131 H 0.03034 0.06041 0.96261 0.0
H132 H 0.06693 0.06856 0.94911 0.0
H133 H 0.91578 1.00865 0.45023 0.0
H134 H 0.09866 0.06527 0.88306 0.0
N135 N 0.03197 0.03095 0.78609 0.0
C136 C 0.01424 0.03263 0.82359 0.0
C137 C 0.03097 0.0523 0.9132 0.0
C138 C 0.04898 0.05112 0.87496 0.0
C139 C 0.01354 0.04306 0.8872 0.0
C140 C 0.04911 0.04022 0.81078 0.0
H141 H 0.11755 0.05083 0.78219 0.0
N142 N 0.06725 0.02704 0.71369 0.0
C143 C 0.10358 0.03171 0.70483 0.0
C144 C 0.06706 0.03846 0.77321 0.0
C145 C 0.08551 0.02275 0.6819 0.0
C146 C 0.1034 0.0443 0.76345 0.0
C147 C 0.08518 0.04741 0.79942 0.0
O148 O 0.06074 0.98791 0.7007 0.0
O149 O 0.01171 1.00099 0.60679 0.0
O150 O 0.98146 0.0184 0.65153 0.0
O151 O 1.00404 1.00124 0.72335 0.0
O152 O 0.03851 0.98519 0.59955 0.0
O153 O 0.03547 0.98925 0.77257 0.0
O154 O 0.98171 0.05823 0.56424 0.0
O155 O 0.02676 0.04011 0.64126 0.0
O156 O 0.0554 0.01815 0.5878 0.0
O157 O 0.0338 0.03844 0.52307 0.0
O158 O 0.99905 0.05421 0.65588 0.0
O159 O 1.00342 0.05252 0.4787 0.0
C160 C 0.02029 0.98614 0.57472 0.0
C161 C 0.05392 0.95788 0.76246 0.0
C162 C 0.04071 0.92569 0.80425 0.0
C163 C 0.03795 0.94647 0.79079 0.0
C164 C 0.05931 0.91622 0.78804 0.0
C165 C 0.07244 0.94818 0.74626 0.0
C166 C 0.07504 0.92742 0.75861 0.0
C167 C 0.9852 1.00716 0.70694 0.0
C168 C 0.05245 0.98014 0.75561 0.0
C169 C 0.08488 0.05845 0.86229 0.0
C170 C 0.06685 0.06026 0.9 0.0
C171 C 0.0178 0.05423 0.67552 0.0
C172 C 0.9815 0.08197 0.46971 0.0
C173 C 0.99571 0.09588 0.4455 0.0
C174 C 0.98937 0.11347 0.41114 0.0
C175 C 0.96842 0.11708 0.40204 0.0
C176 C 0.96065 0.08567 0.46141 0.0
C177 C 0.95414 0.10322 0.42738 0.0
C178 C 0.05216 0.03072 0.53549 0.0
C179 C 0.98879 0.06381 0.50434 0.0
H180 H 0.02367 0.95377 0.80459 0.0
H181 H 0.06162 0.90015 0.79821 0.0
H182 H 0.08508 0.95675 0.72526 0.0
H183 H 0.08939 0.92009 0.74637 0.0
H184 H 0.01176 0.0931 0.45483 0.0
H185 H 0.96307 0.13043 0.37484 0.0
H186 H 0.9495 0.07493 0.4805 0.0
H187 H 0.93804 0.10603 0.42028 0.0
Eu188 Eu 0.52596 0.03896 0.67976 0.0
C189 C 0.53679 0.97289 0.46658 0.0
C190 C 0.54725 0.99096 0.36293 0.0
C191 C 0.55528 0.95516 0.37401 0.0
C192 C 0.53765 0.99088 0.42904 0.0
C193 C 0.54549 0.95482 0.43855 0.0
C194 C 0.55608 0.9731 0.33607 0.0
C195 C 0.53162 0.9362 0.53445 0.0
N196 N 0.52631 0.97257 0.52755 0.0
C197 C 0.5227 0.95419 0.55895 0.0
C198 C 0.54325 0.93653 0.47426 0.0
Eu199 Eu 0.50777 1.00286 0.55634 0.0
N200 N 0.52862 1.00804 0.45535 0.0
C201 C 0.52934 0.02569 0.41771 0.0
C202 C 0.54744 1.0089 0.32463 0.0
C203 C 0.53853 0.02636 0.35238 0.0
H204 H 0.51197 0.95291 0.60101 0.0
H205 H 0.53886 0.04048 0.32377 0.0
H206 H 0.56335 0.97293 0.28547 0.0
H207 H 0.52877 0.92192 0.56043 0.0
H208 H 0.52329 0.03966 0.43616 0.0
H209 H 0.49208 1.00141 0.90725 0.0
H210 H 0.55455 1.00947 0.27384 0.0
H211 H 0.52183 0.08888 0.63255 0.0
H212 H 0.5088 1.00224 0.79615 0.0
H213 H 0.50487 0.11991 0.6716 0.0
H214 H 0.56187 0.94143 0.35238 0.0
H215 H 0.4761 0.03248 0.95576 0.0
H216 H 0.46762 0.06913 0.94351 0.0
H217 H 0.54962 0.92241 0.454 0.0
H218 H 0.47036 0.10087 0.87846 0.0
N219 N 0.50397 0.03399 0.77785 0.0
C220 C 0.50267 0.01625 0.8147 0.0
C221 C 0.48374 0.03307 0.90588 0.0
C222 C 0.48444 0.05107 0.86793 0.0
C223 C 0.49282 0.01557 0.87892 0.0
C224 C 0.49479 0.05117 0.80322 0.0
H225 H 0.48362 0.11972 0.77694 0.0
N226 N 0.50724 0.06938 0.70618 0.0
C227 C 0.50189 0.1057 0.69779 0.0
C228 C 0.49616 0.06916 0.76596 0.0
C229 C 0.51094 0.08766 0.67426 0.0
C230 C 0.48995 0.10552 0.75732 0.0
C231 C 0.4873 0.0873 0.79305 0.0
O232 O 0.54672 0.06423 0.69897 0.0
O233 O 0.53688 0.01464 0.60376 0.0
O234 O 0.51827 0.98473 0.65101 0.0
O235 O 0.53658 1.00753 0.71958 0.0
O236 O 0.55197 0.04202 0.60228 0.0
O237 O 0.54371 0.04041 0.77565 0.0
O238 O 0.48649 0.9777 0.54302 0.0
O239 O 0.49682 0.0272 0.6317 0.0
O240 O 0.51711 0.05694 0.58325 0.0
O241 O 0.49706 0.03463 0.51862 0.0
O242 O 0.48196 0.99978 0.63448 0.0
O243 O 0.48999 0.99991 0.46095 0.0
C244 C 0.5516 0.02396 0.57496 0.0
C245 C 0.57418 0.06009 0.77604 0.0
C246 C 0.60659 0.04715 0.81687 0.0
C247 C 0.58627 0.04374 0.79798 0.0
C248 C 0.61473 0.06695 0.81393 0.0
C249 C 0.58247 0.0798 0.77354 0.0
C250 C 0.60267 0.08318 0.79236 0.0
C251 C 0.53044 0.98866 0.70435 0.0
C252 C 0.55263 0.05746 0.75899 0.0
C253 C 0.47692 0.08704 0.85668 0.0
C254 C 0.47547 0.06899 0.89393 0.0
C255 C 0.48204 0.018 0.66048 0.0
C256 C 0.45979 0.97999 0.46232 0.0
C257 C 0.44672 0.99638 0.44971 0.0
C258 C 0.4267 0.99269 0.42772 0.0
C259 C 0.41986 0.97247 0.41935 0.0
C260 C 0.45279 0.9599 0.45417 0.0
C261 C 0.43285 0.95618 0.43291 0.0
C262 C 0.50407 0.05335 0.53218 0.0
C263 C 0.48107 0.98317 0.48094 0.0
H264 H 0.58002 0.02845 0.80016 0.0
H265 H 0.63034 0.06988 0.82923 0.0
H266 H 0.57321 0.09263 0.75761 0.0
H267 H 0.60895 0.09842 0.79071 0.0
H268 H 0.45212 0.0119 0.4566 0.0
H269 H 0.40459 0.96923 0.40103 0.0
H270 H 0.46285 0.9471 0.4635 0.0
H271 H 0.42756 0.94066 0.42601 0.0
Eu272 Eu 0.5348 0.51157 0.55714 0.0
C273 C 0.44769 0.52781 0.67377 0.0
C274 C 0.43523 0.55293 0.59251 0.0
C275 C 0.41154 0.53603 0.66953 0.0
C276 C 0.45154 0.54212 0.62285 0.0
C277 C 0.42758 0.52455 0.69721 0.0
C278 C 0.41534 0.55013 0.61713 0.0
C279 C 0.44047 0.49892 0.77469 0.0
N280 N 0.46348 0.51683 0.69942 0.0
C281 C 0.46009 0.50277 0.75047 0.0
C282 C 0.42413 0.5099 0.74813 0.0
Eu283 Eu 0.49651 0.52933 0.67226 0.0
N284 N 0.471 0.54469 0.60051 0.0
C285 C 0.47476 0.55684 0.54438 0.0
C286 C 0.43927 0.566 0.53735 0.0
C287 C 0.45907 0.56762 0.51233 0.0
H288 H 0.47266 0.4951 0.77551 0.0
H289 H 0.46229 0.57725 0.46832 0.0
H290 H 0.40273 0.55858 0.59522 0.0
H291 H 0.43805 0.48786 0.81521 0.0
H292 H 0.48975 0.55817 0.52245 0.0
H293 H 0.57085 0.46479 0.76049 0.0
H294 H 0.42716 0.57449 0.51264 0.0
H295 H 0.55718 0.54492 0.44787 0.0
H296 H 0.54257 0.48144 0.70287 0.0
H297 H 0.59154 0.5546 0.41134 0.0
H298 H 0.39608 0.53392 0.68764 0.0
H299 H 0.60614 0.47139 0.72329 0.0
H300 H 0.63006 0.49002 0.64631 0.0
H301 H 0.40894 0.50708 0.76769 0.0
H302 H 0.63569 0.51484 0.55375 0.0
N303 N 0.56091 0.49697 0.62823 0.0
C304 C 0.55757 0.48415 0.68292 0.0
C305 C 0.59362 0.47864 0.69634 0.0
C306 C 0.59717 0.49217 0.64215 0.0
C307 C 0.57375 0.47483 0.71733 0.0
C308 C 0.58034 0.50133 0.60878 0.0
H309 H 0.62158 0.53916 0.4674 0.0
N310 N 0.56727 0.5252 0.52874 0.0
C311 C 0.58958 0.5439 0.45326 0.0
C312 C 0.58358 0.51581 0.55776 0.0
C313 C 0.57008 0.53855 0.47513 0.0
C314 C 0.60645 0.53507 0.48473 0.0
C315 C 0.60362 0.52078 0.53725 0.0
O316 O 0.53935 0.51123 0.44575 0.0
O317 O 0.50052 0.5114 0.57303 0.0
O318 O 0.49406 0.4943 0.67368 0.0
O319 O 0.52117 0.48259 0.60613 0.0
O320 O 0.51101 0.52149 0.47904 0.0
O321 O 0.54456 0.4835 0.50393 0.0
O322 O 0.49043 0.5297 0.78279 0.0
O323 O 0.53072 0.52903 0.6572 0.0
O324 O 0.53758 0.54648 0.55664 0.0
O325 O 0.51031 0.55824 0.62304 0.0
O326 O 0.51982 0.51862 0.75061 0.0
O327 O 0.48927 0.55811 0.72635 0.0
C328 C 0.49486 0.51649 0.51248 0.0
C329 C 0.53778 0.48085 0.38162 0.0
C330 C 0.52289 0.45105 0.32719 0.0
C331 C 0.52776 0.46216 0.38732 0.0
C332 C 0.52753 0.45873 0.26132 0.0
C333 C 0.5423 0.48859 0.31549 0.0
C334 C 0.53706 0.4776 0.25558 0.0
C335 C 0.5057 0.47924 0.64929 0.0
C336 C 0.54479 0.49219 0.44297 0.0
C337 C 0.62025 0.51124 0.56908 0.0
C338 C 0.61704 0.49704 0.62154 0.0
C339 C 0.53609 0.52345 0.71756 0.0
C340 C 0.49493 0.55933 0.84994 0.0
C341 C 0.50484 0.57821 0.84794 0.0
C342 C 0.5104 0.58798 0.91017 0.0
C343 C 0.50624 0.57897 0.97432 0.0
C344 C 0.49079 0.55037 0.91457 0.0
C345 C 0.49651 0.56013 0.97639 0.0
C346 C 0.52597 0.56155 0.58068 0.0
C347 C 0.48733 0.54923 0.78658 0.0
H348 H 0.52428 0.45597 0.43801 0.0
H349 H 0.52381 0.4501 0.21459 0.0
H350 H 0.55013 0.50304 0.31028 0.0
H351 H 0.54067 0.48357 0.20481 0.0
H352 H 0.50786 0.58551 0.79869 0.0
H353 H 0.51027 0.58667 0.0226 0.0
H354 H 0.48284 0.53593 0.91727 0.0
H355 H 0.49311 0.55324 0.02592 0.0
Eu356 Eu 0.02727 0.53872 0.55115 0.0
C357 C 0.01354 0.45634 0.6962 0.0
C358 C 0.98974 0.43974 0.61749 0.0
C359 C 1.00784 0.41972 0.70309 0.0
C360 C 0.99963 0.45755 0.642 0.0
C361 C 0.01783 0.43733 0.72701 0.0
C362 C 0.99355 0.42103 0.64954 0.0
C363 C 0.0391 0.45482 0.81073 0.0
N364 N 0.02197 0.47378 0.72162 0.0
C365 C 0.03382 0.47331 0.78026 0.0
C366 C 0.03118 0.4367 0.78368 0.0
Eu367 Eu 1.00908 0.50474 0.67665 0.0
N368 N 0.99509 0.47612 0.61523 0.0
C369 C 0.98127 0.4776 0.56199 0.0
C370 C 0.97581 0.44129 0.56284 0.0
C371 C 0.97177 0.46028 0.53442 0.0
H372 H 0.03904 0.48736 0.80427 0.0
H373 H 0.9611 0.46165 0.49179 0.0
H374 H 0.98513 0.40753 0.63441 0.0
H375 H 0.0488 0.45462 0.85628 0.0
H376 H 0.97775 0.49198 0.53843 0.0
H377 H 0.08367 0.57357 0.72875 0.0
H378 H 0.96803 0.42794 0.54239 0.0
H379 H 0.99412 0.56189 0.4431 0.0
H380 H 0.06171 0.54628 0.68726 0.0
H381 H 0.98543 0.59645 0.40574 0.0
H382 H 1.01059 0.4051 0.72716 0.0
H383 H 0.07929 0.60854 0.68504 0.0
H384 H 0.05961 0.63291 0.61269 0.0
H385 H 0.03484 0.4224 0.80852 0.0
H386 H 0.03184 0.63936 0.53036 0.0
N387 N 0.04551 0.56452 0.61399 0.0
C388 C 0.05995 0.56093 0.66399 0.0
C389 C 0.06977 0.59637 0.66473 0.0
C390 C 0.05438 0.60032 0.61646 0.0
C391 C 0.07233 0.57665 0.68935 0.0
C392 C 0.04226 0.58392 0.59168 0.0
H393 H 1.00386 0.62609 0.45499 0.0
N394 N 0.01511 0.57169 0.5216 0.0
C395 C 0.99667 0.59429 0.44622 0.0
C396 C 0.02634 0.58765 0.54593 0.0
C397 C 1.0013 0.57472 0.46913 0.0
C398 C 1.00718 0.61093 0.47384 0.0
C399 C 0.02253 0.60772 0.52295 0.0
O400 O 0.02708 0.54158 0.43859 0.0
O401 O 0.02529 0.50491 0.5732 0.0
O402 O 0.04369 0.50056 0.68164 0.0
O403 O 0.05577 0.5226 0.59706 0.0
O404 O 0.01481 0.51447 0.47782 0.0
O405 O 0.05499 0.54735 0.49646 0.0
O406 O 1.00488 0.50515 0.78942 0.0
O407 O 0.01083 0.53856 0.65391 0.0
O408 O 0.99249 0.54329 0.55127 0.0
O409 O 0.98061 0.51768 0.62241 0.0
O410 O 0.02213 0.52937 0.74771 0.0
O411 O 0.97898 0.49868 0.71985 0.0
C412 C 0.01876 0.49861 0.5143 0.0
C413 C 0.05748 0.54124 0.37416 0.0
C414 C 0.08609 0.52455 0.31868 0.0
C415 C 0.0752 0.52952 0.379 0.0
C416 C 0.07934 0.5314 0.25367 0.0
C417 C 0.05085 0.54815 0.30909 0.0
C418 C 0.06176 0.54323 0.24905 0.0
C419 C 0.05895 0.50922 0.64783 0.0
C420 C 0.04598 0.54738 0.4358 0.0
C421 C 0.03457 0.62392 0.54758 0.0
C422 C 0.05047 0.62022 0.59404 0.0
C423 C 0.01759 0.54526 0.71208 0.0
C424 C 0.97267 0.49782 0.84397 0.0
C425 C 0.95247 0.50421 0.83998 0.0
C426 C 0.9401 0.50422 0.89917 0.0
C427 C 0.94784 0.49656 0.96192 0.0
C428 C 0.98044 0.49044 0.90682 0.0
C429 C 0.96791 0.48956 0.96541 0.0
C430 C 0.9773 0.53256 0.57762 0.0
C431 C 0.98577 0.50034 0.78352 0.0
H432 H 0.08048 0.52419 0.42911 0.0
H433 H 0.08781 0.52778 0.20676 0.0
H434 H 0.03728 0.55748 0.30487 0.0
H435 H 0.05666 0.54866 0.19902 0.0
H436 H 0.94661 0.51002 0.79128 0.0
H437 H 0.93865 0.49666 0.00869 0.0
H438 H 0.99614 0.48549 0.91064 0.0
H439 H 0.97392 0.48394 0.014 0.0
H440 H 0.17592 0.08591 0.0355 0.0
H441 H 0.15042 0.08018 0.12557 0.0
H442 H 0.18599 0.03012 0.20366 0.0
H443 H 0.21161 0.03578 0.11212 0.0
H444 H 0.1473 0.01941 0.20706 0.0
H445 H 0.1817 0.07908 0.28908 0.0
H446 H 0.1957 0.11394 0.28688 0.0
H447 H 0.13592 0.13817 0.2504 0.0
H448 H 0.12159 0.10341 0.2513 0.0
H449 H 0.08888 1.01032 0.51918 0.0
H450 H 0.11604 0.01626 0.43514 0.0
H451 H 0.08145 0.0655 0.34698 0.0
H452 H 0.05436 0.05994 0.43257 0.0
H453 H 0.12035 0.07646 0.35159 0.0
H454 H 0.08616 0.0167 0.26715 0.0
H455 H 0.07203 0.98195 0.27389 0.0
H456 H 0.13154 0.95813 0.31778 0.0
H457 H 0.14598 0.99281 0.3124 0.0
C458 C 0.17837 0.07362 0.07175 0.0
C459 C 0.19591 0.06128 0.06544 0.0
C460 C 0.16374 0.07043 0.1241 0.0
C461 C 0.16605 0.05484 0.17333 0.0
C462 C 0.18356 0.04232 0.16708 0.0
C463 C 0.19833 0.04557 0.11437 0.0
C464 C 0.15003 0.05152 0.22968 0.0
C465 C 0.14175 0.03192 0.23927 0.0
C466 C 0.14199 0.06771 0.27159 0.0
C467 C 0.15061 0.0886 0.26945 0.0
C468 C 0.17157 0.09181 0.27981 0.0
C469 C 0.17956 0.11157 0.27896 0.0
C470 C 0.16672 0.12825 0.2683 0.0
C471 C 0.14586 0.12522 0.25849 0.0
C472 C 0.13779 0.1055 0.25917 0.0
C473 C 0.08707 0.02267 0.48293 0.0
C474 C 0.06927 0.03478 0.48427 0.0
C475 C 0.10265 0.0259 0.43366 0.0
C476 C 0.10105 0.04124 0.38306 0.0
C477 C 0.08338 0.05353 0.38478 0.0
C478 C 0.06774 0.05028 0.43406 0.0
C479 C 0.11765 0.04441 0.32871 0.0
C480 C 0.12598 0.06398 0.31942 0.0
C481 C 0.12573 0.02822 0.28714 0.0
C482 C 0.11712 1.00737 0.29003 0.0
C483 C 0.09621 1.00407 0.27874 0.0
C484 C 0.08815 0.98438 0.28226 0.0
C485 C 0.10087 0.96785 0.29641 0.0
C486 C 0.1217 0.97096 0.30692 0.0
C487 C 0.12983 0.99062 0.30362 0.0
H488 H 0.09461 0.95261 0.29909 0.0
H489 H 0.17293 0.14354 0.26783 0.0
H490 H 0.50133 0.20488 0.08822 0.0
H491 H 0.50736 0.18088 0.18331 0.0
H492 H 0.44544 0.15966 0.1659 0.0
H493 H 0.43927 0.1841 0.07306 0.0
H494 H 0.45447 0.15826 0.29613 0.0
H495 H 0.48912 0.13316 0.092 0.0
H496 H 0.51278 0.13531 0.9928 0.0
H497 H 0.56259 0.14613 0.13331 0.0
H498 H 0.53916 0.14423 0.23334 0.0
H499 H 0.47059 0.05834 0.44586 0.0
H500 H 0.4639 0.08617 0.36385 0.0
H501 H 0.52057 0.11459 0.42238 0.0
H502 H 0.52712 0.08719 0.50483 0.0
H503 H 0.51451 0.11265 0.27523 0.0
H504 H 0.47957 0.136 0.47967 0.0
H505 H 0.45593 0.13188 0.57795 0.0
H506 H 0.40636 0.1225 0.43535 0.0
H507 H 0.4298 0.12639 0.33602 0.0
C508 C 0.48888 0.19542 0.10566 0.0
C509 C 0.46968 0.1968 0.07323 0.0
C510 C 0.49239 0.1814 0.15979 0.0
C511 C 0.47701 0.16785 0.18197 0.0
C512 C 0.4577 0.16971 0.15079 0.0
C513 C 0.45416 0.18381 0.09733 0.0
C514 C 0.48112 0.15121 0.23479 0.0
C515 C 0.46752 0.14823 0.2907 0.0
C516 C 0.49822 0.13793 0.22978 0.0
C517 C 0.51238 0.13873 0.17 0.0
C518 C 0.50511 0.13607 0.10166 0.0
C519 C 0.51848 0.13724 0.04532 0.0
C520 C 0.53917 0.14091 0.05674 0.0
C521 C 0.54656 0.14332 0.12455 0.0
C522 C 0.53325 0.14216 0.18109 0.0
C523 C 0.48156 0.07058 0.44165 0.0
C524 C 0.49929 0.07051 0.48306 0.0
C525 C 0.47773 0.08655 0.39459 0.0
C526 C 0.4917 0.10269 0.38646 0.0
C527 C 0.50949 0.10246 0.42719 0.0
C528 C 0.51312 0.08678 0.47508 0.0
C529 C 0.48788 0.11978 0.33578 0.0
C530 C 0.5015 0.12277 0.28043 0.0
C531 C 0.47077 0.13291 0.34109 0.0
C532 C 0.45646 0.13133 0.40042 0.0
C533 C 0.46363 0.13299 0.46924 0.0
C534 C 0.45028 0.1307 0.52515 0.0
C535 C 0.42965 0.12686 0.51292 0.0
C536 C 0.42234 0.12546 0.44472 0.0
C537 C 0.43565 0.12775 0.38858 0.0
H538 H 0.41934 0.12501 0.55628 0.0
H539 H 0.54949 0.14184 0.01304 0.0
H540 H 0.36341 0.44842 0.05698 0.0
H541 H 0.38923 0.45488 0.14631 0.0
H542 H 0.35361 0.50524 0.22587 0.0
H543 H 0.32775 0.49887 0.13535 0.0
H544 H 0.39077 0.51686 0.22891 0.0
H545 H 0.35892 0.45769 0.3051 0.0
H546 H 0.34508 0.42287 0.30979 0.0
H547 H 0.40527 0.39805 0.29255 0.0
H548 H 0.41956 0.43271 0.28403 0.0
H549 H 0.45557 0.50567 0.55888 0.0
H550 H 0.42537 0.49797 0.48682 0.0
H551 H 0.46323 0.49665 0.30438 0.0
H552 H 0.49246 0.50717 0.37416 0.0
H553 H 0.42223 0.46162 0.36671 0.0
H554 H 0.44899 0.52786 0.2638 0.0
H555 H 0.45919 0.5634 0.28796 0.0
H556 H 0.40148 0.57505 0.38545 0.0
H557 H 0.39141 0.53919 0.36509 0.0
C558 C 0.36101 0.46089 0.09359 0.0
C559 C 0.34339 0.47311 0.08812 0.0
C560 C 0.37583 0.46451 0.14536 0.0
C561 C 0.37362 0.48048 0.1945 0.0
C562 C 0.35597 0.49279 0.18921 0.0
C563 C 0.34105 0.48912 0.13715 0.0
C564 C 0.38998 0.4846 0.24932 0.0
C565 C 0.39746 0.5046 0.25868 0.0
C566 C 0.39884 0.46896 0.2908 0.0
C567 C 0.3903 0.44794 0.29217 0.0
C568 C 0.36923 0.44485 0.30036 0.0
C569 C 0.36131 0.4251 0.30377 0.0
C570 C 0.37431 0.40826 0.30045 0.0
C571 C 0.39526 0.41113 0.29374 0.0
C572 C 0.40326 0.43083 0.28934 0.0
C573 C 0.45727 0.50481 0.50329 0.0
C574 C 0.47634 0.50877 0.47269 0.0
C575 C 0.44001 0.49986 0.46189 0.0
C576 C 0.44165 0.49751 0.389 0.0
C577 C 0.46112 0.49931 0.35962 0.0
C578 C 0.47797 0.50531 0.40018 0.0
C579 C 0.42335 0.49345 0.34273 0.0
C580 C 0.4155 0.47358 0.33569 0.0
C581 C 0.41376 0.50915 0.30458 0.0
C582 C 0.41971 0.53073 0.31474 0.0
C583 C 0.43868 0.53785 0.29186 0.0
C584 C 0.44442 0.55807 0.3047 0.0
C585 C 0.43105 0.57145 0.33865 0.0
C586 C 0.41189 0.56464 0.35964 0.0
C587 C 0.40622 0.54434 0.34786 0.0
H588 H 0.43549 0.58712 0.34838 0.0
H589 H 0.36817 0.39299 0.30372 0.0
H590 H 0.03681 0.36189 0.02726 0.0
H591 H 0.03159 0.3885 0.11561 0.0
H592 H 0.06549 0.35314 0.26365 0.0
H593 H 0.07056 0.32621 0.17457 0.0
H594 H 0.03673 0.37145 0.33303 0.0
H595 H 0.08621 0.39729 0.18178 0.0
H596 H 0.10304 0.40688 0.07236 0.0
H597 H 0.05422 0.4483 0.02725 0.0
H598 H 0.037 0.43883 0.13625 0.0
H599 H 0.0402 0.46349 0.55855 0.0
H600 H 0.04827 0.43254 0.48897 0.0
H601 H 0.01454 0.45688 0.31638 0.0
H602 H 1.00649 0.48722 0.38489 0.0
H603 H 0.04848 0.44329 0.26685 0.0
H604 H 0.9964 0.40605 0.41076 0.0
H605 H 0.98194 0.3917 0.51796 0.0
H606 H 0.0415 0.37246 0.58247 0.0
H607 H 0.05611 0.38586 0.47379 0.0
C608 C 0.04285 0.35949 0.07896 0.0
C609 C 0.05394 0.34157 0.09325 0.0
C610 C 0.04011 0.37502 0.12971 0.0
C611 C 0.04849 0.37347 0.19709 0.0
C612 C 0.05886 0.35513 0.21258 0.0
C613 C 0.06166 0.33954 0.16147 0.0
C614 C 0.04639 0.39096 0.25016 0.0
C615 C 0.03962 0.3871 0.3183 0.0
C616 C 0.0502 0.4117 0.23317 0.0
C617 C 0.06021 0.41718 0.16684 0.0
C618 C 0.07896 0.4083 0.14821 0.0
C619 C 0.0886 0.41376 0.08637 0.0
C620 C 0.07968 0.42815 0.04279 0.0
C621 C 0.0611 0.43714 0.06104 0.0
C622 C 0.05141 0.43175 0.1229 0.0
C623 C 0.03423 0.46207 0.5062 0.0
C624 C 0.0226 0.47814 0.478 0.0
C625 C 0.03883 0.44422 0.46601 0.0
C626 C 0.0321 0.44192 0.39614 0.0
C627 C 0.0202 0.45787 0.36926 0.0
C628 C 0.0155 0.47541 0.40914 0.0
C629 C 0.03794 0.42385 0.34877 0.0
C630 C 0.0456 0.42763 0.2815 0.0
C631 C 0.03552 0.40306 0.36714 0.0
C632 C 0.02731 0.39716 0.43511 0.0
C633 C 1.00639 0.39895 0.44828 0.0
C634 C 0.99816 0.39076 0.50877 0.0
C635 C 0.01081 0.38122 0.55712 0.0
C636 C 0.03173 0.37984 0.545 0.0
C637 C 0.03996 0.38758 0.48375 0.0
H638 H 1.0044 0.3749 0.60402 0.0
H639 H 0.08718 0.43237 0.99496 0.0
H640 H 0.8198 0.01784 0.06851 0.0
H641 H 0.84855 0.01525 0.98913 0.0
H642 H 0.87624 0.97017 0.12058 0.0
H643 H 0.84749 0.97351 0.20247 0.0
H644 H 0.90524 0.99335 0.07829 0.0
H645 H 0.85375 0.95889 0.94976 0.0
H646 H 0.81967 0.95362 0.89874 0.0
H647 H 0.8272 1.007 0.77404 0.0
H648 H 0.86124 0.01273 0.82496 0.0
H649 H 0.98312 0.97917 0.81482 0.0
H650 H 0.95493 0.97336 0.89628 0.0
H651 H 0.91956 0.01958 0.79381 0.0
H652 H 0.94727 0.02514 0.71304 0.0
H653 H 0.89495 0.99069 0.82285 0.0
H654 H 0.9465 0.02556 0.96285 0.0
H655 H 0.98062 0.02907 0.01551 0.0
H656 H 0.97325 0.97162 0.11742 0.0
H657 H 0.93912 0.96773 0.06509 0.0
C658 C 0.83174 1.00698 0.08003 0.0
C659 C 0.83079 0.99543 0.14134 0.0
C660 C 0.84835 1.00546 0.03408 0.0
C661 C 0.86476 0.99211 0.04675 0.0
C662 C 0.86392 0.9805 0.10825 0.0
C663 C 0.84726 0.9822 0.15494 0.0
C664 C 0.88279 0.99099 0.99683 0.0
C665 C 0.90288 0.99242 0.02251 0.0
C666 C 0.88026 0.98988 0.92335 0.0
C667 C 0.85998 0.9863 0.89152 0.0
C668 C 0.8481 0.96955 0.91165 0.0
C669 C 0.82879 0.96648 0.88275 0.0
C670 C 0.82126 0.97999 0.83327 0.0
C671 C 0.83306 0.99655 0.81238 0.0
C672 C 0.85237 0.99969 0.84114 0.0
C673 C 0.96928 0.98799 0.80919 0.0
C674 C 0.96764 1.00244 0.75555 0.0
C675 C 0.95309 0.98478 0.85655 0.0
C676 C 0.93481 0.99616 0.85276 0.0
C677 C 0.93319 1.01037 0.79871 0.0
C678 C 0.94922 0.01348 0.75147 0.0
C679 C 0.91735 0.99364 0.90415 0.0
C680 C 0.89732 0.9915 0.87865 0.0
C681 C 0.92 0.9938 0.97765 0.0
C682 C 0.94037 0.99628 0.00962 0.0
C683 C 0.95221 0.01364 0.99625 0.0
C684 C 0.97154 0.0157 0.02599 0.0
C685 C 0.97914 1.00053 0.06947 0.0
C686 C 0.96737 0.98333 0.08361 0.0
C687 C 0.94802 0.98121 0.05404 0.0
H688 H 0.99412 1.00214 0.09237 0.0
H689 H 0.80629 0.97761 0.81105 0.0
H690 H 0.57756 0.84981 0.17894 0.0
H691 H 0.58078 0.87679 0.09172 0.0
H692 H 0.52502 0.85648 0.99496 0.0
H693 H 0.52236 0.82915 0.07966 0.0
H694 H 0.5501 0.86825 0.8965 0.0
H695 H 0.53105 0.89901 0.12498 0.0
H696 H 0.54105 0.90302 0.24828 0.0
H697 H 0.59662 0.93216 0.18702 0.0
H698 H 0.58703 0.92818 0.0636 0.0
H699 H 0.51022 0.95245 0.72105 0.0
H700 H 0.51785 0.92449 0.79877 0.0
H701 H 0.56958 0.95759 0.87945 0.0
H702 H 0.56186 0.98593 0.8008 0.0
H703 H 0.55294 0.93975 0.98339 0.0
H704 H 0.57455 0.91474 0.76763 0.0
H705 H 0.57383 0.90682 0.64208 0.0
H706 H 0.52365 0.86597 0.67246 0.0
H707 H 0.52379 0.87395 0.79821 0.0
C708 C 0.56627 0.8508 0.13802 0.0
C709 C 0.54985 0.83697 0.13603 0.0
C710 C 0.56795 0.86648 0.08838 0.0
C711 C 0.55287 0.86927 0.03676 0.0
C712 C 0.5369 0.85499 0.03368 0.0
C713 C 0.53539 0.83923 0.08244 0.0
C714 C 0.55283 0.88733 0.98786 0.0
C715 C 0.55045 0.88386 0.91585 0.0
C716 C 0.55443 0.90793 0.01138 0.0
C717 C 0.55852 0.91295 0.08524 0.0
C718 C 0.54529 0.90646 0.13796 0.0
C719 C 0.55093 0.90865 0.20779 0.0
C720 C 0.56961 0.91751 0.22523 0.0
C721 C 0.58227 0.92508 0.17327 0.0
C722 C 0.57673 0.92289 0.10344 0.0
C723 C 0.52355 0.95372 0.75382 0.0
C724 C 0.53572 0.97141 0.75253 0.0
C725 C 0.52789 0.93759 0.79902 0.0
C726 C 0.54467 0.93838 0.84464 0.0
C727 C 0.55665 0.95626 0.84475 0.0
C728 C 0.55224 0.97253 0.79941 0.0
C729 C 0.5492 0.92064 0.8923 0.0
C730 C 0.55248 0.92417 0.96385 0.0
C731 C 0.54923 0.90007 0.86798 0.0
C732 C 0.54906 0.89509 0.79241 0.0
C733 C 0.56325 0.90418 0.74755 0.0
C734 C 0.56295 0.89968 0.67632 0.0
C735 C 0.54867 0.88593 0.64929 0.0
C736 C 0.53468 0.87664 0.69349 0.0
C737 C 0.53486 0.88114 0.76479 0.0
H738 H 0.54847 0.88246 0.5941 0.0
H739 H 0.57446 0.91826 0.27885 0.0
H740 H 0.6808 0.57673 0.16789 0.0
H741 H 0.64895 0.56944 0.10355 0.0
H742 H 0.68294 0.53518 0.95057 0.0
H743 H 0.71422 0.54153 0.0154 0.0
H744 H 0.65592 0.5683 0.89539 0.0
H745 H 0.65508 0.50978 0.05242 0.0
H746 H 0.65419 0.49512 0.16996 0.0
H747 H 0.59866 0.52741 0.21399 0.0
H748 H 0.59943 0.54254 0.0971 0.0
H749 H 0.57398 0.53767 0.67039 0.0
H750 H 0.60522 0.54171 0.73763 0.0
H751 H 0.57024 0.53498 0.92658 0.0
H752 H 0.541 0.52532 0.85804 0.0
H753 H 0.59957 0.52327 0.96739 0.0
H754 H 0.59789 0.58494 0.83122 0.0
H755 H 0.59706 0.60558 0.72465 0.0
H756 H 0.65263 0.57752 0.65477 0.0
H757 H 0.65367 0.55658 0.76054 0.0
C758 C 0.68133 0.56676 0.12261 0.0
C759 C 0.70025 0.55915 0.0988 0.0
C760 C 0.66312 0.56295 0.08479 0.0
C761 C 0.66341 0.55194 0.02113 0.0
C762 C 0.6821 0.54379 0.99894 0.0
C763 C 0.70006 0.54714 0.03724 0.0
C764 C 0.64461 0.54908 0.97631 0.0
C765 C 0.64347 0.5585 0.91097 0.0
C766 C 0.62798 0.53689 0.99678 0.0
C767 C 0.62742 0.52742 0.06631 0.0
C768 C 0.64277 0.51386 0.08736 0.0
C769 C 0.64227 0.50546 0.15384 0.0
C770 C 0.6264 0.51036 0.19947 0.0
C771 C 0.61096 0.52364 0.17864 0.0
C772 C 0.61141 0.53212 0.11229 0.0
C773 C 0.57339 0.53572 0.72588 0.0
C774 C 0.55515 0.52949 0.75739 0.0
C775 C 0.59125 0.53918 0.76572 0.0
C776 C 0.59095 0.53913 0.83964 0.0
C777 C 0.57202 0.53456 0.87066 0.0
C778 C 0.55483 0.52926 0.8307 0.0
C779 C 0.6098 0.54324 0.88537 0.0
C780 C 0.61134 0.53371 0.95105 0.0
C781 C 0.62625 0.55637 0.86668 0.0
C782 C 0.62574 0.56907 0.80345 0.0
C783 C 0.60989 0.58315 0.79301 0.0
C784 C 0.60938 0.59488 0.73273 0.0
C785 C 0.62475 0.59282 0.6829 0.0
C786 C 0.64071 0.57908 0.69334 0.0
C787 C 0.64128 0.56728 0.75345 0.0
H788 H 0.62432 0.6019 0.63627 0.0
H789 H 0.62605 0.50385 0.25093 0.0
H790 H 1.00539 0.71426 0.06457 0.0
H791 H 0.01175 0.68306 0.99665 0.0
H792 H 0.9646 0.65225 0.11004 0.0
H793 H 0.95831 0.68346 0.17832 0.0
H794 H 0.99301 0.6249 0.07516 0.0
H795 H 0.95467 0.67329 0.95063 0.0
H796 H 0.94557 0.70644 0.89987 0.0
H797 H 0.99935 0.70444 0.77317 0.0
H798 H 1.00893 0.67138 0.82394 0.0
H799 H 0.98571 0.54674 0.80548 0.0
H800 H 0.97618 0.57464 0.88603 0.0
H801 H 0.02205 0.6128 0.79484 0.0
H802 H 0.03158 0.58526 0.71843 0.0
H803 H 0.99009 0.63557 0.82041 0.0
H804 H 0.02782 0.5857 0.95529 0.0
H805 H 0.03331 0.55156 0.00463 0.0
H806 H 0.97593 0.5555 0.11062 0.0
H807 H 0.96997 0.58961 0.06115 0.0
C808 C 0.99703 0.70059 0.07758 0.0
C809 C 0.98139 0.70158 0.12779 0.0
C810 C 1.00037 0.68275 0.03735 0.0
C811 C 0.98826 0.66519 0.04606 0.0
C812 C 0.97411 0.66545 0.10114 0.0
C813 C 0.97071 0.68335 0.14124 0.0
C814 C 0.98947 0.64732 0.99511 0.0
C815 C 0.99216 0.6273 0.01952 0.0
C816 C 0.98815 0.64998 0.92194 0.0
C817 C 0.98265 0.66998 0.89176 0.0
C818 C 0.96467 0.68001 0.91247 0.0
C819 C 0.9594 0.69877 0.88358 0.0
C820 C 0.97192 0.70757 0.8335 0.0
C821 C 0.9897 0.69762 0.8121 0.0
C822 C 0.99506 0.67887 0.8409 0.0
C823 C 0.99346 0.56124 0.80142 0.0
C824 C 1.00917 0.56362 0.75182 0.0
C825 C 0.98812 0.57723 0.84839 0.0
C826 C 0.99843 0.59615 0.84776 0.0
C827 C 0.01355 0.59866 0.79702 0.0
C828 C 0.01892 0.58269 0.75117 0.0
C829 C 0.99437 0.61323 0.90022 0.0
C830 C 0.99099 0.63316 0.87605 0.0
C831 C 0.99465 0.61038 0.97347 0.0
C832 C 0.99834 0.59006 1.00383 0.0
C833 C 0.01632 0.57922 0.98874 0.0
C834 C 0.01951 0.5599 0.01674 0.0
C835 C 1.00492 0.55133 0.06043 0.0
C836 C 0.98715 0.56213 0.0765 0.0
C837 C 0.98386 0.58145 0.04853 0.0
H838 H 1.00741 0.53636 0.08203 0.0
H839 H 0.9678 0.72208 0.81113 0.0
H840 H 0.10689 0.22574 0.04502 0.0
H841 H 0.09488 0.19695 0.11306 0.0
H842 H 0.0581 0.23772 0.23765 0.0
H843 H 0.0685 0.26609 0.16883 0.0
H844 H 0.07739 0.21084 0.31448 0.0
H845 H 0.03263 0.21298 0.12856 0.0
H846 H 1.01021 0.20996 0.02626 0.0
H847 H 0.03323 0.14979 0.98386 0.0
H848 H 0.05633 0.15271 0.08467 0.0
H849 H 0.98776 0.15515 0.41142 0.0
H850 H 0.01371 0.1786 0.36894 0.0
H851 H 0.05163 0.1276 0.3093 0.0
H852 H 0.02587 0.10405 0.35091 0.0
H853 H 0.03734 0.15532 0.20391 0.0
H854 H 0.07005 0.15725 0.43192 0.0
H855 H 0.07077 0.16319 0.55897 0.0
H856 H 0.0488 0.22426 0.53091 0.0
H857 H 0.04776 0.21864 0.40394 0.0
C858 C 0.09629 0.22873 0.08696 0.0
C859 C 0.08793 0.24841 0.09802 0.0
C860 C 0.08938 0.21215 0.12545 0.0
C861 C 0.07499 0.21521 0.17817 0.0
C862 C 0.06887 0.23504 0.19581 0.0
C863 C 0.07528 0.25145 0.15658 0.0
C864 C 0.06659 0.19805 0.21736 0.0
C865 C 0.06874 0.19861 0.29005 0.0
C866 C 0.05492 0.18235 0.18546 0.0
C867 C 0.04662 0.18327 0.11365 0.0
C868 C 0.0336 0.19945 0.09587 0.0
C869 C 0.02042 0.19758 0.0389 0.0
C870 C 0.02001 0.17955 0.99938 0.0
C871 C 0.03338 0.16365 0.01503 0.0
C872 C 0.04677 0.16556 0.07135 0.0
C873 C 1.00173 0.14894 0.39015 0.0
C874 C 1.00486 0.12779 0.3854 0.0
C875 C 0.01665 0.16233 0.36713 0.0
C876 C 0.03472 0.15469 0.33823 0.0
C877 C 0.03798 0.13365 0.33359 0.0
C878 C 0.02318 0.12028 0.35701 0.0
C879 C 0.04804 0.16838 0.29971 0.0
C880 C 0.04686 0.16709 0.22731 0.0
C881 C 0.05881 0.18445 0.33193 0.0
C882 C 0.05895 0.18754 0.40843 0.0
C883 C 0.06528 0.1719 0.4529 0.0
C884 C 0.06583 0.17525 0.52487 0.0
C885 C 0.06008 0.19417 0.55289 0.0
C886 C 0.05347 0.20969 0.50912 0.0
C887 C 0.05293 0.20644 0.43718 0.0
H888 H 0.06053 0.19672 0.60861 0.0
H889 H 1.00968 0.17807 0.9557 0.0
H890 H 0.30122 0.10177 0.09564 0.0
H891 H 0.32889 0.1006 0.18041 0.0
H892 H 0.30117 0.04827 0.27558 0.0
H893 H 0.27402 0.0487 0.18875 0.0
H894 H 0.3261 0.07756 0.36689 0.0
H895 H 0.32601 0.03461 0.15647 0.0
H896 H 0.32466 0.02722 0.03049 0.0
H897 H 0.37438 0.06834 0.99672 0.0
H898 H 0.37579 0.07627 0.12269 0.0
H899 H 0.38687 0.9969 0.46234 0.0
H900 H 0.36313 0.02239 0.42011 0.0
H901 H 0.41212 0.0531 0.31458 0.0
H902 H 0.43594 0.02693 0.35429 0.0
H903 H 0.3813 0.04475 0.22902 0.0
H904 H 0.38661 0.07862 0.44814 0.0
H905 H 0.38814 0.08242 0.57567 0.0
H906 H 0.3291 0.05499 0.59383 0.0
H907 H 0.32713 0.05109 0.46617 0.0
C908 C 0.30052 0.09067 0.1369 0.0
C909 C 0.28595 0.07496 0.13501 0.0
C910 C 0.31632 0.09001 0.18494 0.0
C911 C 0.3171 0.0741 0.23257 0.0
C912 C 0.30067 0.0606 0.23855 0.0
C913 C 0.28511 0.06093 0.18935 0.0
C914 C 0.33648 0.06875 0.26493 0.0
C915 C 0.33833 0.07058 0.33705 0.0
C916 C 0.35242 0.06002 0.22499 0.0
C917 C 0.35071 0.05637 0.14882 0.0
C918 C 0.33636 0.04243 0.12208 0.0
C919 C 0.33569 0.03801 0.05077 0.0
C920 C 0.34945 0.04728 0.00575 0.0
C921 C 0.36373 0.0612 0.03175 0.0
C922 C 0.36444 0.06569 0.10308 0.0
C923 C 0.39262 1.00919 0.4307 0.0
C924 C 0.41312 1.00982 0.41081 0.0
C925 C 0.37912 0.02393 0.40753 0.0
C926 C 0.38596 0.03978 0.3651 0.0
C927 C 0.40664 0.04105 0.34782 0.0
C928 C 0.42019 0.02617 0.37072 0.0
C929 C 0.37087 0.05311 0.33183 0.0
C930 C 0.36965 0.05263 0.25905 0.0
C931 C 0.35544 0.06287 0.37111 0.0
C932 C 0.35668 0.06471 0.44774 0.0
C933 C 0.374 0.07331 0.47937 0.0
C934 C 0.37494 0.07549 0.55159 0.0
C935 C 0.35868 0.06905 0.59255 0.0
C936 C 0.34158 0.06011 0.56174 0.0
C937 C 0.3405 0.05801 0.48948 0.0
H938 H 0.3592 0.07123 0.64804 0.0
H939 H 0.34917 0.04349 0.95086 0.0
H940 H 0.48839 0.281 0.13181 0.0
H941 H 0.49526 0.30886 0.2107 0.0
H942 H 0.43099 0.32273 0.22204 0.0
H943 H 0.42438 0.29585 0.13437 0.0
H944 H 0.45169 0.35423 0.18783 0.0
H945 H 0.46319 0.30415 0.3709 0.0
H946 H 0.47844 0.27136 0.40537 0.0
H947 H 0.53808 0.29434 0.35982 0.0
H948 H 0.52322 0.32715 0.32458 0.0
H949 H 0.48451 0.44231 0.36805 0.0
H950 H 0.46786 0.40876 0.36057 0.0
H951 H 0.52454 0.3816 0.29313 0.0
H952 H 0.54096 0.4151 0.29894 0.0
H953 H 0.50181 0.35657 0.38104 0.0
H954 H 0.4967 0.39786 0.17987 0.0
H955 H 0.48823 0.42824 0.11154 0.0
H956 H 0.42471 0.41929 0.15342 0.0
H957 H 0.43296 0.38912 0.22393 0.0
C958 C 0.4756 0.28933 0.15377 0.0
C959 C 0.45583 0.28613 0.12877 0.0
C960 C 0.47952 0.30523 0.19953 0.0
C961 C 0.46357 0.31743 0.22481 0.0
C962 C 0.44345 0.31319 0.2041 0.0
C963 C 0.43962 0.29779 0.15501 0.0
C964 C 0.46859 0.33652 0.26215 0.0
C965 C 0.46193 0.35476 0.23214 0.0
C966 C 0.48305 0.33709 0.31694 0.0
C967 C 0.49206 0.3182 0.34583 0.0
C968 C 0.47957 0.30229 0.36915 0.0
C969 C 0.48815 0.28366 0.38844 0.0
C970 C 0.50921 0.28079 0.38499 0.0
C971 C 0.52178 0.29662 0.36292 0.0
C972 C 0.51329 0.31528 0.34369 0.0
C973 C 0.49336 0.42901 0.35305 0.0
C974 C 0.51374 0.43093 0.33295 0.0
C975 C 0.48396 0.41 0.34923 0.0
C976 C 0.49506 0.39294 0.32625 0.0
C977 C 0.51587 0.39468 0.31145 0.0
C978 C 0.52514 0.41369 0.31406 0.0
C979 C 0.48458 0.374 0.30728 0.0
C980 C 0.49053 0.35597 0.33979 0.0
C981 C 0.47034 0.37347 0.25212 0.0
C982 C 0.46547 0.39171 0.20983 0.0
C983 C 0.48097 0.40265 0.17619 0.0
C984 C 0.47621 0.41978 0.13667 0.0
C985 C 0.45596 0.42588 0.129 0.0
C986 C 0.44042 0.41474 0.1603 0.0
C987 C 0.44513 0.3977 0.20038 0.0
H988 H 0.45229 0.43911 0.09822 0.0
H989 H 0.51579 0.26628 0.39924 0.0
H990 H 0.26345 0.48405 0.20758 0.0
H991 H 0.23427 0.48622 0.28541 0.0
H992 H 0.20999 0.43082 0.19529 0.0
H993 H 0.23946 0.42829 0.11844 0.0
H994 H 0.19159 0.47104 0.15789 0.0
H995 H 0.20959 0.43022 0.35793 0.0
H996 H 0.23443 0.42069 0.44822 0.0
H997 H 0.23391 0.4821 0.52872 0.0
H998 H 0.20912 0.49199 0.43853 0.0
H999 H 0.0929 0.48796 0.25776 0.0
H1000 H 0.12531 0.46965 0.25122 0.0
H1001 H 0.15342 0.51594 0.3809 0.0
H1002 H 0.12067 0.53392 0.38949 0.0
H1003 H 0.17004 0.47841 0.40441 0.0
H1004 H 0.15632 0.52136 0.21326 0.0
H1005 H 0.13646 0.53637 0.11776 0.0
H1006 H 0.13404 0.47807 0.01385 0.0
H1007 H 0.15365 0.46261 0.10942 0.0
C1008 C 0.25269 0.47154 0.20798 0.0
C1009 C 0.25328 0.45631 0.15616 0.0
C1010 C 0.23595 0.47285 0.25218 0.0
C1011 C 0.21994 0.45889 0.24461 0.0
C1012 C 0.22227 0.44172 0.20137 0.0
C1013 C 0.23913 0.44025 0.15784 0.0
C1014 C 0.1994 0.46537 0.26489 0.0
C1015 C 0.18655 0.47208 0.2116 0.0
C1016 C 0.19369 0.46794 0.33498 0.0
C1017 C 0.2075 0.46181 0.39181 0.0
C1018 C 0.21473 0.44165 0.39513 0.0
C1019 C 0.22881 0.4362 0.44617 0.0
C1020 C 0.23573 0.45078 0.49423 0.0
C1021 C 0.22847 0.47081 0.49161 0.0
C1022 C 0.21435 0.47633 0.44073 0.0
C1023 C 0.10594 0.49391 0.28592 0.0
C1024 C 0.10465 0.51234 0.32312 0.0
C1025 C 0.12433 0.48349 0.28244 0.0
C1026 C 0.14172 0.49172 0.31456 0.0
C1027 C 0.14011 0.50942 0.35585 0.0
C1028 C 0.12155 0.51969 0.36035 0.0
C1029 C 0.16182 0.48328 0.29712 0.0
C1030 C 0.17477 0.47676 0.35059 0.0
C1031 C 0.16805 0.48156 0.22685 0.0
C1032 C 0.15627 0.49076 0.16897 0.0
C1033 C 0.15141 0.51168 0.17038 0.0
C1034 C 0.14022 0.52029 0.11618 0.0
C1035 C 0.13394 0.50817 0.05987 0.0
C1036 C 0.13889 0.48743 0.05759 0.0
C1037 C 0.15005 0.47874 0.11176 0.0
H1038 H 0.1253 0.51486 0.01793 0.0
H1039 H 0.24673 0.44655 0.53345 0.0
H1040 H 0.9682 0.77743 0.05196 0.0
H1041 H 0.97162 0.80387 0.96758 0.0
H1042 H 0.92369 0.83835 0.06838 0.0
H1043 H 0.92131 0.8121 0.15778 0.0
H1044 H 0.95912 0.82701 0.8804 0.0
H1045 H 0.93663 0.88482 0.0909 0.0
H1046 H 0.93063 0.88588 0.21784 0.0
H1047 H 0.9753 0.83885 0.24603 0.0
H1048 H 0.98123 0.83725 0.11956 0.0
H1049 H 1.00204 0.91977 0.75747 0.0
H1050 H 0.97626 0.89725 0.80813 0.0
H1051 H 0.01722 0.88316 0.97618 0.0
H1052 H 0.04305 0.90544 0.92568 0.0
H1053 H 0.978 0.88828 0.01993 0.0
H1054 H 0.01665 0.85505 0.85042 0.0
H1055 H 0.03291 0.84496 0.74041 0.0
H1056 H 0.97457 0.83007 0.65307 0.0
H1057 H 0.9577 0.84169 0.76088 0.0
C1058 C 0.95763 0.79012 0.05473 0.0
C1059 C 0.94491 0.79303 0.1127 0.0
C1060 C 0.95962 0.80538 0.00593 0.0
C1061 C 0.94856 0.82359 0.01341 0.0
C1062 C 0.93297 0.82475 0.06343 0.0
C1063 C 0.93145 0.80969 0.11404 0.0
C1064 C 0.95667 0.84213 0.97985 0.0
C1065 C 0.96279 0.8407 0.91006 0.0
C1066 C 0.96233 0.85953 0.01989 0.0
C1067 C 0.95915 0.86077 0.09601 0.0
C1068 C 0.9451 0.8747 0.12438 0.0
C1069 C 0.94163 0.87528 0.19615 0.0
C1070 C 0.95231 0.86217 0.23992 0.0
C1071 C 0.96667 0.84864 0.21206 0.0
C1072 C 0.97011 0.84789 0.14041 0.0
C1073 C 1.00537 0.91196 0.80552 0.0
C1074 C 0.02449 0.91391 0.83741 0.0
C1075 C 0.99073 0.89913 0.83402 0.0
C1076 C 0.99502 0.88837 0.89485 0.0
C1077 C 0.0137 0.89132 0.92896 0.0
C1078 C 0.02843 0.90386 0.89999 0.0
C1079 C 0.98077 0.87291 0.92073 0.0
C1080 C 0.97354 0.87506 0.98894 0.0
C1081 C 0.97575 0.85527 0.88097 0.0
C1082 C 0.98575 0.85007 0.81344 0.0
C1083 C 1.00712 0.85051 0.80704 0.0
C1084 C 0.0165 0.84438 0.74499 0.0
C1085 C 1.00477 0.83706 0.68949 0.0
C1086 C 0.98364 0.83585 0.696 0.0
C1087 C 0.97413 0.84253 0.75725 0.0
H1088 H 0.01207 0.83217 0.64166 0.0
H1089 H 0.94967 0.8627 0.29547 0.0
H1090 H 0.76409 0.97613 0.03865 0.0
H1091 H 0.73679 0.97977 0.9546 0.0
H1092 H 0.6996 0.9384 0.07226 0.0
H1093 H 0.7277 0.93298 0.15237 0.0
H1094 H 0.68201 0.94292 0.95641 0.0
H1095 H 0.70582 0.98707 0.12927 0.0
H1096 H 0.72832 1.00885 0.20083 0.0
H1097 H 0.73826 0.04807 0.02704 0.0
H1098 H 0.71574 0.02655 0.95424 0.0
H1099 H 0.59854 0.01992 0.91976 0.0
H1100 H 0.62273 0.99546 0.97028 0.0
H1101 H 0.66745 0.01231 0.81711 0.0
H1102 H 0.64359 0.0367 0.76728 0.0
H1103 H 0.67703 0.01842 0.96682 0.0
H1104 H 0.63955 0.96975 0.81475 0.0
H1105 H 0.60831 0.95008 0.79188 0.0
H1106 H 0.61557 0.91899 0.98543 0.0
H1107 H 0.64605 0.93944 0.01202 0.0
C1108 C 0.75076 0.96656 0.04388 0.0
C1109 C 0.74744 0.95524 0.10439 0.0
C1110 C 0.73498 0.96888 0.9961 0.0
C1111 C 0.71577 0.96049 0.01034 0.0
C1112 C 0.71409 0.94559 0.06163 0.0
C1113 C 0.73019 0.94258 0.10767 0.0
C1114 C 0.69723 0.9709 0.98535 0.0
C1115 C 0.68093 0.95943 0.95825 0.0
C1116 C 0.69511 0.99234 0.99319 0.0
C1117 C 0.70928 1.00501 0.03593 0.0
C1118 C 0.71298 1.0002 0.10598 0.0
C1119 C 0.7257 0.01253 0.14687 0.0
C1120 C 0.73485 0.02972 0.11837 0.0
C1121 C 0.73122 0.03469 0.04897 0.0
C1122 C 0.71844 0.02246 0.00789 0.0
C1123 C 0.6134 0.01797 0.89621 0.0
C1124 C 0.61947 0.03026 0.84048 0.0
C1125 C 0.6271 1.00408 0.92496 0.0
C1126 C 0.64675 1.00226 0.89721 0.0
C1127 C 0.6523 0.01363 0.83897 0.0
C1128 C 0.63876 0.02754 0.8108 0.0
C1129 C 0.66267 0.99059 0.93258 0.0
C1130 C 0.67831 1.00191 0.96375 0.0
C1131 C 0.66319 0.96904 0.93394 0.0
C1132 C 0.64515 0.95633 0.91564 0.0
C1133 C 0.63441 0.95896 0.85302 0.0
C1134 C 0.61677 0.94766 0.83939 0.0
C1135 C 0.60999 0.93325 0.88703 0.0
C1136 C 0.62077 0.9302 0.94863 0.0
C1137 C 0.63819 0.94172 0.96314 0.0
H1138 H 0.5964 0.92446 0.87625 0.0
H1139 H 0.74468 0.03925 0.15017 0.0
H1140 H 0.60704 0.73487 0.11617 0.0
H1141 H 0.59853 0.70825 0.03113 0.0
H1142 H 0.54804 0.74435 0.95881 0.0
H1143 H 0.55637 0.77092 0.04335 0.0
H1144 H 0.54055 0.70818 0.04906 0.0
H1145 H 0.57479 0.72891 0.84019 0.0
H1146 H 0.60549 0.74067 0.77898 0.0
H1147 H 0.63625 0.68491 0.82931 0.0
H1148 H 0.60581 0.67294 0.89179 0.0
H1149 H 0.49031 0.6237 0.91058 0.0
H1150 H 0.50511 0.6578 0.92222 0.0
H1151 H 0.56545 0.63139 0.92148 0.0
H1152 H 0.55047 0.59727 0.90808 0.0
H1153 H 0.567 0.66499 0.85565 0.0
H1154 H 0.54053 0.64547 0.07534 0.0
H1155 H 0.51539 0.633 0.15996 0.0
H1156 H 0.47658 0.68408 0.11694 0.0
H1157 H 0.50141 0.69675 0.03144 0.0
C1158 C 0.59496 0.73767 0.07905 0.0
C1159 C 0.58202 0.75461 0.0873 0.0
C1160 C 0.59011 0.72248 0.03055 0.0
C1161 C 0.57249 0.72437 0.98998 0.0
C1162 C 0.5617 0.74278 0.98997 0.0
C1163 C 0.56658 0.758 0.03813 0.0
C1164 C 0.56228 0.70576 0.96557 0.0
C1165 C 0.54595 0.69888 0.00574 0.0
C1166 C 0.57019 0.69345 0.9116 0.0
C1167 C 0.58804 0.70005 0.87069 0.0
C1168 C 0.58811 0.71916 0.8382 0.0
C1169 C 0.60547 0.72587 0.80336 0.0
C1170 C 0.62282 0.71354 0.80026 0.0
C1171 C 0.62279 0.69442 0.83165 0.0
C1172 C 0.60547 0.68764 0.86664 0.0
C1173 C 0.50672 0.62536 0.912 0.0
C1174 C 0.51941 0.60825 0.90899 0.0
C1175 C 0.51515 0.64469 0.91936 0.0
C1176 C 0.53636 0.64705 0.92422 0.0
C1177 C 0.54906 0.62989 0.91788 0.0
C1178 C 0.54059 0.61051 0.91045 0.0
C1179 C 0.54517 0.66728 0.93943 0.0
C1180 C 0.56129 0.67438 0.8982 0.0
C1181 C 0.53774 0.6795 0.99505 0.0
C1182 C 0.5227 0.6719 0.04625 0.0
C1183 C 0.52654 0.65394 0.08341 0.0
C1184 C 0.51238 0.64687 0.13168 0.0
C1185 C 0.49436 0.6577 0.14361 0.0
C1186 C 0.49052 0.67568 0.10752 0.0
C1187 C 0.50464 0.68283 0.05921 0.0
H1188 H 0.4834 0.65219 0.18096 0.0
H1189 H 0.63628 0.71881 0.77353 0.0
H1190 H 0.8027 0.62093 0.10745 0.0
H1191 H 0.82675 0.61099 0.01487 0.0
H1192 H 0.79942 0.55103 0.00712 0.0
H1193 H 0.77454 0.56163 0.09115 0.0
H1194 H 0.85348 0.58533 0.03883 0.0
H1195 H 0.8116 0.52089 0.89302 0.0
H1196 H 0.7776 0.51412 0.84379 0.0
H1197 H 0.77012 0.57783 0.80095 0.0
H1198 H 0.80415 0.585 0.84998 0.0
H1199 H 0.90435 0.49109 0.95616 0.0
H1200 H 0.87218 0.51008 0.96235 0.0
H1201 H 0.89853 0.55845 0.84217 0.0
H1202 H 0.9307 0.54002 0.83702 0.0
H1203 H 0.84587 0.53505 0.84528 0.0
H1204 H 0.89902 0.59074 0.95567 0.0
H1205 H 0.93212 0.59166 0.01706 0.0
H1206 H 0.91422 0.54012 0.13865 0.0
H1207 H 0.88105 0.53916 0.07859 0.0
C1208 C 0.8012 0.60616 0.08212 0.0
C1209 C 0.78662 0.59219 0.10484 0.0
C1210 C 0.81495 0.60038 0.02984 0.0
C1211 C 0.81472 0.58034 1.00233 0.0
C1212 C 0.79944 0.56687 0.02349 0.0
C1213 C 0.78526 0.57291 0.07269 0.0
C1214 C 0.8325 0.57197 0.96421 0.0
C1215 C 0.85175 0.57507 0.99452 0.0
C1216 C 0.83039 0.55771 0.90835 0.0
C1217 C 0.81046 0.55348 0.87481 0.0
C1218 C 0.80284 0.53342 0.87211 0.0
C1219 C 0.7835 0.52953 0.84472 0.0
C1220 C 0.77172 0.54553 0.81916 0.0
C1221 C 0.77926 0.56546 0.82092 0.0
C1222 C 0.79855 0.56946 0.84864 0.0
C1223 C 0.90313 0.50561 0.93015 0.0
C1224 C 0.91998 0.51412 0.89638 0.0
C1225 C 0.88473 0.51622 0.9327 0.0
C1226 C 0.88313 0.5354 0.90175 0.0
C1227 C 0.89954 0.54345 0.86502 0.0
C1228 C 0.91788 0.53291 0.86246 0.0
C1229 C 0.86609 0.54877 0.92011 0.0
C1230 C 0.84735 0.5463 0.88681 0.0
C1231 C 0.86841 0.56338 0.97368 0.0
C1232 C 0.88764 0.565 0.01326 0.0
C1233 C 0.90212 0.57984 0.99625 0.0
C1234 C 0.9209 0.58032 0.03061 0.0
C1235 C 0.92525 0.56602 0.08196 0.0
C1236 C 0.91082 0.55128 0.09928 0.0
C1237 C 0.89203 0.55079 0.06527 0.0
H1238 H 0.9398 0.56636 0.10829 0.0
H1239 H 0.75673 0.54249 0.7981 0.0
H1240 H 0.05706 0.22298 0.99546 0.0
H1241 H 0.05455 0.18995 0.94047 0.0
H1242 H 0.05115 0.21762 0.73931 0.0
H1243 H 0.05651 0.25154 0.79504 0.0
H1244 H 0.02605 0.18713 0.73455 0.0
H1245 H 0.09435 0.18876 0.8122 0.0
H1246 H 0.12273 0.19463 0.89403 0.0
H1247 H 0.09923 0.14845 0.0285 0.0
H1248 H 0.07066 0.14238 0.94781 0.0
H1249 H 0.04264 0.08059 0.60222 0.0
H1250 H 0.05187 0.1161 0.63366 0.0
H1251 H 0.02264 0.10922 0.83224 0.0
H1252 H 0.01158 0.07496 0.79782 0.0
H1253 H 0.06722 0.1295 0.82291 0.0
H1254 H 0.99789 0.12912 0.73372 0.0
H1255 H 0.97192 0.12412 0.64287 0.0
H1256 H 1.00027 0.17022 0.51928 0.0
H1257 H 0.02714 0.17432 0.60683 0.0
C1258 C 0.05524 0.22232 0.93945 0.0
C1259 C 0.05665 0.24036 0.9005 0.0
C1260 C 0.05375 0.20306 0.90763 0.0
C1261 C 0.0522 0.20055 0.83523 0.0
C1262 C 0.0522 0.21867 0.79545 0.0
C1263 C 0.05489 0.23826 0.82748 0.0
C1264 C 0.05051 0.17905 0.80339 0.0
C1265 C 0.0354 0.1747 0.75318 0.0
C1266 C 0.06253 0.16226 0.82677 0.0
C1267 C 0.08017 0.1653 0.87422 0.0
C1268 C 0.09518 0.1799 0.85933 0.0
C1269 C 0.11132 0.18325 0.90552 0.0
C1270 C 0.11274 0.17198 0.96655 0.0
C1271 C 0.09811 0.1572 0.98124 0.0
C1272 C 0.08195 0.15377 0.9352 0.0
C1273 C 0.0386 0.08648 0.65327 0.0
C1274 C 0.02718 0.07425 0.699 0.0
C1275 C 0.04376 0.10694 0.67106 0.0
C1276 C 0.03814 0.11561 0.73591 0.0
C1277 C 0.02741 0.10311 0.78225 0.0
C1278 C 0.0214 0.08317 0.76303 0.0
C1279 C 0.04259 0.13771 0.75546 0.0
C1280 C 0.05814 0.14207 0.8037 0.0
C1281 C 0.03132 0.15448 0.72895 0.0
C1282 C 0.0151 0.1515 0.67592 0.0
C1283 C 0.99907 0.13763 0.68607 0.0
C1284 C 0.98409 0.13496 0.63505 0.0
C1285 C 0.98461 0.14653 0.57452 0.0
C1286 C 1.00008 0.16083 0.5651 0.0
C1287 C 0.01529 0.16322 0.61522 0.0
H1288 H 0.97288 0.14461 0.53543 0.0
H1289 H 0.1252 0.17465 1.00237 0.0
H1290 H 0.28688 0.03581 0.8268 0.0
H1291 H 0.31696 0.03255 0.7532 0.0
H1292 H 0.34541 0.08167 0.8701 0.0
H1293 H 0.31403 0.08835 0.92599 0.0
H1294 H 0.36843 0.08151 0.79386 0.0
H1295 H 0.34913 1.00974 0.85863 0.0
H1296 H 0.32635 0.97976 0.85422 0.0
H1297 H 0.32503 0.98237 0.63105 0.0
H1298 H 0.34772 0.01239 0.63433 0.0
H1299 H 0.46243 0.01889 0.78662 0.0
H1300 H 0.42805 0.03034 0.81474 0.0
H1301 H 0.41799 0.04424 0.59921 0.0
H1302 H 0.45365 0.03505 0.57284 0.0
H1303 H 0.38775 0.01335 0.70371 0.0
H1304 H 0.41617 0.08036 0.6546 0.0
H1305 H 0.44138 0.10774 0.67093 0.0
H1306 H 0.42741 0.11077 0.88891 0.0
H1307 H 0.40247 0.08295 0.87424 0.0
C1308 C 0.29941 0.0463 0.83471 0.0
C1309 C 0.29798 0.06166 0.88635 0.0
C1310 C 0.31747 0.0438 0.79438 0.0
C1311 C 0.33553 0.0553 0.80825 0.0
C1312 C 0.33298 0.07175 0.85574 0.0
C1313 C 0.31457 0.07536 0.89063 0.0
C1314 C 0.35689 0.05072 0.77663 0.0
C1315 C 0.37213 0.06617 0.77726 0.0
C1316 C 0.36321 0.03135 0.74859 0.0
C1317 C 0.34985 0.01332 0.74682 0.0
C1318 C 0.34396 1.00386 0.80876 0.0
C1319 C 0.33106 0.98691 0.80642 0.0
C1320 C 0.3242 0.97921 0.74241 0.0
C1321 C 0.33031 0.98837 0.68056 0.0
C1322 C 0.34319 1.00533 0.6826 0.0
C1323 C 0.45359 0.02574 0.74612 0.0
C1324 C 0.46173 0.02753 0.67874 0.0
C1325 C 0.43349 0.03174 0.76183 0.0
C1326 C 0.4202 0.03846 0.70959 0.0
C1327 C 0.4279 0.03955 0.64119 0.0
C1328 C 0.44843 0.03446 0.62621 0.0
C1329 C 0.39828 0.04357 0.72717 0.0
C1330 C 0.38335 0.02828 0.72353 0.0
C1331 C 0.39244 0.06276 0.75476 0.0
C1332 C 0.40751 0.07945 0.76332 0.0
C1333 C 0.41859 0.08667 0.70613 0.0
C1334 C 0.43281 0.10233 0.71505 0.0
C1335 C 0.43586 0.1111 0.78079 0.0
C1336 C 0.42492 0.10405 0.83792 0.0
C1337 C 0.41078 0.0883 0.82934 0.0
H1338 H 0.4467 0.12337 0.78753 0.0
H1339 H 0.31418 0.96612 0.74073 0.0
H1340 H 0.50092 0.29229 0.88991 0.0
H1341 H 0.50815 0.32471 0.83213 0.0
H1342 H 0.44384 0.33757 0.82221 0.0
H1343 H 0.43669 0.30495 0.87728 0.0
H1344 H 0.45834 0.35428 0.71714 0.0
H1345 H 0.47693 0.35897 0.95268 0.0
H1346 H 0.49326 0.34964 0.06343 0.0
H1347 H 0.55225 0.35726 0.97126 0.0
H1348 H 0.53624 0.36648 0.85968 0.0
H1349 H 0.46989 0.46356 0.70167 0.0
H1350 H 0.46318 0.4292 0.74435 0.0
H1351 H 0.52435 0.41122 0.69121 0.0
H1352 H 0.53121 0.4457 0.64853 0.0
H1353 H 0.51112 0.39784 0.8283 0.0
H1354 H 0.48574 0.39655 0.58835 0.0
H1355 H 0.46417 0.4108 0.49569 0.0
H1356 H 0.41096 0.40173 0.62113 0.0
H1357 H 0.43227 0.3877 0.71499 0.0
C1358 C 0.4883 0.3016 0.87268 0.0
C1359 C 0.46819 0.29567 0.8876 0.0
C1360 C 0.49244 0.32051 0.84092 0.0
C1361 C 0.47663 0.33426 0.82394 0.0
C1362 C 0.45649 0.32763 0.83451 0.0
C1363 C 0.45237 0.30874 0.86575 0.0
C1364 C 0.48097 0.35573 0.79848 0.0
C1365 C 0.46986 0.36369 0.74202 0.0
C1366 C 0.49563 0.3687 0.83085 0.0
C1367 C 0.5054 0.36316 0.8976 0.0
C1368 C 0.49339 0.35851 0.95589 0.0
C1369 C 0.50258 0.35327 0.01884 0.0
C1370 C 0.52378 0.35278 0.02428 0.0
C1371 C 0.53583 0.35761 0.96688 0.0
C1372 C 0.52671 0.36286 0.90379 0.0
C1373 C 0.48203 0.45243 0.69934 0.0
C1374 C 0.50119 0.45772 0.67181 0.0
C1375 C 0.4781 0.4326 0.72357 0.0
C1376 C 0.49321 0.41734 0.72132 0.0
C1377 C 0.51238 0.42257 0.69399 0.0
C1378 C 0.51625 0.44236 0.66902 0.0
C1379 C 0.48893 0.39595 0.74621 0.0
C1380 C 0.49987 0.38817 0.80303 0.0
C1381 C 0.47344 0.38355 0.71638 0.0
C1382 C 0.4606 0.39111 0.65869 0.0
C1383 C 0.46944 0.3976 0.59615 0.0
C1384 C 0.45726 0.40565 0.54344 0.0
C1385 C 0.43621 0.40715 0.55246 0.0
C1386 C 0.42727 0.40053 0.61415 0.0
C1387 C 0.43938 0.39249 0.66706 0.0
H1388 H 0.42682 0.41345 0.51167 0.0
H1389 H 0.53088 0.34871 0.07303 0.0
H1390 H 0.25193 0.50017 0.86394 0.0
H1391 H 0.2217 0.50538 0.79143 0.0
H1392 H 0.1944 0.45165 0.87999 0.0
H1393 H 0.22575 0.4442 0.9376 0.0
H1394 H 0.17497 0.45283 0.78727 0.0
H1395 H 0.18671 0.51518 0.92089 0.0
H1396 H 0.20597 0.54567 0.95886 0.0
H1397 H 0.20867 0.56624 0.74773 0.0
H1398 H 0.18957 0.53578 0.70859 0.0
H1399 H 0.0719 0.48606 0.75875 0.0
H1400 H 0.10612 0.47968 0.80032 0.0
H1401 H 0.13044 0.51489 0.63194 0.0
H1402 H 0.09569 0.522 0.59112 0.0
H1403 H 0.15087 0.52345 0.75134 0.0
H1404 H 0.12993 0.45845 0.63976 0.0
H1405 H 0.10585 0.42964 0.6301 0.0
H1406 H 0.11518 0.41592 0.84568 0.0
H1407 H 0.13912 0.44473 0.85677 0.0
C1408 C 0.23974 0.4891 0.86576 0.0
C1409 C 0.24136 0.47217 0.90998 0.0
C1410 C 0.22181 0.49249 0.82586 0.0
C1411 C 0.20427 0.47989 0.83226 0.0
C1412 C 0.2068 0.46222 0.87257 0.0
C1413 C 0.22505 0.45809 0.90772 0.0
C1414 C 0.18339 0.48465 0.79924 0.0
C1415 C 0.16997 0.46845 0.78169 0.0
C1416 C 0.17579 0.50481 0.78838 0.0
C1417 C 0.18699 0.52315 0.81182 0.0
C1418 C 0.19148 0.52621 0.88267 0.0
C1419 C 0.20236 0.54346 0.90435 0.0
C1420 C 0.20861 0.55784 0.8557 0.0
C1421 C 0.20388 0.55506 0.78531 0.0
C1422 C 0.19302 0.53783 0.76335 0.0
C1423 C 0.08432 0.49239 0.72969 0.0
C1424 C 0.08055 0.50439 0.67051 0.0
C1425 C 0.1042 0.4886 0.75373 0.0
C1426 C 0.12133 0.4963 0.71883 0.0
C1427 C 0.11772 0.50852 0.66004 0.0
C1428 C 0.0977 0.51249 0.6363 0.0
C1429 C 0.14281 0.49177 0.74403 0.0
C1430 C 0.15622 0.50797 0.75883 0.0
C1431 C 0.14986 0.4717 0.75727 0.0
C1432 C 0.13632 0.45374 0.74901 0.0
C1433 C 0.12689 0.44923 0.68498 0.0
C1434 C 0.11323 0.43294 0.67933 0.0
C1435 C 0.109 0.42096 0.73722 0.0
C1436 C 0.1185 0.42518 0.80083 0.0
C1437 C 0.13215 0.44145 0.80677 0.0
H1438 H 0.09835 0.40842 0.73279 0.0
H1439 H 0.21707 0.57117 0.87256 0.0
H1440 H 0.94594 0.80992 0.36721 0.0
H1441 H 0.95419 0.8422 0.42359 0.0
H1442 H 0.01795 0.83088 0.38686 0.0
H1443 H 1.00934 0.79943 0.3227 0.0
H1444 H 0.96947 0.85908 0.52046 0.0
H1445 H 0.04342 0.86119 0.38295 0.0
H1446 H 0.05999 0.8547 0.26936 0.0
H1447 H 1.00615 0.87504 0.16375 0.0
H1448 H 0.9894 0.88153 0.277 0.0
H1449 H 0.01332 0.95325 0.65907 0.0
H1450 H 1.0047 0.91802 0.62421 0.0
H1451 H 0.99728 0.93741 0.41245 0.0
H1452 H 1.00674 0.97151 0.4466 0.0
H1453 H 0.0185 0.90536 0.40721 0.0
H1454 H 0.95718 0.92272 0.51921 0.0
H1455 H 0.93344 0.93403 0.61114 0.0
H1456 H 0.95056 0.88288 0.73571 0.0
H1457 H 0.97559 0.87232 0.64652 0.0
C1458 C 0.96184 0.81411 0.37174 0.0
C1459 C 0.97689 0.80183 0.33923 0.0
C1460 C 0.96661 0.83288 0.40422 0.0
C1461 C 0.98678 0.84015 0.40759 0.0
C1462 C 1.00211 0.82684 0.38158 0.0
C1463 C 0.99725 0.80821 0.34687 0.0
C1464 C 0.99127 0.86155 0.43701 0.0
C1465 C 0.98037 0.86902 0.49559 0.0
C1466 C 1.00495 0.87541 0.40501 0.0
C1467 C 0.01484 0.87081 0.33781 0.0
C1468 C 0.03507 0.86395 0.33534 0.0
C1469 C 0.0445 0.86032 0.27116 0.0
C1470 C 0.03399 0.8641 0.20933 0.0
C1471 C 0.01412 0.8717 0.2116 0.0
C1472 C 1.00461 0.87517 0.27568 0.0
C1473 C 1.00928 0.95012 0.60536 0.0
C1474 C 1.01016 0.96598 0.55619 0.0
C1475 C 1.00441 0.92981 0.58527 0.0
C1476 C 1.00025 0.92463 0.51511 0.0
C1477 C 1.00046 0.94057 0.46684 0.0
C1478 C 1.00551 0.96063 0.48692 0.0
C1479 C 0.9968 0.90275 0.49043 0.0
C1480 C 1.00782 0.8953 0.43269 0.0
C1481 C 0.98247 0.8894 0.52114 0.0
C1482 C 0.96837 0.89666 0.57649 0.0
C1483 C 0.95625 0.91413 0.56689 0.0
C1484 C 0.94262 0.92051 0.61864 0.0
C1485 C 0.94063 0.90929 0.67958 0.0
C1486 C 0.95232 0.89173 0.68896 0.0
C1487 C 0.96631 0.88562 0.63811 0.0
H1488 H 0.92994 0.91412 0.71931 0.0
H1489 H 0.04133 0.86136 0.1597 0.0
H1490 H 0.72713 0.9502 0.35139 0.0
H1491 H 0.69473 0.95684 0.40928 0.0
H1492 H 0.70666 0.02144 0.40295 0.0
H1493 H 0.73871 0.01474 0.34066 0.0
H1494 H 0.67766 0.97065 0.51493 0.0
H1495 H 0.67299 0.04746 0.38016 0.0
H1496 H 0.68243 0.06225 0.26689 0.0
H1497 H 0.67249 1.00425 0.16623 0.0
H1498 H 0.6639 0.98902 0.27919 0.0
H1499 H 0.58189 1.00694 0.65537 0.0
H1500 H 0.61699 0.99891 0.62131 0.0
H1501 H 0.6016 1.01147 0.40749 0.0
H1502 H 0.56866 0.02338 0.44503 0.0
H1503 H 0.63379 0.02306 0.40781 0.0
H1504 H 0.61419 0.95985 0.50451 0.0
H1505 H 0.60293 0.93364 0.5869 0.0
H1506 H 0.65379 0.94736 0.71975 0.0
H1507 H 0.66475 0.9744 0.64023 0.0
C1508 C 0.72314 0.96587 0.36382 0.0
C1509 C 0.73581 0.9819 0.34113 0.0
C1510 C 0.70437 0.96969 0.39691 0.0
C1511 C 0.69747 0.98974 0.40935 0.0
C1512 C 0.71093 1.00579 0.39208 0.0
C1513 C 0.72968 1.00195 0.35789 0.0
C1514 C 0.67599 0.99371 0.43665 0.0
C1515 C 0.66805 0.98221 0.49191 0.0
C1516 C 0.6627 1.00789 0.40508 0.0
C1517 C 0.66796 0.01716 0.33781 0.0
C1518 C 0.6729 0.03792 0.33375 0.0
C1519 C 0.67827 0.04631 0.26976 0.0
C1520 C 0.67823 0.03416 0.20945 0.0
C1521 C 0.67284 0.01359 0.21303 0.0
C1522 C 0.66789 1.00504 0.27703 0.0
C1523 C 0.58596 1.00754 0.60082 0.0
C1524 C 0.57153 0.01445 0.55194 0.0
C1525 C 0.60626 1.00279 0.58088 0.0
C1526 C 0.6127 1.0039 0.51057 0.0
C1527 C 0.59791 1.01035 0.46214 0.0
C1528 C 0.57826 0.01637 0.48303 0.0
C1529 C 0.63472 0.99983 0.48708 0.0
C1530 C 0.64298 1.01142 0.43214 0.0
C1531 C 0.64764 0.98452 0.51588 0.0
C1532 C 0.64014 0.96939 0.56668 0.0
C1533 C 0.62273 0.95761 0.55204 0.0
C1534 C 0.61638 0.9426 0.59833 0.0
C1535 C 0.62757 0.93891 0.65871 0.0
C1536 C 0.64499 0.95038 0.67338 0.0
C1537 C 0.65121 0.96564 0.62794 0.0
H1538 H 0.6228 0.92708 0.69393 0.0
H1539 H 0.68232 0.04069 0.15993 0.0
H1540 H 0.59537 0.73216 0.33222 0.0
H1541 H 0.58791 0.7001 0.39073 0.0
H1542 H 0.5244 0.71623 0.39932 0.0
H1543 H 0.53178 0.74836 0.3387 0.0
H1544 H 0.54164 0.69526 0.5259 0.0
H1545 H 0.53725 0.68738 0.2759 0.0
H1546 H 0.55098 0.69122 0.15777 0.0
H1547 H 0.60137 0.65234 0.20834 0.0
H1548 H 0.58829 0.64883 0.32793 0.0
H1549 H 0.50158 0.59594 0.58842 0.0
H1550 H 0.50854 0.63015 0.54428 0.0
H1551 H 0.56793 0.61036 0.47616 0.0
H1552 H 0.56113 0.57639 0.5209 0.0
H1553 H 0.55297 0.63356 0.37884 0.0
H1554 H 0.56112 0.64179 0.62255 0.0
H1555 H 0.55223 0.63978 0.747 0.0
H1556 H 0.50005 0.67791 0.71312 0.0
H1557 H 0.50845 0.67993 0.58834 0.0
C1558 C 0.57986 0.72925 0.34844 0.0
C1559 C 0.56422 0.74307 0.33091 0.0
C1560 C 0.57559 0.71073 0.38145 0.0
C1561 C 0.55553 0.70542 0.39883 0.0
C1562 C 0.54002 0.71985 0.38649 0.0
C1563 C 0.54428 0.7384 0.35247 0.0
C1564 C 0.55079 0.68431 0.4249 0.0
C1565 C 0.54376 0.68182 0.49325 0.0
C1566 C 0.55436 0.66652 0.38373 0.0
C1567 C 0.56188 0.668 0.31116 0.0
C1568 C 0.55135 0.67977 0.26208 0.0
C1569 C 0.55902 0.6819 0.1948 0.0
C1570 C 0.57703 0.67202 0.17539 0.0
C1571 C 0.58741 0.65999 0.22339 0.0
C1572 C 0.57989 0.65796 0.29103 0.0
C1573 C 0.5162 0.59885 0.56459 0.0
C1574 C 0.53065 0.58302 0.55788 0.0
C1575 C 0.52021 0.61855 0.53911 0.0
C1576 C 0.53887 0.6232 0.50654 0.0
C1577 C 0.55333 0.60743 0.50018 0.0
C1578 C 0.54935 0.58779 0.52579 0.0
C1579 C 0.54339 0.64442 0.47993 0.0
C1580 C 0.55061 0.64695 0.41151 0.0
C1581 C 0.54049 0.66224 0.52151 0.0
C1582 C 0.53531 0.66089 0.59615 0.0
C1583 C 0.54766 0.64961 0.64158 0.0
C1584 C 0.54273 0.64849 0.71211 0.0
C1585 C 0.52559 0.65873 0.73762 0.0
C1586 C 0.51331 0.67002 0.69299 0.0
C1587 C 0.51815 0.67117 0.62246 0.0
H1588 H 0.52182 0.65807 0.79195 0.0
H1589 H 0.58291 0.67369 0.12317 0.0
H1590 H 0.7984 0.53734 0.27983 0.0
H1591 H 0.8306 0.53016 0.34042 0.0
H1592 H 0.82669 0.58836 0.44593 0.0
H1593 H 0.7945 0.59525 0.38667 0.0
H1594 H 0.86624 0.55179 0.32714 0.0
H1595 H 0.85211 0.5926 0.56703 0.0
H1596 H 0.82617 0.60155 0.6552 0.0
H1597 H 0.80173 0.54089 0.64125 0.0
H1598 H 0.82736 0.53176 0.55182 0.0
H1599 H 0.96278 0.56486 0.49949 0.0
H1600 H 0.92837 0.57134 0.45808 0.0
H1601 H 0.90694 0.51856 0.5671 0.0
H1602 H 0.94172 0.51166 0.60765 0.0
H1603 H 0.88014 0.55299 0.58085 0.0
H1604 H 0.91412 0.51628 0.38337 0.0
H1605 H 0.94329 0.51437 0.30253 0.0
H1606 H 0.93139 0.57564 0.23686 0.0
H1607 H 0.902 0.57774 0.31635 0.0
C1608 C 0.8038 0.54809 0.31889 0.0
C1609 C 0.79316 0.56651 0.33027 0.0
C1610 C 0.82255 0.54417 0.35272 0.0
C1611 C 0.83135 0.55852 0.3992 0.0
C1612 C 0.8203 0.57658 0.41259 0.0
C1613 C 0.80162 0.58048 0.37882 0.0
C1614 C 0.85264 0.55532 0.42861 0.0
C1615 C 0.86908 0.55188 0.38273 0.0
C1616 C 0.85715 0.55626 0.50092 0.0
C1617 C 0.84143 0.56159 0.5527 0.0
C1618 C 0.84113 0.58122 0.58275 0.0
C1619 C 0.82648 0.58634 0.63266 0.0
C1620 C 0.81227 0.57181 0.6536 0.0
C1621 C 0.81267 0.55215 0.62454 0.0
C1622 C 0.82715 0.54704 0.57393 0.0
C1623 C 0.951 0.55436 0.51416 0.0
C1624 C 0.95558 0.5374 0.55602 0.0
C1625 C 0.93105 0.5582 0.49048 0.0
C1626 C 0.91476 0.54531 0.50804 0.0
C1627 C 0.91906 0.52877 0.55201 0.0
C1628 C 0.93911 0.52482 0.57529 0.0
C1629 C 0.89349 0.5488 0.47949 0.0
C1630 C 0.87717 0.55252 0.52533 0.0
C1631 C 0.88928 0.54908 0.40702 0.0
C1632 C 0.90589 0.54713 0.35551 0.0
C1633 C 0.91764 0.52924 0.3511 0.0
C1634 C 0.93421 0.52814 0.30558 0.0
C1635 C 0.9392 0.54487 0.26454 0.0
C1636 C 0.92749 0.56266 0.26841 0.0
C1637 C 0.91078 0.56376 0.31324 0.0
H1638 H 0.9521 0.54404 0.22963 0.0
H1639 H 0.80096 0.5758 0.69227 0.0
loop_
_geom_bond_atom_site_label_1
_geom_bond_atom_site_label_2
_geom_bond_distance
_geom_bond_site_symmetry_2
_ccdc_geom_bond_type
H0 C7 0.929 . S
H1 C10 0.930 . S
H2 C12 0.929 . S
H3 C4 0.969 . S
C4 H3 0.969 . S
C4 O5 1.550 . S
C4 H6 0.973 . S
O5 C4 1.550 . S
O5 C11 1.412 . S
H6 C4 0.973 . S
C7 H0 0.929 . S
C7 C8 1.400 . S
C7 C9 1.364 . S
C8 C7 1.400 . S
C8 C12 1.377 . S
C9 C7 1.364 . S
C9 C10 1.374 . S
C10 H1 0.930 . S
C10 C9 1.374 . S
C10 C11 1.383 . S
C11 O5 1.412 . S
C11 C10 1.383 . S
C11 C12 1.394 . S
C12 H2 0.929 . S
C12 C8 1.377 . S
C12 C11 1.394 . S
H13 C20 0.929 . S
H14 C23 0.930 . S
H15 C25 0.929 . S
H16 C17 0.969 . S
C17 H16 0.969 . S
C17 O18 1.550 . S
C17 H19 0.973 . S
O18 C17 1.550 . S
O18 C24 1.412 . S
H19 C17 0.973 . S
C20 H13 0.929 . S
C20 C21 1.400 . S
C20 C22 1.364 . S
C21 C20 1.400 . S
C21 C25 1.377 . S
C22 C20 1.364 . S
C22 C23 1.374 . S
C23 H14 0.930 . S
C23 C22 1.374 . S
C23 C24 1.383 . S
C24 O18 1.412 . S
C24 C23 1.383 . S
C24 C25 1.394 . S
C25 H15 0.929 . S
C25 C21 1.377 . S
C25 C24 1.394 . S
H26 C33 0.929 . S
H27 C36 0.930 . S
H28 C38 0.929 . S
H29 C30 0.969 . S
C30 H29 0.969 . S
C30 O31 1.550 . S
C30 H32 0.973 . S
O31 C30 1.550 . S
O31 C37 1.412 . S
H32 C30 0.973 . S
C33 H26 0.929 . S
C33 C34 1.400 . S
C33 C35 1.364 . S
C34 C33 1.400 . S
C34 C38 1.377 . S
C35 C33 1.364 . S
C35 C36 1.374 . S
C36 H27 0.930 . S
C36 C35 1.374 . S
C36 C37 1.383 . S
C37 O31 1.412 . S
C37 C36 1.383 . S
C37 C38 1.394 . S
C38 H28 0.929 . S
C38 C34 1.377 . S
C38 C37 1.394 . S
H39 C46 0.929 . S
H40 C49 0.930 . S
H41 C51 0.929 . S
H42 C43 0.969 . S
C43 H42 0.969 . S
C43 O44 1.550 . S
C43 H45 0.973 . S
O44 C43 1.550 . S
O44 C50 1.412 . S
H45 C43 0.973 . S
C46 H39 0.929 . S
C46 C47 1.400 . S
C46 C48 1.364 . S
C47 C46 1.400 . S
C47 C51 1.377 . S
C48 C46 1.364 . S
C48 C49 1.374 . S
C49 H40 0.930 . S
C49 C48 1.374 . S
C49 C50 1.383 . S
C50 O44 1.412 . S
C50 C49 1.383 . S
C50 C51 1.394 . S
C51 H41 0.929 . S
C51 C47 1.377 . S
C51 C50 1.394 . S
H52 C59 0.929 . S
H53 C62 0.930 . S
H54 C64 0.929 . S
H55 C56 0.969 . S
C56 H55 0.969 . S
C56 O57 1.550 . S
C56 H58 0.973 . S
O57 C56 1.550 . S
O57 C63 1.412 . S
H58 C56 0.973 . S
C59 H52 0.929 . S
C59 C60 1.400 . S
C59 C61 1.364 1_556 S
C60 C59 1.400 . S
C60 C64 1.377 . S
C61 C59 1.364 1_554 S
C61 C62 1.374 . S
C62 H53 0.930 . S
C62 C61 1.374 . S
C62 C63 1.383 . S
C63 O57 1.412 . S
C63 C62 1.383 . S
C63 C64 1.394 1_554 S
C64 H54 0.929 . S
C64 C60 1.377 . S
C64 C63 1.394 1_556 S
H65 C72 0.929 . S
H66 C75 0.930 . S
H67 C77 0.929 . S
H68 C69 0.969 . S
C69 H68 0.969 . S
C69 O70 1.550 . S
C69 H71 0.973 . S
O70 C69 1.550 . S
O70 C76 1.412 . S
H71 C69 0.973 . S
C72 H65 0.929 . S
C72 C73 1.400 . S
C72 C74 1.364 1_556 S
C73 C72 1.400 . S
C73 C77 1.377 . S
C74 C72 1.364 1_554 S
C74 C75 1.374 . S
C75 H66 0.930 . S
C75 C74 1.374 . S
C75 C76 1.383 . S
C76 O70 1.412 . S
C76 C75 1.383 . S
C76 C77 1.394 1_554 S
C77 H67 0.929 . S
C77 C73 1.377 . S
C77 C76 1.394 1_556 S
H78 C85 0.929 . S
H79 C88 0.930 . S
H80 C90 0.929 . S
H81 C82 0.969 . S
C82 H81 0.969 . S
C82 O83 1.550 . S
C82 H84 0.973 . S
O83 C82 1.550 . S
O83 C89 1.412 . S
H84 C82 0.973 . S
C85 H78 0.929 . S
C85 C86 1.400 . S
C85 C87 1.364 1_556 S
C86 C85 1.400 . S
C86 C90 1.377 . S
C87 C85 1.364 1_554 S
C87 C88 1.374 . S
C88 H79 0.930 . S
C88 C87 1.374 . S
C88 C89 1.383 . S
C89 O83 1.412 . S
C89 C88 1.383 . S
C89 C90 1.394 1_554 S
C90 H80 0.929 . S
C90 C86 1.377 . S
C90 C89 1.394 1_556 S
H91 C98 0.929 . S
H92 C101 0.930 . S
H93 C103 0.929 . S
H94 C95 0.969 . S
C95 H94 0.969 . S
C95 O96 1.550 . S
C95 H97 0.973 . S
O96 C95 1.550 . S
O96 C102 1.412 . S
H97 C95 0.973 . S
C98 H91 0.929 . S
C98 C99 1.400 . S
C98 C100 1.364 1_556 S
C99 C98 1.400 . S
C99 C103 1.377 . S
C100 C98 1.364 1_554 S
C100 C101 1.374 . S
C101 H92 0.930 . S
C101 C100 1.374 . S
C101 C102 1.383 . S
C102 O96 1.412 . S
C102 C101 1.383 . S
C102 C103 1.394 1_554 S
C103 H93 0.929 . S
C103 C99 1.377 . S
C103 C102 1.394 1_556 S
Eu104 N135 2.657 1_565 S
Eu104 N142 2.606 1_565 S
Eu104 O148 2.558 . S
Eu104 O149 2.612 1_455 S
Eu104 O151 2.350 1_455 S
Eu104 O152 2.563 . S
Eu104 O153 2.419 . S
Eu104 O155 2.380 1_565 S
Eu104 O156 2.432 . S
Eu104 C168 2.848 . S
C105 C108 1.410 1_545 S
C105 C109 1.411 . S
C105 N112 1.377 . S
C106 C108 1.451 . S
C106 C110 1.423 . S
C106 C118 1.392 . S
C107 C109 1.420 1_565 S
C107 C110 1.351 . S
C107 H130 0.931 . S
C108 C105 1.410 1_565 S
C108 C106 1.451 . S
C108 N116 1.353 1_565 S
C109 C105 1.411 . S
C109 C107 1.420 1_545 S
C109 C114 1.395 . S
C110 C106 1.423 . S
C110 C107 1.351 . S
C110 H122 0.930 . S
C111 C113 1.400 . S
C111 C114 1.386 . S
C111 H123 0.930 . S
N112 C105 1.377 . S
N112 C113 1.321 . S
N112 Eu115 2.609 . S
C113 C111 1.400 . S
C113 N112 1.321 . S
C113 H120 0.930 . S
C114 C109 1.395 . S
C114 C111 1.386 . S
C114 H133 0.930 . S
Eu115 N112 2.609 . S
Eu115 N116 2.657 . S
Eu115 O149 2.380 1_545 S
Eu115 O150 2.432 . S
Eu115 O154 2.558 . S
Eu115 O155 2.612 1_655 S
Eu115 O157 2.339 1_655 S
Eu115 O158 2.563 1_655 S
Eu115 O159 2.419 1_655 S
Eu115 C179 2.848 . S
N116 C108 1.353 1_545 S
N116 Eu115 2.657 . S
N116 C117 1.334 1_645 S
C117 N116 1.334 1_465 S
C117 C119 1.413 . S
C117 H124 0.929 . S
C118 C106 1.392 . S
C118 C119 1.367 1_655 S
C118 H126 0.930 . S
C119 C117 1.413 . S
C119 C118 1.367 1_455 S
C119 H121 0.930 . S
H120 C113 0.930 . S
H121 C119 0.930 . S
H122 C110 0.930 . S
H123 C111 0.930 . S
H124 C117 0.929 . S
H125 C139 0.930 1_655 S
H126 C118 0.930 . S
H127 C145 0.930 . S
H128 C136 0.929 1_655 S
H129 C143 0.930 . S
H130 C107 0.931 . S
H131 C137 0.930 . S
H132 C170 0.930 . S
H133 C114 0.930 . S
H134 C169 0.931 . S
N135 Eu104 2.657 1_545 S
N135 C136 1.334 . S
N135 C140 1.362 . S
C136 H128 0.929 1_455 S
C136 N135 1.334 . S
C136 C139 1.413 . S
C137 H131 0.930 . S
C137 C138 1.392 . S
C137 C139 1.367 . S
C138 C137 1.392 . S
C138 C140 1.420 . S
C138 C170 1.423 . S
C139 H125 0.930 1_455 S
C139 C136 1.413 . S
C139 C137 1.367 . S
C140 N135 1.362 . S
C140 C138 1.420 . S
C140 C144 1.429 . S
H141 C146 0.930 . S
N142 Eu104 2.606 1_545 S
N142 C144 1.385 . S
N142 C145 1.315 1_545 S
C143 H129 0.930 . S
C143 C145 1.400 . S
C143 C146 1.386 1_565 S
C144 C140 1.429 . S
C144 N142 1.385 . S
C144 C147 1.411 . S
C145 H127 0.930 . S
C145 N142 1.315 1_565 S
C145 C143 1.400 . S
C146 H141 0.930 . S
C146 C143 1.386 1_545 S
C146 C147 1.395 . S
C147 C144 1.411 . S
C147 C146 1.395 . S
C147 C169 1.420 . S
O148 Eu104 2.558 . S
O148 C168 1.257 . S
O149 Eu104 2.612 1_655 S
O149 Eu115 2.380 1_565 S
O149 C160 1.276 . S
O150 Eu115 2.432 . S
O150 C167 1.264 . S
O151 Eu104 2.350 1_655 S
O151 C167 1.238 1_565 S
O152 Eu104 2.563 . S
O152 C160 1.235 1_455 S
O153 Eu104 2.419 . S
O153 C168 1.249 . S
O154 Eu115 2.558 . S
O154 C179 1.257 . S
O155 Eu104 2.380 1_545 S
O155 Eu115 2.612 1_455 S
O155 C171 1.276 . S
O156 Eu104 2.432 . S
O156 C178 1.264 1_565 S
O157 Eu115 2.339 1_455 S
O157 C178 1.254 . S
O158 Eu115 2.563 1_455 S
O158 C171 1.235 . S
O159 Eu115 2.419 1_455 S
O159 C179 1.251 1_455 S
C160 O149 1.276 . S
C160 O152 1.235 1_655 S
C161 C163 1.393 . S
C161 C165 1.395 . S
C161 C168 1.492 . S
C162 C163 1.392 . S
C162 C164 1.386 . S
C163 C161 1.393 . S
C163 C162 1.392 . S
C163 H180 0.878 1_455 S
C164 C162 1.386 . S
C164 C166 1.395 . S
C164 H181 0.930 . S
C165 C161 1.395 . S
C165 C166 1.379 . S
C165 H182 0.930 . S
C166 C164 1.395 . S
C166 C165 1.379 . S
C166 H183 0.930 . S
C167 O150 1.264 . S
C167 O151 1.238 1_545 S
C168 Eu104 2.848 . S
C168 O148 1.257 . S
C168 O153 1.249 . S
C168 C161 1.492 . S
C169 H134 0.931 . S
C169 C147 1.420 . S
C169 C170 1.351 . S
C170 H132 0.930 . S
C170 C138 1.423 . S
C170 C169 1.351 . S
C171 O155 1.276 . S
C171 O158 1.235 . S
C172 C173 1.361 1_655 S
C172 C176 1.395 . S
C172 C179 1.492 . S
C173 C172 1.361 1_455 S
C173 C174 1.391 1_455 S
C173 H184 0.964 . S
C174 C173 1.391 1_655 S
C174 C175 1.399 . S
C175 C174 1.399 . S
C175 C177 1.395 . S
C175 H185 0.930 . S
C176 C172 1.395 . S
C176 C177 1.379 . S
C176 H186 0.930 . S
C177 C175 1.395 . S
C177 C176 1.379 . S
C177 H187 0.930 . S
C178 O156 1.264 1_545 S
C178 O157 1.254 . S
C179 Eu115 2.848 . S
C179 O154 1.257 . S
C179 O159 1.251 1_655 S
C179 C172 1.492 . S
H180 C163 0.878 1_655 S
H181 C164 0.930 . S
H182 C165 0.930 . S
H183 C166 0.930 . S
H184 C173 0.964 . S
H185 C175 0.930 . S
H186 C176 0.930 . S
H187 C177 0.930 . S
Eu188 N219 2.657 . S
Eu188 N226 2.609 . S
Eu188 O232 2.558 . S
Eu188 O233 2.607 1_545 S
Eu188 O235 2.339 1_545 S
Eu188 O236 2.563 . S
Eu188 O237 2.419 . S
Eu188 O239 2.380 . S
Eu188 O240 2.432 . S
Eu188 C252 2.848 . S
C189 C192 1.429 . S
C189 C193 1.411 . S
C189 N196 1.377 . S
C190 C192 1.420 . S
C190 C194 1.423 . S
C190 C202 1.392 . S
C191 C193 1.420 . S
C191 C194 1.351 . S
C191 H214 0.931 . S
C192 C189 1.429 . S
C192 C190 1.420 . S
C192 N200 1.362 . S
C193 C189 1.411 . S
C193 C191 1.420 . S
C193 C198 1.395 . S
C194 C190 1.423 . S
C194 C191 1.351 . S
C194 H206 0.930 . S
C195 C197 1.400 . S
C195 C198 1.386 . S
C195 H207 0.930 . S
N196 C189 1.377 . S
N196 C197 1.321 . S
N196 Eu199 2.609 . S
C197 C195 1.400 . S
C197 N196 1.321 . S
C197 H204 0.930 . S
C198 C193 1.395 . S
C198 C195 1.386 . S
C198 H217 0.930 . S
Eu199 N196 2.609 . S
Eu199 N200 2.657 . S
Eu199 O233 2.382 . S
Eu199 O234 2.432 . S
Eu199 O238 2.558 . S
Eu199 O239 2.612 1_565 S
Eu199 O241 2.339 1_565 S
Eu199 O242 2.563 1_565 S
Eu199 O243 2.419 1_565 S
Eu199 C263 2.848 . S
N200 C192 1.362 . S
N200 Eu199 2.657 . S
N200 C201 1.334 1_565 S
C201 N200 1.334 1_545 S
C201 C203 1.413 . S
C201 H208 0.929 . S
C202 C190 1.392 . S
C202 C203 1.367 1_565 S
C202 H210 0.930 . S
C203 C201 1.413 . S
C203 C202 1.367 1_545 S
C203 H205 0.930 . S
H204 C197 0.930 . S
H205 C203 0.930 . S
H206 C194 0.930 . S
H207 C195 0.930 . S
H208 C201 0.929 . S
H209 C223 0.930 1_565 S
H210 C202 0.930 . S
H211 C229 0.930 . S
H212 C220 0.929 1_565 S
H213 C227 0.930 . S
H214 C191 0.931 . S
H215 C221 0.930 . S
H216 C254 0.930 . S
H217 C198 0.930 . S
H218 C253 0.931 . S
N219 Eu188 2.657 . S
N219 C220 1.334 . S
N219 C224 1.362 . S
C220 H212 0.929 1_545 S
C220 N219 1.334 . S
C220 C223 1.413 . S
C221 H215 0.930 . S
C221 C222 1.392 . S
C221 C223 1.367 . S
C222 C221 1.392 . S
C222 C224 1.420 . S
C222 C254 1.423 . S
C223 H209 0.930 1_545 S
C223 C220 1.413 . S
C223 C221 1.367 . S
C224 N219 1.362 . S
C224 C222 1.420 . S
C224 C228 1.429 . S
H225 C230 0.930 . S
N226 Eu188 2.609 . S
N226 C228 1.377 . S
N226 C229 1.321 . S
C227 H213 0.930 . S
C227 C229 1.400 . S
C227 C230 1.386 . S
C228 C224 1.429 . S
C228 N226 1.377 . S
C228 C231 1.411 . S
C229 H211 0.930 . S
C229 N226 1.321 . S
C229 C227 1.400 . S
C230 H225 0.930 . S
C230 C227 1.386 . S
C230 C231 1.395 . S
C231 C228 1.411 . S
C231 C230 1.395 . S
C231 C253 1.420 . S
O232 Eu188 2.558 . S
O232 C252 1.257 . S
O233 Eu188 2.607 1_565 S
O233 Eu199 2.382 . S
O233 C244 1.275 1_565 S
O234 Eu199 2.432 . S
O234 C251 1.264 . S
O235 Eu188 2.339 1_565 S
O235 C251 1.254 . S
O236 Eu188 2.563 . S
O236 C244 1.241 . S
O237 Eu188 2.419 . S
O237 C252 1.249 . S
O238 Eu199 2.558 . S
O238 C263 1.257 . S
O239 Eu188 2.380 . S
O239 Eu199 2.612 1_545 S
O239 C255 1.276 . S
O240 Eu188 2.432 . S
O240 C262 1.264 . S
O241 Eu199 2.339 1_545 S
O241 C262 1.254 . S
O242 Eu199 2.563 1_545 S
O242 C255 1.235 . S
O243 Eu199 2.419 1_545 S
O243 C263 1.249 1_545 S
C244 O233 1.275 1_545 S
C244 O236 1.241 . S
C245 C247 1.393 . S
C245 C249 1.395 . S
C245 C252 1.492 . S
C246 C247 1.392 . S
C246 C248 1.386 . S
C247 C245 1.393 . S
C247 C246 1.392 . S
C247 H264 0.930 . S
C248 C246 1.386 . S
C248 C250 1.395 . S
C248 H265 0.930 . S
C249 C245 1.395 . S
C249 C250 1.379 . S
C249 H266 0.930 . S
C250 C248 1.395 . S
C250 C249 1.379 . S
C250 H267 0.930 . S
C251 O234 1.264 . S
C251 O235 1.254 . S
C252 Eu188 2.848 . S
C252 O232 1.257 . S
C252 O237 1.249 . S
C252 C245 1.492 . S
C253 H218 0.931 . S
C253 C231 1.420 . S
C253 C254 1.351 . S
C254 H216 0.930 . S
C254 C222 1.423 . S
C254 C253 1.351 . S
C255 O239 1.276 . S
C255 O242 1.235 . S
C256 C257 1.393 1_565 S
C256 C260 1.395 . S
C256 C263 1.492 . S
C257 C256 1.393 1_545 S
C257 C258 1.397 . S
C257 H268 0.930 . S
C258 C257 1.397 . S
C258 C259 1.336 1_545 S
C259 C258 1.336 1_565 S
C259 C261 1.395 . S
C259 H269 0.930 . S
C260 C256 1.395 . S
C260 C261 1.379 . S
C260 H270 0.930 . S
C261 C259 1.395 . S
C261 C260 1.379 . S
C261 H271 0.930 . S
C262 O240 1.264 . S
C262 O241 1.254 . S
C263 Eu199 2.848 . S
C263 O238 1.257 . S
C263 O243 1.249 1_565 S
C263 C256 1.492 . S
H264 C247 0.930 . S
H265 C248 0.930 . S
H266 C249 0.930 . S
H267 C250 0.930 . S
H268 C257 0.930 . S
H269 C259 0.930 . S
H270 C260 0.930 . S
H271 C261 0.930 . S
Eu272 N303 2.657 . S
Eu272 N310 2.609 . S
Eu272 O316 2.558 . S
Eu272 O317 2.612 . S
Eu272 O319 2.339 . S
Eu272 O320 2.563 . S
Eu272 O321 2.419 . S
Eu272 O323 2.380 . S
Eu272 O324 2.432 . S
Eu272 C336 2.848 . S
C273 C276 1.429 . S
C273 C277 1.411 . S
C273 N280 1.377 . S
C274 C276 1.420 . S
C274 C278 1.423 . S
C274 C286 1.392 . S
C275 C277 1.420 . S
C275 C278 1.351 . S
C275 H298 0.931 . S
C276 C273 1.429 . S
C276 C274 1.420 . S
C276 N284 1.362 . S
C277 C273 1.411 . S
C277 C275 1.420 . S
C277 C282 1.395 . S
C278 C274 1.423 . S
C278 C275 1.351 . S
C278 H290 0.930 . S
C279 C281 1.400 . S
C279 C282 1.386 . S
C279 H291 0.930 . S
N280 C273 1.377 . S
N280 C281 1.321 . S
N280 Eu283 2.609 . S
C281 C279 1.400 . S
C281 N280 1.321 . S
C281 H288 0.930 . S
C282 C277 1.395 . S
C282 C279 1.386 . S
C282 H301 0.930 . S
Eu283 N280 2.609 . S
Eu283 N284 2.657 . S
Eu283 O317 2.380 . S
Eu283 O318 2.432 . S
Eu283 O322 2.558 . S
Eu283 O323 2.612 . S
Eu283 O325 2.339 . S
Eu283 O326 2.563 . S
Eu283 O327 2.419 . S
Eu283 C347 2.848 . S
N284 C276 1.362 . S
N284 Eu283 2.657 . S
N284 C285 1.334 . S
C285 N284 1.334 . S
C285 C287 1.413 . S
C285 H292 0.929 . S
C286 C274 1.392 . S
C286 C287 1.367 . S
C286 H294 0.930 . S
C287 C285 1.413 . S
C287 C286 1.367 . S
C287 H289 0.930 . S
H288 C281 0.930 . S
H289 C287 0.930 . S
H290 C278 0.930 . S
H291 C279 0.930 . S
H292 C285 0.929 . S
H293 C307 0.930 . S
H294 C286 0.930 . S
H295 C313 0.930 . S
H296 C304 0.929 . S
H297 C311 0.930 . S
H298 C275 0.931 . S
H299 C305 0.930 . S
H300 C338 0.930 . S
H301 C282 0.930 . S
H302 C337 0.931 . S
N303 Eu272 2.657 . S
N303 C304 1.334 . S
N303 C308 1.362 . S
C304 H296 0.929 . S
C304 N303 1.334 . S
C304 C307 1.413 . S
C305 H299 0.930 . S
C305 C306 1.392 . S
C305 C307 1.367 . S
C306 C305 1.392 . S
C306 C308 1.420 . S
C306 C338 1.423 . S
C307 H293 0.930 . S
C307 C304 1.413 . S
C307 C305 1.367 . S
C308 N303 1.362 . S
C308 C306 1.420 . S
C308 C312 1.429 . S
H309 C314 0.930 . S
N310 Eu272 2.609 . S
N310 C312 1.377 . S
N310 C313 1.321 . S
C311 H297 0.930 . S
C311 C313 1.400 . S
C311 C314 1.386 . S
C312 C308 1.429 . S
C312 N310 1.377 . S
C312 C315 1.411 . S
C313 H295 0.930 . S
C313 N310 1.321 . S
C313 C311 1.400 . S
C314 H309 0.930 . S
C314 C311 1.386 . S
C314 C315 1.395 . S
C315 C312 1.411 . S
C315 C314 1.395 . S
C315 C337 1.420 . S
O316 Eu272 2.558 . S
O316 C336 1.257 . S
O317 Eu272 2.612 . S
O317 Eu283 2.380 . S
O317 C328 1.276 . S
O318 Eu283 2.432 . S
O318 C335 1.264 . S
O319 Eu272 2.339 . S
O319 C335 1.254 . S
O320 Eu272 2.563 . S
O320 C328 1.235 . S
O321 Eu272 2.419 . S
O321 C336 1.249 . S
O322 Eu283 2.558 . S
O322 C347 1.257 . S
O323 Eu272 2.380 . S
O323 Eu283 2.612 . S
O323 C339 1.276 . S
O324 Eu272 2.432 . S
O324 C346 1.264 . S
O325 Eu283 2.339 . S
O325 C346 1.254 . S
O326 Eu283 2.563 . S
O326 C339 1.235 . S
O327 Eu283 2.419 . S
O327 C347 1.249 . S
C328 O317 1.276 . S
C328 O320 1.235 . S
C329 C331 1.393 . S
C329 C333 1.395 . S
C329 C336 1.492 . S
C330 C331 1.392 . S
C330 C332 1.386 . S
C331 C329 1.393 . S
C331 C330 1.392 . S
C331 H348 0.930 . S
C332 C330 1.386 . S
C332 C334 1.395 . S
C332 H349 0.930 . S
C333 C329 1.395 . S
C333 C334 1.379 . S
C333 H350 0.930 . S
C334 C332 1.395 . S
C334 C333 1.379 . S
C334 H351 0.930 . S
C335 O318 1.264 . S
C335 O319 1.254 . S
C336 Eu272 2.848 . S
C336 O316 1.257 . S
C336 O321 1.249 . S
C336 C329 1.492 . S
C337 H302 0.931 . S
C337 C315 1.420 . S
C337 C338 1.351 . S
C338 H300 0.930 . S
C338 C306 1.423 . S
C338 C337 1.351 . S
C339 O323 1.276 . S
C339 O326 1.235 . S
C340 C341 1.393 . S
C340 C344 1.395 . S
C340 C347 1.492 . S
C341 C340 1.393 . S
C341 C342 1.392 . S
C341 H352 0.930 . S
C342 C341 1.392 . S
C342 C343 1.386 . S
C343 C342 1.386 . S
C343 C345 1.395 . S
C343 H353 0.930 . S
C344 C340 1.395 . S
C344 C345 1.379 . S
C344 H354 0.930 . S
C345 C343 1.395 . S
C345 C344 1.379 . S
C345 H355 0.930 1_556 S
C346 O324 1.264 . S
C346 O325 1.254 . S
C347 Eu283 2.848 . S
C347 O322 1.257 . S
C347 O327 1.249 . S
C347 C340 1.492 . S
H348 C331 0.930 . S
H349 C332 0.930 . S
H350 C333 0.930 . S
H351 C334 0.930 . S
H352 C341 0.930 . S
H353 C343 0.930 . S
H354 C344 0.930 . S
H355 C345 0.930 1_554 S
Eu356 N387 2.657 . S
Eu356 N394 2.609 . S
Eu356 O400 2.558 . S
Eu356 O401 2.612 . S
Eu356 O403 2.339 . S
Eu356 O404 2.563 . S
Eu356 O405 2.419 . S
Eu356 O407 2.380 . S
Eu356 O408 2.432 1_455 S
Eu356 C420 2.848 . S
C357 C360 1.429 . S
C357 C361 1.411 . S
C357 N364 1.377 . S
C358 C360 1.420 . S
C358 C362 1.423 . S
C358 C370 1.392 . S
C359 C361 1.420 . S
C359 C362 1.351 . S
C359 H382 0.931 . S
C360 C357 1.429 . S
C360 C358 1.420 . S
C360 N368 1.362 . S
C361 C357 1.411 . S
C361 C359 1.420 . S
C361 C366 1.395 1_655 S
C362 C358 1.423 . S
C362 C359 1.351 . S
C362 H374 0.930 . S
C363 C365 1.400 . S
C363 C366 1.386 . S
C363 H375 0.930 . S
N364 C357 1.377 . S
N364 C365 1.321 1_655 S
N364 Eu367 2.609 . S
C365 C363 1.400 . S
C365 N364 1.321 1_455 S
C365 H372 0.930 . S
C366 C361 1.395 1_455 S
C366 C363 1.386 . S
C366 H385 0.930 . S
Eu367 N364 2.609 . S
Eu367 N368 2.657 . S
Eu367 O401 2.380 1_655 S
Eu367 O402 2.432 1_655 S
Eu367 O406 2.558 . S
Eu367 O407 2.612 1_655 S
Eu367 O409 2.339 . S
Eu367 O410 2.563 . S
Eu367 O411 2.419 . S
Eu367 C431 2.848 . S
N368 C360 1.362 . S
N368 Eu367 2.657 . S
N368 C369 1.334 . S
C369 N368 1.334 . S
C369 C371 1.413 . S
C369 H376 0.929 . S
C370 C358 1.392 . S
C370 C371 1.367 . S
C370 H378 0.930 . S
C371 C369 1.413 . S
C371 C370 1.367 . S
C371 H373 0.930 . S
H372 C365 0.930 . S
H373 C371 0.930 . S
H374 C362 0.930 . S
H375 C363 0.930 . S
H376 C369 0.929 . S
H377 C391 0.930 . S
H378 C370 0.930 . S
H379 C397 0.930 1_655 S
H380 C388 0.929 . S
H381 C395 0.930 1_655 S
H382 C359 0.931 . S
H383 C389 0.930 . S
H384 C422 0.930 . S
H385 C366 0.930 . S
H386 C421 0.931 . S
N387 Eu356 2.657 . S
N387 C388 1.334 . S
N387 C392 1.362 . S
C388 H380 0.929 . S
C388 N387 1.334 . S
C388 C391 1.413 . S
C389 H383 0.930 . S
C389 C390 1.392 . S
C389 C391 1.367 . S
C390 C389 1.392 . S
C390 C392 1.420 . S
C390 C422 1.423 . S
C391 H377 0.930 . S
C391 C388 1.413 . S
C391 C389 1.367 . S
C392 N387 1.362 . S
C392 C390 1.420 . S
C392 C396 1.429 . S
H393 C398 0.930 . S
N394 Eu356 2.609 . S
N394 C396 1.377 . S
N394 C397 1.321 . S
C395 H381 0.930 1_455 S
C395 C397 1.400 . S
C395 C398 1.386 . S
C396 C392 1.429 . S
C396 N394 1.377 . S
C396 C399 1.411 . S
C397 H379 0.930 1_455 S
C397 N394 1.321 . S
C397 C395 1.400 . S
C398 H393 0.930 . S
C398 C395 1.386 . S
C398 C399 1.395 . S
C399 C396 1.411 . S
C399 C398 1.395 . S
C399 C421 1.420 . S
O400 Eu356 2.558 . S
O400 C420 1.257 . S
O401 Eu356 2.612 . S
O401 Eu367 2.380 1_455 S
O401 C412 1.276 . S
O402 Eu367 2.432 1_455 S
O402 C419 1.264 . S
O403 Eu356 2.339 . S
O403 C419 1.254 . S
O404 Eu356 2.563 . S
O404 C412 1.235 . S
O405 Eu356 2.419 . S
O405 C420 1.249 . S
O406 Eu367 2.558 . S
O406 C431 1.257 . S
O407 Eu356 2.380 . S
O407 Eu367 2.612 1_455 S
O407 C423 1.276 1_455 S
O408 Eu356 2.432 1_655 S
O408 C430 1.264 . S
O409 Eu367 2.339 . S
O409 C430 1.254 . S
O410 Eu367 2.563 . S
O410 C423 1.235 . S
O411 Eu367 2.419 . S
O411 C431 1.249 . S
C412 O401 1.276 . S
C412 O404 1.235 . S
C413 C415 1.393 . S
C413 C417 1.395 . S
C413 C420 1.492 . S
C414 C415 1.392 . S
C414 C416 1.386 . S
C415 C413 1.393 . S
C415 C414 1.392 . S
C415 H432 0.930 . S
C416 C414 1.386 . S
C416 C418 1.395 . S
C416 H433 0.930 . S
C417 C413 1.395 . S
C417 C418 1.379 . S
C417 H434 0.930 . S
C418 C416 1.395 . S
C418 C417 1.379 . S
C418 H435 0.930 . S
C419 O402 1.264 . S
C419 O403 1.254 . S
C420 Eu356 2.848 . S
C420 O400 1.257 . S
C420 O405 1.249 . S
C420 C413 1.492 . S
C421 H386 0.931 . S
C421 C399 1.420 . S
C421 C422 1.351 . S
C422 H384 0.930 . S
C422 C390 1.423 . S
C422 C421 1.351 . S
C423 O407 1.276 1_655 S
C423 O410 1.235 . S
C424 C425 1.393 . S
C424 C428 1.395 . S
C424 C431 1.492 . S
C425 C424 1.393 . S
C425 C426 1.392 . S
C425 H436 0.930 . S
C426 C425 1.392 . S
C426 C427 1.386 . S
C427 C426 1.386 . S
C427 C429 1.395 . S
C427 H437 0.930 . S
C428 C424 1.395 . S
C428 C429 1.379 . S
C428 H438 0.930 . S
C429 C427 1.395 . S
C429 C428 1.379 . S
C429 H439 0.930 1_556 S
C430 O408 1.264 . S
C430 O409 1.254 . S
C431 Eu367 2.848 . S
C431 O406 1.257 . S
C431 O411 1.249 . S
C431 C424 1.492 . S
H432 C415 0.930 . S
H433 C416 0.930 . S
H434 C417 0.930 . S
H435 C418 0.930 . S
H436 C425 0.930 . S
H437 C427 0.930 . S
H438 C428 0.930 . S
H439 C429 0.930 1_554 S
H440 C458 0.951 . S
H441 C460 0.951 . S
H442 C462 0.950 . S
H443 C463 0.950 . S
H444 C465 0.950 . S
H445 C468 0.950 . S
H446 C469 0.950 . S
H447 C471 0.950 . S
H448 C472 0.950 . S
H449 C473 0.955 . S
H450 C475 0.951 . S
H451 C477 0.950 . S
H452 C478 0.950 . S
H453 C480 0.950 . S
H454 C483 0.950 1_545 S
H455 C484 0.950 . S
H456 C486 0.950 . S
H457 C487 0.950 . S
C458 H440 0.951 . S
C458 C459 1.366 . S
C458 C460 1.388 . S
C459 C458 1.366 . S
C459 C463 1.385 . S
C460 H441 0.951 . S
C460 C458 1.388 . S
C460 C461 1.366 . S
C461 C460 1.366 . S
C461 C462 1.414 . S
C461 C464 1.499 . S
C462 H442 0.950 . S
C462 C461 1.414 . S
C462 C463 1.374 . S
C463 H443 0.950 . S
C463 C459 1.385 . S
C463 C462 1.374 . S
C464 C461 1.499 . S
C464 C465 1.373 . S
C464 C466 1.389 . S
C465 H444 0.950 . S
C465 C464 1.373 . S
C465 C481 1.377 . S
C466 C464 1.389 . S
C466 C467 1.524 . S
C466 C480 1.377 . S
C467 C466 1.524 . S
C467 C468 1.397 . S
C467 C472 1.363 . S
C468 H445 0.950 . S
C468 C467 1.397 . S
C468 C469 1.334 . S
C469 H446 0.950 . S
C469 C468 1.334 . S
C469 C470 1.287 . S
C470 C469 1.287 . S
C470 C471 1.524 . S
C470 H489 0.913 . S
C471 H447 0.950 . S
C471 C470 1.524 . S
C471 C472 1.415 . S
C472 H448 0.950 . S
C472 C467 1.363 . S
C472 C471 1.415 . S
C473 H449 0.955 . S
C473 C474 1.366 . S
C473 C475 1.388 . S
C474 C473 1.366 . S
C474 C478 1.385 . S
C475 H450 0.951 . S
C475 C473 1.388 . S
C475 C476 1.366 . S
C476 C475 1.366 . S
C476 C477 1.414 . S
C476 C479 1.499 . S
C477 H451 0.950 . S
C477 C476 1.414 . S
C477 C478 1.374 . S
C478 H452 0.950 . S
C478 C474 1.385 . S
C478 C477 1.374 . S
C479 C476 1.499 . S
C479 C480 1.373 . S
C479 C481 1.389 . S
C480 H453 0.950 . S
C480 C466 1.377 . S
C480 C479 1.373 . S
C481 C465 1.377 . S
C481 C479 1.389 . S
C481 C482 1.475 1_545 S
C482 C481 1.475 1_565 S
C482 C483 1.405 . S
C482 C487 1.403 . S
C483 H454 0.950 1_565 S
C483 C482 1.405 . S
C483 C484 1.334 . S
C484 H455 0.950 . S
C484 C483 1.334 . S
C484 C485 1.287 . S
C485 C484 1.287 . S
C485 C486 1.524 . S
C485 H488 0.999 . S
C486 H456 0.950 . S
C486 C485 1.524 . S
C486 C487 1.415 . S
C487 H457 0.950 . S
C487 C482 1.403 . S
C487 C486 1.415 . S
H488 C485 0.999 . S
H489 C470 0.913 . S
H490 C508 0.951 . S
H491 C510 0.951 . S
H492 C512 0.950 . S
H493 C513 0.950 . S
H494 C515 0.950 . S
H495 C518 0.950 . S
H496 C519 0.950 . S
H497 C521 0.950 . S
H498 C522 0.950 . S
H499 C523 0.951 . S
H500 C525 0.951 . S
H501 C527 0.950 . S
H502 C528 0.950 . S
H503 C530 0.950 . S
H504 C533 0.950 . S
H505 C534 0.950 . S
H506 C536 0.950 . S
H507 C537 0.950 . S
C508 H490 0.951 . S
C508 C509 1.366 . S
C508 C510 1.388 . S
C509 C508 1.366 . S
C509 C513 1.385 . S
C510 H491 0.951 . S
C510 C508 1.388 . S
C510 C511 1.366 . S
C511 C510 1.366 . S
C511 C512 1.414 . S
C511 C514 1.499 . S
C512 H492 0.950 . S
C512 C511 1.414 . S
C512 C513 1.374 . S
C513 H493 0.950 . S
C513 C509 1.385 . S
C513 C512 1.374 . S
C514 C511 1.499 . S
C514 C515 1.373 . S
C514 C516 1.389 . S
C515 H494 0.950 . S
C515 C514 1.373 . S
C515 C531 1.377 . S
C516 C514 1.389 . S
C516 C517 1.524 . S
C516 C530 1.377 . S
C517 C516 1.524 . S
C517 C518 1.397 . S
C517 C522 1.363 . S
C518 H495 0.950 . S
C518 C517 1.397 . S
C518 C519 1.334 . S
C519 H496 0.950 . S
C519 C518 1.334 . S
C519 C520 1.287 . S
C520 C519 1.287 . S
C520 C521 1.524 . S
C520 H539 0.913 . S
C521 H497 0.950 . S
C521 C520 1.524 . S
C521 C522 1.415 . S
C522 H498 0.950 . S
C522 C517 1.363 . S
C522 C521 1.415 . S
C523 H499 0.951 . S
C523 C524 1.366 . S
C523 C525 1.388 . S
C524 C523 1.366 . S
C524 C528 1.385 . S
C525 H500 0.951 . S
C525 C523 1.388 . S
C525 C526 1.366 . S
C526 C525 1.366 . S
C526 C527 1.414 . S
C526 C529 1.499 . S
C527 H501 0.950 . S
C527 C526 1.414 . S
C527 C528 1.374 . S
C528 H502 0.950 . S
C528 C524 1.385 . S
C528 C527 1.374 . S
C529 C526 1.499 . S
C529 C530 1.373 . S
C529 C531 1.389 . S
C530 H503 0.950 . S
C530 C516 1.377 . S
C530 C529 1.373 . S
C531 C515 1.377 . S
C531 C529 1.389 . S
C531 C532 1.524 . S
C532 C531 1.524 . S
C532 C533 1.397 . S
C532 C537 1.363 . S
C533 H504 0.950 . S
C533 C532 1.397 . S
C533 C534 1.334 . S
C534 H505 0.950 . S
C534 C533 1.334 . S
C534 C535 1.287 . S
C535 C534 1.287 . S
C535 C536 1.524 . S
C535 H538 0.999 . S
C536 H506 0.950 . S
C536 C535 1.524 . S
C536 C537 1.415 . S
C537 H507 0.950 . S
C537 C532 1.363 . S
C537 C536 1.415 . S
H538 C535 0.999 . S
H539 C520 0.913 . S
H540 C558 0.951 . S
H541 C560 0.951 . S
H542 C562 0.950 . S
H543 C563 0.950 . S
H544 C565 0.950 . S
H545 C568 0.950 . S
H546 C569 0.950 . S
H547 C571 0.950 . S
H548 C572 0.950 . S
H549 C573 0.951 . S
H550 C575 0.951 . S
H551 C577 0.950 . S
H552 C578 0.950 . S
H553 C580 0.950 . S
H554 C583 0.950 . S
H555 C584 0.950 . S
H556 C586 0.950 . S
H557 C587 0.950 . S
C558 H540 0.951 . S
C558 C559 1.366 . S
C558 C560 1.388 . S
C559 C558 1.366 . S
C559 C563 1.385 . S
C560 H541 0.951 . S
C560 C558 1.388 . S
C560 C561 1.366 . S
C561 C560 1.366 . S
C561 C562 1.414 . S
C561 C564 1.499 . S
C562 H542 0.950 . S
C562 C561 1.414 . S
C562 C563 1.374 . S
C563 H543 0.950 . S
C563 C559 1.385 . S
C563 C562 1.374 . S
C564 C561 1.499 . S
C564 C565 1.373 . S
C564 C566 1.389 . S
C565 H544 0.950 . S
C565 C564 1.373 . S
C565 C581 1.377 . S
C566 C564 1.389 . S
C566 C567 1.524 . S
C566 C580 1.377 . S
C567 C566 1.524 . S
C567 C568 1.397 . S
C567 C572 1.363 . S
C568 H545 0.950 . S
C568 C567 1.397 . S
C568 C569 1.334 . S
C569 H546 0.950 . S
C569 C568 1.334 . S
C569 C570 1.287 . S
C570 C569 1.287 . S
C570 C571 1.524 . S
C570 H589 0.913 . S
C571 H547 0.950 . S
C571 C570 1.524 . S
C571 C572 1.415 . S
C572 H548 0.950 . S
C572 C567 1.363 . S
C572 C571 1.415 . S
C573 H549 0.951 . S
C573 C574 1.366 . S
C573 C575 1.388 . S
C574 C573 1.366 . S
C574 C578 1.385 . S
C575 H550 0.951 . S
C575 C573 1.388 . S
C575 C576 1.366 . S
C576 C575 1.366 . S
C576 C577 1.414 . S
C576 C579 1.499 . S
C577 H551 0.950 . S
C577 C576 1.414 . S
C577 C578 1.374 . S
C578 H552 0.950 . S
C578 C574 1.385 . S
C578 C577 1.374 . S
C579 C576 1.499 . S
C579 C580 1.373 . S
C579 C581 1.389 . S
C580 H553 0.950 . S
C580 C566 1.377 . S
C580 C579 1.373 . S
C581 C565 1.377 . S
C581 C579 1.389 . S
C581 C582 1.524 . S
C582 C581 1.524 . S
C582 C583 1.397 . S
C582 C587 1.363 . S
C583 H554 0.950 . S
C583 C582 1.397 . S
C583 C584 1.334 . S
C584 H555 0.950 . S
C584 C583 1.334 . S
C584 C585 1.287 . S
C585 C584 1.287 . S
C585 C586 1.524 . S
C585 H588 0.999 . S
C586 H556 0.950 . S
C586 C585 1.524 . S
C586 C587 1.415 . S
C587 H557 0.950 . S
C587 C582 1.363 . S
C587 C586 1.415 . S
H588 C585 0.999 . S
H589 C570 0.913 . S
H590 C608 0.951 . S
H591 C610 0.951 . S
H592 C612 0.950 . S
H593 C613 0.950 . S
H594 C615 0.950 . S
H595 C618 0.950 . S
H596 C619 0.950 . S
H597 C621 0.950 . S
H598 C622 0.950 . S
H599 C623 0.951 . S
H600 C625 0.951 . S
H601 C627 0.950 . S
H602 C628 0.950 . S
H603 C630 0.950 . S
H604 C633 0.950 1_655 S
H605 C634 0.950 . S
H606 C636 0.950 . S
H607 C637 0.950 . S
C608 H590 0.951 . S
C608 C609 1.366 . S
C608 C610 1.388 . S
C609 C608 1.366 . S
C609 C613 1.385 . S
C610 H591 0.951 . S
C610 C608 1.388 . S
C610 C611 1.366 . S
C611 C610 1.366 . S
C611 C612 1.414 . S
C611 C614 1.499 . S
C612 H592 0.950 . S
C612 C611 1.414 . S
C612 C613 1.374 . S
C613 H593 0.950 . S
C613 C609 1.385 . S
C613 C612 1.374 . S
C614 C611 1.499 . S
C614 C615 1.373 . S
C614 C616 1.389 . S
C615 H594 0.950 . S
C615 C614 1.373 . S
C615 C631 1.377 . S
C616 C614 1.389 . S
C616 C617 1.524 . S
C616 C630 1.377 . S
C617 C616 1.524 . S
C617 C618 1.397 . S
C617 C622 1.363 . S
C618 H595 0.950 . S
C618 C617 1.397 . S
C618 C619 1.334 . S
C619 H596 0.950 . S
C619 C618 1.334 . S
C619 C620 1.287 . S
C620 C619 1.287 . S
C620 C621 1.524 . S
C620 H639 0.913 . S
C621 H597 0.950 . S
C621 C620 1.524 . S
C621 C622 1.415 . S
C622 H598 0.950 . S
C622 C617 1.363 . S
C622 C621 1.415 . S
C623 H599 0.951 . S
C623 C624 1.366 . S
C623 C625 1.388 . S
C624 C623 1.366 . S
C624 C628 1.385 . S
C625 H600 0.951 . S
C625 C623 1.388 . S
C625 C626 1.366 . S
C626 C625 1.366 . S
C626 C627 1.414 . S
C626 C629 1.499 . S
C627 H601 0.950 . S
C627 C626 1.414 . S
C627 C628 1.374 . S
C628 H602 0.950 . S
C628 C624 1.385 . S
C628 C627 1.374 . S
C629 C626 1.499 . S
C629 C630 1.373 . S
C629 C631 1.389 . S
C630 H603 0.950 . S
C630 C616 1.377 . S
C630 C629 1.373 . S
C631 C615 1.377 . S
C631 C629 1.389 . S
C631 C632 1.524 . S
C632 C631 1.524 . S
C632 C633 1.397 . S
C632 C637 1.363 . S
C633 H604 0.950 1_455 S
C633 C632 1.397 . S
C633 C634 1.334 1_455 S
C634 H605 0.950 . S
C634 C633 1.334 1_655 S
C634 C635 1.287 1_655 S
C635 C634 1.287 1_455 S
C635 C636 1.524 . S
C635 H638 0.999 1_455 S
C636 H606 0.950 . S
C636 C635 1.524 . S
C636 C637 1.415 . S
C637 H607 0.950 . S
C637 C632 1.363 . S
C637 C636 1.415 . S
H638 C635 0.999 1_655 S
H639 C620 0.913 . S
H640 C658 0.951 . S
H641 C660 0.951 . S
H642 C662 0.950 . S
H643 C663 0.950 . S
H644 C665 0.950 1_554 S
H645 C668 0.950 . S
H646 C669 0.950 . S
H647 C671 0.950 . S
H648 C672 0.932 1_545 S
H649 C673 0.951 . S
H650 C675 0.951 . S
H651 C677 0.950 . S
H652 C678 0.950 . S
H653 C680 0.950 . S
H654 C683 0.918 1_545 S
H655 C684 0.950 . S
H656 C686 0.950 . S
H657 C687 0.950 . S
C658 H640 0.951 . S
C658 C659 1.366 . S
C658 C660 1.388 . S
C659 C658 1.366 . S
C659 C663 1.385 . S
C660 H641 0.951 . S
C660 C658 1.388 . S
C660 C661 1.366 . S
C661 C660 1.366 . S
C661 C662 1.414 . S
C661 C664 1.499 1_554 S
C662 H642 0.950 . S
C662 C661 1.414 . S
C662 C663 1.374 . S
C663 H643 0.950 . S
C663 C659 1.385 . S
C663 C662 1.374 . S
C664 C661 1.499 1_556 S
C664 C665 1.373 . S
C664 C666 1.389 . S
C665 H644 0.950 1_556 S
C665 C664 1.373 . S
C665 C681 1.377 . S
C666 C664 1.389 . S
C666 C667 1.524 . S
C666 C680 1.377 . S
C667 C666 1.524 . S
C667 C668 1.397 . S
C667 C672 1.363 . S
C668 H645 0.950 . S
C668 C667 1.397 . S
C668 C669 1.334 . S
C669 H646 0.950 . S
C669 C668 1.334 . S
C669 C670 1.287 . S
C670 C669 1.287 . S
C670 C671 1.524 . S
C670 H689 0.913 . S
C671 H647 0.950 . S
C671 C670 1.524 . S
C671 C672 1.415 . S
C672 H648 0.932 1_565 S
C672 C667 1.363 . S
C672 C671 1.415 . S
C673 H649 0.951 . S
C673 C674 1.366 . S
C673 C675 1.388 . S
C674 C673 1.366 . S
C674 C678 1.385 1_565 S
C675 H650 0.951 . S
C675 C673 1.388 . S
C675 C676 1.366 . S
C676 C675 1.366 . S
C676 C677 1.414 1_565 S
C676 C679 1.499 . S
C677 H651 0.950 . S
C677 C676 1.414 1_545 S
C677 C678 1.374 . S
C678 H652 0.950 . S
C678 C674 1.385 1_545 S
C678 C677 1.374 . S
C679 C676 1.499 . S
C679 C680 1.373 . S
C679 C681 1.389 . S
C680 H653 0.950 . S
C680 C666 1.377 . S
C680 C679 1.373 . S
C681 C665 1.377 . S
C681 C679 1.389 . S
C681 C682 1.524 . S
C682 C681 1.524 . S
C682 C683 1.437 . S
C682 C687 1.363 1_556 S
C683 H654 0.918 1_565 S
C683 C682 1.437 . S
C683 C684 1.326 1_565 S
C684 H655 0.950 . S
C684 C683 1.326 1_545 S
C684 C685 1.287 1_546 S
C685 C684 1.287 1_564 S
C685 C686 1.524 . S
C685 H688 0.999 . S
C686 H656 0.950 . S
C686 C685 1.524 . S
C686 C687 1.415 . S
C687 H657 0.950 . S
C687 C682 1.363 1_554 S
C687 C686 1.415 . S
H688 C685 0.999 . S
H689 C670 0.913 . S
H690 C708 0.951 . S
H691 C710 0.951 . S
H692 C712 0.950 1_556 S
H693 C713 0.950 . S
H694 C715 0.950 . S
H695 C718 0.950 . S
H696 C719 0.950 . S
H697 C721 0.950 . S
H698 C722 0.950 . S
H699 C723 0.951 . S
H700 C725 0.951 . S
H701 C727 0.950 . S
H702 C728 0.950 . S
H703 C730 0.950 . S
H704 C733 0.950 . S
H705 C734 0.950 . S
H706 C736 0.950 . S
H707 C737 0.950 . S
C708 H690 0.951 . S
C708 C709 1.366 . S
C708 C710 1.388 . S
C709 C708 1.366 . S
C709 C713 1.385 . S
C710 H691 0.951 . S
C710 C708 1.388 . S
C710 C711 1.366 . S
C711 C710 1.366 . S
C711 C712 1.414 . S
C711 C714 1.499 1_554 S
C712 H692 0.950 1_554 S
C712 C711 1.414 . S
C712 C713 1.374 . S
C713 H693 0.950 . S
C713 C709 1.385 . S
C713 C712 1.374 . S
C714 C711 1.499 1_556 S
C714 C715 1.373 . S
C714 C716 1.389 . S
C715 H694 0.950 . S
C715 C714 1.373 . S
C715 C731 1.377 . S
C716 C714 1.389 . S
C716 C717 1.524 1_556 S
C716 C730 1.377 . S
C717 C716 1.524 1_554 S
C717 C718 1.397 . S
C717 C722 1.363 . S
C718 H695 0.950 . S
C718 C717 1.397 . S
C718 C719 1.334 . S
C719 H696 0.950 . S
C719 C718 1.334 . S
C719 C720 1.287 . S
C720 C719 1.287 . S
C720 C721 1.524 . S
C720 H739 0.913 . S
C721 H697 0.950 . S
C721 C720 1.524 . S
C721 C722 1.415 . S
C722 H698 0.950 . S
C722 C717 1.363 . S
C722 C721 1.415 . S
C723 H699 0.951 . S
C723 C724 1.366 . S
C723 C725 1.388 . S
C724 C723 1.366 . S
C724 C728 1.385 . S
C725 H700 0.951 . S
C725 C723 1.388 . S
C725 C726 1.366 . S
C726 C725 1.366 . S
C726 C727 1.414 . S
C726 C729 1.499 . S
C727 H701 0.950 . S
C727 C726 1.414 . S
C727 C728 1.374 . S
C728 H702 0.950 . S
C728 C724 1.385 . S
C728 C727 1.374 . S
C729 C726 1.499 . S
C729 C730 1.373 . S
C729 C731 1.389 . S
C730 H703 0.950 . S
C730 C716 1.377 . S
C730 C729 1.373 . S
C731 C715 1.377 . S
C731 C729 1.389 . S
C731 C732 1.524 . S
C732 C731 1.524 . S
C732 C733 1.397 . S
C732 C737 1.363 . S
C733 H704 0.950 . S
C733 C732 1.397 . S
C733 C734 1.334 . S
C734 H705 0.950 . S
C734 C733 1.334 . S
C734 C735 1.287 . S
C735 C734 1.287 . S
C735 C736 1.524 . S
C735 H738 0.999 . S
C736 H706 0.950 . S
C736 C735 1.524 . S
C736 C737 1.415 . S
C737 H707 0.950 . S
C737 C732 1.363 . S
C737 C736 1.415 . S
H738 C735 0.999 . S
H739 C720 0.913 . S
H740 C758 0.951 . S
H741 C760 0.951 . S
H742 C762 0.950 1_556 S
H743 C763 0.950 . S
H744 C765 0.950 . S
H745 C768 0.950 . S
H746 C769 0.950 . S
H747 C771 0.950 . S
H748 C772 0.950 . S
H749 C773 0.951 . S
H750 C775 0.951 . S
H751 C777 0.950 . S
H752 C778 0.950 . S
H753 C780 0.950 . S
H754 C783 0.950 . S
H755 C784 0.950 . S
H756 C786 0.950 . S
H757 C787 0.950 . S
C758 H740 0.951 . S
C758 C759 1.366 . S
C758 C760 1.388 . S
C759 C758 1.366 . S
C759 C763 1.385 . S
C760 H741 0.951 . S
C760 C758 1.388 . S
C760 C761 1.366 . S
C761 C760 1.366 . S
C761 C762 1.414 . S
C761 C764 1.499 1_554 S
C762 H742 0.950 1_554 S
C762 C761 1.414 . S
C762 C763 1.374 . S
C763 H743 0.950 . S
C763 C759 1.385 . S
C763 C762 1.374 . S
C764 C761 1.499 1_556 S
C764 C765 1.373 . S
C764 C766 1.389 . S
C765 H744 0.950 . S
C765 C764 1.373 . S
C765 C781 1.377 . S
C766 C764 1.389 . S
C766 C767 1.524 1_556 S
C766 C780 1.377 . S
C767 C766 1.524 1_554 S
C767 C768 1.397 . S
C767 C772 1.363 . S
C768 H745 0.950 . S
C768 C767 1.397 . S
C768 C769 1.334 . S
C769 H746 0.950 . S
C769 C768 1.334 . S
C769 C770 1.287 . S
C770 C769 1.287 . S
C770 C771 1.524 . S
C770 H789 0.913 . S
C771 H747 0.950 . S
C771 C770 1.524 . S
C771 C772 1.415 . S
C772 H748 0.950 . S
C772 C767 1.363 . S
C772 C771 1.415 . S
C773 H749 0.951 . S
C773 C774 1.366 . S
C773 C775 1.388 . S
C774 C773 1.366 . S
C774 C778 1.385 . S
C775 H750 0.951 . S
C775 C773 1.388 . S
C775 C776 1.366 . S
C776 C775 1.366 . S
C776 C777 1.414 . S
C776 C779 1.499 . S
C777 H751 0.950 . S
C777 C776 1.414 . S
C777 C778 1.374 . S
C778 H752 0.950 . S
C778 C774 1.385 . S
C778 C777 1.374 . S
C779 C776 1.499 . S
C779 C780 1.373 . S
C779 C781 1.389 . S
C780 H753 0.950 . S
C780 C766 1.377 . S
C780 C779 1.373 . S
C781 C765 1.377 . S
C781 C779 1.389 . S
C781 C782 1.524 . S
C782 C781 1.524 . S
C782 C783 1.397 . S
C782 C787 1.363 . S
C783 H754 0.950 . S
C783 C782 1.397 . S
C783 C784 1.334 . S
C784 H755 0.950 . S
C784 C783 1.334 . S
C784 C785 1.287 . S
C785 C784 1.287 . S
C785 C786 1.524 . S
C785 H788 0.999 . S
C786 H756 0.950 . S
C786 C785 1.524 . S
C786 C787 1.415 . S
C787 H757 0.950 . S
C787 C782 1.363 . S
C787 C786 1.415 . S
H788 C785 0.999 . S
H789 C770 0.913 . S
H790 C808 0.951 . S
H791 C810 0.951 1_556 S
H792 C812 0.950 . S
H793 C813 0.950 . S
H794 C815 0.950 1_554 S
H795 C818 0.950 . S
H796 C819 0.950 . S
H797 C821 0.950 . S
H798 C822 0.950 . S
H799 C823 0.951 . S
H800 C825 0.951 . S
H801 C827 0.950 1_455 S
H802 C828 0.950 . S
H803 C830 0.950 . S
H804 C833 0.950 1_455 S
H805 C834 0.950 . S
H806 C836 0.950 . S
H807 C837 0.950 . S
C808 H790 0.951 . S
C808 C809 1.366 . S
C808 C810 1.388 . S
C809 C808 1.366 . S
C809 C813 1.385 . S
C810 H791 0.951 1_554 S
C810 C808 1.388 . S
C810 C811 1.366 . S
C811 C810 1.366 . S
C811 C812 1.414 . S
C811 C814 1.499 1_554 S
C812 H792 0.950 . S
C812 C811 1.414 . S
C812 C813 1.374 . S
C813 H793 0.950 . S
C813 C809 1.385 . S
C813 C812 1.374 . S
C814 C811 1.499 1_556 S
C814 C815 1.373 . S
C814 C816 1.389 . S
C815 H794 0.950 1_556 S
C815 C814 1.373 . S
C815 C831 1.377 . S
C816 C814 1.389 . S
C816 C817 1.524 . S
C816 C830 1.377 . S
C817 C816 1.524 . S
C817 C818 1.397 . S
C817 C822 1.363 . S
C818 H795 0.950 . S
C818 C817 1.397 . S
C818 C819 1.334 . S
C819 H796 0.950 . S
C819 C818 1.334 . S
C819 C820 1.287 . S
C820 C819 1.287 . S
C820 C821 1.524 . S
C820 H839 0.913 . S
C821 H797 0.950 . S
C821 C820 1.524 . S
C821 C822 1.415 . S
C822 H798 0.950 . S
C822 C817 1.363 . S
C822 C821 1.415 . S
C823 H799 0.951 . S
C823 C824 1.366 . S
C823 C825 1.388 . S
C824 C823 1.366 . S
C824 C828 1.385 1_655 S
C825 H800 0.951 . S
C825 C823 1.388 . S
C825 C826 1.366 . S
C826 C825 1.366 . S
C826 C827 1.414 . S
C826 C829 1.499 . S
C827 H801 0.950 1_655 S
C827 C826 1.414 . S
C827 C828 1.374 1_655 S
C828 H802 0.950 . S
C828 C824 1.385 1_455 S
C828 C827 1.374 1_455 S
C829 C826 1.499 . S
C829 C830 1.373 . S
C829 C831 1.389 . S
C830 H803 0.950 . S
C830 C816 1.377 . S
C830 C829 1.373 . S
C831 C815 1.377 . S
C831 C829 1.389 . S
C831 C832 1.524 . S
C832 C831 1.524 . S
C832 C833 1.397 . S
C832 C837 1.363 1_556 S
C833 H804 0.950 1_655 S
C833 C832 1.397 . S
C833 C834 1.334 1_655 S
C834 H805 0.950 . S
C834 C833 1.334 1_455 S
C834 C835 1.287 1_456 S
C835 C834 1.287 1_654 S
C835 C836 1.524 . S
C835 H838 0.999 . S
C836 H806 0.950 . S
C836 C835 1.524 . S
C836 C837 1.415 . S
C837 H807 0.950 . S
C837 C832 1.363 1_554 S
C837 C836 1.415 . S
H838 C835 0.999 . S
H839 C820 0.913 . S
H840 C858 0.951 . S
H841 C860 0.951 . S
H842 C862 0.950 . S
H843 C863 0.950 . S
H844 C865 0.950 . S
H845 C868 0.950 . S
H846 C869 0.950 . S
H847 C871 0.950 . S
H848 C872 0.950 . S
H849 C873 0.987 . S
H850 C875 0.970 . S
H851 C877 0.950 . S
H852 C878 0.950 . S
H853 C880 0.950 . S
H854 C883 0.950 . S
H855 C884 0.950 . S
H856 C886 0.950 . S
H857 C887 0.950 . S
C858 H840 0.951 . S
C858 C859 1.366 . S
C858 C860 1.388 . S
C859 C858 1.366 . S
C859 C863 1.385 . S
C860 H841 0.951 . S
C860 C858 1.388 . S
C860 C861 1.366 . S
C861 C860 1.366 . S
C861 C862 1.414 . S
C861 C864 1.499 . S
C862 H842 0.950 . S
C862 C861 1.414 . S
C862 C863 1.374 . S
C863 H843 0.950 . S
C863 C859 1.385 . S
C863 C862 1.374 . S
C864 C861 1.499 . S
C864 C865 1.373 . S
C864 C866 1.389 . S
C865 H844 0.950 . S
C865 C864 1.373 . S
C865 C881 1.377 . S
C866 C864 1.389 . S
C866 C867 1.524 . S
C866 C880 1.377 . S
C867 C866 1.524 . S
C867 C868 1.397 . S
C867 C872 1.363 . S
C868 H845 0.950 . S
C868 C867 1.397 . S
C868 C869 1.334 1_554 S
C869 H846 0.950 . S
C869 C868 1.334 1_556 S
C869 C870 1.287 . S
C870 C869 1.287 . S
C870 C871 1.524 . S
C870 H889 0.913 . S
C871 H847 0.950 . S
C871 C870 1.524 . S
C871 C872 1.415 1_556 S
C872 H848 0.950 . S
C872 C867 1.363 . S
C872 C871 1.415 1_554 S
C873 H849 0.987 . S
C873 C874 1.348 1_655 S
C873 C875 1.372 1_655 S
C874 C873 1.348 1_455 S
C874 C878 1.385 . S
C875 H850 0.970 . S
C875 C873 1.372 1_455 S
C875 C876 1.366 . S
C876 C875 1.366 . S
C876 C877 1.414 . S
C876 C879 1.499 . S
C877 H851 0.950 . S
C877 C876 1.414 . S
C877 C878 1.374 . S
C878 H852 0.950 . S
C878 C874 1.385 . S
C878 C877 1.374 . S
C879 C876 1.499 . S
C879 C880 1.373 . S
C879 C881 1.389 . S
C880 H853 0.950 . S
C880 C866 1.377 . S
C880 C879 1.373 . S
C881 C865 1.377 . S
C881 C879 1.389 . S
C881 C882 1.524 . S
C882 C881 1.524 . S
C882 C883 1.397 . S
C882 C887 1.363 . S
C883 H854 0.950 . S
C883 C882 1.397 . S
C883 C884 1.334 . S
C884 H855 0.950 . S
C884 C883 1.334 . S
C884 C885 1.287 . S
C885 C884 1.287 . S
C885 C886 1.524 . S
C885 H888 0.999 . S
C886 H856 0.950 . S
C886 C885 1.524 . S
C886 C887 1.415 . S
C887 H857 0.950 . S
C887 C882 1.363 . S
C887 C886 1.415 . S
H888 C885 0.999 . S
H889 C870 0.913 . S
H890 C908 0.951 . S
H891 C910 0.951 . S
H892 C912 0.950 . S
H893 C913 0.950 . S
H894 C915 0.950 . S
H895 C918 0.950 . S
H896 C919 0.950 . S
H897 C921 0.950 . S
H898 C922 0.950 . S
H899 C923 0.951 1_565 S
H900 C925 0.951 . S
H901 C927 0.950 . S
H902 C928 0.950 . S
H903 C930 0.950 . S
H904 C933 0.950 . S
H905 C934 0.950 . S
H906 C936 0.950 . S
H907 C937 0.950 . S
C908 H890 0.951 . S
C908 C909 1.366 . S
C908 C910 1.388 . S
C909 C908 1.366 . S
C909 C913 1.385 . S
C910 H891 0.951 . S
C910 C908 1.388 . S
C910 C911 1.366 . S
C911 C910 1.366 . S
C911 C912 1.414 . S
C911 C914 1.499 . S
C912 H892 0.950 . S
C912 C911 1.414 . S
C912 C913 1.374 . S
C913 H893 0.950 . S
C913 C909 1.385 . S
C913 C912 1.374 . S
C914 C911 1.499 . S
C914 C915 1.373 . S
C914 C916 1.389 . S
C915 H894 0.950 . S
C915 C914 1.373 . S
C915 C931 1.377 . S
C916 C914 1.389 . S
C916 C917 1.524 . S
C916 C930 1.377 . S
C917 C916 1.524 . S
C917 C918 1.397 . S
C917 C922 1.363 . S
C918 H895 0.950 . S
C918 C917 1.397 . S
C918 C919 1.334 1_554 S
C919 H896 0.950 . S
C919 C918 1.334 1_556 S
C919 C920 1.287 . S
C920 C919 1.287 . S
C920 C921 1.524 . S
C920 H939 0.913 . S
C921 H897 0.950 . S
C921 C920 1.524 . S
C921 C922 1.415 1_556 S
C922 H898 0.950 . S
C922 C917 1.363 . S
C922 C921 1.415 1_554 S
C923 H899 0.951 1_545 S
C923 C924 1.366 . S
C923 C925 1.388 . S
C924 C923 1.366 . S
C924 C928 1.385 . S
C925 H900 0.951 . S
C925 C923 1.388 . S
C925 C926 1.366 . S
C926 C925 1.366 . S
C926 C927 1.414 . S
C926 C929 1.499 . S
C927 H901 0.950 . S
C927 C926 1.414 . S
C927 C928 1.374 . S
C928 H902 0.950 . S
C928 C924 1.385 . S
C928 C927 1.374 . S
C929 C926 1.499 . S
C929 C930 1.373 . S
C929 C931 1.389 . S
C930 H903 0.950 . S
C930 C916 1.377 . S
C930 C929 1.373 . S
C931 C915 1.377 . S
C931 C929 1.389 . S
C931 C932 1.524 . S
C932 C931 1.524 . S
C932 C933 1.397 . S
C932 C937 1.363 . S
C933 H904 0.950 . S
C933 C932 1.397 . S
C933 C934 1.334 . S
C934 H905 0.950 . S
C934 C933 1.334 . S
C934 C935 1.287 . S
C935 C934 1.287 . S
C935 C936 1.524 . S
C935 H938 0.999 . S
C936 H906 0.950 . S
C936 C935 1.524 . S
C936 C937 1.415 . S
C937 H907 0.950 . S
C937 C932 1.363 . S
C937 C936 1.415 . S
H938 C935 0.999 . S
H939 C920 0.913 . S
H940 C958 0.951 . S
H941 C960 0.951 . S
H942 C962 0.950 . S
H943 C963 0.950 . S
H944 C965 0.950 . S
H945 C968 0.950 . S
H946 C969 0.950 . S
H947 C971 0.950 . S
H948 C972 0.950 . S
H949 C973 0.951 . S
H950 C975 0.951 . S
H951 C977 0.950 . S
H952 C978 0.950 . S
H953 C980 0.950 . S
H954 C983 0.950 . S
H955 C984 0.950 . S
H956 C986 0.950 . S
H957 C987 0.950 . S
C958 H940 0.951 . S
C958 C959 1.366 . S
C958 C960 1.388 . S
C959 C958 1.366 . S
C959 C963 1.385 . S
C960 H941 0.951 . S
C960 C958 1.388 . S
C960 C961 1.366 . S
C961 C960 1.366 . S
C961 C962 1.414 . S
C961 C964 1.499 . S
C962 H942 0.950 . S
C962 C961 1.414 . S
C962 C963 1.374 . S
C963 H943 0.950 . S
C963 C959 1.385 . S
C963 C962 1.374 . S
C964 C961 1.499 . S
C964 C965 1.373 . S
C964 C966 1.389 . S
C965 H944 0.950 . S
C965 C964 1.373 . S
C965 C981 1.377 . S
C966 C964 1.389 . S
C966 C967 1.524 . S
C966 C980 1.377 . S
C967 C966 1.524 . S
C967 C968 1.397 . S
C967 C972 1.363 . S
C968 H945 0.950 . S
C968 C967 1.397 . S
C968 C969 1.334 . S
C969 H946 0.950 . S
C969 C968 1.334 . S
C969 C970 1.287 . S
C970 C969 1.287 . S
C970 C971 1.524 . S
C970 H989 0.913 . S
C971 H947 0.950 . S
C971 C970 1.524 . S
C971 C972 1.415 . S
C972 H948 0.950 . S
C972 C967 1.363 . S
C972 C971 1.415 . S
C973 H949 0.951 . S
C973 C974 1.366 . S
C973 C975 1.388 . S
C974 C973 1.366 . S
C974 C978 1.385 . S
C975 H950 0.951 . S
C975 C973 1.388 . S
C975 C976 1.366 . S
C976 C975 1.366 . S
C976 C977 1.414 . S
C976 C979 1.499 . S
C977 H951 0.950 . S
C977 C976 1.414 . S
C977 C978 1.374 . S
C978 H952 0.950 . S
C978 C974 1.385 . S
C978 C977 1.374 . S
C979 C976 1.499 . S
C979 C980 1.373 . S
C979 C981 1.389 . S
C980 H953 0.950 . S
C980 C966 1.377 . S
C980 C979 1.373 . S
C981 C965 1.377 . S
C981 C979 1.389 . S
C981 C982 1.524 . S
C982 C981 1.524 . S
C982 C983 1.397 . S
C982 C987 1.363 . S
C983 H954 0.950 . S
C983 C982 1.397 . S
C983 C984 1.334 . S
C984 H955 0.950 . S
C984 C983 1.334 . S
C984 C985 1.287 . S
C985 C984 1.287 . S
C985 C986 1.524 . S
C985 H988 0.999 . S
C986 H956 0.950 . S
C986 C985 1.524 . S
C986 C987 1.415 . S
C987 H957 0.950 . S
C987 C982 1.363 . S
C987 C986 1.415 . S
H988 C985 0.999 . S
H989 C970 0.913 . S
H990 C1008 0.951 . S
H991 C1010 0.951 . S
H992 C1012 0.950 . S
H993 C1013 0.950 . S
H994 C1015 0.950 . S
H995 C1018 0.950 . S
H996 C1019 0.950 . S
H997 C1021 0.950 . S
H998 C1022 0.950 . S
H999 C1023 0.951 . S
H1000 C1025 0.951 . S
H1001 C1027 0.950 . S
H1002 C1028 0.950 . S
H1003 C1030 0.950 . S
H1004 C1033 0.950 . S
H1005 C1034 0.950 . S
H1006 C1036 0.950 1_556 S
H1007 C1037 0.950 . S
C1008 H990 0.951 . S
C1008 C1009 1.366 . S
C1008 C1010 1.388 . S
C1009 C1008 1.366 . S
C1009 C1013 1.385 . S
C1010 H991 0.951 . S
C1010 C1008 1.388 . S
C1010 C1011 1.366 . S
C1011 C1010 1.366 . S
C1011 C1012 1.414 . S
C1011 C1014 1.499 . S
C1012 H992 0.950 . S
C1012 C1011 1.414 . S
C1012 C1013 1.374 . S
C1013 H993 0.950 . S
C1013 C1009 1.385 . S
C1013 C1012 1.374 . S
C1014 C1011 1.499 . S
C1014 C1015 1.373 . S
C1014 C1016 1.389 . S
C1015 H994 0.950 . S
C1015 C1014 1.373 . S
C1015 C1031 1.377 . S
C1016 C1014 1.389 . S
C1016 C1017 1.524 . S
C1016 C1030 1.377 . S
C1017 C1016 1.524 . S
C1017 C1018 1.397 . S
C1017 C1022 1.363 . S
C1018 H995 0.950 . S
C1018 C1017 1.397 . S
C1018 C1019 1.334 . S
C1019 H996 0.950 . S
C1019 C1018 1.334 . S
C1019 C1020 1.287 . S
C1020 C1019 1.287 . S
C1020 C1021 1.524 . S
C1020 H1039 0.913 . S
C1021 H997 0.950 . S
C1021 C1020 1.524 . S
C1021 C1022 1.415 . S
C1022 H998 0.950 . S
C1022 C1017 1.363 . S
C1022 C1021 1.415 . S
C1023 H999 0.951 . S
C1023 C1024 1.366 . S
C1023 C1025 1.388 . S
C1024 C1023 1.366 . S
C1024 C1028 1.385 . S
C1025 H1000 0.951 . S
C1025 C1023 1.388 . S
C1025 C1026 1.366 . S
C1026 C1025 1.366 . S
C1026 C1027 1.414 . S
C1026 C1029 1.499 . S
C1027 H1001 0.950 . S
C1027 C1026 1.414 . S
C1027 C1028 1.374 . S
C1028 H1002 0.950 . S
C1028 C1024 1.385 . S
C1028 C1027 1.374 . S
C1029 C1026 1.499 . S
C1029 C1030 1.373 . S
C1029 C1031 1.389 . S
C1030 H1003 0.950 . S
C1030 C1016 1.377 . S
C1030 C1029 1.373 . S
C1031 C1015 1.377 . S
C1031 C1029 1.389 . S
C1031 C1032 1.524 . S
C1032 C1031 1.524 . S
C1032 C1033 1.397 . S
C1032 C1037 1.363 . S
C1033 H1004 0.950 . S
C1033 C1032 1.397 . S
C1033 C1034 1.334 . S
C1034 H1005 0.950 . S
C1034 C1033 1.334 . S
C1034 C1035 1.287 . S
C1035 C1034 1.287 . S
C1035 C1036 1.524 . S
C1035 H1038 0.999 . S
C1036 H1006 0.950 1_554 S
C1036 C1035 1.524 . S
C1036 C1037 1.415 . S
C1037 H1007 0.950 . S
C1037 C1032 1.363 . S
C1037 C1036 1.415 . S
H1038 C1035 0.999 . S
H1039 C1020 0.913 . S
H1040 C1058 0.951 . S
H1041 C1060 0.951 . S
H1042 C1062 0.950 . S
H1043 C1063 0.950 . S
H1044 C1065 0.950 . S
H1045 C1068 0.950 . S
H1046 C1069 0.950 . S
H1047 C1071 0.916 1_455 S
H1048 C1072 0.950 1_455 S
H1049 C1073 0.951 . S
H1050 C1075 0.951 . S
H1051 C1077 0.950 . S
H1052 C1078 0.950 . S
H1053 C1080 0.950 . S
H1054 C1083 0.950 1_455 S
H1055 C1084 0.950 1_455 S
H1056 C1086 0.950 . S
H1057 C1087 0.950 . S
C1058 H1040 0.951 . S
C1058 C1059 1.366 . S
C1058 C1060 1.388 . S
C1059 C1058 1.366 . S
C1059 C1063 1.385 . S
C1060 H1041 0.951 . S
C1060 C1058 1.388 . S
C1060 C1061 1.366 . S
C1061 C1060 1.366 . S
C1061 C1062 1.414 . S
C1061 C1064 1.499 . S
C1062 H1042 0.950 . S
C1062 C1061 1.414 . S
C1062 C1063 1.374 . S
C1063 H1043 0.950 . S
C1063 C1059 1.385 . S
C1063 C1062 1.374 . S
C1064 C1061 1.499 . S
C1064 C1065 1.373 1_554 S
C1064 C1066 1.389 . S
C1065 H1044 0.950 . S
C1065 C1064 1.373 1_556 S
C1065 C1081 1.377 . S
C1066 C1064 1.389 . S
C1066 C1067 1.524 . S
C1066 C1080 1.377 . S
C1067 C1066 1.524 . S
C1067 C1068 1.397 . S
C1067 C1072 1.363 . S
C1068 H1045 0.950 . S
C1068 C1067 1.397 . S
C1068 C1069 1.334 . S
C1069 H1046 0.950 . S
C1069 C1068 1.334 . S
C1069 C1070 1.287 . S
C1070 C1069 1.287 . S
C1070 C1071 1.524 . S
C1070 H1089 0.913 . S
C1071 H1047 0.916 1_655 S
C1071 C1070 1.524 . S
C1071 C1072 1.415 . S
C1072 H1048 0.950 1_655 S
C1072 C1067 1.363 . S
C1072 C1071 1.415 . S
C1073 H1049 0.951 . S
C1073 C1074 1.366 1_655 S
C1073 C1075 1.388 . S
C1074 C1073 1.366 1_455 S
C1074 C1078 1.385 . S
C1075 H1050 0.951 . S
C1075 C1073 1.388 . S
C1075 C1076 1.366 . S
C1076 C1075 1.366 . S
C1076 C1077 1.414 1_655 S
C1076 C1079 1.499 . S
C1077 H1051 0.950 . S
C1077 C1076 1.414 1_455 S
C1077 C1078 1.374 . S
C1078 H1052 0.950 . S
C1078 C1074 1.385 . S
C1078 C1077 1.374 . S
C1079 C1076 1.499 . S
C1079 C1080 1.373 1_556 S
C1079 C1081 1.389 . S
C1080 H1053 0.950 . S
C1080 C1066 1.377 . S
C1080 C1079 1.373 1_554 S
C1081 C1065 1.377 . S
C1081 C1079 1.389 . S
C1081 C1082 1.524 . S
C1082 C1081 1.524 . S
C1082 C1083 1.397 . S
C1082 C1087 1.363 . S
C1083 H1054 0.950 1_655 S
C1083 C1082 1.397 . S
C1083 C1084 1.334 . S
C1084 H1055 0.950 1_655 S
C1084 C1083 1.334 . S
C1084 C1085 1.287 . S
C1085 C1084 1.287 . S
C1085 C1086 1.524 . S
C1085 H1088 0.999 . S
C1086 H1056 0.950 . S
C1086 C1085 1.524 . S
C1086 C1087 1.415 . S
C1087 H1057 0.950 . S
C1087 C1082 1.363 . S
C1087 C1086 1.415 . S
H1088 C1085 0.999 . S
H1089 C1070 0.913 . S
H1090 C1108 0.951 . S
H1091 C1110 0.951 . S
H1092 C1112 0.950 . S
H1093 C1113 0.950 . S
H1094 C1115 0.950 . S
H1095 C1118 0.950 . S
H1096 C1119 0.950 . S
H1097 C1121 0.950 . S
H1098 C1122 0.950 1_556 S
H1099 C1123 0.951 . S
H1100 C1125 0.951 . S
H1101 C1127 0.950 . S
H1102 C1128 0.950 . S
H1103 C1130 1.007 . S
H1104 C1133 0.950 . S
H1105 C1134 0.950 . S
H1106 C1136 0.950 . S
H1107 C1137 0.950 1_554 S
C1108 H1090 0.951 . S
C1108 C1109 1.366 . S
C1108 C1110 1.388 . S
C1109 C1108 1.366 . S
C1109 C1113 1.385 . S
C1110 H1091 0.951 . S
C1110 C1108 1.388 . S
C1110 C1111 1.366 . S
C1111 C1110 1.366 . S
C1111 C1112 1.414 . S
C1111 C1114 1.499 . S
C1112 H1092 0.950 . S
C1112 C1111 1.414 . S
C1112 C1113 1.374 . S
C1113 H1093 0.950 . S
C1113 C1109 1.385 . S
C1113 C1112 1.374 . S
C1114 C1111 1.499 . S
C1114 C1115 1.373 . S
C1114 C1116 1.389 . S
C1115 H1094 0.950 . S
C1115 C1114 1.373 . S
C1115 C1131 1.377 1_554 S
C1116 C1114 1.389 . S
C1116 C1117 1.524 1_565 S
C1116 C1130 1.360 1_564 S
C1117 C1116 1.524 1_545 S
C1117 C1118 1.397 . S
C1117 C1122 1.363 . S
C1118 H1095 0.950 . S
C1118 C1117 1.397 . S
C1118 C1119 1.334 . S
C1119 H1096 0.950 . S
C1119 C1118 1.334 . S
C1119 C1120 1.287 . S
C1120 C1119 1.287 . S
C1120 C1121 1.524 . S
C1120 H1139 0.913 . S
C1121 H1097 0.950 . S
C1121 C1120 1.524 . S
C1121 C1122 1.415 . S
C1122 H1098 0.950 1_554 S
C1122 C1117 1.363 . S
C1122 C1121 1.415 . S
C1123 H1099 0.951 . S
C1123 C1124 1.366 1_565 S
C1123 C1125 1.388 . S
C1124 C1123 1.366 1_545 S
C1124 C1128 1.385 . S
C1125 H1100 0.951 . S
C1125 C1123 1.388 . S
C1125 C1126 1.366 . S
C1126 C1125 1.366 . S
C1126 C1127 1.414 1_565 S
C1126 C1129 1.499 . S
C1127 H1101 0.950 . S
C1127 C1126 1.414 1_545 S
C1127 C1128 1.374 . S
C1128 H1102 0.950 . S
C1128 C1124 1.385 . S
C1128 C1127 1.374 . S
C1129 C1126 1.499 . S
C1129 C1130 1.335 1_565 S
C1129 C1131 1.389 . S
C1130 H1103 1.007 . S
C1130 C1116 1.360 1_546 S
C1130 C1129 1.335 1_545 S
C1131 C1115 1.377 1_556 S
C1131 C1129 1.389 . S
C1131 C1132 1.524 . S
C1132 C1131 1.524 . S
C1132 C1133 1.397 . S
C1132 C1137 1.363 . S
C1133 H1104 0.950 . S
C1133 C1132 1.397 . S
C1133 C1134 1.334 . S
C1134 H1105 0.950 . S
C1134 C1133 1.334 . S
C1134 C1135 1.287 . S
C1135 C1134 1.287 . S
C1135 C1136 1.524 . S
C1135 H1138 0.999 . S
C1136 H1106 0.950 . S
C1136 C1135 1.524 . S
C1136 C1137 1.415 . S
C1137 H1107 0.950 1_556 S
C1137 C1132 1.363 . S
C1137 C1136 1.415 . S
H1138 C1135 0.999 . S
H1139 C1120 0.913 . S
H1140 C1158 0.951 . S
H1141 C1160 0.951 . S
H1142 C1162 0.950 . S
H1143 C1163 0.950 . S
H1144 C1165 0.950 . S
H1145 C1168 0.950 . S
H1146 C1169 0.950 . S
H1147 C1171 0.950 . S
H1148 C1172 0.950 . S
H1149 C1173 0.951 . S
H1150 C1175 0.951 . S
H1151 C1177 0.950 . S
H1152 C1178 0.950 . S
H1153 C1180 0.950 . S
H1154 C1183 0.950 . S
H1155 C1184 0.950 . S
H1156 C1186 0.950 . S
H1157 C1187 0.950 . S
C1158 H1140 0.951 . S
C1158 C1159 1.366 . S
C1158 C1160 1.388 . S
C1159 C1158 1.366 . S
C1159 C1163 1.385 . S
C1160 H1141 0.951 . S
C1160 C1158 1.388 . S
C1160 C1161 1.366 . S
C1161 C1160 1.366 . S
C1161 C1162 1.414 . S
C1161 C1164 1.499 . S
C1162 H1142 0.950 . S
C1162 C1161 1.414 . S
C1162 C1163 1.374 . S
C1163 H1143 0.950 . S
C1163 C1159 1.385 . S
C1163 C1162 1.374 . S
C1164 C1161 1.499 . S
C1164 C1165 1.373 . S
C1164 C1166 1.389 1_554 S
C1165 H1144 0.950 . S
C1165 C1164 1.373 . S
C1165 C1181 1.377 . S
C1166 C1164 1.389 1_556 S
C1166 C1167 1.524 . S
C1166 C1180 1.377 . S
C1167 C1166 1.524 . S
C1167 C1168 1.397 . S
C1167 C1172 1.363 . S
C1168 H1145 0.950 . S
C1168 C1167 1.397 . S
C1168 C1169 1.334 . S
C1169 H1146 0.950 . S
C1169 C1168 1.334 . S
C1169 C1170 1.287 . S
C1170 C1169 1.287 . S
C1170 C1171 1.524 . S
C1170 H1189 0.913 . S
C1171 H1147 0.950 . S
C1171 C1170 1.524 . S
C1171 C1172 1.415 . S
C1172 H1148 0.950 . S
C1172 C1167 1.363 . S
C1172 C1171 1.415 . S
C1173 H1149 0.951 . S
C1173 C1174 1.366 . S
C1173 C1175 1.388 . S
C1174 C1173 1.366 . S
C1174 C1178 1.385 . S
C1175 H1150 0.951 . S
C1175 C1173 1.388 . S
C1175 C1176 1.366 . S
C1176 C1175 1.366 . S
C1176 C1177 1.414 . S
C1176 C1179 1.499 . S
C1177 H1151 0.950 . S
C1177 C1176 1.414 . S
C1177 C1178 1.374 . S
C1178 H1152 0.950 . S
C1178 C1174 1.385 . S
C1178 C1177 1.374 . S
C1179 C1176 1.499 . S
C1179 C1180 1.373 . S
C1179 C1181 1.389 1_556 S
C1180 H1153 0.950 . S
C1180 C1166 1.377 . S
C1180 C1179 1.373 . S
C1181 C1165 1.377 . S
C1181 C1179 1.389 1_554 S
C1181 C1182 1.524 . S
C1182 C1181 1.524 . S
C1182 C1183 1.397 . S
C1182 C1187 1.363 . S
C1183 H1154 0.950 . S
C1183 C1182 1.397 . S
C1183 C1184 1.334 . S
C1184 H1155 0.950 . S
C1184 C1183 1.334 . S
C1184 C1185 1.287 . S
C1185 C1184 1.287 . S
C1185 C1186 1.524 . S
C1185 H1188 0.999 . S
C1186 H1156 0.950 . S
C1186 C1185 1.524 . S
C1186 C1187 1.415 . S
C1187 H1157 0.950 . S
C1187 C1182 1.363 . S
C1187 C1186 1.415 . S
H1188 C1185 0.999 . S
H1189 C1170 0.913 . S
H1190 C1208 0.951 . S
H1191 C1210 0.951 1_556 S
H1192 C1212 0.950 . S
H1193 C1213 0.950 . S
H1194 C1215 0.950 . S
H1195 C1218 0.950 1_554 S
H1196 C1219 0.950 . S
H1197 C1221 0.950 . S
H1198 C1222 0.950 . S
H1199 C1223 0.951 . S
H1200 C1225 0.951 1_554 S
H1201 C1227 0.950 . S
H1202 C1228 0.950 . S
H1203 C1230 0.950 . S
H1204 C1233 0.950 . S
H1205 C1234 0.950 . S
H1206 C1236 0.950 . S
H1207 C1237 0.950 . S
C1208 H1190 0.951 . S
C1208 C1209 1.366 . S
C1208 C1210 1.388 . S
C1209 C1208 1.366 . S
C1209 C1213 1.385 . S
C1210 H1191 0.951 1_554 S
C1210 C1208 1.388 . S
C1210 C1211 1.366 . S
C1211 C1210 1.366 . S
C1211 C1212 1.414 . S
C1211 C1214 1.499 . S
C1212 H1192 0.950 . S
C1212 C1211 1.414 . S
C1212 C1213 1.374 . S
C1213 H1193 0.950 . S
C1213 C1209 1.385 . S
C1213 C1212 1.374 . S
C1214 C1211 1.499 . S
C1214 C1215 1.373 . S
C1214 C1216 1.389 1_554 S
C1215 H1194 0.950 . S
C1215 C1214 1.373 . S
C1215 C1231 1.377 . S
C1216 C1214 1.389 1_556 S
C1216 C1217 1.524 . S
C1216 C1230 1.377 . S
C1217 C1216 1.524 . S
C1217 C1218 1.397 . S
C1217 C1222 1.363 . S
C1218 H1195 0.950 1_556 S
C1218 C1217 1.397 . S
C1218 C1219 1.334 . S
C1219 H1196 0.950 . S
C1219 C1218 1.334 . S
C1219 C1220 1.287 . S
C1220 C1219 1.287 . S
C1220 C1221 1.524 . S
C1220 H1239 0.913 . S
C1221 H1197 0.950 . S
C1221 C1220 1.524 . S
C1221 C1222 1.415 . S
C1222 H1198 0.950 . S
C1222 C1217 1.363 . S
C1222 C1221 1.415 . S
C1223 H1199 0.951 . S
C1223 C1224 1.366 . S
C1223 C1225 1.388 . S
C1224 C1223 1.366 . S
C1224 C1228 1.385 . S
C1225 H1200 0.951 1_556 S
C1225 C1223 1.388 . S
C1225 C1226 1.366 . S
C1226 C1225 1.366 . S
C1226 C1227 1.414 . S
C1226 C1229 1.499 . S
C1227 H1201 0.950 . S
C1227 C1226 1.414 . S
C1227 C1228 1.374 . S
C1228 H1202 0.950 . S
C1228 C1224 1.385 . S
C1228 C1227 1.374 . S
C1229 C1226 1.499 . S
C1229 C1230 1.373 . S
C1229 C1231 1.389 1_556 S
C1230 H1203 0.950 . S
C1230 C1216 1.377 . S
C1230 C1229 1.373 . S
C1231 C1215 1.377 . S
C1231 C1229 1.389 1_554 S
C1231 C1232 1.524 . S
C1232 C1231 1.524 . S
C1232 C1233 1.397 . S
C1232 C1237 1.363 . S
C1233 H1204 0.950 . S
C1233 C1232 1.397 . S
C1233 C1234 1.334 . S
C1234 H1205 0.950 . S
C1234 C1233 1.334 . S
C1234 C1235 1.287 . S
C1235 C1234 1.287 . S
C1235 C1236 1.524 . S
C1235 H1238 0.999 . S
C1236 H1206 0.950 . S
C1236 C1235 1.524 . S
C1236 C1237 1.415 . S
C1237 H1207 0.950 . S
C1237 C1232 1.363 . S
C1237 C1236 1.415 . S
H1238 C1235 0.999 . S
H1239 C1220 0.913 . S
H1240 C1258 0.951 . S
H1241 C1260 0.951 . S
H1242 C1262 0.950 . S
H1243 C1263 0.950 . S
H1244 C1265 0.950 . S
H1245 C1268 0.950 . S
H1246 C1269 0.950 . S
H1247 C1271 0.950 1_554 S
H1248 C1272 0.950 . S
H1249 C1273 0.951 . S
H1250 C1275 0.951 . S
H1251 C1277 0.950 . S
H1252 C1278 0.950 . S
H1253 C1280 0.950 . S
H1254 C1283 0.950 . S
H1255 C1284 0.950 . S
H1256 C1286 0.950 . S
H1257 C1287 0.950 . S
C1258 H1240 0.951 . S
C1258 C1259 1.366 . S
C1258 C1260 1.388 . S
C1259 C1258 1.366 . S
C1259 C1263 1.385 . S
C1260 H1241 0.951 . S
C1260 C1258 1.388 . S
C1260 C1261 1.366 . S
C1261 C1260 1.366 . S
C1261 C1262 1.414 . S
C1261 C1264 1.499 . S
C1262 H1242 0.950 . S
C1262 C1261 1.414 . S
C1262 C1263 1.374 . S
C1263 H1243 0.950 . S
C1263 C1259 1.385 . S
C1263 C1262 1.374 . S
C1264 C1261 1.499 . S
C1264 C1265 1.373 . S
C1264 C1266 1.389 . S
C1265 H1244 0.950 . S
C1265 C1264 1.373 . S
C1265 C1281 1.377 . S
C1266 C1264 1.389 . S
C1266 C1267 1.524 . S
C1266 C1280 1.377 . S
C1267 C1266 1.524 . S
C1267 C1268 1.397 . S
C1267 C1272 1.363 . S
C1268 H1245 0.950 . S
C1268 C1267 1.397 . S
C1268 C1269 1.334 . S
C1269 H1246 0.950 . S
C1269 C1268 1.334 . S
C1269 C1270 1.287 . S
C1270 C1269 1.287 . S
C1270 C1271 1.524 . S
C1270 H1289 0.913 . S
C1271 H1247 0.950 1_556 S
C1271 C1270 1.524 . S
C1271 C1272 1.415 . S
C1272 H1248 0.950 . S
C1272 C1267 1.363 . S
C1272 C1271 1.415 . S
C1273 H1249 0.951 . S
C1273 C1274 1.366 . S
C1273 C1275 1.388 . S
C1274 C1273 1.366 . S
C1274 C1278 1.385 . S
C1275 H1250 0.951 . S
C1275 C1273 1.388 . S
C1275 C1276 1.366 . S
C1276 C1275 1.366 . S
C1276 C1277 1.414 . S
C1276 C1279 1.499 . S
C1277 H1251 0.950 . S
C1277 C1276 1.414 . S
C1277 C1278 1.374 . S
C1278 H1252 0.950 . S
C1278 C1274 1.385 . S
C1278 C1277 1.374 . S
C1279 C1276 1.499 . S
C1279 C1280 1.373 . S
C1279 C1281 1.389 . S
C1280 H1253 0.950 . S
C1280 C1266 1.377 . S
C1280 C1279 1.373 . S
C1281 C1265 1.377 . S
C1281 C1279 1.389 . S
C1281 C1282 1.524 . S
C1282 C1281 1.524 . S
C1282 C1283 1.397 1_455 S
C1282 C1287 1.363 . S
C1283 H1254 0.950 . S
C1283 C1282 1.397 1_655 S
C1283 C1284 1.334 . S
C1284 H1255 0.950 . S
C1284 C1283 1.334 . S
C1284 C1285 1.287 . S
C1285 C1284 1.287 . S
C1285 C1286 1.524 . S
C1285 H1288 0.999 . S
C1286 H1256 0.950 . S
C1286 C1285 1.524 . S
C1286 C1287 1.415 1_655 S
C1287 H1257 0.950 . S
C1287 C1282 1.363 . S
C1287 C1286 1.415 1_455 S
H1288 C1285 0.999 . S
H1289 C1270 0.913 . S
H1290 C1308 0.951 . S
H1291 C1310 0.951 . S
H1292 C1312 0.950 . S
H1293 C1313 0.950 . S
H1294 C1315 0.950 . S
H1295 C1318 0.950 . S
H1296 C1319 0.950 . S
H1297 C1321 0.950 . S
H1298 C1322 0.963 . S
H1299 C1323 0.951 . S
H1300 C1325 0.951 . S
H1301 C1327 0.950 . S
H1302 C1328 0.950 . S
H1303 C1330 0.950 . S
H1304 C1333 0.950 . S
H1305 C1334 0.950 . S
H1306 C1336 0.950 . S
H1307 C1337 0.950 . S
C1308 H1290 0.951 . S
C1308 C1309 1.366 . S
C1308 C1310 1.388 . S
C1309 C1308 1.366 . S
C1309 C1313 1.385 . S
C1310 H1291 0.951 . S
C1310 C1308 1.388 . S
C1310 C1311 1.366 . S
C1311 C1310 1.366 . S
C1311 C1312 1.414 . S
C1311 C1314 1.499 . S
C1312 H1292 0.950 . S
C1312 C1311 1.414 . S
C1312 C1313 1.374 . S
C1313 H1293 0.950 . S
C1313 C1309 1.385 . S
C1313 C1312 1.374 . S
C1314 C1311 1.499 . S
C1314 C1315 1.373 . S
C1314 C1316 1.389 . S
C1315 H1294 0.950 . S
C1315 C1314 1.373 . S
C1315 C1331 1.377 . S
C1316 C1314 1.389 . S
C1316 C1317 1.524 . S
C1316 C1330 1.377 . S
C1317 C1316 1.524 . S
C1317 C1318 1.397 . S
C1317 C1322 1.379 . S
C1318 H1295 0.950 . S
C1318 C1317 1.397 . S
C1318 C1319 1.334 1_545 S
C1319 H1296 0.950 . S
C1319 C1318 1.334 1_565 S
C1319 C1320 1.287 . S
C1320 C1319 1.287 . S
C1320 C1321 1.524 . S
C1320 H1339 0.913 . S
C1321 H1297 0.950 . S
C1321 C1320 1.524 . S
C1321 C1322 1.387 1_565 S
C1322 H1298 0.963 . S
C1322 C1317 1.379 . S
C1322 C1321 1.387 1_545 S
C1323 H1299 0.951 . S
C1323 C1324 1.366 . S
C1323 C1325 1.388 . S
C1324 C1323 1.366 . S
C1324 C1328 1.385 . S
C1325 H1300 0.951 . S
C1325 C1323 1.388 . S
C1325 C1326 1.366 . S
C1326 C1325 1.366 . S
C1326 C1327 1.414 . S
C1326 C1329 1.499 . S
C1327 H1301 0.950 . S
C1327 C1326 1.414 . S
C1327 C1328 1.374 . S
C1328 H1302 0.950 . S
C1328 C1324 1.385 . S
C1328 C1327 1.374 . S
C1329 C1326 1.499 . S
C1329 C1330 1.373 . S
C1329 C1331 1.389 . S
C1330 H1303 0.950 . S
C1330 C1316 1.377 . S
C1330 C1329 1.373 . S
C1331 C1315 1.377 . S
C1331 C1329 1.389 . S
C1331 C1332 1.524 . S
C1332 C1331 1.524 . S
C1332 C1333 1.397 . S
C1332 C1337 1.363 . S
C1333 H1304 0.950 . S
C1333 C1332 1.397 . S
C1333 C1334 1.334 . S
C1334 H1305 0.950 . S
C1334 C1333 1.334 . S
C1334 C1335 1.287 . S
C1335 C1334 1.287 . S
C1335 C1336 1.524 . S
C1335 H1338 0.999 . S
C1336 H1306 0.950 . S
C1336 C1335 1.524 . S
C1336 C1337 1.415 . S
C1337 H1307 0.950 . S
C1337 C1332 1.363 . S
C1337 C1336 1.415 . S
H1338 C1335 0.999 . S
H1339 C1320 0.913 . S
H1340 C1358 0.951 . S
H1341 C1360 0.951 . S
H1342 C1362 0.950 . S
H1343 C1363 0.950 . S
H1344 C1365 0.950 . S
H1345 C1368 0.950 . S
H1346 C1369 0.950 . S
H1347 C1371 0.950 . S
H1348 C1372 0.950 . S
H1349 C1373 0.951 . S
H1350 C1375 0.951 . S
H1351 C1377 0.950 . S
H1352 C1378 0.950 . S
H1353 C1380 0.950 . S
H1354 C1383 0.950 . S
H1355 C1384 0.950 . S
H1356 C1386 0.950 . S
H1357 C1387 0.950 . S
C1358 H1340 0.951 . S
C1358 C1359 1.366 . S
C1358 C1360 1.388 . S
C1359 C1358 1.366 . S
C1359 C1363 1.385 . S
C1360 H1341 0.951 . S
C1360 C1358 1.388 . S
C1360 C1361 1.366 . S
C1361 C1360 1.366 . S
C1361 C1362 1.414 . S
C1361 C1364 1.499 . S
C1362 H1342 0.950 . S
C1362 C1361 1.414 . S
C1362 C1363 1.374 . S
C1363 H1343 0.950 . S
C1363 C1359 1.385 . S
C1363 C1362 1.374 . S
C1364 C1361 1.499 . S
C1364 C1365 1.373 . S
C1364 C1366 1.389 . S
C1365 H1344 0.950 . S
C1365 C1364 1.373 . S
C1365 C1381 1.377 . S
C1366 C1364 1.389 . S
C1366 C1367 1.524 . S
C1366 C1380 1.377 . S
C1367 C1366 1.524 . S
C1367 C1368 1.397 . S
C1367 C1372 1.363 . S
C1368 H1345 0.950 . S
C1368 C1367 1.397 . S
C1368 C1369 1.334 1_556 S
C1369 H1346 0.950 . S
C1369 C1368 1.334 1_554 S
C1369 C1370 1.287 . S
C1370 C1369 1.287 . S
C1370 C1371 1.524 1_554 S
C1370 H1389 0.913 . S
C1371 H1347 0.950 . S
C1371 C1370 1.524 1_556 S
C1371 C1372 1.415 . S
C1372 H1348 0.950 . S
C1372 C1367 1.363 . S
C1372 C1371 1.415 . S
C1373 H1349 0.951 . S
C1373 C1374 1.366 . S
C1373 C1375 1.388 . S
C1374 C1373 1.366 . S
C1374 C1378 1.385 . S
C1375 H1350 0.951 . S
C1375 C1373 1.388 . S
C1375 C1376 1.366 . S
C1376 C1375 1.366 . S
C1376 C1377 1.414 . S
C1376 C1379 1.499 . S
C1377 H1351 0.950 . S
C1377 C1376 1.414 . S
C1377 C1378 1.374 . S
C1378 H1352 0.950 . S
C1378 C1374 1.385 . S
C1378 C1377 1.374 . S
C1379 C1376 1.499 . S
C1379 C1380 1.373 . S
C1379 C1381 1.389 . S
C1380 H1353 0.950 . S
C1380 C1366 1.377 . S
C1380 C1379 1.373 . S
C1381 C1365 1.377 . S
C1381 C1379 1.389 . S
C1381 C1382 1.524 . S
C1382 C1381 1.524 . S
C1382 C1383 1.397 . S
C1382 C1387 1.363 . S
C1383 H1354 0.950 . S
C1383 C1382 1.397 . S
C1383 C1384 1.334 . S
C1384 H1355 0.950 . S
C1384 C1383 1.334 . S
C1384 C1385 1.287 . S
C1385 C1384 1.287 . S
C1385 C1386 1.524 . S
C1385 H1388 0.999 . S
C1386 H1356 0.950 . S
C1386 C1385 1.524 . S
C1386 C1387 1.415 . S
C1387 H1357 0.950 . S
C1387 C1382 1.363 . S
C1387 C1386 1.415 . S
H1388 C1385 0.999 . S
H1389 C1370 0.913 . S
H1390 C1408 0.951 . S
H1391 C1410 0.951 . S
H1392 C1412 0.950 . S
H1393 C1413 0.950 . S
H1394 C1415 0.950 . S
H1395 C1418 0.950 . S
H1396 C1419 0.950 . S
H1397 C1421 0.950 . S
H1398 C1422 0.950 . S
H1399 C1423 0.951 . S
H1400 C1425 0.951 . S
H1401 C1427 0.950 . S
H1402 C1428 0.950 . S
H1403 C1430 0.950 . S
H1404 C1433 0.950 . S
H1405 C1434 0.950 . S
H1406 C1436 0.950 . S
H1407 C1437 0.950 . S
C1408 H1390 0.951 . S
C1408 C1409 1.366 . S
C1408 C1410 1.388 . S
C1409 C1408 1.366 . S
C1409 C1413 1.385 . S
C1410 H1391 0.951 . S
C1410 C1408 1.388 . S
C1410 C1411 1.366 . S
C1411 C1410 1.366 . S
C1411 C1412 1.414 . S
C1411 C1414 1.499 . S
C1412 H1392 0.950 . S
C1412 C1411 1.414 . S
C1412 C1413 1.374 . S
C1413 H1393 0.950 . S
C1413 C1409 1.385 . S
C1413 C1412 1.374 . S
C1414 C1411 1.499 . S
C1414 C1415 1.373 . S
C1414 C1416 1.389 . S
C1415 H1394 0.950 . S
C1415 C1414 1.373 . S
C1415 C1431 1.377 . S
C1416 C1414 1.389 . S
C1416 C1417 1.524 . S
C1416 C1430 1.377 . S
C1417 C1416 1.524 . S
C1417 C1418 1.397 . S
C1417 C1422 1.363 . S
C1418 H1395 0.950 . S
C1418 C1417 1.397 . S
C1418 C1419 1.334 . S
C1419 H1396 0.950 . S
C1419 C1418 1.334 . S
C1419 C1420 1.287 . S
C1420 C1419 1.287 . S
C1420 C1421 1.524 . S
C1420 H1439 0.913 . S
C1421 H1397 0.950 . S
C1421 C1420 1.524 . S
C1421 C1422 1.415 . S
C1422 H1398 0.950 . S
C1422 C1417 1.363 . S
C1422 C1421 1.415 . S
C1423 H1399 0.951 . S
C1423 C1424 1.366 . S
C1423 C1425 1.388 . S
C1424 C1423 1.366 . S
C1424 C1428 1.385 . S
C1425 H1400 0.951 . S
C1425 C1423 1.388 . S
C1425 C1426 1.366 . S
C1426 C1425 1.366 . S
C1426 C1427 1.414 . S
C1426 C1429 1.499 . S
C1427 H1401 0.950 . S
C1427 C1426 1.414 . S
C1427 C1428 1.374 . S
C1428 H1402 0.950 . S
C1428 C1424 1.385 . S
C1428 C1427 1.374 . S
C1429 C1426 1.499 . S
C1429 C1430 1.373 . S
C1429 C1431 1.389 . S
C1430 H1403 0.950 . S
C1430 C1416 1.377 . S
C1430 C1429 1.373 . S
C1431 C1415 1.377 . S
C1431 C1429 1.389 . S
C1431 C1432 1.524 . S
C1432 C1431 1.524 . S
C1432 C1433 1.397 . S
C1432 C1437 1.363 . S
C1433 H1404 0.950 . S
C1433 C1432 1.397 . S
C1433 C1434 1.334 . S
C1434 H1405 0.950 . S
C1434 C1433 1.334 . S
C1434 C1435 1.287 . S
C1435 C1434 1.287 . S
C1435 C1436 1.524 . S
C1435 H1438 0.999 . S
C1436 H1406 0.950 . S
C1436 C1435 1.524 . S
C1436 C1437 1.415 . S
C1437 H1407 0.950 . S
C1437 C1432 1.363 . S
C1437 C1436 1.415 . S
H1438 C1435 0.999 . S
H1439 C1420 0.913 . S
H1440 C1458 0.951 . S
H1441 C1460 0.951 . S
H1442 C1462 0.950 . S
H1443 C1463 0.950 . S
H1444 C1465 0.950 . S
H1445 C1468 0.955 . S
H1446 C1469 0.950 . S
H1447 C1471 0.950 . S
H1448 C1472 0.950 . S
H1449 C1473 0.951 . S
H1450 C1475 0.951 . S
H1451 C1477 0.950 . S
H1452 C1478 0.950 . S
H1453 C1480 0.950 . S
H1454 C1483 0.950 . S
H1455 C1484 0.950 . S
H1456 C1486 0.950 . S
H1457 C1487 0.950 . S
C1458 H1440 0.951 . S
C1458 C1459 1.366 . S
C1458 C1460 1.388 . S
C1459 C1458 1.366 . S
C1459 C1463 1.385 . S
C1460 H1441 0.951 . S
C1460 C1458 1.388 . S
C1460 C1461 1.366 . S
C1461 C1460 1.366 . S
C1461 C1462 1.414 . S
C1461 C1464 1.499 . S
C1462 H1442 0.950 . S
C1462 C1461 1.414 . S
C1462 C1463 1.374 . S
C1463 H1443 0.950 . S
C1463 C1459 1.385 . S
C1463 C1462 1.374 . S
C1464 C1461 1.499 . S
C1464 C1465 1.373 . S
C1464 C1466 1.389 . S
C1465 H1444 0.950 . S
C1465 C1464 1.373 . S
C1465 C1481 1.377 . S
C1466 C1464 1.389 . S
C1466 C1467 1.524 . S
C1466 C1480 1.377 . S
C1467 C1466 1.524 . S
C1467 C1468 1.397 . S
C1467 C1472 1.363 . S
C1468 H1445 0.955 . S
C1468 C1467 1.397 . S
C1468 C1469 1.334 1_655 S
C1469 H1446 0.950 . S
C1469 C1468 1.334 1_455 S
C1469 C1470 1.287 1_455 S
C1470 C1469 1.287 1_655 S
C1470 C1471 1.524 . S
C1470 H1489 0.913 1_655 S
C1471 H1447 0.950 . S
C1471 C1470 1.524 . S
C1471 C1472 1.415 . S
C1472 H1448 0.950 . S
C1472 C1467 1.363 . S
C1472 C1471 1.415 . S
C1473 H1449 0.951 . S
C1473 C1474 1.366 . S
C1473 C1475 1.388 . S
C1474 C1473 1.366 . S
C1474 C1478 1.385 . S
C1475 H1450 0.951 . S
C1475 C1473 1.388 . S
C1475 C1476 1.366 . S
C1476 C1475 1.366 . S
C1476 C1477 1.414 . S
C1476 C1479 1.499 . S
C1477 H1451 0.950 . S
C1477 C1476 1.414 . S
C1477 C1478 1.374 . S
C1478 H1452 0.950 . S
C1478 C1474 1.385 . S
C1478 C1477 1.374 . S
C1479 C1476 1.499 . S
C1479 C1480 1.373 . S
C1479 C1481 1.389 . S
C1480 H1453 0.950 . S
C1480 C1466 1.377 . S
C1480 C1479 1.373 . S
C1481 C1465 1.377 . S
C1481 C1479 1.389 . S
C1481 C1482 1.524 . S
C1482 C1481 1.524 . S
C1482 C1483 1.397 . S
C1482 C1487 1.363 . S
C1483 H1454 0.950 . S
C1483 C1482 1.397 . S
C1483 C1484 1.334 . S
C1484 H1455 0.950 . S
C1484 C1483 1.334 . S
C1484 C1485 1.287 . S
C1485 C1484 1.287 . S
C1485 C1486 1.524 . S
C1485 H1488 0.999 . S
C1486 H1456 0.950 . S
C1486 C1485 1.524 . S
C1486 C1487 1.415 . S
C1487 H1457 0.950 . S
C1487 C1482 1.363 . S
C1487 C1486 1.415 . S
H1488 C1485 0.999 . S
H1489 C1470 0.913 1_455 S
H1490 C1508 0.951 . S
H1491 C1510 0.951 . S
H1492 C1512 0.950 . S
H1493 C1513 0.950 . S
H1494 C1515 0.950 . S
H1495 C1518 0.950 . S
H1496 C1519 0.950 . S
H1497 C1521 0.950 . S
H1498 C1522 0.950 . S
H1499 C1523 0.951 . S
H1500 C1525 0.951 . S
H1501 C1527 0.950 . S
H1502 C1528 0.950 . S
H1503 C1530 0.950 . S
H1504 C1533 0.950 . S
H1505 C1534 0.950 . S
H1506 C1536 0.950 . S
H1507 C1537 0.950 . S
C1508 H1490 0.951 . S
C1508 C1509 1.366 . S
C1508 C1510 1.388 . S
C1509 C1508 1.366 . S
C1509 C1513 1.385 . S
C1510 H1491 0.951 . S
C1510 C1508 1.388 . S
C1510 C1511 1.366 . S
C1511 C1510 1.366 . S
C1511 C1512 1.414 . S
C1511 C1514 1.499 . S
C1512 H1492 0.950 . S
C1512 C1511 1.414 . S
C1512 C1513 1.374 . S
C1513 H1493 0.950 . S
C1513 C1509 1.385 . S
C1513 C1512 1.374 . S
C1514 C1511 1.499 . S
C1514 C1515 1.373 . S
C1514 C1516 1.389 . S
C1515 H1494 0.950 . S
C1515 C1514 1.373 . S
C1515 C1531 1.377 . S
C1516 C1514 1.389 . S
C1516 C1517 1.524 . S
C1516 C1530 1.377 . S
C1517 C1516 1.524 . S
C1517 C1518 1.397 1_565 S
C1517 C1522 1.363 . S
C1518 H1495 0.950 . S
C1518 C1517 1.397 1_545 S
C1518 C1519 1.334 . S
C1519 H1496 0.950 . S
C1519 C1518 1.334 . S
C1519 C1520 1.287 . S
C1520 C1519 1.287 . S
C1520 C1521 1.524 . S
C1520 H1539 0.913 . S
C1521 H1497 0.950 . S
C1521 C1520 1.524 . S
C1521 C1522 1.415 1_545 S
C1522 H1498 0.950 . S
C1522 C1517 1.363 . S
C1522 C1521 1.415 1_565 S
C1523 H1499 0.951 . S
C1523 C1524 1.366 . S
C1523 C1525 1.388 . S
C1524 C1523 1.366 . S
C1524 C1528 1.385 . S
C1525 H1500 0.951 . S
C1525 C1523 1.388 . S
C1525 C1526 1.366 . S
C1526 C1525 1.366 . S
C1526 C1527 1.414 . S
C1526 C1529 1.499 . S
C1527 H1501 0.950 . S
C1527 C1526 1.414 . S
C1527 C1528 1.374 . S
C1528 H1502 0.950 . S
C1528 C1524 1.385 . S
C1528 C1527 1.374 . S
C1529 C1526 1.499 . S
C1529 C1530 1.373 . S
C1529 C1531 1.389 . S
C1530 H1503 0.950 . S
C1530 C1516 1.377 . S
C1530 C1529 1.373 . S
C1531 C1515 1.377 . S
C1531 C1529 1.389 . S
C1531 C1532 1.524 . S
C1532 C1531 1.524 . S
C1532 C1533 1.397 . S
C1532 C1537 1.363 . S
C1533 H1504 0.950 . S
C1533 C1532 1.397 . S
C1533 C1534 1.334 . S
C1534 H1505 0.950 . S
C1534 C1533 1.334 . S
C1534 C1535 1.287 . S
C1535 C1534 1.287 . S
C1535 C1536 1.524 . S
C1535 H1538 0.999 . S
C1536 H1506 0.950 . S
C1536 C1535 1.524 . S
C1536 C1537 1.415 . S
C1537 H1507 0.950 . S
C1537 C1532 1.363 . S
C1537 C1536 1.415 . S
H1538 C1535 0.999 . S
H1539 C1520 0.913 . S
H1540 C1558 0.951 . S
H1541 C1560 0.951 . S
H1542 C1562 0.950 . S
H1543 C1563 0.950 . S
H1544 C1565 0.950 . S
H1545 C1568 0.950 . S
H1546 C1569 0.950 . S
H1547 C1571 0.950 . S
H1548 C1572 0.950 . S
H1549 C1573 0.951 . S
H1550 C1575 0.951 . S
H1551 C1577 0.950 . S
H1552 C1578 0.950 . S
H1553 C1580 0.950 . S
H1554 C1583 0.950 . S
H1555 C1584 0.950 . S
H1556 C1586 0.950 . S
H1557 C1587 0.950 . S
C1558 H1540 0.951 . S
C1558 C1559 1.366 . S
C1558 C1560 1.388 . S
C1559 C1558 1.366 . S
C1559 C1563 1.385 . S
C1560 H1541 0.951 . S
C1560 C1558 1.388 . S
C1560 C1561 1.366 . S
C1561 C1560 1.366 . S
C1561 C1562 1.414 . S
C1561 C1564 1.499 . S
C1562 H1542 0.950 . S
C1562 C1561 1.414 . S
C1562 C1563 1.374 . S
C1563 H1543 0.950 . S
C1563 C1559 1.385 . S
C1563 C1562 1.374 . S
C1564 C1561 1.499 . S
C1564 C1565 1.373 . S
C1564 C1566 1.389 . S
C1565 H1544 0.950 . S
C1565 C1564 1.373 . S
C1565 C1581 1.377 . S
C1566 C1564 1.389 . S
C1566 C1567 1.524 . S
C1566 C1580 1.377 . S
C1567 C1566 1.524 . S
C1567 C1568 1.397 . S
C1567 C1572 1.363 . S
C1568 H1545 0.950 . S
C1568 C1567 1.397 . S
C1568 C1569 1.334 . S
C1569 H1546 0.950 . S
C1569 C1568 1.334 . S
C1569 C1570 1.287 . S
C1570 C1569 1.287 . S
C1570 C1571 1.524 . S
C1570 H1589 0.913 . S
C1571 H1547 0.950 . S
C1571 C1570 1.524 . S
C1571 C1572 1.415 . S
C1572 H1548 0.950 . S
C1572 C1567 1.363 . S
C1572 C1571 1.415 . S
C1573 H1549 0.951 . S
C1573 C1574 1.366 . S
C1573 C1575 1.388 . S
C1574 C1573 1.366 . S
C1574 C1578 1.385 . S
C1575 H1550 0.951 . S
C1575 C1573 1.388 . S
C1575 C1576 1.366 . S
C1576 C1575 1.366 . S
C1576 C1577 1.414 . S
C1576 C1579 1.499 . S
C1577 H1551 0.950 . S
C1577 C1576 1.414 . S
C1577 C1578 1.374 . S
C1578 H1552 0.950 . S
C1578 C1574 1.385 . S
C1578 C1577 1.374 . S
C1579 C1576 1.499 . S
C1579 C1580 1.373 . S
C1579 C1581 1.389 . S
C1580 H1553 0.950 . S
C1580 C1566 1.377 . S
C1580 C1579 1.373 . S
C1581 C1565 1.377 . S
C1581 C1579 1.389 . S
C1581 C1582 1.524 . S
C1582 C1581 1.524 . S
C1582 C1583 1.397 . S
C1582 C1587 1.363 . S
C1583 H1554 0.950 . S
C1583 C1582 1.397 . S
C1583 C1584 1.334 . S
C1584 H1555 0.950 . S
C1584 C1583 1.334 . S
C1584 C1585 1.287 . S
C1585 C1584 1.287 . S
C1585 C1586 1.524 . S
C1585 H1588 0.999 . S
C1586 H1556 0.950 . S
C1586 C1585 1.524 . S
C1586 C1587 1.415 . S
C1587 H1557 0.950 . S
C1587 C1582 1.363 . S
C1587 C1586 1.415 . S
H1588 C1585 0.999 . S
H1589 C1570 0.913 . S
H1590 C1608 0.951 . S
H1591 C1610 0.951 . S
H1592 C1612 0.950 . S
H1593 C1613 0.950 . S
H1594 C1615 0.950 . S
H1595 C1618 0.950 . S
H1596 C1619 0.950 . S
H1597 C1621 0.950 . S
H1598 C1622 0.950 . S
H1599 C1623 0.951 . S
H1600 C1625 0.951 . S
H1601 C1627 0.950 . S
H1602 C1628 0.950 . S
H1603 C1630 0.950 . S
H1604 C1633 0.950 . S
H1605 C1634 0.950 . S
H1606 C1636 0.950 . S
H1607 C1637 0.950 . S
C1608 H1590 0.951 . S
C1608 C1609 1.366 . S
C1608 C1610 1.388 . S
C1609 C1608 1.366 . S
C1609 C1613 1.385 . S
C1610 H1591 0.951 . S
C1610 C1608 1.388 . S
C1610 C1611 1.366 . S
C1611 C1610 1.366 . S
C1611 C1612 1.414 . S
C1611 C1614 1.499 . S
C1612 H1592 0.950 . S
C1612 C1611 1.414 . S
C1612 C1613 1.374 . S
C1613 H1593 0.950 . S
C1613 C1609 1.385 . S
C1613 C1612 1.374 . S
C1614 C1611 1.499 . S
C1614 C1615 1.373 . S
C1614 C1616 1.389 . S
C1615 H1594 0.950 . S
C1615 C1614 1.373 . S
C1615 C1631 1.377 . S
C1616 C1614 1.389 . S
C1616 C1617 1.524 . S
C1616 C1630 1.377 . S
C1617 C1616 1.524 . S
C1617 C1618 1.397 . S
C1617 C1622 1.363 . S
C1618 H1595 0.950 . S
C1618 C1617 1.397 . S
C1618 C1619 1.334 . S
C1619 H1596 0.950 . S
C1619 C1618 1.334 . S
C1619 C1620 1.287 . S
C1620 C1619 1.287 . S
C1620 C1621 1.524 . S
C1620 H1639 0.913 . S
C1621 H1597 0.950 . S
C1621 C1620 1.524 . S
C1621 C1622 1.415 . S
C1622 H1598 0.950 . S
C1622 C1617 1.363 . S
C1622 C1621 1.415 . S
C1623 H1599 0.951 . S
C1623 C1624 1.366 . S
C1623 C1625 1.388 . S
C1624 C1623 1.366 . S
C1624 C1628 1.385 . S
C1625 H1600 0.951 . S
C1625 C1623 1.388 . S
C1625 C1626 1.366 . S
C1626 C1625 1.366 . S
C1626 C1627 1.414 . S
C1626 C1629 1.499 . S
C1627 H1601 0.950 . S
C1627 C1626 1.414 . S
C1627 C1628 1.374 . S
C1628 H1602 0.950 . S
C1628 C1624 1.385 . S
C1628 C1627 1.374 . S
C1629 C1626 1.499 . S
C1629 C1630 1.373 . S
C1629 C1631 1.389 . S
C1630 H1603 0.950 . S
C1630 C1616 1.377 . S
C1630 C1629 1.373 . S
C1631 C1615 1.377 . S
C1631 C1629 1.389 . S
C1631 C1632 1.524 . S
C1632 C1631 1.524 . S
C1632 C1633 1.397 . S
C1632 C1637 1.363 . S
C1633 H1604 0.950 . S
C1633 C1632 1.397 . S
C1633 C1634 1.334 . S
C1634 H1605 0.950 . S
C1634 C1633 1.334 . S
C1634 C1635 1.287 . S
C1635 C1634 1.287 . S
C1635 C1636 1.524 . S
C1635 H1638 0.999 . S
C1636 H1606 0.950 . S
C1636 C1635 1.524 . S
C1636 C1637 1.415 . S
C1637 H1607 0.950 . S
C1637 C1632 1.363 . S
C1637 C1636 1.415 . S
H1638 C1635 0.999 . S
H1639 C1620 0.913 . S
C459 C82 1.705 . S
C474 C178 1.844 . S
C524 C262 1.875 . S
C509 C95 1.739 . S
C574 C328 1.899 . S
C559 C56 1.857 . S
C624 C412 1.870 . S
C609 C69 1.824 . S
C674 C167 1.844 1_565 S
C659 C30 1.644 . S
C709 C43 1.672 . S
C724 C251 1.875 . S
C759 C4 1.784 . S
C774 C339 1.898 . S
C809 C17 1.758 . S
C824 C423 1.872 . S
C874 C174 0.516 1_455 S
C859 C74 0.496 . S
C924 C258 0.568 . S
C909 C87 0.466 . S
C974 C330 0.506 . S
C959 C100 0.442 . S
C1009 C61 0.468 . S
C1024 C414 0.519 . S
C1059 C22 0.500 . S
C1074 C162 0.531 . S
C1124 C246 0.513 . S
C1109 C35 0.471 . S
C1174 C342 0.506 . S
C1159 C48 0.448 . S
C1209 C9 0.476 . S
C1224 C426 0.517 . S
C1259 C73 1.955 . S
C1274 C171 1.997 . S
C1309 C86 1.917 . S
C1324 C255 1.957 . S
C1374 C335 1.935 . S
C1359 C99 1.810 . S
C1424 C419 1.970 . S
C1409 C60 1.843 . S
C1459 C21 1.949 . S
C1474 C160 1.996 . S
C1524 C244 1.954 1_565 S
C1509 C34 1.911 . S
C1574 C346 1.935 . S
C1559 C47 1.804 . S
C1609 C8 1.836 . S
C1624 C430 1.971 . S
