# Generated by pormake.
# Topology rtl, (3,6)-cn, num edge types: 1
# Building blocks:
#     Node 0, Type 0, BuildingBlock: VETTIZ_charged_linker_0, # of connection points: 3
#     Node 1, Type 0, BuildingBlock: VETTIZ_charged_linker_0, # of connection points: 3
#     Node 2, Type 0, BuildingBlock: VETTIZ_charged_linker_0, # of connection points: 3
#     Node 3, Type 0, BuildingBlock: VETTIZ_charged_linker_0, # of connection points: 3
#     Node 4, Type 1, BuildingBlock: VOLQOD_clean_sbu_1, # of connection points: 6
#     Node 5, Type 1, BuildingBlock: VOLQOD_clean_sbu_1, # of connection points: 6
#     Edge 6, Type (0, 1), BuildingBlock: MIFKUJ_clean_linker_0, # of connection points: 2
#     Edge 7, Type (0, 1), BuildingBlock: MIFKUJ_clean_linker_0, # of connection points: 2
#     Edge 8, Type (0, 1), BuildingBlock: MIFKUJ_clean_linker_0, # of connection points: 2
#     Edge 9, Type (0, 1), BuildingBlock: MIFKUJ_clean_linker_0, # of connection points: 2
#     Edge 10, Type (0, 1), BuildingBlock: MIFKUJ_clean_linker_0, # of connection points: 2
#     Edge 11, Type (0, 1), BuildingBlock: MIFKUJ_clean_linker_0, # of connection points: 2
#     Edge 12, Type (0, 1), BuildingBlock: MIFKUJ_clean_linker_0, # of connection points: 2
#     Edge 13, Type (0, 1), BuildingBlock: MIFKUJ_clean_linker_0, # of connection points: 2
#     Edge 14, Type (0, 1), BuildingBlock: MIFKUJ_clean_linker_0, # of connection points: 2
#     Edge 15, Type (0, 1), BuildingBlock: MIFKUJ_clean_linker_0, # of connection points: 2
#     Edge 16, Type (0, 1), BuildingBlock: MIFKUJ_clean_linker_0, # of connection points: 2
#     Edge 17, Type (0, 1), BuildingBlock: MIFKUJ_clean_linker_0, # of connection points: 2
# Relax obj value: 0.081
# Max RMSD: 0.157
# Mean RMSD: 0.091
data_MOF--net-rtl--node1-VOLQOD_clean_sbu_1--node2-VETTIZ_charged_linker_0--edge1-MIFKUJ_clean_linker_0
_symmetry_space_group_name_H-M    P1
_symmetry_Int_Tables_number       1
_symmetry_cell_setting            triclinic
loop_
_symmetry_equiv_pos_as_xyz
'x, y, z'
_cell_length_a     54.966792
_cell_length_b     47.561393
_cell_length_c     35.908315
_cell_angle_alpha  90.008293
_cell_angle_beta   90.319502
_cell_angle_gamma 89.974583
loop_
_atom_site_label
_atom_site_type_symbol
_atom_site_fract_x
_atom_site_fract_y
_atom_site_fract_z
_atom_type_partial_charge
C0 C 0.09614 0.74796 0.89162 0.0
C1 C 0.07664 0.76699 0.88887 0.0
C2 C 0.06311 0.77345 0.92095 0.0
C3 C 0.09004 0.74451 0.95836 0.0
C4 C 0.10235 0.73678 0.92652 0.0
C5 C 0.12269 0.71644 0.93467 0.0
H6 H 0.19691 0.65525 0.06128 0.0
C7 C 0.1023 0.73121 0.99052 0.0
C8 C 0.12117 0.7143 0.97685 0.0
H9 H 0.1973 0.64546 0.94141 0.0
H10 H 0.16118 0.67386 0.93644 0.0
H11 H 0.18208 0.72071 0.063 0.0
H12 H 0.1393 0.645 0.0694 0.0
H13 H 0.12592 0.66958 0.09951 0.0
H14 H 0.15662 0.65767 0.10844 0.0
H15 H 0.18344 0.69697 0.10184 0.0
H16 H 0.16104 0.72446 0.0994 0.0
C17 C 0.14683 0.73009 0.92193 0.0
C18 C 0.11674 0.68809 0.91532 0.0
C19 C 0.0807 0.76304 0.12098 0.0
C20 C 0.09045 0.75696 0.15631 0.0
C21 C 0.10843 0.73598 0.15968 0.0
C22 C 0.1174 0.72223 0.128 0.0
C23 C 0.1083 0.72958 0.09261 0.0
C24 C 0.08982 0.74916 0.0897 0.0
C25 C 0.08212 0.75422 0.05006 0.0
C26 C 0.09939 0.73485 0.02948 0.0
C27 C 0.11487 0.72072 0.05447 0.0
C28 C 0.08686 0.78562 0.04104 0.0
C29 C 0.05522 0.74493 0.04552 0.0
C30 C 0.18909 0.65886 0.03395 0.0
C31 C 0.20039 0.64841 0.00166 0.0
C32 C 0.18947 0.65382 0.9667 0.0
C33 C 0.16836 0.6702 0.96383 0.0
C34 C 0.15792 0.68137 0.9962 0.0
C35 C 0.16789 0.67504 0.03058 0.0
C36 C 0.15375 0.68797 0.06201 0.0
C37 C 0.13382 0.70332 0.04072 0.0
C38 C 0.13665 0.69977 0.00214 0.0
C39 C 0.17085 0.70853 0.083 0.0
C40 C 0.14342 0.66398 0.08644 0.0
H41 H 0.05906 0.76854 0.97918 0.0
H42 H 0.10652 0.74224 0.86721 0.0
H43 H 0.09683 0.68547 0.91074 0.0
H44 H 0.12208 0.66975 0.93253 0.0
H45 H 0.12567 0.68655 0.88773 0.0
H46 H 0.14778 0.75238 0.93123 0.0
H47 H 0.14829 0.72983 0.89108 0.0
H48 H 0.16312 0.71982 0.93367 0.0
H49 H 0.06655 0.77871 0.11768 0.0
H50 H 0.11619 0.73096 0.18667 0.0
H51 H 0.13149 0.70691 0.13219 0.0
H52 H 0.10477 0.7924 0.05251 0.0
H53 H 0.07264 0.79923 0.05351 0.0
H54 H 0.08772 0.79013 0.011 0.0
H55 H 0.0503 0.72843 0.06611 0.0
H56 H 0.05156 0.73515 0.01808 0.0
H57 H 0.04258 0.76289 0.04959 0.0
H58 H 0.04802 0.78808 0.91945 0.0
C59 C 0.06968 0.76228 0.95564 0.0
C60 C 0.59894 0.74658 0.6219 0.0
C61 C 0.58178 0.72471 0.62137 0.0
C62 C 0.57144 0.71628 0.58719 0.0
C63 C 0.59602 0.75047 0.55456 0.0
C64 C 0.60594 0.75896 0.58818 0.0
C65 C 0.62534 0.78095 0.58323 0.0
H66 H 0.6958 0.85791 0.46759 0.0
C67 C 0.608 0.76651 0.52461 0.0
C68 C 0.62524 0.78437 0.54115 0.0
H69 H 0.69961 0.85249 0.5876 0.0
H70 H 0.66452 0.82202 0.58804 0.0
H71 H 0.68745 0.79368 0.45438 0.0
H72 H 0.63526 0.86112 0.46153 0.0
H73 H 0.62657 0.8391 0.42441 0.0
H74 H 0.6554 0.85716 0.42269 0.0
H75 H 0.68376 0.81924 0.41799 0.0
H76 H 0.66529 0.78798 0.41983 0.0
C77 C 0.64976 0.76876 0.59795 0.0
C78 C 0.6169 0.8081 0.60315 0.0
C79 C 0.58559 0.74656 0.39009 0.0
C80 C 0.59435 0.75657 0.35588 0.0
C81 C 0.61217 0.77789 0.35591 0.0
C82 C 0.62136 0.78872 0.38955 0.0
C83 C 0.61283 0.77791 0.42354 0.0
C84 C 0.59503 0.75741 0.42331 0.0
C85 C 0.58842 0.74782 0.46179 0.0
C86 C 0.6052 0.76593 0.48531 0.0
C87 C 0.61953 0.78345 0.46285 0.0
C88 C 0.59466 0.71607 0.46514 0.0
C89 C 0.5613 0.75507 0.46835 0.0
C90 C 0.68875 0.8505 0.49393 0.0
C91 C 0.7004 0.8575 0.52761 0.0
C92 C 0.69098 0.84714 0.56133 0.0
C93 C 0.67064 0.82944 0.5615 0.0
C94 C 0.65975 0.82168 0.52754 0.0
C95 C 0.66862 0.83243 0.49451 0.0
C96 C 0.65528 0.82097 0.46109 0.0
C97 C 0.63713 0.80142 0.47951 0.0
C98 C 0.63985 0.80196 0.51844 0.0
C99 C 0.67377 0.80473 0.43671 0.0
C100 C 0.64252 0.84576 0.44102 0.0
H101 H 0.56991 0.72163 0.52875 0.0
H102 H 0.60738 0.75317 0.6478 0.0
H103 H 0.59708 0.81158 0.59871 0.0
H104 H 0.62578 0.82723 0.59233 0.0
H105 H 0.62019 0.80672 0.63365 0.0
H106 H 0.65041 0.7455 0.59465 0.0
H107 H 0.65238 0.7735 0.628 0.0
H108 H 0.66569 0.77641 0.58232 0.0
H109 H 0.57229 0.72978 0.39113 0.0
H110 H 0.61911 0.78605 0.32989 0.0
H111 H 0.63502 0.80476 0.3878 0.0
H112 H 0.61042 0.71043 0.4473 0.0
H113 H 0.57906 0.70277 0.45633 0.0
H114 H 0.60039 0.70992 0.49353 0.0
H115 H 0.55653 0.7756 0.45535 0.0
H116 H 0.5568 0.75761 0.49809 0.0
H117 H 0.54919 0.73884 0.45596 0.0
H118 H 0.55805 0.69957 0.58631 0.0
C119 C 0.57834 0.72914 0.55385 0.0
C120 C 0.91576 0.25792 0.13134 0.0
C121 C 0.93774 0.24279 0.13397 0.0
C122 C 0.95315 0.24182 0.10271 0.0
C123 C 0.92301 0.26636 0.06571 0.0
C124 C 0.90888 0.26969 0.09707 0.0
C125 C 0.88581 0.28568 0.08883 0.0
H126 H 0.80928 0.34344 0.96155 0.0
C127 C 0.90943 0.2778 0.03357 0.0
C128 C 0.88784 0.28972 0.04696 0.0
H129 H 0.80251 0.34304 0.08139 0.0
H130 H 0.8408 0.31846 0.08715 0.0
H131 H 0.86918 0.35622 0.95763 0.0
H132 H 0.8246 0.282 0.95521 0.0
H133 H 0.85057 0.27368 0.92929 0.0
H134 H 0.83068 0.30159 0.91367 0.0
H135 H 0.84795 0.34769 0.92111 0.0
H136 H 0.87854 0.33422 0.92066 0.0
C137 C 0.88684 0.31402 0.11014 0.0
C138 C 0.86391 0.26679 0.09917 0.0
C139 C 0.93708 0.25285 0.90337 0.0
C140 C 0.92557 0.25436 0.86833 0.0
C141 C 0.90388 0.27014 0.86499 0.0
C142 C 0.89334 0.28291 0.89625 0.0
C143 C 0.90428 0.27947 0.93143 0.0
C144 C 0.92593 0.26489 0.93442 0.0
C145 C 0.93401 0.26121 0.97417 0.0
C146 C 0.91346 0.27575 0.99465 0.0
C147 C 0.8962 0.28661 0.9695 0.0
C148 C 0.95858 0.27669 0.97964 0.0
C149 C 0.93494 0.22919 0.98236 0.0
C150 C 0.81629 0.33836 0.989 0.0
C151 C 0.80304 0.34526 0.02109 0.0
C152 C 0.81241 0.3378 0.05632 0.0
C153 C 0.83467 0.32365 0.0596 0.0
C154 C 0.84759 0.31655 0.02728 0.0
C155 C 0.83839 0.3239 0.99271 0.0
C156 C 0.85414 0.31349 0.96143 0.0
C157 C 0.87488 0.29994 0.98304 0.0
C158 C 0.87081 0.30159 0.02156 0.0
C159 C 0.86291 0.33915 0.9387 0.0
C160 C 0.83935 0.29169 0.93843 0.0
H161 H 0.95815 0.25141 0.0457 0.0
H162 H 0.90357 0.25942 0.15484 0.0
H163 H 0.86707 0.24478 0.08987 0.0
H164 H 0.84677 0.27331 0.08559 0.0
H165 H 0.86109 0.26645 0.12977 0.0
H166 H 0.90594 0.32102 0.11474 0.0
H167 H 0.87814 0.31228 0.13788 0.0
H168 H 0.87826 0.33142 0.09439 0.0
H169 H 0.954 0.24151 0.90703 0.0
H170 H 0.89439 0.27163 0.83857 0.0
H171 H 0.87663 0.29415 0.89205 0.0
H172 H 0.96033 0.29471 0.96007 0.0
H173 H 0.97421 0.26238 0.97468 0.0
H174 H 0.96038 0.28616 0.00767 0.0
H175 H 0.91896 0.21836 0.96972 0.0
H176 H 0.93419 0.22396 0.01217 0.0
H177 H 0.95161 0.21956 0.97052 0.0
H178 H 0.97059 0.23126 0.10424 0.0
C179 C 0.94594 0.25357 0.0687 0.0
C180 C 0.41501 0.25206 0.39235 0.0
C181 C 0.43435 0.27143 0.39293 0.0
C182 C 0.44626 0.27713 0.42695 0.0
C183 C 0.41781 0.24729 0.45954 0.0
C184 C 0.40701 0.24032 0.42595 0.0
C185 C 0.38563 0.22089 0.43092 0.0
H186 H 0.30379 0.16177 0.54689 0.0
C187 C 0.40357 0.2342 0.48963 0.0
C188 C 0.38477 0.21852 0.47313 0.0
H189 H 0.30836 0.15275 0.42716 0.0
H190 H 0.34509 0.18046 0.42685 0.0
H191 H 0.36199 0.15069 0.56163 0.0
H192 H 0.31775 0.22501 0.55129 0.0
H193 H 0.33919 0.23178 0.58651 0.0
H194 H 0.31759 0.20362 0.59245 0.0
H195 H 0.34061 0.16129 0.59654 0.0
H196 H 0.37139 0.17443 0.59639 0.0
C197 C 0.39171 0.19237 0.41226 0.0
C198 C 0.36271 0.2356 0.41489 0.0
C199 C 0.4217 0.26105 0.62365 0.0
C200 C 0.40921 0.25651 0.65711 0.0
C201 C 0.38874 0.23871 0.65718 0.0
C202 C 0.38049 0.22611 0.62413 0.0
C203 C 0.39262 0.23174 0.59056 0.0
C204 C 0.413 0.24875 0.59081 0.0
C205 C 0.42264 0.25398 0.55236 0.0
C206 C 0.40481 0.23712 0.52894 0.0
C207 C 0.38732 0.22409 0.55142 0.0
C208 C 0.4487 0.24169 0.55033 0.0
C209 C 0.42092 0.28604 0.54446 0.0
C210 C 0.31282 0.16531 0.52059 0.0
C211 C 0.30288 0.15517 0.48697 0.0
C212 C 0.31524 0.16076 0.45341 0.0
C213 C 0.33669 0.17671 0.45327 0.0
C214 C 0.34597 0.18726 0.48701 0.0
C215 C 0.33434 0.18099 0.51997 0.0
C216 C 0.34715 0.19332 0.55327 0.0
C217 C 0.36841 0.20801 0.53484 0.0
C218 C 0.36741 0.2048 0.49597 0.0
C219 C 0.35567 0.16883 0.57862 0.0
C220 C 0.32962 0.21442 0.57223 0.0
H221 H 0.44767 0.2708 0.48522 0.0
H222 H 0.40552 0.24726 0.36662 0.0
H223 H 0.36218 0.25803 0.42365 0.0
H224 H 0.34554 0.22635 0.42476 0.0
H225 H 0.36267 0.23503 0.38396 0.0
H226 H 0.41166 0.18837 0.41224 0.0
H227 H 0.38534 0.19187 0.38285 0.0
H228 H 0.3839 0.17429 0.42742 0.0
H229 H 0.43718 0.27513 0.62265 0.0
H230 H 0.3789 0.23493 0.68275 0.0
H231 H 0.36462 0.21307 0.62587 0.0
H232 H 0.45007 0.22181 0.56655 0.0
H233 H 0.46227 0.25662 0.562 0.0
H234 H 0.45406 0.2359 0.52172 0.0
H235 H 0.4054 0.29572 0.55954 0.0
H236 H 0.41729 0.29097 0.51492 0.0
H237 H 0.43773 0.29711 0.55351 0.0
H238 H 0.46153 0.29151 0.42797 0.0
C239 C 0.43819 0.26508 0.46017 0.0
O240 O 0.94259 0.00652 0.51333 0.0
Zn241 Zn 0.97405 0.02842 0.51147 0.0
O242 O 0.00225 0.00325 0.51179 0.0
Zn243 Zn 0.02327 0.01157 0.55474 0.0
Zn244 Zn 0.99133 0.96416 0.51473 0.0
Zn245 Zn 0.02033 0.00887 0.46574 0.0
O246 O 0.05646 0.02449 0.5382 0.0
O247 O 0.05397 0.02341 0.47648 0.0
O248 O 0.97527 0.0547 0.55515 0.0
O249 O 0.00873 0.04254 0.58626 0.0
O250 O 0.02792 0.97738 0.58728 0.0
O251 O 0.00368 0.94545 0.56136 0.0
O252 O 0.00363 0.94131 0.47119 0.0
O253 O 0.9731 0.05267 0.46562 0.0
O254 O 0.02364 0.97272 0.43742 0.0
O255 O 0.00416 0.03717 0.43218 0.0
C256 C 0.9379 0.98031 0.51499 0.0
C257 C 0.06587 0.02838 0.50628 0.0
C258 C 0.01849 0.95292 0.58687 0.0
C259 C 0.98986 0.05788 0.58248 0.0
C260 C 0.01624 0.94769 0.44274 0.0
C261 C 0.98596 0.0534 0.43629 0.0
O262 O 0.95482 0.96201 0.51562 0.0
O263 O 0.56398 0.50121 0.00648 0.0
Zn264 Zn 0.53389 0.5257 0.00685 0.0
O265 O 0.50401 0.50335 0.01031 0.0
Zn266 Zn 0.48302 0.51142 0.96755 0.0
Zn267 Zn 0.51261 0.46351 0.01046 0.0
Zn268 Zn 0.48646 0.51251 0.05612 0.0
O269 O 0.45056 0.52621 0.98351 0.0
O270 O 0.45203 0.52535 0.04527 0.0
O271 O 0.53399 0.54925 0.96021 0.0
O272 O 0.49799 0.54061 0.93426 0.0
O273 O 0.47683 0.47646 0.9372 0.0
O274 O 0.4991 0.44369 0.96545 0.0
O275 O 0.49968 0.44408 0.05594 0.0
O276 O 0.53648 0.5524 0.05028 0.0
O277 O 0.48415 0.4787 0.08984 0.0
O278 O 0.50342 0.54383 0.08375 0.0
C279 C 0.56692 0.47469 0.00859 0.0
C280 C 0.44062 0.53021 0.01498 0.0
C281 C 0.48478 0.45135 0.93937 0.0
C282 C 0.51831 0.55344 0.93454 0.0
C283 C 0.48945 0.45282 0.08548 0.0
C284 C 0.52303 0.55747 0.07828 0.0
O285 O 0.54883 0.45808 0.01065 0.0
H286 H 0.28639 0.11713 0.53855 0.0
H287 H 0.24672 0.09437 0.54065 0.0
H288 H 0.22687 0.13371 0.43654 0.0
H289 H 0.26589 0.15808 0.4355 0.0
H290 H 0.19092 0.13796 0.48186 0.0
H291 H 0.24185 0.06194 0.444 0.0
H292 H 0.27687 0.02959 0.44683 0.0
H293 H 0.25345 0.99975 0.55364 0.0
H294 H 0.21845 0.03221 0.55168 0.0
H295 H 0.08769 0.05174 0.44556 0.0
H296 H 0.12863 0.07156 0.44168 0.0
H297 H 0.14186 0.04981 0.55658 0.0
H298 H 0.10076 0.03018 0.56095 0.0
H299 H 0.18079 0.03579 0.50503 0.0
H300 H 0.12959 0.11376 0.54093 0.0
H301 H 0.09397 0.14493 0.53432 0.0
H302 H 0.11792 0.16969 0.42554 0.0
H303 H 0.15354 0.13834 0.43131 0.0
C304 C 0.27355 0.12116 0.5162 0.0
C305 C 0.2794 0.13955 0.48689 0.0
C306 C 0.25095 0.10778 0.51718 0.0
C307 C 0.23387 0.112 0.4885 0.0
C308 C 0.23976 0.13004 0.45895 0.0
C309 C 0.26224 0.14372 0.45818 0.0
C310 C 0.20953 0.09848 0.49002 0.0
C311 C 0.18879 0.11555 0.48635 0.0
C312 C 0.20662 0.06928 0.49656 0.0
C313 C 0.22765 0.04971 0.49784 0.0
C314 C 0.24427 0.04864 0.46823 0.0
C315 C 0.2641 0.03025 0.46965 0.0
C316 C 0.26742 0.01268 0.50044 0.0
C317 C 0.25087 0.0134 0.52983 0.0
C318 C 0.23102 0.03177 0.52856 0.0
C319 C 0.09932 0.05103 0.46999 0.0
C320 C 0.09095 0.03947 0.50363 0.0
C321 C 0.12267 0.06241 0.46772 0.0
C322 C 0.13814 0.06221 0.49889 0.0
C323 C 0.13012 0.05012 0.53225 0.0
C324 C 0.10663 0.03905 0.53472 0.0
C325 C 0.16248 0.07531 0.49683 0.0
C326 C 0.18311 0.05817 0.50044 0.0
C327 C 0.16532 0.10434 0.4897 0.0
C328 C 0.14409 0.12349 0.4864 0.0
C329 C 0.12716 0.12569 0.51548 0.0
C330 C 0.10699 0.14342 0.51191 0.0
C331 C 0.10364 0.15922 0.47948 0.0
C332 C 0.12052 0.15741 0.45062 0.0
C333 C 0.14072 0.13968 0.45404 0.0
H334 H 0.088 0.17291 0.47675 0.0
H335 H 0.28278 0.99845 0.50149 0.0
H336 H 0.21525 0.61049 0.05508 0.0
H337 H 0.25485 0.5872 0.06032 0.0
H338 H 0.27807 0.62735 0.95894 0.0
H339 H 0.23906 0.65149 0.9541 0.0
H340 H 0.2891 0.56931 0.96255 0.0
H341 H 0.2963 0.65356 0.03832 0.0
H342 H 0.28392 0.68525 0.08918 0.0
H343 H 0.29473 0.61887 0.16863 0.0
H344 H 0.30684 0.58666 0.11811 0.0
H345 H 0.41574 0.55714 0.95972 0.0
H346 H 0.37385 0.57382 0.96061 0.0
H347 H 0.36579 0.54279 0.07282 0.0
H348 H 0.40823 0.52703 0.07262 0.0
H349 H 0.34485 0.59132 0.06775 0.0
H350 H 0.34079 0.50779 0.99514 0.0
H351 H 0.35232 0.47447 0.94566 0.0
H352 H 0.33419 0.53587 0.86236 0.0
H353 H 0.32287 0.56972 0.91135 0.0
C354 C 0.22883 0.61456 0.03403 0.0
C355 C 0.22389 0.63294 0.00417 0.0
C356 C 0.25138 0.60109 0.03698 0.0
C357 C 0.26935 0.60565 0.01006 0.0
C358 C 0.26435 0.62345 0.97987 0.0
C359 C 0.24195 0.63711 0.97707 0.0
C360 C 0.29367 0.59249 0.01356 0.0
C361 C 0.3014 0.5742 0.98538 0.0
C362 C 0.30929 0.59819 0.04405 0.0
C363 C 0.3022 0.61762 0.07441 0.0
C364 C 0.29584 0.64566 0.0666 0.0
C365 C 0.2889 0.66372 0.09536 0.0
C366 C 0.28846 0.65405 0.1321 0.0
C367 C 0.29503 0.62632 0.14015 0.0
C368 C 0.30195 0.60815 0.11147 0.0
C369 C 0.40507 0.55382 0.9846 0.0
C370 C 0.41525 0.5406 0.01603 0.0
C371 C 0.38103 0.56322 0.985 0.0
C372 C 0.36642 0.55897 0.01645 0.0
C373 C 0.37665 0.54616 0.04813 0.0
C374 C 0.40089 0.53715 0.04799 0.0
C375 C 0.34063 0.56843 0.01626 0.0
C376 C 0.33255 0.58602 0.04508 0.0
C377 C 0.32453 0.56175 0.98658 0.0
C378 C 0.33114 0.54137 0.95696 0.0
C379 C 0.3394 0.51425 0.96628 0.0
C380 C 0.34588 0.49526 0.93831 0.0
C381 C 0.34403 0.50307 0.9009 0.0
C382 C 0.33563 0.52986 0.89136 0.0
C383 C 0.32914 0.54895 0.91922 0.0
H384 H 0.34907 0.48834 0.87929 0.0
H385 H 0.28309 0.66807 0.15433 0.0
H386 H 0.74294 0.8439 0.56173 0.0
H387 H 0.78132 0.86953 0.56019 0.0
H388 H 0.74789 0.93388 0.49223 0.0
H389 H 0.70952 0.90746 0.49254 0.0
H390 H 0.79026 0.92319 0.46609 0.0
H391 H 0.76198 0.94414 0.58754 0.0
H392 H 0.74526 0.9349 0.64992 0.0
H393 H 0.80792 0.88498 0.67749 0.0
H394 H 0.82488 0.89359 0.61509 0.0
H395 H 0.89681 0.00979 0.49594 0.0
H396 H 0.85453 0.99342 0.4985 0.0
H397 H 0.87892 0.91336 0.54092 0.0
H398 H 0.92112 0.92929 0.53798 0.0
H399 H 0.83905 0.9389 0.58089 0.0
H400 H 0.86433 0.91609 0.4547 0.0
H401 H 0.88032 0.92795 0.39263 0.0
H402 H 0.8216 0.98621 0.37558 0.0
H403 H 0.80545 0.97496 0.43782 0.0
C404 C 0.74373 0.86366 0.54679 0.0
C405 C 0.72326 0.87388 0.52756 0.0
C406 C 0.76565 0.87839 0.54603 0.0
C407 C 0.76742 0.90403 0.52681 0.0
C408 C 0.74696 0.91424 0.50742 0.0
C409 C 0.72508 0.8992 0.50763 0.0
C410 C 0.79094 0.91943 0.52597 0.0
C411 C 0.80065 0.92713 0.49133 0.0
C412 C 0.80469 0.92451 0.55881 0.0
C413 C 0.79463 0.91937 0.5965 0.0
C414 C 0.77213 0.93104 0.60681 0.0
C415 C 0.76262 0.92594 0.64219 0.0
C416 C 0.7755 0.90933 0.66763 0.0
C417 C 0.79796 0.89784 0.65776 0.0
C418 C 0.80755 0.90286 0.6224 0.0
C419 C 0.89315 0.98872 0.50584 0.0
C420 C 0.91231 0.9708 0.51666 0.0
C421 C 0.86903 0.97941 0.50721 0.0
C422 C 0.86371 0.9522 0.51985 0.0
C423 C 0.88272 0.93445 0.53114 0.0
C424 C 0.90681 0.94355 0.52926 0.0
C425 C 0.83834 0.94192 0.52114 0.0
C426 C 0.82836 0.93527 0.55586 0.0
C427 C 0.8242 0.9383 0.48851 0.0
C428 C 0.83386 0.94494 0.45107 0.0
C429 C 0.85496 0.93162 0.43785 0.0
C430 C 0.86403 0.93819 0.40262 0.0
C431 C 0.85203 0.95789 0.38022 0.0
C432 C 0.8309 0.971 0.39299 0.0
C433 C 0.82178 0.96452 0.42823 0.0
H434 H 0.85908 0.96295 0.35295 0.0
H435 H 0.7681 0.90539 0.695 0.0
H436 H 0.792 0.39272 0.98166 0.0
H437 H 0.75238 0.41646 0.97716 0.0
H438 H 0.72085 0.35336 0.04833 0.0
H439 H 0.76041 0.32981 0.05332 0.0
H440 H 0.69373 0.36628 0.98053 0.0
H441 H 0.73252 0.41189 0.08606 0.0
H442 H 0.76563 0.43806 0.11705 0.0
H443 H 0.75683 0.50584 0.03913 0.0
H444 H 0.72388 0.47985 0.00733 0.0
H445 H 0.5809 0.42239 0.03128 0.0
H446 H 0.62165 0.40225 0.03081 0.0
H447 H 0.64997 0.47923 0.98452 0.0
H448 H 0.60921 0.49998 0.98628 0.0
H449 H 0.68002 0.46093 0.0347 0.0
H450 H 0.64077 0.41869 0.93044 0.0
H451 H 0.60848 0.39354 0.89609 0.0
H452 H 0.6191 0.32094 0.96538 0.0
H453 H 0.65123 0.3458 0.00051 0.0
C454 C 0.77657 0.38395 0.99624 0.0
C455 C 0.7792 0.35954 0.01795 0.0
C456 C 0.75404 0.39753 0.99375 0.0
C457 C 0.73379 0.38665 0.01251 0.0
C458 C 0.73631 0.36204 0.0337 0.0
C459 C 0.75888 0.34874 0.03669 0.0
C460 C 0.70991 0.40088 0.01022 0.0
C461 C 0.69059 0.38686 0.99263 0.0
C462 C 0.7062 0.42812 0.02487 0.0
C463 C 0.72594 0.44378 0.04406 0.0
C464 C 0.7378 0.43225 0.07531 0.0
C465 C 0.75651 0.44708 0.09307 0.0
C466 C 0.76339 0.47356 0.07999 0.0
C467 C 0.75152 0.4853 0.04919 0.0
C468 C 0.73282 0.47054 0.0313 0.0
C469 C 0.59577 0.43506 0.02094 0.0
C470 C 0.59179 0.46273 0.00858 0.0
C471 C 0.61908 0.42345 0.0205 0.0
C472 C 0.63885 0.43897 0.00685 0.0
C473 C 0.635 0.46678 0.99501 0.0
C474 C 0.6117 0.4786 0.99599 0.0
C475 C 0.6635 0.42617 0.00543 0.0
C476 C 0.68305 0.44045 0.02226 0.0
C477 C 0.66753 0.39931 0.98947 0.0
C478 C 0.64829 0.38421 0.96831 0.0
C479 C 0.63611 0.39743 0.93852 0.0
C480 C 0.61785 0.38321 0.91889 0.0
C481 C 0.61171 0.35568 0.9286 0.0
C482 C 0.62386 0.34228 0.95791 0.0
C483 C 0.64212 0.35641 0.97767 0.0
H484 H 0.59756 0.34471 0.91336 0.0
H485 H 0.77787 0.48501 0.09379 0.0
H486 H 0.07739 0.73833 0.2257 0.0
H487 H 0.065 0.76715 0.27925 0.0
H488 H 0.07469 0.84228 0.21373 0.0
H489 H 0.087 0.81378 0.16047 0.0
H490 H 0.0961 0.84506 0.2848 0.0
H491 H 0.01952 0.81856 0.22663 0.0
H492 H 0.98916 0.78454 0.20346 0.0
H493 H 0.98341 0.74874 0.31284 0.0
H494 H 0.01402 0.78233 0.33653 0.0
H495 H 0.03614 0.95491 0.37399 0.0
H496 H 0.04889 0.91878 0.33019 0.0
H497 H 0.02515 0.85425 0.40618 0.0
H498 H 0.01169 0.89046 0.45003 0.0
H499 H 0.01272 0.84092 0.33679 0.0
H500 H 0.08578 0.8697 0.39714 0.0
H501 H 0.11642 0.90292 0.42144 0.0
H502 H 0.13 0.93269 0.31062 0.0
H503 H 0.09919 0.89993 0.28567 0.0
C504 C 0.0769 0.761 0.22289 0.0
C505 C 0.08296 0.77385 0.18894 0.0
C506 C 0.06976 0.77738 0.25334 0.0
C507 C 0.06886 0.8068 0.25029 0.0
C508 C 0.07525 0.81961 0.21659 0.0
C509 C 0.0821 0.8033 0.18615 0.0
C510 C 0.06124 0.82458 0.28198 0.0
C511 C 0.07785 0.8443 0.2961 0.0
C512 C 0.0377 0.82282 0.29746 0.0
C513 C 0.01927 0.80271 0.28324 0.0
C514 C 0.01195 0.80326 0.24565 0.0
C515 C 0.99466 0.78409 0.23245 0.0
C516 C 0.98442 0.76442 0.25663 0.0
C517 C 0.9914 0.76394 0.29411 0.0
C518 C 0.0087 0.78304 0.30745 0.0
C519 C 0.03357 0.93305 0.38147 0.0
C520 C 0.02305 0.92559 0.41567 0.0
C521 C 0.04099 0.91239 0.35643 0.0
C522 C 0.03847 0.88379 0.36524 0.0
C523 C 0.02741 0.8762 0.39892 0.0
C524 C 0.01975 0.89692 0.42394 0.0
C525 C 0.04739 0.86203 0.33903 0.0
C526 C 0.0311 0.84149 0.32598 0.0
C527 C 0.07135 0.86283 0.32473 0.0
C528 C 0.09004 0.88247 0.33957 0.0
C529 C 0.09518 0.88346 0.37797 0.0
C530 C 0.1126 0.90219 0.39186 0.0
C531 C 0.12512 0.91994 0.3676 0.0
C532 C 0.12028 0.91894 0.32938 0.0
C533 C 0.10286 0.90026 0.31534 0.0
H534 H 0.13859 0.93443 0.37841 0.0
H535 H 0.97104 0.74961 0.24636 0.0
H536 H 0.58344 0.66851 0.63364 0.0
H537 H 0.57156 0.64311 0.68978 0.0
H538 H 0.55297 0.72165 0.74284 0.0
H539 H 0.56591 0.74723 0.68693 0.0
H540 H 0.57317 0.68929 0.79175 0.0
H541 H 0.50864 0.67733 0.70508 0.0
H542 H 0.48914 0.66614 0.64488 0.0
H543 H 0.51439 0.58091 0.65301 0.0
H544 H 0.53436 0.59168 0.71303 0.0
H545 H 0.48606 0.579 0.8874 0.0
H546 H 0.4949 0.61271 0.83803 0.0
H547 H 0.57156 0.60678 0.86361 0.0
H548 H 0.56272 0.57396 0.91403 0.0
H549 H 0.51745 0.6079 0.77746 0.0
H550 H 0.60139 0.66598 0.84172 0.0
H551 H 0.61597 0.68129 0.90357 0.0
H552 H 0.54262 0.68204 0.944 0.0
H553 H 0.52754 0.66716 0.88226 0.0
C554 C 0.57684 0.6803 0.65735 0.0
C555 C 0.57529 0.70973 0.65596 0.0
C556 C 0.56998 0.66581 0.68935 0.0
C557 C 0.56079 0.68039 0.72026 0.0
C558 C 0.55987 0.70992 0.71929 0.0
C559 C 0.5672 0.7245 0.68741 0.0
C560 C 0.55189 0.66462 0.75319 0.0
C561 C 0.56092 0.67155 0.78869 0.0
C562 C 0.53526 0.64205 0.74945 0.0
C563 C 0.52314 0.63538 0.71344 0.0
C564 C 0.51016 0.65624 0.69392 0.0
C565 C 0.49901 0.64997 0.65984 0.0
C566 C 0.50056 0.62284 0.6451 0.0
C567 C 0.51322 0.60191 0.66446 0.0
C568 C 0.52444 0.60808 0.69853 0.0
C569 C 0.5048 0.58499 0.88263 0.0
C570 C 0.5237 0.57383 0.90463 0.0
C571 C 0.50983 0.60428 0.85438 0.0
C572 C 0.53387 0.61259 0.84729 0.0
C573 C 0.5528 0.60127 0.86907 0.0
C574 C 0.54774 0.58234 0.89774 0.0
C575 C 0.53925 0.63201 0.81598 0.0
C576 C 0.52955 0.62576 0.78071 0.0
C577 C 0.55448 0.65584 0.82027 0.0
C578 C 0.56337 0.66519 0.85739 0.0
C579 C 0.58836 0.66955 0.86374 0.0
C580 C 0.59671 0.67813 0.8988 0.0
C581 C 0.58024 0.68255 0.92772 0.0
C582 C 0.55536 0.67851 0.92161 0.0
C583 C 0.54691 0.66997 0.88659 0.0
H584 H 0.58675 0.68915 0.95485 0.0
H585 H 0.49192 0.61803 0.6187 0.0
H586 H 0.95813 0.19055 0.13677 0.0
H587 H 0.96556 0.16134 0.19114 0.0
H588 H 0.93674 0.22632 0.26217 0.0
H589 H 0.93027 0.25654 0.20766 0.0
H590 H 0.97629 0.20164 0.2935 0.0
H591 H 0.90182 0.17071 0.23938 0.0
H592 H 0.87401 0.15532 0.1893 0.0
H593 H 0.91873 0.08284 0.16959 0.0
H594 H 0.94704 0.09802 0.21919 0.0
H595 H 0.95941 0.10174 0.44269 0.0
H596 H 0.95055 0.13633 0.39388 0.0
H597 H 0.98985 0.08595 0.31451 0.0
H598 H 0.99919 0.05153 0.3632 0.0
H599 H 0.94165 0.10526 0.29129 0.0
H600 H 0.01734 0.13926 0.34415 0.0
H601 H 0.04393 0.15509 0.39554 0.0
H602 H 0.99434 0.22234 0.41981 0.0
H603 H 0.96725 0.20663 0.36886 0.0
C604 C 0.95385 0.19903 0.16394 0.0
C605 C 0.94362 0.22599 0.16776 0.0
C606 C 0.95782 0.18208 0.19501 0.0
C607 C 0.95126 0.19143 0.23061 0.0
C608 C 0.94175 0.21863 0.23486 0.0
C609 C 0.9379 0.23577 0.20368 0.0
C610 C 0.95392 0.17231 0.26296 0.0
C611 C 0.96836 0.18075 0.29332 0.0
C612 C 0.94371 0.14496 0.26259 0.0
C613 C 0.92666 0.13563 0.23283 0.0
C614 C 0.90583 0.15159 0.22419 0.0
C615 C 0.88996 0.14289 0.19591 0.0
C616 C 0.89462 0.11815 0.17622 0.0
C617 C 0.91515 0.10202 0.18484 0.0
C618 C 0.9311 0.11065 0.21307 0.0
C619 C 0.96611 0.09799 0.41482 0.0
C620 C 0.98 0.07393 0.40674 0.0
C621 C 0.96112 0.11781 0.38708 0.0
C622 C 0.96965 0.11365 0.35077 0.0
C623 C 0.98316 0.08946 0.34246 0.0
C624 C 0.98852 0.0699 0.37029 0.0
C625 C 0.96439 0.13441 0.32123 0.0
C626 C 0.94937 0.12625 0.29151 0.0
C627 C 0.97382 0.16205 0.32245 0.0
C628 C 0.99012 0.17156 0.35299 0.0
C629 C 0.01198 0.15725 0.36068 0.0
C630 C 0.02717 0.16624 0.38968 0.0
C631 C 0.02079 0.18965 0.41101 0.0
C632 C 0.99923 0.20417 0.40331 0.0
C633 C 0.98396 0.19525 0.37436 0.0
H634 H 0.03258 0.19658 0.43344 0.0
H635 H 0.88231 0.11144 0.15434 0.0
H636 H 0.45462 0.26186 0.68755 0.0
H637 H 0.46689 0.29279 0.73908 0.0
H638 H 0.3923 0.31875 0.7529 0.0
H639 H 0.37991 0.28769 0.70175 0.0
H640 H 0.42772 0.36346 0.74348 0.0
H641 H 0.41409 0.27947 0.81626 0.0
H642 H 0.41995 0.22945 0.83202 0.0
H643 H 0.49653 0.24351 0.84718 0.0
H644 H 0.49118 0.29355 0.83098 0.0
H645 H 0.44176 0.44969 0.9015 0.0
H646 H 0.42838 0.41448 0.85633 0.0
H647 H 0.49729 0.37157 0.86761 0.0
H648 H 0.51008 0.40582 0.9146 0.0
H649 H 0.46467 0.33449 0.86385 0.0
H650 H 0.48115 0.41574 0.78994 0.0
H651 H 0.47855 0.46545 0.77076 0.0
H652 H 0.40162 0.4568 0.75276 0.0
H653 H 0.40371 0.40712 0.77228 0.0
C654 C 0.44084 0.27388 0.70201 0.0
C655 C 0.41633 0.27238 0.69086 0.0
C656 C 0.44784 0.29143 0.73138 0.0
C657 C 0.43046 0.30797 0.74966 0.0
C658 C 0.40592 0.30606 0.7391 0.0
C659 C 0.39886 0.28821 0.71013 0.0
C660 C 0.43809 0.32857 0.77822 0.0
C661 C 0.43549 0.35723 0.77007 0.0
C662 C 0.44906 0.32025 0.81212 0.0
C663 C 0.45226 0.2902 0.82205 0.0
C664 C 0.43221 0.27184 0.82263 0.0
C665 C 0.43544 0.2435 0.83172 0.0
C666 C 0.45861 0.23329 0.84051 0.0
C667 C 0.4786 0.25143 0.84033 0.0
C668 C 0.47547 0.27979 0.83123 0.0
C669 C 0.45405 0.43276 0.89423 0.0
C670 C 0.47699 0.43053 0.91133 0.0
C671 C 0.44645 0.41271 0.86825 0.0
C672 C 0.462 0.39062 0.85785 0.0
C673 C 0.48494 0.38837 0.87508 0.0
C674 C 0.49228 0.408 0.90182 0.0
C675 C 0.45428 0.36971 0.82934 0.0
C676 C 0.45691 0.34093 0.83734 0.0
C677 C 0.44386 0.37793 0.79481 0.0
C678 C 0.44255 0.40778 0.78291 0.0
C679 C 0.46365 0.42449 0.78213 0.0
C680 C 0.46227 0.45265 0.77116 0.0
C681 C 0.43992 0.46429 0.76064 0.0
C682 C 0.41891 0.44777 0.76096 0.0
C683 C 0.42019 0.4196 0.77194 0.0
H684 H 0.4389 0.4861 0.75216 0.0
H685 H 0.46107 0.21134 0.84753 0.0
H686 H 0.54788 0.74214 0.33645 0.0
H687 H 0.53515 0.71254 0.28422 0.0
H688 H 0.60884 0.71104 0.24371 0.0
H689 H 0.62182 0.74044 0.2962 0.0
H690 H 0.57263 0.71333 0.18602 0.0
H691 H 0.59253 0.66002 0.29637 0.0
H692 H 0.5897 0.64883 0.36325 0.0
H693 H 0.51323 0.63268 0.35089 0.0
H694 H 0.51552 0.6443 0.28402 0.0
H695 H 0.56593 0.58671 0.08105 0.0
H696 H 0.57734 0.6241 0.12436 0.0
H697 H 0.50742 0.61736 0.17765 0.0
H698 H 0.49609 0.57948 0.1351 0.0
H699 H 0.54192 0.6205 0.22797 0.0
H700 H 0.5216 0.67226 0.11752 0.0
H701 H 0.52374 0.68423 0.0508 0.0
H702 H 0.59966 0.70366 0.06263 0.0
H703 H 0.59806 0.69142 0.12935 0.0
C704 C 0.56132 0.73582 0.31615 0.0
C705 C 0.58592 0.74325 0.32074 0.0
C706 C 0.554 0.71904 0.28627 0.0
C707 C 0.57115 0.7093 0.2605 0.0
C708 C 0.59536 0.71837 0.26336 0.0
C709 C 0.60273 0.73519 0.29332 0.0
C710 C 0.56429 0.68728 0.23326 0.0
C711 C 0.56613 0.69291 0.19505 0.0
C712 C 0.55547 0.66086 0.24523 0.0
C713 C 0.55415 0.6533 0.28527 0.0
C714 C 0.57508 0.65428 0.30797 0.0
C715 C 0.57357 0.64785 0.34587 0.0
C716 C 0.55129 0.64012 0.36133 0.0
C717 C 0.53047 0.63871 0.33889 0.0
C718 C 0.53186 0.64521 0.30098 0.0
C719 C 0.55295 0.59318 0.10195 0.0
C720 C 0.53008 0.58008 0.10458 0.0
C721 C 0.55946 0.6147 0.12656 0.0
C722 C 0.5431 0.62383 0.15392 0.0
C723 C 0.52032 0.6107 0.15671 0.0
C724 C 0.51387 0.58904 0.13234 0.0
C725 C 0.54996 0.64648 0.18042 0.0
C726 C 0.54827 0.64091 0.21869 0.0
C727 C 0.5588 0.67294 0.1684 0.0
C728 C 0.55976 0.68066 0.12837 0.0
C729 C 0.53879 0.6789 0.10584 0.0
C730 C 0.5399 0.68576 0.06803 0.0
C731 C 0.56184 0.69462 0.05246 0.0
C732 C 0.58269 0.69675 0.07472 0.0
C733 C 0.58169 0.68988 0.11255 0.0
H734 H 0.56266 0.69989 0.02316 0.0
H735 H 0.55016 0.63515 0.39069 0.0
H736 H 0.92473 0.26738 0.79335 0.0
H737 H 0.93743 0.23741 0.74147 0.0
H738 H 0.96108 0.17378 0.81906 0.0
H739 H 0.94731 0.20251 0.87078 0.0
H740 H 0.9948 0.18639 0.75819 0.0
H741 H 0.9099 0.1639 0.78291 0.0
H742 H 0.86657 0.17618 0.79003 0.0
H743 H 0.86478 0.20845 0.67836 0.0
H744 H 0.90823 0.19673 0.67081 0.0
H745 H 0.00555 0.06102 0.65476 0.0
H746 H 0.99646 0.09774 0.70022 0.0
H747 H 0.95486 0.1427 0.61705 0.0
H748 H 0.96288 0.10535 0.57214 0.0
H749 H 0.93121 0.14419 0.6771 0.0
H750 H 0.01388 0.1639 0.64811 0.0
H751 H 0.05748 0.154 0.63895 0.0
H752 H 0.06473 0.13094 0.75409 0.0
H753 H 0.02109 0.14033 0.76383 0.0
C754 C 0.93251 0.24697 0.79946 0.0
C755 C 0.935 0.23753 0.83647 0.0
C756 C 0.93994 0.23 0.76976 0.0
C757 C 0.95023 0.20349 0.77658 0.0
C758 C 0.95341 0.19434 0.81332 0.0
C759 C 0.94564 0.21099 0.84291 0.0
C760 C 0.95654 0.18441 0.74561 0.0
C761 C 0.98098 0.17701 0.74046 0.0
C762 C 0.93849 0.17291 0.72198 0.0
C763 C 0.91236 0.17977 0.72646 0.0
C764 C 0.90032 0.17386 0.76001 0.0
C765 C 0.87573 0.18066 0.7641 0.0
C766 C 0.86295 0.19317 0.73471 0.0
C767 C 0.87471 0.19882 0.70113 0.0
C768 C 0.89931 0.19209 0.69693 0.0
C769 C 0.99453 0.07878 0.64619 0.0
C770 C 0.98491 0.0803 0.60993 0.0
C771 C 0.98948 0.09989 0.67211 0.0
C772 C 0.97532 0.12334 0.66195 0.0
C773 C 0.96582 0.12488 0.62563 0.0
C774 C 0.97043 0.10351 0.59996 0.0
C775 C 0.96966 0.14572 0.68953 0.0
C776 C 0.94526 0.15375 0.69424 0.0
C777 C 0.98785 0.15817 0.7123 0.0
C778 C 0.01415 0.15261 0.70662 0.0
C779 C 0.02473 0.15654 0.67142 0.0
C780 C 0.04946 0.15104 0.66613 0.0
C781 C 0.06385 0.14179 0.6959 0.0
C782 C 0.05355 0.13809 0.73105 0.0
C783 C 0.02883 0.14353 0.73648 0.0
H784 H 0.08299 0.13754 0.69174 0.0
H785 H 0.84391 0.19842 0.73792 0.0
H786 H 0.44251 0.32764 0.38784 0.0
H787 H 0.4514 0.35508 0.3322 0.0
H788 H 0.44893 0.2797 0.26552 0.0
H789 H 0.44022 0.25182 0.32155 0.0
H790 H 0.48884 0.31617 0.24941 0.0
H791 H 0.4022 0.32042 0.26125 0.0
H792 H 0.36354 0.32776 0.29438 0.0
H793 H 0.38322 0.41358 0.31617 0.0
H794 H 0.42218 0.40663 0.28367 0.0
H795 H 0.48899 0.3954 0.08097 0.0
H796 H 0.47894 0.36188 0.13004 0.0
H797 H 0.46714 0.43047 0.20654 0.0
H798 H 0.4764 0.46414 0.1573 0.0
H799 H 0.43259 0.3934 0.21383 0.0
H800 H 0.52009 0.38893 0.20741 0.0
H801 H 0.55964 0.38225 0.17652 0.0
H802 H 0.53945 0.29799 0.14657 0.0
H803 H 0.49963 0.3043 0.17688 0.0
C804 C 0.44419 0.31679 0.36145 0.0
C805 C 0.44078 0.28755 0.35905 0.0
C806 C 0.44906 0.33254 0.32965 0.0
C807 C 0.45059 0.31943 0.29478 0.0
C808 C 0.44774 0.29016 0.29225 0.0
C809 C 0.44266 0.27434 0.32414 0.0
C810 C 0.45482 0.33666 0.26114 0.0
C811 C 0.47637 0.33275 0.24111 0.0
C812 C 0.43873 0.35859 0.25097 0.0
C813 C 0.4152 0.36293 0.27025 0.0
C814 C 0.39837 0.3408 0.27334 0.0
C815 C 0.37639 0.3449 0.29198 0.0
C816 C 0.37095 0.3711 0.30743 0.0
C817 C 0.38746 0.39329 0.3042 0.0
C818 C 0.40948 0.38929 0.28564 0.0
C819 C 0.4843 0.40336 0.10826 0.0
C820 C 0.48357 0.43246 0.11526 0.0
C821 C 0.47865 0.38415 0.13634 0.0
C822 C 0.47261 0.39362 0.17215 0.0
C823 C 0.47174 0.42266 0.17912 0.0
C824 C 0.47709 0.44189 0.15096 0.0
C825 C 0.46694 0.37341 0.20238 0.0
C826 C 0.44503 0.3767 0.22179 0.0
C827 C 0.48282 0.35106 0.21213 0.0
C828 C 0.50679 0.3472 0.19406 0.0
C829 C 0.52402 0.36905 0.19399 0.0
C830 C 0.54649 0.36532 0.17663 0.0
C831 C 0.55202 0.33974 0.1595 0.0
C832 C 0.53512 0.31781 0.15979 0.0
C833 C 0.5126 0.32144 0.17708 0.0
H834 H 0.56943 0.3369 0.14606 0.0
H835 H 0.35392 0.37424 0.32185 0.0
H836 H 0.03268 0.77366 0.85398 0.0
H837 H 0.0238 0.80274 0.79907 0.0
H838 H 0.09985 0.82379 0.79034 0.0
H839 H 0.10888 0.79449 0.84485 0.0
H840 H 0.06584 0.87085 0.79281 0.0
H841 H 0.07939 0.78316 0.72829 0.0
H842 H 0.07249 0.73281 0.71579 0.0
H843 H 0.99723 0.74942 0.69175 0.0
H844 H 0.00361 0.79985 0.70465 0.0
H845 H 0.06049 0.95056 0.62757 0.0
H846 H 0.0713 0.91662 0.67596 0.0
H847 H 0.00134 0.87645 0.66261 0.0
H848 H 0.99109 0.90939 0.61268 0.0
H849 H 0.03272 0.83808 0.67157 0.0
H850 H 0.01627 0.92322 0.7376 0.0
H851 H 0.01991 0.97357 0.75312 0.0
H852 H 0.09571 0.96235 0.77861 0.0
H853 H 0.0926 0.91199 0.76277 0.0
C854 C 0.0475 0.78421 0.83998 0.0
C855 C 0.07146 0.78184 0.85351 0.0
C856 C 0.04244 0.80071 0.80867 0.0
C857 C 0.0612 0.81534 0.79078 0.0
C858 C 0.08518 0.81257 0.8038 0.0
C859 C 0.09031 0.79573 0.83471 0.0
C860 C 0.0556 0.83491 0.75992 0.0
C861 C 0.05894 0.86375 0.76604 0.0
C862 C 0.04575 0.82554 0.7257 0.0
C863 C 0.04193 0.79524 0.7178 0.0
C864 C 0.06132 0.77605 0.72068 0.0
C865 C 0.05751 0.7475 0.71345 0.0
C866 C 0.03442 0.73791 0.70308 0.0
C867 C 0.0151 0.75687 0.69983 0.0
C868 C 0.01881 0.78544 0.70706 0.0
C869 C 0.04743 0.9345 0.63503 0.0
C870 C 0.0249 0.9327 0.61654 0.0
C871 C 0.05356 0.91517 0.66283 0.0
C872 C 0.03695 0.89425 0.6736 0.0
C873 C 0.01449 0.89236 0.6549 0.0
C874 C 0.0086 0.91125 0.62645 0.0
C875 C 0.04298 0.87433 0.70423 0.0
C876 C 0.03967 0.84536 0.69821 0.0
C877 C 0.05233 0.88363 0.73898 0.0
C878 C 0.05425 0.91389 0.74864 0.0
C879 C 0.03376 0.93153 0.74627 0.0
C880 C 0.03572 0.96006 0.75516 0.0
C881 C 0.05804 0.97116 0.76675 0.0
C882 C 0.07844 0.95373 0.76958 0.0
C883 C 0.07658 0.92519 0.76068 0.0
H884 H 0.05952 0.99326 0.77362 0.0
H885 H 0.03151 0.7158 0.69749 0.0
loop_
_geom_bond_atom_site_label_1
_geom_bond_atom_site_label_2
_geom_bond_distance
_geom_bond_site_symmetry_2
_ccdc_geom_bond_type
C0 C1 1.391 . S
C0 C4 1.391 . S
C0 H42 0.948 . S
C1 C0 1.391 . S
C1 C2 1.391 . S
C2 C1 1.391 . S
C2 H58 0.947 . S
C2 C59 1.392 . S
C3 C4 1.391 . S
C3 C7 1.397 . S
C3 C59 1.419 . S
C4 C0 1.391 . S
C4 C3 1.391 . S
C4 C5 1.399 . S
C5 C4 1.399 . S
C5 C8 1.396 . S
C5 C17 1.453 . S
C5 C18 1.684 . S
H6 C30 0.948 . S
C7 C3 1.397 . S
C7 C8 1.394 . S
C7 C26 1.723 1_556 S
C8 C5 1.396 . S
C8 C7 1.394 . S
C8 C38 1.723 1_556 S
H9 C32 0.947 . S
H10 C33 0.948 . S
H11 C39 0.982 . S
H12 C40 0.979 . S
H13 C40 0.980 . S
H14 C40 0.983 . S
H15 C39 0.979 . S
H16 C39 0.977 . S
C17 C5 1.453 . S
C17 H46 0.982 . S
C17 H47 0.979 . S
C17 H48 0.977 . S
C18 C5 1.684 . S
C18 H43 0.979 . S
C18 H44 0.980 . S
C18 H45 0.983 . S
C19 C20 1.391 . S
C19 C24 1.391 . S
C19 H49 0.948 . S
C20 C19 1.391 . S
C20 C21 1.391 . S
C21 C20 1.391 . S
C21 C22 1.392 . S
C21 H50 0.947 . S
C22 C21 1.392 . S
C22 C23 1.419 . S
C22 H51 0.948 . S
C23 C22 1.419 . S
C23 C24 1.391 . S
C23 C27 1.397 . S
C24 C19 1.391 . S
C24 C23 1.391 . S
C24 C25 1.399 . S
C25 C24 1.399 . S
C25 C26 1.396 . S
C25 C28 1.453 . S
C25 C29 1.684 . S
C26 C7 1.723 1_554 S
C26 C25 1.396 . S
C26 C27 1.394 . S
C27 C23 1.397 . S
C27 C26 1.394 . S
C27 C37 1.723 . S
C28 C25 1.453 . S
C28 H52 0.982 . S
C28 H53 0.979 . S
C28 H54 0.977 . S
C29 C25 1.684 . S
C29 H55 0.979 . S
C29 H56 0.980 . S
C29 H57 0.983 . S
C30 H6 0.948 . S
C30 C31 1.391 . S
C30 C35 1.391 . S
C31 C30 1.391 . S
C31 C32 1.391 1_554 S
C32 H9 0.947 . S
C32 C31 1.391 1_556 S
C32 C33 1.392 . S
C33 H10 0.948 . S
C33 C32 1.392 . S
C33 C34 1.443 . S
C34 C33 1.443 . S
C34 C35 1.365 1_556 S
C34 C38 1.393 1_556 S
C35 C30 1.391 . S
C35 C34 1.365 1_554 S
C35 C36 1.399 . S
C36 C35 1.399 . S
C36 C37 1.396 . S
C36 C39 1.453 . S
C36 C40 1.684 . S
C37 C27 1.723 . S
C37 C36 1.396 . S
C37 C38 1.394 . S
C38 C8 1.723 1_554 S
C38 C34 1.393 1_554 S
C38 C37 1.394 . S
C39 H11 0.982 . S
C39 H15 0.979 . S
C39 H16 0.977 . S
C39 C36 1.453 . S
C40 H12 0.979 . S
C40 H13 0.980 . S
C40 H14 0.983 . S
C40 C36 1.684 . S
H41 C59 0.948 . S
H42 C0 0.948 . S
H43 C18 0.979 . S
H44 C18 0.980 . S
H45 C18 0.983 . S
H46 C17 0.982 . S
H47 C17 0.979 . S
H48 C17 0.977 . S
H49 C19 0.948 . S
H50 C21 0.947 . S
H51 C22 0.948 . S
H52 C28 0.982 . S
H53 C28 0.979 . S
H54 C28 0.977 . S
H55 C29 0.979 . S
H56 C29 0.980 . S
H57 C29 0.983 . S
H58 C2 0.947 . S
C59 C2 1.392 . S
C59 C3 1.419 . S
C59 H41 0.948 . S
C60 C61 1.391 . S
C60 C64 1.391 . S
C60 H102 0.948 . S
C61 C60 1.391 . S
C61 C62 1.391 . S
C62 C61 1.391 . S
C62 H118 0.947 . S
C62 C119 1.392 . S
C63 C64 1.391 . S
C63 C67 1.397 . S
C63 C119 1.419 . S
C64 C60 1.391 . S
C64 C63 1.391 . S
C64 C65 1.399 . S
C65 C64 1.399 . S
C65 C68 1.396 . S
C65 C77 1.453 . S
C65 C78 1.684 . S
H66 C90 0.948 . S
C67 C63 1.397 . S
C67 C68 1.394 . S
C67 C86 1.723 . S
C68 C65 1.396 . S
C68 C67 1.394 . S
C68 C98 1.723 . S
H69 C92 0.947 . S
H70 C93 0.948 . S
H71 C99 0.982 . S
H72 C100 0.979 . S
H73 C100 0.980 . S
H74 C100 0.983 . S
H75 C99 0.979 . S
H76 C99 0.977 . S
C77 C65 1.453 . S
C77 H106 0.982 . S
C77 H107 0.979 . S
C77 H108 0.977 . S
C78 C65 1.684 . S
C78 H103 0.979 . S
C78 H104 0.980 . S
C78 H105 0.983 . S
C79 C80 1.391 . S
C79 C84 1.391 . S
C79 H109 0.948 . S
C80 C79 1.391 . S
C80 C81 1.391 . S
C81 C80 1.391 . S
C81 C82 1.392 . S
C81 H110 0.947 . S
C82 C81 1.392 . S
C82 C83 1.419 . S
C82 H111 0.948 . S
C83 C82 1.419 . S
C83 C84 1.391 . S
C83 C87 1.397 . S
C84 C79 1.391 . S
C84 C83 1.391 . S
C84 C85 1.399 . S
C85 C84 1.399 . S
C85 C86 1.396 . S
C85 C88 1.453 . S
C85 C89 1.684 . S
C86 C67 1.723 . S
C86 C85 1.396 . S
C86 C87 1.394 . S
C87 C83 1.397 . S
C87 C86 1.394 . S
C87 C97 1.723 . S
C88 C85 1.453 . S
C88 H112 0.982 . S
C88 H113 0.979 . S
C88 H114 0.977 . S
C89 C85 1.684 . S
C89 H115 0.979 . S
C89 H116 0.980 . S
C89 H117 0.983 . S
C90 H66 0.948 . S
C90 C91 1.391 . S
C90 C95 1.391 . S
C91 C90 1.391 . S
C91 C92 1.391 . S
C92 H69 0.947 . S
C92 C91 1.391 . S
C92 C93 1.392 . S
C93 H70 0.948 . S
C93 C92 1.392 . S
C93 C94 1.419 . S
C94 C93 1.419 . S
C94 C95 1.391 . S
C94 C98 1.397 . S
C95 C90 1.391 . S
C95 C94 1.391 . S
C95 C96 1.399 . S
C96 C95 1.399 . S
C96 C97 1.396 . S
C96 C99 1.453 . S
C96 C100 1.684 . S
C97 C87 1.723 . S
C97 C96 1.396 . S
C97 C98 1.394 . S
C98 C68 1.723 . S
C98 C94 1.397 . S
C98 C97 1.394 . S
C99 H71 0.982 . S
C99 H75 0.979 . S
C99 H76 0.977 . S
C99 C96 1.453 . S
C100 H72 0.979 . S
C100 H73 0.980 . S
C100 H74 0.983 . S
C100 C96 1.684 . S
H101 C119 0.948 . S
H102 C60 0.948 . S
H103 C78 0.979 . S
H104 C78 0.980 . S
H105 C78 0.983 . S
H106 C77 0.982 . S
H107 C77 0.979 . S
H108 C77 0.977 . S
H109 C79 0.948 . S
H110 C81 0.947 . S
H111 C82 0.948 . S
H112 C88 0.982 . S
H113 C88 0.979 . S
H114 C88 0.977 . S
H115 C89 0.979 . S
H116 C89 0.980 . S
H117 C89 0.983 . S
H118 C62 0.947 . S
C119 C62 1.392 . S
C119 C63 1.419 . S
C119 H101 0.948 . S
C120 C121 1.391 . S
C120 C124 1.391 . S
C120 H162 0.948 . S
C121 C120 1.391 . S
C121 C122 1.391 . S
C122 C121 1.391 . S
C122 H178 0.947 . S
C122 C179 1.392 . S
C123 C124 1.391 . S
C123 C127 1.397 . S
C123 C179 1.419 . S
C124 C120 1.391 . S
C124 C123 1.391 . S
C124 C125 1.399 . S
C125 C124 1.399 . S
C125 C128 1.396 . S
C125 C137 1.453 . S
C125 C138 1.684 . S
H126 C150 0.948 . S
C127 C123 1.397 . S
C127 C128 1.394 . S
C127 C146 1.723 1_554 S
C128 C125 1.396 . S
C128 C127 1.394 . S
C128 C158 1.723 . S
H129 C152 0.947 . S
H130 C153 0.948 . S
H131 C159 0.982 . S
H132 C160 0.979 . S
H133 C160 0.980 . S
H134 C160 0.983 . S
H135 C159 0.979 . S
H136 C159 0.977 . S
C137 C125 1.453 . S
C137 H166 0.982 . S
C137 H167 0.979 . S
C137 H168 0.977 . S
C138 C125 1.684 . S
C138 H163 0.979 . S
C138 H164 0.980 . S
C138 H165 0.983 . S
C139 C140 1.391 . S
C139 C144 1.391 . S
C139 H169 0.948 . S
C140 C139 1.391 . S
C140 C141 1.391 . S
C141 C140 1.391 . S
C141 C142 1.392 . S
C141 H170 0.947 . S
C142 C141 1.392 . S
C142 C143 1.419 . S
C142 H171 0.948 . S
C143 C142 1.419 . S
C143 C144 1.391 . S
C143 C147 1.397 . S
C144 C139 1.391 . S
C144 C143 1.391 . S
C144 C145 1.399 . S
C145 C144 1.399 . S
C145 C146 1.396 . S
C145 C148 1.453 . S
C145 C149 1.684 . S
C146 C127 1.723 1_556 S
C146 C145 1.396 . S
C146 C147 1.394 . S
C147 C143 1.397 . S
C147 C146 1.394 . S
C147 C157 1.723 . S
C148 C145 1.453 . S
C148 H172 0.982 . S
C148 H173 0.979 . S
C148 H174 0.977 1_556 S
C149 C145 1.684 . S
C149 H175 0.979 . S
C149 H176 0.980 1_556 S
C149 H177 0.983 . S
C150 H126 0.948 . S
C150 C151 1.391 1_556 S
C150 C155 1.391 . S
C151 C150 1.391 1_554 S
C151 C152 1.391 . S
C152 H129 0.947 . S
C152 C151 1.391 . S
C152 C153 1.392 . S
C153 H130 0.948 . S
C153 C152 1.392 . S
C153 C154 1.419 . S
C154 C153 1.419 . S
C154 C155 1.391 1_554 S
C154 C158 1.397 . S
C155 C150 1.391 . S
C155 C154 1.391 1_556 S
C155 C156 1.399 . S
C156 C155 1.399 . S
C156 C157 1.396 . S
C156 C159 1.453 . S
C156 C160 1.684 . S
C157 C147 1.723 . S
C157 C156 1.396 . S
C157 C158 1.394 1_556 S
C158 C128 1.723 . S
C158 C154 1.397 . S
C158 C157 1.394 1_554 S
C159 H131 0.982 . S
C159 H135 0.979 . S
C159 H136 0.977 . S
C159 C156 1.453 . S
C160 H132 0.979 . S
C160 H133 0.980 . S
C160 H134 0.983 . S
C160 C156 1.684 . S
H161 C179 0.948 . S
H162 C120 0.948 . S
H163 C138 0.979 . S
H164 C138 0.980 . S
H165 C138 0.983 . S
H166 C137 0.982 . S
H167 C137 0.979 . S
H168 C137 0.977 . S
H169 C139 0.948 . S
H170 C141 0.947 . S
H171 C142 0.948 . S
H172 C148 0.982 . S
H173 C148 0.979 . S
H174 C148 0.977 1_554 S
H175 C149 0.979 . S
H176 C149 0.980 1_554 S
H177 C149 0.983 . S
H178 C122 0.947 . S
C179 C122 1.392 . S
C179 C123 1.419 . S
C179 H161 0.948 . S
C180 C181 1.391 . S
C180 C184 1.391 . S
C180 H222 0.948 . S
C181 C180 1.391 . S
C181 C182 1.391 . S
C182 C181 1.391 . S
C182 H238 0.947 . S
C182 C239 1.392 . S
C183 C184 1.391 . S
C183 C187 1.397 . S
C183 C239 1.419 . S
C184 C180 1.391 . S
C184 C183 1.391 . S
C184 C185 1.399 . S
C185 C184 1.399 . S
C185 C188 1.396 . S
C185 C197 1.453 . S
C185 C198 1.684 . S
H186 C210 0.948 . S
C187 C183 1.397 . S
C187 C188 1.394 . S
C187 C206 1.723 . S
C188 C185 1.396 . S
C188 C187 1.394 . S
C188 C218 1.723 . S
H189 C212 0.947 . S
H190 C213 0.948 . S
H191 C219 0.982 . S
H192 C220 0.979 . S
H193 C220 0.980 . S
H194 C220 0.983 . S
H195 C219 0.979 . S
H196 C219 0.977 . S
C197 C185 1.453 . S
C197 H226 0.982 . S
C197 H227 0.979 . S
C197 H228 0.977 . S
C198 C185 1.684 . S
C198 H223 0.979 . S
C198 H224 0.980 . S
C198 H225 0.983 . S
C199 C200 1.391 . S
C199 C204 1.391 . S
C199 H229 0.948 . S
C200 C199 1.391 . S
C200 C201 1.391 . S
C201 C200 1.391 . S
C201 C202 1.392 . S
C201 H230 0.947 . S
C202 C201 1.392 . S
C202 C203 1.419 . S
C202 H231 0.948 . S
C203 C202 1.419 . S
C203 C204 1.391 . S
C203 C207 1.397 . S
C204 C199 1.391 . S
C204 C203 1.391 . S
C204 C205 1.399 . S
C205 C204 1.399 . S
C205 C206 1.396 . S
C205 C208 1.453 . S
C205 C209 1.684 . S
C206 C187 1.723 . S
C206 C205 1.396 . S
C206 C207 1.394 . S
C207 C203 1.397 . S
C207 C206 1.394 . S
C207 C217 1.723 . S
C208 C205 1.453 . S
C208 H232 0.982 . S
C208 H233 0.979 . S
C208 H234 0.977 . S
C209 C205 1.684 . S
C209 H235 0.979 . S
C209 H236 0.980 . S
C209 H237 0.983 . S
C210 H186 0.948 . S
C210 C211 1.391 . S
C210 C215 1.391 . S
C211 C210 1.391 . S
C211 C212 1.391 . S
C212 H189 0.947 . S
C212 C211 1.391 . S
C212 C213 1.392 . S
C213 H190 0.948 . S
C213 C212 1.392 . S
C213 C214 1.419 . S
C214 C213 1.419 . S
C214 C215 1.391 . S
C214 C218 1.397 . S
C215 C210 1.391 . S
C215 C214 1.391 . S
C215 C216 1.399 . S
C216 C215 1.399 . S
C216 C217 1.396 . S
C216 C219 1.453 . S
C216 C220 1.684 . S
C217 C207 1.723 . S
C217 C216 1.396 . S
C217 C218 1.394 . S
C218 C188 1.723 . S
C218 C214 1.397 . S
C218 C217 1.394 . S
C219 H191 0.982 . S
C219 H195 0.979 . S
C219 H196 0.977 . S
C219 C216 1.453 . S
C220 H192 0.979 . S
C220 H193 0.980 . S
C220 H194 0.983 . S
C220 C216 1.684 . S
H221 C239 0.948 . S
H222 C180 0.948 . S
H223 C198 0.979 . S
H224 C198 0.980 . S
H225 C198 0.983 . S
H226 C197 0.982 . S
H227 C197 0.979 . S
H228 C197 0.977 . S
H229 C199 0.948 . S
H230 C201 0.947 . S
H231 C202 0.948 . S
H232 C208 0.982 . S
H233 C208 0.979 . S
H234 C208 0.977 . S
H235 C209 0.979 . S
H236 C209 0.980 . S
H237 C209 0.983 . S
H238 C182 0.947 . S
C239 C182 1.392 . S
C239 C183 1.419 . S
C239 H221 0.948 . S
O240 Zn241 1.953 1_565 S
O240 C256 1.225 . S
Zn241 O240 1.953 1_545 S
Zn241 O242 1.949 1_655 S
Zn241 O248 1.919 . S
Zn241 O253 1.924 . S
O242 Zn241 1.949 1_455 S
O242 Zn243 1.923 . S
O242 Zn244 1.950 1_445 S
O242 Zn245 1.945 . S
Zn243 O242 1.923 . S
Zn243 O246 1.933 . S
Zn243 O249 1.941 . S
Zn243 O250 1.965 1_545 S
Zn244 O242 1.950 1_665 S
Zn244 O251 1.938 1_655 S
Zn244 O252 1.906 1_655 S
Zn244 O262 1.953 . S
Zn245 O242 1.945 . S
Zn245 O247 1.932 . S
Zn245 O254 1.977 1_545 S
Zn245 O255 1.910 1_455 S
O246 Zn243 1.933 . S
O246 C257 1.226 . S
O247 Zn245 1.932 . S
O247 C257 1.307 . S
O248 Zn241 1.919 . S
O248 C259 1.253 . S
O249 Zn243 1.941 . S
O249 C259 1.283 1_455 S
O250 Zn243 1.965 1_565 S
O250 C258 1.303 . S
O251 Zn244 1.938 1_455 S
O251 C258 1.247 . S
O252 Zn244 1.906 1_455 S
O252 C260 1.304 . S
O253 Zn241 1.924 . S
O253 C261 1.311 . S
O254 Zn245 1.977 1_565 S
O254 C260 1.272 . S
O255 Zn245 1.910 1_655 S
O255 C261 1.231 . S
C256 O240 1.225 . S
C256 O262 1.298 . S
C257 O246 1.226 . S
C257 O247 1.307 . S
C258 O250 1.303 . S
C258 O251 1.247 . S
C259 O248 1.253 . S
C259 O249 1.283 1_655 S
C260 O252 1.304 . S
C260 O254 1.272 . S
C261 O253 1.311 . S
C261 O255 1.231 . S
O262 Zn244 1.953 . S
O262 C256 1.298 . S
O263 Zn264 1.952 1_556 S
O263 C279 1.222 1_556 S
Zn264 O263 1.952 1_554 S
Zn264 O265 1.949 . S
Zn264 O271 1.919 1_554 S
Zn264 O276 1.924 . S
O265 Zn264 1.949 . S
O265 Zn266 1.923 1_554 S
O265 Zn267 1.950 . S
O265 Zn268 1.945 . S
Zn266 O265 1.923 1_556 S
Zn266 O269 1.933 . S
Zn266 O272 1.941 . S
Zn266 O273 1.965 . S
Zn267 O265 1.950 . S
Zn267 O274 1.938 1_554 S
Zn267 O275 1.906 . S
Zn267 O285 1.953 . S
Zn268 O265 1.945 . S
Zn268 O270 1.932 . S
Zn268 O277 1.977 . S
Zn268 O278 1.910 . S
O269 Zn266 1.933 . S
O269 C280 1.226 1_556 S
O270 Zn268 1.932 . S
O270 C280 1.307 . S
O271 Zn264 1.919 1_556 S
O271 C282 1.253 . S
O272 Zn266 1.941 . S
O272 C282 1.283 . S
O273 Zn266 1.965 . S
O273 C281 1.303 . S
O274 Zn267 1.938 1_556 S
O274 C281 1.247 . S
O275 Zn267 1.906 . S
O275 C283 1.304 . S
O276 Zn264 1.924 . S
O276 C284 1.311 . S
O277 Zn268 1.977 . S
O277 C283 1.272 . S
O278 Zn268 1.910 . S
O278 C284 1.231 . S
C279 O263 1.222 1_554 S
C279 O285 1.298 . S
C280 O269 1.226 1_554 S
C280 O270 1.307 . S
C281 O273 1.303 . S
C281 O274 1.247 . S
C282 O271 1.253 . S
C282 O272 1.283 . S
C283 O275 1.304 . S
C283 O277 1.272 . S
C284 O276 1.311 . S
C284 O278 1.231 . S
O285 Zn267 1.953 . S
O285 C279 1.298 . S
H286 C304 0.951 . S
H287 C306 0.951 . S
H288 C308 0.950 . S
H289 C309 0.950 . S
H290 C311 0.950 . S
H291 C314 0.950 . S
H292 C315 0.950 . S
H293 C317 0.950 1_565 S
H294 C318 0.950 . S
H295 C319 0.951 . S
H296 C321 0.951 . S
H297 C323 0.950 . S
H298 C324 0.950 . S
H299 C326 0.950 . S
H300 C329 0.950 . S
H301 C330 0.950 . S
H302 C332 0.950 . S
H303 C333 0.950 . S
C304 H286 0.951 . S
C304 C305 1.366 . S
C304 C306 1.388 . S
C305 C304 1.366 . S
C305 C309 1.385 . S
C306 H287 0.951 . S
C306 C304 1.388 . S
C306 C307 1.366 . S
C307 C306 1.366 . S
C307 C308 1.414 . S
C307 C310 1.499 . S
C308 H288 0.950 . S
C308 C307 1.414 . S
C308 C309 1.374 . S
C309 H289 0.950 . S
C309 C305 1.385 . S
C309 C308 1.374 . S
C310 C307 1.499 . S
C310 C311 1.373 . S
C310 C312 1.389 . S
C311 H290 0.950 . S
C311 C310 1.373 . S
C311 C327 1.377 . S
C312 C310 1.389 . S
C312 C313 1.524 . S
C312 C326 1.377 . S
C313 C312 1.524 . S
C313 C314 1.397 . S
C313 C318 1.363 . S
C314 H291 0.950 . S
C314 C313 1.397 . S
C314 C315 1.334 . S
C315 H292 0.950 . S
C315 C314 1.334 . S
C315 C316 1.287 . S
C316 C315 1.287 . S
C316 C317 1.524 . S
C316 H335 0.913 . S
C317 H293 0.950 1_545 S
C317 C316 1.524 . S
C317 C318 1.415 . S
C318 H294 0.950 . S
C318 C313 1.363 . S
C318 C317 1.415 . S
C319 H295 0.951 . S
C319 C320 1.366 . S
C319 C321 1.388 . S
C320 C319 1.366 . S
C320 C324 1.385 . S
C321 H296 0.951 . S
C321 C319 1.388 . S
C321 C322 1.366 . S
C322 C321 1.366 . S
C322 C323 1.414 . S
C322 C325 1.499 . S
C323 H297 0.950 . S
C323 C322 1.414 . S
C323 C324 1.374 . S
C324 H298 0.950 . S
C324 C320 1.385 . S
C324 C323 1.374 . S
C325 C322 1.499 . S
C325 C326 1.373 . S
C325 C327 1.389 . S
C326 H299 0.950 . S
C326 C312 1.377 . S
C326 C325 1.373 . S
C327 C311 1.377 . S
C327 C325 1.389 . S
C327 C328 1.524 . S
C328 C327 1.524 . S
C328 C329 1.397 . S
C328 C333 1.363 . S
C329 H300 0.950 . S
C329 C328 1.397 . S
C329 C330 1.334 . S
C330 H301 0.950 . S
C330 C329 1.334 . S
C330 C331 1.287 . S
C331 C330 1.287 . S
C331 C332 1.524 . S
C331 H334 0.999 . S
C332 H302 0.950 . S
C332 C331 1.524 . S
C332 C333 1.415 . S
C333 H303 0.950 . S
C333 C328 1.363 . S
C333 C332 1.415 . S
H334 C331 0.999 . S
H335 C316 0.913 . S
H336 C354 0.951 . S
H337 C356 0.951 . S
H338 C358 0.950 1_556 S
H339 C359 0.950 1_556 S
H340 C361 0.950 . S
H341 C364 0.950 . S
H342 C365 0.950 . S
H343 C367 0.950 . S
H344 C368 0.950 . S
H345 C369 0.951 1_556 S
H346 C371 0.951 1_556 S
H347 C373 0.950 . S
H348 C374 0.950 . S
H349 C376 0.950 . S
H350 C379 0.950 . S
H351 C380 0.950 . S
H352 C382 0.950 . S
H353 C383 0.950 . S
C354 H336 0.951 . S
C354 C355 1.366 . S
C354 C356 1.388 . S
C355 C354 1.366 . S
C355 C359 1.385 . S
C356 H337 0.951 . S
C356 C354 1.388 . S
C356 C357 1.366 . S
C357 C356 1.366 . S
C357 C358 1.414 . S
C357 C360 1.499 . S
C358 H338 0.950 1_554 S
C358 C357 1.414 . S
C358 C359 1.374 . S
C359 H339 0.950 1_554 S
C359 C355 1.385 . S
C359 C358 1.374 . S
C360 C357 1.499 . S
C360 C361 1.373 1_554 S
C360 C362 1.389 . S
C361 H340 0.950 . S
C361 C360 1.373 1_556 S
C361 C377 1.377 . S
C362 C360 1.389 . S
C362 C363 1.524 . S
C362 C376 1.377 . S
C363 C362 1.524 . S
C363 C364 1.397 . S
C363 C368 1.363 . S
C364 H341 0.950 . S
C364 C363 1.397 . S
C364 C365 1.334 . S
C365 H342 0.950 . S
C365 C364 1.334 . S
C365 C366 1.287 . S
C366 C365 1.287 . S
C366 C367 1.524 . S
C366 H385 0.913 . S
C367 H343 0.950 . S
C367 C366 1.524 . S
C367 C368 1.415 . S
C368 H344 0.950 . S
C368 C363 1.363 . S
C368 C367 1.415 . S
C369 H345 0.951 1_554 S
C369 C370 1.366 . S
C369 C371 1.388 . S
C370 C369 1.366 . S
C370 C374 1.385 . S
C371 H346 0.951 1_554 S
C371 C369 1.388 . S
C371 C372 1.366 . S
C372 C371 1.366 . S
C372 C373 1.414 . S
C372 C375 1.499 . S
C373 H347 0.950 . S
C373 C372 1.414 . S
C373 C374 1.374 . S
C374 H348 0.950 . S
C374 C370 1.385 . S
C374 C373 1.374 . S
C375 C372 1.499 . S
C375 C376 1.373 . S
C375 C377 1.389 1_554 S
C376 H349 0.950 . S
C376 C362 1.377 . S
C376 C375 1.373 . S
C377 C361 1.377 . S
C377 C375 1.389 1_556 S
C377 C378 1.524 . S
C378 C377 1.524 . S
C378 C379 1.397 . S
C378 C383 1.363 . S
C379 H350 0.950 . S
C379 C378 1.397 . S
C379 C380 1.334 . S
C380 H351 0.950 . S
C380 C379 1.334 . S
C380 C381 1.287 . S
C381 C380 1.287 . S
C381 C382 1.524 . S
C381 H384 0.999 . S
C382 H352 0.950 . S
C382 C381 1.524 . S
C382 C383 1.415 . S
C383 H353 0.950 . S
C383 C378 1.363 . S
C383 C382 1.415 . S
H384 C381 0.999 . S
H385 C366 0.913 . S
H386 C404 0.951 . S
H387 C406 0.951 . S
H388 C408 0.950 . S
H389 C409 0.950 . S
H390 C411 0.950 . S
H391 C414 0.950 . S
H392 C415 0.950 . S
H393 C417 0.950 . S
H394 C418 0.950 . S
H395 C419 0.951 . S
H396 C421 0.951 . S
H397 C423 0.950 . S
H398 C424 0.950 . S
H399 C426 0.950 . S
H400 C429 0.950 . S
H401 C430 0.950 . S
H402 C432 0.950 . S
H403 C433 0.950 . S
C404 H386 0.951 . S
C404 C405 1.366 . S
C404 C406 1.388 . S
C405 C404 1.366 . S
C405 C409 1.385 . S
C406 H387 0.951 . S
C406 C404 1.388 . S
C406 C407 1.366 . S
C407 C406 1.366 . S
C407 C408 1.414 . S
C407 C410 1.499 . S
C408 H388 0.950 . S
C408 C407 1.414 . S
C408 C409 1.374 . S
C409 H389 0.950 . S
C409 C405 1.385 . S
C409 C408 1.374 . S
C410 C407 1.499 . S
C410 C411 1.373 . S
C410 C412 1.389 . S
C411 H390 0.950 . S
C411 C410 1.373 . S
C411 C427 1.377 . S
C412 C410 1.389 . S
C412 C413 1.524 . S
C412 C426 1.377 . S
C413 C412 1.524 . S
C413 C414 1.397 . S
C413 C418 1.363 . S
C414 H391 0.950 . S
C414 C413 1.397 . S
C414 C415 1.334 . S
C415 H392 0.950 . S
C415 C414 1.334 . S
C415 C416 1.287 . S
C416 C415 1.287 . S
C416 C417 1.524 . S
C416 H435 0.913 . S
C417 H393 0.950 . S
C417 C416 1.524 . S
C417 C418 1.415 . S
C418 H394 0.950 . S
C418 C413 1.363 . S
C418 C417 1.415 . S
C419 H395 0.951 . S
C419 C420 1.366 . S
C419 C421 1.388 . S
C420 C419 1.366 . S
C420 C424 1.385 . S
C421 H396 0.951 . S
C421 C419 1.388 . S
C421 C422 1.366 . S
C422 C421 1.366 . S
C422 C423 1.414 . S
C422 C425 1.499 . S
C423 H397 0.950 . S
C423 C422 1.414 . S
C423 C424 1.374 . S
C424 H398 0.950 . S
C424 C420 1.385 . S
C424 C423 1.374 . S
C425 C422 1.499 . S
C425 C426 1.373 . S
C425 C427 1.389 . S
C426 H399 0.950 . S
C426 C412 1.377 . S
C426 C425 1.373 . S
C427 C411 1.377 . S
C427 C425 1.389 . S
C427 C428 1.524 . S
C428 C427 1.524 . S
C428 C429 1.397 . S
C428 C433 1.363 . S
C429 H400 0.950 . S
C429 C428 1.397 . S
C429 C430 1.334 . S
C430 H401 0.950 . S
C430 C429 1.334 . S
C430 C431 1.287 . S
C431 C430 1.287 . S
C431 C432 1.524 . S
C431 H434 0.999 . S
C432 H402 0.950 . S
C432 C431 1.524 . S
C432 C433 1.415 . S
C433 H403 0.950 . S
C433 C428 1.363 . S
C433 C432 1.415 . S
H434 C431 0.999 . S
H435 C416 0.913 . S
H436 C454 0.951 1_556 S
H437 C456 0.951 1_556 S
H438 C458 0.950 . S
H439 C459 0.950 . S
H440 C461 0.950 . S
H441 C464 0.950 . S
H442 C465 0.950 . S
H443 C467 0.950 . S
H444 C468 0.950 . S
H445 C469 0.951 . S
H446 C471 0.951 . S
H447 C473 0.948 1_556 S
H448 C474 0.950 1_556 S
H449 C476 0.950 . S
H450 C479 0.950 . S
H451 C480 0.950 . S
H452 C482 0.950 . S
H453 C483 0.950 . S
C454 H436 0.951 1_554 S
C454 C455 1.366 . S
C454 C456 1.388 . S
C455 C454 1.366 . S
C455 C459 1.385 . S
C456 H437 0.951 1_554 S
C456 C454 1.388 . S
C456 C457 1.366 . S
C457 C456 1.366 . S
C457 C458 1.414 . S
C457 C460 1.499 . S
C458 H438 0.950 . S
C458 C457 1.414 . S
C458 C459 1.374 . S
C459 H439 0.950 . S
C459 C455 1.385 . S
C459 C458 1.374 . S
C460 C457 1.499 . S
C460 C461 1.373 1_554 S
C460 C462 1.389 . S
C461 H440 0.950 . S
C461 C460 1.373 1_556 S
C461 C477 1.377 . S
C462 C460 1.389 . S
C462 C463 1.524 . S
C462 C476 1.377 . S
C463 C462 1.524 . S
C463 C464 1.397 . S
C463 C468 1.363 . S
C464 H441 0.950 . S
C464 C463 1.397 . S
C464 C465 1.334 . S
C465 H442 0.950 . S
C465 C464 1.334 . S
C465 C466 1.287 . S
C466 C465 1.287 . S
C466 C467 1.524 . S
C466 H485 0.913 . S
C467 H443 0.950 . S
C467 C466 1.524 . S
C467 C468 1.415 . S
C468 H444 0.950 . S
C468 C463 1.363 . S
C468 C467 1.415 . S
C469 H445 0.951 . S
C469 C470 1.366 . S
C469 C471 1.388 . S
C470 C469 1.366 . S
C470 C474 1.385 . S
C471 H446 0.951 . S
C471 C469 1.388 . S
C471 C472 1.366 . S
C472 C471 1.366 . S
C472 C473 1.416 . S
C472 C475 1.499 . S
C473 H447 0.948 1_554 S
C473 C472 1.416 . S
C473 C474 1.374 . S
C474 H448 0.950 1_554 S
C474 C470 1.385 . S
C474 C473 1.374 . S
C475 C472 1.499 . S
C475 C476 1.373 . S
C475 C477 1.389 1_554 S
C476 H449 0.950 . S
C476 C462 1.377 . S
C476 C475 1.373 . S
C477 C461 1.377 . S
C477 C475 1.389 1_556 S
C477 C478 1.524 . S
C478 C477 1.524 . S
C478 C479 1.397 . S
C478 C483 1.363 . S
C479 H450 0.950 . S
C479 C478 1.397 . S
C479 C480 1.334 . S
C480 H451 0.950 . S
C480 C479 1.334 . S
C480 C481 1.287 . S
C481 C480 1.287 . S
C481 C482 1.524 . S
C481 H484 0.999 . S
C482 H452 0.950 . S
C482 C481 1.524 . S
C482 C483 1.415 . S
C483 H453 0.950 . S
C483 C478 1.363 . S
C483 C482 1.415 . S
H484 C481 0.999 . S
H485 C466 0.913 . S
H486 C504 0.951 . S
H487 C506 0.951 . S
H488 C508 0.950 . S
H489 C509 0.950 . S
H490 C511 0.950 . S
H491 C514 0.950 . S
H492 C515 0.950 . S
H493 C517 0.950 . S
H494 C518 0.950 . S
H495 C519 0.951 . S
H496 C521 0.951 . S
H497 C523 0.950 . S
H498 C524 0.950 . S
H499 C526 0.950 . S
H500 C529 0.950 . S
H501 C530 0.950 . S
H502 C532 0.950 . S
H503 C533 0.950 . S
C504 H486 0.951 . S
C504 C505 1.366 . S
C504 C506 1.388 . S
C505 C504 1.366 . S
C505 C509 1.385 . S
C506 H487 0.951 . S
C506 C504 1.388 . S
C506 C507 1.366 . S
C507 C506 1.366 . S
C507 C508 1.414 . S
C507 C510 1.499 . S
C508 H488 0.950 . S
C508 C507 1.414 . S
C508 C509 1.374 . S
C509 H489 0.950 . S
C509 C505 1.385 . S
C509 C508 1.374 . S
C510 C507 1.499 . S
C510 C511 1.373 . S
C510 C512 1.389 . S
C511 H490 0.950 . S
C511 C510 1.373 . S
C511 C527 1.377 . S
C512 C510 1.389 . S
C512 C513 1.524 . S
C512 C526 1.377 . S
C513 C512 1.524 . S
C513 C514 1.397 . S
C513 C518 1.363 . S
C514 H491 0.950 . S
C514 C513 1.397 . S
C514 C515 1.334 1_455 S
C515 H492 0.950 . S
C515 C514 1.334 1_655 S
C515 C516 1.287 . S
C516 C515 1.287 . S
C516 C517 1.524 . S
C516 H535 0.913 . S
C517 H493 0.950 . S
C517 C516 1.524 . S
C517 C518 1.415 1_655 S
C518 H494 0.950 . S
C518 C513 1.363 . S
C518 C517 1.415 1_455 S
C519 H495 0.951 . S
C519 C520 1.366 . S
C519 C521 1.388 . S
C520 C519 1.366 . S
C520 C524 1.385 . S
C521 H496 0.951 . S
C521 C519 1.388 . S
C521 C522 1.366 . S
C522 C521 1.366 . S
C522 C523 1.414 . S
C522 C525 1.499 . S
C523 H497 0.950 . S
C523 C522 1.414 . S
C523 C524 1.374 . S
C524 H498 0.950 . S
C524 C520 1.385 . S
C524 C523 1.374 . S
C525 C522 1.499 . S
C525 C526 1.373 . S
C525 C527 1.389 . S
C526 H499 0.950 . S
C526 C512 1.377 . S
C526 C525 1.373 . S
C527 C511 1.377 . S
C527 C525 1.389 . S
C527 C528 1.524 . S
C528 C527 1.524 . S
C528 C529 1.397 . S
C528 C533 1.363 . S
C529 H500 0.950 . S
C529 C528 1.397 . S
C529 C530 1.334 . S
C530 H501 0.950 . S
C530 C529 1.334 . S
C530 C531 1.287 . S
C531 C530 1.287 . S
C531 C532 1.524 . S
C531 H534 0.999 . S
C532 H502 0.950 . S
C532 C531 1.524 . S
C532 C533 1.415 . S
C533 H503 0.950 . S
C533 C528 1.363 . S
C533 C532 1.415 . S
H534 C531 0.999 . S
H535 C516 0.913 . S
H536 C554 0.951 . S
H537 C556 0.951 . S
H538 C558 0.950 . S
H539 C559 0.950 . S
H540 C561 0.950 . S
H541 C564 0.950 . S
H542 C565 0.950 . S
H543 C567 0.950 . S
H544 C568 0.950 . S
H545 C569 0.951 . S
H546 C571 0.951 . S
H547 C573 0.950 . S
H548 C574 0.950 . S
H549 C576 0.950 . S
H550 C579 0.950 . S
H551 C580 0.950 . S
H552 C582 0.950 . S
H553 C583 0.950 . S
C554 H536 0.951 . S
C554 C555 1.366 . S
C554 C556 1.388 . S
C555 C554 1.366 . S
C555 C559 1.385 . S
C556 H537 0.951 . S
C556 C554 1.388 . S
C556 C557 1.366 . S
C557 C556 1.366 . S
C557 C558 1.414 . S
C557 C560 1.499 . S
C558 H538 0.950 . S
C558 C557 1.414 . S
C558 C559 1.374 . S
C559 H539 0.950 . S
C559 C555 1.385 . S
C559 C558 1.374 . S
C560 C557 1.499 . S
C560 C561 1.373 . S
C560 C562 1.389 . S
C561 H540 0.950 . S
C561 C560 1.373 . S
C561 C577 1.377 . S
C562 C560 1.389 . S
C562 C563 1.524 . S
C562 C576 1.377 . S
C563 C562 1.524 . S
C563 C564 1.397 . S
C563 C568 1.363 . S
C564 H541 0.950 . S
C564 C563 1.397 . S
C564 C565 1.334 . S
C565 H542 0.950 . S
C565 C564 1.334 . S
C565 C566 1.287 . S
C566 C565 1.287 . S
C566 C567 1.524 . S
C566 H585 0.913 . S
C567 H543 0.950 . S
C567 C566 1.524 . S
C567 C568 1.415 . S
C568 H544 0.950 . S
C568 C563 1.363 . S
C568 C567 1.415 . S
C569 H545 0.951 . S
C569 C570 1.366 . S
C569 C571 1.388 . S
C570 C569 1.366 . S
C570 C574 1.385 . S
C571 H546 0.951 . S
C571 C569 1.388 . S
C571 C572 1.366 . S
C572 C571 1.366 . S
C572 C573 1.414 . S
C572 C575 1.499 . S
C573 H547 0.950 . S
C573 C572 1.414 . S
C573 C574 1.374 . S
C574 H548 0.950 . S
C574 C570 1.385 . S
C574 C573 1.374 . S
C575 C572 1.499 . S
C575 C576 1.373 . S
C575 C577 1.389 . S
C576 H549 0.950 . S
C576 C562 1.377 . S
C576 C575 1.373 . S
C577 C561 1.377 . S
C577 C575 1.389 . S
C577 C578 1.524 . S
C578 C577 1.524 . S
C578 C579 1.397 . S
C578 C583 1.363 . S
C579 H550 0.950 . S
C579 C578 1.397 . S
C579 C580 1.334 . S
C580 H551 0.950 . S
C580 C579 1.334 . S
C580 C581 1.287 . S
C581 C580 1.287 . S
C581 C582 1.524 . S
C581 H584 0.999 . S
C582 H552 0.950 . S
C582 C581 1.524 . S
C582 C583 1.415 . S
C583 H553 0.950 . S
C583 C578 1.363 . S
C583 C582 1.415 . S
H584 C581 0.999 . S
H585 C566 0.913 . S
H586 C604 0.951 . S
H587 C606 0.951 . S
H588 C608 0.950 . S
H589 C609 0.950 . S
H590 C611 0.950 . S
H591 C614 0.950 . S
H592 C615 0.950 . S
H593 C617 0.950 . S
H594 C618 0.950 . S
H595 C619 0.951 . S
H596 C621 0.951 . S
H597 C623 0.950 . S
H598 C624 0.950 . S
H599 C626 0.950 . S
H600 C629 0.950 . S
H601 C630 0.950 . S
H602 C632 0.950 . S
H603 C633 0.950 1_655 S
C604 H586 0.951 . S
C604 C605 1.366 . S
C604 C606 1.388 . S
C605 C604 1.366 . S
C605 C609 1.385 . S
C606 H587 0.951 . S
C606 C604 1.388 . S
C606 C607 1.366 . S
C607 C606 1.366 . S
C607 C608 1.414 . S
C607 C610 1.499 . S
C608 H588 0.950 . S
C608 C607 1.414 . S
C608 C609 1.374 . S
C609 H589 0.950 . S
C609 C605 1.385 . S
C609 C608 1.374 . S
C610 C607 1.499 . S
C610 C611 1.373 . S
C610 C612 1.389 . S
C611 H590 0.950 . S
C611 C610 1.373 . S
C611 C627 1.377 . S
C612 C610 1.389 . S
C612 C613 1.524 . S
C612 C626 1.377 . S
C613 C612 1.524 . S
C613 C614 1.397 . S
C613 C618 1.363 . S
C614 H591 0.950 . S
C614 C613 1.397 . S
C614 C615 1.334 . S
C615 H592 0.950 . S
C615 C614 1.334 . S
C615 C616 1.287 . S
C616 C615 1.287 . S
C616 C617 1.524 . S
C616 H635 0.913 . S
C617 H593 0.950 . S
C617 C616 1.524 . S
C617 C618 1.415 . S
C618 H594 0.950 . S
C618 C613 1.363 . S
C618 C617 1.415 . S
C619 H595 0.951 . S
C619 C620 1.366 . S
C619 C621 1.388 . S
C620 C619 1.366 . S
C620 C624 1.385 . S
C621 H596 0.951 . S
C621 C619 1.388 . S
C621 C622 1.366 . S
C622 C621 1.366 . S
C622 C623 1.414 . S
C622 C625 1.499 . S
C623 H597 0.950 . S
C623 C622 1.414 . S
C623 C624 1.374 . S
C624 H598 0.950 . S
C624 C620 1.385 . S
C624 C623 1.374 . S
C625 C622 1.499 . S
C625 C626 1.373 . S
C625 C627 1.389 . S
C626 H599 0.950 . S
C626 C612 1.377 . S
C626 C625 1.373 . S
C627 C611 1.377 . S
C627 C625 1.389 . S
C627 C628 1.524 . S
C628 C627 1.524 . S
C628 C629 1.397 1_655 S
C628 C633 1.363 1_655 S
C629 H600 0.950 . S
C629 C628 1.397 1_455 S
C629 C630 1.334 . S
C630 H601 0.950 . S
C630 C629 1.334 . S
C630 C631 1.287 . S
C631 C630 1.287 . S
C631 C632 1.524 . S
C631 H634 0.999 . S
C632 H602 0.950 . S
C632 C631 1.524 . S
C632 C633 1.415 . S
C633 H603 0.950 1_455 S
C633 C628 1.363 1_455 S
C633 C632 1.415 . S
H634 C631 0.999 . S
H635 C616 0.913 . S
H636 C654 0.951 . S
H637 C656 0.951 . S
H638 C658 0.950 . S
H639 C659 0.950 . S
H640 C661 0.950 . S
H641 C664 0.950 . S
H642 C665 0.950 . S
H643 C667 0.950 . S
H644 C668 0.950 . S
H645 C669 0.951 . S
H646 C671 0.951 . S
H647 C673 0.950 . S
H648 C674 0.950 . S
H649 C676 0.950 . S
H650 C679 0.950 . S
H651 C680 0.950 . S
H652 C682 0.950 . S
H653 C683 0.950 . S
C654 H636 0.951 . S
C654 C655 1.366 . S
C654 C656 1.388 . S
C655 C654 1.366 . S
C655 C659 1.385 . S
C656 H637 0.951 . S
C656 C654 1.388 . S
C656 C657 1.366 . S
C657 C656 1.366 . S
C657 C658 1.414 . S
C657 C660 1.499 . S
C658 H638 0.950 . S
C658 C657 1.414 . S
C658 C659 1.374 . S
C659 H639 0.950 . S
C659 C655 1.385 . S
C659 C658 1.374 . S
C660 C657 1.499 . S
C660 C661 1.373 . S
C660 C662 1.389 . S
C661 H640 0.950 . S
C661 C660 1.373 . S
C661 C677 1.377 . S
C662 C660 1.389 . S
C662 C663 1.524 . S
C662 C676 1.377 . S
C663 C662 1.524 . S
C663 C664 1.397 . S
C663 C668 1.363 . S
C664 H641 0.950 . S
C664 C663 1.397 . S
C664 C665 1.334 . S
C665 H642 0.950 . S
C665 C664 1.334 . S
C665 C666 1.287 . S
C666 C665 1.287 . S
C666 C667 1.524 . S
C666 H685 0.913 . S
C667 H643 0.950 . S
C667 C666 1.524 . S
C667 C668 1.415 . S
C668 H644 0.950 . S
C668 C663 1.363 . S
C668 C667 1.415 . S
C669 H645 0.951 . S
C669 C670 1.366 . S
C669 C671 1.388 . S
C670 C669 1.366 . S
C670 C674 1.385 . S
C671 H646 0.951 . S
C671 C669 1.388 . S
C671 C672 1.366 . S
C672 C671 1.366 . S
C672 C673 1.414 . S
C672 C675 1.499 . S
C673 H647 0.950 . S
C673 C672 1.414 . S
C673 C674 1.374 . S
C674 H648 0.950 . S
C674 C670 1.385 . S
C674 C673 1.374 . S
C675 C672 1.499 . S
C675 C676 1.373 . S
C675 C677 1.389 . S
C676 H649 0.950 . S
C676 C662 1.377 . S
C676 C675 1.373 . S
C677 C661 1.377 . S
C677 C675 1.389 . S
C677 C678 1.524 . S
C678 C677 1.524 . S
C678 C679 1.397 . S
C678 C683 1.363 . S
C679 H650 0.950 . S
C679 C678 1.397 . S
C679 C680 1.334 . S
C680 H651 0.950 . S
C680 C679 1.334 . S
C680 C681 1.287 . S
C681 C680 1.287 . S
C681 C682 1.524 . S
C681 H684 0.999 . S
C682 H652 0.950 . S
C682 C681 1.524 . S
C682 C683 1.415 . S
C683 H653 0.950 . S
C683 C678 1.363 . S
C683 C682 1.415 . S
H684 C681 0.999 . S
H685 C666 0.913 . S
H686 C704 0.951 . S
H687 C706 0.951 . S
H688 C708 0.950 . S
H689 C709 0.950 . S
H690 C711 0.950 . S
H691 C714 0.950 . S
H692 C715 0.950 . S
H693 C717 0.950 . S
H694 C718 0.950 . S
H695 C719 0.951 . S
H696 C721 0.951 . S
H697 C723 0.950 . S
H698 C724 0.950 . S
H699 C726 0.950 . S
H700 C729 0.950 . S
H701 C730 0.950 . S
H702 C732 0.950 . S
H703 C733 0.950 . S
C704 H686 0.951 . S
C704 C705 1.366 . S
C704 C706 1.388 . S
C705 C704 1.366 . S
C705 C709 1.385 . S
C706 H687 0.951 . S
C706 C704 1.388 . S
C706 C707 1.366 . S
C707 C706 1.366 . S
C707 C708 1.414 . S
C707 C710 1.499 . S
C708 H688 0.950 . S
C708 C707 1.414 . S
C708 C709 1.374 . S
C709 H689 0.950 . S
C709 C705 1.385 . S
C709 C708 1.374 . S
C710 C707 1.499 . S
C710 C711 1.373 . S
C710 C712 1.389 . S
C711 H690 0.950 . S
C711 C710 1.373 . S
C711 C727 1.377 . S
C712 C710 1.389 . S
C712 C713 1.524 . S
C712 C726 1.377 . S
C713 C712 1.524 . S
C713 C714 1.397 . S
C713 C718 1.363 . S
C714 H691 0.950 . S
C714 C713 1.397 . S
C714 C715 1.334 . S
C715 H692 0.950 . S
C715 C714 1.334 . S
C715 C716 1.287 . S
C716 C715 1.287 . S
C716 C717 1.524 . S
C716 H735 0.913 . S
C717 H693 0.950 . S
C717 C716 1.524 . S
C717 C718 1.415 . S
C718 H694 0.950 . S
C718 C713 1.363 . S
C718 C717 1.415 . S
C719 H695 0.951 . S
C719 C720 1.366 . S
C719 C721 1.388 . S
C720 C719 1.366 . S
C720 C724 1.385 . S
C721 H696 0.951 . S
C721 C719 1.388 . S
C721 C722 1.366 . S
C722 C721 1.366 . S
C722 C723 1.414 . S
C722 C725 1.499 . S
C723 H697 0.950 . S
C723 C722 1.414 . S
C723 C724 1.374 . S
C724 H698 0.950 . S
C724 C720 1.385 . S
C724 C723 1.374 . S
C725 C722 1.499 . S
C725 C726 1.373 . S
C725 C727 1.389 . S
C726 H699 0.950 . S
C726 C712 1.377 . S
C726 C725 1.373 . S
C727 C711 1.377 . S
C727 C725 1.389 . S
C727 C728 1.524 . S
C728 C727 1.524 . S
C728 C729 1.397 . S
C728 C733 1.363 . S
C729 H700 0.950 . S
C729 C728 1.397 . S
C729 C730 1.334 . S
C730 H701 0.950 . S
C730 C729 1.334 . S
C730 C731 1.287 . S
C731 C730 1.287 . S
C731 C732 1.524 . S
C731 H734 0.999 . S
C732 H702 0.950 . S
C732 C731 1.524 . S
C732 C733 1.415 . S
C733 H703 0.950 . S
C733 C728 1.363 . S
C733 C732 1.415 . S
H734 C731 0.999 . S
H735 C716 0.913 . S
H736 C754 0.951 . S
H737 C756 0.951 . S
H738 C758 0.950 . S
H739 C759 0.950 . S
H740 C761 0.950 . S
H741 C764 0.950 . S
H742 C765 0.950 . S
H743 C767 0.950 . S
H744 C768 0.950 . S
H745 C769 0.951 . S
H746 C771 0.951 . S
H747 C773 0.950 . S
H748 C774 0.950 . S
H749 C776 0.950 . S
H750 C779 0.950 . S
H751 C780 0.950 . S
H752 C782 0.950 . S
H753 C783 0.950 . S
C754 H736 0.951 . S
C754 C755 1.366 . S
C754 C756 1.388 . S
C755 C754 1.366 . S
C755 C759 1.385 . S
C756 H737 0.951 . S
C756 C754 1.388 . S
C756 C757 1.366 . S
C757 C756 1.366 . S
C757 C758 1.414 . S
C757 C760 1.499 . S
C758 H738 0.950 . S
C758 C757 1.414 . S
C758 C759 1.374 . S
C759 H739 0.950 . S
C759 C755 1.385 . S
C759 C758 1.374 . S
C760 C757 1.499 . S
C760 C761 1.373 . S
C760 C762 1.389 . S
C761 H740 0.950 . S
C761 C760 1.373 . S
C761 C777 1.377 . S
C762 C760 1.389 . S
C762 C763 1.524 . S
C762 C776 1.377 . S
C763 C762 1.524 . S
C763 C764 1.397 . S
C763 C768 1.363 . S
C764 H741 0.950 . S
C764 C763 1.397 . S
C764 C765 1.334 . S
C765 H742 0.950 . S
C765 C764 1.334 . S
C765 C766 1.287 . S
C766 C765 1.287 . S
C766 C767 1.524 . S
C766 H785 0.913 . S
C767 H743 0.950 . S
C767 C766 1.524 . S
C767 C768 1.415 . S
C768 H744 0.950 . S
C768 C763 1.363 . S
C768 C767 1.415 . S
C769 H745 0.951 . S
C769 C770 1.366 . S
C769 C771 1.388 . S
C770 C769 1.366 . S
C770 C774 1.385 . S
C771 H746 0.951 . S
C771 C769 1.388 . S
C771 C772 1.366 . S
C772 C771 1.366 . S
C772 C773 1.414 . S
C772 C775 1.499 . S
C773 H747 0.950 . S
C773 C772 1.414 . S
C773 C774 1.374 . S
C774 H748 0.950 . S
C774 C770 1.385 . S
C774 C773 1.374 . S
C775 C772 1.499 . S
C775 C776 1.373 . S
C775 C777 1.389 . S
C776 H749 0.950 . S
C776 C762 1.377 . S
C776 C775 1.373 . S
C777 C761 1.377 . S
C777 C775 1.389 . S
C777 C778 1.524 1_655 S
C778 C777 1.524 1_455 S
C778 C779 1.397 . S
C778 C783 1.363 . S
C779 H750 0.950 . S
C779 C778 1.397 . S
C779 C780 1.334 . S
C780 H751 0.950 . S
C780 C779 1.334 . S
C780 C781 1.287 . S
C781 C780 1.287 . S
C781 C782 1.524 . S
C781 H784 0.999 . S
C782 H752 0.950 . S
C782 C781 1.524 . S
C782 C783 1.415 . S
C783 H753 0.950 . S
C783 C778 1.363 . S
C783 C782 1.415 . S
H784 C781 0.999 . S
H785 C766 0.913 . S
H786 C804 0.951 . S
H787 C806 0.951 . S
H788 C808 0.950 . S
H789 C809 0.950 . S
H790 C811 0.950 . S
H791 C814 0.950 . S
H792 C815 0.950 . S
H793 C817 0.950 . S
H794 C818 0.950 . S
H795 C819 0.951 . S
H796 C821 0.951 . S
H797 C823 0.950 . S
H798 C824 0.950 . S
H799 C826 0.950 . S
H800 C829 0.950 . S
H801 C830 0.950 . S
H802 C832 0.950 . S
H803 C833 0.950 . S
C804 H786 0.951 . S
C804 C805 1.366 . S
C804 C806 1.388 . S
C805 C804 1.366 . S
C805 C809 1.385 . S
C806 H787 0.951 . S
C806 C804 1.388 . S
C806 C807 1.366 . S
C807 C806 1.366 . S
C807 C808 1.414 . S
C807 C810 1.499 . S
C808 H788 0.950 . S
C808 C807 1.414 . S
C808 C809 1.374 . S
C809 H789 0.950 . S
C809 C805 1.385 . S
C809 C808 1.374 . S
C810 C807 1.499 . S
C810 C811 1.373 . S
C810 C812 1.389 . S
C811 H790 0.950 . S
C811 C810 1.373 . S
C811 C827 1.377 . S
C812 C810 1.389 . S
C812 C813 1.524 . S
C812 C826 1.377 . S
C813 C812 1.524 . S
C813 C814 1.397 . S
C813 C818 1.363 . S
C814 H791 0.950 . S
C814 C813 1.397 . S
C814 C815 1.334 . S
C815 H792 0.950 . S
C815 C814 1.334 . S
C815 C816 1.287 . S
C816 C815 1.287 . S
C816 C817 1.524 . S
C816 H835 0.913 . S
C817 H793 0.950 . S
C817 C816 1.524 . S
C817 C818 1.415 . S
C818 H794 0.950 . S
C818 C813 1.363 . S
C818 C817 1.415 . S
C819 H795 0.951 . S
C819 C820 1.366 . S
C819 C821 1.388 . S
C820 C819 1.366 . S
C820 C824 1.385 . S
C821 H796 0.951 . S
C821 C819 1.388 . S
C821 C822 1.366 . S
C822 C821 1.366 . S
C822 C823 1.414 . S
C822 C825 1.499 . S
C823 H797 0.950 . S
C823 C822 1.414 . S
C823 C824 1.374 . S
C824 H798 0.950 . S
C824 C820 1.385 . S
C824 C823 1.374 . S
C825 C822 1.499 . S
C825 C826 1.373 . S
C825 C827 1.389 . S
C826 H799 0.950 . S
C826 C812 1.377 . S
C826 C825 1.373 . S
C827 C811 1.377 . S
C827 C825 1.389 . S
C827 C828 1.524 . S
C828 C827 1.524 . S
C828 C829 1.397 . S
C828 C833 1.363 . S
C829 H800 0.950 . S
C829 C828 1.397 . S
C829 C830 1.334 . S
C830 H801 0.950 . S
C830 C829 1.334 . S
C830 C831 1.287 . S
C831 C830 1.287 . S
C831 C832 1.524 . S
C831 H834 0.999 . S
C832 H802 0.950 . S
C832 C831 1.524 . S
C832 C833 1.415 . S
C833 H803 0.950 . S
C833 C828 1.363 . S
C833 C832 1.415 . S
H834 C831 0.999 . S
H835 C816 0.913 . S
H836 C854 0.951 . S
H837 C856 0.951 . S
H838 C858 0.950 . S
H839 C859 0.950 . S
H840 C861 0.950 . S
H841 C864 0.950 . S
H842 C865 0.950 . S
H843 C867 0.950 . S
H844 C868 0.950 . S
H845 C869 0.951 . S
H846 C871 0.951 . S
H847 C873 0.950 1_655 S
H848 C874 0.950 1_655 S
H849 C876 0.950 . S
H850 C879 0.950 . S
H851 C880 0.950 . S
H852 C882 0.950 . S
H853 C883 0.950 . S
C854 H836 0.951 . S
C854 C855 1.366 . S
C854 C856 1.388 . S
C855 C854 1.366 . S
C855 C859 1.385 . S
C856 H837 0.951 . S
C856 C854 1.388 . S
C856 C857 1.366 . S
C857 C856 1.366 . S
C857 C858 1.414 . S
C857 C860 1.499 . S
C858 H838 0.950 . S
C858 C857 1.414 . S
C858 C859 1.374 . S
C859 H839 0.950 . S
C859 C855 1.385 . S
C859 C858 1.374 . S
C860 C857 1.499 . S
C860 C861 1.373 . S
C860 C862 1.389 . S
C861 H840 0.950 . S
C861 C860 1.373 . S
C861 C877 1.377 . S
C862 C860 1.389 . S
C862 C863 1.524 . S
C862 C876 1.377 . S
C863 C862 1.524 . S
C863 C864 1.397 . S
C863 C868 1.363 1_455 S
C864 H841 0.950 . S
C864 C863 1.397 . S
C864 C865 1.334 . S
C865 H842 0.950 . S
C865 C864 1.334 . S
C865 C866 1.287 1_455 S
C866 C865 1.287 1_655 S
C866 C867 1.524 . S
C866 H885 0.913 . S
C867 H843 0.950 . S
C867 C866 1.524 . S
C867 C868 1.415 . S
C868 H844 0.950 . S
C868 C863 1.363 1_655 S
C868 C867 1.415 . S
C869 H845 0.951 . S
C869 C870 1.366 . S
C869 C871 1.388 . S
C870 C869 1.366 . S
C870 C874 1.385 . S
C871 H846 0.951 . S
C871 C869 1.388 . S
C871 C872 1.366 . S
C872 C871 1.366 . S
C872 C873 1.414 . S
C872 C875 1.499 . S
C873 H847 0.950 1_455 S
C873 C872 1.414 . S
C873 C874 1.374 . S
C874 H848 0.950 1_455 S
C874 C870 1.385 . S
C874 C873 1.374 . S
C875 C872 1.499 . S
C875 C876 1.373 . S
C875 C877 1.389 . S
C876 H849 0.950 . S
C876 C862 1.377 . S
C876 C875 1.373 . S
C877 C861 1.377 . S
C877 C875 1.389 . S
C877 C878 1.524 . S
C878 C877 1.524 . S
C878 C879 1.397 . S
C878 C883 1.363 . S
C879 H850 0.950 . S
C879 C878 1.397 . S
C879 C880 1.334 . S
C880 H851 0.950 . S
C880 C879 1.334 . S
C880 C881 1.287 . S
C881 C880 1.287 . S
C881 C882 1.524 . S
C881 H884 0.999 . S
C882 H852 0.950 . S
C882 C881 1.524 . S
C882 C883 1.415 . S
C883 H853 0.950 . S
C883 C878 1.363 . S
C883 C882 1.415 . S
H884 C881 0.999 . S
H885 C866 0.913 . S
C320 C257 1.629 . S
C305 C211 1.555 . S
C355 C31 1.610 . S
C370 C280 1.629 . S
C405 C91 1.633 . S
C420 C256 1.652 . S
C455 C151 1.576 . S
C470 C279 1.652 . S
C520 C260 1.585 . S
C505 C20 1.633 . S
C570 C282 1.615 . S
C555 C61 1.604 . S
C605 C121 1.551 . S
C620 C261 1.593 . S
C655 C200 1.577 . S
C670 C281 1.590 . S
C720 C284 1.592 . S
C705 C80 1.647 . S
C770 C259 1.614 . S
C755 C140 1.602 . S
C820 C283 1.586 . S
C805 C181 1.538 . S
C855 C1 1.582 . S
C870 C258 1.590 . S
