# Generated by pormake.
# Topology eea, (3,6)-cn, num edge types: 1
# Building blocks:
#     Node 0, Type 0, BuildingBlock: KAKCAD_clean_linker_0, # of connection points: 3
#     Node 1, Type 0, BuildingBlock: KAKCAD_clean_linker_0, # of connection points: 3
#     Node 2, Type 0, BuildingBlock: KAKCAD_clean_linker_0, # of connection points: 3
#     Node 3, Type 0, BuildingBlock: KAKCAD_clean_linker_0, # of connection points: 3
#     Node 4, Type 0, BuildingBlock: KAKCAD_clean_linker_0, # of connection points: 3
#     Node 5, Type 0, BuildingBlock: KAKCAD_clean_linker_0, # of connection points: 3
#     Node 6, Type 0, BuildingBlock: KAKCAD_clean_linker_0, # of connection points: 3
#     Node 7, Type 0, BuildingBlock: KAKCAD_clean_linker_0, # of connection points: 3
#     Node 8, Type 0, BuildingBlock: KAKCAD_clean_linker_0, # of connection points: 3
#     Node 9, Type 0, BuildingBlock: KAKCAD_clean_linker_0, # of connection points: 3
#     Node 10, Type 0, BuildingBlock: KAKCAD_clean_linker_0, # of connection points: 3
#     Node 11, Type 0, BuildingBlock: KAKCAD_clean_linker_0, # of connection points: 3
#     Node 12, Type 0, BuildingBlock: KAKCAD_clean_linker_0, # of connection points: 3
#     Node 13, Type 0, BuildingBlock: KAKCAD_clean_linker_0, # of connection points: 3
#     Node 14, Type 0, BuildingBlock: KAKCAD_clean_linker_0, # of connection points: 3
#     Node 15, Type 0, BuildingBlock: KAKCAD_clean_linker_0, # of connection points: 3
#     Node 16, Type 0, BuildingBlock: KAKCAD_clean_linker_0, # of connection points: 3
#     Node 17, Type 0, BuildingBlock: KAKCAD_clean_linker_0, # of connection points: 3
#     Node 18, Type 1, BuildingBlock: CUWYAW_clean_sbu_0, # of connection points: 6
#     Node 19, Type 1, BuildingBlock: CUWYAW_clean_sbu_0, # of connection points: 6
#     Node 20, Type 1, BuildingBlock: CUWYAW_clean_sbu_0, # of connection points: 6
#     Node 21, Type 1, BuildingBlock: CUWYAW_clean_sbu_0, # of connection points: 6
#     Node 22, Type 1, BuildingBlock: CUWYAW_clean_sbu_0, # of connection points: 6
#     Node 23, Type 1, BuildingBlock: CUWYAW_clean_sbu_0, # of connection points: 6
#     Node 24, Type 1, BuildingBlock: CUWYAW_clean_sbu_0, # of connection points: 6
#     Node 25, Type 1, BuildingBlock: CUWYAW_clean_sbu_0, # of connection points: 6
#     Node 26, Type 1, BuildingBlock: CUWYAW_clean_sbu_0, # of connection points: 6
#     Edge 27, Type (0, 1), BuildingBlock: AJUNOK_clean_linker_0, # of connection points: 2
#     Edge 28, Type (0, 1), BuildingBlock: AJUNOK_clean_linker_0, # of connection points: 2
#     Edge 29, Type (0, 1), BuildingBlock: AJUNOK_clean_linker_0, # of connection points: 2
#     Edge 30, Type (0, 1), BuildingBlock: AJUNOK_clean_linker_0, # of connection points: 2
#     Edge 31, Type (0, 1), BuildingBlock: AJUNOK_clean_linker_0, # of connection points: 2
#     Edge 32, Type (0, 1), BuildingBlock: AJUNOK_clean_linker_0, # of connection points: 2
#     Edge 33, Type (0, 1), BuildingBlock: AJUNOK_clean_linker_0, # of connection points: 2
#     Edge 34, Type (0, 1), BuildingBlock: AJUNOK_clean_linker_0, # of connection points: 2
#     Edge 35, Type (0, 1), BuildingBlock: AJUNOK_clean_linker_0, # of connection points: 2
#     Edge 36, Type (0, 1), BuildingBlock: AJUNOK_clean_linker_0, # of connection points: 2
#     Edge 37, Type (0, 1), BuildingBlock: AJUNOK_clean_linker_0, # of connection points: 2
#     Edge 38, Type (0, 1), BuildingBlock: AJUNOK_clean_linker_0, # of connection points: 2
#     Edge 39, Type (0, 1), BuildingBlock: AJUNOK_clean_linker_0, # of connection points: 2
#     Edge 40, Type (0, 1), BuildingBlock: AJUNOK_clean_linker_0, # of connection points: 2
#     Edge 41, Type (0, 1), BuildingBlock: AJUNOK_clean_linker_0, # of connection points: 2
#     Edge 42, Type (0, 1), BuildingBlock: AJUNOK_clean_linker_0, # of connection points: 2
#     Edge 43, Type (0, 1), BuildingBlock: AJUNOK_clean_linker_0, # of connection points: 2
#     Edge 44, Type (0, 1), BuildingBlock: AJUNOK_clean_linker_0, # of connection points: 2
#     Edge 45, Type (0, 1), BuildingBlock: AJUNOK_clean_linker_0, # of connection points: 2
#     Edge 46, Type (0, 1), BuildingBlock: AJUNOK_clean_linker_0, # of connection points: 2
#     Edge 47, Type (0, 1), BuildingBlock: AJUNOK_clean_linker_0, # of connection points: 2
#     Edge 48, Type (0, 1), BuildingBlock: AJUNOK_clean_linker_0, # of connection points: 2
#     Edge 49, Type (0, 1), BuildingBlock: AJUNOK_clean_linker_0, # of connection points: 2
#     Edge 50, Type (0, 1), BuildingBlock: AJUNOK_clean_linker_0, # of connection points: 2
#     Edge 51, Type (0, 1), BuildingBlock: AJUNOK_clean_linker_0, # of connection points: 2
#     Edge 52, Type (0, 1), BuildingBlock: AJUNOK_clean_linker_0, # of connection points: 2
#     Edge 53, Type (0, 1), BuildingBlock: AJUNOK_clean_linker_0, # of connection points: 2
#     Edge 54, Type (0, 1), BuildingBlock: AJUNOK_clean_linker_0, # of connection points: 2
#     Edge 55, Type (0, 1), BuildingBlock: AJUNOK_clean_linker_0, # of connection points: 2
#     Edge 56, Type (0, 1), BuildingBlock: AJUNOK_clean_linker_0, # of connection points: 2
#     Edge 57, Type (0, 1), BuildingBlock: AJUNOK_clean_linker_0, # of connection points: 2
#     Edge 58, Type (0, 1), BuildingBlock: AJUNOK_clean_linker_0, # of connection points: 2
#     Edge 59, Type (0, 1), BuildingBlock: AJUNOK_clean_linker_0, # of connection points: 2
#     Edge 60, Type (0, 1), BuildingBlock: AJUNOK_clean_linker_0, # of connection points: 2
#     Edge 61, Type (0, 1), BuildingBlock: AJUNOK_clean_linker_0, # of connection points: 2
#     Edge 62, Type (0, 1), BuildingBlock: AJUNOK_clean_linker_0, # of connection points: 2
#     Edge 63, Type (0, 1), BuildingBlock: AJUNOK_clean_linker_0, # of connection points: 2
#     Edge 64, Type (0, 1), BuildingBlock: AJUNOK_clean_linker_0, # of connection points: 2
#     Edge 65, Type (0, 1), BuildingBlock: AJUNOK_clean_linker_0, # of connection points: 2
#     Edge 66, Type (0, 1), BuildingBlock: AJUNOK_clean_linker_0, # of connection points: 2
#     Edge 67, Type (0, 1), BuildingBlock: AJUNOK_clean_linker_0, # of connection points: 2
#     Edge 68, Type (0, 1), BuildingBlock: AJUNOK_clean_linker_0, # of connection points: 2
#     Edge 69, Type (0, 1), BuildingBlock: AJUNOK_clean_linker_0, # of connection points: 2
#     Edge 70, Type (0, 1), BuildingBlock: AJUNOK_clean_linker_0, # of connection points: 2
#     Edge 71, Type (0, 1), BuildingBlock: AJUNOK_clean_linker_0, # of connection points: 2
#     Edge 72, Type (0, 1), BuildingBlock: AJUNOK_clean_linker_0, # of connection points: 2
#     Edge 73, Type (0, 1), BuildingBlock: AJUNOK_clean_linker_0, # of connection points: 2
#     Edge 74, Type (0, 1), BuildingBlock: AJUNOK_clean_linker_0, # of connection points: 2
#     Edge 75, Type (0, 1), BuildingBlock: AJUNOK_clean_linker_0, # of connection points: 2
#     Edge 76, Type (0, 1), BuildingBlock: AJUNOK_clean_linker_0, # of connection points: 2
#     Edge 77, Type (0, 1), BuildingBlock: AJUNOK_clean_linker_0, # of connection points: 2
#     Edge 78, Type (0, 1), BuildingBlock: AJUNOK_clean_linker_0, # of connection points: 2
#     Edge 79, Type (0, 1), BuildingBlock: AJUNOK_clean_linker_0, # of connection points: 2
#     Edge 80, Type (0, 1), BuildingBlock: AJUNOK_clean_linker_0, # of connection points: 2
# Relax obj value: 0.034
# Max RMSD: 0.132
# Mean RMSD: 0.087
data_MOF--net-eea--node1-CUWYAW_clean_sbu_0--node2-KAKCAD_clean_linker_0--edge1-AJUNOK_clean_linker_0
_symmetry_space_group_name_H-M    P1
_symmetry_Int_Tables_number       1
_symmetry_cell_setting            triclinic
loop_
_symmetry_equiv_pos_as_xyz
'x, y, z'
_cell_length_a     48.916335
_cell_length_b     48.553242
_cell_length_c     74.453544
_cell_angle_alpha  93.601073
_cell_angle_beta   93.093825
_cell_angle_gamma 119.95723
loop_
_atom_site_label
_atom_site_type_symbol
_atom_site_fract_x
_atom_site_fract_y
_atom_site_fract_z
_atom_type_partial_charge
C0 C 0.24887 0.15081 0.4887 0.0
C1 C 0.27029 0.14116 0.49455 0.0
C2 C 0.2388 0.14707 0.47029 0.0
C3 C 0.25002 0.13367 0.45741 0.0
C4 C 0.27198 0.12468 0.46333 0.0
C5 C 0.28185 0.12824 0.48169 0.0
C6 C 0.23842 0.12818 0.43789 0.0
C7 C 0.23372 0.15084 0.42949 0.0
C8 C 0.22342 0.14573 0.41096 0.0
C9 C 0.21782 0.11768 0.40084 0.0
C10 C 0.22166 0.0944 0.40906 0.0
C11 C 0.2319 0.09991 0.4276 0.0
C12 C 0.21413 0.06395 0.39848 0.0
C13 C 0.188 0.04861 0.38526 0.0
C14 C 0.23259 0.04963 0.40173 0.0
C15 C 0.22475 0.02044 0.39225 0.0
C16 C 0.19835 0.00495 0.37925 0.0
C17 C 0.21771 0.16919 0.40212 0.0
C18 C 0.19925 0.18069 0.40984 0.0
C19 C 0.22928 0.17893 0.3854 0.0
C20 C 0.22194 0.19915 0.37639 0.0
C21 C 0.20254 0.20967 0.38379 0.0
C22 C 0.19159 0.20063 0.40071 0.0
C23 C 0.18038 0.01962 0.37568 0.0
H24 H 0.23934 0.16051 0.4984 0.0
H25 H 0.22161 0.1539 0.46622 0.0
H26 H 0.28161 0.11488 0.45376 0.0
H27 H 0.29864 0.12093 0.48585 0.0
H28 H 0.23874 0.1728 0.43722 0.0
H29 H 0.23397 0.08167 0.4342 0.0
H30 H 0.21004 0.11385 0.38653 0.0
H31 H 0.17303 0.05869 0.38249 0.0
H32 H 0.25321 0.061 0.41158 0.0
H33 H 0.23912 0.00977 0.39525 0.0
H34 H 0.18992 0.17344 0.42267 0.0
H35 H 0.24379 0.17065 0.37923 0.0
H36 H 0.16038 0.00872 0.36541 0.0
H37 H 0.17688 0.20876 0.40676 0.0
H38 H 0.23067 0.20584 0.36336 0.0
C39 C 0.88735 0.16326 0.48895 0.0
C40 C 0.87838 0.13792 0.49975 0.0
C41 C 0.89354 0.16001 0.47102 0.0
C42 C 0.89045 0.13118 0.46349 0.0
C43 C 0.88217 0.10614 0.47446 0.0
C44 C 0.8762 0.10947 0.49237 0.0
C45 C 0.89384 0.12635 0.44399 0.0
C46 C 0.91925 0.14981 0.43567 0.0
C47 C 0.92216 0.14495 0.41716 0.0
C48 C 0.8987 0.1166 0.40698 0.0
C49 C 0.8734 0.09294 0.41512 0.0
C50 C 0.87121 0.09794 0.4336 0.0
C51 C 0.84948 0.06271 0.40436 0.0
C52 C 0.83504 0.06323 0.38765 0.0
C53 C 0.84127 0.03311 0.41066 0.0
C54 C 0.81941 0.00457 0.40031 0.0
C55 C 0.80496 0.00513 0.38363 0.0
C56 C 0.9499 0.16881 0.40841 0.0
C57 C 0.96255 0.20188 0.41262 0.0
C58 C 0.96384 0.1585 0.39556 0.0
C59 C 0.98916 0.18053 0.38684 0.0
C60 C 1.00135 0.21346 0.3908 0.0
C61 C 0.98812 0.22398 0.40395 0.0
C62 C 0.81283 0.03468 0.37742 0.0
H63 H 0.88919 0.18545 0.49431 0.0
H64 H 0.89964 0.17962 0.46286 0.0
H65 H 0.87984 0.08373 0.46909 0.0
H66 H 0.86885 0.08935 0.50027 0.0
H67 H 0.93724 0.17132 0.44376 0.0
H68 H 0.85131 0.07991 0.43981 0.0
H69 H 0.90026 0.11267 0.39267 0.0
H70 H 0.84084 0.08574 0.38253 0.0
H71 H 0.85223 0.03205 0.42344 0.0
H72 H 0.81371 0.98202 0.40533 0.0
H73 H 0.95232 0.21071 0.42234 0.0
H74 H 0.95538 0.1333 0.39231 0.0
H75 H 0.80219 0.03565 0.36451 0.0
H76 H 0.9972 0.24929 0.40728 0.0
H77 H 0.99945 0.17179 0.37709 0.0
C78 C 0.89958 0.74646 0.497 0.0
C79 C 0.86837 0.7256 0.50078 0.0
C80 C 0.90594 0.75561 0.47951 0.0
C81 C 0.88122 0.74379 0.46544 0.0
C82 C 0.85021 0.72186 0.4692 0.0
C83 C 0.84387 0.71302 0.48665 0.0
C84 C 0.88717 0.75502 0.44708 0.0
C85 C 0.91462 0.76038 0.43902 0.0
C86 C 0.91941 0.77029 0.42152 0.0
C87 C 0.89691 0.7755 0.41222 0.0
C88 C 0.86973 0.77076 0.42016 0.0
C89 C 0.86501 0.76048 0.43749 0.0
C90 C 0.84632 0.77696 0.41053 0.0
C91 C 0.85619 0.80628 0.40344 0.0
C92 C 0.81385 0.75393 0.40885 0.0
C93 C 0.79165 0.76014 0.40026 0.0
C94 C 0.80148 0.78971 0.39355 0.0
C95 C 0.94774 0.77503 0.41274 0.0
C96 C 0.97836 0.79669 0.42093 0.0
C97 C 0.94422 0.75883 0.39572 0.0
C98 C 0.97083 0.76409 0.38704 0.0
C99 C 1.00162 0.78609 0.39505 0.0
C100 C 0.005 0.8025 0.41208 0.0
C101 C 0.83392 0.8127 0.39515 0.0
H102 H 0.91889 0.75637 0.50768 0.0
H103 H 0.93006 0.77266 0.47716 0.0
H104 H 0.83068 0.71155 0.45865 0.0
H105 H 0.81971 0.69631 0.48913 0.0
H106 H 0.93179 0.75596 0.44607 0.0
H107 H 0.84432 0.75758 0.4437 0.0
H108 H 0.9006 0.78329 0.39878 0.0
H109 H 0.88107 0.82447 0.40467 0.0
H110 H 0.80569 0.73108 0.41413 0.0
H111 H 0.76673 0.74208 0.39913 0.0
H112 H 0.98163 0.80982 0.43394 0.0
H113 H 0.9208 0.74195 0.38915 0.0
H114 H 0.842 0.83558 0.38993 0.0
H115 H 0.0282 0.8204 0.41842 0.0
H116 H 0.96727 0.75085 0.37404 0.0
C117 C 0.1373 0.25065 0.51719 0.0
C118 C 0.13408 0.27659 0.51265 0.0
C119 C 0.13077 0.23967 0.53422 0.0
C120 C 0.12076 0.25431 0.54712 0.0
C121 C 0.11636 0.27949 0.54233 0.0
C122 C 0.12297 0.29053 0.52527 0.0
C123 C 0.11655 0.2443 0.56575 0.0
C124 C 0.13886 0.23825 0.5746 0.0
C125 C 0.13578 0.22929 0.59224 0.0
C126 C 0.1098 0.22584 0.60106 0.0
C127 C 0.08691 0.2313 0.59241 0.0
C128 C 0.0907 0.241 0.57484 0.0
C129 C 0.0587 0.22592 0.60164 0.0
C130 C 0.04117 0.19764 0.60981 0.0
C131 C 0.04918 0.24889 0.60248 0.0
C132 C 0.02294 0.24385 0.61156 0.0
C133 C 0.00549 0.21553 0.61971 0.0
C134 C 0.15995 0.22372 0.60142 0.0
C135 C 0.16796 0.20227 0.59316 0.0
C136 C 0.17548 0.24017 0.61836 0.0
C137 C 0.19901 0.23564 0.62675 0.0
C138 C 0.20717 0.21418 0.61851 0.0
C139 C 0.19102 0.19723 0.60171 0.0
C140 C 0.01472 0.1924 0.61863 0.0
H141 H 0.14576 0.2394 0.50774 0.0
H142 H 0.1339 0.21988 0.53737 0.0
H143 H 0.10876 0.29133 0.55196 0.0
H144 H 0.11972 0.3102 0.52201 0.0
H145 H 0.15926 0.24139 0.56795 0.0
H146 H 0.07299 0.24494 0.56803 0.0
H147 H 0.1073 0.2187 0.61467 0.0
H148 H 0.04777 0.17938 0.60923 0.0
H149 H 0.06231 0.27094 0.59634 0.0
H150 H 0.01607 0.26189 0.61206 0.0
H151 H 0.156 0.18903 0.58018 0.0
H152 H 0.16983 0.257 0.62493 0.0
H153 H 1.00161 0.17036 0.62478 0.0
H154 H 0.19582 0.17969 0.59525 0.0
H155 H 0.21105 0.24919 0.63964 0.0
C156 C 0.73581 0.84249 0.52778 0.0
C157 C 0.74722 0.86863 0.51745 0.0
C158 C 0.74661 0.84683 0.54609 0.0
C159 C 0.76917 0.87738 0.55441 0.0
C160 C 0.78152 0.90324 0.54384 0.0
C161 C 0.77063 0.89892 0.52558 0.0
C162 C 0.77866 0.88262 0.57419 0.0
C163 C 0.78394 0.86061 0.58297 0.0
C164 C 0.79199 0.86513 0.60181 0.0
C165 C 0.79445 0.89203 0.61178 0.0
C166 C 0.79016 0.91464 0.60315 0.0
C167 C 0.7821 0.90968 0.58442 0.0
C168 C 0.79518 0.94403 0.61364 0.0
C169 C 0.78125 0.94238 0.62985 0.0
C170 C 0.81481 0.9741 0.6077 0.0
C171 C 0.82084 1.002 0.61793 0.0
C172 C 0.80697 1.00033 0.63414 0.0
C173 C 0.79865 0.84242 0.61107 0.0
C174 C 0.78179 0.80942 0.60539 0.0
C175 C 0.82211 0.8537 0.6258 0.0
C176 C 0.82792 0.8326 0.63489 0.0
C177 C 0.81092 0.79965 0.62934 0.0
C178 C 0.78808 0.78833 0.6143 0.0
C179 C 0.78695 0.97031 0.63997 0.0
H180 H 0.71823 0.81874 0.52176 0.0
H181 H 0.73654 0.82642 0.55384 0.0
H182 H 0.79936 0.92698 0.54973 0.0
H183 H 0.77991 0.91949 0.51795 0.0
H184 H 0.78261 0.84045 0.57501 0.0
H185 H 0.77783 0.9267 0.57789 0.0
H186 H 0.80023 0.8958 0.6263 0.0
H187 H 0.76593 0.91949 0.63468 0.0
H188 H 0.82606 0.97604 0.59533 0.0
H189 H 0.83635 0.02494 0.6132 0.0
H190 H 0.76343 0.79973 0.59418 0.0
H191 H 0.83625 0.87895 0.63033 0.0
H192 H 0.77622 0.96852 0.65252 0.0
H193 H 0.77513 0.76321 0.60934 0.0
H194 H 0.84563 0.84217 0.64644 0.0
C195 C 0.10449 0.84604 0.51899 0.0
C196 C 0.13574 0.85795 0.51446 0.0
C197 C 0.09854 0.84962 0.53695 0.0
C198 C 0.1237 0.86503 0.55078 0.0
C199 C 0.15479 0.87598 0.54624 0.0
C200 C 0.16072 0.87262 0.52835 0.0
C201 C 0.1181 0.87047 0.56984 0.0
C202 C 0.0921 0.84705 0.57779 0.0
C203 C 0.08828 0.85192 0.59609 0.0
C204 C 0.11074 0.8804 0.60648 0.0
C205 C 0.1363 0.9046 0.59867 0.0
C206 C 0.13944 0.8994 0.58029 0.0
C207 C 0.1595 0.93546 0.60951 0.0
C208 C 0.1497 0.94911 0.62312 0.0
C209 C 0.19159 0.95194 0.60606 0.0
C210 C 0.21305 0.98143 0.61567 0.0
C211 C 0.20328 0.99488 0.62937 0.0
C212 C 0.06044 0.8277 0.60439 0.0
C213 C 0.02962 0.81691 0.59651 0.0
C214 C 0.06443 0.81653 0.62073 0.0
C215 C 0.03807 0.79494 0.62902 0.0
C216 C 0.00711 0.78437 0.62128 0.0
C217 C 1.00326 0.79582 0.60497 0.0
C218 C 0.17134 0.97828 0.63299 0.0
H219 H 0.08464 0.83396 0.50866 0.0
H220 H 0.07431 0.84091 0.53993 0.0
H221 H 0.17473 0.88731 0.55655 0.0
H222 H 0.18506 0.88208 0.52535 0.0
H223 H 0.07528 0.82468 0.56993 0.0
H224 H 0.15829 0.91823 0.57391 0.0
H225 H 0.10796 0.88373 0.62065 0.0
H226 H 0.12517 0.93761 0.626 0.0
H227 H 0.2003 0.94213 0.59592 0.0
H228 H 0.23721 0.99388 0.61214 0.0
H229 H 0.02593 0.82562 0.58409 0.0
H230 H 0.08799 0.82449 0.62707 0.0
H231 H 0.163 0.98787 0.64349 0.0
H232 H 0.97989 0.78915 0.59892 0.0
H233 H 0.04193 0.78653 0.6415 0.0
C234 C 0.90983 0.47645 0.82133 0.0
C235 C 0.93138 0.46698 0.82718 0.0
C236 C 0.90025 0.47325 0.80289 0.0
C237 C 0.91221 0.4607 0.78997 0.0
C238 C 0.93433 0.45193 0.79593 0.0
C239 C 0.94362 0.45484 0.81432 0.0
C240 C 0.90126 0.45588 0.77038 0.0
C241 C 0.89599 0.47842 0.76223 0.0
C242 C 0.88591 0.47377 0.74368 0.0
C243 C 0.88207 0.44669 0.73322 0.0
C244 C 0.8863 0.42341 0.74117 0.0
C245 C 0.89567 0.42821 0.7598 0.0
C246 C 0.88012 0.39376 0.73013 0.0
C247 C 0.85586 0.37957 0.71575 0.0
C248 C 0.8979 0.37895 0.73406 0.0
C249 C 0.89127 0.35056 0.72411 0.0
C250 C 0.86726 0.33665 0.70965 0.0
C251 C 0.8783 0.49641 0.73517 0.0
C252 C 0.89688 0.52964 0.73985 0.0
C253 C 0.8521 0.48466 0.72212 0.0
C254 C 0.84496 0.50548 0.71374 0.0
C255 C 0.86341 0.53864 0.71841 0.0
C256 C 0.88952 0.55055 0.73153 0.0
C257 C 0.84972 0.35158 0.70557 0.0
H258 H 0.89985 0.48559 0.83104 0.0
H259 H 0.8829 0.47986 0.79881 0.0
H260 H 0.94453 0.4428 0.78636 0.0
H261 H 0.96053 0.4477 0.81852 0.0
H262 H 0.89948 0.49942 0.77036 0.0
H263 H 0.89784 0.40993 0.76625 0.0
H264 H 0.87589 0.44387 0.71877 0.0
H265 H 0.84113 0.38972 0.71248 0.0
H266 H 0.91703 0.38924 0.74485 0.0
H267 H 0.9047 0.33928 0.72798 0.0
H268 H 0.91741 0.53956 0.74971 0.0
H269 H 0.83695 0.45922 0.71835 0.0
H270 H 0.83109 0.34157 0.69449 0.0
H271 H 0.90424 0.57602 0.73535 0.0
H272 H 0.8252 0.49555 0.70334 0.0
C273 C 0.55336 0.49942 0.82346 0.0
C274 C 0.54758 0.4756 0.83496 0.0
C275 C 0.56019 0.49617 0.8057 0.0
C276 C 0.56075 0.46875 0.79906 0.0
C277 C 0.5557 0.44531 0.81072 0.0
C278 C 0.54935 0.44879 0.82853 0.0
C279 C 0.56409 0.46332 0.77969 0.0
C280 C 0.58882 0.48688 0.77109 0.0
C281 C 0.59121 0.48169 0.75258 0.0
C282 C 0.56829 0.45277 0.74268 0.0
C283 C 0.5436 0.42891 0.75115 0.0
C284 C 0.54176 0.43442 0.76965 0.0
C285 C 0.51994 0.398 0.74081 0.0
C286 C 0.50617 0.39717 0.72357 0.0
C287 C 0.51093 0.36903 0.74819 0.0
C288 C 0.489 0.33987 0.73843 0.0
C289 C 0.47555 0.33907 0.72113 0.0
C290 C 0.61808 0.50591 0.74359 0.0
C291 C 0.64943 0.51939 0.75145 0.0
C292 C 0.61265 0.51477 0.72675 0.0
C293 C 0.63805 0.53626 0.71781 0.0
C294 C 0.6695 0.54891 0.72535 0.0
C295 C 0.67487 0.54056 0.7424 0.0
C296 C 0.48403 0.36798 0.71386 0.0
H297 H 0.55207 0.52029 0.82814 0.0
H298 H 0.56375 0.51445 0.79694 0.0
H299 H 0.5561 0.42398 0.80593 0.0
H300 H 0.54463 0.42994 0.83707 0.0
H301 H 0.6062 0.50918 0.77881 0.0
H302 H 0.52237 0.41644 0.77619 0.0
H303 H 0.57033 0.44839 0.72849 0.0
H304 H 0.51237 0.41912 0.71763 0.0
H305 H 0.52125 0.36887 0.76139 0.0
H306 H 0.4826 0.3179 0.7444 0.0
H307 H 0.65433 0.51282 0.76436 0.0
H308 H 0.5887 0.50511 0.7205 0.0
H309 H 0.47398 0.36793 0.70053 0.0
H310 H 0.69879 0.54979 0.74856 0.0
H311 H 0.63301 0.54295 0.70498 0.0
C312 C 0.56643 0.07444 0.83014 0.0
C313 C 0.53517 0.05375 0.83398 0.0
C314 C 0.57274 0.08392 0.81271 0.0
C315 C 0.5479 0.07294 0.79881 0.0
C316 C 0.51679 0.05154 0.80262 0.0
C317 C 0.51051 0.04219 0.81999 0.0
C318 C 0.55384 0.08475 0.78061 0.0
C319 C 0.58002 0.0881 0.77188 0.0
C320 C 0.58511 0.09893 0.75456 0.0
C321 C 0.56345 0.10633 0.74608 0.0
C322 C 0.53712 0.10305 0.75454 0.0
C323 C 0.53286 0.09264 0.77188 0.0
C324 C 0.51382 0.11011 0.74528 0.0
C325 C 0.52383 0.13566 0.7345 0.0
C326 C 0.48119 0.09117 0.74711 0.0
C327 C 0.45927 0.09779 0.73857 0.0
C328 C 0.46939 0.12325 0.72785 0.0
C329 C 0.61291 0.10264 0.74521 0.0
C330 C 0.64265 0.11396 0.75496 0.0
C331 C 0.61021 0.09596 0.72631 0.0
C332 C 0.6366 0.10138 0.71736 0.0
C333 C 0.66635 0.11295 0.72707 0.0
C334 C 0.66898 0.11896 0.74601 0.0
C335 C 0.5018 0.142 0.72577 0.0
H336 H 0.58586 0.08404 0.84073 0.0
H337 H 0.59691 0.10064 0.81028 0.0
H338 H 0.49716 0.0421 0.79216 0.0
H339 H 0.48625 0.02591 0.8225 0.0
H340 H 0.59591 0.08145 0.77839 0.0
H341 H 0.51334 0.09122 0.7788 0.0
H342 H 0.56704 0.11466 0.73279 0.0
H343 H 0.54873 0.15108 0.73297 0.0
H344 H 0.47245 0.07088 0.75495 0.0
H345 H 0.43431 0.0827 0.74014 0.0
H346 H 0.64585 0.11975 0.76948 0.0
H347 H 0.58769 0.08669 0.71831 0.0
H348 H 0.51013 0.16185 0.7176 0.0
H349 H 0.69153 0.12779 0.75393 0.0
H350 H 0.63376 0.09719 0.70275 0.0
C351 C 0.80162 0.58643 0.85044 0.0
C352 C 0.80046 0.61351 0.84597 0.0
C353 C 0.79619 0.57664 0.86779 0.0
C354 C 0.78918 0.59353 0.88103 0.0
C355 C 0.7872 0.62017 0.87645 0.0
C356 C 0.79313 0.63028 0.85912 0.0
C357 C 0.78528 0.58383 0.8997 0.0
C358 C 0.80797 0.5783 0.90849 0.0
C359 C 0.80407 0.56693 0.92563 0.0
C360 C 0.77685 0.56139 0.93397 0.0
C361 C 0.75425 0.56762 0.92565 0.0
C362 C 0.7588 0.57913 0.90852 0.0
C363 C 0.72558 0.56121 0.93477 0.0
C364 C 0.70842 0.5326 0.94274 0.0
C365 C 0.71553 0.58377 0.93596 0.0
C366 C 0.68911 0.57795 0.94509 0.0
C367 C 0.67194 0.54925 0.95295 0.0
C368 C 0.82814 0.5605 0.93466 0.0
C369 C 0.84523 0.55005 0.92438 0.0
C370 C 0.83437 0.56475 0.95363 0.0
C371 C 0.85642 0.55812 0.96203 0.0
C372 C 0.87335 0.5476 0.95172 0.0
C373 C 0.86785 0.54424 0.93277 0.0
C374 C 0.6819 0.52668 0.95169 0.0
H375 H 0.80759 0.57331 0.84064 0.0
H376 H 0.79768 0.5559 0.87091 0.0
H377 H 0.782 0.6337 0.88642 0.0
H378 H 0.79216 0.65128 0.856 0.0
H379 H 0.82897 0.58335 0.90191 0.0
H380 H 0.74113 0.5832 0.90177 0.0
H381 H 0.77301 0.55203 0.947 0.0
H382 H 0.7154 0.51464 0.94195 0.0
H383 H 0.72842 0.60613 0.93008 0.0
H384 H 0.68187 0.59571 0.94586 0.0
H385 H 0.84102 0.54599 0.90978 0.0
H386 H 0.82241 0.57346 0.9621 0.0
H387 H 0.66929 0.5045 0.95777 0.0
H388 H 0.88114 0.53725 0.92431 0.0
H389 H 0.86002 0.56101 0.97667 0.0
C390 C 0.39918 0.17836 0.8619 0.0
C391 C 0.41437 0.20431 0.85159 0.0
C392 C 0.40906 0.1815 0.88029 0.0
C393 C 0.43425 0.21066 0.88866 0.0
C394 C 0.45042 0.23601 0.8781 0.0
C395 C 0.44067 0.23282 0.85975 0.0
C396 C 0.44234 0.21561 0.90853 0.0
C397 C 0.446 0.19309 0.91777 0.0
C398 C 0.45376 0.19812 0.93666 0.0
C399 C 0.45705 0.22582 0.94618 0.0
C400 C 0.45406 0.24876 0.93706 0.0
C401 C 0.44654 0.24335 0.91829 0.0
C402 C 0.46023 0.2791 0.947 0.0
C403 C 0.44747 0.27913 0.96347 0.0
C404 C 0.47969 0.30842 0.94021 0.0
C405 C 0.48678 0.33719 0.94985 0.0
C406 C 0.47447 0.33721 0.96644 0.0
C407 C 0.45987 0.17545 0.94641 0.0
C408 C 0.44284 0.14234 0.94103 0.0
C409 C 0.48332 0.18697 0.96116 0.0
C410 C 0.48915 0.16609 0.97046 0.0
C411 C 0.47222 0.13306 0.9651 0.0
C412 C 0.44915 0.12143 0.95016 0.0
C413 C 0.45437 0.30795 0.97305 0.0
H414 H 0.37887 0.15609 0.85592 0.0
H415 H 0.39615 0.16161 0.88813 0.0
H416 H 0.47033 0.25855 0.88412 0.0
H417 H 0.45337 0.25289 0.852 0.0
H418 H 0.44393 0.17232 0.91009 0.0
H419 H 0.44347 0.26066 0.91126 0.0
H420 H 0.46263 0.23 0.96072 0.0
H421 H 0.43216 0.25688 0.96893 0.0
H422 H 0.49004 0.30917 0.92762 0.0
H423 H 0.50207 0.35947 0.9444 0.0
H424 H 0.42448 0.13244 0.92982 0.0
H425 H 0.49761 0.21229 0.96549 0.0
H426 H 0.44461 0.30743 0.98582 0.0
H427 H 0.43619 0.09624 0.94536 0.0
H428 H 0.507 0.17591 0.98194 0.0
C429 C 0.77403 0.18876 0.85315 0.0
C430 C 0.80498 0.19743 0.84923 0.0
C431 C 0.76729 0.19088 0.87109 0.0
C432 C 0.79145 0.20204 0.88539 0.0
C433 C 0.82217 0.21 0.88144 0.0
C434 C 0.82883 0.2077 0.8636 0.0
C435 C 0.78539 0.2069 0.90435 0.0
C436 C 0.75891 0.18334 0.91187 0.0
C437 C 0.75462 0.1877 0.93014 0.0
C438 C 0.77678 0.21604 0.94077 0.0
C439 C 0.80271 0.24043 0.93331 0.0
C440 C 0.80672 0.23548 0.91507 0.0
C441 C 0.82516 0.27131 0.94435 0.0
C442 C 0.81428 0.28464 0.9575 0.0
C443 C 0.85756 0.28811 0.9416 0.0
C444 C 0.87825 0.31772 0.95136 0.0
C445 C 0.86723 0.33114 0.96433 0.0
C446 C 0.72683 0.16307 0.9383 0.0
C447 C 0.69591 0.15155 0.93029 0.0
C448 C 0.73104 0.15245 0.95478 0.0
C449 C 0.70485 0.13143 0.96336 0.0
C450 C 0.67384 0.1211 0.95585 0.0
C451 C 0.66967 0.13089 0.93902 0.0
C452 C 0.8351 0.31393 0.9675 0.0
H453 H 0.75525 0.18128 0.84235 0.0
H454 H 0.74347 0.18485 0.87372 0.0
H455 H 0.84118 0.21823 0.8922 0.0
H456 H 0.8528 0.21417 0.86104 0.0
H457 H 0.7422 0.16129 0.90371 0.0
H458 H 0.82613 0.25423 0.90895 0.0
H459 H 0.77351 0.21913 0.95488 0.0
H460 H 0.78952 0.27275 0.95995 0.0
H461 H 0.86709 0.27842 0.93191 0.0
H462 H 0.90287 0.33027 0.94861 0.0
H463 H 0.69204 0.1595 0.91762 0.0
H464 H 0.75465 0.16062 0.96111 0.0
H465 H 0.82596 0.32302 0.97779 0.0
H466 H 0.64612 0.12338 0.93285 0.0
H467 H 0.70894 0.12348 0.97596 0.0
C468 C 0.58602 0.81797 0.15521 0.0
C469 C 0.61079 0.81256 0.16053 0.0
C470 C 0.57516 0.8138 0.13692 0.0
C471 C 0.58858 0.80367 0.12368 0.0
C472 C 0.61349 0.79848 0.12905 0.0
C473 C 0.62451 0.80293 0.14728 0.0
C474 C 0.57625 0.79766 0.10434 0.0
C475 C 0.57069 0.81985 0.09607 0.0
C476 C 0.56021 0.8146 0.07759 0.0
C477 C 0.55486 0.78667 0.06744 0.0
C478 C 0.55924 0.76363 0.07562 0.0
C479 C 0.57014 0.76954 0.09409 0.0
C480 C 0.55152 0.73304 0.06511 0.0
C481 C 0.52525 0.71763 0.05198 0.0
C482 C 0.56981 0.71855 0.0684 0.0
C483 C 0.56161 0.68911 0.0591 0.0
C484 C 0.53506 0.67355 0.0462 0.0
C485 C 0.55453 0.83806 0.0688 0.0
C486 C 0.53492 0.84845 0.07611 0.0
C487 C 0.56775 0.84929 0.05266 0.0
C488 C 0.56122 0.87026 0.04388 0.0
C489 C 0.54103 0.88003 0.05096 0.0
C490 C 0.52796 0.86902 0.06716 0.0
C491 C 0.51731 0.68843 0.04254 0.0
H492 H 0.57501 0.8253 0.16523 0.0
H493 H 0.55577 0.81774 0.13316 0.0
H494 H 0.62443 0.79088 0.11912 0.0
H495 H 0.64331 0.79812 0.15106 0.0
H496 H 0.57536 0.84164 0.10387 0.0
H497 H 0.57306 0.7518 0.10072 0.0
H498 H 0.54693 0.7828 0.05315 0.0
H499 H 0.51037 0.72779 0.04917 0.0
H500 H 0.59055 0.72994 0.07815 0.0
H501 H 0.57583 0.67832 0.06218 0.0
H502 H 0.52429 0.83994 0.08848 0.0
H503 H 0.58302 0.84171 0.0468 0.0
H504 H 0.49724 0.67752 0.03232 0.0
H505 H 0.51225 0.87622 0.0728 0.0
H506 H 0.57129 0.87823 0.03131 0.0
C507 C 0.21535 0.83115 0.15421 0.0
C508 C 0.20867 0.80704 0.16566 0.0
C509 C 0.22213 0.8277 0.13643 0.0
C510 C 0.22176 0.7998 0.1297 0.0
C511 C 0.21559 0.77598 0.14129 0.0
C512 C 0.20924 0.77961 0.15908 0.0
C513 C 0.22594 0.7945 0.11041 0.0
C514 C 0.25144 0.81794 0.10213 0.0
C515 C 0.25572 0.81196 0.08404 0.0
C516 C 0.23353 0.7828 0.07411 0.0
C517 C 0.20771 0.75943 0.08209 0.0
C518 C 0.20427 0.76538 0.10027 0.0
C519 C 0.18454 0.72866 0.07147 0.0
C520 C 0.1722 0.72821 0.05389 0.0
C521 C 0.1748 0.69951 0.07878 0.0
C522 C 0.15359 0.67051 0.0686 0.0
C523 C 0.14153 0.67012 0.05098 0.0
C524 C 0.28399 0.83528 0.07557 0.0
C525 C 0.29306 0.8678 0.0765 0.0
C526 C 0.30185 0.8248 0.06618 0.0
C527 C 0.32821 0.84628 0.05792 0.0
C528 C 0.33718 0.87871 0.05874 0.0
C529 C 0.31928 0.88929 0.06799 0.0
C530 C 0.15074 0.69922 0.04379 0.0
H531 H 0.21501 0.85252 0.15898 0.0
H532 H 0.22661 0.84634 0.12777 0.0
H533 H 0.21533 0.7543 0.13649 0.0
H534 H 0.20379 0.76049 0.16754 0.0
H535 H 0.26859 0.84021 0.10996 0.0
H536 H 0.18423 0.74751 0.10646 0.0
H537 H 0.23661 0.7781 0.06015 0.0
H538 H 0.17902 0.75031 0.04798 0.0
H539 H 0.18403 0.69912 0.09226 0.0
H540 H 0.14656 0.64836 0.0745 0.0
H541 H 0.2796 0.87648 0.08355 0.0
H542 H 0.29557 0.79994 0.06535 0.0
H543 H 0.14174 0.6995 0.03022 0.0
H544 H 0.32582 0.91422 0.06882 0.0
H545 H 0.34152 0.83751 0.05078 0.0
C546 C 0.23428 0.41607 0.16461 0.0
C547 C 0.20292 0.39575 0.16834 0.0
C548 C 0.24089 0.42507 0.14712 0.0
C549 C 0.21625 0.41357 0.13302 0.0
C550 C 0.18507 0.39212 0.13675 0.0
C551 C 0.17849 0.3835 0.1542 0.0
C552 C 0.22245 0.42464 0.11465 0.0
C553 C 0.24974 0.42941 0.10662 0.0
C554 C 0.25458 0.43891 0.08903 0.0
C555 C 0.2322 0.44419 0.07961 0.0
C556 C 0.20513 0.43991 0.08749 0.0
C557 C 0.20053 0.43028 0.10496 0.0
C558 C 0.18139 0.4453 0.07754 0.0
C559 C 0.19088 0.47352 0.06926 0.0
C560 C 0.14893 0.42244 0.07663 0.0
C561 C 0.1264 0.42769 0.0676 0.0
C562 C 0.13588 0.45602 0.05949 0.0
C563 C 0.28265 0.4429 0.08019 0.0
C564 C 0.31346 0.46253 0.08878 0.0
C565 C 0.27874 0.428 0.0627 0.0
C566 C 0.30507 0.43318 0.05379 0.0
C567 C 0.33601 0.45398 0.06199 0.0
C568 C 0.33989 0.46815 0.07973 0.0
C569 C 0.16828 0.47895 0.06044 0.0
H570 H 0.25351 0.42567 0.17533 0.0
H571 H 0.26513 0.44173 0.14478 0.0
H572 H 0.16559 0.38201 0.12617 0.0
H573 H 0.15421 0.36722 0.15668 0.0
H574 H 0.26667 0.42475 0.11374 0.0
H575 H 0.17997 0.4278 0.11116 0.0
H576 H 0.23579 0.45151 0.06607 0.0
H577 H 0.21573 0.49161 0.0699 0.0
H578 H 0.14099 0.40043 0.08283 0.0
H579 H 0.10151 0.40979 0.06716 0.0
H580 H 0.3171 0.47435 0.10225 0.0
H581 H 0.25522 0.41231 0.0559 0.0
H582 H 0.17609 0.50098 0.05427 0.0
H583 H 0.36337 0.48427 0.08645 0.0
H584 H 0.30116 0.42094 0.04042 0.0
C585 C 0.46463 0.91316 0.1825 0.0
C586 C 0.46534 0.94134 0.17844 0.0
C587 C 0.45832 0.90279 0.19969 0.0
C588 C 0.45225 0.9202 0.2131 0.0
C589 C 0.45196 0.94786 0.20886 0.0
C590 C 0.45875 0.9585 0.19173 0.0
C591 C 0.44822 0.91056 0.23175 0.0
C592 C 0.4702 0.90394 0.24043 0.0
C593 C 0.46744 0.89555 0.2582 0.0
C594 C 0.44188 0.89292 0.26718 0.0
C595 C 0.41915 0.89868 0.2586 0.0
C596 C 0.42286 0.90816 0.24098 0.0
C597 C 0.391 0.89349 0.26786 0.0
C598 C 0.3739 0.86561 0.27646 0.0
C599 C 0.38091 0.91603 0.26818 0.0
C600 C 0.35436 0.9108 0.27699 0.0
C601 C 0.33711 0.8827 0.28534 0.0
C602 C 0.49145 0.88973 0.26737 0.0
C603 C 0.49928 0.86814 0.2591 0.0
C604 C 0.50696 0.90604 0.28434 0.0
C605 C 0.53025 0.90121 0.29277 0.0
C606 C 0.53822 0.87961 0.28453 0.0
C607 C 0.52213 0.86283 0.26768 0.0
C608 C 0.34721 0.86023 0.28504 0.0
H609 H 0.46995 0.8997 0.17255 0.0
H610 H 0.45855 0.88131 0.20258 0.0
H611 H 0.44759 0.96184 0.21899 0.0
H612 H 0.4592 0.98033 0.1889 0.0
H613 H 0.49011 0.90627 0.23354 0.0
H614 H 0.40544 0.91255 0.2342 0.0
H615 H 0.43955 0.88609 0.28085 0.0
H616 H 0.38092 0.84768 0.27632 0.0
H617 H 0.39375 0.93782 0.26177 0.0
H618 H 0.34699 0.92847 0.27706 0.0
H619 H 0.48734 0.85499 0.2461 0.0
H620 H 0.50146 0.92298 0.29092 0.0
H621 H 0.33448 0.8385 0.29152 0.0
H622 H 0.52683 0.84522 0.26122 0.0
H623 H 0.54225 0.91464 0.30569 0.0
C624 C 0.07008 0.51345 0.19435 0.0
C625 C 0.08367 0.5402 0.18451 0.0
C626 C 0.08051 0.51616 0.21262 0.0
C627 C 0.10472 0.54566 0.22129 0.0
C628 C 0.11944 0.57183 0.21108 0.0
C629 C 0.10903 0.56912 0.19291 0.0
C630 C 0.11312 0.55007 0.24114 0.0
C631 C 0.11761 0.52768 0.25001 0.0
C632 C 0.12582 0.53244 0.26886 0.0
C633 C 0.12868 0.55965 0.27875 0.0
C634 C 0.12477 0.58238 0.27 0.0
C635 C 0.11682 0.5773 0.25127 0.0
C636 C 0.13025 0.61219 0.28023 0.0
C637 C 0.11642 0.6113 0.29641 0.0
C638 C 0.14973 0.6419 0.27385 0.0
C639 C 0.15551 0.67018 0.28353 0.0
C640 C 0.14159 0.66927 0.29963 0.0
C641 C 0.13288 0.51004 0.2782 0.0
C642 C 0.11557 0.47685 0.27308 0.0
C643 C 0.15728 0.5219 0.29244 0.0
C644 C 0.16391 0.50127 0.30146 0.0
C645 C 0.14688 0.4682 0.29626 0.0
C646 C 0.12252 0.45617 0.28201 0.0
C647 C 0.1219 0.63961 0.30598 0.0
H648 H 0.05055 0.49084 0.18812 0.0
H649 H 0.06869 0.49561 0.22015 0.0
H650 H 0.13865 0.59467 0.21727 0.0
H651 H 0.12042 0.58987 0.18548 0.0
H652 H 0.11584 0.50723 0.24212 0.0
H653 H 0.11304 0.59451 0.2446 0.0
H654 H 0.13461 0.5636 0.29326 0.0
H655 H 0.10122 0.5887 0.30157 0.0
H656 H 0.16093 0.6433 0.26152 0.0
H657 H 0.17083 0.6928 0.27841 0.0
H658 H 0.09638 0.46677 0.26233 0.0
H659 H 0.17157 0.54729 0.29661 0.0
H660 H 0.11121 0.63841 0.31849 0.0
H661 H 0.1089 0.43078 0.27773 0.0
H662 H 0.18224 0.5113 0.3127 0.0
C663 C 0.44377 0.51666 0.18811 0.0
C664 C 0.47494 0.5263 0.18419 0.0
C665 C 0.43693 0.51866 0.20603 0.0
C666 C 0.4612 0.53069 0.22033 0.0
C667 C 0.49212 0.53945 0.21641 0.0
C668 C 0.49889 0.53724 0.19858 0.0
C669 C 0.45502 0.53617 0.23917 0.0
C670 C 0.42911 0.51251 0.24702 0.0
C671 C 0.42373 0.51798 0.26497 0.0
C672 C 0.44488 0.54764 0.27493 0.0
C673 C 0.47089 0.57163 0.26729 0.0
C674 C 0.47545 0.56562 0.24933 0.0
C675 C 0.4933 0.60288 0.27804 0.0
C676 C 0.48254 0.61667 0.291 0.0
C677 C 0.52577 0.61928 0.27543 0.0
C678 C 0.54674 0.64859 0.28536 0.0
C679 C 0.53607 0.66191 0.29861 0.0
C680 C 0.39594 0.4932 0.27339 0.0
C681 C 0.36661 0.47337 0.26309 0.0
C682 C 0.39809 0.49012 0.29203 0.0
C683 C 0.37148 0.46896 0.30025 0.0
C684 C 0.34211 0.44943 0.29 0.0
C685 C 0.34014 0.45166 0.27127 0.0
C686 C 0.50368 0.6456 0.30125 0.0
H687 H 0.42489 0.50865 0.17731 0.0
H688 H 0.41295 0.51203 0.20865 0.0
H689 H 0.51123 0.54842 0.22717 0.0
H690 H 0.52304 0.54447 0.19601 0.0
H691 H 0.41367 0.48964 0.23924 0.0
H692 H 0.49463 0.5842 0.24298 0.0
H693 H 0.44103 0.55214 0.2887 0.0
H694 H 0.4577 0.60535 0.29319 0.0
H695 H 0.53522 0.60943 0.26578 0.0
H696 H 0.5713 0.6609 0.28251 0.0
H697 H 0.36375 0.47516 0.24877 0.0
H698 H 0.42029 0.50434 0.30043 0.0
H699 H 0.49459 0.65513 0.31134 0.0
H700 H 0.31796 0.43686 0.26291 0.0
H701 H 0.37387 0.46863 0.31476 0.0
C702 C 0.5446 0.03156 0.06049 0.0
Eu703 Eu 0.52283 0.02034 0.02655 0.0
C704 C 0.53231 0.01737 0.07738 0.0
C705 C 0.52853 0.03579 0.09125 0.0
C706 C 0.51644 0.02287 0.10721 0.0
C707 C 0.50802 0.99124 0.10974 0.0
C708 C 0.51209 0.97285 0.0959 0.0
C709 C 0.52393 0.9857 0.07984 0.0
C710 C 0.50396 0.05517 0.00824 0.0
C711 C 0.44722 0.96556 0.02339 0.0
C712 C 0.46314 0.97846 0.95568 0.0
Eu713 Eu 0.48563 0.98879 0.98947 0.0
C714 C 0.47569 0.99109 0.93849 0.0
C715 C 0.47848 0.97122 0.92506 0.0
C716 C 0.49018 0.98257 0.90871 0.0
C717 C 0.49918 0.01402 0.90539 0.0
C718 C 0.49626 0.0339 0.91876 0.0
C719 C 0.48477 0.02263 0.93518 0.0
C720 C 0.50506 0.95415 0.00759 0.0
C721 C 0.56237 0.04173 0.99283 0.0
O722 O 0.55038 0.01465 0.0485 0.0
O723 O 0.53118 0.0462 0.05313 0.0
O724 O 0.53092 0.06752 0.01807 0.0
O725 O 0.48766 0.02552 0.00926 0.0
O726 O 0.47529 0.97998 0.03289 0.0
O727 O 0.44394 0.96901 0.00607 0.0
O728 O 0.46037 0.99765 0.96767 0.0
O729 O 0.47382 0.96143 0.96303 0.0
O730 O 0.47811 0.94149 0.99768 0.0
O731 O 0.5209 0.98384 0.00664 0.0
O732 O 0.53465 0.02674 0.98284 0.0
O733 O 0.56475 0.03988 0.01042 0.0
H734 H 0.5348 0.06024 0.08971 0.0
H735 H 0.51348 0.03762 0.11755 0.0
H736 H 0.50659 0.94867 0.09757 0.0
H737 H 0.52656 0.97082 0.06942 0.0
H738 H 0.47142 0.94676 0.92716 0.0
H739 H 0.49156 0.96653 0.8985 0.0
H740 H 0.50296 0.05822 0.91652 0.0
H741 H 0.48294 0.03863 0.94522 0.0
C742 C 0.99546 0.53161 0.05676 0.0
Eu743 Eu 0.99591 0.51072 0.02376 0.0
C744 C 0.00927 0.53214 0.07506 0.0
C745 C 0.99749 0.5043 0.08403 0.0
C746 C 0.01 0.50548 0.10158 0.0
C747 C 0.03439 0.53449 0.11056 0.0
C748 C 0.04662 0.56215 0.10146 0.0
C749 C 0.03406 0.56101 0.08394 0.0
C750 C 0.95408 0.45259 0.00653 0.0
C751 C 0.04402 0.48172 0.0231 0.0
C752 C 0.01617 0.4748 0.955 0.0
Eu753 Eu 0.01462 0.49418 0.98811 0.0
C754 C 1.0017 0.4742 0.93691 0.0
C755 C 0.02067 0.49501 0.92473 0.0
C756 C 0.0076 0.49482 0.90755 0.0
C757 C 0.97535 0.4736 0.90214 0.0
C758 C 0.9563 0.45266 0.91423 0.0
C759 C 0.9693 0.45304 0.93151 0.0
C760 C 0.0563 0.55214 0.00573 0.0
C761 C 0.9651 0.52118 0.98847 0.0
O762 O 0.0152 0.54952 0.04562 0.0
O763 O 0.97337 0.50385 0.04878 0.0
O764 O 0.94571 0.47073 0.01528 0.0
O765 O 0.9838 0.46511 0.00801 0.0
O766 O 0.03468 0.49952 0.0321 0.0
O767 O 0.03522 0.47211 0.00573 0.0
O768 O 0.99744 0.45582 0.96618 0.0
O769 O 0.03709 0.50302 0.963 0.0
O770 O 0.06478 0.53385 0.99727 0.0
O771 O 0.02661 0.53969 1.00386 0.0
O772 O 0.97499 0.50373 0.97973 0.0
O773 O 0.9743 0.53172 0.00575 0.0
H774 H 0.97836 0.48163 0.07761 0.0
H775 H 1.0001 0.48382 0.1083 0.0
H776 H 0.06587 0.58472 0.10792 0.0
H777 H 0.04364 0.58282 0.07736 0.0
H778 H 0.04574 0.51135 0.92846 0.0
H779 H 0.02288 0.51077 0.89833 0.0
H780 H 0.93137 0.43602 0.9103 0.0
H781 H 0.95398 0.43668 0.94056 0.0
C782 C 0.46096 0.47367 0.95575 0.0
Eu783 Eu 0.48442 0.49473 0.98922 0.0
C784 C 0.4744 0.47406 0.93832 0.0
C785 C 0.47789 0.49693 0.92657 0.0
C786 C 0.49116 0.49814 0.91029 0.0
C787 C 0.50102 0.47632 0.90525 0.0
C788 C 0.4971 0.45311 0.91686 0.0
C789 C 0.48404 0.45204 0.93325 0.0
C790 C 0.50141 0.55301 0.00542 0.0
C791 C 0.56138 0.52353 0.99074 0.0
C792 C 0.54878 0.537 0.05877 0.0
Eu793 Eu 0.52479 0.51396 0.02554 0.0
C794 C 0.53613 0.53446 0.07665 0.0
C795 C 0.52807 0.50757 0.08607 0.0
C796 C 0.51641 0.50551 0.10298 0.0
C797 C 0.5125 0.53023 0.11087 0.0
C798 C 0.52066 0.55714 0.1015 0.0
C799 C 0.53236 0.55925 0.0846 0.0
C800 C 0.5078 0.45551 0.00952 0.0
C801 C 0.44696 0.4827 0.02383 0.0
O802 O 0.46296 0.45561 0.96751 0.0
O803 O 0.46683 0.50137 0.96335 0.0
O804 O 0.47388 0.53404 0.99659 0.0
O805 O 0.51916 0.54117 0.00458 0.0
O806 O 0.53296 0.50537 0.98189 0.0
O807 O 0.565 0.53493 0.00785 0.0
O808 O 0.54183 0.55258 0.04735 0.0
O809 O 0.54733 0.51137 0.0509 0.0
O810 O 0.53502 0.47418 0.01877 0.0
O811 O 0.49023 0.46758 0.01018 0.0
O812 O 0.4751 0.49925 0.03331 0.0
O813 O 0.44383 0.47409 0.00631 0.0
H814 H 0.47051 0.51408 0.93001 0.0
H815 H 0.49388 0.51632 0.90165 0.0
H816 H 0.50368 0.43542 0.91317 0.0
H817 H 0.48146 0.43392 0.9419 0.0
H818 H 0.53097 0.48816 0.08047 0.0
H819 H 0.51111 0.48485 0.11006 0.0
H820 H 0.51796 0.57659 0.10727 0.0
H821 H 0.53855 0.58036 0.07777 0.0
C822 C 0.2103 0.35974 0.39275 0.0
Eu823 Eu 0.18838 0.35054 0.35891 0.0
C824 C 0.19747 0.34715 0.40993 0.0
C825 C 0.18576 0.36259 0.42106 0.0
C826 C 0.17433 0.35123 0.43745 0.0
C827 C 0.17465 0.32438 0.44321 0.0
C828 C 0.18602 0.3087 0.43202 0.0
C829 C 0.19741 0.32001 0.4156 0.0
C830 C 0.17365 0.38841 0.3406 0.0
C831 C 0.11122 0.29979 0.35507 0.0
C832 C 0.12993 0.31131 0.2877 0.0
Eu833 Eu 0.15149 0.32103 0.32158 0.0
C834 C 0.14234 0.32594 0.27099 0.0
C835 C 0.14112 0.30647 0.25586 0.0
C836 C 0.15296 0.31966 0.23992 0.0
C837 C 0.16594 0.35255 0.23874 0.0
C838 C 0.16744 0.37215 0.25393 0.0
C839 C 0.15588 0.35901 0.26996 0.0
C840 C 0.16735 0.28388 0.33989 0.0
C841 C 0.22826 0.3708 0.32529 0.0
O842 O 0.21234 0.34013 0.38071 0.0
O843 O 0.20068 0.37765 0.38542 0.0
O844 O 0.19998 0.39903 0.35084 0.0
O845 O 0.15564 0.35887 0.34136 0.0
O846 O 0.13879 0.31365 0.36515 0.0
O847 O 0.10935 0.30253 0.33757 0.0
O848 O 0.12462 0.32822 0.29995 0.0
O849 O 0.14297 0.29604 0.2947 0.0
O850 O 0.14073 0.27266 0.32985 0.0
O851 O 0.18468 0.31335 0.33891 0.0
O852 O 0.20062 0.3592 0.31557 0.0
O853 O 0.23019 0.36672 0.3426 0.0
H854 H 0.18551 0.38359 0.41715 0.0
H855 H 0.16515 0.36346 0.44561 0.0
H856 H 0.18669 0.28802 0.43614 0.0
H857 H 0.20641 0.30761 0.40743 0.0
H858 H 0.13093 0.28097 0.25636 0.0
H859 H 0.15144 0.30406 0.22837 0.0
H860 H 0.17767 0.39765 0.2534 0.0
H861 H 0.15755 0.37471 0.2815 0.0
C862 C 0.65968 0.864 0.3905 0.0
Eu863 Eu 0.6602 0.84329 0.35752 0.0
C864 C 0.67285 0.86296 0.40862 0.0
C865 C 0.66241 0.83388 0.41617 0.0
C866 C 0.67474 0.83347 0.43346 0.0
C867 C 0.69775 0.86205 0.4435 0.0
C868 C 0.70868 0.89101 0.43582 0.0
C869 C 0.69622 0.89147 0.41858 0.0
C870 C 0.62076 0.78404 0.34084 0.0
C871 C 0.71043 0.81699 0.3575 0.0
C872 C 0.68066 0.80574 0.28933 0.0
Eu873 Eu 0.68003 0.82741 0.32206 0.0
C874 C 0.67064 0.80878 0.27089 0.0
C875 C 0.67969 0.83882 0.26493 0.0
C876 C 0.67001 0.84104 0.24733 0.0
C877 C 0.65091 0.81328 0.23547 0.0
C878 C 0.64146 0.78329 0.24155 0.0
C879 C 0.65137 0.78108 0.25908 0.0
C880 C 0.71974 0.88662 0.33884 0.0
C881 C 0.63014 0.85452 0.32205 0.0
O882 O 0.6802 0.88166 0.37963 0.0
O883 O 0.63678 0.83698 0.3822 0.0
O884 O 0.61091 0.80128 0.34912 0.0
O885 O 0.65058 0.79816 0.34234 0.0
O886 O 0.70003 0.83401 0.36621 0.0
O887 O 0.70155 0.80662 0.3402 0.0
O888 O 0.65787 0.78994 0.2995 0.0
O889 O 0.70489 0.83118 0.29816 0.0
O890 O 0.72942 0.86946 0.33027 0.0
O891 O 0.68991 0.87253 0.33731 0.0
O892 O 0.64192 0.83905 0.31304 0.0
O893 O 0.63696 0.8627 0.33965 0.0
H894 H 0.64463 0.81143 0.4088 0.0
H895 H 0.6663 0.81079 0.43899 0.0
H896 H 0.72637 0.91337 0.44333 0.0
H897 H 0.70471 0.91417 0.41306 0.0
H898 H 0.69419 0.86059 0.27384 0.0
H899 H 0.67718 0.86441 0.24303 0.0
H900 H 0.62681 0.76155 0.23262 0.0
H901 H 0.64401 0.75768 0.26342 0.0
C902 C 0.12517 0.80642 0.28761 0.0
Eu903 Eu 0.14866 0.82742 0.32112 0.0
C904 C 0.13854 0.80707 0.27008 0.0
C905 C 0.14373 0.83118 0.25887 0.0
C906 C 0.15658 0.83224 0.24243 0.0
C907 C 0.16438 0.80911 0.23668 0.0
C908 C 0.15884 0.78475 0.24777 0.0
C909 C 0.14613 0.78377 0.26429 0.0
C910 C 0.16558 0.88556 0.33746 0.0
C911 C 0.22588 0.85715 0.32222 0.0
C912 C 0.21386 0.86933 0.39038 0.0
Eu913 Eu 0.18993 0.84681 0.35711 0.0
C914 C 0.20071 0.86591 0.40814 0.0
C915 C 0.1905 0.83775 0.41665 0.0
C916 C 0.17786 0.83476 0.4333 0.0
C917 C 0.17495 0.85973 0.44177 0.0
C918 C 0.1854 0.88796 0.43335 0.0
C919 C 0.19815 0.89102 0.41673 0.0
C920 C 0.17243 0.78818 0.34108 0.0
C921 C 0.11211 0.81496 0.35619 0.0
O922 O 0.1276 0.78846 0.29929 0.0
O923 O 0.13058 0.83388 0.29532 0.0
O924 O 0.13795 0.86651 0.32876 0.0
O925 O 0.18347 0.8739 0.33638 0.0
O926 O 0.19735 0.83865 0.31354 0.0
O927 O 0.22973 0.86849 0.33934 0.0
O928 O 0.20669 0.885 0.37915 0.0
O929 O 0.21298 0.84415 0.38226 0.0
O930 O 0.20002 0.80697 0.34994 0.0
O931 O 0.15501 0.80038 0.34196 0.0
O932 O 0.14056 0.83205 0.36525 0.0
O933 O 0.10837 0.80651 0.3386 0.0
H934 H 0.13793 0.84936 0.26283 0.0
H935 H 0.16057 0.85133 0.23422 0.0
H936 H 0.1638 0.76607 0.24354 0.0
H937 H 0.14216 0.76465 0.27247 0.0
H938 H 0.19216 0.81791 0.41046 0.0
H939 H 0.17006 0.81276 0.4395 0.0
H940 H 0.18426 0.90796 0.43977 0.0
H941 H 0.2061 0.91312 0.41061 0.0
C942 C 0.87758 0.69503 0.72592 0.0
Eu943 Eu 0.85609 0.68444 0.69192 0.0
C944 C 0.86465 0.68221 0.74303 0.0
C945 C 0.85941 0.70111 0.75588 0.0
C946 C 0.8473 0.68954 0.77211 0.0
C947 C 0.84029 0.65883 0.77595 0.0
C948 C 0.84578 0.63998 0.76315 0.0
C949 C 0.85769 0.65146 0.74684 0.0
C950 C 0.83966 0.72031 0.67289 0.0
C951 C 0.77905 0.63255 0.68835 0.0
C952 C 0.79771 0.64197 0.62078 0.0
Eu953 Eu 0.81897 0.6527 0.65476 0.0
C954 C 0.81032 0.65654 0.60406 0.0
C955 C 0.81112 0.63746 0.58936 0.0
C956 C 0.82278 0.65057 0.57336 0.0
C957 C 0.83357 0.68297 0.57168 0.0
C958 C 0.8333 0.70225 0.58648 0.0
C959 C 0.82188 0.68921 0.60256 0.0
C960 C 0.83487 0.61672 0.67402 0.0
C961 C 0.89569 0.70393 0.65803 0.0
O962 O 0.88123 0.67621 0.7141 0.0
O963 O 0.8666 0.71162 0.71831 0.0
O964 O 0.86626 0.73208 0.68305 0.0
O965 O 0.82244 0.6908 0.67404 0.0
O966 O 0.80665 0.64749 0.69843 0.0
O967 O 0.77686 0.63409 0.67072 0.0
O968 O 0.79178 0.65874 0.6328 0.0
O969 O 0.81097 0.62714 0.6281 0.0
O970 O 0.80846 0.60502 0.6637 0.0
O971 O 0.85234 0.64613 0.67272 0.0
O972 O 0.86785 0.69023 0.64832 0.0
O973 O 0.89817 0.70231 0.67567 0.0
H974 H 0.86469 0.72494 0.75338 0.0
H975 H 0.84331 0.70464 0.78166 0.0
H976 H 0.84144 0.61655 0.76586 0.0
H977 H 0.86161 0.63628 0.73731 0.0
H978 H 0.80251 0.61229 0.59022 0.0
H979 H 0.82267 0.6352 0.56213 0.0
H980 H 0.8419 0.72742 0.58561 0.0
H981 H 0.82201 0.70467 0.61375 0.0
C982 C 0.32124 0.18809 0.72407 0.0
Eu983 Eu 0.32702 0.17417 0.69069 0.0
C984 C 0.33672 0.19016 0.74216 0.0
C985 C 0.32261 0.16456 0.75283 0.0
C986 C 0.33643 0.16669 0.77016 0.0
C987 C 0.36441 0.19459 0.77727 0.0
C988 C 0.37887 0.21998 0.76653 0.0
C989 C 0.36515 0.21783 0.74916 0.0
C990 C 0.28862 0.11815 0.67034 0.0
C991 C 0.37903 0.15018 0.69042 0.0
C992 C 0.35725 0.15122 0.62225 0.0
Eu993 Eu 0.35146 0.16529 0.65558 0.0
C994 C 0.34249 0.15037 0.60421 0.0
C995 C 0.36097 0.1719 0.59219 0.0
C996 C 0.34765 0.17153 0.57504 0.0
C997 C 0.31562 0.14944 0.56953 0.0
C998 C 0.29705 0.1279 0.58152 0.0
C999 C 0.31029 0.12845 0.59876 0.0
C1000 C 0.39056 0.22063 0.67626 0.0
C1001 C 0.29961 0.1896 0.65594 0.0
O1002 O 0.33794 0.20973 0.71343 0.0
O1003 O 0.30414 0.15952 0.7154 0.0
O1004 O 0.27827 0.13433 0.67926 0.0
O1005 O 0.31836 0.13151 0.67304 0.0
O1006 O 0.36674 0.16496 0.69954 0.0
O1007 O 0.37318 0.14346 0.67269 0.0
O1008 O 0.33965 0.1297 0.63272 0.0
O1009 O 0.37514 0.17955 0.63106 0.0
O1010 O 0.40039 0.20438 0.66693 0.0
O1011 O 0.36086 0.20801 0.67349 0.0
O1012 O 0.31222 0.17524 0.64672 0.0
O1013 O 0.30496 0.19573 0.67369 0.0
H1014 H 0.30062 0.14299 0.74787 0.0
H1015 H 0.32477 0.14684 0.77822 0.0
H1016 H 0.40071 0.2416 0.77163 0.0
H1017 H 0.3767 0.23799 0.74132 0.0
H1018 H 0.38585 0.18892 0.59602 0.0
H1019 H 0.36259 0.18799 0.56591 0.0
H1020 H 0.27229 0.11063 0.57753 0.0
H1021 H 0.29535 0.11161 0.60773 0.0
C1022 C 0.79341 0.13227 0.62143 0.0
Eu1023 Eu 0.8164 0.15634 0.65467 0.0
C1024 C 0.80692 0.13441 0.60386 0.0
C1025 C 0.81817 0.16218 0.59486 0.0
C1026 C 0.83123 0.16397 0.57841 0.0
C1027 C 0.83347 0.13814 0.57064 0.0
C1028 C 0.82198 0.11029 0.57953 0.0
C1029 C 0.80881 0.10844 0.59594 0.0
C1030 C 0.83435 0.21609 0.66899 0.0
C1031 C 0.89399 0.18758 0.65694 0.0
C1032 C 0.87968 0.20268 0.72442 0.0
Eu1033 Eu 0.85625 0.17801 0.6913 0.0
C1034 C 0.86685 0.20094 0.74218 0.0
C1035 C 0.85766 0.17411 0.75181 0.0
C1036 C 0.84584 0.17289 0.76861 0.0
C1037 C 0.84284 0.19841 0.77616 0.0
C1038 C 0.8521 0.22526 0.76658 0.0
C1039 C 0.864 0.22653 0.74979 0.0
C1040 C 0.83832 0.1182 0.67692 0.0
C1041 C 0.77858 0.14607 0.68908 0.0
O1042 O 0.80009 0.11715 0.63329 0.0
O1043 O 0.79442 0.15799 0.62883 0.0
O1044 O 0.80672 0.19694 0.66029 0.0
O1045 O 0.85136 0.20342 0.66907 0.0
O1046 O 0.86588 0.16838 0.64788 0.0
O1047 O 0.89676 0.19888 0.67397 0.0
O1048 O 0.87253 0.21743 0.71253 0.0
O1049 O 0.87865 0.17689 0.71711 0.0
O1050 O 0.86585 0.13726 0.68577 0.0
O1051 O 0.82142 0.13099 0.67688 0.0
O1052 O 0.80663 0.16542 0.69819 0.0
O1053 O 0.77591 0.13507 0.672 0.0
H1054 H 0.81701 0.18263 0.60051 0.0
H1055 H 0.83985 0.18569 0.57183 0.0
H1056 H 0.82275 0.08973 0.57366 0.0
H1057 H 0.80008 0.08662 0.60245 0.0
H1058 H 0.85981 0.15408 0.74647 0.0
H1059 H 0.83968 0.15224 0.77588 0.0
H1060 H 0.85013 0.24532 0.77208 0.0
H1061 H 0.87106 0.24761 0.74277 0.0
C1062 C 0.36279 0.91907 0.03656 0.0
C1063 C 0.36549 0.90135 0.0501 0.0
C1064 C 0.38919 0.93952 0.02771 0.0
C1065 C 0.41928 0.94346 0.03243 0.0
H1066 H 0.34001 0.91667 0.03257 0.0
H1067 H 0.38612 0.95262 0.0173 0.0
S1068 S 0.43869 0.90232 0.06702 0.0
N1069 N 0.40043 0.88889 0.06771 0.0
N1070 N 0.45002 0.92758 0.05145 0.0
C1071 C 0.42222 0.92601 0.04607 0.0
C1072 C 0.39534 0.90489 0.05481 0.0
C1073 C 0.11032 0.48914 0.05566 0.0
C1074 C 0.11194 0.46179 0.05019 0.0
C1075 C 0.0877 0.49496 0.04712 0.0
C1076 C 0.06632 0.47395 0.03256 0.0
H1077 H 0.12653 0.50604 0.06671 0.0
H1078 H 0.08745 0.51645 0.0517 0.0
S1079 S 0.06103 0.39895 0.01313 0.0
N1080 N 0.09029 0.41342 0.0295 0.0
N1081 N 0.04808 0.42453 0.0132 0.0
C1082 C 0.06777 0.44652 0.02696 0.0
C1083 C 0.09047 0.44038 0.03585 0.0
C1084 C 0.54945 0.63692 0.02927 0.0
C1085 C 0.5261 0.64206 0.03645 0.0
C1086 C 0.54138 0.6078 0.01949 0.0
C1087 C 0.50966 0.583 0.01632 0.0
H1088 H 0.57409 0.65576 0.03093 0.0
H1089 H 0.56001 0.60495 0.01402 0.0
S1090 S 0.44009 0.58255 0.03407 0.0
N1091 N 0.47027 0.61842 0.04122 0.0
N1092 N 0.4551 0.56422 0.02229 0.0
C1093 C 0.48619 0.58739 0.02379 0.0
C1094 C 0.49441 0.6168 0.03398 0.0
C1095 C 0.91983 0.36996 0.98158 0.0
C1096 C 0.88932 0.36275 0.97468 0.0
C1097 C 0.94081 0.39927 0.99169 0.0
C1098 C 0.9319 0.42223 0.99551 0.0
H1099 H 0.92741 0.35263 0.97943 0.0
H1100 H 0.96396 0.40371 0.99683 0.0
S1101 S 0.85622 0.41677 0.97918 0.0
N1102 N 0.85253 0.38249 0.97112 0.0
N1103 N 0.89146 0.43686 0.9908 0.0
C1104 C 0.9018 0.41569 0.98848 0.0
C1105 C 0.88063 0.38613 0.97791 0.0
C1106 C 0.64545 0.56426 0.97656 0.0
C1107 C 0.64351 0.54263 0.96234 0.0
C1108 C 0.61897 0.55784 0.98591 0.0
C1109 C 0.58946 0.52989 0.9811 0.0
H1110 H 0.66773 0.58607 0.98066 0.0
H1111 H 0.62155 0.57508 0.99681 0.0
S1112 S 0.57202 0.46562 0.94476 0.0
N1113 N 0.6098 0.49218 0.94392 0.0
N1114 N 0.5601 0.48022 0.9612 0.0
C1115 C 0.58725 0.50818 0.96681 0.0
C1116 C 0.61425 0.51451 0.95751 0.0
C1117 C 0.51109 0.12074 0.98055 0.0
C1118 C 0.47934 0.11134 0.9751 0.0
C1119 C 0.51871 0.10224 0.99115 0.0
C1120 C 0.49495 0.07332 0.99649 0.0
H1121 H 0.53032 0.14276 0.97671 0.0
H1122 H 0.54347 0.1107 0.99517 0.0
S1123 S 0.40825 0.0374 0.98577 0.0
N1124 N 0.4239 0.07092 0.97601 0.0
N1125 N 0.43847 0.0356 0.99539 0.0
C1126 C 0.46318 0.06302 0.99077 0.0
C1127 C 0.45532 0.08212 0.98017 0.0
C1128 C 0.61867 0.07442 0.95633 0.0
C1129 C 0.64593 0.10076 0.96568 0.0
C1130 C 0.59189 0.0554 0.96523 0.0
C1131 C 0.59136 0.06173 0.98389 0.0
H1132 H 0.61804 0.06833 0.94201 0.0
H1133 H 0.57149 0.03544 0.95741 0.0
S1134 S 0.65562 0.12921 0.01437 0.0
N1135 N 0.66988 0.13326 0.9945 0.0
N1136 N 0.62 0.09702 0.01128 0.0
C1137 C 0.61839 0.08801 0.99341 0.0
C1138 C 0.64552 0.10761 0.98431 0.0
C1139 C 0.91731 0.56059 0.97586 0.0
C1140 C 0.89678 0.54044 0.96076 0.0
C1141 C 0.93932 0.55425 0.98474 0.0
C1142 C 0.94206 0.52778 0.97872 0.0
H1143 H 0.91661 0.58166 0.98081 0.0
H1144 H 0.95453 0.57044 0.99629 0.0
S1145 S 0.89298 0.46655 0.94042 0.0
N1146 N 0.87962 0.49177 0.94085 0.0
N1147 N 0.92185 0.48073 0.95697 0.0
C1148 C 0.92179 0.50743 0.96363 0.0
C1149 C 0.89899 0.51355 0.95479 0.0
C1150 C 0.4598 0.37398 0.98272 0.0
C1151 C 0.48337 0.36776 0.97712 0.0
C1152 C 0.46788 0.40268 0.99303 0.0
C1153 C 0.49976 0.42574 0.99839 0.0
H1154 H 0.43498 0.35664 0.97899 0.0
H1155 H 0.44904 0.40664 0.99704 0.0
S1156 S 0.57029 0.42091 0.98708 0.0
N1157 N 0.5398 0.38706 0.97748 0.0
N1158 N 0.555 0.4407 0.99709 0.0
C1159 C 0.52351 0.4198 0.99285 0.0
C1160 C 0.51531 0.39087 0.98214 0.0
C1161 C 0.09019 0.63355 0.03219 0.0
C1162 C 0.11974 0.63945 0.03993 0.0
C1163 C 0.06954 0.60498 0.02133 0.0
C1164 C 0.07807 0.58169 0.01753 0.0
H1165 H 0.08295 0.65111 0.03463 0.0
H1166 H 0.04697 0.60133 0.01565 0.0
S1167 S 0.15244 0.58531 0.03486 0.0
N1168 N 0.15616 0.61938 0.04338 0.0
N1169 N 0.11763 0.56596 0.02274 0.0
C1170 C 0.10744 0.58721 0.02526 0.0
C1171 C 0.12821 0.61602 0.03655 0.0
C1172 C 0.39079 0.46186 0.06061 0.0
C1173 C 0.36409 0.46119 0.05196 0.0
C1174 C 0.41746 0.46869 0.05142 0.0
C1175 C 0.41828 0.47465 0.03315 0.0
H1176 H 0.39101 0.45682 0.07457 0.0
H1177 H 0.43747 0.46901 0.05863 0.0
S1178 S 0.35618 0.47917 0.00483 0.0
N1179 N 0.34149 0.46983 0.02444 0.0
N1180 N 0.39106 0.48151 0.00707 0.0
C1181 C 0.39199 0.47444 0.02439 0.0
C1182 C 0.36506 0.46799 0.03381 0.0
C1183 C 0.50045 0.88885 0.03479 0.0
C1184 C 0.53235 0.9003 0.04089 0.0
C1185 C 0.49187 0.90648 0.02399 0.0
C1186 C 0.51483 0.9364 0.0192 0.0
H1187 H 0.48212 0.86573 0.03803 0.0
H1188 H 0.46705 0.89659 0.01938 0.0
S1189 S 0.60137 0.97763 0.03261 0.0
N1190 N 0.58683 0.94367 0.04191 0.0
N1191 N 0.57069 0.97715 0.02185 0.0
C1192 C 0.54671 0.94849 0.02563 0.0
C1193 C 0.55548 0.93033 0.0364 0.0
C1194 C 0.05601 0.26094 0.39135 0.0
C1195 C 0.02818 0.23665 0.38135 0.0
C1196 C 0.08247 0.2816 0.38271 0.0
C1197 C 0.08199 0.27909 0.3637 0.0
H1198 H 0.05767 0.2634 0.40599 0.0
H1199 H 0.10359 0.29949 0.39104 0.0
S1200 S 0.01387 0.22039 0.33138 0.0
N1201 N 1.00107 0.21195 0.3515 0.0
N1202 N 0.05058 0.25073 0.33519 0.0
C1203 C 0.05387 0.2554 0.35355 0.0
C1204 C 0.02707 0.23419 0.36238 0.0
C1205 C 0.75845 0.77751 0.3693 0.0
C1206 C 0.77789 0.79659 0.38488 0.0
C1207 C 0.7366 0.78419 0.36057 0.0
C1208 C 0.73302 0.80986 0.36731 0.0
H1209 H 0.76055 0.7576 0.36366 0.0
H1210 H 0.72237 0.76905 0.34848 0.0
S1211 S 0.77758 0.86607 0.4083 0.0
N1212 N 0.79181 0.84158 0.40701 0.0
N1213 N 0.75051 0.85402 0.39086 0.0
C1214 C 0.75196 0.82871 0.38314 0.0
C1215 C 0.77449 0.82214 0.39185 0.0
C1216 C 0.21318 0.96912 0.36186 0.0
C1217 C 0.18971 0.97372 0.36931 0.0
C1218 C 0.20531 0.94026 0.3518 0.0
C1219 C 0.17367 0.91523 0.34867 0.0
H1220 H 0.23773 0.98817 0.36349 0.0
H1221 H 0.22399 0.93782 0.3461 0.0
S1222 S 0.10402 0.91338 0.36723 0.0
N1223 N 0.13399 0.94934 0.37444 0.0
N1224 N 0.11917 0.89562 0.35506 0.0
C1225 C 0.15014 0.91908 0.35647 0.0
C1226 C 0.15816 0.94821 0.3669 0.0
C1227 C 0.54906 0.71584 0.31292 0.0
C1228 C 0.55837 0.69298 0.30944 0.0
C1229 C 0.56931 0.7451 0.32323 0.0
C1230 C 0.59985 0.7529 0.33021 0.0
H1231 H 0.52602 0.71125 0.30749 0.0
H1232 H 0.56114 0.76195 0.32551 0.0
S1233 S 0.63551 0.70133 0.32591 0.0
N1234 N 0.59994 0.67985 0.31477 0.0
N1235 N 0.6384 0.7355 0.3334 0.0
C1236 C 0.60964 0.73052 0.32685 0.0
C1237 C 0.58883 0.70044 0.31664 0.0
C1238 C 0.31009 0.89812 0.30834 0.0
C1239 C 0.30838 0.87645 0.29423 0.0
C1240 C 0.2834 0.89173 0.31745 0.0
C1241 C 0.25393 0.86377 0.31251 0.0
H1242 H 0.33238 0.91984 0.31259 0.0
H1243 H 0.28583 0.90891 0.32835 0.0
S1244 S 0.23706 0.79965 0.27621 0.0
N1245 N 0.27494 0.82616 0.27564 0.0
N1246 N 0.22481 0.81421 0.2925 0.0
C1247 C 0.25191 0.84214 0.29823 0.0
C1248 C 0.27912 0.84846 0.28917 0.0
C1249 C 0.12937 0.41843 0.31194 0.0
C1250 C 0.15407 0.44647 0.30616 0.0
C1251 C 0.13582 0.39926 0.32275 0.0
C1252 C 0.16718 0.40772 0.32836 0.0
H1253 H 0.10487 0.41177 0.30858 0.0
H1254 H 0.11615 0.37822 0.3272 0.0
S1255 S 0.24021 0.4758 0.31467 0.0
N1256 N 0.21105 0.47928 0.30501 0.0
N1257 N 0.22308 0.4441 0.32594 0.0
C1258 C 0.19203 0.43487 0.32209 0.0
C1259 C 0.1855 0.45403 0.31084 0.0
C1260 C 0.2842 0.42633 0.29375 0.0
C1261 C 0.31323 0.42814 0.29892 0.0
C1262 C 0.25688 0.40742 0.30221 0.0
C1263 C 0.25753 0.39003 0.31648 0.0
H1264 H 0.2826 0.4401 0.28326 0.0
H1265 H 0.23519 0.40698 0.29774 0.0
S1266 S 0.32646 0.38403 0.3342 0.0
N1267 N 0.34007 0.40855 0.31833 0.0
N1268 N 0.28901 0.37428 0.33479 0.0
C1269 C 0.28616 0.39123 0.3217 0.0
C1270 C 0.31391 0.40997 0.31282 0.0
C1271 C 0.56294 0.871 0.31245 0.0
C1272 C 0.56262 0.87408 0.29377 0.0
C1273 C 0.58523 0.8653 0.3215 0.0
C1274 C 0.60791 0.86205 0.31221 0.0
H1275 H 0.54543 0.87243 0.32015 0.0
H1276 H 0.58415 0.86268 0.33583 0.0
S1277 S 0.61896 0.87048 0.26352 0.0
N1278 N 0.58854 0.8756 0.26654 0.0
N1279 N 0.6297 0.86377 0.28343 0.0
C1280 C 0.60819 0.86543 0.29358 0.0
C1281 C 0.58574 0.87168 0.2844 0.0
C1282 C 0.18029 0.723 0.31552 0.0
C1283 C 0.14864 0.69942 0.31008 0.0
C1284 C 0.18768 0.75156 0.32567 0.0
C1285 C 0.1637 0.75773 0.33048 0.0
H1286 H 0.19946 0.71916 0.3121 0.0
H1287 H 0.21239 0.76903 0.32962 0.0
S1288 S 0.07717 0.70417 0.31889 0.0
N1289 N 0.09319 0.68429 0.30984 0.0
N1290 N 0.10707 0.7382 0.32878 0.0
C1291 C 0.13197 0.73455 0.3249 0.0
C1292 C 0.12444 0.70529 0.31475 0.0
C1293 C 0.7923 0.95308 0.36716 0.0
C1294 C 0.78253 0.97488 0.37245 0.0
C1295 C 0.77186 0.92471 0.35612 0.0
C1296 C 0.74079 0.91692 0.35024 0.0
H1297 H 0.81608 0.95824 0.37137 0.0
H1298 H 0.7804 0.90864 0.35232 0.0
S1299 S 0.70343 0.96546 0.36099 0.0
N1300 N 0.73968 0.98657 0.37136 0.0
N1301 N 0.70105 0.93302 0.35079 0.0
C1302 C 0.73059 0.9383 0.35566 0.0
C1303 C 0.75154 0.96737 0.36671 0.0
C1304 C 0.02937 0.79524 0.36663 0.0
C1305 C 0.02989 0.79246 0.38537 0.0
C1306 C 0.05572 0.80171 0.35722 0.0
C1307 C 0.08385 0.80607 0.36618 0.0
H1308 H 0.00862 0.79303 0.35917 0.0
H1309 H 0.05429 0.80416 0.34289 0.0
S1310 S 0.09696 0.79887 0.41485 0.0
N1311 N 0.06043 0.7924 0.41225 0.0
N1312 N 0.11024 0.8057 0.39475 0.0
C1313 C 0.08464 0.80296 0.38486 0.0
C1314 C 0.05766 0.79592 0.3944 0.0
C1315 C 0.21622 0.25762 0.36732 0.0
C1316 C 0.19301 0.22915 0.37348 0.0
C1317 C 0.20769 0.27553 0.35672 0.0
C1318 C 0.17567 0.26519 0.35158 0.0
H1319 H 0.24115 0.26604 0.37071 0.0
H1320 H 0.2263 0.29728 0.35221 0.0
S1321 S 0.10587 0.1929 0.36468 0.0
N1322 N 0.1367 0.19197 0.37414 0.0
N1323 N 0.12066 0.22539 0.35397 0.0
C1324 C 0.15223 0.23701 0.35782 0.0
C1325 C 0.16091 0.21906 0.36886 0.0
C1326 C 0.72274 0.59824 0.72462 0.0
C1327 C 0.69671 0.57047 0.71542 0.0
C1328 C 0.749 0.61843 0.71569 0.0
C1329 C 0.75015 0.61189 0.69715 0.0
H1330 H 0.72284 0.60449 0.73886 0.0
H1331 H 0.76855 0.63936 0.7234 0.0
S1332 S 0.6894 0.54098 0.66716 0.0
N1333 N 0.67475 0.53652 0.68693 0.0
N1334 N 0.72362 0.57491 0.67007 0.0
C1335 C 0.72435 0.58423 0.68777 0.0
C1336 C 0.69777 0.56345 0.69692 0.0
C1337 C 0.44412 0.13037 0.69978 0.0
C1338 C 0.44607 0.13002 0.71865 0.0
C1339 C 0.42197 0.1363 0.69074 0.0
C1340 C 0.40125 0.1426 0.70029 0.0
H1341 H 0.45967 0.12572 0.69192 0.0
H1342 H 0.42146 0.13641 0.67619 0.0
S1343 S 0.39769 0.14523 0.75008 0.0
N1344 N 0.42592 0.1368 0.74668 0.0
N1345 N 0.38448 0.14831 0.72986 0.0
C1346 C 0.40318 0.1425 0.71925 0.0
C1347 C 0.42551 0.13609 0.72839 0.0
C1348 C 0.82781 0.28211 0.69452 0.0
C1349 C 0.85969 0.30616 0.69912 0.0
C1350 C 0.81984 0.25321 0.68456 0.0
C1351 C 0.84343 0.24705 0.67904 0.0
H1352 H 0.80877 0.28544 0.69884 0.0
H1353 H 0.795 0.23535 0.68146 0.0
S1354 S 0.93032 0.30229 0.68665 0.0
N1355 N 0.91498 0.32223 0.69646 0.0
N1356 N 0.89986 0.26733 0.67836 0.0
C1357 C 0.87535 0.27071 0.68348 0.0
C1358 C 0.88352 0.30038 0.69338 0.0
C1359 C 0.21644 0.04907 0.64327 0.0
C1360 C 0.22597 0.02644 0.6396 0.0
C1361 C 0.23695 0.07869 0.65316 0.0
C1362 C 0.26795 0.08708 0.65955 0.0
H1363 H 0.19295 0.04395 0.63838 0.0
H1364 H 0.2285 0.09525 0.65571 0.0
S1365 S 0.30454 0.03647 0.65424 0.0
N1366 N 0.26842 0.01432 0.64386 0.0
N1367 N 0.30731 0.07057 0.66177 0.0
C1368 C 0.27804 0.06502 0.65586 0.0
C1369 C 0.25699 0.03458 0.64604 0.0
C1370 C 0.94794 0.1819 0.62389 0.0
C1371 C 0.97736 0.20965 0.62914 0.0
C1372 C 0.92113 0.17528 0.63283 0.0
C1373 C 0.92279 0.19588 0.64759 0.0
H1374 H 0.94561 0.16521 0.61272 0.0
H1375 H 0.89902 0.15353 0.62828 0.0
S1376 S 0.99445 0.27182 0.66656 0.0
N1377 N 0.00668 0.25805 0.64985 0.0
N1378 N 0.95642 0.24548 0.66688 0.0
C1379 C 0.95213 0.22376 0.65297 0.0
C1380 C 0.97935 0.23071 0.64367 0.0
C1381 C 0.84891 0.78648 0.64509 0.0
C1382 C 0.81739 0.77758 0.63937 0.0
C1383 C 0.85581 0.76763 0.65581 0.0
C1384 C 0.83152 0.73889 0.66101 0.0
H1385 H 0.86849 0.80838 0.64137 0.0
H1386 H 0.88041 0.77568 0.66005 0.0
S1387 S 0.74516 0.7043 0.6496 0.0
N1388 N 0.76161 0.73786 0.63988 0.0
N1389 N 0.77482 0.70189 0.65948 0.0
C1390 C 0.79998 0.72909 0.65501 0.0
C1391 C 0.79286 0.74853 0.6443 0.0
C1392 C 0.97897 0.76735 0.64938 0.0
C1393 C 0.979 0.76235 0.63052 0.0
C1394 C 0.95233 0.74785 0.65829 0.0
C1395 C 0.92452 0.72274 0.64868 0.0
H1396 H 0.99942 0.78702 0.65731 0.0
H1397 H 0.95325 0.75312 0.67274 0.0
S1398 S 0.9132 0.69753 0.59937 0.0
N1399 N 0.94954 0.72859 0.60279 0.0
N1400 N 0.89931 0.69268 0.61935 0.0
C1401 C 0.92447 0.71696 0.62988 0.0
C1402 C 0.95169 0.73656 0.62085 0.0
C1403 C 0.23233 0.20608 0.64644 0.0
C1404 C 0.23179 0.20892 0.62773 0.0
C1405 C 0.25474 0.20052 0.65547 0.0
C1406 C 0.27737 0.19721 0.64615 0.0
H1407 H 0.21488 0.20754 0.65417 0.0
H1408 H 0.25376 0.19805 0.66982 0.0
S1409 S 0.28773 0.2048 0.59732 0.0
N1410 N 0.25738 0.21001 0.60041 0.0
N1411 N 0.29876 0.19849 0.61726 0.0
C1412 C 0.27742 0.20036 0.62748 0.0
C1413 C 0.25483 0.20644 0.61831 0.0
C1414 C 0.84588 0.05296 0.65115 0.0
C1415 C 0.81423 0.03 0.6452 0.0
C1416 C 0.85341 0.08121 0.66171 0.0
C1417 C 0.82958 0.08766 0.66643 0.0
H1418 H 0.86493 0.04892 0.64771 0.0
H1419 H 0.87812 0.09832 0.66596 0.0
S1420 S 0.74309 0.03539 0.65391 0.0
N1421 N 0.75893 0.01552 0.64464 0.0
N1422 N 0.77305 0.0688 0.66435 0.0
C1423 C 0.79784 0.06493 0.6605 0.0
C1424 C 0.79016 0.03601 0.64993 0.0
C1425 C 0.42342 0.3016 0.70317 0.0
C1426 C 0.45348 0.30811 0.7104 0.0
C1427 C 0.40266 0.27277 0.69252 0.0
C1428 C 0.41163 0.2499 0.68844 0.0
H1429 H 0.41592 0.31891 0.70578 0.0
H1430 H 0.37981 0.26872 0.68709 0.0
S1431 S 0.48727 0.25502 0.70461 0.0
N1432 N 0.49073 0.28894 0.71319 0.0
N1433 N 0.45198 0.23505 0.69303 0.0
C1434 C 0.4414 0.25594 0.69581 0.0
C1435 C 0.46228 0.28499 0.70684 0.0
C1436 C 0.72365 0.14888 0.72242 0.0
C1437 C 0.69484 0.12016 0.71744 0.0
C1438 C 0.75053 0.15688 0.71324 0.0
C1439 C 0.74969 0.13668 0.69854 0.0
H1440 H 0.72534 0.16568 0.73333 0.0
H1441 H 0.77201 0.1794 0.71753 0.0
S1442 S 0.68112 0.05744 0.68101 0.0
N1443 N 0.66793 0.07036 0.69759 0.0
N1444 N 0.71816 0.08591 0.68 0.0
C1445 C 0.72124 0.10771 0.69352 0.0
C1446 C 0.69393 0.09934 0.70303 0.0
C1447 C 0.88041 0.58716 0.70173 0.0
C1448 C 0.85611 0.56056 0.70887 0.0
C1449 C 0.87352 0.60599 0.6909 0.0
C1450 C 0.84208 0.59851 0.68664 0.0
H1451 H 0.9048 0.59278 0.70395 0.0
H1452 H 0.89277 0.62575 0.68527 0.0
S1453 S 0.77054 0.53512 0.70445 0.0
N1454 N 0.79985 0.53067 0.71292 0.0
N1455 N 0.7869 0.56526 0.69199 0.0
C1456 C 0.81778 0.57308 0.69439 0.0
C1457 C 0.82479 0.5543 0.70566 0.0
C1458 C 0.50063 0.98475 0.16017 0.0
C1459 C 0.4748 0.95378 0.16073 0.0
C1460 C 0.51111 0.99659 0.14366 0.0
C1461 C 0.496 0.97803 0.12704 0.0
H1462 H 0.5133 0.9997 0.17262 0.0
H1463 H 0.53159 0.02032 0.14395 0.0
S1464 S 0.42527 0.89642 0.12123 0.0
N1465 N 0.43328 0.90533 0.14336 0.0
N1466 N 0.45237 0.92781 0.11228 0.0
C1467 C 0.4696 0.94725 0.12745 0.0
C1468 C 0.45915 0.93509 0.14429 0.0
C1469 C 0.06686 0.51486 0.15243 0.0
C1470 C 0.07056 0.53858 0.16579 0.0
C1471 C 0.05512 0.51362 0.13458 0.0
C1472 C 0.04659 0.536 0.12952 0.0
H1473 H 0.07356 0.49748 0.15573 0.0
H1474 H 0.05311 0.4953 0.12462 0.0
S1475 S 0.04846 0.60052 0.15999 0.0
N1476 N 0.06266 0.58344 0.1731 0.0
N1477 N 0.0404 0.58099 0.13966 0.0
C1478 C 0.04943 0.55929 0.1429 0.0
C1479 C 0.06143 0.56059 0.161 0.0
C1480 C 0.50959 0.55396 0.16003 0.0
C1481 C 0.48316 0.52666 0.1652 0.0
C1482 C 0.51853 0.55501 0.14241 0.0
C1483 C 0.5015 0.52876 0.12922 0.0
H1484 H 0.52352 0.57481 0.1697 0.0
H1485 H 0.53935 0.5764 0.13919 0.0
S1486 S 0.42988 0.45187 0.13556 0.0
N1487 N 0.43978 0.4728 0.15557 0.0
N1488 N 0.45624 0.47502 0.12231 0.0
C1489 C 0.47474 0.50144 0.13409 0.0
C1490 C 0.4656 0.50037 0.15207 0.0
C1491 C 0.93733 0.44165 0.85414 0.0
C1492 C 0.9408 0.46899 0.84667 0.0
C1493 C 0.94761 0.44315 0.87229 0.0
C1494 C 0.96214 0.47215 0.88352 0.0
H1495 H 0.9268 0.41897 0.84583 0.0
H1496 H 0.94504 0.42168 0.87744 0.0
S1497 S 0.97589 0.5503 0.87066 0.0
N1498 N 0.95892 0.52566 0.85197 0.0
N1499 N 0.97851 0.52856 0.88613 0.0
C1500 C 0.96525 0.49954 0.87632 0.0
C1501 C 0.95445 0.49793 0.85788 0.0
C1502 C 0.51061 0.4806 0.85497 0.0
C1503 C 0.53741 0.47747 0.85317 0.0
C1504 C 0.49918 0.48037 0.87185 0.0
C1505 C 0.51424 0.47723 0.88761 0.0
H1506 H 0.4979 0.48243 0.84315 0.0
H1507 H 0.47796 0.48201 0.87249 0.0
S1508 S 0.58725 0.47156 0.89029 0.0
N1509 N 0.57982 0.47296 0.86856 0.0
N1510 N 0.55885 0.47331 0.90041 0.0
C1511 C 0.54163 0.47497 0.88602 0.0
C1512 C 0.55309 0.47492 0.86878 0.0
C1513 C 0.50376 0.04813 0.86038 0.0
C1514 C 0.52773 0.04487 0.8526 0.0
C1515 C 0.49525 0.03882 0.87761 0.0
C1516 C 0.51012 0.02553 0.88767 0.0
H1517 H 0.49139 0.05792 0.85304 0.0
H1518 H 0.47634 0.04134 0.88293 0.0
S1519 S 0.57496 0.01275 0.87373 0.0
N1520 N 0.5667 0.02805 0.85647 0.0
N1521 N 0.55073 0.01059 0.88891 0.0
C1522 C 0.53446 0.02256 0.8802 0.0
C1523 C 0.54331 0.0323 0.86269 0.0
C1524 C 0.13268 0.26879 0.47887 0.0
C1525 C 0.14337 0.28955 0.49498 0.0
C1526 C 0.1426 0.28026 0.46219 0.0
C1527 C 0.16361 0.31293 0.46096 0.0
H1528 H 0.11654 0.24344 0.47917 0.0
H1529 H 0.1337 0.2634 0.45014 0.0
S1530 S 0.20007 0.37689 0.49929 0.0
N1531 N 0.17703 0.34416 0.50873 0.0
N1532 N 0.1957 0.36569 0.47743 0.0
C1533 C 0.17447 0.33394 0.47697 0.0
C1534 C 0.16434 0.32227 0.49394 0.0
C1535 C 0.75455 0.87873 0.48495 0.0
C1536 C 0.73406 0.86485 0.49842 0.0
C1537 C 0.74265 0.87733 0.46715 0.0
C1538 C 0.70983 0.86189 0.46216 0.0
H1539 H 0.78001 0.89093 0.48823 0.0
H1540 H 0.75924 0.88846 0.45722 0.0
S1541 S 0.64615 0.82311 0.4924 0.0
N1542 N 0.67933 0.83607 0.50559 0.0
N1543 N 0.65703 0.83316 0.4721 0.0
C1544 C 0.68907 0.8477 0.47541 0.0
C1545 C 0.70116 0.84923 0.49355 0.0
C1546 C 0.165 0.84632 0.4913 0.0
C1547 C 0.14288 0.85573 0.49538 0.0
C1548 C 0.17454 0.84685 0.47384 0.0
C1549 C 0.16242 0.8569 0.45974 0.0
H1550 H 0.17542 0.83889 0.50177 0.0
H1551 H 0.19229 0.84025 0.47152 0.0
S1552 S 0.10217 0.88167 0.46284 0.0
N1553 N 0.10813 0.87418 0.48358 0.0
N1554 N 0.12545 0.8743 0.45065 0.0
C1555 C 0.13942 0.86524 0.46343 0.0
C1556 C 0.12973 0.86477 0.48124 0.0
C1557 C 0.59912 0.7978 0.19192 0.0
C1558 C 0.62132 0.8153 0.17992 0.0
C1559 C 0.60884 0.79767 0.20996 0.0
C1560 C 0.64104 0.81537 0.21668 0.0
H1561 H 0.57417 0.78331 0.18718 0.0
H1562 H 0.59108 0.7834 0.21869 0.0
S1563 S 0.70826 0.86641 0.19098 0.0
N1564 N 0.6767 0.85176 0.17616 0.0
N1565 N 0.69499 0.85152 0.21009 0.0
C1566 C 0.66336 0.8337 0.20496 0.0
C1567 C 0.65349 0.83362 0.18656 0.0
C1568 C 0.17385 0.8148 0.18636 0.0
C1569 C 0.19924 0.80946 0.18408 0.0
C1570 C 0.16297 0.81491 0.20341 0.0
C1571 C 0.17717 0.80988 0.21887 0.0
H1572 H 0.16173 0.81804 0.17479 0.0
H1573 H 0.14278 0.81826 0.2044 0.0
S1574 S 0.24676 0.79838 0.22037 0.0
N1575 N 0.23968 0.80114 0.19881 0.0
N1576 N 0.21968 0.80197 0.23091 0.0
C1577 C 0.20324 0.80552 0.21682 0.0
C1578 C 0.21417 0.80518 0.19943 0.0
C1579 C 0.20837 0.3713 0.19598 0.0
C1580 C 0.1953 0.38725 0.18692 0.0
C1581 C 0.19914 0.36057 0.21291 0.0
C1582 C 0.17702 0.36597 0.22147 0.0
H1583 H 0.22505 0.36623 0.18968 0.0
H1584 H 0.20917 0.34771 0.21929 0.0
S1585 S 0.13717 0.40799 0.2037 0.0
N1586 N 0.16002 0.40887 0.18794 0.0
N1587 N 0.14297 0.38904 0.21981 0.0
C1588 C 0.16456 0.38274 0.21277 0.0
C1589 C 0.17362 0.39327 0.19547 0.0
C1590 C 0.83319 0.65645 0.82664 0.0
C1591 C 0.8086 0.62508 0.82792 0.0
C1592 C 0.843 0.66721 0.80981 0.0
C1593 C 0.82846 0.64709 0.79357 0.0
H1594 H 0.84557 0.67252 0.83879 0.0
H1595 H 0.86267 0.69128 0.80956 0.0
S1596 S 0.76042 0.56395 0.78954 0.0
N1597 N 0.76844 0.57469 0.81154 0.0
N1598 N 0.78631 0.59506 0.77988 0.0
C1599 C 0.80308 0.61597 0.79467 0.0
C1600 C 0.79329 0.60496 0.81183 0.0
C1601 C 0.39524 0.17615 0.82015 0.0
C1602 C 0.40196 0.20226 0.83262 0.0
C1603 C 0.38329 0.17387 0.80221 0.0
C1604 C 0.3777 0.19765 0.79613 0.0
H1605 H 0.3995 0.15749 0.82426 0.0
H1606 H 0.37858 0.15348 0.79299 0.0
S1607 S 0.38851 0.26919 0.82384 0.0
N1608 N 0.40017 0.25126 0.8379 0.0
N1609 N 0.37795 0.24704 0.80421 0.0
C1610 C 0.38389 0.22361 0.80852 0.0
C1611 C 0.39595 0.22589 0.82675 0.0
C1612 C 0.8401 0.22389 0.82502 0.0
C1613 C 0.8131 0.19722 0.83025 0.0
C1614 C 0.84915 0.2242 0.80747 0.0
C1615 C 0.83166 0.19781 0.79441 0.0
H1616 H 0.85442 0.24477 0.83461 0.0
H1617 H 0.87041 0.24509 0.80421 0.0
S1618 S 0.75845 0.12246 0.80094 0.0
N1619 N 0.76867 0.14385 0.82082 0.0
N1620 N 0.78535 0.14471 0.78767 0.0
C1621 C 0.80431 0.17117 0.79932 0.0
C1622 C 0.79506 0.17085 0.81724 0.0
C1623 C 0.27735 0.11663 0.52162 0.0
C1624 C 0.28017 0.14365 0.51404 0.0
C1625 C 0.28799 0.11854 0.53975 0.0
C1626 C 0.3022 0.14763 0.55089 0.0
H1627 H 0.26702 0.09387 0.51342 0.0
H1628 H 0.2859 0.09729 0.54496 0.0
S1629 S 0.31419 0.22504 0.53778 0.0
N1630 N 0.29736 0.20015 0.51917 0.0
N1631 N 0.31751 0.20375 0.5533 0.0
C1632 C 0.30465 0.17469 0.54359 0.0
C1633 C 0.29352 0.17268 0.52516 0.0
C1634 C 0.84689 0.14977 0.52117 0.0
C1635 C 0.86929 0.14023 0.51829 0.0
C1636 C 0.83589 0.1496 0.5382 0.0
C1637 C 0.84686 0.13986 0.55301 0.0
H1638 H 0.83705 0.15649 0.51003 0.0
H1639 H 0.81799 0.15629 0.53967 0.0
S1640 S 0.90839 0.11648 0.55313 0.0
N1641 N 0.90402 0.12337 0.53202 0.0
N1642 N 0.8834 0.12312 0.56405 0.0
C1643 C 0.8701 0.13138 0.55047 0.0
C1644 C 0.88129 0.13154 0.53313 0.0
C1645 C 0.87563 0.70273 0.52875 0.0
C1646 C 0.86102 0.71703 0.51941 0.0
C1647 C 0.86701 0.69219 0.5458 0.0
C1648 C 0.8439 0.69612 0.55422 0.0
H1649 H 0.89316 0.69884 0.5226 0.0
H1650 H 0.87832 0.68069 0.5524 0.0
S1651 S 0.79986 0.7336 0.53576 0.0
N1652 N 0.82325 0.73563 0.52008 0.0
N1653 N 0.80719 0.71602 0.5521 0.0
C1654 C 0.82983 0.71121 0.54523 0.0
C1655 C 0.83832 0.72158 0.52782 0.0
loop_
_geom_bond_atom_site_label_1
_geom_bond_atom_site_label_2
_geom_bond_distance
_geom_bond_site_symmetry_2
_ccdc_geom_bond_type
C0 C1 1.386 . S
C0 C2 1.397 . S
C0 H24 0.931 . S
C1 C0 1.386 . S
C1 C5 1.397 . S
C2 C0 1.397 . S
C2 C3 1.384 . S
C2 H25 0.930 . S
C3 C2 1.384 . S
C3 C4 1.377 . S
C3 C6 1.481 . S
C4 C3 1.377 . S
C4 C5 1.389 . S
C4 H26 0.929 . S
C5 C1 1.397 . S
C5 C4 1.389 . S
C5 H27 0.931 . S
C6 C3 1.481 . S
C6 C7 1.387 . S
C6 C11 1.390 . S
C7 C6 1.387 . S
C7 C8 1.401 . S
C7 H28 0.930 . S
C8 C7 1.401 . S
C8 C9 1.376 . S
C8 C17 1.511 . S
C9 C8 1.376 . S
C9 C10 1.392 . S
C9 H30 0.931 . S
C10 C9 1.392 . S
C10 C11 1.361 . S
C10 C12 1.500 . S
C11 C6 1.390 . S
C11 C10 1.361 . S
C11 H29 0.931 . S
C12 C10 1.500 . S
C12 C13 1.371 . S
C12 C14 1.365 . S
C13 C12 1.371 . S
C13 C23 1.386 . S
C13 H31 0.931 . S
C14 C12 1.365 . S
C14 C15 1.409 . S
C14 H32 0.929 . S
C15 C14 1.409 . S
C15 C16 1.380 . S
C15 H33 0.930 . S
C16 C15 1.380 . S
C16 C23 1.357 . S
C17 C8 1.511 . S
C17 C18 1.341 . S
C17 C19 1.371 . S
C18 C17 1.341 . S
C18 C22 1.394 . S
C18 H34 0.930 . S
C19 C17 1.371 . S
C19 C20 1.392 . S
C19 H35 0.931 . S
C20 C19 1.392 . S
C20 C21 1.331 . S
C20 H38 0.932 . S
C21 C20 1.331 . S
C21 C22 1.336 . S
C22 C18 1.394 . S
C22 C21 1.336 . S
C22 H37 0.929 . S
C23 C13 1.386 . S
C23 C16 1.357 . S
C23 H36 0.928 . S
H24 C0 0.931 . S
H25 C2 0.930 . S
H26 C4 0.929 . S
H27 C5 0.931 . S
H28 C7 0.930 . S
H29 C11 0.931 . S
H30 C9 0.931 . S
H31 C13 0.931 . S
H32 C14 0.929 . S
H33 C15 0.930 . S
H34 C18 0.930 . S
H35 C19 0.931 . S
H36 C23 0.928 . S
H37 C22 0.929 . S
H38 C20 0.932 . S
C39 C40 1.386 . S
C39 C41 1.397 . S
C39 H63 0.931 . S
C40 C39 1.386 . S
C40 C44 1.397 . S
C41 C39 1.397 . S
C41 C42 1.384 . S
C41 H64 0.930 . S
C42 C41 1.384 . S
C42 C43 1.377 . S
C42 C45 1.481 . S
C43 C42 1.377 . S
C43 C44 1.389 . S
C43 H65 0.929 . S
C44 C40 1.397 . S
C44 C43 1.389 . S
C44 H66 0.931 . S
C45 C42 1.481 . S
C45 C46 1.387 . S
C45 C50 1.390 . S
C46 C45 1.387 . S
C46 C47 1.401 . S
C46 H67 0.930 . S
C47 C46 1.401 . S
C47 C48 1.376 . S
C47 C56 1.511 . S
C48 C47 1.376 . S
C48 C49 1.392 . S
C48 H69 0.931 . S
C49 C48 1.392 . S
C49 C50 1.361 . S
C49 C51 1.500 . S
C50 C45 1.390 . S
C50 C49 1.361 . S
C50 H68 0.931 . S
C51 C49 1.500 . S
C51 C52 1.371 . S
C51 C53 1.365 . S
C52 C51 1.371 . S
C52 C62 1.386 . S
C52 H70 0.931 . S
C53 C51 1.365 . S
C53 C54 1.409 . S
C53 H71 0.929 . S
C54 C53 1.409 . S
C54 C55 1.380 . S
C54 H72 0.930 . S
C55 C54 1.380 . S
C55 C62 1.357 . S
C56 C47 1.511 . S
C56 C57 1.341 . S
C56 C58 1.371 . S
C57 C56 1.341 . S
C57 C61 1.394 . S
C57 H73 0.930 . S
C58 C56 1.371 . S
C58 C59 1.392 . S
C58 H74 0.931 . S
C59 C58 1.392 . S
C59 C60 1.331 . S
C59 H77 0.932 . S
C60 C59 1.331 . S
C60 C61 1.336 . S
C61 C57 1.394 . S
C61 C60 1.336 . S
C61 H76 0.929 . S
C62 C52 1.386 . S
C62 C55 1.357 . S
C62 H75 0.928 . S
H63 C39 0.931 . S
H64 C41 0.930 . S
H65 C43 0.929 . S
H66 C44 0.931 . S
H67 C46 0.930 . S
H68 C50 0.931 . S
H69 C48 0.931 . S
H70 C52 0.931 . S
H71 C53 0.929 . S
H72 C54 0.930 . S
H73 C57 0.930 . S
H74 C58 0.931 . S
H75 C62 0.928 . S
H76 C61 0.929 . S
H77 C59 0.932 . S
C78 C79 1.386 . S
C78 C80 1.397 . S
C78 H102 0.931 . S
C79 C78 1.386 . S
C79 C83 1.397 . S
C80 C78 1.397 . S
C80 C81 1.384 . S
C80 H103 0.930 . S
C81 C80 1.384 . S
C81 C82 1.377 . S
C81 C84 1.481 . S
C82 C81 1.377 . S
C82 C83 1.389 . S
C82 H104 0.929 . S
C83 C79 1.397 . S
C83 C82 1.389 . S
C83 H105 0.931 . S
C84 C81 1.481 . S
C84 C85 1.387 . S
C84 C89 1.390 . S
C85 C84 1.387 . S
C85 C86 1.401 . S
C85 H106 0.930 . S
C86 C85 1.401 . S
C86 C87 1.376 . S
C86 C95 1.511 . S
C87 C86 1.376 . S
C87 C88 1.392 . S
C87 H108 0.931 . S
C88 C87 1.392 . S
C88 C89 1.361 . S
C88 C90 1.500 . S
C89 C84 1.390 . S
C89 C88 1.361 . S
C89 H107 0.931 . S
C90 C88 1.500 . S
C90 C91 1.371 . S
C90 C92 1.365 . S
C91 C90 1.371 . S
C91 C101 1.386 . S
C91 H109 0.931 . S
C92 C90 1.365 . S
C92 C93 1.409 . S
C92 H110 0.929 . S
C93 C92 1.409 . S
C93 C94 1.380 . S
C93 H111 0.930 . S
C94 C93 1.380 . S
C94 C101 1.357 . S
C95 C86 1.511 . S
C95 C96 1.341 . S
C95 C97 1.371 . S
C96 C95 1.341 . S
C96 C100 1.394 . S
C96 H112 0.930 . S
C97 C95 1.371 . S
C97 C98 1.392 . S
C97 H113 0.931 . S
C98 C97 1.392 . S
C98 C99 1.331 . S
C98 H116 0.932 . S
C99 C98 1.331 . S
C99 C100 1.336 . S
C100 C96 1.394 . S
C100 C99 1.336 . S
C100 H115 0.929 1_655 S
C101 C91 1.386 . S
C101 C94 1.357 . S
C101 H114 0.928 . S
H102 C78 0.931 . S
H103 C80 0.930 . S
H104 C82 0.929 . S
H105 C83 0.931 . S
H106 C85 0.930 . S
H107 C89 0.931 . S
H108 C87 0.931 . S
H109 C91 0.931 . S
H110 C92 0.929 . S
H111 C93 0.930 . S
H112 C96 0.930 . S
H113 C97 0.931 . S
H114 C101 0.928 . S
H115 C100 0.929 1_455 S
H116 C98 0.932 . S
C117 C118 1.386 . S
C117 C119 1.397 . S
C117 H141 0.931 . S
C118 C117 1.386 . S
C118 C122 1.397 . S
C119 C117 1.397 . S
C119 C120 1.384 . S
C119 H142 0.930 . S
C120 C119 1.384 . S
C120 C121 1.377 . S
C120 C123 1.481 . S
C121 C120 1.377 . S
C121 C122 1.389 . S
C121 H143 0.929 . S
C122 C118 1.397 . S
C122 C121 1.389 . S
C122 H144 0.931 . S
C123 C120 1.481 . S
C123 C124 1.387 . S
C123 C128 1.390 . S
C124 C123 1.387 . S
C124 C125 1.401 . S
C124 H145 0.930 . S
C125 C124 1.401 . S
C125 C126 1.376 . S
C125 C134 1.511 . S
C126 C125 1.376 . S
C126 C127 1.392 . S
C126 H147 0.931 . S
C127 C126 1.392 . S
C127 C128 1.361 . S
C127 C129 1.500 . S
C128 C123 1.390 . S
C128 C127 1.361 . S
C128 H146 0.931 . S
C129 C127 1.500 . S
C129 C130 1.371 . S
C129 C131 1.365 . S
C130 C129 1.371 . S
C130 C140 1.386 . S
C130 H148 0.931 . S
C131 C129 1.365 . S
C131 C132 1.409 . S
C131 H149 0.929 . S
C132 C131 1.409 . S
C132 C133 1.380 . S
C132 H150 0.930 . S
C133 C132 1.380 . S
C133 C140 1.357 . S
C134 C125 1.511 . S
C134 C135 1.341 . S
C134 C136 1.371 . S
C135 C134 1.341 . S
C135 C139 1.394 . S
C135 H151 0.930 . S
C136 C134 1.371 . S
C136 C137 1.392 . S
C136 H152 0.931 . S
C137 C136 1.392 . S
C137 C138 1.331 . S
C137 H155 0.932 . S
C138 C137 1.331 . S
C138 C139 1.336 . S
C139 C135 1.394 . S
C139 C138 1.336 . S
C139 H154 0.929 . S
C140 C130 1.386 . S
C140 C133 1.357 . S
C140 H153 0.928 . S
H141 C117 0.931 . S
H142 C119 0.930 . S
H143 C121 0.929 . S
H144 C122 0.931 . S
H145 C124 0.930 . S
H146 C128 0.931 . S
H147 C126 0.931 . S
H148 C130 0.931 . S
H149 C131 0.929 . S
H150 C132 0.930 . S
H151 C135 0.930 . S
H152 C136 0.931 . S
H153 C140 0.928 . S
H154 C139 0.929 . S
H155 C137 0.932 . S
C156 C157 1.386 . S
C156 C158 1.397 . S
C156 H180 0.931 . S
C157 C156 1.386 . S
C157 C161 1.397 . S
C158 C156 1.397 . S
C158 C159 1.384 . S
C158 H181 0.930 . S
C159 C158 1.384 . S
C159 C160 1.377 . S
C159 C162 1.481 . S
C160 C159 1.377 . S
C160 C161 1.389 . S
C160 H182 0.929 . S
C161 C157 1.397 . S
C161 C160 1.389 . S
C161 H183 0.931 . S
C162 C159 1.481 . S
C162 C163 1.387 . S
C162 C167 1.390 . S
C163 C162 1.387 . S
C163 C164 1.401 . S
C163 H184 0.930 . S
C164 C163 1.401 . S
C164 C165 1.376 . S
C164 C173 1.511 . S
C165 C164 1.376 . S
C165 C166 1.392 . S
C165 H186 0.931 . S
C166 C165 1.392 . S
C166 C167 1.361 . S
C166 C168 1.500 . S
C167 C162 1.390 . S
C167 C166 1.361 . S
C167 H185 0.931 . S
C168 C166 1.500 . S
C168 C169 1.371 . S
C168 C170 1.365 . S
C169 C168 1.371 . S
C169 C179 1.386 . S
C169 H187 0.931 . S
C170 C168 1.365 . S
C170 C171 1.409 . S
C170 H188 0.929 . S
C171 C170 1.409 . S
C171 C172 1.380 . S
C171 H189 0.930 . S
C172 C171 1.380 . S
C172 C179 1.357 . S
C173 C164 1.511 . S
C173 C174 1.341 . S
C173 C175 1.371 . S
C174 C173 1.341 . S
C174 C178 1.394 . S
C174 H190 0.930 . S
C175 C173 1.371 . S
C175 C176 1.392 . S
C175 H191 0.931 . S
C176 C175 1.392 . S
C176 C177 1.331 . S
C176 H194 0.932 . S
C177 C176 1.331 . S
C177 C178 1.336 . S
C178 C174 1.394 . S
C178 C177 1.336 . S
C178 H193 0.929 . S
C179 C169 1.386 . S
C179 C172 1.357 . S
C179 H192 0.928 . S
H180 C156 0.931 . S
H181 C158 0.930 . S
H182 C160 0.929 . S
H183 C161 0.931 . S
H184 C163 0.930 . S
H185 C167 0.931 . S
H186 C165 0.931 . S
H187 C169 0.931 . S
H188 C170 0.929 . S
H189 C171 0.930 . S
H190 C174 0.930 . S
H191 C175 0.931 . S
H192 C179 0.928 . S
H193 C178 0.929 . S
H194 C176 0.932 . S
C195 C196 1.386 . S
C195 C197 1.397 . S
C195 H219 0.931 . S
C196 C195 1.386 . S
C196 C200 1.397 . S
C197 C195 1.397 . S
C197 C198 1.384 . S
C197 H220 0.930 . S
C198 C197 1.384 . S
C198 C199 1.377 . S
C198 C201 1.481 . S
C199 C198 1.377 . S
C199 C200 1.389 . S
C199 H221 0.929 . S
C200 C196 1.397 . S
C200 C199 1.389 . S
C200 H222 0.931 . S
C201 C198 1.481 . S
C201 C202 1.387 . S
C201 C206 1.390 . S
C202 C201 1.387 . S
C202 C203 1.401 . S
C202 H223 0.930 . S
C203 C202 1.401 . S
C203 C204 1.376 . S
C203 C212 1.511 . S
C204 C203 1.376 . S
C204 C205 1.392 . S
C204 H225 0.931 . S
C205 C204 1.392 . S
C205 C206 1.361 . S
C205 C207 1.500 . S
C206 C201 1.390 . S
C206 C205 1.361 . S
C206 H224 0.931 . S
C207 C205 1.500 . S
C207 C208 1.371 . S
C207 C209 1.365 . S
C208 C207 1.371 . S
C208 C218 1.386 . S
C208 H226 0.931 . S
C209 C207 1.365 . S
C209 C210 1.409 . S
C209 H227 0.929 . S
C210 C209 1.409 . S
C210 C211 1.380 . S
C210 H228 0.930 . S
C211 C210 1.380 . S
C211 C218 1.357 . S
C212 C203 1.511 . S
C212 C213 1.341 . S
C212 C214 1.371 . S
C213 C212 1.341 . S
C213 C217 1.394 . S
C213 H229 0.930 . S
C214 C212 1.371 . S
C214 C215 1.392 . S
C214 H230 0.931 . S
C215 C214 1.392 . S
C215 C216 1.331 . S
C215 H233 0.932 . S
C216 C215 1.331 . S
C216 C217 1.336 . S
C217 C213 1.394 . S
C217 C216 1.336 . S
C217 H232 0.929 . S
C218 C208 1.386 . S
C218 C211 1.357 . S
C218 H231 0.928 . S
H219 C195 0.931 . S
H220 C197 0.930 . S
H221 C199 0.929 . S
H222 C200 0.931 . S
H223 C202 0.930 . S
H224 C206 0.931 . S
H225 C204 0.931 . S
H226 C208 0.931 . S
H227 C209 0.929 . S
H228 C210 0.930 . S
H229 C213 0.930 . S
H230 C214 0.931 . S
H231 C218 0.928 . S
H232 C217 0.929 . S
H233 C215 0.932 . S
C234 C235 1.386 . S
C234 C236 1.397 . S
C234 H258 0.931 . S
C235 C234 1.386 . S
C235 C239 1.397 1_655 S
C236 C234 1.397 . S
C236 C237 1.384 . S
C236 H259 0.930 . S
C237 C236 1.384 . S
C237 C238 1.377 1_655 S
C237 C240 1.481 . S
C238 C237 1.377 1_455 S
C238 C239 1.389 . S
C238 H260 0.929 . S
C239 C235 1.397 1_455 S
C239 C238 1.389 . S
C239 H261 0.931 . S
C240 C237 1.481 . S
C240 C241 1.387 . S
C240 C245 1.390 . S
C241 C240 1.387 . S
C241 C242 1.401 . S
C241 H262 0.930 . S
C242 C241 1.401 . S
C242 C243 1.376 . S
C242 C251 1.511 . S
C243 C242 1.376 . S
C243 C244 1.392 . S
C243 H264 0.931 . S
C244 C243 1.392 . S
C244 C245 1.361 . S
C244 C246 1.500 . S
C245 C240 1.390 . S
C245 C244 1.361 . S
C245 H263 0.931 . S
C246 C244 1.500 . S
C246 C247 1.371 . S
C246 C248 1.365 . S
C247 C246 1.371 . S
C247 C257 1.386 . S
C247 H265 0.931 . S
C248 C246 1.365 . S
C248 C249 1.409 . S
C248 H266 0.929 . S
C249 C248 1.409 . S
C249 C250 1.380 . S
C249 H267 0.930 . S
C250 C249 1.380 . S
C250 C257 1.357 . S
C251 C242 1.511 . S
C251 C252 1.341 . S
C251 C253 1.371 . S
C252 C251 1.341 . S
C252 C256 1.394 . S
C252 H268 0.930 . S
C253 C251 1.371 . S
C253 C254 1.392 . S
C253 H269 0.931 . S
C254 C253 1.392 . S
C254 C255 1.331 . S
C254 H272 0.932 . S
C255 C254 1.331 . S
C255 C256 1.336 . S
C256 C252 1.394 . S
C256 C255 1.336 . S
C256 H271 0.929 . S
C257 C247 1.386 . S
C257 C250 1.357 . S
C257 H270 0.928 . S
H258 C234 0.931 . S
H259 C236 0.930 . S
H260 C238 0.929 . S
H261 C239 0.931 . S
H262 C241 0.930 . S
H263 C245 0.931 . S
H264 C243 0.931 . S
H265 C247 0.931 . S
H266 C248 0.929 . S
H267 C249 0.930 . S
H268 C252 0.930 . S
H269 C253 0.931 . S
H270 C257 0.928 . S
H271 C256 0.929 . S
H272 C254 0.932 . S
C273 C274 1.386 . S
C273 C275 1.397 . S
C273 H297 0.931 . S
C274 C273 1.386 . S
C274 C278 1.397 . S
C275 C273 1.397 . S
C275 C276 1.384 . S
C275 H298 0.930 . S
C276 C275 1.384 . S
C276 C277 1.377 . S
C276 C279 1.481 . S
C277 C276 1.377 . S
C277 C278 1.389 . S
C277 H299 0.929 . S
C278 C274 1.397 . S
C278 C277 1.389 . S
C278 H300 0.931 . S
C279 C276 1.481 . S
C279 C280 1.387 . S
C279 C284 1.390 . S
C280 C279 1.387 . S
C280 C281 1.401 . S
C280 H301 0.930 . S
C281 C280 1.401 . S
C281 C282 1.376 . S
C281 C290 1.511 . S
C282 C281 1.376 . S
C282 C283 1.392 . S
C282 H303 0.931 . S
C283 C282 1.392 . S
C283 C284 1.361 . S
C283 C285 1.500 . S
C284 C279 1.390 . S
C284 C283 1.361 . S
C284 H302 0.931 . S
C285 C283 1.500 . S
C285 C286 1.371 . S
C285 C287 1.365 . S
C286 C285 1.371 . S
C286 C296 1.386 . S
C286 H304 0.931 . S
C287 C285 1.365 . S
C287 C288 1.409 . S
C287 H305 0.929 . S
C288 C287 1.409 . S
C288 C289 1.380 . S
C288 H306 0.930 . S
C289 C288 1.380 . S
C289 C296 1.357 . S
C290 C281 1.511 . S
C290 C291 1.341 . S
C290 C292 1.371 . S
C291 C290 1.341 . S
C291 C295 1.394 . S
C291 H307 0.930 . S
C292 C290 1.371 . S
C292 C293 1.392 . S
C292 H308 0.931 . S
C293 C292 1.392 . S
C293 C294 1.331 . S
C293 H311 0.932 . S
C294 C293 1.331 . S
C294 C295 1.336 . S
C295 C291 1.394 . S
C295 C294 1.336 . S
C295 H310 0.929 . S
C296 C286 1.386 . S
C296 C289 1.357 . S
C296 H309 0.928 . S
H297 C273 0.931 . S
H298 C275 0.930 . S
H299 C277 0.929 . S
H300 C278 0.931 . S
H301 C280 0.930 . S
H302 C284 0.931 . S
H303 C282 0.931 . S
H304 C286 0.931 . S
H305 C287 0.929 . S
H306 C288 0.930 . S
H307 C291 0.930 . S
H308 C292 0.931 . S
H309 C296 0.928 . S
H310 C295 0.929 . S
H311 C293 0.932 . S
C312 C313 1.386 . S
C312 C314 1.397 . S
C312 H336 0.931 . S
C313 C312 1.386 . S
C313 C317 1.397 . S
C314 C312 1.397 . S
C314 C315 1.384 . S
C314 H337 0.930 . S
C315 C314 1.384 . S
C315 C316 1.377 . S
C315 C318 1.481 . S
C316 C315 1.377 . S
C316 C317 1.389 . S
C316 H338 0.929 . S
C317 C313 1.397 . S
C317 C316 1.389 . S
C317 H339 0.931 . S
C318 C315 1.481 . S
C318 C319 1.387 . S
C318 C323 1.390 . S
C319 C318 1.387 . S
C319 C320 1.401 . S
C319 H340 0.930 . S
C320 C319 1.401 . S
C320 C321 1.376 . S
C320 C329 1.511 . S
C321 C320 1.376 . S
C321 C322 1.392 . S
C321 H342 0.931 . S
C322 C321 1.392 . S
C322 C323 1.361 . S
C322 C324 1.500 . S
C323 C318 1.390 . S
C323 C322 1.361 . S
C323 H341 0.931 . S
C324 C322 1.500 . S
C324 C325 1.371 . S
C324 C326 1.365 . S
C325 C324 1.371 . S
C325 C335 1.386 . S
C325 H343 0.931 . S
C326 C324 1.365 . S
C326 C327 1.409 . S
C326 H344 0.929 . S
C327 C326 1.409 . S
C327 C328 1.380 . S
C327 H345 0.930 . S
C328 C327 1.380 . S
C328 C335 1.357 . S
C329 C320 1.511 . S
C329 C330 1.341 . S
C329 C331 1.371 . S
C330 C329 1.341 . S
C330 C334 1.394 . S
C330 H346 0.930 . S
C331 C329 1.371 . S
C331 C332 1.392 . S
C331 H347 0.931 . S
C332 C331 1.392 . S
C332 C333 1.331 . S
C332 H350 0.932 . S
C333 C332 1.331 . S
C333 C334 1.336 . S
C334 C330 1.394 . S
C334 C333 1.336 . S
C334 H349 0.929 . S
C335 C325 1.386 . S
C335 C328 1.357 . S
C335 H348 0.928 . S
H336 C312 0.931 . S
H337 C314 0.930 . S
H338 C316 0.929 . S
H339 C317 0.931 . S
H340 C319 0.930 . S
H341 C323 0.931 . S
H342 C321 0.931 . S
H343 C325 0.931 . S
H344 C326 0.929 . S
H345 C327 0.930 . S
H346 C330 0.930 . S
H347 C331 0.931 . S
H348 C335 0.928 . S
H349 C334 0.929 . S
H350 C332 0.932 . S
C351 C352 1.386 . S
C351 C353 1.397 . S
C351 H375 0.931 . S
C352 C351 1.386 . S
C352 C356 1.397 . S
C353 C351 1.397 . S
C353 C354 1.384 . S
C353 H376 0.930 . S
C354 C353 1.384 . S
C354 C355 1.377 . S
C354 C357 1.481 . S
C355 C354 1.377 . S
C355 C356 1.389 . S
C355 H377 0.929 . S
C356 C352 1.397 . S
C356 C355 1.389 . S
C356 H378 0.931 . S
C357 C354 1.481 . S
C357 C358 1.387 . S
C357 C362 1.390 . S
C358 C357 1.387 . S
C358 C359 1.401 . S
C358 H379 0.930 . S
C359 C358 1.401 . S
C359 C360 1.376 . S
C359 C368 1.511 . S
C360 C359 1.376 . S
C360 C361 1.392 . S
C360 H381 0.931 . S
C361 C360 1.392 . S
C361 C362 1.361 . S
C361 C363 1.500 . S
C362 C357 1.390 . S
C362 C361 1.361 . S
C362 H380 0.931 . S
C363 C361 1.500 . S
C363 C364 1.371 . S
C363 C365 1.365 . S
C364 C363 1.371 . S
C364 C374 1.386 . S
C364 H382 0.931 . S
C365 C363 1.365 . S
C365 C366 1.409 . S
C365 H383 0.929 . S
C366 C365 1.409 . S
C366 C367 1.380 . S
C366 H384 0.930 . S
C367 C366 1.380 . S
C367 C374 1.357 . S
C368 C359 1.511 . S
C368 C369 1.341 . S
C368 C370 1.371 . S
C369 C368 1.341 . S
C369 C373 1.394 . S
C369 H385 0.930 . S
C370 C368 1.371 . S
C370 C371 1.392 . S
C370 H386 0.931 . S
C371 C370 1.392 . S
C371 C372 1.331 . S
C371 H389 0.932 . S
C372 C371 1.331 . S
C372 C373 1.336 . S
C373 C369 1.394 . S
C373 C372 1.336 . S
C373 H388 0.929 . S
C374 C364 1.386 . S
C374 C367 1.357 . S
C374 H387 0.928 . S
H375 C351 0.931 . S
H376 C353 0.930 . S
H377 C355 0.929 . S
H378 C356 0.931 . S
H379 C358 0.930 . S
H380 C362 0.931 . S
H381 C360 0.931 . S
H382 C364 0.931 . S
H383 C365 0.929 . S
H384 C366 0.930 . S
H385 C369 0.930 . S
H386 C370 0.931 . S
H387 C374 0.928 . S
H388 C373 0.929 . S
H389 C371 0.932 . S
C390 C391 1.386 . S
C390 C392 1.397 . S
C390 H414 0.931 . S
C391 C390 1.386 . S
C391 C395 1.397 . S
C392 C390 1.397 . S
C392 C393 1.384 . S
C392 H415 0.930 . S
C393 C392 1.384 . S
C393 C394 1.377 . S
C393 C396 1.481 . S
C394 C393 1.377 . S
C394 C395 1.389 . S
C394 H416 0.929 . S
C395 C391 1.397 . S
C395 C394 1.389 . S
C395 H417 0.931 . S
C396 C393 1.481 . S
C396 C397 1.387 . S
C396 C401 1.390 . S
C397 C396 1.387 . S
C397 C398 1.401 . S
C397 H418 0.930 . S
C398 C397 1.401 . S
C398 C399 1.376 . S
C398 C407 1.511 . S
C399 C398 1.376 . S
C399 C400 1.392 . S
C399 H420 0.931 . S
C400 C399 1.392 . S
C400 C401 1.361 . S
C400 C402 1.500 . S
C401 C396 1.390 . S
C401 C400 1.361 . S
C401 H419 0.931 . S
C402 C400 1.500 . S
C402 C403 1.371 . S
C402 C404 1.365 . S
C403 C402 1.371 . S
C403 C413 1.386 . S
C403 H421 0.931 . S
C404 C402 1.365 . S
C404 C405 1.409 . S
C404 H422 0.929 . S
C405 C404 1.409 . S
C405 C406 1.380 . S
C405 H423 0.930 . S
C406 C405 1.380 . S
C406 C413 1.357 . S
C407 C398 1.511 . S
C407 C408 1.341 . S
C407 C409 1.371 . S
C408 C407 1.341 . S
C408 C412 1.394 . S
C408 H424 0.930 . S
C409 C407 1.371 . S
C409 C410 1.392 . S
C409 H425 0.931 . S
C410 C409 1.392 . S
C410 C411 1.331 . S
C410 H428 0.932 . S
C411 C410 1.331 . S
C411 C412 1.336 . S
C412 C408 1.394 . S
C412 C411 1.336 . S
C412 H427 0.929 . S
C413 C403 1.386 . S
C413 C406 1.357 . S
C413 H426 0.928 1_556 S
H414 C390 0.931 . S
H415 C392 0.930 . S
H416 C394 0.929 . S
H417 C395 0.931 . S
H418 C397 0.930 . S
H419 C401 0.931 . S
H420 C399 0.931 . S
H421 C403 0.931 . S
H422 C404 0.929 . S
H423 C405 0.930 . S
H424 C408 0.930 . S
H425 C409 0.931 . S
H426 C413 0.928 1_554 S
H427 C412 0.929 . S
H428 C410 0.932 . S
C429 C430 1.386 . S
C429 C431 1.397 . S
C429 H453 0.931 . S
C430 C429 1.386 . S
C430 C434 1.397 . S
C431 C429 1.397 . S
C431 C432 1.384 . S
C431 H454 0.930 . S
C432 C431 1.384 . S
C432 C433 1.377 . S
C432 C435 1.481 . S
C433 C432 1.377 . S
C433 C434 1.389 . S
C433 H455 0.929 . S
C434 C430 1.397 . S
C434 C433 1.389 . S
C434 H456 0.931 . S
C435 C432 1.481 . S
C435 C436 1.387 . S
C435 C440 1.390 . S
C436 C435 1.387 . S
C436 C437 1.401 . S
C436 H457 0.930 . S
C437 C436 1.401 . S
C437 C438 1.376 . S
C437 C446 1.511 . S
C438 C437 1.376 . S
C438 C439 1.392 . S
C438 H459 0.931 . S
C439 C438 1.392 . S
C439 C440 1.361 . S
C439 C441 1.500 . S
C440 C435 1.390 . S
C440 C439 1.361 . S
C440 H458 0.931 . S
C441 C439 1.500 . S
C441 C442 1.371 . S
C441 C443 1.365 . S
C442 C441 1.371 . S
C442 C452 1.386 . S
C442 H460 0.931 . S
C443 C441 1.365 . S
C443 C444 1.409 . S
C443 H461 0.929 . S
C444 C443 1.409 . S
C444 C445 1.380 . S
C444 H462 0.930 . S
C445 C444 1.380 . S
C445 C452 1.357 . S
C446 C437 1.511 . S
C446 C447 1.341 . S
C446 C448 1.371 . S
C447 C446 1.341 . S
C447 C451 1.394 . S
C447 H463 0.930 . S
C448 C446 1.371 . S
C448 C449 1.392 . S
C448 H464 0.931 . S
C449 C448 1.392 . S
C449 C450 1.331 . S
C449 H467 0.932 . S
C450 C449 1.331 . S
C450 C451 1.336 . S
C451 C447 1.394 . S
C451 C450 1.336 . S
C451 H466 0.929 . S
C452 C442 1.386 . S
C452 C445 1.357 . S
C452 H465 0.928 . S
H453 C429 0.931 . S
H454 C431 0.930 . S
H455 C433 0.929 . S
H456 C434 0.931 . S
H457 C436 0.930 . S
H458 C440 0.931 . S
H459 C438 0.931 . S
H460 C442 0.931 . S
H461 C443 0.929 . S
H462 C444 0.930 . S
H463 C447 0.930 . S
H464 C448 0.931 . S
H465 C452 0.928 . S
H466 C451 0.929 . S
H467 C449 0.932 . S
C468 C469 1.386 . S
C468 C470 1.397 . S
C468 H492 0.931 . S
C469 C468 1.386 . S
C469 C473 1.397 . S
C470 C468 1.397 . S
C470 C471 1.384 . S
C470 H493 0.930 . S
C471 C470 1.384 . S
C471 C472 1.377 . S
C471 C474 1.481 . S
C472 C471 1.377 . S
C472 C473 1.389 . S
C472 H494 0.929 . S
C473 C469 1.397 . S
C473 C472 1.389 . S
C473 H495 0.931 . S
C474 C471 1.481 . S
C474 C475 1.387 . S
C474 C479 1.390 . S
C475 C474 1.387 . S
C475 C476 1.401 . S
C475 H496 0.930 . S
C476 C475 1.401 . S
C476 C477 1.376 . S
C476 C485 1.511 . S
C477 C476 1.376 . S
C477 C478 1.392 . S
C477 H498 0.931 . S
C478 C477 1.392 . S
C478 C479 1.361 . S
C478 C480 1.500 . S
C479 C474 1.390 . S
C479 C478 1.361 . S
C479 H497 0.931 . S
C480 C478 1.500 . S
C480 C481 1.371 . S
C480 C482 1.365 . S
C481 C480 1.371 . S
C481 C491 1.386 . S
C481 H499 0.931 . S
C482 C480 1.365 . S
C482 C483 1.409 . S
C482 H500 0.929 . S
C483 C482 1.409 . S
C483 C484 1.380 . S
C483 H501 0.930 . S
C484 C483 1.380 . S
C484 C491 1.357 . S
C485 C476 1.511 . S
C485 C486 1.341 . S
C485 C487 1.371 . S
C486 C485 1.341 . S
C486 C490 1.394 . S
C486 H502 0.930 . S
C487 C485 1.371 . S
C487 C488 1.392 . S
C487 H503 0.931 . S
C488 C487 1.392 . S
C488 C489 1.331 . S
C488 H506 0.932 . S
C489 C488 1.331 . S
C489 C490 1.336 . S
C490 C486 1.394 . S
C490 C489 1.336 . S
C490 H505 0.929 . S
C491 C481 1.386 . S
C491 C484 1.357 . S
C491 H504 0.928 . S
H492 C468 0.931 . S
H493 C470 0.930 . S
H494 C472 0.929 . S
H495 C473 0.931 . S
H496 C475 0.930 . S
H497 C479 0.931 . S
H498 C477 0.931 . S
H499 C481 0.931 . S
H500 C482 0.929 . S
H501 C483 0.930 . S
H502 C486 0.930 . S
H503 C487 0.931 . S
H504 C491 0.928 . S
H505 C490 0.929 . S
H506 C488 0.932 . S
C507 C508 1.386 . S
C507 C509 1.397 . S
C507 H531 0.931 . S
C508 C507 1.386 . S
C508 C512 1.397 . S
C509 C507 1.397 . S
C509 C510 1.384 . S
C509 H532 0.930 . S
C510 C509 1.384 . S
C510 C511 1.377 . S
C510 C513 1.481 . S
C511 C510 1.377 . S
C511 C512 1.389 . S
C511 H533 0.929 . S
C512 C508 1.397 . S
C512 C511 1.389 . S
C512 H534 0.931 . S
C513 C510 1.481 . S
C513 C514 1.387 . S
C513 C518 1.390 . S
C514 C513 1.387 . S
C514 C515 1.401 . S
C514 H535 0.930 . S
C515 C514 1.401 . S
C515 C516 1.376 . S
C515 C524 1.511 . S
C516 C515 1.376 . S
C516 C517 1.392 . S
C516 H537 0.931 . S
C517 C516 1.392 . S
C517 C518 1.361 . S
C517 C519 1.500 . S
C518 C513 1.390 . S
C518 C517 1.361 . S
C518 H536 0.931 . S
C519 C517 1.500 . S
C519 C520 1.371 . S
C519 C521 1.365 . S
C520 C519 1.371 . S
C520 C530 1.386 . S
C520 H538 0.931 . S
C521 C519 1.365 . S
C521 C522 1.409 . S
C521 H539 0.929 . S
C522 C521 1.409 . S
C522 C523 1.380 . S
C522 H540 0.930 . S
C523 C522 1.380 . S
C523 C530 1.357 . S
C524 C515 1.511 . S
C524 C525 1.341 . S
C524 C526 1.371 . S
C525 C524 1.341 . S
C525 C529 1.394 . S
C525 H541 0.930 . S
C526 C524 1.371 . S
C526 C527 1.392 . S
C526 H542 0.931 . S
C527 C526 1.392 . S
C527 C528 1.331 . S
C527 H545 0.932 . S
C528 C527 1.331 . S
C528 C529 1.336 . S
C529 C525 1.394 . S
C529 C528 1.336 . S
C529 H544 0.929 . S
C530 C520 1.386 . S
C530 C523 1.357 . S
C530 H543 0.928 . S
H531 C507 0.931 . S
H532 C509 0.930 . S
H533 C511 0.929 . S
H534 C512 0.931 . S
H535 C514 0.930 . S
H536 C518 0.931 . S
H537 C516 0.931 . S
H538 C520 0.931 . S
H539 C521 0.929 . S
H540 C522 0.930 . S
H541 C525 0.930 . S
H542 C526 0.931 . S
H543 C530 0.928 . S
H544 C529 0.929 . S
H545 C527 0.932 . S
C546 C547 1.386 . S
C546 C548 1.397 . S
C546 H570 0.931 . S
C547 C546 1.386 . S
C547 C551 1.397 . S
C548 C546 1.397 . S
C548 C549 1.384 . S
C548 H571 0.930 . S
C549 C548 1.384 . S
C549 C550 1.377 . S
C549 C552 1.481 . S
C550 C549 1.377 . S
C550 C551 1.389 . S
C550 H572 0.929 . S
C551 C547 1.397 . S
C551 C550 1.389 . S
C551 H573 0.931 . S
C552 C549 1.481 . S
C552 C553 1.387 . S
C552 C557 1.390 . S
C553 C552 1.387 . S
C553 C554 1.401 . S
C553 H574 0.930 . S
C554 C553 1.401 . S
C554 C555 1.376 . S
C554 C563 1.511 . S
C555 C554 1.376 . S
C555 C556 1.392 . S
C555 H576 0.931 . S
C556 C555 1.392 . S
C556 C557 1.361 . S
C556 C558 1.500 . S
C557 C552 1.390 . S
C557 C556 1.361 . S
C557 H575 0.931 . S
C558 C556 1.500 . S
C558 C559 1.371 . S
C558 C560 1.365 . S
C559 C558 1.371 . S
C559 C569 1.386 . S
C559 H577 0.931 . S
C560 C558 1.365 . S
C560 C561 1.409 . S
C560 H578 0.929 . S
C561 C560 1.409 . S
C561 C562 1.380 . S
C561 H579 0.930 . S
C562 C561 1.380 . S
C562 C569 1.357 . S
C563 C554 1.511 . S
C563 C564 1.341 . S
C563 C565 1.371 . S
C564 C563 1.341 . S
C564 C568 1.394 . S
C564 H580 0.930 . S
C565 C563 1.371 . S
C565 C566 1.392 . S
C565 H581 0.931 . S
C566 C565 1.392 . S
C566 C567 1.331 . S
C566 H584 0.932 . S
C567 C566 1.331 . S
C567 C568 1.336 . S
C568 C564 1.394 . S
C568 C567 1.336 . S
C568 H583 0.929 . S
C569 C559 1.386 . S
C569 C562 1.357 . S
C569 H582 0.928 . S
H570 C546 0.931 . S
H571 C548 0.930 . S
H572 C550 0.929 . S
H573 C551 0.931 . S
H574 C553 0.930 . S
H575 C557 0.931 . S
H576 C555 0.931 . S
H577 C559 0.931 . S
H578 C560 0.929 . S
H579 C561 0.930 . S
H580 C564 0.930 . S
H581 C565 0.931 . S
H582 C569 0.928 . S
H583 C568 0.929 . S
H584 C566 0.932 . S
C585 C586 1.386 . S
C585 C587 1.397 . S
C585 H609 0.931 . S
C586 C585 1.386 . S
C586 C590 1.397 . S
C587 C585 1.397 . S
C587 C588 1.384 . S
C587 H610 0.930 . S
C588 C587 1.384 . S
C588 C589 1.377 . S
C588 C591 1.481 . S
C589 C588 1.377 . S
C589 C590 1.389 . S
C589 H611 0.929 . S
C590 C586 1.397 . S
C590 C589 1.389 . S
C590 H612 0.931 . S
C591 C588 1.481 . S
C591 C592 1.387 . S
C591 C596 1.390 . S
C592 C591 1.387 . S
C592 C593 1.401 . S
C592 H613 0.930 . S
C593 C592 1.401 . S
C593 C594 1.376 . S
C593 C602 1.511 . S
C594 C593 1.376 . S
C594 C595 1.392 . S
C594 H615 0.931 . S
C595 C594 1.392 . S
C595 C596 1.361 . S
C595 C597 1.500 . S
C596 C591 1.390 . S
C596 C595 1.361 . S
C596 H614 0.931 . S
C597 C595 1.500 . S
C597 C598 1.371 . S
C597 C599 1.365 . S
C598 C597 1.371 . S
C598 C608 1.386 . S
C598 H616 0.931 . S
C599 C597 1.365 . S
C599 C600 1.409 . S
C599 H617 0.929 . S
C600 C599 1.409 . S
C600 C601 1.380 . S
C600 H618 0.930 . S
C601 C600 1.380 . S
C601 C608 1.357 . S
C602 C593 1.511 . S
C602 C603 1.341 . S
C602 C604 1.371 . S
C603 C602 1.341 . S
C603 C607 1.394 . S
C603 H619 0.930 . S
C604 C602 1.371 . S
C604 C605 1.392 . S
C604 H620 0.931 . S
C605 C604 1.392 . S
C605 C606 1.331 . S
C605 H623 0.932 . S
C606 C605 1.331 . S
C606 C607 1.336 . S
C607 C603 1.394 . S
C607 C606 1.336 . S
C607 H622 0.929 . S
C608 C598 1.386 . S
C608 C601 1.357 . S
C608 H621 0.928 . S
H609 C585 0.931 . S
H610 C587 0.930 . S
H611 C589 0.929 . S
H612 C590 0.931 . S
H613 C592 0.930 . S
H614 C596 0.931 . S
H615 C594 0.931 . S
H616 C598 0.931 . S
H617 C599 0.929 . S
H618 C600 0.930 . S
H619 C603 0.930 . S
H620 C604 0.931 . S
H621 C608 0.928 . S
H622 C607 0.929 . S
H623 C605 0.932 . S
C624 C625 1.386 1_655 S
C624 C626 1.397 . S
C624 H648 0.931 . S
C625 C624 1.386 1_455 S
C625 C629 1.397 . S
C626 C624 1.397 . S
C626 C627 1.384 1_655 S
C626 H649 0.930 . S
C627 C626 1.384 1_455 S
C627 C628 1.377 . S
C627 C630 1.481 . S
C628 C627 1.377 . S
C628 C629 1.389 . S
C628 H650 0.929 . S
C629 C625 1.397 . S
C629 C628 1.389 . S
C629 H651 0.931 . S
C630 C627 1.481 . S
C630 C631 1.387 . S
C630 C635 1.390 . S
C631 C630 1.387 . S
C631 C632 1.401 . S
C631 H652 0.930 . S
C632 C631 1.401 . S
C632 C633 1.376 . S
C632 C641 1.511 . S
C633 C632 1.376 . S
C633 C634 1.392 . S
C633 H654 0.931 . S
C634 C633 1.392 . S
C634 C635 1.361 . S
C634 C636 1.500 . S
C635 C630 1.390 . S
C635 C634 1.361 . S
C635 H653 0.931 . S
C636 C634 1.500 . S
C636 C637 1.371 . S
C636 C638 1.365 . S
C637 C636 1.371 . S
C637 C647 1.386 . S
C637 H655 0.931 . S
C638 C636 1.365 . S
C638 C639 1.409 . S
C638 H656 0.929 . S
C639 C638 1.409 . S
C639 C640 1.380 . S
C639 H657 0.930 . S
C640 C639 1.380 . S
C640 C647 1.357 . S
C641 C632 1.511 . S
C641 C642 1.341 . S
C641 C643 1.371 . S
C642 C641 1.341 . S
C642 C646 1.394 . S
C642 H658 0.930 . S
C643 C641 1.371 . S
C643 C644 1.392 . S
C643 H659 0.931 . S
C644 C643 1.392 . S
C644 C645 1.331 . S
C644 H662 0.932 . S
C645 C644 1.331 . S
C645 C646 1.336 . S
C646 C642 1.394 . S
C646 C645 1.336 . S
C646 H661 0.929 . S
C647 C637 1.386 . S
C647 C640 1.357 . S
C647 H660 0.928 . S
H648 C624 0.931 . S
H649 C626 0.930 . S
H650 C628 0.929 . S
H651 C629 0.931 . S
H652 C631 0.930 . S
H653 C635 0.931 . S
H654 C633 0.931 . S
H655 C637 0.931 . S
H656 C638 0.929 . S
H657 C639 0.930 . S
H658 C642 0.930 . S
H659 C643 0.931 . S
H660 C647 0.928 . S
H661 C646 0.929 . S
H662 C644 0.932 . S
C663 C664 1.386 . S
C663 C665 1.397 . S
C663 H687 0.931 . S
C664 C663 1.386 . S
C664 C668 1.397 . S
C665 C663 1.397 . S
C665 C666 1.384 . S
C665 H688 0.930 . S
C666 C665 1.384 . S
C666 C667 1.377 . S
C666 C669 1.481 . S
C667 C666 1.377 . S
C667 C668 1.389 . S
C667 H689 0.929 . S
C668 C664 1.397 . S
C668 C667 1.389 . S
C668 H690 0.931 . S
C669 C666 1.481 . S
C669 C670 1.387 . S
C669 C674 1.390 . S
C670 C669 1.387 . S
C670 C671 1.401 . S
C670 H691 0.930 . S
C671 C670 1.401 . S
C671 C672 1.376 . S
C671 C680 1.511 . S
C672 C671 1.376 . S
C672 C673 1.392 . S
C672 H693 0.931 . S
C673 C672 1.392 . S
C673 C674 1.361 . S
C673 C675 1.500 . S
C674 C669 1.390 . S
C674 C673 1.361 . S
C674 H692 0.931 . S
C675 C673 1.500 . S
C675 C676 1.371 . S
C675 C677 1.365 . S
C676 C675 1.371 . S
C676 C686 1.386 . S
C676 H694 0.931 . S
C677 C675 1.365 . S
C677 C678 1.409 . S
C677 H695 0.929 . S
C678 C677 1.409 . S
C678 C679 1.380 . S
C678 H696 0.930 . S
C679 C678 1.380 . S
C679 C686 1.357 . S
C680 C671 1.511 . S
C680 C681 1.341 . S
C680 C682 1.371 . S
C681 C680 1.341 . S
C681 C685 1.394 . S
C681 H697 0.930 . S
C682 C680 1.371 . S
C682 C683 1.392 . S
C682 H698 0.931 . S
C683 C682 1.392 . S
C683 C684 1.331 . S
C683 H701 0.932 . S
C684 C683 1.331 . S
C684 C685 1.336 . S
C685 C681 1.394 . S
C685 C684 1.336 . S
C685 H700 0.929 . S
C686 C676 1.386 . S
C686 C679 1.357 . S
C686 H699 0.928 . S
H687 C663 0.931 . S
H688 C665 0.930 . S
H689 C667 0.929 . S
H690 C668 0.931 . S
H691 C670 0.930 . S
H692 C674 0.931 . S
H693 C672 0.931 . S
H694 C676 0.931 . S
H695 C677 0.929 . S
H696 C678 0.930 . S
H697 C681 0.930 . S
H698 C682 0.931 . S
H699 C686 0.928 . S
H700 C685 0.929 . S
H701 C683 0.932 . S
C702 Eu703 2.835 . S
C702 C704 1.500 . S
C702 O722 1.257 1_545 S
C702 O723 1.260 . S
Eu703 C702 2.835 . S
Eu703 O722 2.473 1_545 S
Eu703 O723 2.480 . S
Eu703 O724 2.430 . S
Eu703 O725 2.670 1_554 S
Eu703 O726 2.394 1_545 S
Eu703 O731 2.355 1_545 S
Eu703 O733 2.374 . S
C704 C702 1.500 . S
C704 C705 1.377 . S
C704 C709 1.377 1_545 S
C705 C704 1.377 . S
C705 C706 1.395 . S
C705 H734 0.931 . S
C706 C705 1.395 . S
C706 C707 1.383 1_545 S
C706 H735 0.931 . S
C707 C706 1.383 1_565 S
C707 C708 1.394 . S
C708 C707 1.394 . S
C708 C709 1.378 . S
C708 H736 0.931 . S
C709 C704 1.377 1_565 S
C709 C708 1.378 . S
C709 H737 0.931 . S
C710 O724 1.228 1_556 S
C710 O725 1.281 . S
C711 O726 1.251 . S
C711 O727 1.251 1_554 S
C712 Eu713 2.835 . S
C712 C714 1.500 . S
C712 O728 1.257 1_565 S
C712 O729 1.260 . S
Eu713 C712 2.835 . S
Eu713 O725 2.355 1_565 S
Eu713 O727 2.374 . S
Eu713 O728 2.473 1_565 S
Eu713 O729 2.480 . S
Eu713 O730 2.430 . S
Eu713 O731 2.670 1_556 S
Eu713 O732 2.394 1_565 S
C714 C712 1.500 . S
C714 C715 1.377 . S
C714 C719 1.377 1_565 S
C715 C714 1.377 . S
C715 C716 1.395 . S
C715 H738 0.931 . S
C716 C715 1.395 . S
C716 C717 1.383 1_565 S
C716 H739 0.931 . S
C717 C716 1.383 1_545 S
C717 C718 1.394 . S
C718 C717 1.394 . S
C718 C719 1.378 . S
C718 H740 0.931 . S
C719 C714 1.377 1_545 S
C719 C718 1.378 . S
C719 H741 0.931 . S
C720 O730 1.259 1_554 S
C720 O731 1.270 . S
C721 O732 1.251 . S
C721 O733 1.251 1_556 S
O722 C702 1.257 1_565 S
O722 Eu703 2.473 1_565 S
O723 C702 1.260 . S
O723 Eu703 2.480 . S
O724 Eu703 2.430 . S
O724 C710 1.228 1_554 S
O725 Eu703 2.670 1_556 S
O725 C710 1.281 . S
O725 Eu713 2.355 1_545 S
O726 Eu703 2.394 1_565 S
O726 C711 1.251 . S
O727 C711 1.251 1_556 S
O727 Eu713 2.374 . S
O728 C712 1.257 1_545 S
O728 Eu713 2.473 1_545 S
O729 C712 1.260 . S
O729 Eu713 2.480 . S
O730 Eu713 2.430 . S
O730 C720 1.259 1_556 S
O731 Eu703 2.355 1_565 S
O731 Eu713 2.670 1_554 S
O731 C720 1.270 . S
O732 Eu713 2.394 1_545 S
O732 C721 1.251 . S
O733 Eu703 2.374 . S
O733 C721 1.251 1_554 S
H734 C705 0.931 . S
H735 C706 0.931 . S
H736 C708 0.931 . S
H737 C709 0.931 . S
H738 C715 0.931 . S
H739 C716 0.931 . S
H740 C718 0.931 . S
H741 C719 0.931 . S
C742 Eu743 2.835 . S
C742 C744 1.500 1_655 S
C742 O762 1.257 1_655 S
C742 O763 1.260 . S
Eu743 C742 2.835 . S
Eu743 O762 2.473 1_655 S
Eu743 O763 2.480 . S
Eu743 O764 2.430 . S
Eu743 O765 2.670 1_554 S
Eu743 O766 2.394 1_655 S
Eu743 O771 2.355 1_655 S
Eu743 O773 2.374 . S
C744 C742 1.500 1_455 S
C744 C745 1.377 1_455 S
C744 C749 1.377 . S
C745 C744 1.377 1_655 S
C745 C746 1.395 . S
C745 H774 0.931 . S
C746 C745 1.395 . S
C746 C747 1.383 1_655 S
C746 H775 0.931 . S
C747 C746 1.383 1_455 S
C747 C748 1.394 . S
C748 C747 1.394 . S
C748 C749 1.378 . S
C748 H776 0.931 . S
C749 C744 1.377 . S
C749 C748 1.378 . S
C749 H777 0.931 . S
C750 O764 1.259 1_556 S
C750 O765 1.270 . S
C751 O766 1.251 . S
C751 O767 1.251 . S
C752 Eu753 2.835 . S
C752 C754 1.500 1_455 S
C752 O768 1.257 1_455 S
C752 O769 1.260 . S
Eu753 C752 2.835 . S
Eu753 O765 2.355 1_455 S
Eu753 O767 2.374 1_556 S
Eu753 O768 2.473 1_455 S
Eu753 O769 2.480 . S
Eu753 O770 2.430 . S
Eu753 O771 2.670 1_556 S
Eu753 O772 2.394 1_455 S
C754 C752 1.500 1_655 S
C754 C755 1.377 1_655 S
C754 C759 1.377 . S
C755 C754 1.377 1_455 S
C755 C756 1.395 . S
C755 H778 0.931 . S
C756 C755 1.395 . S
C756 C757 1.383 1_455 S
C756 H779 0.931 . S
C757 C756 1.383 1_655 S
C757 C758 1.394 . S
C758 C757 1.394 . S
C758 C759 1.378 . S
C758 H780 0.931 . S
C759 C754 1.377 . S
C759 C758 1.378 . S
C759 H781 0.931 . S
C760 O770 1.259 1_554 S
C760 O771 1.270 . S
C761 O772 1.251 . S
C761 O773 1.251 1_556 S
O762 C742 1.257 1_455 S
O762 Eu743 2.473 1_455 S
O763 C742 1.260 . S
O763 Eu743 2.480 . S
O764 Eu743 2.430 . S
O764 C750 1.259 1_554 S
O765 Eu743 2.670 1_556 S
O765 C750 1.270 . S
O765 Eu753 2.355 1_655 S
O766 Eu743 2.394 1_455 S
O766 C751 1.251 . S
O767 C751 1.251 . S
O767 Eu753 2.374 1_554 S
O768 C752 1.257 1_655 S
O768 Eu753 2.473 1_655 S
O769 C752 1.260 . S
O769 Eu753 2.480 . S
O770 Eu753 2.430 . S
O770 C760 1.259 1_556 S
O771 Eu743 2.355 1_455 S
O771 Eu753 2.670 1_554 S
O771 C760 1.270 . S
O772 Eu753 2.394 1_655 S
O772 C761 1.251 . S
O773 Eu743 2.374 . S
O773 C761 1.251 1_554 S
H774 C745 0.931 . S
H775 C746 0.931 . S
H776 C748 0.931 . S
H777 C749 0.931 . S
H778 C755 0.931 . S
H779 C756 0.931 . S
H780 C758 0.931 . S
H781 C759 0.931 . S
C782 Eu783 2.835 . S
C782 C784 1.500 . S
C782 O802 1.257 . S
C782 O803 1.260 . S
Eu783 C782 2.835 . S
Eu783 O802 2.473 . S
Eu783 O803 2.480 . S
Eu783 O804 2.430 . S
Eu783 O805 2.670 1_556 S
Eu783 O806 2.394 . S
Eu783 O811 2.355 . S
Eu783 O813 2.366 1_556 S
C784 C782 1.500 . S
C784 C785 1.377 . S
C784 C789 1.377 . S
C785 C784 1.377 . S
C785 C786 1.395 . S
C785 H814 0.931 . S
C786 C785 1.395 . S
C786 C787 1.383 . S
C786 H815 0.931 . S
C787 C786 1.383 . S
C787 C788 1.394 . S
C788 C787 1.394 . S
C788 C789 1.378 . S
C788 H816 0.931 . S
C789 C784 1.377 . S
C789 C788 1.378 . S
C789 H817 0.931 . S
C790 O804 1.259 1_554 S
C790 O805 1.270 . S
C791 O806 1.251 . S
C791 O807 1.251 1_556 S
C792 Eu793 2.835 . S
C792 C794 1.500 . S
C792 O808 1.257 . S
C792 O809 1.260 . S
Eu793 C792 2.835 . S
Eu793 O805 2.355 . S
Eu793 O807 2.374 . S
Eu793 O808 2.473 . S
Eu793 O809 2.480 . S
Eu793 O810 2.430 . S
Eu793 O811 2.670 1_554 S
Eu793 O812 2.394 . S
C794 C792 1.500 . S
C794 C795 1.377 . S
C794 C799 1.377 . S
C795 C794 1.377 . S
C795 C796 1.395 . S
C795 H818 0.931 . S
C796 C795 1.395 . S
C796 C797 1.383 . S
C796 H819 0.931 . S
C797 C796 1.383 . S
C797 C798 1.394 . S
C798 C797 1.394 . S
C798 C799 1.378 . S
C798 H820 0.931 . S
C799 C794 1.377 . S
C799 C798 1.378 . S
C799 H821 0.931 . S
C800 O810 1.259 1_556 S
C800 O811 1.270 . S
C801 O812 1.251 . S
C801 O813 1.261 . S
O802 C782 1.257 . S
O802 Eu783 2.473 . S
O803 C782 1.260 . S
O803 Eu783 2.480 . S
O804 Eu783 2.430 . S
O804 C790 1.259 1_556 S
O805 Eu783 2.670 1_554 S
O805 C790 1.270 . S
O805 Eu793 2.355 . S
O806 Eu783 2.394 . S
O806 C791 1.251 . S
O807 C791 1.251 1_554 S
O807 Eu793 2.374 . S
O808 C792 1.257 . S
O808 Eu793 2.473 . S
O809 C792 1.260 . S
O809 Eu793 2.480 . S
O810 Eu793 2.430 . S
O810 C800 1.259 1_554 S
O811 Eu783 2.355 . S
O811 Eu793 2.670 1_556 S
O811 C800 1.270 . S
O812 Eu793 2.394 . S
O812 C801 1.251 . S
O813 Eu783 2.366 1_554 S
O813 C801 1.261 . S
H814 C785 0.931 . S
H815 C786 0.931 . S
H816 C788 0.931 . S
H817 C789 0.931 . S
H818 C795 0.931 . S
H819 C796 0.931 . S
H820 C798 0.931 . S
H821 C799 0.931 . S
C822 Eu823 2.835 . S
C822 C824 1.500 . S
C822 O842 1.257 . S
C822 O843 1.260 . S
Eu823 C822 2.835 . S
Eu823 O842 2.473 . S
Eu823 O843 2.480 . S
Eu823 O844 2.430 . S
Eu823 O845 2.670 . S
Eu823 O846 2.394 . S
Eu823 O851 2.355 . S
Eu823 O853 2.374 . S
C824 C822 1.500 . S
C824 C825 1.377 . S
C824 C829 1.377 . S
C825 C824 1.377 . S
C825 C826 1.395 . S
C825 H854 0.931 . S
C826 C825 1.395 . S
C826 C827 1.383 . S
C826 H855 0.931 . S
C827 C826 1.383 . S
C827 C828 1.394 . S
C828 C827 1.394 . S
C828 C829 1.378 . S
C828 H856 0.931 . S
C829 C824 1.377 . S
C829 C828 1.378 . S
C829 H857 0.931 . S
C830 O844 1.259 . S
C830 O845 1.270 . S
C831 O846 1.251 . S
C831 O847 1.251 . S
C832 Eu833 2.835 . S
C832 C834 1.500 . S
C832 O848 1.257 . S
C832 O849 1.260 . S
Eu833 C832 2.835 . S
Eu833 O845 2.355 . S
Eu833 O847 2.374 . S
Eu833 O848 2.473 . S
Eu833 O849 2.480 . S
Eu833 O850 2.430 . S
Eu833 O851 2.670 . S
Eu833 O852 2.394 . S
C834 C832 1.500 . S
C834 C835 1.377 . S
C834 C839 1.377 . S
C835 C834 1.377 . S
C835 C836 1.395 . S
C835 H858 0.931 . S
C836 C835 1.395 . S
C836 C837 1.383 . S
C836 H859 0.931 . S
C837 C836 1.383 . S
C837 C838 1.394 . S
C838 C837 1.394 . S
C838 C839 1.378 . S
C838 H860 0.931 . S
C839 C834 1.377 . S
C839 C838 1.378 . S
C839 H861 0.931 . S
C840 O850 1.259 . S
C840 O851 1.270 . S
C841 O852 1.251 . S
C841 O853 1.251 . S
O842 C822 1.257 . S
O842 Eu823 2.473 . S
O843 C822 1.260 . S
O843 Eu823 2.480 . S
O844 Eu823 2.430 . S
O844 C830 1.259 . S
O845 Eu823 2.670 . S
O845 C830 1.270 . S
O845 Eu833 2.355 . S
O846 Eu823 2.394 . S
O846 C831 1.251 . S
O847 C831 1.251 . S
O847 Eu833 2.374 . S
O848 C832 1.257 . S
O848 Eu833 2.473 . S
O849 C832 1.260 . S
O849 Eu833 2.480 . S
O850 Eu833 2.430 . S
O850 C840 1.259 . S
O851 Eu823 2.355 . S
O851 Eu833 2.670 . S
O851 C840 1.270 . S
O852 Eu833 2.394 . S
O852 C841 1.251 . S
O853 Eu823 2.374 . S
O853 C841 1.251 . S
H854 C825 0.931 . S
H855 C826 0.931 . S
H856 C828 0.931 . S
H857 C829 0.931 . S
H858 C835 0.931 . S
H859 C836 0.931 . S
H860 C838 0.931 . S
H861 C839 0.931 . S
C862 Eu863 2.835 . S
C862 C864 1.500 . S
C862 O882 1.257 . S
C862 O883 1.260 . S
Eu863 C862 2.835 . S
Eu863 O882 2.473 . S
Eu863 O883 2.480 . S
Eu863 O884 2.430 . S
Eu863 O885 2.670 . S
Eu863 O886 2.394 . S
Eu863 O891 2.355 . S
Eu863 O893 2.374 . S
C864 C862 1.500 . S
C864 C865 1.377 . S
C864 C869 1.377 . S
C865 C864 1.377 . S
C865 C866 1.395 . S
C865 H894 0.931 . S
C866 C865 1.395 . S
C866 C867 1.383 . S
C866 H895 0.931 . S
C867 C866 1.383 . S
C867 C868 1.394 . S
C868 C867 1.394 . S
C868 C869 1.378 . S
C868 H896 0.931 . S
C869 C864 1.377 . S
C869 C868 1.378 . S
C869 H897 0.931 . S
C870 O884 1.259 . S
C870 O885 1.270 . S
C871 O886 1.251 . S
C871 O887 1.251 . S
C872 Eu873 2.835 . S
C872 C874 1.500 . S
C872 O888 1.257 . S
C872 O889 1.260 . S
Eu873 C872 2.835 . S
Eu873 O885 2.355 . S
Eu873 O887 2.374 . S
Eu873 O888 2.473 . S
Eu873 O889 2.480 . S
Eu873 O890 2.430 . S
Eu873 O891 2.670 . S
Eu873 O892 2.394 . S
C874 C872 1.500 . S
C874 C875 1.377 . S
C874 C879 1.377 . S
C875 C874 1.377 . S
C875 C876 1.395 . S
C875 H898 0.931 . S
C876 C875 1.395 . S
C876 C877 1.383 . S
C876 H899 0.931 . S
C877 C876 1.383 . S
C877 C878 1.394 . S
C878 C877 1.394 . S
C878 C879 1.378 . S
C878 H900 0.931 . S
C879 C874 1.377 . S
C879 C878 1.378 . S
C879 H901 0.931 . S
C880 O890 1.259 . S
C880 O891 1.270 . S
C881 O892 1.251 . S
C881 O893 1.251 . S
O882 C862 1.257 . S
O882 Eu863 2.473 . S
O883 C862 1.260 . S
O883 Eu863 2.480 . S
O884 Eu863 2.430 . S
O884 C870 1.259 . S
O885 Eu863 2.670 . S
O885 C870 1.270 . S
O885 Eu873 2.355 . S
O886 Eu863 2.394 . S
O886 C871 1.251 . S
O887 C871 1.251 . S
O887 Eu873 2.374 . S
O888 C872 1.257 . S
O888 Eu873 2.473 . S
O889 C872 1.260 . S
O889 Eu873 2.480 . S
O890 Eu873 2.430 . S
O890 C880 1.259 . S
O891 Eu863 2.355 . S
O891 Eu873 2.670 . S
O891 C880 1.270 . S
O892 Eu873 2.394 . S
O892 C881 1.251 . S
O893 Eu863 2.374 . S
O893 C881 1.251 . S
H894 C865 0.931 . S
H895 C866 0.931 . S
H896 C868 0.931 . S
H897 C869 0.931 . S
H898 C875 0.931 . S
H899 C876 0.931 . S
H900 C878 0.931 . S
H901 C879 0.931 . S
C902 Eu903 2.835 . S
C902 C904 1.500 . S
C902 O922 1.257 . S
C902 O923 1.260 . S
Eu903 C902 2.835 . S
Eu903 O922 2.473 . S
Eu903 O923 2.480 . S
Eu903 O924 2.430 . S
Eu903 O925 2.670 . S
Eu903 O926 2.394 . S
Eu903 O931 2.355 . S
Eu903 O933 2.374 . S
C904 C902 1.500 . S
C904 C905 1.377 . S
C904 C909 1.377 . S
C905 C904 1.377 . S
C905 C906 1.395 . S
C905 H934 0.931 . S
C906 C905 1.395 . S
C906 C907 1.383 . S
C906 H935 0.931 . S
C907 C906 1.383 . S
C907 C908 1.394 . S
C908 C907 1.394 . S
C908 C909 1.378 . S
C908 H936 0.931 . S
C909 C904 1.377 . S
C909 C908 1.378 . S
C909 H937 0.931 . S
C910 O924 1.259 . S
C910 O925 1.270 . S
C911 O926 1.251 . S
C911 O927 1.251 . S
C912 Eu913 2.835 . S
C912 C914 1.500 . S
C912 O928 1.257 . S
C912 O929 1.260 . S
Eu913 C912 2.835 . S
Eu913 O925 2.355 . S
Eu913 O927 2.374 . S
Eu913 O928 2.473 . S
Eu913 O929 2.480 . S
Eu913 O930 2.430 . S
Eu913 O931 2.670 . S
Eu913 O932 2.394 . S
C914 C912 1.500 . S
C914 C915 1.377 . S
C914 C919 1.377 . S
C915 C914 1.377 . S
C915 C916 1.395 . S
C915 H938 0.931 . S
C916 C915 1.395 . S
C916 C917 1.383 . S
C916 H939 0.931 . S
C917 C916 1.383 . S
C917 C918 1.394 . S
C918 C917 1.394 . S
C918 C919 1.378 . S
C918 H940 0.931 . S
C919 C914 1.377 . S
C919 C918 1.378 . S
C919 H941 0.931 . S
C920 O930 1.259 . S
C920 O931 1.270 . S
C921 O932 1.251 . S
C921 O933 1.251 . S
O922 C902 1.257 . S
O922 Eu903 2.473 . S
O923 C902 1.260 . S
O923 Eu903 2.480 . S
O924 Eu903 2.430 . S
O924 C910 1.259 . S
O925 Eu903 2.670 . S
O925 C910 1.270 . S
O925 Eu913 2.355 . S
O926 Eu903 2.394 . S
O926 C911 1.251 . S
O927 C911 1.251 . S
O927 Eu913 2.374 . S
O928 C912 1.257 . S
O928 Eu913 2.473 . S
O929 C912 1.260 . S
O929 Eu913 2.480 . S
O930 Eu913 2.430 . S
O930 C920 1.259 . S
O931 Eu903 2.355 . S
O931 Eu913 2.670 . S
O931 C920 1.270 . S
O932 Eu913 2.394 . S
O932 C921 1.251 . S
O933 Eu903 2.374 . S
O933 C921 1.251 . S
H934 C905 0.931 . S
H935 C906 0.931 . S
H936 C908 0.931 . S
H937 C909 0.931 . S
H938 C915 0.931 . S
H939 C916 0.931 . S
H940 C918 0.931 . S
H941 C919 0.931 . S
C942 Eu943 2.835 . S
C942 C944 1.500 . S
C942 O962 1.257 . S
C942 O963 1.260 . S
Eu943 C942 2.835 . S
Eu943 O962 2.473 . S
Eu943 O963 2.480 . S
Eu943 O964 2.430 . S
Eu943 O965 2.670 . S
Eu943 O966 2.394 . S
Eu943 O971 2.355 . S
Eu943 O973 2.374 . S
C944 C942 1.500 . S
C944 C945 1.377 . S
C944 C949 1.377 . S
C945 C944 1.377 . S
C945 C946 1.395 . S
C945 H974 0.931 . S
C946 C945 1.395 . S
C946 C947 1.383 . S
C946 H975 0.931 . S
C947 C946 1.383 . S
C947 C948 1.394 . S
C948 C947 1.394 . S
C948 C949 1.378 . S
C948 H976 0.931 . S
C949 C944 1.377 . S
C949 C948 1.378 . S
C949 H977 0.931 . S
C950 O964 1.259 . S
C950 O965 1.270 . S
C951 O966 1.251 . S
C951 O967 1.251 . S
C952 Eu953 2.835 . S
C952 C954 1.500 . S
C952 O968 1.257 . S
C952 O969 1.260 . S
Eu953 C952 2.835 . S
Eu953 O965 2.355 . S
Eu953 O967 2.374 . S
Eu953 O968 2.473 . S
Eu953 O969 2.480 . S
Eu953 O970 2.430 . S
Eu953 O971 2.670 . S
Eu953 O972 2.394 . S
C954 C952 1.500 . S
C954 C955 1.377 . S
C954 C959 1.377 . S
C955 C954 1.377 . S
C955 C956 1.395 . S
C955 H978 0.931 . S
C956 C955 1.395 . S
C956 C957 1.383 . S
C956 H979 0.931 . S
C957 C956 1.383 . S
C957 C958 1.394 . S
C958 C957 1.394 . S
C958 C959 1.378 . S
C958 H980 0.931 . S
C959 C954 1.377 . S
C959 C958 1.378 . S
C959 H981 0.931 . S
C960 O970 1.259 . S
C960 O971 1.270 . S
C961 O972 1.251 . S
C961 O973 1.251 . S
O962 C942 1.257 . S
O962 Eu943 2.473 . S
O963 C942 1.260 . S
O963 Eu943 2.480 . S
O964 Eu943 2.430 . S
O964 C950 1.259 . S
O965 Eu943 2.670 . S
O965 C950 1.270 . S
O965 Eu953 2.355 . S
O966 Eu943 2.394 . S
O966 C951 1.251 . S
O967 C951 1.251 . S
O967 Eu953 2.374 . S
O968 C952 1.257 . S
O968 Eu953 2.473 . S
O969 C952 1.260 . S
O969 Eu953 2.480 . S
O970 Eu953 2.430 . S
O970 C960 1.259 . S
O971 Eu943 2.355 . S
O971 Eu953 2.670 . S
O971 C960 1.270 . S
O972 Eu953 2.394 . S
O972 C961 1.251 . S
O973 Eu943 2.374 . S
O973 C961 1.251 . S
H974 C945 0.931 . S
H975 C946 0.931 . S
H976 C948 0.931 . S
H977 C949 0.931 . S
H978 C955 0.931 . S
H979 C956 0.931 . S
H980 C958 0.931 . S
H981 C959 0.931 . S
C982 Eu983 2.835 . S
C982 C984 1.500 . S
C982 O1002 1.257 . S
C982 O1003 1.260 . S
Eu983 C982 2.835 . S
Eu983 O1002 2.473 . S
Eu983 O1003 2.480 . S
Eu983 O1004 2.430 . S
Eu983 O1005 2.670 . S
Eu983 O1006 2.394 . S
Eu983 O1011 2.355 . S
Eu983 O1013 2.374 . S
C984 C982 1.500 . S
C984 C985 1.377 . S
C984 C989 1.377 . S
C985 C984 1.377 . S
C985 C986 1.395 . S
C985 H1014 0.931 . S
C986 C985 1.395 . S
C986 C987 1.383 . S
C986 H1015 0.931 . S
C987 C986 1.383 . S
C987 C988 1.394 . S
C988 C987 1.394 . S
C988 C989 1.378 . S
C988 H1016 0.931 . S
C989 C984 1.377 . S
C989 C988 1.378 . S
C989 H1017 0.931 . S
C990 O1004 1.259 . S
C990 O1005 1.270 . S
C991 O1006 1.251 . S
C991 O1007 1.251 . S
C992 Eu993 2.835 . S
C992 C994 1.500 . S
C992 O1008 1.257 . S
C992 O1009 1.260 . S
Eu993 C992 2.835 . S
Eu993 O1005 2.355 . S
Eu993 O1007 2.374 . S
Eu993 O1008 2.473 . S
Eu993 O1009 2.480 . S
Eu993 O1010 2.430 . S
Eu993 O1011 2.670 . S
Eu993 O1012 2.394 . S
C994 C992 1.500 . S
C994 C995 1.377 . S
C994 C999 1.377 . S
C995 C994 1.377 . S
C995 C996 1.395 . S
C995 H1018 0.931 . S
C996 C995 1.395 . S
C996 C997 1.383 . S
C996 H1019 0.931 . S
C997 C996 1.383 . S
C997 C998 1.394 . S
C998 C997 1.394 . S
C998 C999 1.378 . S
C998 H1020 0.931 . S
C999 C994 1.377 . S
C999 C998 1.378 . S
C999 H1021 0.931 . S
C1000 O1010 1.259 . S
C1000 O1011 1.270 . S
C1001 O1012 1.251 . S
C1001 O1013 1.251 . S
O1002 C982 1.257 . S
O1002 Eu983 2.473 . S
O1003 C982 1.260 . S
O1003 Eu983 2.480 . S
O1004 Eu983 2.430 . S
O1004 C990 1.259 . S
O1005 Eu983 2.670 . S
O1005 C990 1.270 . S
O1005 Eu993 2.355 . S
O1006 Eu983 2.394 . S
O1006 C991 1.251 . S
O1007 C991 1.251 . S
O1007 Eu993 2.374 . S
O1008 C992 1.257 . S
O1008 Eu993 2.473 . S
O1009 C992 1.260 . S
O1009 Eu993 2.480 . S
O1010 Eu993 2.430 . S
O1010 C1000 1.259 . S
O1011 Eu983 2.355 . S
O1011 Eu993 2.670 . S
O1011 C1000 1.270 . S
O1012 Eu993 2.394 . S
O1012 C1001 1.251 . S
O1013 Eu983 2.374 . S
O1013 C1001 1.251 . S
H1014 C985 0.931 . S
H1015 C986 0.931 . S
H1016 C988 0.931 . S
H1017 C989 0.931 . S
H1018 C995 0.931 . S
H1019 C996 0.931 . S
H1020 C998 0.931 . S
H1021 C999 0.931 . S
C1022 Eu1023 2.835 . S
C1022 C1024 1.500 . S
C1022 O1042 1.257 . S
C1022 O1043 1.260 . S
Eu1023 C1022 2.835 . S
Eu1023 O1042 2.473 . S
Eu1023 O1043 2.480 . S
Eu1023 O1044 2.430 . S
Eu1023 O1045 2.670 . S
Eu1023 O1046 2.394 . S
Eu1023 O1051 2.355 . S
Eu1023 O1053 2.374 . S
C1024 C1022 1.500 . S
C1024 C1025 1.377 . S
C1024 C1029 1.377 . S
C1025 C1024 1.377 . S
C1025 C1026 1.395 . S
C1025 H1054 0.931 . S
C1026 C1025 1.395 . S
C1026 C1027 1.383 . S
C1026 H1055 0.931 . S
C1027 C1026 1.383 . S
C1027 C1028 1.394 . S
C1028 C1027 1.394 . S
C1028 C1029 1.378 . S
C1028 H1056 0.931 . S
C1029 C1024 1.377 . S
C1029 C1028 1.378 . S
C1029 H1057 0.931 . S
C1030 O1044 1.259 . S
C1030 O1045 1.270 . S
C1031 O1046 1.251 . S
C1031 O1047 1.251 . S
C1032 Eu1033 2.835 . S
C1032 C1034 1.500 . S
C1032 O1048 1.257 . S
C1032 O1049 1.260 . S
Eu1033 C1032 2.835 . S
Eu1033 O1045 2.355 . S
Eu1033 O1047 2.374 . S
Eu1033 O1048 2.473 . S
Eu1033 O1049 2.480 . S
Eu1033 O1050 2.430 . S
Eu1033 O1051 2.670 . S
Eu1033 O1052 2.394 . S
C1034 C1032 1.500 . S
C1034 C1035 1.377 . S
C1034 C1039 1.377 . S
C1035 C1034 1.377 . S
C1035 C1036 1.395 . S
C1035 H1058 0.931 . S
C1036 C1035 1.395 . S
C1036 C1037 1.383 . S
C1036 H1059 0.931 . S
C1037 C1036 1.383 . S
C1037 C1038 1.394 . S
C1038 C1037 1.394 . S
C1038 C1039 1.378 . S
C1038 H1060 0.931 . S
C1039 C1034 1.377 . S
C1039 C1038 1.378 . S
C1039 H1061 0.931 . S
C1040 O1050 1.259 . S
C1040 O1051 1.270 . S
C1041 O1052 1.251 . S
C1041 O1053 1.251 . S
O1042 C1022 1.257 . S
O1042 Eu1023 2.473 . S
O1043 C1022 1.260 . S
O1043 Eu1023 2.480 . S
O1044 Eu1023 2.430 . S
O1044 C1030 1.259 . S
O1045 Eu1023 2.670 . S
O1045 C1030 1.270 . S
O1045 Eu1033 2.355 . S
O1046 Eu1023 2.394 . S
O1046 C1031 1.251 . S
O1047 C1031 1.251 . S
O1047 Eu1033 2.374 . S
O1048 C1032 1.257 . S
O1048 Eu1033 2.473 . S
O1049 C1032 1.260 . S
O1049 Eu1033 2.480 . S
O1050 Eu1033 2.430 . S
O1050 C1040 1.259 . S
O1051 Eu1023 2.355 . S
O1051 Eu1033 2.670 . S
O1051 C1040 1.270 . S
O1052 Eu1033 2.394 . S
O1052 C1041 1.251 . S
O1053 Eu1023 2.374 . S
O1053 C1041 1.251 . S
H1054 C1025 0.931 . S
H1055 C1026 0.931 . S
H1056 C1028 0.931 . S
H1057 C1029 0.931 . S
H1058 C1035 0.931 . S
H1059 C1036 0.931 . S
H1060 C1038 0.931 . S
H1061 C1039 0.931 . S
C1062 C1063 1.369 . S
C1062 C1064 1.419 . S
C1062 H1066 0.930 . S
C1063 C1062 1.369 . S
C1063 C1072 1.429 . S
C1064 C1062 1.419 . S
C1064 C1065 1.363 . S
C1064 H1067 0.929 . S
C1065 C1064 1.363 . S
C1065 C1071 1.428 . S
H1066 C1062 0.930 . S
H1067 C1064 0.929 . S
S1068 N1069 1.613 . S
S1068 N1070 1.610 . S
N1069 S1068 1.613 . S
N1069 C1072 1.350 . S
N1070 S1068 1.610 . S
N1070 C1071 1.351 . S
C1071 C1065 1.428 . S
C1071 N1070 1.351 . S
C1071 C1072 1.434 . S
C1072 C1063 1.429 . S
C1072 N1069 1.350 . S
C1072 C1071 1.434 . S
C1073 C1074 1.369 . S
C1073 C1075 1.419 . S
C1073 H1077 0.930 . S
C1074 C1073 1.369 . S
C1074 C1083 1.429 . S
C1075 C1073 1.419 . S
C1075 C1076 1.363 . S
C1075 H1078 0.929 . S
C1076 C1075 1.363 . S
C1076 C1082 1.428 . S
H1077 C1073 0.930 . S
H1078 C1075 0.929 . S
S1079 N1080 1.613 . S
S1079 N1081 1.610 . S
N1080 S1079 1.613 . S
N1080 C1083 1.350 . S
N1081 S1079 1.610 . S
N1081 C1082 1.351 . S
C1082 C1076 1.428 . S
C1082 N1081 1.351 . S
C1082 C1083 1.434 . S
C1083 C1074 1.429 . S
C1083 N1080 1.350 . S
C1083 C1082 1.434 . S
C1084 C1085 1.369 . S
C1084 C1086 1.419 . S
C1084 H1088 0.930 . S
C1085 C1084 1.369 . S
C1085 C1094 1.429 . S
C1086 C1084 1.419 . S
C1086 C1087 1.363 . S
C1086 H1089 0.929 . S
C1087 C1086 1.363 . S
C1087 C1093 1.428 . S
H1088 C1084 0.930 . S
H1089 C1086 0.929 . S
S1090 N1091 1.613 . S
S1090 N1092 1.610 . S
N1091 S1090 1.613 . S
N1091 C1094 1.350 . S
N1092 S1090 1.610 . S
N1092 C1093 1.351 . S
C1093 C1087 1.428 . S
C1093 N1092 1.351 . S
C1093 C1094 1.434 . S
C1094 C1085 1.429 . S
C1094 N1091 1.350 . S
C1094 C1093 1.434 . S
C1095 C1096 1.369 . S
C1095 C1097 1.419 . S
C1095 H1099 0.930 . S
C1096 C1095 1.369 . S
C1096 C1105 1.429 . S
C1097 C1095 1.419 . S
C1097 C1098 1.363 . S
C1097 H1100 0.929 . S
C1098 C1097 1.363 . S
C1098 C1104 1.428 . S
H1099 C1095 0.930 . S
H1100 C1097 0.929 . S
S1101 N1102 1.613 . S
S1101 N1103 1.610 . S
N1102 S1101 1.613 . S
N1102 C1105 1.350 . S
N1103 S1101 1.610 . S
N1103 C1104 1.351 . S
C1104 C1098 1.428 . S
C1104 N1103 1.351 . S
C1104 C1105 1.434 . S
C1105 C1096 1.429 . S
C1105 N1102 1.350 . S
C1105 C1104 1.434 . S
C1106 C1107 1.369 . S
C1106 C1108 1.419 . S
C1106 H1110 0.930 . S
C1107 C1106 1.369 . S
C1107 C1116 1.429 . S
C1108 C1106 1.419 . S
C1108 C1109 1.363 . S
C1108 H1111 0.929 . S
C1109 C1108 1.363 . S
C1109 C1115 1.428 . S
H1110 C1106 0.930 . S
H1111 C1108 0.929 . S
S1112 N1113 1.613 . S
S1112 N1114 1.610 . S
N1113 S1112 1.613 . S
N1113 C1116 1.350 . S
N1114 S1112 1.610 . S
N1114 C1115 1.351 . S
C1115 C1109 1.428 . S
C1115 N1114 1.351 . S
C1115 C1116 1.434 . S
C1116 C1107 1.429 . S
C1116 N1113 1.350 . S
C1116 C1115 1.434 . S
C1117 C1118 1.369 . S
C1117 C1119 1.419 . S
C1117 H1121 0.930 . S
C1118 C1117 1.369 . S
C1118 C1127 1.429 . S
C1119 C1117 1.419 . S
C1119 C1120 1.363 . S
C1119 H1122 0.929 . S
C1120 C1119 1.363 . S
C1120 C1126 1.428 . S
H1121 C1117 0.930 . S
H1122 C1119 0.929 . S
S1123 N1124 1.613 1_565 S
S1123 N1125 1.610 . S
N1124 S1123 1.613 1_545 S
N1124 C1127 1.350 . S
N1125 S1123 1.610 . S
N1125 C1126 1.351 1_565 S
C1126 C1120 1.428 . S
C1126 N1125 1.351 1_545 S
C1126 C1127 1.434 . S
C1127 C1118 1.429 . S
C1127 N1124 1.350 . S
C1127 C1126 1.434 . S
C1128 C1129 1.369 . S
C1128 C1130 1.419 . S
C1128 H1132 0.930 . S
C1129 C1128 1.369 . S
C1129 C1138 1.429 . S
C1130 C1128 1.419 . S
C1130 C1131 1.363 . S
C1130 H1133 0.929 . S
C1131 C1130 1.363 . S
C1131 C1137 1.428 . S
H1132 C1128 0.930 . S
H1133 C1130 0.929 . S
S1134 N1135 1.613 1_554 S
S1134 N1136 1.610 . S
N1135 S1134 1.613 1_556 S
N1135 C1138 1.350 . S
N1136 S1134 1.610 . S
N1136 C1137 1.351 1_554 S
C1137 C1131 1.428 . S
C1137 N1136 1.351 1_556 S
C1137 C1138 1.434 . S
C1138 C1129 1.429 . S
C1138 N1135 1.350 . S
C1138 C1137 1.434 . S
C1139 C1140 1.369 . S
C1139 C1141 1.419 . S
C1139 H1143 0.930 . S
C1140 C1139 1.369 . S
C1140 C1149 1.429 . S
C1141 C1139 1.419 . S
C1141 C1142 1.363 . S
C1141 H1144 0.929 1_556 S
C1142 C1141 1.363 . S
C1142 C1148 1.428 . S
H1143 C1139 0.930 . S
H1144 C1141 0.929 1_554 S
S1145 N1146 1.613 . S
S1145 N1147 1.610 . S
N1146 S1145 1.613 . S
N1146 C1149 1.350 . S
N1147 S1145 1.610 . S
N1147 C1148 1.351 . S
C1148 C1142 1.428 . S
C1148 N1147 1.351 . S
C1148 C1149 1.434 . S
C1149 C1140 1.429 . S
C1149 N1146 1.350 . S
C1149 C1148 1.434 . S
C1150 C1151 1.369 . S
C1150 C1152 1.419 . S
C1150 H1154 0.930 . S
C1151 C1150 1.369 . S
C1151 C1160 1.429 1_556 S
C1152 C1150 1.419 . S
C1152 C1153 1.363 . S
C1152 H1155 0.929 . S
C1153 C1152 1.363 . S
C1153 C1159 1.428 1_556 S
H1154 C1150 0.930 . S
H1155 C1152 0.929 . S
S1156 N1157 1.613 . S
S1156 N1158 1.610 . S
N1157 S1156 1.613 . S
N1157 C1160 1.350 . S
N1158 S1156 1.610 . S
N1158 C1159 1.351 . S
C1159 C1153 1.428 1_554 S
C1159 N1158 1.351 . S
C1159 C1160 1.434 . S
C1160 C1151 1.429 1_554 S
C1160 N1157 1.350 . S
C1160 C1159 1.434 . S
C1161 C1162 1.369 . S
C1161 C1163 1.419 . S
C1161 H1165 0.930 . S
C1162 C1161 1.369 . S
C1162 C1171 1.429 . S
C1163 C1161 1.419 . S
C1163 C1164 1.363 . S
C1163 H1166 0.929 . S
C1164 C1163 1.363 . S
C1164 C1170 1.428 . S
H1165 C1161 0.930 . S
H1166 C1163 0.929 . S
S1167 N1168 1.613 . S
S1167 N1169 1.610 . S
N1168 S1167 1.613 . S
N1168 C1171 1.350 . S
N1169 S1167 1.610 . S
N1169 C1170 1.351 . S
C1170 C1164 1.428 . S
C1170 N1169 1.351 . S
C1170 C1171 1.434 . S
C1171 C1162 1.429 . S
C1171 N1168 1.350 . S
C1171 C1170 1.434 . S
C1172 C1173 1.369 . S
C1172 C1174 1.419 . S
C1172 H1176 0.930 . S
C1173 C1172 1.369 . S
C1173 C1182 1.429 . S
C1174 C1172 1.419 . S
C1174 C1175 1.363 . S
C1174 H1177 0.929 . S
C1175 C1174 1.363 . S
C1175 C1181 1.428 . S
H1176 C1172 0.930 . S
H1177 C1174 0.929 . S
S1178 N1179 1.613 . S
S1178 N1180 1.610 . S
N1179 S1178 1.613 . S
N1179 C1182 1.350 . S
N1180 S1178 1.610 . S
N1180 C1181 1.351 . S
C1181 C1175 1.428 . S
C1181 N1180 1.351 . S
C1181 C1182 1.434 . S
C1182 C1173 1.429 . S
C1182 N1179 1.350 . S
C1182 C1181 1.434 . S
C1183 C1184 1.369 . S
C1183 C1185 1.419 . S
C1183 H1187 0.930 . S
C1184 C1183 1.369 . S
C1184 C1193 1.429 . S
C1185 C1183 1.419 . S
C1185 C1186 1.363 . S
C1185 H1188 0.929 1_554 S
C1186 C1185 1.363 . S
C1186 C1192 1.428 . S
H1187 C1183 0.930 . S
H1188 C1185 0.929 1_556 S
S1189 N1190 1.613 1_545 S
S1189 N1191 1.610 1_545 S
N1190 S1189 1.613 1_565 S
N1190 C1193 1.350 . S
N1191 S1189 1.610 1_565 S
N1191 C1192 1.351 . S
C1192 C1186 1.428 . S
C1192 N1191 1.351 . S
C1192 C1193 1.434 . S
C1193 C1184 1.429 . S
C1193 N1190 1.350 . S
C1193 C1192 1.434 . S
C1194 C1195 1.369 . S
C1194 C1196 1.419 . S
C1194 H1198 0.930 . S
C1195 C1194 1.369 . S
C1195 C1204 1.429 . S
C1196 C1194 1.419 . S
C1196 C1197 1.363 . S
C1196 H1199 0.929 . S
C1197 C1196 1.363 . S
C1197 C1203 1.428 . S
H1198 C1194 0.930 . S
H1199 C1196 0.929 . S
S1200 N1201 1.613 1_455 S
S1200 N1202 1.610 . S
N1201 S1200 1.613 1_655 S
N1201 C1204 1.350 1_655 S
N1202 S1200 1.610 . S
N1202 C1203 1.351 . S
C1203 C1197 1.428 . S
C1203 N1202 1.351 . S
C1203 C1204 1.434 . S
C1204 C1195 1.429 . S
C1204 N1201 1.350 1_455 S
C1204 C1203 1.434 . S
C1205 C1206 1.369 . S
C1205 C1207 1.419 . S
C1205 H1209 0.930 . S
C1206 C1205 1.369 . S
C1206 C1215 1.429 . S
C1207 C1205 1.419 . S
C1207 C1208 1.363 . S
C1207 H1210 0.929 . S
C1208 C1207 1.363 . S
C1208 C1214 1.428 . S
H1209 C1205 0.930 . S
H1210 C1207 0.929 . S
S1211 N1212 1.613 . S
S1211 N1213 1.610 . S
N1212 S1211 1.613 . S
N1212 C1215 1.350 . S
N1213 S1211 1.610 . S
N1213 C1214 1.351 . S
C1214 C1208 1.428 . S
C1214 N1213 1.351 . S
C1214 C1215 1.434 . S
C1215 C1206 1.429 . S
C1215 N1212 1.350 . S
C1215 C1214 1.434 . S
C1216 C1217 1.369 1_565 S
C1216 C1218 1.419 . S
C1216 H1220 0.930 . S
C1217 C1216 1.369 1_545 S
C1217 C1226 1.429 1_545 S
C1218 C1216 1.419 . S
C1218 C1219 1.363 . S
C1218 H1221 0.929 . S
C1219 C1218 1.363 . S
C1219 C1225 1.428 . S
H1220 C1216 0.930 . S
H1221 C1218 0.929 . S
S1222 N1223 1.613 1_565 S
S1222 N1224 1.610 . S
N1223 S1222 1.613 1_545 S
N1223 C1226 1.350 1_545 S
N1224 S1222 1.610 . S
N1224 C1225 1.351 . S
C1225 C1219 1.428 . S
C1225 N1224 1.351 . S
C1225 C1226 1.434 . S
C1226 C1217 1.429 1_565 S
C1226 N1223 1.350 1_565 S
C1226 C1225 1.434 . S
C1227 C1228 1.369 . S
C1227 C1229 1.419 . S
C1227 H1231 0.930 . S
C1228 C1227 1.369 . S
C1228 C1237 1.429 . S
C1229 C1227 1.419 . S
C1229 C1230 1.363 . S
C1229 H1232 0.929 . S
C1230 C1229 1.363 . S
C1230 C1236 1.428 . S
H1231 C1227 0.930 . S
H1232 C1229 0.929 . S
S1233 N1234 1.613 . S
S1233 N1235 1.610 . S
N1234 S1233 1.613 . S
N1234 C1237 1.350 . S
N1235 S1233 1.610 . S
N1235 C1236 1.351 . S
C1236 C1230 1.428 . S
C1236 N1235 1.351 . S
C1236 C1237 1.434 . S
C1237 C1228 1.429 . S
C1237 N1234 1.350 . S
C1237 C1236 1.434 . S
C1238 C1239 1.369 . S
C1238 C1240 1.419 . S
C1238 H1242 0.930 . S
C1239 C1238 1.369 . S
C1239 C1248 1.429 . S
C1240 C1238 1.419 . S
C1240 C1241 1.363 . S
C1240 H1243 0.929 . S
C1241 C1240 1.363 . S
C1241 C1247 1.428 . S
H1242 C1238 0.930 . S
H1243 C1240 0.929 . S
S1244 N1245 1.613 . S
S1244 N1246 1.610 . S
N1245 S1244 1.613 . S
N1245 C1248 1.350 . S
N1246 S1244 1.610 . S
N1246 C1247 1.351 . S
C1247 C1241 1.428 . S
C1247 N1246 1.351 . S
C1247 C1248 1.434 . S
C1248 C1239 1.429 . S
C1248 N1245 1.350 . S
C1248 C1247 1.434 . S
C1249 C1250 1.369 . S
C1249 C1251 1.419 . S
C1249 H1253 0.930 . S
C1250 C1249 1.369 . S
C1250 C1259 1.429 . S
C1251 C1249 1.419 . S
C1251 C1252 1.363 . S
C1251 H1254 0.929 . S
C1252 C1251 1.363 . S
C1252 C1258 1.428 . S
H1253 C1249 0.930 . S
H1254 C1251 0.929 . S
S1255 N1256 1.613 . S
S1255 N1257 1.610 . S
N1256 S1255 1.613 . S
N1256 C1259 1.350 . S
N1257 S1255 1.610 . S
N1257 C1258 1.351 . S
C1258 C1252 1.428 . S
C1258 N1257 1.351 . S
C1258 C1259 1.434 . S
C1259 C1250 1.429 . S
C1259 N1256 1.350 . S
C1259 C1258 1.434 . S
C1260 C1261 1.369 . S
C1260 C1262 1.419 . S
C1260 H1264 0.930 . S
C1261 C1260 1.369 . S
C1261 C1270 1.429 . S
C1262 C1260 1.419 . S
C1262 C1263 1.363 . S
C1262 H1265 0.929 . S
C1263 C1262 1.363 . S
C1263 C1269 1.428 . S
H1264 C1260 0.930 . S
H1265 C1262 0.929 . S
S1266 N1267 1.613 . S
S1266 N1268 1.610 . S
N1267 S1266 1.613 . S
N1267 C1270 1.350 . S
N1268 S1266 1.610 . S
N1268 C1269 1.351 . S
C1269 C1263 1.428 . S
C1269 N1268 1.351 . S
C1269 C1270 1.434 . S
C1270 C1261 1.429 . S
C1270 N1267 1.350 . S
C1270 C1269 1.434 . S
C1271 C1272 1.369 . S
C1271 C1273 1.419 . S
C1271 H1275 0.930 . S
C1272 C1271 1.369 . S
C1272 C1281 1.429 . S
C1273 C1271 1.419 . S
C1273 C1274 1.363 . S
C1273 H1276 0.929 . S
C1274 C1273 1.363 . S
C1274 C1280 1.428 . S
H1275 C1271 0.930 . S
H1276 C1273 0.929 . S
S1277 N1278 1.613 . S
S1277 N1279 1.610 . S
N1278 S1277 1.613 . S
N1278 C1281 1.350 . S
N1279 S1277 1.610 . S
N1279 C1280 1.351 . S
C1280 C1274 1.428 . S
C1280 N1279 1.351 . S
C1280 C1281 1.434 . S
C1281 C1272 1.429 . S
C1281 N1278 1.350 . S
C1281 C1280 1.434 . S
C1282 C1283 1.369 . S
C1282 C1284 1.419 . S
C1282 H1286 0.930 . S
C1283 C1282 1.369 . S
C1283 C1292 1.429 . S
C1284 C1282 1.419 . S
C1284 C1285 1.363 . S
C1284 H1287 0.929 . S
C1285 C1284 1.363 . S
C1285 C1291 1.428 . S
H1286 C1282 0.930 . S
H1287 C1284 0.929 . S
S1288 N1289 1.613 . S
S1288 N1290 1.610 . S
N1289 S1288 1.613 . S
N1289 C1292 1.350 . S
N1290 S1288 1.610 . S
N1290 C1291 1.351 . S
C1291 C1285 1.428 . S
C1291 N1290 1.351 . S
C1291 C1292 1.434 . S
C1292 C1283 1.429 . S
C1292 N1289 1.350 . S
C1292 C1291 1.434 . S
C1293 C1294 1.369 . S
C1293 C1295 1.419 . S
C1293 H1297 0.930 . S
C1294 C1293 1.369 . S
C1294 C1303 1.429 . S
C1295 C1293 1.419 . S
C1295 C1296 1.363 . S
C1295 H1298 0.929 . S
C1296 C1295 1.363 . S
C1296 C1302 1.428 . S
H1297 C1293 0.930 . S
H1298 C1295 0.929 . S
S1299 N1300 1.613 . S
S1299 N1301 1.610 . S
N1300 S1299 1.613 . S
N1300 C1303 1.350 . S
N1301 S1299 1.610 . S
N1301 C1302 1.351 . S
C1302 C1296 1.428 . S
C1302 N1301 1.351 . S
C1302 C1303 1.434 . S
C1303 C1294 1.429 . S
C1303 N1300 1.350 . S
C1303 C1302 1.434 . S
C1304 C1305 1.369 . S
C1304 C1306 1.419 . S
C1304 H1308 0.930 . S
C1305 C1304 1.369 . S
C1305 C1314 1.429 . S
C1306 C1304 1.419 . S
C1306 C1307 1.363 . S
C1306 H1309 0.929 . S
C1307 C1306 1.363 . S
C1307 C1313 1.428 . S
H1308 C1304 0.930 . S
H1309 C1306 0.929 . S
S1310 N1311 1.613 . S
S1310 N1312 1.610 . S
N1311 S1310 1.613 . S
N1311 C1314 1.350 . S
N1312 S1310 1.610 . S
N1312 C1313 1.351 . S
C1313 C1307 1.428 . S
C1313 N1312 1.351 . S
C1313 C1314 1.434 . S
C1314 C1305 1.429 . S
C1314 N1311 1.350 . S
C1314 C1313 1.434 . S
C1315 C1316 1.369 . S
C1315 C1317 1.419 . S
C1315 H1319 0.930 . S
C1316 C1315 1.369 . S
C1316 C1325 1.429 . S
C1317 C1315 1.419 . S
C1317 C1318 1.363 . S
C1317 H1320 0.929 . S
C1318 C1317 1.363 . S
C1318 C1324 1.428 . S
H1319 C1315 0.930 . S
H1320 C1317 0.929 . S
S1321 N1322 1.613 . S
S1321 N1323 1.610 . S
N1322 S1321 1.613 . S
N1322 C1325 1.350 . S
N1323 S1321 1.610 . S
N1323 C1324 1.351 . S
C1324 C1318 1.428 . S
C1324 N1323 1.351 . S
C1324 C1325 1.434 . S
C1325 C1316 1.429 . S
C1325 N1322 1.350 . S
C1325 C1324 1.434 . S
C1326 C1327 1.369 . S
C1326 C1328 1.419 . S
C1326 H1330 0.930 . S
C1327 C1326 1.369 . S
C1327 C1336 1.429 . S
C1328 C1326 1.419 . S
C1328 C1329 1.363 . S
C1328 H1331 0.929 . S
C1329 C1328 1.363 . S
C1329 C1335 1.428 . S
H1330 C1326 0.930 . S
H1331 C1328 0.929 . S
S1332 N1333 1.613 . S
S1332 N1334 1.610 . S
N1333 S1332 1.613 . S
N1333 C1336 1.350 . S
N1334 S1332 1.610 . S
N1334 C1335 1.351 . S
C1335 C1329 1.428 . S
C1335 N1334 1.351 . S
C1335 C1336 1.434 . S
C1336 C1327 1.429 . S
C1336 N1333 1.350 . S
C1336 C1335 1.434 . S
C1337 C1338 1.369 . S
C1337 C1339 1.419 . S
C1337 H1341 0.930 . S
C1338 C1337 1.369 . S
C1338 C1347 1.429 . S
C1339 C1337 1.419 . S
C1339 C1340 1.363 . S
C1339 H1342 0.929 . S
C1340 C1339 1.363 . S
C1340 C1346 1.428 . S
H1341 C1337 0.930 . S
H1342 C1339 0.929 . S
S1343 N1344 1.613 . S
S1343 N1345 1.610 . S
N1344 S1343 1.613 . S
N1344 C1347 1.350 . S
N1345 S1343 1.610 . S
N1345 C1346 1.351 . S
C1346 C1340 1.428 . S
C1346 N1345 1.351 . S
C1346 C1347 1.434 . S
C1347 C1338 1.429 . S
C1347 N1344 1.350 . S
C1347 C1346 1.434 . S
C1348 C1349 1.369 . S
C1348 C1350 1.419 . S
C1348 H1352 0.930 . S
C1349 C1348 1.369 . S
C1349 C1358 1.429 . S
C1350 C1348 1.419 . S
C1350 C1351 1.363 . S
C1350 H1353 0.929 . S
C1351 C1350 1.363 . S
C1351 C1357 1.428 . S
H1352 C1348 0.930 . S
H1353 C1350 0.929 . S
S1354 N1355 1.613 . S
S1354 N1356 1.610 . S
N1355 S1354 1.613 . S
N1355 C1358 1.350 . S
N1356 S1354 1.610 . S
N1356 C1357 1.351 . S
C1357 C1351 1.428 . S
C1357 N1356 1.351 . S
C1357 C1358 1.434 . S
C1358 C1349 1.429 . S
C1358 N1355 1.350 . S
C1358 C1357 1.434 . S
C1359 C1360 1.369 . S
C1359 C1361 1.419 . S
C1359 H1363 0.930 . S
C1360 C1359 1.369 . S
C1360 C1369 1.429 . S
C1361 C1359 1.419 . S
C1361 C1362 1.363 . S
C1361 H1364 0.929 . S
C1362 C1361 1.363 . S
C1362 C1368 1.428 . S
H1363 C1359 0.930 . S
H1364 C1361 0.929 . S
S1365 N1366 1.613 . S
S1365 N1367 1.610 . S
N1366 S1365 1.613 . S
N1366 C1369 1.350 . S
N1367 S1365 1.610 . S
N1367 C1368 1.351 . S
C1368 C1362 1.428 . S
C1368 N1367 1.351 . S
C1368 C1369 1.434 . S
C1369 C1360 1.429 . S
C1369 N1366 1.350 . S
C1369 C1368 1.434 . S
C1370 C1371 1.369 . S
C1370 C1372 1.419 . S
C1370 H1374 0.930 . S
C1371 C1370 1.369 . S
C1371 C1380 1.429 . S
C1372 C1370 1.419 . S
C1372 C1373 1.363 . S
C1372 H1375 0.929 . S
C1373 C1372 1.363 . S
C1373 C1379 1.428 . S
H1374 C1370 0.930 . S
H1375 C1372 0.929 . S
S1376 N1377 1.613 . S
S1376 N1378 1.610 . S
N1377 S1376 1.613 . S
N1377 C1380 1.350 . S
N1378 S1376 1.610 . S
N1378 C1379 1.351 . S
C1379 C1373 1.428 . S
C1379 N1378 1.351 . S
C1379 C1380 1.434 . S
C1380 C1371 1.429 . S
C1380 N1377 1.350 . S
C1380 C1379 1.434 . S
C1381 C1382 1.369 . S
C1381 C1383 1.419 . S
C1381 H1385 0.930 . S
C1382 C1381 1.369 . S
C1382 C1391 1.429 . S
C1383 C1381 1.419 . S
C1383 C1384 1.363 . S
C1383 H1386 0.929 . S
C1384 C1383 1.363 . S
C1384 C1390 1.428 . S
H1385 C1381 0.930 . S
H1386 C1383 0.929 . S
S1387 N1388 1.613 . S
S1387 N1389 1.610 . S
N1388 S1387 1.613 . S
N1388 C1391 1.350 . S
N1389 S1387 1.610 . S
N1389 C1390 1.351 . S
C1390 C1384 1.428 . S
C1390 N1389 1.351 . S
C1390 C1391 1.434 . S
C1391 C1382 1.429 . S
C1391 N1388 1.350 . S
C1391 C1390 1.434 . S
C1392 C1393 1.369 . S
C1392 C1394 1.419 . S
C1392 H1396 0.930 . S
C1393 C1392 1.369 . S
C1393 C1402 1.429 . S
C1394 C1392 1.419 . S
C1394 C1395 1.363 . S
C1394 H1397 0.929 . S
C1395 C1394 1.363 . S
C1395 C1401 1.428 . S
H1396 C1392 0.930 . S
H1397 C1394 0.929 . S
S1398 N1399 1.613 . S
S1398 N1400 1.610 . S
N1399 S1398 1.613 . S
N1399 C1402 1.350 . S
N1400 S1398 1.610 . S
N1400 C1401 1.351 . S
C1401 C1395 1.428 . S
C1401 N1400 1.351 . S
C1401 C1402 1.434 . S
C1402 C1393 1.429 . S
C1402 N1399 1.350 . S
C1402 C1401 1.434 . S
C1403 C1404 1.369 . S
C1403 C1405 1.419 . S
C1403 H1407 0.930 . S
C1404 C1403 1.369 . S
C1404 C1413 1.429 . S
C1405 C1403 1.419 . S
C1405 C1406 1.363 . S
C1405 H1408 0.929 . S
C1406 C1405 1.363 . S
C1406 C1412 1.428 . S
H1407 C1403 0.930 . S
H1408 C1405 0.929 . S
S1409 N1410 1.613 . S
S1409 N1411 1.610 . S
N1410 S1409 1.613 . S
N1410 C1413 1.350 . S
N1411 S1409 1.610 . S
N1411 C1412 1.351 . S
C1412 C1406 1.428 . S
C1412 N1411 1.351 . S
C1412 C1413 1.434 . S
C1413 C1404 1.429 . S
C1413 N1410 1.350 . S
C1413 C1412 1.434 . S
C1414 C1415 1.369 1_545 S
C1414 C1416 1.419 . S
C1414 H1418 0.930 . S
C1415 C1414 1.369 1_565 S
C1415 C1424 1.429 1_565 S
C1416 C1414 1.419 . S
C1416 C1417 1.363 . S
C1416 H1419 0.929 . S
C1417 C1416 1.363 . S
C1417 C1423 1.428 . S
H1418 C1414 0.930 . S
H1419 C1416 0.929 . S
S1420 N1421 1.611 1_545 S
S1420 N1422 1.610 . S
N1421 S1420 1.611 1_565 S
N1421 C1424 1.349 1_565 S
N1422 S1420 1.610 . S
N1422 C1423 1.351 . S
C1423 C1417 1.428 . S
C1423 N1422 1.351 . S
C1423 C1424 1.434 . S
C1424 C1415 1.429 1_545 S
C1424 N1421 1.349 1_545 S
C1424 C1423 1.434 . S
C1425 C1426 1.369 . S
C1425 C1427 1.419 . S
C1425 H1429 0.930 . S
C1426 C1425 1.369 . S
C1426 C1435 1.429 . S
C1427 C1425 1.419 . S
C1427 C1428 1.363 . S
C1427 H1430 0.929 . S
C1428 C1427 1.363 . S
C1428 C1434 1.428 . S
H1429 C1425 0.930 . S
H1430 C1427 0.929 . S
S1431 N1432 1.613 . S
S1431 N1433 1.610 . S
N1432 S1431 1.613 . S
N1432 C1435 1.350 . S
N1433 S1431 1.610 . S
N1433 C1434 1.351 . S
C1434 C1428 1.428 . S
C1434 N1433 1.351 . S
C1434 C1435 1.434 . S
C1435 C1426 1.429 . S
C1435 N1432 1.350 . S
C1435 C1434 1.434 . S
C1436 C1437 1.369 . S
C1436 C1438 1.419 . S
C1436 H1440 0.930 . S
C1437 C1436 1.369 . S
C1437 C1446 1.429 . S
C1438 C1436 1.419 . S
C1438 C1439 1.363 . S
C1438 H1441 0.929 . S
C1439 C1438 1.363 . S
C1439 C1445 1.428 . S
H1440 C1436 0.930 . S
H1441 C1438 0.929 . S
S1442 N1443 1.613 . S
S1442 N1444 1.610 . S
N1443 S1442 1.613 . S
N1443 C1446 1.350 . S
N1444 S1442 1.610 . S
N1444 C1445 1.351 . S
C1445 C1439 1.428 . S
C1445 N1444 1.351 . S
C1445 C1446 1.434 . S
C1446 C1437 1.429 . S
C1446 N1443 1.350 . S
C1446 C1445 1.434 . S
C1447 C1448 1.369 . S
C1447 C1449 1.419 . S
C1447 H1451 0.930 . S
C1448 C1447 1.369 . S
C1448 C1457 1.429 . S
C1449 C1447 1.419 . S
C1449 C1450 1.363 . S
C1449 H1452 0.929 . S
C1450 C1449 1.363 . S
C1450 C1456 1.428 . S
H1451 C1447 0.930 . S
H1452 C1449 0.929 . S
S1453 N1454 1.613 . S
S1453 N1455 1.610 . S
N1454 S1453 1.613 . S
N1454 C1457 1.350 . S
N1455 S1453 1.610 . S
N1455 C1456 1.351 . S
C1456 C1450 1.428 . S
C1456 N1455 1.351 . S
C1456 C1457 1.434 . S
C1457 C1448 1.429 . S
C1457 N1454 1.350 . S
C1457 C1456 1.434 . S
C1458 C1459 1.369 1_545 S
C1458 C1460 1.419 . S
C1458 H1462 0.930 . S
C1459 C1458 1.369 1_565 S
C1459 C1468 1.429 . S
C1460 C1458 1.419 . S
C1460 C1461 1.363 1_545 S
C1460 H1463 0.929 . S
C1461 C1460 1.363 1_565 S
C1461 C1467 1.428 . S
H1462 C1458 0.930 . S
H1463 C1460 0.929 . S
S1464 N1465 1.613 . S
S1464 N1466 1.610 . S
N1465 S1464 1.613 . S
N1465 C1468 1.350 . S
N1466 S1464 1.610 . S
N1466 C1467 1.351 . S
C1467 C1461 1.428 . S
C1467 N1466 1.351 . S
C1467 C1468 1.434 . S
C1468 C1459 1.429 . S
C1468 N1465 1.350 . S
C1468 C1467 1.434 . S
C1469 C1470 1.371 . S
C1469 C1471 1.418 . S
C1469 H1473 0.929 1_455 S
C1470 C1469 1.371 . S
C1470 C1479 1.429 . S
C1471 C1469 1.418 . S
C1471 C1472 1.363 . S
C1471 H1474 0.929 . S
C1472 C1471 1.363 . S
C1472 C1478 1.428 . S
H1473 C1469 0.929 1_655 S
H1474 C1471 0.929 . S
S1475 N1476 1.613 . S
S1475 N1477 1.610 . S
N1476 S1475 1.613 . S
N1476 C1479 1.350 . S
N1477 S1475 1.610 . S
N1477 C1478 1.351 . S
C1478 C1472 1.428 . S
C1478 N1477 1.351 . S
C1478 C1479 1.434 . S
C1479 C1470 1.429 . S
C1479 N1476 1.350 . S
C1479 C1478 1.434 . S
C1480 C1481 1.369 . S
C1480 C1482 1.419 . S
C1480 H1484 0.930 . S
C1481 C1480 1.369 . S
C1481 C1490 1.429 . S
C1482 C1480 1.419 . S
C1482 C1483 1.363 . S
C1482 H1485 0.929 . S
C1483 C1482 1.363 . S
C1483 C1489 1.428 . S
H1484 C1480 0.930 . S
H1485 C1482 0.929 . S
S1486 N1487 1.613 . S
S1486 N1488 1.610 . S
N1487 S1486 1.613 . S
N1487 C1490 1.350 . S
N1488 S1486 1.610 . S
N1488 C1489 1.351 . S
C1489 C1483 1.428 . S
C1489 N1488 1.351 . S
C1489 C1490 1.434 . S
C1490 C1481 1.429 . S
C1490 N1487 1.350 . S
C1490 C1489 1.434 . S
C1491 C1492 1.369 . S
C1491 C1493 1.419 . S
C1491 H1495 0.928 . S
C1492 C1491 1.369 . S
C1492 C1501 1.429 . S
C1493 C1491 1.419 . S
C1493 C1494 1.363 . S
C1493 H1496 0.929 . S
C1494 C1493 1.363 . S
C1494 C1500 1.428 . S
H1495 C1491 0.928 . S
H1496 C1493 0.929 . S
S1497 N1498 1.613 . S
S1497 N1499 1.610 . S
N1498 S1497 1.613 . S
N1498 C1501 1.350 . S
N1499 S1497 1.610 . S
N1499 C1500 1.351 . S
C1500 C1494 1.428 . S
C1500 N1499 1.351 . S
C1500 C1501 1.434 . S
C1501 C1492 1.429 . S
C1501 N1498 1.350 . S
C1501 C1500 1.434 . S
C1502 C1503 1.369 . S
C1502 C1504 1.419 . S
C1502 H1506 0.930 . S
C1503 C1502 1.369 . S
C1503 C1512 1.429 . S
C1504 C1502 1.419 . S
C1504 C1505 1.363 . S
C1504 H1507 0.929 . S
C1505 C1504 1.363 . S
C1505 C1511 1.428 . S
H1506 C1502 0.930 . S
H1507 C1504 0.929 . S
S1508 N1509 1.613 . S
S1508 N1510 1.610 . S
N1509 S1508 1.613 . S
N1509 C1512 1.350 . S
N1510 S1508 1.610 . S
N1510 C1511 1.351 . S
C1511 C1505 1.428 . S
C1511 N1510 1.351 . S
C1511 C1512 1.434 . S
C1512 C1503 1.429 . S
C1512 N1509 1.350 . S
C1512 C1511 1.434 . S
C1513 C1514 1.369 . S
C1513 C1515 1.419 . S
C1513 H1517 0.930 . S
C1514 C1513 1.369 . S
C1514 C1523 1.459 . S
C1515 C1513 1.419 . S
C1515 C1516 1.363 . S
C1515 H1518 0.929 . S
C1516 C1515 1.363 . S
C1516 C1522 1.428 1_545 S
H1517 C1513 0.930 . S
H1518 C1515 0.929 . S
S1519 N1520 1.613 . S
S1519 N1521 1.610 . S
N1520 S1519 1.613 . S
N1520 C1523 1.327 1_565 S
N1521 S1519 1.610 . S
N1521 C1522 1.351 . S
C1522 C1516 1.428 1_565 S
C1522 N1521 1.351 . S
C1522 C1523 1.424 1_565 S
C1523 C1514 1.459 . S
C1523 N1520 1.327 1_545 S
C1523 C1522 1.424 1_545 S
C1524 C1525 1.369 . S
C1524 C1526 1.419 . S
C1524 H1528 0.930 . S
C1525 C1524 1.369 . S
C1525 C1534 1.429 . S
C1526 C1524 1.419 . S
C1526 C1527 1.363 . S
C1526 H1529 0.929 . S
C1527 C1526 1.363 . S
C1527 C1533 1.428 . S
H1528 C1524 0.930 . S
H1529 C1526 0.929 . S
S1530 N1531 1.613 . S
S1530 N1532 1.610 . S
N1531 S1530 1.613 . S
N1531 C1534 1.350 . S
N1532 S1530 1.610 . S
N1532 C1533 1.351 . S
C1533 C1527 1.428 . S
C1533 N1532 1.351 . S
C1533 C1534 1.434 . S
C1534 C1525 1.429 . S
C1534 N1531 1.350 . S
C1534 C1533 1.434 . S
C1535 C1536 1.369 . S
C1535 C1537 1.419 . S
C1535 H1539 0.930 . S
C1536 C1535 1.369 . S
C1536 C1545 1.429 . S
C1537 C1535 1.419 . S
C1537 C1538 1.363 . S
C1537 H1540 0.929 . S
C1538 C1537 1.363 . S
C1538 C1544 1.428 . S
H1539 C1535 0.930 . S
H1540 C1537 0.929 . S
S1541 N1542 1.613 . S
S1541 N1543 1.610 . S
N1542 S1541 1.613 . S
N1542 C1545 1.350 . S
N1543 S1541 1.610 . S
N1543 C1544 1.351 . S
C1544 C1538 1.428 . S
C1544 N1543 1.351 . S
C1544 C1545 1.434 . S
C1545 C1536 1.429 . S
C1545 N1542 1.350 . S
C1545 C1544 1.434 . S
C1546 C1547 1.369 . S
C1546 C1548 1.419 . S
C1546 H1550 0.930 . S
C1547 C1546 1.369 . S
C1547 C1556 1.429 . S
C1548 C1546 1.419 . S
C1548 C1549 1.363 . S
C1548 H1551 0.929 . S
C1549 C1548 1.363 . S
C1549 C1555 1.428 . S
H1550 C1546 0.930 . S
H1551 C1548 0.929 . S
S1552 N1553 1.613 . S
S1552 N1554 1.610 . S
N1553 S1552 1.613 . S
N1553 C1556 1.350 . S
N1554 S1552 1.610 . S
N1554 C1555 1.351 . S
C1555 C1549 1.428 . S
C1555 N1554 1.351 . S
C1555 C1556 1.434 . S
C1556 C1547 1.429 . S
C1556 N1553 1.350 . S
C1556 C1555 1.434 . S
C1557 C1558 1.369 . S
C1557 C1559 1.419 . S
C1557 H1561 0.930 . S
C1558 C1557 1.369 . S
C1558 C1567 1.429 . S
C1559 C1557 1.419 . S
C1559 C1560 1.363 . S
C1559 H1562 0.929 . S
C1560 C1559 1.363 . S
C1560 C1566 1.428 . S
H1561 C1557 0.930 . S
H1562 C1559 0.929 . S
S1563 N1564 1.613 . S
S1563 N1565 1.610 . S
N1564 S1563 1.613 . S
N1564 C1567 1.350 . S
N1565 S1563 1.610 . S
N1565 C1566 1.351 . S
C1566 C1560 1.428 . S
C1566 N1565 1.351 . S
C1566 C1567 1.434 . S
C1567 C1558 1.429 . S
C1567 N1564 1.350 . S
C1567 C1566 1.434 . S
C1568 C1569 1.369 . S
C1568 C1570 1.419 . S
C1568 H1572 0.930 . S
C1569 C1568 1.369 . S
C1569 C1578 1.429 . S
C1570 C1568 1.419 . S
C1570 C1571 1.363 . S
C1570 H1573 0.929 . S
C1571 C1570 1.363 . S
C1571 C1577 1.428 . S
H1572 C1568 0.930 . S
H1573 C1570 0.929 . S
S1574 N1575 1.613 . S
S1574 N1576 1.610 . S
N1575 S1574 1.613 . S
N1575 C1578 1.350 . S
N1576 S1574 1.610 . S
N1576 C1577 1.351 . S
C1577 C1571 1.428 . S
C1577 N1576 1.351 . S
C1577 C1578 1.434 . S
C1578 C1569 1.429 . S
C1578 N1575 1.350 . S
C1578 C1577 1.434 . S
C1579 C1580 1.369 . S
C1579 C1581 1.419 . S
C1579 H1583 0.930 . S
C1580 C1579 1.369 . S
C1580 C1589 1.429 . S
C1581 C1579 1.419 . S
C1581 C1582 1.363 . S
C1581 H1584 0.929 . S
C1582 C1581 1.363 . S
C1582 C1588 1.428 . S
H1583 C1579 0.930 . S
H1584 C1581 0.929 . S
S1585 N1586 1.613 . S
S1585 N1587 1.610 . S
N1586 S1585 1.613 . S
N1586 C1589 1.350 . S
N1587 S1585 1.610 . S
N1587 C1588 1.351 . S
C1588 C1582 1.428 . S
C1588 N1587 1.351 . S
C1588 C1589 1.434 . S
C1589 C1580 1.429 . S
C1589 N1586 1.350 . S
C1589 C1588 1.434 . S
C1590 C1591 1.369 . S
C1590 C1592 1.419 . S
C1590 H1594 0.930 . S
C1591 C1590 1.369 . S
C1591 C1600 1.429 . S
C1592 C1590 1.419 . S
C1592 C1593 1.363 . S
C1592 H1595 0.929 . S
C1593 C1592 1.363 . S
C1593 C1599 1.428 . S
H1594 C1590 0.930 . S
H1595 C1592 0.929 . S
S1596 N1597 1.613 . S
S1596 N1598 1.610 . S
N1597 S1596 1.613 . S
N1597 C1600 1.350 . S
N1598 S1596 1.610 . S
N1598 C1599 1.351 . S
C1599 C1593 1.428 . S
C1599 N1598 1.351 . S
C1599 C1600 1.434 . S
C1600 C1591 1.429 . S
C1600 N1597 1.350 . S
C1600 C1599 1.434 . S
C1601 C1602 1.369 . S
C1601 C1603 1.419 . S
C1601 H1605 0.930 . S
C1602 C1601 1.369 . S
C1602 C1611 1.429 . S
C1603 C1601 1.419 . S
C1603 C1604 1.363 . S
C1603 H1606 0.929 . S
C1604 C1603 1.363 . S
C1604 C1610 1.428 . S
H1605 C1601 0.930 . S
H1606 C1603 0.929 . S
S1607 N1608 1.613 . S
S1607 N1609 1.610 . S
N1608 S1607 1.613 . S
N1608 C1611 1.350 . S
N1609 S1607 1.610 . S
N1609 C1610 1.351 . S
C1610 C1604 1.428 . S
C1610 N1609 1.351 . S
C1610 C1611 1.434 . S
C1611 C1602 1.429 . S
C1611 N1608 1.350 . S
C1611 C1610 1.434 . S
C1612 C1613 1.369 . S
C1612 C1614 1.419 . S
C1612 H1616 0.930 . S
C1613 C1612 1.369 . S
C1613 C1622 1.429 . S
C1614 C1612 1.419 . S
C1614 C1615 1.363 . S
C1614 H1617 0.929 . S
C1615 C1614 1.363 . S
C1615 C1621 1.428 . S
H1616 C1612 0.930 . S
H1617 C1614 0.929 . S
S1618 N1619 1.613 . S
S1618 N1620 1.610 . S
N1619 S1618 1.613 . S
N1619 C1622 1.350 . S
N1620 S1618 1.610 . S
N1620 C1621 1.351 . S
C1621 C1615 1.428 . S
C1621 N1620 1.351 . S
C1621 C1622 1.434 . S
C1622 C1613 1.429 . S
C1622 N1619 1.350 . S
C1622 C1621 1.434 . S
C1623 C1624 1.369 . S
C1623 C1625 1.419 . S
C1623 H1627 0.930 . S
C1624 C1623 1.369 . S
C1624 C1633 1.429 . S
C1625 C1623 1.419 . S
C1625 C1626 1.363 . S
C1625 H1628 0.929 . S
C1626 C1625 1.363 . S
C1626 C1632 1.428 . S
H1627 C1623 0.930 . S
H1628 C1625 0.929 . S
S1629 N1630 1.613 . S
S1629 N1631 1.610 . S
N1630 S1629 1.613 . S
N1630 C1633 1.350 . S
N1631 S1629 1.610 . S
N1631 C1632 1.351 . S
C1632 C1626 1.428 . S
C1632 N1631 1.351 . S
C1632 C1633 1.434 . S
C1633 C1624 1.429 . S
C1633 N1630 1.350 . S
C1633 C1632 1.434 . S
C1634 C1635 1.369 . S
C1634 C1636 1.419 . S
C1634 H1638 0.930 . S
C1635 C1634 1.369 . S
C1635 C1644 1.429 . S
C1636 C1634 1.419 . S
C1636 C1637 1.363 . S
C1636 H1639 0.929 . S
C1637 C1636 1.363 . S
C1637 C1643 1.428 . S
H1638 C1634 0.930 . S
H1639 C1636 0.929 . S
S1640 N1641 1.613 . S
S1640 N1642 1.610 . S
N1641 S1640 1.613 . S
N1641 C1644 1.350 . S
N1642 S1640 1.610 . S
N1642 C1643 1.351 . S
C1643 C1637 1.428 . S
C1643 N1642 1.351 . S
C1643 C1644 1.434 . S
C1644 C1635 1.429 . S
C1644 N1641 1.350 . S
C1644 C1643 1.434 . S
C1645 C1646 1.369 . S
C1645 C1647 1.419 . S
C1645 H1649 0.930 . S
C1646 C1645 1.369 . S
C1646 C1655 1.429 . S
C1647 C1645 1.419 . S
C1647 C1648 1.363 . S
C1647 H1650 0.929 . S
C1648 C1647 1.363 . S
C1648 C1654 1.428 . S
H1649 C1645 0.930 . S
H1650 C1647 0.929 . S
S1651 N1652 1.613 . S
S1651 N1653 1.610 . S
N1652 S1651 1.613 . S
N1652 C1655 1.350 . S
N1653 S1651 1.610 . S
N1653 C1654 1.351 . S
C1654 C1648 1.428 . S
C1654 N1653 1.351 . S
C1654 C1655 1.434 . S
C1655 C1646 1.429 . S
C1655 N1652 1.350 . S
C1655 C1654 1.434 . S
C1063 C528 1.707 . S
C1065 C711 1.681 . S
C1074 C562 1.789 . S
C1076 C751 1.752 . S
C1085 C484 1.784 . S
C1087 C790 1.822 . S
C1096 C445 1.624 . S
C1098 C750 1.642 . S
C1109 C791 1.520 . S
C1107 C367 1.538 . S
C1118 C411 1.540 . S
C1120 C710 1.597 . S
C1131 C721 1.693 . S
C1129 C450 1.707 . S
C1142 C761 1.741 . S
C1140 C372 1.760 . S
C1151 C406 1.788 . S
C1153 C800 1.820 . S
C1162 C523 1.623 . S
C1164 C760 1.639 . S
C1173 C567 1.510 . S
C1175 C801 1.502 . S
C1186 C720 1.606 . S
C1184 C489 1.529 . S
C1197 C831 1.679 . S
C1195 C60 1.709 1_455 S
C1206 C94 1.785 . S
C1208 C871 1.756 . S
C1217 C16 1.783 . S
C1219 C910 1.824 . S
C1228 C679 1.632 . S
C1230 C870 1.640 . S
C1239 C601 1.536 . S
C1241 C911 1.521 . S
C1250 C645 1.530 . S
C1252 C830 1.589 . S
C1261 C684 1.712 . S
C1263 C841 1.689 . S
C1272 C606 1.761 . S
C1274 C881 1.740 . S
C1285 C920 1.827 . S
C1283 C640 1.782 . S
C1294 C55 1.620 1_565 S
C1296 C880 1.644 . S
C1307 C921 1.498 . S
C1305 C99 1.515 1_455 S
C1316 C21 1.525 . S
C1318 C840 1.604 . S
C1329 C951 1.681 . S
C1327 C294 1.707 . S
C1338 C328 1.787 . S
C1340 C991 1.755 . S
C1351 C1030 1.819 . S
C1349 C250 1.792 . S
C1362 C990 1.639 . S
C1360 C211 1.633 1_545 S
C1373 C1031 1.515 . S
C1371 C133 1.541 1_655 S
C1382 C177 1.541 . S
C1384 C950 1.584 . S
C1393 C216 1.710 1_655 S
C1395 C961 1.690 . S
C1404 C138 1.762 . S
C1406 C1001 1.739 . S
C1417 C1040 1.826 . S
C1415 C172 1.779 . S
C1426 C289 1.627 . S
C1428 C1000 1.638 . S
C1437 C333 1.516 . S
C1439 C1041 1.497 . S
C1448 C255 1.524 . S
C1450 C960 1.607 . S
C1459 C586 1.414 . S
C1461 C707 1.401 . S
C1472 C747 1.826 . S
C1470 C625 1.812 . S
C1481 C664 1.570 . S
C1483 C797 1.586 . S
C1492 C235 1.813 . S
C1494 C757 1.838 . S
C1503 C274 1.560 . S
C1505 C787 1.575 . S
C1516 C717 1.403 . S
C1514 C313 1.412 . S
C1525 C118 1.414 . S
C1527 C827 1.404 . S
C1536 C157 1.814 . S
C1538 C867 1.826 . S
C1547 C196 1.568 . S
C1549 C917 1.587 . S
C1558 C469 1.814 . S
C1560 C877 1.835 . S
C1571 C907 1.575 . S
C1569 C508 1.560 . S
C1580 C547 1.413 . S
C1582 C837 1.400 . S
C1591 C352 1.414 . S
C1593 C947 1.402 . S
C1602 C391 1.813 . S
C1604 C987 1.826 . S
C1615 C1037 1.587 . S
C1613 C430 1.569 . S
C1624 C1 1.814 . S
C1626 C997 1.837 . S
C1635 C40 1.560 . S
C1637 C1027 1.575 . S
C1646 C79 1.413 . S
C1648 C957 1.399 . S
