# Generated by pormake.
# Topology nom, (4,4)-cn, num edge types: 1
# Building blocks:
#     Node 0, Type 0, BuildingBlock: AZAVOO_clean_linker_0, # of connection points: 4
#     Node 1, Type 0, BuildingBlock: AZAVOO_clean_linker_0, # of connection points: 4
#     Node 2, Type 0, BuildingBlock: AZAVOO_clean_linker_0, # of connection points: 4
#     Node 3, Type 0, BuildingBlock: AZAVOO_clean_linker_0, # of connection points: 4
#     Node 4, Type 0, BuildingBlock: AZAVOO_clean_linker_0, # of connection points: 4
#     Node 5, Type 0, BuildingBlock: AZAVOO_clean_linker_0, # of connection points: 4
#     Node 6, Type 1, BuildingBlock: QUQFOY_clean_sbu_3, # of connection points: 4
#     Node 7, Type 1, BuildingBlock: QUQFOY_clean_sbu_3, # of connection points: 4
#     Node 8, Type 1, BuildingBlock: QUQFOY_clean_sbu_3, # of connection points: 4
#     Node 9, Type 1, BuildingBlock: QUQFOY_clean_sbu_3, # of connection points: 4
#     Node 10, Type 1, BuildingBlock: QUQFOY_clean_sbu_3, # of connection points: 4
#     Node 11, Type 1, BuildingBlock: QUQFOY_clean_sbu_3, # of connection points: 4
#     Edge 12, Type (0, 1), BuildingBlock: ZUJKAS_clean_linker_0, # of connection points: 2
#     Edge 13, Type (0, 1), BuildingBlock: ZUJKAS_clean_linker_0, # of connection points: 2
#     Edge 14, Type (0, 1), BuildingBlock: ZUJKAS_clean_linker_0, # of connection points: 2
#     Edge 15, Type (0, 1), BuildingBlock: ZUJKAS_clean_linker_0, # of connection points: 2
#     Edge 16, Type (0, 1), BuildingBlock: ZUJKAS_clean_linker_0, # of connection points: 2
#     Edge 17, Type (0, 1), BuildingBlock: ZUJKAS_clean_linker_0, # of connection points: 2
#     Edge 18, Type (0, 1), BuildingBlock: ZUJKAS_clean_linker_0, # of connection points: 2
#     Edge 19, Type (0, 1), BuildingBlock: ZUJKAS_clean_linker_0, # of connection points: 2
#     Edge 20, Type (0, 1), BuildingBlock: ZUJKAS_clean_linker_0, # of connection points: 2
#     Edge 21, Type (0, 1), BuildingBlock: ZUJKAS_clean_linker_0, # of connection points: 2
#     Edge 22, Type (0, 1), BuildingBlock: ZUJKAS_clean_linker_0, # of connection points: 2
#     Edge 23, Type (0, 1), BuildingBlock: ZUJKAS_clean_linker_0, # of connection points: 2
#     Edge 24, Type (0, 1), BuildingBlock: ZUJKAS_clean_linker_0, # of connection points: 2
#     Edge 25, Type (0, 1), BuildingBlock: ZUJKAS_clean_linker_0, # of connection points: 2
#     Edge 26, Type (0, 1), BuildingBlock: ZUJKAS_clean_linker_0, # of connection points: 2
#     Edge 27, Type (0, 1), BuildingBlock: ZUJKAS_clean_linker_0, # of connection points: 2
#     Edge 28, Type (0, 1), BuildingBlock: ZUJKAS_clean_linker_0, # of connection points: 2
#     Edge 29, Type (0, 1), BuildingBlock: ZUJKAS_clean_linker_0, # of connection points: 2
#     Edge 30, Type (0, 1), BuildingBlock: ZUJKAS_clean_linker_0, # of connection points: 2
#     Edge 31, Type (0, 1), BuildingBlock: ZUJKAS_clean_linker_0, # of connection points: 2
#     Edge 32, Type (0, 1), BuildingBlock: ZUJKAS_clean_linker_0, # of connection points: 2
#     Edge 33, Type (0, 1), BuildingBlock: ZUJKAS_clean_linker_0, # of connection points: 2
#     Edge 34, Type (0, 1), BuildingBlock: ZUJKAS_clean_linker_0, # of connection points: 2
#     Edge 35, Type (0, 1), BuildingBlock: ZUJKAS_clean_linker_0, # of connection points: 2
# Relax obj value: 0.136
# Max RMSD: 0.228
# Mean RMSD: 0.148
data_MOF--net-nom--node1-QUQFOY_clean_sbu_3--node2-AZAVOO_clean_linker_0--edge1-ZUJKAS_clean_linker_0
_symmetry_space_group_name_H-M    P1
_symmetry_Int_Tables_number       1
_symmetry_cell_setting            triclinic
loop_
_symmetry_equiv_pos_as_xyz
'x, y, z'
_cell_length_a     59.753974
_cell_length_b     62.837957
_cell_length_c     75.484284
_cell_angle_alpha  89.900896
_cell_angle_beta   89.792278
_cell_angle_gamma 121.23428
loop_
_atom_site_label
_atom_site_type_symbol
_atom_site_fract_x
_atom_site_fract_y
_atom_site_fract_z
_atom_type_partial_charge
H0 H 0.05603 0.44725 0.20453 0.0
H1 H 0.16985 0.61335 0.37103 0.0
H2 H 0.98534 0.43717 0.29209 0.0
H3 H 0.9527 0.41386 0.2693 0.0
H4 H 0.95424 0.4811 0.25419 0.0
H5 H 0.98559 0.50363 0.2777 0.0
H6 H 0.04961 0.46218 0.28044 0.0
H7 H 0.05436 0.45093 0.25021 0.0
H8 H 0.0345 0.50332 0.22961 0.0
H9 H 0.03011 0.51455 0.2599 0.0
H10 H 0.09988 0.50388 0.30646 0.0
H11 H 0.14544 0.53197 0.29678 0.0
H12 H 0.1214 0.57591 0.26761 0.0
H13 H 0.07627 0.54808 0.27736 0.0
H14 H 0.07453 0.50079 0.34543 0.0
H15 H 0.11062 0.52677 0.3655 0.0
H16 H 0.12513 0.59239 0.33677 0.0
H17 H 0.08874 0.56621 0.31699 0.0
H18 H 0.01818 0.47925 0.35533 0.0
H19 H 0.02859 0.49477 0.38573 0.0
H20 H 0.04978 0.56805 0.36727 0.0
H21 H 0.03946 0.55236 0.33692 0.0
H22 H 0.96703 0.45016 0.328 0.0
H23 H 0.92612 0.44383 0.34089 0.0
H24 H 0.95162 0.52055 0.32927 0.0
H25 H 0.99228 0.52667 0.31671 0.0
O26 O 0.05413 0.45202 0.21637 0.0
O27 O 0.04368 0.4791 0.20646 0.0
O28 O 0.14744 0.5683 0.37747 0.0
O29 O 0.15587 0.60261 0.36306 0.0
C30 C 0.01092 0.48695 0.29776 0.0
C31 C 0.03616 0.49544 0.29068 0.0
C32 C 0.05857 0.51059 0.30095 0.0
C33 C 0.05572 0.51596 0.31865 0.0
C34 C 0.03053 0.50766 0.32565 0.0
C35 C 0.00818 0.49375 0.31507 0.0
C36 C 0.98772 0.47201 0.28649 0.0
C37 C 0.97792 0.44657 0.28418 0.0
C38 C 0.95956 0.43341 0.27097 0.0
C39 C 0.95106 0.44562 0.25962 0.0
C40 C 0.95996 0.47089 0.26273 0.0
C41 C 0.97797 0.4839 0.27614 0.0
C42 C 0.03926 0.48895 0.27232 0.0
C43 C 0.04632 0.47119 0.26936 0.0
C44 C 0.04899 0.4648 0.25209 0.0
C45 C 0.04471 0.47616 0.23748 0.0
C46 C 0.03784 0.49414 0.24055 0.0
C47 C 0.03522 0.50053 0.25782 0.0
C48 C 0.08484 0.52396 0.29256 0.0
C49 C 0.10443 0.51921 0.29761 0.0
C50 C 0.13034 0.53521 0.29209 0.0
C51 C 0.13685 0.5562 0.28164 0.0
C52 C 0.11689 0.56 0.27583 0.0
C53 C 0.09111 0.54401 0.28123 0.0
C54 C 0.07915 0.53162 0.32972 0.0
C55 C 0.08569 0.52076 0.34342 0.0
C56 C 0.10626 0.53565 0.35488 0.0
C57 C 0.12073 0.56168 0.35276 0.0
C58 C 0.11439 0.57243 0.33878 0.0
C59 C 0.09374 0.55751 0.32739 0.0
C60 C 0.02827 0.51475 0.34399 0.0
C61 C 0.02398 0.49837 0.35799 0.0
C62 C 0.03001 0.5073 0.37533 0.0
C63 C 0.04044 0.53272 0.37879 0.0
C64 C 0.04215 0.54847 0.36492 0.0
C65 C 0.03603 0.53951 0.34763 0.0
C66 C 0.98254 0.48888 0.32152 0.0
C67 C 0.96356 0.46545 0.32814 0.0
C68 C 0.94027 0.4619 0.33545 0.0
C69 C 0.93581 0.48179 0.33628 0.0
C70 C 0.95469 0.50501 0.32916 0.0
C71 C 0.97781 0.5085 0.32186 0.0
C72 C 0.04745 0.46926 0.21915 0.0
C73 C 0.14214 0.57763 0.36519 0.0
H74 H 0.49302 0.07378 0.36655 0.0
H75 H 0.4582 0.16596 0.54468 0.0
H76 H 0.47861 0.01863 0.45548 0.0
H77 H 0.4781 0.98954 0.43381 0.0
H78 H 0.39354 0.94796 0.43502 0.0
H79 H 0.39426 0.97732 0.45683 0.0
H80 H 0.49281 0.07082 0.444 0.0
H81 H 0.50081 0.07662 0.41205 0.0
H82 H 0.41768 0.02963 0.40275 0.0
H83 H 0.40994 0.02424 0.43475 0.0
H84 H 0.49904 0.10446 0.47546 0.0
H85 H 0.51592 0.14589 0.46282 0.0
H86 H 0.44162 0.12003 0.43715 0.0
H87 H 0.42463 0.07873 0.45039 0.0
H88 H 0.48721 0.08377 0.51342 0.0
H89 H 0.49696 0.1181 0.5334 0.0
H90 H 0.43059 0.11999 0.51276 0.0
H91 H 0.42079 0.08534 0.49304 0.0
H92 H 0.46659 0.02545 0.5189 0.0
H93 H 0.4729 0.03183 0.55076 0.0
H94 H 0.41268 0.05042 0.5528 0.0
H95 H 0.40537 0.04242 0.52105 0.0
H96 H 0.45518 0.98861 0.49119 0.0
H97 H 0.43611 0.94734 0.50486 0.0
H98 H 0.36418 0.94635 0.5144 0.0
H99 H 0.38356 0.98766 0.50097 0.0
O100 O 0.4894 0.07131 0.37914 0.0
O101 O 0.44651 0.04689 0.37507 0.0
O102 O 0.48847 0.15038 0.54723 0.0
O103 O 0.45492 0.15251 0.53681 0.0
C104 C 0.43744 0.01999 0.46875 0.0
C105 C 0.44598 0.04356 0.46108 0.0
C106 C 0.45045 0.06369 0.47188 0.0
C107 C 0.44663 0.06033 0.49038 0.0
C108 C 0.43723 0.03652 0.498 0.0
C109 C 0.43213 0.01622 0.48711 0.0
C110 C 0.43648 0.00014 0.45759 0.0
C111 C 0.45998 0.00303 0.45125 0.0
C112 C 0.45965 0.9865 0.43883 0.0
C113 C 0.43578 0.96667 0.43259 0.0
C114 C 0.41221 0.96302 0.43967 0.0
C115 C 0.41256 0.97973 0.45208 0.0
C116 C 0.45079 0.04724 0.44167 0.0
C117 C 0.47635 0.06196 0.43504 0.0
C118 C 0.48086 0.06516 0.41678 0.0
C119 C 0.45988 0.05361 0.40484 0.0
C120 C 0.43428 0.03881 0.41158 0.0
C121 C 0.4298 0.03568 0.42984 0.0
C122 C 0.46059 0.08869 0.46393 0.0
C123 C 0.48639 0.1078 0.46717 0.0
C124 C 0.49607 0.13137 0.45978 0.0
C125 C 0.48014 0.13624 0.44891 0.0
C126 C 0.45429 0.11694 0.44561 0.0
C127 C 0.4446 0.09335 0.45306 0.0
C128 C 0.45322 0.082 0.50186 0.0
C129 C 0.4748 0.09163 0.51324 0.0
C130 C 0.48034 0.11125 0.52463 0.0
C131 C 0.4645 0.12176 0.52471 0.0
C132 C 0.44314 0.11231 0.51306 0.0
C133 C 0.43755 0.09258 0.50174 0.0
C134 C 0.43578 0.03381 0.51761 0.0
C135 C 0.45396 0.02983 0.52634 0.0
C136 C 0.4578 0.03385 0.54453 0.0
C137 C 0.44382 0.04234 0.55425 0.0
C138 C 0.42379 0.0439 0.54575 0.0
C139 C 0.41966 0.03945 0.52758 0.0
C140 C 0.42068 0.99102 0.495 0.0
C141 C 0.43526 0.97936 0.49614 0.0
C142 C 0.42432 0.9558 0.50394 0.0
C143 C 0.39862 0.94356 0.51076 0.0
C144 C 0.38414 0.9554 0.50955 0.0
C145 C 0.39509 0.97891 0.50177 0.0
C146 C 0.46475 0.057 0.38545 0.0
C147 C 0.47011 0.14241 0.53694 0.0
H148 H 0.61323 0.57922 0.76471 0.0
H149 H 0.55903 0.43274 0.59271 0.0
H150 H 0.57721 0.60759 0.67901 0.0
H151 H 0.56996 0.63046 0.70229 0.0
H152 H 0.48744 0.57451 0.70254 0.0
H153 H 0.49488 0.55206 0.67911 0.0
H154 H 0.60288 0.57312 0.68756 0.0
H155 H 0.61508 0.57929 0.71888 0.0
H156 H 0.53316 0.54004 0.73358 0.0
H157 H 0.52125 0.53369 0.70225 0.0
H158 H 0.60486 0.53538 0.65848 0.0
H159 H 0.61528 0.50447 0.66881 0.0
H160 H 0.54132 0.46559 0.69682 0.0
H161 H 0.53077 0.49598 0.68598 0.0
H162 H 0.59033 0.54602 0.6196 0.0
H163 H 0.59819 0.51963 0.59991 0.0
H164 H 0.53461 0.45416 0.62517 0.0
H165 H 0.52672 0.48078 0.64459 0.0
H166 H 0.56525 0.57756 0.61145 0.0
H167 H 0.56214 0.56963 0.57958 0.0
H168 H 0.49819 0.49438 0.58895 0.0
H169 H 0.50182 0.50243 0.62083 0.0
H170 H 0.54608 0.60572 0.64107 0.0
H171 H 0.51679 0.61849 0.62858 0.0
H172 H 0.45406 0.54144 0.6274 0.0
H173 H 0.48324 0.529 0.6397 0.0
O174 O 0.60797 0.57644 0.75241 0.0
O175 O 0.56559 0.55637 0.75926 0.0
O176 O 0.58876 0.47785 0.5877 0.0
O177 O 0.55646 0.4436 0.6004 0.0
C178 C 0.54187 0.56206 0.66612 0.0
C179 C 0.55398 0.54985 0.67361 0.0
C180 C 0.5586 0.53395 0.6631 0.0
C181 C 0.55258 0.53142 0.64488 0.0
C182 C 0.54029 0.54343 0.63749 0.0
C183 C 0.53405 0.558 0.64822 0.0
C184 C 0.53658 0.57819 0.67745 0.0
C185 C 0.55749 0.60069 0.68379 0.0
C186 C 0.55333 0.6136 0.69715 0.0
C187 C 0.52818 0.60415 0.7044 0.0
C188 C 0.507 0.58244 0.69713 0.0
C189 C 0.51119 0.56955 0.68375 0.0
C190 C 0.56121 0.55316 0.69265 0.0
C191 C 0.58762 0.56581 0.69758 0.0
C192 C 0.59452 0.56935 0.71547 0.0
C193 C 0.57509 0.56025 0.72874 0.0
C194 C 0.54861 0.54737 0.72371 0.0
C195 C 0.54175 0.54379 0.70582 0.0
C196 C 0.56704 0.51785 0.67144 0.0
C197 C 0.59113 0.52036 0.66705 0.0
C198 C 0.59707 0.50276 0.67301 0.0
C199 C 0.57898 0.48244 0.68346 0.0
C200 C 0.55545 0.48078 0.68853 0.0
C201 C 0.54952 0.49827 0.68253 0.0
C202 C 0.55805 0.5153 0.63355 0.0
C203 C 0.57819 0.52597 0.62088 0.0
C204 C 0.58261 0.51086 0.60965 0.0
C205 C 0.56702 0.48477 0.61097 0.0
C206 C 0.54698 0.47417 0.62381 0.0
C207 C 0.5425 0.48931 0.63497 0.0
C208 C 0.53398 0.54047 0.61836 0.0
C209 C 0.55005 0.55964 0.60653 0.0
C210 C 0.54819 0.55506 0.58834 0.0
C211 C 0.53016 0.53125 0.5818 0.0
C212 C 0.51255 0.51277 0.59365 0.0
C213 C 0.51447 0.51735 0.61181 0.0
C214 C 0.5168 0.56643 0.64112 0.0
C215 C 0.52599 0.5917 0.63811 0.0
C216 C 0.50926 0.59893 0.63103 0.0
C217 C 0.48322 0.58093 0.62679 0.0
C218 C 0.47414 0.55571 0.63013 0.0
C219 C 0.49074 0.54857 0.63723 0.0
C220 C 0.58249 0.56418 0.74773 0.0
C221 C 0.57149 0.46863 0.59897 0.0
H222 H 0.04848 0.43845 0.93229 0.0
H223 H 0.17214 0.50035 0.74602 0.0
H224 H 0.98957 0.44681 0.84561 0.0
H225 H 0.95698 0.42932 0.86936 0.0
H226 H 0.94167 0.35579 0.85694 0.0
H227 H 0.97378 0.37353 0.83271 0.0
H228 H 0.04923 0.4673 0.85847 0.0
H229 H 0.05204 0.4626 0.89044 0.0
H230 H 0.02263 0.38417 0.88321 0.0
H231 H 0.02017 0.38922 0.85123 0.0
H232 H 0.09447 0.49118 0.82869 0.0
H233 H 0.1372 0.5046 0.84181 0.0
H234 H 0.11548 0.42772 0.84735 0.0
H235 H 0.07282 0.4145 0.83418 0.0
H236 H 0.07372 0.49536 0.79177 0.0
H237 H 0.11165 0.51814 0.77215 0.0
H238 H 0.12353 0.45586 0.77323 0.0
H239 H 0.08523 0.43309 0.7926 0.0
H240 H 0.01526 0.47236 0.78444 0.0
H241 H 0.02499 0.49097 0.75478 0.0
H242 H 0.04828 0.43942 0.73814 0.0
H243 H 0.03788 0.42061 0.76764 0.0
H244 H 0.96935 0.44085 0.81095 0.0
H245 H 0.92463 0.41971 0.79936 0.0
H246 H 0.93735 0.36485 0.77454 0.0
H247 H 0.98201 0.38631 0.78598 0.0
O248 O 0.04744 0.43993 0.91959 0.0
O249 O 0.03227 0.39973 0.91516 0.0
O250 O 0.14983 0.52308 0.75346 0.0
O251 O 0.15722 0.49185 0.75392 0.0
C252 C 0.00723 0.42286 0.82577 0.0
C253 C 0.03209 0.43148 0.83328 0.0
C254 C 0.05476 0.44372 0.8226 0.0
C255 C 0.05269 0.44825 0.80455 0.0
C256 C 0.02773 0.43937 0.79697 0.0
C257 C 0.00497 0.42629 0.80753 0.0
C258 C 0.98394 0.4114 0.83751 0.0
C259 C 0.97861 0.42685 0.84772 0.0
C260 C 0.96024 0.41684 0.8614 0.0
C261 C 0.94712 0.39122 0.86528 0.0
C262 C 0.95136 0.37557 0.85427 0.0
C263 C 0.96965 0.38563 0.84043 0.0
C264 C 0.03444 0.42859 0.8526 0.0
C265 C 0.04354 0.44916 0.86383 0.0
C266 C 0.04505 0.4464 0.88208 0.0
C267 C 0.03749 0.42299 0.88939 0.0
C268 C 0.02856 0.40245 0.87802 0.0
C269 C 0.0271 0.40525 0.85977 0.0
C270 C 0.08067 0.45191 0.83044 0.0
C271 C 0.09905 0.47729 0.83265 0.0
C272 C 0.1234 0.48488 0.84009 0.0
C273 C 0.12966 0.46718 0.84556 0.0
C274 C 0.11109 0.44175 0.84342 0.0
C275 C 0.08682 0.43418 0.83586 0.0
C276 C 0.07669 0.46256 0.79353 0.0
C277 C 0.08456 0.48669 0.78775 0.0
C278 C 0.10624 0.49966 0.77657 0.0
C279 C 0.12059 0.48879 0.77108 0.0
C280 C 0.11289 0.46475 0.77717 0.0
C281 C 0.0911 0.45174 0.78829 0.0
C282 C 0.02605 0.44528 0.77818 0.0
C283 C 0.02144 0.46446 0.77416 0.0
C284 C 0.02734 0.47527 0.7573 0.0
C285 C 0.03787 0.46698 0.74422 0.0
C286 C 0.04009 0.44618 0.74786 0.0
C287 C 0.03416 0.43538 0.76471 0.0
C288 C 0.97877 0.41499 0.79937 0.0
C289 C 0.96246 0.42438 0.80289 0.0
C290 C 0.93694 0.41223 0.79633 0.0
C291 C 0.92738 0.39052 0.7861 0.0
C292 C 0.94417 0.38168 0.78218 0.0
C293 C 0.96964 0.39383 0.78875 0.0
C294 C 0.03888 0.42008 0.9088 0.0
C295 C 0.14341 0.50236 0.75897 0.0
H296 H 0.38574 0.98309 0.86979 0.0
H297 H 0.39157 0.84279 0.02983 0.0
H298 H 0.42123 0.03367 0.95648 0.0
H299 H 0.44062 0.0675 0.9348 0.0
H300 H 0.51732 0.08017 0.94685 0.0
H301 H 0.49748 0.04515 0.96743 0.0
H302 H 0.38481 0.97437 0.947 0.0
H303 H 0.3773 0.97491 0.91519 0.0
H304 H 0.46015 0.00752 0.90535 0.0
H305 H 0.46732 0.00652 0.93714 0.0
H306 H 0.37183 0.92597 0.97331 0.0
H307 H 0.35662 0.88598 0.95843 0.0
H308 H 0.43248 0.91677 0.93344 0.0
H309 H 0.44749 0.9561 0.94845 0.0
H310 H 0.38651 0.945 0.01507 0.0
H311 H 0.37003 0.90535 0.03063 0.0
H312 H 0.42655 0.89432 0.00272 0.0
H313 H 0.44304 0.93413 0.98744 0.0
H314 H 0.42367 0.00136 0.02992 0.0
H315 H 0.43435 -0.00177 0.06086 0.0
H316 H 0.48389 0.97113 0.04297 0.0
H317 H 0.47358 0.97483 0.0123 0.0
H318 H 0.4426 0.04971 0.00034 0.0
H319 H 0.47293 0.08857 0.0158 0.0
H320 H 0.52948 0.06547 0.01896 0.0
H321 H 0.49936 0.02708 0.00347 0.0
O322 O 0.38914 0.983 0.8823 0.0
O323 O 0.43193 -1e-05 0.87798 0.0
O324 O 0.36915 0.86518 0.03798 0.0
O325 O 0.39772 0.85854 0.02389 0.0
C326 C 0.44563 0.01276 0.97325 0.0
C327 C 0.43101 0.99022 0.96374 0.0
C328 C 0.42155 0.96715 0.97243 0.0
C329 C 0.4258 0.9665 0.99077 0.0
C330 C 0.44063 0.98894 0.00022 0.0
C331 C 0.45078 0.01208 0.99145 0.0
C332 C 0.45788 0.03682 0.96348 0.0
C333 C 0.44227 0.0441 0.95466 0.0
C334 C 0.45346 0.06357 0.94233 0.0
C335 C 0.48055 0.07637 0.93884 0.0
C336 C 0.49633 0.07034 0.94887 0.0
C337 C 0.48508 0.05058 0.9609 0.0
C338 C 0.42663 0.99064 0.94439 0.0
C339 C 0.40129 0.9816 0.93794 0.0
C340 C 0.39707 0.98196 0.91977 0.0
C341 C 0.41814 0.99134 0.90773 0.0
C342 C 0.4435 0.00025 0.91426 0.0
C343 C 0.44767 -0.0002 0.93241 0.0
C344 C 0.41072 0.94397 0.96187 0.0
C345 C 0.38493 0.9241 0.96437 0.0
C346 C 0.37632 0.90134 0.95592 0.0
C347 C 0.3933 0.89832 0.94468 0.0
C348 C 0.41874 0.91863 0.94171 0.0
C349 C 0.42738 0.94114 0.95029 0.0
C350 C 0.41578 0.9423 3e-05 0.0
C351 C 0.39528 0.93397 0.01234 0.0
C352 C 0.38591 0.91132 0.0212 0.0
C353 C 0.39693 0.89662 0.01787 0.0
C354 C 0.41757 0.90513 0.00555 0.0
C355 C 0.42697 0.92781 -0.00324 0.0
C356 C 0.44766 0.98807 0.01894 0.0
C357 C 0.43698 0.99495 0.03276 0.0
C358 C 0.44304 0.9931 0.05037 0.0
C359 C 0.46 0.98448 0.05435 0.0
C360 C 0.47109 0.97819 0.04037 0.0
C361 C 0.46499 0.98 0.02285 0.0
C362 C 0.46867 0.03547 0.001 0.0
C363 C 0.46151 0.05308 0.00446 0.0
C364 C 0.47882 0.07521 0.01324 0.0
C365 C 0.50343 0.07989 0.01876 0.0
C366 C 0.51044 0.06215 0.01524 0.0
C367 C 0.49329 0.04023 0.00637 0.0
C368 C 0.4136 0.99175 0.88844 0.0
C369 C 0.38703 0.87253 0.02722 0.0
H370 H 0.61927 0.57602 0.02501 0.0
H371 H 0.68465 0.52957 0.21119 0.0
H372 H 0.57366 0.59537 0.1099 0.0
H373 H 0.56249 0.6149 0.08634 0.0
H374 H 0.63035 0.68625 0.09919 0.0
H375 H 0.64137 0.66641 0.12294 0.0
H376 H 0.59711 0.56279 0.10109 0.0
H377 H 0.60055 0.56104 0.06888 0.0
H378 H 0.66496 0.63747 0.06861 0.0
H379 H 0.66149 0.63885 0.10086 0.0
H380 H 0.60744 0.53789 0.13138 0.0
H381 H 0.62418 0.51256 0.11946 0.0
H382 H 0.69849 0.57955 0.10834 0.0
H383 H 0.68121 0.60462 0.11981 0.0
H384 H 0.59617 0.54686 0.17068 0.0
H385 H 0.60637 0.52285 0.19114 0.0
H386 H 0.68895 0.57306 0.18099 0.0
H387 H 0.67845 0.59714 0.16078 0.0
H388 H 0.57536 0.5808 0.17802 0.0
H389 H 0.56971 0.57111 0.20978 0.0
H390 H 0.6536 0.61532 0.21652 0.0
H391 H 0.65895 0.62515 0.18491 0.0
H392 H 0.56651 0.61221 0.14581 0.0
H393 H 0.55137 0.63813 0.15911 0.0
H394 H 0.62736 0.6845 0.1828 0.0
H395 H 0.64251 0.65878 0.1692 0.0
O396 O 0.6184 0.57706 0.03777 0.0
O397 O 0.65136 0.61641 0.03834 0.0
O398 O 0.63739 0.51357 0.20802 0.0
O399 O 0.68006 0.53864 0.20308 0.0
C400 C 0.61704 0.61661 0.13009 0.0
C401 C 0.62655 0.60205 0.12279 0.0
C402 C 0.63322 0.58827 0.13403 0.0
C403 C 0.63032 0.5889 0.15251 0.0
C404 C 0.62129 0.60383 0.15982 0.0
C405 C 0.61479 0.61785 0.14864 0.0
C406 C 0.60838 0.62948 0.11798 0.0
C407 C 0.58586 0.61528 0.10782 0.0
C408 C 0.57965 0.62643 0.09432 0.0
C409 C 0.59584 0.652 0.09077 0.0
C410 C 0.61757 0.6665 0.10167 0.0
C411 C 0.62386 0.65526 0.1152 0.0
C412 C 0.6291 0.60091 0.10328 0.0
C413 C 0.61207 0.57906 0.09405 0.0
C414 C 0.61402 0.57815 0.07565 0.0
C415 C 0.63302 0.59912 0.06616 0.0
C416 C 0.6501 0.62099 0.0755 0.0
C417 C 0.64817 0.62184 0.09391 0.0
C418 C 0.64317 0.57301 0.12644 0.0
C419 C 0.62729 0.547 0.12628 0.0
C420 C 0.63694 0.53261 0.11956 0.0
C421 C 0.66271 0.54402 0.11297 0.0
C422 C 0.67844 0.57017 0.11304 0.0
C423 C 0.66871 0.58453 0.11967 0.0
C424 C 0.63658 0.57375 0.1643 0.0
C425 C 0.61644 0.55263 0.1729 0.0
C426 C 0.62233 0.53894 0.18456 0.0
C427 C 0.6485 0.54606 0.18772 0.0
C428 C 0.6686 0.56708 0.17888 0.0
C429 C 0.66268 0.58082 0.16728 0.0
C430 C 0.61756 0.60351 0.17923 0.0
C431 C 0.59239 0.5891 0.18651 0.0
C432 C 0.58923 0.58343 0.20458 0.0
C433 C 0.61123 0.59221 0.21557 0.0
C434 C 0.63626 0.60844 0.20844 0.0
C435 C 0.63939 0.61404 0.19039 0.0
C436 C 0.60565 0.63371 0.15645 0.0
C437 C 0.57996 0.62813 0.1537 0.0
C438 C 0.57135 0.64291 0.16131 0.0
C439 C 0.58821 0.66331 0.17198 0.0
C440 C 0.61389 0.66876 0.17477 0.0
C441 C 0.62257 0.65416 0.16699 0.0
C442 C 0.6349 0.59815 0.0466 0.0
C443 C 0.65487 0.53171 0.20022 0.0
C444 C 0.70864 0.47723 0.40366 0.0
O445 O 0.71197 0.49702 0.41065 0.0
Cd446 Cd 0.67646 0.50378 0.41612 0.0
O447 O 0.68566 0.45928 0.40026 0.0
Cd448 Cd 0.63967 0.44823 0.40407 0.0
C449 C 0.6484 0.49222 0.37477 0.0
O450 O 0.6418 0.46922 0.43191 0.0
O451 O 0.6075 0.45702 0.41573 0.0
O452 O 0.62978 0.40868 0.41644 0.0
C453 C 0.61933 0.46651 0.43011 0.0
O454 O 0.66095 0.50761 0.38713 0.0
C455 C 0.61152 0.39517 0.40575 0.0
O456 O 0.6397 0.46907 0.37679 0.0
O457 O 0.6064 0.40637 0.39387 0.0
C458 C 0.27042 0.60401 0.56538 0.0
O459 O 0.25249 0.58481 0.55762 0.0
Cd460 Cd 0.21111 0.57968 0.54974 0.0
O461 O 0.26753 0.62235 0.56859 0.0
Cd462 Cd 0.23505 0.63503 0.56308 0.0
C463 C 0.191 0.58968 0.59016 0.0
O464 O 0.21928 0.61607 0.53402 0.0
O465 O 0.1964 0.62883 0.54739 0.0
O466 O 0.27165 0.67453 0.55308 0.0
C467 C 0.20031 0.61975 0.53358 0.0
O468 O 0.18795 0.57501 0.57752 0.0
C469 C 0.26694 0.68812 0.56291 0.0
O470 O 0.20827 0.61281 0.58913 0.0
O471 O 0.24739 0.67698 0.57334 0.0
C472 C 0.65673 0.23027 0.74027 0.0
O473 O 0.64787 0.20732 0.73756 0.0
Cd474 Cd 0.60212 0.17842 0.73234 0.0
O475 O 0.64148 0.23876 0.73983 0.0
Cd476 Cd 0.59494 0.22428 0.73434 0.0
C477 C 0.57529 0.1863 0.77011 0.0
O478 O 0.58818 0.1962 0.70988 0.0
O479 O 0.55339 0.19396 0.72042 0.0
O480 O 0.61119 0.26361 0.7187 0.0
C481 C 0.56375 0.18734 0.70867 0.0
O482 O 0.57963 0.17192 0.7608 0.0
C483 C 0.59704 0.26989 0.72705 0.0
O484 O 0.58072 0.20741 0.76412 0.0
O485 O 0.58172 0.25484 0.73881 0.0
C486 C 0.3883 0.59502 0.91092 0.0
O487 O 0.40326 0.58728 0.91557 0.0
Cd488 Cd 0.4492 0.61568 0.92044 0.0
O489 O 0.39732 0.61822 0.90888 0.0
Cd490 Cd 0.43851 0.65876 0.91116 0.0
C491 C 0.46712 0.64254 0.87932 0.0
O492 O 0.45234 0.64877 0.93845 0.0
O493 O 0.48065 0.68377 0.9263 0.0
O494 O 0.41244 0.67551 0.92229 0.0
C495 C 0.47419 0.66902 0.93939 0.0
O496 O 0.46828 0.62822 0.89075 0.0
C497 C 0.42078 0.69302 0.91099 0.0
O498 O 0.45636 0.65491 0.88315 0.0
O499 O 0.4374 0.69458 0.89972 0.0
C500 C 0.78648 0.40989 0.06054 0.0
O501 O 0.80926 0.42206 0.05376 0.0
Cd502 Cd 0.83466 0.40362 0.04733 0.0
O503 O 0.77556 0.38658 0.06349 0.0
Cd504 Cd 0.78401 0.35213 0.05907 0.0
C505 C 0.83393 0.3795 0.08849 0.0
O506 O 0.80522 0.36738 0.03061 0.0
O507 O 0.80603 0.33569 0.04073 0.0
O508 O 0.73812 0.32749 0.05083 0.0
C509 C 0.81098 0.35087 0.02811 0.0
O510 O 0.84658 0.39591 0.07661 0.0
C511 C 0.73268 0.30899 0.06066 0.0
O512 O 0.81062 0.36176 0.0857 0.0
O513 O 0.75115 0.31066 0.07002 0.0
C514 C 0.37147 0.77727 0.23785 0.0
O515 O 0.36566 0.79302 0.23262 0.0
Cd516 Cd 0.39802 0.83605 0.22835 0.0
O517 O 0.39529 0.78374 0.24017 0.0
Cd518 Cd 0.44011 0.82052 0.23658 0.0
C519 C 0.42725 0.84889 0.26955 0.0
O520 O 0.43088 0.83636 0.21008 0.0
O521 O 0.46819 0.86135 0.22213 0.0
O522 O 0.44816 0.78987 0.22382 0.0
C523 C 0.45261 0.85675 0.20935 0.0
O524 O 0.4134 0.8519 0.25818 0.0
C525 C 0.46926 0.79651 0.23203 0.0
O526 O 0.43842 0.83689 0.26562 0.0
O527 O 0.47721 0.81472 0.24264 0.0
H528 H 0.17566 0.54994 0.26794 0.0
H529 H 0.221 0.58285 0.26087 0.0
H530 H 0.20508 0.63822 0.28031 0.0
H531 H 0.16015 0.60569 0.28732 0.0
H532 H 0.23483 0.6254 0.23729 0.0
H533 H 0.27452 0.65408 0.30504 0.0
H534 H 0.24613 0.62394 0.30025 0.0
H535 H 0.24307 0.65085 0.30212 0.0
C536 C 0.18204 0.56914 0.27083 0.0
C537 C 0.16447 0.57539 0.27801 0.0
C538 C 0.20781 0.58784 0.2668 0.0
C539 C 0.21635 0.61285 0.27028 0.0
C540 C 0.19893 0.61898 0.27776 0.0
H541 H 0.31928 0.75572 0.23095 0.0
H542 H 0.28435 0.71324 0.23776 0.0
C543 C 0.17324 0.60044 0.28159 0.0
C544 C 0.24283 0.63308 0.2651 0.0
H545 H 0.29678 0.68429 0.28184 0.0
C546 C 0.2487 0.638 0.24701 0.0
C547 C 0.26091 0.64931 0.27781 0.0
C548 C 0.25601 0.64419 0.29741 0.0
C549 C 0.27142 0.65976 0.24129 0.0
C550 C 0.28845 0.67698 0.25402 0.0
C551 C 0.28353 0.67115 0.2721 0.0
C552 C 0.31004 0.70209 0.24893 0.0
C553 C 0.27662 0.66455 0.22169 0.0
C554 C 0.33601 0.70997 0.25322 0.0
C555 C 0.35609 0.73431 0.24937 0.0
C556 C 0.35043 0.75124 0.24139 0.0
C557 C 0.32434 0.74318 0.23709 0.0
C558 C 0.30436 0.71884 0.24083 0.0
H559 H 0.2665 0.64694 0.21403 0.0
H560 H 0.26916 0.67651 0.21709 0.0
H561 H 0.29792 0.67431 0.21874 0.0
H562 H 0.3407 0.69734 0.25964 0.0
H563 H 0.37596 0.73993 0.2529 0.0
H564 H 0.52863 0.16738 0.43461 0.0
H565 H 0.54702 0.21035 0.4247 0.0
H566 H 0.47334 0.20503 0.43546 0.0
H567 H 0.45505 0.16227 0.44606 0.0
H568 H 0.53224 0.23189 0.39824 0.0
H569 H 0.52552 0.26433 0.46548 0.0
H570 H 0.52114 0.23407 0.46165 0.0
H571 H 0.49523 0.23965 0.45666 0.0
C572 C 0.51635 0.17537 0.43495 0.0
C573 C 0.49049 0.16152 0.44136 0.0
C574 C 0.52682 0.19985 0.42913 0.0
C575 C 0.51165 0.21096 0.4296 0.0
C576 C 0.48549 0.19689 0.43526 0.0
H577 H 0.56839 0.36119 0.38703 0.0
H578 H 0.54246 0.31597 0.39157 0.0
C579 C 0.475 0.17239 0.44115 0.0
C580 C 0.52379 0.23762 0.42495 0.0
H581 H 0.54248 0.29434 0.4427 0.0
C582 C 0.53434 0.24557 0.40789 0.0
C583 C 0.5267 0.25538 0.43767 0.0
C584 C 0.51677 0.24806 0.45644 0.0
C585 C 0.5481 0.27092 0.40327 0.0
C586 C 0.55103 0.28866 0.41601 0.0
C587 C 0.54006 0.28064 0.43295 0.0
C588 C 0.56696 0.31577 0.41255 0.0
C589 C 0.56022 0.27861 0.38505 0.0
C590 C 0.58912 0.33059 0.42293 0.0
C591 C 0.60379 0.35631 0.42046 0.0
C592 C 0.59656 0.36777 0.40756 0.0
C593 C 0.57451 0.35287 0.397 0.0
C594 C 0.55975 0.32705 0.39953 0.0
H595 H 0.5607 0.26326 0.37814 0.0
H596 H 0.54856 0.28409 0.37692 0.0
H597 H 0.5805 0.29489 0.38585 0.0
H598 H 0.59499 0.32223 0.43305 0.0
H599 H 0.62066 0.36723 0.42881 0.0
H600 H 0.47652 0.61938 0.6365 0.0
H601 H 0.44311 0.62778 0.62564 0.0
H602 H 0.41569 0.56672 0.58907 0.0
H603 H 0.44911 0.55845 0.59956 0.0
H604 H 0.42965 0.63466 0.58732 0.0
H605 H 0.35247 0.5517 0.62374 0.0
H606 H 0.38672 0.56692 0.62942 0.0
H607 H 0.37453 0.54689 0.61048 0.0
C608 C 0.46369 0.60807 0.62591 0.0
C609 C 0.46518 0.58803 0.61905 0.0
C610 C 0.44461 0.61284 0.61978 0.0
C611 C 0.42682 0.59763 0.60675 0.0
C612 C 0.42909 0.57844 0.5993 0.0
H613 H 0.28425 0.5695 0.55903 0.0
H614 H 0.32346 0.57022 0.56897 0.0
C615 C 0.4481 0.57368 0.60537 0.0
C616 C 0.40477 0.60063 0.60158 0.0
H617 H 0.3382 0.5711 0.60364 0.0
C618 C 0.40965 0.62095 0.59098 0.0
C619 C 0.37879 0.58266 0.60644 0.0
C620 C 0.37267 0.56087 0.61826 0.0
C621 C 0.38896 0.62328 0.58453 0.0
C622 C 0.36289 0.605 0.58911 0.0
C623 C 0.35818 0.58501 0.60008 0.0
C624 C 0.34001 0.60565 0.58232 0.0
C625 C 0.39509 0.64473 0.57237 0.0
C626 C 0.3363 0.62535 0.58655 0.0
C627 C 0.31388 0.62504 0.58083 0.0
C628 C 0.29467 0.60489 0.57092 0.0
C629 C 0.29859 0.58528 0.56665 0.0
C630 C 0.32101 0.58566 0.57231 0.0
H631 H 0.41524 0.65361 0.56681 0.0
H632 H 0.38098 0.63849 0.56125 0.0
H633 H 0.39354 0.65905 0.57992 0.0
H634 H 0.35045 0.64071 0.59457 0.0
H635 H 0.31143 0.64039 0.58442 0.0
H636 H 0.90807 0.36795 0.75408 0.0
H637 H 0.86216 0.34184 0.74553 0.0
H638 H 0.83815 0.35529 0.79615 0.0
H639 H 0.88394 0.38066 0.80506 0.0
H640 H 0.81234 0.30565 0.78736 0.0
H641 H 0.80967 0.36188 0.73156 0.0
H642 H 0.83496 0.35464 0.72961 0.0
H643 H 0.83605 0.37419 0.74736 0.0
C644 C 0.89302 0.36539 0.76338 0.0
C645 C 0.89967 0.37641 0.78025 0.0
C646 C 0.86681 0.35069 0.7584 0.0
C647 C 0.84678 0.3469 0.77013 0.0
C648 C 0.85334 0.35813 0.78687 0.0
H649 H 0.68167 0.27989 0.74797 0.0
H650 H 0.7278 0.30779 0.75512 0.0
C651 C 0.87953 0.37279 0.79187 0.0
C652 C 0.81895 0.33013 0.76536 0.0
H653 H 0.77243 0.32118 0.7352 0.0
C654 C 0.80357 0.30907 0.77599 0.0
C655 C 0.80755 0.33478 0.75061 0.0
C656 C 0.82281 0.35772 0.7392 0.0
C657 C 0.77711 0.29237 0.77219 0.0
C658 C 0.7659 0.29663 0.75715 0.0
C659 C 0.78119 0.31784 0.74662 0.0
C660 C 0.73811 0.27964 0.75241 0.0
C661 C 0.76129 0.27059 0.7845 0.0
C662 C 0.72871 0.25464 0.74827 0.0
C663 C 0.70229 0.23857 0.74425 0.0
C664 C 0.68486 0.2473 0.74415 0.0
C665 C 0.69451 0.27251 0.74797 0.0
C666 C 0.72089 0.28852 0.75203 0.0
H667 H 0.77082 0.27348 0.79761 0.0
H668 H 0.74133 0.26732 0.78655 0.0
H669 H 0.75936 0.25357 0.77857 0.0
H670 H 0.74181 0.24755 0.74815 0.0
H671 H 0.69557 0.21933 0.74124 0.0
H672 H 0.40179 0.88756 0.91117 0.0
H673 H 0.39859 0.849 0.90134 0.0
H674 H 0.36574 0.81508 0.952 0.0
H675 H 0.36908 0.85362 0.96197 0.0
H676 H 0.42717 0.83236 0.92037 0.0
H677 H 0.32217 0.75852 0.91637 0.0
H678 H 0.33335 0.79131 0.91538 0.0
H679 H 0.3313 0.77669 0.9363 0.0
C680 C 0.39331 0.87167 0.92005 0.0
C681 C 0.38588 0.87364 0.93739 0.0
C682 C 0.39139 0.84966 0.9144 0.0
C683 C 0.38181 0.82919 0.92591 0.0
C684 C 0.37271 0.83051 0.94279 0.0
H685 H 0.39142 0.6983 0.9364 0.0
H686 H 0.38045 0.73071 0.93823 0.0
C687 C 0.37464 0.85256 0.94848 0.0
C688 C 0.38528 0.80819 0.9214 0.0
H689 H 0.35297 0.74509 0.91667 0.0
C690 C 0.41094 0.8133 0.91929 0.0
C691 C 0.36407 0.7834 0.92026 0.0
C692 C 0.33613 0.77707 0.92205 0.0
C693 C 0.41609 0.79419 0.91663 0.0
C694 C 0.39489 0.76931 0.91557 0.0
C695 C 0.36915 0.7642 0.9174 0.0
C696 C 0.39931 0.74836 0.91344 0.0
C697 C 0.44423 0.80076 0.91577 0.0
C698 C 0.41294 0.74718 0.89866 0.0
C699 C 0.41954 0.72889 0.89769 0.0
C700 C 0.41223 0.71125 0.91136 0.0
C701 C 0.39744 0.71173 0.92571 0.0
C702 C 0.39107 0.73017 0.92675 0.0
H703 H 0.45783 0.81956 0.92124 0.0
H704 H 0.44694 0.78699 0.92319 0.0
H705 H 0.44982 0.80072 0.90174 0.0
H706 H 0.41897 0.76074 0.88806 0.0
H707 H 0.43066 0.72879 0.88636 0.0
H708 H 0.6949 0.55316 0.08435 0.0
H709 H 0.71445 0.52916 0.07475 0.0
H710 H 0.67392 0.47615 0.11679 0.0
H711 H 0.65493 0.50039 0.12692 0.0
H712 H 0.74483 0.51472 0.10123 0.0
H713 H 0.6593 0.43675 0.06678 0.0
H714 H 0.66337 0.46722 0.06885 0.0
H715 H 0.65396 0.44707 0.08778 0.0
C716 C 0.69022 0.53647 0.09163 0.0
C717 C 0.67339 0.52875 0.10645 0.0
C718 C 0.70126 0.52272 0.08604 0.0
C719 C 0.69541 0.5009 0.09502 0.0
C720 C 0.67836 0.49285 0.10961 0.0
H721 H 0.74181 0.39229 0.08037 0.0
H722 H 0.71991 0.41459 0.08881 0.0
C723 C 0.66745 0.50667 0.1153 0.0
C724 C 0.70823 0.48719 0.08972 0.0
H725 H 0.69745 0.4346 0.0689 0.0
C726 C 0.73458 0.49723 0.09411 0.0
C727 C 0.69457 0.46434 0.08064 0.0
C728 C 0.66624 0.4531 0.07561 0.0
C729 C 0.7477 0.4848 0.08979 0.0
C730 C 0.73422 0.46211 0.08037 0.0
C731 C 0.70776 0.45204 0.07605 0.0
C732 C 0.74724 0.44852 0.07491 0.0
C733 C 0.77564 0.4958 0.09576 0.0
C734 C 0.76957 0.46006 0.06403 0.0
C735 C 0.78229 0.44749 0.05934 0.0
C736 C 0.77263 0.42297 0.06519 0.0
C737 C 0.74979 0.41119 0.07567 0.0
C738 C 0.73723 0.42388 0.0805 0.0
H739 H 0.78035 0.50877 0.10705 0.0
H740 H 0.77954 0.48103 0.09982 0.0
H741 H 0.78905 0.5065 0.08466 0.0
H742 H 0.7772 0.47883 0.05917 0.0
H743 H 0.79964 0.457 0.05107 0.0
H744 H 0.40261 0.9042 0.49958 0.0
H745 H 0.38168 0.86241 0.51249 0.0
H746 H 0.34669 0.88409 0.55318 0.0
H747 H 0.36786 0.92607 0.54055 0.0
H748 H 0.38486 0.84729 0.54851 0.0
H749 H 0.28415 0.8221 0.52934 0.0
H750 H 0.31305 0.84809 0.51952 0.0
H751 H 0.30302 0.85058 0.54148 0.0
C752 C 0.39075 0.9002 0.5114 0.0
C753 C 0.38678 0.91845 0.51896 0.0
C754 C 0.37872 0.87629 0.51871 0.0
C755 C 0.36242 0.87014 0.53363 0.0
C756 C 0.35887 0.8884 0.54147 0.0
H757 H 0.26004 0.72251 0.58049 0.0
H758 H 0.2846 0.76777 0.57605 0.0
C759 C 0.37092 0.91233 0.5342 0.0
C760 C 0.34878 0.84444 0.54074 0.0
H761 H 0.2884 0.7919 0.54484 0.0
C762 C 0.36376 0.83518 0.54781 0.0
C763 C 0.32125 0.82882 0.53991 0.0
C764 C 0.30433 0.83773 0.53205 0.0
C765 C 0.35193 0.81053 0.55392 0.0
C766 C 0.32447 0.79463 0.55252 0.0
C767 C 0.30944 0.80414 0.54592 0.0
C768 C 0.31112 0.76764 0.55651 0.0
C769 C 0.36895 0.80177 0.5618 0.0
C770 C 0.31791 0.75261 0.54702 0.0
C771 C 0.304 0.72687 0.54954 0.0
C772 C 0.28283 0.71557 0.56149 0.0
C773 C 0.2763 0.73067 0.57123 0.0
C774 C 0.29028 0.7565 0.5687 0.0
H775 H 0.38735 0.81757 0.56724 0.0
H776 H 0.35854 0.78791 0.57253 0.0
H777 H 0.37438 0.7929 0.5513 0.0
H778 H 0.33348 0.7607 0.53723 0.0
H779 H 0.30947 0.71579 0.54176 0.0
H780 H 0.62459 0.48654 0.69501 0.0
H781 H 0.63207 0.45256 0.70207 0.0
H782 H 0.55153 0.39887 0.68987 0.0
H783 H 0.54409 0.43247 0.68237 0.0
H784 H 0.60633 0.41422 0.72766 0.0
H785 H 0.59273 0.37623 0.65972 0.0
H786 H 0.59827 0.40682 0.6642 0.0
H787 H 0.56619 0.37969 0.6671 0.0
C788 C 0.60856 0.46747 0.69371 0.0
C789 C 0.58374 0.46218 0.68817 0.0
C790 C 0.61283 0.44813 0.69781 0.0
C791 C 0.59243 0.42324 0.69625 0.0
C792 C 0.56763 0.41795 0.69089 0.0
H793 H 0.5677 0.28725 0.74178 0.0
H794 H 0.56914 0.32593 0.73467 0.0
C795 C 0.56334 0.4372 0.68682 0.0
C796 C 0.59671 0.40264 0.70053 0.0
H797 H 0.59133 0.35006 0.68324 0.0
C798 C 0.60334 0.40031 0.71793 0.0
C799 C 0.59315 0.38475 0.68773 0.0
C800 C 0.58745 0.38707 0.66859 0.0
C801 C 0.60549 0.37995 0.72306 0.0
C802 C 0.60047 0.36133 0.71049 0.0
C803 C 0.59487 0.36421 0.69291 0.0
C804 C 0.60034 0.33841 0.71531 0.0
C805 C 0.61312 0.37858 0.74187 0.0
C806 C 0.617 0.33234 0.70651 0.0
C807 C 0.61605 0.31015 0.71042 0.0
C808 C 0.59831 0.29356 0.72315 0.0
C809 C 0.58167 0.2997 0.73197 0.0
C810 C 0.5826 0.32188 0.72802 0.0
H811 H 0.62356 0.39724 0.74816 0.0
H812 H 0.59518 0.3665 0.74978 0.0
H813 H 0.62582 0.37052 0.74242 0.0
H814 H 0.63071 0.34477 0.69657 0.0
H815 H 0.62913 0.30595 0.70339 0.0
H816 H 0.17747 0.50455 0.83415 0.0
H817 H 0.22 0.519 0.84779 0.0
H818 H 0.18297 0.46248 0.88825 0.0
H819 H 0.14015 0.44819 0.87486 0.0
H820 H 0.21733 0.51034 0.90139 0.0
H821 H 0.26423 0.48617 0.84817 0.0
H822 H 0.2499 0.50333 0.84013 0.0
H823 H 0.22924 0.47283 0.84955 0.0
C824 C 0.17838 0.4952 0.84595 0.0
C825 C 0.15551 0.47527 0.85346 0.0
C826 C 0.2027 0.50327 0.8536 0.0
C827 C 0.20462 0.49151 0.86883 0.0
C828 C 0.18187 0.47158 0.87637 0.0
H829 H 0.36326 0.54416 0.90842 0.0
H830 H 0.31734 0.51523 0.90069 0.0
C831 C 0.1575 0.46341 0.86868 0.0
C832 C 0.23029 0.50127 0.87744 0.0
H833 H 0.29323 0.51721 0.86899 0.0
C834 C 0.23384 0.51146 0.89446 0.0
C835 C 0.25165 0.50231 0.86849 0.0
C836 C 0.24855 0.49034 0.85064 0.0
C837 C 0.25867 0.52415 0.90227 0.0
C838 C 0.2804 0.5269 0.8927 0.0
C839 C 0.27654 0.51527 0.87621 0.0
C840 C 0.30752 0.5438 0.89873 0.0
C841 C 0.26156 0.53507 0.9205 0.0
C842 C 0.3171 0.56935 0.90008 0.0
C843 C 0.34321 0.58587 0.90437 0.0
C844 C 0.36031 0.57715 0.90735 0.0
C845 C 0.35056 0.55144 0.90626 0.0
C846 C 0.32438 0.5349 0.90185 0.0
H847 H 0.24288 0.52509 0.92808 0.0
H848 H 0.27701 0.53438 0.92815 0.0
H849 H 0.26716 0.55483 0.9192 0.0
H850 H 0.30451 0.57662 0.89736 0.0
H851 H 0.35005 0.60553 0.90509 0.0
H852 H 0.53369 0.08622 0.0476 0.0
H853 H 0.56918 0.12546 0.05952 0.0
H854 H 0.55195 0.1662 0.02144 0.0
H855 H 0.51643 0.12702 0.00945 0.0
H856 H 0.61168 0.15826 0.03917 0.0
H857 H 0.56274 0.20547 0.06702 0.0
H858 H 0.54535 0.17252 0.06235 0.0
H859 H 0.55311 0.19464 0.04475 0.0
C860 C 0.53726 0.10357 0.04193 0.0
C861 C 0.52241 0.10358 0.02753 0.0
C862 C 0.55742 0.12594 0.04881 0.0
C863 C 0.56302 0.14872 0.04148 0.0
C864 C 0.54757 0.14884 0.02755 0.0
H865 H 0.69096 0.29962 0.04026 0.0
H866 H 0.64907 0.26047 0.03775 0.0
C867 C 0.52733 0.12644 0.02069 0.0
C868 C 0.58683 0.17208 0.04696 0.0
H869 H 0.60902 0.23076 0.06232 0.0
C870 C 0.6111 0.17401 0.04447 0.0
C871 C 0.58597 0.19259 0.05375 0.0
C872 C 0.56038 0.1912 0.05729 0.0
C873 C 0.63463 0.1962 0.048 0.0
C874 C 0.63382 0.21687 0.05455 0.0
C875 C 0.60954 0.21484 0.05735 0.0
C876 C 0.65809 0.24113 0.05756 0.0
C877 C 0.66015 0.19763 0.04398 0.0
C878 C 0.67672 0.2434 0.06988 0.0
C879 C 0.70078 0.2657 0.07127 0.0
C880 C 0.70646 0.28615 0.06044 0.0
C881 C 0.68723 0.28416 0.04872 0.0
C882 C 0.66325 0.26184 0.0473 0.0
H883 H 0.65733 0.18213 0.03535 0.0
H884 H 0.67419 0.21553 0.03739 0.0
H885 H 0.66904 0.19648 0.05656 0.0
H886 H 0.67288 0.22773 0.07815 0.0
H887 H 0.71511 0.26674 0.08053 0.0
H888 H 0.56117 0.68225 0.15625 0.0
H889 H 0.54532 0.70735 0.16995 0.0
H890 H 0.57844 0.70444 0.21989 0.0
H891 H 0.59435 0.67923 0.20627 0.0
H892 H 0.52274 0.6912 0.21992 0.0
H893 H 0.59168 0.78181 0.18766 0.0
H894 H 0.57657 0.75539 0.17311 0.0
H895 H 0.59864 0.75717 0.18993 0.0
C896 C 0.56506 0.68695 0.17015 0.0
C897 C 0.579 0.67883 0.1802 0.0
C898 C 0.55619 0.70142 0.1779 0.0
C899 C 0.561 0.70791 0.19585 0.0
C900 C 0.57477 0.69975 0.20598 0.0
H901 H 0.51838 0.80996 0.24362 0.0
H902 H 0.54249 0.78883 0.23734 0.0
C903 C 0.58389 0.68547 0.19818 0.0
C904 C 0.55063 0.72239 0.2041 0.0
H905 H 0.55427 0.77835 0.20194 0.0
C906 C 0.52983 0.71036 0.2162 0.0
C907 C 0.56017 0.74743 0.19934 0.0
C908 C 0.58315 0.76137 0.18691 0.0
C909 C 0.51741 0.72241 0.22301 0.0
C910 C 0.526 0.74699 0.21747 0.0
C911 C 0.54768 0.75945 0.20608 0.0
C912 C 0.51132 0.75926 0.22209 0.0
C913 C 0.49484 0.70858 0.23578 0.0
C914 C 0.486 0.74968 0.21547 0.0
C915 C 0.47235 0.76172 0.2189 0.0
C916 C 0.48374 0.7836 0.22905 0.0
C917 C 0.50907 0.79309 0.23582 0.0
C918 C 0.52285 0.78109 0.23225 0.0
H919 H 0.49521 0.69291 0.24231 0.0
H920 H 0.49514 0.72126 0.24614 0.0
H921 H 0.47617 0.70079 0.22843 0.0
H922 H 0.47696 0.73309 0.20736 0.0
H923 H 0.45289 0.75393 0.21347 0.0
H924 H 0.88513 0.44286 0.33309 0.0
H925 H 0.84561 0.43963 0.34584 0.0
H926 H 0.89308 0.51053 0.37143 0.0
H927 H 0.93252 0.51382 0.35893 0.0
H928 H 0.83175 0.44216 0.38248 0.0
H929 H 0.84088 0.51919 0.34075 0.0
H930 H 0.85835 0.50351 0.33592 0.0
H931 H 0.86983 0.52675 0.35295 0.0
C932 C 0.88713 0.4576 0.34159 0.0
C933 C 0.91189 0.47876 0.3448 0.0
C934 C 0.86457 0.45576 0.34881 0.0
C935 C 0.86647 0.47506 0.35929 0.0
C936 C 0.8912 0.4957 0.36306 0.0
H937 H 0.76048 0.51193 0.40862 0.0
H938 H 0.79829 0.5098 0.39881 0.0
C939 C 0.91369 0.49756 0.35587 0.0
C940 C 0.84265 0.47408 0.36597 0.0
H941 H 0.80919 0.5045 0.36378 0.0
C942 C 0.82666 0.45565 0.37834 0.0
C943 C 0.83614 0.49174 0.3605 0.0
C944 C 0.85204 0.5113 0.34668 0.0
C945 C 0.80464 0.45485 0.38579 0.0
C946 C 0.79834 0.47272 0.38046 0.0
C947 C 0.81419 0.49093 0.36793 0.0
C948 C 0.77535 0.47295 0.3876 0.0
C949 C 0.78872 0.43533 0.39961 0.0
C950 C 0.74991 0.45289 0.38459 0.0
C951 C 0.72823 0.45402 0.39019 0.0
C952 C 0.7316 0.47534 0.3988 0.0
C953 C 0.75715 0.49524 0.40203 0.0
C954 C 0.7788 0.49406 0.39644 0.0
H955 H 0.79976 0.42725 0.40543 0.0
H956 H 0.78264 0.44323 0.41044 0.0
H957 H 0.77079 0.42002 0.39338 0.0
H958 H 0.74681 0.43662 0.37748 0.0
H959 H 0.70884 0.43839 0.38742 0.0
H960 H 0.08828 0.57391 0.3842 0.0
H961 H 0.11167 0.58895 0.41211 0.0
H962 H 0.04508 0.53044 0.44029 0.0
H963 H 0.02149 0.51507 0.4122 0.0
H964 H 0.10121 0.60528 0.4433 0.0
H965 H 0.10431 0.51926 0.45391 0.0
H966 H 0.09441 0.52613 0.43318 0.0
H967 H 0.07209 0.51445 0.45165 0.0
C968 C 0.07835 0.56455 0.39637 0.0
C969 C 0.053 0.54335 0.39604 0.0
C970 C 0.09182 0.57309 0.4123 0.0
C971 C 0.08025 0.56061 0.42822 0.0
C972 C 0.05453 0.54005 0.42808 0.0
H973 H 0.15461 0.61958 0.53095 0.0
H974 H 0.12418 0.60516 0.50604 0.0
C975 C 0.04106 0.53135 0.41208 0.0
C976 C 0.09577 0.56867 0.44473 0.0
H977 H 0.12359 0.55019 0.47585 0.0
C978 C 0.10599 0.59322 0.45051 0.0
C979 C 0.10226 0.55296 0.45392 0.0
C980 C 0.09292 0.5268 0.44781 0.0
C981 C 0.1228 0.60261 0.46513 0.0
C982 C 0.1291 0.58683 0.4744 0.0
C983 C 0.11861 0.56219 0.46875 0.0
C984 C 0.14747 0.59575 0.48952 0.0
C985 C 0.13439 0.62957 0.47011 0.0
C986 C 0.17036 0.59472 0.48865 0.0
C987 C 0.18762 0.60267 0.50292 0.0
C988 C 0.1823 0.6118 0.51834 0.0
C989 C 0.15935 0.61281 0.5192 0.0
C990 C 0.142 0.6047 0.50494 0.0
H991 H 0.13286 0.64056 0.45914 0.0
H992 H 0.12362 0.63074 0.48171 0.0
H993 H 0.15531 0.63821 0.47378 0.0
H994 H 0.1749 0.5878 0.47688 0.0
H995 H 0.20512 0.60163 0.50188 0.0
H996 H 0.41381 0.03874 0.58327 0.0
H997 H 0.42948 0.06117 0.61143 0.0
H998 H 0.50926 0.09209 0.59394 0.0
H999 H 0.49403 0.07073 0.56577 0.0
H1000 H 0.46533 0.06189 0.63793 0.0
H1001 H 0.50297 0.15324 0.60493 0.0
H1002 H 0.48005 0.12414 0.59446 0.0
H1003 H 0.51437 0.13472 0.59483 0.0
C1004 C 0.43468 0.05024 0.58548 0.0
C1005 C 0.45264 0.05291 0.57224 0.0
C1006 C 0.44357 0.06293 0.60158 0.0
C1007 C 0.47049 0.07855 0.60458 0.0
C1008 C 0.48839 0.08037 0.59174 0.0
H1009 H 0.58167 0.17302 0.68061 0.0
H1010 H 0.5561 0.14527 0.65641 0.0
C1011 C 0.4796 0.06783 0.57572 0.0
C1012 C 0.48027 0.09386 0.62076 0.0
H1013 H 0.51855 0.1541 0.63424 0.0
C1014 C 0.47661 0.08205 0.63723 0.0
C1015 C 0.4948 0.12016 0.61975 0.0
C1016 C 0.49809 0.13385 0.60257 0.0
C1017 C 0.48834 0.09595 0.65261 0.0
C1018 C 0.50394 0.12215 0.65136 0.0
C1019 C 0.50672 0.13396 0.63505 0.0
C1020 C 0.5188 0.1377 0.66661 0.0
C1021 C 0.48498 0.08264 0.66995 0.0
C1022 C 0.50616 0.14258 0.68028 0.0
C1023 C 0.52073 0.15858 0.69408 0.0
C1024 C 0.54813 0.16987 0.6944 0.0
C1025 C 0.56061 0.16462 0.68076 0.0
C1026 C 0.54606 0.14877 0.66694 0.0
H1027 H 0.4739 0.06209 0.66841 0.0
H1028 H 0.50443 0.08861 0.67572 0.0
H1029 H 0.47433 0.08771 0.67948 0.0
H1030 H 0.48512 0.13433 0.6801 0.0
H1031 H 0.51057 0.16226 0.70442 0.0
H1032 H 0.55959 0.62057 0.73347 0.0
H1033 H 0.55062 0.63306 0.76193 0.0
H1034 H 0.47907 0.62405 0.74122 0.0
H1035 H 0.48806 0.61181 0.71247 0.0
H1036 H 0.53916 0.67104 0.77263 0.0
H1037 H 0.45685 0.57367 0.78326 0.0
H1038 H 0.48133 0.58188 0.76624 0.0
H1039 H 0.45589 0.58869 0.76322 0.0
C1040 C 0.5423 0.62192 0.73476 0.0
C1041 C 0.52446 0.6151 0.72072 0.0
C1042 C 0.53717 0.62895 0.75108 0.0
C1043 C 0.51407 0.62918 0.75368 0.0
C1044 C 0.49686 0.62367 0.73947 0.0
H1045 H 0.468 0.67102 0.85147 0.0
H1046 H 0.48059 0.66989 0.82077 0.0
C1047 C 0.50198 0.61664 0.72311 0.0
C1048 C 0.50708 0.63305 0.77168 0.0
H1049 H 0.46526 0.60229 0.80605 0.0
C1050 C 0.52289 0.65613 0.77993 0.0
C1051 C 0.48607 0.61337 0.78117 0.0
C1052 C 0.46911 0.58792 0.77314 0.0
C1053 C 0.51824 0.66001 0.79754 0.0
C1054 C 0.49722 0.64031 0.807 0.0
C1055 C 0.48132 0.61733 0.79869 0.0
C1056 C 0.49173 0.64272 0.82576 0.0
C1057 C 0.53622 0.68484 0.80609 0.0
C1058 C 0.49386 0.62782 0.83867 0.0
C1059 C 0.48666 0.62835 0.8562 0.0
C1060 C 0.47696 0.64367 0.8611 0.0
C1061 C 0.47542 0.65902 0.84816 0.0
C1062 C 0.48271 0.65851 0.83062 0.0
H1063 H 0.55429 0.69641 0.79814 0.0
H1064 H 0.52586 0.69516 0.80744 0.0
H1065 H 0.54183 0.68222 0.81957 0.0
H1066 H 0.50072 0.61545 0.83512 0.0
H1067 H 0.4881 0.61629 0.8658 0.0
H1068 H 0.90004 0.34724 0.86968 0.0
H1069 H 0.87365 0.3317 0.89687 0.0
H1070 H 0.93078 0.39766 0.92454 0.0
H1071 H 0.95766 0.41268 0.89787 0.0
H1072 H 0.91409 0.35513 0.94406 0.0
H1073 H 0.82963 0.35861 0.91667 0.0
H1074 H 0.83909 0.3397 0.90482 0.0
H1075 H 0.86088 0.37286 0.9055 0.0
C1076 C 0.90703 0.35831 0.88161 0.0
C1077 C 0.93073 0.3814 0.88153 0.0
C1078 C 0.89184 0.3495 0.89708 0.0
C1079 C 0.90007 0.36372 0.91264 0.0
C1080 C 0.92398 0.38645 0.91266 0.0
H1081 H 0.8283 0.38441 0.00109 0.0
H1082 H 0.848 0.38299 0.97315 0.0
C1083 C 0.93917 0.39517 0.89731 0.0
C1084 C 0.88386 0.35561 0.92897 0.0
H1085 H 0.82752 0.34799 0.94668 0.0
C1086 C 0.89498 0.35321 0.94464 0.0
C1087 C 0.859 0.35324 0.92963 0.0
C1088 C 0.84642 0.35639 0.91332 0.0
C1089 C 0.88252 0.34972 0.9611 0.0
C1090 C 0.85801 0.34807 0.96182 0.0
C1091 C 0.84629 0.34922 0.94604 0.0
C1092 C 0.84565 0.34812 0.97886 0.0
C1093 C 0.89639 0.34931 0.97765 0.0
C1094 C 0.83772 0.32892 0.99137 0.0
C1095 C 0.82663 0.3298 0.00753 0.0
C1096 C 0.82306 0.34977 0.01128 0.0
C1097 C 0.83078 0.36877 -0.00138 0.0
C1098 C 0.84197 0.36796 0.9826 0.0
H1099 H 0.91722 0.3555 0.97505 0.0
H1100 H 0.89562 0.36146 0.98799 0.0
H1101 H 0.88651 0.33005 0.98298 0.0
H1102 H 0.83999 0.31323 0.98862 0.0
H1103 H 0.82066 0.3148 0.01698 0.0
H1104 H 0.42449 0.96385 0.0814 0.0
H1105 H 0.43116 0.95121 0.11054 0.0
H1106 H 0.51294 0.98228 0.09839 0.0
H1107 H 0.50646 0.99521 0.06919 0.0
H1108 H 0.48773 0.93304 0.10807 0.0
H1109 H 0.46625 0.98585 0.15682 0.0
H1110 H 0.44136 0.97132 0.14024 0.0
H1111 H 0.47394 0.99528 0.13389 0.0
C1112 C 0.44407 0.96872 0.08512 0.0
C1113 C 0.46492 0.98039 0.07295 0.0
C1114 C 0.44787 0.96151 0.10182 0.0
C1115 C 0.4726 0.96602 0.10669 0.0
C1116 C 0.49372 0.97872 0.0949 0.0
H1117 H 0.49389 0.9049 0.20657 0.0
H1118 H 0.50276 0.93449 0.18231 0.0
C1119 C 0.48995 0.98595 0.0782 0.0
C1120 C 0.47545 0.95449 0.12298 0.0
H1121 H 0.46218 0.94761 0.16737 0.0
C1122 C 0.48268 0.93662 0.12109 0.0
C1123 C 0.46902 0.95927 0.13997 0.0
C1124 C 0.46246 0.97917 0.14291 0.0
C1125 C 0.4821 0.92235 0.13556 0.0
C1126 C 0.47397 0.92598 0.15227 0.0
C1127 C 0.46823 0.94481 0.15445 0.0
C1128 C 0.46882 0.90867 0.1671 0.0
C1129 C 0.48924 0.90282 0.13279 0.0
C1130 C 0.44676 0.88458 0.1665 0.0
C1131 C 0.44159 0.86779 0.18026 0.0
C1132 C 0.45847 0.87477 0.19486 0.0
C1133 C 0.4806 0.89899 0.19545 0.0
C1134 C 0.48565 0.9159 0.18168 0.0
H1135 H 0.50025 0.90583 0.12022 0.0
H1136 H 0.50121 0.90274 0.14398 0.0
H1137 H 0.47107 0.8842 0.13226 0.0
H1138 H 0.43352 0.87878 0.15535 0.0
H1139 H 0.42438 0.8493 0.17941 0.0
H1140 H 0.58141 0.54371 0.22571 0.0
H1141 H 0.58262 0.52542 0.254 0.0
H1142 H 0.63772 0.5985 0.27405 0.0
H1143 H 0.63616 0.61705 0.24587 0.0
H1144 H 0.62974 0.53122 0.26649 0.0
H1145 H 0.58577 0.56491 0.31557 0.0
H1146 H 0.58034 0.56471 0.29202 0.0
H1147 H 0.61044 0.58874 0.30155 0.0
C1148 C 0.59308 0.55598 0.23635 0.0
C1149 C 0.60863 0.58185 0.23361 0.0
C1150 C 0.59389 0.54547 0.25244 0.0
C1151 C 0.6101 0.56062 0.26611 0.0
C1152 C 0.62476 0.58653 0.26374 0.0
H1153 H 0.66775 0.54052 0.36489 0.0
H1154 H 0.65753 0.5558 0.33823 0.0
C1155 C 0.62401 0.59708 0.24761 0.0
C1156 C 0.61395 0.54918 0.28202 0.0
H1157 H 0.60915 0.54672 0.32709 0.0
C1158 C 0.62499 0.53436 0.27975 0.0
C1159 C 0.60788 0.55351 0.29923 0.0
C1160 C 0.59524 0.56866 0.30231 0.0
C1161 C 0.63086 0.52429 0.29432 0.0
C1162 C 0.62501 0.52878 0.31157 0.0
C1163 C 0.61362 0.54333 0.31383 0.0
C1164 C 0.63129 0.5192 0.32751 0.0
C1165 C 0.64411 0.50969 0.29114 0.0
C1166 C 0.61989 0.49352 0.33029 0.0
C1167 C 0.62584 0.48468 0.34547 0.0
C1168 C 0.64307 0.50141 0.35821 0.0
C1169 C 0.65441 0.52712 0.35535 0.0
C1170 C 0.64855 0.53591 0.34015 0.0
H1171 H 0.65304 0.51321 0.27771 0.0
H1172 H 0.6596 0.51439 0.30112 0.0
H1173 H 0.62941 0.48951 0.29228 0.0
H1174 H 0.60614 0.48031 0.32083 0.0
H1175 H 0.61659 0.46477 0.34735 0.0
H1176 H 0.40657 0.91582 0.4295 0.0
H1177 H 0.40611 0.89068 0.40446 0.0
H1178 H 0.46342 0.95757 0.3772 0.0
H1179 H 0.46425 0.98255 0.40214 0.0
H1180 H 0.39219 0.89082 0.37111 0.0
H1181 H 0.49524 0.91536 0.37113 0.0
H1182 H 0.48079 0.92239 0.38954 0.0
H1183 H 0.49328 0.94286 0.37058 0.0
C1184 C 0.41919 0.92506 0.41819 0.0
C1185 C 0.43567 0.95109 0.41784 0.0
C1186 C 0.419 0.91072 0.40395 0.0
C1187 C 0.43522 0.92219 0.38914 0.0
C1188 C 0.45144 0.9482 0.38873 0.0
H1189 H 0.41231 0.88089 0.28089 0.0
H1190 H 0.41389 0.89582 0.31089 0.0
C1191 C 0.45181 0.96248 0.40297 0.0
C1192 C 0.43392 0.90739 0.37346 0.0
H1193 H 0.47225 0.90024 0.34332 0.0
C1194 C 0.40964 0.89254 0.3652 0.0
C1195 C 0.45657 0.90917 0.36592 0.0
C1196 C 0.48286 0.92309 0.37489 0.0
C1197 C 0.40765 0.88067 0.34906 0.0
C1198 C 0.43065 0.88431 0.34074 0.0
C1199 C 0.45469 0.89786 0.34953 0.0
C1200 C 0.43034 0.87543 0.3225 0.0
C1201 C 0.38091 0.86454 0.34103 0.0
C1202 C 0.44018 0.85988 0.3189 0.0
C1203 C 0.43969 0.85156 0.30162 0.0
C1204 C 0.42934 0.85869 0.28769 0.0
C1205 C 0.42012 0.87478 0.29133 0.0
C1206 C 0.42081 0.88319 0.30852 0.0
H1207 H 0.36536 0.85689 0.35137 0.0
H1208 H 0.37688 0.87595 0.33184 0.0
H1209 H 0.37969 0.84881 0.33348 0.0
H1210 H 0.44791 0.8539 0.32948 0.0
H1211 H 0.44698 0.83922 0.29926 0.0
H1212 H 0.5375 0.55866 0.55158 0.0
H1213 H 0.54699 0.54993 0.5217 0.0
H1214 H 0.53831 0.48123 0.54067 0.0
H1215 H 0.52894 0.48975 0.57029 0.0
H1216 H 0.58843 0.54575 0.51298 0.0
H1217 H 0.49773 0.45881 0.49502 0.0
H1218 H 0.49892 0.47844 0.5129 0.0
H1219 H 0.5087 0.45604 0.51649 0.0
C1220 C 0.53717 0.5415 0.54925 0.0
C1221 C 0.53223 0.52478 0.56324 0.0
C1222 C 0.54252 0.53652 0.5322 0.0
C1223 C 0.54288 0.51472 0.5289 0.0
C1224 C 0.53732 0.49777 0.54277 0.0
H1225 H 0.6377 0.48387 0.46332 0.0
H1226 H 0.61851 0.49813 0.48549 0.0
C1227 C 0.53195 0.50268 0.55973 0.0
C1228 C 0.55186 0.51071 0.51162 0.0
H1229 H 0.53758 0.46586 0.48082 0.0
C1230 C 0.57711 0.52851 0.50571 0.0
C1231 C 0.53693 0.48844 0.50197 0.0
C1232 C 0.50896 0.46949 0.50683 0.0
C1233 C 0.5885 0.52386 0.4911 0.0
C1234 C 0.57447 0.50058 0.4825 0.0
C1235 C 0.54855 0.48352 0.48765 0.0
C1236 C 0.58667 0.49295 0.46878 0.0
C1237 C 0.61558 0.54382 0.48521 0.0
C1238 C 0.57473 0.48462 0.45223 0.0
C1239 C 0.58539 0.47605 0.43967 0.0
C1240 C 0.60822 0.47568 0.44344 0.0
C1241 C 0.62021 0.48409 0.46 0.0
C1242 C 0.60939 0.49247 0.47261 0.0
H1243 H 0.61964 0.56264 0.4888 0.0
H1244 H 0.63027 0.54097 0.49199 0.0
H1245 H 0.61816 0.54324 0.47068 0.0
H1246 H 0.55708 0.48466 0.44905 0.0
H1247 H 0.57573 0.46972 0.427 0.0
H1248 H 0.03501 0.44977 0.71041 0.0
H1249 H 0.05961 0.47409 0.68434 0.0
H1250 H 0.09164 0.54164 0.71475 0.0
H1251 H 0.06785 0.51751 0.74095 0.0
H1252 H 0.06118 0.5149 0.66616 0.0
H1253 H 0.15658 0.54107 0.69685 0.0
H1254 H 0.12571 0.51659 0.70567 0.0
H1255 H 0.13615 0.54862 0.70956 0.0
C1256 C 0.04717 0.46982 0.7115 0.0
C1257 C 0.04953 0.48168 0.72776 0.0
C1258 C 0.06111 0.48368 0.6966 0.0
C1259 C 0.07774 0.50959 0.69774 0.0
C1260 C 0.0792 0.52161 0.71369 0.0
H1261 H 0.19226 0.61425 0.62061 0.0
H1262 H 0.16397 0.59667 0.64679 0.0
C1263 C 0.0653 0.5078 0.72859 0.0
C1264 C 0.09441 0.52383 0.68244 0.0
H1265 H 0.15803 0.55749 0.66848 0.0
C1266 C 0.08236 0.52431 0.66666 0.0
C1267 C 0.12203 0.53613 0.6832 0.0
C1268 C 0.13597 0.53549 0.69966 0.0
C1269 C 0.09723 0.53667 0.65153 0.0
C1270 C 0.12481 0.54846 0.65217 0.0
C1271 C 0.13689 0.54849 0.66807 0.0
C1272 C 0.14138 0.55942 0.63618 0.0
C1273 C 0.0833 0.53704 0.63501 0.0
C1274 C 0.13825 0.54421 0.62169 0.0
C1275 C 0.15434 0.55411 0.6068 0.0
C1276 C 0.17405 0.57946 0.60609 0.0
C1277 C 0.17725 0.59468 0.62069 0.0
C1278 C 0.16111 0.58469 0.63565 0.0
H1279 H 0.06359 0.53385 0.63812 0.0
H1280 H 0.0948 0.55504 0.62785 0.0
H1281 H 0.08069 0.52196 0.62604 0.0
H1282 H 0.12355 0.52454 0.622 0.0
H1283 H 0.15135 0.54179 0.59586 0.0
H1284 H 0.51854 0.08178 0.91579 0.0
H1285 H 0.53458 0.10762 0.88931 0.0
H1286 H 0.48319 0.13525 0.89965 0.0
H1287 H 0.46754 0.11004 0.92678 0.0
H1288 H 0.47983 0.11373 0.86447 0.0
H1289 H 0.5814 0.18507 0.88315 0.0
H1290 H 0.57202 0.15371 0.88884 0.0
H1291 H 0.55581 0.16777 0.89933 0.0
C1292 C 0.51117 0.09391 0.91286 0.0
C1293 C 0.49185 0.09393 0.92359 0.0
C1294 C 0.52031 0.1086 0.89762 0.0
C1295 C 0.51027 0.12351 0.89268 0.0
C1296 C 0.49126 0.12393 0.90336 0.0
H1297 H 0.57099 0.21462 0.79594 0.0
H1298 H 0.55339 0.20156 0.826 0.0
C1299 C 0.48225 0.1094 0.91878 0.0
C1300 C 0.51824 0.13687 0.87554 0.0
H1301 H 0.5721 0.17925 0.85206 0.0
C1302 C 0.49987 0.12839 0.8618 0.0
C1303 C 0.54435 0.15605 0.87218 0.0
C1304 C 0.56453 0.16639 0.88668 0.0
C1305 C 0.50734 0.13765 0.8445 0.0
C1306 C 0.53381 0.1557 0.84092 0.0
C1307 C 0.55184 0.16524 0.85486 0.0
C1308 C 0.54354 0.1635 0.82263 0.0
C1309 C 0.48705 0.12759 0.83006 0.0
C1310 C 0.54398 0.14642 0.81092 0.0
C1311 C 0.55417 0.15381 0.79384 0.0
C1312 C 0.56406 0.17844 0.78813 0.0
C1313 C 0.56343 0.19549 0.79989 0.0
C1314 C 0.55342 0.1881 0.81706 0.0
H1315 H 0.46688 0.11869 0.83556 0.0
H1316 H 0.49025 0.14262 0.82073 0.0
H1317 H 0.48866 0.11334 0.82244 0.0
H1318 H 0.53676 0.12743 0.8151 0.0
H1319 H 0.55435 0.14021 0.78514 0.0
H1320 H 0.58478 0.63311 0.05753 0.0
H1321 H 0.57259 0.64861 0.03201 0.0
H1322 H 0.5836 0.71126 0.0626 0.0
H1323 H 0.59531 0.69535 0.08854 0.0
H1324 H 0.53639 0.68698 0.04606 0.0
H1325 H 0.61365 0.70534 -0.00242 0.0
H1326 H 0.60033 0.67494 0.00708 0.0
H1327 H 0.61722 0.702 0.02102 0.0
C1328 C 0.58473 0.65026 0.05882 0.0
C1329 C 0.59069 0.6629 0.07505 0.0
C1330 C 0.57817 0.65932 0.04414 0.0
C1331 C 0.57767 0.68134 0.04531 0.0
C1332 C 0.58419 0.69438 0.06139 0.0
H1333 H 0.52219 0.71081 0.94536 0.0
H1334 H 0.54975 0.72014 0.97168 0.0
C1335 C 0.59088 0.68532 0.07615 0.0
C1336 C 0.56742 0.68876 0.03022 0.0
H1337 H 0.57097 0.69351 0.98515 0.0
C1338 C 0.54434 0.6891 0.03279 0.0
C1339 C 0.57803 0.69203 0.01295 0.0
C1340 C 0.60385 0.69384 0.00954 0.0
C1341 C 0.53031 0.69027 0.01836 0.0
C1342 C 0.53942 0.69065 0.00097 0.0
C1343 C 0.56375 0.69272 -0.00151 0.0
C1344 C 0.52262 0.68592 0.98534 0.0
C1345 C 0.50534 0.69007 0.02184 0.0
C1346 C 0.49854 0.66343 0.98422 0.0
C1347 C 0.48288 0.65804 0.96929 0.0
C1348 C 0.49109 0.67496 0.95508 0.0
C1349 C 0.51534 0.69744 0.95613 0.0
C1350 C 0.53106 0.70282 0.97114 0.0
H1351 H 0.50592 0.69846 0.03491 0.0
H1352 H 0.50171 0.70037 0.01138 0.0
H1353 H 0.48865 0.67054 0.02208 0.0
H1354 H 0.49199 0.64982 -0.00517 0.0
H1355 H 0.46439 0.64051 0.96886 0.0
H1356 H 0.91277 0.45136 0.24423 0.0
H1357 H 0.89106 0.43463 0.21603 0.0
H1358 H 0.92983 0.39305 0.21111 0.0
H1359 H 0.95328 0.41125 0.23851 0.0
H1360 H 0.93455 0.41579 0.18184 0.0
H1361 H 0.83057 0.36956 0.20152 0.0
H1362 H 0.84769 0.40159 0.208 0.0
H1363 H 0.85649 0.38063 0.2176 0.0
C1364 C 0.91673 0.43866 0.23719 0.0
C1365 C 0.93492 0.43278 0.24374 0.0
C1366 C 0.90389 0.42873 0.22116 0.0
C1367 C 0.9084 0.41219 0.21154 0.0
C1368 C 0.92586 0.40563 0.21833 0.0
H1369 H 0.81769 0.34457 0.11498 0.0
H1370 H 0.83637 0.34994 0.14463 0.0
C1371 C 0.93905 0.41588 0.23418 0.0
C1372 C 0.89685 0.40357 0.19368 0.0
H1373 H 0.83993 0.37951 0.17043 0.0
C1374 C 0.91378 0.40751 0.17942 0.0
C1375 C 0.8697 0.39231 0.19046 0.0
C1376 C 0.85007 0.38553 0.20526 0.0
C1377 C 0.90452 0.40144 0.16201 0.0
C1378 C 0.87771 0.39204 0.15864 0.0
C1379 C 0.86057 0.3871 0.17295 0.0
C1380 C 0.86726 0.38823 0.14034 0.0
C1381 C 0.92363 0.4051 0.14748 0.0
C1382 C 0.87834 0.40794 0.12808 0.0
C1383 C 0.868 0.40481 0.11108 0.0
C1384 C 0.84592 0.38205 0.10609 0.0
C1385 C 0.83474 0.36232 0.1184 0.0
C1386 C 0.84536 0.36538 0.13536 0.0
H1387 H 0.94009 0.40355 0.15271 0.0
H1388 H 0.91399 0.39128 0.13672 0.0
H1389 H 0.93208 0.42405 0.14177 0.0
H1390 H 0.8947 0.42599 0.13176 0.0
H1391 H 0.87687 0.42051 0.10203 0.0
loop_
_geom_bond_atom_site_label_1
_geom_bond_atom_site_label_2
_geom_bond_distance
_geom_bond_site_symmetry_2
_ccdc_geom_bond_type
H0 O26 0.856 . S
H1 O29 0.854 . S
H2 C37 0.930 . S
H3 C38 0.930 . S
H4 C40 0.930 . S
H5 C41 0.930 . S
H6 C43 0.931 . S
H7 C44 0.930 . S
H8 C46 0.930 . S
H9 C47 0.929 . S
H10 C49 0.930 . S
H11 C50 0.931 . S
H12 C52 0.930 . S
H13 C53 0.929 . S
H14 C55 0.931 . S
H15 C56 0.930 . S
H16 C58 0.930 . S
H17 C59 0.932 . S
H18 C61 0.930 . S
H19 C62 0.929 . S
H20 C64 0.931 . S
H21 C65 0.930 . S
H22 C67 0.929 . S
H23 C68 0.931 . S
H24 C70 0.930 . S
H25 C71 0.929 1_455 S
O26 H0 0.856 . S
O26 C72 1.300 . S
O27 C72 1.209 . S
O28 C73 1.199 . S
O29 H1 0.854 . S
O29 C73 1.297 . S
C30 C31 1.404 . S
C30 C35 1.397 . S
C30 C36 1.492 . S
C31 C30 1.404 . S
C31 C32 1.396 . S
C31 C42 1.492 . S
C32 C31 1.396 . S
C32 C33 1.397 . S
C32 C48 1.509 . S
C33 C32 1.397 . S
C33 C34 1.412 . S
C33 C54 1.485 . S
C34 C33 1.412 . S
C34 C35 1.388 . S
C34 C60 1.490 . S
C35 C30 1.397 . S
C35 C34 1.388 . S
C35 C66 1.519 1_455 S
C36 C30 1.492 . S
C36 C37 1.363 . S
C36 C41 1.390 1_455 S
C37 H2 0.930 . S
C37 C36 1.363 . S
C37 C38 1.372 1_455 S
C38 H3 0.930 . S
C38 C37 1.372 1_655 S
C38 C39 1.383 . S
C39 C38 1.383 . S
C39 C40 1.395 . S
C40 H4 0.930 . S
C40 C39 1.395 . S
C40 C41 1.362 . S
C41 H5 0.930 . S
C41 C36 1.390 1_655 S
C41 C40 1.362 . S
C42 C31 1.492 . S
C42 C43 1.377 . S
C42 C47 1.397 . S
C43 H6 0.931 . S
C43 C42 1.377 . S
C43 C44 1.376 . S
C44 H7 0.930 . S
C44 C43 1.376 . S
C44 C45 1.376 . S
C45 C44 1.376 . S
C45 C46 1.378 . S
C45 C72 1.486 . S
C46 H8 0.930 . S
C46 C45 1.378 . S
C46 C47 1.376 . S
C47 H9 0.929 . S
C47 C42 1.397 . S
C47 C46 1.376 . S
C48 C32 1.509 . S
C48 C49 1.391 . S
C48 C53 1.386 . S
C49 H10 0.930 . S
C49 C48 1.391 . S
C49 C50 1.375 . S
C50 H11 0.931 . S
C50 C49 1.375 . S
C50 C51 1.375 . S
C51 C50 1.375 . S
C51 C52 1.361 . S
C52 H12 0.930 . S
C52 C51 1.361 . S
C52 C53 1.399 . S
C53 H13 0.929 . S
C53 C48 1.386 . S
C53 C52 1.399 . S
C54 C33 1.485 . S
C54 C55 1.394 . S
C54 C59 1.360 . S
C55 H14 0.931 . S
C55 C54 1.394 . S
C55 C56 1.372 . S
C56 H15 0.930 . S
C56 C55 1.372 . S
C56 C57 1.397 . S
C57 C56 1.397 . S
C57 C58 1.390 . S
C57 C73 1.476 . S
C58 H16 0.930 . S
C58 C57 1.390 . S
C58 C59 1.366 . S
C59 H17 0.932 . S
C59 C54 1.360 . S
C59 C58 1.366 . S
C60 C34 1.490 . S
C60 C61 1.380 . S
C60 C65 1.386 . S
C61 H18 0.930 . S
C61 C60 1.380 . S
C61 C62 1.381 . S
C62 H19 0.929 . S
C62 C61 1.381 . S
C62 C63 1.371 . S
C63 C62 1.371 . S
C63 C64 1.380 . S
C64 H20 0.931 . S
C64 C63 1.380 . S
C64 C65 1.387 . S
C65 H21 0.930 . S
C65 C60 1.386 . S
C65 C64 1.387 . S
C66 C35 1.519 1_655 S
C66 C67 1.377 . S
C66 C71 1.361 . S
C67 H22 0.929 . S
C67 C66 1.377 . S
C67 C68 1.386 . S
C68 H23 0.931 . S
C68 C67 1.386 . S
C68 C69 1.363 . S
C69 C68 1.363 . S
C69 C70 1.385 . S
C70 H24 0.930 . S
C70 C69 1.385 . S
C70 C71 1.396 . S
C71 H25 0.929 1_655 S
C71 C66 1.361 . S
C71 C70 1.396 . S
C72 O26 1.300 . S
C72 O27 1.209 . S
C72 C45 1.486 . S
C73 O28 1.199 . S
C73 O29 1.297 . S
C73 C57 1.476 . S
H74 O100 0.856 . S
H75 O103 0.854 . S
H76 C111 0.930 . S
H77 C112 0.928 . S
H78 C114 0.930 . S
H79 C115 0.930 . S
H80 C117 0.931 . S
H81 C118 0.930 . S
H82 C120 0.930 . S
H83 C121 0.929 . S
H84 C123 0.930 . S
H85 C124 0.931 . S
H86 C126 0.930 . S
H87 C127 0.929 . S
H88 C129 0.931 . S
H89 C130 0.930 . S
H90 C132 0.930 . S
H91 C133 0.932 . S
H92 C135 0.930 . S
H93 C136 0.929 . S
H94 C138 0.931 . S
H95 C139 0.930 . S
H96 C141 0.928 . S
H97 C142 0.931 . S
H98 C144 0.930 . S
H99 C145 0.929 . S
O100 H74 0.856 . S
O100 C146 1.300 . S
O101 C146 1.209 . S
O102 C147 1.199 . S
O103 H75 0.854 . S
O103 C147 1.297 . S
C104 C105 1.404 . S
C104 C109 1.397 . S
C104 C110 1.492 . S
C105 C104 1.404 . S
C105 C106 1.396 . S
C105 C116 1.492 . S
C106 C105 1.396 . S
C106 C107 1.397 . S
C106 C122 1.509 . S
C107 C106 1.397 . S
C107 C108 1.412 . S
C107 C128 1.485 . S
C108 C107 1.412 . S
C108 C109 1.388 . S
C108 C134 1.490 . S
C109 C104 1.397 . S
C109 C108 1.388 . S
C109 C140 1.519 . S
C110 C104 1.492 . S
C110 C111 1.363 . S
C110 C115 1.390 . S
C111 H76 0.930 . S
C111 C110 1.363 . S
C111 C112 1.375 1_545 S
C112 H77 0.928 . S
C112 C111 1.375 1_565 S
C112 C113 1.382 . S
C113 C112 1.382 . S
C113 C114 1.395 . S
C114 H78 0.930 . S
C114 C113 1.395 . S
C114 C115 1.362 1_565 S
C115 H79 0.930 . S
C115 C110 1.390 . S
C115 C114 1.362 1_545 S
C116 C105 1.492 . S
C116 C117 1.377 . S
C116 C121 1.397 . S
C117 H80 0.931 . S
C117 C116 1.377 . S
C117 C118 1.376 . S
C118 H81 0.930 . S
C118 C117 1.376 . S
C118 C119 1.376 . S
C119 C118 1.376 . S
C119 C120 1.378 . S
C119 C146 1.486 . S
C120 H82 0.930 . S
C120 C119 1.378 . S
C120 C121 1.376 . S
C121 H83 0.929 . S
C121 C116 1.397 . S
C121 C120 1.376 . S
C122 C106 1.509 . S
C122 C123 1.391 . S
C122 C127 1.386 . S
C123 H84 0.930 . S
C123 C122 1.391 . S
C123 C124 1.375 . S
C124 H85 0.931 . S
C124 C123 1.375 . S
C124 C125 1.375 . S
C125 C124 1.375 . S
C125 C126 1.361 . S
C126 H86 0.930 . S
C126 C125 1.361 . S
C126 C127 1.399 . S
C127 H87 0.929 . S
C127 C122 1.386 . S
C127 C126 1.399 . S
C128 C107 1.485 . S
C128 C129 1.394 . S
C128 C133 1.360 . S
C129 H88 0.931 . S
C129 C128 1.394 . S
C129 C130 1.372 . S
C130 H89 0.930 . S
C130 C129 1.372 . S
C130 C131 1.397 . S
C131 C130 1.397 . S
C131 C132 1.390 . S
C131 C147 1.476 . S
C132 H90 0.930 . S
C132 C131 1.390 . S
C132 C133 1.366 . S
C133 H91 0.932 . S
C133 C128 1.360 . S
C133 C132 1.366 . S
C134 C108 1.490 . S
C134 C135 1.380 . S
C134 C139 1.386 . S
C135 H92 0.930 . S
C135 C134 1.380 . S
C135 C136 1.381 . S
C136 H93 0.929 . S
C136 C135 1.381 . S
C136 C137 1.371 . S
C137 C136 1.371 . S
C137 C138 1.380 . S
C138 H94 0.931 . S
C138 C137 1.380 . S
C138 C139 1.387 . S
C139 H95 0.930 . S
C139 C134 1.386 . S
C139 C138 1.387 . S
C140 C109 1.519 . S
C140 C141 1.387 . S
C140 C145 1.361 . S
C141 H96 0.928 . S
C141 C140 1.387 . S
C141 C142 1.377 1_545 S
C142 H97 0.931 . S
C142 C141 1.377 1_565 S
C142 C143 1.363 . S
C143 C142 1.363 . S
C143 C144 1.385 . S
C144 H98 0.930 . S
C144 C143 1.385 . S
C144 C145 1.396 1_565 S
C145 H99 0.929 . S
C145 C140 1.361 . S
C145 C144 1.396 1_545 S
C146 O100 1.300 . S
C146 O101 1.209 . S
C146 C119 1.486 . S
C147 O102 1.199 . S
C147 O103 1.297 . S
C147 C131 1.476 . S
H148 O174 0.856 . S
H149 O177 0.854 . S
H150 C185 0.930 . S
H151 C186 0.930 . S
H152 C188 0.930 . S
H153 C189 0.930 . S
H154 C191 0.931 . S
H155 C192 0.930 . S
H156 C194 0.930 . S
H157 C195 0.929 . S
H158 C197 0.930 . S
H159 C198 0.931 . S
H160 C200 0.930 . S
H161 C201 0.929 . S
H162 C203 0.931 . S
H163 C204 0.930 . S
H164 C206 0.930 . S
H165 C207 0.932 . S
H166 C209 0.930 . S
H167 C210 0.929 . S
H168 C212 0.931 . S
H169 C213 0.930 . S
H170 C215 0.929 . S
H171 C216 0.931 . S
H172 C218 0.930 . S
H173 C219 0.929 . S
O174 H148 0.856 . S
O174 C220 1.300 . S
O175 C220 1.209 . S
O176 C221 1.199 . S
O177 H149 0.854 . S
O177 C221 1.297 . S
C178 C179 1.404 . S
C178 C183 1.397 . S
C178 C184 1.492 . S
C179 C178 1.404 . S
C179 C180 1.396 . S
C179 C190 1.492 . S
C180 C179 1.396 . S
C180 C181 1.397 . S
C180 C196 1.509 . S
C181 C180 1.397 . S
C181 C182 1.412 . S
C181 C202 1.485 . S
C182 C181 1.412 . S
C182 C183 1.388 . S
C182 C208 1.490 . S
C183 C178 1.397 . S
C183 C182 1.388 . S
C183 C214 1.519 . S
C184 C178 1.492 . S
C184 C185 1.363 . S
C184 C189 1.390 . S
C185 H150 0.930 . S
C185 C184 1.363 . S
C185 C186 1.372 . S
C186 H151 0.930 . S
C186 C185 1.372 . S
C186 C187 1.383 . S
C187 C186 1.383 . S
C187 C188 1.395 . S
C188 H152 0.930 . S
C188 C187 1.395 . S
C188 C189 1.362 . S
C189 H153 0.930 . S
C189 C184 1.390 . S
C189 C188 1.362 . S
C190 C179 1.492 . S
C190 C191 1.377 . S
C190 C195 1.397 . S
C191 H154 0.931 . S
C191 C190 1.377 . S
C191 C192 1.376 . S
C192 H155 0.930 . S
C192 C191 1.376 . S
C192 C193 1.376 . S
C193 C192 1.376 . S
C193 C194 1.378 . S
C193 C220 1.486 . S
C194 H156 0.930 . S
C194 C193 1.378 . S
C194 C195 1.376 . S
C195 H157 0.929 . S
C195 C190 1.397 . S
C195 C194 1.376 . S
C196 C180 1.509 . S
C196 C197 1.391 . S
C196 C201 1.386 . S
C197 H158 0.930 . S
C197 C196 1.391 . S
C197 C198 1.375 . S
C198 H159 0.931 . S
C198 C197 1.375 . S
C198 C199 1.375 . S
C199 C198 1.375 . S
C199 C200 1.361 . S
C200 H160 0.930 . S
C200 C199 1.361 . S
C200 C201 1.399 . S
C201 H161 0.929 . S
C201 C196 1.386 . S
C201 C200 1.399 . S
C202 C181 1.485 . S
C202 C203 1.394 . S
C202 C207 1.360 . S
C203 H162 0.931 . S
C203 C202 1.394 . S
C203 C204 1.372 . S
C204 H163 0.930 . S
C204 C203 1.372 . S
C204 C205 1.397 . S
C205 C204 1.397 . S
C205 C206 1.390 . S
C205 C221 1.476 . S
C206 H164 0.930 . S
C206 C205 1.390 . S
C206 C207 1.366 . S
C207 H165 0.932 . S
C207 C202 1.360 . S
C207 C206 1.366 . S
C208 C182 1.490 . S
C208 C209 1.380 . S
C208 C213 1.386 . S
C209 H166 0.930 . S
C209 C208 1.380 . S
C209 C210 1.381 . S
C210 H167 0.929 . S
C210 C209 1.381 . S
C210 C211 1.371 . S
C211 C210 1.371 . S
C211 C212 1.380 . S
C212 H168 0.931 . S
C212 C211 1.380 . S
C212 C213 1.387 . S
C213 H169 0.930 . S
C213 C208 1.386 . S
C213 C212 1.387 . S
C214 C183 1.519 . S
C214 C215 1.377 . S
C214 C219 1.361 . S
C215 H170 0.929 . S
C215 C214 1.377 . S
C215 C216 1.386 . S
C216 H171 0.931 . S
C216 C215 1.386 . S
C216 C217 1.363 . S
C217 C216 1.363 . S
C217 C218 1.385 . S
C218 H172 0.930 . S
C218 C217 1.385 . S
C218 C219 1.396 . S
C219 H173 0.929 . S
C219 C214 1.361 . S
C219 C218 1.396 . S
C220 O174 1.300 . S
C220 O175 1.209 . S
C220 C193 1.486 . S
C221 O176 1.199 . S
C221 O177 1.297 . S
C221 C205 1.476 . S
H222 O248 0.856 . S
H223 O251 0.854 . S
H224 C259 0.930 1_455 S
H225 C260 0.930 . S
H226 C262 0.930 . S
H227 C263 0.930 . S
H228 C265 0.931 . S
H229 C266 0.930 . S
H230 C268 0.930 . S
H231 C269 0.929 . S
H232 C271 0.930 . S
H233 C272 0.931 . S
H234 C274 0.930 . S
H235 C275 0.929 . S
H236 C277 0.931 . S
H237 C278 0.930 . S
H238 C280 0.930 . S
H239 C281 0.932 . S
H240 C283 0.930 . S
H241 C284 0.929 . S
H242 C286 0.931 . S
H243 C287 0.930 . S
H244 C289 0.929 . S
H245 C290 0.931 . S
H246 C292 0.930 . S
H247 C293 0.929 . S
O248 H222 0.856 . S
O248 C294 1.300 . S
O249 C294 1.209 . S
O250 C295 1.199 . S
O251 H223 0.854 . S
O251 C295 1.297 . S
C252 C253 1.404 . S
C252 C257 1.397 . S
C252 C258 1.492 1_455 S
C253 C252 1.404 . S
C253 C254 1.396 . S
C253 C264 1.492 . S
C254 C253 1.396 . S
C254 C255 1.397 . S
C254 C270 1.509 . S
C255 C254 1.397 . S
C255 C256 1.412 . S
C255 C276 1.485 . S
C256 C255 1.412 . S
C256 C257 1.388 . S
C256 C282 1.490 . S
C257 C252 1.397 . S
C257 C256 1.388 . S
C257 C288 1.519 1_455 S
C258 C252 1.492 1_655 S
C258 C259 1.363 . S
C258 C263 1.390 . S
C259 H224 0.930 1_655 S
C259 C258 1.363 . S
C259 C260 1.372 . S
C260 H225 0.930 . S
C260 C259 1.372 . S
C260 C261 1.383 . S
C261 C260 1.383 . S
C261 C262 1.395 . S
C262 H226 0.930 . S
C262 C261 1.395 . S
C262 C263 1.362 . S
C263 H227 0.930 . S
C263 C258 1.390 . S
C263 C262 1.362 . S
C264 C253 1.492 . S
C264 C265 1.377 . S
C264 C269 1.397 . S
C265 H228 0.931 . S
C265 C264 1.377 . S
C265 C266 1.376 . S
C266 H229 0.930 . S
C266 C265 1.376 . S
C266 C267 1.376 . S
C267 C266 1.376 . S
C267 C268 1.378 . S
C267 C294 1.486 . S
C268 H230 0.930 . S
C268 C267 1.378 . S
C268 C269 1.376 . S
C269 H231 0.929 . S
C269 C264 1.397 . S
C269 C268 1.376 . S
C270 C254 1.509 . S
C270 C271 1.391 . S
C270 C275 1.386 . S
C271 H232 0.930 . S
C271 C270 1.391 . S
C271 C272 1.375 . S
C272 H233 0.931 . S
C272 C271 1.375 . S
C272 C273 1.375 . S
C273 C272 1.375 . S
C273 C274 1.361 . S
C274 H234 0.930 . S
C274 C273 1.361 . S
C274 C275 1.399 . S
C275 H235 0.929 . S
C275 C270 1.386 . S
C275 C274 1.399 . S
C276 C255 1.485 . S
C276 C277 1.394 . S
C276 C281 1.360 . S
C277 H236 0.931 . S
C277 C276 1.394 . S
C277 C278 1.372 . S
C278 H237 0.930 . S
C278 C277 1.372 . S
C278 C279 1.397 . S
C279 C278 1.397 . S
C279 C280 1.390 . S
C279 C295 1.476 . S
C280 H238 0.930 . S
C280 C279 1.390 . S
C280 C281 1.366 . S
C281 H239 0.932 . S
C281 C276 1.360 . S
C281 C280 1.366 . S
C282 C256 1.490 . S
C282 C283 1.380 . S
C282 C287 1.386 . S
C283 H240 0.930 . S
C283 C282 1.380 . S
C283 C284 1.381 . S
C284 H241 0.929 . S
C284 C283 1.381 . S
C284 C285 1.371 . S
C285 C284 1.371 . S
C285 C286 1.380 . S
C286 H242 0.931 . S
C286 C285 1.380 . S
C286 C287 1.387 . S
C287 H243 0.930 . S
C287 C282 1.386 . S
C287 C286 1.387 . S
C288 C257 1.519 1_655 S
C288 C289 1.377 . S
C288 C293 1.361 . S
C289 H244 0.929 . S
C289 C288 1.377 . S
C289 C290 1.386 . S
C290 H245 0.931 . S
C290 C289 1.386 . S
C290 C291 1.363 . S
C291 C290 1.363 . S
C291 C292 1.385 . S
C292 H246 0.930 . S
C292 C291 1.385 . S
C292 C293 1.396 . S
C293 H247 0.929 . S
C293 C288 1.361 . S
C293 C292 1.396 . S
C294 O248 1.300 . S
C294 O249 1.209 . S
C294 C267 1.486 . S
C295 O250 1.199 . S
C295 O251 1.297 . S
C295 C279 1.476 . S
H296 O322 0.856 . S
H297 O325 0.854 . S
H298 C333 0.930 . S
H299 C334 0.930 . S
H300 C336 0.930 . S
H301 C337 0.930 . S
H302 C339 0.931 . S
H303 C340 0.930 . S
H304 C342 0.930 . S
H305 C343 0.929 . S
H306 C345 0.930 . S
H307 C346 0.931 . S
H308 C348 0.930 . S
H309 C349 0.929 . S
H310 C351 0.931 . S
H311 C352 0.930 . S
H312 C354 0.930 . S
H313 C355 0.932 . S
H314 C357 0.930 . S
H315 C358 0.927 . S
H316 C360 0.931 . S
H317 C361 0.930 . S
H318 C363 0.906 1_556 S
H319 C364 0.931 . S
H320 C366 0.930 . S
H321 C367 0.929 . S
O322 H296 0.856 . S
O322 C368 1.300 . S
O323 C368 1.209 . S
O324 C369 1.199 . S
O325 H297 0.854 . S
O325 C369 1.297 . S
C326 C327 1.404 . S
C326 C331 1.397 1_565 S
C326 C332 1.492 1_565 S
C327 C326 1.404 . S
C327 C328 1.396 . S
C327 C338 1.492 . S
C328 C327 1.396 . S
C328 C329 1.397 . S
C328 C344 1.509 . S
C329 C328 1.397 . S
C329 C330 1.412 1_556 S
C329 C350 1.485 1_556 S
C330 C329 1.412 1_554 S
C330 C331 1.388 1_564 S
C330 C356 1.490 . S
C331 C326 1.397 1_545 S
C331 C330 1.388 1_546 S
C331 C362 1.519 1_556 S
C332 C326 1.492 1_545 S
C332 C333 1.363 . S
C332 C337 1.390 . S
C333 H298 0.930 . S
C333 C332 1.363 . S
C333 C334 1.372 . S
C334 H299 0.930 . S
C334 C333 1.372 . S
C334 C335 1.383 . S
C335 C334 1.383 . S
C335 C336 1.395 . S
C336 H300 0.930 . S
C336 C335 1.395 . S
C336 C337 1.362 . S
C337 H301 0.930 . S
C337 C332 1.390 . S
C337 C336 1.362 . S
C338 C327 1.492 . S
C338 C339 1.377 . S
C338 C343 1.397 . S
C339 H302 0.931 . S
C339 C338 1.377 . S
C339 C340 1.376 . S
C340 H303 0.930 . S
C340 C339 1.376 . S
C340 C341 1.376 . S
C341 C340 1.376 . S
C341 C342 1.378 . S
C341 C368 1.486 . S
C342 H304 0.930 . S
C342 C341 1.378 . S
C342 C343 1.376 . S
C343 H305 0.929 . S
C343 C338 1.397 . S
C343 C342 1.376 . S
C344 C328 1.509 . S
C344 C345 1.391 . S
C344 C349 1.386 . S
C345 H306 0.930 . S
C345 C344 1.391 . S
C345 C346 1.375 . S
C346 H307 0.931 . S
C346 C345 1.375 . S
C346 C347 1.375 . S
C347 C346 1.375 . S
C347 C348 1.361 . S
C348 H308 0.930 . S
C348 C347 1.361 . S
C348 C349 1.399 . S
C349 H309 0.929 . S
C349 C344 1.386 . S
C349 C348 1.399 . S
C350 C329 1.485 1_554 S
C350 C351 1.394 . S
C350 C355 1.360 . S
C351 H310 0.931 . S
C351 C350 1.394 . S
C351 C352 1.372 . S
C352 H311 0.930 . S
C352 C351 1.372 . S
C352 C353 1.397 . S
C353 C352 1.397 . S
C353 C354 1.390 . S
C353 C369 1.476 . S
C354 H312 0.930 . S
C354 C353 1.390 . S
C354 C355 1.366 . S
C355 H313 0.932 . S
C355 C350 1.360 . S
C355 C354 1.366 . S
C356 C330 1.490 . S
C356 C357 1.380 . S
C356 C361 1.386 . S
C357 H314 0.930 . S
C357 C356 1.380 . S
C357 C358 1.381 . S
C358 H315 0.927 . S
C358 C357 1.381 . S
C358 C359 1.371 . S
C359 C358 1.371 . S
C359 C360 1.380 . S
C360 H316 0.931 . S
C360 C359 1.380 . S
C360 C361 1.387 . S
C361 H317 0.930 . S
C361 C356 1.386 . S
C361 C360 1.387 . S
C362 C331 1.519 1_554 S
C362 C363 1.380 . S
C362 C367 1.361 . S
C363 H318 0.906 1_554 S
C363 C362 1.380 . S
C363 C364 1.409 . S
C364 H319 0.931 . S
C364 C363 1.409 . S
C364 C365 1.363 . S
C365 C364 1.363 . S
C365 C366 1.385 . S
C366 H320 0.930 . S
C366 C365 1.385 . S
C366 C367 1.396 . S
C367 H321 0.929 . S
C367 C362 1.361 . S
C367 C366 1.396 . S
C368 O322 1.300 . S
C368 O323 1.209 . S
C368 C341 1.486 . S
C369 O324 1.199 . S
C369 O325 1.297 . S
C369 C353 1.476 . S
H370 O396 0.856 . S
H371 O399 0.854 . S
H372 C407 0.930 . S
H373 C408 0.930 . S
H374 C410 0.930 . S
H375 C411 0.930 . S
H376 C413 0.931 . S
H377 C414 0.930 . S
H378 C416 0.930 . S
H379 C417 0.929 . S
H380 C419 0.930 . S
H381 C420 0.931 . S
H382 C422 0.930 . S
H383 C423 0.929 . S
H384 C425 0.931 . S
H385 C426 0.930 . S
H386 C428 0.930 . S
H387 C429 0.932 . S
H388 C431 0.930 . S
H389 C432 0.929 . S
H390 C434 0.931 . S
H391 C435 0.930 . S
H392 C437 0.929 . S
H393 C438 0.931 . S
H394 C440 0.930 . S
H395 C441 0.929 . S
O396 H370 0.856 . S
O396 C442 1.300 . S
O397 C442 1.209 . S
O398 C443 1.199 . S
O399 H371 0.854 . S
O399 C443 1.297 . S
C400 C401 1.404 . S
C400 C405 1.397 . S
C400 C406 1.492 . S
C401 C400 1.404 . S
C401 C402 1.396 . S
C401 C412 1.492 . S
C402 C401 1.396 . S
C402 C403 1.397 . S
C402 C418 1.509 . S
C403 C402 1.397 . S
C403 C404 1.412 . S
C403 C424 1.485 . S
C404 C403 1.412 . S
C404 C405 1.388 . S
C404 C430 1.490 . S
C405 C400 1.397 . S
C405 C404 1.388 . S
C405 C436 1.519 . S
C406 C400 1.492 . S
C406 C407 1.363 . S
C406 C411 1.390 . S
C407 H372 0.930 . S
C407 C406 1.363 . S
C407 C408 1.372 . S
C408 H373 0.930 . S
C408 C407 1.372 . S
C408 C409 1.383 . S
C409 C408 1.383 . S
C409 C410 1.395 . S
C410 H374 0.930 . S
C410 C409 1.395 . S
C410 C411 1.362 . S
C411 H375 0.930 . S
C411 C406 1.390 . S
C411 C410 1.362 . S
C412 C401 1.492 . S
C412 C413 1.377 . S
C412 C417 1.397 . S
C413 H376 0.931 . S
C413 C412 1.377 . S
C413 C414 1.376 . S
C414 H377 0.930 . S
C414 C413 1.376 . S
C414 C415 1.376 . S
C415 C414 1.376 . S
C415 C416 1.378 . S
C415 C442 1.486 . S
C416 H378 0.930 . S
C416 C415 1.378 . S
C416 C417 1.376 . S
C417 H379 0.929 . S
C417 C412 1.397 . S
C417 C416 1.376 . S
C418 C402 1.509 . S
C418 C419 1.391 . S
C418 C423 1.386 . S
C419 H380 0.930 . S
C419 C418 1.391 . S
C419 C420 1.375 . S
C420 H381 0.931 . S
C420 C419 1.375 . S
C420 C421 1.375 . S
C421 C420 1.375 . S
C421 C422 1.361 . S
C422 H382 0.930 . S
C422 C421 1.361 . S
C422 C423 1.399 . S
C423 H383 0.929 . S
C423 C418 1.386 . S
C423 C422 1.399 . S
C424 C403 1.485 . S
C424 C425 1.394 . S
C424 C429 1.360 . S
C425 H384 0.931 . S
C425 C424 1.394 . S
C425 C426 1.372 . S
C426 H385 0.930 . S
C426 C425 1.372 . S
C426 C427 1.397 . S
C427 C426 1.397 . S
C427 C428 1.390 . S
C427 C443 1.476 . S
C428 H386 0.930 . S
C428 C427 1.390 . S
C428 C429 1.366 . S
C429 H387 0.932 . S
C429 C424 1.360 . S
C429 C428 1.366 . S
C430 C404 1.490 . S
C430 C431 1.380 . S
C430 C435 1.386 . S
C431 H388 0.930 . S
C431 C430 1.380 . S
C431 C432 1.381 . S
C432 H389 0.929 . S
C432 C431 1.381 . S
C432 C433 1.371 . S
C433 C432 1.371 . S
C433 C434 1.380 . S
C434 H390 0.931 . S
C434 C433 1.380 . S
C434 C435 1.387 . S
C435 H391 0.930 . S
C435 C430 1.386 . S
C435 C434 1.387 . S
C436 C405 1.519 . S
C436 C437 1.377 . S
C436 C441 1.361 . S
C437 H392 0.929 . S
C437 C436 1.377 . S
C437 C438 1.386 . S
C438 H393 0.931 . S
C438 C437 1.386 . S
C438 C439 1.363 . S
C439 C438 1.363 . S
C439 C440 1.385 . S
C440 H394 0.930 . S
C440 C439 1.385 . S
C440 C441 1.396 . S
C441 H395 0.929 . S
C441 C436 1.361 . S
C441 C440 1.396 . S
C442 O396 1.300 . S
C442 O397 1.209 . S
C442 C415 1.486 . S
C443 O398 1.199 . S
C443 O399 1.297 . S
C443 C427 1.476 . S
C444 O445 1.306 . S
C444 O447 1.160 . S
O445 C444 1.306 . S
O445 Cd446 2.228 . S
Cd446 O445 2.228 . S
Cd446 O450 2.273 . S
Cd446 O454 2.277 . S
O447 C444 1.160 . S
O447 Cd448 2.203 . S
Cd448 O447 2.203 . S
Cd448 O450 2.411 . S
Cd448 O451 2.333 . S
Cd448 O452 2.352 . S
Cd448 O456 2.277 . S
Cd448 O457 2.356 . S
C449 O454 1.209 . S
C449 O456 1.226 . S
O450 Cd446 2.273 . S
O450 Cd448 2.411 . S
O450 C453 1.320 . S
O451 Cd448 2.333 . S
O451 C453 1.214 . S
O452 Cd448 2.352 . S
O452 C455 1.258 . S
C453 O450 1.320 . S
C453 O451 1.214 . S
O454 Cd446 2.277 . S
O454 C449 1.209 . S
C455 O452 1.258 . S
C455 O457 1.282 . S
O456 Cd448 2.277 . S
O456 C449 1.226 . S
O457 Cd448 2.356 . S
O457 C455 1.282 . S
C458 O459 1.306 . S
C458 O461 1.160 . S
O459 C458 1.306 . S
O459 Cd460 2.228 . S
Cd460 O459 2.228 . S
Cd460 O464 2.273 . S
Cd460 O468 2.277 . S
O461 C458 1.160 . S
O461 Cd462 2.203 . S
Cd462 O461 2.203 . S
Cd462 O464 2.411 . S
Cd462 O465 2.333 . S
Cd462 O466 2.352 . S
Cd462 O470 2.277 . S
Cd462 O471 2.356 . S
C463 O468 1.209 . S
C463 O470 1.226 . S
O464 Cd460 2.273 . S
O464 Cd462 2.411 . S
O464 C467 1.320 . S
O465 Cd462 2.333 . S
O465 C467 1.214 . S
O466 Cd462 2.352 . S
O466 C469 1.258 . S
C467 O464 1.320 . S
C467 O465 1.214 . S
O468 Cd460 2.277 . S
O468 C463 1.209 . S
C469 O466 1.258 . S
C469 O471 1.282 . S
O470 Cd462 2.277 . S
O470 C463 1.226 . S
O471 Cd462 2.356 . S
O471 C469 1.282 . S
C472 O473 1.306 . S
C472 O475 1.160 . S
O473 C472 1.306 . S
O473 Cd474 2.228 . S
Cd474 O473 2.228 . S
Cd474 O478 2.273 . S
Cd474 O482 2.277 . S
O475 C472 1.160 . S
O475 Cd476 2.203 . S
Cd476 O475 2.203 . S
Cd476 O478 2.411 . S
Cd476 O479 2.333 . S
Cd476 O480 2.352 . S
Cd476 O484 2.277 . S
Cd476 O485 2.356 . S
C477 O482 1.209 . S
C477 O484 1.226 . S
O478 Cd474 2.273 . S
O478 Cd476 2.411 . S
O478 C481 1.320 . S
O479 Cd476 2.333 . S
O479 C481 1.214 . S
O480 Cd476 2.352 . S
O480 C483 1.258 . S
C481 O478 1.320 . S
C481 O479 1.214 . S
O482 Cd474 2.277 . S
O482 C477 1.209 . S
C483 O480 1.258 . S
C483 O485 1.282 . S
O484 Cd476 2.277 . S
O484 C477 1.226 . S
O485 Cd476 2.356 . S
O485 C483 1.282 . S
C486 O487 1.306 . S
C486 O489 1.160 . S
O487 C486 1.306 . S
O487 Cd488 2.228 . S
Cd488 O487 2.228 . S
Cd488 O492 2.273 . S
Cd488 O496 2.277 . S
O489 C486 1.160 . S
O489 Cd490 2.203 . S
Cd490 O489 2.203 . S
Cd490 O492 2.411 . S
Cd490 O493 2.333 . S
Cd490 O494 2.352 . S
Cd490 O498 2.277 . S
Cd490 O499 2.356 . S
C491 O496 1.209 . S
C491 O498 1.226 . S
O492 Cd488 2.273 . S
O492 Cd490 2.411 . S
O492 C495 1.320 . S
O493 Cd490 2.333 . S
O493 C495 1.214 . S
O494 Cd490 2.352 . S
O494 C497 1.258 . S
C495 O492 1.320 . S
C495 O493 1.214 . S
O496 Cd488 2.277 . S
O496 C491 1.209 . S
C497 O494 1.258 . S
C497 O499 1.282 . S
O498 Cd490 2.277 . S
O498 C491 1.226 . S
O499 Cd490 2.356 . S
O499 C497 1.282 . S
C500 O501 1.306 . S
C500 O503 1.160 . S
O501 C500 1.306 . S
O501 Cd502 2.228 . S
Cd502 O501 2.228 . S
Cd502 O506 2.273 . S
Cd502 O510 2.277 . S
O503 C500 1.160 . S
O503 Cd504 2.203 . S
Cd504 O503 2.203 . S
Cd504 O506 2.411 . S
Cd504 O507 2.333 . S
Cd504 O508 2.352 . S
Cd504 O512 2.277 . S
Cd504 O513 2.356 . S
C505 O510 1.209 . S
C505 O512 1.226 . S
O506 Cd502 2.273 . S
O506 Cd504 2.411 . S
O506 C509 1.320 . S
O507 Cd504 2.333 . S
O507 C509 1.214 . S
O508 Cd504 2.352 . S
O508 C511 1.258 . S
C509 O506 1.320 . S
C509 O507 1.214 . S
O510 Cd502 2.277 . S
O510 C505 1.209 . S
C511 O508 1.258 . S
C511 O513 1.282 . S
O512 Cd504 2.277 . S
O512 C505 1.226 . S
O513 Cd504 2.356 . S
O513 C511 1.282 . S
C514 O515 1.306 . S
C514 O517 1.160 . S
O515 C514 1.306 . S
O515 Cd516 2.228 . S
Cd516 O515 2.228 . S
Cd516 O520 2.273 . S
Cd516 O524 2.277 . S
O517 C514 1.160 . S
O517 Cd518 2.203 . S
Cd518 O517 2.203 . S
Cd518 O520 2.411 . S
Cd518 O521 2.333 . S
Cd518 O522 2.352 . S
Cd518 O526 2.277 . S
Cd518 O527 2.356 . S
C519 O524 1.209 . S
C519 O526 1.226 . S
O520 Cd516 2.273 . S
O520 Cd518 2.411 . S
O520 C523 1.320 . S
O521 Cd518 2.333 . S
O521 C523 1.214 . S
O522 Cd518 2.352 . S
O522 C525 1.258 . S
C523 O520 1.320 . S
C523 O521 1.214 . S
O524 Cd516 2.277 . S
O524 C519 1.209 . S
C525 O522 1.258 . S
C525 O527 1.282 . S
O526 Cd518 2.277 . S
O526 C519 1.226 . S
O527 Cd518 2.356 . S
O527 C525 1.282 . S
H528 C536 0.929 . S
H529 C538 0.930 . S
H530 C540 0.930 . S
H531 C543 0.929 . S
H532 C546 0.930 . S
H533 C548 0.960 . S
H534 C548 0.960 . S
H535 C548 0.960 . S
C536 H528 0.929 . S
C536 C537 1.377 . S
C536 C538 1.384 . S
C537 C536 1.377 . S
C537 C543 1.390 . S
C538 H529 0.930 . S
C538 C536 1.384 . S
C538 C539 1.372 . S
C539 C538 1.372 . S
C539 C540 1.400 . S
C539 C544 1.490 . S
C540 H530 0.930 . S
C540 C539 1.400 . S
C540 C543 1.386 . S
H541 C557 0.930 . S
H542 C558 0.931 . S
C543 H531 0.929 . S
C543 C537 1.390 . S
C543 C540 1.386 . S
C544 C539 1.490 . S
C544 C546 1.395 . S
C544 C547 1.403 . S
H545 C551 0.930 . S
C546 H532 0.930 . S
C546 C544 1.395 . S
C546 C549 1.403 . S
C547 C544 1.403 . S
C547 C548 1.524 . S
C547 C551 1.400 . S
C548 H533 0.960 . S
C548 H534 0.960 . S
C548 H535 0.960 . S
C548 C547 1.524 . S
C549 C546 1.403 . S
C549 C550 1.392 . S
C549 C553 1.495 . S
C550 C549 1.392 . S
C550 C551 1.385 . S
C550 C552 1.478 . S
C551 H545 0.930 . S
C551 C547 1.400 . S
C551 C550 1.385 . S
C552 C550 1.478 . S
C552 C554 1.381 . S
C552 C558 1.383 . S
C553 C549 1.495 . S
C553 H559 0.959 . S
C553 H560 0.961 . S
C553 H561 0.960 . S
C554 C552 1.381 . S
C554 C555 1.394 . S
C554 H562 0.930 . S
C555 C554 1.394 . S
C555 C556 1.383 . S
C555 H563 0.929 . S
C556 C555 1.383 . S
C556 C557 1.377 . S
C557 H541 0.930 . S
C557 C556 1.377 . S
C557 C558 1.379 . S
C558 H542 0.931 . S
C558 C552 1.383 . S
C558 C557 1.379 . S
H559 C553 0.959 . S
H560 C553 0.961 . S
H561 C553 0.960 . S
H562 C554 0.930 . S
H563 C555 0.929 . S
H564 C572 0.929 . S
H565 C574 0.930 . S
H566 C576 0.930 . S
H567 C579 0.929 . S
H568 C582 0.930 . S
H569 C584 0.960 . S
H570 C584 0.960 . S
H571 C584 0.960 . S
C572 H564 0.929 . S
C572 C573 1.377 . S
C572 C574 1.384 . S
C573 C572 1.377 . S
C573 C579 1.390 . S
C574 H565 0.930 . S
C574 C572 1.384 . S
C574 C575 1.372 . S
C575 C574 1.372 . S
C575 C576 1.400 . S
C575 C580 1.490 . S
C576 H566 0.930 . S
C576 C575 1.400 . S
C576 C579 1.386 . S
H577 C593 0.930 . S
H578 C594 0.931 . S
C579 H567 0.929 . S
C579 C573 1.390 . S
C579 C576 1.386 . S
C580 C575 1.490 . S
C580 C582 1.395 . S
C580 C583 1.403 . S
H581 C587 0.930 . S
C582 H568 0.930 . S
C582 C580 1.395 . S
C582 C585 1.403 . S
C583 C580 1.403 . S
C583 C584 1.524 . S
C583 C587 1.400 . S
C584 H569 0.960 . S
C584 H570 0.960 . S
C584 H571 0.960 . S
C584 C583 1.524 . S
C585 C582 1.403 . S
C585 C586 1.392 . S
C585 C589 1.495 . S
C586 C585 1.392 . S
C586 C587 1.385 . S
C586 C588 1.478 . S
C587 H581 0.930 . S
C587 C583 1.400 . S
C587 C586 1.385 . S
C588 C586 1.478 . S
C588 C590 1.381 . S
C588 C594 1.383 . S
C589 C585 1.495 . S
C589 H595 0.959 . S
C589 H596 0.961 . S
C589 H597 0.960 . S
C590 C588 1.381 . S
C590 C591 1.394 . S
C590 H598 0.930 . S
C591 C590 1.394 . S
C591 C592 1.383 . S
C591 H599 0.929 . S
C592 C591 1.383 . S
C592 C593 1.377 . S
C593 H577 0.930 . S
C593 C592 1.377 . S
C593 C594 1.379 . S
C594 H578 0.931 . S
C594 C588 1.383 . S
C594 C593 1.379 . S
H595 C589 0.959 . S
H596 C589 0.961 . S
H597 C589 0.960 . S
H598 C590 0.930 . S
H599 C591 0.929 . S
H600 C608 0.929 . S
H601 C610 0.930 . S
H602 C612 0.930 . S
H603 C615 0.929 . S
H604 C618 0.930 . S
H605 C620 0.960 . S
H606 C620 0.960 . S
H607 C620 0.960 . S
C608 H600 0.929 . S
C608 C609 1.377 . S
C608 C610 1.384 . S
C609 C608 1.377 . S
C609 C615 1.390 . S
C610 H601 0.930 . S
C610 C608 1.384 . S
C610 C611 1.372 . S
C611 C610 1.372 . S
C611 C612 1.400 . S
C611 C616 1.490 . S
C612 H602 0.930 . S
C612 C611 1.400 . S
C612 C615 1.386 . S
H613 C629 0.930 . S
H614 C630 0.931 . S
C615 H603 0.929 . S
C615 C609 1.390 . S
C615 C612 1.386 . S
C616 C611 1.490 . S
C616 C618 1.395 . S
C616 C619 1.403 . S
H617 C623 0.930 . S
C618 H604 0.930 . S
C618 C616 1.395 . S
C618 C621 1.403 . S
C619 C616 1.403 . S
C619 C620 1.524 . S
C619 C623 1.400 . S
C620 H605 0.960 . S
C620 H606 0.960 . S
C620 H607 0.960 . S
C620 C619 1.524 . S
C621 C618 1.403 . S
C621 C622 1.392 . S
C621 C625 1.495 . S
C622 C621 1.392 . S
C622 C623 1.385 . S
C622 C624 1.478 . S
C623 H617 0.930 . S
C623 C619 1.400 . S
C623 C622 1.385 . S
C624 C622 1.478 . S
C624 C626 1.381 . S
C624 C630 1.383 . S
C625 C621 1.495 . S
C625 H631 0.959 . S
C625 H632 0.961 . S
C625 H633 0.960 . S
C626 C624 1.381 . S
C626 C627 1.394 . S
C626 H634 0.930 . S
C627 C626 1.394 . S
C627 C628 1.383 . S
C627 H635 0.929 . S
C628 C627 1.383 . S
C628 C629 1.377 . S
C629 H613 0.930 . S
C629 C628 1.377 . S
C629 C630 1.379 . S
C630 H614 0.931 . S
C630 C624 1.383 . S
C630 C629 1.379 . S
H631 C625 0.959 . S
H632 C625 0.961 . S
H633 C625 0.960 . S
H634 C626 0.930 . S
H635 C627 0.929 . S
H636 C644 0.929 . S
H637 C646 0.930 . S
H638 C648 0.930 . S
H639 C651 0.929 . S
H640 C654 0.930 . S
H641 C656 0.960 . S
H642 C656 0.960 . S
H643 C656 0.960 . S
C644 H636 0.929 . S
C644 C645 1.377 . S
C644 C646 1.384 . S
C645 C644 1.377 . S
C645 C651 1.390 . S
C646 H637 0.930 . S
C646 C644 1.384 . S
C646 C647 1.372 . S
C647 C646 1.372 . S
C647 C648 1.400 . S
C647 C652 1.490 . S
C648 H638 0.930 . S
C648 C647 1.400 . S
C648 C651 1.386 . S
H649 C665 0.930 . S
H650 C666 0.931 . S
C651 H639 0.929 . S
C651 C645 1.390 . S
C651 C648 1.386 . S
C652 C647 1.490 . S
C652 C654 1.395 . S
C652 C655 1.403 . S
H653 C659 0.930 . S
C654 H640 0.930 . S
C654 C652 1.395 . S
C654 C657 1.403 . S
C655 C652 1.403 . S
C655 C656 1.524 . S
C655 C659 1.400 . S
C656 H641 0.960 . S
C656 H642 0.960 . S
C656 H643 0.960 . S
C656 C655 1.524 . S
C657 C654 1.403 . S
C657 C658 1.392 . S
C657 C661 1.495 . S
C658 C657 1.392 . S
C658 C659 1.385 . S
C658 C660 1.478 . S
C659 H653 0.930 . S
C659 C655 1.400 . S
C659 C658 1.385 . S
C660 C658 1.478 . S
C660 C662 1.381 . S
C660 C666 1.383 . S
C661 C657 1.495 . S
C661 H667 0.959 . S
C661 H668 0.961 . S
C661 H669 0.960 . S
C662 C660 1.381 . S
C662 C663 1.394 . S
C662 H670 0.930 . S
C663 C662 1.394 . S
C663 C664 1.383 . S
C663 H671 0.929 . S
C664 C663 1.383 . S
C664 C665 1.377 . S
C665 H649 0.930 . S
C665 C664 1.377 . S
C665 C666 1.379 . S
C666 H650 0.931 . S
C666 C660 1.383 . S
C666 C665 1.379 . S
H667 C661 0.959 . S
H668 C661 0.961 . S
H669 C661 0.960 . S
H670 C662 0.930 . S
H671 C663 0.929 . S
H672 C680 0.929 . S
H673 C682 0.930 . S
H674 C684 0.930 . S
H675 C687 0.929 . S
H676 C690 0.930 . S
H677 C692 0.960 . S
H678 C692 0.960 . S
H679 C692 0.960 . S
C680 H672 0.929 . S
C680 C681 1.377 . S
C680 C682 1.384 . S
C681 C680 1.377 . S
C681 C687 1.390 . S
C682 H673 0.930 . S
C682 C680 1.384 . S
C682 C683 1.372 . S
C683 C682 1.372 . S
C683 C684 1.400 . S
C683 C688 1.490 . S
C684 H674 0.930 . S
C684 C683 1.400 . S
C684 C687 1.386 . S
H685 C701 0.930 . S
H686 C702 0.931 . S
C687 H675 0.929 . S
C687 C681 1.390 . S
C687 C684 1.386 . S
C688 C683 1.490 . S
C688 C690 1.395 . S
C688 C691 1.403 . S
H689 C695 0.930 . S
C690 H676 0.930 . S
C690 C688 1.395 . S
C690 C693 1.403 . S
C691 C688 1.403 . S
C691 C692 1.524 . S
C691 C695 1.400 . S
C692 H677 0.960 . S
C692 H678 0.960 . S
C692 H679 0.960 . S
C692 C691 1.524 . S
C693 C690 1.403 . S
C693 C694 1.392 . S
C693 C697 1.495 . S
C694 C693 1.392 . S
C694 C695 1.385 . S
C694 C696 1.478 . S
C695 H689 0.930 . S
C695 C691 1.400 . S
C695 C694 1.385 . S
C696 C694 1.478 . S
C696 C698 1.381 . S
C696 C702 1.383 . S
C697 C693 1.495 . S
C697 H703 0.959 . S
C697 H704 0.961 . S
C697 H705 0.960 . S
C698 C696 1.381 . S
C698 C699 1.394 . S
C698 H706 0.930 . S
C699 C698 1.394 . S
C699 C700 1.383 . S
C699 H707 0.929 . S
C700 C699 1.383 . S
C700 C701 1.377 . S
C701 H685 0.930 . S
C701 C700 1.377 . S
C701 C702 1.379 . S
C702 H686 0.931 . S
C702 C696 1.383 . S
C702 C701 1.379 . S
H703 C697 0.959 . S
H704 C697 0.961 . S
H705 C697 0.960 . S
H706 C698 0.930 . S
H707 C699 0.929 . S
H708 C716 0.929 . S
H709 C718 0.930 . S
H710 C720 0.930 . S
H711 C723 0.929 . S
H712 C726 0.930 . S
H713 C728 0.960 . S
H714 C728 0.960 . S
H715 C728 0.960 . S
C716 H708 0.929 . S
C716 C717 1.377 . S
C716 C718 1.384 . S
C717 C716 1.377 . S
C717 C723 1.390 . S
C718 H709 0.930 . S
C718 C716 1.384 . S
C718 C719 1.372 . S
C719 C718 1.372 . S
C719 C720 1.400 . S
C719 C724 1.490 . S
C720 H710 0.930 . S
C720 C719 1.400 . S
C720 C723 1.386 . S
H721 C737 0.930 . S
H722 C738 0.931 . S
C723 H711 0.929 . S
C723 C717 1.390 . S
C723 C720 1.386 . S
C724 C719 1.490 . S
C724 C726 1.395 . S
C724 C727 1.403 . S
H725 C731 0.930 . S
C726 H712 0.930 . S
C726 C724 1.395 . S
C726 C729 1.403 . S
C727 C724 1.403 . S
C727 C728 1.524 . S
C727 C731 1.400 . S
C728 H713 0.960 . S
C728 H714 0.960 . S
C728 H715 0.960 . S
C728 C727 1.524 . S
C729 C726 1.403 . S
C729 C730 1.392 . S
C729 C733 1.495 . S
C730 C729 1.392 . S
C730 C731 1.385 . S
C730 C732 1.478 . S
C731 H725 0.930 . S
C731 C727 1.400 . S
C731 C730 1.385 . S
C732 C730 1.478 . S
C732 C734 1.381 . S
C732 C738 1.383 . S
C733 C729 1.495 . S
C733 H739 0.959 . S
C733 H740 0.961 . S
C733 H741 0.960 . S
C734 C732 1.381 . S
C734 C735 1.394 . S
C734 H742 0.930 . S
C735 C734 1.394 . S
C735 C736 1.383 . S
C735 H743 0.929 . S
C736 C735 1.383 . S
C736 C737 1.377 . S
C737 H721 0.930 . S
C737 C736 1.377 . S
C737 C738 1.379 . S
C738 H722 0.931 . S
C738 C732 1.383 . S
C738 C737 1.379 . S
H739 C733 0.959 . S
H740 C733 0.961 . S
H741 C733 0.960 . S
H742 C734 0.930 . S
H743 C735 0.929 . S
H744 C752 0.929 . S
H745 C754 0.930 . S
H746 C756 0.930 . S
H747 C759 0.929 . S
H748 C762 0.930 . S
H749 C764 0.960 . S
H750 C764 0.960 . S
H751 C764 0.960 . S
C752 H744 0.929 . S
C752 C753 1.377 . S
C752 C754 1.384 . S
C753 C752 1.377 . S
C753 C759 1.390 . S
C754 H745 0.930 . S
C754 C752 1.384 . S
C754 C755 1.372 . S
C755 C754 1.372 . S
C755 C756 1.400 . S
C755 C760 1.490 . S
C756 H746 0.930 . S
C756 C755 1.400 . S
C756 C759 1.386 . S
H757 C773 0.930 . S
H758 C774 0.931 . S
C759 H747 0.929 . S
C759 C753 1.390 . S
C759 C756 1.386 . S
C760 C755 1.490 . S
C760 C762 1.395 . S
C760 C763 1.403 . S
H761 C767 0.930 . S
C762 H748 0.930 . S
C762 C760 1.395 . S
C762 C765 1.403 . S
C763 C760 1.403 . S
C763 C764 1.524 . S
C763 C767 1.400 . S
C764 H749 0.960 . S
C764 H750 0.960 . S
C764 H751 0.960 . S
C764 C763 1.524 . S
C765 C762 1.403 . S
C765 C766 1.392 . S
C765 C769 1.495 . S
C766 C765 1.392 . S
C766 C767 1.385 . S
C766 C768 1.478 . S
C767 H761 0.930 . S
C767 C763 1.400 . S
C767 C766 1.385 . S
C768 C766 1.478 . S
C768 C770 1.381 . S
C768 C774 1.383 . S
C769 C765 1.495 . S
C769 H775 0.959 . S
C769 H776 0.961 . S
C769 H777 0.960 . S
C770 C768 1.381 . S
C770 C771 1.394 . S
C770 H778 0.930 . S
C771 C770 1.394 . S
C771 C772 1.383 . S
C771 H779 0.929 . S
C772 C771 1.383 . S
C772 C773 1.377 . S
C773 H757 0.930 . S
C773 C772 1.377 . S
C773 C774 1.379 . S
C774 H758 0.931 . S
C774 C768 1.383 . S
C774 C773 1.379 . S
H775 C769 0.959 . S
H776 C769 0.961 . S
H777 C769 0.960 . S
H778 C770 0.930 . S
H779 C771 0.929 . S
H780 C788 0.929 . S
H781 C790 0.930 . S
H782 C792 0.930 . S
H783 C795 0.929 . S
H784 C798 0.930 . S
H785 C800 0.960 . S
H786 C800 0.960 . S
H787 C800 0.960 . S
C788 H780 0.929 . S
C788 C789 1.377 . S
C788 C790 1.384 . S
C789 C788 1.377 . S
C789 C795 1.390 . S
C790 H781 0.930 . S
C790 C788 1.384 . S
C790 C791 1.372 . S
C791 C790 1.372 . S
C791 C792 1.400 . S
C791 C796 1.490 . S
C792 H782 0.930 . S
C792 C791 1.400 . S
C792 C795 1.386 . S
H793 C809 0.930 . S
H794 C810 0.931 . S
C795 H783 0.929 . S
C795 C789 1.390 . S
C795 C792 1.386 . S
C796 C791 1.490 . S
C796 C798 1.395 . S
C796 C799 1.403 . S
H797 C803 0.930 . S
C798 H784 0.930 . S
C798 C796 1.395 . S
C798 C801 1.403 . S
C799 C796 1.403 . S
C799 C800 1.524 . S
C799 C803 1.400 . S
C800 H785 0.960 . S
C800 H786 0.960 . S
C800 H787 0.960 . S
C800 C799 1.524 . S
C801 C798 1.403 . S
C801 C802 1.392 . S
C801 C805 1.495 . S
C802 C801 1.392 . S
C802 C803 1.385 . S
C802 C804 1.478 . S
C803 H797 0.930 . S
C803 C799 1.400 . S
C803 C802 1.385 . S
C804 C802 1.478 . S
C804 C806 1.381 . S
C804 C810 1.383 . S
C805 C801 1.495 . S
C805 H811 0.959 . S
C805 H812 0.961 . S
C805 H813 0.960 . S
C806 C804 1.381 . S
C806 C807 1.394 . S
C806 H814 0.930 . S
C807 C806 1.394 . S
C807 C808 1.383 . S
C807 H815 0.929 . S
C808 C807 1.383 . S
C808 C809 1.377 . S
C809 H793 0.930 . S
C809 C808 1.377 . S
C809 C810 1.379 . S
C810 H794 0.931 . S
C810 C804 1.383 . S
C810 C809 1.379 . S
H811 C805 0.959 . S
H812 C805 0.961 . S
H813 C805 0.960 . S
H814 C806 0.930 . S
H815 C807 0.929 . S
H816 C824 0.929 . S
H817 C826 0.930 . S
H818 C828 0.930 . S
H819 C831 0.929 . S
H820 C834 0.930 . S
H821 C836 0.960 . S
H822 C836 0.960 . S
H823 C836 0.960 . S
C824 H816 0.929 . S
C824 C825 1.377 . S
C824 C826 1.384 . S
C825 C824 1.377 . S
C825 C831 1.390 . S
C826 H817 0.930 . S
C826 C824 1.384 . S
C826 C827 1.372 . S
C827 C826 1.372 . S
C827 C828 1.400 . S
C827 C832 1.490 . S
C828 H818 0.930 . S
C828 C827 1.400 . S
C828 C831 1.386 . S
H829 C845 0.930 . S
H830 C846 0.931 . S
C831 H819 0.929 . S
C831 C825 1.390 . S
C831 C828 1.386 . S
C832 C827 1.490 . S
C832 C834 1.395 . S
C832 C835 1.403 . S
H833 C839 0.930 . S
C834 H820 0.930 . S
C834 C832 1.395 . S
C834 C837 1.403 . S
C835 C832 1.403 . S
C835 C836 1.524 . S
C835 C839 1.400 . S
C836 H821 0.960 . S
C836 H822 0.960 . S
C836 H823 0.960 . S
C836 C835 1.524 . S
C837 C834 1.403 . S
C837 C838 1.392 . S
C837 C841 1.495 . S
C838 C837 1.392 . S
C838 C839 1.385 . S
C838 C840 1.478 . S
C839 H833 0.930 . S
C839 C835 1.400 . S
C839 C838 1.385 . S
C840 C838 1.478 . S
C840 C842 1.381 . S
C840 C846 1.383 . S
C841 C837 1.495 . S
C841 H847 0.959 . S
C841 H848 0.961 . S
C841 H849 0.960 . S
C842 C840 1.381 . S
C842 C843 1.394 . S
C842 H850 0.930 . S
C843 C842 1.394 . S
C843 C844 1.383 . S
C843 H851 0.929 . S
C844 C843 1.383 . S
C844 C845 1.377 . S
C845 H829 0.930 . S
C845 C844 1.377 . S
C845 C846 1.379 . S
C846 H830 0.931 . S
C846 C840 1.383 . S
C846 C845 1.379 . S
H847 C841 0.959 . S
H848 C841 0.961 . S
H849 C841 0.960 . S
H850 C842 0.930 . S
H851 C843 0.929 . S
H852 C860 0.929 . S
H853 C862 0.930 . S
H854 C864 0.930 . S
H855 C867 0.929 . S
H856 C870 0.930 . S
H857 C872 0.960 . S
H858 C872 0.960 . S
H859 C872 0.960 . S
C860 H852 0.929 . S
C860 C861 1.377 . S
C860 C862 1.384 . S
C861 C860 1.377 . S
C861 C867 1.390 . S
C862 H853 0.930 . S
C862 C860 1.384 . S
C862 C863 1.372 . S
C863 C862 1.372 . S
C863 C864 1.400 . S
C863 C868 1.490 . S
C864 H854 0.930 . S
C864 C863 1.400 . S
C864 C867 1.386 . S
H865 C881 0.930 . S
H866 C882 0.931 . S
C867 H855 0.929 . S
C867 C861 1.390 . S
C867 C864 1.386 . S
C868 C863 1.490 . S
C868 C870 1.395 . S
C868 C871 1.403 . S
H869 C875 0.930 . S
C870 H856 0.930 . S
C870 C868 1.395 . S
C870 C873 1.403 . S
C871 C868 1.403 . S
C871 C872 1.524 . S
C871 C875 1.400 . S
C872 H857 0.960 . S
C872 H858 0.960 . S
C872 H859 0.960 . S
C872 C871 1.524 . S
C873 C870 1.403 . S
C873 C874 1.392 . S
C873 C877 1.495 . S
C874 C873 1.392 . S
C874 C875 1.385 . S
C874 C876 1.478 . S
C875 H869 0.930 . S
C875 C871 1.400 . S
C875 C874 1.385 . S
C876 C874 1.478 . S
C876 C878 1.381 . S
C876 C882 1.383 . S
C877 C873 1.495 . S
C877 H883 0.959 . S
C877 H884 0.961 . S
C877 H885 0.960 . S
C878 C876 1.381 . S
C878 C879 1.394 . S
C878 H886 0.930 . S
C879 C878 1.394 . S
C879 C880 1.383 . S
C879 H887 0.929 . S
C880 C879 1.383 . S
C880 C881 1.377 . S
C881 H865 0.930 . S
C881 C880 1.377 . S
C881 C882 1.379 . S
C882 H866 0.931 . S
C882 C876 1.383 . S
C882 C881 1.379 . S
H883 C877 0.959 . S
H884 C877 0.961 . S
H885 C877 0.960 . S
H886 C878 0.930 . S
H887 C879 0.929 . S
H888 C896 0.929 . S
H889 C898 0.930 . S
H890 C900 0.930 . S
H891 C903 0.929 . S
H892 C906 0.930 . S
H893 C908 0.960 . S
H894 C908 0.960 . S
H895 C908 0.960 . S
C896 H888 0.929 . S
C896 C897 1.377 . S
C896 C898 1.384 . S
C897 C896 1.377 . S
C897 C903 1.390 . S
C898 H889 0.930 . S
C898 C896 1.384 . S
C898 C899 1.372 . S
C899 C898 1.372 . S
C899 C900 1.400 . S
C899 C904 1.490 . S
C900 H890 0.930 . S
C900 C899 1.400 . S
C900 C903 1.386 . S
H901 C917 0.930 . S
H902 C918 0.931 . S
C903 H891 0.929 . S
C903 C897 1.390 . S
C903 C900 1.386 . S
C904 C899 1.490 . S
C904 C906 1.395 . S
C904 C907 1.403 . S
H905 C911 0.930 . S
C906 H892 0.930 . S
C906 C904 1.395 . S
C906 C909 1.403 . S
C907 C904 1.403 . S
C907 C908 1.524 . S
C907 C911 1.400 . S
C908 H893 0.960 . S
C908 H894 0.960 . S
C908 H895 0.960 . S
C908 C907 1.524 . S
C909 C906 1.403 . S
C909 C910 1.392 . S
C909 C913 1.495 . S
C910 C909 1.392 . S
C910 C911 1.385 . S
C910 C912 1.478 . S
C911 H905 0.930 . S
C911 C907 1.400 . S
C911 C910 1.385 . S
C912 C910 1.478 . S
C912 C914 1.381 . S
C912 C918 1.383 . S
C913 C909 1.495 . S
C913 H919 0.959 . S
C913 H920 0.961 . S
C913 H921 0.960 . S
C914 C912 1.381 . S
C914 C915 1.394 . S
C914 H922 0.930 . S
C915 C914 1.394 . S
C915 C916 1.383 . S
C915 H923 0.929 . S
C916 C915 1.383 . S
C916 C917 1.377 . S
C917 H901 0.930 . S
C917 C916 1.377 . S
C917 C918 1.379 . S
C918 H902 0.931 . S
C918 C912 1.383 . S
C918 C917 1.379 . S
H919 C913 0.959 . S
H920 C913 0.961 . S
H921 C913 0.960 . S
H922 C914 0.930 . S
H923 C915 0.929 . S
H924 C932 0.929 . S
H925 C934 0.930 . S
H926 C936 0.930 . S
H927 C939 0.929 . S
H928 C942 0.930 . S
H929 C944 0.960 . S
H930 C944 0.960 . S
H931 C944 0.960 . S
C932 H924 0.929 . S
C932 C933 1.377 . S
C932 C934 1.384 . S
C933 C932 1.377 . S
C933 C939 1.390 . S
C934 H925 0.930 . S
C934 C932 1.384 . S
C934 C935 1.372 . S
C935 C934 1.372 . S
C935 C936 1.400 . S
C935 C940 1.490 . S
C936 H926 0.930 . S
C936 C935 1.400 . S
C936 C939 1.386 . S
H937 C953 0.930 . S
H938 C954 0.931 . S
C939 H927 0.929 . S
C939 C933 1.390 . S
C939 C936 1.386 . S
C940 C935 1.490 . S
C940 C942 1.395 . S
C940 C943 1.403 . S
H941 C947 0.930 . S
C942 H928 0.930 . S
C942 C940 1.395 . S
C942 C945 1.403 . S
C943 C940 1.403 . S
C943 C944 1.524 . S
C943 C947 1.400 . S
C944 H929 0.960 . S
C944 H930 0.960 . S
C944 H931 0.960 . S
C944 C943 1.524 . S
C945 C942 1.403 . S
C945 C946 1.392 . S
C945 C949 1.495 . S
C946 C945 1.392 . S
C946 C947 1.385 . S
C946 C948 1.478 . S
C947 H941 0.930 . S
C947 C943 1.400 . S
C947 C946 1.385 . S
C948 C946 1.478 . S
C948 C950 1.381 . S
C948 C954 1.383 . S
C949 C945 1.495 . S
C949 H955 0.959 . S
C949 H956 0.961 . S
C949 H957 0.960 . S
C950 C948 1.381 . S
C950 C951 1.394 . S
C950 H958 0.930 . S
C951 C950 1.394 . S
C951 C952 1.383 . S
C951 H959 0.929 . S
C952 C951 1.383 . S
C952 C953 1.377 . S
C953 H937 0.930 . S
C953 C952 1.377 . S
C953 C954 1.379 . S
C954 H938 0.931 . S
C954 C948 1.383 . S
C954 C953 1.379 . S
H955 C949 0.959 . S
H956 C949 0.961 . S
H957 C949 0.960 . S
H958 C950 0.930 . S
H959 C951 0.929 . S
H960 C968 0.929 . S
H961 C970 0.930 . S
H962 C972 0.930 . S
H963 C975 0.929 . S
H964 C978 0.930 . S
H965 C980 0.960 . S
H966 C980 0.960 . S
H967 C980 0.960 . S
C968 H960 0.929 . S
C968 C969 1.377 . S
C968 C970 1.384 . S
C969 C968 1.377 . S
C969 C975 1.390 . S
C970 H961 0.930 . S
C970 C968 1.384 . S
C970 C971 1.372 . S
C971 C970 1.372 . S
C971 C972 1.400 . S
C971 C976 1.490 . S
C972 H962 0.930 . S
C972 C971 1.400 . S
C972 C975 1.386 . S
H973 C989 0.930 . S
H974 C990 0.931 . S
C975 H963 0.929 . S
C975 C969 1.390 . S
C975 C972 1.386 . S
C976 C971 1.490 . S
C976 C978 1.395 . S
C976 C979 1.403 . S
H977 C983 0.930 . S
C978 H964 0.930 . S
C978 C976 1.395 . S
C978 C981 1.403 . S
C979 C976 1.403 . S
C979 C980 1.524 . S
C979 C983 1.400 . S
C980 H965 0.960 . S
C980 H966 0.960 . S
C980 H967 0.960 . S
C980 C979 1.524 . S
C981 C978 1.403 . S
C981 C982 1.392 . S
C981 C985 1.495 . S
C982 C981 1.392 . S
C982 C983 1.385 . S
C982 C984 1.478 . S
C983 H977 0.930 . S
C983 C979 1.400 . S
C983 C982 1.385 . S
C984 C982 1.478 . S
C984 C986 1.381 . S
C984 C990 1.383 . S
C985 C981 1.495 . S
C985 H991 0.959 . S
C985 H992 0.961 . S
C985 H993 0.960 . S
C986 C984 1.381 . S
C986 C987 1.394 . S
C986 H994 0.930 . S
C987 C986 1.394 . S
C987 C988 1.383 . S
C987 H995 0.929 . S
C988 C987 1.383 . S
C988 C989 1.377 . S
C989 H973 0.930 . S
C989 C988 1.377 . S
C989 C990 1.379 . S
C990 H974 0.931 . S
C990 C984 1.383 . S
C990 C989 1.379 . S
H991 C985 0.959 . S
H992 C985 0.961 . S
H993 C985 0.960 . S
H994 C986 0.930 . S
H995 C987 0.929 . S
H996 C1004 0.929 . S
H997 C1006 0.930 . S
H998 C1008 0.930 . S
H999 C1011 0.929 . S
H1000 C1014 0.930 . S
H1001 C1016 0.960 . S
H1002 C1016 0.960 . S
H1003 C1016 0.960 . S
C1004 H996 0.929 . S
C1004 C1005 1.377 . S
C1004 C1006 1.384 . S
C1005 C1004 1.377 . S
C1005 C1011 1.390 . S
C1006 H997 0.930 . S
C1006 C1004 1.384 . S
C1006 C1007 1.372 . S
C1007 C1006 1.372 . S
C1007 C1008 1.400 . S
C1007 C1012 1.490 . S
C1008 H998 0.930 . S
C1008 C1007 1.400 . S
C1008 C1011 1.386 . S
H1009 C1025 0.930 . S
H1010 C1026 0.931 . S
C1011 H999 0.929 . S
C1011 C1005 1.390 . S
C1011 C1008 1.386 . S
C1012 C1007 1.490 . S
C1012 C1014 1.395 . S
C1012 C1015 1.403 . S
H1013 C1019 0.930 . S
C1014 H1000 0.930 . S
C1014 C1012 1.395 . S
C1014 C1017 1.403 . S
C1015 C1012 1.403 . S
C1015 C1016 1.524 . S
C1015 C1019 1.400 . S
C1016 H1001 0.960 . S
C1016 H1002 0.960 . S
C1016 H1003 0.960 . S
C1016 C1015 1.524 . S
C1017 C1014 1.403 . S
C1017 C1018 1.392 . S
C1017 C1021 1.495 . S
C1018 C1017 1.392 . S
C1018 C1019 1.385 . S
C1018 C1020 1.478 . S
C1019 H1013 0.930 . S
C1019 C1015 1.400 . S
C1019 C1018 1.385 . S
C1020 C1018 1.478 . S
C1020 C1022 1.381 . S
C1020 C1026 1.383 . S
C1021 C1017 1.495 . S
C1021 H1027 0.959 . S
C1021 H1028 0.961 . S
C1021 H1029 0.960 . S
C1022 C1020 1.381 . S
C1022 C1023 1.394 . S
C1022 H1030 0.930 . S
C1023 C1022 1.394 . S
C1023 C1024 1.383 . S
C1023 H1031 0.929 . S
C1024 C1023 1.383 . S
C1024 C1025 1.377 . S
C1025 H1009 0.930 . S
C1025 C1024 1.377 . S
C1025 C1026 1.379 . S
C1026 H1010 0.931 . S
C1026 C1020 1.383 . S
C1026 C1025 1.379 . S
H1027 C1021 0.959 . S
H1028 C1021 0.961 . S
H1029 C1021 0.960 . S
H1030 C1022 0.930 . S
H1031 C1023 0.929 . S
H1032 C1040 0.929 . S
H1033 C1042 0.930 . S
H1034 C1044 0.930 . S
H1035 C1047 0.929 . S
H1036 C1050 0.930 . S
H1037 C1052 0.960 . S
H1038 C1052 0.960 . S
H1039 C1052 0.960 . S
C1040 H1032 0.929 . S
C1040 C1041 1.377 . S
C1040 C1042 1.384 . S
C1041 C1040 1.377 . S
C1041 C1047 1.390 . S
C1042 H1033 0.930 . S
C1042 C1040 1.384 . S
C1042 C1043 1.372 . S
C1043 C1042 1.372 . S
C1043 C1044 1.400 . S
C1043 C1048 1.490 . S
C1044 H1034 0.930 . S
C1044 C1043 1.400 . S
C1044 C1047 1.386 . S
H1045 C1061 0.930 . S
H1046 C1062 0.931 . S
C1047 H1035 0.929 . S
C1047 C1041 1.390 . S
C1047 C1044 1.386 . S
C1048 C1043 1.490 . S
C1048 C1050 1.395 . S
C1048 C1051 1.403 . S
H1049 C1055 0.930 . S
C1050 H1036 0.930 . S
C1050 C1048 1.395 . S
C1050 C1053 1.403 . S
C1051 C1048 1.403 . S
C1051 C1052 1.524 . S
C1051 C1055 1.400 . S
C1052 H1037 0.960 . S
C1052 H1038 0.960 . S
C1052 H1039 0.960 . S
C1052 C1051 1.524 . S
C1053 C1050 1.403 . S
C1053 C1054 1.392 . S
C1053 C1057 1.495 . S
C1054 C1053 1.392 . S
C1054 C1055 1.385 . S
C1054 C1056 1.478 . S
C1055 H1049 0.930 . S
C1055 C1051 1.400 . S
C1055 C1054 1.385 . S
C1056 C1054 1.478 . S
C1056 C1058 1.381 . S
C1056 C1062 1.383 . S
C1057 C1053 1.495 . S
C1057 H1063 0.959 . S
C1057 H1064 0.961 . S
C1057 H1065 0.960 . S
C1058 C1056 1.381 . S
C1058 C1059 1.394 . S
C1058 H1066 0.930 . S
C1059 C1058 1.394 . S
C1059 C1060 1.383 . S
C1059 H1067 0.929 . S
C1060 C1059 1.383 . S
C1060 C1061 1.377 . S
C1061 H1045 0.930 . S
C1061 C1060 1.377 . S
C1061 C1062 1.379 . S
C1062 H1046 0.931 . S
C1062 C1056 1.383 . S
C1062 C1061 1.379 . S
H1063 C1057 0.959 . S
H1064 C1057 0.961 . S
H1065 C1057 0.960 . S
H1066 C1058 0.930 . S
H1067 C1059 0.929 . S
H1068 C1076 0.929 . S
H1069 C1078 0.930 . S
H1070 C1080 0.930 . S
H1071 C1083 0.929 . S
H1072 C1086 0.930 . S
H1073 C1088 0.960 . S
H1074 C1088 0.960 . S
H1075 C1088 0.960 . S
C1076 H1068 0.929 . S
C1076 C1077 1.377 . S
C1076 C1078 1.384 . S
C1077 C1076 1.377 . S
C1077 C1083 1.390 . S
C1078 H1069 0.930 . S
C1078 C1076 1.384 . S
C1078 C1079 1.372 . S
C1079 C1078 1.372 . S
C1079 C1080 1.400 . S
C1079 C1084 1.490 . S
C1080 H1070 0.930 . S
C1080 C1079 1.400 . S
C1080 C1083 1.386 . S
H1081 C1097 0.930 . S
H1082 C1098 0.931 . S
C1083 H1071 0.929 . S
C1083 C1077 1.390 . S
C1083 C1080 1.386 . S
C1084 C1079 1.490 . S
C1084 C1086 1.395 . S
C1084 C1087 1.403 . S
H1085 C1091 0.930 . S
C1086 H1072 0.930 . S
C1086 C1084 1.395 . S
C1086 C1089 1.403 . S
C1087 C1084 1.403 . S
C1087 C1088 1.524 . S
C1087 C1091 1.400 . S
C1088 H1073 0.960 . S
C1088 H1074 0.960 . S
C1088 H1075 0.960 . S
C1088 C1087 1.524 . S
C1089 C1086 1.403 . S
C1089 C1090 1.392 . S
C1089 C1093 1.495 . S
C1090 C1089 1.392 . S
C1090 C1091 1.385 . S
C1090 C1092 1.478 . S
C1091 H1085 0.930 . S
C1091 C1087 1.400 . S
C1091 C1090 1.385 . S
C1092 C1090 1.478 . S
C1092 C1094 1.376 1_556 S
C1092 C1098 1.383 1_556 S
C1093 C1089 1.495 . S
C1093 H1099 0.959 . S
C1093 H1100 0.961 . S
C1093 H1101 0.960 . S
C1094 C1092 1.376 1_554 S
C1094 C1095 1.414 . S
C1094 H1102 0.916 1_554 S
C1095 C1094 1.414 . S
C1095 C1096 1.383 . S
C1095 H1103 0.929 . S
C1096 C1095 1.383 . S
C1096 C1097 1.377 . S
C1097 H1081 0.930 . S
C1097 C1096 1.377 . S
C1097 C1098 1.379 . S
C1098 H1082 0.931 . S
C1098 C1092 1.383 1_554 S
C1098 C1097 1.379 . S
H1099 C1093 0.959 . S
H1100 C1093 0.961 . S
H1101 C1093 0.960 . S
H1102 C1094 0.916 1_556 S
H1103 C1095 0.929 . S
H1104 C1112 0.929 . S
H1105 C1114 0.930 . S
H1106 C1116 0.930 . S
H1107 C1119 0.929 . S
H1108 C1122 0.930 . S
H1109 C1124 0.960 . S
H1110 C1124 0.960 . S
H1111 C1124 0.960 . S
C1112 H1104 0.929 . S
C1112 C1113 1.377 . S
C1112 C1114 1.384 . S
C1113 C1112 1.377 . S
C1113 C1119 1.390 . S
C1114 H1105 0.930 . S
C1114 C1112 1.384 . S
C1114 C1115 1.372 . S
C1115 C1114 1.372 . S
C1115 C1116 1.400 . S
C1115 C1120 1.490 . S
C1116 H1106 0.930 . S
C1116 C1115 1.400 . S
C1116 C1119 1.386 . S
H1117 C1133 0.930 . S
H1118 C1134 0.931 . S
C1119 H1107 0.929 . S
C1119 C1113 1.390 . S
C1119 C1116 1.386 . S
C1120 C1115 1.490 . S
C1120 C1122 1.395 . S
C1120 C1123 1.403 . S
H1121 C1127 0.930 . S
C1122 H1108 0.930 . S
C1122 C1120 1.395 . S
C1122 C1125 1.403 . S
C1123 C1120 1.403 . S
C1123 C1124 1.524 . S
C1123 C1127 1.400 . S
C1124 H1109 0.960 . S
C1124 H1110 0.960 . S
C1124 H1111 0.960 . S
C1124 C1123 1.524 . S
C1125 C1122 1.403 . S
C1125 C1126 1.392 . S
C1125 C1129 1.495 . S
C1126 C1125 1.392 . S
C1126 C1127 1.385 . S
C1126 C1128 1.478 . S
C1127 H1121 0.930 . S
C1127 C1123 1.400 . S
C1127 C1126 1.385 . S
C1128 C1126 1.478 . S
C1128 C1130 1.381 . S
C1128 C1134 1.383 . S
C1129 C1125 1.495 . S
C1129 H1135 0.959 . S
C1129 H1136 0.961 . S
C1129 H1137 0.960 . S
C1130 C1128 1.381 . S
C1130 C1131 1.394 . S
C1130 H1138 0.930 . S
C1131 C1130 1.394 . S
C1131 C1132 1.383 . S
C1131 H1139 0.929 . S
C1132 C1131 1.383 . S
C1132 C1133 1.377 . S
C1133 H1117 0.930 . S
C1133 C1132 1.377 . S
C1133 C1134 1.379 . S
C1134 H1118 0.931 . S
C1134 C1128 1.383 . S
C1134 C1133 1.379 . S
H1135 C1129 0.959 . S
H1136 C1129 0.961 . S
H1137 C1129 0.960 . S
H1138 C1130 0.930 . S
H1139 C1131 0.929 . S
H1140 C1148 0.929 . S
H1141 C1150 0.930 . S
H1142 C1152 0.930 . S
H1143 C1155 0.929 . S
H1144 C1158 0.930 . S
H1145 C1160 0.960 . S
H1146 C1160 0.960 . S
H1147 C1160 0.960 . S
C1148 H1140 0.929 . S
C1148 C1149 1.377 . S
C1148 C1150 1.384 . S
C1149 C1148 1.377 . S
C1149 C1155 1.390 . S
C1150 H1141 0.930 . S
C1150 C1148 1.384 . S
C1150 C1151 1.372 . S
C1151 C1150 1.372 . S
C1151 C1152 1.400 . S
C1151 C1156 1.490 . S
C1152 H1142 0.930 . S
C1152 C1151 1.400 . S
C1152 C1155 1.386 . S
H1153 C1169 0.930 . S
H1154 C1170 0.931 . S
C1155 H1143 0.929 . S
C1155 C1149 1.390 . S
C1155 C1152 1.386 . S
C1156 C1151 1.490 . S
C1156 C1158 1.395 . S
C1156 C1159 1.403 . S
H1157 C1163 0.930 . S
C1158 H1144 0.930 . S
C1158 C1156 1.395 . S
C1158 C1161 1.403 . S
C1159 C1156 1.403 . S
C1159 C1160 1.524 . S
C1159 C1163 1.400 . S
C1160 H1145 0.960 . S
C1160 H1146 0.960 . S
C1160 H1147 0.960 . S
C1160 C1159 1.524 . S
C1161 C1158 1.403 . S
C1161 C1162 1.392 . S
C1161 C1165 1.495 . S
C1162 C1161 1.392 . S
C1162 C1163 1.385 . S
C1162 C1164 1.478 . S
C1163 H1157 0.930 . S
C1163 C1159 1.400 . S
C1163 C1162 1.385 . S
C1164 C1162 1.478 . S
C1164 C1166 1.381 . S
C1164 C1170 1.383 . S
C1165 C1161 1.495 . S
C1165 H1171 0.959 . S
C1165 H1172 0.961 . S
C1165 H1173 0.960 . S
C1166 C1164 1.381 . S
C1166 C1167 1.394 . S
C1166 H1174 0.930 . S
C1167 C1166 1.394 . S
C1167 C1168 1.383 . S
C1167 H1175 0.929 . S
C1168 C1167 1.383 . S
C1168 C1169 1.377 . S
C1169 H1153 0.930 . S
C1169 C1168 1.377 . S
C1169 C1170 1.379 . S
C1170 H1154 0.931 . S
C1170 C1164 1.383 . S
C1170 C1169 1.379 . S
H1171 C1165 0.959 . S
H1172 C1165 0.961 . S
H1173 C1165 0.960 . S
H1174 C1166 0.930 . S
H1175 C1167 0.929 . S
H1176 C1184 0.929 . S
H1177 C1186 0.930 . S
H1178 C1188 0.930 . S
H1179 C1191 0.929 . S
H1180 C1194 0.930 . S
H1181 C1196 0.960 . S
H1182 C1196 0.960 . S
H1183 C1196 0.960 . S
C1184 H1176 0.929 . S
C1184 C1185 1.377 . S
C1184 C1186 1.384 . S
C1185 C1184 1.377 . S
C1185 C1191 1.390 . S
C1186 H1177 0.930 . S
C1186 C1184 1.384 . S
C1186 C1187 1.372 . S
C1187 C1186 1.372 . S
C1187 C1188 1.400 . S
C1187 C1192 1.490 . S
C1188 H1178 0.930 . S
C1188 C1187 1.400 . S
C1188 C1191 1.386 . S
H1189 C1205 0.930 . S
H1190 C1206 0.931 . S
C1191 H1179 0.929 . S
C1191 C1185 1.390 . S
C1191 C1188 1.386 . S
C1192 C1187 1.490 . S
C1192 C1194 1.395 . S
C1192 C1195 1.403 . S
H1193 C1199 0.930 . S
C1194 H1180 0.930 . S
C1194 C1192 1.395 . S
C1194 C1197 1.403 . S
C1195 C1192 1.403 . S
C1195 C1196 1.524 . S
C1195 C1199 1.400 . S
C1196 H1181 0.960 . S
C1196 H1182 0.960 . S
C1196 H1183 0.960 . S
C1196 C1195 1.524 . S
C1197 C1194 1.403 . S
C1197 C1198 1.392 . S
C1197 C1201 1.495 . S
C1198 C1197 1.392 . S
C1198 C1199 1.385 . S
C1198 C1200 1.478 . S
C1199 H1193 0.930 . S
C1199 C1195 1.400 . S
C1199 C1198 1.385 . S
C1200 C1198 1.478 . S
C1200 C1202 1.381 . S
C1200 C1206 1.383 . S
C1201 C1197 1.495 . S
C1201 H1207 0.959 . S
C1201 H1208 0.961 . S
C1201 H1209 0.960 . S
C1202 C1200 1.381 . S
C1202 C1203 1.394 . S
C1202 H1210 0.930 . S
C1203 C1202 1.394 . S
C1203 C1204 1.383 . S
C1203 H1211 0.929 . S
C1204 C1203 1.383 . S
C1204 C1205 1.377 . S
C1205 H1189 0.930 . S
C1205 C1204 1.377 . S
C1205 C1206 1.379 . S
C1206 H1190 0.931 . S
C1206 C1200 1.383 . S
C1206 C1205 1.379 . S
H1207 C1201 0.959 . S
H1208 C1201 0.961 . S
H1209 C1201 0.960 . S
H1210 C1202 0.930 . S
H1211 C1203 0.929 . S
H1212 C1220 0.929 . S
H1213 C1222 0.930 . S
H1214 C1224 0.930 . S
H1215 C1227 0.929 . S
H1216 C1230 0.930 . S
H1217 C1232 0.960 . S
H1218 C1232 0.960 . S
H1219 C1232 0.960 . S
C1220 H1212 0.929 . S
C1220 C1221 1.377 . S
C1220 C1222 1.384 . S
C1221 C1220 1.377 . S
C1221 C1227 1.390 . S
C1222 H1213 0.930 . S
C1222 C1220 1.384 . S
C1222 C1223 1.372 . S
C1223 C1222 1.372 . S
C1223 C1224 1.400 . S
C1223 C1228 1.490 . S
C1224 H1214 0.930 . S
C1224 C1223 1.400 . S
C1224 C1227 1.386 . S
H1225 C1241 0.930 . S
H1226 C1242 0.931 . S
C1227 H1215 0.929 . S
C1227 C1221 1.390 . S
C1227 C1224 1.386 . S
C1228 C1223 1.490 . S
C1228 C1230 1.395 . S
C1228 C1231 1.403 . S
H1229 C1235 0.930 . S
C1230 H1216 0.930 . S
C1230 C1228 1.395 . S
C1230 C1233 1.403 . S
C1231 C1228 1.403 . S
C1231 C1232 1.524 . S
C1231 C1235 1.400 . S
C1232 H1217 0.960 . S
C1232 H1218 0.960 . S
C1232 H1219 0.960 . S
C1232 C1231 1.524 . S
C1233 C1230 1.403 . S
C1233 C1234 1.392 . S
C1233 C1237 1.495 . S
C1234 C1233 1.392 . S
C1234 C1235 1.385 . S
C1234 C1236 1.478 . S
C1235 H1229 0.930 . S
C1235 C1231 1.400 . S
C1235 C1234 1.385 . S
C1236 C1234 1.478 . S
C1236 C1238 1.381 . S
C1236 C1242 1.383 . S
C1237 C1233 1.495 . S
C1237 H1243 0.959 . S
C1237 H1244 0.961 . S
C1237 H1245 0.960 . S
C1238 C1236 1.381 . S
C1238 C1239 1.394 . S
C1238 H1246 0.930 . S
C1239 C1238 1.394 . S
C1239 C1240 1.383 . S
C1239 H1247 0.929 . S
C1240 C1239 1.383 . S
C1240 C1241 1.377 . S
C1241 H1225 0.930 . S
C1241 C1240 1.377 . S
C1241 C1242 1.379 . S
C1242 H1226 0.931 . S
C1242 C1236 1.383 . S
C1242 C1241 1.379 . S
H1243 C1237 0.959 . S
H1244 C1237 0.961 . S
H1245 C1237 0.960 . S
H1246 C1238 0.930 . S
H1247 C1239 0.929 . S
H1248 C1256 0.929 . S
H1249 C1258 0.930 . S
H1250 C1260 0.930 . S
H1251 C1263 0.929 . S
H1252 C1266 0.930 . S
H1253 C1268 0.960 . S
H1254 C1268 0.960 . S
H1255 C1268 0.960 . S
C1256 H1248 0.929 . S
C1256 C1257 1.377 . S
C1256 C1258 1.384 . S
C1257 C1256 1.377 . S
C1257 C1263 1.390 . S
C1258 H1249 0.930 . S
C1258 C1256 1.384 . S
C1258 C1259 1.372 . S
C1259 C1258 1.372 . S
C1259 C1260 1.400 . S
C1259 C1264 1.490 . S
C1260 H1250 0.930 . S
C1260 C1259 1.400 . S
C1260 C1263 1.386 . S
H1261 C1277 0.930 . S
H1262 C1278 0.931 . S
C1263 H1251 0.929 . S
C1263 C1257 1.390 . S
C1263 C1260 1.386 . S
C1264 C1259 1.490 . S
C1264 C1266 1.395 . S
C1264 C1267 1.403 . S
H1265 C1271 0.930 . S
C1266 H1252 0.930 . S
C1266 C1264 1.395 . S
C1266 C1269 1.403 . S
C1267 C1264 1.403 . S
C1267 C1268 1.524 . S
C1267 C1271 1.400 . S
C1268 H1253 0.960 . S
C1268 H1254 0.960 . S
C1268 H1255 0.960 . S
C1268 C1267 1.524 . S
C1269 C1266 1.403 . S
C1269 C1270 1.392 . S
C1269 C1273 1.495 . S
C1270 C1269 1.392 . S
C1270 C1271 1.385 . S
C1270 C1272 1.478 . S
C1271 H1265 0.930 . S
C1271 C1267 1.400 . S
C1271 C1270 1.385 . S
C1272 C1270 1.478 . S
C1272 C1274 1.381 . S
C1272 C1278 1.383 . S
C1273 C1269 1.495 . S
C1273 H1279 0.959 . S
C1273 H1280 0.961 . S
C1273 H1281 0.960 . S
C1274 C1272 1.381 . S
C1274 C1275 1.394 . S
C1274 H1282 0.930 . S
C1275 C1274 1.394 . S
C1275 C1276 1.383 . S
C1275 H1283 0.929 . S
C1276 C1275 1.383 . S
C1276 C1277 1.377 . S
C1277 H1261 0.930 . S
C1277 C1276 1.377 . S
C1277 C1278 1.379 . S
C1278 H1262 0.931 . S
C1278 C1272 1.383 . S
C1278 C1277 1.379 . S
H1279 C1273 0.959 . S
H1280 C1273 0.961 . S
H1281 C1273 0.960 . S
H1282 C1274 0.930 . S
H1283 C1275 0.929 . S
H1284 C1292 0.929 . S
H1285 C1294 0.930 . S
H1286 C1296 0.930 . S
H1287 C1299 0.929 . S
H1288 C1302 0.930 . S
H1289 C1304 0.960 . S
H1290 C1304 0.960 . S
H1291 C1304 0.960 . S
C1292 H1284 0.929 . S
C1292 C1293 1.377 . S
C1292 C1294 1.384 . S
C1293 C1292 1.377 . S
C1293 C1299 1.390 . S
C1294 H1285 0.930 . S
C1294 C1292 1.384 . S
C1294 C1295 1.372 . S
C1295 C1294 1.372 . S
C1295 C1296 1.400 . S
C1295 C1300 1.490 . S
C1296 H1286 0.930 . S
C1296 C1295 1.400 . S
C1296 C1299 1.386 . S
H1297 C1313 0.930 . S
H1298 C1314 0.931 . S
C1299 H1287 0.929 . S
C1299 C1293 1.390 . S
C1299 C1296 1.386 . S
C1300 C1295 1.490 . S
C1300 C1302 1.395 . S
C1300 C1303 1.403 . S
H1301 C1307 0.930 . S
C1302 H1288 0.930 . S
C1302 C1300 1.395 . S
C1302 C1305 1.403 . S
C1303 C1300 1.403 . S
C1303 C1304 1.524 . S
C1303 C1307 1.400 . S
C1304 H1289 0.960 . S
C1304 H1290 0.960 . S
C1304 H1291 0.960 . S
C1304 C1303 1.524 . S
C1305 C1302 1.403 . S
C1305 C1306 1.392 . S
C1305 C1309 1.495 . S
C1306 C1305 1.392 . S
C1306 C1307 1.385 . S
C1306 C1308 1.478 . S
C1307 H1301 0.930 . S
C1307 C1303 1.400 . S
C1307 C1306 1.385 . S
C1308 C1306 1.478 . S
C1308 C1310 1.381 . S
C1308 C1314 1.383 . S
C1309 C1305 1.495 . S
C1309 H1315 0.959 . S
C1309 H1316 0.961 . S
C1309 H1317 0.960 . S
C1310 C1308 1.381 . S
C1310 C1311 1.394 . S
C1310 H1318 0.930 . S
C1311 C1310 1.394 . S
C1311 C1312 1.383 . S
C1311 H1319 0.929 . S
C1312 C1311 1.383 . S
C1312 C1313 1.377 . S
C1313 H1297 0.930 . S
C1313 C1312 1.377 . S
C1313 C1314 1.379 . S
C1314 H1298 0.931 . S
C1314 C1308 1.383 . S
C1314 C1313 1.379 . S
H1315 C1309 0.959 . S
H1316 C1309 0.961 . S
H1317 C1309 0.960 . S
H1318 C1310 0.930 . S
H1319 C1311 0.929 . S
H1320 C1328 0.929 . S
H1321 C1330 0.930 . S
H1322 C1332 0.930 . S
H1323 C1335 0.929 . S
H1324 C1338 0.930 . S
H1325 C1340 0.960 . S
H1326 C1340 0.960 . S
H1327 C1340 0.960 . S
C1328 H1320 0.929 . S
C1328 C1329 1.377 . S
C1328 C1330 1.384 . S
C1329 C1328 1.377 . S
C1329 C1335 1.390 . S
C1330 H1321 0.930 . S
C1330 C1328 1.384 . S
C1330 C1331 1.372 . S
C1331 C1330 1.372 . S
C1331 C1332 1.400 . S
C1331 C1336 1.490 . S
C1332 H1322 0.930 . S
C1332 C1331 1.400 . S
C1332 C1335 1.386 . S
H1333 C1349 0.930 . S
H1334 C1350 0.931 . S
C1335 H1323 0.929 . S
C1335 C1329 1.390 . S
C1335 C1332 1.386 . S
C1336 C1331 1.490 . S
C1336 C1338 1.395 . S
C1336 C1339 1.403 . S
H1337 C1343 0.921 1_556 S
C1338 H1324 0.930 . S
C1338 C1336 1.395 . S
C1338 C1341 1.403 . S
C1339 C1336 1.403 . S
C1339 C1340 1.524 . S
C1339 C1343 1.410 . S
C1340 H1325 0.960 . S
C1340 H1326 0.960 . S
C1340 H1327 0.960 . S
C1340 C1339 1.524 . S
C1341 C1338 1.403 . S
C1341 C1342 1.392 1_554 S
C1341 C1345 1.495 . S
C1342 C1341 1.392 1_556 S
C1342 C1343 1.384 1_556 S
C1342 C1344 1.478 . S
C1343 H1337 0.921 1_554 S
C1343 C1339 1.410 . S
C1343 C1342 1.384 1_554 S
C1344 C1342 1.478 . S
C1344 C1346 1.381 . S
C1344 C1350 1.383 . S
C1345 C1341 1.495 . S
C1345 H1351 0.959 . S
C1345 H1352 0.961 . S
C1345 H1353 0.960 . S
C1346 C1344 1.381 . S
C1346 C1347 1.394 . S
C1346 H1354 0.930 . S
C1347 C1346 1.394 . S
C1347 C1348 1.383 . S
C1347 H1355 0.929 . S
C1348 C1347 1.383 . S
C1348 C1349 1.377 . S
C1349 H1333 0.930 . S
C1349 C1348 1.377 . S
C1349 C1350 1.379 . S
C1350 H1334 0.931 . S
C1350 C1344 1.383 . S
C1350 C1349 1.379 . S
H1351 C1345 0.959 . S
H1352 C1345 0.961 . S
H1353 C1345 0.960 . S
H1354 C1346 0.930 . S
H1355 C1347 0.929 . S
H1356 C1364 0.929 . S
H1357 C1366 0.930 . S
H1358 C1368 0.930 . S
H1359 C1371 0.929 . S
H1360 C1374 0.930 . S
H1361 C1376 0.960 . S
H1362 C1376 0.960 . S
H1363 C1376 0.960 . S
C1364 H1356 0.929 . S
C1364 C1365 1.377 . S
C1364 C1366 1.384 . S
C1365 C1364 1.377 . S
C1365 C1371 1.390 . S
C1366 H1357 0.930 . S
C1366 C1364 1.384 . S
C1366 C1367 1.372 . S
C1367 C1366 1.372 . S
C1367 C1368 1.400 . S
C1367 C1372 1.490 . S
C1368 H1358 0.930 . S
C1368 C1367 1.400 . S
C1368 C1371 1.386 . S
H1369 C1385 0.930 . S
H1370 C1386 0.931 . S
C1371 H1359 0.929 . S
C1371 C1365 1.390 . S
C1371 C1368 1.386 . S
C1372 C1367 1.490 . S
C1372 C1374 1.395 . S
C1372 C1375 1.403 . S
H1373 C1379 0.930 . S
C1374 H1360 0.930 . S
C1374 C1372 1.395 . S
C1374 C1377 1.403 . S
C1375 C1372 1.403 . S
C1375 C1376 1.524 . S
C1375 C1379 1.400 . S
C1376 H1361 0.960 . S
C1376 H1362 0.960 . S
C1376 H1363 0.960 . S
C1376 C1375 1.524 . S
C1377 C1374 1.403 . S
C1377 C1378 1.392 . S
C1377 C1381 1.495 . S
C1378 C1377 1.392 . S
C1378 C1379 1.385 . S
C1378 C1380 1.478 . S
C1379 H1373 0.930 . S
C1379 C1375 1.400 . S
C1379 C1378 1.385 . S
C1380 C1378 1.478 . S
C1380 C1382 1.381 . S
C1380 C1386 1.383 . S
C1381 C1377 1.495 . S
C1381 H1387 0.959 . S
C1381 H1388 0.961 . S
C1381 H1389 0.960 . S
C1382 C1380 1.381 . S
C1382 C1383 1.394 . S
C1382 H1390 0.930 . S
C1383 C1382 1.394 . S
C1383 C1384 1.383 . S
C1383 H1391 0.929 . S
C1384 C1383 1.383 . S
C1384 C1385 1.377 . S
C1385 H1369 0.930 . S
C1385 C1384 1.377 . S
C1385 C1386 1.379 . S
C1386 H1370 0.931 . S
C1386 C1380 1.383 . S
C1386 C1385 1.379 . S
H1387 C1381 0.959 . S
H1388 C1381 0.961 . S
H1389 C1381 0.960 . S
H1390 C1382 0.930 . S
H1391 C1383 0.929 . S
C556 C514 1.416 . S
C537 C51 1.395 . S
C573 C125 1.367 . S
C592 C455 1.365 . S
C609 C217 2.809 . S
C628 C458 2.843 . S
C645 C291 1.519 . S
C664 C472 1.512 . S
C700 C497 0.884 . S
C681 C347 0.873 . S
C717 C421 0.804 . S
C736 C500 0.772 . S
C753 C143 2.290 . S
C772 C469 2.288 . S
C789 C199 1.568 . S
C808 C483 1.583 . S
C825 C273 0.331 . S
C844 C486 0.366 . S
C880 C511 1.761 . S
C861 C365 1.733 . S
C916 C525 1.781 . S
C897 C439 1.785 . S
C952 C444 2.643 . S
C933 C69 2.602 . S
C969 C63 1.325 . S
C988 C467 1.400 . S
C1005 C137 1.546 . S
C1024 C481 1.612 . S
C1060 C491 1.314 . S
C1041 C187 1.270 . S
C1077 C261 1.483 . S
C1096 C509 1.492 . S
C1132 C523 1.498 . S
C1113 C359 1.406 . S
C1168 C449 1.063 . S
C1149 C433 1.046 . S
C1204 C519 1.672 . S
C1185 C113 1.668 . S
C1221 C211 1.271 . S
C1240 C453 1.326 . S
C1276 C463 1.562 . S
C1257 C285 1.484 . S
C1293 C335 1.370 . S
C1312 C477 1.441 . S
C1329 C409 1.320 . S
C1348 C495 1.338 . S
C1365 C39 1.631 . S
C1384 C505 1.663 . S
