# Generated by pormake.
# Topology ant, (3,6)-cn, num edge types: 1
# Building blocks:
#     Node 0, Type 0, BuildingBlock: KAKCAD_clean_linker_0, # of connection points: 3
#     Node 1, Type 0, BuildingBlock: KAKCAD_clean_linker_0, # of connection points: 3
#     Node 2, Type 0, BuildingBlock: KAKCAD_clean_linker_0, # of connection points: 3
#     Node 3, Type 0, BuildingBlock: KAKCAD_clean_linker_0, # of connection points: 3
#     Node 4, Type 0, BuildingBlock: KAKCAD_clean_linker_0, # of connection points: 3
#     Node 5, Type 0, BuildingBlock: KAKCAD_clean_linker_0, # of connection points: 3
#     Node 6, Type 0, BuildingBlock: KAKCAD_clean_linker_0, # of connection points: 3
#     Node 7, Type 0, BuildingBlock: KAKCAD_clean_linker_0, # of connection points: 3
#     Node 8, Type 1, BuildingBlock: MIDCAF_clean_sbu_0, # of connection points: 6
#     Node 9, Type 1, BuildingBlock: MIDCAF_clean_sbu_0, # of connection points: 6
#     Node 10, Type 1, BuildingBlock: MIDCAF_clean_sbu_0, # of connection points: 6
#     Node 11, Type 1, BuildingBlock: MIDCAF_clean_sbu_0, # of connection points: 6
#     Edge 12, Type (0, 1), BuildingBlock: XUDNAN_clean_linker_2, # of connection points: 2
#     Edge 13, Type (0, 1), BuildingBlock: XUDNAN_clean_linker_2, # of connection points: 2
#     Edge 14, Type (0, 1), BuildingBlock: XUDNAN_clean_linker_2, # of connection points: 2
#     Edge 15, Type (0, 1), BuildingBlock: XUDNAN_clean_linker_2, # of connection points: 2
#     Edge 16, Type (0, 1), BuildingBlock: XUDNAN_clean_linker_2, # of connection points: 2
#     Edge 17, Type (0, 1), BuildingBlock: XUDNAN_clean_linker_2, # of connection points: 2
#     Edge 18, Type (0, 1), BuildingBlock: XUDNAN_clean_linker_2, # of connection points: 2
#     Edge 19, Type (0, 1), BuildingBlock: XUDNAN_clean_linker_2, # of connection points: 2
#     Edge 20, Type (0, 1), BuildingBlock: XUDNAN_clean_linker_2, # of connection points: 2
#     Edge 21, Type (0, 1), BuildingBlock: XUDNAN_clean_linker_2, # of connection points: 2
#     Edge 22, Type (0, 1), BuildingBlock: XUDNAN_clean_linker_2, # of connection points: 2
#     Edge 23, Type (0, 1), BuildingBlock: XUDNAN_clean_linker_2, # of connection points: 2
#     Edge 24, Type (0, 1), BuildingBlock: XUDNAN_clean_linker_2, # of connection points: 2
#     Edge 25, Type (0, 1), BuildingBlock: XUDNAN_clean_linker_2, # of connection points: 2
#     Edge 26, Type (0, 1), BuildingBlock: XUDNAN_clean_linker_2, # of connection points: 2
#     Edge 27, Type (0, 1), BuildingBlock: XUDNAN_clean_linker_2, # of connection points: 2
#     Edge 28, Type (0, 1), BuildingBlock: XUDNAN_clean_linker_2, # of connection points: 2
#     Edge 29, Type (0, 1), BuildingBlock: XUDNAN_clean_linker_2, # of connection points: 2
#     Edge 30, Type (0, 1), BuildingBlock: XUDNAN_clean_linker_2, # of connection points: 2
#     Edge 31, Type (0, 1), BuildingBlock: XUDNAN_clean_linker_2, # of connection points: 2
#     Edge 32, Type (0, 1), BuildingBlock: XUDNAN_clean_linker_2, # of connection points: 2
#     Edge 33, Type (0, 1), BuildingBlock: XUDNAN_clean_linker_2, # of connection points: 2
#     Edge 34, Type (0, 1), BuildingBlock: XUDNAN_clean_linker_2, # of connection points: 2
#     Edge 35, Type (0, 1), BuildingBlock: XUDNAN_clean_linker_2, # of connection points: 2
# Relax obj value: 0.103
# Max RMSD: 0.159
# Mean RMSD: 0.105
data_MOF--net-ant--node1-MIDCAF_clean_sbu_0--node2-KAKCAD_clean_linker_0--edge1-XUDNAN_clean_linker_2
_symmetry_space_group_name_H-M    P1
_symmetry_Int_Tables_number       1
_symmetry_cell_setting            triclinic
loop_
_symmetry_equiv_pos_as_xyz
'x, y, z'
_cell_length_a     34.3562
_cell_length_b     34.194601
_cell_length_c     93.773123
_cell_angle_alpha  90.36745
_cell_angle_beta   93.775461
_cell_angle_gamma 89.874339
loop_
_atom_site_label
_atom_site_type_symbol
_atom_site_fract_x
_atom_site_fract_y
_atom_site_fract_z
_atom_type_partial_charge
C0 C 0.15426 0.16372 0.01874 0.0
C1 C 0.16524 0.1879 0.00764 0.0
C2 C 0.16356 0.17405 0.03303 0.0
C3 C 0.18407 0.20878 0.03653 0.0
C4 C 0.19486 0.23297 0.02541 0.0
C5 C 0.18543 0.22277 0.01117 0.0
C6 C 0.19449 0.21972 0.05169 0.0
C7 C 0.20704 0.19114 0.06163 0.0
C8 C 0.21722 0.20119 0.07591 0.0
C9 C 0.21466 0.24035 0.0804 0.0
C10 C 0.20225 0.26947 0.07055 0.0
C11 C 0.19229 0.25885 0.05626 0.0
C12 C 0.19859 0.31101 0.07499 0.0
C13 C 0.1763 0.32137 0.08646 0.0
C14 C 0.21502 0.3408 0.06706 0.0
C15 C 0.2087 0.38017 0.07035 0.0
C16 C 0.18523 0.39059 0.08149 0.0
C17 C 0.23018 0.16981 0.08587 0.0
C18 C 0.20271 0.14345 0.09058 0.0
C19 C 0.27007 0.16223 0.08874 0.0
C20 C 0.28234 0.12771 0.09567 0.0
C21 C 0.25484 0.10035 0.09989 0.0
C22 C 0.21488 0.10919 0.0976 0.0
C23 C 0.1694 0.3608 0.08961 0.0
H24 H 0.13881 0.13662 0.0164 0.0
H25 H 0.15435 0.15496 0.04134 0.0
H26 H 0.21101 0.2597 0.02768 0.0
H27 H 0.19368 0.24255 0.00292 0.0
H28 H 0.20962 0.16091 0.05825 0.0
H29 H 0.18176 0.28111 0.04878 0.0
H30 H 0.22241 0.24809 0.09145 0.0
H31 H 0.16309 0.29899 0.09268 0.0
H32 H 0.23239 0.33358 0.05817 0.0
H33 H 0.22116 0.40248 0.06389 0.0
H34 H 0.17181 0.1485 0.08823 0.0
H35 H 0.29169 0.182 0.08497 0.0
H36 H 0.15149 0.36802 0.09834 0.0
H37 H 0.19287 0.08855 0.10045 0.0
H38 H 0.31329 0.12183 0.09733 0.0
C39 C 0.08288 0.75983 0.25527 0.0
C40 C 0.05863 0.78177 0.24569 0.0
C41 C 0.08686 0.76989 0.26972 0.0
C42 C 0.0663 0.80187 0.27495 0.0
C43 C 0.0422 0.8241 0.26537 0.0
C44 C 0.03875 0.81439 0.25079 0.0
C45 C 0.06886 0.81038 0.29051 0.0
C46 C 0.10526 0.81123 0.29821 0.0
C47 C 0.10795 0.81467 0.31318 0.0
C48 C 0.07355 0.81696 0.3205 0.0
C49 C 0.03681 0.81594 0.31289 0.0
C50 C 0.03481 0.8135 0.29789 0.0
C51 C 1.00035 0.81257 0.32042 0.0
C52 C 0.99636 0.78251 0.33035 0.0
C53 C 0.96785 0.8361 0.31647 0.0
C54 C 0.93172 0.82888 0.322 0.0
C55 C 0.92728 0.79748 0.33134 0.0
C56 C 0.14688 0.81339 0.32102 0.0
C57 C 0.17301 0.78318 0.31818 0.0
C58 C 0.15892 0.84293 0.3308 0.0
C59 C 0.19703 0.84302 0.33719 0.0
C60 C 0.22365 0.81326 0.33404 0.0
C61 C 0.21073 0.78291 0.32468 0.0
C62 C 0.96009 0.77483 0.33567 0.0
H63 H 0.09885 0.73479 0.25156 0.0
H64 H 0.1053 0.75201 0.27689 0.0
H65 H 0.02609 0.84892 0.26916 0.0
H66 H 0.01996 0.83175 0.24357 0.0
H67 H 0.13167 0.80879 0.29253 0.0
H68 H 0.00662 0.8112 0.29202 0.0
H69 H 0.07533 0.81823 0.33208 0.0
H70 H 0.02083 0.76366 0.33344 0.0
H71 H 0.9702 0.85938 0.3088 0.0
H72 H 0.90685 0.84668 0.31847 0.0
H73 H 0.16424 0.75971 0.31084 0.0
H74 H 0.1393 0.86663 0.33313 0.0
H75 H 0.95746 0.75063 0.34294 0.0
H76 H 0.22978 0.75879 0.32232 0.0
H77 H 0.20589 0.86699 0.34426 0.0
C78 C 0.6488 0.65696 0.51803 0.0
C79 C 0.66109 0.67869 0.50649 0.0
C80 C 0.66067 0.66754 0.53208 0.0
C81 C 0.68488 0.70021 0.53488 0.0
C82 C 0.69714 0.7219 0.52334 0.0
C83 C 0.68541 0.71126 0.50931 0.0
C84 C 0.69727 0.71172 0.5498 0.0
C85 C 0.70909 0.68321 0.55987 0.0
C86 C 0.72061 0.69367 0.574 0.0
C87 C 0.71986 0.73315 0.57821 0.0
C88 C 0.70782 0.76212 0.56825 0.0
C89 C 0.697 0.75117 0.55407 0.0
C90 C 0.70436 0.80369 0.57262 0.0
C91 C 0.68173 0.81411 0.58399 0.0
C92 C 0.72094 0.83339 0.56469 0.0
C93 C 0.71443 0.87278 0.5679 0.0
C94 C 0.69054 0.88321 0.57892 0.0
C95 C 0.73268 0.66245 0.58417 0.0
C96 C 0.70558 0.6339 0.5875 0.0
C97 C 0.772 0.65787 0.58895 0.0
C98 C 0.78434 0.62406 0.59635 0.0
C99 C 0.75738 0.59468 0.59923 0.0
C100 C 0.71773 0.6005 0.59503 0.0
C101 C 0.67459 0.85351 0.58703 0.0
H102 H 0.63016 0.63168 0.5162 0.0
H103 H 0.65042 0.65046 0.54077 0.0
H104 H 0.71603 0.74701 0.52514 0.0
H105 H 0.69489 0.72903 0.50067 0.0
H106 H 0.70996 0.6527 0.55667 0.0
H107 H 0.6869 0.77333 0.54647 0.0
H108 H 0.72824 0.74122 0.58918 0.0
H109 H 0.66835 0.79178 0.59018 0.0
H110 H 0.7385 0.82607 0.55586 0.0
H111 H 0.72698 0.8951 0.56147 0.0
H112 H 0.67519 0.63672 0.58375 0.0
H113 H 0.79341 0.67943 0.58632 0.0
H114 H 0.65633 0.86079 0.59566 0.0
H115 H 0.69629 0.5782 0.59685 0.0
H116 H 0.81504 0.62035 0.59946 0.0
C117 C 0.60243 0.27835 0.75141 0.0
C118 C 0.57342 0.29884 0.74322 0.0
C119 C 0.6053 0.28159 0.76628 0.0
C120 C 0.57931 0.30551 0.77335 0.0
C121 C 0.5506 0.32647 0.76516 0.0
C122 C 0.54773 0.32322 0.75025 0.0
C123 C 0.58126 0.30718 0.78923 0.0
C124 C 0.61736 0.30815 0.79718 0.0
C125 C 0.61942 0.30698 0.8122 0.0
C126 C 0.58467 0.30492 0.81931 0.0
C127 C 0.54834 0.3042 0.81148 0.0
C128 C 0.54693 0.30562 0.7965 0.0
C129 C 0.51149 0.2993 0.8186 0.0
C130 C 0.50636 0.2671 0.8275 0.0
C131 C 0.47982 0.3244 0.81527 0.0
C132 C 0.44335 0.31684 0.8204 0.0
C133 C 0.43769 0.28366 0.82877 0.0
C134 C 0.65813 0.30673 0.82026 0.0
C135 C 0.68764 0.28166 0.81596 0.0
C136 C 0.6664 0.33224 0.83186 0.0
C137 C 0.7039 0.33351 0.83874 0.0
C138 C 0.73377 0.30901 0.83421 0.0
C139 C 0.72485 0.2826 0.82289 0.0
C140 C 0.46966 0.25916 0.83245 0.0
H141 H 0.62318 0.25988 0.74633 0.0
H142 H 0.62746 0.2647 0.77226 0.0
H143 H 0.53034 0.34541 0.77028 0.0
H144 H 0.52503 0.33933 0.74424 0.0
H145 H 0.64403 0.31005 0.79166 0.0
H146 H 0.51896 0.30358 0.79048 0.0
H147 H 0.58589 0.30325 0.83087 0.0
H148 H 0.53027 0.24712 0.83009 0.0
H149 H 0.48311 0.34937 0.8084 0.0
H150 H 0.41918 0.33611 0.81736 0.0
H151 H 0.68191 0.26118 0.80721 0.0
H152 H 0.6442 0.35202 0.83535 0.0
H153 H 0.46613 0.23359 0.83899 0.0
H154 H 0.74661 0.26242 0.81936 0.0
H155 H 0.7097 0.35435 0.84735 0.0
C156 C 0.04291 0.72078 0.98798 0.0
C157 C 0.06081 0.6852 0.99192 0.0
C158 C 0.03273 0.72877 0.97364 0.0
C159 C 0.04095 0.70162 0.96292 0.0
C160 C 0.05737 0.66522 0.967 0.0
C161 C 0.06696 0.65699 0.9814 0.0
C162 C 0.03537 0.71234 0.94755 0.0
C163 C 0.04466 0.75014 0.94307 0.0
C164 C 0.0436 0.75984 0.92846 0.0
C165 C 0.03241 0.73077 0.91825 0.0
C166 C 0.02182 0.69329 0.92266 0.0
C167 C 0.0232 0.68438 0.93724 0.0
C168 C 0.01198 0.66167 0.91229 0.0
C169 C 0.97375 0.64727 0.91068 0.0
C170 C 0.04198 0.64124 0.90609 0.0
C171 C 0.03436 0.60551 0.89915 0.0
C172 C 0.99639 0.58966 0.89816 0.0
C173 C 0.05438 0.80026 0.92411 0.0
C174 C 0.03537 0.81839 0.91216 0.0
C175 C 0.08272 0.82183 0.93234 0.0
C176 C 0.09023 0.86086 0.92922 0.0
C177 C 0.07062 0.87941 0.91747 0.0
C178 C 0.04366 0.85724 0.9088 0.0
C179 C 0.96593 0.61184 0.90352 0.0
H180 H 0.03761 0.74279 0.99599 0.0
H181 H 0.01925 0.75665 0.97095 0.0
H182 H 0.06454 0.64375 0.95905 0.0
H183 H 0.08098 0.62946 0.98425 0.0
H184 H 0.05339 0.77196 0.95104 0.0
H185 H 0.0155 0.65519 0.9405 0.0
H186 H 0.03239 0.7369 0.90693 0.0
H187 H 0.95027 0.66256 0.91552 0.0
H188 H 0.0718 0.65156 0.90748 0.0
H189 H 0.05882 0.58925 0.89543 0.0
H190 H 0.01331 0.80298 0.90555 0.0
H191 H 0.09904 0.80881 0.94137 0.0
H192 H 0.93624 0.60108 0.90274 0.0
H193 H 0.02861 0.8698 0.89941 0.0
H194 H 0.11088 0.87659 0.93632 0.0
C195 C 0.71796 0.81386 0.244 0.0
C196 C 0.6929 0.78733 0.25016 0.0
C197 C 0.71608 0.81923 0.22923 0.0
C198 C 0.68943 0.79784 0.22022 0.0
C199 C 0.66438 0.77128 0.22637 0.0
C200 C 0.66596 0.76623 0.24116 0.0
C201 C 0.68837 0.80282 0.20446 0.0
C202 C 0.72312 0.80797 0.19772 0.0
C203 C 0.72295 0.81368 0.18293 0.0
C204 C 0.68731 0.81312 0.17463 0.0
C205 C 0.65204 0.80742 0.1812 0.0
C206 C 0.65293 0.80259 0.19611 0.0
C207 C 0.61385 0.80684 0.17277 0.0
C208 C 0.60354 0.83633 0.16284 0.0
C209 C 0.58628 0.77796 0.17543 0.0
C210 C 0.54888 0.77913 0.16869 0.0
C211 C 0.53797 0.80927 0.15909 0.0
C212 C 0.7607 0.82042 0.17659 0.0
C213 C 0.78675 0.84799 0.18295 0.0
C214 C 0.77276 0.79687 0.16538 0.0
C215 C 0.8109 0.79983 0.16101 0.0
C216 C 0.83736 0.82665 0.16772 0.0
C217 C 0.82459 0.85105 0.17859 0.0
C218 C 0.56585 0.83767 0.15612 0.0
H219 H 0.73925 0.83039 0.25057 0.0
H220 H 0.73542 0.84041 0.22489 0.0
H221 H 0.64378 0.75404 0.21975 0.0
H222 H 0.64564 0.74611 0.24553 0.0
H223 H 0.75077 0.80699 0.20399 0.0
H224 H 0.62578 0.79958 0.20126 0.0
H225 H 0.68704 0.81721 0.16317 0.0
H226 H 0.62414 0.8591 0.16065 0.0
H227 H 0.59346 0.75472 0.18296 0.0
H228 H 0.52808 0.75705 0.17137 0.0
H229 H 0.77812 0.86654 0.19161 0.0
H230 H 0.75326 0.77519 0.16039 0.0
H231 H 0.55842 0.86109 0.14871 0.0
H232 H 0.84424 0.87176 0.18406 0.0
H233 H 0.81977 0.781 0.15248 0.0
C234 C 0.58156 0.21369 0.48393 0.0
C235 C 0.59923 0.17711 0.48635 0.0
C236 C 0.56517 0.22338 0.47043 0.0
C237 C 0.56669 0.19699 0.45891 0.0
C238 C 0.58437 0.16016 0.4614 0.0
C239 C 0.60016 0.15018 0.47505 0.0
C240 C 0.54939 0.20797 0.44448 0.0
C241 C 0.55106 0.24676 0.43974 0.0
C242 C 0.53246 0.25836 0.42662 0.0
C243 C 0.51416 0.22967 0.41764 0.0
C244 C 0.51286 0.19051 0.42212 0.0
C245 C 0.53008 0.18014 0.43557 0.0
C246 C 0.49428 0.1594 0.41296 0.0
C247 C 0.46738 0.134 0.41869 0.0
C248 C 0.50798 0.15084 0.39951 0.0
C249 C 0.49783 0.11552 0.39256 0.0
C250 C 0.47378 0.0884 0.39898 0.0
C251 C 0.53129 0.30073 0.42287 0.0
C252 C 0.52681 0.32898 0.43362 0.0
C253 C 0.53541 0.31355 0.40883 0.0
C254 C 0.53585 0.35365 0.40573 0.0
C255 C 0.53226 0.38184 0.41661 0.0
C256 C 0.52768 0.36881 0.43058 0.0
C257 C 0.45715 0.09893 0.41175 0.0
H258 H 0.58003 0.23469 0.49258 0.0
H259 H 0.55089 0.2515 0.4691 0.0
H260 H 0.58653 0.13922 0.45278 0.0
H261 H 0.61376 0.12182 0.47672 0.0
H262 H 0.5671 0.26821 0.44632 0.0
H263 H 0.52827 0.15011 0.43909 0.0
H264 H 0.49985 0.23782 0.40744 0.0
H265 H 0.45613 0.14018 0.42899 0.0
H266 H 0.52891 0.16991 0.39492 0.0
H267 H 0.51127 0.10816 0.38276 0.0
H268 H 0.5227 0.32036 0.44452 0.0
H269 H 0.53903 0.29268 0.40028 0.0
H270 H 0.43805 0.07891 0.41684 0.0
H271 H 0.5254 0.38936 0.43931 0.0
H272 H 0.53885 0.36249 0.39479 0.0
C273 C 0.22658 0.28598 0.74077 0.0
C274 C 0.19963 0.26188 0.74715 0.0
C275 C 0.22556 0.28985 0.72592 0.0
C276 C 0.19789 0.26931 0.71706 0.0
C277 C 0.17148 0.24458 0.72343 0.0
C278 C 0.17215 0.24113 0.73827 0.0
C279 C 0.19634 0.27392 0.70125 0.0
C280 C 0.23076 0.27821 0.69416 0.0
C281 C 0.22958 0.28317 0.67931 0.0
C282 C 0.19345 0.28329 0.67135 0.0
C283 C 0.15856 0.27904 0.67825 0.0
C284 C 0.16038 0.2746 0.69319 0.0
C285 C 0.11987 0.27997 0.67015 0.0
C286 C 0.11069 0.30907 0.65994 0.0
C287 C 0.09093 0.25298 0.6733 0.0
C288 C 0.05338 0.25562 0.66672 0.0
C289 C 0.04372 0.28535 0.65681 0.0
C290 C 0.26652 0.28928 0.67242 0.0
C291 C 0.29117 0.32016 0.67704 0.0
C292 C 0.27851 0.26327 0.66191 0.0
C293 C 0.31503 0.26778 0.6563 0.0
C294 C 0.33959 0.29882 0.66091 0.0
C295 C 0.3272 0.3251 0.67125 0.0
C296 C 0.07291 0.31185 0.65338 0.0
H297 H 0.24846 0.30206 0.74723 0.0
H298 H 0.24608 0.30955 0.72144 0.0
H299 H 0.15015 0.22783 0.71695 0.0
H300 H 0.15048 0.22278 0.74276 0.0
H301 H 0.25882 0.27721 0.70016 0.0
H302 H 0.13353 0.27279 0.69859 0.0
H303 H 0.19254 0.287 0.65986 0.0
H304 H 0.13232 0.33044 0.65737 0.0
H305 H 0.09718 0.23003 0.68103 0.0
H306 H 0.03158 0.23498 0.66975 0.0
H307 H 0.28251 0.34047 0.68517 0.0
H308 H 0.26003 0.23906 0.6583 0.0
H309 H 0.06648 0.33488 0.6457 0.0
H310 H 0.34566 0.34921 0.67499 0.0
H311 H 0.3239 0.24737 0.64824 0.0
Zn312 Zn 0.20683 0.69826 0.13952 0.0
Zn313 Zn 0.13795 0.80515 0.10656 0.0
Zn314 Zn 0.17228 0.75281 0.12278 0.0
C315 C 0.1425 0.739 0.08971 0.0
C316 C 0.20949 0.83668 0.11505 0.0
O317 O 0.13888 0.74787 0.14194 0.0
O318 O 0.16878 0.70107 0.15471 0.0
C319 C 0.18384 0.66057 0.11413 0.0
O320 O 0.15613 0.72468 0.10172 0.0
O321 O 0.13323 0.77463 0.08879 0.0
O322 O 0.17797 0.84551 0.10821 0.0
O323 O 0.21395 0.80273 0.12089 0.0
O324 O 0.20227 0.65405 0.12595 0.0
O325 O 0.17053 0.69514 0.11111 0.0
O326 O 0.23332 0.77239 0.12849 0.0
O327 O 0.25829 0.72431 0.14195 0.0
C328 C 0.26231 0.75676 0.13586 0.0
O329 O 0.11961 0.77487 0.13299 0.0
O330 O 0.09163 0.81579 0.11724 0.0
C331 C 0.14165 0.72594 0.15307 0.0
C332 C 0.09188 0.79878 0.12913 0.0
Zn333 Zn 0.55059 0.6898 0.35473 0.0
Zn334 Zn 0.62381 0.78711 0.3925 0.0
Zn335 Zn 0.58181 0.73864 0.37502 0.0
C336 C 0.55146 0.82324 0.38488 0.0
C337 C 0.67108 0.77283 0.37103 0.0
O338 O 0.57176 0.68117 0.38512 0.0
O339 O 0.55491 0.64215 0.36677 0.0
C340 C 0.49661 0.75182 0.3601 0.0
O341 O 0.54574 0.79167 0.37748 0.0
O342 O 0.58277 0.82805 0.39253 0.0
O343 O 0.67113 0.79515 0.3818 0.0
O344 O 0.64078 0.75174 0.36744 0.0
O345 O 0.50052 0.72033 0.35316 0.0
O346 O 0.5246 0.76447 0.36871 0.0
O347 O 0.61622 0.73666 0.35589 0.0
O348 O 0.58739 0.69731 0.33964 0.0
C349 C 0.61423 0.72116 0.34329 0.0
O350 O 0.59071 0.70699 0.3954 0.0
O351 O 0.62791 0.74876 0.40827 0.0
C352 C 0.5628 0.647 0.38001 0.0
C353 C 0.61044 0.71633 0.40707 0.0
Zn354 Zn 0.64918 0.29582 0.59957 0.0
Zn355 Zn 0.70493 0.19438 0.63664 0.0
Zn356 Zn 0.67767 0.24696 0.6176 0.0
C357 C 0.76572 0.24728 0.63196 0.0
C358 C 0.68324 0.15267 0.612 0.0
O359 O 0.62086 0.26923 0.62466 0.0
O360 O 0.59597 0.30196 0.60596 0.0
C361 C 0.71547 0.33068 0.61168 0.0
O362 O 0.73817 0.26515 0.62457 0.0
O363 O 0.7591 0.21504 0.63784 0.0
O364 O 0.69469 0.14696 0.62488 0.0
O365 O 0.67672 0.18767 0.60732 0.0
O366 O 0.68459 0.33925 0.60438 0.0
O367 O 0.72056 0.29594 0.61677 0.0
O368 O 0.66842 0.21574 0.59674 0.0
O369 O 0.65765 0.26565 0.58213 0.0
C370 C 0.66355 0.22957 0.58398 0.0
O371 O 0.64083 0.24981 0.63593 0.0
O372 O 0.66883 0.20884 0.65166 0.0
C373 C 0.59258 0.28866 0.61833 0.0
C374 C 0.64288 0.2341 0.64842 0.0
Zn375 Zn 0.05454 0.18771 0.856 0.0
Zn376 Zn 0.1371 0.2888 0.88997 0.0
Zn377 Zn 0.09269 0.23785 0.87469 0.0
C378 C 0.12387 0.22167 0.90685 0.0
C379 C 0.0657 0.32544 0.88237 0.0
O380 O 0.12253 0.23331 0.85463 0.0
O381 O 0.09062 0.19104 0.84023 0.0
C382 C 0.07349 0.14775 0.88192 0.0
O383 O 0.10552 0.20897 0.89534 0.0
O384 O 0.13898 0.25536 0.90727 0.0
O385 O 0.09961 0.33269 0.88772 0.0
O386 O 0.05673 0.29098 0.8776 0.0
O387 O 0.05714 0.14296 0.86956 0.0
O388 O 0.0881 0.18119 0.88575 0.0
O389 O 0.03396 0.26314 0.86963 0.0
O390 O 0.00647 0.22035 0.85424 0.0
C391 C 0.00464 0.25168 0.86138 0.0
O392 O 0.14954 0.24942 0.86514 0.0
O393 O 0.18427 0.29041 0.87917 0.0
C394 C 0.11795 0.21538 0.84249 0.0
C395 C 0.18132 0.26868 0.86825 0.0
H396 H 0.23677 0.45176 0.08454 0.0
H397 H 0.11392 0.42356 0.08509 0.0
H398 H 0.0991 0.49294 0.09011 0.0
H399 H 0.23909 0.51691 0.11364 0.0
H400 H 0.27364 0.55001 0.10657 0.0
H401 H 0.27362 0.49927 0.10143 0.0
H402 H 0.26537 0.51923 0.07476 0.0
H403 H 0.26491 0.57014 0.07988 0.0
H404 H 0.22501 0.55005 0.06874 0.0
H405 H 0.09828 0.56428 0.09686 0.0
H406 H 0.11242 0.63011 0.10703 0.0
H407 H 0.23556 0.612 0.10227 0.0
C408 C 0.20669 0.46039 0.08548 0.0
C409 C 0.17644 0.43239 0.08435 0.0
C410 C 0.13753 0.44455 0.08598 0.0
C411 C 0.12881 0.48393 0.08869 0.0
C412 C 0.15933 0.51083 0.08978 0.0
C413 C 0.19755 0.49951 0.08834 0.0
C414 C 0.22535 0.53338 0.09129 0.0
C415 C 0.25463 0.52435 0.10399 0.0
C416 C 0.2464 0.54381 0.07787 0.0
C417 C 0.19694 0.56529 0.09498 0.0
C418 C 0.1589 0.55193 0.09375 0.0
C419 C 0.12784 0.57533 0.09754 0.0
C420 C 0.13601 0.61284 0.10313 0.0
C421 C 0.1748 0.62661 0.10479 0.0
C422 C 0.20551 0.60266 0.10052 0.0
H423 H 0.87363 0.84509 0.34332 0.0
H424 H 0.89286 0.72577 0.32949 0.0
H425 H 0.82742 0.7074 0.3367 0.0
H426 H 0.82564 0.8205 0.37449 0.0
H427 H 0.79169 0.86078 0.3731 0.0
H428 H 0.83872 0.86513 0.36587 0.0
H429 H 0.80523 0.8824 0.34109 0.0
H430 H 0.75809 0.87805 0.34829 0.0
H431 H 0.76928 0.84961 0.33283 0.0
H432 H 0.76014 0.70191 0.3456 0.0
H433 H 0.69845 0.70831 0.35761 0.0
H434 H 0.72414 0.83044 0.36663 0.0
C435 C 0.86382 0.81521 0.34172 0.0
C436 C 0.88814 0.78681 0.33584 0.0
C437 C 0.87468 0.74785 0.33407 0.0
C438 C 0.8375 0.73724 0.33803 0.0
C439 C 0.81423 0.76588 0.34383 0.0
C440 C 0.82698 0.80398 0.3458 0.0
C441 C 0.79719 0.82853 0.35306 0.0
C442 C 0.81434 0.84467 0.36748 0.0
C443 C 0.78153 0.8616 0.34323 0.0
C444 C 0.76604 0.79814 0.35508 0.0
C445 C 0.77608 0.76238 0.34943 0.0
C446 C 0.75195 0.72979 0.35005 0.0
C447 C 0.71694 0.73371 0.35683 0.0
C448 C 0.70655 0.76986 0.36298 0.0
C449 C 0.73141 0.80245 0.36202 0.0
H450 H 0.72412 0.5524 0.61982 0.0
H451 H 0.81818 0.54932 0.59129 0.0
H452 H 0.82956 0.47963 0.59691 0.0
H453 H 0.76571 0.47405 0.64607 0.0
H454 H 0.71732 0.45534 0.64793 0.0
H455 H 0.72451 0.50688 0.64511 0.0
H456 H 0.67487 0.50451 0.62307 0.0
H457 H 0.66753 0.45338 0.62585 0.0
H458 H 0.68245 0.47012 0.60885 0.0
H459 H 0.8191 0.40797 0.60047 0.0
H460 H 0.78725 0.34314 0.60151 0.0
H461 H 0.70117 0.39235 0.62805 0.0
C462 C 0.7481 0.53737 0.61521 0.0
C463 C 0.77036 0.55626 0.60519 0.0
C464 C 0.8012 0.53563 0.5992 0.0
C465 C 0.80785 0.49595 0.60234 0.0
C466 C 0.7839 0.4775 0.61169 0.0
C467 C 0.75502 0.49785 0.61824 0.0
C468 C 0.72921 0.47052 0.62601 0.0
C469 C 0.73452 0.47709 0.64225 0.0
C470 C 0.68602 0.47488 0.6206 0.0
C471 C 0.74591 0.43142 0.62183 0.0
C472 C 0.77824 0.43588 0.61393 0.0
C473 C 0.79476 0.40401 0.60708 0.0
C474 C 0.77671 0.36723 0.60776 0.0
C475 C 0.7426 0.36291 0.6152 0.0
C476 C 0.7282 0.39491 0.62279 0.0
H477 H 0.80272 0.30147 0.82124 0.0
H478 H 0.75663 0.31989 0.86275 0.0
H479 H 0.82365 0.31773 0.87407 0.0
H480 H 0.86947 0.23034 0.83229 0.0
H481 H 0.90634 0.24511 0.82062 0.0
H482 H 0.85582 0.25489 0.81575 0.0
H483 H 0.87153 0.32862 0.81333 0.0
H484 H 0.9222 0.31902 0.81831 0.0
H485 H 0.89571 0.35445 0.8282 0.0
H486 H 0.8956 0.30573 0.88111 0.0
H487 H 0.96366 0.28094 0.8831 0.0
H488 H 0.96112 0.26835 0.83711 0.0
C489 C 0.80655 0.30533 0.83271 0.0
C490 C 0.77419 0.31083 0.84107 0.0
C491 C 0.78086 0.31621 0.85605 0.0
C492 C 0.81889 0.31497 0.86259 0.0
C493 C 0.85001 0.30855 0.85401 0.0
C494 C 0.8441 0.30383 0.83938 0.0
C495 C 0.88158 0.29338 0.83264 0.0
C496 C 0.87808 0.25357 0.82488 0.0
C497 C 0.89344 0.32581 0.82252 0.0
C498 C 0.90933 0.2914 0.84582 0.0
C499 C 0.89096 0.30115 0.85804 0.0
C500 C 0.91041 0.29884 0.87157 0.0
C501 C 0.94916 0.28517 0.87262 0.0
C502 C 0.9677 0.27376 0.86024 0.0
C503 C 0.94772 0.27766 0.84671 0.0
H504 H 0.03289 0.54988 0.87709 0.0
H505 H 0.94656 0.53523 0.90841 0.0
H506 H 0.94422 0.46477 0.90321 0.0
H507 H 0.99983 0.4666 0.85229 0.0
H508 H 0.04966 0.45375 0.84946 0.0
H509 H 0.03669 0.50409 0.85257 0.0
H510 H 0.08902 0.5078 0.87376 0.0
H511 H 0.10209 0.45777 0.8707 0.0
H512 H 0.08767 0.47286 0.88804 0.0
H513 H 0.96106 0.39489 0.89859 0.0
H514 H 0.99767 0.33323 0.89559 0.0
H515 H 0.07448 0.39238 0.86809 0.0
C516 C 0.01277 0.53209 0.88263 0.0
C517 C 0.98977 0.54854 0.89311 0.0
C518 C 0.96387 0.5239 0.90007 0.0
C519 C 0.96239 0.48358 0.89722 0.0
C520 C 0.98683 0.46811 0.88732 0.0
C521 C 0.0114 0.49173 0.88006 0.0
C522 C 0.03913 0.46759 0.87169 0.0
C523 C 0.03081 0.47335 0.85554 0.0
C524 C 0.08197 0.47706 0.87634 0.0
C525 C 0.02803 0.42681 0.8761 0.0
C526 C 0.99695 0.42753 0.88476 0.0
C527 C 0.98452 0.39378 0.89144 0.0
C528 C 0.00517 0.35877 0.8896 0.0
C529 C 0.03782 0.35805 0.88123 0.0
C530 C 0.04868 0.39216 0.87414 0.0
H531 H 0.8876 0.76637 0.1619 0.0
H532 H 0.87962 0.89299 0.16417 0.0
H533 H 0.94794 0.89821 0.158 0.0
H534 H 0.99032 0.75837 0.17582 0.0
H535 H 1.00145 0.7194 0.16371 0.0
H536 H 0.95286 0.72431 0.1697 0.0
H537 H 0.92394 0.72725 0.14356 0.0
H538 H 0.97214 0.72132 0.13744 0.0
H539 H 0.94262 0.76256 0.13157 0.0
H540 H 0.01361 0.89081 0.14943 0.0
H541 H 0.07263 0.87103 0.13759 0.0
H542 H 0.04036 0.74919 0.14098 0.0
C543 C 0.90031 0.79516 0.16113 0.0
C544 C 0.87831 0.8293 0.16363 0.0
C545 C 0.89604 0.86643 0.16255 0.0
C546 C 0.93486 0.86971 0.15908 0.0
C547 C 0.95576 0.83559 0.15678 0.0
C548 C 0.93923 0.79898 0.15771 0.0
C549 C 0.96749 0.76721 0.15367 0.0
C550 C 0.9787 0.74077 0.16649 0.0
C551 C 0.95054 0.74319 0.14079 0.0
C552 C 1.00184 0.79186 0.14978 0.0
C553 C 0.9945 0.8312 0.15189 0.0
C554 C 0.02005 0.86011 0.14795 0.0
C555 C 0.05343 0.84866 0.14126 0.0
C556 C 0.06101 0.80872 0.13863 0.0
C557 C 0.03553 0.77984 0.14327 0.0
H558 H 0.57656 0.42028 0.39751 0.0
H559 H 0.49049 0.44082 0.42867 0.0
H560 H 0.49467 0.51166 0.42456 0.0
H561 H 0.63483 0.50707 0.40505 0.0
H562 H 0.64298 0.51567 0.38654 0.0
H563 H 0.63573 0.46655 0.39267 0.0
H564 H 0.57839 0.45721 0.37358 0.0
H565 H 0.58584 0.50605 0.36728 0.0
H566 H 0.53862 0.49179 0.37275 0.0
H567 H 0.50625 0.58047 0.41648 0.0
H568 H 0.51968 0.64079 0.40318 0.0
H569 H 0.59599 0.57556 0.37679 0.0
C570 C 0.55837 0.43952 0.40343 0.0
C571 C 0.53361 0.42465 0.41359 0.0
C572 C 0.51052 0.45125 0.42111 0.0
C573 C 0.51256 0.49167 0.41882 0.0
C574 C 0.53758 0.50526 0.40888 0.0
C575 C 0.55972 0.47996 0.40118 0.0
C576 C 0.58244 0.50191 0.39048 0.0
C577 C 0.62662 0.49753 0.39389 0.0
C578 C 0.57059 0.48844 0.37511 0.0
C579 C 0.56906 0.54338 0.39319 0.0
C580 C 0.54373 0.54481 0.40404 0.0
C581 C 0.52652 0.5798 0.40813 0.0
C582 C 0.53473 0.61402 0.4007 0.0
C583 C 0.55983 0.6129 0.38937 0.0
C584 C 0.57736 0.5772 0.38566 0.0
H585 H 0.9943 0.22665 0.64723 0.0
H586 H 1.0004 0.35259 0.65272 0.0
H587 H 0.93044 0.35786 0.64482 0.0
H588 H 0.92329 0.22557 0.61604 0.0
H589 H 0.89919 0.18269 0.62221 0.0
H590 H 0.95055 0.18972 0.62661 0.0
H591 H 0.939 0.18304 0.65354 0.0
H592 H 0.88769 0.17615 0.64923 0.0
H593 H 0.90406 0.21463 0.66139 0.0
H594 H 0.85742 0.34811 0.63878 0.0
H595 H 0.78952 0.32392 0.63491 0.0
H596 H 0.83253 0.20499 0.63326 0.0
C597 C 0.98108 0.25542 0.64663 0.0
C598 C 0.00289 0.2892 0.65059 0.0
C599 C 0.98446 0.32631 0.64956 0.0
C600 C 0.94467 0.32958 0.64514 0.0
C601 C 0.92381 0.29551 0.64166 0.0
C602 C 0.94157 0.25917 0.64226 0.0
C603 C 0.91253 0.22676 0.63885 0.0
C604 C 0.92196 0.20491 0.62511 0.0
C605 C 0.91072 0.1985 0.6515 0.0
C606 C 0.87539 0.25034 0.63663 0.0
C607 C 0.88233 0.28999 0.63812 0.0
C608 C 0.85185 0.31717 0.63727 0.0
C609 C 0.81339 0.30332 0.6349 0.0
C610 C 0.80591 0.26281 0.63339 0.0
C611 C 0.83743 0.23621 0.63422 0.0
H612 H 0.39958 0.24596 0.65897 0.0
H613 H 0.36508 0.36529 0.64897 0.0
H614 H 0.42809 0.37639 0.63843 0.0
H615 H 0.5028 0.26897 0.66834 0.0
H616 H 0.52076 0.22441 0.66075 0.0
H617 H 0.47349 0.22532 0.66802 0.0
H618 H 0.44118 0.20021 0.64399 0.0
H619 H 0.48829 0.19848 0.63666 0.0
H620 H 0.44921 0.22615 0.62776 0.0
H621 H 0.49153 0.37345 0.62754 0.0
H622 H 0.55385 0.35734 0.61728 0.0
H623 H 0.55022 0.24079 0.63512 0.0
C624 C 0.4055 0.27438 0.65456 0.0
C625 C 0.3776 0.30483 0.65471 0.0
C626 C 0.38624 0.34175 0.64899 0.0
C627 C 0.42189 0.3483 0.64301 0.0
C628 C 0.44882 0.3178 0.64304 0.0
C629 C 0.44136 0.28165 0.64876 0.0
C630 C 0.47545 0.2539 0.64723 0.0
C631 C 0.49424 0.24248 0.66196 0.0
C632 C 0.46276 0.21755 0.63838 0.0
C633 C 0.50247 0.27969 0.63926 0.0
C634 C 0.48649 0.3165 0.63708 0.0
C635 C 0.50463 0.34494 0.62933 0.0
C636 C 0.53988 0.33547 0.6235 0.0
C637 C 0.55683 0.29801 0.62553 0.0
C638 C 0.53812 0.26986 0.63365 0.0
H639 H 0.492 0.74904 0.14854 0.0
H640 H 0.49105 0.87436 0.15593 0.0
H641 H 0.42069 0.87633 0.14834 0.0
H642 H 0.41925 0.7473 0.11765 0.0
H643 H 0.39824 0.70227 0.12339 0.0
H644 H 0.44932 0.71203 0.12745 0.0
H645 H 0.44016 0.70139 0.15438 0.0
H646 H 0.38915 0.69181 0.15042 0.0
H647 H 0.4041 0.7298 0.16301 0.0
H648 H 0.34804 0.8627 0.14274 0.0
H649 H 0.28151 0.8346 0.13938 0.0
H650 H 0.33135 0.7189 0.13562 0.0
C651 C 0.47717 0.77702 0.14838 0.0
C652 C 0.49708 0.81154 0.15282 0.0
C653 C 0.47657 0.84759 0.15238 0.0
C654 C 0.43654 0.84896 0.14814 0.0
C655 C 0.41755 0.8141 0.14424 0.0
C656 C 0.43741 0.77888 0.1442 0.0
C657 C 0.41015 0.74511 0.14057 0.0
C658 C 0.41982 0.72553 0.12642 0.0
C659 C 0.41094 0.7153 0.15282 0.0
C660 C 0.37161 0.76655 0.13902 0.0
C661 C 0.37629 0.8064 0.14098 0.0
C662 C 0.34421 0.83164 0.14086 0.0
C663 C 0.30653 0.8156 0.13878 0.0
C664 C 0.30141 0.77485 0.13685 0.0
C665 C 0.33446 0.75028 0.1369 0.0
H666 H 0.38596 0.33238 0.84104 0.0
H667 H 0.40044 0.21309 0.82632 0.0
H668 H 0.33386 0.19724 0.83309 0.0
H669 H 0.33563 0.30867 0.87163 0.0
H670 H 0.30385 0.35068 0.87032 0.0
H671 H 0.35141 0.35292 0.86341 0.0
H672 H 0.3199 0.37294 0.83861 0.0
H673 H 0.27218 0.37055 0.84547 0.0
H674 H 0.28276 0.3423 0.82989 0.0
H675 H 0.26573 0.19444 0.84185 0.0
H676 H 0.2045 0.20329 0.85405 0.0
H677 H 0.23582 0.32391 0.86347 0.0
C678 C 0.37493 0.30303 0.83914 0.0
C679 C 0.39818 0.27396 0.83313 0.0
C680 C 0.3831 0.23569 0.83101 0.0
C681 C 0.34525 0.22653 0.8347 0.0
C682 C 0.32299 0.25594 0.84056 0.0
C683 C 0.33744 0.29331 0.84289 0.0
C684 C 0.30862 0.319 0.85011 0.0
C685 C 0.32591 0.33366 0.86473 0.0
C686 C 0.29507 0.35322 0.84044 0.0
C687 C 0.27595 0.2901 0.85172 0.0
C688 C 0.2844 0.25406 0.84591 0.0
C689 C 0.25875 0.22258 0.84638 0.0
C690 C 0.22399 0.22791 0.85324 0.0
C691 C 0.21543 0.26433 0.85958 0.0
C692 C 0.24162 0.29579 0.85865 0.0
H693 H 0.28933 0.79012 0.32105 0.0
H694 H 0.25184 0.83723 0.36101 0.0
H695 H 0.31994 0.83451 0.37129 0.0
H696 H 0.35274 0.72033 0.33664 0.0
H697 H 0.38814 0.72428 0.32337 0.0
H698 H 0.33774 0.73532 0.31871 0.0
H699 H 0.35734 0.80401 0.31009 0.0
H700 H 0.4079 0.7932 0.31481 0.0
H701 H 0.38556 0.83596 0.32212 0.0
H702 H 0.39249 0.82153 0.37775 0.0
H703 H 0.45998 0.7953 0.3801 0.0
H704 H 0.44743 0.75386 0.33627 0.0
C705 C 0.29519 0.79994 0.33197 0.0
C706 C 0.26491 0.81384 0.34019 0.0
C707 C 0.27441 0.82696 0.35438 0.0
C708 C 0.31308 0.82544 0.36034 0.0
C709 C 0.34199 0.81079 0.35198 0.0
C710 C 0.33333 0.79819 0.3381 0.0
C711 C 0.36864 0.78063 0.33166 0.0
C712 C 0.36137 0.7376 0.32735 0.0
C713 C 0.38056 0.80491 0.31892 0.0
C714 C 0.39839 0.7842 0.34421 0.0
C715 C 0.38291 0.80241 0.35576 0.0
C716 C 0.40492 0.80755 0.36871 0.0
C717 C 0.44328 0.79279 0.36994 0.0
C718 C 0.4589 0.77274 0.35835 0.0
C719 C 0.43627 0.76916 0.34529 0.0
H720 H 0.74158 0.94444 0.583 0.0
H721 H 0.61855 0.91564 0.58122 0.0
H722 H 0.60269 0.98476 0.58626 0.0
H723 H 0.73966 0.00819 0.61239 0.0
H724 H 0.77503 0.04191 0.60622 0.0
H725 H 0.77605 0.99144 0.60075 0.0
H726 H 0.77127 0.01267 0.57419 0.0
H727 H 0.76989 0.0633 0.57962 0.0
H728 H 0.73151 0.0436 0.56766 0.0
H729 H 0.60054 0.05577 0.59319 0.0
H730 H 0.61288 0.12173 0.60361 0.0
H731 H 0.73713 0.10411 0.60148 0.0
C732 C 0.71129 0.95293 0.58343 0.0
C733 C 0.68123 0.92487 0.58164 0.0
C734 C 0.64197 0.93675 0.5826 0.0
C735 C 0.63269 0.97596 0.58533 0.0
C736 C 0.66302 0.00293 0.58712 0.0
C737 C 0.70157 0.99188 0.58632 0.0
C738 C 0.72886 0.02575 0.59 0.0
C739 C 0.75651 0.01625 0.60312 0.0
C740 C 0.75173 0.03698 0.5771 0.0
C741 C 0.69973 0.05729 0.59336 0.0
C742 C 0.66184 0.04379 0.59133 0.0
C743 C 0.63003 0.06688 0.59456 0.0
C744 C 0.63721 0.10431 0.60038 0.0
C745 C 0.67579 0.11814 0.60285 0.0
C746 C 0.70733 0.09453 0.59917 0.0
H747 H 0.22501 0.05886 0.12155 0.0
H748 H 0.31069 0.05209 0.08972 0.0
H749 H 0.3212 0.98224 0.09518 0.0
H750 H 0.27054 0.98066 0.14668 0.0
H751 H 0.22277 0.96315 0.15032 0.0
H752 H 0.23015 0.01436 0.14689 0.0
H753 H 0.17548 0.01205 0.12646 0.0
H754 H 0.16788 0.96127 0.12991 0.0
H755 H 0.17868 0.97666 0.11224 0.0
H756 H 0.31046 0.91095 0.09966 0.0
H757 H 0.27824 0.84685 0.10237 0.0
H758 H 0.20072 0.89946 0.1315 0.0
C759 C 0.24694 0.04295 0.11608 0.0
C760 C 0.26712 0.06102 0.10527 0.0
C761 C 0.29536 0.03915 0.09825 0.0
C762 C 0.30152 0.99934 0.10128 0.0
C763 C 0.27972 0.98188 0.11154 0.0
C764 C 0.25335 0.00326 0.11899 0.0
C765 C 0.22927 0.97693 0.12785 0.0
C766 C 0.23877 0.98422 0.14389 0.0
C767 C 0.18527 0.98202 0.12386 0.0
C768 C 0.24397 0.93722 0.12337 0.0
C769 C 0.27393 0.94053 0.11429 0.0
C770 C 0.28804 0.9079 0.10715 0.0
C771 C 0.26982 0.87153 0.10879 0.0
C772 C 0.23795 0.86835 0.11747 0.0
C773 C 0.22616 0.90113 0.12529 0.0
H774 H 0.48413 0.02313 0.41499 0.0
H775 H 0.461 0.06098 0.37125 0.0
H776 H 0.46605 0.99218 0.36297 0.0
H777 H 0.55694 0.96064 0.40818 0.0
H778 H 0.54592 0.92468 0.42129 0.0
H779 H 0.53204 0.97475 0.42376 0.0
H780 H 0.46016 0.95354 0.42573 0.0
H781 H 0.47391 0.90317 0.42323 0.0
H782 H 0.43603 0.9248 0.4116 0.0
H783 H 0.48182 0.91982 0.35946 0.0
H784 H 0.51377 0.85464 0.36093 0.0
H785 H 0.52879 0.86671 0.40693 0.0
C786 C 0.47848 0.01683 0.40371 0.0
C787 C 0.47129 0.04726 0.39379 0.0
C788 C 0.46607 0.03799 0.37905 0.0
C789 C 0.46862 0.99899 0.37428 0.0
C790 C 0.4765 0.9697 0.38439 0.0
C791 C 0.48143 0.97839 0.39882 0.0
C792 C 0.49532 0.94323 0.40742 0.0
C793 C 0.53489 0.95132 0.41563 0.0
C794 C 0.46451 0.93043 0.41759 0.0
C795 C 0.49913 0.91366 0.39557 0.0
C796 C 0.48704 0.92887 0.38237 0.0
C797 C 0.49075 0.9075 0.36977 0.0
C798 C 0.50871 0.87047 0.37068 0.0
C799 C 0.52335 0.85584 0.38405 0.0
C800 C 0.51727 0.87716 0.39661 0.0
H801 H 0.01901 0.93363 0.9051 0.0
H802 H 0.13865 0.922 0.92281 0.0
H803 H 0.14924 0.99198 0.91867 0.0
H804 H 0.04323 0.99403 0.87644 0.0
H805 H 0.99891 0.02234 0.87642 0.0
H806 H 0.99944 0.97255 0.8825 0.0
H807 H 0.97386 0.99564 0.90658 0.0
H808 H 0.97382 0.04564 0.90062 0.0
H809 H 1.00053 0.03232 0.91706 0.0
H810 H 0.14751 0.06382 0.91192 0.0
H811 H 0.13639 0.12756 0.89985 0.0
H812 H 0.02066 0.08972 0.88459 0.0
C813 C 0.04763 0.94537 0.90806 0.0
C814 C 0.07769 0.92176 0.91453 0.0
C815 C 0.1145 0.93921 0.91827 0.0
C816 C 0.12098 0.97912 0.91591 0.0
C817 C 0.09061 1.00136 0.90959 0.0
C818 C 0.05489 0.98488 0.9055 0.0
C819 C 0.02822 0.01405 0.89767 0.0
C820 C 0.0168 0.9999 0.88235 0.0
C821 C 0.99197 0.0224 0.90598 0.0
C822 C 0.05477 0.04932 0.89776 0.0
C823 C 0.09031 0.04184 0.905 0.0
C824 C 0.11974 0.07 0.90625 0.0
C825 C 0.11312 0.10619 0.89947 0.0
C826 C 0.07767 0.11344 0.89137 0.0
C827 C 0.04797 0.0849 0.89078 0.0
H828 H 0.21075 0.1976 0.98509 0.0
H829 H 0.09711 0.15583 0.99562 0.0
H830 H 0.07851 0.14654 0.96991 0.0
H831 H 0.1772 0.25623 0.95804 0.0
H832 H 0.21736 0.24834 0.94691 0.0
H833 H 0.22456 0.24258 0.96591 0.0
H834 H 0.2499 0.17194 0.96222 0.0
H835 H 0.24251 0.17751 0.94312 0.0
H836 H 0.22003 0.13742 0.95185 0.0
H837 H 0.06882 0.15182 0.94289 0.0
H838 H 0.06766 0.1761 0.91798 0.0
H839 H 0.18632 0.21724 0.92569 0.0
C840 C 0.18215 0.18585 0.98203 0.0
C841 C 0.15543 0.17748 0.99239 0.0
C842 C 0.11836 0.16193 0.9879 0.0
C843 C 0.10753 0.15654 0.9733 0.0
C844 C 0.1342 0.16648 0.96333 0.0
C845 C 0.17085 0.18071 0.96757 0.0
C846 C 0.19229 0.19442 0.95497 0.0
C847 C 0.20346 0.23795 0.95656 0.0
C848 C 0.22832 0.16878 0.95292 0.0
C849 C 0.16122 0.18785 0.94304 0.0
C850 C 0.12831 0.17053 0.94792 0.0
C851 C 0.09469 0.16474 0.93893 0.0
C852 C 0.09426 0.17846 0.9248 0.0
C853 C 0.12694 0.19838 0.92002 0.0
C854 C 0.16111 0.20175 0.9291 0.0
H855 H 0.07135 0.82617 0.22222 0.0
H856 H 0.03865 0.71001 0.23512 0.0
H857 H 0.04331 0.68613 0.21044 0.0
H858 H 0.02465 0.81951 0.18368 0.0
H859 H 0.0647 0.84595 0.17688 0.0
H860 H 0.0492 0.85686 0.19448 0.0
H861 H 0.11935 0.84471 0.2053 0.0
H862 H 0.13513 0.83393 0.18784 0.0
H863 H 0.14296 0.79869 0.20196 0.0
H864 H 0.06589 0.67142 0.18682 0.0
H865 H 0.10328 0.66731 0.16527 0.0
H866 H 0.11991 0.7928 0.16651 0.0
C867 C 0.06353 0.79618 0.21963 0.0
C868 C 0.0544 0.76989 0.23047 0.0
C869 C 0.04561 0.73051 0.22691 0.0
C870 C 0.0479 0.71679 0.2129 0.0
C871 C 0.05869 0.74291 0.20254 0.0
C872 C 0.06585 0.78198 0.20563 0.0
C873 C 0.08238 0.80242 0.19304 0.0
C874 C 0.0535 0.83298 0.18664 0.0
C875 C 0.12231 0.82099 0.1973 0.0
C876 C 0.08616 0.76813 0.18288 0.0
C877 C 0.07144 0.73429 0.18847 0.0
C878 C 0.07641 0.69784 0.18209 0.0
C879 C 0.09781 0.69572 0.16993 0.0
C880 C 0.11373 0.72981 0.16422 0.0
C881 C 0.10686 0.76657 0.17049 0.0
H882 H 0.70437 0.67816 0.48304 0.0
H883 H 0.58745 0.65774 0.49611 0.0
H884 H 0.5637 0.65004 0.47081 0.0
H885 H 0.67855 0.73883 0.45594 0.0
H886 H 0.71451 0.72257 0.44404 0.0
H887 H 0.72355 0.71695 0.46297 0.0
H888 H 0.73452 0.64254 0.45941 0.0
H889 H 0.72519 0.64801 0.44038 0.0
H890 H 0.69721 0.61362 0.44997 0.0
H891 H 0.55042 0.65845 0.44438 0.0
H892 H 0.54912 0.68412 0.41976 0.0
H893 H 0.67442 0.69756 0.42375 0.0
C894 C 0.67393 0.67115 0.48059 0.0
C895 C 0.64778 0.66849 0.49153 0.0
C896 C 0.60815 0.65934 0.48791 0.0
C897 C 0.59441 0.65488 0.47355 0.0
C898 C 0.62076 0.65907 0.46297 0.0
C899 C 0.65983 0.66665 0.46636 0.0
C900 C 0.68124 0.67507 0.45314 0.0
C901 C 0.70055 0.71576 0.45409 0.0
C902 C 0.71132 0.64288 0.45058 0.0
C903 C 0.64768 0.67368 0.44187 0.0
C904 C 0.61315 0.66332 0.44764 0.0
C905 C 0.57746 0.66509 0.43962 0.0
C906 C 0.57693 0.67915 0.42556 0.0
C907 C 0.61181 0.69116 0.41974 0.0
C908 C 0.64759 0.68719 0.42785 0.0
H909 H 0.58096 0.23211 0.72738 0.0
H910 H 0.56071 0.3569 0.72332 0.0
H911 H 0.56398 0.35118 0.69715 0.0
H912 H 0.65239 0.22614 0.70432 0.0
H913 H 0.63887 0.17913 0.69674 0.0
H914 H 0.62624 0.19149 0.71448 0.0
H915 H 0.55338 0.17758 0.70722 0.0
H916 H 0.56587 0.16519 0.68937 0.0
H917 H 0.52987 0.20244 0.69209 0.0
H918 H 0.58041 0.33381 0.67217 0.0
H919 H 0.61097 0.30702 0.6511 0.0
H920 H 0.62119 0.19376 0.67151 0.0
C921 C 0.5765 0.25814 0.72096 0.0
C922 C 0.5706 0.29495 0.72739 0.0
C923 C 0.56474 0.32829 0.71861 0.0
C924 C 0.56652 0.32531 0.70373 0.0
C925 C 0.57369 0.28872 0.69778 0.0
C926 C 0.57827 0.25566 0.70614 0.0
C927 C 0.59026 0.2207 0.69748 0.0
C928 C 0.62925 0.20339 0.70362 0.0
C929 C 0.5579 0.18964 0.69648 0.0
C930 C 0.59436 0.23979 0.68316 0.0
C931 C 0.58355 0.27875 0.6834 0.0
C932 C 0.58811 0.30314 0.67176 0.0
C933 C 0.60529 0.2876 0.65979 0.0
C934 C 0.61787 0.24816 0.6596 0.0
C935 C 0.61131 0.22386 0.6713 0.0
H936 H 0.11387 0.73032 0.00665 0.0
H937 H 0.04178 0.62779 0.01058 0.0
H938 H 0.06365 0.62332 0.03633 0.0
H939 H 0.19509 0.69885 0.03262 0.0
H940 H 0.20267 0.74826 0.039 0.0
H941 H 0.18559 0.73938 0.02068 0.0
H942 H 0.12577 0.78422 0.02394 0.0
H943 H 0.14272 0.79333 0.04217 0.0
H944 H 0.09437 0.7742 0.03814 0.0
H945 H 0.08502 0.63779 0.06238 0.0
H946 H 0.10418 0.66926 0.08567 0.0
H947 H 0.16585 0.75882 0.06403 0.0
C948 C 0.10336 0.70649 0.01291 0.0
C949 C 0.07618 0.67947 0.00681 0.0
C950 C 0.06281 0.64863 0.01518 0.0
C951 C 0.07516 0.64586 0.02975 0.0
C952 C 0.10151 0.67364 0.03557 0.0
C953 C 0.11581 0.70304 0.0273 0.0
C954 C 0.14129 0.73117 0.03614 0.0
C955 C 0.18368 0.72928 0.03185 0.0
C956 C 0.12504 0.77318 0.03503 0.0
C957 C 0.1376 0.71434 0.05083 0.0
C958 C 0.11505 0.68082 0.05035 0.0
C959 C 0.10395 0.66308 0.06284 0.0
C960 C 0.11542 0.68066 0.07606 0.0
C961 C 0.13785 0.71524 0.0766 0.0
C962 C 0.14972 0.7316 0.06386 0.0
H963 H 0.68297 0.71974 0.26516 0.0
H964 H 0.70376 0.84424 0.27083 0.0
H965 H 0.69886 0.83728 0.29676 0.0
H966 H 0.60911 0.71482 0.28738 0.0
H967 H 0.62096 0.66715 0.29456 0.0
H968 H 0.63524 0.6799 0.27711 0.0
H969 H 0.70728 0.66371 0.28492 0.0
H970 H 0.6931 0.65092 0.30247 0.0
H971 H 0.73026 0.68727 0.30054 0.0
H972 H 0.68032 0.81967 0.32103 0.0
H973 H 0.64677 0.79343 0.3413 0.0
H974 H 0.63689 0.68049 0.32013 0.0
C975 C 0.68713 0.74547 0.27187 0.0
C976 C 0.69394 0.78249 0.26592 0.0
C977 C 0.6993 0.81538 0.27511 0.0
C978 C 0.69656 0.81173 0.28989 0.0
C979 C 0.68866 0.775 0.29534 0.0
C980 C 0.68414 0.74239 0.2866 0.0
C981 C 0.67067 0.70741 0.29476 0.0
C982 C 0.63169 0.69143 0.28805 0.0
C983 C 0.70222 0.67544 0.29573 0.0
C984 C 0.6659 0.72608 0.3092 0.0
C985 C 0.67756 0.76477 0.30945 0.0
C986 C 0.67214 0.78913 0.32112 0.0
C987 C 0.65327 0.77389 0.33265 0.0
C988 C 0.64023 0.73464 0.33244 0.0
C989 C 0.64741 0.71033 0.32069 0.0
H990 H 0.65545 0.21788 0.5014 0.0
H991 H 0.58012 0.11727 0.50383 0.0
H992 H 0.59997 0.1108 0.52963 0.0
H993 H 0.73356 0.18454 0.52964 0.0
H994 H 0.74016 0.23414 0.53594 0.0
H995 H 0.7273 0.22459 0.51729 0.0
H996 H 0.66734 0.27042 0.51843 0.0
H997 H 0.67986 0.27996 0.53698 0.0
H998 H 0.63219 0.26121 0.53146 0.0
H999 H 0.6164 0.12515 0.55584 0.0
H1000 H 0.62834 0.15836 0.57926 0.0
H1001 H 0.69547 0.24723 0.55945 0.0
C1002 C 0.64438 0.19363 0.5073 0.0
C1003 C 0.61659 0.16792 0.50076 0.0
C1004 C 0.60193 0.13686 0.50871 0.0
C1005 C 0.61308 0.13302 0.52333 0.0
C1006 C 0.63949 0.15997 0.52967 0.0
C1007 C 0.65548 0.18927 0.52179 0.0
C1008 C 0.67918 0.21756 0.53123 0.0
C1009 C 0.72264 0.21503 0.52835 0.0
C1010 C 0.66368 0.25973 0.52942 0.0
C1011 C 0.67184 0.20136 0.54576 0.0
C1012 C 0.64968 0.16761 0.54472 0.0
C1013 C 0.63502 0.15064 0.55679 0.0
C1014 C 0.64225 0.16934 0.57011 0.0
C1015 C 0.66377 0.20449 0.57117 0.0
C1016 C 0.67971 0.21979 0.55892 0.0
H1017 H 0.18315 0.19797 0.76343 0.0
H1018 H 0.21303 0.32121 0.76675 0.0
H1019 H 0.2057 0.3192 0.79265 0.0
H1020 H 0.10736 0.20291 0.78549 0.0
H1021 H 0.11555 0.15571 0.79361 0.0
H1022 H 0.13083 0.16449 0.77595 0.0
H1023 H 0.20142 0.14389 0.78417 0.0
H1024 H 0.18626 0.13499 0.80191 0.0
H1025 H 0.22605 0.16795 0.79936 0.0
H1026 H 0.18578 0.30687 0.81724 0.0
H1027 H 0.15287 0.28561 0.8384 0.0
H1028 H 0.13438 0.17075 0.81929 0.0
C1029 C 0.18866 0.22447 0.7696 0.0
C1030 C 0.19894 0.25968 0.76298 0.0
C1031 C 0.20599 0.2936 0.77153 0.0
C1032 C 0.20179 0.29281 0.78629 0.0
C1033 C 0.19061 0.25788 0.79238 0.0
C1034 C 0.18422 0.22428 0.78431 0.0
C1035 C 0.16815 0.19179 0.79311 0.0
C1036 C 0.1281 0.17795 0.78666 0.0
C1037 C 0.19722 0.15764 0.79473 0.0
C1038 C 0.16468 0.21298 0.80719 0.0
C1039 C 0.17868 0.25078 0.80664 0.0
C1040 C 0.17564 0.27704 0.81793 0.0
C1041 C 0.1571 0.2646 0.82996 0.0
C1042 C 0.14203 0.22619 0.83065 0.0
C1043 C 0.14637 0.20001 0.81917 0.0
loop_
_geom_bond_atom_site_label_1
_geom_bond_atom_site_label_2
_geom_bond_distance
_geom_bond_site_symmetry_2
_ccdc_geom_bond_type
C0 C1 1.386 . S
C0 C2 1.397 . S
C0 H24 0.931 . S
C1 C0 1.386 . S
C1 C5 1.397 . S
C2 C0 1.397 . S
C2 C3 1.384 . S
C2 H25 0.930 . S
C3 C2 1.384 . S
C3 C4 1.377 . S
C3 C6 1.481 . S
C4 C3 1.377 . S
C4 C5 1.389 . S
C4 H26 0.929 . S
C5 C1 1.397 . S
C5 C4 1.389 . S
C5 H27 0.931 . S
C6 C3 1.481 . S
C6 C7 1.387 . S
C6 C11 1.390 . S
C7 C6 1.387 . S
C7 C8 1.401 . S
C7 H28 0.930 . S
C8 C7 1.401 . S
C8 C9 1.376 . S
C8 C17 1.511 . S
C9 C8 1.376 . S
C9 C10 1.392 . S
C9 H30 0.931 . S
C10 C9 1.392 . S
C10 C11 1.361 . S
C10 C12 1.500 . S
C11 C6 1.390 . S
C11 C10 1.361 . S
C11 H29 0.931 . S
C12 C10 1.500 . S
C12 C13 1.371 . S
C12 C14 1.365 . S
C13 C12 1.371 . S
C13 C23 1.386 . S
C13 H31 0.931 . S
C14 C12 1.365 . S
C14 C15 1.409 . S
C14 H32 0.929 . S
C15 C14 1.409 . S
C15 C16 1.380 . S
C15 H33 0.930 . S
C16 C15 1.380 . S
C16 C23 1.357 . S
C17 C8 1.511 . S
C17 C18 1.341 . S
C17 C19 1.371 . S
C18 C17 1.341 . S
C18 C22 1.394 . S
C18 H34 0.930 . S
C19 C17 1.371 . S
C19 C20 1.392 . S
C19 H35 0.931 . S
C20 C19 1.392 . S
C20 C21 1.331 . S
C20 H38 0.932 . S
C21 C20 1.331 . S
C21 C22 1.336 . S
C22 C18 1.394 . S
C22 C21 1.336 . S
C22 H37 0.929 . S
C23 C13 1.386 . S
C23 C16 1.357 . S
C23 H36 0.928 . S
H24 C0 0.931 . S
H25 C2 0.930 . S
H26 C4 0.929 . S
H27 C5 0.931 . S
H28 C7 0.930 . S
H29 C11 0.931 . S
H30 C9 0.931 . S
H31 C13 0.931 . S
H32 C14 0.929 . S
H33 C15 0.930 . S
H34 C18 0.930 . S
H35 C19 0.931 . S
H36 C23 0.928 . S
H37 C22 0.929 . S
H38 C20 0.932 . S
C39 C40 1.386 . S
C39 C41 1.397 . S
C39 H63 0.931 . S
C40 C39 1.386 . S
C40 C44 1.397 . S
C41 C39 1.397 . S
C41 C42 1.384 . S
C41 H64 0.930 . S
C42 C41 1.384 . S
C42 C43 1.377 . S
C42 C45 1.481 . S
C43 C42 1.377 . S
C43 C44 1.389 . S
C43 H65 0.929 . S
C44 C40 1.397 . S
C44 C43 1.389 . S
C44 H66 0.931 . S
C45 C42 1.481 . S
C45 C46 1.387 . S
C45 C50 1.390 . S
C46 C45 1.387 . S
C46 C47 1.401 . S
C46 H67 0.930 . S
C47 C46 1.401 . S
C47 C48 1.376 . S
C47 C56 1.511 . S
C48 C47 1.376 . S
C48 C49 1.392 . S
C48 H69 0.931 . S
C49 C48 1.392 . S
C49 C50 1.361 . S
C49 C51 1.500 . S
C50 C45 1.390 . S
C50 C49 1.361 . S
C50 H68 0.931 . S
C51 C49 1.500 . S
C51 C52 1.371 . S
C51 C53 1.365 . S
C52 C51 1.371 . S
C52 C62 1.386 . S
C52 H70 0.931 . S
C53 C51 1.365 . S
C53 C54 1.409 1_455 S
C53 H71 0.929 . S
C54 C53 1.409 1_655 S
C54 C55 1.380 . S
C54 H72 0.930 . S
C55 C54 1.380 . S
C55 C62 1.357 1_655 S
C56 C47 1.511 . S
C56 C57 1.341 . S
C56 C58 1.371 . S
C57 C56 1.341 . S
C57 C61 1.394 . S
C57 H73 0.930 . S
C58 C56 1.371 . S
C58 C59 1.392 . S
C58 H74 0.931 . S
C59 C58 1.392 . S
C59 C60 1.331 . S
C59 H77 0.932 . S
C60 C59 1.331 . S
C60 C61 1.336 . S
C61 C57 1.394 . S
C61 C60 1.336 . S
C61 H76 0.929 . S
C62 C52 1.386 . S
C62 C55 1.357 1_455 S
C62 H75 0.928 . S
H63 C39 0.931 . S
H64 C41 0.930 . S
H65 C43 0.929 . S
H66 C44 0.931 . S
H67 C46 0.930 . S
H68 C50 0.931 . S
H69 C48 0.931 . S
H70 C52 0.931 . S
H71 C53 0.929 . S
H72 C54 0.930 . S
H73 C57 0.930 . S
H74 C58 0.931 . S
H75 C62 0.928 . S
H76 C61 0.929 . S
H77 C59 0.932 . S
C78 C79 1.386 . S
C78 C80 1.397 . S
C78 H102 0.931 . S
C79 C78 1.386 . S
C79 C83 1.397 . S
C80 C78 1.397 . S
C80 C81 1.384 . S
C80 H103 0.930 . S
C81 C80 1.384 . S
C81 C82 1.377 . S
C81 C84 1.481 . S
C82 C81 1.377 . S
C82 C83 1.389 . S
C82 H104 0.929 . S
C83 C79 1.397 . S
C83 C82 1.389 . S
C83 H105 0.931 . S
C84 C81 1.481 . S
C84 C85 1.387 . S
C84 C89 1.390 . S
C85 C84 1.387 . S
C85 C86 1.401 . S
C85 H106 0.930 . S
C86 C85 1.401 . S
C86 C87 1.376 . S
C86 C95 1.511 . S
C87 C86 1.376 . S
C87 C88 1.392 . S
C87 H108 0.931 . S
C88 C87 1.392 . S
C88 C89 1.361 . S
C88 C90 1.500 . S
C89 C84 1.390 . S
C89 C88 1.361 . S
C89 H107 0.931 . S
C90 C88 1.500 . S
C90 C91 1.371 . S
C90 C92 1.365 . S
C91 C90 1.371 . S
C91 C101 1.386 . S
C91 H109 0.931 . S
C92 C90 1.365 . S
C92 C93 1.409 . S
C92 H110 0.929 . S
C93 C92 1.409 . S
C93 C94 1.380 . S
C93 H111 0.930 . S
C94 C93 1.380 . S
C94 C101 1.357 . S
C95 C86 1.511 . S
C95 C96 1.341 . S
C95 C97 1.371 . S
C96 C95 1.341 . S
C96 C100 1.394 . S
C96 H112 0.930 . S
C97 C95 1.371 . S
C97 C98 1.392 . S
C97 H113 0.931 . S
C98 C97 1.392 . S
C98 C99 1.331 . S
C98 H116 0.932 . S
C99 C98 1.331 . S
C99 C100 1.336 . S
C100 C96 1.394 . S
C100 C99 1.336 . S
C100 H115 0.929 . S
C101 C91 1.386 . S
C101 C94 1.357 . S
C101 H114 0.928 . S
H102 C78 0.931 . S
H103 C80 0.930 . S
H104 C82 0.929 . S
H105 C83 0.931 . S
H106 C85 0.930 . S
H107 C89 0.931 . S
H108 C87 0.931 . S
H109 C91 0.931 . S
H110 C92 0.929 . S
H111 C93 0.930 . S
H112 C96 0.930 . S
H113 C97 0.931 . S
H114 C101 0.928 . S
H115 C100 0.929 . S
H116 C98 0.932 . S
C117 C118 1.386 . S
C117 C119 1.397 . S
C117 H141 0.931 . S
C118 C117 1.386 . S
C118 C122 1.397 . S
C119 C117 1.397 . S
C119 C120 1.384 . S
C119 H142 0.930 . S
C120 C119 1.384 . S
C120 C121 1.377 . S
C120 C123 1.481 . S
C121 C120 1.377 . S
C121 C122 1.389 . S
C121 H143 0.929 . S
C122 C118 1.397 . S
C122 C121 1.389 . S
C122 H144 0.931 . S
C123 C120 1.481 . S
C123 C124 1.387 . S
C123 C128 1.390 . S
C124 C123 1.387 . S
C124 C125 1.401 . S
C124 H145 0.930 . S
C125 C124 1.401 . S
C125 C126 1.376 . S
C125 C134 1.511 . S
C126 C125 1.376 . S
C126 C127 1.392 . S
C126 H147 0.931 . S
C127 C126 1.392 . S
C127 C128 1.361 . S
C127 C129 1.500 . S
C128 C123 1.390 . S
C128 C127 1.361 . S
C128 H146 0.931 . S
C129 C127 1.500 . S
C129 C130 1.371 . S
C129 C131 1.365 . S
C130 C129 1.371 . S
C130 C140 1.386 . S
C130 H148 0.931 . S
C131 C129 1.365 . S
C131 C132 1.409 . S
C131 H149 0.929 . S
C132 C131 1.409 . S
C132 C133 1.380 . S
C132 H150 0.930 . S
C133 C132 1.380 . S
C133 C140 1.357 . S
C134 C125 1.511 . S
C134 C135 1.341 . S
C134 C136 1.371 . S
C135 C134 1.341 . S
C135 C139 1.394 . S
C135 H151 0.930 . S
C136 C134 1.371 . S
C136 C137 1.392 . S
C136 H152 0.931 . S
C137 C136 1.392 . S
C137 C138 1.331 . S
C137 H155 0.932 . S
C138 C137 1.331 . S
C138 C139 1.336 . S
C139 C135 1.394 . S
C139 C138 1.336 . S
C139 H154 0.929 . S
C140 C130 1.386 . S
C140 C133 1.357 . S
C140 H153 0.928 . S
H141 C117 0.931 . S
H142 C119 0.930 . S
H143 C121 0.929 . S
H144 C122 0.931 . S
H145 C124 0.930 . S
H146 C128 0.931 . S
H147 C126 0.931 . S
H148 C130 0.931 . S
H149 C131 0.929 . S
H150 C132 0.930 . S
H151 C135 0.930 . S
H152 C136 0.931 . S
H153 C140 0.928 . S
H154 C139 0.929 . S
H155 C137 0.932 . S
C156 C157 1.386 . S
C156 C158 1.397 . S
C156 H180 0.931 . S
C157 C156 1.386 . S
C157 C161 1.397 . S
C158 C156 1.397 . S
C158 C159 1.384 . S
C158 H181 0.930 . S
C159 C158 1.384 . S
C159 C160 1.377 . S
C159 C162 1.481 . S
C160 C159 1.377 . S
C160 C161 1.389 . S
C160 H182 0.929 . S
C161 C157 1.397 . S
C161 C160 1.389 . S
C161 H183 0.931 . S
C162 C159 1.481 . S
C162 C163 1.387 . S
C162 C167 1.390 . S
C163 C162 1.387 . S
C163 C164 1.401 . S
C163 H184 0.930 . S
C164 C163 1.401 . S
C164 C165 1.376 . S
C164 C173 1.511 . S
C165 C164 1.376 . S
C165 C166 1.392 . S
C165 H186 0.931 . S
C166 C165 1.392 . S
C166 C167 1.361 . S
C166 C168 1.500 . S
C167 C162 1.390 . S
C167 C166 1.361 . S
C167 H185 0.931 . S
C168 C166 1.500 . S
C168 C169 1.371 . S
C168 C170 1.365 . S
C169 C168 1.371 . S
C169 C179 1.386 . S
C169 H187 0.931 . S
C170 C168 1.365 . S
C170 C171 1.409 . S
C170 H188 0.929 . S
C171 C170 1.409 . S
C171 C172 1.380 . S
C171 H189 0.930 . S
C172 C171 1.380 . S
C172 C179 1.357 . S
C173 C164 1.511 . S
C173 C174 1.341 . S
C173 C175 1.371 . S
C174 C173 1.341 . S
C174 C178 1.394 . S
C174 H190 0.930 . S
C175 C173 1.371 . S
C175 C176 1.392 . S
C175 H191 0.931 . S
C176 C175 1.392 . S
C176 C177 1.331 . S
C176 H194 0.932 . S
C177 C176 1.331 . S
C177 C178 1.336 . S
C178 C174 1.394 . S
C178 C177 1.336 . S
C178 H193 0.929 . S
C179 C169 1.386 . S
C179 C172 1.357 . S
C179 H192 0.928 . S
H180 C156 0.931 . S
H181 C158 0.930 . S
H182 C160 0.929 . S
H183 C161 0.931 . S
H184 C163 0.930 . S
H185 C167 0.931 . S
H186 C165 0.931 . S
H187 C169 0.931 . S
H188 C170 0.929 . S
H189 C171 0.930 . S
H190 C174 0.930 . S
H191 C175 0.931 . S
H192 C179 0.928 . S
H193 C178 0.929 . S
H194 C176 0.932 . S
C195 C196 1.386 . S
C195 C197 1.397 . S
C195 H219 0.931 . S
C196 C195 1.386 . S
C196 C200 1.397 . S
C197 C195 1.397 . S
C197 C198 1.384 . S
C197 H220 0.930 . S
C198 C197 1.384 . S
C198 C199 1.377 . S
C198 C201 1.481 . S
C199 C198 1.377 . S
C199 C200 1.389 . S
C199 H221 0.929 . S
C200 C196 1.397 . S
C200 C199 1.389 . S
C200 H222 0.931 . S
C201 C198 1.481 . S
C201 C202 1.387 . S
C201 C206 1.390 . S
C202 C201 1.387 . S
C202 C203 1.401 . S
C202 H223 0.930 . S
C203 C202 1.401 . S
C203 C204 1.376 . S
C203 C212 1.511 . S
C204 C203 1.376 . S
C204 C205 1.392 . S
C204 H225 0.931 . S
C205 C204 1.392 . S
C205 C206 1.361 . S
C205 C207 1.500 . S
C206 C201 1.390 . S
C206 C205 1.361 . S
C206 H224 0.931 . S
C207 C205 1.500 . S
C207 C208 1.371 . S
C207 C209 1.365 . S
C208 C207 1.371 . S
C208 C218 1.386 . S
C208 H226 0.931 . S
C209 C207 1.365 . S
C209 C210 1.409 . S
C209 H227 0.929 . S
C210 C209 1.409 . S
C210 C211 1.380 . S
C210 H228 0.930 . S
C211 C210 1.380 . S
C211 C218 1.357 . S
C212 C203 1.511 . S
C212 C213 1.341 . S
C212 C214 1.371 . S
C213 C212 1.341 . S
C213 C217 1.394 . S
C213 H229 0.930 . S
C214 C212 1.371 . S
C214 C215 1.392 . S
C214 H230 0.931 . S
C215 C214 1.392 . S
C215 C216 1.331 . S
C215 H233 0.932 . S
C216 C215 1.331 . S
C216 C217 1.336 . S
C217 C213 1.394 . S
C217 C216 1.336 . S
C217 H232 0.929 . S
C218 C208 1.386 . S
C218 C211 1.357 . S
C218 H231 0.928 . S
H219 C195 0.931 . S
H220 C197 0.930 . S
H221 C199 0.929 . S
H222 C200 0.931 . S
H223 C202 0.930 . S
H224 C206 0.931 . S
H225 C204 0.931 . S
H226 C208 0.931 . S
H227 C209 0.929 . S
H228 C210 0.930 . S
H229 C213 0.930 . S
H230 C214 0.931 . S
H231 C218 0.928 . S
H232 C217 0.929 . S
H233 C215 0.932 . S
C234 C235 1.386 . S
C234 C236 1.397 . S
C234 H258 0.931 . S
C235 C234 1.386 . S
C235 C239 1.397 . S
C236 C234 1.397 . S
C236 C237 1.384 . S
C236 H259 0.930 . S
C237 C236 1.384 . S
C237 C238 1.377 . S
C237 C240 1.481 . S
C238 C237 1.377 . S
C238 C239 1.389 . S
C238 H260 0.929 . S
C239 C235 1.397 . S
C239 C238 1.389 . S
C239 H261 0.931 . S
C240 C237 1.481 . S
C240 C241 1.387 . S
C240 C245 1.390 . S
C241 C240 1.387 . S
C241 C242 1.401 . S
C241 H262 0.930 . S
C242 C241 1.401 . S
C242 C243 1.376 . S
C242 C251 1.511 . S
C243 C242 1.376 . S
C243 C244 1.392 . S
C243 H264 0.931 . S
C244 C243 1.392 . S
C244 C245 1.361 . S
C244 C246 1.500 . S
C245 C240 1.390 . S
C245 C244 1.361 . S
C245 H263 0.931 . S
C246 C244 1.500 . S
C246 C247 1.371 . S
C246 C248 1.365 . S
C247 C246 1.371 . S
C247 C257 1.386 . S
C247 H265 0.931 . S
C248 C246 1.365 . S
C248 C249 1.409 . S
C248 H266 0.929 . S
C249 C248 1.409 . S
C249 C250 1.380 . S
C249 H267 0.930 . S
C250 C249 1.380 . S
C250 C257 1.357 . S
C251 C242 1.511 . S
C251 C252 1.341 . S
C251 C253 1.371 . S
C252 C251 1.341 . S
C252 C256 1.394 . S
C252 H268 0.930 . S
C253 C251 1.371 . S
C253 C254 1.392 . S
C253 H269 0.931 . S
C254 C253 1.392 . S
C254 C255 1.331 . S
C254 H272 0.932 . S
C255 C254 1.331 . S
C255 C256 1.336 . S
C256 C252 1.394 . S
C256 C255 1.336 . S
C256 H271 0.929 . S
C257 C247 1.386 . S
C257 C250 1.357 . S
C257 H270 0.928 . S
H258 C234 0.931 . S
H259 C236 0.930 . S
H260 C238 0.929 . S
H261 C239 0.931 . S
H262 C241 0.930 . S
H263 C245 0.931 . S
H264 C243 0.931 . S
H265 C247 0.931 . S
H266 C248 0.929 . S
H267 C249 0.930 . S
H268 C252 0.930 . S
H269 C253 0.931 . S
H270 C257 0.928 . S
H271 C256 0.929 . S
H272 C254 0.932 . S
C273 C274 1.386 . S
C273 C275 1.397 . S
C273 H297 0.931 . S
C274 C273 1.386 . S
C274 C278 1.397 . S
C275 C273 1.397 . S
C275 C276 1.384 . S
C275 H298 0.930 . S
C276 C275 1.384 . S
C276 C277 1.377 . S
C276 C279 1.481 . S
C277 C276 1.377 . S
C277 C278 1.389 . S
C277 H299 0.929 . S
C278 C274 1.397 . S
C278 C277 1.389 . S
C278 H300 0.931 . S
C279 C276 1.481 . S
C279 C280 1.387 . S
C279 C284 1.390 . S
C280 C279 1.387 . S
C280 C281 1.401 . S
C280 H301 0.930 . S
C281 C280 1.401 . S
C281 C282 1.376 . S
C281 C290 1.511 . S
C282 C281 1.376 . S
C282 C283 1.392 . S
C282 H303 0.931 . S
C283 C282 1.392 . S
C283 C284 1.361 . S
C283 C285 1.500 . S
C284 C279 1.390 . S
C284 C283 1.361 . S
C284 H302 0.931 . S
C285 C283 1.500 . S
C285 C286 1.371 . S
C285 C287 1.365 . S
C286 C285 1.371 . S
C286 C296 1.386 . S
C286 H304 0.931 . S
C287 C285 1.365 . S
C287 C288 1.397 1_455 S
C287 H305 0.929 . S
C288 C287 1.397 1_655 S
C288 C289 1.381 . S
C288 H306 0.941 . S
C289 C288 1.381 . S
C289 C296 1.357 1_655 S
C290 C281 1.511 . S
C290 C291 1.341 . S
C290 C292 1.371 . S
C291 C290 1.341 . S
C291 C295 1.394 . S
C291 H307 0.930 . S
C292 C290 1.371 . S
C292 C293 1.392 . S
C292 H308 0.931 . S
C293 C292 1.392 . S
C293 C294 1.331 . S
C293 H311 0.932 . S
C294 C293 1.331 . S
C294 C295 1.336 . S
C295 C291 1.394 . S
C295 C294 1.336 . S
C295 H310 0.929 . S
C296 C286 1.386 . S
C296 C289 1.357 1_455 S
C296 H309 0.928 . S
H297 C273 0.931 . S
H298 C275 0.930 . S
H299 C277 0.929 . S
H300 C278 0.931 . S
H301 C280 0.930 . S
H302 C284 0.931 . S
H303 C282 0.931 . S
H304 C286 0.931 . S
H305 C287 0.929 . S
H306 C288 0.941 . S
H307 C291 0.930 . S
H308 C292 0.931 . S
H309 C296 0.928 . S
H310 C295 0.929 . S
H311 C293 0.932 . S
Zn312 O318 1.920 . S
Zn312 O324 1.898 . S
Zn312 O327 1.905 . S
Zn313 O321 1.905 . S
Zn313 O322 1.898 . S
Zn313 O330 1.920 . S
Zn314 O317 2.080 . S
Zn314 O320 2.114 . S
Zn314 O323 2.120 . S
Zn314 O325 2.120 . S
Zn314 O326 2.114 . S
Zn314 O329 2.080 . S
C315 O320 1.166 . S
C315 O321 1.182 . S
C316 O322 1.167 . S
C316 O323 1.299 . S
O317 Zn314 2.080 . S
O317 C331 1.305 . S
O318 Zn312 1.920 . S
O318 C331 1.234 . S
C319 O324 1.167 . S
C319 O325 1.299 . S
O320 Zn314 2.114 . S
O320 C315 1.166 . S
O321 Zn313 1.905 . S
O321 C315 1.182 . S
O322 Zn313 1.898 . S
O322 C316 1.167 . S
O323 Zn314 2.120 . S
O323 C316 1.299 . S
O324 Zn312 1.898 . S
O324 C319 1.167 . S
O325 Zn314 2.120 . S
O325 C319 1.299 . S
O326 Zn314 2.114 . S
O326 C328 1.166 . S
O327 Zn312 1.905 . S
O327 C328 1.182 . S
C328 O326 1.166 . S
C328 O327 1.182 . S
O329 Zn314 2.080 . S
O329 C332 1.305 . S
O330 Zn313 1.920 . S
O330 C332 1.234 . S
C331 O317 1.305 . S
C331 O318 1.234 . S
C332 O329 1.305 . S
C332 O330 1.234 . S
Zn333 O339 1.920 . S
Zn333 O345 1.898 . S
Zn333 O348 1.905 . S
Zn334 O342 1.905 . S
Zn334 O343 1.898 . S
Zn334 O351 1.920 . S
Zn335 O338 2.080 . S
Zn335 O341 2.114 . S
Zn335 O344 2.120 . S
Zn335 O346 2.120 . S
Zn335 O347 2.114 . S
Zn335 O350 2.080 . S
C336 O341 1.166 . S
C336 O342 1.182 . S
C337 O343 1.167 . S
C337 O344 1.299 . S
O338 Zn335 2.080 . S
O338 C352 1.305 . S
O339 Zn333 1.920 . S
O339 C352 1.234 . S
C340 O345 1.167 . S
C340 O346 1.299 . S
O341 Zn335 2.114 . S
O341 C336 1.166 . S
O342 Zn334 1.905 . S
O342 C336 1.182 . S
O343 Zn334 1.898 . S
O343 C337 1.167 . S
O344 Zn335 2.120 . S
O344 C337 1.299 . S
O345 Zn333 1.898 . S
O345 C340 1.167 . S
O346 Zn335 2.120 . S
O346 C340 1.299 . S
O347 Zn335 2.114 . S
O347 C349 1.166 . S
O348 Zn333 1.905 . S
O348 C349 1.182 . S
C349 O347 1.166 . S
C349 O348 1.182 . S
O350 Zn335 2.080 . S
O350 C353 1.305 . S
O351 Zn334 1.920 . S
O351 C353 1.234 . S
C352 O338 1.305 . S
C352 O339 1.234 . S
C353 O350 1.305 . S
C353 O351 1.234 . S
Zn354 O360 1.920 . S
Zn354 O366 1.898 . S
Zn354 O369 1.905 . S
Zn355 O363 1.905 . S
Zn355 O364 1.898 . S
Zn355 O372 1.920 . S
Zn356 O359 2.080 . S
Zn356 O362 2.114 . S
Zn356 O365 2.120 . S
Zn356 O367 2.120 . S
Zn356 O368 2.114 . S
Zn356 O371 2.080 . S
C357 O362 1.166 . S
C357 O363 1.182 . S
C358 O364 1.167 . S
C358 O365 1.299 . S
O359 Zn356 2.080 . S
O359 C373 1.305 . S
O360 Zn354 1.920 . S
O360 C373 1.234 . S
C361 O366 1.167 . S
C361 O367 1.299 . S
O362 Zn356 2.114 . S
O362 C357 1.166 . S
O363 Zn355 1.905 . S
O363 C357 1.182 . S
O364 Zn355 1.898 . S
O364 C358 1.167 . S
O365 Zn356 2.120 . S
O365 C358 1.299 . S
O366 Zn354 1.898 . S
O366 C361 1.167 . S
O367 Zn356 2.120 . S
O367 C361 1.299 . S
O368 Zn356 2.114 . S
O368 C370 1.166 . S
O369 Zn354 1.905 . S
O369 C370 1.182 . S
C370 O368 1.166 . S
C370 O369 1.182 . S
O371 Zn356 2.080 . S
O371 C374 1.305 . S
O372 Zn355 1.920 . S
O372 C374 1.234 . S
C373 O359 1.305 . S
C373 O360 1.234 . S
C374 O371 1.305 . S
C374 O372 1.234 . S
Zn375 O381 1.920 . S
Zn375 O387 1.898 . S
Zn375 O390 1.905 . S
Zn376 O384 1.905 . S
Zn376 O385 1.898 . S
Zn376 O393 1.920 . S
Zn377 O380 2.080 . S
Zn377 O383 2.114 . S
Zn377 O386 2.120 . S
Zn377 O388 2.120 . S
Zn377 O389 2.114 . S
Zn377 O392 2.080 . S
C378 O383 1.166 . S
C378 O384 1.182 . S
C379 O385 1.167 . S
C379 O386 1.299 . S
O380 Zn377 2.080 . S
O380 C394 1.305 . S
O381 Zn375 1.920 . S
O381 C394 1.234 . S
C382 O387 1.167 . S
C382 O388 1.299 . S
O383 Zn377 2.114 . S
O383 C378 1.166 . S
O384 Zn376 1.905 . S
O384 C378 1.182 . S
O385 Zn376 1.898 . S
O385 C379 1.167 . S
O386 Zn377 2.120 . S
O386 C379 1.299 . S
O387 Zn375 1.898 . S
O387 C382 1.167 . S
O388 Zn377 2.120 . S
O388 C382 1.299 . S
O389 Zn377 2.114 . S
O389 C391 1.166 . S
O390 Zn375 1.905 . S
O390 C391 1.182 . S
C391 O389 1.166 . S
C391 O390 1.182 . S
O392 Zn377 2.080 . S
O392 C395 1.305 . S
O393 Zn376 1.920 . S
O393 C395 1.234 . S
C394 O380 1.305 . S
C394 O381 1.234 . S
C395 O392 1.305 . S
C395 O393 1.234 . S
H396 C408 0.930 . S
H397 C410 0.930 . S
H398 C411 0.930 . S
H399 C415 0.959 . S
H400 C415 0.959 . S
H401 C415 0.961 . S
H402 C416 0.960 . S
H403 C416 0.961 . S
H404 C416 0.959 . S
H405 C419 0.929 . S
H406 C420 0.931 . S
H407 C422 0.930 . S
C408 H396 0.930 . S
C408 C409 1.399 . S
C408 C413 1.399 . S
C409 C408 1.399 . S
C409 C410 1.376 . S
C410 H397 0.930 . S
C410 C409 1.376 . S
C410 C411 1.388 . S
C411 H398 0.930 . S
C411 C410 1.388 . S
C411 C412 1.390 . S
C412 C411 1.390 . S
C412 C413 1.394 . S
C412 C418 1.465 . S
C413 C408 1.399 . S
C413 C412 1.394 . S
C413 C414 1.516 . S
C414 C413 1.516 . S
C414 C415 1.502 . S
C414 C416 1.561 . S
C414 C417 1.526 . S
C415 H399 0.959 . S
C415 H400 0.959 . S
C415 H401 0.961 . S
C415 C414 1.502 . S
C416 H402 0.960 . S
C416 H403 0.961 . S
C416 H404 0.959 . S
C416 C414 1.561 . S
C417 C414 1.526 . S
C417 C418 1.396 . S
C417 C422 1.390 . S
C418 C412 1.465 . S
C418 C417 1.396 . S
C418 C419 1.399 . S
C419 H405 0.929 . S
C419 C418 1.399 . S
C419 C420 1.385 . S
C420 H406 0.931 . S
C420 C419 1.385 . S
C420 C421 1.389 . S
C421 C420 1.389 . S
C421 C422 1.387 . S
C422 H407 0.930 . S
C422 C417 1.390 . S
C422 C421 1.387 . S
H423 C435 0.930 . S
H424 C437 0.930 . S
H425 C438 0.930 . S
H426 C442 0.959 . S
H427 C442 0.959 . S
H428 C442 0.961 . S
H429 C443 0.960 . S
H430 C443 0.961 . S
H431 C443 0.959 . S
H432 C446 0.929 . S
H433 C447 0.931 . S
H434 C449 0.930 . S
C435 H423 0.930 . S
C435 C436 1.399 . S
C435 C440 1.399 . S
C436 C435 1.399 . S
C436 C437 1.376 . S
C437 H424 0.930 . S
C437 C436 1.376 . S
C437 C438 1.388 . S
C438 H425 0.930 . S
C438 C437 1.388 . S
C438 C439 1.390 . S
C439 C438 1.390 . S
C439 C440 1.394 . S
C439 C445 1.465 . S
C440 C435 1.399 . S
C440 C439 1.394 . S
C440 C441 1.516 . S
C441 C440 1.516 . S
C441 C442 1.502 . S
C441 C443 1.561 . S
C441 C444 1.526 . S
C442 H426 0.959 . S
C442 H427 0.959 . S
C442 H428 0.961 . S
C442 C441 1.502 . S
C443 H429 0.960 . S
C443 H430 0.961 . S
C443 H431 0.959 . S
C443 C441 1.561 . S
C444 C441 1.526 . S
C444 C445 1.396 . S
C444 C449 1.390 . S
C445 C439 1.465 . S
C445 C444 1.396 . S
C445 C446 1.399 . S
C446 H432 0.929 . S
C446 C445 1.399 . S
C446 C447 1.385 . S
C447 H433 0.931 . S
C447 C446 1.385 . S
C447 C448 1.389 . S
C448 C447 1.389 . S
C448 C449 1.387 . S
C449 H434 0.930 . S
C449 C444 1.390 . S
C449 C448 1.387 . S
H450 C462 0.930 . S
H451 C464 0.930 . S
H452 C465 0.930 . S
H453 C469 0.959 . S
H454 C469 0.959 . S
H455 C469 0.961 . S
H456 C470 0.960 . S
H457 C470 0.961 . S
H458 C470 0.959 . S
H459 C473 0.929 . S
H460 C474 0.931 . S
H461 C476 0.930 . S
C462 H450 0.930 . S
C462 C463 1.399 . S
C462 C467 1.399 . S
C463 C462 1.399 . S
C463 C464 1.376 . S
C464 H451 0.930 . S
C464 C463 1.376 . S
C464 C465 1.388 . S
C465 H452 0.930 . S
C465 C464 1.388 . S
C465 C466 1.390 . S
C466 C465 1.390 . S
C466 C467 1.394 . S
C466 C472 1.465 . S
C467 C462 1.399 . S
C467 C466 1.394 . S
C467 C468 1.516 . S
C468 C467 1.516 . S
C468 C469 1.502 . S
C468 C470 1.561 . S
C468 C471 1.526 . S
C469 H453 0.959 . S
C469 H454 0.959 . S
C469 H455 0.961 . S
C469 C468 1.502 . S
C470 H456 0.960 . S
C470 H457 0.961 . S
C470 H458 0.959 . S
C470 C468 1.561 . S
C471 C468 1.526 . S
C471 C472 1.396 . S
C471 C476 1.390 . S
C472 C466 1.465 . S
C472 C471 1.396 . S
C472 C473 1.399 . S
C473 H459 0.929 . S
C473 C472 1.399 . S
C473 C474 1.385 . S
C474 H460 0.931 . S
C474 C473 1.385 . S
C474 C475 1.389 . S
C475 C474 1.389 . S
C475 C476 1.387 . S
C476 H461 0.930 . S
C476 C471 1.390 . S
C476 C475 1.387 . S
H477 C489 0.930 . S
H478 C491 0.930 . S
H479 C492 0.930 . S
H480 C496 0.959 . S
H481 C496 0.959 . S
H482 C496 0.961 . S
H483 C497 0.960 . S
H484 C497 0.961 . S
H485 C497 0.959 . S
H486 C500 0.929 . S
H487 C501 0.931 1_455 S
H488 C503 0.930 . S
C489 H477 0.930 . S
C489 C490 1.399 . S
C489 C494 1.399 . S
C490 C489 1.399 . S
C490 C491 1.376 . S
C491 H478 0.930 . S
C491 C490 1.376 . S
C491 C492 1.388 . S
C492 H479 0.930 . S
C492 C491 1.388 . S
C492 C493 1.390 . S
C493 C492 1.390 . S
C493 C494 1.394 . S
C493 C499 1.465 . S
C494 C489 1.399 . S
C494 C493 1.394 . S
C494 C495 1.516 . S
C495 C494 1.516 . S
C495 C496 1.502 . S
C495 C497 1.561 . S
C495 C498 1.526 . S
C496 H480 0.959 . S
C496 H481 0.959 . S
C496 H482 0.961 . S
C496 C495 1.502 . S
C497 H483 0.960 . S
C497 H484 0.961 . S
C497 H485 0.959 . S
C497 C495 1.561 . S
C498 C495 1.526 . S
C498 C499 1.396 . S
C498 C503 1.390 . S
C499 C493 1.465 . S
C499 C498 1.396 . S
C499 C500 1.399 . S
C500 H486 0.929 . S
C500 C499 1.399 . S
C500 C501 1.385 . S
C501 H487 0.931 1_655 S
C501 C500 1.385 . S
C501 C502 1.389 1_655 S
C502 C501 1.389 1_455 S
C502 C503 1.387 1_455 S
C503 H488 0.930 . S
C503 C498 1.390 . S
C503 C502 1.387 1_655 S
H504 C516 0.930 . S
H505 C518 0.930 . S
H506 C519 0.930 . S
H507 C523 0.959 . S
H508 C523 0.959 . S
H509 C523 0.961 . S
H510 C524 0.960 . S
H511 C524 0.961 . S
H512 C524 0.959 . S
H513 C527 0.929 . S
H514 C528 0.931 . S
H515 C530 0.930 . S
C516 H504 0.930 . S
C516 C517 1.399 . S
C516 C521 1.399 . S
C517 C516 1.399 . S
C517 C518 1.376 . S
C518 H505 0.930 . S
C518 C517 1.376 . S
C518 C519 1.388 . S
C519 H506 0.930 . S
C519 C518 1.388 . S
C519 C520 1.390 . S
C520 C519 1.390 . S
C520 C521 1.394 . S
C520 C526 1.465 . S
C521 C516 1.399 . S
C521 C520 1.394 . S
C521 C522 1.516 . S
C522 C521 1.516 . S
C522 C523 1.502 . S
C522 C524 1.561 . S
C522 C525 1.526 . S
C523 H507 0.959 . S
C523 H508 0.959 . S
C523 H509 0.961 . S
C523 C522 1.502 . S
C524 H510 0.960 . S
C524 H511 0.961 . S
C524 H512 0.959 . S
C524 C522 1.561 . S
C525 C522 1.526 . S
C525 C526 1.396 . S
C525 C530 1.390 . S
C526 C520 1.465 . S
C526 C525 1.396 . S
C526 C527 1.399 . S
C527 H513 0.929 . S
C527 C526 1.399 . S
C527 C528 1.385 . S
C528 H514 0.931 . S
C528 C527 1.385 . S
C528 C529 1.389 . S
C529 C528 1.389 . S
C529 C530 1.387 . S
C530 H515 0.930 . S
C530 C525 1.390 . S
C530 C529 1.387 . S
H531 C543 0.930 . S
H532 C545 0.930 . S
H533 C546 0.930 . S
H534 C550 0.959 . S
H535 C550 0.959 . S
H536 C550 0.961 . S
H537 C551 0.960 . S
H538 C551 0.961 . S
H539 C551 0.959 . S
H540 C554 0.929 . S
H541 C555 0.931 1_455 S
H542 C557 0.930 . S
C543 H531 0.930 . S
C543 C544 1.399 . S
C543 C548 1.399 . S
C544 C543 1.399 . S
C544 C545 1.376 . S
C545 H532 0.930 . S
C545 C544 1.376 . S
C545 C546 1.388 . S
C546 H533 0.930 . S
C546 C545 1.388 . S
C546 C547 1.390 . S
C547 C546 1.390 . S
C547 C548 1.394 . S
C547 C553 1.465 . S
C548 C543 1.399 . S
C548 C547 1.394 . S
C548 C549 1.516 . S
C549 C548 1.516 . S
C549 C550 1.502 . S
C549 C551 1.561 . S
C549 C552 1.526 . S
C550 H534 0.959 . S
C550 H535 0.959 . S
C550 H536 0.961 . S
C550 C549 1.502 . S
C551 H537 0.960 . S
C551 H538 0.961 . S
C551 H539 0.959 . S
C551 C549 1.561 . S
C552 C549 1.526 . S
C552 C553 1.396 . S
C552 C557 1.390 . S
C553 C547 1.465 . S
C553 C552 1.396 . S
C553 C554 1.399 . S
C554 H540 0.929 . S
C554 C553 1.399 . S
C554 C555 1.385 . S
C555 H541 0.931 1_655 S
C555 C554 1.385 . S
C555 C556 1.389 1_655 S
C556 C555 1.389 1_455 S
C556 C557 1.387 1_455 S
C557 H542 0.930 . S
C557 C552 1.390 . S
C557 C556 1.387 1_655 S
H558 C570 0.930 . S
H559 C572 0.930 . S
H560 C573 0.930 . S
H561 C577 0.959 . S
H562 C577 0.959 . S
H563 C577 0.961 . S
H564 C578 0.960 . S
H565 C578 0.961 . S
H566 C578 0.959 . S
H567 C581 0.929 . S
H568 C582 0.931 . S
H569 C584 0.930 . S
C570 H558 0.930 . S
C570 C571 1.399 . S
C570 C575 1.399 . S
C571 C570 1.399 . S
C571 C572 1.376 . S
C572 H559 0.930 . S
C572 C571 1.376 . S
C572 C573 1.388 . S
C573 H560 0.930 . S
C573 C572 1.388 . S
C573 C574 1.390 . S
C574 C573 1.390 . S
C574 C575 1.394 . S
C574 C580 1.465 . S
C575 C570 1.399 . S
C575 C574 1.394 . S
C575 C576 1.516 . S
C576 C575 1.516 . S
C576 C577 1.502 . S
C576 C578 1.561 . S
C576 C579 1.526 . S
C577 H561 0.959 . S
C577 H562 0.959 . S
C577 H563 0.961 . S
C577 C576 1.502 . S
C578 H564 0.960 . S
C578 H565 0.961 . S
C578 H566 0.959 . S
C578 C576 1.561 . S
C579 C576 1.526 . S
C579 C580 1.396 . S
C579 C584 1.390 . S
C580 C574 1.465 . S
C580 C579 1.396 . S
C580 C581 1.399 . S
C581 H567 0.929 . S
C581 C580 1.399 . S
C581 C582 1.385 . S
C582 H568 0.931 . S
C582 C581 1.385 . S
C582 C583 1.389 . S
C583 C582 1.389 . S
C583 C584 1.387 . S
C584 H569 0.930 . S
C584 C579 1.390 . S
C584 C583 1.387 . S
H585 C597 0.930 . S
H586 C599 0.930 . S
H587 C600 0.930 . S
H588 C604 0.959 . S
H589 C604 0.959 . S
H590 C604 0.961 . S
H591 C605 0.960 . S
H592 C605 0.961 . S
H593 C605 0.959 . S
H594 C608 0.929 . S
H595 C609 0.931 . S
H596 C611 0.930 . S
C597 H585 0.930 . S
C597 C598 1.399 . S
C597 C602 1.399 . S
C598 C597 1.399 . S
C598 C599 1.376 . S
C599 H586 0.930 . S
C599 C598 1.376 . S
C599 C600 1.388 . S
C600 H587 0.930 . S
C600 C599 1.388 . S
C600 C601 1.390 . S
C601 C600 1.390 . S
C601 C602 1.394 . S
C601 C607 1.465 . S
C602 C597 1.399 . S
C602 C601 1.394 . S
C602 C603 1.516 . S
C603 C602 1.516 . S
C603 C604 1.502 . S
C603 C605 1.561 . S
C603 C606 1.526 . S
C604 H588 0.959 . S
C604 H589 0.959 . S
C604 H590 0.961 . S
C604 C603 1.502 . S
C605 H591 0.960 . S
C605 H592 0.961 . S
C605 H593 0.959 . S
C605 C603 1.561 . S
C606 C603 1.526 . S
C606 C607 1.396 . S
C606 C611 1.390 . S
C607 C601 1.465 . S
C607 C606 1.396 . S
C607 C608 1.399 . S
C608 H594 0.929 . S
C608 C607 1.399 . S
C608 C609 1.385 . S
C609 H595 0.931 . S
C609 C608 1.385 . S
C609 C610 1.389 . S
C610 C609 1.389 . S
C610 C611 1.387 . S
C611 H596 0.930 . S
C611 C606 1.390 . S
C611 C610 1.387 . S
H612 C624 0.930 . S
H613 C626 0.930 . S
H614 C627 0.930 . S
H615 C631 0.959 . S
H616 C631 0.959 . S
H617 C631 0.961 . S
H618 C632 0.960 . S
H619 C632 0.961 . S
H620 C632 0.959 . S
H621 C635 0.929 . S
H622 C636 0.931 . S
H623 C638 0.930 . S
C624 H612 0.930 . S
C624 C625 1.399 . S
C624 C629 1.399 . S
C625 C624 1.399 . S
C625 C626 1.376 . S
C626 H613 0.930 . S
C626 C625 1.376 . S
C626 C627 1.388 . S
C627 H614 0.930 . S
C627 C626 1.388 . S
C627 C628 1.390 . S
C628 C627 1.390 . S
C628 C629 1.394 . S
C628 C634 1.465 . S
C629 C624 1.399 . S
C629 C628 1.394 . S
C629 C630 1.516 . S
C630 C629 1.516 . S
C630 C631 1.502 . S
C630 C632 1.561 . S
C630 C633 1.526 . S
C631 H615 0.959 . S
C631 H616 0.959 . S
C631 H617 0.961 . S
C631 C630 1.502 . S
C632 H618 0.960 . S
C632 H619 0.961 . S
C632 H620 0.959 . S
C632 C630 1.561 . S
C633 C630 1.526 . S
C633 C634 1.396 . S
C633 C638 1.390 . S
C634 C628 1.465 . S
C634 C633 1.396 . S
C634 C635 1.399 . S
C635 H621 0.929 . S
C635 C634 1.399 . S
C635 C636 1.385 . S
C636 H622 0.931 . S
C636 C635 1.385 . S
C636 C637 1.389 . S
C637 C636 1.389 . S
C637 C638 1.387 . S
C638 H623 0.930 . S
C638 C633 1.390 . S
C638 C637 1.387 . S
H639 C651 0.930 . S
H640 C653 0.930 . S
H641 C654 0.930 . S
H642 C658 0.959 . S
H643 C658 0.959 . S
H644 C658 0.961 . S
H645 C659 0.960 . S
H646 C659 0.961 . S
H647 C659 0.959 . S
H648 C662 0.929 . S
H649 C663 0.931 . S
H650 C665 0.930 . S
C651 H639 0.930 . S
C651 C652 1.399 . S
C651 C656 1.399 . S
C652 C651 1.399 . S
C652 C653 1.376 . S
C653 H640 0.930 . S
C653 C652 1.376 . S
C653 C654 1.388 . S
C654 H641 0.930 . S
C654 C653 1.388 . S
C654 C655 1.390 . S
C655 C654 1.390 . S
C655 C656 1.394 . S
C655 C661 1.465 . S
C656 C651 1.399 . S
C656 C655 1.394 . S
C656 C657 1.516 . S
C657 C656 1.516 . S
C657 C658 1.502 . S
C657 C659 1.561 . S
C657 C660 1.526 . S
C658 H642 0.959 . S
C658 H643 0.959 . S
C658 H644 0.961 . S
C658 C657 1.502 . S
C659 H645 0.960 . S
C659 H646 0.961 . S
C659 H647 0.959 . S
C659 C657 1.561 . S
C660 C657 1.526 . S
C660 C661 1.396 . S
C660 C665 1.390 . S
C661 C655 1.465 . S
C661 C660 1.396 . S
C661 C662 1.399 . S
C662 H648 0.929 . S
C662 C661 1.399 . S
C662 C663 1.385 . S
C663 H649 0.931 . S
C663 C662 1.385 . S
C663 C664 1.389 . S
C664 C663 1.389 . S
C664 C665 1.387 . S
C665 H650 0.930 . S
C665 C660 1.390 . S
C665 C664 1.387 . S
H666 C678 0.930 . S
H667 C680 0.930 . S
H668 C681 0.930 . S
H669 C685 0.959 . S
H670 C685 0.959 . S
H671 C685 0.961 . S
H672 C686 0.960 . S
H673 C686 0.961 . S
H674 C686 0.959 . S
H675 C689 0.929 . S
H676 C690 0.931 . S
H677 C692 0.930 . S
C678 H666 0.930 . S
C678 C679 1.399 . S
C678 C683 1.399 . S
C679 C678 1.399 . S
C679 C680 1.376 . S
C680 H667 0.930 . S
C680 C679 1.376 . S
C680 C681 1.388 . S
C681 H668 0.930 . S
C681 C680 1.388 . S
C681 C682 1.390 . S
C682 C681 1.390 . S
C682 C683 1.394 . S
C682 C688 1.465 . S
C683 C678 1.399 . S
C683 C682 1.394 . S
C683 C684 1.516 . S
C684 C683 1.516 . S
C684 C685 1.502 . S
C684 C686 1.561 . S
C684 C687 1.526 . S
C685 H669 0.959 . S
C685 H670 0.959 . S
C685 H671 0.961 . S
C685 C684 1.502 . S
C686 H672 0.960 . S
C686 H673 0.961 . S
C686 H674 0.959 . S
C686 C684 1.561 . S
C687 C684 1.526 . S
C687 C688 1.396 . S
C687 C692 1.390 . S
C688 C682 1.465 . S
C688 C687 1.396 . S
C688 C689 1.399 . S
C689 H675 0.929 . S
C689 C688 1.399 . S
C689 C690 1.385 . S
C690 H676 0.931 . S
C690 C689 1.385 . S
C690 C691 1.389 . S
C691 C690 1.389 . S
C691 C692 1.387 . S
C692 H677 0.930 . S
C692 C687 1.390 . S
C692 C691 1.387 . S
H693 C705 0.930 . S
H694 C707 0.930 . S
H695 C708 0.930 . S
H696 C712 0.959 . S
H697 C712 0.959 . S
H698 C712 0.961 . S
H699 C713 0.960 . S
H700 C713 0.961 . S
H701 C713 0.959 . S
H702 C716 0.929 . S
H703 C717 0.931 . S
H704 C719 0.930 . S
C705 H693 0.930 . S
C705 C706 1.399 . S
C705 C710 1.399 . S
C706 C705 1.399 . S
C706 C707 1.376 . S
C707 H694 0.930 . S
C707 C706 1.376 . S
C707 C708 1.388 . S
C708 H695 0.930 . S
C708 C707 1.388 . S
C708 C709 1.390 . S
C709 C708 1.390 . S
C709 C710 1.394 . S
C709 C715 1.465 . S
C710 C705 1.399 . S
C710 C709 1.394 . S
C710 C711 1.516 . S
C711 C710 1.516 . S
C711 C712 1.502 . S
C711 C713 1.561 . S
C711 C714 1.526 . S
C712 H696 0.959 . S
C712 H697 0.959 . S
C712 H698 0.961 . S
C712 C711 1.502 . S
C713 H699 0.960 . S
C713 H700 0.961 . S
C713 H701 0.959 . S
C713 C711 1.561 . S
C714 C711 1.526 . S
C714 C715 1.396 . S
C714 C719 1.390 . S
C715 C709 1.465 . S
C715 C714 1.396 . S
C715 C716 1.399 . S
C716 H702 0.929 . S
C716 C715 1.399 . S
C716 C717 1.385 . S
C717 H703 0.931 . S
C717 C716 1.385 . S
C717 C718 1.389 . S
C718 C717 1.389 . S
C718 C719 1.387 . S
C719 H704 0.930 . S
C719 C714 1.390 . S
C719 C718 1.387 . S
H720 C732 0.930 . S
H721 C734 0.930 . S
H722 C735 0.930 . S
H723 C739 0.959 . S
H724 C739 0.959 . S
H725 C739 0.961 . S
H726 C740 0.960 . S
H727 C740 0.961 . S
H728 C740 0.959 . S
H729 C743 0.929 . S
H730 C744 0.931 . S
H731 C746 0.930 . S
C732 H720 0.930 . S
C732 C733 1.399 . S
C732 C737 1.399 . S
C733 C732 1.399 . S
C733 C734 1.376 . S
C734 H721 0.930 . S
C734 C733 1.376 . S
C734 C735 1.388 . S
C735 H722 0.930 . S
C735 C734 1.388 . S
C735 C736 1.390 . S
C736 C735 1.390 . S
C736 C737 1.394 . S
C736 C742 1.465 1_565 S
C737 C732 1.399 . S
C737 C736 1.394 . S
C737 C738 1.516 1_565 S
C738 C737 1.516 1_545 S
C738 C739 1.502 . S
C738 C740 1.561 . S
C738 C741 1.526 . S
C739 H723 0.959 . S
C739 H724 0.959 . S
C739 H725 0.961 . S
C739 C738 1.502 . S
C740 H726 0.960 . S
C740 H727 0.961 . S
C740 H728 0.959 . S
C740 C738 1.561 . S
C741 C738 1.526 . S
C741 C742 1.396 . S
C741 C746 1.390 . S
C742 C736 1.465 1_545 S
C742 C741 1.396 . S
C742 C743 1.399 . S
C743 H729 0.929 . S
C743 C742 1.399 . S
C743 C744 1.385 . S
C744 H730 0.931 . S
C744 C743 1.385 . S
C744 C745 1.389 . S
C745 C744 1.389 . S
C745 C746 1.387 . S
C746 H731 0.930 . S
C746 C741 1.390 . S
C746 C745 1.387 . S
H747 C759 0.930 . S
H748 C761 0.930 . S
H749 C762 0.928 1_565 S
H750 C766 0.959 . S
H751 C766 0.959 . S
H752 C766 0.961 . S
H753 C767 0.960 1_545 S
H754 C767 0.961 . S
H755 C767 0.959 . S
H756 C770 0.929 . S
H757 C771 0.931 . S
H758 C773 0.930 . S
C759 H747 0.930 . S
C759 C760 1.399 . S
C759 C764 1.399 1_545 S
C760 C759 1.399 . S
C760 C761 1.376 . S
C761 H748 0.930 . S
C761 C760 1.376 . S
C761 C762 1.393 . S
C762 H749 0.928 1_545 S
C762 C761 1.393 . S
C762 C763 1.387 1_545 S
C763 C762 1.387 1_565 S
C763 C764 1.394 . S
C763 C769 1.465 . S
C764 C759 1.399 1_565 S
C764 C763 1.394 . S
C764 C765 1.516 . S
C765 C764 1.516 . S
C765 C766 1.502 . S
C765 C767 1.561 . S
C765 C768 1.526 . S
C766 H750 0.959 . S
C766 H751 0.959 . S
C766 H752 0.961 . S
C766 C765 1.502 . S
C767 H753 0.960 1_565 S
C767 H754 0.961 . S
C767 H755 0.959 . S
C767 C765 1.561 . S
C768 C765 1.526 . S
C768 C769 1.396 . S
C768 C773 1.390 . S
C769 C763 1.465 . S
C769 C768 1.396 . S
C769 C770 1.399 . S
C770 H756 0.929 . S
C770 C769 1.399 . S
C770 C771 1.385 . S
C771 H757 0.931 . S
C771 C770 1.385 . S
C771 C772 1.389 . S
C772 C771 1.389 . S
C772 C773 1.387 . S
C773 H758 0.930 . S
C773 C768 1.390 . S
C773 C772 1.387 . S
H774 C786 0.930 . S
H775 C788 0.930 . S
H776 C789 0.930 . S
H777 C793 0.959 . S
H778 C793 0.959 . S
H779 C793 0.961 . S
H780 C794 0.960 . S
H781 C794 0.961 . S
H782 C794 0.959 . S
H783 C797 0.929 . S
H784 C798 0.931 . S
H785 C800 0.930 . S
C786 H774 0.930 . S
C786 C787 1.399 . S
C786 C791 1.399 1_545 S
C787 C786 1.399 . S
C787 C788 1.376 . S
C788 H775 0.930 . S
C788 C787 1.376 . S
C788 C789 1.388 . S
C789 H776 0.930 . S
C789 C788 1.388 . S
C789 C790 1.390 1_545 S
C790 C789 1.390 1_565 S
C790 C791 1.394 . S
C790 C796 1.465 . S
C791 C786 1.399 1_565 S
C791 C790 1.394 . S
C791 C792 1.516 . S
C792 C791 1.516 . S
C792 C793 1.502 . S
C792 C794 1.561 . S
C792 C795 1.526 . S
C793 H777 0.959 . S
C793 H778 0.959 . S
C793 H779 0.961 . S
C793 C792 1.502 . S
C794 H780 0.960 . S
C794 H781 0.961 . S
C794 H782 0.959 . S
C794 C792 1.561 . S
C795 C792 1.526 . S
C795 C796 1.396 . S
C795 C800 1.390 . S
C796 C790 1.465 . S
C796 C795 1.396 . S
C796 C797 1.399 . S
C797 H783 0.929 . S
C797 C796 1.399 . S
C797 C798 1.385 . S
C798 H784 0.931 . S
C798 C797 1.385 . S
C798 C799 1.389 . S
C799 C798 1.389 . S
C799 C800 1.387 . S
C800 H785 0.930 . S
C800 C795 1.390 . S
C800 C799 1.387 . S
H801 C813 0.930 . S
H802 C815 0.930 . S
H803 C816 0.930 . S
H804 C820 0.959 . S
H805 C820 0.959 . S
H806 C820 0.961 . S
H807 C821 0.960 . S
H808 C821 0.961 . S
H809 C821 0.959 . S
H810 C824 0.929 . S
H811 C825 0.931 . S
H812 C827 0.930 . S
C813 H801 0.930 . S
C813 C814 1.399 . S
C813 C818 1.399 . S
C814 C813 1.399 . S
C814 C815 1.376 . S
C815 H802 0.930 . S
C815 C814 1.376 . S
C815 C816 1.388 . S
C816 H803 0.930 . S
C816 C815 1.388 . S
C816 C817 1.390 . S
C817 C816 1.390 . S
C817 C818 1.394 . S
C817 C823 1.465 1_565 S
C818 C813 1.399 . S
C818 C817 1.394 . S
C818 C819 1.516 1_565 S
C819 C818 1.516 1_545 S
C819 C820 1.502 . S
C819 C821 1.561 . S
C819 C822 1.526 . S
C820 H804 0.959 . S
C820 H805 0.959 . S
C820 H806 0.961 . S
C820 C819 1.502 . S
C821 H807 0.960 . S
C821 H808 0.961 . S
C821 H809 0.959 . S
C821 C819 1.561 . S
C822 C819 1.526 . S
C822 C823 1.396 . S
C822 C827 1.390 . S
C823 C817 1.465 1_545 S
C823 C822 1.396 . S
C823 C824 1.399 . S
C824 H810 0.929 . S
C824 C823 1.399 . S
C824 C825 1.385 . S
C825 H811 0.931 . S
C825 C824 1.385 . S
C825 C826 1.389 . S
C826 C825 1.389 . S
C826 C827 1.387 . S
C827 H812 0.930 . S
C827 C822 1.390 . S
C827 C826 1.387 . S
H828 C840 0.930 . S
H829 C842 0.930 . S
H830 C843 0.930 . S
H831 C847 0.959 . S
H832 C847 0.959 . S
H833 C847 0.961 . S
H834 C848 0.960 . S
H835 C848 0.961 . S
H836 C848 0.959 . S
H837 C851 0.929 . S
H838 C852 0.931 . S
H839 C854 0.930 . S
C840 H828 0.930 . S
C840 C841 1.399 . S
C840 C845 1.399 . S
C841 C840 1.399 . S
C841 C842 1.376 . S
C842 H829 0.930 . S
C842 C841 1.376 . S
C842 C843 1.388 . S
C843 H830 0.930 . S
C843 C842 1.388 . S
C843 C844 1.390 . S
C844 C843 1.390 . S
C844 C845 1.394 . S
C844 C850 1.465 . S
C845 C840 1.399 . S
C845 C844 1.394 . S
C845 C846 1.516 . S
C846 C845 1.516 . S
C846 C847 1.502 . S
C846 C848 1.561 . S
C846 C849 1.526 . S
C847 H831 0.959 . S
C847 H832 0.959 . S
C847 H833 0.961 . S
C847 C846 1.502 . S
C848 H834 0.960 . S
C848 H835 0.961 . S
C848 H836 0.959 . S
C848 C846 1.561 . S
C849 C846 1.526 . S
C849 C850 1.396 . S
C849 C854 1.390 . S
C850 C844 1.465 . S
C850 C849 1.396 . S
C850 C851 1.399 . S
C851 H837 0.929 . S
C851 C850 1.399 . S
C851 C852 1.385 . S
C852 H838 0.931 . S
C852 C851 1.385 . S
C852 C853 1.389 . S
C853 C852 1.389 . S
C853 C854 1.387 . S
C854 H839 0.930 . S
C854 C849 1.390 . S
C854 C853 1.387 . S
H855 C867 0.930 . S
H856 C869 0.930 . S
H857 C870 0.930 . S
H858 C874 0.959 . S
H859 C874 0.959 . S
H860 C874 0.961 . S
H861 C875 0.960 . S
H862 C875 0.961 . S
H863 C875 0.959 . S
H864 C878 0.929 . S
H865 C879 0.931 . S
H866 C881 0.930 . S
C867 H855 0.930 . S
C867 C868 1.399 . S
C867 C872 1.399 . S
C868 C867 1.399 . S
C868 C869 1.376 . S
C869 H856 0.930 . S
C869 C868 1.376 . S
C869 C870 1.388 . S
C870 H857 0.930 . S
C870 C869 1.388 . S
C870 C871 1.390 . S
C871 C870 1.390 . S
C871 C872 1.394 . S
C871 C877 1.465 . S
C872 C867 1.399 . S
C872 C871 1.394 . S
C872 C873 1.516 . S
C873 C872 1.516 . S
C873 C874 1.502 . S
C873 C875 1.561 . S
C873 C876 1.526 . S
C874 H858 0.959 . S
C874 H859 0.959 . S
C874 H860 0.961 . S
C874 C873 1.502 . S
C875 H861 0.960 . S
C875 H862 0.961 . S
C875 H863 0.959 . S
C875 C873 1.561 . S
C876 C873 1.526 . S
C876 C877 1.396 . S
C876 C881 1.390 . S
C877 C871 1.465 . S
C877 C876 1.396 . S
C877 C878 1.399 . S
C878 H864 0.929 . S
C878 C877 1.399 . S
C878 C879 1.385 . S
C879 H865 0.931 . S
C879 C878 1.385 . S
C879 C880 1.389 . S
C880 C879 1.389 . S
C880 C881 1.387 . S
C881 H866 0.930 . S
C881 C876 1.390 . S
C881 C880 1.387 . S
H882 C894 0.930 . S
H883 C896 0.930 . S
H884 C897 0.930 . S
H885 C901 0.959 . S
H886 C901 0.959 . S
H887 C901 0.961 . S
H888 C902 0.960 . S
H889 C902 0.961 . S
H890 C902 0.959 . S
H891 C905 0.929 . S
H892 C906 0.931 . S
H893 C908 0.930 . S
C894 H882 0.930 . S
C894 C895 1.399 . S
C894 C899 1.399 . S
C895 C894 1.399 . S
C895 C896 1.376 . S
C896 H883 0.930 . S
C896 C895 1.376 . S
C896 C897 1.388 . S
C897 H884 0.930 . S
C897 C896 1.388 . S
C897 C898 1.390 . S
C898 C897 1.390 . S
C898 C899 1.394 . S
C898 C904 1.465 . S
C899 C894 1.399 . S
C899 C898 1.394 . S
C899 C900 1.516 . S
C900 C899 1.516 . S
C900 C901 1.502 . S
C900 C902 1.561 . S
C900 C903 1.526 . S
C901 H885 0.959 . S
C901 H886 0.959 . S
C901 H887 0.961 . S
C901 C900 1.502 . S
C902 H888 0.960 . S
C902 H889 0.961 . S
C902 H890 0.959 . S
C902 C900 1.561 . S
C903 C900 1.526 . S
C903 C904 1.396 . S
C903 C908 1.390 . S
C904 C898 1.465 . S
C904 C903 1.396 . S
C904 C905 1.399 . S
C905 H891 0.929 . S
C905 C904 1.399 . S
C905 C906 1.385 . S
C906 H892 0.931 . S
C906 C905 1.385 . S
C906 C907 1.389 . S
C907 C906 1.389 . S
C907 C908 1.387 . S
C908 H893 0.930 . S
C908 C903 1.390 . S
C908 C907 1.387 . S
H909 C921 0.930 . S
H910 C923 0.930 . S
H911 C924 0.930 . S
H912 C928 0.959 . S
H913 C928 0.959 . S
H914 C928 0.961 . S
H915 C929 0.960 . S
H916 C929 0.961 . S
H917 C929 0.959 . S
H918 C932 0.929 . S
H919 C933 0.931 . S
H920 C935 0.930 . S
C921 H909 0.930 . S
C921 C922 1.399 . S
C921 C926 1.399 . S
C922 C921 1.399 . S
C922 C923 1.376 . S
C923 H910 0.930 . S
C923 C922 1.376 . S
C923 C924 1.388 . S
C924 H911 0.930 . S
C924 C923 1.388 . S
C924 C925 1.390 . S
C925 C924 1.390 . S
C925 C926 1.394 . S
C925 C931 1.465 . S
C926 C921 1.399 . S
C926 C925 1.394 . S
C926 C927 1.516 . S
C927 C926 1.516 . S
C927 C928 1.502 . S
C927 C929 1.561 . S
C927 C930 1.526 . S
C928 H912 0.959 . S
C928 H913 0.959 . S
C928 H914 0.961 . S
C928 C927 1.502 . S
C929 H915 0.960 . S
C929 H916 0.961 . S
C929 H917 0.959 . S
C929 C927 1.561 . S
C930 C927 1.526 . S
C930 C931 1.396 . S
C930 C935 1.390 . S
C931 C925 1.465 . S
C931 C930 1.396 . S
C931 C932 1.399 . S
C932 H918 0.929 . S
C932 C931 1.399 . S
C932 C933 1.385 . S
C933 H919 0.931 . S
C933 C932 1.385 . S
C933 C934 1.389 . S
C934 C933 1.389 . S
C934 C935 1.387 . S
C935 H920 0.930 . S
C935 C930 1.390 . S
C935 C934 1.387 . S
H936 C948 0.930 . S
H937 C950 0.930 . S
H938 C951 0.930 . S
H939 C955 0.959 . S
H940 C955 0.959 . S
H941 C955 0.961 . S
H942 C956 0.960 . S
H943 C956 0.961 . S
H944 C956 0.959 . S
H945 C959 0.929 . S
H946 C960 0.931 . S
H947 C962 0.930 . S
C948 H936 0.930 . S
C948 C949 1.399 . S
C948 C953 1.399 . S
C949 C948 1.399 . S
C949 C950 1.376 . S
C950 H937 0.930 . S
C950 C949 1.376 . S
C950 C951 1.388 . S
C951 H938 0.930 . S
C951 C950 1.388 . S
C951 C952 1.390 . S
C952 C951 1.390 . S
C952 C953 1.394 . S
C952 C958 1.465 . S
C953 C948 1.399 . S
C953 C952 1.394 . S
C953 C954 1.516 . S
C954 C953 1.516 . S
C954 C955 1.502 . S
C954 C956 1.561 . S
C954 C957 1.526 . S
C955 H939 0.959 . S
C955 H940 0.959 . S
C955 H941 0.961 . S
C955 C954 1.502 . S
C956 H942 0.960 . S
C956 H943 0.961 . S
C956 H944 0.959 . S
C956 C954 1.561 . S
C957 C954 1.526 . S
C957 C958 1.396 . S
C957 C962 1.390 . S
C958 C952 1.465 . S
C958 C957 1.396 . S
C958 C959 1.399 . S
C959 H945 0.929 . S
C959 C958 1.399 . S
C959 C960 1.385 . S
C960 H946 0.931 . S
C960 C959 1.385 . S
C960 C961 1.389 . S
C961 C960 1.389 . S
C961 C962 1.387 . S
C962 H947 0.930 . S
C962 C957 1.390 . S
C962 C961 1.387 . S
H963 C975 0.930 . S
H964 C977 0.930 . S
H965 C978 0.930 . S
H966 C982 0.959 . S
H967 C982 0.959 . S
H968 C982 0.961 . S
H969 C983 0.960 . S
H970 C983 0.961 . S
H971 C983 0.959 . S
H972 C986 0.929 . S
H973 C987 0.931 . S
H974 C989 0.930 . S
C975 H963 0.930 . S
C975 C976 1.399 . S
C975 C980 1.399 . S
C976 C975 1.399 . S
C976 C977 1.376 . S
C977 H964 0.930 . S
C977 C976 1.376 . S
C977 C978 1.388 . S
C978 H965 0.930 . S
C978 C977 1.388 . S
C978 C979 1.390 . S
C979 C978 1.390 . S
C979 C980 1.394 . S
C979 C985 1.465 . S
C980 C975 1.399 . S
C980 C979 1.394 . S
C980 C981 1.516 . S
C981 C980 1.516 . S
C981 C982 1.502 . S
C981 C983 1.561 . S
C981 C984 1.526 . S
C982 H966 0.959 . S
C982 H967 0.959 . S
C982 H968 0.961 . S
C982 C981 1.502 . S
C983 H969 0.960 . S
C983 H970 0.961 . S
C983 H971 0.959 . S
C983 C981 1.561 . S
C984 C981 1.526 . S
C984 C985 1.396 . S
C984 C989 1.390 . S
C985 C979 1.465 . S
C985 C984 1.396 . S
C985 C986 1.399 . S
C986 H972 0.929 . S
C986 C985 1.399 . S
C986 C987 1.385 . S
C987 H973 0.931 . S
C987 C986 1.385 . S
C987 C988 1.389 . S
C988 C987 1.389 . S
C988 C989 1.387 . S
C989 H974 0.930 . S
C989 C984 1.390 . S
C989 C988 1.387 . S
H990 C1002 0.930 . S
H991 C1004 0.930 . S
H992 C1005 0.930 . S
H993 C1009 0.959 . S
H994 C1009 0.959 . S
H995 C1009 0.961 . S
H996 C1010 0.960 . S
H997 C1010 0.961 . S
H998 C1010 0.959 . S
H999 C1013 0.929 . S
H1000 C1014 0.931 . S
H1001 C1016 0.930 . S
C1002 H990 0.930 . S
C1002 C1003 1.399 . S
C1002 C1007 1.399 . S
C1003 C1002 1.399 . S
C1003 C1004 1.376 . S
C1004 H991 0.930 . S
C1004 C1003 1.376 . S
C1004 C1005 1.388 . S
C1005 H992 0.930 . S
C1005 C1004 1.388 . S
C1005 C1006 1.390 . S
C1006 C1005 1.390 . S
C1006 C1007 1.394 . S
C1006 C1012 1.465 . S
C1007 C1002 1.399 . S
C1007 C1006 1.394 . S
C1007 C1008 1.516 . S
C1008 C1007 1.516 . S
C1008 C1009 1.502 . S
C1008 C1010 1.561 . S
C1008 C1011 1.526 . S
C1009 H993 0.959 . S
C1009 H994 0.959 . S
C1009 H995 0.961 . S
C1009 C1008 1.502 . S
C1010 H996 0.960 . S
C1010 H997 0.961 . S
C1010 H998 0.959 . S
C1010 C1008 1.561 . S
C1011 C1008 1.526 . S
C1011 C1012 1.396 . S
C1011 C1016 1.390 . S
C1012 C1006 1.465 . S
C1012 C1011 1.396 . S
C1012 C1013 1.399 . S
C1013 H999 0.929 . S
C1013 C1012 1.399 . S
C1013 C1014 1.385 . S
C1014 H1000 0.931 . S
C1014 C1013 1.385 . S
C1014 C1015 1.389 . S
C1015 C1014 1.389 . S
C1015 C1016 1.387 . S
C1016 H1001 0.930 . S
C1016 C1011 1.390 . S
C1016 C1015 1.387 . S
H1017 C1029 0.930 . S
H1018 C1031 0.930 . S
H1019 C1032 0.930 . S
H1020 C1036 0.959 . S
H1021 C1036 0.959 . S
H1022 C1036 0.961 . S
H1023 C1037 0.960 . S
H1024 C1037 0.961 . S
H1025 C1037 0.959 . S
H1026 C1040 0.929 . S
H1027 C1041 0.931 . S
H1028 C1043 0.930 . S
C1029 H1017 0.930 . S
C1029 C1030 1.399 . S
C1029 C1034 1.399 . S
C1030 C1029 1.399 . S
C1030 C1031 1.376 . S
C1031 H1018 0.930 . S
C1031 C1030 1.376 . S
C1031 C1032 1.388 . S
C1032 H1019 0.930 . S
C1032 C1031 1.388 . S
C1032 C1033 1.390 . S
C1033 C1032 1.390 . S
C1033 C1034 1.394 . S
C1033 C1039 1.465 . S
C1034 C1029 1.399 . S
C1034 C1033 1.394 . S
C1034 C1035 1.516 . S
C1035 C1034 1.516 . S
C1035 C1036 1.502 . S
C1035 C1037 1.561 . S
C1035 C1038 1.526 . S
C1036 H1020 0.959 . S
C1036 H1021 0.959 . S
C1036 H1022 0.961 . S
C1036 C1035 1.502 . S
C1037 H1023 0.960 . S
C1037 H1024 0.961 . S
C1037 H1025 0.959 . S
C1037 C1035 1.561 . S
C1038 C1035 1.526 . S
C1038 C1039 1.396 . S
C1038 C1043 1.390 . S
C1039 C1033 1.465 . S
C1039 C1038 1.396 . S
C1039 C1040 1.399 . S
C1040 H1026 0.929 . S
C1040 C1039 1.399 . S
C1040 C1041 1.385 . S
C1041 H1027 0.931 . S
C1041 C1040 1.385 . S
C1041 C1042 1.389 . S
C1042 C1041 1.389 . S
C1042 C1043 1.387 . S
C1043 H1028 0.930 . S
C1043 C1038 1.390 . S
C1043 C1042 1.387 . S
C421 C319 1.517 . S
C409 C16 1.637 . S
C448 C337 1.365 . S
C436 C55 1.383 . S
C463 C99 1.369 . S
C475 C361 1.281 . S
C502 C391 1.374 . S
C490 C138 1.472 . S
C529 C379 1.285 . S
C517 C172 1.373 . S
C544 C216 1.415 . S
C556 C332 1.258 . S
C571 C255 1.649 . S
C583 C352 1.504 . S
C598 C289 1.438 . S
C610 C357 1.328 . S
C625 C294 1.408 . S
C637 C373 1.245 . S
C652 C211 1.473 . S
C664 C328 1.392 . S
C691 C395 1.368 . S
C679 C133 1.388 . S
C718 C340 1.247 . S
C706 C60 1.440 . S
C733 C94 1.633 . S
C745 C358 1.511 . S
C760 C21 1.380 . S
C772 C316 1.290 . S
C799 C336 1.363 . S
C787 C250 1.423 . S
C826 C382 1.499 . S
C814 C177 1.661 . S
C853 C378 1.266 . S
C841 C1 1.494 1_556 S
C880 C331 1.313 . S
C868 C40 1.427 . S
C895 C79 1.468 . S
C907 C353 1.263 . S
C922 C118 1.477 . S
C934 C374 1.411 . S
C961 C315 1.351 . S
C949 C157 1.517 1_554 S
C976 C196 1.491 . S
C988 C349 1.427 . S
C1015 C370 1.361 . S
C1003 C235 1.531 . S
C1042 C394 1.407 . S
C1030 C274 1.469 . S
