# Generated by pormake.
# Topology csq, (4,8)-cn, num edge types: 1
# Building blocks:
#     Node 0, Type 0, BuildingBlock: AZAVOO_clean_linker_0, # of connection points: 4
#     Node 1, Type 0, BuildingBlock: AZAVOO_clean_linker_0, # of connection points: 4
#     Node 2, Type 0, BuildingBlock: AZAVOO_clean_linker_0, # of connection points: 4
#     Node 3, Type 0, BuildingBlock: AZAVOO_clean_linker_0, # of connection points: 4
#     Node 4, Type 0, BuildingBlock: AZAVOO_clean_linker_0, # of connection points: 4
#     Node 5, Type 0, BuildingBlock: AZAVOO_clean_linker_0, # of connection points: 4
#     Node 6, Type 1, BuildingBlock: TAGTUT_clean_sbu_3, # of connection points: 8
#     Node 7, Type 1, BuildingBlock: TAGTUT_clean_sbu_3, # of connection points: 8
#     Node 8, Type 1, BuildingBlock: TAGTUT_clean_sbu_3, # of connection points: 8
#     Edge 9, Type (0, 1), BuildingBlock: CIFDUS_clean_linker_0, # of connection points: 2
#     Edge 10, Type (0, 1), BuildingBlock: CIFDUS_clean_linker_0, # of connection points: 2
#     Edge 11, Type (0, 1), BuildingBlock: CIFDUS_clean_linker_0, # of connection points: 2
#     Edge 12, Type (0, 1), BuildingBlock: CIFDUS_clean_linker_0, # of connection points: 2
#     Edge 13, Type (0, 1), BuildingBlock: CIFDUS_clean_linker_0, # of connection points: 2
#     Edge 14, Type (0, 1), BuildingBlock: CIFDUS_clean_linker_0, # of connection points: 2
#     Edge 15, Type (0, 1), BuildingBlock: CIFDUS_clean_linker_0, # of connection points: 2
#     Edge 16, Type (0, 1), BuildingBlock: CIFDUS_clean_linker_0, # of connection points: 2
#     Edge 17, Type (0, 1), BuildingBlock: CIFDUS_clean_linker_0, # of connection points: 2
#     Edge 18, Type (0, 1), BuildingBlock: CIFDUS_clean_linker_0, # of connection points: 2
#     Edge 19, Type (0, 1), BuildingBlock: CIFDUS_clean_linker_0, # of connection points: 2
#     Edge 20, Type (0, 1), BuildingBlock: CIFDUS_clean_linker_0, # of connection points: 2
#     Edge 21, Type (0, 1), BuildingBlock: CIFDUS_clean_linker_0, # of connection points: 2
#     Edge 22, Type (0, 1), BuildingBlock: CIFDUS_clean_linker_0, # of connection points: 2
#     Edge 23, Type (0, 1), BuildingBlock: CIFDUS_clean_linker_0, # of connection points: 2
#     Edge 24, Type (0, 1), BuildingBlock: CIFDUS_clean_linker_0, # of connection points: 2
#     Edge 25, Type (0, 1), BuildingBlock: CIFDUS_clean_linker_0, # of connection points: 2
#     Edge 26, Type (0, 1), BuildingBlock: CIFDUS_clean_linker_0, # of connection points: 2
#     Edge 27, Type (0, 1), BuildingBlock: CIFDUS_clean_linker_0, # of connection points: 2
#     Edge 28, Type (0, 1), BuildingBlock: CIFDUS_clean_linker_0, # of connection points: 2
#     Edge 29, Type (0, 1), BuildingBlock: CIFDUS_clean_linker_0, # of connection points: 2
#     Edge 30, Type (0, 1), BuildingBlock: CIFDUS_clean_linker_0, # of connection points: 2
#     Edge 31, Type (0, 1), BuildingBlock: CIFDUS_clean_linker_0, # of connection points: 2
#     Edge 32, Type (0, 1), BuildingBlock: CIFDUS_clean_linker_0, # of connection points: 2
# Relax obj value: 0.141
# Max RMSD: 0.242
# Mean RMSD: 0.201
data_MOF--net-csq--node1-TAGTUT_clean_sbu_3--node2-AZAVOO_clean_linker_0--edge1-CIFDUS_clean_linker_0
_symmetry_space_group_name_H-M    P1
_symmetry_Int_Tables_number       1
_symmetry_cell_setting            triclinic
loop_
_symmetry_equiv_pos_as_xyz
'x, y, z'
_cell_length_a     51.788737
_cell_length_b     51.110747
_cell_length_c     20.915589
_cell_angle_alpha  92.880196
_cell_angle_beta   92.567614
_cell_angle_gamma 119.96165
loop_
_atom_site_label
_atom_site_type_symbol
_atom_site_fract_x
_atom_site_fract_y
_atom_site_fract_z
_atom_type_partial_charge
H0 H 0.14563 0.45986 0.51955 0.0
H1 H 0.41705 0.47655 0.14143 0.0
H2 H 0.16442 0.44175 0.15483 0.0
H3 H 0.12327 0.44055 0.20977 0.0
H4 H 0.18171 0.53364 0.28502 0.0
H5 H 0.2217 0.5351 0.22612 0.0
H6 H 0.18905 0.43659 0.28249 0.0
H7 H 0.16508 0.43702 0.38033 0.0
H8 H 0.2347 0.5298 0.43164 0.0
H9 H 0.25834 0.5291 0.33315 0.0
H10 H 0.24548 0.43551 0.31395 0.0
H11 H 0.27638 0.43107 0.39937 0.0
H12 H 0.34971 0.51943 0.36331 0.0
H13 H 0.31725 0.52499 0.28611 0.0
H14 H 0.27181 0.42547 0.16673 0.0
H15 H 0.31296 0.41529 0.15644 0.0
H16 H 0.37547 0.51165 0.16546 0.0
H17 H 0.33414 0.52147 0.17597 0.0
H18 H 0.25063 0.43556 0.03113 0.0
H19 H 0.28998 0.43514 0.97301 0.0
H20 H 0.34597 0.53171 0.02202 0.0
H21 H 0.30519 0.53206 0.07344 0.0
H22 H 0.20184 0.43301 0.04018 0.0
H23 H 0.15957 0.42221 0.96452 0.0
H24 H 0.18031 0.51499 0.99724 0.0
H25 H 0.22293 0.52586 0.07191 0.0
O26 O 0.15619 0.4598 0.48255 0.0
O27 O 0.19334 0.50692 0.50881 0.0
O28 O 0.36783 0.43073 0.14812 0.0
O29 O 0.4005 0.47995 0.14745 0.0
C30 C 0.22312 0.48528 0.18078 0.0
C31 C 0.23774 0.48345 0.23768 0.0
C32 C 0.26345 0.48109 0.23445 0.0
C33 C 0.27455 0.47992 0.17481 0.0
C34 C 0.2603 0.48199 0.11761 0.0
C35 C 0.23392 0.48368 0.12031 0.0
C36 C 0.19622 0.48835 0.18735 0.0
C37 C 0.16775 0.46239 0.17998 0.0
C38 C 0.14444 0.4616 0.21283 0.0
C39 C 0.14945 0.48658 0.25444 0.0
C40 C 0.17682 0.51385 0.25404 0.0
C41 C 0.19984 0.51481 0.21996 0.0
C42 C 0.22528 0.48287 0.30065 0.0
C43 C 0.19921 0.45689 0.31524 0.0
C44 C 0.18553 0.45723 0.37106 0.0
C45 C 0.19782 0.48353 0.41353 0.0
C46 C 0.22458 0.50922 0.39979 0.0
C47 C 0.23822 0.50885 0.34382 0.0
C48 C 0.27952 0.48034 0.29345 0.0
C49 C 0.2679 0.45427 0.32685 0.0
C50 C 0.28587 0.4516 0.3747 0.0
C51 C 0.31604 0.47446 0.38765 0.0
C52 C 0.32668 0.50135 0.35634 0.0
C53 C 0.30827 0.50451 0.31106 0.0
C54 C 0.3 0.47417 0.17175 0.0
C55 C 0.29444 0.44433 0.1669 0.0
C56 C 0.31797 0.43859 0.16097 0.0
C57 C 0.34751 0.46268 0.15994 0.0
C58 C 0.35301 0.49259 0.166 0.0
C59 C 0.32946 0.49827 0.17209 0.0
C60 C 0.275 0.48379 0.05724 0.0
C61 C 0.27057 0.45693 0.02531 0.0
C62 C 0.29379 0.45666 0.9941 0.0
C63 C 0.32227 0.48305 0.99618 0.0
C64 C 0.32487 0.51069 0.01964 0.0
C65 C 0.3012 0.51106 0.04877 0.0
C66 C 0.21548 0.48025 0.06126 0.0
C67 C 0.19823 0.4514 0.02846 0.0
C68 C 0.17397 0.44517 0.9857 0.0
C69 C 0.16661 0.46768 0.97609 0.0
C70 C 0.18554 0.49725 0.0045 0.0
C71 C 0.20994 0.50354 0.04664 0.0
C72 C 0.18246 0.48422 0.4713 0.0
C73 C 0.37248 0.45671 0.15169 0.0
H74 H 0.76939 0.24829 0.51839 0.0
H75 H 0.66418 0.02703 0.91198 0.0
H76 H 0.78033 0.28733 0.18621 0.0
H77 H 0.81523 0.329 0.26383 0.0
H78 H 0.88407 0.3074 0.22458 0.0
H79 H 0.84924 0.26659 0.14547 0.0
H80 H 0.73511 0.22629 0.24211 0.0
H81 H 0.74157 0.2354 0.35933 0.0
H82 H 0.82451 0.23424 0.35956 0.0
H83 H 0.81759 0.22481 0.24246 0.0
H84 H 0.69153 0.1679 0.12818 0.0
H85 H 0.65548 0.12291 0.17362 0.0
H86 H 0.72772 0.11869 0.27708 0.0
H87 H 0.76356 0.16081 0.2205 0.0
H88 H 0.6918 0.16573 0.00784 0.0
H89 H 0.65779 0.1151 0.95571 0.0
H90 H 0.72428 0.08939 0.99652 0.0
H91 H 0.7577 0.13982 0.05075 0.0
H92 H 0.72958 0.22806 0.95985 0.0
H93 H 0.69766 0.19904 0.8632 0.0
H94 H 0.74793 0.15282 0.84326 0.0
H95 H 0.78016 0.18257 0.93856 0.0
H96 H 0.77904 0.29047 0.05184 0.0
H97 H 0.80354 0.3319 0.98228 0.0
H98 H 0.85153 0.28998 0.90521 0.0
H99 H 0.82659 0.24853 0.9742 0.0
O100 O 0.76715 0.24443 0.47212 0.0
O101 O 0.8097 0.24378 0.46954 0.0
O102 O 0.64399 0.06178 0.91218 0.0
O103 O 0.67693 0.04696 0.93384 0.0
C104 C 0.78964 0.24478 0.1257 0.0
C105 C 0.77236 0.22034 0.16277 0.0
C106 C 0.75117 0.19184 0.13212 0.0
C107 C 0.7481 0.1873 0.06457 0.0
C108 C 0.76449 0.21188 0.02728 0.0
C109 C 0.78514 0.24078 0.05778 0.0
C110 C 0.81237 0.2742 0.15968 0.0
C111 C 0.80326 0.29234 0.19291 0.0
C112 C 0.8231 0.31574 0.23818 0.0
C113 C 0.85239 0.32132 0.25146 0.0
C114 C 0.86183 0.30402 0.21541 0.0
C115 C 0.84201 0.28077 0.16977 0.0
C116 C 0.7759 0.22494 0.23398 0.0
C117 C 0.75456 0.22785 0.26769 0.0
C118 C 0.75835 0.23313 0.33458 0.0
C119 C 0.7836 0.23562 0.36883 0.0
C120 C 0.80485 0.23249 0.3347 0.0
C121 C 0.80097 0.22713 0.26785 0.0
C122 C 0.73011 0.16718 0.16965 0.0
C123 C 0.69952 0.15679 0.15959 0.0
C124 C 0.67882 0.13123 0.18733 0.0
C125 C 0.68819 0.11667 0.23033 0.0
C126 C 0.71921 0.12836 0.24312 0.0
C127 C 0.73994 0.15299 0.21196 0.0
C128 C 0.72729 0.15649 0.03274 0.0
C129 C 0.69899 0.14914 0.00548 0.0
C130 C 0.67965 0.12025 0.9755 0.0
C131 C 0.68851 0.09836 0.971 0.0
C132 C 0.71683 0.10577 0.99878 0.0
C133 C 0.73596 0.13453 0.02976 0.0
C134 C 0.7568 0.20699 0.95683 0.0
C135 C 0.73487 0.21307 0.9323 0.0
C136 C 0.71632 0.19606 0.87765 0.0
C137 C 0.71959 0.17285 0.84702 0.0
C138 C 0.74466 0.17037 0.86583 0.0
C139 C 0.76331 0.18754 0.92023 0.0
C140 C 0.80126 0.26667 0.0184 0.0
C141 C 0.79505 0.29043 0.02026 0.0
C142 C 0.80899 0.314 0.98037 0.0
C143 C 0.82935 0.31416 0.93783 0.0
C144 C 0.83554 0.29027 0.93642 0.0
C145 C 0.82158 0.26674 0.97627 0.0
C146 C 0.7877 0.24151 0.43982 0.0
C147 C 0.66838 0.06798 0.93727 0.0
H148 H 0.57184 0.86013 0.71408 0.0
H149 H 0.55577 0.58756 0.00124 0.0
H150 H 0.5768 0.83835 0.05028 0.0
H151 H 0.56582 0.87352 0.99631 0.0
H152 H 0.47129 0.81048 -0.00025 0.0
H153 H 0.48249 0.7754 0.05293 0.0
H154 H 0.59135 0.80916 0.94334 0.0
H155 H 0.59234 0.83485 0.84696 0.0
H156 H 0.49565 0.7852 0.82601 0.0
H157 H 0.49504 0.75947 0.92202 0.0
H158 H 0.60361 0.75877 0.96708 0.0
H159 H 0.61657 0.7396 0.87127 0.0
H160 H 0.52291 0.68876 0.80295 0.0
H161 H 0.51064 0.70914 0.89709 0.0
H162 H 0.59312 0.72768 0.11344 0.0
H163 H 0.60388 0.68613 0.10772 0.0
H164 H 0.52245 0.63128 0.98527 0.0
H165 H 0.51175 0.67278 0.99224 0.0
H166 H 0.57135 0.75821 0.22956 0.0
H167 H 0.56871 0.72826 0.31866 0.0
H168 H 0.49656 0.6484 0.21146 0.0
H169 H 0.49742 0.67932 0.12608 0.0
H170 H 0.57446 0.81755 0.17858 0.0
H171 H 0.57016 0.83959 0.28087 0.0
H172 H 0.48257 0.76152 0.29273 0.0
H173 H 0.487 0.73965 0.18913 0.0
O174 O 0.57097 0.8492 0.75114 0.0
O175 O 0.52126 0.82302 0.74247 0.0
O176 O 0.59306 0.63296 0.06976 0.0
O177 O 0.55189 0.60422 0.00508 0.0
C178 C 0.53639 0.77876 0.05795 0.0
C179 C 0.54255 0.76823 0.00016 0.0
C180 C 0.54806 0.74404 0.99942 0.0
C181 C 0.54568 0.72881 0.05525 0.0
C182 C 0.53831 0.73836 0.11305 0.0
C183 C 0.53459 0.76413 0.11476 0.0
C184 C 0.53043 0.80426 0.05538 0.0
C185 C 0.55375 0.83283 0.04228 0.0
C186 C 0.54745 0.85258 0.01012 0.0
C187 C 0.51772 0.84435 0.99216 0.0
C188 C 0.49444 0.81738 0.01261 0.0
C189 C 0.50077 0.79748 0.04403 0.0
C190 C 0.54313 0.78259 0.93966 0.0
C191 C 0.57045 0.8037 0.91745 0.0
C192 C 0.57092 0.81839 0.86256 0.0
C193 C 0.54406 0.81214 0.82886 0.0
C194 C 0.51674 0.79057 0.85082 0.0
C195 C 0.51631 0.77584 0.9056 0.0
C196 C 0.55616 0.73457 0.93933 0.0
C197 C 0.58609 0.74391 0.93059 0.0
C198 C 0.59341 0.73311 0.87578 0.0
C199 C 0.57078 0.71238 0.82968 0.0
C200 C 0.54102 0.70497 0.83679 0.0
C201 C 0.53382 0.71611 0.89112 0.0
C202 C 0.55174 0.70327 0.05305 0.0
C203 C 0.57758 0.70661 0.0857 0.0
C204 C 0.5837 0.68287 0.08221 0.0
C205 C 0.56407 0.6554 0.0458 0.0
C206 C 0.53808 0.65213 0.01354 0.0
C207 C 0.53195 0.67583 0.01728 0.0
C208 C 0.53466 0.72107 0.17085 0.0
C209 C 0.55435 0.73445 0.22623 0.0
C210 C 0.55313 0.717 0.27682 0.0
C211 C 0.5328 0.68547 0.2725 0.0
C212 C 0.51234 0.67249 0.21775 0.0
C213 C 0.51302 0.69015 0.16814 0.0
C214 C 0.53099 0.77712 0.17632 0.0
C215 C 0.55431 0.80522 0.20316 0.0
C216 C 0.55197 0.81756 0.26205 0.0
C217 C 0.52617 0.8021 0.29532 0.0
C218 C 0.50271 0.77391 0.26822 0.0
C219 C 0.50518 0.76144 0.20919 0.0
C220 C 0.54462 0.82832 0.77148 0.0
C221 C 0.57064 0.63026 0.04115 0.0
H222 H 0.82772 0.67237 0.47162 0.0
H223 H 0.96153 0.58026 0.87463 0.0
H224 H 0.74997 0.53065 0.15848 0.0
H225 H 0.71008 0.52413 0.22565 0.0
H226 H 0.7343 0.61741 0.20847 0.0
H227 H 0.77414 0.62368 0.1407 0.0
H228 H 0.80307 0.58186 0.25985 0.0
H229 H 0.80928 0.61249 0.35913 0.0
H230 H 0.85496 0.69384 0.25959 0.0
H231 H 0.84824 0.66289 0.16031 0.0
H232 H 0.86061 0.5925 0.23194 0.0
H233 H 0.91044 0.61278 0.28436 0.0
H234 H 0.94873 0.66756 0.1267 0.0
H235 H 0.89797 0.64913 0.07622 0.0
H236 H 0.86697 0.553 0.1024 0.0
H237 H 0.90637 0.54656 0.05677 0.0
H238 H 0.91298 0.60601 0.9105 0.0
H239 H 0.87404 0.61276 0.95748 0.0
H240 H 0.80922 0.51172 0.00894 0.0
H241 H 0.82557 0.49433 0.91659 0.0
H242 H 0.83129 0.56838 0.8145 0.0
H243 H 0.81354 0.58441 0.90575 0.0
H244 H 0.75277 0.50448 0.01904 0.0
H245 H 0.70234 0.47834 0.96214 0.0
H246 H 0.70574 0.56414 0.95367 0.0
H247 H 0.75613 0.59021 0.00756 0.0
O248 O 0.82554 0.66069 0.4318 0.0
O249 O 0.84914 0.70184 0.37858 0.0
O250 O 0.9442 0.55487 0.97422 0.0
O251 O 0.9468 0.58341 0.89517 0.0
C252 C 0.79171 0.58224 0.11179 0.0
C253 C 0.82072 0.60152 0.14193 0.0
C254 C 0.84575 0.60277 0.11472 0.0
C255 C 0.84179 0.58478 0.05763 0.0
C256 C 0.81299 0.56664 0.02573 0.0
C257 C 0.78798 0.56562 0.05246 0.0
C258 C 0.7651 0.57768 0.14503 0.0
C259 C 0.74627 0.5495 0.1681 0.0
C260 C 0.72351 0.54583 0.2065 0.0
C261 C 0.71921 0.57034 0.22281 0.0
C262 C 0.73736 0.59824 0.19749 0.0
C263 C 0.75999 0.60182 0.15857 0.0
C264 C 0.82497 0.62014 0.20272 0.0
C265 C 0.81425 0.60628 0.25949 0.0
C266 C 0.81792 0.62385 0.31619 0.0
C267 C 0.83255 0.65562 0.31728 0.0
C268 C 0.84353 0.66943 0.26039 0.0
C269 C 0.83977 0.65182 0.20366 0.0
C270 C 0.8756 0.61942 0.15045 0.0
C271 C 0.87946 0.61005 0.21008 0.0
C272 C 0.9079 0.62151 0.23978 0.0
C273 C 0.93304 0.64173 0.20934 0.0
C274 C 0.92944 0.65227 0.15102 0.0
C275 C 0.90065 0.64158 0.12223 0.0
C276 C 0.86755 0.58318 0.03297 0.0
C277 C 0.87724 0.5649 0.06099 0.0
C278 C 0.89963 0.56116 0.03465 0.0
C279 C 0.91266 0.57558 0.97962 0.0
C280 C 0.90334 0.59447 0.95266 0.0
C281 C 0.88111 0.59837 0.97936 0.0
C282 C 0.81024 0.54936 0.96408 0.0
C283 C 0.81243 0.52311 0.96521 0.0
C284 C 0.82247 0.51365 0.91278 0.0
C285 C 0.83076 0.53046 0.85853 0.0
C286 C 0.82513 0.55468 0.855 0.0
C287 C 0.81473 0.56387 0.90718 0.0
C288 C 0.75813 0.54925 0.0169 0.0
C289 C 0.74268 0.51758 0.00429 0.0
C290 C 0.7139 0.50269 0.97291 0.0
C291 C 0.70035 0.5194 0.95524 0.0
C292 C 0.71576 0.55093 0.96822 0.0
C293 C 0.7445 0.56577 0.99839 0.0
C294 C 0.83631 0.67421 0.37757 0.0
C295 C 0.93554 0.57066 0.94982 0.0
H296 H 0.32461 0.8552 0.51418 0.0
H297 H 0.04792 0.60791 0.03081 0.0
H298 H 0.27266 0.86334 0.16031 0.0
H299 H 0.31972 0.89936 0.22188 0.0
H300 H 0.34729 0.8323 0.21358 0.0
H301 H 0.30069 0.79691 0.1505 0.0
H302 H 0.24962 0.83442 0.2783 0.0
H303 H 0.27961 0.85016 0.38141 0.0
H304 H 0.29354 0.77375 0.35554 0.0
H305 H 0.26339 0.75822 0.25253 0.0
H306 H 0.19388 0.7812 0.29507 0.0
H307 H 0.18127 0.756 0.39422 0.0
H308 H 0.17769 0.67717 0.29737 0.0
H309 H 0.19348 0.70398 0.2011 0.0
H310 H 0.14155 0.74748 0.16597 0.0
H311 H 0.0907 0.70415 0.14623 0.0
H312 H 0.12468 0.65492 0.03861 0.0
H313 H 0.17543 0.69812 0.05982 0.0
H314 H 0.15508 0.7656 0.01991 0.0
H315 H 0.12314 0.73181 0.92716 0.0
H316 H 0.19259 0.71222 0.88149 0.0
H317 H 0.22412 0.74565 0.97433 0.0
H318 H 0.22513 0.83719 0.03331 0.0
H319 H 0.25998 0.88014 0.97544 0.0
H320 H 0.3155 0.83982 0.95631 0.0
H321 H 0.28058 0.79691 0.01325 0.0
O322 O 0.31227 0.84816 0.47398 0.0
O323 O 0.31972 0.80921 0.45724 0.0
O324 O 0.0516 0.65091 0.09837 0.0
O325 O 0.06785 0.62512 0.04055 0.0
C326 C 0.25154 0.80275 0.14108 0.0
C327 C 0.23749 0.78667 0.1938 0.0
C328 C 0.20801 0.76199 0.1852 0.0
C329 C 0.19271 0.75296 0.1233 0.0
C330 C 0.20671 0.76944 0.07022 0.0
C331 C 0.23594 0.79473 0.07974 0.0
C332 C 0.28317 0.82745 0.15196 0.0
C333 C 0.28959 0.85708 0.16869 0.0
C334 C 0.3163 0.87744 0.20457 0.0
C335 C 0.33671 0.86826 0.22426 0.0
C336 C 0.33201 0.84003 0.19941 0.0
C337 C 0.3054 0.81978 0.16315 0.0
C338 C 0.25441 0.79524 0.25804 0.0
C339 C 0.25908 0.82107 0.29517 0.0
C340 C 0.27623 0.83001 0.35398 0.0
C341 C 0.28913 0.81332 0.37655 0.0
C342 C 0.28402 0.78717 0.33947 0.0
C343 C 0.26674 0.77819 0.28078 0.0
C344 C 0.1946 0.74443 0.24088 0.0
C345 C 0.19032 0.75845 0.29553 0.0
C346 C 0.18303 0.74392 0.35221 0.0
C347 C 0.17883 0.71458 0.35467 0.0
C348 C 0.18175 0.70012 0.29849 0.0
C349 C 0.18997 0.71506 0.24257 0.0
C350 C 0.16213 0.72601 0.114 0.0
C351 C 0.13797 0.72721 0.13865 0.0
C352 C 0.10896 0.70247 0.12708 0.0
C353 C 0.10361 0.6761 0.09055 0.0
C354 C 0.12798 0.67487 0.06677 0.0
C355 C 0.15699 0.69953 0.07874 0.0
C356 C 0.19181 0.75783 0.00436 0.0
C357 C 0.1638 0.75489 0.98846 0.0
C358 C 0.14551 0.73542 0.93578 0.0
C359 C 0.15517 0.71897 0.89769 0.0
C360 C 0.18453 0.72464 0.90967 0.0
C361 C 0.20268 0.74387 0.96267 0.0
C362 C 0.25043 0.81404 0.02735 0.0
C363 C 0.24405 0.83695 0.01382 0.0
C364 C 0.26396 0.86146 0.9812 0.0
C365 C 0.29038 0.8632 0.96242 0.0
C366 C 0.29522 0.83884 0.9707 0.0
C367 C 0.27525 0.8143 0.00268 0.0
C368 C 0.30795 0.82332 0.4383 0.0
C369 C 0.07276 0.65002 0.07693 0.0
H370 H 0.49828 0.32293 0.81185 0.0
H371 H 0.49663 0.07031 0.20241 0.0
H372 H 0.49063 0.30695 0.18575 0.0
H373 H 0.48693 0.34321 0.11993 0.0
H374 H 0.39865 0.27333 0.04336 0.0
H375 H 0.40216 0.2378 0.11149 0.0
H376 H 0.51353 0.2868 0.06554 0.0
H377 H 0.51579 0.30887 0.96322 0.0
H378 H 0.42405 0.23951 0.9095 0.0
H379 H 0.42231 0.2174 0.01153 0.0
H380 H 0.53546 0.24044 0.09194 0.0
H381 H 0.55497 0.22816 0.99681 0.0
H382 H 0.4644 0.16631 0.91813 0.0
H383 H 0.44529 0.17798 0.01354 0.0
H384 H 0.53291 0.21519 0.19753 0.0
H385 H 0.54822 0.17729 0.20852 0.0
H386 H 0.45582 0.10597 0.17447 0.0
H387 H 0.44092 0.14414 0.16273 0.0
H388 H 0.51464 0.23392 0.31161 0.0
H389 H 0.52293 0.2026 0.385 0.0
H390 H 0.42979 0.13382 0.35333 0.0
H391 H 0.42167 0.16518 0.27902 0.0
H392 H 0.49117 0.26991 0.32561 0.0
H393 H 0.47974 0.29773 0.40651 0.0
H394 H 0.38838 0.25379 0.32374 0.0
H395 H 0.40015 0.22585 0.24256 0.0
O396 O 0.49707 0.31353 0.85149 0.0
O397 O 0.44882 0.27968 0.82978 0.0
O398 O 0.53855 0.12318 0.21166 0.0
O399 O 0.49128 0.08573 0.19674 0.0
C400 C 0.45534 0.24619 0.16156 0.0
C401 C 0.46632 0.23765 0.10861 0.0
C402 C 0.47715 0.21761 0.11533 0.0
C403 C 0.47644 0.20527 0.17419 0.0
C404 C 0.46604 0.21411 0.22797 0.0
C405 C 0.4554 0.23463 0.22172 0.0
C406 C 0.44686 0.26962 0.15259 0.0
C407 C 0.46974 0.30004 0.15794 0.0
C408 C 0.46785 0.32053 0.11897 0.0
C409 C 0.44307 0.31078 0.07406 0.0
C410 C 0.41821 0.28162 0.07677 0.0
C411 C 0.42002 0.26125 0.11637 0.0
C412 C 0.46768 0.25073 0.04601 0.0
C413 C 0.49401 0.27638 0.03144 0.0
C414 C 0.49523 0.2889 0.973 0.0
C415 C 0.47006 0.27603 0.9283 0.0
C416 C 0.4438 0.25007 0.94295 0.0
C417 C 0.44272 0.2374 0.00112 0.0
C418 C 0.48906 0.20957 0.0597 0.0
C419 C 0.51998 0.22409 0.05417 0.0
C420 C 0.53102 0.21748 -0.00025 0.0
C421 C 0.51115 0.19683 0.94987 0.0
C422 C 0.48017 0.18291 0.95523 0.0
C423 C 0.46923 0.1891 0.00995 0.0
C424 C 0.48586 0.18233 0.17905 0.0
C425 C 0.51609 0.19135 0.1918 0.0
C426 C 0.52474 0.16967 0.19821 0.0
C427 C 0.50323 0.13857 0.19231 0.0
C428 C 0.47295 0.12969 0.17922 0.0
C429 C 0.46437 0.15141 0.17245 0.0
C430 C 0.46754 0.20187 0.29005 0.0
C431 C 0.49565 0.21286 0.32318 0.0
C432 C 0.50043 0.19484 0.3646 0.0
C433 C 0.47705 0.16573 0.37418 0.0
C434 C 0.4481 0.15628 0.34706 0.0
C435 C 0.4434 0.17425 0.30495 0.0
C436 C 0.44654 0.24597 0.27816 0.0
C437 C 0.46841 0.26538 0.32641 0.0
C438 C 0.46176 0.28121 0.37281 0.0
C439 C 0.43314 0.27806 0.37137 0.0
C440 C 0.41066 0.25682 0.32577 0.0
C441 C 0.41732 0.24087 0.27949 0.0
C442 C 0.47122 0.28975 0.86685 0.0
C443 C 0.51221 0.11547 0.20073 0.0
C444 C 0.0523 0.49265 0.53715 0.0
C445 C 0.02838 0.44293 0.75468 0.0
C446 C 0.94049 0.43105 0.71222 0.0
Mg447 Mg 0.03046 0.5346 0.47877 0.0
Mg448 Mg 0.00238 0.56885 0.56357 0.0
O449 O 0.99854 0.53153 0.53515 0.0
Mg450 Mg 0.00563 0.50907 0.60288 0.0
O451 O 0.01376 0.4857 0.6646 0.0
Mg452 Mg 0.99626 0.44544 0.61317 0.0
Mg453 Mg 0.0017 0.48564 0.74742 0.0
C454 C 0.95649 0.52669 0.65915 0.0
O455 O 0.0346 0.55196 0.67319 0.0
O456 O 0.01425 0.55801 0.40871 0.0
O457 O 0.02162 0.53412 0.77003 0.0
O458 O 0.06558 0.58202 0.52306 0.0
O459 O 0.99673 0.58208 0.47092 0.0
O460 O 0.04784 0.60111 0.59543 0.0
O461 O 0.97715 0.46502 0.53638 0.0
O462 O 0.99476 0.48594 0.44407 0.0
C463 C 0.97814 0.46285 0.47482 0.0
C464 C 0.00353 0.57574 0.41636 0.0
O465 O 0.96564 0.50747 0.65336 0.0
O466 O 0.01996 0.43335 0.69506 0.0
O467 O 0.96816 0.55154 0.63147 0.0
O468 O 0.95246 0.42418 0.6669 0.0
O469 O 0.02315 0.4624 0.78319 0.0
O470 O 0.95477 0.45634 0.74589 0.0
O471 O 0.04493 0.51255 0.55171 0.0
O472 O 0.03868 0.46651 0.55895 0.0
C473 C 0.06945 0.60282 0.56546 0.0
C474 C 0.03504 0.55612 0.73453 0.0
C475 C 0.48874 0.03152 0.52581 0.0
C476 C 0.5572 0.9978 0.42279 0.0
C477 C 0.5081 0.91614 0.51974 0.0
Mg478 Mg 0.4556 0.01483 0.65612 0.0
Mg479 Mg 0.48447 0.00015 0.78042 0.0
O480 O 0.47038 0.98886 0.69444 0.0
Mg481 Mg 0.49808 0.99024 0.6292 0.0
O482 O 0.5229 0.99204 0.55741 0.0
Mg483 Mg 0.49095 0.97038 0.48509 0.0
Mg484 Mg 0.55294 0.98189 0.56487 0.0
C485 C 0.50402 0.9516 0.74715 0.0
O486 O 0.54306 0.02506 0.68708 0.0
O487 O 0.42063 0.99859 0.73284 0.0
O488 O 0.57634 0.01258 0.65026 0.0
O489 O 0.48865 0.05778 0.72071 0.0
O490 O 0.44257 0.98915 0.81657 0.0
O491 O 0.51448 0.0475 0.79269 0.0
O492 O 0.45676 0.95685 0.56239 0.0
O493 O 0.42529 0.97293 0.58811 0.0
C494 C 0.43123 0.95515 0.55469 0.0
C495 C 0.42016 0.98957 0.78928 0.0
O496 O 0.50288 0.95355 0.68568 0.0
O497 O 0.52904 0.98825 0.41763 0.0
O498 O 0.50031 0.96893 0.78756 0.0
O499 O 0.49315 0.92665 0.49177 0.0
O500 O 0.57098 0.99732 0.47471 0.0
O501 O 0.5315 0.93318 0.55721 0.0
O502 O 0.49134 0.02663 0.58441 0.0
O503 O 0.48945 0.01439 0.48008 0.0
C504 C 0.50975 0.06645 0.76499 0.0
C505 C 0.56963 0.02872 0.6876 0.0
C506 C 0.55318 0.56064 0.72824 0.0
C507 C 0.46343 0.48754 0.85982 0.0
C508 C 0.48298 0.42003 0.79262 0.0
Mg509 Mg 0.57018 0.54712 0.59014 0.0
Mg510 Mg 0.51896 0.49417 0.48846 0.0
O511 O 0.54011 0.50298 0.56936 0.0
Mg512 Mg 0.51647 0.49537 0.64681 0.0
O513 O 0.4949 0.49 0.72555 0.0
Mg514 Mg 0.52613 0.49696 0.79426 0.0
Mg515 Mg 0.4578 0.4544 0.72675 0.0
C516 C 0.48069 0.43228 0.55397 0.0
O517 O 0.47762 0.49597 0.59427 0.0
O518 O 0.59364 0.54252 0.50114 0.0
O519 O 0.43814 0.45739 0.63572 0.0
O520 O 0.54637 0.56525 0.52466 0.0
O521 O 0.55719 0.50506 0.43409 0.0
O522 O 0.50564 0.52736 0.47104 0.0
O523 O 0.55303 0.49369 0.70813 0.0
O524 O 0.59165 0.52782 0.65765 0.0
C525 C 0.58108 0.5086 0.70029 0.0
C526 C 0.5847 0.52538 0.44819 0.0
O527 O 0.49158 0.44478 0.61111 0.0
O528 O 0.49225 0.49978 0.86455 0.0
O529 O 0.48626 0.44742 0.50401 0.0
O530 O 0.50525 0.44627 0.80994 0.0
O531 O 0.44673 0.46974 0.81161 0.0
O532 O 0.4619 0.41647 0.75279 0.0
O533 O 0.54239 0.54603 0.6734 0.0
O534 O 0.54808 0.54707 0.77979 0.0
C535 C 0.52289 0.55564 0.48648 0.0
C536 C 0.44946 0.47751 0.59514 0.0
H537 H 0.13573 0.52846 0.30637 0.0
H538 H 0.11698 0.43652 0.31917 0.0
H539 H 0.08623 0.43082 0.40732 0.0
H540 H 0.06534 0.45172 0.48258 0.0
H541 H 0.0853 0.54418 0.47507 0.0
H542 H 0.11557 0.55003 0.38459 0.0
C543 C 0.125 0.50717 0.32839 0.0
C544 C 0.12852 0.48286 0.30482 0.0
C545 C 0.10782 0.50419 0.38084 0.0
C546 C 0.11411 0.45542 0.33426 0.0
C547 C 0.09678 0.45221 0.38561 0.0
C548 C 0.07639 0.47329 0.46161 0.0
C549 C 0.07281 0.49741 0.48572 0.0
C550 C 0.09362 0.47646 0.40952 0.0
C551 C 0.08743 0.52512 0.4575 0.0
C552 C 0.10473 0.52847 0.40556 0.0
H553 H 0.63111 0.10225 0.25465 0.0
H554 H 0.6936 0.06984 0.27852 0.0
H555 H 0.65789 0.02887 0.33723 0.0
H556 H 0.60975 0.00396 0.38721 0.0
H557 H 0.54565 0.03278 0.34768 0.0
H558 H 0.58072 0.07223 0.28483 0.0
C559 C 0.63699 0.08586 0.26992 0.0
C560 C 0.66564 0.08994 0.26212 0.0
C561 C 0.61577 0.06123 0.30008 0.0
C562 C 0.67237 0.0684 0.28532 0.0
C563 C 0.65171 0.0445 0.3182 0.0
C564 C 0.60329 0.01843 0.36339 0.0
C565 C 0.57534 0.01568 0.37238 0.0
C566 C 0.6235 0.04098 0.32668 0.0
C567 C 0.56699 0.03433 0.34109 0.0
C568 C 0.58717 0.05715 0.3058 0.0
H569 H 0.48725 0.63196 0.31164 0.0
H570 H 0.58244 0.69422 0.3452 0.0
H571 H 0.58643 0.66159 0.42022 0.0
H572 H 0.56442 0.6135 0.46927 0.0
H573 H 0.47079 0.54795 0.42709 0.0
H574 H 0.46491 0.58348 0.36193 0.0
C575 C 0.50898 0.63845 0.3348 0.0
C576 C 0.53444 0.66596 0.32212 0.0
C577 C 0.51151 0.61877 0.37627 0.0
C578 C 0.56217 0.67384 0.35438 0.0
C579 C 0.56463 0.6549 0.39705 0.0
C580 C 0.54256 0.60708 0.4467 0.0
C581 C 0.51806 0.57808 0.45329 0.0
C582 C 0.53961 0.62713 0.40753 0.0
C583 C 0.49004 0.57009 0.42283 0.0
C584 C 0.4867 0.59039 0.38541 0.0
H585 H 0.95794 0.60954 0.17202 0.0
H586 H 0.96991 0.68188 0.30693 0.0
H587 H -0.0008 0.66995 0.38246 0.0
H588 H 0.00849 0.63065 0.41969 0.0
H589 H 0.99131 0.55452 0.28949 0.0
H590 H 0.97684 0.57595 0.20208 0.0
C591 C 0.9685 0.62366 0.21653 0.0
C592 C 0.96193 0.64638 0.23463 0.0
C593 C 0.98305 0.615 0.26143 0.0
C594 C 0.97509 0.66447 0.29235 0.0
C595 C 0.9912 0.65718 0.33592 0.0
C596 C 0.00194 0.61896 0.37191 0.0
C597 C -0.00024 0.59056 0.36121 0.0
C598 C 0.99317 0.63108 0.32275 0.0
C599 C 0.99243 0.57612 0.29886 0.0
C600 C 0.98423 0.58838 0.24902 0.0
H601 H 0.32792 0.8914 0.33402 0.0
H602 H 0.39511 0.88114 0.23991 0.0
H603 H 0.42979 0.90477 0.33642 0.0
H604 H 0.44085 0.92896 0.44718 0.0
H605 H 0.37278 0.93905 0.53853 0.0
H606 H 0.33838 0.9143 0.44348 0.0
C607 C 0.35033 0.89479 0.33402 0.0
C608 C 0.35912 0.88505 0.27946 0.0
C609 C 0.36982 0.90796 0.38949 0.0
C610 C 0.38792 0.88872 0.28117 0.0
C611 C 0.40767 0.90209 0.33638 0.0
C612 C 0.41849 0.92562 0.4465 0.0
C613 C 0.40965 0.93629 0.49982 0.0
C614 C 0.39881 0.91177 0.39094 0.0
C615 C 0.38037 0.9314 0.49806 0.0
C616 C 0.36066 0.91736 0.4436 0.0
H617 H 0.45173 0.29964 0.49698 0.0
H618 H 0.40573 0.30825 0.32922 0.0
H619 H 0.41116 0.35499 0.37869 0.0
H620 H 0.43827 0.39834 0.45844 0.0
H621 H 0.48659 0.39163 0.62418 0.0
H622 H 0.47062 0.33918 0.58738 0.0
C623 C 0.44229 0.31142 0.47203 0.0
C624 C 0.42886 0.30077 0.40909 0.0
C625 C 0.44635 0.33891 0.49995 0.0
C626 C 0.41614 0.31586 0.37773 0.0
C627 C 0.41954 0.34284 0.40569 0.0
C628 C 0.44467 0.38512 0.48728 0.0
C629 C 0.46419 0.39896 0.54285 0.0
C630 C 0.43602 0.35535 0.4651 0.0
C631 C 0.47179 0.3815 0.58078 0.0
C632 C 0.46286 0.35159 0.55947 0.0
H633 H 0.54384 0.86834 0.88252 0.0
H634 H 0.47583 0.86106 0.0045 0.0
H635 H 0.4634 0.89027 0.93357 0.0
H636 H 0.47337 0.91986 0.84136 0.0
H637 H 0.54178 0.9295 0.71874 0.0
H638 H 0.55203 0.89642 0.78434 0.0
C639 C 0.52639 0.87328 0.89354 0.0
C640 C 0.51089 0.86272 0.94907 0.0
C641 C 0.51924 0.89008 0.85214 0.0
C642 C 0.48801 0.86885 0.96219 0.0
C643 C 0.48089 0.88552 0.92164 0.0
C644 C 0.49038 0.9145 0.82846 0.0
C645 C 0.50702 0.92727 0.77575 0.0
C646 C 0.4965 0.8964 0.86701 0.0
C647 C 0.52861 0.91979 0.75892 0.0
C648 C 0.53465 0.90121 0.7969 0.0
H649 H 0.69227 0.50871 0.82834 0.0
H650 H 0.64545 0.50152 0.99722 0.0
H651 H 0.60109 0.49254 0.93047 0.0
H652 H 0.57941 0.49554 0.82516 0.0
H653 H 0.62973 0.50883 0.65897 0.0
H654 H 0.66884 0.50639 0.72285 0.0
C655 C 0.67189 0.50405 0.84998 0.0
C656 C 0.6716 0.50528 0.91683 0.0
C657 C 0.64742 0.5007 0.81174 0.0
C658 C 0.64565 0.5001 0.9454 0.0
C659 C 0.62055 0.49537 0.90735 0.0
C660 C 0.5987 0.49729 0.80301 0.0
C661 C 0.60205 0.50281 0.73798 0.0
C662 C 0.62168 0.49696 0.84063 0.0
C663 C 0.62705 0.50512 0.70939 0.0
C664 C 0.64936 0.50363 0.74575 0.0
H665 H 0.09937 0.67558 0.91974 0.0
H666 H 0.16311 0.703 0.77591 0.0
H667 H 0.13029 0.65566 0.70971 0.0
H668 H 0.08579 0.60432 0.6985 0.0
H669 H 0.02288 0.57721 0.84404 0.0
H670 H 0.05308 0.62662 0.90388 0.0
C671 C 0.10575 0.6716 0.87311 0.0
C672 C 0.13359 0.69283 0.85266 0.0
C673 C 0.0871 0.64418 0.83611 0.0
C674 C 0.14183 0.68694 0.79281 0.0
C675 C 0.12311 0.65987 0.75505 0.0
C676 C 0.07831 0.60956 0.74234 0.0
C677 C 0.05208 0.58718 0.7666 0.0
C678 C 0.09601 0.63799 0.77697 0.0
C679 C 0.04311 0.59397 0.82458 0.0
C680 C 0.06033 0.62224 0.8588 0.0
H681 H 0.5494 0.17589 0.95969 0.0
H682 H 0.49585 0.1923 0.82172 0.0
H683 H 0.49795 0.15701 0.74175 0.0
H684 H 0.50316 0.11238 0.72353 0.0
H685 H 0.55203 0.09239 0.86694 0.0
H686 H 0.56469 0.13886 0.93117 0.0
C687 C 0.53938 0.17274 0.91117 0.0
C688 C 0.52193 0.18593 0.89663 0.0
C689 C 0.53933 0.15126 0.86689 0.0
C690 C 0.50898 0.18184 0.83385 0.0
C691 C 0.51001 0.16154 0.78843 0.0
C692 C 0.51727 0.11858 0.76798 0.0
C693 C 0.52555 0.09836 0.79176 0.0
C694 C 0.52321 0.14453 0.8062 0.0
C695 C 0.54467 0.10718 0.84831 0.0
C696 C 0.55181 0.13371 0.88534 0.0
H697 H 0.37611 0.52712 0.95482 0.0
H698 H 0.33119 0.43472 0.00808 0.0
H699 H 0.3736 0.42985 0.98137 0.0
H700 H 0.42131 0.44972 0.93238 0.0
H701 H 0.46801 0.54242 0.88514 0.0
H702 H 0.42794 0.5498 0.92413 0.0
C703 C 0.37553 0.506 0.96186 0.0
C704 C 0.34939 0.481 0.98124 0.0
C705 C 0.40078 0.50355 0.94884 0.0
C706 C 0.34984 0.454 0.98982 0.0
C707 C 0.37451 0.45127 0.97583 0.0
C708 C 0.4233 0.47191 0.93343 0.0
C709 C 0.44768 0.4956 0.90681 0.0
C710 C 0.3998 0.47564 0.95403 0.0
C711 C 0.44978 0.52408 0.90689 0.0
C712 C 0.42653 0.52806 0.92788 0.0
H713 H 0.8414 0.31122 0.81282 0.0
H714 H 0.85277 0.37461 0.97104 0.0
H715 H 0.88362 0.4169 0.90875 0.0
H716 H 0.91283 0.43559 0.81616 0.0
H717 H 0.90482 0.37233 0.66088 0.0
H718 H 0.86676 0.33041 0.71467 0.0
C719 C 0.85056 0.3343 0.83357 0.0
C720 C 0.8451 0.33968 0.8969 0.0
C721 C 0.86892 0.35857 0.79804 0.0
C722 C 0.85649 0.36974 0.92243 0.0
C723 C 0.8743 0.39398 0.88694 0.0
C724 C 0.90239 0.41273 0.79323 0.0
C725 C 0.91219 0.40713 0.73505 0.0
C726 C 0.88141 0.38863 0.82555 0.0
C727 C 0.898 0.37734 0.7059 0.0
C728 C 0.87638 0.35329 0.73691 0.0
H729 H 0.87282 0.51353 0.87871 0.0
H730 H 0.82942 0.53665 0.72872 0.0
H731 H 0.86409 0.53671 0.65364 0.0
H732 H 0.90903 0.53386 0.63248 0.0
H733 H 0.9501 0.50716 0.77937 0.0
H734 H 0.91343 0.50398 0.8534 0.0
C735 C 0.87021 0.51771 0.8292 0.0
C736 C 0.84856 0.52547 0.81002 0.0
C737 C 0.88991 0.51716 0.78571 0.0
C738 C 0.84619 0.53132 0.74561 0.0
C739 C 0.86596 0.53122 0.70239 0.0
C740 C 0.90962 0.52695 0.68048 0.0
C741 C 0.93217 0.52082 0.70073 0.0
C742 C 0.88831 0.52486 0.7223 0.0
C743 C 0.93272 0.51167 0.76269 0.0
C744 C 0.91189 0.51007 0.80506 0.0
H745 H 0.29214 0.89299 0.85646 0.0
H746 H 0.3437 0.89749 0.02856 0.0
H747 H 0.38757 0.94205 0.99552 0.0
H748 H 0.41275 0.97479 0.91186 0.0
H749 H 0.36319 0.96838 0.73461 0.0
H750 H 0.31686 0.93045 0.7763 0.0
C751 C 0.31293 0.90415 0.8868 0.0
C752 C 0.31512 0.89194 0.94409 0.0
C753 C 0.33833 0.92938 0.86666 0.0
C754 C 0.34192 0.90641 0.98366 0.0
C755 C 0.36689 0.93187 0.96494 0.0
C756 C 0.39175 0.96558 0.88265 0.0
C757 C 0.39156 0.97397 0.81977 0.0
C758 C 0.36561 0.94287 0.90561 0.0
C759 C 0.36404 0.96222 0.78314 0.0
C760 C 0.33756 0.94024 0.80667 0.0
H761 H 0.49149 0.34337 0.00733 0.0
H762 H 0.39878 0.3181 0.01484 0.0
H763 H 0.40176 0.34536 0.92015 0.0
H764 H 0.43167 0.37922 0.83977 0.0
H765 H 0.52518 0.40736 0.83816 0.0
H766 H 0.52079 0.37559 0.92545 0.0
C767 C 0.47196 0.34408 0.98898 0.0
C768 C 0.44502 0.32892 0.01895 0.0
C769 C 0.47388 0.35989 0.93483 0.0
C770 C 0.41981 0.3295 0.99296 0.0
C771 C 0.42148 0.34505 0.93868 0.0
C772 C 0.45082 0.37758 0.85716 0.0
C773 C 0.47861 0.39517 0.83193 0.0
C774 C 0.44845 0.36045 0.90941 0.0
C775 C 0.5035 0.39366 0.85627 0.0
C776 C 0.50107 0.37584 0.90669 0.0
H777 H 0.14216 0.43943 0.85651 0.0
H778 H 0.12495 0.47698 0.02774 0.0
H779 H 0.07698 0.46642 0.97746 0.0
H780 H 0.04298 0.452 0.88224 0.0
H781 H 0.06123 0.41867 0.70631 0.0
H782 H 0.10499 0.42072 0.76166 0.0
C783 C 0.12768 0.44502 0.88259 0.0
C784 C 0.13717 0.45956 0.94497 0.0
C785 C 0.10028 0.43939 0.85283 0.0
C786 C 0.11829 0.46648 0.97899 0.0
C787 C 0.09082 0.46024 0.95053 0.0
C788 C 0.05619 0.44469 0.85601 0.0
C789 C 0.04914 0.43572 0.78998 0.0
C790 C 0.082 0.44748 0.88702 0.0
C791 C 0.06619 0.42575 0.75718 0.0
C792 C 0.09144 0.4273 0.78862 0.0
H793 H 0.66057 0.14554 0.86577 0.0
H794 H 0.72209 0.14333 0.73613 0.0
H795 H 0.68114 0.09767 0.67736 0.0
H796 H 0.62828 0.05792 0.66464 0.0
H797 H 0.56736 0.05901 0.79714 0.0
H798 H 0.60789 0.10558 0.85377 0.0
C799 C 0.66501 0.13539 0.82406 0.0
C800 C 0.6944 0.14794 0.80528 0.0
C801 C 0.64157 0.10875 0.79172 0.0
C802 C 0.69973 0.13413 0.75167 0.0
C803 C 0.67635 0.10796 0.71828 0.0
C804 C 0.62384 0.06811 0.70634 0.0
C805 C 0.59461 0.05507 0.72636 0.0
C806 C 0.64729 0.09485 0.73849 0.0
C807 C 0.58938 0.06884 0.78007 0.0
C808 C 0.6126 0.09543 0.81248 0.0
H809 H 0.60714 0.68966 0.85134 0.0
H810 H 0.54683 0.6915 0.70482 0.0
H811 H 0.54153 0.64571 0.64876 0.0
H812 H 0.54372 0.59891 0.65892 0.0
H813 H 0.60064 0.5963 0.81238 0.0
H814 H 0.61849 0.64919 0.84699 0.0
C815 C 0.59391 0.68102 0.8056 0.0
C816 C 0.57665 0.6934 0.78338 0.0
C817 C 0.58997 0.65412 0.77547 0.0
C818 C 0.55967 0.68179 0.72389 0.0
C819 C 0.55653 0.65555 0.69198 0.0
C820 C 0.56086 0.61038 0.69834 0.0
C821 C 0.57038 0.59384 0.73428 0.0
C822 C 0.5699 0.64039 0.71996 0.0
C823 C 0.59265 0.60868 0.78506 0.0
C824 C 0.60277 0.63883 0.80493 0.0
H825 H 0.4532 0.13105 0.47492 0.0
H826 H 0.51633 0.15031 0.3318 0.0
H827 H 0.52514 0.11023 0.36516 0.0
H828 H 0.51383 0.06861 0.43266 0.0
H829 H 0.45447 0.05165 0.58295 0.0
H830 H 0.4455 0.09201 0.55023 0.0
C831 C 0.46907 0.12655 0.45175 0.0
C832 C 0.484 0.14342 0.40076 0.0
C833 C 0.47469 0.10391 0.47253 0.0
C834 C 0.50464 0.1376 0.37114 0.0
C835 C 0.50964 0.11465 0.39011 0.0
C836 C 0.499 0.07385 0.45833 0.0
C837 C 0.48458 0.05705 0.50961 0.0
C838 C 0.4946 0.09749 0.44028 0.0
C839 C 0.46584 0.06433 0.54332 0.0
C840 C 0.46063 0.08733 0.52444 0.0
H841 H 0.36679 0.51707 0.459 0.0
H842 H 0.31346 0.42037 0.40829 0.0
H843 H 0.34996 0.41285 0.46872 0.0
H844 H 0.39803 0.43383 0.5328 0.0
H845 H 0.45495 0.53079 0.56569 0.0
H846 H 0.41687 0.53825 0.51034 0.0
C847 C 0.36323 0.49432 0.45928 0.0
C848 C 0.33711 0.46946 0.42864 0.0
C849 C 0.38537 0.49024 0.48948 0.0
C850 C 0.33276 0.44009 0.4326 0.0
C851 C 0.35394 0.43569 0.4662 0.0
C852 C 0.40207 0.45653 0.527 0.0
C853 C 0.42886 0.48173 0.55317 0.0
C854 C 0.38044 0.46064 0.49416 0.0
C855 C 0.43437 0.51112 0.54529 0.0
C856 C 0.41255 0.51537 0.51441 0.0
H857 H 0.91244 0.35999 0.25221 0.0
H858 H 0.8382 0.33463 0.36912 0.0
H859 H 0.8711 0.37412 0.45256 0.0
H860 H 0.92072 0.41839 0.48944 0.0
H861 H 0.99428 0.44276 0.37114 0.0
H862 H 0.96223 0.40047 0.29271 0.0
C863 C 0.90345 0.36267 0.29632 0.0
C864 C 0.87274 0.34453 0.30366 0.0
C865 C 0.92252 0.3852 0.3444 0.0
C866 C 0.86159 0.34874 0.36117 0.0
C867 C 0.88046 0.37115 0.40934 0.0
C868 C 0.92977 0.41392 0.44721 0.0
C869 C 0.95973 0.43371 0.43587 0.0
C870 C 0.91093 0.38986 0.40115 0.0
C871 C 0.97119 0.42791 0.38063 0.0
C872 C 0.95286 0.40383 0.33558 0.0
H873 H 0.47822 0.80623 0.32953 0.0
H874 H 0.56818 0.83111 0.39647 0.0
H875 H 0.56792 0.86457 0.48364 0.0
H876 H 0.54571 0.89352 0.52721 0.0
H877 H 0.4567 0.87052 0.4563 0.0
H878 H 0.45256 0.82875 0.38631 0.0
C879 C 0.49741 0.81825 0.36436 0.0
C880 C 0.52341 0.81672 0.35575 0.0
C881 C 0.49734 0.83796 0.41358 0.0
C882 C 0.54815 0.83249 0.40124 0.0
C883 C 0.54799 0.85158 0.45117 0.0
C884 C 0.525 0.87875 0.49815 0.0
C885 C 0.50182 0.88557 0.49603 0.0
C886 C 0.52323 0.85556 0.45593 0.0
C887 C 0.47508 0.86605 0.45821 0.0
C888 C 0.47277 0.84229 0.41771 0.0
H889 H 0.6622 0.52354 0.22481 0.0
H890 H 0.7263 0.60976 0.32419 0.0
H891 H 0.69058 0.60347 0.40296 0.0
H892 H 0.64143 0.573 0.44484 0.0
H893 H 0.5773 0.48686 0.34464 0.0
H894 H 0.61286 0.49346 0.26567 0.0
C895 C 0.66836 0.5409 0.26384 0.0
C896 C 0.69685 0.56707 0.26857 0.0
C897 C 0.64778 0.53708 0.30913 0.0
C898 C 0.70437 0.58957 0.31894 0.0
C899 C 0.68404 0.58589 0.36431 0.0
C900 C 0.63525 0.5556 0.40591 0.0
C901 C 0.60672 0.52942 0.40102 0.0
C902 C 0.65573 0.55965 0.3601 0.0
C903 C 0.59906 0.50727 0.34973 0.0
C904 C 0.61939 0.511 0.30443 0.0
H905 H 0.14442 0.71906 0.44561 0.0
H906 H 0.19353 0.67362 0.39942 0.0
H907 H 0.16835 0.63766 0.47849 0.0
H908 H 0.12427 0.6128 0.54018 0.0
H909 H 0.0762 0.65895 0.58735 0.0
H910 H 0.11093 0.70234 0.53234 0.0
C911 C 0.15065 0.70214 0.45416 0.0
C912 C 0.16977 0.69821 0.41392 0.0
C913 C 0.13641 0.68172 0.50041 0.0
C914 C 0.17762 0.67619 0.42699 0.0
C915 C 0.16352 0.65579 0.47286 0.0
C916 C 0.12227 0.63296 0.54089 0.0
C917 C 0.09712 0.63227 0.56523 0.0
C918 C 0.14155 0.65727 0.50687 0.0
C919 C 0.09511 0.65872 0.56777 0.0
C920 C 0.11468 0.68337 0.5353 0.0
loop_
_geom_bond_atom_site_label_1
_geom_bond_atom_site_label_2
_geom_bond_distance
_geom_bond_site_symmetry_2
_ccdc_geom_bond_type
H0 O26 0.856 . S
H1 O29 0.854 . S
H2 C37 0.930 . S
H3 C38 0.930 . S
H4 C40 0.930 . S
H5 C41 0.930 . S
H6 C43 0.931 . S
H7 C44 0.930 . S
H8 C46 0.930 . S
H9 C47 0.929 . S
H10 C49 0.930 . S
H11 C50 0.931 . S
H12 C52 0.930 . S
H13 C53 0.929 . S
H14 C55 0.931 . S
H15 C56 0.930 . S
H16 C58 0.930 . S
H17 C59 0.932 . S
H18 C61 0.930 . S
H19 C62 0.929 1_556 S
H20 C64 0.931 1_556 S
H21 C65 0.930 . S
H22 C67 0.929 . S
H23 C68 0.931 . S
H24 C70 0.930 . S
H25 C71 0.929 . S
O26 H0 0.856 . S
O26 C72 1.300 . S
O27 C72 1.209 . S
O28 C73 1.199 . S
O29 H1 0.854 . S
O29 C73 1.297 . S
C30 C31 1.404 . S
C30 C35 1.397 . S
C30 C36 1.492 . S
C31 C30 1.404 . S
C31 C32 1.396 . S
C31 C42 1.492 . S
C32 C31 1.396 . S
C32 C33 1.397 . S
C32 C48 1.509 . S
C33 C32 1.397 . S
C33 C34 1.412 . S
C33 C54 1.485 . S
C34 C33 1.412 . S
C34 C35 1.388 . S
C34 C60 1.490 . S
C35 C30 1.397 . S
C35 C34 1.388 . S
C35 C66 1.519 . S
C36 C30 1.492 . S
C36 C37 1.363 . S
C36 C41 1.390 . S
C37 H2 0.930 . S
C37 C36 1.363 . S
C37 C38 1.372 . S
C38 H3 0.930 . S
C38 C37 1.372 . S
C38 C39 1.383 . S
C39 C38 1.383 . S
C39 C40 1.395 . S
C40 H4 0.930 . S
C40 C39 1.395 . S
C40 C41 1.362 . S
C41 H5 0.930 . S
C41 C36 1.390 . S
C41 C40 1.362 . S
C42 C31 1.492 . S
C42 C43 1.377 . S
C42 C47 1.397 . S
C43 H6 0.931 . S
C43 C42 1.377 . S
C43 C44 1.376 . S
C44 H7 0.930 . S
C44 C43 1.376 . S
C44 C45 1.376 . S
C45 C44 1.376 . S
C45 C46 1.378 . S
C45 C72 1.486 . S
C46 H8 0.930 . S
C46 C45 1.378 . S
C46 C47 1.376 . S
C47 H9 0.929 . S
C47 C42 1.397 . S
C47 C46 1.376 . S
C48 C32 1.509 . S
C48 C49 1.391 . S
C48 C53 1.386 . S
C49 H10 0.930 . S
C49 C48 1.391 . S
C49 C50 1.375 . S
C50 H11 0.931 . S
C50 C49 1.375 . S
C50 C51 1.375 . S
C51 C50 1.375 . S
C51 C52 1.361 . S
C52 H12 0.930 . S
C52 C51 1.361 . S
C52 C53 1.399 . S
C53 H13 0.929 . S
C53 C48 1.386 . S
C53 C52 1.399 . S
C54 C33 1.485 . S
C54 C55 1.394 . S
C54 C59 1.360 . S
C55 H14 0.931 . S
C55 C54 1.394 . S
C55 C56 1.372 . S
C56 H15 0.930 . S
C56 C55 1.372 . S
C56 C57 1.397 . S
C57 C56 1.397 . S
C57 C58 1.390 . S
C57 C73 1.476 . S
C58 H16 0.930 . S
C58 C57 1.390 . S
C58 C59 1.366 . S
C59 H17 0.932 . S
C59 C54 1.360 . S
C59 C58 1.366 . S
C60 C34 1.490 . S
C60 C61 1.380 . S
C60 C65 1.386 . S
C61 H18 0.930 . S
C61 C60 1.380 . S
C61 C62 1.381 . S
C62 H19 0.929 1_554 S
C62 C61 1.381 . S
C62 C63 1.371 1_554 S
C63 C62 1.371 1_556 S
C63 C64 1.380 1_556 S
C64 H20 0.931 1_554 S
C64 C63 1.380 1_554 S
C64 C65 1.387 . S
C65 H21 0.930 . S
C65 C60 1.386 . S
C65 C64 1.387 . S
C66 C35 1.519 . S
C66 C67 1.377 . S
C66 C71 1.361 . S
C67 H22 0.929 . S
C67 C66 1.377 . S
C67 C68 1.386 . S
C68 H23 0.931 . S
C68 C67 1.386 . S
C68 C69 1.363 . S
C69 C68 1.363 . S
C69 C70 1.385 . S
C70 H24 0.930 . S
C70 C69 1.385 . S
C70 C71 1.396 . S
C71 H25 0.929 . S
C71 C66 1.361 . S
C71 C70 1.396 . S
C72 O26 1.300 . S
C72 O27 1.209 . S
C72 C45 1.486 . S
C73 O28 1.199 . S
C73 O29 1.297 . S
C73 C57 1.476 . S
H74 O100 0.856 . S
H75 O103 0.854 . S
H76 C111 0.930 . S
H77 C112 0.930 . S
H78 C114 0.930 . S
H79 C115 0.930 . S
H80 C117 0.931 . S
H81 C118 0.930 . S
H82 C120 0.930 . S
H83 C121 0.929 . S
H84 C123 0.930 . S
H85 C124 0.931 . S
H86 C126 0.930 . S
H87 C127 0.929 . S
H88 C129 0.931 . S
H89 C130 0.930 . S
H90 C132 0.930 . S
H91 C133 0.932 . S
H92 C135 0.930 . S
H93 C136 0.929 . S
H94 C138 0.931 . S
H95 C139 0.930 . S
H96 C141 0.929 . S
H97 C142 0.931 . S
H98 C144 0.930 . S
H99 C145 0.929 . S
O100 H74 0.856 . S
O100 C146 1.300 . S
O101 C146 1.209 . S
O102 C147 1.199 . S
O103 H75 0.854 . S
O103 C147 1.297 . S
C104 C105 1.404 . S
C104 C109 1.397 . S
C104 C110 1.492 . S
C105 C104 1.404 . S
C105 C106 1.396 . S
C105 C116 1.492 . S
C106 C105 1.396 . S
C106 C107 1.397 . S
C106 C122 1.509 . S
C107 C106 1.397 . S
C107 C108 1.412 . S
C107 C128 1.485 . S
C108 C107 1.412 . S
C108 C109 1.388 . S
C108 C134 1.490 . S
C109 C104 1.397 . S
C109 C108 1.388 . S
C109 C140 1.519 . S
C110 C104 1.492 . S
C110 C111 1.363 . S
C110 C115 1.390 . S
C111 H76 0.930 . S
C111 C110 1.363 . S
C111 C112 1.372 . S
C112 H77 0.930 . S
C112 C111 1.372 . S
C112 C113 1.383 . S
C113 C112 1.383 . S
C113 C114 1.395 . S
C114 H78 0.930 . S
C114 C113 1.395 . S
C114 C115 1.362 . S
C115 H79 0.930 . S
C115 C110 1.390 . S
C115 C114 1.362 . S
C116 C105 1.492 . S
C116 C117 1.377 . S
C116 C121 1.397 . S
C117 H80 0.931 . S
C117 C116 1.377 . S
C117 C118 1.376 . S
C118 H81 0.930 . S
C118 C117 1.376 . S
C118 C119 1.376 . S
C119 C118 1.376 . S
C119 C120 1.378 . S
C119 C146 1.486 . S
C120 H82 0.930 . S
C120 C119 1.378 . S
C120 C121 1.376 . S
C121 H83 0.929 . S
C121 C116 1.397 . S
C121 C120 1.376 . S
C122 C106 1.509 . S
C122 C123 1.391 . S
C122 C127 1.386 . S
C123 H84 0.930 . S
C123 C122 1.391 . S
C123 C124 1.375 . S
C124 H85 0.931 . S
C124 C123 1.375 . S
C124 C125 1.375 . S
C125 C124 1.375 . S
C125 C126 1.361 . S
C126 H86 0.930 . S
C126 C125 1.361 . S
C126 C127 1.399 . S
C127 H87 0.929 . S
C127 C122 1.386 . S
C127 C126 1.399 . S
C128 C107 1.485 . S
C128 C129 1.394 . S
C128 C133 1.360 . S
C129 H88 0.931 . S
C129 C128 1.394 . S
C129 C130 1.372 . S
C130 H89 0.930 . S
C130 C129 1.372 . S
C130 C131 1.397 . S
C131 C130 1.397 . S
C131 C132 1.390 . S
C131 C147 1.476 . S
C132 H90 0.930 . S
C132 C131 1.390 . S
C132 C133 1.366 . S
C133 H91 0.932 . S
C133 C128 1.360 . S
C133 C132 1.366 . S
C134 C108 1.490 . S
C134 C135 1.380 1_554 S
C134 C139 1.386 1_554 S
C135 H92 0.930 . S
C135 C134 1.380 1_556 S
C135 C136 1.381 . S
C136 H93 0.929 . S
C136 C135 1.381 . S
C136 C137 1.371 . S
C137 C136 1.371 . S
C137 C138 1.380 . S
C138 H94 0.931 . S
C138 C137 1.380 . S
C138 C139 1.387 . S
C139 H95 0.930 . S
C139 C134 1.386 1_556 S
C139 C138 1.387 . S
C140 C109 1.519 . S
C140 C141 1.377 . S
C140 C145 1.361 . S
C141 H96 0.929 . S
C141 C140 1.377 . S
C141 C142 1.386 1_554 S
C142 H97 0.931 . S
C142 C141 1.386 1_556 S
C142 C143 1.363 . S
C143 C142 1.363 . S
C143 C144 1.385 . S
C144 H98 0.930 . S
C144 C143 1.385 . S
C144 C145 1.396 1_556 S
C145 H99 0.929 . S
C145 C140 1.361 . S
C145 C144 1.396 1_554 S
C146 O100 1.300 . S
C146 O101 1.209 . S
C146 C119 1.486 . S
C147 O102 1.199 . S
C147 O103 1.297 . S
C147 C131 1.476 . S
H148 O174 0.856 . S
H149 O177 0.854 . S
H150 C185 0.930 . S
H151 C186 0.930 . S
H152 C188 0.930 . S
H153 C189 0.930 . S
H154 C191 0.931 . S
H155 C192 0.930 . S
H156 C194 0.930 . S
H157 C195 0.929 . S
H158 C197 0.930 . S
H159 C198 0.931 . S
H160 C200 0.930 . S
H161 C201 0.929 . S
H162 C203 0.931 . S
H163 C204 0.930 . S
H164 C206 0.930 . S
H165 C207 0.932 1_556 S
H166 C209 0.930 . S
H167 C210 0.929 . S
H168 C212 0.931 . S
H169 C213 0.930 . S
H170 C215 0.929 . S
H171 C216 0.931 . S
H172 C218 0.930 . S
H173 C219 0.929 . S
O174 H148 0.856 . S
O174 C220 1.300 . S
O175 C220 1.209 . S
O176 C221 1.199 . S
O177 H149 0.854 . S
O177 C221 1.297 . S
C178 C179 1.404 . S
C178 C183 1.397 1_556 S
C178 C184 1.492 . S
C179 C178 1.404 . S
C179 C180 1.396 . S
C179 C190 1.492 . S
C180 C179 1.396 . S
C180 C181 1.397 1_556 S
C180 C196 1.509 . S
C181 C180 1.397 1_554 S
C181 C182 1.412 . S
C181 C202 1.485 . S
C182 C181 1.412 . S
C182 C183 1.388 . S
C182 C208 1.490 . S
C183 C178 1.397 1_554 S
C183 C182 1.388 . S
C183 C214 1.519 . S
C184 C178 1.492 . S
C184 C185 1.363 . S
C184 C189 1.390 . S
C185 H150 0.930 . S
C185 C184 1.363 . S
C185 C186 1.372 . S
C186 H151 0.930 . S
C186 C185 1.372 . S
C186 C187 1.383 . S
C187 C186 1.383 . S
C187 C188 1.395 . S
C188 H152 0.930 . S
C188 C187 1.395 . S
C188 C189 1.362 . S
C189 H153 0.930 . S
C189 C184 1.390 . S
C189 C188 1.362 . S
C190 C179 1.492 . S
C190 C191 1.377 . S
C190 C195 1.397 . S
C191 H154 0.931 . S
C191 C190 1.377 . S
C191 C192 1.376 . S
C192 H155 0.930 . S
C192 C191 1.376 . S
C192 C193 1.376 . S
C193 C192 1.376 . S
C193 C194 1.378 . S
C193 C220 1.486 . S
C194 H156 0.930 . S
C194 C193 1.378 . S
C194 C195 1.376 . S
C195 H157 0.929 . S
C195 C190 1.397 . S
C195 C194 1.376 . S
C196 C180 1.509 . S
C196 C197 1.391 . S
C196 C201 1.386 . S
C197 H158 0.930 . S
C197 C196 1.391 . S
C197 C198 1.375 . S
C198 H159 0.931 . S
C198 C197 1.375 . S
C198 C199 1.375 . S
C199 C198 1.375 . S
C199 C200 1.361 . S
C200 H160 0.930 . S
C200 C199 1.361 . S
C200 C201 1.399 . S
C201 H161 0.929 . S
C201 C196 1.386 . S
C201 C200 1.399 . S
C202 C181 1.485 . S
C202 C203 1.394 . S
C202 C207 1.360 . S
C203 H162 0.931 . S
C203 C202 1.394 . S
C203 C204 1.372 . S
C204 H163 0.930 . S
C204 C203 1.372 . S
C204 C205 1.397 . S
C205 C204 1.397 . S
C205 C206 1.390 . S
C205 C221 1.476 . S
C206 H164 0.930 . S
C206 C205 1.390 . S
C206 C207 1.366 . S
C207 H165 0.932 1_554 S
C207 C202 1.360 . S
C207 C206 1.366 . S
C208 C182 1.490 . S
C208 C209 1.380 . S
C208 C213 1.386 . S
C209 H166 0.930 . S
C209 C208 1.380 . S
C209 C210 1.381 . S
C210 H167 0.929 . S
C210 C209 1.381 . S
C210 C211 1.371 . S
C211 C210 1.371 . S
C211 C212 1.380 . S
C212 H168 0.931 . S
C212 C211 1.380 . S
C212 C213 1.387 . S
C213 H169 0.930 . S
C213 C208 1.386 . S
C213 C212 1.387 . S
C214 C183 1.519 . S
C214 C215 1.377 . S
C214 C219 1.361 . S
C215 H170 0.929 . S
C215 C214 1.377 . S
C215 C216 1.386 . S
C216 H171 0.931 . S
C216 C215 1.386 . S
C216 C217 1.363 . S
C217 C216 1.363 . S
C217 C218 1.385 . S
C218 H172 0.930 . S
C218 C217 1.385 . S
C218 C219 1.396 . S
C219 H173 0.929 . S
C219 C214 1.361 . S
C219 C218 1.396 . S
C220 O174 1.300 . S
C220 O175 1.209 . S
C220 C193 1.486 . S
C221 O176 1.199 . S
C221 O177 1.297 . S
C221 C205 1.476 . S
H222 O248 0.856 . S
H223 O251 0.854 . S
H224 C259 0.930 . S
H225 C260 0.930 . S
H226 C262 0.930 . S
H227 C263 0.930 . S
H228 C265 0.931 . S
H229 C266 0.930 . S
H230 C268 0.930 . S
H231 C269 0.929 . S
H232 C271 0.930 . S
H233 C272 0.931 . S
H234 C274 0.930 . S
H235 C275 0.929 . S
H236 C277 0.931 1_556 S
H237 C278 0.930 . S
H238 C280 0.930 . S
H239 C281 0.932 . S
H240 C283 0.930 . S
H241 C284 0.929 . S
H242 C286 0.931 . S
H243 C287 0.930 . S
H244 C289 0.929 . S
H245 C290 0.931 . S
H246 C292 0.930 . S
H247 C293 0.929 . S
O248 H222 0.856 . S
O248 C294 1.300 . S
O249 C294 1.209 . S
O250 C295 1.199 . S
O251 H223 0.854 . S
O251 C295 1.297 1_554 S
C252 C253 1.404 . S
C252 C257 1.397 . S
C252 C258 1.492 . S
C253 C252 1.404 . S
C253 C254 1.396 . S
C253 C264 1.492 . S
C254 C253 1.396 . S
C254 C255 1.397 . S
C254 C270 1.509 . S
C255 C254 1.397 . S
C255 C256 1.412 . S
C255 C276 1.485 . S
C256 C255 1.412 . S
C256 C257 1.388 . S
C256 C282 1.490 1_554 S
C257 C252 1.397 . S
C257 C256 1.388 . S
C257 C288 1.519 1_554 S
C258 C252 1.492 . S
C258 C259 1.363 . S
C258 C263 1.390 . S
C259 H224 0.930 . S
C259 C258 1.363 . S
C259 C260 1.372 . S
C260 H225 0.930 . S
C260 C259 1.372 . S
C260 C261 1.383 . S
C261 C260 1.383 . S
C261 C262 1.395 . S
C262 H226 0.930 . S
C262 C261 1.395 . S
C262 C263 1.362 . S
C263 H227 0.930 . S
C263 C258 1.390 . S
C263 C262 1.362 . S
C264 C253 1.492 . S
C264 C265 1.377 . S
C264 C269 1.397 . S
C265 H228 0.931 . S
C265 C264 1.377 . S
C265 C266 1.376 . S
C266 H229 0.930 . S
C266 C265 1.376 . S
C266 C267 1.376 . S
C267 C266 1.376 . S
C267 C268 1.378 . S
C267 C294 1.486 . S
C268 H230 0.930 . S
C268 C267 1.378 . S
C268 C269 1.376 . S
C269 H231 0.929 . S
C269 C264 1.397 . S
C269 C268 1.376 . S
C270 C254 1.509 . S
C270 C271 1.391 . S
C270 C275 1.386 . S
C271 H232 0.930 . S
C271 C270 1.391 . S
C271 C272 1.375 . S
C272 H233 0.931 . S
C272 C271 1.375 . S
C272 C273 1.375 . S
C273 C272 1.375 . S
C273 C274 1.361 . S
C274 H234 0.930 . S
C274 C273 1.361 . S
C274 C275 1.399 . S
C275 H235 0.929 . S
C275 C270 1.386 . S
C275 C274 1.399 . S
C276 C255 1.485 . S
C276 C277 1.394 . S
C276 C281 1.360 . S
C277 H236 0.931 1_554 S
C277 C276 1.394 . S
C277 C278 1.372 1_554 S
C278 H237 0.930 . S
C278 C277 1.372 1_556 S
C278 C279 1.397 1_556 S
C279 C278 1.397 1_554 S
C279 C280 1.390 . S
C279 C295 1.476 1_554 S
C280 H238 0.930 . S
C280 C279 1.390 . S
C280 C281 1.366 . S
C281 H239 0.932 . S
C281 C276 1.360 . S
C281 C280 1.366 . S
C282 C256 1.490 1_556 S
C282 C283 1.380 . S
C282 C287 1.386 . S
C283 H240 0.930 . S
C283 C282 1.380 . S
C283 C284 1.381 . S
C284 H241 0.929 . S
C284 C283 1.381 . S
C284 C285 1.371 . S
C285 C284 1.371 . S
C285 C286 1.380 . S
C286 H242 0.931 . S
C286 C285 1.380 . S
C286 C287 1.387 . S
C287 H243 0.930 . S
C287 C282 1.386 . S
C287 C286 1.387 . S
C288 C257 1.519 1_556 S
C288 C289 1.377 . S
C288 C293 1.361 . S
C289 H244 0.929 . S
C289 C288 1.377 . S
C289 C290 1.386 . S
C290 H245 0.931 . S
C290 C289 1.386 . S
C290 C291 1.363 . S
C291 C290 1.363 . S
C291 C292 1.385 . S
C292 H246 0.930 . S
C292 C291 1.385 . S
C292 C293 1.396 . S
C293 H247 0.929 . S
C293 C288 1.361 . S
C293 C292 1.396 . S
C294 O248 1.300 . S
C294 O249 1.209 . S
C294 C267 1.486 . S
C295 O250 1.199 . S
C295 O251 1.297 1_556 S
C295 C279 1.476 1_556 S
H296 O322 0.856 . S
H297 O325 0.854 . S
H298 C333 0.930 . S
H299 C334 0.930 . S
H300 C336 0.930 . S
H301 C337 0.930 . S
H302 C339 0.931 . S
H303 C340 0.930 . S
H304 C342 0.930 . S
H305 C343 0.929 . S
H306 C345 0.930 . S
H307 C346 0.931 . S
H308 C348 0.930 . S
H309 C349 0.929 . S
H310 C351 0.931 . S
H311 C352 0.930 . S
H312 C354 0.930 . S
H313 C355 0.932 . S
H314 C357 0.930 1_554 S
H315 C358 0.929 . S
H316 C360 0.931 . S
H317 C361 0.930 1_554 S
H318 C363 0.929 . S
H319 C364 0.931 . S
H320 C366 0.930 . S
H321 C367 0.929 . S
O322 H296 0.856 . S
O322 C368 1.300 . S
O323 C368 1.209 . S
O324 C369 1.199 . S
O325 H297 0.854 . S
O325 C369 1.297 . S
C326 C327 1.404 . S
C326 C331 1.397 . S
C326 C332 1.492 . S
C327 C326 1.404 . S
C327 C328 1.396 . S
C327 C338 1.492 . S
C328 C327 1.396 . S
C328 C329 1.397 . S
C328 C344 1.509 . S
C329 C328 1.397 . S
C329 C330 1.412 . S
C329 C350 1.485 . S
C330 C329 1.412 . S
C330 C331 1.388 . S
C330 C356 1.490 . S
C331 C326 1.397 . S
C331 C330 1.388 . S
C331 C362 1.519 . S
C332 C326 1.492 . S
C332 C333 1.363 . S
C332 C337 1.390 . S
C333 H298 0.930 . S
C333 C332 1.363 . S
C333 C334 1.372 . S
C334 H299 0.930 . S
C334 C333 1.372 . S
C334 C335 1.383 . S
C335 C334 1.383 . S
C335 C336 1.395 . S
C336 H300 0.930 . S
C336 C335 1.395 . S
C336 C337 1.362 . S
C337 H301 0.930 . S
C337 C332 1.390 . S
C337 C336 1.362 . S
C338 C327 1.492 . S
C338 C339 1.377 . S
C338 C343 1.397 . S
C339 H302 0.931 . S
C339 C338 1.377 . S
C339 C340 1.376 . S
C340 H303 0.930 . S
C340 C339 1.376 . S
C340 C341 1.376 . S
C341 C340 1.376 . S
C341 C342 1.378 . S
C341 C368 1.486 . S
C342 H304 0.930 . S
C342 C341 1.378 . S
C342 C343 1.376 . S
C343 H305 0.929 . S
C343 C338 1.397 . S
C343 C342 1.376 . S
C344 C328 1.509 . S
C344 C345 1.391 . S
C344 C349 1.386 . S
C345 H306 0.930 . S
C345 C344 1.391 . S
C345 C346 1.375 . S
C346 H307 0.931 . S
C346 C345 1.375 . S
C346 C347 1.375 . S
C347 C346 1.375 . S
C347 C348 1.361 . S
C348 H308 0.930 . S
C348 C347 1.361 . S
C348 C349 1.399 . S
C349 H309 0.929 . S
C349 C344 1.386 . S
C349 C348 1.399 . S
C350 C329 1.485 . S
C350 C351 1.394 . S
C350 C355 1.360 . S
C351 H310 0.931 . S
C351 C350 1.394 . S
C351 C352 1.372 . S
C352 H311 0.930 . S
C352 C351 1.372 . S
C352 C353 1.397 . S
C353 C352 1.397 . S
C353 C354 1.390 . S
C353 C369 1.476 . S
C354 H312 0.930 . S
C354 C353 1.390 . S
C354 C355 1.366 . S
C355 H313 0.932 . S
C355 C350 1.360 . S
C355 C354 1.366 . S
C356 C330 1.490 . S
C356 C357 1.380 1_554 S
C356 C361 1.386 1_554 S
C357 H314 0.930 1_556 S
C357 C356 1.380 1_556 S
C357 C358 1.381 . S
C358 H315 0.929 . S
C358 C357 1.381 . S
C358 C359 1.371 . S
C359 C358 1.371 . S
C359 C360 1.380 . S
C360 H316 0.931 . S
C360 C359 1.380 . S
C360 C361 1.387 . S
C361 H317 0.930 1_556 S
C361 C356 1.386 1_556 S
C361 C360 1.387 . S
C362 C331 1.519 . S
C362 C363 1.377 . S
C362 C367 1.361 . S
C363 H318 0.929 . S
C363 C362 1.377 . S
C363 C364 1.386 . S
C364 H319 0.931 . S
C364 C363 1.386 . S
C364 C365 1.363 1_554 S
C365 C364 1.363 1_556 S
C365 C366 1.385 . S
C366 H320 0.930 . S
C366 C365 1.385 . S
C366 C367 1.396 1_556 S
C367 H321 0.929 . S
C367 C362 1.361 . S
C367 C366 1.396 1_554 S
C368 O322 1.300 . S
C368 O323 1.209 . S
C368 C341 1.486 . S
C369 O324 1.199 . S
C369 O325 1.297 . S
C369 C353 1.476 . S
H370 O396 0.856 . S
H371 O399 0.854 . S
H372 C407 0.930 . S
H373 C408 0.930 . S
H374 C410 0.930 . S
H375 C411 0.930 . S
H376 C413 0.931 . S
H377 C414 0.930 . S
H378 C416 0.930 . S
H379 C417 0.929 1_554 S
H380 C419 0.930 . S
H381 C420 0.931 . S
H382 C422 0.930 . S
H383 C423 0.929 . S
H384 C425 0.931 . S
H385 C426 0.930 . S
H386 C428 0.930 . S
H387 C429 0.932 . S
H388 C431 0.930 . S
H389 C432 0.929 . S
H390 C434 0.931 . S
H391 C435 0.930 . S
H392 C437 0.929 . S
H393 C438 0.931 . S
H394 C440 0.930 . S
H395 C441 0.929 . S
O396 H370 0.856 . S
O396 C442 1.300 . S
O397 C442 1.209 . S
O398 C443 1.199 . S
O399 H371 0.854 . S
O399 C443 1.297 . S
C400 C401 1.404 . S
C400 C405 1.397 . S
C400 C406 1.492 . S
C401 C400 1.404 . S
C401 C402 1.396 . S
C401 C412 1.492 . S
C402 C401 1.396 . S
C402 C403 1.397 . S
C402 C418 1.509 . S
C403 C402 1.397 . S
C403 C404 1.412 . S
C403 C424 1.485 . S
C404 C403 1.412 . S
C404 C405 1.388 . S
C404 C430 1.490 . S
C405 C400 1.397 . S
C405 C404 1.388 . S
C405 C436 1.519 . S
C406 C400 1.492 . S
C406 C407 1.363 . S
C406 C411 1.390 . S
C407 H372 0.930 . S
C407 C406 1.363 . S
C407 C408 1.372 . S
C408 H373 0.930 . S
C408 C407 1.372 . S
C408 C409 1.383 . S
C409 C408 1.383 . S
C409 C410 1.395 . S
C410 H374 0.930 . S
C410 C409 1.395 . S
C410 C411 1.362 . S
C411 H375 0.930 . S
C411 C406 1.390 . S
C411 C410 1.362 . S
C412 C401 1.492 . S
C412 C413 1.377 1_554 S
C412 C417 1.397 1_554 S
C413 H376 0.931 . S
C413 C412 1.377 1_556 S
C413 C414 1.376 . S
C414 H377 0.930 . S
C414 C413 1.376 . S
C414 C415 1.376 . S
C415 C414 1.376 . S
C415 C416 1.378 . S
C415 C442 1.486 . S
C416 H378 0.930 . S
C416 C415 1.378 . S
C416 C417 1.376 . S
C417 H379 0.929 1_556 S
C417 C412 1.397 1_556 S
C417 C416 1.376 . S
C418 C402 1.509 . S
C418 C419 1.391 . S
C418 C423 1.386 . S
C419 H380 0.930 . S
C419 C418 1.391 . S
C419 C420 1.375 1_554 S
C420 H381 0.931 . S
C420 C419 1.375 1_556 S
C420 C421 1.375 . S
C421 C420 1.375 . S
C421 C422 1.361 . S
C422 H382 0.930 . S
C422 C421 1.361 . S
C422 C423 1.399 1_556 S
C423 H383 0.929 . S
C423 C418 1.386 . S
C423 C422 1.399 1_554 S
C424 C403 1.485 . S
C424 C425 1.394 . S
C424 C429 1.360 . S
C425 H384 0.931 . S
C425 C424 1.394 . S
C425 C426 1.372 . S
C426 H385 0.930 . S
C426 C425 1.372 . S
C426 C427 1.397 . S
C427 C426 1.397 . S
C427 C428 1.390 . S
C427 C443 1.476 . S
C428 H386 0.930 . S
C428 C427 1.390 . S
C428 C429 1.366 . S
C429 H387 0.932 . S
C429 C424 1.360 . S
C429 C428 1.366 . S
C430 C404 1.490 . S
C430 C431 1.380 . S
C430 C435 1.386 . S
C431 H388 0.930 . S
C431 C430 1.380 . S
C431 C432 1.381 . S
C432 H389 0.929 . S
C432 C431 1.381 . S
C432 C433 1.371 . S
C433 C432 1.371 . S
C433 C434 1.380 . S
C434 H390 0.931 . S
C434 C433 1.380 . S
C434 C435 1.387 . S
C435 H391 0.930 . S
C435 C430 1.386 . S
C435 C434 1.387 . S
C436 C405 1.519 . S
C436 C437 1.377 . S
C436 C441 1.361 . S
C437 H392 0.929 . S
C437 C436 1.377 . S
C437 C438 1.386 . S
C438 H393 0.931 . S
C438 C437 1.386 . S
C438 C439 1.363 . S
C439 C438 1.363 . S
C439 C440 1.385 . S
C440 H394 0.930 . S
C440 C439 1.385 . S
C440 C441 1.396 . S
C441 H395 0.929 . S
C441 C436 1.361 . S
C441 C440 1.396 . S
C442 O396 1.300 . S
C442 O397 1.209 . S
C442 C415 1.486 . S
C443 O398 1.199 . S
C443 O399 1.297 . S
C443 C427 1.476 . S
C444 O471 1.312 . S
C444 O472 1.208 . S
C445 O466 1.331 . S
C445 O469 1.244 . S
C446 O468 1.264 . S
C446 O470 1.273 . S
Mg447 O449 1.938 . S
Mg447 O456 2.081 1_455 S
Mg447 O458 2.023 . S
Mg447 O462 2.031 1_455 S
Mg447 O471 2.291 . S
Mg448 O449 1.972 . S
Mg448 O459 1.931 1_455 S
Mg448 O460 1.971 . S
Mg448 O467 1.975 1_455 S
O449 Mg447 1.938 . S
O449 Mg448 1.972 . S
O449 Mg450 1.918 . S
Mg450 O449 1.918 . S
Mg450 O451 1.915 . S
Mg450 O455 2.013 . S
Mg450 O461 2.114 1_455 S
Mg450 O465 2.013 1_455 S
Mg450 O471 2.114 . S
O451 Mg450 1.915 . S
O451 Mg452 1.936 . S
O451 Mg453 1.963 . S
Mg452 O451 1.936 . S
Mg452 O461 2.291 1_455 S
Mg452 O466 2.081 . S
Mg452 O468 2.023 1_455 S
Mg452 O472 2.031 . S
Mg453 O451 1.963 . S
Mg453 O457 1.986 . S
Mg453 O469 1.942 . S
Mg453 O470 1.955 1_455 S
C454 O465 1.191 . S
C454 O467 1.307 . S
O455 Mg450 2.013 . S
O455 C474 1.191 . S
O456 Mg447 2.081 1_655 S
O456 C464 1.331 . S
O457 Mg453 1.986 . S
O457 C474 1.307 . S
O458 Mg447 2.023 . S
O458 C473 1.264 . S
O459 Mg448 1.931 1_655 S
O459 C464 1.244 . S
O460 Mg448 1.971 . S
O460 C473 1.273 . S
O461 Mg450 2.114 1_655 S
O461 Mg452 2.291 1_655 S
O461 C463 1.312 . S
O462 Mg447 2.031 1_655 S
O462 C463 1.208 . S
C463 O461 1.312 . S
C463 O462 1.208 . S
C464 O456 1.331 . S
C464 O459 1.244 . S
O465 Mg450 2.013 1_655 S
O465 C454 1.191 . S
O466 C445 1.331 . S
O466 Mg452 2.081 . S
O467 Mg448 1.975 1_655 S
O467 C454 1.307 . S
O468 C446 1.264 . S
O468 Mg452 2.023 1_655 S
O469 C445 1.244 . S
O469 Mg453 1.942 . S
O470 C446 1.273 . S
O470 Mg453 1.955 1_655 S
O471 C444 1.312 . S
O471 Mg447 2.291 . S
O471 Mg450 2.114 . S
O472 C444 1.208 . S
O472 Mg452 2.031 . S
C473 O458 1.264 . S
C473 O460 1.273 . S
C474 O455 1.191 . S
C474 O457 1.307 . S
C475 O502 1.312 . S
C475 O503 1.208 . S
C476 O497 1.331 . S
C476 O500 1.244 . S
C477 O499 1.264 . S
C477 O501 1.273 . S
Mg478 O480 1.927 1_545 S
Mg478 O487 2.081 1_545 S
Mg478 O489 2.023 . S
Mg478 O493 2.031 1_545 S
Mg478 O502 2.291 . S
Mg479 O480 1.970 1_545 S
Mg479 O490 1.939 1_545 S
Mg479 O491 1.979 . S
Mg479 O498 1.963 1_545 S
O480 Mg478 1.927 1_565 S
O480 Mg479 1.970 1_565 S
O480 Mg481 1.916 1_565 S
Mg481 O480 1.916 1_545 S
Mg481 O482 1.915 . S
Mg481 O486 2.013 . S
Mg481 O492 2.114 1_545 S
Mg481 O496 2.013 1_545 S
Mg481 O502 2.114 . S
O482 Mg481 1.915 . S
O482 Mg483 1.936 . S
O482 Mg484 1.963 . S
Mg483 O482 1.936 . S
Mg483 O492 2.291 1_545 S
Mg483 O497 2.081 . S
Mg483 O499 2.023 1_545 S
Mg483 O503 2.031 . S
Mg484 O482 1.963 . S
Mg484 O488 1.986 . S
Mg484 O500 1.942 . S
Mg484 O501 1.955 1_545 S
C485 O496 1.191 . S
C485 O498 1.307 . S
O486 Mg481 2.013 . S
O486 C505 1.191 . S
O487 Mg478 2.081 1_565 S
O487 C495 1.331 . S
O488 Mg484 1.986 . S
O488 C505 1.307 . S
O489 Mg478 2.023 . S
O489 C504 1.264 . S
O490 Mg479 1.939 1_565 S
O490 C495 1.244 . S
O491 Mg479 1.979 . S
O491 C504 1.273 . S
O492 Mg481 2.114 1_565 S
O492 Mg483 2.291 1_565 S
O492 C494 1.312 . S
O493 Mg478 2.031 1_565 S
O493 C494 1.208 . S
C494 O492 1.312 . S
C494 O493 1.208 . S
C495 O487 1.331 . S
C495 O490 1.244 . S
O496 Mg481 2.013 1_565 S
O496 C485 1.191 . S
O497 C476 1.331 . S
O497 Mg483 2.081 . S
O498 Mg479 1.963 1_565 S
O498 C485 1.307 . S
O499 C477 1.264 . S
O499 Mg483 2.023 1_565 S
O500 C476 1.244 . S
O500 Mg484 1.942 . S
O501 C477 1.273 . S
O501 Mg484 1.955 1_565 S
O502 C475 1.312 . S
O502 Mg478 2.291 . S
O502 Mg481 2.114 . S
O503 C475 1.208 . S
O503 Mg483 2.031 . S
C504 O489 1.264 . S
C504 O491 1.273 . S
C505 O486 1.191 . S
C505 O488 1.307 . S
C506 O533 1.312 . S
C506 O534 1.208 . S
C507 O528 1.331 . S
C507 O531 1.244 . S
C508 O530 1.264 . S
C508 O532 1.273 . S
Mg509 O511 1.936 . S
Mg509 O518 2.081 . S
Mg509 O520 2.023 . S
Mg509 O524 2.031 . S
Mg509 O533 2.291 . S
Mg510 O511 1.963 . S
Mg510 O521 1.942 . S
Mg510 O522 1.955 . S
Mg510 O529 1.986 . S
O511 Mg509 1.936 . S
O511 Mg510 1.963 . S
O511 Mg512 1.915 . S
Mg512 O511 1.915 . S
Mg512 O513 1.915 . S
Mg512 O517 2.013 . S
Mg512 O523 2.114 . S
Mg512 O527 2.013 . S
Mg512 O533 2.114 . S
O513 Mg512 1.915 . S
O513 Mg514 1.936 . S
O513 Mg515 1.963 . S
Mg514 O513 1.936 . S
Mg514 O523 2.291 . S
Mg514 O528 2.081 . S
Mg514 O530 2.023 . S
Mg514 O534 2.031 . S
Mg515 O513 1.963 . S
Mg515 O519 1.986 . S
Mg515 O531 1.942 . S
Mg515 O532 1.955 . S
C516 O527 1.191 . S
C516 O529 1.307 . S
O517 Mg512 2.013 . S
O517 C536 1.191 . S
O518 Mg509 2.081 . S
O518 C526 1.331 . S
O519 Mg515 1.986 . S
O519 C536 1.307 . S
O520 Mg509 2.023 . S
O520 C535 1.264 . S
O521 Mg510 1.942 . S
O521 C526 1.244 . S
O522 Mg510 1.955 . S
O522 C535 1.273 . S
O523 Mg512 2.114 . S
O523 Mg514 2.291 . S
O523 C525 1.312 . S
O524 Mg509 2.031 . S
O524 C525 1.208 . S
C525 O523 1.312 . S
C525 O524 1.208 . S
C526 O518 1.331 . S
C526 O521 1.244 . S
O527 Mg512 2.013 . S
O527 C516 1.191 . S
O528 C507 1.331 . S
O528 Mg514 2.081 . S
O529 Mg510 1.986 . S
O529 C516 1.307 . S
O530 C508 1.264 . S
O530 Mg514 2.023 . S
O531 C507 1.244 . S
O531 Mg515 1.942 . S
O532 C508 1.273 . S
O532 Mg515 1.955 . S
O533 C506 1.312 . S
O533 Mg509 2.291 . S
O533 Mg512 2.114 . S
O534 C506 1.208 . S
O534 Mg514 2.031 . S
C535 O520 1.264 . S
C535 O522 1.273 . S
C536 O517 1.191 . S
C536 O519 1.307 . S
H537 C543 0.930 . S
H538 C546 0.930 . S
H539 C547 0.930 . S
H540 C548 0.930 . S
H541 C551 0.930 . S
H542 C552 0.930 . S
C543 H537 0.930 . S
C543 C544 1.355 . S
C543 C545 1.415 . S
C544 C543 1.355 . S
C544 C546 1.419 . S
C545 C543 1.415 . S
C545 C550 1.425 . S
C545 C552 1.409 . S
C546 H538 0.930 . S
C546 C544 1.419 . S
C546 C547 1.362 . S
C547 H539 0.930 . S
C547 C546 1.362 . S
C547 C550 1.409 . S
C548 H540 0.930 . S
C548 C549 1.355 . S
C548 C550 1.415 . S
C549 C548 1.355 . S
C549 C551 1.419 . S
C550 C545 1.425 . S
C550 C547 1.409 . S
C550 C548 1.415 . S
C551 H541 0.930 . S
C551 C549 1.419 . S
C551 C552 1.362 . S
C552 H542 0.930 . S
C552 C545 1.409 . S
C552 C551 1.362 . S
H553 C559 0.930 . S
H554 C562 0.930 . S
H555 C563 0.930 . S
H556 C564 0.930 . S
H557 C567 0.930 . S
H558 C568 0.930 . S
C559 H553 0.930 . S
C559 C560 1.355 . S
C559 C561 1.415 . S
C560 C559 1.355 . S
C560 C562 1.419 . S
C561 C559 1.415 . S
C561 C566 1.425 . S
C561 C568 1.409 . S
C562 H554 0.930 . S
C562 C560 1.419 . S
C562 C563 1.362 . S
C563 H555 0.930 . S
C563 C562 1.362 . S
C563 C566 1.409 . S
C564 H556 0.930 . S
C564 C565 1.355 . S
C564 C566 1.415 . S
C565 C564 1.355 . S
C565 C567 1.419 . S
C566 C561 1.425 . S
C566 C563 1.409 . S
C566 C564 1.415 . S
C567 H557 0.930 . S
C567 C565 1.419 . S
C567 C568 1.362 . S
C568 H558 0.930 . S
C568 C561 1.409 . S
C568 C567 1.362 . S
H569 C575 0.930 . S
H570 C578 0.930 . S
H571 C579 0.930 . S
H572 C580 0.930 . S
H573 C583 0.930 . S
H574 C584 0.930 . S
C575 H569 0.930 . S
C575 C576 1.355 . S
C575 C577 1.415 . S
C576 C575 1.355 . S
C576 C578 1.419 . S
C577 C575 1.415 . S
C577 C582 1.425 . S
C577 C584 1.409 . S
C578 H570 0.930 . S
C578 C576 1.419 . S
C578 C579 1.362 . S
C579 H571 0.930 . S
C579 C578 1.362 . S
C579 C582 1.409 . S
C580 H572 0.930 . S
C580 C581 1.355 . S
C580 C582 1.415 . S
C581 C580 1.355 . S
C581 C583 1.419 . S
C582 C577 1.425 . S
C582 C579 1.409 . S
C582 C580 1.415 . S
C583 H573 0.930 . S
C583 C581 1.419 . S
C583 C584 1.362 . S
C584 H574 0.930 . S
C584 C577 1.409 . S
C584 C583 1.362 . S
H585 C591 0.930 . S
H586 C594 0.930 . S
H587 C595 0.930 . S
H588 C596 0.930 . S
H589 C599 0.930 . S
H590 C600 0.930 . S
C591 H585 0.930 . S
C591 C592 1.355 . S
C591 C593 1.415 . S
C592 C591 1.355 . S
C592 C594 1.419 . S
C593 C591 1.415 . S
C593 C598 1.425 . S
C593 C600 1.409 . S
C594 H586 0.930 . S
C594 C592 1.419 . S
C594 C595 1.362 . S
C595 H587 0.930 . S
C595 C594 1.362 . S
C595 C598 1.409 . S
C596 H588 0.930 . S
C596 C597 1.355 . S
C596 C598 1.415 . S
C597 C596 1.355 . S
C597 C599 1.419 . S
C598 C593 1.425 . S
C598 C595 1.409 . S
C598 C596 1.415 . S
C599 H589 0.930 . S
C599 C597 1.419 . S
C599 C600 1.362 . S
C600 H590 0.930 . S
C600 C593 1.409 . S
C600 C599 1.362 . S
H601 C607 0.930 . S
H602 C610 0.930 . S
H603 C611 0.930 . S
H604 C612 0.930 . S
H605 C615 0.930 . S
H606 C616 0.930 . S
C607 H601 0.930 . S
C607 C608 1.355 . S
C607 C609 1.415 . S
C608 C607 1.355 . S
C608 C610 1.419 . S
C609 C607 1.415 . S
C609 C614 1.425 . S
C609 C616 1.409 . S
C610 H602 0.930 . S
C610 C608 1.419 . S
C610 C611 1.362 . S
C611 H603 0.930 . S
C611 C610 1.362 . S
C611 C614 1.409 . S
C612 H604 0.930 . S
C612 C613 1.355 . S
C612 C614 1.415 . S
C613 C612 1.355 . S
C613 C615 1.419 . S
C614 C609 1.425 . S
C614 C611 1.409 . S
C614 C612 1.415 . S
C615 H605 0.930 . S
C615 C613 1.419 . S
C615 C616 1.362 . S
C616 H606 0.930 . S
C616 C609 1.409 . S
C616 C615 1.362 . S
H617 C623 0.930 . S
H618 C626 0.930 . S
H619 C627 0.930 . S
H620 C628 0.930 . S
H621 C631 0.930 . S
H622 C632 0.930 . S
C623 H617 0.930 . S
C623 C624 1.355 . S
C623 C625 1.415 . S
C624 C623 1.355 . S
C624 C626 1.419 . S
C625 C623 1.415 . S
C625 C630 1.425 . S
C625 C632 1.409 . S
C626 H618 0.930 . S
C626 C624 1.419 . S
C626 C627 1.362 . S
C627 H619 0.930 . S
C627 C626 1.362 . S
C627 C630 1.409 . S
C628 H620 0.930 . S
C628 C629 1.355 . S
C628 C630 1.415 . S
C629 C628 1.355 . S
C629 C631 1.419 . S
C630 C625 1.425 . S
C630 C627 1.409 . S
C630 C628 1.415 . S
C631 H621 0.930 . S
C631 C629 1.419 . S
C631 C632 1.362 . S
C632 H622 0.930 . S
C632 C625 1.409 . S
C632 C631 1.362 . S
H633 C639 0.930 . S
H634 C642 0.930 . S
H635 C643 0.930 . S
H636 C644 0.930 . S
H637 C647 0.930 . S
H638 C648 0.930 . S
C639 H633 0.930 . S
C639 C640 1.355 . S
C639 C641 1.415 . S
C640 C639 1.355 . S
C640 C642 1.419 . S
C641 C639 1.415 . S
C641 C646 1.425 . S
C641 C648 1.409 . S
C642 H634 0.930 . S
C642 C640 1.419 . S
C642 C643 1.362 . S
C643 H635 0.930 . S
C643 C642 1.362 . S
C643 C646 1.409 . S
C644 H636 0.930 . S
C644 C645 1.355 . S
C644 C646 1.415 . S
C645 C644 1.355 . S
C645 C647 1.419 . S
C646 C641 1.425 . S
C646 C643 1.409 . S
C646 C644 1.415 . S
C647 H637 0.930 . S
C647 C645 1.419 . S
C647 C648 1.362 . S
C648 H638 0.930 . S
C648 C641 1.409 . S
C648 C647 1.362 . S
H649 C655 0.930 . S
H650 C658 0.930 . S
H651 C659 0.930 . S
H652 C660 0.930 . S
H653 C663 0.930 . S
H654 C664 0.930 . S
C655 H649 0.930 . S
C655 C656 1.355 . S
C655 C657 1.415 . S
C656 C655 1.355 . S
C656 C658 1.419 . S
C657 C655 1.415 . S
C657 C662 1.425 . S
C657 C664 1.409 . S
C658 H650 0.930 . S
C658 C656 1.419 . S
C658 C659 1.362 . S
C659 H651 0.930 . S
C659 C658 1.362 . S
C659 C662 1.409 . S
C660 H652 0.930 . S
C660 C661 1.355 . S
C660 C662 1.415 . S
C661 C660 1.355 . S
C661 C663 1.419 . S
C662 C657 1.425 . S
C662 C659 1.409 . S
C662 C660 1.415 . S
C663 H653 0.930 . S
C663 C661 1.419 . S
C663 C664 1.362 . S
C664 H654 0.930 . S
C664 C657 1.409 . S
C664 C663 1.362 . S
H665 C671 0.930 . S
H666 C674 0.930 . S
H667 C675 0.930 . S
H668 C676 0.930 . S
H669 C679 0.930 . S
H670 C680 0.930 . S
C671 H665 0.930 . S
C671 C672 1.355 . S
C671 C673 1.415 . S
C672 C671 1.355 . S
C672 C674 1.419 . S
C673 C671 1.415 . S
C673 C678 1.425 . S
C673 C680 1.409 . S
C674 H666 0.930 . S
C674 C672 1.419 . S
C674 C675 1.362 . S
C675 H667 0.930 . S
C675 C674 1.362 . S
C675 C678 1.409 . S
C676 H668 0.930 . S
C676 C677 1.355 . S
C676 C678 1.415 . S
C677 C676 1.355 . S
C677 C679 1.419 . S
C678 C673 1.425 . S
C678 C675 1.409 . S
C678 C676 1.415 . S
C679 H669 0.930 . S
C679 C677 1.419 . S
C679 C680 1.362 . S
C680 H670 0.930 . S
C680 C673 1.409 . S
C680 C679 1.362 . S
H681 C687 0.930 . S
H682 C690 0.930 . S
H683 C691 0.930 . S
H684 C692 0.930 . S
H685 C695 0.930 . S
H686 C696 0.930 . S
C687 H681 0.930 . S
C687 C688 1.355 . S
C687 C689 1.415 . S
C688 C687 1.355 . S
C688 C690 1.419 . S
C689 C687 1.415 . S
C689 C694 1.425 . S
C689 C696 1.409 . S
C690 H682 0.930 . S
C690 C688 1.419 . S
C690 C691 1.362 . S
C691 H683 0.930 . S
C691 C690 1.362 . S
C691 C694 1.409 . S
C692 H684 0.930 . S
C692 C693 1.355 . S
C692 C694 1.415 . S
C693 C692 1.355 . S
C693 C695 1.419 . S
C694 C689 1.425 . S
C694 C691 1.409 . S
C694 C692 1.415 . S
C695 H685 0.930 . S
C695 C693 1.419 . S
C695 C696 1.362 . S
C696 H686 0.930 . S
C696 C689 1.409 . S
C696 C695 1.362 . S
H697 C703 0.930 . S
H698 C706 0.930 . S
H699 C707 0.930 . S
H700 C708 0.930 . S
H701 C711 0.930 . S
H702 C712 0.930 . S
C703 H697 0.930 . S
C703 C704 1.355 . S
C703 C705 1.415 . S
C704 C703 1.355 . S
C704 C706 1.419 . S
C705 C703 1.415 . S
C705 C710 1.425 . S
C705 C712 1.409 . S
C706 H698 0.930 . S
C706 C704 1.419 . S
C706 C707 1.362 . S
C707 H699 0.930 . S
C707 C706 1.362 . S
C707 C710 1.409 . S
C708 H700 0.930 . S
C708 C709 1.355 . S
C708 C710 1.415 . S
C709 C708 1.355 . S
C709 C711 1.419 . S
C710 C705 1.425 . S
C710 C707 1.409 . S
C710 C708 1.415 . S
C711 H701 0.930 . S
C711 C709 1.419 . S
C711 C712 1.362 . S
C712 H702 0.930 . S
C712 C705 1.409 . S
C712 C711 1.362 . S
H713 C719 0.930 . S
H714 C722 0.930 . S
H715 C723 0.930 . S
H716 C724 0.930 . S
H717 C727 0.930 . S
H718 C728 0.930 . S
C719 H713 0.930 . S
C719 C720 1.355 . S
C719 C721 1.415 . S
C720 C719 1.355 . S
C720 C722 1.419 . S
C721 C719 1.415 . S
C721 C726 1.425 . S
C721 C728 1.409 . S
C722 H714 0.930 . S
C722 C720 1.419 . S
C722 C723 1.362 . S
C723 H715 0.930 . S
C723 C722 1.362 . S
C723 C726 1.409 . S
C724 H716 0.930 . S
C724 C725 1.355 . S
C724 C726 1.415 . S
C725 C724 1.355 . S
C725 C727 1.419 . S
C726 C721 1.425 . S
C726 C723 1.409 . S
C726 C724 1.415 . S
C727 H717 0.930 . S
C727 C725 1.419 . S
C727 C728 1.362 . S
C728 H718 0.930 . S
C728 C721 1.409 . S
C728 C727 1.362 . S
H729 C735 0.930 . S
H730 C738 0.930 . S
H731 C739 0.930 . S
H732 C740 0.930 . S
H733 C743 0.930 . S
H734 C744 0.930 . S
C735 H729 0.930 . S
C735 C736 1.355 . S
C735 C737 1.415 . S
C736 C735 1.355 . S
C736 C738 1.419 . S
C737 C735 1.415 . S
C737 C742 1.425 . S
C737 C744 1.409 . S
C738 H730 0.930 . S
C738 C736 1.419 . S
C738 C739 1.362 . S
C739 H731 0.930 . S
C739 C738 1.362 . S
C739 C742 1.409 . S
C740 H732 0.930 . S
C740 C741 1.355 . S
C740 C742 1.415 . S
C741 C740 1.355 . S
C741 C743 1.419 . S
C742 C737 1.425 . S
C742 C739 1.409 . S
C742 C740 1.415 . S
C743 H733 0.930 . S
C743 C741 1.419 . S
C743 C744 1.362 . S
C744 H734 0.930 . S
C744 C737 1.409 . S
C744 C743 1.362 . S
H745 C751 0.930 . S
H746 C754 0.930 . S
H747 C755 0.930 . S
H748 C756 0.930 . S
H749 C759 0.930 . S
H750 C760 0.930 . S
C751 H745 0.930 . S
C751 C752 1.355 . S
C751 C753 1.415 . S
C752 C751 1.355 . S
C752 C754 1.419 . S
C753 C751 1.415 . S
C753 C758 1.425 . S
C753 C760 1.409 . S
C754 H746 0.930 . S
C754 C752 1.419 . S
C754 C755 1.362 . S
C755 H747 0.930 . S
C755 C754 1.362 . S
C755 C758 1.409 . S
C756 H748 0.930 . S
C756 C757 1.355 . S
C756 C758 1.415 . S
C757 C756 1.355 . S
C757 C759 1.419 . S
C758 C753 1.425 . S
C758 C755 1.409 . S
C758 C756 1.415 . S
C759 H749 0.930 . S
C759 C757 1.419 . S
C759 C760 1.362 . S
C760 H750 0.930 . S
C760 C753 1.409 . S
C760 C759 1.362 . S
H761 C767 0.930 . S
H762 C770 0.930 . S
H763 C771 0.930 . S
H764 C772 0.930 . S
H765 C775 0.930 . S
H766 C776 0.930 . S
C767 H761 0.930 . S
C767 C768 1.355 1_556 S
C767 C769 1.415 . S
C768 C767 1.355 1_554 S
C768 C770 1.419 . S
C769 C767 1.415 . S
C769 C774 1.425 . S
C769 C776 1.409 . S
C770 H762 0.930 . S
C770 C768 1.419 . S
C770 C771 1.362 1_554 S
C771 H763 0.930 . S
C771 C770 1.362 1_556 S
C771 C774 1.409 . S
C772 H764 0.930 . S
C772 C773 1.355 . S
C772 C774 1.415 . S
C773 C772 1.355 . S
C773 C775 1.419 . S
C774 C769 1.425 . S
C774 C771 1.409 . S
C774 C772 1.415 . S
C775 H765 0.930 . S
C775 C773 1.419 . S
C775 C776 1.362 . S
C776 H766 0.930 . S
C776 C769 1.409 . S
C776 C775 1.362 . S
H777 C783 0.930 . S
H778 C786 0.930 . S
H779 C787 0.930 . S
H780 C788 0.930 . S
H781 C791 0.930 . S
H782 C792 0.930 . S
C783 H777 0.930 . S
C783 C784 1.355 . S
C783 C785 1.415 . S
C784 C783 1.355 . S
C784 C786 1.419 1_556 S
C785 C783 1.415 . S
C785 C790 1.425 . S
C785 C792 1.409 . S
C786 H778 0.930 . S
C786 C784 1.419 1_554 S
C786 C787 1.362 1_554 S
C787 H779 0.930 . S
C787 C786 1.362 1_556 S
C787 C790 1.409 . S
C788 H780 0.930 . S
C788 C789 1.355 . S
C788 C790 1.415 . S
C789 C788 1.355 . S
C789 C791 1.419 . S
C790 C785 1.425 . S
C790 C787 1.409 . S
C790 C788 1.415 . S
C791 H781 0.930 . S
C791 C789 1.419 . S
C791 C792 1.362 . S
C792 H782 0.930 . S
C792 C785 1.409 . S
C792 C791 1.362 . S
H793 C799 0.930 . S
H794 C802 0.930 . S
H795 C803 0.930 . S
H796 C804 0.930 . S
H797 C807 0.930 . S
H798 C808 0.930 . S
C799 H793 0.930 . S
C799 C800 1.355 . S
C799 C801 1.415 . S
C800 C799 1.355 . S
C800 C802 1.419 . S
C801 C799 1.415 . S
C801 C806 1.425 . S
C801 C808 1.409 . S
C802 H794 0.930 . S
C802 C800 1.419 . S
C802 C803 1.362 . S
C803 H795 0.930 . S
C803 C802 1.362 . S
C803 C806 1.409 . S
C804 H796 0.930 . S
C804 C805 1.355 . S
C804 C806 1.415 . S
C805 C804 1.355 . S
C805 C807 1.419 . S
C806 C801 1.425 . S
C806 C803 1.409 . S
C806 C804 1.415 . S
C807 H797 0.930 . S
C807 C805 1.419 . S
C807 C808 1.362 . S
C808 H798 0.930 . S
C808 C801 1.409 . S
C808 C807 1.362 . S
H809 C815 0.930 . S
H810 C818 0.930 . S
H811 C819 0.930 . S
H812 C820 0.930 . S
H813 C823 0.930 . S
H814 C824 0.930 . S
C815 H809 0.930 . S
C815 C816 1.355 . S
C815 C817 1.415 . S
C816 C815 1.355 . S
C816 C818 1.419 . S
C817 C815 1.415 . S
C817 C822 1.425 . S
C817 C824 1.409 . S
C818 H810 0.930 . S
C818 C816 1.419 . S
C818 C819 1.362 . S
C819 H811 0.930 . S
C819 C818 1.362 . S
C819 C822 1.409 . S
C820 H812 0.930 . S
C820 C821 1.355 . S
C820 C822 1.415 . S
C821 C820 1.355 . S
C821 C823 1.419 . S
C822 C817 1.425 . S
C822 C819 1.409 . S
C822 C820 1.415 . S
C823 H813 0.930 . S
C823 C821 1.419 . S
C823 C824 1.362 . S
C824 H814 0.930 . S
C824 C817 1.409 . S
C824 C823 1.362 . S
H825 C831 0.930 . S
H826 C834 0.930 . S
H827 C835 0.930 . S
H828 C836 0.930 . S
H829 C839 0.930 . S
H830 C840 0.930 . S
C831 H825 0.930 . S
C831 C832 1.355 . S
C831 C833 1.415 . S
C832 C831 1.355 . S
C832 C834 1.419 . S
C833 C831 1.415 . S
C833 C838 1.425 . S
C833 C840 1.409 . S
C834 H826 0.930 . S
C834 C832 1.419 . S
C834 C835 1.362 . S
C835 H827 0.930 . S
C835 C834 1.362 . S
C835 C838 1.409 . S
C836 H828 0.930 . S
C836 C837 1.355 . S
C836 C838 1.415 . S
C837 C836 1.355 . S
C837 C839 1.419 . S
C838 C833 1.425 . S
C838 C835 1.409 . S
C838 C836 1.415 . S
C839 H829 0.930 . S
C839 C837 1.419 . S
C839 C840 1.362 . S
C840 H830 0.930 . S
C840 C833 1.409 . S
C840 C839 1.362 . S
H841 C847 0.930 . S
H842 C850 0.930 . S
H843 C851 0.930 . S
H844 C852 0.930 . S
H845 C855 0.930 . S
H846 C856 0.930 . S
C847 H841 0.930 . S
C847 C848 1.355 . S
C847 C849 1.415 . S
C848 C847 1.355 . S
C848 C850 1.419 . S
C849 C847 1.415 . S
C849 C854 1.425 . S
C849 C856 1.409 . S
C850 H842 0.930 . S
C850 C848 1.419 . S
C850 C851 1.362 . S
C851 H843 0.930 . S
C851 C850 1.362 . S
C851 C854 1.409 . S
C852 H844 0.930 . S
C852 C853 1.355 . S
C852 C854 1.415 . S
C853 C852 1.355 . S
C853 C855 1.419 . S
C854 C849 1.425 . S
C854 C851 1.409 . S
C854 C852 1.415 . S
C855 H845 0.930 . S
C855 C853 1.419 . S
C855 C856 1.362 . S
C856 H846 0.930 . S
C856 C849 1.409 . S
C856 C855 1.362 . S
H857 C863 0.930 . S
H858 C866 0.930 . S
H859 C867 0.930 . S
H860 C868 0.930 . S
H861 C871 0.930 . S
H862 C872 0.930 . S
C863 H857 0.930 . S
C863 C864 1.355 . S
C863 C865 1.415 . S
C864 C863 1.355 . S
C864 C866 1.419 . S
C865 C863 1.415 . S
C865 C870 1.425 . S
C865 C872 1.409 . S
C866 H858 0.930 . S
C866 C864 1.419 . S
C866 C867 1.362 . S
C867 H859 0.930 . S
C867 C866 1.362 . S
C867 C870 1.409 . S
C868 H860 0.930 . S
C868 C869 1.355 . S
C868 C870 1.415 . S
C869 C868 1.355 . S
C869 C871 1.419 . S
C870 C865 1.425 . S
C870 C867 1.409 . S
C870 C868 1.415 . S
C871 H861 0.930 . S
C871 C869 1.419 . S
C871 C872 1.362 . S
C872 H862 0.930 . S
C872 C865 1.409 . S
C872 C871 1.362 . S
H873 C879 0.930 . S
H874 C882 0.930 . S
H875 C883 0.930 . S
H876 C884 0.930 . S
H877 C887 0.930 . S
H878 C888 0.930 . S
C879 H873 0.930 . S
C879 C880 1.355 . S
C879 C881 1.415 . S
C880 C879 1.355 . S
C880 C882 1.419 . S
C881 C879 1.415 . S
C881 C886 1.425 . S
C881 C888 1.409 . S
C882 H874 0.930 . S
C882 C880 1.419 . S
C882 C883 1.362 . S
C883 H875 0.930 . S
C883 C882 1.362 . S
C883 C886 1.409 . S
C884 H876 0.930 . S
C884 C885 1.355 . S
C884 C886 1.415 . S
C885 C884 1.355 . S
C885 C887 1.419 . S
C886 C881 1.425 . S
C886 C883 1.409 . S
C886 C884 1.415 . S
C887 H877 0.930 . S
C887 C885 1.419 . S
C887 C888 1.362 . S
C888 H878 0.930 . S
C888 C881 1.409 . S
C888 C887 1.362 . S
H889 C895 0.930 . S
H890 C898 0.930 . S
H891 C899 0.930 . S
H892 C900 0.930 . S
H893 C903 0.930 . S
H894 C904 0.930 . S
C895 H889 0.930 . S
C895 C896 1.355 . S
C895 C897 1.415 . S
C896 C895 1.355 . S
C896 C898 1.419 . S
C897 C895 1.415 . S
C897 C902 1.425 . S
C897 C904 1.409 . S
C898 H890 0.930 . S
C898 C896 1.419 . S
C898 C899 1.362 . S
C899 H891 0.930 . S
C899 C898 1.362 . S
C899 C902 1.409 . S
C900 H892 0.930 . S
C900 C901 1.355 . S
C900 C902 1.415 . S
C901 C900 1.355 . S
C901 C903 1.419 . S
C902 C897 1.425 . S
C902 C899 1.409 . S
C902 C900 1.415 . S
C903 H893 0.930 . S
C903 C901 1.419 . S
C903 C904 1.362 . S
C904 H894 0.930 . S
C904 C897 1.409 . S
C904 C903 1.362 . S
H905 C911 0.930 . S
H906 C914 0.930 . S
H907 C915 0.930 . S
H908 C916 0.930 . S
H909 C919 0.930 . S
H910 C920 0.930 . S
C911 H905 0.930 . S
C911 C912 1.355 . S
C911 C913 1.415 . S
C912 C911 1.355 . S
C912 C914 1.419 . S
C913 C911 1.415 . S
C913 C918 1.425 . S
C913 C920 1.409 . S
C914 H906 0.930 . S
C914 C912 1.419 . S
C914 C915 1.362 . S
C915 H907 0.930 . S
C915 C914 1.362 . S
C915 C918 1.409 . S
C916 H908 0.930 . S
C916 C917 1.355 . S
C916 C918 1.415 . S
C917 C916 1.355 . S
C917 C919 1.419 . S
C918 C913 1.425 . S
C918 C915 1.409 . S
C918 C916 1.415 . S
C919 H909 0.930 . S
C919 C917 1.419 . S
C919 C920 1.362 . S
C920 H910 0.930 . S
C920 C913 1.409 . S
C920 C919 1.362 . S
C544 C39 1.755 . S
C549 C444 1.725 . S
C560 C125 0.910 . S
C565 C476 0.948 . S
C581 C535 2.289 . S
C576 C211 2.160 . S
C597 C464 0.788 . S
C592 C273 0.829 . S
C608 C335 1.897 . S
C613 C494 1.874 . S
C629 C516 1.692 . S
C624 C439 1.649 . S
C645 C485 1.792 . S
C640 C187 1.781 . S
C656 C291 1.741 . S
C661 C525 1.698 . S
C677 C474 2.168 . S
C672 C359 1.926 . S
C688 C421 0.921 . S
C693 C504 0.889 . S
C704 C63 2.055 . S
C709 C507 2.213 . S
C725 C446 1.949 . S
C720 C143 1.956 . S
C741 C454 2.115 . S
C736 C285 2.010 . S
C757 C495 1.851 . S
C752 C365 1.873 . S
C773 C508 2.105 . S
C768 C409 2.095 . S
C789 C445 1.802 . S
C784 C69 1.836 1_556 S
C805 C505 1.941 . S
C800 C137 1.832 . S
C816 C199 0.463 . S
C821 C506 0.400 . S
C837 C475 2.111 . S
C832 C433 1.925 . S
C853 C536 0.565 . S
C848 C51 0.467 . S
C869 C463 1.659 . S
C864 C113 1.754 . S
C885 C477 1.873 . S
C880 C217 1.903 . S
C896 C261 1.986 . S
C901 C526 2.003 . S
C912 C347 0.800 . S
C917 C473 0.729 . S
