# Generated by pormake.
# Topology pyr, (3,6)-cn, num edge types: 1
# Building blocks:
#     Node 0, Type 0, BuildingBlock: INOVEN_clean_linker_0, # of connection points: 3
#     Node 1, Type 0, BuildingBlock: INOVEN_clean_linker_0, # of connection points: 3
#     Node 2, Type 0, BuildingBlock: INOVEN_clean_linker_0, # of connection points: 3
#     Node 3, Type 0, BuildingBlock: INOVEN_clean_linker_0, # of connection points: 3
#     Node 4, Type 0, BuildingBlock: INOVEN_clean_linker_0, # of connection points: 3
#     Node 5, Type 0, BuildingBlock: INOVEN_clean_linker_0, # of connection points: 3
#     Node 6, Type 0, BuildingBlock: INOVEN_clean_linker_0, # of connection points: 3
#     Node 7, Type 0, BuildingBlock: INOVEN_clean_linker_0, # of connection points: 3
#     Node 8, Type 1, BuildingBlock: MIDCAF_clean_sbu_0, # of connection points: 6
#     Node 9, Type 1, BuildingBlock: MIDCAF_clean_sbu_0, # of connection points: 6
#     Node 10, Type 1, BuildingBlock: MIDCAF_clean_sbu_0, # of connection points: 6
#     Node 11, Type 1, BuildingBlock: MIDCAF_clean_sbu_0, # of connection points: 6
#     Edge 12, Type (0, 1), BuildingBlock: AJUNOK_clean_linker_0, # of connection points: 2
#     Edge 13, Type (0, 1), BuildingBlock: AJUNOK_clean_linker_0, # of connection points: 2
#     Edge 14, Type (0, 1), BuildingBlock: AJUNOK_clean_linker_0, # of connection points: 2
#     Edge 15, Type (0, 1), BuildingBlock: AJUNOK_clean_linker_0, # of connection points: 2
#     Edge 16, Type (0, 1), BuildingBlock: AJUNOK_clean_linker_0, # of connection points: 2
#     Edge 17, Type (0, 1), BuildingBlock: AJUNOK_clean_linker_0, # of connection points: 2
#     Edge 18, Type (0, 1), BuildingBlock: AJUNOK_clean_linker_0, # of connection points: 2
#     Edge 19, Type (0, 1), BuildingBlock: AJUNOK_clean_linker_0, # of connection points: 2
#     Edge 20, Type (0, 1), BuildingBlock: AJUNOK_clean_linker_0, # of connection points: 2
#     Edge 21, Type (0, 1), BuildingBlock: AJUNOK_clean_linker_0, # of connection points: 2
#     Edge 22, Type (0, 1), BuildingBlock: AJUNOK_clean_linker_0, # of connection points: 2
#     Edge 23, Type (0, 1), BuildingBlock: AJUNOK_clean_linker_0, # of connection points: 2
#     Edge 24, Type (0, 1), BuildingBlock: AJUNOK_clean_linker_0, # of connection points: 2
#     Edge 25, Type (0, 1), BuildingBlock: AJUNOK_clean_linker_0, # of connection points: 2
#     Edge 26, Type (0, 1), BuildingBlock: AJUNOK_clean_linker_0, # of connection points: 2
#     Edge 27, Type (0, 1), BuildingBlock: AJUNOK_clean_linker_0, # of connection points: 2
#     Edge 28, Type (0, 1), BuildingBlock: AJUNOK_clean_linker_0, # of connection points: 2
#     Edge 29, Type (0, 1), BuildingBlock: AJUNOK_clean_linker_0, # of connection points: 2
#     Edge 30, Type (0, 1), BuildingBlock: AJUNOK_clean_linker_0, # of connection points: 2
#     Edge 31, Type (0, 1), BuildingBlock: AJUNOK_clean_linker_0, # of connection points: 2
#     Edge 32, Type (0, 1), BuildingBlock: AJUNOK_clean_linker_0, # of connection points: 2
#     Edge 33, Type (0, 1), BuildingBlock: AJUNOK_clean_linker_0, # of connection points: 2
#     Edge 34, Type (0, 1), BuildingBlock: AJUNOK_clean_linker_0, # of connection points: 2
#     Edge 35, Type (0, 1), BuildingBlock: AJUNOK_clean_linker_0, # of connection points: 2
# Relax obj value: 0.086
# Max RMSD: 0.175
# Mean RMSD: 0.130
data_MOF--net-pry--node1-MIDCAF_clean_sbu_0--node2-INOVEN_clean_linker_0--edge1-AJUNOK_clean_linker_0
_symmetry_space_group_name_H-M    P1
_symmetry_Int_Tables_number       1
_symmetry_cell_setting            triclinic
loop_
_symmetry_equiv_pos_as_xyz
'x, y, z'
_cell_length_a     24.950876
_cell_length_b     25.48898
_cell_length_c     26.566655
_cell_angle_alpha  90.419978
_cell_angle_beta   90.993443
_cell_angle_gamma 96.648464
loop_
_atom_site_label
_atom_site_type_symbol
_atom_site_fract_x
_atom_site_fract_y
_atom_site_fract_z
_atom_type_partial_charge
H0 H 0.1821 0.27403 0.32298 0.0
H1 H 0.27463 0.1455 0.29529 0.0
H2 H 0.29582 0.28503 0.20313 0.0
N3 N 0.21424 0.33114 0.24534 0.0
N4 N 0.22339 0.35198 0.20344 0.0
C5 C 0.2138 0.25768 0.30277 0.0
C6 C 0.22784 0.20771 0.31564 0.0
C7 C 0.23672 0.28487 0.2613 0.0
C8 C 0.27728 0.26318 0.23432 0.0
C9 C 0.29294 0.21305 0.2468 0.0
C10 C 0.26662 0.18538 0.28701 0.0
H11 H 0.27636 0.74657 0.71858 0.0
H12 H 0.41074 0.77541 0.82272 0.0
H13 H 0.28286 0.87603 0.8223 0.0
N14 N 0.22997 0.82861 0.74077 0.0
N15 N 0.21202 0.87178 0.74747 0.0
C16 C 0.29762 0.76937 0.74885 0.0
C17 C 0.34855 0.75771 0.76549 0.0
C18 C 0.27489 0.81271 0.76777 0.0
C19 C 0.30027 0.84186 0.80836 0.0
C20 C 0.34867 0.82781 0.83012 0.0
C21 C 0.37281 0.78577 0.80782 0.0
H22 H 0.66369 0.2703 0.82126 0.0
H23 H 0.77611 0.2898 0.94579 0.0
H24 H 0.80826 0.37784 0.80951 0.0
N25 N 0.71 0.34834 0.76769 0.0
N26 N 0.73315 0.38767 0.74607 0.0
C27 C 0.70249 0.28697 0.8368 0.0
C28 C 0.71852 0.27269 0.88515 0.0
C29 C 0.73384 0.32582 0.81002 0.0
C30 C 0.78336 0.34865 0.83081 0.0
C31 C 0.79849 0.33748 0.88047 0.0
C32 C 0.7663 0.29812 0.90697 0.0
H33 H 0.70643 0.70758 0.29528 0.0
H34 H 0.72626 0.823 0.41525 0.0
H35 H 0.84358 0.82578 0.29892 0.0
N36 N 0.79693 0.73906 0.24964 0.0
N37 N 0.84106 0.75502 0.23025 0.0
C38 C 0.72771 0.74297 0.31228 0.0
C39 C 0.7093 0.76314 0.35747 0.0
C40 C 0.77562 0.76582 0.29059 0.0
C41 C 0.80486 0.81029 0.31376 0.0
C42 C 0.78667 0.83184 0.35839 0.0
C43 C 0.73866 0.80822 0.37949 0.0
H44 H 0.90113 0.98561 0.85168 0.0
H45 H 0.01594 0.87468 0.87787 0.0
H46 H 0.89207 0.89305 0.98615 0.0
N47 N 0.84751 0.96866 0.93491 0.0
N48 N 0.84425 0.98644 0.97844 0.0
C49 C 0.91652 0.95561 0.87481 0.0
C50 C 0.96183 0.93225 0.85953 0.0
C51 C 0.89204 0.94249 0.92052 0.0
C52 C 0.91154 0.90368 0.95092 0.0
C53 C 0.9559 0.87839 0.93567 0.0
C54 C 0.98126 0.89322 0.8898 0.0
H55 H 0.56196 0.1762 0.39847 0.0
H56 H 0.67558 0.06311 0.37787 0.0
H57 H 0.69081 0.16831 0.50632 0.0
N58 N 0.60433 0.21854 0.48235 0.0
N59 N 0.63279 0.24776 0.5127 0.0
C60 C 0.59738 0.15859 0.4109 0.0
C61 C 0.6159 0.11815 0.3823 0.0
C62 C 0.62433 0.17698 0.45531 0.0
C63 C 0.66994 0.15405 0.47189 0.0
C64 C 0.6886 0.11256 0.4444 0.0
C65 C 0.66143 0.09488 0.39943 0.0
H66 H 0.50147 0.71213 0.16194 0.0
H67 H 0.37545 0.67527 0.05072 0.0
H68 H 0.38905 0.57237 0.17687 0.0
N69 N 0.47465 0.63114 0.22043 0.0
N70 N 0.47474 0.58568 0.23722 0.0
C71 C 0.46794 0.68548 0.14678 0.0
C72 C 0.44157 0.69802 0.10216 0.0
C73 C 0.45006 0.63989 0.17329 0.0
C74 C 0.40479 0.60649 0.15532 0.0
C75 C 0.37798 0.61892 0.11091 0.0
C76 C 0.39698 0.66448 0.0842 0.0
H77 H 0.053 0.36082 0.65163 0.0
H78 H 0.19478 0.40697 0.56553 0.0
H79 H 0.14748 0.51007 0.68164 0.0
N80 N 0.06159 0.4445 0.7112 0.0
N81 N 0.05236 0.48952 0.72429 0.0
C82 C 0.08648 0.38995 0.64233 0.0
C83 C 0.12189 0.3793 0.60418 0.0
C84 C 0.09475 0.43726 0.66963 0.0
C85 C 0.1395 0.47422 0.65924 0.0
C86 C 0.17553 0.46363 0.62161 0.0
C87 C 0.16638 0.41609 0.59386 0.0
Zn88 Zn 0.96306 0.1019 0.60825 0.0
Zn89 Zn 0.05944 0.97585 0.4962 0.0
Zn90 Zn 0.01439 0.04643 0.54781 0.0
C91 C 0.1061 0.07764 0.46524 0.0
C92 C 0.95177 0.96412 0.46734 0.0
O93 O 0.01949 0.01894 0.62886 0.0
O94 O 0.97582 0.07224 0.67478 0.0
C95 C 0.04411 0.16954 0.56003 0.0
O96 O 0.07742 0.09397 0.50101 0.0
O97 O 0.10469 0.0287 0.45651 0.0
O98 O 0.99367 0.94157 0.46175 0.0
O99 O 0.95215 0.00441 0.49698 0.0
O100 O 0.00634 0.16848 0.59106 0.0
O101 O 0.05517 0.12696 0.53813 0.0
O102 O 0.92753 0.04443 0.52132 0.0
O103 O 0.8896 0.08994 0.5792 0.0
C104 C 0.88583 0.06403 0.53844 0.0
O105 O 0.05283 0.99195 0.59938 0.0
O106 O 0.09267 0.93763 0.55106 0.0
C107 C 1.00248 0.03329 0.67202 0.0
C108 C 0.082 0.95358 0.59442 0.0
Zn109 Zn 0.45851 0.081 0.01234 0.0
Zn110 Zn 0.58106 0.98764 0.11535 0.0
Zn111 Zn 0.52288 0.03714 0.06817 0.0
C112 C 0.65374 0.04558 0.06249 0.0
C113 C 0.52385 0.90992 0.0653 0.0
O114 O 0.47525 0.08414 0.12206 0.0
O115 O 0.4156 0.10687 0.06657 0.0
C116 C 0.56244 0.12839 0.99068 0.0
O117 O 0.60853 0.05434 0.04147 0.0
O118 O 0.65339 0.02288 0.10436 0.0
O119 O 0.56914 0.91624 0.08743 0.0
O120 O 0.49867 0.95048 0.05637 0.0
O121 O 0.51338 0.13382 0.98269 0.0
O122 O 0.57507 0.09084 0.01919 0.0
O123 O 0.46969 0.97699 0.02086 0.0
O124 O 0.42383 0.02295 0.96872 0.0
C125 C 0.43632 0.97897 0.98332 0.0
O126 O 0.51948 0.06039 0.15011 0.0
O127 O 0.55677 0.99424 0.18359 0.0
C128 C 0.43245 0.10668 0.11163 0.0
C129 C 0.53572 0.03634 0.18928 0.0
Zn130 Zn 0.58212 0.62346 0.61058 0.0
Zn131 Zn 0.45681 0.47831 0.51936 0.0
Zn132 Zn 0.51432 0.55004 0.56121 0.0
C133 C 0.52383 0.42236 0.56532 0.0
C134 C 0.50496 0.5336 0.44164 0.0
O135 O 0.46595 0.59163 0.61574 0.0
O136 O 0.52781 0.64392 0.65895 0.0
C137 C 0.61842 0.52564 0.62812 0.0
O138 O 0.54468 0.47084 0.57149 0.0
O139 O 0.47571 0.41283 0.54964 0.0
O140 O 0.48058 0.48851 0.44987 0.0
O141 O 0.51844 0.56538 0.4789 0.0
O142 O 0.63351 0.57427 0.6347 0.0
O143 O 0.57482 0.5104 0.60277 0.0
O144 O 0.55142 0.60534 0.50491 0.0
O145 O 0.59951 0.66817 0.54985 0.0
C146 C 0.58213 0.64951 0.50767 0.0
O147 O 0.43041 0.55431 0.58797 0.0
O148 O 0.38607 0.49989 0.53264 0.0
C149 C 0.4791 0.62551 0.65157 0.0
C150 C 0.3856 0.53305 0.56793 0.0
Zn151 Zn 0.09461 0.62497 0.98137 0.0
Zn152 Zn 0.97934 0.51057 0.10251 0.0
Zn153 Zn 0.03525 0.57088 0.03756 0.0
C154 C 0.08383 0.49808 0.12756 0.0
C155 C 0.95118 0.46876 0.00732 0.0
O156 O 0.01533 0.65582 0.0383 0.0
O157 O 0.08679 0.69725 1.00222 0.0
C158 C 0.16578 0.57674 0.03419 0.0
O159 O 0.08997 0.52884 0.089 0.0
O160 O 0.03741 0.48648 0.14527 0.0
O161 O 0.94342 0.45821 0.05314 0.0
O162 O 0.98318 0.5097 0.99466 0.0
O163 O 0.16524 0.60086 0.99305 0.0
O164 O 0.12135 0.56462 0.05783 0.0
O165 O 0.01484 0.5407 0.96027 0.0
O166 O 0.05886 0.60459 0.91673 0.0
C167 C 0.02693 0.56257 0.91778 0.0
O168 O 0.98644 0.62489 0.07744 0.0
O169 O 0.93857 0.56813 0.12642 0.0
C170 C 0.04184 0.69912 0.02258 0.0
C171 C 0.9497 0.6147 0.11061 0.0
C172 C 0.17112 0.12605 0.34322 0.0
C173 C 0.19751 0.17629 0.35532 0.0
C174 C 0.14143 0.09566 0.37912 0.0
C175 C 0.13683 0.11378 0.42908 0.0
H176 H 0.17287 0.11026 0.30538 0.0
H177 H 0.12158 0.05739 0.3673 0.0
S178 S 0.20191 0.24145 0.48075 0.0
N179 N 0.21877 0.24264 0.4209 0.0
N180 N 0.16423 0.18451 0.48901 0.0
C181 C 0.16347 0.16387 0.44183 0.0
C182 C 0.19346 0.19528 0.40486 0.0
C183 C 0.34092 0.87764 0.91173 0.0
C184 C 0.37409 0.85931 0.87437 0.0
C185 C 0.36188 0.91372 0.94939 0.0
C186 C 0.41718 0.9316 0.95254 0.0
H187 H 0.29784 0.86558 0.91082 0.0
H188 H 0.33428 0.92923 0.97515 0.0
S189 S 0.52267 0.8946 0.86723 0.0
N190 N 0.46627 0.86185 0.84467 0.0
N191 N 0.5054 0.92696 0.91736 0.0
C192 C 0.45146 0.91135 0.91786 0.0
C193 C 0.43008 0.87572 0.87849 0.0
C194 C 0.65053 0.40472 0.69957 0.0
C195 C 0.70637 0.41593 0.70943 0.0
C196 C 0.62266 0.43956 0.67147 0.0
C197 C 0.64961 0.48649 0.65222 0.0
H198 H 0.62774 0.37037 0.71569 0.0
H199 H 0.57932 0.43088 0.66692 0.0
S200 S 0.79638 0.5303 0.66356 0.0
N201 N 0.78797 0.47445 0.69515 0.0
N202 N 0.73595 0.53986 0.6416 0.0
C203 C 0.7058 0.4965 0.65969 0.0
C204 C 0.73404 0.46103 0.68829 0.0
C205 C 0.8387 0.67537 0.17654 0.0
C206 C 0.86428 0.72482 0.19283 0.0
C207 C 0.8659 0.64171 0.14693 0.0
C208 C 0.91958 0.65605 0.13227 0.0
H209 H 0.79836 0.66141 0.18859 0.0
H210 H 0.84539 0.60305 0.1372 0.0
S211 S 1.00227 0.78332 0.16142 0.0
N212 N 0.9442 0.78832 0.18905 0.0
N213 N 0.99585 0.72463 0.13367 0.0
C214 C 0.94431 0.7067 0.14557 0.0
C215 C 0.91645 0.7411 0.17583 0.0
C216 C 0.33251 0.19545 0.16247 0.0
C217 C 0.33256 0.18772 0.21485 0.0
C218 C 0.36622 0.17037 0.13086 0.0
C219 C 0.40139 0.13496 0.14928 0.0
H220 H 0.305 0.22001 0.14499 0.0
H221 H 0.36362 0.1784 0.09096 0.0
S222 S 0.41818 0.1006 0.28361 0.0
N223 N 0.37383 0.14387 0.2843 0.0
N224 N 0.43305 0.09293 0.22388 0.0
C225 C 0.40219 0.12675 0.20155 0.0
C226 C 0.36879 0.15374 0.23436 0.0
C227 C 0.16024 0.94088 0.71668 0.0
C228 C 0.1708 0.88794 0.71512 0.0
C229 C 0.12835 0.9615 0.67917 0.0
C230 C 0.10598 0.92964 0.63884 0.0
H231 H 0.17946 0.96725 0.7455 0.0
H232 H 0.12402 1.00328 0.68012 0.0
S233 S 0.11288 0.78606 0.62219 0.0
N234 N 0.14967 0.80221 0.6734 0.0
N235 N 0.09054 0.84118 0.60307 0.0
C236 C 0.11277 0.87572 0.63897 0.0
C237 C 0.14487 0.85468 0.67712 0.0
C238 C 0.87668 0.34893 0.94216 0.0
C239 C 0.84326 0.37139 0.90703 0.0
C240 C 0.9135 0.38069 0.97308 0.0
C241 C 0.91935 0.43597 0.96908 0.0
H242 H 0.87317 0.30652 0.94699 0.0
H243 H 0.93668 0.36194 1.00116 0.0
S244 S 0.84352 0.51523 0.88303 0.0
N245 N 0.81914 0.45343 0.87065 0.0
N246 N 0.89071 0.51216 0.92682 0.0
C247 C 0.8886 0.45901 0.93261 0.0
C248 C 0.85002 0.42697 0.90199 0.0
C249 C 0.66598 0.67756 0.39244 0.0
C250 C 0.66574 0.73253 0.38664 0.0
C251 C 0.63476 0.64973 0.42914 0.0
C252 C 0.60292 0.67602 0.46175 0.0
H253 H 0.69342 0.65642 0.37117 0.0
H254 H 0.63872 0.60823 0.43451 0.0
S255 S 0.57878 0.8164 0.4556 0.0
N256 N 0.62269 0.80971 0.41084 0.0
N257 N 0.56671 0.75773 0.48179 0.0
C258 C 0.59872 0.72967 0.45383 0.0
C259 C 0.62937 0.75781 0.41568 0.0
C260 C 0.16223 0.42039 0.21865 0.0
C261 C 0.19634 0.3954 0.18681 0.0
C262 C 0.12901 0.45687 0.19962 0.0
C263 C 0.12843 0.46992 0.14814 0.0
H264 H 0.15944 0.41017 0.25807 0.0
H265 H 0.10165 0.47319 0.22508 0.0
S266 S 0.2114 0.4161 0.04984 0.0
N267 N 0.22952 0.38801 0.10234 0.0
N268 N 0.16564 0.45472 0.06604 0.0
C269 C 0.16406 0.44683 0.11651 0.0
C270 C 0.19834 0.41013 0.13607 0.0
C271 C 0.69252 0.18668 0.9287 0.0
C272 C 0.68074 0.23739 0.91541 0.0
C273 C 0.65459 0.15176 0.95408 0.0
C274 C 0.60404 0.16652 0.96727 0.0
H275 H 0.7305 0.17344 0.91808 0.0
H276 H 0.66408 0.11246 0.96166 0.0
S277 S 0.5568 0.29762 0.94514 0.0
N278 N 0.61712 0.30223 0.91988 0.0
N279 N 0.54631 0.23736 0.96811 0.0
C280 C 0.59295 0.21809 0.95562 0.0
C281 C 0.63124 0.25332 0.92963 0.0
C282 C 0.83025 0.86724 0.43942 0.0
C283 C 0.82197 0.87329 0.38718 0.0
C284 C 0.86942 0.90048 0.46634 0.0
C285 C 0.902 0.94063 0.44202 0.0
H286 H 0.80879 0.83455 0.45928 0.0
H287 H 0.87673 0.89243 0.50571 0.0
S288 S 0.89357 0.97729 0.30783 0.0
N289 N 0.84616 0.92693 0.31372 0.0
N290 N 0.92215 0.98724 0.36418 0.0
C291 C 0.89272 0.94907 0.39072 0.0
C292 C 0.85209 0.91593 0.36333 0.0
C293 C 0.41005 0.68525 0.76041 0.0
C294 C 0.37739 0.71924 0.73595 0.0
C295 C 0.44039 0.65202 0.73289 0.0
C296 C 0.43793 0.65008 0.67994 0.0
H297 H 0.4132 0.68506 0.8011 0.0
H298 H 0.4672 0.62872 0.75315 0.0
S299 S 0.36127 0.73138 0.59679 0.0
N300 N 0.34758 0.75006 0.65431 0.0
N301 N 0.4011 0.68454 0.60389 0.0
C302 C 0.40431 0.68207 0.65495 0.0
C303 C 0.37495 0.71734 0.68258 0.0
C304 C 0.97986 0.92374 0.76718 0.0
C305 C 0.98887 0.95202 0.81286 0.0
C306 C 0.99031 0.94884 0.72061 0.0
C307 C 0.00937 1.00299 0.71861 0.0
H308 H 0.96061 0.88341 0.76728 0.0
H309 H 0.97882 0.92707 0.68617 0.0
S310 S 0.04767 0.09158 0.82778 0.0
N311 N 0.02469 0.03463 0.85321 0.0
N312 N 0.04352 0.08178 0.76624 0.0
C313 C 0.0231 0.02999 0.76413 0.0
C314 C 0.01301 0.00449 0.81116 0.0
C315 C 0.56824 0.0464 0.32805 0.0
C316 C 0.58738 0.09997 0.33468 0.0
C317 C 0.54574 0.02724 0.2819 0.0
C318 C 0.54221 0.06073 0.24021 0.0
H319 H 0.57214 0.01878 0.35835 0.0
H320 H 0.53398 0.98512 0.27794 0.0
S321 S 0.58247 0.20536 0.23968 0.0
N322 N 0.59733 0.18731 0.2974 0.0
N323 N 0.55642 0.15092 0.20994 0.0
C324 C 0.55826 0.11502 0.24729 0.0
C325 C 0.5806 0.13469 0.29467 0.0
C326 C 0.49845 0.61556 0.32431 0.0
C327 C 0.49423 0.57624 0.28635 0.0
C328 C 0.50686 0.60254 0.3749 0.0
C329 C 0.51154 0.55007 0.38871 0.0
H330 H 0.49164 0.65567 0.31545 0.0
H331 H 0.50552 0.63285 0.40348 0.0
S332 S 0.51269 0.43556 0.30166 0.0
N333 N 0.50152 0.48516 0.26476 0.0
N334 N 0.519 0.46049 0.3593 0.0
C335 C 0.51227 0.51179 0.35029 0.0
C336 C 0.50309 0.52499 0.29922 0.0
C337 C 0.01411 0.55095 0.77841 0.0
C338 C 0.02672 0.4996 0.77003 0.0
C339 C 0.00623 0.56926 0.8271 0.0
C340 C 0.01138 0.53677 0.86908 0.0
H341 H 0.01537 0.57861 0.74756 0.0
H342 H 1.0016 0.6107 0.83231 0.0
S343 S 0.03198 0.3952 0.86622 0.0
N344 N 0.03392 0.41312 0.8066 0.0
N345 N 0.02091 0.44832 0.89857 0.0
C346 C 0.01704 0.48329 0.86072 0.0
C347 C 0.02453 0.4644 0.81089 0.0
C348 C 0.7498 0.00531 0.9664 0.0
C349 C 0.79897 0.0112 0.99394 0.0
C350 C 0.70313 0.02264 0.98651 0.0
C351 C 0.70434 0.04719 0.03424 0.0
H352 H 0.74643 0.98418 0.93077 0.0
H353 H 0.66508 0.01294 0.96637 0.0
S354 S 0.82487 0.07771 0.11752 0.0
N355 N 0.8473 0.04716 0.06844 0.0
N356 N 0.76007 0.08092 0.10589 0.0
C357 C 0.75429 0.05694 0.05994 0.0
C358 C 0.80143 0.03861 0.03983 0.0
C359 C 0.73802 0.07229 0.51407 0.0
C360 C 0.73651 0.08852 0.46365 0.0
C361 C 0.78582 0.05926 0.53662 0.0
C362 C 0.83413 0.06177 0.5097 0.0
H363 H 0.70255 0.07224 0.53704 0.0
H364 H 0.78573 0.0502 0.57642 0.0
S365 S 0.8508 0.0981 0.37559 0.0
N366 N 0.78651 0.10281 0.38634 0.0
N367 N 0.87667 0.07845 0.42895 0.0
C368 C 0.83235 0.07415 0.45826 0.0
C369 C 0.78344 0.08755 0.43518 0.0
C370 C 0.2813 0.59001 0.12756 0.0
C371 C 0.3256 0.58987 0.09552 0.0
C372 C 0.22833 0.5797 0.10849 0.0
C373 C 0.21857 0.56929 0.05692 0.0
H374 H 0.28743 0.6031 0.16634 0.0
H375 H 0.19523 0.58498 0.13318 0.0
S376 S 0.32098 0.55119 0.96084 0.0
N377 N 0.35652 0.56857 0.01255 0.0
N378 N 0.25702 0.54921 0.97653 0.0
C379 C 0.26253 0.56259 0.02613 0.0
C380 C 0.31619 0.57291 0.04553 0.0
C381 C 0.26769 0.50236 0.65004 0.0
C382 C 0.22561 0.49932 0.61376 0.0
C383 C 0.32062 0.52243 0.63751 0.0
C384 C 0.33243 0.53972 0.58841 0.0
H385 H 0.26072 0.48452 0.68659 0.0
H386 H 0.35307 0.51842 0.66434 0.0
S387 S 0.23404 0.5512 0.48415 0.0
N388 N 0.19738 0.52367 0.5302 0.0
N389 N 0.29651 0.56172 0.50671 0.0
C390 C 0.28935 0.54335 0.55432 0.0
C391 C 0.23589 0.52266 0.56687 0.0
C392 C 0.94149 0.79027 0.97899 0.0
C393 C 0.9757 0.83645 0.96749 0.0
C394 C 0.96173 0.74714 1.00277 0.0
C395 C 0.01681 0.74898 0.01609 0.0
H396 H 0.89956 0.7862 0.96674 0.0
H397 H 0.93505 0.71082 0.00693 0.0
S398 S 0.12007 0.86529 1.00409 0.0
N399 N 0.06497 0.88438 0.9782 0.0
N400 N 0.10289 0.80431 0.0234 0.0
C401 C 0.04987 0.79709 0.00938 0.0
C402 C 0.02945 0.84047 0.98475 0.0
C403 C 0.51209 0.76245 0.06536 0.0
C404 C 0.45789 0.7491 0.07785 0.0
C405 C 0.5319 0.81463 0.05484 0.0
C406 C 0.49833 0.85532 0.05723 0.0
H407 H 0.54008 0.73299 0.06708 0.0
H408 H 0.57483 0.82382 0.04898 0.0
S409 S 0.35124 0.83891 0.0803 0.0
N410 N 0.36919 0.77878 0.08529 0.0
N411 N 0.40674 0.87747 0.06645 0.0
C412 C 0.44284 0.84152 0.0644 0.0
C413 C 0.42253 0.78812 0.07473 0.0
C414 C 0.1399 0.28578 0.59882 0.0
C415 C 0.1139 0.32727 0.57897 0.0
C416 C 0.12124 0.23309 0.58682 0.0
C417 C 0.07667 0.22061 0.55408 0.0
H418 H 0.1716 0.29389 0.62716 0.0
H419 H 0.13865 0.20195 0.60668 0.0
S420 S 0.999 0.31542 0.4881 0.0
N421 N 0.04485 0.353 0.52192 0.0
N422 N 0.01018 0.25379 0.49881 0.0
C423 C 0.05353 0.26196 0.53074 0.0
C424 C 0.07213 0.31548 0.5433 0.0
C425 C 0.55699 0.28248 0.5541 0.0
C426 C 0.61051 0.28936 0.53766 0.0
C427 C 0.53107 0.32588 0.56871 0.0
C428 C 0.55725 0.37783 0.56613 0.0
H429 H 0.53429 0.24359 0.55328 0.0
H430 H 0.4889 0.31893 0.57856 0.0
S431 S 0.69947 0.41522 0.52934 0.0
N432 N 0.69083 0.35011 0.52473 0.0
N433 N 0.64134 0.4326 0.54839 0.0
C434 C 0.61211 0.38457 0.55297 0.0
C435 C 0.6389 0.33998 0.53966 0.0
loop_
_geom_bond_atom_site_label_1
_geom_bond_atom_site_label_2
_geom_bond_distance
_geom_bond_site_symmetry_2
_ccdc_geom_bond_type
H0 C5 0.929 . S
H1 C10 0.931 . S
H2 C8 0.930 . S
N3 N4 1.234 . S
N3 C7 1.453 . S
N4 N3 1.234 . S
C5 H0 0.929 . S
C5 C6 1.373 . S
C5 C7 1.368 . S
C6 C5 1.373 . S
C6 C10 1.397 . S
C7 N3 1.453 . S
C7 C5 1.368 . S
C7 C8 1.373 . S
C8 H2 0.930 . S
C8 C7 1.373 . S
C8 C9 1.371 . S
C9 C8 1.371 . S
C9 C10 1.383 . S
C10 H1 0.931 . S
C10 C6 1.397 . S
C10 C9 1.383 . S
H11 C16 0.929 . S
H12 C21 0.931 . S
H13 C19 0.930 . S
N14 N15 1.234 . S
N14 C18 1.453 . S
N15 N14 1.234 . S
C16 H11 0.929 . S
C16 C17 1.373 . S
C16 C18 1.368 . S
C17 C16 1.373 . S
C17 C21 1.397 . S
C18 N14 1.453 . S
C18 C16 1.368 . S
C18 C19 1.373 . S
C19 H13 0.930 . S
C19 C18 1.373 . S
C19 C20 1.371 . S
C20 C19 1.371 . S
C20 C21 1.383 . S
C21 H12 0.931 . S
C21 C17 1.397 . S
C21 C20 1.383 . S
H22 C27 0.929 . S
H23 C32 0.931 . S
H24 C30 0.930 . S
N25 N26 1.234 . S
N25 C29 1.453 . S
N26 N25 1.234 . S
C27 H22 0.929 . S
C27 C28 1.373 . S
C27 C29 1.368 . S
C28 C27 1.373 . S
C28 C32 1.397 . S
C29 N25 1.453 . S
C29 C27 1.368 . S
C29 C30 1.373 . S
C30 H24 0.930 . S
C30 C29 1.373 . S
C30 C31 1.371 . S
C31 C30 1.371 . S
C31 C32 1.383 . S
C32 H23 0.931 . S
C32 C28 1.397 . S
C32 C31 1.383 . S
H33 C38 0.929 . S
H34 C43 0.931 . S
H35 C41 0.930 . S
N36 N37 1.234 . S
N36 C40 1.453 . S
N37 N36 1.234 . S
C38 H33 0.929 . S
C38 C39 1.373 . S
C38 C40 1.368 . S
C39 C38 1.373 . S
C39 C43 1.397 . S
C40 N36 1.453 . S
C40 C38 1.368 . S
C40 C41 1.373 . S
C41 H35 0.930 . S
C41 C40 1.373 . S
C41 C42 1.371 . S
C42 C41 1.371 . S
C42 C43 1.383 . S
C43 H34 0.931 . S
C43 C39 1.397 . S
C43 C42 1.383 . S
H44 C49 0.929 . S
H45 C54 0.932 1_455 S
H46 C52 0.930 1_554 S
N47 N48 1.234 1_546 S
N47 C51 1.453 1_545 S
N48 N47 1.234 1_564 S
C49 H44 0.929 . S
C49 C50 1.373 1_545 S
C49 C51 1.368 1_545 S
C50 C49 1.373 1_565 S
C50 C54 1.397 . S
C51 N47 1.453 1_565 S
C51 C49 1.368 1_565 S
C51 C52 1.373 . S
C52 H46 0.930 1_556 S
C52 C51 1.373 . S
C52 C53 1.371 . S
C53 C52 1.371 . S
C53 C54 1.383 . S
C54 H45 0.932 1_655 S
C54 C50 1.397 . S
C54 C53 1.383 . S
H55 C60 0.929 . S
H56 C65 0.931 . S
H57 C63 0.930 . S
N58 N59 1.234 . S
N58 C62 1.453 . S
N59 N58 1.234 . S
C60 H55 0.929 . S
C60 C61 1.373 . S
C60 C62 1.368 . S
C61 C60 1.373 . S
C61 C65 1.397 . S
C62 N58 1.453 . S
C62 C60 1.368 . S
C62 C63 1.373 . S
C63 H57 0.930 . S
C63 C62 1.373 . S
C63 C64 1.371 . S
C64 C63 1.371 . S
C64 C65 1.383 . S
C65 H56 0.931 . S
C65 C61 1.397 . S
C65 C64 1.383 . S
H66 C71 0.929 . S
H67 C76 0.931 . S
H68 C74 0.930 . S
N69 N70 1.234 . S
N69 C73 1.453 . S
N70 N69 1.234 . S
C71 H66 0.929 . S
C71 C72 1.373 . S
C71 C73 1.368 . S
C72 C71 1.373 . S
C72 C76 1.397 . S
C73 N69 1.453 . S
C73 C71 1.368 . S
C73 C74 1.373 . S
C74 H68 0.930 . S
C74 C73 1.373 . S
C74 C75 1.371 . S
C75 C74 1.371 . S
C75 C76 1.383 . S
C76 H67 0.931 . S
C76 C72 1.397 . S
C76 C75 1.383 . S
H77 C82 0.929 . S
H78 C87 0.931 . S
H79 C85 0.930 . S
N80 N81 1.234 . S
N80 C84 1.453 . S
N81 N80 1.234 . S
C82 H77 0.929 . S
C82 C83 1.373 . S
C82 C84 1.368 . S
C83 C82 1.373 . S
C83 C87 1.397 . S
C84 N80 1.453 . S
C84 C82 1.368 . S
C84 C85 1.373 . S
C85 H79 0.930 . S
C85 C84 1.373 . S
C85 C86 1.371 . S
C86 C85 1.371 . S
C86 C87 1.383 . S
C87 H78 0.931 . S
C87 C83 1.397 . S
C87 C86 1.383 . S
Zn88 O94 1.920 . S
Zn88 O100 1.898 . S
Zn88 O103 1.905 . S
Zn89 O97 1.905 1_565 S
Zn89 O98 1.898 . S
Zn89 O106 1.920 . S
Zn90 O93 2.080 1_455 S
Zn90 O96 2.114 . S
Zn90 O99 2.120 1_445 S
Zn90 O101 2.120 . S
Zn90 O102 2.114 1_455 S
Zn90 O105 2.080 . S
C91 O96 1.166 . S
C91 O97 1.182 . S
C92 O98 1.167 1_655 S
C92 O99 1.299 . S
O93 Zn90 2.080 1_655 S
O93 C107 1.305 . S
O94 Zn88 1.920 . S
O94 C107 1.234 . S
C95 O100 1.167 1_455 S
C95 O101 1.299 . S
O96 Zn90 2.114 . S
O96 C91 1.166 . S
O97 Zn89 1.905 1_545 S
O97 C91 1.182 . S
O98 Zn89 1.898 . S
O98 C92 1.167 1_455 S
O99 Zn90 2.120 1_665 S
O99 C92 1.299 . S
O100 Zn88 1.898 . S
O100 C95 1.167 1_655 S
O101 Zn90 2.120 . S
O101 C95 1.299 . S
O102 Zn90 2.114 1_655 S
O102 C104 1.166 . S
O103 Zn88 1.905 . S
O103 C104 1.182 . S
C104 O102 1.166 . S
C104 O103 1.182 . S
O105 Zn90 2.080 . S
O105 C108 1.305 1_545 S
O106 Zn89 1.920 . S
O106 C108 1.234 . S
C107 O93 1.305 . S
C107 O94 1.234 . S
C108 O105 1.305 1_565 S
C108 O106 1.234 . S
Zn109 O115 1.920 1_556 S
Zn109 O121 1.898 . S
Zn109 O124 1.905 . S
Zn110 O118 1.905 . S
Zn110 O119 1.898 . S
Zn110 O127 1.920 . S
Zn111 O114 2.080 . S
Zn111 O117 2.114 1_545 S
Zn111 O120 2.120 1_545 S
Zn111 O122 2.120 . S
Zn111 O123 2.114 1_544 S
Zn111 O126 2.080 . S
C112 O117 1.166 . S
C112 O118 1.182 . S
C113 O119 1.167 . S
C113 O120 1.299 . S
O114 Zn111 2.080 . S
O114 C128 1.305 . S
O115 Zn109 1.920 1_554 S
O115 C128 1.234 . S
C116 O121 1.167 1_554 S
C116 O122 1.299 . S
O117 Zn111 2.114 1_565 S
O117 C112 1.166 . S
O118 Zn110 1.905 . S
O118 C112 1.182 . S
O119 Zn110 1.898 . S
O119 C113 1.167 . S
O120 Zn111 2.120 1_565 S
O120 C113 1.299 . S
O121 Zn109 1.898 . S
O121 C116 1.167 1_556 S
O122 Zn111 2.120 . S
O122 C116 1.299 . S
O123 Zn111 2.114 1_566 S
O123 C125 1.166 . S
O124 Zn109 1.905 . S
O124 C125 1.182 1_545 S
C125 O123 1.166 . S
C125 O124 1.182 1_565 S
O126 Zn111 2.080 . S
O126 C129 1.305 . S
O127 Zn110 1.920 . S
O127 C129 1.234 1_565 S
C128 O114 1.305 . S
C128 O115 1.234 . S
C129 O126 1.305 . S
C129 O127 1.234 1_545 S
Zn130 O136 1.920 . S
Zn130 O142 1.898 . S
Zn130 O145 1.905 . S
Zn131 O139 1.905 . S
Zn131 O140 1.898 . S
Zn131 O148 1.920 . S
Zn132 O135 2.080 . S
Zn132 O138 2.114 . S
Zn132 O141 2.120 . S
Zn132 O143 2.120 . S
Zn132 O144 2.114 . S
Zn132 O147 2.080 . S
C133 O138 1.166 . S
C133 O139 1.182 . S
C134 O140 1.167 . S
C134 O141 1.299 . S
O135 Zn132 2.080 . S
O135 C149 1.305 . S
O136 Zn130 1.920 . S
O136 C149 1.234 . S
C137 O142 1.167 . S
C137 O143 1.299 . S
O138 Zn132 2.114 . S
O138 C133 1.166 . S
O139 Zn131 1.905 . S
O139 C133 1.182 . S
O140 Zn131 1.898 . S
O140 C134 1.167 . S
O141 Zn132 2.120 . S
O141 C134 1.299 . S
O142 Zn130 1.898 . S
O142 C137 1.167 . S
O143 Zn132 2.120 . S
O143 C137 1.299 . S
O144 Zn132 2.114 . S
O144 C146 1.166 . S
O145 Zn130 1.905 . S
O145 C146 1.182 . S
C146 O144 1.166 . S
C146 O145 1.182 . S
O147 Zn132 2.080 . S
O147 C150 1.305 . S
O148 Zn131 1.920 . S
O148 C150 1.234 . S
C149 O135 1.305 . S
C149 O136 1.234 . S
C150 O147 1.305 . S
C150 O148 1.234 . S
Zn151 O157 1.920 . S
Zn151 O163 1.898 . S
Zn151 O166 1.905 . S
Zn152 O160 1.905 1_655 S
Zn152 O161 1.898 . S
Zn152 O169 1.920 . S
Zn153 O156 2.080 1_554 S
Zn153 O159 2.114 . S
Zn153 O162 2.120 1_454 S
Zn153 O164 2.120 . S
Zn153 O165 2.114 1_554 S
Zn153 O168 2.080 . S
C154 O159 1.166 . S
C154 O160 1.182 . S
C155 O161 1.167 1_556 S
C155 O162 1.299 . S
O156 Zn153 2.080 1_556 S
O156 C170 1.305 . S
O157 Zn151 1.920 . S
O157 C170 1.234 . S
C158 O163 1.167 1_554 S
C158 O164 1.299 . S
O159 Zn153 2.114 . S
O159 C154 1.166 . S
O160 Zn152 1.905 1_455 S
O160 C154 1.182 . S
O161 Zn152 1.898 . S
O161 C155 1.167 1_554 S
O162 Zn153 2.120 1_656 S
O162 C155 1.299 . S
O163 Zn151 1.898 . S
O163 C158 1.167 1_556 S
O164 Zn153 2.120 . S
O164 C158 1.299 . S
O165 Zn153 2.114 1_556 S
O165 C167 1.166 . S
O166 Zn151 1.905 . S
O166 C167 1.182 . S
C167 O165 1.166 . S
C167 O166 1.182 . S
O168 Zn153 2.080 . S
O168 C171 1.305 1_455 S
O169 Zn152 1.920 . S
O169 C171 1.234 . S
C170 O156 1.305 . S
C170 O157 1.234 . S
C171 O168 1.305 1_655 S
C171 O169 1.234 . S
C172 C173 1.369 . S
C172 C174 1.419 . S
C172 H176 0.930 . S
C173 C172 1.369 . S
C173 C182 1.429 . S
C174 C172 1.419 . S
C174 C175 1.363 . S
C174 H177 0.929 . S
C175 C174 1.363 . S
C175 C181 1.428 . S
H176 C172 0.930 . S
H177 C174 0.929 . S
S178 N179 1.613 . S
S178 N180 1.610 . S
N179 S178 1.613 . S
N179 C182 1.350 . S
N180 S178 1.610 . S
N180 C181 1.351 . S
C181 C175 1.428 . S
C181 N180 1.351 . S
C181 C182 1.434 . S
C182 C173 1.429 . S
C182 N179 1.350 . S
C182 C181 1.434 . S
C183 C184 1.369 . S
C183 C185 1.419 . S
C183 H187 0.930 . S
C184 C183 1.369 . S
C184 C193 1.429 . S
C185 C183 1.419 . S
C185 C186 1.363 . S
C185 H188 0.929 . S
C186 C185 1.363 . S
C186 C192 1.428 . S
H187 C183 0.930 . S
H188 C185 0.929 . S
S189 N190 1.613 . S
S189 N191 1.610 . S
N190 S189 1.613 . S
N190 C193 1.350 . S
N191 S189 1.610 . S
N191 C192 1.351 . S
C192 C186 1.428 . S
C192 N191 1.351 . S
C192 C193 1.434 . S
C193 C184 1.429 . S
C193 N190 1.350 . S
C193 C192 1.434 . S
C194 C195 1.369 . S
C194 C196 1.419 . S
C194 H198 0.930 . S
C195 C194 1.369 . S
C195 C204 1.429 . S
C196 C194 1.419 . S
C196 C197 1.363 . S
C196 H199 0.929 . S
C197 C196 1.363 . S
C197 C203 1.428 . S
H198 C194 0.930 . S
H199 C196 0.929 . S
S200 N201 1.613 . S
S200 N202 1.610 . S
N201 S200 1.613 . S
N201 C204 1.350 . S
N202 S200 1.610 . S
N202 C203 1.351 . S
C203 C197 1.428 . S
C203 N202 1.351 . S
C203 C204 1.434 . S
C204 C195 1.429 . S
C204 N201 1.350 . S
C204 C203 1.434 . S
C205 C206 1.369 . S
C205 C207 1.419 . S
C205 H209 0.930 . S
C206 C205 1.369 . S
C206 C215 1.429 . S
C207 C205 1.419 . S
C207 C208 1.363 . S
C207 H210 0.929 . S
C208 C207 1.363 . S
C208 C214 1.428 . S
H209 C205 0.930 . S
H210 C207 0.929 . S
S211 N212 1.613 . S
S211 N213 1.610 . S
N212 S211 1.613 . S
N212 C215 1.350 . S
N213 S211 1.610 . S
N213 C214 1.351 . S
C214 C208 1.428 . S
C214 N213 1.351 . S
C214 C215 1.434 . S
C215 C206 1.429 . S
C215 N212 1.350 . S
C215 C214 1.434 . S
C216 C217 1.369 . S
C216 C218 1.419 . S
C216 H220 0.930 . S
C217 C216 1.369 . S
C217 C226 1.429 . S
C218 C216 1.419 . S
C218 C219 1.363 . S
C218 H221 0.929 . S
C219 C218 1.363 . S
C219 C225 1.428 . S
H220 C216 0.930 . S
H221 C218 0.929 . S
S222 N223 1.613 . S
S222 N224 1.610 . S
N223 S222 1.613 . S
N223 C226 1.350 . S
N224 S222 1.610 . S
N224 C225 1.351 . S
C225 C219 1.428 . S
C225 N224 1.351 . S
C225 C226 1.434 . S
C226 C217 1.429 . S
C226 N223 1.350 . S
C226 C225 1.434 . S
C227 C228 1.369 . S
C227 C229 1.419 . S
C227 H231 0.930 . S
C228 C227 1.369 . S
C228 C237 1.429 . S
C229 C227 1.419 . S
C229 C230 1.363 . S
C229 H232 0.929 1_565 S
C230 C229 1.363 . S
C230 C236 1.428 . S
H231 C227 0.930 . S
H232 C229 0.929 1_545 S
S233 N234 1.613 . S
S233 N235 1.610 . S
N234 S233 1.613 . S
N234 C237 1.350 . S
N235 S233 1.610 . S
N235 C236 1.351 . S
C236 C230 1.428 . S
C236 N235 1.351 . S
C236 C237 1.434 . S
C237 C228 1.429 . S
C237 N234 1.350 . S
C237 C236 1.434 . S
C238 C239 1.369 . S
C238 C240 1.419 . S
C238 H242 0.930 . S
C239 C238 1.369 . S
C239 C248 1.429 . S
C240 C238 1.419 . S
C240 C241 1.363 . S
C240 H243 0.929 . S
C241 C240 1.363 . S
C241 C247 1.428 . S
H242 C238 0.930 . S
H243 C240 0.929 . S
S244 N245 1.613 . S
S244 N246 1.610 . S
N245 S244 1.613 . S
N245 C248 1.350 . S
N246 S244 1.610 . S
N246 C247 1.351 . S
C247 C241 1.428 . S
C247 N246 1.351 . S
C247 C248 1.434 . S
C248 C239 1.429 . S
C248 N245 1.350 . S
C248 C247 1.434 . S
C249 C250 1.369 . S
C249 C251 1.419 . S
C249 H253 0.930 . S
C250 C249 1.369 . S
C250 C259 1.429 . S
C251 C249 1.419 . S
C251 C252 1.363 . S
C251 H254 0.929 . S
C252 C251 1.363 . S
C252 C258 1.428 . S
H253 C249 0.930 . S
H254 C251 0.929 . S
S255 N256 1.613 . S
S255 N257 1.610 . S
N256 S255 1.613 . S
N256 C259 1.350 . S
N257 S255 1.610 . S
N257 C258 1.351 . S
C258 C252 1.428 . S
C258 N257 1.351 . S
C258 C259 1.434 . S
C259 C250 1.429 . S
C259 N256 1.350 . S
C259 C258 1.434 . S
C260 C261 1.369 . S
C260 C262 1.419 . S
C260 H264 0.930 . S
C261 C260 1.369 . S
C261 C270 1.429 . S
C262 C260 1.419 . S
C262 C263 1.363 . S
C262 H265 0.929 . S
C263 C262 1.363 . S
C263 C269 1.428 . S
H264 C260 0.930 . S
H265 C262 0.929 . S
S266 N267 1.613 . S
S266 N268 1.610 . S
N267 S266 1.613 . S
N267 C270 1.350 . S
N268 S266 1.610 . S
N268 C269 1.351 . S
C269 C263 1.428 . S
C269 N268 1.351 . S
C269 C270 1.434 . S
C270 C261 1.429 . S
C270 N267 1.350 . S
C270 C269 1.434 . S
C271 C272 1.369 . S
C271 C273 1.419 . S
C271 H275 0.930 . S
C272 C271 1.369 . S
C272 C281 1.429 . S
C273 C271 1.419 . S
C273 C274 1.363 . S
C273 H276 0.929 1_556 S
C274 C273 1.363 . S
C274 C280 1.428 . S
H275 C271 0.930 . S
H276 C273 0.929 1_554 S
S277 N278 1.613 . S
S277 N279 1.610 . S
N278 S277 1.613 . S
N278 C281 1.350 . S
N279 S277 1.610 . S
N279 C280 1.351 . S
C280 C274 1.428 . S
C280 N279 1.351 . S
C280 C281 1.434 . S
C281 C272 1.429 . S
C281 N278 1.350 . S
C281 C280 1.434 . S
C282 C283 1.369 . S
C282 C284 1.419 . S
C282 H286 0.930 . S
C283 C282 1.369 . S
C283 C292 1.429 . S
C284 C282 1.419 . S
C284 C285 1.363 . S
C284 H287 0.929 . S
C285 C284 1.363 . S
C285 C291 1.428 . S
H286 C282 0.930 . S
H287 C284 0.929 . S
S288 N289 1.613 . S
S288 N290 1.610 . S
N289 S288 1.613 . S
N289 C292 1.350 . S
N290 S288 1.610 . S
N290 C291 1.351 . S
C291 C285 1.428 . S
C291 N290 1.351 . S
C291 C292 1.434 . S
C292 C283 1.429 . S
C292 N289 1.350 . S
C292 C291 1.434 . S
C293 C294 1.369 . S
C293 C295 1.419 . S
C293 H297 0.930 . S
C294 C293 1.369 . S
C294 C303 1.429 . S
C295 C293 1.419 . S
C295 C296 1.363 . S
C295 H298 0.929 . S
C296 C295 1.363 . S
C296 C302 1.428 . S
H297 C293 0.930 . S
H298 C295 0.929 . S
S299 N300 1.613 . S
S299 N301 1.610 . S
N300 S299 1.613 . S
N300 C303 1.350 . S
N301 S299 1.610 . S
N301 C302 1.351 . S
C302 C296 1.428 . S
C302 N301 1.351 . S
C302 C303 1.434 . S
C303 C294 1.429 . S
C303 N300 1.350 . S
C303 C302 1.434 . S
C304 C305 1.369 . S
C304 C306 1.419 . S
C304 H308 0.930 . S
C305 C304 1.369 . S
C305 C314 1.429 1_565 S
C306 C304 1.419 . S
C306 C307 1.363 1_565 S
C306 H309 0.929 . S
C307 C306 1.363 1_545 S
C307 C313 1.428 . S
H308 C304 0.930 . S
H309 C306 0.929 . S
S310 N311 1.613 . S
S310 N312 1.610 . S
N311 S310 1.613 . S
N311 C314 1.350 . S
N312 S310 1.610 . S
N312 C313 1.351 . S
C313 C307 1.428 . S
C313 N312 1.351 . S
C313 C314 1.434 . S
C314 C305 1.429 1_545 S
C314 N311 1.350 . S
C314 C313 1.434 . S
C315 C316 1.369 . S
C315 C317 1.419 . S
C315 H319 0.930 1_545 S
C316 C315 1.369 . S
C316 C325 1.429 . S
C317 C315 1.419 . S
C317 C318 1.363 . S
C317 H320 0.929 1_545 S
C318 C317 1.363 . S
C318 C324 1.428 . S
H319 C315 0.930 1_565 S
H320 C317 0.929 1_565 S
S321 N322 1.613 . S
S321 N323 1.610 . S
N322 S321 1.613 . S
N322 C325 1.350 . S
N323 S321 1.610 . S
N323 C324 1.351 . S
C324 C318 1.428 . S
C324 N323 1.351 . S
C324 C325 1.434 . S
C325 C316 1.429 . S
C325 N322 1.350 . S
C325 C324 1.434 . S
C326 C327 1.369 . S
C326 C328 1.419 . S
C326 H330 0.930 . S
C327 C326 1.369 . S
C327 C336 1.429 . S
C328 C326 1.419 . S
C328 C329 1.363 . S
C328 H331 0.929 . S
C329 C328 1.363 . S
C329 C335 1.428 . S
H330 C326 0.930 . S
H331 C328 0.929 . S
S332 N333 1.613 . S
S332 N334 1.610 . S
N333 S332 1.613 . S
N333 C336 1.350 . S
N334 S332 1.610 . S
N334 C335 1.351 . S
C335 C329 1.428 . S
C335 N334 1.351 . S
C335 C336 1.434 . S
C336 C327 1.429 . S
C336 N333 1.350 . S
C336 C335 1.434 . S
C337 C338 1.369 . S
C337 C339 1.419 . S
C337 H341 0.930 . S
C338 C337 1.369 . S
C338 C347 1.429 . S
C339 C337 1.419 . S
C339 C340 1.363 . S
C339 H342 0.929 . S
C340 C339 1.363 . S
C340 C346 1.428 . S
H341 C337 0.930 . S
H342 C339 0.929 . S
S343 N344 1.613 . S
S343 N345 1.610 . S
N344 S343 1.613 . S
N344 C347 1.350 . S
N345 S343 1.610 . S
N345 C346 1.351 . S
C346 C340 1.428 . S
C346 N345 1.351 . S
C346 C347 1.434 . S
C347 C338 1.429 . S
C347 N344 1.350 . S
C347 C346 1.434 . S
C348 C349 1.369 1_556 S
C348 C350 1.419 1_556 S
C348 H352 0.930 . S
C349 C348 1.369 1_554 S
C349 C358 1.429 1_545 S
C350 C348 1.419 1_554 S
C350 C351 1.363 . S
C350 H353 0.929 1_554 S
C351 C350 1.363 . S
C351 C357 1.428 1_545 S
H352 C348 0.930 . S
H353 C350 0.929 1_556 S
S354 N355 1.613 . S
S354 N356 1.610 . S
N355 S354 1.613 . S
N355 C358 1.350 . S
N356 S354 1.610 . S
N356 C357 1.351 . S
C357 C351 1.428 1_565 S
C357 N356 1.351 . S
C357 C358 1.434 . S
C358 C349 1.429 1_565 S
C358 N355 1.350 . S
C358 C357 1.434 . S
C359 C360 1.369 . S
C359 C361 1.419 . S
C359 H363 0.930 . S
C360 C359 1.369 . S
C360 C369 1.429 . S
C361 C359 1.419 . S
C361 C362 1.363 . S
C361 H364 0.929 . S
C362 C361 1.363 . S
C362 C368 1.428 . S
H363 C359 0.930 . S
H364 C361 0.929 . S
S365 N366 1.613 . S
S365 N367 1.610 . S
N366 S365 1.613 . S
N366 C369 1.350 . S
N367 S365 1.610 . S
N367 C368 1.351 . S
C368 C362 1.428 . S
C368 N367 1.351 . S
C368 C369 1.434 . S
C369 C360 1.429 . S
C369 N366 1.350 . S
C369 C368 1.434 . S
C370 C371 1.369 . S
C370 C372 1.419 . S
C370 H374 0.930 . S
C371 C370 1.369 . S
C371 C380 1.429 . S
C372 C370 1.419 . S
C372 C373 1.363 . S
C372 H375 0.929 . S
C373 C372 1.363 . S
C373 C379 1.428 . S
H374 C370 0.930 . S
H375 C372 0.929 . S
S376 N377 1.613 . S
S376 N378 1.610 . S
N377 S376 1.613 . S
N377 C380 1.350 . S
N378 S376 1.610 . S
N378 C379 1.351 . S
C379 C373 1.428 . S
C379 N378 1.351 . S
C379 C380 1.434 . S
C380 C371 1.429 . S
C380 N377 1.350 . S
C380 C379 1.434 . S
C381 C382 1.369 . S
C381 C383 1.419 . S
C381 H385 0.930 . S
C382 C381 1.369 . S
C382 C391 1.429 . S
C383 C381 1.419 . S
C383 C384 1.363 . S
C383 H386 0.929 . S
C384 C383 1.363 . S
C384 C390 1.428 . S
H385 C381 0.930 . S
H386 C383 0.929 . S
S387 N388 1.613 . S
S387 N389 1.610 . S
N388 S387 1.613 . S
N388 C391 1.350 . S
N389 S387 1.610 . S
N389 C390 1.351 . S
C390 C384 1.428 . S
C390 N389 1.351 . S
C390 C391 1.434 . S
C391 C382 1.429 . S
C391 N388 1.350 . S
C391 C390 1.434 . S
C392 C393 1.369 1_554 S
C392 C394 1.419 . S
C392 H396 0.930 . S
C393 C392 1.369 1_556 S
C393 C402 1.429 1_655 S
C394 C392 1.419 . S
C394 C395 1.363 1_654 S
C394 H397 0.929 . S
C395 C394 1.363 1_456 S
C395 C401 1.428 . S
H396 C392 0.930 . S
H397 C394 0.929 . S
S398 N399 1.613 . S
S398 N400 1.610 . S
N399 S398 1.613 . S
N399 C402 1.350 . S
N400 S398 1.610 . S
N400 C401 1.351 . S
C401 C395 1.428 . S
C401 N400 1.351 . S
C401 C402 1.434 . S
C402 C393 1.429 1_455 S
C402 N399 1.350 . S
C402 C401 1.434 . S
C403 C404 1.369 . S
C403 C405 1.419 . S
C403 H407 0.930 . S
C404 C403 1.369 . S
C404 C413 1.429 . S
C405 C403 1.419 . S
C405 C406 1.363 . S
C405 H408 0.929 . S
C406 C405 1.363 . S
C406 C412 1.428 . S
H407 C403 0.930 . S
H408 C405 0.929 . S
S409 N410 1.613 . S
S409 N411 1.610 . S
N410 S409 1.613 . S
N410 C413 1.350 . S
N411 S409 1.610 . S
N411 C412 1.351 . S
C412 C406 1.428 . S
C412 N411 1.351 . S
C412 C413 1.434 . S
C413 C404 1.429 . S
C413 N410 1.350 . S
C413 C412 1.434 . S
C414 C415 1.369 . S
C414 C416 1.419 . S
C414 H418 0.930 . S
C415 C414 1.369 . S
C415 C424 1.429 . S
C416 C414 1.419 . S
C416 C417 1.363 . S
C416 H419 0.929 . S
C417 C416 1.363 . S
C417 C423 1.428 . S
H418 C414 0.930 . S
H419 C416 0.929 . S
S420 N421 1.613 . S
S420 N422 1.610 . S
N421 S420 1.613 . S
N421 C424 1.350 1_655 S
N422 S420 1.610 . S
N422 C423 1.351 1_655 S
C423 C417 1.428 . S
C423 N422 1.351 1_455 S
C423 C424 1.434 . S
C424 C415 1.429 . S
C424 N421 1.350 1_455 S
C424 C423 1.434 . S
C425 C426 1.369 . S
C425 C427 1.419 . S
C425 H429 0.930 . S
C426 C425 1.369 . S
C426 C435 1.429 . S
C427 C425 1.419 . S
C427 C428 1.363 . S
C427 H430 0.929 . S
C428 C427 1.363 . S
C428 C434 1.428 . S
H429 C425 0.930 . S
H430 C427 0.929 . S
S431 N432 1.613 . S
S431 N433 1.610 . S
N432 S431 1.613 . S
N432 C435 1.350 . S
N433 S431 1.610 . S
N433 C434 1.351 . S
C434 C428 1.428 . S
C434 N433 1.351 . S
C434 C435 1.434 . S
C435 C426 1.429 . S
C435 N432 1.350 . S
C435 C434 1.434 . S
C173 C6 1.684 . S
C175 C91 1.554 . S
C184 C20 1.775 . S
C186 C125 1.648 . S
C197 C137 1.165 . S
C195 N26 1.213 . S
C206 N37 1.400 . S
C208 C171 1.298 . S
C219 C128 1.743 . S
C217 C9 1.876 . S
C230 C108 1.313 . S
C228 N15 1.372 . S
C241 C155 1.304 . S
C239 C31 1.453 . S
C252 C146 1.402 . S
C250 C39 1.462 . S
C261 N4 1.573 . S
C263 C154 1.491 . S
C274 C116 1.499 1_556 S
C272 C28 1.598 . S
C283 C42 1.346 . S
C285 C92 1.246 . S
C294 C17 1.634 . S
C296 C149 1.534 . S
C307 C107 1.752 . S
C305 C50 1.837 . S
C316 C61 1.628 . S
C318 C129 1.531 . S
C327 N70 1.513 . S
C329 C134 1.416 . S
C338 N81 1.382 . S
C340 C167 1.366 . S
C349 N48 1.478 1_545 S
C351 C112 1.426 1_545 S
C362 C104 1.742 . S
C360 C64 1.849 . S
C373 C158 1.476 . S
C371 C75 1.498 . S
C384 C150 1.390 . S
C382 C86 1.511 . S
C393 C53 1.783 . S
C395 C170 1.676 . S
C406 C113 1.332 . S
C404 C72 1.409 . S
C417 C95 1.529 . S
C415 C83 1.637 . S
C426 N59 1.580 . S
C428 C133 1.513 . S
