# Generated by pormake.
# Topology anh, (6,3)-cn, num edge types: 1
# Building blocks:
#     Node 0, Type 0, BuildingBlock: VOLQOD_clean_sbu_1, # of connection points: 6
#     Node 1, Type 0, BuildingBlock: VOLQOD_clean_sbu_1, # of connection points: 6
#     Node 2, Type 0, BuildingBlock: VOLQOD_clean_sbu_1, # of connection points: 6
#     Node 3, Type 1, BuildingBlock: ESEHIV_clean_linker_0, # of connection points: 3
#     Node 4, Type 1, BuildingBlock: ESEHIV_clean_linker_0, # of connection points: 3
#     Node 5, Type 1, BuildingBlock: ESEHIV_clean_linker_0, # of connection points: 3
#     Node 6, Type 1, BuildingBlock: ESEHIV_clean_linker_0, # of connection points: 3
#     Node 7, Type 1, BuildingBlock: ESEHIV_clean_linker_0, # of connection points: 3
#     Node 8, Type 1, BuildingBlock: ESEHIV_clean_linker_0, # of connection points: 3
#     Edge 9, Type (0, 1), BuildingBlock: FUNLAD_clean_linker_0, # of connection points: 2
#     Edge 10, Type (0, 1), BuildingBlock: FUNLAD_clean_linker_0, # of connection points: 2
#     Edge 11, Type (0, 1), BuildingBlock: FUNLAD_clean_linker_0, # of connection points: 2
#     Edge 12, Type (0, 1), BuildingBlock: FUNLAD_clean_linker_0, # of connection points: 2
#     Edge 13, Type (0, 1), BuildingBlock: FUNLAD_clean_linker_0, # of connection points: 2
#     Edge 14, Type (0, 1), BuildingBlock: FUNLAD_clean_linker_0, # of connection points: 2
#     Edge 15, Type (0, 1), BuildingBlock: FUNLAD_clean_linker_0, # of connection points: 2
#     Edge 16, Type (0, 1), BuildingBlock: FUNLAD_clean_linker_0, # of connection points: 2
#     Edge 17, Type (0, 1), BuildingBlock: FUNLAD_clean_linker_0, # of connection points: 2
#     Edge 18, Type (0, 1), BuildingBlock: FUNLAD_clean_linker_0, # of connection points: 2
#     Edge 19, Type (0, 1), BuildingBlock: FUNLAD_clean_linker_0, # of connection points: 2
#     Edge 20, Type (0, 1), BuildingBlock: FUNLAD_clean_linker_0, # of connection points: 2
#     Edge 21, Type (0, 1), BuildingBlock: FUNLAD_clean_linker_0, # of connection points: 2
#     Edge 22, Type (0, 1), BuildingBlock: FUNLAD_clean_linker_0, # of connection points: 2
#     Edge 23, Type (0, 1), BuildingBlock: FUNLAD_clean_linker_0, # of connection points: 2
#     Edge 24, Type (0, 1), BuildingBlock: FUNLAD_clean_linker_0, # of connection points: 2
#     Edge 25, Type (0, 1), BuildingBlock: FUNLAD_clean_linker_0, # of connection points: 2
#     Edge 26, Type (0, 1), BuildingBlock: FUNLAD_clean_linker_0, # of connection points: 2
# Relax obj value: 0.167
# Max RMSD: 0.230
# Mean RMSD: 0.114
data_MOF--net-anh--node1-VOLQOD_clean_sbu_1--node2-ESEHIV_clean_linker_0--edge1-FUNLAD_clean_linker_0
_symmetry_space_group_name_H-M    P1
_symmetry_Int_Tables_number       1
_symmetry_cell_setting            triclinic
loop_
_symmetry_equiv_pos_as_xyz
'x, y, z'
_cell_length_a     31.560672
_cell_length_b     31.289288
_cell_length_c     67.769183
_cell_angle_alpha  89.734225
_cell_angle_beta   89.926887
_cell_angle_gamma 120.4035
loop_
_atom_site_label
_atom_site_type_symbol
_atom_site_fract_x
_atom_site_fract_y
_atom_site_fract_z
_atom_type_partial_charge
O0 O 0.98901 0.53401 0.20729 0.0
Zn1 Zn -0.00793 0.55114 0.17841 0.0
O2 O 0.00282 0.50461 0.16259 0.0
Zn3 Zn 0.95033 0.46989 0.14367 0.0
Zn4 Zn 0.00493 0.45476 0.17944 0.0
Zn5 Zn 0.06402 0.54193 0.14813 0.0
O6 O 0.9734 0.48756 0.11557 0.0
O7 O 0.05362 0.53836 0.11882 0.0
O8 O 0.92763 0.54677 0.17127 0.0
O9 O 0.89957 0.48811 0.14835 0.0
O10 O 0.91481 0.39614 0.14719 0.0
O11 O 0.94881 0.3858 0.17398 0.0
O12 O 0.06829 0.45486 0.17582 0.0
O13 O 0.04788 0.62228 0.17524 0.0
O14 O 0.11 0.51801 0.15505 0.0
O15 O 0.09791 0.61352 0.15485 0.0
C16 C -0.00694 0.50101 0.21678 0.0
C17 C 0.01566 0.51568 0.10804 0.0
C18 C 0.91677 0.36814 0.16037 0.0
C19 C 0.89447 0.51821 0.15922 0.0
C20 C 0.10693 0.48334 0.16597 0.0
C21 C 0.08781 0.64068 0.1654 0.0
O22 O -0.00024 0.46909 0.2079 0.0
O23 O 0.46146 0.01293 0.44886 0.0
Zn24 Zn 0.43893 0.01189 0.47663 0.0
O25 O 0.48156 0.00351 0.49523 0.0
Zn26 Zn 0.5144 0.06124 0.51216 0.0
Zn27 Zn 0.5312 0.9952 0.48097 0.0
Zn28 Zn 0.44101 0.94554 0.51152 0.0
O29 O 0.49919 0.04313 0.54094 0.0
O30 O 0.44587 0.96233 0.54029 0.0
O31 O 0.43884 0.07529 0.48122 0.0
O32 O 0.49473 0.11087 0.50486 0.0
O33 O 0.58721 0.09588 0.50872 0.0
O34 O 0.59976 0.05082 0.48689 0.0
O35 O 0.52716 0.93048 0.48803 0.0
O36 O 0.36933 0.95537 0.47823 0.0
O37 O 0.4631 0.89647 0.50845 0.0
O38 O 0.37034 0.91053 0.50343 0.0
C39 C 0.49376 0.00532 0.44105 0.0
C40 C 0.47101 0.00238 0.54982 0.0
C41 C 0.6161 0.08813 0.49826 0.0
C42 C 0.46442 0.11144 0.49266 0.0
C43 C 0.4971 0.89476 0.49903 0.0
C44 C 0.34739 0.91808 0.48972 0.0
O45 O 0.52211 -0.00323 0.45158 0.0
O46 O 0.44624 0.4695 0.78454 0.0
Zn47 Zn 0.42953 0.44907 0.81298 0.0
O48 O 0.48667 0.48985 0.82974 0.0
Zn49 Zn 0.47045 0.52413 0.84929 0.0
Zn50 Zn 0.5414 0.53942 0.81384 0.0
Zn51 Zn 0.5059 0.44775 0.8435 0.0
O52 O 0.48241 0.50995 0.87687 0.0
O53 O 0.49965 0.45004 0.87302 0.0
O54 O 0.37043 0.45463 0.82091 0.0
O55 O 0.39967 0.5017 0.84755 0.0
O56 O 0.50551 0.59755 0.84447 0.0
O57 O 0.55347 0.6082 0.81878 0.0
O58 O 0.60366 0.53843 0.8193 0.0
O59 O 0.41126 0.3771 0.81415 0.0
O60 O 0.5764 0.47085 0.83794 0.0
O61 O 0.46599 0.37729 0.83474 0.0
C62 C 0.48619 0.49907 0.77562 0.0
C63 C 0.49181 0.47808 0.8841 0.0
C64 C 0.53663 0.62556 0.83154 0.0
C65 C 0.36467 0.47611 0.83574 0.0
C66 C 0.61099 0.50746 0.82872 0.0
C67 C 0.42959 0.35444 0.82319 0.0
O68 O 0.5257 0.52632 0.78506 0.0
H69 H 0.41968 0.9784 0.25667 0.0
H70 H 0.57696 0.06557 0.2554 0.0
H71 H 0.49674 0.01283 0.20112 0.0
C72 C 0.45367 -0.00302 0.2483 0.0
C73 C 0.45252 0.99331 0.22763 0.0
C74 C 0.49835 0.02264 0.25841 0.0
C75 C 0.54243 0.04458 0.24766 0.0
C76 C 0.54231 0.04104 0.22699 0.0
C77 C 0.49713 0.01556 0.21705 0.0
H78 H 0.56176 0.59306 0.59165 0.0
H79 H 0.49736 0.4353 0.59174 0.0
H80 H 0.525 0.51473 0.53668 0.0
C81 C 0.54797 0.55873 0.58358 0.0
C82 C 0.54463 0.55899 0.56293 0.0
C83 C 0.53108 0.51422 0.59399 0.0
C84 C 0.51165 0.46969 0.58355 0.0
C85 C 0.50986 0.4692 0.5628 0.0
C86 C 0.5269 0.51434 0.55261 0.0
H87 H 0.96645 0.5841 0.92612 0.0
H88 H 0.09402 0.56864 0.92381 0.0
H89 H 0.03797 0.59641 0.87049 0.0
C90 C -0.0038 0.58502 0.91774 0.0
C91 C -0.00139 0.5921 0.89719 0.0
C92 C 0.03052 0.57648 0.92739 0.0
C93 C 0.06807 0.57627 0.91643 0.0
C94 C 0.07123 0.58389 0.89593 0.0
C95 C 0.03654 0.59203 0.8864 0.0
H96 H 0.95398 0.39906 0.40175 0.0
H97 H 0.05164 0.5568 0.4016 0.0
H98 H 0.00533 0.47613 0.45663 0.0
C99 C 0.97649 0.43333 0.40965 0.0
C100 C 0.9769 0.43276 0.43031 0.0
C101 C 0.00394 0.47791 0.39918 0.0
C102 C 0.03122 0.5222 0.40967 0.0
C103 C 0.03205 0.52219 0.43042 0.0
C104 C 0.0052 0.47698 0.44064 0.0
H105 H 0.4196 0.00972 0.73462 0.0
H106 H 0.48625 0.91966 0.73338 0.0
H107 H 0.4748 0.98182 0.78828 0.0
C108 C 0.43708 0.99238 0.74236 0.0
C109 C 0.44503 -0.00088 0.7628 0.0
C110 C 0.45277 0.96469 0.73165 0.0
C111 C 0.47531 0.94214 0.74162 0.0
C112 C 0.48265 0.94736 0.76212 0.0
C113 C 0.46754 0.97609 0.7726 0.0
H114 H 0.40262 0.44908 0.07207 0.0
H115 H 0.5573 0.50321 0.06535 0.0
H116 H 0.49644 0.49406 0.12297 0.0
C117 C 0.43871 0.46333 0.07849 0.0
C118 C 0.44477 0.47053 0.09896 0.0
C119 C 0.47912 0.47495 0.06624 0.0
C120 C 0.52575 0.49356 0.07469 0.0
C121 C 0.53221 0.50103 0.0951 0.0
C122 C 0.49168 0.48954 0.10713 0.0
C123 C 0.14373 0.42909 0.16715 0.0
C124 C 0.14962 0.47666 0.16714 0.0
C125 C 0.18488 0.42351 0.16577 0.0
C126 C 0.23224 0.46552 0.16487 0.0
C127 C 0.23803 0.51283 0.16632 0.0
C128 C 0.19702 0.51842 0.16712 0.0
C129 C 0.27601 0.46195 0.16036 0.0
C130 C 0.2759 0.43408 0.14528 0.0
C131 C 0.32113 0.44149 0.13532 0.0
C132 C 0.31659 0.40724 0.12094 0.0
C133 C 0.35684 0.41607 0.10931 0.0
C134 C 0.40249 0.45945 0.11184 0.0
H135 H 0.37282 0.5128 0.14849 0.0
C136 C 0.40746 0.49312 0.12652 0.0
C137 C 0.36734 0.48443 0.1381 0.0
H138 H 0.44206 0.52725 0.1286 0.0
H139 H 0.10739 0.39641 0.16724 0.0
H140 H 0.17971 0.38661 0.16489 0.0
H141 H 0.27427 0.54564 0.16568 0.0
H142 H 0.20232 0.55545 0.16734 0.0
H143 H 0.31 0.48872 0.16737 0.0
H144 H 0.24103 0.40804 0.1385 0.0
H145 H 0.28146 0.37408 0.11835 0.0
H146 H 0.35213 0.38918 0.09823 0.0
C147 C 0.70143 0.12147 0.48496 0.0
C148 C 0.66879 0.12656 0.49753 0.0
C149 C 0.74842 0.16178 0.48129 0.0
C150 C 0.76342 0.20785 0.49014 0.0
C151 C 0.73223 0.21174 0.50382 0.0
C152 C 0.68554 0.17145 0.50761 0.0
C153 C 0.80664 0.25401 0.48287 0.0
C154 C 0.84542 0.25596 0.47379 0.0
C155 C 0.87992 0.30065 0.46247 0.0
C156 C 0.93081 0.32285 0.46506 0.0
C157 C 0.96284 0.36621 0.45464 0.0
C158 C 0.94416 0.3866 0.4411 0.0
H159 H 0.82233 0.30391 0.44632 0.0
C160 C 0.89337 0.3634 0.43811 0.0
C161 C 0.86149 0.321 0.44879 0.0
H162 H 0.87832 0.37868 0.42775 0.0
H163 H 0.68977 0.0873 0.47705 0.0
H164 H 0.77123 0.15763 0.47043 0.0
H165 H 0.74295 0.24687 0.51079 0.0
H166 H 0.66158 0.17661 0.51753 0.0
H167 H 0.8048 0.28776 0.48381 0.0
H168 H 0.85093 0.22441 0.47393 0.0
H169 H 0.9456 0.30738 0.47544 0.0
H170 H 0.00205 0.38369 0.45706 0.0
C171 C 0.52448 0.69541 0.84188 0.0
C172 C 0.54845 0.67769 0.82979 0.0
C173 C 0.52831 0.74107 0.83789 0.0
C174 C 0.55592 0.76992 0.82171 0.0
C175 C 0.58347 0.75429 0.8107 0.0
C176 C 0.57956 0.70853 0.81466 0.0
C177 C 0.55156 0.81347 0.81595 0.0
C178 C 0.55791 0.83063 0.79726 0.0
C179 C 0.54264 0.86583 0.79018 0.0
C180 C 0.56297 0.89188 0.77251 0.0
C181 C 0.54487 0.91996 0.76382 0.0
C182 C 0.50552 0.92215 0.77249 0.0
H183 H 0.48672 0.84893 0.81258 0.0
C184 C 0.48626 0.89753 0.79054 0.0
C185 C 0.50449 0.86955 0.79928 0.0
H186 H 0.45551 0.89792 0.79746 0.0
H187 H 0.50066 0.67295 0.85383 0.0
H188 H 0.50732 0.75251 0.84683 0.0
H189 H 0.60704 0.77643 0.79867 0.0
H190 H 0.59933 0.69648 0.8053 0.0
H191 H 0.53779 0.82836 0.82705 0.0
H192 H 0.57192 0.81616 0.78611 0.0
H193 H 0.5922 0.88953 0.76514 0.0
H194 H 0.5611 0.9392 0.75008 0.0
C195 C 0.84582 0.56151 0.15969 0.0
C196 C 0.84788 0.51792 0.15787 0.0
C197 C 0.80198 0.56091 0.15566 0.0
C198 C 0.75971 0.51644 0.15006 0.0
C199 C 0.76136 0.47254 0.14971 0.0
C200 C 0.805 0.47331 0.15337 0.0
C201 C 0.71412 0.51372 0.14297 0.0
C202 C 0.71152 0.55222 0.13556 0.0
C203 C 0.668 0.54279 0.12405 0.0
C204 C 0.64342 0.56853 0.12812 0.0
C205 C 0.59961 0.55586 0.11836 0.0
C206 C 0.5807 0.51814 0.10411 0.0
H207 H 0.66919 0.48695 0.10558 0.0
C208 C 0.60694 0.49443 0.09933 0.0
C209 C 0.65013 0.50656 0.10924 0.0
H210 H 0.59308 0.46518 0.08845 0.0
H211 H 0.87847 0.59626 0.16331 0.0
H212 H 0.80173 0.59528 0.15657 0.0
H213 H 0.72929 0.4377 0.14565 0.0
H214 H 0.80543 0.43899 0.15223 0.0
H215 H 0.682 0.47681 0.14158 0.0
H216 H 0.74168 0.59006 0.13684 0.0
H217 H 0.65703 0.59694 0.13934 0.0
H218 H 0.58012 0.57496 0.12212 0.0
C219 C 0.27269 0.83593 0.49693 0.0
C220 C 0.29624 0.8793 0.48537 0.0
C221 C 0.22917 0.79483 0.49052 0.0
C222 C 0.20818 0.79644 0.47242 0.0
C223 C 0.22957 0.84112 0.46172 0.0
C224 C 0.27304 0.88224 0.46815 0.0
C225 C 0.16949 0.75093 0.46275 0.0
C226 C 0.1413 0.70756 0.47217 0.0
C227 C 0.11275 0.66071 0.46119 0.0
C228 C 0.0678 0.62305 0.46874 0.0
C229 C 0.04142 0.57804 0.45878 0.0
C230 C 0.06017 0.56954 0.4413 0.0
H231 H 0.16731 0.67968 0.4381 0.0
C232 C 0.10586 0.60699 0.43409 0.0
C233 C 0.13176 0.65207 0.44387 0.0
H234 H 0.12208 0.60128 0.42101 0.0
H235 H 0.2894 0.83254 0.51035 0.0
H236 H 0.2144 0.76109 0.49914 0.0
H237 H 0.21414 0.84341 0.44775 0.0
H238 H 0.28995 0.91521 0.45895 0.0
H239 H 0.16644 0.75239 0.4468 0.0
H240 H 0.13984 0.70572 0.48817 0.0
H241 H 0.05281 0.62868 0.48222 0.0
H242 H 0.00609 0.55022 0.46465 0.0
C243 C 0.43123 0.27621 0.82887 0.0
C244 C 0.41198 0.30182 0.81867 0.0
C245 C 0.42155 0.22976 0.8225 0.0
C246 C 0.39213 0.20772 0.8058 0.0
C247 C 0.37045 0.23196 0.79637 0.0
C248 C 0.38003 0.2784 0.80278 0.0
C249 C 0.38912 0.16373 0.79616 0.0
C250 C 0.40106 0.13267 0.80506 0.0
C251 C 0.40934 0.09702 0.79376 0.0
C252 C 0.40171 0.05328 0.80286 0.0
C253 C 0.41257 0.02097 0.7928 0.0
C254 C 0.43207 0.0323 0.77354 0.0
H255 H 0.4373 0.14274 0.76735 0.0
C256 C 0.44021 0.07648 0.7646 0.0
C257 C 0.42892 0.10835 0.77454 0.0
H258 H 0.4566 0.08726 0.75005 0.0
H259 H 0.45582 0.29306 0.84123 0.0
H260 H 0.43977 0.21301 0.83003 0.0
H261 H 0.34776 0.21594 0.78344 0.0
H262 H 0.36446 0.29699 0.79461 0.0
H263 H 0.37921 0.1584 0.78064 0.0
H264 H 0.40636 0.13405 0.82091 0.0
H265 H 0.38734 0.04411 0.81777 0.0
H266 H 0.40561 0.98713 0.80009 0.0
C267 C 0.54698 0.85277 0.49833 0.0
C268 C 0.50195 0.85061 0.50157 0.0
C269 C 0.55236 0.8122 0.50317 0.0
C270 C 0.51243 0.76865 0.51109 0.0
C271 C 0.46685 0.76587 0.51314 0.0
C272 C 0.46169 0.80635 0.50854 0.0
C273 C 0.51679 0.72702 0.51928 0.0
C274 C 0.55772 0.72376 0.51927 0.0
C275 C 0.55917 0.68461 0.53108 0.0
C276 C 0.58042 0.65821 0.5234 0.0
C277 C 0.57732 0.6181 0.53396 0.0
C278 C 0.55367 0.60458 0.55247 0.0
H279 H 0.52253 0.69339 0.55654 0.0
C280 C 0.53492 0.63298 0.56049 0.0
C281 C 0.5379 0.67266 0.54999 0.0
H282 H 0.51606 0.62341 0.5746 0.0
H283 H 0.57861 0.88648 0.49292 0.0
H284 H 0.58815 0.81607 0.50132 0.0
H285 H 0.43535 0.73281 0.51909 0.0
H286 H 0.42629 0.80328 0.51093 0.0
H287 H 0.48442 0.69799 0.52682 0.0
H288 H 0.59 0.74918 0.5108 0.0
H289 H 0.59765 0.66736 0.50897 0.0
H290 H 0.59263 0.59719 0.52753 0.0
C291 C 0.70251 0.56234 0.82675 0.0
C292 C 0.66109 0.51542 0.83028 0.0
C293 C 0.74957 0.57115 0.8311 0.0
C294 C 0.7558 0.53295 0.83896 0.0
C295 C 0.71464 0.4853 0.84103 0.0
C296 C 0.66779 0.47666 0.83687 0.0
C297 C 0.80324 0.54117 0.84666 0.0
C298 C 0.84071 0.58553 0.85221 0.0
C299 C 0.88129 0.58886 0.86423 0.0
C300 C 0.92983 0.62663 0.86068 0.0
C301 C 0.96829 0.62858 0.87166 0.0
C302 C 0.9584 0.59351 0.88666 0.0
H303 H 0.83412 0.52619 0.88312 0.0
C304 C 0.90958 0.55712 0.89073 0.0
C305 C 0.87142 0.55479 0.87964 0.0
H306 H 0.90096 0.52943 0.90211 0.0
H307 H 0.69845 0.5928 0.82147 0.0
H308 H 0.78051 0.60802 0.82869 0.0
H309 H 0.7184 0.45504 0.84682 0.0
H310 H 0.63666 0.43986 0.83943 0.0
H311 H 0.80547 0.50827 0.8499 0.0
H312 H 0.84105 0.61963 0.84888 0.0
H313 H 0.93807 0.65371 0.84908 0.0
H314 H 0.00571 0.65717 0.86835 0.0
C315 C 0.12257 0.72324 0.18212 0.0
C316 C 0.12524 0.69388 0.1671 0.0
C317 C 0.16184 0.7713 0.18531 0.0
C318 C 0.20458 0.79077 0.17351 0.0
C319 C 0.2054 0.76262 0.15763 0.0
C320 C 0.16638 0.71475 0.15449 0.0
C321 C 0.25061 0.83791 0.17798 0.0
C322 C 0.26071 0.86029 0.19567 0.0
C323 C 0.31097 0.89916 0.20146 0.0
C324 C 0.31658 0.93278 0.21625 0.0
C325 C 0.36292 0.96519 0.22403 0.0
C326 C 0.40461 0.96398 0.21744 0.0
H327 H 0.35001 0.87299 0.18328 0.0
C328 C 0.39924 0.93152 0.20212 0.0
C329 C 0.35295 0.89942 0.19422 0.0
H330 H 0.43036 0.92899 0.19693 0.0
H331 H 0.09107 0.70846 0.19192 0.0
H332 H 0.15872 0.79223 0.19728 0.0
H333 H 0.23742 0.77673 0.14813 0.0
H334 H 0.16936 0.6935 0.14256 0.0
H335 H 0.27936 0.85197 0.16681 0.0
H336 H 0.23247 0.84808 0.20694 0.0
H337 H 0.28484 0.93316 0.22215 0.0
H338 H 0.36589 0.99033 0.2356 0.0
C339 C 0.41285 0.15083 0.49362 0.0
C340 C 0.45926 0.15538 0.49192 0.0
C341 C 0.40907 0.19312 0.4961 0.0
C342 C 0.45162 0.24025 0.49625 0.0
C343 C 0.49756 0.24481 0.49293 0.0
C344 C 0.50146 0.20258 0.49113 0.0
C345 C 0.45019 0.28415 0.50299 0.0
C346 C 0.43317 0.28401 0.52115 0.0
C347 C 0.44988 0.33064 0.53183 0.0
C348 C 0.44455 0.36914 0.52398 0.0
C349 C 0.46327 0.41391 0.53412 0.0
C350 C 0.489 0.42139 0.55198 0.0
H351 H 0.47917 0.30808 0.55591 0.0
C352 C 0.49435 0.38243 0.55958 0.0
C353 C 0.47417 0.3373 0.54979 0.0
H354 H 0.51489 0.38682 0.57293 0.0
H355 H 0.37992 0.1146 0.49427 0.0
H356 H 0.37332 0.18902 0.49872 0.0
H357 H 0.53076 0.28087 0.49316 0.0
H358 H 0.53756 0.2067 0.4897 0.0
H359 H 0.47314 0.31918 0.49537 0.0
H360 H 0.41593 0.24985 0.52977 0.0
H361 H 0.42566 0.36444 0.51011 0.0
H362 H 0.45718 0.44233 0.52798 0.0
C363 C 0.30806 0.48642 0.85788 0.0
C364 C 0.31798 0.47502 0.83904 0.0
C365 C 0.26924 0.49466 0.86078 0.0
C366 C 0.23959 0.49206 0.84488 0.0
C367 C 0.24667 0.47662 0.82638 0.0
C368 C 0.28591 0.4683 0.82343 0.0
C369 C 0.20239 0.50695 0.8477 0.0
C370 C 0.21335 0.54731 0.85849 0.0
C371 C 0.17715 0.56038 0.86586 0.0
C372 C 0.19134 0.59383 0.88161 0.0
C373 C 0.15735 0.60297 0.8909 0.0
C374 C 0.10852 0.57925 0.88447 0.0
H375 H 0.11659 0.51357 0.84633 0.0
C376 C 0.09479 0.54808 0.86796 0.0
C377 C 0.12879 0.53861 0.85871 0.0
H378 H 0.05724 0.52931 0.86273 0.0
H379 H 0.33143 0.49072 0.87031 0.0
H380 H 0.26327 0.50447 0.87541 0.0
H381 H 0.22351 0.47348 0.81403 0.0
H382 H 0.29264 0.45928 0.80878 0.0
H383 H 0.16626 0.4838 0.84141 0.0
H384 H 0.25086 0.5701 0.86372 0.0
H385 H 0.22845 0.6115 0.88732 0.0
H386 H 0.16894 0.62765 0.90345 0.0
C387 C 0.87722 0.2838 0.17607 0.0
C388 C 0.87721 0.31547 0.1613 0.0
C389 C 0.83569 0.23717 0.17928 0.0
C390 C 0.793 0.22154 0.16792 0.0
C391 C 0.79471 0.25143 0.15208 0.0
C392 C 0.83628 0.29789 0.1488 0.0
C393 C 0.74487 0.17712 0.17304 0.0
C394 C 0.73378 0.15683 0.19125 0.0
C395 C 0.68298 0.12135 0.19802 0.0
C396 C 0.67655 0.09171 0.21463 0.0
C397 C 0.6304 0.06375 0.22345 0.0
C398 C 0.58964 0.06532 0.216 0.0
H399 H 0.64525 0.14449 0.17753 0.0
C400 C 0.59551 0.09324 0.19886 0.0
C401 C 0.64172 0.1211 0.18997 0.0
H402 H 0.56498 0.09571 0.19291 0.0
H403 H 0.90854 0.29577 0.18571 0.0
H404 H 0.837 0.21444 0.19105 0.0
H405 H 0.76274 0.24012 0.14287 0.0
H406 H 0.83515 0.32102 0.13711 0.0
H407 H 0.71611 0.16414 0.162 0.0
H408 H 0.76217 0.16887 0.20237 0.0
H409 H 0.70767 0.09135 0.22118 0.0
H410 H 0.62689 0.04191 0.23645 0.0
C411 C 0.98138 0.49444 0.07382 0.0
C412 C 0.0203 0.52473 0.08649 0.0
C413 C 0.98471 0.50496 0.05363 0.0
C414 C 0.02694 0.54621 0.04574 0.0
C415 C 0.06574 0.57642 0.05838 0.0
C416 C 0.06273 0.56555 0.07852 0.0
C417 C 0.03075 0.55983 0.02459 0.0
C418 C 0.0098 0.52595 0.01025 0.0
C419 C 0.01509 0.53981 0.9891 0.0
C420 C 0.01809 0.50839 0.9752 0.0
C421 C 0.02362 0.52067 0.95517 0.0
C422 C 0.02511 0.56408 0.94865 0.0
H423 H 0.01271 0.60745 0.99291 0.0
C424 C 0.02084 0.59497 0.96246 0.0
C425 C 0.01618 0.58312 0.98256 0.0
H426 H 0.02162 0.62847 0.95772 0.0
H427 H 0.94809 0.46289 0.07953 0.0
H428 H 0.95363 0.48157 0.04436 0.0
H429 H 0.09852 0.60857 0.05266 0.0
H430 H 0.09319 0.5899 0.08789 0.0
H431 H 0.05384 0.59872 0.02065 0.0
H432 H -0.00896 0.48673 0.01395 0.0
H433 H 0.01683 0.4746 0.97988 0.0
H434 H 0.02614 0.49593 0.94473 0.0
C435 C 0.46609 0.01414 0.40747 0.0
C436 C 0.49816 0.00634 0.41929 0.0
C437 C 0.46987 0.015 0.38694 0.0
C438 C 0.5062 0.00852 0.37772 0.0
C439 C 0.5378 6e-05 0.38951 0.0
C440 C 0.53402 -0.00082 0.41008 0.0
C441 C 0.51092 0.00841 0.35592 0.0
C442 C 0.4956 0.03182 0.34365 0.0
C443 C 0.49801 0.03003 0.32181 0.0
C444 C 0.46547 0.03832 0.3106 0.0
C445 C 0.46569 0.03611 0.29004 0.0
C446 C 0.49887 0.02603 0.28023 0.0
H447 H 0.55873 0.01591 0.32001 0.0
C448 C 0.53226 0.01885 0.2914 0.0
C449 C 0.53196 0.02093 0.31198 0.0
H450 H 0.55823 0.01096 0.28424 0.0
H451 H 0.43765 0.01921 0.41405 0.0
H452 H 0.44351 0.0197 0.37845 0.0
H453 H 0.56574 0.9944 0.38279 0.0
H454 H 0.55919 0.99285 0.41872 0.0
H455 H 0.52765 0.98827 0.34997 0.0
H456 H 0.47915 0.05216 0.34968 0.0
H457 H 0.43932 0.04597 0.31777 0.0
H458 H 0.44006 0.04261 0.2818 0.0
C459 C 0.53035 0.53439 0.74365 0.0
C460 C 0.48705 0.50111 0.75381 0.0
C461 C 0.53171 0.53539 0.72307 0.0
C462 C 0.48981 0.50275 0.71216 0.0
C463 C 0.44625 0.47042 0.7223 0.0
C464 C 0.44486 0.46943 0.7429 0.0
C465 C 0.48971 0.50174 0.69028 0.0
C466 C 0.53057 0.51735 0.67927 0.0
C467 C 0.52987 0.5154 0.65741 0.0
C468 C 0.57203 0.54944 0.64689 0.0
C469 C 0.57259 0.54901 0.62629 0.0
C470 C 0.53114 0.51401 0.61583 0.0
H471 H 0.45609 0.4518 0.6545 0.0
C472 C 0.48931 0.47923 0.62636 0.0
C473 C 0.48868 0.47976 0.64694 0.0
H474 H 0.45673 0.45195 0.61868 0.0
H475 H 0.56336 0.55977 0.75159 0.0
H476 H 0.56551 0.56223 0.71587 0.0
H477 H 0.41329 0.44527 0.71427 0.0
H478 H 0.4108 0.4435 0.75023 0.0
H479 H 0.45427 0.48654 0.6831 0.0
H480 H 0.56616 0.53285 0.68631 0.0
H481 H 0.60445 0.57685 0.65463 0.0
H482 H 0.60553 0.57586 0.61853 0.0
C483 C 0.43607 0.95708 0.58172 0.0
C484 C 0.46922 0.00093 0.57166 0.0
C485 C 0.43639 0.95467 0.6023 0.0
C486 C 0.46988 0.99616 0.61329 0.0
C487 C 0.50271 0.04001 0.60326 0.0
C488 C 0.50221 0.04255 0.58268 0.0
C489 C 0.47342 0.99421 0.63507 0.0
C490 C 0.43555 0.96312 0.64673 0.0
C491 C 0.44014 0.9619 0.66847 0.0
C492 C 0.39935 0.95041 0.68042 0.0
C493 C 0.40314 0.95061 0.70097 0.0
C494 C 0.44758 0.96136 0.70991 0.0
H495 H 0.51596 0.97889 0.66862 0.0
C496 C 0.48787 0.97105 0.69794 0.0
C497 C 0.48425 0.97139 0.67742 0.0
H498 H 0.52258 0.97954 0.70446 0.0
H499 H 0.41034 0.92423 0.57369 0.0
H500 H 0.41139 0.91979 0.60945 0.0
H501 H 0.5291 0.0724 0.61136 0.0
H502 H 0.52841 0.07684 0.57542 0.0
H503 H 0.50811 0.02086 0.64177 0.0
H504 H 0.39938 0.93991 0.6404 0.0
H505 H 0.3648 0.94232 0.67386 0.0
H506 H 0.37136 0.94246 0.70988 0.0
C507 C 0.47894 0.50014 0.91811 0.0
C508 C 0.49273 0.47317 0.90579 0.0
C509 C 0.47899 0.49525 0.93856 0.0
C510 C 0.49267 0.46307 0.9472 0.0
C511 C 0.50739 0.43685 0.93495 0.0
C512 C 0.50708 0.44152 0.91443 0.0
C513 C 0.49403 0.45798 0.96891 0.0
C514 C 0.46332 0.46325 0.98116 0.0
C515 C 0.46614 0.46293 0.00304 0.0
C516 C 0.44151 0.48204 0.01387 0.0
C517 C 0.44497 0.48512 0.03439 0.0
C518 C 0.47306 0.46895 0.04457 0.0
H519 H 0.51119 0.42861 0.00575 0.0
C520 C 0.4965 0.44839 0.03386 0.0
C521 C 0.49295 0.44516 0.01332 0.0
H522 H 0.51758 0.43469 0.04139 0.0
H523 H 0.46806 0.52517 0.91197 0.0
H524 H 0.46921 0.51751 0.94753 0.0
H525 H 0.51873 0.41235 0.94127 0.0
H526 H 0.51822 0.42045 0.90537 0.0
H527 H 0.52129 0.44995 0.97467 0.0
H528 H 0.43556 0.47001 0.97489 0.0
H529 H 0.42037 0.49575 0.00639 0.0
H530 H 0.42676 0.50145 0.04224 0.0
C531 C -0.00727 0.46248 0.24928 0.0
C532 C -0.0097 0.49978 0.23859 0.0
C533 C -0.00916 0.46153 0.26986 0.0
C534 C 0.98693 0.49822 0.28026 0.0
C535 C 0.98344 0.53485 0.26958 0.0
C536 C 0.98528 0.53579 0.24897 0.0
C537 C 0.98534 0.49892 0.30216 0.0
C538 C 0.00491 0.47831 0.31376 0.0
C539 C 0.00371 0.47893 0.33565 0.0
C540 C 0.00847 0.44279 0.34613 0.0
C541 C 0.00819 0.44225 0.36673 0.0
C542 C 0.00365 0.47823 0.37731 0.0
H543 H -0.0027 0.54466 0.3388 0.0
C544 C -0.00063 0.51475 0.36686 0.0
C545 C -0.00047 0.51524 0.34625 0.0
H546 H -0.00437 0.54286 0.37462 0.0
H547 H -0.00405 0.43377 0.24177 0.0
H548 H -0.0083 0.43149 0.27744 0.0
H549 H 0.97986 0.56323 0.27721 0.0
H550 H 0.98303 0.56491 0.24121 0.0
H551 H 0.96811 0.5179 0.30876 0.0
H552 H 0.02229 0.45953 0.30711 0.0
H553 H 0.01227 0.41472 0.33835 0.0
H554 H 0.01227 0.41408 0.37438 0.0
loop_
_geom_bond_atom_site_label_1
_geom_bond_atom_site_label_2
_geom_bond_distance
_geom_bond_site_symmetry_2
_ccdc_geom_bond_type
O0 Zn1 1.953 . S
O0 C16 1.225 1_655 S
Zn1 O0 1.953 . S
Zn1 O2 1.949 1_655 S
Zn1 O8 1.919 . S
Zn1 O13 1.924 1_655 S
O2 Zn1 1.949 1_455 S
O2 Zn3 1.923 1_455 S
O2 Zn4 1.950 . S
O2 Zn5 1.945 . S
Zn3 O2 1.923 1_655 S
Zn3 O6 1.933 . S
Zn3 O9 1.941 . S
Zn3 O10 1.965 . S
Zn4 O2 1.950 . S
Zn4 O11 1.938 1_455 S
Zn4 O12 1.906 . S
Zn4 O22 1.953 . S
Zn5 O2 1.945 . S
Zn5 O7 1.932 . S
Zn5 O14 1.977 . S
Zn5 O15 1.910 . S
O6 Zn3 1.933 . S
O6 C17 1.226 1_655 S
O7 Zn5 1.932 . S
O7 C17 1.307 . S
O8 Zn1 1.919 . S
O8 C19 1.253 . S
O9 Zn3 1.941 . S
O9 C19 1.283 . S
O10 Zn3 1.965 . S
O10 C18 1.303 . S
O11 Zn4 1.938 1_655 S
O11 C18 1.247 . S
O12 Zn4 1.906 . S
O12 C20 1.304 . S
O13 Zn1 1.924 1_455 S
O13 C21 1.311 . S
O14 Zn5 1.977 . S
O14 C20 1.272 . S
O15 Zn5 1.910 . S
O15 C21 1.231 . S
C16 O0 1.225 1_455 S
C16 O22 1.298 . S
C17 O6 1.226 1_455 S
C17 O7 1.307 . S
C18 O10 1.303 . S
C18 O11 1.247 . S
C19 O8 1.253 . S
C19 O9 1.283 . S
C20 O12 1.304 . S
C20 O14 1.272 . S
C21 O13 1.311 . S
C21 O15 1.231 . S
O22 Zn4 1.953 . S
O22 C16 1.298 . S
O23 Zn24 1.953 . S
O23 C39 1.225 . S
Zn24 O23 1.953 . S
Zn24 O25 1.949 . S
Zn24 O31 1.919 . S
Zn24 O36 1.924 1_545 S
O25 Zn24 1.949 . S
O25 Zn26 1.923 . S
O25 Zn27 1.950 1_545 S
O25 Zn28 1.945 1_545 S
Zn26 O25 1.923 . S
Zn26 O29 1.933 . S
Zn26 O32 1.941 . S
Zn26 O33 1.965 . S
Zn27 O25 1.950 1_565 S
Zn27 O34 1.938 1_565 S
Zn27 O35 1.906 . S
Zn27 O45 1.953 . S
Zn28 O25 1.945 1_565 S
Zn28 O30 1.932 . S
Zn28 O37 1.977 . S
Zn28 O38 1.910 . S
O29 Zn26 1.933 . S
O29 C40 1.226 . S
O30 Zn28 1.932 . S
O30 C40 1.307 1_565 S
O31 Zn24 1.919 . S
O31 C42 1.253 . S
O32 Zn26 1.941 . S
O32 C42 1.283 . S
O33 Zn26 1.965 . S
O33 C41 1.303 . S
O34 Zn27 1.938 1_545 S
O34 C41 1.247 . S
O35 Zn27 1.906 . S
O35 C43 1.304 . S
O36 Zn24 1.924 1_565 S
O36 C44 1.311 . S
O37 Zn28 1.977 . S
O37 C43 1.272 . S
O38 Zn28 1.910 . S
O38 C44 1.231 . S
C39 O23 1.225 . S
C39 O45 1.298 1_545 S
C40 O29 1.226 . S
C40 O30 1.307 1_545 S
C41 O33 1.303 . S
C41 O34 1.247 . S
C42 O31 1.253 . S
C42 O32 1.283 . S
C43 O35 1.304 . S
C43 O37 1.272 . S
C44 O36 1.311 . S
C44 O38 1.231 . S
O45 Zn27 1.953 . S
O45 C39 1.298 1_565 S
O46 Zn47 1.953 . S
O46 C62 1.225 . S
Zn47 O46 1.953 . S
Zn47 O48 1.949 . S
Zn47 O54 1.919 . S
Zn47 O59 1.924 . S
O48 Zn47 1.949 . S
O48 Zn49 1.923 . S
O48 Zn50 1.950 . S
O48 Zn51 1.945 . S
Zn49 O48 1.923 . S
Zn49 O52 1.933 . S
Zn49 O55 1.941 . S
Zn49 O56 1.965 . S
Zn50 O48 1.950 . S
Zn50 O57 1.938 . S
Zn50 O58 1.906 . S
Zn50 O68 1.953 . S
Zn51 O48 1.945 . S
Zn51 O53 1.932 . S
Zn51 O60 1.977 . S
Zn51 O61 1.910 . S
O52 Zn49 1.933 . S
O52 C63 1.226 . S
O53 Zn51 1.932 . S
O53 C63 1.307 . S
O54 Zn47 1.919 . S
O54 C65 1.253 . S
O55 Zn49 1.941 . S
O55 C65 1.283 . S
O56 Zn49 1.965 . S
O56 C64 1.303 . S
O57 Zn50 1.938 . S
O57 C64 1.247 . S
O58 Zn50 1.906 . S
O58 C66 1.304 . S
O59 Zn47 1.924 . S
O59 C67 1.311 . S
O60 Zn51 1.977 . S
O60 C66 1.272 . S
O61 Zn51 1.910 . S
O61 C67 1.231 . S
C62 O46 1.225 . S
C62 O68 1.298 . S
C63 O52 1.226 . S
C63 O53 1.307 . S
C64 O56 1.303 . S
C64 O57 1.247 . S
C65 O54 1.253 . S
C65 O55 1.283 . S
C66 O58 1.304 . S
C66 O60 1.272 . S
C67 O59 1.311 . S
C67 O61 1.231 . S
O68 Zn50 1.953 . S
O68 C62 1.298 . S
H69 C72 0.931 . S
H70 C75 0.928 . S
H71 C77 0.930 . S
C72 H69 0.931 . S
C72 C73 1.413 . S
C72 C74 1.360 1_565 S
C73 C72 1.413 . S
C73 C77 1.429 1_565 S
C74 C72 1.360 1_545 S
C74 C75 1.372 . S
C75 H70 0.928 . S
C75 C74 1.372 . S
C75 C76 1.404 . S
C76 C75 1.404 . S
C76 C77 1.391 . S
C77 H71 0.930 . S
C77 C73 1.429 1_545 S
C77 C76 1.391 . S
H78 C81 0.931 . S
H79 C84 0.928 . S
H80 C86 0.930 . S
C81 H78 0.931 . S
C81 C82 1.413 . S
C81 C83 1.360 . S
C82 C81 1.413 . S
C82 C86 1.429 . S
C83 C81 1.360 . S
C83 C84 1.372 . S
C84 H79 0.928 . S
C84 C83 1.372 . S
C84 C85 1.404 . S
C85 C84 1.404 . S
C85 C86 1.391 . S
C86 H80 0.930 . S
C86 C82 1.429 . S
C86 C85 1.391 . S
H87 C90 0.931 . S
H88 C93 0.928 . S
H89 C95 0.930 . S
C90 H87 0.931 . S
C90 C91 1.413 . S
C90 C92 1.360 1_655 S
C91 C90 1.413 . S
C91 C95 1.429 1_655 S
C92 C90 1.360 1_455 S
C92 C93 1.372 . S
C93 H88 0.928 . S
C93 C92 1.372 . S
C93 C94 1.404 . S
C94 C93 1.404 . S
C94 C95 1.391 . S
C95 H89 0.930 . S
C95 C91 1.429 1_455 S
C95 C94 1.391 . S
H96 C99 0.931 . S
H97 C102 0.928 . S
H98 C104 0.930 . S
C99 H96 0.931 . S
C99 C100 1.413 . S
C99 C101 1.360 1_655 S
C100 C99 1.413 . S
C100 C104 1.429 1_655 S
C101 C99 1.360 1_455 S
C101 C102 1.372 . S
C102 H97 0.928 . S
C102 C101 1.372 . S
C102 C103 1.404 . S
C103 C102 1.404 . S
C103 C104 1.391 . S
C104 H98 0.930 . S
C104 C100 1.429 1_455 S
C104 C103 1.391 . S
H105 C108 0.931 . S
H106 C111 0.928 . S
H107 C113 0.930 . S
C108 H105 0.931 . S
C108 C109 1.413 . S
C108 C110 1.353 1_545 S
C109 C108 1.413 . S
C109 C113 1.411 1_545 S
C110 C108 1.353 1_565 S
C110 C111 1.378 . S
C111 H106 0.928 . S
C111 C110 1.378 . S
C111 C112 1.404 . S
C112 C111 1.404 . S
C112 C113 1.408 . S
C113 H107 0.930 . S
C113 C109 1.411 1_565 S
C113 C112 1.408 . S
H114 C117 0.931 . S
H115 C120 0.928 . S
H116 C122 0.930 . S
C117 H114 0.931 . S
C117 C118 1.413 . S
C117 C119 1.360 . S
C118 C117 1.413 . S
C118 C122 1.429 . S
C119 C117 1.360 . S
C119 C120 1.372 . S
C120 H115 0.928 . S
C120 C119 1.372 . S
C120 C121 1.404 . S
C121 C120 1.404 . S
C121 C122 1.391 . S
C122 H116 0.930 . S
C122 C118 1.429 . S
C122 C121 1.391 . S
C123 C124 1.386 . S
C123 C125 1.383 . S
C123 H139 0.951 . S
C124 C123 1.386 . S
C124 C128 1.383 . S
C125 C123 1.383 . S
C125 C126 1.402 . S
C125 H140 0.951 . S
C126 C125 1.402 . S
C126 C127 1.375 . S
C126 C129 1.481 . S
C127 C126 1.375 . S
C127 C128 1.367 . S
C127 H141 0.951 . S
C128 C124 1.383 . S
C128 C127 1.367 . S
C128 H142 0.950 . S
C129 C126 1.481 . S
C129 C130 1.297 . S
C129 H143 0.950 . S
C130 C129 1.297 . S
C130 C131 1.479 . S
C130 H144 0.950 . S
C131 C130 1.479 . S
C131 C132 1.375 . S
C131 C137 1.404 . S
C132 C131 1.375 . S
C132 C133 1.369 . S
C132 H145 0.950 . S
C133 C132 1.369 . S
C133 C134 1.392 . S
C133 H146 0.951 . S
C134 C133 1.392 . S
C134 C136 1.384 . S
H135 C137 0.949 . S
C136 C134 1.384 . S
C136 C137 1.385 . S
C136 H138 0.950 . S
C137 C131 1.404 . S
C137 H135 0.949 . S
C137 C136 1.385 . S
H138 C136 0.950 . S
H139 C123 0.951 . S
H140 C125 0.951 . S
H141 C127 0.951 . S
H142 C128 0.950 . S
H143 C129 0.950 . S
H144 C130 0.950 . S
H145 C132 0.950 . S
H146 C133 0.951 . S
C147 C148 1.386 . S
C147 C149 1.383 . S
C147 H163 0.951 . S
C148 C147 1.386 . S
C148 C152 1.383 . S
C149 C147 1.383 . S
C149 C150 1.402 . S
C149 H164 0.951 . S
C150 C149 1.402 . S
C150 C151 1.375 . S
C150 C153 1.481 . S
C151 C150 1.375 . S
C151 C152 1.367 . S
C151 H165 0.951 . S
C152 C148 1.383 . S
C152 C151 1.367 . S
C152 H166 0.950 . S
C153 C150 1.481 . S
C153 C154 1.297 . S
C153 H167 0.950 . S
C154 C153 1.297 . S
C154 C155 1.479 . S
C154 H168 0.950 . S
C155 C154 1.479 . S
C155 C156 1.375 . S
C155 C161 1.404 . S
C156 C155 1.375 . S
C156 C157 1.369 . S
C156 H169 0.950 . S
C157 C156 1.369 . S
C157 C158 1.392 . S
C157 H170 0.951 . S
C158 C157 1.392 . S
C158 C160 1.384 . S
H159 C161 0.949 . S
C160 C158 1.384 . S
C160 C161 1.385 . S
C160 H162 0.950 . S
C161 C155 1.404 . S
C161 H159 0.949 . S
C161 C160 1.385 . S
H162 C160 0.950 . S
H163 C147 0.951 . S
H164 C149 0.951 . S
H165 C151 0.951 . S
H166 C152 0.950 . S
H167 C153 0.950 . S
H168 C154 0.950 . S
H169 C156 0.950 . S
H170 C157 0.951 . S
C171 C172 1.386 . S
C171 C173 1.383 . S
C171 H187 0.951 . S
C172 C171 1.386 . S
C172 C176 1.383 . S
C173 C171 1.383 . S
C173 C174 1.402 . S
C173 H188 0.951 . S
C174 C173 1.402 . S
C174 C175 1.375 . S
C174 C177 1.481 . S
C175 C174 1.375 . S
C175 C176 1.367 . S
C175 H189 0.951 . S
C176 C172 1.383 . S
C176 C175 1.367 . S
C176 H190 0.950 . S
C177 C174 1.481 . S
C177 C178 1.297 . S
C177 H191 0.950 . S
C178 C177 1.297 . S
C178 C179 1.479 . S
C178 H192 0.950 . S
C179 C178 1.479 . S
C179 C180 1.375 . S
C179 C185 1.404 . S
C180 C179 1.375 . S
C180 C181 1.369 . S
C180 H193 0.950 . S
C181 C180 1.369 . S
C181 C182 1.392 . S
C181 H194 0.951 . S
C182 C181 1.392 . S
C182 C184 1.384 . S
H183 C185 0.949 . S
C184 C182 1.384 . S
C184 C185 1.385 . S
C184 H186 0.950 . S
C185 C179 1.404 . S
C185 H183 0.949 . S
C185 C184 1.385 . S
H186 C184 0.950 . S
H187 C171 0.951 . S
H188 C173 0.951 . S
H189 C175 0.951 . S
H190 C176 0.950 . S
H191 C177 0.950 . S
H192 C178 0.950 . S
H193 C180 0.950 . S
H194 C181 0.951 . S
C195 C196 1.386 . S
C195 C197 1.383 . S
C195 H211 0.951 . S
C196 C195 1.386 . S
C196 C200 1.383 . S
C197 C195 1.383 . S
C197 C198 1.402 . S
C197 H212 0.951 . S
C198 C197 1.402 . S
C198 C199 1.375 . S
C198 C201 1.481 . S
C199 C198 1.375 . S
C199 C200 1.367 . S
C199 H213 0.951 . S
C200 C196 1.383 . S
C200 C199 1.367 . S
C200 H214 0.950 . S
C201 C198 1.481 . S
C201 C202 1.297 . S
C201 H215 0.950 . S
C202 C201 1.297 . S
C202 C203 1.479 . S
C202 H216 0.950 . S
C203 C202 1.479 . S
C203 C204 1.375 . S
C203 C209 1.404 . S
C204 C203 1.375 . S
C204 C205 1.369 . S
C204 H217 0.950 . S
C205 C204 1.369 . S
C205 C206 1.392 . S
C205 H218 0.951 . S
C206 C205 1.392 . S
C206 C208 1.384 . S
H207 C209 0.949 . S
C208 C206 1.384 . S
C208 C209 1.385 . S
C208 H210 0.950 . S
C209 C203 1.404 . S
C209 H207 0.949 . S
C209 C208 1.385 . S
H210 C208 0.950 . S
H211 C195 0.951 . S
H212 C197 0.951 . S
H213 C199 0.951 . S
H214 C200 0.950 . S
H215 C201 0.950 . S
H216 C202 0.950 . S
H217 C204 0.950 . S
H218 C205 0.951 . S
C219 C220 1.386 . S
C219 C221 1.383 . S
C219 H235 0.951 . S
C220 C219 1.386 . S
C220 C224 1.383 . S
C221 C219 1.383 . S
C221 C222 1.402 . S
C221 H236 0.951 . S
C222 C221 1.402 . S
C222 C223 1.375 . S
C222 C225 1.481 . S
C223 C222 1.375 . S
C223 C224 1.367 . S
C223 H237 0.951 . S
C224 C220 1.383 . S
C224 C223 1.367 . S
C224 H238 0.950 . S
C225 C222 1.481 . S
C225 C226 1.297 . S
C225 H239 0.950 . S
C226 C225 1.297 . S
C226 C227 1.479 . S
C226 H240 0.950 . S
C227 C226 1.479 . S
C227 C228 1.375 . S
C227 C233 1.404 . S
C228 C227 1.375 . S
C228 C229 1.369 . S
C228 H241 0.950 . S
C229 C228 1.369 . S
C229 C230 1.392 . S
C229 H242 0.951 . S
C230 C229 1.392 . S
C230 C232 1.384 . S
H231 C233 0.949 . S
C232 C230 1.384 . S
C232 C233 1.385 . S
C232 H234 0.950 . S
C233 C227 1.404 . S
C233 H231 0.949 . S
C233 C232 1.385 . S
H234 C232 0.950 . S
H235 C219 0.951 . S
H236 C221 0.951 . S
H237 C223 0.951 . S
H238 C224 0.950 . S
H239 C225 0.950 . S
H240 C226 0.950 . S
H241 C228 0.950 . S
H242 C229 0.951 . S
C243 C244 1.386 . S
C243 C245 1.383 . S
C243 H259 0.951 . S
C244 C243 1.386 . S
C244 C248 1.383 . S
C245 C243 1.383 . S
C245 C246 1.402 . S
C245 H260 0.951 . S
C246 C245 1.402 . S
C246 C247 1.375 . S
C246 C249 1.481 . S
C247 C246 1.375 . S
C247 C248 1.367 . S
C247 H261 0.951 . S
C248 C244 1.383 . S
C248 C247 1.367 . S
C248 H262 0.950 . S
C249 C246 1.481 . S
C249 C250 1.297 . S
C249 H263 0.950 . S
C250 C249 1.297 . S
C250 C251 1.479 . S
C250 H264 0.950 . S
C251 C250 1.479 . S
C251 C252 1.375 . S
C251 C257 1.404 . S
C252 C251 1.375 . S
C252 C253 1.369 . S
C252 H265 0.950 . S
C253 C252 1.369 . S
C253 C254 1.392 . S
C253 H266 0.951 . S
C254 C253 1.392 . S
C254 C256 1.384 . S
H255 C257 0.949 . S
C256 C254 1.384 . S
C256 C257 1.385 . S
C256 H258 0.950 . S
C257 C251 1.404 . S
C257 H255 0.949 . S
C257 C256 1.385 . S
H258 C256 0.950 . S
H259 C243 0.951 . S
H260 C245 0.951 . S
H261 C247 0.951 . S
H262 C248 0.950 . S
H263 C249 0.950 . S
H264 C250 0.950 . S
H265 C252 0.950 . S
H266 C253 0.951 . S
C267 C268 1.386 . S
C267 C269 1.383 . S
C267 H283 0.951 . S
C268 C267 1.386 . S
C268 C272 1.383 . S
C269 C267 1.383 . S
C269 C270 1.402 . S
C269 H284 0.951 . S
C270 C269 1.402 . S
C270 C271 1.375 . S
C270 C273 1.481 . S
C271 C270 1.375 . S
C271 C272 1.367 . S
C271 H285 0.951 . S
C272 C268 1.383 . S
C272 C271 1.367 . S
C272 H286 0.950 . S
C273 C270 1.481 . S
C273 C274 1.297 . S
C273 H287 0.950 . S
C274 C273 1.297 . S
C274 C275 1.479 . S
C274 H288 0.950 . S
C275 C274 1.479 . S
C275 C276 1.375 . S
C275 C281 1.404 . S
C276 C275 1.375 . S
C276 C277 1.369 . S
C276 H289 0.950 . S
C277 C276 1.369 . S
C277 C278 1.392 . S
C277 H290 0.951 . S
C278 C277 1.392 . S
C278 C280 1.384 . S
H279 C281 0.949 . S
C280 C278 1.384 . S
C280 C281 1.385 . S
C280 H282 0.950 . S
C281 C275 1.404 . S
C281 H279 0.949 . S
C281 C280 1.385 . S
H282 C280 0.950 . S
H283 C267 0.951 . S
H284 C269 0.951 . S
H285 C271 0.951 . S
H286 C272 0.950 . S
H287 C273 0.950 . S
H288 C274 0.950 . S
H289 C276 0.950 . S
H290 C277 0.951 . S
C291 C292 1.386 . S
C291 C293 1.383 . S
C291 H307 0.951 . S
C292 C291 1.386 . S
C292 C296 1.383 . S
C293 C291 1.383 . S
C293 C294 1.402 . S
C293 H308 0.951 . S
C294 C293 1.402 . S
C294 C295 1.375 . S
C294 C297 1.481 . S
C295 C294 1.375 . S
C295 C296 1.367 . S
C295 H309 0.951 . S
C296 C292 1.383 . S
C296 C295 1.367 . S
C296 H310 0.950 . S
C297 C294 1.481 . S
C297 C298 1.297 . S
C297 H311 0.950 . S
C298 C297 1.297 . S
C298 C299 1.479 . S
C298 H312 0.950 . S
C299 C298 1.479 . S
C299 C300 1.375 . S
C299 C305 1.404 . S
C300 C299 1.375 . S
C300 C301 1.369 . S
C300 H313 0.950 . S
C301 C300 1.369 . S
C301 C302 1.392 . S
C301 H314 0.951 . S
C302 C301 1.392 . S
C302 C304 1.384 . S
H303 C305 0.949 . S
C304 C302 1.384 . S
C304 C305 1.385 . S
C304 H306 0.950 . S
C305 C299 1.404 . S
C305 H303 0.949 . S
C305 C304 1.385 . S
H306 C304 0.950 . S
H307 C291 0.951 . S
H308 C293 0.951 . S
H309 C295 0.951 . S
H310 C296 0.950 . S
H311 C297 0.950 . S
H312 C298 0.950 . S
H313 C300 0.950 . S
H314 C301 0.951 . S
C315 C316 1.386 . S
C315 C317 1.383 . S
C315 H331 0.951 . S
C316 C315 1.386 . S
C316 C320 1.383 . S
C317 C315 1.383 . S
C317 C318 1.402 . S
C317 H332 0.951 . S
C318 C317 1.402 . S
C318 C319 1.375 . S
C318 C321 1.481 . S
C319 C318 1.375 . S
C319 C320 1.367 . S
C319 H333 0.951 . S
C320 C316 1.383 . S
C320 C319 1.367 . S
C320 H334 0.950 . S
C321 C318 1.481 . S
C321 C322 1.297 . S
C321 H335 0.950 . S
C322 C321 1.297 . S
C322 C323 1.479 . S
C322 H336 0.950 . S
C323 C322 1.479 . S
C323 C324 1.375 . S
C323 C329 1.404 . S
C324 C323 1.375 . S
C324 C325 1.369 . S
C324 H337 0.950 . S
C325 C324 1.369 . S
C325 C326 1.392 . S
C325 H338 0.951 . S
C326 C325 1.392 . S
C326 C328 1.384 . S
H327 C329 0.949 . S
C328 C326 1.384 . S
C328 C329 1.385 . S
C328 H330 0.950 . S
C329 C323 1.404 . S
C329 H327 0.949 . S
C329 C328 1.385 . S
H330 C328 0.950 . S
H331 C315 0.951 . S
H332 C317 0.951 . S
H333 C319 0.951 . S
H334 C320 0.950 . S
H335 C321 0.950 . S
H336 C322 0.950 . S
H337 C324 0.950 . S
H338 C325 0.951 . S
C339 C340 1.386 . S
C339 C341 1.383 . S
C339 H355 0.951 . S
C340 C339 1.386 . S
C340 C344 1.383 . S
C341 C339 1.383 . S
C341 C342 1.402 . S
C341 H356 0.951 . S
C342 C341 1.402 . S
C342 C343 1.375 . S
C342 C345 1.481 . S
C343 C342 1.375 . S
C343 C344 1.367 . S
C343 H357 0.951 . S
C344 C340 1.383 . S
C344 C343 1.367 . S
C344 H358 0.950 . S
C345 C342 1.481 . S
C345 C346 1.297 . S
C345 H359 0.950 . S
C346 C345 1.297 . S
C346 C347 1.479 . S
C346 H360 0.950 . S
C347 C346 1.479 . S
C347 C348 1.375 . S
C347 C353 1.404 . S
C348 C347 1.375 . S
C348 C349 1.369 . S
C348 H361 0.950 . S
C349 C348 1.369 . S
C349 C350 1.392 . S
C349 H362 0.951 . S
C350 C349 1.392 . S
C350 C352 1.384 . S
H351 C353 0.949 . S
C352 C350 1.384 . S
C352 C353 1.385 . S
C352 H354 0.950 . S
C353 C347 1.404 . S
C353 H351 0.949 . S
C353 C352 1.385 . S
H354 C352 0.950 . S
H355 C339 0.951 . S
H356 C341 0.951 . S
H357 C343 0.951 . S
H358 C344 0.950 . S
H359 C345 0.950 . S
H360 C346 0.950 . S
H361 C348 0.950 . S
H362 C349 0.951 . S
C363 C364 1.386 . S
C363 C365 1.383 . S
C363 H379 0.951 . S
C364 C363 1.386 . S
C364 C368 1.383 . S
C365 C363 1.383 . S
C365 C366 1.402 . S
C365 H380 0.951 . S
C366 C365 1.402 . S
C366 C367 1.375 . S
C366 C369 1.481 . S
C367 C366 1.375 . S
C367 C368 1.367 . S
C367 H381 0.951 . S
C368 C364 1.383 . S
C368 C367 1.367 . S
C368 H382 0.950 . S
C369 C366 1.481 . S
C369 C370 1.297 . S
C369 H383 0.950 . S
C370 C369 1.297 . S
C370 C371 1.479 . S
C370 H384 0.950 . S
C371 C370 1.479 . S
C371 C372 1.375 . S
C371 C377 1.404 . S
C372 C371 1.375 . S
C372 C373 1.369 . S
C372 H385 0.950 . S
C373 C372 1.369 . S
C373 C374 1.392 . S
C373 H386 0.951 . S
C374 C373 1.392 . S
C374 C376 1.384 . S
H375 C377 0.949 . S
C376 C374 1.384 . S
C376 C377 1.385 . S
C376 H378 0.950 . S
C377 C371 1.404 . S
C377 H375 0.949 . S
C377 C376 1.385 . S
H378 C376 0.950 . S
H379 C363 0.951 . S
H380 C365 0.951 . S
H381 C367 0.951 . S
H382 C368 0.950 . S
H383 C369 0.950 . S
H384 C370 0.950 . S
H385 C372 0.950 . S
H386 C373 0.951 . S
C387 C388 1.386 . S
C387 C389 1.383 . S
C387 H403 0.951 . S
C388 C387 1.386 . S
C388 C392 1.383 . S
C389 C387 1.383 . S
C389 C390 1.402 . S
C389 H404 0.951 . S
C390 C389 1.402 . S
C390 C391 1.375 . S
C390 C393 1.481 . S
C391 C390 1.375 . S
C391 C392 1.367 . S
C391 H405 0.951 . S
C392 C388 1.383 . S
C392 C391 1.367 . S
C392 H406 0.950 . S
C393 C390 1.481 . S
C393 C394 1.297 . S
C393 H407 0.950 . S
C394 C393 1.297 . S
C394 C395 1.479 . S
C394 H408 0.950 . S
C395 C394 1.479 . S
C395 C396 1.375 . S
C395 C401 1.404 . S
C396 C395 1.375 . S
C396 C397 1.369 . S
C396 H409 0.950 . S
C397 C396 1.369 . S
C397 C398 1.392 . S
C397 H410 0.951 . S
C398 C397 1.392 . S
C398 C400 1.384 . S
H399 C401 0.949 . S
C400 C398 1.384 . S
C400 C401 1.385 . S
C400 H402 0.950 . S
C401 C395 1.404 . S
C401 H399 0.949 . S
C401 C400 1.385 . S
H402 C400 0.950 . S
H403 C387 0.951 . S
H404 C389 0.951 . S
H405 C391 0.951 . S
H406 C392 0.950 . S
H407 C393 0.950 . S
H408 C394 0.950 . S
H409 C396 0.950 . S
H410 C397 0.951 . S
C411 C412 1.386 . S
C411 C413 1.383 . S
C411 H427 0.951 . S
C412 C411 1.386 . S
C412 C416 1.383 1_455 S
C413 C411 1.383 . S
C413 C414 1.402 1_455 S
C413 H428 0.951 . S
C414 C413 1.402 1_655 S
C414 C415 1.375 . S
C414 C417 1.481 . S
C415 C414 1.375 . S
C415 C416 1.367 . S
C415 H429 0.951 . S
C416 C412 1.383 1_655 S
C416 C415 1.367 . S
C416 H430 0.950 . S
C417 C414 1.481 . S
C417 C418 1.297 . S
C417 H431 0.950 . S
C418 C417 1.297 . S
C418 C419 1.479 1_554 S
C418 H432 0.950 . S
C419 C418 1.479 1_556 S
C419 C420 1.375 1_655 S
C419 C425 1.404 . S
C420 C419 1.375 1_455 S
C420 C421 1.369 . S
C420 H433 0.950 . S
C421 C420 1.369 . S
C421 C422 1.392 . S
C421 H434 0.951 . S
C422 C421 1.392 . S
C422 C424 1.384 1_455 S
H423 C425 0.949 . S
C424 C422 1.384 1_655 S
C424 C425 1.385 . S
C424 H426 0.950 . S
C425 C419 1.404 . S
C425 H423 0.949 . S
C425 C424 1.385 . S
H426 C424 0.950 . S
H427 C411 0.951 . S
H428 C413 0.951 . S
H429 C415 0.951 . S
H430 C416 0.950 . S
H431 C417 0.950 . S
H432 C418 0.950 . S
H433 C420 0.950 . S
H434 C421 0.951 . S
C435 C436 1.386 . S
C435 C437 1.383 . S
C435 H451 0.951 1_545 S
C436 C435 1.386 . S
C436 C440 1.383 . S
C437 C435 1.383 . S
C437 C438 1.402 . S
C437 H452 0.951 . S
C438 C437 1.402 . S
C438 C439 1.375 . S
C438 C441 1.481 . S
C439 C438 1.375 . S
C439 C440 1.367 . S
C439 H453 0.951 . S
C440 C436 1.383 . S
C440 C439 1.367 . S
C440 H454 0.950 . S
C441 C438 1.481 . S
C441 C442 1.297 . S
C441 H455 0.950 . S
C442 C441 1.297 . S
C442 C443 1.479 . S
C442 H456 0.950 . S
C443 C442 1.479 . S
C443 C444 1.375 . S
C443 C449 1.404 . S
C444 C443 1.375 . S
C444 C445 1.369 . S
C444 H457 0.950 . S
C445 C444 1.369 . S
C445 C446 1.392 . S
C445 H458 0.951 1_545 S
C446 C445 1.392 . S
C446 C448 1.384 . S
H447 C449 0.949 . S
C448 C446 1.384 . S
C448 C449 1.385 . S
C448 H450 0.950 . S
C449 C443 1.404 . S
C449 H447 0.949 . S
C449 C448 1.385 . S
H450 C448 0.950 . S
H451 C435 0.951 1_565 S
H452 C437 0.951 . S
H453 C439 0.951 . S
H454 C440 0.950 . S
H455 C441 0.950 . S
H456 C442 0.950 . S
H457 C444 0.950 . S
H458 C445 0.951 1_565 S
C459 C460 1.386 . S
C459 C461 1.383 . S
C459 H475 0.951 . S
C460 C459 1.386 . S
C460 C464 1.383 . S
C461 C459 1.383 . S
C461 C462 1.402 . S
C461 H476 0.951 . S
C462 C461 1.402 . S
C462 C463 1.375 . S
C462 C465 1.481 . S
C463 C462 1.375 . S
C463 C464 1.367 . S
C463 H477 0.951 . S
C464 C460 1.383 . S
C464 C463 1.367 . S
C464 H478 0.950 . S
C465 C462 1.481 . S
C465 C466 1.297 . S
C465 H479 0.950 . S
C466 C465 1.297 . S
C466 C467 1.479 . S
C466 H480 0.950 . S
C467 C466 1.479 . S
C467 C468 1.375 . S
C467 C473 1.404 . S
C468 C467 1.375 . S
C468 C469 1.369 . S
C468 H481 0.950 . S
C469 C468 1.369 . S
C469 C470 1.392 . S
C469 H482 0.951 . S
C470 C469 1.392 . S
C470 C472 1.384 . S
H471 C473 0.949 . S
C472 C470 1.384 . S
C472 C473 1.385 . S
C472 H474 0.950 . S
C473 C467 1.404 . S
C473 H471 0.949 . S
C473 C472 1.385 . S
H474 C472 0.950 . S
H475 C459 0.951 . S
H476 C461 0.951 . S
H477 C463 0.951 . S
H478 C464 0.950 . S
H479 C465 0.950 . S
H480 C466 0.950 . S
H481 C468 0.950 . S
H482 C469 0.951 . S
C483 C484 1.400 . S
C483 C485 1.383 . S
C483 H499 0.951 . S
C484 C483 1.400 . S
C484 C488 1.365 1_545 S
C485 C483 1.383 . S
C485 C486 1.402 1_545 S
C485 H500 0.951 . S
C486 C485 1.402 1_565 S
C486 C487 1.375 . S
C486 C489 1.481 . S
C487 C486 1.375 . S
C487 C488 1.367 . S
C487 H501 0.951 . S
C488 C484 1.365 1_565 S
C488 C487 1.367 . S
C488 H502 0.950 . S
C489 C486 1.481 . S
C489 C490 1.297 . S
C489 H503 0.950 . S
C490 C489 1.297 . S
C490 C491 1.479 . S
C490 H504 0.950 . S
C491 C490 1.479 . S
C491 C492 1.375 1_565 S
C491 C497 1.404 . S
C492 C491 1.375 1_545 S
C492 C493 1.369 . S
C492 H505 0.950 . S
C493 C492 1.369 . S
C493 C494 1.392 1_545 S
C493 H506 0.951 . S
C494 C493 1.392 1_565 S
C494 C496 1.384 . S
H495 C497 0.949 . S
C496 C494 1.384 . S
C496 C497 1.385 . S
C496 H498 0.950 . S
C497 C491 1.404 . S
C497 H495 0.949 . S
C497 C496 1.385 . S
H498 C496 0.950 . S
H499 C483 0.951 . S
H500 C485 0.951 . S
H501 C487 0.951 . S
H502 C488 0.950 . S
H503 C489 0.950 . S
H504 C490 0.950 . S
H505 C492 0.950 . S
H506 C493 0.951 . S
C507 C508 1.386 . S
C507 C509 1.383 . S
C507 H523 0.951 . S
C508 C507 1.386 . S
C508 C512 1.383 . S
C509 C507 1.383 . S
C509 C510 1.402 . S
C509 H524 0.951 . S
C510 C509 1.402 . S
C510 C511 1.375 . S
C510 C513 1.481 . S
C511 C510 1.375 . S
C511 C512 1.367 . S
C511 H525 0.951 . S
C512 C508 1.383 . S
C512 C511 1.367 . S
C512 H526 0.950 . S
C513 C510 1.481 . S
C513 C514 1.297 . S
C513 H527 0.950 . S
C514 C513 1.297 . S
C514 C515 1.479 1_556 S
C514 H528 0.950 . S
C515 C514 1.479 1_554 S
C515 C516 1.375 . S
C515 C521 1.404 . S
C516 C515 1.375 . S
C516 C517 1.369 . S
C516 H529 0.950 . S
C517 C516 1.369 . S
C517 C518 1.392 . S
C517 H530 0.951 . S
C518 C517 1.392 . S
C518 C520 1.384 . S
H519 C521 0.949 . S
C520 C518 1.384 . S
C520 C521 1.385 . S
C520 H522 0.950 . S
C521 C515 1.404 . S
C521 H519 0.949 . S
C521 C520 1.385 . S
H522 C520 0.950 . S
H523 C507 0.951 . S
H524 C509 0.951 . S
H525 C511 0.951 . S
H526 C512 0.950 . S
H527 C513 0.950 . S
H528 C514 0.950 . S
H529 C516 0.950 . S
H530 C517 0.951 . S
C531 C532 1.386 1_655 S
C531 C533 1.383 . S
C531 H547 0.951 . S
C532 C531 1.386 1_455 S
C532 C536 1.383 . S
C533 C531 1.383 . S
C533 C534 1.402 1_655 S
C533 H548 0.951 . S
C534 C533 1.402 1_455 S
C534 C535 1.375 . S
C534 C537 1.481 . S
C535 C534 1.375 . S
C535 C536 1.367 . S
C535 H549 0.951 . S
C536 C532 1.383 . S
C536 C535 1.367 . S
C536 H550 0.950 . S
C537 C534 1.481 . S
C537 C538 1.297 . S
C537 H551 0.950 . S
C538 C537 1.297 . S
C538 C539 1.479 . S
C538 H552 0.950 1_455 S
C539 C538 1.479 . S
C539 C540 1.375 1_455 S
C539 C545 1.404 . S
C540 C539 1.375 1_655 S
C540 C541 1.369 . S
C540 H553 0.950 . S
C541 C540 1.369 . S
C541 C542 1.392 1_655 S
C541 H554 0.951 . S
C542 C541 1.392 1_455 S
C542 C544 1.384 . S
H543 C545 0.949 . S
C544 C542 1.384 . S
C544 C545 1.385 . S
C544 H546 0.950 . S
C545 C539 1.404 . S
C545 H543 0.949 . S
C545 C544 1.385 . S
H546 C544 0.950 . S
H547 C531 0.951 . S
H548 C533 0.951 . S
H549 C535 0.951 . S
H550 C536 0.950 . S
H551 C537 0.950 . S
H552 C538 0.950 1_655 S
H553 C540 0.950 . S
H554 C541 0.951 . S
C124 C20 1.142 . S
C134 C118 1.183 . S
C148 C41 1.232 . S
C158 C100 1.199 . S
C172 C64 1.236 . S
C182 C112 1.202 . S
C196 C19 1.183 . S
C206 C121 1.196 . S
C230 C103 1.188 . S
C220 C44 1.218 . S
C254 C109 1.191 . S
C244 C67 1.218 . S
C268 C43 1.168 . S
C278 C82 1.177 . S
C292 C66 1.145 . S
C302 C91 1.179 . S
C316 C21 1.212 . S
C326 C73 1.223 . S
C350 C85 1.188 . S
C340 C42 1.182 . S
C374 C94 1.237 . S
C364 C65 1.171 . S
C388 C18 1.215 . S
C398 C76 1.181 . S
C422 C92 1.454 . S
C412 C17 1.462 . S
C436 C39 1.459 . S
C446 C74 1.448 . S
C460 C62 1.472 . S
C470 C83 1.465 . S
C494 C110 1.436 . S
C484 C40 1.443 . S
C518 C119 1.455 . S
C508 C63 1.462 . S
C532 C16 1.458 . S
C542 C101 1.447 . S
