# Generated by pormake.
# Topology hwx, (6,3)-cn, num edge types: 1
# Building blocks:
#     Node 0, Type 0, BuildingBlock: OJICUG_clean_sbu_0, # of connection points: 6
#     Node 1, Type 0, BuildingBlock: OJICUG_clean_sbu_0, # of connection points: 6
#     Node 2, Type 0, BuildingBlock: OJICUG_clean_sbu_0, # of connection points: 6
#     Node 3, Type 0, BuildingBlock: OJICUG_clean_sbu_0, # of connection points: 6
#     Node 4, Type 1, BuildingBlock: QEWDON_clean_linker_0, # of connection points: 3
#     Node 5, Type 1, BuildingBlock: QEWDON_clean_linker_0, # of connection points: 3
#     Node 6, Type 1, BuildingBlock: QEWDON_clean_linker_0, # of connection points: 3
#     Node 7, Type 1, BuildingBlock: QEWDON_clean_linker_0, # of connection points: 3
#     Node 8, Type 1, BuildingBlock: QEWDON_clean_linker_0, # of connection points: 3
#     Node 9, Type 1, BuildingBlock: QEWDON_clean_linker_0, # of connection points: 3
#     Node 10, Type 1, BuildingBlock: QEWDON_clean_linker_0, # of connection points: 3
#     Node 11, Type 1, BuildingBlock: QEWDON_clean_linker_0, # of connection points: 3
#     Edge 12, Type (0, 1), BuildingBlock: ZUJKAS_clean_linker_0, # of connection points: 2
#     Edge 13, Type (0, 1), BuildingBlock: ZUJKAS_clean_linker_0, # of connection points: 2
#     Edge 14, Type (0, 1), BuildingBlock: ZUJKAS_clean_linker_0, # of connection points: 2
#     Edge 15, Type (0, 1), BuildingBlock: ZUJKAS_clean_linker_0, # of connection points: 2
#     Edge 16, Type (0, 1), BuildingBlock: ZUJKAS_clean_linker_0, # of connection points: 2
#     Edge 17, Type (0, 1), BuildingBlock: ZUJKAS_clean_linker_0, # of connection points: 2
#     Edge 18, Type (0, 1), BuildingBlock: ZUJKAS_clean_linker_0, # of connection points: 2
#     Edge 19, Type (0, 1), BuildingBlock: ZUJKAS_clean_linker_0, # of connection points: 2
#     Edge 20, Type (0, 1), BuildingBlock: ZUJKAS_clean_linker_0, # of connection points: 2
#     Edge 21, Type (0, 1), BuildingBlock: ZUJKAS_clean_linker_0, # of connection points: 2
#     Edge 22, Type (0, 1), BuildingBlock: ZUJKAS_clean_linker_0, # of connection points: 2
#     Edge 23, Type (0, 1), BuildingBlock: ZUJKAS_clean_linker_0, # of connection points: 2
#     Edge 24, Type (0, 1), BuildingBlock: ZUJKAS_clean_linker_0, # of connection points: 2
#     Edge 25, Type (0, 1), BuildingBlock: ZUJKAS_clean_linker_0, # of connection points: 2
#     Edge 26, Type (0, 1), BuildingBlock: ZUJKAS_clean_linker_0, # of connection points: 2
#     Edge 27, Type (0, 1), BuildingBlock: ZUJKAS_clean_linker_0, # of connection points: 2
#     Edge 28, Type (0, 1), BuildingBlock: ZUJKAS_clean_linker_0, # of connection points: 2
#     Edge 29, Type (0, 1), BuildingBlock: ZUJKAS_clean_linker_0, # of connection points: 2
#     Edge 30, Type (0, 1), BuildingBlock: ZUJKAS_clean_linker_0, # of connection points: 2
#     Edge 31, Type (0, 1), BuildingBlock: ZUJKAS_clean_linker_0, # of connection points: 2
#     Edge 32, Type (0, 1), BuildingBlock: ZUJKAS_clean_linker_0, # of connection points: 2
#     Edge 33, Type (0, 1), BuildingBlock: ZUJKAS_clean_linker_0, # of connection points: 2
#     Edge 34, Type (0, 1), BuildingBlock: ZUJKAS_clean_linker_0, # of connection points: 2
#     Edge 35, Type (0, 1), BuildingBlock: ZUJKAS_clean_linker_0, # of connection points: 2
# Relax obj value: 0.002
# Max RMSD: 0.105
# Mean RMSD: 0.079
data_MOF--net-hwx--node1-OJICUG_clean_sbu_0--node2-QEWDON_clean_linker_0--edge1-ZUJKAS_clean_linker_0
_symmetry_space_group_name_H-M    P1
_symmetry_Int_Tables_number       1
_symmetry_cell_setting            triclinic
loop_
_symmetry_equiv_pos_as_xyz
'x, y, z'
_cell_length_a     71.514159
_cell_length_b     71.45689
_cell_length_c     25.536985
_cell_angle_alpha  92.280873
_cell_angle_beta   92.25732
_cell_angle_gamma 89.992056
loop_
_atom_site_label
_atom_site_type_symbol
_atom_site_fract_x
_atom_site_fract_y
_atom_site_fract_z
_atom_type_partial_charge
Sc0 Sc 0.22672 0.23048 0.07007 0.0
Sc1 Sc 0.19571 0.19951 -0.00073 0.0
Sc2 Sc 0.22527 0.22882 0.93156 0.0
O3 O 0.2159 0.21964 0.00031 0.0
C4 C 0.224 0.26698 0.00174 0.0
C5 C 0.18327 0.22686 0.09353 0.0
C6 C 0.18121 0.22501 0.90608 0.0
C7 C 0.2231 0.18696 0.09318 0.0
C8 C 0.26327 0.22699 0.00159 0.0
C9 C 0.22084 0.18472 0.90586 0.0
O10 O 0.22455 0.25896 0.04537 0.0
O11 O 0.17995 0.21433 0.05767 0.0
O12 O 0.19718 0.23204 0.89837 0.0
O13 O 0.23022 0.20313 0.10255 0.0
O14 O 0.25425 0.22672 0.9576 0.0
O15 O 0.20913 0.18228 0.94109 0.0
O16 O 0.25526 0.22842 0.04522 0.0
O17 O 0.21051 0.18371 0.0575 0.0
O18 O 0.22771 0.20071 0.89746 0.0
O19 O 0.19943 0.23398 0.10274 0.0
O20 O 0.22428 0.25793 0.95781 0.0
O21 O 0.17868 0.21301 0.94058 0.0
Sc22 Sc 0.27024 0.73291 0.44103 0.0
Sc23 Sc 0.30157 0.70329 0.50785 0.0
Sc24 Sc 0.27297 0.73424 0.57979 0.0
O25 O 0.28155 0.72349 0.50957 0.0
C26 C 0.27416 0.77088 0.51208 0.0
C27 C 0.31339 0.72895 0.41503 0.0
C28 C 0.31719 0.73035 0.60181 0.0
C29 C 0.27375 0.68884 0.41431 0.0
C30 C 0.23439 0.73109 0.51148 0.0
C31 C 0.27702 0.69071 0.60225 0.0
O32 O 0.27235 0.76193 0.46805 0.0
O33 O 0.31673 0.7168 0.44912 0.0
O34 O 0.30133 0.73725 0.61283 0.0
O35 O 0.2667 0.70488 0.4061 0.0
O36 O 0.24372 0.73246 0.555 0.0
O37 O 0.28871 0.68751 0.56679 0.0
O38 O 0.24209 0.73088 0.46739 0.0
O39 O 0.2863 0.68623 0.44984 0.0
O40 O 0.27001 0.70683 0.61138 0.0
O41 O 0.29728 0.73614 0.40741 0.0
O42 O 0.27483 0.76276 0.55558 0.0
O43 O 0.31922 0.71813 0.56505 0.0
Sc44 Sc 0.7741 0.77904 0.94749 0.0
Sc45 Sc 0.80492 0.80974 0.01915 0.0
Sc46 Sc 0.77532 0.78037 0.08605 0.0
O47 O 0.78475 0.78969 0.01754 0.0
C48 C 0.7375 0.78161 0.01407 0.0
C49 C 0.77815 0.82266 0.92503 0.0
C50 C 0.77876 0.82428 0.11126 0.0
C51 C 0.81749 0.78225 0.92512 0.0
C52 C 0.77741 0.74244 0.01664 0.0
C53 C 0.81935 0.78488 0.11266 0.0
O54 O 0.74562 0.78229 0.97079 0.0
O55 O 0.78987 0.82601 0.96286 0.0
O56 O 0.77097 0.80853 0.11727 0.0
O57 O 0.80154 0.77458 0.9169 0.0
O58 O 0.77859 0.75143 0.06072 0.0
O59 O 0.8222 0.79553 0.0752 0.0
O60 O 0.7751 0.75051 0.97324 0.0
O61 O 0.82046 0.79543 0.95932 0.0
O62 O 0.80313 0.77908 0.12307 0.0
O63 O 0.77171 0.80633 0.91358 0.0
O64 O 0.74638 0.78019 0.05792 0.0
O65 O 0.79169 0.82643 0.07925 0.0
Sc66 Sc 0.72456 0.28261 0.58119 0.0
Sc67 Sc 0.694 0.31155 0.50917 0.0
Sc68 Sc 0.72341 0.27993 0.44254 0.0
O69 O 0.71401 0.29133 0.51098 0.0
C70 C 0.76129 0.28363 0.51397 0.0
C71 C 0.72095 0.32691 0.60335 0.0
C72 C 0.71957 0.32308 0.4158 0.0
C73 C 0.68114 0.28696 0.60345 0.0
C74 C 0.72189 0.24398 0.51267 0.0
C75 C 0.67934 0.2835 0.41634 0.0
O76 O 0.75316 0.28458 0.55748 0.0
O77 O 0.7092 0.32931 0.56566 0.0
O78 O 0.72682 0.30696 0.40889 0.0
O79 O 0.69708 0.2795 0.61201 0.0
O80 O 0.7214 0.25167 0.46855 0.0
O81 O 0.67675 0.29603 0.45202 0.0
O82 O 0.72318 0.25336 0.55612 0.0
O83 O 0.67823 0.299 0.56874 0.0
O84 O 0.69541 0.27661 0.40766 0.0
O85 O 0.72728 0.31087 0.61487 0.0
O86 O 0.75236 0.28175 0.46994 0.0
O87 O 0.70735 0.32652 0.44961 0.0
H88 H 0.2519 0.51402 0.07018 0.0
C89 C 0.24894 0.52175 0.03514 0.0
C90 C 0.24195 0.54014 0.03936 0.0
C91 C 0.25315 0.51375 0.98582 0.0
H92 H 0.23473 0.56477 0.99711 0.0
C93 C 0.239 0.55023 0.99365 0.0
C94 C 0.24331 0.54251 0.94423 0.0
C95 C 0.25024 0.52414 0.94066 0.0
C96 C 0.26313 0.49569 0.98145 0.0
H97 H 0.25398 0.51808 0.90291 0.0
C98 C 0.25405 0.47856 0.98887 0.0
C99 C 0.26351 0.46151 0.97948 0.0
C100 C 0.2818 0.49567 0.96643 0.0
H101 H 0.28897 0.50874 0.96049 0.0
C102 C 0.29132 0.47885 0.95854 0.0
H103 H 0.23955 0.4785 -0.00035 0.0
C104 C 0.28224 0.46187 0.96465 0.0
H105 H 0.28986 0.44896 0.95779 0.0
H106 H 0.30573 0.47896 0.94701 0.0
H107 H 0.98782 0.72358 0.44644 0.0
C108 C 0.981 0.72746 0.48245 0.0
C109 C 0.96511 0.73908 0.48115 0.0
C110 C 0.98761 0.72013 0.53003 0.0
H111 H 0.94362 0.75187 0.5274 0.0
C112 C 0.95635 0.74364 0.52822 0.0
C113 C 0.96281 0.73646 0.57586 0.0
C114 C 0.97837 0.72454 0.57649 0.0
C115 C 0.00311 0.70648 0.53082 0.0
H116 H 0.98322 0.71857 0.61296 0.0
C117 C 0.02146 0.71188 0.52034 0.0
C118 C 0.0362 0.6988 0.52292 0.0
C119 C 0.99949 0.68794 0.54344 0.0
H120 H 0.98544 0.68357 0.55174 0.0
C121 C 0.01395 0.67487 0.54524 0.0
H122 H 0.02424 0.72624 0.5108 0.0
C123 C 0.03218 0.68022 0.53519 0.0
H124 H 0.04322 0.6699 0.53823 0.0
H125 H 0.01106 0.66059 0.55503 0.0
H126 H 0.78085 0.4959 0.9537 0.0
C127 C 0.77663 0.48858 0.98767 0.0
C128 C 0.76526 0.4725 0.98112 0.0
C129 C 0.78322 0.49473 0.03809 0.0
H130 H 0.7522 0.4502 0.02103 0.0
C131 C 0.76025 0.46306 0.0257 0.0
C132 C 0.76669 0.46904 0.07609 0.0
C133 C 0.77833 0.48482 0.08204 0.0
C134 C 0.79657 0.51048 0.04507 0.0
H135 H 0.7837 0.48935 0.1208 0.0
C136 C 0.79102 0.52899 0.03564 0.0
C137 C 0.80358 0.54397 0.04679 0.0
C138 C 0.81486 0.50698 0.06412 0.0
H139 H 0.81934 0.49282 0.07166 0.0
C140 C 0.82747 0.52169 0.07373 0.0
H141 H 0.77679 0.53176 0.0219 0.0
C142 C 0.82188 0.54007 0.06543 0.0
H143 H 0.8319 0.55128 0.07362 0.0
H144 H 0.84158 0.51887 0.08823 0.0
H145 H 0.00686 0.25117 0.56563 0.0
C146 C 0.01472 0.2545 0.53175 0.0
C147 C 0.03325 0.26106 0.5385 0.0
C148 C 0.00673 0.25113 0.48108 0.0
H149 H 0.05809 0.26846 0.49901 0.0
C150 C 0.04347 0.26451 0.49401 0.0
C151 C 0.03576 0.26106 0.44319 0.0
C152 C 0.01727 0.25448 0.43711 0.0
C153 C 0.98849 0.2415 0.47335 0.0
H154 H 0.01122 0.25138 0.39814 0.0
C155 C 0.97158 0.25053 0.48521 0.0
C156 C 0.95434 0.2414 0.4735 0.0
C157 C 0.98809 0.22318 0.45137 0.0
H158 H 1.00098 0.21603 0.44204 0.0
C159 C 0.97111 0.21394 0.44113 0.0
H160 H 0.97183 0.26479 0.50141 0.0
C161 C 0.95434 0.22299 0.45183 0.0
H162 H 0.94131 0.21555 0.4432 0.0
H163 H 0.97093 0.19979 0.42435 0.0
H164 H 0.75135 1.00002 0.44361 0.0
C165 C 0.74887 0.99127 0.47636 0.0
C166 C 0.74161 0.9731 0.46702 0.0
C167 C 0.75425 0.9976 0.52763 0.0
H168 H 0.7343 0.94737 0.50236 0.0
C169 C 0.73936 0.96158 0.50955 0.0
C170 C 0.74528 0.96741 0.56056 0.0
C171 C 0.75237 0.98561 0.56952 0.0
C172 C 0.76456 0.01547 0.53662 0.0
H173 H 0.75751 0.99009 0.60853 0.0
C174 C 0.75646 0.03273 0.52358 0.0
C175 C 0.76667 0.04953 0.53259 0.0
C176 C 0.78289 0.01511 0.5584 0.0
H177 H 0.78941 1.00197 0.56842 0.0
C178 C 0.79307 0.03165 0.56689 0.0
H179 H 0.74231 0.03308 0.50685 0.0
C180 C 0.78505 0.04873 0.55417 0.0
H181 H 0.79314 0.06141 0.56222 0.0
H182 H 0.80719 0.03123 0.58368 0.0
H183 H 0.51066 0.22259 0.06635 0.0
C184 C 0.51721 0.22794 0.03241 0.0
C185 C 0.53288 0.23979 0.0392 0.0
C186 C 0.51053 0.22236 0.98165 0.0
H187 H 0.5541 0.25468 0.00013 0.0
C188 C 0.54153 0.2462 0.99492 0.0
C189 C 0.53527 0.24043 0.94414 0.0
C190 C 0.51974 0.22845 0.93775 0.0
C191 C 0.4951 0.20868 0.97402 0.0
H192 H 0.51495 0.22365 0.89869 0.0
C193 C 0.47649 0.21381 0.98353 0.0
C194 C 0.46179 0.20095 0.97213 0.0
C195 C 0.499 0.19054 0.95447 0.0
H196 H 0.51324 0.1864 0.94683 0.0
C197 C 0.48457 0.17762 0.94451 0.0
H198 H 0.47344 0.22794 -0.00235 0.0
C199 C 0.46608 0.18277 0.95301 0.0
H200 H 0.45511 0.17251 0.94466 0.0
H201 H 0.48769 0.16362 0.92964 0.0
H202 H 0.29114 0.0183 0.5737 0.0
C203 C 0.2874 0.02596 0.53903 0.0
C204 C 0.27938 0.04385 0.54436 0.0
C205 C 0.292 0.01871 0.48908 0.0
H206 H 0.26916 0.06787 0.50399 0.0
C207 C 0.27539 0.05407 0.49965 0.0
C208 C 0.27967 0.04696 0.44969 0.0
C209 C 0.28786 0.02919 0.44451 0.0
C210 C 0.30365 1.00168 0.48381 0.0
H211 H 0.29181 0.02386 0.40616 0.0
C212 C 0.29733 0.98406 0.49875 0.0
C213 C 0.30887 0.96814 0.49312 0.0
C214 C 0.32152 1.00325 0.46347 0.0
H215 H 0.32665 0.01669 0.45194 0.0
C216 C 0.333 0.9876 0.45833 0.0
H217 H 0.28353 0.98276 0.51431 0.0
C218 C 0.32676 0.97017 0.47297 0.0
H219 H 0.33583 0.95816 0.46752 0.0
H220 H 0.34675 0.98896 0.44263 0.0
H221 H 0.49046 0.74799 0.95692 0.0
C222 C 0.48292 0.7532 0.99051 0.0
C223 C 0.46404 0.75835 0.98412 0.0
C224 C 0.4914 0.75284 0.04112 0.0
H225 H 0.43915 0.76683 0.02295 0.0
C226 C 0.45396 0.7638 0.02816 0.0
C227 C 0.46219 0.76352 0.07884 0.0
C228 C 0.48106 0.75832 0.08485 0.0
C229 C 0.50963 0.74346 0.04995 0.0
H230 H 0.48748 0.75753 0.12388 0.0
C231 C 0.52628 0.75044 0.03041 0.0
C232 C 0.54354 0.74153 0.04173 0.0
C233 C 0.51024 0.72738 0.07982 0.0
H234 H 0.49755 0.72174 0.09496 0.0
C235 C 0.52715 0.71843 0.09058 0.0
H236 H 0.5258 0.76282 0.00725 0.0
C237 C 0.54368 0.72548 0.07208 0.0
H238 H 0.55667 0.71854 0.08267 0.0
H239 H 0.52748 0.70612 0.11395 0.0
H240 H 0.18231 0.25715 0.16307 0.0
H241 H 0.15633 0.26723 0.217 0.0
H242 H 0.1229 0.22105 0.15221 0.0
H243 H 0.14851 0.21114 0.09731 0.0
H244 H 0.10288 0.2535 0.15794 0.0
H245 H 0.14099 0.24212 0.34786 0.0
H246 H 0.15239 0.25798 0.30661 0.0
H247 H 0.14972 0.23374 0.28592 0.0
C248 C 0.16944 0.24911 0.16033 0.0
C249 C 0.16758 0.23324 0.1261 0.0
C250 C 0.15462 0.25487 0.19134 0.0
C251 C 0.13778 0.2447 0.18929 0.0
C252 C 0.13578 0.22908 0.15453 0.0
H253 H 0.03783 0.23614 0.35936 0.0
H254 H 0.0615 0.23496 0.29295 0.0
C255 C 0.15049 0.22341 0.12324 0.0
C256 C 0.12225 0.25009 0.22365 0.0
H257 H 0.11065 0.25488 0.35192 0.0
C258 C 0.10459 0.25387 0.20036 0.0
C259 C 0.12451 0.25055 0.27901 0.0
C260 C 0.14286 0.24572 0.30646 0.0
C261 C 0.0891 0.25796 0.23097 0.0
C262 C 0.09134 0.25816 0.28618 0.0
C263 C 0.10905 0.25482 0.30949 0.0
C264 C 0.07532 0.26059 0.32082 0.0
C265 C 0.07046 0.26198 0.20411 0.0
C266 C 0.07507 0.27556 0.35797 0.0
C267 C 0.06145 0.27638 0.39576 0.0
C268 C 0.04798 0.26208 0.39754 0.0
C269 C 0.04778 0.24755 0.35867 0.0
C270 C 0.06134 0.24681 0.32071 0.0
H271 H 0.07203 0.26592 0.16287 0.0
H272 H 0.06158 0.24924 0.20374 0.0
H273 H 0.06306 0.27343 0.22547 0.0
H274 H 0.08578 0.28631 0.35873 0.0
H275 H 0.06186 0.28787 0.42477 0.0
H276 H 0.24747 0.68915 0.66729 0.0
H277 H 0.23822 0.66288 0.71917 0.0
H278 H 0.28448 0.63039 0.66163 0.0
H279 H 0.29353 0.65631 0.60861 0.0
H280 H 0.2526 0.60975 0.66118 0.0
H281 H 0.26401 0.64751 0.85409 0.0
H282 H 0.24776 0.65887 0.81047 0.0
H283 H 0.27191 0.65665 0.79396 0.0
C284 C 0.25572 0.67644 0.6658 0.0
C285 C 0.27134 0.67491 0.63407 0.0
C286 C 0.25044 0.66146 0.69563 0.0
C287 C 0.26085 0.64479 0.69499 0.0
C288 C 0.27627 0.64314 0.66284 0.0
H289 H 0.26928 0.54485 0.86875 0.0
H290 H 0.27109 0.56846 0.80255 0.0
C291 C 0.28145 0.65801 0.63263 0.0
C292 C 0.25584 0.62905 0.72795 0.0
H293 H 0.25091 0.61718 0.85488 0.0
C294 C 0.2522 0.61138 0.70353 0.0
C295 C 0.25537 0.63119 0.78324 0.0
C296 C 0.26014 0.64952 0.81212 0.0
C297 C 0.24813 0.59579 0.73295 0.0
C298 C 0.24776 0.59796 0.78809 0.0
C299 C 0.25107 0.61565 0.81246 0.0
C300 C 0.24503 0.58192 0.82187 0.0
C301 C 0.24426 0.57713 0.70501 0.0
C302 C 0.22958 0.58148 0.85393 0.0
C303 C 0.22839 0.56787 0.89147 0.0
C304 C 0.24278 0.55463 0.89817 0.0
C305 C 0.2578 0.55461 0.86418 0.0
C306 C 0.25891 0.56815 0.82639 0.0
H307 H 0.24094 0.57863 0.66252 0.0
H308 H 0.25683 0.56811 0.70911 0.0
H309 H 0.23244 0.5699 0.72266 0.0
H310 H 0.21875 0.59203 0.85103 0.0
H311 H 0.21652 0.56813 0.91659 0.0
H312 H 0.82034 0.77432 0.21473 0.0
H313 H 0.84802 0.76642 0.26901 0.0
H314 H 0.88291 0.77339 0.1371 0.0
H315 H 0.85551 0.78211 0.08355 0.0
H316 H 0.8726 0.73929 0.26352 0.0
H317 H 0.91019 0.80627 0.2438 0.0
H318 H 0.88618 0.80292 0.22121 0.0
H319 H 0.90496 0.79445 0.18171 0.0
C320 C 0.83393 0.7742 0.19741 0.0
C321 C 0.83578 0.77908 0.14513 0.0
C322 C 0.84974 0.76968 0.22842 0.0
C323 C 0.86765 0.76975 0.20755 0.0
C324 C 0.86939 0.77388 0.1547 0.0
H325 H 0.95945 0.71807 0.3895 0.0
H326 H 0.93831 0.72541 0.31543 0.0
C327 C 0.85367 0.77874 0.12402 0.0
C328 C 0.88443 0.76533 0.24102 0.0
H329 H 0.92717 0.78211 0.28528 0.0
C330 C 0.88453 0.74866 0.26829 0.0
C331 C 0.89995 0.77764 0.24764 0.0
C332 C 0.90028 0.7964 0.22247 0.0
C333 C 0.89953 0.74407 0.30255 0.0
C334 C 0.91526 0.75616 0.30818 0.0
C335 C 0.91527 0.7727 0.28031 0.0
C336 C 0.93087 0.75288 0.34691 0.0
C337 C 0.8979 0.72676 0.33414 0.0
C338 C 0.935 0.7665 0.38677 0.0
C339 C 0.94753 0.76258 0.42816 0.0
C340 C 0.95599 0.74486 0.43099 0.0
C341 C 0.95313 0.73183 0.38866 0.0
C342 C 0.94078 0.73589 0.34672 0.0
H343 H 0.88319 0.7218 0.33501 0.0
H344 H 0.90627 0.71531 0.31613 0.0
H345 H 0.90324 0.72942 0.37516 0.0
H346 H 0.92778 0.77983 0.38746 0.0
H347 H 0.94977 0.77309 0.45955 0.0
H348 H 0.73267 0.32883 0.70669 0.0
H349 H 0.74098 0.35697 0.76038 0.0
H350 H 0.73291 0.39067 0.62479 0.0
H351 H 0.72366 0.36275 0.57173 0.0
H352 H 0.76767 0.38165 0.759 0.0
H353 H 0.70054 0.41864 0.72319 0.0
H354 H 0.70393 0.39454 0.70244 0.0
H355 H 0.71238 0.41313 0.66399 0.0
C356 C 0.73267 0.34225 0.68841 0.0
C357 C 0.72728 0.34363 0.63523 0.0
C358 C 0.73742 0.35834 0.71908 0.0
C359 C 0.73713 0.37607 0.69699 0.0
C360 C 0.73259 0.37731 0.64326 0.0
H361 H 0.7872 0.46805 0.89557 0.0
H362 H 0.78078 0.44754 0.81781 0.0
C363 C 0.72744 0.3613 0.61287 0.0
C364 C 0.74157 0.39315 0.73041 0.0
H365 H 0.7244 0.43576 0.77052 0.0
C366 C 0.75822 0.3935 0.76147 0.0
C367 C 0.72916 0.40857 0.73395 0.0
C368 C 0.71043 0.40867 0.70453 0.0
C369 C 0.76258 0.40854 0.79693 0.0
C370 C 0.75033 0.42411 0.79985 0.0
C371 C 0.73392 0.42397 0.76775 0.0
C372 C 0.7531 0.43953 0.84031 0.0
C373 C 0.77978 0.40704 0.83277 0.0
C374 C 0.73907 0.44322 0.87618 0.0
C375 C 0.74245 0.45541 0.91952 0.0
C376 C 0.76007 0.46396 0.92847 0.0
C377 C 0.77352 0.46163 0.89001 0.0
C378 C 0.76998 0.44963 0.84599 0.0
H379 H 0.78497 0.3924 0.8343 0.0
H380 H 0.79115 0.41573 0.81805 0.0
H381 H 0.77688 0.41211 0.87331 0.0
H382 H 0.72581 0.43586 0.87235 0.0
H383 H 0.73163 0.45727 0.94778 0.0
H384 H 0.64313 0.29572 0.42092 0.0
H385 H 0.61629 0.28589 0.36483 0.0
H386 H 0.65097 0.24643 0.28126 0.0
H387 H 0.67813 0.2564 0.33676 0.0
H388 H 0.6303 0.26803 0.21585 0.0
H389 H 0.58447 0.23881 0.36228 0.0
H390 H 0.59225 0.26217 0.3799 0.0
H391 H 0.60904 0.24346 0.37593 0.0
C392 C 0.64511 0.28483 0.39094 0.0
C393 C 0.66288 0.27689 0.3834 0.0
C394 C 0.62965 0.2791 0.35917 0.0
C395 C 0.63153 0.26518 0.31947 0.0
C396 C 0.64918 0.2571 0.31199 0.0
H397 H 0.54411 0.21473 0.11185 0.0
H398 H 0.56687 0.22056 0.18517 0.0
C399 C 0.6647 0.26284 0.34371 0.0
C400 C 0.61541 0.26015 0.28325 0.0
H401 H 0.56992 0.2452 0.27868 0.0
C402 C 0.61716 0.26289 0.22959 0.0
C403 C 0.59831 0.25328 0.30113 0.0
C404 C 0.59592 0.24907 0.35789 0.0
C405 C 0.60216 0.25945 0.1935 0.0
C406 C 0.58479 0.25345 0.21168 0.0
C407 C 0.58315 0.25013 0.26507 0.0
C408 C 0.56837 0.25044 0.1751 0.0
C409 C 0.60507 0.26219 0.13606 0.0
C410 C 0.56092 0.26544 0.14731 0.0
C411 C 0.54796 0.26215 0.10564 0.0
C412 C 0.54212 0.24381 0.09139 0.0
C413 C 0.54827 0.22901 0.12234 0.0
C414 C 0.56134 0.23231 0.16395 0.0
H415 H 0.62016 0.26226 0.12722 0.0
H416 H 0.59797 0.25099 0.11126 0.0
H417 H 0.59903 0.27585 0.12499 0.0
H418 H 0.56593 0.27958 0.15597 0.0
H419 H 0.54336 0.2738 0.0825 0.0
H420 H 0.2482 0.18276 0.83328 0.0
H421 H 0.25846 0.15505 0.78276 0.0
H422 H 0.21798 0.12128 0.85679 0.0
H423 H 0.20752 0.1488 0.90729 0.0
H424 H 0.27227 0.1196 0.82383 0.0
H425 H 0.20756 0.1114 0.69637 0.0
H426 H 0.21337 0.13301 0.73238 0.0
H427 H 0.20451 0.11349 0.76592 0.0
C428 C 0.24139 0.16948 0.83869 0.0
C429 C 0.22694 0.16809 0.87422 0.0
C430 C 0.24733 0.15365 0.80994 0.0
C431 C 0.23886 0.13618 0.81579 0.0
C432 C 0.22453 0.13468 0.85127 0.0
H433 H 0.25486 0.0343 0.61853 0.0
H434 H 0.24574 0.05408 0.69456 0.0
C435 C 0.21862 0.15046 0.88018 0.0
C436 C 0.24506 0.11954 0.78465 0.0
H437 H 0.23142 0.08926 0.68364 0.0
C438 C 0.26332 0.11286 0.79338 0.0
C439 C 0.23325 0.11066 0.74549 0.0
C440 C 0.21361 0.11751 0.73399 0.0
C441 C 0.27024 0.09774 0.76314 0.0
C442 C 0.25872 0.08937 0.7224 0.0
C443 C 0.24021 0.09562 0.71504 0.0
C444 C 0.26615 0.07578 0.68297 0.0
C445 C 0.28988 0.09097 0.77491 0.0
C446 C 0.28083 0.08123 0.65204 0.0
C447 C 0.286 0.07001 0.60913 0.0
C448 C 0.27655 0.05314 0.59612 0.0
C449 C 0.26249 0.04713 0.62842 0.0
C450 C 0.25724 0.05846 0.67149 0.0
H451 H 0.29415 0.09384 0.81677 0.0
H452 H 0.29124 0.07572 0.76573 0.0
H453 H 0.29973 0.09855 0.75075 0.0
H454 H 0.2876 0.0947 0.65919 0.0
H455 H 0.29674 0.07498 0.58431 0.0
H456 H 0.31325 0.75572 0.34041 0.0
H457 H 0.33947 0.76504 0.28802 0.0
H458 H 0.37525 0.72553 0.36645 0.0
H459 H 0.34936 0.71605 0.41864 0.0
H460 H 0.37773 0.77842 0.32472 0.0
H461 H 0.37703 0.71157 0.20566 0.0
H462 H 0.3573 0.71945 0.24262 0.0
H463 H 0.37718 0.70909 0.27544 0.0
C464 C 0.32669 0.749 0.34652 0.0
C465 C 0.32911 0.73499 0.38344 0.0
C466 C 0.34165 0.75442 0.31675 0.0
C467 C 0.35918 0.74583 0.32321 0.0
C468 C 0.36175 0.73216 0.36061 0.0
H469 H 0.46264 0.74194 0.16478 0.0
H470 H 0.43875 0.74041 0.2299 0.0
C471 C 0.34689 0.72677 0.39039 0.0
C472 C 0.37477 0.75059 0.28987 0.0
H473 H 0.40277 0.73177 0.19659 0.0
C474 C 0.3832 0.76832 0.29643 0.0
C475 C 0.38178 0.73734 0.25314 0.0
C476 C 0.37279 0.71834 0.24329 0.0
C477 C 0.39889 0.77294 0.26803 0.0
C478 C 0.40605 0.75954 0.23183 0.0
C479 C 0.39738 0.74195 0.22483 0.0
C480 C 0.42232 0.76331 0.1997 0.0
C481 C 0.40794 0.79187 0.27793 0.0
C482 C 0.42139 0.77719 0.16235 0.0
C483 C 0.43522 0.77829 0.1254 0.0
C484 C 0.45009 0.76537 0.12477 0.0
C485 C 0.45157 0.75229 0.16443 0.0
C486 C 0.43782 0.75127 0.20148 0.0
H487 H 0.40397 0.79846 0.31604 0.0
H488 H 0.42343 0.79078 0.27763 0.0
H489 H 0.40328 0.80126 0.2464 0.0
H490 H 0.40942 0.78644 0.15975 0.0
H491 H 0.43376 0.78863 0.09561 0.0
H492 H 0.75653 0.8216 0.83345 0.0
H493 H 0.7488 0.84781 0.77747 0.0
H494 H 0.7782 0.88576 0.88737 0.0
H495 H 0.78615 0.85982 0.94324 0.0
H496 H 0.7301 0.88329 0.79882 0.0
H497 H 0.80439 0.89156 0.74714 0.0
H498 H 0.79592 0.87094 0.77728 0.0
H499 H 0.80033 0.89209 0.81617 0.0
C500 C 0.76126 0.83553 0.84591 0.0
C501 C 0.77219 0.83852 0.89252 0.0
C502 C 0.75678 0.85049 0.81395 0.0
C503 C 0.76317 0.86864 0.82803 0.0
C504 C 0.7734 0.8718 0.87546 0.0
H505 H 0.73572 0.97184 0.66379 0.0
H506 H 0.73909 0.94866 0.7323 0.0
C507 C 0.77792 0.85691 0.90732 0.0
C508 C 0.75999 0.88411 0.79192 0.0
H509 H 0.7829 0.91367 0.71452 0.0
C510 C 0.74161 0.89001 0.78047 0.0
C511 C 0.77507 0.89272 0.7679 0.0
C512 C 0.79504 0.88645 0.77727 0.0
C513 C 0.73791 0.90433 0.74531 0.0
C514 C 0.75302 0.91295 0.72149 0.0
C515 C 0.77138 0.90712 0.7333 0.0
C516 C 0.75013 0.92693 0.68074 0.0
C517 C 0.71792 0.90976 0.73259 0.0
C518 C 0.75544 0.92243 0.62958 0.0
C519 C 0.75366 0.93556 0.59084 0.0
C520 C 0.74649 0.95353 0.60235 0.0
C521 C 0.74122 0.95809 0.65379 0.0
C522 C 0.743 0.94484 0.69274 0.0
H523 H 0.70778 0.89977 0.74798 0.0
H524 H 0.71519 0.92388 0.75029 0.0
H525 H 0.71542 0.91043 0.6895 0.0
H526 H 0.76114 0.90874 0.61968 0.0
H527 H 0.75828 0.93172 0.55198 0.0
H528 H 0.81769 0.75396 0.8491 0.0
H529 H 0.84406 0.74339 0.7974 0.0
H530 H 0.87957 0.78489 0.87808 0.0
H531 H 0.85351 0.79539 0.9304 0.0
H532 H 0.86365 0.76431 0.73063 0.0
H533 H 0.91152 0.73779 0.88665 0.0
H534 H 0.88704 0.74234 0.89653 0.0
H535 H 0.90367 0.76128 0.9003 0.0
C536 C 0.83113 0.76077 0.85617 0.0
C537 C 0.83343 0.77555 0.89396 0.0
C538 C 0.84619 0.75467 0.82665 0.0
C539 C 0.86384 0.76314 0.83457 0.0
C540 C 0.8662 0.77785 0.87224 0.0
H541 H 0.95042 0.77024 0.61321 0.0
H542 H 0.92733 0.77593 0.68023 0.0
C543 C 0.85119 0.78394 0.90179 0.0
C544 C 0.87945 0.75756 0.80088 0.0
H545 H 0.92495 0.74283 0.80378 0.0
C546 C 0.87699 0.75944 0.7466 0.0
C547 C 0.89679 0.75104 0.82176 0.0
C548 C 0.8999 0.7478 0.87945 0.0
C549 C 0.89157 0.75557 0.71275 0.0
C550 C 0.90917 0.74995 0.73388 0.0
C551 C 0.9115 0.74742 0.78791 0.0
C552 C 0.92526 0.74686 0.69994 0.0
C553 C 0.88802 0.75754 0.65456 0.0
C554 C 0.93244 0.72878 0.69104 0.0
C555 C 0.94572 0.72551 0.65292 0.0
C556 C 0.95194 0.7403 0.62331 0.0
C557 C 0.94568 0.75858 0.63508 0.0
C558 C 0.93249 0.76183 0.67318 0.0
H559 H 0.87282 0.75743 0.64367 0.0
H560 H 0.89392 0.77105 0.64291 0.0
H561 H 0.8949 0.74608 0.63185 0.0
H562 H 0.92705 0.71708 0.71158 0.0
H563 H 0.95023 0.71128 0.6444 0.0
H564 H 0.70632 0.35902 0.41678 0.0
H565 H 0.71597 0.38465 0.36369 0.0
H566 H 0.75647 0.34865 0.29004 0.0
H567 H 0.74674 0.32269 0.34251 0.0
H568 H 0.7509 0.40167 0.35616 0.0
H569 H 0.72567 0.36861 0.16565 0.0
H570 H 0.7192 0.35998 0.22787 0.0
H571 H 0.74185 0.35471 0.20306 0.0
C572 C 0.71726 0.35645 0.38925 0.0
C573 C 0.72563 0.33867 0.38364 0.0
C574 C 0.7228 0.37119 0.35908 0.0
C575 C 0.73677 0.3685 0.32255 0.0
C576 C 0.74543 0.35092 0.3174 0.0
H577 H 0.79083 0.45591 0.15187 0.0
H578 H 0.78407 0.43252 0.21632 0.0
C579 C 0.73987 0.33611 0.34753 0.0
C580 C 0.74196 0.38409 0.28939 0.0
H581 H 0.74166 0.39741 0.16256 0.0
C582 C 0.74893 0.40076 0.3138 0.0
C583 C 0.73916 0.3829 0.23424 0.0
C584 C 0.73091 0.36567 0.20603 0.0
C585 C 0.75319 0.41632 0.28443 0.0
C586 C 0.75059 0.41503 0.22925 0.0
C587 C 0.74368 0.39833 0.20491 0.0
C588 C 0.75445 0.4309 0.19562 0.0
C589 C 0.75996 0.43413 0.31272 0.0
C590 C 0.74002 0.43791 0.16316 0.0
C591 C 0.74386 0.45116 0.12637 0.0
C592 C 0.76222 0.45764 0.12123 0.0
C593 C 0.77652 0.45133 0.1555 0.0
C594 C 0.77267 0.43796 0.19226 0.0
H595 H 0.75698 0.43429 0.35511 0.0
H596 H 0.77533 0.43534 0.30918 0.0
H597 H 0.75333 0.44658 0.29511 0.0
H598 H 0.72586 0.43267 0.1652 0.0
H599 H 0.73256 0.45588 0.10063 0.0
H600 H 0.14684 0.20818 0.89517 0.0
H601 H 0.11997 0.21744 0.84025 0.0
H602 H 0.15096 0.26488 0.7903 0.0
H603 H 0.17816 0.2554 0.84394 0.0
H604 H 0.09852 0.2486 0.83955 0.0
H605 H 0.13464 0.24022 0.65169 0.0
H606 H 0.14462 0.232 0.71249 0.0
H607 H 0.14617 0.25637 0.69785 0.0
C608 C 0.148 0.22058 0.87244 0.0
C609 C 0.16477 0.23092 0.87353 0.0
C610 C 0.13257 0.22588 0.84116 0.0
C611 C 0.13353 0.24167 0.81044 0.0
C612 C 0.15005 0.25236 0.81261 0.0
H613 H 0.0566 0.28855 0.57998 0.0
H614 H 0.07941 0.28573 0.65321 0.0
C615 C 0.16558 0.24695 0.84345 0.0
C616 C 0.11732 0.24669 0.77563 0.0
H617 H 0.1043 0.25336 0.64766 0.0
C618 C 0.09978 0.24965 0.79759 0.0
C619 C 0.11894 0.24794 0.72079 0.0
C620 C 0.13705 0.24379 0.69417 0.0
C621 C 0.08387 0.25393 0.76619 0.0
C622 C 0.0856 0.25528 0.7116 0.0
C623 C 0.10311 0.2525 0.68972 0.0
C624 C 0.06936 0.25876 0.6755 0.0
C625 C 0.06537 0.25708 0.79142 0.0
C626 C 0.05574 0.24482 0.66506 0.0
C627 C 0.04275 0.24634 0.62301 0.0
C628 C 0.04326 0.26179 0.59066 0.0
C629 C 0.05597 0.27641 0.60396 0.0
C630 C 0.06899 0.27484 0.64577 0.0
H631 H 0.06707 0.25919 0.83468 0.0
H632 H 0.05814 0.26944 0.77512 0.0
H633 H 0.05627 0.24467 0.78278 0.0
H634 H 0.05597 0.23218 0.68714 0.0
H635 H 0.03331 0.23474 0.6134 0.0
H636 H 0.29034 0.65446 0.40601 0.0
H637 H 0.28079 0.62767 0.34923 0.0
H638 H 0.23301 0.65859 0.29135 0.0
H639 H 0.2428 0.68581 0.34708 0.0
H640 H 0.24981 0.60604 0.34269 0.0
H641 H 0.25702 0.64269 0.15679 0.0
H642 H 0.26546 0.65263 0.21927 0.0
H643 H 0.24099 0.65378 0.2005 0.0
C644 C 0.27779 0.65564 0.38124 0.0
C645 C 0.26745 0.67241 0.38076 0.0
C646 C 0.27232 0.64024 0.34886 0.0
C647 C 0.25635 0.64119 0.31538 0.0
C648 C 0.24565 0.65769 0.3159 0.0
H649 H 0.21336 0.56272 0.07096 0.0
H650 H 0.21449 0.58575 0.14455 0.0
C651 C 0.25122 0.67322 0.34793 0.0
C652 C 0.2513 0.62498 0.27934 0.0
H653 H 0.24525 0.61184 0.14976 0.0
C654 C 0.24875 0.60732 0.3005 0.0
C655 C 0.25002 0.62662 0.22425 0.0
C656 C 0.25368 0.64489 0.19872 0.0
C657 C 0.24501 0.59129 0.26804 0.0
C658 C 0.24381 0.59299 0.21312 0.0
C659 C 0.24602 0.61065 0.19201 0.0
C660 C 0.2413 0.5766 0.17612 0.0
C661 C 0.24237 0.57268 0.29254 0.0
C662 C 0.2557 0.56338 0.17066 0.0
C663 C 0.25513 0.55025 0.12846 0.0
C664 C 0.24019 0.55022 0.09097 0.0
C665 C 0.22511 0.56252 0.09903 0.0
C666 C 0.22573 0.57566 0.14102 0.0
H667 H 0.23949 0.57436 0.33491 0.0
H668 H 0.23068 0.56472 0.27219 0.0
H669 H 0.25531 0.56426 0.28864 0.0
H670 H 0.26798 0.56405 0.19691 0.0
H671 H 0.26707 0.54114 0.12298 0.0
H672 H 0.31948 0.74765 0.69995 0.0
H673 H 0.34792 0.75485 0.75356 0.0
H674 H 0.38171 0.73426 0.62748 0.0
H675 H 0.35349 0.72658 0.5744 0.0
H676 H 0.39237 0.71911 0.71597 0.0
H677 H 0.38667 0.79565 0.75239 0.0
H678 H 0.36607 0.78363 0.77078 0.0
H679 H 0.37229 0.78307 0.70308 0.0
C680 C 0.33298 0.74491 0.68342 0.0
C681 C 0.33419 0.73642 0.63306 0.0
C682 C 0.34924 0.74916 0.71396 0.0
C683 C 0.367 0.74533 0.69432 0.0
C684 C 0.3682 0.73737 0.64347 0.0
H685 H 0.46756 0.77625 0.89181 0.0
H686 H 0.44643 0.77311 0.8131 0.0
C687 C 0.35201 0.73295 0.61323 0.0
C688 C 0.38423 0.74796 0.72826 0.0
H689 H 0.40763 0.77935 0.81125 0.0
C690 C 0.39584 0.73238 0.73611 0.0
C691 C 0.38903 0.76534 0.75384 0.0
C692 C 0.37796 0.78291 0.74416 0.0
C693 C 0.4115 0.73344 0.77092 0.0
C694 C 0.41545 0.75041 0.79954 0.0
C695 C 0.40449 0.76628 0.7896 0.0
C696 C 0.42944 0.75135 0.84397 0.0
C697 C 0.42347 0.71623 0.77743 0.0
C698 C 0.42693 0.7401 0.88691 0.0
C699 C 0.43886 0.74187 0.93123 0.0
C700 C 0.45351 0.75499 0.93372 0.0
C701 C 0.45645 0.76592 0.89033 0.0
C702 C 0.44437 0.7642 0.84573 0.0
H703 H 0.4227 0.70693 0.74148 0.0
H704 H 0.43834 0.72002 0.78654 0.0
H705 H 0.4183 0.70817 0.81018 0.0
H706 H 0.4153 0.73039 0.88694 0.0
H707 H 0.43628 0.73339 0.96447 0.0
H708 H 0.74833 0.82734 0.17339 0.0
H709 H 0.73756 0.85522 0.22209 0.0
H710 H 0.78386 0.88682 0.16781 0.0
H711 H 0.79449 0.85926 0.11821 0.0
H712 H 0.75558 0.87471 0.30079 0.0
H713 H 0.74097 0.92195 0.13752 0.0
H714 H 0.74463 0.8971 0.12694 0.0
H715 H 0.76429 0.91272 0.13743 0.0
C716 C 0.75618 0.84023 0.17158 0.0
C717 C 0.77227 0.84102 0.14173 0.0
C718 C 0.74996 0.85618 0.19929 0.0
C719 C 0.75966 0.87323 0.19767 0.0
C720 C 0.77581 0.874 0.16838 0.0
H721 H 0.76725 0.97306 0.39093 0.0
H722 H 0.76889 0.95022 0.31725 0.0
C723 C 0.78198 0.85812 0.14044 0.0
C724 C 0.7537 0.88985 0.22956 0.0
H725 H 0.74326 0.93648 0.22409 0.0
C726 C 0.75261 0.88813 0.28388 0.0
C727 C 0.74987 0.90739 0.20745 0.0
C728 C 0.74981 0.90988 0.14906 0.0
C729 C 0.74845 0.90358 0.31692 0.0
C730 C 0.74508 0.9212 0.29499 0.0
C731 C 0.74584 0.92293 0.24063 0.0
C732 C 0.74178 0.93801 0.32905 0.0
C733 C 0.74831 0.90111 0.37537 0.0
C734 C 0.72549 0.93944 0.35771 0.0
C735 C 0.72446 0.95254 0.39959 0.0
C736 C 0.73975 0.96436 0.4134 0.0
C737 C 0.75519 0.96426 0.38096 0.0
C738 C 0.7562 0.95113 0.33905 0.0
H739 H 0.75419 0.88738 0.38662 0.0
H740 H 0.75647 0.91243 0.39679 0.0
H741 H 0.73369 0.90196 0.38832 0.0
H742 H 0.71415 0.92952 0.35018 0.0
H743 H 0.71236 0.9524 0.42381 0.0
H744 H 0.68039 0.25985 0.67661 0.0
H745 H 0.65392 0.25071 0.72778 0.0
H746 H 0.61943 0.29229 0.65346 0.0
H747 H 0.64562 0.30133 0.60153 0.0
H748 H 0.63477 0.27214 0.79808 0.0
H749 H 0.58639 0.246 0.63663 0.0
H750 H 0.61093 0.25017 0.62756 0.0
H751 H 0.59465 0.26936 0.62801 0.0
C752 C 0.66716 0.267 0.67089 0.0
C753 C 0.66517 0.28131 0.63478 0.0
C754 C 0.65203 0.26173 0.70013 0.0
C755 C 0.63461 0.27059 0.69376 0.0
C756 C 0.6326 0.28494 0.65807 0.0
H757 H 0.54848 0.27497 0.9224 0.0
H758 H 0.5716 0.28227 0.858 0.0
C759 C 0.64768 0.29019 0.6287 0.0
C760 C 0.61883 0.26552 0.72646 0.0
H761 H 0.57329 0.25082 0.72074 0.0
C762 C 0.62136 0.26738 0.78117 0.0
C763 C 0.60142 0.25911 0.70432 0.0
C764 C 0.59819 0.25585 0.64593 0.0
C765 C 0.60685 0.26338 0.81436 0.0
C766 C 0.58919 0.25774 0.79219 0.0
C767 C 0.58676 0.25543 0.73754 0.0
C768 C 0.57326 0.2539 0.8256 0.0
C769 C 0.61064 0.26501 0.87295 0.0
C770 C 0.56576 0.23578 0.82656 0.0
C771 C 0.55241 0.23161 0.86302 0.0
C772 C 0.54641 0.24553 0.89901 0.0
C773 C 0.55305 0.26393 0.89553 0.0
C774 C 0.56629 0.2681 0.85897 0.0
H775 H 0.62588 0.26472 0.88331 0.0
H776 H 0.60498 0.27851 0.88836 0.0
H777 H 0.60374 0.25349 0.89287 0.0
H778 H 0.57089 0.22466 0.80087 0.0
H779 H 0.54764 0.21728 0.86506 0.0
H780 H 0.21396 0.14985 0.0786 0.0
H781 H 0.22482 0.12375 0.13046 0.0
H782 H 0.25811 0.16171 0.23103 0.0
H783 H 0.24759 0.18799 0.17885 0.0
H784 H 0.27714 0.12905 0.20076 0.0
H785 H 0.20743 0.11245 0.27612 0.0
H786 H 0.20821 0.11271 0.20596 0.0
H787 H 0.2121 0.13402 0.24463 0.0
C788 C 0.22355 0.15273 0.11183 0.0
C789 C 0.22977 0.17111 0.12476 0.0
C790 C 0.22968 0.13776 0.14154 0.0
C791 C 0.24201 0.14084 0.18507 0.0
C792 C 0.24851 0.15906 0.19767 0.0
H793 H 0.29037 0.08314 0.44148 0.0
H794 H 0.28233 0.10412 0.3709 0.0
C795 C 0.24244 0.17407 0.16785 0.0
C796 C 0.24817 0.12508 0.21757 0.0
H797 H 0.23232 0.09229 0.29891 0.0
C798 C 0.26735 0.12097 0.22209 0.0
C799 C 0.23533 0.11447 0.24507 0.0
C800 C 0.21463 0.11868 0.24321 0.0
C801 C 0.27406 0.10666 0.25391 0.0
C802 C 0.26127 0.09639 0.28237 0.0
C803 C 0.24206 0.10013 0.27672 0.0
C804 C 0.26762 0.083 0.32211 0.0
C805 C 0.29479 0.10272 0.25704 0.0
C806 C 0.26197 0.06415 0.31813 0.0
C807 C 0.26655 0.05209 0.35863 0.0
C808 C 0.27652 0.05886 0.40397 0.0
C809 C 0.28254 0.07761 0.40711 0.0
C810 C 0.2781 0.08956 0.36663 0.0
H811 H 0.30183 0.10767 0.22212 0.0
H812 H 0.30114 0.11022 0.29225 0.0
H813 H 0.29754 0.08752 0.26052 0.0
H814 H 0.25373 0.05889 0.2842 0.0
H815 H 0.26167 0.03772 0.35546 0.0
H816 H 0.22939 0.2897 0.91965 0.0
H817 H 0.23145 0.32384 0.92208 0.0
H818 H 0.21974 0.32571 0.08656 0.0
H819 H 0.21813 0.29151 0.08493 0.0
H820 H 0.20681 0.35167 0.94681 0.0
H821 H 0.26824 0.3547 0.0872 0.0
H822 H 0.25999 0.33306 0.05567 0.0
H823 H 0.24812 0.34316 0.11077 0.0
C824 C 0.22718 0.29734 0.95638 0.0
C825 C 0.22382 0.28779 0.00225 0.0
C826 C 0.22834 0.31689 0.95766 0.0
C827 C 0.22612 0.32734 0.00473 0.0
C828 C 0.22199 0.31793 0.0501 0.0
H829 H 0.24435 0.44864 0.06173 0.0
H830 H 0.23212 0.41676 0.07084 0.0
C831 C 0.22098 0.29836 0.04899 0.0
C832 C 0.22861 0.34802 0.00617 0.0
H833 H 0.25605 0.38351 0.06003 0.0
C834 C 0.2175 0.35864 0.97183 0.0
C835 C 0.24255 0.35714 0.03889 0.0
C836 C 0.25554 0.34645 0.07491 0.0
C837 C 0.22019 0.37803 0.96864 0.0
C838 C 0.2344 0.38702 0.00041 0.0
C839 C 0.24507 0.37657 0.03602 0.0
C840 C 0.23976 0.40678 0.99348 0.0
C841 C 0.20798 0.38876 0.93082 0.0
C842 C 0.24797 0.41168 0.94698 0.0
C843 C 0.25507 0.42969 0.94197 0.0
C844 C 0.25403 0.44319 0.9833 0.0
C845 C 0.24519 0.43851 0.0292 0.0
C846 C 0.23828 0.42034 0.03447 0.0
H847 H 0.1948 0.3811 0.91972 0.0
H848 H 0.20444 0.40279 0.94794 0.0
H849 H 0.21567 0.3908 0.89457 0.0
H850 H 0.2495 0.40136 0.9152 0.0
H851 H 0.26175 0.43296 0.90609 0.0
H852 H 0.21228 0.73004 0.59687 0.0
H853 H 0.17829 0.72635 0.59706 0.0
H854 H 0.17553 0.72443 0.42801 0.0
H855 H 0.20945 0.72831 0.42718 0.0
H856 H 0.14794 0.74748 0.47388 0.0
H857 H 0.15062 0.67693 0.55783 0.0
H858 H 0.1635 0.69476 0.59543 0.0
H859 H 0.17077 0.68771 0.53104 0.0
C860 C 0.20448 0.72888 0.55966 0.0
C861 C 0.21369 0.72937 0.512 0.0
C862 C 0.18504 0.72669 0.55989 0.0
C863 C 0.17443 0.72487 0.51254 0.0
C864 C 0.18348 0.72576 0.46498 0.0
H865 H 0.06253 0.67973 0.4673 0.0
H866 H 0.09576 0.68722 0.46248 0.0
C867 C 0.2029 0.72793 0.46465 0.0
C868 C 0.15392 0.72178 0.51244 0.0
H869 H 0.12075 0.69085 0.54773 0.0
C870 C 0.14196 0.73511 0.49001 0.0
C871 C 0.1462 0.70551 0.53291 0.0
C872 C 0.1584 0.6903 0.55527 0.0
C873 C 0.12243 0.73269 0.48799 0.0
C874 C 0.1147 0.71661 0.50949 0.0
C875 C 0.1267 0.70323 0.53152 0.0
C876 C 0.09424 0.71312 0.50893 0.0
C877 C 0.11026 0.74715 0.46195 0.0
C878 C 0.08229 0.72531 0.53619 0.0
C879 C 0.06326 0.72105 0.53906 0.0
C880 C 0.05588 0.70443 0.51512 0.0
C881 C 0.06782 0.69253 0.4867 0.0
C882 C 0.0868 0.69681 0.48377 0.0
H883 H 0.1184 0.75602 0.43624 0.0
H884 H 0.09862 0.74038 0.43815 0.0
H885 H 0.10409 0.75643 0.49256 0.0
H886 H 0.0878 0.7378 0.55673 0.0
H887 H 0.05449 0.73038 0.56185 0.0
H888 H 0.78703 0.72015 0.09832 0.0
H889 H 0.78904 0.68603 0.09717 0.0
H890 H 0.77206 0.68334 0.93313 0.0
H891 H 0.77043 0.71752 0.9335 0.0
H892 H 0.76205 0.65968 0.07523 0.0
H893 H 0.81867 0.6513 0.93336 0.0
H894 H 0.81276 0.67371 0.96328 0.0
H895 H 0.79861 0.6639 0.90924 0.0
C896 C 0.78379 0.71235 0.06186 0.0
C897 C 0.77867 0.72166 0.01591 0.0
C898 C 0.78493 0.69281 0.06131 0.0
C899 C 0.78097 0.68211 0.01491 0.0
C900 C 0.77561 0.6913 0.96912 0.0
H901 H 0.78484 0.55949 0.96325 0.0
H902 H 0.77714 0.59275 0.9528 0.0
C903 C 0.7746 0.71088 0.9695 0.0
C904 C 0.7822 0.66133 0.01505 0.0
H905 H 0.80506 0.62353 0.9619 0.0
C906 C 0.77142 0.65179 0.05032 0.0
C907 C 0.79438 0.651 0.98238 0.0
C908 C 0.8069 0.66048 0.94524 0.0
C909 C 0.77266 0.63228 0.05427 0.0
C910 C 0.78508 0.62204 0.02238 0.0
C911 C 0.79547 0.63145 0.98608 0.0
C912 C 0.78864 0.60183 0.02924 0.0
C913 C 0.76077 0.62274 0.09281 0.0
C914 C 0.79762 0.596 0.07556 0.0
C915 C 0.80211 0.57717 0.08143 0.0
C916 C 0.79767 0.56374 0.0411 0.0
C917 C 0.78831 0.56953 0.99506 0.0
C918 C 0.78398 0.58848 0.98898 0.0
H919 H 0.74877 0.63162 0.10464 0.0
H920 H 0.75532 0.60915 0.07595 0.0
H921 H 0.76945 0.61989 0.12858 0.0
H922 H 0.80151 0.60611 0.10684 0.0
H923 H 0.80917 0.57311 0.11753 0.0
H924 H 0.78592 0.28854 0.59889 0.0
H925 H 0.82012 0.28714 0.59968 0.0
H926 H 0.81801 0.27737 0.43184 0.0
H927 H 0.78398 0.27912 0.43039 0.0
H928 H 0.8415 0.25775 0.57057 0.0
H929 H 0.85772 0.31735 0.4486 0.0
H930 H 0.835 0.31427 0.4755 0.0
H931 H 0.84101 0.30177 0.41587 0.0
C932 C 0.79272 0.28634 0.562 0.0
C933 C 0.78211 0.28397 0.51455 0.0
C934 C 0.81229 0.28555 0.56257 0.0
C935 C 0.82168 0.28247 0.51574 0.0
C936 C 0.81115 0.28027 0.46833 0.0
H937 H 0.92452 0.24325 0.40455 0.0
H938 H 0.89339 0.25581 0.42065 0.0
C939 C 0.79161 0.28113 0.46766 0.0
C940 C 0.84235 0.28009 0.51653 0.0
H941 H 0.88176 0.29378 0.4568 0.0
C942 C 0.85038 0.26589 0.54654 0.0
C943 C 0.85397 0.29076 0.48534 0.0
C944 C 0.8465 0.30702 0.45497 0.0
C945 C 0.86944 0.26134 0.5438 0.0
C946 C 0.8808 0.27137 0.5105 0.0
C947 C 0.87299 0.28608 0.48221 0.0
C948 C 0.90025 0.26546 0.50043 0.0
C949 C 0.87711 0.24521 0.57436 0.0
C950 C 0.91457 0.26715 0.53962 0.0
C951 C 0.93246 0.26 0.53043 0.0
C952 C 0.93619 0.25092 0.48209 0.0
C953 C 0.92198 0.24993 0.44242 0.0
C954 C 0.90422 0.25718 0.45145 0.0
H955 H 0.86594 0.23741 0.59331 0.0
H956 H 0.88472 0.23531 0.54819 0.0
H957 H 0.88722 0.25061 0.60541 0.0
H958 H 0.91179 0.27365 0.57755 0.0
H959 H 0.94316 0.26093 0.56167 0.0
H960 H 0.72349 0.21877 0.42906 0.0
H961 H 0.72673 0.18481 0.43125 0.0
H962 H 0.72367 0.1879 0.59967 0.0
H963 H 0.72078 0.22194 0.59809 0.0
H964 H 0.75344 0.16802 0.56856 0.0
H965 H 0.69038 0.14276 0.45431 0.0
H966 H 0.70373 0.15924 0.41989 0.0
H967 H 0.69283 0.16663 0.47958 0.0
C968 C 0.72322 0.21225 0.46659 0.0
C969 C 0.72195 0.22318 0.51345 0.0
C970 C 0.72494 0.19276 0.4677 0.0
C971 C 0.7252 0.18374 0.51555 0.0
C972 C 0.72342 0.19454 0.56224 0.0
H973 H 0.73207 0.06269 0.55839 0.0
H974 H 0.72054 0.09497 0.55266 0.0
C975 C 0.72178 0.21403 0.56124 0.0
C976 C 0.7291 0.16334 0.51736 0.0
H977 H 0.71487 0.12026 0.46779 0.0
C978 C 0.74488 0.15759 0.5469 0.0
C979 C 0.71784 0.14967 0.48952 0.0
C980 C 0.70014 0.15485 0.45946 0.0
C981 C 0.75004 0.13867 0.54817 0.0
C982 C 0.73935 0.12512 0.51826 0.0
C983 C 0.7232 0.13072 0.49006 0.0
C984 C 0.74504 0.10515 0.5156 0.0
C985 C 0.76693 0.13336 0.5817 0.0
C986 C 0.76225 0.10005 0.49471 0.0
C987 C 0.76883 0.08173 0.49793 0.0
C988 C 0.75827 0.06807 0.52179 0.0
C989 C 0.74047 0.0729 0.53965 0.0
C990 C 0.73391 0.09133 0.53658 0.0
H991 H 0.77053 0.14438 0.61235 0.0
H992 H 0.76452 0.11998 0.60111 0.0
H993 H 0.77914 0.13149 0.55653 0.0
H994 H 0.77087 0.11042 0.47735 0.0
H995 H 0.78244 0.07834 0.483 0.0
H996 H 0.28829 0.23213 0.08537 0.0
H997 H 0.32247 0.23073 0.08492 0.0
H998 H 0.31948 0.21716 0.91875 0.0
H999 H 0.28542 0.21893 0.91849 0.0
H1000 H 0.34552 0.20212 0.05955 0.0
H1001 H 0.35641 0.25985 0.92584 0.0
H1002 H 0.33423 0.25585 0.95489 0.0
H1003 H 0.34071 0.24235 0.89736 0.0
C1004 C 0.29489 0.22892 0.04863 0.0
C1005 C 0.28404 0.22579 0.00187 0.0
C1006 C 0.31445 0.22814 0.04847 0.0
C1007 C 0.32359 0.22424 0.00161 0.0
C1008 C 0.3128 0.22074 0.95513 0.0
H1009 H 0.43248 0.19444 0.9024 0.0
H1010 H 0.39942 0.20162 0.91373 0.0
C1011 C 0.29327 0.22163 0.95515 0.0
C1012 C 0.34436 0.22317 0.00146 0.0
H1013 H 0.38247 0.23925 0.94002 0.0
C1014 C 0.35363 0.21044 0.03399 0.0
C1015 C 0.35497 0.23412 0.96832 0.0
C1016 C 0.34609 0.24895 0.93505 0.0
C1017 C 0.37308 0.20776 0.03252 0.0
C1018 C 0.38352 0.21816 -0.00214 0.0
C1019 C 0.37438 0.23126 0.96642 0.0
C1020 C 0.40373 0.21467 0.9911 0.0
C1021 C 0.38228 0.19333 0.06651 0.0
C1022 C 0.41714 0.21994 0.03058 0.0
C1023 C 0.43612 0.21591 0.02414 0.0
C1024 C 0.44191 0.2064 0.97829 0.0
C1025 C 0.42842 0.20153 0.93848 0.0
C1026 C 0.40955 0.2057 0.94475 0.0
H1027 H 0.37191 0.18487 0.08659 0.0
H1028 H 0.39107 0.18377 0.04254 0.0
H1029 H 0.3916 0.20048 0.09681 0.0
H1030 H 0.4129 0.22703 0.06647 0.0
H1031 H 0.44619 0.21979 0.05549 0.0
H1032 H 0.27355 0.79368 0.428 0.0
H1033 H 0.27719 0.82769 0.42914 0.0
H1034 H 0.28226 0.82931 0.59801 0.0
H1035 H 0.27843 0.7953 0.59753 0.0
H1036 H 0.25874 0.85768 0.55673 0.0
H1037 H 0.3274 0.85451 0.46242 0.0
H1038 H 0.30888 0.84201 0.42667 0.0
H1039 H 0.3169 0.83433 0.48984 0.0
C1040 C 0.2754 0.80121 0.46548 0.0
C1041 C 0.27583 0.79164 0.51267 0.0
C1042 C 0.27753 0.82068 0.466 0.0
C1043 C 0.28025 0.83099 0.51362 0.0
C1044 C 0.28024 0.8216 0.56082 0.0
H1045 H 0.32797 0.94205 0.54894 0.0
H1046 H 0.3196 0.90921 0.55815 0.0
C1047 C 0.2781 0.80213 0.5604 0.0
C1048 C 0.28354 0.85152 0.51414 0.0
H1049 H 0.31385 0.8845 0.47443 0.0
C1050 C 0.27079 0.86358 0.53883 0.0
C1051 C 0.29939 0.85915 0.49131 0.0
C1052 C 0.31404 0.84686 0.46645 0.0
C1053 C 0.27337 0.88313 0.54069 0.0
C1054 C 0.28901 0.89076 0.51677 0.0
C1055 C 0.30181 0.87865 0.49254 0.0
C1056 C 0.29271 0.91122 0.51689 0.0
C1057 C 0.25956 0.8954 0.56905 0.0
C1058 C 0.28018 0.92342 0.49166 0.0
C1059 C 0.28493 0.94227 0.48651 0.0
C1060 C 0.30238 0.94916 0.50595 0.0
C1061 C 0.31451 0.93709 0.5331 0.0
C1062 C 0.30974 0.91834 0.53844 0.0
H1063 H 0.25123 0.88732 0.59623 0.0
H1064 H 0.26682 0.90703 0.59172 0.0
H1065 H 0.24972 0.90161 0.5399 0.0
H1066 H 0.26711 0.91818 0.47391 0.0
H1067 H 0.2754 0.95119 0.46488 0.0
H1068 H 0.71475 0.76811 0.08724 0.0
H1069 H 0.68068 0.76573 0.08239 0.0
H1070 H 0.67911 0.79343 0.9352 0.0
H1071 H 0.71333 0.79508 0.93866 0.0
H1072 H 0.65332 0.79013 0.08025 0.0
H1073 H 0.64955 0.74763 0.89337 0.0
H1074 H 0.6714 0.75276 0.92856 0.0
H1075 H 0.66044 0.77004 0.88816 0.0
C1076 C 0.70717 0.77375 0.05388 0.0
C1077 C 0.71677 0.7816 0.01305 0.0
C1078 C 0.68766 0.77239 0.05114 0.0
C1079 C 0.67729 0.77903 0.00786 0.0
C1080 C 0.68679 0.78766 0.96817 0.0
H1081 H 0.55457 0.77841 0.03892 0.0
H1082 H 0.5859 0.7902 0.02275 0.0
C1083 C 0.70635 0.78871 0.97039 0.0
C1084 C 0.65661 0.77653 0.00446 0.0
H1085 H 0.6209 0.75604 0.93004 0.0
C1086 C 0.64621 0.78275 0.04729 0.0
C1087 C 0.64734 0.7668 0.96153 0.0
C1088 C 0.65775 0.75876 0.91552 0.0
C1089 C 0.62699 0.77893 0.04938 0.0
C1090 C 0.6177 0.76921 0.00642 0.0
C1091 C 0.62798 0.76362 0.96273 0.0
C1092 C 0.59798 0.76276 0.00861 0.0
C1093 C 0.61714 0.78442 0.0989 0.0
C1094 C 0.59398 0.74356 0.0023 0.0
C1095 C 0.57602 0.73685 0.0099 0.0
C1096 C 0.56162 0.74915 0.02473 0.0
C1097 C 0.56532 0.76852 0.02773 0.0
C1098 C 0.58331 0.77527 0.01931 0.0
H1099 H 0.62718 0.78767 0.13233 0.0
H1100 H 0.60862 0.79714 0.09223 0.0
H1101 H 0.60768 0.77307 0.11019 0.0
H1102 H 0.60496 0.73361 0.9934 0.0
H1103 H 0.57357 0.7219 0.00578 0.0
loop_
_geom_bond_atom_site_label_1
_geom_bond_atom_site_label_2
_geom_bond_distance
_geom_bond_site_symmetry_2
_ccdc_geom_bond_type
Sc0 O3 2.025 . S
Sc0 O10 2.105 . S
Sc0 O13 2.105 . S
Sc0 O16 2.105 . S
Sc0 O19 2.105 . S
Sc1 O3 2.025 . S
Sc1 O11 2.121 . S
Sc1 O15 2.089 1_554 S
Sc1 O17 2.121 . S
Sc1 O21 2.089 1_554 S
Sc2 O3 2.025 1_556 S
Sc2 O12 2.105 . S
Sc2 O14 2.105 . S
Sc2 O18 2.105 . S
Sc2 O20 2.105 . S
O3 Sc0 2.025 . S
O3 Sc1 2.025 . S
O3 Sc2 2.025 1_554 S
C4 O10 1.268 . S
C4 O20 1.268 1_554 S
C5 O11 1.268 . S
C5 O19 1.268 . S
C6 O12 1.268 . S
C6 O21 1.268 . S
C7 O13 1.268 . S
C7 O17 1.268 . S
C8 O14 1.268 1_554 S
C8 O16 1.268 . S
C9 O15 1.268 . S
C9 O18 1.268 . S
O10 Sc0 2.105 . S
O10 C4 1.268 . S
O11 Sc1 2.121 . S
O11 C5 1.268 . S
O12 Sc2 2.105 . S
O12 C6 1.268 . S
O13 Sc0 2.105 . S
O13 C7 1.268 . S
O14 Sc2 2.105 . S
O14 C8 1.268 1_556 S
O15 Sc1 2.089 1_556 S
O15 C9 1.268 . S
O16 Sc0 2.105 . S
O16 C8 1.268 . S
O17 Sc1 2.121 . S
O17 C7 1.268 . S
O18 Sc2 2.105 . S
O18 C9 1.268 . S
O19 Sc0 2.105 . S
O19 C5 1.268 . S
O20 Sc2 2.105 . S
O20 C4 1.268 1_556 S
O21 Sc1 2.089 1_556 S
O21 C6 1.268 . S
Sc22 O25 2.025 . S
Sc22 O32 2.105 . S
Sc22 O35 2.105 . S
Sc22 O38 2.105 . S
Sc22 O41 2.105 . S
Sc23 O25 2.025 . S
Sc23 O33 2.105 . S
Sc23 O37 2.105 . S
Sc23 O39 2.105 . S
Sc23 O43 2.105 . S
Sc24 O25 2.025 . S
Sc24 O34 2.105 . S
Sc24 O36 2.105 . S
Sc24 O40 2.105 . S
Sc24 O42 2.105 . S
O25 Sc22 2.025 . S
O25 Sc23 2.025 . S
O25 Sc24 2.025 . S
C26 O32 1.268 . S
C26 O42 1.268 . S
C27 O33 1.268 . S
C27 O41 1.268 . S
C28 O34 1.268 . S
C28 O43 1.268 . S
C29 O35 1.268 . S
C29 O39 1.268 . S
C30 O36 1.268 . S
C30 O38 1.268 . S
C31 O37 1.268 . S
C31 O40 1.268 . S
O32 Sc22 2.105 . S
O32 C26 1.268 . S
O33 Sc23 2.105 . S
O33 C27 1.268 . S
O34 Sc24 2.105 . S
O34 C28 1.268 . S
O35 Sc22 2.105 . S
O35 C29 1.268 . S
O36 Sc24 2.105 . S
O36 C30 1.268 . S
O37 Sc23 2.105 . S
O37 C31 1.268 . S
O38 Sc22 2.105 . S
O38 C30 1.268 . S
O39 Sc23 2.105 . S
O39 C29 1.268 . S
O40 Sc24 2.105 . S
O40 C31 1.268 . S
O41 Sc22 2.105 . S
O41 C27 1.268 . S
O42 Sc24 2.105 . S
O42 C26 1.268 . S
O43 Sc23 2.105 . S
O43 C28 1.268 . S
Sc44 O47 2.025 1_556 S
Sc44 O54 2.105 . S
Sc44 O57 2.105 . S
Sc44 O60 2.105 . S
Sc44 O63 2.105 . S
Sc45 O47 2.025 . S
Sc45 O55 2.105 1_554 S
Sc45 O59 2.105 . S
Sc45 O61 2.105 1_554 S
Sc45 O65 2.105 . S
Sc46 O47 2.025 . S
Sc46 O56 2.105 . S
Sc46 O58 2.105 . S
Sc46 O62 2.105 . S
Sc46 O64 2.105 . S
O47 Sc44 2.025 1_554 S
O47 Sc45 2.025 . S
O47 Sc46 2.025 . S
C48 O54 1.268 1_554 S
C48 O64 1.268 . S
C49 O55 1.268 . S
C49 O63 1.268 . S
C50 O56 1.268 . S
C50 O65 1.268 . S
C51 O57 1.268 . S
C51 O61 1.268 . S
C52 O58 1.268 . S
C52 O60 1.268 1_554 S
C53 O59 1.268 . S
C53 O62 1.268 . S
O54 Sc44 2.105 . S
O54 C48 1.268 1_556 S
O55 Sc45 2.105 1_556 S
O55 C49 1.268 . S
O56 Sc46 2.105 . S
O56 C50 1.268 . S
O57 Sc44 2.105 . S
O57 C51 1.268 . S
O58 Sc46 2.105 . S
O58 C52 1.268 . S
O59 Sc45 2.105 . S
O59 C53 1.268 . S
O60 Sc44 2.105 . S
O60 C52 1.268 1_556 S
O61 Sc45 2.105 1_556 S
O61 C51 1.268 . S
O62 Sc46 2.105 . S
O62 C53 1.268 . S
O63 Sc44 2.105 . S
O63 C49 1.268 . S
O64 Sc46 2.105 . S
O64 C48 1.268 . S
O65 Sc45 2.105 . S
O65 C50 1.268 . S
Sc66 O69 2.025 . S
Sc66 O76 2.105 . S
Sc66 O79 2.105 . S
Sc66 O82 2.105 . S
Sc66 O85 2.105 . S
Sc67 O69 2.025 . S
Sc67 O77 2.105 . S
Sc67 O81 2.105 . S
Sc67 O83 2.105 . S
Sc67 O87 2.105 . S
Sc68 O69 2.025 . S
Sc68 O78 2.105 . S
Sc68 O80 2.105 . S
Sc68 O84 2.105 . S
Sc68 O86 2.105 . S
O69 Sc66 2.025 . S
O69 Sc67 2.025 . S
O69 Sc68 2.025 . S
C70 O76 1.268 . S
C70 O86 1.268 . S
C71 O77 1.268 . S
C71 O85 1.268 . S
C72 O78 1.268 . S
C72 O87 1.268 . S
C73 O79 1.268 . S
C73 O83 1.268 . S
C74 O80 1.268 . S
C74 O82 1.268 . S
C75 O81 1.268 . S
C75 O84 1.268 . S
O76 Sc66 2.105 . S
O76 C70 1.268 . S
O77 Sc67 2.105 . S
O77 C71 1.268 . S
O78 Sc68 2.105 . S
O78 C72 1.268 . S
O79 Sc66 2.105 . S
O79 C73 1.268 . S
O80 Sc68 2.105 . S
O80 C74 1.268 . S
O81 Sc67 2.105 . S
O81 C75 1.268 . S
O82 Sc66 2.105 . S
O82 C74 1.268 . S
O83 Sc67 2.105 . S
O83 C73 1.268 . S
O84 Sc68 2.105 . S
O84 C75 1.268 . S
O85 Sc66 2.105 . S
O85 C71 1.268 . S
O86 Sc68 2.105 . S
O86 C70 1.268 . S
O87 Sc67 2.105 . S
O87 C72 1.268 . S
H88 C89 0.949 . S
C89 H88 0.949 . S
C89 C90 1.395 . S
C89 C91 1.391 1_554 S
C90 C89 1.395 . S
C90 C93 1.398 . S
C91 C89 1.391 1_556 S
C91 C95 1.387 . S
C91 C96 1.491 . S
H92 C93 0.951 . S
C93 C90 1.398 . S
C93 H92 0.951 . S
C93 C94 1.369 1_554 S
C94 C93 1.369 1_556 S
C94 C95 1.409 . S
C95 C91 1.387 . S
C95 C94 1.409 . S
C95 H97 0.951 . S
C96 C91 1.491 . S
C96 C98 1.382 1_556 S
C96 C100 1.404 . S
H97 C95 0.951 . S
C98 C96 1.382 1_554 S
C98 C99 1.390 1_554 S
C98 H103 0.949 . S
C99 C98 1.390 1_556 S
C99 C104 1.399 . S
C100 C96 1.404 . S
C100 H101 0.950 . S
C100 C102 1.375 . S
H101 C100 0.950 . S
C102 C100 1.375 . S
C102 C104 1.382 . S
C102 H106 0.950 . S
H103 C98 0.949 . S
C104 C99 1.399 . S
C104 C102 1.382 . S
C104 H105 0.952 . S
H105 C104 0.952 . S
H106 C102 0.950 . S
H107 C108 0.949 . S
C108 H107 0.949 . S
C108 C109 1.395 . S
C108 C110 1.391 . S
C109 C108 1.395 . S
C109 C112 1.390 . S
C110 C108 1.391 . S
C110 C114 1.387 . S
C110 C115 1.491 1_655 S
H111 C112 0.950 . S
C112 C109 1.390 . S
C112 H111 0.950 . S
C112 C113 1.378 . S
C113 C112 1.378 . S
C113 C114 1.409 . S
C114 C110 1.387 . S
C114 C113 1.409 . S
C114 H116 0.951 . S
C115 C110 1.491 1_455 S
C115 C117 1.382 . S
C115 C119 1.404 . S
H116 C114 0.951 . S
C117 C115 1.382 . S
C117 C118 1.390 . S
C117 H122 0.949 . S
C118 C117 1.390 . S
C118 C123 1.399 . S
C119 C115 1.404 . S
C119 H120 0.950 . S
C119 C121 1.375 . S
H120 C119 0.950 . S
C121 C119 1.375 . S
C121 C123 1.382 . S
C121 H125 0.950 . S
H122 C117 0.949 . S
C123 C118 1.399 . S
C123 C121 1.382 . S
C123 H124 0.952 . S
H124 C123 0.952 . S
H125 C121 0.950 . S
H126 C127 0.949 . S
C127 H126 0.949 . S
C127 C128 1.395 . S
C127 C129 1.391 1_556 S
C128 C127 1.395 . S
C128 C131 1.390 1_556 S
C129 C127 1.391 1_554 S
C129 C133 1.387 . S
C129 C134 1.491 . S
H130 C131 0.950 . S
C131 C128 1.390 1_554 S
C131 H130 0.950 . S
C131 C132 1.378 . S
C132 C131 1.378 . S
C132 C133 1.409 . S
C133 C129 1.387 . S
C133 C132 1.409 . S
C133 H135 0.951 . S
C134 C129 1.491 . S
C134 C136 1.382 . S
C134 C138 1.404 . S
H135 C133 0.951 . S
C136 C134 1.382 . S
C136 C137 1.390 . S
C136 H141 0.949 1_554 S
C137 C136 1.390 . S
C137 C142 1.399 . S
C138 C134 1.404 . S
C138 H139 0.950 . S
C138 C140 1.375 . S
H139 C138 0.950 . S
C140 C138 1.375 . S
C140 C142 1.382 . S
C140 H144 0.950 . S
H141 C136 0.949 1_556 S
C142 C137 1.399 . S
C142 C140 1.382 . S
C142 H143 0.952 . S
H143 C142 0.952 . S
H144 C140 0.950 . S
H145 C146 0.949 . S
C146 H145 0.949 . S
C146 C147 1.395 . S
C146 C148 1.391 . S
C147 C146 1.395 . S
C147 C150 1.390 . S
C148 C146 1.391 . S
C148 C152 1.387 . S
C148 C153 1.491 1_455 S
H149 C150 0.950 . S
C150 C147 1.390 . S
C150 H149 0.950 . S
C150 C151 1.378 . S
C151 C150 1.378 . S
C151 C152 1.409 . S
C152 C148 1.387 . S
C152 C151 1.409 . S
C152 H154 0.951 . S
C153 C148 1.491 1_655 S
C153 C155 1.382 . S
C153 C157 1.404 . S
H154 C152 0.951 . S
C155 C153 1.382 . S
C155 C156 1.390 . S
C155 H160 0.949 . S
C156 C155 1.390 . S
C156 C161 1.399 . S
C157 C153 1.404 . S
C157 H158 0.950 . S
C157 C159 1.375 . S
H158 C157 0.950 . S
C159 C157 1.375 . S
C159 C161 1.382 . S
C159 H163 0.950 . S
H160 C155 0.949 . S
C161 C156 1.399 . S
C161 C159 1.382 . S
C161 H162 0.952 . S
H162 C161 0.952 . S
H163 C159 0.950 . S
H164 C165 0.949 . S
C165 H164 0.949 . S
C165 C166 1.395 . S
C165 C167 1.391 . S
C166 C165 1.395 . S
C166 C169 1.390 . S
C167 C165 1.391 . S
C167 C171 1.387 . S
C167 C172 1.491 1_565 S
H168 C169 0.950 . S
C169 C166 1.390 . S
C169 H168 0.950 . S
C169 C170 1.378 . S
C170 C169 1.378 . S
C170 C171 1.409 . S
C171 C167 1.387 . S
C171 C170 1.409 . S
C171 H173 0.951 . S
C172 C167 1.491 1_545 S
C172 C174 1.382 . S
C172 C176 1.404 . S
H173 C171 0.951 . S
C174 C172 1.382 . S
C174 C175 1.390 . S
C174 H179 0.949 . S
C175 C174 1.390 . S
C175 C180 1.399 . S
C176 C172 1.404 . S
C176 H177 0.950 . S
C176 C178 1.375 . S
H177 C176 0.950 . S
C178 C176 1.375 . S
C178 C180 1.382 . S
C178 H182 0.950 . S
H179 C174 0.949 . S
C180 C175 1.399 . S
C180 C178 1.382 . S
C180 H181 0.952 . S
H181 C180 0.952 . S
H182 C178 0.950 . S
H183 C184 0.949 . S
C184 H183 0.949 . S
C184 C185 1.395 . S
C184 C186 1.391 1_554 S
C185 C184 1.395 . S
C185 C188 1.402 . S
C186 C184 1.391 1_556 S
C186 C190 1.387 . S
C186 C191 1.491 . S
H187 C188 0.952 . S
C188 C185 1.402 . S
C188 H187 0.952 . S
C188 C189 1.364 1_554 S
C189 C188 1.364 1_556 S
C189 C190 1.409 . S
C190 C186 1.387 . S
C190 C189 1.409 . S
C190 H192 0.951 . S
C191 C186 1.491 . S
C191 C193 1.382 1_556 S
C191 C195 1.404 . S
H192 C190 0.951 . S
C193 C191 1.382 1_554 S
C193 C194 1.390 1_554 S
C193 H198 0.949 . S
C194 C193 1.390 1_556 S
C194 C199 1.399 . S
C195 C191 1.404 . S
C195 H196 0.950 . S
C195 C197 1.375 . S
H196 C195 0.950 . S
C197 C195 1.375 . S
C197 C199 1.382 . S
C197 H201 0.950 . S
H198 C193 0.949 . S
C199 C194 1.399 . S
C199 C197 1.382 . S
C199 H200 0.952 . S
H200 C199 0.952 . S
H201 C197 0.950 . S
H202 C203 0.949 . S
C203 H202 0.949 . S
C203 C204 1.395 . S
C203 C205 1.391 . S
C204 C203 1.395 . S
C204 C207 1.390 . S
C205 C203 1.391 . S
C205 C209 1.387 . S
C205 C210 1.491 1_545 S
H206 C207 0.950 . S
C207 C204 1.390 . S
C207 H206 0.950 . S
C207 C208 1.378 . S
C208 C207 1.378 . S
C208 C209 1.409 . S
C209 C205 1.387 . S
C209 C208 1.409 . S
C209 H211 0.951 . S
C210 C205 1.491 1_565 S
C210 C212 1.382 . S
C210 C214 1.404 . S
H211 C209 0.951 . S
C212 C210 1.382 . S
C212 C213 1.390 . S
C212 H217 0.949 . S
C213 C212 1.390 . S
C213 C218 1.399 . S
C214 C210 1.404 . S
C214 H215 0.950 . S
C214 C216 1.375 . S
H215 C214 0.950 . S
C216 C214 1.375 . S
C216 C218 1.382 . S
C216 H220 0.950 . S
H217 C212 0.949 . S
C218 C213 1.399 . S
C218 C216 1.382 . S
C218 H219 0.952 . S
H219 C218 0.952 . S
H220 C216 0.950 . S
H221 C222 0.949 . S
C222 H221 0.949 . S
C222 C223 1.395 . S
C222 C224 1.391 1_556 S
C223 C222 1.395 . S
C223 C226 1.390 1_556 S
C224 C222 1.391 1_554 S
C224 C228 1.387 . S
C224 C229 1.491 . S
H225 C226 0.950 . S
C226 C223 1.390 1_554 S
C226 H225 0.950 . S
C226 C227 1.378 . S
C227 C226 1.378 . S
C227 C228 1.409 . S
C228 C224 1.387 . S
C228 C227 1.409 . S
C228 H230 0.951 . S
C229 C224 1.491 . S
C229 C231 1.382 . S
C229 C233 1.404 . S
H230 C228 0.951 . S
C231 C229 1.382 . S
C231 C232 1.390 . S
C231 H236 0.949 1_554 S
C232 C231 1.390 . S
C232 C237 1.399 . S
C233 C229 1.404 . S
C233 H234 0.950 . S
C233 C235 1.375 . S
H234 C233 0.950 . S
C235 C233 1.375 . S
C235 C237 1.382 . S
C235 H239 0.950 . S
H236 C231 0.949 1_556 S
C237 C232 1.399 . S
C237 C235 1.382 . S
C237 H238 0.952 . S
H238 C237 0.952 . S
H239 C235 0.950 . S
H240 C248 0.929 . S
H241 C250 0.930 . S
H242 C252 0.930 . S
H243 C255 0.929 . S
H244 C258 0.930 . S
H245 C260 0.960 . S
H246 C260 0.960 . S
H247 C260 0.960 . S
C248 H240 0.929 . S
C248 C249 1.377 . S
C248 C250 1.384 . S
C249 C248 1.377 . S
C249 C255 1.390 . S
C250 H241 0.930 . S
C250 C248 1.384 . S
C250 C251 1.372 . S
C251 C250 1.372 . S
C251 C252 1.400 . S
C251 C256 1.490 . S
C252 H242 0.930 . S
C252 C251 1.400 . S
C252 C255 1.386 . S
H253 C269 0.930 . S
H254 C270 0.931 . S
C255 H243 0.929 . S
C255 C249 1.390 . S
C255 C252 1.386 . S
C256 C251 1.490 . S
C256 C258 1.395 . S
C256 C259 1.403 . S
H257 C263 0.930 . S
C258 H244 0.930 . S
C258 C256 1.395 . S
C258 C261 1.403 . S
C259 C256 1.403 . S
C259 C260 1.524 . S
C259 C263 1.400 . S
C260 H245 0.960 . S
C260 H246 0.960 . S
C260 H247 0.960 . S
C260 C259 1.524 . S
C261 C258 1.403 . S
C261 C262 1.392 . S
C261 C265 1.495 . S
C262 C261 1.392 . S
C262 C263 1.385 . S
C262 C264 1.478 . S
C263 H257 0.930 . S
C263 C259 1.400 . S
C263 C262 1.385 . S
C264 C262 1.478 . S
C264 C266 1.381 . S
C264 C270 1.383 . S
C265 C261 1.495 . S
C265 H271 0.959 . S
C265 H272 0.961 . S
C265 H273 0.960 . S
C266 C264 1.381 . S
C266 C267 1.394 . S
C266 H274 0.930 . S
C267 C266 1.394 . S
C267 C268 1.383 . S
C267 H275 0.929 . S
C268 C267 1.383 . S
C268 C269 1.377 . S
C269 H253 0.930 . S
C269 C268 1.377 . S
C269 C270 1.379 . S
C270 H254 0.931 . S
C270 C264 1.383 . S
C270 C269 1.379 . S
H271 C265 0.959 . S
H272 C265 0.961 . S
H273 C265 0.960 . S
H274 C266 0.930 . S
H275 C267 0.929 . S
H276 C284 0.929 . S
H277 C286 0.930 . S
H278 C288 0.930 . S
H279 C291 0.929 . S
H280 C294 0.930 . S
H281 C296 0.960 . S
H282 C296 0.960 . S
H283 C296 0.960 . S
C284 H276 0.929 . S
C284 C285 1.377 . S
C284 C286 1.384 . S
C285 C284 1.377 . S
C285 C291 1.390 . S
C286 H277 0.930 . S
C286 C284 1.384 . S
C286 C287 1.372 . S
C287 C286 1.372 . S
C287 C288 1.400 . S
C287 C292 1.490 . S
C288 H278 0.930 . S
C288 C287 1.400 . S
C288 C291 1.386 . S
H289 C305 0.930 . S
H290 C306 0.931 . S
C291 H279 0.929 . S
C291 C285 1.390 . S
C291 C288 1.386 . S
C292 C287 1.490 . S
C292 C294 1.395 . S
C292 C295 1.403 . S
H293 C299 0.930 . S
C294 H280 0.930 . S
C294 C292 1.395 . S
C294 C297 1.403 . S
C295 C292 1.403 . S
C295 C296 1.524 . S
C295 C299 1.400 . S
C296 H281 0.960 . S
C296 H282 0.960 . S
C296 H283 0.960 . S
C296 C295 1.524 . S
C297 C294 1.403 . S
C297 C298 1.392 . S
C297 C301 1.495 . S
C298 C297 1.392 . S
C298 C299 1.385 . S
C298 C300 1.478 . S
C299 H293 0.930 . S
C299 C295 1.400 . S
C299 C298 1.385 . S
C300 C298 1.478 . S
C300 C302 1.381 . S
C300 C306 1.383 . S
C301 C297 1.495 . S
C301 H307 0.959 . S
C301 H308 0.961 . S
C301 H309 0.960 . S
C302 C300 1.381 . S
C302 C303 1.394 . S
C302 H310 0.930 . S
C303 C302 1.394 . S
C303 C304 1.383 . S
C303 H311 0.929 . S
C304 C303 1.383 . S
C304 C305 1.377 . S
C305 H289 0.930 . S
C305 C304 1.377 . S
C305 C306 1.379 . S
C306 H290 0.931 . S
C306 C300 1.383 . S
C306 C305 1.379 . S
H307 C301 0.959 . S
H308 C301 0.961 . S
H309 C301 0.960 . S
H310 C302 0.930 . S
H311 C303 0.929 . S
H312 C320 0.929 . S
H313 C322 0.930 . S
H314 C324 0.930 . S
H315 C327 0.929 . S
H316 C330 0.930 . S
H317 C332 0.960 . S
H318 C332 0.960 . S
H319 C332 0.960 . S
C320 H312 0.929 . S
C320 C321 1.377 . S
C320 C322 1.384 . S
C321 C320 1.377 . S
C321 C327 1.390 . S
C322 H313 0.930 . S
C322 C320 1.384 . S
C322 C323 1.372 . S
C323 C322 1.372 . S
C323 C324 1.400 . S
C323 C328 1.490 . S
C324 H314 0.930 . S
C324 C323 1.400 . S
C324 C327 1.386 . S
H325 C341 0.930 . S
H326 C342 0.931 . S
C327 H315 0.929 . S
C327 C321 1.390 . S
C327 C324 1.386 . S
C328 C323 1.490 . S
C328 C330 1.395 . S
C328 C331 1.403 . S
H329 C335 0.930 . S
C330 H316 0.930 . S
C330 C328 1.395 . S
C330 C333 1.403 . S
C331 C328 1.403 . S
C331 C332 1.524 . S
C331 C335 1.400 . S
C332 H317 0.960 . S
C332 H318 0.960 . S
C332 H319 0.960 . S
C332 C331 1.524 . S
C333 C330 1.403 . S
C333 C334 1.392 . S
C333 C337 1.495 . S
C334 C333 1.392 . S
C334 C335 1.385 . S
C334 C336 1.478 . S
C335 H329 0.930 . S
C335 C331 1.400 . S
C335 C334 1.385 . S
C336 C334 1.478 . S
C336 C338 1.381 . S
C336 C342 1.383 . S
C337 C333 1.495 . S
C337 H343 0.959 . S
C337 H344 0.961 . S
C337 H345 0.960 . S
C338 C336 1.381 . S
C338 C339 1.394 . S
C338 H346 0.930 . S
C339 C338 1.394 . S
C339 C340 1.383 . S
C339 H347 0.929 . S
C340 C339 1.383 . S
C340 C341 1.377 . S
C341 H325 0.930 . S
C341 C340 1.377 . S
C341 C342 1.379 . S
C342 H326 0.931 . S
C342 C336 1.383 . S
C342 C341 1.379 . S
H343 C337 0.959 . S
H344 C337 0.961 . S
H345 C337 0.960 . S
H346 C338 0.930 . S
H347 C339 0.929 . S
H348 C356 0.929 . S
H349 C358 0.930 . S
H350 C360 0.930 . S
H351 C363 0.929 . S
H352 C366 0.930 . S
H353 C368 0.960 . S
H354 C368 0.960 . S
H355 C368 0.960 . S
C356 H348 0.929 . S
C356 C357 1.377 . S
C356 C358 1.384 . S
C357 C356 1.377 . S
C357 C363 1.390 . S
C358 H349 0.930 . S
C358 C356 1.384 . S
C358 C359 1.372 . S
C359 C358 1.372 . S
C359 C360 1.400 . S
C359 C364 1.490 . S
C360 H350 0.930 . S
C360 C359 1.400 . S
C360 C363 1.386 . S
H361 C377 0.930 . S
H362 C378 0.931 . S
C363 H351 0.929 . S
C363 C357 1.390 . S
C363 C360 1.386 . S
C364 C359 1.490 . S
C364 C366 1.395 . S
C364 C367 1.403 . S
H365 C371 0.930 . S
C366 H352 0.930 . S
C366 C364 1.395 . S
C366 C369 1.403 . S
C367 C364 1.403 . S
C367 C368 1.524 . S
C367 C371 1.400 . S
C368 H353 0.960 . S
C368 H354 0.960 . S
C368 H355 0.960 . S
C368 C367 1.524 . S
C369 C366 1.403 . S
C369 C370 1.392 . S
C369 C373 1.495 . S
C370 C369 1.392 . S
C370 C371 1.385 . S
C370 C372 1.478 . S
C371 H365 0.930 . S
C371 C367 1.400 . S
C371 C370 1.385 . S
C372 C370 1.478 . S
C372 C374 1.381 . S
C372 C378 1.383 . S
C373 C369 1.495 . S
C373 H379 0.959 . S
C373 H380 0.961 . S
C373 H381 0.960 . S
C374 C372 1.381 . S
C374 C375 1.394 . S
C374 H382 0.930 . S
C375 C374 1.394 . S
C375 C376 1.383 . S
C375 H383 0.929 . S
C376 C375 1.383 . S
C376 C377 1.377 . S
C377 H361 0.930 . S
C377 C376 1.377 . S
C377 C378 1.379 . S
C378 H362 0.931 . S
C378 C372 1.383 . S
C378 C377 1.379 . S
H379 C373 0.959 . S
H380 C373 0.961 . S
H381 C373 0.960 . S
H382 C374 0.930 . S
H383 C375 0.929 . S
H384 C392 0.929 . S
H385 C394 0.930 . S
H386 C396 0.930 . S
H387 C399 0.929 . S
H388 C402 0.930 . S
H389 C404 0.960 . S
H390 C404 0.960 . S
H391 C404 0.960 . S
C392 H384 0.929 . S
C392 C393 1.377 . S
C392 C394 1.384 . S
C393 C392 1.377 . S
C393 C399 1.390 . S
C394 H385 0.930 . S
C394 C392 1.384 . S
C394 C395 1.372 . S
C395 C394 1.372 . S
C395 C396 1.400 . S
C395 C400 1.490 . S
C396 H386 0.930 . S
C396 C395 1.400 . S
C396 C399 1.386 . S
H397 C413 0.930 . S
H398 C414 0.931 . S
C399 H387 0.929 . S
C399 C393 1.390 . S
C399 C396 1.386 . S
C400 C395 1.490 . S
C400 C402 1.395 . S
C400 C403 1.403 . S
H401 C407 0.930 . S
C402 H388 0.930 . S
C402 C400 1.395 . S
C402 C405 1.403 . S
C403 C400 1.403 . S
C403 C404 1.524 . S
C403 C407 1.400 . S
C404 H389 0.960 . S
C404 H390 0.960 . S
C404 H391 0.960 . S
C404 C403 1.524 . S
C405 C402 1.403 . S
C405 C406 1.392 . S
C405 C409 1.495 . S
C406 C405 1.392 . S
C406 C407 1.385 . S
C406 C408 1.478 . S
C407 H401 0.930 . S
C407 C403 1.400 . S
C407 C406 1.385 . S
C408 C406 1.478 . S
C408 C410 1.381 . S
C408 C414 1.383 . S
C409 C405 1.495 . S
C409 H415 0.959 . S
C409 H416 0.961 . S
C409 H417 0.960 . S
C410 C408 1.381 . S
C410 C411 1.394 . S
C410 H418 0.930 . S
C411 C410 1.394 . S
C411 C412 1.383 . S
C411 H419 0.929 . S
C412 C411 1.383 . S
C412 C413 1.377 . S
C413 H397 0.930 . S
C413 C412 1.377 . S
C413 C414 1.379 . S
C414 H398 0.931 . S
C414 C408 1.383 . S
C414 C413 1.379 . S
H415 C409 0.959 . S
H416 C409 0.961 . S
H417 C409 0.960 . S
H418 C410 0.930 . S
H419 C411 0.929 . S
H420 C428 0.929 . S
H421 C430 0.930 . S
H422 C432 0.930 . S
H423 C435 0.929 . S
H424 C438 0.930 . S
H425 C440 0.960 . S
H426 C440 0.960 . S
H427 C440 0.960 . S
C428 H420 0.929 . S
C428 C429 1.377 . S
C428 C430 1.384 . S
C429 C428 1.377 . S
C429 C435 1.390 . S
C430 H421 0.930 . S
C430 C428 1.384 . S
C430 C431 1.372 . S
C431 C430 1.372 . S
C431 C432 1.400 . S
C431 C436 1.490 . S
C432 H422 0.930 . S
C432 C431 1.400 . S
C432 C435 1.386 . S
H433 C449 0.930 . S
H434 C450 0.931 . S
C435 H423 0.929 . S
C435 C429 1.390 . S
C435 C432 1.386 . S
C436 C431 1.490 . S
C436 C438 1.395 . S
C436 C439 1.403 . S
H437 C443 0.930 . S
C438 H424 0.930 . S
C438 C436 1.395 . S
C438 C441 1.403 . S
C439 C436 1.403 . S
C439 C440 1.524 . S
C439 C443 1.400 . S
C440 H425 0.960 . S
C440 H426 0.960 . S
C440 H427 0.960 . S
C440 C439 1.524 . S
C441 C438 1.403 . S
C441 C442 1.392 . S
C441 C445 1.495 . S
C442 C441 1.392 . S
C442 C443 1.385 . S
C442 C444 1.478 . S
C443 H437 0.930 . S
C443 C439 1.400 . S
C443 C442 1.385 . S
C444 C442 1.478 . S
C444 C446 1.381 . S
C444 C450 1.383 . S
C445 C441 1.495 . S
C445 H451 0.959 . S
C445 H452 0.961 . S
C445 H453 0.960 . S
C446 C444 1.381 . S
C446 C447 1.394 . S
C446 H454 0.930 . S
C447 C446 1.394 . S
C447 C448 1.383 . S
C447 H455 0.929 . S
C448 C447 1.383 . S
C448 C449 1.377 . S
C449 H433 0.930 . S
C449 C448 1.377 . S
C449 C450 1.379 . S
C450 H434 0.931 . S
C450 C444 1.383 . S
C450 C449 1.379 . S
H451 C445 0.959 . S
H452 C445 0.961 . S
H453 C445 0.960 . S
H454 C446 0.930 . S
H455 C447 0.929 . S
H456 C464 0.929 . S
H457 C466 0.930 . S
H458 C468 0.930 . S
H459 C471 0.929 . S
H460 C474 0.930 . S
H461 C476 0.960 . S
H462 C476 0.960 . S
H463 C476 0.960 . S
C464 H456 0.929 . S
C464 C465 1.377 . S
C464 C466 1.384 . S
C465 C464 1.377 . S
C465 C471 1.390 . S
C466 H457 0.930 . S
C466 C464 1.384 . S
C466 C467 1.372 . S
C467 C466 1.372 . S
C467 C468 1.400 . S
C467 C472 1.490 . S
C468 H458 0.930 . S
C468 C467 1.400 . S
C468 C471 1.386 . S
H469 C485 0.930 . S
H470 C486 0.931 . S
C471 H459 0.929 . S
C471 C465 1.390 . S
C471 C468 1.386 . S
C472 C467 1.490 . S
C472 C474 1.395 . S
C472 C475 1.403 . S
H473 C479 0.930 . S
C474 H460 0.930 . S
C474 C472 1.395 . S
C474 C477 1.403 . S
C475 C472 1.403 . S
C475 C476 1.524 . S
C475 C479 1.400 . S
C476 H461 0.960 . S
C476 H462 0.960 . S
C476 H463 0.960 . S
C476 C475 1.524 . S
C477 C474 1.403 . S
C477 C478 1.392 . S
C477 C481 1.495 . S
C478 C477 1.392 . S
C478 C479 1.385 . S
C478 C480 1.478 . S
C479 H473 0.930 . S
C479 C475 1.400 . S
C479 C478 1.385 . S
C480 C478 1.478 . S
C480 C482 1.381 . S
C480 C486 1.383 . S
C481 C477 1.495 . S
C481 H487 0.959 . S
C481 H488 0.961 . S
C481 H489 0.960 . S
C482 C480 1.381 . S
C482 C483 1.394 . S
C482 H490 0.930 . S
C483 C482 1.394 . S
C483 C484 1.383 . S
C483 H491 0.929 . S
C484 C483 1.383 . S
C484 C485 1.377 . S
C485 H469 0.930 . S
C485 C484 1.377 . S
C485 C486 1.379 . S
C486 H470 0.931 . S
C486 C480 1.383 . S
C486 C485 1.379 . S
H487 C481 0.959 . S
H488 C481 0.961 . S
H489 C481 0.960 . S
H490 C482 0.930 . S
H491 C483 0.929 . S
H492 C500 0.929 . S
H493 C502 0.930 . S
H494 C504 0.930 . S
H495 C507 0.929 . S
H496 C510 0.930 . S
H497 C512 0.960 . S
H498 C512 0.960 . S
H499 C512 0.960 . S
C500 H492 0.929 . S
C500 C501 1.377 . S
C500 C502 1.384 . S
C501 C500 1.377 . S
C501 C507 1.390 . S
C502 H493 0.930 . S
C502 C500 1.384 . S
C502 C503 1.372 . S
C503 C502 1.372 . S
C503 C504 1.400 . S
C503 C508 1.490 . S
C504 H494 0.930 . S
C504 C503 1.400 . S
C504 C507 1.386 . S
H505 C521 0.930 . S
H506 C522 0.931 . S
C507 H495 0.929 . S
C507 C501 1.390 . S
C507 C504 1.386 . S
C508 C503 1.490 . S
C508 C510 1.395 . S
C508 C511 1.403 . S
H509 C515 0.930 . S
C510 H496 0.930 . S
C510 C508 1.395 . S
C510 C513 1.403 . S
C511 C508 1.403 . S
C511 C512 1.524 . S
C511 C515 1.400 . S
C512 H497 0.960 . S
C512 H498 0.960 . S
C512 H499 0.960 . S
C512 C511 1.524 . S
C513 C510 1.403 . S
C513 C514 1.392 . S
C513 C517 1.495 . S
C514 C513 1.392 . S
C514 C515 1.385 . S
C514 C516 1.478 . S
C515 H509 0.930 . S
C515 C511 1.400 . S
C515 C514 1.385 . S
C516 C514 1.478 . S
C516 C518 1.381 . S
C516 C522 1.383 . S
C517 C513 1.495 . S
C517 H523 0.959 . S
C517 H524 0.961 . S
C517 H525 0.960 . S
C518 C516 1.381 . S
C518 C519 1.394 . S
C518 H526 0.930 . S
C519 C518 1.394 . S
C519 C520 1.383 . S
C519 H527 0.929 . S
C520 C519 1.383 . S
C520 C521 1.377 . S
C521 H505 0.930 . S
C521 C520 1.377 . S
C521 C522 1.379 . S
C522 H506 0.931 . S
C522 C516 1.383 . S
C522 C521 1.379 . S
H523 C517 0.959 . S
H524 C517 0.961 . S
H525 C517 0.960 . S
H526 C518 0.930 . S
H527 C519 0.929 . S
H528 C536 0.929 . S
H529 C538 0.930 . S
H530 C540 0.930 . S
H531 C543 0.929 . S
H532 C546 0.930 . S
H533 C548 0.960 . S
H534 C548 0.960 . S
H535 C548 0.960 . S
C536 H528 0.929 . S
C536 C537 1.377 . S
C536 C538 1.384 . S
C537 C536 1.377 . S
C537 C543 1.390 . S
C538 H529 0.930 . S
C538 C536 1.384 . S
C538 C539 1.372 . S
C539 C538 1.372 . S
C539 C540 1.400 . S
C539 C544 1.490 . S
C540 H530 0.930 . S
C540 C539 1.400 . S
C540 C543 1.386 . S
H541 C557 0.930 . S
H542 C558 0.931 . S
C543 H531 0.929 . S
C543 C537 1.390 . S
C543 C540 1.386 . S
C544 C539 1.490 . S
C544 C546 1.395 . S
C544 C547 1.403 . S
H545 C551 0.930 . S
C546 H532 0.930 . S
C546 C544 1.395 . S
C546 C549 1.403 . S
C547 C544 1.403 . S
C547 C548 1.524 . S
C547 C551 1.400 . S
C548 H533 0.960 . S
C548 H534 0.960 . S
C548 H535 0.960 . S
C548 C547 1.524 . S
C549 C546 1.403 . S
C549 C550 1.392 . S
C549 C553 1.495 . S
C550 C549 1.392 . S
C550 C551 1.385 . S
C550 C552 1.478 . S
C551 H545 0.930 . S
C551 C547 1.400 . S
C551 C550 1.385 . S
C552 C550 1.478 . S
C552 C554 1.381 . S
C552 C558 1.383 . S
C553 C549 1.495 . S
C553 H559 0.959 . S
C553 H560 0.961 . S
C553 H561 0.960 . S
C554 C552 1.381 . S
C554 C555 1.394 . S
C554 H562 0.930 . S
C555 C554 1.394 . S
C555 C556 1.383 . S
C555 H563 0.929 . S
C556 C555 1.383 . S
C556 C557 1.377 . S
C557 H541 0.930 . S
C557 C556 1.377 . S
C557 C558 1.379 . S
C558 H542 0.931 . S
C558 C552 1.383 . S
C558 C557 1.379 . S
H559 C553 0.959 . S
H560 C553 0.961 . S
H561 C553 0.960 . S
H562 C554 0.930 . S
H563 C555 0.929 . S
H564 C572 0.929 . S
H565 C574 0.930 . S
H566 C576 0.930 . S
H567 C579 0.929 . S
H568 C582 0.930 . S
H569 C584 0.960 . S
H570 C584 0.960 . S
H571 C584 0.960 . S
C572 H564 0.929 . S
C572 C573 1.377 . S
C572 C574 1.384 . S
C573 C572 1.377 . S
C573 C579 1.390 . S
C574 H565 0.930 . S
C574 C572 1.384 . S
C574 C575 1.372 . S
C575 C574 1.372 . S
C575 C576 1.400 . S
C575 C580 1.490 . S
C576 H566 0.930 . S
C576 C575 1.400 . S
C576 C579 1.386 . S
H577 C593 0.930 . S
H578 C594 0.931 . S
C579 H567 0.929 . S
C579 C573 1.390 . S
C579 C576 1.386 . S
C580 C575 1.490 . S
C580 C582 1.395 . S
C580 C583 1.403 . S
H581 C587 0.930 . S
C582 H568 0.930 . S
C582 C580 1.395 . S
C582 C585 1.403 . S
C583 C580 1.403 . S
C583 C584 1.524 . S
C583 C587 1.400 . S
C584 H569 0.960 . S
C584 H570 0.960 . S
C584 H571 0.960 . S
C584 C583 1.524 . S
C585 C582 1.403 . S
C585 C586 1.392 . S
C585 C589 1.495 . S
C586 C585 1.392 . S
C586 C587 1.385 . S
C586 C588 1.478 . S
C587 H581 0.930 . S
C587 C583 1.400 . S
C587 C586 1.385 . S
C588 C586 1.478 . S
C588 C590 1.381 . S
C588 C594 1.383 . S
C589 C585 1.495 . S
C589 H595 0.959 . S
C589 H596 0.961 . S
C589 H597 0.960 . S
C590 C588 1.381 . S
C590 C591 1.394 . S
C590 H598 0.930 . S
C591 C590 1.394 . S
C591 C592 1.383 . S
C591 H599 0.929 . S
C592 C591 1.383 . S
C592 C593 1.377 . S
C593 H577 0.930 . S
C593 C592 1.377 . S
C593 C594 1.379 . S
C594 H578 0.931 . S
C594 C588 1.383 . S
C594 C593 1.379 . S
H595 C589 0.959 . S
H596 C589 0.961 . S
H597 C589 0.960 . S
H598 C590 0.930 . S
H599 C591 0.929 . S
H600 C608 0.929 . S
H601 C610 0.930 . S
H602 C612 0.930 . S
H603 C615 0.929 . S
H604 C618 0.930 . S
H605 C620 0.960 . S
H606 C620 0.960 . S
H607 C620 0.960 . S
C608 H600 0.929 . S
C608 C609 1.377 . S
C608 C610 1.384 . S
C609 C608 1.377 . S
C609 C615 1.390 . S
C610 H601 0.930 . S
C610 C608 1.384 . S
C610 C611 1.372 . S
C611 C610 1.372 . S
C611 C612 1.400 . S
C611 C616 1.490 . S
C612 H602 0.930 . S
C612 C611 1.400 . S
C612 C615 1.386 . S
H613 C629 0.930 . S
H614 C630 0.931 . S
C615 H603 0.929 . S
C615 C609 1.390 . S
C615 C612 1.386 . S
C616 C611 1.490 . S
C616 C618 1.395 . S
C616 C619 1.403 . S
H617 C623 0.930 . S
C618 H604 0.930 . S
C618 C616 1.395 . S
C618 C621 1.403 . S
C619 C616 1.403 . S
C619 C620 1.524 . S
C619 C623 1.400 . S
C620 H605 0.960 . S
C620 H606 0.960 . S
C620 H607 0.960 . S
C620 C619 1.524 . S
C621 C618 1.403 . S
C621 C622 1.392 . S
C621 C625 1.495 . S
C622 C621 1.392 . S
C622 C623 1.385 . S
C622 C624 1.478 . S
C623 H617 0.930 . S
C623 C619 1.400 . S
C623 C622 1.385 . S
C624 C622 1.478 . S
C624 C626 1.381 . S
C624 C630 1.383 . S
C625 C621 1.495 . S
C625 H631 0.959 . S
C625 H632 0.961 . S
C625 H633 0.960 . S
C626 C624 1.381 . S
C626 C627 1.394 . S
C626 H634 0.930 . S
C627 C626 1.394 . S
C627 C628 1.383 . S
C627 H635 0.929 . S
C628 C627 1.383 . S
C628 C629 1.377 . S
C629 H613 0.930 . S
C629 C628 1.377 . S
C629 C630 1.379 . S
C630 H614 0.931 . S
C630 C624 1.383 . S
C630 C629 1.379 . S
H631 C625 0.959 . S
H632 C625 0.961 . S
H633 C625 0.960 . S
H634 C626 0.930 . S
H635 C627 0.929 . S
H636 C644 0.929 . S
H637 C646 0.930 . S
H638 C648 0.930 . S
H639 C651 0.929 . S
H640 C654 0.930 . S
H641 C656 0.960 . S
H642 C656 0.960 . S
H643 C656 0.960 . S
C644 H636 0.929 . S
C644 C645 1.377 . S
C644 C646 1.384 . S
C645 C644 1.377 . S
C645 C651 1.390 . S
C646 H637 0.930 . S
C646 C644 1.384 . S
C646 C647 1.372 . S
C647 C646 1.372 . S
C647 C648 1.400 . S
C647 C652 1.490 . S
C648 H638 0.930 . S
C648 C647 1.400 . S
C648 C651 1.386 . S
H649 C665 0.930 . S
H650 C666 0.931 . S
C651 H639 0.929 . S
C651 C645 1.390 . S
C651 C648 1.386 . S
C652 C647 1.490 . S
C652 C654 1.395 . S
C652 C655 1.403 . S
H653 C659 0.930 . S
C654 H640 0.930 . S
C654 C652 1.395 . S
C654 C657 1.403 . S
C655 C652 1.403 . S
C655 C656 1.524 . S
C655 C659 1.400 . S
C656 H641 0.960 . S
C656 H642 0.960 . S
C656 H643 0.960 . S
C656 C655 1.524 . S
C657 C654 1.403 . S
C657 C658 1.392 . S
C657 C661 1.495 . S
C658 C657 1.392 . S
C658 C659 1.385 . S
C658 C660 1.478 . S
C659 H653 0.930 . S
C659 C655 1.400 . S
C659 C658 1.385 . S
C660 C658 1.478 . S
C660 C662 1.381 . S
C660 C666 1.383 . S
C661 C657 1.495 . S
C661 H667 0.959 . S
C661 H668 0.961 . S
C661 H669 0.960 . S
C662 C660 1.381 . S
C662 C663 1.394 . S
C662 H670 0.930 . S
C663 C662 1.394 . S
C663 C664 1.383 . S
C663 H671 0.929 . S
C664 C663 1.383 . S
C664 C665 1.377 . S
C665 H649 0.930 . S
C665 C664 1.377 . S
C665 C666 1.379 . S
C666 H650 0.931 . S
C666 C660 1.383 . S
C666 C665 1.379 . S
H667 C661 0.959 . S
H668 C661 0.961 . S
H669 C661 0.960 . S
H670 C662 0.930 . S
H671 C663 0.929 . S
H672 C680 0.929 . S
H673 C682 0.930 . S
H674 C684 0.930 . S
H675 C687 0.929 . S
H676 C690 0.930 . S
H677 C692 0.960 . S
H678 C692 0.960 . S
H679 C692 0.960 . S
C680 H672 0.929 . S
C680 C681 1.377 . S
C680 C682 1.384 . S
C681 C680 1.377 . S
C681 C687 1.390 . S
C682 H673 0.930 . S
C682 C680 1.384 . S
C682 C683 1.372 . S
C683 C682 1.372 . S
C683 C684 1.400 . S
C683 C688 1.490 . S
C684 H674 0.930 . S
C684 C683 1.400 . S
C684 C687 1.386 . S
H685 C701 0.930 . S
H686 C702 0.931 . S
C687 H675 0.929 . S
C687 C681 1.390 . S
C687 C684 1.386 . S
C688 C683 1.490 . S
C688 C690 1.395 . S
C688 C691 1.403 . S
H689 C695 0.930 . S
C690 H676 0.930 . S
C690 C688 1.395 . S
C690 C693 1.403 . S
C691 C688 1.403 . S
C691 C692 1.524 . S
C691 C695 1.400 . S
C692 H677 0.960 . S
C692 H678 0.960 . S
C692 H679 0.960 . S
C692 C691 1.524 . S
C693 C690 1.403 . S
C693 C694 1.392 . S
C693 C697 1.495 . S
C694 C693 1.392 . S
C694 C695 1.385 . S
C694 C696 1.478 . S
C695 H689 0.930 . S
C695 C691 1.400 . S
C695 C694 1.385 . S
C696 C694 1.478 . S
C696 C698 1.381 . S
C696 C702 1.383 . S
C697 C693 1.495 . S
C697 H703 0.959 . S
C697 H704 0.961 . S
C697 H705 0.960 . S
C698 C696 1.381 . S
C698 C699 1.394 . S
C698 H706 0.930 . S
C699 C698 1.394 . S
C699 C700 1.383 . S
C699 H707 0.929 . S
C700 C699 1.383 . S
C700 C701 1.377 . S
C701 H685 0.930 . S
C701 C700 1.377 . S
C701 C702 1.379 . S
C702 H686 0.931 . S
C702 C696 1.383 . S
C702 C701 1.379 . S
H703 C697 0.959 . S
H704 C697 0.961 . S
H705 C697 0.960 . S
H706 C698 0.930 . S
H707 C699 0.929 . S
H708 C716 0.929 . S
H709 C718 0.930 . S
H710 C720 0.930 . S
H711 C723 0.929 . S
H712 C726 0.930 . S
H713 C728 0.960 . S
H714 C728 0.960 . S
H715 C728 0.960 . S
C716 H708 0.929 . S
C716 C717 1.377 . S
C716 C718 1.384 . S
C717 C716 1.377 . S
C717 C723 1.390 . S
C718 H709 0.930 . S
C718 C716 1.384 . S
C718 C719 1.372 . S
C719 C718 1.372 . S
C719 C720 1.400 . S
C719 C724 1.490 . S
C720 H710 0.930 . S
C720 C719 1.400 . S
C720 C723 1.386 . S
H721 C737 0.930 . S
H722 C738 0.931 . S
C723 H711 0.929 . S
C723 C717 1.390 . S
C723 C720 1.386 . S
C724 C719 1.490 . S
C724 C726 1.395 . S
C724 C727 1.403 . S
H725 C731 0.930 . S
C726 H712 0.930 . S
C726 C724 1.395 . S
C726 C729 1.403 . S
C727 C724 1.403 . S
C727 C728 1.524 . S
C727 C731 1.400 . S
C728 H713 0.960 . S
C728 H714 0.960 . S
C728 H715 0.960 . S
C728 C727 1.524 . S
C729 C726 1.403 . S
C729 C730 1.392 . S
C729 C733 1.495 . S
C730 C729 1.392 . S
C730 C731 1.385 . S
C730 C732 1.478 . S
C731 H725 0.930 . S
C731 C727 1.400 . S
C731 C730 1.385 . S
C732 C730 1.478 . S
C732 C734 1.381 . S
C732 C738 1.383 . S
C733 C729 1.495 . S
C733 H739 0.959 . S
C733 H740 0.961 . S
C733 H741 0.960 . S
C734 C732 1.381 . S
C734 C735 1.394 . S
C734 H742 0.930 . S
C735 C734 1.394 . S
C735 C736 1.383 . S
C735 H743 0.929 . S
C736 C735 1.383 . S
C736 C737 1.377 . S
C737 H721 0.930 . S
C737 C736 1.377 . S
C737 C738 1.379 . S
C738 H722 0.931 . S
C738 C732 1.383 . S
C738 C737 1.379 . S
H739 C733 0.959 . S
H740 C733 0.961 . S
H741 C733 0.960 . S
H742 C734 0.930 . S
H743 C735 0.929 . S
H744 C752 0.929 . S
H745 C754 0.930 . S
H746 C756 0.930 . S
H747 C759 0.929 . S
H748 C762 0.930 . S
H749 C764 0.960 . S
H750 C764 0.960 . S
H751 C764 0.960 . S
C752 H744 0.929 . S
C752 C753 1.377 . S
C752 C754 1.384 . S
C753 C752 1.377 . S
C753 C759 1.390 . S
C754 H745 0.930 . S
C754 C752 1.384 . S
C754 C755 1.372 . S
C755 C754 1.372 . S
C755 C756 1.400 . S
C755 C760 1.490 . S
C756 H746 0.930 . S
C756 C755 1.400 . S
C756 C759 1.386 . S
H757 C773 0.930 . S
H758 C774 0.931 . S
C759 H747 0.929 . S
C759 C753 1.390 . S
C759 C756 1.386 . S
C760 C755 1.490 . S
C760 C762 1.395 . S
C760 C763 1.403 . S
H761 C767 0.930 . S
C762 H748 0.930 . S
C762 C760 1.395 . S
C762 C765 1.403 . S
C763 C760 1.403 . S
C763 C764 1.524 . S
C763 C767 1.400 . S
C764 H749 0.960 . S
C764 H750 0.960 . S
C764 H751 0.960 . S
C764 C763 1.524 . S
C765 C762 1.403 . S
C765 C766 1.392 . S
C765 C769 1.495 . S
C766 C765 1.392 . S
C766 C767 1.385 . S
C766 C768 1.478 . S
C767 H761 0.930 . S
C767 C763 1.400 . S
C767 C766 1.385 . S
C768 C766 1.478 . S
C768 C770 1.381 . S
C768 C774 1.383 . S
C769 C765 1.495 . S
C769 H775 0.959 . S
C769 H776 0.961 . S
C769 H777 0.960 . S
C770 C768 1.381 . S
C770 C771 1.394 . S
C770 H778 0.930 . S
C771 C770 1.394 . S
C771 C772 1.383 . S
C771 H779 0.929 . S
C772 C771 1.383 . S
C772 C773 1.377 . S
C773 H757 0.930 . S
C773 C772 1.377 . S
C773 C774 1.379 . S
C774 H758 0.931 . S
C774 C768 1.383 . S
C774 C773 1.379 . S
H775 C769 0.959 . S
H776 C769 0.961 . S
H777 C769 0.960 . S
H778 C770 0.930 . S
H779 C771 0.929 . S
H780 C788 0.929 . S
H781 C790 0.930 . S
H782 C792 0.930 . S
H783 C795 0.929 . S
H784 C798 0.930 . S
H785 C800 0.960 . S
H786 C800 0.960 . S
H787 C800 0.960 . S
C788 H780 0.929 . S
C788 C789 1.377 . S
C788 C790 1.384 . S
C789 C788 1.377 . S
C789 C795 1.390 . S
C790 H781 0.930 . S
C790 C788 1.384 . S
C790 C791 1.372 . S
C791 C790 1.372 . S
C791 C792 1.400 . S
C791 C796 1.490 . S
C792 H782 0.930 . S
C792 C791 1.400 . S
C792 C795 1.386 . S
H793 C809 0.930 . S
H794 C810 0.931 . S
C795 H783 0.929 . S
C795 C789 1.390 . S
C795 C792 1.386 . S
C796 C791 1.490 . S
C796 C798 1.395 . S
C796 C799 1.403 . S
H797 C803 0.930 . S
C798 H784 0.930 . S
C798 C796 1.395 . S
C798 C801 1.403 . S
C799 C796 1.403 . S
C799 C800 1.524 . S
C799 C803 1.400 . S
C800 H785 0.960 . S
C800 H786 0.960 . S
C800 H787 0.960 . S
C800 C799 1.524 . S
C801 C798 1.403 . S
C801 C802 1.392 . S
C801 C805 1.495 . S
C802 C801 1.392 . S
C802 C803 1.385 . S
C802 C804 1.478 . S
C803 H797 0.930 . S
C803 C799 1.400 . S
C803 C802 1.385 . S
C804 C802 1.478 . S
C804 C806 1.381 . S
C804 C810 1.383 . S
C805 C801 1.495 . S
C805 H811 0.959 . S
C805 H812 0.961 . S
C805 H813 0.960 . S
C806 C804 1.381 . S
C806 C807 1.394 . S
C806 H814 0.930 . S
C807 C806 1.394 . S
C807 C808 1.383 . S
C807 H815 0.929 . S
C808 C807 1.383 . S
C808 C809 1.377 . S
C809 H793 0.930 . S
C809 C808 1.377 . S
C809 C810 1.379 . S
C810 H794 0.931 . S
C810 C804 1.383 . S
C810 C809 1.379 . S
H811 C805 0.959 . S
H812 C805 0.961 . S
H813 C805 0.960 . S
H814 C806 0.930 . S
H815 C807 0.929 . S
H816 C824 0.929 . S
H817 C826 0.930 . S
H818 C828 0.930 . S
H819 C831 0.929 . S
H820 C834 0.930 . S
H821 C836 0.960 . S
H822 C836 0.960 . S
H823 C836 0.960 1_554 S
C824 H816 0.929 . S
C824 C825 1.377 1_556 S
C824 C826 1.384 . S
C825 C824 1.377 1_554 S
C825 C831 1.390 . S
C826 H817 0.930 . S
C826 C824 1.384 . S
C826 C827 1.372 1_556 S
C827 C826 1.372 1_554 S
C827 C828 1.400 . S
C827 C832 1.490 . S
C828 H818 0.930 . S
C828 C827 1.400 . S
C828 C831 1.386 . S
H829 C845 0.930 . S
H830 C846 0.931 . S
C831 H819 0.929 . S
C831 C825 1.390 . S
C831 C828 1.386 . S
C832 C827 1.490 . S
C832 C834 1.395 . S
C832 C835 1.403 1_554 S
H833 C839 0.929 1_556 S
C834 H820 0.930 . S
C834 C832 1.395 . S
C834 C837 1.403 . S
C835 C832 1.403 1_556 S
C835 C836 1.524 . S
C835 C839 1.400 1_556 S
C836 H821 0.960 . S
C836 H822 0.960 . S
C836 H823 0.960 1_556 S
C836 C835 1.524 . S
C837 C834 1.403 . S
C837 C838 1.392 . S
C837 C841 1.495 . S
C838 C837 1.392 . S
C838 C839 1.387 . S
C838 C840 1.478 . S
C839 H833 0.929 1_554 S
C839 C835 1.400 1_554 S
C839 C838 1.387 . S
C840 C838 1.478 . S
C840 C842 1.381 1_554 S
C840 C846 1.383 . S
C841 C837 1.495 . S
C841 H847 0.959 . S
C841 H848 0.961 . S
C841 H849 0.960 1_554 S
C842 C840 1.381 1_556 S
C842 C843 1.394 . S
C842 H850 0.930 . S
C843 C842 1.394 . S
C843 C844 1.383 1_556 S
C843 H851 0.929 . S
C844 C843 1.383 1_554 S
C844 C845 1.377 . S
C845 H829 0.930 . S
C845 C844 1.377 . S
C845 C846 1.379 . S
C846 H830 0.931 . S
C846 C840 1.383 . S
C846 C845 1.379 . S
H847 C841 0.959 . S
H848 C841 0.961 . S
H849 C841 0.960 1_556 S
H850 C842 0.930 . S
H851 C843 0.929 . S
H852 C860 0.929 . S
H853 C862 0.930 . S
H854 C864 0.930 . S
H855 C867 0.929 . S
H856 C870 0.930 . S
H857 C872 0.960 . S
H858 C872 0.960 . S
H859 C872 0.960 . S
C860 H852 0.929 . S
C860 C861 1.377 . S
C860 C862 1.384 . S
C861 C860 1.377 . S
C861 C867 1.390 . S
C862 H853 0.930 . S
C862 C860 1.384 . S
C862 C863 1.372 . S
C863 C862 1.372 . S
C863 C864 1.400 . S
C863 C868 1.490 . S
C864 H854 0.930 . S
C864 C863 1.400 . S
C864 C867 1.386 . S
H865 C881 0.930 . S
H866 C882 0.931 . S
C867 H855 0.929 . S
C867 C861 1.390 . S
C867 C864 1.386 . S
C868 C863 1.490 . S
C868 C870 1.395 . S
C868 C871 1.403 . S
H869 C875 0.930 . S
C870 H856 0.930 . S
C870 C868 1.395 . S
C870 C873 1.403 . S
C871 C868 1.403 . S
C871 C872 1.524 . S
C871 C875 1.400 . S
C872 H857 0.960 . S
C872 H858 0.960 . S
C872 H859 0.960 . S
C872 C871 1.524 . S
C873 C870 1.403 . S
C873 C874 1.392 . S
C873 C877 1.495 . S
C874 C873 1.392 . S
C874 C875 1.385 . S
C874 C876 1.478 . S
C875 H869 0.930 . S
C875 C871 1.400 . S
C875 C874 1.385 . S
C876 C874 1.478 . S
C876 C878 1.381 . S
C876 C882 1.383 . S
C877 C873 1.495 . S
C877 H883 0.959 . S
C877 H884 0.961 . S
C877 H885 0.960 . S
C878 C876 1.381 . S
C878 C879 1.394 . S
C878 H886 0.930 . S
C879 C878 1.394 . S
C879 C880 1.383 . S
C879 H887 0.929 . S
C880 C879 1.383 . S
C880 C881 1.377 . S
C881 H865 0.930 . S
C881 C880 1.377 . S
C881 C882 1.379 . S
C882 H866 0.931 . S
C882 C876 1.383 . S
C882 C881 1.379 . S
H883 C877 0.959 . S
H884 C877 0.961 . S
H885 C877 0.960 . S
H886 C878 0.930 . S
H887 C879 0.929 . S
H888 C896 0.929 . S
H889 C898 0.930 . S
H890 C900 0.930 . S
H891 C903 0.929 . S
H892 C906 0.930 . S
H893 C908 0.960 . S
H894 C908 0.960 . S
H895 C908 0.960 . S
C896 H888 0.929 . S
C896 C897 1.377 . S
C896 C898 1.384 . S
C897 C896 1.377 . S
C897 C903 1.390 1_554 S
C898 H889 0.930 . S
C898 C896 1.384 . S
C898 C899 1.372 . S
C899 C898 1.372 . S
C899 C900 1.400 1_554 S
C899 C904 1.490 . S
C900 H890 0.930 . S
C900 C899 1.400 1_556 S
C900 C903 1.386 . S
H901 C917 0.930 . S
H902 C918 0.931 . S
C903 H891 0.929 . S
C903 C897 1.390 1_556 S
C903 C900 1.386 . S
C904 C899 1.490 . S
C904 C906 1.395 . S
C904 C907 1.403 1_554 S
H905 C911 0.930 . S
C906 H892 0.930 . S
C906 C904 1.395 . S
C906 C909 1.403 . S
C907 C904 1.403 1_556 S
C907 C908 1.524 . S
C907 C911 1.400 . S
C908 H893 0.960 . S
C908 H894 0.960 . S
C908 H895 0.960 . S
C908 C907 1.524 . S
C909 C906 1.403 . S
C909 C910 1.392 . S
C909 C913 1.495 . S
C910 C909 1.392 . S
C910 C911 1.385 1_554 S
C910 C912 1.478 . S
C911 H905 0.930 . S
C911 C907 1.400 . S
C911 C910 1.385 1_556 S
C912 C910 1.478 . S
C912 C914 1.381 . S
C912 C918 1.383 1_554 S
C913 C909 1.495 . S
C913 H919 0.959 . S
C913 H920 0.961 . S
C913 H921 0.960 . S
C914 C912 1.381 . S
C914 C915 1.394 . S
C914 H922 0.930 . S
C915 C914 1.394 . S
C915 C916 1.383 . S
C915 H923 0.929 . S
C916 C915 1.383 . S
C916 C917 1.377 1_554 S
C917 H901 0.930 . S
C917 C916 1.377 1_556 S
C917 C918 1.379 . S
C918 H902 0.931 . S
C918 C912 1.383 1_556 S
C918 C917 1.379 . S
H919 C913 0.959 . S
H920 C913 0.961 . S
H921 C913 0.960 . S
H922 C914 0.930 . S
H923 C915 0.929 . S
H924 C932 0.929 . S
H925 C934 0.930 . S
H926 C936 0.930 . S
H927 C939 0.929 . S
H928 C942 0.930 . S
H929 C944 0.960 . S
H930 C944 0.960 . S
H931 C944 0.960 . S
C932 H924 0.929 . S
C932 C933 1.377 . S
C932 C934 1.384 . S
C933 C932 1.377 . S
C933 C939 1.390 . S
C934 H925 0.930 . S
C934 C932 1.384 . S
C934 C935 1.372 . S
C935 C934 1.372 . S
C935 C936 1.400 . S
C935 C940 1.490 . S
C936 H926 0.930 . S
C936 C935 1.400 . S
C936 C939 1.386 . S
H937 C953 0.930 . S
H938 C954 0.931 . S
C939 H927 0.929 . S
C939 C933 1.390 . S
C939 C936 1.386 . S
C940 C935 1.490 . S
C940 C942 1.395 . S
C940 C943 1.403 . S
H941 C947 0.930 . S
C942 H928 0.930 . S
C942 C940 1.395 . S
C942 C945 1.403 . S
C943 C940 1.403 . S
C943 C944 1.524 . S
C943 C947 1.400 . S
C944 H929 0.960 . S
C944 H930 0.960 . S
C944 H931 0.960 . S
C944 C943 1.524 . S
C945 C942 1.403 . S
C945 C946 1.392 . S
C945 C949 1.495 . S
C946 C945 1.392 . S
C946 C947 1.385 . S
C946 C948 1.478 . S
C947 H941 0.930 . S
C947 C943 1.400 . S
C947 C946 1.385 . S
C948 C946 1.478 . S
C948 C950 1.381 . S
C948 C954 1.383 . S
C949 C945 1.495 . S
C949 H955 0.959 . S
C949 H956 0.961 . S
C949 H957 0.960 . S
C950 C948 1.381 . S
C950 C951 1.394 . S
C950 H958 0.930 . S
C951 C950 1.394 . S
C951 C952 1.383 . S
C951 H959 0.929 . S
C952 C951 1.383 . S
C952 C953 1.377 . S
C953 H937 0.930 . S
C953 C952 1.377 . S
C953 C954 1.379 . S
C954 H938 0.931 . S
C954 C948 1.383 . S
C954 C953 1.379 . S
H955 C949 0.959 . S
H956 C949 0.961 . S
H957 C949 0.960 . S
H958 C950 0.930 . S
H959 C951 0.929 . S
H960 C968 0.929 . S
H961 C970 0.930 . S
H962 C972 0.930 . S
H963 C975 0.929 . S
H964 C978 0.930 . S
H965 C980 0.960 . S
H966 C980 0.960 . S
H967 C980 0.960 . S
C968 H960 0.929 . S
C968 C969 1.377 . S
C968 C970 1.384 . S
C969 C968 1.377 . S
C969 C975 1.390 . S
C970 H961 0.930 . S
C970 C968 1.384 . S
C970 C971 1.372 . S
C971 C970 1.372 . S
C971 C972 1.400 . S
C971 C976 1.490 . S
C972 H962 0.930 . S
C972 C971 1.400 . S
C972 C975 1.386 . S
H973 C989 0.930 . S
H974 C990 0.931 . S
C975 H963 0.929 . S
C975 C969 1.390 . S
C975 C972 1.386 . S
C976 C971 1.490 . S
C976 C978 1.395 . S
C976 C979 1.403 . S
H977 C983 0.930 . S
C978 H964 0.930 . S
C978 C976 1.395 . S
C978 C981 1.403 . S
C979 C976 1.403 . S
C979 C980 1.524 . S
C979 C983 1.400 . S
C980 H965 0.960 . S
C980 H966 0.960 . S
C980 H967 0.960 . S
C980 C979 1.524 . S
C981 C978 1.403 . S
C981 C982 1.392 . S
C981 C985 1.495 . S
C982 C981 1.392 . S
C982 C983 1.385 . S
C982 C984 1.478 . S
C983 H977 0.930 . S
C983 C979 1.400 . S
C983 C982 1.385 . S
C984 C982 1.478 . S
C984 C986 1.381 . S
C984 C990 1.383 . S
C985 C981 1.495 . S
C985 H991 0.959 . S
C985 H992 0.961 . S
C985 H993 0.960 . S
C986 C984 1.381 . S
C986 C987 1.394 . S
C986 H994 0.930 . S
C987 C986 1.394 . S
C987 C988 1.383 . S
C987 H995 0.929 . S
C988 C987 1.383 . S
C988 C989 1.377 . S
C989 H973 0.930 . S
C989 C988 1.377 . S
C989 C990 1.379 . S
C990 H974 0.931 . S
C990 C984 1.383 . S
C990 C989 1.379 . S
H991 C985 0.959 . S
H992 C985 0.961 . S
H993 C985 0.960 . S
H994 C986 0.930 . S
H995 C987 0.929 . S
H996 C1004 0.929 . S
H997 C1006 0.930 . S
H998 C1008 0.930 . S
H999 C1011 0.929 . S
H1000 C1014 0.930 . S
H1001 C1016 0.960 . S
H1002 C1016 0.960 . S
H1003 C1016 0.960 . S
C1004 H996 0.929 . S
C1004 C1005 1.377 . S
C1004 C1006 1.384 . S
C1005 C1004 1.377 . S
C1005 C1011 1.390 1_554 S
C1006 H997 0.930 . S
C1006 C1004 1.384 . S
C1006 C1007 1.372 . S
C1007 C1006 1.372 . S
C1007 C1008 1.400 1_554 S
C1007 C1012 1.490 . S
C1008 H998 0.930 . S
C1008 C1007 1.400 1_556 S
C1008 C1011 1.386 . S
H1009 C1025 0.930 . S
H1010 C1026 0.931 . S
C1011 H999 0.929 . S
C1011 C1005 1.390 1_556 S
C1011 C1008 1.386 . S
C1012 C1007 1.490 . S
C1012 C1014 1.395 . S
C1012 C1015 1.403 1_554 S
H1013 C1019 0.930 . S
C1014 H1000 0.930 . S
C1014 C1012 1.395 . S
C1014 C1017 1.403 . S
C1015 C1012 1.403 1_556 S
C1015 C1016 1.524 . S
C1015 C1019 1.400 . S
C1016 H1001 0.960 . S
C1016 H1002 0.960 . S
C1016 H1003 0.960 . S
C1016 C1015 1.524 . S
C1017 C1014 1.403 . S
C1017 C1018 1.392 . S
C1017 C1021 1.495 . S
C1018 C1017 1.392 . S
C1018 C1019 1.385 1_554 S
C1018 C1020 1.478 . S
C1019 H1013 0.930 . S
C1019 C1015 1.400 . S
C1019 C1018 1.385 1_556 S
C1020 C1018 1.478 . S
C1020 C1022 1.381 . S
C1020 C1026 1.383 1_554 S
C1021 C1017 1.495 . S
C1021 H1027 0.959 . S
C1021 H1028 0.961 . S
C1021 H1029 0.960 . S
C1022 C1020 1.381 . S
C1022 C1023 1.394 . S
C1022 H1030 0.930 . S
C1023 C1022 1.394 . S
C1023 C1024 1.383 . S
C1023 H1031 0.929 . S
C1024 C1023 1.383 . S
C1024 C1025 1.377 1_554 S
C1025 H1009 0.930 . S
C1025 C1024 1.377 1_556 S
C1025 C1026 1.379 . S
C1026 H1010 0.931 . S
C1026 C1020 1.383 1_556 S
C1026 C1025 1.379 . S
H1027 C1021 0.959 . S
H1028 C1021 0.961 . S
H1029 C1021 0.960 . S
H1030 C1022 0.930 . S
H1031 C1023 0.929 . S
H1032 C1040 0.929 . S
H1033 C1042 0.930 . S
H1034 C1044 0.930 . S
H1035 C1047 0.929 . S
H1036 C1050 0.930 . S
H1037 C1052 0.960 . S
H1038 C1052 0.960 . S
H1039 C1052 0.960 . S
C1040 H1032 0.929 . S
C1040 C1041 1.377 . S
C1040 C1042 1.384 . S
C1041 C1040 1.377 . S
C1041 C1047 1.390 . S
C1042 H1033 0.930 . S
C1042 C1040 1.384 . S
C1042 C1043 1.372 . S
C1043 C1042 1.372 . S
C1043 C1044 1.400 . S
C1043 C1048 1.490 . S
C1044 H1034 0.930 . S
C1044 C1043 1.400 . S
C1044 C1047 1.386 . S
H1045 C1061 0.930 . S
H1046 C1062 0.931 . S
C1047 H1035 0.929 . S
C1047 C1041 1.390 . S
C1047 C1044 1.386 . S
C1048 C1043 1.490 . S
C1048 C1050 1.395 . S
C1048 C1051 1.403 . S
H1049 C1055 0.930 . S
C1050 H1036 0.930 . S
C1050 C1048 1.395 . S
C1050 C1053 1.403 . S
C1051 C1048 1.403 . S
C1051 C1052 1.524 . S
C1051 C1055 1.400 . S
C1052 H1037 0.960 . S
C1052 H1038 0.960 . S
C1052 H1039 0.960 . S
C1052 C1051 1.524 . S
C1053 C1050 1.403 . S
C1053 C1054 1.392 . S
C1053 C1057 1.495 . S
C1054 C1053 1.392 . S
C1054 C1055 1.385 . S
C1054 C1056 1.478 . S
C1055 H1049 0.930 . S
C1055 C1051 1.400 . S
C1055 C1054 1.385 . S
C1056 C1054 1.478 . S
C1056 C1058 1.381 . S
C1056 C1062 1.383 . S
C1057 C1053 1.495 . S
C1057 H1063 0.959 . S
C1057 H1064 0.961 . S
C1057 H1065 0.960 . S
C1058 C1056 1.381 . S
C1058 C1059 1.394 . S
C1058 H1066 0.930 . S
C1059 C1058 1.394 . S
C1059 C1060 1.383 . S
C1059 H1067 0.929 . S
C1060 C1059 1.383 . S
C1060 C1061 1.377 . S
C1061 H1045 0.930 . S
C1061 C1060 1.377 . S
C1061 C1062 1.379 . S
C1062 H1046 0.931 . S
C1062 C1056 1.383 . S
C1062 C1061 1.379 . S
H1063 C1057 0.959 . S
H1064 C1057 0.961 . S
H1065 C1057 0.960 . S
H1066 C1058 0.930 . S
H1067 C1059 0.929 . S
H1068 C1076 0.929 . S
H1069 C1078 0.930 . S
H1070 C1080 0.930 . S
H1071 C1083 0.929 . S
H1072 C1086 0.930 . S
H1073 C1088 0.960 . S
H1074 C1088 0.960 . S
H1075 C1088 0.960 . S
C1076 H1068 0.929 . S
C1076 C1077 1.377 . S
C1076 C1078 1.384 . S
C1077 C1076 1.377 . S
C1077 C1083 1.390 1_554 S
C1078 H1069 0.930 . S
C1078 C1076 1.384 . S
C1078 C1079 1.372 . S
C1079 C1078 1.372 . S
C1079 C1080 1.400 1_554 S
C1079 C1084 1.490 . S
C1080 H1070 0.930 . S
C1080 C1079 1.400 1_556 S
C1080 C1083 1.386 . S
H1081 C1097 0.930 1_556 S
H1082 C1098 0.931 1_556 S
C1083 H1071 0.929 . S
C1083 C1077 1.390 1_556 S
C1083 C1080 1.386 . S
C1084 C1079 1.490 . S
C1084 C1086 1.395 . S
C1084 C1087 1.403 1_554 S
H1085 C1091 0.930 . S
C1086 H1072 0.930 . S
C1086 C1084 1.395 . S
C1086 C1089 1.403 . S
C1087 C1084 1.403 1_556 S
C1087 C1088 1.524 . S
C1087 C1091 1.400 . S
C1088 H1073 0.960 . S
C1088 H1074 0.960 . S
C1088 H1075 0.960 . S
C1088 C1087 1.524 . S
C1089 C1086 1.403 . S
C1089 C1090 1.392 . S
C1089 C1093 1.495 . S
C1090 C1089 1.392 . S
C1090 C1091 1.385 1_554 S
C1090 C1092 1.478 . S
C1091 H1085 0.930 . S
C1091 C1087 1.400 . S
C1091 C1090 1.385 1_556 S
C1092 C1090 1.478 . S
C1092 C1094 1.381 . S
C1092 C1098 1.383 . S
C1093 C1089 1.495 . S
C1093 H1099 0.959 . S
C1093 H1100 0.961 . S
C1093 H1101 0.960 . S
C1094 C1092 1.381 . S
C1094 C1095 1.394 . S
C1094 H1102 0.930 . S
C1095 C1094 1.394 . S
C1095 C1096 1.383 . S
C1095 H1103 0.929 . S
C1096 C1095 1.383 . S
C1096 C1097 1.377 . S
C1097 H1081 0.930 1_554 S
C1097 C1096 1.377 . S
C1097 C1098 1.379 . S
C1098 H1082 0.931 1_554 S
C1098 C1092 1.383 . S
C1098 C1097 1.379 . S
H1099 C1093 0.959 . S
H1100 C1093 0.961 . S
H1101 C1093 0.960 . S
H1102 C1094 0.930 . S
H1103 C1095 0.929 . S
C249 C5 1.479 . S
C268 C151 1.495 . S
C285 C31 1.501 . S
C304 C94 1.515 . S
C340 C109 1.479 . S
C321 C53 1.535 . S
C357 C71 1.510 . S
C376 C128 1.468 . S
C412 C185 1.459 . S
C393 C75 1.512 . S
C448 C204 1.511 . S
C429 C9 1.534 . S
C484 C227 1.511 . S
C465 C27 1.498 . S
C520 C170 1.484 . S
C501 C49 1.475 . S
C537 C51 1.481 . S
C556 C113 1.476 . S
C573 C72 1.499 . S
C592 C132 1.506 . S
C609 C6 1.533 . S
C628 C147 1.515 . S
C664 C90 1.488 . S
C645 C29 1.511 . S
C681 C28 1.513 . S
C700 C223 1.467 . S
C736 C166 1.480 . S
C717 C50 1.539 . S
C772 C189 1.498 . S
C753 C73 1.504 . S
C789 C7 1.478 . S
C808 C208 1.493 . S
C844 C99 1.418 1_554 S
C825 C4 1.512 . S
C880 C118 1.450 . S
C861 C30 1.513 . S
C897 C52 1.515 . S
C916 C137 1.431 . S
C933 C70 1.513 . S
C952 C156 1.347 . S
C988 C175 1.344 . S
C969 C74 1.513 . S
C1005 C8 1.510 . S
C1024 C194 1.425 1_554 S
C1041 C26 1.512 . S
C1060 C213 1.460 . S
C1077 C48 1.510 . S
C1096 C232 1.355 . S
