# Generated by pormake.
# Topology wbl, (4,4)-cn, num edge types: 1
# Building blocks:
#     Node 0, Type 0, BuildingBlock: MIFKUJ_clean_linker_1, # of connection points: 4
#     Node 1, Type 0, BuildingBlock: MIFKUJ_clean_linker_1, # of connection points: 4
#     Node 2, Type 0, BuildingBlock: MIFKUJ_clean_linker_1, # of connection points: 4
#     Node 3, Type 0, BuildingBlock: MIFKUJ_clean_linker_1, # of connection points: 4
#     Node 4, Type 0, BuildingBlock: MIFKUJ_clean_linker_1, # of connection points: 4
#     Node 5, Type 0, BuildingBlock: MIFKUJ_clean_linker_1, # of connection points: 4
#     Node 6, Type 0, BuildingBlock: MIFKUJ_clean_linker_1, # of connection points: 4
#     Node 7, Type 0, BuildingBlock: MIFKUJ_clean_linker_1, # of connection points: 4
#     Node 8, Type 1, BuildingBlock: NAHDIM_clean_sbu_0, # of connection points: 4
#     Node 9, Type 1, BuildingBlock: NAHDIM_clean_sbu_0, # of connection points: 4
#     Node 10, Type 1, BuildingBlock: NAHDIM_clean_sbu_0, # of connection points: 4
#     Node 11, Type 1, BuildingBlock: NAHDIM_clean_sbu_0, # of connection points: 4
#     Node 12, Type 1, BuildingBlock: NAHDIM_clean_sbu_0, # of connection points: 4
#     Node 13, Type 1, BuildingBlock: NAHDIM_clean_sbu_0, # of connection points: 4
#     Node 14, Type 1, BuildingBlock: NAHDIM_clean_sbu_0, # of connection points: 4
#     Node 15, Type 1, BuildingBlock: NAHDIM_clean_sbu_0, # of connection points: 4
#     Edge 16, Type (0, 1), BuildingBlock: AJUNOK_clean_linker_0, # of connection points: 2
#     Edge 17, Type (0, 1), BuildingBlock: AJUNOK_clean_linker_0, # of connection points: 2
#     Edge 18, Type (0, 1), BuildingBlock: AJUNOK_clean_linker_0, # of connection points: 2
#     Edge 19, Type (0, 1), BuildingBlock: AJUNOK_clean_linker_0, # of connection points: 2
#     Edge 20, Type (0, 1), BuildingBlock: AJUNOK_clean_linker_0, # of connection points: 2
#     Edge 21, Type (0, 1), BuildingBlock: AJUNOK_clean_linker_0, # of connection points: 2
#     Edge 22, Type (0, 1), BuildingBlock: AJUNOK_clean_linker_0, # of connection points: 2
#     Edge 23, Type (0, 1), BuildingBlock: AJUNOK_clean_linker_0, # of connection points: 2
#     Edge 24, Type (0, 1), BuildingBlock: AJUNOK_clean_linker_0, # of connection points: 2
#     Edge 25, Type (0, 1), BuildingBlock: AJUNOK_clean_linker_0, # of connection points: 2
#     Edge 26, Type (0, 1), BuildingBlock: AJUNOK_clean_linker_0, # of connection points: 2
#     Edge 27, Type (0, 1), BuildingBlock: AJUNOK_clean_linker_0, # of connection points: 2
#     Edge 28, Type (0, 1), BuildingBlock: AJUNOK_clean_linker_0, # of connection points: 2
#     Edge 29, Type (0, 1), BuildingBlock: AJUNOK_clean_linker_0, # of connection points: 2
#     Edge 30, Type (0, 1), BuildingBlock: AJUNOK_clean_linker_0, # of connection points: 2
#     Edge 31, Type (0, 1), BuildingBlock: AJUNOK_clean_linker_0, # of connection points: 2
#     Edge 32, Type (0, 1), BuildingBlock: AJUNOK_clean_linker_0, # of connection points: 2
#     Edge 33, Type (0, 1), BuildingBlock: AJUNOK_clean_linker_0, # of connection points: 2
#     Edge 34, Type (0, 1), BuildingBlock: AJUNOK_clean_linker_0, # of connection points: 2
#     Edge 35, Type (0, 1), BuildingBlock: AJUNOK_clean_linker_0, # of connection points: 2
#     Edge 36, Type (0, 1), BuildingBlock: AJUNOK_clean_linker_0, # of connection points: 2
#     Edge 37, Type (0, 1), BuildingBlock: AJUNOK_clean_linker_0, # of connection points: 2
#     Edge 38, Type (0, 1), BuildingBlock: AJUNOK_clean_linker_0, # of connection points: 2
#     Edge 39, Type (0, 1), BuildingBlock: AJUNOK_clean_linker_0, # of connection points: 2
#     Edge 40, Type (0, 1), BuildingBlock: AJUNOK_clean_linker_0, # of connection points: 2
#     Edge 41, Type (0, 1), BuildingBlock: AJUNOK_clean_linker_0, # of connection points: 2
#     Edge 42, Type (0, 1), BuildingBlock: AJUNOK_clean_linker_0, # of connection points: 2
#     Edge 43, Type (0, 1), BuildingBlock: AJUNOK_clean_linker_0, # of connection points: 2
#     Edge 44, Type (0, 1), BuildingBlock: AJUNOK_clean_linker_0, # of connection points: 2
#     Edge 45, Type (0, 1), BuildingBlock: AJUNOK_clean_linker_0, # of connection points: 2
#     Edge 46, Type (0, 1), BuildingBlock: AJUNOK_clean_linker_0, # of connection points: 2
#     Edge 47, Type (0, 1), BuildingBlock: AJUNOK_clean_linker_0, # of connection points: 2
# Relax obj value: 0.142
# Max RMSD: 0.133
# Mean RMSD: 0.126
data_MOF--net-wbl--node1-NAHDIM_clean_sbu_0--node2-MIFKUJ_clean_linker_1--edge1-AJUNOK_clean_linker_0
_symmetry_space_group_name_H-M    P1
_symmetry_Int_Tables_number       1
_symmetry_cell_setting            triclinic
loop_
_symmetry_equiv_pos_as_xyz
'x, y, z'
_cell_length_a     36.942683
_cell_length_b     35.697388
_cell_length_c     57.133411
_cell_angle_alpha  90.069996
_cell_angle_beta   89.962825
_cell_angle_gamma 89.999803
loop_
_atom_site_label
_atom_site_type_symbol
_atom_site_fract_x
_atom_site_fract_y
_atom_site_fract_z
_atom_type_partial_charge
H0 H 0.00411 0.09779 0.37567 0.0
H1 H 0.96429 0.13674 0.39979 0.0
H2 H 0.87269 0.06935 0.37901 0.0
H3 H 0.91281 0.03004 0.35504 0.0
H4 H 0.01426 0.02022 0.38115 0.0
H5 H 0.96684 0.10687 0.32325 0.0
H6 H 0.91253 0.13536 0.30641 0.0
H7 H 0.88084 0.02774 0.27853 0.0
H8 H 0.93389 0.99895 0.29663 0.0
H9 H 0.02517 0.92793 0.29791 0.0
H10 H 0.0725 0.89194 0.27736 0.0
H11 H 0.1537 0.96694 0.30481 0.0
H12 H 0.10676 0.00243 0.32535 0.0
H13 H 0.00582 0.00485 0.29498 0.0
H14 H 0.04461 0.91701 0.35094 0.0
H15 H 0.08157 0.87917 0.37742 0.0
H16 H 0.12146 0.97992 0.41035 0.0
H17 H 0.08465 0.01782 0.38371 0.0
C18 C 0.96134 0.06124 0.36348 0.0
C19 C 0.9754 0.0916 0.37616 0.0
C20 C 0.95262 0.114 0.38974 0.0
C21 C 0.9154 0.10629 0.39098 0.0
C22 C 0.90129 0.07593 0.37822 0.0
C23 C 0.9241 0.05359 0.36452 0.0
C24 C 0.98613 0.03687 0.34993 0.0
C25 C 0.01288 0.01736 0.36226 0.0
C26 C 0.98297 0.03187 0.32542 0.0
C27 C 0.95387 0.05054 0.31183 0.0
C28 C 0.94818 0.08939 0.31352 0.0
C29 C 0.91732 0.10573 0.30372 0.0
C30 C 0.89195 0.08357 0.29172 0.0
C31 C 0.89932 0.04528 0.28836 0.0
C32 C 0.92987 0.02888 0.29844 0.0
C33 C 0.06255 0.96776 0.31314 0.0
C34 C 0.05317 0.93663 0.29936 0.0
C35 C 0.08009 0.91606 0.28778 0.0
C36 C 0.11653 0.92695 0.28946 0.0
C37 C 0.12571 0.95827 0.30309 0.0
C38 C 0.09899 0.97843 0.31486 0.0
C39 C 0.03472 0.98907 0.32623 0.0
C40 C 0.00743 0.00798 0.31384 0.0
C41 C 0.0368 0.99301 0.35082 0.0
C42 C 0.06196 0.9703 0.36525 0.0
C43 C 0.06188 0.93104 0.3635 0.0
C44 C 0.08287 0.90942 0.37868 0.0
C45 C 0.10394 0.92667 0.39607 0.0
C46 C 0.10491 0.96596 0.39735 0.0
C47 C 0.08403 0.98758 0.38211 0.0
H48 H 0.98168 0.4252 0.54417 0.0
H49 H 0.94113 0.37561 0.53026 0.0
H50 H 0.84954 0.4355 0.55868 0.0
H51 H 0.89007 0.48509 0.57242 0.0
H52 H 0.9903 0.5006 0.53831 0.0
H53 H 0.96201 0.41722 0.60154 0.0
H54 H 0.9291 0.38174 0.63141 0.0
H55 H 0.87814 0.48379 0.65522 0.0
H56 H 0.91121 0.51918 0.62542 0.0
H57 H 0.98773 0.60229 0.61562 0.0
H58 H 0.02537 0.64323 0.6398 0.0
H59 H 0.12059 0.58223 0.61798 0.0
H60 H 0.08258 0.54042 0.59452 0.0
H61 H 0.98325 0.52571 0.62369 0.0
H62 H 0.00291 0.60518 0.55368 0.0
H63 H 0.04844 0.64579 0.5357 0.0
H64 H 0.12196 0.55213 0.5307 0.0
H65 H 0.07581 0.51125 0.54841 0.0
C66 C 0.93896 0.45858 0.55958 0.0
C67 C 0.9528 0.42806 0.54693 0.0
C68 C 0.92961 0.39981 0.53896 0.0
C69 C 0.89221 0.4018 0.5434 0.0
C70 C 0.87827 0.43321 0.55515 0.0
C71 C 0.9014 0.46148 0.563 0.0
C72 C 0.96378 0.48592 0.57078 0.0
C73 C 0.98889 0.50577 0.557 0.0
C74 C 0.96203 0.49302 0.59514 0.0
C75 C 0.93894 0.47082 0.61121 0.0
C76 C 0.9431 0.4318 0.61282 0.0
C77 C 0.92424 0.41155 0.62985 0.0
C78 C 0.90101 0.43005 0.64555 0.0
C79 C 0.89602 0.46891 0.64339 0.0
C80 C 0.91484 0.48911 0.62639 0.0
C81 C 0.03238 0.56856 0.6031 0.0
C82 C 0.01679 0.59819 0.61572 0.0
C83 C 0.03837 0.62179 0.62933 0.0
C84 C 0.07598 0.61617 0.63058 0.0
C85 C 0.09169 0.58726 0.61727 0.0
C86 C 0.07005 0.56358 0.60371 0.0
C87 C 0.00885 0.54074 0.59127 0.0
C88 C 0.98426 0.52062 0.60497 0.0
C89 C 0.01134 0.53317 0.56706 0.0
C90 C 0.03602 0.55529 0.55218 0.0
C91 C 0.02837 0.59315 0.54799 0.0
C92 C 0.05435 0.61625 0.53774 0.0
C93 C 0.08853 0.60193 0.53172 0.0
C94 C 0.09568 0.56365 0.53508 0.0
C95 C 0.06937 0.54034 0.54502 0.0
H96 H 0.49337 0.58268 0.86987 0.0
H97 H 0.45676 0.62198 0.89577 0.0
H98 H 0.36064 0.56239 0.8742 0.0
H99 H 0.39749 0.52345 0.84783 0.0
H100 H 0.49449 0.50195 0.87494 0.0
H101 H 0.45614 0.59799 0.81847 0.0
H102 H 0.40344 0.6288 0.80098 0.0
H103 H 0.37241 0.52426 0.7686 0.0
H104 H 0.42364 0.49311 0.78723 0.0
H105 H 0.53106 0.39939 0.82026 0.0
H106 H 0.58309 0.36621 0.80375 0.0
H107 H 0.62009 0.46925 0.77217 0.0
H108 H 0.56946 0.50271 0.79004 0.0
H109 H 0.49531 0.49739 0.78817 0.0
H110 H 0.49885 0.40831 0.86097 0.0
H111 H 0.53044 0.37082 0.89037 0.0
H112 H 0.61633 0.45291 0.89246 0.0
H113 H 0.58518 0.48947 0.86214 0.0
C114 C 0.4481 0.55017 0.85705 0.0
C115 C 0.46435 0.57835 0.87054 0.0
C116 C 0.44349 0.6006 0.88539 0.0
C117 C 0.40602 0.59467 0.8873 0.0
C118 C 0.38949 0.56744 0.87306 0.0
C119 C 0.41044 0.54522 0.85806 0.0
C120 C 0.47131 0.52441 0.84341 0.0
C121 C 0.4947 0.50108 0.85594 0.0
C122 C 0.47059 0.52233 0.81868 0.0
C123 C 0.44319 0.54296 0.80478 0.0
C124 C 0.43798 0.58171 0.8076 0.0
C125 C 0.4081 0.59938 0.79743 0.0
C126 C 0.38334 0.57863 0.78399 0.0
C127 C 0.39047 0.54064 0.77949 0.0
C128 C 0.41998 0.52292 0.78991 0.0
C129 C 0.54698 0.45376 0.80699 0.0
C130 C 0.55049 0.41486 0.8099 0.0
C131 C 0.57986 0.39576 0.80006 0.0
C132 C 0.60576 0.41515 0.78671 0.0
C133 C 0.6008 0.45364 0.7826 0.0
C134 C 0.57177 0.47275 0.79269 0.0
C135 C 0.51907 0.47549 0.81979 0.0
C136 C 0.49501 0.49832 0.80714 0.0
C137 C 0.51795 0.47621 0.84449 0.0
C138 C 0.54001 0.45127 0.85926 0.0
C139 C 0.52493 0.41769 0.86737 0.0
C140 C 0.54274 0.39663 0.88437 0.0
C141 C 0.57542 0.40941 0.89409 0.0
C142 C 0.59118 0.4424 0.88527 0.0
C143 C 0.57352 0.46325 0.86798 0.0
H144 H 0.4865 0.92276 0.04102 0.0
H145 H 0.44278 0.8755 0.02774 0.0
H146 H 0.35572 0.94021 0.05794 0.0
H147 H 0.39942 0.98711 0.07129 0.0
H148 H 0.49665 0.00369 0.03813 0.0
H149 H 0.47435 0.9071 0.09446 0.0
H150 H 0.44017 0.86443 0.11977 0.0
H151 H 0.38834 0.9592 0.15275 0.0
H152 H 0.42205 0.00175 0.12713 0.0
H153 H 0.49612 0.08469 0.12469 0.0
H154 H 0.53325 0.12409 0.15005 0.0
H155 H 0.6299 0.08021 0.11739 0.0
H156 H 0.59261 0.03918 0.09294 0.0
H157 H 0.49543 0.00981 0.12498 0.0
H158 H 0.51266 0.10515 0.06371 0.0
H159 H 0.5555 0.14831 0.04521 0.0
H160 H 0.62314 0.05492 0.02536 0.0
H161 H 0.57973 0.01157 0.04368 0.0
C162 C 0.44617 0.95809 0.05735 0.0
C163 C 0.45791 0.92723 0.04418 0.0
C164 C 0.43296 0.90027 0.03669 0.0
C165 C 0.39604 0.90396 0.04227 0.0
C166 C 0.38412 0.93638 0.05385 0.0
C167 C 0.40899 0.96324 0.06132 0.0
C168 C 0.47259 0.98207 0.06978 0.0
C169 C 0.49667 0.00477 0.0571 0.0
C170 C 0.47274 0.98344 0.09451 0.0
C171 C 0.45055 0.95757 0.10885 0.0
C172 C 0.45512 0.91864 0.10684 0.0
C173 C 0.43575 0.89433 0.12132 0.0
C174 C 0.41145 0.90857 0.13802 0.0
C175 C 0.40641 0.9475 0.13971 0.0
C176 C 0.42588 0.9718 0.12528 0.0
C177 C 0.54153 0.05904 0.10687 0.0
C178 C 0.52531 0.08365 0.12291 0.0
C179 C 0.54655 0.10637 0.13726 0.0
C180 C 0.58451 0.10499 0.13587 0.0
C181 C 0.60074 0.08138 0.11916 0.0
C182 C 0.57943 0.05832 0.10494 0.0
C183 C 0.51861 0.03248 0.09345 0.0
C184 C 0.49537 0.00889 0.10599 0.0
C185 C 0.51962 0.03008 0.06873 0.0
C186 C 0.54307 0.05529 0.05495 0.0
C187 C 0.5363 0.09393 0.05493 0.0
C188 C 0.56071 0.11847 0.04437 0.0
C189 C 0.59241 0.10478 0.0338 0.0
C190 C 0.59879 0.066 0.03335 0.0
C191 C 0.574 0.04134 0.04364 0.0
H192 H 0.99621 0.58554 0.88118 0.0
H193 H 0.03258 0.62564 0.85557 0.0
H194 H 0.12944 0.56843 0.87809 0.0
H195 H 0.09282 0.52805 0.90363 0.0
H196 H 0.99602 0.50525 0.87645 0.0
H197 H 0.03309 0.60107 0.93278 0.0
H198 H 0.08481 0.63365 0.94997 0.0
H199 H 0.11923 0.53045 0.98254 0.0
H200 H 0.06916 0.49746 0.96386 0.0
H201 H 0.98771 0.42709 0.96737 0.0
H202 H 0.94407 0.3857 0.98718 0.0
H203 H 0.85825 0.43021 0.94429 0.0
H204 H 0.90111 0.4724 0.92528 0.0
H205 H 0.99816 0.49827 0.96315 0.0
H206 H 0.97612 0.40131 0.90898 0.0
H207 H 0.94563 0.35668 0.88301 0.0
H208 H 0.89763 0.44872 0.84511 0.0
H209 H 0.92713 0.49316 0.87151 0.0
C210 C 0.04187 0.55395 0.89428 0.0
C211 C 0.02532 0.58191 0.88077 0.0
C212 C 0.04608 0.60485 0.86626 0.0
C213 C 0.08369 0.59987 0.86478 0.0
C214 C 0.10041 0.5725 0.87877 0.0
C215 C 0.07961 0.54964 0.89342 0.0
C216 C 0.01909 0.52783 0.90795 0.0
C217 C 0.99595 0.50413 0.89544 0.0
C218 C 0.02085 0.52499 0.93264 0.0
C219 C 0.04777 0.54656 0.94647 0.0
C220 C 0.05173 0.58546 0.94366 0.0
C221 C 0.08102 0.60423 0.95382 0.0
C222 C 0.10625 0.58459 0.96755 0.0
C223 C 0.10055 0.54624 0.97177 0.0
C224 C 0.07172 0.5274 0.96128 0.0
C225 C 0.94786 0.45235 0.94447 0.0
C226 C 0.95944 0.42817 0.96239 0.0
C227 C 0.93466 0.40448 0.9736 0.0
C228 C 0.89815 0.40444 0.96683 0.0
C229 C 0.88647 0.42928 0.94941 0.0
C230 C 0.91097 0.45327 0.93853 0.0
C231 C 0.97398 0.4764 0.93161 0.0
C232 C 0.99784 0.49958 0.94419 0.0
C233 C 0.97419 0.47774 0.90684 0.0
C234 C 0.9538 0.45059 0.89223 0.0
C235 C 0.95855 0.41185 0.89531 0.0
C236 C 0.94149 0.3864 0.88033 0.0
C237 C 0.91965 0.39931 0.86191 0.0
C238 C 0.91424 0.43802 0.85922 0.0
C239 C 0.93123 0.46342 0.87419 0.0
H240 H 0.49023 0.57946 0.21339 0.0
H241 H 0.44594 0.62481 0.22819 0.0
H242 H 0.35972 0.56127 0.1961 0.0
H243 H 0.40408 0.51622 0.18123 0.0
H244 H 0.50225 0.50068 0.21525 0.0
H245 H 0.47507 0.59587 0.15869 0.0
H246 H 0.43992 0.63633 0.13258 0.0
H247 H 0.39434 0.5385 0.09924 0.0
H248 H 0.42883 0.49818 0.12572 0.0
H249 H 0.50445 0.41455 0.13274 0.0
H250 H 0.54227 0.37556 0.10738 0.0
H251 H 0.63755 0.43343 0.13216 0.0
H252 H 0.59933 0.47342 0.15683 0.0
H253 H 0.50131 0.49357 0.12843 0.0
H254 H 0.51388 0.40312 0.19644 0.0
H255 H 0.5567 0.35889 0.214 0.0
H256 H 0.63627 0.44697 0.21965 0.0
H257 H 0.59285 0.4915 0.20249 0.0
C258 C 0.45047 0.54472 0.19605 0.0
C259 C 0.46171 0.57477 0.21011 0.0
C260 C 0.43636 0.6006 0.21858 0.0
C261 C 0.39936 0.59653 0.21328 0.0
C262 C 0.38805 0.5652 0.20032 0.0
C263 C 0.41334 0.53945 0.19188 0.0
C264 C 0.47741 0.52128 0.18355 0.0
C265 C 0.50232 0.49955 0.19628 0.0
C266 C 0.47755 0.51951 0.1588 0.0
C267 C 0.45434 0.54403 0.14424 0.0
C268 C 0.45692 0.58316 0.1461 0.0
C269 C 0.43703 0.60622 0.13112 0.0
C270 C 0.41423 0.5905 0.11407 0.0
C271 C 0.41116 0.55134 0.11254 0.0
C272 C 0.43109 0.52831 0.12748 0.0
C273 C 0.54911 0.44664 0.14679 0.0
C274 C 0.53352 0.41859 0.13286 0.0
C275 C 0.55515 0.39626 0.11848 0.0
C276 C 0.59281 0.40168 0.11766 0.0
C277 C 0.60854 0.42901 0.13219 0.0
C278 C 0.58681 0.4515 0.14653 0.0
C279 C 0.52545 0.47263 0.16003 0.0
C280 C 0.50125 0.49493 0.14741 0.0
C281 C 0.52632 0.47523 0.18469 0.0
C282 C 0.55024 0.45047 0.19839 0.0
C283 C 0.54019 0.4131 0.20206 0.0
C284 C 0.5646 0.38795 0.21205 0.0
C285 C 0.5996 0.39972 0.21826 0.0
C286 C 0.60935 0.4374 0.21509 0.0
C287 C 0.58462 0.46276 0.20545 0.0
H288 H 0.49796 0.91059 0.38146 0.0
H289 H 0.45968 0.87402 0.35504 0.0
H290 H 0.36541 0.93312 0.38028 0.0
H291 H 0.40387 0.96948 0.40699 0.0
H292 H 0.50445 0.98711 0.37875 0.0
H293 H 0.46845 0.89491 0.43638 0.0
H294 H 0.42254 0.8587 0.45753 0.0
H295 H 0.37679 0.96151 0.48437 0.0
H296 H 0.42295 0.99745 0.46349 0.0
H297 H 0.51632 0.07643 0.46291 0.0
H298 H 0.564 0.11126 0.4839 0.0
H299 H 0.64439 0.03583 0.45583 0.0
H300 H 0.59714 0.00158 0.43483 0.0
H301 H 0.49798 0.99722 0.46526 0.0
H302 H 0.5354 0.08921 0.41009 0.0
H303 H 0.57276 0.12741 0.38391 0.0
H304 H 0.61203 0.02705 0.35018 0.0
H305 H 0.57491 0.98888 0.37645 0.0
C306 C 0.45376 0.94279 0.39611 0.0
C307 C 0.469 0.9154 0.38149 0.0
C308 C 0.44718 0.8947 0.36634 0.0
C309 C 0.40974 0.90132 0.36533 0.0
C310 C 0.39423 0.92755 0.38072 0.0
C311 C 0.41612 0.94826 0.39597 0.0
C312 C 0.47781 0.96759 0.40991 0.0
C313 C 0.50342 0.98891 0.3977 0.0
C314 C 0.47529 0.97106 0.43451 0.0
C315 C 0.4489 0.94888 0.44825 0.0
C316 C 0.44862 0.90959 0.44693 0.0
C317 C 0.42247 0.88895 0.45902 0.0
C318 C 0.39634 0.90725 0.47278 0.0
C319 C 0.39711 0.94656 0.47437 0.0
C320 C 0.4233 0.96716 0.46234 0.0
C321 C 0.55333 0.03656 0.44732 0.0
C322 C 0.54423 0.06742 0.46141 0.0
C323 C 0.57133 0.08729 0.47326 0.0
C324 C 0.60762 0.0759 0.47154 0.0
C325 C 0.6165 0.04483 0.45759 0.0
C326 C 0.58962 0.0254 0.44556 0.0
C327 C 0.52539 0.01584 0.43406 0.0
C328 C 0.49902 0.99541 0.44632 0.0
C329 C 0.52709 0.01315 0.40941 0.0
C330 C 0.55236 0.03616 0.39524 0.0
C331 C 0.55259 0.07537 0.39738 0.0
C332 C 0.57381 0.09717 0.38239 0.0
C333 C 0.59477 0.08011 0.36486 0.0
C334 C 0.59553 0.04086 0.36328 0.0
C335 C 0.57445 0.01908 0.3783 0.0
H336 H 0.98591 0.07289 0.71468 0.0
H337 H 0.94268 0.11952 0.72903 0.0
H338 H 0.85514 0.05783 0.69709 0.0
H339 H 0.89842 0.01096 0.68295 0.0
H340 H -0.00031 0.99918 0.71754 0.0
H341 H 0.96392 0.08606 0.65856 0.0
H342 H 0.92905 0.1218 0.62976 0.0
H343 H 0.89161 0.01858 0.59871 0.0
H344 H 0.92574 0.98283 0.62784 0.0
H345 H 0.03418 0.89192 0.67093 0.0
H346 H 0.07234 0.84926 0.64812 0.0
H347 H 0.10351 0.94113 0.60326 0.0
H348 H 0.06706 0.98392 0.62685 0.0
H349 H 0.99606 0.98231 0.6313 0.0
H350 H 0.01652 0.91913 0.72131 0.0
H351 H 0.06402 0.8771 0.73566 0.0
H352 H 0.14446 0.94228 0.69898 0.0
H353 H 0.09687 0.98399 0.6845 0.0
C354 C 0.94546 0.0387 0.69751 0.0
C355 C 0.95732 0.06881 0.71133 0.0
C356 C 0.9326 0.09541 0.71953 0.0
C357 C 0.8956 0.0922 0.71414 0.0
C358 C 0.88354 0.06099 0.70137 0.0
C359 C 0.90822 0.03427 0.69332 0.0
C360 C 0.97215 0.01424 0.68553 0.0
C361 C 0.99876 0.99551 0.69871 0.0
C362 C 0.97174 0.00997 0.66087 0.0
C363 C 0.94725 0.03174 0.64545 0.0
C364 C 0.94735 0.0711 0.64602 0.0
C365 C 0.9275 0.0915 0.62957 0.0
C366 C 0.90771 0.07282 0.61214 0.0
C367 C 0.90674 0.03352 0.61202 0.0
C368 C 0.92623 0.01316 0.62859 0.0
C369 C 0.0478 0.94118 0.65063 0.0
C370 C 0.04992 0.90303 0.65653 0.0
C371 C 0.07137 0.87858 0.64332 0.0
C372 C 0.09048 0.89176 0.6237 0.0
C373 C 0.08926 0.93017 0.61836 0.0
C374 C 0.06816 0.9546 0.63168 0.0
C375 C 0.02279 0.96681 0.66323 0.0
C376 C 0.99666 0.98588 0.65016 0.0
C377 C 0.02443 0.97236 0.68771 0.0
C378 C 0.05322 0.95422 0.70161 0.0
C379 C 0.04451 0.92516 0.7171 0.0
C380 C 0.07163 0.90116 0.72522 0.0
C381 C 0.10769 0.90611 0.71797 0.0
C382 C 0.11674 0.93754 0.70443 0.0
C383 C 0.08967 0.96145 0.69631 0.0
C384 C 0.24329 0.65188 0.99525 0.0
O385 O 0.27145 0.62959 0.99711 0.0
O386 O 0.31659 0.67412 0.03316 0.0
Zn387 Zn 0.30033 0.6997 0.00368 0.0
O388 O 0.33028 0.67773 0.97769 0.0
C389 C 0.30901 0.77086 0.02616 0.0
O390 O 0.29516 0.75211 0.04379 0.0
O391 O 0.24801 0.68692 0.99785 0.0
C392 C 0.32035 0.67575 0.95644 0.0
O393 O 0.28905 0.69023 0.95034 0.0
C394 C 0.34937 0.67804 0.03936 0.0
O395 O 0.37067 0.69934 0.02662 0.0
O396 O 0.31139 0.75476 0.00637 0.0
C397 C 0.24192 0.84988 0.25216 0.0
O398 O 0.26914 0.8705 0.2449 0.0
O399 O 0.3155 0.82311 0.21873 0.0
Zn400 Zn 0.29938 0.80063 0.24931 0.0
O401 O 0.32981 0.8245 0.27429 0.0
C402 C 0.30884 0.72699 0.22988 0.0
O403 O 0.29497 0.7434 0.21137 0.0
O404 O 0.24733 0.81507 0.25543 0.0
C405 C 0.32043 0.826 0.29567 0.0
O406 O 0.28967 0.81061 0.30206 0.0
C407 C 0.34831 0.8194 0.21251 0.0
O408 O 0.37015 0.79968 0.22582 0.0
O409 O 0.31051 0.74532 0.24893 0.0
C410 C 0.26913 0.83582 0.51198 0.0
O411 O 0.25109 0.85442 0.52804 0.0
O412 O 0.18605 0.81742 0.53998 0.0
Zn413 Zn 0.20026 0.80101 0.50742 0.0
O414 O 0.17335 0.83386 0.48488 0.0
C415 C 0.19052 0.72203 0.51684 0.0
O416 O 0.21307 0.72897 0.53409 0.0
O417 O 0.25337 0.8092 0.50124 0.0
C418 C 0.17968 0.83207 0.46305 0.0
O419 O 0.20369 0.80781 0.4554 0.0
C420 C 0.15554 0.80722 0.54808 0.0
O421 O 0.13505 0.78522 0.53526 0.0
O422 O 0.1835 0.74802 0.50239 0.0
C423 C 0.24787 0.64708 0.75466 0.0
O424 O 0.21879 0.62647 0.75155 0.0
O425 O 0.17451 0.67732 0.71769 0.0
Zn426 Zn 0.19322 0.69789 0.74835 0.0
O427 O 0.16553 0.67282 0.77427 0.0
C428 C 0.19501 0.77349 0.73201 0.0
O429 O 0.2142 0.75783 0.71529 0.0
O430 O 0.24508 0.68245 0.7528 0.0
C431 C 0.158 0.68763 0.7939 0.0
O432 O 0.16624 0.72291 0.79769 0.0
C433 C 0.1488 0.69302 0.70661 0.0
O434 O 0.13395 0.72346 0.71527 0.0
O435 O 0.18524 0.75355 0.74929 0.0
C436 C 0.73615 0.14864 0.50674 0.0
O437 O 0.76311 0.12666 0.51272 0.0
O438 O 0.81652 0.17073 0.53451 0.0
Zn439 Zn 0.79607 0.19506 0.50543 0.0
O440 O 0.81999 0.17161 0.4773 0.0
C441 C 0.80836 0.26676 0.52642 0.0
O442 O 0.79631 0.24884 0.54493 0.0
O443 O 0.74284 0.18306 0.50292 0.0
C444 C 0.83203 0.18975 0.45983 0.0
O445 O 0.82846 0.22635 0.45941 0.0
C446 C 0.8472 0.15471 0.53365 0.0
O447 O 0.86529 0.15463 0.51385 0.0
O448 O 0.8083 0.24999 0.50679 0.0
C449 C 0.74262 0.34578 0.76054 0.0
O450 O 0.77162 0.36703 0.76144 0.0
O451 O 0.8202 0.32365 0.72438 0.0
Zn452 Zn 0.79948 0.29764 0.75292 0.0
O453 O 0.82373 0.31724 0.78196 0.0
C454 C 0.81064 0.22631 0.73069 0.0
O455 O 0.80031 0.24514 0.71211 0.0
O456 O 0.7466 0.3111 0.75607 0.0
C457 C 0.85511 0.30781 0.78882 0.0
O458 O 0.87333 0.28277 0.77676 0.0
C459 C 0.84051 0.35227 0.72611 0.0
O460 O 0.84822 0.36538 0.74701 0.0
O461 O 0.80991 0.24249 0.75049 0.0
C462 C 0.77602 0.32702 0.007 0.0
O463 O 0.76345 0.34073 0.02675 0.0
O464 O 0.68639 0.33062 0.02999 0.0
Zn465 Zn 0.70142 0.30407 0.00013 0.0
O466 O 0.67757 0.33094 0.97349 0.0
C467 C 0.69327 0.22316 0.0107 0.0
O468 O 0.72331 0.22601 0.02287 0.0
O469 O 0.755 0.30783 0.9941 0.0
C470 C 0.64327 0.33247 0.97252 0.0
O471 O 0.62428 0.31638 0.98915 0.0
C472 C 0.66545 0.31569 0.045 0.0
O473 O 0.65443 0.28113 0.04166 0.0
O474 O 0.68166 0.2516 0.99972 0.0
C475 C 0.75481 0.14783 0.26157 0.0
O476 O 0.72695 0.12579 0.25771 0.0
O477 O 0.68441 0.17484 0.22099 0.0
Zn478 Zn 0.69863 0.19611 0.25231 0.0
O479 O 0.66804 0.16943 0.27608 0.0
C480 C 0.69372 0.27421 0.23782 0.0
O481 O 0.71503 0.26349 0.22065 0.0
O482 O 0.75064 0.18302 0.25933 0.0
C483 C 0.67435 0.17127 0.2979 0.0
O484 O 0.70085 0.19273 0.30537 0.0
C485 C 0.65609 0.18639 0.21065 0.0
O486 O 0.63751 0.21401 0.21998 0.0
O487 O 0.68597 0.25089 0.25383 0.0
C488 C 0.15188 0.86808 0.28247 0.0
C489 C 0.14543 0.90596 0.27721 0.0
C490 C 0.18235 0.84941 0.27345 0.0
C491 C 0.20727 0.86805 0.25884 0.0
H492 H 0.13418 0.85333 0.29445 0.0
H493 H 0.18716 0.82072 0.27875 0.0
S494 S 0.19904 0.96584 0.23722 0.0
N495 N 0.1639 0.96029 0.25474 0.0
N496 N 0.22086 0.92548 0.23755 0.0
C497 C 0.19968 0.90532 0.25238 0.0
C498 C 0.16885 0.92421 0.26164 0.0
C499 C 0.14908 0.63104 0.53817 0.0
C500 C 0.11758 0.62805 0.52453 0.0
C501 C 0.1738 0.66029 0.5346 0.0
C502 C 0.16798 0.68754 0.51717 0.0
H503 H 0.15359 0.61193 0.5526 0.0
H504 H 0.19671 0.66249 0.54634 0.0
S505 S 0.09196 0.6884 0.47453 0.0
N506 N 0.08362 0.65195 0.49145 0.0
N507 N 0.13006 0.70676 0.48437 0.0
C508 C 0.13781 0.68307 0.50228 0.0
C509 C 0.11257 0.65343 0.5061 0.0
C510 C 0.34833 0.6308 0.76503 0.0
C511 C 0.34877 0.5957 0.77621 0.0
C512 C 0.3156 0.64738 0.75803 0.0
C513 C 0.28227 0.62931 0.76189 0.0
H514 H 0.37345 0.64543 0.76154 0.0
H515 H 0.31644 0.67436 0.74939 0.0
S516 S 0.26862 0.53887 0.79273 0.0
N517 N 0.3129 0.54489 0.79246 0.0
N518 N 0.25167 0.57546 0.77894 0.0
C519 C 0.28239 0.59447 0.77338 0.0
C520 C 0.31557 0.57781 0.78064 0.0
C521 C 0.36862 0.85594 0.01565 0.0
C522 C 0.37073 0.87252 0.0379 0.0
C523 C 0.34714 0.82416 0.01177 0.0
C524 C 0.32726 0.80745 0.03008 0.0
H525 H 0.38416 0.8673 0.00121 0.0
H526 H 0.34712 0.81194 0.9944 0.0
S527 S 0.32348 0.8409 0.09169 0.0
N528 N 0.35096 0.87054 0.07846 0.0
N529 N 0.3104 0.81105 0.07128 0.0
C530 C 0.32841 0.82455 0.05232 0.0
C531 C 0.35021 0.85697 0.05621 0.0
C532 C 0.17336 0.58382 0.97219 0.0
C533 C 0.14033 0.60271 0.97549 0.0
C534 C 0.20623 0.6 0.9788 0.0
C535 C 0.20763 0.636 0.98879 0.0
H536 H 0.17396 0.55641 0.96403 0.0
H537 H 0.23082 0.58424 0.97568 0.0
S538 S 0.1288 0.69682 0.00213 0.0
N539 N 0.11087 0.6589 0.99027 0.0
N540 N 0.17301 0.68986 0.00224 0.0
C541 C 0.17487 0.65534 0.99226 0.0
C542 C 0.14118 0.63861 0.9857 0.0
C543 C 0.351 0.64149 0.20131 0.0
C544 C 0.37324 0.62681 0.21904 0.0
C545 C 0.32892 0.67273 0.20537 0.0
C546 C 0.32812 0.69063 0.22734 0.0
H547 H 0.35177 0.62971 0.18383 0.0
H548 H 0.31337 0.68367 0.19084 0.0
S549 S 0.3782 0.66013 0.28043 0.0
N550 N 0.39081 0.63021 0.25992 0.0
N551 N 0.34945 0.68907 0.2677 0.0
C552 C 0.34888 0.67497 0.2456 0.0
C553 C 0.37147 0.64314 0.24139 0.0
C554 C 0.34704 0.8592 0.47133 0.0
C555 C 0.36691 0.8857 0.48427 0.0
C556 C 0.31651 0.8416 0.48089 0.0
C557 C 0.3046 0.85 0.50371 0.0
H558 H 0.35417 0.85321 0.45331 0.0
H559 H 0.3012 0.82264 0.46987 0.0
S560 S 0.35052 0.91307 0.54602 0.0
N561 N 0.37511 0.91617 0.52196 0.0
N562 N 0.31741 0.8836 0.53985 0.0
C563 C 0.32544 0.87487 0.51728 0.0
C564 C 0.35663 0.89262 0.50757 0.0
C565 C 0.13956 0.86072 0.74424 0.0
C566 C 0.13446 0.87587 0.72181 0.0
C567 C 0.16103 0.82878 0.74756 0.0
C568 C 0.17801 0.8107 0.72856 0.0
H569 H 0.12603 0.87304 0.75921 0.0
H570 H 0.16327 0.81741 0.76508 0.0
S571 S 0.17258 0.83944 0.66616 0.0
N572 N 0.14796 0.87071 0.68029 0.0
N573 N 0.18848 0.81096 0.68644 0.0
C574 C 0.17405 0.82644 0.7061 0.0
C575 C 0.15218 0.85892 0.70275 0.0
C576 C 0.67296 0.41456 0.78319 0.0
C577 C 0.63974 0.39656 0.77903 0.0
C578 C 0.70574 0.39788 0.77691 0.0
C579 C 0.70689 0.36228 0.76633 0.0
H580 H 0.67374 0.44161 0.79179 0.0
H581 H 0.73046 0.41299 0.78078 0.0
S582 S 0.62738 0.30392 0.75062 0.0
N583 N 0.60974 0.34172 0.76283 0.0
N584 N 0.67171 0.30986 0.75134 0.0
C585 C 0.67388 0.3439 0.76191 0.0
C586 C 0.64027 0.36112 0.76821 0.0
C587 C 0.65474 0.13195 0.03423 0.0
C588 C 0.61965 0.13147 0.02475 0.0
C589 C 0.67919 0.16069 0.02864 0.0
C590 C 0.66944 0.18984 0.01328 0.0
H591 H 0.66272 0.11104 0.04695 0.0
H592 H 0.70533 0.16081 0.03721 0.0
S593 S 0.58205 0.19785 0.98134 0.0
N594 N 0.5774 0.16003 0.99766 0.0
N595 N 0.62314 0.2138 0.98677 0.0
C596 C 0.63508 0.1881 0.00252 0.0
C597 C 0.61022 0.15902 0.00839 0.0
C598 C 0.85565 0.13421 0.27204 0.0
C599 C 0.85686 0.09977 0.28403 0.0
C600 C 0.82254 0.14993 0.26497 0.0
C601 C 0.78957 0.1316 0.2695 0.0
H602 H 0.88048 0.14892 0.2679 0.0
H603 H 0.82283 0.17628 0.25559 0.0
S604 S 0.77774 0.04306 0.30267 0.0
N605 N 0.82194 0.04963 0.30189 0.0
N606 N 0.76003 0.07854 0.28816 0.0
C607 C 0.79041 0.09757 0.28188 0.0
C608 C 0.82396 0.08181 0.28924 0.0
C609 C 0.84638 0.35406 0.55529 0.0
C610 C 0.86825 0.36972 0.53769 0.0
C611 C 0.82601 0.32163 0.55115 0.0
C612 C 0.82654 0.30363 0.5292 0.0
H613 H 0.84603 0.36617 0.57269 0.0
H614 H 0.81052 0.31007 0.56553 0.0
S615 S 0.87691 0.33585 0.47659 0.0
N616 N 0.8874 0.36665 0.49708 0.0
N617 N 0.84913 0.30568 0.48911 0.0
C618 C 0.84713 0.32005 0.51112 0.0
C619 C 0.86806 0.35301 0.51543 0.0
C620 C 0.64414 0.13389 0.47852 0.0
C621 C 0.63679 0.09624 0.48388 0.0
C622 C 0.67543 0.15157 0.48708 0.0
C623 C 0.70029 0.1321 0.50127 0.0
H624 H 0.62661 0.14911 0.46667 0.0
H625 H 0.68101 0.18001 0.48157 0.0
S626 S 0.6897 0.0348 0.52327 0.0
N627 N 0.6542 0.04143 0.50624 0.0
N628 N 0.71273 0.07442 0.52257 0.0
C629 C 0.69168 0.09522 0.50803 0.0
C630 C 0.66 0.07732 0.49925 0.0
C631 C 0.84976 0.13956 0.70176 0.0
C632 C 0.87039 0.12327 0.71974 0.0
C633 C 0.82918 0.17191 0.70577 0.0
C634 C 0.82828 0.18915 0.72795 0.0
H635 H 0.85077 0.12819 0.68417 0.0
H636 H 0.81485 0.18413 0.69111 0.0
S637 S 0.87456 0.15464 0.78153 0.0
N638 N 0.88646 0.12461 0.76091 0.0
N639 N 0.84778 0.18537 0.76865 0.0
C640 C 0.84734 0.17186 0.7464 0.0
C641 C 0.86847 0.13901 0.74223 0.0
C642 C 0.86283 0.38325 0.00167 0.0
C643 C 0.87158 0.37912 0.9779 0.0
C644 C 0.83312 0.36432 0.01138 0.0
C645 C 0.81128 0.34045 0.99766 0.0
H646 H 0.87779 0.40282 0.01248 0.0
H647 H 0.82628 0.36986 0.02949 0.0
S648 S 0.82697 0.31626 0.93514 0.0
N649 N 0.85906 0.34681 0.94145 0.0
N650 N 0.80358 0.31066 0.95953 0.0
C651 C 0.82169 0.33402 0.97424 0.0
C652 C 0.8517 0.35358 0.96438 0.0
C653 C 0.65798 0.36554 0.21289 0.0
C654 C 0.62648 0.37172 0.22614 0.0
C655 C 0.68078 0.33505 0.21763 0.0
C656 C 0.67304 0.30982 0.23592 0.0
H657 H 0.664 0.38322 0.19798 0.0
H658 H 0.70381 0.33042 0.20625 0.0
S659 S 0.59601 0.31724 0.27762 0.0
N660 N 0.59031 0.35272 0.25949 0.0
N661 N 0.63317 0.29573 0.26882 0.0
C662 C 0.64279 0.31739 0.25028 0.0
C663 C 0.61946 0.3482 0.24524 0.0
C664 C 0.14663 0.87457 0.40594 0.0
C665 C 0.12363 0.90355 0.41343 0.0
C666 C 0.1648 0.85183 0.42211 0.0
C667 C 0.16035 0.85694 0.4464 0.0
H668 H 0.15075 0.86957 0.38742 0.0
H669 H 0.18227 0.82991 0.41544 0.0
S670 S 0.10193 0.9285 0.47489 0.0
N671 N 0.09661 0.93579 0.44658 0.0
N672 N 0.13068 0.89327 0.47705 0.0
C673 C 0.13722 0.88586 0.45409 0.0
C674 C 0.11892 0.90911 0.43759 0.0
C675 C 0.12042 0.61791 0.66348 0.0
C676 C 0.09793 0.63745 0.64781 0.0
C677 C 0.13792 0.63641 0.68189 0.0
C678 C 0.13338 0.67512 0.68547 0.0
H679 H 0.12332 0.58779 0.66213 0.0
H680 H 0.15391 0.6199 0.69397 0.0
S681 S 0.08187 0.74004 0.64724 0.0
N682 N 0.07539 0.69828 0.63546 0.0
N683 N 0.1079 0.73309 0.67032 0.0
C684 C 0.11247 0.69534 0.66923 0.0
C685 C 0.09482 0.6765 0.65037 0.0
C686 C 0.35245 0.6338 0.89876 0.0
C687 C 0.38469 0.61552 0.90504 0.0
C688 C 0.33205 0.65358 0.91542 0.0
C689 C 0.34304 0.65562 0.93901 0.0
H690 H 0.34308 0.63306 0.8808 0.0
H691 H 0.30741 0.66723 0.90972 0.0
S692 S 0.42471 0.61053 0.9645 0.0
N693 N 0.42602 0.59927 0.9365 0.0
N694 N 0.38815 0.63657 0.96776 0.0
C695 C 0.37523 0.63714 0.94548 0.0
C696 C 0.39591 0.61707 0.92852 0.0
C697 C 0.41504 0.85853 0.16836 0.0
C698 C 0.39378 0.88322 0.15505 0.0
C699 C 0.39982 0.83718 0.18639 0.0
C700 C 0.36268 0.8396 0.19179 0.0
H701 H 0.44397 0.85674 0.1654 0.0
H702 H 0.41761 0.81941 0.19655 0.0
S703 S 0.29467 0.89705 0.16008 0.0
N704 N 0.33342 0.9067 0.14698 0.0
N705 N 0.30449 0.86664 0.18089 0.0
C706 C 0.3408 0.86297 0.17782 0.0
C707 C 0.35644 0.88481 0.15949 0.0
C708 C 0.10209 0.6612 0.84718 0.0
C709 C 0.10485 0.62191 0.8476 0.0
C710 C 0.11995 0.68237 0.83003 0.0
C711 C 0.14061 0.66491 0.81242 0.0
H712 H 0.08583 0.67564 0.86015 0.0
H713 H 0.11685 0.71255 0.83025 0.0
S714 S 0.15699 0.56271 0.80622 0.0
N715 N 0.13035 0.56638 0.82932 0.0
N716 N 0.16378 0.60597 0.79701 0.0
C717 C 0.14394 0.62562 0.81288 0.0
C718 C 0.12613 0.60417 0.8305 0.0
C719 C 0.41644 0.64098 0.08394 0.0
C720 C 0.39603 0.61469 0.09662 0.0
C721 C 0.40084 0.66187 0.06585 0.0
C722 C 0.36416 0.65739 0.05976 0.0
H723 H 0.44503 0.64458 0.08752 0.0
H724 H 0.41799 0.68113 0.05629 0.0
S725 S 0.29828 0.59448 0.08927 0.0
N726 N 0.33684 0.58701 0.10309 0.0
N727 N 0.30727 0.62615 0.06904 0.0
C728 C 0.3431 0.6321 0.07293 0.0
C729 C 0.35911 0.61074 0.09133 0.0
C730 C 0.35521 0.86379 0.35377 0.0
C731 C 0.38732 0.88226 0.3474 0.0
C732 C 0.33385 0.84555 0.33696 0.0
C733 C 0.34369 0.84531 0.31312 0.0
H734 H 0.34675 0.86309 0.37193 0.0
H735 H 0.30945 0.83152 0.34276 0.0
S736 S 0.42434 0.89199 0.28733 0.0
N737 N 0.42716 0.90087 0.31562 0.0
N738 N 0.38741 0.86652 0.28403 0.0
C739 C 0.37563 0.86418 0.30653 0.0
C740 C 0.39732 0.88266 0.32366 0.0
C741 C 0.14386 0.87478 0.59882 0.0
C742 C 0.10932 0.86567 0.60748 0.0
C743 C 0.15954 0.85438 0.58047 0.0
C744 C 0.14119 0.82415 0.56996 0.0
H745 H 0.15834 0.89875 0.60574 0.0
H746 H 0.18553 0.86354 0.57381 0.0
S747 S 0.05182 0.78624 0.58807 0.0
N748 N 0.05844 0.82256 0.60545 0.0
N749 N 0.08814 0.78371 0.57131 0.0
C750 C 0.10768 0.81317 0.57954 0.0
C751 C 0.09171 0.83402 0.59822 0.0
C752 C 0.62934 0.38149 0.91418 0.0
C753 C 0.59208 0.38942 0.91415 0.0
C754 C 0.64559 0.36306 0.93311 0.0
C755 C 0.62521 0.35184 0.95275 0.0
H756 H 0.64602 0.38931 0.89937 0.0
H757 H 0.67437 0.35743 0.93223 0.0
S758 S 0.52694 0.3683 0.96185 0.0
N759 N 0.53552 0.38645 0.93588 0.0
N760 N 0.56582 0.35125 0.97123 0.0
C761 C 0.58792 0.35989 0.95299 0.0
C762 C 0.57143 0.3788 0.93376 0.0
C763 C 0.59771 0.1641 0.15791 0.0
C764 C 0.60661 0.12662 0.15288 0.0
C765 C 0.6149 0.18365 0.17604 0.0
C766 C 0.64181 0.16657 0.18979 0.0
H767 H 0.57664 0.17818 0.1481 0.0
H768 H 0.60639 0.21213 0.17962 0.0
S769 S 0.67579 0.06919 0.18334 0.0
N770 N 0.64457 0.07333 0.16286 0.0
N771 N 0.67749 0.11028 0.19657 0.0
C772 C 0.65207 0.12959 0.18432 0.0
C773 C 0.63434 0.10957 0.16596 0.0
C774 C 0.87103 0.10987 0.42385 0.0
C775 C 0.89192 0.12836 0.40688 0.0
C776 C 0.85126 0.13003 0.44056 0.0
C777 C 0.85138 0.16952 0.44086 0.0
H778 H 0.87089 0.07955 0.4247 0.0
H779 H 0.83621 0.11441 0.45357 0.0
S780 S 0.89965 0.23106 0.39874 0.0
N781 N 0.91006 0.18812 0.39034 0.0
N782 N 0.87287 0.22627 0.4217 0.0
C783 C 0.87122 0.18834 0.42339 0.0
C784 C 0.89154 0.1677 0.40645 0.0
C785 C 0.88853 0.42393 0.68825 0.0
C786 C 0.88446 0.40968 0.66547 0.0
C787 C 0.87424 0.40508 0.70761 0.0
C788 C 0.85509 0.37124 0.70501 0.0
H789 H 0.90343 0.44965 0.69121 0.0
H790 H 0.87834 0.4173 0.72477 0.0
S791 S 0.83617 0.32263 0.64877 0.0
N792 N 0.85942 0.3602 0.64116 0.0
N793 N 0.83249 0.32445 0.67756 0.0
C794 C 0.85059 0.35674 0.68222 0.0
C795 C 0.86535 0.37599 0.66247 0.0
C796 C 0.63849 0.13139 0.35509 0.0
C797 C 0.61457 0.10325 0.34758 0.0
C798 C 0.65762 0.15333 0.33891 0.0
C799 C 0.65317 0.14821 0.31462 0.0
H800 H 0.64281 0.13615 0.37361 0.0
H801 H 0.67601 0.17444 0.34555 0.0
S802 S 0.59205 0.07913 0.28615 0.0
N803 N 0.58634 0.07216 0.31446 0.0
N804 N 0.62212 0.11315 0.28398 0.0
C805 C 0.62881 0.12041 0.30694 0.0
C806 C 0.60958 0.09798 0.32343 0.0
C807 C 0.90138 0.08564 0.56958 0.0
C808 C 0.89112 0.09397 0.59268 0.0
C809 C 0.88719 0.10572 0.5507 0.0
C810 C 0.86176 0.13453 0.55417 0.0
H811 H 0.92098 0.06374 0.56609 0.0
H812 H 0.89601 0.09828 0.53321 0.0
S813 S 0.82595 0.16696 0.61145 0.0
N814 N 0.85427 0.13282 0.6182 0.0
N815 N 0.82693 0.17042 0.58262 0.0
C816 C 0.85105 0.14298 0.57724 0.0
C817 C 0.86597 0.1228 0.59653 0.0
C818 C 0.86647 0.37633 0.83908 0.0
C819 C 0.90324 0.37288 0.84492 0.0
C820 C 0.85101 0.35424 0.82148 0.0
C821 C 0.87173 0.32785 0.80891 0.0
H822 H 0.84961 0.39672 0.84796 0.0
H823 H 0.82268 0.35857 0.81741 0.0
S824 S 0.96927 0.30737 0.81806 0.0
N825 N 0.95997 0.34066 0.83722 0.0
N826 N 0.93092 0.29873 0.80424 0.0
C827 C 0.90836 0.32329 0.81511 0.0
C828 C 0.9241 0.34588 0.83309 0.0
C829 C 0.61023 0.34099 0.0988 0.0
C830 C 0.61496 0.37995 0.10071 0.0
C831 C 0.62775 0.32036 0.08127 0.0
C832 C 0.65064 0.33785 0.06485 0.0
H833 H 0.59229 0.32641 0.11072 0.0
H834 H 0.62252 0.29054 0.0803 0.0
S835 S 0.67292 0.43929 0.0628 0.0
N836 N 0.64477 0.43524 0.0851 0.0
N837 N 0.67814 0.39652 0.05232 0.0
C838 C 0.6566 0.37668 0.06709 0.0
C839 C 0.63868 0.39769 0.08497 0.0
loop_
_geom_bond_atom_site_label_1
_geom_bond_atom_site_label_2
_geom_bond_distance
_geom_bond_site_symmetry_2
_ccdc_geom_bond_type
H0 C19 0.949 . S
H1 C20 0.950 . S
H2 C22 0.950 . S
H3 C23 0.950 . S
H4 C25 0.950 . S
H5 C28 0.950 . S
H6 C29 0.950 . S
H7 C31 0.951 . S
H8 C32 0.949 1_565 S
H9 C34 0.949 . S
H10 C35 0.950 . S
H11 C37 0.950 . S
H12 C38 0.950 . S
H13 C40 0.950 . S
H14 C43 0.950 . S
H15 C44 0.950 . S
H16 C46 0.951 . S
H17 C47 0.949 1_545 S
C18 C19 1.376 . S
C18 C23 1.386 . S
C18 C24 1.483 . S
C19 H0 0.949 . S
C19 C18 1.376 . S
C19 C20 1.397 . S
C20 H1 0.950 . S
C20 C19 1.397 . S
C20 C21 1.391 . S
C21 C20 1.391 . S
C21 C22 1.405 . S
C22 H2 0.950 . S
C22 C21 1.405 . S
C22 C23 1.367 . S
C23 H3 0.950 . S
C23 C18 1.386 . S
C23 C22 1.367 . S
C24 C18 1.483 . S
C24 C25 1.382 1_655 S
C24 C26 1.403 . S
C25 H4 0.950 . S
C25 C24 1.382 1_455 S
C25 C41 1.411 1_545 S
C26 C24 1.403 . S
C26 C27 1.489 . S
C26 C40 1.411 1_545 S
C27 C26 1.489 . S
C27 C28 1.383 . S
C27 C32 1.382 . S
C28 H5 0.950 . S
C28 C27 1.383 . S
C28 C29 1.395 . S
C29 H6 0.950 . S
C29 C28 1.395 . S
C29 C30 1.288 . S
C30 C29 1.288 . S
C30 C31 1.392 . S
C31 H7 0.951 . S
C31 C30 1.392 . S
C31 C32 1.392 . S
C32 H8 0.949 1_545 S
C32 C27 1.382 . S
C32 C31 1.392 . S
C33 C34 1.376 . S
C33 C38 1.386 . S
C33 C39 1.483 . S
C34 H9 0.949 . S
C34 C33 1.376 . S
C34 C35 1.397 . S
C35 H10 0.950 . S
C35 C34 1.397 . S
C35 C36 1.391 . S
C36 C35 1.391 . S
C36 C37 1.405 . S
C37 H11 0.950 . S
C37 C36 1.405 . S
C37 C38 1.367 . S
C38 H12 0.950 . S
C38 C33 1.386 . S
C38 C37 1.367 . S
C39 C33 1.483 . S
C39 C40 1.382 1_455 S
C39 C41 1.403 . S
C40 H13 0.950 . S
C40 C26 1.411 1_565 S
C40 C39 1.382 1_655 S
C41 C25 1.411 1_565 S
C41 C39 1.403 . S
C41 C42 1.489 . S
C42 C41 1.489 . S
C42 C43 1.383 . S
C42 C47 1.382 . S
C43 H14 0.950 . S
C43 C42 1.383 . S
C43 C44 1.395 . S
C44 H15 0.950 . S
C44 C43 1.395 . S
C44 C45 1.288 . S
C45 C44 1.288 . S
C45 C46 1.392 . S
C46 H16 0.951 . S
C46 C45 1.392 . S
C46 C47 1.392 . S
C47 H17 0.949 1_565 S
C47 C42 1.382 . S
C47 C46 1.392 . S
H48 C67 0.949 1_455 S
H49 C68 0.950 . S
H50 C70 0.950 . S
H51 C71 0.950 . S
H52 C73 0.950 . S
H53 C76 0.950 . S
H54 C77 0.950 . S
H55 C79 0.951 . S
H56 C80 0.949 . S
H57 C82 0.949 1_655 S
H58 C83 0.950 . S
H59 C85 0.950 . S
H60 C86 0.950 . S
H61 C88 0.950 . S
H62 C91 0.950 . S
H63 C92 0.950 . S
H64 C94 0.951 . S
H65 C95 0.949 . S
C66 C67 1.376 . S
C66 C71 1.386 . S
C66 C72 1.483 . S
C67 H48 0.949 1_655 S
C67 C66 1.376 . S
C67 C68 1.397 . S
C68 H49 0.950 . S
C68 C67 1.397 . S
C68 C69 1.391 . S
C69 C68 1.391 . S
C69 C70 1.405 . S
C70 H50 0.950 . S
C70 C69 1.405 . S
C70 C71 1.367 . S
C71 H51 0.950 . S
C71 C66 1.386 . S
C71 C70 1.367 . S
C72 C66 1.483 . S
C72 C73 1.382 1_655 S
C72 C74 1.403 . S
C73 H52 0.950 . S
C73 C72 1.382 1_455 S
C73 C89 1.411 . S
C74 C72 1.403 . S
C74 C75 1.489 . S
C74 C88 1.411 . S
C75 C74 1.489 . S
C75 C76 1.383 . S
C75 C80 1.382 . S
C76 H53 0.950 . S
C76 C75 1.383 . S
C76 C77 1.395 . S
C77 H54 0.950 . S
C77 C76 1.395 . S
C77 C78 1.288 . S
C78 C77 1.288 . S
C78 C79 1.392 . S
C79 H55 0.951 . S
C79 C78 1.392 . S
C79 C80 1.392 . S
C80 H56 0.949 . S
C80 C75 1.382 . S
C80 C79 1.392 . S
C81 C82 1.376 . S
C81 C86 1.386 . S
C81 C87 1.483 . S
C82 H57 0.949 1_455 S
C82 C81 1.376 . S
C82 C83 1.397 . S
C83 H58 0.950 . S
C83 C82 1.397 . S
C83 C84 1.391 . S
C84 C83 1.391 . S
C84 C85 1.405 . S
C85 H59 0.950 . S
C85 C84 1.405 . S
C85 C86 1.367 . S
C86 H60 0.950 . S
C86 C81 1.386 . S
C86 C85 1.367 . S
C87 C81 1.483 . S
C87 C88 1.382 1_455 S
C87 C89 1.403 . S
C88 H61 0.950 . S
C88 C74 1.411 . S
C88 C87 1.382 1_655 S
C89 C73 1.411 . S
C89 C87 1.403 . S
C89 C90 1.489 . S
C90 C89 1.489 . S
C90 C91 1.383 . S
C90 C95 1.382 . S
C91 H62 0.950 . S
C91 C90 1.383 . S
C91 C92 1.395 . S
C92 H63 0.950 . S
C92 C91 1.395 . S
C92 C93 1.288 . S
C93 C92 1.288 . S
C93 C94 1.392 . S
C94 H64 0.951 . S
C94 C93 1.392 . S
C94 C95 1.392 . S
C95 H65 0.949 . S
C95 C90 1.382 . S
C95 C94 1.392 . S
H96 C115 0.949 . S
H97 C116 0.950 . S
H98 C118 0.950 . S
H99 C119 0.950 . S
H100 C121 0.950 . S
H101 C124 0.950 . S
H102 C125 0.950 . S
H103 C127 0.951 . S
H104 C128 0.949 . S
H105 C130 0.949 . S
H106 C131 0.950 . S
H107 C133 0.950 . S
H108 C134 0.950 . S
H109 C136 0.950 . S
H110 C139 0.950 . S
H111 C140 0.950 . S
H112 C142 0.951 . S
H113 C143 0.949 . S
C114 C115 1.376 . S
C114 C119 1.386 . S
C114 C120 1.483 . S
C115 H96 0.949 . S
C115 C114 1.376 . S
C115 C116 1.397 . S
C116 H97 0.950 . S
C116 C115 1.397 . S
C116 C117 1.391 . S
C117 C116 1.391 . S
C117 C118 1.405 . S
C118 H98 0.950 . S
C118 C117 1.405 . S
C118 C119 1.367 . S
C119 H99 0.950 . S
C119 C114 1.386 . S
C119 C118 1.367 . S
C120 C114 1.483 . S
C120 C121 1.382 . S
C120 C122 1.403 . S
C121 H100 0.950 . S
C121 C120 1.382 . S
C121 C137 1.411 . S
C122 C120 1.403 . S
C122 C123 1.489 . S
C122 C136 1.411 . S
C123 C122 1.489 . S
C123 C124 1.383 . S
C123 C128 1.382 . S
C124 H101 0.950 . S
C124 C123 1.383 . S
C124 C125 1.395 . S
C125 H102 0.950 . S
C125 C124 1.395 . S
C125 C126 1.288 . S
C126 C125 1.288 . S
C126 C127 1.392 . S
C127 H103 0.951 . S
C127 C126 1.392 . S
C127 C128 1.392 . S
C128 H104 0.949 . S
C128 C123 1.382 . S
C128 C127 1.392 . S
C129 C130 1.376 . S
C129 C134 1.386 . S
C129 C135 1.483 . S
C130 H105 0.949 . S
C130 C129 1.376 . S
C130 C131 1.397 . S
C131 H106 0.950 . S
C131 C130 1.397 . S
C131 C132 1.391 . S
C132 C131 1.391 . S
C132 C133 1.405 . S
C133 H107 0.950 . S
C133 C132 1.405 . S
C133 C134 1.367 . S
C134 H108 0.950 . S
C134 C129 1.386 . S
C134 C133 1.367 . S
C135 C129 1.483 . S
C135 C136 1.382 . S
C135 C137 1.403 . S
C136 H109 0.950 . S
C136 C122 1.411 . S
C136 C135 1.382 . S
C137 C121 1.411 . S
C137 C135 1.403 . S
C137 C138 1.489 . S
C138 C137 1.489 . S
C138 C139 1.383 . S
C138 C143 1.382 . S
C139 H110 0.950 . S
C139 C138 1.383 . S
C139 C140 1.395 . S
C140 H111 0.950 . S
C140 C139 1.395 . S
C140 C141 1.288 . S
C141 C140 1.288 . S
C141 C142 1.392 . S
C142 H112 0.951 . S
C142 C141 1.392 . S
C142 C143 1.392 . S
C143 H113 0.949 . S
C143 C138 1.382 . S
C143 C142 1.392 . S
H144 C163 0.949 . S
H145 C164 0.950 . S
H146 C166 0.950 . S
H147 C167 0.950 . S
H148 C169 0.950 . S
H149 C172 0.950 . S
H150 C173 0.950 . S
H151 C175 0.951 . S
H152 C176 0.949 . S
H153 C178 0.949 . S
H154 C179 0.950 . S
H155 C181 0.950 . S
H156 C182 0.950 . S
H157 C184 0.950 . S
H158 C187 0.950 . S
H159 C188 0.950 . S
H160 C190 0.951 . S
H161 C191 0.949 . S
C162 C163 1.376 . S
C162 C167 1.386 . S
C162 C168 1.483 . S
C163 H144 0.949 . S
C163 C162 1.376 . S
C163 C164 1.397 . S
C164 H145 0.950 . S
C164 C163 1.397 . S
C164 C165 1.391 . S
C165 C164 1.391 . S
C165 C166 1.405 . S
C166 H146 0.950 . S
C166 C165 1.405 . S
C166 C167 1.367 . S
C167 H147 0.950 . S
C167 C162 1.386 . S
C167 C166 1.367 . S
C168 C162 1.483 . S
C168 C169 1.382 . S
C168 C170 1.403 . S
C169 H148 0.950 . S
C169 C168 1.382 . S
C169 C185 1.411 1_565 S
C170 C168 1.403 . S
C170 C171 1.489 . S
C170 C184 1.411 1_565 S
C171 C170 1.489 . S
C171 C172 1.383 . S
C171 C176 1.382 . S
C172 H149 0.950 . S
C172 C171 1.383 . S
C172 C173 1.395 . S
C173 H150 0.950 . S
C173 C172 1.395 . S
C173 C174 1.288 . S
C174 C173 1.288 . S
C174 C175 1.392 . S
C175 H151 0.951 . S
C175 C174 1.392 . S
C175 C176 1.392 . S
C176 H152 0.949 . S
C176 C171 1.382 . S
C176 C175 1.392 . S
C177 C178 1.376 . S
C177 C182 1.386 . S
C177 C183 1.483 . S
C178 H153 0.949 . S
C178 C177 1.376 . S
C178 C179 1.397 . S
C179 H154 0.950 . S
C179 C178 1.397 . S
C179 C180 1.391 . S
C180 C179 1.391 . S
C180 C181 1.405 . S
C181 H155 0.950 . S
C181 C180 1.405 . S
C181 C182 1.367 . S
C182 H156 0.950 . S
C182 C177 1.386 . S
C182 C181 1.367 . S
C183 C177 1.483 . S
C183 C184 1.382 . S
C183 C185 1.403 . S
C184 H157 0.950 . S
C184 C170 1.411 1_545 S
C184 C183 1.382 . S
C185 C169 1.411 1_545 S
C185 C183 1.403 . S
C185 C186 1.489 . S
C186 C185 1.489 . S
C186 C187 1.383 . S
C186 C191 1.382 . S
C187 H158 0.950 . S
C187 C186 1.383 . S
C187 C188 1.395 . S
C188 H159 0.950 . S
C188 C187 1.395 . S
C188 C189 1.288 . S
C189 C188 1.288 . S
C189 C190 1.392 . S
C190 H160 0.951 . S
C190 C189 1.392 . S
C190 C191 1.392 . S
C191 H161 0.949 . S
C191 C186 1.382 . S
C191 C190 1.392 . S
H192 C211 0.949 . S
H193 C212 0.950 . S
H194 C214 0.950 . S
H195 C215 0.950 . S
H196 C217 0.950 . S
H197 C220 0.950 . S
H198 C221 0.950 . S
H199 C223 0.951 . S
H200 C224 0.949 . S
H201 C226 0.949 . S
H202 C227 0.950 . S
H203 C229 0.950 . S
H204 C230 0.950 . S
H205 C232 0.950 . S
H206 C235 0.950 . S
H207 C236 0.950 . S
H208 C238 0.951 . S
H209 C239 0.949 . S
C210 C211 1.376 . S
C210 C215 1.386 . S
C210 C216 1.483 . S
C211 H192 0.949 . S
C211 C210 1.376 . S
C211 C212 1.397 . S
C212 H193 0.950 . S
C212 C211 1.397 . S
C212 C213 1.391 . S
C213 C212 1.391 . S
C213 C214 1.405 . S
C214 H194 0.950 . S
C214 C213 1.405 . S
C214 C215 1.367 . S
C215 H195 0.950 . S
C215 C210 1.386 . S
C215 C214 1.367 . S
C216 C210 1.483 . S
C216 C217 1.382 1_455 S
C216 C218 1.403 . S
C217 H196 0.950 . S
C217 C216 1.382 1_655 S
C217 C233 1.411 . S
C218 C216 1.403 . S
C218 C219 1.489 . S
C218 C232 1.411 . S
C219 C218 1.489 . S
C219 C220 1.383 . S
C219 C224 1.382 . S
C220 H197 0.950 . S
C220 C219 1.383 . S
C220 C221 1.395 . S
C221 H198 0.950 . S
C221 C220 1.395 . S
C221 C222 1.288 . S
C222 C221 1.288 . S
C222 C223 1.392 . S
C223 H199 0.951 . S
C223 C222 1.392 . S
C223 C224 1.392 . S
C224 H200 0.949 . S
C224 C219 1.382 . S
C224 C223 1.392 . S
C225 C226 1.376 . S
C225 C230 1.386 . S
C225 C231 1.483 . S
C226 H201 0.949 . S
C226 C225 1.376 . S
C226 C227 1.397 . S
C227 H202 0.950 . S
C227 C226 1.397 . S
C227 C228 1.391 . S
C228 C227 1.391 . S
C228 C229 1.405 . S
C229 H203 0.950 . S
C229 C228 1.405 . S
C229 C230 1.367 . S
C230 H204 0.950 . S
C230 C225 1.386 . S
C230 C229 1.367 . S
C231 C225 1.483 . S
C231 C232 1.382 1_655 S
C231 C233 1.403 . S
C232 H205 0.950 . S
C232 C218 1.411 . S
C232 C231 1.382 1_455 S
C233 C217 1.411 . S
C233 C231 1.403 . S
C233 C234 1.489 . S
C234 C233 1.489 . S
C234 C235 1.383 . S
C234 C239 1.382 . S
C235 H206 0.950 . S
C235 C234 1.383 . S
C235 C236 1.395 . S
C236 H207 0.950 . S
C236 C235 1.395 . S
C236 C237 1.288 . S
C237 C236 1.288 . S
C237 C238 1.392 . S
C238 H208 0.951 . S
C238 C237 1.392 . S
C238 C239 1.392 . S
C239 H209 0.949 . S
C239 C234 1.382 . S
C239 C238 1.392 . S
H240 C259 0.949 . S
H241 C260 0.950 . S
H242 C262 0.950 . S
H243 C263 0.950 . S
H244 C265 0.950 . S
H245 C268 0.950 . S
H246 C269 0.950 . S
H247 C271 0.951 . S
H248 C272 0.949 . S
H249 C274 0.949 . S
H250 C275 0.950 . S
H251 C277 0.950 . S
H252 C278 0.950 . S
H253 C280 0.950 . S
H254 C283 0.950 . S
H255 C284 0.950 . S
H256 C286 0.951 . S
H257 C287 0.949 . S
C258 C259 1.376 . S
C258 C263 1.386 . S
C258 C264 1.483 . S
C259 H240 0.949 . S
C259 C258 1.376 . S
C259 C260 1.397 . S
C260 H241 0.950 . S
C260 C259 1.397 . S
C260 C261 1.391 . S
C261 C260 1.391 . S
C261 C262 1.405 . S
C262 H242 0.950 . S
C262 C261 1.405 . S
C262 C263 1.367 . S
C263 H243 0.950 . S
C263 C258 1.386 . S
C263 C262 1.367 . S
C264 C258 1.483 . S
C264 C265 1.382 . S
C264 C266 1.403 . S
C265 H244 0.950 . S
C265 C264 1.382 . S
C265 C281 1.411 . S
C266 C264 1.403 . S
C266 C267 1.489 . S
C266 C280 1.411 . S
C267 C266 1.489 . S
C267 C268 1.383 . S
C267 C272 1.382 . S
C268 H245 0.950 . S
C268 C267 1.383 . S
C268 C269 1.395 . S
C269 H246 0.950 . S
C269 C268 1.395 . S
C269 C270 1.288 . S
C270 C269 1.288 . S
C270 C271 1.392 . S
C271 H247 0.951 . S
C271 C270 1.392 . S
C271 C272 1.392 . S
C272 H248 0.949 . S
C272 C267 1.382 . S
C272 C271 1.392 . S
C273 C274 1.376 . S
C273 C278 1.386 . S
C273 C279 1.483 . S
C274 H249 0.949 . S
C274 C273 1.376 . S
C274 C275 1.397 . S
C275 H250 0.950 . S
C275 C274 1.397 . S
C275 C276 1.391 . S
C276 C275 1.391 . S
C276 C277 1.405 . S
C277 H251 0.950 . S
C277 C276 1.405 . S
C277 C278 1.367 . S
C278 H252 0.950 . S
C278 C273 1.386 . S
C278 C277 1.367 . S
C279 C273 1.483 . S
C279 C280 1.382 . S
C279 C281 1.403 . S
C280 H253 0.950 . S
C280 C266 1.411 . S
C280 C279 1.382 . S
C281 C265 1.411 . S
C281 C279 1.403 . S
C281 C282 1.489 . S
C282 C281 1.489 . S
C282 C283 1.383 . S
C282 C287 1.382 . S
C283 H254 0.950 . S
C283 C282 1.383 . S
C283 C284 1.395 . S
C284 H255 0.950 . S
C284 C283 1.395 . S
C284 C285 1.288 . S
C285 C284 1.288 . S
C285 C286 1.392 . S
C286 H256 0.951 . S
C286 C285 1.392 . S
C286 C287 1.392 . S
C287 H257 0.949 . S
C287 C282 1.382 . S
C287 C286 1.392 . S
H288 C307 0.949 . S
H289 C308 0.950 . S
H290 C310 0.950 . S
H291 C311 0.950 . S
H292 C313 0.950 . S
H293 C316 0.950 . S
H294 C317 0.950 . S
H295 C319 0.951 . S
H296 C320 0.949 1_545 S
H297 C322 0.949 . S
H298 C323 0.950 . S
H299 C325 0.950 . S
H300 C326 0.950 . S
H301 C328 0.950 . S
H302 C331 0.950 . S
H303 C332 0.950 . S
H304 C334 0.951 . S
H305 C335 0.949 1_565 S
C306 C307 1.376 . S
C306 C311 1.386 . S
C306 C312 1.483 . S
C307 H288 0.949 . S
C307 C306 1.376 . S
C307 C308 1.397 . S
C308 H289 0.950 . S
C308 C307 1.397 . S
C308 C309 1.391 . S
C309 C308 1.391 . S
C309 C310 1.405 . S
C310 H290 0.950 . S
C310 C309 1.405 . S
C310 C311 1.367 . S
C311 H291 0.950 . S
C311 C306 1.386 . S
C311 C310 1.367 . S
C312 C306 1.483 . S
C312 C313 1.382 . S
C312 C314 1.403 . S
C313 H292 0.950 . S
C313 C312 1.382 . S
C313 C329 1.411 1_565 S
C314 C312 1.403 . S
C314 C315 1.489 . S
C314 C328 1.411 1_565 S
C315 C314 1.489 . S
C315 C316 1.383 . S
C315 C320 1.382 . S
C316 H293 0.950 . S
C316 C315 1.383 . S
C316 C317 1.395 . S
C317 H294 0.950 . S
C317 C316 1.395 . S
C317 C318 1.288 . S
C318 C317 1.288 . S
C318 C319 1.392 . S
C319 H295 0.951 . S
C319 C318 1.392 . S
C319 C320 1.392 . S
C320 H296 0.949 1_565 S
C320 C315 1.382 . S
C320 C319 1.392 . S
C321 C322 1.376 . S
C321 C326 1.386 . S
C321 C327 1.483 . S
C322 H297 0.949 . S
C322 C321 1.376 . S
C322 C323 1.397 . S
C323 H298 0.950 . S
C323 C322 1.397 . S
C323 C324 1.391 . S
C324 C323 1.391 . S
C324 C325 1.405 . S
C325 H299 0.950 . S
C325 C324 1.405 . S
C325 C326 1.367 . S
C326 H300 0.950 . S
C326 C321 1.386 . S
C326 C325 1.367 . S
C327 C321 1.483 . S
C327 C328 1.382 . S
C327 C329 1.403 . S
C328 H301 0.950 . S
C328 C314 1.411 1_545 S
C328 C327 1.382 . S
C329 C313 1.411 1_545 S
C329 C327 1.403 . S
C329 C330 1.489 . S
C330 C329 1.489 . S
C330 C331 1.383 . S
C330 C335 1.382 . S
C331 H302 0.950 . S
C331 C330 1.383 . S
C331 C332 1.395 . S
C332 H303 0.950 . S
C332 C331 1.395 . S
C332 C333 1.288 . S
C333 C332 1.288 . S
C333 C334 1.392 . S
C334 H304 0.951 . S
C334 C333 1.392 . S
C334 C335 1.392 . S
C335 H305 0.949 1_545 S
C335 C330 1.382 . S
C335 C334 1.392 . S
H336 C355 0.949 1_455 S
H337 C356 0.950 . S
H338 C358 0.950 . S
H339 C359 0.950 . S
H340 C361 0.950 . S
H341 C364 0.950 . S
H342 C365 0.950 . S
H343 C367 0.951 . S
H344 C368 0.949 . S
H345 C370 0.949 1_655 S
H346 C371 0.950 . S
H347 C373 0.950 . S
H348 C374 0.950 . S
H349 C376 0.950 . S
H350 C379 0.950 . S
H351 C380 0.950 . S
H352 C382 0.951 . S
H353 C383 0.949 . S
C354 C355 1.376 . S
C354 C359 1.386 . S
C354 C360 1.483 . S
C355 H336 0.949 1_655 S
C355 C354 1.376 . S
C355 C356 1.397 . S
C356 H337 0.950 . S
C356 C355 1.397 . S
C356 C357 1.391 . S
C357 C356 1.391 . S
C357 C358 1.405 . S
C358 H338 0.950 . S
C358 C357 1.405 . S
C358 C359 1.367 . S
C359 H339 0.950 . S
C359 C354 1.386 . S
C359 C358 1.367 . S
C360 C354 1.483 . S
C360 C361 1.382 1_655 S
C360 C362 1.403 . S
C361 H340 0.950 . S
C361 C360 1.382 1_455 S
C361 C377 1.411 1_545 S
C362 C360 1.403 . S
C362 C363 1.489 . S
C362 C376 1.411 1_545 S
C363 C362 1.489 . S
C363 C364 1.383 . S
C363 C368 1.382 . S
C364 H341 0.950 . S
C364 C363 1.383 . S
C364 C365 1.395 . S
C365 H342 0.950 . S
C365 C364 1.395 . S
C365 C366 1.288 . S
C366 C365 1.288 . S
C366 C367 1.392 . S
C367 H343 0.951 . S
C367 C366 1.392 . S
C367 C368 1.392 . S
C368 H344 0.949 . S
C368 C363 1.382 . S
C368 C367 1.392 . S
C369 C370 1.376 . S
C369 C374 1.386 . S
C369 C375 1.483 . S
C370 H345 0.949 1_455 S
C370 C369 1.376 . S
C370 C371 1.397 . S
C371 H346 0.950 . S
C371 C370 1.397 . S
C371 C372 1.391 . S
C372 C371 1.391 . S
C372 C373 1.405 . S
C373 H347 0.950 . S
C373 C372 1.405 . S
C373 C374 1.367 . S
C374 H348 0.950 . S
C374 C369 1.386 . S
C374 C373 1.367 . S
C375 C369 1.483 . S
C375 C376 1.382 1_455 S
C375 C377 1.403 . S
C376 H349 0.950 . S
C376 C362 1.411 1_565 S
C376 C375 1.382 1_655 S
C377 C361 1.411 1_565 S
C377 C375 1.403 . S
C377 C378 1.489 . S
C378 C377 1.489 . S
C378 C379 1.383 . S
C378 C383 1.382 . S
C379 H350 0.950 . S
C379 C378 1.383 . S
C379 C380 1.395 . S
C380 H351 0.950 . S
C380 C379 1.395 . S
C380 C381 1.288 . S
C381 C380 1.288 . S
C381 C382 1.392 . S
C382 H352 0.951 . S
C382 C381 1.392 . S
C382 C383 1.392 . S
C383 H353 0.949 . S
C383 C378 1.382 . S
C383 C382 1.392 . S
C384 O385 1.160 1_556 S
C384 O391 1.185 . S
O385 C384 1.160 1_554 S
O386 Zn387 1.899 . S
O386 C394 1.284 . S
Zn387 O386 1.899 . S
Zn387 O388 2.032 1_554 S
Zn387 O391 2.086 1_554 S
Zn387 O396 1.977 . S
O388 Zn387 2.032 1_556 S
O388 C392 1.278 . S
C389 O390 1.203 . S
C389 O396 1.267 . S
O390 C389 1.203 . S
O391 C384 1.185 . S
O391 Zn387 2.086 1_556 S
C392 O388 1.278 . S
C392 O393 1.211 . S
O393 C392 1.211 . S
C394 O386 1.284 . S
C394 O395 1.273 . S
O395 C394 1.273 . S
O396 Zn387 1.977 . S
O396 C389 1.267 . S
C397 O398 1.160 . S
C397 O404 1.185 . S
O398 C397 1.160 . S
O399 Zn400 1.899 . S
O399 C407 1.284 . S
Zn400 O399 1.899 . S
Zn400 O401 2.032 . S
Zn400 O404 2.086 . S
Zn400 O409 1.977 . S
O401 Zn400 2.032 . S
O401 C405 1.278 . S
C402 O403 1.203 . S
C402 O409 1.267 . S
O403 C402 1.203 . S
O404 C397 1.185 . S
O404 Zn400 2.086 . S
C405 O401 1.278 . S
C405 O406 1.211 . S
O406 C405 1.211 . S
C407 O399 1.284 . S
C407 O408 1.273 . S
O408 C407 1.273 . S
O409 Zn400 1.977 . S
O409 C402 1.267 . S
C410 O411 1.160 . S
C410 O417 1.185 . S
O411 C410 1.160 . S
O412 Zn413 1.899 . S
O412 C420 1.284 . S
Zn413 O412 1.899 . S
Zn413 O414 2.032 . S
Zn413 O417 2.086 . S
Zn413 O422 1.977 . S
O414 Zn413 2.032 . S
O414 C418 1.278 . S
C415 O416 1.203 . S
C415 O422 1.267 . S
O416 C415 1.203 . S
O417 C410 1.185 . S
O417 Zn413 2.086 . S
C418 O414 1.278 . S
C418 O419 1.211 . S
O419 C418 1.211 . S
C420 O412 1.284 . S
C420 O421 1.273 . S
O421 C420 1.273 . S
O422 Zn413 1.977 . S
O422 C415 1.267 . S
C423 O424 1.160 . S
C423 O430 1.185 . S
O424 C423 1.160 . S
O425 Zn426 1.899 . S
O425 C433 1.284 . S
Zn426 O425 1.899 . S
Zn426 O427 2.032 . S
Zn426 O430 2.086 . S
Zn426 O435 1.977 . S
O427 Zn426 2.032 . S
O427 C431 1.278 . S
C428 O429 1.203 . S
C428 O435 1.267 . S
O429 C428 1.203 . S
O430 C423 1.185 . S
O430 Zn426 2.086 . S
C431 O427 1.278 . S
C431 O432 1.211 . S
O432 C431 1.211 . S
C433 O425 1.284 . S
C433 O434 1.273 . S
O434 C433 1.273 . S
O435 Zn426 1.977 . S
O435 C428 1.267 . S
C436 O437 1.160 . S
C436 O443 1.185 . S
O437 C436 1.160 . S
O438 Zn439 1.899 . S
O438 C446 1.284 . S
Zn439 O438 1.899 . S
Zn439 O440 2.032 . S
Zn439 O443 2.086 . S
Zn439 O448 1.977 . S
O440 Zn439 2.032 . S
O440 C444 1.278 . S
C441 O442 1.203 . S
C441 O448 1.267 . S
O442 C441 1.203 . S
O443 C436 1.185 . S
O443 Zn439 2.086 . S
C444 O440 1.278 . S
C444 O445 1.211 . S
O445 C444 1.211 . S
C446 O438 1.284 . S
C446 O447 1.273 . S
O447 C446 1.273 . S
O448 Zn439 1.977 . S
O448 C441 1.267 . S
C449 O450 1.160 . S
C449 O456 1.185 . S
O450 C449 1.160 . S
O451 Zn452 1.899 . S
O451 C459 1.284 . S
Zn452 O451 1.899 . S
Zn452 O453 2.032 . S
Zn452 O456 2.086 . S
Zn452 O461 1.977 . S
O453 Zn452 2.032 . S
O453 C457 1.278 . S
C454 O455 1.203 . S
C454 O461 1.267 . S
O455 C454 1.203 . S
O456 C449 1.185 . S
O456 Zn452 2.086 . S
C457 O453 1.278 . S
C457 O458 1.211 . S
O458 C457 1.211 . S
C459 O451 1.284 . S
C459 O460 1.273 . S
O460 C459 1.273 . S
O461 Zn452 1.977 . S
O461 C454 1.267 . S
C462 O463 1.160 1_556 S
C462 O469 1.185 . S
O463 C462 1.160 1_554 S
O464 Zn465 1.899 . S
O464 C472 1.284 . S
Zn465 O464 1.899 . S
Zn465 O466 2.032 1_554 S
Zn465 O469 2.086 1_554 S
Zn465 O474 1.977 . S
O466 Zn465 2.032 1_556 S
O466 C470 1.278 . S
C467 O468 1.203 . S
C467 O474 1.267 . S
O468 C467 1.203 . S
O469 C462 1.185 . S
O469 Zn465 2.086 1_556 S
C470 O466 1.278 . S
C470 O471 1.211 . S
O471 C470 1.211 . S
C472 O464 1.284 . S
C472 O473 1.273 . S
O473 C472 1.273 . S
O474 Zn465 1.977 . S
O474 C467 1.267 . S
C475 O476 1.160 . S
C475 O482 1.185 . S
O476 C475 1.160 . S
O477 Zn478 1.899 . S
O477 C485 1.284 . S
Zn478 O477 1.899 . S
Zn478 O479 2.032 . S
Zn478 O482 2.086 . S
Zn478 O487 1.977 . S
O479 Zn478 2.032 . S
O479 C483 1.278 . S
C480 O481 1.203 . S
C480 O487 1.267 . S
O481 C480 1.203 . S
O482 C475 1.185 . S
O482 Zn478 2.086 . S
C483 O479 1.278 . S
C483 O484 1.211 . S
O484 C483 1.211 . S
C485 O477 1.284 . S
C485 O486 1.273 . S
O486 C485 1.273 . S
O487 Zn478 1.977 . S
O487 C480 1.267 . S
C488 C489 1.369 . S
C488 C490 1.419 . S
C488 H492 0.930 . S
C489 C488 1.369 . S
C489 C498 1.429 . S
C490 C488 1.419 . S
C490 C491 1.363 . S
C490 H493 0.929 . S
C491 C490 1.363 . S
C491 C497 1.428 . S
H492 C488 0.930 . S
H493 C490 0.929 . S
S494 N495 1.613 . S
S494 N496 1.610 . S
N495 S494 1.613 . S
N495 C498 1.350 . S
N496 S494 1.610 . S
N496 C497 1.351 . S
C497 C491 1.428 . S
C497 N496 1.351 . S
C497 C498 1.434 . S
C498 C489 1.429 . S
C498 N495 1.350 . S
C498 C497 1.434 . S
C499 C500 1.369 . S
C499 C501 1.419 . S
C499 H503 0.930 . S
C500 C499 1.369 . S
C500 C509 1.429 . S
C501 C499 1.419 . S
C501 C502 1.363 . S
C501 H504 0.929 . S
C502 C501 1.363 . S
C502 C508 1.428 . S
H503 C499 0.930 . S
H504 C501 0.929 . S
S505 N506 1.613 . S
S505 N507 1.610 . S
N506 S505 1.613 . S
N506 C509 1.350 . S
N507 S505 1.610 . S
N507 C508 1.351 . S
C508 C502 1.428 . S
C508 N507 1.351 . S
C508 C509 1.434 . S
C509 C500 1.429 . S
C509 N506 1.350 . S
C509 C508 1.434 . S
C510 C511 1.369 . S
C510 C512 1.419 . S
C510 H514 0.930 . S
C511 C510 1.369 . S
C511 C520 1.429 . S
C512 C510 1.419 . S
C512 C513 1.363 . S
C512 H515 0.929 . S
C513 C512 1.363 . S
C513 C519 1.428 . S
H514 C510 0.930 . S
H515 C512 0.929 . S
S516 N517 1.613 . S
S516 N518 1.610 . S
N517 S516 1.613 . S
N517 C520 1.350 . S
N518 S516 1.610 . S
N518 C519 1.351 . S
C519 C513 1.428 . S
C519 N518 1.351 . S
C519 C520 1.434 . S
C520 C511 1.429 . S
C520 N517 1.350 . S
C520 C519 1.434 . S
C521 C522 1.369 . S
C521 C523 1.419 . S
C521 H525 0.930 . S
C522 C521 1.369 . S
C522 C531 1.429 . S
C523 C521 1.419 . S
C523 C524 1.363 . S
C523 H526 0.929 . S
C524 C523 1.363 . S
C524 C530 1.428 . S
H525 C521 0.930 . S
H526 C523 0.929 . S
S527 N528 1.613 . S
S527 N529 1.610 . S
N528 S527 1.613 . S
N528 C531 1.350 . S
N529 S527 1.610 . S
N529 C530 1.351 . S
C530 C524 1.428 . S
C530 N529 1.351 . S
C530 C531 1.434 . S
C531 C522 1.429 . S
C531 N528 1.350 . S
C531 C530 1.434 . S
C532 C533 1.369 . S
C532 C534 1.419 . S
C532 H536 0.930 . S
C533 C532 1.369 . S
C533 C542 1.429 . S
C534 C532 1.419 . S
C534 C535 1.363 . S
C534 H537 0.929 . S
C535 C534 1.363 . S
C535 C541 1.428 . S
H536 C532 0.930 . S
H537 C534 0.929 . S
S538 N539 1.613 . S
S538 N540 1.610 . S
N539 S538 1.613 . S
N539 C542 1.350 . S
N540 S538 1.610 . S
N540 C541 1.351 . S
C541 C535 1.428 . S
C541 N540 1.351 . S
C541 C542 1.434 . S
C542 C533 1.429 . S
C542 N539 1.350 . S
C542 C541 1.434 . S
C543 C544 1.369 . S
C543 C545 1.419 . S
C543 H547 0.930 . S
C544 C543 1.369 . S
C544 C553 1.429 . S
C545 C543 1.419 . S
C545 C546 1.363 . S
C545 H548 0.929 . S
C546 C545 1.363 . S
C546 C552 1.428 . S
H547 C543 0.930 . S
H548 C545 0.929 . S
S549 N550 1.613 . S
S549 N551 1.610 . S
N550 S549 1.613 . S
N550 C553 1.350 . S
N551 S549 1.610 . S
N551 C552 1.351 . S
C552 C546 1.428 . S
C552 N551 1.351 . S
C552 C553 1.434 . S
C553 C544 1.429 . S
C553 N550 1.350 . S
C553 C552 1.434 . S
C554 C555 1.369 . S
C554 C556 1.419 . S
C554 H558 0.930 . S
C555 C554 1.369 . S
C555 C564 1.429 . S
C556 C554 1.419 . S
C556 C557 1.363 . S
C556 H559 0.929 . S
C557 C556 1.363 . S
C557 C563 1.428 . S
H558 C554 0.930 . S
H559 C556 0.929 . S
S560 N561 1.613 . S
S560 N562 1.610 . S
N561 S560 1.613 . S
N561 C564 1.350 . S
N562 S560 1.610 . S
N562 C563 1.351 . S
C563 C557 1.428 . S
C563 N562 1.351 . S
C563 C564 1.434 . S
C564 C555 1.429 . S
C564 N561 1.350 . S
C564 C563 1.434 . S
C565 C566 1.369 . S
C565 C567 1.419 . S
C565 H569 0.930 . S
C566 C565 1.369 . S
C566 C575 1.429 . S
C567 C565 1.419 . S
C567 C568 1.363 . S
C567 H570 0.929 . S
C568 C567 1.363 . S
C568 C574 1.428 . S
H569 C565 0.930 . S
H570 C567 0.929 . S
S571 N572 1.613 . S
S571 N573 1.610 . S
N572 S571 1.613 . S
N572 C575 1.350 . S
N573 S571 1.610 . S
N573 C574 1.351 . S
C574 C568 1.428 . S
C574 N573 1.351 . S
C574 C575 1.434 . S
C575 C566 1.429 . S
C575 N572 1.350 . S
C575 C574 1.434 . S
C576 C577 1.369 . S
C576 C578 1.419 . S
C576 H580 0.930 . S
C577 C576 1.369 . S
C577 C586 1.429 . S
C578 C576 1.419 . S
C578 C579 1.363 . S
C578 H581 0.929 . S
C579 C578 1.363 . S
C579 C585 1.428 . S
H580 C576 0.930 . S
H581 C578 0.929 . S
S582 N583 1.613 . S
S582 N584 1.610 . S
N583 S582 1.613 . S
N583 C586 1.350 . S
N584 S582 1.610 . S
N584 C585 1.351 . S
C585 C579 1.428 . S
C585 N584 1.351 . S
C585 C586 1.434 . S
C586 C577 1.429 . S
C586 N583 1.350 . S
C586 C585 1.434 . S
C587 C588 1.369 . S
C587 C589 1.419 . S
C587 H591 0.930 . S
C588 C587 1.369 . S
C588 C597 1.429 . S
C589 C587 1.419 . S
C589 C590 1.363 . S
C589 H592 0.929 . S
C590 C589 1.363 . S
C590 C596 1.428 . S
H591 C587 0.930 . S
H592 C589 0.929 . S
S593 N594 1.613 . S
S593 N595 1.610 . S
N594 S593 1.613 . S
N594 C597 1.350 . S
N595 S593 1.610 . S
N595 C596 1.351 . S
C596 C590 1.428 . S
C596 N595 1.351 . S
C596 C597 1.434 . S
C597 C588 1.429 . S
C597 N594 1.350 . S
C597 C596 1.434 . S
C598 C599 1.369 . S
C598 C600 1.419 . S
C598 H602 0.930 . S
C599 C598 1.369 . S
C599 C608 1.429 . S
C600 C598 1.419 . S
C600 C601 1.363 . S
C600 H603 0.929 . S
C601 C600 1.363 . S
C601 C607 1.428 . S
H602 C598 0.930 . S
H603 C600 0.929 . S
S604 N605 1.613 . S
S604 N606 1.610 . S
N605 S604 1.613 . S
N605 C608 1.350 . S
N606 S604 1.610 . S
N606 C607 1.351 . S
C607 C601 1.428 . S
C607 N606 1.351 . S
C607 C608 1.434 . S
C608 C599 1.429 . S
C608 N605 1.350 . S
C608 C607 1.434 . S
C609 C610 1.369 . S
C609 C611 1.419 . S
C609 H613 0.930 . S
C610 C609 1.369 . S
C610 C619 1.429 . S
C611 C609 1.419 . S
C611 C612 1.363 . S
C611 H614 0.929 . S
C612 C611 1.363 . S
C612 C618 1.428 . S
H613 C609 0.930 . S
H614 C611 0.929 . S
S615 N616 1.613 . S
S615 N617 1.610 . S
N616 S615 1.613 . S
N616 C619 1.350 . S
N617 S615 1.610 . S
N617 C618 1.351 . S
C618 C612 1.428 . S
C618 N617 1.351 . S
C618 C619 1.434 . S
C619 C610 1.429 . S
C619 N616 1.350 . S
C619 C618 1.434 . S
C620 C621 1.369 . S
C620 C622 1.419 . S
C620 H624 0.930 . S
C621 C620 1.369 . S
C621 C630 1.429 . S
C622 C620 1.419 . S
C622 C623 1.363 . S
C622 H625 0.929 . S
C623 C622 1.363 . S
C623 C629 1.428 . S
H624 C620 0.930 . S
H625 C622 0.929 . S
S626 N627 1.613 . S
S626 N628 1.610 . S
N627 S626 1.613 . S
N627 C630 1.350 . S
N628 S626 1.610 . S
N628 C629 1.351 . S
C629 C623 1.428 . S
C629 N628 1.351 . S
C629 C630 1.434 . S
C630 C621 1.429 . S
C630 N627 1.350 . S
C630 C629 1.434 . S
C631 C632 1.369 . S
C631 C633 1.419 . S
C631 H635 0.930 . S
C632 C631 1.369 . S
C632 C641 1.429 . S
C633 C631 1.419 . S
C633 C634 1.363 . S
C633 H636 0.929 . S
C634 C633 1.363 . S
C634 C640 1.428 . S
H635 C631 0.930 . S
H636 C633 0.929 . S
S637 N638 1.613 . S
S637 N639 1.610 . S
N638 S637 1.613 . S
N638 C641 1.350 . S
N639 S637 1.610 . S
N639 C640 1.351 . S
C640 C634 1.428 . S
C640 N639 1.351 . S
C640 C641 1.434 . S
C641 C632 1.429 . S
C641 N638 1.350 . S
C641 C640 1.434 . S
C642 C643 1.369 1_554 S
C642 C644 1.419 . S
C642 H646 0.930 . S
C643 C642 1.369 1_556 S
C643 C652 1.429 . S
C644 C642 1.419 . S
C644 C645 1.363 1_554 S
C644 H647 0.929 . S
C645 C644 1.363 1_556 S
C645 C651 1.428 . S
H646 C642 0.930 . S
H647 C644 0.929 . S
S648 N649 1.613 . S
S648 N650 1.610 . S
N649 S648 1.613 . S
N649 C652 1.350 . S
N650 S648 1.610 . S
N650 C651 1.351 . S
C651 C645 1.428 . S
C651 N650 1.351 . S
C651 C652 1.434 . S
C652 C643 1.429 . S
C652 N649 1.350 . S
C652 C651 1.434 . S
C653 C654 1.369 . S
C653 C655 1.419 . S
C653 H657 0.930 . S
C654 C653 1.369 . S
C654 C663 1.429 . S
C655 C653 1.419 . S
C655 C656 1.363 . S
C655 H658 0.929 . S
C656 C655 1.363 . S
C656 C662 1.428 . S
H657 C653 0.930 . S
H658 C655 0.929 . S
S659 N660 1.613 . S
S659 N661 1.610 . S
N660 S659 1.613 . S
N660 C663 1.350 . S
N661 S659 1.610 . S
N661 C662 1.351 . S
C662 C656 1.428 . S
C662 N661 1.351 . S
C662 C663 1.434 . S
C663 C654 1.429 . S
C663 N660 1.350 . S
C663 C662 1.434 . S
C664 C665 1.369 . S
C664 C666 1.419 . S
C664 H668 0.930 . S
C665 C664 1.369 . S
C665 C674 1.429 . S
C666 C664 1.419 . S
C666 C667 1.363 . S
C666 H669 0.929 . S
C667 C666 1.363 . S
C667 C673 1.428 . S
H668 C664 0.930 . S
H669 C666 0.929 . S
S670 N671 1.613 . S
S670 N672 1.610 . S
N671 S670 1.613 . S
N671 C674 1.350 . S
N672 S670 1.610 . S
N672 C673 1.351 . S
C673 C667 1.428 . S
C673 N672 1.351 . S
C673 C674 1.434 . S
C674 C665 1.429 . S
C674 N671 1.350 . S
C674 C673 1.434 . S
C675 C676 1.369 . S
C675 C677 1.419 . S
C675 H679 0.930 . S
C676 C675 1.369 . S
C676 C685 1.429 . S
C677 C675 1.419 . S
C677 C678 1.363 . S
C677 H680 0.929 . S
C678 C677 1.363 . S
C678 C684 1.428 . S
H679 C675 0.930 . S
H680 C677 0.929 . S
S681 N682 1.613 . S
S681 N683 1.610 . S
N682 S681 1.613 . S
N682 C685 1.350 . S
N683 S681 1.610 . S
N683 C684 1.351 . S
C684 C678 1.428 . S
C684 N683 1.351 . S
C684 C685 1.434 . S
C685 C676 1.429 . S
C685 N682 1.350 . S
C685 C684 1.434 . S
C686 C687 1.369 . S
C686 C688 1.419 . S
C686 H690 0.930 . S
C687 C686 1.369 . S
C687 C696 1.429 . S
C688 C686 1.419 . S
C688 C689 1.363 . S
C688 H691 0.929 . S
C689 C688 1.363 . S
C689 C695 1.428 . S
H690 C686 0.930 . S
H691 C688 0.929 . S
S692 N693 1.613 . S
S692 N694 1.610 . S
N693 S692 1.613 . S
N693 C696 1.350 . S
N694 S692 1.610 . S
N694 C695 1.351 . S
C695 C689 1.428 . S
C695 N694 1.351 . S
C695 C696 1.434 . S
C696 C687 1.429 . S
C696 N693 1.350 . S
C696 C695 1.434 . S
C697 C698 1.369 . S
C697 C699 1.419 . S
C697 H701 0.930 . S
C698 C697 1.369 . S
C698 C707 1.429 . S
C699 C697 1.419 . S
C699 C700 1.363 . S
C699 H702 0.929 . S
C700 C699 1.363 . S
C700 C706 1.428 . S
H701 C697 0.930 . S
H702 C699 0.929 . S
S703 N704 1.613 . S
S703 N705 1.610 . S
N704 S703 1.613 . S
N704 C707 1.350 . S
N705 S703 1.610 . S
N705 C706 1.351 . S
C706 C700 1.428 . S
C706 N705 1.351 . S
C706 C707 1.434 . S
C707 C698 1.429 . S
C707 N704 1.350 . S
C707 C706 1.434 . S
C708 C709 1.369 . S
C708 C710 1.419 . S
C708 H712 0.930 . S
C709 C708 1.369 . S
C709 C718 1.429 . S
C710 C708 1.419 . S
C710 C711 1.363 . S
C710 H713 0.929 . S
C711 C710 1.363 . S
C711 C717 1.428 . S
H712 C708 0.930 . S
H713 C710 0.929 . S
S714 N715 1.613 . S
S714 N716 1.610 . S
N715 S714 1.613 . S
N715 C718 1.350 . S
N716 S714 1.610 . S
N716 C717 1.351 . S
C717 C711 1.428 . S
C717 N716 1.351 . S
C717 C718 1.434 . S
C718 C709 1.429 . S
C718 N715 1.350 . S
C718 C717 1.434 . S
C719 C720 1.369 . S
C719 C721 1.419 . S
C719 H723 0.930 . S
C720 C719 1.369 . S
C720 C729 1.429 . S
C721 C719 1.419 . S
C721 C722 1.363 . S
C721 H724 0.929 . S
C722 C721 1.363 . S
C722 C728 1.428 . S
H723 C719 0.930 . S
H724 C721 0.929 . S
S725 N726 1.613 . S
S725 N727 1.610 . S
N726 S725 1.613 . S
N726 C729 1.350 . S
N727 S725 1.610 . S
N727 C728 1.351 . S
C728 C722 1.428 . S
C728 N727 1.351 . S
C728 C729 1.434 . S
C729 C720 1.429 . S
C729 N726 1.350 . S
C729 C728 1.434 . S
C730 C731 1.369 . S
C730 C732 1.419 . S
C730 H734 0.930 . S
C731 C730 1.369 . S
C731 C740 1.429 . S
C732 C730 1.419 . S
C732 C733 1.363 . S
C732 H735 0.929 . S
C733 C732 1.363 . S
C733 C739 1.428 . S
H734 C730 0.930 . S
H735 C732 0.929 . S
S736 N737 1.613 . S
S736 N738 1.610 . S
N737 S736 1.613 . S
N737 C740 1.350 . S
N738 S736 1.610 . S
N738 C739 1.351 . S
C739 C733 1.428 . S
C739 N738 1.351 . S
C739 C740 1.434 . S
C740 C731 1.429 . S
C740 N737 1.350 . S
C740 C739 1.434 . S
C741 C742 1.369 . S
C741 C743 1.419 . S
C741 H745 0.930 . S
C742 C741 1.369 . S
C742 C751 1.429 . S
C743 C741 1.419 . S
C743 C744 1.363 . S
C743 H746 0.929 . S
C744 C743 1.363 . S
C744 C750 1.428 . S
H745 C741 0.930 . S
H746 C743 0.929 . S
S747 N748 1.613 . S
S747 N749 1.610 . S
N748 S747 1.613 . S
N748 C751 1.350 . S
N749 S747 1.610 . S
N749 C750 1.351 . S
C750 C744 1.428 . S
C750 N749 1.351 . S
C750 C751 1.434 . S
C751 C742 1.429 . S
C751 N748 1.350 . S
C751 C750 1.434 . S
C752 C753 1.369 . S
C752 C754 1.419 . S
C752 H756 0.930 . S
C753 C752 1.369 . S
C753 C762 1.429 . S
C754 C752 1.419 . S
C754 C755 1.363 . S
C754 H757 0.929 . S
C755 C754 1.363 . S
C755 C761 1.428 . S
H756 C752 0.930 . S
H757 C754 0.929 . S
S758 N759 1.613 . S
S758 N760 1.610 . S
N759 S758 1.613 . S
N759 C762 1.350 . S
N760 S758 1.610 . S
N760 C761 1.351 . S
C761 C755 1.428 . S
C761 N760 1.351 . S
C761 C762 1.434 . S
C762 C753 1.429 . S
C762 N759 1.350 . S
C762 C761 1.434 . S
C763 C764 1.369 . S
C763 C765 1.419 . S
C763 H767 0.930 . S
C764 C763 1.369 . S
C764 C773 1.429 . S
C765 C763 1.419 . S
C765 C766 1.363 . S
C765 H768 0.929 . S
C766 C765 1.363 . S
C766 C772 1.428 . S
H767 C763 0.930 . S
H768 C765 0.929 . S
S769 N770 1.613 . S
S769 N771 1.610 . S
N770 S769 1.613 . S
N770 C773 1.350 . S
N771 S769 1.610 . S
N771 C772 1.351 . S
C772 C766 1.428 . S
C772 N771 1.351 . S
C772 C773 1.434 . S
C773 C764 1.429 . S
C773 N770 1.350 . S
C773 C772 1.434 . S
C774 C775 1.369 . S
C774 C776 1.419 . S
C774 H778 0.930 . S
C775 C774 1.369 . S
C775 C784 1.429 . S
C776 C774 1.419 . S
C776 C777 1.363 . S
C776 H779 0.929 . S
C777 C776 1.363 . S
C777 C783 1.428 . S
H778 C774 0.930 . S
H779 C776 0.929 . S
S780 N781 1.613 . S
S780 N782 1.610 . S
N781 S780 1.613 . S
N781 C784 1.350 . S
N782 S780 1.610 . S
N782 C783 1.351 . S
C783 C777 1.428 . S
C783 N782 1.351 . S
C783 C784 1.434 . S
C784 C775 1.429 . S
C784 N781 1.350 . S
C784 C783 1.434 . S
C785 C786 1.369 . S
C785 C787 1.419 . S
C785 H789 0.930 . S
C786 C785 1.369 . S
C786 C795 1.429 . S
C787 C785 1.419 . S
C787 C788 1.363 . S
C787 H790 0.929 . S
C788 C787 1.363 . S
C788 C794 1.428 . S
H789 C785 0.930 . S
H790 C787 0.929 . S
S791 N792 1.613 . S
S791 N793 1.610 . S
N792 S791 1.613 . S
N792 C795 1.350 . S
N793 S791 1.610 . S
N793 C794 1.351 . S
C794 C788 1.428 . S
C794 N793 1.351 . S
C794 C795 1.434 . S
C795 C786 1.429 . S
C795 N792 1.350 . S
C795 C794 1.434 . S
C796 C797 1.369 . S
C796 C798 1.419 . S
C796 H800 0.930 . S
C797 C796 1.369 . S
C797 C806 1.429 . S
C798 C796 1.419 . S
C798 C799 1.363 . S
C798 H801 0.929 . S
C799 C798 1.363 . S
C799 C805 1.428 . S
H800 C796 0.930 . S
H801 C798 0.929 . S
S802 N803 1.613 . S
S802 N804 1.610 . S
N803 S802 1.613 . S
N803 C806 1.350 . S
N804 S802 1.610 . S
N804 C805 1.351 . S
C805 C799 1.428 . S
C805 N804 1.351 . S
C805 C806 1.434 . S
C806 C797 1.429 . S
C806 N803 1.350 . S
C806 C805 1.434 . S
C807 C808 1.369 . S
C807 C809 1.419 . S
C807 H811 0.930 . S
C808 C807 1.369 . S
C808 C817 1.429 . S
C809 C807 1.419 . S
C809 C810 1.363 . S
C809 H812 0.929 . S
C810 C809 1.363 . S
C810 C816 1.428 . S
H811 C807 0.930 . S
H812 C809 0.929 . S
S813 N814 1.613 . S
S813 N815 1.610 . S
N814 S813 1.613 . S
N814 C817 1.350 . S
N815 S813 1.610 . S
N815 C816 1.351 . S
C816 C810 1.428 . S
C816 N815 1.351 . S
C816 C817 1.434 . S
C817 C808 1.429 . S
C817 N814 1.350 . S
C817 C816 1.434 . S
C818 C819 1.369 . S
C818 C820 1.419 . S
C818 H822 0.930 . S
C819 C818 1.369 . S
C819 C828 1.429 . S
C820 C818 1.419 . S
C820 C821 1.363 . S
C820 H823 0.929 . S
C821 C820 1.363 . S
C821 C827 1.428 . S
H822 C818 0.930 . S
H823 C820 0.929 . S
S824 N825 1.613 . S
S824 N826 1.610 . S
N825 S824 1.613 . S
N825 C828 1.350 . S
N826 S824 1.610 . S
N826 C827 1.351 . S
C827 C821 1.428 . S
C827 N826 1.351 . S
C827 C828 1.434 . S
C828 C819 1.429 . S
C828 N825 1.350 . S
C828 C827 1.434 . S
C829 C830 1.369 . S
C829 C831 1.419 . S
C829 H833 0.930 . S
C830 C829 1.369 . S
C830 C839 1.429 . S
C831 C829 1.419 . S
C831 C832 1.363 . S
C831 H834 0.929 . S
C832 C831 1.363 . S
C832 C838 1.428 . S
H833 C829 0.930 . S
H834 C831 0.929 . S
S835 N836 1.613 . S
S835 N837 1.610 . S
N836 S835 1.613 . S
N836 C839 1.350 . S
N837 S835 1.610 . S
N837 C838 1.351 . S
C838 C832 1.428 . S
C838 N837 1.351 . S
C838 C839 1.434 . S
C839 C830 1.429 . S
C839 N836 1.350 . S
C839 C838 1.434 . S
C491 C397 1.418 . S
C489 C36 1.474 . S
C502 C415 1.452 . S
C500 C93 1.496 . S
C513 C423 1.422 . S
C511 C126 1.482 . S
C522 C165 1.471 . S
C524 C389 1.444 . S
C533 C222 1.487 . S
C535 C384 1.428 . S
C544 C261 1.471 . S
C546 C402 1.454 . S
C557 C410 1.418 . S
C555 C318 1.490 . S
C568 C428 1.449 . S
C566 C381 1.488 . S
C577 C132 1.467 . S
C579 C449 1.425 . S
C590 C467 1.446 . S
C588 C189 1.494 . S
C599 C30 1.483 . S
C601 C475 1.419 . S
C612 C441 1.454 . S
C610 C69 1.472 . S
C621 C324 1.469 . S
C623 C436 1.418 . S
C632 C357 1.477 . S
C634 C454 1.451 . S
C645 C462 1.419 . S
C643 C228 1.465 . S
C654 C285 1.494 . S
C656 C480 1.446 . S
C667 C418 1.610 . S
C665 C45 1.578 . S
C678 C433 1.563 . S
C676 C84 1.586 . S
C687 C117 1.569 . S
C689 C392 1.610 . S
C698 C174 1.537 . S
C700 C407 1.568 . S
C709 C213 1.574 . S
C711 C431 1.611 . S
C722 C394 1.569 . S
C720 C270 1.537 . S
C733 C405 1.611 . S
C731 C309 1.571 . S
C744 C420 1.563 . S
C742 C372 1.584 . S
C755 C470 1.611 . S
C753 C141 1.577 . S
C766 C485 1.566 . S
C764 C180 1.581 . S
C775 C21 1.568 . S
C777 C444 1.609 . S
C788 C459 1.568 . S
C786 C78 1.540 . S
C799 C483 1.610 . S
C797 C333 1.576 . S
C808 C366 1.541 . S
C810 C446 1.567 . S
C821 C457 1.610 . S
C819 C237 1.576 . S
C832 C472 1.566 . S
C830 C276 1.580 . S
