# Generated by pormake.
# Topology pth, (4,4)-cn, num edge types: 1
# Building blocks:
#     Node 0, Type 0, BuildingBlock: TATPOV_clean_sbu_0, # of connection points: 4
#     Node 1, Type 0, BuildingBlock: TATPOV_clean_sbu_0, # of connection points: 4
#     Node 2, Type 0, BuildingBlock: TATPOV_clean_sbu_0, # of connection points: 4
#     Node 3, Type 1, BuildingBlock: NAHDIM_clean_linker_0, # of connection points: 4
#     Node 4, Type 1, BuildingBlock: NAHDIM_clean_linker_0, # of connection points: 4
#     Node 5, Type 1, BuildingBlock: NAHDIM_clean_linker_0, # of connection points: 4
#     Edge 6, Type (0, 1), BuildingBlock: TEMPAE_clean_linker_10, # of connection points: 2
#     Edge 7, Type (0, 1), BuildingBlock: TEMPAE_clean_linker_10, # of connection points: 2
#     Edge 8, Type (0, 1), BuildingBlock: TEMPAE_clean_linker_10, # of connection points: 2
#     Edge 9, Type (0, 1), BuildingBlock: TEMPAE_clean_linker_10, # of connection points: 2
#     Edge 10, Type (0, 1), BuildingBlock: TEMPAE_clean_linker_10, # of connection points: 2
#     Edge 11, Type (0, 1), BuildingBlock: TEMPAE_clean_linker_10, # of connection points: 2
#     Edge 12, Type (0, 1), BuildingBlock: TEMPAE_clean_linker_10, # of connection points: 2
#     Edge 13, Type (0, 1), BuildingBlock: TEMPAE_clean_linker_10, # of connection points: 2
#     Edge 14, Type (0, 1), BuildingBlock: TEMPAE_clean_linker_10, # of connection points: 2
#     Edge 15, Type (0, 1), BuildingBlock: TEMPAE_clean_linker_10, # of connection points: 2
#     Edge 16, Type (0, 1), BuildingBlock: TEMPAE_clean_linker_10, # of connection points: 2
#     Edge 17, Type (0, 1), BuildingBlock: TEMPAE_clean_linker_10, # of connection points: 2
# Relax obj value: 0.054
# Max RMSD: 0.173
# Mean RMSD: 0.111
data_MOF--net-pth--node1-TATPOV_clean_sbu_0--node2-NAHDIM_clean_linker_0--edge1-TEMPAE_clean_linker_10
_symmetry_space_group_name_H-M    P1
_symmetry_Int_Tables_number       1
_symmetry_cell_setting            triclinic
loop_
_symmetry_equiv_pos_as_xyz
'x, y, z'
_cell_length_a     32.207256
_cell_length_b     31.846552
_cell_length_c     79.538389
_cell_angle_alpha  92.059087
_cell_angle_beta   92.626044
_cell_angle_gamma 121.15551
loop_
_atom_site_label
_atom_site_type_symbol
_atom_site_fract_x
_atom_site_fract_y
_atom_site_fract_z
_atom_type_partial_charge
Zn0 Zn 0.17668 0.04605 0.04658 0.0
Zn1 Zn 0.1167 0.07527 0.05845 0.0
O2 O 0.13303 0.04417 0.07743 0.0
O3 O 0.18334 0.02157 0.06941 0.0
O4 O 0.08543 0.10589 0.07121 0.0
O5 O 0.22368 0.11541 0.0395 0.0
O6 O 0.1706 0.13399 0.04774 0.0
C7 C 0.158 0.02451 0.08059 0.0
C8 C 0.07454 0.99573 0.03075 0.0
O9 O 0.06745 0.02289 0.04093 0.0
O10 O 0.11598 0.99983 0.03089 0.0
C11 C 0.07454 0.13621 0.06569 0.0
O12 O 0.07825 0.14536 0.04968 0.0
C13 C 0.2099 0.14605 0.04094 0.0
Zn14 Zn 0.13949 0.11668 0.37268 0.0
Zn15 Zn 0.06015 0.10628 0.38621 0.0
O16 O 0.10631 0.1146 0.40668 0.0
O17 O 0.173 0.12721 0.39571 0.0
O18 O 0.00307 0.10344 0.39687 0.0
O19 O 0.14769 0.17396 0.36019 0.0
O20 O 0.08276 0.16527 0.37141 0.0
C21 C 0.14952 0.12287 0.40852 0.0
C22 C 0.05163 0.02189 0.36389 0.0
O23 O 0.03132 0.03964 0.37263 0.0
O24 O 0.09693 0.04736 0.36218 0.0
C25 C 0.98549 0.08037 0.40993 0.0
O26 O 0.00405 0.05595 0.41662 0.0
C27 C 0.11742 0.18759 0.36185 0.0
Zn28 Zn 0.0737 0.98443 0.75653 0.0
Zn29 Zn 0.01826 0.99488 0.73249 0.0
O30 O 0.06648 0.98551 0.71901 0.0
O31 O 0.11415 0.98088 0.73861 0.0
O32 O 0.97612 0.00169 0.71435 0.0
O33 O 0.01482 0.9221 0.76276 0.0
O34 O 0.96878 0.93427 0.74463 0.0
C35 C 0.10304 0.98174 0.7232 0.0
C36 C 0.08063 0.07817 0.75986 0.0
O37 O 0.05233 0.06138 0.7464 0.0
O38 O 0.09323 0.0514 0.76721 0.0
C39 C 0.99339 0.02169 0.70076 0.0
O40 O 0.03966 0.03931 0.69871 0.0
C41 C 0.97331 0.90923 0.75594 0.0
C42 C 0.84866 0.67829 0.28551 0.0
C43 C 0.89651 0.69743 0.29631 0.0
C44 C 0.95171 0.68294 0.27991 0.0
C45 C 0.99789 0.70721 0.2738 0.0
C46 C 0.01724 0.68099 0.26645 0.0
C47 C 0.98867 0.62901 0.26456 0.0
C48 C 0.94225 0.60403 0.27106 0.0
C49 C 0.92441 0.63126 0.27885 0.0
C50 C 0.06767 0.709 0.2603 0.0
C51 C 0.91094 0.54864 0.26931 0.0
C52 C 0.20164 0.45493 0.27548 0.0
C53 C 0.15173 0.4393 0.28169 0.0
C54 C 0.12458 0.49763 0.28104 0.0
C55 C 0.07507 0.46597 0.27603 0.0
C56 C 0.04803 0.48395 0.26814 0.0
C57 C 0.07138 0.53439 0.26501 0.0
C58 C 0.12081 0.56666 0.27075 0.0
C59 C 0.14658 0.54785 0.27895 0.0
C60 C 0.99491 0.44895 0.26282 0.0
C61 C 0.14678 0.62078 0.26783 0.0
C62 C 0.06354 0.44157 0.1564 0.0
C63 C 0.01686 0.42496 0.16171 0.0
C64 C 0.00642 0.45732 0.17026 0.0
C65 C 0.04333 0.50739 0.17345 0.0
C66 C 0.0898 0.52471 0.16746 0.0
C67 C 0.09917 0.49151 0.15886 0.0
C68 C 0.95599 0.43792 0.17601 0.0
C69 C 0.12974 0.57798 0.17049 0.0
C70 C 0.94243 0.79414 0.16748 0.0
C71 C 0.98194 0.78212 0.16468 0.0
C72 C 0.97343 0.70136 0.16223 0.0
C73 C 0.93801 0.65125 0.16078 0.0
C74 C 0.94822 0.61638 0.1668 0.0
C75 C 0.99528 0.6323 0.17415 0.0
C76 C 0.03233 0.68253 0.17438 0.0
C77 C 0.021 0.71658 0.16844 0.0
C78 C 0.90818 0.56301 0.16616 0.0
C79 C 0.08339 0.70058 0.18163 0.0
C80 C 0.00596 0.60114 0.25476 0.0
C81 C 0.02685 0.57852 0.26355 0.0
C82 C 0.04524 0.55321 0.25497 0.0
C83 C 0.04174 0.5492 0.2371 0.0
C84 C 0.05873 0.52299 0.22803 0.0
C85 C 0.05517 0.51942 0.21046 0.0
C86 C 0.03616 0.54345 0.20129 0.0
C87 C 0.03324 0.54099 0.18343 0.0
C88 C 0.01867 0.56928 0.17478 0.0
C89 C 0.0046 0.59821 0.18352 0.0
C90 C 0.00272 0.59724 0.20123 0.0
C91 C 0.98449 0.62235 0.21022 0.0
C92 C 0.98407 0.62236 0.22768 0.0
C93 C 0.00355 0.59883 0.23691 0.0
C94 C 0.02145 0.57271 0.22808 0.0
C95 C 0.01991 0.57094 0.21019 0.0
C96 C 0.10015 0.36956 0.16745 0.0
C97 C 0.06231 0.36441 0.15382 0.0
O98 O 0.93469 0.71099 0.28614 0.0
O99 O 0.96024 0.73397 0.15795 0.0
O100 O 0.0751 0.41055 0.14871 0.0
O101 O 0.15207 0.48075 0.28786 0.0
H102 H 0.89254 0.66779 0.30433 0.0
H103 H 0.83895 0.64411 0.27793 0.0
H104 H 0.85167 0.70579 0.27667 0.0
H105 H 0.81865 0.66973 0.29373 0.0
H106 H 0.01882 0.74708 0.27478 0.0
H107 H 0.88872 0.61194 0.28362 0.0
H108 H 0.08851 0.69128 0.26382 0.0
H109 H 0.08831 0.7479 0.26552 0.0
H110 H 0.06492 0.70875 0.24633 0.0
H111 H 0.87495 0.53478 0.27447 0.0
H112 H 0.92986 0.5326 0.27606 0.0
H113 H 0.90511 0.53545 0.2558 0.0
H114 H 0.12479 0.42088 0.27059 0.0
H115 H 0.23065 0.47423 0.2859 0.0
H116 H 0.20959 0.48029 0.26524 0.0
H117 H 0.20223 0.42229 0.2704 0.0
H118 H 0.05767 0.42728 0.27825 0.0
H119 H 0.18464 0.57198 0.28316 0.0
H120 H 0.97302 0.46475 0.26694 0.0
H121 H 0.98069 0.41253 0.26809 0.0
H122 H 0.9899 0.44344 0.24885 0.0
H123 H 0.18594 0.64039 0.27229 0.0
H124 H 0.12935 0.63805 0.27459 0.0
H125 H 0.14367 0.62578 0.25418 0.0
H126 H 0.0267 0.34676 0.15949 0.0
H127 H 0.98826 0.38691 0.15906 0.0
H128 H 0.13483 0.50415 0.15442 0.0
H129 H 0.9578 0.44077 0.19001 0.0
H130 H 0.93037 0.39891 0.17148 0.0
H131 H 0.94128 0.46054 0.17142 0.0
H132 H 0.16423 0.58547 0.16532 0.0
H133 H 0.13665 0.58856 0.18424 0.0
H134 H 0.11807 0.60159 0.16453 0.0
H135 H 0.00029 0.78627 0.17738 0.0
H136 H 0.95903 0.83269 0.1728 0.0
H137 H 0.9173 0.76926 0.17655 0.0
H138 H 0.92089 0.78919 0.15546 0.0
H139 H 0.90164 0.63978 0.15566 0.0
H140 H 0.04916 0.75512 0.16896 0.0
H141 H 0.9002 0.55139 0.1792 0.0
H142 H 0.92022 0.5398 0.1599 0.0
H143 H 0.87418 0.55615 0.15929 0.0
H144 H 0.10942 0.73907 0.1787 0.0
H145 H 0.09621 0.67654 0.17666 0.0
H146 H 0.08355 0.69895 0.19555 0.0
H147 H 0.02986 0.58162 0.27724 0.0
H148 H 0.07466 0.50459 0.23439 0.0
H149 H 0.06847 0.49844 0.20416 0.0
H150 H 0.01847 0.56893 0.16113 0.0
H151 H 0.9699 0.64195 0.20385 0.0
H152 H 0.96906 0.64188 0.23384 0.0
H153 H 0.13711 0.38833 0.16275 0.0
H154 H 0.09091 0.33276 0.17141 0.0
H155 H 0.10068 0.39164 0.17868 0.0
C156 C 0.41233 0.06425 0.66516 0.0
C157 C 0.37548 0.05607 0.65055 0.0
C158 C 0.40533 0.02654 0.6278 0.0
C159 C 0.44619 0.07255 0.62504 0.0
C160 C 0.48042 0.07628 0.61396 0.0
C161 C 0.47394 0.03322 0.60553 0.0
C162 C 0.43292 0.98689 0.60824 0.0
C163 C 0.39894 0.98426 0.61925 0.0
C164 C 0.52342 0.12635 0.61115 0.0
C165 C 0.42489 0.94026 0.59942 0.0
C166 C 0.78697 0.00534 0.63727 0.0
C167 C 0.7481 0.99755 0.62442 0.0
C168 C 0.7037 0.03709 0.615 0.0
C169 C 0.66895 0.99733 0.60404 0.0
C170 C 0.63123 0.99934 0.59526 0.0
C171 C 0.62924 0.04268 0.59695 0.0
C172 C 0.66555 0.08358 0.60734 0.0
C173 C 0.70193 0.07996 0.61636 0.0
C174 C 0.59266 0.95449 0.58461 0.0
C175 C 0.66526 0.13073 0.60931 0.0
C176 C 0.66566 0.08002 0.48396 0.0
C177 C 0.62935 0.0328 0.48755 0.0
C178 C 0.59476 0.0256 0.49903 0.0
C179 C 0.59661 0.06686 0.50714 0.0
C180 C 0.63326 0.11483 0.50363 0.0
C181 C 0.66748 0.12099 0.49212 0.0
C182 C 0.55613 0.97393 0.50248 0.0
C183 C 0.63613 0.15959 0.51205 0.0
C184 C 0.23244 0.01241 0.52371 0.0
C185 C 0.27501 0.0427 0.51297 0.0
C186 C 0.33961 0.02432 0.50923 0.0
C187 C 0.34729 0.985 0.50894 0.0
C188 C 0.39392 0.99272 0.51238 0.0
C189 C 0.43386 0.04118 0.51607 0.0
C190 C 0.42698 0.08146 0.51501 0.0
C191 C 0.37986 0.07267 0.5115 0.0
C192 C 0.40008 0.94894 0.51299 0.0
C193 C 0.46908 0.13361 0.51843 0.0
C194 C 0.50936 0.03705 0.59346 0.0
C195 C 0.55099 0.0379 0.59976 0.0
C196 C 0.58686 0.04362 0.58918 0.0
C197 C 0.58123 0.04895 0.57175 0.0
C198 C 0.61713 0.05645 0.56078 0.0
C199 C 0.61048 0.06034 0.54358 0.0
C200 C 0.56772 0.057 0.53671 0.0
C201 C 0.56003 0.05987 0.51922 0.0
C202 C 0.5166 0.0555 0.51282 0.0
C203 C 0.48067 0.04886 0.52348 0.0
C204 C 0.48823 0.04709 0.54103 0.0
C205 C 0.45323 0.04162 0.55213 0.0
C206 C 0.46036 0.03895 0.5693 0.0
C207 C 0.50243 0.04086 0.57606 0.0
C208 C 0.53846 0.0468 0.56516 0.0
C209 C 0.53156 0.05047 0.54763 0.0
C210 C 0.71592 0.14742 0.4536 0.0
C211 C 0.73548 0.12676 0.46682 0.0
O212 O 0.37151 0.02115 0.63859 0.0
O213 O 0.29295 0.01377 0.50738 0.0
O214 O 0.69758 0.08403 0.47253 0.0
O215 O 0.73864 0.03539 0.62472 0.0
H216 H 0.38744 0.0913 0.64463 0.0
H217 H 0.44892 0.07799 0.66057 0.0
H218 H 0.40081 0.02926 0.67118 0.0
H219 H 0.41549 0.09204 0.67482 0.0
H220 H 0.45176 0.10582 0.6314 0.0
H221 H 0.36732 0.94897 0.62139 0.0
H222 H 0.55767 0.1278 0.6151 0.0
H223 H 0.52259 0.1565 0.6183 0.0
H224 H 0.52411 0.13281 0.59751 0.0
H225 H 0.39274 0.90686 0.60363 0.0
H226 H 0.45758 0.93742 0.60178 0.0
H227 H 0.41947 0.94134 0.58559 0.0
H228 H 0.71475 0.96016 0.624 0.0
H229 H 0.76827 0.97462 0.6459 0.0
H230 H 0.79173 0.03485 0.64679 0.0
H231 H 0.8429 0.01325 0.6228 0.0
H232 H 0.6702 0.96414 0.60253 0.0
H233 H 0.72905 0.11063 0.62471 0.0
H234 H 0.59559 0.96239 0.5711 0.0
H235 H 0.55582 0.94513 0.58791 0.0
H236 H 0.59619 0.92194 0.58621 0.0
H237 H 0.70071 0.16181 0.61492 0.0
H238 H 0.63663 0.12546 0.61773 0.0
H239 H 0.65671 0.14067 0.59693 0.0
H240 H 0.75477 0.15471 0.4776 0.0
H241 H 0.62812 0.00139 0.48124 0.0
H242 H 0.69518 0.15791 0.48957 0.0
H243 H 0.55796 0.9688 0.51617 0.0
H244 H 0.56009 0.9457 0.49535 0.0
H245 H 0.51958 0.96791 0.49897 0.0
H246 H 0.66664 0.19449 0.50793 0.0
H247 H 0.64091 0.15933 0.52595 0.0
H248 H 0.60153 0.15852 0.50914 0.0
H249 H 0.3028 0.07476 0.52134 0.0
H250 H 0.21727 0.03474 0.52833 0.0
H251 H 0.24518 0.00079 0.53483 0.0
H252 H 0.20314 0.97894 0.51632 0.0
H253 H 0.31617 0.94791 0.50673 0.0
H254 H 0.37472 0.10357 0.51078 0.0
H255 H 0.40925 0.94495 0.52624 0.0
H256 H 0.43064 0.95467 0.5055 0.0
H257 H 0.36659 0.91421 0.5081 0.0
H258 H 0.45877 0.16103 0.5155 0.0
H259 H 0.49962 0.13983 0.51083 0.0
H260 H 0.48242 0.13974 0.53194 0.0
H261 H 0.55559 0.03419 0.61312 0.0
H262 H 0.65067 0.05918 0.56537 0.0
H263 H 0.63918 0.06571 0.53571 0.0
H264 H 0.51052 0.05681 0.49937 0.0
H265 H 0.41982 0.0394 0.54771 0.0
H266 H 0.43213 0.03482 0.57719 0.0
H267 H 0.69578 0.11989 0.44279 0.0
H268 H 0.74641 0.18124 0.44886 0.0
H269 H 0.69079 0.15717 0.45917 0.0
C270 C 0.72211 0.54899 0.7838 0.0
C271 C 0.71071 0.58432 0.79313 0.0
C272 C 0.68137 0.57283 0.8212 0.0
C273 C 0.65963 0.60119 0.82125 0.0
C274 C 0.62418 0.59288 0.83249 0.0
C275 C 0.6093 0.55442 0.84354 0.0
C276 C 0.63162 0.52597 0.84352 0.0
C277 C 0.66842 0.53661 0.83264 0.0
C278 C 0.60227 0.62485 0.83239 0.0
C279 C 0.6159 0.48346 0.85459 0.0
C280 C 0.27064 0.35173 0.79158 0.0
C281 C 0.31181 0.40338 0.79473 0.0
C282 C 0.35007 0.441 0.82241 0.0
C283 C 0.37072 0.4126 0.82601 0.0
C284 C 0.41135 0.43075 0.83764 0.0
C285 C 0.43237 0.47876 0.84549 0.0
C286 C 0.41037 0.50669 0.8423 0.0
C287 C 0.3687 0.48682 0.83106 0.0
C288 C 0.43279 0.39926 0.84108 0.0
C289 C 0.43222 0.55845 0.85005 0.0
C290 C 0.38311 0.47853 0.95755 0.0
C291 C 0.39546 0.44562 0.95063 0.0
C292 C 0.43553 0.46231 0.9408 0.0
C293 C 0.46278 0.51265 0.93744 0.0
C294 C 0.45061 0.54589 0.9446 0.0
C295 C 0.41139 0.52842 0.95483 0.0
C296 C 0.44879 0.42617 0.93407 0.0
C297 C 0.47878 0.59981 0.94138 0.0
C298 C 0.8532 0.7038 0.94231 0.0
C299 C 0.82173 0.72171 0.94983 0.0
C300 C 0.73637 0.65785 0.95006 0.0
C301 C 0.71038 0.60654 0.9495 0.0
C302 C 0.66307 0.57897 0.94168 0.0
C303 C 0.6411 0.60366 0.93464 0.0
C304 C 0.66633 0.6557 0.93604 0.0
C305 C 0.71385 0.6823 0.94371 0.0
C306 C 0.63697 0.52356 0.94058 0.0
C307 C 0.64329 0.68315 0.92923 0.0
C308 C 0.56816 0.54164 0.85421 0.0
C309 C 0.52134 0.51771 0.84618 0.0
C310 C 0.48032 0.50185 0.85531 0.0
C311 C 0.48585 0.50887 0.87312 0.0
C312 C 0.44537 0.49158 0.88281 0.0
C313 C 0.45132 0.49904 0.90033 0.0
C314 C 0.49796 0.52357 0.90885 0.0
C315 C 0.50445 0.53079 0.92667 0.0
C316 C 0.5514 0.55644 0.93466 0.0
C317 C 0.59237 0.57519 0.92537 0.0
C318 C 0.58667 0.56743 0.90758 0.0
C319 C 0.62718 0.58503 0.89787 0.0
C320 C 0.62124 0.57714 0.88039 0.0
C321 C 0.57459 0.55103 0.87194 0.0
C322 C 0.53323 0.53384 0.88144 0.0
C323 C 0.53928 0.54157 0.89931 0.0
C324 C 0.25925 0.42677 0.96793 0.0
C325 C 0.30113 0.41864 0.96477 0.0
O326 O 0.71506 0.57968 0.81028 0.0
O327 O 0.78295 0.68283 0.9569 0.0
O328 O 0.34448 0.46354 0.96702 0.0
O329 O 0.31352 0.42595 0.8102 0.0
H330 H 0.67254 0.57298 0.78901 0.0
H331 H 0.69766 0.51095 0.7875 0.0
H332 H 0.76041 0.55957 0.78701 0.0
H333 H 0.71629 0.549 0.76992 0.0
H334 H 0.67066 0.63 0.81258 0.0
H335 H 0.68588 0.51525 0.83253 0.0
H336 H 0.56505 0.60373 0.82603 0.0
H337 H 0.62407 0.65856 0.82559 0.0
H338 H 0.59928 0.63579 0.84549 0.0
H339 H 0.63004 0.45961 0.85069 0.0
H340 H 0.57559 0.46056 0.85425 0.0
H341 H 0.62988 0.49784 0.86783 0.0
H342 H 0.34823 0.41126 0.79119 0.0
H343 H 0.22846 0.35556 0.77153 0.0
H344 H 0.25623 0.33882 0.80422 0.0
H345 H 0.28839 0.32931 0.79053 0.0
H346 H 0.35541 0.37651 0.81957 0.0
H347 H 0.35212 0.50819 0.82824 0.0
H348 H 0.44278 0.40155 0.85478 0.0
H349 H 0.46647 0.41294 0.83437 0.0
H350 H 0.40721 0.3601 0.83671 0.0
H351 H 0.41318 0.57672 0.84508 0.0
H352 H 0.47125 0.58095 0.84755 0.0
H353 H 0.43015 0.55776 0.86393 0.0
H354 H 0.29531 0.40368 0.95141 0.0
H355 H 0.37433 0.4071 0.95309 0.0
H356 H 0.40176 0.55351 0.9604 0.0
H357 H 0.44007 0.41951 0.92022 0.0
H358 H 0.4287 0.39031 0.93985 0.0
H359 H 0.48846 0.44142 0.93648 0.0
H360 H 0.46085 0.61939 0.94602 0.0
H361 H 0.48298 0.60443 0.92766 0.0
H362 H 0.51577 0.61743 0.94787 0.0
H363 H 0.80872 0.73513 0.93929 0.0
H364 H 0.88449 0.73432 0.9365 0.0
H365 H 0.83123 0.67381 0.93236 0.0
H366 H 0.86717 0.68944 0.95219 0.0
H367 H 0.72792 0.58814 0.95474 0.0
H368 H 0.73333 0.72212 0.94481 0.0
H369 H 0.62652 0.50917 0.92717 0.0
H370 H 0.60298 0.50845 0.94719 0.0
H371 H 0.65963 0.50998 0.94626 0.0
H372 H 0.66585 0.7233 0.93271 0.0
H373 H 0.60683 0.66863 0.93407 0.0
H374 H 0.63811 0.67736 0.91526 0.0
H375 H 0.51672 0.51115 0.83255 0.0
H376 H 0.40864 0.47205 0.87692 0.0
H377 H 0.41883 0.4852 0.90711 0.0
H378 H 0.55615 0.56226 0.94832 0.0
H379 H 0.66399 0.605 0.90368 0.0
H380 H 0.65372 0.59171 0.87356 0.0
H381 H 0.22375 0.39158 0.96575 0.0
H382 H 0.25945 0.45318 0.95913 0.0
H383 H 0.26295 0.44195 0.98109 0.0
C384 C 0.04546 0.19396 0.07239 0.0
C385 C 0.06581 0.16664 0.07785 0.0
C386 C 0.04083 0.22585 0.08379 0.0
C387 C 0.05807 0.23134 0.10092 0.0
C388 C 0.0781 0.20338 0.1065 0.0
C389 C 0.08119 0.17101 0.09496 0.0
C390 C 0.01823 0.25423 0.07749 0.0
C391 C 0.09766 0.20873 0.12459 0.0
C392 C 0.09721 0.34783 0.12826 0.0
C393 C 0.05892 0.33168 0.13887 0.0
C394 C 0.09654 0.31607 0.1154 0.0
C395 C 0.0565 0.26708 0.11305 0.0
C396 C 0.01693 0.25116 0.12331 0.0
C397 C 0.01879 0.28354 0.13617 0.0
C398 C 0.13966 0.33429 0.10484 0.0
C399 C 0.97344 0.19936 0.12112 0.0
H400 H 0.0334 0.19061 0.0592 0.0
H401 H 0.09738 0.15038 0.09927 0.0
H402 H 0.98824 0.24831 0.08532 0.0
H403 H 0.04576 0.29419 0.07866 0.0
H404 H 0.00365 0.24336 0.0641 0.0
H405 H 0.11176 0.184 0.12692 0.0
H406 H 0.12756 0.24726 0.12784 0.0
H407 H 0.06873 0.20049 0.13325 0.0
H408 H 0.12835 0.38495 0.13037 0.0
H409 H 0.98921 0.27083 0.14438 0.0
H410 H 0.12744 0.3273 0.09122 0.0
H411 H 0.15837 0.31386 0.1074 0.0
H412 H 0.16634 0.37423 0.1075 0.0
H413 H 0.95925 0.18974 0.10768 0.0
H414 H 0.94362 0.19432 0.1289 0.0
H415 H 0.9845 0.17307 0.1248 0.0
C416 C 0.92636 0.10913 0.41078 0.0
C417 C 0.94626 0.08319 0.41799 0.0
C418 C 0.89083 0.11406 0.41866 0.0
C419 C 0.8748 0.09263 0.43415 0.0
C420 C 0.89408 0.06567 0.44135 0.0
C421 C 0.92953 0.06123 0.43318 0.0
C422 C 0.87105 0.14295 0.41054 0.0
C423 C 0.87791 0.04232 0.45786 0.0
C424 C 0.82162 0.14906 0.46235 0.0
C425 C 0.77147 0.11594 0.45912 0.0
C426 C 0.8556 0.14139 0.45454 0.0
C427 C 0.83905 0.09987 0.44307 0.0
C428 C 0.78847 0.06617 0.43978 0.0
C429 C 0.75528 0.07469 0.44781 0.0
C430 C 0.90922 0.1782 0.45837 0.0
C431 C 0.76941 0.02164 0.42756 0.0
H432 H 0.93893 0.12612 0.39903 0.0
H433 H 0.94463 0.0411 0.43886 0.0
H434 H 0.83081 0.12007 0.40862 0.0
H435 H 0.88008 0.1755 0.41899 0.0
H436 H 0.88598 0.15578 0.39817 0.0
H437 H 0.89515 0.02113 0.4615 0.0
H438 H 0.88725 0.07121 0.46805 0.0
H439 H 0.83781 0.01727 0.457 0.0
H440 H 0.83428 0.18136 0.47088 0.0
H441 H 0.71654 0.04943 0.44508 0.0
H442 H 0.92578 0.19555 0.44669 0.0
H443 H 0.92798 0.15932 0.46295 0.0
H444 H 0.91612 0.20763 0.46802 0.0
H445 H 0.78092 0.0335 0.41478 0.0
H446 H 0.72909 0.99813 0.42683 0.0
H447 H 0.78503 0.99917 0.43136 0.0
C448 C 0.93354 0.82098 0.76118 0.0
C449 C 0.9308 0.86334 0.76061 0.0
C450 C 0.89463 0.77703 0.76621 0.0
C451 C 0.85269 0.77601 0.77144 0.0
C452 C 0.84975 0.81885 0.7709 0.0
C453 C 0.88866 0.86196 0.76517 0.0
C454 C 0.89861 0.73178 0.76604 0.0
C455 C 0.80631 0.81956 0.77689 0.0
C456 C 0.74007 0.64889 0.77195 0.0
C457 C 0.74458 0.63667 0.78844 0.0
C458 C 0.77401 0.6948 0.76637 0.0
C459 C 0.81265 0.73004 0.77772 0.0
C460 C 0.8157 0.71918 0.79468 0.0
C461 C 0.78216 0.67236 0.79978 0.0
C462 C 0.77011 0.7044 0.74808 0.0
C463 C 0.85559 0.75634 0.80728 0.0
H464 H 0.96616 0.82219 0.75753 0.0
H465 H 0.88694 0.89504 0.76485 0.0
H466 H 0.89879 0.72071 0.77909 0.0
H467 H 0.86663 0.70061 0.7587 0.0
H468 H 0.93217 0.7379 0.76047 0.0
H469 H 0.80906 0.85539 0.77524 0.0
H470 H 0.77236 0.79002 0.76993 0.0
H471 H 0.80309 0.81224 0.79045 0.0
H472 H 0.71094 0.62154 0.76319 0.0
H473 H 0.78608 0.66364 0.81257 0.0
H474 H 0.80133 0.70717 0.74173 0.0
H475 H 0.77187 0.7399 0.74703 0.0
H476 H 0.73587 0.67476 0.74124 0.0
H477 H 0.89092 0.76106 0.80417 0.0
H478 H 0.84902 0.74487 0.8204 0.0
H479 H 0.85891 0.79271 0.8067 0.0
C480 C 0.12306 0.00354 0.1085 0.0
C481 C 0.14985 0.99783 0.09615 0.0
C482 C 0.10339 0.97014 0.12101 0.0
C483 C 0.11115 0.93031 0.12132 0.0
C484 C 0.14225 0.92719 0.10998 0.0
C485 C 0.16121 0.961 0.09745 0.0
C486 C 0.07071 0.97509 0.13293 0.0
C487 C 0.15239 0.88595 0.11022 0.0
C488 C 0.06467 0.85446 0.15934 0.0
C489 C 0.01793 0.81724 0.15298 0.0
C490 C 0.0968 0.89009 0.14895 0.0
C491 C 0.08134 0.88891 0.1319 0.0
C492 C 0.0348 0.85033 0.12528 0.0
C493 C 0.00378 0.81485 0.13589 0.0
C494 C 0.14639 0.93008 0.15639 0.0
C495 C 0.01676 0.84783 0.10719 0.0
H496 H 0.1147 0.03235 0.10775 0.0
H497 H 0.18213 0.95646 0.08804 0.0
H498 H 0.03248 0.945 0.12972 0.0
H499 H 0.08062 0.97163 0.14612 0.0
H500 H 0.07258 0.01081 0.13224 0.0
H501 H 0.18396 0.89378 0.10292 0.0
H502 H 0.15955 0.87938 0.12335 0.0
H503 H 0.11999 0.85152 0.10456 0.0
H504 H 0.07572 0.85632 0.17256 0.0
H505 H 0.96768 0.78606 0.13097 0.0
H506 H 0.14723 0.96528 0.15791 0.0
H507 H 0.17483 0.93571 0.14783 0.0
H508 H 0.15567 0.92152 0.16892 0.0
H509 H 0.0134 0.88028 0.10514 0.0
H510 H 0.98081 0.81401 0.10378 0.0
H511 H 0.04322 0.84892 0.0985 0.0
C512 C 0.21883 0.13269 0.42723 0.0
C513 C 0.1708 0.12231 0.42537 0.0
C514 C 0.23741 0.12493 0.44229 0.0
C515 C 0.20729 0.1064 0.45585 0.0
C516 C 0.15984 0.09879 0.45445 0.0
C517 C 0.14212 0.10687 0.4392 0.0
C518 C 0.28831 0.13376 0.44331 0.0
C519 C 0.12678 0.07939 0.46869 0.0
C520 C 0.23145 0.02687 0.48411 0.0
C521 C 0.25825 0.05978 0.49805 0.0
C522 C 0.21432 0.04157 0.47039 0.0
C523 C 0.22376 0.09025 0.47069 0.0
C524 C 0.25005 0.12344 0.48485 0.0
C525 C 0.26692 0.10774 0.4984 0.0
C526 C 0.1864 0.00505 0.45552 0.0
C527 C 0.26051 0.1755 0.48564 0.0
H528 H 0.24147 0.14512 0.41667 0.0
H529 H 0.10504 0.09894 0.43791 0.0
H530 H 0.30906 0.15611 0.45507 0.0
H531 H 0.28645 0.09803 0.44369 0.0
H532 H 0.30867 0.1528 0.43237 0.0
H533 H 0.09349 0.08126 0.46643 0.0
H534 H 0.11558 0.04046 0.47012 0.0
H535 H 0.14619 0.10041 0.48079 0.0
H536 H 0.22388 0.98949 0.48396 0.0
H537 H 0.2869 0.13293 0.50931 0.0
H538 H 0.20583 0.01901 0.44394 0.0
H539 H 0.14998 0.00049 0.45332 0.0
H540 H 0.18154 0.96841 0.45739 0.0
H541 H 0.28266 0.19525 0.47514 0.0
H542 H 0.28031 0.19631 0.49775 0.0
H543 H 0.22599 0.17527 0.48405 0.0
C544 C 0.09707 0.16321 0.75621 0.0
C545 C 0.10385 0.13076 0.76577 0.0
C546 C 0.12531 0.21424 0.76009 0.0
C547 C 0.16104 0.23313 0.77381 0.0
C548 C 0.16584 0.20058 0.78417 0.0
C549 C 0.13714 0.14974 0.78006 0.0
C550 C 0.11862 0.24807 0.74899 0.0
C551 C 0.20321 0.2195 0.79902 0.0
C552 C 0.29276 0.37586 0.76466 0.0
C553 C 0.28594 0.41193 0.78206 0.0
C554 C 0.24866 0.3109 0.7634 0.0
C555 C 0.19681 0.28635 0.77601 0.0
C556 C 0.18492 0.32544 0.7894 0.0
C557 C 0.227 0.39104 0.79156 0.0
C558 C 0.25553 0.27704 0.75205 0.0
C559 C 0.13977 0.30344 0.79858 0.0
H560 H 0.07127 0.14901 0.74522 0.0
H561 H 0.1424 0.12503 0.78764 0.0
H562 H 0.11572 0.27584 0.75685 0.0
H563 H 0.1509 0.26821 0.7416 0.0
H564 H 0.08571 0.22773 0.74007 0.0
H565 H 0.19881 0.18954 0.8069 0.0
H566 H 0.24018 0.23789 0.79436 0.0
H567 H 0.20057 0.24714 0.80704 0.0
H568 H 0.32611 0.39035 0.75835 0.0
H569 H 0.22228 0.41455 0.80042 0.0
H570 H 0.22517 0.25929 0.74208 0.0
H571 H 0.2543 0.24751 0.75941 0.0
H572 H 0.29071 0.29743 0.7462 0.0
H573 H 0.10763 0.28373 0.78934 0.0
H574 H 0.138 0.33235 0.80615 0.0
H575 H 0.13916 0.27598 0.80692 0.0
C576 C 0.97673 0.03158 0.67061 0.0
C577 C 0.96137 0.02282 0.68702 0.0
C578 C 0.94602 0.03027 0.65722 0.0
C579 C 0.89927 0.021 0.66037 0.0
C580 C 0.88395 0.01337 0.67694 0.0
C581 C 0.91502 0.01395 0.69008 0.0
C582 C 0.96304 0.03725 0.63961 0.0
C583 C 0.83463 0.00429 0.68077 0.0
C584 C 0.83345 0.06798 0.62016 0.0
C585 C 0.78307 0.00433 0.61318 0.0
C586 C 0.87144 0.07181 0.63826 0.0
C587 C 0.86578 0.01664 0.64618 0.0
C588 C 0.82496 0.95636 0.63582 0.0
C589 C 0.78539 0.94869 0.61771 0.0
C590 C 0.90724 0.12085 0.64682 0.0
C591 C 0.82452 0.91265 0.64213 0.0
H592 H 0.01236 0.03817 0.6681 0.0
H593 H 0.90301 0.00747 0.70274 0.0
H594 H 0.93778 0.00407 0.63123 0.0
H595 H 0.96249 0.06885 0.63444 0.0
H596 H 0.0004 0.04387 0.63923 0.0
H597 H 0.82936 0.00225 0.69449 0.0
H598 H 0.83003 0.03417 0.67609 0.0
H599 H 0.8058 0.9692 0.6741 0.0
H600 H 0.83369 0.10015 0.61608 0.0
H601 H 0.75807 0.9125 0.61225 0.0
H602 H 0.94403 0.13257 0.64284 0.0
H603 H 0.908 0.11825 0.6607 0.0
H604 H 0.89782 0.1485 0.64333 0.0
H605 H 0.86185 0.91908 0.64242 0.0
H606 H 0.7991 0.87907 0.63396 0.0
H607 H 0.81335 0.90784 0.65524 0.0
C608 C 0.98643 0.9473 0.01997 0.0
C609 C 0.03431 0.95795 0.01898 0.0
C610 C 0.94803 0.90984 0.0093 0.0
C611 C 0.95787 0.88267 0.99735 0.0
C612 C 0.00617 0.89377 0.99613 0.0
C613 C 0.0437 0.93115 0.00696 0.0
C614 C 0.89691 0.89888 0.01095 0.0
C615 C 0.01824 0.8658 0.9835 0.0
C616 C 0.86247 0.7544 0.97929 0.0
C617 C 0.85182 0.76363 0.96303 0.0
C618 C 0.89499 0.79311 0.99094 0.0
C619 C 0.91794 0.84214 0.98612 0.0
C620 C 0.90621 0.85177 0.96991 0.0
C621 C 0.87341 0.81236 0.95854 0.0
C622 C 0.90655 0.78136 0.00812 0.0
C623 C 0.93011 0.90349 0.96427 0.0
H624 H 0.97881 0.96772 0.02924 0.0
H625 H 0.08054 0.93914 0.00603 0.0
H626 H 0.88129 0.90192 0.99866 0.0
H627 H 0.87344 0.86052 0.01448 0.0
H628 H 0.89549 0.92414 0.02059 0.0
H629 H 0.05782 0.87961 0.98397 0.0
H630 H 0.99856 0.82622 0.98595 0.0
H631 H 0.00606 0.86864 0.97054 0.0
H632 H 0.84644 0.71674 0.98272 0.0
H633 H 0.86575 0.81955 0.94591 0.0
H634 H 0.90356 0.80456 0.01815 0.0
H635 H 0.94461 0.78974 0.00912 0.0
H636 H 0.88202 0.74207 0.01052 0.0
H637 H 0.92739 0.92808 0.9738 0.0
H638 H 0.91358 0.90518 0.95194 0.0
H639 H 0.96938 0.91804 0.96306 0.0
C640 C 0.04721 0.94974 0.34866 0.0
C641 C 0.02296 0.97157 0.35557 0.0
C642 C 0.02144 0.9031 0.34011 0.0
C643 C 0.97001 0.87756 0.33828 0.0
C644 C 0.94509 0.89876 0.34551 0.0
C645 C 0.97191 0.94555 0.35415 0.0
C646 C 0.04944 0.88165 0.33269 0.0
C647 C 0.89028 0.8726 0.34373 0.0
C648 C 0.91944 0.78616 0.30023 0.0
C649 C 0.90836 0.74234 0.30749 0.0
C650 C 0.93648 0.82985 0.31025 0.0
C651 C 0.94313 0.82992 0.32797 0.0
C652 C 0.92969 0.78534 0.33545 0.0
C653 C 0.91243 0.74201 0.32511 0.0
C654 C 0.95022 0.87655 0.30177 0.0
C655 C 0.93632 0.78397 0.35429 0.0
H656 H 0.08662 0.9693 0.34984 0.0
H657 H 0.95292 0.96216 0.35947 0.0
H658 H 0.03668 0.84472 0.33729 0.0
H659 H 0.04283 0.87699 0.31875 0.0
H660 H 0.08925 0.90525 0.33593 0.0
H661 H 0.87629 0.89249 0.35103 0.0
H662 H 0.87768 0.86892 0.33024 0.0
H663 H 0.87408 0.83488 0.34805 0.0
H664 H 0.91668 0.78668 0.28662 0.0
H665 H 0.90388 0.70825 0.33077 0.0
H666 H 0.99039 0.90121 0.30287 0.0
H667 H 0.93473 0.89648 0.30806 0.0
H668 H 0.93746 0.86925 0.28817 0.0
H669 H 0.97572 0.80284 0.35825 0.0
H670 H 0.91834 0.74574 0.35829 0.0
H671 H 0.92147 0.80385 0.36104 0.0
C672 C 0.12498 0.98472 0.69315 0.0
C673 C 0.13546 0.98289 0.71034 0.0
C674 C 0.15855 0.9915 0.68125 0.0
C675 C 0.20376 0.99724 0.68674 0.0
C676 C 0.21358 0.99337 0.70396 0.0
C677 C 0.17923 0.9859 0.71549 0.0
C678 C 0.14643 0.9944 0.66294 0.0
C679 C 0.2615 0.99962 0.71038 0.0
C680 C 0.29198 0.98961 0.65866 0.0
C681 C 0.32664 0.03962 0.65745 0.0
C682 C 0.24968 0.97506 0.66709 0.0
C683 C 0.24276 0.01133 0.67497 0.0
C684 C 0.27681 0.06175 0.67333 0.0
C685 C 0.31817 0.07522 0.66454 0.0
C686 C 0.21372 0.92093 0.66831 0.0
C687 C 0.27123 0.10163 0.68177 0.0
H688 H 0.09112 0.98211 0.68903 0.0
H689 H 0.18766 0.98434 0.72872 0.0
H690 H 0.16962 0.03269 0.65931 0.0
H691 H 0.15419 0.97068 0.65476 0.0
H692 H 0.1077 0.98312 0.66039 0.0
H693 H 0.26257 0.99344 0.72401 0.0
H694 H 0.26844 0.97361 0.70322 0.0
H695 H 0.29162 0.03739 0.70842 0.0
H696 H 0.29852 0.96182 0.65345 0.0
H697 H 0.34521 0.11384 0.66383 0.0
H698 H 0.17592 0.91254 0.66579 0.0
H699 H 0.21688 0.91067 0.68128 0.0
H700 H 0.22012 0.8977 0.65932 0.0
H701 H 0.23445 0.09515 0.67847 0.0
H702 H 0.29875 0.13885 0.67815 0.0
H703 H 0.27519 0.1009 0.69567 0.0
C704 C 0.27723 0.20699 0.02423 0.0
C705 C 0.2354 0.19338 0.03281 0.0
C706 C 0.29651 0.2476 0.01422 0.0
C707 C 0.27291 0.27455 0.01258 0.0
C708 C 0.23246 0.26271 0.022 0.0
C709 C 0.21453 0.22263 0.0321 0.0
C710 C 0.34051 0.25998 0.00472 0.0
C711 C 0.20594 0.29023 0.02055 0.0
C712 C 0.32434 0.39698 0.99278 0.0
C713 C 0.30038 0.38194 0.97656 0.0
C714 C 0.3184 0.36228 0.00435 0.0
C715 C 0.28666 0.31154 0.99974 0.0
C716 C 0.26357 0.29622 0.98323 0.0
C717 C 0.27084 0.3316 0.97185 0.0
C718 C 0.34429 0.38001 0.02174 0.0
C719 C 0.22893 0.24251 0.97785 0.0
H720 H 0.29387 0.1849 0.0248 0.0
H721 H 0.18241 0.21275 0.03877 0.0
H722 H 0.32916 0.24878 0.99112 0.0
H723 H 0.36692 0.30023 0.00582 0.0
H724 H 0.35908 0.24091 0.00936 0.0
H725 H 0.17723 0.27863 0.02959 0.0
H726 H 0.23183 0.33038 0.02284 0.0
H727 H 0.18864 0.28367 0.00757 0.0
H728 H 0.34671 0.43587 0.99659 0.0
H729 H 0.25183 0.31997 0.9594 0.0
H730 H 0.36082 0.35828 0.02545 0.0
H731 H 0.31772 0.3748 0.03107 0.0
H732 H 0.37322 0.41958 0.02247 0.0
H733 H 0.24657 0.22104 0.98032 0.0
H734 H 0.2164 0.23657 0.96426 0.0
H735 H 0.1966 0.22764 0.98536 0.0
C736 C 0.08647 0.2417 0.35253 0.0
C737 C 0.12138 0.22795 0.35197 0.0
C738 C 0.08848 0.2777 0.34229 0.0
C739 C 0.12619 0.30028 0.33124 0.0
C740 C 0.16217 0.28744 0.33094 0.0
C741 C 0.15936 0.25156 0.34131 0.0
C742 C 0.04968 0.29073 0.34299 0.0
C743 C 0.20302 0.31071 0.31933 0.0
C744 C 0.11111 0.35286 0.29104 0.0
C745 C 0.13991 0.40355 0.29529 0.0
C746 C 0.10438 0.31877 0.3029 0.0
C747 C 0.12732 0.33582 0.31939 0.0
C748 C 0.15508 0.38696 0.32394 0.0
C749 C 0.16132 0.42027 0.31179 0.0
C750 C 0.07467 0.26453 0.29754 0.0
C751 C 0.18005 0.40655 0.34139 0.0
H752 H 0.05704 0.22375 0.36074 0.0
H753 H 0.18664 0.24139 0.34081 0.0
H754 H 0.06666 0.33106 0.34538 0.0
H755 H 0.02813 0.28014 0.33065 0.0
H756 H 0.02451 0.27201 0.35296 0.0
H757 H 0.22902 0.29788 0.32106 0.0
H758 H 0.18781 0.30181 0.30601 0.0
H759 H 0.22334 0.35133 0.32159 0.0
H760 H 0.09502 0.33989 0.27824 0.0
H761 H 0.18417 0.45946 0.31504 0.0
H762 H 0.047 0.24449 0.30665 0.0
H763 H 0.09877 0.24923 0.29746 0.0
H764 H 0.0559 0.25723 0.28476 0.0
H765 H 0.1541 0.38774 0.35112 0.0
H766 H 0.19578 0.44683 0.34345 0.0
H767 H 0.20981 0.3989 0.34326 0.0
loop_
_geom_bond_atom_site_label_1
_geom_bond_atom_site_label_2
_geom_bond_distance
_geom_bond_site_symmetry_2
_ccdc_geom_bond_type
Zn0 O3 2.031 1_545 S
Zn0 O5 2.049 . S
Zn0 O10 2.067 . S
Zn1 O2 1.962 . S
Zn1 O4 1.986 . S
Zn1 O6 1.996 . S
Zn1 O9 1.943 . S
O2 Zn1 1.962 . S
O2 C7 1.254 . S
O3 Zn0 2.031 1_565 S
O3 C7 1.269 1_565 S
O4 Zn1 1.986 . S
O4 C11 1.262 . S
O5 Zn0 2.049 . S
O5 C13 1.260 . S
O6 Zn1 1.996 . S
O6 C13 1.257 . S
C7 O2 1.254 . S
C7 O3 1.269 1_545 S
C8 O9 1.249 . S
C8 O10 1.270 . S
O9 Zn1 1.943 . S
O9 C8 1.249 . S
O10 Zn0 2.067 . S
O10 C8 1.270 . S
C11 O4 1.262 . S
C11 O12 1.232 . S
O12 C11 1.232 . S
C13 O5 1.260 . S
C13 O6 1.257 . S
Zn14 O17 2.031 . S
Zn14 O19 2.049 . S
Zn14 O24 2.067 . S
Zn15 O16 1.962 . S
Zn15 O18 1.986 1_455 S
Zn15 O20 1.996 . S
Zn15 O23 1.939 . S
O16 Zn15 1.962 . S
O16 C21 1.254 . S
O17 Zn14 2.031 . S
O17 C21 1.269 . S
O18 Zn15 1.986 1_655 S
O18 C25 1.262 . S
O19 Zn14 2.049 . S
O19 C27 1.260 . S
O20 Zn15 1.996 . S
O20 C27 1.257 . S
C21 O16 1.254 . S
C21 O17 1.269 . S
C22 O23 1.262 . S
C22 O24 1.270 . S
O23 Zn15 1.939 . S
O23 C22 1.262 . S
O24 Zn14 2.067 . S
O24 C22 1.270 . S
C25 O18 1.262 . S
C25 O26 1.232 . S
O26 C25 1.232 . S
C27 O19 1.260 . S
C27 O20 1.257 . S
Zn28 O31 2.031 1_565 S
Zn28 O33 2.049 . S
Zn28 O38 2.067 1_565 S
Zn29 O30 1.964 . S
Zn29 O32 1.986 1_455 S
Zn29 O34 1.996 1_445 S
Zn29 O37 1.943 . S
O30 Zn29 1.964 . S
O30 C35 1.253 . S
O31 Zn28 2.031 1_545 S
O31 C35 1.269 . S
O32 Zn29 1.986 1_655 S
O32 C39 1.262 . S
O33 Zn28 2.049 . S
O33 C41 1.260 1_455 S
O34 Zn29 1.996 1_665 S
O34 C41 1.257 . S
C35 O30 1.253 . S
C35 O31 1.269 . S
C36 O37 1.249 . S
C36 O38 1.270 . S
O37 Zn29 1.943 . S
O37 C36 1.249 . S
O38 Zn28 2.067 1_545 S
O38 C36 1.270 . S
C39 O32 1.262 . S
C39 O40 1.219 1_655 S
O40 C39 1.219 1_455 S
C41 O33 1.260 1_655 S
C41 O34 1.257 . S
C42 C43 1.560 1_655 S
C42 H103 0.959 . S
C42 H104 0.959 . S
C42 H105 0.960 . S
C43 C42 1.560 1_455 S
C43 O98 1.426 1_455 S
C43 H102 0.980 . S
C44 C45 1.407 . S
C44 C49 1.418 1_455 S
C44 O98 1.334 1_455 S
C45 C44 1.407 . S
C45 C46 1.360 . S
C45 H106 0.929 . S
C46 C45 1.360 . S
C46 C47 1.401 . S
C46 C50 1.527 . S
C47 C46 1.401 . S
C47 C48 1.405 1_455 S
C47 C80 1.587 . S
C48 C47 1.405 1_655 S
C48 C49 1.332 . S
C48 C51 1.496 . S
C49 C44 1.418 1_655 S
C49 C48 1.332 . S
C49 H107 0.929 . S
C50 C46 1.527 . S
C50 H108 0.959 . S
C50 H109 0.961 . S
C50 H110 0.961 . S
C51 C48 1.496 . S
C51 H111 0.960 . S
C51 H112 0.960 . S
C51 H113 0.961 . S
C52 C53 1.517 . S
C52 H115 0.961 . S
C52 H116 0.960 . S
C52 H117 0.959 . S
C53 C52 1.517 . S
C53 O101 1.468 . S
C53 H114 0.980 . S
C54 C55 1.349 . S
C54 C59 1.367 . S
C54 O101 1.408 . S
C55 C54 1.349 . S
C55 C56 1.407 . S
C55 H118 0.930 . S
C56 C55 1.407 . S
C56 C57 1.449 . S
C56 C60 1.535 1_455 S
C57 C56 1.449 . S
C57 C58 1.384 . S
C57 C82 1.553 . S
C58 C57 1.384 . S
C58 C59 1.364 . S
C58 C61 1.450 . S
C59 C54 1.367 . S
C59 C58 1.364 . S
C59 H119 0.931 . S
C60 C56 1.535 1_655 S
C60 H120 0.959 . S
C60 H121 0.961 . S
C60 H122 0.959 . S
C61 C58 1.450 . S
C61 H123 0.960 . S
C61 H124 0.960 . S
C61 H125 0.960 . S
C62 C63 1.309 . S
C62 C67 1.304 . S
C62 O100 1.435 . S
C63 C62 1.309 . S
C63 C64 1.476 . S
C63 H127 0.930 . S
C64 C63 1.476 . S
C64 C65 1.400 . S
C64 C68 1.567 1_455 S
C65 C64 1.400 . S
C65 C66 1.373 . S
C65 C87 1.432 . S
C66 C65 1.373 . S
C66 C67 1.339 . S
C66 C69 1.530 . S
C67 C62 1.304 . S
C67 C66 1.339 . S
C67 H128 0.930 . S
C68 C64 1.567 1_655 S
C68 H129 0.961 . S
C68 H130 0.960 . S
C68 H131 0.958 . S
C69 C66 1.530 . S
C69 H132 0.961 . S
C69 H133 0.960 . S
C69 H134 0.960 . S
C70 C71 1.530 . S
C70 H136 0.961 . S
C70 H137 0.961 1_455 S
C70 H138 0.959 1_455 S
C71 C70 1.530 . S
C71 O99 1.412 . S
C71 H135 0.980 . S
C72 C73 1.288 1_455 S
C72 C77 1.377 . S
C72 O99 1.393 . S
C73 C72 1.288 1_655 S
C73 C74 1.369 . S
C73 H139 0.932 . S
C74 C73 1.369 . S
C74 C75 1.398 1_655 S
C74 C78 1.527 . S
C75 C74 1.398 1_455 S
C75 C76 1.380 . S
C75 C89 1.497 . S
C76 C75 1.380 . S
C76 C77 1.383 . S
C76 C79 1.603 . S
C77 C72 1.377 . S
C77 C76 1.383 . S
C77 H140 0.929 . S
C78 C74 1.527 . S
C78 H141 0.961 . S
C78 H142 0.959 . S
C78 H143 0.959 . S
C79 C76 1.603 . S
C79 H144 0.960 . S
C79 H145 0.962 . S
C79 H146 0.961 . S
C80 C47 1.587 . S
C80 C81 1.360 . S
C80 C93 1.412 . S
C81 C80 1.360 . S
C81 C82 1.365 . S
C81 H147 0.929 . S
C82 C57 1.553 . S
C82 C81 1.365 . S
C82 C83 1.404 . S
C83 C82 1.404 . S
C83 C84 1.395 . S
C83 C94 1.451 . S
C84 C83 1.395 . S
C84 C85 1.322 . S
C84 H148 0.930 . S
C85 C84 1.322 . S
C85 C86 1.459 . S
C85 H149 0.929 . S
C86 C85 1.459 . S
C86 C87 1.445 . S
C86 C95 1.395 . S
C87 C65 1.432 . S
C87 C86 1.445 . S
C87 C88 1.370 . S
C88 C87 1.370 . S
C88 C89 1.438 . S
C88 H150 0.930 . S
C89 C75 1.497 . S
C89 C88 1.438 . S
C89 C90 1.360 . S
C90 C89 1.360 . S
C90 C91 1.401 . S
C90 C95 1.446 . S
C91 C90 1.401 . S
C91 C92 1.347 . S
C91 H151 0.929 . S
C92 C91 1.347 . S
C92 C93 1.455 . S
C92 H152 0.930 . S
C93 C80 1.412 . S
C93 C92 1.455 . S
C93 C94 1.331 . S
C94 C83 1.451 . S
C94 C93 1.331 . S
C94 C95 1.497 . S
C95 C86 1.395 . S
C95 C90 1.446 . S
C95 C94 1.497 . S
C96 C97 1.582 . S
C96 H153 0.962 . S
C96 H154 0.959 . S
C96 H155 0.958 . S
C97 C96 1.582 . S
C97 O100 1.458 . S
C97 H126 0.980 . S
O98 C43 1.426 1_655 S
O98 C44 1.334 1_655 S
O99 C71 1.412 . S
O99 C72 1.393 . S
O100 C62 1.435 . S
O100 C97 1.458 . S
O101 C53 1.468 . S
O101 C54 1.408 . S
H102 C43 0.980 . S
H103 C42 0.959 . S
H104 C42 0.959 . S
H105 C42 0.960 . S
H106 C45 0.929 . S
H107 C49 0.929 . S
H108 C50 0.959 . S
H109 C50 0.961 . S
H110 C50 0.961 . S
H111 C51 0.960 . S
H112 C51 0.960 . S
H113 C51 0.961 . S
H114 C53 0.980 . S
H115 C52 0.961 . S
H116 C52 0.960 . S
H117 C52 0.959 . S
H118 C55 0.930 . S
H119 C59 0.931 . S
H120 C60 0.959 . S
H121 C60 0.961 . S
H122 C60 0.959 . S
H123 C61 0.960 . S
H124 C61 0.960 . S
H125 C61 0.960 . S
H126 C97 0.980 . S
H127 C63 0.930 . S
H128 C67 0.930 . S
H129 C68 0.961 . S
H130 C68 0.960 . S
H131 C68 0.958 . S
H132 C69 0.961 . S
H133 C69 0.960 . S
H134 C69 0.960 . S
H135 C71 0.980 . S
H136 C70 0.961 . S
H137 C70 0.961 1_655 S
H138 C70 0.959 1_655 S
H139 C73 0.932 . S
H140 C77 0.929 . S
H141 C78 0.961 . S
H142 C78 0.959 . S
H143 C78 0.959 . S
H144 C79 0.960 . S
H145 C79 0.962 . S
H146 C79 0.961 . S
H147 C81 0.929 . S
H148 C84 0.930 . S
H149 C85 0.929 . S
H150 C88 0.930 . S
H151 C91 0.929 . S
H152 C92 0.930 . S
H153 C96 0.962 . S
H154 C96 0.959 . S
H155 C96 0.958 . S
C156 C157 1.560 1_565 S
C156 H217 0.959 . S
C156 H218 0.959 . S
C156 H219 0.960 . S
C157 C156 1.560 1_545 S
C157 O212 1.426 1_545 S
C157 H216 0.980 . S
C158 C159 1.407 . S
C158 C163 1.418 1_545 S
C158 O212 1.334 1_545 S
C159 C158 1.407 . S
C159 C160 1.360 . S
C159 H220 0.929 . S
C160 C159 1.360 . S
C160 C161 1.401 . S
C160 C164 1.527 . S
C161 C160 1.401 . S
C161 C162 1.424 . S
C161 C194 1.587 . S
C162 C161 1.424 . S
C162 C163 1.335 1_545 S
C162 C165 1.476 1_545 S
C163 C158 1.418 1_565 S
C163 C162 1.335 1_565 S
C163 H221 0.929 . S
C164 C160 1.527 . S
C164 H222 0.959 . S
C164 H223 0.961 . S
C164 H224 0.961 . S
C165 C162 1.476 1_565 S
C165 H225 0.960 . S
C165 H226 0.960 . S
C165 H227 0.961 . S
C166 C167 1.517 . S
C166 H229 0.961 . S
C166 H230 0.960 . S
C166 H231 0.959 . S
C167 C166 1.517 . S
C167 O215 1.468 . S
C167 H228 0.980 . S
C168 C169 1.349 . S
C168 C173 1.367 . S
C168 O215 1.408 . S
C169 C168 1.349 . S
C169 C170 1.407 . S
C169 H232 0.930 . S
C170 C169 1.407 . S
C170 C171 1.449 . S
C170 C174 1.544 . S
C171 C170 1.449 . S
C171 C172 1.384 . S
C171 C196 1.553 . S
C172 C171 1.384 . S
C172 C173 1.364 . S
C172 C175 1.450 . S
C173 C168 1.367 . S
C173 C172 1.364 . S
C173 H233 0.931 . S
C174 C170 1.544 . S
C174 H234 0.968 . S
C174 H235 0.954 1_545 S
C174 H236 0.949 1_545 S
C175 C172 1.450 . S
C175 H237 0.960 . S
C175 H238 0.960 . S
C175 H239 0.960 . S
C176 C177 1.309 . S
C176 C181 1.304 . S
C176 O214 1.435 . S
C177 C176 1.309 . S
C177 C178 1.476 . S
C177 H241 0.930 . S
C178 C177 1.476 . S
C178 C179 1.400 . S
C178 C182 1.567 . S
C179 C178 1.400 . S
C179 C180 1.373 . S
C179 C201 1.432 . S
C180 C179 1.373 . S
C180 C181 1.339 . S
C180 C183 1.530 . S
C181 C176 1.304 . S
C181 C180 1.339 . S
C181 H242 0.930 . S
C182 C178 1.567 . S
C182 H243 0.961 . S
C182 H244 0.960 1_545 S
C182 H245 0.958 1_545 S
C183 C180 1.530 . S
C183 H246 0.961 . S
C183 H247 0.960 . S
C183 H248 0.960 . S
C184 C185 1.530 . S
C184 H250 0.961 . S
C184 H251 0.961 . S
C184 H252 0.959 . S
C185 C184 1.530 . S
C185 O213 1.412 . S
C185 H249 0.980 . S
C186 C187 1.288 . S
C186 C191 1.377 . S
C186 O213 1.393 . S
C187 C186 1.288 . S
C187 C188 1.369 . S
C187 H253 0.932 1_545 S
C188 C187 1.369 . S
C188 C189 1.398 . S
C188 C192 1.527 1_545 S
C189 C188 1.398 . S
C189 C190 1.380 . S
C189 C203 1.497 . S
C190 C189 1.380 . S
C190 C191 1.383 . S
C190 C193 1.603 . S
C191 C186 1.377 . S
C191 C190 1.383 . S
C191 H254 0.929 . S
C192 C188 1.527 1_565 S
C192 H255 0.961 . S
C192 H256 0.959 . S
C192 H257 0.959 . S
C193 C190 1.603 . S
C193 H258 0.960 . S
C193 H259 0.962 . S
C193 H260 0.961 . S
C194 C161 1.587 . S
C194 C195 1.360 . S
C194 C207 1.412 . S
C195 C194 1.360 . S
C195 C196 1.365 . S
C195 H261 0.929 . S
C196 C171 1.553 . S
C196 C195 1.365 . S
C196 C197 1.404 . S
C197 C196 1.404 . S
C197 C198 1.395 . S
C197 C208 1.451 . S
C198 C197 1.395 . S
C198 C199 1.322 . S
C198 H262 0.930 . S
C199 C198 1.322 . S
C199 C200 1.459 . S
C199 H263 0.929 . S
C200 C199 1.459 . S
C200 C201 1.445 . S
C200 C209 1.395 . S
C201 C179 1.432 . S
C201 C200 1.445 . S
C201 C202 1.370 . S
C202 C201 1.370 . S
C202 C203 1.438 . S
C202 H264 0.930 . S
C203 C189 1.497 . S
C203 C202 1.438 . S
C203 C204 1.360 . S
C204 C203 1.360 . S
C204 C205 1.401 . S
C204 C209 1.446 . S
C205 C204 1.401 . S
C205 C206 1.347 . S
C205 H265 0.929 . S
C206 C205 1.347 . S
C206 C207 1.455 . S
C206 H266 0.930 . S
C207 C194 1.412 . S
C207 C206 1.455 . S
C207 C208 1.331 . S
C208 C197 1.451 . S
C208 C207 1.331 . S
C208 C209 1.497 . S
C209 C200 1.395 . S
C209 C204 1.446 . S
C209 C208 1.497 . S
C210 C211 1.582 . S
C210 H267 0.962 . S
C210 H268 0.959 . S
C210 H269 0.958 . S
C211 C210 1.582 . S
C211 O214 1.458 . S
C211 H240 0.980 . S
O212 C157 1.426 1_565 S
O212 C158 1.334 1_565 S
O213 C185 1.412 . S
O213 C186 1.393 . S
O214 C176 1.435 . S
O214 C211 1.458 . S
O215 C167 1.468 . S
O215 C168 1.408 . S
H216 C157 0.980 . S
H217 C156 0.959 . S
H218 C156 0.959 . S
H219 C156 0.960 . S
H220 C159 0.929 . S
H221 C163 0.929 . S
H222 C164 0.959 . S
H223 C164 0.961 . S
H224 C164 0.961 . S
H225 C165 0.960 . S
H226 C165 0.960 . S
H227 C165 0.961 . S
H228 C167 0.980 . S
H229 C166 0.961 . S
H230 C166 0.960 . S
H231 C166 0.959 . S
H232 C169 0.930 . S
H233 C173 0.931 . S
H234 C174 0.968 . S
H235 C174 0.954 1_565 S
H236 C174 0.949 1_565 S
H237 C175 0.960 . S
H238 C175 0.960 . S
H239 C175 0.960 . S
H240 C211 0.980 . S
H241 C177 0.930 . S
H242 C181 0.930 . S
H243 C182 0.961 . S
H244 C182 0.960 1_565 S
H245 C182 0.958 1_565 S
H246 C183 0.961 . S
H247 C183 0.960 . S
H248 C183 0.960 . S
H249 C185 0.980 . S
H250 C184 0.961 . S
H251 C184 0.961 . S
H252 C184 0.959 . S
H253 C187 0.932 1_565 S
H254 C191 0.929 . S
H255 C192 0.961 . S
H256 C192 0.959 . S
H257 C192 0.959 . S
H258 C193 0.960 . S
H259 C193 0.962 . S
H260 C193 0.961 . S
H261 C195 0.929 . S
H262 C198 0.930 . S
H263 C199 0.929 . S
H264 C202 0.930 . S
H265 C205 0.929 . S
H266 C206 0.930 . S
H267 C210 0.962 . S
H268 C210 0.959 . S
H269 C210 0.958 . S
C270 C271 1.560 . S
C270 H331 0.959 . S
C270 H332 0.959 . S
C270 H333 0.960 . S
C271 C270 1.560 . S
C271 O326 1.426 . S
C271 H330 0.980 . S
C272 C273 1.407 . S
C272 C277 1.418 . S
C272 O326 1.334 . S
C273 C272 1.407 . S
C273 C274 1.360 . S
C273 H334 0.929 . S
C274 C273 1.360 . S
C274 C275 1.401 . S
C274 C278 1.527 . S
C275 C274 1.401 . S
C275 C276 1.405 . S
C275 C308 1.587 . S
C276 C275 1.405 . S
C276 C277 1.332 . S
C276 C279 1.496 . S
C277 C272 1.418 . S
C277 C276 1.332 . S
C277 H335 0.929 . S
C278 C274 1.527 . S
C278 H336 0.959 . S
C278 H337 0.961 . S
C278 H338 0.961 . S
C279 C276 1.496 . S
C279 H339 0.960 . S
C279 H340 0.960 . S
C279 H341 0.961 . S
C280 C281 1.517 . S
C280 H343 0.961 . S
C280 H344 0.960 . S
C280 H345 0.959 . S
C281 C280 1.517 . S
C281 O329 1.468 . S
C281 H342 0.980 . S
C282 C283 1.349 . S
C282 C287 1.367 . S
C282 O329 1.408 . S
C283 C282 1.349 . S
C283 C284 1.407 . S
C283 H346 0.930 . S
C284 C283 1.407 . S
C284 C285 1.449 . S
C284 C288 1.535 . S
C285 C284 1.449 . S
C285 C286 1.384 . S
C285 C310 1.553 . S
C286 C285 1.384 . S
C286 C287 1.364 . S
C286 C289 1.450 . S
C287 C282 1.367 . S
C287 C286 1.364 . S
C287 H347 0.931 . S
C288 C284 1.535 . S
C288 H348 0.959 . S
C288 H349 0.961 . S
C288 H350 0.959 . S
C289 C286 1.450 . S
C289 H351 0.960 . S
C289 H352 0.960 . S
C289 H353 0.960 . S
C290 C291 1.309 . S
C290 C295 1.304 . S
C290 O328 1.435 . S
C291 C290 1.309 . S
C291 C292 1.476 . S
C291 H355 0.930 . S
C292 C291 1.476 . S
C292 C293 1.400 . S
C292 C296 1.567 . S
C293 C292 1.400 . S
C293 C294 1.373 . S
C293 C315 1.432 . S
C294 C293 1.373 . S
C294 C295 1.339 . S
C294 C297 1.530 . S
C295 C290 1.304 . S
C295 C294 1.339 . S
C295 H356 0.930 . S
C296 C292 1.567 . S
C296 H357 0.961 . S
C296 H358 0.960 . S
C296 H359 0.958 . S
C297 C294 1.530 . S
C297 H360 0.961 . S
C297 H361 0.960 . S
C297 H362 0.960 . S
C298 C299 1.530 . S
C298 H364 0.961 . S
C298 H365 0.961 . S
C298 H366 0.959 . S
C299 C298 1.530 . S
C299 O327 1.412 . S
C299 H363 0.980 . S
C300 C301 1.288 . S
C300 C305 1.377 . S
C300 O327 1.393 . S
C301 C300 1.288 . S
C301 C302 1.369 . S
C301 H367 0.932 . S
C302 C301 1.369 . S
C302 C303 1.398 . S
C302 C306 1.527 . S
C303 C302 1.398 . S
C303 C304 1.380 . S
C303 C317 1.497 . S
C304 C303 1.380 . S
C304 C305 1.383 . S
C304 C307 1.603 . S
C305 C300 1.377 . S
C305 C304 1.383 . S
C305 H368 0.929 . S
C306 C302 1.527 . S
C306 H369 0.961 . S
C306 H370 0.959 . S
C306 H371 0.959 . S
C307 C304 1.603 . S
C307 H372 0.960 . S
C307 H373 0.962 . S
C307 H374 0.961 . S
C308 C275 1.587 . S
C308 C309 1.360 . S
C308 C321 1.412 . S
C309 C308 1.360 . S
C309 C310 1.365 . S
C309 H375 0.929 . S
C310 C285 1.553 . S
C310 C309 1.365 . S
C310 C311 1.404 . S
C311 C310 1.404 . S
C311 C312 1.395 . S
C311 C322 1.451 . S
C312 C311 1.395 . S
C312 C313 1.322 . S
C312 H376 0.930 . S
C313 C312 1.322 . S
C313 C314 1.459 . S
C313 H377 0.929 . S
C314 C313 1.459 . S
C314 C315 1.445 . S
C314 C323 1.395 . S
C315 C293 1.432 . S
C315 C314 1.445 . S
C315 C316 1.370 . S
C316 C315 1.370 . S
C316 C317 1.438 . S
C316 H378 0.930 . S
C317 C303 1.497 . S
C317 C316 1.438 . S
C317 C318 1.360 . S
C318 C317 1.360 . S
C318 C319 1.401 . S
C318 C323 1.446 . S
C319 C318 1.401 . S
C319 C320 1.347 . S
C319 H379 0.929 . S
C320 C319 1.347 . S
C320 C321 1.455 . S
C320 H380 0.930 . S
C321 C308 1.412 . S
C321 C320 1.455 . S
C321 C322 1.331 . S
C322 C311 1.451 . S
C322 C321 1.331 . S
C322 C323 1.497 . S
C323 C314 1.395 . S
C323 C318 1.446 . S
C323 C322 1.497 . S
C324 C325 1.582 . S
C324 H381 0.962 . S
C324 H382 0.959 . S
C324 H383 0.958 . S
C325 C324 1.582 . S
C325 O328 1.458 . S
C325 H354 0.980 . S
O326 C271 1.426 . S
O326 C272 1.334 . S
O327 C299 1.412 . S
O327 C300 1.393 . S
O328 C290 1.435 . S
O328 C325 1.458 . S
O329 C281 1.468 . S
O329 C282 1.408 . S
H330 C271 0.980 . S
H331 C270 0.959 . S
H332 C270 0.959 . S
H333 C270 0.960 . S
H334 C273 0.929 . S
H335 C277 0.929 . S
H336 C278 0.959 . S
H337 C278 0.961 . S
H338 C278 0.961 . S
H339 C279 0.960 . S
H340 C279 0.960 . S
H341 C279 0.961 . S
H342 C281 0.980 . S
H343 C280 0.961 . S
H344 C280 0.960 . S
H345 C280 0.959 . S
H346 C283 0.930 . S
H347 C287 0.931 . S
H348 C288 0.959 . S
H349 C288 0.961 . S
H350 C288 0.959 . S
H351 C289 0.960 . S
H352 C289 0.960 . S
H353 C289 0.960 . S
H354 C325 0.980 . S
H355 C291 0.930 . S
H356 C295 0.930 . S
H357 C296 0.961 . S
H358 C296 0.960 . S
H359 C296 0.958 . S
H360 C297 0.961 . S
H361 C297 0.960 . S
H362 C297 0.960 . S
H363 C299 0.980 . S
H364 C298 0.961 . S
H365 C298 0.961 . S
H366 C298 0.959 . S
H367 C301 0.932 . S
H368 C305 0.929 . S
H369 C306 0.961 . S
H370 C306 0.959 . S
H371 C306 0.959 . S
H372 C307 0.960 . S
H373 C307 0.962 . S
H374 C307 0.961 . S
H375 C309 0.929 . S
H376 C312 0.930 . S
H377 C313 0.929 . S
H378 C316 0.930 . S
H379 C319 0.929 . S
H380 C320 0.930 . S
H381 C324 0.962 . S
H382 C324 0.959 . S
H383 C324 0.958 . S
C384 C385 1.414 . S
C384 C386 1.393 . S
C384 H400 0.918 1_455 S
C385 C384 1.414 . S
C385 C389 1.376 . S
C386 C384 1.393 . S
C386 C387 1.380 . S
C386 C390 1.510 1_455 S
C387 C386 1.380 . S
C387 C388 1.410 . S
C387 C395 1.503 . S
C388 C387 1.410 . S
C388 C389 1.392 . S
C388 C391 1.511 . S
C389 C385 1.376 . S
C389 C388 1.392 . S
C389 H401 0.929 . S
C390 C386 1.510 1_655 S
C390 H402 0.960 . S
C390 H403 0.962 . S
C390 H404 0.960 . S
C391 C388 1.511 . S
C391 H405 0.961 . S
C391 H406 0.961 . S
C391 H407 0.961 . S
C392 C393 1.370 . S
C392 C394 1.363 . S
C392 H408 0.931 . S
C393 C392 1.370 . S
C393 C397 1.408 . S
C394 C392 1.363 . S
C394 C395 1.370 . S
C394 C398 1.524 . S
C395 C387 1.503 . S
C395 C394 1.370 . S
C395 C396 1.403 . S
C396 C395 1.403 . S
C396 C397 1.404 . S
C396 C399 1.539 . S
C397 C393 1.408 . S
C397 C396 1.404 . S
C397 H409 0.930 . S
C398 C394 1.524 . S
C398 H410 0.956 . S
C398 H411 0.961 . S
C398 H412 0.961 . S
C399 C396 1.539 . S
C399 H413 0.958 . S
C399 H414 0.961 . S
C399 H415 0.960 . S
H400 C384 0.918 1_655 S
H401 C389 0.929 . S
H402 C390 0.960 . S
H403 C390 0.962 . S
H404 C390 0.960 . S
H405 C391 0.961 . S
H406 C391 0.961 . S
H407 C391 0.961 . S
H408 C392 0.931 . S
H409 C397 0.930 . S
H410 C398 0.956 . S
H411 C398 0.961 . S
H412 C398 0.961 . S
H413 C399 0.958 . S
H414 C399 0.961 . S
H415 C399 0.960 . S
C416 C417 1.391 . S
C416 C418 1.394 . S
C416 H432 0.931 . S
C417 C416 1.391 . S
C417 C421 1.376 . S
C418 C416 1.394 . S
C418 C419 1.369 . S
C418 C422 1.531 . S
C419 C418 1.369 . S
C419 C420 1.410 . S
C419 C427 1.503 . S
C420 C419 1.410 . S
C420 C421 1.392 . S
C420 C423 1.511 1_545 S
C421 C417 1.376 . S
C421 C420 1.392 . S
C421 H433 0.929 . S
C422 C418 1.531 . S
C422 H434 0.960 . S
C422 H435 0.962 . S
C422 H436 0.960 . S
C423 C420 1.511 1_565 S
C423 H437 0.961 . S
C423 H438 0.961 1_565 S
C423 H439 0.961 . S
C424 C425 1.370 . S
C424 C426 1.363 . S
C424 H440 0.931 . S
C425 C424 1.370 . S
C425 C429 1.408 . S
C426 C424 1.363 . S
C426 C427 1.370 . S
C426 C430 1.524 . S
C427 C419 1.503 . S
C427 C426 1.370 . S
C427 C428 1.403 . S
C428 C427 1.403 . S
C428 C429 1.404 . S
C428 C431 1.539 1_545 S
C429 C425 1.408 . S
C429 C428 1.404 . S
C429 H441 0.930 . S
C430 C426 1.524 . S
C430 H442 0.956 . S
C430 H443 0.961 . S
C430 H444 0.961 . S
C431 C428 1.539 1_565 S
C431 H445 0.958 . S
C431 H446 0.961 . S
C431 H447 0.960 . S
H432 C416 0.931 . S
H433 C421 0.929 . S
H434 C422 0.960 . S
H435 C422 0.962 . S
H436 C422 0.960 . S
H437 C423 0.961 . S
H438 C423 0.961 1_545 S
H439 C423 0.961 . S
H440 C424 0.931 . S
H441 C429 0.930 . S
H442 C430 0.956 . S
H443 C430 0.961 . S
H444 C430 0.961 . S
H445 C431 0.958 . S
H446 C431 0.961 . S
H447 C431 0.960 . S
C448 C449 1.391 . S
C448 C450 1.394 . S
C448 H464 0.931 . S
C449 C448 1.391 . S
C449 C453 1.376 . S
C450 C448 1.394 . S
C450 C451 1.369 . S
C450 C454 1.531 . S
C451 C450 1.369 . S
C451 C452 1.410 . S
C451 C459 1.503 . S
C452 C451 1.410 . S
C452 C453 1.392 . S
C452 C455 1.511 . S
C453 C449 1.376 . S
C453 C452 1.392 . S
C453 H465 0.929 . S
C454 C450 1.531 . S
C454 H466 0.960 . S
C454 H467 0.962 . S
C454 H468 0.960 . S
C455 C452 1.511 . S
C455 H469 0.961 . S
C455 H470 0.961 . S
C455 H471 0.961 . S
C456 C457 1.370 . S
C456 C458 1.363 . S
C456 H472 0.931 . S
C457 C456 1.370 . S
C457 C461 1.408 . S
C458 C456 1.363 . S
C458 C459 1.370 . S
C458 C462 1.524 . S
C459 C451 1.503 . S
C459 C458 1.370 . S
C459 C460 1.403 . S
C460 C459 1.403 . S
C460 C461 1.404 . S
C460 C463 1.539 . S
C461 C457 1.408 . S
C461 C460 1.404 . S
C461 H473 0.930 . S
C462 C458 1.524 . S
C462 H474 0.956 . S
C462 H475 0.961 . S
C462 H476 0.961 . S
C463 C460 1.539 . S
C463 H477 0.958 . S
C463 H478 0.961 . S
C463 H479 0.960 . S
H464 C448 0.931 . S
H465 C453 0.929 . S
H466 C454 0.960 . S
H467 C454 0.962 . S
H468 C454 0.960 . S
H469 C455 0.961 . S
H470 C455 0.961 . S
H471 C455 0.961 . S
H472 C456 0.931 . S
H473 C461 0.930 . S
H474 C462 0.956 . S
H475 C462 0.961 . S
H476 C462 0.961 . S
H477 C463 0.958 . S
H478 C463 0.961 . S
H479 C463 0.960 . S
C480 C481 1.391 . S
C480 C482 1.394 . S
C480 H496 0.931 . S
C481 C480 1.391 . S
C481 C485 1.376 . S
C482 C480 1.394 . S
C482 C483 1.369 . S
C482 C486 1.531 1_455 S
C483 C482 1.369 . S
C483 C484 1.410 . S
C483 C491 1.503 . S
C484 C483 1.410 . S
C484 C485 1.392 . S
C484 C487 1.511 . S
C485 C481 1.376 . S
C485 C484 1.392 . S
C485 H497 0.929 . S
C486 C482 1.531 1_655 S
C486 H498 0.960 . S
C486 H499 0.962 . S
C486 H500 0.960 . S
C487 C484 1.511 . S
C487 H501 0.961 . S
C487 H502 0.961 . S
C487 H503 0.961 . S
C488 C489 1.370 . S
C488 C490 1.363 . S
C488 H504 0.931 . S
C489 C488 1.370 . S
C489 C493 1.408 . S
C490 C488 1.363 . S
C490 C491 1.370 . S
C490 C494 1.524 . S
C491 C483 1.503 . S
C491 C490 1.370 . S
C491 C492 1.403 . S
C492 C491 1.403 . S
C492 C493 1.404 . S
C492 C495 1.539 . S
C493 C489 1.408 . S
C493 C492 1.404 . S
C493 H505 0.930 . S
C494 C490 1.524 . S
C494 H506 0.956 . S
C494 H507 0.961 . S
C494 H508 0.961 . S
C495 C492 1.539 . S
C495 H509 0.958 . S
C495 H510 0.961 . S
C495 H511 0.960 . S
H496 C480 0.931 . S
H497 C485 0.929 . S
H498 C486 0.960 . S
H499 C486 0.962 . S
H500 C486 0.960 . S
H501 C487 0.961 . S
H502 C487 0.961 . S
H503 C487 0.961 . S
H504 C488 0.931 . S
H505 C493 0.930 . S
H506 C494 0.956 . S
H507 C494 0.961 . S
H508 C494 0.961 . S
H509 C495 0.958 . S
H510 C495 0.961 . S
H511 C495 0.960 . S
C512 C513 1.391 . S
C512 C514 1.394 . S
C512 H528 0.931 . S
C513 C512 1.391 . S
C513 C517 1.376 . S
C514 C512 1.394 . S
C514 C515 1.369 . S
C514 C518 1.531 . S
C515 C514 1.369 . S
C515 C516 1.410 . S
C515 C523 1.503 . S
C516 C515 1.410 . S
C516 C517 1.392 . S
C516 C519 1.511 . S
C517 C513 1.376 . S
C517 C516 1.392 . S
C517 H529 0.929 . S
C518 C514 1.531 . S
C518 H530 0.960 . S
C518 H531 0.962 . S
C518 H532 0.960 . S
C519 C516 1.511 . S
C519 H533 0.961 . S
C519 H534 0.961 . S
C519 H535 0.961 . S
C520 C521 1.370 . S
C520 C522 1.363 . S
C520 H536 0.931 . S
C521 C520 1.370 . S
C521 C525 1.408 . S
C522 C520 1.363 . S
C522 C523 1.370 . S
C522 C526 1.524 . S
C523 C515 1.503 . S
C523 C522 1.370 . S
C523 C524 1.403 . S
C524 C523 1.403 . S
C524 C525 1.404 . S
C524 C527 1.539 . S
C525 C521 1.408 . S
C525 C524 1.404 . S
C525 H537 0.930 . S
C526 C522 1.524 . S
C526 H538 0.956 1_545 S
C526 H539 0.961 . S
C526 H540 0.961 1_545 S
C527 C524 1.539 . S
C527 H541 0.958 . S
C527 H542 0.961 . S
C527 H543 0.960 . S
H528 C512 0.931 . S
H529 C517 0.929 . S
H530 C518 0.960 . S
H531 C518 0.962 . S
H532 C518 0.960 . S
H533 C519 0.961 . S
H534 C519 0.961 . S
H535 C519 0.961 . S
H536 C520 0.931 . S
H537 C525 0.930 . S
H538 C526 0.956 1_565 S
H539 C526 0.961 . S
H540 C526 0.961 1_565 S
H541 C527 0.958 . S
H542 C527 0.961 . S
H543 C527 0.960 . S
C544 C545 1.391 . S
C544 C546 1.394 . S
C544 H560 0.931 . S
C545 C544 1.391 . S
C545 C549 1.376 . S
C546 C544 1.394 . S
C546 C547 1.369 . S
C546 C550 1.531 . S
C547 C546 1.369 . S
C547 C548 1.410 . S
C547 C555 1.503 . S
C548 C547 1.410 . S
C548 C549 1.392 . S
C548 C551 1.511 . S
C549 C545 1.376 . S
C549 C548 1.392 . S
C549 H561 0.929 . S
C550 C546 1.531 . S
C550 H562 0.960 . S
C550 H563 0.962 . S
C550 H564 0.960 . S
C551 C548 1.511 . S
C551 H565 0.961 . S
C551 H566 0.961 . S
C551 H567 0.961 . S
C552 C553 1.370 . S
C552 C554 1.363 . S
C552 H568 0.931 . S
C553 C552 1.370 . S
C553 C557 1.408 . S
C554 C552 1.363 . S
C554 C555 1.370 . S
C554 C558 1.524 . S
C555 C547 1.503 . S
C555 C554 1.370 . S
C555 C556 1.403 . S
C556 C555 1.403 . S
C556 C557 1.404 . S
C556 C559 1.539 . S
C557 C553 1.408 . S
C557 C556 1.404 . S
C557 H569 0.930 . S
C558 C554 1.524 . S
C558 H570 0.956 . S
C558 H571 0.961 . S
C558 H572 0.961 . S
C559 C556 1.539 . S
C559 H573 0.958 . S
C559 H574 0.961 . S
C559 H575 0.960 . S
H560 C544 0.931 . S
H561 C549 0.929 . S
H562 C550 0.960 . S
H563 C550 0.962 . S
H564 C550 0.960 . S
H565 C551 0.961 . S
H566 C551 0.961 . S
H567 C551 0.961 . S
H568 C552 0.931 . S
H569 C557 0.930 . S
H570 C558 0.956 . S
H571 C558 0.961 . S
H572 C558 0.961 . S
H573 C559 0.958 . S
H574 C559 0.961 . S
H575 C559 0.960 . S
C576 C577 1.391 . S
C576 C578 1.394 . S
C576 H592 0.931 . S
C577 C576 1.391 . S
C577 C581 1.376 . S
C578 C576 1.394 . S
C578 C579 1.369 . S
C578 C582 1.531 . S
C579 C578 1.369 . S
C579 C580 1.410 . S
C579 C587 1.503 . S
C580 C579 1.410 . S
C580 C581 1.392 . S
C580 C583 1.511 . S
C581 C577 1.376 . S
C581 C580 1.392 . S
C581 H593 0.929 . S
C582 C578 1.531 . S
C582 H594 0.960 . S
C582 H595 0.962 . S
C582 H596 0.960 . S
C583 C580 1.511 . S
C583 H597 0.961 . S
C583 H598 0.961 . S
C583 H599 0.961 1_545 S
C584 C585 1.370 . S
C584 C586 1.363 . S
C584 H600 0.931 . S
C585 C584 1.370 . S
C585 C589 1.408 . S
C586 C584 1.363 . S
C586 C587 1.370 . S
C586 C590 1.524 . S
C587 C579 1.503 . S
C587 C586 1.370 . S
C587 C588 1.403 . S
C588 C587 1.403 . S
C588 C589 1.404 . S
C588 C591 1.539 1_545 S
C589 C585 1.408 . S
C589 C588 1.404 . S
C589 H601 0.930 1_545 S
C590 C586 1.524 . S
C590 H602 0.956 . S
C590 H603 0.961 . S
C590 H604 0.961 . S
C591 C588 1.539 1_565 S
C591 H605 0.958 . S
C591 H606 0.961 . S
C591 H607 0.960 . S
H592 C576 0.931 . S
H593 C581 0.929 . S
H594 C582 0.960 . S
H595 C582 0.962 . S
H596 C582 0.960 . S
H597 C583 0.961 . S
H598 C583 0.961 . S
H599 C583 0.961 1_565 S
H600 C584 0.931 . S
H601 C589 0.930 1_565 S
H602 C590 0.956 . S
H603 C590 0.961 . S
H604 C590 0.961 . S
H605 C591 0.958 . S
H606 C591 0.961 . S
H607 C591 0.960 . S
C608 C609 1.391 . S
C608 C610 1.394 . S
C608 H624 0.934 . S
C609 C608 1.391 . S
C609 C613 1.376 . S
C610 C608 1.394 . S
C610 C611 1.369 . S
C610 C614 1.531 1_554 S
C611 C610 1.369 . S
C611 C612 1.410 . S
C611 C619 1.503 1_554 S
C612 C611 1.410 . S
C612 C613 1.392 . S
C612 C615 1.511 . S
C613 C609 1.376 . S
C613 C612 1.392 . S
C613 H625 0.929 1_655 S
C614 C610 1.531 1_556 S
C614 H626 0.960 . S
C614 H627 0.962 1_556 S
C614 H628 0.960 . S
C615 C612 1.511 . S
C615 H629 0.961 . S
C615 H630 0.961 . S
C615 H631 0.958 . S
C616 C617 1.370 . S
C616 C618 1.331 1_556 S
C616 H632 0.931 . S
C617 C616 1.370 . S
C617 C621 1.408 . S
C618 C616 1.331 1_554 S
C618 C619 1.337 1_554 S
C618 C622 1.593 . S
C619 C611 1.503 1_556 S
C619 C618 1.337 1_556 S
C619 C620 1.403 . S
C620 C619 1.403 . S
C620 C621 1.404 . S
C620 C623 1.539 . S
C621 C617 1.408 . S
C621 C620 1.404 . S
C621 H633 0.930 . S
C622 C618 1.593 . S
C622 H634 0.956 . S
C622 H635 0.961 . S
C622 H636 0.961 . S
C623 C620 1.539 . S
C623 H637 0.958 . S
C623 H638 0.961 . S
C623 H639 0.960 . S
H624 C608 0.934 . S
H625 C613 0.929 1_455 S
H626 C614 0.960 . S
H627 C614 0.962 1_554 S
H628 C614 0.960 . S
H629 C615 0.961 . S
H630 C615 0.961 . S
H631 C615 0.958 . S
H632 C616 0.931 . S
H633 C621 0.930 . S
H634 C622 0.956 . S
H635 C622 0.961 . S
H636 C622 0.961 . S
H637 C623 0.958 . S
H638 C623 0.961 . S
H639 C623 0.960 . S
C640 C641 1.391 . S
C640 C642 1.394 . S
C640 H656 0.931 . S
C641 C640 1.391 . S
C641 C645 1.376 1_455 S
C642 C640 1.394 . S
C642 C643 1.369 . S
C642 C646 1.531 . S
C643 C642 1.369 . S
C643 C644 1.410 1_455 S
C643 C651 1.503 . S
C644 C643 1.410 1_655 S
C644 C645 1.392 . S
C644 C647 1.511 . S
C645 C641 1.376 1_655 S
C645 C644 1.392 . S
C645 H657 0.929 . S
C646 C642 1.531 . S
C646 H658 0.960 . S
C646 H659 0.962 . S
C646 H660 0.960 . S
C647 C644 1.511 . S
C647 H661 0.961 . S
C647 H662 0.961 . S
C647 H663 0.961 . S
C648 C649 1.370 . S
C648 C650 1.363 . S
C648 H664 0.931 . S
C649 C648 1.370 . S
C649 C653 1.408 1_455 S
C650 C648 1.363 . S
C650 C651 1.370 . S
C650 C654 1.524 . S
C651 C643 1.503 . S
C651 C650 1.370 . S
C651 C652 1.403 1_455 S
C652 C651 1.403 1_655 S
C652 C653 1.404 . S
C652 C655 1.539 . S
C653 C649 1.408 1_655 S
C653 C652 1.404 . S
C653 H665 0.930 . S
C654 C650 1.524 . S
C654 H666 0.956 . S
C654 H667 0.961 . S
C654 H668 0.961 . S
C655 C652 1.539 . S
C655 H669 0.958 . S
C655 H670 0.961 . S
C655 H671 0.960 . S
H656 C640 0.931 . S
H657 C645 0.929 . S
H658 C646 0.960 . S
H659 C646 0.962 . S
H660 C646 0.960 . S
H661 C647 0.961 . S
H662 C647 0.961 . S
H663 C647 0.961 . S
H664 C648 0.931 . S
H665 C653 0.930 . S
H666 C654 0.956 . S
H667 C654 0.961 . S
H668 C654 0.961 . S
H669 C655 0.958 . S
H670 C655 0.961 . S
H671 C655 0.960 . S
C672 C673 1.391 1_565 S
C672 C674 1.394 1_565 S
C672 H688 0.931 . S
C673 C672 1.391 1_545 S
C673 C677 1.376 . S
C674 C672 1.394 1_545 S
C674 C675 1.369 . S
C674 C678 1.531 1_545 S
C675 C674 1.369 . S
C675 C676 1.410 . S
C675 C683 1.503 . S
C676 C675 1.410 . S
C676 C677 1.392 . S
C676 C679 1.511 . S
C677 C673 1.376 . S
C677 C676 1.392 . S
C677 H689 0.929 . S
C678 C674 1.531 1_565 S
C678 H690 0.960 1_565 S
C678 H691 0.962 . S
C678 H692 0.960 . S
C679 C676 1.511 . S
C679 H693 0.961 . S
C679 H694 0.961 . S
C679 H695 0.961 . S
C680 C681 1.370 1_565 S
C680 C682 1.363 . S
C680 H696 0.931 . S
C681 C680 1.370 1_545 S
C681 C685 1.408 . S
C682 C680 1.363 . S
C682 C683 1.370 1_565 S
C682 C686 1.524 . S
C683 C675 1.503 . S
C683 C682 1.370 1_545 S
C683 C684 1.403 . S
C684 C683 1.403 . S
C684 C685 1.404 . S
C684 C687 1.539 . S
C685 C681 1.408 . S
C685 C684 1.404 . S
C685 H697 0.930 . S
C686 C682 1.524 . S
C686 H698 0.956 . S
C686 H699 0.961 . S
C686 H700 0.961 . S
C687 C684 1.539 . S
C687 H701 0.958 . S
C687 H702 0.961 . S
C687 H703 0.960 . S
H688 C672 0.931 . S
H689 C677 0.929 . S
H690 C678 0.960 1_545 S
H691 C678 0.962 . S
H692 C678 0.960 . S
H693 C679 0.961 . S
H694 C679 0.961 . S
H695 C679 0.961 . S
H696 C680 0.931 . S
H697 C685 0.930 . S
H698 C686 0.956 . S
H699 C686 0.961 . S
H700 C686 0.961 . S
H701 C687 0.958 . S
H702 C687 0.961 . S
H703 C687 0.960 . S
C704 C705 1.391 . S
C704 C706 1.394 . S
C704 H720 0.931 . S
C705 C704 1.391 . S
C705 C709 1.376 . S
C706 C704 1.394 . S
C706 C707 1.382 . S
C706 C710 1.531 . S
C707 C706 1.382 . S
C707 C708 1.408 1_554 S
C707 C715 1.492 1_554 S
C708 C707 1.408 1_556 S
C708 C709 1.392 1_556 S
C708 C711 1.511 . S
C709 C705 1.376 . S
C709 C708 1.392 1_554 S
C709 H721 0.929 . S
C710 C706 1.531 . S
C710 H722 0.960 . S
C710 H723 0.962 . S
C710 H724 0.960 . S
C711 C708 1.511 . S
C711 H725 0.961 . S
C711 H726 0.961 . S
C711 H727 0.961 . S
C712 C713 1.370 . S
C712 C714 1.363 . S
C712 H728 0.931 . S
C713 C712 1.370 . S
C713 C717 1.408 . S
C714 C712 1.363 . S
C714 C715 1.370 . S
C714 C718 1.524 1_556 S
C715 C707 1.492 1_556 S
C715 C714 1.370 . S
C715 C716 1.403 . S
C716 C715 1.403 . S
C716 C717 1.404 . S
C716 C719 1.539 . S
C717 C713 1.408 . S
C717 C716 1.404 . S
C717 H729 0.930 . S
C718 C714 1.524 1_554 S
C718 H730 0.956 . S
C718 H731 0.961 . S
C718 H732 0.961 . S
C719 C716 1.539 . S
C719 H733 0.958 . S
C719 H734 0.961 . S
C719 H735 0.960 . S
H720 C704 0.931 . S
H721 C709 0.929 . S
H722 C710 0.960 . S
H723 C710 0.962 . S
H724 C710 0.960 . S
H725 C711 0.961 . S
H726 C711 0.961 . S
H727 C711 0.961 . S
H728 C712 0.931 . S
H729 C717 0.930 . S
H730 C718 0.956 . S
H731 C718 0.961 . S
H732 C718 0.961 . S
H733 C719 0.958 . S
H734 C719 0.961 . S
H735 C719 0.960 . S
C736 C737 1.391 . S
C736 C738 1.394 . S
C736 H752 0.931 1_455 S
C737 C736 1.391 . S
C737 C741 1.376 . S
C738 C736 1.394 . S
C738 C739 1.369 . S
C738 C742 1.531 1_455 S
C739 C738 1.369 . S
C739 C740 1.410 . S
C739 C747 1.503 . S
C740 C739 1.410 . S
C740 C741 1.392 . S
C740 C743 1.511 . S
C741 C737 1.376 . S
C741 C740 1.392 . S
C741 H753 0.929 . S
C742 C738 1.531 1_655 S
C742 H754 0.960 . S
C742 H755 0.962 . S
C742 H756 0.960 . S
C743 C740 1.511 . S
C743 H757 0.961 . S
C743 H758 0.961 . S
C743 H759 0.961 . S
C744 C745 1.370 . S
C744 C746 1.363 . S
C744 H760 0.931 . S
C745 C744 1.370 . S
C745 C749 1.408 . S
C746 C744 1.363 . S
C746 C747 1.370 . S
C746 C750 1.524 . S
C747 C739 1.503 . S
C747 C746 1.370 . S
C747 C748 1.403 . S
C748 C747 1.403 . S
C748 C749 1.404 . S
C748 C751 1.539 . S
C749 C745 1.408 . S
C749 C748 1.404 . S
C749 H761 0.930 . S
C750 C746 1.524 . S
C750 H762 0.956 1_455 S
C750 H763 0.961 . S
C750 H764 0.961 . S
C751 C748 1.539 . S
C751 H765 0.958 . S
C751 H766 0.961 . S
C751 H767 0.960 . S
H752 C736 0.931 1_655 S
H753 C741 0.929 . S
H754 C742 0.960 . S
H755 C742 0.962 . S
H756 C742 0.960 . S
H757 C743 0.961 . S
H758 C743 0.961 . S
H759 C743 0.961 . S
H760 C744 0.931 . S
H761 C749 0.930 . S
H762 C750 0.956 1_655 S
H763 C750 0.961 . S
H764 C750 0.961 . S
H765 C751 0.958 . S
H766 C751 0.961 . S
H767 C751 0.960 . S
C393 C97 1.001 . S
C385 C11 1.348 . S
C417 C25 1.457 . S
C425 C211 1.119 . S
C449 C41 1.185 . S
C457 C271 1.067 . S
C481 C7 1.265 1_565 S
C489 C71 1.068 . S
C521 C185 1.119 . S
C513 C21 1.346 . S
C545 C36 1.405 . S
C553 C281 0.783 . S
C585 C167 0.863 . S
C577 C39 1.327 . S
C609 C8 1.294 1_665 S
C617 C299 1.115 . S
C649 C43 1.035 . S
C641 C22 1.330 1_565 S
C681 C157 1.031 . S
C673 C35 1.255 . S
C713 C325 1.060 . S
C705 C13 1.377 . S
C737 C27 1.390 . S
C745 C53 0.832 . S
