# Generated by pormake.
# Topology pts, (4,4)-cn, num edge types: 1
# Building blocks:
#     Node 0, Type 0, BuildingBlock: AZAVOO_clean_linker_0, # of connection points: 4
#     Node 1, Type 0, BuildingBlock: AZAVOO_clean_linker_0, # of connection points: 4
#     Node 2, Type 1, BuildingBlock: UXUYUI_clean_sbu_0, # of connection points: 4
#     Node 3, Type 1, BuildingBlock: UXUYUI_clean_sbu_0, # of connection points: 4
#     Edge 4, Type (0, 1), BuildingBlock: XUDNAN_clean_linker_2, # of connection points: 2
#     Edge 5, Type (0, 1), BuildingBlock: XUDNAN_clean_linker_2, # of connection points: 2
#     Edge 6, Type (0, 1), BuildingBlock: XUDNAN_clean_linker_2, # of connection points: 2
#     Edge 7, Type (0, 1), BuildingBlock: XUDNAN_clean_linker_2, # of connection points: 2
#     Edge 8, Type (0, 1), BuildingBlock: XUDNAN_clean_linker_2, # of connection points: 2
#     Edge 9, Type (0, 1), BuildingBlock: XUDNAN_clean_linker_2, # of connection points: 2
#     Edge 10, Type (0, 1), BuildingBlock: XUDNAN_clean_linker_2, # of connection points: 2
#     Edge 11, Type (0, 1), BuildingBlock: XUDNAN_clean_linker_2, # of connection points: 2
# Relax obj value: 0.120
# Max RMSD: 0.231
# Mean RMSD: 0.163
data_MOF--net-pts--node1-UXUYUI_clean_sbu_0--node2-AZAVOO_clean_linker_0--edge1-XUDNAN_clean_linker_2
_symmetry_space_group_name_H-M    P1
_symmetry_Int_Tables_number       1
_symmetry_cell_setting            triclinic
loop_
_symmetry_equiv_pos_as_xyz
'x, y, z'
_cell_length_a     32.277944
_cell_length_b     32.292376
_cell_length_c     55.593604
_cell_angle_alpha  91.504765
_cell_angle_beta   91.486628
_cell_angle_gamma 90.018171
loop_
_atom_site_label
_atom_site_type_symbol
_atom_site_fract_x
_atom_site_fract_y
_atom_site_fract_z
_atom_type_partial_charge
H0 H 0.46225 0.09782 0.85577 0.0
H1 H 0.82139 0.03128 0.03739 0.0
H2 H 0.46842 0.12412 0.98906 0.0
H3 H 0.40153 0.13157 0.96846 0.0
H4 H 0.37842 0.00066 0.97594 0.0
H5 H 0.44651 0.99347 0.99617 0.0
H6 H 0.537 0.1194 0.95231 0.0
H7 H 0.50952 0.12231 0.91093 0.0
H8 H 0.4725 0.99385 0.91393 0.0
H9 H 0.50068 0.99124 0.95516 0.0
H10 H 0.62239 0.12248 0.97662 0.0
H11 H 0.66962 0.13012 0.94323 0.0
H12 H 0.64825 0.00222 0.9216 0.0
H13 H 0.60117 0.99483 0.95521 0.0
H14 H 0.63369 0.11799 0.03423 0.0
H15 H 0.70729 0.12185 0.04575 0.0
H16 H 0.72569 0.99962 0.01417 0.0
H17 H 0.65189 0.99591 0.00309 0.0
H18 H 0.55085 0.1093 0.06586 0.0
H19 H 0.59152 0.11915 0.10318 0.0
H20 H 0.65548 0.00383 0.08828 0.0
H21 H 0.61197 0.9927 0.05242 0.0
H22 H 0.45981 0.10444 0.03946 0.0
H23 H 0.40468 0.09192 0.06759 0.0
H24 H 0.45902 0.97295 0.08354 0.0
H25 H 0.51202 0.98455 0.05397 0.0
O26 O 0.47357 0.0958 0.87199 0.0
O27 O 0.45415 0.03005 0.87473 0.0
O28 O 0.78108 0.09339 0.04893 0.0
O29 O 0.79224 0.03074 0.03283 0.0
C30 C 0.50664 0.05316 1.00076 0.0
C31 C 0.53569 0.0539 0.98218 0.0
C32 C 0.57843 0.05439 0.98783 0.0
C33 C 0.59233 0.05354 0.01206 0.0
C34 C 0.56334 0.05054 0.03074 0.0
C35 C 0.52027 0.05032 0.02507 0.0
C36 C 0.46219 0.05831 0.99412 0.0
C37 C 0.44833 0.0973 0.98692 0.0
C38 C 0.41 0.10146 0.97514 0.0
C39 C 0.38463 0.06664 0.97038 0.0
C40 C 0.39748 0.02797 0.97906 0.0
C41 C 0.43605 0.02385 0.99088 0.0
C42 C 0.52093 0.05508 0.95665 0.0
C43 C 0.52337 0.09182 0.94387 0.0
C44 C 0.50746 0.09343 0.9203 0.0
C45 C 0.4887 0.05833 0.90914 0.0
C46 C 0.4867 0.02145 0.92198 0.0
C47 C 0.50279 0.01985 0.94551 0.0
C48 C 0.60853 0.05812 0.96829 0.0
C49 C 0.62819 0.09608 0.96475 0.0
C50 C 0.65484 0.10045 0.94561 0.0
C51 C 0.66241 0.06681 0.92976 0.0
C52 C 0.64319 0.02856 0.93363 0.0
C53 C 0.61627 0.02432 0.95271 0.0
C54 C 0.63747 0.05664 0.01789 0.0
C55 C 0.6537 0.09213 0.02979 0.0
C56 C 0.69574 0.09424 0.03634 0.0
C57 C 0.72237 0.06099 0.03092 0.0
C58 C 0.70605 0.02575 0.01864 0.0
C59 C 0.66396 0.0236 0.01219 0.0
C60 C 0.57896 0.05064 0.05617 0.0
C61 C 0.57239 0.08534 0.07126 0.0
C62 C 0.59637 0.09128 0.09238 0.0
C63 C 0.62805 0.06309 0.0985 0.0
C64 C 0.63158 0.02637 0.08444 0.0
C65 C 0.60678 0.01995 0.06373 0.0
C66 C 0.48956 0.0451 0.04427 0.0
C67 C 0.4596 0.07556 0.04892 0.0
C68 C 0.42835 0.06852 0.06529 0.0
C69 C 0.4269 0.03114 0.07775 0.0
C70 C 0.45831 0.00161 0.07387 0.0
C71 C 0.48905 0.00839 0.05718 0.0
C72 C 0.47109 0.06036 0.88426 0.0
C73 C 0.76695 0.06286 0.03812 0.0
H74 H 0.01285 0.44952 0.35605 0.0
H75 H 0.09075 0.81671 0.54116 0.0
H76 H 0.99387 0.45568 0.48459 0.0
H77 H 0.99968 0.38791 0.46431 0.0
H78 H 0.13094 0.38662 0.48188 0.0
H79 H 0.12446 0.45394 0.50262 0.0
H80 H 0.99092 0.53105 0.45012 0.0
H81 H 0.98824 0.50107 0.40918 0.0
H82 H 0.11776 0.46811 0.41628 0.0
H83 H 0.12007 0.49858 0.45707 0.0
H84 H 0.99369 0.62584 0.47079 0.0
H85 H 0.9945 0.67192 0.43643 0.0
H86 H 0.12146 0.63696 0.42359 0.0
H87 H 0.12015 0.59086 0.45776 0.0
H88 H 0.99147 0.63593 0.52777 0.0
H89 H 0.99106 0.70937 0.53981 0.0
H90 H 0.11811 0.7203 0.51791 0.0
H91 H 0.11819 0.64668 0.50618 0.0
H92 H 0.99466 0.56427 0.5615 0.0
H93 H 0.99074 0.60723 0.59836 0.0
H94 H 0.11866 0.64321 0.5909 0.0
H95 H 0.12199 0.60069 0.55395 0.0
H96 H 0.00158 0.46189 0.53747 0.0
H97 H 0.00682 0.41287 0.57036 0.0
H98 H 0.12737 0.46247 0.59073 0.0
H99 H 0.12224 0.51081 0.55759 0.0
O100 O 0.01479 0.46203 0.37205 0.0
O101 O 0.08193 0.44762 0.37619 0.0
O102 O 0.02397 0.78095 0.5461 0.0
O103 O 0.08978 0.78786 0.536 0.0
C104 C 0.05739 0.50461 0.50097 0.0
C105 C 0.05641 0.53273 0.48186 0.0
C106 C 0.056 0.57576 0.48678 0.0
C107 C 0.05601 0.59077 0.51082 0.0
C108 C 0.05773 0.56271 0.52998 0.0
C109 C 0.05854 0.5195 0.52511 0.0
C110 C 0.05875 0.45963 0.49501 0.0
C111 C 0.02353 0.43999 0.48479 0.0
C112 C 0.02706 0.40158 0.47293 0.0
C113 C 0.06594 0.38225 0.47105 0.0
C114 C 0.10052 0.40052 0.48308 0.0
C115 C 0.0969 0.43893 0.49503 0.0
C116 C 0.05563 0.51683 0.45652 0.0
C117 C 0.01874 0.51766 0.44269 0.0
C118 C 0.01727 0.50036 0.41937 0.0
C119 C 0.05275 0.48202 0.40949 0.0
C120 C 0.08986 0.4819 0.42334 0.0
C121 C 0.09128 0.49926 0.44663 0.0
C122 C 0.05681 0.60498 0.46666 0.0
C123 C 0.02168 0.6284 0.4606 0.0
C124 C 0.02226 0.65473 0.44103 0.0
C125 C 0.05798 0.65789 0.4272 0.0
C126 C 0.09326 0.63469 0.43361 0.0
C127 C 0.09266 0.60853 0.45317 0.0
C128 C 0.05484 0.63608 0.51611 0.0
C129 C 0.01907 0.65434 0.52545 0.0
C130 C 0.01896 0.69625 0.53234 0.0
C131 C 0.05464 0.72069 0.52991 0.0
C132 C 0.09016 0.70238 0.52007 0.0
C133 C 0.09024 0.66041 0.51323 0.0
C134 C 0.05853 0.57957 0.55507 0.0
C135 C 0.02215 0.5804 0.5683 0.0
C136 C 0.01998 0.60504 0.5893 0.0
C137 C 0.05422 0.62914 0.59732 0.0
C138 C 0.09154 0.62564 0.58493 0.0
C139 C 0.09366 0.60105 0.56399 0.0
C140 C 0.06147 0.49003 0.54516 0.0
C141 C 0.02921 0.46198 0.54895 0.0
C142 C 0.03228 0.43399 0.56769 0.0
C143 C 0.06748 0.43392 0.58314 0.0
C144 C 0.09968 0.46214 0.5793 0.0
C145 C 0.09679 0.48975 0.5604 0.0
C146 C 0.05089 0.46288 0.38492 0.0
C147 C 0.05501 0.76496 0.53781 0.0
Li148 Li 0.05327 0.07808 0.27527 0.0
Li149 Li 0.04144 0.0061 0.26963 0.0
Li150 Li 0.08252 0.04206 0.24043 0.0
Li151 Li 0.00362 0.05321 0.24381 0.0
C152 C 0.11492 0.02837 0.29634 0.0
N153 N 0.15378 0.01748 0.34057 0.0
C154 C 0.09148 0.02458 0.31693 0.0
C155 C 0.15812 0.02648 0.29819 0.0
C156 C 0.11168 0.01912 0.33914 0.0
C157 C 0.1772 0.02101 0.32073 0.0
C158 C 0.96796 0.03886 0.29251 0.0
C159 C 0.8988 0.01173 0.29618 0.0
N160 N 0.90147 0.01894 0.32038 0.0
C161 C 0.9698 0.04641 0.3174 0.0
C162 C 0.93199 0.02173 0.28178 0.0
C163 C 0.93596 0.03595 0.33118 0.0
C164 C 0.02893 0.13983 0.3086 0.0
N165 N 0.06259 0.12094 0.29907 0.0
C166 C 0.1078 0.15763 0.32687 0.0
C167 C 0.10162 0.13005 0.30734 0.0
C168 C 0.07348 0.17629 0.33776 0.0
C169 C 0.03368 0.16783 0.32804 0.0
H170 H 0.99826 0.13217 0.30153 0.0
H171 H 0.12793 0.11516 0.29915 0.0
C172 C 0.07641 0.93217 0.28512 0.0
N173 N 0.04037 0.95395 0.28554 0.0
C174 C 0.08001 0.89472 0.29694 0.0
C175 C 0.00909 0.90222 0.30918 0.0
C176 C 0.00679 0.93944 0.29699 0.0
C177 C 0.04618 0.87953 0.3094 0.0
H178 H 0.1026 0.94419 0.27575 0.0
H179 H 0.97819 0.9565 0.2968 0.0
C180 C 0.06096 0.13532 0.24425 0.0
N181 N 0.08378 0.21668 0.25371 0.0
C182 C 0.03065 0.16576 0.24729 0.0
C183 C 0.10286 0.14622 0.24594 0.0
C184 C 0.04283 0.20673 0.25208 0.0
C185 C 0.11377 0.18754 0.25074 0.0
C186 C 0.02852 0.96101 0.23074 0.0
C187 C 0.06111 0.93457 0.2247 0.0
C188 C 0.98923 0.94451 0.23444 0.0
C189 C 0.05397 0.89192 0.22279 0.0
C190 C 0.98333 0.9017 0.23237 0.0
N191 N 0.01557 0.8765 0.22666 0.0
C192 C 0.15621 0.00742 0.22396 0.0
C193 C 0.13159 0.06312 0.2006 0.0
C194 C 0.18941 0.00121 0.20868 0.0
N195 N 0.1279 0.03756 0.21948 0.0
C196 C 0.16473 0.05839 0.18503 0.0
C197 C 0.19381 0.0267 0.18883 0.0
H198 H 0.15263 0.98783 0.23926 0.0
H199 H 0.1086 0.0869 0.19752 0.0
C200 C 0.92766 0.09407 0.23463 0.0
N201 N 0.95322 0.06352 0.22662 0.0
C202 C 0.8897 0.10109 0.22279 0.0
C203 C 0.90489 0.04473 0.19491 0.0
C204 C 0.94272 0.03907 0.20714 0.0
C205 C 0.87784 0.07611 0.2027 0.0
H206 H 0.93657 0.11257 0.25042 0.0
H207 H 0.96366 0.01498 0.20119 0.0
O208 O 0.09588 0.03402 0.2744 0.0
O209 O 0.00061 0.04949 0.27868 0.0
O210 O 0.04976 0.09484 0.24033 0.0
O211 O 0.0352 0.00273 0.23347 0.0
H212 H 0.05809 0.02565 0.31574 0.0
H213 H 0.17669 0.02937 0.28238 0.0
H214 H 0.09389 0.01614 0.35523 0.0
H215 H 0.21063 0.01958 0.32245 0.0
H216 H 0.8709 0.99824 0.28811 0.0
H217 H 0.99696 0.0604 0.32604 0.0
H218 H 0.92972 0.0159 0.26258 0.0
H219 H 0.93706 0.04149 0.35046 0.0
H220 H 0.13905 0.16389 0.33356 0.0
H221 H 0.00638 0.1814 0.33596 0.0
H222 H 0.10929 0.87836 0.2968 0.0
H223 H 0.98207 0.89123 0.31825 0.0
H224 H 0.99811 0.15776 0.24616 0.0
H225 H 0.12669 0.1229 0.2439 0.0
H226 H 0.01972 0.23061 0.25458 0.0
H227 H 0.14607 0.1964 0.25223 0.0
H228 H 0.09167 0.94677 0.22172 0.0
H229 H 0.96366 0.9645 0.2391 0.0
H230 H 0.07899 0.87107 0.21828 0.0
H231 H 0.95315 0.8885 0.23536 0.0
H232 H 0.21145 0.97674 0.21237 0.0
H233 H 0.16699 0.07851 0.16983 0.0
H234 H 0.86955 0.12534 0.2295 0.0
H235 H 0.89711 0.02513 0.17933 0.0
Li236 Li 0.00549 0.0487 0.76948 0.0
Li237 Li 0.0807 0.04602 0.7746 0.0
Li238 Li 0.0503 0.084 0.74089 0.0
Li239 Li 0.0457 0.00833 0.7424 0.0
C240 C 0.05301 0.11486 0.79709 0.0
N241 N 0.07438 0.15155 0.84112 0.0
C242 C 0.04382 0.09511 0.81839 0.0
C243 C 0.07284 0.15335 0.79817 0.0
C244 C 0.05495 0.11414 0.84047 0.0
C245 C 0.08342 0.17138 0.82062 0.0
C246 C 0.05019 0.95987 0.7793 0.0
C247 C 0.1 0.90453 0.77557 0.0
N248 N 0.07001 0.8767 0.78058 0.0
C249 C 0.01991 0.93073 0.78453 0.0
C250 C 0.09061 0.94671 0.77486 0.0
C251 C 0.03054 0.88882 0.78506 0.0
C252 C 0.92935 0.02079 0.78826 0.0
N253 N 0.9546 0.05405 0.78591 0.0
C254 C 0.90777 0.09767 0.80739 0.0
C255 C 0.94434 0.09209 0.79494 0.0
C256 C 0.88139 0.06378 0.81057 0.0
C257 C 0.89245 0.02492 0.80073 0.0
H258 H 0.93779 0.99116 0.78038 0.0
H259 H 0.96459 0.1182 0.79245 0.0
C260 C 0.1513 0.08072 0.79843 0.0
N261 N 0.12396 0.04869 0.79862 0.0
C262 C 0.17929 0.0874 0.81774 0.0
C263 C 0.15212 0.02658 0.83634 0.0
C264 C 0.12395 0.02171 0.81701 0.0
C265 C 0.17959 0.06022 0.83702 0.0
H266 H 0.1501 0.10209 0.78376 0.0
H267 H 0.10105 0.99733 0.81717 0.0
C268 C 0.96112 0.0605 0.73055 0.0
N269 N 0.8796 0.08611 0.72648 0.0
C270 C 0.9302 0.03246 0.72291 0.0
C271 C 0.95058 0.10161 0.73602 0.0
C272 C 0.88916 0.046 0.72099 0.0
C273 C 0.9092 0.11394 0.73387 0.0
C274 C 0.1133 0.04204 0.71811 0.0
C275 C 0.08702 0.04112 0.69771 0.0
C276 C 0.15621 0.04202 0.7154 0.0
C277 C 0.1042 0.04003 0.67489 0.0
C278 C 0.17219 0.04089 0.69228 0.0
N279 N 0.14607 0.03993 0.67267 0.0
C280 C 0.08927 0.15713 0.72715 0.0
C281 C 0.0308 0.1384 0.70261 0.0
C282 C 0.09483 0.19309 0.71418 0.0
N283 N 0.05726 0.13107 0.72144 0.0
C284 C 0.03493 0.1742 0.6893 0.0
C285 C 0.06704 0.20246 0.69517 0.0
H286 H 0.11036 0.15002 0.74191 0.0
H287 H 0.00611 0.11673 0.6981 0.0
C288 C 0.00863 0.93554 0.72344 0.0
N289 N 0.04493 0.95691 0.72426 0.0
C290 C 0.00614 0.89645 0.71216 0.0
C291 C 0.07854 0.90193 0.7027 0.0
C292 C 0.0797 0.9408 0.71434 0.0
C293 C 0.04143 0.87914 0.70161 0.0
H294 H 0.98187 0.94839 0.7322 0.0
H295 H 0.10868 0.95746 0.71601 0.0
O296 O 0.04366 0.09602 0.7753 0.0
O297 O 0.0402 0.00094 0.7779 0.0
O298 O 0.00134 0.04764 0.73324 0.0
O299 O 0.09744 0.04345 0.7407 0.0
H300 H 0.02881 0.0651 0.81785 0.0
H301 H 0.08019 0.16903 0.78186 0.0
H302 H 0.0483 0.09908 0.8571 0.0
H303 H 0.09892 0.2011 0.82173 0.0
H304 H 0.13108 0.89391 0.772 0.0
H305 H 0.98851 0.94029 0.78801 0.0
H306 H 0.11433 0.96881 0.77053 0.0
H307 H 0.00737 0.86591 0.78897 0.0
H308 H 0.90063 0.12809 0.81484 0.0
H309 H 0.87265 0.99815 0.80249 0.0
H310 H 0.20003 0.11379 0.81782 0.0
H311 H 0.15121 0.00543 0.85112 0.0
H312 H 0.93771 0.00061 0.71849 0.0
H313 H 0.97402 0.12359 0.74229 0.0
H314 H 0.86491 0.02461 0.71515 0.0
H315 H 0.9006 0.14558 0.73821 0.0
H316 H 0.05375 0.04113 0.69938 0.0
H317 H 0.17695 0.04286 0.73104 0.0
H318 H 0.08425 0.03926 0.65895 0.0
H319 H 0.20535 0.04081 0.68992 0.0
H320 H 0.12066 0.21328 0.71903 0.0
H321 H 0.01255 0.18007 0.67495 0.0
H322 H 0.9769 0.87996 0.71171 0.0
H323 H 0.10667 0.88936 0.69522 0.0
H324 H 0.38477 0.08589 0.1075 0.0
H325 H 0.38898 0.95627 0.08453 0.0
H326 H 0.3314 0.94118 0.11107 0.0
H327 H 0.35851 0.07048 0.16897 0.0
H328 H 0.32352 0.11392 0.17038 0.0
H329 H 0.36647 0.1145 0.15034 0.0
H330 H 0.31591 0.12727 0.11434 0.0
H331 H 0.27279 0.12675 0.13426 0.0
H332 H 0.27335 0.09199 0.10836 0.0
H333 H 0.27348 0.93972 0.14011 0.0
H334 H 0.21707 0.95281 0.16853 0.0
H335 H 0.24726 0.0838 0.17081 0.0
C336 C 0.37352 0.05434 0.10785 0.0
C337 C 0.39207 0.02225 0.09401 0.0
C338 C 0.37631 0.98135 0.09534 0.0
C339 C 0.34327 0.97244 0.11024 0.0
C340 C 0.32583 0.00478 0.12356 0.0
C341 C 0.34017 0.04495 0.1224 0.0
C342 C 0.31511 0.07418 0.13809 0.0
C343 C 0.34255 0.09446 0.15813 0.0
C344 C 0.29298 0.10698 0.12285 0.0
C345 C 0.28447 0.04411 0.14823 0.0
C346 C 0.29144 0.00418 0.13974 0.0
C347 C 0.26765 0.97086 0.14685 0.0
C348 C 0.23583 0.97856 0.16305 0.0
C349 C 0.22784 0.01927 0.17182 0.0
C350 C 0.25247 0.05243 0.16421 0.0
H351 H 0.04983 0.35068 0.58205 0.0
H352 H 0.09206 0.45142 0.62973 0.0
H353 H 0.09731 0.40312 0.66344 0.0
H354 H 0.98781 0.29879 0.62485 0.0
H355 H 0.00149 0.24752 0.6142 0.0
H356 H 0.00115 0.29 0.59384 0.0
H357 H 0.07742 0.27427 0.58338 0.0
H358 H 0.078 0.23174 0.60371 0.0
H359 H 0.11622 0.2723 0.60724 0.0
H360 H 0.0962 0.34433 0.6921 0.0
H361 H 0.09045 0.27896 0.71363 0.0
H362 H 0.0517 0.2157 0.64684 0.0
C363 C 0.05994 0.36258 0.59963 0.0
C364 C 0.07053 0.40479 0.60331 0.0
C365 C 0.08417 0.41912 0.62649 0.0
C366 C 0.08708 0.39198 0.64574 0.0
C367 C 0.07647 0.35055 0.64149 0.0
C368 C 0.06335 0.33584 0.619 0.0
C369 C 0.05426 0.28982 0.61921 0.0
C370 C 0.00846 0.28104 0.61264 0.0
C371 C 0.08321 0.26561 0.60239 0.0
C372 C 0.06401 0.28101 0.64538 0.0
C373 C 0.07669 0.31647 0.65792 0.0
C374 C 0.08669 0.31626 0.68243 0.0
C375 C 0.08362 0.2788 0.69447 0.0
C376 C 0.07091 0.24186 0.68199 0.0
C377 C 0.06113 0.24327 0.65705 0.0
H378 H 0.67254 0.01056 0.12828 0.0
H379 H 0.65853 0.14047 0.11104 0.0
H380 H 0.71647 0.15819 0.13884 0.0
H381 H 0.70768 0.02505 0.19136 0.0
H382 H 0.74501 0.9837 0.18925 0.0
H383 H 0.69816 0.98165 0.1709 0.0
H384 H 0.74186 0.97337 0.13263 0.0
H385 H 0.7888 0.97565 0.1508 0.0
H386 H 0.78094 0.01144 0.12676 0.0
H387 H 0.77972 0.16173 0.16582 0.0
H388 H 0.84468 0.15012 0.18917 0.0
H389 H 0.82094 0.0178 0.1866 0.0
C390 C 0.68124 0.04283 0.13041 0.0
C391 C 0.66011 0.07403 0.11751 0.0
C392 C 0.67291 0.11587 0.12112 0.0
C393 C 0.70623 0.12635 0.13678 0.0
C394 C 0.72689 0.09472 0.14863 0.0
C395 C 0.71496 0.05379 0.14563 0.0
C396 C 0.74464 0.02536 0.15881 0.0
C397 C 0.72255 0.00261 0.17877 0.0
C398 C 0.76528 0.99466 0.14119 0.0
C399 C 0.77556 0.05668 0.16927 0.0
C400 C 0.76439 0.09656 0.1635 0.0
C401 C 0.78861 0.13067 0.17064 0.0
C402 C 0.82537 0.12379 0.18394 0.0
C403 C 0.83782 0.0831 0.1897 0.0
C404 C 0.81233 0.04923 0.18234 0.0
H405 H 0.08291 0.70883 0.59858 0.0
H406 H 0.01486 0.62104 0.64026 0.0
H407 H 0.00475 0.67528 0.67186 0.0
H408 H 0.13572 0.76132 0.64921 0.0
H409 H 0.13216 0.81139 0.63573 0.0
H410 H 0.13481 0.76524 0.61691 0.0
H411 H 0.06692 0.78634 0.59473 0.0
H412 H 0.06364 0.83238 0.61355 0.0
H413 H 0.02101 0.79625 0.61175 0.0
H414 H 0.00072 0.73993 0.69834 0.0
H415 H 0.00393 0.80949 0.71797 0.0
H416 H 0.07509 0.85428 0.65879 0.0
C417 C 0.0666 0.70069 0.61458 0.0
C418 C 0.04999 0.66056 0.61708 0.0
C419 C 0.02775 0.6516 0.63795 0.0
C420 C 0.02199 0.68214 0.65601 0.0
C421 C 0.03864 0.72143 0.65287 0.0
C422 C 0.06061 0.73069 0.6327 0.0
C423 C 0.07458 0.77546 0.63335 0.0
C424 C 0.12214 0.77851 0.63384 0.0
C425 C 0.05537 0.79899 0.61209 0.0
C426 C 0.05693 0.7901 0.65704 0.0
C427 C 0.03629 0.75852 0.66804 0.0
C428 C 0.01685 0.76486 0.68991 0.0
C429 C 0.01863 0.80451 0.70085 0.0
C430 C 0.03974 0.83729 0.68991 0.0
C431 C 0.05915 0.82975 0.66774 0.0
H432 H 0.35751 0.01244 0.93446 0.0
H433 H 0.32778 0.12996 0.96963 0.0
H434 H 0.27177 0.14081 0.93939 0.0
H435 H 0.34157 0.04325 0.87516 0.0
H436 H 0.31833 0.99533 0.8643 0.0
H437 H 0.35457 0.99536 0.88947 0.0
H438 H 0.30024 0.95988 0.91559 0.0
H439 H 0.26396 0.95914 0.8904 0.0
H440 H 0.24974 0.98297 0.91868 0.0
H441 H 0.22336 0.1418 0.90328 0.0
H442 H 0.1806 0.12913 0.86615 0.0
H443 H 0.2388 0.00922 0.85608 0.0
C444 C 0.33851 0.03991 0.93627 0.0
C445 C 0.34717 0.07039 0.95444 0.0
C446 C 0.3221 0.1064 0.95572 0.0
C447 C 0.29012 0.11279 0.93867 0.0
C448 C 0.28324 0.08267 0.92062 0.0
C449 C 0.30623 0.04661 0.91955 0.0
C450 C 0.29303 0.01949 0.89805 0.0
C451 C 0.32902 0.01299 0.88073 0.0
C452 C 0.2757 0.97791 0.90617 0.0
C453 C 0.25929 0.04613 0.88707 0.0
C454 C 0.25438 0.08262 0.90025 0.0
C455 C 0.22652 0.11311 0.89299 0.0
C456 C 0.20263 0.10583 0.87187 0.0
C457 C 0.20651 0.06824 0.85849 0.0
C458 C 0.23514 0.03805 0.8662 0.0
H459 H 0.03002 0.36887 0.42635 0.0
H460 H 0.11446 0.3134 0.47832 0.0
H461 H 0.1265 0.25517 0.44957 0.0
H462 H 0.98369 0.27246 0.40381 0.0
H463 H 0.97908 0.29005 0.37335 0.0
H464 H 0.97702 0.32683 0.39821 0.0
H465 H 0.03695 0.36803 0.38029 0.0
H466 H 0.04002 0.33119 0.35554 0.0
H467 H 0.08534 0.34243 0.37422 0.0
H468 H 0.13043 0.20392 0.41469 0.0
H469 H 0.12345 0.16167 0.3771 0.0
H470 H 0.0353 0.2503 0.34847 0.0
C471 C 0.0504 0.34409 0.43195 0.0
C472 C 0.07112 0.34559 0.45469 0.0
C473 C 0.09845 0.31305 0.46096 0.0
C474 C 0.10538 0.27981 0.44479 0.0
C475 C 0.08468 0.27956 0.42246 0.0
C476 C 0.0575 0.31069 0.41612 0.0
C477 C 0.03926 0.30326 0.39101 0.0
C478 C 0.99196 0.29781 0.39164 0.0
C479 C 0.05113 0.33831 0.37428 0.0
C480 C 0.06051 0.26306 0.38414 0.0
C481 C 0.08671 0.24998 0.40248 0.0
C482 C 0.10998 0.21384 0.40022 0.0
C483 C 0.10604 0.19022 0.37875 0.0
C484 C 0.0789 0.20274 0.35986 0.0
C485 C 0.05602 0.23977 0.36266 0.0
H486 H 0.72419 0.01474 0.91458 0.0
H487 H 0.66271 0.13058 0.89842 0.0
H488 H 0.70967 0.14043 0.86464 0.0
H489 H 0.82603 0.04859 0.9031 0.0
H490 H 0.84254 0.99995 0.88991 0.0
H491 H 0.80255 0.00082 0.91189 0.0
H492 H 0.75323 0.96128 0.88176 0.0
H493 H 0.7931 0.96035 0.85965 0.0
H494 H 0.74298 0.98199 0.8524 0.0
H495 H 0.76468 0.139 0.83371 0.0
H496 H 0.82534 0.12726 0.80825 0.0
H497 H 0.85145 0.01263 0.84475 0.0
C498 C 0.72026 0.04186 0.9037 0.0
C499 C 0.68984 0.07191 0.90907 0.0
C500 C 0.68609 0.10738 0.89472 0.0
C501 C 0.7124 0.11309 0.87542 0.0
C502 C 0.74226 0.08304 0.87071 0.0
C503 C 0.74639 0.04813 0.88443 0.0
C504 C 0.78224 0.0215 0.87623 0.0
C505 C 0.81529 0.0175 0.89649 0.0
C506 C 0.76696 0.97875 0.86696 0.0
C507 C 0.79789 0.04712 0.85592 0.0
C508 C 0.77421 0.08234 0.85293 0.0
C509 C 0.78338 0.11146 0.83581 0.0
C510 C 0.818 0.10464 0.82153 0.0
C511 C 0.84312 0.06907 0.82453 0.0
C512 C 0.83249 0.03977 0.84178 0.0
H513 H 0.02636 0.73652 0.42345 0.0
H514 H 0.09089 0.64054 0.38316 0.0
H515 H 0.09361 0.6862 0.3483 0.0
H516 H 0.96373 0.77357 0.37326 0.0
H517 H 0.96722 0.82703 0.38327 0.0
H518 H 0.9697 0.78647 0.40491 0.0
H519 H 0.03995 0.81534 0.42162 0.0
H520 H 0.0377 0.85595 0.40005 0.0
H521 H 0.08204 0.82209 0.40139 0.0
H522 H 0.09084 0.74287 0.3182 0.0
H523 H 0.08233 0.8066 0.2949 0.0
H524 H 0.01899 0.86514 0.35472 0.0
C525 C 0.04059 0.72489 0.4072 0.0
C526 C 0.05851 0.68499 0.40605 0.0
C527 C 0.07745 0.67121 0.38456 0.0
C528 C 0.07892 0.6968 0.36462 0.0
C529 C 0.06119 0.73603 0.36641 0.0
C530 C 0.04231 0.75 0.38712 0.0
C531 C 0.02632 0.79378 0.38453 0.0
C532 C 0.97893 0.79528 0.38661 0.0
C533 C 0.0478 0.82354 0.40299 0.0
C534 C 0.03932 0.80228 0.35917 0.0
C535 C 0.05937 0.76858 0.34902 0.0
C536 C 0.07508 0.76942 0.32593 0.0
C537 C 0.07029 0.80578 0.31289 0.0
C538 C 0.04992 0.84073 0.32298 0.0
C539 C 0.03412 0.8387 0.34639 0.0
loop_
_geom_bond_atom_site_label_1
_geom_bond_atom_site_label_2
_geom_bond_distance
_geom_bond_site_symmetry_2
_ccdc_geom_bond_type
H0 O26 0.856 . S
H1 O29 0.854 . S
H2 C37 0.930 . S
H3 C38 0.930 . S
H4 C40 0.930 . S
H5 C41 0.930 1_565 S
H6 C43 0.931 . S
H7 C44 0.930 . S
H8 C46 0.930 1_565 S
H9 C47 0.929 1_565 S
H10 C49 0.930 . S
H11 C50 0.931 . S
H12 C52 0.930 . S
H13 C53 0.929 . S
H14 C55 0.931 . S
H15 C56 0.930 . S
H16 C58 0.930 1_565 S
H17 C59 0.929 1_566 S
H18 C61 0.930 . S
H19 C62 0.929 . S
H20 C64 0.931 . S
H21 C65 0.930 1_565 S
H22 C67 0.929 . S
H23 C68 0.931 . S
H24 C70 0.930 1_565 S
H25 C71 0.929 1_565 S
O26 H0 0.856 . S
O26 C72 1.300 . S
O27 C72 1.205 1_565 S
O28 C73 1.199 . S
O29 H1 0.854 . S
O29 C73 1.297 . S
C30 C31 1.404 . S
C30 C35 1.397 1_556 S
C30 C36 1.492 . S
C31 C30 1.404 . S
C31 C32 1.396 . S
C31 C42 1.492 . S
C32 C31 1.396 . S
C32 C33 1.397 1_556 S
C32 C48 1.509 . S
C33 C32 1.397 1_554 S
C33 C34 1.412 . S
C33 C54 1.485 . S
C34 C33 1.412 . S
C34 C35 1.388 . S
C34 C60 1.490 . S
C35 C30 1.397 1_554 S
C35 C34 1.388 . S
C35 C66 1.519 . S
C36 C30 1.492 . S
C36 C37 1.363 . S
C36 C41 1.390 . S
C37 H2 0.930 . S
C37 C36 1.363 . S
C37 C38 1.372 . S
C38 H3 0.930 . S
C38 C37 1.372 . S
C38 C39 1.383 . S
C39 C38 1.383 . S
C39 C40 1.395 . S
C40 H4 0.930 . S
C40 C39 1.395 . S
C40 C41 1.362 . S
C41 H5 0.930 1_545 S
C41 C36 1.390 . S
C41 C40 1.362 . S
C42 C31 1.492 . S
C42 C43 1.377 . S
C42 C47 1.397 . S
C43 H6 0.931 . S
C43 C42 1.377 . S
C43 C44 1.376 . S
C44 H7 0.930 . S
C44 C43 1.376 . S
C44 C45 1.376 . S
C45 C44 1.376 . S
C45 C46 1.378 . S
C45 C72 1.486 . S
C46 H8 0.930 1_545 S
C46 C45 1.378 . S
C46 C47 1.376 . S
C47 H9 0.929 1_545 S
C47 C42 1.397 . S
C47 C46 1.376 . S
C48 C32 1.509 . S
C48 C49 1.391 . S
C48 C53 1.386 1_545 S
C49 H10 0.930 . S
C49 C48 1.391 . S
C49 C50 1.375 . S
C50 H11 0.931 . S
C50 C49 1.375 . S
C50 C51 1.375 . S
C51 C50 1.375 . S
C51 C52 1.361 1_545 S
C52 H12 0.930 . S
C52 C51 1.361 1_565 S
C52 C53 1.399 . S
C53 H13 0.929 . S
C53 C48 1.386 1_565 S
C53 C52 1.399 . S
C54 C33 1.485 . S
C54 C55 1.394 . S
C54 C59 1.360 . S
C55 H14 0.931 . S
C55 C54 1.394 . S
C55 C56 1.372 . S
C56 H15 0.930 . S
C56 C55 1.372 . S
C56 C57 1.397 . S
C57 C56 1.397 . S
C57 C58 1.390 . S
C57 C73 1.476 . S
C58 H16 0.930 1_545 S
C58 C57 1.390 . S
C58 C59 1.366 . S
C59 H17 0.929 1_544 S
C59 C54 1.360 . S
C59 C58 1.366 . S
C60 C34 1.490 . S
C60 C61 1.380 . S
C60 C65 1.386 . S
C61 H18 0.930 . S
C61 C60 1.380 . S
C61 C62 1.381 . S
C62 H19 0.929 . S
C62 C61 1.381 . S
C62 C63 1.371 . S
C63 C62 1.371 . S
C63 C64 1.380 . S
C64 H20 0.931 . S
C64 C63 1.380 . S
C64 C65 1.387 . S
C65 H21 0.930 1_545 S
C65 C60 1.386 . S
C65 C64 1.387 . S
C66 C35 1.519 . S
C66 C67 1.377 . S
C66 C71 1.361 . S
C67 H22 0.929 . S
C67 C66 1.377 . S
C67 C68 1.386 . S
C68 H23 0.931 . S
C68 C67 1.386 . S
C68 C69 1.363 . S
C69 C68 1.363 . S
C69 C70 1.385 . S
C70 H24 0.930 1_545 S
C70 C69 1.385 . S
C70 C71 1.396 . S
C71 H25 0.929 1_545 S
C71 C66 1.361 . S
C71 C70 1.396 . S
C72 O26 1.300 . S
C72 O27 1.205 1_545 S
C72 C45 1.486 . S
C73 O28 1.199 . S
C73 O29 1.297 . S
C73 C57 1.476 . S
H74 O100 0.856 . S
H75 O103 0.854 . S
H76 C111 0.930 1_655 S
H77 C112 0.930 1_655 S
H78 C114 0.930 . S
H79 C115 0.930 . S
H80 C117 0.931 . S
H81 C118 0.930 . S
H82 C120 0.930 . S
H83 C121 0.929 . S
H84 C123 0.937 . S
H85 C124 0.931 . S
H86 C126 0.930 . S
H87 C127 0.929 . S
H88 C129 0.932 1_655 S
H89 C130 0.930 . S
H90 C132 0.930 . S
H91 C133 0.932 . S
H92 C135 0.930 1_655 S
H93 C136 0.929 1_655 S
H94 C138 0.931 . S
H95 C139 0.930 . S
H96 C141 0.929 1_655 S
H97 C142 0.931 . S
H98 C144 0.930 . S
H99 C145 0.929 . S
O100 H74 0.856 . S
O100 C146 1.300 . S
O101 C146 1.209 . S
O102 C147 1.199 . S
O103 H75 0.854 . S
O103 C147 1.297 . S
C104 C105 1.404 . S
C104 C109 1.397 . S
C104 C110 1.492 . S
C105 C104 1.404 . S
C105 C106 1.396 . S
C105 C116 1.492 . S
C106 C105 1.396 . S
C106 C107 1.397 . S
C106 C122 1.509 . S
C107 C106 1.397 . S
C107 C108 1.412 . S
C107 C128 1.485 . S
C108 C107 1.412 . S
C108 C109 1.388 . S
C108 C134 1.490 . S
C109 C104 1.397 . S
C109 C108 1.388 . S
C109 C140 1.519 . S
C110 C104 1.492 . S
C110 C111 1.363 . S
C110 C115 1.390 . S
C111 H76 0.930 1_455 S
C111 C110 1.363 . S
C111 C112 1.372 . S
C112 H77 0.930 1_455 S
C112 C111 1.372 . S
C112 C113 1.383 . S
C113 C112 1.383 . S
C113 C114 1.395 . S
C114 H78 0.930 . S
C114 C113 1.395 . S
C114 C115 1.362 . S
C115 H79 0.930 . S
C115 C110 1.390 . S
C115 C114 1.362 . S
C116 C105 1.492 . S
C116 C117 1.377 . S
C116 C121 1.397 . S
C117 H80 0.931 . S
C117 C116 1.377 . S
C117 C118 1.376 . S
C118 H81 0.930 . S
C118 C117 1.376 . S
C118 C119 1.376 . S
C119 C118 1.376 . S
C119 C120 1.378 . S
C119 C146 1.486 . S
C120 H82 0.930 . S
C120 C119 1.378 . S
C120 C121 1.376 . S
C121 H83 0.929 . S
C121 C116 1.397 . S
C121 C120 1.376 . S
C122 C106 1.509 . S
C122 C123 1.391 . S
C122 C127 1.386 . S
C123 H84 0.937 . S
C123 C122 1.391 . S
C123 C124 1.375 . S
C124 H85 0.931 . S
C124 C123 1.375 . S
C124 C125 1.375 . S
C125 C124 1.375 . S
C125 C126 1.361 . S
C126 H86 0.930 . S
C126 C125 1.361 . S
C126 C127 1.399 . S
C127 H87 0.929 . S
C127 C122 1.386 . S
C127 C126 1.399 . S
C128 C107 1.485 . S
C128 C129 1.394 . S
C128 C133 1.360 . S
C129 H88 0.932 1_455 S
C129 C128 1.394 . S
C129 C130 1.372 . S
C130 H89 0.930 . S
C130 C129 1.372 . S
C130 C131 1.397 . S
C131 C130 1.397 . S
C131 C132 1.390 . S
C131 C147 1.476 . S
C132 H90 0.930 . S
C132 C131 1.390 . S
C132 C133 1.366 . S
C133 H91 0.932 . S
C133 C128 1.360 . S
C133 C132 1.366 . S
C134 C108 1.490 . S
C134 C135 1.380 . S
C134 C139 1.386 . S
C135 H92 0.930 1_455 S
C135 C134 1.380 . S
C135 C136 1.381 . S
C136 H93 0.929 1_455 S
C136 C135 1.381 . S
C136 C137 1.371 . S
C137 C136 1.371 . S
C137 C138 1.380 . S
C138 H94 0.931 . S
C138 C137 1.380 . S
C138 C139 1.387 . S
C139 H95 0.930 . S
C139 C134 1.386 . S
C139 C138 1.387 . S
C140 C109 1.519 . S
C140 C141 1.377 . S
C140 C145 1.361 . S
C141 H96 0.929 1_455 S
C141 C140 1.377 . S
C141 C142 1.386 . S
C142 H97 0.931 . S
C142 C141 1.386 . S
C142 C143 1.363 . S
C143 C142 1.363 . S
C143 C144 1.385 . S
C144 H98 0.930 . S
C144 C143 1.385 . S
C144 C145 1.396 . S
C145 H99 0.929 . S
C145 C140 1.361 . S
C145 C144 1.396 . S
C146 O100 1.300 . S
C146 O101 1.209 . S
C146 C119 1.486 . S
C147 O102 1.199 . S
C147 O103 1.297 . S
C147 C131 1.476 . S
Li148 N165 1.990 . S
Li148 O208 1.956 . S
Li148 O209 1.970 1_455 S
Li148 O210 1.961 . S
Li149 N173 1.990 1_545 S
Li149 O208 1.970 . S
Li149 O209 1.956 1_455 S
Li149 O211 1.961 . S
Li150 N195 1.990 . S
Li150 O208 1.961 . S
Li150 O210 1.956 . S
Li150 O211 1.970 . S
Li151 N201 1.990 . S
Li151 O209 1.961 . S
Li151 O210 1.970 1_655 S
Li151 O211 1.956 1_655 S
C152 C154 1.348 . S
C152 C155 1.356 . S
C152 O208 1.325 . S
N153 C156 1.314 . S
N153 C157 1.279 . S
C154 C152 1.348 . S
C154 C156 1.353 . S
C154 H212 0.929 . S
C155 C152 1.356 . S
C155 C157 1.358 . S
C155 H213 0.930 . S
C156 N153 1.314 . S
C156 C154 1.353 . S
C156 H214 0.930 . S
C157 N153 1.279 . S
C157 C155 1.358 . S
C157 H215 0.930 . S
C158 C161 1.348 . S
C158 C162 1.356 . S
C158 O209 1.325 . S
C159 N160 1.279 . S
C159 C162 1.358 . S
C159 H216 0.930 . S
N160 C159 1.279 . S
N160 C163 1.314 . S
C161 C158 1.348 . S
C161 C163 1.353 . S
C161 H217 0.929 . S
C162 C158 1.356 . S
C162 C159 1.358 . S
C162 H218 0.930 . S
C163 N160 1.314 . S
C163 C161 1.353 . S
C163 H219 0.930 . S
C164 N165 1.314 . S
C164 C169 1.353 . S
C164 H170 0.930 1_455 S
N165 Li148 1.990 . S
N165 C164 1.314 . S
N165 C167 1.279 . S
C166 C167 1.358 . S
C166 C168 1.356 . S
C166 H220 0.930 . S
C167 N165 1.279 . S
C167 C166 1.358 . S
C167 H171 0.930 . S
C168 C166 1.356 . S
C168 C169 1.348 . S
C169 C164 1.353 . S
C169 C168 1.348 . S
C169 H221 0.929 1_455 S
H170 C164 0.930 1_655 S
H171 C167 0.930 . S
C172 N173 1.314 . S
C172 C174 1.353 . S
C172 H178 0.930 . S
N173 Li149 1.990 1_565 S
N173 C172 1.314 . S
N173 C176 1.279 . S
C174 C172 1.353 . S
C174 C177 1.348 . S
C174 H222 0.929 . S
C175 C176 1.358 . S
C175 C177 1.356 . S
C175 H223 0.930 1_455 S
C176 N173 1.279 . S
C176 C175 1.358 . S
C176 H179 0.930 1_455 S
C177 C174 1.348 . S
C177 C175 1.356 . S
H178 C172 0.930 . S
H179 C176 0.930 1_655 S
C180 C182 1.348 . S
C180 C183 1.356 . S
C180 O210 1.325 . S
N181 C184 1.314 . S
N181 C185 1.279 . S
C182 C180 1.348 . S
C182 C184 1.353 . S
C182 H224 0.929 1_455 S
C183 C180 1.356 . S
C183 C185 1.358 . S
C183 H225 0.930 . S
C184 N181 1.314 . S
C184 C182 1.353 . S
C184 H226 0.930 1_455 S
C185 N181 1.279 . S
C185 C183 1.358 . S
C185 H227 0.930 . S
C186 C187 1.348 . S
C186 C188 1.356 . S
C186 O211 1.325 1_565 S
C187 C186 1.348 . S
C187 C189 1.353 . S
C187 H228 0.929 . S
C188 C186 1.356 . S
C188 C190 1.359 . S
C188 H229 0.930 1_455 S
C189 C187 1.353 . S
C189 N191 1.314 . S
C189 H230 0.930 . S
C190 C188 1.359 . S
C190 N191 1.282 . S
C190 H231 0.927 1_455 S
N191 C189 1.314 . S
N191 C190 1.282 . S
C192 C194 1.353 . S
C192 N195 1.314 . S
C192 H198 0.930 . S
C193 N195 1.279 . S
C193 C196 1.358 . S
C193 H199 0.930 . S
C194 C192 1.353 . S
C194 C197 1.348 . S
C194 H232 0.929 . S
N195 Li150 1.990 . S
N195 C192 1.314 . S
N195 C193 1.279 . S
C196 C193 1.358 . S
C196 C197 1.356 . S
C196 H233 0.930 . S
C197 C194 1.348 . S
C197 C196 1.356 . S
H198 C192 0.930 . S
H199 C193 0.930 . S
C200 N201 1.314 . S
C200 C202 1.353 . S
C200 H206 0.930 . S
N201 Li151 1.990 . S
N201 C200 1.314 . S
N201 C204 1.279 . S
C202 C200 1.353 . S
C202 C205 1.348 . S
C202 H234 0.929 . S
C203 C204 1.358 . S
C203 C205 1.356 . S
C203 H235 0.930 . S
C204 N201 1.279 . S
C204 C203 1.358 . S
C204 H207 0.930 . S
C205 C202 1.348 . S
C205 C203 1.356 . S
H206 C200 0.930 . S
H207 C204 0.930 . S
O208 Li148 1.956 . S
O208 Li149 1.970 . S
O208 Li150 1.961 . S
O208 C152 1.325 . S
O209 Li148 1.970 1_655 S
O209 Li149 1.956 1_655 S
O209 Li151 1.961 . S
O209 C158 1.325 . S
O210 Li148 1.961 . S
O210 Li150 1.956 . S
O210 Li151 1.970 1_455 S
O210 C180 1.325 . S
O211 Li149 1.961 . S
O211 Li150 1.970 . S
O211 Li151 1.956 1_455 S
O211 C186 1.325 1_545 S
H212 C154 0.929 . S
H213 C155 0.930 . S
H214 C156 0.930 . S
H215 C157 0.930 . S
H216 C159 0.930 . S
H217 C161 0.929 . S
H218 C162 0.930 . S
H219 C163 0.930 . S
H220 C166 0.930 . S
H221 C169 0.929 1_655 S
H222 C174 0.929 . S
H223 C175 0.930 1_655 S
H224 C182 0.929 1_655 S
H225 C183 0.930 . S
H226 C184 0.930 1_655 S
H227 C185 0.930 . S
H228 C187 0.929 . S
H229 C188 0.930 1_655 S
H230 C189 0.930 . S
H231 C190 0.927 1_655 S
H232 C194 0.929 . S
H233 C196 0.930 . S
H234 C202 0.929 . S
H235 C203 0.930 . S
Li236 N253 1.990 1_455 S
Li236 O296 1.956 . S
Li236 O297 1.970 1_545 S
Li236 O298 1.961 . S
Li237 N261 1.990 . S
Li237 O296 1.970 . S
Li237 O297 1.956 1_545 S
Li237 O299 1.961 . S
Li238 N283 1.990 . S
Li238 O296 1.961 . S
Li238 O298 1.956 . S
Li238 O299 1.970 . S
Li239 N289 1.990 . S
Li239 O297 1.961 . S
Li239 O298 1.970 1_565 S
Li239 O299 1.956 1_565 S
C240 C242 1.348 . S
C240 C243 1.356 . S
C240 O296 1.325 . S
N241 C244 1.314 . S
N241 C245 1.279 . S
C242 C240 1.348 . S
C242 C244 1.353 . S
C242 H300 0.929 . S
C243 C240 1.356 . S
C243 C245 1.358 . S
C243 H301 0.930 . S
C244 N241 1.314 . S
C244 C242 1.353 . S
C244 H302 0.930 . S
C245 N241 1.279 . S
C245 C243 1.358 . S
C245 H303 0.930 . S
C246 C249 1.348 . S
C246 C250 1.356 . S
C246 O297 1.325 . S
C247 N248 1.279 . S
C247 C250 1.358 . S
C247 H304 0.930 . S
N248 C247 1.279 . S
N248 C251 1.314 . S
C249 C246 1.348 . S
C249 C251 1.353 . S
C249 H305 0.929 . S
C250 C246 1.356 . S
C250 C247 1.358 . S
C250 H306 0.930 . S
C251 N248 1.314 . S
C251 C249 1.353 . S
C251 H307 0.930 . S
C252 N253 1.314 . S
C252 C257 1.353 . S
C252 H258 0.930 1_545 S
N253 Li236 1.990 1_655 S
N253 C252 1.314 . S
N253 C255 1.279 . S
C254 C255 1.358 . S
C254 C256 1.356 . S
C254 H308 0.930 . S
C255 N253 1.279 . S
C255 C254 1.358 . S
C255 H259 0.930 . S
C256 C254 1.356 . S
C256 C257 1.348 . S
C257 C252 1.353 . S
C257 C256 1.348 . S
C257 H309 0.929 1_545 S
H258 C252 0.930 1_565 S
H259 C255 0.930 . S
C260 N261 1.314 . S
C260 C262 1.353 . S
C260 H266 0.930 . S
N261 Li237 1.990 . S
N261 C260 1.314 . S
N261 C264 1.279 . S
C262 C260 1.353 . S
C262 C265 1.348 . S
C262 H310 0.929 . S
C263 C264 1.358 . S
C263 C265 1.356 . S
C263 H311 0.930 1_545 S
C264 N261 1.279 . S
C264 C263 1.358 . S
C264 H267 0.930 1_545 S
C265 C262 1.348 . S
C265 C263 1.356 . S
H266 C260 0.930 . S
H267 C264 0.930 1_565 S
C268 C270 1.348 . S
C268 C271 1.356 . S
C268 O298 1.325 1_655 S
N269 C272 1.314 . S
N269 C273 1.279 . S
C270 C268 1.348 . S
C270 C272 1.353 . S
C270 H312 0.929 1_545 S
C271 C268 1.356 . S
C271 C273 1.358 . S
C271 H313 0.930 . S
C272 N269 1.314 . S
C272 C270 1.353 . S
C272 H314 0.930 1_545 S
C273 N269 1.279 . S
C273 C271 1.358 . S
C273 H315 0.930 . S
C274 C275 1.348 . S
C274 C276 1.356 . S
C274 O299 1.325 . S
C275 C274 1.348 . S
C275 C277 1.353 . S
C275 H316 0.929 . S
C276 C274 1.356 . S
C276 C278 1.359 . S
C276 H317 0.930 1_545 S
C277 C275 1.353 . S
C277 N279 1.314 . S
C277 H318 0.930 . S
C278 C276 1.359 . S
C278 N279 1.289 . S
C278 H319 0.920 1_545 S
N279 C277 1.314 . S
N279 C278 1.289 . S
C280 C282 1.353 . S
C280 N283 1.314 . S
C280 H286 0.930 . S
C281 N283 1.279 . S
C281 C284 1.358 . S
C281 H287 0.930 . S
C282 C280 1.353 . S
C282 C285 1.348 . S
C282 H320 0.929 . S
N283 Li238 1.990 . S
N283 C280 1.314 . S
N283 C281 1.279 . S
C284 C281 1.358 . S
C284 C285 1.356 . S
C284 H321 0.930 . S
C285 C282 1.348 . S
C285 C284 1.356 . S
H286 C280 0.930 . S
H287 C281 0.930 . S
C288 N289 1.314 . S
C288 C290 1.353 . S
C288 H294 0.930 . S
N289 Li239 1.990 . S
N289 C288 1.314 . S
N289 C292 1.279 . S
C290 C288 1.353 . S
C290 C293 1.348 . S
C290 H322 0.929 . S
C291 C292 1.358 . S
C291 C293 1.356 . S
C291 H323 0.930 . S
C292 N289 1.279 . S
C292 C291 1.358 . S
C292 H295 0.930 . S
C293 C290 1.348 . S
C293 C291 1.356 . S
H294 C288 0.930 . S
H295 C292 0.930 . S
O296 Li236 1.956 . S
O296 Li237 1.970 . S
O296 Li238 1.961 . S
O296 C240 1.325 . S
O297 Li236 1.970 1_565 S
O297 Li237 1.956 1_565 S
O297 Li239 1.961 . S
O297 C246 1.325 . S
O298 Li236 1.961 . S
O298 Li238 1.956 . S
O298 Li239 1.970 1_545 S
O298 C268 1.325 1_455 S
O299 Li237 1.961 . S
O299 Li238 1.970 . S
O299 Li239 1.956 1_545 S
O299 C274 1.325 . S
H300 C242 0.929 . S
H301 C243 0.930 . S
H302 C244 0.930 . S
H303 C245 0.930 . S
H304 C247 0.930 . S
H305 C249 0.929 . S
H306 C250 0.930 . S
H307 C251 0.930 . S
H308 C254 0.930 . S
H309 C257 0.929 1_565 S
H310 C262 0.929 . S
H311 C263 0.930 1_565 S
H312 C270 0.929 1_565 S
H313 C271 0.930 . S
H314 C272 0.930 1_565 S
H315 C273 0.930 . S
H316 C275 0.929 . S
H317 C276 0.930 1_565 S
H318 C277 0.930 . S
H319 C278 0.920 1_565 S
H320 C282 0.929 . S
H321 C284 0.930 . S
H322 C290 0.929 . S
H323 C291 0.930 . S
H324 C336 0.930 . S
H325 C338 0.930 . S
H326 C339 0.930 . S
H327 C343 0.959 . S
H328 C343 0.959 . S
H329 C343 0.961 . S
H330 C344 0.960 . S
H331 C344 0.961 . S
H332 C344 0.959 . S
H333 C347 0.929 . S
H334 C348 0.931 1_565 S
H335 C350 0.930 . S
C336 H324 0.930 . S
C336 C337 1.399 . S
C336 C341 1.399 . S
C337 C336 1.399 . S
C337 C338 1.376 1_545 S
C338 H325 0.930 . S
C338 C337 1.376 1_565 S
C338 C339 1.388 . S
C339 H326 0.930 . S
C339 C338 1.388 . S
C339 C340 1.390 1_565 S
C340 C339 1.390 1_545 S
C340 C341 1.394 . S
C340 C346 1.465 . S
C341 C336 1.399 . S
C341 C340 1.394 . S
C341 C342 1.516 . S
C342 C341 1.516 . S
C342 C343 1.502 . S
C342 C344 1.561 . S
C342 C345 1.526 . S
C343 H327 0.959 . S
C343 H328 0.959 . S
C343 H329 0.961 . S
C343 C342 1.502 . S
C344 H330 0.960 . S
C344 H331 0.961 . S
C344 H332 0.959 . S
C344 C342 1.561 . S
C345 C342 1.526 . S
C345 C346 1.396 . S
C345 C350 1.390 . S
C346 C340 1.465 . S
C346 C345 1.396 . S
C346 C347 1.399 1_545 S
C347 H333 0.929 . S
C347 C346 1.399 1_565 S
C347 C348 1.385 1_565 S
C348 H334 0.931 1_545 S
C348 C347 1.385 1_545 S
C348 C349 1.389 . S
C349 C348 1.389 . S
C349 C350 1.387 . S
C350 H335 0.930 . S
C350 C345 1.390 . S
C350 C349 1.387 . S
H351 C363 0.930 . S
H352 C365 0.930 . S
H353 C366 0.930 . S
H354 C370 0.959 . S
H355 C370 0.959 . S
H356 C370 0.961 . S
H357 C371 0.960 . S
H358 C371 0.961 . S
H359 C371 0.959 . S
H360 C374 0.929 . S
H361 C375 0.931 . S
H362 C377 0.930 . S
C363 H351 0.930 . S
C363 C364 1.399 . S
C363 C368 1.399 . S
C364 C363 1.399 . S
C364 C365 1.376 . S
C365 H352 0.930 . S
C365 C364 1.376 . S
C365 C366 1.388 . S
C366 H353 0.930 . S
C366 C365 1.388 . S
C366 C367 1.390 . S
C367 C366 1.390 . S
C367 C368 1.394 . S
C367 C373 1.465 . S
C368 C363 1.399 . S
C368 C367 1.394 . S
C368 C369 1.516 . S
C369 C368 1.516 . S
C369 C370 1.502 1_455 S
C369 C371 1.561 . S
C369 C372 1.526 . S
C370 H354 0.959 . S
C370 H355 0.959 . S
C370 H356 0.961 . S
C370 C369 1.502 1_655 S
C371 H357 0.960 . S
C371 H358 0.961 . S
C371 H359 0.959 . S
C371 C369 1.561 . S
C372 C369 1.526 . S
C372 C373 1.396 . S
C372 C377 1.390 . S
C373 C367 1.465 . S
C373 C372 1.396 . S
C373 C374 1.399 . S
C374 H360 0.929 . S
C374 C373 1.399 . S
C374 C375 1.385 . S
C375 H361 0.931 . S
C375 C374 1.385 . S
C375 C376 1.389 . S
C376 C375 1.389 . S
C376 C377 1.387 . S
C377 H362 0.930 . S
C377 C372 1.390 . S
C377 C376 1.387 . S
H378 C390 0.930 . S
H379 C392 0.930 . S
H380 C393 0.930 . S
H381 C397 0.959 . S
H382 C397 0.959 1_565 S
H383 C397 0.961 . S
H384 C398 0.960 . S
H385 C398 0.961 . S
H386 C398 0.959 . S
H387 C401 0.929 . S
H388 C402 0.931 . S
H389 C404 0.930 . S
C390 H378 0.930 . S
C390 C391 1.399 . S
C390 C395 1.399 . S
C391 C390 1.399 . S
C391 C392 1.376 . S
C392 H379 0.930 . S
C392 C391 1.376 . S
C392 C393 1.388 . S
C393 H380 0.930 . S
C393 C392 1.388 . S
C393 C394 1.390 . S
C394 C393 1.390 . S
C394 C395 1.394 . S
C394 C400 1.465 . S
C395 C390 1.399 . S
C395 C394 1.394 . S
C395 C396 1.516 . S
C396 C395 1.516 . S
C396 C397 1.502 . S
C396 C398 1.561 1_545 S
C396 C399 1.526 . S
C397 H381 0.959 . S
C397 H382 0.959 1_545 S
C397 H383 0.961 . S
C397 C396 1.502 . S
C398 H384 0.960 . S
C398 H385 0.961 . S
C398 H386 0.959 . S
C398 C396 1.561 1_565 S
C399 C396 1.526 . S
C399 C400 1.396 . S
C399 C404 1.390 . S
C400 C394 1.465 . S
C400 C399 1.396 . S
C400 C401 1.399 . S
C401 H387 0.929 . S
C401 C400 1.399 . S
C401 C402 1.385 . S
C402 H388 0.931 . S
C402 C401 1.385 . S
C402 C403 1.389 . S
C403 C402 1.389 . S
C403 C404 1.387 . S
C404 H389 0.930 . S
C404 C399 1.390 . S
C404 C403 1.387 . S
H405 C417 0.930 . S
H406 C419 0.930 . S
H407 C420 0.930 . S
H408 C424 0.959 . S
H409 C424 0.959 . S
H410 C424 0.961 . S
H411 C425 0.960 . S
H412 C425 0.961 . S
H413 C425 0.959 1_655 S
H414 C428 0.929 . S
H415 C429 0.931 . S
H416 C431 0.930 . S
C417 H405 0.930 . S
C417 C418 1.399 . S
C417 C422 1.399 . S
C418 C417 1.399 . S
C418 C419 1.376 . S
C419 H406 0.930 . S
C419 C418 1.376 . S
C419 C420 1.388 . S
C420 H407 0.930 . S
C420 C419 1.388 . S
C420 C421 1.390 . S
C421 C420 1.390 . S
C421 C422 1.394 . S
C421 C427 1.465 . S
C422 C417 1.399 . S
C422 C421 1.394 . S
C422 C423 1.516 . S
C423 C422 1.516 . S
C423 C424 1.502 . S
C423 C425 1.561 . S
C423 C426 1.526 . S
C424 H408 0.959 . S
C424 H409 0.959 . S
C424 H410 0.961 . S
C424 C423 1.502 . S
C425 H411 0.960 . S
C425 H412 0.961 . S
C425 H413 0.959 1_455 S
C425 C423 1.561 . S
C426 C423 1.526 . S
C426 C427 1.396 . S
C426 C431 1.390 . S
C427 C421 1.465 . S
C427 C426 1.396 . S
C427 C428 1.399 . S
C428 H414 0.929 . S
C428 C427 1.399 . S
C428 C429 1.385 . S
C429 H415 0.931 . S
C429 C428 1.385 . S
C429 C430 1.389 . S
C430 C429 1.389 . S
C430 C431 1.387 . S
C431 H416 0.930 . S
C431 C426 1.390 . S
C431 C430 1.387 . S
H432 C444 0.930 . S
H433 C446 0.930 . S
H434 C447 0.930 . S
H435 C451 0.959 . S
H436 C451 0.959 . S
H437 C451 0.961 . S
H438 C452 0.960 . S
H439 C452 0.961 . S
H440 C452 0.959 . S
H441 C455 0.929 . S
H442 C456 0.931 . S
H443 C458 0.930 1_565 S
C444 H432 0.930 . S
C444 C445 1.399 . S
C444 C449 1.399 . S
C445 C444 1.399 . S
C445 C446 1.376 . S
C446 H433 0.930 . S
C446 C445 1.376 . S
C446 C447 1.388 . S
C447 H434 0.930 . S
C447 C446 1.388 . S
C447 C448 1.390 . S
C448 C447 1.390 . S
C448 C449 1.394 . S
C448 C454 1.465 . S
C449 C444 1.399 . S
C449 C448 1.394 . S
C449 C450 1.512 1_545 S
C450 C449 1.512 1_565 S
C450 C451 1.505 . S
C450 C452 1.565 . S
C450 C453 1.523 1_565 S
C451 H435 0.959 . S
C451 H436 0.959 . S
C451 H437 0.961 . S
C451 C450 1.505 . S
C452 H438 0.960 . S
C452 H439 0.961 . S
C452 H440 0.959 . S
C452 C450 1.565 . S
C453 C450 1.523 1_545 S
C453 C454 1.396 . S
C453 C458 1.390 . S
C454 C448 1.465 . S
C454 C453 1.396 . S
C454 C455 1.399 . S
C455 H441 0.929 . S
C455 C454 1.399 . S
C455 C456 1.385 . S
C456 H442 0.931 . S
C456 C455 1.385 . S
C456 C457 1.389 . S
C457 C456 1.389 . S
C457 C458 1.387 . S
C458 H443 0.930 1_545 S
C458 C453 1.390 . S
C458 C457 1.387 . S
H459 C471 0.929 1_655 S
H460 C473 0.930 . S
H461 C474 0.930 . S
H462 C478 0.959 . S
H463 C478 0.959 . S
H464 C478 0.961 . S
H465 C479 0.960 . S
H466 C479 0.961 . S
H467 C479 0.959 . S
H468 C482 0.929 . S
H469 C483 0.931 . S
H470 C485 0.930 . S
C471 H459 0.929 1_455 S
C471 C472 1.399 . S
C471 C476 1.399 . S
C472 C471 1.399 . S
C472 C473 1.376 . S
C473 H460 0.930 . S
C473 C472 1.376 . S
C473 C474 1.388 . S
C474 H461 0.930 . S
C474 C473 1.388 . S
C474 C475 1.390 . S
C475 C474 1.390 . S
C475 C476 1.394 . S
C475 C481 1.465 . S
C476 C471 1.399 . S
C476 C475 1.394 . S
C476 C477 1.516 . S
C477 C476 1.516 . S
C477 C478 1.502 1_455 S
C477 C479 1.561 . S
C477 C480 1.526 . S
C478 H462 0.959 . S
C478 H463 0.959 . S
C478 H464 0.961 . S
C478 C477 1.502 1_655 S
C479 H465 0.960 . S
C479 H466 0.961 . S
C479 H467 0.959 . S
C479 C477 1.561 . S
C480 C477 1.526 . S
C480 C481 1.396 . S
C480 C485 1.390 . S
C481 C475 1.465 . S
C481 C480 1.396 . S
C481 C482 1.399 . S
C482 H468 0.929 . S
C482 C481 1.399 . S
C482 C483 1.385 . S
C483 H469 0.931 . S
C483 C482 1.385 . S
C483 C484 1.389 . S
C484 C483 1.389 . S
C484 C485 1.387 . S
C485 H470 0.930 . S
C485 C480 1.390 . S
C485 C484 1.387 . S
H486 C498 0.930 . S
H487 C500 0.930 . S
H488 C501 0.930 . S
H489 C505 0.959 . S
H490 C505 0.959 . S
H491 C505 0.961 . S
H492 C506 0.960 . S
H493 C506 0.961 . S
H494 C506 0.959 . S
H495 C509 0.929 . S
H496 C510 0.931 . S
H497 C512 0.930 1_565 S
C498 H486 0.930 . S
C498 C499 1.399 1_565 S
C498 C503 1.399 1_565 S
C499 C498 1.399 1_545 S
C499 C500 1.376 . S
C500 H487 0.930 . S
C500 C499 1.376 . S
C500 C501 1.388 . S
C501 H488 0.930 . S
C501 C500 1.388 . S
C501 C502 1.390 . S
C502 C501 1.390 . S
C502 C503 1.394 . S
C502 C508 1.465 . S
C503 C498 1.399 1_545 S
C503 C502 1.394 . S
C503 C504 1.516 1_545 S
C504 C503 1.516 1_565 S
C504 C505 1.502 . S
C504 C506 1.561 . S
C504 C507 1.526 1_565 S
C505 H489 0.959 . S
C505 H490 0.959 . S
C505 H491 0.961 . S
C505 C504 1.502 . S
C506 H492 0.960 . S
C506 H493 0.961 . S
C506 H494 0.959 . S
C506 C504 1.561 . S
C507 C504 1.526 1_545 S
C507 C508 1.396 . S
C507 C512 1.390 . S
C508 C502 1.465 . S
C508 C507 1.396 . S
C508 C509 1.399 . S
C509 H495 0.929 . S
C509 C508 1.399 . S
C509 C510 1.385 . S
C510 H496 0.931 . S
C510 C509 1.385 . S
C510 C511 1.389 . S
C511 C510 1.389 . S
C511 C512 1.387 . S
C512 H497 0.930 1_545 S
C512 C507 1.390 . S
C512 C511 1.387 . S
H513 C525 0.930 . S
H514 C527 0.930 . S
H515 C528 0.930 . S
H516 C532 0.959 . S
H517 C532 0.959 . S
H518 C532 0.961 . S
H519 C533 0.960 . S
H520 C533 0.961 . S
H521 C533 0.959 . S
H522 C536 0.929 . S
H523 C537 0.931 . S
H524 C539 0.930 . S
C525 H513 0.930 . S
C525 C526 1.399 . S
C525 C530 1.399 . S
C526 C525 1.399 . S
C526 C527 1.376 . S
C527 H514 0.930 . S
C527 C526 1.376 . S
C527 C528 1.388 . S
C528 H515 0.930 . S
C528 C527 1.388 . S
C528 C529 1.390 . S
C529 C528 1.390 . S
C529 C530 1.394 . S
C529 C535 1.465 . S
C530 C525 1.399 . S
C530 C529 1.394 . S
C530 C531 1.516 . S
C531 C530 1.516 . S
C531 C532 1.502 1_455 S
C531 C533 1.561 . S
C531 C534 1.526 . S
C532 H516 0.959 . S
C532 H517 0.959 . S
C532 H518 0.961 . S
C532 C531 1.502 1_655 S
C533 H519 0.960 . S
C533 H520 0.961 . S
C533 H521 0.959 . S
C533 C531 1.561 . S
C534 C531 1.526 . S
C534 C535 1.396 . S
C534 C539 1.390 . S
C535 C529 1.465 . S
C535 C534 1.396 . S
C535 C536 1.399 . S
C536 H522 0.929 . S
C536 C535 1.399 . S
C536 C537 1.385 . S
C537 H523 0.931 . S
C537 C536 1.385 . S
C537 C538 1.389 . S
C538 C537 1.389 . S
C538 C539 1.387 . S
C539 H524 0.930 . S
C539 C534 1.390 . S
C539 C538 1.387 . S
C349 C197 2.224 . S
C337 C69 2.228 . S
C376 C285 2.238 . S
C364 C143 2.235 . S
C403 C205 1.494 . S
C391 C63 1.355 . S
C430 C293 1.473 . S
C418 C137 1.429 . S
C457 C265 1.410 . S
C445 C39 1.396 . S
C484 C168 1.381 . S
C472 C113 1.349 . S
C511 C256 0.688 . S
C499 C51 0.668 . S
C526 C125 0.766 . S
C538 C177 0.725 . S
