# Generated by pormake.
# Topology wbl, (4,4)-cn, num edge types: 1
# Building blocks:
#     Node 0, Type 0, BuildingBlock: NAWXER_clean_linker_0, # of connection points: 4
#     Node 1, Type 0, BuildingBlock: NAWXER_clean_linker_0, # of connection points: 4
#     Node 2, Type 0, BuildingBlock: NAWXER_clean_linker_0, # of connection points: 4
#     Node 3, Type 0, BuildingBlock: NAWXER_clean_linker_0, # of connection points: 4
#     Node 4, Type 0, BuildingBlock: NAWXER_clean_linker_0, # of connection points: 4
#     Node 5, Type 0, BuildingBlock: NAWXER_clean_linker_0, # of connection points: 4
#     Node 6, Type 0, BuildingBlock: NAWXER_clean_linker_0, # of connection points: 4
#     Node 7, Type 0, BuildingBlock: NAWXER_clean_linker_0, # of connection points: 4
#     Node 8, Type 1, BuildingBlock: KUFVIS_clean_sbu_0, # of connection points: 4
#     Node 9, Type 1, BuildingBlock: KUFVIS_clean_sbu_0, # of connection points: 4
#     Node 10, Type 1, BuildingBlock: KUFVIS_clean_sbu_0, # of connection points: 4
#     Node 11, Type 1, BuildingBlock: KUFVIS_clean_sbu_0, # of connection points: 4
#     Node 12, Type 1, BuildingBlock: KUFVIS_clean_sbu_0, # of connection points: 4
#     Node 13, Type 1, BuildingBlock: KUFVIS_clean_sbu_0, # of connection points: 4
#     Node 14, Type 1, BuildingBlock: KUFVIS_clean_sbu_0, # of connection points: 4
#     Node 15, Type 1, BuildingBlock: KUFVIS_clean_sbu_0, # of connection points: 4
#     Edge 16, Type (0, 1), BuildingBlock: KIFKEQ_clean_linker_1, # of connection points: 2
#     Edge 17, Type (0, 1), BuildingBlock: KIFKEQ_clean_linker_1, # of connection points: 2
#     Edge 18, Type (0, 1), BuildingBlock: KIFKEQ_clean_linker_1, # of connection points: 2
#     Edge 19, Type (0, 1), BuildingBlock: KIFKEQ_clean_linker_1, # of connection points: 2
#     Edge 20, Type (0, 1), BuildingBlock: KIFKEQ_clean_linker_1, # of connection points: 2
#     Edge 21, Type (0, 1), BuildingBlock: KIFKEQ_clean_linker_1, # of connection points: 2
#     Edge 22, Type (0, 1), BuildingBlock: KIFKEQ_clean_linker_1, # of connection points: 2
#     Edge 23, Type (0, 1), BuildingBlock: KIFKEQ_clean_linker_1, # of connection points: 2
#     Edge 24, Type (0, 1), BuildingBlock: KIFKEQ_clean_linker_1, # of connection points: 2
#     Edge 25, Type (0, 1), BuildingBlock: KIFKEQ_clean_linker_1, # of connection points: 2
#     Edge 26, Type (0, 1), BuildingBlock: KIFKEQ_clean_linker_1, # of connection points: 2
#     Edge 27, Type (0, 1), BuildingBlock: KIFKEQ_clean_linker_1, # of connection points: 2
#     Edge 28, Type (0, 1), BuildingBlock: KIFKEQ_clean_linker_1, # of connection points: 2
#     Edge 29, Type (0, 1), BuildingBlock: KIFKEQ_clean_linker_1, # of connection points: 2
#     Edge 30, Type (0, 1), BuildingBlock: KIFKEQ_clean_linker_1, # of connection points: 2
#     Edge 31, Type (0, 1), BuildingBlock: KIFKEQ_clean_linker_1, # of connection points: 2
#     Edge 32, Type (0, 1), BuildingBlock: KIFKEQ_clean_linker_1, # of connection points: 2
#     Edge 33, Type (0, 1), BuildingBlock: KIFKEQ_clean_linker_1, # of connection points: 2
#     Edge 34, Type (0, 1), BuildingBlock: KIFKEQ_clean_linker_1, # of connection points: 2
#     Edge 35, Type (0, 1), BuildingBlock: KIFKEQ_clean_linker_1, # of connection points: 2
#     Edge 36, Type (0, 1), BuildingBlock: KIFKEQ_clean_linker_1, # of connection points: 2
#     Edge 37, Type (0, 1), BuildingBlock: KIFKEQ_clean_linker_1, # of connection points: 2
#     Edge 38, Type (0, 1), BuildingBlock: KIFKEQ_clean_linker_1, # of connection points: 2
#     Edge 39, Type (0, 1), BuildingBlock: KIFKEQ_clean_linker_1, # of connection points: 2
#     Edge 40, Type (0, 1), BuildingBlock: KIFKEQ_clean_linker_1, # of connection points: 2
#     Edge 41, Type (0, 1), BuildingBlock: KIFKEQ_clean_linker_1, # of connection points: 2
#     Edge 42, Type (0, 1), BuildingBlock: KIFKEQ_clean_linker_1, # of connection points: 2
#     Edge 43, Type (0, 1), BuildingBlock: KIFKEQ_clean_linker_1, # of connection points: 2
#     Edge 44, Type (0, 1), BuildingBlock: KIFKEQ_clean_linker_1, # of connection points: 2
#     Edge 45, Type (0, 1), BuildingBlock: KIFKEQ_clean_linker_1, # of connection points: 2
#     Edge 46, Type (0, 1), BuildingBlock: KIFKEQ_clean_linker_1, # of connection points: 2
#     Edge 47, Type (0, 1), BuildingBlock: KIFKEQ_clean_linker_1, # of connection points: 2
# Relax obj value: 0.160
# Max RMSD: 0.159
# Mean RMSD: 0.140
data_MOF--net-wbl--node1-KUFVIS_clean_sbu_0--node2-NAWXER_clean_linker_0--edge1-KIFKEQ_clean_linker_1
_symmetry_space_group_name_H-M    P1
_symmetry_Int_Tables_number       1
_symmetry_cell_setting            triclinic
loop_
_symmetry_equiv_pos_as_xyz
'x, y, z'
_cell_length_a     45.777071
_cell_length_b     45.76827
_cell_length_c     78.866679
_cell_angle_alpha  90.000105
_cell_angle_beta   90.61958
_cell_angle_gamma 89.985436
loop_
_atom_site_label
_atom_site_type_symbol
_atom_site_fract_x
_atom_site_fract_y
_atom_site_fract_z
_atom_type_partial_charge
C0 C 0.07412 0.94226 0.35372 0.0
C1 C 0.0874 0.95569 0.36787 0.0
C2 C 0.06086 0.95926 0.34103 0.0
C3 C 0.06099 0.98991 0.34224 0.0
C4 C 0.08889 0.98635 0.36849 0.0
C5 C 0.07565 0.00325 0.35587 0.0
C6 C 0.04218 0.00798 0.33106 0.0
C7 C 0.1123 0.97067 0.29935 0.0
C8 C 0.10299 0.95366 0.28553 0.0
C9 C 0.0925 0.98825 0.30799 0.0
C10 C 0.06271 0.98834 0.30341 0.0
C11 C 0.07363 0.95484 0.28028 0.0
C12 C 0.0536 0.97197 0.28921 0.0
C13 C 0.04123 0.00577 0.31317 0.0
C14 C 0.94173 0.09157 0.2976 0.0
C15 C 0.92611 0.07463 0.28568 0.0
C16 C 0.96685 0.08054 0.30553 0.0
C17 C 0.97636 0.05191 0.30222 0.0
C18 C 0.9375 0.04713 0.28115 0.0
C19 C 0.96221 0.03585 0.2894 0.0
C20 C 0.99992 0.03795 0.31249 0.0
C21 C 0.93206 0.05791 0.35348 0.0
C22 C 0.94149 0.08015 0.36455 0.0
C23 C 0.95116 0.04617 0.34155 0.0
C24 C 0.98004 0.05629 0.34066 0.0
C25 C 0.96999 0.09114 0.36309 0.0
C26 C 0.98923 0.07902 0.35139 0.0
C27 C 0.00169 0.04069 0.33032 0.0
H28 H 0.07245 0.91869 0.35297 0.0
H29 H 0.04912 0.94845 0.33082 0.0
H30 H 0.09941 0.99731 0.37909 0.0
H31 H 0.07592 0.02684 0.35709 0.0
H32 H 0.13501 0.97054 0.30336 0.0
H33 H 0.1006 0.00174 0.31829 0.0
H34 H 0.0661 0.94202 0.26955 0.0
H35 H 0.03089 0.97199 0.28521 0.0
H36 H 0.93394 0.11285 0.30146 0.0
H37 H 0.97822 0.09412 0.31469 0.0
H38 H 0.92685 0.03383 0.27157 0.0
H39 H 0.96949 0.01401 0.28625 0.0
H40 H 0.9102 0.04904 0.35442 0.0
H41 H 0.94383 0.02831 0.33355 0.0
H42 H 0.97787 0.10801 0.37162 0.0
H43 H 0.01156 0.08682 0.35102 0.0
N44 N 0.02265 0.02562 0.33882 0.0
N45 N 0.01984 0.02059 0.30459 0.0
C46 C 0.9337 0.43555 0.60324 0.0
C47 C 0.94885 0.41764 0.61491 0.0
C48 C 0.94872 0.45008 0.59037 0.0
C49 C 0.97913 0.44721 0.58907 0.0
C50 C 0.97891 0.41277 0.61245 0.0
C51 C 0.99395 0.42781 0.59986 0.0
C52 C 0.9959 0.46842 0.579 0.0
C53 C 0.97201 0.39987 0.54151 0.0
C54 C 0.94773 0.40743 0.5314 0.0
C55 C 0.98629 0.42095 0.55128 0.0
C56 C 0.97679 0.45008 0.551 0.0
C57 C 0.93813 0.43661 0.53111 0.0
C58 C 0.95288 0.45792 0.54069 0.0
C59 C 0.9924 0.47198 0.5614 0.0
C60 C 0.07827 0.57127 0.5481 0.0
C61 C 0.06092 0.58826 0.53702 0.0
C62 C 0.06698 0.54607 0.55562 0.0
C63 C 0.03773 0.5379 0.55279 0.0
C64 C 0.03253 0.57836 0.53301 0.0
C65 C 0.02104 0.55362 0.54089 0.0
C66 C 0.02399 0.51359 0.5623 0.0
C67 C 0.05629 0.57523 0.6044 0.0
C68 C 0.07447 0.56147 0.61644 0.0
C69 C 0.0418 0.55864 0.59197 0.0
C70 C 0.04598 0.52821 0.5912 0.0
C71 C 0.07919 0.53126 0.61534 0.0
C72 C 0.06512 0.51483 0.60284 0.0
C73 C 0.02802 0.50935 0.57997 0.0
H74 H 0.91066 0.44005 0.60473 0.0
H75 H 0.93695 0.46532 0.5823 0.0
H76 H 0.99119 0.39845 0.62081 0.0
H77 H 0.01744 0.42533 0.59904 0.0
H78 H 0.97965 0.37747 0.54209 0.0
H79 H 0.0049 0.41452 0.55904 0.0
H80 H 0.91944 0.44289 0.52341 0.0
H81 H 0.94535 0.48036 0.54028 0.0
H82 H 0.10023 0.5779 0.55154 0.0
H83 H 0.08094 0.53352 0.56406 0.0
H84 H 0.0188 0.59004 0.52404 0.0
H85 H 0.99867 0.54737 0.53808 0.0
H86 H 0.0521 0.59849 0.60518 0.0
H87 H 0.02653 0.56936 0.58343 0.0
H88 H 0.09314 0.52023 0.6245 0.0
H89 H 0.0685 0.49139 0.60258 0.0
N90 N 0.01372 0.48701 0.58754 0.0
N91 N 0.00631 0.49457 0.55366 0.0
C92 C 0.57106 0.4364 0.85361 0.0
C93 C 0.58319 0.44951 0.86817 0.0
C94 C 0.55678 0.45348 0.84133 0.0
C95 C 0.55484 0.48397 0.84332 0.0
C96 C 0.58264 0.48009 0.86963 0.0
C97 C 0.56857 0.49711 0.85737 0.0
C98 C 0.53463 0.50165 0.83269 0.0
C99 C 0.60353 0.47488 0.79593 0.0
C100 C 0.59441 0.45268 0.78478 0.0
C101 C 0.58327 0.48956 0.8059 0.0
C102 C 0.55348 0.4826 0.80473 0.0
C103 C 0.56464 0.44547 0.7837 0.0
C104 C 0.54422 0.46069 0.79343 0.0
C105 C 0.5321 0.49902 0.81489 0.0
C106 C 0.44153 0.59205 0.79879 0.0
C107 C 0.42305 0.57647 0.78768 0.0
C108 C 0.4644 0.57788 0.8073 0.0
C109 C 0.46899 0.54777 0.80505 0.0
C110 C 0.42857 0.54662 0.78487 0.0
C111 C 0.45141 0.53246 0.79342 0.0
C112 C 0.49168 0.53202 0.81496 0.0
C113 C 0.42609 0.55766 0.8555 0.0
C114 C 0.43705 0.57887 0.86677 0.0
C115 C 0.44449 0.54441 0.84373 0.0
C116 C 0.47419 0.55193 0.84321 0.0
C117 C 0.46649 0.58725 0.86572 0.0
C118 C 0.48499 0.57361 0.85418 0.0
C119 C 0.49465 0.53503 0.8327 0.0
H120 H 0.57094 0.41285 0.85225 0.0
H121 H 0.54567 0.44261 0.83092 0.0
H122 H 0.59215 0.49078 0.88064 0.0
H123 H 0.5673 0.52053 0.85924 0.0
H124 H 0.62643 0.48067 0.79701 0.0
H125 H 0.59082 0.50666 0.81439 0.0
H126 H 0.55721 0.42842 0.77516 0.0
H127 H 0.52127 0.45514 0.7923 0.0
H128 H 0.43819 0.61517 0.80098 0.0
H129 H 0.47831 0.59041 0.81579 0.0
H130 H 0.41459 0.53391 0.77652 0.0
H131 H 0.45469 0.50928 0.79139 0.0
H132 H 0.40348 0.55079 0.85612 0.0
H133 H 0.43584 0.52741 0.83554 0.0
H134 H 0.47551 0.60329 0.87442 0.0
H135 H 0.50792 0.57947 0.85408 0.0
N136 N 0.51592 0.51973 0.84084 0.0
N137 N 0.51055 0.51411 0.80668 0.0
C138 C 0.46492 0.90356 0.04189 0.0
C139 C 0.44027 0.91276 0.0326 0.0
C140 C 0.48044 0.92327 0.05199 0.0
C141 C 0.47186 0.95263 0.05279 0.0
C142 C 0.43155 0.94216 0.03341 0.0
C143 C 0.44758 0.96213 0.04326 0.0
C144 C 0.48867 0.97303 0.06358 0.0
C145 C 0.42719 0.93029 0.10094 0.0
C146 C 0.4411 0.91345 0.11358 0.0
C147 C 0.44368 0.94702 0.08967 0.0
C148 C 0.47434 0.94725 0.09087 0.0
C149 C 0.47181 0.91283 0.11426 0.0
C150 C 0.48821 0.92969 0.10311 0.0
C151 C 0.49186 0.96853 0.08116 0.0
C152 C 0.56269 0.06918 0.10686 0.0
C153 C 0.57868 0.05368 0.11922 0.0
C154 C 0.54678 0.05412 0.09434 0.0
C155 C 0.54725 0.0234 0.09383 0.0
C156 C 0.57987 0.02309 0.11833 0.0
C157 C 0.56435 0.00813 0.10576 0.0
C158 C 0.52745 0.00655 0.08254 0.0
C159 C 0.5856 0.05958 0.04918 0.0
C160 C 0.57043 0.07896 0.03842 0.0
C161 C 0.57072 0.03718 0.05753 0.0
C162 C 0.5403 0.03417 0.05556 0.0
C163 C 0.54021 0.07508 0.03593 0.0
C164 C 0.52534 0.05288 0.04438 0.0
C165 C 0.52378 0.01162 0.06494 0.0
H166 H 0.47186 0.88093 0.04157 0.0
H167 H 0.49925 0.9156 0.05918 0.0
H168 H 0.41255 0.94963 0.02634 0.0
H169 H 0.44074 0.98477 0.04373 0.0
H170 H 0.40358 0.93117 0.10009 0.0
H171 H 0.4324 0.9609 0.08061 0.0
H172 H 0.48322 0.9005 0.124 0.0
H173 H 0.5118 0.92975 0.1044 0.0
H174 H 0.56119 0.09278 0.10745 0.0
H175 H 0.53314 0.06641 0.0856 0.0
H176 H 0.59214 0.0107 0.1277 0.0
H177 H 0.56496 0.98446 0.10569 0.0
H178 H 0.60895 0.06175 0.05114 0.0
H179 H 0.58299 0.02238 0.06561 0.0
H180 H 0.52784 0.08979 0.02784 0.0
H181 H 0.50194 0.05082 0.04252 0.0
N182 N 0.50453 0.99454 0.0561 0.0
N183 N 0.51126 0.98528 0.08988 0.0
C184 C 0.06242 0.57243 0.89793 0.0
C185 C 0.07228 0.55881 0.88304 0.0
C186 C 0.045 0.55717 0.90942 0.0
C187 C 0.03759 0.52777 0.90645 0.0
C188 C 0.06446 0.5295 0.88006 0.0
C189 C 0.04744 0.51421 0.89162 0.0
C190 C 0.0179 0.51138 0.9179 0.0
C191 C 0.09668 0.53232 0.9488 0.0
C192 C 0.09215 0.55225 0.96207 0.0
C193 C 0.07307 0.51934 0.94043 0.0
C194 C 0.04432 0.52634 0.94491 0.0
C195 C 0.06333 0.55897 0.96675 0.0
C196 C 0.03959 0.54592 0.95831 0.0
C197 C 0.01949 0.51258 0.93579 0.0
C198 C 0.9269 0.42342 0.95536 0.0
C199 C 0.91257 0.43915 0.96819 0.0
C200 C 0.94918 0.43633 0.94598 0.0
C201 C 0.95684 0.46571 0.94862 0.0
C202 C 0.92224 0.46775 0.9718 0.0
C203 C 0.94394 0.4809 0.96206 0.0
C204 C 0.97796 0.48099 0.93752 0.0
C205 C 0.90849 0.4458 0.9004 0.0
C206 C 0.92041 0.42632 0.88848 0.0
C207 C 0.9268 0.4625 0.91095 0.0
C208 C 0.95728 0.45979 0.90982 0.0
C209 C 0.95093 0.42353 0.88762 0.0
C210 C 0.9691 0.44012 0.89812 0.0
C211 C 0.97746 0.47866 0.91962 0.0
H212 H 0.06803 0.59492 0.90069 0.0
H213 H 0.03693 0.56857 0.92045 0.0
H214 H 0.07088 0.51842 0.86856 0.0
H215 H 0.04174 0.49172 0.88886 0.0
H216 H 0.11854 0.52686 0.94475 0.0
H217 H 0.07733 0.50377 0.9304 0.0
H218 H 0.05915 0.57397 0.97706 0.0
H219 H 0.01757 0.55134 0.9621 0.0
H220 H 0.92035 0.40142 0.95206 0.0
H221 H 0.95984 0.42343 0.93635 0.0
H222 H 0.91273 0.48033 0.98196 0.0
H223 H 0.95003 0.50332 0.96474 0.0
H224 H 0.88506 0.44843 0.90139 0.0
H225 H 0.91723 0.47792 0.9197 0.0
H226 H 0.96092 0.40932 0.87836 0.0
H227 H 0.99256 0.43793 0.89691 0.0
N228 N 0.99726 0.4941 0.91062 0.0
N229 N 0.99911 0.49785 0.94491 0.0
C230 C 0.43506 0.57289 0.14912 0.0
C231 C 0.44764 0.58471 0.13445 0.0
C232 C 0.45188 0.55626 0.16046 0.0
C233 C 0.4817 0.55141 0.15746 0.0
C234 C 0.47759 0.58013 0.13162 0.0
C235 C 0.49437 0.5636 0.14297 0.0
C236 C 0.4991 0.53128 0.16829 0.0
C237 C 0.47782 0.60721 0.20082 0.0
C238 C 0.45846 0.60137 0.21411 0.0
C239 C 0.49085 0.58444 0.19192 0.0
C240 C 0.48456 0.55524 0.19592 0.0
C241 C 0.45245 0.5721 0.21829 0.0
C242 C 0.4656 0.54922 0.20935 0.0
C243 C 0.49824 0.53124 0.18619 0.0
C244 C 0.58304 0.43229 0.20295 0.0
C245 C 0.56684 0.41772 0.21546 0.0
C246 C 0.57118 0.45609 0.19418 0.0
C247 C 0.54242 0.46528 0.19721 0.0
C248 C 0.53886 0.42847 0.21936 0.0
C249 C 0.52678 0.45188 0.21029 0.0
C250 C 0.52826 0.48846 0.18681 0.0
C251 C 0.55168 0.41968 0.14666 0.0
C252 C 0.57385 0.42976 0.13592 0.0
C253 C 0.53823 0.43878 0.15804 0.0
C254 C 0.54658 0.46826 0.15868 0.0
C255 C 0.58282 0.45904 0.13706 0.0
C256 C 0.56905 0.47819 0.1482 0.0
C257 C 0.53027 0.48958 0.16893 0.0
H258 H 0.4121 0.5761 0.15172 0.0
H259 H 0.44129 0.54643 0.17127 0.0
H260 H 0.4879 0.58842 0.1203 0.0
H261 H 0.51722 0.55986 0.14025 0.0
H262 H 0.48273 0.62946 0.19714 0.0
H263 H 0.50593 0.5897 0.18187 0.0
H264 H 0.43788 0.56691 0.22859 0.0
H265 H 0.46067 0.52684 0.21276 0.0
H266 H 0.6046 0.42484 0.19947 0.0
H267 H 0.58443 0.46691 0.18479 0.0
H268 H 0.52599 0.41858 0.22926 0.0
H269 H 0.5048 0.45897 0.21319 0.0
H270 H 0.54435 0.39721 0.14598 0.0
H271 H 0.52067 0.43083 0.16589 0.0
H272 H 0.59954 0.46747 0.12877 0.0
H273 H 0.57557 0.50095 0.14842 0.0
N274 N 0.51548 0.51076 0.16043 0.0
N275 N 0.5124 0.50952 0.19478 0.0
C276 C 0.41993 0.94924 0.39947 0.0
C277 C 0.40615 0.96389 0.38592 0.0
C278 C 0.43526 0.96497 0.4119 0.0
C279 C 0.4367 0.99565 0.41114 0.0
C280 C 0.40625 0.99459 0.3857 0.0
C281 C 0.42143 0.01028 0.39815 0.0
C282 C 0.45783 0.01214 0.42182 0.0
C283 C 0.39276 0.98042 0.45926 0.0
C284 C 0.40245 0.95615 0.46863 0.0
C285 C 0.41232 0.99664 0.44963 0.0
C286 C 0.44203 0.98913 0.44938 0.0
C287 C 0.43215 0.94849 0.46836 0.0
C288 C 0.45193 0.96521 0.459 0.0
C289 C 0.46252 0.00674 0.43927 0.0
C290 C 0.55786 0.09469 0.45612 0.0
C291 C 0.5776 0.07664 0.46501 0.0
C292 C 0.53315 0.0828 0.44818 0.0
C293 C 0.52793 0.05256 0.44877 0.0
C294 C 0.57155 0.04658 0.46624 0.0
C295 C 0.54689 0.03469 0.45824 0.0
C296 C 0.5033 0.03926 0.43921 0.0
C297 C 0.56257 0.07277 0.39723 0.0
C298 C 0.55038 0.09666 0.38835 0.0
C299 C 0.5459 0.0569 0.40878 0.0
C300 C 0.51667 0.06442 0.41159 0.0
C301 C 0.52139 0.10482 0.39185 0.0
C302 C 0.5046 0.08859 0.40316 0.0
C303 C 0.49781 0.04547 0.42193 0.0
H304 H 0.42051 0.92559 0.39984 0.0
H305 H 0.44758 0.95297 0.4214 0.0
H306 H 0.39554 0.00646 0.3755 0.0
H307 H 0.42229 0.03389 0.39722 0.0
H308 H 0.3699 0.9866 0.45921 0.0
H309 H 0.40429 0.01522 0.44245 0.0
H310 H 0.44003 0.92983 0.47552 0.0
H311 H 0.47482 0.95918 0.45901 0.0
H312 H 0.56161 0.11801 0.45523 0.0
H313 H 0.51831 0.09721 0.44143 0.0
H314 H 0.58643 0.03203 0.47287 0.0
H315 H 0.5432 0.01134 0.45895 0.0
H316 H 0.58455 0.06536 0.39472 0.0
H317 H 0.55545 0.03799 0.41498 0.0
H318 H 0.51137 0.1234 0.38559 0.0
H319 H 0.48203 0.09468 0.40517 0.0
N320 N 0.47547 0.03156 0.41392 0.0
N321 N 0.48532 0.02019 0.44729 0.0
C322 C 0.0746 0.93737 0.65352 0.0
C323 C 0.06253 0.92198 0.63971 0.0
C324 C 0.05652 0.95238 0.66474 0.0
C325 C 0.02607 0.95244 0.66225 0.0
C326 C 0.03199 0.92082 0.63778 0.0
C327 C 0.01395 0.93617 0.64885 0.0
C328 C 0.00742 0.97271 0.67196 0.0
C329 C 0.02778 0.90161 0.70847 0.0
C330 C 0.05112 0.90864 0.71941 0.0
C331 C 0.01395 0.92331 0.69893 0.0
C332 C 0.02294 0.95251 0.70031 0.0
C333 C 0.06008 0.93792 0.72089 0.0
C334 C 0.04575 0.95982 0.71156 0.0
C335 C 0.00846 0.97497 0.68976 0.0
C336 C 0.92116 0.07359 0.70186 0.0
C337 C 0.93738 0.08979 0.71388 0.0
C338 C 0.93309 0.04874 0.69426 0.0
C339 C 0.96198 0.04021 0.69794 0.0
C340 C 0.96526 0.07943 0.71868 0.0
C341 C 0.97746 0.05511 0.71072 0.0
C342 C 0.97668 0.01637 0.68849 0.0
C343 C 0.94639 0.08022 0.64738 0.0
C344 C 0.92674 0.06748 0.63567 0.0
C345 C 0.96174 0.06283 0.65904 0.0
C346 C 0.95742 0.03246 0.65933 0.0
C347 C 0.9225 0.03707 0.63609 0.0
C348 C 0.93776 0.01978 0.64774 0.0
C349 C 0.97474 0.0132 0.67063 0.0
H350 H 0.09807 0.93864 0.65527 0.0
H351 H 0.06645 0.9653 0.67475 0.0
H352 H 0.02211 0.90946 0.62712 0.0
H353 H 0.99056 0.93619 0.64659 0.0
H354 H 0.02066 0.87917 0.70698 0.0
H355 H 0.99623 0.91729 0.6904 0.0
H356 H 0.07806 0.94379 0.72925 0.0
H357 H 0.05292 0.98228 0.71279 0.0
H358 H 0.89962 0.08056 0.69778 0.0
H359 H 0.91994 0.03677 0.68514 0.0
H360 H 0.97807 0.0904 0.72837 0.0
H361 H 0.99947 0.04855 0.71419 0.0
H362 H 0.95009 0.10359 0.64742 0.0
H363 H 0.97729 0.07301 0.66764 0.0
H364 H 0.90808 0.02643 0.62704 0.0
H365 H 0.93443 0.99633 0.64758 0.0
N366 N 0.99028 0.99161 0.66312 0.0
N367 N 0.99342 0.9969 0.69739 0.0
Mn368 Mn 0.33131 0.67827 0.00522 0.0
Mn369 Mn 0.3433 0.60601 0.01017 0.0
C370 C 0.34068 0.65901 0.03184 0.0
C371 C 0.34942 0.72522 0.0007 0.0
C372 C 0.28304 0.63174 0.00464 0.0
O373 O 0.34093 0.66537 0.98124 0.0
O374 O 0.34823 0.61723 0.98597 0.0
C375 C 0.40651 0.60612 0.00261 0.0
N376 N 0.38429 0.59982 0.01336 0.0
C377 C 0.41784 0.58044 0.03421 0.0
C378 C 0.44106 0.58654 0.02331 0.0
C379 C 0.43537 0.59949 0.00747 0.0
C380 C 0.38954 0.58747 0.02866 0.0
H381 H 0.40226 0.6162 0.99046 0.0
C382 C 0.347 0.6396 0.97621 0.0
O383 O 0.32214 0.71907 0.99764 0.0
O384 O 0.366 0.70398 0.00582 0.0
N385 N 0.33954 0.59213 0.03294 0.0
C386 C 0.31486 0.5889 0.04226 0.0
C387 C 0.3168 0.57652 0.05853 0.0
C388 C 0.34404 0.56752 0.06502 0.0
C389 C 0.36912 0.571 0.05518 0.0
C390 C 0.3658 0.58314 0.03897 0.0
H391 H 0.2939 0.5959 0.03737 0.0
O392 O 0.32694 0.68366 0.03029 0.0
O393 O 0.3481 0.64632 0.01781 0.0
O394 O 0.29104 0.6584 0.00331 0.0
O395 O 0.30075 0.61066 0.00743 0.0
C396 C 0.39735 0.5633 0.06091 0.0
C397 C 0.4217 0.56811 0.05045 0.0
H398 H 0.46336 0.58157 0.02703 0.0
H399 H 0.4532 0.60441 0.99903 0.0
H400 H 0.29735 0.57402 0.06607 0.0
H401 H 0.34546 0.55813 0.0776 0.0
H402 H 0.40062 0.55405 0.07343 0.0
H403 H 0.44334 0.56248 0.05509 0.0
Mn404 Mn 0.32945 0.83718 0.25509 0.0
Mn405 Mn 0.40133 0.8497 0.26143 0.0
C406 C 0.34731 0.84939 0.28179 0.0
C407 C 0.28261 0.85461 0.24902 0.0
C408 C 0.37591 0.78898 0.25727 0.0
O409 O 0.3438 0.84395 0.231 0.0
O410 O 0.39134 0.85279 0.2369 0.0
C411 C 0.40206 0.91222 0.25185 0.0
N412 N 0.40748 0.89085 0.26347 0.0
C413 C 0.42627 0.92577 0.28361 0.0
C414 C 0.42105 0.94816 0.27182 0.0
C415 C 0.40881 0.94135 0.25589 0.0
C416 C 0.41904 0.89718 0.27888 0.0
H417 H 0.39265 0.90708 0.2396 0.0
C418 C 0.36983 0.85005 0.22646 0.0
O419 O 0.28899 0.82712 0.24719 0.0
O420 O 0.30365 0.8719 0.25358 0.0
N421 N 0.41385 0.8476 0.28463 0.0
C422 C 0.41648 0.82363 0.29478 0.0
C423 C 0.4279 0.82675 0.31128 0.0
C424 C 0.4367 0.85441 0.31711 0.0
C425 C 0.43405 0.87871 0.30637 0.0
C426 C 0.42262 0.87424 0.29004 0.0
H427 H 0.40975 0.80233 0.29035 0.0
O428 O 0.32273 0.83557 0.28019 0.0
O429 O 0.3607 0.85524 0.26778 0.0
O430 O 0.34928 0.79681 0.25531 0.0
O431 O 0.39685 0.80696 0.25984 0.0
C432 C 0.44204 0.90722 0.31129 0.0
C433 C 0.43808 0.93075 0.29993 0.0
H434 H 0.4262 0.97065 0.2749 0.0
H435 H 0.4046 0.95852 0.24675 0.0
H436 H 0.42986 0.8079 0.31949 0.0
H437 H 0.44532 0.85678 0.32989 0.0
H438 H 0.4509 0.91136 0.32385 0.0
H439 H 0.44395 0.95263 0.30394 0.0
Mn440 Mn 0.17305 0.83793 0.49909 0.0
Mn441 Mn 0.10101 0.851 0.49627 0.0
C442 C 0.15131 0.84612 0.4728 0.0
C443 C 0.21974 0.85763 0.50269 0.0
C444 C 0.12736 0.79128 0.50421 0.0
O445 O 0.16139 0.84755 0.52347 0.0
O446 O 0.11543 0.86419 0.51884 0.0
C447 C 0.10024 0.91565 0.49686 0.0
N448 N 0.09341 0.89009 0.48894 0.0
C449 C 0.06984 0.91563 0.4659 0.0
C450 C 0.07635 0.94224 0.4739 0.0
C451 C 0.09174 0.94224 0.48941 0.0
C452 C 0.0789 0.88984 0.47393 0.0
H453 H 0.11217 0.91573 0.50874 0.0
C454 C 0.13787 0.85988 0.5284 0.0
O455 O 0.21477 0.83019 0.50585 0.0
O456 O 0.19758 0.87335 0.49804 0.0
N457 N 0.08497 0.83938 0.47478 0.0
C458 C 0.08223 0.81202 0.46815 0.0
C459 C 0.06853 0.80829 0.45228 0.0
C460 C 0.05763 0.83269 0.44345 0.0
C461 C 0.0606 0.86062 0.45056 0.0
C462 C 0.07441 0.86299 0.46643 0.0
H463 H 0.09047 0.79317 0.47489 0.0
O464 O 0.17652 0.83328 0.47379 0.0
O465 O 0.14009 0.85361 0.48715 0.0
O466 O 0.15401 0.7976 0.50127 0.0
O467 O 0.10659 0.80998 0.50359 0.0
C468 C 0.05072 0.88625 0.44242 0.0
C469 C 0.05521 0.91371 0.45013 0.0
H470 H 0.06992 0.96279 0.46816 0.0
H471 H 0.09706 0.96269 0.4956 0.0
H472 H 0.06637 0.78666 0.44687 0.0
H473 H 0.0472 0.82974 0.43118 0.0
H474 H 0.03994 0.88511 0.43015 0.0
H475 H 0.04774 0.93328 0.44369 0.0
Mn476 Mn 0.16984 0.6751 0.74712 0.0
Mn477 Mn 0.1658 0.60153 0.74518 0.0
C478 C 0.16231 0.65181 0.72139 0.0
C479 C 0.14743 0.72056 0.75 0.0
C480 C 0.22284 0.63422 0.74936 0.0
O481 O 0.16178 0.66405 0.77164 0.0
O482 O 0.15931 0.61497 0.76881 0.0
C483 C 0.103 0.59481 0.75286 0.0
N484 N 0.12593 0.59005 0.74235 0.0
C485 C 0.09578 0.56235 0.72304 0.0
C486 C 0.07185 0.56682 0.73369 0.0
C487 C 0.07546 0.58323 0.74863 0.0
C488 C 0.12263 0.57456 0.72787 0.0
H489 H 0.10572 0.6073 0.76438 0.0
C490 C 0.15828 0.63842 0.77766 0.0
O491 O 0.17515 0.71719 0.75315 0.0
O492 O 0.13278 0.69742 0.74574 0.0
N493 N 0.17147 0.58553 0.72305 0.0
C494 C 0.19634 0.58459 0.71372 0.0
C495 C 0.19619 0.56979 0.69813 0.0
C496 C 0.17062 0.55579 0.6924 0.0
C497 C 0.1454 0.55681 0.70231 0.0
C498 C 0.1468 0.57202 0.71769 0.0
H499 H 0.21608 0.59519 0.71811 0.0
O500 O 0.17338 0.67789 0.72187 0.0
O501 O 0.15636 0.64009 0.73594 0.0
O502 O 0.21199 0.65993 0.74948 0.0
O503 O 0.20747 0.61113 0.7477 0.0
C504 C 0.11885 0.54353 0.69746 0.0
C505 C 0.094 0.54645 0.70776 0.0
H506 H 0.05059 0.55788 0.73048 0.0
H507 H 0.05708 0.58686 0.75688 0.0
H508 H 0.21575 0.56912 0.69055 0.0
H509 H 0.17057 0.54444 0.68035 0.0
H510 H 0.11716 0.53143 0.68569 0.0
H511 H 0.07356 0.5366 0.70374 0.0
Mn512 Mn 0.83298 0.17377 0.50352 0.0
Mn513 Mn 0.83927 0.10072 0.50822 0.0
C514 C 0.83898 0.15363 0.5302 0.0
C515 C 0.85447 0.21942 0.49961 0.0
C516 C 0.78154 0.131 0.5012 0.0
O517 O 0.84322 0.16034 0.47971 0.0
O518 O 0.84775 0.11183 0.48436 0.0
C519 C 0.90303 0.0957 0.50303 0.0
N520 N 0.87921 0.09118 0.51288 0.0
C521 C 0.90865 0.06878 0.53476 0.0
C522 C 0.93348 0.07302 0.52479 0.0
C523 C 0.93065 0.0866 0.50888 0.0
C524 C 0.88169 0.07821 0.52824 0.0
H525 H 0.90096 0.10623 0.49082 0.0
C526 C 0.84849 0.13435 0.4747 0.0
O527 O 0.8271 0.21504 0.49588 0.0
O528 O 0.86933 0.19711 0.505 0.0
N529 N 0.83185 0.08698 0.53069 0.0
C530 C 0.80599 0.08578 0.53906 0.0
C531 C 0.80513 0.07334 0.55532 0.0
C532 C 0.83079 0.06212 0.56276 0.0
C533 C 0.8571 0.06339 0.55385 0.0
C534 C 0.85656 0.07579 0.53761 0.0
H535 H 0.7862 0.09438 0.5334 0.0
O536 O 0.82731 0.17929 0.52845 0.0
O537 O 0.84646 0.14051 0.5163 0.0
O538 O 0.79153 0.15705 0.50072 0.0
O539 O 0.79755 0.10859 0.5039 0.0
C540 C 0.88391 0.05331 0.56055 0.0
C541 C 0.90969 0.05606 0.55103 0.0
H542 H 0.95485 0.06617 0.52929 0.0
H543 H 0.94973 0.09008 0.50115 0.0
H544 H 0.78475 0.07248 0.56213 0.0
H545 H 0.83008 0.05273 0.57536 0.0
H546 H 0.88503 0.04379 0.57312 0.0
H547 H 0.93024 0.0486 0.55642 0.0
Mn548 Mn 0.82357 0.33812 0.75386 0.0
Mn549 Mn 0.89513 0.34855 0.7618 0.0
C550 C 0.84031 0.34215 0.7816 0.0
C551 C 0.77803 0.35935 0.74856 0.0
C552 C 0.86907 0.2906 0.75005 0.0
O553 O 0.83977 0.35043 0.73083 0.0
O554 O 0.88542 0.36378 0.73885 0.0
C555 C 0.89706 0.41315 0.76305 0.0
N556 N 0.90211 0.38685 0.7706 0.0
C557 C 0.92169 0.41007 0.79562 0.0
C558 C 0.91697 0.43741 0.78805 0.0
C559 C 0.9045 0.43895 0.77172 0.0
C560 C 0.91392 0.38511 0.78635 0.0
H561 H 0.88731 0.41441 0.75054 0.0
C562 C 0.86473 0.36178 0.72781 0.0
O563 O 0.78309 0.33234 0.74438 0.0
O564 O 0.79963 0.37393 0.75505 0.0
N565 N 0.90699 0.33493 0.78377 0.0
C566 C 0.90809 0.30702 0.78974 0.0
C567 C 0.91894 0.30174 0.80619 0.0
C568 C 0.92869 0.32517 0.81627 0.0
C569 C 0.92747 0.35369 0.80982 0.0
C570 C 0.91657 0.3576 0.79331 0.0
H571 H 0.90069 0.28892 0.78204 0.0
O572 O 0.8152 0.33016 0.7784 0.0
O573 O 0.85448 0.35136 0.7685 0.0
O574 O 0.84213 0.29761 0.75107 0.0
O575 O 0.89009 0.30834 0.75305 0.0
C576 C 0.93614 0.37845 0.81923 0.0
C577 C 0.93316 0.40662 0.81216 0.0
H578 H 0.92252 0.45736 0.79473 0.0
H579 H 0.90058 0.45997 0.76584 0.0
H580 H 0.91974 0.27967 0.81109 0.0
H581 H 0.93685 0.32103 0.82899 0.0
H582 H 0.94469 0.3761 0.83202 0.0
H583 H 0.93937 0.42551 0.81965 0.0
Mn584 Mn 0.67415 0.3286 0.99689 0.0
Mn585 Mn 0.60079 0.33342 0.99382 0.0
C586 C 0.65146 0.33613 0.97086 0.0
C587 C 0.71971 0.35105 0.9999 0.0
C588 C 0.63262 0.276 0.9985 0.0
O589 O 0.66262 0.33726 0.02127 0.0
O590 O 0.6136 0.33957 0.01773 0.0
C591 C 0.59494 0.39632 0.00185 0.0
N592 N 0.59031 0.37356 0.99102 0.0
C593 C 0.5661 0.40488 0.97078 0.0
C594 C 0.57046 0.42862 0.98176 0.0
C595 C 0.58501 0.42432 0.99734 0.0
C596 C 0.57647 0.37748 0.97596 0.0
H597 H 0.60617 0.39313 0.01382 0.0
C598 C 0.63681 0.34065 0.02696 0.0
O599 O 0.71633 0.32347 0.0033 0.0
O600 O 0.6965 0.36554 0.99558 0.0
N601 N 0.58564 0.32814 0.97131 0.0
C602 C 0.58435 0.30323 0.96187 0.0
C603 C 0.57107 0.30394 0.94574 0.0
C604 C 0.55912 0.33017 0.93954 0.0
C605 C 0.56049 0.35546 0.94956 0.0
C606 C 0.57385 0.35339 0.96556 0.0
H607 H 0.59355 0.28303 0.96657 0.0
O608 O 0.67732 0.32458 0.97162 0.0
O609 O 0.63962 0.34216 0.98531 0.0
O610 O 0.65845 0.2866 0.99916 0.0
O611 O 0.60975 0.29158 0.99626 0.0
C612 C 0.54943 0.3827 0.94421 0.0
C613 C 0.55225 0.4074 0.95481 0.0
H614 H 0.5629 0.45027 0.97831 0.0
H615 H 0.58857 0.44256 0.00585 0.0
H616 H 0.57013 0.28434 0.93808 0.0
H617 H 0.54909 0.33069 0.92704 0.0
H618 H 0.53904 0.38499 0.93187 0.0
H619 H 0.54398 0.42831 0.95046 0.0
Mn620 Mn 0.66855 0.17429 0.24904 0.0
Mn621 Mn 0.66029 0.10111 0.25092 0.0
C622 C 0.66295 0.14737 0.22438 0.0
C623 C 0.64795 0.22093 0.24872 0.0
C624 C 0.71839 0.13156 0.25654 0.0
O625 O 0.65713 0.16743 0.27368 0.0
O626 O 0.64991 0.11861 0.27307 0.0
C627 C 0.59608 0.09807 0.2545 0.0
N628 N 0.6207 0.09082 0.24593 0.0
C629 C 0.59322 0.06153 0.22608 0.0
C630 C 0.56756 0.06856 0.23474 0.0
C631 C 0.569 0.08701 0.24897 0.0
C632 C 0.61955 0.07327 0.23215 0.0
H633 H 0.59714 0.11216 0.26547 0.0
C634 C 0.64999 0.14334 0.28069 0.0
O635 O 0.67506 0.21692 0.2532 0.0
O636 O 0.6328 0.19785 0.24499 0.0
N637 N 0.66955 0.08153 0.23023 0.0
C638 C 0.69602 0.07843 0.2227 0.0
C639 C 0.6982 0.06155 0.2079 0.0
C640 C 0.67325 0.04779 0.20112 0.0
C641 C 0.64631 0.05111 0.20919 0.0
C642 C 0.64545 0.06828 0.22387 0.0
H643 H 0.71528 0.08884 0.22792 0.0
O644 O 0.67511 0.17297 0.22396 0.0
O645 O 0.65471 0.13837 0.23918 0.0
O646 O 0.70963 0.15762 0.25373 0.0
O647 O 0.70164 0.10929 0.25598 0.0
C648 C 0.62023 0.03834 0.20315 0.0
C649 C 0.59367 0.04362 0.21155 0.0
H650 H 0.54663 0.06008 0.23051 0.0
H651 H 0.54928 0.09262 0.25568 0.0
H652 H 0.71907 0.05912 0.20173 0.0
H653 H 0.67501 0.03486 0.18967 0.0
H654 H 0.62024 0.02481 0.19188 0.0
H655 H 0.57367 0.03411 0.2066 0.0
H656 H 0.1337 0.90862 0.29908 0.0
H657 H 0.12044 0.95669 0.2526 0.0
H658 H 0.17314 0.88087 0.28595 0.0
H659 H 0.16052 0.92931 0.23947 0.0
H660 H 0.23254 0.8241 0.25505 0.0
H661 H 0.18431 0.84487 0.26086 0.0
H662 H 0.21629 0.93062 0.24791 0.0
H663 H 0.26451 0.91005 0.24246 0.0
C664 C 0.139 0.91284 0.28595 0.0
C665 C 0.12422 0.93471 0.27681 0.0
C666 C 0.16138 0.89688 0.2784 0.0
C667 C 0.16979 0.90291 0.26168 0.0
C668 C 0.15438 0.92422 0.25236 0.0
C669 C 0.13151 0.93979 0.25982 0.0
C670 C 0.22898 0.84722 0.25295 0.0
C671 C 0.25226 0.86552 0.24841 0.0
C672 C 0.20147 0.85911 0.25637 0.0
C673 C 0.19667 0.88935 0.25492 0.0
C674 C 0.21932 0.90722 0.24902 0.0
C675 C 0.24693 0.89546 0.24595 0.0
H676 H 0.02878 0.63768 0.53052 0.0
H677 H 0.11731 0.60474 0.52901 0.0
H678 H 0.04563 0.68492 0.52133 0.0
H679 H 0.1346 0.65321 0.52142 0.0
H680 H 0.15336 0.7401 0.49417 0.0
H681 H 0.13779 0.69027 0.50082 0.0
H682 H 0.06937 0.72507 0.53241 0.0
H683 H 0.08388 0.77427 0.52497 0.0
C684 C 0.05187 0.6403 0.52814 0.0
C685 C 0.07156 0.61703 0.53057 0.0
C686 C 0.06169 0.66782 0.5232 0.0
C687 C 0.09163 0.67328 0.52093 0.0
C688 C 0.11136 0.64993 0.52297 0.0
C689 C 0.10144 0.62212 0.52761 0.0
C690 C 0.13502 0.73691 0.50253 0.0
C691 C 0.11962 0.76101 0.5089 0.0
C692 C 0.12613 0.70838 0.50642 0.0
C693 C 0.10197 0.70344 0.51698 0.0
C694 C 0.08739 0.72778 0.52378 0.0
C695 C 0.09587 0.75611 0.51963 0.0
H696 H 0.40241 0.57068 0.75513 0.0
H697 H 0.38479 0.61426 0.80252 0.0
H698 H 0.35646 0.58922 0.74341 0.0
H699 H 0.33893 0.63278 0.79081 0.0
H700 H 0.26268 0.67343 0.76242 0.0
H701 H 0.31406 0.66412 0.76952 0.0
H702 H 0.30587 0.5766 0.74952 0.0
H703 H 0.25513 0.58586 0.74229 0.0
C704 C 0.38884 0.58439 0.76299 0.0
C705 C 0.39709 0.59072 0.77981 0.0
C706 C 0.36256 0.59506 0.75627 0.0
C707 C 0.34394 0.61227 0.76623 0.0
C708 C 0.35293 0.61987 0.78274 0.0
C709 C 0.37921 0.60921 0.78946 0.0
C710 C 0.27204 0.6524 0.75928 0.0
C711 C 0.25472 0.63032 0.75192 0.0
C712 C 0.30139 0.64702 0.76343 0.0
C713 C 0.31401 0.6196 0.76012 0.0
C714 C 0.29699 0.59807 0.75206 0.0
C715 C 0.26774 0.60334 0.74805 0.0
H716 H 0.38312 0.89755 0.03601 0.0
H717 H 0.46026 0.87864 0.00712 0.0
H718 H 0.35899 0.85454 0.02393 0.0
H719 H 0.43595 0.83643 0.99439 0.0
H720 H 0.31905 0.77682 0.99737 0.0
H721 H 0.33873 0.82636 0.00059 0.0
H722 H 0.42557 0.79034 0.00646 0.0
H723 H 0.40619 0.74159 0.00284 0.0
C724 C 0.39447 0.88469 0.02662 0.0
C725 C 0.42357 0.89104 0.0226 0.0
C726 C 0.38067 0.86011 0.01963 0.0
C727 C 0.39571 0.84167 0.00839 0.0
C728 C 0.42398 0.84969 0.00333 0.0
C729 C 0.43787 0.87393 0.0105 0.0
C730 C 0.34241 0.77968 0.99896 0.0
C731 C 0.36105 0.75532 0.99997 0.0
C732 C 0.35366 0.808 0.00093 0.0
C733 C 0.38374 0.81241 0.00385 0.0
C734 C 0.40238 0.78799 0.00397 0.0
C735 C 0.3912 0.75988 0.00204 0.0
H736 H 0.09963 0.60927 0.97223 0.0
H737 H 0.14243 0.52515 0.97205 0.0
H738 H 0.14316 0.63109 0.98537 0.0
H739 H 0.186 0.54694 0.98431 0.0
H740 H 0.25429 0.58445 0.01701 0.0
H741 H 0.20562 0.56755 0.0095 0.0
H742 H 0.19296 0.64371 0.97786 0.0
H743 H 0.24155 0.66132 0.98603 0.0
C744 C 0.11821 0.59541 0.97512 0.0
C745 C 0.11765 0.56551 0.971 0.0
C746 C 0.14324 0.60796 0.98248 0.0
C747 C 0.16811 0.59081 0.98593 0.0
C748 C 0.16716 0.5608 0.98211 0.0
C749 C 0.14226 0.54833 0.97483 0.0
C750 C 0.24098 0.59789 0.00869 0.0
C751 C 0.25192 0.62407 0.00196 0.0
C752 C 0.21309 0.58809 0.00428 0.0
C753 C 0.19558 0.60391 0.99277 0.0
C754 C 0.20581 0.63101 0.98681 0.0
C755 C 0.23369 0.64108 0.99144 0.0
H756 H 0.48471 0.65157 0.22491 0.0
H757 H 0.40158 0.60696 0.22452 0.0
H758 H 0.46221 0.69394 0.23779 0.0
H759 H 0.37907 0.64922 0.23822 0.0
H760 H 0.34678 0.74696 0.23898 0.0
H761 H 0.36525 0.69887 0.231 0.0
H762 H 0.44128 0.71245 0.26299 0.0
H763 H 0.4234 0.76074 0.2704 0.0
C764 C 0.46161 0.65073 0.22771 0.0
C765 C 0.4449 0.62599 0.22351 0.0
C766 C 0.44874 0.67493 0.23535 0.0
C767 C 0.41877 0.67504 0.23913 0.0
C768 C 0.40214 0.64997 0.23536 0.0
C769 C 0.41509 0.62565 0.22767 0.0
C770 C 0.36714 0.73939 0.24457 0.0
C771 C 0.38383 0.75783 0.25512 0.0
C772 C 0.37772 0.71177 0.24002 0.0
C773 C 0.40507 0.70198 0.24608 0.0
C774 C 0.42055 0.7196 0.25769 0.0
C775 C 0.41019 0.74724 0.26205 0.0
H776 H 0.38904 0.89844 0.465 0.0
H777 H 0.3675 0.97536 0.49383 0.0
H778 H 0.34743 0.8727 0.47724 0.0
H779 H 0.32683 0.94948 0.50676 0.0
H780 H 0.23345 0.91497 0.50033 0.0
H781 H 0.28083 0.93649 0.49568 0.0
H782 H 0.32125 0.85147 0.50061 0.0
H783 H 0.27295 0.82956 0.50479 0.0
C784 C 0.37586 0.90946 0.47437 0.0
C785 C 0.38109 0.9389 0.47835 0.0
C786 C 0.35211 0.89474 0.48146 0.0
C787 C 0.3334 0.90915 0.4928 0.0
C788 C 0.34026 0.93792 0.49774 0.0
C789 C 0.36363 0.95273 0.49044 0.0
C790 C 0.25242 0.90081 0.50069 0.0
C791 C 0.24939 0.87051 0.50279 0.0
C792 C 0.27978 0.91325 0.49816 0.0
C793 C 0.30503 0.89578 0.49774 0.0
C794 C 0.30222 0.86554 0.50066 0.0
C795 C 0.27462 0.85301 0.5032 0.0
H796 H 0.02731 0.86711 0.73965 0.0
H797 H 0.10943 0.89651 0.71951 0.0
H798 H 0.05116 0.82364 0.75114 0.0
H799 H 0.13329 0.85245 0.73035 0.0
H800 H 0.17233 0.77397 0.75678 0.0
H801 H 0.14969 0.82207 0.75332 0.0
H802 H 0.06856 0.78051 0.73845 0.0
H803 H 0.09075 0.73296 0.74244 0.0
C804 C 0.05058 0.86433 0.73786 0.0
C805 C 0.06654 0.88494 0.7286 0.0
C806 C 0.06424 0.83937 0.74433 0.0
C807 C 0.09407 0.83419 0.74141 0.0
C808 C 0.11036 0.85576 0.73298 0.0
C809 C 0.09673 0.88098 0.72671 0.0
C810 C 0.14952 0.77521 0.75306 0.0
C811 C 0.13337 0.74967 0.74982 0.0
C812 C 0.13659 0.80276 0.75097 0.0
C813 C 0.10728 0.80527 0.74556 0.0
C814 C 0.09099 0.77958 0.74292 0.0
C815 C 0.10382 0.75219 0.74508 0.0
H816 H 0.60784 0.39469 0.78528 0.0
H817 H 0.63047 0.47621 0.76142 0.0
H818 H 0.64977 0.3711 0.77204 0.0
H819 H 0.67144 0.45259 0.7474 0.0
H820 H 0.76458 0.41645 0.7527 0.0
H821 H 0.71711 0.43757 0.75762 0.0
H822 H 0.67653 0.35376 0.74808 0.0
H823 H 0.7249 0.3322 0.74369 0.0
C824 C 0.62137 0.40727 0.77677 0.0
C825 C 0.61633 0.43725 0.77449 0.0
C826 C 0.64529 0.39378 0.76909 0.0
C827 C 0.66436 0.41002 0.75882 0.0
C828 C 0.65775 0.43956 0.75557 0.0
C829 C 0.63421 0.4531 0.76349 0.0
C830 C 0.74555 0.40255 0.75133 0.0
C831 C 0.74855 0.37258 0.74797 0.0
C832 C 0.71813 0.41477 0.75403 0.0
C833 C 0.6928 0.39741 0.75334 0.0
C834 C 0.6956 0.3677 0.74895 0.0
C835 C 0.72326 0.35539 0.74627 0.0
H836 H 0.60995 0.11632 0.05299 0.0
H837 H 0.56488 0.09837 0.00576 0.0
H838 H 0.62951 0.16131 0.04102 0.0
H839 H 0.58467 0.14319 0.9937 0.0
H840 H 0.58395 0.24405 0.99113 0.0
H841 H 0.57367 0.19396 0.99892 0.0
H842 H 0.66073 0.18529 0.02001 0.0
H843 H 0.67101 0.23611 0.01242 0.0
C844 C 0.6048 0.12164 0.03991 0.0
C845 C 0.58556 0.10402 0.03039 0.0
C846 C 0.61607 0.1474 0.03303 0.0
C847 C 0.60839 0.15603 0.01646 0.0
C848 C 0.59054 0.13747 0.00662 0.0
C849 C 0.57919 0.11181 0.01352 0.0
C850 C 0.60112 0.23147 0.99725 0.0
C851 C 0.62824 0.24426 0.00129 0.0
C852 C 0.59527 0.20256 0.0016 0.0
C853 C 0.61634 0.18557 0.01013 0.0
C854 C 0.64393 0.19791 0.01359 0.0
C855 C 0.64988 0.22695 0.00914 0.0
H856 H 0.90685 0.13081 0.27886 0.0
H857 H 0.87855 0.04064 0.27794 0.0
H858 H 0.8572 0.14636 0.27199 0.0
H859 H 0.83008 0.056 0.26962 0.0
H860 H 0.73972 0.08895 0.27689 0.0
H861 H 0.79025 0.07704 0.28306 0.0
H862 H 0.81821 0.14899 0.25162 0.0
H863 H 0.76695 0.1618 0.2461 0.0
C864 C 0.89024 0.11424 0.27704 0.0
C865 C 0.89692 0.0844 0.27918 0.0
C866 C 0.86179 0.1232 0.27285 0.0
C867 C 0.83939 0.1025 0.27052 0.0
C868 C 0.84649 0.07267 0.27178 0.0
C869 C 0.87466 0.06378 0.27623 0.0
C870 C 0.75663 0.10233 0.27133 0.0
C871 C 0.7494 0.12614 0.26089 0.0
C872 C 0.7857 0.09534 0.27474 0.0
C873 C 0.80848 0.11158 0.26752 0.0
C874 C 0.80128 0.13602 0.25743 0.0
C875 C 0.77195 0.14335 0.25423 0.0
H876 H 0.88971 0.39397 0.53207 0.0
H877 H 0.97111 0.36857 0.50931 0.0
H878 H 0.86627 0.35027 0.52043 0.0
H879 H 0.94764 0.32549 0.4971 0.0
H880 H 0.91129 0.23311 0.50572 0.0
H881 H 0.93241 0.28113 0.50966 0.0
H882 H 0.84938 0.32086 0.49685 0.0
H883 H 0.82786 0.27222 0.49335 0.0
C884 C 0.9023 0.37944 0.52413 0.0
C885 C 0.93225 0.38433 0.52175 0.0
C886 C 0.8889 0.35445 0.5174 0.0
C887 C 0.90518 0.33406 0.50804 0.0
C888 C 0.93463 0.3403 0.5046 0.0
C889 C 0.94806 0.36503 0.5115 0.0
C890 C 0.89757 0.25204 0.50349 0.0
C891 C 0.86783 0.24884 0.49935 0.0
C892 C 0.90978 0.27971 0.50562 0.0
C893 C 0.89262 0.30499 0.5036 0.0
C894 C 0.86312 0.30184 0.4987 0.0
C895 C 0.85085 0.27401 0.49657 0.0
H896 H 0.60299 0.06438 0.49579 0.0
H897 H 0.61461 0.11606 0.45053 0.0
H898 H 0.65056 0.08058 0.5064 0.0
H899 H 0.66218 0.13217 0.4611 0.0
H900 H 0.74018 0.17013 0.4897 0.0
H901 H 0.68892 0.16021 0.4828 0.0
H902 H 0.70052 0.07042 0.49836 0.0
H903 H 0.75118 0.08029 0.50552 0.0
C904 C 0.61566 0.07928 0.48814 0.0
C905 C 0.60513 0.08874 0.47226 0.0
C906 C 0.64289 0.08858 0.49422 0.0
C907 C 0.66027 0.10749 0.48454 0.0
C908 C 0.64921 0.11789 0.46897 0.0
C909 C 0.62195 0.10862 0.4629 0.0
C910 C 0.73168 0.14837 0.49183 0.0
C911 C 0.74992 0.12599 0.49806 0.0
C912 C 0.70236 0.14266 0.48778 0.0
C913 C 0.69064 0.11452 0.49001 0.0
C914 C 0.70869 0.09243 0.4967 0.0
C915 C 0.7379 0.09807 0.50067 0.0
H916 H 0.88022 0.10638 0.71992 0.0
H917 H 0.96906 0.13837 0.72293 0.0
H918 H 0.86246 0.15437 0.72812 0.0
H919 H 0.95155 0.18492 0.73279 0.0
H920 H 0.91506 0.27499 0.73087 0.0
H921 H 0.92988 0.2264 0.72236 0.0
H922 H 0.85674 0.18966 0.74935 0.0
H923 H 0.84092 0.23902 0.75696 0.0
C924 C 0.89605 0.12344 0.72244 0.0
C925 C 0.92619 0.11822 0.72057 0.0
C926 C 0.88582 0.15096 0.72743 0.0
C927 C 0.90546 0.17387 0.73096 0.0
C928 C 0.93558 0.16823 0.72975 0.0
C929 C 0.94575 0.14105 0.72443 0.0
C930 C 0.90211 0.25651 0.73496 0.0
C931 C 0.87697 0.26074 0.74468 0.0
C932 C 0.91074 0.22852 0.73021 0.0
C933 C 0.89493 0.20378 0.73542 0.0
C934 C 0.8694 0.20808 0.74496 0.0
C935 C 0.86036 0.23633 0.7494 0.0
H936 H 0.90066 0.38128 0.97567 0.0
H937 H 0.8647 0.46827 0.98059 0.0
H938 H 0.8551 0.36082 0.98562 0.0
H939 H 0.8207 0.44799 0.9923 0.0
H940 H 0.73243 0.40418 0.98677 0.0
H941 H 0.77987 0.42524 0.98181 0.0
H942 H 0.82094 0.35136 0.00665 0.0
H943 H 0.77282 0.32933 0.01073 0.0
C944 C 0.8833 0.39616 0.97903 0.0
C945 C 0.88651 0.42656 0.97689 0.0
C946 C 0.85721 0.38435 0.98511 0.0
C947 C 0.83377 0.40263 0.98956 0.0
C948 C 0.83779 0.43306 0.98855 0.0
C949 C 0.86352 0.44481 0.9821 0.0
C950 C 0.75152 0.39251 0.99138 0.0
C951 C 0.74883 0.36502 0.99911 0.0
C952 C 0.77893 0.40477 0.98865 0.0
C953 C 0.80457 0.39018 0.99385 0.0
C954 C 0.80181 0.36308 0.0022 0.0
C955 C 0.77422 0.35053 0.00469 0.0
H956 H 0.53596 0.36967 0.22601 0.0
H957 H 0.624 0.40356 0.22347 0.0
H958 H 0.55465 0.32412 0.23722 0.0
H959 H 0.64289 0.35681 0.23311 0.0
H960 H 0.6701 0.27348 0.25971 0.0
H961 H 0.64974 0.32212 0.25459 0.0
H962 H 0.57763 0.28311 0.22684 0.0
H963 H 0.59709 0.235 0.23275 0.0
C964 C 0.55931 0.36764 0.22794 0.0
C965 C 0.57838 0.39051 0.22362 0.0
C966 C 0.57013 0.34112 0.23411 0.0
C967 C 0.60039 0.33634 0.23579 0.0
C968 C 0.61945 0.35955 0.23209 0.0
C969 C 0.60857 0.38633 0.22623 0.0
C970 C 0.6497 0.27543 0.25272 0.0
C971 C 0.63518 0.25042 0.24667 0.0
C972 C 0.6381 0.30331 0.24966 0.0
C973 C 0.61195 0.30677 0.24027 0.0
C974 C 0.59739 0.28155 0.23445 0.0
C975 C 0.60871 0.2538 0.23773 0.0
H976 H 0.07683 0.96689 0.40099 0.0
H977 H 0.11923 0.90461 0.36832 0.0
H978 H 0.09257 0.93948 0.42562 0.0
H979 H 0.13543 0.87681 0.39326 0.0
H980 H 0.13666 0.82088 0.44234 0.0
H981 H 0.12111 0.84632 0.41633 0.0
H982 H 0.13388 0.92925 0.44171 0.0
H983 H 0.14759 0.90373 0.46757 0.0
C984 C 0.08986 0.94742 0.3991 0.0
C985 C 0.09719 0.93818 0.38272 0.0
C986 C 0.09885 0.93155 0.41327 0.0
C987 C 0.11548 0.90591 0.41153 0.0
C988 C 0.12241 0.89628 0.3951 0.0
C989 C 0.11326 0.91224 0.38081 0.0
C990 C 0.13583 0.84453 0.44221 0.0
C991 C 0.1423 0.86047 0.45695 0.0
C992 C 0.12722 0.85914 0.42734 0.0
C993 C 0.12577 0.88991 0.42693 0.0
C994 C 0.13376 0.9056 0.44161 0.0
C995 C 0.14175 0.89104 0.45644 0.0
H996 H 0.06487 0.54953 0.64935 0.0
H997 H 0.11006 0.60971 0.61674 0.0
H998 H 0.08491 0.57402 0.67412 0.0
H999 H 0.13096 0.63432 0.64178 0.0
H1000 H 0.1885 0.64528 0.69065 0.0
H1001 H 0.16624 0.62589 0.66453 0.0
H1002 H 0.08383 0.61711 0.69034 0.0
H1003 H 0.10646 0.63541 0.71632 0.0
C1004 C 0.07926 0.56805 0.64756 0.0
C1005 C 0.08618 0.57764 0.63121 0.0
C1006 C 0.09077 0.58216 0.66176 0.0
C1007 C 0.10999 0.6059 0.66001 0.0
C1008 C 0.11661 0.6158 0.64358 0.0
C1009 C 0.10455 0.60192 0.62928 0.0
C1010 C 0.16568 0.63905 0.69061 0.0
C1011 C 0.14938 0.64069 0.70552 0.0
C1012 C 0.15283 0.62824 0.67567 0.0
C1013 C 0.12329 0.61959 0.67537 0.0
C1014 C 0.10678 0.62281 0.69019 0.0
C1015 C 0.1197 0.63325 0.70508 0.0
H1016 H 0.40783 0.54676 0.88984 0.0
H1017 H 0.42618 0.6357 0.87547 0.0
H1018 H 0.38276 0.56381 0.91489 0.0
H1019 H 0.3993 0.65334 0.90007 0.0
H1020 H 0.38447 0.67128 0.95697 0.0
H1021 H 0.40305 0.65834 0.9291 0.0
H1022 H 0.34317 0.58516 0.927 0.0
H1023 H 0.32661 0.59703 0.9554 0.0
C1024 C 0.40571 0.57008 0.89186 0.0
C1025 C 0.41884 0.58993 0.88076 0.0
C1026 C 0.39113 0.57999 0.9062 0.0
C1027 C 0.38874 0.61012 0.90965 0.0
C1028 C 0.40107 0.63001 0.8981 0.0
C1029 C 0.41626 0.61999 0.88392 0.0
C1030 C 0.37512 0.6527 0.95036 0.0
C1031 C 0.35437 0.63497 0.95829 0.0
C1032 C 0.38563 0.64527 0.93432 0.0
C1033 C 0.37505 0.62031 0.92573 0.0
C1034 C 0.35269 0.6039 0.93334 0.0
C1035 C 0.34288 0.61084 0.94955 0.0
H1036 H 0.44964 0.85898 0.12706 0.0
H1037 H 0.39445 0.93519 0.13096 0.0
H1038 H 0.42801 0.8391 0.15275 0.0
H1039 H 0.37284 0.91529 0.15664 0.0
H1040 H 0.33174 0.86475 0.20052 0.0
H1041 H 0.34415 0.87561 0.17097 0.0
H1042 H 0.4347 0.85625 0.18208 0.0
H1043 H 0.42249 0.84538 0.21122 0.0
C1044 C 0.43258 0.87127 0.13326 0.0
C1045 C 0.42407 0.89884 0.12711 0.0
C1046 C 0.42019 0.85989 0.14796 0.0
C1047 C 0.39903 0.87584 0.15686 0.0
C1048 C 0.38895 0.90239 0.15002 0.0
C1049 C 0.40135 0.91379 0.13529 0.0
C1050 C 0.3542 0.86246 0.19654 0.0
C1051 C 0.37615 0.85442 0.20825 0.0
C1052 C 0.36131 0.86879 0.17966 0.0
C1053 C 0.39039 0.86667 0.17418 0.0
C1054 C 0.41203 0.85767 0.1858 0.0
C1055 C 0.40504 0.85173 0.20259 0.0
H1056 H 0.11691 0.53811 0.86356 0.0
H1057 H 0.06728 0.61651 0.87344 0.0
H1058 H 0.14039 0.56197 0.84006 0.0
H1059 H 0.09287 0.64145 0.85076 0.0
H1060 H 0.11031 0.65866 0.7937 0.0
H1061 H 0.09271 0.64311 0.82135 0.0
H1062 H 0.17312 0.59516 0.82974 0.0
H1063 H 0.18934 0.60912 0.80152 0.0
C1064 C 0.11123 0.56061 0.86086 0.0
C1065 C 0.08968 0.57509 0.87025 0.0
C1066 C 0.12522 0.57461 0.84751 0.0
C1067 C 0.1186 0.6038 0.84333 0.0
C1068 C 0.09821 0.61883 0.85334 0.0
C1069 C 0.0838 0.60461 0.86656 0.0
C1070 C 0.12436 0.64535 0.80171 0.0
C1071 C 0.15105 0.63498 0.79562 0.0
C1072 C 0.11438 0.63643 0.8176 0.0
C1073 C 0.13121 0.61735 0.8278 0.0
C1074 C 0.15907 0.60904 0.8221 0.0
C1075 C 0.16863 0.61732 0.80605 0.0
H1076 H 0.46171 0.63352 0.11616 0.0
H1077 H 0.39246 0.57071 0.12335 0.0
H1078 H 0.43432 0.6552 0.09264 0.0
H1079 H 0.36491 0.59279 0.10005 0.0
H1080 H 0.31494 0.65158 0.06266 0.0
H1081 H 0.33927 0.63761 0.08941 0.0
H1082 H 0.42244 0.63725 0.06398 0.0
H1083 H 0.39813 0.65121 0.03756 0.0
C1084 C 0.44058 0.62445 0.1128 0.0
C1085 C 0.42945 0.60017 0.12154 0.0
C1086 C 0.42487 0.63692 0.09936 0.0
C1087 C 0.39759 0.62551 0.0944 0.0
C1088 C 0.38577 0.60219 0.10365 0.0
C1089 C 0.40157 0.58958 0.11704 0.0
C1090 C 0.33841 0.64856 0.06295 0.0
C1091 C 0.35468 0.65141 0.04808 0.0
C1092 C 0.35231 0.64057 0.07817 0.0
C1093 C 0.38275 0.63622 0.07878 0.0
C1094 C 0.39902 0.64067 0.06399 0.0
C1095 C 0.38511 0.64826 0.04882 0.0
H1096 H 0.41633 0.9749 0.35274 0.0
H1097 H 0.37108 0.91511 0.38562 0.0
H1098 H 0.40046 0.94722 0.32825 0.0
H1099 H 0.35419 0.88739 0.36088 0.0
H1100 H 0.35512 0.82757 0.3138 0.0
H1101 H 0.36772 0.85521 0.33945 0.0
H1102 H 0.3626 0.93554 0.31056 0.0
H1103 H 0.35225 0.90756 0.28504 0.0
C1104 C 0.40245 0.95605 0.35468 0.0
C1105 C 0.39472 0.94735 0.37109 0.0
C1106 C 0.39328 0.94004 0.34058 0.0
C1107 C 0.37589 0.91489 0.34242 0.0
C1108 C 0.36793 0.9063 0.3589 0.0
C1109 C 0.37742 0.92226 0.37309 0.0
C1110 C 0.35694 0.85114 0.31309 0.0
C1111 C 0.35385 0.86549 0.29749 0.0
C1112 C 0.36383 0.86708 0.32777 0.0
C1113 C 0.36669 0.89775 0.32716 0.0
C1114 C 0.36169 0.91198 0.31156 0.0
C1115 C 0.35558 0.89601 0.2969 0.0
H1116 H 0.10703 0.9498 0.62383 0.0
H1117 H 0.06008 0.86802 0.62475 0.0
H1118 H 0.13253 0.93405 0.59833 0.0
H1119 H 0.08589 0.85217 0.59927 0.0
H1120 H 0.15177 0.82908 0.55706 0.0
H1121 H 0.1396 0.84242 0.58639 0.0
H1122 H 0.10621 0.92534 0.56872 0.0
H1123 H 0.11749 0.91174 0.53962 0.0
C1124 C 0.10282 0.92811 0.61888 0.0
C1125 C 0.08149 0.91016 0.62621 0.0
C1126 C 0.11731 0.91919 0.60426 0.0
C1127 C 0.11111 0.89196 0.59687 0.0
C1128 C 0.09123 0.87317 0.60483 0.0
C1129 C 0.07635 0.8823 0.6193 0.0
C1130 C 0.14243 0.85037 0.55958 0.0
C1131 C 0.13553 0.86944 0.54617 0.0
C1132 C 0.13535 0.8579 0.57627 0.0
C1133 C 0.12207 0.88491 0.57976 0.0
C1134 C 0.11671 0.90452 0.5664 0.0
C1135 C 0.12306 0.89672 0.54976 0.0
H1136 H 0.62037 0.40228 0.8678 0.0
H1137 H 0.56865 0.45566 0.90115 0.0
H1138 H 0.63773 0.37373 0.89219 0.0
H1139 H 0.58505 0.42709 0.92524 0.0
H1140 H 0.64074 0.3934 0.96756 0.0
H1141 H 0.62579 0.41996 0.9423 0.0
H1142 H 0.62592 0.3393 0.91366 0.0
H1143 H 0.64263 0.31302 0.93913 0.0
C1144 C 0.61261 0.40774 0.88033 0.0
C1145 C 0.5936 0.43149 0.88264 0.0
C1146 C 0.62238 0.39132 0.8943 0.0
C1147 C 0.61304 0.39818 0.91079 0.0
C1148 C 0.59336 0.42148 0.91288 0.0
C1149 C 0.5839 0.43795 0.89903 0.0
C1150 C 0.63743 0.38139 0.95584 0.0
C1151 C 0.6419 0.35114 0.95529 0.0
C1152 C 0.62874 0.39655 0.94135 0.0
C1153 C 0.624 0.38178 0.92591 0.0
C1154 C 0.62943 0.35146 0.92527 0.0
C1155 C 0.63873 0.33633 0.93983 0.0
H1156 H 0.56841 0.04193 0.15214 0.0
H1157 H 0.6173 0.09958 0.11978 0.0
H1158 H 0.58873 0.06597 0.17702 0.0
H1159 H 0.63839 0.12365 0.14495 0.0
H1160 H 0.69244 0.13514 0.19528 0.0
H1161 H 0.67219 0.11374 0.1691 0.0
H1162 H 0.58669 0.11176 0.19181 0.0
H1163 H 0.60711 0.13253 0.21779 0.0
C1164 C 0.58378 0.05966 0.15041 0.0
C1165 C 0.59151 0.06879 0.13409 0.0
C1166 C 0.5954 0.0735 0.16468 0.0
C1167 C 0.61548 0.09652 0.16302 0.0
C1168 C 0.62327 0.10572 0.14665 0.0
C1169 C 0.61112 0.09214 0.13227 0.0
C1170 C 0.66938 0.12992 0.19456 0.0
C1171 C 0.65145 0.13432 0.20864 0.0
C1172 C 0.65774 0.11793 0.1796 0.0
C1173 C 0.62788 0.11073 0.17844 0.0
C1174 C 0.60988 0.1164 0.19239 0.0
C1175 C 0.62154 0.12819 0.20729 0.0
H1176 H 0.91592 0.04568 0.38798 0.0
H1177 H 0.92632 0.13587 0.37348 0.0
H1178 H 0.89056 0.06057 0.4134 0.0
H1179 H 0.89917 0.15118 0.39849 0.0
H1180 H 0.88427 0.16809 0.4554 0.0
H1181 H 0.90368 0.15627 0.42756 0.0
H1182 H 0.84955 0.07875 0.42583 0.0
H1183 H 0.83207 0.08969 0.45414 0.0
C1184 C 0.91198 0.06874 0.39005 0.0
C1185 C 0.92296 0.08962 0.37879 0.0
C1186 C 0.89725 0.0774 0.40462 0.0
C1187 C 0.89258 0.10721 0.40815 0.0
C1188 C 0.90276 0.12808 0.39646 0.0
C1189 C 0.91808 0.11937 0.38204 0.0
C1190 C 0.87639 0.14872 0.44891 0.0
C1191 C 0.85696 0.12962 0.45693 0.0
C1192 C 0.88737 0.14194 0.43288 0.0
C1193 C 0.8786 0.11624 0.42437 0.0
C1194 C 0.85767 0.09819 0.4321 0.0
C1195 C 0.84737 0.10457 0.44828 0.0
H1196 H 0.9729 0.41344 0.64665 0.0
H1197 H 0.89186 0.39892 0.61924 0.0
H1198 H 0.9496 0.39996 0.67278 0.0
H1199 H 0.86781 0.38721 0.64596 0.0
H1200 H 0.84606 0.3393 0.69728 0.0
H1201 H 0.8645 0.35203 0.66914 0.0
H1202 H 0.916 0.4214 0.69159 0.0
H1203 H 0.89868 0.40788 0.71947 0.0
C1204 C 0.95015 0.40705 0.64609 0.0
C1205 C 0.93442 0.40718 0.63068 0.0
C1206 C 0.93655 0.39988 0.66125 0.0
C1207 C 0.90662 0.39309 0.66159 0.0
C1208 C 0.89089 0.39239 0.64617 0.0
C1209 C 0.90465 0.39936 0.63087 0.0
C1210 C 0.86095 0.35755 0.69607 0.0
C1211 C 0.87125 0.37236 0.71056 0.0
C1212 C 0.87153 0.36485 0.67998 0.0
C1213 C 0.89232 0.38728 0.67813 0.0
C1214 C 0.90082 0.40334 0.69256 0.0
C1215 C 0.89068 0.39579 0.70856 0.0
H1216 H 0.52899 0.11894 0.35835 0.0
H1217 H 0.6096 0.10732 0.38673 0.0
H1218 H 0.55643 0.13729 0.33442 0.0
H1219 H 0.63702 0.12434 0.36223 0.0
H1220 H 0.6622 0.1027 0.30464 0.0
H1221 H 0.64065 0.0981 0.33268 0.0
H1222 H 0.59322 0.17854 0.32466 0.0
H1223 H 0.61548 0.18353 0.29657 0.0
C1224 C 0.55245 0.12091 0.35972 0.0
C1225 C 0.56698 0.11131 0.37455 0.0
C1226 C 0.56818 0.13141 0.34592 0.0
C1227 C 0.5988 0.13214 0.34648 0.0
C1228 C 0.61338 0.12381 0.36148 0.0
C1229 C 0.59763 0.1138 0.37542 0.0
C1230 C 0.64767 0.11973 0.30903 0.0
C1231 C 0.64037 0.1434 0.29847 0.0
C1232 C 0.63549 0.11719 0.32509 0.0
C1233 C 0.61528 0.13795 0.33079 0.0
C1234 C 0.60879 0.16227 0.32052 0.0
C1235 C 0.62156 0.16518 0.30454 0.0
H1236 H 0.87038 0.0628 0.62389 0.0
H1237 H 0.94979 0.11227 0.61712 0.0
H1238 H 0.84847 0.08738 0.5995 0.0
H1239 H 0.92739 0.13778 0.5932 0.0
H1240 H 0.89486 0.14021 0.53768 0.0
H1241 H 0.9151 0.1237 0.5647 0.0
H1242 H 0.8301 0.13286 0.58752 0.0
H1243 H 0.80985 0.14891 0.56009 0.0
C1244 C 0.88304 0.07919 0.61733 0.0
C1245 C 0.91198 0.08531 0.62235 0.0
C1246 C 0.87034 0.09353 0.60346 0.0
C1247 C 0.88626 0.11437 0.59429 0.0
C1248 C 0.91468 0.12151 0.59983 0.0
C1249 C 0.92741 0.10713 0.61368 0.0
C1250 C 0.88056 0.13855 0.54849 0.0
C1251 C 0.85068 0.14463 0.54679 0.0
C1252 C 0.89219 0.12956 0.56404 0.0
C1253 C 0.87419 0.12678 0.57828 0.0
C1254 C 0.84444 0.13431 0.57672 0.0
C1255 C 0.83285 0.14351 0.56111 0.0
H1256 H 0.92609 0.37011 0.87698 0.0
H1257 H 0.87248 0.44729 0.87138 0.0
H1258 H 0.90162 0.34815 0.85259 0.0
H1259 H 0.84697 0.42472 0.84751 0.0
H1260 H 0.84857 0.39785 0.79115 0.0
H1261 H 0.86196 0.41617 0.81911 0.0
H1262 H 0.85841 0.32823 0.83908 0.0
H1263 H 0.84553 0.30997 0.81066 0.0
C1264 C 0.90867 0.38216 0.87074 0.0
C1265 C 0.90162 0.41069 0.87595 0.0
C1266 C 0.89437 0.3694 0.85687 0.0
C1267 C 0.87261 0.38484 0.84791 0.0
C1268 C 0.86406 0.41247 0.85392 0.0
C1269 C 0.87844 0.42528 0.86775 0.0
C1270 C 0.85072 0.38251 0.80156 0.0
C1271 C 0.8472 0.3525 0.79878 0.0
C1272 C 0.85789 0.393 0.81765 0.0
C1273 C 0.86137 0.37368 0.83139 0.0
C1274 C 0.85631 0.34365 0.82872 0.0
C1275 C 0.84895 0.33317 0.81254 0.0
H1276 H 0.543 0.3979 0.11294 0.0
H1277 H 0.63111 0.41989 0.12804 0.0
H1278 H 0.56125 0.37247 0.08825 0.0
H1279 H 0.64991 0.39301 0.1037 0.0
H1280 H 0.66719 0.37979 0.04634 0.0
H1281 H 0.65409 0.39749 0.07444 0.0
H1282 H 0.58489 0.33319 0.07656 0.0
H1283 H 0.5969 0.31722 0.04804 0.0
C1284 C 0.5664 0.39649 0.11121 0.0
C1285 C 0.58563 0.41084 0.12237 0.0
C1286 C 0.577 0.38176 0.09705 0.0
C1287 C 0.60721 0.38054 0.09383 0.0
C1288 C 0.62652 0.39389 0.1055 0.0
C1289 C 0.61582 0.40911 0.11953 0.0
C1290 C 0.64953 0.36922 0.05302 0.0
C1291 C 0.63284 0.3474 0.04505 0.0
C1292 C 0.64201 0.37924 0.06917 0.0
C1293 C 0.618 0.36718 0.07779 0.0
C1294 C 0.60285 0.34375 0.07018 0.0
C1295 C 0.60989 0.33432 0.0539 0.0
loop_
_geom_bond_atom_site_label_1
_geom_bond_atom_site_label_2
_geom_bond_distance
_geom_bond_site_symmetry_2
_ccdc_geom_bond_type
C0 C1 1.384 . S
C0 C2 1.384 . S
C0 H28 0.931 . S
C1 C0 1.384 . S
C1 C4 1.382 . S
C2 C0 1.384 . S
C2 C3 1.381 . S
C2 H29 0.930 . S
C3 C2 1.381 . S
C3 C5 1.381 . S
C3 C6 1.487 . S
C4 C1 1.382 . S
C4 C5 1.387 . S
C4 H30 0.930 . S
C5 C3 1.381 . S
C5 C4 1.387 . S
C5 H31 0.931 1_565 S
C6 C3 1.487 . S
C6 C13 1.399 . S
C6 N44 1.343 1_565 S
C7 C8 1.384 . S
C7 C9 1.384 . S
C7 H32 0.931 . S
C8 C7 1.384 . S
C8 C11 1.382 . S
C9 C7 1.384 . S
C9 C10 1.381 . S
C9 H33 0.930 . S
C10 C9 1.381 . S
C10 C12 1.381 . S
C10 C13 1.487 . S
C11 C8 1.382 . S
C11 C12 1.387 . S
C11 H34 0.930 . S
C12 C10 1.381 . S
C12 C11 1.387 . S
C12 H35 0.931 . S
C13 C6 1.399 . S
C13 C10 1.487 . S
C13 N45 1.324 1_465 S
C14 C15 1.384 . S
C14 C16 1.384 . S
C14 H36 0.931 . S
C15 C14 1.384 . S
C15 C18 1.382 . S
C16 C14 1.384 . S
C16 C17 1.381 . S
C16 H37 0.930 . S
C17 C16 1.381 . S
C17 C19 1.381 . S
C17 C20 1.487 . S
C18 C15 1.382 . S
C18 C19 1.387 . S
C18 H38 0.930 . S
C19 C17 1.381 . S
C19 C18 1.387 . S
C19 H39 0.936 1_545 S
C20 C17 1.487 . S
C20 C27 1.399 . S
C20 N45 1.367 . S
C21 C22 1.384 . S
C21 C23 1.384 . S
C21 H40 0.931 . S
C22 C21 1.384 . S
C22 C25 1.382 . S
C23 C21 1.384 . S
C23 C24 1.381 . S
C23 H41 0.930 . S
C24 C23 1.381 . S
C24 C26 1.381 . S
C24 C27 1.487 . S
C25 C22 1.382 . S
C25 C26 1.387 . S
C25 H42 0.930 . S
C26 C24 1.381 . S
C26 C25 1.387 . S
C26 H43 0.931 . S
C27 C20 1.399 . S
C27 C24 1.487 . S
C27 N44 1.343 1_655 S
H28 C0 0.931 . S
H29 C2 0.930 . S
H30 C4 0.930 . S
H31 C5 0.931 1_545 S
H32 C7 0.931 . S
H33 C9 0.930 . S
H34 C11 0.930 . S
H35 C12 0.931 . S
H36 C14 0.931 . S
H37 C16 0.930 . S
H38 C18 0.930 . S
H39 C19 0.936 1_565 S
H40 C21 0.931 . S
H41 C23 0.930 . S
H42 C25 0.930 . S
H43 C26 0.931 . S
N44 C6 1.343 1_545 S
N44 C27 1.343 1_455 S
N45 C13 1.324 1_645 S
N45 C20 1.367 . S
C46 C47 1.384 . S
C46 C48 1.384 . S
C46 H74 0.931 . S
C47 C46 1.384 . S
C47 C50 1.382 . S
C48 C46 1.384 . S
C48 C49 1.381 . S
C48 H75 0.930 . S
C49 C48 1.381 . S
C49 C51 1.381 . S
C49 C52 1.487 . S
C50 C47 1.382 . S
C50 C51 1.387 . S
C50 H76 0.930 . S
C51 C49 1.381 . S
C51 C50 1.387 . S
C51 H77 0.931 1_655 S
C52 C49 1.487 . S
C52 C59 1.399 . S
C52 N90 1.343 1_655 S
C53 C54 1.384 . S
C53 C55 1.384 . S
C53 H78 0.931 . S
C54 C53 1.384 . S
C54 C57 1.382 . S
C55 C53 1.384 . S
C55 C56 1.381 . S
C55 H79 0.930 . S
C56 C55 1.381 . S
C56 C58 1.381 . S
C56 C59 1.487 . S
C57 C54 1.382 . S
C57 C58 1.387 . S
C57 H80 0.930 . S
C58 C56 1.381 . S
C58 C57 1.387 . S
C58 H81 0.931 . S
C59 C52 1.399 . S
C59 C56 1.487 . S
C59 N91 1.343 . S
C60 C61 1.384 . S
C60 C62 1.384 . S
C60 H82 0.931 . S
C61 C60 1.384 . S
C61 C64 1.382 . S
C62 C60 1.384 . S
C62 C63 1.381 . S
C62 H83 0.930 . S
C63 C62 1.381 . S
C63 C65 1.381 . S
C63 C66 1.487 . S
C64 C61 1.382 . S
C64 C65 1.387 . S
C64 H84 0.930 . S
C65 C63 1.381 . S
C65 C64 1.387 . S
C65 H85 0.931 1_455 S
C66 C63 1.487 . S
C66 C73 1.399 . S
C66 N91 1.343 1_455 S
C67 C68 1.384 . S
C67 C69 1.384 . S
C67 H86 0.931 . S
C68 C67 1.384 . S
C68 C71 1.382 . S
C69 C67 1.384 . S
C69 C70 1.381 . S
C69 H87 0.930 . S
C70 C69 1.381 . S
C70 C72 1.381 . S
C70 C73 1.487 . S
C71 C68 1.382 . S
C71 C72 1.387 . S
C71 H88 0.930 . S
C72 C70 1.381 . S
C72 C71 1.387 . S
C72 H89 0.931 . S
C73 C66 1.399 . S
C73 C70 1.487 . S
C73 N90 1.343 . S
H74 C46 0.931 . S
H75 C48 0.930 . S
H76 C50 0.930 . S
H77 C51 0.931 1_455 S
H78 C53 0.931 . S
H79 C55 0.930 . S
H80 C57 0.930 . S
H81 C58 0.931 . S
H82 C60 0.931 . S
H83 C62 0.930 . S
H84 C64 0.930 . S
H85 C65 0.931 1_655 S
H86 C67 0.931 . S
H87 C69 0.930 . S
H88 C71 0.930 . S
H89 C72 0.931 . S
N90 C52 1.343 1_455 S
N90 C73 1.343 . S
N91 C59 1.343 . S
N91 C66 1.343 1_655 S
C92 C93 1.384 . S
C92 C94 1.384 . S
C92 H120 0.931 . S
C93 C92 1.384 . S
C93 C96 1.382 . S
C94 C92 1.384 . S
C94 C95 1.381 . S
C94 H121 0.930 . S
C95 C94 1.381 . S
C95 C97 1.381 . S
C95 C98 1.487 . S
C96 C93 1.382 . S
C96 C97 1.387 . S
C96 H122 0.930 . S
C97 C95 1.381 . S
C97 C96 1.387 . S
C97 H123 0.931 . S
C98 C95 1.487 . S
C98 C105 1.399 . S
C98 N136 1.343 . S
C99 C100 1.384 . S
C99 C101 1.384 . S
C99 H124 0.931 . S
C100 C99 1.384 . S
C100 C103 1.382 . S
C101 C99 1.384 . S
C101 C102 1.381 . S
C101 H125 0.930 . S
C102 C101 1.381 . S
C102 C104 1.381 . S
C102 C105 1.487 . S
C103 C100 1.382 . S
C103 C104 1.387 . S
C103 H126 0.930 . S
C104 C102 1.381 . S
C104 C103 1.387 . S
C104 H127 0.931 . S
C105 C98 1.399 . S
C105 C102 1.487 . S
C105 N137 1.343 . S
C106 C107 1.384 . S
C106 C108 1.384 . S
C106 H128 0.931 . S
C107 C106 1.384 . S
C107 C110 1.382 . S
C108 C106 1.384 . S
C108 C109 1.381 . S
C108 H129 0.930 . S
C109 C108 1.381 . S
C109 C111 1.381 . S
C109 C112 1.487 . S
C110 C107 1.382 . S
C110 C111 1.387 . S
C110 H130 0.930 . S
C111 C109 1.381 . S
C111 C110 1.387 . S
C111 H131 0.931 . S
C112 C109 1.487 . S
C112 C119 1.399 . S
C112 N137 1.343 . S
C113 C114 1.384 . S
C113 C115 1.384 . S
C113 H132 0.931 . S
C114 C113 1.384 . S
C114 C117 1.382 . S
C115 C113 1.384 . S
C115 C116 1.381 . S
C115 H133 0.930 . S
C116 C115 1.381 . S
C116 C118 1.381 . S
C116 C119 1.487 . S
C117 C114 1.382 . S
C117 C118 1.387 . S
C117 H134 0.930 . S
C118 C116 1.381 . S
C118 C117 1.387 . S
C118 H135 0.931 . S
C119 C112 1.399 . S
C119 C116 1.487 . S
C119 N136 1.343 . S
H120 C92 0.931 . S
H121 C94 0.930 . S
H122 C96 0.930 . S
H123 C97 0.931 . S
H124 C99 0.931 . S
H125 C101 0.930 . S
H126 C103 0.930 . S
H127 C104 0.931 . S
H128 C106 0.931 . S
H129 C108 0.930 . S
H130 C110 0.930 . S
H131 C111 0.931 . S
H132 C113 0.931 . S
H133 C115 0.930 . S
H134 C117 0.930 . S
H135 C118 0.931 . S
N136 C98 1.343 . S
N136 C119 1.343 . S
N137 C105 1.343 . S
N137 C112 1.343 . S
C138 C139 1.384 . S
C138 C140 1.384 . S
C138 H166 0.931 . S
C139 C138 1.384 . S
C139 C142 1.382 . S
C140 C138 1.384 . S
C140 C141 1.381 . S
C140 H167 0.930 . S
C141 C140 1.381 . S
C141 C143 1.381 . S
C141 C144 1.487 . S
C142 C139 1.382 . S
C142 C143 1.387 . S
C142 H168 0.930 . S
C143 C141 1.381 . S
C143 C142 1.387 . S
C143 H169 0.923 1_565 S
C144 C141 1.487 . S
C144 C151 1.399 . S
C144 N182 1.343 1_565 S
C145 C146 1.384 . S
C145 C147 1.384 . S
C145 H170 0.931 . S
C146 C145 1.384 . S
C146 C149 1.382 . S
C147 C145 1.384 . S
C147 C148 1.381 . S
C147 H171 0.930 . S
C148 C147 1.381 . S
C148 C150 1.381 . S
C148 C151 1.487 . S
C149 C146 1.382 . S
C149 C150 1.387 . S
C149 H172 0.930 . S
C150 C148 1.381 . S
C150 C149 1.387 . S
C150 H173 0.931 . S
C151 C144 1.399 . S
C151 C148 1.487 . S
C151 N183 1.343 1_565 S
C152 C153 1.384 . S
C152 C154 1.384 . S
C152 H174 0.931 . S
C153 C152 1.384 . S
C153 C156 1.382 . S
C154 C152 1.384 . S
C154 C155 1.381 . S
C154 H175 0.930 . S
C155 C154 1.381 . S
C155 C157 1.381 . S
C155 C158 1.487 . S
C156 C153 1.382 . S
C156 C157 1.387 . S
C156 H176 0.930 . S
C157 C155 1.381 . S
C157 C156 1.387 . S
C157 H177 0.931 . S
C158 C155 1.487 . S
C158 C165 1.399 . S
C158 N183 1.343 . S
C159 C160 1.384 . S
C159 C161 1.384 . S
C159 H178 0.931 . S
C160 C159 1.384 . S
C160 C163 1.382 . S
C161 C159 1.384 . S
C161 C162 1.381 . S
C161 H179 0.930 . S
C162 C161 1.381 . S
C162 C164 1.381 . S
C162 C165 1.487 . S
C163 C160 1.382 . S
C163 C164 1.387 . S
C163 H180 0.930 . S
C164 C162 1.381 . S
C164 C163 1.387 . S
C164 H181 0.931 . S
C165 C158 1.399 . S
C165 C162 1.487 . S
C165 N182 1.343 . S
H166 C138 0.931 . S
H167 C140 0.930 . S
H168 C142 0.930 . S
H169 C143 0.923 1_545 S
H170 C145 0.931 . S
H171 C147 0.930 . S
H172 C149 0.930 . S
H173 C150 0.931 . S
H174 C152 0.931 . S
H175 C154 0.930 . S
H176 C156 0.930 . S
H177 C157 0.931 . S
H178 C159 0.931 . S
H179 C161 0.930 . S
H180 C163 0.930 . S
H181 C164 0.931 . S
N182 C144 1.343 1_545 S
N182 C165 1.343 . S
N183 C151 1.343 1_545 S
N183 C158 1.343 . S
C184 C185 1.384 . S
C184 C186 1.384 . S
C184 H212 0.931 . S
C185 C184 1.384 . S
C185 C188 1.382 . S
C186 C184 1.384 . S
C186 C187 1.381 . S
C186 H213 0.930 . S
C187 C186 1.381 . S
C187 C189 1.381 . S
C187 C190 1.487 . S
C188 C185 1.382 . S
C188 C189 1.387 . S
C188 H214 0.930 . S
C189 C187 1.381 . S
C189 C188 1.387 . S
C189 H215 0.931 . S
C190 C187 1.487 . S
C190 C197 1.399 . S
C190 N228 1.343 . S
C191 C192 1.384 . S
C191 C193 1.384 . S
C191 H216 0.931 . S
C192 C191 1.384 . S
C192 C195 1.382 . S
C193 C191 1.384 . S
C193 C194 1.381 . S
C193 H217 0.930 . S
C194 C193 1.381 . S
C194 C196 1.381 . S
C194 C197 1.487 . S
C195 C192 1.382 . S
C195 C196 1.387 . S
C195 H218 0.930 . S
C196 C194 1.381 . S
C196 C195 1.387 . S
C196 H219 0.931 . S
C197 C190 1.399 . S
C197 C194 1.487 . S
C197 N229 1.372 . S
C198 C199 1.384 . S
C198 C200 1.384 . S
C198 H220 0.931 . S
C199 C198 1.384 . S
C199 C202 1.382 . S
C200 C198 1.384 . S
C200 C201 1.381 . S
C200 H221 0.930 . S
C201 C200 1.381 . S
C201 C203 1.381 . S
C201 C204 1.487 . S
C202 C199 1.382 . S
C202 C203 1.387 . S
C202 H222 0.930 . S
C203 C201 1.381 . S
C203 C202 1.387 . S
C203 H223 0.931 . S
C204 C201 1.487 . S
C204 C211 1.399 . S
C204 N229 1.318 1_655 S
C205 C206 1.384 . S
C205 C207 1.384 . S
C205 H224 0.931 . S
C206 C205 1.384 . S
C206 C209 1.382 . S
C207 C205 1.384 . S
C207 C208 1.381 . S
C207 H225 0.930 . S
C208 C207 1.381 . S
C208 C210 1.381 . S
C208 C211 1.487 . S
C209 C206 1.382 . S
C209 C210 1.387 . S
C209 H226 0.930 . S
C210 C208 1.381 . S
C210 C209 1.387 . S
C210 H227 0.931 . S
C211 C204 1.399 . S
C211 C208 1.487 . S
C211 N228 1.343 1_655 S
H212 C184 0.931 . S
H213 C186 0.930 . S
H214 C188 0.930 . S
H215 C189 0.931 . S
H216 C191 0.931 . S
H217 C193 0.930 . S
H218 C195 0.930 . S
H219 C196 0.931 . S
H220 C198 0.931 . S
H221 C200 0.930 . S
H222 C202 0.930 . S
H223 C203 0.931 . S
H224 C205 0.931 . S
H225 C207 0.930 . S
H226 C209 0.930 . S
H227 C210 0.931 . S
N228 C190 1.343 . S
N228 C211 1.343 1_455 S
N229 C197 1.372 . S
N229 C204 1.318 1_455 S
C230 C231 1.384 . S
C230 C232 1.384 . S
C230 H258 0.931 . S
C231 C230 1.384 . S
C231 C234 1.382 . S
C232 C230 1.384 . S
C232 C233 1.381 . S
C232 H259 0.930 . S
C233 C232 1.381 . S
C233 C235 1.381 . S
C233 C236 1.487 . S
C234 C231 1.382 . S
C234 C235 1.387 . S
C234 H260 0.930 . S
C235 C233 1.381 . S
C235 C234 1.387 . S
C235 H261 0.931 . S
C236 C233 1.487 . S
C236 C243 1.399 . S
C236 N274 1.343 . S
C237 C238 1.384 . S
C237 C239 1.384 . S
C237 H262 0.931 . S
C238 C237 1.384 . S
C238 C241 1.382 . S
C239 C237 1.384 . S
C239 C240 1.381 . S
C239 H263 0.930 . S
C240 C239 1.381 . S
C240 C242 1.381 . S
C240 C243 1.487 . S
C241 C238 1.382 . S
C241 C242 1.387 . S
C241 H264 0.930 . S
C242 C240 1.381 . S
C242 C241 1.387 . S
C242 H265 0.931 . S
C243 C236 1.399 . S
C243 C240 1.487 . S
C243 N275 1.343 . S
C244 C245 1.384 . S
C244 C246 1.384 . S
C244 H266 0.931 . S
C245 C244 1.384 . S
C245 C248 1.382 . S
C246 C244 1.384 . S
C246 C247 1.381 . S
C246 H267 0.930 . S
C247 C246 1.381 . S
C247 C249 1.381 . S
C247 C250 1.487 . S
C248 C245 1.382 . S
C248 C249 1.387 . S
C248 H268 0.930 . S
C249 C247 1.381 . S
C249 C248 1.387 . S
C249 H269 0.931 . S
C250 C247 1.487 . S
C250 C257 1.399 . S
C250 N275 1.343 . S
C251 C252 1.384 . S
C251 C253 1.384 . S
C251 H270 0.931 . S
C252 C251 1.384 . S
C252 C255 1.382 . S
C253 C251 1.384 . S
C253 C254 1.381 . S
C253 H271 0.930 . S
C254 C253 1.381 . S
C254 C256 1.381 . S
C254 C257 1.487 . S
C255 C252 1.382 . S
C255 C256 1.387 . S
C255 H272 0.930 . S
C256 C254 1.381 . S
C256 C255 1.387 . S
C256 H273 0.931 . S
C257 C250 1.399 . S
C257 C254 1.487 . S
C257 N274 1.343 . S
H258 C230 0.931 . S
H259 C232 0.930 . S
H260 C234 0.930 . S
H261 C235 0.931 . S
H262 C237 0.931 . S
H263 C239 0.930 . S
H264 C241 0.930 . S
H265 C242 0.931 . S
H266 C244 0.931 . S
H267 C246 0.930 . S
H268 C248 0.930 . S
H269 C249 0.931 . S
H270 C251 0.931 . S
H271 C253 0.930 . S
H272 C255 0.930 . S
H273 C256 0.931 . S
N274 C236 1.343 . S
N274 C257 1.343 . S
N275 C243 1.343 . S
N275 C250 1.343 . S
C276 C277 1.384 . S
C276 C278 1.384 . S
C276 H304 0.931 . S
C277 C276 1.384 . S
C277 C280 1.382 . S
C278 C276 1.384 . S
C278 C279 1.381 . S
C278 H305 0.930 . S
C279 C278 1.381 . S
C279 C281 1.381 . S
C279 C282 1.487 . S
C280 C277 1.382 . S
C280 C281 1.387 . S
C280 H306 0.930 . S
C281 C279 1.381 . S
C281 C280 1.387 . S
C281 H307 0.931 1_565 S
C282 C279 1.487 . S
C282 C289 1.399 . S
C282 N320 1.343 1_565 S
C283 C284 1.384 . S
C283 C285 1.384 . S
C283 H308 0.931 . S
C284 C283 1.384 . S
C284 C287 1.382 . S
C285 C283 1.384 . S
C285 C286 1.381 . S
C285 H309 0.930 . S
C286 C285 1.381 . S
C286 C288 1.381 . S
C286 C289 1.487 . S
C287 C284 1.382 . S
C287 C288 1.387 . S
C287 H310 0.930 . S
C288 C286 1.381 . S
C288 C287 1.387 . S
C288 H311 0.931 . S
C289 C282 1.399 . S
C289 C286 1.487 . S
C289 N321 1.343 1_565 S
C290 C291 1.384 . S
C290 C292 1.384 . S
C290 H312 0.931 . S
C291 C290 1.384 . S
C291 C294 1.382 . S
C292 C290 1.384 . S
C292 C293 1.381 . S
C292 H313 0.930 . S
C293 C292 1.381 . S
C293 C295 1.381 . S
C293 C296 1.487 . S
C294 C291 1.382 . S
C294 C295 1.387 . S
C294 H314 0.930 . S
C295 C293 1.381 . S
C295 C294 1.387 . S
C295 H315 0.931 . S
C296 C293 1.487 . S
C296 C303 1.399 . S
C296 N321 1.343 . S
C297 C298 1.384 . S
C297 C299 1.384 . S
C297 H316 0.931 . S
C298 C297 1.384 . S
C298 C301 1.382 . S
C299 C297 1.384 . S
C299 C300 1.381 . S
C299 H317 0.930 . S
C300 C299 1.381 . S
C300 C302 1.381 . S
C300 C303 1.487 . S
C301 C298 1.382 . S
C301 C302 1.387 . S
C301 H318 0.930 . S
C302 C300 1.381 . S
C302 C301 1.387 . S
C302 H319 0.931 . S
C303 C296 1.399 . S
C303 C300 1.487 . S
C303 N320 1.343 . S
H304 C276 0.931 . S
H305 C278 0.930 . S
H306 C280 0.930 . S
H307 C281 0.931 1_545 S
H308 C283 0.931 . S
H309 C285 0.930 . S
H310 C287 0.930 . S
H311 C288 0.931 . S
H312 C290 0.931 . S
H313 C292 0.930 . S
H314 C294 0.930 . S
H315 C295 0.931 . S
H316 C297 0.931 . S
H317 C299 0.930 . S
H318 C301 0.930 . S
H319 C302 0.931 . S
N320 C282 1.343 1_545 S
N320 C303 1.343 . S
N321 C289 1.343 1_545 S
N321 C296 1.343 . S
C322 C323 1.384 . S
C322 C324 1.384 . S
C322 H350 0.931 . S
C323 C322 1.384 . S
C323 C326 1.382 . S
C324 C322 1.384 . S
C324 C325 1.381 . S
C324 H351 0.930 . S
C325 C324 1.381 . S
C325 C327 1.381 . S
C325 C328 1.487 . S
C326 C323 1.382 . S
C326 C327 1.387 . S
C326 H352 0.930 . S
C327 C325 1.381 . S
C327 C326 1.387 . S
C327 H353 0.898 1_455 S
C328 C325 1.487 . S
C328 C335 1.399 . S
C328 N366 1.346 1_565 S
C329 C330 1.384 . S
C329 C331 1.384 . S
C329 H354 0.931 . S
C330 C329 1.384 . S
C330 C333 1.382 . S
C331 C329 1.384 . S
C331 C332 1.381 . S
C331 H355 0.930 . S
C332 C331 1.381 . S
C332 C334 1.381 . S
C332 C335 1.487 . S
C333 C330 1.382 . S
C333 C334 1.387 . S
C333 H356 0.930 . S
C334 C332 1.381 . S
C334 C333 1.387 . S
C334 H357 0.931 . S
C335 C328 1.399 . S
C335 C332 1.487 . S
C335 N367 1.343 1_565 S
C336 C337 1.384 . S
C336 C338 1.384 . S
C336 H358 0.931 . S
C337 C336 1.384 . S
C337 C340 1.382 . S
C338 C336 1.384 . S
C338 C339 1.381 . S
C338 H359 0.930 . S
C339 C338 1.381 . S
C339 C341 1.381 . S
C339 C342 1.487 . S
C340 C337 1.382 . S
C340 C341 1.387 . S
C340 H360 0.930 . S
C341 C339 1.381 . S
C341 C340 1.387 . S
C341 H361 0.931 1_655 S
C342 C339 1.487 . S
C342 C349 1.399 . S
C342 N367 1.343 1_655 S
C343 C344 1.384 . S
C343 C345 1.384 . S
C343 H362 0.931 . S
C344 C343 1.384 . S
C344 C347 1.382 . S
C345 C343 1.384 . S
C345 C346 1.381 . S
C345 H363 0.930 . S
C346 C345 1.381 . S
C346 C348 1.381 . S
C346 C349 1.487 . S
C347 C344 1.382 . S
C347 C348 1.387 . S
C347 H364 0.930 . S
C348 C346 1.381 . S
C348 C347 1.387 . S
C348 H365 0.931 . S
C349 C342 1.399 . S
C349 C346 1.487 . S
C349 N366 1.340 1_655 S
H350 C322 0.931 . S
H351 C324 0.930 . S
H352 C326 0.930 . S
H353 C327 0.898 1_655 S
H354 C329 0.931 . S
H355 C331 0.930 . S
H356 C333 0.930 . S
H357 C334 0.931 . S
H358 C336 0.931 . S
H359 C338 0.930 . S
H360 C340 0.930 . S
H361 C341 0.931 1_455 S
H362 C343 0.931 . S
H363 C345 0.930 . S
H364 C347 0.930 . S
H365 C348 0.931 . S
N366 C328 1.346 1_545 S
N366 C349 1.340 1_455 S
N367 C335 1.343 1_545 S
N367 C342 1.343 1_455 S
Mn368 O373 2.095 1_554 S
Mn368 O383 2.162 . S
Mn368 O384 2.297 . S
Mn368 O392 2.385 . S
Mn368 O393 2.209 . S
Mn368 O394 2.094 1_554 S
Mn369 O374 2.121 . S
Mn369 N376 2.257 1_556 S
Mn369 N385 2.282 1_556 S
Mn369 O393 2.215 1_556 S
Mn369 O395 2.117 . S
C370 O392 1.234 . S
C370 O393 1.283 . S
C371 O383 1.281 . S
C371 O384 1.236 . S
C372 O394 1.240 . S
C372 O395 1.264 . S
O373 Mn368 2.095 1_556 S
O373 C382 1.250 . S
O374 Mn369 2.121 . S
O374 C382 1.258 . S
C375 N376 1.326 1_556 S
C375 C379 1.460 1_556 S
C375 H381 0.929 . S
N376 Mn369 2.257 1_554 S
N376 C375 1.326 1_554 S
N376 C380 1.362 . S
C377 C378 1.258 . S
C377 C380 1.431 . S
C377 C397 1.449 . S
C378 C377 1.258 . S
C378 C379 1.477 . S
C378 H398 0.931 . S
C379 C375 1.460 1_554 S
C379 C378 1.477 . S
C379 H399 0.930 1_554 S
C380 N376 1.362 . S
C380 C377 1.431 . S
C380 C390 1.476 . S
H381 C375 0.929 . S
C382 O373 1.250 . S
C382 O374 1.258 . S
O383 Mn368 2.162 . S
O383 C371 1.281 . S
O384 Mn368 2.297 . S
O384 C371 1.236 . S
N385 Mn369 2.282 1_554 S
N385 C386 1.328 . S
N385 C390 1.318 . S
C386 N385 1.328 . S
C386 C387 1.457 . S
C386 H391 0.929 . S
C387 C386 1.457 . S
C387 C388 1.291 . S
C387 H400 0.931 . S
C388 C387 1.291 . S
C388 C389 1.373 . S
C388 H401 0.929 . S
C389 C388 1.373 . S
C389 C390 1.396 . S
C389 C396 1.403 . S
C390 C380 1.476 . S
C390 N385 1.318 . S
C390 C389 1.396 . S
H391 C386 0.929 . S
O392 Mn368 2.385 . S
O392 C370 1.234 . S
O393 Mn368 2.209 . S
O393 Mn369 2.215 1_554 S
O393 C370 1.283 . S
O394 Mn368 2.094 1_556 S
O394 C372 1.240 . S
O395 Mn369 2.117 . S
O395 C372 1.264 . S
C396 C389 1.403 . S
C396 C397 1.399 . S
C396 H402 0.929 . S
C397 C377 1.449 . S
C397 C396 1.399 . S
C397 H403 0.930 . S
H398 C378 0.931 . S
H399 C379 0.930 1_556 S
H400 C387 0.931 . S
H401 C388 0.929 . S
H402 C396 0.929 . S
H403 C397 0.930 . S
Mn404 O409 2.095 . S
Mn404 O419 2.162 . S
Mn404 O420 2.297 . S
Mn404 O428 2.385 . S
Mn404 O429 2.209 . S
Mn404 O430 2.094 . S
Mn405 O410 2.121 . S
Mn405 N412 2.257 . S
Mn405 N421 2.282 . S
Mn405 O429 2.215 . S
Mn405 O431 2.117 . S
C406 O428 1.234 . S
C406 O429 1.283 . S
C407 O419 1.281 . S
C407 O420 1.236 . S
C408 O430 1.240 . S
C408 O431 1.264 . S
O409 Mn404 2.095 . S
O409 C418 1.250 . S
O410 Mn405 2.121 . S
O410 C418 1.258 . S
C411 N412 1.326 . S
C411 C415 1.460 . S
C411 H417 0.929 . S
N412 Mn405 2.257 . S
N412 C411 1.326 . S
N412 C416 1.362 . S
C413 C414 1.258 . S
C413 C416 1.431 . S
C413 C433 1.449 . S
C414 C413 1.258 . S
C414 C415 1.477 . S
C414 H434 0.931 . S
C415 C411 1.460 . S
C415 C414 1.477 . S
C415 H435 0.930 . S
C416 N412 1.362 . S
C416 C413 1.431 . S
C416 C426 1.476 . S
H417 C411 0.929 . S
C418 O409 1.250 . S
C418 O410 1.258 . S
O419 Mn404 2.162 . S
O419 C407 1.281 . S
O420 Mn404 2.297 . S
O420 C407 1.236 . S
N421 Mn405 2.282 . S
N421 C422 1.328 . S
N421 C426 1.318 . S
C422 N421 1.328 . S
C422 C423 1.457 . S
C422 H427 0.929 . S
C423 C422 1.457 . S
C423 C424 1.291 . S
C423 H436 0.931 . S
C424 C423 1.291 . S
C424 C425 1.373 . S
C424 H437 0.929 . S
C425 C424 1.373 . S
C425 C426 1.396 . S
C425 C432 1.403 . S
C426 C416 1.476 . S
C426 N421 1.318 . S
C426 C425 1.396 . S
H427 C422 0.929 . S
O428 Mn404 2.385 . S
O428 C406 1.234 . S
O429 Mn404 2.209 . S
O429 Mn405 2.215 . S
O429 C406 1.283 . S
O430 Mn404 2.094 . S
O430 C408 1.240 . S
O431 Mn405 2.117 . S
O431 C408 1.264 . S
C432 C425 1.403 . S
C432 C433 1.399 . S
C432 H438 0.929 . S
C433 C413 1.449 . S
C433 C432 1.399 . S
C433 H439 0.930 . S
H434 C414 0.931 . S
H435 C415 0.930 . S
H436 C423 0.931 . S
H437 C424 0.929 . S
H438 C432 0.929 . S
H439 C433 0.930 . S
Mn440 O445 2.095 . S
Mn440 O455 2.162 . S
Mn440 O456 2.297 . S
Mn440 O464 2.385 . S
Mn440 O465 2.209 . S
Mn440 O466 2.094 . S
Mn441 O446 2.121 . S
Mn441 N448 2.257 . S
Mn441 N457 2.282 . S
Mn441 O465 2.215 . S
Mn441 O467 2.117 . S
C442 O464 1.234 . S
C442 O465 1.283 . S
C443 O455 1.281 . S
C443 O456 1.236 . S
C444 O466 1.240 . S
C444 O467 1.264 . S
O445 Mn440 2.095 . S
O445 C454 1.250 . S
O446 Mn441 2.121 . S
O446 C454 1.258 . S
C447 N448 1.326 . S
C447 C451 1.460 . S
C447 H453 0.929 . S
N448 Mn441 2.257 . S
N448 C447 1.326 . S
N448 C452 1.362 . S
C449 C450 1.258 . S
C449 C452 1.431 . S
C449 C469 1.449 . S
C450 C449 1.258 . S
C450 C451 1.477 . S
C450 H470 0.931 . S
C451 C447 1.460 . S
C451 C450 1.477 . S
C451 H471 0.930 . S
C452 N448 1.362 . S
C452 C449 1.431 . S
C452 C462 1.476 . S
H453 C447 0.929 . S
C454 O445 1.250 . S
C454 O446 1.258 . S
O455 Mn440 2.162 . S
O455 C443 1.281 . S
O456 Mn440 2.297 . S
O456 C443 1.236 . S
N457 Mn441 2.282 . S
N457 C458 1.328 . S
N457 C462 1.318 . S
C458 N457 1.328 . S
C458 C459 1.457 . S
C458 H463 0.929 . S
C459 C458 1.457 . S
C459 C460 1.291 . S
C459 H472 0.931 . S
C460 C459 1.291 . S
C460 C461 1.373 . S
C460 H473 0.929 . S
C461 C460 1.373 . S
C461 C462 1.396 . S
C461 C468 1.403 . S
C462 C452 1.476 . S
C462 N457 1.318 . S
C462 C461 1.396 . S
H463 C458 0.929 . S
O464 Mn440 2.385 . S
O464 C442 1.234 . S
O465 Mn440 2.209 . S
O465 Mn441 2.215 . S
O465 C442 1.283 . S
O466 Mn440 2.094 . S
O466 C444 1.240 . S
O467 Mn441 2.117 . S
O467 C444 1.264 . S
C468 C461 1.403 . S
C468 C469 1.399 . S
C468 H474 0.929 . S
C469 C449 1.449 . S
C469 C468 1.399 . S
C469 H475 0.930 . S
H470 C450 0.931 . S
H471 C451 0.930 . S
H472 C459 0.931 . S
H473 C460 0.929 . S
H474 C468 0.929 . S
H475 C469 0.930 . S
Mn476 O481 2.095 . S
Mn476 O491 2.162 . S
Mn476 O492 2.297 . S
Mn476 O500 2.385 . S
Mn476 O501 2.209 . S
Mn476 O502 2.094 . S
Mn477 O482 2.121 . S
Mn477 N484 2.257 . S
Mn477 N493 2.282 . S
Mn477 O501 2.215 . S
Mn477 O503 2.117 . S
C478 O500 1.234 . S
C478 O501 1.283 . S
C479 O491 1.281 . S
C479 O492 1.236 . S
C480 O502 1.240 . S
C480 O503 1.264 . S
O481 Mn476 2.095 . S
O481 C490 1.250 . S
O482 Mn477 2.121 . S
O482 C490 1.258 . S
C483 N484 1.326 . S
C483 C487 1.460 . S
C483 H489 0.929 . S
N484 Mn477 2.257 . S
N484 C483 1.326 . S
N484 C488 1.362 . S
C485 C486 1.258 . S
C485 C488 1.431 . S
C485 C505 1.449 . S
C486 C485 1.258 . S
C486 C487 1.477 . S
C486 H506 0.931 . S
C487 C483 1.460 . S
C487 C486 1.477 . S
C487 H507 0.930 . S
C488 N484 1.362 . S
C488 C485 1.431 . S
C488 C498 1.476 . S
H489 C483 0.929 . S
C490 O481 1.250 . S
C490 O482 1.258 . S
O491 Mn476 2.162 . S
O491 C479 1.281 . S
O492 Mn476 2.297 . S
O492 C479 1.236 . S
N493 Mn477 2.282 . S
N493 C494 1.328 . S
N493 C498 1.318 . S
C494 N493 1.328 . S
C494 C495 1.457 . S
C494 H499 0.929 . S
C495 C494 1.457 . S
C495 C496 1.291 . S
C495 H508 0.931 . S
C496 C495 1.291 . S
C496 C497 1.373 . S
C496 H509 0.929 . S
C497 C496 1.373 . S
C497 C498 1.396 . S
C497 C504 1.403 . S
C498 C488 1.476 . S
C498 N493 1.318 . S
C498 C497 1.396 . S
H499 C494 0.929 . S
O500 Mn476 2.385 . S
O500 C478 1.234 . S
O501 Mn476 2.209 . S
O501 Mn477 2.215 . S
O501 C478 1.283 . S
O502 Mn476 2.094 . S
O502 C480 1.240 . S
O503 Mn477 2.117 . S
O503 C480 1.264 . S
C504 C497 1.403 . S
C504 C505 1.399 . S
C504 H510 0.929 . S
C505 C485 1.449 . S
C505 C504 1.399 . S
C505 H511 0.930 . S
H506 C486 0.931 . S
H507 C487 0.930 . S
H508 C495 0.931 . S
H509 C496 0.929 . S
H510 C504 0.929 . S
H511 C505 0.930 . S
Mn512 O517 2.095 . S
Mn512 O527 2.162 . S
Mn512 O528 2.297 . S
Mn512 O536 2.385 . S
Mn512 O537 2.209 . S
Mn512 O538 2.094 . S
Mn513 O518 2.121 . S
Mn513 N520 2.257 . S
Mn513 N529 2.282 . S
Mn513 O537 2.215 . S
Mn513 O539 2.117 . S
C514 O536 1.234 . S
C514 O537 1.283 . S
C515 O527 1.281 . S
C515 O528 1.236 . S
C516 O538 1.240 . S
C516 O539 1.264 . S
O517 Mn512 2.095 . S
O517 C526 1.250 . S
O518 Mn513 2.121 . S
O518 C526 1.258 . S
C519 N520 1.326 . S
C519 C523 1.460 . S
C519 H525 0.929 . S
N520 Mn513 2.257 . S
N520 C519 1.326 . S
N520 C524 1.362 . S
C521 C522 1.258 . S
C521 C524 1.431 . S
C521 C541 1.449 . S
C522 C521 1.258 . S
C522 C523 1.477 . S
C522 H542 0.931 . S
C523 C519 1.460 . S
C523 C522 1.477 . S
C523 H543 0.930 . S
C524 N520 1.362 . S
C524 C521 1.431 . S
C524 C534 1.476 . S
H525 C519 0.929 . S
C526 O517 1.250 . S
C526 O518 1.258 . S
O527 Mn512 2.162 . S
O527 C515 1.281 . S
O528 Mn512 2.297 . S
O528 C515 1.236 . S
N529 Mn513 2.282 . S
N529 C530 1.328 . S
N529 C534 1.318 . S
C530 N529 1.328 . S
C530 C531 1.457 . S
C530 H535 0.929 . S
C531 C530 1.457 . S
C531 C532 1.291 . S
C531 H544 0.931 . S
C532 C531 1.291 . S
C532 C533 1.373 . S
C532 H545 0.929 . S
C533 C532 1.373 . S
C533 C534 1.396 . S
C533 C540 1.403 . S
C534 C524 1.476 . S
C534 N529 1.318 . S
C534 C533 1.396 . S
H535 C530 0.929 . S
O536 Mn512 2.385 . S
O536 C514 1.234 . S
O537 Mn512 2.209 . S
O537 Mn513 2.215 . S
O537 C514 1.283 . S
O538 Mn512 2.094 . S
O538 C516 1.240 . S
O539 Mn513 2.117 . S
O539 C516 1.264 . S
C540 C533 1.403 . S
C540 C541 1.399 . S
C540 H546 0.929 . S
C541 C521 1.449 . S
C541 C540 1.399 . S
C541 H547 0.930 . S
H542 C522 0.931 . S
H543 C523 0.930 . S
H544 C531 0.931 . S
H545 C532 0.929 . S
H546 C540 0.929 . S
H547 C541 0.930 . S
Mn548 O553 2.095 . S
Mn548 O563 2.162 . S
Mn548 O564 2.297 . S
Mn548 O572 2.385 . S
Mn548 O573 2.209 . S
Mn548 O574 2.094 . S
Mn549 O554 2.121 . S
Mn549 N556 2.257 . S
Mn549 N565 2.282 . S
Mn549 O573 2.215 . S
Mn549 O575 2.117 . S
C550 O572 1.234 . S
C550 O573 1.283 . S
C551 O563 1.281 . S
C551 O564 1.236 . S
C552 O574 1.240 . S
C552 O575 1.264 . S
O553 Mn548 2.095 . S
O553 C562 1.250 . S
O554 Mn549 2.121 . S
O554 C562 1.258 . S
C555 N556 1.326 . S
C555 C559 1.460 . S
C555 H561 0.929 . S
N556 Mn549 2.257 . S
N556 C555 1.326 . S
N556 C560 1.362 . S
C557 C558 1.258 . S
C557 C560 1.431 . S
C557 C577 1.449 . S
C558 C557 1.258 . S
C558 C559 1.477 . S
C558 H578 0.931 . S
C559 C555 1.460 . S
C559 C558 1.477 . S
C559 H579 0.930 . S
C560 N556 1.362 . S
C560 C557 1.431 . S
C560 C570 1.476 . S
H561 C555 0.929 . S
C562 O553 1.250 . S
C562 O554 1.258 . S
O563 Mn548 2.162 . S
O563 C551 1.281 . S
O564 Mn548 2.297 . S
O564 C551 1.236 . S
N565 Mn549 2.282 . S
N565 C566 1.328 . S
N565 C570 1.318 . S
C566 N565 1.328 . S
C566 C567 1.457 . S
C566 H571 0.929 . S
C567 C566 1.457 . S
C567 C568 1.291 . S
C567 H580 0.931 . S
C568 C567 1.291 . S
C568 C569 1.373 . S
C568 H581 0.929 . S
C569 C568 1.373 . S
C569 C570 1.396 . S
C569 C576 1.403 . S
C570 C560 1.476 . S
C570 N565 1.318 . S
C570 C569 1.396 . S
H571 C566 0.929 . S
O572 Mn548 2.385 . S
O572 C550 1.234 . S
O573 Mn548 2.209 . S
O573 Mn549 2.215 . S
O573 C550 1.283 . S
O574 Mn548 2.094 . S
O574 C552 1.240 . S
O575 Mn549 2.117 . S
O575 C552 1.264 . S
C576 C569 1.403 . S
C576 C577 1.399 . S
C576 H582 0.929 . S
C577 C557 1.449 . S
C577 C576 1.399 . S
C577 H583 0.930 . S
H578 C558 0.931 . S
H579 C559 0.930 . S
H580 C567 0.931 . S
H581 C568 0.929 . S
H582 C576 0.929 . S
H583 C577 0.930 . S
Mn584 O589 2.095 . S
Mn584 O599 2.162 1_554 S
Mn584 O600 2.297 1_554 S
Mn584 O608 2.385 1_554 S
Mn584 O609 2.209 1_554 S
Mn584 O610 2.094 . S
Mn585 O590 2.121 . S
Mn585 N592 2.257 1_554 S
Mn585 N601 2.282 1_554 S
Mn585 O609 2.215 1_554 S
Mn585 O611 2.117 . S
C586 O608 1.234 . S
C586 O609 1.283 . S
C587 O599 1.280 . S
C587 O600 1.236 . S
C588 O610 1.240 . S
C588 O611 1.264 . S
O589 Mn584 2.095 . S
O589 C598 1.250 . S
O590 Mn585 2.121 . S
O590 C598 1.258 . S
C591 N592 1.326 1_554 S
C591 C595 1.460 . S
C591 H597 0.929 . S
N592 Mn585 2.257 1_556 S
N592 C591 1.326 1_556 S
N592 C596 1.362 . S
C593 C594 1.258 . S
C593 C596 1.431 . S
C593 C613 1.449 . S
C594 C593 1.258 . S
C594 C595 1.477 1_556 S
C594 H614 0.931 . S
C595 C591 1.460 . S
C595 C594 1.477 1_554 S
C595 H615 0.930 . S
C596 N592 1.362 . S
C596 C593 1.431 . S
C596 C606 1.476 . S
H597 C591 0.929 . S
C598 O589 1.250 . S
C598 O590 1.258 . S
O599 Mn584 2.162 1_556 S
O599 C587 1.280 . S
O600 Mn584 2.297 1_556 S
O600 C587 1.236 . S
N601 Mn585 2.282 1_556 S
N601 C602 1.328 . S
N601 C606 1.318 . S
C602 N601 1.328 . S
C602 C603 1.457 . S
C602 H607 0.929 . S
C603 C602 1.457 . S
C603 C604 1.291 . S
C603 H616 0.931 . S
C604 C603 1.291 . S
C604 C605 1.373 . S
C604 H617 0.929 . S
C605 C604 1.373 . S
C605 C606 1.396 . S
C605 C612 1.403 . S
C606 C596 1.476 . S
C606 N601 1.318 . S
C606 C605 1.396 . S
H607 C602 0.929 . S
O608 Mn584 2.385 1_556 S
O608 C586 1.234 . S
O609 Mn584 2.209 1_556 S
O609 Mn585 2.215 1_556 S
O609 C586 1.283 . S
O610 Mn584 2.094 . S
O610 C588 1.240 . S
O611 Mn585 2.117 . S
O611 C588 1.264 . S
C612 C605 1.403 . S
C612 C613 1.399 . S
C612 H618 0.929 . S
C613 C593 1.449 . S
C613 C612 1.399 . S
C613 H619 0.930 . S
H614 C594 0.931 . S
H615 C595 0.930 . S
H616 C603 0.931 . S
H617 C604 0.929 . S
H618 C612 0.929 . S
H619 C613 0.930 . S
Mn620 O625 2.095 . S
Mn620 O635 2.162 . S
Mn620 O636 2.297 . S
Mn620 O644 2.385 . S
Mn620 O645 2.209 . S
Mn620 O646 2.094 . S
Mn621 O626 2.121 . S
Mn621 N628 2.257 . S
Mn621 N637 2.282 . S
Mn621 O645 2.215 . S
Mn621 O647 2.117 . S
C622 O644 1.234 . S
C622 O645 1.283 . S
C623 O635 1.281 . S
C623 O636 1.236 . S
C624 O646 1.240 . S
C624 O647 1.264 . S
O625 Mn620 2.095 . S
O625 C634 1.250 . S
O626 Mn621 2.121 . S
O626 C634 1.258 . S
C627 N628 1.326 . S
C627 C631 1.460 . S
C627 H633 0.929 . S
N628 Mn621 2.257 . S
N628 C627 1.326 . S
N628 C632 1.362 . S
C629 C630 1.258 . S
C629 C632 1.431 . S
C629 C649 1.449 . S
C630 C629 1.258 . S
C630 C631 1.477 . S
C630 H650 0.931 . S
C631 C627 1.460 . S
C631 C630 1.477 . S
C631 H651 0.930 . S
C632 N628 1.362 . S
C632 C629 1.431 . S
C632 C642 1.476 . S
H633 C627 0.929 . S
C634 O625 1.250 . S
C634 O626 1.258 . S
O635 Mn620 2.162 . S
O635 C623 1.281 . S
O636 Mn620 2.297 . S
O636 C623 1.236 . S
N637 Mn621 2.282 . S
N637 C638 1.328 . S
N637 C642 1.318 . S
C638 N637 1.328 . S
C638 C639 1.457 . S
C638 H643 0.929 . S
C639 C638 1.457 . S
C639 C640 1.291 . S
C639 H652 0.931 . S
C640 C639 1.291 . S
C640 C641 1.373 . S
C640 H653 0.929 . S
C641 C640 1.373 . S
C641 C642 1.396 . S
C641 C648 1.403 . S
C642 C632 1.476 . S
C642 N637 1.318 . S
C642 C641 1.396 . S
H643 C638 0.929 . S
O644 Mn620 2.385 . S
O644 C622 1.234 . S
O645 Mn620 2.209 . S
O645 Mn621 2.215 . S
O645 C622 1.283 . S
O646 Mn620 2.094 . S
O646 C624 1.240 . S
O647 Mn621 2.117 . S
O647 C624 1.264 . S
C648 C641 1.403 . S
C648 C649 1.399 . S
C648 H654 0.929 . S
C649 C629 1.449 . S
C649 C648 1.399 . S
C649 H655 0.930 . S
H650 C630 0.931 . S
H651 C631 0.930 . S
H652 C639 0.931 . S
H653 C640 0.929 . S
H654 C648 0.929 . S
H655 C649 0.930 . S
H656 C664 0.950 . S
H657 C669 0.950 . S
H658 C666 0.950 . S
H659 C668 0.950 . S
H660 C670 0.950 . S
H661 C672 0.950 . S
H662 C674 0.950 . S
H663 C675 0.950 . S
C664 H656 0.950 . S
C664 C665 1.386 . S
C664 C666 1.391 . S
C665 C664 1.386 . S
C665 C669 1.393 . S
C666 H658 0.950 . S
C666 C664 1.391 . S
C666 C667 1.400 . S
C667 C666 1.400 . S
C667 C668 1.398 . S
C667 C673 1.491 . S
C668 H659 0.950 . S
C668 C667 1.398 . S
C668 C669 1.391 . S
C669 H657 0.950 . S
C669 C665 1.393 . S
C669 C668 1.391 . S
C670 H660 0.950 . S
C670 C671 1.386 . S
C670 C672 1.391 . S
C671 C670 1.386 . S
C671 C675 1.393 . S
C672 H661 0.950 . S
C672 C670 1.391 . S
C672 C673 1.400 . S
C673 C667 1.491 . S
C673 C672 1.400 . S
C673 C674 1.398 . S
C674 H662 0.950 . S
C674 C673 1.398 . S
C674 C675 1.391 . S
C675 H663 0.950 . S
C675 C671 1.393 . S
C675 C674 1.391 . S
H676 C684 0.950 . S
H677 C689 0.950 . S
H678 C686 0.950 . S
H679 C688 0.950 . S
H680 C690 0.950 . S
H681 C692 0.950 . S
H682 C694 0.950 . S
H683 C695 0.950 . S
C684 H676 0.950 . S
C684 C685 1.386 . S
C684 C686 1.391 . S
C685 C684 1.386 . S
C685 C689 1.393 . S
C686 H678 0.950 . S
C686 C684 1.391 . S
C686 C687 1.400 . S
C687 C686 1.400 . S
C687 C688 1.398 . S
C687 C693 1.491 . S
C688 H679 0.950 . S
C688 C687 1.398 . S
C688 C689 1.391 . S
C689 H677 0.950 . S
C689 C685 1.393 . S
C689 C688 1.391 . S
C690 H680 0.950 . S
C690 C691 1.386 . S
C690 C692 1.391 . S
C691 C690 1.386 . S
C691 C695 1.393 . S
C692 H681 0.950 . S
C692 C690 1.391 . S
C692 C693 1.400 . S
C693 C687 1.491 . S
C693 C692 1.400 . S
C693 C694 1.398 . S
C694 H682 0.950 . S
C694 C693 1.398 . S
C694 C695 1.391 . S
C695 H683 0.950 . S
C695 C691 1.393 . S
C695 C694 1.391 . S
H696 C704 0.950 . S
H697 C709 0.950 . S
H698 C706 0.950 . S
H699 C708 0.950 . S
H700 C710 0.950 . S
H701 C712 0.950 . S
H702 C714 0.950 . S
H703 C715 0.950 . S
C704 H696 0.950 . S
C704 C705 1.386 . S
C704 C706 1.391 . S
C705 C704 1.386 . S
C705 C709 1.393 . S
C706 H698 0.950 . S
C706 C704 1.391 . S
C706 C707 1.400 . S
C707 C706 1.400 . S
C707 C708 1.398 . S
C707 C713 1.491 . S
C708 H699 0.950 . S
C708 C707 1.398 . S
C708 C709 1.391 . S
C709 H697 0.950 . S
C709 C705 1.393 . S
C709 C708 1.391 . S
C710 H700 0.950 . S
C710 C711 1.386 . S
C710 C712 1.391 . S
C711 C710 1.386 . S
C711 C715 1.393 . S
C712 H701 0.950 . S
C712 C710 1.391 . S
C712 C713 1.400 . S
C713 C707 1.491 . S
C713 C712 1.400 . S
C713 C714 1.398 . S
C714 H702 0.950 . S
C714 C713 1.398 . S
C714 C715 1.391 . S
C715 H703 0.950 . S
C715 C711 1.393 . S
C715 C714 1.391 . S
H716 C724 0.950 . S
H717 C729 0.950 . S
H718 C726 0.950 . S
H719 C728 0.960 . S
H720 C730 1.000 . S
H721 C732 0.950 1_556 S
H722 C734 0.950 . S
H723 C735 0.950 . S
C724 H716 0.950 . S
C724 C725 1.386 . S
C724 C726 1.391 . S
C725 C724 1.386 . S
C725 C729 1.393 . S
C726 H718 0.950 . S
C726 C724 1.391 . S
C726 C727 1.400 . S
C727 C726 1.400 . S
C727 C728 1.398 . S
C727 C733 1.491 . S
C728 H719 0.960 . S
C728 C727 1.398 . S
C728 C729 1.391 . S
C729 H717 0.950 . S
C729 C725 1.393 . S
C729 C728 1.391 . S
C730 H720 1.000 . S
C730 C731 1.348 1_556 S
C730 C732 1.380 1_556 S
C731 C730 1.348 1_554 S
C731 C735 1.393 . S
C732 H721 0.950 1_554 S
C732 C730 1.380 1_554 S
C732 C733 1.400 . S
C733 C727 1.491 . S
C733 C732 1.400 . S
C733 C734 1.398 . S
C734 H722 0.950 . S
C734 C733 1.398 . S
C734 C735 1.391 . S
C735 H723 0.950 . S
C735 C731 1.393 . S
C735 C734 1.391 . S
H736 C744 0.950 . S
H737 C749 0.950 . S
H738 C746 0.950 . S
H739 C748 0.950 1_554 S
H740 C750 0.950 . S
H741 C752 0.950 1_554 S
H742 C754 0.950 . S
H743 C755 0.950 . S
C744 H736 0.950 . S
C744 C745 1.386 . S
C744 C746 1.391 . S
C745 C744 1.386 . S
C745 C749 1.393 . S
C746 H738 0.950 . S
C746 C744 1.391 . S
C746 C747 1.400 . S
C747 C746 1.400 . S
C747 C748 1.398 . S
C747 C753 1.491 . S
C748 H739 0.950 1_556 S
C748 C747 1.398 . S
C748 C749 1.391 . S
C749 H737 0.950 . S
C749 C745 1.393 . S
C749 C748 1.391 . S
C750 H740 0.950 . S
C750 C751 1.386 1_554 S
C750 C752 1.391 1_554 S
C751 C750 1.386 1_556 S
C751 C755 1.393 . S
C752 H741 0.950 1_556 S
C752 C750 1.391 1_556 S
C752 C753 1.400 . S
C753 C747 1.491 . S
C753 C752 1.400 . S
C753 C754 1.398 . S
C754 H742 0.950 . S
C754 C753 1.398 . S
C754 C755 1.391 . S
C755 H743 0.950 . S
C755 C751 1.393 . S
C755 C754 1.391 . S
H756 C764 0.950 . S
H757 C769 0.950 . S
H758 C766 0.950 . S
H759 C768 0.950 . S
H760 C770 0.950 . S
H761 C772 0.950 . S
H762 C774 0.950 . S
H763 C775 0.950 . S
C764 H756 0.950 . S
C764 C765 1.386 . S
C764 C766 1.391 . S
C765 C764 1.386 . S
C765 C769 1.393 . S
C766 H758 0.950 . S
C766 C764 1.391 . S
C766 C767 1.400 . S
C767 C766 1.400 . S
C767 C768 1.398 . S
C767 C773 1.491 . S
C768 H759 0.950 . S
C768 C767 1.398 . S
C768 C769 1.391 . S
C769 H757 0.950 . S
C769 C765 1.393 . S
C769 C768 1.391 . S
C770 H760 0.950 . S
C770 C771 1.386 . S
C770 C772 1.391 . S
C771 C770 1.386 . S
C771 C775 1.393 . S
C772 H761 0.950 . S
C772 C770 1.391 . S
C772 C773 1.400 . S
C773 C767 1.491 . S
C773 C772 1.400 . S
C773 C774 1.398 . S
C774 H762 0.950 . S
C774 C773 1.398 . S
C774 C775 1.391 . S
C775 H763 0.950 . S
C775 C771 1.393 . S
C775 C774 1.391 . S
H776 C784 0.950 . S
H777 C789 0.950 . S
H778 C786 0.950 . S
H779 C788 0.950 . S
H780 C790 0.950 . S
H781 C792 0.950 . S
H782 C794 0.950 . S
H783 C795 0.950 . S
C784 H776 0.950 . S
C784 C785 1.386 . S
C784 C786 1.391 . S
C785 C784 1.386 . S
C785 C789 1.393 . S
C786 H778 0.950 . S
C786 C784 1.391 . S
C786 C787 1.400 . S
C787 C786 1.400 . S
C787 C788 1.398 . S
C787 C793 1.491 . S
C788 H779 0.950 . S
C788 C787 1.398 . S
C788 C789 1.391 . S
C789 H777 0.950 . S
C789 C785 1.393 . S
C789 C788 1.391 . S
C790 H780 0.950 . S
C790 C791 1.386 . S
C790 C792 1.391 . S
C791 C790 1.386 . S
C791 C795 1.393 . S
C792 H781 0.950 . S
C792 C790 1.391 . S
C792 C793 1.400 . S
C793 C787 1.491 . S
C793 C792 1.400 . S
C793 C794 1.398 . S
C794 H782 0.950 . S
C794 C793 1.398 . S
C794 C795 1.391 . S
C795 H783 0.950 . S
C795 C791 1.393 . S
C795 C794 1.391 . S
H796 C804 0.950 . S
H797 C809 0.950 . S
H798 C806 0.950 . S
H799 C808 0.950 . S
H800 C810 0.950 . S
H801 C812 0.950 . S
H802 C814 0.950 . S
H803 C815 0.950 . S
C804 H796 0.950 . S
C804 C805 1.386 . S
C804 C806 1.391 . S
C805 C804 1.386 . S
C805 C809 1.393 . S
C806 H798 0.950 . S
C806 C804 1.391 . S
C806 C807 1.400 . S
C807 C806 1.400 . S
C807 C808 1.398 . S
C807 C813 1.491 . S
C808 H799 0.950 . S
C808 C807 1.398 . S
C808 C809 1.391 . S
C809 H797 0.950 . S
C809 C805 1.393 . S
C809 C808 1.391 . S
C810 H800 0.950 . S
C810 C811 1.386 . S
C810 C812 1.391 . S
C811 C810 1.386 . S
C811 C815 1.393 . S
C812 H801 0.950 . S
C812 C810 1.391 . S
C812 C813 1.400 . S
C813 C807 1.491 . S
C813 C812 1.400 . S
C813 C814 1.398 . S
C814 H802 0.950 . S
C814 C813 1.398 . S
C814 C815 1.391 . S
C815 H803 0.950 . S
C815 C811 1.393 . S
C815 C814 1.391 . S
H816 C824 0.950 . S
H817 C829 0.950 . S
H818 C826 0.950 . S
H819 C828 0.950 . S
H820 C830 0.950 . S
H821 C832 0.950 . S
H822 C834 0.950 . S
H823 C835 0.950 . S
C824 H816 0.950 . S
C824 C825 1.386 . S
C824 C826 1.391 . S
C825 C824 1.386 . S
C825 C829 1.393 . S
C826 H818 0.950 . S
C826 C824 1.391 . S
C826 C827 1.400 . S
C827 C826 1.400 . S
C827 C828 1.398 . S
C827 C833 1.491 . S
C828 H819 0.950 . S
C828 C827 1.398 . S
C828 C829 1.391 . S
C829 H817 0.950 . S
C829 C825 1.393 . S
C829 C828 1.391 . S
C830 H820 0.950 . S
C830 C831 1.386 . S
C830 C832 1.391 . S
C831 C830 1.386 . S
C831 C835 1.393 . S
C832 H821 0.950 . S
C832 C830 1.391 . S
C832 C833 1.400 . S
C833 C827 1.491 . S
C833 C832 1.400 . S
C833 C834 1.398 . S
C834 H822 0.950 . S
C834 C833 1.398 . S
C834 C835 1.391 . S
C835 H823 0.950 . S
C835 C831 1.393 . S
C835 C834 1.391 . S
H836 C844 0.950 . S
H837 C849 0.950 . S
H838 C846 0.950 . S
H839 C848 0.950 . S
H840 C850 0.950 1_556 S
H841 C852 0.975 . S
H842 C854 0.950 . S
H843 C855 0.950 . S
C844 H836 0.950 . S
C844 C845 1.386 . S
C844 C846 1.391 . S
C845 C844 1.386 . S
C845 C849 1.393 . S
C846 H838 0.950 . S
C846 C844 1.391 . S
C846 C847 1.400 . S
C847 C846 1.400 . S
C847 C848 1.398 . S
C847 C853 1.491 . S
C848 H839 0.950 . S
C848 C847 1.398 . S
C848 C849 1.391 . S
C849 H837 0.950 . S
C849 C845 1.393 . S
C849 C848 1.391 . S
C850 H840 0.950 1_554 S
C850 C851 1.386 . S
C850 C852 1.391 . S
C851 C850 1.386 . S
C851 C855 1.393 . S
C852 H841 0.975 . S
C852 C850 1.391 . S
C852 C853 1.400 . S
C853 C847 1.491 . S
C853 C852 1.400 . S
C853 C854 1.398 . S
C854 H842 0.950 . S
C854 C853 1.398 . S
C854 C855 1.391 . S
C855 H843 0.950 . S
C855 C851 1.393 . S
C855 C854 1.391 . S
H856 C864 0.950 . S
H857 C869 0.950 . S
H858 C866 0.950 . S
H859 C868 0.950 . S
H860 C870 0.950 . S
H861 C872 0.950 . S
H862 C874 0.950 . S
H863 C875 0.950 . S
C864 H856 0.950 . S
C864 C865 1.386 . S
C864 C866 1.391 . S
C865 C864 1.386 . S
C865 C869 1.393 . S
C866 H858 0.950 . S
C866 C864 1.391 . S
C866 C867 1.400 . S
C867 C866 1.400 . S
C867 C868 1.398 . S
C867 C873 1.491 . S
C868 H859 0.950 . S
C868 C867 1.398 . S
C868 C869 1.391 . S
C869 H857 0.950 . S
C869 C865 1.393 . S
C869 C868 1.391 . S
C870 H860 0.950 . S
C870 C871 1.386 . S
C870 C872 1.391 . S
C871 C870 1.386 . S
C871 C875 1.393 . S
C872 H861 0.950 . S
C872 C870 1.391 . S
C872 C873 1.400 . S
C873 C867 1.491 . S
C873 C872 1.400 . S
C873 C874 1.398 . S
C874 H862 0.950 . S
C874 C873 1.398 . S
C874 C875 1.391 . S
C875 H863 0.950 . S
C875 C871 1.393 . S
C875 C874 1.391 . S
H876 C884 0.950 . S
H877 C889 0.950 . S
H878 C886 0.950 . S
H879 C888 0.950 . S
H880 C890 0.950 . S
H881 C892 0.950 . S
H882 C894 0.950 . S
H883 C895 0.950 . S
C884 H876 0.950 . S
C884 C885 1.386 . S
C884 C886 1.391 . S
C885 C884 1.386 . S
C885 C889 1.393 . S
C886 H878 0.950 . S
C886 C884 1.391 . S
C886 C887 1.400 . S
C887 C886 1.400 . S
C887 C888 1.398 . S
C887 C893 1.491 . S
C888 H879 0.950 . S
C888 C887 1.398 . S
C888 C889 1.391 . S
C889 H877 0.950 . S
C889 C885 1.393 . S
C889 C888 1.391 . S
C890 H880 0.950 . S
C890 C891 1.386 . S
C890 C892 1.391 . S
C891 C890 1.386 . S
C891 C895 1.393 . S
C892 H881 0.950 . S
C892 C890 1.391 . S
C892 C893 1.400 . S
C893 C887 1.491 . S
C893 C892 1.400 . S
C893 C894 1.398 . S
C894 H882 0.950 . S
C894 C893 1.398 . S
C894 C895 1.391 . S
C895 H883 0.950 . S
C895 C891 1.393 . S
C895 C894 1.391 . S
H896 C904 0.950 . S
H897 C909 0.950 . S
H898 C906 0.950 . S
H899 C908 0.950 . S
H900 C910 0.950 . S
H901 C912 0.950 . S
H902 C914 0.950 . S
H903 C915 0.950 . S
C904 H896 0.950 . S
C904 C905 1.386 . S
C904 C906 1.391 . S
C905 C904 1.386 . S
C905 C909 1.393 . S
C906 H898 0.950 . S
C906 C904 1.391 . S
C906 C907 1.400 . S
C907 C906 1.400 . S
C907 C908 1.398 . S
C907 C913 1.491 . S
C908 H899 0.950 . S
C908 C907 1.398 . S
C908 C909 1.391 . S
C909 H897 0.950 . S
C909 C905 1.393 . S
C909 C908 1.391 . S
C910 H900 0.950 . S
C910 C911 1.386 . S
C910 C912 1.391 . S
C911 C910 1.386 . S
C911 C915 1.393 . S
C912 H901 0.950 . S
C912 C910 1.391 . S
C912 C913 1.400 . S
C913 C907 1.491 . S
C913 C912 1.400 . S
C913 C914 1.398 . S
C914 H902 0.950 . S
C914 C913 1.398 . S
C914 C915 1.391 . S
C915 H903 0.950 . S
C915 C911 1.393 . S
C915 C914 1.391 . S
H916 C924 0.950 . S
H917 C929 0.950 . S
H918 C926 0.950 . S
H919 C928 0.950 . S
H920 C930 0.950 . S
H921 C932 0.950 . S
H922 C934 0.950 . S
H923 C935 0.950 . S
C924 H916 0.950 . S
C924 C925 1.386 . S
C924 C926 1.391 . S
C925 C924 1.386 . S
C925 C929 1.393 . S
C926 H918 0.950 . S
C926 C924 1.391 . S
C926 C927 1.400 . S
C927 C926 1.400 . S
C927 C928 1.398 . S
C927 C933 1.491 . S
C928 H919 0.950 . S
C928 C927 1.398 . S
C928 C929 1.391 . S
C929 H917 0.950 . S
C929 C925 1.393 . S
C929 C928 1.391 . S
C930 H920 0.950 . S
C930 C931 1.386 . S
C930 C932 1.391 . S
C931 C930 1.386 . S
C931 C935 1.393 . S
C932 H921 0.950 . S
C932 C930 1.391 . S
C932 C933 1.400 . S
C933 C927 1.491 . S
C933 C932 1.400 . S
C933 C934 1.398 . S
C934 H922 0.950 . S
C934 C933 1.398 . S
C934 C935 1.391 . S
C935 H923 0.950 . S
C935 C931 1.393 . S
C935 C934 1.391 . S
H936 C944 0.950 . S
H937 C949 0.950 . S
H938 C946 0.950 . S
H939 C948 0.950 . S
H940 C950 0.950 . S
H941 C952 0.950 . S
H942 C954 0.950 . S
H943 C955 0.978 . S
C944 H936 0.950 . S
C944 C945 1.386 . S
C944 C946 1.391 . S
C945 C944 1.386 . S
C945 C949 1.393 . S
C946 H938 0.950 . S
C946 C944 1.391 . S
C946 C947 1.400 . S
C947 C946 1.400 . S
C947 C948 1.398 . S
C947 C953 1.491 . S
C948 H939 0.950 . S
C948 C947 1.398 . S
C948 C949 1.391 . S
C949 H937 0.950 . S
C949 C945 1.393 . S
C949 C948 1.391 . S
C950 H940 0.950 . S
C950 C951 1.386 . S
C950 C952 1.391 . S
C951 C950 1.386 . S
C951 C955 1.393 . S
C952 H941 0.950 . S
C952 C950 1.391 . S
C952 C953 1.400 . S
C953 C947 1.491 . S
C953 C952 1.400 . S
C953 C954 1.398 . S
C954 H942 0.950 . S
C954 C953 1.398 . S
C954 C955 1.391 . S
C955 H943 0.978 . S
C955 C951 1.393 . S
C955 C954 1.391 . S
H956 C964 0.950 . S
H957 C969 0.950 . S
H958 C966 0.950 . S
H959 C968 0.950 . S
H960 C970 0.950 . S
H961 C972 0.950 . S
H962 C974 0.950 . S
H963 C975 0.950 . S
C964 H956 0.950 . S
C964 C965 1.386 . S
C964 C966 1.391 . S
C965 C964 1.386 . S
C965 C969 1.393 . S
C966 H958 0.950 . S
C966 C964 1.391 . S
C966 C967 1.400 . S
C967 C966 1.400 . S
C967 C968 1.398 . S
C967 C973 1.491 . S
C968 H959 0.950 . S
C968 C967 1.398 . S
C968 C969 1.391 . S
C969 H957 0.950 . S
C969 C965 1.393 . S
C969 C968 1.391 . S
C970 H960 0.950 . S
C970 C971 1.386 . S
C970 C972 1.391 . S
C971 C970 1.386 . S
C971 C975 1.393 . S
C972 H961 0.950 . S
C972 C970 1.391 . S
C972 C973 1.400 . S
C973 C967 1.491 . S
C973 C972 1.400 . S
C973 C974 1.398 . S
C974 H962 0.950 . S
C974 C973 1.398 . S
C974 C975 1.391 . S
C975 H963 0.950 . S
C975 C971 1.393 . S
C975 C974 1.391 . S
H976 C984 0.950 . S
H977 C989 0.950 . S
H978 C986 0.950 . S
H979 C988 0.950 . S
H980 C990 0.950 . S
H981 C992 0.950 . S
H982 C994 0.950 . S
H983 C995 0.950 . S
C984 H976 0.950 . S
C984 C985 1.386 . S
C984 C986 1.391 . S
C985 C984 1.386 . S
C985 C989 1.393 . S
C986 H978 0.950 . S
C986 C984 1.391 . S
C986 C987 1.400 . S
C987 C986 1.400 . S
C987 C988 1.398 . S
C987 C993 1.491 . S
C988 H979 0.950 . S
C988 C987 1.398 . S
C988 C989 1.391 . S
C989 H977 0.950 . S
C989 C985 1.393 . S
C989 C988 1.391 . S
C990 H980 0.950 . S
C990 C991 1.386 . S
C990 C992 1.391 . S
C991 C990 1.386 . S
C991 C995 1.393 . S
C992 H981 0.950 . S
C992 C990 1.391 . S
C992 C993 1.400 . S
C993 C987 1.491 . S
C993 C992 1.400 . S
C993 C994 1.398 . S
C994 H982 0.950 . S
C994 C993 1.398 . S
C994 C995 1.391 . S
C995 H983 0.950 . S
C995 C991 1.393 . S
C995 C994 1.391 . S
H996 C1004 0.950 . S
H997 C1009 0.950 . S
H998 C1006 0.950 . S
H999 C1008 0.950 . S
H1000 C1010 0.950 . S
H1001 C1012 0.950 . S
H1002 C1014 0.950 . S
H1003 C1015 0.950 . S
C1004 H996 0.950 . S
C1004 C1005 1.386 . S
C1004 C1006 1.391 . S
C1005 C1004 1.386 . S
C1005 C1009 1.393 . S
C1006 H998 0.950 . S
C1006 C1004 1.391 . S
C1006 C1007 1.400 . S
C1007 C1006 1.400 . S
C1007 C1008 1.398 . S
C1007 C1013 1.491 . S
C1008 H999 0.950 . S
C1008 C1007 1.398 . S
C1008 C1009 1.391 . S
C1009 H997 0.950 . S
C1009 C1005 1.393 . S
C1009 C1008 1.391 . S
C1010 H1000 0.950 . S
C1010 C1011 1.386 . S
C1010 C1012 1.391 . S
C1011 C1010 1.386 . S
C1011 C1015 1.393 . S
C1012 H1001 0.950 . S
C1012 C1010 1.391 . S
C1012 C1013 1.400 . S
C1013 C1007 1.491 . S
C1013 C1012 1.400 . S
C1013 C1014 1.398 . S
C1014 H1002 0.950 . S
C1014 C1013 1.398 . S
C1014 C1015 1.391 . S
C1015 H1003 0.950 . S
C1015 C1011 1.393 . S
C1015 C1014 1.391 . S
H1016 C1024 0.950 . S
H1017 C1029 0.950 . S
H1018 C1026 0.950 . S
H1019 C1028 0.950 . S
H1020 C1030 0.950 . S
H1021 C1032 0.950 . S
H1022 C1034 0.950 . S
H1023 C1035 0.950 . S
C1024 H1016 0.950 . S
C1024 C1025 1.386 . S
C1024 C1026 1.391 . S
C1025 C1024 1.386 . S
C1025 C1029 1.393 . S
C1026 H1018 0.950 . S
C1026 C1024 1.391 . S
C1026 C1027 1.400 . S
C1027 C1026 1.400 . S
C1027 C1028 1.398 . S
C1027 C1033 1.491 . S
C1028 H1019 0.950 . S
C1028 C1027 1.398 . S
C1028 C1029 1.391 . S
C1029 H1017 0.950 . S
C1029 C1025 1.393 . S
C1029 C1028 1.391 . S
C1030 H1020 0.950 . S
C1030 C1031 1.386 . S
C1030 C1032 1.391 . S
C1031 C1030 1.386 . S
C1031 C1035 1.393 . S
C1032 H1021 0.950 . S
C1032 C1030 1.391 . S
C1032 C1033 1.400 . S
C1033 C1027 1.491 . S
C1033 C1032 1.400 . S
C1033 C1034 1.398 . S
C1034 H1022 0.950 . S
C1034 C1033 1.398 . S
C1034 C1035 1.391 . S
C1035 H1023 0.950 . S
C1035 C1031 1.393 . S
C1035 C1034 1.391 . S
H1036 C1044 0.950 . S
H1037 C1049 0.950 . S
H1038 C1046 0.950 . S
H1039 C1048 0.950 . S
H1040 C1050 0.950 . S
H1041 C1052 0.950 . S
H1042 C1054 0.950 . S
H1043 C1055 0.950 . S
C1044 H1036 0.950 . S
C1044 C1045 1.386 . S
C1044 C1046 1.391 . S
C1045 C1044 1.386 . S
C1045 C1049 1.393 . S
C1046 H1038 0.950 . S
C1046 C1044 1.391 . S
C1046 C1047 1.400 . S
C1047 C1046 1.400 . S
C1047 C1048 1.398 . S
C1047 C1053 1.491 . S
C1048 H1039 0.950 . S
C1048 C1047 1.398 . S
C1048 C1049 1.391 . S
C1049 H1037 0.950 . S
C1049 C1045 1.393 . S
C1049 C1048 1.391 . S
C1050 H1040 0.950 . S
C1050 C1051 1.386 . S
C1050 C1052 1.391 . S
C1051 C1050 1.386 . S
C1051 C1055 1.393 . S
C1052 H1041 0.950 . S
C1052 C1050 1.391 . S
C1052 C1053 1.400 . S
C1053 C1047 1.491 . S
C1053 C1052 1.400 . S
C1053 C1054 1.398 . S
C1054 H1042 0.950 . S
C1054 C1053 1.398 . S
C1054 C1055 1.391 . S
C1055 H1043 0.950 . S
C1055 C1051 1.393 . S
C1055 C1054 1.391 . S
H1056 C1064 0.950 . S
H1057 C1069 0.950 . S
H1058 C1066 0.950 . S
H1059 C1068 0.950 . S
H1060 C1070 0.950 . S
H1061 C1072 0.950 . S
H1062 C1074 0.950 . S
H1063 C1075 0.950 . S
C1064 H1056 0.950 . S
C1064 C1065 1.386 . S
C1064 C1066 1.391 . S
C1065 C1064 1.386 . S
C1065 C1069 1.393 . S
C1066 H1058 0.950 . S
C1066 C1064 1.391 . S
C1066 C1067 1.400 . S
C1067 C1066 1.400 . S
C1067 C1068 1.398 . S
C1067 C1073 1.491 . S
C1068 H1059 0.950 . S
C1068 C1067 1.398 . S
C1068 C1069 1.391 . S
C1069 H1057 0.950 . S
C1069 C1065 1.393 . S
C1069 C1068 1.391 . S
C1070 H1060 0.950 . S
C1070 C1071 1.386 . S
C1070 C1072 1.391 . S
C1071 C1070 1.386 . S
C1071 C1075 1.393 . S
C1072 H1061 0.950 . S
C1072 C1070 1.391 . S
C1072 C1073 1.400 . S
C1073 C1067 1.491 . S
C1073 C1072 1.400 . S
C1073 C1074 1.398 . S
C1074 H1062 0.950 . S
C1074 C1073 1.398 . S
C1074 C1075 1.391 . S
C1075 H1063 0.950 . S
C1075 C1071 1.393 . S
C1075 C1074 1.391 . S
H1076 C1084 0.950 . S
H1077 C1089 0.950 . S
H1078 C1086 0.950 . S
H1079 C1088 0.950 . S
H1080 C1090 0.950 . S
H1081 C1092 0.950 . S
H1082 C1094 0.950 . S
H1083 C1095 0.950 . S
C1084 H1076 0.950 . S
C1084 C1085 1.386 . S
C1084 C1086 1.391 . S
C1085 C1084 1.386 . S
C1085 C1089 1.393 . S
C1086 H1078 0.950 . S
C1086 C1084 1.391 . S
C1086 C1087 1.400 . S
C1087 C1086 1.400 . S
C1087 C1088 1.398 . S
C1087 C1093 1.491 . S
C1088 H1079 0.950 . S
C1088 C1087 1.398 . S
C1088 C1089 1.391 . S
C1089 H1077 0.950 . S
C1089 C1085 1.393 . S
C1089 C1088 1.391 . S
C1090 H1080 0.950 . S
C1090 C1091 1.386 . S
C1090 C1092 1.391 . S
C1091 C1090 1.386 . S
C1091 C1095 1.393 . S
C1092 H1081 0.950 . S
C1092 C1090 1.391 . S
C1092 C1093 1.400 . S
C1093 C1087 1.491 . S
C1093 C1092 1.400 . S
C1093 C1094 1.398 . S
C1094 H1082 0.950 . S
C1094 C1093 1.398 . S
C1094 C1095 1.391 . S
C1095 H1083 0.950 . S
C1095 C1091 1.393 . S
C1095 C1094 1.391 . S
H1096 C1104 0.950 . S
H1097 C1109 0.950 . S
H1098 C1106 0.950 . S
H1099 C1108 0.950 . S
H1100 C1110 0.950 . S
H1101 C1112 0.950 . S
H1102 C1114 0.950 . S
H1103 C1115 0.950 . S
C1104 H1096 0.950 . S
C1104 C1105 1.386 . S
C1104 C1106 1.391 . S
C1105 C1104 1.386 . S
C1105 C1109 1.393 . S
C1106 H1098 0.950 . S
C1106 C1104 1.391 . S
C1106 C1107 1.400 . S
C1107 C1106 1.400 . S
C1107 C1108 1.398 . S
C1107 C1113 1.491 . S
C1108 H1099 0.950 . S
C1108 C1107 1.398 . S
C1108 C1109 1.391 . S
C1109 H1097 0.950 . S
C1109 C1105 1.393 . S
C1109 C1108 1.391 . S
C1110 H1100 0.950 . S
C1110 C1111 1.386 . S
C1110 C1112 1.391 . S
C1111 C1110 1.386 . S
C1111 C1115 1.393 . S
C1112 H1101 0.950 . S
C1112 C1110 1.391 . S
C1112 C1113 1.400 . S
C1113 C1107 1.491 . S
C1113 C1112 1.400 . S
C1113 C1114 1.398 . S
C1114 H1102 0.950 . S
C1114 C1113 1.398 . S
C1114 C1115 1.391 . S
C1115 H1103 0.950 . S
C1115 C1111 1.393 . S
C1115 C1114 1.391 . S
H1116 C1124 0.950 . S
H1117 C1129 0.950 . S
H1118 C1126 0.950 . S
H1119 C1128 0.950 . S
H1120 C1130 0.950 . S
H1121 C1132 0.950 . S
H1122 C1134 0.950 . S
H1123 C1135 0.950 . S
C1124 H1116 0.950 . S
C1124 C1125 1.386 . S
C1124 C1126 1.391 . S
C1125 C1124 1.386 . S
C1125 C1129 1.393 . S
C1126 H1118 0.950 . S
C1126 C1124 1.391 . S
C1126 C1127 1.400 . S
C1127 C1126 1.400 . S
C1127 C1128 1.398 . S
C1127 C1133 1.491 . S
C1128 H1119 0.950 . S
C1128 C1127 1.398 . S
C1128 C1129 1.391 . S
C1129 H1117 0.950 . S
C1129 C1125 1.393 . S
C1129 C1128 1.391 . S
C1130 H1120 0.950 . S
C1130 C1131 1.386 . S
C1130 C1132 1.391 . S
C1131 C1130 1.386 . S
C1131 C1135 1.393 . S
C1132 H1121 0.950 . S
C1132 C1130 1.391 . S
C1132 C1133 1.400 . S
C1133 C1127 1.491 . S
C1133 C1132 1.400 . S
C1133 C1134 1.398 . S
C1134 H1122 0.950 . S
C1134 C1133 1.398 . S
C1134 C1135 1.391 . S
C1135 H1123 0.950 . S
C1135 C1131 1.393 . S
C1135 C1134 1.391 . S
H1136 C1144 0.950 . S
H1137 C1149 0.950 . S
H1138 C1146 0.950 . S
H1139 C1148 0.950 . S
H1140 C1150 0.950 . S
H1141 C1152 0.950 . S
H1142 C1154 0.950 . S
H1143 C1155 0.950 . S
C1144 H1136 0.950 . S
C1144 C1145 1.386 . S
C1144 C1146 1.391 . S
C1145 C1144 1.386 . S
C1145 C1149 1.393 . S
C1146 H1138 0.950 . S
C1146 C1144 1.391 . S
C1146 C1147 1.400 . S
C1147 C1146 1.400 . S
C1147 C1148 1.398 . S
C1147 C1153 1.491 . S
C1148 H1139 0.950 . S
C1148 C1147 1.398 . S
C1148 C1149 1.391 . S
C1149 H1137 0.950 . S
C1149 C1145 1.393 . S
C1149 C1148 1.391 . S
C1150 H1140 0.950 . S
C1150 C1151 1.386 . S
C1150 C1152 1.391 . S
C1151 C1150 1.386 . S
C1151 C1155 1.393 . S
C1152 H1141 0.950 . S
C1152 C1150 1.391 . S
C1152 C1153 1.400 . S
C1153 C1147 1.491 . S
C1153 C1152 1.400 . S
C1153 C1154 1.398 . S
C1154 H1142 0.950 . S
C1154 C1153 1.398 . S
C1154 C1155 1.391 . S
C1155 H1143 0.950 . S
C1155 C1151 1.393 . S
C1155 C1154 1.391 . S
H1156 C1164 0.950 . S
H1157 C1169 0.950 . S
H1158 C1166 0.950 . S
H1159 C1168 0.950 . S
H1160 C1170 0.950 . S
H1161 C1172 0.950 . S
H1162 C1174 0.950 . S
H1163 C1175 0.950 . S
C1164 H1156 0.950 . S
C1164 C1165 1.386 . S
C1164 C1166 1.391 . S
C1165 C1164 1.386 . S
C1165 C1169 1.393 . S
C1166 H1158 0.950 . S
C1166 C1164 1.391 . S
C1166 C1167 1.400 . S
C1167 C1166 1.400 . S
C1167 C1168 1.398 . S
C1167 C1173 1.491 . S
C1168 H1159 0.950 . S
C1168 C1167 1.398 . S
C1168 C1169 1.391 . S
C1169 H1157 0.950 . S
C1169 C1165 1.393 . S
C1169 C1168 1.391 . S
C1170 H1160 0.950 . S
C1170 C1171 1.386 . S
C1170 C1172 1.391 . S
C1171 C1170 1.386 . S
C1171 C1175 1.393 . S
C1172 H1161 0.950 . S
C1172 C1170 1.391 . S
C1172 C1173 1.400 . S
C1173 C1167 1.491 . S
C1173 C1172 1.400 . S
C1173 C1174 1.398 . S
C1174 H1162 0.950 . S
C1174 C1173 1.398 . S
C1174 C1175 1.391 . S
C1175 H1163 0.950 . S
C1175 C1171 1.393 . S
C1175 C1174 1.391 . S
H1176 C1184 0.950 . S
H1177 C1189 0.950 . S
H1178 C1186 0.950 . S
H1179 C1188 0.950 . S
H1180 C1190 0.950 . S
H1181 C1192 0.950 . S
H1182 C1194 0.950 . S
H1183 C1195 0.950 . S
C1184 H1176 0.950 . S
C1184 C1185 1.386 . S
C1184 C1186 1.391 . S
C1185 C1184 1.386 . S
C1185 C1189 1.393 . S
C1186 H1178 0.950 . S
C1186 C1184 1.391 . S
C1186 C1187 1.400 . S
C1187 C1186 1.400 . S
C1187 C1188 1.398 . S
C1187 C1193 1.491 . S
C1188 H1179 0.950 . S
C1188 C1187 1.398 . S
C1188 C1189 1.391 . S
C1189 H1177 0.950 . S
C1189 C1185 1.393 . S
C1189 C1188 1.391 . S
C1190 H1180 0.950 . S
C1190 C1191 1.386 . S
C1190 C1192 1.391 . S
C1191 C1190 1.386 . S
C1191 C1195 1.393 . S
C1192 H1181 0.950 . S
C1192 C1190 1.391 . S
C1192 C1193 1.400 . S
C1193 C1187 1.491 . S
C1193 C1192 1.400 . S
C1193 C1194 1.398 . S
C1194 H1182 0.950 . S
C1194 C1193 1.398 . S
C1194 C1195 1.391 . S
C1195 H1183 0.950 . S
C1195 C1191 1.393 . S
C1195 C1194 1.391 . S
H1196 C1204 0.950 . S
H1197 C1209 0.950 . S
H1198 C1206 0.950 . S
H1199 C1208 0.950 . S
H1200 C1210 0.950 . S
H1201 C1212 0.950 . S
H1202 C1214 0.950 . S
H1203 C1215 0.950 . S
C1204 H1196 0.950 . S
C1204 C1205 1.386 . S
C1204 C1206 1.391 . S
C1205 C1204 1.386 . S
C1205 C1209 1.393 . S
C1206 H1198 0.950 . S
C1206 C1204 1.391 . S
C1206 C1207 1.400 . S
C1207 C1206 1.400 . S
C1207 C1208 1.398 . S
C1207 C1213 1.491 . S
C1208 H1199 0.950 . S
C1208 C1207 1.398 . S
C1208 C1209 1.391 . S
C1209 H1197 0.950 . S
C1209 C1205 1.393 . S
C1209 C1208 1.391 . S
C1210 H1200 0.950 . S
C1210 C1211 1.386 . S
C1210 C1212 1.391 . S
C1211 C1210 1.386 . S
C1211 C1215 1.393 . S
C1212 H1201 0.950 . S
C1212 C1210 1.391 . S
C1212 C1213 1.400 . S
C1213 C1207 1.491 . S
C1213 C1212 1.400 . S
C1213 C1214 1.398 . S
C1214 H1202 0.950 . S
C1214 C1213 1.398 . S
C1214 C1215 1.391 . S
C1215 H1203 0.950 . S
C1215 C1211 1.393 . S
C1215 C1214 1.391 . S
H1216 C1224 0.950 . S
H1217 C1229 0.950 . S
H1218 C1226 0.950 . S
H1219 C1228 0.950 . S
H1220 C1230 0.950 . S
H1221 C1232 0.950 . S
H1222 C1234 0.950 . S
H1223 C1235 0.950 . S
C1224 H1216 0.950 . S
C1224 C1225 1.386 . S
C1224 C1226 1.391 . S
C1225 C1224 1.386 . S
C1225 C1229 1.393 . S
C1226 H1218 0.950 . S
C1226 C1224 1.391 . S
C1226 C1227 1.400 . S
C1227 C1226 1.400 . S
C1227 C1228 1.398 . S
C1227 C1233 1.491 . S
C1228 H1219 0.950 . S
C1228 C1227 1.398 . S
C1228 C1229 1.391 . S
C1229 H1217 0.950 . S
C1229 C1225 1.393 . S
C1229 C1228 1.391 . S
C1230 H1220 0.950 . S
C1230 C1231 1.386 . S
C1230 C1232 1.391 . S
C1231 C1230 1.386 . S
C1231 C1235 1.393 . S
C1232 H1221 0.950 . S
C1232 C1230 1.391 . S
C1232 C1233 1.400 . S
C1233 C1227 1.491 . S
C1233 C1232 1.400 . S
C1233 C1234 1.398 . S
C1234 H1222 0.950 . S
C1234 C1233 1.398 . S
C1234 C1235 1.391 . S
C1235 H1223 0.950 . S
C1235 C1231 1.393 . S
C1235 C1234 1.391 . S
H1236 C1244 0.950 . S
H1237 C1249 0.950 . S
H1238 C1246 0.950 . S
H1239 C1248 0.950 . S
H1240 C1250 0.950 . S
H1241 C1252 0.950 . S
H1242 C1254 0.950 . S
H1243 C1255 0.950 . S
C1244 H1236 0.950 . S
C1244 C1245 1.386 . S
C1244 C1246 1.391 . S
C1245 C1244 1.386 . S
C1245 C1249 1.393 . S
C1246 H1238 0.950 . S
C1246 C1244 1.391 . S
C1246 C1247 1.400 . S
C1247 C1246 1.400 . S
C1247 C1248 1.398 . S
C1247 C1253 1.491 . S
C1248 H1239 0.950 . S
C1248 C1247 1.398 . S
C1248 C1249 1.391 . S
C1249 H1237 0.950 . S
C1249 C1245 1.393 . S
C1249 C1248 1.391 . S
C1250 H1240 0.950 . S
C1250 C1251 1.386 . S
C1250 C1252 1.391 . S
C1251 C1250 1.386 . S
C1251 C1255 1.393 . S
C1252 H1241 0.950 . S
C1252 C1250 1.391 . S
C1252 C1253 1.400 . S
C1253 C1247 1.491 . S
C1253 C1252 1.400 . S
C1253 C1254 1.398 . S
C1254 H1242 0.950 . S
C1254 C1253 1.398 . S
C1254 C1255 1.391 . S
C1255 H1243 0.950 . S
C1255 C1251 1.393 . S
C1255 C1254 1.391 . S
H1256 C1264 0.950 . S
H1257 C1269 0.950 . S
H1258 C1266 0.950 . S
H1259 C1268 0.950 . S
H1260 C1270 0.950 . S
H1261 C1272 0.950 . S
H1262 C1274 0.950 . S
H1263 C1275 0.950 . S
C1264 H1256 0.950 . S
C1264 C1265 1.386 . S
C1264 C1266 1.391 . S
C1265 C1264 1.386 . S
C1265 C1269 1.393 . S
C1266 H1258 0.950 . S
C1266 C1264 1.391 . S
C1266 C1267 1.400 . S
C1267 C1266 1.400 . S
C1267 C1268 1.398 . S
C1267 C1273 1.491 . S
C1268 H1259 0.950 . S
C1268 C1267 1.398 . S
C1268 C1269 1.391 . S
C1269 H1257 0.950 . S
C1269 C1265 1.393 . S
C1269 C1268 1.391 . S
C1270 H1260 0.950 . S
C1270 C1271 1.386 . S
C1270 C1272 1.391 . S
C1271 C1270 1.386 . S
C1271 C1275 1.393 . S
C1272 H1261 0.950 . S
C1272 C1270 1.391 . S
C1272 C1273 1.400 . S
C1273 C1267 1.491 . S
C1273 C1272 1.400 . S
C1273 C1274 1.398 . S
C1274 H1262 0.950 . S
C1274 C1273 1.398 . S
C1274 C1275 1.391 . S
C1275 H1263 0.950 . S
C1275 C1271 1.393 . S
C1275 C1274 1.391 . S
H1276 C1284 0.950 . S
H1277 C1289 0.950 . S
H1278 C1286 0.950 . S
H1279 C1288 0.950 . S
H1280 C1290 0.950 . S
H1281 C1292 0.950 . S
H1282 C1294 0.950 . S
H1283 C1295 0.950 . S
C1284 H1276 0.950 . S
C1284 C1285 1.386 . S
C1284 C1286 1.391 . S
C1285 C1284 1.386 . S
C1285 C1289 1.393 . S
C1286 H1278 0.950 . S
C1286 C1284 1.391 . S
C1286 C1287 1.400 . S
C1287 C1286 1.400 . S
C1287 C1288 1.398 . S
C1287 C1293 1.491 . S
C1288 H1279 0.950 . S
C1288 C1287 1.398 . S
C1288 C1289 1.391 . S
C1289 H1277 0.950 . S
C1289 C1285 1.393 . S
C1289 C1288 1.391 . S
C1290 H1280 0.950 . S
C1290 C1291 1.386 . S
C1290 C1292 1.391 . S
C1291 C1290 1.386 . S
C1291 C1295 1.393 . S
C1292 H1281 0.950 . S
C1292 C1290 1.391 . S
C1292 C1293 1.400 . S
C1293 C1287 1.491 . S
C1293 C1292 1.400 . S
C1293 C1294 1.398 . S
C1294 H1282 0.950 . S
C1294 C1293 1.398 . S
C1294 C1295 1.391 . S
C1295 H1283 0.950 . S
C1295 C1291 1.393 . S
C1295 C1294 1.391 . S
C671 C407 1.299 . S
C665 C8 1.281 . S
C691 C444 1.283 . S
C685 C61 1.268 . S
C711 C480 1.313 . S
C705 C107 1.293 . S
C725 C139 1.295 . S
C731 C371 1.317 . S
C745 C192 1.304 . S
C751 C372 1.296 . S
C765 C238 1.275 . S
C771 C408 1.294 . S
C791 C443 1.308 . S
C785 C284 1.293 . S
C811 C479 1.322 . S
C805 C330 1.279 . S
C825 C100 1.289 . S
C831 C551 1.311 . S
C851 C588 1.279 . S
C845 C160 1.281 . S
C865 C15 1.307 . S
C871 C624 1.308 . S
C891 C515 1.327 . S
C885 C54 1.300 . S
C905 C291 1.298 . S
C911 C516 1.311 . S
C925 C337 1.289 . S
C931 C552 1.292 . S
C951 C587 1.307 . S
C945 C199 1.284 . S
C965 C245 1.279 . S
C971 C623 1.317 . S
C991 C442 1.642 . S
C985 C1 1.644 . S
C1011 C478 1.626 . S
C1005 C68 1.618 . S
C1025 C114 1.575 . S
C1031 C382 1.454 . S
C1045 C146 1.605 . S
C1051 C418 1.492 . S
C1065 C185 1.593 . S
C1071 C490 1.472 . S
C1091 C370 1.640 . S
C1085 C231 1.636 . S
C1111 C406 1.650 . S
C1105 C277 1.652 . S
C1131 C454 1.483 . S
C1125 C323 1.617 . S
C1151 C586 1.660 . S
C1145 C93 1.659 . S
C1171 C622 1.636 . S
C1165 C153 1.627 . S
C1185 C22 1.582 . S
C1191 C526 1.460 . S
C1211 C562 1.461 . S
C1205 C47 1.610 . S
C1231 C634 1.441 . S
C1225 C298 1.581 . S
C1245 C344 1.630 . S
C1251 C514 1.637 . S
C1271 C550 1.648 . S
C1265 C206 1.643 . S
C1291 C598 1.476 . S
C1285 C252 1.592 . S
