# Generated by pormake.
# Topology eea, (3,6)-cn, num edge types: 1
# Building blocks:
#     Node 0, Type 0, BuildingBlock: BETDIP_clean_linker_0, # of connection points: 3
#     Node 1, Type 0, BuildingBlock: BETDIP_clean_linker_0, # of connection points: 3
#     Node 2, Type 0, BuildingBlock: BETDIP_clean_linker_0, # of connection points: 3
#     Node 3, Type 0, BuildingBlock: BETDIP_clean_linker_0, # of connection points: 3
#     Node 4, Type 0, BuildingBlock: BETDIP_clean_linker_0, # of connection points: 3
#     Node 5, Type 0, BuildingBlock: BETDIP_clean_linker_0, # of connection points: 3
#     Node 6, Type 0, BuildingBlock: BETDIP_clean_linker_0, # of connection points: 3
#     Node 7, Type 0, BuildingBlock: BETDIP_clean_linker_0, # of connection points: 3
#     Node 8, Type 0, BuildingBlock: BETDIP_clean_linker_0, # of connection points: 3
#     Node 9, Type 0, BuildingBlock: BETDIP_clean_linker_0, # of connection points: 3
#     Node 10, Type 0, BuildingBlock: BETDIP_clean_linker_0, # of connection points: 3
#     Node 11, Type 0, BuildingBlock: BETDIP_clean_linker_0, # of connection points: 3
#     Node 12, Type 0, BuildingBlock: BETDIP_clean_linker_0, # of connection points: 3
#     Node 13, Type 0, BuildingBlock: BETDIP_clean_linker_0, # of connection points: 3
#     Node 14, Type 0, BuildingBlock: BETDIP_clean_linker_0, # of connection points: 3
#     Node 15, Type 0, BuildingBlock: BETDIP_clean_linker_0, # of connection points: 3
#     Node 16, Type 0, BuildingBlock: BETDIP_clean_linker_0, # of connection points: 3
#     Node 17, Type 0, BuildingBlock: BETDIP_clean_linker_0, # of connection points: 3
#     Node 18, Type 1, BuildingBlock: KUMJIN_clean_sbu_0, # of connection points: 6
#     Node 19, Type 1, BuildingBlock: KUMJIN_clean_sbu_0, # of connection points: 6
#     Node 20, Type 1, BuildingBlock: KUMJIN_clean_sbu_0, # of connection points: 6
#     Node 21, Type 1, BuildingBlock: KUMJIN_clean_sbu_0, # of connection points: 6
#     Node 22, Type 1, BuildingBlock: KUMJIN_clean_sbu_0, # of connection points: 6
#     Node 23, Type 1, BuildingBlock: KUMJIN_clean_sbu_0, # of connection points: 6
#     Node 24, Type 1, BuildingBlock: KUMJIN_clean_sbu_0, # of connection points: 6
#     Node 25, Type 1, BuildingBlock: KUMJIN_clean_sbu_0, # of connection points: 6
#     Node 26, Type 1, BuildingBlock: KUMJIN_clean_sbu_0, # of connection points: 6
#     Edge 27, Type (0, 1), BuildingBlock: ZUJKAS_clean_linker_0, # of connection points: 2
#     Edge 28, Type (0, 1), BuildingBlock: ZUJKAS_clean_linker_0, # of connection points: 2
#     Edge 29, Type (0, 1), BuildingBlock: ZUJKAS_clean_linker_0, # of connection points: 2
#     Edge 30, Type (0, 1), BuildingBlock: ZUJKAS_clean_linker_0, # of connection points: 2
#     Edge 31, Type (0, 1), BuildingBlock: ZUJKAS_clean_linker_0, # of connection points: 2
#     Edge 32, Type (0, 1), BuildingBlock: ZUJKAS_clean_linker_0, # of connection points: 2
#     Edge 33, Type (0, 1), BuildingBlock: ZUJKAS_clean_linker_0, # of connection points: 2
#     Edge 34, Type (0, 1), BuildingBlock: ZUJKAS_clean_linker_0, # of connection points: 2
#     Edge 35, Type (0, 1), BuildingBlock: ZUJKAS_clean_linker_0, # of connection points: 2
#     Edge 36, Type (0, 1), BuildingBlock: ZUJKAS_clean_linker_0, # of connection points: 2
#     Edge 37, Type (0, 1), BuildingBlock: ZUJKAS_clean_linker_0, # of connection points: 2
#     Edge 38, Type (0, 1), BuildingBlock: ZUJKAS_clean_linker_0, # of connection points: 2
#     Edge 39, Type (0, 1), BuildingBlock: ZUJKAS_clean_linker_0, # of connection points: 2
#     Edge 40, Type (0, 1), BuildingBlock: ZUJKAS_clean_linker_0, # of connection points: 2
#     Edge 41, Type (0, 1), BuildingBlock: ZUJKAS_clean_linker_0, # of connection points: 2
#     Edge 42, Type (0, 1), BuildingBlock: ZUJKAS_clean_linker_0, # of connection points: 2
#     Edge 43, Type (0, 1), BuildingBlock: ZUJKAS_clean_linker_0, # of connection points: 2
#     Edge 44, Type (0, 1), BuildingBlock: ZUJKAS_clean_linker_0, # of connection points: 2
#     Edge 45, Type (0, 1), BuildingBlock: ZUJKAS_clean_linker_0, # of connection points: 2
#     Edge 46, Type (0, 1), BuildingBlock: ZUJKAS_clean_linker_0, # of connection points: 2
#     Edge 47, Type (0, 1), BuildingBlock: ZUJKAS_clean_linker_0, # of connection points: 2
#     Edge 48, Type (0, 1), BuildingBlock: ZUJKAS_clean_linker_0, # of connection points: 2
#     Edge 49, Type (0, 1), BuildingBlock: ZUJKAS_clean_linker_0, # of connection points: 2
#     Edge 50, Type (0, 1), BuildingBlock: ZUJKAS_clean_linker_0, # of connection points: 2
#     Edge 51, Type (0, 1), BuildingBlock: ZUJKAS_clean_linker_0, # of connection points: 2
#     Edge 52, Type (0, 1), BuildingBlock: ZUJKAS_clean_linker_0, # of connection points: 2
#     Edge 53, Type (0, 1), BuildingBlock: ZUJKAS_clean_linker_0, # of connection points: 2
#     Edge 54, Type (0, 1), BuildingBlock: ZUJKAS_clean_linker_0, # of connection points: 2
#     Edge 55, Type (0, 1), BuildingBlock: ZUJKAS_clean_linker_0, # of connection points: 2
#     Edge 56, Type (0, 1), BuildingBlock: ZUJKAS_clean_linker_0, # of connection points: 2
#     Edge 57, Type (0, 1), BuildingBlock: ZUJKAS_clean_linker_0, # of connection points: 2
#     Edge 58, Type (0, 1), BuildingBlock: ZUJKAS_clean_linker_0, # of connection points: 2
#     Edge 59, Type (0, 1), BuildingBlock: ZUJKAS_clean_linker_0, # of connection points: 2
#     Edge 60, Type (0, 1), BuildingBlock: ZUJKAS_clean_linker_0, # of connection points: 2
#     Edge 61, Type (0, 1), BuildingBlock: ZUJKAS_clean_linker_0, # of connection points: 2
#     Edge 62, Type (0, 1), BuildingBlock: ZUJKAS_clean_linker_0, # of connection points: 2
#     Edge 63, Type (0, 1), BuildingBlock: ZUJKAS_clean_linker_0, # of connection points: 2
#     Edge 64, Type (0, 1), BuildingBlock: ZUJKAS_clean_linker_0, # of connection points: 2
#     Edge 65, Type (0, 1), BuildingBlock: ZUJKAS_clean_linker_0, # of connection points: 2
#     Edge 66, Type (0, 1), BuildingBlock: ZUJKAS_clean_linker_0, # of connection points: 2
#     Edge 67, Type (0, 1), BuildingBlock: ZUJKAS_clean_linker_0, # of connection points: 2
#     Edge 68, Type (0, 1), BuildingBlock: ZUJKAS_clean_linker_0, # of connection points: 2
#     Edge 69, Type (0, 1), BuildingBlock: ZUJKAS_clean_linker_0, # of connection points: 2
#     Edge 70, Type (0, 1), BuildingBlock: ZUJKAS_clean_linker_0, # of connection points: 2
#     Edge 71, Type (0, 1), BuildingBlock: ZUJKAS_clean_linker_0, # of connection points: 2
#     Edge 72, Type (0, 1), BuildingBlock: ZUJKAS_clean_linker_0, # of connection points: 2
#     Edge 73, Type (0, 1), BuildingBlock: ZUJKAS_clean_linker_0, # of connection points: 2
#     Edge 74, Type (0, 1), BuildingBlock: ZUJKAS_clean_linker_0, # of connection points: 2
#     Edge 75, Type (0, 1), BuildingBlock: ZUJKAS_clean_linker_0, # of connection points: 2
#     Edge 76, Type (0, 1), BuildingBlock: ZUJKAS_clean_linker_0, # of connection points: 2
#     Edge 77, Type (0, 1), BuildingBlock: ZUJKAS_clean_linker_0, # of connection points: 2
#     Edge 78, Type (0, 1), BuildingBlock: ZUJKAS_clean_linker_0, # of connection points: 2
#     Edge 79, Type (0, 1), BuildingBlock: ZUJKAS_clean_linker_0, # of connection points: 2
#     Edge 80, Type (0, 1), BuildingBlock: ZUJKAS_clean_linker_0, # of connection points: 2
# Relax obj value: 0.025
# Max RMSD: 0.155
# Mean RMSD: 0.114
data_MOF--net-eea--node1-KUMJIN_clean_sbu_0--node2-BETDIP_clean_linker_0--edge1-ZUJKAS_clean_linker_0
_symmetry_space_group_name_H-M    P1
_symmetry_Int_Tables_number       1
_symmetry_cell_setting            triclinic
loop_
_symmetry_equiv_pos_as_xyz
'x, y, z'
_cell_length_a     71.246659
_cell_length_b     72.888138
_cell_length_c     82.972476
_cell_angle_alpha  90.173003
_cell_angle_beta   90.104832
_cell_angle_gamma 120.01725
loop_
_atom_site_label
_atom_site_type_symbol
_atom_site_fract_x
_atom_site_fract_y
_atom_site_fract_z
_atom_type_partial_charge
H0 H 0.22617 0.10383 0.38989 0.0
H1 H 0.24894 0.14449 0.43161 0.0
H2 H 0.25447 0.08861 0.4299 0.0
H3 H 0.25457 0.16927 0.41298 0.0
C4 C 0.2402 0.16134 0.40541 0.0
C5 C 0.23355 0.10741 0.40176 0.0
C6 C 0.24006 0.09398 0.40885 0.0
C7 C 0.23716 0.12592 0.40967 0.0
C8 C 0.24662 0.1306 0.42514 0.0
C9 C 0.25318 0.11734 0.43236 0.0
C10 C 0.2499 0.09914 0.42414 0.0
N11 N 0.23095 0.1394 0.40185 0.0
H12 H 0.92315 0.11608 0.39244 0.0
H13 H 0.88101 0.09551 0.43365 0.0
H14 H 0.93379 0.1595 0.4314 0.0
H15 H 0.87843 0.06391 0.42701 0.0
C16 C 0.87625 0.06385 0.41404 0.0
C17 C 0.91874 0.11942 0.40413 0.0
C18 C 0.93057 0.1399 0.41084 0.0
C19 C 0.90111 0.10316 0.41241 0.0
C20 C 0.89513 0.1076 0.42745 0.0
C21 C 0.90677 0.12791 0.43434 0.0
C22 C 0.92444 0.14393 0.42595 0.0
N23 N 0.88913 0.08273 0.40513 0.0
H24 H 0.90012 0.8083 0.39279 0.0
H25 H 0.92183 0.78789 0.43391 0.0
H26 H 0.86078 0.78619 0.43554 0.0
H27 H 0.9548 0.81872 0.42468 0.0
C28 C 0.95354 0.81321 0.41232 0.0
C29 C 0.89749 0.80211 0.40494 0.0
C30 C 0.8785 0.79785 0.41331 0.0
C31 C 0.91357 0.79927 0.41248 0.0
C32 C 0.90994 0.79088 0.42818 0.0
C33 C 0.89096 0.78622 0.43654 0.0
C34 C 0.87556 0.79006 0.42914 0.0
N35 N 0.93323 0.80482 0.40417 0.0
H36 H 0.09776 0.20533 0.63881 0.0
H37 H 0.13965 0.22412 0.59754 0.0
H38 H 0.08245 0.22972 0.59661 0.0
H39 H 0.16498 0.2363 0.61919 0.0
C40 C 0.15788 0.22128 0.62555 0.0
C41 C 0.10145 0.21143 0.62664 0.0
C42 C 0.08766 0.21716 0.61861 0.0
C43 C 0.12063 0.21459 0.61931 0.0
C44 C 0.12542 0.22255 0.6035 0.0
C45 C 0.11172 0.22798 0.59515 0.0
C46 C 0.09296 0.22531 0.60287 0.0
N47 N 0.13499 0.20975 0.62791 0.0
H48 H 0.80594 0.8934 0.63403 0.0
H49 H 0.78264 0.91325 0.59387 0.0
H50 H 0.77767 0.85203 0.59307 0.0
H51 H 0.77195 0.92701 0.61466 0.0
C52 C 0.78682 0.93437 0.62173 0.0
C53 C 0.79834 0.89009 0.62224 0.0
C54 C 0.79289 0.87106 0.61418 0.0
C55 C 0.79381 0.9049 0.61526 0.0
C56 C 0.7848 0.90117 0.5997 0.0
C57 C 0.77897 0.88217 0.59149 0.0
C58 C 0.78289 0.86712 0.59894 0.0
N59 N 0.79849 0.92348 0.62405 0.0
H60 H 0.11381 0.90707 0.63396 0.0
H61 H 0.09712 0.8645 0.59361 0.0
H62 H 0.15723 0.9235 0.59366 0.0
H63 H 0.081 0.83997 0.61368 0.0
C64 C 0.0733 0.84696 0.62073 0.0
C65 C 0.11787 0.90334 0.62229 0.0
C66 C 0.13722 0.91798 0.61458 0.0
C67 C 0.10365 0.88376 0.61506 0.0
C68 C 0.10848 0.87909 0.59965 0.0
C69 C 0.12765 0.89352 0.59172 0.0
C70 C 0.14198 0.91274 0.5994 0.0
N71 N 0.08441 0.86926 0.62337 0.0
H72 H 0.88322 0.43304 0.72704 0.0
H73 H 0.91116 0.47544 0.76734 0.0
H74 H 0.9117 0.41683 0.76631 0.0
H75 H 0.918 0.50009 0.74822 0.0
C76 C 0.90332 0.49269 0.74096 0.0
C77 C 0.89157 0.43681 0.73855 0.0
C78 C 0.89642 0.42233 0.74591 0.0
C79 C 0.89745 0.45626 0.74592 0.0
C80 C 0.90761 0.46098 0.76113 0.0
C81 C 0.9126 0.44671 0.76867 0.0
C82 C 0.90715 0.42755 0.76087 0.0
N83 N 0.89247 0.47052 0.73793 0.0
H84 H 0.58548 0.45459 0.72108 0.0
H85 H 0.54633 0.43265 0.76383 0.0
H86 H 0.60163 0.49528 0.76277 0.0
H87 H 0.51983 0.41703 0.74424 0.0
C88 C 0.52716 0.41021 0.73659 0.0
C89 C 0.5823 0.45732 0.73336 0.0
C90 C 0.59586 0.47697 0.74091 0.0
C91 C 0.564 0.44149 0.74134 0.0
C92 C 0.56 0.44495 0.75735 0.0
C93 C 0.57341 0.46438 0.76506 0.0
C94 C 0.59115 0.48034 0.75673 0.0
N95 N 0.54969 0.42232 0.73305 0.0
H96 H 0.56439 0.14048 0.72437 0.0
H97 H 0.58575 0.12045 0.76585 0.0
H98 H 0.52161 0.11194 0.76468 0.0
H99 H 0.61853 0.15096 0.75822 0.0
C100 C 0.61798 0.14673 0.74558 0.0
C101 C 0.56126 0.13357 0.7363 0.0
C102 C 0.54079 0.12614 0.74346 0.0
C103 C 0.57777 0.13205 0.74446 0.0
C104 C 0.57349 0.12258 0.75981 0.0
C105 C 0.55315 0.11497 0.76712 0.0
C106 C 0.53707 0.11708 0.75889 0.0
N107 N 0.59822 0.13928 0.73682 0.0
H108 H 0.76606 0.53576 0.97103 0.0
H109 H 0.80785 0.55829 0.92961 0.0
H110 H 0.74727 0.55762 0.92914 0.0
H111 H 0.83351 0.56891 0.94969 0.0
C112 C 0.82684 0.55433 0.95658 0.0
C113 C 0.76938 0.54222 0.95895 0.0
C114 C 0.75418 0.546 0.95094 0.0
C115 C 0.78894 0.5468 0.95142 0.0
C116 C 0.79303 0.55497 0.93564 0.0
C117 C 0.7782 0.55911 0.92757 0.0
C118 C 0.75881 0.55449 0.9353 0.0
N119 N 0.80414 0.54288 0.95976 0.0
H120 H 0.47505 0.22921 0.96566 0.0
H121 H 0.45283 0.24825 0.9243 0.0
H122 H 0.44061 0.18444 0.92752 0.0
H123 H 0.48241 0.28013 0.93036 0.0
C124 C 0.48083 0.28041 0.94337 0.0
C125 C 0.46697 0.22538 0.95404 0.0
C126 C 0.45813 0.20482 0.94762 0.0
C127 C 0.46555 0.24121 0.94558 0.0
C128 C 0.45448 0.23625 0.93075 0.0
C129 C 0.44534 0.21577 0.92419 0.0
C130 C 0.44741 0.2002 0.93263 0.0
N131 N 0.47475 0.2618 0.95248 0.0
H132 H 0.7819 0.24163 0.96974 0.0
H133 H 0.76158 0.20074 0.92818 0.0
H134 H 0.82501 0.25602 0.92946 0.0
H135 H 0.72835 0.19863 0.93581 0.0
C136 C 0.72904 0.19523 0.94847 0.0
C137 C 0.78528 0.23798 0.9578 0.0
C138 C 0.80563 0.25099 0.95068 0.0
C139 C 0.76911 0.2202 0.94957 0.0
C140 C 0.77361 0.215 0.93425 0.0
C141 C 0.79393 0.22762 0.92703 0.0
C142 C 0.80965 0.24573 0.93525 0.0
N143 N 0.74876 0.2073 0.95718 0.0
H144 H 0.55203 0.76792 0.05642 0.0
H145 H 0.57745 0.81016 0.09718 0.0
H146 H 0.58484 0.75527 0.09462 0.0
H147 H 0.58291 0.8343 0.07795 0.0
C148 C 0.56798 0.82636 0.07099 0.0
C149 C 0.56047 0.77221 0.0679 0.0
C150 C 0.5681 0.7595 0.0746 0.0
C151 C 0.56449 0.79093 0.07566 0.0
C152 C 0.57501 0.79619 0.09074 0.0
C153 C 0.5825 0.78347 0.09762 0.0
C154 C 0.57928 0.76531 0.08934 0.0
N155 N 0.55787 0.80421 0.06804 0.0
H156 H 0.25463 0.78737 0.05808 0.0
H157 H 0.21308 0.76658 0.09951 0.0
H158 H 0.26613 0.83048 0.09751 0.0
H159 H 0.21119 0.73534 0.09284 0.0
C160 C 0.20861 0.73511 0.07991 0.0
C161 C 0.25047 0.79069 0.06987 0.0
C162 C 0.2627 0.81105 0.07676 0.0
C163 C 0.23284 0.77445 0.07812 0.0
C164 C 0.22697 0.77884 0.09321 0.0
C165 C 0.23886 0.79901 0.10028 0.0
C166 C 0.25678 0.81495 0.09203 0.0
N167 N 0.22089 0.754 0.07087 0.0
H168 H 0.2334 0.47277 0.05773 0.0
H169 H 0.25343 0.45212 0.09969 0.0
H170 H 0.1895 0.44371 0.09737 0.0
H171 H 0.28625 0.47684 0.09216 0.0
C172 C 0.28603 0.47573 0.07911 0.0
C173 C 0.22998 0.46572 0.06962 0.0
C174 C 0.20936 0.45834 0.07651 0.0
C175 C 0.24619 0.46385 0.07793 0.0
C176 C 0.24144 0.45422 0.09326 0.0
C177 C 0.22111 0.44714 0.10044 0.0
C178 C 0.20525 0.44927 0.09195 0.0
N179 N 0.26681 0.47115 0.07047 0.0
H180 H 0.43191 0.8708 0.30443 0.0
H181 H 0.47446 0.8906 0.2635 0.0
H182 H 0.41748 0.89658 0.26264 0.0
H183 H 0.49946 0.90177 0.2853 0.0
C184 C 0.4921 0.8866 0.29147 0.0
C185 C 0.43583 0.87726 0.29237 0.0
C186 C 0.42227 0.88335 0.28444 0.0
C187 C 0.45508 0.88049 0.2851 0.0
C188 C 0.46017 0.88893 0.26943 0.0
C189 C 0.44666 0.89469 0.26117 0.0
C190 C 0.42784 0.89192 0.26884 0.0
N191 N 0.46918 0.87523 0.29362 0.0
H192 H 0.13059 0.55557 0.30566 0.0
H193 H 0.11059 0.57813 0.2651 0.0
H194 H 0.10975 0.51894 0.26174 0.0
H195 H 0.09783 0.59002 0.28618 0.0
C196 C 0.11251 0.59731 0.29347 0.0
C197 C 0.12482 0.55349 0.29332 0.0
C198 C 0.12082 0.53539 0.28449 0.0
C199 C 0.12052 0.56858 0.28658 0.0
C200 C 0.11297 0.566 0.27062 0.0
C201 C 0.10895 0.54809 0.26157 0.0
C202 C 0.11293 0.53287 0.26861 0.0
N203 N 0.1241 0.58638 0.29599 0.0
H204 H 0.44837 0.57091 0.30248 0.0
H205 H 0.43094 0.52899 0.2615 0.0
H206 H 0.49373 0.58504 0.26385 0.0
H207 H 0.41338 0.5045 0.28133 0.0
C208 C 0.40582 0.5118 0.28816 0.0
C209 C 0.45238 0.56691 0.29088 0.0
C210 C 0.47286 0.58014 0.28407 0.0
C211 C 0.43742 0.548 0.28312 0.0
C212 C 0.4426 0.54311 0.26791 0.0
C213 C 0.46291 0.55635 0.2609 0.0
C214 C 0.47804 0.57466 0.26919 0.0
N215 N 0.41743 0.5341 0.29087 0.0
Eu216 Eu 0.48615 0.99415 0.99343 0.0
C217 C 0.53382 0.0651 0.04528 0.0
C218 C 0.57137 0.07385 0.04456 0.0
C219 C 0.56236 0.1008 0.05203 0.0
C220 C 0.54915 0.05922 0.04222 0.0
C221 C 0.5402 0.08583 0.05053 0.0
C222 C 0.57791 0.0948 0.0491 0.0
C223 C 0.50233 0.07482 0.05402 0.0
N224 N 0.51257 0.05013 0.04409 0.0
C225 C 0.49682 0.05442 0.04894 0.0
C226 C 0.52412 0.09068 0.05464 0.0
Eu227 Eu 0.50441 0.01622 0.03473 0.0
N228 N 0.54226 0.03881 0.03802 0.0
C229 C 0.55665 0.03167 0.03694 0.0
C230 C 0.58627 0.0668 0.04281 0.0
C231 C 0.57885 0.04557 0.03912 0.0
H232 H 0.47996 0.04219 0.0484 0.0
H233 H 0.59021 0.03989 0.03796 0.0
H234 H 0.59493 0.10632 0.05078 0.0
H235 H 0.48979 0.0783 0.05746 0.0
H236 H 0.5512 0.01532 0.0341 0.0
H237 H 0.39974 0.96832 0.99141 0.0
H238 H 0.60346 0.07748 0.04464 0.0
H239 H 0.51155 0.96948 0.97889 0.0
H240 H 0.43869 0.99367 0.99492 0.0
H241 H 0.50254 0.93394 0.96905 0.0
H242 H 0.56761 0.11686 0.05592 0.0
H243 H 0.38737 0.93106 0.98402 0.0
H244 H 0.39681 0.90319 0.97679 0.0
H245 H 0.52836 0.10644 0.05869 0.0
H246 H 0.42478 0.89378 0.97078 0.0
N247 N 0.44839 0.97091 0.99015 0.0
C248 C 0.43358 0.97748 0.99176 0.0
C249 C 0.40451 0.9421 0.98569 0.0
C250 C 0.41982 0.9357 0.98333 0.0
C251 C 0.41144 0.96314 0.98978 0.0
C252 C 0.44195 0.95073 0.98554 0.0
H253 H 0.46424 0.90522 0.96763 0.0
N254 N 0.47875 0.96072 0.98341 0.0
C255 C 0.48975 0.93693 0.97274 0.0
C256 C 0.45763 0.94544 0.98211 0.0
C257 C 0.49479 0.95703 0.97828 0.0
C258 C 0.46812 0.92075 0.97201 0.0
C259 C 0.45171 0.92498 0.97645 0.0
O260 O 0.50314 0.00377 0.97038 0.0
O261 O 0.51262 0.0186 0.0087 0.0
O262 O 0.50203 0.04067 0.01964 0.0
O263 O 0.47681 0.01899 1.00026 0.0
O264 O 0.52218 0.00585 0.99053 0.0
O265 O 0.4755 0.00784 0.97458 0.0
O266 O 0.48827 0.00831 0.05815 0.0
O267 O 0.47799 0.99174 0.01952 0.0
O268 O 0.48903 0.96964 0.00807 0.0
O269 O 0.51335 0.99106 0.02807 0.0
O270 O 0.46835 0.00436 0.03773 0.0
O271 O 0.51418 0.00169 0.05351 0.0
C272 C 0.52896 0.01956 0.00208 0.0
C273 C 0.48171 0.001 0.94783 0.0
C274 C 0.48333 0.00635 0.91863 0.0
C275 C 0.49081 0.01415 0.93433 0.0
C276 C 0.46676 0.9851 0.91676 0.0
C277 C 0.4651 0.97999 0.94561 0.0
C278 C 0.45772 0.9721 0.93016 0.0
C279 C 0.48765 0.03722 0.00821 0.0
C280 C 0.48981 0.00917 0.96414 0.0
C281 C 0.42967 0.90965 0.97497 0.0
C282 C 0.41375 0.91501 0.97839 0.0
C283 C 0.4616 0.99053 0.02627 0.0
C284 C 0.50974 0.00971 0.08033 0.0
C285 C 0.50234 0.99606 0.09369 0.0
C286 C 0.51095 0.0036 0.10922 0.0
C287 C 0.52693 0.02506 0.11109 0.0
C288 C 0.52572 0.03097 0.08253 0.0
C289 C 0.53423 0.03858 0.09783 0.0
C290 C 0.50313 0.97308 0.01973 0.0
C291 C 0.50074 0.00168 0.06418 0.0
H292 H 0.50348 0.03046 0.9361 0.0
H293 H 0.46092 0.97838 0.90491 0.0
H294 H 0.45788 0.96967 0.9558 0.0
H295 H 0.44499 0.95581 0.92855 0.0
H296 H 0.49013 0.97957 0.09194 0.0
H297 H 0.53363 0.0315 0.12286 0.0
H298 H 0.5316 0.04169 0.07245 0.0
H299 H 0.5465 0.05505 0.09943 0.0
Eu300 Eu 0.02311 0.49388 0.99472 0.0
C301 C 0.94567 0.46914 0.04188 0.0
C302 C 0.936 0.49652 0.03986 0.0
C303 C 0.9085 0.46056 0.04671 0.0
C304 C 0.95145 0.4899 0.03859 0.0
C305 C 0.92423 0.45432 0.04628 0.0
C306 C 0.91439 0.48164 0.04355 0.0
C307 C 0.93594 0.42888 0.05105 0.0
N308 N 0.96134 0.46376 0.04169 0.0
C309 C 0.95703 0.44421 0.04679 0.0
C310 C 0.9194 0.43387 0.05061 0.0
Eu311 Eu 0.99647 0.49036 0.03384 0.0
N312 N 0.97249 0.50392 0.03515 0.0
C313 C 0.97944 0.52503 0.03387 0.0
C314 C 0.94288 0.51804 0.03794 0.0
C315 C 0.96477 0.53238 0.03519 0.0
H316 H 0.96977 0.44029 0.04709 0.0
H317 H 0.97041 0.54913 0.03408 0.0
H318 H 0.90224 0.48639 0.04439 0.0
H319 H 0.93247 0.41324 0.05468 0.0
H320 H 0.99628 0.5363 0.03169 0.0
H321 H 0.04833 0.43444 0.99891 0.0
H322 H 0.93154 0.52378 0.03894 0.0
H323 H 0.05044 0.54272 0.97941 0.0
H324 H 0.02254 0.44759 0.99883 0.0
H325 H 0.08793 0.56888 0.97145 0.0
H326 H 0.89189 0.44936 0.04994 0.0
H327 H 0.08734 0.45919 0.99434 0.0
H328 H 0.11699 0.49601 0.98764 0.0
H329 H 0.90311 0.42201 0.05403 0.0
H330 H 0.12779 0.53262 0.98009 0.0
N331 N 0.04668 0.47969 0.99468 0.0
C332 C 0.03947 0.45862 0.99677 0.0
C333 C 0.07608 0.46509 0.99429 0.0
C334 C 0.08318 0.48644 0.99121 0.0
C335 C 0.05407 0.45106 0.99683 0.0
C336 C 0.06785 0.4933 0.99133 0.0
H337 H 0.11699 0.55982 0.97372 0.0
N338 N 0.05844 0.51943 0.98642 0.0
C339 C 0.08423 0.55348 0.97589 0.0
C340 C 0.07392 0.51382 0.98706 0.0
C341 C 0.06304 0.53865 0.98035 0.0
C342 C 0.1006 0.54833 0.97723 0.0
C343 C 0.09549 0.52817 0.98263 0.0
O344 O 0.01735 0.50061 0.97013 0.0
O345 O 0.99654 0.49559 0.00743 0.0
O346 O 0.97273 0.46348 0.01794 0.0
O347 O 0.99673 0.45996 1.00094 0.0
O348 O 0.01115 0.51693 0.98902 0.0
O349 O 0.01027 0.46894 0.97647 0.0
O350 O 1.003 0.48321 0.05803 0.0
O351 O 0.02339 0.48938 0.02115 0.0
O352 O 0.0464 0.52195 0.00991 0.0
O353 O 0.02249 0.52448 0.02779 0.0
O354 O 0.00881 0.4675 0.03916 0.0
O355 O 0.00847 0.51462 0.05267 0.0
C356 C 0.99608 0.51023 0.99971 0.0
C357 C 0.02184 0.48042 0.94989 0.0
C358 C 0.0213 0.47853 0.92051 0.0
C359 C 0.01203 0.47989 0.93511 0.0
C360 C 0.04074 0.47793 0.92097 0.0
C361 C 0.0412 0.47979 0.9501 0.0
C362 C 0.0506 0.4786 0.93569 0.0
C363 C 0.97726 0.45253 0.00748 0.0
C364 C 0.01162 0.48163 0.9649 0.0
C365 C 0.11107 0.52176 0.98328 0.0
C366 C 0.10493 0.50092 0.98758 0.0
C367 C 0.02424 0.4749 0.02874 0.0
C368 C 0.99815 0.50199 0.07919 0.0
C369 C 0.01043 0.50685 0.09339 0.0
C370 C 1.00111 0.50661 0.1084 0.0
C371 C 0.97926 0.50146 0.1089 0.0
C372 C 0.97645 0.49698 0.07994 0.0
C373 C 0.96708 0.49674 0.09473 0.0
C374 C 0.04174 0.53245 0.02073 0.0
C375 C 0.00815 0.50183 0.06378 0.0
H376 H 0.99724 0.48069 0.93503 0.0
H377 H 0.04813 0.47656 0.90998 0.0
H378 H 0.04897 0.48009 0.96135 0.0
H379 H 0.06549 0.47803 0.93594 0.0
H380 H 0.0273 0.51099 0.0927 0.0
H381 H 0.97147 0.50078 0.12025 0.0
H382 H 0.96676 0.49322 0.06915 0.0
H383 H 0.95027 0.49275 0.09523 0.0
Eu384 Eu 0.53205 0.51498 0.03335 0.0
C385 C 0.48336 0.54058 0.98332 0.0
C386 C 0.44559 0.51403 0.98667 0.0
C387 C 0.45533 0.54957 0.97815 0.0
C388 C 0.46777 0.52024 0.98746 0.0
C389 C 0.47731 0.5553 0.97814 0.0
C390 C 0.43949 0.52897 0.98243 0.0
C391 C 0.51484 0.57927 0.9715 0.0
N392 N 0.50437 0.54544 0.98319 0.0
C393 C 0.51996 0.56403 0.97663 0.0
C394 C 0.49346 0.57503 0.97251 0.0
Eu395 Eu 0.51217 0.51942 0.99284 0.0
N396 N 0.47425 0.50619 0.99134 0.0
C397 C 0.4593 0.48525 0.99332 0.0
C398 C 0.43022 0.49285 0.98969 0.0
C399 C 0.43711 0.47833 0.99277 0.0
H400 H 0.53651 0.56734 0.97587 0.0
H401 H 0.42536 0.46183 0.99481 0.0
H402 H 0.42254 0.52456 0.98195 0.0
H403 H 0.52735 0.59424 0.96676 0.0
H404 H 0.46435 0.47385 0.9958 0.0
H405 H 0.61806 0.57526 0.0321 0.0
H406 H 0.41303 0.48745 0.98928 0.0
H407 H 0.50898 0.46576 0.04796 0.0
H408 H 0.57878 0.56181 0.03104 0.0
H409 H 0.51966 0.43961 0.05619 0.0
H410 H 0.45037 0.56074 0.97439 0.0
H411 H 0.63182 0.55058 0.03684 0.0
H412 H 0.62381 0.51367 0.0432 0.0
H413 H 0.48949 0.58679 0.96843 0.0
H414 H 0.59704 0.47676 0.04987 0.0
N415 N 0.57015 0.52965 0.03485 0.0
C416 C 0.58445 0.55082 0.03323 0.0
C417 C 0.61451 0.54456 0.03645 0.0
C418 C 0.59977 0.52309 0.03905 0.0
C419 C 0.6068 0.55854 0.03381 0.0
C420 C 0.57739 0.51607 0.03832 0.0
H421 H 0.55821 0.44912 0.05506 0.0
N422 N 0.54108 0.48947 0.04201 0.0
C423 C 0.53183 0.45519 0.05217 0.0
C424 C 0.56238 0.49533 0.04204 0.0
C425 C 0.52585 0.47001 0.04757 0.0
C426 C 0.5536 0.4606 0.05147 0.0
C427 C 0.56924 0.48098 0.0466 0.0
O428 O 0.51724 0.50659 0.05724 0.0
O429 O 0.50522 0.51461 0.01922 0.0
O430 O 0.51848 0.54861 0.00673 0.0
O431 O 0.54037 0.54896 0.02806 0.0
O432 O 0.49609 0.49213 0.03708 0.0
O433 O 0.54297 0.53867 0.05252 0.0
O434 O 0.52829 0.52531 0.9695 0.0
O435 O 0.5389 0.52002 0.00714 0.0
O436 O 0.52783 0.48747 0.01819 0.0
O437 O 0.50249 0.48529 0.99932 0.0
O438 O 0.54827 0.54192 0.98894 0.0
O439 O 0.49921 0.49536 0.9738 0.0
C440 C 0.48904 0.49993 0.0263 0.0
C441 C 0.54008 0.52581 0.07901 0.0
C442 C 0.53987 0.52862 0.10833 0.0
C443 C 0.53031 0.52744 0.09321 0.0
C444 C 0.55923 0.5279 0.10902 0.0
C445 C 0.55933 0.52504 0.07995 0.0
C446 C 0.56881 0.52604 0.0949 0.0
C447 C 0.53173 0.55788 0.01907 0.0
C448 C 0.53019 0.52529 0.06333 0.0
C449 C 0.59145 0.48761 0.04658 0.0
C450 C 0.6067 0.50863 0.04279 0.0
C451 C 0.55522 0.53452 1.00009 0.0
C452 C 0.50565 0.50857 0.9472 0.0
C453 C 0.51308 0.50277 0.9335 0.0
C454 C 0.50633 0.50478 0.91793 0.0
C455 C 0.49203 0.51277 0.91641 0.0
C456 C 0.49114 0.51612 0.94537 0.0
C457 C 0.48443 0.51824 0.93004 0.0
C458 C 0.51316 0.47722 0.00684 0.0
C459 C 0.5137 0.50735 0.96325 0.0
H460 H 0.51553 0.52822 0.09246 0.0
H461 H 0.56683 0.52857 0.12049 0.0
H462 H 0.5671 0.52382 0.06916 0.0
H463 H 0.58367 0.52545 0.09555 0.0
H464 H 0.52398 0.49658 0.93506 0.0
H465 H 0.48689 0.51509 0.90468 0.0
H466 H 0.48511 0.52048 0.95574 0.0
H467 H 0.4734 0.52431 0.92872 0.0
Eu468 Eu 0.1527 0.32447 0.32625 0.0
C469 C 0.19787 0.39564 0.37865 0.0
C470 C 0.23586 0.40591 0.37842 0.0
C471 C 0.22518 0.43168 0.38579 0.0
C472 C 0.2139 0.39062 0.37585 0.0
C473 C 0.20328 0.4161 0.38396 0.0
C474 C 0.24144 0.42659 0.38305 0.0
C475 C 0.16499 0.40371 0.3866 0.0
N476 N 0.17688 0.38013 0.37701 0.0
C477 C 0.16044 0.38361 0.38144 0.0
C478 C 0.1865 0.42011 0.3877 0.0
Eu479 Eu 0.17043 0.34677 0.36756 0.0
N480 N 0.20794 0.37045 0.37151 0.0
C481 C 0.22302 0.36416 0.37057 0.0
C482 C 0.2515 0.39979 0.37673 0.0
C483 C 0.24501 0.37875 0.37298 0.0
H484 H 0.14379 0.37101 0.38054 0.0
H485 H 0.25693 0.37376 0.37192 0.0
H486 H 0.25825 0.43861 0.38491 0.0
H487 H 0.15191 0.40655 0.38974 0.0
H488 H 0.21825 0.34799 0.36764 0.0
H489 H 0.06736 0.30277 0.32331 0.0
H490 H 0.26853 0.41105 0.37865 0.0
H491 H 0.17602 0.29774 0.31221 0.0
H492 H 0.10637 0.3264 0.32761 0.0
H493 H 0.16539 0.26168 0.30249 0.0
H494 H 0.22968 0.44755 0.38973 0.0
H495 H 0.05335 0.26539 0.31555 0.0
H496 H 0.06094 0.23607 0.3089 0.0
H497 H 0.18998 0.43563 0.39179 0.0
H498 H 0.08759 0.22474 0.30353 0.0
N499 N 0.11467 0.30256 0.32301 0.0
C500 C 0.10064 0.31012 0.32441 0.0
C501 C 0.07055 0.27561 0.31771 0.0
C502 C 0.08503 0.26808 0.3158 0.0
C503 C 0.0784 0.29673 0.32198 0.0
C504 C 0.10732 0.2822 0.31841 0.0
H505 H 0.12658 0.23426 0.30088 0.0
N506 N 0.14363 0.29042 0.31661 0.0
C507 C 0.1531 0.26543 0.30609 0.0
C508 C 0.12228 0.27589 0.31521 0.0
C509 C 0.15906 0.2858 0.31156 0.0
C510 C 0.13118 0.24998 0.30526 0.0
C511 C 0.11543 0.25522 0.30954 0.0
O512 O 0.16901 0.33199 0.30288 0.0
O513 O 0.17908 0.34895 0.34155 0.0
O514 O 0.16873 0.37146 0.35232 0.0
O515 O 0.14397 0.34987 0.3327 0.0
O516 O 0.18866 0.33605 0.3234 0.0
O517 O 0.14395 0.3398 0.30745 0.0
O518 O 0.15358 0.33771 0.39069 0.0
O519 O 0.14439 0.32192 0.35225 0.0
O520 O 0.15637 0.30049 0.34113 0.0
O521 O 0.18045 0.32237 0.36108 0.0
O522 O 0.13421 0.33445 0.37011 0.0
O523 O 0.18091 0.33311 0.38655 0.0
C524 C 0.19541 0.34986 0.33489 0.0
C525 C 0.14805 0.33145 0.28064 0.0
C526 C 0.14835 0.33723 0.25158 0.0
C527 C 0.15717 0.3445 0.2671 0.0
C528 C 0.13045 0.31664 0.2499 0.0
C529 C 0.1302 0.31104 0.27862 0.0
C530 C 0.12149 0.30368 0.26333 0.0
C531 C 0.15472 0.36811 0.34064 0.0
C532 C 0.15714 0.33927 0.29682 0.0
C533 C 0.09319 0.24075 0.30775 0.0
C534 C 0.07801 0.2472 0.31081 0.0
C535 C 0.12778 0.32053 0.35872 0.0
C536 C 0.17498 0.3403 0.41326 0.0
C537 C 0.16732 0.32671 0.42665 0.0
C538 C 0.17519 0.33448 0.44229 0.0
C539 C 0.19067 0.35609 0.44423 0.0
C540 C 0.19047 0.36171 0.41555 0.0
C541 C 0.19823 0.36954 0.43095 0.0
C542 C 0.17059 0.30432 0.3528 0.0
C543 C 0.16673 0.33209 0.39697 0.0
H544 H 0.17085 0.36036 0.26868 0.0
H545 H 0.12351 0.31042 0.23814 0.0
H546 H 0.12296 0.3008 0.28885 0.0
H547 H 0.10775 0.28787 0.26187 0.0
H548 H 0.1555 0.31011 0.42485 0.0
H549 H 0.19676 0.36271 0.45608 0.0
H550 H 0.19654 0.37238 0.40545 0.0
H551 H 0.21011 0.38612 0.43261 0.0
Eu552 Eu 0.68861 0.82666 0.32519 0.0
C553 C 0.61167 0.80018 0.37274 0.0
C554 C 0.60146 0.82703 0.36941 0.0
C555 C 0.57427 0.79125 0.37694 0.0
C556 C 0.6172 0.82068 0.36885 0.0
C557 C 0.5903 0.78541 0.37737 0.0
C558 C 0.57985 0.81204 0.37296 0.0
C559 C 0.60291 0.76133 0.38469 0.0
N560 N 0.62766 0.79527 0.37344 0.0
C561 C 0.62389 0.77663 0.38015 0.0
C562 C 0.58595 0.76559 0.38301 0.0
Eu563 Eu 0.66261 0.82148 0.36488 0.0
N564 N 0.63829 0.83481 0.36569 0.0
C565 C 0.64501 0.85588 0.36424 0.0
C566 C 0.60808 0.84839 0.36694 0.0
C567 C 0.63001 0.86293 0.36462 0.0
H568 H 0.63702 0.77335 0.38146 0.0
H569 H 0.63537 0.87957 0.36303 0.0
H570 H 0.56748 0.81654 0.37321 0.0
H571 H 0.59986 0.74631 0.38951 0.0
H572 H 0.66188 0.86731 0.36236 0.0
H573 H 0.71327 0.76678 0.32619 0.0
H574 H 0.59649 0.8539 0.36723 0.0
H575 H 0.71577 0.87636 0.31156 0.0
H576 H 0.68799 0.78036 0.3286 0.0
H577 H 0.75295 0.90258 0.30297 0.0
H578 H 0.5577 0.78004 0.38025 0.0
H579 H 0.75177 0.79118 0.31972 0.0
H580 H 0.7812 0.828 0.31282 0.0
H581 H 0.56975 0.75379 0.38668 0.0
H582 H 0.79213 0.86504 0.30688 0.0
N583 N 0.71207 0.81245 0.32431 0.0
C584 C 0.70478 0.79131 0.32597 0.0
C585 C 0.7408 0.79735 0.321 0.0
C586 C 0.74802 0.81887 0.31866 0.0
C587 C 0.71907 0.7835 0.32458 0.0
C588 C 0.73304 0.82604 0.32035 0.0
H589 H 0.78168 0.89294 0.30301 0.0
N590 N 0.72378 0.85262 0.31704 0.0
C591 C 0.74929 0.88697 0.30684 0.0
C592 C 0.73909 0.84677 0.31665 0.0
C593 C 0.7283 0.87213 0.31168 0.0
C594 C 0.76548 0.88149 0.30694 0.0
C595 C 0.76039 0.86106 0.31158 0.0
O596 O 0.68358 0.83497 0.30089 0.0
O597 O 0.66147 0.82668 0.33847 0.0
O598 O 0.63965 0.7923 0.35057 0.0
O599 O 0.66199 0.79243 0.32977 0.0
O600 O 0.67607 0.84942 0.32085 0.0
O601 O 0.67605 0.80284 0.30612 0.0
O602 O 0.67104 0.81486 0.38863 0.0
O603 O 0.68959 0.82145 0.35144 0.0
O604 O 0.71209 0.85404 0.3408 0.0
O605 O 0.68837 0.85587 0.3592 0.0
O606 O 0.67595 0.79922 0.36932 0.0
O607 O 0.6732 0.84507 0.3842 0.0
C608 C 0.66068 0.84151 0.33129 0.0
C609 C 0.68806 0.8156 0.27987 0.0
C610 C 0.6872 0.81361 0.25053 0.0
C611 C 0.67805 0.81499 0.26517 0.0
C612 C 0.70671 0.81319 0.25079 0.0
C613 C 0.70747 0.81507 0.2799 0.0
C614 C 0.7168 0.81399 0.26542 0.0
C615 C 0.64389 0.78322 0.33837 0.0
C616 C 0.67774 0.81623 0.29502 0.0
C617 C 0.77566 0.85428 0.31069 0.0
C618 C 0.76944 0.83319 0.3141 0.0
C619 C 0.691 0.80696 0.35859 0.0
C620 C 0.66375 0.83094 0.41041 0.0
C621 C 0.67585 0.83585 0.42471 0.0
C622 C 0.66562 0.83298 0.4397 0.0
C623 C 0.6432 0.82525 0.44026 0.0
C624 C 0.64144 0.82365 0.41115 0.0
C625 C 0.63122 0.82078 0.42601 0.0
C626 C 0.70754 0.86416 0.35201 0.0
C627 C 0.6744 0.83265 0.39491 0.0
H628 H 0.66285 0.81505 0.26516 0.0
H629 H 0.7142 0.81232 0.23968 0.0
H630 H 0.71531 0.81524 0.29105 0.0
H631 H 0.73179 0.81361 0.26554 0.0
H632 H 0.69311 0.84149 0.4242 0.0
H633 H 0.63504 0.82297 0.4517 0.0
H634 H 0.63192 0.8201 0.40029 0.0
H635 H 0.61398 0.81503 0.42648 0.0
Eu636 Eu 0.19946 0.84903 0.3665 0.0
C637 C 0.14842 0.87389 0.31842 0.0
C638 C 0.11058 0.84768 0.32207 0.0
C639 C 0.1207 0.88355 0.31419 0.0
C640 C 0.13268 0.85356 0.32251 0.0
C641 C 0.14261 0.88901 0.31388 0.0
C642 C 0.10471 0.86292 0.31828 0.0
C643 C 0.1803 0.91319 0.30783 0.0
N644 N 0.16939 0.87857 0.31814 0.0
C645 C 0.18524 0.89761 0.31236 0.0
C646 C 0.15893 0.90897 0.30878 0.0
Eu647 Eu 0.17668 0.85186 0.32687 0.0
N648 N 0.1389 0.8392 0.32601 0.0
C649 C 0.12377 0.81832 0.32796 0.0
C650 C 0.09502 0.82653 0.325 0.0
C651 C 0.10165 0.81173 0.32769 0.0
H652 H 0.20181 0.90098 0.31174 0.0
H653 H 0.08974 0.79525 0.32967 0.0
H654 H 0.08783 0.85877 0.31808 0.0
H655 H 0.19298 0.92845 0.30365 0.0
H656 H 0.12866 0.80674 0.33016 0.0
H657 H 0.28596 0.90714 0.36245 0.0
H658 H 0.07788 0.82139 0.32482 0.0
H659 H 0.17574 0.80043 0.38235 0.0
H660 H 0.24689 0.89474 0.36213 0.0
H661 H 0.18564 0.77394 0.39108 0.0
H662 H 0.11592 0.89501 0.31089 0.0
H663 H 0.29887 0.88198 0.36805 0.0
H664 H 0.29002 0.84517 0.37563 0.0
H665 H 0.15513 0.92104 0.30522 0.0
H666 H 0.26273 0.80891 0.38348 0.0
N667 N 0.23746 0.86262 0.36711 0.0
C668 C 0.25217 0.88353 0.36465 0.0
C669 C 0.28163 0.87641 0.36794 0.0
C670 C 0.26654 0.85527 0.37134 0.0
C671 C 0.27441 0.89067 0.36482 0.0
C672 C 0.24428 0.84882 0.37098 0.0
H673 H 0.22382 0.78232 0.38953 0.0
N674 N 0.20787 0.82325 0.37564 0.0
C675 C 0.19799 0.78919 0.38663 0.0
C676 C 0.229 0.82848 0.37537 0.0
C677 C 0.19245 0.80422 0.38173 0.0
C678 C 0.21954 0.79396 0.38569 0.0
C679 C 0.23543 0.81392 0.38025 0.0
O680 O 0.18567 0.84305 0.39072 0.0
O681 O 0.17151 0.8477 0.35336 0.0
O682 O 0.18163 0.87975 0.34192 0.0
O683 O 0.20875 0.88289 0.35939 0.0
O684 O 0.16379 0.82644 0.37194 0.0
O685 O 0.21231 0.87413 0.38467 0.0
O686 O 0.19049 0.85765 0.30269 0.0
O687 O 0.20436 0.85269 0.34 0.0
O688 O 0.19357 0.8205 0.35185 0.0
O689 O 0.16704 0.81789 0.33388 0.0
O690 O 0.21251 0.87396 0.32145 0.0
O691 O 0.16299 0.82699 0.30851 0.0
C692 C 0.15589 0.83331 0.3611 0.0
C693 C 0.20986 0.86276 0.41163 0.0
C694 C 0.20961 0.86517 0.44099 0.0
C695 C 0.20011 0.86424 0.42589 0.0
C696 C 0.22897 0.86446 0.44157 0.0
C697 C 0.22913 0.86201 0.41247 0.0
C698 C 0.2386 0.86285 0.42739 0.0
C699 C 0.19747 0.89063 0.35234 0.0
C700 C 0.19963 0.86189 0.39604 0.0
C701 C 0.25748 0.81994 0.37994 0.0
C702 C 0.27302 0.84058 0.37548 0.0
C703 C 0.22016 0.86676 0.33223 0.0
C704 C 0.16613 0.83884 0.28163 0.0
C705 C 0.17437 0.835 0.26746 0.0
C706 C 0.16531 0.83495 0.25234 0.0
C707 C 0.14789 0.83889 0.25169 0.0
C708 C 0.14876 0.84269 0.28071 0.0
C709 C 0.13971 0.84272 0.26579 0.0
C710 C 0.17778 0.8098 0.34131 0.0
C711 C 0.17604 0.83907 0.29723 0.0
H712 H 0.18531 0.86498 0.42519 0.0
H713 H 0.23655 0.8649 0.45301 0.0
H714 H 0.23687 0.86085 0.40164 0.0
H715 H 0.25346 0.86224 0.42797 0.0
H716 H 0.18767 0.83183 0.26826 0.0
H717 H 0.14075 0.83929 0.24025 0.0
H718 H 0.1422 0.84569 0.29148 0.0
H719 H 0.12635 0.84579 0.26515 0.0
Eu720 Eu 0.82085 0.65921 0.66083 0.0
C721 C 0.86709 0.73126 0.71284 0.0
C722 C 0.90504 0.7414 0.71223 0.0
C723 C 0.89462 0.76727 0.71988 0.0
C724 C 0.88301 0.72617 0.70983 0.0
C725 C 0.87267 0.75174 0.71823 0.0
C726 C 0.91078 0.7621 0.7169 0.0
C727 C 0.83446 0.73945 0.72135 0.0
N728 N 0.84607 0.7158 0.71138 0.0
C729 C 0.82976 0.71934 0.71606 0.0
C730 C 0.85601 0.7558 0.72226 0.0
Eu731 Eu 0.8393 0.68236 0.70189 0.0
N732 N 0.8769 0.70597 0.7055 0.0
C733 C 0.89189 0.69957 0.70442 0.0
C734 C 0.92057 0.73518 0.71036 0.0
C735 C 0.91393 0.7141 0.70664 0.0
H736 H 0.81307 0.70678 0.71531 0.0
H737 H 0.92577 0.70902 0.70546 0.0
H738 H 0.92763 0.77407 0.71863 0.0
H739 H 0.82148 0.74231 0.72471 0.0
H740 H 0.887 0.68336 0.70151 0.0
H741 H 0.73467 0.63452 0.65953 0.0
H742 H 0.93765 0.74639 0.71215 0.0
H743 H 0.84518 0.63341 0.64654 0.0
H744 H 0.77384 0.65973 0.66183 0.0
H745 H 0.83538 0.59719 0.63779 0.0
H746 H 0.89924 0.78316 0.72387 0.0
H747 H 0.72154 0.59663 0.65398 0.0
H748 H 0.73029 0.56801 0.64756 0.0
H749 H 0.85962 0.77133 0.72644 0.0
H750 H 0.75771 0.55783 0.64162 0.0
N751 N 0.78295 0.63635 0.65798 0.0
C752 C 0.76841 0.64329 0.65932 0.0
C753 C 0.73879 0.60765 0.65494 0.0
C754 C 0.75383 0.60087 0.65266 0.0
C755 C 0.74614 0.62903 0.65804 0.0
C756 C 0.7761 0.61584 0.65415 0.0
H757 H 0.79694 0.56868 0.63767 0.0
N758 N 0.81269 0.62521 0.65166 0.0
C759 C 0.82288 0.60057 0.64153 0.0
C760 C 0.79147 0.61007 0.65093 0.0
C761 C 0.82837 0.62104 0.64644 0.0
C762 C 0.80116 0.58451 0.64152 0.0
C763 C 0.78509 0.58923 0.64599 0.0
O764 O 0.83831 0.66872 0.63799 0.0
O765 O 0.84741 0.68407 0.67581 0.0
O766 O 0.83697 0.70663 0.68655 0.0
O767 O 0.81213 0.68471 0.66702 0.0
O768 O 0.85675 0.67072 0.65779 0.0
O769 O 0.8097 0.67144 0.64119 0.0
O770 O 0.82231 0.67299 0.72495 0.0
O771 O 0.81295 0.6575 0.68688 0.0
O772 O 0.82448 0.63542 0.67593 0.0
O773 O 0.84902 0.65771 0.6955 0.0
O774 O 0.80324 0.67045 0.70479 0.0
O775 O 0.85012 0.66912 0.72096 0.0
C776 C 0.86363 0.6848 0.6691 0.0
C777 C 0.81748 0.66467 0.61483 0.0
C778 C 0.81961 0.67 0.58559 0.0
C779 C 0.82537 0.67819 0.60142 0.0
C780 C 0.80579 0.64799 0.58359 0.0
C781 C 0.80347 0.64293 0.61246 0.0
C782 C 0.7977 0.63466 0.59692 0.0
C783 C 0.82292 0.70308 0.67481 0.0
C784 C 0.82464 0.67325 0.63119 0.0
C785 C 0.76294 0.57399 0.64521 0.0
C786 C 0.74733 0.5798 0.64857 0.0
C787 C 0.79655 0.6564 0.69349 0.0
C788 C 0.84368 0.67608 0.74761 0.0
C789 C 0.83494 0.66282 0.76109 0.0
C790 C 0.8419 0.67087 0.77679 0.0
C791 C 0.85787 0.6923 0.77873 0.0
C792 C 0.85962 0.69736 0.74987 0.0
C793 C 0.86668 0.70539 0.76535 0.0
C794 C 0.83886 0.63944 0.68751 0.0
C795 C 0.83572 0.66777 0.73131 0.0
H796 H 0.8359 0.69503 0.60339 0.0
H797 H 0.80142 0.6409 0.5717 0.0
H798 H 0.79717 0.63232 0.6226 0.0
H799 H 0.78707 0.6178 0.59518 0.0
H800 H 0.82249 0.6464 0.75937 0.0
H801 H 0.86375 0.69889 0.79062 0.0
H802 H 0.86658 0.70776 0.73969 0.0
H803 H 0.87901 0.72183 0.76698 0.0
Eu804 Eu 0.35351 0.15891 0.66092 0.0
C805 C 0.27664 0.13681 0.70834 0.0
C806 C 0.26606 0.16322 0.7039 0.0
C807 C 0.23934 0.12798 0.71291 0.0
C808 C 0.28188 0.15699 0.70359 0.0
C809 C 0.25542 0.12221 0.71339 0.0
C810 C 0.24465 0.14846 0.70818 0.0
C811 C 0.26804 0.09801 0.72035 0.0
N812 N 0.2926 0.13185 0.70886 0.0
C813 C 0.28885 0.11307 0.7153 0.0
C814 C 0.25118 0.10249 0.71921 0.0
Eu815 Eu 0.32729 0.1579 0.69979 0.0
N816 N 0.30276 0.17093 0.69968 0.0
C817 C 0.30923 0.19176 0.69709 0.0
C818 C 0.27237 0.18429 0.70037 0.0
C819 C 0.29412 0.19868 0.69717 0.0
H820 H 0.30183 0.10951 0.71613 0.0
H821 H 0.29925 0.21509 0.6947 0.0
H822 H 0.23223 0.15289 0.70829 0.0
H823 H 0.26501 0.08297 0.7251 0.0
H824 H 0.32596 0.20304 0.69456 0.0
H825 H 0.37821 0.09936 0.66774 0.0
H826 H 0.26071 0.1897 0.70042 0.0
H827 H 0.38095 0.20695 0.6443 0.0
H828 H 0.35264 0.11275 0.66696 0.0
H829 H 0.41843 0.2325 0.63586 0.0
H830 H 0.22289 0.11692 0.7166 0.0
H831 H 0.41717 0.12359 0.66253 0.0
H832 H 0.44689 0.1599 0.65475 0.0
H833 H 0.23508 0.09083 0.72319 0.0
H834 H 0.45786 0.19615 0.64605 0.0
N835 N 0.37686 0.14451 0.66175 0.0
C836 C 0.36955 0.12356 0.66462 0.0
C837 C 0.406 0.1296 0.66216 0.0
C838 C 0.4132 0.15077 0.65835 0.0
C839 C 0.38402 0.11586 0.66507 0.0
C840 C 0.39799 0.15779 0.65807 0.0
H841 H 0.4473 0.22325 0.63871 0.0
N842 N 0.38881 0.18387 0.65218 0.0
C843 C 0.41466 0.2173 0.64077 0.0
C844 C 0.40416 0.17812 0.65315 0.0
C845 C 0.39349 0.20281 0.64551 0.0
C846 C 0.43092 0.21204 0.64244 0.0
C847 C 0.42571 0.19211 0.64845 0.0
O848 O 0.34778 0.16443 0.63598 0.0
O849 O 0.32697 0.16109 0.67315 0.0
O850 O 0.30344 0.12951 0.68518 0.0
O851 O 0.32704 0.12541 0.66806 0.0
O852 O 0.34104 0.1812 0.65394 0.0
O853 O 0.34048 0.13304 0.64345 0.0
O854 O 0.3349 0.15321 0.7244 0.0
O855 O 0.35409 0.15617 0.68753 0.0
O856 O 0.37683 0.18795 0.67527 0.0
O857 O 0.35282 0.19156 0.69231 0.0
O858 O 0.34004 0.13574 0.70647 0.0
O859 O 0.33908 0.18366 0.71737 0.0
C860 C 0.32607 0.17495 0.66469 0.0
C861 C 0.35184 0.14299 0.61659 0.0
C862 C 0.35132 0.14023 0.58728 0.0
C863 C 0.3424 0.14268 0.60168 0.0
C864 C 0.36996 0.13828 0.588 0.0
C865 C 0.37049 0.14109 0.61709 0.0
C866 C 0.3795 0.13879 0.60284 0.0
C867 C 0.30774 0.11823 0.67486 0.0
C868 C 0.34187 0.14514 0.63142 0.0
C869 C 0.44117 0.18556 0.64946 0.0
C870 C 0.43492 0.16492 0.6544 0.0
C871 C 0.35517 0.14232 0.69584 0.0
C872 C 0.32934 0.17296 0.74436 0.0
C873 C 0.3407 0.17615 0.75886 0.0
C874 C 0.33134 0.17676 0.77363 0.0
C875 C 0.31035 0.17406 0.77364 0.0
C876 C 0.30848 0.17039 0.7446 0.0
C877 C 0.29904 0.17091 0.75919 0.0
C878 C 0.37207 0.19914 0.68536 0.0
C879 C 0.3394 0.17204 0.72918 0.0
H880 H 0.32786 0.14392 0.60133 0.0
H881 H 0.37726 0.13655 0.57708 0.0
H882 H 0.37799 0.14124 0.62845 0.0
H883 H 0.39388 0.13733 0.6033 0.0
H884 H 0.35694 0.17842 0.75858 0.0
H885 H 0.30257 0.17415 0.78482 0.0
H886 H 0.2995 0.16801 0.73358 0.0
H887 H 0.28289 0.16882 0.75929 0.0
Eu888 Eu 0.86274 0.18146 0.70009 0.0
C889 C 0.81329 0.20515 0.64951 0.0
C890 C 0.77561 0.17772 0.65135 0.0
C891 C 0.78491 0.2132 0.64296 0.0
C892 C 0.79783 0.18457 0.65329 0.0
C893 C 0.80703 0.2196 0.64401 0.0
C894 C 0.76923 0.19227 0.64656 0.0
C895 C 0.84484 0.24484 0.63929 0.0
N896 N 0.83449 0.21064 0.6502 0.0
C897 C 0.85022 0.22987 0.64463 0.0
C898 C 0.82316 0.23978 0.63915 0.0
Eu899 Eu 0.84243 0.18466 0.65961 0.0
N900 N 0.80454 0.17082 0.65759 0.0
C901 C 0.78991 0.14974 0.65925 0.0
C902 C 0.76051 0.15627 0.65366 0.0
C903 C 0.76771 0.14221 0.65753 0.0
H904 H 0.867 0.23384 0.64475 0.0
H905 H 0.75618 0.12554 0.65913 0.0
H906 H 0.75222 0.18735 0.64518 0.0
H907 H 0.85739 0.26025 0.63525 0.0
H908 H 0.7952 0.13864 0.66216 0.0
H909 H 0.94907 0.2406 0.69816 0.0
H910 H 0.7433 0.15032 0.65213 0.0
H911 H 0.83899 0.1327 0.71571 0.0
H912 H 0.90989 0.22771 0.69706 0.0
H913 H 0.84907 0.10641 0.72469 0.0
H914 H 0.77977 0.22411 0.63888 0.0
H915 H 0.96226 0.21567 0.70385 0.0
H916 H 0.95364 0.17884 0.71118 0.0
H917 H 0.81901 0.25134 0.63488 0.0
H918 H 0.92643 0.14232 0.71848 0.0
N919 N 0.90076 0.19559 0.70169 0.0
C920 C 0.91532 0.21662 0.69963 0.0
C921 C 0.94499 0.2099 0.7034 0.0
C922 C 0.92999 0.18861 0.70644 0.0
C923 C 0.93761 0.22402 0.70023 0.0
C924 C 0.90769 0.18189 0.70561 0.0
H925 H 0.88743 0.11527 0.72383 0.0
N926 N 0.87122 0.15585 0.70952 0.0
C927 C 0.86142 0.12178 0.72043 0.0
C928 C 0.89243 0.16137 0.70967 0.0
C929 C 0.85577 0.13668 0.71539 0.0
C930 C 0.88308 0.12682 0.71988 0.0
C931 C 0.89896 0.14694 0.7147 0.0
O932 O 0.84724 0.17472 0.72371 0.0
O933 O 0.83553 0.18014 0.68587 0.0
O934 O 0.84592 0.2122 0.67439 0.0
O935 O 0.87156 0.21532 0.69339 0.0
O936 O 0.82676 0.15836 0.70412 0.0
O937 O 0.87479 0.20572 0.71894 0.0
O938 O 0.85767 0.19138 0.63588 0.0
O939 O 0.86953 0.18582 0.67379 0.0
O940 O 0.85855 0.15346 0.68558 0.0
O941 O 0.83327 0.15076 0.66639 0.0
O942 O 0.8784 0.20764 0.65558 0.0
O943 O 0.83055 0.16021 0.64091 0.0
C944 C 0.81945 0.16544 0.69299 0.0
C945 C 0.87018 0.19285 0.74561 0.0
C946 C 0.86874 0.19461 0.77499 0.0
C947 C 0.86067 0.1954 0.75963 0.0
C948 C 0.88646 0.19113 0.776 0.0
C949 C 0.88791 0.18959 0.74693 0.0
C950 C 0.89596 0.18871 0.76206 0.0
C951 C 0.86062 0.22294 0.68562 0.0
C952 C 0.86114 0.19315 0.72973 0.0
C953 C 0.9211 0.15324 0.71482 0.0
C954 C 0.93659 0.17404 0.71067 0.0
C955 C 0.88566 0.20039 0.66662 0.0
C956 C 0.83456 0.17269 0.61417 0.0
C957 C 0.84349 0.1694 0.60013 0.0
C958 C 0.83509 0.16991 0.58486 0.0
C959 C 0.81761 0.1737 0.58387 0.0
C960 C 0.81705 0.17631 0.61291 0.0
C961 C 0.80865 0.17683 0.59783 0.0
C962 C 0.84375 0.14284 0.67439 0.0
C963 C 0.84394 0.17279 0.63 0.0
H964 H 0.84714 0.19819 0.75852 0.0
H965 H 0.89284 0.19001 0.78758 0.0
H966 H 0.89548 0.18767 0.73631 0.0
H967 H 0.90957 0.18604 0.76299 0.0
H968 H 0.85713 0.16676 0.6011 0.0
H969 H 0.81065 0.17394 0.57231 0.0
H970 H 0.80987 0.17873 0.62352 0.0
H971 H 0.79512 0.17962 0.59696 0.0
H972 H 0.29402 0.80802 0.05961 0.0
H973 H 0.32664 0.83679 0.04726 0.0
H974 H 0.30785 0.88176 0.06287 0.0
H975 H 0.27479 0.85305 0.07462 0.0
H976 H 0.32398 0.88946 0.03194 0.0
H977 H 0.37915 0.87882 0.07334 0.0
H978 H 0.36108 0.85562 0.06192 0.0
H979 H 0.3503 0.86604 0.0766 0.0
C980 C 0.29664 0.82398 0.0602 0.0
C981 C 0.28187 0.82823 0.06829 0.0
C982 C 0.31545 0.84045 0.0533 0.0
C983 C 0.31994 0.8615 0.05445 0.0
C984 C 0.30484 0.86568 0.06196 0.0
H985 H 0.42386 0.98826 0.03482 0.0
H986 H 0.38889 0.95634 0.03978 0.0
C987 C 0.28602 0.84925 0.0688 0.0
C988 C 0.34056 0.87932 0.04821 0.0
H989 H 0.3955 0.90489 0.05332 0.0
C990 C 0.33964 0.89279 0.03656 0.0
C991 C 0.36099 0.8837 0.05426 0.0
C992 C 0.36304 0.87043 0.06732 0.0
C993 C 0.35855 0.91051 0.0308 0.0
C994 C 0.37897 0.91506 0.03702 0.0
C995 C 0.37989 0.90135 0.04846 0.0
C996 C 0.39954 0.93445 0.03254 0.0
C997 C 0.35637 0.9241 0.0181 0.0
C998 C 0.41734 0.93286 0.02709 0.0
C999 C 0.4374 0.95109 0.02451 0.0
C1000 C 0.43998 0.97128 0.02709 0.0
C1001 C 0.42215 0.97288 0.0324 0.0
C1002 C 0.40214 0.95465 0.03512 0.0
H1003 H 0.3416 0.91474 0.01062 0.0
H1004 H 0.35486 0.93693 0.02409 0.0
H1005 H 0.37067 0.93145 0.01008 0.0
H1006 H 0.41585 0.91747 0.02519 0.0
H1007 H 0.45099 0.94931 0.02091 0.0
H1008 H 0.1669 0.42777 0.07314 0.0
H1009 H 0.13704 0.43157 0.0625 0.0
H1010 H 0.18192 0.49659 0.05027 0.0
H1011 H 0.21202 0.49281 0.06089 0.0
H1012 H 0.12502 0.45916 0.07474 0.0
H1013 H 0.14428 0.47511 0.00967 0.0
H1014 H 0.15694 0.46432 0.02242 0.0
H1015 H 0.16581 0.49212 0.02318 0.0
C1016 C 0.17047 0.44283 0.06802 0.0
C1017 C 0.19184 0.46004 0.06796 0.0
C1018 C 0.15337 0.44496 0.0619 0.0
C1019 C 0.15716 0.46432 0.0555 0.0
C1020 C 0.17858 0.48137 0.05487 0.0
H1021 H 0.06669 0.50654 0.02628 0.0
H1022 H 0.0992 0.50434 0.03227 0.0
C1023 C 0.19579 0.47921 0.06096 0.0
C1024 C 0.1384 0.46693 0.05084 0.0
H1025 H 0.11476 0.4783 0.01942 0.0
C1026 C 0.12276 0.46326 0.06262 0.0
C1027 C 0.13551 0.47251 0.03507 0.0
C1028 C 0.1514 0.47609 0.02179 0.0
C1029 C 0.10441 0.46498 0.0591 0.0
C1030 C 0.10128 0.47013 0.04326 0.0
C1031 C 0.11708 0.4742 0.03152 0.0
C1032 C 0.0816 0.47118 0.03874 0.0
C1033 C 0.08869 0.46159 0.07249 0.0
C1034 C 0.06088 0.45321 0.04014 0.0
C1035 C 0.04229 0.45444 0.03667 0.0
C1036 C 0.04407 0.47352 0.03139 0.0
C1037 C 0.06481 0.49148 0.02992 0.0
C1038 C 0.08341 0.49027 0.03341 0.0
H1039 H 0.09624 0.4635 0.08456 0.0
H1040 H 0.08253 0.47285 0.07152 0.0
H1041 H 0.07466 0.44524 0.07164 0.0
H1042 H 0.05906 0.43824 0.04402 0.0
H1043 H 0.0265 0.44043 0.03806 0.0
H1044 H 0.5294 0.72501 0.06673 0.0
H1045 H 0.52329 0.69095 0.05615 0.0
H1046 H 0.59245 0.71659 0.05295 0.0
H1047 H 0.59849 0.7502 0.06429 0.0
H1048 H 0.53283 0.67792 0.02938 0.0
H1049 H 0.57608 0.66573 0.08 0.0
H1050 H 0.56986 0.68684 0.07997 0.0
H1051 H 0.59321 0.68973 0.06933 0.0
C1052 C 0.54322 0.7233 0.06364 0.0
C1053 C 0.56438 0.73998 0.06642 0.0
C1054 C 0.53976 0.70391 0.05762 0.0
C1055 C 0.55742 0.70104 0.05416 0.0
C1056 C 0.57858 0.71819 0.05605 0.0
H1057 H 0.54609 0.59288 1.00021 0.0
H1058 H 0.55226 0.6278 0.00832 0.0
C1059 C 0.58204 0.7374 0.06238 0.0
C1060 C 0.55372 0.68 0.04895 0.0
H1061 H 0.56689 0.64212 0.05776 0.0
C1062 C 0.54018 0.67002 0.03562 0.0
C1063 C 0.56296 0.6695 0.05731 0.0
C1064 C 0.57613 0.6784 0.07255 0.0
C1065 C 0.53583 0.64995 0.03031 0.0
C1066 C 0.54595 0.63995 0.03819 0.0
C1067 C 0.55933 0.64988 0.05159 0.0
C1068 C 0.54246 0.61893 0.03311 0.0
C1069 C 0.51993 0.63948 0.01663 0.0
C1070 C 0.53586 0.60259 0.04447 0.0
C1071 C 0.53285 0.58286 0.0399 0.0
C1072 C 0.53608 0.57904 0.02386 0.0
C1073 C 0.54293 0.59535 0.01253 0.0
C1074 C 0.54638 0.61525 0.01716 0.0
H1075 H 0.50875 0.6459 0.01547 0.0
H1076 H 0.52896 0.64262 0.00514 0.0
H1077 H 0.5101 0.62207 0.01831 0.0
H1078 H 0.53285 0.60506 0.05686 0.0
H1079 H 0.52751 0.57041 0.04882 0.0
H1080 H 0.84918 0.26523 0.95204 0.0
H1081 H 0.87778 0.29864 0.9633 0.0
H1082 H 0.82979 0.31393 0.97961 0.0
H1083 H 0.80099 0.28062 0.96809 0.0
H1084 H 0.88495 0.33957 0.95384 0.0
H1085 H 0.86976 0.32539 0.01957 0.0
H1086 H 0.8595 0.30407 0.00497 0.0
H1087 H 0.84661 0.31969 0.0073 0.0
C1088 C 0.84466 0.27566 0.95804 0.0
C1089 C 0.82276 0.27029 0.95904 0.0
C1090 C 0.86103 0.2947 0.96454 0.0
C1091 C 0.85591 0.3087 0.97236 0.0
C1092 C 0.83407 0.30319 0.97383 0.0
H1093 H 0.93379 0.43483 0.01314 0.0
H1094 H 0.90466 0.39995 0.00476 0.0
C1095 C 0.81763 0.28413 0.96726 0.0
C1096 C 0.87356 0.32963 0.97801 0.0
H1097 H 0.89641 0.35991 0.01166 0.0
C1098 C 0.88753 0.34402 0.96649 0.0
C1099 C 0.87675 0.3354 0.99449 0.0
C1100 C 0.8625 0.32032 0.00736 0.0
C1101 C 0.90447 0.36415 0.97097 0.0
C1102 C 0.9079 0.36986 0.98748 0.0
C1103 C 0.89384 0.35549 0.99901 0.0
C1104 C 0.92583 0.39078 0.993 0.0
C1105 C 0.91817 0.37929 0.9579 0.0
C1106 C 0.94751 0.39714 0.98945 0.0
C1107 C 0.96425 0.41714 0.99419 0.0
C1108 C 0.95967 0.43109 0.00279 0.0
C1109 C 0.93797 0.42447 0.00664 0.0
C1110 C 0.92125 0.40452 1.00183 0.0
H1111 H 0.90977 0.37491 0.94604 0.0
H1112 H 0.9224 0.3958 0.96086 0.0
H1113 H 0.93344 0.37883 0.9567 0.0
H1114 H 0.9515 0.38662 0.98298 0.0
H1115 H 0.98077 0.42164 0.99113 0.0
H1116 H 0.74864 0.55964 0.98046 0.0
H1117 H 0.71519 0.55659 0.99135 0.0
H1118 H 0.67979 0.5195 0.94985 0.0
H1119 H 0.71326 0.52319 0.93874 0.0
H1120 H 0.67107 0.5497 0.95455 0.0
H1121 H 0.66292 0.51066 0.01333 0.0
H1122 H 0.68848 0.5346 0.01117 0.0
H1123 H 0.68182 0.51233 0.99816 0.0
C1124 C 0.7336 0.55048 0.97386 0.0
C1125 C 0.73355 0.54166 0.95875 0.0
C1126 C 0.71444 0.54866 0.98012 0.0
C1127 C 0.69477 0.53761 0.97154 0.0
C1128 C 0.69467 0.52813 0.95673 0.0
H1129 H 0.5642 0.50213 0.00257 0.0
H1130 H 0.59855 0.50352 0.9967 0.0
C1131 C 0.71381 0.53021 0.95039 0.0
C1132 C 0.67469 0.53732 0.97715 0.0
H1133 H 0.63975 0.52506 0.00886 0.0
C1134 C 0.66423 0.54421 0.96641 0.0
C1135 C 0.66553 0.53002 0.99259 0.0
C1136 C 0.67514 0.52128 0.00442 0.0
C1137 C 0.64503 0.54401 0.9706 0.0
C1138 C 0.63626 0.5374 0.98621 0.0
C1139 C 0.6466 0.53039 0.99697 0.0
C1140 C 0.61601 0.53704 0.9913 0.0
C1141 C 0.63401 0.55032 0.95801 0.0
C1142 C 0.61444 0.55551 0.99067 0.0
C1143 C 0.59476 0.55469 0.99393 0.0
C1144 C 0.57643 0.53556 0.99841 0.0
C1145 C 0.57815 0.51721 0.99952 0.0
C1146 C 0.59779 0.51798 0.99611 0.0
H1147 H 0.63917 0.54902 0.94562 0.0
H1148 H 0.6161 0.54032 0.95871 0.0
H1149 H 0.63845 0.56708 0.96001 0.0
H1150 H 0.62835 0.5705 0.98734 0.0
H1151 H 0.59382 0.56902 0.99288 0.0
H1152 H 0.42785 0.16277 0.95086 0.0
H1153 H 0.43263 0.1351 0.96336 0.0
H1154 H 0.4979 0.18164 0.97712 0.0
H1155 H 0.49364 0.20928 0.96392 0.0
H1156 H 0.49617 0.14769 0.96276 0.0
H1157 H 0.43324 0.12052 0.01011 0.0
H1158 H 0.42262 0.11995 0.99038 0.0
H1159 H 0.44223 0.1449 0.9992 0.0
C1160 C 0.44325 0.16714 0.95652 0.0
C1161 C 0.4604 0.18825 0.95633 0.0
C1162 C 0.44584 0.15134 0.96388 0.0
C1163 C 0.46549 0.15636 0.97142 0.0
C1164 C 0.48252 0.17745 0.97149 0.0
H1165 H 0.51231 0.07903 0.01643 0.0
H1166 H 0.50678 0.10822 0.0084 0.0
C1167 C 0.48001 0.19325 0.96403 0.0
C1168 C 0.4688 0.13941 0.97819 0.0
H1169 H 0.44777 0.09782 0.00441 0.0
C1170 C 0.48574 0.13694 0.972 0.0
C1171 C 0.45515 0.12539 0.99023 0.0
C1172 C 0.43743 0.12793 0.99799 0.0
C1173 C 0.48905 0.12051 0.97723 0.0
C1174 C 0.47512 0.10626 0.98898 0.0
C1175 C 0.45833 0.10879 0.99533 0.0
C1176 C 0.47768 0.08846 0.99462 0.0
C1177 C 0.50711 0.11814 0.96991 0.0
C1178 C 0.46288 0.06771 0.98972 0.0
C1179 C 0.46595 0.05096 0.99427 0.0
C1180 C 0.48378 0.05472 0.00393 0.0
C1181 C 0.49831 0.07554 0.0091 0.0
C1182 C 0.49526 0.09227 0.00447 0.0
H1183 H 0.51442 0.12856 0.95929 0.0
H1184 H 0.52002 0.12232 0.97907 0.0
H1185 H 0.50102 0.10145 0.96618 0.0
H1186 H 0.44921 0.06456 0.9821 0.0
H1187 H 0.45445 0.03512 0.99013 0.0
H1188 H 0.72427 0.17821 0.97886 0.0
H1189 H 0.69117 0.149 0.9905 0.0
H1190 H 0.65566 0.14597 0.94745 0.0
H1191 H 0.68877 0.17466 0.93563 0.0
H1192 H 0.6513 0.1438 0.99753 0.0
H1193 H 0.64296 0.08565 0.95092 0.0
H1194 H 0.66714 0.1112 0.95301 0.0
H1195 H 0.64384 0.10868 0.94245 0.0
C1196 C 0.70939 0.17133 0.97191 0.0
C1197 C 0.70909 0.17857 0.95627 0.0
C1198 C 0.69048 0.15466 0.97857 0.0
C1199 C 0.671 0.14497 0.96972 0.0
C1200 C 0.67059 0.15278 0.95435 0.0
H1201 H 0.53984 0.06121 0.00415 0.0
H1202 H 0.57505 0.0921 0.99812 0.0
C1203 C 0.68947 0.16926 0.94765 0.0
C1204 C 0.65117 0.12655 0.97639 0.0
H1205 H 0.61254 0.0755 0.96794 0.0
C1206 C 0.64289 0.12878 0.99115 0.0
C1207 C 0.64037 0.10684 0.9682 0.0
C1208 C 0.64915 0.10284 0.95286 0.0
C1209 C 0.62386 0.11201 0.99776 0.0
C1210 C 0.6125 0.09257 0.98921 0.0
C1211 C 0.62107 0.09032 0.97456 0.0
C1212 C 0.59168 0.07427 0.99493 0.0
C1213 C 0.61645 0.11527 0.01398 0.0
C1214 C 0.58899 0.05379 0.99504 0.0
C1215 C 0.56871 0.03608 0.99806 0.0
C1216 C 0.55079 0.03848 1.00148 0.0
C1217 C 0.55353 0.05895 0.00199 0.0
C1218 C 0.57375 0.07667 0.99861 0.0
H1219 H 0.63019 0.12757 0.02117 0.0
H1220 H 0.60456 0.12071 0.01224 0.0
H1221 H 0.60862 0.10038 0.02095 0.0
H1222 H 0.60247 0.05141 0.99224 0.0
H1223 H 0.5669 0.02043 0.99741 0.0
H1224 H 0.87023 0.57545 0.95314 0.0
H1225 H 0.89644 0.56551 0.96254 0.0
H1226 H 0.84465 0.50858 0.98346 0.0
H1227 H 0.81817 0.51846 0.97392 0.0
H1228 H 0.90455 0.55838 0.99445 0.0
H1229 H 0.87813 0.48681 0.9561 0.0
H1230 H 0.87012 0.50625 0.95197 0.0
H1231 H 0.85752 0.48764 0.96804 0.0
C1232 C 0.8644 0.56079 0.95974 0.0
C1233 C 0.84216 0.54776 0.96279 0.0
C1234 C 0.8794 0.55512 0.9651 0.0
C1235 C 0.87254 0.53619 0.97356 0.0
C1236 C 0.8503 0.5231 0.97673 0.0
H1237 H 0.95272 0.48164 0.00373 0.0
H1238 H 0.92215 0.48762 0.99942 0.0
C1239 C 0.8352 0.52883 0.97137 0.0
C1240 C 0.88898 0.53071 0.97928 0.0
H1241 H 0.90755 0.49607 0.97363 0.0
C1242 C 0.90514 0.54467 0.98998 0.0
C1243 C 0.8897 0.51279 0.97351 0.0
C1244 C 0.87307 0.49753 0.96168 0.0
C1245 C 0.9221 0.54139 0.99496 0.0
C1246 C 0.92332 0.52383 0.9888 0.0
C1247 C 0.90676 0.50953 0.97841 0.0
C1248 C 0.94199 0.52046 0.99237 0.0
C1249 C 0.93838 0.55687 0.00686 0.0
C1250 C 0.96344 0.53675 0.98974 0.0
C1251 C 0.98091 0.53347 0.99264 0.0
C1252 C 0.97741 0.51379 0.99809 0.0
C1253 C 0.95598 0.49724 1.00018 0.0
C1254 C 0.93847 0.5006 0.99751 0.0
H1255 H 0.93094 0.56375 0.01482 0.0
H1256 H 0.94529 0.5493 0.0145 0.0
H1257 H 0.95176 0.57013 1.00019 0.0
H1258 H 0.96672 0.55194 0.98514 0.0
H1259 H 0.99723 0.54631 0.99043 0.0
H1260 H 0.49159 0.31738 0.92871 0.0
H1261 H 0.49754 0.35038 0.94114 0.0
H1262 H 0.48567 0.32139 0.98806 0.0
H1263 H 0.47936 0.28822 0.97566 0.0
H1264 H 0.4633 0.34292 0.9827 0.0
H1265 H 0.55016 0.39305 0.96719 0.0
H1266 H 0.53327 0.3798 0.95007 0.0
H1267 H 0.53613 0.3645 0.96586 0.0
C1268 C 0.49041 0.31813 0.94169 0.0
C1269 C 0.48513 0.30034 0.95122 0.0
C1270 C 0.49391 0.33698 0.94877 0.0
C1271 C 0.49237 0.3384 0.96553 0.0
C1272 C 0.48705 0.32062 0.9751 0.0
H1273 H 0.53594 0.45782 0.01566 0.0
H1274 H 0.52984 0.42327 0.00705 0.0
C1275 C 0.4835 0.30172 0.96801 0.0
C1276 C 0.49562 0.35826 0.97297 0.0
H1277 H 0.53199 0.4111 0.97639 0.0
C1278 C 0.47837 0.35781 0.98145 0.0
C1279 C 0.51538 0.37758 0.97148 0.0
C1280 C 0.53487 0.37879 0.9633 0.0
C1281 C 0.48016 0.37634 0.98811 0.0
C1282 C 0.49958 0.39583 0.98596 0.0
C1283 C 0.51703 0.39616 0.97787 0.0
C1284 C 0.50221 0.41613 0.99194 0.0
C1285 C 0.46132 0.37486 0.99748 0.0
C1286 C 0.48869 0.4236 0.98628 0.0
C1287 C 0.49195 0.44329 0.99134 0.0
C1288 C 0.50892 0.45593 0.00206 0.0
C1289 C 0.52244 0.44837 0.00767 0.0
C1290 C 0.5191 0.42866 0.00267 0.0
H1291 H 0.45042 0.3585 1.00187 0.0
H1292 H 0.46704 0.38584 0.00798 0.0
H1293 H 0.45169 0.37928 0.98953 0.0
H1294 H 0.47588 0.41439 0.9777 0.0
H1295 H 0.48135 0.4487 0.98668 0.0
H1296 H 0.19774 0.72627 0.04771 0.0
H1297 H 0.17 0.69243 0.03604 0.0
H1298 H 0.15464 0.66486 0.08351 0.0
H1299 H 0.18257 0.6984 0.09514 0.0
H1300 H 0.15821 0.63893 0.06181 0.0
H1301 H 0.10462 0.6674 0.03763 0.0
H1302 H 0.13206 0.68176 0.03053 0.0
H1303 H 0.12649 0.68284 0.05153 0.0
C1304 C 0.18843 0.71298 0.05563 0.0
C1305 C 0.19224 0.71493 0.07235 0.0
C1306 C 0.17248 0.6937 0.04897 0.0
C1307 C 0.15999 0.67618 0.05893 0.0
C1308 C 0.16401 0.67815 0.07559 0.0
H1309 H 0.03834 0.56128 0.04006 0.0
H1310 H 0.06739 0.5962 0.04864 0.0
C1311 C 0.17995 0.69731 0.08222 0.0
C1312 C 0.14293 0.65562 0.05215 0.0
H1313 H 0.09491 0.63198 0.03147 0.0
C1314 C 0.1444 0.63742 0.05514 0.0
C1315 C 0.12475 0.65362 0.04364 0.0
C1316 C 0.12169 0.67238 0.04074 0.0
C1317 C 0.12821 0.6173 0.0499 0.0
C1318 C 0.11026 0.61535 0.0411 0.0
C1319 C 0.10877 0.63353 0.03809 0.0
C1320 C 0.09256 0.59447 0.03533 0.0
C1321 C 0.13019 0.59825 0.05429 0.0
C1322 C 0.09697 0.58202 0.02479 0.0
C1323 C 0.08045 0.56197 0.01998 0.0
C1324 C 0.05905 0.55407 0.02539 0.0
C1325 C 0.05459 0.56681 0.03565 0.0
C1326 C 0.07118 0.58682 0.04054 0.0
H1327 H 0.14154 0.6017 0.06455 0.0
H1328 H 0.11419 0.58456 0.05754 0.0
H1329 H 0.13656 0.59362 0.0438 0.0
H1330 H 0.11325 0.58773 0.02037 0.0
H1331 H 0.08459 0.55257 0.01224 0.0
H1332 H 0.2963 0.48051 0.04657 0.0
H1333 H 0.3304 0.48673 0.03434 0.0
H1334 H 0.35487 0.4843 0.08142 0.0
H1335 H 0.32136 0.47893 0.09362 0.0
H1336 H 0.38496 0.51627 0.06516 0.0
H1337 H 0.35024 0.44498 0.02575 0.0
H1338 H 0.3397 0.46236 0.022 0.0
H1339 H 0.33446 0.44879 0.04097 0.0
C1340 C 0.30897 0.48127 0.05426 0.0
C1341 C 0.30616 0.47917 0.07106 0.0
C1342 C 0.32842 0.48467 0.04725 0.0
C1343 C 0.34521 0.48567 0.05689 0.0
C1344 C 0.34227 0.48361 0.07366 0.0
H1345 H 0.45155 0.46577 0.0358 0.0
H1346 H 0.4169 0.46376 0.04165 0.0
C1347 C 0.32306 0.48048 0.08064 0.0
C1348 C 0.36607 0.48922 0.04986 0.0
H1349 H 0.38799 0.46827 0.02411 0.0
C1350 C 0.38559 0.50581 0.05613 0.0
C1351 C 0.367 0.47552 0.03813 0.0
C1352 C 0.34676 0.4568 0.0314 0.0
C1353 C 0.40586 0.5087 0.05142 0.0
C1354 C 0.4068 0.49505 0.03966 0.0
C1355 C 0.38732 0.47882 0.03304 0.0
C1356 C 0.42764 0.49625 0.03505 0.0
C1357 C 0.42596 0.52574 0.05972 0.0
C1358 C 0.44526 0.51507 0.02917 0.0
C1359 C 0.46519 0.5163 0.02604 0.0
C1360 C 0.46769 0.49852 0.02823 0.0
C1361 C 0.44998 0.47962 0.03381 0.0
C1362 C 0.43015 0.47846 0.0371 0.0
H1363 H 0.42205 0.53101 0.07118 0.0
H1364 H 0.43751 0.52011 0.06242 0.0
H1365 H 0.43415 0.53972 0.05172 0.0
H1366 H 0.44369 0.52891 0.02714 0.0
H1367 H 0.47869 0.53121 0.02207 0.0
H1368 H 0.53163 0.81342 0.05207 0.0
H1369 H 0.51859 0.83595 0.04042 0.0
H1370 H 0.57224 0.89093 0.06243 0.0
H1371 H 0.58543 0.86861 0.07393 0.0
H1372 H 0.50686 0.86276 0.05673 0.0
H1373 H 0.57537 0.90822 0.01511 0.0
H1374 H 0.57019 0.88363 0.02418 0.0
H1375 H 0.58403 0.90805 0.03541 0.0
C1376 C 0.54069 0.83033 0.05433 0.0
C1377 C 0.55963 0.83937 0.0638 0.0
C1378 C 0.53322 0.84314 0.04769 0.0
C1379 C 0.54469 0.86512 0.05034 0.0
C1380 C 0.56344 0.87407 0.05994 0.0
H1381 H 0.53625 0.97609 0.0383 0.0
H1382 H 0.54454 0.94817 0.04439 0.0
C1383 C 0.57088 0.86131 0.06657 0.0
C1384 C 0.53684 0.87882 0.04359 0.0
H1385 H 0.55296 0.92329 0.02106 0.0
C1386 C 0.51673 0.87579 0.04872 0.0
C1387 C 0.54976 0.89572 0.03309 0.0
C1388 C 0.57094 0.89901 0.02649 0.0
C1389 C 0.50973 0.88998 0.0443 0.0
C1390 C 0.52313 0.90742 0.03439 0.0
C1391 C 0.54282 0.90994 0.02875 0.0
C1392 C 0.51773 0.92401 0.03058 0.0
C1393 C 0.48856 0.88683 0.05083 0.0
C1394 C 0.49994 0.91961 0.02072 0.0
C1395 C 0.49512 0.93555 0.01721 0.0
C1396 C 0.50811 0.95615 0.02344 0.0
C1397 C 0.52591 0.96043 0.0333 0.0
C1398 C 0.53072 0.94452 0.03677 0.0
H1399 H 0.48182 0.87453 0.06036 0.0
H1400 H 0.49074 0.90191 0.05586 0.0
H1401 H 0.47653 0.88181 0.04088 0.0
H1402 H 0.48986 0.9039 0.01571 0.0
H1403 H 0.48115 0.93166 0.00972 0.0
H1404 H 0.96405 0.13812 0.39607 0.0
H1405 H 0.99715 0.16771 0.38473 0.0
H1406 H 0.97297 0.21013 0.39517 0.0
H1407 H 0.94007 0.18077 0.4066 0.0
H1408 H 1.00484 0.19643 0.35994 0.0
H1409 H 0.03095 0.23795 0.41878 0.0
H1410 H 0.00938 0.2108 0.41697 0.0
H1411 H 1.00428 0.23216 0.4129 0.0
C1412 C 0.96571 0.15371 0.39576 0.0
C1413 C 0.94959 0.15718 0.40242 0.0
C1414 C 0.98464 0.17061 0.38934 0.0
C1415 C 0.98776 0.19123 0.38946 0.0
C1416 C 0.97119 0.19448 0.39536 0.0
H1417 H 0.08945 0.31761 0.36626 0.0
H1418 H 0.05494 0.28539 0.37182 0.0
C1419 C 0.95238 0.17768 0.40185 0.0
C1420 C 0.00845 0.20947 0.3838 0.0
H1421 H 0.05033 0.25751 0.39576 0.0
C1422 C 0.0149 0.20974 0.36778 0.0
C1423 C 0.02163 0.22676 0.39408 0.0
C1424 C 0.01636 0.22687 0.41168 0.0
C1425 C 0.03378 0.22717 0.36162 0.0
C1426 C 0.04662 0.24471 0.37179 0.0
C1427 C 0.04035 0.24421 0.38789 0.0
C1428 C 0.06664 0.26386 0.36617 0.0
C1429 C 0.03937 0.22702 0.34414 0.0
C1430 C 0.08465 0.26251 0.36093 0.0
C1431 C 0.10435 0.28092 0.35767 0.0
C1432 C 0.10637 0.30101 0.35958 0.0
C1433 C 0.08823 0.30231 0.36449 0.0
C1434 C 0.06854 0.28393 0.36768 0.0
H1435 H 0.02563 0.21439 0.33717 0.0
H1436 H 0.04407 0.24253 0.33862 0.0
H1437 H 0.05332 0.2243 0.3432 0.0
H1438 H 0.08382 0.24729 0.36008 0.0
H1439 H 0.11819 0.27942 0.35435 0.0
H1440 H 0.85799 0.81749 0.42643 0.0
H1441 H 0.82742 0.8198 0.41538 0.0
H1442 H 0.82925 0.78761 0.37223 0.0
H1443 H 0.86023 0.78559 0.38318 0.0
H1444 H 0.82181 0.81982 0.36531 0.0
H1445 H 0.76612 0.77076 0.41377 0.0
H1446 H 0.7898 0.79378 0.42136 0.0
H1447 H 0.7925 0.77348 0.41102 0.0
C1448 C 0.85192 0.81094 0.41456 0.0
C1449 C 0.86139 0.80114 0.40575 0.0
C1450 C 0.83435 0.81217 0.40829 0.0
C1451 C 0.82557 0.80335 0.39315 0.0
C1452 C 0.83558 0.79436 0.38401 0.0
H1453 H 0.69464 0.77268 0.36607 0.0
H1454 H 0.72761 0.77161 0.37267 0.0
C1455 C 0.85334 0.79329 0.39024 0.0
C1456 C 0.80586 0.80333 0.38699 0.0
H1457 H 0.75343 0.7882 0.39649 0.0
C1458 C 0.80681 0.81281 0.37208 0.0
C1459 C 0.78613 0.7939 0.39567 0.0
C1460 C 0.78344 0.78222 0.41126 0.0
C1461 C 0.78877 0.81342 0.36575 0.0
C1462 C 0.76923 0.80469 0.37471 0.0
C1463 C 0.76829 0.795 0.38955 0.0
C1464 C 0.74948 0.80517 0.36902 0.0
C1465 C 0.79074 0.82283 0.34929 0.0
C1466 C 0.75054 0.82428 0.36455 0.0
C1467 C 0.73169 0.82477 0.36042 0.0
C1468 C 0.71129 0.80622 0.36088 0.0
C1469 C 0.71018 0.78715 0.3654 0.0
C1470 C 0.72904 0.78658 0.36924 0.0
H1471 H 0.8037 0.8225 0.34208 0.0
H1472 H 0.77527 0.81405 0.34262 0.0
H1473 H 0.7949 0.8396 0.35053 0.0
H1474 H 0.76584 0.83902 0.36481 0.0
H1475 H 0.73305 0.83984 0.35749 0.0
H1476 H 0.20397 0.06485 0.39225 0.0
H1477 H 0.19728 0.03111 0.38062 0.0
H1478 H 0.26123 0.04512 0.39522 0.0
H1479 H 0.2682 0.07894 0.40661 0.0
H1480 H 0.22321 0.02212 0.35674 0.0
H1481 H 0.21731 0.9876 0.41749 0.0
H1482 H 0.21463 0.01068 0.41428 0.0
H1483 H 0.24094 0.01302 0.41403 0.0
C1484 C 0.21673 0.0609 0.39274 0.0
C1485 C 0.23652 0.07443 0.40052 0.0
C1486 C 0.21285 0.04161 0.38615 0.0
C1487 C 0.22866 0.03558 0.38731 0.0
C1488 C 0.24872 0.04941 0.39446 0.0
H1489 H 0.23312 0.92113 0.3684 0.0
H1490 H 0.24102 0.95681 0.37573 0.0
C1491 C 0.25263 0.06866 0.401 0.0
C1492 C 0.22396 0.01445 0.38167 0.0
H1493 H 0.21681 0.96721 0.39514 0.0
C1494 C 0.22171 0.01004 0.36509 0.0
C1495 C 0.22207 0.99883 0.39265 0.0
C1496 C 0.22368 0.0026 0.41063 0.0
C1497 C 0.21808 0.99045 0.35915 0.0
C1498 C 0.21623 0.97482 0.37015 0.0
C1499 C 0.21834 0.97926 0.38674 0.0
C1500 C 0.21193 0.95365 0.36482 0.0
C1501 C 0.2168 0.98686 0.34116 0.0
C1502 C 0.19289 0.94002 0.35633 0.0
C1503 C 0.18835 0.91964 0.35209 0.0
C1504 C 0.2027 0.91246 0.35637 0.0
C1505 C 0.22175 0.92616 0.36489 0.0
C1506 C 0.22631 0.94656 0.36908 0.0
H1507 H 0.22446 0.00206 0.33446 0.0
H1508 H 0.2248 0.97773 0.33762 0.0
H1509 H 0.19953 0.97767 0.33744 0.0
H1510 H 0.18129 0.94494 0.3533 0.0
H1511 H 0.17334 0.90938 0.34577 0.0
H1512 H 0.51307 0.5897 0.29397 0.0
H1513 H 0.54155 0.62321 0.30533 0.0
H1514 H 0.4985 0.64876 0.30275 0.0
H1515 H 0.46965 0.61477 0.29217 0.0
H1516 H 0.56162 0.65971 0.29205 0.0
H1517 H 0.5223 0.6685 0.34659 0.0
H1518 H 0.51075 0.64412 0.33521 0.0
H1519 H 0.50663 0.66547 0.32884 0.0
C1520 C 0.50962 0.60237 0.29618 0.0
C1521 C 0.48919 0.59969 0.29237 0.0
C1522 C 0.5259 0.62154 0.3026 0.0
C1523 C 0.5222 0.63855 0.30512 0.0
C1524 C 0.50164 0.63577 0.3014 0.0
H1525 H 0.6275 0.76988 0.30836 0.0
H1526 H 0.59796 0.73484 0.30033 0.0
C1527 C 0.48519 0.6164 0.29528 0.0
C1528 C 0.54032 0.65951 0.31056 0.0
H1529 H 0.55437 0.6996 0.3378 0.0
C1530 C 0.56005 0.66832 0.30216 0.0
C1531 C 0.53851 0.67072 0.32387 0.0
C1532 C 0.51848 0.6616 0.33425 0.0
C1533 C 0.57784 0.68799 0.30655 0.0
C1534 C 0.57564 0.69971 0.31932 0.0
C1535 C 0.55603 0.6908 0.32787 0.0
C1536 C 0.59352 0.72111 0.32413 0.0
C1537 C 0.59893 0.69566 0.29768 0.0
C1538 C 0.60046 0.7254 0.34027 0.0
C1539 C 0.61698 0.74555 0.3449 0.0
C1540 C 0.62696 0.76176 0.33349 0.0
C1541 C 0.62019 0.75752 0.31734 0.0
C1542 C 0.6034 0.73747 0.31275 0.0
H1543 H 0.60004 0.68224 0.29232 0.0
H1544 H 0.59988 0.70614 0.28767 0.0
H1545 H 0.6131 0.70468 0.30576 0.0
H1546 H 0.59317 0.71309 0.34929 0.0
H1547 H 0.62222 0.74832 0.35734 0.0
H1548 H 0.40907 0.91265 0.2853 0.0
H1549 H 0.37522 0.90855 0.29584 0.0
H1550 H 0.35648 0.84545 0.3118 0.0
H1551 H 0.39056 0.84952 0.30129 0.0
H1552 H 0.33464 0.87941 0.28562 0.0
H1553 H 0.34232 0.86972 0.35124 0.0
H1554 H 0.36515 0.87961 0.33773 0.0
H1555 H 0.34593 0.85171 0.33856 0.0
C1556 C 0.39782 0.89791 0.29113 0.0
C1557 C 0.40248 0.88134 0.29233 0.0
C1558 C 0.37847 0.89562 0.29721 0.0
C1559 C 0.36327 0.87676 0.30473 0.0
C1560 C 0.36808 0.86033 0.30634 0.0
H1561 H 0.23038 0.83534 0.33616 0.0
H1562 H 0.26504 0.83725 0.33026 0.0
C1563 C 0.38756 0.86265 0.30029 0.0
C1564 C 0.34189 0.87399 0.30975 0.0
H1565 H 0.30861 0.86498 0.34208 0.0
C1566 C 0.32902 0.87631 0.29798 0.0
C1567 C 0.33438 0.86975 0.32586 0.0
C1568 C 0.3477 0.86772 0.33913 0.0
C1569 C 0.30902 0.8746 0.30184 0.0
C1570 C 0.3017 0.8708 0.31798 0.0
C1571 C 0.31429 0.86802 0.32973 0.0
C1572 C 0.2812 0.87004 0.3228 0.0
C1573 C 0.29573 0.87665 0.28852 0.0
C1574 C 0.27885 0.88794 0.3209 0.0
C1575 C 0.25912 0.8869 0.32435 0.0
C1576 C 0.24144 0.86807 0.33007 0.0
C1577 C 0.24386 0.85022 0.33217 0.0
C1578 C 0.26364 0.85126 0.32872 0.0
H1579 H 0.30071 0.87399 0.27645 0.0
H1580 H 0.2782 0.86521 0.29015 0.0
H1581 H 0.29807 0.89289 0.28875 0.0
H1582 H 0.29223 0.90268 0.31653 0.0
H1583 H 0.25762 0.90082 0.32248 0.0
H1584 H 0.09483 0.49241 0.28221 0.0
H1585 H 0.10152 0.46511 0.29313 0.0
H1586 H 0.16121 0.51333 0.31459 0.0
H1587 H 0.15488 0.54088 0.30341 0.0
H1588 H 0.14027 0.4623 0.28651 0.0
H1589 H 0.1277 0.47036 0.35178 0.0
H1590 H 0.11712 0.47997 0.33618 0.0
H1591 H 0.14546 0.49431 0.34109 0.0
C1592 C 0.10945 0.49725 0.28918 0.0
C1593 C 0.12441 0.51884 0.29185 0.0
C1594 C 0.11315 0.48163 0.29549 0.0
C1595 C 0.13175 0.48725 0.30473 0.0
C1596 C 0.1466 0.50872 0.30766 0.0
H1597 H 0.17867 0.40983 0.34947 0.0
H1598 H 0.17348 0.43905 0.34094 0.0
C1599 C 0.14294 0.52441 0.30129 0.0
C1600 C 0.136 0.47055 0.31061 0.0
H1601 H 0.13864 0.44574 0.34463 0.0
C1602 C 0.13993 0.45864 0.29922 0.0
C1603 C 0.13568 0.46603 0.32719 0.0
C1604 C 0.13113 0.4782 0.33983 0.0
C1605 C 0.14359 0.44225 0.30395 0.0
C1606 C 0.14275 0.43734 0.32052 0.0
C1607 C 0.13916 0.44949 0.33195 0.0
C1608 C 0.14533 0.41948 0.32616 0.0
C1609 C 0.14866 0.43058 0.29119 0.0
C1610 C 0.13093 0.39874 0.32094 0.0
C1611 C 0.13384 0.382 0.32576 0.0
C1612 C 0.15107 0.38567 0.33607 0.0
C1613 C 0.16514 0.40641 0.34161 0.0
C1614 C 0.16225 0.42316 0.33673 0.0
H1615 H 0.15476 0.44002 0.27998 0.0
H1616 H 0.16093 0.4266 0.29556 0.0
H1617 H 0.13365 0.41559 0.28811 0.0
H1618 H 0.11746 0.39551 0.31307 0.0
H1619 H 0.12261 0.36621 0.32136 0.0
H1620 H 0.38349 0.46913 0.28708 0.0
H1621 H 0.34804 0.44496 0.29873 0.0
H1622 H 0.3442 0.49821 0.3175 0.0
H1623 H 0.37984 0.5226 0.30581 0.0
H1624 H 0.33548 0.44207 0.33245 0.0
H1625 H 0.28663 0.46227 0.29133 0.0
H1626 H 0.31389 0.46849 0.28648 0.0
H1627 H 0.30948 0.48375 0.30143 0.0
C1628 C 0.37509 0.4757 0.2937 0.0
C1629 C 0.3844 0.49772 0.29553 0.0
C1630 C 0.35488 0.46188 0.30036 0.0
C1631 C 0.34343 0.46979 0.30888 0.0
C1632 C 0.35268 0.4918 0.31082 0.0
H1633 H 0.20812 0.39173 0.33995 0.0
H1634 H 0.24461 0.42231 0.33667 0.0
C1635 C 0.37305 0.5057 0.3042 0.0
C1636 C 0.32186 0.45472 0.31566 0.0
H1637 H 0.26763 0.435 0.30994 0.0
C1638 C 0.32062 0.44065 0.32767 0.0
C1639 C 0.30254 0.45301 0.30949 0.0
C1640 C 0.303 0.46756 0.2964 0.0
C1641 C 0.30057 0.42455 0.3334 0.0
C1642 C 0.28116 0.42212 0.32666 0.0
C1643 C 0.28244 0.43679 0.31511 0.0
C1644 C 0.25949 0.40362 0.33041 0.0
C1645 C 0.30051 0.4103 0.34656 0.0
C1646 C 0.25562 0.38291 0.32805 0.0
C1647 C 0.2349 0.36547 0.33022 0.0
C1648 C 0.21757 0.36833 0.33474 0.0
C1649 C 0.22132 0.38902 0.33701 0.0
C1650 C 0.24214 0.4065 0.33497 0.0
H1651 H 0.31508 0.41874 0.35439 0.0
H1652 H 0.28587 0.40426 0.35419 0.0
H1653 H 0.30085 0.39659 0.34103 0.0
H1654 H 0.26848 0.38021 0.32398 0.0
H1655 H 0.2323 0.34971 0.328 0.0
H1656 H 0.48166 0.84791 0.30503 0.0
H1657 H 0.50715 0.83666 0.3145 0.0
H1658 H 0.56094 0.89767 0.30169 0.0
H1659 H 0.53573 0.90886 0.29219 0.0
H1660 H 0.54176 0.83615 0.29563 0.0
H1661 H 0.5736 0.88875 0.34912 0.0
H1662 H 0.54814 0.88216 0.33961 0.0
H1663 H 0.57328 0.90208 0.33104 0.0
C1664 C 0.49891 0.85894 0.30438 0.0
C1665 C 0.50673 0.87933 0.29797 0.0
C1666 C 0.51345 0.85249 0.30975 0.0
C1667 C 0.53597 0.86644 0.30901 0.0
C1668 C 0.54367 0.88677 0.30264 0.0
H1669 H 0.6595 0.87686 0.32338 0.0
H1670 H 0.62761 0.8806 0.31872 0.0
C1671 C 0.52924 0.89311 0.29717 0.0
C1672 C 0.5517 0.85982 0.31426 0.0
H1673 H 0.59478 0.87392 0.33954 0.0
C1674 C 0.55314 0.84412 0.3054 0.0
C1675 C 0.56656 0.87026 0.327 0.0
C1676 C 0.56526 0.88662 0.33736 0.0
C1677 C 0.56978 0.83943 0.30837 0.0
C1678 C 0.58514 0.85046 0.32074 0.0
C1679 C 0.58311 0.86553 0.33001 0.0
C1680 C 0.60429 0.84774 0.32358 0.0
C1681 C 0.5714 0.82349 0.29768 0.0
C1682 C 0.60188 0.82802 0.32789 0.0
C1683 C 0.62016 0.82589 0.33054 0.0
C1684 C 0.64114 0.84353 0.32924 0.0
C1685 C 0.64351 0.86312 0.32472 0.0
C1686 C 0.62529 0.86525 0.32208 0.0
H1687 H 0.56142 0.82 0.28658 0.0
H1688 H 0.58848 0.82927 0.29414 0.0
H1689 H 0.56552 0.80845 0.30438 0.0
H1690 H 0.5859 0.81434 0.32936 0.0
H1691 H 0.61789 0.81049 0.33363 0.0
H1692 H 0.09341 0.62099 0.29002 0.0
H1693 H 0.10594 0.65682 0.30028 0.0
H1694 H 0.16071 0.6572 0.32288 0.0
H1695 H 0.1484 0.62142 0.31247 0.0
H1696 H 0.11351 0.67177 0.33235 0.0
H1697 H 0.18846 0.71128 0.29532 0.0
H1698 H 0.16679 0.68469 0.29118 0.0
H1699 H 0.18531 0.68958 0.30751 0.0
C1700 C 0.1081 0.62873 0.29721 0.0
C1701 C 0.11998 0.61853 0.3004 0.0
C1702 C 0.11522 0.64914 0.30306 0.0
C1703 C 0.13438 0.65972 0.31215 0.0
C1704 C 0.14608 0.64941 0.31564 0.0
H1705 H 0.19994 0.78942 0.34931 0.0
H1706 H 0.18949 0.75257 0.34371 0.0
C1707 C 0.13897 0.62896 0.30977 0.0
C1708 C 0.14199 0.68158 0.31785 0.0
H1709 H 0.18231 0.7329 0.31321 0.0
C1710 C 0.12859 0.68514 0.32823 0.0
C1711 C 0.1617 0.69894 0.31247 0.0
C1712 C 0.17637 0.69607 0.30091 0.0
C1713 C 0.1343 0.70567 0.33328 0.0
C1714 C 0.15373 0.72306 0.32758 0.0
C1715 C 0.16741 0.71948 0.31753 0.0
C1716 C 0.15973 0.74517 0.33136 0.0
C1717 C 0.11953 0.70857 0.34471 0.0
C1718 C 0.14657 0.75323 0.32609 0.0
C1719 C 0.15241 0.77423 0.32933 0.0
C1720 C 0.17158 0.78757 0.33786 0.0
C1721 C 0.18488 0.77949 0.34296 0.0
C1722 C 0.17901 0.75847 0.3397 0.0
H1723 H 0.10873 0.69373 0.35132 0.0
H1724 H 0.12901 0.72135 0.3536 0.0
H1725 H 0.10915 0.71307 0.33773 0.0
H1726 H 0.13186 0.74331 0.31933 0.0
H1727 H 0.14187 0.77996 0.32514 0.0
H1728 H 0.84996 0.02674 0.42875 0.0
H1729 H 0.82206 0.99355 0.41665 0.0
H1730 H 0.83753 0.0225 0.36966 0.0
H1731 H 0.86533 0.05596 0.3818 0.0
H1732 H 0.7932 0.99949 0.37546 0.0
H1733 H 0.83151 0.95163 0.39036 0.0
H1734 H 0.82818 0.96461 0.40763 0.0
H1735 H 0.84598 0.98019 0.39161 0.0
C1736 C 0.84749 0.02599 0.41582 0.0
C1737 C 0.8599 0.04386 0.40622 0.0
C1738 C 0.83162 0.00699 0.40891 0.0
C1739 C 0.82795 0.00542 0.39221 0.0
C1740 C 0.8402 0.02333 0.38256 0.0
H1741 H 0.75036 0.88421 0.34354 0.0
H1742 H 0.77917 0.91912 0.35198 0.0
C1743 C 0.85611 0.04241 0.3895 0.0
C1744 C 0.81095 0.98517 0.38498 0.0
H1745 H 0.79447 0.9325 0.38202 0.0
C1746 C 0.79354 0.98486 0.37677 0.0
C1747 C 0.81155 0.96614 0.38652 0.0
C1748 C 0.83041 0.96563 0.39436 0.0
C1749 C 0.77641 0.96592 0.37046 0.0
C1750 C 0.77652 0.94672 0.37267 0.0
C1751 C 0.79424 0.94716 0.38049 0.0
C1752 C 0.75855 0.92598 0.36691 0.0
C1753 C 0.75849 0.96669 0.36133 0.0
C1754 C 0.73729 0.9181 0.37252 0.0
C1755 C 0.72062 0.89815 0.36755 0.0
C1756 C 0.72493 0.88562 0.35694 0.0
C1757 C 0.74629 0.89354 0.35144 0.0
C1758 C 0.76287 0.91348 0.35636 0.0
H1759 H 0.76379 0.98287 0.35676 0.0
H1760 H 0.75282 0.95548 0.35098 0.0
H1761 H 0.74457 0.96217 0.36953 0.0
H1762 H 0.73364 0.92721 0.38099 0.0
H1763 H 0.70443 0.89251 0.37214 0.0
H1764 H 0.99434 0.83582 0.42375 0.0
H1765 H 0.02768 0.83971 0.41231 0.0
H1766 H 0.99136 0.80003 0.3721 0.0
H1767 H 0.95791 0.79674 0.38333 0.0
H1768 H 0.03794 0.81039 0.40778 0.0
H1769 H 0.04157 0.84711 0.3486 0.0
H1770 H 0.02311 0.84511 0.36427 0.0
H1771 H 0.01686 0.82257 0.35172 0.0
C1772 C 0.9935 0.82816 0.41235 0.0
C1773 C 0.97354 0.81607 0.40442 0.0
C1774 C 0.01259 0.83036 0.40581 0.0
C1775 C 0.01224 0.82038 0.39121 0.0
C1776 C 0.99226 0.80835 0.38316 0.0
H1777 H 0.11874 0.79746 0.36856 0.0
H1778 H 0.08321 0.79352 0.37441 0.0
C1779 C 0.97309 0.80634 0.38964 0.0
C1780 C 0.03263 0.82162 0.38521 0.0
H1781 H 0.06726 0.83588 0.35311 0.0
C1782 C 0.04431 0.81599 0.39581 0.0
C1783 C 0.04119 0.82914 0.36965 0.0
C1784 C 0.03017 0.83653 0.35794 0.0
C1785 C 0.06416 0.81772 0.39142 0.0
C1786 C 0.07242 0.82464 0.37572 0.0
C1787 C 0.06083 0.83033 0.36507 0.0
C1788 C 0.09332 0.82652 0.3704 0.0
C1789 C 0.07641 0.81273 0.40389 0.0
C1790 C 0.11065 0.84616 0.36546 0.0
C1791 C 0.13089 0.84833 0.36184 0.0
C1792 C 0.13409 0.83084 0.36294 0.0
C1793 C 0.11665 0.81115 0.36754 0.0
C1794 C 0.09639 0.80893 0.37098 0.0
H1795 H 0.07119 0.81368 0.41632 0.0
H1796 H 0.07321 0.79635 0.40194 0.0
H1797 H 0.09415 0.82376 0.40299 0.0
H1798 H 0.10872 0.85997 0.36489 0.0
H1799 H 0.14417 0.8638 0.35865 0.0
H1800 H 0.20469 0.14817 0.38551 0.0
H1801 H 0.19118 0.17027 0.37379 0.0
H1802 H 0.2427 0.22528 0.39744 0.0
H1803 H 0.25636 0.20338 0.40905 0.0
H1804 H 0.17755 0.19572 0.39018 0.0
H1805 H 0.24735 0.24392 0.35025 0.0
H1806 H 0.2425 0.21927 0.35899 0.0
H1807 H 0.25517 0.2433 0.37073 0.0
C1808 C 0.21319 0.165 0.38812 0.0
C1809 C 0.23168 0.17416 0.3981 0.0
C1810 C 0.20545 0.17756 0.38144 0.0
C1811 C 0.21617 0.19944 0.38454 0.0
C1812 C 0.23448 0.20851 0.39462 0.0
H1813 H 0.2042 0.30852 0.37138 0.0
H1814 H 0.21355 0.28144 0.37779 0.0
C1815 C 0.24219 0.19599 0.40131 0.0
C1816 C 0.20798 0.21285 0.37773 0.0
H1817 H 0.22349 0.25746 0.3555 0.0
C1818 C 0.18741 0.20904 0.3824 0.0
C1819 C 0.22089 0.23013 0.36752 0.0
C1820 C 0.24262 0.23431 0.36144 0.0
C1821 C 0.17988 0.22276 0.3778 0.0
C1822 C 0.19319 0.24052 0.36814 0.0
C1823 C 0.2134 0.24386 0.36298 0.0
C1824 C 0.18712 0.25663 0.3641 0.0
C1825 C 0.1582 0.21873 0.38391 0.0
C1826 C 0.16919 0.25163 0.3542 0.0
C1827 C 0.16374 0.2671 0.35053 0.0
C1828 C 0.17623 0.28785 0.35662 0.0
C1829 C 0.19421 0.29274 0.36649 0.0
C1830 C 0.19963 0.27729 0.37014 0.0
H1831 H 0.15172 0.20656 0.39354 0.0
H1832 H 0.1595 0.23358 0.38867 0.0
H1833 H 0.14638 0.21305 0.3738 0.0
H1834 H 0.15948 0.23581 0.34928 0.0
H1835 H 0.14965 0.26274 0.34303 0.0
H1836 H 0.60791 0.51881 0.73952 0.0
H1837 H 0.64101 0.54784 0.72808 0.0
H1838 H 0.66026 0.50335 0.71201 0.0
H1839 H 0.62694 0.47412 0.72336 0.0
H1840 H 0.6818 0.55856 0.73799 0.0
H1841 H 0.67292 0.54073 0.67236 0.0
H1842 H 0.65037 0.52839 0.68613 0.0
H1843 H 0.6696 0.51932 0.68498 0.0
C1844 C 0.61909 0.51518 0.73342 0.0
C1845 C 0.61489 0.49419 0.73244 0.0
C1846 C 0.63797 0.53177 0.72683 0.0
C1847 C 0.65307 0.5278 0.71907 0.0
C1848 C 0.64865 0.50678 0.71764 0.0
H1849 H 0.7863 0.61503 0.68974 0.0
H1850 H 0.7511 0.58328 0.69461 0.0
C1851 C 0.62964 0.49009 0.72418 0.0
C1852 C 0.67419 0.5459 0.71386 0.0
H1853 H 0.70696 0.56894 0.68127 0.0
C1854 C 0.68723 0.56084 0.72557 0.0
C1855 C 0.68137 0.54877 0.69767 0.0
C1856 C 0.66779 0.53357 0.68451 0.0
C1857 C 0.70717 0.57857 0.72157 0.0
C1858 C 0.7142 0.58164 0.70538 0.0
C1859 C 0.70142 0.56656 0.69366 0.0
C1860 C 0.73473 0.60063 0.70055 0.0
C1861 C 0.72071 0.59379 0.73477 0.0
C1862 C 0.73701 0.62085 0.7019 0.0
C1863 C 0.75703 0.63896 0.69904 0.0
C1864 C 0.77501 0.63716 0.6945 0.0
C1865 C 0.77259 0.61688 0.69281 0.0
C1866 C 0.75253 0.59874 0.69565 0.0
H1867 H 0.71548 0.58672 0.74693 0.0
H1868 H 0.73812 0.59884 0.73324 0.0
H1869 H 0.71906 0.60813 0.73419 0.0
H1870 H 0.72343 0.62263 0.70558 0.0
H1871 H 0.75858 0.65443 0.7006 0.0
H1872 H 0.49806 0.09579 0.74109 0.0
H1873 H 0.46807 0.09952 0.73067 0.0
H1874 H 0.51297 0.16393 0.71694 0.0
H1875 H 0.5432 0.16025 0.72738 0.0
H1876 H 0.45661 0.12786 0.74236 0.0
H1877 H 0.47433 0.141 0.67691 0.0
H1878 H 0.48712 0.13055 0.68986 0.0
H1879 H 0.49624 0.15842 0.68998 0.0
C1880 C 0.50161 0.11071 0.73572 0.0
C1881 C 0.52305 0.12778 0.73518 0.0
C1882 C 0.48443 0.1128 0.72972 0.0
C1883 C 0.48819 0.13196 0.72293 0.0
C1884 C 0.50965 0.14885 0.72185 0.0
H1885 H 0.39763 0.17359 0.69239 0.0
H1886 H 0.43017 0.17149 0.69855 0.0
C1887 C 0.52694 0.14674 0.72783 0.0
C1888 C 0.46941 0.13455 0.71826 0.0
H1889 H 0.4452 0.14484 0.68663 0.0
C1890 C 0.45411 0.1315 0.73015 0.0
C1891 C 0.4662 0.13951 0.70237 0.0
C1892 C 0.48172 0.1424 0.68898 0.0
C1893 C 0.43576 0.13324 0.72664 0.0
C1894 C 0.43229 0.13777 0.71069 0.0
C1895 C 0.44777 0.14122 0.69883 0.0
C1896 C 0.41256 0.13875 0.70616 0.0
C1897 C 0.42043 0.13056 0.74014 0.0
C1898 C 0.39182 0.12099 0.70814 0.0
C1899 C 0.37323 0.12216 0.70458 0.0
C1900 C 0.37499 0.14096 0.69861 0.0
C1901 C 0.39575 0.15872 0.69657 0.0
C1902 C 0.41436 0.15756 0.70016 0.0
H1903 H 0.42834 0.13308 0.75213 0.0
H1904 H 0.41426 0.14178 0.73887 0.0
H1905 H 0.40638 0.11419 0.73979 0.0
H1906 H 0.38999 0.1062 0.71253 0.0
H1907 H 0.35742 0.10832 0.70642 0.0
H1908 H 0.90014 0.41494 0.71397 0.0
H1909 H 0.89221 0.38139 0.70134 0.0
H1910 H 0.87302 0.35034 0.74745 0.0
H1911 H 0.87997 0.38348 0.76 0.0
H1912 H 0.91124 0.35785 0.7077 0.0
H1913 H 0.82306 0.31012 0.71898 0.0
H1914 H 0.83801 0.33857 0.72126 0.0
H1915 H 0.83818 0.32182 0.7371 0.0
C1916 C 0.89379 0.40086 0.72135 0.0
C1917 C 0.89067 0.40187 0.73799 0.0
C1918 C 0.88942 0.38176 0.71414 0.0
C1919 C 0.88176 0.36332 0.72342 0.0
C1920 C 0.87849 0.36426 0.74 0.0
H1921 H 0.89172 0.25194 0.70599 0.0
H1922 H 0.89711 0.28656 0.71391 0.0
C1923 C 0.88275 0.38329 0.74719 0.0
C1924 C 0.87826 0.34334 0.71602 0.0
H1925 H 0.84102 0.29079 0.71211 0.0
C1926 C 0.89583 0.34322 0.7085 0.0
C1927 C 0.85805 0.32434 0.71686 0.0
C1928 C 0.8382 0.32372 0.72384 0.0
C1929 C 0.89394 0.32444 0.70228 0.0
C1930 C 0.8741 0.30523 0.70398 0.0
C1931 C 0.85632 0.30549 0.711 0.0
C1932 C 0.8714 0.28459 0.69874 0.0
C1933 C 0.91318 0.32541 0.69387 0.0
C1934 C 0.85479 0.27175 0.68791 0.0
C1935 C 0.85142 0.25181 0.68358 0.0
C1936 C 0.86469 0.24434 0.68991 0.0
C1937 C 0.88134 0.25726 0.70076 0.0
C1938 C 0.88457 0.27715 0.7052 0.0
H1939 H 0.92437 0.34157 0.68924 0.0
H1940 H 0.92236 0.32135 0.70258 0.0
H1941 H 0.90799 0.31401 0.68366 0.0
H1942 H 0.84429 0.27709 0.68291 0.0
H1943 H 0.83815 0.24215 0.67548 0.0
H1944 H 0.16034 0.95671 0.60016 0.0
H1945 H 0.18848 0.98975 0.61206 0.0
H1946 H 0.1769 0.95964 0.65851 0.0
H1947 H 0.14942 0.92609 0.64649 0.0
H1948 H 0.18778 0.01491 0.63513 0.0
H1949 H 0.24146 0.98403 0.65413 0.0
H1950 H 0.21836 0.96928 0.64108 0.0
H1951 H 0.21471 0.96981 0.66249 0.0
C1952 C 0.1639 0.957 0.61289 0.0
C1953 C 0.15283 0.93859 0.6223 0.0
C1954 C 0.1799 0.97598 0.61971 0.0
C1955 C 0.18517 0.97711 0.63612 0.0
C1956 C 0.17352 0.95904 0.64573 0.0
H1957 H 0.26521 0.09896 0.68416 0.0
H1958 H 0.2356 0.06441 0.67595 0.0
C1959 C 0.15758 0.93993 0.63888 0.0
C1960 C 0.20291 0.99724 0.64298 0.0
H1961 H 0.25203 0.01912 0.66208 0.0
C1962 C 0.20181 0.01582 0.64105 0.0
C1963 C 0.2214 0.9985 0.65047 0.0
C1964 C 0.22424 0.9794 0.65205 0.0
C1965 C 0.21864 0.03558 0.64636 0.0
C1966 C 0.23686 0.03675 0.65425 0.0
C1967 C 0.23798 0.01819 0.65618 0.0
C1968 C 0.2552 0.05718 0.66015 0.0
C1969 C 0.21701 0.05507 0.64296 0.0
C1970 C 0.27634 0.06428 0.65459 0.0
C1971 C 0.29352 0.0839 0.65961 0.0
C1972 C 0.28989 0.09683 0.67029 0.0
C1973 C 0.26874 0.08943 0.67607 0.0
C1974 C 0.25166 0.06973 0.6712 0.0
H1975 H 0.20548 0.05232 0.63296 0.0
H1976 H 0.21102 0.05932 0.65387 0.0
H1977 H 0.23306 0.06875 0.63977 0.0
H1978 H 0.2795 0.05482 0.64612 0.0
H1979 H 0.30956 0.08903 0.65491 0.0
H1980 H 0.0742 0.24627 0.61906 0.0
H1981 H 0.0405 0.24229 0.62982 0.0
H1982 H 0.02243 0.17973 0.64673 0.0
H1983 H 0.05638 0.18371 0.63601 0.0
H1984 H 0.99986 0.21298 0.62027 0.0
H1985 H 0.00884 0.20469 0.68592 0.0
H1986 H 0.03139 0.21424 0.67216 0.0
H1987 H 0.01219 0.18637 0.67342 0.0
C1988 C 0.06312 0.23168 0.62514 0.0
C1989 C 0.06794 0.21524 0.62655 0.0
C1990 C 0.04387 0.22946 0.63135 0.0
C1991 C 0.0289 0.21078 0.63921 0.0
C1992 C 0.03386 0.19448 0.64101 0.0
H1993 H 0.89596 0.16901 0.67061 0.0
H1994 H 0.93076 0.1711 0.66495 0.0
C1995 C 0.05326 0.19674 0.63484 0.0
C1996 C 0.00758 0.20804 0.64439 0.0
H1997 H 0.97483 0.19951 0.67701 0.0
C1998 C 0.99447 0.21009 0.6327 0.0
C1999 C 1.00037 0.20409 0.66059 0.0
C2000 C 0.01397 0.20239 0.6738 0.0
C2001 C 0.9745 0.20838 0.6367 0.0
C2002 C 0.96747 0.20482 0.65291 0.0
C2003 C 0.9803 0.20234 0.6646 0.0
C2004 C 0.94698 0.20402 0.65782 0.0
C2005 C 0.96095 0.21019 0.62346 0.0
C2006 C 0.94464 0.22194 0.65607 0.0
C2007 C 0.92484 0.2208 0.6594 0.0
C2008 C 0.90706 0.20184 0.66482 0.0
C2009 C 0.9095 0.18398 0.66685 0.0
C2010 C 0.92936 0.18513 0.66353 0.0
H2011 H 0.96591 0.20763 0.61135 0.0
H2012 H 0.94349 0.19855 0.62519 0.0
H2013 H 0.963 0.22631 0.62374 0.0
H2014 H 0.95806 0.23673 0.65182 0.0
H2015 H 0.92333 0.23473 0.65758 0.0
H2016 H 0.80797 0.84737 0.59951 0.0
H2017 H 0.81281 0.81938 0.61133 0.0
H2018 H 0.79348 0.83109 0.65771 0.0
H2019 H 0.7876 0.85849 0.64581 0.0
H2020 H 0.83934 0.82071 0.63541 0.0
H2021 H 0.75315 0.76776 0.65195 0.0
H2022 H 0.76173 0.79031 0.6389 0.0
H2023 H 0.76499 0.79395 0.66038 0.0
C2024 C 0.80451 0.84385 0.61219 0.0
C2025 C 0.79715 0.855 0.62167 0.0
C2026 C 0.80745 0.82796 0.61895 0.0
C2027 C 0.80314 0.82291 0.63532 0.0
C2028 C 0.79645 0.83443 0.64496 0.0
H2029 H 0.84455 0.74418 0.68549 0.0
H2030 H 0.83934 0.77329 0.67698 0.0
C2031 C 0.79338 0.85028 0.63819 0.0
C2032 C 0.80572 0.80557 0.64219 0.0
H2033 H 0.77817 0.75735 0.66051 0.0
C2034 C 0.82599 0.80686 0.64093 0.0
C2035 C 0.78817 0.78741 0.64917 0.0
C2036 C 0.76572 0.7846 0.65007 0.0
C2037 C 0.82921 0.79047 0.64643 0.0
C2038 C 0.81179 0.77252 0.65375 0.0
C2039 C 0.79152 0.77122 0.65502 0.0
C2040 C 0.81409 0.7546 0.65966 0.0
C2041 C 0.85104 0.79225 0.64391 0.0
C2042 C 0.80103 0.73422 0.65321 0.0
C2043 C 0.80363 0.71738 0.6583 0.0
C2044 C 0.81936 0.72062 0.66997 0.0
C2045 C 0.83214 0.74101 0.67661 0.0
C2046 C 0.82939 0.75778 0.67161 0.0
H2047 H 0.86054 0.80399 0.63444 0.0
H2048 H 0.86048 0.79755 0.65531 0.0
H2049 H 0.84925 0.77672 0.64045 0.0
H2050 H 0.78906 0.73143 0.64401 0.0
H2051 H 0.79349 0.7019 0.65294 0.0
H2052 H 0.05152 0.80423 0.61976 0.0
H2053 H 0.01625 0.77976 0.63157 0.0
H2054 H 0.0118 0.83263 0.65044 0.0
H2055 H 0.04719 0.85728 0.63861 0.0
H2056 H 1.00371 0.77669 0.6653 0.0
H2057 H 0.95431 0.79642 0.62438 0.0
H2058 H 0.98166 0.80292 0.61952 0.0
H2059 H 0.97703 0.81806 0.63445 0.0
C2060 C 0.04303 0.81064 0.62644 0.0
C2061 C 0.05208 0.83262 0.62825 0.0
C2062 C 0.02292 0.79666 0.63319 0.0
C2063 C 0.01134 0.80438 0.64176 0.0
C2064 C 0.02037 0.82636 0.64371 0.0
H2065 H 0.87654 0.72676 0.67394 0.0
H2066 H 0.91302 0.75722 0.67027 0.0
C2067 C 0.04062 0.84041 0.637 0.0
C2068 C 0.98986 0.7892 0.6486 0.0
H2069 H 0.93555 0.76949 0.64331 0.0
C2070 C 0.98879 0.77522 0.66062 0.0
C2071 C 0.97046 0.78744 0.64255 0.0
C2072 C 0.97073 0.80188 0.62945 0.0
C2073 C 0.96881 0.75921 0.66653 0.0
C2074 C 0.94932 0.75676 0.65996 0.0
C2075 C 0.95044 0.7713 0.64836 0.0
C2076 C 0.92769 0.73836 0.66394 0.0
C2077 C 0.96893 0.74507 0.67972 0.0
C2078 C 0.92371 0.7176 0.66166 0.0
C2079 C 0.90301 0.70024 0.66404 0.0
C2080 C 0.8858 0.70323 0.66869 0.0
C2081 C 0.88966 0.72396 0.67088 0.0
C2082 C 0.91046 0.74138 0.66863 0.0
H2083 H 0.98365 0.75356 0.6874 0.0
H2084 H 0.95444 0.73918 0.68749 0.0
H2085 H 0.96911 0.73127 0.67422 0.0
H2086 H 0.93646 0.7148 0.65749 0.0
H2087 H 0.90031 0.68443 0.66189 0.0
H2088 H 0.14804 0.18314 0.63983 0.0
H2089 H 0.17394 0.17232 0.6491 0.0
H2090 H 0.22711 0.23282 0.63457 0.0
H2091 H 0.2015 0.2436 0.62532 0.0
H2092 H 0.20714 0.17053 0.63012 0.0
H2093 H 0.24245 0.22633 0.68153 0.0
H2094 H 0.21671 0.21973 0.67251 0.0
H2095 H 0.24162 0.23882 0.66312 0.0
C2096 C 0.16525 0.19416 0.63877 0.0
C2097 C 0.17278 0.21429 0.63195 0.0
C2098 C 0.18002 0.18795 0.64403 0.0
C2099 C 0.20249 0.20188 0.64276 0.0
C2100 C 0.2099 0.22195 0.63597 0.0
H2101 H 0.32592 0.21036 0.65519 0.0
H2102 H 0.29451 0.21494 0.6505 0.0
C2103 C 0.19523 0.22806 0.63063 0.0
C2104 C 0.21844 0.19545 0.64784 0.0
H2105 H 0.26285 0.21066 0.67193 0.0
C2106 C 0.21913 0.17905 0.63943 0.0
C2107 C 0.23409 0.2066 0.65998 0.0
C2108 C 0.23362 0.22372 0.66993 0.0
C2109 C 0.2357 0.17425 0.64226 0.0
C2110 C 0.25181 0.18592 0.65403 0.0
C2111 C 0.25062 0.20179 0.66284 0.0
C2112 C 0.27068 0.18276 0.65682 0.0
C2113 C 0.23641 0.15741 0.63208 0.0
C2114 C 0.26781 0.16316 0.66196 0.0
C2115 C 0.28578 0.16055 0.66464 0.0
C2116 C 0.30695 0.17761 0.66254 0.0
C2117 C 0.30978 0.19708 0.65717 0.0
C2118 C 0.29185 0.19969 0.6545 0.0
H2119 H 0.22596 0.15345 0.62119 0.0
H2120 H 0.25323 0.16258 0.6282 0.0
H2121 H 0.23051 0.14277 0.6393 0.0
H2122 H 0.2517 0.14993 0.66407 0.0
H2123 H 0.28309 0.14521 0.66836 0.0
H2124 H 0.76728 0.95768 0.61877 0.0
H2125 H 0.77883 0.99281 0.63006 0.0
H2126 H 0.83368 0.99331 0.65264 0.0
H2127 H 0.82235 0.95822 0.64116 0.0
H2128 H 0.78486 0.00562 0.66245 0.0
H2129 H 0.8612 0.04914 0.62734 0.0
H2130 H 0.84028 0.02259 0.62217 0.0
H2131 H 0.85819 0.02697 0.63884 0.0
C2132 C 0.78181 0.96531 0.62614 0.0
C2133 C 0.79397 0.95533 0.62904 0.0
C2134 C 0.78836 0.98532 0.63258 0.0
C2135 C 0.80722 0.99573 0.64201 0.0
C2136 C 0.81927 0.98567 0.64516 0.0
H2137 H 0.86666 0.12347 0.68308 0.0
H2138 H 0.85802 0.08725 0.67686 0.0
C2139 C 0.81273 0.96561 0.63866 0.0
C2140 C 0.81405 0.01709 0.6485 0.0
H2141 H 0.85324 0.06912 0.64559 0.0
C2142 C 0.79986 0.01951 0.65884 0.0
C2143 C 0.83367 0.03511 0.6438 0.0
C2144 C 0.84919 0.03347 0.63233 0.0
C2145 C 0.80462 0.03956 0.66443 0.0
C2146 C 0.82391 0.05763 0.65934 0.0
C2147 C 0.83844 0.05518 0.64942 0.0
C2148 C 0.82879 0.07929 0.66353 0.0
C2149 C 0.78895 0.04126 0.6757 0.0
C2150 C 0.8153 0.08682 0.65793 0.0
C2151 C 0.82012 0.10746 0.66148 0.0
C2152 C 0.83855 0.12094 0.6707 0.0
C2153 C 0.85213 0.11338 0.67618 0.0
C2154 C 0.84731 0.09274 0.67258 0.0
H2155 H 0.77824 0.02598 0.68181 0.0
H2156 H 0.79772 0.05368 0.685 0.0
H2157 H 0.77854 0.04568 0.66868 0.0
H2158 H 0.80116 0.07678 0.65064 0.0
H2159 H 0.80939 0.1128 0.657 0.0
H2160 H 0.53811 0.38614 0.71715 0.0
H2161 H 0.51341 0.35067 0.70612 0.0
H2162 H 0.45948 0.351 0.72935 0.0
H2163 H 0.48394 0.38631 0.74027 0.0
H2164 H 0.48541 0.31297 0.72351 0.0
H2165 H 0.43897 0.33548 0.68237 0.0
H2166 H 0.46496 0.35463 0.69074 0.0
H2167 H 0.44077 0.34499 0.70262 0.0
C2168 C 0.52097 0.37868 0.71979 0.0
C2169 C 0.51287 0.389 0.72948 0.0
C2170 C 0.5069 0.35843 0.71351 0.0
C2171 C 0.48456 0.34836 0.7167 0.0
C2172 C 0.47657 0.35865 0.72645 0.0
H2173 H 0.36775 0.22946 0.70182 0.0
H2174 H 0.39614 0.26547 0.70861 0.0
C2175 C 0.49057 0.37876 0.73275 0.0
C2176 C 0.46951 0.32679 0.71036 0.0
H2177 H 0.42325 0.29862 0.68813 0.0
C2178 C 0.47198 0.30982 0.7156 0.0
C2179 C 0.45199 0.32275 0.70007 0.0
C2180 C 0.44907 0.34044 0.69348 0.0
C2181 C 0.45683 0.28879 0.71136 0.0
C2182 C 0.43899 0.28471 0.7014 0.0
C2183 C 0.43687 0.30176 0.69583 0.0
C2184 C 0.42191 0.26285 0.69705 0.0
C2185 C 0.45958 0.27107 0.71813 0.0
C2186 C 0.42691 0.24947 0.68814 0.0
C2187 C 0.41073 0.22882 0.68429 0.0
C2188 C 0.38915 0.2212 0.68913 0.0
C2189 C 0.38417 0.23475 0.69789 0.0
C2190 C 0.40037 0.25538 0.70176 0.0
H2191 H 0.47107 0.27647 0.72847 0.0
H2192 H 0.44378 0.2577 0.72214 0.0
H2193 H 0.46608 0.26508 0.70861 0.0
H2194 H 0.44334 0.25501 0.68414 0.0
H2195 H 0.41523 0.21879 0.67768 0.0
H2196 H 0.62378 0.13455 0.7152 0.0
H2197 H 0.65726 0.13759 0.70425 0.0
H2198 H 0.6912 0.1685 0.74805 0.0
H2199 H 0.6578 0.16501 0.75914 0.0
H2200 H 0.69762 0.17147 0.69812 0.0
H2201 H 0.70423 0.12079 0.7447 0.0
H2202 H 0.68013 0.12271 0.74215 0.0
H2203 H 0.70302 0.14283 0.75319 0.0
C2204 C 0.6384 0.14202 0.72246 0.0
C2205 C 0.63815 0.14942 0.73809 0.0
C2206 C 0.65754 0.14376 0.71619 0.0
C2207 C 0.67671 0.15288 0.72544 0.0
C2208 C 0.67655 0.16089 0.74082 0.0
H2209 H 0.80888 0.1968 0.69133 0.0
H2210 H 0.77405 0.19387 0.69793 0.0
C2211 C 0.65747 0.15903 0.74711 0.0
C2212 C 0.69686 0.15395 0.71916 0.0
H2213 H 0.73526 0.14059 0.7283 0.0
C2214 C 0.70578 0.16456 0.70463 0.0
C2215 C 0.70743 0.14474 0.72753 0.0
C2216 C 0.69811 0.13194 0.74267 0.0
C2217 C 0.72511 0.16656 0.6984 0.0
C2218 C 0.73618 0.15804 0.70709 0.0
C2219 C 0.727 0.14719 0.72154 0.0
C2220 C 0.75711 0.15987 0.70159 0.0
C2221 C 0.73307 0.17742 0.68241 0.0
C2222 C 0.75968 0.14193 0.70169 0.0
C2223 C 0.77981 0.14374 0.69839 0.0
C2224 C 0.79775 0.16341 0.69444 0.0
C2225 C 0.79519 0.18131 0.69389 0.0
C2226 C 0.77515 0.1796 0.69759 0.0
H2227 H 0.71954 0.17622 0.67493 0.0
H2228 H 0.7447 0.19449 0.68447 0.0
H2229 H 0.74133 0.17049 0.67557 0.0
H2230 H 0.74618 0.1265 0.70471 0.0
H2231 H 0.78142 0.12975 0.69908 0.0
H2232 H 0.86763 0.48086 0.72158 0.0
H2233 H 0.85554 0.50409 0.70993 0.0
H2234 H 0.90949 0.55819 0.73253 0.0
H2235 H 0.92179 0.53512 0.74405 0.0
H2236 H 0.84408 0.53074 0.72631 0.0
H2237 H 0.91353 0.57669 0.68551 0.0
H2238 H 0.90804 0.55191 0.69441 0.0
H2239 H 0.9216 0.5761 0.70592 0.0
C2240 C 0.87699 0.49772 0.72397 0.0
C2241 C 0.89574 0.50628 0.73364 0.0
C2242 C 0.87005 0.51094 0.71732 0.0
C2243 C 0.88184 0.53287 0.72015 0.0
C2244 C 0.90045 0.54137 0.7299 0.0
H2245 H 0.87273 0.64379 0.70585 0.0
H2246 H 0.88171 0.61653 0.71264 0.0
C2247 C 0.90738 0.52819 0.73654 0.0
C2248 C 0.87431 0.54689 0.71349 0.0
H2249 H 0.89063 0.59128 0.69081 0.0
C2250 C 0.85408 0.54381 0.71837 0.0
C2251 C 0.88741 0.56386 0.70309 0.0
C2252 C 0.90876 0.56725 0.69679 0.0
C2253 C 0.84705 0.5579 0.71372 0.0
C2254 C 0.86051 0.57528 0.70378 0.0
C2255 C 0.88042 0.57797 0.6985 0.0
C2256 C 0.8548 0.59154 0.69944 0.0
C2257 C 0.82572 0.55461 0.72 0.0
C2258 C 0.83676 0.5865 0.68967 0.0
C2259 C 0.83152 0.60205 0.68578 0.0
C2260 C 0.84435 0.62293 0.69151 0.0
C2261 C 0.86248 0.62789 0.70124 0.0
C2262 C 0.86769 0.61235 0.7051 0.0
H2263 H 0.81926 0.54283 0.7299 0.0
H2264 H 0.8275 0.56978 0.72445 0.0
H2265 H 0.81363 0.54876 0.71006 0.0
H2266 H 0.82677 0.57056 0.68503 0.0
H2267 H 0.81732 0.59764 0.67841 0.0
H2268 H 0.48675 0.92361 0.24953 0.0
H2269 H 0.49586 0.93923 0.22261 0.0
H2270 H 0.4287 0.90256 0.20849 0.0
H2271 H 0.41945 0.8866 0.2353 0.0
H2272 H 0.48864 0.91889 0.19184 0.0
H2273 H 0.44515 0.96411 0.19778 0.0
H2274 H 0.45159 0.95306 0.21493 0.0
H2275 H 0.42932 0.93624 0.20193 0.0
C2276 C 0.47392 0.91868 0.24066 0.0
C2277 C 0.45233 0.9039 0.24465 0.0
C2278 C 0.47916 0.92771 0.2253 0.0
C2279 C 0.46292 0.92229 0.21361 0.0
C2280 C 0.44142 0.90729 0.21742 0.0
H2281 H 0.46929 0.97325 0.11694 0.0
H2282 H 0.45689 0.95149 0.14133 0.0
C2283 C 0.43617 0.89822 0.23278 0.0
C2284 C 0.46857 0.93237 0.19747 0.0
H2285 H 0.4612 0.96557 0.17263 0.0
C2286 C 0.48262 0.92908 0.18762 0.0
C2287 C 0.4606 0.94555 0.19194 0.0
C2288 C 0.44596 0.95015 0.20221 0.0
C2289 C 0.48893 0.93861 0.17238 0.0
C2290 C 0.48135 0.95218 0.167 0.0
C2291 C 0.46698 0.95516 0.17674 0.0
C2292 C 0.48895 0.96428 0.1517 0.0
C2293 C 0.50346 0.93385 0.16213 0.0
C2294 C 0.51107 0.97869 0.14939 0.0
C2295 C 0.51819 0.991 0.13545 0.0
C2296 C 0.50334 0.98938 0.12353 0.0
C2297 C 0.48119 0.97473 0.12577 0.0
C2298 C 0.47407 0.96239 0.13975 0.0
H2299 H 0.50221 0.91855 0.16553 0.0
H2300 H 0.49944 0.93326 0.14914 0.0
H2301 H 0.52055 0.94652 0.16395 0.0
H2302 H 0.52283 0.98076 0.15855 0.0
H2303 H 0.53538 0.00194 0.13407 0.0
H2304 H 0.11979 0.53271 0.23507 0.0
H2305 H 0.10399 0.52659 0.20798 0.0
H2306 H 0.06262 0.55073 0.22325 0.0
H2307 H 0.07779 0.55636 0.25042 0.0
H2308 H 0.0574 0.50045 0.20052 0.0
H2309 H 0.09322 0.58427 0.18123 0.0
H2310 H 0.10453 0.57621 0.19738 0.0
H2311 H 0.08077 0.57828 0.20079 0.0
C2312 C 0.10725 0.53662 0.2327 0.0
C2313 C 0.10008 0.54506 0.24493 0.0
C2314 C 0.09837 0.53324 0.2172 0.0
C2315 C 0.08238 0.53847 0.21363 0.0
C2316 C 0.07525 0.54697 0.22573 0.0
H2317 H 1.00085 0.52979 0.13433 0.0
H2318 H 0.02129 0.53694 0.15947 0.0
C2319 C 0.08399 0.55022 0.24124 0.0
C2320 C 0.07234 0.53418 0.19746 0.0
H2321 H 0.0652 0.55827 0.16474 0.0
C2322 C 0.05923 0.51304 0.19258 0.0
C2323 C 0.07478 0.5507 0.18726 0.0
C2324 C 0.08922 0.57367 0.19181 0.0
C2325 C 0.0478 0.50793 0.17794 0.0
C2326 C 0.05002 0.52447 0.16778 0.0
C2327 C 0.06351 0.54563 0.17256 0.0
C2328 C 0.0379 0.52017 0.15242 0.0
C2329 C 0.03282 0.4849 0.17379 0.0
C2330 C 0.04067 0.50859 0.14005 0.0
C2331 C 0.02876 0.5042 0.12575 0.0
C2332 C 0.01406 0.51154 0.12348 0.0
C2333 C 0.01172 0.52355 0.13579 0.0
C2334 C 0.02353 0.52782 0.15011 0.0
H2335 H 0.02874 0.47459 0.18457 0.0
H2336 H 0.01752 0.48249 0.16829 0.0
H2337 H 0.0409 0.47968 0.16496 0.0
H2338 H 0.05201 0.5029 0.14145 0.0
H2339 H 0.03086 0.49477 0.11658 0.0
H2340 H 0.4384 0.54479 0.23335 0.0
H2341 H 0.44839 0.53789 0.20662 0.0
H2342 H 0.50982 0.54964 0.22561 0.0
H2343 H 0.49998 0.55656 0.25231 0.0
H2344 H 0.48978 0.56913 0.18912 0.0
H2345 H 0.4808 0.49001 0.20088 0.0
H2346 H 0.46668 0.50038 0.21248 0.0
H2347 H 0.495 0.51016 0.21595 0.0
C2348 C 0.45392 0.54565 0.23184 0.0
C2349 C 0.46843 0.55121 0.24489 0.0
C2350 C 0.45963 0.54181 0.21659 0.0
C2351 C 0.47976 0.54314 0.21422 0.0
C2352 C 0.49414 0.54839 0.22726 0.0
H2353 H 0.56 0.55589 0.13341 0.0
H2354 H 0.54372 0.55902 0.15851 0.0
C2355 C 0.48856 0.55245 0.24245 0.0
C2356 C 0.48621 0.53984 0.19801 0.0
H2357 H 0.49777 0.5068 0.17638 0.0
C2358 C 0.49136 0.55543 0.18626 0.0
C2359 C 0.48812 0.5219 0.19436 0.0
C2360 C 0.48224 0.50452 0.2065 0.0
C2361 C 0.49907 0.55385 0.17105 0.0
C2362 C 0.50164 0.53625 0.16758 0.0
C2363 C 0.49583 0.52031 0.17914 0.0
C2364 C 0.5112 0.53456 0.15223 0.0
C2365 C 0.50467 0.57107 0.15881 0.0
C2366 C 0.49826 0.5197 0.14047 0.0
C2367 C 0.50749 0.51794 0.12608 0.0
C2368 C 0.52987 0.5308 0.12337 0.0
C2369 C 0.54276 0.54564 0.13523 0.0
C2370 C 0.53348 0.54754 0.14951 0.0
H2371 H 0.49837 0.58172 0.16231 0.0
H2372 H 0.52256 0.58075 0.15769 0.0
H2373 H 0.498 0.56406 0.1468 0.0
H2374 H 0.48104 0.50949 0.14242 0.0
H2375 H 0.49721 0.50624 0.11722 0.0
H2376 H 0.94571 0.48499 0.77937 0.0
H2377 H 0.96476 0.49278 0.80531 0.0
H2378 H 0.92414 0.42778 0.8197 0.0
H2379 H 0.90454 0.41993 0.79407 0.0
H2380 H 0.94337 0.48214 0.83956 0.0
H2381 H 0.99167 0.44433 0.82208 0.0
H2382 H 0.98037 0.45439 0.80738 0.0
H2383 H 0.96309 0.43 0.81758 0.0
C2384 C 0.94059 0.47242 0.78815 0.0
C2385 C 0.92368 0.45179 0.7846 0.0
C2386 C 0.95156 0.47689 0.8029 0.0
C2387 C 0.9459 0.46079 0.81426 0.0
C2388 C 0.92881 0.44033 0.81095 0.0
H2389 H 0.97789 0.4565 0.91355 0.0
H2390 H 0.96025 0.4542 0.88774 0.0
C2391 C 0.91775 0.43587 0.79627 0.0
C2392 C 0.95813 0.46517 0.82949 0.0
H2393 H 0.99438 0.45555 0.84917 0.0
C2394 C 0.95462 0.47645 0.84169 0.0
C2395 C 0.97286 0.45783 0.83206 0.0
C2396 C 0.97743 0.44606 0.81909 0.0
C2397 C 0.96516 0.48016 0.85665 0.0
C2398 C 0.97943 0.47228 0.85938 0.0
C2399 C 0.98335 0.46148 0.84701 0.0
C2400 C 0.99008 0.4746 0.87515 0.0
C2401 C 0.96102 0.49246 0.86942 0.0
C2402 C 0.01271 0.48665 0.87651 0.0
C2403 C 0.02286 0.48814 0.89127 0.0
C2404 C 0.01054 0.4774 0.90489 0.0
C2405 C 0.98783 0.4653 0.90341 0.0
C2406 C 0.97771 0.46392 0.88867 0.0
H2407 H 0.95357 0.5014 0.86428 0.0
H2408 H 0.94974 0.48128 0.87853 0.0
H2409 H 0.97632 0.50375 0.87569 0.0
H2410 H 0.0225 0.49493 0.86615 0.0
H2411 H 0.04034 0.4978 0.89204 0.0
H2412 H 0.56929 0.49745 0.77597 0.0
H2413 H 0.55997 0.5031 0.80318 0.0
H2414 H 0.55789 0.44575 0.81899 0.0
H2415 H 0.56631 0.43962 0.79155 0.0
H2416 H 0.52481 0.44686 0.83043 0.0
H2417 H 0.59658 0.52516 0.84241 0.0
H2418 H 0.58293 0.52591 0.82449 0.0
H2419 H 0.59495 0.50925 0.8252 0.0
C2420 C 0.56704 0.48618 0.78532 0.0
C2421 C 0.5686 0.46816 0.78172 0.0
C2422 C 0.56187 0.48949 0.8009 0.0
C2423 C 0.55873 0.47514 0.8133 0.0
C2424 C 0.56036 0.45713 0.80969 0.0
H2425 H 0.54666 0.50946 0.91254 0.0
H2426 H 0.55952 0.50013 0.88832 0.0
C2427 C 0.56515 0.45362 0.79403 0.0
C2428 C 0.55262 0.47835 0.82977 0.0
H2429 H 0.56568 0.51543 0.85943 0.0
C2430 C 0.53393 0.46178 0.83684 0.0
C2431 C 0.56472 0.49761 0.83839 0.0
C2432 C 0.58604 0.51537 0.8323 0.0
C2433 C 0.52656 0.46422 0.85195 0.0
C2434 C 0.5377 0.48405 0.85996 0.0
C2435 C 0.55688 0.50033 0.8532 0.0
C2436 C 0.52945 0.48851 0.87507 0.0
C2437 C 0.50703 0.44538 0.85918 0.0
C2438 C 0.50827 0.48514 0.87576 0.0
C2439 C 0.50067 0.48994 0.88973 0.0
C2440 C 0.51425 0.4988 0.90328 0.0
C2441 C 0.53556 0.50232 0.90252 0.0
C2442 C 0.54303 0.49718 0.88859 0.0
H2443 H 0.50548 0.43025 0.85479 0.0
H2444 H 0.50789 0.44563 0.87254 0.0
H2445 H 0.49216 0.44556 0.85546 0.0
H2446 H 0.49762 0.47904 0.86538 0.0
H2447 H 0.48409 0.4867 0.88987 0.0
H2448 H 0.5797 0.12616 0.79382 0.0
H2449 H 0.57136 0.10884 0.82022 0.0
H2450 H 0.50725 0.06342 0.8034 0.0
H2451 H 0.5157 0.07996 0.77692 0.0
H2452 H 0.54 0.10309 0.84199 0.0
H2453 H 0.52729 0.02511 0.82226 0.0
H2454 H 0.53987 0.0482 0.80952 0.0
H2455 H 0.5108 0.03279 0.81107 0.0
C2456 C 0.56394 0.11228 0.79567 0.0
C2457 C 0.54839 0.10446 0.7832 0.0
C2458 C 0.55915 0.10249 0.8108 0.0
C2459 C 0.53879 0.08461 0.81374 0.0
C2460 C 0.52323 0.0769 0.80135 0.0
H2461 H 0.46191 0.00769 0.89161 0.0
H2462 H 0.47739 0.02786 0.86697 0.0
C2463 C 0.528 0.08659 0.78625 0.0
C2464 C 0.53342 0.07431 0.82983 0.0
H2465 H 0.51317 0.02624 0.84826 0.0
C2466 C 0.53444 0.08636 0.84341 0.0
C2467 C 0.5263 0.05249 0.83172 0.0
C2468 C 0.52621 0.03895 0.81789 0.0
C2469 C 0.52757 0.07694 0.85865 0.0
C2470 C 0.51955 0.05497 0.86033 0.0
C2471 C 0.51917 0.04307 0.84689 0.0
C2472 C 0.51044 0.04375 0.87571 0.0
C2473 C 0.52813 0.09029 0.87276 0.0
C2474 C 0.52392 0.04609 0.88884 0.0
C2475 C 0.51514 0.03434 0.90295 0.0
C2476 C 0.49271 0.02002 0.90414 0.0
C2477 C 0.47928 0.01821 0.89104 0.0
C2478 C 0.48807 0.02983 0.87697 0.0
H2479 H 0.53271 0.10666 0.86913 0.0
H2480 H 0.51203 0.08286 0.8787 0.0
H2481 H 0.54007 0.09119 0.8818 0.0
H2482 H 0.54127 0.05663 0.88804 0.0
H2483 H 0.52601 0.03599 0.9127 0.0
H2484 H 0.08417 0.21941 0.56939 0.0
H2485 H 0.09322 0.2345 0.54228 0.0
H2486 H 0.16052 0.2714 0.55599 0.0
H2487 H 0.15163 0.25669 0.58316 0.0
H2488 H 0.11309 0.27759 0.5335 0.0
H2489 H 0.16244 0.24208 0.51411 0.0
H2490 H 0.14451 0.23248 0.53125 0.0
H2491 H 0.17075 0.25587 0.53306 0.0
C2492 C 0.1009 0.2308 0.56668 0.0
C2493 C 0.11718 0.23676 0.57849 0.0
C2494 C 0.10605 0.23932 0.55114 0.0
C2495 C 0.12759 0.25382 0.54703 0.0
C2496 C 0.14386 0.25986 0.55877 0.0
H2497 H 0.19904 0.33376 0.46793 0.0
H2498 H 0.18596 0.31291 0.49255 0.0
C2499 C 0.13873 0.25141 0.57432 0.0
C2500 C 0.133 0.2633 0.53067 0.0
H2501 H 0.16436 0.26975 0.4977 0.0
C2502 C 0.12411 0.2757 0.52558 0.0
C2503 C 0.14738 0.26081 0.52036 0.0
C2504 C 0.15669 0.24693 0.52487 0.0
C2505 C 0.12987 0.28636 0.51073 0.0
C2506 C 0.14458 0.2842 0.50055 0.0
C2507 C 0.1531 0.27141 0.5055 0.0
C2508 C 0.1523 0.29603 0.48514 0.0
C2509 C 0.12083 0.30053 0.5064 0.0
C2510 C 0.13781 0.29316 0.47258 0.0
C2511 C 0.14523 0.30525 0.45849 0.0
C2512 C 0.16733 0.32038 0.45667 0.0
C2513 C 0.18186 0.32259 0.46905 0.0
C2514 C 0.17444 0.31056 0.4831 0.0
H2515 H 0.11391 0.30431 0.51704 0.0
H2516 H 0.13355 0.3156 0.50106 0.0
H2517 H 0.10769 0.29238 0.49735 0.0
H2518 H 0.12071 0.28172 0.47374 0.0
H2519 H 0.13358 0.30316 0.44923 0.0
H2520 H 0.78354 0.86059 0.56591 0.0
H2521 H 0.76489 0.85237 0.53999 0.0
H2522 H 0.7331 0.88712 0.55391 0.0
H2523 H 0.75006 0.89375 0.58037 0.0
H2524 H 0.70536 0.85222 0.54047 0.0
H2525 H 0.77787 0.88873 0.50148 0.0
H2526 H 0.77754 0.86871 0.51415 0.0
H2527 H 0.77964 0.89225 0.52305 0.0
C2528 C 0.77239 0.86629 0.56357 0.0
C2529 C 0.76841 0.87791 0.57532 0.0
C2530 C 0.76205 0.86192 0.54858 0.0
C2531 C 0.74798 0.86955 0.54481 0.0
C2532 C 0.74404 0.88121 0.55646 0.0
H2533 H 0.70087 0.8705 0.44817 0.0
H2534 H 0.7207 0.87949 0.47383 0.0
C2535 C 0.75399 0.8852 0.57157 0.0
C2536 C 0.73651 0.8646 0.52906 0.0
H2537 H 0.74403 0.86619 0.48836 0.0
C2538 C 0.71386 0.85544 0.52907 0.0
C2539 C 0.74759 0.86908 0.51417 0.0
C2540 C 0.77201 0.88044 0.51319 0.0
C2541 C 0.70197 0.8505 0.51467 0.0
C2542 C 0.71292 0.85391 0.4998 0.0
C2543 C 0.7356 0.86328 0.49976 0.0
C2544 C 0.70121 0.84827 0.48415 0.0
C2545 C 0.67788 0.84223 0.51562 0.0
C2546 C 0.68396 0.82765 0.48129 0.0
C2547 C 0.67237 0.82268 0.46682 0.0
C2548 C 0.67828 0.83806 0.45477 0.0
C2549 C 0.69607 0.85842 0.45733 0.0
C2550 C 0.70737 0.86352 0.47194 0.0
H2551 H 0.67348 0.84709 0.52705 0.0
H2552 H 0.67216 0.84798 0.5054 0.0
H2553 H 0.66913 0.82466 0.51527 0.0
H2554 H 0.67938 0.81541 0.49027 0.0
H2555 H 0.65888 0.80678 0.46496 0.0
H2556 H 0.12198 0.85557 0.58046 0.0
H2557 H 0.13276 0.84837 0.55426 0.0
H2558 H 0.15685 0.91331 0.54033 0.0
H2559 H 0.14532 0.92041 0.56616 0.0
H2560 H 0.13456 0.88543 0.51585 0.0
H2561 H 0.19541 0.86793 0.54258 0.0
H2562 H 0.16833 0.85163 0.54996 0.0
H2563 H 0.18256 0.87962 0.55408 0.0
C2564 C 0.12929 0.86824 0.57174 0.0
C2565 C 0.13301 0.88864 0.5755 0.0
C2566 C 0.13567 0.86416 0.55683 0.0
C2567 C 0.14603 0.88042 0.54547 0.0
C2568 C 0.14906 0.90057 0.54897 0.0
H2569 H 0.22967 0.89091 0.46691 0.0
H2570 H 0.2131 0.89378 0.49186 0.0
C2571 C 0.14262 0.90464 0.56381 0.0
C2572 C 0.1542 0.87673 0.53006 0.0
H2573 H 0.19025 0.86361 0.5144 0.0
C2574 C 0.14668 0.88058 0.51551 0.0
C2575 C 0.17023 0.8707 0.52966 0.0
C2576 C 0.17979 0.86741 0.54489 0.0
C2577 C 0.15482 0.87864 0.50058 0.0
C2578 C 0.17061 0.87229 0.50019 0.0
C2579 C 0.17804 0.86834 0.51473 0.0
C2580 C 0.18037 0.8705 0.48489 0.0
C2581 C 0.14694 0.88409 0.48542 0.0
C2582 C 0.16749 0.85634 0.4727 0.0
C2583 C 0.17693 0.8547 0.45839 0.0
C2584 C 0.19946 0.86702 0.45609 0.0
C2585 C 0.21231 0.88105 0.46838 0.0
C2586 C 0.20285 0.88276 0.48262 0.0
H2587 H 0.1392 0.89374 0.48805 0.0
H2588 H 0.16049 0.89295 0.47688 0.0
H2589 H 0.13471 0.86924 0.47941 0.0
H2590 H 0.15018 0.84636 0.47433 0.0
H2591 H 0.16665 0.84351 0.44926 0.0
H2592 H 0.56955 0.7946 0.12509 0.0
H2593 H 0.58717 0.80251 0.15165 0.0
H2594 H 0.6375 0.79234 0.13256 0.0
H2595 H 0.62005 0.7845 0.10598 0.0
H2596 H 0.5972 0.77309 0.16943 0.0
H2597 H 0.66922 0.85167 0.15651 0.0
H2598 H 0.64461 0.84067 0.14465 0.0
H2599 H 0.66322 0.8311 0.14194 0.0
C2600 C 0.58451 0.79431 0.12654 0.0
C2601 C 0.59348 0.78897 0.11351 0.0
C2602 C 0.59448 0.79875 0.14168 0.0
C2603 C 0.61368 0.79818 0.14394 0.0
C2604 C 0.62279 0.79307 0.13095 0.0
H2605 H 0.67966 0.78605 0.2258 0.0
H2606 H 0.66093 0.78304 0.20031 0.0
C2607 C 0.61275 0.78845 0.11585 0.0
C2608 C 0.62373 0.80194 0.16007 0.0
H2609 H 0.66947 0.83536 0.18123 0.0
C2610 C 0.61291 0.78678 0.17209 0.0
C2611 C 0.64413 0.8199 0.16344 0.0
C2612 C 0.65598 0.8369 0.15102 0.0
C2613 C 0.62236 0.78877 0.1873 0.0
C2614 C 0.6431 0.80633 0.19047 0.0
C2615 C 0.65361 0.82186 0.17865 0.0
C2616 C 0.65445 0.80836 0.20582 0.0
C2617 C 0.61029 0.77202 0.19985 0.0
C2618 C 0.65714 0.82377 0.21718 0.0
C2619 C 0.66778 0.8255 0.23176 0.0
C2620 C 0.67611 0.81201 0.23505 0.0
C2621 C 0.67358 0.79677 0.22352 0.0
C2622 C 0.66279 0.79494 0.20903 0.0
H2623 H 0.59295 0.76163 0.19658 0.0
H2624 H 0.61787 0.762 0.20109 0.0
H2625 H 0.61127 0.77946 0.21176 0.0
H2626 H 0.65086 0.83431 0.21481 0.0
H2627 H 0.66968 0.8375 0.24039 0.0
H2628 H 0.19799 0.78672 0.11111 0.0
H2629 H 0.18744 0.79319 0.13762 0.0
H2630 H 0.25457 0.82763 0.1522 0.0
H2631 H 0.26529 0.82102 0.12575 0.0
H2632 H 0.19602 0.78138 0.16817 0.0
H2633 H 0.2322 0.86867 0.16286 0.0
H2634 H 0.2277 0.85177 0.14561 0.0
H2635 H 0.25023 0.85866 0.15888 0.0
C2636 C 0.21052 0.79558 0.11998 0.0
C2637 C 0.2325 0.80337 0.1163 0.0
C2638 C 0.20446 0.79934 0.13509 0.0
C2639 C 0.22023 0.81108 0.1468 0.0
C2640 C 0.24217 0.81887 0.14322 0.0
H2641 H 0.20781 0.84986 0.24415 0.0
H2642 H 0.22184 0.8433 0.21918 0.0
C2643 C 0.24827 0.8151 0.1281 0.0
C2644 C 0.21355 0.81473 0.16285 0.0
H2645 H 0.21641 0.85336 0.18786 0.0
C2646 C 0.20047 0.79711 0.17249 0.0
C2647 C 0.21952 0.83528 0.16848 0.0
C2648 C 0.23304 0.85471 0.15841 0.0
C2649 C 0.19317 0.79948 0.18764 0.0
C2650 C 0.19874 0.82 0.19313 0.0
C2651 C 0.21214 0.83765 0.18361 0.0
C2652 C 0.19023 0.82342 0.20847 0.0
C2653 C 0.17977 0.78001 0.1977 0.0
C2654 C 0.16783 0.81455 0.21068 0.0
C2655 C 0.15976 0.81814 0.22495 0.0
C2656 C 0.17395 0.83083 0.23728 0.0
C2657 C 0.19642 0.83976 0.235 0.0
C2658 C 0.20447 0.83615 0.2207 0.0
H2659 H 0.18228 0.76672 0.19407 0.0
H2660 H 0.18373 0.7834 0.21071 0.0
H2661 H 0.16234 0.77476 0.19601 0.0
H2662 H 0.15655 0.80501 0.20128 0.0
H2663 H 0.14238 0.81087 0.22635 0.0
H2664 H 0.23136 0.41829 0.11281 0.0
H2665 H 0.22191 0.40133 0.13929 0.0
H2666 H 0.18991 0.43645 0.15137 0.0
H2667 H 0.1999 0.45399 0.12517 0.0
H2668 H 0.21503 0.43491 0.17663 0.0
H2669 H 0.16062 0.35478 0.15111 0.0
H2670 H 0.18786 0.3676 0.14356 0.0
H2671 H 0.17075 0.37857 0.13926 0.0
C2672 C 0.22255 0.42261 0.12117 0.0
C2673 C 0.21623 0.43738 0.11679 0.0
C2674 C 0.21697 0.41273 0.13625 0.0
C2675 C 0.20488 0.41735 0.14721 0.0
C2676 C 0.19912 0.43253 0.14307 0.0
H2677 H 0.1264 0.34245 0.22661 0.0
H2678 H 0.14129 0.36277 0.20194 0.0
C2679 C 0.20469 0.44241 0.12802 0.0
C2680 C 0.19775 0.40606 0.16286 0.0
H2681 H 0.16612 0.35709 0.17929 0.0
C2682 C 0.20439 0.41789 0.17723 0.0
C2683 C 0.18364 0.38388 0.16361 0.0
C2684 C 0.17511 0.37043 0.14859 0.0
C2685 C 0.19732 0.40813 0.19234 0.0
C2686 C 0.18345 0.38591 0.19309 0.0
C2687 C 0.17686 0.37411 0.17871 0.0
C2688 C 0.1748 0.37458 0.20857 0.0
C2689 C 0.20424 0.42176 0.20733 0.0
C2690 C 0.18868 0.37453 0.2206 0.0
C2691 C 0.18018 0.36287 0.23477 0.0
C2692 C 0.15763 0.35087 0.2371 0.0
C2693 C 0.14383 0.35126 0.22512 0.0
C2694 C 0.15232 0.36293 0.21102 0.0
H2695 H 0.21048 0.43872 0.20449 0.0
H2696 H 0.19054 0.41642 0.21589 0.0
H2697 H 0.21739 0.42045 0.21342 0.0
H2698 H 0.20607 0.38307 0.21886 0.0
H2699 H 0.19124 0.3627 0.24367 0.0
H2700 H 0.79451 0.54848 0.90149 0.0
H2701 H 0.80412 0.56574 0.87503 0.0
H2702 H 0.78292 0.60897 0.89038 0.0
H2703 H 0.77345 0.59197 0.91684 0.0
H2704 H 0.77517 0.57356 0.85225 0.0
H2705 H 0.84824 0.64608 0.87488 0.0
H2706 H 0.83632 0.62116 0.88549 0.0
H2707 H 0.82372 0.63718 0.88625 0.0
C2708 C 0.79194 0.56169 0.89922 0.0
C2709 C 0.78327 0.5689 0.91128 0.0
C2710 C 0.79731 0.57143 0.88409 0.0
C2711 C 0.79435 0.58869 0.88082 0.0
C2712 C 0.78543 0.59573 0.89272 0.0
H2713 H 0.8281 0.68013 0.80469 0.0
H2714 H 0.81546 0.65889 0.82919 0.0
C2715 C 0.77991 0.58592 0.90779 0.0
C2716 C 0.80099 0.59971 0.8651 0.0
H2717 H 0.83777 0.64657 0.84796 0.0
C2718 C 0.78891 0.58948 0.85123 0.0
C2719 C 0.81889 0.62046 0.86388 0.0
C2720 C 0.83271 0.63191 0.87836 0.0
C2721 C 0.79392 0.59974 0.8362 0.0
C2722 C 0.81181 0.62059 0.83498 0.0
C2723 C 0.82403 0.63064 0.84887 0.0
C2724 C 0.81802 0.63259 0.81958 0.0
C2725 C 0.77958 0.58841 0.82192 0.0
C2726 C 0.82354 0.62485 0.80591 0.0
C2727 C 0.83065 0.63696 0.79181 0.0
C2728 C 0.83271 0.65717 0.79121 0.0
C2729 C 0.8269 0.66472 0.80483 0.0
C2730 C 0.81963 0.65257 0.81883 0.0
H2731 H 0.76345 0.57536 0.82573 0.0
H2732 H 0.77717 0.59952 0.81424 0.0
H2733 H 0.78736 0.58138 0.81451 0.0
H2734 H 0.82294 0.60972 0.80628 0.0
H2735 H 0.83526 0.63084 0.78158 0.0
H2736 H 0.41641 0.22753 0.91396 0.0
H2737 H 0.39783 0.22002 0.88792 0.0
H2738 H 0.42886 0.18495 0.87308 0.0
H2739 H 0.44785 0.19267 0.89903 0.0
H2740 H 0.41822 0.2307 0.85662 0.0
H2741 H 0.36306 0.14404 0.86457 0.0
H2742 H 0.37648 0.16174 0.88133 0.0
H2743 H 0.39137 0.15381 0.86841 0.0
C2744 C 0.41939 0.21832 0.90513 0.0
C2745 C 0.43362 0.21071 0.90855 0.0
C2746 C 0.40868 0.21396 0.89031 0.0
C2747 C 0.41184 0.20178 0.87869 0.0
C2748 C 0.42596 0.19409 0.88203 0.0
H2749 H 0.35648 0.15989 0.78283 0.0
H2750 H 0.37711 0.16649 0.80788 0.0
C2751 C 0.43675 0.19848 0.89685 0.0
C2752 C 0.40075 0.19766 0.86293 0.0
H2753 H 0.36212 0.15848 0.83934 0.0
C2754 C 0.40595 0.21492 0.85281 0.0
C2755 C 0.3849 0.17704 0.85802 0.0
C2756 C 0.37843 0.15805 0.86866 0.0
C2757 C 0.39569 0.21212 0.83783 0.0
C2758 C 0.37948 0.19155 0.83306 0.0
C2759 C 0.37452 0.17423 0.84308 0.0
C2760 C 0.36714 0.18773 0.81786 0.0
C2761 C 0.40252 0.23115 0.82717 0.0
C2762 C 0.35451 0.19729 0.81528 0.0
C2763 C 0.34288 0.19371 0.80095 0.0
C2764 C 0.34351 0.18035 0.78896 0.0
C2765 C 0.35593 0.17054 0.7917 0.0
C2766 C 0.36761 0.17417 0.80604 0.0
H2767 H 0.41897 0.24426 0.83038 0.0
H2768 H 0.40243 0.22698 0.81428 0.0
H2769 H 0.39099 0.23707 0.8287 0.0
H2770 H 0.3536 0.20748 0.8244 0.0
H2771 H 0.33361 0.20163 0.79917 0.0
H2772 H 0.76776 0.21241 0.90018 0.0
H2773 H 0.77683 0.20366 0.87383 0.0
H2774 H 0.84099 0.22206 0.89119 0.0
H2775 H 0.83182 0.22994 0.91762 0.0
H2776 H 0.8084 0.22959 0.85268 0.0
H2777 H 0.82262 0.16479 0.87148 0.0
H2778 H 0.8093 0.17479 0.88431 0.0
H2779 H 0.83844 0.18843 0.88312 0.0
C2780 C 0.78368 0.21424 0.89846 0.0
C2781 C 0.79906 0.22187 0.91104 0.0
C2782 C 0.78888 0.20937 0.88337 0.0
C2783 C 0.80948 0.21188 0.88061 0.0
C2784 C 0.82484 0.21954 0.89312 0.0
H2785 H 0.88933 0.21592 0.80263 0.0
H2786 H 0.87295 0.21896 0.82761 0.0
C2787 C 0.81965 0.22433 0.90818 0.0
C2788 C 0.81538 0.20739 0.86451 0.0
H2789 H 0.83723 0.18061 0.8458 0.0
C2790 C 0.81439 0.21864 0.85112 0.0
C2791 C 0.82309 0.193 0.86245 0.0
C2792 C 0.82322 0.1794 0.87608 0.0
C2793 C 0.82183 0.21659 0.83591 0.0
C2794 C 0.83041 0.20294 0.83409 0.0
C2795 C 0.83079 0.1912 0.84731 0.0
C2796 C 0.84002 0.20133 0.81873 0.0
C2797 C 0.82125 0.22956 0.822 0.0
C2798 C 0.82686 0.19037 0.80549 0.0
C2799 C 0.83614 0.18834 0.79121 0.0
C2800 C 0.85877 0.19729 0.78994 0.0
C2801 C 0.87185 0.2085 0.80324 0.0
C2802 C 0.86255 0.21039 0.8175 0.0
H2803 H 0.81603 0.24096 0.82576 0.0
H2804 H 0.83753 0.23847 0.81638 0.0
H2805 H 0.80981 0.21884 0.81266 0.0
H2806 H 0.8094 0.18311 0.80629 0.0
H2807 H 0.82554 0.17935 0.78132 0.0
H2808 H 0.23956 0.12844 0.45958 0.0
H2809 H 0.25597 0.13523 0.48658 0.0
H2810 H 0.30614 0.1241 0.46852 0.0
H2811 H 0.28991 0.11737 0.44157 0.0
H2812 H 0.26427 0.10456 0.5044 0.0
H2813 H 0.33808 0.18254 0.49358 0.0
H2814 H 0.31404 0.17247 0.48115 0.0
H2815 H 0.33225 0.16238 0.47867 0.0
C2816 C 0.25424 0.12771 0.46136 0.0
C2817 C 0.26348 0.12238 0.44852 0.0
C2818 C 0.26351 0.1315 0.47675 0.0
C2819 C 0.28233 0.13033 0.47944 0.0
C2820 C 0.29174 0.12529 0.46661 0.0
H2821 H 0.34251 0.11221 0.5626 0.0
H2822 H 0.3249 0.11049 0.53681 0.0
C2823 C 0.28238 0.12131 0.45128 0.0
C2824 C 0.29164 0.13334 0.4958 0.0
H2825 H 0.33702 0.16497 0.51797 0.0
C2826 C 0.28007 0.11785 0.50745 0.0
C2827 C 0.31219 0.15078 0.49968 0.0
C2828 C 0.32487 0.16813 0.48769 0.0
C2829 C 0.2889 0.11899 0.52279 0.0
C2830 C 0.3098 0.136 0.52647 0.0
C2831 C 0.32105 0.15188 0.51502 0.0
C2832 C 0.3205 0.13719 0.54201 0.0
C2833 C 0.27595 0.10194 0.53494 0.0
C2834 C 0.32409 0.15298 0.55329 0.0
C2835 C 0.33412 0.154 0.56802 0.0
C2836 C 0.34095 0.13939 0.57158 0.0
C2837 C 0.33758 0.12377 0.56012 0.0
C2838 C 0.32739 0.12267 0.54547 0.0
H2839 H 0.25858 0.09241 0.53144 0.0
H2840 H 0.28263 0.09111 0.53585 0.0
H2841 H 0.27711 0.10899 0.54704 0.0
H2842 H 0.31898 0.1644 0.55074 0.0
H2843 H 0.33672 0.16632 0.57656 0.0
H2844 H 0.90318 0.16225 0.443 0.0
H2845 H 0.89243 0.16954 0.46921 0.0
H2846 H 0.88485 0.11101 0.48771 0.0
H2847 H 0.89584 0.10371 0.46159 0.0
H2848 H 0.85167 0.1417 0.48569 0.0
H2849 H 0.92455 0.15748 0.52129 0.0
H2850 H 0.92473 0.15896 0.49955 0.0
H2851 H 0.9122 0.13365 0.50931 0.0
C2852 C 0.89945 0.15105 0.45271 0.0
C2853 C 0.90041 0.13243 0.45026 0.0
C2854 C 0.89323 0.15519 0.46763 0.0
C2855 C 0.88809 0.14093 0.48041 0.0
C2856 C 0.88903 0.12234 0.47804 0.0
H2857 H 0.84599 0.13939 0.57912 0.0
H2858 H 0.85904 0.13232 0.55383 0.0
C2859 C 0.89512 0.11811 0.46309 0.0
C2860 C 0.88098 0.14515 0.49605 0.0
H2861 H 0.89546 0.15657 0.53564 0.0
C2862 C 0.86125 0.14501 0.49662 0.0
C2863 C 0.89346 0.14928 0.51026 0.0
C2864 C 0.915 0.15003 0.51016 0.0
C2865 C 0.8535 0.1487 0.5111 0.0
C2866 C 0.86614 0.1532 0.5253 0.0
C2867 C 0.88583 0.15318 0.52474 0.0
C2868 C 0.85922 0.1581 0.54082 0.0
C2869 C 0.83161 0.14725 0.5111 0.0
C2870 C 0.85557 0.17527 0.54201 0.0
C2871 C 0.84805 0.17927 0.55638 0.0
C2872 C 0.84432 0.16636 0.56993 0.0
C2873 C 0.84879 0.14966 0.5689 0.0
C2874 C 0.85617 0.14557 0.55446 0.0
H2875 H 0.82149 0.13778 0.50072 0.0
H2876 H 0.82267 0.14 0.52241 0.0
H2877 H 0.83388 0.16341 0.51013 0.0
H2878 H 0.85841 0.18552 0.53178 0.0
H2879 H 0.84516 0.19251 0.5569 0.0
H2880 H 0.89055 0.75016 0.44577 0.0
H2881 H 0.87989 0.73249 0.47198 0.0
H2882 H 0.87203 0.78367 0.49042 0.0
H2883 H 0.88158 0.80074 0.46396 0.0
H2884 H 0.895 0.74136 0.50121 0.0
H2885 H 0.81439 0.73532 0.50151 0.0
H2886 H 0.83172 0.74411 0.48409 0.0
H2887 H 0.83599 0.76225 0.50036 0.0
C2888 C 0.88663 0.75763 0.45547 0.0
C2889 C 0.88668 0.77668 0.45285 0.0
C2890 C 0.88052 0.74754 0.47044 0.0
C2891 C 0.87458 0.75643 0.48313 0.0
C2892 C 0.87575 0.77606 0.48072 0.0
H2893 H 0.85947 0.70617 0.58155 0.0
H2894 H 0.87315 0.72842 0.55767 0.0
C2895 C 0.8814 0.78592 0.46565 0.0
C2896 C 0.86693 0.74498 0.49875 0.0
H2897 H 0.8252 0.72592 0.52569 0.0
C2898 C 0.8797 0.73793 0.50653 0.0
C2899 C 0.84679 0.74018 0.50564 0.0
C2900 C 0.83133 0.74566 0.49739 0.0
C2901 C 0.8729 0.7262 0.52089 0.0
C2902 C 0.85313 0.72206 0.52808 0.0
C2903 C 0.84045 0.72924 0.52034 0.0
C2904 C 0.8446 0.70931 0.54308 0.0
C2905 C 0.88665 0.7177 0.52782 0.0
C2906 C 0.82351 0.69174 0.54326 0.0
C2907 C 0.81531 0.67942 0.55711 0.0
C2908 C 0.82807 0.6841 0.57116 0.0
C2909 C 0.84904 0.70202 0.57107 0.0
C2910 C 0.8571 0.7146 0.55726 0.0
H2911 H 0.89736 0.71675 0.51854 0.0
H2912 H 0.89717 0.72852 0.53749 0.0
H2913 H 0.87645 0.70169 0.53302 0.0
H2914 H 0.81339 0.68739 0.53257 0.0
H2915 H 0.79888 0.66618 0.55674 0.0
loop_
_geom_bond_atom_site_label_1
_geom_bond_atom_site_label_2
_geom_bond_distance
_geom_bond_site_symmetry_2
_ccdc_geom_bond_type
H0 C5 0.930 . S
H1 C8 0.930 . S
H2 C10 0.930 . S
H3 C4 1.016 . S
C4 H3 1.016 . S
C4 N11 1.286 . S
C5 H0 0.930 . S
C5 C6 1.397 . S
C5 C7 1.361 . S
C6 C5 1.397 . S
C6 C10 1.390 . S
C7 C5 1.361 . S
C7 C8 1.393 . S
C7 N11 1.413 . S
C8 H1 0.930 . S
C8 C7 1.393 . S
C8 C9 1.399 . S
C9 C8 1.399 . S
C9 C10 1.381 . S
C10 H2 0.930 . S
C10 C6 1.390 . S
C10 C9 1.381 . S
N11 C4 1.286 . S
N11 C7 1.413 . S
H12 C17 0.930 . S
H13 C20 0.930 . S
H14 C22 0.930 . S
H15 C16 1.016 . S
C16 H15 1.016 . S
C16 N23 1.286 . S
C17 H12 0.930 . S
C17 C18 1.397 . S
C17 C19 1.361 . S
C18 C17 1.397 . S
C18 C22 1.390 . S
C19 C17 1.361 . S
C19 C20 1.393 . S
C19 N23 1.413 . S
C20 H13 0.930 . S
C20 C19 1.393 . S
C20 C21 1.399 . S
C21 C20 1.399 . S
C21 C22 1.381 . S
C22 H14 0.930 . S
C22 C18 1.390 . S
C22 C21 1.381 . S
N23 C16 1.286 . S
N23 C19 1.413 . S
H24 C29 0.930 . S
H25 C32 0.930 . S
H26 C34 0.930 . S
H27 C28 1.016 . S
C28 H27 1.016 . S
C28 N35 1.286 . S
C29 H24 0.930 . S
C29 C30 1.397 . S
C29 C31 1.361 . S
C30 C29 1.397 . S
C30 C34 1.390 . S
C31 C29 1.361 . S
C31 C32 1.393 . S
C31 N35 1.413 . S
C32 H25 0.930 . S
C32 C31 1.393 . S
C32 C33 1.399 . S
C33 C32 1.399 . S
C33 C34 1.381 . S
C34 H26 0.930 . S
C34 C30 1.390 . S
C34 C33 1.381 . S
N35 C28 1.286 . S
N35 C31 1.413 . S
H36 C41 0.930 . S
H37 C44 0.930 . S
H38 C46 0.930 . S
H39 C40 1.016 . S
C40 H39 1.016 . S
C40 N47 1.286 . S
C41 H36 0.930 . S
C41 C42 1.397 . S
C41 C43 1.361 . S
C42 C41 1.397 . S
C42 C46 1.390 . S
C43 C41 1.361 . S
C43 C44 1.393 . S
C43 N47 1.413 . S
C44 H37 0.930 . S
C44 C43 1.393 . S
C44 C45 1.399 . S
C45 C44 1.399 . S
C45 C46 1.381 . S
C46 H38 0.930 . S
C46 C42 1.390 . S
C46 C45 1.381 . S
N47 C40 1.286 . S
N47 C43 1.413 . S
H48 C53 0.930 . S
H49 C56 0.930 . S
H50 C58 0.930 . S
H51 C52 1.016 . S
C52 H51 1.016 . S
C52 N59 1.286 . S
C53 H48 0.930 . S
C53 C54 1.397 . S
C53 C55 1.361 . S
C54 C53 1.397 . S
C54 C58 1.390 . S
C55 C53 1.361 . S
C55 C56 1.393 . S
C55 N59 1.413 . S
C56 H49 0.930 . S
C56 C55 1.393 . S
C56 C57 1.399 . S
C57 C56 1.399 . S
C57 C58 1.381 . S
C58 H50 0.930 . S
C58 C54 1.390 . S
C58 C57 1.381 . S
N59 C52 1.286 . S
N59 C55 1.413 . S
H60 C65 0.930 . S
H61 C68 0.930 . S
H62 C70 0.930 . S
H63 C64 1.016 . S
C64 H63 1.016 . S
C64 N71 1.286 . S
C65 H60 0.930 . S
C65 C66 1.397 . S
C65 C67 1.361 . S
C66 C65 1.397 . S
C66 C70 1.390 . S
C67 C65 1.361 . S
C67 C68 1.393 . S
C67 N71 1.413 . S
C68 H61 0.930 . S
C68 C67 1.393 . S
C68 C69 1.399 . S
C69 C68 1.399 . S
C69 C70 1.381 . S
C70 H62 0.930 . S
C70 C66 1.390 . S
C70 C69 1.381 . S
N71 C64 1.286 . S
N71 C67 1.413 . S
H72 C77 0.930 . S
H73 C80 0.930 . S
H74 C82 0.930 . S
H75 C76 1.016 . S
C76 H75 1.016 . S
C76 N83 1.286 . S
C77 H72 0.930 . S
C77 C78 1.397 . S
C77 C79 1.361 . S
C78 C77 1.397 . S
C78 C82 1.390 . S
C79 C77 1.361 . S
C79 C80 1.393 . S
C79 N83 1.413 . S
C80 H73 0.930 . S
C80 C79 1.393 . S
C80 C81 1.399 . S
C81 C80 1.399 . S
C81 C82 1.381 . S
C82 H74 0.930 . S
C82 C78 1.390 . S
C82 C81 1.381 . S
N83 C76 1.286 . S
N83 C79 1.413 . S
H84 C89 0.930 . S
H85 C92 0.930 . S
H86 C94 0.930 . S
H87 C88 1.016 . S
C88 H87 1.016 . S
C88 N95 1.286 . S
C89 H84 0.930 . S
C89 C90 1.397 . S
C89 C91 1.361 . S
C90 C89 1.397 . S
C90 C94 1.390 . S
C91 C89 1.361 . S
C91 C92 1.393 . S
C91 N95 1.413 . S
C92 H85 0.930 . S
C92 C91 1.393 . S
C92 C93 1.399 . S
C93 C92 1.399 . S
C93 C94 1.381 . S
C94 H86 0.930 . S
C94 C90 1.390 . S
C94 C93 1.381 . S
N95 C88 1.286 . S
N95 C91 1.413 . S
H96 C101 0.930 . S
H97 C104 0.930 . S
H98 C106 0.930 . S
H99 C100 1.016 . S
C100 H99 1.016 . S
C100 N107 1.286 . S
C101 H96 0.930 . S
C101 C102 1.397 . S
C101 C103 1.361 . S
C102 C101 1.397 . S
C102 C106 1.390 . S
C103 C101 1.361 . S
C103 C104 1.393 . S
C103 N107 1.413 . S
C104 H97 0.930 . S
C104 C103 1.393 . S
C104 C105 1.399 . S
C105 C104 1.399 . S
C105 C106 1.381 . S
C106 H98 0.930 . S
C106 C102 1.390 . S
C106 C105 1.381 . S
N107 C100 1.286 . S
N107 C103 1.413 . S
H108 C113 0.930 . S
H109 C116 0.930 . S
H110 C118 0.930 . S
H111 C112 1.016 . S
C112 H111 1.016 . S
C112 N119 1.286 . S
C113 H108 0.930 . S
C113 C114 1.397 . S
C113 C115 1.361 . S
C114 C113 1.397 . S
C114 C118 1.390 . S
C115 C113 1.361 . S
C115 C116 1.393 . S
C115 N119 1.413 . S
C116 H109 0.930 . S
C116 C115 1.393 . S
C116 C117 1.399 . S
C117 C116 1.399 . S
C117 C118 1.381 . S
C118 H110 0.930 . S
C118 C114 1.390 . S
C118 C117 1.381 . S
N119 C112 1.286 . S
N119 C115 1.413 . S
H120 C125 0.930 . S
H121 C128 0.930 . S
H122 C130 0.930 . S
H123 C124 1.016 . S
C124 H123 1.016 . S
C124 N131 1.286 . S
C125 H120 0.930 . S
C125 C126 1.397 . S
C125 C127 1.361 . S
C126 C125 1.397 . S
C126 C130 1.390 . S
C127 C125 1.361 . S
C127 C128 1.393 . S
C127 N131 1.413 . S
C128 H121 0.930 . S
C128 C127 1.393 . S
C128 C129 1.399 . S
C129 C128 1.399 . S
C129 C130 1.381 . S
C130 H122 0.930 . S
C130 C126 1.390 . S
C130 C129 1.381 . S
N131 C124 1.286 . S
N131 C127 1.413 . S
H132 C137 0.930 . S
H133 C140 0.930 . S
H134 C142 0.930 . S
H135 C136 1.016 . S
C136 H135 1.016 . S
C136 N143 1.286 . S
C137 H132 0.930 . S
C137 C138 1.397 . S
C137 C139 1.361 . S
C138 C137 1.397 . S
C138 C142 1.390 . S
C139 C137 1.361 . S
C139 C140 1.393 . S
C139 N143 1.413 . S
C140 H133 0.930 . S
C140 C139 1.393 . S
C140 C141 1.399 . S
C141 C140 1.399 . S
C141 C142 1.381 . S
C142 H134 0.930 . S
C142 C138 1.390 . S
C142 C141 1.381 . S
N143 C136 1.286 . S
N143 C139 1.413 . S
H144 C149 0.930 . S
H145 C152 0.930 . S
H146 C154 0.930 . S
H147 C148 1.016 . S
C148 H147 1.016 . S
C148 N155 1.286 . S
C149 H144 0.930 . S
C149 C150 1.397 . S
C149 C151 1.361 . S
C150 C149 1.397 . S
C150 C154 1.390 . S
C151 C149 1.361 . S
C151 C152 1.393 . S
C151 N155 1.413 . S
C152 H145 0.930 . S
C152 C151 1.393 . S
C152 C153 1.399 . S
C153 C152 1.399 . S
C153 C154 1.381 . S
C154 H146 0.930 . S
C154 C150 1.390 . S
C154 C153 1.381 . S
N155 C148 1.286 . S
N155 C151 1.413 . S
H156 C161 0.930 . S
H157 C164 0.930 . S
H158 C166 0.930 . S
H159 C160 1.016 . S
C160 H159 1.016 . S
C160 N167 1.286 . S
C161 H156 0.930 . S
C161 C162 1.397 . S
C161 C163 1.361 . S
C162 C161 1.397 . S
C162 C166 1.390 . S
C163 C161 1.361 . S
C163 C164 1.393 . S
C163 N167 1.413 . S
C164 H157 0.930 . S
C164 C163 1.393 . S
C164 C165 1.399 . S
C165 C164 1.399 . S
C165 C166 1.381 . S
C166 H158 0.930 . S
C166 C162 1.390 . S
C166 C165 1.381 . S
N167 C160 1.286 . S
N167 C163 1.413 . S
H168 C173 0.930 . S
H169 C176 0.930 . S
H170 C178 0.930 . S
H171 C172 1.016 . S
C172 H171 1.016 . S
C172 N179 1.286 . S
C173 H168 0.930 . S
C173 C174 1.397 . S
C173 C175 1.361 . S
C174 C173 1.397 . S
C174 C178 1.390 . S
C175 C173 1.361 . S
C175 C176 1.393 . S
C175 N179 1.413 . S
C176 H169 0.930 . S
C176 C175 1.393 . S
C176 C177 1.399 . S
C177 C176 1.399 . S
C177 C178 1.381 . S
C178 H170 0.930 . S
C178 C174 1.390 . S
C178 C177 1.381 . S
N179 C172 1.286 . S
N179 C175 1.413 . S
H180 C185 0.930 . S
H181 C188 0.930 . S
H182 C190 0.930 . S
H183 C184 1.016 . S
C184 H183 1.016 . S
C184 N191 1.286 . S
C185 H180 0.930 . S
C185 C186 1.397 . S
C185 C187 1.361 . S
C186 C185 1.397 . S
C186 C190 1.390 . S
C187 C185 1.361 . S
C187 C188 1.393 . S
C187 N191 1.413 . S
C188 H181 0.930 . S
C188 C187 1.393 . S
C188 C189 1.399 . S
C189 C188 1.399 . S
C189 C190 1.381 . S
C190 H182 0.930 . S
C190 C186 1.390 . S
C190 C189 1.381 . S
N191 C184 1.286 . S
N191 C187 1.413 . S
H192 C197 0.930 . S
H193 C200 0.930 . S
H194 C202 0.930 . S
H195 C196 1.016 . S
C196 H195 1.016 . S
C196 N203 1.286 . S
C197 H192 0.930 . S
C197 C198 1.397 . S
C197 C199 1.361 . S
C198 C197 1.397 . S
C198 C202 1.390 . S
C199 C197 1.361 . S
C199 C200 1.393 . S
C199 N203 1.413 . S
C200 H193 0.930 . S
C200 C199 1.393 . S
C200 C201 1.399 . S
C201 C200 1.399 . S
C201 C202 1.381 . S
C202 H194 0.930 . S
C202 C198 1.390 . S
C202 C201 1.381 . S
N203 C196 1.286 . S
N203 C199 1.413 . S
H204 C209 0.930 . S
H205 C212 0.930 . S
H206 C214 0.930 . S
H207 C208 1.016 . S
C208 H207 1.016 . S
C208 N215 1.286 . S
C209 H204 0.930 . S
C209 C210 1.397 . S
C209 C211 1.361 . S
C210 C209 1.397 . S
C210 C214 1.390 . S
C211 C209 1.361 . S
C211 C212 1.393 . S
C211 N215 1.413 . S
C212 H205 0.930 . S
C212 C211 1.393 . S
C212 C213 1.399 . S
C213 C212 1.399 . S
C213 C214 1.381 . S
C214 H206 0.930 . S
C214 C210 1.390 . S
C214 C213 1.381 . S
N215 C208 1.286 . S
N215 C211 1.413 . S
Eu216 N247 2.657 . S
Eu216 N254 2.609 . S
Eu216 O260 2.558 . S
Eu216 O261 2.612 1_566 S
Eu216 O263 2.339 1_565 S
Eu216 O264 2.563 1_565 S
Eu216 O265 2.419 1_565 S
Eu216 O267 2.380 1_556 S
Eu216 O268 2.432 1_556 S
Eu216 C280 2.848 1_565 S
C217 C220 1.429 . S
C217 C221 1.411 . S
C217 N224 1.377 . S
C218 C220 1.420 . S
C218 C222 1.423 . S
C218 C230 1.392 . S
C219 C221 1.420 . S
C219 C222 1.351 . S
C219 H242 0.931 . S
C220 C217 1.429 . S
C220 C218 1.420 . S
C220 N228 1.362 . S
C221 C217 1.411 . S
C221 C219 1.420 . S
C221 C226 1.395 . S
C222 C218 1.423 . S
C222 C219 1.351 . S
C222 H234 0.930 . S
C223 C225 1.400 . S
C223 C226 1.386 . S
C223 H235 0.930 . S
N224 C217 1.377 . S
N224 C225 1.321 . S
N224 Eu227 2.609 . S
C225 C223 1.400 . S
C225 N224 1.321 . S
C225 H232 0.930 . S
C226 C221 1.395 . S
C226 C223 1.386 . S
C226 H245 0.930 . S
Eu227 N224 2.609 . S
Eu227 N228 2.657 . S
Eu227 O261 2.380 . S
Eu227 O262 2.432 . S
Eu227 O266 2.558 . S
Eu227 O267 2.612 1_545 S
Eu227 O269 2.339 1_545 S
Eu227 O270 2.563 1_545 S
Eu227 O271 2.419 1_545 S
Eu227 C291 2.848 . S
N228 C220 1.362 . S
N228 Eu227 2.657 . S
N228 C229 1.334 . S
C229 N228 1.334 . S
C229 C231 1.413 . S
C229 H236 0.929 . S
C230 C218 1.392 . S
C230 C231 1.367 . S
C230 H238 0.930 . S
C231 C229 1.413 . S
C231 C230 1.367 . S
C231 H233 0.930 . S
H232 C225 0.930 . S
H233 C231 0.930 . S
H234 C222 0.930 . S
H235 C223 0.930 . S
H236 C229 0.929 . S
H237 C251 0.930 . S
H238 C230 0.930 . S
H239 C257 0.930 . S
H240 C248 0.911 1_545 S
H241 C255 0.930 . S
H242 C219 0.931 . S
H243 C249 0.930 . S
H244 C282 0.930 . S
H245 C226 0.930 . S
H246 C281 0.931 . S
N247 Eu216 2.657 . S
N247 C248 1.334 . S
N247 C252 1.362 . S
C248 H240 0.911 1_565 S
C248 N247 1.334 . S
C248 C251 1.413 . S
C249 H243 0.930 . S
C249 C250 1.392 . S
C249 C251 1.367 . S
C250 C249 1.392 . S
C250 C252 1.420 . S
C250 C282 1.423 . S
C251 H237 0.930 . S
C251 C248 1.413 . S
C251 C249 1.367 . S
C252 N247 1.362 . S
C252 C250 1.420 . S
C252 C256 1.429 . S
H253 C258 0.930 . S
N254 Eu216 2.609 . S
N254 C256 1.377 . S
N254 C257 1.321 . S
C255 H241 0.930 . S
C255 C257 1.400 . S
C255 C258 1.386 . S
C256 C252 1.429 . S
C256 N254 1.377 . S
C256 C259 1.411 . S
C257 H239 0.930 . S
C257 N254 1.321 . S
C257 C255 1.400 . S
C258 H253 0.930 . S
C258 C255 1.386 . S
C258 C259 1.395 . S
C259 C256 1.411 . S
C259 C258 1.395 . S
C259 C281 1.420 . S
O260 Eu216 2.558 . S
O260 C280 1.257 1_565 S
O261 Eu216 2.612 1_544 S
O261 Eu227 2.380 . S
O261 C272 1.276 1_554 S
O262 Eu227 2.432 . S
O262 C279 1.264 . S
O263 Eu216 2.339 1_545 S
O263 C279 1.254 1_556 S
O264 Eu216 2.563 1_545 S
O264 C272 1.235 . S
O265 Eu216 2.419 1_545 S
O265 C280 1.249 . S
O266 Eu227 2.558 . S
O266 C291 1.257 . S
O267 Eu216 2.380 1_554 S
O267 Eu227 2.612 1_565 S
O267 C283 1.276 . S
O268 Eu216 2.432 1_554 S
O268 C290 1.264 . S
O269 Eu227 2.339 1_565 S
O269 C290 1.254 . S
O270 Eu227 2.563 1_565 S
O270 C283 1.235 . S
O271 Eu227 2.419 1_565 S
O271 C291 1.249 1_565 S
C272 O261 1.276 1_556 S
C272 O264 1.235 . S
C273 C275 1.393 . S
C273 C277 1.395 1_545 S
C273 C280 1.492 . S
C274 C275 1.392 . S
C274 C276 1.386 . S
C275 C273 1.393 . S
C275 C274 1.392 . S
C275 H292 0.930 . S
C276 C274 1.386 . S
C276 C278 1.359 1_545 S
C276 H293 0.930 . S
C277 C273 1.395 1_565 S
C277 C278 1.386 . S
C277 H294 0.930 . S
C278 C276 1.359 1_565 S
C278 C277 1.386 . S
C278 H295 0.960 . S
C279 O262 1.264 . S
C279 O263 1.254 1_554 S
C280 Eu216 2.848 1_545 S
C280 O260 1.257 1_545 S
C280 O265 1.249 . S
C280 C273 1.492 . S
C281 H246 0.931 . S
C281 C259 1.420 . S
C281 C282 1.351 . S
C282 H244 0.930 . S
C282 C250 1.423 . S
C282 C281 1.351 . S
C283 O267 1.276 . S
C283 O270 1.235 . S
C284 C285 1.336 1_545 S
C284 C288 1.443 . S
C284 C291 1.501 . S
C285 C284 1.336 1_565 S
C285 C286 1.392 . S
C285 H296 0.930 . S
C286 C285 1.392 . S
C286 C287 1.386 . S
C287 C286 1.386 . S
C287 C289 1.395 1_565 S
C287 H297 0.930 . S
C288 C284 1.443 . S
C288 C289 1.379 . S
C288 H298 0.930 . S
C289 C287 1.395 1_545 S
C289 C288 1.379 . S
C289 H299 0.930 . S
C290 O268 1.264 . S
C290 O269 1.254 . S
C291 Eu227 2.848 . S
C291 O266 1.257 . S
C291 O271 1.249 1_545 S
C291 C284 1.501 . S
H292 C275 0.930 . S
H293 C276 0.930 . S
H294 C277 0.930 . S
H295 C278 0.960 . S
H296 C285 0.930 . S
H297 C287 0.930 . S
H298 C288 0.930 . S
H299 C289 0.930 . S
Eu300 N331 2.657 . S
Eu300 N338 2.609 . S
Eu300 O344 2.558 . S
Eu300 O345 2.612 1_456 S
Eu300 O347 2.339 1_455 S
Eu300 O348 2.563 1_455 S
Eu300 O349 2.419 . S
Eu300 O351 2.380 1_556 S
Eu300 O352 2.432 1_556 S
Eu300 C364 2.848 . S
C301 C304 1.429 . S
C301 C305 1.411 . S
C301 N308 1.377 . S
C302 C304 1.420 . S
C302 C306 1.423 . S
C302 C314 1.392 . S
C303 C305 1.420 . S
C303 C306 1.351 . S
C303 H326 0.931 . S
C304 C301 1.429 . S
C304 C302 1.420 . S
C304 N312 1.362 . S
C305 C301 1.411 . S
C305 C303 1.420 . S
C305 C310 1.395 . S
C306 C302 1.423 . S
C306 C303 1.351 . S
C306 H318 0.930 . S
C307 C309 1.400 . S
C307 C310 1.386 . S
C307 H319 0.930 . S
N308 C301 1.377 . S
N308 C309 1.321 . S
N308 Eu311 2.609 . S
C309 C307 1.400 . S
C309 N308 1.321 . S
C309 H316 0.930 . S
C310 C305 1.395 . S
C310 C307 1.386 . S
C310 H329 0.930 . S
Eu311 N308 2.609 . S
Eu311 N312 2.657 . S
Eu311 O345 2.380 . S
Eu311 O346 2.432 . S
Eu311 O350 2.558 . S
Eu311 O351 2.612 1_655 S
Eu311 O353 2.339 1_655 S
Eu311 O354 2.563 1_655 S
Eu311 O355 2.419 1_655 S
Eu311 C375 2.848 1_655 S
N312 C304 1.362 . S
N312 Eu311 2.657 . S
N312 C313 1.334 . S
C313 N312 1.334 . S
C313 C315 1.413 . S
C313 H320 0.882 1_655 S
C314 C302 1.392 . S
C314 C315 1.367 . S
C314 H322 0.930 . S
C315 C313 1.413 . S
C315 C314 1.367 . S
C315 H317 0.930 . S
H316 C309 0.930 . S
H317 C315 0.930 . S
H318 C306 0.930 . S
H319 C307 0.930 . S
H320 C313 0.882 1_455 S
H321 C335 0.930 . S
H322 C314 0.930 . S
H323 C341 0.930 . S
H324 C332 0.929 . S
H325 C339 0.930 . S
H326 C303 0.931 . S
H327 C333 0.930 . S
H328 C366 0.930 . S
H329 C310 0.930 . S
H330 C365 0.931 . S
N331 Eu300 2.657 . S
N331 C332 1.334 . S
N331 C336 1.362 . S
C332 H324 0.929 . S
C332 N331 1.334 . S
C332 C335 1.413 . S
C333 H327 0.930 . S
C333 C334 1.392 . S
C333 C335 1.367 . S
C334 C333 1.392 . S
C334 C336 1.420 . S
C334 C366 1.423 . S
C335 H321 0.930 . S
C335 C332 1.413 . S
C335 C333 1.367 . S
C336 N331 1.362 . S
C336 C334 1.420 . S
C336 C340 1.429 . S
H337 C342 0.930 . S
N338 Eu300 2.609 . S
N338 C340 1.377 . S
N338 C341 1.321 . S
C339 H325 0.930 . S
C339 C341 1.400 . S
C339 C342 1.386 . S
C340 C336 1.429 . S
C340 N338 1.377 . S
C340 C343 1.411 . S
C341 H323 0.930 . S
C341 N338 1.321 . S
C341 C339 1.400 . S
C342 H337 0.930 . S
C342 C339 1.386 . S
C342 C343 1.395 . S
C343 C340 1.411 . S
C343 C342 1.395 . S
C343 C365 1.420 . S
O344 Eu300 2.558 . S
O344 C364 1.257 . S
O345 Eu300 2.612 1_654 S
O345 Eu311 2.380 . S
O345 C356 1.276 1_554 S
O346 Eu311 2.432 . S
O346 C363 1.264 . S
O347 Eu300 2.339 1_655 S
O347 C363 1.254 1_556 S
O348 Eu300 2.563 1_655 S
O348 C356 1.235 . S
O349 Eu300 2.419 . S
O349 C364 1.249 . S
O350 Eu311 2.558 . S
O350 C375 1.257 1_655 S
O351 Eu300 2.380 1_554 S
O351 Eu311 2.612 1_455 S
O351 C367 1.276 . S
O352 Eu300 2.432 1_554 S
O352 C374 1.264 . S
O353 Eu311 2.339 1_455 S
O353 C374 1.254 . S
O354 Eu311 2.563 1_455 S
O354 C367 1.235 . S
O355 Eu311 2.419 1_455 S
O355 C375 1.249 . S
C356 O345 1.276 1_556 S
C356 O348 1.235 . S
C357 C359 1.393 1_455 S
C357 C361 1.395 . S
C357 C364 1.492 . S
C358 C359 1.392 . S
C358 C360 1.386 . S
C359 C357 1.393 1_655 S
C359 C358 1.392 . S
C359 H376 0.930 . S
C360 C358 1.386 . S
C360 C362 1.395 1_655 S
C360 H377 0.930 . S
C361 C357 1.395 . S
C361 C362 1.379 . S
C361 H378 0.930 . S
C362 C360 1.395 1_455 S
C362 C361 1.379 . S
C362 H379 0.930 . S
C363 O346 1.264 . S
C363 O347 1.254 1_554 S
C364 Eu300 2.848 . S
C364 O344 1.257 . S
C364 O349 1.249 . S
C364 C357 1.492 . S
C365 H330 0.931 . S
C365 C343 1.420 . S
C365 C366 1.351 . S
C366 H328 0.930 . S
C366 C334 1.423 . S
C366 C365 1.351 . S
C367 O351 1.276 . S
C367 O354 1.235 . S
C368 C369 1.393 . S
C368 C372 1.395 1_455 S
C368 C375 1.492 . S
C369 C368 1.393 . S
C369 C370 1.392 . S
C369 H380 0.930 . S
C370 C369 1.392 . S
C370 C371 1.386 . S
C371 C370 1.386 . S
C371 C373 1.395 1_455 S
C371 H381 0.930 . S
C372 C368 1.395 1_655 S
C372 C373 1.379 . S
C372 H382 0.930 . S
C373 C371 1.395 1_655 S
C373 C372 1.379 . S
C373 H383 0.930 . S
C374 O352 1.264 . S
C374 O353 1.254 . S
C375 Eu311 2.848 1_455 S
C375 O350 1.257 1_455 S
C375 O355 1.249 . S
C375 C368 1.492 . S
H376 C359 0.930 . S
H377 C360 0.930 . S
H378 C361 0.930 . S
H379 C362 0.930 . S
H380 C369 0.930 . S
H381 C371 0.930 . S
H382 C372 0.930 . S
H383 C373 0.930 . S
Eu384 N415 2.657 . S
Eu384 N422 2.609 . S
Eu384 O428 2.558 . S
Eu384 O429 2.612 . S
Eu384 O431 2.339 . S
Eu384 O432 2.563 . S
Eu384 O433 2.419 . S
Eu384 O435 2.380 . S
Eu384 O436 2.432 . S
Eu384 C448 2.848 . S
C385 C388 1.429 . S
C385 C389 1.411 . S
C385 N392 1.377 . S
C386 C388 1.420 . S
C386 C390 1.423 . S
C386 C398 1.392 . S
C387 C389 1.420 . S
C387 C390 1.351 . S
C387 H410 0.931 . S
C388 C385 1.429 . S
C388 C386 1.420 . S
C388 N396 1.362 . S
C389 C385 1.411 . S
C389 C387 1.420 . S
C389 C394 1.395 . S
C390 C386 1.423 . S
C390 C387 1.351 . S
C390 H402 0.930 . S
C391 C393 1.400 . S
C391 C394 1.386 . S
C391 H403 0.930 . S
N392 C385 1.377 . S
N392 C393 1.321 . S
N392 Eu395 2.609 . S
C393 C391 1.400 . S
C393 N392 1.321 . S
C393 H400 0.930 . S
C394 C389 1.395 . S
C394 C391 1.386 . S
C394 H413 0.930 . S
Eu395 N392 2.609 . S
Eu395 N396 2.657 . S
Eu395 O429 2.380 1_556 S
Eu395 O430 2.432 1_556 S
Eu395 O434 2.558 . S
Eu395 O435 2.612 1_556 S
Eu395 O437 2.339 . S
Eu395 O438 2.563 . S
Eu395 O439 2.419 . S
Eu395 C459 2.848 . S
N396 C388 1.362 . S
N396 Eu395 2.657 . S
N396 C397 1.334 . S
C397 N396 1.334 . S
C397 C399 1.413 . S
C397 H404 0.929 . S
C398 C386 1.392 . S
C398 C399 1.367 . S
C398 H406 0.930 . S
C399 C397 1.413 . S
C399 C398 1.367 . S
C399 H401 0.930 . S
H400 C393 0.930 . S
H401 C399 0.930 . S
H402 C390 0.930 . S
H403 C391 0.930 . S
H404 C397 0.929 . S
H405 C419 0.930 . S
H406 C398 0.930 . S
H407 C425 0.930 . S
H408 C416 0.929 . S
H409 C423 0.930 . S
H410 C387 0.931 . S
H411 C417 0.930 . S
H412 C450 0.930 . S
H413 C394 0.930 . S
H414 C449 0.931 . S
N415 Eu384 2.657 . S
N415 C416 1.334 . S
N415 C420 1.362 . S
C416 H408 0.929 . S
C416 N415 1.334 . S
C416 C419 1.413 . S
C417 H411 0.930 . S
C417 C418 1.392 . S
C417 C419 1.367 . S
C418 C417 1.392 . S
C418 C420 1.420 . S
C418 C450 1.423 . S
C419 H405 0.930 . S
C419 C416 1.413 . S
C419 C417 1.367 . S
C420 N415 1.362 . S
C420 C418 1.420 . S
C420 C424 1.429 . S
H421 C426 0.930 . S
N422 Eu384 2.609 . S
N422 C424 1.377 . S
N422 C425 1.321 . S
C423 H409 0.930 . S
C423 C425 1.400 . S
C423 C426 1.386 . S
C424 C420 1.429 . S
C424 N422 1.377 . S
C424 C427 1.411 . S
C425 H407 0.930 . S
C425 N422 1.321 . S
C425 C423 1.400 . S
C426 H421 0.930 . S
C426 C423 1.386 . S
C426 C427 1.395 . S
C427 C424 1.411 . S
C427 C426 1.395 . S
C427 C449 1.420 . S
O428 Eu384 2.558 . S
O428 C448 1.257 . S
O429 Eu384 2.612 . S
O429 Eu395 2.380 1_554 S
O429 C440 1.276 . S
O430 Eu395 2.432 1_554 S
O430 C447 1.264 . S
O431 Eu384 2.339 . S
O431 C447 1.254 . S
O432 Eu384 2.563 . S
O432 C440 1.235 . S
O433 Eu384 2.419 . S
O433 C448 1.249 . S
O434 Eu395 2.558 . S
O434 C459 1.257 . S
O435 Eu384 2.380 . S
O435 Eu395 2.612 1_554 S
O435 C451 1.244 1_554 S
O436 Eu384 2.432 . S
O436 C458 1.264 . S
O437 Eu395 2.339 . S
O437 C458 1.254 1_556 S
O438 Eu395 2.563 . S
O438 C451 1.278 . S
O439 Eu395 2.419 . S
O439 C459 1.249 . S
C440 O429 1.276 . S
C440 O432 1.235 . S
C441 C443 1.393 . S
C441 C445 1.395 . S
C441 C448 1.492 . S
C442 C443 1.392 . S
C442 C444 1.386 . S
C443 C441 1.393 . S
C443 C442 1.392 . S
C443 H460 0.930 . S
C444 C442 1.386 . S
C444 C446 1.395 . S
C444 H461 0.930 . S
C445 C441 1.395 . S
C445 C446 1.379 . S
C445 H462 0.930 . S
C446 C444 1.395 . S
C446 C445 1.379 . S
C446 H463 0.930 . S
C447 O430 1.264 . S
C447 O431 1.254 . S
C448 Eu384 2.848 . S
C448 O428 1.257 . S
C448 O433 1.249 . S
C448 C441 1.492 . S
C449 H414 0.931 . S
C449 C427 1.420 . S
C449 C450 1.351 . S
C450 H412 0.930 . S
C450 C418 1.423 . S
C450 C449 1.351 . S
C451 O435 1.244 1_556 S
C451 O438 1.278 . S
C452 C453 1.393 . S
C452 C456 1.395 . S
C452 C459 1.492 . S
C453 C452 1.393 . S
C453 C454 1.392 . S
C453 H464 0.930 . S
C454 C453 1.392 . S
C454 C455 1.386 . S
C455 C454 1.386 . S
C455 C457 1.395 . S
C455 H465 0.930 . S
C456 C452 1.395 . S
C456 C457 1.379 . S
C456 H466 0.930 . S
C457 C455 1.395 . S
C457 C456 1.379 . S
C457 H467 0.930 . S
C458 O436 1.264 . S
C458 O437 1.254 1_554 S
C459 Eu395 2.848 . S
C459 O434 1.257 . S
C459 O439 1.249 . S
C459 C452 1.492 . S
H460 C443 0.930 . S
H461 C444 0.930 . S
H462 C445 0.930 . S
H463 C446 0.930 . S
H464 C453 0.930 . S
H465 C455 0.930 . S
H466 C456 0.930 . S
H467 C457 0.930 . S
Eu468 N499 2.657 . S
Eu468 N506 2.609 . S
Eu468 O512 2.558 . S
Eu468 O513 2.612 . S
Eu468 O515 2.339 . S
Eu468 O516 2.563 . S
Eu468 O517 2.419 . S
Eu468 O519 2.380 . S
Eu468 O520 2.432 . S
Eu468 C532 2.848 . S
C469 C472 1.429 . S
C469 C473 1.411 . S
C469 N476 1.377 . S
C470 C472 1.420 . S
C470 C474 1.423 . S
C470 C482 1.392 . S
C471 C473 1.420 . S
C471 C474 1.351 . S
C471 H494 0.931 . S
C472 C469 1.429 . S
C472 C470 1.420 . S
C472 N480 1.362 . S
C473 C469 1.411 . S
C473 C471 1.420 . S
C473 C478 1.395 . S
C474 C470 1.423 . S
C474 C471 1.351 . S
C474 H486 0.930 . S
C475 C477 1.400 . S
C475 C478 1.386 . S
C475 H487 0.930 . S
N476 C469 1.377 . S
N476 C477 1.321 . S
N476 Eu479 2.609 . S
C477 C475 1.400 . S
C477 N476 1.321 . S
C477 H484 0.930 . S
C478 C473 1.395 . S
C478 C475 1.386 . S
C478 H497 0.930 . S
Eu479 N476 2.609 . S
Eu479 N480 2.657 . S
Eu479 O513 2.380 . S
Eu479 O514 2.432 . S
Eu479 O518 2.558 . S
Eu479 O519 2.612 . S
Eu479 O521 2.339 . S
Eu479 O522 2.563 . S
Eu479 O523 2.419 . S
Eu479 C543 2.848 . S
N480 C472 1.362 . S
N480 Eu479 2.657 . S
N480 C481 1.334 . S
C481 N480 1.334 . S
C481 C483 1.413 . S
C481 H488 0.929 . S
C482 C470 1.392 . S
C482 C483 1.367 . S
C482 H490 0.930 . S
C483 C481 1.413 . S
C483 C482 1.367 . S
C483 H485 0.930 . S
H484 C477 0.930 . S
H485 C483 0.930 . S
H486 C474 0.930 . S
H487 C475 0.930 . S
H488 C481 0.929 . S
H489 C503 0.930 . S
H490 C482 0.930 . S
H491 C509 0.930 . S
H492 C500 0.929 . S
H493 C507 0.930 . S
H494 C471 0.931 . S
H495 C501 0.930 . S
H496 C534 0.930 . S
H497 C478 0.930 . S
H498 C533 0.931 . S
N499 Eu468 2.657 . S
N499 C500 1.334 . S
N499 C504 1.362 . S
C500 H492 0.929 . S
C500 N499 1.334 . S
C500 C503 1.413 . S
C501 H495 0.930 . S
C501 C502 1.392 . S
C501 C503 1.367 . S
C502 C501 1.392 . S
C502 C504 1.420 . S
C502 C534 1.423 . S
C503 H489 0.930 . S
C503 C500 1.413 . S
C503 C501 1.367 . S
C504 N499 1.362 . S
C504 C502 1.420 . S
C504 C508 1.429 . S
H505 C510 0.930 . S
N506 Eu468 2.609 . S
N506 C508 1.377 . S
N506 C509 1.321 . S
C507 H493 0.930 . S
C507 C509 1.400 . S
C507 C510 1.386 . S
C508 C504 1.429 . S
C508 N506 1.377 . S
C508 C511 1.411 . S
C509 H491 0.930 . S
C509 N506 1.321 . S
C509 C507 1.400 . S
C510 H505 0.930 . S
C510 C507 1.386 . S
C510 C511 1.395 . S
C511 C508 1.411 . S
C511 C510 1.395 . S
C511 C533 1.420 . S
O512 Eu468 2.558 . S
O512 C532 1.257 . S
O513 Eu468 2.612 . S
O513 Eu479 2.380 . S
O513 C524 1.276 . S
O514 Eu479 2.432 . S
O514 C531 1.264 . S
O515 Eu468 2.339 . S
O515 C531 1.254 . S
O516 Eu468 2.563 . S
O516 C524 1.235 . S
O517 Eu468 2.419 . S
O517 C532 1.249 . S
O518 Eu479 2.558 . S
O518 C543 1.257 . S
O519 Eu468 2.380 . S
O519 Eu479 2.612 . S
O519 C535 1.276 . S
O520 Eu468 2.432 . S
O520 C542 1.264 . S
O521 Eu479 2.339 . S
O521 C542 1.254 . S
O522 Eu479 2.563 . S
O522 C535 1.235 . S
O523 Eu479 2.419 . S
O523 C543 1.249 . S
C524 O513 1.276 . S
C524 O516 1.235 . S
C525 C527 1.393 . S
C525 C529 1.395 . S
C525 C532 1.492 . S
C526 C527 1.392 . S
C526 C528 1.386 . S
C527 C525 1.393 . S
C527 C526 1.392 . S
C527 H544 0.930 . S
C528 C526 1.386 . S
C528 C530 1.395 . S
C528 H545 0.930 . S
C529 C525 1.395 . S
C529 C530 1.379 . S
C529 H546 0.930 . S
C530 C528 1.395 . S
C530 C529 1.379 . S
C530 H547 0.930 . S
C531 O514 1.264 . S
C531 O515 1.254 . S
C532 Eu468 2.848 . S
C532 O512 1.257 . S
C532 O517 1.249 . S
C532 C525 1.492 . S
C533 H498 0.931 . S
C533 C511 1.420 . S
C533 C534 1.351 . S
C534 H496 0.930 . S
C534 C502 1.423 . S
C534 C533 1.351 . S
C535 O519 1.276 . S
C535 O522 1.235 . S
C536 C537 1.393 . S
C536 C540 1.395 . S
C536 C543 1.492 . S
C537 C536 1.393 . S
C537 C538 1.392 . S
C537 H548 0.930 . S
C538 C537 1.392 . S
C538 C539 1.386 . S
C539 C538 1.386 . S
C539 C541 1.395 . S
C539 H549 0.930 . S
C540 C536 1.395 . S
C540 C541 1.379 . S
C540 H550 0.930 . S
C541 C539 1.395 . S
C541 C540 1.379 . S
C541 H551 0.930 . S
C542 O520 1.264 . S
C542 O521 1.254 . S
C543 Eu479 2.848 . S
C543 O518 1.257 . S
C543 O523 1.249 . S
C543 C536 1.492 . S
H544 C527 0.930 . S
H545 C528 0.930 . S
H546 C529 0.930 . S
H547 C530 0.930 . S
H548 C537 0.930 . S
H549 C539 0.930 . S
H550 C540 0.930 . S
H551 C541 0.930 . S
Eu552 N583 2.657 . S
Eu552 N590 2.609 . S
Eu552 O596 2.558 . S
Eu552 O597 2.612 . S
Eu552 O599 2.339 . S
Eu552 O600 2.563 . S
Eu552 O601 2.419 . S
Eu552 O603 2.380 . S
Eu552 O604 2.432 . S
Eu552 C616 2.848 . S
C553 C556 1.429 . S
C553 C557 1.411 . S
C553 N560 1.377 . S
C554 C556 1.420 . S
C554 C558 1.423 . S
C554 C566 1.392 . S
C555 C557 1.420 . S
C555 C558 1.351 . S
C555 H578 0.931 . S
C556 C553 1.429 . S
C556 C554 1.420 . S
C556 N564 1.362 . S
C557 C553 1.411 . S
C557 C555 1.420 . S
C557 C562 1.395 . S
C558 C554 1.423 . S
C558 C555 1.351 . S
C558 H570 0.930 . S
C559 C561 1.400 . S
C559 C562 1.386 . S
C559 H571 0.930 . S
N560 C553 1.377 . S
N560 C561 1.321 . S
N560 Eu563 2.609 . S
C561 C559 1.400 . S
C561 N560 1.321 . S
C561 H568 0.930 . S
C562 C557 1.395 . S
C562 C559 1.386 . S
C562 H581 0.930 . S
Eu563 N560 2.609 . S
Eu563 N564 2.657 . S
Eu563 O597 2.380 . S
Eu563 O598 2.432 . S
Eu563 O602 2.558 . S
Eu563 O603 2.612 . S
Eu563 O605 2.339 . S
Eu563 O606 2.563 . S
Eu563 O607 2.419 . S
Eu563 C627 2.848 . S
N564 C556 1.362 . S
N564 Eu563 2.657 . S
N564 C565 1.334 . S
C565 N564 1.334 . S
C565 C567 1.413 . S
C565 H572 0.929 . S
C566 C554 1.392 . S
C566 C567 1.367 . S
C566 H574 0.930 . S
C567 C565 1.413 . S
C567 C566 1.367 . S
C567 H569 0.930 . S
H568 C561 0.930 . S
H569 C567 0.930 . S
H570 C558 0.930 . S
H571 C559 0.930 . S
H572 C565 0.929 . S
H573 C587 0.930 . S
H574 C566 0.930 . S
H575 C593 0.930 . S
H576 C584 0.929 . S
H577 C591 0.930 . S
H578 C555 0.931 . S
H579 C585 0.930 . S
H580 C618 0.930 . S
H581 C562 0.930 . S
H582 C617 0.931 . S
N583 Eu552 2.657 . S
N583 C584 1.334 . S
N583 C588 1.362 . S
C584 H576 0.929 . S
C584 N583 1.334 . S
C584 C587 1.413 . S
C585 H579 0.930 . S
C585 C586 1.392 . S
C585 C587 1.367 . S
C586 C585 1.392 . S
C586 C588 1.420 . S
C586 C618 1.423 . S
C587 H573 0.930 . S
C587 C584 1.413 . S
C587 C585 1.367 . S
C588 N583 1.362 . S
C588 C586 1.420 . S
C588 C592 1.429 . S
H589 C594 0.930 . S
N590 Eu552 2.609 . S
N590 C592 1.377 . S
N590 C593 1.321 . S
C591 H577 0.930 . S
C591 C593 1.400 . S
C591 C594 1.386 . S
C592 C588 1.429 . S
C592 N590 1.377 . S
C592 C595 1.411 . S
C593 H575 0.930 . S
C593 N590 1.321 . S
C593 C591 1.400 . S
C594 H589 0.930 . S
C594 C591 1.386 . S
C594 C595 1.395 . S
C595 C592 1.411 . S
C595 C594 1.395 . S
C595 C617 1.420 . S
O596 Eu552 2.558 . S
O596 C616 1.257 . S
O597 Eu552 2.612 . S
O597 Eu563 2.380 . S
O597 C608 1.276 . S
O598 Eu563 2.432 . S
O598 C615 1.264 . S
O599 Eu552 2.339 . S
O599 C615 1.254 . S
O600 Eu552 2.563 . S
O600 C608 1.235 . S
O601 Eu552 2.419 . S
O601 C616 1.249 . S
O602 Eu563 2.558 . S
O602 C627 1.257 . S
O603 Eu552 2.380 . S
O603 Eu563 2.612 . S
O603 C619 1.276 . S
O604 Eu552 2.432 . S
O604 C626 1.264 . S
O605 Eu563 2.339 . S
O605 C626 1.254 . S
O606 Eu563 2.563 . S
O606 C619 1.235 . S
O607 Eu563 2.419 . S
O607 C627 1.249 . S
C608 O597 1.276 . S
C608 O600 1.235 . S
C609 C611 1.393 . S
C609 C613 1.395 . S
C609 C616 1.492 . S
C610 C611 1.392 . S
C610 C612 1.386 . S
C611 C609 1.393 . S
C611 C610 1.392 . S
C611 H628 0.930 . S
C612 C610 1.386 . S
C612 C614 1.395 . S
C612 H629 0.930 . S
C613 C609 1.395 . S
C613 C614 1.379 . S
C613 H630 0.930 . S
C614 C612 1.395 . S
C614 C613 1.379 . S
C614 H631 0.930 . S
C615 O598 1.264 . S
C615 O599 1.254 . S
C616 Eu552 2.848 . S
C616 O596 1.257 . S
C616 O601 1.249 . S
C616 C609 1.492 . S
C617 H582 0.931 . S
C617 C595 1.420 . S
C617 C618 1.351 . S
C618 H580 0.930 . S
C618 C586 1.423 . S
C618 C617 1.351 . S
C619 O603 1.276 . S
C619 O606 1.235 . S
C620 C621 1.393 . S
C620 C624 1.395 . S
C620 C627 1.492 . S
C621 C620 1.393 . S
C621 C622 1.392 . S
C621 H632 0.930 . S
C622 C621 1.392 . S
C622 C623 1.386 . S
C623 C622 1.386 . S
C623 C625 1.395 . S
C623 H633 0.930 . S
C624 C620 1.395 . S
C624 C625 1.379 . S
C624 H634 0.930 . S
C625 C623 1.395 . S
C625 C624 1.379 . S
C625 H635 0.930 . S
C626 O604 1.264 . S
C626 O605 1.254 . S
C627 Eu563 2.848 . S
C627 O602 1.257 . S
C627 O607 1.249 . S
C627 C620 1.492 . S
H628 C611 0.930 . S
H629 C612 0.930 . S
H630 C613 0.930 . S
H631 C614 0.930 . S
H632 C621 0.930 . S
H633 C623 0.930 . S
H634 C624 0.930 . S
H635 C625 0.930 . S
Eu636 N667 2.657 . S
Eu636 N674 2.609 . S
Eu636 O680 2.558 . S
Eu636 O681 2.612 . S
Eu636 O683 2.339 . S
Eu636 O684 2.563 . S
Eu636 O685 2.419 . S
Eu636 O687 2.380 . S
Eu636 O688 2.432 . S
Eu636 C700 2.848 . S
C637 C640 1.429 . S
C637 C641 1.411 . S
C637 N644 1.377 . S
C638 C640 1.420 . S
C638 C642 1.423 . S
C638 C650 1.392 . S
C639 C641 1.420 . S
C639 C642 1.351 . S
C639 H662 0.931 . S
C640 C637 1.429 . S
C640 C638 1.420 . S
C640 N648 1.362 . S
C641 C637 1.411 . S
C641 C639 1.420 . S
C641 C646 1.395 . S
C642 C638 1.423 . S
C642 C639 1.351 . S
C642 H654 0.930 . S
C643 C645 1.400 . S
C643 C646 1.386 . S
C643 H655 0.930 . S
N644 C637 1.377 . S
N644 C645 1.321 . S
N644 Eu647 2.609 . S
C645 C643 1.400 . S
C645 N644 1.321 . S
C645 H652 0.930 . S
C646 C641 1.395 . S
C646 C643 1.386 . S
C646 H665 0.930 . S
Eu647 N644 2.609 . S
Eu647 N648 2.657 . S
Eu647 O681 2.380 . S
Eu647 O682 2.432 . S
Eu647 O686 2.558 . S
Eu647 O687 2.612 . S
Eu647 O689 2.339 . S
Eu647 O690 2.563 . S
Eu647 O691 2.419 . S
Eu647 C711 2.848 . S
N648 C640 1.362 . S
N648 Eu647 2.657 . S
N648 C649 1.334 . S
C649 N648 1.334 . S
C649 C651 1.413 . S
C649 H656 0.929 . S
C650 C638 1.392 . S
C650 C651 1.367 . S
C650 H658 0.930 . S
C651 C649 1.413 . S
C651 C650 1.367 . S
C651 H653 0.930 . S
H652 C645 0.930 . S
H653 C651 0.930 . S
H654 C642 0.930 . S
H655 C643 0.930 . S
H656 C649 0.929 . S
H657 C671 0.930 . S
H658 C650 0.930 . S
H659 C677 0.930 . S
H660 C668 0.929 . S
H661 C675 0.930 . S
H662 C639 0.931 . S
H663 C669 0.930 . S
H664 C702 0.930 . S
H665 C646 0.930 . S
H666 C701 0.931 . S
N667 Eu636 2.657 . S
N667 C668 1.334 . S
N667 C672 1.362 . S
C668 H660 0.929 . S
C668 N667 1.334 . S
C668 C671 1.413 . S
C669 H663 0.930 . S
C669 C670 1.392 . S
C669 C671 1.367 . S
C670 C669 1.392 . S
C670 C672 1.420 . S
C670 C702 1.423 . S
C671 H657 0.930 . S
C671 C668 1.413 . S
C671 C669 1.367 . S
C672 N667 1.362 . S
C672 C670 1.420 . S
C672 C676 1.429 . S
H673 C678 0.930 . S
N674 Eu636 2.609 . S
N674 C676 1.377 . S
N674 C677 1.321 . S
C675 H661 0.930 . S
C675 C677 1.400 . S
C675 C678 1.386 . S
C676 C672 1.429 . S
C676 N674 1.377 . S
C676 C679 1.411 . S
C677 H659 0.930 . S
C677 N674 1.321 . S
C677 C675 1.400 . S
C678 H673 0.930 . S
C678 C675 1.386 . S
C678 C679 1.395 . S
C679 C676 1.411 . S
C679 C678 1.395 . S
C679 C701 1.420 . S
O680 Eu636 2.558 . S
O680 C700 1.257 . S
O681 Eu636 2.612 . S
O681 Eu647 2.380 . S
O681 C692 1.276 . S
O682 Eu647 2.432 . S
O682 C699 1.264 . S
O683 Eu636 2.339 . S
O683 C699 1.254 . S
O684 Eu636 2.563 . S
O684 C692 1.235 . S
O685 Eu636 2.419 . S
O685 C700 1.249 . S
O686 Eu647 2.558 . S
O686 C711 1.257 . S
O687 Eu636 2.380 . S
O687 Eu647 2.612 . S
O687 C703 1.276 . S
O688 Eu636 2.432 . S
O688 C710 1.264 . S
O689 Eu647 2.339 . S
O689 C710 1.254 . S
O690 Eu647 2.563 . S
O690 C703 1.235 . S
O691 Eu647 2.419 . S
O691 C711 1.249 . S
C692 O681 1.276 . S
C692 O684 1.235 . S
C693 C695 1.393 . S
C693 C697 1.395 . S
C693 C700 1.492 . S
C694 C695 1.392 . S
C694 C696 1.386 . S
C695 C693 1.393 . S
C695 C694 1.392 . S
C695 H712 0.930 . S
C696 C694 1.386 . S
C696 C698 1.395 . S
C696 H713 0.930 . S
C697 C693 1.395 . S
C697 C698 1.379 . S
C697 H714 0.930 . S
C698 C696 1.395 . S
C698 C697 1.379 . S
C698 H715 0.930 . S
C699 O682 1.264 . S
C699 O683 1.254 . S
C700 Eu636 2.848 . S
C700 O680 1.257 . S
C700 O685 1.249 . S
C700 C693 1.492 . S
C701 H666 0.931 . S
C701 C679 1.420 . S
C701 C702 1.351 . S
C702 H664 0.930 . S
C702 C670 1.423 . S
C702 C701 1.351 . S
C703 O687 1.276 . S
C703 O690 1.235 . S
C704 C705 1.393 . S
C704 C708 1.395 . S
C704 C711 1.492 . S
C705 C704 1.393 . S
C705 C706 1.392 . S
C705 H716 0.930 . S
C706 C705 1.392 . S
C706 C707 1.386 . S
C707 C706 1.386 . S
C707 C709 1.395 . S
C707 H717 0.930 . S
C708 C704 1.395 . S
C708 C709 1.379 . S
C708 H718 0.930 . S
C709 C707 1.395 . S
C709 C708 1.379 . S
C709 H719 0.930 . S
C710 O688 1.264 . S
C710 O689 1.254 . S
C711 Eu647 2.848 . S
C711 O686 1.257 . S
C711 O691 1.249 . S
C711 C704 1.492 . S
H712 C695 0.930 . S
H713 C696 0.930 . S
H714 C697 0.930 . S
H715 C698 0.930 . S
H716 C705 0.930 . S
H717 C707 0.930 . S
H718 C708 0.930 . S
H719 C709 0.930 . S
Eu720 N751 2.657 . S
Eu720 N758 2.609 . S
Eu720 O764 2.558 . S
Eu720 O765 2.612 . S
Eu720 O767 2.339 . S
Eu720 O768 2.563 . S
Eu720 O769 2.419 . S
Eu720 O771 2.380 . S
Eu720 O772 2.432 . S
Eu720 C784 2.848 . S
C721 C724 1.429 . S
C721 C725 1.411 . S
C721 N728 1.377 . S
C722 C724 1.420 . S
C722 C726 1.423 . S
C722 C734 1.392 . S
C723 C725 1.420 . S
C723 C726 1.351 . S
C723 H746 0.931 . S
C724 C721 1.429 . S
C724 C722 1.420 . S
C724 N732 1.362 . S
C725 C721 1.411 . S
C725 C723 1.420 . S
C725 C730 1.395 . S
C726 C722 1.423 . S
C726 C723 1.351 . S
C726 H738 0.930 . S
C727 C729 1.400 . S
C727 C730 1.386 . S
C727 H739 0.930 . S
N728 C721 1.377 . S
N728 C729 1.321 . S
N728 Eu731 2.609 . S
C729 C727 1.400 . S
C729 N728 1.321 . S
C729 H736 0.930 . S
C730 C725 1.395 . S
C730 C727 1.386 . S
C730 H749 0.930 . S
Eu731 N728 2.609 . S
Eu731 N732 2.657 . S
Eu731 O765 2.380 . S
Eu731 O766 2.432 . S
Eu731 O770 2.558 . S
Eu731 O771 2.612 . S
Eu731 O773 2.339 . S
Eu731 O774 2.563 . S
Eu731 O775 2.419 . S
Eu731 C795 2.848 . S
N732 C724 1.362 . S
N732 Eu731 2.657 . S
N732 C733 1.334 . S
C733 N732 1.334 . S
C733 C735 1.413 . S
C733 H740 0.929 . S
C734 C722 1.392 . S
C734 C735 1.367 . S
C734 H742 0.930 . S
C735 C733 1.413 . S
C735 C734 1.367 . S
C735 H737 0.930 . S
H736 C729 0.930 . S
H737 C735 0.930 . S
H738 C726 0.930 . S
H739 C727 0.930 . S
H740 C733 0.929 . S
H741 C755 0.930 . S
H742 C734 0.930 . S
H743 C761 0.930 . S
H744 C752 0.929 . S
H745 C759 0.930 . S
H746 C723 0.931 . S
H747 C753 0.930 . S
H748 C786 0.930 . S
H749 C730 0.930 . S
H750 C785 0.931 . S
N751 Eu720 2.657 . S
N751 C752 1.334 . S
N751 C756 1.362 . S
C752 H744 0.929 . S
C752 N751 1.334 . S
C752 C755 1.413 . S
C753 H747 0.930 . S
C753 C754 1.392 . S
C753 C755 1.367 . S
C754 C753 1.392 . S
C754 C756 1.420 . S
C754 C786 1.423 . S
C755 H741 0.930 . S
C755 C752 1.413 . S
C755 C753 1.367 . S
C756 N751 1.362 . S
C756 C754 1.420 . S
C756 C760 1.429 . S
H757 C762 0.930 . S
N758 Eu720 2.609 . S
N758 C760 1.377 . S
N758 C761 1.321 . S
C759 H745 0.930 . S
C759 C761 1.400 . S
C759 C762 1.386 . S
C760 C756 1.429 . S
C760 N758 1.377 . S
C760 C763 1.411 . S
C761 H743 0.930 . S
C761 N758 1.321 . S
C761 C759 1.400 . S
C762 H757 0.930 . S
C762 C759 1.386 . S
C762 C763 1.395 . S
C763 C760 1.411 . S
C763 C762 1.395 . S
C763 C785 1.420 . S
O764 Eu720 2.558 . S
O764 C784 1.257 . S
O765 Eu720 2.612 . S
O765 Eu731 2.380 . S
O765 C776 1.276 . S
O766 Eu731 2.432 . S
O766 C783 1.264 . S
O767 Eu720 2.339 . S
O767 C783 1.254 . S
O768 Eu720 2.563 . S
O768 C776 1.235 . S
O769 Eu720 2.419 . S
O769 C784 1.249 . S
O770 Eu731 2.558 . S
O770 C795 1.257 . S
O771 Eu720 2.380 . S
O771 Eu731 2.612 . S
O771 C787 1.276 . S
O772 Eu720 2.432 . S
O772 C794 1.264 . S
O773 Eu731 2.339 . S
O773 C794 1.254 . S
O774 Eu731 2.563 . S
O774 C787 1.235 . S
O775 Eu731 2.419 . S
O775 C795 1.249 . S
C776 O765 1.276 . S
C776 O768 1.235 . S
C777 C779 1.393 . S
C777 C781 1.395 . S
C777 C784 1.492 . S
C778 C779 1.392 . S
C778 C780 1.386 . S
C779 C777 1.393 . S
C779 C778 1.392 . S
C779 H796 0.930 . S
C780 C778 1.386 . S
C780 C782 1.395 . S
C780 H797 0.930 . S
C781 C777 1.395 . S
C781 C782 1.379 . S
C781 H798 0.930 . S
C782 C780 1.395 . S
C782 C781 1.379 . S
C782 H799 0.930 . S
C783 O766 1.264 . S
C783 O767 1.254 . S
C784 Eu720 2.848 . S
C784 O764 1.257 . S
C784 O769 1.249 . S
C784 C777 1.492 . S
C785 H750 0.931 . S
C785 C763 1.420 . S
C785 C786 1.351 . S
C786 H748 0.930 . S
C786 C754 1.423 . S
C786 C785 1.351 . S
C787 O771 1.276 . S
C787 O774 1.235 . S
C788 C789 1.393 . S
C788 C792 1.395 . S
C788 C795 1.492 . S
C789 C788 1.393 . S
C789 C790 1.392 . S
C789 H800 0.930 . S
C790 C789 1.392 . S
C790 C791 1.386 . S
C791 C790 1.386 . S
C791 C793 1.395 . S
C791 H801 0.930 . S
C792 C788 1.395 . S
C792 C793 1.379 . S
C792 H802 0.930 . S
C793 C791 1.395 . S
C793 C792 1.379 . S
C793 H803 0.930 . S
C794 O772 1.264 . S
C794 O773 1.254 . S
C795 Eu731 2.848 . S
C795 O770 1.257 . S
C795 O775 1.249 . S
C795 C788 1.492 . S
H796 C779 0.930 . S
H797 C780 0.930 . S
H798 C781 0.930 . S
H799 C782 0.930 . S
H800 C789 0.930 . S
H801 C791 0.930 . S
H802 C792 0.930 . S
H803 C793 0.930 . S
Eu804 N835 2.657 . S
Eu804 N842 2.609 . S
Eu804 O848 2.558 . S
Eu804 O849 2.612 . S
Eu804 O851 2.339 . S
Eu804 O852 2.563 . S
Eu804 O853 2.419 . S
Eu804 O855 2.380 . S
Eu804 O856 2.432 . S
Eu804 C868 2.848 . S
C805 C808 1.429 . S
C805 C809 1.411 . S
C805 N812 1.377 . S
C806 C808 1.420 . S
C806 C810 1.423 . S
C806 C818 1.392 . S
C807 C809 1.420 . S
C807 C810 1.351 . S
C807 H830 0.931 . S
C808 C805 1.429 . S
C808 C806 1.420 . S
C808 N816 1.362 . S
C809 C805 1.411 . S
C809 C807 1.420 . S
C809 C814 1.395 . S
C810 C806 1.423 . S
C810 C807 1.351 . S
C810 H822 0.930 . S
C811 C813 1.400 . S
C811 C814 1.386 . S
C811 H823 0.930 . S
N812 C805 1.377 . S
N812 C813 1.321 . S
N812 Eu815 2.609 . S
C813 C811 1.400 . S
C813 N812 1.321 . S
C813 H820 0.930 . S
C814 C809 1.395 . S
C814 C811 1.386 . S
C814 H833 0.930 . S
Eu815 N812 2.609 . S
Eu815 N816 2.657 . S
Eu815 O849 2.380 . S
Eu815 O850 2.432 . S
Eu815 O854 2.558 . S
Eu815 O855 2.612 . S
Eu815 O857 2.339 . S
Eu815 O858 2.563 . S
Eu815 O859 2.419 . S
Eu815 C879 2.848 . S
N816 C808 1.362 . S
N816 Eu815 2.657 . S
N816 C817 1.334 . S
C817 N816 1.334 . S
C817 C819 1.413 . S
C817 H824 0.929 . S
C818 C806 1.392 . S
C818 C819 1.367 . S
C818 H826 0.930 . S
C819 C817 1.413 . S
C819 C818 1.367 . S
C819 H821 0.930 . S
H820 C813 0.930 . S
H821 C819 0.930 . S
H822 C810 0.930 . S
H823 C811 0.930 . S
H824 C817 0.929 . S
H825 C839 0.930 . S
H826 C818 0.930 . S
H827 C845 0.930 . S
H828 C836 0.929 . S
H829 C843 0.930 . S
H830 C807 0.931 . S
H831 C837 0.930 . S
H832 C870 0.930 . S
H833 C814 0.930 . S
H834 C869 0.931 . S
N835 Eu804 2.657 . S
N835 C836 1.334 . S
N835 C840 1.362 . S
C836 H828 0.929 . S
C836 N835 1.334 . S
C836 C839 1.413 . S
C837 H831 0.930 . S
C837 C838 1.392 . S
C837 C839 1.367 . S
C838 C837 1.392 . S
C838 C840 1.420 . S
C838 C870 1.423 . S
C839 H825 0.930 . S
C839 C836 1.413 . S
C839 C837 1.367 . S
C840 N835 1.362 . S
C840 C838 1.420 . S
C840 C844 1.429 . S
H841 C846 0.930 . S
N842 Eu804 2.609 . S
N842 C844 1.377 . S
N842 C845 1.321 . S
C843 H829 0.930 . S
C843 C845 1.400 . S
C843 C846 1.386 . S
C844 C840 1.429 . S
C844 N842 1.377 . S
C844 C847 1.411 . S
C845 H827 0.930 . S
C845 N842 1.321 . S
C845 C843 1.400 . S
C846 H841 0.930 . S
C846 C843 1.386 . S
C846 C847 1.395 . S
C847 C844 1.411 . S
C847 C846 1.395 . S
C847 C869 1.420 . S
O848 Eu804 2.558 . S
O848 C868 1.257 . S
O849 Eu804 2.612 . S
O849 Eu815 2.380 . S
O849 C860 1.276 . S
O850 Eu815 2.432 . S
O850 C867 1.264 . S
O851 Eu804 2.339 . S
O851 C867 1.254 . S
O852 Eu804 2.563 . S
O852 C860 1.235 . S
O853 Eu804 2.419 . S
O853 C868 1.249 . S
O854 Eu815 2.558 . S
O854 C879 1.257 . S
O855 Eu804 2.380 . S
O855 Eu815 2.612 . S
O855 C871 1.276 . S
O856 Eu804 2.432 . S
O856 C878 1.264 . S
O857 Eu815 2.339 . S
O857 C878 1.254 . S
O858 Eu815 2.563 . S
O858 C871 1.235 . S
O859 Eu815 2.419 . S
O859 C879 1.249 . S
C860 O849 1.276 . S
C860 O852 1.235 . S
C861 C863 1.393 . S
C861 C865 1.395 . S
C861 C868 1.492 . S
C862 C863 1.392 . S
C862 C864 1.386 . S
C863 C861 1.393 . S
C863 C862 1.392 . S
C863 H880 0.930 . S
C864 C862 1.386 . S
C864 C866 1.395 . S
C864 H881 0.930 . S
C865 C861 1.395 . S
C865 C866 1.379 . S
C865 H882 0.930 . S
C866 C864 1.395 . S
C866 C865 1.379 . S
C866 H883 0.930 . S
C867 O850 1.264 . S
C867 O851 1.254 . S
C868 Eu804 2.848 . S
C868 O848 1.257 . S
C868 O853 1.249 . S
C868 C861 1.492 . S
C869 H834 0.931 . S
C869 C847 1.420 . S
C869 C870 1.351 . S
C870 H832 0.930 . S
C870 C838 1.423 . S
C870 C869 1.351 . S
C871 O855 1.276 . S
C871 O858 1.235 . S
C872 C873 1.393 . S
C872 C876 1.395 . S
C872 C879 1.492 . S
C873 C872 1.393 . S
C873 C874 1.392 . S
C873 H884 0.930 . S
C874 C873 1.392 . S
C874 C875 1.386 . S
C875 C874 1.386 . S
C875 C877 1.395 . S
C875 H885 0.930 . S
C876 C872 1.395 . S
C876 C877 1.379 . S
C876 H886 0.930 . S
C877 C875 1.395 . S
C877 C876 1.379 . S
C877 H887 0.930 . S
C878 O856 1.264 . S
C878 O857 1.254 . S
C879 Eu815 2.848 . S
C879 O854 1.257 . S
C879 O859 1.249 . S
C879 C872 1.492 . S
H880 C863 0.930 . S
H881 C864 0.930 . S
H882 C865 0.930 . S
H883 C866 0.930 . S
H884 C873 0.930 . S
H885 C875 0.930 . S
H886 C876 0.930 . S
H887 C877 0.930 . S
Eu888 N919 2.657 . S
Eu888 N926 2.609 . S
Eu888 O932 2.558 . S
Eu888 O933 2.612 . S
Eu888 O935 2.339 . S
Eu888 O936 2.563 . S
Eu888 O937 2.419 . S
Eu888 O939 2.380 . S
Eu888 O940 2.432 . S
Eu888 C952 2.848 . S
C889 C892 1.429 . S
C889 C893 1.411 . S
C889 N896 1.377 . S
C890 C892 1.420 . S
C890 C894 1.423 . S
C890 C902 1.392 . S
C891 C893 1.420 . S
C891 C894 1.351 . S
C891 H914 0.931 . S
C892 C889 1.429 . S
C892 C890 1.420 . S
C892 N900 1.362 . S
C893 C889 1.411 . S
C893 C891 1.420 . S
C893 C898 1.395 . S
C894 C890 1.423 . S
C894 C891 1.351 . S
C894 H906 0.930 . S
C895 C897 1.400 . S
C895 C898 1.386 . S
C895 H907 0.930 . S
N896 C889 1.377 . S
N896 C897 1.321 . S
N896 Eu899 2.609 . S
C897 C895 1.400 . S
C897 N896 1.321 . S
C897 H904 0.930 . S
C898 C893 1.395 . S
C898 C895 1.386 . S
C898 H917 0.930 . S
Eu899 N896 2.609 . S
Eu899 N900 2.657 . S
Eu899 O933 2.380 . S
Eu899 O934 2.432 . S
Eu899 O938 2.558 . S
Eu899 O939 2.612 . S
Eu899 O941 2.339 . S
Eu899 O942 2.563 . S
Eu899 O943 2.419 . S
Eu899 C963 2.848 . S
N900 C892 1.362 . S
N900 Eu899 2.657 . S
N900 C901 1.334 . S
C901 N900 1.334 . S
C901 C903 1.413 . S
C901 H908 0.929 . S
C902 C890 1.392 . S
C902 C903 1.367 . S
C902 H910 0.930 . S
C903 C901 1.413 . S
C903 C902 1.367 . S
C903 H905 0.930 . S
H904 C897 0.930 . S
H905 C903 0.930 . S
H906 C894 0.930 . S
H907 C895 0.930 . S
H908 C901 0.929 . S
H909 C923 0.930 . S
H910 C902 0.930 . S
H911 C929 0.930 . S
H912 C920 0.929 . S
H913 C927 0.930 . S
H914 C891 0.931 . S
H915 C921 0.930 . S
H916 C954 0.930 . S
H917 C898 0.930 . S
H918 C953 0.931 . S
N919 Eu888 2.657 . S
N919 C920 1.334 . S
N919 C924 1.362 . S
C920 H912 0.929 . S
C920 N919 1.334 . S
C920 C923 1.413 . S
C921 H915 0.930 . S
C921 C922 1.392 . S
C921 C923 1.367 . S
C922 C921 1.392 . S
C922 C924 1.420 . S
C922 C954 1.423 . S
C923 H909 0.930 . S
C923 C920 1.413 . S
C923 C921 1.367 . S
C924 N919 1.362 . S
C924 C922 1.420 . S
C924 C928 1.429 . S
H925 C930 0.930 . S
N926 Eu888 2.609 . S
N926 C928 1.377 . S
N926 C929 1.321 . S
C927 H913 0.930 . S
C927 C929 1.400 . S
C927 C930 1.386 . S
C928 C924 1.429 . S
C928 N926 1.377 . S
C928 C931 1.411 . S
C929 H911 0.930 . S
C929 N926 1.321 . S
C929 C927 1.400 . S
C930 H925 0.930 . S
C930 C927 1.386 . S
C930 C931 1.395 . S
C931 C928 1.411 . S
C931 C930 1.395 . S
C931 C953 1.420 . S
O932 Eu888 2.558 . S
O932 C952 1.257 . S
O933 Eu888 2.612 . S
O933 Eu899 2.380 . S
O933 C944 1.276 . S
O934 Eu899 2.432 . S
O934 C951 1.264 . S
O935 Eu888 2.339 . S
O935 C951 1.254 . S
O936 Eu888 2.563 . S
O936 C944 1.235 . S
O937 Eu888 2.419 . S
O937 C952 1.249 . S
O938 Eu899 2.558 . S
O938 C963 1.257 . S
O939 Eu888 2.380 . S
O939 Eu899 2.612 . S
O939 C955 1.276 . S
O940 Eu888 2.432 . S
O940 C962 1.264 . S
O941 Eu899 2.339 . S
O941 C962 1.254 . S
O942 Eu899 2.563 . S
O942 C955 1.235 . S
O943 Eu899 2.419 . S
O943 C963 1.249 . S
C944 O933 1.276 . S
C944 O936 1.235 . S
C945 C947 1.393 . S
C945 C949 1.395 . S
C945 C952 1.492 . S
C946 C947 1.392 . S
C946 C948 1.386 . S
C947 C945 1.393 . S
C947 C946 1.392 . S
C947 H964 0.930 . S
C948 C946 1.386 . S
C948 C950 1.395 . S
C948 H965 0.930 . S
C949 C945 1.395 . S
C949 C950 1.379 . S
C949 H966 0.930 . S
C950 C948 1.395 . S
C950 C949 1.379 . S
C950 H967 0.930 . S
C951 O934 1.264 . S
C951 O935 1.254 . S
C952 Eu888 2.848 . S
C952 O932 1.257 . S
C952 O937 1.249 . S
C952 C945 1.492 . S
C953 H918 0.931 . S
C953 C931 1.420 . S
C953 C954 1.351 . S
C954 H916 0.930 . S
C954 C922 1.423 . S
C954 C953 1.351 . S
C955 O939 1.276 . S
C955 O942 1.235 . S
C956 C957 1.393 . S
C956 C960 1.395 . S
C956 C963 1.492 . S
C957 C956 1.393 . S
C957 C958 1.392 . S
C957 H968 0.930 . S
C958 C957 1.392 . S
C958 C959 1.386 . S
C959 C958 1.386 . S
C959 C961 1.395 . S
C959 H969 0.930 . S
C960 C956 1.395 . S
C960 C961 1.379 . S
C960 H970 0.930 . S
C961 C959 1.395 . S
C961 C960 1.379 . S
C961 H971 0.930 . S
C962 O940 1.264 . S
C962 O941 1.254 . S
C963 Eu899 2.848 . S
C963 O938 1.257 . S
C963 O943 1.249 . S
C963 C956 1.492 . S
H964 C947 0.930 . S
H965 C948 0.930 . S
H966 C949 0.930 . S
H967 C950 0.930 . S
H968 C957 0.930 . S
H969 C959 0.930 . S
H970 C960 0.930 . S
H971 C961 0.930 . S
H972 C980 0.929 . S
H973 C982 0.930 . S
H974 C984 0.930 . S
H975 C987 0.929 . S
H976 C990 0.930 . S
H977 C992 0.960 . S
H978 C992 0.960 . S
H979 C992 0.960 . S
C980 H972 0.929 . S
C980 C981 1.377 . S
C980 C982 1.384 . S
C981 C980 1.377 . S
C981 C987 1.390 . S
C982 H973 0.930 . S
C982 C980 1.384 . S
C982 C983 1.372 . S
C983 C982 1.372 . S
C983 C984 1.400 . S
C983 C988 1.490 . S
C984 H974 0.930 . S
C984 C983 1.400 . S
C984 C987 1.386 . S
H985 C1001 0.930 . S
H986 C1002 0.931 . S
C987 H975 0.929 . S
C987 C981 1.390 . S
C987 C984 1.386 . S
C988 C983 1.490 . S
C988 C990 1.395 . S
C988 C991 1.403 . S
H989 C995 0.930 . S
C990 H976 0.930 . S
C990 C988 1.395 . S
C990 C993 1.403 . S
C991 C988 1.403 . S
C991 C992 1.524 . S
C991 C995 1.400 . S
C992 H977 0.960 . S
C992 H978 0.960 . S
C992 H979 0.960 . S
C992 C991 1.524 . S
C993 C990 1.403 . S
C993 C994 1.392 . S
C993 C997 1.495 . S
C994 C993 1.392 . S
C994 C995 1.385 . S
C994 C996 1.478 . S
C995 H989 0.930 . S
C995 C991 1.400 . S
C995 C994 1.385 . S
C996 C994 1.478 . S
C996 C998 1.381 . S
C996 C1002 1.383 . S
C997 C993 1.495 . S
C997 H1003 0.959 . S
C997 H1004 0.961 . S
C997 H1005 0.960 . S
C998 C996 1.381 . S
C998 C999 1.394 . S
C998 H1006 0.930 . S
C999 C998 1.394 . S
C999 C1000 1.383 . S
C999 H1007 0.929 . S
C1000 C999 1.383 . S
C1000 C1001 1.377 . S
C1001 H985 0.930 . S
C1001 C1000 1.377 . S
C1001 C1002 1.379 . S
C1002 H986 0.931 . S
C1002 C996 1.383 . S
C1002 C1001 1.379 . S
H1003 C997 0.959 . S
H1004 C997 0.961 . S
H1005 C997 0.960 . S
H1006 C998 0.930 . S
H1007 C999 0.929 . S
H1008 C1016 0.929 . S
H1009 C1018 0.930 . S
H1010 C1020 0.930 . S
H1011 C1023 0.929 . S
H1012 C1026 0.930 . S
H1013 C1028 0.960 . S
H1014 C1028 0.960 . S
H1015 C1028 0.960 . S
C1016 H1008 0.929 . S
C1016 C1017 1.377 . S
C1016 C1018 1.384 . S
C1017 C1016 1.377 . S
C1017 C1023 1.390 . S
C1018 H1009 0.930 . S
C1018 C1016 1.384 . S
C1018 C1019 1.372 . S
C1019 C1018 1.372 . S
C1019 C1020 1.400 . S
C1019 C1024 1.490 . S
C1020 H1010 0.930 . S
C1020 C1019 1.400 . S
C1020 C1023 1.386 . S
H1021 C1037 0.930 . S
H1022 C1038 0.931 . S
C1023 H1011 0.929 . S
C1023 C1017 1.390 . S
C1023 C1020 1.386 . S
C1024 C1019 1.490 . S
C1024 C1026 1.395 . S
C1024 C1027 1.403 . S
H1025 C1031 0.930 . S
C1026 H1012 0.930 . S
C1026 C1024 1.395 . S
C1026 C1029 1.403 . S
C1027 C1024 1.403 . S
C1027 C1028 1.524 . S
C1027 C1031 1.400 . S
C1028 H1013 0.960 . S
C1028 H1014 0.960 . S
C1028 H1015 0.960 . S
C1028 C1027 1.524 . S
C1029 C1026 1.403 . S
C1029 C1030 1.392 . S
C1029 C1033 1.495 . S
C1030 C1029 1.392 . S
C1030 C1031 1.385 . S
C1030 C1032 1.478 . S
C1031 H1025 0.930 . S
C1031 C1027 1.400 . S
C1031 C1030 1.385 . S
C1032 C1030 1.478 . S
C1032 C1034 1.381 . S
C1032 C1038 1.383 . S
C1033 C1029 1.495 . S
C1033 H1039 0.959 . S
C1033 H1040 0.961 . S
C1033 H1041 0.960 . S
C1034 C1032 1.381 . S
C1034 C1035 1.394 . S
C1034 H1042 0.930 . S
C1035 C1034 1.394 . S
C1035 C1036 1.383 . S
C1035 H1043 0.929 . S
C1036 C1035 1.383 . S
C1036 C1037 1.377 . S
C1037 H1021 0.930 . S
C1037 C1036 1.377 . S
C1037 C1038 1.379 . S
C1038 H1022 0.931 . S
C1038 C1032 1.383 . S
C1038 C1037 1.379 . S
H1039 C1033 0.959 . S
H1040 C1033 0.961 . S
H1041 C1033 0.960 . S
H1042 C1034 0.930 . S
H1043 C1035 0.929 . S
H1044 C1052 0.929 . S
H1045 C1054 0.930 . S
H1046 C1056 0.930 . S
H1047 C1059 0.929 . S
H1048 C1062 0.930 . S
H1049 C1064 0.960 . S
H1050 C1064 0.960 . S
H1051 C1064 0.960 . S
C1052 H1044 0.929 . S
C1052 C1053 1.377 . S
C1052 C1054 1.384 . S
C1053 C1052 1.377 . S
C1053 C1059 1.390 . S
C1054 H1045 0.930 . S
C1054 C1052 1.384 . S
C1054 C1055 1.372 . S
C1055 C1054 1.372 . S
C1055 C1056 1.400 . S
C1055 C1060 1.490 . S
C1056 H1046 0.930 . S
C1056 C1055 1.400 . S
C1056 C1059 1.386 . S
H1057 C1073 0.930 . S
H1058 C1074 0.931 . S
C1059 H1047 0.929 . S
C1059 C1053 1.390 . S
C1059 C1056 1.386 . S
C1060 C1055 1.490 . S
C1060 C1062 1.395 . S
C1060 C1063 1.403 . S
H1061 C1067 0.930 . S
C1062 H1048 0.930 . S
C1062 C1060 1.395 . S
C1062 C1065 1.403 . S
C1063 C1060 1.403 . S
C1063 C1064 1.524 . S
C1063 C1067 1.400 . S
C1064 H1049 0.960 . S
C1064 H1050 0.960 . S
C1064 H1051 0.960 . S
C1064 C1063 1.524 . S
C1065 C1062 1.403 . S
C1065 C1066 1.392 . S
C1065 C1069 1.495 . S
C1066 C1065 1.392 . S
C1066 C1067 1.385 . S
C1066 C1068 1.478 . S
C1067 H1061 0.930 . S
C1067 C1063 1.400 . S
C1067 C1066 1.385 . S
C1068 C1066 1.478 . S
C1068 C1070 1.381 . S
C1068 C1074 1.383 . S
C1069 C1065 1.495 . S
C1069 H1075 0.959 . S
C1069 H1076 0.961 . S
C1069 H1077 0.960 . S
C1070 C1068 1.381 . S
C1070 C1071 1.394 . S
C1070 H1078 0.930 . S
C1071 C1070 1.394 . S
C1071 C1072 1.383 . S
C1071 H1079 0.929 . S
C1072 C1071 1.383 . S
C1072 C1073 1.377 . S
C1073 H1057 0.930 . S
C1073 C1072 1.377 . S
C1073 C1074 1.379 . S
C1074 H1058 0.931 . S
C1074 C1068 1.383 . S
C1074 C1073 1.379 . S
H1075 C1069 0.959 . S
H1076 C1069 0.961 . S
H1077 C1069 0.960 . S
H1078 C1070 0.930 . S
H1079 C1071 0.929 . S
H1080 C1088 0.929 . S
H1081 C1090 0.930 . S
H1082 C1092 0.930 . S
H1083 C1095 0.929 . S
H1084 C1098 0.930 . S
H1085 C1100 0.921 1_554 S
H1086 C1100 0.940 1_554 S
H1087 C1100 0.988 . S
C1088 H1080 0.929 . S
C1088 C1089 1.377 . S
C1088 C1090 1.384 . S
C1089 C1088 1.377 . S
C1089 C1095 1.390 . S
C1090 H1081 0.930 . S
C1090 C1088 1.384 . S
C1090 C1091 1.372 . S
C1091 C1090 1.372 . S
C1091 C1092 1.400 . S
C1091 C1096 1.490 . S
C1092 H1082 0.930 . S
C1092 C1091 1.400 . S
C1092 C1095 1.386 . S
H1093 C1109 0.930 . S
H1094 C1110 0.931 . S
C1095 H1083 0.929 . S
C1095 C1089 1.390 . S
C1095 C1092 1.386 . S
C1096 C1091 1.490 . S
C1096 C1098 1.395 . S
C1096 C1099 1.403 . S
H1097 C1103 0.936 1_554 S
C1098 H1084 0.930 . S
C1098 C1096 1.395 . S
C1098 C1101 1.403 . S
C1099 C1096 1.403 . S
C1099 C1100 1.559 . S
C1099 C1103 1.400 . S
C1100 H1085 0.921 1_556 S
C1100 H1086 0.940 1_556 S
C1100 H1087 0.988 . S
C1100 C1099 1.559 . S
C1101 C1098 1.403 . S
C1101 C1102 1.392 . S
C1101 C1105 1.495 . S
C1102 C1101 1.392 . S
C1102 C1103 1.385 . S
C1102 C1104 1.478 . S
C1103 H1097 0.936 1_556 S
C1103 C1099 1.400 . S
C1103 C1102 1.385 . S
C1104 C1102 1.478 . S
C1104 C1106 1.381 . S
C1104 C1110 1.383 . S
C1105 C1101 1.495 . S
C1105 H1111 0.959 . S
C1105 H1112 0.961 . S
C1105 H1113 0.960 . S
C1106 C1104 1.381 . S
C1106 C1107 1.394 . S
C1106 H1114 0.930 . S
C1107 C1106 1.394 . S
C1107 C1108 1.383 . S
C1107 H1115 0.929 1_556 S
C1108 C1107 1.383 . S
C1108 C1109 1.377 . S
C1109 H1093 0.930 . S
C1109 C1108 1.377 . S
C1109 C1110 1.379 . S
C1110 H1094 0.931 . S
C1110 C1104 1.383 . S
C1110 C1109 1.379 . S
H1111 C1105 0.959 . S
H1112 C1105 0.961 . S
H1113 C1105 0.960 . S
H1114 C1106 0.930 . S
H1115 C1107 0.929 1_554 S
H1116 C1124 0.929 . S
H1117 C1126 0.930 . S
H1118 C1128 0.930 . S
H1119 C1131 0.929 . S
H1120 C1134 0.930 . S
H1121 C1136 0.960 . S
H1122 C1136 0.960 . S
H1123 C1136 0.960 . S
C1124 H1116 0.929 . S
C1124 C1125 1.377 . S
C1124 C1126 1.384 . S
C1125 C1124 1.377 . S
C1125 C1131 1.390 . S
C1126 H1117 0.930 . S
C1126 C1124 1.384 . S
C1126 C1127 1.372 . S
C1127 C1126 1.372 . S
C1127 C1128 1.400 . S
C1127 C1132 1.490 . S
C1128 H1118 0.930 . S
C1128 C1127 1.400 . S
C1128 C1131 1.386 . S
H1129 C1145 0.930 . S
H1130 C1146 0.931 . S
C1131 H1119 0.929 . S
C1131 C1125 1.390 . S
C1131 C1128 1.386 . S
C1132 C1127 1.490 . S
C1132 C1134 1.395 . S
C1132 C1135 1.403 . S
H1133 C1139 0.930 . S
C1134 H1120 0.930 . S
C1134 C1132 1.395 . S
C1134 C1137 1.403 . S
C1135 C1132 1.403 . S
C1135 C1136 1.524 . S
C1135 C1139 1.400 . S
C1136 H1121 0.960 . S
C1136 H1122 0.960 . S
C1136 H1123 0.960 . S
C1136 C1135 1.524 . S
C1137 C1134 1.403 . S
C1137 C1138 1.392 . S
C1137 C1141 1.495 . S
C1138 C1137 1.392 . S
C1138 C1139 1.385 . S
C1138 C1140 1.478 . S
C1139 H1133 0.930 . S
C1139 C1135 1.400 . S
C1139 C1138 1.385 . S
C1140 C1138 1.478 . S
C1140 C1142 1.381 1_556 S
C1140 C1146 1.383 . S
C1141 C1137 1.495 . S
C1141 H1147 0.959 . S
C1141 H1148 0.961 . S
C1141 H1149 0.960 . S
C1142 C1140 1.381 1_554 S
C1142 C1143 1.394 . S
C1142 H1150 0.930 . S
C1143 C1142 1.394 . S
C1143 C1144 1.341 1_554 S
C1143 H1151 0.929 . S
C1144 C1143 1.341 1_556 S
C1144 C1145 1.442 . S
C1145 H1129 0.930 . S
C1145 C1144 1.442 . S
C1145 C1146 1.379 . S
C1146 H1130 0.931 . S
C1146 C1140 1.383 . S
C1146 C1145 1.379 . S
H1147 C1141 0.959 . S
H1148 C1141 0.961 . S
H1149 C1141 0.960 . S
H1150 C1142 0.930 . S
H1151 C1143 0.929 . S
H1152 C1160 0.929 . S
H1153 C1162 0.930 . S
H1154 C1164 0.930 . S
H1155 C1167 0.929 . S
H1156 C1170 0.930 . S
H1157 C1172 0.965 . S
H1158 C1172 0.957 1_556 S
H1159 C1172 0.962 . S
C1160 H1152 0.929 . S
C1160 C1161 1.377 . S
C1160 C1162 1.384 . S
C1161 C1160 1.377 . S
C1161 C1167 1.390 . S
C1162 H1153 0.930 . S
C1162 C1160 1.384 . S
C1162 C1163 1.372 . S
C1163 C1162 1.372 . S
C1163 C1164 1.400 . S
C1163 C1168 1.490 . S
C1164 H1154 0.930 . S
C1164 C1163 1.400 . S
C1164 C1167 1.386 . S
H1165 C1181 0.930 . S
H1166 C1182 0.931 . S
C1167 H1155 0.929 . S
C1167 C1161 1.390 . S
C1167 C1164 1.386 . S
C1168 C1163 1.490 . S
C1168 C1170 1.395 . S
C1168 C1171 1.403 . S
H1169 C1175 0.930 1_554 S
C1170 H1156 0.930 . S
C1170 C1168 1.395 . S
C1170 C1173 1.403 . S
C1171 C1168 1.403 . S
C1171 C1172 1.520 1_556 S
C1171 C1175 1.400 . S
C1172 H1157 0.965 . S
C1172 H1158 0.957 1_554 S
C1172 H1159 0.962 . S
C1172 C1171 1.520 1_554 S
C1173 C1170 1.403 . S
C1173 C1174 1.392 . S
C1173 C1177 1.495 . S
C1174 C1173 1.392 . S
C1174 C1175 1.385 . S
C1174 C1176 1.478 . S
C1175 H1169 0.930 1_556 S
C1175 C1171 1.400 . S
C1175 C1174 1.385 . S
C1176 C1174 1.478 . S
C1176 C1178 1.381 . S
C1176 C1182 1.383 1_556 S
C1177 C1173 1.495 . S
C1177 H1183 0.959 . S
C1177 H1184 0.961 . S
C1177 H1185 0.960 . S
C1178 C1176 1.381 . S
C1178 C1179 1.394 . S
C1178 H1186 0.930 . S
C1179 C1178 1.394 . S
C1179 C1180 1.437 . S
C1179 H1187 0.929 . S
C1180 C1179 1.437 . S
C1180 C1181 1.346 1_556 S
C1181 H1165 0.930 . S
C1181 C1180 1.346 1_554 S
C1181 C1182 1.379 . S
C1182 H1166 0.931 . S
C1182 C1176 1.383 1_554 S
C1182 C1181 1.379 . S
H1183 C1177 0.959 . S
H1184 C1177 0.961 . S
H1185 C1177 0.960 . S
H1186 C1178 0.930 . S
H1187 C1179 0.929 . S
H1188 C1196 0.929 . S
H1189 C1198 0.930 . S
H1190 C1200 0.930 . S
H1191 C1203 0.929 . S
H1192 C1206 0.930 . S
H1193 C1208 0.960 . S
H1194 C1208 0.960 . S
H1195 C1208 0.960 . S
C1196 H1188 0.929 . S
C1196 C1197 1.377 . S
C1196 C1198 1.384 . S
C1197 C1196 1.377 . S
C1197 C1203 1.390 . S
C1198 H1189 0.930 . S
C1198 C1196 1.384 . S
C1198 C1199 1.372 . S
C1199 C1198 1.372 . S
C1199 C1200 1.400 . S
C1199 C1204 1.490 . S
C1200 H1190 0.930 . S
C1200 C1199 1.400 . S
C1200 C1203 1.386 . S
H1201 C1217 0.930 . S
H1202 C1218 0.931 . S
C1203 H1191 0.929 . S
C1203 C1197 1.390 . S
C1203 C1200 1.386 . S
C1204 C1199 1.490 . S
C1204 C1206 1.395 . S
C1204 C1207 1.403 . S
H1205 C1211 0.930 . S
C1206 H1192 0.930 . S
C1206 C1204 1.395 . S
C1206 C1209 1.403 . S
C1207 C1204 1.403 . S
C1207 C1208 1.524 . S
C1207 C1211 1.400 . S
C1208 H1193 0.960 . S
C1208 H1194 0.960 . S
C1208 H1195 0.960 . S
C1208 C1207 1.524 . S
C1209 C1206 1.403 . S
C1209 C1210 1.392 . S
C1209 C1213 1.495 1_556 S
C1210 C1209 1.392 . S
C1210 C1211 1.385 . S
C1210 C1212 1.478 . S
C1211 H1205 0.930 . S
C1211 C1207 1.400 . S
C1211 C1210 1.385 . S
C1212 C1210 1.478 . S
C1212 C1214 1.381 1_556 S
C1212 C1218 1.383 . S
C1213 C1209 1.495 1_554 S
C1213 H1219 0.959 . S
C1213 H1220 0.963 1_554 S
C1213 H1221 0.960 . S
C1214 C1212 1.381 1_554 S
C1214 C1215 1.394 . S
C1214 H1222 0.930 . S
C1215 C1214 1.394 . S
C1215 C1216 1.364 1_554 S
C1215 H1223 0.929 . S
C1216 C1215 1.364 1_556 S
C1216 C1217 1.403 . S
C1217 H1201 0.930 . S
C1217 C1216 1.403 . S
C1217 C1218 1.379 . S
C1218 H1202 0.931 . S
C1218 C1212 1.383 . S
C1218 C1217 1.379 . S
H1219 C1213 0.959 . S
H1220 C1213 0.963 1_556 S
H1221 C1213 0.960 . S
H1222 C1214 0.930 . S
H1223 C1215 0.929 . S
H1224 C1232 0.929 . S
H1225 C1234 0.930 . S
H1226 C1236 0.930 . S
H1227 C1239 0.929 . S
H1228 C1242 0.930 . S
H1229 C1244 0.960 . S
H1230 C1244 0.960 . S
H1231 C1244 0.960 . S
C1232 H1224 0.929 . S
C1232 C1233 1.377 . S
C1232 C1234 1.384 . S
C1233 C1232 1.377 . S
C1233 C1239 1.390 . S
C1234 H1225 0.930 . S
C1234 C1232 1.384 . S
C1234 C1235 1.372 . S
C1235 C1234 1.372 . S
C1235 C1236 1.400 . S
C1235 C1240 1.490 . S
C1236 H1226 0.930 . S
C1236 C1235 1.400 . S
C1236 C1239 1.386 . S
H1237 C1253 0.930 1_554 S
H1238 C1254 0.931 . S
C1239 H1227 0.929 . S
C1239 C1233 1.390 . S
C1239 C1236 1.386 . S
C1240 C1235 1.490 . S
C1240 C1242 1.395 . S
C1240 C1243 1.403 . S
H1241 C1247 0.930 . S
C1242 H1228 0.930 . S
C1242 C1240 1.395 . S
C1242 C1245 1.403 . S
C1243 C1240 1.403 . S
C1243 C1244 1.524 . S
C1243 C1247 1.400 . S
C1244 H1229 0.960 . S
C1244 H1230 0.960 . S
C1244 H1231 0.960 . S
C1244 C1243 1.524 . S
C1245 C1242 1.403 . S
C1245 C1246 1.392 . S
C1245 C1249 1.495 1_556 S
C1246 C1245 1.392 . S
C1246 C1247 1.385 . S
C1246 C1248 1.478 . S
C1247 H1241 0.930 . S
C1247 C1243 1.400 . S
C1247 C1246 1.385 . S
C1248 C1246 1.478 . S
C1248 C1250 1.381 . S
C1248 C1254 1.383 . S
C1249 C1245 1.495 1_554 S
C1249 H1255 0.959 . S
C1249 H1256 0.961 . S
C1249 H1257 0.960 . S
C1250 C1248 1.381 . S
C1250 C1251 1.394 . S
C1250 H1258 0.930 . S
C1251 C1250 1.394 . S
C1251 C1252 1.383 . S
C1251 H1259 0.929 . S
C1252 C1251 1.383 . S
C1252 C1253 1.377 . S
C1253 H1237 0.930 1_556 S
C1253 C1252 1.377 . S
C1253 C1254 1.379 . S
C1254 H1238 0.931 . S
C1254 C1248 1.383 . S
C1254 C1253 1.379 . S
H1255 C1249 0.959 . S
H1256 C1249 0.961 . S
H1257 C1249 0.960 . S
H1258 C1250 0.930 . S
H1259 C1251 0.929 . S
H1260 C1268 0.929 . S
H1261 C1270 0.930 . S
H1262 C1272 0.930 . S
H1263 C1275 0.929 . S
H1264 C1278 0.930 . S
H1265 C1280 0.960 . S
H1266 C1280 0.960 . S
H1267 C1280 0.960 . S
C1268 H1260 0.929 . S
C1268 C1269 1.377 . S
C1268 C1270 1.384 . S
C1269 C1268 1.377 . S
C1269 C1275 1.390 . S
C1270 H1261 0.930 . S
C1270 C1268 1.384 . S
C1270 C1271 1.372 . S
C1271 C1270 1.372 . S
C1271 C1272 1.400 . S
C1271 C1276 1.490 . S
C1272 H1262 0.930 . S
C1272 C1271 1.400 . S
C1272 C1275 1.386 . S
H1273 C1289 0.930 . S
H1274 C1290 0.931 . S
C1275 H1263 0.929 . S
C1275 C1269 1.390 . S
C1275 C1272 1.386 . S
C1276 C1271 1.490 . S
C1276 C1278 1.395 . S
C1276 C1279 1.403 . S
H1277 C1283 0.930 . S
C1278 H1264 0.930 . S
C1278 C1276 1.395 . S
C1278 C1281 1.403 . S
C1279 C1276 1.403 . S
C1279 C1280 1.524 . S
C1279 C1283 1.400 . S
C1280 H1265 0.960 . S
C1280 H1266 0.960 . S
C1280 H1267 0.960 . S
C1280 C1279 1.524 . S
C1281 C1278 1.403 . S
C1281 C1282 1.392 . S
C1281 C1285 1.495 . S
C1282 C1281 1.392 . S
C1282 C1283 1.385 . S
C1282 C1284 1.478 . S
C1283 H1277 0.930 . S
C1283 C1279 1.400 . S
C1283 C1282 1.385 . S
C1284 C1282 1.478 . S
C1284 C1286 1.381 . S
C1284 C1290 1.383 1_556 S
C1285 C1281 1.495 . S
C1285 H1291 0.959 . S
C1285 H1292 0.961 . S
C1285 H1293 0.960 . S
C1286 C1284 1.381 . S
C1286 C1287 1.394 . S
C1286 H1294 0.930 . S
C1287 C1286 1.394 . S
C1287 C1288 1.372 1_556 S
C1287 H1295 0.929 . S
C1288 C1287 1.372 1_554 S
C1288 C1289 1.385 . S
C1289 H1273 0.930 . S
C1289 C1288 1.385 . S
C1289 C1290 1.379 . S
C1290 H1274 0.931 . S
C1290 C1284 1.383 1_554 S
C1290 C1289 1.379 . S
H1291 C1285 0.959 . S
H1292 C1285 0.961 . S
H1293 C1285 0.960 . S
H1294 C1286 0.930 . S
H1295 C1287 0.929 . S
H1296 C1304 0.929 . S
H1297 C1306 0.930 . S
H1298 C1308 0.930 . S
H1299 C1311 0.929 . S
H1300 C1314 0.930 . S
H1301 C1316 0.960 . S
H1302 C1316 0.960 . S
H1303 C1316 0.960 . S
C1304 H1296 0.929 . S
C1304 C1305 1.377 . S
C1304 C1306 1.384 . S
C1305 C1304 1.377 . S
C1305 C1311 1.390 . S
C1306 H1297 0.930 . S
C1306 C1304 1.384 . S
C1306 C1307 1.372 . S
C1307 C1306 1.372 . S
C1307 C1308 1.400 . S
C1307 C1312 1.490 . S
C1308 H1298 0.930 . S
C1308 C1307 1.400 . S
C1308 C1311 1.386 . S
H1309 C1325 0.930 . S
H1310 C1326 0.931 . S
C1311 H1299 0.929 . S
C1311 C1305 1.390 . S
C1311 C1308 1.386 . S
C1312 C1307 1.490 . S
C1312 C1314 1.395 . S
C1312 C1315 1.403 . S
H1313 C1319 0.930 . S
C1314 H1300 0.930 . S
C1314 C1312 1.395 . S
C1314 C1317 1.403 . S
C1315 C1312 1.403 . S
C1315 C1316 1.524 . S
C1315 C1319 1.400 . S
C1316 H1301 0.960 . S
C1316 H1302 0.960 . S
C1316 H1303 0.960 . S
C1316 C1315 1.524 . S
C1317 C1314 1.403 . S
C1317 C1318 1.392 . S
C1317 C1321 1.495 . S
C1318 C1317 1.392 . S
C1318 C1319 1.385 . S
C1318 C1320 1.478 . S
C1319 H1313 0.930 . S
C1319 C1315 1.400 . S
C1319 C1318 1.385 . S
C1320 C1318 1.478 . S
C1320 C1322 1.381 . S
C1320 C1326 1.383 . S
C1321 C1317 1.495 . S
C1321 H1327 0.959 . S
C1321 H1328 0.961 . S
C1321 H1329 0.960 . S
C1322 C1320 1.381 . S
C1322 C1323 1.394 . S
C1322 H1330 0.930 . S
C1323 C1322 1.394 . S
C1323 C1324 1.383 . S
C1323 H1331 0.929 . S
C1324 C1323 1.383 . S
C1324 C1325 1.377 . S
C1325 H1309 0.930 . S
C1325 C1324 1.377 . S
C1325 C1326 1.379 . S
C1326 H1310 0.931 . S
C1326 C1320 1.383 . S
C1326 C1325 1.379 . S
H1327 C1321 0.959 . S
H1328 C1321 0.961 . S
H1329 C1321 0.960 . S
H1330 C1322 0.930 . S
H1331 C1323 0.929 . S
H1332 C1340 0.929 . S
H1333 C1342 0.930 . S
H1334 C1344 0.930 . S
H1335 C1347 0.929 . S
H1336 C1350 0.930 . S
H1337 C1352 0.960 . S
H1338 C1352 0.960 . S
H1339 C1352 0.960 . S
C1340 H1332 0.929 . S
C1340 C1341 1.377 . S
C1340 C1342 1.384 . S
C1341 C1340 1.377 . S
C1341 C1347 1.390 . S
C1342 H1333 0.930 . S
C1342 C1340 1.384 . S
C1342 C1343 1.372 . S
C1343 C1342 1.372 . S
C1343 C1344 1.400 . S
C1343 C1348 1.490 . S
C1344 H1334 0.930 . S
C1344 C1343 1.400 . S
C1344 C1347 1.386 . S
H1345 C1361 0.930 . S
H1346 C1362 0.931 . S
C1347 H1335 0.929 . S
C1347 C1341 1.390 . S
C1347 C1344 1.386 . S
C1348 C1343 1.490 . S
C1348 C1350 1.395 . S
C1348 C1351 1.403 . S
H1349 C1355 0.930 . S
C1350 H1336 0.930 . S
C1350 C1348 1.395 . S
C1350 C1353 1.403 . S
C1351 C1348 1.403 . S
C1351 C1352 1.524 . S
C1351 C1355 1.400 . S
C1352 H1337 0.960 . S
C1352 H1338 0.960 . S
C1352 H1339 0.960 . S
C1352 C1351 1.524 . S
C1353 C1350 1.403 . S
C1353 C1354 1.392 . S
C1353 C1357 1.495 . S
C1354 C1353 1.392 . S
C1354 C1355 1.385 . S
C1354 C1356 1.478 . S
C1355 H1349 0.930 . S
C1355 C1351 1.400 . S
C1355 C1354 1.385 . S
C1356 C1354 1.478 . S
C1356 C1358 1.381 . S
C1356 C1362 1.383 . S
C1357 C1353 1.495 . S
C1357 H1363 0.959 . S
C1357 H1364 0.961 . S
C1357 H1365 0.960 . S
C1358 C1356 1.381 . S
C1358 C1359 1.394 . S
C1358 H1366 0.930 . S
C1359 C1358 1.394 . S
C1359 C1360 1.383 . S
C1359 H1367 0.929 . S
C1360 C1359 1.383 . S
C1360 C1361 1.377 . S
C1361 H1345 0.930 . S
C1361 C1360 1.377 . S
C1361 C1362 1.379 . S
C1362 H1346 0.931 . S
C1362 C1356 1.383 . S
C1362 C1361 1.379 . S
H1363 C1357 0.959 . S
H1364 C1357 0.961 . S
H1365 C1357 0.960 . S
H1366 C1358 0.930 . S
H1367 C1359 0.929 . S
H1368 C1376 0.929 . S
H1369 C1378 0.930 . S
H1370 C1380 0.930 . S
H1371 C1383 0.929 . S
H1372 C1386 0.930 . S
H1373 C1388 0.960 . S
H1374 C1388 0.960 . S
H1375 C1388 0.960 . S
C1376 H1368 0.929 . S
C1376 C1377 1.377 . S
C1376 C1378 1.384 . S
C1377 C1376 1.377 . S
C1377 C1383 1.390 . S
C1378 H1369 0.930 . S
C1378 C1376 1.384 . S
C1378 C1379 1.372 . S
C1379 C1378 1.372 . S
C1379 C1380 1.400 . S
C1379 C1384 1.490 . S
C1380 H1370 0.930 . S
C1380 C1379 1.400 . S
C1380 C1383 1.386 . S
H1381 C1397 0.930 . S
H1382 C1398 0.931 . S
C1383 H1371 0.929 . S
C1383 C1377 1.390 . S
C1383 C1380 1.386 . S
C1384 C1379 1.490 . S
C1384 C1386 1.395 . S
C1384 C1387 1.403 . S
H1385 C1391 0.930 . S
C1386 H1372 0.930 . S
C1386 C1384 1.395 . S
C1386 C1389 1.403 . S
C1387 C1384 1.403 . S
C1387 C1388 1.524 . S
C1387 C1391 1.400 . S
C1388 H1373 0.960 . S
C1388 H1374 0.960 . S
C1388 H1375 0.960 . S
C1388 C1387 1.524 . S
C1389 C1386 1.403 . S
C1389 C1390 1.392 . S
C1389 C1393 1.495 . S
C1390 C1389 1.392 . S
C1390 C1391 1.385 . S
C1390 C1392 1.478 . S
C1391 H1385 0.930 . S
C1391 C1387 1.400 . S
C1391 C1390 1.385 . S
C1392 C1390 1.478 . S
C1392 C1394 1.381 . S
C1392 C1398 1.383 . S
C1393 C1389 1.495 . S
C1393 H1399 0.959 . S
C1393 H1400 0.961 . S
C1393 H1401 0.960 . S
C1394 C1392 1.381 . S
C1394 C1395 1.394 . S
C1394 H1402 0.930 . S
C1395 C1394 1.394 . S
C1395 C1396 1.383 . S
C1395 H1403 0.929 . S
C1396 C1395 1.383 . S
C1396 C1397 1.377 . S
C1397 H1381 0.930 . S
C1397 C1396 1.377 . S
C1397 C1398 1.379 . S
C1398 H1382 0.931 . S
C1398 C1392 1.383 . S
C1398 C1397 1.379 . S
H1399 C1393 0.959 . S
H1400 C1393 0.961 . S
H1401 C1393 0.960 . S
H1402 C1394 0.930 . S
H1403 C1395 0.929 . S
H1404 C1412 0.929 . S
H1405 C1414 0.930 . S
H1406 C1416 0.930 . S
H1407 C1419 0.929 . S
H1408 C1422 0.930 . S
H1409 C1424 0.960 1_455 S
H1410 C1424 0.960 . S
H1411 C1424 0.960 . S
C1412 H1404 0.929 . S
C1412 C1413 1.377 . S
C1412 C1414 1.384 . S
C1413 C1412 1.377 . S
C1413 C1419 1.390 . S
C1414 H1405 0.930 . S
C1414 C1412 1.384 . S
C1414 C1415 1.372 . S
C1415 C1414 1.372 . S
C1415 C1416 1.400 . S
C1415 C1420 1.490 . S
C1416 H1406 0.930 . S
C1416 C1415 1.400 . S
C1416 C1419 1.386 . S
H1417 C1433 0.930 . S
H1418 C1434 0.931 . S
C1419 H1407 0.929 . S
C1419 C1413 1.390 . S
C1419 C1416 1.386 . S
C1420 C1415 1.490 . S
C1420 C1422 1.395 . S
C1420 C1423 1.403 1_655 S
H1421 C1427 0.930 . S
C1422 H1408 0.930 . S
C1422 C1420 1.395 . S
C1422 C1425 1.403 1_655 S
C1423 C1420 1.403 1_455 S
C1423 C1424 1.524 1_455 S
C1423 C1427 1.400 . S
C1424 H1409 0.960 1_655 S
C1424 H1410 0.960 . S
C1424 H1411 0.960 . S
C1424 C1423 1.524 1_655 S
C1425 C1422 1.403 1_455 S
C1425 C1426 1.392 . S
C1425 C1429 1.495 . S
C1426 C1425 1.392 . S
C1426 C1427 1.385 . S
C1426 C1428 1.478 . S
C1427 H1421 0.930 . S
C1427 C1423 1.400 . S
C1427 C1426 1.385 . S
C1428 C1426 1.478 . S
C1428 C1430 1.381 . S
C1428 C1434 1.383 . S
C1429 C1425 1.495 . S
C1429 H1435 0.959 . S
C1429 H1436 0.961 . S
C1429 H1437 0.960 . S
C1430 C1428 1.381 . S
C1430 C1431 1.394 . S
C1430 H1438 0.930 . S
C1431 C1430 1.394 . S
C1431 C1432 1.383 . S
C1431 H1439 0.929 . S
C1432 C1431 1.383 . S
C1432 C1433 1.377 . S
C1433 H1417 0.930 . S
C1433 C1432 1.377 . S
C1433 C1434 1.379 . S
C1434 H1418 0.931 . S
C1434 C1428 1.383 . S
C1434 C1433 1.379 . S
H1435 C1429 0.959 . S
H1436 C1429 0.961 . S
H1437 C1429 0.960 . S
H1438 C1430 0.930 . S
H1439 C1431 0.929 . S
H1440 C1448 0.929 . S
H1441 C1450 0.930 . S
H1442 C1452 0.930 . S
H1443 C1455 0.929 . S
H1444 C1458 0.930 . S
H1445 C1460 0.960 . S
H1446 C1460 0.960 . S
H1447 C1460 0.960 . S
C1448 H1440 0.929 . S
C1448 C1449 1.377 . S
C1448 C1450 1.384 . S
C1449 C1448 1.377 . S
C1449 C1455 1.390 . S
C1450 H1441 0.930 . S
C1450 C1448 1.384 . S
C1450 C1451 1.372 . S
C1451 C1450 1.372 . S
C1451 C1452 1.400 . S
C1451 C1456 1.490 . S
C1452 H1442 0.930 . S
C1452 C1451 1.400 . S
C1452 C1455 1.386 . S
H1453 C1469 0.930 . S
H1454 C1470 0.931 . S
C1455 H1443 0.929 . S
C1455 C1449 1.390 . S
C1455 C1452 1.386 . S
C1456 C1451 1.490 . S
C1456 C1458 1.395 . S
C1456 C1459 1.403 . S
H1457 C1463 0.930 . S
C1458 H1444 0.930 . S
C1458 C1456 1.395 . S
C1458 C1461 1.403 . S
C1459 C1456 1.403 . S
C1459 C1460 1.524 . S
C1459 C1463 1.400 . S
C1460 H1445 0.960 . S
C1460 H1446 0.960 . S
C1460 H1447 0.960 . S
C1460 C1459 1.524 . S
C1461 C1458 1.403 . S
C1461 C1462 1.392 . S
C1461 C1465 1.495 . S
C1462 C1461 1.392 . S
C1462 C1463 1.385 . S
C1462 C1464 1.478 . S
C1463 H1457 0.930 . S
C1463 C1459 1.400 . S
C1463 C1462 1.385 . S
C1464 C1462 1.478 . S
C1464 C1466 1.381 . S
C1464 C1470 1.383 . S
C1465 C1461 1.495 . S
C1465 H1471 0.959 . S
C1465 H1472 0.961 . S
C1465 H1473 0.960 . S
C1466 C1464 1.381 . S
C1466 C1467 1.394 . S
C1466 H1474 0.930 . S
C1467 C1466 1.394 . S
C1467 C1468 1.383 . S
C1467 H1475 0.929 . S
C1468 C1467 1.383 . S
C1468 C1469 1.377 . S
C1469 H1453 0.930 . S
C1469 C1468 1.377 . S
C1469 C1470 1.379 . S
C1470 H1454 0.931 . S
C1470 C1464 1.383 . S
C1470 C1469 1.379 . S
H1471 C1465 0.959 . S
H1472 C1465 0.961 . S
H1473 C1465 0.960 . S
H1474 C1466 0.930 . S
H1475 C1467 0.929 . S
H1476 C1484 0.929 . S
H1477 C1486 0.930 . S
H1478 C1488 0.930 . S
H1479 C1491 0.929 . S
H1480 C1494 0.930 . S
H1481 C1496 0.960 1_565 S
H1482 C1496 0.960 . S
H1483 C1496 0.960 . S
C1484 H1476 0.929 . S
C1484 C1485 1.377 . S
C1484 C1486 1.384 . S
C1485 C1484 1.377 . S
C1485 C1491 1.390 . S
C1486 H1477 0.930 . S
C1486 C1484 1.384 . S
C1486 C1487 1.372 . S
C1487 C1486 1.372 . S
C1487 C1488 1.400 . S
C1487 C1492 1.490 . S
C1488 H1478 0.930 . S
C1488 C1487 1.400 . S
C1488 C1491 1.386 . S
H1489 C1505 0.930 . S
H1490 C1506 0.931 . S
C1491 H1479 0.929 . S
C1491 C1485 1.390 . S
C1491 C1488 1.386 . S
C1492 C1487 1.490 . S
C1492 C1494 1.395 . S
C1492 C1495 1.403 . S
H1493 C1499 0.930 . S
C1494 H1480 0.930 . S
C1494 C1492 1.395 . S
C1494 C1497 1.403 . S
C1495 C1492 1.403 . S
C1495 C1496 1.524 . S
C1495 C1499 1.400 1_545 S
C1496 H1481 0.960 1_545 S
C1496 H1482 0.960 . S
C1496 H1483 0.960 . S
C1496 C1495 1.524 . S
C1497 C1494 1.403 . S
C1497 C1498 1.392 1_545 S
C1497 C1501 1.495 . S
C1498 C1497 1.392 1_565 S
C1498 C1499 1.385 . S
C1498 C1500 1.478 . S
C1499 H1493 0.930 . S
C1499 C1495 1.400 1_565 S
C1499 C1498 1.385 . S
C1500 C1498 1.478 . S
C1500 C1502 1.381 . S
C1500 C1506 1.383 . S
C1501 C1497 1.495 . S
C1501 H1507 0.959 . S
C1501 H1508 0.965 1_545 S
C1501 H1509 0.960 1_545 S
C1502 C1500 1.381 . S
C1502 C1503 1.394 . S
C1502 H1510 0.930 . S
C1503 C1502 1.394 . S
C1503 C1504 1.383 . S
C1503 H1511 0.929 . S
C1504 C1503 1.383 . S
C1504 C1505 1.377 . S
C1505 H1489 0.930 . S
C1505 C1504 1.377 . S
C1505 C1506 1.379 . S
C1506 H1490 0.931 . S
C1506 C1500 1.383 . S
C1506 C1505 1.379 . S
H1507 C1501 0.959 . S
H1508 C1501 0.965 1_565 S
H1509 C1501 0.960 1_565 S
H1510 C1502 0.930 . S
H1511 C1503 0.929 . S
H1512 C1520 0.929 . S
H1513 C1522 0.930 . S
H1514 C1524 0.930 . S
H1515 C1527 0.929 . S
H1516 C1530 0.930 . S
H1517 C1532 0.960 . S
H1518 C1532 0.960 . S
H1519 C1532 0.960 . S
C1520 H1512 0.929 . S
C1520 C1521 1.377 . S
C1520 C1522 1.384 . S
C1521 C1520 1.377 . S
C1521 C1527 1.390 . S
C1522 H1513 0.930 . S
C1522 C1520 1.384 . S
C1522 C1523 1.372 . S
C1523 C1522 1.372 . S
C1523 C1524 1.400 . S
C1523 C1528 1.490 . S
C1524 H1514 0.930 . S
C1524 C1523 1.400 . S
C1524 C1527 1.386 . S
H1525 C1541 0.930 . S
H1526 C1542 0.931 . S
C1527 H1515 0.929 . S
C1527 C1521 1.390 . S
C1527 C1524 1.386 . S
C1528 C1523 1.490 . S
C1528 C1530 1.395 . S
C1528 C1531 1.403 . S
H1529 C1535 0.930 . S
C1530 H1516 0.930 . S
C1530 C1528 1.395 . S
C1530 C1533 1.403 . S
C1531 C1528 1.403 . S
C1531 C1532 1.524 . S
C1531 C1535 1.400 . S
C1532 H1517 0.960 . S
C1532 H1518 0.960 . S
C1532 H1519 0.960 . S
C1532 C1531 1.524 . S
C1533 C1530 1.403 . S
C1533 C1534 1.392 . S
C1533 C1537 1.495 . S
C1534 C1533 1.392 . S
C1534 C1535 1.385 . S
C1534 C1536 1.478 . S
C1535 H1529 0.930 . S
C1535 C1531 1.400 . S
C1535 C1534 1.385 . S
C1536 C1534 1.478 . S
C1536 C1538 1.381 . S
C1536 C1542 1.383 . S
C1537 C1533 1.495 . S
C1537 H1543 0.959 . S
C1537 H1544 0.961 . S
C1537 H1545 0.960 . S
C1538 C1536 1.381 . S
C1538 C1539 1.394 . S
C1538 H1546 0.930 . S
C1539 C1538 1.394 . S
C1539 C1540 1.383 . S
C1539 H1547 0.929 . S
C1540 C1539 1.383 . S
C1540 C1541 1.377 . S
C1541 H1525 0.930 . S
C1541 C1540 1.377 . S
C1541 C1542 1.379 . S
C1542 H1526 0.931 . S
C1542 C1536 1.383 . S
C1542 C1541 1.379 . S
H1543 C1537 0.959 . S
H1544 C1537 0.961 . S
H1545 C1537 0.960 . S
H1546 C1538 0.930 . S
H1547 C1539 0.929 . S
H1548 C1556 0.929 . S
H1549 C1558 0.930 . S
H1550 C1560 0.930 . S
H1551 C1563 0.929 . S
H1552 C1566 0.930 . S
H1553 C1568 0.960 . S
H1554 C1568 0.960 . S
H1555 C1568 0.960 . S
C1556 H1548 0.929 . S
C1556 C1557 1.377 . S
C1556 C1558 1.384 . S
C1557 C1556 1.377 . S
C1557 C1563 1.390 . S
C1558 H1549 0.930 . S
C1558 C1556 1.384 . S
C1558 C1559 1.372 . S
C1559 C1558 1.372 . S
C1559 C1560 1.400 . S
C1559 C1564 1.490 . S
C1560 H1550 0.930 . S
C1560 C1559 1.400 . S
C1560 C1563 1.386 . S
H1561 C1577 0.930 . S
H1562 C1578 0.931 . S
C1563 H1551 0.929 . S
C1563 C1557 1.390 . S
C1563 C1560 1.386 . S
C1564 C1559 1.490 . S
C1564 C1566 1.395 . S
C1564 C1567 1.403 . S
H1565 C1571 0.930 . S
C1566 H1552 0.930 . S
C1566 C1564 1.395 . S
C1566 C1569 1.403 . S
C1567 C1564 1.403 . S
C1567 C1568 1.524 . S
C1567 C1571 1.400 . S
C1568 H1553 0.960 . S
C1568 H1554 0.960 . S
C1568 H1555 0.960 . S
C1568 C1567 1.524 . S
C1569 C1566 1.403 . S
C1569 C1570 1.392 . S
C1569 C1573 1.495 . S
C1570 C1569 1.392 . S
C1570 C1571 1.385 . S
C1570 C1572 1.478 . S
C1571 H1565 0.930 . S
C1571 C1567 1.400 . S
C1571 C1570 1.385 . S
C1572 C1570 1.478 . S
C1572 C1574 1.381 . S
C1572 C1578 1.383 . S
C1573 C1569 1.495 . S
C1573 H1579 0.959 . S
C1573 H1580 0.961 . S
C1573 H1581 0.960 . S
C1574 C1572 1.381 . S
C1574 C1575 1.394 . S
C1574 H1582 0.930 . S
C1575 C1574 1.394 . S
C1575 C1576 1.383 . S
C1575 H1583 0.929 . S
C1576 C1575 1.383 . S
C1576 C1577 1.377 . S
C1577 H1561 0.930 . S
C1577 C1576 1.377 . S
C1577 C1578 1.379 . S
C1578 H1562 0.931 . S
C1578 C1572 1.383 . S
C1578 C1577 1.379 . S
H1579 C1573 0.959 . S
H1580 C1573 0.961 . S
H1581 C1573 0.960 . S
H1582 C1574 0.930 . S
H1583 C1575 0.929 . S
H1584 C1592 0.929 . S
H1585 C1594 0.930 . S
H1586 C1596 0.930 . S
H1587 C1599 0.929 . S
H1588 C1602 0.930 . S
H1589 C1604 0.960 . S
H1590 C1604 0.960 . S
H1591 C1604 0.960 . S
C1592 H1584 0.929 . S
C1592 C1593 1.377 . S
C1592 C1594 1.384 . S
C1593 C1592 1.377 . S
C1593 C1599 1.390 . S
C1594 H1585 0.930 . S
C1594 C1592 1.384 . S
C1594 C1595 1.372 . S
C1595 C1594 1.372 . S
C1595 C1596 1.400 . S
C1595 C1600 1.490 . S
C1596 H1586 0.930 . S
C1596 C1595 1.400 . S
C1596 C1599 1.386 . S
H1597 C1613 0.930 . S
H1598 C1614 0.931 . S
C1599 H1587 0.929 . S
C1599 C1593 1.390 . S
C1599 C1596 1.386 . S
C1600 C1595 1.490 . S
C1600 C1602 1.395 . S
C1600 C1603 1.403 . S
H1601 C1607 0.930 . S
C1602 H1588 0.930 . S
C1602 C1600 1.395 . S
C1602 C1605 1.403 . S
C1603 C1600 1.403 . S
C1603 C1604 1.524 . S
C1603 C1607 1.400 . S
C1604 H1589 0.960 . S
C1604 H1590 0.960 . S
C1604 H1591 0.960 . S
C1604 C1603 1.524 . S
C1605 C1602 1.403 . S
C1605 C1606 1.392 . S
C1605 C1609 1.495 . S
C1606 C1605 1.392 . S
C1606 C1607 1.385 . S
C1606 C1608 1.478 . S
C1607 H1601 0.930 . S
C1607 C1603 1.400 . S
C1607 C1606 1.385 . S
C1608 C1606 1.478 . S
C1608 C1610 1.381 . S
C1608 C1614 1.383 . S
C1609 C1605 1.495 . S
C1609 H1615 0.959 . S
C1609 H1616 0.961 . S
C1609 H1617 0.960 . S
C1610 C1608 1.381 . S
C1610 C1611 1.394 . S
C1610 H1618 0.930 . S
C1611 C1610 1.394 . S
C1611 C1612 1.383 . S
C1611 H1619 0.929 . S
C1612 C1611 1.383 . S
C1612 C1613 1.377 . S
C1613 H1597 0.930 . S
C1613 C1612 1.377 . S
C1613 C1614 1.379 . S
C1614 H1598 0.931 . S
C1614 C1608 1.383 . S
C1614 C1613 1.379 . S
H1615 C1609 0.959 . S
H1616 C1609 0.961 . S
H1617 C1609 0.960 . S
H1618 C1610 0.930 . S
H1619 C1611 0.929 . S
H1620 C1628 0.929 . S
H1621 C1630 0.930 . S
H1622 C1632 0.930 . S
H1623 C1635 0.929 . S
H1624 C1638 0.930 . S
H1625 C1640 0.960 . S
H1626 C1640 0.960 . S
H1627 C1640 0.960 . S
C1628 H1620 0.929 . S
C1628 C1629 1.377 . S
C1628 C1630 1.384 . S
C1629 C1628 1.377 . S
C1629 C1635 1.390 . S
C1630 H1621 0.930 . S
C1630 C1628 1.384 . S
C1630 C1631 1.372 . S
C1631 C1630 1.372 . S
C1631 C1632 1.400 . S
C1631 C1636 1.490 . S
C1632 H1622 0.930 . S
C1632 C1631 1.400 . S
C1632 C1635 1.386 . S
H1633 C1649 0.930 . S
H1634 C1650 0.931 . S
C1635 H1623 0.929 . S
C1635 C1629 1.390 . S
C1635 C1632 1.386 . S
C1636 C1631 1.490 . S
C1636 C1638 1.395 . S
C1636 C1639 1.403 . S
H1637 C1643 0.930 . S
C1638 H1624 0.930 . S
C1638 C1636 1.395 . S
C1638 C1641 1.403 . S
C1639 C1636 1.403 . S
C1639 C1640 1.524 . S
C1639 C1643 1.400 . S
C1640 H1625 0.960 . S
C1640 H1626 0.960 . S
C1640 H1627 0.960 . S
C1640 C1639 1.524 . S
C1641 C1638 1.403 . S
C1641 C1642 1.392 . S
C1641 C1645 1.495 . S
C1642 C1641 1.392 . S
C1642 C1643 1.385 . S
C1642 C1644 1.478 . S
C1643 H1637 0.930 . S
C1643 C1639 1.400 . S
C1643 C1642 1.385 . S
C1644 C1642 1.478 . S
C1644 C1646 1.381 . S
C1644 C1650 1.383 . S
C1645 C1641 1.495 . S
C1645 H1651 0.959 . S
C1645 H1652 0.961 . S
C1645 H1653 0.960 . S
C1646 C1644 1.381 . S
C1646 C1647 1.394 . S
C1646 H1654 0.930 . S
C1647 C1646 1.394 . S
C1647 C1648 1.383 . S
C1647 H1655 0.929 . S
C1648 C1647 1.383 . S
C1648 C1649 1.377 . S
C1649 H1633 0.930 . S
C1649 C1648 1.377 . S
C1649 C1650 1.379 . S
C1650 H1634 0.931 . S
C1650 C1644 1.383 . S
C1650 C1649 1.379 . S
H1651 C1645 0.959 . S
H1652 C1645 0.961 . S
H1653 C1645 0.960 . S
H1654 C1646 0.930 . S
H1655 C1647 0.929 . S
H1656 C1664 0.929 . S
H1657 C1666 0.930 . S
H1658 C1668 0.930 . S
H1659 C1671 0.929 . S
H1660 C1674 0.930 . S
H1661 C1676 0.960 . S
H1662 C1676 0.960 . S
H1663 C1676 0.960 . S
C1664 H1656 0.929 . S
C1664 C1665 1.377 . S
C1664 C1666 1.384 . S
C1665 C1664 1.377 . S
C1665 C1671 1.390 . S
C1666 H1657 0.930 . S
C1666 C1664 1.384 . S
C1666 C1667 1.372 . S
C1667 C1666 1.372 . S
C1667 C1668 1.400 . S
C1667 C1672 1.490 . S
C1668 H1658 0.930 . S
C1668 C1667 1.400 . S
C1668 C1671 1.386 . S
H1669 C1685 0.930 . S
H1670 C1686 0.931 . S
C1671 H1659 0.929 . S
C1671 C1665 1.390 . S
C1671 C1668 1.386 . S
C1672 C1667 1.490 . S
C1672 C1674 1.395 . S
C1672 C1675 1.403 . S
H1673 C1679 0.930 . S
C1674 H1660 0.930 . S
C1674 C1672 1.395 . S
C1674 C1677 1.403 . S
C1675 C1672 1.403 . S
C1675 C1676 1.524 . S
C1675 C1679 1.400 . S
C1676 H1661 0.960 . S
C1676 H1662 0.960 . S
C1676 H1663 0.960 . S
C1676 C1675 1.524 . S
C1677 C1674 1.403 . S
C1677 C1678 1.392 . S
C1677 C1681 1.495 . S
C1678 C1677 1.392 . S
C1678 C1679 1.385 . S
C1678 C1680 1.478 . S
C1679 H1673 0.930 . S
C1679 C1675 1.400 . S
C1679 C1678 1.385 . S
C1680 C1678 1.478 . S
C1680 C1682 1.381 . S
C1680 C1686 1.383 . S
C1681 C1677 1.495 . S
C1681 H1687 0.959 . S
C1681 H1688 0.961 . S
C1681 H1689 0.960 . S
C1682 C1680 1.381 . S
C1682 C1683 1.394 . S
C1682 H1690 0.930 . S
C1683 C1682 1.394 . S
C1683 C1684 1.383 . S
C1683 H1691 0.929 . S
C1684 C1683 1.383 . S
C1684 C1685 1.377 . S
C1685 H1669 0.930 . S
C1685 C1684 1.377 . S
C1685 C1686 1.379 . S
C1686 H1670 0.931 . S
C1686 C1680 1.383 . S
C1686 C1685 1.379 . S
H1687 C1681 0.959 . S
H1688 C1681 0.961 . S
H1689 C1681 0.960 . S
H1690 C1682 0.930 . S
H1691 C1683 0.929 . S
H1692 C1700 0.929 . S
H1693 C1702 0.930 . S
H1694 C1704 0.930 . S
H1695 C1707 0.929 . S
H1696 C1710 0.930 . S
H1697 C1712 0.960 . S
H1698 C1712 0.960 . S
H1699 C1712 0.960 . S
C1700 H1692 0.929 . S
C1700 C1701 1.377 . S
C1700 C1702 1.384 . S
C1701 C1700 1.377 . S
C1701 C1707 1.390 . S
C1702 H1693 0.930 . S
C1702 C1700 1.384 . S
C1702 C1703 1.372 . S
C1703 C1702 1.372 . S
C1703 C1704 1.400 . S
C1703 C1708 1.490 . S
C1704 H1694 0.930 . S
C1704 C1703 1.400 . S
C1704 C1707 1.386 . S
H1705 C1721 0.930 . S
H1706 C1722 0.931 . S
C1707 H1695 0.929 . S
C1707 C1701 1.390 . S
C1707 C1704 1.386 . S
C1708 C1703 1.490 . S
C1708 C1710 1.395 . S
C1708 C1711 1.403 . S
H1709 C1715 0.930 . S
C1710 H1696 0.930 . S
C1710 C1708 1.395 . S
C1710 C1713 1.403 . S
C1711 C1708 1.403 . S
C1711 C1712 1.524 . S
C1711 C1715 1.400 . S
C1712 H1697 0.960 . S
C1712 H1698 0.960 . S
C1712 H1699 0.960 . S
C1712 C1711 1.524 . S
C1713 C1710 1.403 . S
C1713 C1714 1.392 . S
C1713 C1717 1.495 . S
C1714 C1713 1.392 . S
C1714 C1715 1.385 . S
C1714 C1716 1.478 . S
C1715 H1709 0.930 . S
C1715 C1711 1.400 . S
C1715 C1714 1.385 . S
C1716 C1714 1.478 . S
C1716 C1718 1.381 . S
C1716 C1722 1.383 . S
C1717 C1713 1.495 . S
C1717 H1723 0.959 . S
C1717 H1724 0.961 . S
C1717 H1725 0.960 . S
C1718 C1716 1.381 . S
C1718 C1719 1.394 . S
C1718 H1726 0.930 . S
C1719 C1718 1.394 . S
C1719 C1720 1.383 . S
C1719 H1727 0.929 . S
C1720 C1719 1.383 . S
C1720 C1721 1.377 . S
C1721 H1705 0.930 . S
C1721 C1720 1.377 . S
C1721 C1722 1.379 . S
C1722 H1706 0.931 . S
C1722 C1716 1.383 . S
C1722 C1721 1.379 . S
H1723 C1717 0.959 . S
H1724 C1717 0.961 . S
H1725 C1717 0.960 . S
H1726 C1718 0.930 . S
H1727 C1719 0.929 . S
H1728 C1736 0.929 . S
H1729 C1738 0.930 1_565 S
H1730 C1740 0.930 . S
H1731 C1743 0.929 . S
H1732 C1746 0.930 . S
H1733 C1748 0.960 . S
H1734 C1748 0.960 . S
H1735 C1748 0.960 . S
C1736 H1728 0.929 . S
C1736 C1737 1.377 . S
C1736 C1738 1.384 . S
C1737 C1736 1.377 . S
C1737 C1743 1.390 . S
C1738 H1729 0.930 1_545 S
C1738 C1736 1.384 . S
C1738 C1739 1.372 1_545 S
C1739 C1738 1.372 1_565 S
C1739 C1740 1.400 1_565 S
C1739 C1744 1.490 . S
C1740 H1730 0.930 . S
C1740 C1739 1.400 1_545 S
C1740 C1743 1.386 . S
H1741 C1757 0.930 . S
H1742 C1758 0.931 . S
C1743 H1731 0.929 . S
C1743 C1737 1.390 . S
C1743 C1740 1.386 . S
C1744 C1739 1.490 . S
C1744 C1746 1.395 . S
C1744 C1747 1.403 . S
H1745 C1751 0.930 . S
C1746 H1732 0.930 . S
C1746 C1744 1.395 . S
C1746 C1749 1.403 . S
C1747 C1744 1.403 . S
C1747 C1748 1.524 . S
C1747 C1751 1.400 . S
C1748 H1733 0.960 . S
C1748 H1734 0.960 . S
C1748 H1735 0.960 . S
C1748 C1747 1.524 . S
C1749 C1746 1.403 . S
C1749 C1750 1.392 . S
C1749 C1753 1.495 . S
C1750 C1749 1.392 . S
C1750 C1751 1.385 . S
C1750 C1752 1.478 . S
C1751 H1745 0.930 . S
C1751 C1747 1.400 . S
C1751 C1750 1.385 . S
C1752 C1750 1.478 . S
C1752 C1754 1.381 . S
C1752 C1758 1.383 . S
C1753 C1749 1.495 . S
C1753 H1759 0.959 . S
C1753 H1760 0.961 . S
C1753 H1761 0.960 . S
C1754 C1752 1.381 . S
C1754 C1755 1.394 . S
C1754 H1762 0.930 . S
C1755 C1754 1.394 . S
C1755 C1756 1.383 . S
C1755 H1763 0.929 . S
C1756 C1755 1.383 . S
C1756 C1757 1.377 . S
C1757 H1741 0.930 . S
C1757 C1756 1.377 . S
C1757 C1758 1.379 . S
C1758 H1742 0.931 . S
C1758 C1752 1.383 . S
C1758 C1757 1.379 . S
H1759 C1753 0.959 . S
H1760 C1753 0.961 . S
H1761 C1753 0.960 . S
H1762 C1754 0.930 . S
H1763 C1755 0.929 . S
H1764 C1772 0.929 . S
H1765 C1774 0.930 . S
H1766 C1776 0.930 . S
H1767 C1779 0.929 . S
H1768 C1782 0.930 . S
H1769 C1784 0.960 . S
H1770 C1784 0.960 . S
H1771 C1784 0.960 . S
C1772 H1764 0.929 . S
C1772 C1773 1.377 . S
C1772 C1774 1.384 1_655 S
C1773 C1772 1.377 . S
C1773 C1779 1.390 . S
C1774 H1765 0.930 . S
C1774 C1772 1.384 1_455 S
C1774 C1775 1.372 . S
C1775 C1774 1.372 . S
C1775 C1776 1.400 . S
C1775 C1780 1.490 . S
C1776 H1766 0.930 . S
C1776 C1775 1.400 . S
C1776 C1779 1.386 1_455 S
H1777 C1793 0.930 . S
H1778 C1794 0.931 . S
C1779 H1767 0.929 . S
C1779 C1773 1.390 . S
C1779 C1776 1.386 1_655 S
C1780 C1775 1.490 . S
C1780 C1782 1.395 . S
C1780 C1783 1.403 . S
H1781 C1787 0.930 . S
C1782 H1768 0.930 . S
C1782 C1780 1.395 . S
C1782 C1785 1.403 . S
C1783 C1780 1.403 . S
C1783 C1784 1.524 . S
C1783 C1787 1.400 . S
C1784 H1769 0.960 . S
C1784 H1770 0.960 . S
C1784 H1771 0.960 . S
C1784 C1783 1.524 . S
C1785 C1782 1.403 . S
C1785 C1786 1.392 . S
C1785 C1789 1.495 . S
C1786 C1785 1.392 . S
C1786 C1787 1.385 . S
C1786 C1788 1.478 . S
C1787 H1781 0.930 . S
C1787 C1783 1.400 . S
C1787 C1786 1.385 . S
C1788 C1786 1.478 . S
C1788 C1790 1.381 . S
C1788 C1794 1.383 . S
C1789 C1785 1.495 . S
C1789 H1795 0.959 . S
C1789 H1796 0.961 . S
C1789 H1797 0.960 . S
C1790 C1788 1.381 . S
C1790 C1791 1.394 . S
C1790 H1798 0.930 . S
C1791 C1790 1.394 . S
C1791 C1792 1.383 . S
C1791 H1799 0.929 . S
C1792 C1791 1.383 . S
C1792 C1793 1.377 . S
C1793 H1777 0.930 . S
C1793 C1792 1.377 . S
C1793 C1794 1.379 . S
C1794 H1778 0.931 . S
C1794 C1788 1.383 . S
C1794 C1793 1.379 . S
H1795 C1789 0.959 . S
H1796 C1789 0.961 . S
H1797 C1789 0.960 . S
H1798 C1790 0.930 . S
H1799 C1791 0.929 . S
H1800 C1808 0.929 . S
H1801 C1810 0.930 . S
H1802 C1812 0.930 . S
H1803 C1815 0.929 . S
H1804 C1818 0.930 . S
H1805 C1820 0.960 . S
H1806 C1820 0.960 . S
H1807 C1820 0.960 . S
C1808 H1800 0.929 . S
C1808 C1809 1.377 . S
C1808 C1810 1.384 . S
C1809 C1808 1.377 . S
C1809 C1815 1.390 . S
C1810 H1801 0.930 . S
C1810 C1808 1.384 . S
C1810 C1811 1.372 . S
C1811 C1810 1.372 . S
C1811 C1812 1.400 . S
C1811 C1816 1.490 . S
C1812 H1802 0.930 . S
C1812 C1811 1.400 . S
C1812 C1815 1.386 . S
H1813 C1829 0.930 . S
H1814 C1830 0.931 . S
C1815 H1803 0.929 . S
C1815 C1809 1.390 . S
C1815 C1812 1.386 . S
C1816 C1811 1.490 . S
C1816 C1818 1.395 . S
C1816 C1819 1.403 . S
H1817 C1823 0.930 . S
C1818 H1804 0.930 . S
C1818 C1816 1.395 . S
C1818 C1821 1.403 . S
C1819 C1816 1.403 . S
C1819 C1820 1.524 . S
C1819 C1823 1.400 . S
C1820 H1805 0.960 . S
C1820 H1806 0.960 . S
C1820 H1807 0.960 . S
C1820 C1819 1.524 . S
C1821 C1818 1.403 . S
C1821 C1822 1.392 . S
C1821 C1825 1.495 . S
C1822 C1821 1.392 . S
C1822 C1823 1.385 . S
C1822 C1824 1.478 . S
C1823 H1817 0.930 . S
C1823 C1819 1.400 . S
C1823 C1822 1.385 . S
C1824 C1822 1.478 . S
C1824 C1826 1.381 . S
C1824 C1830 1.383 . S
C1825 C1821 1.495 . S
C1825 H1831 0.959 . S
C1825 H1832 0.961 . S
C1825 H1833 0.960 . S
C1826 C1824 1.381 . S
C1826 C1827 1.394 . S
C1826 H1834 0.930 . S
C1827 C1826 1.394 . S
C1827 C1828 1.383 . S
C1827 H1835 0.929 . S
C1828 C1827 1.383 . S
C1828 C1829 1.377 . S
C1829 H1813 0.930 . S
C1829 C1828 1.377 . S
C1829 C1830 1.379 . S
C1830 H1814 0.931 . S
C1830 C1824 1.383 . S
C1830 C1829 1.379 . S
H1831 C1825 0.959 . S
H1832 C1825 0.961 . S
H1833 C1825 0.960 . S
H1834 C1826 0.930 . S
H1835 C1827 0.929 . S
H1836 C1844 0.929 . S
H1837 C1846 0.930 . S
H1838 C1848 0.930 . S
H1839 C1851 0.929 . S
H1840 C1854 0.930 . S
H1841 C1856 0.960 . S
H1842 C1856 0.960 . S
H1843 C1856 0.960 . S
C1844 H1836 0.929 . S
C1844 C1845 1.377 . S
C1844 C1846 1.384 . S
C1845 C1844 1.377 . S
C1845 C1851 1.390 . S
C1846 H1837 0.930 . S
C1846 C1844 1.384 . S
C1846 C1847 1.372 . S
C1847 C1846 1.372 . S
C1847 C1848 1.400 . S
C1847 C1852 1.490 . S
C1848 H1838 0.930 . S
C1848 C1847 1.400 . S
C1848 C1851 1.386 . S
H1849 C1865 0.930 . S
H1850 C1866 0.931 . S
C1851 H1839 0.929 . S
C1851 C1845 1.390 . S
C1851 C1848 1.386 . S
C1852 C1847 1.490 . S
C1852 C1854 1.395 . S
C1852 C1855 1.403 . S
H1853 C1859 0.930 . S
C1854 H1840 0.930 . S
C1854 C1852 1.395 . S
C1854 C1857 1.403 . S
C1855 C1852 1.403 . S
C1855 C1856 1.524 . S
C1855 C1859 1.400 . S
C1856 H1841 0.960 . S
C1856 H1842 0.960 . S
C1856 H1843 0.960 . S
C1856 C1855 1.524 . S
C1857 C1854 1.403 . S
C1857 C1858 1.392 . S
C1857 C1861 1.495 . S
C1858 C1857 1.392 . S
C1858 C1859 1.385 . S
C1858 C1860 1.478 . S
C1859 H1853 0.930 . S
C1859 C1855 1.400 . S
C1859 C1858 1.385 . S
C1860 C1858 1.478 . S
C1860 C1862 1.381 . S
C1860 C1866 1.383 . S
C1861 C1857 1.495 . S
C1861 H1867 0.959 . S
C1861 H1868 0.961 . S
C1861 H1869 0.960 . S
C1862 C1860 1.381 . S
C1862 C1863 1.394 . S
C1862 H1870 0.930 . S
C1863 C1862 1.394 . S
C1863 C1864 1.383 . S
C1863 H1871 0.929 . S
C1864 C1863 1.383 . S
C1864 C1865 1.377 . S
C1865 H1849 0.930 . S
C1865 C1864 1.377 . S
C1865 C1866 1.379 . S
C1866 H1850 0.931 . S
C1866 C1860 1.383 . S
C1866 C1865 1.379 . S
H1867 C1861 0.959 . S
H1868 C1861 0.961 . S
H1869 C1861 0.960 . S
H1870 C1862 0.930 . S
H1871 C1863 0.929 . S
H1872 C1880 0.929 . S
H1873 C1882 0.930 . S
H1874 C1884 0.930 . S
H1875 C1887 0.929 . S
H1876 C1890 0.930 . S
H1877 C1892 0.960 . S
H1878 C1892 0.960 . S
H1879 C1892 0.960 . S
C1880 H1872 0.929 . S
C1880 C1881 1.377 . S
C1880 C1882 1.384 . S
C1881 C1880 1.377 . S
C1881 C1887 1.390 . S
C1882 H1873 0.930 . S
C1882 C1880 1.384 . S
C1882 C1883 1.372 . S
C1883 C1882 1.372 . S
C1883 C1884 1.400 . S
C1883 C1888 1.490 . S
C1884 H1874 0.930 . S
C1884 C1883 1.400 . S
C1884 C1887 1.386 . S
H1885 C1901 0.930 . S
H1886 C1902 0.931 . S
C1887 H1875 0.929 . S
C1887 C1881 1.390 . S
C1887 C1884 1.386 . S
C1888 C1883 1.490 . S
C1888 C1890 1.395 . S
C1888 C1891 1.403 . S
H1889 C1895 0.930 . S
C1890 H1876 0.930 . S
C1890 C1888 1.395 . S
C1890 C1893 1.403 . S
C1891 C1888 1.403 . S
C1891 C1892 1.524 . S
C1891 C1895 1.400 . S
C1892 H1877 0.960 . S
C1892 H1878 0.960 . S
C1892 H1879 0.960 . S
C1892 C1891 1.524 . S
C1893 C1890 1.403 . S
C1893 C1894 1.392 . S
C1893 C1897 1.495 . S
C1894 C1893 1.392 . S
C1894 C1895 1.385 . S
C1894 C1896 1.478 . S
C1895 H1889 0.930 . S
C1895 C1891 1.400 . S
C1895 C1894 1.385 . S
C1896 C1894 1.478 . S
C1896 C1898 1.381 . S
C1896 C1902 1.383 . S
C1897 C1893 1.495 . S
C1897 H1903 0.959 . S
C1897 H1904 0.961 . S
C1897 H1905 0.960 . S
C1898 C1896 1.381 . S
C1898 C1899 1.394 . S
C1898 H1906 0.930 . S
C1899 C1898 1.394 . S
C1899 C1900 1.383 . S
C1899 H1907 0.929 . S
C1900 C1899 1.383 . S
C1900 C1901 1.377 . S
C1901 H1885 0.930 . S
C1901 C1900 1.377 . S
C1901 C1902 1.379 . S
C1902 H1886 0.931 . S
C1902 C1896 1.383 . S
C1902 C1901 1.379 . S
H1903 C1897 0.959 . S
H1904 C1897 0.961 . S
H1905 C1897 0.960 . S
H1906 C1898 0.930 . S
H1907 C1899 0.929 . S
H1908 C1916 0.929 . S
H1909 C1918 0.930 . S
H1910 C1920 0.930 . S
H1911 C1923 0.929 . S
H1912 C1926 0.930 . S
H1913 C1928 0.960 . S
H1914 C1928 0.960 . S
H1915 C1928 0.960 . S
C1916 H1908 0.929 . S
C1916 C1917 1.377 . S
C1916 C1918 1.384 . S
C1917 C1916 1.377 . S
C1917 C1923 1.390 . S
C1918 H1909 0.930 . S
C1918 C1916 1.384 . S
C1918 C1919 1.372 . S
C1919 C1918 1.372 . S
C1919 C1920 1.400 . S
C1919 C1924 1.490 . S
C1920 H1910 0.930 . S
C1920 C1919 1.400 . S
C1920 C1923 1.386 . S
H1921 C1937 0.930 . S
H1922 C1938 0.931 . S
C1923 H1911 0.929 . S
C1923 C1917 1.390 . S
C1923 C1920 1.386 . S
C1924 C1919 1.490 . S
C1924 C1926 1.395 . S
C1924 C1927 1.403 . S
H1925 C1931 0.930 . S
C1926 H1912 0.930 . S
C1926 C1924 1.395 . S
C1926 C1929 1.403 . S
C1927 C1924 1.403 . S
C1927 C1928 1.524 . S
C1927 C1931 1.400 . S
C1928 H1913 0.960 . S
C1928 H1914 0.960 . S
C1928 H1915 0.960 . S
C1928 C1927 1.524 . S
C1929 C1926 1.403 . S
C1929 C1930 1.392 . S
C1929 C1933 1.495 . S
C1930 C1929 1.392 . S
C1930 C1931 1.385 . S
C1930 C1932 1.478 . S
C1931 H1925 0.930 . S
C1931 C1927 1.400 . S
C1931 C1930 1.385 . S
C1932 C1930 1.478 . S
C1932 C1934 1.381 . S
C1932 C1938 1.383 . S
C1933 C1929 1.495 . S
C1933 H1939 0.959 . S
C1933 H1940 0.961 . S
C1933 H1941 0.960 . S
C1934 C1932 1.381 . S
C1934 C1935 1.394 . S
C1934 H1942 0.930 . S
C1935 C1934 1.394 . S
C1935 C1936 1.383 . S
C1935 H1943 0.929 . S
C1936 C1935 1.383 . S
C1936 C1937 1.377 . S
C1937 H1921 0.930 . S
C1937 C1936 1.377 . S
C1937 C1938 1.379 . S
C1938 H1922 0.931 . S
C1938 C1932 1.383 . S
C1938 C1937 1.379 . S
H1939 C1933 0.959 . S
H1940 C1933 0.961 . S
H1941 C1933 0.960 . S
H1942 C1934 0.930 . S
H1943 C1935 0.929 . S
H1944 C1952 0.929 . S
H1945 C1954 0.930 . S
H1946 C1956 0.930 . S
H1947 C1959 0.929 . S
H1948 C1962 0.930 . S
H1949 C1964 0.960 . S
H1950 C1964 0.960 . S
H1951 C1964 0.960 . S
C1952 H1944 0.929 . S
C1952 C1953 1.377 . S
C1952 C1954 1.384 . S
C1953 C1952 1.377 . S
C1953 C1959 1.390 . S
C1954 H1945 0.930 . S
C1954 C1952 1.384 . S
C1954 C1955 1.372 . S
C1955 C1954 1.372 . S
C1955 C1956 1.400 . S
C1955 C1960 1.490 . S
C1956 H1946 0.930 . S
C1956 C1955 1.400 . S
C1956 C1959 1.386 . S
H1957 C1973 0.930 . S
H1958 C1974 0.931 . S
C1959 H1947 0.929 . S
C1959 C1953 1.390 . S
C1959 C1956 1.386 . S
C1960 C1955 1.490 . S
C1960 C1962 1.395 1_565 S
C1960 C1963 1.403 . S
H1961 C1967 0.930 . S
C1962 H1948 0.930 . S
C1962 C1960 1.395 1_545 S
C1962 C1965 1.403 . S
C1963 C1960 1.403 . S
C1963 C1964 1.524 . S
C1963 C1967 1.400 1_565 S
C1964 H1949 0.960 . S
C1964 H1950 0.960 . S
C1964 H1951 0.960 . S
C1964 C1963 1.524 . S
C1965 C1962 1.403 . S
C1965 C1966 1.392 . S
C1965 C1969 1.495 . S
C1966 C1965 1.392 . S
C1966 C1967 1.385 . S
C1966 C1968 1.478 . S
C1967 H1961 0.930 . S
C1967 C1963 1.400 1_545 S
C1967 C1966 1.385 . S
C1968 C1966 1.478 . S
C1968 C1970 1.381 . S
C1968 C1974 1.383 . S
C1969 C1965 1.495 . S
C1969 H1975 0.959 . S
C1969 H1976 0.961 . S
C1969 H1977 0.960 . S
C1970 C1968 1.381 . S
C1970 C1971 1.394 . S
C1970 H1978 0.930 . S
C1971 C1970 1.394 . S
C1971 C1972 1.383 . S
C1971 H1979 0.929 . S
C1972 C1971 1.383 . S
C1972 C1973 1.377 . S
C1973 H1957 0.930 . S
C1973 C1972 1.377 . S
C1973 C1974 1.379 . S
C1974 H1958 0.931 . S
C1974 C1968 1.383 . S
C1974 C1973 1.379 . S
H1975 C1969 0.959 . S
H1976 C1969 0.961 . S
H1977 C1969 0.960 . S
H1978 C1970 0.930 . S
H1979 C1971 0.929 . S
H1980 C1988 0.929 . S
H1981 C1990 0.930 . S
H1982 C1992 0.930 . S
H1983 C1995 0.929 . S
H1984 C1998 0.930 . S
H1985 C2000 0.960 . S
H1986 C2000 0.960 . S
H1987 C2000 0.960 . S
C1988 H1980 0.929 . S
C1988 C1989 1.377 . S
C1988 C1990 1.384 . S
C1989 C1988 1.377 . S
C1989 C1995 1.390 . S
C1990 H1981 0.930 . S
C1990 C1988 1.384 . S
C1990 C1991 1.372 . S
C1991 C1990 1.372 . S
C1991 C1992 1.400 . S
C1991 C1996 1.490 . S
C1992 H1982 0.930 . S
C1992 C1991 1.400 . S
C1992 C1995 1.386 . S
H1993 C2009 0.930 . S
H1994 C2010 0.931 . S
C1995 H1983 0.929 . S
C1995 C1989 1.390 . S
C1995 C1992 1.386 . S
C1996 C1991 1.490 . S
C1996 C1998 1.395 . S
C1996 C1999 1.403 . S
H1997 C2003 0.930 . S
C1998 H1984 0.930 . S
C1998 C1996 1.395 . S
C1998 C2001 1.403 1_455 S
C1999 C1996 1.403 . S
C1999 C2000 1.524 . S
C1999 C2003 1.400 1_455 S
C2000 H1985 0.960 . S
C2000 H1986 0.960 . S
C2000 H1987 0.960 . S
C2000 C1999 1.524 . S
C2001 C1998 1.403 1_655 S
C2001 C2002 1.392 . S
C2001 C2005 1.495 . S
C2002 C2001 1.392 . S
C2002 C2003 1.385 . S
C2002 C2004 1.478 . S
C2003 H1997 0.930 . S
C2003 C1999 1.400 1_655 S
C2003 C2002 1.385 . S
C2004 C2002 1.478 . S
C2004 C2006 1.381 . S
C2004 C2010 1.383 . S
C2005 C2001 1.495 . S
C2005 H2011 0.959 . S
C2005 H2012 0.961 . S
C2005 H2013 0.960 . S
C2006 C2004 1.381 . S
C2006 C2007 1.394 . S
C2006 H2014 0.930 . S
C2007 C2006 1.394 . S
C2007 C2008 1.383 . S
C2007 H2015 0.929 . S
C2008 C2007 1.383 . S
C2008 C2009 1.377 . S
C2009 H1993 0.930 . S
C2009 C2008 1.377 . S
C2009 C2010 1.379 . S
C2010 H1994 0.931 . S
C2010 C2004 1.383 . S
C2010 C2009 1.379 . S
H2011 C2005 0.959 . S
H2012 C2005 0.961 . S
H2013 C2005 0.960 . S
H2014 C2006 0.930 . S
H2015 C2007 0.929 . S
H2016 C2024 0.929 . S
H2017 C2026 0.930 . S
H2018 C2028 0.930 . S
H2019 C2031 0.929 . S
H2020 C2034 0.930 . S
H2021 C2036 0.960 . S
H2022 C2036 0.960 . S
H2023 C2036 0.960 . S
C2024 H2016 0.929 . S
C2024 C2025 1.377 . S
C2024 C2026 1.384 . S
C2025 C2024 1.377 . S
C2025 C2031 1.390 . S
C2026 H2017 0.930 . S
C2026 C2024 1.384 . S
C2026 C2027 1.372 . S
C2027 C2026 1.372 . S
C2027 C2028 1.400 . S
C2027 C2032 1.490 . S
C2028 H2018 0.930 . S
C2028 C2027 1.400 . S
C2028 C2031 1.386 . S
H2029 C2045 0.930 . S
H2030 C2046 0.931 . S
C2031 H2019 0.929 . S
C2031 C2025 1.390 . S
C2031 C2028 1.386 . S
C2032 C2027 1.490 . S
C2032 C2034 1.395 . S
C2032 C2035 1.403 . S
H2033 C2039 0.930 . S
C2034 H2020 0.930 . S
C2034 C2032 1.395 . S
C2034 C2037 1.403 . S
C2035 C2032 1.403 . S
C2035 C2036 1.524 . S
C2035 C2039 1.400 . S
C2036 H2021 0.960 . S
C2036 H2022 0.960 . S
C2036 H2023 0.960 . S
C2036 C2035 1.524 . S
C2037 C2034 1.403 . S
C2037 C2038 1.392 . S
C2037 C2041 1.495 . S
C2038 C2037 1.392 . S
C2038 C2039 1.385 . S
C2038 C2040 1.478 . S
C2039 H2033 0.930 . S
C2039 C2035 1.400 . S
C2039 C2038 1.385 . S
C2040 C2038 1.478 . S
C2040 C2042 1.381 . S
C2040 C2046 1.383 . S
C2041 C2037 1.495 . S
C2041 H2047 0.959 . S
C2041 H2048 0.961 . S
C2041 H2049 0.960 . S
C2042 C2040 1.381 . S
C2042 C2043 1.394 . S
C2042 H2050 0.930 . S
C2043 C2042 1.394 . S
C2043 C2044 1.383 . S
C2043 H2051 0.929 . S
C2044 C2043 1.383 . S
C2044 C2045 1.377 . S
C2045 H2029 0.930 . S
C2045 C2044 1.377 . S
C2045 C2046 1.379 . S
C2046 H2030 0.931 . S
C2046 C2040 1.383 . S
C2046 C2045 1.379 . S
H2047 C2041 0.959 . S
H2048 C2041 0.961 . S
H2049 C2041 0.960 . S
H2050 C2042 0.930 . S
H2051 C2043 0.929 . S
H2052 C2060 0.929 . S
H2053 C2062 0.930 1_655 S
H2054 C2064 0.930 1_655 S
H2055 C2067 0.929 . S
H2056 C2070 0.930 . S
H2057 C2072 0.960 . S
H2058 C2072 0.960 . S
H2059 C2072 0.960 . S
C2060 H2052 0.929 . S
C2060 C2061 1.377 . S
C2060 C2062 1.384 . S
C2061 C2060 1.377 . S
C2061 C2067 1.390 . S
C2062 H2053 0.930 1_455 S
C2062 C2060 1.384 . S
C2062 C2063 1.372 1_455 S
C2063 C2062 1.372 1_655 S
C2063 C2064 1.400 1_655 S
C2063 C2068 1.490 . S
C2064 H2054 0.930 1_455 S
C2064 C2063 1.400 1_455 S
C2064 C2067 1.386 . S
H2065 C2081 0.930 . S
H2066 C2082 0.931 . S
C2067 H2055 0.929 . S
C2067 C2061 1.390 . S
C2067 C2064 1.386 . S
C2068 C2063 1.490 . S
C2068 C2070 1.395 . S
C2068 C2071 1.403 . S
H2069 C2075 0.930 . S
C2070 H2056 0.930 . S
C2070 C2068 1.395 . S
C2070 C2073 1.403 . S
C2071 C2068 1.403 . S
C2071 C2072 1.524 . S
C2071 C2075 1.400 . S
C2072 H2057 0.960 . S
C2072 H2058 0.960 . S
C2072 H2059 0.960 . S
C2072 C2071 1.524 . S
C2073 C2070 1.403 . S
C2073 C2074 1.392 . S
C2073 C2077 1.495 . S
C2074 C2073 1.392 . S
C2074 C2075 1.385 . S
C2074 C2076 1.478 . S
C2075 H2069 0.930 . S
C2075 C2071 1.400 . S
C2075 C2074 1.385 . S
C2076 C2074 1.478 . S
C2076 C2078 1.381 . S
C2076 C2082 1.383 . S
C2077 C2073 1.495 . S
C2077 H2083 0.959 . S
C2077 H2084 0.961 . S
C2077 H2085 0.960 . S
C2078 C2076 1.381 . S
C2078 C2079 1.394 . S
C2078 H2086 0.930 . S
C2079 C2078 1.394 . S
C2079 C2080 1.383 . S
C2079 H2087 0.929 . S
C2080 C2079 1.383 . S
C2080 C2081 1.377 . S
C2081 H2065 0.930 . S
C2081 C2080 1.377 . S
C2081 C2082 1.379 . S
C2082 H2066 0.931 . S
C2082 C2076 1.383 . S
C2082 C2081 1.379 . S
H2083 C2077 0.959 . S
H2084 C2077 0.961 . S
H2085 C2077 0.960 . S
H2086 C2078 0.930 . S
H2087 C2079 0.929 . S
H2088 C2096 0.929 . S
H2089 C2098 0.930 . S
H2090 C2100 0.930 . S
H2091 C2103 0.929 . S
H2092 C2106 0.930 . S
H2093 C2108 0.960 . S
H2094 C2108 0.960 . S
H2095 C2108 0.960 . S
C2096 H2088 0.929 . S
C2096 C2097 1.377 . S
C2096 C2098 1.384 . S
C2097 C2096 1.377 . S
C2097 C2103 1.390 . S
C2098 H2089 0.930 . S
C2098 C2096 1.384 . S
C2098 C2099 1.372 . S
C2099 C2098 1.372 . S
C2099 C2100 1.400 . S
C2099 C2104 1.490 . S
C2100 H2090 0.930 . S
C2100 C2099 1.400 . S
C2100 C2103 1.386 . S
H2101 C2117 0.930 . S
H2102 C2118 0.931 . S
C2103 H2091 0.929 . S
C2103 C2097 1.390 . S
C2103 C2100 1.386 . S
C2104 C2099 1.490 . S
C2104 C2106 1.395 . S
C2104 C2107 1.403 . S
H2105 C2111 0.930 . S
C2106 H2092 0.930 . S
C2106 C2104 1.395 . S
C2106 C2109 1.403 . S
C2107 C2104 1.403 . S
C2107 C2108 1.524 . S
C2107 C2111 1.400 . S
C2108 H2093 0.960 . S
C2108 H2094 0.960 . S
C2108 H2095 0.960 . S
C2108 C2107 1.524 . S
C2109 C2106 1.403 . S
C2109 C2110 1.392 . S
C2109 C2113 1.495 . S
C2110 C2109 1.392 . S
C2110 C2111 1.385 . S
C2110 C2112 1.478 . S
C2111 H2105 0.930 . S
C2111 C2107 1.400 . S
C2111 C2110 1.385 . S
C2112 C2110 1.478 . S
C2112 C2114 1.381 . S
C2112 C2118 1.383 . S
C2113 C2109 1.495 . S
C2113 H2119 0.959 . S
C2113 H2120 0.961 . S
C2113 H2121 0.960 . S
C2114 C2112 1.381 . S
C2114 C2115 1.394 . S
C2114 H2122 0.930 . S
C2115 C2114 1.394 . S
C2115 C2116 1.383 . S
C2115 H2123 0.929 . S
C2116 C2115 1.383 . S
C2116 C2117 1.377 . S
C2117 H2101 0.930 . S
C2117 C2116 1.377 . S
C2117 C2118 1.379 . S
C2118 H2102 0.931 . S
C2118 C2112 1.383 . S
C2118 C2117 1.379 . S
H2119 C2113 0.959 . S
H2120 C2113 0.961 . S
H2121 C2113 0.960 . S
H2122 C2114 0.930 . S
H2123 C2115 0.929 . S
H2124 C2132 0.929 . S
H2125 C2134 0.930 1_545 S
H2126 C2136 0.930 . S
H2127 C2139 0.929 . S
H2128 C2142 0.930 . S
H2129 C2144 0.960 . S
H2130 C2144 0.960 . S
H2131 C2144 0.960 . S
C2132 H2124 0.929 . S
C2132 C2133 1.377 . S
C2132 C2134 1.384 . S
C2133 C2132 1.377 . S
C2133 C2139 1.390 . S
C2134 H2125 0.930 1_565 S
C2134 C2132 1.384 . S
C2134 C2135 1.372 1_565 S
C2135 C2134 1.372 1_545 S
C2135 C2136 1.400 . S
C2135 C2140 1.490 . S
C2136 H2126 0.930 . S
C2136 C2135 1.400 . S
C2136 C2139 1.386 1_545 S
H2137 C2153 0.930 . S
H2138 C2154 0.931 . S
C2139 H2127 0.929 . S
C2139 C2133 1.390 . S
C2139 C2136 1.386 1_565 S
C2140 C2135 1.490 . S
C2140 C2142 1.395 . S
C2140 C2143 1.403 . S
H2141 C2147 0.930 . S
C2142 H2128 0.930 . S
C2142 C2140 1.395 . S
C2142 C2145 1.403 . S
C2143 C2140 1.403 . S
C2143 C2144 1.524 . S
C2143 C2147 1.400 . S
C2144 H2129 0.960 . S
C2144 H2130 0.960 . S
C2144 H2131 0.960 . S
C2144 C2143 1.524 . S
C2145 C2142 1.403 . S
C2145 C2146 1.392 . S
C2145 C2149 1.495 . S
C2146 C2145 1.392 . S
C2146 C2147 1.385 . S
C2146 C2148 1.478 . S
C2147 H2141 0.930 . S
C2147 C2143 1.400 . S
C2147 C2146 1.385 . S
C2148 C2146 1.478 . S
C2148 C2150 1.381 . S
C2148 C2154 1.383 . S
C2149 C2145 1.495 . S
C2149 H2155 0.959 . S
C2149 H2156 0.961 . S
C2149 H2157 0.960 . S
C2150 C2148 1.381 . S
C2150 C2151 1.394 . S
C2150 H2158 0.930 . S
C2151 C2150 1.394 . S
C2151 C2152 1.383 . S
C2151 H2159 0.929 . S
C2152 C2151 1.383 . S
C2152 C2153 1.377 . S
C2153 H2137 0.930 . S
C2153 C2152 1.377 . S
C2153 C2154 1.379 . S
C2154 H2138 0.931 . S
C2154 C2148 1.383 . S
C2154 C2153 1.379 . S
H2155 C2149 0.959 . S
H2156 C2149 0.961 . S
H2157 C2149 0.960 . S
H2158 C2150 0.930 . S
H2159 C2151 0.929 . S
H2160 C2168 0.929 . S
H2161 C2170 0.930 . S
H2162 C2172 0.930 . S
H2163 C2175 0.929 . S
H2164 C2178 0.930 . S
H2165 C2180 0.960 . S
H2166 C2180 0.960 . S
H2167 C2180 0.960 . S
C2168 H2160 0.929 . S
C2168 C2169 1.377 . S
C2168 C2170 1.384 . S
C2169 C2168 1.377 . S
C2169 C2175 1.390 . S
C2170 H2161 0.930 . S
C2170 C2168 1.384 . S
C2170 C2171 1.372 . S
C2171 C2170 1.372 . S
C2171 C2172 1.400 . S
C2171 C2176 1.490 . S
C2172 H2162 0.930 . S
C2172 C2171 1.400 . S
C2172 C2175 1.386 . S
H2173 C2189 0.930 . S
H2174 C2190 0.931 . S
C2175 H2163 0.929 . S
C2175 C2169 1.390 . S
C2175 C2172 1.386 . S
C2176 C2171 1.490 . S
C2176 C2178 1.395 . S
C2176 C2179 1.403 . S
H2177 C2183 0.930 . S
C2178 H2164 0.930 . S
C2178 C2176 1.395 . S
C2178 C2181 1.403 . S
C2179 C2176 1.403 . S
C2179 C2180 1.524 . S
C2179 C2183 1.400 . S
C2180 H2165 0.960 . S
C2180 H2166 0.960 . S
C2180 H2167 0.960 . S
C2180 C2179 1.524 . S
C2181 C2178 1.403 . S
C2181 C2182 1.392 . S
C2181 C2185 1.495 . S
C2182 C2181 1.392 . S
C2182 C2183 1.385 . S
C2182 C2184 1.478 . S
C2183 H2177 0.930 . S
C2183 C2179 1.400 . S
C2183 C2182 1.385 . S
C2184 C2182 1.478 . S
C2184 C2186 1.381 . S
C2184 C2190 1.383 . S
C2185 C2181 1.495 . S
C2185 H2191 0.959 . S
C2185 H2192 0.961 . S
C2185 H2193 0.960 . S
C2186 C2184 1.381 . S
C2186 C2187 1.394 . S
C2186 H2194 0.930 . S
C2187 C2186 1.394 . S
C2187 C2188 1.383 . S
C2187 H2195 0.929 . S
C2188 C2187 1.383 . S
C2188 C2189 1.377 . S
C2189 H2173 0.930 . S
C2189 C2188 1.377 . S
C2189 C2190 1.379 . S
C2190 H2174 0.931 . S
C2190 C2184 1.383 . S
C2190 C2189 1.379 . S
H2191 C2185 0.959 . S
H2192 C2185 0.961 . S
H2193 C2185 0.960 . S
H2194 C2186 0.930 . S
H2195 C2187 0.929 . S
H2196 C2204 0.929 . S
H2197 C2206 0.930 . S
H2198 C2208 0.930 . S
H2199 C2211 0.929 . S
H2200 C2214 0.930 . S
H2201 C2216 0.960 . S
H2202 C2216 0.960 . S
H2203 C2216 0.960 . S
C2204 H2196 0.929 . S
C2204 C2205 1.377 . S
C2204 C2206 1.384 . S
C2205 C2204 1.377 . S
C2205 C2211 1.390 . S
C2206 H2197 0.930 . S
C2206 C2204 1.384 . S
C2206 C2207 1.372 . S
C2207 C2206 1.372 . S
C2207 C2208 1.400 . S
C2207 C2212 1.490 . S
C2208 H2198 0.930 . S
C2208 C2207 1.400 . S
C2208 C2211 1.386 . S
H2209 C2225 0.930 . S
H2210 C2226 0.931 . S
C2211 H2199 0.929 . S
C2211 C2205 1.390 . S
C2211 C2208 1.386 . S
C2212 C2207 1.490 . S
C2212 C2214 1.395 . S
C2212 C2215 1.403 . S
H2213 C2219 0.930 . S
C2214 H2200 0.930 . S
C2214 C2212 1.395 . S
C2214 C2217 1.403 . S
C2215 C2212 1.403 . S
C2215 C2216 1.524 . S
C2215 C2219 1.400 . S
C2216 H2201 0.960 . S
C2216 H2202 0.960 . S
C2216 H2203 0.960 . S
C2216 C2215 1.524 . S
C2217 C2214 1.403 . S
C2217 C2218 1.392 . S
C2217 C2221 1.495 . S
C2218 C2217 1.392 . S
C2218 C2219 1.385 . S
C2218 C2220 1.478 . S
C2219 H2213 0.930 . S
C2219 C2215 1.400 . S
C2219 C2218 1.385 . S
C2220 C2218 1.478 . S
C2220 C2222 1.381 . S
C2220 C2226 1.383 . S
C2221 C2217 1.495 . S
C2221 H2227 0.959 . S
C2221 H2228 0.961 . S
C2221 H2229 0.960 . S
C2222 C2220 1.381 . S
C2222 C2223 1.394 . S
C2222 H2230 0.930 . S
C2223 C2222 1.394 . S
C2223 C2224 1.383 . S
C2223 H2231 0.929 . S
C2224 C2223 1.383 . S
C2224 C2225 1.377 . S
C2225 H2209 0.930 . S
C2225 C2224 1.377 . S
C2225 C2226 1.379 . S
C2226 H2210 0.931 . S
C2226 C2220 1.383 . S
C2226 C2225 1.379 . S
H2227 C2221 0.959 . S
H2228 C2221 0.961 . S
H2229 C2221 0.960 . S
H2230 C2222 0.930 . S
H2231 C2223 0.929 . S
H2232 C2240 0.929 . S
H2233 C2242 0.930 . S
H2234 C2244 0.930 . S
H2235 C2247 0.929 . S
H2236 C2250 0.930 . S
H2237 C2252 0.960 . S
H2238 C2252 0.960 . S
H2239 C2252 0.960 . S
C2240 H2232 0.929 . S
C2240 C2241 1.377 . S
C2240 C2242 1.384 . S
C2241 C2240 1.377 . S
C2241 C2247 1.390 . S
C2242 H2233 0.930 . S
C2242 C2240 1.384 . S
C2242 C2243 1.372 . S
C2243 C2242 1.372 . S
C2243 C2244 1.400 . S
C2243 C2248 1.490 . S
C2244 H2234 0.930 . S
C2244 C2243 1.400 . S
C2244 C2247 1.386 . S
H2245 C2261 0.930 . S
H2246 C2262 0.931 . S
C2247 H2235 0.929 . S
C2247 C2241 1.390 . S
C2247 C2244 1.386 . S
C2248 C2243 1.490 . S
C2248 C2250 1.395 . S
C2248 C2251 1.403 . S
H2249 C2255 0.930 . S
C2250 H2236 0.930 . S
C2250 C2248 1.395 . S
C2250 C2253 1.403 . S
C2251 C2248 1.403 . S
C2251 C2252 1.524 . S
C2251 C2255 1.400 . S
C2252 H2237 0.960 . S
C2252 H2238 0.960 . S
C2252 H2239 0.960 . S
C2252 C2251 1.524 . S
C2253 C2250 1.403 . S
C2253 C2254 1.392 . S
C2253 C2257 1.495 . S
C2254 C2253 1.392 . S
C2254 C2255 1.385 . S
C2254 C2256 1.478 . S
C2255 H2249 0.930 . S
C2255 C2251 1.400 . S
C2255 C2254 1.385 . S
C2256 C2254 1.478 . S
C2256 C2258 1.381 . S
C2256 C2262 1.383 . S
C2257 C2253 1.495 . S
C2257 H2263 0.959 . S
C2257 H2264 0.961 . S
C2257 H2265 0.960 . S
C2258 C2256 1.381 . S
C2258 C2259 1.394 . S
C2258 H2266 0.930 . S
C2259 C2258 1.394 . S
C2259 C2260 1.383 . S
C2259 H2267 0.929 . S
C2260 C2259 1.383 . S
C2260 C2261 1.377 . S
C2261 H2245 0.930 . S
C2261 C2260 1.377 . S
C2261 C2262 1.379 . S
C2262 H2246 0.931 . S
C2262 C2256 1.383 . S
C2262 C2261 1.379 . S
H2263 C2257 0.959 . S
H2264 C2257 0.961 . S
H2265 C2257 0.960 . S
H2266 C2258 0.930 . S
H2267 C2259 0.929 . S
H2268 C2276 0.929 . S
H2269 C2278 0.930 . S
H2270 C2280 0.930 . S
H2271 C2283 0.929 . S
H2272 C2286 0.930 . S
H2273 C2288 0.960 . S
H2274 C2288 0.960 . S
H2275 C2288 0.960 . S
C2276 H2268 0.929 . S
C2276 C2277 1.377 . S
C2276 C2278 1.384 . S
C2277 C2276 1.377 . S
C2277 C2283 1.390 . S
C2278 H2269 0.930 . S
C2278 C2276 1.384 . S
C2278 C2279 1.372 . S
C2279 C2278 1.372 . S
C2279 C2280 1.400 . S
C2279 C2284 1.490 . S
C2280 H2270 0.930 . S
C2280 C2279 1.400 . S
C2280 C2283 1.386 . S
H2281 C2297 0.930 . S
H2282 C2298 0.931 . S
C2283 H2271 0.929 . S
C2283 C2277 1.390 . S
C2283 C2280 1.386 . S
C2284 C2279 1.490 . S
C2284 C2286 1.395 . S
C2284 C2287 1.403 . S
H2285 C2291 0.930 . S
C2286 H2272 0.930 . S
C2286 C2284 1.395 . S
C2286 C2289 1.403 . S
C2287 C2284 1.403 . S
C2287 C2288 1.524 . S
C2287 C2291 1.400 . S
C2288 H2273 0.960 . S
C2288 H2274 0.960 . S
C2288 H2275 0.960 . S
C2288 C2287 1.524 . S
C2289 C2286 1.403 . S
C2289 C2290 1.392 . S
C2289 C2293 1.495 . S
C2290 C2289 1.392 . S
C2290 C2291 1.385 . S
C2290 C2292 1.478 . S
C2291 H2285 0.930 . S
C2291 C2287 1.400 . S
C2291 C2290 1.385 . S
C2292 C2290 1.478 . S
C2292 C2294 1.381 . S
C2292 C2298 1.383 . S
C2293 C2289 1.495 . S
C2293 H2299 0.959 . S
C2293 H2300 0.961 . S
C2293 H2301 0.960 . S
C2294 C2292 1.381 . S
C2294 C2295 1.394 . S
C2294 H2302 0.930 . S
C2295 C2294 1.394 . S
C2295 C2296 1.383 . S
C2295 H2303 0.929 . S
C2296 C2295 1.383 . S
C2296 C2297 1.377 . S
C2297 H2281 0.930 . S
C2297 C2296 1.377 . S
C2297 C2298 1.379 . S
C2298 H2282 0.931 . S
C2298 C2292 1.383 . S
C2298 C2297 1.379 . S
H2299 C2293 0.959 . S
H2300 C2293 0.961 . S
H2301 C2293 0.960 . S
H2302 C2294 0.930 . S
H2303 C2295 0.929 . S
H2304 C2312 0.929 . S
H2305 C2314 0.930 . S
H2306 C2316 0.930 . S
H2307 C2319 0.929 . S
H2308 C2322 0.930 . S
H2309 C2324 0.960 . S
H2310 C2324 0.960 . S
H2311 C2324 0.960 . S
C2312 H2304 0.929 . S
C2312 C2313 1.377 . S
C2312 C2314 1.384 . S
C2313 C2312 1.377 . S
C2313 C2319 1.390 . S
C2314 H2305 0.930 . S
C2314 C2312 1.384 . S
C2314 C2315 1.372 . S
C2315 C2314 1.372 . S
C2315 C2316 1.400 . S
C2315 C2320 1.490 . S
C2316 H2306 0.930 . S
C2316 C2315 1.400 . S
C2316 C2319 1.386 . S
H2317 C2333 0.930 . S
H2318 C2334 0.931 . S
C2319 H2307 0.929 . S
C2319 C2313 1.390 . S
C2319 C2316 1.386 . S
C2320 C2315 1.490 . S
C2320 C2322 1.395 . S
C2320 C2323 1.403 . S
H2321 C2327 0.930 . S
C2322 H2308 0.930 . S
C2322 C2320 1.395 . S
C2322 C2325 1.403 . S
C2323 C2320 1.403 . S
C2323 C2324 1.524 . S
C2323 C2327 1.400 . S
C2324 H2309 0.960 . S
C2324 H2310 0.960 . S
C2324 H2311 0.960 . S
C2324 C2323 1.524 . S
C2325 C2322 1.403 . S
C2325 C2326 1.392 . S
C2325 C2329 1.495 . S
C2326 C2325 1.392 . S
C2326 C2327 1.385 . S
C2326 C2328 1.478 . S
C2327 H2321 0.930 . S
C2327 C2323 1.400 . S
C2327 C2326 1.385 . S
C2328 C2326 1.478 . S
C2328 C2330 1.381 . S
C2328 C2334 1.383 . S
C2329 C2325 1.495 . S
C2329 H2335 0.959 . S
C2329 H2336 0.961 . S
C2329 H2337 0.960 . S
C2330 C2328 1.381 . S
C2330 C2331 1.394 . S
C2330 H2338 0.930 . S
C2331 C2330 1.394 . S
C2331 C2332 1.383 . S
C2331 H2339 0.929 . S
C2332 C2331 1.383 . S
C2332 C2333 1.377 . S
C2333 H2317 0.930 . S
C2333 C2332 1.377 . S
C2333 C2334 1.379 . S
C2334 H2318 0.931 . S
C2334 C2328 1.383 . S
C2334 C2333 1.379 . S
H2335 C2329 0.959 . S
H2336 C2329 0.961 . S
H2337 C2329 0.960 . S
H2338 C2330 0.930 . S
H2339 C2331 0.929 . S
H2340 C2348 0.929 . S
H2341 C2350 0.930 . S
H2342 C2352 0.930 . S
H2343 C2355 0.929 . S
H2344 C2358 0.930 . S
H2345 C2360 0.960 . S
H2346 C2360 0.960 . S
H2347 C2360 0.960 . S
C2348 H2340 0.929 . S
C2348 C2349 1.377 . S
C2348 C2350 1.384 . S
C2349 C2348 1.377 . S
C2349 C2355 1.390 . S
C2350 H2341 0.930 . S
C2350 C2348 1.384 . S
C2350 C2351 1.372 . S
C2351 C2350 1.372 . S
C2351 C2352 1.400 . S
C2351 C2356 1.490 . S
C2352 H2342 0.930 . S
C2352 C2351 1.400 . S
C2352 C2355 1.386 . S
H2353 C2369 0.930 . S
H2354 C2370 0.931 . S
C2355 H2343 0.929 . S
C2355 C2349 1.390 . S
C2355 C2352 1.386 . S
C2356 C2351 1.490 . S
C2356 C2358 1.395 . S
C2356 C2359 1.403 . S
H2357 C2363 0.930 . S
C2358 H2344 0.930 . S
C2358 C2356 1.395 . S
C2358 C2361 1.403 . S
C2359 C2356 1.403 . S
C2359 C2360 1.524 . S
C2359 C2363 1.400 . S
C2360 H2345 0.960 . S
C2360 H2346 0.960 . S
C2360 H2347 0.960 . S
C2360 C2359 1.524 . S
C2361 C2358 1.403 . S
C2361 C2362 1.392 . S
C2361 C2365 1.495 . S
C2362 C2361 1.392 . S
C2362 C2363 1.385 . S
C2362 C2364 1.478 . S
C2363 H2357 0.930 . S
C2363 C2359 1.400 . S
C2363 C2362 1.385 . S
C2364 C2362 1.478 . S
C2364 C2366 1.381 . S
C2364 C2370 1.383 . S
C2365 C2361 1.495 . S
C2365 H2371 0.959 . S
C2365 H2372 0.961 . S
C2365 H2373 0.960 . S
C2366 C2364 1.381 . S
C2366 C2367 1.394 . S
C2366 H2374 0.930 . S
C2367 C2366 1.394 . S
C2367 C2368 1.383 . S
C2367 H2375 0.929 . S
C2368 C2367 1.383 . S
C2368 C2369 1.377 . S
C2369 H2353 0.930 . S
C2369 C2368 1.377 . S
C2369 C2370 1.379 . S
C2370 H2354 0.931 . S
C2370 C2364 1.383 . S
C2370 C2369 1.379 . S
H2371 C2365 0.959 . S
H2372 C2365 0.961 . S
H2373 C2365 0.960 . S
H2374 C2366 0.930 . S
H2375 C2367 0.929 . S
H2376 C2384 0.929 . S
H2377 C2386 0.930 . S
H2378 C2388 0.930 . S
H2379 C2391 0.929 . S
H2380 C2394 0.930 . S
H2381 C2396 0.960 . S
H2382 C2396 0.960 . S
H2383 C2396 0.960 . S
C2384 H2376 0.929 . S
C2384 C2385 1.377 . S
C2384 C2386 1.384 . S
C2385 C2384 1.377 . S
C2385 C2391 1.390 . S
C2386 H2377 0.930 . S
C2386 C2384 1.384 . S
C2386 C2387 1.372 . S
C2387 C2386 1.372 . S
C2387 C2388 1.400 . S
C2387 C2392 1.490 . S
C2388 H2378 0.930 . S
C2388 C2387 1.400 . S
C2388 C2391 1.386 . S
H2389 C2405 0.930 . S
H2390 C2406 0.931 . S
C2391 H2379 0.929 . S
C2391 C2385 1.390 . S
C2391 C2388 1.386 . S
C2392 C2387 1.490 . S
C2392 C2394 1.395 . S
C2392 C2395 1.403 . S
H2393 C2399 0.930 . S
C2394 H2380 0.930 . S
C2394 C2392 1.395 . S
C2394 C2397 1.403 . S
C2395 C2392 1.403 . S
C2395 C2396 1.524 . S
C2395 C2399 1.400 . S
C2396 H2381 0.960 . S
C2396 H2382 0.960 . S
C2396 H2383 0.960 . S
C2396 C2395 1.524 . S
C2397 C2394 1.403 . S
C2397 C2398 1.392 . S
C2397 C2401 1.495 . S
C2398 C2397 1.392 . S
C2398 C2399 1.385 . S
C2398 C2400 1.478 . S
C2399 H2393 0.930 . S
C2399 C2395 1.400 . S
C2399 C2398 1.385 . S
C2400 C2398 1.478 . S
C2400 C2402 1.381 . S
C2400 C2406 1.383 . S
C2401 C2397 1.495 . S
C2401 H2407 0.959 . S
C2401 H2408 0.961 . S
C2401 H2409 0.960 . S
C2402 C2400 1.381 . S
C2402 C2403 1.394 . S
C2402 H2410 0.930 . S
C2403 C2402 1.394 . S
C2403 C2404 1.383 . S
C2403 H2411 0.929 . S
C2404 C2403 1.383 . S
C2404 C2405 1.377 . S
C2405 H2389 0.930 . S
C2405 C2404 1.377 . S
C2405 C2406 1.379 . S
C2406 H2390 0.931 . S
C2406 C2400 1.383 . S
C2406 C2405 1.379 . S
H2407 C2401 0.959 . S
H2408 C2401 0.961 . S
H2409 C2401 0.960 . S
H2410 C2402 0.930 . S
H2411 C2403 0.929 . S
H2412 C2420 0.929 . S
H2413 C2422 0.930 . S
H2414 C2424 0.930 . S
H2415 C2427 0.929 . S
H2416 C2430 0.930 . S
H2417 C2432 0.960 . S
H2418 C2432 0.960 . S
H2419 C2432 0.960 . S
C2420 H2412 0.929 . S
C2420 C2421 1.377 . S
C2420 C2422 1.384 . S
C2421 C2420 1.377 . S
C2421 C2427 1.390 . S
C2422 H2413 0.930 . S
C2422 C2420 1.384 . S
C2422 C2423 1.372 . S
C2423 C2422 1.372 . S
C2423 C2424 1.400 . S
C2423 C2428 1.490 . S
C2424 H2414 0.930 . S
C2424 C2423 1.400 . S
C2424 C2427 1.386 . S
H2425 C2441 0.930 . S
H2426 C2442 0.931 . S
C2427 H2415 0.929 . S
C2427 C2421 1.390 . S
C2427 C2424 1.386 . S
C2428 C2423 1.490 . S
C2428 C2430 1.395 . S
C2428 C2431 1.403 . S
H2429 C2435 0.930 . S
C2430 H2416 0.930 . S
C2430 C2428 1.395 . S
C2430 C2433 1.403 . S
C2431 C2428 1.403 . S
C2431 C2432 1.524 . S
C2431 C2435 1.400 . S
C2432 H2417 0.960 . S
C2432 H2418 0.960 . S
C2432 H2419 0.960 . S
C2432 C2431 1.524 . S
C2433 C2430 1.403 . S
C2433 C2434 1.392 . S
C2433 C2437 1.495 . S
C2434 C2433 1.392 . S
C2434 C2435 1.385 . S
C2434 C2436 1.478 . S
C2435 H2429 0.930 . S
C2435 C2431 1.400 . S
C2435 C2434 1.385 . S
C2436 C2434 1.478 . S
C2436 C2438 1.381 . S
C2436 C2442 1.383 . S
C2437 C2433 1.495 . S
C2437 H2443 0.959 . S
C2437 H2444 0.961 . S
C2437 H2445 0.960 . S
C2438 C2436 1.381 . S
C2438 C2439 1.394 . S
C2438 H2446 0.930 . S
C2439 C2438 1.394 . S
C2439 C2440 1.383 . S
C2439 H2447 0.929 . S
C2440 C2439 1.383 . S
C2440 C2441 1.377 . S
C2441 H2425 0.930 . S
C2441 C2440 1.377 . S
C2441 C2442 1.379 . S
C2442 H2426 0.931 . S
C2442 C2436 1.383 . S
C2442 C2441 1.379 . S
H2443 C2437 0.959 . S
H2444 C2437 0.961 . S
H2445 C2437 0.960 . S
H2446 C2438 0.930 . S
H2447 C2439 0.929 . S
H2448 C2456 0.929 . S
H2449 C2458 0.930 . S
H2450 C2460 0.930 . S
H2451 C2463 0.929 . S
H2452 C2466 0.930 . S
H2453 C2468 0.960 . S
H2454 C2468 0.960 . S
H2455 C2468 0.960 . S
C2456 H2448 0.929 . S
C2456 C2457 1.377 . S
C2456 C2458 1.384 . S
C2457 C2456 1.377 . S
C2457 C2463 1.390 . S
C2458 H2449 0.930 . S
C2458 C2456 1.384 . S
C2458 C2459 1.372 . S
C2459 C2458 1.372 . S
C2459 C2460 1.400 . S
C2459 C2464 1.490 . S
C2460 H2450 0.930 . S
C2460 C2459 1.400 . S
C2460 C2463 1.386 . S
H2461 C2477 0.930 . S
H2462 C2478 0.931 . S
C2463 H2451 0.929 . S
C2463 C2457 1.390 . S
C2463 C2460 1.386 . S
C2464 C2459 1.490 . S
C2464 C2466 1.395 . S
C2464 C2467 1.403 . S
H2465 C2471 0.930 . S
C2466 H2452 0.930 . S
C2466 C2464 1.395 . S
C2466 C2469 1.403 . S
C2467 C2464 1.403 . S
C2467 C2468 1.524 . S
C2467 C2471 1.400 . S
C2468 H2453 0.960 . S
C2468 H2454 0.960 . S
C2468 H2455 0.960 . S
C2468 C2467 1.524 . S
C2469 C2466 1.403 . S
C2469 C2470 1.392 . S
C2469 C2473 1.495 . S
C2470 C2469 1.392 . S
C2470 C2471 1.385 . S
C2470 C2472 1.478 . S
C2471 H2465 0.930 . S
C2471 C2467 1.400 . S
C2471 C2470 1.385 . S
C2472 C2470 1.478 . S
C2472 C2474 1.381 . S
C2472 C2478 1.383 . S
C2473 C2469 1.495 . S
C2473 H2479 0.959 . S
C2473 H2480 0.961 . S
C2473 H2481 0.960 . S
C2474 C2472 1.381 . S
C2474 C2475 1.394 . S
C2474 H2482 0.930 . S
C2475 C2474 1.394 . S
C2475 C2476 1.383 . S
C2475 H2483 0.929 . S
C2476 C2475 1.383 . S
C2476 C2477 1.377 . S
C2477 H2461 0.930 . S
C2477 C2476 1.377 . S
C2477 C2478 1.379 . S
C2478 H2462 0.931 . S
C2478 C2472 1.383 . S
C2478 C2477 1.379 . S
H2479 C2473 0.959 . S
H2480 C2473 0.961 . S
H2481 C2473 0.960 . S
H2482 C2474 0.930 . S
H2483 C2475 0.929 . S
H2484 C2492 0.929 . S
H2485 C2494 0.930 . S
H2486 C2496 0.930 . S
H2487 C2499 0.929 . S
H2488 C2502 0.930 . S
H2489 C2504 0.960 . S
H2490 C2504 0.960 . S
H2491 C2504 0.960 . S
C2492 H2484 0.929 . S
C2492 C2493 1.377 . S
C2492 C2494 1.384 . S
C2493 C2492 1.377 . S
C2493 C2499 1.390 . S
C2494 H2485 0.930 . S
C2494 C2492 1.384 . S
C2494 C2495 1.372 . S
C2495 C2494 1.372 . S
C2495 C2496 1.400 . S
C2495 C2500 1.490 . S
C2496 H2486 0.930 . S
C2496 C2495 1.400 . S
C2496 C2499 1.386 . S
H2497 C2513 0.930 . S
H2498 C2514 0.931 . S
C2499 H2487 0.929 . S
C2499 C2493 1.390 . S
C2499 C2496 1.386 . S
C2500 C2495 1.490 . S
C2500 C2502 1.395 . S
C2500 C2503 1.403 . S
H2501 C2507 0.930 . S
C2502 H2488 0.930 . S
C2502 C2500 1.395 . S
C2502 C2505 1.403 . S
C2503 C2500 1.403 . S
C2503 C2504 1.524 . S
C2503 C2507 1.400 . S
C2504 H2489 0.960 . S
C2504 H2490 0.960 . S
C2504 H2491 0.960 . S
C2504 C2503 1.524 . S
C2505 C2502 1.403 . S
C2505 C2506 1.392 . S
C2505 C2509 1.495 . S
C2506 C2505 1.392 . S
C2506 C2507 1.385 . S
C2506 C2508 1.478 . S
C2507 H2501 0.930 . S
C2507 C2503 1.400 . S
C2507 C2506 1.385 . S
C2508 C2506 1.478 . S
C2508 C2510 1.381 . S
C2508 C2514 1.383 . S
C2509 C2505 1.495 . S
C2509 H2515 0.959 . S
C2509 H2516 0.961 . S
C2509 H2517 0.960 . S
C2510 C2508 1.381 . S
C2510 C2511 1.394 . S
C2510 H2518 0.930 . S
C2511 C2510 1.394 . S
C2511 C2512 1.383 . S
C2511 H2519 0.929 . S
C2512 C2511 1.383 . S
C2512 C2513 1.377 . S
C2513 H2497 0.930 . S
C2513 C2512 1.377 . S
C2513 C2514 1.379 . S
C2514 H2498 0.931 . S
C2514 C2508 1.383 . S
C2514 C2513 1.379 . S
H2515 C2509 0.959 . S
H2516 C2509 0.961 . S
H2517 C2509 0.960 . S
H2518 C2510 0.930 . S
H2519 C2511 0.929 . S
H2520 C2528 0.929 . S
H2521 C2530 0.930 . S
H2522 C2532 0.930 . S
H2523 C2535 0.929 . S
H2524 C2538 0.930 . S
H2525 C2540 0.960 . S
H2526 C2540 0.960 . S
H2527 C2540 0.960 . S
C2528 H2520 0.929 . S
C2528 C2529 1.377 . S
C2528 C2530 1.384 . S
C2529 C2528 1.377 . S
C2529 C2535 1.390 . S
C2530 H2521 0.930 . S
C2530 C2528 1.384 . S
C2530 C2531 1.372 . S
C2531 C2530 1.372 . S
C2531 C2532 1.400 . S
C2531 C2536 1.490 . S
C2532 H2522 0.930 . S
C2532 C2531 1.400 . S
C2532 C2535 1.386 . S
H2533 C2549 0.930 . S
H2534 C2550 0.931 . S
C2535 H2523 0.929 . S
C2535 C2529 1.390 . S
C2535 C2532 1.386 . S
C2536 C2531 1.490 . S
C2536 C2538 1.395 . S
C2536 C2539 1.403 . S
H2537 C2543 0.930 . S
C2538 H2524 0.930 . S
C2538 C2536 1.395 . S
C2538 C2541 1.403 . S
C2539 C2536 1.403 . S
C2539 C2540 1.524 . S
C2539 C2543 1.400 . S
C2540 H2525 0.960 . S
C2540 H2526 0.960 . S
C2540 H2527 0.960 . S
C2540 C2539 1.524 . S
C2541 C2538 1.403 . S
C2541 C2542 1.392 . S
C2541 C2545 1.495 . S
C2542 C2541 1.392 . S
C2542 C2543 1.385 . S
C2542 C2544 1.478 . S
C2543 H2537 0.930 . S
C2543 C2539 1.400 . S
C2543 C2542 1.385 . S
C2544 C2542 1.478 . S
C2544 C2546 1.381 . S
C2544 C2550 1.383 . S
C2545 C2541 1.495 . S
C2545 H2551 0.959 . S
C2545 H2552 0.961 . S
C2545 H2553 0.960 . S
C2546 C2544 1.381 . S
C2546 C2547 1.394 . S
C2546 H2554 0.930 . S
C2547 C2546 1.394 . S
C2547 C2548 1.383 . S
C2547 H2555 0.929 . S
C2548 C2547 1.383 . S
C2548 C2549 1.377 . S
C2549 H2533 0.930 . S
C2549 C2548 1.377 . S
C2549 C2550 1.379 . S
C2550 H2534 0.931 . S
C2550 C2544 1.383 . S
C2550 C2549 1.379 . S
H2551 C2545 0.959 . S
H2552 C2545 0.961 . S
H2553 C2545 0.960 . S
H2554 C2546 0.930 . S
H2555 C2547 0.929 . S
H2556 C2564 0.929 . S
H2557 C2566 0.930 . S
H2558 C2568 0.930 . S
H2559 C2571 0.929 . S
H2560 C2574 0.930 . S
H2561 C2576 0.960 . S
H2562 C2576 0.960 . S
H2563 C2576 0.960 . S
C2564 H2556 0.929 . S
C2564 C2565 1.377 . S
C2564 C2566 1.384 . S
C2565 C2564 1.377 . S
C2565 C2571 1.390 . S
C2566 H2557 0.930 . S
C2566 C2564 1.384 . S
C2566 C2567 1.372 . S
C2567 C2566 1.372 . S
C2567 C2568 1.400 . S
C2567 C2572 1.490 . S
C2568 H2558 0.930 . S
C2568 C2567 1.400 . S
C2568 C2571 1.386 . S
H2569 C2585 0.930 . S
H2570 C2586 0.931 . S
C2571 H2559 0.929 . S
C2571 C2565 1.390 . S
C2571 C2568 1.386 . S
C2572 C2567 1.490 . S
C2572 C2574 1.395 . S
C2572 C2575 1.403 . S
H2573 C2579 0.930 . S
C2574 H2560 0.930 . S
C2574 C2572 1.395 . S
C2574 C2577 1.403 . S
C2575 C2572 1.403 . S
C2575 C2576 1.524 . S
C2575 C2579 1.400 . S
C2576 H2561 0.960 . S
C2576 H2562 0.960 . S
C2576 H2563 0.960 . S
C2576 C2575 1.524 . S
C2577 C2574 1.403 . S
C2577 C2578 1.392 . S
C2577 C2581 1.495 . S
C2578 C2577 1.392 . S
C2578 C2579 1.385 . S
C2578 C2580 1.478 . S
C2579 H2573 0.930 . S
C2579 C2575 1.400 . S
C2579 C2578 1.385 . S
C2580 C2578 1.478 . S
C2580 C2582 1.381 . S
C2580 C2586 1.383 . S
C2581 C2577 1.495 . S
C2581 H2587 0.959 . S
C2581 H2588 0.961 . S
C2581 H2589 0.960 . S
C2582 C2580 1.381 . S
C2582 C2583 1.394 . S
C2582 H2590 0.930 . S
C2583 C2582 1.394 . S
C2583 C2584 1.383 . S
C2583 H2591 0.929 . S
C2584 C2583 1.383 . S
C2584 C2585 1.377 . S
C2585 H2569 0.930 . S
C2585 C2584 1.377 . S
C2585 C2586 1.379 . S
C2586 H2570 0.931 . S
C2586 C2580 1.383 . S
C2586 C2585 1.379 . S
H2587 C2581 0.959 . S
H2588 C2581 0.961 . S
H2589 C2581 0.960 . S
H2590 C2582 0.930 . S
H2591 C2583 0.929 . S
H2592 C2600 0.929 . S
H2593 C2602 0.930 . S
H2594 C2604 0.930 . S
H2595 C2607 0.929 . S
H2596 C2610 0.930 . S
H2597 C2612 0.960 . S
H2598 C2612 0.960 . S
H2599 C2612 0.960 . S
C2600 H2592 0.929 . S
C2600 C2601 1.377 . S
C2600 C2602 1.384 . S
C2601 C2600 1.377 . S
C2601 C2607 1.390 . S
C2602 H2593 0.930 . S
C2602 C2600 1.384 . S
C2602 C2603 1.372 . S
C2603 C2602 1.372 . S
C2603 C2604 1.400 . S
C2603 C2608 1.490 . S
C2604 H2594 0.930 . S
C2604 C2603 1.400 . S
C2604 C2607 1.386 . S
H2605 C2621 0.930 . S
H2606 C2622 0.931 . S
C2607 H2595 0.929 . S
C2607 C2601 1.390 . S
C2607 C2604 1.386 . S
C2608 C2603 1.490 . S
C2608 C2610 1.395 . S
C2608 C2611 1.403 . S
H2609 C2615 0.930 . S
C2610 H2596 0.930 . S
C2610 C2608 1.395 . S
C2610 C2613 1.403 . S
C2611 C2608 1.403 . S
C2611 C2612 1.524 . S
C2611 C2615 1.400 . S
C2612 H2597 0.960 . S
C2612 H2598 0.960 . S
C2612 H2599 0.960 . S
C2612 C2611 1.524 . S
C2613 C2610 1.403 . S
C2613 C2614 1.392 . S
C2613 C2617 1.495 . S
C2614 C2613 1.392 . S
C2614 C2615 1.385 . S
C2614 C2616 1.478 . S
C2615 H2609 0.930 . S
C2615 C2611 1.400 . S
C2615 C2614 1.385 . S
C2616 C2614 1.478 . S
C2616 C2618 1.381 . S
C2616 C2622 1.383 . S
C2617 C2613 1.495 . S
C2617 H2623 0.959 . S
C2617 H2624 0.961 . S
C2617 H2625 0.960 . S
C2618 C2616 1.381 . S
C2618 C2619 1.394 . S
C2618 H2626 0.930 . S
C2619 C2618 1.394 . S
C2619 C2620 1.383 . S
C2619 H2627 0.929 . S
C2620 C2619 1.383 . S
C2620 C2621 1.377 . S
C2621 H2605 0.930 . S
C2621 C2620 1.377 . S
C2621 C2622 1.379 . S
C2622 H2606 0.931 . S
C2622 C2616 1.383 . S
C2622 C2621 1.379 . S
H2623 C2617 0.959 . S
H2624 C2617 0.961 . S
H2625 C2617 0.960 . S
H2626 C2618 0.930 . S
H2627 C2619 0.929 . S
H2628 C2636 0.929 . S
H2629 C2638 0.930 . S
H2630 C2640 0.930 . S
H2631 C2643 0.929 . S
H2632 C2646 0.930 . S
H2633 C2648 0.960 . S
H2634 C2648 0.960 . S
H2635 C2648 0.960 . S
C2636 H2628 0.929 . S
C2636 C2637 1.377 . S
C2636 C2638 1.384 . S
C2637 C2636 1.377 . S
C2637 C2643 1.390 . S
C2638 H2629 0.930 . S
C2638 C2636 1.384 . S
C2638 C2639 1.372 . S
C2639 C2638 1.372 . S
C2639 C2640 1.400 . S
C2639 C2644 1.490 . S
C2640 H2630 0.930 . S
C2640 C2639 1.400 . S
C2640 C2643 1.386 . S
H2641 C2657 0.930 . S
H2642 C2658 0.931 . S
C2643 H2631 0.929 . S
C2643 C2637 1.390 . S
C2643 C2640 1.386 . S
C2644 C2639 1.490 . S
C2644 C2646 1.395 . S
C2644 C2647 1.403 . S
H2645 C2651 0.930 . S
C2646 H2632 0.930 . S
C2646 C2644 1.395 . S
C2646 C2649 1.403 . S
C2647 C2644 1.403 . S
C2647 C2648 1.524 . S
C2647 C2651 1.400 . S
C2648 H2633 0.960 . S
C2648 H2634 0.960 . S
C2648 H2635 0.960 . S
C2648 C2647 1.524 . S
C2649 C2646 1.403 . S
C2649 C2650 1.392 . S
C2649 C2653 1.495 . S
C2650 C2649 1.392 . S
C2650 C2651 1.385 . S
C2650 C2652 1.478 . S
C2651 H2645 0.930 . S
C2651 C2647 1.400 . S
C2651 C2650 1.385 . S
C2652 C2650 1.478 . S
C2652 C2654 1.381 . S
C2652 C2658 1.383 . S
C2653 C2649 1.495 . S
C2653 H2659 0.959 . S
C2653 H2660 0.961 . S
C2653 H2661 0.960 . S
C2654 C2652 1.381 . S
C2654 C2655 1.394 . S
C2654 H2662 0.930 . S
C2655 C2654 1.394 . S
C2655 C2656 1.383 . S
C2655 H2663 0.929 . S
C2656 C2655 1.383 . S
C2656 C2657 1.377 . S
C2657 H2641 0.930 . S
C2657 C2656 1.377 . S
C2657 C2658 1.379 . S
C2658 H2642 0.931 . S
C2658 C2652 1.383 . S
C2658 C2657 1.379 . S
H2659 C2653 0.959 . S
H2660 C2653 0.961 . S
H2661 C2653 0.960 . S
H2662 C2654 0.930 . S
H2663 C2655 0.929 . S
H2664 C2672 0.929 . S
H2665 C2674 0.930 . S
H2666 C2676 0.930 . S
H2667 C2679 0.929 . S
H2668 C2682 0.930 . S
H2669 C2684 0.960 . S
H2670 C2684 0.960 . S
H2671 C2684 0.960 . S
C2672 H2664 0.929 . S
C2672 C2673 1.377 . S
C2672 C2674 1.384 . S
C2673 C2672 1.377 . S
C2673 C2679 1.390 . S
C2674 H2665 0.930 . S
C2674 C2672 1.384 . S
C2674 C2675 1.372 . S
C2675 C2674 1.372 . S
C2675 C2676 1.400 . S
C2675 C2680 1.490 . S
C2676 H2666 0.930 . S
C2676 C2675 1.400 . S
C2676 C2679 1.386 . S
H2677 C2693 0.930 . S
H2678 C2694 0.931 . S
C2679 H2667 0.929 . S
C2679 C2673 1.390 . S
C2679 C2676 1.386 . S
C2680 C2675 1.490 . S
C2680 C2682 1.395 . S
C2680 C2683 1.403 . S
H2681 C2687 0.930 . S
C2682 H2668 0.930 . S
C2682 C2680 1.395 . S
C2682 C2685 1.403 . S
C2683 C2680 1.403 . S
C2683 C2684 1.524 . S
C2683 C2687 1.400 . S
C2684 H2669 0.960 . S
C2684 H2670 0.960 . S
C2684 H2671 0.960 . S
C2684 C2683 1.524 . S
C2685 C2682 1.403 . S
C2685 C2686 1.392 . S
C2685 C2689 1.495 . S
C2686 C2685 1.392 . S
C2686 C2687 1.385 . S
C2686 C2688 1.478 . S
C2687 H2681 0.930 . S
C2687 C2683 1.400 . S
C2687 C2686 1.385 . S
C2688 C2686 1.478 . S
C2688 C2690 1.381 . S
C2688 C2694 1.383 . S
C2689 C2685 1.495 . S
C2689 H2695 0.959 . S
C2689 H2696 0.961 . S
C2689 H2697 0.960 . S
C2690 C2688 1.381 . S
C2690 C2691 1.394 . S
C2690 H2698 0.930 . S
C2691 C2690 1.394 . S
C2691 C2692 1.383 . S
C2691 H2699 0.929 . S
C2692 C2691 1.383 . S
C2692 C2693 1.377 . S
C2693 H2677 0.930 . S
C2693 C2692 1.377 . S
C2693 C2694 1.379 . S
C2694 H2678 0.931 . S
C2694 C2688 1.383 . S
C2694 C2693 1.379 . S
H2695 C2689 0.959 . S
H2696 C2689 0.961 . S
H2697 C2689 0.960 . S
H2698 C2690 0.930 . S
H2699 C2691 0.929 . S
H2700 C2708 0.929 . S
H2701 C2710 0.930 . S
H2702 C2712 0.930 . S
H2703 C2715 0.929 . S
H2704 C2718 0.930 . S
H2705 C2720 0.960 . S
H2706 C2720 0.960 . S
H2707 C2720 0.960 . S
C2708 H2700 0.929 . S
C2708 C2709 1.377 . S
C2708 C2710 1.384 . S
C2709 C2708 1.377 . S
C2709 C2715 1.390 . S
C2710 H2701 0.930 . S
C2710 C2708 1.384 . S
C2710 C2711 1.372 . S
C2711 C2710 1.372 . S
C2711 C2712 1.400 . S
C2711 C2716 1.490 . S
C2712 H2702 0.930 . S
C2712 C2711 1.400 . S
C2712 C2715 1.386 . S
H2713 C2729 0.930 . S
H2714 C2730 0.931 . S
C2715 H2703 0.929 . S
C2715 C2709 1.390 . S
C2715 C2712 1.386 . S
C2716 C2711 1.490 . S
C2716 C2718 1.395 . S
C2716 C2719 1.403 . S
H2717 C2723 0.930 . S
C2718 H2704 0.930 . S
C2718 C2716 1.395 . S
C2718 C2721 1.403 . S
C2719 C2716 1.403 . S
C2719 C2720 1.524 . S
C2719 C2723 1.400 . S
C2720 H2705 0.960 . S
C2720 H2706 0.960 . S
C2720 H2707 0.960 . S
C2720 C2719 1.524 . S
C2721 C2718 1.403 . S
C2721 C2722 1.392 . S
C2721 C2725 1.495 . S
C2722 C2721 1.392 . S
C2722 C2723 1.385 . S
C2722 C2724 1.478 . S
C2723 H2717 0.930 . S
C2723 C2719 1.400 . S
C2723 C2722 1.385 . S
C2724 C2722 1.478 . S
C2724 C2726 1.381 . S
C2724 C2730 1.383 . S
C2725 C2721 1.495 . S
C2725 H2731 0.959 . S
C2725 H2732 0.961 . S
C2725 H2733 0.960 . S
C2726 C2724 1.381 . S
C2726 C2727 1.394 . S
C2726 H2734 0.930 . S
C2727 C2726 1.394 . S
C2727 C2728 1.383 . S
C2727 H2735 0.929 . S
C2728 C2727 1.383 . S
C2728 C2729 1.377 . S
C2729 H2713 0.930 . S
C2729 C2728 1.377 . S
C2729 C2730 1.379 . S
C2730 H2714 0.931 . S
C2730 C2724 1.383 . S
C2730 C2729 1.379 . S
H2731 C2725 0.959 . S
H2732 C2725 0.961 . S
H2733 C2725 0.960 . S
H2734 C2726 0.930 . S
H2735 C2727 0.929 . S
H2736 C2744 0.929 . S
H2737 C2746 0.930 . S
H2738 C2748 0.930 . S
H2739 C2751 0.929 . S
H2740 C2754 0.930 . S
H2741 C2756 0.960 . S
H2742 C2756 0.960 . S
H2743 C2756 0.960 . S
C2744 H2736 0.929 . S
C2744 C2745 1.377 . S
C2744 C2746 1.384 . S
C2745 C2744 1.377 . S
C2745 C2751 1.390 . S
C2746 H2737 0.930 . S
C2746 C2744 1.384 . S
C2746 C2747 1.372 . S
C2747 C2746 1.372 . S
C2747 C2748 1.400 . S
C2747 C2752 1.490 . S
C2748 H2738 0.930 . S
C2748 C2747 1.400 . S
C2748 C2751 1.386 . S
H2749 C2765 0.930 . S
H2750 C2766 0.931 . S
C2751 H2739 0.929 . S
C2751 C2745 1.390 . S
C2751 C2748 1.386 . S
C2752 C2747 1.490 . S
C2752 C2754 1.395 . S
C2752 C2755 1.403 . S
H2753 C2759 0.930 . S
C2754 H2740 0.930 . S
C2754 C2752 1.395 . S
C2754 C2757 1.403 . S
C2755 C2752 1.403 . S
C2755 C2756 1.524 . S
C2755 C2759 1.400 . S
C2756 H2741 0.960 . S
C2756 H2742 0.960 . S
C2756 H2743 0.960 . S
C2756 C2755 1.524 . S
C2757 C2754 1.403 . S
C2757 C2758 1.392 . S
C2757 C2761 1.495 . S
C2758 C2757 1.392 . S
C2758 C2759 1.385 . S
C2758 C2760 1.478 . S
C2759 H2753 0.930 . S
C2759 C2755 1.400 . S
C2759 C2758 1.385 . S
C2760 C2758 1.478 . S
C2760 C2762 1.381 . S
C2760 C2766 1.383 . S
C2761 C2757 1.495 . S
C2761 H2767 0.959 . S
C2761 H2768 0.961 . S
C2761 H2769 0.960 . S
C2762 C2760 1.381 . S
C2762 C2763 1.394 . S
C2762 H2770 0.930 . S
C2763 C2762 1.394 . S
C2763 C2764 1.383 . S
C2763 H2771 0.929 . S
C2764 C2763 1.383 . S
C2764 C2765 1.377 . S
C2765 H2749 0.930 . S
C2765 C2764 1.377 . S
C2765 C2766 1.379 . S
C2766 H2750 0.931 . S
C2766 C2760 1.383 . S
C2766 C2765 1.379 . S
H2767 C2761 0.959 . S
H2768 C2761 0.961 . S
H2769 C2761 0.960 . S
H2770 C2762 0.930 . S
H2771 C2763 0.929 . S
H2772 C2780 0.929 . S
H2773 C2782 0.930 . S
H2774 C2784 0.930 . S
H2775 C2787 0.929 . S
H2776 C2790 0.930 . S
H2777 C2792 0.960 . S
H2778 C2792 0.960 . S
H2779 C2792 0.960 . S
C2780 H2772 0.929 . S
C2780 C2781 1.377 . S
C2780 C2782 1.384 . S
C2781 C2780 1.377 . S
C2781 C2787 1.390 . S
C2782 H2773 0.930 . S
C2782 C2780 1.384 . S
C2782 C2783 1.372 . S
C2783 C2782 1.372 . S
C2783 C2784 1.400 . S
C2783 C2788 1.490 . S
C2784 H2774 0.930 . S
C2784 C2783 1.400 . S
C2784 C2787 1.386 . S
H2785 C2801 0.930 . S
H2786 C2802 0.931 . S
C2787 H2775 0.929 . S
C2787 C2781 1.390 . S
C2787 C2784 1.386 . S
C2788 C2783 1.490 . S
C2788 C2790 1.395 . S
C2788 C2791 1.403 . S
H2789 C2795 0.930 . S
C2790 H2776 0.930 . S
C2790 C2788 1.395 . S
C2790 C2793 1.403 . S
C2791 C2788 1.403 . S
C2791 C2792 1.524 . S
C2791 C2795 1.400 . S
C2792 H2777 0.960 . S
C2792 H2778 0.960 . S
C2792 H2779 0.960 . S
C2792 C2791 1.524 . S
C2793 C2790 1.403 . S
C2793 C2794 1.392 . S
C2793 C2797 1.495 . S
C2794 C2793 1.392 . S
C2794 C2795 1.385 . S
C2794 C2796 1.478 . S
C2795 H2789 0.930 . S
C2795 C2791 1.400 . S
C2795 C2794 1.385 . S
C2796 C2794 1.478 . S
C2796 C2798 1.381 . S
C2796 C2802 1.383 . S
C2797 C2793 1.495 . S
C2797 H2803 0.959 . S
C2797 H2804 0.961 . S
C2797 H2805 0.960 . S
C2798 C2796 1.381 . S
C2798 C2799 1.394 . S
C2798 H2806 0.930 . S
C2799 C2798 1.394 . S
C2799 C2800 1.383 . S
C2799 H2807 0.929 . S
C2800 C2799 1.383 . S
C2800 C2801 1.377 . S
C2801 H2785 0.930 . S
C2801 C2800 1.377 . S
C2801 C2802 1.379 . S
C2802 H2786 0.931 . S
C2802 C2796 1.383 . S
C2802 C2801 1.379 . S
H2803 C2797 0.959 . S
H2804 C2797 0.961 . S
H2805 C2797 0.960 . S
H2806 C2798 0.930 . S
H2807 C2799 0.929 . S
H2808 C2816 0.929 . S
H2809 C2818 0.930 . S
H2810 C2820 0.930 . S
H2811 C2823 0.929 . S
H2812 C2826 0.930 . S
H2813 C2828 0.960 . S
H2814 C2828 0.960 . S
H2815 C2828 0.960 . S
C2816 H2808 0.929 . S
C2816 C2817 1.377 . S
C2816 C2818 1.384 . S
C2817 C2816 1.377 . S
C2817 C2823 1.390 . S
C2818 H2809 0.930 . S
C2818 C2816 1.384 . S
C2818 C2819 1.372 . S
C2819 C2818 1.372 . S
C2819 C2820 1.400 . S
C2819 C2824 1.490 . S
C2820 H2810 0.930 . S
C2820 C2819 1.400 . S
C2820 C2823 1.386 . S
H2821 C2837 0.930 . S
H2822 C2838 0.931 . S
C2823 H2811 0.929 . S
C2823 C2817 1.390 . S
C2823 C2820 1.386 . S
C2824 C2819 1.490 . S
C2824 C2826 1.395 . S
C2824 C2827 1.403 . S
H2825 C2831 0.930 . S
C2826 H2812 0.930 . S
C2826 C2824 1.395 . S
C2826 C2829 1.403 . S
C2827 C2824 1.403 . S
C2827 C2828 1.524 . S
C2827 C2831 1.400 . S
C2828 H2813 0.960 . S
C2828 H2814 0.960 . S
C2828 H2815 0.960 . S
C2828 C2827 1.524 . S
C2829 C2826 1.403 . S
C2829 C2830 1.392 . S
C2829 C2833 1.495 . S
C2830 C2829 1.392 . S
C2830 C2831 1.385 . S
C2830 C2832 1.478 . S
C2831 H2825 0.930 . S
C2831 C2827 1.400 . S
C2831 C2830 1.385 . S
C2832 C2830 1.478 . S
C2832 C2834 1.381 . S
C2832 C2838 1.383 . S
C2833 C2829 1.495 . S
C2833 H2839 0.959 . S
C2833 H2840 0.961 . S
C2833 H2841 0.960 . S
C2834 C2832 1.381 . S
C2834 C2835 1.394 . S
C2834 H2842 0.930 . S
C2835 C2834 1.394 . S
C2835 C2836 1.383 . S
C2835 H2843 0.929 . S
C2836 C2835 1.383 . S
C2836 C2837 1.377 . S
C2837 H2821 0.930 . S
C2837 C2836 1.377 . S
C2837 C2838 1.379 . S
C2838 H2822 0.931 . S
C2838 C2832 1.383 . S
C2838 C2837 1.379 . S
H2839 C2833 0.959 . S
H2840 C2833 0.961 . S
H2841 C2833 0.960 . S
H2842 C2834 0.930 . S
H2843 C2835 0.929 . S
H2844 C2852 0.929 . S
H2845 C2854 0.930 . S
H2846 C2856 0.930 . S
H2847 C2859 0.929 . S
H2848 C2862 0.930 . S
H2849 C2864 0.960 . S
H2850 C2864 0.960 . S
H2851 C2864 0.960 . S
C2852 H2844 0.929 . S
C2852 C2853 1.377 . S
C2852 C2854 1.384 . S
C2853 C2852 1.377 . S
C2853 C2859 1.390 . S
C2854 H2845 0.930 . S
C2854 C2852 1.384 . S
C2854 C2855 1.372 . S
C2855 C2854 1.372 . S
C2855 C2856 1.400 . S
C2855 C2860 1.490 . S
C2856 H2846 0.930 . S
C2856 C2855 1.400 . S
C2856 C2859 1.386 . S
H2857 C2873 0.930 . S
H2858 C2874 0.931 . S
C2859 H2847 0.929 . S
C2859 C2853 1.390 . S
C2859 C2856 1.386 . S
C2860 C2855 1.490 . S
C2860 C2862 1.395 . S
C2860 C2863 1.403 . S
H2861 C2867 0.930 . S
C2862 H2848 0.930 . S
C2862 C2860 1.395 . S
C2862 C2865 1.403 . S
C2863 C2860 1.403 . S
C2863 C2864 1.524 . S
C2863 C2867 1.400 . S
C2864 H2849 0.960 . S
C2864 H2850 0.960 . S
C2864 H2851 0.960 . S
C2864 C2863 1.524 . S
C2865 C2862 1.403 . S
C2865 C2866 1.392 . S
C2865 C2869 1.495 . S
C2866 C2865 1.392 . S
C2866 C2867 1.385 . S
C2866 C2868 1.478 . S
C2867 H2861 0.930 . S
C2867 C2863 1.400 . S
C2867 C2866 1.385 . S
C2868 C2866 1.478 . S
C2868 C2870 1.381 . S
C2868 C2874 1.383 . S
C2869 C2865 1.495 . S
C2869 H2875 0.959 . S
C2869 H2876 0.961 . S
C2869 H2877 0.960 . S
C2870 C2868 1.381 . S
C2870 C2871 1.394 . S
C2870 H2878 0.930 . S
C2871 C2870 1.394 . S
C2871 C2872 1.383 . S
C2871 H2879 0.929 . S
C2872 C2871 1.383 . S
C2872 C2873 1.377 . S
C2873 H2857 0.930 . S
C2873 C2872 1.377 . S
C2873 C2874 1.379 . S
C2874 H2858 0.931 . S
C2874 C2868 1.383 . S
C2874 C2873 1.379 . S
H2875 C2869 0.959 . S
H2876 C2869 0.961 . S
H2877 C2869 0.960 . S
H2878 C2870 0.930 . S
H2879 C2871 0.929 . S
H2880 C2888 0.929 . S
H2881 C2890 0.930 . S
H2882 C2892 0.930 . S
H2883 C2895 0.929 . S
H2884 C2898 0.930 . S
H2885 C2900 0.960 . S
H2886 C2900 0.960 . S
H2887 C2900 0.960 . S
C2888 H2880 0.929 . S
C2888 C2889 1.377 . S
C2888 C2890 1.384 . S
C2889 C2888 1.377 . S
C2889 C2895 1.390 . S
C2890 H2881 0.930 . S
C2890 C2888 1.384 . S
C2890 C2891 1.372 . S
C2891 C2890 1.372 . S
C2891 C2892 1.400 . S
C2891 C2896 1.490 . S
C2892 H2882 0.930 . S
C2892 C2891 1.400 . S
C2892 C2895 1.386 . S
H2893 C2909 0.930 . S
H2894 C2910 0.931 . S
C2895 H2883 0.929 . S
C2895 C2889 1.390 . S
C2895 C2892 1.386 . S
C2896 C2891 1.490 . S
C2896 C2898 1.395 . S
C2896 C2899 1.403 . S
H2897 C2903 0.930 . S
C2898 H2884 0.930 . S
C2898 C2896 1.395 . S
C2898 C2901 1.403 . S
C2899 C2896 1.403 . S
C2899 C2900 1.524 . S
C2899 C2903 1.400 . S
C2900 H2885 0.960 . S
C2900 H2886 0.960 . S
C2900 H2887 0.960 . S
C2900 C2899 1.524 . S
C2901 C2898 1.403 . S
C2901 C2902 1.392 . S
C2901 C2905 1.495 . S
C2902 C2901 1.392 . S
C2902 C2903 1.385 . S
C2902 C2904 1.478 . S
C2903 H2897 0.930 . S
C2903 C2899 1.400 . S
C2903 C2902 1.385 . S
C2904 C2902 1.478 . S
C2904 C2906 1.381 . S
C2904 C2910 1.383 . S
C2905 C2901 1.495 . S
C2905 H2911 0.959 . S
C2905 H2912 0.961 . S
C2905 H2913 0.960 . S
C2906 C2904 1.381 . S
C2906 C2907 1.394 . S
C2906 H2914 0.930 . S
C2907 C2906 1.394 . S
C2907 C2908 1.383 . S
C2907 H2915 0.929 . S
C2908 C2907 1.383 . S
C2908 C2909 1.377 . S
C2909 H2893 0.930 . S
C2909 C2908 1.377 . S
C2909 C2910 1.379 . S
C2910 H2894 0.931 . S
C2910 C2904 1.383 . S
C2910 C2909 1.379 . S
H2911 C2905 0.959 . S
H2912 C2905 0.961 . S
H2913 C2905 0.960 . S
H2914 C2906 0.930 . S
H2915 C2907 0.929 . S
C981 C162 1.432 . S
C1000 C283 1.396 . S
C1017 C174 1.457 . S
C1036 C367 1.380 . S
C1053 C150 1.424 . S
C1072 C447 1.419 . S
C1089 C138 1.400 . S
C1108 C363 1.389 1_556 S
C1144 C451 1.344 . S
C1125 C114 1.409 . S
C1161 C126 1.374 . S
C1180 C279 1.356 1_556 S
C1216 C272 1.460 . S
C1197 C136 1.488 . S
C1252 C356 1.469 . S
C1233 C112 1.508 . S
C1269 C124 1.501 . S
C1288 C458 1.458 . S
C1305 C160 1.473 . S
C1324 C374 1.465 . S
C1341 C172 1.457 . S
C1360 C440 1.418 . S
C1396 C290 1.444 . S
C1377 C148 1.451 . S
C1432 C535 1.404 . S
C1413 C18 1.431 . S
C1449 C30 1.457 . S
C1468 C619 1.426 . S
C1485 C6 1.426 . S
C1504 C699 1.404 . S
C1521 C210 1.401 . S
C1540 C615 1.385 . S
C1557 C186 1.407 . S
C1576 C703 1.319 . S
C1593 C198 1.376 . S
C1612 C531 1.368 . S
C1629 C208 1.483 . S
C1648 C524 1.440 . S
C1665 C184 1.514 . S
C1684 C608 1.463 . S
C1720 C710 1.450 . S
C1701 C196 1.500 . S
C1737 C16 1.467 . S
C1756 C626 1.418 . S
C1792 C692 1.367 . S
C1773 C28 1.453 . S
C1809 C4 1.451 . S
C1828 C542 1.445 . S
C1864 C787 1.343 . S
C1845 C90 1.432 . S
C1881 C102 1.457 . S
C1900 C871 1.381 . S
C1936 C951 1.401 . S
C1917 C78 1.427 . S
C1972 C867 1.400 . S
C1953 C66 1.398 . S
C2008 C955 1.319 . S
C1989 C42 1.407 . S
C2025 C54 1.373 . S
C2044 C783 1.377 . S
C2061 C64 1.483 . S
C2080 C776 1.429 . S
C2097 C40 1.514 . S
C2116 C860 1.470 . S
C2152 C962 1.455 . S
C2133 C52 1.501 . S
C2169 C88 1.474 . S
C2188 C878 1.466 . S
C2205 C100 1.456 . S
C2224 C944 1.428 . S
C2241 C76 1.451 . S
C2260 C794 1.445 . S
C2277 C189 1.555 . S
C2296 C286 1.439 . S
C2332 C370 1.462 . S
C2313 C201 1.637 . S
C2349 C213 1.576 . S
C2368 C442 1.436 . S
C2385 C81 1.607 . S
C2404 C358 1.430 . S
C2421 C93 1.587 . S
C2440 C454 1.427 . S
C2476 C274 1.393 . S
C2457 C105 1.528 . S
C2493 C45 1.558 . S
C2512 C538 1.403 . S
C2529 C57 1.636 . S
C2548 C622 1.450 . S
C2565 C69 1.574 . S
C2584 C694 1.412 . S
C2601 C153 1.609 . S
C2620 C610 1.453 . S
C2656 C706 1.447 . S
C2637 C165 1.587 . S
C2673 C177 1.527 . S
C2692 C526 1.380 . S
C2709 C117 1.559 . S
C2728 C790 1.461 . S
C2745 C129 1.636 . S
C2764 C874 1.503 . S
C2800 C946 1.428 . S
C2781 C141 1.575 . S
C2817 C9 1.609 . S
C2836 C862 1.452 . S
C2853 C21 1.588 . S
C2872 C958 1.408 . S
C2889 C33 1.525 . S
C2908 C778 1.338 . S
