# Generated by pormake.
# Topology pyr, (3,6)-cn, num edge types: 1
# Building blocks:
#     Node 0, Type 0, BuildingBlock: PAMTOO_clean_linker_0, # of connection points: 3
#     Node 1, Type 0, BuildingBlock: PAMTOO_clean_linker_0, # of connection points: 3
#     Node 2, Type 0, BuildingBlock: PAMTOO_clean_linker_0, # of connection points: 3
#     Node 3, Type 0, BuildingBlock: PAMTOO_clean_linker_0, # of connection points: 3
#     Node 4, Type 0, BuildingBlock: PAMTOO_clean_linker_0, # of connection points: 3
#     Node 5, Type 0, BuildingBlock: PAMTOO_clean_linker_0, # of connection points: 3
#     Node 6, Type 0, BuildingBlock: PAMTOO_clean_linker_0, # of connection points: 3
#     Node 7, Type 0, BuildingBlock: PAMTOO_clean_linker_0, # of connection points: 3
#     Node 8, Type 1, BuildingBlock: BETDEL_clean_sbu_0, # of connection points: 6
#     Node 9, Type 1, BuildingBlock: BETDEL_clean_sbu_0, # of connection points: 6
#     Node 10, Type 1, BuildingBlock: BETDEL_clean_sbu_0, # of connection points: 6
#     Node 11, Type 1, BuildingBlock: BETDEL_clean_sbu_0, # of connection points: 6
#     Edge 12, Type (0, 1), BuildingBlock: KIFKEQ_clean_linker_1, # of connection points: 2
#     Edge 13, Type (0, 1), BuildingBlock: KIFKEQ_clean_linker_1, # of connection points: 2
#     Edge 14, Type (0, 1), BuildingBlock: KIFKEQ_clean_linker_1, # of connection points: 2
#     Edge 15, Type (0, 1), BuildingBlock: KIFKEQ_clean_linker_1, # of connection points: 2
#     Edge 16, Type (0, 1), BuildingBlock: KIFKEQ_clean_linker_1, # of connection points: 2
#     Edge 17, Type (0, 1), BuildingBlock: KIFKEQ_clean_linker_1, # of connection points: 2
#     Edge 18, Type (0, 1), BuildingBlock: KIFKEQ_clean_linker_1, # of connection points: 2
#     Edge 19, Type (0, 1), BuildingBlock: KIFKEQ_clean_linker_1, # of connection points: 2
#     Edge 20, Type (0, 1), BuildingBlock: KIFKEQ_clean_linker_1, # of connection points: 2
#     Edge 21, Type (0, 1), BuildingBlock: KIFKEQ_clean_linker_1, # of connection points: 2
#     Edge 22, Type (0, 1), BuildingBlock: KIFKEQ_clean_linker_1, # of connection points: 2
#     Edge 23, Type (0, 1), BuildingBlock: KIFKEQ_clean_linker_1, # of connection points: 2
#     Edge 24, Type (0, 1), BuildingBlock: KIFKEQ_clean_linker_1, # of connection points: 2
#     Edge 25, Type (0, 1), BuildingBlock: KIFKEQ_clean_linker_1, # of connection points: 2
#     Edge 26, Type (0, 1), BuildingBlock: KIFKEQ_clean_linker_1, # of connection points: 2
#     Edge 27, Type (0, 1), BuildingBlock: KIFKEQ_clean_linker_1, # of connection points: 2
#     Edge 28, Type (0, 1), BuildingBlock: KIFKEQ_clean_linker_1, # of connection points: 2
#     Edge 29, Type (0, 1), BuildingBlock: KIFKEQ_clean_linker_1, # of connection points: 2
#     Edge 30, Type (0, 1), BuildingBlock: KIFKEQ_clean_linker_1, # of connection points: 2
#     Edge 31, Type (0, 1), BuildingBlock: KIFKEQ_clean_linker_1, # of connection points: 2
#     Edge 32, Type (0, 1), BuildingBlock: KIFKEQ_clean_linker_1, # of connection points: 2
#     Edge 33, Type (0, 1), BuildingBlock: KIFKEQ_clean_linker_1, # of connection points: 2
#     Edge 34, Type (0, 1), BuildingBlock: KIFKEQ_clean_linker_1, # of connection points: 2
#     Edge 35, Type (0, 1), BuildingBlock: KIFKEQ_clean_linker_1, # of connection points: 2
# Relax obj value: 0.086
# Max RMSD: 0.194
# Mean RMSD: 0.138
data_MOF--net-pyr--node1-BETDEL_clean_sbu_0--node2-PAMTOO_clean_linker_0--edge1-KIFKEQ_clean_linker_1
_symmetry_space_group_name_H-M    P1
_symmetry_Int_Tables_number       1
_symmetry_cell_setting            triclinic
loop_
_symmetry_equiv_pos_as_xyz
'x, y, z'
_cell_length_a     36.359477
_cell_length_b     39.346518
_cell_length_c     35.668696
_cell_angle_alpha  92.069991
_cell_angle_beta   90.429341
_cell_angle_gamma 100.21993
loop_
_atom_site_label
_atom_site_type_symbol
_atom_site_fract_x
_atom_site_fract_y
_atom_site_fract_z
_atom_type_partial_charge
H0 H 0.15988 0.22331 0.21681 0.0
H1 H 0.23632 0.15158 0.20552 0.0
H2 H 0.23053 0.22398 0.12024 0.0
H3 H 0.23814 0.15546 0.09065 0.0
C4 C 0.25187 0.14628 0.11538 0.0
O5 O 0.26188 0.17333 0.14115 0.0
H6 H 0.23179 0.12514 0.12788 0.0
C7 C 0.18134 0.2132 0.20134 0.0
C8 C 0.19369 0.22766 0.16715 0.0
C9 C 0.19609 0.18542 0.21541 0.0
C10 C 0.22404 0.17264 0.19516 0.0
C11 C 0.23613 0.18665 0.16104 0.0
C12 C 0.22116 0.21401 0.14712 0.0
H13 H 0.28821 0.89598 0.71947 0.0
H14 H 0.26807 0.82529 0.62341 0.0
H15 H 0.34666 0.80975 0.7078 0.0
H16 H 0.36443 0.81805 0.62095 0.0
C17 C 0.34483 0.79307 0.61584 0.0
O18 O 0.31756 0.78821 0.64287 0.0
H19 H 0.33127 0.79441 0.58802 0.0
C20 C 0.29309 0.87274 0.70459 0.0
C21 C 0.31985 0.85421 0.71846 0.0
C22 C 0.27414 0.86259 0.6703 0.0
C23 C 0.28206 0.83348 0.65 0.0
C24 C 0.30849 0.81495 0.66351 0.0
C25 C 0.3267 0.82487 0.69779 0.0
H26 H 0.72358 0.30956 0.93863 0.0
H27 H 0.63106 0.31252 0.86261 0.0
H28 H 0.72749 0.39269 0.86316 0.0
H29 H 0.65244 0.41258 0.8602 0.0
C30 C 0.63993 0.39359 0.83768 0.0
O31 O 0.66254 0.36925 0.83148 0.0
H32 H 0.61207 0.38057 0.84713 0.0
C33 C 0.71001 0.32206 0.91728 0.0
C34 C 0.72911 0.35315 0.90338 0.0
C35 C 0.67463 0.30648 0.90268 0.0
C36 C 0.65849 0.32322 0.87407 0.0
C37 C 0.67763 0.35409 0.85984 0.0
C38 C 0.71294 0.3688 0.8743 0.0
H39 H 0.85284 0.72356 0.42925 0.0
H40 H 0.85611 0.63532 0.35487 0.0
H41 H 0.93466 0.72878 0.34205 0.0
H42 H 0.90779 0.69539 0.27042 0.0
C43 C 0.89968 0.66822 0.27904 0.0
O44 O 0.91167 0.66562 0.31553 0.0
H45 H 0.86863 0.66143 0.27727 0.0
C46 C 0.86509 0.71146 0.40595 0.0
C47 C 0.8959 0.73053 0.38773 0.0
C48 C 0.85004 0.67704 0.39462 0.0
C49 C 0.86638 0.66186 0.36404 0.0
C50 C 0.89656 0.68062 0.34508 0.0
C51 C 0.91138 0.71468 0.35708 0.0
H52 H 0.84503 0.92717 0.88106 0.0
H53 H 0.82518 0.85641 0.97074 0.0
H54 H 0.914 0.84963 0.8944 0.0
H55 H 0.85084 0.7869 0.91091 0.0
C56 C 0.85719 0.78951 0.94162 0.0
O57 O 0.87706 0.82187 0.95123 0.0
H58 H 0.83009 0.78552 0.95655 0.0
C59 C 0.8527 0.90603 0.89618 0.0
C60 C 0.88269 0.8905 0.88384 0.0
C61 C 0.83207 0.89429 0.92771 0.0
C62 C 0.84135 0.86648 0.9469 0.0
C63 C 0.8703 0.85019 0.93426 0.0
C64 C 0.89123 0.86233 0.9032 0.0
H65 H 0.79595 0.13943 0.34968 0.0
H66 H 0.73252 0.22228 0.35219 0.0
H67 H 0.81104 0.21662 0.44023 0.0
H68 H 0.74897 0.24852 0.4702 0.0
C69 C 0.73506 0.24897 0.44243 0.0
O70 O 0.76166 0.25084 0.41473 0.0
H71 H 0.71411 0.22468 0.43852 0.0
C72 C 0.78914 0.16261 0.36306 0.0
C73 C 0.80768 0.17604 0.39675 0.0
C74 C 0.76157 0.17875 0.3467 0.0
C75 C 0.75305 0.2089 0.36433 0.0
C76 C 0.77096 0.22231 0.39779 0.0
C77 C 0.79815 0.20608 0.41386 0.0
H78 H 0.36381 0.7298 0.11953 0.0
H79 H 0.3675 0.65112 0.20015 0.0
H80 H 0.45383 0.74056 0.20036 0.0
H81 H 0.48326 0.67706 0.2172 0.0
C82 C 0.45676 0.66088 0.22613 0.0
O83 O 0.43003 0.68146 0.23153 0.0
H84 H 0.44743 0.64092 0.20346 0.0
C85 C 0.37686 0.71992 0.14321 0.0
C86 C 0.41009 0.73934 0.15854 0.0
C87 C 0.36092 0.68783 0.15764 0.0
C88 C 0.37932 0.67524 0.18767 0.0
C89 C 0.41297 0.69394 0.20252 0.0
C90 C 0.42826 0.72594 0.18805 0.0
H91 H 0.12917 0.32016 0.75608 0.0
H92 H 0.21097 0.41389 0.75404 0.0
H93 H 0.21301 0.33436 0.66993 0.0
H94 H 0.28413 0.36309 0.704 0.0
C95 C 0.28166 0.3909 0.70555 0.0
O96 O 0.2459 0.39466 0.69539 0.0
H97 H 0.28732 0.40087 0.73501 0.0
C98 C 0.15284 0.33568 0.74295 0.0
C99 C 0.16943 0.32227 0.7112 0.0
C100 C 0.1676 0.36879 0.75874 0.0
C101 C 0.1992 0.38839 0.7425 0.0
C102 C 0.21545 0.37567 0.71079 0.0
C103 C 0.2003 0.34316 0.69498 0.0
Dy104 Dy 0.05979 0.03778 0.50966 0.0
C105 C 0.99773 0.98503 0.64532 0.0
C106 C 0.08784 0.06992 0.44696 0.0
Dy107 Dy 0.02185 0.0158 0.58056 0.0
O108 O 0.10448 0.05002 0.46674 0.0
O109 O 0.05564 0.07229 0.46129 0.0
O110 O 0.0927 0.99527 0.51277 0.0
O111 O 0.0797 0.02015 0.56296 0.0
C112 C 0.09445 0.99582 0.54912 0.0
C113 C 0.98467 0.05492 0.53928 0.0
O114 O 0.06311 0.06086 0.60323 0.0
O115 O 0.07439 0.08633 0.54631 0.0
O116 O 1.0017 0.01778 0.63971 0.0
O117 O 0.00643 0.96871 0.61537 0.0
O118 O 0.98353 0.05449 0.57553 0.0
O119 O 1.00185 0.03186 0.52703 0.0
O120 O 0.02239 0.99046 0.48604 0.0
O121 O 0.00546 0.96748 0.54368 0.0
C122 C 0.07582 0.08812 0.58345 0.0
C123 C 0.00656 0.96452 0.50649 0.0
Dy124 Dy 0.56481 0.03804 0.06482 0.0
C125 C 0.48053 0.95772 0.94049 0.0
C126 C 0.61262 0.07216 0.11866 0.0
Dy127 Dy 0.52253 1.0011 0.9919 0.0
O128 O 0.60799 0.03926 0.11037 0.0
O129 O 0.59114 0.08668 0.09734 0.0
O130 O 0.52456 1.00313 0.09991 0.0
O131 O 0.53879 0.98515 0.04694 0.0
C132 C 0.51807 0.978 0.07478 0.0
C133 C 0.5571 0.06598 0.97758 0.0
O134 O 0.47817 0.02366 0.02193 0.0
O135 O 0.51505 0.06386 0.06266 0.0
O136 O 0.51464 0.97341 0.93576 0.0
O137 O 0.46939 0.96503 0.97398 0.0
O138 O 0.53834 0.04511 0.95245 0.0
O139 O 0.55579 0.05049 0.00779 0.0
O140 O 0.61052 0.02054 0.03135 0.0
O141 O 0.57431 0.97843 0.99255 0.0
C142 C 0.4826 0.0506 0.04609 0.0
C143 C 0.60698 0.99377 0.00702 0.0
Dy144 Dy 0.56415 0.49997 0.51035 0.0
C145 C 0.50285 0.60811 0.58407 0.0
C146 C 0.60319 0.4524 0.4805 0.0
Dy147 Dy 0.54417 0.56225 0.55442 0.0
O148 O 0.56727 0.45067 0.47722 0.0
O149 O 0.61776 0.48039 0.49949 0.0
O150 O 0.50369 0.4737 0.5091 0.0
O151 O 0.52463 0.50692 0.55421 0.0
C152 C 0.49534 0.4895 0.53967 0.0
C153 C 0.61351 0.57174 0.52679 0.0
O154 O 0.56165 0.53416 0.60316 0.0
O155 O 0.58996 0.49566 0.56756 0.0
O156 O 0.53909 0.61403 0.58144 0.0
O157 O 0.48954 0.57711 0.57109 0.0
O158 O 0.60507 0.58632 0.55813 0.0
O159 O 0.58428 0.5555 0.51077 0.0
O160 O 0.54772 0.5288 0.46177 0.0
O161 O 0.51827 0.56636 0.4973 0.0
C162 C 0.58273 0.50987 0.60048 0.0
C163 C 0.52604 0.55257 0.46439 0.0
Dy164 Dy 0.05582 0.48112 0.04977 0.0
C165 C 1.00295 0.60464 0.00611 0.0
C166 C 0.08542 0.42654 0.0725 0.0
Dy167 Dy 0.03493 0.54812 0.01366 0.0
O168 O 0.07404 0.44924 0.09474 0.0
O169 O 0.08072 0.43358 0.03767 0.0
O170 O 0.01172 0.48496 0.093 0.0
O171 O 0.04093 0.52998 0.06997 0.0
C172 C 0.01486 0.51834 0.09166 0.0
C173 C 0.06241 0.50785 0.96153 0.0
O174 O 0.08954 0.57016 0.04196 0.0
O175 O 0.11036 0.51855 0.0539 0.0
O176 O 0.03586 0.6017 0.99362 0.0
O177 O 0.98779 0.57683 0.0227 0.0
O178 O 0.0511 0.53636 0.9535 0.0
O179 O 0.05798 0.50392 0.99605 0.0
O180 O 0.00455 0.45805 0.0166 0.0
O181 O 0.98155 0.50929 0.00995 0.0
C182 C 0.11581 0.55284 0.05268 0.0
C183 C 0.97751 0.47506 0.00763 0.0
H184 H 0.17584 0.2169 0.28009 0.0
H185 H 0.1823 0.11654 0.22963 0.0
H186 H 0.14887 0.1892 0.33621 0.0
H187 H 0.15657 0.08921 0.2862 0.0
H188 H 0.15023 0.05975 0.41036 0.0
H189 H 0.17703 0.08835 0.35467 0.0
H190 H 0.08815 0.14798 0.35251 0.0
H191 H 0.0611 0.11911 0.40828 0.0
C192 C 0.17144 0.18899 0.28087 0.0
C193 C 0.18126 0.16896 0.25031 0.0
C194 C 0.15609 0.1732 0.31301 0.0
C195 C 0.1507 0.13714 0.31541 0.0
C196 C 0.16086 0.11712 0.28516 0.0
C197 C 0.17578 0.13283 0.25288 0.0
C198 C 0.13642 0.07894 0.39794 0.0
C199 C 0.10362 0.08725 0.41341 0.0
C200 C 0.15167 0.09518 0.36608 0.0
C201 C 0.1346 0.12029 0.34939 0.0
C202 C 0.10195 0.12886 0.36508 0.0
C203 C 0.08641 0.11227 0.39676 0.0
H204 H 0.39357 0.85184 0.73229 0.0
H205 H 0.29753 0.88471 0.78327 0.0
H206 H 0.43066 0.87176 0.78787 0.0
H207 H 0.33585 0.90744 0.83802 0.0
H208 H 0.40845 0.92269 0.94455 0.0
H209 H 0.36865 0.89463 0.89248 0.0
H210 H 0.45945 0.92412 0.81591 0.0
H211 H 0.49913 0.9504 0.86781 0.0
C212 C 0.38015 0.86311 0.75542 0.0
C213 C 0.3423 0.86644 0.75311 0.0
C214 C 0.40176 0.87516 0.78721 0.0
C215 C 0.3865 0.89164 0.81744 0.0
C216 C 0.34853 0.89463 0.81548 0.0
C217 C 0.32666 0.88206 0.78376 0.0
C218 C 0.41985 0.92261 0.91659 0.0
C219 C 0.45687 0.93851 0.91019 0.0
C220 C 0.39702 0.90686 0.8867 0.0
C221 C 0.41075 0.907 0.84985 0.0
C222 C 0.448 0.92273 0.84385 0.0
C223 C 0.47079 0.93804 0.87365 0.0
H224 H 0.65255 0.46345 0.82624 0.0
H225 H 0.61486 0.36476 0.76915 0.0
H226 H 0.64166 0.49291 0.76905 0.0
H227 H 0.60365 0.39408 0.7119 0.0
H228 H 0.62101 0.45624 0.60632 0.0
H229 H 0.63721 0.4293 0.6631 0.0
H230 H 0.58853 0.50285 0.73037 0.0
H231 H 0.57257 0.53013 0.67358 0.0
C232 C 0.64215 0.44808 0.80133 0.0
C233 C 0.63491 0.41181 0.80194 0.0
C234 C 0.63568 0.46493 0.76866 0.0
C235 C 0.62186 0.44588 0.73584 0.0
C236 C 0.61484 0.40955 0.73648 0.0
C237 C 0.62112 0.39273 0.76923 0.0
C238 C 0.61399 0.46694 0.63318 0.0
C239 C 0.59532 0.49536 0.63526 0.0
C240 C 0.62309 0.45128 0.66576 0.0
C241 C 0.61395 0.46373 0.7013 0.0
C242 C 0.59625 0.49276 0.70347 0.0
C243 C 0.58697 0.50834 0.67085 0.0
H244 H 0.86687 0.60607 0.24559 0.0
H245 H 0.97139 0.67763 0.25315 0.0
H246 H 0.8936 0.57016 0.19966 0.0
H247 H 0.99878 0.64136 0.20787 0.0
H248 H 0.02402 0.58886 0.09697 0.0
H249 H 0.99607 0.62441 0.14231 0.0
H250 H 0.93747 0.53199 0.19203 0.0
H251 H 0.96463 0.49664 0.14597 0.0
C252 C 0.89573 0.61391 0.23759 0.0
C253 C 0.917 0.64478 0.25261 0.0
C254 C 0.91116 0.59327 0.21138 0.0
C255 C 0.94836 0.60287 0.19971 0.0
C256 C 0.96985 0.63343 0.21555 0.0
C257 C 0.95435 0.65409 0.24172 0.0
C258 C 0.00491 0.5762 0.11742 0.0
C259 C 0.99648 0.53996 0.11788 0.0
C260 C 0.98914 0.59656 0.14368 0.0
C261 C 0.96462 0.58118 0.17115 0.0
C262 C 0.95586 0.54484 0.17114 0.0
C263 C 0.97155 0.52452 0.14481 0.0
H264 H 0.28163 0.1422 0.04517 0.0
H265 H 0.29889 0.1194 0.16076 0.0
H266 H 0.33837 0.12028 0.02784 0.0
H267 H 0.35568 0.09748 0.14357 0.0
H268 H 0.47538 0.09732 0.10306 0.0
H269 H 0.41979 0.12129 0.11916 0.0
H270 H 0.35946 0.06263 0.02631 0.0
H271 H 0.41485 0.03875 0.00997 0.0
C272 C 0.29761 0.13242 0.06677 0.0
C273 C 0.28617 0.13242 0.10425 0.0
C274 C 0.32992 0.11985 0.0569 0.0
C275 C 0.35138 0.10733 0.08442 0.0
C276 C 0.33987 0.10739 0.12191 0.0
C277 C 0.30741 0.11967 0.1317 0.0
C278 C 0.45033 0.08966 0.08596 0.0
C279 C 0.4495 0.06605 0.05531 0.0
C280 C 0.4185 0.10323 0.09532 0.0
C281 C 0.3854 0.09372 0.074 0.0
C282 C 0.38473 0.0706 0.04302 0.0
C283 C 0.41641 0.05678 0.03385 0.0
H284 H 0.27036 0.88373 0.59871 0.0
H285 H 0.21797 0.88839 0.70649 0.0
H286 H 0.22601 0.91587 0.57188 0.0
H287 H 0.17264 0.9201 0.6794 0.0
H288 H 0.12047 1.0056 0.62208 0.0
H289 H 0.16377 0.974 0.65317 0.0
H290 H 0.16224 0.90734 0.55392 0.0
H291 H 0.12045 0.93952 0.52286 0.0
C292 C 0.24905 0.89135 0.6166 0.0
C293 C 0.24742 0.88316 0.65461 0.0
C294 C 0.22348 0.90973 0.6012 0.0
C295 C 0.19525 0.9202 0.62327 0.0
C296 C 0.19408 0.91266 0.66158 0.0
C297 C 0.21998 0.89443 0.67711 0.0
C298 C 0.12935 0.98406 0.60716 0.0
C299 C 0.11755 0.97527 0.56992 0.0
C300 C 0.15404 0.96586 0.62495 0.0
C301 C 0.16709 0.93842 0.60586 0.0
C302 C 0.15376 0.9289 0.56917 0.0
C303 C 0.12952 0.94719 0.55141 0.0
H304 H 0.74662 0.37092 0.97655 0.0
H305 H 0.79441 0.37165 0.86614 0.0
H306 H 0.80728 0.39923 1.00305 0.0
H307 H 0.85534 0.39922 0.8928 0.0
H308 H 0.964 0.41238 0.96976 0.0
H309 H 0.90383 0.38135 0.94463 0.0
H310 H 0.84909 0.462 0.99042 0.0
H311 H 0.90913 0.49345 0.01472 0.0
C312 C 0.77023 0.3769 0.95809 0.0
C313 C 0.766 0.36928 0.91937 0.0
C314 C 0.80476 0.39311 0.97318 0.0
C315 C 0.83581 0.40124 0.9499 0.0
C316 C 0.83179 0.39297 0.91128 0.0
C317 C 0.79704 0.37745 0.89606 0.0
C318 C 0.93906 0.42334 0.97461 0.0
C319 C 0.94118 0.45531 0.99413 0.0
C320 C 0.9048 0.40571 0.9601 0.0
C321 C 0.87202 0.41938 0.96569 0.0
C322 C 0.87401 0.45092 0.98593 0.0
C323 C 0.90833 0.46892 0.99966 0.0
H324 H 0.83209 0.68213 0.46944 0.0
H325 H 0.79296 0.62677 0.36571 0.0
H326 H 0.77615 0.65545 0.50012 0.0
H327 H 0.7391 0.59658 0.39773 0.0
H328 H 0.62459 0.57747 0.45172 0.0
H329 H 0.68217 0.60051 0.42029 0.0
H330 H 0.7415 0.61008 0.527 0.0
H331 H 0.68284 0.58989 0.55837 0.0
C332 C 0.81173 0.66413 0.45302 0.0
C333 C 0.81717 0.65745 0.41458 0.0
C334 C 0.77968 0.64798 0.47108 0.0
C335 C 0.75238 0.62361 0.45173 0.0
C336 C 0.75866 0.61572 0.41369 0.0
C337 C 0.79025 0.63267 0.39532 0.0
C338 C 0.65008 0.58443 0.46832 0.0
C339 C 0.64931 0.5822 0.50748 0.0
C340 C 0.68339 0.59745 0.45026 0.0
C341 C 0.71711 0.60764 0.4708 0.0
C342 C 0.71629 0.60373 0.51001 0.0
C343 C 0.6827 0.59174 0.52813 0.0
H344 H 0.12078 0.23689 0.16945 0.0
H345 H 0.22983 0.28368 0.13042 0.0
H346 H 0.09462 0.28509 0.146 0.0
H347 H 0.20295 0.33096 0.10547 0.0
H348 H 0.12437 0.38555 0.03153 0.0
H349 H 0.15096 0.33664 0.05369 0.0
H350 H 0.10742 0.35217 0.16407 0.0
H351 H 0.08153 0.40132 0.14224 0.0
C352 C 0.13923 0.25745 0.15608 0.0
C353 C 0.17749 0.2565 0.15207 0.0
C354 C 0.12414 0.28485 0.14245 0.0
C355 C 0.14687 0.31149 0.12399 0.0
C356 C 0.18489 0.31042 0.11932 0.0
C357 C 0.20015 0.28331 0.13349 0.0
C358 C 0.12056 0.37842 0.06048 0.0
C359 C 0.10103 0.39701 0.08527 0.0
C360 C 0.13581 0.35066 0.07312 0.0
C361 C 0.13103 0.34081 0.11046 0.0
C362 C 0.11118 0.35924 0.13508 0.0
C363 C 0.09656 0.38733 0.12265 0.0
H364 H 0.62908 0.25417 0.86255 0.0
H365 H 0.67675 0.28039 0.97354 0.0
H366 H 0.60027 0.19809 0.88321 0.0
H367 H 0.65119 0.22261 0.99306 0.0
H368 H 0.57316 0.1228 0.026 0.0
H369 H 0.59989 0.18198 0.00958 0.0
H370 H 0.6147 0.14555 0.89566 0.0
H371 H 0.58576 0.08772 0.9117 0.0
C372 C 0.63348 0.24818 0.89143 0.0
C373 C 0.65564 0.27221 0.91612 0.0
C374 C 0.61751 0.21542 0.90316 0.0
C375 C 0.62395 0.20511 0.93971 0.0
C376 C 0.64539 0.22936 0.96474 0.0
C377 C 0.66069 0.26251 0.95324 0.0
C378 C 0.5824 0.12773 0.99759 0.0
C379 C 0.5772 0.10093 0.97001 0.0
C380 C 0.59781 0.16159 0.98808 0.0
C381 C 0.60897 0.16903 0.95097 0.0
C382 C 0.60526 0.14147 0.92412 0.0
C383 C 0.58909 0.10808 0.93339 0.0
H384 H 0.96983 0.7625 0.39093 0.0
H385 H 0.85864 0.78088 0.41587 0.0
H386 H 0.99604 0.81994 0.41733 0.0
H387 H 0.8852 0.83739 0.4438 0.0
H388 H 0.95426 0.91287 0.5337 0.0
H389 H 0.92734 0.85756 0.50257 0.0
H390 H 0.99434 0.88492 0.40522 0.0
H391 H 0.02091 0.94059 0.43604 0.0
C392 C 0.95087 0.77875 0.40161 0.0
C393 C 0.912 0.76659 0.4015 0.0
C394 C 0.96598 0.81164 0.41693 0.0
C395 C 0.94268 0.83298 0.43298 0.0
C396 C 0.90389 0.82127 0.43218 0.0
C397 C 0.88873 0.78871 0.41632 0.0
C398 C 0.96317 0.90718 0.50561 0.0
C399 C 0.98967 0.9312 0.48733 0.0
C400 C 0.94763 0.87557 0.48774 0.0
C401 C 0.95874 0.86694 0.45146 0.0
C402 C 0.98539 0.89082 0.43324 0.0
C403 C 1.00041 0.92275 0.45083 0.0
H404 H 0.33319 0.73367 0.5717 0.0
H405 H 0.40501 0.78688 0.66002 0.0
H406 H 0.37091 0.68812 0.56848 0.0
H407 H 0.44268 0.741 0.65747 0.0
H408 H 0.52594 0.67652 0.6032 0.0
H409 H 0.48661 0.7201 0.61473 0.0
H410 H 0.38796 0.64095 0.60221 0.0
H411 H 0.42728 0.5977 0.58998 0.0
C412 C 0.35696 0.73538 0.59061 0.0
C413 C 0.36671 0.76397 0.6156 0.0
C414 C 0.37844 0.70922 0.58901 0.0
C415 C 0.41 0.71096 0.6126 0.0
C416 C 0.41895 0.73913 0.6385 0.0
C417 C 0.39738 0.76528 0.6401 0.0
C418 C 0.49586 0.66846 0.60341 0.0
C419 C 0.47963 0.63383 0.59548 0.0
C420 C 0.47331 0.69337 0.61014 0.0
C421 C 0.43407 0.68409 0.60907 0.0
C422 C 0.41802 0.64911 0.60257 0.0
C423 C 0.44055 0.62428 0.59582 0.0
H424 H 0.91273 0.85312 0.82894 0.0
H425 H 0.90172 0.95744 0.86284 0.0
H426 H 0.94583 0.87466 0.77323 0.0
H427 H 0.93096 0.97835 0.80565 0.0
H428 H 0.0073 0.01548 0.71447 0.0
H429 H 0.98537 0.99119 0.77361 0.0
H430 H 0.93648 0.89553 0.71457 0.0
H431 H 0.9614 0.91938 0.65581 0.0
C432 C 0.91741 0.88064 0.82465 0.0
C433 C 0.90424 0.90346 0.85041 0.0
C434 C 0.93586 0.89295 0.79227 0.0
C435 C 0.94103 0.9283 0.78456 0.0
C436 C 0.92825 0.95107 0.81067 0.0
C437 C 0.91065 0.93891 0.84332 0.0
C438 C 0.99216 0.98914 0.71437 0.0
C439 C 0.98565 0.9693 0.68082 0.0
C440 C 0.97926 0.97523 0.7482 0.0
C441 C 0.95842 0.94151 0.74904 0.0
C442 C 0.95276 0.9214 0.71529 0.0
C443 C 0.96671 0.93507 0.68152 0.0
H444 H 0.68749 0.17584 0.32911 0.0
H445 H 0.78894 0.14794 0.28489 0.0
H446 H 0.65396 0.1525 0.27192 0.0
H447 H 0.75476 0.12346 0.22812 0.0
H448 H 0.66462 0.04598 0.15819 0.0
H449 H 0.70239 0.07305 0.21181 0.0
H450 H 0.65321 0.1646 0.20246 0.0
H451 H 0.61552 0.1375 0.14853 0.0
C452 C 0.70282 0.16508 0.30711 0.0
C453 C 0.74109 0.164 0.31172 0.0
C454 C 0.6835 0.15162 0.27433 0.0
C455 C 0.70177 0.1363 0.2455 0.0
C456 C 0.73991 0.13493 0.25003 0.0
C457 C 0.75941 0.14879 0.28267 0.0
C458 C 0.66215 0.07201 0.1674 0.0
C459 C 0.63711 0.08965 0.14935 0.0
C460 C 0.68388 0.08754 0.19796 0.0
C461 C 0.68066 0.12088 0.21138 0.0
C462 C 0.65602 0.13875 0.19289 0.0
C463 C 0.63462 0.12335 0.16197 0.0
H464 H 0.48242 0.69224 0.2933 0.0
H465 H 0.44785 0.59152 0.23963 0.0
H466 H 0.4972 0.6652 0.35097 0.0
H467 H 0.46226 0.56432 0.29723 0.0
H468 H 0.53612 0.53216 0.39134 0.0
H469 H 0.51754 0.55769 0.33444 0.0
H470 H 0.46723 0.63018 0.40163 0.0
H471 H 0.48607 0.60501 0.45851 0.0
C472 C 0.47768 0.6643 0.29407 0.0
C473 C 0.46393 0.64398 0.26215 0.0
C474 C 0.48599 0.64878 0.32705 0.0
C475 C 0.48094 0.61256 0.32873 0.0
C476 C 0.46687 0.59226 0.29677 0.0
C477 C 0.4584 0.60781 0.26387 0.0
C478 C 0.5209 0.5534 0.39403 0.0
C479 C 0.51274 0.56654 0.42961 0.0
C480 C 0.51009 0.56795 0.36136 0.0
C481 C 0.49101 0.59609 0.36345 0.0
C482 C 0.48234 0.60885 0.399 0.0
C483 C 0.49297 0.59422 0.43165 0.0
H484 H 0.20208 0.39963 0.82278 0.0
H485 H 0.0937 0.37208 0.76892 0.0
H486 H 0.17472 0.42981 0.87365 0.0
H487 H 0.06625 0.40239 0.81984 0.0
H488 H 0.04971 0.50342 0.88638 0.0
H489 H 0.0728 0.46567 0.83968 0.0
H490 H 0.12884 0.42072 0.92733 0.0
H491 H 0.10551 0.45869 0.97413 0.0
C492 C 0.17231 0.39974 0.82204 0.0
C493 C 0.15007 0.38361 0.79174 0.0
C494 C 0.1566 0.41684 0.8513 0.0
C495 C 0.11834 0.41867 0.85072 0.0
C496 C 0.09588 0.40168 0.82096 0.0
C497 C 0.11152 0.3841 0.79195 0.0
C498 C 0.06671 0.48528 0.8957 0.0
C499 C 0.07559 0.48378 0.93393 0.0
C500 C 0.07973 0.46348 0.86898 0.0
C501 C 0.10251 0.44003 0.87976 0.0
C502 C 0.11135 0.43849 0.91811 0.0
C503 C 0.09778 0.45999 0.94496 0.0
H504 H 0.81428 0.91282 0.99893 0.0
H505 H 0.77732 0.91136 0.88337 0.0
H506 H 0.76008 0.93758 0.01857 0.0
H507 H 0.72393 0.93703 0.90283 0.0
H508 H 0.61114 0.94135 0.95597 0.0
H509 H 0.66618 0.91818 0.9375 0.0
H510 H 0.73428 0.99179 0.01353 0.0
H511 H 0.67896 0.01487 0.03265 0.0
C512 C 0.79461 0.91789 0.97778 0.0
C513 C 0.79995 0.91021 0.93966 0.0
C514 C 0.76386 0.93235 0.98896 0.0
C515 C 0.73784 0.93917 0.96221 0.0
C516 C 0.74337 0.93172 0.92408 0.0
C517 C 0.77412 0.91738 0.91292 0.0
C518 C 0.63778 0.95268 0.96883 0.0
C519 C 0.64064 0.98001 0.99578 0.0
C520 C 0.66936 0.93949 0.95804 0.0
C521 C 0.70449 0.95329 0.97397 0.0
C522 C 0.70744 0.9805 1.00104 0.0
C523 C 0.6758 0.99381 0.0118 0.0
H524 H 0.87206 0.20583 0.43484 0.0
H525 H 0.80825 0.10619 0.39958 0.0
H526 H 0.91628 0.17715 0.46768 0.0
H527 H 0.85359 0.07779 0.43116 0.0
H528 H 0.96507 0.04303 0.46505 0.0
H529 H 0.92383 0.07259 0.42824 0.0
H530 H 0.91118 0.13865 0.52481 0.0
H531 H 0.95181 0.10887 0.56162 0.0
C532 C 0.86733 0.17786 0.43403 0.0
C533 C 0.8362 0.15845 0.41467 0.0
C534 C 0.89288 0.16147 0.4527 0.0
C535 C 0.88834 0.12526 0.45203 0.0
C536 C 0.85799 0.10577 0.43182 0.0
C537 C 0.83208 0.12214 0.41359 0.0
C538 C 0.95354 0.06395 0.47828 0.0
C539 C 0.96144 0.0736 0.51621 0.0
C540 C 0.92987 0.08074 0.4573 0.0
C541 C 0.9143 0.1079 0.47368 0.0
C542 C 0.92299 0.11799 0.51137 0.0
C543 C 0.94609 0.10086 0.53247 0.0
H544 H 0.30131 0.71295 0.12812 0.0
H545 H 0.33856 0.61713 0.15064 0.0
H546 H 0.24438 0.68085 0.10004 0.0
H547 H 0.27966 0.58498 0.12633 0.0
H548 H 0.1843 0.53343 0.05034 0.0
H549 H 0.24375 0.56614 0.07384 0.0
H550 H 0.18739 0.6488 0.11227 0.0
H551 H 0.12885 0.61701 0.08638 0.0
C552 C 0.2975 0.68501 0.12719 0.0
C553 C 0.32506 0.66785 0.1416 0.0
C554 C 0.26422 0.66645 0.11166 0.0
C555 C 0.25689 0.63008 0.11091 0.0
C556 C 0.28427 0.61289 0.12568 0.0
C557 C 0.31798 0.63146 0.14043 0.0
C558 C 0.18486 0.55874 0.06358 0.0
C559 C 0.15205 0.57278 0.0663 0.0
C560 C 0.2189 0.57745 0.07742 0.0
C561 C 0.22076 0.61032 0.0952 0.0
C562 C 0.18761 0.62408 0.09804 0.0
C563 C 0.15383 0.60574 0.08337 0.0
H564 H 0.27645 0.39915 0.62912 0.0
H565 H 0.3525 0.42303 0.72361 0.0
H566 H 0.32523 0.42638 0.58746 0.0
H567 H 0.40169 0.44888 0.68217 0.0
H568 H 0.47711 0.51647 0.60684 0.0
H569 H 0.42297 0.49646 0.64501 0.0
H570 H 0.38222 0.41728 0.56006 0.0
H571 H 0.43569 0.43864 0.52107 0.0
C572 C 0.30348 0.41066 0.64102 0.0
C573 C 0.31038 0.40993 0.67979 0.0
C574 C 0.33161 0.4259 0.61711 0.0
C575 C 0.36749 0.44016 0.63136 0.0
C576 C 0.37425 0.43908 0.67018 0.0
C577 C 0.3461 0.42412 0.69401 0.0
C578 C 0.45622 0.49521 0.59601 0.0
C579 C 0.46065 0.47911 0.56097 0.0
C580 C 0.42533 0.48344 0.61811 0.0
C581 C 0.3983 0.45489 0.60598 0.0
C582 C 0.40217 0.43952 0.57026 0.0
C583 C 0.43295 0.45161 0.54794 0.0
H584 H 0.86087 0.76118 0.00987 0.0
H585 H 0.90529 0.75995 0.89815 0.0
H586 H 0.8988 0.71886 0.02826 0.0
H587 H 0.94259 0.71699 0.91596 0.0
H588 H 0.02922 0.66312 0.96893 0.0
H589 H 0.99556 0.70991 0.95527 0.0
H590 H 0.89999 0.65808 0.01505 0.0
H591 H 0.93393 0.61195 0.02935 0.0
C592 C 0.87854 0.75147 0.98925 0.0
C593 C 0.87966 0.76295 0.95245 0.0
C594 C 0.90018 0.72732 0.99966 0.0
C595 C 0.9235 0.71446 0.97348 0.0
C596 C 0.92516 0.72665 0.93685 0.0
C597 C 0.90357 0.75085 0.9265 0.0
C598 C 1.00117 0.66204 0.97942 0.0
C599 C 0.98404 0.63401 1.00003 0.0
C600 C 0.98183 0.68863 0.97142 0.0
C601 C 0.94506 0.68756 0.98393 0.0
C602 C 0.92841 0.65986 0.00539 0.0
C603 C 0.94775 0.63335 0.01339 0.0
H604 H 0.48184 0.76525 0.13821 0.0
H605 H 0.37185 0.79167 0.14663 0.0
H606 H 0.50594 0.82269 0.11482 0.0
H607 H 0.39591 0.84898 0.12345 0.0
H608 H 0.46926 0.95989 0.13085 0.0
H609 H 0.44198 0.90163 0.14915 0.0
H610 H 0.497 0.85846 0.0568 0.0
H611 H 0.52395 0.91693 0.03813 0.0
C612 C 0.46288 0.78335 0.13509 0.0
C613 C 0.425 0.77402 0.14422 0.0
C614 C 0.47656 0.81605 0.12142 0.0
C615 C 0.45275 0.84024 0.11725 0.0
C616 C 0.41491 0.83091 0.1265 0.0
C617 C 0.40113 0.79808 0.13958 0.0
C618 C 0.47513 0.93795 0.1142 0.0
C619 C 0.49875 0.94287 0.08317 0.0
C620 C 0.45948 0.90464 0.12463 0.0
C621 C 0.46757 0.87553 0.10454 0.0
C622 C 0.49061 0.88045 0.07299 0.0
C623 C 0.50578 0.91385 0.06217 0.0
H624 H 0.09673 0.28634 0.70623 0.0
H625 H 0.21028 0.27655 0.67929 0.0
H626 H 0.07454 0.22904 0.67702 0.0
H627 H 0.18765 0.22051 0.64853 0.0
H628 H 0.1226 0.14406 0.55653 0.0
H629 H 0.14494 0.19992 0.58898 0.0
H630 H 0.08362 0.16432 0.68735 0.0
H631 H 0.06187 0.10819 0.65533 0.0
C632 C 0.11703 0.2721 0.69439 0.0
C633 C 0.15537 0.28662 0.69487 0.0
C634 C 0.10423 0.23932 0.67746 0.0
C635 C 0.12936 0.22053 0.66013 0.0
C636 C 0.16758 0.23467 0.66108 0.0
C637 C 0.18046 0.26701 0.67857 0.0
C638 C 0.11407 0.14806 0.58515 0.0
C639 C 0.09065 0.12159 0.6034 0.0
C640 C 0.12689 0.18 0.60372 0.0
C641 C 0.11591 0.18646 0.64065 0.0
C642 C 0.09233 0.16012 0.65884 0.0
C643 C 0.08015 0.12791 0.64056 0.0
H644 H 0.66107 0.25033 0.45372 0.0
H645 H 0.76577 0.31721 0.43277 0.0
H646 H 0.63007 0.30032 0.45887 0.0
H647 H 0.73463 0.36739 0.43647 0.0
H648 H 0.67598 0.44918 0.49526 0.0
H649 H 0.70807 0.40077 0.48232 0.0
H650 H 0.60886 0.34477 0.42569 0.0
H651 H 0.57646 0.39292 0.43994 0.0
C652 C 0.67726 0.27575 0.44941 0.0
C653 C 0.71565 0.27983 0.4421 0.0
C654 C 0.65948 0.30444 0.45217 0.0
C655 C 0.67972 0.33801 0.44784 0.0
C656 C 0.71818 0.34201 0.44026 0.0
C657 C 0.73599 0.31327 0.43775 0.0
C658 C 0.66121 0.42665 0.47969 0.0
C659 C 0.62371 0.42469 0.46875 0.0
C660 C 0.67966 0.39892 0.47207 0.0
C661 C 0.66106 0.36865 0.45311 0.0
C662 C 0.62387 0.36736 0.44095 0.0
C663 C 0.60536 0.39503 0.44882 0.0
loop_
_geom_bond_atom_site_label_1
_geom_bond_atom_site_label_2
_geom_bond_distance
_geom_bond_site_symmetry_2
_ccdc_geom_bond_type
H0 C7 0.929 . S
H1 C10 0.930 . S
H2 C12 0.929 . S
H3 C4 0.969 . S
C4 H3 0.969 . S
C4 O5 1.550 . S
C4 H6 0.973 . S
O5 C4 1.550 . S
O5 C11 1.412 . S
H6 C4 0.973 . S
C7 H0 0.929 . S
C7 C8 1.400 . S
C7 C9 1.364 . S
C8 C7 1.400 . S
C8 C12 1.377 . S
C9 C7 1.364 . S
C9 C10 1.374 . S
C10 H1 0.930 . S
C10 C9 1.374 . S
C10 C11 1.383 . S
C11 O5 1.412 . S
C11 C10 1.383 . S
C11 C12 1.394 . S
C12 H2 0.929 . S
C12 C8 1.377 . S
C12 C11 1.394 . S
H13 C20 0.929 . S
H14 C23 0.930 . S
H15 C25 0.929 . S
H16 C17 0.969 . S
C17 H16 0.969 . S
C17 O18 1.550 . S
C17 H19 0.973 . S
O18 C17 1.550 . S
O18 C24 1.412 . S
H19 C17 0.973 . S
C20 H13 0.929 . S
C20 C21 1.400 . S
C20 C22 1.364 . S
C21 C20 1.400 . S
C21 C25 1.377 . S
C22 C20 1.364 . S
C22 C23 1.374 . S
C23 H14 0.930 . S
C23 C22 1.374 . S
C23 C24 1.383 . S
C24 O18 1.412 . S
C24 C23 1.383 . S
C24 C25 1.394 . S
C25 H15 0.929 . S
C25 C21 1.377 . S
C25 C24 1.394 . S
H26 C33 0.929 . S
H27 C36 0.930 . S
H28 C38 0.929 . S
H29 C30 0.969 . S
C30 H29 0.969 . S
C30 O31 1.550 . S
C30 H32 0.973 . S
O31 C30 1.550 . S
O31 C37 1.412 . S
H32 C30 0.973 . S
C33 H26 0.929 . S
C33 C34 1.400 . S
C33 C35 1.364 . S
C34 C33 1.400 . S
C34 C38 1.377 . S
C35 C33 1.364 . S
C35 C36 1.374 . S
C36 H27 0.930 . S
C36 C35 1.374 . S
C36 C37 1.383 . S
C37 O31 1.412 . S
C37 C36 1.383 . S
C37 C38 1.394 . S
C38 H28 0.929 . S
C38 C34 1.377 . S
C38 C37 1.394 . S
H39 C46 0.929 . S
H40 C49 0.930 . S
H41 C51 0.929 . S
H42 C43 0.969 . S
C43 H42 0.969 . S
C43 O44 1.550 . S
C43 H45 0.973 . S
O44 C43 1.550 . S
O44 C50 1.412 . S
H45 C43 0.973 . S
C46 H39 0.929 . S
C46 C47 1.400 . S
C46 C48 1.364 . S
C47 C46 1.400 . S
C47 C51 1.377 . S
C48 C46 1.364 . S
C48 C49 1.374 . S
C49 H40 0.930 . S
C49 C48 1.374 . S
C49 C50 1.383 . S
C50 O44 1.412 . S
C50 C49 1.383 . S
C50 C51 1.394 . S
C51 H41 0.929 . S
C51 C47 1.377 . S
C51 C50 1.394 . S
H52 C59 0.929 . S
H53 C62 0.930 . S
H54 C64 0.929 . S
H55 C56 0.969 . S
C56 H55 0.969 . S
C56 O57 1.550 . S
C56 H58 0.973 . S
O57 C56 1.550 . S
O57 C63 1.412 . S
H58 C56 0.973 . S
C59 H52 0.929 . S
C59 C60 1.400 . S
C59 C61 1.364 . S
C60 C59 1.400 . S
C60 C64 1.377 . S
C61 C59 1.364 . S
C61 C62 1.374 . S
C62 H53 0.930 . S
C62 C61 1.374 . S
C62 C63 1.383 . S
C63 O57 1.412 . S
C63 C62 1.383 . S
C63 C64 1.394 . S
C64 H54 0.929 . S
C64 C60 1.377 . S
C64 C63 1.394 . S
H65 C72 0.929 . S
H66 C75 0.930 . S
H67 C77 0.929 . S
H68 C69 0.969 . S
C69 H68 0.969 . S
C69 O70 1.550 . S
C69 H71 0.973 . S
O70 C69 1.550 . S
O70 C76 1.412 . S
H71 C69 0.973 . S
C72 H65 0.929 . S
C72 C73 1.400 . S
C72 C74 1.364 . S
C73 C72 1.400 . S
C73 C77 1.377 . S
C74 C72 1.364 . S
C74 C75 1.374 . S
C75 H66 0.930 . S
C75 C74 1.374 . S
C75 C76 1.383 . S
C76 O70 1.412 . S
C76 C75 1.383 . S
C76 C77 1.394 . S
C77 H67 0.929 . S
C77 C73 1.377 . S
C77 C76 1.394 . S
H78 C85 0.929 . S
H79 C88 0.930 . S
H80 C90 0.929 . S
H81 C82 0.969 . S
C82 H81 0.969 . S
C82 O83 1.550 . S
C82 H84 0.973 . S
O83 C82 1.550 . S
O83 C89 1.412 . S
H84 C82 0.973 . S
C85 H78 0.929 . S
C85 C86 1.400 . S
C85 C87 1.364 . S
C86 C85 1.400 . S
C86 C90 1.377 . S
C87 C85 1.364 . S
C87 C88 1.374 . S
C88 H79 0.930 . S
C88 C87 1.374 . S
C88 C89 1.383 . S
C89 O83 1.412 . S
C89 C88 1.383 . S
C89 C90 1.394 . S
C90 H80 0.929 . S
C90 C86 1.377 . S
C90 C89 1.394 . S
H91 C98 0.929 . S
H92 C101 0.930 . S
H93 C103 0.929 . S
H94 C95 0.969 . S
C95 H94 0.969 . S
C95 O96 1.550 . S
C95 H97 0.973 . S
O96 C95 1.550 . S
O96 C102 1.412 . S
H97 C95 0.973 . S
C98 H91 0.929 . S
C98 C99 1.400 . S
C98 C100 1.364 . S
C99 C98 1.400 . S
C99 C103 1.377 . S
C100 C98 1.364 . S
C100 C101 1.374 . S
C101 H92 0.930 . S
C101 C100 1.374 . S
C101 C102 1.383 . S
C102 O96 1.412 . S
C102 C101 1.383 . S
C102 C103 1.394 . S
C103 H93 0.929 . S
C103 C99 1.377 . S
C103 C102 1.394 . S
Dy104 O108 2.398 . S
Dy104 O109 2.491 . S
Dy104 O110 2.403 . S
Dy104 O111 2.664 . S
Dy104 O115 2.326 . S
Dy104 O119 2.310 1_455 S
Dy104 O120 2.351 1_545 S
C105 O116 1.185 . S
C105 O117 1.355 . S
C106 O108 1.185 . S
C106 O109 1.355 . S
Dy107 O111 2.310 1_655 S
Dy107 O114 2.351 1_655 S
Dy107 O116 2.398 1_545 S
Dy107 O117 2.491 1_545 S
Dy107 O118 2.403 . S
Dy107 O119 2.664 . S
Dy107 O121 2.326 1_545 S
O108 Dy104 2.398 . S
O108 C106 1.185 . S
O109 Dy104 2.491 . S
O109 C106 1.355 . S
O110 Dy104 2.403 . S
O110 C112 1.254 . S
O111 Dy104 2.664 . S
O111 Dy107 2.310 1_455 S
O111 C112 1.268 . S
C112 O110 1.254 . S
C112 O111 1.268 . S
C113 O118 1.254 . S
C113 O119 1.268 . S
O114 Dy107 2.351 1_455 S
O114 C122 1.249 . S
O115 Dy104 2.326 . S
O115 C122 1.267 . S
O116 C105 1.185 . S
O116 Dy107 2.398 1_565 S
O117 C105 1.355 . S
O117 Dy107 2.491 1_565 S
O118 Dy107 2.403 . S
O118 C113 1.254 . S
O119 Dy104 2.310 1_655 S
O119 Dy107 2.664 . S
O119 C113 1.268 . S
O120 Dy104 2.351 1_565 S
O120 C123 1.249 1_455 S
O121 Dy107 2.326 1_565 S
O121 C123 1.267 . S
C122 O114 1.249 . S
C122 O115 1.267 . S
C123 O120 1.249 1_655 S
C123 O121 1.267 . S
Dy124 O128 2.398 . S
Dy124 O129 2.491 . S
Dy124 O130 2.403 1_545 S
Dy124 O131 2.664 1_545 S
Dy124 O135 2.326 . S
Dy124 O139 2.310 . S
Dy124 O140 2.351 1_545 S
C125 O136 1.185 1_565 S
C125 O137 1.355 . S
C126 O128 1.185 . S
C126 O129 1.355 . S
Dy127 O131 2.310 1_546 S
Dy127 O134 2.351 1_556 S
Dy127 O136 2.398 . S
Dy127 O137 2.491 1_545 S
Dy127 O138 2.403 . S
Dy127 O139 2.664 1_556 S
Dy127 O141 2.326 1_545 S
O128 Dy124 2.398 . S
O128 C126 1.185 . S
O129 Dy124 2.491 . S
O129 C126 1.355 . S
O130 Dy124 2.403 1_565 S
O130 C132 1.254 . S
O131 Dy124 2.664 1_565 S
O131 Dy127 2.310 1_564 S
O131 C132 1.268 . S
C132 O130 1.254 . S
C132 O131 1.268 . S
C133 O138 1.254 . S
C133 O139 1.268 1_556 S
O134 Dy127 2.351 1_554 S
O134 C142 1.249 . S
O135 Dy124 2.326 . S
O135 C142 1.267 . S
O136 C125 1.185 1_545 S
O136 Dy127 2.398 . S
O137 C125 1.355 . S
O137 Dy127 2.491 1_565 S
O138 Dy127 2.403 . S
O138 C133 1.254 . S
O139 Dy124 2.310 . S
O139 Dy127 2.664 1_554 S
O139 C133 1.268 1_554 S
O140 Dy124 2.351 1_565 S
O140 C143 1.249 1_554 S
O141 Dy127 2.326 1_565 S
O141 C143 1.267 . S
C142 O134 1.249 . S
C142 O135 1.267 . S
C143 O140 1.249 1_556 S
C143 O141 1.267 . S
Dy144 O148 2.398 . S
Dy144 O149 2.491 . S
Dy144 O150 2.403 . S
Dy144 O151 2.664 . S
Dy144 O155 2.326 . S
Dy144 O159 2.310 . S
Dy144 O160 2.351 . S
C145 O156 1.185 . S
C145 O157 1.355 . S
C146 O148 1.185 . S
C146 O149 1.355 . S
Dy147 O151 2.310 . S
Dy147 O154 2.351 . S
Dy147 O156 2.398 . S
Dy147 O157 2.491 . S
Dy147 O158 2.403 . S
Dy147 O159 2.664 . S
Dy147 O161 2.326 . S
O148 Dy144 2.398 . S
O148 C146 1.185 . S
O149 Dy144 2.491 . S
O149 C146 1.355 . S
O150 Dy144 2.403 . S
O150 C152 1.254 . S
O151 Dy144 2.664 . S
O151 Dy147 2.310 . S
O151 C152 1.268 . S
C152 O150 1.254 . S
C152 O151 1.268 . S
C153 O158 1.254 . S
C153 O159 1.268 . S
O154 Dy147 2.351 . S
O154 C162 1.249 . S
O155 Dy144 2.326 . S
O155 C162 1.267 . S
O156 C145 1.185 . S
O156 Dy147 2.398 . S
O157 C145 1.355 . S
O157 Dy147 2.491 . S
O158 Dy147 2.403 . S
O158 C153 1.254 . S
O159 Dy144 2.310 . S
O159 Dy147 2.664 . S
O159 C153 1.268 . S
O160 Dy144 2.351 . S
O160 C163 1.249 . S
O161 Dy147 2.326 . S
O161 C163 1.267 . S
C162 O154 1.249 . S
C162 O155 1.267 . S
C163 O160 1.249 . S
C163 O161 1.267 . S
Dy164 O168 2.398 . S
Dy164 O169 2.491 . S
Dy164 O170 2.403 . S
Dy164 O171 2.664 . S
Dy164 O175 2.326 . S
Dy164 O179 2.310 . S
Dy164 O180 2.351 1_455 S
C165 O176 1.204 . S
C165 O177 1.355 1_556 S
C166 O168 1.185 . S
C166 O169 1.355 . S
Dy167 O171 2.310 . S
Dy167 O174 2.351 . S
Dy167 O176 2.386 1_454 S
Dy167 O177 2.491 1_455 S
Dy167 O178 2.403 1_554 S
Dy167 O179 2.664 . S
Dy167 O181 2.326 1_454 S
O168 Dy164 2.398 . S
O168 C166 1.185 . S
O169 Dy164 2.491 . S
O169 C166 1.355 . S
O170 Dy164 2.403 . S
O170 C172 1.254 . S
O171 Dy164 2.664 . S
O171 Dy167 2.310 . S
O171 C172 1.268 . S
C172 O170 1.254 . S
C172 O171 1.268 . S
C173 O178 1.254 . S
C173 O179 1.268 1_556 S
O174 Dy167 2.351 . S
O174 C182 1.249 . S
O175 Dy164 2.326 . S
O175 C182 1.267 . S
O176 C165 1.204 . S
O176 Dy167 2.386 1_656 S
O177 C165 1.355 1_554 S
O177 Dy167 2.491 1_655 S
O178 Dy167 2.403 1_556 S
O178 C173 1.254 . S
O179 Dy164 2.310 . S
O179 Dy167 2.664 . S
O179 C173 1.268 1_554 S
O180 Dy164 2.351 1_655 S
O180 C183 1.249 . S
O181 Dy167 2.326 1_656 S
O181 C183 1.267 1_556 S
C182 O174 1.249 . S
C182 O175 1.267 . S
C183 O180 1.249 . S
C183 O181 1.267 1_554 S
H184 C192 0.950 . S
H185 C197 0.950 . S
H186 C194 0.950 . S
H187 C196 0.950 . S
H188 C198 0.950 . S
H189 C200 0.950 . S
H190 C202 0.950 . S
H191 C203 0.950 . S
C192 H184 0.950 . S
C192 C193 1.386 . S
C192 C194 1.391 . S
C193 C192 1.386 . S
C193 C197 1.393 . S
C194 H186 0.950 . S
C194 C192 1.391 . S
C194 C195 1.400 . S
C195 C194 1.400 . S
C195 C196 1.398 . S
C195 C201 1.491 . S
C196 H187 0.950 . S
C196 C195 1.398 . S
C196 C197 1.391 . S
C197 H185 0.950 . S
C197 C193 1.393 . S
C197 C196 1.391 . S
C198 H188 0.950 . S
C198 C199 1.386 . S
C198 C200 1.391 . S
C199 C198 1.386 . S
C199 C203 1.393 . S
C200 H189 0.950 . S
C200 C198 1.391 . S
C200 C201 1.400 . S
C201 C195 1.491 . S
C201 C200 1.400 . S
C201 C202 1.398 . S
C202 H190 0.950 . S
C202 C201 1.398 . S
C202 C203 1.391 . S
C203 H191 0.950 . S
C203 C199 1.393 . S
C203 C202 1.391 . S
H204 C212 0.950 . S
H205 C217 0.950 . S
H206 C214 0.950 . S
H207 C216 0.950 . S
H208 C218 0.950 . S
H209 C220 0.950 . S
H210 C222 0.950 . S
H211 C223 0.950 . S
C212 H204 0.950 . S
C212 C213 1.386 . S
C212 C214 1.391 . S
C213 C212 1.386 . S
C213 C217 1.393 . S
C214 H206 0.950 . S
C214 C212 1.391 . S
C214 C215 1.400 . S
C215 C214 1.400 . S
C215 C216 1.398 . S
C215 C221 1.491 . S
C216 H207 0.950 . S
C216 C215 1.398 . S
C216 C217 1.391 . S
C217 H205 0.950 . S
C217 C213 1.393 . S
C217 C216 1.391 . S
C218 H208 0.950 . S
C218 C219 1.386 . S
C218 C220 1.391 . S
C219 C218 1.386 . S
C219 C223 1.393 . S
C220 H209 0.950 . S
C220 C218 1.391 . S
C220 C221 1.400 . S
C221 C215 1.491 . S
C221 C220 1.400 . S
C221 C222 1.398 . S
C222 H210 0.950 . S
C222 C221 1.398 . S
C222 C223 1.391 . S
C223 H211 0.950 . S
C223 C219 1.393 . S
C223 C222 1.391 . S
H224 C232 0.950 . S
H225 C237 0.950 . S
H226 C234 0.950 . S
H227 C236 0.950 . S
H228 C238 0.950 . S
H229 C240 0.950 . S
H230 C242 0.950 . S
H231 C243 0.950 . S
C232 H224 0.950 . S
C232 C233 1.386 . S
C232 C234 1.391 . S
C233 C232 1.386 . S
C233 C237 1.393 . S
C234 H226 0.950 . S
C234 C232 1.391 . S
C234 C235 1.400 . S
C235 C234 1.400 . S
C235 C236 1.398 . S
C235 C241 1.491 . S
C236 H227 0.950 . S
C236 C235 1.398 . S
C236 C237 1.391 . S
C237 H225 0.950 . S
C237 C233 1.393 . S
C237 C236 1.391 . S
C238 H228 0.950 . S
C238 C239 1.386 . S
C238 C240 1.391 . S
C239 C238 1.386 . S
C239 C243 1.393 . S
C240 H229 0.950 . S
C240 C238 1.391 . S
C240 C241 1.400 . S
C241 C235 1.491 . S
C241 C240 1.400 . S
C241 C242 1.398 . S
C242 H230 0.950 . S
C242 C241 1.398 . S
C242 C243 1.391 . S
C243 H231 0.950 . S
C243 C239 1.393 . S
C243 C242 1.391 . S
H244 C252 0.950 . S
H245 C257 0.950 . S
H246 C254 0.950 . S
H247 C256 0.950 1_455 S
H248 C258 0.950 . S
H249 C260 0.950 . S
H250 C262 0.950 . S
H251 C263 0.950 . S
C252 H244 0.950 . S
C252 C253 1.386 . S
C252 C254 1.391 . S
C253 C252 1.386 . S
C253 C257 1.393 . S
C254 H246 0.950 . S
C254 C252 1.391 . S
C254 C255 1.400 . S
C255 C254 1.400 . S
C255 C256 1.398 . S
C255 C261 1.491 . S
C256 H247 0.950 1_655 S
C256 C255 1.398 . S
C256 C257 1.391 . S
C257 H245 0.950 . S
C257 C253 1.393 . S
C257 C256 1.391 . S
C258 H248 0.950 . S
C258 C259 1.386 1_455 S
C258 C260 1.391 . S
C259 C258 1.386 1_655 S
C259 C263 1.393 . S
C260 H249 0.950 . S
C260 C258 1.391 . S
C260 C261 1.400 1_455 S
C261 C255 1.491 . S
C261 C260 1.400 1_655 S
C261 C262 1.398 . S
C262 H250 0.950 . S
C262 C261 1.398 . S
C262 C263 1.391 . S
C263 H251 0.950 . S
C263 C259 1.393 . S
C263 C262 1.391 . S
H264 C272 0.950 . S
H265 C277 0.950 . S
H266 C274 0.950 . S
H267 C276 0.950 . S
H268 C278 0.950 . S
H269 C280 0.950 . S
H270 C282 0.950 . S
H271 C283 0.950 . S
C272 H264 0.950 . S
C272 C273 1.386 . S
C272 C274 1.391 . S
C273 C272 1.386 . S
C273 C277 1.393 . S
C274 H266 0.950 . S
C274 C272 1.391 . S
C274 C275 1.400 . S
C275 C274 1.400 . S
C275 C276 1.398 . S
C275 C281 1.491 . S
C276 H267 0.950 . S
C276 C275 1.398 . S
C276 C277 1.391 . S
C277 H265 0.950 . S
C277 C273 1.393 . S
C277 C276 1.391 . S
C278 H268 0.950 . S
C278 C279 1.386 . S
C278 C280 1.391 . S
C279 C278 1.386 . S
C279 C283 1.393 . S
C280 H269 0.950 . S
C280 C278 1.391 . S
C280 C281 1.400 . S
C281 C275 1.491 . S
C281 C280 1.400 . S
C281 C282 1.398 . S
C282 H270 0.950 . S
C282 C281 1.398 . S
C282 C283 1.391 . S
C283 H271 0.950 . S
C283 C279 1.393 . S
C283 C282 1.391 . S
H284 C292 0.950 . S
H285 C297 0.950 . S
H286 C294 0.950 . S
H287 C296 0.950 . S
H288 C298 0.950 1_545 S
H289 C300 0.950 . S
H290 C302 0.950 . S
H291 C303 0.950 . S
C292 H284 0.950 . S
C292 C293 1.386 . S
C292 C294 1.391 . S
C293 C292 1.386 . S
C293 C297 1.393 . S
C294 H286 0.950 . S
C294 C292 1.391 . S
C294 C295 1.400 . S
C295 C294 1.400 . S
C295 C296 1.398 . S
C295 C301 1.491 . S
C296 H287 0.950 . S
C296 C295 1.398 . S
C296 C297 1.391 . S
C297 H285 0.950 . S
C297 C293 1.393 . S
C297 C296 1.391 . S
C298 H288 0.950 1_565 S
C298 C299 1.386 . S
C298 C300 1.391 . S
C299 C298 1.386 . S
C299 C303 1.393 . S
C300 H289 0.950 . S
C300 C298 1.391 . S
C300 C301 1.400 . S
C301 C295 1.491 . S
C301 C300 1.400 . S
C301 C302 1.398 . S
C302 H290 0.950 . S
C302 C301 1.398 . S
C302 C303 1.391 . S
C303 H291 0.950 . S
C303 C299 1.393 . S
C303 C302 1.391 . S
H304 C312 0.950 . S
H305 C317 0.950 . S
H306 C314 0.950 . S
H307 C316 0.950 . S
H308 C318 0.950 . S
H309 C320 0.950 . S
H310 C322 0.950 1_554 S
H311 C323 0.950 . S
C312 H304 0.950 . S
C312 C313 1.386 . S
C312 C314 1.391 . S
C313 C312 1.386 . S
C313 C317 1.393 . S
C314 H306 0.950 . S
C314 C312 1.391 . S
C314 C315 1.400 . S
C315 C314 1.400 . S
C315 C316 1.398 . S
C315 C321 1.491 . S
C316 H307 0.950 . S
C316 C315 1.398 . S
C316 C317 1.391 . S
C317 H305 0.950 . S
C317 C313 1.393 . S
C317 C316 1.391 . S
C318 H308 0.950 . S
C318 C319 1.362 1_556 S
C318 C320 1.391 . S
C319 C318 1.362 1_554 S
C319 C323 1.404 . S
C320 H309 0.950 . S
C320 C318 1.391 . S
C320 C321 1.400 . S
C321 C315 1.491 . S
C321 C320 1.400 . S
C321 C322 1.398 . S
C322 H310 0.950 1_556 S
C322 C321 1.398 . S
C322 C323 1.391 1_556 S
C323 H311 0.950 . S
C323 C319 1.404 . S
C323 C322 1.391 1_554 S
H324 C332 0.950 . S
H325 C337 0.950 . S
H326 C334 0.950 . S
H327 C336 0.950 . S
H328 C338 0.950 . S
H329 C340 0.950 . S
H330 C342 0.950 . S
H331 C343 0.950 . S
C332 H324 0.950 . S
C332 C333 1.386 . S
C332 C334 1.391 . S
C333 C332 1.386 . S
C333 C337 1.393 . S
C334 H326 0.950 . S
C334 C332 1.391 . S
C334 C335 1.400 . S
C335 C334 1.400 . S
C335 C336 1.398 . S
C335 C341 1.491 . S
C336 H327 0.950 . S
C336 C335 1.398 . S
C336 C337 1.391 . S
C337 H325 0.950 . S
C337 C333 1.393 . S
C337 C336 1.391 . S
C338 H328 0.950 . S
C338 C339 1.386 . S
C338 C340 1.391 . S
C339 C338 1.386 . S
C339 C343 1.393 . S
C340 H329 0.950 . S
C340 C338 1.391 . S
C340 C341 1.400 . S
C341 C335 1.491 . S
C341 C340 1.400 . S
C341 C342 1.398 . S
C342 H330 0.950 . S
C342 C341 1.398 . S
C342 C343 1.391 . S
C343 H331 0.950 . S
C343 C339 1.393 . S
C343 C342 1.391 . S
H344 C352 0.950 . S
H345 C357 0.950 . S
H346 C354 0.950 . S
H347 C356 0.950 . S
H348 C358 0.950 . S
H349 C360 0.950 . S
H350 C362 0.950 . S
H351 C363 0.950 . S
C352 H344 0.950 . S
C352 C353 1.386 . S
C352 C354 1.391 . S
C353 C352 1.386 . S
C353 C357 1.393 . S
C354 H346 0.950 . S
C354 C352 1.391 . S
C354 C355 1.400 . S
C355 C354 1.400 . S
C355 C356 1.398 . S
C355 C361 1.491 . S
C356 H347 0.950 . S
C356 C355 1.398 . S
C356 C357 1.391 . S
C357 H345 0.950 . S
C357 C353 1.393 . S
C357 C356 1.391 . S
C358 H348 0.950 . S
C358 C359 1.386 . S
C358 C360 1.391 . S
C359 C358 1.386 . S
C359 C363 1.393 . S
C360 H349 0.950 . S
C360 C358 1.391 . S
C360 C361 1.400 . S
C361 C355 1.491 . S
C361 C360 1.400 . S
C361 C362 1.398 . S
C362 H350 0.950 . S
C362 C361 1.398 . S
C362 C363 1.391 . S
C363 H351 0.950 . S
C363 C359 1.393 . S
C363 C362 1.391 . S
H364 C372 0.950 . S
H365 C377 0.950 . S
H366 C374 0.950 . S
H367 C376 0.950 . S
H368 C378 0.950 1_554 S
H369 C380 0.950 . S
H370 C382 0.950 . S
H371 C383 0.950 . S
C372 H364 0.950 . S
C372 C373 1.386 . S
C372 C374 1.391 . S
C373 C372 1.386 . S
C373 C377 1.393 . S
C374 H366 0.950 . S
C374 C372 1.391 . S
C374 C375 1.400 . S
C375 C374 1.400 . S
C375 C376 1.398 . S
C375 C381 1.491 . S
C376 H367 0.950 . S
C376 C375 1.398 . S
C376 C377 1.391 . S
C377 H365 0.950 . S
C377 C373 1.393 . S
C377 C376 1.391 . S
C378 H368 0.950 1_556 S
C378 C379 1.386 . S
C378 C380 1.391 . S
C379 C378 1.386 . S
C379 C383 1.393 . S
C380 H369 0.950 . S
C380 C378 1.391 . S
C380 C381 1.400 . S
C381 C375 1.491 . S
C381 C380 1.400 . S
C381 C382 1.398 . S
C382 H370 0.950 . S
C382 C381 1.398 . S
C382 C383 1.391 . S
C383 H371 0.950 . S
C383 C379 1.393 . S
C383 C382 1.391 . S
H384 C392 0.950 . S
H385 C397 0.950 . S
H386 C394 0.950 . S
H387 C396 0.950 . S
H388 C398 0.950 . S
H389 C400 0.950 . S
H390 C402 0.955 . S
H391 C403 0.950 1_455 S
C392 H384 0.950 . S
C392 C393 1.386 . S
C392 C394 1.391 . S
C393 C392 1.386 . S
C393 C397 1.393 . S
C394 H386 0.950 . S
C394 C392 1.391 . S
C394 C395 1.400 . S
C395 C394 1.400 . S
C395 C396 1.398 . S
C395 C401 1.491 . S
C396 H387 0.950 . S
C396 C395 1.398 . S
C396 C397 1.391 . S
C397 H385 0.950 . S
C397 C393 1.393 . S
C397 C396 1.391 . S
C398 H388 0.950 . S
C398 C399 1.386 . S
C398 C400 1.391 . S
C399 C398 1.386 . S
C399 C403 1.393 . S
C400 H389 0.950 . S
C400 C398 1.391 . S
C400 C401 1.400 . S
C401 C395 1.491 . S
C401 C400 1.400 . S
C401 C402 1.398 . S
C402 H390 0.955 . S
C402 C401 1.398 . S
C402 C403 1.391 . S
C403 H391 0.950 1_655 S
C403 C399 1.393 . S
C403 C402 1.391 . S
H404 C412 0.950 . S
H405 C417 0.950 . S
H406 C414 0.950 . S
H407 C416 0.950 . S
H408 C418 0.950 . S
H409 C420 0.950 . S
H410 C422 0.950 . S
H411 C423 0.950 . S
C412 H404 0.950 . S
C412 C413 1.386 . S
C412 C414 1.391 . S
C413 C412 1.386 . S
C413 C417 1.393 . S
C414 H406 0.950 . S
C414 C412 1.391 . S
C414 C415 1.400 . S
C415 C414 1.400 . S
C415 C416 1.398 . S
C415 C421 1.491 . S
C416 H407 0.950 . S
C416 C415 1.398 . S
C416 C417 1.391 . S
C417 H405 0.950 . S
C417 C413 1.393 . S
C417 C416 1.391 . S
C418 H408 0.950 . S
C418 C419 1.386 . S
C418 C420 1.391 . S
C419 C418 1.386 . S
C419 C423 1.393 . S
C420 H409 0.950 . S
C420 C418 1.391 . S
C420 C421 1.400 . S
C421 C415 1.491 . S
C421 C420 1.400 . S
C421 C422 1.398 . S
C422 H410 0.950 . S
C422 C421 1.398 . S
C422 C423 1.391 . S
C423 H411 0.950 . S
C423 C419 1.393 . S
C423 C422 1.391 . S
H424 C432 0.950 . S
H425 C437 0.950 . S
H426 C434 0.950 . S
H427 C436 0.950 . S
H428 C438 0.950 . S
H429 C440 0.950 . S
H430 C442 0.950 . S
H431 C443 0.950 . S
C432 H424 0.950 . S
C432 C433 1.386 . S
C432 C434 1.391 . S
C433 C432 1.386 . S
C433 C437 1.393 . S
C434 H426 0.950 . S
C434 C432 1.391 . S
C434 C435 1.400 . S
C435 C434 1.400 . S
C435 C436 1.398 . S
C435 C441 1.491 . S
C436 H427 0.950 . S
C436 C435 1.398 . S
C436 C437 1.391 . S
C437 H425 0.950 . S
C437 C433 1.393 . S
C437 C436 1.391 . S
C438 H428 0.950 . S
C438 C439 1.386 . S
C438 C440 1.391 . S
C439 C438 1.386 . S
C439 C443 1.393 . S
C440 H429 0.950 . S
C440 C438 1.391 . S
C440 C441 1.400 . S
C441 C435 1.491 . S
C441 C440 1.400 . S
C441 C442 1.398 . S
C442 H430 0.950 . S
C442 C441 1.398 . S
C442 C443 1.391 . S
C443 H431 0.950 . S
C443 C439 1.393 . S
C443 C442 1.391 . S
H444 C452 0.950 . S
H445 C457 0.950 . S
H446 C454 0.950 . S
H447 C456 0.950 . S
H448 C458 0.950 . S
H449 C460 0.950 . S
H450 C462 0.950 . S
H451 C463 0.950 . S
C452 H444 0.950 . S
C452 C453 1.386 . S
C452 C454 1.391 . S
C453 C452 1.386 . S
C453 C457 1.393 . S
C454 H446 0.950 . S
C454 C452 1.391 . S
C454 C455 1.400 . S
C455 C454 1.400 . S
C455 C456 1.398 . S
C455 C461 1.491 . S
C456 H447 0.950 . S
C456 C455 1.398 . S
C456 C457 1.391 . S
C457 H445 0.950 . S
C457 C453 1.393 . S
C457 C456 1.391 . S
C458 H448 0.950 . S
C458 C459 1.386 . S
C458 C460 1.391 . S
C459 C458 1.386 . S
C459 C463 1.393 . S
C460 H449 0.950 . S
C460 C458 1.391 . S
C460 C461 1.400 . S
C461 C455 1.491 . S
C461 C460 1.400 . S
C461 C462 1.398 . S
C462 H450 0.950 . S
C462 C461 1.398 . S
C462 C463 1.391 . S
C463 H451 0.950 . S
C463 C459 1.393 . S
C463 C462 1.391 . S
H464 C472 0.950 . S
H465 C477 0.950 . S
H466 C474 0.950 . S
H467 C476 0.950 . S
H468 C478 0.950 . S
H469 C480 0.950 . S
H470 C482 0.950 . S
H471 C483 0.950 . S
C472 H464 0.950 . S
C472 C473 1.386 . S
C472 C474 1.391 . S
C473 C472 1.386 . S
C473 C477 1.393 . S
C474 H466 0.950 . S
C474 C472 1.391 . S
C474 C475 1.400 . S
C475 C474 1.400 . S
C475 C476 1.398 . S
C475 C481 1.491 . S
C476 H467 0.950 . S
C476 C475 1.398 . S
C476 C477 1.391 . S
C477 H465 0.950 . S
C477 C473 1.393 . S
C477 C476 1.391 . S
C478 H468 0.950 . S
C478 C479 1.386 . S
C478 C480 1.391 . S
C479 C478 1.386 . S
C479 C483 1.393 . S
C480 H469 0.950 . S
C480 C478 1.391 . S
C480 C481 1.400 . S
C481 C475 1.491 . S
C481 C480 1.400 . S
C481 C482 1.398 . S
C482 H470 0.950 . S
C482 C481 1.398 . S
C482 C483 1.391 . S
C483 H471 0.950 . S
C483 C479 1.393 . S
C483 C482 1.391 . S
H484 C492 0.950 . S
H485 C497 0.950 . S
H486 C494 0.950 . S
H487 C496 0.950 . S
H488 C498 0.950 . S
H489 C500 0.950 . S
H490 C502 0.950 . S
H491 C503 0.950 . S
C492 H484 0.950 . S
C492 C493 1.386 . S
C492 C494 1.391 . S
C493 C492 1.386 . S
C493 C497 1.393 . S
C494 H486 0.950 . S
C494 C492 1.391 . S
C494 C495 1.400 . S
C495 C494 1.400 . S
C495 C496 1.398 . S
C495 C501 1.491 . S
C496 H487 0.950 . S
C496 C495 1.398 . S
C496 C497 1.391 . S
C497 H485 0.950 . S
C497 C493 1.393 . S
C497 C496 1.391 . S
C498 H488 0.950 . S
C498 C499 1.386 . S
C498 C500 1.391 . S
C499 C498 1.386 . S
C499 C503 1.393 . S
C500 H489 0.950 . S
C500 C498 1.391 . S
C500 C501 1.400 . S
C501 C495 1.491 . S
C501 C500 1.400 . S
C501 C502 1.398 . S
C502 H490 0.950 . S
C502 C501 1.398 . S
C502 C503 1.391 . S
C503 H491 0.950 . S
C503 C499 1.393 . S
C503 C502 1.391 . S
H504 C512 0.950 . S
H505 C517 0.950 . S
H506 C514 0.950 . S
H507 C516 0.950 . S
H508 C518 0.950 . S
H509 C520 0.950 . S
H510 C522 0.950 . S
H511 C523 0.950 . S
C512 H504 0.950 . S
C512 C513 1.386 . S
C512 C514 1.391 . S
C513 C512 1.386 . S
C513 C517 1.393 . S
C514 H506 0.950 . S
C514 C512 1.391 . S
C514 C515 1.400 . S
C515 C514 1.400 . S
C515 C516 1.398 . S
C515 C521 1.491 . S
C516 H507 0.950 . S
C516 C515 1.398 . S
C516 C517 1.391 . S
C517 H505 0.950 . S
C517 C513 1.393 . S
C517 C516 1.391 . S
C518 H508 0.950 . S
C518 C519 1.386 . S
C518 C520 1.391 . S
C519 C518 1.386 . S
C519 C523 1.393 . S
C520 H509 0.950 . S
C520 C518 1.391 . S
C520 C521 1.400 . S
C521 C515 1.491 . S
C521 C520 1.400 . S
C521 C522 1.398 . S
C522 H510 0.950 . S
C522 C521 1.398 . S
C522 C523 1.391 . S
C523 H511 0.950 . S
C523 C519 1.393 . S
C523 C522 1.391 . S
H524 C532 0.950 . S
H525 C537 0.950 . S
H526 C534 0.950 . S
H527 C536 0.950 . S
H528 C538 0.950 . S
H529 C540 0.950 . S
H530 C542 0.950 . S
H531 C543 0.950 . S
C532 H524 0.950 . S
C532 C533 1.386 . S
C532 C534 1.391 . S
C533 C532 1.386 . S
C533 C537 1.393 . S
C534 H526 0.950 . S
C534 C532 1.391 . S
C534 C535 1.400 . S
C535 C534 1.400 . S
C535 C536 1.398 . S
C535 C541 1.491 . S
C536 H527 0.950 . S
C536 C535 1.398 . S
C536 C537 1.391 . S
C537 H525 0.950 . S
C537 C533 1.393 . S
C537 C536 1.391 . S
C538 H528 0.950 . S
C538 C539 1.386 . S
C538 C540 1.391 . S
C539 C538 1.386 . S
C539 C543 1.393 . S
C540 H529 0.950 . S
C540 C538 1.391 . S
C540 C541 1.400 . S
C541 C535 1.491 . S
C541 C540 1.400 . S
C541 C542 1.398 . S
C542 H530 0.950 . S
C542 C541 1.398 . S
C542 C543 1.391 . S
C543 H531 0.950 . S
C543 C539 1.393 . S
C543 C542 1.391 . S
H544 C552 0.950 . S
H545 C557 0.950 . S
H546 C554 0.950 . S
H547 C556 0.950 . S
H548 C558 0.950 . S
H549 C560 0.950 . S
H550 C562 0.950 . S
H551 C563 0.950 . S
C552 H544 0.950 . S
C552 C553 1.386 . S
C552 C554 1.391 . S
C553 C552 1.386 . S
C553 C557 1.393 . S
C554 H546 0.950 . S
C554 C552 1.391 . S
C554 C555 1.400 . S
C555 C554 1.400 . S
C555 C556 1.398 . S
C555 C561 1.491 . S
C556 H547 0.950 . S
C556 C555 1.398 . S
C556 C557 1.391 . S
C557 H545 0.950 . S
C557 C553 1.393 . S
C557 C556 1.391 . S
C558 H548 0.950 . S
C558 C559 1.386 . S
C558 C560 1.391 . S
C559 C558 1.386 . S
C559 C563 1.393 . S
C560 H549 0.950 . S
C560 C558 1.391 . S
C560 C561 1.400 . S
C561 C555 1.491 . S
C561 C560 1.400 . S
C561 C562 1.398 . S
C562 H550 0.950 . S
C562 C561 1.398 . S
C562 C563 1.391 . S
C563 H551 0.950 . S
C563 C559 1.393 . S
C563 C562 1.391 . S
H564 C572 0.950 . S
H565 C577 0.950 . S
H566 C574 0.950 . S
H567 C576 0.950 . S
H568 C578 0.950 . S
H569 C580 0.950 . S
H570 C582 0.950 . S
H571 C583 0.950 . S
C572 H564 0.950 . S
C572 C573 1.386 . S
C572 C574 1.391 . S
C573 C572 1.386 . S
C573 C577 1.393 . S
C574 H566 0.950 . S
C574 C572 1.391 . S
C574 C575 1.400 . S
C575 C574 1.400 . S
C575 C576 1.398 . S
C575 C581 1.491 . S
C576 H567 0.950 . S
C576 C575 1.398 . S
C576 C577 1.391 . S
C577 H565 0.950 . S
C577 C573 1.393 . S
C577 C576 1.391 . S
C578 H568 0.950 . S
C578 C579 1.386 . S
C578 C580 1.391 . S
C579 C578 1.386 . S
C579 C583 1.393 . S
C580 H569 0.950 . S
C580 C578 1.391 . S
C580 C581 1.400 . S
C581 C575 1.491 . S
C581 C580 1.400 . S
C581 C582 1.398 . S
C582 H570 0.950 . S
C582 C581 1.398 . S
C582 C583 1.391 . S
C583 H571 0.950 . S
C583 C579 1.393 . S
C583 C582 1.391 . S
H584 C592 0.950 . S
H585 C597 0.950 . S
H586 C594 0.950 . S
H587 C596 0.950 . S
H588 C598 0.950 . S
H589 C600 0.950 . S
H590 C602 0.950 . S
H591 C603 0.950 1_554 S
C592 H584 0.950 . S
C592 C593 1.386 . S
C592 C594 1.391 . S
C593 C592 1.386 . S
C593 C597 1.393 . S
C594 H586 0.950 . S
C594 C592 1.391 . S
C594 C595 1.400 . S
C595 C594 1.400 . S
C595 C596 1.398 . S
C595 C601 1.491 . S
C596 H587 0.950 . S
C596 C595 1.398 . S
C596 C597 1.391 . S
C597 H585 0.950 . S
C597 C593 1.393 . S
C597 C596 1.391 . S
C598 H588 0.950 . S
C598 C599 1.386 . S
C598 C600 1.391 . S
C599 C598 1.386 . S
C599 C603 1.393 . S
C600 H589 0.950 . S
C600 C598 1.391 . S
C600 C601 1.400 . S
C601 C595 1.491 . S
C601 C600 1.400 . S
C601 C602 1.398 . S
C602 H590 0.950 . S
C602 C601 1.398 . S
C602 C603 1.391 . S
C603 H591 0.950 1_556 S
C603 C599 1.393 . S
C603 C602 1.391 . S
H604 C612 0.950 . S
H605 C617 0.950 . S
H606 C614 0.950 . S
H607 C616 0.950 . S
H608 C618 0.950 . S
H609 C620 0.950 . S
H610 C622 0.950 . S
H611 C623 0.950 . S
C612 H604 0.950 . S
C612 C613 1.386 . S
C612 C614 1.391 . S
C613 C612 1.386 . S
C613 C617 1.393 . S
C614 H606 0.950 . S
C614 C612 1.391 . S
C614 C615 1.400 . S
C615 C614 1.400 . S
C615 C616 1.398 . S
C615 C621 1.491 . S
C616 H607 0.950 . S
C616 C615 1.398 . S
C616 C617 1.391 . S
C617 H605 0.950 . S
C617 C613 1.393 . S
C617 C616 1.391 . S
C618 H608 0.950 . S
C618 C619 1.386 . S
C618 C620 1.391 . S
C619 C618 1.386 . S
C619 C623 1.393 . S
C620 H609 0.950 . S
C620 C618 1.391 . S
C620 C621 1.400 . S
C621 C615 1.491 . S
C621 C620 1.400 . S
C621 C622 1.398 . S
C622 H610 0.950 . S
C622 C621 1.398 . S
C622 C623 1.391 . S
C623 H611 0.950 . S
C623 C619 1.393 . S
C623 C622 1.391 . S
H624 C632 0.950 . S
H625 C637 0.950 . S
H626 C634 0.950 . S
H627 C636 0.950 . S
H628 C638 0.950 . S
H629 C640 0.950 . S
H630 C642 0.950 . S
H631 C643 0.950 . S
C632 H624 0.950 . S
C632 C633 1.386 . S
C632 C634 1.391 . S
C633 C632 1.386 . S
C633 C637 1.393 . S
C634 H626 0.950 . S
C634 C632 1.391 . S
C634 C635 1.400 . S
C635 C634 1.400 . S
C635 C636 1.398 . S
C635 C641 1.491 . S
C636 H627 0.950 . S
C636 C635 1.398 . S
C636 C637 1.391 . S
C637 H625 0.950 . S
C637 C633 1.393 . S
C637 C636 1.391 . S
C638 H628 0.950 . S
C638 C639 1.386 . S
C638 C640 1.391 . S
C639 C638 1.386 . S
C639 C643 1.393 . S
C640 H629 0.950 . S
C640 C638 1.391 . S
C640 C641 1.400 . S
C641 C635 1.491 . S
C641 C640 1.400 . S
C641 C642 1.398 . S
C642 H630 0.950 . S
C642 C641 1.398 . S
C642 C643 1.391 . S
C643 H631 0.950 . S
C643 C639 1.393 . S
C643 C642 1.391 . S
H644 C652 0.950 . S
H645 C657 0.950 . S
H646 C654 0.950 . S
H647 C656 0.950 . S
H648 C658 0.950 . S
H649 C660 0.950 . S
H650 C662 0.950 . S
H651 C663 0.950 . S
C652 H644 0.950 . S
C652 C653 1.386 . S
C652 C654 1.391 . S
C653 C652 1.386 . S
C653 C657 1.393 . S
C654 H646 0.950 . S
C654 C652 1.391 . S
C654 C655 1.400 . S
C655 C654 1.400 . S
C655 C656 1.398 . S
C655 C661 1.491 . S
C656 H647 0.950 . S
C656 C655 1.398 . S
C656 C657 1.391 . S
C657 H645 0.950 . S
C657 C653 1.393 . S
C657 C656 1.391 . S
C658 H648 0.950 . S
C658 C659 1.386 . S
C658 C660 1.391 . S
C659 C658 1.386 . S
C659 C663 1.393 . S
C660 H649 0.950 . S
C660 C658 1.391 . S
C660 C661 1.400 . S
C661 C655 1.491 . S
C661 C660 1.400 . S
C661 C662 1.398 . S
C662 H650 0.950 . S
C662 C661 1.398 . S
C662 C663 1.391 . S
C663 H651 0.950 . S
C663 C659 1.393 . S
C663 C662 1.391 . S
C193 C9 1.733 . S
C199 C106 1.728 . S
C213 C21 1.424 . S
C219 C125 1.387 . S
C239 C162 1.477 . S
C233 C30 1.491 . S
C253 C43 1.467 . S
C259 C172 1.518 1_655 S
C279 C142 1.736 . S
C273 C4 1.618 . S
C299 C112 1.922 1_565 S
C293 C22 1.999 . S
C319 C183 1.213 . S
C313 C34 1.224 . S
C339 C153 1.283 . S
C333 C48 1.284 . S
C353 C8 1.675 . S
C359 C166 1.679 . S
C379 C133 1.694 . S
C373 C35 1.753 . S
C393 C47 1.879 . S
C399 C123 1.884 . S
C413 C17 1.160 . S
C419 C145 1.161 . S
C439 C105 1.421 . S
C433 C60 1.422 . S
C453 C74 1.538 . S
C459 C126 1.513 . S
C473 C82 1.278 . S
C479 C163 1.299 . S
C493 C100 1.978 . S
C499 C173 1.926 . S
C513 C61 2.133 . S
C519 C143 2.185 . S
C539 C113 1.488 . S
C533 C73 1.523 . S
C559 C182 1.704 . S
C553 C87 1.747 . S
C579 C152 1.050 . S
C573 C95 1.025 . S
C593 C56 1.660 . S
C599 C165 1.655 . S
C619 C132 1.805 . S
C613 C86 1.856 . S
C639 C122 1.693 . S
C633 C99 1.699 . S
C653 C69 1.126 . S
C659 C146 1.137 . S
