# Generated by pormake.
# Topology anh, (6,3)-cn, num edge types: 1
# Building blocks:
#     Node 0, Type 0, BuildingBlock: BETGAK_clean_sbu_0, # of connection points: 6
#     Node 1, Type 0, BuildingBlock: BETGAK_clean_sbu_0, # of connection points: 6
#     Node 2, Type 0, BuildingBlock: BETGAK_clean_sbu_0, # of connection points: 6
#     Node 3, Type 1, BuildingBlock: BETDAH_clean_linker_0, # of connection points: 3
#     Node 4, Type 1, BuildingBlock: BETDAH_clean_linker_0, # of connection points: 3
#     Node 5, Type 1, BuildingBlock: BETDAH_clean_linker_0, # of connection points: 3
#     Node 6, Type 1, BuildingBlock: BETDAH_clean_linker_0, # of connection points: 3
#     Node 7, Type 1, BuildingBlock: BETDAH_clean_linker_0, # of connection points: 3
#     Node 8, Type 1, BuildingBlock: BETDAH_clean_linker_0, # of connection points: 3
#     Edge 9, Type (0, 1), BuildingBlock: KIFKEQ_clean_linker_1, # of connection points: 2
#     Edge 10, Type (0, 1), BuildingBlock: KIFKEQ_clean_linker_1, # of connection points: 2
#     Edge 11, Type (0, 1), BuildingBlock: KIFKEQ_clean_linker_1, # of connection points: 2
#     Edge 12, Type (0, 1), BuildingBlock: KIFKEQ_clean_linker_1, # of connection points: 2
#     Edge 13, Type (0, 1), BuildingBlock: KIFKEQ_clean_linker_1, # of connection points: 2
#     Edge 14, Type (0, 1), BuildingBlock: KIFKEQ_clean_linker_1, # of connection points: 2
#     Edge 15, Type (0, 1), BuildingBlock: KIFKEQ_clean_linker_1, # of connection points: 2
#     Edge 16, Type (0, 1), BuildingBlock: KIFKEQ_clean_linker_1, # of connection points: 2
#     Edge 17, Type (0, 1), BuildingBlock: KIFKEQ_clean_linker_1, # of connection points: 2
#     Edge 18, Type (0, 1), BuildingBlock: KIFKEQ_clean_linker_1, # of connection points: 2
#     Edge 19, Type (0, 1), BuildingBlock: KIFKEQ_clean_linker_1, # of connection points: 2
#     Edge 20, Type (0, 1), BuildingBlock: KIFKEQ_clean_linker_1, # of connection points: 2
#     Edge 21, Type (0, 1), BuildingBlock: KIFKEQ_clean_linker_1, # of connection points: 2
#     Edge 22, Type (0, 1), BuildingBlock: KIFKEQ_clean_linker_1, # of connection points: 2
#     Edge 23, Type (0, 1), BuildingBlock: KIFKEQ_clean_linker_1, # of connection points: 2
#     Edge 24, Type (0, 1), BuildingBlock: KIFKEQ_clean_linker_1, # of connection points: 2
#     Edge 25, Type (0, 1), BuildingBlock: KIFKEQ_clean_linker_1, # of connection points: 2
#     Edge 26, Type (0, 1), BuildingBlock: KIFKEQ_clean_linker_1, # of connection points: 2
# Relax obj value: 0.150
# Max RMSD: 0.180
# Mean RMSD: 0.110
data_MOF--net-anh--node1-BETGAK_clean_sbu_0--node2-BETDAH_clean_linker_0--edge1-KIFKEQ_clean_linker_1
_symmetry_space_group_name_H-M    P1
_symmetry_Int_Tables_number       1
_symmetry_cell_setting            triclinic
loop_
_symmetry_equiv_pos_as_xyz
'x, y, z'
_cell_length_a     31.801921
_cell_length_b     38.266639
_cell_length_c     50.279245
_cell_angle_alpha  94.065916
_cell_angle_beta   91.576263
_cell_angle_gamma 129.41131
loop_
_atom_site_label
_atom_site_type_symbol
_atom_site_fract_x
_atom_site_fract_y
_atom_site_fract_z
_atom_type_partial_charge
La0 La 0.1487 0.55492 0.14444 0.0
La1 La 0.09212 0.58703 0.16884 0.0
C2 C 0.1942 0.53742 0.11252 0.0
C3 C 0.24349 0.54275 0.10867 0.0
C4 C 0.26675 0.53475 0.12894 0.0
C5 C 0.2995 0.52346 0.12248 0.0
C6 C 0.30966 0.52033 0.09571 0.0
C7 C 0.29248 0.53458 0.07624 0.0
C8 C 0.25925 0.5454 0.08267 0.0
C9 C 0.15297 0.56009 0.19707 0.0
C10 C 0.21382 0.66256 0.15945 0.0
C11 C 1.03514 0.59615 0.19726 0.0
C12 C 0.97624 0.56321 0.19954 0.0
C13 C 0.94312 0.52649 0.17951 0.0
C14 C 0.8872 0.4945 0.18105 0.0
C15 C 0.86283 0.49856 0.20261 0.0
C16 C 0.89616 0.53511 0.22297 0.0
C17 C 0.95277 0.56717 0.22152 0.0
C18 C 0.08997 0.58131 0.11591 0.0
C19 C 1.02756 0.4804 0.15573 0.0
O20 O 0.16432 0.51192 0.13091 0.0
O21 O 0.19653 0.57273 0.11165 0.0
O22 O 0.15513 0.53234 0.1822 0.0
O23 O 0.15566 0.58688 0.18274 0.0
O24 O 0.21157 0.63024 0.14568 0.0
O25 O 0.17356 0.65243 0.17356 0.0
O26 O 1.0486 0.61084 0.17375 0.0
O27 O 1.063 0.58435 0.20628 0.0
O28 O 0.09285 0.61214 0.13052 0.0
O29 O 0.08465 0.55401 0.13074 0.0
O30 O 1.03297 0.51293 0.17092 0.0
O31 O 1.06474 0.49079 0.13926 0.0
H32 H 0.25547 0.53291 0.14924 0.0
H33 H 0.31208 0.51281 0.13804 0.0
H34 H 0.3009 0.53371 0.05558 0.0
H35 H 0.24194 0.55182 0.0668 0.0
H36 H 0.96034 0.52297 0.16226 0.0
H37 H 0.86278 0.46765 0.1646 0.0
H38 H 0.87839 0.53921 0.23972 0.0
H39 H 0.97799 0.59522 0.23726 0.0
La40 La 0.68919 0.07396 0.47615 0.0
La41 La 0.61291 0.09224 0.4659 0.0
C42 C 0.73945 0.04875 0.49483 0.0
C43 C 0.72843 1.00751 0.50259 0.0
C44 C 0.77144 1.00626 0.50406 0.0
C45 C 0.76261 0.96751 0.51089 0.0
C46 C 0.71035 0.92897 0.5163 0.0
C47 C 0.66724 0.9305 0.5151 0.0
C48 C 0.67622 0.96952 0.50826 0.0
C49 C 0.67732 0.08474 0.42617 0.0
C50 C 0.56055 0.99097 0.464 0.0
C51 C 0.56516 0.12163 0.45105 0.0
C52 C 0.57241 0.16312 0.45962 0.0
C53 C 0.53353 0.15956 0.47468 0.0
C54 C 0.54207 0.19855 0.48533 0.0
C55 C 0.58947 0.24201 0.48094 0.0
C56 C 0.6274 0.24558 0.46497 0.0
C57 C 0.61901 0.20652 0.45444 0.0
C58 C 0.62668 0.08336 0.51622 0.0
C59 C 0.74298 0.17573 0.47438 0.0
O60 O 0.73139 0.04923 0.46927 0.0
O61 O 0.72153 0.06553 0.50968 0.0
O62 O 0.72282 0.09831 0.43811 0.0
O63 O 0.63978 0.0635 0.4415 0.0
O64 O 0.60778 1.00618 0.47625 0.0
O65 O 0.55597 0.01928 0.45352 0.0
O66 O 0.54801 0.09315 0.46896 0.0
O67 O 0.60396 0.12667 0.43847 0.0
O68 O 0.58139 0.07026 0.5046 0.0
O69 O 0.66327 0.10378 0.50041 0.0
O70 O 0.69333 0.16082 0.4666 0.0
O71 O 0.75078 0.14781 0.4822 0.0
H72 H 0.81206 0.03538 0.49987 0.0
H73 H 0.79696 0.96789 0.51212 0.0
H74 H 0.62645 0.90132 0.51897 0.0
H75 H 0.6425 0.96994 0.50728 0.0
H76 H 0.497 0.12656 0.47877 0.0
H77 H 0.51164 0.19468 0.49715 0.0
H78 H 0.66437 0.27863 0.4613 0.0
H79 H 0.64961 0.21047 0.44276 0.0
La80 La 0.64752 0.60619 0.8512 0.0
La81 La 0.56711 0.50573 0.84645 0.0
C82 C 0.70256 0.68836 0.84282 0.0
C83 C 0.69379 0.71956 0.83467 0.0
C84 C 0.73811 0.7663 0.83735 0.0
C85 C 0.73166 0.79677 0.82894 0.0
C86 C 0.68055 0.78107 0.81774 0.0
C87 C 0.63602 0.73399 0.81515 0.0
C88 C 0.64262 0.70347 0.82352 0.0
C89 C 0.62862 0.57044 0.89652 0.0
C90 C 0.51691 0.55549 0.85161 0.0
C91 C 0.51679 0.42291 0.85117 0.0
C92 C 0.52734 0.3912 0.84357 0.0
C93 C 0.49133 0.35386 0.82416 0.0
C94 C 0.50239 0.32525 0.81523 0.0
C95 C 0.54961 0.33312 0.82565 0.0
C96 C 0.58508 0.37001 0.84554 0.0
C97 C 0.57408 0.39874 0.85441 0.0
C98 C 0.58487 0.54049 0.8007 0.0
C99 C 0.69877 0.55682 0.8497 0.0
O100 O 0.68817 0.67422 0.86639 0.0
O101 O 0.68827 0.65556 0.82457 0.0
O102 O 0.67644 0.60644 0.89149 0.0
O103 O 0.59413 0.55777 0.87727 0.0
O104 O 0.56677 0.59223 0.84649 0.0
O105 O 0.50923 0.51792 0.85606 0.0
O106 O 0.50608 0.43711 0.83124 0.0
O107 O 0.54989 0.45591 0.87033 0.0
O108 O 0.53802 0.50468 0.80649 0.0
O109 O 0.62049 0.55392 0.81968 0.0
O110 O 0.64702 0.51848 0.84959 0.0
O111 O 0.70895 0.59622 0.84873 0.0
H112 H 0.778 0.77924 0.8457 0.0
H113 H 0.76704 0.83263 0.83083 0.0
H114 H 0.596 0.72078 0.80688 0.0
H115 H 0.60797 0.6674 0.82116 0.0
H116 H 0.45507 0.34733 0.81546 0.0
H117 H 0.4745 0.29757 0.79966 0.0
H118 H 0.62135 0.37669 0.85433 0.0
H119 H 0.60256 0.4271 0.86952 0.0
H120 H 0.54293 0.99096 0.23343 0.0
H121 H 0.67939 0.1232 0.2142 0.0
H122 H 0.569 0.01551 0.15089 0.0
C123 C 0.56575 0.01367 0.21839 0.0
C124 C 0.54943 0.99721 0.19109 0.0
C125 C 0.61222 0.05881 0.22678 0.0
C126 C 0.6435 0.08837 0.20764 0.0
C127 C 0.62777 0.07286 0.18012 0.0
C128 C 0.5811 0.02723 0.17207 0.0
N129 N 0.65732 0.10187 0.15993 0.0
C130 C 0.70231 0.14834 0.1642 0.0
H131 H 0.62795 0.49533 0.60579 0.0
H132 H 0.65807 0.62075 0.59787 0.0
H133 H 0.66303 0.54928 0.5299 0.0
C134 C 0.63766 0.52144 0.5936 0.0
C135 C 0.64446 0.51736 0.56638 0.0
C136 C 0.64267 0.55867 0.60523 0.0
C137 C 0.65478 0.59228 0.58921 0.0
C138 C 0.66151 0.58838 0.56189 0.0
C139 C 0.65682 0.55134 0.55086 0.0
N140 N 0.67271 0.62052 0.54454 0.0
C141 C 0.67461 0.65739 0.55112 0.0
H142 H 1.00833 0.55426 0.91639 0.0
H143 H 0.14795 0.56217 0.90663 0.0
H144 H 1.05929 0.55703 0.83742 0.0
C145 C 1.0353 0.5553 0.90307 0.0
C146 C 1.02674 0.55507 0.87546 0.0
C147 C 1.07865 0.55824 0.91429 0.0
C148 C 0.11507 0.56031 0.89772 0.0
C149 C 0.10882 0.55931 0.86982 0.0
C150 C 1.06466 0.55749 0.85881 0.0
N151 N 0.14554 0.55999 0.85262 0.0
C152 C 0.18978 0.55986 0.85904 0.0
H153 H 0.2388 0.66154 0.39168 0.0
H154 H 0.09866 0.52976 0.4099 0.0
H155 H 0.20495 0.63818 0.47368 0.0
C156 C 0.21389 0.63901 0.40644 0.0
C157 C 0.22826 0.65544 0.43373 0.0
C158 C 0.16724 0.59408 0.39782 0.0
C159 C 0.13456 0.56448 0.4167 0.0
C160 C 0.14798 0.5803 0.44425 0.0
C161 C 0.19453 0.62595 0.45252 0.0
N162 N 0.11588 0.55183 0.46422 0.0
C163 C 1.071 0.50526 0.46001 0.0
H164 H 0.63597 0.14543 0.7128 0.0
H165 H 0.64972 0.04267 0.72526 0.0
H166 H 0.62315 0.10247 0.79103 0.0
C167 C 0.63743 0.12513 0.72615 0.0
C168 C 0.62873 0.12798 0.75319 0.0
C169 C 0.64514 0.09454 0.71585 0.0
C170 C 0.64413 0.06648 0.73302 0.0
C171 C 0.63606 0.06951 0.7602 0.0
C172 C 0.62878 0.10028 0.77 0.0
N173 N 0.63419 0.04209 0.77852 0.0
C174 C 0.64163 1.01038 0.77288 0.0
H175 H 0.60393 0.40755 0.06575 0.0
H176 H 0.44173 0.32464 0.02554 0.0
H177 H 0.46636 0.29736 0.10293 0.0
C178 C 0.56057 0.37912 0.06509 0.0
C179 C 0.53959 0.35378 0.08711 0.0
C180 C 0.52587 0.36895 0.04259 0.0
C181 C 0.46985 0.33174 0.04196 0.0
C182 C 0.44874 0.30544 0.06346 0.0
C183 C 0.48369 0.31609 0.08576 0.0
N184 N 0.39168 0.27466 0.06509 0.0
C185 C 0.36527 0.29267 0.06599 0.0
H186 H 0.38789 0.52141 0.12163 0.0
H187 H 0.27037 0.45796 0.05191 0.0
H188 H 0.40199 0.46601 0.11299 0.0
H189 H 0.28504 0.40346 0.04323 0.0
H190 H 0.35713 0.33186 0.02624 0.0
H191 H 0.35112 0.39272 0.03133 0.0
H192 H 0.34248 0.383 0.11646 0.0
H193 H 0.34918 0.32262 0.11117 0.0
C194 C 0.36581 0.49623 0.10425 0.0
C195 C 0.32784 0.49407 0.08757 0.0
C196 C 0.37367 0.46442 0.09938 0.0
C197 C 0.34392 0.43001 0.07767 0.0
C198 C 0.30876 0.42972 0.06002 0.0
C199 C 0.30071 0.46131 0.06494 0.0
C200 C 0.35264 0.34223 0.04586 0.0
C201 C 0.35222 0.32232 0.06826 0.0
C202 C 0.34967 0.37716 0.04883 0.0
C203 C 0.34685 0.39287 0.07433 0.0
C204 C 0.34554 0.37211 0.09664 0.0
C205 C 0.34836 0.33713 0.09361 0.0
H206 H 0.85181 0.2174 0.4837 0.0
H207 H 0.7442 0.24516 0.46169 0.0
H208 H 0.9307 0.29577 0.47896 0.0
H209 H 0.82322 0.32398 0.45754 0.0
H210 H 0.97606 0.4518 0.42722 0.0
H211 H 0.89672 0.37201 0.43057 0.0
H212 H 0.98235 0.37199 0.49884 0.0
H213 H 1.06146 0.45101 0.49484 0.0
C214 C 0.84484 0.24029 0.47814 0.0
C215 C 0.7913 0.22464 0.47315 0.0
C216 C 0.89032 0.28551 0.47547 0.0
C217 C 0.88381 0.31666 0.4678 0.0
C218 C 0.83018 0.30106 0.46305 0.0
C219 C 0.78466 0.25576 0.46566 0.0
C220 C 0.97781 0.43435 0.4427 0.0
C221 C 1.02485 0.45722 0.46063 0.0
C222 C 0.93222 0.38877 0.44485 0.0
C223 C 0.93268 0.36513 0.46504 0.0
C224 C 0.98039 0.38845 0.48278 0.0
C225 C 1.0258 0.43386 0.48058 0.0
H226 H 0.62147 0.77143 0.77271 0.0
H227 H 0.72502 0.86509 0.84274 0.0
H228 H 0.61317 0.82651 0.75795 0.0
H229 H 0.71721 0.92 0.82787 0.0
H230 H 0.73589 0.02638 0.78394 0.0
H231 H 0.74612 0.96974 0.79223 0.0
H232 H 0.57265 0.8623 0.7718 0.0
H233 H 0.56302 0.9193 0.76322 0.0
C234 C 0.64217 0.80358 0.78504 0.0
C235 C 0.67417 0.8139 0.80886 0.0
C236 C 0.63756 0.83518 0.77652 0.0
C237 C 0.66506 0.87783 0.79156 0.0
C238 C 0.69658 0.8879 0.81547 0.0
C239 C 0.70099 0.85634 0.82402 0.0
C240 C 0.70037 0.99054 0.7806 0.0
C241 C 0.64884 0.97682 0.77278 0.0
C242 C 0.706 0.95818 0.7856 0.0
C243 C 0.66007 0.91154 0.78298 0.0
C244 C 0.60886 0.89787 0.77382 0.0
C245 C 0.60328 0.93037 0.76888 0.0
H246 H 0.79861 0.52136 0.21323 0.0
H247 H 0.79026 0.4066 0.18833 0.0
H248 H 0.70438 0.47836 0.19481 0.0
H249 H 0.69791 0.36495 0.1681 0.0
H250 H 0.542 0.30225 0.12158 0.0
H251 H 0.60482 0.32967 0.16165 0.0
H252 H 0.68072 0.46839 0.14881 0.0
H253 H 0.61626 0.44097 0.11027 0.0
C254 C 0.77609 0.48639 0.20468 0.0
C255 C 0.80239 0.46793 0.20123 0.0
C256 C 0.72224 0.46191 0.19375 0.0
C257 C 0.69447 0.41909 0.17876 0.0
C258 C 0.71803 0.39805 0.1791 0.0
C259 C 0.77138 0.42216 0.19049 0.0
C260 C 0.57146 0.33853 0.12775 0.0
C261 C 0.57519 0.36951 0.11234 0.0
C262 C 0.60756 0.35427 0.15065 0.0
C263 C 0.64825 0.40129 0.15849 0.0
C264 C 0.64966 0.43194 0.14382 0.0
C265 C 0.61344 0.41624 0.12119 0.0
H266 H 0.4529 0.95 0.45141 0.0
H267 H 0.55871 0.91949 0.4712 0.0
H268 H 0.37375 0.86886 0.44712 0.0
H269 H 0.47943 0.83823 0.46665 0.0
H270 H 0.33127 0.69805 0.41923 0.0
H271 H 0.41176 0.77856 0.42856 0.0
H272 H 0.31906 0.8027 0.47541 0.0
H273 H 0.23839 0.72171 0.46621 0.0
C274 C 0.45936 0.92603 0.45485 0.0
C275 C 0.51236 0.94142 0.46155 0.0
C276 C 0.41385 0.87949 0.4526 0.0
C277 C 0.42014 0.84696 0.45658 0.0
C278 C 0.47313 0.86232 0.46332 0.0
C279 C 0.51859 0.90896 0.466 0.0
C280 C 0.32827 0.72047 0.43179 0.0
C281 C 0.27845 0.70352 0.44198 0.0
C282 C 0.37446 0.76657 0.43723 0.0
C283 C 0.37189 0.7972 0.45264 0.0
C284 C 0.32232 0.78009 0.4633 0.0
C285 C 0.27626 0.73368 0.45823 0.0
H286 H 0.64938 0.35791 0.81586 0.0
H287 H 0.47787 0.24061 0.81234 0.0
H288 H 0.66927 0.30894 0.799 0.0
H289 H 0.4973 0.19216 0.7941 0.0
H290 H 0.55514 0.11047 0.78853 0.0
H291 H 0.53831 0.1606 0.80683 0.0
H292 H 0.65816 0.2643 0.75912 0.0
H293 H 0.6773 0.21488 0.74189 0.0
C294 C 0.61591 0.32168 0.81156 0.0
C295 C 0.56199 0.30326 0.81552 0.0
C296 C 0.62723 0.29367 0.80152 0.0
C297 C 0.58492 0.24655 0.79511 0.0
C298 C 0.53106 0.22818 0.79911 0.0
C299 C 0.51978 0.25611 0.80926 0.0
C300 C 0.57855 0.14419 0.78219 0.0
C301 C 0.61785 0.15866 0.76382 0.0
C302 C 0.56831 0.17277 0.79243 0.0
C303 C 0.5967 0.21652 0.78441 0.0
C304 C 0.63595 0.23103 0.76598 0.0
C305 C 0.64643 0.20246 0.75582 0.0
H306 H 0.75149 0.8912 0.49282 0.0
H307 H 0.64873 0.87257 0.55435 0.0
H308 H 0.74243 0.82649 0.50497 0.0
H309 H 0.63905 0.80693 0.56632 0.0
H310 H 0.59263 0.66111 0.55332 0.0
H311 H 0.59933 0.72747 0.54674 0.0
H312 H 0.77383 0.80922 0.54379 0.0
H313 H 0.76668 0.74291 0.55015 0.0
C314 C 0.72722 0.87348 0.50908 0.0
C315 C 0.70147 0.88752 0.52285 0.0
C316 C 0.72206 0.83637 0.51606 0.0
C317 C 0.69077 0.81208 0.5369 0.0
C318 C 0.66346 0.82504 0.55017 0.0
C319 C 0.66887 0.8625 0.54326 0.0
C320 C 0.63242 0.69368 0.55192 0.0
C321 C 0.67925 0.69744 0.55238 0.0
C322 C 0.63629 0.73154 0.54813 0.0
C323 C 0.68702 0.77339 0.54442 0.0
C324 C 0.73409 0.77727 0.54617 0.0
C325 C 0.73018 0.73957 0.55008 0.0
H326 H 0.69664 0.48287 0.8524 0.0
H327 H 0.81147 0.62781 0.85 0.0
H328 H 0.77188 0.48088 0.85525 0.0
H329 H 0.88719 0.62619 0.85323 0.0
H330 H 1.02041 0.61056 0.84425 0.0
H331 H 0.94368 0.61078 0.83673 0.0
H332 H 0.84371 0.49365 0.87995 0.0
H333 H 0.91942 0.49327 0.88686 0.0
C334 C 0.73791 0.51462 0.85254 0.0
C335 C 0.74651 0.55553 0.85101 0.0
C336 C 0.78196 0.51358 0.85436 0.0
C337 C 0.83757 0.55342 0.8547 0.0
C338 C 0.84601 0.59429 0.85281 0.0
C339 C 0.80188 0.59533 0.85109 0.0
C340 C 0.98168 0.58411 0.85159 0.0
C341 C 0.9772 0.55154 0.86598 0.0
C342 C 0.93722 0.58459 0.84764 0.0
C343 C 0.88567 0.55231 0.8577 0.0
C344 C 0.88119 0.51907 0.87134 0.0
C345 C 0.92545 0.51885 0.87542 0.0
H346 H 0.31964 0.70039 0.15001 0.0
H347 H 0.21876 0.73562 0.17026 0.0
H348 H 0.40039 0.78146 0.1552 0.0
H349 H 0.29798 0.8158 0.17424 0.0
H350 H 0.45259 0.9487 0.21384 0.0
H351 H 0.37399 0.86881 0.20436 0.0
H352 H 0.45099 0.85527 0.13961 0.0
H353 H 0.53192 0.93559 0.1503 0.0
C354 C 0.31459 0.72541 0.15521 0.0
C355 C 0.26287 0.71145 0.16018 0.0
C356 C 0.36084 0.77197 0.15806 0.0
C357 C 0.35624 0.80557 0.16562 0.0
C358 C 0.30384 0.79125 0.16926 0.0
C359 C 0.25811 0.74503 0.16682 0.0
C360 C 0.45321 0.92881 0.19767 0.0
C361 C 0.49917 0.94881 0.18307 0.0
C362 C 0.40748 0.8828 0.19192 0.0
C363 C 0.40553 0.8551 0.17106 0.0
C364 C 0.45103 0.87522 0.156 0.0
C365 C 0.49723 0.92151 0.1619 0.0
H366 H 0.62546 0.31843 0.45796 0.0
H367 H 0.57689 0.25907 0.53247 0.0
H368 H 0.64107 0.38598 0.4788 0.0
H369 H 0.5916 0.32615 0.55314 0.0
H370 H 0.67918 0.47443 0.58764 0.0
H371 H 0.66765 0.40872 0.5671 0.0
H372 H 0.584 0.4046 0.4963 0.0
H373 H 0.59446 0.46957 0.51692 0.0
C374 C 0.61834 0.31992 0.4788 0.0
C375 C 0.59969 0.28338 0.49354 0.0
C376 C 0.62685 0.35839 0.49066 0.0
C377 C 0.61744 0.36131 0.51759 0.0
C378 C 0.5996 0.32506 0.53242 0.0
C379 C 0.59064 0.28646 0.5205 0.0
C380 C 0.65786 0.45926 0.56781 0.0
C381 C 0.63783 0.47741 0.55395 0.0
C382 C 0.65141 0.4217 0.55601 0.0
C383 C 0.62509 0.40161 0.53004 0.0
C384 C 0.60525 0.4198 0.51616 0.0
C385 C 0.61134 0.4571 0.528 0.0
H386 H 0.41069 0.48911 0.8651 0.0
H387 H 0.51267 0.62463 0.84175 0.0
H388 H 0.33526 0.49038 0.86808 0.0
H389 H 0.43676 0.62576 0.84392 0.0
H390 H 0.30109 0.63256 0.86556 0.0
H391 H 0.37778 0.63217 0.86432 0.0
H392 H 0.26372 0.48533 0.85161 0.0
H393 H 0.18768 0.48634 0.85359 0.0
C394 C 0.41734 0.51932 0.8604 0.0
C395 C 0.4692 0.55669 0.85315 0.0
C396 C 0.37314 0.52006 0.86194 0.0
C397 C 0.37774 0.55816 0.85625 0.0
C398 C 0.42988 0.59559 0.84897 0.0
C399 C 0.47416 0.59486 0.84752 0.0
C400 C 0.29223 0.60006 0.86282 0.0
C401 C 0.23716 0.55948 0.86008 0.0
C402 C 0.33686 0.59972 0.86177 0.0
C403 C 0.32907 0.55869 0.85779 0.0
C404 C 0.27351 0.51809 0.85517 0.0
C405 C 0.22898 0.51851 0.85623 0.0
H406 H 1.0047 0.40436 0.129 0.0
H407 H 0.93991 0.44584 0.18542 0.0
H408 H 0.92694 0.32486 0.13193 0.0
H409 H 0.86109 0.36612 0.18779 0.0
H410 H 0.75448 0.21609 0.20588 0.0
H411 H 0.83298 0.29682 0.20412 0.0
H412 H 0.83158 0.26861 0.11916 0.0
H413 H 0.75437 0.18833 0.12133 0.0
C414 C 0.97363 0.39661 0.14186 0.0
C415 C 0.97872 0.43177 0.15687 0.0
C416 C 0.92869 0.35082 0.14347 0.0
C417 C 0.88728 0.33868 0.16006 0.0
C418 C 0.89233 0.37391 0.17505 0.0
C419 C 0.93743 0.41978 0.1735 0.0
C420 C 0.77133 0.22742 0.18694 0.0
C421 C 0.74885 0.19623 0.16376 0.0
C422 C 0.81601 0.27367 0.18582 0.0
C423 C 0.83909 0.28955 0.16148 0.0
C424 C 0.81586 0.25783 0.13835 0.0
C425 C 0.77137 0.21181 0.13951 0.0
H426 H 0.12012 0.64581 0.08271 0.0
H427 H 1.06516 0.50972 0.08287 0.0
H428 H 0.12226 0.63978 0.03394 0.0
H429 H 1.06634 0.50339 0.03414 0.0
H430 H 0.16757 0.6241 0.94922 0.0
H431 H 0.17382 0.63021 -0.00158 0.0
H432 H 1.01034 0.50149 0.99483 0.0
H433 H 1.00389 0.49589 0.94585 0.0
C434 C 0.10853 0.61466 0.07231 0.0
C435 C 0.09214 0.57814 0.08653 0.0
C436 C 0.11011 0.61131 0.04445 0.0
C437 C 0.09443 0.57109 0.03022 0.0
C438 C 1.07835 0.53469 0.04453 0.0
C439 C 1.07772 0.53835 0.07241 0.0
C440 C 0.1334 0.59689 0.95903 0.0
C441 C 0.0853 0.5595 0.94381 0.0
C442 C 0.13676 0.60053 0.98711 0.0
C443 C 0.09249 0.56638 0.00046 0.0
C444 C 1.04522 0.52819 0.98514 0.0
C445 C 1.04148 0.52501 0.95714 0.0
H446 H 0.5811 0.03663 0.39467 0.0
H447 H 0.75563 0.13893 0.39334 0.0
H448 H 0.56857 0.03663 0.34667 0.0
H449 H 0.74342 0.14109 0.34555 0.0
H450 H 0.70514 0.08816 0.25559 0.0
H451 H 0.72236 0.09896 0.30429 0.0
H452 H 0.57046 0.07425 0.3119 0.0
H453 H 0.55241 0.061 0.26324 0.0
C454 C 0.61671 0.05968 0.38411 0.0
C455 C 0.66932 0.08744 0.39758 0.0
C456 C 0.60964 0.06006 0.35658 0.0
C457 C 0.655 0.08884 0.34197 0.0
C458 C 0.70755 0.11777 0.35586 0.0
C459 C 0.71461 0.1168 0.3833 0.0
C460 C 0.67614 0.08593 0.26781 0.0
C461 C 0.62753 0.07376 0.25584 0.0
C462 C 0.6859 0.09218 0.29575 0.0
C463 C 0.64751 0.08699 0.31227 0.0
C464 C 0.60032 0.07735 0.3 0.0
C465 C 0.59019 0.07032 0.27212 0.0
H466 H 0.51039 0.51421 0.75967 0.0
H467 H 0.68382 0.59351 0.77932 0.0
H468 H 0.52484 0.52438 0.71262 0.0
H469 H 0.69844 0.60305 0.73181 0.0
H470 H 0.70499 0.63257 0.64365 0.0
H471 H 0.69252 0.63483 0.69152 0.0
H472 H 0.54914 0.49253 0.67924 0.0
H473 H 0.5608 0.49068 0.63174 0.0
C474 C 0.55175 0.5342 0.7539 0.0
C475 C 0.5959 0.55256 0.77305 0.0
C476 C 0.56001 0.53984 0.72692 0.0
C477 C 0.61266 0.56381 0.71836 0.0
C478 C 0.65737 0.58447 0.73776 0.0
C479 C 0.64905 0.57892 0.76492 0.0
C480 C 0.67045 0.60203 0.65122 0.0
C481 C 0.634 0.56139 0.63397 0.0
C482 C 0.66361 0.60321 0.67863 0.0
C483 C 0.6198 0.5639 0.68921 0.0
C484 C 0.58292 0.52361 0.67176 0.0
C485 C 0.58991 0.52239 0.64454 0.0
H486 H 0.54812 0.03132 0.54896 0.0
H487 H 0.72326 0.13078 0.54817 0.0
H488 H 0.55885 0.03141 0.59712 0.0
H489 H 0.73424 0.13098 0.59675 0.0
H490 H 0.71072 0.16357 0.68516 0.0
H491 H 0.71152 0.15794 0.63651 0.0
H492 H 0.59438 1.01132 0.63224 0.0
H493 H 0.59301 0.01703 0.68092 0.0
C494 C 0.58902 0.05287 0.55911 0.0
C495 C 0.63485 0.08127 0.54493 0.0
C496 C 0.5952 0.05265 0.58668 0.0
C497 C 0.6474 0.08118 0.60078 0.0
C498 C 0.69348 0.10882 0.58644 0.0
C499 C 0.68727 0.10861 0.55868 0.0
C500 C 0.68561 0.13013 0.67383 0.0
C501 C 0.65139 0.09075 0.68683 0.0
C502 C 0.68646 0.12689 0.646 0.0
C503 C 0.65275 0.0842 0.63051 0.0
C504 C 0.62043 0.04472 0.64363 0.0
C505 C 0.61994 0.04796 0.67151 0.0
H506 H 0.70137 0.58243 0.93454 0.0
H507 H 0.52898 0.4991 0.90973 0.0
H508 H 0.68032 0.53422 0.9702 0.0
H509 H 0.5081 0.45092 0.94489 0.0
H510 H 0.49638 0.34518 0.98854 0.0
H511 H 0.52398 0.39572 0.9539 0.0
H512 H 0.63076 0.51256 0.01297 0.0
H513 H 0.60225 0.46227 0.04783 0.0
C514 C 0.65908 0.55405 0.93685 0.0
C515 C 0.61681 0.54414 0.91929 0.0
C516 C 0.64706 0.5265 0.95717 0.0
C517 C 0.59263 0.48848 0.96002 0.0
C518 C 0.55047 0.47944 0.94282 0.0
C519 C 0.56241 0.50716 0.9228 0.0
C520 C 0.52569 0.38163 0.9942 0.0
C521 C 0.54684 0.39955 0.02103 0.0
C522 C 0.54153 0.41054 0.97434 0.0
C523 C 0.57923 0.45804 0.98081 0.0
C524 C 0.60199 0.47607 0.0074 0.0
C525 C 0.58576 0.44716 0.02733 0.0
H526 H 0.17108 0.62764 0.23136 0.0
H527 H 0.12946 0.49589 0.22872 0.0
H528 H 0.16795 0.6306 0.27977 0.0
H529 H 0.12435 0.49783 0.27716 0.0
H530 H 0.18771 0.54572 0.36729 0.0
H531 H 0.18059 0.53455 0.31834 0.0
H532 H 0.10908 0.59983 0.31432 0.0
H533 H 0.11848 0.6123 0.36322 0.0
C534 C 0.16075 0.59911 0.24118 0.0
C535 C 0.15064 0.56161 0.22637 0.0
C536 C 0.15847 0.60055 0.26893 0.0
C537 C 0.14555 0.5643 0.28251 0.0
C538 C 0.13508 0.52661 0.26751 0.0
C539 C 0.13783 0.52539 0.23975 0.0
C540 C 0.16942 0.55666 0.35578 0.0
C541 C 0.1532 0.57946 0.36877 0.0
C542 C 0.16528 0.55034 0.32776 0.0
C543 C 0.14475 0.5667 0.31224 0.0
C544 C 0.12617 0.58764 0.32552 0.0
C545 C 0.13078 0.59427 0.35349 0.0
loop_
_geom_bond_atom_site_label_1
_geom_bond_atom_site_label_2
_geom_bond_distance
_geom_bond_site_symmetry_2
_ccdc_geom_bond_type
La0 C2 2.928 . S
La0 O20 2.521 . S
La0 O21 2.628 . S
La0 O22 2.554 . S
La0 O23 2.757 . S
La0 O24 2.470 . S
La0 O29 2.482 . S
La0 O31 2.503 1_455 S
La1 C11 2.928 1_455 S
La1 O23 2.482 . S
La1 O25 2.503 . S
La1 O26 2.521 1_455 S
La1 O27 2.628 1_455 S
La1 O28 2.554 . S
La1 O29 2.757 . S
La1 O30 2.470 1_455 S
C2 La0 2.928 . S
C2 C3 1.503 . S
C2 O20 1.261 . S
C2 O21 1.243 . S
C3 C2 1.503 . S
C3 C4 1.394 . S
C3 C8 1.373 . S
C4 C3 1.394 . S
C4 C5 1.380 . S
C4 H32 0.930 . S
C5 C4 1.380 . S
C5 C6 1.376 . S
C5 H33 0.930 . S
C6 C5 1.376 . S
C6 C7 1.370 . S
C7 C6 1.370 . S
C7 C8 1.396 . S
C7 H34 0.929 . S
C8 C3 1.373 . S
C8 C7 1.396 . S
C8 H35 0.929 . S
C9 O22 1.240 . S
C9 O23 1.289 . S
C10 O24 1.258 . S
C10 O25 1.256 . S
C11 La1 2.928 1_655 S
C11 C12 1.503 . S
C11 O26 1.261 . S
C11 O27 1.243 . S
C12 C11 1.503 . S
C12 C13 1.394 . S
C12 C17 1.373 . S
C13 C12 1.394 . S
C13 C14 1.380 . S
C13 H36 0.930 . S
C14 C13 1.380 . S
C14 C15 1.376 . S
C14 H37 0.930 . S
C15 C14 1.376 . S
C15 C16 1.370 . S
C16 C15 1.370 . S
C16 C17 1.396 . S
C16 H38 0.929 . S
C17 C12 1.373 . S
C17 C16 1.396 . S
C17 H39 0.929 . S
C18 O28 1.240 . S
C18 O29 1.289 . S
C19 O30 1.258 . S
C19 O31 1.256 . S
O20 La0 2.521 . S
O20 C2 1.261 . S
O21 La0 2.628 . S
O21 C2 1.243 . S
O22 La0 2.554 . S
O22 C9 1.240 . S
O23 La0 2.757 . S
O23 La1 2.482 . S
O23 C9 1.289 . S
O24 La0 2.470 . S
O24 C10 1.258 . S
O25 La1 2.503 . S
O25 C10 1.256 . S
O26 La1 2.521 1_655 S
O26 C11 1.261 . S
O27 La1 2.628 1_655 S
O27 C11 1.243 . S
O28 La1 2.554 . S
O28 C18 1.240 . S
O29 La0 2.482 . S
O29 La1 2.757 . S
O29 C18 1.289 . S
O30 La1 2.470 1_655 S
O30 C19 1.258 . S
O31 La0 2.503 1_655 S
O31 C19 1.256 . S
H32 C4 0.930 . S
H33 C5 0.930 . S
H34 C7 0.929 . S
H35 C8 0.929 . S
H36 C13 0.930 . S
H37 C14 0.930 . S
H38 C16 0.929 . S
H39 C17 0.929 . S
La40 C42 2.928 1_545 S
La40 O60 2.521 1_545 S
La40 O61 2.628 1_545 S
La40 O62 2.554 . S
La40 O63 2.757 . S
La40 O64 2.470 1_545 S
La40 O69 2.482 . S
La40 O71 2.503 . S
La41 C51 2.928 . S
La41 O63 2.482 . S
La41 O65 2.503 1_545 S
La41 O66 2.521 . S
La41 O67 2.628 . S
La41 O68 2.554 . S
La41 O69 2.757 . S
La41 O70 2.470 . S
C42 La40 2.928 1_565 S
C42 C43 1.503 . S
C42 O60 1.261 . S
C42 O61 1.243 . S
C43 C42 1.503 . S
C43 C44 1.394 . S
C43 C48 1.373 . S
C44 C43 1.394 . S
C44 C45 1.380 . S
C44 H72 0.930 . S
C45 C44 1.380 . S
C45 C46 1.376 . S
C45 H73 0.930 . S
C46 C45 1.376 . S
C46 C47 1.370 . S
C47 C46 1.370 . S
C47 C48 1.396 . S
C47 H74 0.929 . S
C48 C43 1.373 . S
C48 C47 1.396 . S
C48 H75 0.929 . S
C49 O62 1.240 . S
C49 O63 1.289 . S
C50 O64 1.258 . S
C50 O65 1.256 . S
C51 La41 2.928 . S
C51 C52 1.503 . S
C51 O66 1.261 . S
C51 O67 1.243 . S
C52 C51 1.503 . S
C52 C53 1.394 . S
C52 C57 1.373 . S
C53 C52 1.394 . S
C53 C54 1.380 . S
C53 H76 0.930 . S
C54 C53 1.380 . S
C54 C55 1.376 . S
C54 H77 0.930 . S
C55 C54 1.376 . S
C55 C56 1.370 . S
C56 C55 1.370 . S
C56 C57 1.396 . S
C56 H78 0.929 . S
C57 C52 1.373 . S
C57 C56 1.396 . S
C57 H79 0.929 . S
C58 O68 1.240 . S
C58 O69 1.289 . S
C59 O70 1.258 . S
C59 O71 1.256 . S
O60 La40 2.521 1_565 S
O60 C42 1.261 . S
O61 La40 2.628 1_565 S
O61 C42 1.243 . S
O62 La40 2.554 . S
O62 C49 1.240 . S
O63 La40 2.757 . S
O63 La41 2.482 . S
O63 C49 1.289 . S
O64 La40 2.470 1_565 S
O64 C50 1.258 . S
O65 La41 2.503 1_565 S
O65 C50 1.256 . S
O66 La41 2.521 . S
O66 C51 1.261 . S
O67 La41 2.628 . S
O67 C51 1.243 . S
O68 La41 2.554 . S
O68 C58 1.240 . S
O69 La40 2.482 . S
O69 La41 2.757 . S
O69 C58 1.289 . S
O70 La41 2.470 . S
O70 C59 1.258 . S
O71 La40 2.503 . S
O71 C59 1.256 . S
H72 C44 0.930 . S
H73 C45 0.930 . S
H74 C47 0.929 . S
H75 C48 0.929 . S
H76 C53 0.930 . S
H77 C54 0.930 . S
H78 C56 0.929 . S
H79 C57 0.929 . S
La80 C82 2.928 . S
La80 O100 2.521 . S
La80 O101 2.628 . S
La80 O102 2.554 . S
La80 O103 2.757 . S
La80 O104 2.470 . S
La80 O109 2.482 . S
La80 O111 2.503 . S
La81 C91 2.928 . S
La81 O103 2.482 . S
La81 O105 2.503 . S
La81 O106 2.521 . S
La81 O107 2.628 . S
La81 O108 2.554 . S
La81 O109 2.757 . S
La81 O110 2.470 . S
C82 La80 2.928 . S
C82 C83 1.503 . S
C82 O100 1.261 . S
C82 O101 1.243 . S
C83 C82 1.503 . S
C83 C84 1.394 . S
C83 C88 1.373 . S
C84 C83 1.394 . S
C84 C85 1.380 . S
C84 H112 0.930 . S
C85 C84 1.380 . S
C85 C86 1.376 . S
C85 H113 0.930 . S
C86 C85 1.376 . S
C86 C87 1.370 . S
C87 C86 1.370 . S
C87 C88 1.396 . S
C87 H114 0.929 . S
C88 C83 1.373 . S
C88 C87 1.396 . S
C88 H115 0.929 . S
C89 O102 1.240 . S
C89 O103 1.289 . S
C90 O104 1.258 . S
C90 O105 1.256 . S
C91 La81 2.928 . S
C91 C92 1.503 . S
C91 O106 1.261 . S
C91 O107 1.243 . S
C92 C91 1.503 . S
C92 C93 1.394 . S
C92 C97 1.373 . S
C93 C92 1.394 . S
C93 C94 1.380 . S
C93 H116 0.930 . S
C94 C93 1.380 . S
C94 C95 1.376 . S
C94 H117 0.930 . S
C95 C94 1.376 . S
C95 C96 1.370 . S
C96 C95 1.370 . S
C96 C97 1.396 . S
C96 H118 0.929 . S
C97 C92 1.373 . S
C97 C96 1.396 . S
C97 H119 0.929 . S
C98 O108 1.240 . S
C98 O109 1.289 . S
C99 O110 1.258 . S
C99 O111 1.256 . S
O100 La80 2.521 . S
O100 C82 1.261 . S
O101 La80 2.628 . S
O101 C82 1.243 . S
O102 La80 2.554 . S
O102 C89 1.240 . S
O103 La80 2.757 . S
O103 La81 2.482 . S
O103 C89 1.289 . S
O104 La80 2.470 . S
O104 C90 1.258 . S
O105 La81 2.503 . S
O105 C90 1.256 . S
O106 La81 2.521 . S
O106 C91 1.261 . S
O107 La81 2.628 . S
O107 C91 1.243 . S
O108 La81 2.554 . S
O108 C98 1.240 . S
O109 La80 2.482 . S
O109 La81 2.757 . S
O109 C98 1.289 . S
O110 La81 2.470 . S
O110 C99 1.258 . S
O111 La80 2.503 . S
O111 C99 1.256 . S
H112 C84 0.930 . S
H113 C85 0.930 . S
H114 C87 0.929 . S
H115 C88 0.929 . S
H116 C93 0.930 . S
H117 C94 0.930 . S
H118 C96 0.929 . S
H119 C97 0.929 . S
H120 C123 0.929 . S
H121 C126 0.929 . S
H122 C128 0.930 . S
C123 H120 0.929 . S
C123 C124 1.398 . S
C123 C125 1.396 1_565 S
C124 C123 1.398 . S
C124 C128 1.407 1_565 S
C125 C123 1.396 1_545 S
C125 C126 1.394 . S
C126 H121 0.929 . S
C126 C125 1.394 . S
C126 C127 1.382 . S
C127 C126 1.382 . S
C127 C128 1.392 . S
C127 N129 1.420 . S
C128 H122 0.930 . S
C128 C124 1.407 1_545 S
C128 C127 1.392 . S
N129 C127 1.420 . S
N129 C130 1.244 . S
C130 N129 1.244 . S
H131 C134 0.929 . S
H132 C137 0.929 . S
H133 C139 0.930 . S
C134 H131 0.929 . S
C134 C135 1.398 . S
C134 C136 1.396 . S
C135 C134 1.398 . S
C135 C139 1.407 . S
C136 C134 1.396 . S
C136 C137 1.394 . S
C137 H132 0.929 . S
C137 C136 1.394 . S
C137 C138 1.382 . S
C138 C137 1.382 . S
C138 C139 1.392 . S
C138 N140 1.420 . S
C139 H133 0.930 . S
C139 C135 1.407 . S
C139 C138 1.392 . S
N140 C138 1.420 . S
N140 C141 1.244 . S
C141 N140 1.244 . S
H142 C145 0.929 . S
H143 C148 0.929 . S
H144 C150 0.930 . S
C145 H142 0.929 . S
C145 C146 1.398 . S
C145 C147 1.396 . S
C146 C145 1.398 . S
C146 C150 1.407 . S
C147 C145 1.396 . S
C147 C148 1.394 . S
C148 H143 0.929 . S
C148 C147 1.394 . S
C148 C149 1.382 . S
C149 C148 1.382 . S
C149 C150 1.392 . S
C149 N151 1.420 . S
C150 H144 0.930 . S
C150 C146 1.407 . S
C150 C149 1.392 . S
N151 C149 1.420 . S
N151 C152 1.244 . S
C152 N151 1.244 . S
H153 C156 0.929 . S
H154 C159 0.929 . S
H155 C161 0.930 . S
C156 H153 0.929 . S
C156 C157 1.398 . S
C156 C158 1.396 . S
C157 C156 1.398 . S
C157 C161 1.407 . S
C158 C156 1.396 . S
C158 C159 1.394 1_455 S
C159 H154 0.929 . S
C159 C158 1.394 1_655 S
C159 C160 1.382 . S
C160 C159 1.382 . S
C160 C161 1.392 1_655 S
C160 N162 1.420 . S
C161 H155 0.930 . S
C161 C157 1.407 . S
C161 C160 1.392 1_455 S
N162 C160 1.420 . S
N162 C163 1.244 . S
C163 N162 1.244 . S
H164 C167 0.929 . S
H165 C170 0.929 1_565 S
H166 C172 0.930 . S
C167 H164 0.929 . S
C167 C168 1.398 . S
C167 C169 1.396 . S
C168 C167 1.398 . S
C168 C172 1.407 . S
C169 C167 1.396 . S
C169 C170 1.394 . S
C170 H165 0.929 1_545 S
C170 C169 1.394 . S
C170 C171 1.382 . S
C171 C170 1.382 . S
C171 C172 1.392 . S
C171 N173 1.420 . S
C172 H166 0.930 . S
C172 C168 1.407 . S
C172 C171 1.392 . S
N173 C171 1.420 . S
N173 C174 1.244 1_545 S
C174 N173 1.244 1_565 S
H175 C178 0.929 . S
H176 C181 0.929 . S
H177 C183 0.930 . S
C178 H175 0.929 . S
C178 C179 1.398 . S
C178 C180 1.396 . S
C179 C178 1.398 . S
C179 C183 1.407 . S
C180 C178 1.396 . S
C180 C181 1.394 . S
C181 H176 0.929 . S
C181 C180 1.394 . S
C181 C182 1.382 . S
C182 C181 1.382 . S
C182 C183 1.392 . S
C182 N184 1.420 . S
C183 H177 0.930 . S
C183 C179 1.407 . S
C183 C182 1.392 . S
N184 C182 1.420 . S
N184 C185 1.244 . S
C185 N184 1.244 . S
H186 C194 0.950 . S
H187 C199 0.950 . S
H188 C196 0.950 . S
H189 C198 0.950 . S
H190 C200 0.950 . S
H191 C202 0.950 . S
H192 C204 0.950 . S
H193 C205 0.950 . S
C194 H186 0.950 . S
C194 C195 1.386 . S
C194 C196 1.391 . S
C195 C194 1.386 . S
C195 C199 1.393 . S
C196 H188 0.950 . S
C196 C194 1.391 . S
C196 C197 1.400 . S
C197 C196 1.400 . S
C197 C198 1.398 . S
C197 C203 1.491 . S
C198 H189 0.950 . S
C198 C197 1.398 . S
C198 C199 1.391 . S
C199 H187 0.950 . S
C199 C195 1.393 . S
C199 C198 1.391 . S
C200 H190 0.950 . S
C200 C201 1.386 . S
C200 C202 1.391 . S
C201 C200 1.386 . S
C201 C205 1.393 . S
C202 H191 0.950 . S
C202 C200 1.391 . S
C202 C203 1.400 . S
C203 C197 1.491 . S
C203 C202 1.400 . S
C203 C204 1.398 . S
C204 H192 0.950 . S
C204 C203 1.398 . S
C204 C205 1.391 . S
C205 H193 0.950 . S
C205 C201 1.393 . S
C205 C204 1.391 . S
H206 C214 0.950 . S
H207 C219 0.950 . S
H208 C216 0.950 . S
H209 C218 0.950 . S
H210 C220 0.950 . S
H211 C222 0.950 . S
H212 C224 0.950 . S
H213 C225 0.950 . S
C214 H206 0.950 . S
C214 C215 1.386 . S
C214 C216 1.391 . S
C215 C214 1.386 . S
C215 C219 1.393 . S
C216 H208 0.950 . S
C216 C214 1.391 . S
C216 C217 1.400 . S
C217 C216 1.400 . S
C217 C218 1.398 . S
C217 C223 1.491 . S
C218 H209 0.950 . S
C218 C217 1.398 . S
C218 C219 1.391 . S
C219 H207 0.950 . S
C219 C215 1.393 . S
C219 C218 1.391 . S
C220 H210 0.950 . S
C220 C221 1.386 . S
C220 C222 1.391 . S
C221 C220 1.386 . S
C221 C225 1.393 . S
C222 H211 0.950 . S
C222 C220 1.391 . S
C222 C223 1.400 . S
C223 C217 1.491 . S
C223 C222 1.400 . S
C223 C224 1.398 . S
C224 H212 0.950 . S
C224 C223 1.398 . S
C224 C225 1.391 . S
C225 H213 0.950 . S
C225 C221 1.393 . S
C225 C224 1.391 . S
H226 C234 0.950 . S
H227 C239 0.950 . S
H228 C236 0.950 . S
H229 C238 0.950 . S
H230 C240 0.950 . S
H231 C242 0.950 . S
H232 C244 0.950 . S
H233 C245 0.950 . S
C234 H226 0.950 . S
C234 C235 1.386 . S
C234 C236 1.391 . S
C235 C234 1.386 . S
C235 C239 1.393 . S
C236 H228 0.950 . S
C236 C234 1.391 . S
C236 C237 1.400 . S
C237 C236 1.400 . S
C237 C238 1.398 . S
C237 C243 1.491 . S
C238 H229 0.950 . S
C238 C237 1.398 . S
C238 C239 1.391 . S
C239 H227 0.950 . S
C239 C235 1.393 . S
C239 C238 1.391 . S
C240 H230 0.950 . S
C240 C241 1.386 . S
C240 C242 1.391 . S
C241 C240 1.386 . S
C241 C245 1.393 . S
C242 H231 0.950 . S
C242 C240 1.391 . S
C242 C243 1.400 . S
C243 C237 1.491 . S
C243 C242 1.400 . S
C243 C244 1.398 . S
C244 H232 0.950 . S
C244 C243 1.398 . S
C244 C245 1.391 . S
C245 H233 0.950 . S
C245 C241 1.393 . S
C245 C244 1.391 . S
H246 C254 0.950 . S
H247 C259 0.950 . S
H248 C256 0.950 . S
H249 C258 0.950 . S
H250 C260 0.950 . S
H251 C262 0.950 . S
H252 C264 0.950 . S
H253 C265 0.950 . S
C254 H246 0.950 . S
C254 C255 1.386 . S
C254 C256 1.391 . S
C255 C254 1.386 . S
C255 C259 1.393 . S
C256 H248 0.950 . S
C256 C254 1.391 . S
C256 C257 1.400 . S
C257 C256 1.400 . S
C257 C258 1.398 . S
C257 C263 1.491 . S
C258 H249 0.950 . S
C258 C257 1.398 . S
C258 C259 1.391 . S
C259 H247 0.950 . S
C259 C255 1.393 . S
C259 C258 1.391 . S
C260 H250 0.950 . S
C260 C261 1.386 . S
C260 C262 1.391 . S
C261 C260 1.386 . S
C261 C265 1.393 . S
C262 H251 0.950 . S
C262 C260 1.391 . S
C262 C263 1.400 . S
C263 C257 1.491 . S
C263 C262 1.400 . S
C263 C264 1.398 . S
C264 H252 0.950 . S
C264 C263 1.398 . S
C264 C265 1.391 . S
C265 H253 0.950 . S
C265 C261 1.393 . S
C265 C264 1.391 . S
H266 C274 0.950 . S
H267 C279 0.950 . S
H268 C276 0.950 . S
H269 C278 0.950 . S
H270 C280 0.950 . S
H271 C282 0.950 . S
H272 C284 0.950 . S
H273 C285 0.950 . S
C274 H266 0.950 . S
C274 C275 1.386 . S
C274 C276 1.391 . S
C275 C274 1.386 . S
C275 C279 1.393 . S
C276 H268 0.950 . S
C276 C274 1.391 . S
C276 C277 1.400 . S
C277 C276 1.400 . S
C277 C278 1.398 . S
C277 C283 1.491 . S
C278 H269 0.950 . S
C278 C277 1.398 . S
C278 C279 1.391 . S
C279 H267 0.950 . S
C279 C275 1.393 . S
C279 C278 1.391 . S
C280 H270 0.950 . S
C280 C281 1.386 . S
C280 C282 1.391 . S
C281 C280 1.386 . S
C281 C285 1.393 . S
C282 H271 0.950 . S
C282 C280 1.391 . S
C282 C283 1.400 . S
C283 C277 1.491 . S
C283 C282 1.400 . S
C283 C284 1.398 . S
C284 H272 0.950 . S
C284 C283 1.398 . S
C284 C285 1.391 . S
C285 H273 0.950 . S
C285 C281 1.393 . S
C285 C284 1.391 . S
H286 C294 0.950 . S
H287 C299 0.950 . S
H288 C296 0.950 . S
H289 C298 0.950 . S
H290 C300 0.950 . S
H291 C302 0.950 . S
H292 C304 0.950 . S
H293 C305 0.950 . S
C294 H286 0.950 . S
C294 C295 1.386 . S
C294 C296 1.391 . S
C295 C294 1.386 . S
C295 C299 1.393 . S
C296 H288 0.950 . S
C296 C294 1.391 . S
C296 C297 1.400 . S
C297 C296 1.400 . S
C297 C298 1.398 . S
C297 C303 1.491 . S
C298 H289 0.950 . S
C298 C297 1.398 . S
C298 C299 1.391 . S
C299 H287 0.950 . S
C299 C295 1.393 . S
C299 C298 1.391 . S
C300 H290 0.950 . S
C300 C301 1.386 . S
C300 C302 1.391 . S
C301 C300 1.386 . S
C301 C305 1.393 . S
C302 H291 0.950 . S
C302 C300 1.391 . S
C302 C303 1.400 . S
C303 C297 1.491 . S
C303 C302 1.400 . S
C303 C304 1.398 . S
C304 H292 0.950 . S
C304 C303 1.398 . S
C304 C305 1.391 . S
C305 H293 0.950 . S
C305 C301 1.393 . S
C305 C304 1.391 . S
H306 C314 0.950 . S
H307 C319 0.950 . S
H308 C316 0.950 . S
H309 C318 0.950 . S
H310 C320 0.950 . S
H311 C322 0.950 . S
H312 C324 0.950 . S
H313 C325 0.950 . S
C314 H306 0.950 . S
C314 C315 1.386 . S
C314 C316 1.391 . S
C315 C314 1.386 . S
C315 C319 1.393 . S
C316 H308 0.950 . S
C316 C314 1.391 . S
C316 C317 1.400 . S
C317 C316 1.400 . S
C317 C318 1.398 . S
C317 C323 1.491 . S
C318 H309 0.950 . S
C318 C317 1.398 . S
C318 C319 1.391 . S
C319 H307 0.950 . S
C319 C315 1.393 . S
C319 C318 1.391 . S
C320 H310 0.950 . S
C320 C321 1.386 . S
C320 C322 1.391 . S
C321 C320 1.386 . S
C321 C325 1.393 . S
C322 H311 0.950 . S
C322 C320 1.391 . S
C322 C323 1.400 . S
C323 C317 1.491 . S
C323 C322 1.400 . S
C323 C324 1.398 . S
C324 H312 0.950 . S
C324 C323 1.398 . S
C324 C325 1.391 . S
C325 H313 0.950 . S
C325 C321 1.393 . S
C325 C324 1.391 . S
H326 C334 0.950 . S
H327 C339 0.950 . S
H328 C336 0.950 . S
H329 C338 0.950 . S
H330 C340 0.950 . S
H331 C342 0.950 . S
H332 C344 0.950 . S
H333 C345 0.950 . S
C334 H326 0.950 . S
C334 C335 1.386 . S
C334 C336 1.391 . S
C335 C334 1.386 . S
C335 C339 1.393 . S
C336 H328 0.950 . S
C336 C334 1.391 . S
C336 C337 1.400 . S
C337 C336 1.400 . S
C337 C338 1.398 . S
C337 C343 1.491 . S
C338 H329 0.950 . S
C338 C337 1.398 . S
C338 C339 1.391 . S
C339 H327 0.950 . S
C339 C335 1.393 . S
C339 C338 1.391 . S
C340 H330 0.950 . S
C340 C341 1.386 . S
C340 C342 1.391 . S
C341 C340 1.386 . S
C341 C345 1.393 . S
C342 H331 0.950 . S
C342 C340 1.391 . S
C342 C343 1.400 . S
C343 C337 1.491 . S
C343 C342 1.400 . S
C343 C344 1.398 . S
C344 H332 0.950 . S
C344 C343 1.398 . S
C344 C345 1.391 . S
C345 H333 0.950 . S
C345 C341 1.393 . S
C345 C344 1.391 . S
H346 C354 0.950 . S
H347 C359 0.950 . S
H348 C356 0.950 . S
H349 C358 0.950 . S
H350 C360 0.950 . S
H351 C362 0.950 . S
H352 C364 0.950 . S
H353 C365 0.950 . S
C354 H346 0.950 . S
C354 C355 1.386 . S
C354 C356 1.391 . S
C355 C354 1.386 . S
C355 C359 1.393 . S
C356 H348 0.950 . S
C356 C354 1.391 . S
C356 C357 1.400 . S
C357 C356 1.400 . S
C357 C358 1.398 . S
C357 C363 1.491 . S
C358 H349 0.950 . S
C358 C357 1.398 . S
C358 C359 1.391 . S
C359 H347 0.950 . S
C359 C355 1.393 . S
C359 C358 1.391 . S
C360 H350 0.950 . S
C360 C361 1.386 . S
C360 C362 1.391 . S
C361 C360 1.386 . S
C361 C365 1.393 . S
C362 H351 0.950 . S
C362 C360 1.391 . S
C362 C363 1.400 . S
C363 C357 1.491 . S
C363 C362 1.400 . S
C363 C364 1.398 . S
C364 H352 0.950 . S
C364 C363 1.398 . S
C364 C365 1.391 . S
C365 H353 0.950 . S
C365 C361 1.393 . S
C365 C364 1.391 . S
H366 C374 0.950 . S
H367 C379 0.950 . S
H368 C376 0.950 . S
H369 C378 0.950 . S
H370 C380 0.950 . S
H371 C382 0.950 . S
H372 C384 0.950 . S
H373 C385 0.950 . S
C374 H366 0.950 . S
C374 C375 1.386 . S
C374 C376 1.391 . S
C375 C374 1.386 . S
C375 C379 1.393 . S
C376 H368 0.950 . S
C376 C374 1.391 . S
C376 C377 1.400 . S
C377 C376 1.400 . S
C377 C378 1.398 . S
C377 C383 1.491 . S
C378 H369 0.950 . S
C378 C377 1.398 . S
C378 C379 1.391 . S
C379 H367 0.950 . S
C379 C375 1.393 . S
C379 C378 1.391 . S
C380 H370 0.950 . S
C380 C381 1.386 . S
C380 C382 1.391 . S
C381 C380 1.386 . S
C381 C385 1.393 . S
C382 H371 0.950 . S
C382 C380 1.391 . S
C382 C383 1.400 . S
C383 C377 1.491 . S
C383 C382 1.400 . S
C383 C384 1.398 . S
C384 H372 0.950 . S
C384 C383 1.398 . S
C384 C385 1.391 . S
C385 H373 0.950 . S
C385 C381 1.393 . S
C385 C384 1.391 . S
H386 C394 0.950 . S
H387 C399 0.950 . S
H388 C396 0.950 . S
H389 C398 0.950 . S
H390 C400 0.950 . S
H391 C402 0.950 . S
H392 C404 0.950 . S
H393 C405 0.950 . S
C394 H386 0.950 . S
C394 C395 1.386 . S
C394 C396 1.391 . S
C395 C394 1.386 . S
C395 C399 1.393 . S
C396 H388 0.950 . S
C396 C394 1.391 . S
C396 C397 1.400 . S
C397 C396 1.400 . S
C397 C398 1.398 . S
C397 C403 1.491 . S
C398 H389 0.950 . S
C398 C397 1.398 . S
C398 C399 1.391 . S
C399 H387 0.950 . S
C399 C395 1.393 . S
C399 C398 1.391 . S
C400 H390 0.950 . S
C400 C401 1.386 . S
C400 C402 1.391 . S
C401 C400 1.386 . S
C401 C405 1.393 . S
C402 H391 0.950 . S
C402 C400 1.391 . S
C402 C403 1.400 . S
C403 C397 1.491 . S
C403 C402 1.400 . S
C403 C404 1.398 . S
C404 H392 0.950 . S
C404 C403 1.398 . S
C404 C405 1.391 . S
C405 H393 0.950 . S
C405 C401 1.393 . S
C405 C404 1.391 . S
H406 C414 0.950 . S
H407 C419 0.950 . S
H408 C416 0.950 . S
H409 C418 0.950 . S
H410 C420 0.950 . S
H411 C422 0.950 . S
H412 C424 0.950 . S
H413 C425 0.950 . S
C414 H406 0.950 . S
C414 C415 1.386 . S
C414 C416 1.391 . S
C415 C414 1.386 . S
C415 C419 1.393 . S
C416 H408 0.950 . S
C416 C414 1.391 . S
C416 C417 1.400 . S
C417 C416 1.400 . S
C417 C418 1.398 . S
C417 C423 1.491 . S
C418 H409 0.950 . S
C418 C417 1.398 . S
C418 C419 1.391 . S
C419 H407 0.950 . S
C419 C415 1.393 . S
C419 C418 1.391 . S
C420 H410 0.950 . S
C420 C421 1.386 . S
C420 C422 1.391 . S
C421 C420 1.386 . S
C421 C425 1.393 . S
C422 H411 0.950 . S
C422 C420 1.391 . S
C422 C423 1.400 . S
C423 C417 1.491 . S
C423 C422 1.400 . S
C423 C424 1.398 . S
C424 H412 0.950 . S
C424 C423 1.398 . S
C424 C425 1.391 . S
C425 H413 0.950 . S
C425 C421 1.393 . S
C425 C424 1.391 . S
H426 C434 0.950 . S
H427 C439 0.950 . S
H428 C436 0.950 . S
H429 C438 0.950 . S
H430 C440 0.950 . S
H431 C442 0.950 . S
H432 C444 0.950 1_655 S
H433 C445 0.950 1_655 S
C434 H426 0.950 . S
C434 C435 1.386 1_655 S
C434 C436 1.391 . S
C435 C434 1.386 1_455 S
C435 C439 1.393 . S
C436 H428 0.950 . S
C436 C434 1.391 . S
C436 C437 1.400 1_655 S
C437 C436 1.400 1_455 S
C437 C438 1.398 . S
C437 C443 1.491 1_554 S
C438 H429 0.950 . S
C438 C437 1.398 . S
C438 C439 1.391 . S
C439 H427 0.950 . S
C439 C435 1.393 . S
C439 C438 1.391 . S
C440 H430 0.950 . S
C440 C441 1.386 . S
C440 C442 1.391 . S
C441 C440 1.386 . S
C441 C445 1.393 . S
C442 H431 0.950 . S
C442 C440 1.391 . S
C442 C443 1.400 . S
C443 C437 1.491 1_556 S
C443 C442 1.400 . S
C443 C444 1.398 . S
C444 H432 0.950 1_455 S
C444 C443 1.398 . S
C444 C445 1.391 . S
C445 H433 0.950 1_455 S
C445 C441 1.393 . S
C445 C444 1.391 . S
H446 C454 0.950 . S
H447 C459 0.950 . S
H448 C456 0.950 . S
H449 C458 0.950 . S
H450 C460 0.950 . S
H451 C462 0.950 . S
H452 C464 0.950 . S
H453 C465 0.950 . S
C454 H446 0.950 . S
C454 C455 1.386 . S
C454 C456 1.391 . S
C455 C454 1.386 . S
C455 C459 1.393 . S
C456 H448 0.950 . S
C456 C454 1.391 . S
C456 C457 1.400 . S
C457 C456 1.400 . S
C457 C458 1.398 . S
C457 C463 1.491 . S
C458 H449 0.950 . S
C458 C457 1.398 . S
C458 C459 1.391 . S
C459 H447 0.950 . S
C459 C455 1.393 . S
C459 C458 1.391 . S
C460 H450 0.950 . S
C460 C461 1.386 . S
C460 C462 1.391 . S
C461 C460 1.386 . S
C461 C465 1.393 . S
C462 H451 0.950 . S
C462 C460 1.391 . S
C462 C463 1.400 . S
C463 C457 1.491 . S
C463 C462 1.400 . S
C463 C464 1.398 . S
C464 H452 0.950 . S
C464 C463 1.398 . S
C464 C465 1.391 . S
C465 H453 0.950 . S
C465 C461 1.393 . S
C465 C464 1.391 . S
H466 C474 0.950 . S
H467 C479 0.950 . S
H468 C476 0.950 . S
H469 C478 0.950 . S
H470 C480 0.950 . S
H471 C482 0.950 . S
H472 C484 0.950 . S
H473 C485 0.950 . S
C474 H466 0.950 . S
C474 C475 1.386 . S
C474 C476 1.391 . S
C475 C474 1.386 . S
C475 C479 1.393 . S
C476 H468 0.950 . S
C476 C474 1.391 . S
C476 C477 1.400 . S
C477 C476 1.400 . S
C477 C478 1.398 . S
C477 C483 1.491 . S
C478 H469 0.950 . S
C478 C477 1.398 . S
C478 C479 1.391 . S
C479 H467 0.950 . S
C479 C475 1.393 . S
C479 C478 1.391 . S
C480 H470 0.950 . S
C480 C481 1.386 . S
C480 C482 1.391 . S
C481 C480 1.386 . S
C481 C485 1.393 . S
C482 H471 0.950 . S
C482 C480 1.391 . S
C482 C483 1.400 . S
C483 C477 1.491 . S
C483 C482 1.400 . S
C483 C484 1.398 . S
C484 H472 0.950 . S
C484 C483 1.398 . S
C484 C485 1.391 . S
C485 H473 0.950 . S
C485 C481 1.393 . S
C485 C484 1.391 . S
H486 C494 0.950 . S
H487 C499 0.950 . S
H488 C496 0.950 . S
H489 C498 0.950 . S
H490 C500 0.950 . S
H491 C502 0.950 . S
H492 C504 0.950 . S
H493 C505 0.950 . S
C494 H486 0.950 . S
C494 C495 1.386 . S
C494 C496 1.391 . S
C495 C494 1.386 . S
C495 C499 1.393 . S
C496 H488 0.950 . S
C496 C494 1.391 . S
C496 C497 1.400 . S
C497 C496 1.400 . S
C497 C498 1.398 . S
C497 C503 1.491 . S
C498 H489 0.950 . S
C498 C497 1.398 . S
C498 C499 1.391 . S
C499 H487 0.950 . S
C499 C495 1.393 . S
C499 C498 1.391 . S
C500 H490 0.950 . S
C500 C501 1.386 . S
C500 C502 1.391 . S
C501 C500 1.386 . S
C501 C505 1.393 . S
C502 H491 0.950 . S
C502 C500 1.391 . S
C502 C503 1.400 . S
C503 C497 1.491 . S
C503 C502 1.400 . S
C503 C504 1.398 . S
C504 H492 0.950 . S
C504 C503 1.398 . S
C504 C505 1.391 . S
C505 H493 0.950 . S
C505 C501 1.393 . S
C505 C504 1.391 . S
H506 C514 0.950 . S
H507 C519 0.950 . S
H508 C516 0.950 . S
H509 C518 0.950 . S
H510 C520 0.950 . S
H511 C522 0.950 . S
H512 C524 0.950 . S
H513 C525 0.950 . S
C514 H506 0.950 . S
C514 C515 1.386 . S
C514 C516 1.391 . S
C515 C514 1.386 . S
C515 C519 1.393 . S
C516 H508 0.950 . S
C516 C514 1.391 . S
C516 C517 1.400 . S
C517 C516 1.400 . S
C517 C518 1.398 . S
C517 C523 1.491 . S
C518 H509 0.950 . S
C518 C517 1.398 . S
C518 C519 1.391 . S
C519 H507 0.950 . S
C519 C515 1.393 . S
C519 C518 1.391 . S
C520 H510 0.950 . S
C520 C521 1.386 . S
C520 C522 1.391 1_554 S
C521 C520 1.386 . S
C521 C525 1.393 . S
C522 H511 0.950 . S
C522 C520 1.391 1_556 S
C522 C523 1.400 . S
C523 C517 1.491 . S
C523 C522 1.400 . S
C523 C524 1.398 1_556 S
C524 H512 0.950 . S
C524 C523 1.398 1_554 S
C524 C525 1.391 . S
C525 H513 0.950 . S
C525 C521 1.393 . S
C525 C524 1.391 . S
H526 C534 0.950 . S
H527 C539 0.950 . S
H528 C536 0.950 . S
H529 C538 0.945 . S
H530 C540 0.950 1_655 S
H531 C542 0.938 . S
H532 C544 0.950 . S
H533 C545 0.950 . S
C534 H526 0.950 . S
C534 C535 1.386 . S
C534 C536 1.391 . S
C535 C534 1.386 . S
C535 C539 1.393 . S
C536 H528 0.950 . S
C536 C534 1.391 . S
C536 C537 1.400 . S
C537 C536 1.400 . S
C537 C538 1.398 . S
C537 C543 1.491 . S
C538 H529 0.945 . S
C538 C537 1.398 . S
C538 C539 1.391 . S
C539 H527 0.950 . S
C539 C535 1.393 . S
C539 C538 1.391 . S
C540 H530 0.950 1_455 S
C540 C541 1.386 . S
C540 C542 1.391 . S
C541 C540 1.386 . S
C541 C545 1.393 . S
C542 H531 0.938 . S
C542 C540 1.391 . S
C542 C543 1.400 . S
C543 C537 1.491 . S
C543 C542 1.400 . S
C543 C544 1.398 . S
C544 H532 0.950 . S
C544 C543 1.398 . S
C544 C545 1.391 . S
C545 H533 0.950 . S
C545 C541 1.393 . S
C545 C544 1.391 . S
C195 C6 0.678 . S
C201 C185 0.693 . S
C215 C59 1.942 . S
C221 C163 1.903 . S
C235 C86 1.275 . S
C241 C174 1.276 . S
C255 C15 0.306 . S
C261 C179 0.225 . S
C281 C157 1.842 . S
C275 C50 1.855 . S
C301 C168 1.149 . S
C295 C95 1.166 . S
C315 C46 1.285 . S
C321 C141 1.287 . S
C335 C99 3.042 . S
C341 C146 3.004 1_655 S
C355 C10 1.874 . S
C361 C124 1.861 . S
C381 C135 1.148 . S
C375 C55 1.140 . S
C401 C152 3.028 . S
C395 C90 3.050 . S
C415 C19 1.943 . S
C421 C130 1.920 . S
C441 C147 1.734 . S
C435 C18 1.683 . S
C455 C49 1.402 . S
C461 C125 1.464 . S
C475 C98 1.510 . S
C481 C136 1.542 . S
C501 C169 1.514 . S
C495 C58 1.506 . S
C521 C180 1.251 . S
C515 C89 1.225 . S
C535 C9 1.389 . S
C541 C158 1.430 . S
