# Generated by pormake.
# Topology rtl, (3,6)-cn, num edge types: 1
# Building blocks:
#     Node 0, Type 0, BuildingBlock: ESEHIV_clean_linker_0, # of connection points: 3
#     Node 1, Type 0, BuildingBlock: ESEHIV_clean_linker_0, # of connection points: 3
#     Node 2, Type 0, BuildingBlock: ESEHIV_clean_linker_0, # of connection points: 3
#     Node 3, Type 0, BuildingBlock: ESEHIV_clean_linker_0, # of connection points: 3
#     Node 4, Type 1, BuildingBlock: FUNLAD_clean_sbu_0, # of connection points: 6
#     Node 5, Type 1, BuildingBlock: FUNLAD_clean_sbu_0, # of connection points: 6
#     Edge 6, Type (0, 1), BuildingBlock: ZUJKAS_clean_linker_0, # of connection points: 2
#     Edge 7, Type (0, 1), BuildingBlock: ZUJKAS_clean_linker_0, # of connection points: 2
#     Edge 8, Type (0, 1), BuildingBlock: ZUJKAS_clean_linker_0, # of connection points: 2
#     Edge 9, Type (0, 1), BuildingBlock: ZUJKAS_clean_linker_0, # of connection points: 2
#     Edge 10, Type (0, 1), BuildingBlock: ZUJKAS_clean_linker_0, # of connection points: 2
#     Edge 11, Type (0, 1), BuildingBlock: ZUJKAS_clean_linker_0, # of connection points: 2
#     Edge 12, Type (0, 1), BuildingBlock: ZUJKAS_clean_linker_0, # of connection points: 2
#     Edge 13, Type (0, 1), BuildingBlock: ZUJKAS_clean_linker_0, # of connection points: 2
#     Edge 14, Type (0, 1), BuildingBlock: ZUJKAS_clean_linker_0, # of connection points: 2
#     Edge 15, Type (0, 1), BuildingBlock: ZUJKAS_clean_linker_0, # of connection points: 2
#     Edge 16, Type (0, 1), BuildingBlock: ZUJKAS_clean_linker_0, # of connection points: 2
#     Edge 17, Type (0, 1), BuildingBlock: ZUJKAS_clean_linker_0, # of connection points: 2
# Relax obj value: 0.027
# Max RMSD: 0.091
# Mean RMSD: 0.077
data_MOF--net-rtl--node1-FUNLAD_clean_sbu_0--node2-ESEHIV_clean_linker_0--edge1-ZUJKAS_clean_linker_0
_symmetry_space_group_name_H-M    P1
_symmetry_Int_Tables_number       1
_symmetry_cell_setting            triclinic
loop_
_symmetry_equiv_pos_as_xyz
'x, y, z'
_cell_length_a     49.559853
_cell_length_b     40.488952
_cell_length_c     28.662935
_cell_angle_alpha  90.001791
_cell_angle_beta   90.978529
_cell_angle_gamma 90.564973
loop_
_atom_site_label
_atom_site_type_symbol
_atom_site_fract_x
_atom_site_fract_y
_atom_site_fract_z
_atom_type_partial_charge
H0 H 0.08087 0.79431 0.01396 0.0
H1 H 0.13778 0.73599 0.09216 0.0
H2 H 0.13956 0.73684 0.94204 0.0
C3 C 0.09709 0.77653 0.01484 0.0
C4 C 0.10852 0.76621 0.97287 0.0
C5 C 0.1077 0.76603 0.05801 0.0
C6 C 0.12965 0.74435 0.05891 0.0
C7 C 0.14116 0.73343 0.01722 0.0
C8 C 0.13042 0.74447 0.97434 0.0
H9 H 0.57285 0.71451 0.51692 0.0
H10 H 0.63308 0.77067 0.44444 0.0
H11 H 0.63143 0.77213 0.59448 0.0
C12 C 0.58946 0.73214 0.51757 0.0
C13 C 0.60043 0.74262 0.56061 0.0
C14 C 0.60118 0.74205 0.4755 0.0
C15 C 0.62365 0.76347 0.47678 0.0
C16 C 0.63477 0.77437 0.51955 0.0
C17 C 0.62293 0.76394 0.5613 0.0
H18 H 0.92158 0.20672 0.0147 0.0
H19 H 0.86191 0.26572 0.08136 0.0
H20 H 0.86497 0.262 0.93136 0.0
C21 C 0.90496 0.22388 0.01222 0.0
C22 C 0.89478 0.23302 0.96813 0.0
C23 C 0.89324 0.23556 0.05316 0.0
C24 C 0.87137 0.25724 0.04979 0.0
C25 C 0.86111 0.26712 0.00597 0.0
C26 C 0.87305 0.25501 0.96527 0.0
H27 H 0.42897 0.2888 0.50598 0.0
H28 H 0.36992 0.23433 0.58344 0.0
H29 H 0.37067 0.22714 0.43378 0.0
C30 C 0.41258 0.27088 0.50678 0.0
C31 C 0.40163 0.25844 0.46472 0.0
C32 C 0.40115 0.26249 0.5497 0.0
C33 C 0.37886 0.24089 0.5504 0.0
C34 C 0.36787 0.22787 0.50877 0.0
C35 C 0.37949 0.23652 0.46608 0.0
C36 C 0.01633 0.95703 0.44412 0.0
N37 N 0.05957 0.03324 0.5109 0.0
C38 C 0.08119 0.01294 0.50807 0.0
C39 C 0.1073 0.02604 0.50684 0.0
C40 C 0.11133 0.06042 0.5091 0.0
C41 C 0.0886 0.08076 0.51236 0.0
C42 C 0.0628 0.06661 0.51297 0.0
Zn43 Zn 0.02176 0.01284 0.51181 0.0
C44 C 0.98433 0.04464 0.44398 0.0
N45 N 0.94327 0.96887 0.51357 0.0
C46 C 0.94051 0.93543 0.51446 0.0
C47 C 0.92135 0.98884 0.51333 0.0
C48 C 0.89536 0.97527 0.51402 0.0
C49 C 0.8919 0.94082 0.51512 0.0
C50 C 0.91491 0.92082 0.51531 0.0
Zn51 Zn 0.98099 0.98947 0.5127 0.0
O52 O 0.03278 0.97869 0.45994 0.0
C53 C 0.01842 0.95777 0.58073 0.0
O54 O 0.99253 0.95572 0.45992 0.0
H55 H 0.92401 0.01538 0.51276 0.0
H56 H 0.0782 0.98647 0.50656 0.0
H57 H 0.95822 0.92002 0.51446 0.0
O58 O 0.03444 0.9794 0.56441 0.0
O59 O 0.99427 0.9562 0.5652 0.0
H60 H 0.04534 0.0823 0.51521 0.0
O61 O 0.96995 0.02345 0.56506 0.0
O62 O 0.01005 0.04682 0.56382 0.0
O63 O 0.96828 0.02315 0.46056 0.0
O64 O 0.0086 0.04598 0.45902 0.0
C65 C 0.98638 0.04542 0.58015 0.0
H66 H 0.1241 0.00935 0.50356 0.0
H67 H 0.09067 0.10734 0.51495 0.0
H68 H 0.87818 0.99159 0.51435 0.0
H69 H 0.91314 0.89414 0.51553 0.0
C70 C 0.48556 0.4585 0.94306 0.0
N71 N 0.56001 0.47136 0.01227 0.0
C72 C 0.56227 0.43796 0.00974 0.0
C73 C 0.58761 0.42341 0.00765 0.0
C74 C 0.61095 0.44338 0.00823 0.0
C75 C 0.60806 0.4778 0.01137 0.0
C76 C 0.58225 0.49135 0.01326 0.0
Zn77 Zn 0.5222 0.49108 0.01347 0.0
C78 C 0.51611 0.54738 0.94785 0.0
N79 N 0.44269 0.5308 0.01479 0.0
C80 C 0.42062 0.51053 0.0129 0.0
C81 C 0.44011 0.56415 0.01765 0.0
C82 C 0.4146 0.57835 0.01896 0.0
C83 C 0.39145 0.55806 0.01717 0.0
C84 C 0.39469 0.52372 0.01393 0.0
Zn85 Zn 0.48055 0.51125 0.01377 0.0
O86 O 0.50959 0.45866 0.9592 0.0
C87 C 0.48645 0.45495 0.07928 0.0
O88 O 0.46854 0.4784 0.9597 0.0
H89 H 0.4579 0.57983 0.0189 0.0
H90 H 0.54435 0.4225 0.00918 0.0
H91 H 0.42313 0.48407 0.01078 0.0
O92 O 0.51042 0.45573 0.06418 0.0
O93 O 0.46943 0.47573 0.06392 0.0
H94 H 0.57999 0.51785 0.01516 0.0
O95 O 0.49322 0.54376 0.06817 0.0
O96 O 0.53424 0.52385 0.06739 0.0
O97 O 0.49221 0.54646 0.96322 0.0
O98 O 0.5333 0.52675 0.9631 0.0
C99 C 0.5173 0.54381 0.08415 0.0
H100 H 0.58891 0.39675 0.00602 0.0
H101 H 0.62551 0.49411 0.01154 0.0
H102 H 0.41302 0.60498 0.02081 0.0
H103 H 0.37738 0.50717 0.0129 0.0
H104 H 0.32165 0.24018 0.55519 0.0
H105 H 0.28012 0.20722 0.5551 0.0
H106 H 0.31656 0.13584 0.46449 0.0
H107 H 0.35808 0.16933 0.46358 0.0
H108 H 0.26694 0.15029 0.43497 0.0
H109 H 0.26399 0.12335 0.62385 0.0
H110 H 0.26607 0.16691 0.61317 0.0
H111 H 0.29346 0.14067 0.59659 0.0
C112 C 0.32091 0.21723 0.53577 0.0
C113 C 0.34313 0.2071 0.50974 0.0
C114 C 0.29722 0.19835 0.53588 0.0
C115 C 0.29543 0.16866 0.51068 0.0
C116 C 0.31757 0.15854 0.48447 0.0
H117 H 0.15768 0.03607 0.5494 0.0
H118 H 0.20318 0.05945 0.54653 0.0
C119 C 0.34123 0.17766 0.48391 0.0
C120 C 0.26997 0.14913 0.51004 0.0
H121 H 0.2224 0.1154 0.58085 0.0
C122 C 0.25734 0.1423 0.46684 0.0
C123 C 0.25769 0.13816 0.55155 0.0
C124 C 0.27117 0.14233 0.59884 0.0
C125 C 0.23229 0.1259 0.46412 0.0
C126 C 0.21916 0.11698 0.50581 0.0
C127 C 0.23227 0.1227 0.54891 0.0
C128 C 0.19167 0.10217 0.50568 0.0
C129 C 0.22033 0.11809 0.41657 0.0
C130 C 0.17 0.11851 0.48399 0.0
C131 C 0.14401 0.10488 0.48475 0.0
C132 C 0.13904 0.07488 0.50802 0.0
C133 C 0.16078 0.05884 0.53035 0.0
C134 C 0.18681 0.07232 0.5291 0.0
H135 H 0.23624 0.11637 0.38986 0.0
H136 H 0.20872 0.0945 0.41684 0.0
H137 H 0.2065 0.13821 0.40586 0.0
H138 H 0.1731 0.14201 0.46676 0.0
H139 H 0.12788 0.11779 0.46678 0.0
H140 H 0.18579 0.739 0.07412 0.0
H141 H 0.22635 0.70511 0.07387 0.0
H142 H 0.19179 0.64553 0.96291 0.0
H143 H 0.15108 0.67938 0.96292 0.0
H144 H 0.23277 0.63738 0.0879 0.0
H145 H 0.26437 0.67478 0.91024 0.0
H146 H 0.23873 0.69641 0.94171 0.0
H147 H 0.23081 0.65786 0.9133 0.0
C148 C 0.18669 0.71847 0.04999 0.0
C149 C 0.16527 0.71193 0.01841 0.0
C150 C 0.20992 0.69923 0.04976 0.0
C151 C 0.21223 0.67315 0.01789 0.0
C152 C 0.19064 0.66601 0.98708 0.0
H153 H 0.34678 0.54137 0.96441 0.0
H154 H 0.3021 0.56676 0.9658 0.0
C155 C 0.16742 0.68532 0.98717 0.0
C156 C 0.23736 0.65366 0.01693 0.0
H157 H 0.29068 0.63431 0.94847 0.0
C158 C 0.24543 0.63665 0.05741 0.0
C159 C 0.25379 0.65274 0.97705 0.0
C160 C 0.24669 0.67162 0.9332 0.0
C161 C 0.26952 0.61872 0.05911 0.0
C162 C 0.28611 0.61822 0.01948 0.0
C163 C 0.27784 0.63473 0.97874 0.0
C164 C 0.3127 0.60186 0.02015 0.0
C165 C 0.27695 0.60031 0.10318 0.0
C166 C 0.33343 0.61335 0.05006 0.0
C167 C 0.3589 0.59892 0.04939 0.0
C168 C 0.36414 0.57276 0.01866 0.0
C169 C 0.34327 0.5612 0.98887 0.0
C170 C 0.31781 0.57577 0.98944 0.0
H171 H 0.2591 0.59586 0.12533 0.0
H172 H 0.28627 0.57621 0.09501 0.0
H173 H 0.29184 0.61521 0.12372 0.0
H174 H 0.33002 0.63383 0.07348 0.0
H175 H 0.37448 0.6082 0.07304 0.0
H176 H 0.64766 0.82761 0.46495 0.0
H177 H 0.69069 0.85807 0.4636 0.0
H178 H 0.72157 0.79707 0.57525 0.0
H179 H 0.679 0.76613 0.57621 0.0
H180 H 0.71915 0.89283 0.53948 0.0
H181 H 0.77666 0.78768 0.46809 0.0
H182 H 0.74026 0.78939 0.46533 0.0
H183 H 0.75723 0.7782 0.51883 0.0
C184 C 0.66366 0.8207 0.48915 0.0
C185 C 0.65998 0.79444 0.5206 0.0
C186 C 0.68812 0.8382 0.48848 0.0
C187 C 0.70932 0.82948 0.51892 0.0
C188 C 0.7055 0.80386 0.55111 0.0
H189 H 0.8748 0.88869 0.56789 0.0
H190 H 0.82985 0.86325 0.56845 0.0
C191 C 0.68108 0.78645 0.55191 0.0
C192 C 0.73568 0.84673 0.51669 0.0
H193 H 0.80213 0.83426 0.4938 0.0
C194 C 0.73731 0.88018 0.52923 0.0
C195 C 0.75922 0.83003 0.50324 0.0
C196 C 0.75836 0.79441 0.4877 0.0
C197 C 0.76214 0.8972 0.53 0.0
C198 C 0.78575 0.88038 0.51703 0.0
C199 C 0.784 0.84703 0.5039 0.0
C200 C 0.81262 0.89666 0.51739 0.0
C201 C 0.76301 0.93271 0.54597 0.0
C202 C 0.81784 0.92371 0.48821 0.0
C203 C 0.84352 0.93826 0.48774 0.0
C204 C 0.86449 0.92579 0.51613 0.0
C205 C 0.85916 0.89863 0.54523 0.0
C206 C 0.83348 0.88418 0.54577 0.0
H207 H 0.74468 0.93934 0.56556 0.0
H208 H 0.78106 0.93761 0.5685 0.0
H209 H 0.76417 0.94911 0.51504 0.0
H210 H 0.80218 0.93323 0.46524 0.0
H211 H 0.84711 0.95883 0.46441 0.0
H212 H 0.85007 0.32213 0.05768 0.0
H213 H 0.80846 0.35438 0.0566 0.0
H214 H 0.77603 0.29275 0.94609 0.0
H215 H 0.81714 0.25989 0.94775 0.0
H216 H 0.78226 0.3895 0.98169 0.0
H217 H 0.71926 0.28663 0.04972 0.0
H218 H 0.75567 0.28639 0.05289 0.0
H219 H 0.73833 0.27651 -0.00097 0.0
C220 C 0.83403 0.31542 0.03323 0.0
C221 C 0.83684 0.28834 0.00298 0.0
C222 C 0.81038 0.33397 0.03248 0.0
C223 C 0.78908 0.32562 0.00173 0.0
C224 C 0.79212 0.29928 0.97053 0.0
H225 H 0.6263 0.39254 0.95222 0.0
H226 H 0.67026 0.36581 0.95011 0.0
C227 C 0.81574 0.28075 0.97121 0.0
C228 C 0.7634 0.34395 0.00293 0.0
H229 H 0.69622 0.33446 0.02412 0.0
C230 C 0.76344 0.37759 0.99114 0.0
C231 C 0.73895 0.32826 0.01544 0.0
C232 C 0.73795 0.29254 0.03041 0.0
C233 C 0.73945 0.39581 0.99035 0.0
C234 C 0.71496 0.38001 0.00245 0.0
C235 C 0.71502 0.34645 0.01466 0.0
C236 C 0.68888 0.39761 0.00235 0.0
C237 C 0.7404 0.43153 0.97544 0.0
C238 C 0.68477 0.42433 0.03251 0.0
C239 C 0.6596 0.43962 0.03391 0.0
C240 C 0.63805 0.42822 0.00547 0.0
C241 C 0.64237 0.40162 0.97503 0.0
C242 C 0.66751 0.38643 0.97359 0.0
H243 H 0.75914 0.43752 0.95634 0.0
H244 H 0.72273 0.43761 0.95281 0.0
H245 H 0.73987 0.44752 0.00684 0.0
H246 H 0.70082 0.43288 0.05574 0.0
H247 H 0.65681 0.45976 0.05818 0.0
H248 H 0.13669 0.79083 0.13201 0.0
H249 H 0.11944 0.81896 0.20082 0.0
H250 H 0.03786 0.80187 0.15142 0.0
H251 H 0.05494 0.77346 0.08248 0.0
H252 H 0.08237 0.87726 0.18956 0.0
H253 H 0.04072 0.77374 0.29515 0.0
H254 H 0.06722 0.76777 0.2535 0.0
H255 H 0.03322 0.77417 0.23341 0.0
C256 C 0.11507 0.7924 0.1363 0.0
C257 C 0.09714 0.77992 0.10191 0.0
C258 C 0.10528 0.8086 0.17546 0.0
C259 C 0.07743 0.81223 0.1812 0.0
C260 C 0.05942 0.79896 0.14774 0.0
H261 H 0.98465 0.91494 0.39143 0.0
H262 H 0.9989 0.87944 0.32728 0.0
C263 C 0.0692 0.78297 0.10833 0.0
C264 C 0.06738 0.83231 0.22014 0.0
H265 H 0.03446 0.82781 0.32359 0.0
C266 C 0.07193 0.86651 0.21895 0.0
C267 C 0.05349 0.81813 0.25791 0.0
C268 C 0.04839 0.78141 0.26056 0.0
C269 C 0.06289 0.88707 0.25467 0.0
C270 C 0.04964 0.87286 0.29328 0.0
C271 C 0.04474 0.83862 0.2941 0.0
C272 C 0.04113 0.89316 0.33337 0.0
C273 C 0.06718 0.9239 0.25018 0.0
C274 C 0.06024 0.912 0.35872 0.0
C275 C 0.05216 0.93248 0.39495 0.0
C276 C 0.02483 0.93414 0.40707 0.0
C277 C 0.00584 0.9143 0.3828 0.0
C278 C 0.01394 0.89399 0.3462 0.0
H279 H 0.06994 0.93135 0.21324 0.0
H280 H 0.04991 0.93773 0.26436 0.0
H281 H 0.0857 0.93124 0.27003 0.0
H282 H 0.08143 0.91105 0.35026 0.0
H283 H 0.06735 0.94711 0.41336 0.0
H284 H 0.62955 0.71689 0.63316 0.0
H285 H 0.61243 0.68872 0.70216 0.0
H286 H 0.53075 0.70852 0.65667 0.0
H287 H 0.54781 0.73628 0.58694 0.0
H288 H 0.58094 0.70775 0.77426 0.0
H289 H 0.52949 0.60907 0.6703 0.0
H290 H 0.55269 0.63823 0.64481 0.0
H291 H 0.51857 0.65008 0.65636 0.0
C292 C 0.60795 0.71565 0.63819 0.0
C293 C 0.58998 0.72862 0.6046 0.0
C294 C 0.59819 0.69945 0.67753 0.0
C295 C 0.57032 0.69596 0.68407 0.0
C296 C 0.55233 0.7102 0.65167 0.0
H297 H 0.48273 0.58862 0.89888 0.0
H298 H 0.49505 0.62727 0.83691 0.0
C299 C 0.56207 0.72615 0.61203 0.0
C300 C 0.56031 0.67648 0.72408 0.0
H301 H 0.52405 0.60728 0.75193 0.0
C302 C 0.56844 0.68584 0.7694 0.0
C303 C 0.54409 0.6478 0.71759 0.0
C304 C 0.53587 0.63545 0.66966 0.0
C305 C 0.56084 0.66721 0.80841 0.0
C306 C 0.54483 0.6385 0.80179 0.0
C307 C 0.53625 0.62945 0.75669 0.0
C308 C 0.53768 0.61662 0.841 0.0
C309 C 0.56997 0.67825 0.85644 0.0
C310 C 0.55764 0.59783 0.86351 0.0
C311 C 0.55069 0.57555 0.89861 0.0
C312 C 0.52364 0.57177 0.91185 0.0
C313 C 0.50375 0.59101 0.88957 0.0
C314 C 0.51071 0.61308 0.8542 0.0
H315 H 0.57736 0.70425 0.85655 0.0
H316 H 0.55325 0.67583 0.88155 0.0
H317 H 0.58669 0.66226 0.86881 0.0
H318 H 0.57853 0.59996 0.85326 0.0
H319 H 0.56648 0.56111 0.9151 0.0
H320 H 0.86233 0.21139 0.12343 0.0
H321 H 0.87783 0.18387 0.19497 0.0
H322 H 0.96051 0.20196 0.15722 0.0
H323 H 0.94516 0.22978 0.08572 0.0
H324 H 0.91359 0.12639 0.19009 0.0
H325 H 0.95594 0.22891 0.29885 0.0
H326 H 0.93111 0.23556 0.25296 0.0
H327 H 0.9656 0.22804 0.23861 0.0
C328 C 0.88379 0.21024 0.13096 0.0
C329 C 0.90256 0.22273 0.09906 0.0
C330 C 0.89259 0.19439 0.17166 0.0
C331 C 0.92027 0.19115 0.1814 0.0
C332 C 0.93906 0.20462 0.15052 0.0
H333 H 0.01461 0.08684 0.39111 0.0
H334 H 0.99877 0.12278 0.32784 0.0
C335 C 0.93028 0.22027 0.10963 0.0
C336 C 0.92946 0.17095 0.22144 0.0
H337 H 0.96329 0.17445 0.32605 0.0
C338 C 0.92431 0.13685 0.22001 0.0
C339 C 0.94371 0.18476 0.25993 0.0
C340 C 0.94934 0.22136 0.26314 0.0
C341 C 0.93337 0.11599 0.25589 0.0
C342 C 0.9473 0.1298 0.29488 0.0
C343 C 0.95251 0.16396 0.29623 0.0
C344 C 0.95669 0.10907 0.33443 0.0
C345 C 0.92859 0.07926 0.25098 0.0
C346 C 0.93822 0.08999 0.35971 0.0
C347 C 0.94721 0.06921 0.39547 0.0
C348 C 0.97483 0.06751 0.40713 0.0
C349 C 0.99321 0.0875 0.38283 0.0
C350 C 0.9842 0.10809 0.34674 0.0
H351 H 0.92487 0.07204 0.21401 0.0
H352 H 0.94606 0.0651 0.26478 0.0
H353 H 0.91049 0.07207 0.27102 0.0
H354 H 0.91682 0.09102 0.35159 0.0
H355 H 0.93248 0.05445 0.41392 0.0
H356 H 0.37128 0.29101 0.61745 0.0
H357 H 0.38768 0.32103 0.68645 0.0
H358 H 0.46979 0.30004 0.64956 0.0
H359 H 0.45347 0.27038 0.57989 0.0
H360 H 0.41819 0.30246 0.76192 0.0
H361 H 0.47147 0.39968 0.66117 0.0
H362 H 0.44841 0.37048 0.63403 0.0
H363 H 0.48233 0.35848 0.64889 0.0
C364 C 0.39282 0.29249 0.62432 0.0
C365 C 0.41113 0.27849 0.59325 0.0
C366 C 0.40216 0.30973 0.66364 0.0
C367 C 0.42995 0.31328 0.67265 0.0
C368 C 0.44827 0.29831 0.6426 0.0
H369 H 0.51823 0.41805 0.89333 0.0
H370 H 0.50516 0.38098 0.82922 0.0
C371 C 0.43895 0.28129 0.60299 0.0
C372 C 0.43958 0.33311 0.71316 0.0
H373 H 0.47661 0.40166 0.74333 0.0
C374 C 0.43097 0.32414 0.75787 0.0
C375 C 0.45619 0.36146 0.70772 0.0
C376 C 0.46496 0.37335 0.66036 0.0
C377 C 0.43859 0.34273 0.79734 0.0
C378 C 0.45508 0.37106 0.79178 0.0
C379 C 0.46401 0.37981 0.74729 0.0
C380 C 0.4627 0.39255 0.83159 0.0
C381 C 0.4291 0.33193 0.84473 0.0
C382 C 0.44311 0.41143 0.85376 0.0
C383 C 0.45049 0.4328 0.89017 0.0
C384 C 0.47761 0.43557 0.90501 0.0
C385 C 0.49716 0.41643 0.8828 0.0
C386 C 0.48977 0.39526 0.8462 0.0
H387 H 0.42139 0.30607 0.84436 0.0
H388 H 0.44572 0.33407 0.87107 0.0
H389 H 0.41252 0.34825 0.85581 0.0
H390 H 0.42216 0.40996 0.84245 0.0
H391 H 0.43497 0.4472 0.90654 0.0
H392 H 0.63185 0.71598 0.40686 0.0
H393 H 0.61628 0.68626 0.33702 0.0
H394 H 0.53364 0.7033 0.37413 0.0
H395 H 0.54907 0.7335 0.44403 0.0
H396 H 0.58009 0.62802 0.34405 0.0
H397 H 0.53914 0.72832 0.23123 0.0
H398 H 0.56398 0.73606 0.27694 0.0
H399 H 0.52948 0.72805 0.29151 0.0
C400 C 0.61037 0.71412 0.3996 0.0
C401 C 0.59166 0.72717 0.4308 0.0
C402 C 0.60153 0.69697 0.35987 0.0
C403 C 0.57387 0.69286 0.35039 0.0
C404 C 0.55509 0.70661 0.38066 0.0
H405 H 0.485 0.58419 0.13492 0.0
H406 H 0.49848 0.6204 0.19975 0.0
C407 C 0.56392 0.72362 0.42064 0.0
C408 C 0.56478 0.67186 0.31091 0.0
H409 H 0.53338 0.67355 0.20409 0.0
C410 C 0.56993 0.63791 0.31335 0.0
C411 C 0.55131 0.68494 0.27135 0.0
C412 C 0.54571 0.72137 0.26713 0.0
C413 C 0.5618 0.61652 0.27721 0.0
C414 C 0.54885 0.62964 0.23702 0.0
C415 C 0.54344 0.66361 0.23483 0.0
C416 C 0.54088 0.60845 0.19688 0.0
C417 C 0.56667 0.57998 0.28292 0.0
C418 C 0.56033 0.59022 0.17324 0.0
C419 C 0.55269 0.56931 0.13649 0.0
C420 C 0.52547 0.5666 0.12228 0.0
C421 C 0.50612 0.58563 0.14515 0.0
C422 C 0.51378 0.60637 0.18214 0.0
H423 H 0.56938 0.57308 0.32022 0.0
H424 H 0.5497 0.56517 0.26781 0.0
H425 H 0.58538 0.57331 0.26455 0.0
H426 H 0.58146 0.5921 0.1833 0.0
H427 H 0.56813 0.55528 0.11926 0.0
H428 H 0.90694 0.16832 0.95435 0.0
H429 H 0.92517 0.14281 0.88473 0.0
H430 H 0.92516 0.23719 0.815 0.0
H431 H 0.90689 0.26311 0.88505 0.0
H432 H 0.90359 0.18619 0.7605 0.0
H433 H 0.00221 0.15032 0.83742 0.0
H434 H 0.97433 0.13616 0.87146 0.0
H435 H 0.98042 0.17979 0.86482 0.0
C436 C 0.91119 0.1838 0.9245 0.0
C437 C 0.90582 0.21783 0.92542 0.0
C438 C 0.92162 0.16917 0.88473 0.0
C439 C 0.92706 0.18824 0.8451 0.0
C440 C 0.9213 0.22212 0.84544 0.0
H441 H 0.01525 0.0977 0.61646 0.0
H442 H 0.00132 0.13622 0.6771 0.0
C443 C 0.9108 0.23684 0.88534 0.0
C444 C 0.93788 0.17225 0.80297 0.0
H445 H 0.98867 0.12264 0.76665 0.0
C446 C 0.92237 0.17265 0.76158 0.0
C447 C 0.96261 0.15509 0.80423 0.0
C448 C 0.981 0.15556 0.84673 0.0
C449 C 0.93029 0.15495 0.72206 0.0
C450 C 0.95407 0.13591 0.72442 0.0
C451 C 0.97025 0.13688 0.76506 0.0
C452 C 0.96197 0.11368 0.68601 0.0
C453 C 0.91303 0.15671 0.67827 0.0
C454 C 0.94457 0.08805 0.67124 0.0
C455 C 0.95242 0.06608 0.63657 0.0
C456 C 0.97798 0.06907 0.61636 0.0
C457 C 0.99543 0.09471 0.63133 0.0
C458 C 0.9875 0.11677 0.66592 0.0
H459 H 0.90107 0.17977 0.67708 0.0
H460 H 0.92551 0.15549 0.64652 0.0
H461 H 0.89863 0.13554 0.67764 0.0
H462 H 0.92507 0.08465 0.68712 0.0
H463 H 0.93855 0.04651 0.62605 0.0
H464 H 0.45401 0.26769 0.43805 0.0
H465 H 0.46975 0.29633 0.36794 0.0
H466 H 0.38742 0.30734 0.32005 0.0
H467 H 0.37149 0.27922 0.39002 0.0
H468 H 0.45388 0.28367 0.26167 0.0
H469 H 0.42478 0.40363 0.34056 0.0
H470 H 0.43173 0.36742 0.37541 0.0
H471 H 0.40062 0.37019 0.34283 0.0
C472 C 0.43931 0.27588 0.41227 0.0
C473 C 0.41152 0.27132 0.41959 0.0
C474 C 0.44832 0.29203 0.37224 0.0
C475 C 0.42968 0.30398 0.3392 0.0
C476 C 0.40204 0.2982 0.34531 0.0
H477 H 0.43595 0.44297 0.11224 0.0
H478 H 0.42291 0.40408 0.17311 0.0
C479 C 0.39302 0.28197 0.38515 0.0
C480 C 0.43883 0.32493 0.30032 0.0
H481 H 0.44041 0.40497 0.2635 0.0
C482 C 0.45107 0.3102 0.26192 0.0
C483 C 0.43505 0.35944 0.3011 0.0
C484 C 0.42248 0.37633 0.34222 0.0
C485 C 0.45914 0.32922 0.22347 0.0
C486 C 0.45529 0.36382 0.2242 0.0
C487 C 0.44326 0.37844 0.26296 0.0
C488 C 0.46325 0.38555 0.18509 0.0
C489 C 0.47099 0.31203 0.18199 0.0
C490 C 0.49028 0.38802 0.1716 0.0
C491 C 0.49781 0.41016 0.13659 0.0
C492 C 0.47846 0.43048 0.1149 0.0
C493 C 0.45137 0.42775 0.12832 0.0
C494 C 0.44387 0.40551 0.16307 0.0
H495 H 0.46593 0.28523 0.18161 0.0
H496 H 0.46369 0.32319 0.14878 0.0
H497 H 0.4933 0.31461 0.18363 0.0
H498 H 0.50567 0.37341 0.18887 0.0
H499 H 0.51886 0.4118 0.1272 0.0
H500 H 0.05638 0.7736 0.94197 0.0
H501 H 0.04074 0.80236 0.87136 0.0
H502 H 0.12325 0.82033 0.83252 0.0
H503 H 0.13905 0.79185 0.90308 0.0
H504 H 0.08664 0.87811 0.83824 0.0
H505 H 0.04599 0.77475 0.72903 0.0
H506 H 0.03672 0.77542 0.78949 0.0
H507 H 0.0712 0.76862 0.77445 0.0
C508 C 0.07116 0.78338 0.91808 0.0
C509 C 0.09893 0.78044 0.92795 0.0
C510 C 0.06221 0.79958 0.8777 0.0
C511 C 0.08088 0.81317 0.8467 0.0
C512 C 0.10858 0.80972 0.85594 0.0
H513 H 0.06999 0.94899 0.61314 0.0
H514 H 0.08514 0.91302 0.67659 0.0
C515 C 0.11755 0.79332 0.89608 0.0
C516 C 0.07158 0.83325 0.80662 0.0
H517 H 0.03908 0.82893 0.70085 0.0
C518 C 0.07634 0.86742 0.80805 0.0
C519 C 0.05791 0.81913 0.76775 0.0
C520 C 0.05271 0.78243 0.76461 0.0
C521 C 0.0675 0.88805 0.7717 0.0
C522 C 0.05424 0.87391 0.73227 0.0
C523 C 0.04936 0.83968 0.731 0.0
C524 C 0.04522 0.89434 0.69213 0.0
C525 C 0.07186 0.92486 0.77653 0.0
C526 C 0.01789 0.89476 0.67852 0.0
C527 C 0.00919 0.91498 0.6418 0.0
C528 C 0.0277 0.93517 0.6181 0.0
C529 C 0.05517 0.93404 0.63106 0.0
C530 C 0.06386 0.91363 0.66748 0.0
H531 H 0.07496 0.93225 0.81359 0.0
H532 H 0.09019 0.93224 0.75727 0.0
H533 H 0.05446 0.93871 0.76184 0.0
H534 H 0.0032 0.8799 0.6969 0.0
H535 H 0.98791 0.9152 0.63256 0.0
loop_
_geom_bond_atom_site_label_1
_geom_bond_atom_site_label_2
_geom_bond_distance
_geom_bond_site_symmetry_2
_ccdc_geom_bond_type
H0 C3 0.931 . S
H1 C6 0.928 . S
H2 C8 0.930 . S
C3 H0 0.931 . S
C3 C4 1.413 1_554 S
C3 C5 1.360 . S
C4 C3 1.413 1_556 S
C4 C8 1.429 . S
C5 C3 1.360 . S
C5 C6 1.372 . S
C6 H1 0.928 . S
C6 C5 1.372 . S
C6 C7 1.404 . S
C7 C6 1.404 . S
C7 C8 1.391 1_554 S
C8 H2 0.930 . S
C8 C4 1.429 . S
C8 C7 1.391 1_556 S
H9 C12 0.931 . S
H10 C15 0.928 . S
H11 C17 0.930 . S
C12 H9 0.931 . S
C12 C13 1.413 . S
C12 C14 1.360 . S
C13 C12 1.413 . S
C13 C17 1.429 . S
C14 C12 1.360 . S
C14 C15 1.372 . S
C15 H10 0.928 . S
C15 C14 1.372 . S
C15 C16 1.404 . S
C16 C15 1.404 . S
C16 C17 1.391 . S
C17 H11 0.930 . S
C17 C13 1.429 . S
C17 C16 1.391 . S
H18 C21 0.931 . S
H19 C24 0.928 . S
H20 C26 0.930 . S
C21 H18 0.931 . S
C21 C22 1.413 1_554 S
C21 C23 1.360 . S
C22 C21 1.413 1_556 S
C22 C26 1.429 . S
C23 C21 1.360 . S
C23 C24 1.372 . S
C24 H19 0.928 . S
C24 C23 1.372 . S
C24 C25 1.404 . S
C25 C24 1.404 . S
C25 C26 1.391 1_554 S
C26 H20 0.930 . S
C26 C22 1.429 . S
C26 C25 1.391 1_556 S
H27 C30 0.931 . S
H28 C33 0.928 . S
H29 C35 0.930 . S
C30 H27 0.931 . S
C30 C31 1.413 . S
C30 C32 1.360 . S
C31 C30 1.413 . S
C31 C35 1.429 . S
C32 C30 1.360 . S
C32 C33 1.372 . S
C33 H28 0.928 . S
C33 C32 1.372 . S
C33 C34 1.404 . S
C34 C33 1.404 . S
C34 C35 1.391 . S
C35 H29 0.930 . S
C35 C31 1.429 . S
C35 C34 1.391 . S
C36 O52 1.251 . S
C36 O54 1.254 1_455 S
N37 C38 1.333 . S
N37 C42 1.307 . S
N37 Zn43 2.020 . S
C38 N37 1.333 . S
C38 C39 1.379 . S
C38 H56 0.952 . S
C39 C38 1.379 . S
C39 C40 1.390 . S
C39 H66 0.949 . S
C40 C39 1.390 . S
C40 C41 1.357 . S
C41 C40 1.357 . S
C41 C42 1.370 . S
C41 H67 0.950 . S
C42 N37 1.307 . S
C42 C41 1.370 . S
C42 H60 0.948 . S
Zn43 N37 2.020 . S
Zn43 O52 2.039 1_545 S
Zn43 O58 2.034 1_545 S
Zn43 O62 2.025 . S
Zn43 O64 2.024 . S
C44 O63 1.246 . S
C44 O64 1.249 1_655 S
N45 C46 1.307 . S
N45 C47 1.333 . S
N45 Zn51 2.020 . S
C46 N45 1.307 . S
C46 C50 1.370 . S
C46 H57 0.948 . S
C47 N45 1.333 . S
C47 C48 1.379 . S
C47 H55 0.952 . S
C48 C47 1.379 . S
C48 C49 1.390 . S
C48 H68 0.949 . S
C49 C48 1.390 . S
C49 C50 1.357 . S
C50 C46 1.370 . S
C50 C49 1.357 . S
C50 H69 0.950 . S
Zn51 N45 2.020 . S
Zn51 O54 2.025 . S
Zn51 O59 2.024 . S
Zn51 O61 2.039 1_565 S
Zn51 O63 2.034 1_565 S
O52 C36 1.251 . S
O52 Zn43 2.039 1_565 S
C53 O58 1.246 . S
C53 O59 1.249 1_455 S
O54 C36 1.254 1_655 S
O54 Zn51 2.025 . S
H55 C47 0.952 . S
H56 C38 0.952 . S
H57 C46 0.948 . S
O58 Zn43 2.034 1_565 S
O58 C53 1.246 . S
O59 Zn51 2.024 . S
O59 C53 1.249 1_655 S
H60 C42 0.948 . S
O61 Zn51 2.039 1_545 S
O61 C65 1.251 . S
O62 Zn43 2.025 . S
O62 C65 1.254 1_455 S
O63 C44 1.246 . S
O63 Zn51 2.034 1_545 S
O64 Zn43 2.024 . S
O64 C44 1.249 1_455 S
C65 O61 1.251 . S
C65 O62 1.254 1_655 S
H66 C39 0.949 . S
H67 C41 0.950 . S
H68 C48 0.949 . S
H69 C50 0.950 . S
C70 O86 1.251 . S
C70 O88 1.254 . S
N71 C72 1.328 1_554 S
N71 C76 1.307 . S
N71 Zn77 2.020 . S
C72 N71 1.328 1_556 S
C72 C73 1.380 . S
C72 H90 0.956 . S
C73 C72 1.380 . S
C73 C74 1.390 1_556 S
C73 H100 0.949 . S
C74 C73 1.390 1_554 S
C74 C75 1.357 . S
C75 C74 1.357 . S
C75 C76 1.370 . S
C75 H101 0.950 . S
C76 N71 1.307 . S
C76 C75 1.370 . S
C76 H94 0.948 . S
Zn77 N71 2.020 . S
Zn77 O86 2.039 1_554 S
Zn77 O92 2.034 . S
Zn77 O96 2.025 . S
Zn77 O98 2.024 1_554 S
C78 O97 1.246 . S
C78 O98 1.249 . S
N79 C80 1.310 . S
N79 C81 1.333 . S
N79 Zn85 2.020 . S
C80 N79 1.310 . S
C80 C84 1.370 . S
C80 H91 0.945 1_554 S
C81 N79 1.333 . S
C81 C82 1.379 . S
C81 H89 0.952 . S
C82 C81 1.379 . S
C82 C83 1.390 . S
C82 H102 0.949 . S
C83 C82 1.390 . S
C83 C84 1.357 . S
C84 C80 1.370 . S
C84 C83 1.357 . S
C84 H103 0.950 1_554 S
Zn85 N79 2.020 . S
Zn85 O88 2.025 1_554 S
Zn85 O93 2.024 . S
Zn85 O95 2.039 . S
Zn85 O97 2.034 1_554 S
O86 C70 1.251 . S
O86 Zn77 2.039 1_556 S
C87 O92 1.246 . S
C87 O93 1.249 . S
O88 C70 1.254 . S
O88 Zn85 2.025 1_556 S
H89 C81 0.952 . S
H90 C72 0.956 . S
H91 C80 0.945 1_556 S
O92 Zn77 2.034 . S
O92 C87 1.246 . S
O93 Zn85 2.024 . S
O93 C87 1.249 . S
H94 C76 0.948 . S
O95 Zn85 2.039 . S
O95 C99 1.251 . S
O96 Zn77 2.025 . S
O96 C99 1.254 . S
O97 C78 1.246 . S
O97 Zn85 2.034 1_556 S
O98 Zn77 2.024 1_556 S
O98 C78 1.249 . S
C99 O95 1.251 . S
C99 O96 1.254 . S
H100 C73 0.949 . S
H101 C75 0.950 . S
H102 C82 0.949 . S
H103 C84 0.950 1_556 S
H104 C112 0.929 . S
H105 C114 0.930 . S
H106 C116 0.930 . S
H107 C119 0.929 . S
H108 C122 0.930 . S
H109 C124 0.960 . S
H110 C124 0.960 . S
H111 C124 0.960 . S
C112 H104 0.929 . S
C112 C113 1.377 . S
C112 C114 1.384 . S
C113 C112 1.377 . S
C113 C119 1.390 . S
C114 H105 0.930 . S
C114 C112 1.384 . S
C114 C115 1.372 . S
C115 C114 1.372 . S
C115 C116 1.400 . S
C115 C120 1.490 . S
C116 H106 0.930 . S
C116 C115 1.400 . S
C116 C119 1.386 . S
H117 C133 0.930 . S
H118 C134 0.931 . S
C119 H107 0.929 . S
C119 C113 1.390 . S
C119 C116 1.386 . S
C120 C115 1.490 . S
C120 C122 1.395 . S
C120 C123 1.403 . S
H121 C127 0.930 . S
C122 H108 0.930 . S
C122 C120 1.395 . S
C122 C125 1.403 . S
C123 C120 1.403 . S
C123 C124 1.524 . S
C123 C127 1.400 . S
C124 H109 0.960 . S
C124 H110 0.960 . S
C124 H111 0.960 . S
C124 C123 1.524 . S
C125 C122 1.403 . S
C125 C126 1.392 . S
C125 C129 1.495 . S
C126 C125 1.392 . S
C126 C127 1.385 . S
C126 C128 1.478 . S
C127 H121 0.930 . S
C127 C123 1.400 . S
C127 C126 1.385 . S
C128 C126 1.478 . S
C128 C130 1.381 . S
C128 C134 1.383 . S
C129 C125 1.495 . S
C129 H135 0.959 . S
C129 H136 0.961 . S
C129 H137 0.960 . S
C130 C128 1.381 . S
C130 C131 1.394 . S
C130 H138 0.930 . S
C131 C130 1.394 . S
C131 C132 1.383 . S
C131 H139 0.929 . S
C132 C131 1.383 . S
C132 C133 1.377 . S
C133 H117 0.930 . S
C133 C132 1.377 . S
C133 C134 1.379 . S
C134 H118 0.931 . S
C134 C128 1.383 . S
C134 C133 1.379 . S
H135 C129 0.959 . S
H136 C129 0.961 . S
H137 C129 0.960 . S
H138 C130 0.930 . S
H139 C131 0.929 . S
H140 C148 0.929 . S
H141 C150 0.930 . S
H142 C152 0.930 . S
H143 C155 0.929 . S
H144 C158 0.930 . S
H145 C160 0.960 . S
H146 C160 0.960 . S
H147 C160 0.960 . S
C148 H140 0.929 . S
C148 C149 1.377 . S
C148 C150 1.384 . S
C149 C148 1.377 . S
C149 C155 1.390 1_554 S
C150 H141 0.930 . S
C150 C148 1.384 . S
C150 C151 1.372 . S
C151 C150 1.372 . S
C151 C152 1.400 1_554 S
C151 C156 1.490 . S
C152 H142 0.930 . S
C152 C151 1.400 1_556 S
C152 C155 1.386 . S
H153 C169 0.930 . S
H154 C170 0.931 . S
C155 H143 0.929 . S
C155 C149 1.390 1_556 S
C155 C152 1.386 . S
C156 C151 1.490 . S
C156 C158 1.395 . S
C156 C159 1.403 1_554 S
H157 C163 0.930 . S
C158 H144 0.930 . S
C158 C156 1.395 . S
C158 C161 1.403 . S
C159 C156 1.403 1_556 S
C159 C160 1.524 . S
C159 C163 1.400 . S
C160 H145 0.960 . S
C160 H146 0.960 . S
C160 H147 0.960 . S
C160 C159 1.524 . S
C161 C158 1.403 . S
C161 C162 1.392 . S
C161 C165 1.495 . S
C162 C161 1.392 . S
C162 C163 1.385 1_554 S
C162 C164 1.478 . S
C163 H157 0.930 . S
C163 C159 1.400 . S
C163 C162 1.385 1_556 S
C164 C162 1.478 . S
C164 C166 1.381 . S
C164 C170 1.383 1_554 S
C165 C161 1.495 . S
C165 H171 0.959 . S
C165 H172 0.961 . S
C165 H173 0.960 . S
C166 C164 1.381 . S
C166 C167 1.394 . S
C166 H174 0.930 . S
C167 C166 1.394 . S
C167 C168 1.383 . S
C167 H175 0.929 . S
C168 C167 1.383 . S
C168 C169 1.377 1_554 S
C169 H153 0.930 . S
C169 C168 1.377 1_556 S
C169 C170 1.379 . S
C170 H154 0.931 . S
C170 C164 1.383 1_556 S
C170 C169 1.379 . S
H171 C165 0.959 . S
H172 C165 0.961 . S
H173 C165 0.960 . S
H174 C166 0.930 . S
H175 C167 0.929 . S
H176 C184 0.929 . S
H177 C186 0.930 . S
H178 C188 0.930 . S
H179 C191 0.929 . S
H180 C194 0.930 . S
H181 C196 0.960 . S
H182 C196 0.960 . S
H183 C196 0.960 . S
C184 H176 0.929 . S
C184 C185 1.377 . S
C184 C186 1.384 . S
C185 C184 1.377 . S
C185 C191 1.390 . S
C186 H177 0.930 . S
C186 C184 1.384 . S
C186 C187 1.372 . S
C187 C186 1.372 . S
C187 C188 1.400 . S
C187 C192 1.490 . S
C188 H178 0.930 . S
C188 C187 1.400 . S
C188 C191 1.386 . S
H189 C205 0.930 . S
H190 C206 0.931 . S
C191 H179 0.929 . S
C191 C185 1.390 . S
C191 C188 1.386 . S
C192 C187 1.490 . S
C192 C194 1.395 . S
C192 C195 1.403 . S
H193 C199 0.930 . S
C194 H180 0.930 . S
C194 C192 1.395 . S
C194 C197 1.403 . S
C195 C192 1.403 . S
C195 C196 1.524 . S
C195 C199 1.400 . S
C196 H181 0.960 . S
C196 H182 0.960 . S
C196 H183 0.960 . S
C196 C195 1.524 . S
C197 C194 1.403 . S
C197 C198 1.392 . S
C197 C201 1.495 . S
C198 C197 1.392 . S
C198 C199 1.385 . S
C198 C200 1.478 . S
C199 H193 0.930 . S
C199 C195 1.400 . S
C199 C198 1.385 . S
C200 C198 1.478 . S
C200 C202 1.381 . S
C200 C206 1.383 . S
C201 C197 1.495 . S
C201 H207 0.959 . S
C201 H208 0.961 . S
C201 H209 0.960 . S
C202 C200 1.381 . S
C202 C203 1.394 . S
C202 H210 0.930 . S
C203 C202 1.394 . S
C203 C204 1.383 . S
C203 H211 0.929 . S
C204 C203 1.383 . S
C204 C205 1.377 . S
C205 H189 0.930 . S
C205 C204 1.377 . S
C205 C206 1.379 . S
C206 H190 0.931 . S
C206 C200 1.383 . S
C206 C205 1.379 . S
H207 C201 0.959 . S
H208 C201 0.961 . S
H209 C201 0.960 . S
H210 C202 0.930 . S
H211 C203 0.929 . S
H212 C220 0.929 . S
H213 C222 0.930 . S
H214 C224 0.930 . S
H215 C227 0.929 . S
H216 C230 0.930 . S
H217 C232 0.960 . S
H218 C232 0.960 1_554 S
H219 C232 0.960 . S
C220 H212 0.929 . S
C220 C221 1.377 . S
C220 C222 1.384 . S
C221 C220 1.377 . S
C221 C227 1.390 1_554 S
C222 H213 0.930 . S
C222 C220 1.384 . S
C222 C223 1.372 . S
C223 C222 1.372 . S
C223 C224 1.400 1_554 S
C223 C228 1.490 . S
C224 H214 0.930 . S
C224 C223 1.400 1_556 S
C224 C227 1.386 . S
H225 C241 0.930 . S
H226 C242 0.931 . S
C227 H215 0.929 . S
C227 C221 1.390 1_556 S
C227 C224 1.386 . S
C228 C223 1.490 . S
C228 C230 1.395 . S
C228 C231 1.403 1_554 S
H229 C235 0.930 . S
C230 H216 0.930 . S
C230 C228 1.395 . S
C230 C233 1.403 . S
C231 C228 1.403 1_556 S
C231 C232 1.524 . S
C231 C235 1.400 . S
C232 H217 0.960 . S
C232 H218 0.960 1_556 S
C232 H219 0.960 . S
C232 C231 1.524 . S
C233 C230 1.403 . S
C233 C234 1.392 . S
C233 C237 1.495 . S
C234 C233 1.392 . S
C234 C235 1.385 1_554 S
C234 C236 1.478 . S
C235 H229 0.930 . S
C235 C231 1.400 . S
C235 C234 1.385 1_556 S
C236 C234 1.478 . S
C236 C238 1.381 . S
C236 C242 1.383 1_554 S
C237 C233 1.495 . S
C237 H243 0.959 . S
C237 H244 0.961 . S
C237 H245 0.960 . S
C238 C236 1.381 . S
C238 C239 1.394 . S
C238 H246 0.930 . S
C239 C238 1.394 . S
C239 C240 1.383 . S
C239 H247 0.929 . S
C240 C239 1.383 . S
C240 C241 1.377 1_554 S
C241 H225 0.930 . S
C241 C240 1.377 1_556 S
C241 C242 1.379 . S
C242 H226 0.931 . S
C242 C236 1.383 1_556 S
C242 C241 1.379 . S
H243 C237 0.959 . S
H244 C237 0.961 . S
H245 C237 0.960 . S
H246 C238 0.930 . S
H247 C239 0.929 . S
H248 C256 0.929 . S
H249 C258 0.930 . S
H250 C260 0.930 . S
H251 C263 0.929 . S
H252 C266 0.930 . S
H253 C268 0.960 . S
H254 C268 0.960 . S
H255 C268 0.960 . S
C256 H248 0.929 . S
C256 C257 1.377 . S
C256 C258 1.384 . S
C257 C256 1.377 . S
C257 C263 1.390 . S
C258 H249 0.930 . S
C258 C256 1.384 . S
C258 C259 1.372 . S
C259 C258 1.372 . S
C259 C260 1.400 . S
C259 C264 1.490 . S
C260 H250 0.930 . S
C260 C259 1.400 . S
C260 C263 1.386 . S
H261 C277 0.925 1_655 S
H262 C278 0.931 . S
C263 H251 0.929 . S
C263 C257 1.390 . S
C263 C260 1.386 . S
C264 C259 1.490 . S
C264 C266 1.395 . S
C264 C267 1.403 . S
H265 C271 0.930 . S
C266 H252 0.930 . S
C266 C264 1.395 . S
C266 C269 1.403 . S
C267 C264 1.403 . S
C267 C268 1.524 . S
C267 C271 1.400 . S
C268 H253 0.960 . S
C268 H254 0.960 . S
C268 H255 0.960 . S
C268 C267 1.524 . S
C269 C266 1.403 . S
C269 C270 1.392 . S
C269 C273 1.495 . S
C270 C269 1.392 . S
C270 C271 1.385 . S
C270 C272 1.478 . S
C271 H265 0.930 . S
C271 C267 1.400 . S
C271 C270 1.385 . S
C272 C270 1.478 . S
C272 C274 1.381 . S
C272 C278 1.383 . S
C273 C269 1.495 . S
C273 H279 0.959 . S
C273 H280 0.961 . S
C273 H281 0.960 . S
C274 C272 1.381 . S
C274 C275 1.394 . S
C274 H282 0.930 . S
C275 C274 1.394 . S
C275 C276 1.383 . S
C275 H283 0.929 . S
C276 C275 1.383 . S
C276 C277 1.377 . S
C277 H261 0.925 1_455 S
C277 C276 1.377 . S
C277 C278 1.379 . S
C278 H262 0.931 . S
C278 C272 1.383 . S
C278 C277 1.379 . S
H279 C273 0.959 . S
H280 C273 0.961 . S
H281 C273 0.960 . S
H282 C274 0.930 . S
H283 C275 0.929 . S
H284 C292 0.929 . S
H285 C294 0.930 . S
H286 C296 0.930 . S
H287 C299 0.929 . S
H288 C302 0.930 . S
H289 C304 0.960 . S
H290 C304 0.960 . S
H291 C304 0.960 . S
C292 H284 0.929 . S
C292 C293 1.377 . S
C292 C294 1.384 . S
C293 C292 1.377 . S
C293 C299 1.390 . S
C294 H285 0.930 . S
C294 C292 1.384 . S
C294 C295 1.372 . S
C295 C294 1.372 . S
C295 C296 1.400 . S
C295 C300 1.490 . S
C296 H286 0.930 . S
C296 C295 1.400 . S
C296 C299 1.386 . S
H297 C313 0.930 . S
H298 C314 0.931 . S
C299 H287 0.929 . S
C299 C293 1.390 . S
C299 C296 1.386 . S
C300 C295 1.490 . S
C300 C302 1.395 . S
C300 C303 1.403 . S
H301 C307 0.930 . S
C302 H288 0.930 . S
C302 C300 1.395 . S
C302 C305 1.403 . S
C303 C300 1.403 . S
C303 C304 1.524 . S
C303 C307 1.400 . S
C304 H289 0.960 . S
C304 H290 0.960 . S
C304 H291 0.960 . S
C304 C303 1.524 . S
C305 C302 1.403 . S
C305 C306 1.392 . S
C305 C309 1.495 . S
C306 C305 1.392 . S
C306 C307 1.385 . S
C306 C308 1.478 . S
C307 H301 0.930 . S
C307 C303 1.400 . S
C307 C306 1.385 . S
C308 C306 1.478 . S
C308 C310 1.381 . S
C308 C314 1.383 . S
C309 C305 1.495 . S
C309 H315 0.959 . S
C309 H316 0.961 . S
C309 H317 0.960 . S
C310 C308 1.381 . S
C310 C311 1.394 . S
C310 H318 0.930 . S
C311 C310 1.394 . S
C311 C312 1.383 . S
C311 H319 0.929 . S
C312 C311 1.383 . S
C312 C313 1.377 . S
C313 H297 0.930 . S
C313 C312 1.377 . S
C313 C314 1.379 . S
C314 H298 0.931 . S
C314 C308 1.383 . S
C314 C313 1.379 . S
H315 C309 0.959 . S
H316 C309 0.961 . S
H317 C309 0.960 . S
H318 C310 0.930 . S
H319 C311 0.929 . S
H320 C328 0.929 . S
H321 C330 0.930 . S
H322 C332 0.930 . S
H323 C335 0.929 . S
H324 C338 0.930 . S
H325 C340 0.960 . S
H326 C340 0.960 . S
H327 C340 0.960 . S
C328 H320 0.929 . S
C328 C329 1.377 . S
C328 C330 1.384 . S
C329 C328 1.377 . S
C329 C335 1.390 . S
C330 H321 0.930 . S
C330 C328 1.384 . S
C330 C331 1.372 . S
C331 C330 1.372 . S
C331 C332 1.400 . S
C331 C336 1.490 . S
C332 H322 0.930 . S
C332 C331 1.400 . S
C332 C335 1.386 . S
H333 C349 0.930 1_455 S
H334 C350 0.931 . S
C335 H323 0.929 . S
C335 C329 1.390 . S
C335 C332 1.386 . S
C336 C331 1.490 . S
C336 C338 1.395 . S
C336 C339 1.403 . S
H337 C343 0.930 . S
C338 H324 0.930 . S
C338 C336 1.395 . S
C338 C341 1.403 . S
C339 C336 1.403 . S
C339 C340 1.524 . S
C339 C343 1.400 . S
C340 H325 0.960 . S
C340 H326 0.960 . S
C340 H327 0.960 . S
C340 C339 1.524 . S
C341 C338 1.403 . S
C341 C342 1.392 . S
C341 C345 1.495 . S
C342 C341 1.392 . S
C342 C343 1.385 . S
C342 C344 1.478 . S
C343 H337 0.930 . S
C343 C339 1.400 . S
C343 C342 1.385 . S
C344 C342 1.478 . S
C344 C346 1.381 . S
C344 C350 1.383 . S
C345 C341 1.495 . S
C345 H351 0.959 . S
C345 H352 0.961 . S
C345 H353 0.960 . S
C346 C344 1.381 . S
C346 C347 1.394 . S
C346 H354 0.930 . S
C347 C346 1.394 . S
C347 C348 1.383 . S
C347 H355 0.929 . S
C348 C347 1.383 . S
C348 C349 1.377 . S
C349 H333 0.930 1_655 S
C349 C348 1.377 . S
C349 C350 1.379 . S
C350 H334 0.931 . S
C350 C344 1.383 . S
C350 C349 1.379 . S
H351 C345 0.959 . S
H352 C345 0.961 . S
H353 C345 0.960 . S
H354 C346 0.930 . S
H355 C347 0.929 . S
H356 C364 0.929 . S
H357 C366 0.930 . S
H358 C368 0.930 . S
H359 C371 0.929 . S
H360 C374 0.930 . S
H361 C376 0.960 . S
H362 C376 0.960 . S
H363 C376 0.960 . S
C364 H356 0.929 . S
C364 C365 1.377 . S
C364 C366 1.384 . S
C365 C364 1.377 . S
C365 C371 1.390 . S
C366 H357 0.930 . S
C366 C364 1.384 . S
C366 C367 1.372 . S
C367 C366 1.372 . S
C367 C368 1.400 . S
C367 C372 1.490 . S
C368 H358 0.930 . S
C368 C367 1.400 . S
C368 C371 1.386 . S
H369 C385 0.930 . S
H370 C386 0.931 . S
C371 H359 0.929 . S
C371 C365 1.390 . S
C371 C368 1.386 . S
C372 C367 1.490 . S
C372 C374 1.395 . S
C372 C375 1.403 . S
H373 C379 0.930 . S
C374 H360 0.930 . S
C374 C372 1.395 . S
C374 C377 1.403 . S
C375 C372 1.403 . S
C375 C376 1.524 . S
C375 C379 1.400 . S
C376 H361 0.960 . S
C376 H362 0.960 . S
C376 H363 0.960 . S
C376 C375 1.524 . S
C377 C374 1.403 . S
C377 C378 1.392 . S
C377 C381 1.495 . S
C378 C377 1.392 . S
C378 C379 1.385 . S
C378 C380 1.478 . S
C379 H373 0.930 . S
C379 C375 1.400 . S
C379 C378 1.385 . S
C380 C378 1.478 . S
C380 C382 1.381 . S
C380 C386 1.383 . S
C381 C377 1.495 . S
C381 H387 0.959 . S
C381 H388 0.961 . S
C381 H389 0.960 . S
C382 C380 1.381 . S
C382 C383 1.394 . S
C382 H390 0.930 . S
C383 C382 1.394 . S
C383 C384 1.383 . S
C383 H391 0.929 . S
C384 C383 1.383 . S
C384 C385 1.377 . S
C385 H369 0.930 . S
C385 C384 1.377 . S
C385 C386 1.379 . S
C386 H370 0.931 . S
C386 C380 1.383 . S
C386 C385 1.379 . S
H387 C381 0.959 . S
H388 C381 0.961 . S
H389 C381 0.960 . S
H390 C382 0.930 . S
H391 C383 0.929 . S
H392 C400 0.929 . S
H393 C402 0.930 . S
H394 C404 0.930 . S
H395 C407 0.929 . S
H396 C410 0.930 . S
H397 C412 0.960 . S
H398 C412 0.960 . S
H399 C412 0.960 . S
C400 H392 0.929 . S
C400 C401 1.377 . S
C400 C402 1.384 . S
C401 C400 1.377 . S
C401 C407 1.390 . S
C402 H393 0.930 . S
C402 C400 1.384 . S
C402 C403 1.372 . S
C403 C402 1.372 . S
C403 C404 1.400 . S
C403 C408 1.490 . S
C404 H394 0.930 . S
C404 C403 1.400 . S
C404 C407 1.386 . S
H405 C421 0.930 . S
H406 C422 0.931 . S
C407 H395 0.929 . S
C407 C401 1.390 . S
C407 C404 1.386 . S
C408 C403 1.490 . S
C408 C410 1.395 . S
C408 C411 1.403 . S
H409 C415 0.930 . S
C410 H396 0.930 . S
C410 C408 1.395 . S
C410 C413 1.403 . S
C411 C408 1.403 . S
C411 C412 1.524 . S
C411 C415 1.400 . S
C412 H397 0.960 . S
C412 H398 0.960 . S
C412 H399 0.960 . S
C412 C411 1.524 . S
C413 C410 1.403 . S
C413 C414 1.392 . S
C413 C417 1.495 . S
C414 C413 1.392 . S
C414 C415 1.385 . S
C414 C416 1.478 . S
C415 H409 0.930 . S
C415 C411 1.400 . S
C415 C414 1.385 . S
C416 C414 1.478 . S
C416 C418 1.381 . S
C416 C422 1.383 . S
C417 C413 1.495 . S
C417 H423 0.959 . S
C417 H424 0.961 . S
C417 H425 0.960 . S
C418 C416 1.381 . S
C418 C419 1.394 . S
C418 H426 0.930 . S
C419 C418 1.394 . S
C419 C420 1.383 . S
C419 H427 0.929 . S
C420 C419 1.383 . S
C420 C421 1.377 . S
C421 H405 0.930 . S
C421 C420 1.377 . S
C421 C422 1.379 . S
C422 H406 0.931 . S
C422 C416 1.383 . S
C422 C421 1.379 . S
H423 C417 0.959 . S
H424 C417 0.961 . S
H425 C417 0.960 . S
H426 C418 0.930 . S
H427 C419 0.929 . S
H428 C436 0.929 . S
H429 C438 0.930 . S
H430 C440 0.930 . S
H431 C443 0.929 . S
H432 C446 0.930 . S
H433 C448 0.939 1_455 S
H434 C448 0.960 . S
H435 C448 0.960 . S
C436 H428 0.929 . S
C436 C437 1.377 . S
C436 C438 1.384 . S
C437 C436 1.377 . S
C437 C443 1.390 . S
C438 H429 0.930 . S
C438 C436 1.384 . S
C438 C439 1.372 . S
C439 C438 1.372 . S
C439 C440 1.400 . S
C439 C444 1.490 . S
C440 H430 0.930 . S
C440 C439 1.400 . S
C440 C443 1.386 . S
H441 C457 0.930 . S
H442 C458 0.931 . S
C443 H431 0.929 . S
C443 C437 1.390 . S
C443 C440 1.386 . S
C444 C439 1.490 . S
C444 C446 1.395 . S
C444 C447 1.403 . S
H445 C451 0.930 . S
C446 H432 0.930 . S
C446 C444 1.395 . S
C446 C449 1.403 . S
C447 C444 1.403 . S
C447 C448 1.524 . S
C447 C451 1.400 . S
C448 H433 0.939 1_655 S
C448 H434 0.960 . S
C448 H435 0.960 . S
C448 C447 1.524 . S
C449 C446 1.403 . S
C449 C450 1.392 . S
C449 C453 1.495 . S
C450 C449 1.392 . S
C450 C451 1.385 . S
C450 C452 1.478 . S
C451 H445 0.930 . S
C451 C447 1.400 . S
C451 C450 1.385 . S
C452 C450 1.478 . S
C452 C454 1.381 . S
C452 C458 1.383 . S
C453 C449 1.495 . S
C453 H459 0.959 . S
C453 H460 0.961 . S
C453 H461 0.960 . S
C454 C452 1.381 . S
C454 C455 1.394 . S
C454 H462 0.930 . S
C455 C454 1.394 . S
C455 C456 1.383 . S
C455 H463 0.929 . S
C456 C455 1.383 . S
C456 C457 1.377 . S
C457 H441 0.930 . S
C457 C456 1.377 . S
C457 C458 1.379 . S
C458 H442 0.931 . S
C458 C452 1.383 . S
C458 C457 1.379 . S
H459 C453 0.959 . S
H460 C453 0.961 . S
H461 C453 0.960 . S
H462 C454 0.930 . S
H463 C455 0.929 . S
H464 C472 0.929 . S
H465 C474 0.930 . S
H466 C476 0.930 . S
H467 C479 0.929 . S
H468 C482 0.930 . S
H469 C484 0.960 . S
H470 C484 0.960 . S
H471 C484 0.960 . S
C472 H464 0.929 . S
C472 C473 1.377 . S
C472 C474 1.384 . S
C473 C472 1.377 . S
C473 C479 1.390 . S
C474 H465 0.930 . S
C474 C472 1.384 . S
C474 C475 1.372 . S
C475 C474 1.372 . S
C475 C476 1.400 . S
C475 C480 1.490 . S
C476 H466 0.930 . S
C476 C475 1.400 . S
C476 C479 1.386 . S
H477 C493 0.930 . S
H478 C494 0.931 . S
C479 H467 0.929 . S
C479 C473 1.390 . S
C479 C476 1.386 . S
C480 C475 1.490 . S
C480 C482 1.395 . S
C480 C483 1.403 . S
H481 C487 0.930 . S
C482 H468 0.930 . S
C482 C480 1.395 . S
C482 C485 1.403 . S
C483 C480 1.403 . S
C483 C484 1.524 . S
C483 C487 1.400 . S
C484 H469 0.960 . S
C484 H470 0.960 . S
C484 H471 0.960 . S
C484 C483 1.524 . S
C485 C482 1.403 . S
C485 C486 1.392 . S
C485 C489 1.495 . S
C486 C485 1.392 . S
C486 C487 1.385 . S
C486 C488 1.478 . S
C487 H481 0.930 . S
C487 C483 1.400 . S
C487 C486 1.385 . S
C488 C486 1.478 . S
C488 C490 1.381 . S
C488 C494 1.383 . S
C489 C485 1.495 . S
C489 H495 0.959 . S
C489 H496 0.961 . S
C489 H497 0.960 . S
C490 C488 1.381 . S
C490 C491 1.394 . S
C490 H498 0.930 . S
C491 C490 1.394 . S
C491 C492 1.383 . S
C491 H499 0.929 . S
C492 C491 1.383 . S
C492 C493 1.377 . S
C493 H477 0.930 . S
C493 C492 1.377 . S
C493 C494 1.379 . S
C494 H478 0.931 . S
C494 C488 1.383 . S
C494 C493 1.379 . S
H495 C489 0.959 . S
H496 C489 0.961 . S
H497 C489 0.960 . S
H498 C490 0.930 . S
H499 C491 0.929 . S
H500 C508 0.929 . S
H501 C510 0.930 . S
H502 C512 0.930 . S
H503 C515 0.929 . S
H504 C518 0.930 . S
H505 C520 0.960 . S
H506 C520 0.960 . S
H507 C520 0.960 . S
C508 H500 0.929 . S
C508 C509 1.377 . S
C508 C510 1.384 . S
C509 C508 1.377 . S
C509 C515 1.390 . S
C510 H501 0.930 . S
C510 C508 1.384 . S
C510 C511 1.372 . S
C511 C510 1.372 . S
C511 C512 1.400 . S
C511 C516 1.490 . S
C512 H502 0.930 . S
C512 C511 1.400 . S
C512 C515 1.386 . S
H513 C529 0.930 . S
H514 C530 0.931 . S
C515 H503 0.929 . S
C515 C509 1.390 . S
C515 C512 1.386 . S
C516 C511 1.490 . S
C516 C518 1.395 . S
C516 C519 1.403 . S
H517 C523 0.930 . S
C518 H504 0.930 . S
C518 C516 1.395 . S
C518 C521 1.403 . S
C519 C516 1.403 . S
C519 C520 1.524 . S
C519 C523 1.400 . S
C520 H505 0.960 . S
C520 H506 0.960 . S
C520 H507 0.960 . S
C520 C519 1.524 . S
C521 C518 1.403 . S
C521 C522 1.392 . S
C521 C525 1.495 . S
C522 C521 1.392 . S
C522 C523 1.385 . S
C522 C524 1.478 . S
C523 H517 0.930 . S
C523 C519 1.400 . S
C523 C522 1.385 . S
C524 C522 1.478 . S
C524 C526 1.381 . S
C524 C530 1.383 . S
C525 C521 1.495 . S
C525 H531 0.959 . S
C525 H532 0.961 . S
C525 H533 0.960 . S
C526 C524 1.381 . S
C526 C527 1.394 . S
C526 H534 0.930 . S
C527 C526 1.394 . S
C527 C528 1.383 . S
C527 H535 0.931 1_455 S
C528 C527 1.383 . S
C528 C529 1.377 . S
C529 H513 0.930 . S
C529 C528 1.377 . S
C529 C530 1.379 . S
C530 H514 0.931 . S
C530 C524 1.383 . S
C530 C529 1.379 . S
H531 C525 0.959 . S
H532 C525 0.961 . S
H533 C525 0.960 . S
H534 C526 0.930 . S
H535 C527 0.931 1_655 S
C132 C40 1.543 . S
C113 C34 1.532 . S
C149 C7 1.493 . S
C168 C83 1.500 . S
C185 C16 1.529 . S
C204 C49 1.543 . S
C221 C25 1.493 . S
C240 C74 1.494 . S
C276 C36 1.518 . S
C257 C5 1.505 . S
C312 C78 1.565 . S
C293 C13 1.547 . S
C329 C23 1.504 . S
C348 C44 1.518 . S
C365 C32 1.551 . S
C384 C70 1.568 . S
C420 C99 1.564 . S
C401 C14 1.545 . S
C456 C65 1.516 . S
C437 C22 1.500 . S
C492 C87 1.564 . S
C473 C31 1.551 . S
C509 C4 1.502 . S
C528 C53 1.515 . S
