# Generated by pormake.
# Topology apo, (3,6)-cn, num edge types: 1
# Building blocks:
#     Node 0, Type 0, BuildingBlock: QEWDON_clean_linker_0, # of connection points: 3
#     Node 1, Type 0, BuildingBlock: QEWDON_clean_linker_0, # of connection points: 3
#     Node 2, Type 0, BuildingBlock: QEWDON_clean_linker_0, # of connection points: 3
#     Node 3, Type 0, BuildingBlock: QEWDON_clean_linker_0, # of connection points: 3
#     Node 4, Type 0, BuildingBlock: QEWDON_clean_linker_0, # of connection points: 3
#     Node 5, Type 0, BuildingBlock: QEWDON_clean_linker_0, # of connection points: 3
#     Node 6, Type 0, BuildingBlock: QEWDON_clean_linker_0, # of connection points: 3
#     Node 7, Type 0, BuildingBlock: QEWDON_clean_linker_0, # of connection points: 3
#     Node 8, Type 1, BuildingBlock: KUMBUR_clean_sbu_1, # of connection points: 6
#     Node 9, Type 1, BuildingBlock: KUMBUR_clean_sbu_1, # of connection points: 6
#     Node 10, Type 1, BuildingBlock: KUMBUR_clean_sbu_1, # of connection points: 6
#     Node 11, Type 1, BuildingBlock: KUMBUR_clean_sbu_1, # of connection points: 6
#     Edge 12, Type (0, 1), BuildingBlock: AJUNOK_clean_linker_0, # of connection points: 2
#     Edge 13, Type (0, 1), BuildingBlock: AJUNOK_clean_linker_0, # of connection points: 2
#     Edge 14, Type (0, 1), BuildingBlock: AJUNOK_clean_linker_0, # of connection points: 2
#     Edge 15, Type (0, 1), BuildingBlock: AJUNOK_clean_linker_0, # of connection points: 2
#     Edge 16, Type (0, 1), BuildingBlock: AJUNOK_clean_linker_0, # of connection points: 2
#     Edge 17, Type (0, 1), BuildingBlock: AJUNOK_clean_linker_0, # of connection points: 2
#     Edge 18, Type (0, 1), BuildingBlock: AJUNOK_clean_linker_0, # of connection points: 2
#     Edge 19, Type (0, 1), BuildingBlock: AJUNOK_clean_linker_0, # of connection points: 2
#     Edge 20, Type (0, 1), BuildingBlock: AJUNOK_clean_linker_0, # of connection points: 2
#     Edge 21, Type (0, 1), BuildingBlock: AJUNOK_clean_linker_0, # of connection points: 2
#     Edge 22, Type (0, 1), BuildingBlock: AJUNOK_clean_linker_0, # of connection points: 2
#     Edge 23, Type (0, 1), BuildingBlock: AJUNOK_clean_linker_0, # of connection points: 2
#     Edge 24, Type (0, 1), BuildingBlock: AJUNOK_clean_linker_0, # of connection points: 2
#     Edge 25, Type (0, 1), BuildingBlock: AJUNOK_clean_linker_0, # of connection points: 2
#     Edge 26, Type (0, 1), BuildingBlock: AJUNOK_clean_linker_0, # of connection points: 2
#     Edge 27, Type (0, 1), BuildingBlock: AJUNOK_clean_linker_0, # of connection points: 2
#     Edge 28, Type (0, 1), BuildingBlock: AJUNOK_clean_linker_0, # of connection points: 2
#     Edge 29, Type (0, 1), BuildingBlock: AJUNOK_clean_linker_0, # of connection points: 2
#     Edge 30, Type (0, 1), BuildingBlock: AJUNOK_clean_linker_0, # of connection points: 2
#     Edge 31, Type (0, 1), BuildingBlock: AJUNOK_clean_linker_0, # of connection points: 2
#     Edge 32, Type (0, 1), BuildingBlock: AJUNOK_clean_linker_0, # of connection points: 2
#     Edge 33, Type (0, 1), BuildingBlock: AJUNOK_clean_linker_0, # of connection points: 2
#     Edge 34, Type (0, 1), BuildingBlock: AJUNOK_clean_linker_0, # of connection points: 2
#     Edge 35, Type (0, 1), BuildingBlock: AJUNOK_clean_linker_0, # of connection points: 2
# Relax obj value: 0.076
# Max RMSD: 0.275
# Mean RMSD: 0.216
data_MOF--net-apo--node1-KUMBUR_clean_sbu_1--node2-QEWDON_clean_linker_0--edge1-AJUNOK_clean_linker_0
_symmetry_space_group_name_H-M    P1
_symmetry_Int_Tables_number       1
_symmetry_cell_setting            triclinic
loop_
_symmetry_equiv_pos_as_xyz
'x, y, z'
_cell_length_a     22.83158
_cell_length_b     31.413609
_cell_length_c     39.472818
_cell_angle_alpha  89.986299
_cell_angle_beta   90.970173
_cell_angle_gamma 90.856385
loop_
_atom_site_label
_atom_site_type_symbol
_atom_site_fract_x
_atom_site_fract_y
_atom_site_fract_z
_atom_type_partial_charge
H0 H 0.28575 0.42362 0.37114 0.0
C1 C 0.30316 0.42421 0.39687 0.0
C2 C 0.35294 0.44945 0.40477 0.0
C3 C 0.27373 0.40199 0.42257 0.0
H4 H 0.40959 0.47378 0.44454 0.0
C5 C 0.37297 0.45257 0.43851 0.0
C6 C 0.34372 0.43107 0.46467 0.0
C7 C 0.29494 0.40496 0.45619 0.0
C8 C 0.21513 0.38235 0.41587 0.0
H9 H 0.27197 0.38783 0.47588 0.0
C10 C 0.20683 0.34584 0.3953 0.0
C11 C 0.14989 0.32853 0.39001 0.0
C12 C 0.16634 0.40104 0.43078 0.0
H13 H 0.17172 0.42906 0.44662 0.0
C14 C 0.11022 0.38418 0.42521 0.0
H15 H 0.24412 0.33088 0.38387 0.0
C16 C 0.10197 0.34823 0.40494 0.0
H17 H 0.05802 0.33538 0.40117 0.0
H18 H 0.07297 0.39897 0.43674 0.0
H19 H 0.2344 0.11664 0.87479 0.0
C20 C 0.21268 0.11395 0.89893 0.0
C21 C 0.15948 0.09093 0.9011 0.0
C22 C 0.2393 0.13146 0.92822 0.0
H23 H 0.08968 0.07086 0.93332 0.0
C24 C 0.13175 0.08708 0.93248 0.0
C25 C 0.15934 0.10191 0.9625 0.0
C26 C 0.21293 0.12445 0.95975 0.0
C27 C 0.29724 0.15389 0.92706 0.0
H28 H 0.23551 0.13585 0.9824 0.0
C29 C 0.30768 0.18843 0.90488 0.0
C30 C 0.36145 0.21122 0.90665 0.0
C31 C 0.34198 0.14176 0.94989 0.0
H32 H 0.3356 0.11505 0.96686 0.0
C33 C 0.39532 0.16393 0.95121 0.0
H34 H 0.2738 0.19826 0.88711 0.0
C35 C 0.40491 0.19861 0.92992 0.0
H36 H 0.44667 0.21539 0.93132 0.0
H37 H 0.42929 0.15428 0.96894 0.0
H38 H 0.74044 0.0997 0.69523 0.0
C39 C 0.75417 0.10488 0.66937 0.0
C40 C 0.80415 0.08454 0.65734 0.0
C41 C 0.71915 0.12932 0.64753 0.0
H42 H 0.85662 0.07318 0.61314 0.0
C43 C 0.81878 0.08925 0.62294 0.0
C44 C 0.78436 0.11413 0.60095 0.0
C45 C 0.73463 0.13417 0.6135 0.0
C46 C 0.66178 0.14407 0.65897 0.0
H47 H 0.70632 0.15183 0.5964 0.0
C48 C 0.65667 0.18178 0.67782 0.0
C49 C 0.6015 0.19413 0.6894 0.0
C50 C 0.61165 0.11916 0.6516 0.0
H51 H 0.61497 0.09001 0.63713 0.0
C52 C 0.55702 0.13139 0.6632 0.0
H53 H 0.69521 0.20123 0.68351 0.0
C54 C 0.55192 0.1686 0.68213 0.0
H55 H 0.50915 0.17777 0.69084 0.0
H56 H 0.51856 0.11194 0.65754 0.0
H57 H 0.75748 0.42616 0.19792 0.0
C58 C 0.73684 0.41998 0.17342 0.0
C59 C 0.68593 0.44169 0.1639 0.0
C60 C 0.76329 0.39214 0.15084 0.0
H61 H 0.62338 0.453 0.12352 0.0
C62 C 0.66151 0.4351 0.13123 0.0
C63 C 0.68649 0.40605 0.10852 0.0
C64 C 0.73794 0.38496 0.11869 0.0
C65 C 0.82089 0.37432 0.1597 0.0
H66 H 0.75867 0.36301 0.1016 0.0
C67 C 0.82571 0.33781 0.18014 0.0
C68 C 0.88134 0.32308 0.18999 0.0
C69 C 0.87172 0.39559 0.14894 0.0
H70 H 0.86862 0.42386 0.13331 0.0
C71 C 0.92687 0.381 0.15876 0.0
H72 H 0.78656 0.32125 0.18854 0.0
C73 C 0.93175 0.34505 0.17933 0.0
H74 H 0.97492 0.334 0.18659 0.0
H75 H 0.96594 0.39766 0.1505 0.0
H76 H 0.66229 0.64204 0.71235 0.0
C77 C 0.65973 0.63519 0.68543 0.0
C78 C 0.64021 0.59484 0.67435 0.0
C79 C 0.67305 0.66744 0.66198 0.0
H80 H 0.61702 0.55631 0.63086 0.0
C81 C 0.63387 0.58699 0.63946 0.0
C82 C 0.64612 0.61897 0.61559 0.0
C83 C 0.66629 0.65916 0.62705 0.0
C84 C 0.68185 0.71163 0.67433 0.0
H85 H 0.67339 0.68465 0.60899 0.0
C86 C 0.73791 0.72886 0.68234 0.0
C87 C 0.74374 0.7706 0.69573 0.0
C88 C 0.63205 0.73617 0.67961 0.0
H89 H 0.58871 0.72332 0.67382 0.0
C90 C 0.63751 0.77715 0.69281 0.0
H91 H 0.77638 0.71004 0.67789 0.0
C92 C 0.69266 0.79419 0.7009 0.0
H93 H 0.69524 0.82594 0.71158 0.0
H94 H 0.59874 0.79572 0.69702 0.0
H95 H 0.82152 0.89655 0.18688 0.0
C96 C 0.82878 0.90914 0.16174 0.0
C97 C 0.8661 0.94505 0.15773 0.0
C98 C 0.80223 0.88947 0.13306 0.0
H99 H 0.91392 0.98369 0.12218 0.0
C100 C 0.88133 0.95856 0.12496 0.0
C101 C 0.85491 0.93967 0.09615 0.0
C102 C 0.81074 0.90883 0.10125 0.0
C103 C 0.77053 0.84695 0.13426 0.0
H104 H 0.7843 0.89832 0.07976 0.0
C105 C 0.74054 0.83135 0.16311 0.0
C106 C 0.71264 0.7907 0.16206 0.0
C107 C 0.77267 0.82018 0.10545 0.0
H108 H 0.79793 0.82871 0.08352 0.0
C109 C 0.74338 0.78117 0.10423 0.0
H110 H 0.73934 0.85002 0.18612 0.0
C111 C 0.71323 0.76665 0.13217 0.0
H112 H 0.69177 0.73564 0.13088 0.0
H113 H 0.74517 0.76164 0.08168 0.0
H114 H 0.19316 0.88663 0.35415 0.0
C115 C 0.19208 0.89044 0.38142 0.0
C116 C 0.17861 0.9301 0.39575 0.0
C117 C 0.20258 0.85507 0.40209 0.0
H118 H 0.16421 0.96321 0.44311 0.0
C119 C 0.17701 0.93367 0.43142 0.0
C120 C 0.1889 0.8984 0.45226 0.0
C121 C 0.20185 0.85928 0.43729 0.0
C122 C 0.20965 0.81267 0.38715 0.0
H123 H 0.21091 0.83177 0.45304 0.0
C124 C 0.26496 0.79887 0.37731 0.0
C125 C 0.27168 0.75732 0.36492 0.0
C126 C 0.16098 0.78505 0.38436 0.0
H127 H 0.11812 0.7953 0.39211 0.0
C128 C 0.16745 0.74389 0.37184 0.0
H129 H 0.30269 0.82004 0.38001 0.0
C130 C 0.22252 0.72996 0.36227 0.0
H131 H 0.22671 0.69791 0.35255 0.0
H132 H 0.12979 0.72267 0.36972 0.0
H133 H 0.35341 0.65019 0.85891 0.0
C134 C 0.35085 0.6485 0.88618 0.0
C135 C 0.35854 0.60945 0.90367 0.0
C136 C 0.34316 0.68685 0.90385 0.0
H137 H 0.35496 0.58193 0.9544 0.0
C138 C 0.35571 0.61063 0.93947 0.0
C139 C 0.35655 0.64937 0.95723 0.0
C140 C 0.34814 0.68727 0.93927 0.0
C141 C 0.33856 0.72774 0.88549 0.0
H142 H 0.34832 0.7174 0.95268 0.0
C143 C 0.28463 0.7415 0.87179 0.0
C144 C 0.28032 0.78241 0.85731 0.0
C145 C 0.38808 0.7546 0.88384 0.0
H146 H 0.42976 0.74459 0.89442 0.0
C147 C 0.38405 0.79476 0.86897 0.0
H148 H 0.246 0.72117 0.87341 0.0
C149 C 0.33046 0.80876 0.85602 0.0
H150 H 0.32806 0.84028 0.84494 0.0
H151 H 0.42243 0.81533 0.86787 0.0
Tb152 Tb 0.06961 0.12595 0.24971 0.0
C153 C 0.85979 0.0434 0.3145 0.0
N154 N 0.87142 0.08508 0.30781 0.0
C155 C 0.77716 0.09173 0.28068 0.0
C156 C 0.80716 0.02371 0.30328 0.0
C157 C 0.83031 0.1098 0.29208 0.0
C158 C 0.76577 0.04841 0.28598 0.0
C159 C 0.89119 0.97734 0.34006 0.0
C160 C 0.90153 0.02058 0.3323 0.0
C161 C 0.83946 0.95711 0.32823 0.0
C162 C 0.79752 0.98025 0.30988 0.0
Tb163 Tb 0.95908 0.11155 0.32797 0.0
N164 N 0.951 0.04131 0.34329 0.0
C165 C 0.93229 0.95615 0.36033 0.0
C166 C 0.9885 0.02169 0.36544 0.0
C167 C 0.98056 0.97868 0.37363 0.0
H168 H 0.83858 0.14337 0.2883 0.0
H169 H 0.01123 0.96313 0.3906 0.0
H170 H 0.18079 0.05978 0.26903 0.0
H171 H 0.07664 0.29118 0.21392 0.0
H172 H 0.02404 0.03927 0.37753 0.0
H173 H 0.926 0.92292 0.36692 0.0
H174 H 0.03395 0.21823 0.21682 0.0
H175 H 0.74503 0.11122 0.26782 0.0
H176 H 0.83095 0.9238 0.33371 0.0
H177 H 0.7575 0.96439 0.30129 0.0
H178 H 0.28082 0.06692 0.29242 0.0
H179 H 0.72469 0.03449 0.27699 0.0
H180 H 0.1745 0.30633 0.23967 0.0
N181 N 0.16579 0.12677 0.26793 0.0
C182 C 0.19169 0.16602 0.2697 0.0
C183 C 0.25588 0.09513 0.28668 0.0
C184 C 0.24984 0.17152 0.28165 0.0
C185 C 0.19842 0.09129 0.27405 0.0
C186 C 0.28133 0.13546 0.29116 0.0
N187 N 0.10578 0.19358 0.2451 0.0
C188 C 0.07641 0.22493 0.22825 0.0
C189 C 0.18731 0.24129 0.25615 0.0
C190 C 0.16113 0.20047 0.25714 0.0
C191 C 0.15591 0.27445 0.24099 0.0
C192 C 0.10062 0.26605 0.22645 0.0
H193 H 0.3261 0.13829 0.30053 0.0
H194 H 0.31974 0.21748 0.29188 0.0
H195 H 0.26488 0.27862 0.26954 0.0
O196 O 0.0345 0.12344 0.19988 0.0
O197 O 0.05771 0.17841 0.28576 0.0
O198 O 0.04209 0.14673 0.33716 0.0
O199 O 0.12635 0.11561 0.20938 0.0
O200 O 0.97867 0.14747 0.2437 0.0
O201 O 0.94619 0.16857 0.29661 0.0
O202 O 0.94428 0.10529 0.38017 0.0
O203 O 0.94041 0.08332 0.27722 0.0
O204 O 0.02875 0.06323 0.25667 0.0
O205 O 0.90682 0.1569 0.35245 0.0
O206 O 0.05104 0.09318 0.33582 0.0
O207 O 0.08198 0.07063 0.28332 0.0
C208 C 0.0649 0.17754 0.31877 0.0
C209 C 0.08636 0.08073 0.16157 0.0
C210 C 0.09717 0.05935 0.10228 0.0
C211 C 0.10701 0.01737 0.11356 0.0
C212 C 0.09436 0.03856 0.17193 0.0
C213 C 0.10414 1.00702 0.14793 0.0
C214 C 0.08588 0.09073 0.12687 0.0
C215 C 0.94764 0.17235 0.26326 0.0
C216 C 0.08475 0.11534 0.18658 0.0
C217 C 0.27532 0.21255 0.28243 0.0
C218 C 0.24414 0.24737 0.26963 0.0
C219 C 0.97212 0.05688 0.25959 0.0
C220 C 0.85523 0.13015 0.4004 0.0
C221 C 0.80671 0.11956 0.45461 0.0
C222 C 0.75427 0.10965 0.4371 0.0
C223 C 0.80206 0.12081 0.38346 0.0
C224 C 0.85716 0.12994 0.43613 0.0
C225 C 0.75195 0.11061 0.40174 0.0
C226 C 0.0838 0.06917 0.31671 0.0
C227 C 0.90987 0.13755 0.38158 0.0
H228 H 0.11935 0.99256 0.09623 0.0
H229 H 0.09523 0.03043 0.19858 0.0
H230 H 0.11193 0.97467 0.1561 0.0
H231 H 0.07862 0.12341 0.1193 0.0
H232 H 0.71498 0.10153 0.45085 0.0
H233 H 0.79913 0.12107 0.35619 0.0
H234 H 0.89803 0.13695 0.44951 0.0
H235 H 0.71123 0.10319 0.38844 0.0
Tb236 Tb 0.42841 0.40641 0.75517 0.0
C237 C 0.67775 0.44829 0.8002 0.0
N238 N 0.64987 0.40971 0.80044 0.0
C239 C 0.73146 0.3782 0.77292 0.0
C240 C 0.73259 0.45368 0.7848 0.0
C241 C 0.67677 0.3745 0.78819 0.0
C242 C 0.75925 0.41801 0.77091 0.0
C243 C 0.67623 0.52358 0.81353 0.0
C244 C 0.64983 0.48273 0.81441 0.0
C245 C 0.73055 0.52927 0.79781 0.0
C246 C 0.7587 0.49439 0.78354 0.0
Tb247 Tb 0.56052 0.40765 0.82558 0.0
N248 N 0.59653 0.4762 0.82869 0.0
C249 C 0.64732 0.55746 0.82857 0.0
C250 C 0.56997 0.50876 0.84499 0.0
C251 C 0.59432 0.54987 0.84475 0.0
H252 H 0.65672 0.34335 0.79043 0.0
H253 H 0.57249 0.57558 0.85742 0.0
H254 H 0.33153 0.48162 0.77215 0.0
H255 H 0.38564 0.24442 0.71677 0.0
H256 H 0.53104 0.50325 0.85905 0.0
H257 H 0.66608 0.58935 0.82843 0.0
H258 H 0.44217 0.3122 0.72058 0.0
H259 H 0.75225 0.35029 0.76284 0.0
H260 H 0.7513 0.56047 0.79672 0.0
H261 H 0.80065 0.49924 0.77159 0.0
H262 H 0.23287 0.48541 0.79644 0.0
H263 H 0.80142 0.4208 0.75886 0.0
H264 H 0.2893 0.23786 0.74445 0.0
N265 N 0.33428 0.41415 0.77356 0.0
C266 C 0.30181 0.37781 0.7763 0.0
C267 C 0.25218 0.4548 0.79159 0.0
C268 C 0.24407 0.3782 0.78835 0.0
C269 C 0.30883 0.4526 0.77876 0.0
C270 C 0.22007 0.41731 0.79715 0.0
N271 N 0.37929 0.34277 0.75089 0.0
C272 C 0.40034 0.3094 0.73279 0.0
C273 C 0.29097 0.30295 0.76259 0.0
C274 C 0.32469 0.34081 0.76379 0.0
C275 C 0.31392 0.26756 0.74613 0.0
C276 C 0.36826 0.27115 0.73044 0.0
H277 H 0.17583 0.41909 0.80651 0.0
H278 H 0.16712 0.33947 0.79902 0.0
H279 H 0.20826 0.27344 0.77629 0.0
O280 O 0.45392 0.39922 0.70472 0.0
O281 O 0.43421 0.35322 0.79126 0.0
O282 O 0.47372 0.38272 0.84005 0.0
O283 O 0.3743 0.43095 0.71593 0.0
O284 O 0.51224 0.37539 0.74494 0.0
O285 O 0.5506 0.34935 0.79551 0.0
O286 O 0.59463 0.42126 0.87447 0.0
O287 O 0.56976 0.43341 0.77409 0.0
O288 O 0.48212 0.46406 0.76149 0.0
O289 O 0.60179 0.35883 0.85299 0.0
O290 O 0.47931 0.43863 0.84031 0.0
O291 O 0.42836 0.46039 0.79175 0.0
C292 C 0.44165 0.35344 0.82433 0.0
C293 C 0.42208 0.44944 0.6648 0.0
C294 C 0.41969 0.46608 0.6043 0.0
C295 C 0.45613 0.50173 0.61065 0.0
C296 C 0.45735 0.48566 0.67076 0.0
C297 C 0.47441 0.5116 0.64377 0.0
C298 C 0.40284 0.44002 0.63157 0.0
C299 C 0.54081 0.34633 0.76255 0.0
C300 C 0.40911 0.41905 0.69216 0.0
C301 C 0.21135 0.33995 0.78948 0.0
C302 C 0.23473 0.30236 0.77651 0.0
C303 C 0.53948 0.46463 0.76094 0.0
C304 C 0.58744 0.36332 0.91234 0.0
C305 C 0.58896 0.36134 0.97457 0.0
C306 C 0.54825 0.32725 0.97317 0.0
C307 C 0.5458 0.32993 0.91192 0.0
C308 C 0.60874 0.37903 0.94379 0.0
C309 C 0.52652 0.31208 0.94215 0.0
C310 C 0.44015 0.46271 0.82479 0.0
C311 C 0.60858 0.38195 0.88022 0.0
H312 H 0.46979 0.52217 0.59005 0.0
H313 H 0.47222 0.49345 0.69614 0.0
H314 H 0.50215 0.53928 0.64851 0.0
H315 H 0.37598 0.41182 0.6268 0.0
H316 H 0.53377 0.31169 0.9961 0.0
H317 H 0.52843 0.31732 0.88822 0.0
H318 H 0.64037 0.40511 0.94425 0.0
H319 H 0.49494 0.28606 0.94153 0.0
Tb320 Tb 0.0658 0.92226 0.73163 0.0
C321 C 0.82982 0.87545 0.79479 0.0
N322 N 0.85734 0.91413 0.79381 0.0
C323 C 0.76734 0.94623 0.77542 0.0
C324 C 0.77063 0.87036 0.7846 0.0
C325 C 0.82567 0.94976 0.78663 0.0
C326 C 0.74003 0.90622 0.7737 0.0
C327 C 0.83185 0.80159 0.8127 0.0
C328 C 0.85996 0.84139 0.80838 0.0
C329 C 0.77375 0.79583 0.80115 0.0
C330 C 0.74329 0.8301 0.78696 0.0
Tb331 Tb 0.95443 0.91429 0.81019 0.0
N332 N 0.9166 0.84774 0.81834 0.0
C333 C 0.86276 0.76909 0.82902 0.0
C334 C 0.94625 0.81686 0.83557 0.0
C335 C 0.92003 0.77691 0.8408 0.0
H336 H 0.84461 0.98118 0.78994 0.0
H337 H 0.94392 0.7522 0.85392 0.0
H338 H 0.18601 0.87939 0.76297 0.0
H339 H 0.0249 0.07969 0.68061 0.0
H340 H 0.99025 0.82304 0.84501 0.0
H341 H 0.84263 0.73808 0.83299 0.0
H342 H 1.00525 1.00341 0.68847 0.0
H343 H 0.74314 0.97449 0.76879 0.0
H344 H 0.75165 0.76526 0.80367 0.0
H345 H 0.69803 0.82549 0.77894 0.0
H346 H 0.28555 0.90311 0.7804 0.0
H347 H 0.69458 0.90365 0.7655 0.0
H348 H 0.11749 0.11191 0.70259 0.0
N349 N 0.15843 0.94126 0.74877 0.0
C350 C 0.17459 0.98254 0.74382 0.0
C351 C 0.25457 0.92588 0.77047 0.0
C352 C 0.23089 0.99761 0.75333 0.0
C353 C 0.19779 0.91263 0.76113 0.0
C354 C 0.27107 0.96865 0.76684 0.0
N355 N 0.0808 0.99315 0.71961 0.0
C356 C 0.04338 0.01737 0.70063 0.0
C357 C 0.14868 0.05276 0.72392 0.0
C358 C 0.1339 1.0096 0.72943 0.0
C359 C 0.1079 0.07857 0.70731 0.0
C360 C 0.05546 0.06056 0.69506 0.0
H361 H 0.31493 0.9789 0.77431 0.0
H362 H 0.28813 0.05319 0.75627 0.0
H363 H 0.21613 0.10154 0.73047 0.0
O364 O 0.07968 0.92999 0.67958 0.0
O365 O 0.08722 0.95088 0.78161 0.0
O366 O 0.99888 0.97439 0.79908 0.0
O367 O 0.11067 0.87433 0.70546 0.0
O368 O 0.97574 0.94357 0.72242 0.0
O369 O 0.94175 0.96755 0.77401 0.0
O370 O 0.99193 0.92424 0.85908 0.0
O371 O 0.96439 0.86018 0.77547 0.0
O372 O 0.98067 0.88973 0.7235 0.0
O373 O 0.89904 0.92642 0.85074 0.0
O374 O 0.04278 0.8878 0.81769 0.0
O375 O 0.0753 0.8664 0.76468 0.0
C376 C 0.05607 0.9777 0.79913 0.0
C377 C 0.16146 0.89758 0.65609 0.0
C378 C 0.2033 0.90279 0.5996 0.0
C379 C 0.25969 0.90381 0.61445 0.0
C380 C 0.21811 0.89791 0.67039 0.0
C381 C 0.26691 0.90134 0.64963 0.0
C382 C 0.15439 0.90029 0.62074 0.0
C383 C 0.94097 0.96745 0.74046 0.0
C384 C 0.10851 0.89497 0.67686 0.0
C385 C 0.24523 0.04085 0.74887 0.0
C386 C 0.20415 0.0684 0.73427 0.0
C387 C 0.95408 0.86153 0.74275 0.0
C388 C 0.93625 0.96594 0.89703 0.0
C389 C 0.91458 0.98554 0.95568 0.0
C390 C 0.90004 0.02658 0.94404 0.0
C391 C 0.9218 1.00694 0.88617 0.0
C392 C 0.9364 0.95644 0.9318 0.0
C393 C 0.90513 0.03738 0.90978 0.0
C394 C 0.07738 0.86523 0.79819 0.0
C395 C 0.94148 0.93062 0.87277 0.0
H396 H 0.29818 0.9056 0.59881 0.0
H397 H 0.22484 0.89541 0.69741 0.0
H398 H 0.31052 0.90169 0.66082 0.0
H399 H 0.11058 0.90055 0.60969 0.0
H400 H 0.88278 0.05013 0.96102 0.0
H401 H 0.92146 1.01488 0.85946 0.0
H402 H 0.95162 0.92549 0.93964 0.0
H403 H 0.89328 0.06891 0.90126 0.0
Tb404 Tb 0.46617 0.62434 0.24738 0.0
C405 C 0.72436 0.64172 0.31093 0.0
N406 N 0.68808 0.60702 0.31028 0.0
C407 C 0.76944 0.56194 0.29919 0.0
C408 C 0.78489 0.63787 0.30548 0.0
C409 C 0.7097 0.56733 0.30484 0.0
C410 C 0.80722 0.59735 0.29948 0.0
C411 C 0.7362 0.71835 0.31632 0.0
C412 C 0.70036 0.68147 0.31626 0.0
C413 C 0.79664 0.71466 0.31115 0.0
C414 C 0.82093 0.67453 0.30578 0.0
Tb415 Tb 0.59204 0.6202 0.3204 0.0
N416 N 0.64132 0.68397 0.31998 0.0
C417 C 0.71012 0.75782 0.32142 0.0
C418 C 0.61605 0.72217 0.32644 0.0
C419 C 0.64987 0.75968 0.32675 0.0
H420 H 0.68125 0.53964 0.30572 0.0
H421 H 0.62951 0.78998 0.33134 0.0
H422 H 0.37141 0.70049 0.26343 0.0
H423 H 0.44139 0.45315 0.2369 0.0
H424 H 0.57005 0.72401 0.33152 0.0
H425 H 0.73613 0.78696 0.32161 0.0
H426 H 0.49385 0.52168 0.23256 0.0
H427 H 0.78638 0.53044 0.29489 0.0
H428 H 0.82494 0.74266 0.31107 0.0
H429 H 0.86756 0.67223 0.3016 0.0
H430 H 0.26824 0.70503 0.28088 0.0
H431 H 0.85347 0.59306 0.29509 0.0
H432 H 0.33745 0.45115 0.25367 0.0
N433 N 0.37066 0.63299 0.26147 0.0
C434 C 0.33768 0.59665 0.26297 0.0
C435 C 0.28734 0.67431 0.27615 0.0
C436 C 0.27825 0.59769 0.27196 0.0
C437 C 0.34606 0.67165 0.26696 0.0
C438 C 0.25334 0.63716 0.27887 0.0
N439 N 0.42251 0.55834 0.24931 0.0
C440 C 0.44956 0.52141 0.2411 0.0
C441 C 0.33212 0.5196 0.25876 0.0
C442 C 0.3643 0.55808 0.25646 0.0
C443 C 0.36061 0.48143 0.25217 0.0
C444 C 0.41939 0.48241 0.24292 0.0
H445 H 0.20791 0.63931 0.28608 0.0
H446 H 0.20032 0.55951 0.2813 0.0
H447 H 0.24745 0.49119 0.26974 0.0
O448 O 0.47051 0.60481 0.19653 0.0
O449 O 0.44687 0.59459 0.29695 0.0
O450 O 0.5329 0.56506 0.31605 0.0
O451 O 0.41643 0.65702 0.21053 0.0
O452 O 0.55027 0.59515 0.23631 0.0
O453 O 0.58466 0.56513 0.28619 0.0
O454 O 0.57467 0.63722 0.37087 0.0
O455 O 0.61348 0.65444 0.27337 0.0
O456 O 0.52787 0.67891 0.24788 0.0
O457 O 0.63967 0.59079 0.35984 0.0
O458 O 0.50975 0.65339 0.32995 0.0
O459 O 0.47723 0.68097 0.27882 0.0
C460 C 0.47548 0.5668 0.31567 0.0
C461 C 0.45499 0.658 0.15552 0.0
C462 C 0.44658 0.67171 0.09481 0.0
C463 C 0.49433 0.70029 0.09741 0.0
C464 C 0.50262 0.68663 0.15765 0.0
C465 C 0.52198 0.70783 0.12874 0.0
C466 C 0.42672 0.65079 0.12403 0.0
C467 C 0.58222 0.56717 0.25278 0.0
C468 C 0.43564 0.63443 0.18562 0.0
C469 C 0.24598 0.55939 0.27426 0.0
C470 C 0.27285 0.52046 0.26771 0.0
C471 C 0.58538 0.67974 0.25221 0.0
C472 C 0.59357 0.58531 0.41288 0.0
C473 C 0.59075 0.57506 0.47443 0.0
C474 C 0.56033 0.53624 0.46895 0.0
C475 C 0.5637 0.54645 0.40818 0.0
C476 C 0.60662 0.5997 0.446 0.0
C477 C 0.54683 0.52222 0.4361 0.0
C478 C 0.47813 0.68039 0.31212 0.0
C479 C 0.61256 0.61081 0.38358 0.0
H480 H 0.51049 0.71646 0.07512 0.0
H481 H 0.52505 0.69222 0.18156 0.0
H482 H 0.55893 0.72977 0.13055 0.0
H483 H 0.3904 0.62823 0.12211 0.0
H484 H 0.5477 0.51632 0.49009 0.0
H485 H 0.55408 0.53478 0.38294 0.0
H486 H 0.62883 0.63014 0.44951 0.0
H487 H 0.52377 0.49219 0.43227 0.0
C488 C 0.12559 0.95876 0.34443 0.0
C489 C 0.16139 0.96638 0.37338 0.0
C490 C 0.10423 0.99232 0.3246 0.0
C491 C 0.11643 0.03478 0.3335 0.0
H492 H 0.11151 0.92672 0.3378 0.0
H493 H 0.07461 0.98504 0.30361 0.0
S494 S 0.21499 0.0725 0.40292 0.0
N495 N 0.21467 0.02012 0.40664 0.0
N496 N 0.17103 0.08307 0.37045 0.0
C497 C 0.15422 0.04306 0.36112 0.0
C498 C 0.1774 1.00891 0.38085 0.0
C499 C 0.3614 0.56464 0.84978 0.0
C500 C 0.37424 0.56901 0.88485 0.0
C501 C 0.382 0.53037 0.83064 0.0
C502 C 0.41267 0.49668 0.8458 0.0
H503 H 0.33637 0.58832 0.83627 0.0
H504 H 0.37529 0.53138 0.80352 0.0
S505 S 0.45548 0.48886 0.93689 0.0
N506 N 0.42347 0.53528 0.93328 0.0
N507 N 0.45027 0.46757 0.89887 0.0
C508 C 0.42181 0.49851 0.88123 0.0
C509 C 0.40553 0.53517 0.90029 0.0
C510 C 0.57488 0.57179 0.72144 0.0
C511 C 0.61996 0.56221 0.69892 0.0
C512 C 0.54981 0.54013 0.74195 0.0
C513 C 0.56949 0.49797 0.74098 0.0
H514 H 0.55735 0.60362 0.72225 0.0
H515 H 0.51419 0.54856 0.75834 0.0
S516 S 0.68842 0.45697 0.68774 0.0
N517 N 0.68479 0.50799 0.67787 0.0
N518 N 0.63793 0.44856 0.71655 0.0
C519 C 0.61592 0.4883 0.7195 0.0
C520 C 0.64099 0.5204 0.69837 0.0
C521 C 0.86064 1.00516 0.19895 0.0
C522 C 0.8901 0.96914 0.18731 0.0
C523 C 0.88645 0.03253 0.22332 0.0
C524 C 0.94288 0.02503 0.23678 0.0
H525 H 0.81821 1.01308 0.18819 0.0
H526 H 0.86308 0.06078 0.23042 0.0
S527 S 0.03614 0.93301 0.21632 0.0
N528 N 0.97709 0.92613 0.19205 0.0
N529 N 0.0255 0.97701 0.23814 0.0
C530 C 0.97177 0.98815 0.22614 0.0
C531 C 0.94543 0.96036 0.20134 0.0
C532 C 0.8517 1.01443 0.66808 0.0
C533 C 0.83784 0.05525 0.6798 0.0
C534 C 0.88344 0.98606 0.68835 0.0
C535 C 0.90242 0.99704 0.72138 0.0
H536 H 0.83784 1.00421 0.64295 0.0
H537 H 0.89407 0.95545 0.67769 0.0
S538 S 0.87978 0.10071 0.76373 0.0
N539 N 0.84685 0.10574 0.72638 0.0
N540 N 0.90642 0.05213 0.76459 0.0
C541 C 0.88854 0.03761 0.73363 0.0
C542 C 0.85629 0.06673 0.71285 0.0
C543 C 0.64961 0.51475 0.17638 0.0
C544 C 0.66035 0.47306 0.18748 0.0
C545 C 0.62611 0.5451 0.19811 0.0
C546 C 0.61216 0.53503 0.23186 0.0
H547 H 0.65983 0.52411 0.1507 0.0
H548 H 0.61848 0.57676 0.18822 0.0
S549 S 0.62927 0.42957 0.27284 0.0
N550 N 0.65415 0.42283 0.23418 0.0
N551 N 0.60914 0.47976 0.27495 0.0
C552 C 0.62281 0.49344 0.24336 0.0
C553 C 0.64703 0.46251 0.22119 0.0
C554 C 0.43599 0.46757 0.36644 0.0
C555 C 0.3804 0.47704 0.3789 0.0
C556 C 0.46571 0.4962 0.34516 0.0
C557 C 0.44147 0.53574 0.33625 0.0
H558 H 0.45703 0.43819 0.37373 0.0
H559 H 0.50852 0.48762 0.33618 0.0
S560 S 0.29717 0.57558 0.36328 0.0
N561 N 0.3019 0.52802 0.38086 0.0
N562 N 0.35814 0.58251 0.34193 0.0
C563 C 0.38536 0.54512 0.34828 0.0
C564 C 0.35485 0.51568 0.36946 0.0
C565 C 0.08019 0.07207 0.85858 0.0
C566 C 0.13663 0.06525 0.87208 0.0
C567 C 0.05514 0.04418 0.83434 0.0
C568 C 0.08526 1.00808 0.82312 0.0
H569 H 0.05487 0.0987 0.8673 0.0
H570 H 0.01144 0.05061 0.82473 0.0
S571 S 0.23193 0.97399 0.8537 0.0
N572 N 0.2208 0.0191 0.87387 0.0
N573 N 0.17331 0.96597 0.82935 0.0
C574 C 0.14166 1.00093 0.83671 0.0
C575 C 0.16738 0.02964 0.86097 0.0
C576 C 0.14447 0.12113 1.02375 0.0
C577 C 0.13535 0.09198 0.99696 0.0
C578 C 0.13073 0.11074 0.05724 0.0
C579 C 0.10471 0.07126 0.06569 0.0
H580 H 0.16405 0.15215 1.01915 0.0
H581 H 0.14289 0.1336 0.07671 0.0
S582 S 0.06221 0.98567 1.00462 0.0
N583 N 0.09529 0.02208 0.98135 0.0
N584 N 0.06226 1.00521 0.04339 0.0
C585 C 0.09059 0.0431 0.03881 0.0
C586 C 0.10725 0.05284 1.00478 0.0
C587 C 0.42198 0.44043 0.51007 0.0
C588 C 0.36203 0.43844 0.50083 0.0
C589 C 0.44034 0.44935 0.54352 0.0
C590 C 0.3995 0.45604 0.56918 0.0
H591 H 0.45513 0.43506 0.49129 0.0
H592 H 0.48685 0.45076 0.54941 0.0
S593 S 0.23806 0.45776 0.55848 0.0
N594 N 0.26214 0.44699 0.52026 0.0
N595 N 0.29695 0.46188 0.58317 0.0
C596 C 0.33966 0.45423 0.56049 0.0
C597 C 0.32086 0.44586 0.52636 0.0
C598 C 0.69601 0.39403 0.0456 0.0
C599 C 0.6599 0.39788 0.07407 0.0
C600 C 0.67268 0.38367 1.0134 0.0
C601 C 0.61213 0.37684 1.00815 0.0
H602 H 0.74296 0.39867 0.04821 0.0
H603 H 0.70263 0.3797 0.99268 0.0
S604 S 0.4977 0.38614 0.07344 0.0
N605 N 0.55986 0.39513 0.09435 0.0
N606 N 0.51596 0.37809 0.0337 0.0
C607 C 0.57523 0.38234 0.03605 0.0
C608 C 0.59904 0.39232 0.06893 0.0
C609 C 0.79429 0.07839 0.5447 0.0
C610 C 0.79666 0.11594 0.56413 0.0
C611 C 0.79922 0.0797 0.50929 0.0
C612 C 0.80795 0.11851 0.49218 0.0
H613 H 0.78633 0.04797 0.55685 0.0
H614 H 0.79512 0.05027 0.49508 0.0
S615 S 0.82048 0.22538 0.5315 0.0
N616 N 0.81002 0.19278 0.56378 0.0
N617 N 0.82084 0.19507 0.49728 0.0
C618 C 0.81252 0.15605 0.51139 0.0
C619 C 0.80643 0.15482 0.54736 0.0
C620 C 0.89162 0.9921 0.05187 0.0
C621 C 0.87391 0.95045 0.06073 0.0
C622 C 0.90655 1.00271 1.0184 0.0
C623 C 0.90284 0.97256 0.99181 0.0
H624 H 0.89306 1.01712 0.07073 0.0
H625 H 0.92083 0.03508 1.01347 0.0
S626 S 0.86256 0.85792 1.00193 0.0
N627 N 0.86133 0.87753 0.04058 0.0
N628 N 0.87911 0.89867 0.97747 0.0
C629 C 0.88562 0.93062 1.00052 0.0
C630 C 0.87373 0.91936 0.03486 0.0
C631 C 0.57683 0.59498 0.56927 0.0
C632 C 0.63254 0.61088 0.57906 0.0
C633 C 0.56349 0.58456 0.53542 0.0
C634 C 0.6054 0.58926 0.50983 0.0
H635 H 0.54321 0.5904 0.58803 0.0
H636 H 0.51988 0.57249 0.52932 0.0
S637 S 0.75854 0.62852 0.52254 0.0
N638 N 0.73003 0.63077 0.56066 0.0
N639 N 0.70571 0.61032 0.4971 0.0
C640 C 0.66124 0.60557 0.51928 0.0
C641 C 0.6746 0.61656 0.55382 0.0
C642 C 0.34473 0.67432 1.01755 0.0
C643 C 0.37575 0.65084 0.9935 0.0
C644 C 0.36651 0.67957 0.05091 0.0
C645 C 0.42038 0.66207 0.06105 0.0
H646 H 0.30395 0.6893 1.01034 0.0
H647 H 0.34211 0.69856 0.06854 0.0
S648 S 0.51869 0.59835 1.00813 0.0
N649 N 0.46322 0.61001 0.98258 0.0
N650 N 0.50368 0.62012 0.04499 0.0
C651 C 0.45121 0.63808 0.03755 0.0
C652 C 0.42901 0.63238 1.00385 0.0
C653 C 0.22203 0.93265 0.50682 0.0
C654 C 0.18745 0.90176 0.48977 0.0
C655 C 0.22634 0.9332 0.54236 0.0
C656 C 0.19572 0.90316 0.5621 0.0
H657 H 0.24743 0.95566 0.49256 0.0
H658 H 0.25421 0.9571 0.55448 0.0
S659 S 0.09672 0.81717 0.52955 0.0
N660 N 0.11971 0.84183 0.4952 0.0
N661 N 0.12856 0.84231 0.56181 0.0
C662 C 0.15966 0.87291 0.54529 0.0
C663 C 0.15537 0.87233 0.5092 0.0
C664 C 0.10962 0.29235 0.33814 0.0
C665 C 0.13841 0.2894 0.36979 0.0
C666 C 0.08735 0.2559 0.3215 0.0
C667 C 0.09232 0.21513 0.33605 0.0
H668 H 0.10232 0.32326 0.32679 0.0
H669 H 0.06385 0.26 0.29772 0.0
S670 S 0.16518 0.19047 0.41832 0.0
N671 N 0.17202 0.24271 0.41477 0.0
N672 N 0.12989 0.17415 0.3837 0.0
C673 C 0.12216 0.21177 0.36741 0.0
C674 C 0.14537 0.24889 0.38417 0.0
C675 C 0.3771 0.2894 0.89711 0.0
C676 C 0.37435 0.24772 0.88404 0.0
C677 C 0.39803 0.32363 0.8775 0.0
C678 C 0.41738 0.31727 0.84423 0.0
H679 H 0.36435 0.29534 0.92298 0.0
H680 H 0.39983 0.35516 0.88862 0.0
S681 S 0.42478 0.21322 0.79997 0.0
N682 N 0.39527 0.20156 0.83679 0.0
N683 N 0.43601 0.26527 0.80024 0.0
C684 C 0.41511 0.27556 0.83111 0.0
C685 C 0.39333 0.24093 0.85095 0.0
C686 C 0.58148 0.23239 0.74324 0.0
C687 C 0.59429 0.23398 0.70857 0.0
C688 C 0.56703 0.26937 0.76097 0.0
C689 C 0.56315 0.30889 0.74434 0.0
H690 H 0.58135 0.20219 0.7565 0.0
H691 H 0.55651 0.26663 0.78754 0.0
S692 S 0.59667 0.32995 0.65413 0.0
N693 N 0.6059 0.27819 0.65869 0.0
N694 N 0.57743 0.3477 0.69166 0.0
C695 C 0.57781 0.31098 0.70987 0.0
C696 C 0.59361 0.27347 0.69205 0.0
C697 C 0.91216 0.2869 0.2436 0.0
C698 C 0.88806 0.28417 0.21063 0.0
C699 C 0.92737 0.2501 0.26169 0.0
C700 C 0.92032 0.20954 0.24697 0.0
H701 H 0.92116 0.31776 0.25495 0.0
H702 H 0.94811 0.2536 0.28644 0.0
S703 S 0.85617 0.18542 0.16211 0.0
N704 N 0.85471 0.23789 0.16481 0.0
N705 N 0.88478 0.16868 0.19837 0.0
C706 C 0.89428 0.2064 0.21454 0.0
C707 C 0.87778 0.24377 0.19644 0.0
C708 C 0.81237 0.8338 0.69601 0.0
C709 C 0.80186 0.79077 0.70454 0.0
C710 C 0.86274 0.85578 0.7075 0.0
C711 C 0.90487 0.83585 0.72808 0.0
H712 H 0.78061 0.85107 0.68089 0.0
H713 H 0.86744 0.88918 0.70136 0.0
S714 S 0.90284 0.72266 0.75457 0.0
N715 N 0.84079 0.72829 0.733 0.0
N716 N 0.93611 0.76973 0.754 0.0
C717 C 0.89679 0.79242 0.73549 0.0
C718 C 0.8453 0.76983 0.72376 0.0
C719 C 0.62796 0.77812 0.20061 0.0
C720 C 0.68613 0.76976 0.1919 0.0
C721 C 0.59603 0.74964 0.22112 0.0
C722 C 0.62091 0.71151 0.23308 0.0
H723 H 0.60597 0.80543 0.18988 0.0
H724 H 0.55089 0.75679 0.22659 0.0
S725 S 0.77212 0.67541 0.21688 0.0
N726 N 0.76791 0.72186 0.19754 0.0
N727 N 0.70777 0.66752 0.23441 0.0
C728 C 0.67977 0.70374 0.2253 0.0
C729 C 0.71234 0.73306 0.20513 0.0
C730 C 0.35067 0.70343 0.36814 0.0
C731 C 0.3297 0.74192 0.3548 0.0
C732 C 0.40193 0.68539 0.35603 0.0
C733 C 0.43312 0.70477 0.32965 0.0
H734 H 0.32631 0.68653 0.38739 0.0
H735 H 0.4152 0.65485 0.36604 0.0
S736 S 0.39983 0.80782 0.2885 0.0
N737 N 0.34656 0.80057 0.31581 0.0
N738 N 0.44301 0.76639 0.29288 0.0
C739 C 0.4148 0.74458 0.31763 0.0
C740 C 0.36286 0.76316 0.33017 0.0
C741 C 0.19965 0.83511 0.85948 0.0
C742 C 0.22378 0.79902 0.8443 0.0
C743 C 0.15032 0.85492 0.8453 0.0
C744 C 0.12414 0.84002 0.81492 0.0
H745 H 0.21999 0.84872 0.88207 0.0
H746 H 0.13432 0.88331 0.85743 0.0
S747 S 0.16922 0.74533 0.76618 0.0
N748 N 0.21645 0.74789 0.79833 0.0
N749 N 0.12442 0.7856 0.7711 0.0
C750 C 0.14689 0.80318 0.80005 0.0
C751 C 0.19655 0.78257 0.81488 0.0
loop_
_geom_bond_atom_site_label_1
_geom_bond_atom_site_label_2
_geom_bond_distance
_geom_bond_site_symmetry_2
_ccdc_geom_bond_type
H0 C1 0.949 . S
C1 H0 0.949 . S
C1 C2 1.395 . S
C1 C3 1.391 . S
C2 C1 1.395 . S
C2 C5 1.390 . S
C3 C1 1.391 . S
C3 C7 1.387 . S
C3 C8 1.491 . S
H4 C5 0.950 . S
C5 C2 1.390 . S
C5 H4 0.950 . S
C5 C6 1.378 . S
C6 C5 1.378 . S
C6 C7 1.409 . S
C7 C3 1.387 . S
C7 C6 1.409 . S
C7 H9 0.951 . S
C8 C3 1.491 . S
C8 C10 1.382 . S
C8 C12 1.404 . S
H9 C7 0.951 . S
C10 C8 1.382 . S
C10 C11 1.390 . S
C10 H15 0.949 . S
C11 C10 1.390 . S
C11 C16 1.399 . S
C12 C8 1.404 . S
C12 H13 0.950 . S
C12 C14 1.375 . S
H13 C12 0.950 . S
C14 C12 1.375 . S
C14 C16 1.382 . S
C14 H18 0.950 . S
H15 C10 0.949 . S
C16 C11 1.399 . S
C16 C14 1.382 . S
C16 H17 0.952 . S
H17 C16 0.952 . S
H18 C14 0.950 . S
H19 C20 0.949 . S
C20 H19 0.949 . S
C20 C21 1.395 . S
C20 C22 1.391 . S
C21 C20 1.395 . S
C21 C24 1.390 . S
C22 C20 1.391 . S
C22 C26 1.387 . S
C22 C27 1.491 . S
H23 C24 0.950 . S
C24 C21 1.390 . S
C24 H23 0.950 . S
C24 C25 1.378 . S
C25 C24 1.378 . S
C25 C26 1.409 . S
C26 C22 1.387 . S
C26 C25 1.409 . S
C26 H28 0.951 . S
C27 C22 1.491 . S
C27 C29 1.382 . S
C27 C31 1.404 . S
H28 C26 0.951 . S
C29 C27 1.382 . S
C29 C30 1.390 . S
C29 H34 0.949 . S
C30 C29 1.390 . S
C30 C35 1.399 . S
C31 C27 1.404 . S
C31 H32 0.950 . S
C31 C33 1.375 . S
H32 C31 0.950 . S
C33 C31 1.375 . S
C33 C35 1.382 . S
C33 H37 0.950 . S
H34 C29 0.949 . S
C35 C30 1.399 . S
C35 C33 1.382 . S
C35 H36 0.952 . S
H36 C35 0.952 . S
H37 C33 0.950 . S
H38 C39 0.949 . S
C39 H38 0.949 . S
C39 C40 1.395 . S
C39 C41 1.391 . S
C40 C39 1.395 . S
C40 C43 1.390 . S
C41 C39 1.391 . S
C41 C45 1.387 . S
C41 C46 1.491 . S
H42 C43 0.950 . S
C43 C40 1.390 . S
C43 H42 0.950 . S
C43 C44 1.378 . S
C44 C43 1.378 . S
C44 C45 1.409 . S
C45 C41 1.387 . S
C45 C44 1.409 . S
C45 H47 0.951 . S
C46 C41 1.491 . S
C46 C48 1.382 . S
C46 C50 1.404 . S
H47 C45 0.951 . S
C48 C46 1.382 . S
C48 C49 1.390 . S
C48 H53 0.949 . S
C49 C48 1.390 . S
C49 C54 1.399 . S
C50 C46 1.404 . S
C50 H51 0.950 . S
C50 C52 1.375 . S
H51 C50 0.950 . S
C52 C50 1.375 . S
C52 C54 1.382 . S
C52 H56 0.950 . S
H53 C48 0.949 . S
C54 C49 1.399 . S
C54 C52 1.382 . S
C54 H55 0.952 . S
H55 C54 0.952 . S
H56 C52 0.950 . S
H57 C58 0.949 . S
C58 H57 0.949 . S
C58 C59 1.395 . S
C58 C60 1.391 . S
C59 C58 1.395 . S
C59 C62 1.390 . S
C60 C58 1.391 . S
C60 C64 1.387 . S
C60 C65 1.491 . S
H61 C62 0.950 . S
C62 C59 1.390 . S
C62 H61 0.950 . S
C62 C63 1.378 . S
C63 C62 1.378 . S
C63 C64 1.409 . S
C64 C60 1.387 . S
C64 C63 1.409 . S
C64 H66 0.951 . S
C65 C60 1.491 . S
C65 C67 1.382 . S
C65 C69 1.404 . S
H66 C64 0.951 . S
C67 C65 1.382 . S
C67 C68 1.390 . S
C67 H72 0.949 . S
C68 C67 1.390 . S
C68 C73 1.399 . S
C69 C65 1.404 . S
C69 H70 0.950 . S
C69 C71 1.375 . S
H70 C69 0.950 . S
C71 C69 1.375 . S
C71 C73 1.382 . S
C71 H75 0.950 . S
H72 C67 0.949 . S
C73 C68 1.399 . S
C73 C71 1.382 . S
C73 H74 0.952 . S
H74 C73 0.952 . S
H75 C71 0.950 . S
H76 C77 0.949 . S
C77 H76 0.949 . S
C77 C78 1.395 . S
C77 C79 1.391 . S
C78 C77 1.395 . S
C78 C81 1.390 . S
C79 C77 1.391 . S
C79 C83 1.387 . S
C79 C84 1.491 . S
H80 C81 0.950 . S
C81 C78 1.390 . S
C81 H80 0.950 . S
C81 C82 1.378 . S
C82 C81 1.378 . S
C82 C83 1.409 . S
C83 C79 1.387 . S
C83 C82 1.409 . S
C83 H85 0.951 . S
C84 C79 1.491 . S
C84 C86 1.382 . S
C84 C88 1.404 . S
H85 C83 0.951 . S
C86 C84 1.382 . S
C86 C87 1.390 . S
C86 H91 0.949 . S
C87 C86 1.390 . S
C87 C92 1.399 . S
C88 C84 1.404 . S
C88 H89 0.950 . S
C88 C90 1.375 . S
H89 C88 0.950 . S
C90 C88 1.375 . S
C90 C92 1.382 . S
C90 H94 0.950 . S
H91 C86 0.949 . S
C92 C87 1.399 . S
C92 C90 1.382 . S
C92 H93 0.952 . S
H93 C92 0.952 . S
H94 C90 0.950 . S
H95 C96 0.949 . S
C96 H95 0.949 . S
C96 C97 1.395 . S
C96 C98 1.391 . S
C97 C96 1.395 . S
C97 C100 1.390 . S
C98 C96 1.391 . S
C98 C102 1.387 . S
C98 C103 1.491 . S
H99 C100 0.950 . S
C100 C97 1.390 . S
C100 H99 0.950 . S
C100 C101 1.378 . S
C101 C100 1.378 . S
C101 C102 1.409 . S
C102 C98 1.387 . S
C102 C101 1.409 . S
C102 H104 0.951 . S
C103 C98 1.491 . S
C103 C105 1.382 . S
C103 C107 1.404 . S
H104 C102 0.951 . S
C105 C103 1.382 . S
C105 C106 1.390 . S
C105 H110 0.949 . S
C106 C105 1.390 . S
C106 C111 1.399 . S
C107 C103 1.404 . S
C107 H108 0.950 . S
C107 C109 1.375 . S
H108 C107 0.950 . S
C109 C107 1.375 . S
C109 C111 1.382 . S
C109 H113 0.950 . S
H110 C105 0.949 . S
C111 C106 1.399 . S
C111 C109 1.382 . S
C111 H112 0.952 . S
H112 C111 0.952 . S
H113 C109 0.950 . S
H114 C115 0.949 . S
C115 H114 0.949 . S
C115 C116 1.395 . S
C115 C117 1.391 . S
C116 C115 1.395 . S
C116 C119 1.390 . S
C117 C115 1.391 . S
C117 C121 1.387 . S
C117 C122 1.491 . S
H118 C119 0.950 . S
C119 C116 1.390 . S
C119 H118 0.950 . S
C119 C120 1.378 . S
C120 C119 1.378 . S
C120 C121 1.409 . S
C121 C117 1.387 . S
C121 C120 1.409 . S
C121 H123 0.951 . S
C122 C117 1.491 . S
C122 C124 1.382 . S
C122 C126 1.404 . S
H123 C121 0.951 . S
C124 C122 1.382 . S
C124 C125 1.390 . S
C124 H129 0.949 . S
C125 C124 1.390 . S
C125 C130 1.399 . S
C126 C122 1.404 . S
C126 H127 0.950 . S
C126 C128 1.375 . S
H127 C126 0.950 . S
C128 C126 1.375 . S
C128 C130 1.382 . S
C128 H132 0.950 . S
H129 C124 0.949 . S
C130 C125 1.399 . S
C130 C128 1.382 . S
C130 H131 0.952 . S
H131 C130 0.952 . S
H132 C128 0.950 . S
H133 C134 0.949 . S
C134 H133 0.949 . S
C134 C135 1.395 . S
C134 C136 1.391 . S
C135 C134 1.395 . S
C135 C138 1.390 . S
C136 C134 1.391 . S
C136 C140 1.387 . S
C136 C141 1.491 . S
H137 C138 0.950 . S
C138 C135 1.390 . S
C138 H137 0.950 . S
C138 C139 1.378 . S
C139 C138 1.378 . S
C139 C140 1.409 . S
C140 C136 1.387 . S
C140 C139 1.409 . S
C140 H142 0.951 . S
C141 C136 1.491 . S
C141 C143 1.382 . S
C141 C145 1.404 . S
H142 C140 0.951 . S
C143 C141 1.382 . S
C143 C144 1.390 . S
C143 H148 0.949 . S
C144 C143 1.390 . S
C144 C149 1.399 . S
C145 C141 1.404 . S
C145 H146 0.950 . S
C145 C147 1.375 . S
H146 C145 0.950 . S
C147 C145 1.375 . S
C147 C149 1.382 . S
C147 H151 0.950 . S
H148 C143 0.949 . S
C149 C144 1.399 . S
C149 C147 1.382 . S
C149 H150 0.952 . S
H150 C149 0.952 . S
H151 C147 0.950 . S
Tb152 N181 2.617 . S
Tb152 N187 2.572 . S
Tb152 O196 2.465 . S
Tb152 O197 2.387 . S
Tb152 O199 2.428 . S
Tb152 O200 2.308 1_455 S
Tb152 O204 2.349 1_455 S
Tb152 O207 2.393 . S
Tb152 C216 2.802 . S
C153 N154 1.379 . S
C153 C156 1.416 . S
C153 C160 1.424 . S
N154 C153 1.379 . S
N154 C157 1.334 . S
N154 Tb163 2.617 . S
C155 C157 1.390 . S
C155 C158 1.339 . S
C155 H175 0.930 . S
C156 C153 1.416 . S
C156 C158 1.416 . S
C156 C162 1.448 . S
C157 N154 1.334 . S
C157 C155 1.390 . S
C157 H168 0.930 . S
C158 C155 1.339 . S
C158 C156 1.416 . S
C158 H179 0.930 . S
C159 C160 1.413 1_565 S
C159 C161 1.427 . S
C159 C165 1.416 . S
C160 C153 1.424 . S
C160 C159 1.413 1_545 S
C160 N164 1.361 . S
C161 C159 1.427 . S
C161 C162 1.328 1_565 S
C161 H176 0.929 . S
C162 C156 1.448 . S
C162 C161 1.328 1_545 S
C162 H177 0.930 . S
Tb163 N154 2.617 . S
Tb163 N164 2.572 . S
Tb163 O198 2.349 1_655 S
Tb163 O201 2.393 . S
Tb163 O202 2.465 . S
Tb163 O203 2.387 . S
Tb163 O205 2.428 . S
Tb163 O206 2.308 1_655 S
Tb163 C227 2.802 . S
N164 C160 1.361 . S
N164 Tb163 2.572 . S
N164 C166 1.340 1_545 S
C165 C159 1.416 . S
C165 C167 1.332 . S
C165 H173 0.931 . S
C166 N164 1.340 1_565 S
C166 C167 1.407 . S
C166 H172 0.930 . S
C167 C165 1.332 . S
C167 C166 1.407 . S
C167 H169 0.929 . S
H168 C157 0.930 . S
H169 C167 0.929 . S
H170 C185 0.930 . S
H171 C192 0.929 . S
H172 C166 0.930 . S
H173 C165 0.931 . S
H174 C188 0.930 . S
H175 C155 0.930 . S
H176 C161 0.929 . S
H177 C162 0.930 . S
H178 C183 0.930 . S
H179 C158 0.930 . S
H180 C191 0.931 . S
N181 Tb152 2.617 . S
N181 C182 1.379 . S
N181 C185 1.334 . S
C182 N181 1.379 . S
C182 C184 1.416 . S
C182 C190 1.424 . S
C183 H178 0.930 . S
C183 C185 1.390 . S
C183 C186 1.339 . S
C184 C182 1.416 . S
C184 C186 1.416 . S
C184 C217 1.448 . S
C185 H170 0.930 . S
C185 N181 1.334 . S
C185 C183 1.390 . S
C186 C183 1.339 . S
C186 C184 1.416 . S
C186 H193 0.930 . S
N187 Tb152 2.572 . S
N187 C188 1.340 . S
N187 C190 1.361 . S
C188 H174 0.930 . S
C188 N187 1.340 . S
C188 C192 1.407 . S
C189 C190 1.413 . S
C189 C191 1.416 . S
C189 C218 1.427 . S
C190 C182 1.424 . S
C190 N187 1.361 . S
C190 C189 1.413 . S
C191 H180 0.931 . S
C191 C189 1.416 . S
C191 C192 1.332 . S
C192 H171 0.929 . S
C192 C188 1.407 . S
C192 C191 1.332 . S
H193 C186 0.930 . S
H194 C217 0.930 . S
H195 C218 0.929 . S
O196 Tb152 2.465 . S
O196 C216 1.264 . S
O197 Tb152 2.387 . S
O197 C208 1.264 . S
O198 Tb163 2.349 1_455 S
O198 C208 1.243 . S
O199 Tb152 2.428 . S
O199 C216 1.256 . S
O200 Tb152 2.308 1_655 S
O200 C215 1.266 . S
O201 Tb163 2.393 . S
O201 C215 1.248 . S
O202 Tb163 2.465 . S
O202 C227 1.264 . S
O203 Tb163 2.387 . S
O203 C219 1.264 . S
O204 Tb152 2.349 1_655 S
O204 C219 1.243 . S
O205 Tb163 2.428 . S
O205 C227 1.256 . S
O206 Tb163 2.308 1_455 S
O206 C226 1.266 . S
O207 Tb152 2.393 . S
O207 C226 1.248 . S
C208 O197 1.264 . S
C208 O198 1.243 . S
C209 C212 1.399 . S
C209 C214 1.383 . S
C209 C216 1.496 . S
C210 C211 1.399 . S
C210 C214 1.389 . S
C211 C210 1.399 . S
C211 C213 1.380 . S
C211 H228 0.929 . S
C212 C209 1.399 . S
C212 C213 1.392 . S
C212 H229 0.929 . S
C213 C211 1.380 . S
C213 C212 1.392 . S
C213 H230 0.929 1_545 S
C214 C209 1.383 . S
C214 C210 1.389 . S
C214 H231 0.931 . S
C215 O200 1.266 . S
C215 O201 1.248 . S
C216 Tb152 2.802 . S
C216 O196 1.264 . S
C216 O199 1.256 . S
C216 C209 1.496 . S
C217 C184 1.448 . S
C217 H194 0.930 . S
C217 C218 1.328 . S
C218 C189 1.427 . S
C218 H195 0.929 . S
C218 C217 1.328 . S
C219 O203 1.264 . S
C219 O204 1.243 . S
C220 C223 1.399 . S
C220 C224 1.383 . S
C220 C227 1.496 . S
C221 C222 1.399 . S
C221 C224 1.389 . S
C222 C221 1.399 . S
C222 C225 1.380 . S
C222 H232 0.929 . S
C223 C220 1.399 . S
C223 C225 1.392 . S
C223 H233 0.929 . S
C224 C220 1.383 . S
C224 C221 1.389 . S
C224 H234 0.931 . S
C225 C222 1.380 . S
C225 C223 1.392 . S
C225 H235 0.929 . S
C226 O206 1.266 . S
C226 O207 1.248 . S
C227 Tb163 2.802 . S
C227 O202 1.264 . S
C227 O205 1.256 . S
C227 C220 1.496 . S
H228 C211 0.929 . S
H229 C212 0.929 . S
H230 C213 0.929 1_565 S
H231 C214 0.931 . S
H232 C222 0.929 . S
H233 C223 0.929 . S
H234 C224 0.931 . S
H235 C225 0.929 . S
Tb236 N265 2.617 . S
Tb236 N271 2.572 . S
Tb236 O280 2.465 . S
Tb236 O281 2.387 . S
Tb236 O283 2.428 . S
Tb236 O284 2.308 . S
Tb236 O288 2.349 . S
Tb236 O291 2.393 . S
Tb236 C300 2.802 . S
C237 N238 1.379 . S
C237 C240 1.416 . S
C237 C244 1.424 . S
N238 C237 1.379 . S
N238 C241 1.334 . S
N238 Tb247 2.617 . S
C239 C241 1.390 . S
C239 C242 1.339 . S
C239 H259 0.930 . S
C240 C237 1.416 . S
C240 C242 1.416 . S
C240 C246 1.448 . S
C241 N238 1.334 . S
C241 C239 1.390 . S
C241 H252 0.930 . S
C242 C239 1.339 . S
C242 C240 1.416 . S
C242 H263 0.930 . S
C243 C244 1.413 . S
C243 C245 1.427 . S
C243 C249 1.416 . S
C244 C237 1.424 . S
C244 C243 1.413 . S
C244 N248 1.361 . S
C245 C243 1.427 . S
C245 C246 1.328 . S
C245 H260 0.929 . S
C246 C240 1.448 . S
C246 C245 1.328 . S
C246 H261 0.930 . S
Tb247 N238 2.617 . S
Tb247 N248 2.572 . S
Tb247 O282 2.349 . S
Tb247 O285 2.393 . S
Tb247 O286 2.465 . S
Tb247 O287 2.387 . S
Tb247 O289 2.428 . S
Tb247 O290 2.308 . S
Tb247 C311 2.802 . S
N248 C244 1.361 . S
N248 Tb247 2.572 . S
N248 C250 1.340 . S
C249 C243 1.416 . S
C249 C251 1.332 . S
C249 H257 0.931 . S
C250 N248 1.340 . S
C250 C251 1.407 . S
C250 H256 0.930 . S
C251 C249 1.332 . S
C251 C250 1.407 . S
C251 H253 0.929 . S
H252 C241 0.930 . S
H253 C251 0.929 . S
H254 C269 0.930 . S
H255 C276 0.929 . S
H256 C250 0.930 . S
H257 C249 0.931 . S
H258 C272 0.930 . S
H259 C239 0.930 . S
H260 C245 0.929 . S
H261 C246 0.930 . S
H262 C267 0.930 . S
H263 C242 0.930 . S
H264 C275 0.931 . S
N265 Tb236 2.617 . S
N265 C266 1.379 . S
N265 C269 1.334 . S
C266 N265 1.379 . S
C266 C268 1.416 . S
C266 C274 1.424 . S
C267 H262 0.930 . S
C267 C269 1.390 . S
C267 C270 1.339 . S
C268 C266 1.416 . S
C268 C270 1.416 . S
C268 C301 1.448 . S
C269 H254 0.930 . S
C269 N265 1.334 . S
C269 C267 1.390 . S
C270 C267 1.339 . S
C270 C268 1.416 . S
C270 H277 0.930 . S
N271 Tb236 2.572 . S
N271 C272 1.340 . S
N271 C274 1.361 . S
C272 H258 0.930 . S
C272 N271 1.340 . S
C272 C276 1.407 . S
C273 C274 1.413 . S
C273 C275 1.416 . S
C273 C302 1.427 . S
C274 C266 1.424 . S
C274 N271 1.361 . S
C274 C273 1.413 . S
C275 H264 0.931 . S
C275 C273 1.416 . S
C275 C276 1.332 . S
C276 H255 0.929 . S
C276 C272 1.407 . S
C276 C275 1.332 . S
H277 C270 0.930 . S
H278 C301 0.930 . S
H279 C302 0.929 . S
O280 Tb236 2.465 . S
O280 C300 1.264 . S
O281 Tb236 2.387 . S
O281 C292 1.264 . S
O282 Tb247 2.349 . S
O282 C292 1.243 . S
O283 Tb236 2.428 . S
O283 C300 1.256 . S
O284 Tb236 2.308 . S
O284 C299 1.266 . S
O285 Tb247 2.393 . S
O285 C299 1.248 . S
O286 Tb247 2.465 . S
O286 C311 1.264 . S
O287 Tb247 2.387 . S
O287 C303 1.264 . S
O288 Tb236 2.349 . S
O288 C303 1.243 . S
O289 Tb247 2.428 . S
O289 C311 1.256 . S
O290 Tb247 2.308 . S
O290 C310 1.266 . S
O291 Tb236 2.393 . S
O291 C310 1.248 . S
C292 O281 1.264 . S
C292 O282 1.243 . S
C293 C296 1.399 . S
C293 C298 1.383 . S
C293 C300 1.496 . S
C294 C295 1.399 . S
C294 C298 1.389 . S
C295 C294 1.399 . S
C295 C297 1.380 . S
C295 H312 0.929 . S
C296 C293 1.399 . S
C296 C297 1.392 . S
C296 H313 0.929 . S
C297 C295 1.380 . S
C297 C296 1.392 . S
C297 H314 0.929 . S
C298 C293 1.383 . S
C298 C294 1.389 . S
C298 H315 0.931 . S
C299 O284 1.266 . S
C299 O285 1.248 . S
C300 Tb236 2.802 . S
C300 O280 1.264 . S
C300 O283 1.256 . S
C300 C293 1.496 . S
C301 C268 1.448 . S
C301 H278 0.930 . S
C301 C302 1.328 . S
C302 C273 1.427 . S
C302 H279 0.929 . S
C302 C301 1.328 . S
C303 O287 1.264 . S
C303 O288 1.243 . S
C304 C307 1.399 . S
C304 C308 1.383 . S
C304 C311 1.496 . S
C305 C306 1.399 . S
C305 C308 1.389 . S
C306 C305 1.399 . S
C306 C309 1.380 . S
C306 H316 0.929 . S
C307 C304 1.399 . S
C307 C309 1.392 . S
C307 H317 0.929 . S
C308 C304 1.383 . S
C308 C305 1.389 . S
C308 H318 0.931 . S
C309 C306 1.380 . S
C309 C307 1.392 . S
C309 H319 0.929 . S
C310 O290 1.266 . S
C310 O291 1.248 . S
C311 Tb247 2.802 . S
C311 O286 1.264 . S
C311 O289 1.256 . S
C311 C304 1.496 . S
H312 C295 0.929 . S
H313 C296 0.929 . S
H314 C297 0.929 . S
H315 C298 0.931 . S
H316 C306 0.929 . S
H317 C307 0.929 . S
H318 C308 0.931 . S
H319 C309 0.929 . S
Tb320 N349 2.617 . S
Tb320 N355 2.572 . S
Tb320 O364 2.465 . S
Tb320 O365 2.387 . S
Tb320 O367 2.428 . S
Tb320 O368 2.295 1_455 S
Tb320 O372 2.347 1_455 S
Tb320 O375 2.393 . S
Tb320 C384 2.802 . S
C321 N322 1.379 . S
C321 C324 1.416 . S
C321 C328 1.424 . S
N322 C321 1.379 . S
N322 C325 1.334 . S
N322 Tb331 2.617 . S
C323 C325 1.390 . S
C323 C326 1.339 . S
C323 H343 0.930 . S
C324 C321 1.416 . S
C324 C326 1.416 . S
C324 C330 1.448 . S
C325 N322 1.334 . S
C325 C323 1.390 . S
C325 H336 0.930 . S
C326 C323 1.339 . S
C326 C324 1.416 . S
C326 H347 0.930 . S
C327 C328 1.413 . S
C327 C329 1.427 . S
C327 C333 1.416 . S
C328 C321 1.424 . S
C328 C327 1.413 . S
C328 N332 1.361 . S
C329 C327 1.427 . S
C329 C330 1.328 . S
C329 H344 0.929 . S
C330 C324 1.448 . S
C330 C329 1.328 . S
C330 H345 0.930 . S
Tb331 N322 2.617 . S
Tb331 N332 2.572 . S
Tb331 O366 2.349 1_655 S
Tb331 O369 2.393 . S
Tb331 O370 2.465 . S
Tb331 O371 2.387 . S
Tb331 O373 2.428 . S
Tb331 O374 2.308 1_655 S
Tb331 C395 2.802 . S
N332 C328 1.361 . S
N332 Tb331 2.572 . S
N332 C334 1.340 . S
C333 C327 1.416 . S
C333 C335 1.332 . S
C333 H341 0.931 . S
C334 N332 1.340 . S
C334 C335 1.407 . S
C334 H340 0.930 . S
C335 C333 1.332 . S
C335 C334 1.407 . S
C335 H337 0.929 . S
H336 C325 0.930 . S
H337 C335 0.929 . S
H338 C353 0.930 . S
H339 C360 0.929 . S
H340 C334 0.930 . S
H341 C333 0.931 . S
H342 C356 0.930 . S
H343 C323 0.930 . S
H344 C329 0.929 . S
H345 C330 0.930 . S
H346 C351 0.930 . S
H347 C326 0.930 . S
H348 C359 0.931 . S
N349 Tb320 2.617 . S
N349 C350 1.379 . S
N349 C353 1.334 . S
C350 N349 1.379 . S
C350 C352 1.416 . S
C350 C358 1.424 . S
C351 H346 0.930 . S
C351 C353 1.390 . S
C351 C354 1.339 . S
C352 C350 1.416 . S
C352 C354 1.416 . S
C352 C385 1.448 . S
C353 H338 0.930 . S
C353 N349 1.334 . S
C353 C351 1.390 . S
C354 C351 1.339 . S
C354 C352 1.416 . S
C354 H361 0.930 . S
N355 Tb320 2.572 . S
N355 C356 1.340 1_565 S
N355 C358 1.361 . S
C356 H342 0.930 . S
C356 N355 1.340 1_545 S
C356 C360 1.407 . S
C357 C358 1.413 1_545 S
C357 C359 1.416 . S
C357 C386 1.427 . S
C358 C350 1.424 . S
C358 N355 1.361 . S
C358 C357 1.413 1_565 S
C359 H348 0.931 . S
C359 C357 1.416 . S
C359 C360 1.332 . S
C360 H339 0.929 . S
C360 C356 1.407 . S
C360 C359 1.332 . S
H361 C354 0.930 . S
H362 C385 0.930 . S
H363 C386 0.929 . S
O364 Tb320 2.465 . S
O364 C384 1.264 . S
O365 Tb320 2.387 . S
O365 C376 1.264 . S
O366 Tb331 2.349 1_455 S
O366 C376 1.243 . S
O367 Tb320 2.428 . S
O367 C384 1.256 . S
O368 Tb320 2.295 1_655 S
O368 C383 1.282 . S
O369 Tb331 2.393 . S
O369 C383 1.248 . S
O370 Tb331 2.465 . S
O370 C395 1.264 . S
O371 Tb331 2.387 . S
O371 C387 1.264 . S
O372 Tb320 2.347 1_655 S
O372 C387 1.245 . S
O373 Tb331 2.428 . S
O373 C395 1.256 . S
O374 Tb331 2.308 1_455 S
O374 C394 1.266 . S
O375 Tb320 2.393 . S
O375 C394 1.248 . S
C376 O365 1.264 . S
C376 O366 1.243 . S
C377 C380 1.399 . S
C377 C382 1.383 . S
C377 C384 1.496 . S
C378 C379 1.399 . S
C378 C382 1.389 . S
C379 C378 1.399 . S
C379 C381 1.380 . S
C379 H396 0.929 . S
C380 C377 1.399 . S
C380 C381 1.392 . S
C380 H397 0.929 . S
C381 C379 1.380 . S
C381 C380 1.392 . S
C381 H398 0.929 . S
C382 C377 1.383 . S
C382 C378 1.389 . S
C382 H399 0.931 . S
C383 O368 1.282 . S
C383 O369 1.248 . S
C384 Tb320 2.802 . S
C384 O364 1.264 . S
C384 O367 1.256 . S
C384 C377 1.496 . S
C385 C352 1.448 . S
C385 H362 0.930 . S
C385 C386 1.328 1_565 S
C386 C357 1.427 . S
C386 H363 0.929 . S
C386 C385 1.328 1_545 S
C387 O371 1.264 . S
C387 O372 1.245 . S
C388 C391 1.399 . S
C388 C392 1.383 . S
C388 C395 1.496 . S
C389 C390 1.399 . S
C389 C392 1.389 . S
C390 C389 1.399 . S
C390 C393 1.380 . S
C390 H400 0.929 . S
C391 C388 1.399 . S
C391 C393 1.392 . S
C391 H401 0.929 . S
C392 C388 1.383 . S
C392 C389 1.389 . S
C392 H402 0.931 . S
C393 C390 1.380 . S
C393 C391 1.392 . S
C393 H403 0.929 1_565 S
C394 O374 1.266 . S
C394 O375 1.248 . S
C395 Tb331 2.802 . S
C395 O370 1.264 . S
C395 O373 1.256 . S
C395 C388 1.496 . S
H396 C379 0.929 . S
H397 C380 0.929 . S
H398 C381 0.929 . S
H399 C382 0.931 . S
H400 C390 0.929 . S
H401 C391 0.929 . S
H402 C392 0.931 . S
H403 C393 0.929 1_545 S
Tb404 N433 2.617 . S
Tb404 N439 2.572 . S
Tb404 O448 2.465 . S
Tb404 O449 2.387 . S
Tb404 O451 2.428 . S
Tb404 O452 2.308 . S
Tb404 O456 2.349 . S
Tb404 O459 2.393 . S
Tb404 C468 2.802 . S
C405 N406 1.379 . S
C405 C408 1.416 . S
C405 C412 1.424 . S
N406 C405 1.379 . S
N406 C409 1.334 . S
N406 Tb415 2.617 . S
C407 C409 1.390 . S
C407 C410 1.339 . S
C407 H427 0.930 . S
C408 C405 1.416 . S
C408 C410 1.416 . S
C408 C414 1.448 . S
C409 N406 1.334 . S
C409 C407 1.390 . S
C409 H420 0.930 . S
C410 C407 1.339 . S
C410 C408 1.416 . S
C410 H431 0.930 . S
C411 C412 1.413 . S
C411 C413 1.427 . S
C411 C417 1.416 . S
C412 C405 1.424 . S
C412 C411 1.413 . S
C412 N416 1.361 . S
C413 C411 1.427 . S
C413 C414 1.328 . S
C413 H428 0.929 . S
C414 C408 1.448 . S
C414 C413 1.328 . S
C414 H429 0.930 . S
Tb415 N406 2.617 . S
Tb415 N416 2.572 . S
Tb415 O450 2.349 . S
Tb415 O453 2.393 . S
Tb415 O454 2.465 . S
Tb415 O455 2.387 . S
Tb415 O457 2.428 . S
Tb415 O458 2.308 . S
Tb415 C479 2.802 . S
N416 C412 1.361 . S
N416 Tb415 2.572 . S
N416 C418 1.340 . S
C417 C411 1.416 . S
C417 C419 1.332 . S
C417 H425 0.931 . S
C418 N416 1.340 . S
C418 C419 1.407 . S
C418 H424 0.930 . S
C419 C417 1.332 . S
C419 C418 1.407 . S
C419 H421 0.929 . S
H420 C409 0.930 . S
H421 C419 0.929 . S
H422 C437 0.930 . S
H423 C444 0.929 . S
H424 C418 0.930 . S
H425 C417 0.931 . S
H426 C440 0.930 . S
H427 C407 0.930 . S
H428 C413 0.929 . S
H429 C414 0.930 . S
H430 C435 0.930 . S
H431 C410 0.930 . S
H432 C443 0.931 . S
N433 Tb404 2.617 . S
N433 C434 1.379 . S
N433 C437 1.334 . S
C434 N433 1.379 . S
C434 C436 1.416 . S
C434 C442 1.424 . S
C435 H430 0.930 . S
C435 C437 1.390 . S
C435 C438 1.339 . S
C436 C434 1.416 . S
C436 C438 1.416 . S
C436 C469 1.448 . S
C437 H422 0.930 . S
C437 N433 1.334 . S
C437 C435 1.390 . S
C438 C435 1.339 . S
C438 C436 1.416 . S
C438 H445 0.930 . S
N439 Tb404 2.572 . S
N439 C440 1.340 . S
N439 C442 1.361 . S
C440 H426 0.930 . S
C440 N439 1.340 . S
C440 C444 1.407 . S
C441 C442 1.413 . S
C441 C443 1.416 . S
C441 C470 1.427 . S
C442 C434 1.424 . S
C442 N439 1.361 . S
C442 C441 1.413 . S
C443 H432 0.931 . S
C443 C441 1.416 . S
C443 C444 1.332 . S
C444 H423 0.929 . S
C444 C440 1.407 . S
C444 C443 1.332 . S
H445 C438 0.930 . S
H446 C469 0.930 . S
H447 C470 0.929 . S
O448 Tb404 2.465 . S
O448 C468 1.264 . S
O449 Tb404 2.387 . S
O449 C460 1.264 . S
O450 Tb415 2.349 . S
O450 C460 1.243 . S
O451 Tb404 2.428 . S
O451 C468 1.256 . S
O452 Tb404 2.308 . S
O452 C467 1.266 . S
O453 Tb415 2.393 . S
O453 C467 1.248 . S
O454 Tb415 2.465 . S
O454 C479 1.264 . S
O455 Tb415 2.387 . S
O455 C471 1.264 . S
O456 Tb404 2.349 . S
O456 C471 1.243 . S
O457 Tb415 2.428 . S
O457 C479 1.256 . S
O458 Tb415 2.308 . S
O458 C478 1.266 . S
O459 Tb404 2.393 . S
O459 C478 1.248 . S
C460 O449 1.264 . S
C460 O450 1.243 . S
C461 C464 1.399 . S
C461 C466 1.383 . S
C461 C468 1.496 . S
C462 C463 1.399 . S
C462 C466 1.389 . S
C463 C462 1.399 . S
C463 C465 1.380 . S
C463 H480 0.929 . S
C464 C461 1.399 . S
C464 C465 1.392 . S
C464 H481 0.929 . S
C465 C463 1.380 . S
C465 C464 1.392 . S
C465 H482 0.929 . S
C466 C461 1.383 . S
C466 C462 1.389 . S
C466 H483 0.931 . S
C467 O452 1.266 . S
C467 O453 1.248 . S
C468 Tb404 2.802 . S
C468 O448 1.264 . S
C468 O451 1.256 . S
C468 C461 1.496 . S
C469 C436 1.448 . S
C469 H446 0.930 . S
C469 C470 1.328 . S
C470 C441 1.427 . S
C470 H447 0.929 . S
C470 C469 1.328 . S
C471 O455 1.264 . S
C471 O456 1.243 . S
C472 C475 1.399 . S
C472 C476 1.383 . S
C472 C479 1.496 . S
C473 C474 1.399 . S
C473 C476 1.389 . S
C474 C473 1.399 . S
C474 C477 1.380 . S
C474 H484 0.929 . S
C475 C472 1.399 . S
C475 C477 1.392 . S
C475 H485 0.929 . S
C476 C472 1.383 . S
C476 C473 1.389 . S
C476 H486 0.931 . S
C477 C474 1.380 . S
C477 C475 1.392 . S
C477 H487 0.929 . S
C478 O458 1.266 . S
C478 O459 1.248 . S
C479 Tb415 2.802 . S
C479 O454 1.264 . S
C479 O457 1.256 . S
C479 C472 1.496 . S
H480 C463 0.929 . S
H481 C464 0.929 . S
H482 C465 0.929 . S
H483 C466 0.931 . S
H484 C474 0.929 . S
H485 C475 0.929 . S
H486 C476 0.931 . S
H487 C477 0.929 . S
C488 C489 1.369 . S
C488 C490 1.419 . S
C488 H492 0.930 . S
C489 C488 1.369 . S
C489 C498 1.429 . S
C490 C488 1.419 . S
C490 C491 1.363 . S
C490 H493 0.929 . S
C491 C490 1.363 . S
C491 C497 1.428 . S
H492 C488 0.930 . S
H493 C490 0.929 . S
S494 N495 1.613 1_545 S
S494 N496 1.610 . S
N495 S494 1.613 1_565 S
N495 C498 1.350 . S
N496 S494 1.610 . S
N496 C497 1.351 1_545 S
C497 C491 1.428 . S
C497 N496 1.351 1_565 S
C497 C498 1.434 . S
C498 C489 1.429 . S
C498 N495 1.350 . S
C498 C497 1.434 . S
C499 C500 1.369 . S
C499 C501 1.419 . S
C499 H503 0.930 . S
C500 C499 1.369 . S
C500 C509 1.429 . S
C501 C499 1.419 . S
C501 C502 1.363 . S
C501 H504 0.929 . S
C502 C501 1.363 . S
C502 C508 1.428 . S
H503 C499 0.930 . S
H504 C501 0.929 . S
S505 N506 1.613 . S
S505 N507 1.610 . S
N506 S505 1.613 . S
N506 C509 1.350 . S
N507 S505 1.610 . S
N507 C508 1.351 . S
C508 C502 1.428 . S
C508 N507 1.351 . S
C508 C509 1.434 . S
C509 C500 1.429 . S
C509 N506 1.350 . S
C509 C508 1.434 . S
C510 C511 1.369 . S
C510 C512 1.419 . S
C510 H514 0.930 . S
C511 C510 1.369 . S
C511 C520 1.429 . S
C512 C510 1.419 . S
C512 C513 1.363 . S
C512 H515 0.929 . S
C513 C512 1.363 . S
C513 C519 1.428 . S
H514 C510 0.930 . S
H515 C512 0.929 . S
S516 N517 1.613 . S
S516 N518 1.610 . S
N517 S516 1.613 . S
N517 C520 1.350 . S
N518 S516 1.610 . S
N518 C519 1.351 . S
C519 C513 1.428 . S
C519 N518 1.351 . S
C519 C520 1.434 . S
C520 C511 1.429 . S
C520 N517 1.350 . S
C520 C519 1.434 . S
C521 C522 1.369 . S
C521 C523 1.419 . S
C521 H525 0.930 . S
C522 C521 1.369 . S
C522 C531 1.429 . S
C523 C521 1.419 . S
C523 C524 1.363 . S
C523 H526 0.929 . S
C524 C523 1.363 . S
C524 C530 1.428 . S
H525 C521 0.930 . S
H526 C523 0.929 . S
S527 N528 1.613 . S
S527 N529 1.610 . S
N528 S527 1.613 . S
N528 C531 1.350 . S
N529 S527 1.610 . S
N529 C530 1.351 . S
C530 C524 1.428 . S
C530 N529 1.351 . S
C530 C531 1.434 . S
C531 C522 1.429 . S
C531 N528 1.350 . S
C531 C530 1.434 . S
C532 C533 1.369 . S
C532 C534 1.419 . S
C532 H536 0.930 . S
C533 C532 1.369 . S
C533 C542 1.429 . S
C534 C532 1.419 . S
C534 C535 1.363 . S
C534 H537 0.929 1_545 S
C535 C534 1.363 . S
C535 C541 1.428 . S
H536 C532 0.930 . S
H537 C534 0.929 1_565 S
S538 N539 1.613 . S
S538 N540 1.610 . S
N539 S538 1.613 . S
N539 C542 1.350 . S
N540 S538 1.610 . S
N540 C541 1.351 . S
C541 C535 1.428 . S
C541 N540 1.351 . S
C541 C542 1.434 . S
C542 C533 1.429 . S
C542 N539 1.350 . S
C542 C541 1.434 . S
C543 C544 1.369 . S
C543 C545 1.419 . S
C543 H547 0.930 . S
C544 C543 1.369 . S
C544 C553 1.429 . S
C545 C543 1.419 . S
C545 C546 1.363 . S
C545 H548 0.929 . S
C546 C545 1.363 . S
C546 C552 1.428 . S
H547 C543 0.930 . S
H548 C545 0.929 . S
S549 N550 1.613 . S
S549 N551 1.610 . S
N550 S549 1.613 . S
N550 C553 1.350 . S
N551 S549 1.610 . S
N551 C552 1.351 . S
C552 C546 1.428 . S
C552 N551 1.351 . S
C552 C553 1.434 . S
C553 C544 1.429 . S
C553 N550 1.350 . S
C553 C552 1.434 . S
C554 C555 1.369 . S
C554 C556 1.419 . S
C554 H558 0.930 . S
C555 C554 1.369 . S
C555 C564 1.429 . S
C556 C554 1.419 . S
C556 C557 1.363 . S
C556 H559 0.929 . S
C557 C556 1.363 . S
C557 C563 1.428 . S
H558 C554 0.930 . S
H559 C556 0.929 . S
S560 N561 1.613 . S
S560 N562 1.610 . S
N561 S560 1.613 . S
N561 C564 1.350 . S
N562 S560 1.610 . S
N562 C563 1.351 . S
C563 C557 1.428 . S
C563 N562 1.351 . S
C563 C564 1.434 . S
C564 C555 1.429 . S
C564 N561 1.350 . S
C564 C563 1.434 . S
C565 C566 1.369 . S
C565 C567 1.419 . S
C565 H569 0.930 . S
C566 C565 1.369 . S
C566 C575 1.429 . S
C567 C565 1.419 . S
C567 C568 1.363 . S
C567 H570 0.929 . S
C568 C567 1.363 . S
C568 C574 1.428 . S
H569 C565 0.930 . S
H570 C567 0.929 . S
S571 N572 1.613 1_565 S
S571 N573 1.610 . S
N572 S571 1.613 1_545 S
N572 C575 1.350 . S
N573 S571 1.610 . S
N573 C574 1.351 1_565 S
C574 C568 1.428 . S
C574 N573 1.351 1_545 S
C574 C575 1.434 . S
C575 C566 1.429 . S
C575 N572 1.350 . S
C575 C574 1.434 . S
C576 C577 1.369 . S
C576 C578 1.419 1_556 S
C576 H580 0.930 . S
C577 C576 1.369 . S
C577 C586 1.429 . S
C578 C576 1.419 1_554 S
C578 C579 1.363 . S
C578 H581 0.929 . S
C579 C578 1.363 . S
C579 C585 1.428 . S
H580 C576 0.930 . S
H581 C578 0.929 . S
S582 N583 1.613 1_565 S
S582 N584 1.610 1_566 S
N583 S582 1.613 1_545 S
N583 C586 1.350 . S
N584 S582 1.610 1_544 S
N584 C585 1.351 . S
C585 C579 1.428 . S
C585 N584 1.351 . S
C585 C586 1.434 1_554 S
C586 C577 1.429 . S
C586 N583 1.350 . S
C586 C585 1.434 1_556 S
C587 C588 1.369 . S
C587 C589 1.419 . S
C587 H591 0.930 . S
C588 C587 1.369 . S
C588 C597 1.429 . S
C589 C587 1.419 . S
C589 C590 1.363 . S
C589 H592 0.929 . S
C590 C589 1.363 . S
C590 C596 1.428 . S
H591 C587 0.930 . S
H592 C589 0.929 . S
S593 N594 1.613 . S
S593 N595 1.610 . S
N594 S593 1.613 . S
N594 C597 1.350 . S
N595 S593 1.610 . S
N595 C596 1.351 . S
C596 C590 1.428 . S
C596 N595 1.351 . S
C596 C597 1.434 . S
C597 C588 1.429 . S
C597 N594 1.350 . S
C597 C596 1.434 . S
C598 C599 1.354 1_556 S
C598 C600 1.433 . S
C598 H602 0.931 . S
C599 C598 1.354 1_554 S
C599 C608 1.429 . S
C600 C598 1.433 . S
C600 C601 1.363 . S
C600 H603 0.929 . S
C601 C600 1.363 . S
C601 C607 1.428 . S
H602 C598 0.931 . S
H603 C600 0.929 . S
S604 N605 1.613 . S
S604 N606 1.610 . S
N605 S604 1.613 . S
N605 C608 1.350 . S
N606 S604 1.610 . S
N606 C607 1.351 1_554 S
C607 C601 1.428 . S
C607 N606 1.351 1_556 S
C607 C608 1.434 1_556 S
C608 C599 1.429 . S
C608 N605 1.350 . S
C608 C607 1.434 1_554 S
C609 C610 1.369 . S
C609 C611 1.419 . S
C609 H613 0.930 . S
C610 C609 1.369 . S
C610 C619 1.429 . S
C611 C609 1.419 . S
C611 C612 1.363 . S
C611 H614 0.929 . S
C612 C611 1.363 . S
C612 C618 1.428 . S
H613 C609 0.930 . S
H614 C611 0.929 . S
S615 N616 1.613 . S
S615 N617 1.610 . S
N616 S615 1.613 . S
N616 C619 1.350 . S
N617 S615 1.610 . S
N617 C618 1.351 . S
C618 C612 1.428 . S
C618 N617 1.351 . S
C618 C619 1.434 . S
C619 C610 1.429 . S
C619 N616 1.350 . S
C619 C618 1.434 . S
C620 C621 1.369 . S
C620 C622 1.419 1_554 S
C620 H624 0.930 . S
C621 C620 1.369 . S
C621 C630 1.429 . S
C622 C620 1.419 1_556 S
C622 C623 1.363 . S
C622 H625 0.929 . S
C623 C622 1.363 . S
C623 C629 1.428 . S
H624 C620 0.930 . S
H625 C622 0.929 . S
S626 N627 1.613 1_556 S
S626 N628 1.610 . S
N627 S626 1.613 1_554 S
N627 C630 1.350 . S
N628 S626 1.610 . S
N628 C629 1.351 . S
C629 C623 1.428 . S
C629 N628 1.351 . S
C629 C630 1.434 1_556 S
C630 C621 1.429 . S
C630 N627 1.350 . S
C630 C629 1.434 1_554 S
C631 C632 1.369 . S
C631 C633 1.419 . S
C631 H635 0.930 . S
C632 C631 1.369 . S
C632 C641 1.429 . S
C633 C631 1.419 . S
C633 C634 1.363 . S
C633 H636 0.929 . S
C634 C633 1.363 . S
C634 C640 1.428 . S
H635 C631 0.930 . S
H636 C633 0.929 . S
S637 N638 1.613 . S
S637 N639 1.610 . S
N638 S637 1.613 . S
N638 C641 1.350 . S
N639 S637 1.610 . S
N639 C640 1.351 . S
C640 C634 1.428 . S
C640 N639 1.351 . S
C640 C641 1.434 . S
C641 C632 1.429 . S
C641 N638 1.350 . S
C641 C640 1.434 . S
C642 C643 1.369 1_554 S
C642 C644 1.419 . S
C642 H646 0.930 . S
C643 C642 1.369 1_556 S
C643 C652 1.429 . S
C644 C642 1.419 . S
C644 C645 1.363 . S
C644 H647 0.929 . S
C645 C644 1.363 . S
C645 C651 1.428 . S
H646 C642 0.930 . S
H647 C644 0.929 . S
S648 N649 1.613 . S
S648 N650 1.610 . S
N649 S648 1.613 . S
N649 C652 1.350 . S
N650 S648 1.610 . S
N650 C651 1.351 1_556 S
C651 C645 1.428 . S
C651 N650 1.351 1_554 S
C651 C652 1.434 1_554 S
C652 C643 1.429 . S
C652 N649 1.350 . S
C652 C651 1.434 1_556 S
C653 C654 1.369 . S
C653 C655 1.419 . S
C653 H657 0.930 . S
C654 C653 1.369 . S
C654 C663 1.429 . S
C655 C653 1.419 . S
C655 C656 1.363 . S
C655 H658 0.929 . S
C656 C655 1.363 . S
C656 C662 1.428 . S
H657 C653 0.930 . S
H658 C655 0.929 . S
S659 N660 1.613 . S
S659 N661 1.610 . S
N660 S659 1.613 . S
N660 C663 1.350 . S
N661 S659 1.610 . S
N661 C662 1.351 . S
C662 C656 1.428 . S
C662 N661 1.351 . S
C662 C663 1.434 . S
C663 C654 1.429 . S
C663 N660 1.350 . S
C663 C662 1.434 . S
C664 C665 1.369 . S
C664 C666 1.419 . S
C664 H668 0.930 . S
C665 C664 1.369 . S
C665 C674 1.429 . S
C666 C664 1.419 . S
C666 C667 1.363 . S
C666 H669 0.929 . S
C667 C666 1.363 . S
C667 C673 1.428 . S
H668 C664 0.930 . S
H669 C666 0.929 . S
S670 N671 1.613 . S
S670 N672 1.610 . S
N671 S670 1.613 . S
N671 C674 1.350 . S
N672 S670 1.610 . S
N672 C673 1.351 . S
C673 C667 1.428 . S
C673 N672 1.351 . S
C673 C674 1.434 . S
C674 C665 1.429 . S
C674 N671 1.350 . S
C674 C673 1.434 . S
C675 C676 1.369 . S
C675 C677 1.419 . S
C675 H679 0.930 . S
C676 C675 1.369 . S
C676 C685 1.429 . S
C677 C675 1.419 . S
C677 C678 1.363 . S
C677 H680 0.929 . S
C678 C677 1.363 . S
C678 C684 1.428 . S
H679 C675 0.930 . S
H680 C677 0.929 . S
S681 N682 1.613 . S
S681 N683 1.610 . S
N682 S681 1.613 . S
N682 C685 1.350 . S
N683 S681 1.610 . S
N683 C684 1.351 . S
C684 C678 1.428 . S
C684 N683 1.351 . S
C684 C685 1.434 . S
C685 C676 1.429 . S
C685 N682 1.350 . S
C685 C684 1.434 . S
C686 C687 1.369 . S
C686 C688 1.419 . S
C686 H690 0.930 . S
C687 C686 1.369 . S
C687 C696 1.429 . S
C688 C686 1.419 . S
C688 C689 1.363 . S
C688 H691 0.929 . S
C689 C688 1.363 . S
C689 C695 1.428 . S
H690 C686 0.930 . S
H691 C688 0.929 . S
S692 N693 1.613 . S
S692 N694 1.610 . S
N693 S692 1.613 . S
N693 C696 1.350 . S
N694 S692 1.610 . S
N694 C695 1.351 . S
C695 C689 1.428 . S
C695 N694 1.351 . S
C695 C696 1.434 . S
C696 C687 1.429 . S
C696 N693 1.350 . S
C696 C695 1.434 . S
C697 C698 1.369 . S
C697 C699 1.419 . S
C697 H701 0.930 . S
C698 C697 1.369 . S
C698 C707 1.429 . S
C699 C697 1.419 . S
C699 C700 1.363 . S
C699 H702 0.929 . S
C700 C699 1.363 . S
C700 C706 1.428 . S
H701 C697 0.930 . S
H702 C699 0.929 . S
S703 N704 1.613 . S
S703 N705 1.610 . S
N704 S703 1.613 . S
N704 C707 1.350 . S
N705 S703 1.610 . S
N705 C706 1.351 . S
C706 C700 1.428 . S
C706 N705 1.351 . S
C706 C707 1.434 . S
C707 C698 1.429 . S
C707 N704 1.350 . S
C707 C706 1.434 . S
C708 C709 1.369 . S
C708 C710 1.419 . S
C708 H712 0.930 . S
C709 C708 1.369 . S
C709 C718 1.429 . S
C710 C708 1.419 . S
C710 C711 1.363 . S
C710 H713 0.929 . S
C711 C710 1.363 . S
C711 C717 1.428 . S
H712 C708 0.930 . S
H713 C710 0.929 . S
S714 N715 1.613 . S
S714 N716 1.610 . S
N715 S714 1.613 . S
N715 C718 1.350 . S
N716 S714 1.610 . S
N716 C717 1.351 . S
C717 C711 1.428 . S
C717 N716 1.351 . S
C717 C718 1.434 . S
C718 C709 1.429 . S
C718 N715 1.350 . S
C718 C717 1.434 . S
C719 C720 1.369 . S
C719 C721 1.419 . S
C719 H723 0.930 . S
C720 C719 1.369 . S
C720 C729 1.429 . S
C721 C719 1.419 . S
C721 C722 1.363 . S
C721 H724 0.929 . S
C722 C721 1.363 . S
C722 C728 1.428 . S
H723 C719 0.930 . S
H724 C721 0.929 . S
S725 N726 1.613 . S
S725 N727 1.610 . S
N726 S725 1.613 . S
N726 C729 1.350 . S
N727 S725 1.610 . S
N727 C728 1.351 . S
C728 C722 1.428 . S
C728 N727 1.351 . S
C728 C729 1.434 . S
C729 C720 1.429 . S
C729 N726 1.350 . S
C729 C728 1.434 . S
C730 C731 1.369 . S
C730 C732 1.419 . S
C730 H734 0.930 . S
C731 C730 1.369 . S
C731 C740 1.429 . S
C732 C730 1.419 . S
C732 C733 1.363 . S
C732 H735 0.929 . S
C733 C732 1.363 . S
C733 C739 1.428 . S
H734 C730 0.930 . S
H735 C732 0.929 . S
S736 N737 1.613 . S
S736 N738 1.610 . S
N737 S736 1.613 . S
N737 C740 1.350 . S
N738 S736 1.610 . S
N738 C739 1.351 . S
C739 C733 1.428 . S
C739 N738 1.351 . S
C739 C740 1.434 . S
C740 C731 1.429 . S
C740 N737 1.350 . S
C740 C739 1.434 . S
C741 C742 1.369 . S
C741 C743 1.419 . S
C741 H745 0.930 . S
C742 C741 1.369 . S
C742 C751 1.429 . S
C743 C741 1.419 . S
C743 C744 1.363 . S
C743 H746 0.929 . S
C744 C743 1.363 . S
C744 C750 1.428 . S
H745 C741 0.930 . S
H746 C743 0.929 . S
S747 N748 1.613 . S
S747 N749 1.610 . S
N748 S747 1.613 . S
N748 C751 1.350 . S
N749 S747 1.610 . S
N749 C750 1.351 . S
C750 C744 1.428 . S
C750 N749 1.351 . S
C750 C751 1.434 . S
C751 C742 1.429 . S
C751 N748 1.350 . S
C751 C750 1.434 . S
C489 C116 1.808 . S
C491 C226 1.805 1_565 S
C502 C310 1.807 . S
C500 C135 1.805 . S
C513 C303 1.798 . S
C511 C78 1.808 . S
C522 C97 1.805 . S
C524 C219 1.801 1_565 S
C535 C383 1.806 1_545 S
C533 C40 1.807 . S
C546 C467 1.805 . S
C544 C59 1.808 . S
C555 C2 1.810 . S
C557 C460 1.799 . S
C566 C21 1.811 . S
C568 C376 1.799 1_545 S
C579 C210 1.555 . S
C577 C25 1.727 . S
C590 C294 1.550 . S
C588 C6 1.729 . S
C601 C305 1.433 . S
C599 C63 1.721 . S
C612 C221 1.421 . S
C610 C44 1.723 . S
C623 C389 1.560 . S
C621 C101 1.725 . S
C632 C82 1.728 . S
C634 C473 1.552 . S
C645 C462 1.434 . S
C643 C139 1.719 . S
C654 C120 1.719 . S
C656 C378 1.428 . S
C667 C208 1.509 . S
C665 C11 1.435 . S
C678 C292 1.509 . S
C676 C30 1.441 . S
C687 C49 1.432 . S
C689 C299 1.471 . S
C700 C215 1.473 . S
C698 C68 1.425 . S
C711 C387 1.509 . S
C709 C87 1.374 . S
C720 C106 1.369 . S
C722 C471 1.509 . S
C731 C125 1.374 . S
C733 C478 1.469 . S
C742 C144 1.381 . S
C744 C394 1.468 . S
