# Generated by pormake.
# Topology pto, (3,4)-cn, num edge types: 1
# Building blocks:
#     Node 0, Type 0, BuildingBlock: VETTIZ_charged_linker_0, # of connection points: 3
#     Node 1, Type 0, BuildingBlock: VETTIZ_charged_linker_0, # of connection points: 3
#     Node 2, Type 0, BuildingBlock: VETTIZ_charged_linker_0, # of connection points: 3
#     Node 3, Type 0, BuildingBlock: VETTIZ_charged_linker_0, # of connection points: 3
#     Node 4, Type 0, BuildingBlock: VETTIZ_charged_linker_0, # of connection points: 3
#     Node 5, Type 0, BuildingBlock: VETTIZ_charged_linker_0, # of connection points: 3
#     Node 6, Type 0, BuildingBlock: VETTIZ_charged_linker_0, # of connection points: 3
#     Node 7, Type 0, BuildingBlock: VETTIZ_charged_linker_0, # of connection points: 3
#     Node 8, Type 1, BuildingBlock: NAWXER_clean_sbu_0, # of connection points: 4
#     Node 9, Type 1, BuildingBlock: NAWXER_clean_sbu_0, # of connection points: 4
#     Node 10, Type 1, BuildingBlock: NAWXER_clean_sbu_0, # of connection points: 4
#     Node 11, Type 1, BuildingBlock: NAWXER_clean_sbu_0, # of connection points: 4
#     Node 12, Type 1, BuildingBlock: NAWXER_clean_sbu_0, # of connection points: 4
#     Node 13, Type 1, BuildingBlock: NAWXER_clean_sbu_0, # of connection points: 4
#     Edge 14, Type (0, 1), None
#     Edge 15, Type (0, 1), None
#     Edge 16, Type (0, 1), None
#     Edge 17, Type (0, 1), None
#     Edge 18, Type (0, 1), None
#     Edge 19, Type (0, 1), None
#     Edge 20, Type (0, 1), None
#     Edge 21, Type (0, 1), None
#     Edge 22, Type (0, 1), None
#     Edge 23, Type (0, 1), None
#     Edge 24, Type (0, 1), None
#     Edge 25, Type (0, 1), None
#     Edge 26, Type (0, 1), None
#     Edge 27, Type (0, 1), None
#     Edge 28, Type (0, 1), None
#     Edge 29, Type (0, 1), None
#     Edge 30, Type (0, 1), None
#     Edge 31, Type (0, 1), None
#     Edge 32, Type (0, 1), None
#     Edge 33, Type (0, 1), None
#     Edge 34, Type (0, 1), None
#     Edge 35, Type (0, 1), None
#     Edge 36, Type (0, 1), None
#     Edge 37, Type (0, 1), None
# Relax obj value: 0.000
# Max RMSD: 0.000
# Mean RMSD: 0.000
data_MOF--net-pto--node1-NAWXER_clean_sbu_0--node2-VETTIZ_charged_linker_0--edge1-none
_symmetry_space_group_name_H-M    P1
_symmetry_Int_Tables_number       1
_symmetry_cell_setting            triclinic
loop_
_symmetry_equiv_pos_as_xyz
'x, y, z'
_cell_length_a     27.999583
_cell_length_b     26.520806
_cell_length_c     25.004313
_cell_angle_alpha  89.930644
_cell_angle_beta   90.000485
_cell_angle_gamma 90.001054
loop_
_atom_site_label
_atom_site_type_symbol
_atom_site_fract_x
_atom_site_fract_y
_atom_site_fract_z
_atom_type_partial_charge
C0 C 0.18944 0.11728 0.35473 0.0
C1 C 0.22327 0.07938 0.36544 0.0
C2 C 0.26136 0.07218 0.32932 0.0
C3 C 0.23602 0.14436 0.27753 0.0
C4 C 0.19665 0.14942 0.31056 0.0
C5 C 0.16684 0.19454 0.29539 0.0
H6 H 0.13854 0.40643 0.14616 0.0
C7 C 0.23662 0.18709 0.23951 0.0
C8 C 0.19572 0.21632 0.24918 0.0
H9 H 0.0472 0.34895 0.27132 0.0
H10 H 0.09727 0.27546 0.2807 0.0
H11 H 0.16422 0.29423 0.08724 0.0
H12 H 0.23032 0.38767 0.20665 0.0
H13 H 0.27719 0.35801 0.17256 0.0
H14 H 0.23784 0.40007 0.13665 0.0
H15 H 0.18926 0.35531 0.07386 0.0
H16 H 0.2257 0.29936 0.07274 0.0
C17 C 0.11731 0.17531 0.27686 0.0
C18 C 0.16531 0.23085 0.34392 0.0
C19 C 0.3822 0.21515 0.12056 0.0
C20 C 0.39559 0.2549 0.08642 0.0
C21 C 0.36318 0.29484 0.07781 0.0
C22 C 0.31843 0.29547 0.10291 0.0
C23 C 0.30592 0.25618 0.1379 0.0
C24 C 0.33757 0.2169 0.14628 0.0
C25 C 0.31907 0.17985 0.18699 0.0
C26 C 0.27113 0.20327 0.20137 0.0
C27 C 0.26358 0.2479 0.17229 0.0
C28 C 0.31306 0.12797 0.15936 0.0
C29 C 0.35418 0.17987 0.23495 0.0
C30 C 0.12883 0.37719 0.17444 0.0
C31 C 0.08862 0.38282 0.2075 0.0
C32 C 0.0779 0.34503 0.24524 0.0
C33 C 0.10713 0.30252 0.25077 0.0
C34 C 0.14835 0.29818 0.21909 0.0
C35 C 0.15851 0.33493 0.18141 0.0
C36 C 0.20566 0.32563 0.15413 0.0
C37 C 0.22135 0.27668 0.18063 0.0
C38 C 0.1876 0.26085 0.21872 0.0
C39 C 0.19612 0.3185 0.09367 0.0
C40 C 0.23965 0.37008 0.16764 0.0
H41 H 0.29815 0.09732 0.2604 0.0
H42 H 0.15999 0.1239 0.38192 0.0
H43 H 0.20021 0.23116 0.36521 0.0
H44 H 0.1591 0.2705 0.33248 0.0
H45 H 0.1375 0.21918 0.3731 0.0
H46 H 0.12055 0.13859 0.25568 0.0
H47 H 0.09299 0.16962 0.31144 0.0
H48 H 0.10005 0.20072 0.24763 0.0
H49 H 0.40641 0.18414 0.12832 0.0
H50 H 0.37235 0.3257 0.0513 0.0
H51 H 0.29552 0.3269 0.09454 0.0
H52 H 0.30347 0.13256 0.11643 0.0
H53 H 0.3466 0.10568 0.16122 0.0
H54 H 0.28353 0.10551 0.17657 0.0
H55 H 0.367 0.21876 0.24349 0.0
H56 H 0.33787 0.167 0.27268 0.0
H57 H 0.38599 0.15617 0.22641 0.0
H58 H 0.2876 0.04286 0.33636 0.0
C59 C 0.2677 0.10411 0.28538 0.0
C60 C 0.1288 0.64536 0.83715 0.0
C61 C 0.08859 0.63973 0.80408 0.0
C62 C 0.07788 0.67751 0.76632 0.0
C63 C 0.14831 0.72439 0.79251 0.0
C64 C 0.15848 0.68763 0.83018 0.0
C65 C 0.20562 0.69693 0.85746 0.0
H66 H 0.4064 0.83839 0.88325 0.0
C67 C 0.18757 0.76171 0.79287 0.0
C68 C 0.22132 0.74588 0.83096 0.0
H69 H 0.37233 0.69684 0.96028 0.0
H70 H 0.29549 0.69564 0.91705 0.0
H71 H 0.30348 0.88998 0.89514 0.0
H72 H 0.36697 0.80377 0.76807 0.0
H73 H 0.33787 0.85554 0.7389 0.0
H74 H 0.38599 0.86635 0.78517 0.0
H75 H 0.34659 0.91687 0.85033 0.0
H76 H 0.28352 0.91702 0.83501 0.0
C77 C 0.19609 0.70406 0.91793 0.0
C78 C 0.23961 0.65247 0.84396 0.0
C79 C 0.18943 0.90527 0.65685 0.0
C80 C 0.22327 0.94316 0.64614 0.0
C81 C 0.26136 0.95037 0.68226 0.0
C82 C 0.26769 0.91844 0.7262 0.0
C83 C 0.23602 0.87817 0.73404 0.0
C84 C 0.19664 0.87313 0.70101 0.0
C85 C 0.16683 0.82801 0.71619 0.0
C86 C 0.19571 0.80622 0.76239 0.0
C87 C 0.23661 0.83545 0.77206 0.0
C88 C 0.1173 0.84725 0.73474 0.0
C89 C 0.16527 0.7917 0.66766 0.0
C90 C 0.38219 0.80739 0.89101 0.0
C91 C 0.39557 0.76764 0.92515 0.0
C92 C 0.36316 0.7277 0.93377 0.0
C93 C 0.31841 0.72707 0.90867 0.0
C94 C 0.30591 0.76636 0.87368 0.0
C95 C 0.33755 0.80564 0.86529 0.0
C96 C 0.31906 0.84268 0.82458 0.0
C97 C 0.27112 0.81927 0.8102 0.0
C98 C 0.26356 0.77464 0.83928 0.0
C99 C 0.31305 0.89457 0.85221 0.0
C100 C 0.35417 0.84266 0.77662 0.0
H101 H 0.09725 0.74708 0.73087 0.0
H102 H 0.13851 0.61612 0.86542 0.0
H103 H 0.23028 0.63488 0.80495 0.0
H104 H 0.27715 0.66454 0.83903 0.0
H105 H 0.23779 0.62248 0.87494 0.0
H106 H 0.1642 0.72834 0.92435 0.0
H107 H 0.18923 0.66725 0.93774 0.0
H108 H 0.22568 0.72319 0.93885 0.0
H109 H 0.15998 0.89865 0.62966 0.0
H110 H 0.28759 0.97969 0.67523 0.0
H111 H 0.29814 0.92522 0.75118 0.0
H112 H 0.12057 0.88395 0.75597 0.0
H113 H 0.09299 0.85301 0.70016 0.0
H114 H 0.10002 0.82183 0.76393 0.0
H115 H 0.20015 0.79142 0.64632 0.0
H116 H 0.1591 0.75204 0.67911 0.0
H117 H 0.13742 0.80335 0.63851 0.0
H118 H 0.04719 0.67358 0.74024 0.0
C119 C 0.10711 0.72003 0.76081 0.0
C120 C 0.93163 0.66772 0.22475 0.0
C121 C 0.93264 0.6279 0.18767 0.0
C122 C 0.89925 0.62768 0.14549 0.0
C123 C 0.86221 0.70369 0.18067 0.0
C124 C 0.89666 0.70526 0.22021 0.0
C125 C 0.89078 0.75005 0.25652 0.0
H126 H 0.75399 0.94292 0.34381 0.0
C127 C 0.82926 0.74671 0.18925 0.0
C128 C 0.84642 0.77451 0.23309 0.0
H129 H 0.89142 0.89545 0.40432 0.0
H130 H 0.89782 0.83397 0.33328 0.0
H131 H 0.71222 0.83064 0.31398 0.0
H132 H 0.7849 0.94582 0.22413 0.0
H133 H 0.74803 0.91438 0.17818 0.0
H134 H 0.72149 0.9477 0.23378 0.0
H135 H 0.68837 0.8923 0.30067 0.0
H136 H 0.68119 0.84186 0.25368 0.0
C137 C 0.88211 0.7302 0.31399 0.0
C138 C 0.93542 0.78422 0.2507 0.0
C139 C 0.67403 0.7584 0.0837 0.0
C140 C 0.63629 0.79349 0.08363 0.0
C141 C 0.63984 0.83683 0.1158 0.0
C142 C 0.67934 0.84391 0.14955 0.0
C143 C 0.7159 0.8075 0.1508 0.0
C144 C 0.71366 0.76648 0.11689 0.0
C145 C 0.75742 0.73358 0.12099 0.0
C146 C 0.78544 0.76063 0.16445 0.0
C147 C 0.7604 0.80331 0.18244 0.0
C148 C 0.74138 0.68033 0.13889 0.0
C149 C 0.78381 0.73468 0.0665 0.0
C150 C 0.78545 0.91922 0.34172 0.0
C151 C 0.82193 0.92346 0.38011 0.0
C152 C 0.86281 0.89282 0.37528 0.0
C153 C 0.86632 0.85697 0.33417 0.0
C154 C 0.8287 0.8519 0.29723 0.0
C155 C 0.78978 0.88376 0.30053 0.0
C156 C 0.75435 0.87485 0.2563 0.0
C157 C 0.77774 0.8313 0.22679 0.0
C158 C 0.82086 0.81745 0.25148 0.0
C159 C 0.70628 0.85928 0.28212 0.0
C160 C 0.75159 0.9231 0.22129 0.0
H161 H 0.83871 0.66238 0.10977 0.0
H162 H 0.95726 0.6693 0.25718 0.0
H163 H 0.95199 0.78024 0.21047 0.0
H164 H 0.92667 0.82479 0.25392 0.0
H165 H 0.96307 0.77451 0.28086 0.0
H166 H 0.85621 0.69838 0.31358 0.0
H167 H 0.91585 0.71625 0.3321 0.0
H168 H 0.86654 0.75865 0.34091 0.0
H169 H 0.67268 0.72526 0.05845 0.0
H170 H 0.61128 0.86438 0.11626 0.0
H171 H 0.67949 0.87702 0.1741 0.0
H172 H 0.71574 0.68296 0.17277 0.0
H173 H 0.72334 0.66012 0.10565 0.0
H174 H 0.77107 0.6567 0.15333 0.0
H175 H 0.77706 0.7706 0.04472 0.0
H176 H 0.82308 0.73307 0.07107 0.0
H177 H 0.77192 0.70332 0.04027 0.0
H178 H 0.89925 0.59735 0.11651 0.0
C179 C 0.86394 0.66526 0.14191 0.0
C180 C 0.67401 0.26413 0.92783 0.0
C181 C 0.63628 0.22903 0.92791 0.0
C182 C 0.63985 0.18568 0.89576 0.0
C183 C 0.7159 0.21502 0.86076 0.0
C184 C 0.71364 0.25605 0.89464 0.0
C185 C 0.7574 0.28895 0.89054 0.0
H186 H 0.95727 0.35321 0.7544 0.0
C187 C 0.7604 0.2192 0.82912 0.0
C188 C 0.78544 0.26189 0.84711 0.0
H189 H 0.89922 0.4252 0.89502 0.0
H190 H 0.83867 0.36017 0.90175 0.0
H191 H 0.85626 0.32414 0.69794 0.0
H192 H 0.95195 0.24226 0.80115 0.0
H193 H 0.92666 0.19772 0.75766 0.0
H194 H 0.96308 0.248 0.73077 0.0
H195 H 0.9159 0.30623 0.67946 0.0
H196 H 0.86657 0.26385 0.67064 0.0
C197 C 0.74136 0.34219 0.87259 0.0
C198 C 0.78378 0.28789 0.94504 0.0
C199 C 0.78545 0.10329 0.66984 0.0
C200 C 0.82193 0.09905 0.63146 0.0
C201 C 0.86282 0.12969 0.63628 0.0
C202 C 0.86633 0.16553 0.6774 0.0
C203 C 0.82871 0.17061 0.71434 0.0
C204 C 0.78978 0.13876 0.71103 0.0
C205 C 0.75436 0.14766 0.75527 0.0
C206 C 0.77774 0.1912 0.78478 0.0
C207 C 0.82088 0.20505 0.7601 0.0
C208 C 0.70628 0.16323 0.72945 0.0
C209 C 0.75159 0.0994 0.79027 0.0
C210 C 0.93164 0.3548 0.78681 0.0
C211 C 0.93264 0.39462 0.82389 0.0
C212 C 0.89923 0.39486 0.86605 0.0
C213 C 0.86392 0.35729 0.86962 0.0
C214 C 0.8622 0.31885 0.83087 0.0
C215 C 0.89666 0.31726 0.79134 0.0
C216 C 0.89079 0.27247 0.75504 0.0
C217 C 0.8464 0.24802 0.77846 0.0
C218 C 0.82924 0.27584 0.82228 0.0
C219 C 0.88214 0.2923 0.69756 0.0
C220 C 0.93542 0.23829 0.7609 0.0
H221 H 0.6795 0.14548 0.83749 0.0
H222 H 0.67266 0.29728 0.95307 0.0
H223 H 0.77702 0.252 0.96686 0.0
H224 H 0.82305 0.2895 0.94047 0.0
H225 H 0.7719 0.31929 0.97123 0.0
H226 H 0.71573 0.33953 0.83871 0.0
H227 H 0.7233 0.36241 0.90581 0.0
H228 H 0.77105 0.36583 0.85815 0.0
H229 H 0.75399 0.07959 0.66775 0.0
H230 H 0.89142 0.12706 0.60725 0.0
H231 H 0.89783 0.18853 0.6783 0.0
H232 H 0.71222 0.19189 0.6976 0.0
H233 H 0.68838 0.13022 0.71088 0.0
H234 H 0.68118 0.18063 0.75789 0.0
H235 H 0.7849 0.07668 0.78742 0.0
H236 H 0.74805 0.10812 0.83339 0.0
H237 H 0.72148 0.07481 0.77779 0.0
H238 H 0.61129 0.15812 0.89532 0.0
C239 C 0.67935 0.1786 0.86202 0.0
C240 C 0.76928 0.85254 0.59755 0.0
C241 C 0.734 0.89028 0.59514 0.0
C242 C 0.69195 0.88438 0.62543 0.0
C243 C 0.72191 0.80572 0.66211 0.0
C244 C 0.76226 0.81045 0.63069 0.0
C245 C 0.79538 0.76601 0.63668 0.0
H246 H 0.86225 0.56051 0.77779 0.0
C247 C 0.72642 0.75873 0.69369 0.0
C248 C 0.76902 0.73482 0.67841 0.0
H249 H 0.93135 0.6246 0.63902 0.0
H250 H 0.86627 0.68399 0.62854 0.0
H251 H 0.82351 0.66484 0.83163 0.0
H252 H 0.75777 0.55899 0.72344 0.0
H253 H 0.71289 0.58123 0.76643 0.0
H254 H 0.76261 0.54616 0.79371 0.0
H255 H 0.81027 0.60063 0.84924 0.0
H256 H 0.7659 0.64918 0.85501 0.0
C257 C 0.84385 0.78571 0.65783 0.0
C258 C 0.79862 0.73841 0.58214 0.0
C259 C 0.60775 0.72418 0.84271 0.0
C260 C 0.60412 0.68651 0.88211 0.0
C261 C 0.63617 0.64553 0.88062 0.0
C262 C 0.67276 0.64361 0.84205 0.0
C263 C 0.67723 0.68296 0.80447 0.0
C264 C 0.64414 0.7216 0.80446 0.0
C265 C 0.65354 0.75984 0.7613 0.0
C266 C 0.69825 0.73833 0.73575 0.0
C267 C 0.71245 0.69365 0.76155 0.0
C268 C 0.6631 0.81131 0.78861 0.0
C269 C 0.61056 0.75976 0.72216 0.0
C270 C 0.86313 0.58729 0.74505 0.0
C271 C 0.90212 0.58853 0.70957 0.0
C272 C 0.90166 0.62302 0.66675 0.0
C273 C 0.86405 0.65767 0.66103 0.0
C274 C 0.82628 0.65743 0.69817 0.0
C275 C 0.82536 0.62139 0.73812 0.0
C276 C 0.78068 0.62454 0.77156 0.0
C277 C 0.75575 0.66955 0.74627 0.0
C278 C 0.78324 0.68936 0.70408 0.0
C279 C 0.79551 0.6351 0.83012 0.0
C280 C 0.7519 0.57517 0.76395 0.0
H281 H 0.65333 0.84059 0.68164 0.0
H282 H 0.80149 0.85544 0.57375 0.0
H283 H 0.76649 0.74553 0.55705 0.0
H284 H 0.79982 0.6969 0.58678 0.0
H285 H 0.83028 0.75102 0.55895 0.0
H286 H 0.83822 0.81179 0.69208 0.0
H287 H 0.86332 0.8067 0.62614 0.0
H288 H 0.86738 0.75554 0.67279 0.0
H289 H 0.5834 0.75593 0.84241 0.0
H290 H 0.63425 0.61613 0.91066 0.0
H291 H 0.69693 0.61225 0.84382 0.0
H292 H 0.68616 0.80635 0.82449 0.0
H293 H 0.6292 0.8291 0.80188 0.0
H294 H 0.68237 0.83825 0.76289 0.0
H295 H 0.59256 0.72236 0.72133 0.0
H296 H 0.62148 0.76653 0.68022 0.0
H297 H 0.58341 0.78821 0.73388 0.0
H298 H 0.66416 0.91278 0.62404 0.0
C299 C 0.6858 0.84247 0.65897 0.0
C300 C 0.7693 0.16997 0.414 0.0
C301 C 0.73401 0.13223 0.41641 0.0
C302 C 0.69197 0.13812 0.38612 0.0
C303 C 0.72194 0.21678 0.34943 0.0
C304 C 0.76228 0.21206 0.38086 0.0
C305 C 0.7954 0.25649 0.37487 0.0
H306 H 0.86227 0.46201 0.23377 0.0
C307 C 0.72645 0.26377 0.31785 0.0
C308 C 0.76905 0.28769 0.33314 0.0
H309 H 0.93138 0.39791 0.37253 0.0
H310 H 0.86631 0.33852 0.38301 0.0
H311 H 0.75779 0.46352 0.28811 0.0
H312 H 0.82354 0.35768 0.17992 0.0
H313 H 0.76593 0.37334 0.15654 0.0
H314 H 0.81029 0.42189 0.16231 0.0
H315 H 0.76263 0.47635 0.21785 0.0
H316 H 0.71292 0.44127 0.24513 0.0
C317 C 0.79864 0.2841 0.4294 0.0
C318 C 0.84387 0.2368 0.35372 0.0
C319 C 0.60778 0.29833 0.16884 0.0
C320 C 0.60415 0.336 0.12944 0.0
C321 C 0.6362 0.37698 0.13093 0.0
C322 C 0.67279 0.3789 0.1695 0.0
C323 C 0.67726 0.33955 0.20707 0.0
C324 C 0.64417 0.3009 0.20709 0.0
C325 C 0.65357 0.26266 0.25024 0.0
C326 C 0.69828 0.28417 0.2758 0.0
C327 C 0.71248 0.32885 0.25 0.0
C328 C 0.61059 0.26273 0.28938 0.0
C329 C 0.66313 0.21119 0.22293 0.0
C330 C 0.86316 0.43522 0.26651 0.0
C331 C 0.90215 0.43399 0.30199 0.0
C332 C 0.90168 0.39949 0.34481 0.0
C333 C 0.86408 0.36484 0.35052 0.0
C334 C 0.82631 0.36508 0.31338 0.0
C335 C 0.82539 0.40112 0.27343 0.0
C336 C 0.78071 0.39797 0.23999 0.0
C337 C 0.75578 0.35295 0.26528 0.0
C338 C 0.78327 0.33315 0.30746 0.0
C339 C 0.75192 0.44733 0.2476 0.0
C340 C 0.79554 0.38741 0.18143 0.0
H341 H 0.65336 0.18191 0.3299 0.0
H342 H 0.80151 0.16706 0.43781 0.0
H343 H 0.83825 0.21071 0.31947 0.0
H344 H 0.86741 0.26697 0.33876 0.0
H345 H 0.86335 0.21581 0.38542 0.0
H346 H 0.76651 0.27698 0.45449 0.0
H347 H 0.83031 0.27148 0.4526 0.0
H348 H 0.79985 0.32561 0.42477 0.0
H349 H 0.58342 0.26658 0.16913 0.0
H350 H 0.63428 0.40638 0.1009 0.0
H351 H 0.69696 0.41026 0.16773 0.0
H352 H 0.59259 0.30013 0.2902 0.0
H353 H 0.58345 0.23428 0.27766 0.0
H354 H 0.62151 0.25597 0.33132 0.0
H355 H 0.68619 0.21616 0.18706 0.0
H356 H 0.6824 0.18425 0.24864 0.0
H357 H 0.62923 0.19341 0.20966 0.0
H358 H 0.66418 0.10972 0.3875 0.0
C359 C 0.68582 0.18004 0.35258 0.0
C360 C 0.33137 0.159 0.61 0.0
C361 C 0.29514 0.1455 0.5738 0.0
C362 C 0.25652 0.17885 0.56578 0.0
C363 C 0.28713 0.23492 0.63377 0.0
C364 C 0.32644 0.20376 0.63975 0.0
C365 C 0.35917 0.22207 0.6834 0.0
H366 H 0.39975 0.37818 0.8928 0.0
C367 C 0.28991 0.27537 0.67431 0.0
C368 C 0.33233 0.26836 0.70328 0.0
H369 H 0.48693 0.25517 0.8356 0.0
H370 H 0.43407 0.24315 0.76073 0.0
H371 H 0.30524 0.32351 0.87982 0.0
H372 H 0.37217 0.42665 0.76983 0.0
H373 H 0.31126 0.44259 0.77541 0.0
H374 H 0.34892 0.44526 0.83378 0.0
H375 H 0.30277 0.39046 0.88955 0.0
H376 H 0.2591 0.35775 0.84937 0.0
C377 C 0.36217 0.18032 0.72675 0.0
C378 C 0.40771 0.23625 0.65769 0.0
C379 C 0.15013 0.39665 0.69749 0.0
C380 C 0.13952 0.43312 0.73648 0.0
C381 C 0.17369 0.44366 0.77638 0.0
C382 C 0.21755 0.4182 0.77776 0.0
C383 C 0.22729 0.38094 0.73941 0.0
C384 C 0.19383 0.37062 0.70018 0.0
C385 C 0.20908 0.32748 0.66502 0.0
C386 C 0.25741 0.31421 0.68907 0.0
C387 C 0.268 0.34587 0.7325 0.0
C388 C 0.1722 0.28427 0.67199 0.0
C389 C 0.21395 0.34742 0.60704 0.0
C390 C 0.40797 0.34972 0.86315 0.0
C391 C 0.44767 0.31783 0.8696 0.0
C392 C 0.45658 0.2802 0.8312 0.0
C393 C 0.42565 0.27307 0.78794 0.0
C394 C 0.38458 0.30314 0.78348 0.0
C395 C 0.37665 0.34137 0.82005 0.0
C396 C 0.32985 0.36784 0.81003 0.0
C397 C 0.3114 0.33941 0.76136 0.0
C398 C 0.34356 0.30131 0.74632 0.0
C399 C 0.29741 0.36003 0.85967 0.0
C400 C 0.34071 0.42369 0.79685 0.0
H401 H 0.22171 0.24649 0.58782 0.0
H402 H 0.36133 0.13407 0.6172 0.0
H403 H 0.40277 0.2507 0.61625 0.0
H404 H 0.42604 0.26717 0.67903 0.0
H405 H 0.43183 0.20307 0.65549 0.0
H406 H 0.32687 0.16176 0.73231 0.0
H407 H 0.38826 0.15068 0.71529 0.0
H408 H 0.37164 0.19482 0.76669 0.0
H409 H 0.12432 0.38722 0.66681 0.0
H410 H 0.16648 0.47182 0.80669 0.0
H411 H 0.24189 0.42801 0.80919 0.0
H412 H 0.15765 0.28356 0.7134 0.0
H413 H 0.14158 0.28894 0.64419 0.0
H414 H 0.18778 0.24643 0.66639 0.0
H415 H 0.2287 0.38638 0.60675 0.0
H416 H 0.23917 0.32508 0.58272 0.0
H417 H 0.17873 0.34849 0.58663 0.0
H418 H 0.22844 0.16969 0.53758 0.0
C419 C 0.2525 0.22345 0.59517 0.0
C420 C 0.15014 0.6259 0.31408 0.0
C421 C 0.13953 0.58942 0.27509 0.0
C422 C 0.1737 0.57889 0.23519 0.0
C423 C 0.22731 0.64159 0.27218 0.0
C424 C 0.19384 0.65192 0.31139 0.0
C425 C 0.20908 0.69508 0.34654 0.0
H426 H 0.36133 0.8885 0.39437 0.0
C427 C 0.26801 0.67668 0.27908 0.0
C428 C 0.25741 0.70835 0.3225 0.0
H429 H 0.22845 0.85286 0.474 0.0
H430 H 0.2217 0.77608 0.42374 0.0
H431 H 0.32689 0.86085 0.27927 0.0
H432 H 0.40273 0.77182 0.3953 0.0
H433 H 0.42605 0.75541 0.33251 0.0
H434 H 0.43181 0.8195 0.35613 0.0
H435 H 0.3883 0.87187 0.29627 0.0
H436 H 0.37162 0.82776 0.24487 0.0
C437 C 0.1722 0.73828 0.33955 0.0
C438 C 0.21394 0.67516 0.40453 0.0
C439 C 0.40798 0.67282 0.14843 0.0
C440 C 0.44767 0.70472 0.14198 0.0
C441 C 0.45657 0.74237 0.18036 0.0
C442 C 0.42565 0.7495 0.22362 0.0
C443 C 0.38459 0.71943 0.22809 0.0
C444 C 0.37666 0.68118 0.19153 0.0
C445 C 0.32987 0.6547 0.20156 0.0
C446 C 0.31141 0.68314 0.25022 0.0
C447 C 0.34357 0.72124 0.26525 0.0
C448 C 0.29743 0.66249 0.15192 0.0
C449 C 0.34073 0.59886 0.21476 0.0
C450 C 0.33137 0.86357 0.40157 0.0
C451 C 0.29515 0.87706 0.43777 0.0
C452 C 0.25652 0.84371 0.44579 0.0
C453 C 0.25249 0.79912 0.41638 0.0
C454 C 0.28711 0.78767 0.37776 0.0
C455 C 0.32643 0.81882 0.3718 0.0
C456 C 0.35916 0.80051 0.32815 0.0
C457 C 0.33231 0.75422 0.30826 0.0
C458 C 0.28989 0.74722 0.33722 0.0
C459 C 0.36219 0.84226 0.28481 0.0
C460 C 0.40769 0.78631 0.35388 0.0
H461 H 0.24191 0.59453 0.20239 0.0
H462 H 0.12432 0.63534 0.34475 0.0
H463 H 0.22866 0.63619 0.40484 0.0
H464 H 0.23918 0.69749 0.42884 0.0
H465 H 0.17873 0.67413 0.42495 0.0
H466 H 0.15769 0.739 0.29812 0.0
H467 H 0.14155 0.73358 0.36731 0.0
H468 H 0.18776 0.77613 0.34518 0.0
H469 H 0.39977 0.64435 0.11879 0.0
H470 H 0.48692 0.76741 0.17594 0.0
H471 H 0.43406 0.77944 0.25082 0.0
H472 H 0.30527 0.69899 0.13174 0.0
H473 H 0.30277 0.63203 0.12206 0.0
H474 H 0.25912 0.6648 0.16222 0.0
H475 H 0.37218 0.59591 0.2418 0.0
H476 H 0.31128 0.57995 0.23618 0.0
H477 H 0.34897 0.57728 0.17784 0.0
H478 H 0.1665 0.55072 0.20489 0.0
C479 C 0.21757 0.60434 0.23383 0.0
C480 C 0.94463 0.46545 0.29132 0.0
C481 C 0.0928 0.56324 0.27412 0.0
O482 O 0.96914 0.48426 0.32925 0.0
Zn483 Zn 0.01752 0.5162 0.28483 0.0
O484 O 0.95795 0.47196 0.24274 0.0
Zn485 Zn 1.01495 0.50811 0.19971 0.0
O486 O 0.04663 0.45113 0.16541 0.0
O487 O 0.05243 0.45069 0.2536 0.0
O488 O 0.07575 0.54855 0.22918 0.0
O489 O 0.06999 0.55389 0.31699 0.0
O490 O 0.97761 0.57342 0.24422 0.0
O491 O 0.97964 0.55755 0.15764 0.0
C492 C 0.0612 0.43024 0.20826 0.0
C493 C 0.96549 0.58489 0.19629 0.0
C494 C 0.96548 0.43764 0.81527 0.0
C495 C 0.06118 0.5923 0.80331 0.0
O496 O 0.97963 0.46498 0.85392 0.0
Zn497 Zn 1.01494 0.51442 0.81185 0.0
O498 O 0.9776 0.44911 0.76734 0.0
Zn499 Zn 0.01751 0.50634 0.72673 0.0
O500 O 0.06999 0.46866 0.69458 0.0
O501 O 0.07574 0.47399 0.78238 0.0
O502 O 0.05241 0.57185 0.75797 0.0
O503 O 0.0466 0.57141 0.84616 0.0
O504 O 0.95793 0.55057 0.76882 0.0
O505 O 0.96912 0.53827 0.68231 0.0
C506 C 0.09279 0.45931 0.73745 0.0
C507 C 0.94461 0.55708 0.72024 0.0
C508 C 0.22466 0.96997 0.59426 0.0
C509 C 0.22466 0.05257 0.41732 0.0
O510 O 0.1871 0.98132 0.56802 0.0
Zn511 Zn 0.21979 1.01128 0.50579 0.0
O512 O 0.26579 0.97971 0.5745 0.0
Zn513 Zn 0.29814 1.01128 0.50579 0.0
O514 O 0.33085 0.07007 0.53695 0.0
O515 O 0.25219 0.07633 0.53873 0.0
O516 O 0.26579 0.04284 0.43709 0.0
O517 O 0.18711 0.04123 0.44356 0.0
O518 O 0.25219 0.94623 0.47285 0.0
O519 O 0.33086 0.95249 0.47464 0.0
C520 C 0.29337 0.09511 0.54849 0.0
C521 C 0.29338 0.92744 0.4631 0.0
C522 C 0.5925 0.78313 0.05251 0.0
C523 C 0.44296 0.76666 0.9516 0.0
O524 O 0.5791 0.73727 0.04622 0.0
Zn525 Zn 0.52157 0.69646 0.00911 0.0
O526 O 0.56746 0.81879 0.03309 0.0
Zn527 Zn 0.51873 0.77688 1.00038 0.0
O528 O 0.48447 0.74745 0.06998 0.0
O529 O 0.49024 0.66432 0.07025 0.0
O530 O 0.46583 0.80709 0.96113 0.0
O531 O 0.46035 0.72429 0.96686 0.0
O532 O 0.55663 0.65693 0.95612 0.0
O533 O 0.55828 0.73868 0.93981 0.0
C534 C 0.47572 0.70486 0.09208 0.0
C535 C 0.57063 0.69368 0.92735 0.0
C536 C 0.74121 0.93573 0.56172 0.0
C537 C 0.74122 0.08678 0.44984 0.0
O538 O 0.70566 0.9607 0.54452 0.0
Zn539 Zn 0.74103 1.01126 0.50578 0.0
O540 O 0.7837 0.95042 0.55032 0.0
Zn541 Zn 0.81647 1.01125 0.50578 0.0
O542 O 0.8517 0.04806 0.55977 0.0
O543 O 0.77355 0.05378 0.56935 0.0
O544 O 0.78371 0.07208 0.46125 0.0
O545 O 0.70567 0.06182 0.46704 0.0
O546 O 0.77355 0.96873 0.44221 0.0
O547 O 0.85171 0.97445 0.4518 0.0
C548 C 0.81582 0.06494 0.5852 0.0
C549 C 0.81582 0.95758 0.42637 0.0
C550 C 0.57065 0.32884 0.0842 0.0
C551 C 0.47572 0.31768 0.91949 0.0
O552 O 0.55829 0.28384 0.07175 0.0
Zn553 Zn 0.51873 0.24565 0.01118 0.0
O554 O 0.55665 0.36559 0.05544 0.0
Zn555 Zn 0.52158 0.32607 1.00245 0.0
O556 O 0.46036 0.29824 0.04471 0.0
O557 O 0.46583 0.21544 0.05043 0.0
O558 O 0.49025 0.35822 0.94132 0.0
O559 O 0.48447 0.27509 0.94159 0.0
O560 O 0.56746 0.20374 0.97846 0.0
O561 O 0.5791 0.28525 0.96533 0.0
C562 C 0.44297 0.25588 0.05997 0.0
C563 C 0.59249 0.2394 0.95903 0.0
loop_
_geom_bond_atom_site_label_1
_geom_bond_atom_site_label_2
_geom_bond_distance
_geom_bond_site_symmetry_2
_ccdc_geom_bond_type
C0 C1 1.391 . S
C0 C4 1.391 . S
C0 H42 0.948 . S
C1 C0 1.391 . S
C1 C2 1.391 . S
C2 C1 1.391 . S
C2 H58 0.947 . S
C2 C59 1.392 . S
C3 C4 1.391 . S
C3 C7 1.397 . S
C3 C59 1.419 . S
C4 C0 1.391 . S
C4 C3 1.391 . S
C4 C5 1.399 . S
C5 C4 1.399 . S
C5 C8 1.396 . S
C5 C17 1.453 . S
C5 C18 1.684 . S
H6 C30 0.948 . S
C7 C3 1.397 . S
C7 C8 1.394 . S
C7 C26 1.723 . S
C8 C5 1.396 . S
C8 C7 1.394 . S
C8 C38 1.723 . S
H9 C32 0.947 . S
H10 C33 0.948 . S
H11 C39 0.982 . S
H12 C40 0.979 . S
H13 C40 0.980 . S
H14 C40 0.983 . S
H15 C39 0.979 . S
H16 C39 0.977 . S
C17 C5 1.453 . S
C17 H46 0.982 . S
C17 H47 0.979 . S
C17 H48 0.977 . S
C18 C5 1.684 . S
C18 H43 0.979 . S
C18 H44 0.980 . S
C18 H45 0.983 . S
C19 C20 1.391 . S
C19 C24 1.391 . S
C19 H49 0.948 . S
C20 C19 1.391 . S
C20 C21 1.391 . S
C21 C20 1.391 . S
C21 C22 1.392 . S
C21 H50 0.947 . S
C22 C21 1.392 . S
C22 C23 1.419 . S
C22 H51 0.948 . S
C23 C22 1.419 . S
C23 C24 1.391 . S
C23 C27 1.397 . S
C24 C19 1.391 . S
C24 C23 1.391 . S
C24 C25 1.399 . S
C25 C24 1.399 . S
C25 C26 1.396 . S
C25 C28 1.453 . S
C25 C29 1.684 . S
C26 C7 1.723 . S
C26 C25 1.396 . S
C26 C27 1.394 . S
C27 C23 1.397 . S
C27 C26 1.394 . S
C27 C37 1.723 . S
C28 C25 1.453 . S
C28 H52 0.982 . S
C28 H53 0.979 . S
C28 H54 0.977 . S
C29 C25 1.684 . S
C29 H55 0.979 . S
C29 H56 0.980 . S
C29 H57 0.983 . S
C30 H6 0.948 . S
C30 C31 1.391 . S
C30 C35 1.391 . S
C31 C30 1.391 . S
C31 C32 1.391 . S
C32 H9 0.947 . S
C32 C31 1.391 . S
C32 C33 1.392 . S
C33 H10 0.948 . S
C33 C32 1.392 . S
C33 C34 1.419 . S
C34 C33 1.419 . S
C34 C35 1.391 . S
C34 C38 1.397 . S
C35 C30 1.391 . S
C35 C34 1.391 . S
C35 C36 1.399 . S
C36 C35 1.399 . S
C36 C37 1.396 . S
C36 C39 1.453 . S
C36 C40 1.684 . S
C37 C27 1.723 . S
C37 C36 1.396 . S
C37 C38 1.394 . S
C38 C8 1.723 . S
C38 C34 1.397 . S
C38 C37 1.394 . S
C39 H11 0.982 . S
C39 H15 0.979 . S
C39 H16 0.977 . S
C39 C36 1.453 . S
C40 H12 0.979 . S
C40 H13 0.980 . S
C40 H14 0.983 . S
C40 C36 1.684 . S
H41 C59 0.948 . S
H42 C0 0.948 . S
H43 C18 0.979 . S
H44 C18 0.980 . S
H45 C18 0.983 . S
H46 C17 0.982 . S
H47 C17 0.979 . S
H48 C17 0.977 . S
H49 C19 0.948 . S
H50 C21 0.947 . S
H51 C22 0.948 . S
H52 C28 0.982 . S
H53 C28 0.979 . S
H54 C28 0.977 . S
H55 C29 0.979 . S
H56 C29 0.980 . S
H57 C29 0.983 . S
H58 C2 0.947 . S
C59 C2 1.392 . S
C59 C3 1.419 . S
C59 H41 0.948 . S
C60 C61 1.391 . S
C60 C64 1.391 . S
C60 H102 0.948 . S
C61 C60 1.391 . S
C61 C62 1.391 . S
C62 C61 1.391 . S
C62 H118 0.947 . S
C62 C119 1.392 . S
C63 C64 1.391 . S
C63 C67 1.397 . S
C63 C119 1.419 . S
C64 C60 1.391 . S
C64 C63 1.391 . S
C64 C65 1.399 . S
C65 C64 1.399 . S
C65 C68 1.396 . S
C65 C77 1.453 . S
C65 C78 1.684 . S
H66 C90 0.948 . S
C67 C63 1.397 . S
C67 C68 1.394 . S
C67 C86 1.723 . S
C68 C65 1.396 . S
C68 C67 1.394 . S
C68 C98 1.723 . S
H69 C92 0.947 . S
H70 C93 0.948 . S
H71 C99 0.982 . S
H72 C100 0.979 . S
H73 C100 0.980 . S
H74 C100 0.983 . S
H75 C99 0.979 . S
H76 C99 0.977 . S
C77 C65 1.453 . S
C77 H106 0.982 . S
C77 H107 0.979 . S
C77 H108 0.977 . S
C78 C65 1.684 . S
C78 H103 0.979 . S
C78 H104 0.980 . S
C78 H105 0.983 . S
C79 C80 1.391 . S
C79 C84 1.391 . S
C79 H109 0.948 . S
C80 C79 1.391 . S
C80 C81 1.391 . S
C81 C80 1.391 . S
C81 C82 1.392 . S
C81 H110 0.947 . S
C82 C81 1.392 . S
C82 C83 1.419 . S
C82 H111 0.948 . S
C83 C82 1.419 . S
C83 C84 1.391 . S
C83 C87 1.397 . S
C84 C79 1.391 . S
C84 C83 1.391 . S
C84 C85 1.399 . S
C85 C84 1.399 . S
C85 C86 1.396 . S
C85 C88 1.453 . S
C85 C89 1.684 . S
C86 C67 1.723 . S
C86 C85 1.396 . S
C86 C87 1.394 . S
C87 C83 1.397 . S
C87 C86 1.394 . S
C87 C97 1.723 . S
C88 C85 1.453 . S
C88 H112 0.982 . S
C88 H113 0.979 . S
C88 H114 0.977 . S
C89 C85 1.684 . S
C89 H115 0.979 . S
C89 H116 0.980 . S
C89 H117 0.983 . S
C90 H66 0.948 . S
C90 C91 1.391 . S
C90 C95 1.391 . S
C91 C90 1.391 . S
C91 C92 1.391 . S
C92 H69 0.947 . S
C92 C91 1.391 . S
C92 C93 1.392 . S
C93 H70 0.948 . S
C93 C92 1.392 . S
C93 C94 1.419 . S
C94 C93 1.419 . S
C94 C95 1.391 . S
C94 C98 1.397 . S
C95 C90 1.391 . S
C95 C94 1.391 . S
C95 C96 1.399 . S
C96 C95 1.399 . S
C96 C97 1.396 . S
C96 C99 1.453 . S
C96 C100 1.684 . S
C97 C87 1.723 . S
C97 C96 1.396 . S
C97 C98 1.394 . S
C98 C68 1.723 . S
C98 C94 1.397 . S
C98 C97 1.394 . S
C99 H71 0.982 . S
C99 H75 0.979 . S
C99 H76 0.977 . S
C99 C96 1.453 . S
C100 H72 0.979 . S
C100 H73 0.980 . S
C100 H74 0.983 . S
C100 C96 1.684 . S
H101 C119 0.948 . S
H102 C60 0.948 . S
H103 C78 0.979 . S
H104 C78 0.980 . S
H105 C78 0.983 . S
H106 C77 0.982 . S
H107 C77 0.979 . S
H108 C77 0.977 . S
H109 C79 0.948 . S
H110 C81 0.947 . S
H111 C82 0.948 . S
H112 C88 0.982 . S
H113 C88 0.979 . S
H114 C88 0.977 . S
H115 C89 0.979 . S
H116 C89 0.980 . S
H117 C89 0.983 . S
H118 C62 0.947 . S
C119 C62 1.392 . S
C119 C63 1.419 . S
C119 H101 0.948 . S
C120 C121 1.391 . S
C120 C124 1.391 . S
C120 H162 0.948 . S
C121 C120 1.391 . S
C121 C122 1.391 . S
C122 C121 1.391 . S
C122 H178 0.947 . S
C122 C179 1.392 . S
C123 C124 1.391 . S
C123 C127 1.397 . S
C123 C179 1.419 . S
C124 C120 1.391 . S
C124 C123 1.391 . S
C124 C125 1.399 . S
C125 C124 1.399 . S
C125 C128 1.396 . S
C125 C137 1.453 . S
C125 C138 1.684 . S
H126 C150 0.948 . S
C127 C123 1.397 . S
C127 C128 1.394 . S
C127 C146 1.723 . S
C128 C125 1.396 . S
C128 C127 1.394 . S
C128 C158 1.723 . S
H129 C152 0.947 . S
H130 C153 0.948 . S
H131 C159 0.982 . S
H132 C160 0.979 . S
H133 C160 0.980 . S
H134 C160 0.983 . S
H135 C159 0.979 . S
H136 C159 0.977 . S
C137 C125 1.453 . S
C137 H166 0.982 . S
C137 H167 0.979 . S
C137 H168 0.977 . S
C138 C125 1.684 . S
C138 H163 0.979 . S
C138 H164 0.980 . S
C138 H165 0.983 . S
C139 C140 1.391 . S
C139 C144 1.391 . S
C139 H169 0.948 . S
C140 C139 1.391 . S
C140 C141 1.391 . S
C141 C140 1.391 . S
C141 C142 1.392 . S
C141 H170 0.947 . S
C142 C141 1.392 . S
C142 C143 1.419 . S
C142 H171 0.948 . S
C143 C142 1.419 . S
C143 C144 1.391 . S
C143 C147 1.397 . S
C144 C139 1.391 . S
C144 C143 1.391 . S
C144 C145 1.399 . S
C145 C144 1.399 . S
C145 C146 1.396 . S
C145 C148 1.453 . S
C145 C149 1.684 . S
C146 C127 1.723 . S
C146 C145 1.396 . S
C146 C147 1.394 . S
C147 C143 1.397 . S
C147 C146 1.394 . S
C147 C157 1.723 . S
C148 C145 1.453 . S
C148 H172 0.982 . S
C148 H173 0.979 . S
C148 H174 0.977 . S
C149 C145 1.684 . S
C149 H175 0.979 . S
C149 H176 0.980 . S
C149 H177 0.983 . S
C150 H126 0.948 . S
C150 C151 1.391 . S
C150 C155 1.391 . S
C151 C150 1.391 . S
C151 C152 1.391 . S
C152 H129 0.947 . S
C152 C151 1.391 . S
C152 C153 1.392 . S
C153 H130 0.948 . S
C153 C152 1.392 . S
C153 C154 1.419 . S
C154 C153 1.419 . S
C154 C155 1.391 . S
C154 C158 1.397 . S
C155 C150 1.391 . S
C155 C154 1.391 . S
C155 C156 1.399 . S
C156 C155 1.399 . S
C156 C157 1.396 . S
C156 C159 1.453 . S
C156 C160 1.684 . S
C157 C147 1.723 . S
C157 C156 1.396 . S
C157 C158 1.394 . S
C158 C128 1.723 . S
C158 C154 1.397 . S
C158 C157 1.394 . S
C159 H131 0.982 . S
C159 H135 0.979 . S
C159 H136 0.977 . S
C159 C156 1.453 . S
C160 H132 0.979 . S
C160 H133 0.980 . S
C160 H134 0.983 . S
C160 C156 1.684 . S
H161 C179 0.948 . S
H162 C120 0.948 . S
H163 C138 0.979 . S
H164 C138 0.980 . S
H165 C138 0.983 . S
H166 C137 0.982 . S
H167 C137 0.979 . S
H168 C137 0.977 . S
H169 C139 0.948 . S
H170 C141 0.947 . S
H171 C142 0.948 . S
H172 C148 0.982 . S
H173 C148 0.979 . S
H174 C148 0.977 . S
H175 C149 0.979 . S
H176 C149 0.980 . S
H177 C149 0.983 . S
H178 C122 0.947 . S
C179 C122 1.392 . S
C179 C123 1.419 . S
C179 H161 0.948 . S
C180 C181 1.391 . S
C180 C184 1.391 . S
C180 H222 0.948 . S
C181 C180 1.391 . S
C181 C182 1.391 . S
C182 C181 1.391 . S
C182 H238 0.947 . S
C182 C239 1.392 . S
C183 C184 1.391 . S
C183 C187 1.397 . S
C183 C239 1.419 . S
C184 C180 1.391 . S
C184 C183 1.391 . S
C184 C185 1.399 . S
C185 C184 1.399 . S
C185 C188 1.396 . S
C185 C197 1.453 . S
C185 C198 1.684 . S
H186 C210 0.948 . S
C187 C183 1.397 . S
C187 C188 1.394 . S
C187 C206 1.723 . S
C188 C185 1.396 . S
C188 C187 1.394 . S
C188 C218 1.723 . S
H189 C212 0.947 . S
H190 C213 0.948 . S
H191 C219 0.982 . S
H192 C220 0.979 . S
H193 C220 0.980 . S
H194 C220 0.983 . S
H195 C219 0.979 . S
H196 C219 0.977 . S
C197 C185 1.453 . S
C197 H226 0.982 . S
C197 H227 0.979 . S
C197 H228 0.977 . S
C198 C185 1.684 . S
C198 H223 0.979 . S
C198 H224 0.980 . S
C198 H225 0.983 . S
C199 C200 1.391 . S
C199 C204 1.391 . S
C199 H229 0.948 . S
C200 C199 1.391 . S
C200 C201 1.391 . S
C201 C200 1.391 . S
C201 C202 1.392 . S
C201 H230 0.947 . S
C202 C201 1.392 . S
C202 C203 1.419 . S
C202 H231 0.948 . S
C203 C202 1.419 . S
C203 C204 1.391 . S
C203 C207 1.397 . S
C204 C199 1.391 . S
C204 C203 1.391 . S
C204 C205 1.399 . S
C205 C204 1.399 . S
C205 C206 1.396 . S
C205 C208 1.453 . S
C205 C209 1.684 . S
C206 C187 1.723 . S
C206 C205 1.396 . S
C206 C207 1.394 . S
C207 C203 1.397 . S
C207 C206 1.394 . S
C207 C217 1.723 . S
C208 C205 1.453 . S
C208 H232 0.982 . S
C208 H233 0.979 . S
C208 H234 0.977 . S
C209 C205 1.684 . S
C209 H235 0.979 . S
C209 H236 0.980 . S
C209 H237 0.983 . S
C210 H186 0.948 . S
C210 C211 1.391 . S
C210 C215 1.391 . S
C211 C210 1.391 . S
C211 C212 1.391 . S
C212 H189 0.947 . S
C212 C211 1.391 . S
C212 C213 1.392 . S
C213 H190 0.948 . S
C213 C212 1.392 . S
C213 C214 1.419 . S
C214 C213 1.419 . S
C214 C215 1.391 . S
C214 C218 1.397 . S
C215 C210 1.391 . S
C215 C214 1.391 . S
C215 C216 1.399 . S
C216 C215 1.399 . S
C216 C217 1.396 . S
C216 C219 1.453 . S
C216 C220 1.684 . S
C217 C207 1.723 . S
C217 C216 1.396 . S
C217 C218 1.394 . S
C218 C188 1.723 . S
C218 C214 1.397 . S
C218 C217 1.394 . S
C219 H191 0.982 . S
C219 H195 0.979 . S
C219 H196 0.977 . S
C219 C216 1.453 . S
C220 H192 0.979 . S
C220 H193 0.980 . S
C220 H194 0.983 . S
C220 C216 1.684 . S
H221 C239 0.948 . S
H222 C180 0.948 . S
H223 C198 0.979 . S
H224 C198 0.980 . S
H225 C198 0.983 . S
H226 C197 0.982 . S
H227 C197 0.979 . S
H228 C197 0.977 . S
H229 C199 0.948 . S
H230 C201 0.947 . S
H231 C202 0.948 . S
H232 C208 0.982 . S
H233 C208 0.979 . S
H234 C208 0.977 . S
H235 C209 0.979 . S
H236 C209 0.980 . S
H237 C209 0.983 . S
H238 C182 0.947 . S
C239 C182 1.392 . S
C239 C183 1.419 . S
C239 H221 0.948 . S
C240 C241 1.391 . S
C240 C244 1.391 . S
C240 H282 0.948 . S
C241 C240 1.391 . S
C241 C242 1.391 . S
C242 C241 1.391 . S
C242 H298 0.947 . S
C242 C299 1.392 . S
C243 C244 1.391 . S
C243 C247 1.397 . S
C243 C299 1.419 . S
C244 C240 1.391 . S
C244 C243 1.391 . S
C244 C245 1.399 . S
C245 C244 1.399 . S
C245 C248 1.396 . S
C245 C257 1.453 . S
C245 C258 1.684 . S
H246 C270 0.948 . S
C247 C243 1.397 . S
C247 C248 1.394 . S
C247 C266 1.723 . S
C248 C245 1.396 . S
C248 C247 1.394 . S
C248 C278 1.723 . S
H249 C272 0.947 . S
H250 C273 0.948 . S
H251 C279 0.982 . S
H252 C280 0.979 . S
H253 C280 0.980 . S
H254 C280 0.983 . S
H255 C279 0.979 . S
H256 C279 0.977 . S
C257 C245 1.453 . S
C257 H286 0.982 . S
C257 H287 0.979 . S
C257 H288 0.977 . S
C258 C245 1.684 . S
C258 H283 0.979 . S
C258 H284 0.980 . S
C258 H285 0.983 . S
C259 C260 1.391 . S
C259 C264 1.391 . S
C259 H289 0.948 . S
C260 C259 1.391 . S
C260 C261 1.391 . S
C261 C260 1.391 . S
C261 C262 1.392 . S
C261 H290 0.947 . S
C262 C261 1.392 . S
C262 C263 1.419 . S
C262 H291 0.948 . S
C263 C262 1.419 . S
C263 C264 1.391 . S
C263 C267 1.397 . S
C264 C259 1.391 . S
C264 C263 1.391 . S
C264 C265 1.399 . S
C265 C264 1.399 . S
C265 C266 1.396 . S
C265 C268 1.453 . S
C265 C269 1.684 . S
C266 C247 1.723 . S
C266 C265 1.396 . S
C266 C267 1.394 . S
C267 C263 1.397 . S
C267 C266 1.394 . S
C267 C277 1.723 . S
C268 C265 1.453 . S
C268 H292 0.982 . S
C268 H293 0.979 . S
C268 H294 0.977 . S
C269 C265 1.684 . S
C269 H295 0.979 . S
C269 H296 0.980 . S
C269 H297 0.983 . S
C270 H246 0.948 . S
C270 C271 1.391 . S
C270 C275 1.391 . S
C271 C270 1.391 . S
C271 C272 1.391 . S
C272 H249 0.947 . S
C272 C271 1.391 . S
C272 C273 1.392 . S
C273 H250 0.948 . S
C273 C272 1.392 . S
C273 C274 1.419 . S
C274 C273 1.419 . S
C274 C275 1.391 . S
C274 C278 1.397 . S
C275 C270 1.391 . S
C275 C274 1.391 . S
C275 C276 1.399 . S
C276 C275 1.399 . S
C276 C277 1.396 . S
C276 C279 1.453 . S
C276 C280 1.684 . S
C277 C267 1.723 . S
C277 C276 1.396 . S
C277 C278 1.394 . S
C278 C248 1.723 . S
C278 C274 1.397 . S
C278 C277 1.394 . S
C279 H251 0.982 . S
C279 H255 0.979 . S
C279 H256 0.977 . S
C279 C276 1.453 . S
C280 H252 0.979 . S
C280 H253 0.980 . S
C280 H254 0.983 . S
C280 C276 1.684 . S
H281 C299 0.948 . S
H282 C240 0.948 . S
H283 C258 0.979 . S
H284 C258 0.980 . S
H285 C258 0.983 . S
H286 C257 0.982 . S
H287 C257 0.979 . S
H288 C257 0.977 . S
H289 C259 0.948 . S
H290 C261 0.947 . S
H291 C262 0.948 . S
H292 C268 0.982 . S
H293 C268 0.979 . S
H294 C268 0.977 . S
H295 C269 0.979 . S
H296 C269 0.980 . S
H297 C269 0.983 . S
H298 C242 0.947 . S
C299 C242 1.392 . S
C299 C243 1.419 . S
C299 H281 0.948 . S
C300 C301 1.391 . S
C300 C304 1.391 . S
C300 H342 0.948 . S
C301 C300 1.391 . S
C301 C302 1.391 . S
C302 C301 1.391 . S
C302 H358 0.947 . S
C302 C359 1.392 . S
C303 C304 1.391 . S
C303 C307 1.397 . S
C303 C359 1.419 . S
C304 C300 1.391 . S
C304 C303 1.391 . S
C304 C305 1.399 . S
C305 C304 1.399 . S
C305 C308 1.396 . S
C305 C317 1.453 . S
C305 C318 1.684 . S
H306 C330 0.948 . S
C307 C303 1.397 . S
C307 C308 1.394 . S
C307 C326 1.723 . S
C308 C305 1.396 . S
C308 C307 1.394 . S
C308 C338 1.723 . S
H309 C332 0.947 . S
H310 C333 0.948 . S
H311 C339 0.982 . S
H312 C340 0.979 . S
H313 C340 0.980 . S
H314 C340 0.983 . S
H315 C339 0.979 . S
H316 C339 0.977 . S
C317 C305 1.453 . S
C317 H346 0.982 . S
C317 H347 0.979 . S
C317 H348 0.977 . S
C318 C305 1.684 . S
C318 H343 0.979 . S
C318 H344 0.980 . S
C318 H345 0.983 . S
C319 C320 1.391 . S
C319 C324 1.391 . S
C319 H349 0.948 . S
C320 C319 1.391 . S
C320 C321 1.391 . S
C321 C320 1.391 . S
C321 C322 1.392 . S
C321 H350 0.947 . S
C322 C321 1.392 . S
C322 C323 1.419 . S
C322 H351 0.948 . S
C323 C322 1.419 . S
C323 C324 1.391 . S
C323 C327 1.397 . S
C324 C319 1.391 . S
C324 C323 1.391 . S
C324 C325 1.399 . S
C325 C324 1.399 . S
C325 C326 1.396 . S
C325 C328 1.453 . S
C325 C329 1.684 . S
C326 C307 1.723 . S
C326 C325 1.396 . S
C326 C327 1.394 . S
C327 C323 1.397 . S
C327 C326 1.394 . S
C327 C337 1.723 . S
C328 C325 1.453 . S
C328 H352 0.982 . S
C328 H353 0.979 . S
C328 H354 0.977 . S
C329 C325 1.684 . S
C329 H355 0.979 . S
C329 H356 0.980 . S
C329 H357 0.983 . S
C330 H306 0.948 . S
C330 C331 1.391 . S
C330 C335 1.391 . S
C331 C330 1.391 . S
C331 C332 1.391 . S
C332 H309 0.947 . S
C332 C331 1.391 . S
C332 C333 1.392 . S
C333 H310 0.948 . S
C333 C332 1.392 . S
C333 C334 1.419 . S
C334 C333 1.419 . S
C334 C335 1.391 . S
C334 C338 1.397 . S
C335 C330 1.391 . S
C335 C334 1.391 . S
C335 C336 1.399 . S
C336 C335 1.399 . S
C336 C337 1.396 . S
C336 C339 1.453 . S
C336 C340 1.684 . S
C337 C327 1.723 . S
C337 C336 1.396 . S
C337 C338 1.394 . S
C338 C308 1.723 . S
C338 C334 1.397 . S
C338 C337 1.394 . S
C339 H311 0.982 . S
C339 H315 0.979 . S
C339 H316 0.977 . S
C339 C336 1.453 . S
C340 H312 0.979 . S
C340 H313 0.980 . S
C340 H314 0.983 . S
C340 C336 1.684 . S
H341 C359 0.948 . S
H342 C300 0.948 . S
H343 C318 0.979 . S
H344 C318 0.980 . S
H345 C318 0.983 . S
H346 C317 0.982 . S
H347 C317 0.979 . S
H348 C317 0.977 . S
H349 C319 0.948 . S
H350 C321 0.947 . S
H351 C322 0.948 . S
H352 C328 0.982 . S
H353 C328 0.979 . S
H354 C328 0.977 . S
H355 C329 0.979 . S
H356 C329 0.980 . S
H357 C329 0.983 . S
H358 C302 0.947 . S
C359 C302 1.392 . S
C359 C303 1.419 . S
C359 H341 0.948 . S
C360 C361 1.391 . S
C360 C364 1.391 . S
C360 H402 0.948 . S
C361 C360 1.391 . S
C361 C362 1.391 . S
C362 C361 1.391 . S
C362 H418 0.947 . S
C362 C419 1.392 . S
C363 C364 1.391 . S
C363 C367 1.397 . S
C363 C419 1.419 . S
C364 C360 1.391 . S
C364 C363 1.391 . S
C364 C365 1.399 . S
C365 C364 1.399 . S
C365 C368 1.396 . S
C365 C377 1.453 . S
C365 C378 1.684 . S
H366 C390 0.948 . S
C367 C363 1.397 . S
C367 C368 1.394 . S
C367 C386 1.723 . S
C368 C365 1.396 . S
C368 C367 1.394 . S
C368 C398 1.723 . S
H369 C392 0.947 . S
H370 C393 0.948 . S
H371 C399 0.982 . S
H372 C400 0.979 . S
H373 C400 0.980 . S
H374 C400 0.983 . S
H375 C399 0.979 . S
H376 C399 0.977 . S
C377 C365 1.453 . S
C377 H406 0.982 . S
C377 H407 0.979 . S
C377 H408 0.977 . S
C378 C365 1.684 . S
C378 H403 0.979 . S
C378 H404 0.980 . S
C378 H405 0.983 . S
C379 C380 1.391 . S
C379 C384 1.391 . S
C379 H409 0.948 . S
C380 C379 1.391 . S
C380 C381 1.391 . S
C381 C380 1.391 . S
C381 C382 1.392 . S
C381 H410 0.947 . S
C382 C381 1.392 . S
C382 C383 1.419 . S
C382 H411 0.948 . S
C383 C382 1.419 . S
C383 C384 1.391 . S
C383 C387 1.397 . S
C384 C379 1.391 . S
C384 C383 1.391 . S
C384 C385 1.399 . S
C385 C384 1.399 . S
C385 C386 1.396 . S
C385 C388 1.453 . S
C385 C389 1.684 . S
C386 C367 1.723 . S
C386 C385 1.396 . S
C386 C387 1.394 . S
C387 C383 1.397 . S
C387 C386 1.394 . S
C387 C397 1.723 . S
C388 C385 1.453 . S
C388 H412 0.982 . S
C388 H413 0.979 . S
C388 H414 0.977 . S
C389 C385 1.684 . S
C389 H415 0.979 . S
C389 H416 0.980 . S
C389 H417 0.983 . S
C390 H366 0.948 . S
C390 C391 1.391 . S
C390 C395 1.391 . S
C391 C390 1.391 . S
C391 C392 1.391 . S
C392 H369 0.947 . S
C392 C391 1.391 . S
C392 C393 1.392 . S
C393 H370 0.948 . S
C393 C392 1.392 . S
C393 C394 1.419 . S
C394 C393 1.419 . S
C394 C395 1.391 . S
C394 C398 1.397 . S
C395 C390 1.391 . S
C395 C394 1.391 . S
C395 C396 1.399 . S
C396 C395 1.399 . S
C396 C397 1.396 . S
C396 C399 1.453 . S
C396 C400 1.684 . S
C397 C387 1.723 . S
C397 C396 1.396 . S
C397 C398 1.394 . S
C398 C368 1.723 . S
C398 C394 1.397 . S
C398 C397 1.394 . S
C399 H371 0.982 . S
C399 H375 0.979 . S
C399 H376 0.977 . S
C399 C396 1.453 . S
C400 H372 0.979 . S
C400 H373 0.980 . S
C400 H374 0.983 . S
C400 C396 1.684 . S
H401 C419 0.948 . S
H402 C360 0.948 . S
H403 C378 0.979 . S
H404 C378 0.980 . S
H405 C378 0.983 . S
H406 C377 0.982 . S
H407 C377 0.979 . S
H408 C377 0.977 . S
H409 C379 0.948 . S
H410 C381 0.947 . S
H411 C382 0.948 . S
H412 C388 0.982 . S
H413 C388 0.979 . S
H414 C388 0.977 . S
H415 C389 0.979 . S
H416 C389 0.980 . S
H417 C389 0.983 . S
H418 C362 0.947 . S
C419 C362 1.392 . S
C419 C363 1.419 . S
C419 H401 0.948 . S
C420 C421 1.391 . S
C420 C424 1.391 . S
C420 H462 0.948 . S
C421 C420 1.391 . S
C421 C422 1.391 . S
C422 C421 1.391 . S
C422 H478 0.947 . S
C422 C479 1.392 . S
C423 C424 1.391 . S
C423 C427 1.397 . S
C423 C479 1.419 . S
C424 C420 1.391 . S
C424 C423 1.391 . S
C424 C425 1.399 . S
C425 C424 1.399 . S
C425 C428 1.396 . S
C425 C437 1.453 . S
C425 C438 1.684 . S
H426 C450 0.948 . S
C427 C423 1.397 . S
C427 C428 1.394 . S
C427 C446 1.723 . S
C428 C425 1.396 . S
C428 C427 1.394 . S
C428 C458 1.723 . S
H429 C452 0.947 . S
H430 C453 0.948 . S
H431 C459 0.982 . S
H432 C460 0.979 . S
H433 C460 0.980 . S
H434 C460 0.983 . S
H435 C459 0.979 . S
H436 C459 0.977 . S
C437 C425 1.453 . S
C437 H466 0.982 . S
C437 H467 0.979 . S
C437 H468 0.977 . S
C438 C425 1.684 . S
C438 H463 0.979 . S
C438 H464 0.980 . S
C438 H465 0.983 . S
C439 C440 1.391 . S
C439 C444 1.391 . S
C439 H469 0.948 . S
C440 C439 1.391 . S
C440 C441 1.391 . S
C441 C440 1.391 . S
C441 C442 1.392 . S
C441 H470 0.947 . S
C442 C441 1.392 . S
C442 C443 1.419 . S
C442 H471 0.948 . S
C443 C442 1.419 . S
C443 C444 1.391 . S
C443 C447 1.397 . S
C444 C439 1.391 . S
C444 C443 1.391 . S
C444 C445 1.399 . S
C445 C444 1.399 . S
C445 C446 1.396 . S
C445 C448 1.453 . S
C445 C449 1.684 . S
C446 C427 1.723 . S
C446 C445 1.396 . S
C446 C447 1.394 . S
C447 C443 1.397 . S
C447 C446 1.394 . S
C447 C457 1.723 . S
C448 C445 1.453 . S
C448 H472 0.982 . S
C448 H473 0.979 . S
C448 H474 0.977 . S
C449 C445 1.684 . S
C449 H475 0.979 . S
C449 H476 0.980 . S
C449 H477 0.983 . S
C450 H426 0.948 . S
C450 C451 1.391 . S
C450 C455 1.391 . S
C451 C450 1.391 . S
C451 C452 1.391 . S
C452 H429 0.947 . S
C452 C451 1.391 . S
C452 C453 1.392 . S
C453 H430 0.948 . S
C453 C452 1.392 . S
C453 C454 1.419 . S
C454 C453 1.419 . S
C454 C455 1.391 . S
C454 C458 1.397 . S
C455 C450 1.391 . S
C455 C454 1.391 . S
C455 C456 1.399 . S
C456 C455 1.399 . S
C456 C457 1.396 . S
C456 C459 1.453 . S
C456 C460 1.684 . S
C457 C447 1.723 . S
C457 C456 1.396 . S
C457 C458 1.394 . S
C458 C428 1.723 . S
C458 C454 1.397 . S
C458 C457 1.394 . S
C459 H431 0.982 . S
C459 H435 0.979 . S
C459 H436 0.977 . S
C459 C456 1.453 . S
C460 H432 0.979 . S
C460 H433 0.980 . S
C460 H434 0.983 . S
C460 C456 1.684 . S
H461 C479 0.948 . S
H462 C420 0.948 . S
H463 C438 0.979 . S
H464 C438 0.980 . S
H465 C438 0.983 . S
H466 C437 0.982 . S
H467 C437 0.979 . S
H468 C437 0.977 . S
H469 C439 0.948 . S
H470 C441 0.947 . S
H471 C442 0.948 . S
H472 C448 0.982 . S
H473 C448 0.979 . S
H474 C448 0.977 . S
H475 C449 0.979 . S
H476 C449 0.980 . S
H477 C449 0.983 . S
H478 C422 0.947 . S
C479 C422 1.392 . S
C479 C423 1.419 . S
C479 H461 0.948 . S
C480 O482 1.247 . S
C480 O484 1.258 . S
C481 O488 1.247 . S
C481 O489 1.258 . S
O482 C480 1.247 . S
O482 Zn483 2.031 . S
Zn483 O482 2.031 . S
Zn483 O487 2.032 1_655 S
Zn483 O489 2.032 1_655 S
Zn483 O490 2.031 . S
O484 C480 1.258 . S
O484 Zn485 2.028 1_655 S
Zn485 O484 2.028 1_455 S
Zn485 O486 2.035 . S
Zn485 O488 2.035 . S
Zn485 O491 2.028 1_455 S
O486 Zn485 2.035 . S
O486 C492 1.247 . S
O487 Zn483 2.032 1_455 S
O487 C492 1.258 . S
O488 C481 1.247 . S
O488 Zn485 2.035 . S
O489 C481 1.258 . S
O489 Zn483 2.032 1_455 S
O490 Zn483 2.031 . S
O490 C493 1.247 . S
O491 Zn485 2.028 1_655 S
O491 C493 1.258 . S
C492 O486 1.247 . S
C492 O487 1.258 . S
C493 O490 1.247 . S
C493 O491 1.258 . S
C494 O496 1.247 . S
C494 O498 1.258 . S
C495 O502 1.247 . S
C495 O503 1.258 . S
O496 C494 1.247 . S
O496 Zn497 2.031 . S
Zn497 O496 2.031 . S
Zn497 O501 2.032 1_655 S
Zn497 O503 2.032 1_655 S
Zn497 O504 2.031 . S
O498 C494 1.258 . S
O498 Zn499 2.028 1_655 S
Zn499 O498 2.028 1_455 S
Zn499 O500 2.035 . S
Zn499 O502 2.035 . S
Zn499 O505 2.028 1_455 S
O500 Zn499 2.035 . S
O500 C506 1.247 . S
O501 Zn497 2.032 1_455 S
O501 C506 1.258 . S
O502 C495 1.247 . S
O502 Zn499 2.035 . S
O503 C495 1.258 . S
O503 Zn497 2.032 1_455 S
O504 Zn497 2.031 . S
O504 C507 1.247 . S
O505 Zn499 2.028 1_655 S
O505 C507 1.258 . S
C506 O500 1.247 . S
C506 O501 1.258 . S
C507 O504 1.247 . S
C507 O505 1.258 . S
C508 O510 1.247 . S
C508 O512 1.258 . S
C509 O516 1.247 . S
C509 O517 1.258 . S
O510 C508 1.247 . S
O510 Zn511 2.031 . S
Zn511 O510 2.031 . S
Zn511 O515 2.032 1_565 S
Zn511 O517 2.032 1_565 S
Zn511 O518 2.031 . S
O512 C508 1.258 . S
O512 Zn513 2.028 1_565 S
Zn513 O512 2.028 1_545 S
Zn513 O514 2.035 . S
Zn513 O516 2.035 . S
Zn513 O519 2.028 1_545 S
O514 Zn513 2.035 . S
O514 C520 1.247 . S
O515 Zn511 2.032 1_545 S
O515 C520 1.258 . S
O516 C509 1.247 . S
O516 Zn513 2.035 . S
O517 C509 1.258 . S
O517 Zn511 2.032 1_545 S
O518 Zn511 2.031 . S
O518 C521 1.247 . S
O519 Zn513 2.028 1_565 S
O519 C521 1.258 . S
C520 O514 1.247 . S
C520 O515 1.258 . S
C521 O518 1.247 . S
C521 O519 1.258 . S
C522 O524 1.247 . S
C522 O526 1.258 . S
C523 O530 1.247 . S
C523 O531 1.258 . S
O524 C522 1.247 . S
O524 Zn525 2.028 . S
Zn525 O524 2.028 . S
Zn525 O529 2.035 . S
Zn525 O531 2.035 1_554 S
Zn525 O532 2.028 1_554 S
O526 C522 1.258 . S
O526 Zn527 2.035 . S
Zn527 O526 2.035 . S
Zn527 O528 2.028 . S
Zn527 O530 2.028 1_554 S
Zn527 O533 2.035 1_554 S
O528 Zn527 2.028 . S
O528 C534 1.247 . S
O529 Zn525 2.035 . S
O529 C534 1.258 . S
O530 C523 1.247 . S
O530 Zn527 2.028 1_556 S
O531 C523 1.258 . S
O531 Zn525 2.035 1_556 S
O532 Zn525 2.028 1_556 S
O532 C535 1.247 . S
O533 Zn527 2.035 1_556 S
O533 C535 1.258 . S
C534 O528 1.247 . S
C534 O529 1.258 . S
C535 O532 1.247 . S
C535 O533 1.258 . S
C536 O538 1.247 . S
C536 O540 1.258 . S
C537 O544 1.247 . S
C537 O545 1.258 . S
O538 C536 1.247 . S
O538 Zn539 2.031 . S
Zn539 O538 2.031 . S
Zn539 O543 2.032 1_565 S
Zn539 O545 2.032 1_565 S
Zn539 O546 2.031 . S
O540 C536 1.258 . S
O540 Zn541 2.028 1_565 S
Zn541 O540 2.028 1_545 S
Zn541 O542 2.035 . S
Zn541 O544 2.035 . S
Zn541 O547 2.028 1_545 S
O542 Zn541 2.035 . S
O542 C548 1.247 . S
O543 Zn539 2.032 1_545 S
O543 C548 1.258 . S
O544 C537 1.247 . S
O544 Zn541 2.035 . S
O545 C537 1.258 . S
O545 Zn539 2.032 1_545 S
O546 Zn539 2.031 . S
O546 C549 1.247 . S
O547 Zn541 2.028 1_565 S
O547 C549 1.258 . S
C548 O542 1.247 . S
C548 O543 1.258 . S
C549 O546 1.247 . S
C549 O547 1.258 . S
C550 O552 1.247 . S
C550 O554 1.258 . S
C551 O558 1.247 . S
C551 O559 1.258 . S
O552 C550 1.247 . S
O552 Zn553 2.028 . S
Zn553 O552 2.028 . S
Zn553 O557 2.035 . S
Zn553 O559 2.035 1_554 S
Zn553 O560 2.028 1_554 S
O554 C550 1.258 . S
O554 Zn555 2.035 . S
Zn555 O554 2.035 . S
Zn555 O556 2.028 . S
Zn555 O558 2.028 1_554 S
Zn555 O561 2.035 1_554 S
O556 Zn555 2.028 . S
O556 C562 1.247 . S
O557 Zn553 2.035 . S
O557 C562 1.258 . S
O558 C551 1.247 . S
O558 Zn555 2.028 1_556 S
O559 C551 1.258 . S
O559 Zn553 2.035 1_556 S
O560 Zn553 2.028 1_556 S
O560 C563 1.247 . S
O561 Zn555 2.035 1_556 S
O561 C563 1.258 . S
C562 O556 1.247 . S
C562 O557 1.258 . S
C563 O560 1.247 . S
C563 O561 1.258 . S
C492 C31 1.540 . S
C495 C61 1.536 . S
C493 C121 1.471 . S
C494 C211 1.471 . S
C509 C1 1.526 . S
C523 C91 1.479 . S
C151 C549 1.468 . S
C563 C181 1.493 . S
C508 C80 1.531 . S
C140 C522 1.493 . S
C548 C200 1.466 . S
C562 C20 1.476 . S
C271 C507 1.540 . S
C480 C331 1.484 . S
C380 C506 1.524 . S
C421 C481 1.525 . S
C536 C241 1.528 . S
C550 C320 1.471 . S
C520 C361 1.515 . S
C440 C534 1.497 . S
C537 C301 1.480 . S
C551 C391 1.501 . S
C521 C451 1.517 . S
C260 C535 1.478 . S
