# Generated by pormake.
# Topology anh, (6,3)-cn, num edge types: 1
# Building blocks:
#     Node 0, Type 0, BuildingBlock: CUKXOW_clean_sbu_0, # of connection points: 6
#     Node 1, Type 0, BuildingBlock: CUKXOW_clean_sbu_0, # of connection points: 6
#     Node 2, Type 0, BuildingBlock: CUKXOW_clean_sbu_0, # of connection points: 6
#     Node 3, Type 1, BuildingBlock: QEWDON_clean_linker_0, # of connection points: 3
#     Node 4, Type 1, BuildingBlock: QEWDON_clean_linker_0, # of connection points: 3
#     Node 5, Type 1, BuildingBlock: QEWDON_clean_linker_0, # of connection points: 3
#     Node 6, Type 1, BuildingBlock: QEWDON_clean_linker_0, # of connection points: 3
#     Node 7, Type 1, BuildingBlock: QEWDON_clean_linker_0, # of connection points: 3
#     Node 8, Type 1, BuildingBlock: QEWDON_clean_linker_0, # of connection points: 3
#     Edge 9, Type (0, 1), BuildingBlock: ZUJKAS_clean_linker_0, # of connection points: 2
#     Edge 10, Type (0, 1), BuildingBlock: ZUJKAS_clean_linker_0, # of connection points: 2
#     Edge 11, Type (0, 1), BuildingBlock: ZUJKAS_clean_linker_0, # of connection points: 2
#     Edge 12, Type (0, 1), BuildingBlock: ZUJKAS_clean_linker_0, # of connection points: 2
#     Edge 13, Type (0, 1), BuildingBlock: ZUJKAS_clean_linker_0, # of connection points: 2
#     Edge 14, Type (0, 1), BuildingBlock: ZUJKAS_clean_linker_0, # of connection points: 2
#     Edge 15, Type (0, 1), BuildingBlock: ZUJKAS_clean_linker_0, # of connection points: 2
#     Edge 16, Type (0, 1), BuildingBlock: ZUJKAS_clean_linker_0, # of connection points: 2
#     Edge 17, Type (0, 1), BuildingBlock: ZUJKAS_clean_linker_0, # of connection points: 2
#     Edge 18, Type (0, 1), BuildingBlock: ZUJKAS_clean_linker_0, # of connection points: 2
#     Edge 19, Type (0, 1), BuildingBlock: ZUJKAS_clean_linker_0, # of connection points: 2
#     Edge 20, Type (0, 1), BuildingBlock: ZUJKAS_clean_linker_0, # of connection points: 2
#     Edge 21, Type (0, 1), BuildingBlock: ZUJKAS_clean_linker_0, # of connection points: 2
#     Edge 22, Type (0, 1), BuildingBlock: ZUJKAS_clean_linker_0, # of connection points: 2
#     Edge 23, Type (0, 1), BuildingBlock: ZUJKAS_clean_linker_0, # of connection points: 2
#     Edge 24, Type (0, 1), BuildingBlock: ZUJKAS_clean_linker_0, # of connection points: 2
#     Edge 25, Type (0, 1), BuildingBlock: ZUJKAS_clean_linker_0, # of connection points: 2
#     Edge 26, Type (0, 1), BuildingBlock: ZUJKAS_clean_linker_0, # of connection points: 2
# Relax obj value: 0.060
# Max RMSD: 0.135
# Mean RMSD: 0.113
data_MOF--net-anh--node1-CUKXOW_clean_sbu_0--node2-QEWDON_clean_linker_0--edge1-ZUJKAS_clean_linker_0
_symmetry_space_group_name_H-M    P1
_symmetry_Int_Tables_number       1
_symmetry_cell_setting            triclinic
loop_
_symmetry_equiv_pos_as_xyz
'x, y, z'
_cell_length_a     39.71751
_cell_length_b     38.572058
_cell_length_c     61.914071
_cell_angle_alpha  99.544428
_cell_angle_beta   94.097827
_cell_angle_gamma 115.38083
loop_
_atom_site_label
_atom_site_type_symbol
_atom_site_fract_x
_atom_site_fract_y
_atom_site_fract_z
_atom_type_partial_charge
Tb0 Tb 0.08697 0.58209 0.16282 0.0
C1 C 0.06162 0.54017 0.20136 0.0
Tb2 Tb 0.03355 0.49234 0.15139 0.0
O3 O 0.04252 0.59501 0.17575 0.0
O4 O 0.02782 0.54507 0.15123 0.0
O5 O 0.08989 0.56881 0.19533 0.0
C6 C 0.97038 0.42514 0.14615 0.0
O7 O 0.03359 0.5113 0.18671 0.0
C8 C 0.10599 0.50556 0.15476 0.0
C9 C 0.0638 0.53333 0.11243 0.0
O10 O 0.99873 0.43855 0.16209 0.0
O11 O 0.97795 0.44918 0.13278 0.0
O12 O 0.07724 0.4708 0.14941 0.0
O13 O 0.09185 0.52939 0.15783 0.0
O14 O 0.03833 0.50137 0.1178 0.0
O15 O 0.08681 0.56583 0.12731 0.0
C16 C 0.14484 0.65293 0.16687 0.0
O17 O 0.11163 0.64085 0.15545 0.0
O18 O 0.14517 0.62538 0.17626 0.0
C19 C 1.0144 0.56294 0.16433 0.0
Tb20 Tb 0.54847 0.04699 0.49523 0.0
C21 C 0.58657 0.07136 0.45411 0.0
Tb22 Tb 0.62971 0.1101 0.50424 0.0
O23 O 0.53003 0.08745 0.48357 0.0
O24 O 0.57684 0.10865 0.50844 0.0
O25 O 0.5576 0.04451 0.4609 0.0
C26 C 0.68803 0.17966 0.50584 0.0
O27 O 0.61633 0.09957 0.46808 0.0
C28 C 0.62181 0.03869 0.50307 0.0
C29 C 0.59344 0.08167 0.54453 0.0
O30 O 0.65284 0.17049 0.49985 0.0
O31 O 0.69068 0.14955 0.51105 0.0
O32 O 0.65091 0.07022 0.5142 0.0
O33 O 0.6015 0.04854 0.49135 0.0
O34 O 0.61834 0.11252 0.53807 0.0
O35 O 0.56673 0.05082 0.53017 0.0
C36 C 0.48282 0.98458 0.49385 0.0
O37 O 0.49086 0.02072 0.50251 0.0
O38 O 0.51169 0.98347 0.48577 0.0
C39 C 0.55769 0.11866 0.49594 0.0
Tb40 Tb 0.54467 0.55366 0.82882 0.0
C41 C 0.5882 0.56524 0.87711 0.0
Tb42 Tb 0.62924 0.56588 0.83457 0.0
O43 O 0.52411 0.49028 0.81477 0.0
O44 O 0.57488 0.52238 0.83618 0.0
O45 O 0.55762 0.56226 0.86488 0.0
C46 C 0.68135 0.5405 0.83202 0.0
O47 O 0.61798 0.56468 0.86861 0.0
C48 C 0.62436 0.63224 0.83413 0.0
C49 C 0.58754 0.56158 0.78768 0.0
O50 O 0.68484 0.57124 0.84629 0.0
O51 O 0.64898 0.52473 0.81911 0.0
O52 O 0.6566 0.63086 0.83735 0.0
O53 O 0.5993 0.59761 0.83158 0.0
O54 O 0.61373 0.55518 0.79856 0.0
O55 O 0.56085 0.56725 0.79725 0.0
C56 C 0.48596 0.56918 0.83146 0.0
O57 O 0.48581 0.53964 0.81779 0.0
O58 O 0.51878 0.58933 0.8438 0.0
C59 C 0.55461 0.48961 0.82345 0.0
H60 H 0.57319 0.10798 0.21482 0.0
C61 C 0.54902 0.07983 0.20801 0.0
C62 C 0.53594 0.05181 0.22119 0.0
C63 C 0.53022 0.07211 0.18632 0.0
H64 H 0.49281 0.99502 0.22292 0.0
C65 C 0.50403 0.01587 0.21242 0.0
C66 C 0.48491 1.00756 0.19086 0.0
C67 C 0.49828 0.0358 0.17787 0.0
C68 C 0.54247 0.1027 0.17291 0.0
H69 H 0.48379 0.02953 0.16114 0.0
C70 C 0.5809 0.12441 0.17147 0.0
C71 C 0.59223 0.15351 0.15877 0.0
C72 C 0.51545 0.11055 0.16159 0.0
H73 H 0.48577 0.09474 0.16264 0.0
C74 C 0.52648 0.13944 0.14915 0.0
H75 H 0.60178 0.11796 0.17981 0.0
C76 C 0.5645 0.16083 0.14775 0.0
H77 H 0.57219 0.18356 0.13828 0.0
H78 H 0.50546 0.14548 0.14066 0.0
H79 H 0.57484 0.60523 0.54918 0.0
C80 C 0.57743 0.57868 0.54295 0.0
C81 C 0.58917 0.56114 0.55809 0.0
C82 C 0.56794 0.56139 0.52006 0.0
H83 H 0.59887 0.51175 0.56218 0.0
C84 C 0.59068 0.52568 0.55036 0.0
C85 C 0.57999 0.50685 0.52787 0.0
C86 C 0.5698 0.52548 0.51269 0.0
C87 C 0.55354 0.57924 0.50416 0.0
H88 H 0.56222 0.5113 0.49525 0.0
C89 C 0.56694 0.62052 0.50722 0.0
C90 C 0.55242 0.63668 0.49229 0.0
C91 C 0.52509 0.55469 0.48602 0.0
H92 H 0.51302 0.523 0.48343 0.0
C93 C 0.51092 0.57056 0.4712 0.0
H94 H 0.58904 0.64014 0.52091 0.0
C95 C 0.52441 0.61111 0.47424 0.0
H96 H 0.51227 0.62247 0.46267 0.0
H97 H 0.48896 0.55123 0.45739 0.0
H98 H 0.12268 0.61346 0.88722 0.0
C99 C 0.09478 0.59579 0.87752 0.0
C100 C 0.06712 0.56645 0.886 0.0
C101 C 0.08634 0.60308 0.85679 0.0
H102 H 1.00888 0.52316 0.88032 0.0
C103 C 0.03096 0.54422 0.87336 0.0
C104 C 0.02217 0.55103 0.85259 0.0
C105 C 0.05018 0.58026 0.84435 0.0
C106 C 0.11516 0.63458 0.84806 0.0
H107 H 0.04379 0.58541 0.82821 0.0
C108 C 0.15171 0.63779 0.84864 0.0
C109 C 0.17889 0.6662 0.83945 0.0
C110 C 0.10606 0.66069 0.83845 0.0
H111 H 0.07809 0.65905 0.83794 0.0
C112 C 0.13313 0.68925 0.82945 0.0
H113 H 0.15855 0.61701 0.85545 0.0
C114 C 0.16936 0.69188 0.82977 0.0
H115 H 0.1899 0.71393 0.82254 0.0
H116 H 0.12591 0.70921 0.82206 0.0
H117 H 1.01753 0.57585 0.44362 0.0
C118 C 0.04635 0.5976 0.4501 0.0
C119 C 0.07363 0.60605 0.43593 0.0
C120 C 0.05603 0.61782 0.47247 0.0
H121 H 0.13142 0.64277 0.43331 0.0
C122 C 0.1107 0.63483 0.44438 0.0
C123 C 0.12083 0.65528 0.46659 0.0
C124 C 0.09339 0.6465 0.48056 0.0
C125 C 0.02719 0.60991 0.4874 0.0
H126 H 0.10122 0.66192 0.49781 0.0
C127 C 1.00156 0.57112 0.48771 0.0
C128 C 0.97535 0.56378 0.50257 0.0
C129 C 0.02573 0.64132 0.50184 0.0
H130 H 0.04471 0.67149 0.50174 0.0
C131 C 0.99957 0.63417 0.51644 0.0
H132 H 1.00282 0.54666 0.47692 0.0
C133 C 0.97462 0.59568 0.51691 0.0
H134 H 0.95441 0.59085 0.52831 0.0
H135 H 0.99863 0.65856 0.52744 0.0
H136 H 0.58328 0.02873 0.7802 0.0
C137 C 0.58742 0.05793 0.78785 0.0
C138 C 0.60014 0.08768 0.77576 0.0
C139 C 0.57858 0.06532 0.80926 0.0
H140 H 0.61196 0.14745 0.77538 0.0
C141 C 0.60399 0.1251 0.78516 0.0
C142 C 0.59484 0.13327 0.80622 0.0
C143 C 0.58249 0.10337 0.8183 0.0
C144 C 0.56234 0.03253 0.82128 0.0
H145 H 0.57579 0.10987 0.83467 0.0
C146 C 0.57365 1.00202 0.81946 0.0
C147 C 0.55588 0.96989 0.8296 0.0
C148 C 0.53361 0.03051 0.83383 0.0
H149 H 0.52334 0.05251 0.8352 0.0
C150 C 0.51672 0.99937 0.84428 0.0
H151 H 0.59569 1.00282 0.80993 0.0
C152 C 0.52758 0.96925 0.84215 0.0
H153 H 0.51382 0.94536 0.8504 0.0
H154 H 0.49467 0.99828 0.85387 0.0
H155 H 0.55082 0.55703 0.11555 0.0
C156 C 0.5739 0.55146 0.12154 0.0
C157 C 0.59909 0.54975 0.10707 0.0
C158 C 0.57971 0.54866 0.14379 0.0
H159 H 0.64973 0.54357 0.10336 0.0
C160 C 0.63037 0.54457 0.11466 0.0
C161 C 0.63759 0.54141 0.13657 0.0
C162 C 0.61205 0.54348 0.15111 0.0
C163 C 0.55392 0.55464 0.1595 0.0
H164 H 0.61737 0.54061 0.16794 0.0
C165 C 0.5156 0.54667 0.15223 0.0
C166 C 0.49393 0.55678 0.1672 0.0
C167 C 0.5688 0.57157 0.18212 0.0
H168 H 0.59776 0.57946 0.18856 0.0
C169 C 0.54721 0.58031 0.19688 0.0
H170 H 0.5028 0.53348 0.13505 0.0
C171 C 0.51044 0.57331 0.18954 0.0
H172 H 0.49476 0.58103 0.20147 0.0
H173 H 0.55941 0.59343 0.21416 0.0
H174 H 0.1331 0.4517 0.14593 0.0
H175 H 0.19833 0.4621 0.14599 0.0
H176 H 0.2369 0.58742 0.16344 0.0
H177 H 0.17124 0.57693 0.16341 0.0
H178 H 0.25233 0.50026 0.12127 0.0
H179 H 0.30386 0.57238 0.21033 0.0
H180 H 0.25426 0.54686 0.19892 0.0
H181 H 0.28259 0.59558 0.19504 0.0
C182 C 0.15539 0.48159 0.14985 0.0
C183 C 0.1466 0.51348 0.15487 0.0
C184 C 0.19291 0.4875 0.14983 0.0
C185 C 0.22317 0.52555 0.15502 0.0
C186 C 0.21449 0.55763 0.15981 0.0
H187 H 0.4695 0.61337 0.17336 0.0
H188 H 0.40481 0.60556 0.16868 0.0
C189 C 0.17675 0.55167 0.15973 0.0
C190 C 0.26337 0.53114 0.15526 0.0
H191 H 0.34925 0.56879 0.18868 0.0
C192 C 0.27348 0.51527 0.13605 0.0
C193 C 0.29143 0.55066 0.17443 0.0
C194 C 0.28258 0.56708 0.19593 0.0
C195 C 0.31046 0.51895 0.13536 0.0
C196 C 0.33849 0.53815 0.15462 0.0
C197 C 0.32829 0.55405 0.17381 0.0
C198 C 0.37854 0.54278 0.15535 0.0
C199 C 0.31927 0.50312 0.11368 0.0
C200 C 0.38644 0.51041 0.14906 0.0
C201 C 0.42395 0.51504 0.15141 0.0
C202 C 0.45464 0.55207 0.16043 0.0
C203 C 0.44671 0.58443 0.16621 0.0
C204 C 0.40948 0.57991 0.16368 0.0
H205 H 0.29944 0.5009 0.09933 0.0
H206 H 0.34853 0.52197 0.1114 0.0
H207 H 0.31629 0.47314 0.11355 0.0
H208 H 0.36353 0.48116 0.14312 0.0
H209 H 0.42877 0.48932 0.14723 0.0
H210 H 0.68352 0.24084 0.49214 0.0
H211 H 0.73516 0.3047 0.49187 0.0
H212 H 0.81499 0.26995 0.52053 0.0
H213 H 0.76323 0.20527 0.52022 0.0
H214 H 0.78388 0.3609 0.52585 0.0
H215 H 0.86232 0.3098 0.46829 0.0
H216 H 0.81513 0.27808 0.47205 0.0
H217 H 0.855 0.28806 0.4921 0.0
C218 C 0.71212 0.24673 0.49826 0.0
C219 C 0.71953 0.21814 0.50608 0.0
C220 C 0.74158 0.28323 0.49812 0.0
C221 C 0.779 0.29191 0.50586 0.0
C222 C 0.78644 0.26355 0.51399 0.0
H223 H 0.95853 0.53258 0.53912 0.0
H224 H 0.91245 0.46618 0.5404 0.0
C225 C 0.75689 0.22678 0.51396 0.0
C226 C 0.80983 0.33112 0.50586 0.0
H227 H 0.89155 0.37762 0.48559 0.0
C228 C 0.80745 0.36456 0.51706 0.0
C229 C 0.84026 0.33582 0.49413 0.0
C230 C 0.84327 0.30108 0.48078 0.0
C231 C 0.83458 0.40257 0.51683 0.0
C232 C 0.86556 0.4073 0.5056 0.0
C233 C 0.86797 0.37389 0.49437 0.0
C234 C 0.89515 0.44673 0.50481 0.0
C235 C 0.82912 0.43723 0.52806 0.0
C236 C 0.90183 0.45731 0.48433 0.0
C237 C 0.92845 0.49511 0.48354 0.0
C238 C 0.94874 0.52297 0.50325 0.0
C239 C 0.94276 0.51192 0.5237 0.0
C240 C 0.91642 0.47405 0.52445 0.0
H241 H 0.79931 0.42847 0.53041 0.0
H242 H 0.84693 0.44989 0.54468 0.0
H243 H 0.83753 0.46052 0.51832 0.0
H244 H 0.88583 0.4366 0.46896 0.0
H245 H 0.9324 0.50288 0.46756 0.0
H246 H 0.67731 0.70904 0.84519 0.0
H247 H 0.66797 0.76763 0.8437 0.0
H248 H 0.54964 0.69372 0.81904 0.0
H249 H 0.55901 0.63531 0.82023 0.0
H250 H 0.63908 0.78807 0.80686 0.0
H251 H 0.54917 0.77226 0.87275 0.0
H252 H 0.57748 0.74622 0.86879 0.0
H253 H 0.53331 0.72917 0.85089 0.0
C254 C 0.64929 0.70537 0.83955 0.0
C255 C 0.61868 0.66761 0.83333 0.0
C256 C 0.644 0.73884 0.83867 0.0
C257 C 0.60797 0.73519 0.83164 0.0
C258 C 0.57752 0.6974 0.82503 0.0
H259 H 0.50753 0.89163 0.81879 0.0
H260 H 0.52226 0.83622 0.81828 0.0
C261 C 0.58285 0.66398 0.82583 0.0
C262 C 0.60222 0.77078 0.831 0.0
H263 H 0.55424 0.82043 0.8522 0.0
C264 C 0.62071 0.79534 0.81685 0.0
C265 C 0.57821 0.78021 0.84403 0.0
C266 C 0.55862 0.75583 0.86013 0.0
C267 C 0.61497 0.82838 0.81489 0.0
C268 C 0.59076 0.83772 0.82784 0.0
C269 C 0.57271 0.81336 0.8422 0.0
C270 C 0.58275 0.87187 0.82647 0.0
C271 C 0.63389 0.85212 0.7984 0.0
C272 C 0.61182 0.91064 0.83094 0.0
C273 C 0.60342 0.94255 0.83105 0.0
C274 C 0.56573 0.93633 0.82707 0.0
C275 C 0.53684 0.89747 0.82214 0.0
C276 C 0.54523 0.86572 0.82184 0.0
H277 H 0.64255 0.83512 0.78561 0.0
H278 H 0.61495 0.86185 0.78993 0.0
H279 H 0.65967 0.87863 0.80726 0.0
H280 H 0.64096 0.91639 0.83504 0.0
H281 H 0.62625 0.97213 0.83514 0.0
H282 H 0.9853 0.60301 0.19111 0.0
H283 H 0.92061 0.5952 0.18843 0.0
H284 H 0.88658 0.49989 0.13135 0.0
H285 H 0.95152 0.50728 0.13429 0.0
H286 H 0.87856 0.60484 0.15717 0.0
H287 H 0.80289 0.45051 0.16548 0.0
H288 H 0.85369 0.4775 0.17123 0.0
H289 H 0.8297 0.45588 0.14308 0.0
C290 C 0.96401 0.58004 0.17809 0.0
C291 C 0.97386 0.55569 0.16298 0.0
C292 C 0.92681 0.57564 0.17653 0.0
C293 C 0.89794 0.54661 0.15985 0.0
C294 C 0.90767 0.52197 0.14476 0.0
H295 H 0.66312 0.49161 0.11485 0.0
H296 H 0.72505 0.49287 0.1218 0.0
C297 C 0.94504 0.52632 0.14636 0.0
C298 C 0.85848 0.54368 0.15788 0.0
H299 H 0.76476 0.48046 0.15489 0.0
C300 C 0.8538 0.57761 0.15685 0.0
C301 C 0.82564 0.5083 0.1574 0.0
C302 C 0.82813 0.47106 0.15957 0.0
C303 C 0.81782 0.57706 0.15488 0.0
C304 C 0.78497 0.5417 0.15433 0.0
C305 C 0.7896 0.50773 0.15539 0.0
C306 C 0.74564 0.53899 0.15153 0.0
C307 C 0.81532 0.61428 0.15263 0.0
C308 C 0.73522 0.56335 0.16633 0.0
C309 C 0.69935 0.56259 0.16239 0.0
C310 C 0.67286 0.53744 0.14352 0.0
C311 C 0.68272 0.51167 0.12946 0.0
C312 C 0.71834 0.51234 0.13343 0.0
H313 H 0.84124 0.63561 0.14766 0.0
H314 H 0.79068 0.60783 0.14019 0.0
H315 H 0.81186 0.62853 0.16885 0.0
H316 H 0.7551 0.5836 0.18077 0.0
H317 H 0.69305 0.58298 0.17356 0.0
H318 H 0.46226 0.90748 0.47586 0.0
H319 H 0.40108 0.85104 0.47456 0.0
H320 H 0.36126 0.92842 0.51007 0.0
H321 H 0.422 0.98485 0.51113 0.0
H322 H 0.36239 0.82334 0.5098 0.0
H323 H 0.28155 0.86993 0.45403 0.0
H324 H 0.33241 0.89097 0.45809 0.0
H325 H 0.30898 0.90641 0.47863 0.0
C326 C 0.44037 0.91235 0.48334 0.0
C327 C 0.44658 0.95043 0.49341 0.0
C328 C 0.40558 0.88017 0.48265 0.0
C329 C 0.37656 0.88571 0.49194 0.0
C330 C 0.38308 0.92366 0.50244 0.0
H331 H 0.14126 0.7285 0.49185 0.0
H332 H 0.20442 0.78407 0.50108 0.0
C333 C 0.41778 0.95579 0.5031 0.0
C334 C 0.33928 0.85189 0.49045 0.0
H335 H 0.24619 0.81491 0.46879 0.0
C336 C 0.33695 0.8214 0.50082 0.0
C337 C 0.30621 0.8496 0.47877 0.0
C338 C 0.30728 0.88076 0.46656 0.0
C339 C 0.30222 0.78871 0.49997 0.0
C340 C 0.26922 0.78634 0.48817 0.0
C341 C 0.27155 0.81699 0.47796 0.0
C342 C 0.23213 0.75156 0.48519 0.0
C343 C 0.30106 0.75725 0.51191 0.0
C344 C 0.22695 0.7148 0.47346 0.0
C345 C 0.191 0.68301 0.46826 0.0
C346 C 0.15952 0.6875 0.47456 0.0
C347 C 0.16501 0.72401 0.48699 0.0
C348 C 0.201 0.75582 0.49216 0.0
H349 H 0.326 0.76848 0.5251 0.0
H350 H 0.27503 0.74556 0.51951 0.0
H351 H 0.30115 0.73258 0.49985 0.0
H352 H 0.25048 0.71106 0.46758 0.0
H353 H 0.18765 0.65515 0.4588 0.0
H354 H 0.60886 0.48199 0.84905 0.0
H355 H 0.61854 0.42321 0.84817 0.0
H356 H 0.52315 0.35782 0.79571 0.0
H357 H 0.51377 0.41685 0.79627 0.0
H358 H 0.5685 0.34957 0.85534 0.0
H359 H 0.60743 0.33615 0.77113 0.0
H360 H 0.60755 0.38054 0.78614 0.0
H361 H 0.56388 0.33963 0.7722 0.0
C362 C 0.5902 0.4552 0.83715 0.0
C363 C 0.56079 0.45413 0.82254 0.0
C364 C 0.59564 0.42156 0.83676 0.0
C365 C 0.57184 0.38614 0.82173 0.0
C366 C 0.54228 0.38495 0.80721 0.0
H367 H 0.5393 0.14814 0.82319 0.0
H368 H 0.53518 0.21057 0.82916 0.0
C369 C 0.53682 0.41863 0.8076 0.0
C370 C 0.57756 0.35034 0.82151 0.0
H371 H 0.59608 0.28252 0.7884 0.0
C372 C 0.57464 0.33495 0.84073 0.0
C373 C 0.58619 0.3316 0.80259 0.0
C374 C 0.59183 0.34794 0.78189 0.0
C375 C 0.57932 0.30091 0.84136 0.0
C376 C 0.58658 0.28134 0.82215 0.0
C377 C 0.59022 0.29724 0.80309 0.0
C378 C 0.59062 0.24441 0.82128 0.0
C379 C 0.57705 0.28662 0.86271 0.0
C380 C 0.62322 0.2425 0.81508 0.0
C381 C 0.62553 0.20686 0.81161 0.0
C382 C 0.59525 0.17216 0.81418 0.0
C383 C 0.56333 0.17443 0.82142 0.0
C384 C 0.56095 0.21015 0.8248 0.0
H385 H 0.58225 0.31045 0.87725 0.0
H386 H 0.54835 0.26264 0.86193 0.0
H387 H 0.59779 0.27491 0.86534 0.0
H388 H 0.64653 0.26845 0.81231 0.0
H389 H 0.65057 0.20613 0.80612 0.0
H390 H 0.66075 0.01497 0.53022 0.0
H391 H 0.65122 0.94779 0.53003 0.0
H392 H 0.55935 0.90303 0.47553 0.0
H393 H 0.56911 0.97033 0.47549 0.0
H394 H 0.5438 0.86102 0.51078 0.0
H395 H 0.67903 0.87983 0.4825 0.0
H396 H 0.68323 0.91598 0.50632 0.0
H397 H 0.65924 0.91356 0.47998 0.0
C398 C 0.63858 0.99081 0.51815 0.0
C399 C 0.61557 0.99789 0.50291 0.0
C400 C 0.63322 0.95244 0.51804 0.0
C401 C 0.60482 0.92035 0.50263 0.0
C402 C 0.58146 0.92732 0.48757 0.0
H403 H 0.57079 0.6811 0.46093 0.0
H404 H 0.58451 0.7502 0.46483 0.0
C405 C 0.58693 0.96575 0.48762 0.0
C406 C 0.59953 0.87959 0.50221 0.0
H407 H 0.64268 0.81973 0.49266 0.0
C408 C 0.56543 0.85199 0.50687 0.0
C409 C 0.62766 0.86773 0.49693 0.0
C410 C 0.66426 0.89564 0.49095 0.0
C411 C 0.55881 0.81298 0.50652 0.0
C412 C 0.58715 0.80127 0.50153 0.0
C413 C 0.62115 0.82882 0.49674 0.0
C414 C 0.5811 0.75996 0.49985 0.0
C415 C 0.52114 0.78429 0.51091 0.0
C416 C 0.57566 0.74263 0.51839 0.0
C417 C 0.56791 0.70299 0.51622 0.0
C418 C 0.56528 0.67993 0.49543 0.0
C419 C 0.57215 0.69788 0.47712 0.0
C420 C 0.58011 0.73743 0.47933 0.0
H421 H 0.49984 0.79573 0.51012 0.0
H422 H 0.51016 0.75578 0.49875 0.0
H423 H 0.52465 0.77868 0.52774 0.0
H424 H 0.57688 0.7596 0.53448 0.0
H425 H 0.56261 0.69004 0.53062 0.0
H426 H 0.67527 0.47577 0.80339 0.0
H427 H 0.72276 0.45116 0.80043 0.0
H428 H 0.7973 0.54586 0.85466 0.0
H429 H 0.75 0.5704 0.85775 0.0
H430 H 0.79491 0.49242 0.7912 0.0
H431 H 0.80196 0.44957 0.87142 0.0
H432 H 0.76223 0.45562 0.85983 0.0
H433 H 0.80397 0.49758 0.87536 0.0
C434 C 0.70174 0.4911 0.81477 0.0
C435 C 0.70925 0.52506 0.83074 0.0
C436 C 0.72865 0.47692 0.8131 0.0
C437 C 0.76315 0.49629 0.82758 0.0
C438 C 0.77041 0.52994 0.8437 0.0
H439 H 0.98362 0.5832 0.83188 0.0
H440 H 0.91634 0.55406 0.81888 0.0
C441 C 0.74361 0.54416 0.84533 0.0
C442 C 0.79336 0.48412 0.82478 0.0
H443 H 0.86068 0.47294 0.85585 0.0
C444 C 0.80873 0.48691 0.80507 0.0
C445 C 0.81064 0.47566 0.84257 0.0
C446 C 0.79353 0.46897 0.86338 0.0
C447 C 0.84356 0.48632 0.80374 0.0
C448 C 0.86345 0.48355 0.82272 0.0
C449 C 0.84574 0.47576 0.84139 0.0
C450 C 0.90465 0.49689 0.82547 0.0
C451 C 0.85979 0.49114 0.78254 0.0
C452 C 0.92067 0.47432 0.8333 0.0
C453 C 0.95947 0.49106 0.84082 0.0
C454 C 0.98267 0.53074 0.84086 0.0
C455 C 0.96677 0.55241 0.83175 0.0
C456 C 0.92817 0.53567 0.82419 0.0
H457 H 0.83699 0.4767 0.76791 0.0
H458 H 0.87456 0.52289 0.78243 0.0
H459 H 0.88019 0.47858 0.78086 0.0
H460 H 0.90292 0.44445 0.8346 0.0
H461 H 0.97104 0.4735 0.84749 0.0
H462 H 0.14747 0.71384 0.14883 0.0
H463 H 0.20362 0.77485 0.14846 0.0
H464 H 0.27281 0.73704 0.18554 0.0
H465 H 0.21696 0.67624 0.18603 0.0
H466 H 0.2571 0.83276 0.18694 0.0
H467 H 0.32352 0.76394 0.1296 0.0
H468 H 0.27394 0.74004 0.13171 0.0
H469 H 0.30846 0.74078 0.15241 0.0
C470 C 0.17467 0.7187 0.15696 0.0
C471 C 0.17799 0.69044 0.16746 0.0
C472 C 0.20664 0.75343 0.15669 0.0
C473 C 0.24234 0.76007 0.16668 0.0
C474 C 0.24556 0.73211 0.17744 0.0
H475 H 0.47151 0.93389 0.19584 0.0
H476 H 0.41118 0.87469 0.18744 0.0
C477 C 0.21364 0.69757 0.17784 0.0
C478 C 0.27632 0.79655 0.16633 0.0
H479 H 0.36206 0.83013 0.14888 0.0
C480 C 0.27991 0.83241 0.1784 0.0
C481 C 0.30589 0.79577 0.15515 0.0
C482 C 0.3028 0.75815 0.14131 0.0
C483 C 0.31316 0.8674 0.18049 0.0
C484 C 0.34318 0.86651 0.16973 0.0
C485 C 0.33903 0.83076 0.15708 0.0
C486 C 0.38012 0.90172 0.17283 0.0
C487 C 0.31653 0.90457 0.19508 0.0
C488 C 0.38298 0.93623 0.16672 0.0
C489 C 0.41742 0.97032 0.17173 0.0
C490 C 0.44964 0.97033 0.18278 0.0
C491 C 0.44707 0.93504 0.18769 0.0
C492 C 0.41266 0.90112 0.18278 0.0
H493 H 0.29458 0.8984 0.20602 0.0
H494 H 0.34473 0.92107 0.20564 0.0
H495 H 0.31302 0.92372 0.18449 0.0
H496 H 0.35838 0.93708 0.15857 0.0
H497 H 0.41841 0.99703 0.16778 0.0
H498 H 0.60269 0.18555 0.52742 0.0
H499 H 0.60768 0.25176 0.5294 0.0
H500 H 0.53027 0.20958 0.46784 0.0
H501 H 0.52457 0.14341 0.4661 0.0
H502 H 0.62994 0.30422 0.50216 0.0
H503 H 0.47865 0.25681 0.5085 0.0
H504 H 0.50123 0.22558 0.51107 0.0
H505 H 0.48615 0.23046 0.48411 0.0
C506 C 0.58687 0.19052 0.51429 0.0
C507 C 0.56292 0.15928 0.49673 0.0
C508 C 0.58976 0.22835 0.51541 0.0
C509 C 0.56874 0.23557 0.499 0.0
C510 C 0.546 0.20462 0.48101 0.0
H511 H 0.60271 0.47574 0.49145 0.0
H512 H 0.60002 0.40995 0.48215 0.0
C513 C 0.54289 0.16683 0.47998 0.0
C514 C 0.56973 0.27508 0.50102 0.0
H515 H 0.5138 0.32219 0.50479 0.0
C516 C 0.60456 0.30818 0.5027 0.0
C517 C 0.53664 0.28035 0.50193 0.0
C518 C 0.49861 0.24651 0.50153 0.0
C519 C 0.60721 0.34632 0.50539 0.0
C520 C 0.57401 0.35146 0.50598 0.0
C521 C 0.5392 0.31828 0.50408 0.0
C522 C 0.57491 0.39109 0.51065 0.0
C523 C 0.64568 0.38085 0.50838 0.0
C524 C 0.5604 0.40191 0.52919 0.0
C525 C 0.56136 0.43897 0.53429 0.0
C526 C 0.57707 0.46651 0.52105 0.0
C527 C 0.59058 0.45533 0.50203 0.0
C528 C 0.58948 0.4179 0.49687 0.0
H529 H 0.66871 0.37279 0.51248 0.0
H530 H 0.64955 0.39151 0.49273 0.0
H531 H 0.64845 0.40542 0.52175 0.0
H532 H 0.54866 0.38174 0.53998 0.0
H533 H 0.54981 0.44611 0.54875 0.0
H534 H 0.48606 0.63238 0.85817 0.0
H535 H 0.4355 0.65257 0.85837 0.0
H536 H 0.36652 0.55259 0.80532 0.0
H537 H 0.41695 0.53188 0.80526 0.0
H538 H 0.40068 0.67066 0.82346 0.0
H539 H 0.29927 0.54368 0.85373 0.0
H540 H 0.3487 0.5557 0.8552 0.0
H541 H 0.31712 0.53098 0.82934 0.0
C542 C 0.45998 0.61456 0.84667 0.0
C543 C 0.45506 0.58038 0.83185 0.0
C544 C 0.4313 0.62623 0.84672 0.0
C545 C 0.39729 0.60384 0.83201 0.0
C546 C 0.39243 0.56987 0.81702 0.0
H547 H 0.2161 0.66725 0.80402 0.0
H548 H 0.27244 0.65654 0.80198 0.0
C549 C 0.42115 0.55812 0.81698 0.0
C550 C 0.36685 0.61604 0.83259 0.0
H551 H 0.27742 0.58798 0.84399 0.0
C552 C 0.37367 0.65266 0.82792 0.0
C553 C 0.33194 0.59253 0.83865 0.0
C554 C 0.32377 0.55367 0.84471 0.0
C555 C 0.34626 0.66643 0.82912 0.0
C556 C 0.31121 0.64267 0.83492 0.0
C557 C 0.30442 0.60605 0.83954 0.0
C558 C 0.28104 0.65513 0.83668 0.0
C559 C 0.35523 0.70649 0.82465 0.0
C560 C 0.26773 0.65843 0.85692 0.0
C561 C 0.23564 0.66433 0.85809 0.0
C562 C 0.2163 0.66694 0.83901 0.0
C563 C 0.23081 0.66577 0.819 0.0
C564 C 0.26291 0.65967 0.81782 0.0
H565 H 0.38605 0.72453 0.82543 0.0
H566 H 0.34097 0.70298 0.80779 0.0
H567 H 0.34476 0.72261 0.83676 0.0
H568 H 0.28144 0.65501 0.87163 0.0
H569 H 0.22512 0.66546 0.87373 0.0
H570 H 0.94976 0.37974 0.17661 0.0
H571 H 0.88672 0.32867 0.17782 0.0
H572 H 0.84459 0.344 0.11578 0.0
H573 H 0.90765 0.39549 0.11455 0.0
H574 H 0.81885 0.34501 0.17554 0.0
H575 H 0.80661 0.22051 0.11008 0.0
H576 H 0.85169 0.25917 0.1245 0.0
H577 H 0.82487 0.26853 0.10368 0.0
C578 C 0.9272 0.3718 0.16305 0.0
C579 C 0.93352 0.39144 0.14545 0.0
C580 C 0.89125 0.34272 0.1638 0.0
C581 C 0.86118 0.33247 0.14683 0.0
C582 C 0.86761 0.35124 0.12889 0.0
H583 H 0.6223 0.17699 0.1222 0.0
H584 H 0.68788 0.21967 0.12012 0.0
C585 C 0.90355 0.3806 0.12822 0.0
C586 C 0.82256 0.3042 0.14872 0.0
H587 H 0.75225 0.21216 0.12624 0.0
C588 C 0.80427 0.31585 0.16488 0.0
C589 C 0.80373 0.26643 0.13464 0.0
C590 C 0.82263 0.25256 0.11728 0.0
C591 C 0.76717 0.29094 0.16707 0.0
C592 C 0.74829 0.25288 0.15312 0.0
C593 C 0.76679 0.24121 0.13701 0.0
C594 C 0.70883 0.22539 0.1544 0.0
C595 C 0.74816 0.30623 0.18378 0.0
C596 C 0.69884 0.2136 0.17424 0.0
C597 C 0.66115 0.18967 0.17561 0.0
C598 C 0.63275 0.17667 0.15707 0.0
C599 C 0.64322 0.18719 0.13697 0.0
C600 C 0.6808 0.21132 0.13567 0.0
H601 H 0.76238 0.33887 0.18864 0.0
H602 H 0.71805 0.2964 0.17713 0.0
H603 H 0.74943 0.29482 0.19898 0.0
H604 H 0.72013 0.22331 0.18877 0.0
H605 H 0.65418 0.18227 0.19136 0.0
H606 H 0.10997 0.59429 0.09515 0.0
H607 H 0.11346 0.59621 0.05623 0.0
H608 H 0.0287 0.47556 0.0368 0.0
H609 H 0.02476 0.47309 0.07594 0.0
H610 H 0.10027 0.50216 0.01447 0.0
H611 H 0.02204 0.59209 0.0136 0.0
H612 H 0.05977 0.60827 0.03644 0.0
H613 H 1.01862 0.56234 0.03379 0.0
C614 C 0.09208 0.56797 0.08271 0.0
C615 C 0.06683 0.53356 0.08873 0.0
C616 C 0.09418 0.56921 0.06046 0.0
C617 C 0.07116 0.53615 0.04376 0.0
C618 C 0.04663 0.50138 0.04956 0.0
H619 H 0.04432 0.49723 0.89999 0.0
H620 H 0.04791 0.48883 0.9382 0.0
C621 C 0.04436 0.5001 0.0719 0.0
C622 C 0.072 0.53875 0.02026 0.0
H623 H 0.04949 0.58267 0.98197 0.0
C624 C 0.08902 0.51952 0.00723 0.0
C625 C 0.05745 0.56163 0.01107 0.0
C626 C 0.03817 0.58211 0.02433 0.0
C627 C 0.09263 0.52336 0.98523 0.0
C628 C 0.07815 0.5464 0.97603 0.0
C629 C 0.06082 0.56526 0.98909 0.0
C630 C 0.07984 0.551 0.95278 0.0
C631 C 0.11275 0.5036 0.97225 0.0
C632 C 0.09655 0.58873 0.94826 0.0
C633 C 0.09397 0.59368 0.92646 0.0
C634 C 0.07451 0.56094 0.90875 0.0
C635 C 0.05919 0.52307 0.91328 0.0
C636 C 0.06161 0.51817 0.9351 0.0
H637 H 0.1314 0.49701 0.98338 0.0
H638 H 0.09154 0.47537 0.96152 0.0
H639 H 0.13002 0.52221 0.96147 0.0
H640 H 0.11057 0.61448 0.96169 0.0
H641 H 0.10565 0.62327 0.92362 0.0
H642 H 0.64004 0.12186 0.43403 0.0
H643 H 0.63741 0.12287 0.39466 0.0
H644 H 0.52953 0.02009 0.38013 0.0
H645 H 0.53155 0.01902 0.4196 0.0
H646 H 0.63176 0.06677 0.35808 0.0
H647 H 0.50867 0.09935 0.35198 0.0
H648 H 0.5349 0.10407 0.37823 0.0
H649 H 0.50037 0.05649 0.36282 0.0
C650 C 0.61573 0.09932 0.42252 0.0
C651 C 0.58586 0.07045 0.43005 0.0
C652 C 0.61434 0.09999 0.39999 0.0
C653 C 0.58304 0.07196 0.38454 0.0
C654 C 0.55362 0.04247 0.39187 0.0
H655 H 0.55303 1.00388 0.24286 0.0
H656 H 0.56971 0.01304 0.28283 0.0
C657 C 0.55494 0.04178 0.41442 0.0
C658 C 0.58115 0.07374 0.36079 0.0
H659 H 0.52801 0.08215 0.31802 0.0
C660 C 0.60922 0.07036 0.34932 0.0
C661 C 0.55215 0.07924 0.34953 0.0
C662 C 0.5225 0.0854 0.36129 0.0
C663 C 0.60835 0.07101 0.32668 0.0
C664 C 0.57832 0.0746 0.31518 0.0
C665 C 0.55094 0.07922 0.32683 0.0
C666 C 0.57339 0.07148 0.29085 0.0
C667 C 0.63965 0.06801 0.31531 0.0
C668 C 0.5701 0.10138 0.28202 0.0
C669 C 0.5602 0.09604 0.25915 0.0
C670 C 0.55308 0.06055 0.24476 0.0
C671 C 0.55815 0.03146 0.25357 0.0
C672 C 0.56802 0.0368 0.2764 0.0
H673 H 0.66577 0.0779 0.32738 0.0
H674 H 0.63065 0.03685 0.30716 0.0
H675 H 0.64632 0.08579 0.30243 0.0
H676 H 0.57392 0.12829 0.29292 0.0
H677 H 0.55609 0.11879 0.25288 0.0
H678 H 0.53828 0.57187 0.75918 0.0
H679 H 0.54249 0.57887 0.72082 0.0
H680 H 0.64615 0.56778 0.72503 0.0
H681 H 0.64191 0.56001 0.76324 0.0
H682 H 0.59867 0.63466 0.70336 0.0
H683 H 0.5818 0.4844 0.66996 0.0
H684 H 0.57176 0.49851 0.69708 0.0
H685 H 0.61968 0.51189 0.69281 0.0
C686 C 0.56189 0.57066 0.75194 0.0
C687 C 0.58959 0.565 0.76427 0.0
C688 C 0.56431 0.57485 0.73003 0.0
C689 C 0.59436 0.57336 0.72 0.0
C690 C 0.62231 0.56824 0.73232 0.0
H691 H 0.64969 0.57435 0.58769 0.0
H692 H 0.65413 0.58433 0.62806 0.0
C693 C 0.61986 0.56388 0.75419 0.0
C694 C 0.59639 0.577 0.69661 0.0
H695 H 0.59804 0.52839 0.64569 0.0
C696 C 0.59846 0.61143 0.69071 0.0
C697 C 0.59597 0.54658 0.68016 0.0
C698 C 0.59182 0.5081 0.68521 0.0
C699 C 0.60077 0.61648 0.6688 0.0
C700 C 0.60064 0.58616 0.65243 0.0
C701 C 0.59851 0.55177 0.65835 0.0
C702 C 0.6016 0.58849 0.62883 0.0
C703 C 0.6039 0.65435 0.66339 0.0
C704 C 0.57125 0.58896 0.61597 0.0
C705 C 0.56873 0.58338 0.59288 0.0
C706 C 0.59634 0.57687 0.58236 0.0
C707 C 0.62795 0.57914 0.59542 0.0
C708 C 0.6305 0.5848 0.61844 0.0
H709 H 0.613 0.67816 0.67853 0.0
H710 H 0.62421 0.66422 0.65168 0.0
H711 H 0.57589 0.64948 0.65534 0.0
H712 H 0.54832 0.5911 0.62362 0.0
H713 H 0.54384 0.58125 0.58318 0.0
H714 H 0.54508 0.02594 0.56435 0.0
H715 H 0.54966 0.02432 0.6037 0.0
H716 H 0.65231 0.13309 0.61808 0.0
H717 H 0.64768 0.13542 0.57882 0.0
H718 H 0.60634 0.02259 0.63187 0.0
H719 H 0.58777 0.15645 0.66092 0.0
H720 H 0.5777 0.13228 0.63202 0.0
H721 H 0.62558 0.16432 0.64513 0.0
C722 C 0.56856 0.04968 0.57587 0.0
C723 C 0.59587 0.08101 0.56843 0.0
C724 C 0.57117 0.0486 0.59835 0.0
C725 C 0.60104 0.07881 0.61384 0.0
C726 C 0.6286 0.10987 0.60646 0.0
H727 H 0.65915 0.13174 0.75663 0.0
H728 H 0.66203 0.12611 0.71693 0.0
C729 C 0.62595 0.11109 0.58399 0.0
C730 C 0.60336 0.07777 0.6377 0.0
H731 H 0.60484 0.12878 0.68864 0.0
C732 C 0.60594 0.04574 0.64431 0.0
C733 C 0.60266 0.10794 0.65385 0.0
C734 C 0.59791 0.14201 0.64766 0.0
C735 C 0.60849 0.04344 0.66674 0.0
C736 C 0.60811 0.07378 0.68285 0.0
C737 C 0.60547 0.10573 0.67623 0.0
C738 C 0.60945 0.07292 0.70671 0.0
C739 C 0.61214 0.00895 0.67307 0.0
C740 C 0.57945 0.04421 0.71412 0.0
C741 C 0.57773 0.04737 0.73681 0.0
C742 C 0.60585 0.07949 0.7524 0.0
C743 C 0.63696 0.10685 0.74496 0.0
C744 C 0.63866 0.10366 0.72232 0.0
H745 H 0.6211 0.99336 0.6597 0.0
H746 H 0.63279 0.01863 0.68852 0.0
H747 H 0.58437 0.98776 0.67617 0.0
H748 H 0.5563 0.02063 0.70232 0.0
H749 H 0.55319 0.02617 0.74204 0.0
H750 H 0.63831 0.55816 0.90676 0.0
H751 H 0.6356 0.55654 0.94592 0.0
H752 H 0.53457 0.5725 0.94116 0.0
H753 H 0.53694 0.57426 0.90196 0.0
H754 H 0.59208 0.62185 0.97952 0.0
H755 H 0.55581 0.46328 0.96856 0.0
H756 H 0.59602 0.4916 0.95661 0.0
H757 H 0.55002 0.48499 0.94573 0.0
C758 C 0.61555 0.56149 0.914 0.0
C759 C 0.58772 0.56613 0.90113 0.0
C760 C 0.61396 0.56033 0.93637 0.0
C761 C 0.5846 0.56385 0.9463 0.0
C762 C 0.55731 0.56948 0.93372 0.0
H763 H 0.53469 0.51209 0.0762 0.0
H764 H 0.52772 0.51678 0.03716 0.0
C765 C 0.55873 0.57042 0.91131 0.0
C766 C 0.58245 0.56169 0.96986 0.0
H767 H 0.57208 0.50056 0.00562 0.0
C768 C 0.58746 0.59529 0.98524 0.0
C769 C 0.5759 0.52682 0.97717 0.0
C770 C 0.56879 0.48945 0.96117 0.0
C771 C 0.5874 0.59532 0.00793 0.0
C772 C 0.58237 0.56092 0.01535 0.0
C773 C 0.57608 0.52694 -0.00014 0.0
C774 C 0.58554 0.56014 0.03923 0.0
C775 C 0.59285 0.63215 0.02381 0.0
C776 C 0.62028 0.58301 0.05324 0.0
C777 C 0.62433 0.58027 0.07539 0.0
C778 C 0.59371 0.55456 0.08397 0.0
C779 C 0.55866 0.53232 0.07005 0.0
C780 C 0.5547 0.53486 0.04779 0.0
H781 H 0.5867 0.65224 0.01508 0.0
H782 H 0.57445 0.62489 0.03672 0.0
H783 H 0.62262 0.64805 0.03225 0.0
H784 H 0.64455 0.6023 0.04689 0.0
H785 H 0.65159 0.59799 0.08578 0.0
H786 H 0.11445 0.59239 0.23668 0.0
H787 H 0.11039 0.59583 0.27612 0.0
H788 H 1.00063 0.49562 0.25976 0.0
H789 H 1.00463 0.49144 0.22031 0.0
H790 H 0.05733 0.60748 0.29841 0.0
H791 H 0.05568 0.46515 0.30559 0.0
H792 H 0.06913 0.48674 0.28194 0.0
H793 H 0.02013 0.46136 0.28444 0.0
C794 C 0.08955 0.57085 0.24143 0.0
C795 C 0.05993 0.54156 0.2253 0.0
C796 C 0.08727 0.5729 0.26399 0.0
C797 C 0.05542 0.54569 0.27087 0.0
C798 C 0.02581 0.5164 0.25484 0.0
H799 H 1.01218 0.59387 0.40693 0.0
H800 H 1.0021 0.5738 0.36637 0.0
C801 C 0.0281 0.51422 0.23227 0.0
C802 C 0.05272 0.54909 0.29482 0.0
H803 H 0.04585 0.50125 0.33728 0.0
C804 C 0.05469 0.58422 0.30691 0.0
C805 C 0.04949 0.51874 0.30585 0.0
C806 C 0.04881 0.48098 0.29388 0.0
C807 C 0.05398 0.5901 0.32982 0.0
C808 C 0.05038 0.55962 0.34084 0.0
C809 C 0.04806 0.52431 0.32871 0.0
C810 C 0.05252 0.56542 0.36526 0.0
C811 C 0.05857 0.62947 0.34214 0.0
C812 C 0.08289 0.56504 0.37805 0.0
C813 C 0.0884 0.57591 0.40114 0.0
C814 C 0.06363 0.58742 0.4119 0.0
C815 C 0.03171 0.58511 0.39913 0.0
C816 C 0.02616 0.57409 0.37596 0.0
H817 H 0.06911 0.65228 0.33214 0.0
H818 H 0.03081 0.62657 0.34612 0.0
H819 H 0.07845 0.63977 0.35797 0.0
H820 H 0.10339 0.55812 0.37013 0.0
H821 H 0.11291 0.5768 0.41058 0.0
loop_
_geom_bond_atom_site_label_1
_geom_bond_atom_site_label_2
_geom_bond_distance
_geom_bond_site_symmetry_2
_ccdc_geom_bond_type
Tb0 O3 2.453 . S
Tb0 O4 2.596 . S
Tb0 O5 2.374 . S
Tb0 O13 2.343 . S
Tb0 O15 2.353 . S
Tb0 O17 2.427 . S
Tb0 O18 2.513 . S
C1 O5 1.251 . S
C1 O7 1.263 . S
Tb2 O4 2.343 . S
Tb2 O7 2.353 . S
Tb2 O10 2.427 1_455 S
Tb2 O11 2.513 1_455 S
Tb2 O12 2.453 . S
Tb2 O13 2.596 . S
Tb2 O14 2.374 . S
O3 Tb0 2.453 . S
O3 C19 1.245 1_455 S
O4 Tb0 2.596 . S
O4 Tb2 2.343 . S
O4 C19 1.259 1_455 S
O5 Tb0 2.374 . S
O5 C1 1.251 . S
C6 O10 1.275 . S
C6 O11 1.246 . S
O7 C1 1.263 . S
O7 Tb2 2.353 . S
C8 O12 1.245 . S
C8 O13 1.259 . S
C9 O14 1.250 . S
C9 O15 1.263 . S
O10 Tb2 2.427 1_655 S
O10 C6 1.275 . S
O11 Tb2 2.513 1_655 S
O11 C6 1.246 . S
O12 Tb2 2.453 . S
O12 C8 1.245 . S
O13 Tb0 2.343 . S
O13 Tb2 2.596 . S
O13 C8 1.259 . S
O14 Tb2 2.374 . S
O14 C9 1.250 . S
O15 Tb0 2.353 . S
O15 C9 1.263 . S
C16 O17 1.275 . S
C16 O18 1.246 . S
O17 Tb0 2.427 . S
O17 C16 1.275 . S
O18 Tb0 2.513 . S
O18 C16 1.246 . S
C19 O3 1.245 1_655 S
C19 O4 1.259 1_655 S
Tb20 O23 2.453 . S
Tb20 O24 2.596 . S
Tb20 O25 2.374 . S
Tb20 O33 2.343 . S
Tb20 O35 2.353 . S
Tb20 O37 2.427 1_545 S
Tb20 O38 2.513 1_545 S
C21 O25 1.251 . S
C21 O27 1.263 . S
Tb22 O24 2.343 . S
Tb22 O27 2.353 . S
Tb22 O30 2.427 . S
Tb22 O31 2.513 . S
Tb22 O32 2.453 . S
Tb22 O33 2.596 . S
Tb22 O34 2.374 . S
O23 Tb20 2.453 . S
O23 C39 1.245 . S
O24 Tb20 2.596 . S
O24 Tb22 2.343 . S
O24 C39 1.259 . S
O25 Tb20 2.374 . S
O25 C21 1.251 . S
C26 O30 1.275 . S
C26 O31 1.246 . S
O27 C21 1.263 . S
O27 Tb22 2.353 . S
C28 O32 1.245 . S
C28 O33 1.259 . S
C29 O34 1.250 . S
C29 O35 1.263 . S
O30 Tb22 2.427 . S
O30 C26 1.275 . S
O31 Tb22 2.513 . S
O31 C26 1.246 . S
O32 Tb22 2.453 . S
O32 C28 1.245 . S
O33 Tb20 2.343 . S
O33 Tb22 2.596 . S
O33 C28 1.259 . S
O34 Tb22 2.374 . S
O34 C29 1.250 . S
O35 Tb20 2.353 . S
O35 C29 1.263 . S
C36 O37 1.275 . S
C36 O38 1.246 . S
O37 Tb20 2.427 1_565 S
O37 C36 1.275 . S
O38 Tb20 2.513 1_565 S
O38 C36 1.246 . S
C39 O23 1.245 . S
C39 O24 1.259 . S
Tb40 O43 2.453 . S
Tb40 O44 2.596 . S
Tb40 O45 2.374 . S
Tb40 O53 2.343 . S
Tb40 O55 2.353 . S
Tb40 O57 2.427 . S
Tb40 O58 2.513 . S
C41 O45 1.251 . S
C41 O47 1.263 . S
Tb42 O44 2.343 . S
Tb42 O47 2.353 . S
Tb42 O50 2.427 . S
Tb42 O51 2.513 . S
Tb42 O52 2.453 . S
Tb42 O53 2.596 . S
Tb42 O54 2.374 . S
O43 Tb40 2.453 . S
O43 C59 1.245 . S
O44 Tb40 2.596 . S
O44 Tb42 2.343 . S
O44 C59 1.259 . S
O45 Tb40 2.374 . S
O45 C41 1.251 . S
C46 O50 1.275 . S
C46 O51 1.246 . S
O47 C41 1.263 . S
O47 Tb42 2.353 . S
C48 O52 1.245 . S
C48 O53 1.259 . S
C49 O54 1.250 . S
C49 O55 1.263 . S
O50 Tb42 2.427 . S
O50 C46 1.275 . S
O51 Tb42 2.513 . S
O51 C46 1.246 . S
O52 Tb42 2.453 . S
O52 C48 1.245 . S
O53 Tb40 2.343 . S
O53 Tb42 2.596 . S
O53 C48 1.259 . S
O54 Tb42 2.374 . S
O54 C49 1.250 . S
O55 Tb40 2.353 . S
O55 C49 1.263 . S
C56 O57 1.275 . S
C56 O58 1.246 . S
O57 Tb40 2.427 . S
O57 C56 1.275 . S
O58 Tb40 2.513 . S
O58 C56 1.246 . S
C59 O43 1.245 . S
C59 O44 1.259 . S
H60 C61 0.949 . S
C61 H60 0.949 . S
C61 C62 1.395 . S
C61 C63 1.391 . S
C62 C61 1.395 . S
C62 C65 1.390 . S
C63 C61 1.391 . S
C63 C67 1.387 . S
C63 C68 1.491 . S
H64 C65 0.950 . S
C65 C62 1.390 . S
C65 H64 0.950 . S
C65 C66 1.378 . S
C66 C65 1.378 . S
C66 C67 1.409 . S
C67 C63 1.387 . S
C67 C66 1.409 . S
C67 H69 0.951 . S
C68 C63 1.491 . S
C68 C70 1.382 . S
C68 C72 1.404 . S
H69 C67 0.951 . S
C70 C68 1.382 . S
C70 C71 1.390 . S
C70 H75 0.949 . S
C71 C70 1.390 . S
C71 C76 1.399 . S
C72 C68 1.404 . S
C72 H73 0.950 . S
C72 C74 1.375 . S
H73 C72 0.950 . S
C74 C72 1.375 . S
C74 C76 1.382 . S
C74 H78 0.950 . S
H75 C70 0.949 . S
C76 C71 1.399 . S
C76 C74 1.382 . S
C76 H77 0.952 . S
H77 C76 0.952 . S
H78 C74 0.950 . S
H79 C80 0.949 . S
C80 H79 0.949 . S
C80 C81 1.395 . S
C80 C82 1.391 . S
C81 C80 1.395 . S
C81 C84 1.390 . S
C82 C80 1.391 . S
C82 C86 1.387 . S
C82 C87 1.491 . S
H83 C84 0.950 . S
C84 C81 1.390 . S
C84 H83 0.950 . S
C84 C85 1.378 . S
C85 C84 1.378 . S
C85 C86 1.409 . S
C86 C82 1.387 . S
C86 C85 1.409 . S
C86 H88 0.951 . S
C87 C82 1.491 . S
C87 C89 1.382 . S
C87 C91 1.404 . S
H88 C86 0.951 . S
C89 C87 1.382 . S
C89 C90 1.390 . S
C89 H94 0.949 . S
C90 C89 1.390 . S
C90 C95 1.399 . S
C91 C87 1.404 . S
C91 H92 0.950 . S
C91 C93 1.375 . S
H92 C91 0.950 . S
C93 C91 1.375 . S
C93 C95 1.382 . S
C93 H97 0.950 . S
H94 C89 0.949 . S
C95 C90 1.399 . S
C95 C93 1.382 . S
C95 H96 0.952 . S
H96 C95 0.952 . S
H97 C93 0.950 . S
H98 C99 0.949 . S
C99 H98 0.949 . S
C99 C100 1.395 . S
C99 C101 1.391 . S
C100 C99 1.395 . S
C100 C103 1.390 . S
C101 C99 1.391 . S
C101 C105 1.387 . S
C101 C106 1.491 . S
H102 C103 0.950 . S
C103 C100 1.390 . S
C103 H102 0.950 . S
C103 C104 1.378 . S
C104 C103 1.378 . S
C104 C105 1.409 . S
C105 C101 1.387 . S
C105 C104 1.409 . S
C105 H107 0.951 . S
C106 C101 1.491 . S
C106 C108 1.382 . S
C106 C110 1.404 . S
H107 C105 0.951 . S
C108 C106 1.382 . S
C108 C109 1.390 . S
C108 H113 0.949 . S
C109 C108 1.390 . S
C109 C114 1.399 . S
C110 C106 1.404 . S
C110 H111 0.950 . S
C110 C112 1.375 . S
H111 C110 0.950 . S
C112 C110 1.375 . S
C112 C114 1.382 . S
C112 H116 0.950 . S
H113 C108 0.949 . S
C114 C109 1.399 . S
C114 C112 1.382 . S
C114 H115 0.952 . S
H115 C114 0.952 . S
H116 C112 0.950 . S
H117 C118 0.949 . S
C118 H117 0.949 . S
C118 C119 1.395 1_655 S
C118 C120 1.390 . S
C119 C118 1.395 1_455 S
C119 C122 1.390 . S
C120 C118 1.390 . S
C120 C124 1.372 1_655 S
C120 C125 1.508 . S
H121 C122 0.950 . S
C122 C119 1.390 . S
C122 H121 0.950 . S
C122 C123 1.378 . S
C123 C122 1.378 . S
C123 C124 1.409 . S
C124 C120 1.372 1_455 S
C124 C123 1.409 . S
C124 H126 0.951 . S
C125 C120 1.508 . S
C125 C127 1.382 . S
C125 C129 1.404 . S
H126 C124 0.951 . S
C127 C125 1.382 . S
C127 C128 1.390 . S
C127 H132 0.949 . S
C128 C127 1.390 . S
C128 C133 1.399 . S
C129 C125 1.404 . S
C129 H130 0.950 . S
C129 C131 1.375 . S
H130 C129 0.950 . S
C131 C129 1.375 . S
C131 C133 1.382 . S
C131 H135 0.950 . S
H132 C127 0.949 . S
C133 C128 1.399 . S
C133 C131 1.382 . S
C133 H134 0.952 . S
H134 C133 0.952 . S
H135 C131 0.950 . S
H136 C137 0.949 . S
C137 H136 0.949 . S
C137 C138 1.395 . S
C137 C139 1.391 . S
C138 C137 1.395 . S
C138 C141 1.390 . S
C139 C137 1.391 . S
C139 C143 1.387 . S
C139 C144 1.491 . S
H140 C141 0.950 . S
C141 C138 1.390 . S
C141 H140 0.950 . S
C141 C142 1.378 . S
C142 C141 1.378 . S
C142 C143 1.409 . S
C143 C139 1.387 . S
C143 C142 1.409 . S
C143 H145 0.951 . S
C144 C139 1.491 . S
C144 C146 1.382 1_545 S
C144 C148 1.404 . S
H145 C143 0.951 . S
C146 C144 1.382 1_565 S
C146 C147 1.390 . S
C146 H151 0.949 . S
C147 C146 1.390 . S
C147 C152 1.399 . S
C148 C144 1.404 . S
C148 H149 0.950 . S
C148 C150 1.375 1_545 S
H149 C148 0.950 . S
C150 C148 1.375 1_565 S
C150 C152 1.382 . S
C150 H154 0.950 . S
H151 C146 0.949 . S
C152 C147 1.399 . S
C152 C150 1.382 . S
C152 H153 0.952 . S
H153 C152 0.952 . S
H154 C150 0.950 . S
H155 C156 0.949 . S
C156 H155 0.949 . S
C156 C157 1.395 . S
C156 C158 1.391 . S
C157 C156 1.395 . S
C157 C160 1.390 . S
C158 C156 1.391 . S
C158 C162 1.387 . S
C158 C163 1.491 . S
H159 C160 0.950 . S
C160 C157 1.390 . S
C160 H159 0.950 . S
C160 C161 1.378 . S
C161 C160 1.378 . S
C161 C162 1.409 . S
C162 C158 1.387 . S
C162 C161 1.409 . S
C162 H164 0.951 . S
C163 C158 1.491 . S
C163 C165 1.382 . S
C163 C167 1.404 . S
H164 C162 0.951 . S
C165 C163 1.382 . S
C165 C166 1.390 . S
C165 H170 0.949 . S
C166 C165 1.390 . S
C166 C171 1.399 . S
C167 C163 1.404 . S
C167 H168 0.950 . S
C167 C169 1.375 . S
H168 C167 0.950 . S
C169 C167 1.375 . S
C169 C171 1.382 . S
C169 H173 0.950 . S
H170 C165 0.949 . S
C171 C166 1.399 . S
C171 C169 1.382 . S
C171 H172 0.952 . S
H172 C171 0.952 . S
H173 C169 0.950 . S
H174 C182 0.929 . S
H175 C184 0.930 . S
H176 C186 0.930 . S
H177 C189 0.929 . S
H178 C192 0.930 . S
H179 C194 0.960 . S
H180 C194 0.960 . S
H181 C194 0.960 . S
C182 H174 0.929 . S
C182 C183 1.377 . S
C182 C184 1.384 . S
C183 C182 1.377 . S
C183 C189 1.390 . S
C184 H175 0.930 . S
C184 C182 1.384 . S
C184 C185 1.372 . S
C185 C184 1.372 . S
C185 C186 1.400 . S
C185 C190 1.490 . S
C186 H176 0.930 . S
C186 C185 1.400 . S
C186 C189 1.386 . S
H187 C203 0.930 . S
H188 C204 0.931 . S
C189 H177 0.929 . S
C189 C183 1.390 . S
C189 C186 1.386 . S
C190 C185 1.490 . S
C190 C192 1.395 . S
C190 C193 1.403 . S
H191 C197 0.930 . S
C192 H178 0.930 . S
C192 C190 1.395 . S
C192 C195 1.403 . S
C193 C190 1.403 . S
C193 C194 1.524 . S
C193 C197 1.400 . S
C194 H179 0.960 . S
C194 H180 0.960 . S
C194 H181 0.960 . S
C194 C193 1.524 . S
C195 C192 1.403 . S
C195 C196 1.392 . S
C195 C199 1.495 . S
C196 C195 1.392 . S
C196 C197 1.385 . S
C196 C198 1.478 . S
C197 H191 0.930 . S
C197 C193 1.400 . S
C197 C196 1.385 . S
C198 C196 1.478 . S
C198 C200 1.381 . S
C198 C204 1.383 . S
C199 C195 1.495 . S
C199 H205 0.959 . S
C199 H206 0.961 . S
C199 H207 0.960 . S
C200 C198 1.381 . S
C200 C201 1.394 . S
C200 H208 0.930 . S
C201 C200 1.394 . S
C201 C202 1.383 . S
C201 H209 0.929 . S
C202 C201 1.383 . S
C202 C203 1.377 . S
C203 H187 0.930 . S
C203 C202 1.377 . S
C203 C204 1.379 . S
C204 H188 0.931 . S
C204 C198 1.383 . S
C204 C203 1.379 . S
H205 C199 0.959 . S
H206 C199 0.961 . S
H207 C199 0.960 . S
H208 C200 0.930 . S
H209 C201 0.929 . S
H210 C218 0.929 . S
H211 C220 0.930 . S
H212 C222 0.930 . S
H213 C225 0.929 . S
H214 C228 0.930 . S
H215 C230 0.960 . S
H216 C230 0.960 . S
H217 C230 0.960 . S
C218 H210 0.929 . S
C218 C219 1.377 . S
C218 C220 1.384 . S
C219 C218 1.377 . S
C219 C225 1.390 . S
C220 H211 0.930 . S
C220 C218 1.384 . S
C220 C221 1.372 . S
C221 C220 1.372 . S
C221 C222 1.400 . S
C221 C226 1.490 . S
C222 H212 0.930 . S
C222 C221 1.400 . S
C222 C225 1.386 . S
H223 C239 0.930 . S
H224 C240 0.931 . S
C225 H213 0.929 . S
C225 C219 1.390 . S
C225 C222 1.386 . S
C226 C221 1.490 . S
C226 C228 1.395 . S
C226 C229 1.403 . S
H227 C233 0.930 . S
C228 H214 0.930 . S
C228 C226 1.395 . S
C228 C231 1.403 . S
C229 C226 1.403 . S
C229 C230 1.524 . S
C229 C233 1.400 . S
C230 H215 0.960 . S
C230 H216 0.960 . S
C230 H217 0.960 . S
C230 C229 1.524 . S
C231 C228 1.403 . S
C231 C232 1.392 . S
C231 C235 1.495 . S
C232 C231 1.392 . S
C232 C233 1.385 . S
C232 C234 1.478 . S
C233 H227 0.930 . S
C233 C229 1.400 . S
C233 C232 1.385 . S
C234 C232 1.478 . S
C234 C236 1.381 . S
C234 C240 1.383 . S
C235 C231 1.495 . S
C235 H241 0.959 . S
C235 H242 0.961 . S
C235 H243 0.960 . S
C236 C234 1.381 . S
C236 C237 1.394 . S
C236 H244 0.930 . S
C237 C236 1.394 . S
C237 C238 1.383 . S
C237 H245 0.929 . S
C238 C237 1.383 . S
C238 C239 1.377 . S
C239 H223 0.930 . S
C239 C238 1.377 . S
C239 C240 1.379 . S
C240 H224 0.931 . S
C240 C234 1.383 . S
C240 C239 1.379 . S
H241 C235 0.959 . S
H242 C235 0.961 . S
H243 C235 0.960 . S
H244 C236 0.930 . S
H245 C237 0.929 . S
H246 C254 0.929 . S
H247 C256 0.930 . S
H248 C258 0.930 . S
H249 C261 0.929 . S
H250 C264 0.930 . S
H251 C266 0.960 . S
H252 C266 0.960 . S
H253 C266 0.960 . S
C254 H246 0.929 . S
C254 C255 1.377 . S
C254 C256 1.384 . S
C255 C254 1.377 . S
C255 C261 1.390 . S
C256 H247 0.930 . S
C256 C254 1.384 . S
C256 C257 1.372 . S
C257 C256 1.372 . S
C257 C258 1.400 . S
C257 C262 1.490 . S
C258 H248 0.930 . S
C258 C257 1.400 . S
C258 C261 1.386 . S
H259 C275 0.930 . S
H260 C276 0.931 . S
C261 H249 0.929 . S
C261 C255 1.390 . S
C261 C258 1.386 . S
C262 C257 1.490 . S
C262 C264 1.395 . S
C262 C265 1.403 . S
H263 C269 0.930 . S
C264 H250 0.930 . S
C264 C262 1.395 . S
C264 C267 1.403 . S
C265 C262 1.403 . S
C265 C266 1.524 . S
C265 C269 1.400 . S
C266 H251 0.960 . S
C266 H252 0.960 . S
C266 H253 0.960 . S
C266 C265 1.524 . S
C267 C264 1.403 . S
C267 C268 1.392 . S
C267 C271 1.495 . S
C268 C267 1.392 . S
C268 C269 1.385 . S
C268 C270 1.478 . S
C269 H263 0.930 . S
C269 C265 1.400 . S
C269 C268 1.385 . S
C270 C268 1.478 . S
C270 C272 1.381 . S
C270 C276 1.383 . S
C271 C267 1.495 . S
C271 H277 0.959 . S
C271 H278 0.961 . S
C271 H279 0.960 . S
C272 C270 1.381 . S
C272 C273 1.394 . S
C272 H280 0.930 . S
C273 C272 1.394 . S
C273 C274 1.383 . S
C273 H281 0.929 . S
C274 C273 1.383 . S
C274 C275 1.377 . S
C275 H259 0.930 . S
C275 C274 1.377 . S
C275 C276 1.379 . S
C276 H260 0.931 . S
C276 C270 1.383 . S
C276 C275 1.379 . S
H277 C271 0.959 . S
H278 C271 0.961 . S
H279 C271 0.960 . S
H280 C272 0.930 . S
H281 C273 0.929 . S
H282 C290 0.929 . S
H283 C292 0.930 . S
H284 C294 0.930 . S
H285 C297 0.929 . S
H286 C300 0.930 . S
H287 C302 0.960 . S
H288 C302 0.960 . S
H289 C302 0.960 . S
C290 H282 0.929 . S
C290 C291 1.377 . S
C290 C292 1.384 . S
C291 C290 1.377 . S
C291 C297 1.390 . S
C292 H283 0.930 . S
C292 C290 1.384 . S
C292 C293 1.372 . S
C293 C292 1.372 . S
C293 C294 1.400 . S
C293 C298 1.490 . S
C294 H284 0.930 . S
C294 C293 1.400 . S
C294 C297 1.386 . S
H295 C311 0.930 . S
H296 C312 0.931 . S
C297 H285 0.929 . S
C297 C291 1.390 . S
C297 C294 1.386 . S
C298 C293 1.490 . S
C298 C300 1.395 . S
C298 C301 1.403 . S
H299 C305 0.930 . S
C300 H286 0.930 . S
C300 C298 1.395 . S
C300 C303 1.403 . S
C301 C298 1.403 . S
C301 C302 1.524 . S
C301 C305 1.400 . S
C302 H287 0.960 . S
C302 H288 0.960 . S
C302 H289 0.960 . S
C302 C301 1.524 . S
C303 C300 1.403 . S
C303 C304 1.392 . S
C303 C307 1.495 . S
C304 C303 1.392 . S
C304 C305 1.385 . S
C304 C306 1.478 . S
C305 H299 0.930 . S
C305 C301 1.400 . S
C305 C304 1.385 . S
C306 C304 1.478 . S
C306 C308 1.381 . S
C306 C312 1.383 . S
C307 C303 1.495 . S
C307 H313 0.959 . S
C307 H314 0.961 . S
C307 H315 0.960 . S
C308 C306 1.381 . S
C308 C309 1.394 . S
C308 H316 0.930 . S
C309 C308 1.394 . S
C309 C310 1.383 . S
C309 H317 0.929 . S
C310 C309 1.383 . S
C310 C311 1.377 . S
C311 H295 0.930 . S
C311 C310 1.377 . S
C311 C312 1.379 . S
C312 H296 0.931 . S
C312 C306 1.383 . S
C312 C311 1.379 . S
H313 C307 0.959 . S
H314 C307 0.961 . S
H315 C307 0.960 . S
H316 C308 0.930 . S
H317 C309 0.929 . S
H318 C326 0.929 . S
H319 C328 0.930 . S
H320 C330 0.930 . S
H321 C333 0.929 . S
H322 C336 0.930 . S
H323 C338 0.960 . S
H324 C338 0.960 . S
H325 C338 0.960 . S
C326 H318 0.929 . S
C326 C327 1.377 . S
C326 C328 1.384 . S
C327 C326 1.377 . S
C327 C333 1.390 . S
C328 H319 0.930 . S
C328 C326 1.384 . S
C328 C329 1.372 . S
C329 C328 1.372 . S
C329 C330 1.400 . S
C329 C334 1.490 . S
C330 H320 0.930 . S
C330 C329 1.400 . S
C330 C333 1.386 . S
H331 C347 0.930 . S
H332 C348 0.931 . S
C333 H321 0.929 . S
C333 C327 1.390 . S
C333 C330 1.386 . S
C334 C329 1.490 . S
C334 C336 1.395 . S
C334 C337 1.403 . S
H335 C341 0.930 . S
C336 H322 0.930 . S
C336 C334 1.395 . S
C336 C339 1.403 . S
C337 C334 1.403 . S
C337 C338 1.524 . S
C337 C341 1.400 . S
C338 H323 0.960 . S
C338 H324 0.960 . S
C338 H325 0.960 . S
C338 C337 1.524 . S
C339 C336 1.403 . S
C339 C340 1.392 . S
C339 C343 1.495 . S
C340 C339 1.392 . S
C340 C341 1.385 . S
C340 C342 1.478 . S
C341 H335 0.930 . S
C341 C337 1.400 . S
C341 C340 1.385 . S
C342 C340 1.478 . S
C342 C344 1.381 . S
C342 C348 1.383 . S
C343 C339 1.495 . S
C343 H349 0.959 . S
C343 H350 0.961 . S
C343 H351 0.960 . S
C344 C342 1.381 . S
C344 C345 1.394 . S
C344 H352 0.930 . S
C345 C344 1.394 . S
C345 C346 1.383 . S
C345 H353 0.929 . S
C346 C345 1.383 . S
C346 C347 1.377 . S
C347 H331 0.930 . S
C347 C346 1.377 . S
C347 C348 1.379 . S
C348 H332 0.931 . S
C348 C342 1.383 . S
C348 C347 1.379 . S
H349 C343 0.959 . S
H350 C343 0.961 . S
H351 C343 0.960 . S
H352 C344 0.930 . S
H353 C345 0.929 . S
H354 C362 0.929 . S
H355 C364 0.930 . S
H356 C366 0.930 . S
H357 C369 0.929 . S
H358 C372 0.930 . S
H359 C374 0.960 . S
H360 C374 0.960 . S
H361 C374 0.960 . S
C362 H354 0.929 . S
C362 C363 1.377 . S
C362 C364 1.384 . S
C363 C362 1.377 . S
C363 C369 1.390 . S
C364 H355 0.930 . S
C364 C362 1.384 . S
C364 C365 1.372 . S
C365 C364 1.372 . S
C365 C366 1.400 . S
C365 C370 1.490 . S
C366 H356 0.930 . S
C366 C365 1.400 . S
C366 C369 1.386 . S
H367 C383 0.930 . S
H368 C384 0.931 . S
C369 H357 0.929 . S
C369 C363 1.390 . S
C369 C366 1.386 . S
C370 C365 1.490 . S
C370 C372 1.395 . S
C370 C373 1.403 . S
H371 C377 0.930 . S
C372 H358 0.930 . S
C372 C370 1.395 . S
C372 C375 1.403 . S
C373 C370 1.403 . S
C373 C374 1.524 . S
C373 C377 1.400 . S
C374 H359 0.960 . S
C374 H360 0.960 . S
C374 H361 0.960 . S
C374 C373 1.524 . S
C375 C372 1.403 . S
C375 C376 1.392 . S
C375 C379 1.495 . S
C376 C375 1.392 . S
C376 C377 1.385 . S
C376 C378 1.478 . S
C377 H371 0.930 . S
C377 C373 1.400 . S
C377 C376 1.385 . S
C378 C376 1.478 . S
C378 C380 1.381 . S
C378 C384 1.383 . S
C379 C375 1.495 . S
C379 H385 0.959 . S
C379 H386 0.961 . S
C379 H387 0.960 . S
C380 C378 1.381 . S
C380 C381 1.394 . S
C380 H388 0.930 . S
C381 C380 1.394 . S
C381 C382 1.383 . S
C381 H389 0.929 . S
C382 C381 1.383 . S
C382 C383 1.377 . S
C383 H367 0.930 . S
C383 C382 1.377 . S
C383 C384 1.379 . S
C384 H368 0.931 . S
C384 C378 1.383 . S
C384 C383 1.379 . S
H385 C379 0.959 . S
H386 C379 0.961 . S
H387 C379 0.960 . S
H388 C380 0.930 . S
H389 C381 0.929 . S
H390 C398 0.929 . S
H391 C400 0.930 . S
H392 C402 0.930 . S
H393 C405 0.929 . S
H394 C408 0.930 . S
H395 C410 0.960 . S
H396 C410 0.960 . S
H397 C410 0.960 . S
C398 H390 0.929 . S
C398 C399 1.377 . S
C398 C400 1.384 . S
C399 C398 1.377 . S
C399 C405 1.390 . S
C400 H391 0.930 . S
C400 C398 1.384 . S
C400 C401 1.372 . S
C401 C400 1.372 . S
C401 C402 1.400 . S
C401 C406 1.490 . S
C402 H392 0.930 . S
C402 C401 1.400 . S
C402 C405 1.386 . S
H403 C419 0.930 . S
H404 C420 0.931 . S
C405 H393 0.929 . S
C405 C399 1.390 . S
C405 C402 1.386 . S
C406 C401 1.490 . S
C406 C408 1.395 . S
C406 C409 1.403 . S
H407 C413 0.930 . S
C408 H394 0.930 . S
C408 C406 1.395 . S
C408 C411 1.403 . S
C409 C406 1.403 . S
C409 C410 1.524 . S
C409 C413 1.400 . S
C410 H395 0.960 . S
C410 H396 0.960 . S
C410 H397 0.960 . S
C410 C409 1.524 . S
C411 C408 1.403 . S
C411 C412 1.392 . S
C411 C415 1.495 . S
C412 C411 1.392 . S
C412 C413 1.385 . S
C412 C414 1.478 . S
C413 H407 0.930 . S
C413 C409 1.400 . S
C413 C412 1.385 . S
C414 C412 1.478 . S
C414 C416 1.381 . S
C414 C420 1.383 . S
C415 C411 1.495 . S
C415 H421 0.959 . S
C415 H422 0.961 . S
C415 H423 0.960 . S
C416 C414 1.381 . S
C416 C417 1.394 . S
C416 H424 0.930 . S
C417 C416 1.394 . S
C417 C418 1.383 . S
C417 H425 0.929 . S
C418 C417 1.383 . S
C418 C419 1.377 . S
C419 H403 0.930 . S
C419 C418 1.377 . S
C419 C420 1.379 . S
C420 H404 0.931 . S
C420 C414 1.383 . S
C420 C419 1.379 . S
H421 C415 0.959 . S
H422 C415 0.961 . S
H423 C415 0.960 . S
H424 C416 0.930 . S
H425 C417 0.929 . S
H426 C434 0.929 . S
H427 C436 0.930 . S
H428 C438 0.930 . S
H429 C441 0.929 . S
H430 C444 0.930 . S
H431 C446 0.960 . S
H432 C446 0.960 . S
H433 C446 0.960 . S
C434 H426 0.929 . S
C434 C435 1.377 . S
C434 C436 1.384 . S
C435 C434 1.377 . S
C435 C441 1.390 . S
C436 H427 0.930 . S
C436 C434 1.384 . S
C436 C437 1.372 . S
C437 C436 1.372 . S
C437 C438 1.400 . S
C437 C442 1.490 . S
C438 H428 0.930 . S
C438 C437 1.400 . S
C438 C441 1.386 . S
H439 C455 0.930 . S
H440 C456 0.931 . S
C441 H429 0.929 . S
C441 C435 1.390 . S
C441 C438 1.386 . S
C442 C437 1.490 . S
C442 C444 1.395 . S
C442 C445 1.403 . S
H443 C449 0.930 . S
C444 H430 0.930 . S
C444 C442 1.395 . S
C444 C447 1.403 . S
C445 C442 1.403 . S
C445 C446 1.524 . S
C445 C449 1.400 . S
C446 H431 0.960 . S
C446 H432 0.960 . S
C446 H433 0.960 . S
C446 C445 1.524 . S
C447 C444 1.403 . S
C447 C448 1.392 . S
C447 C451 1.495 . S
C448 C447 1.392 . S
C448 C449 1.385 . S
C448 C450 1.478 . S
C449 H443 0.930 . S
C449 C445 1.400 . S
C449 C448 1.385 . S
C450 C448 1.478 . S
C450 C452 1.381 . S
C450 C456 1.383 . S
C451 C447 1.495 . S
C451 H457 0.959 . S
C451 H458 0.961 . S
C451 H459 0.960 . S
C452 C450 1.381 . S
C452 C453 1.394 . S
C452 H460 0.930 . S
C453 C452 1.394 . S
C453 C454 1.383 1_655 S
C453 H461 0.929 . S
C454 C453 1.383 1_455 S
C454 C455 1.377 . S
C455 H439 0.930 . S
C455 C454 1.377 . S
C455 C456 1.379 1_455 S
C456 H440 0.931 . S
C456 C450 1.383 . S
C456 C455 1.379 1_655 S
H457 C451 0.959 . S
H458 C451 0.961 . S
H459 C451 0.960 . S
H460 C452 0.930 . S
H461 C453 0.929 . S
H462 C470 0.929 . S
H463 C472 0.930 . S
H464 C474 0.930 . S
H465 C477 0.929 . S
H466 C480 0.930 . S
H467 C482 0.960 . S
H468 C482 0.960 . S
H469 C482 0.960 . S
C470 H462 0.929 . S
C470 C471 1.377 . S
C470 C472 1.384 . S
C471 C470 1.377 . S
C471 C477 1.390 . S
C472 H463 0.930 . S
C472 C470 1.384 . S
C472 C473 1.372 . S
C473 C472 1.372 . S
C473 C474 1.400 . S
C473 C478 1.490 . S
C474 H464 0.930 . S
C474 C473 1.400 . S
C474 C477 1.386 . S
H475 C491 0.930 . S
H476 C492 0.931 . S
C477 H465 0.929 . S
C477 C471 1.390 . S
C477 C474 1.386 . S
C478 C473 1.490 . S
C478 C480 1.395 . S
C478 C481 1.403 . S
H479 C485 0.930 . S
C480 H466 0.930 . S
C480 C478 1.395 . S
C480 C483 1.403 . S
C481 C478 1.403 . S
C481 C482 1.524 . S
C481 C485 1.400 . S
C482 H467 0.960 . S
C482 H468 0.960 . S
C482 H469 0.960 . S
C482 C481 1.524 . S
C483 C480 1.403 . S
C483 C484 1.392 . S
C483 C487 1.495 . S
C484 C483 1.392 . S
C484 C485 1.385 . S
C484 C486 1.478 . S
C485 H479 0.930 . S
C485 C481 1.400 . S
C485 C484 1.385 . S
C486 C484 1.478 . S
C486 C488 1.381 . S
C486 C492 1.383 . S
C487 C483 1.495 . S
C487 H493 0.959 . S
C487 H494 0.961 . S
C487 H495 0.960 . S
C488 C486 1.381 . S
C488 C489 1.394 . S
C488 H496 0.930 . S
C489 C488 1.394 . S
C489 C490 1.383 . S
C489 H497 0.918 1_565 S
C490 C489 1.383 . S
C490 C491 1.377 . S
C491 H475 0.930 . S
C491 C490 1.377 . S
C491 C492 1.379 . S
C492 H476 0.931 . S
C492 C486 1.383 . S
C492 C491 1.379 . S
H493 C487 0.959 . S
H494 C487 0.961 . S
H495 C487 0.960 . S
H496 C488 0.930 . S
H497 C489 0.918 1_545 S
H498 C506 0.929 . S
H499 C508 0.930 . S
H500 C510 0.930 . S
H501 C513 0.929 . S
H502 C516 0.930 . S
H503 C518 0.960 . S
H504 C518 0.960 . S
H505 C518 0.960 . S
C506 H498 0.929 . S
C506 C507 1.377 . S
C506 C508 1.384 . S
C507 C506 1.377 . S
C507 C513 1.390 . S
C508 H499 0.930 . S
C508 C506 1.384 . S
C508 C509 1.372 . S
C509 C508 1.372 . S
C509 C510 1.400 . S
C509 C514 1.490 . S
C510 H500 0.930 . S
C510 C509 1.400 . S
C510 C513 1.386 . S
H511 C527 0.930 . S
H512 C528 0.931 . S
C513 H501 0.929 . S
C513 C507 1.390 . S
C513 C510 1.386 . S
C514 C509 1.490 . S
C514 C516 1.395 . S
C514 C517 1.403 . S
H515 C521 0.930 . S
C516 H502 0.930 . S
C516 C514 1.395 . S
C516 C519 1.403 . S
C517 C514 1.403 . S
C517 C518 1.524 . S
C517 C521 1.400 . S
C518 H503 0.960 . S
C518 H504 0.960 . S
C518 H505 0.960 . S
C518 C517 1.524 . S
C519 C516 1.403 . S
C519 C520 1.392 . S
C519 C523 1.495 . S
C520 C519 1.392 . S
C520 C521 1.385 . S
C520 C522 1.478 . S
C521 H515 0.930 . S
C521 C517 1.400 . S
C521 C520 1.385 . S
C522 C520 1.478 . S
C522 C524 1.381 . S
C522 C528 1.383 . S
C523 C519 1.495 . S
C523 H529 0.959 . S
C523 H530 0.961 . S
C523 H531 0.960 . S
C524 C522 1.381 . S
C524 C525 1.394 . S
C524 H532 0.930 . S
C525 C524 1.394 . S
C525 C526 1.383 . S
C525 H533 0.929 . S
C526 C525 1.383 . S
C526 C527 1.377 . S
C527 H511 0.930 . S
C527 C526 1.377 . S
C527 C528 1.379 . S
C528 H512 0.931 . S
C528 C522 1.383 . S
C528 C527 1.379 . S
H529 C523 0.959 . S
H530 C523 0.961 . S
H531 C523 0.960 . S
H532 C524 0.930 . S
H533 C525 0.929 . S
H534 C542 0.929 . S
H535 C544 0.930 . S
H536 C546 0.930 . S
H537 C549 0.929 . S
H538 C552 0.930 . S
H539 C554 0.960 . S
H540 C554 0.960 . S
H541 C554 0.960 . S
C542 H534 0.929 . S
C542 C543 1.377 . S
C542 C544 1.384 . S
C543 C542 1.377 . S
C543 C549 1.390 . S
C544 H535 0.930 . S
C544 C542 1.384 . S
C544 C545 1.372 . S
C545 C544 1.372 . S
C545 C546 1.400 . S
C545 C550 1.490 . S
C546 H536 0.930 . S
C546 C545 1.400 . S
C546 C549 1.386 . S
H547 C563 0.930 . S
H548 C564 0.931 . S
C549 H537 0.929 . S
C549 C543 1.390 . S
C549 C546 1.386 . S
C550 C545 1.490 . S
C550 C552 1.395 . S
C550 C553 1.403 . S
H551 C557 0.930 . S
C552 H538 0.930 . S
C552 C550 1.395 . S
C552 C555 1.403 . S
C553 C550 1.403 . S
C553 C554 1.524 . S
C553 C557 1.400 . S
C554 H539 0.960 . S
C554 H540 0.960 . S
C554 H541 0.960 . S
C554 C553 1.524 . S
C555 C552 1.403 . S
C555 C556 1.392 . S
C555 C559 1.495 . S
C556 C555 1.392 . S
C556 C557 1.385 . S
C556 C558 1.478 . S
C557 H551 0.930 . S
C557 C553 1.400 . S
C557 C556 1.385 . S
C558 C556 1.478 . S
C558 C560 1.381 . S
C558 C564 1.383 . S
C559 C555 1.495 . S
C559 H565 0.959 . S
C559 H566 0.961 . S
C559 H567 0.960 . S
C560 C558 1.381 . S
C560 C561 1.394 . S
C560 H568 0.930 . S
C561 C560 1.394 . S
C561 C562 1.383 . S
C561 H569 0.929 . S
C562 C561 1.383 . S
C562 C563 1.377 . S
C563 H547 0.930 . S
C563 C562 1.377 . S
C563 C564 1.379 . S
C564 H548 0.931 . S
C564 C558 1.383 . S
C564 C563 1.379 . S
H565 C559 0.959 . S
H566 C559 0.961 . S
H567 C559 0.960 . S
H568 C560 0.930 . S
H569 C561 0.929 . S
H570 C578 0.929 . S
H571 C580 0.930 . S
H572 C582 0.930 . S
H573 C585 0.929 . S
H574 C588 0.930 . S
H575 C590 0.960 . S
H576 C590 0.960 . S
H577 C590 0.960 . S
C578 H570 0.929 . S
C578 C579 1.377 . S
C578 C580 1.384 . S
C579 C578 1.377 . S
C579 C585 1.390 . S
C580 H571 0.930 . S
C580 C578 1.384 . S
C580 C581 1.372 . S
C581 C580 1.372 . S
C581 C582 1.400 . S
C581 C586 1.490 . S
C582 H572 0.930 . S
C582 C581 1.400 . S
C582 C585 1.386 . S
H583 C599 0.930 . S
H584 C600 0.931 . S
C585 H573 0.929 . S
C585 C579 1.390 . S
C585 C582 1.386 . S
C586 C581 1.490 . S
C586 C588 1.395 . S
C586 C589 1.403 . S
H587 C593 0.930 . S
C588 H574 0.930 . S
C588 C586 1.395 . S
C588 C591 1.403 . S
C589 C586 1.403 . S
C589 C590 1.524 . S
C589 C593 1.400 . S
C590 H575 0.960 . S
C590 H576 0.960 . S
C590 H577 0.960 . S
C590 C589 1.524 . S
C591 C588 1.403 . S
C591 C592 1.392 . S
C591 C595 1.495 . S
C592 C591 1.392 . S
C592 C593 1.385 . S
C592 C594 1.478 . S
C593 H587 0.930 . S
C593 C589 1.400 . S
C593 C592 1.385 . S
C594 C592 1.478 . S
C594 C596 1.381 . S
C594 C600 1.383 . S
C595 C591 1.495 . S
C595 H601 0.959 . S
C595 H602 0.961 . S
C595 H603 0.960 . S
C596 C594 1.381 . S
C596 C597 1.394 . S
C596 H604 0.930 . S
C597 C596 1.394 . S
C597 C598 1.383 . S
C597 H605 0.929 . S
C598 C597 1.383 . S
C598 C599 1.377 . S
C599 H583 0.930 . S
C599 C598 1.377 . S
C599 C600 1.379 . S
C600 H584 0.931 . S
C600 C594 1.383 . S
C600 C599 1.379 . S
H601 C595 0.959 . S
H602 C595 0.961 . S
H603 C595 0.960 . S
H604 C596 0.930 . S
H605 C597 0.929 . S
H606 C614 0.929 . S
H607 C616 0.930 . S
H608 C618 0.930 . S
H609 C621 0.929 . S
H610 C624 0.930 . S
H611 C626 0.960 . S
H612 C626 0.960 . S
H613 C626 0.960 . S
C614 H606 0.929 . S
C614 C615 1.377 . S
C614 C616 1.384 . S
C615 C614 1.377 . S
C615 C621 1.390 . S
C616 H607 0.930 . S
C616 C614 1.384 . S
C616 C617 1.372 . S
C617 C616 1.372 . S
C617 C618 1.400 . S
C617 C622 1.490 . S
C618 H608 0.930 . S
C618 C617 1.400 . S
C618 C621 1.386 . S
H619 C635 0.930 . S
H620 C636 0.931 . S
C621 H609 0.929 . S
C621 C615 1.390 . S
C621 C618 1.386 . S
C622 C617 1.490 . S
C622 C624 1.395 . S
C622 C625 1.403 . S
H623 C629 0.930 . S
C624 H610 0.930 . S
C624 C622 1.395 . S
C624 C627 1.403 1_554 S
C625 C622 1.403 . S
C625 C626 1.524 . S
C625 C629 1.400 1_554 S
C626 H611 0.960 . S
C626 H612 0.960 . S
C626 H613 0.960 . S
C626 C625 1.524 . S
C627 C624 1.403 1_556 S
C627 C628 1.392 . S
C627 C631 1.495 . S
C628 C627 1.392 . S
C628 C629 1.385 . S
C628 C630 1.478 . S
C629 H623 0.930 . S
C629 C625 1.400 1_556 S
C629 C628 1.385 . S
C630 C628 1.478 . S
C630 C632 1.381 . S
C630 C636 1.383 . S
C631 C627 1.495 . S
C631 H637 0.959 . S
C631 H638 0.961 . S
C631 H639 0.960 . S
C632 C630 1.381 . S
C632 C633 1.394 . S
C632 H640 0.930 . S
C633 C632 1.394 . S
C633 C634 1.383 . S
C633 H641 0.929 . S
C634 C633 1.383 . S
C634 C635 1.377 . S
C635 H619 0.930 . S
C635 C634 1.377 . S
C635 C636 1.379 . S
C636 H620 0.931 . S
C636 C630 1.383 . S
C636 C635 1.379 . S
H637 C631 0.959 . S
H638 C631 0.961 . S
H639 C631 0.960 . S
H640 C632 0.930 . S
H641 C633 0.929 . S
H642 C650 0.929 . S
H643 C652 0.930 . S
H644 C654 0.930 . S
H645 C657 0.929 . S
H646 C660 0.930 . S
H647 C662 0.960 1_565 S
H648 C662 0.960 . S
H649 C662 0.960 1_565 S
C650 H642 0.929 . S
C650 C651 1.377 . S
C650 C652 1.384 . S
C651 C650 1.377 . S
C651 C657 1.390 . S
C652 H643 0.930 . S
C652 C650 1.384 . S
C652 C653 1.372 . S
C653 C652 1.372 . S
C653 C654 1.400 . S
C653 C658 1.490 . S
C654 H644 0.930 . S
C654 C653 1.400 . S
C654 C657 1.386 . S
H655 C671 0.930 . S
H656 C672 0.931 . S
C657 H645 0.929 . S
C657 C651 1.390 . S
C657 C654 1.386 . S
C658 C653 1.490 . S
C658 C660 1.395 . S
C658 C661 1.403 . S
H659 C665 0.930 . S
C660 H646 0.930 . S
C660 C658 1.395 . S
C660 C663 1.403 . S
C661 C658 1.403 . S
C661 C662 1.524 . S
C661 C665 1.400 . S
C662 H647 0.960 1_545 S
C662 H648 0.960 . S
C662 H649 0.960 1_545 S
C662 C661 1.524 . S
C663 C660 1.403 . S
C663 C664 1.392 . S
C663 C667 1.495 . S
C664 C663 1.392 . S
C664 C665 1.385 . S
C664 C666 1.478 . S
C665 H659 0.930 . S
C665 C661 1.400 . S
C665 C664 1.385 . S
C666 C664 1.478 . S
C666 C668 1.381 . S
C666 C672 1.383 . S
C667 C663 1.495 . S
C667 H673 0.959 . S
C667 H674 0.961 . S
C667 H675 0.960 . S
C668 C666 1.381 . S
C668 C669 1.394 . S
C668 H676 0.930 . S
C669 C668 1.394 . S
C669 C670 1.383 . S
C669 H677 0.929 . S
C670 C669 1.383 . S
C670 C671 1.377 . S
C671 H655 0.930 . S
C671 C670 1.377 . S
C671 C672 1.379 . S
C672 H656 0.931 . S
C672 C666 1.383 . S
C672 C671 1.379 . S
H673 C667 0.959 . S
H674 C667 0.961 . S
H675 C667 0.960 . S
H676 C668 0.930 . S
H677 C669 0.929 . S
H678 C686 0.929 . S
H679 C688 0.930 . S
H680 C690 0.930 . S
H681 C693 0.929 . S
H682 C696 0.930 . S
H683 C698 0.960 . S
H684 C698 0.960 . S
H685 C698 0.960 . S
C686 H678 0.929 . S
C686 C687 1.377 . S
C686 C688 1.384 . S
C687 C686 1.377 . S
C687 C693 1.390 . S
C688 H679 0.930 . S
C688 C686 1.384 . S
C688 C689 1.372 . S
C689 C688 1.372 . S
C689 C690 1.400 . S
C689 C694 1.490 . S
C690 H680 0.930 . S
C690 C689 1.400 . S
C690 C693 1.386 . S
H691 C707 0.930 . S
H692 C708 0.931 . S
C693 H681 0.929 . S
C693 C687 1.390 . S
C693 C690 1.386 . S
C694 C689 1.490 . S
C694 C696 1.395 . S
C694 C697 1.403 . S
H695 C701 0.930 . S
C696 H682 0.930 . S
C696 C694 1.395 . S
C696 C699 1.403 . S
C697 C694 1.403 . S
C697 C698 1.524 . S
C697 C701 1.400 . S
C698 H683 0.960 . S
C698 H684 0.960 . S
C698 H685 0.960 . S
C698 C697 1.524 . S
C699 C696 1.403 . S
C699 C700 1.392 . S
C699 C703 1.495 . S
C700 C699 1.392 . S
C700 C701 1.385 . S
C700 C702 1.478 . S
C701 H695 0.930 . S
C701 C697 1.400 . S
C701 C700 1.385 . S
C702 C700 1.478 . S
C702 C704 1.381 . S
C702 C708 1.383 . S
C703 C699 1.495 . S
C703 H709 0.959 . S
C703 H710 0.961 . S
C703 H711 0.960 . S
C704 C702 1.381 . S
C704 C705 1.394 . S
C704 H712 0.930 . S
C705 C704 1.394 . S
C705 C706 1.383 . S
C705 H713 0.929 . S
C706 C705 1.383 . S
C706 C707 1.377 . S
C707 H691 0.930 . S
C707 C706 1.377 . S
C707 C708 1.379 . S
C708 H692 0.931 . S
C708 C702 1.383 . S
C708 C707 1.379 . S
H709 C703 0.959 . S
H710 C703 0.961 . S
H711 C703 0.960 . S
H712 C704 0.930 . S
H713 C705 0.929 . S
H714 C722 0.929 . S
H715 C724 0.930 . S
H716 C726 0.930 . S
H717 C729 0.929 . S
H718 C732 0.930 . S
H719 C734 0.960 . S
H720 C734 0.960 . S
H721 C734 0.960 . S
C722 H714 0.929 . S
C722 C723 1.377 . S
C722 C724 1.384 . S
C723 C722 1.377 . S
C723 C729 1.390 . S
C724 H715 0.930 . S
C724 C722 1.384 . S
C724 C725 1.372 . S
C725 C724 1.372 . S
C725 C726 1.400 . S
C725 C730 1.490 . S
C726 H716 0.930 . S
C726 C725 1.400 . S
C726 C729 1.386 . S
H727 C743 0.930 . S
H728 C744 0.931 . S
C729 H717 0.929 . S
C729 C723 1.390 . S
C729 C726 1.386 . S
C730 C725 1.490 . S
C730 C732 1.395 . S
C730 C733 1.403 . S
H731 C737 0.930 . S
C732 H718 0.930 . S
C732 C730 1.395 . S
C732 C735 1.403 . S
C733 C730 1.403 . S
C733 C734 1.524 . S
C733 C737 1.400 . S
C734 H719 0.960 . S
C734 H720 0.960 . S
C734 H721 0.960 . S
C734 C733 1.524 . S
C735 C732 1.403 . S
C735 C736 1.392 . S
C735 C739 1.495 1_545 S
C736 C735 1.392 . S
C736 C737 1.385 . S
C736 C738 1.478 . S
C737 H731 0.930 . S
C737 C733 1.400 . S
C737 C736 1.385 . S
C738 C736 1.478 . S
C738 C740 1.381 . S
C738 C744 1.383 . S
C739 C735 1.495 1_565 S
C739 H745 0.959 . S
C739 H746 0.965 1_565 S
C739 H747 0.960 . S
C740 C738 1.381 . S
C740 C741 1.394 . S
C740 H748 0.930 1_545 S
C741 C740 1.394 . S
C741 C742 1.383 . S
C741 H749 0.929 1_545 S
C742 C741 1.383 . S
C742 C743 1.377 . S
C743 H727 0.930 . S
C743 C742 1.377 . S
C743 C744 1.379 . S
C744 H728 0.931 . S
C744 C738 1.383 . S
C744 C743 1.379 . S
H745 C739 0.959 . S
H746 C739 0.965 1_545 S
H747 C739 0.960 . S
H748 C740 0.930 1_565 S
H749 C741 0.929 1_565 S
H750 C758 0.929 . S
H751 C760 0.930 . S
H752 C762 0.930 . S
H753 C765 0.929 . S
H754 C768 0.930 . S
H755 C770 0.960 . S
H756 C770 0.960 . S
H757 C770 0.960 . S
C758 H750 0.929 . S
C758 C759 1.377 . S
C758 C760 1.384 . S
C759 C758 1.377 . S
C759 C765 1.390 . S
C760 H751 0.930 . S
C760 C758 1.384 . S
C760 C761 1.372 . S
C761 C760 1.372 . S
C761 C762 1.400 . S
C761 C766 1.490 . S
C762 H752 0.930 . S
C762 C761 1.400 . S
C762 C765 1.386 . S
H763 C779 0.930 . S
H764 C780 0.931 . S
C765 H753 0.929 . S
C765 C759 1.390 . S
C765 C762 1.386 . S
C766 C761 1.490 . S
C766 C768 1.395 . S
C766 C769 1.403 . S
H767 C773 0.930 . S
C768 H754 0.930 . S
C768 C766 1.395 . S
C768 C771 1.403 1_556 S
C769 C766 1.403 . S
C769 C770 1.524 . S
C769 C773 1.400 1_556 S
C770 H755 0.960 . S
C770 H756 0.960 . S
C770 H757 0.960 . S
C770 C769 1.524 . S
C771 C768 1.403 1_554 S
C771 C772 1.392 . S
C771 C775 1.495 . S
C772 C771 1.392 . S
C772 C773 1.385 . S
C772 C774 1.478 . S
C773 H767 0.930 . S
C773 C769 1.400 1_554 S
C773 C772 1.385 . S
C774 C772 1.478 . S
C774 C776 1.381 . S
C774 C780 1.383 . S
C775 C771 1.495 . S
C775 H781 0.959 . S
C775 H782 0.961 . S
C775 H783 0.960 . S
C776 C774 1.381 . S
C776 C777 1.394 . S
C776 H784 0.930 . S
C777 C776 1.394 . S
C777 C778 1.383 . S
C777 H785 0.929 . S
C778 C777 1.383 . S
C778 C779 1.377 . S
C779 H763 0.930 . S
C779 C778 1.377 . S
C779 C780 1.379 . S
C780 H764 0.931 . S
C780 C774 1.383 . S
C780 C779 1.379 . S
H781 C775 0.959 . S
H782 C775 0.961 . S
H783 C775 0.960 . S
H784 C776 0.930 . S
H785 C777 0.929 . S
H786 C794 0.929 . S
H787 C796 0.930 . S
H788 C798 0.930 1_655 S
H789 C801 0.929 1_655 S
H790 C804 0.930 . S
H791 C806 0.960 1_655 S
H792 C806 0.960 . S
H793 C806 0.960 1_655 S
C794 H786 0.929 . S
C794 C795 1.377 . S
C794 C796 1.384 . S
C795 C794 1.377 . S
C795 C801 1.390 . S
C796 H787 0.930 . S
C796 C794 1.384 . S
C796 C797 1.372 . S
C797 C796 1.372 . S
C797 C798 1.400 . S
C797 C802 1.490 . S
C798 H788 0.930 1_455 S
C798 C797 1.400 . S
C798 C801 1.386 . S
H799 C815 0.930 . S
H800 C816 0.931 . S
C801 H789 0.929 1_455 S
C801 C795 1.390 . S
C801 C798 1.386 . S
C802 C797 1.490 . S
C802 C804 1.395 . S
C802 C805 1.403 . S
H803 C809 0.930 . S
C804 H790 0.930 . S
C804 C802 1.395 . S
C804 C807 1.403 . S
C805 C802 1.403 . S
C805 C806 1.524 . S
C805 C809 1.400 . S
C806 H791 0.960 1_455 S
C806 H792 0.960 . S
C806 H793 0.960 1_455 S
C806 C805 1.524 . S
C807 C804 1.403 . S
C807 C808 1.392 . S
C807 C811 1.495 . S
C808 C807 1.392 . S
C808 C809 1.385 . S
C808 C810 1.478 . S
C809 H803 0.930 . S
C809 C805 1.400 . S
C809 C808 1.385 . S
C810 C808 1.478 . S
C810 C812 1.381 . S
C810 C816 1.383 1_455 S
C811 C807 1.495 . S
C811 H817 0.959 . S
C811 H818 0.961 . S
C811 H819 0.960 . S
C812 C810 1.381 . S
C812 C813 1.394 . S
C812 H820 0.930 . S
C813 C812 1.394 . S
C813 C814 1.383 . S
C813 H821 0.929 . S
C814 C813 1.383 . S
C814 C815 1.377 1_455 S
C815 H799 0.930 . S
C815 C814 1.377 1_655 S
C815 C816 1.379 . S
C816 H800 0.931 . S
C816 C810 1.383 1_655 S
C816 C815 1.379 . S
H817 C811 0.959 . S
H818 C811 0.961 . S
H819 C811 0.960 . S
H820 C812 0.930 . S
H821 C813 0.929 . S
C183 C8 2.151 . S
C202 C166 2.182 . S
C219 C26 1.418 . S
C238 C128 1.358 . S
C255 C48 1.603 . S
C274 C147 1.622 . S
C291 C19 1.656 . S
C310 C161 1.668 . S
C346 C123 1.348 . S
C327 C36 1.346 . S
C382 C142 1.553 . S
C363 C59 1.492 . S
C399 C28 1.614 1_565 S
C418 C90 1.604 . S
C435 C46 1.117 . S
C454 C104 1.136 . S
C471 C16 1.358 . S
C490 C66 1.345 1_565 S
C526 C85 1.514 . S
C507 C39 1.486 . S
C562 C109 1.017 . S
C543 C56 1.065 . S
C579 C6 1.431 . S
C598 C71 1.377 . S
C634 C100 1.501 . S
C615 C9 1.501 . S
C651 C21 1.577 . S
C670 C62 1.590 . S
C687 C49 1.567 . S
C706 C81 1.562 . S
C742 C138 1.558 . S
C723 C29 1.564 . S
C778 C157 1.654 . S
C759 C41 1.626 . S
C795 C1 1.530 . S
C814 C119 1.515 . S
