# Generated by pormake.
# Topology pto, (3,4)-cn, num edge types: 1
# Building blocks:
#     Node 0, Type 0, BuildingBlock: OLANEW_clean_sbu_2, # of connection points: 3
#     Node 1, Type 0, BuildingBlock: OLANEW_clean_sbu_2, # of connection points: 3
#     Node 2, Type 0, BuildingBlock: OLANEW_clean_sbu_2, # of connection points: 3
#     Node 3, Type 0, BuildingBlock: OLANEW_clean_sbu_2, # of connection points: 3
#     Node 4, Type 0, BuildingBlock: OLANEW_clean_sbu_2, # of connection points: 3
#     Node 5, Type 0, BuildingBlock: OLANEW_clean_sbu_2, # of connection points: 3
#     Node 6, Type 0, BuildingBlock: OLANEW_clean_sbu_2, # of connection points: 3
#     Node 7, Type 0, BuildingBlock: OLANEW_clean_sbu_2, # of connection points: 3
#     Node 8, Type 1, BuildingBlock: NAHDIM_clean_linker_0, # of connection points: 4
#     Node 9, Type 1, BuildingBlock: NAHDIM_clean_linker_0, # of connection points: 4
#     Node 10, Type 1, BuildingBlock: NAHDIM_clean_linker_0, # of connection points: 4
#     Node 11, Type 1, BuildingBlock: NAHDIM_clean_linker_0, # of connection points: 4
#     Node 12, Type 1, BuildingBlock: NAHDIM_clean_linker_0, # of connection points: 4
#     Node 13, Type 1, BuildingBlock: NAHDIM_clean_linker_0, # of connection points: 4
#     Edge 14, Type (0, 1), BuildingBlock: CIFDUS_clean_linker_0, # of connection points: 2
#     Edge 15, Type (0, 1), BuildingBlock: CIFDUS_clean_linker_0, # of connection points: 2
#     Edge 16, Type (0, 1), BuildingBlock: CIFDUS_clean_linker_0, # of connection points: 2
#     Edge 17, Type (0, 1), BuildingBlock: CIFDUS_clean_linker_0, # of connection points: 2
#     Edge 18, Type (0, 1), BuildingBlock: CIFDUS_clean_linker_0, # of connection points: 2
#     Edge 19, Type (0, 1), BuildingBlock: CIFDUS_clean_linker_0, # of connection points: 2
#     Edge 20, Type (0, 1), BuildingBlock: CIFDUS_clean_linker_0, # of connection points: 2
#     Edge 21, Type (0, 1), BuildingBlock: CIFDUS_clean_linker_0, # of connection points: 2
#     Edge 22, Type (0, 1), BuildingBlock: CIFDUS_clean_linker_0, # of connection points: 2
#     Edge 23, Type (0, 1), BuildingBlock: CIFDUS_clean_linker_0, # of connection points: 2
#     Edge 24, Type (0, 1), BuildingBlock: CIFDUS_clean_linker_0, # of connection points: 2
#     Edge 25, Type (0, 1), BuildingBlock: CIFDUS_clean_linker_0, # of connection points: 2
#     Edge 26, Type (0, 1), BuildingBlock: CIFDUS_clean_linker_0, # of connection points: 2
#     Edge 27, Type (0, 1), BuildingBlock: CIFDUS_clean_linker_0, # of connection points: 2
#     Edge 28, Type (0, 1), BuildingBlock: CIFDUS_clean_linker_0, # of connection points: 2
#     Edge 29, Type (0, 1), BuildingBlock: CIFDUS_clean_linker_0, # of connection points: 2
#     Edge 30, Type (0, 1), BuildingBlock: CIFDUS_clean_linker_0, # of connection points: 2
#     Edge 31, Type (0, 1), BuildingBlock: CIFDUS_clean_linker_0, # of connection points: 2
#     Edge 32, Type (0, 1), BuildingBlock: CIFDUS_clean_linker_0, # of connection points: 2
#     Edge 33, Type (0, 1), BuildingBlock: CIFDUS_clean_linker_0, # of connection points: 2
#     Edge 34, Type (0, 1), BuildingBlock: CIFDUS_clean_linker_0, # of connection points: 2
#     Edge 35, Type (0, 1), BuildingBlock: CIFDUS_clean_linker_0, # of connection points: 2
#     Edge 36, Type (0, 1), BuildingBlock: CIFDUS_clean_linker_0, # of connection points: 2
#     Edge 37, Type (0, 1), BuildingBlock: CIFDUS_clean_linker_0, # of connection points: 2
# Relax obj value: 0.013
# Max RMSD: 0.132
# Mean RMSD: 0.069
data_MOF--net-pto--node1-OLANEW_clean_sbu_2--node2-NAHDIM_clean_linker_0--edge1-CIFDUS_clean_linker_0
_symmetry_space_group_name_H-M    P1
_symmetry_Int_Tables_number       1
_symmetry_cell_setting            triclinic
loop_
_symmetry_equiv_pos_as_xyz
'x, y, z'
_cell_length_a     56.450393
_cell_length_b     55.546617
_cell_length_c     52.372416
_cell_angle_alpha  92.611903
_cell_angle_beta   91.001114
_cell_angle_gamma 102.71513
loop_
_atom_site_label
_atom_site_type_symbol
_atom_site_fract_x
_atom_site_fract_y
_atom_site_fract_z
_atom_type_partial_charge
O0 O 0.31358 0.37095 0.25623 0.0
Cd1 Cd 0.27877 0.36156 0.28402 0.0
O2 O 0.32667 0.40714 0.27648 0.0
Cd3 Cd 0.29146 0.40756 0.29279 0.0
O4 O 0.25864 0.42137 0.28627 0.0
C5 C 0.25308 0.42241 0.26278 0.0
O6 O 0.26639 0.41412 0.24556 0.0
C7 C 0.33001 0.39056 0.26024 0.0
C8 C 0.28869 0.33078 0.32155 0.0
O9 O 0.27547 0.32183 0.30175 0.0
O10 O 0.29679 0.35423 0.32383 0.0
O11 O 0.27537 0.86901 0.77124 0.0
Cd12 Cd 0.25058 0.86938 0.73265 0.0
O13 O 0.28764 0.83554 0.75873 0.0
Cd14 Cd 0.25902 0.82509 0.72928 0.0
O15 O 0.22576 0.79641 0.72826 0.0
C16 C 0.21147 0.79802 0.74643 0.0
O17 O 0.21639 0.81777 0.76206 0.0
C18 C 0.28883 0.85378 0.77462 0.0
C19 C 0.2712 0.91301 0.70958 0.0
O20 O 0.25409 0.91223 0.72551 0.0
O21 O 0.27781 0.89286 0.70373 0.0
O22 O 0.78197 0.74163 0.28501 0.0
Cd23 Cd 0.76943 0.71162 0.2489 0.0
O24 O 0.77153 0.77109 0.26368 0.0
Cd25 Cd 0.75495 0.74912 0.22985 0.0
O26 O 0.7267 0.75434 0.20307 0.0
C27 C 0.71284 0.76721 0.21292 0.0
O28 O 0.71609 0.77424 0.23727 0.0
C29 C 0.78042 0.76405 0.28374 0.0
C30 C 0.80588 0.68871 0.23116 0.0
O31 O 0.80297 0.70895 0.2221 0.0
O32 O 0.79182 0.67955 0.24891 0.0
O33 O 0.78189 0.30965 0.71869 0.0
Cd34 Cd 0.74203 0.2833 0.70705 0.0
O35 O 0.7693 0.31445 0.75771 0.0
Cd36 Cd 0.73098 0.29645 0.75292 0.0
O37 O 0.69968 0.30562 0.77176 0.0
C38 C 0.70589 0.32074 0.79094 0.0
O39 O 0.7291 0.32792 0.79724 0.0
C40 C 0.7861 0.31851 0.74156 0.0
C41 C 0.74373 0.2393 0.67983 0.0
O42 O 0.74087 0.2583 0.66816 0.0
O43 O 0.74614 0.24123 0.70426 0.0
O44 O 0.73544 0.75982 0.68555 0.0
Cd45 Cd 0.7219 0.72988 0.7181 0.0
O46 O 0.75648 0.78619 0.71459 0.0
Cd47 Cd 0.74078 0.76578 0.747 0.0
O48 O 0.71663 0.76283 0.77922 0.0
C49 C 0.7034 0.77861 0.77962 0.0
O50 O 0.70513 0.79394 0.761 0.0
C51 C 0.75007 0.78035 0.69133 0.0
C52 C 0.7554 0.70057 0.72606 0.0
O53 O 0.73628 0.69247 0.71192 0.0
O54 O 0.75863 0.72239 0.73648 0.0
O55 O 0.7978 0.2605 0.19859 0.0
Cd56 Cd 0.76114 0.22858 0.20484 0.0
O57 O 0.78373 0.28643 0.22395 0.0
Cd58 Cd 0.7464 0.26513 0.22314 0.0
O59 O 0.71284 0.27343 0.20863 0.0
C60 C 0.71655 0.29009 0.19239 0.0
O61 O 0.73897 0.29897 0.1856 0.0
C62 C 0.80077 0.28143 0.21059 0.0
C63 C 0.76314 0.20484 0.25049 0.0
O64 O 0.76781 0.19483 0.22918 0.0
O65 O 0.75768 0.22602 0.25026 0.0
O66 O 0.27231 0.37302 0.84273 0.0
Cd67 Cd 0.22917 0.35374 0.8383 0.0
O68 O 0.27631 0.37578 0.80124 0.0
Cd69 Cd 0.29943 0.37937 0.768 0.0
O70 O 0.31899 0.36646 0.73645 0.0
C71 C 0.30656 0.35073 0.72027 0.0
O72 O 0.28291 0.34431 0.72279 0.0
C73 C 0.28567 0.37879 0.8237 0.0
C74 C 0.1994 0.38465 0.82328 0.0
O75 O 0.20434 0.38278 0.847 0.0
O76 O 0.20907 0.37235 0.80672 0.0
O77 O 0.3084 0.85668 0.24739 0.0
Cd78 Cd 0.27844 0.86243 0.27888 0.0
O79 O 0.28455 0.8583 0.21415 0.0
Cd80 Cd 0.25255 0.8543 0.23749 0.0
O81 O 0.22293 0.82283 0.24342 0.0
C82 C 0.22734 0.80538 0.25628 0.0
O83 O 0.24866 0.80831 0.26795 0.0
C84 C 0.30519 0.85698 0.22333 0.0
C85 C 0.29803 0.90434 0.31001 0.0
O86 O 0.30002 0.88288 0.31645 0.0
O87 O 0.28629 0.90583 0.28918 0.0
C88 C 0.8972 0.3961 0.14039 0.0
C89 C 0.91034 0.38338 0.15981 0.0
C90 C 0.93833 0.41819 0.18327 0.0
C91 C 0.94287 0.43112 0.20697 0.0
C92 C 0.96309 0.45077 0.21118 0.0
C93 C 0.97892 0.45798 0.19091 0.0
C94 C 0.97435 0.44513 0.16673 0.0
C95 C 0.95421 0.42519 0.1632 0.0
C96 C 0.96766 0.46363 0.23741 0.0
C97 C 0.99083 0.45242 0.14467 0.0
C98 C 0.16907 0.44412 0.20784 0.0
C99 C 0.14806 0.45369 0.19854 0.0
C100 C 0.1099 0.46262 0.21322 0.0
C101 C 0.10443 0.47303 0.19044 0.0
C102 C 0.08314 0.4819 0.18776 0.0
C103 C 0.06725 0.48093 0.20848 0.0
C104 C 0.07292 0.47094 0.2316 0.0
C105 C 0.09412 0.46176 0.23358 0.0
C106 C 0.07748 0.49202 0.16264 0.0
C107 C 0.05651 0.46982 0.25414 0.0
C108 C 0.1062 0.64746 0.22088 0.0
C109 C 0.1002 0.63507 0.19679 0.0
C110 C 0.07869 0.61695 0.19282 0.0
C111 C 0.06309 0.61057 0.21346 0.0
C112 C 0.0691 0.62279 0.23775 0.0
C113 C 0.09057 0.64115 0.2411 0.0
C114 C 0.07275 0.60444 0.16655 0.0
C115 C 0.05295 0.61627 0.2602 0.0
C116 C 0.87395 0.58589 0.15521 0.0
C117 C 0.88727 0.59611 0.18041 0.0
C118 C 0.93139 0.60292 0.18162 0.0
C119 C 0.94951 0.60478 0.16355 0.0
C120 C 0.97114 0.59716 0.16881 0.0
C121 C 0.97493 0.58817 0.19309 0.0
C122 C 0.95709 0.58743 0.2119 0.0
C123 C 0.9354 0.59465 0.20589 0.0
C124 C 0.98977 0.59843 0.14832 0.0
C125 C 0.96091 0.57895 0.23832 0.0
C126 C 0.00084 0.47819 0.19542 0.0
C127 C 0.02297 0.47157 0.19994 0.0
C128 C 0.04424 0.48945 0.2055 0.0
C129 C 0.04343 0.51474 0.20722 0.0
C130 C 0.06428 0.53315 0.21382 0.0
C131 C 0.06342 0.55801 0.21488 0.0
C132 C 0.04168 0.56541 0.20934 0.0
C133 C 0.04082 0.59067 0.20961 0.0
C134 C 0.01881 0.59741 0.20463 0.0
C135 C -0.00247 0.57957 0.19874 0.0
C136 C -0.00184 0.55419 0.19771 0.0
C137 C 0.97732 0.53572 0.19109 0.0
C138 C 0.97813 0.51082 0.1903 0.0
C139 C -0.00016 0.50343 0.19595 0.0
C140 C 0.02118 0.52175 0.20216 0.0
C141 C 0.02031 0.54713 0.20318 0.0
C142 C 0.16257 0.65971 0.20426 0.0
C143 C 0.14363 0.67554 0.2079 0.0
O144 O 0.91841 0.39928 0.18088 0.0
O145 O 0.91034 0.60944 0.1752 0.0
O146 O 0.12675 0.6654 0.22553 0.0
O147 O 0.12997 0.45313 0.21622 0.0
H148 H 0.92602 0.37761 0.15072 0.0
H149 H 0.90962 0.41273 0.1335 0.0
H150 H 0.88145 0.4019 0.14922 0.0
H151 H 0.89062 0.3833 0.12357 0.0
H152 H 0.93054 0.42555 0.22233 0.0
H153 H 0.95105 0.41531 0.14475 0.0
H154 H 0.98655 0.46426 0.24418 0.0
H155 H 0.9549 0.45432 0.25167 0.0
H156 H 0.96559 0.48297 0.23641 0.0
H157 H 0.98328 0.44257 0.12638 0.0
H158 H 0.00875 0.44809 0.14875 0.0
H159 H -0.0061 0.47264 0.14236 0.0
H160 H 0.14096 0.44635 0.17905 0.0
H161 H 0.16904 0.42724 0.19506 0.0
H162 H 0.16282 0.43329 0.22511 0.0
H163 H 0.19813 0.47558 0.20945 0.0
H164 H 0.11652 0.47406 0.17453 0.0
H165 H 0.0985 0.45382 0.2511 0.0
H166 H 0.0588 0.48293 0.15572 0.0
H167 H 0.09046 0.48931 0.14764 0.0
H168 H 0.07823 0.5121 0.16541 0.0
H169 H 0.06475 0.46401 0.27159 0.0
H170 H 0.03909 0.45646 0.24942 0.0
H171 H 0.05226 0.48818 0.25831 0.0
H172 H 0.13456 0.67607 0.18898 0.0
H173 H 0.11213 0.6392 0.18091 0.0
H174 H 0.09533 0.65065 0.25963 0.0
H175 H 0.07413 0.58484 0.16708 0.0
H176 H 0.08523 0.61344 0.15189 0.0
H177 H 0.05381 0.60461 0.1606 0.0
H178 H 0.06075 0.62665 0.27814 0.0
H179 H 0.04999 0.59616 0.26313 0.0
H180 H 0.03492 0.62039 0.25611 0.0
H181 H 0.88833 0.57981 0.19167 0.0
H182 H 0.85537 0.57513 0.15889 0.0
H183 H 0.88401 0.57341 0.14509 0.0
H184 H 0.87258 0.60109 0.14257 0.0
H185 H 0.94634 0.61156 0.145 0.0
H186 H 0.92169 0.59408 0.2202 0.0
H187 H -0.00504 0.58034 0.14561 0.0
H188 H 0.00642 0.61241 0.15437 0.0
H189 H 0.98305 0.60352 0.1297 0.0
H190 H 0.94672 0.58227 0.25163 0.0
H191 H 0.97901 0.58867 0.24637 0.0
H192 H 0.96052 0.55887 0.23717 0.0
H193 H 0.02366 0.45217 0.19905 0.0
H194 H 0.08152 0.52854 0.2182 0.0
H195 H 0.08006 0.57137 0.22005 0.0
H196 H 0.01834 0.61685 0.20488 0.0
H197 H 0.96013 0.54029 0.18643 0.0
H198 H 0.96153 0.49741 0.1851 0.0
H199 H 0.17065 0.65638 0.22289 0.0
H200 H 0.17725 0.66892 0.19184 0.0
H201 H 0.15394 0.64147 0.19496 0.0
C202 C 0.06782 0.43281 0.80965 0.0
C203 C 0.09021 0.45269 0.80348 0.0
C204 C 0.07325 0.48896 0.81021 0.0
C205 C 0.06789 0.4934 0.78482 0.0
C206 C 0.04946 0.50576 0.77906 0.0
C207 C 0.03614 0.51378 0.79911 0.0
C208 C 0.04238 0.51048 0.82482 0.0
C209 C 0.06114 0.49834 0.83004 0.0
C210 C 0.04378 0.50966 0.75149 0.0
C211 C 0.02865 0.51897 0.84668 0.0
C212 C 0.85403 0.40463 0.78585 0.0
C213 C 0.87432 0.42577 0.79359 0.0
C214 C 0.90594 0.45738 0.77598 0.0
C215 C 0.91555 0.46786 0.79997 0.0
C216 C 0.93641 0.48701 0.8019 0.0
C217 C 0.94834 0.49558 0.77946 0.0
C218 C 0.93887 0.48508 0.75528 0.0
C219 C 0.91758 0.46628 0.75386 0.0
C220 C 0.94593 0.4978 0.82806 0.0
C221 C 0.95146 0.49347 0.73103 0.0
C222 C 0.91177 0.64364 0.75554 0.0
C223 C 0.91285 0.63484 0.78007 0.0
C224 C 0.93344 0.62687 0.7886 0.0
C225 C 0.95293 0.62701 0.77185 0.0
C226 C 0.95194 0.63633 0.74722 0.0
C227 C 0.93149 0.64497 0.73958 0.0
C228 C 0.93431 0.61824 0.81545 0.0
C229 C 0.97233 0.63696 0.72883 0.0
C230 C 0.14501 0.68394 0.83868 0.0
C231 C 0.12799 0.68807 0.81707 0.0
C232 C 0.08374 0.67581 0.818 0.0
C233 C 0.06534 0.66876 0.83539 0.0
C234 C 0.04304 0.65327 0.82755 0.0
C235 C 0.03901 0.6451 0.80153 0.0
C236 C 0.05698 0.65353 0.78352 0.0
C237 C 0.07921 0.66884 0.79195 0.0
C238 C 0.02413 0.64489 0.84718 0.0
C239 C 0.05295 0.64571 0.75554 0.0
C240 C 0.01454 0.5238 0.79299 0.0
C241 C 0.99261 0.50684 0.78758 0.0
C242 C 0.97136 0.51467 0.78173 0.0
C243 C 0.97201 0.54019 0.78055 0.0
C244 C 0.95117 0.54871 0.77392 0.0
C245 C 0.95198 0.57389 0.77305 0.0
C246 C 0.97343 0.59154 0.7797 0.0
C247 C 0.97424 0.61722 0.77982 0.0
C248 C -0.00419 0.63418 0.78697 0.0
C249 C 0.01683 0.62625 0.79359 0.0
C250 C 0.01653 0.6007 0.79306 0.0
C251 C 0.03752 0.59213 0.79916 0.0
C252 C 0.03702 0.56697 0.79876 0.0
C253 C 0.01542 0.54941 0.79274 0.0
C254 C -0.00594 0.55762 0.78642 0.0
C255 C -0.00532 0.58331 0.78636 0.0
C256 C 0.86685 0.61889 0.72157 0.0
C257 C 0.86868 0.63687 0.7451 0.0
O258 O 0.08937 0.475 0.81608 0.0
O259 O 0.10563 0.68906 0.82707 0.0
O260 O 0.89207 0.6514 0.74698 0.0
O261 O 0.88575 0.43867 0.77351 0.0
H262 H 0.09026 0.45471 0.78247 0.0
H263 H 0.05104 0.43793 0.80252 0.0
H264 H 0.06657 0.4308 0.83063 0.0
H265 H 0.06875 0.41473 0.8002 0.0
H266 H 0.07794 0.48718 0.76941 0.0
H267 H 0.06566 0.4951 0.84959 0.0
H268 H 0.02559 0.49818 0.74583 0.0
H269 H 0.05736 0.50464 0.73834 0.0
H270 H 0.04315 0.52929 0.74915 0.0
H271 H 0.03574 0.515 0.86558 0.0
H272 H 0.00914 0.50964 0.84466 0.0
H273 H 0.02986 0.53915 0.84613 0.0
H274 H 0.86984 0.43801 0.80942 0.0
H275 H 0.86667 0.37345 0.79714 0.0
H276 H 0.84897 0.4073 0.76541 0.0
H277 H 0.8373 0.40966 0.79394 0.0
H278 H 0.907 0.46123 0.81738 0.0
H279 H 0.91016 0.45811 0.73543 0.0
H280 H 0.94955 0.51829 0.82844 0.0
H281 H 0.96337 0.49252 0.83238 0.0
H282 H 0.93306 0.49119 0.84336 0.0
H283 H 0.94224 0.4829 0.71376 0.0
H284 H 0.97054 0.49131 0.73203 0.0
H285 H 0.95199 0.51339 0.72901 0.0
H286 H 0.86463 0.62599 0.76243 0.0
H287 H 0.89776 0.63458 0.79264 0.0
H288 H 0.9305 0.65215 0.72079 0.0
H289 H 0.93168 0.59783 0.81476 0.0
H290 H 0.91994 0.6234 0.82738 0.0
H291 H 0.9523 0.62622 0.82482 0.0
H292 H 0.9675 0.64202 0.70944 0.0
H293 H 0.97725 0.61867 0.72725 0.0
H294 H 0.98864 0.65073 0.73618 0.0
H295 H 0.12628 0.67191 0.80321 0.0
H296 H 0.16311 0.68312 0.83114 0.0
H297 H 0.13734 0.66614 0.84743 0.0
H298 H 0.14729 0.69903 0.85381 0.0
H299 H 0.0689 0.67464 0.85538 0.0
H300 H 0.09305 0.67516 0.77822 0.0
H301 H 0.0207 0.62449 0.84818 0.0
H302 H 0.00674 0.64957 0.84138 0.0
H303 H 0.02978 0.6535 0.86653 0.0
H304 H 0.0678 0.65551 0.74367 0.0
H305 H 0.03544 0.6493 0.7485 0.0
H306 H 0.05179 0.62553 0.75297 0.0
H307 H 0.99195 0.48722 0.78846 0.0
H308 H 0.93404 0.536 0.76912 0.0
H309 H 0.93544 0.57932 0.76745 0.0
H310 H -0.00373 0.65383 0.78729 0.0
H311 H 0.05462 0.60476 0.80428 0.0
H312 H 0.05373 0.56144 0.80354 0.0
H313 H 0.86933 0.62922 0.70377 0.0
H314 H 0.84909 0.60546 0.72035 0.0
H315 H 0.88114 0.60805 0.72283 0.0
C316 C 0.32947 0.2687 0.66302 0.0
C317 C 0.34215 0.25097 0.65013 0.0
C318 C 0.33209 0.20894 0.63043 0.0
C319 C 0.35513 0.20955 0.62037 0.0
C320 C 0.35944 0.18949 0.60526 0.0
C321 C 0.34022 0.16866 0.59976 0.0
C322 C 0.31704 0.16805 0.60988 0.0
C323 C 0.31337 0.18816 0.62526 0.0
C324 C 0.38448 0.19057 0.59507 0.0
C325 C 0.29611 0.14622 0.60433 0.0
C326 C 0.38957 0.03207 0.68518 0.0
C327 C 0.36781 0.03083 0.66698 0.0
C328 C 0.36945 0.04959 0.62594 0.0
C329 C 0.34539 0.05224 0.62367 0.0
C330 C 0.33929 0.06983 0.60788 0.0
C331 C 0.35777 0.08544 0.59458 0.0
C332 C 0.38198 0.08229 0.59638 0.0
C333 C 0.38736 0.06395 0.61163 0.0
C334 C 0.31319 0.07213 0.60602 0.0
C335 C 0.40236 0.09884 0.58301 0.0
C336 C 0.35977 0.04833 0.42041 0.0
C337 C 0.33684 0.05343 0.42339 0.0
C338 C 0.33316 0.0717 0.44127 0.0
C339 C 0.35328 0.08614 0.45551 0.0
C340 C 0.37667 0.08117 0.45239 0.0
C341 C 0.37954 0.06185 0.43529 0.0
C342 C 0.30783 0.07585 0.44442 0.0
C343 C 0.39876 0.09674 0.46645 0.0
C344 C 0.33818 0.26856 0.45635 0.0
C345 C 0.34317 0.25857 0.42965 0.0
C346 C 0.33453 0.21404 0.43712 0.0
C347 C 0.31557 0.19311 0.43693 0.0
C348 C 0.31812 0.17189 0.44928 0.0
C349 C 0.34056 0.17137 0.46147 0.0
C350 C 0.3602 0.19217 0.46088 0.0
C351 C 0.3569 0.21342 0.44904 0.0
C352 C 0.29674 0.15014 0.44942 0.0
C353 C 0.38467 0.19205 0.47292 0.0
C354 C 0.3442 0.1476 0.58317 0.0
C355 C 0.34893 0.12701 0.59492 0.0
C356 C 0.35214 0.10622 0.58049 0.0
C357 C 0.35062 0.10588 0.55347 0.0
C358 C 0.3528 0.08497 0.53831 0.0
C359 C 0.35219 0.08522 0.51174 0.0
C360 C 0.34959 0.10646 0.49932 0.0
C361 C 0.35 0.10733 0.47237 0.0
C362 C 0.34712 0.12872 0.46071 0.0
C363 C 0.34339 0.14926 0.47517 0.0
C364 C 0.3427 0.14865 0.50212 0.0
C365 C 0.33839 0.16874 0.51724 0.0
C366 C 0.33859 0.16833 0.54376 0.0
C367 C 0.34316 0.14784 0.5562 0.0
C368 C 0.34667 0.12702 0.54132 0.0
C369 C 0.34631 0.12737 0.51423 0.0
C370 C 0.39965 0.01988 0.39116 0.0
C371 C 0.37487 0.01288 0.4036 0.0
O372 O 0.32708 0.22785 0.64516 0.0
O373 O 0.33037 0.23428 0.42566 0.0
O374 O 0.36249 0.03167 0.40161 0.0
O375 O 0.37597 0.03377 0.64227 0.0
H376 H 0.36014 0.2503 0.65887 0.0
H377 H 0.31229 0.25747 0.67091 0.0
H378 H 0.32928 0.29559 0.63577 0.0
H379 H 0.33894 0.27325 0.68232 0.0
H380 H 0.36981 0.22554 0.62429 0.0
H381 H 0.29569 0.18787 0.63315 0.0
H382 H 0.39074 0.17363 0.59971 0.0
H383 H 0.39799 0.20698 0.60301 0.0
H384 H 0.38381 0.19129 0.57393 0.0
H385 H 0.27877 0.14945 0.61196 0.0
H386 H 0.30015 0.1297 0.61308 0.0
H387 H 0.29373 0.14205 0.58338 0.0
H388 H 0.3594 0.04646 0.67319 0.0
H389 H 0.38348 0.02985 0.70517 0.0
H390 H 0.40238 0.05031 0.68428 0.0
H391 H 0.3994 0.01738 0.67986 0.0
H392 H 0.33142 0.04065 0.63434 0.0
H393 H 0.40585 0.06154 0.61342 0.0
H394 H 0.30797 0.07493 0.58601 0.0
H395 H 0.31104 0.08845 0.61803 0.0
H396 H 0.30052 0.05556 0.61283 0.0
H397 H 0.42049 0.09612 0.58913 0.0
H398 H 0.40186 0.11855 0.58684 0.0
H399 H 0.40011 0.09484 0.56205 0.0
H400 H 0.37771 0.00939 0.42411 0.0
H401 H 0.32174 0.0429 0.41166 0.0
H402 H 0.39737 0.05812 0.43282 0.0
H403 H 0.30417 0.07907 0.46492 0.0
H404 H 0.29379 0.05993 0.43634 0.0
H405 H 0.3061 0.09249 0.43426 0.0
H406 H 0.41594 0.09267 0.45928 0.0
H407 H 0.39778 0.09318 0.48711 0.0
H408 H 0.39934 0.11669 0.4645 0.0
H409 H 0.36296 0.25955 0.42794 0.0
H410 H 0.34841 0.28798 0.45982 0.0
H411 H 0.34408 0.25741 0.47129 0.0
H412 H 0.31846 0.26779 0.45831 0.0
H413 H 0.29845 0.19367 0.42753 0.0
H414 H 0.37192 0.2293 0.44911 0.0
H415 H 0.29399 0.14336 0.46901 0.0
H416 H 0.30048 0.13486 0.43688 0.0
H417 H 0.27968 0.15477 0.4424 0.0
H418 H 0.39898 0.20794 0.46737 0.0
H419 H 0.39029 0.17465 0.46732 0.0
H420 H 0.38343 0.19301 0.49405 0.0
H421 H 0.3501 0.12718 0.61564 0.0
H422 H 0.35512 0.06823 0.54685 0.0
H423 H 0.35406 0.06863 0.50105 0.0
H424 H 0.34771 0.12936 0.44005 0.0
H425 H 0.33494 0.18509 0.50876 0.0
H426 H 0.33532 0.18441 0.55439 0.0
H427 H 0.39749 0.02417 0.37085 0.0
H428 H 0.40915 0.00439 0.392 0.0
H429 H 0.41134 0.03628 0.40132 0.0
C430 C 0.42296 0.80066 0.16485 0.0
C431 C 0.42078 0.82544 0.15443 0.0
C432 C 0.43086 0.82222 0.11005 0.0
C433 C 0.44854 0.84358 0.10609 0.0
C434 C 0.46619 0.8434 0.08761 0.0
C435 C 0.46627 0.82122 0.07318 0.0
C436 C 0.44804 0.79975 0.07684 0.0
C437 C 0.43023 0.80069 0.095 0.0
C438 C 0.48504 0.86676 0.08389 0.0
C439 C 0.44775 0.7757 0.0621 0.0
C440 C 0.65171 0.83352 0.08876 0.0
C441 C 0.63467 0.81845 0.10762 0.0
C442 C 0.59496 0.80618 0.08492 0.0
C443 C 0.57783 0.78611 0.07404 0.0
C444 C 0.5558 0.78922 0.06336 0.0
C445 C 0.55095 0.81314 0.06335 0.0
C446 C 0.56808 0.83356 0.07446 0.0
C447 C 0.58988 0.8299 0.08521 0.0
C448 C 0.53783 0.76701 0.05182 0.0
C449 C 0.56345 0.85932 0.07467 0.0
C450 C 0.58305 0.82791 0.89908 0.0
C451 C 0.5679 0.80537 0.90497 0.0
C452 C 0.54685 0.80488 0.91896 0.0
C453 C 0.541 0.82742 0.92729 0.0
C454 C 0.55573 0.85013 0.92046 0.0
C455 C 0.57647 0.85004 0.90611 0.0
C456 C 0.53107 0.78033 0.92521 0.0
C457 C 0.54991 0.87446 0.92888 0.0
C458 C 0.36076 0.84767 0.9195 0.0
C459 C 0.37622 0.84876 0.89566 0.0
C460 C 0.41062 0.831 0.90919 0.0
C461 C 0.41883 0.80906 0.90934 0.0
C462 C 0.44038 0.80787 0.92245 0.0
C463 C 0.45441 0.82944 0.93523 0.0
C464 C 0.44644 0.85187 0.93489 0.0
C465 C 0.4244 0.85233 0.92227 0.0
C466 C 0.44817 0.78357 0.92252 0.0
C467 C 0.4613 0.87539 0.94771 0.0
C468 C 0.4863 0.82018 0.05549 0.0
C469 C 0.5083 0.81719 0.06612 0.0
C470 C 0.52831 0.81689 0.05091 0.0
C471 C 0.52655 0.81992 0.02436 0.0
C472 C 0.54663 0.82058 0.00869 0.0
C473 C 0.54469 0.82327 0.98254 0.0
C474 C 0.52252 0.82511 0.97099 0.0
C475 C 0.52025 0.82725 0.94432 0.0
C476 C 0.49797 0.82895 0.93339 0.0
C477 C 0.47767 0.82855 0.94842 0.0
C478 C 0.47961 0.82663 0.9752 0.0
C479 C 0.45965 0.82638 0.99098 0.0
C480 C 0.46187 0.82472 0.01734 0.0
C481 C 0.48392 0.82243 0.02882 0.0
C482 C 0.50419 0.82238 0.01323 0.0
C483 C 0.50211 0.82477 0.98646 0.0
C484 C 0.63947 0.83048 0.91166 0.0
C485 C 0.62137 0.81578 0.89148 0.0
O486 O 0.41446 0.82202 0.12861 0.0
O487 O 0.38953 0.83056 0.89602 0.0
O488 O 0.60379 0.82892 0.88613 0.0
O489 O 0.61606 0.80176 0.09457 0.0
H490 H 0.43867 0.8387 0.15732 0.0
H491 H 0.43704 0.79334 0.1544 0.0
H492 H 0.40537 0.78697 0.16241 0.0
H493 H 0.42842 0.80295 0.18546 0.0
H494 H 0.44853 0.86032 0.11755 0.0
H495 H 0.41629 0.78437 0.09823 0.0
H496 H 0.50292 0.86459 0.09137 0.0
H497 H 0.48051 0.88314 0.09397 0.0
H498 H 0.48686 0.87021 0.06321 0.0
H499 H 0.43324 0.76034 0.06837 0.0
H500 H 0.46558 0.7706 0.06451 0.0
H501 H 0.44482 0.77791 0.04141 0.0
H502 H 0.62699 0.83145 0.12005 0.0
H503 H 0.659 0.8212 0.07516 0.0
H504 H 0.66713 0.84619 0.0993 0.0
H505 H 0.6419 0.84488 0.0775 0.0
H506 H 0.58183 0.7679 0.0739 0.0
H507 H 0.60284 0.84574 0.09345 0.0
H508 H 0.53581 0.76892 0.03094 0.0
H509 H 0.51971 0.76599 0.0602 0.0
H510 H 0.54355 0.74945 0.05494 0.0
H511 H 0.57897 0.87344 0.08321 0.0
H512 H 0.54702 0.85997 0.08578 0.0
H513 H 0.55989 0.86419 0.05485 0.0
H514 H 0.61306 0.79765 0.89924 0.0
H515 H 0.57234 0.78816 0.89846 0.0
H516 H 0.58809 0.8673 0.90099 0.0
H517 H 0.53211 0.77805 0.94612 0.0
H518 H 0.5367 0.76454 0.91515 0.0
H519 H 0.5118 0.77973 0.91993 0.0
H520 H 0.5634 0.89053 0.92227 0.0
H521 H 0.5494 0.876 0.95007 0.0
H522 H 0.53163 0.87527 0.92126 0.0
H523 H 0.38858 0.86729 0.89517 0.0
H524 H 0.35013 0.8623 0.91961 0.0
H525 H 0.37262 0.85067 0.93701 0.0
H526 H 0.34804 0.82933 0.92006 0.0
H527 H 0.4081 0.7927 0.89924 0.0
H528 H 0.41836 0.86949 0.92261 0.0
H529 H 0.4528 0.77949 0.94233 0.0
H530 H 0.46473 0.7848 0.91109 0.0
H531 H 0.43386 0.76796 0.91431 0.0
H532 H 0.45411 0.89182 0.94314 0.0
H533 H 0.48046 0.8784 0.94173 0.0
H534 H 0.46124 0.8738 0.96875 0.0
H535 H 0.5099 0.81513 0.08655 0.0
H536 H 0.56411 0.81907 0.01645 0.0
H537 H 0.56079 0.82372 0.9715 0.0
H538 H 0.49637 0.8304 0.91287 0.0
H539 H 0.44212 0.82765 0.98317 0.0
H540 H 0.446 0.82494 0.02857 0.0
H541 H 0.64831 0.84881 0.90468 0.0
H542 H 0.65368 0.82021 0.91629 0.0
H543 H 0.62987 0.8334 0.92948 0.0
C544 C 0.7202 0.08493 0.63873 0.0
C545 C 0.74264 0.10111 0.62728 0.0
C546 C 0.74447 0.08287 0.58491 0.0
C547 C 0.76835 0.08011 0.58227 0.0
C548 C 0.77348 0.06096 0.5664 0.0
C549 C 0.75418 0.04401 0.55327 0.0
C550 C 0.73004 0.04705 0.55569 0.0
C551 C 0.72555 0.0668 0.57117 0.0
C552 C 0.79947 0.05856 0.56408 0.0
C553 C 0.70894 0.02909 0.54248 0.0
C554 C 0.81822 0.88578 0.58431 0.0
C555 C 0.80205 0.89438 0.60445 0.0
C556 C 0.77887 0.9196 0.58105 0.0
C557 C 0.75592 0.9203 0.57111 0.0
C558 C 0.7521 0.94066 0.558 0.0
C559 C 0.77184 0.96082 0.55472 0.0
C560 C 0.79506 0.96049 0.56507 0.0
C561 C 0.79837 0.93991 0.57812 0.0
C562 C 0.72709 0.94044 0.5472 0.0
C563 C 0.81647 0.98173 0.56189 0.0
C564 C 0.80236 0.91898 0.3941 0.0
C565 C 0.77782 0.91632 0.4001 0.0
C566 C 0.76948 0.93613 0.41164 0.0
C567 C 0.78615 0.95886 0.41759 0.0
C568 C 0.81072 0.96175 0.41074 0.0
C569 C 0.8184 0.94182 0.39871 0.0
C570 C 0.74295 0.93272 0.41769 0.0
C571 C 0.82898 0.98575 0.41652 0.0
C572 C 0.73396 0.12518 0.38595 0.0
C573 C 0.75377 0.1177 0.3697 0.0
C574 C 0.75307 0.07555 0.38212 0.0
C575 C 0.73526 0.05413 0.38517 0.0
C576 C 0.73932 0.03596 0.4014 0.0
C577 C 0.76211 0.03903 0.41428 0.0
C578 C 0.78046 0.06046 0.41083 0.0
C579 C 0.77569 0.07862 0.39489 0.0
C580 C 0.71932 0.0134 0.40462 0.0
C581 C 0.80524 0.06392 0.4236 0.0
C582 C 0.75921 0.0224 0.53828 0.0
C583 C 0.76264 0.00222 0.5518 0.0
C584 C 0.76847 0.98164 0.53926 0.0
C585 C 0.77112 0.98106 0.51247 0.0
C586 C 0.77778 0.96098 0.49942 0.0
C587 C 0.78039 0.96052 0.47308 0.0
C588 C 0.77598 0.9799 0.45866 0.0
C589 C 0.7782 0.97937 0.43179 0.0
C590 C 0.77358 -0.00111 0.41804 0.0
C591 C 0.76704 0.01924 0.43038 0.0
C592 C 0.76506 0.02027 0.4573 0.0
C593 C 0.75893 0.04062 0.47045 0.0
C594 C 0.75734 0.04155 0.49699 0.0
C595 C 0.76114 0.02187 0.51134 0.0
C596 C 0.76716 0.0011 0.49843 0.0
C597 C 0.76936 0.00042 0.47144 0.0
C598 C 0.82782 0.87308 0.40746 0.0
C599 C 0.80623 0.87599 0.39057 0.0
O600 O 0.73938 0.10078 0.60095 0.0
O601 O 0.74818 0.09219 0.36574 0.0
O602 O 0.81098 0.90019 0.38304 0.0
O603 O 0.78128 0.89893 0.59294 0.0
H604 H 0.75872 0.09343 0.63214 0.0
H605 H 0.71749 0.06563 0.63073 0.0
H606 H 0.70371 0.09196 0.63421 0.0
H607 H 0.72253 0.08472 0.65982 0.0
H608 H 0.78291 0.09293 0.59274 0.0
H609 H 0.70716 0.06926 0.57335 0.0
H610 H 0.80204 0.04219 0.57425 0.0
H611 H 0.81256 0.0751 0.57242 0.0
H612 H 0.80372 0.05567 0.54369 0.0
H613 H 0.69115 0.03294 0.54793 0.0
H614 H 0.7093 0.0099 0.54729 0.0
H615 H 0.71052 0.03014 0.52146 0.0
H616 H 0.81252 0.91154 0.61464 0.0
H617 H 0.83448 0.88144 0.5937 0.0
H618 H 0.82453 0.90052 0.57081 0.0
H619 H 0.80811 0.86909 0.57313 0.0
H620 H 0.74097 0.90464 0.57346 0.0
H621 H 0.81631 0.93982 0.5856 0.0
H622 H 0.72763 0.94062 0.52603 0.0
H623 H 0.72123 0.95733 0.55418 0.0
H624 H 0.71338 0.92394 0.55251 0.0
H625 H 0.83335 0.9788 0.57124 0.0
H626 H 0.81241 -0.00093 0.57021 0.0
H627 H 0.81971 0.98426 0.54124 0.0
H628 H 0.78964 0.87185 0.40216 0.0
H629 H 0.76513 0.89894 0.39545 0.0
H630 H 0.83719 0.94377 0.39347 0.0
H631 H 0.74086 0.93238 0.43871 0.0
H632 H 0.73183 0.91525 0.40878 0.0
H633 H 0.73575 0.94847 0.41097 0.0
H634 H 0.84771 0.98445 0.41151 0.0
H635 H 0.82886 0.99128 0.43716 0.0
H636 H 0.82386 0.00057 0.40556 0.0
H637 H 0.77152 0.12412 0.38009 0.0
H638 H 0.73839 0.14533 0.391 0.0
H639 H 0.73239 0.11541 0.4041 0.0
H640 H 0.71611 0.12021 0.3755 0.0
H641 H 0.71799 0.05183 0.37494 0.0
H642 H 0.78992 0.09469 0.39181 0.0
H643 H 0.7163 0.01048 0.42525 0.0
H644 H 0.7248 0.99683 0.39614 0.0
H645 H 0.70193 0.01492 0.39526 0.0
H646 H 0.81798 0.0809 0.41781 0.0
H647 H 0.81314 0.04771 0.41876 0.0
H648 H 0.80353 0.06509 0.44467 0.0
H649 H 0.76093 0.00261 0.57241 0.0
H650 H 0.7812 0.9454 0.50942 0.0
H651 H 0.78575 0.94465 0.46418 0.0
H652 H 0.77522 -0.00169 0.39741 0.0
H653 H 0.7555 0.05615 0.46038 0.0
H654 H 0.75286 0.0578 0.5061 0.0
H655 H 0.84428 0.87398 0.39589 0.0
H656 H 0.8237 0.8554 0.41724 0.0
H657 H 0.83184 0.8882 0.4226 0.0
C658 C 0.45999 0.38383 0.17821 0.0
C659 C 0.44184 0.39736 0.16646 0.0
C660 C 0.45303 0.39373 0.12183 0.0
C661 C 0.47051 0.41595 0.12066 0.0
C662 C 0.48798 0.41891 0.10165 0.0
C663 C 0.48822 0.39912 0.08373 0.0
C664 C 0.47006 0.37703 0.08434 0.0
C665 C 0.45238 0.37488 0.10311 0.0
C666 C 0.50658 0.44299 0.10113 0.0
C667 C 0.46987 0.35528 0.06589 0.0
C668 C 0.63019 0.39426 0.16538 0.0
C669 C 0.62809 0.37399 0.14416 0.0
C670 C 0.61253 0.38663 0.10467 0.0
C671 C 0.59404 0.36604 0.0974 0.0
C672 C 0.57421 0.36858 0.08207 0.0
C673 C 0.57288 0.39225 0.07402 0.0
C674 C 0.5921 0.41285 0.08041 0.0
C675 C 0.61193 0.40965 0.09538 0.0
C676 C 0.55436 0.34611 0.07506 0.0
C677 C 0.59121 0.43837 0.0723 0.0
C678 C 0.59272 0.38779 0.89976 0.0
C679 C 0.57448 0.36799 0.90665 0.0
C680 C 0.55717 0.3713 0.92461 0.0
C681 C 0.55805 0.39516 0.93578 0.0
C682 C 0.57652 0.41531 0.92908 0.0
C683 C 0.59379 0.41142 0.91128 0.0
C684 C 0.53781 0.34934 0.93146 0.0
C685 C 0.57783 0.44102 0.94053 0.0
C686 C 0.37661 0.40247 0.87994 0.0
C687 C 0.40116 0.4142 0.89074 0.0
C688 C 0.42857 0.40472 0.92357 0.0
C689 C 0.43204 0.38449 0.93677 0.0
C690 C 0.45474 0.38398 0.94765 0.0
C691 C 0.47409 0.40504 0.94666 0.0
C692 C 0.47056 0.42583 0.93359 0.0
C693 C 0.44788 0.42528 0.92177 0.0
C694 C 0.45786 0.36079 0.96003 0.0
C695 C 0.49064 0.44868 0.93228 0.0
C696 C 0.50882 0.40049 0.06618 0.0
C697 C 0.53075 0.39719 0.07658 0.0
C698 C 0.55038 0.39582 0.06115 0.0
C699 C 0.54804 0.39724 0.03438 0.0
C700 C 0.56692 0.39452 0.01811 0.0
C701 C 0.56414 0.39532 0.99171 0.0
C702 C 0.54241 0.39898 0.98062 0.0
C703 C 0.5391 0.39913 0.9538 0.0
C704 C 0.51698 0.402 0.94342 0.0
C705 C 0.49795 0.40503 0.95909 0.0
C706 C 0.50117 0.40571 0.98598 0.0
C707 C 0.48269 0.40948 0.00238 0.0
C708 C 0.48526 0.40813 0.02871 0.0
C709 C 0.50653 0.40331 0.03964 0.0
C710 C 0.52603 0.4011 0.02362 0.0
C711 C 0.52328 0.40215 -0.00327 0.0
C712 C 0.61967 0.41545 0.85241 0.0
C713 C 0.62817 0.39975 0.87255 0.0
O714 O 0.43691 0.3896 0.14098 0.0
O715 O 0.40623 0.40377 0.91317 0.0
O716 O 0.60852 0.38319 0.8818 0.0
O717 O 0.63105 0.38477 0.12072 0.0
H718 H 0.44975 0.41756 0.168 0.0
H719 H 0.47756 0.38842 0.16838 0.0
H720 H 0.45286 0.3635 0.17631 0.0
H721 H 0.46348 0.38954 0.19879 0.0
H722 H 0.47066 0.43104 0.13449 0.0
H723 H 0.43863 0.35793 0.10403 0.0
H724 H 0.52433 0.44034 0.10852 0.0
H725 H 0.50134 0.45792 0.11309 0.0
H726 H 0.50907 0.44898 0.08122 0.0
H727 H 0.45622 0.33857 0.0708 0.0
H728 H 0.48807 0.35073 0.0657 0.0
H729 H 0.46555 0.36006 0.04627 0.0
H730 H 0.60972 0.36164 0.14519 0.0
H731 H 0.62776 0.38602 0.18437 0.0
H732 H 0.61585 0.40481 0.16248 0.0
H733 H 0.64822 0.40728 0.16525 0.0
H734 H 0.59506 0.34804 0.10387 0.0
H735 H 0.62656 0.42533 0.10084 0.0
H736 H 0.5495 0.34546 0.05435 0.0
H737 H 0.53785 0.34727 0.08584 0.0
H738 H 0.55974 0.32867 0.07955 0.0
H739 H 0.60737 0.45255 0.07937 0.0
H740 H 0.57462 0.44363 0.07965 0.0
H741 H 0.59018 0.4384 0.05112 0.0
H742 H 0.63775 0.41218 0.88855 0.0
H743 H 0.5738 0.34983 0.89776 0.0
H744 H 0.60778 0.42702 0.90635 0.0
H745 H 0.53738 0.348 0.95255 0.0
H746 H 0.54079 0.33171 0.92266 0.0
H747 H 0.51975 0.35185 0.92487 0.0
H748 H 0.59282 0.45493 0.9327 0.0
H749 H 0.58059 0.44121 0.96158 0.0
H750 H 0.56038 0.44655 0.9368 0.0
H751 H 0.40578 0.43479 0.89182 0.0
H752 H 0.36637 0.41776 0.88059 0.0
H753 H 0.36607 0.3923 0.89576 0.0
H754 H 0.38354 0.38443 0.84534 0.0
H755 H 0.41695 0.36871 0.93792 0.0
H756 H 0.44512 0.4411 0.91174 0.0
H757 H 0.45664 0.36329 0.98107 0.0
H758 H 0.47587 0.35678 0.95588 0.0
H759 H 0.44351 0.34449 0.95342 0.0
H760 H 0.48397 0.46445 0.92478 0.0
H761 H 0.5049 0.44461 0.91951 0.0
H762 H 0.49919 0.45425 0.95152 0.0
H763 H 0.53245 0.39521 0.09702 0.0
H764 H 0.58396 0.39147 0.02561 0.0
H765 H 0.57918 0.39285 0.98008 0.0
H766 H 0.51431 0.4012 0.9228 0.0
H767 H 0.46586 0.41313 -0.00501 0.0
H768 H 0.4703 0.41071 0.04042 0.0
H769 H 0.60942 0.40354 0.83646 0.0
H770 H 0.63556 0.42822 0.84458 0.0
H771 H 0.60763 0.42676 0.86096 0.0
H772 H 0.23872 0.42715 0.21422 0.0
H773 H 0.22494 0.44394 0.29357 0.0
H774 H 0.1942 0.46676 0.28373 0.0
H775 H 0.16353 0.48615 0.24899 0.0
H776 H 0.18102 0.46824 0.15455 0.0
H777 H 0.21773 0.44322 0.17197 0.0
C778 C 0.22869 0.43553 0.2282 0.0
C779 C 0.23335 0.43448 0.25468 0.0
C780 C 0.21178 0.44791 0.21933 0.0
C781 C 0.22064 0.44545 0.27355 0.0
C782 C 0.20286 0.4588 0.26822 0.0
C783 C 0.17429 0.47919 0.2347 0.0
C784 C 0.16537 0.47608 0.19996 0.0
C785 C 0.19654 0.46202 0.24325 0.0
C786 C 0.18547 0.46796 0.1747 0.0
C787 C 0.20727 0.4513 0.1857 0.0
H788 H 0.1804 0.79475 0.78574 0.0
H789 H 0.20049 0.75216 0.72194 0.0
H790 H 0.17458 0.71463 0.73707 0.0
H791 H 0.14985 0.69329 0.77098 0.0
H792 H 0.1307 0.73579 0.83523 0.0
H793 H 0.15261 0.77402 0.81736 0.0
C794 C 0.17885 0.77734 0.7749 0.0
C795 C 0.19263 0.77625 0.75293 0.0
C796 C 0.16427 0.75577 0.78395 0.0
C797 C 0.19022 0.75354 0.73902 0.0
C798 C 0.17548 0.73202 0.74772 0.0
C799 C 0.15016 0.71098 0.7808 0.0
C800 C 0.13869 0.71178 0.80434 0.0
C801 C 0.163 0.73282 0.77055 0.0
C802 C 0.13932 0.73478 0.81701 0.0
C803 C 0.15189 0.75659 0.80685 0.0
H804 H 0.81542 0.64532 0.24575 0.0
H805 H 0.83752 0.70295 0.1929 0.0
H806 H 0.86578 0.68029 0.17368 0.0
H807 H 0.88257 0.6429 0.17027 0.0
H808 H 0.85966 0.58501 0.22249 0.0
H809 H 0.83351 0.609 0.24364 0.0
C810 C 0.82653 0.65304 0.23015 0.0
C811 C 0.82423 0.67576 0.22072 0.0
C812 C 0.84261 0.63982 0.21904 0.0
C813 C 0.83884 0.68547 0.20051 0.0
C814 C 0.85501 0.67251 0.18947 0.0
C815 C 0.87209 0.63576 0.18652 0.0
C816 C 0.87319 0.61232 0.19495 0.0
C817 C 0.85682 0.64952 0.19836 0.0
C818 C 0.85928 0.60309 0.2158 0.0
C819 C 0.84425 0.61675 0.22782 0.0
H820 H 0.79796 0.34067 0.78829 0.0
H821 H 0.82598 0.3313 0.71271 0.0
H822 H 0.86529 0.3587 0.72252 0.0
H823 H 0.89906 0.39456 0.75515 0.0
H824 H 0.86596 0.40475 0.84521 0.0
H825 H 0.82261 0.36856 0.82913 0.0
C826 C 0.81258 0.34497 0.77498 0.0
C827 C 0.80999 0.33464 0.74963 0.0
C828 C 0.83363 0.36111 0.78355 0.0
C829 C 0.82901 0.33981 0.73185 0.0
C830 C 0.85186 0.35561 0.73721 0.0
C831 C 0.88547 0.38886 0.76928 0.0
C832 C 0.88538 0.40668 0.80047 0.0
C833 C 0.85713 0.36755 0.76102 0.0
C834 C 0.86453 0.39527 0.82655 0.0
C835 C 0.83717 0.37376 0.81595 0.0
H836 H 0.32835 0.33992 0.35331 0.0
H837 H 0.26327 0.28496 0.3328 0.0
H838 H 0.27388 0.25788 0.36463 0.0
H839 H 0.30165 0.24996 0.39829 0.0
H840 H 0.36825 0.30371 0.41648 0.0
H841 H 0.35697 0.33125 0.38563 0.0
C842 C 0.31645 0.32205 0.35591 0.0
C843 C 0.29498 0.3145 0.34091 0.0
C844 C 0.32298 0.30637 0.37375 0.0
C845 C 0.2799 0.29116 0.34416 0.0
C846 C 0.28596 0.2757 0.36235 0.0
C847 C 0.31386 0.26755 0.39535 0.0
C848 C 0.33598 0.27465 0.40951 0.0
C849 C 0.30749 0.28308 0.37721 0.0
C850 C 0.35128 0.29776 0.40565 0.0
C851 C 0.34482 0.31351 0.38807 0.0
H852 H 0.30959 0.81912 0.79512 0.0
H853 H 0.30477 0.89542 0.80539 0.0
H854 H 0.33156 0.90047 0.84332 0.0
H855 H 0.35627 0.88316 0.87367 0.0
H856 H 0.35893 0.80619 0.86478 0.0
H857 H 0.33312 0.80149 0.82624 0.0
C858 C 0.31452 0.8369 0.80557 0.0
C859 C 0.30535 0.85691 0.79734 0.0
C860 C 0.32958 0.83956 0.8276 0.0
C861 C 0.31161 0.87973 0.81131 0.0
C862 C 0.32693 0.88264 0.83299 0.0
C863 C 0.35127 0.86541 0.86317 0.0
C864 C 0.36007 0.8453 0.87174 0.0
C865 C 0.336 0.86268 0.84131 0.0
C866 C 0.35294 0.82218 0.85835 0.0
C867 C 0.33808 0.81943 0.83633 0.0
H868 H 0.78457 0.81365 0.28459 0.0
H869 H 0.79175 0.75456 0.33288 0.0
H870 H 0.80011 0.78384 0.36997 0.0
H871 H 0.80362 0.82579 0.38879 0.0
H872 H 0.79735 0.88485 0.33985 0.0
H873 H 0.78974 0.85572 0.30309 0.0
C874 C 0.78812 0.80713 0.30319 0.0
C875 C 0.78749 0.7819 0.30592 0.0
C876 C 0.7929 0.82402 0.32437 0.0
C877 C 0.79221 0.77387 0.33018 0.0
C878 C 0.79687 0.7906 0.35142 0.0
C879 C 0.80121 0.83253 0.37006 0.0
C880 C 0.8021 0.85787 0.36728 0.0
C881 C 0.79708 0.81569 0.34876 0.0
C882 C 0.7976 0.86574 0.3428 0.0
C883 C 0.79314 0.84904 0.32163 0.0
H884 H 0.71486 0.3558 0.82967 0.0
H885 H 0.65633 0.30984 0.78388 0.0
H886 H 0.62703 0.32936 0.80595 0.0
H887 H 0.61834 0.36073 0.83714 0.0
H888 H 0.67733 0.40746 0.88153 0.0
H889 H 0.70618 0.38626 0.86119 0.0
C890 C 0.69568 0.3499 0.82456 0.0
C891 C 0.68782 0.33143 0.80507 0.0
C892 C 0.67904 0.36138 0.83707 0.0
C893 C 0.66289 0.32406 0.79875 0.0
C894 C 0.64613 0.33523 0.81135 0.0
C895 C 0.6375 0.36612 0.84242 0.0
C896 C 0.64569 0.38556 0.86088 0.0
C897 C 0.65404 0.35409 0.83035 0.0
C898 C 0.67058 0.39249 0.86748 0.0
C899 C 0.68707 0.38042 0.85582 0.0
H900 H 0.30916 0.92079 0.67735 0.0
H901 H 0.26283 0.95887 0.72056 0.0
H902 H 0.28758 -0.0014 0.70944 0.0
H903 H 0.32442 0.02252 0.69069 0.0
H904 H 0.37116 0.9847 0.64806 0.0
H905 H 0.34417 0.94483 0.65561 0.0
C906 C 0.30428 0.93776 0.68406 0.0
C907 C 0.28428 0.93683 0.69995 0.0
C908 C 0.31877 0.96059 0.67784 0.0
C909 C 0.27817 0.95902 0.70839 0.0
C910 C 0.29237 0.98178 0.70211 0.0
C911 C 0.32846 0.00555 0.68273 0.0
C912 C 0.34968 0.00649 0.66881 0.0
C913 C 0.31301 0.98278 0.68734 0.0
C914 C 0.35484 0.98438 0.65873 0.0
C915 C 0.33947 0.96163 0.66312 0.0
H916 H 0.70124 0.75653 0.16217 0.0
H917 H 0.68476 0.799 0.22801 0.0
H918 H 0.65865 0.81778 0.20152 0.0
H919 H 0.6424 0.82415 0.15934 0.0
H920 H 0.65764 0.78118 0.09348 0.0
H921 H 0.68234 0.76064 0.12027 0.0
C922 C 0.69179 0.76975 0.17075 0.0
C923 C 0.69519 0.77652 0.197 0.0
C924 C 0.67674 0.78058 0.15537 0.0
C925 C 0.68262 0.79352 0.20784 0.0
C926 C 0.66769 0.80435 0.1927 0.0
C927 C 0.65102 0.81019 0.15088 0.0
C928 C 0.64855 0.8045 0.12441 0.0
C929 C 0.66496 0.79834 0.16639 0.0
C930 C 0.65959 0.78614 0.11376 0.0
C931 C 0.67365 0.77437 0.12907 0.0
H932 H 0.76113 0.20066 0.69618 0.0
H933 H 0.72557 0.22471 0.63159 0.0
H934 H 0.72256 0.1845 0.6092 0.0
H935 H 0.72828 0.14183 0.60889 0.0
H936 H 0.76544 0.11848 0.67273 0.0
H937 H 0.76948 0.15908 0.69456 0.0
C938 C 0.75282 0.19713 0.67715 0.0
C939 C 0.74343 0.21557 0.66565 0.0
C940 C 0.7514 0.17409 0.66428 0.0
C941 C 0.73296 0.21083 0.64087 0.0
C942 C 0.73116 0.18781 0.62808 0.0
C943 C 0.73765 0.14574 0.62736 0.0
C944 C 0.74687 0.12722 0.63903 0.0
C945 C 0.74011 0.16922 0.6397 0.0
C946 C 0.75849 0.13254 0.66324 0.0
C947 C 0.76072 0.15569 0.67576 0.0
H948 H 0.34141 0.3615 0.22096 0.0
H949 H 0.36944 0.429 0.26637 0.0
H950 H 0.40601 0.43695 0.24126 0.0
H951 H 0.42996 0.42513 0.20617 0.0
H952 H 0.40254 0.35762 0.16092 0.0
H953 H 0.3658 0.3493 0.18616 0.0
C954 C 0.35555 0.3779 0.22543 0.0
C955 C 0.3526 0.39463 0.24551 0.0
C956 C 0.37657 0.38248 0.21081 0.0
C957 C 0.37114 0.41581 0.251 0.0
C958 C 0.39209 0.42042 0.23664 0.0
C959 C 0.4158 0.40874 0.2017 0.0
C960 C 0.41863 0.3924 0.18128 0.0
C961 C 0.39492 0.40399 0.21641 0.0
C962 C 0.40049 0.37081 0.17614 0.0
C963 C 0.37957 0.36598 0.19065 0.0
H964 H 0.80353 0.71659 0.73701 0.0
H965 H 0.74752 0.65031 0.7237 0.0
H966 H 0.77734 0.62498 0.73 0.0
H967 H 0.81931 0.62178 0.73891 0.0
H968 H 0.87588 0.68835 0.74814 0.0
H969 H 0.84578 0.71332 0.74442 0.0
C970 C 0.79787 0.69659 0.73558 0.0
C971 C 0.77339 0.6853 0.73 0.0
C972 C 0.8152 0.68218 0.73851 0.0
C973 C 0.7663 0.6594 0.7279 0.0
C974 C 0.78332 0.64493 0.73156 0.0
C975 C 0.82519 0.64174 0.73966 0.0
C976 C 0.85007 0.65291 0.74309 0.0
C977 C 0.80785 0.65613 0.7367 0.0
C978 C 0.85705 0.67894 0.74502 0.0
C979 C 0.8398 0.69337 0.74292 0.0
H980 H 0.83702 0.28127 0.17662 0.0
H981 H 0.81344 0.32632 0.23618 0.0
H982 H 0.84568 0.36129 0.2264 0.0
H983 H 0.87828 0.38014 0.19885 0.0
H984 H 0.90251 0.33586 0.13926 0.0
H985 H 0.87211 0.29958 0.15097 0.0
C986 C 0.8392 0.29861 0.18774 0.0
C987 C 0.82268 0.30115 0.20699 0.0
C988 C 0.8577 0.31888 0.18184 0.0
C989 C 0.82576 0.32381 0.22116 0.0
C990 C 0.84416 0.3439 0.21554 0.0
C991 C 0.87728 0.36245 0.18874 0.0
C992 C 0.89293 0.36058 0.1685 0.0
C993 C 0.85988 0.34179 0.19559 0.0
C994 C 0.89089 0.33764 0.15515 0.0
C995 C 0.8735 0.31695 0.16181 0.0
H996 H 0.17567 0.41215 0.85372 0.0
H997 H 0.1836 0.38995 0.7748 0.0
H998 H 0.15178 0.41058 0.76174 0.0
H999 H 0.11969 0.43219 0.77296 0.0
H1000 H 0.11094 0.45383 0.85172 0.0
H1001 H 0.14519 0.43623 0.86465 0.0
C1002 C 0.17061 0.41203 0.83364 0.0
C1003 C 0.18189 0.39935 0.8153 0.0
C1004 C 0.15211 0.42377 0.82625 0.0
C1005 C 0.17518 0.39948 0.78934 0.0
C1006 C 0.15693 0.41123 0.78184 0.0
C1007 C 0.12557 0.43343 0.79289 0.0
C1008 C 0.11304 0.44455 0.81131 0.0
C1009 C 0.145 0.42304 0.80016 0.0
C1010 C 0.12055 0.44565 0.83716 0.0
C1011 C 0.14002 0.43548 0.84455 0.0
H1012 H 0.18821 0.79026 0.22403 0.0
H1013 H 0.22961 0.7648 0.28309 0.0
H1014 H 0.20597 0.72259 0.27488 0.0
H1015 H 0.17571 0.6925 0.24859 0.0
H1016 H 0.13662 0.71799 0.18756 0.0
H1017 H 0.15683 0.76065 0.19927 0.0
C1018 C 0.19185 0.77558 0.2354 0.0
C1019 C 0.21073 0.78068 0.25406 0.0
C1020 C 0.17872 0.75128 0.23007 0.0
C1021 C 0.21521 0.76138 0.26855 0.0
C1022 C 0.20176 0.73721 0.26381 0.0
C1023 C 0.17175 0.70736 0.23773 0.0
C1024 C 0.1553 0.70196 0.21663 0.0
C1025 C 0.18389 0.73185 0.24417 0.0
C1026 C 0.14967 0.72157 0.20345 0.0
C1027 C 0.16118 0.74598 0.21016 0.0
H1028 H 0.78164 0.82483 0.69784 0.0
H1029 H 0.73751 0.77618 0.64023 0.0
H1030 H 0.74963 0.80706 0.60837 0.0
H1031 H 0.7719 0.84849 0.59722 0.0
H1032 H 0.81622 0.89657 0.65501 0.0
H1033 H 0.80468 0.86534 0.68653 0.0
C1034 C 0.77473 0.82086 0.67829 0.0
C1035 C 0.75863 0.7982 0.67149 0.0
C1036 C 0.78167 0.83869 0.66015 0.0
C1037 C 0.74994 0.79343 0.64602 0.0
C1038 C 0.7568 0.81112 0.6278 0.0
C1039 C 0.77904 0.85203 0.61672 0.0
C1040 C 0.79478 0.87485 0.62381 0.0
C1041 C 0.77249 0.8339 0.63471 0.0
C1042 C 0.80399 0.87923 0.64911 0.0
C1043 C 0.79744 0.86137 0.66712 0.0
H1044 H 0.72028 0.32872 0.16178 0.0
H1045 H 0.66805 0.2764 0.20226 0.0
H1046 H 0.63589 0.29693 0.18952 0.0
H1047 H 0.62316 0.33123 0.16897 0.0
H1048 H 0.67594 0.38435 0.13016 0.0
H1049 H 0.70739 0.36197 0.14015 0.0
C1050 C 0.70183 0.32163 0.16767 0.0
C1051 C 0.69661 0.30111 0.18306 0.0
C1052 C 0.68355 0.33371 0.16061 0.0
C1053 C 0.67259 0.29221 0.19048 0.0
C1054 C 0.6542 0.30396 0.18324 0.0
C1055 C 0.64149 0.33764 0.1624 0.0
C1056 C 0.64711 0.35909 0.14841 0.0
C1057 C 0.65955 0.32493 0.16861 0.0
C1058 C 0.67105 0.3676 0.14051 0.0
C1059 C 0.68905 0.35489 0.14633 0.0
H1060 H 0.28422 0.31659 0.68415 0.0
H1061 H 0.35476 0.35774 0.71299 0.0
H1062 H 0.37762 0.33659 0.68437 0.0
H1063 H 0.3818 0.29735 0.64799 0.0
H1064 H 0.29846 0.24862 0.6123 0.0
H1065 H 0.27597 0.28028 0.64481 0.0
C1066 C 0.30384 0.32022 0.68344 0.0
C1067 C 0.31859 0.33813 0.70036 0.0
C1068 C 0.31401 0.30628 0.66609 0.0
C1069 C 0.34443 0.34365 0.6997 0.0
C1070 C 0.35797 0.3316 0.68328 0.0
C1071 C 0.3623 0.29511 0.64611 0.0
C1072 C 0.34249 0.26695 0.63009 0.0
C1073 C 0.34635 0.3129 0.66626 0.0
C1074 C 0.30933 0.26401 0.62365 0.0
C1075 C 0.29554 0.28306 0.64473 0.0
H1076 H 0.35342 0.86394 0.23487 0.0
H1077 H 0.30061 0.84195 0.17284 0.0
H1078 H 0.33172 0.83116 0.14559 0.0
H1079 H 0.37305 0.82489 0.14054 0.0
H1080 H 0.4264 0.84843 0.20181 0.0
H1081 H 0.39583 0.86156 0.2283 0.0
C1082 C 0.34879 0.85702 0.21531 0.0
C1083 C 0.3247 0.85352 0.206 0.0
C1084 C 0.36678 0.85094 0.19969 0.0
C1085 C 0.31902 0.84481 0.18051 0.0
C1086 C 0.33677 0.83851 0.16493 0.0
C1087 C 0.37817 0.83328 0.15949 0.0
C1088 C 0.40206 0.83577 0.16917 0.0
C1089 C 0.3606 0.84105 0.17448 0.0
C1090 C 0.40816 0.84645 0.19393 0.0
C1091 C 0.3907 0.8539 0.20908 0.0
H1092 H 0.75575 0.1555 0.25651 0.0
H1093 H 0.77125 0.22597 0.29867 0.0
H1094 H 0.77107 0.20522 0.33889 0.0
H1095 H 0.76579 0.16704 0.36206 0.0
H1096 H 0.74649 0.09648 0.3199 0.0
H1097 H 0.74929 0.11726 0.27986 0.0
C1098 C 0.75922 0.16628 0.27451 0.0
C1099 C 0.76361 0.1922 0.27466 0.0
C1100 C 0.75839 0.15421 0.2976 0.0
C1101 C 0.76778 0.20597 0.2981 0.0
C1102 C 0.7677 0.19413 0.32108 0.0
C1103 C 0.76195 0.15619 0.34414 0.0
C1104 C 0.75563 0.13021 0.34429 0.0
C1105 C 0.76284 0.16825 0.32107 0.0
C1106 C 0.75121 0.11647 0.32071 0.0
C1107 C 0.75279 0.12835 0.29765 0.0
H1108 H 0.31353 0.35438 0.84898 0.0
H1109 H 0.31431 0.41954 0.80662 0.0
H1110 H 0.35754 0.43707 0.81431 0.0
H1111 H 0.40396 0.43846 0.83945 0.0
H1112 H 0.40432 0.35904 0.88662 0.0
H1113 H 0.3538 0.34146 0.8712 0.0
C1114 C 0.32376 0.37162 0.84213 0.0
C1115 C 0.31213 0.38669 0.82777 0.0
C1116 C 0.3483 0.37854 0.84786 0.0
C1117 C 0.32459 0.40916 0.81774 0.0
C1118 C 0.34944 0.4195 0.82204 0.0
C1119 C 0.39517 0.41991 0.84413 0.0
C1120 C 0.40824 0.4027 0.86858 0.0
C1121 C 0.36351 0.40749 0.83648 0.0
C1122 C 0.3953 0.36956 0.8743 0.0
C1123 C 0.3637 0.35928 0.86552 0.0
H1124 H 0.32075 0.90716 0.35678 0.0
H1125 H 0.30199 0.95221 0.29788 0.0
H1126 H 0.32364 0.98945 0.32181 0.0
H1127 H 0.34919 0.00917 0.35843 0.0
H1128 H 0.3678 0.96477 0.41783 0.0
H1129 H 0.34501 0.92724 0.39463 0.0
C1130 C 0.32129 0.92514 0.34925 0.0
C1131 C 0.30984 0.92686 0.32551 0.0
C1132 C 0.33379 0.94656 0.36313 0.0
C1133 C 0.31062 0.95031 0.31609 0.0
C1134 C 0.32305 0.97164 0.32972 0.0
C1135 C 0.34799 0.9913 0.36646 0.0
C1136 C 0.35985 0.98974 0.39 0.0
C1137 C 0.33487 0.96996 0.35311 0.0
C1138 C 0.35858 0.96642 0.3999 0.0
C1139 C 0.34561 0.94501 0.38663 0.0
H1140 H 0.6782 0.81424 0.78839 0.0
H1141 H 0.69288 0.74824 0.81961 0.0
H1142 H 0.6679 0.7534 0.85628 0.0
H1143 H 0.64307 0.77761 0.8802 0.0
H1144 H 0.63041 0.84466 0.84964 0.0
H1145 H 0.65338 0.83809 0.81193 0.0
C1146 C 0.67585 0.80087 0.80312 0.0
C1147 C 0.68742 0.7809 0.80127 0.0
C1148 C 0.66179 0.80414 0.82426 0.0
C1149 C 0.68422 0.76381 0.82059 0.0
C1150 C 0.66995 0.76676 0.84157 0.0
C1151 C 0.64514 0.79058 0.8651 0.0
C1152 C 0.63452 0.81121 0.86742 0.0
C1153 C 0.65882 0.78697 0.84369 0.0
C1154 C 0.63788 0.8283 0.84807 0.0
C1155 C 0.65113 0.82464 0.82656 0.0
loop_
_geom_bond_atom_site_label_1
_geom_bond_atom_site_label_2
_geom_bond_distance
_geom_bond_site_symmetry_2
_ccdc_geom_bond_type
O0 Cd1 2.300 . S
O0 C7 1.275 . S
Cd1 O0 2.300 . S
Cd1 O9 2.381 . S
Cd1 O10 2.378 . S
O2 Cd3 2.385 . S
O2 C7 1.255 . S
Cd3 O2 2.385 . S
Cd3 O4 2.317 . S
O4 Cd3 2.317 . S
O4 C5 1.232 . S
C5 O4 1.232 . S
C5 O6 1.218 . S
O6 C5 1.218 . S
C7 O0 1.275 . S
C7 O2 1.255 . S
C8 O9 1.258 . S
C8 O10 1.256 . S
O9 Cd1 2.381 . S
O9 C8 1.258 . S
O10 Cd1 2.378 . S
O10 C8 1.256 . S
O11 Cd12 2.300 . S
O11 C18 1.275 . S
Cd12 O11 2.300 . S
Cd12 O20 2.381 . S
Cd12 O21 2.378 . S
O13 Cd14 2.385 . S
O13 C18 1.255 . S
Cd14 O13 2.385 . S
Cd14 O15 2.317 . S
O15 Cd14 2.317 . S
O15 C16 1.232 . S
C16 O15 1.232 . S
C16 O17 1.218 . S
O17 C16 1.218 . S
C18 O11 1.275 . S
C18 O13 1.255 . S
C19 O20 1.258 . S
C19 O21 1.256 . S
O20 Cd12 2.381 . S
O20 C19 1.258 . S
O21 Cd12 2.378 . S
O21 C19 1.256 . S
O22 Cd23 2.300 . S
O22 C29 1.275 . S
Cd23 O22 2.300 . S
Cd23 O31 2.381 . S
Cd23 O32 2.378 . S
O24 Cd25 2.385 . S
O24 C29 1.255 . S
Cd25 O24 2.385 . S
Cd25 O26 2.317 . S
O26 Cd25 2.317 . S
O26 C27 1.232 . S
C27 O26 1.232 . S
C27 O28 1.218 . S
O28 C27 1.218 . S
C29 O22 1.275 . S
C29 O24 1.255 . S
C30 O31 1.258 . S
C30 O32 1.256 . S
O31 Cd23 2.381 . S
O31 C30 1.258 . S
O32 Cd23 2.378 . S
O32 C30 1.256 . S
O33 Cd34 2.300 . S
O33 C40 1.275 . S
Cd34 O33 2.300 . S
Cd34 O42 2.381 . S
Cd34 O43 2.378 . S
O35 Cd36 2.385 . S
O35 C40 1.255 . S
Cd36 O35 2.385 . S
Cd36 O37 2.317 . S
O37 Cd36 2.317 . S
O37 C38 1.232 . S
C38 O37 1.232 . S
C38 O39 1.218 . S
O39 C38 1.218 . S
C40 O33 1.275 . S
C40 O35 1.255 . S
C41 O42 1.258 . S
C41 O43 1.256 . S
O42 Cd34 2.381 . S
O42 C41 1.258 . S
O43 Cd34 2.378 . S
O43 C41 1.256 . S
O44 Cd45 2.300 . S
O44 C51 1.275 . S
Cd45 O44 2.300 . S
Cd45 O53 2.381 . S
Cd45 O54 2.378 . S
O46 Cd47 2.385 . S
O46 C51 1.255 . S
Cd47 O46 2.385 . S
Cd47 O48 2.317 . S
O48 Cd47 2.317 . S
O48 C49 1.232 . S
C49 O48 1.232 . S
C49 O50 1.218 . S
O50 C49 1.218 . S
C51 O44 1.275 . S
C51 O46 1.255 . S
C52 O53 1.258 . S
C52 O54 1.256 . S
O53 Cd45 2.381 . S
O53 C52 1.258 . S
O54 Cd45 2.378 . S
O54 C52 1.256 . S
O55 Cd56 2.300 . S
O55 C62 1.275 . S
Cd56 O55 2.300 . S
Cd56 O64 2.381 . S
Cd56 O65 2.378 . S
O57 Cd58 2.385 . S
O57 C62 1.255 . S
Cd58 O57 2.385 . S
Cd58 O59 2.317 . S
O59 Cd58 2.317 . S
O59 C60 1.232 . S
C60 O59 1.232 . S
C60 O61 1.218 . S
O61 C60 1.218 . S
C62 O55 1.275 . S
C62 O57 1.255 . S
C63 O64 1.258 . S
C63 O65 1.256 . S
O64 Cd56 2.381 . S
O64 C63 1.258 . S
O65 Cd56 2.378 . S
O65 C63 1.256 . S
O66 Cd67 2.300 . S
O66 C73 1.275 . S
Cd67 O66 2.300 . S
Cd67 O75 2.381 . S
Cd67 O76 2.378 . S
O68 Cd69 2.385 . S
O68 C73 1.255 . S
Cd69 O68 2.385 . S
Cd69 O70 2.317 . S
O70 Cd69 2.317 . S
O70 C71 1.232 . S
C71 O70 1.232 . S
C71 O72 1.218 . S
O72 C71 1.218 . S
C73 O66 1.275 . S
C73 O68 1.255 . S
C74 O75 1.258 . S
C74 O76 1.256 . S
O75 Cd67 2.381 . S
O75 C74 1.258 . S
O76 Cd67 2.378 . S
O76 C74 1.256 . S
O77 Cd78 2.300 . S
O77 C84 1.275 . S
Cd78 O77 2.300 . S
Cd78 O86 2.381 . S
Cd78 O87 2.378 . S
O79 Cd80 2.385 . S
O79 C84 1.255 . S
Cd80 O79 2.385 . S
Cd80 O81 2.317 . S
O81 Cd80 2.317 . S
O81 C82 1.232 . S
C82 O81 1.232 . S
C82 O83 1.218 . S
O83 C82 1.218 . S
C84 O77 1.275 . S
C84 O79 1.255 . S
C85 O86 1.258 . S
C85 O87 1.256 . S
O86 Cd78 2.381 . S
O86 C85 1.258 . S
O87 Cd78 2.378 . S
O87 C85 1.256 . S
C88 C89 1.560 . S
C88 H149 0.959 . S
C88 H150 0.959 . S
C88 H151 0.960 . S
C89 C88 1.560 . S
C89 O144 1.426 . S
C89 H148 0.980 . S
C90 C91 1.407 . S
C90 C95 1.418 . S
C90 O144 1.334 . S
C91 C90 1.407 . S
C91 C92 1.360 . S
C91 H152 0.929 . S
C92 C91 1.360 . S
C92 C93 1.401 . S
C92 C96 1.527 . S
C93 C92 1.401 . S
C93 C94 1.405 . S
C93 C126 1.587 1_655 S
C94 C93 1.405 . S
C94 C95 1.332 . S
C94 C97 1.496 1_655 S
C95 C90 1.418 . S
C95 C94 1.332 . S
C95 H153 0.929 . S
C96 C92 1.527 . S
C96 H154 0.959 . S
C96 H155 0.961 . S
C96 H156 0.961 . S
C97 C94 1.496 1_455 S
C97 H157 0.960 1_455 S
C97 H158 0.960 . S
C97 H159 0.961 . S
C98 C99 1.517 . S
C98 H161 0.961 . S
C98 H162 0.960 . S
C98 H163 0.959 . S
C99 C98 1.517 . S
C99 O147 1.468 . S
C99 H160 0.980 . S
C100 C101 1.349 . S
C100 C105 1.367 . S
C100 O147 1.408 . S
C101 C100 1.349 . S
C101 C102 1.407 . S
C101 H164 0.930 . S
C102 C101 1.407 . S
C102 C103 1.449 . S
C102 C106 1.535 . S
C103 C102 1.449 . S
C103 C104 1.384 . S
C103 C128 1.553 . S
C104 C103 1.384 . S
C104 C105 1.364 . S
C104 C107 1.450 . S
C105 C100 1.367 . S
C105 C104 1.364 . S
C105 H165 0.931 . S
C106 C102 1.535 . S
C106 H166 0.959 . S
C106 H167 0.961 . S
C106 H168 0.959 . S
C107 C104 1.450 . S
C107 H169 0.960 . S
C107 H170 0.960 . S
C107 H171 0.960 . S
C108 C109 1.309 . S
C108 C113 1.304 . S
C108 O146 1.435 . S
C109 C108 1.309 . S
C109 C110 1.476 . S
C109 H173 0.930 . S
C110 C109 1.476 . S
C110 C111 1.400 . S
C110 C114 1.567 . S
C111 C110 1.400 . S
C111 C112 1.373 . S
C111 C133 1.432 . S
C112 C111 1.373 . S
C112 C113 1.339 . S
C112 C115 1.530 . S
C113 C108 1.304 . S
C113 C112 1.339 . S
C113 H174 0.930 . S
C114 C110 1.567 . S
C114 H175 0.961 . S
C114 H176 0.960 . S
C114 H177 0.958 . S
C115 C112 1.530 . S
C115 H178 0.961 . S
C115 H179 0.960 . S
C115 H180 0.960 . S
C116 C117 1.530 . S
C116 H182 0.961 . S
C116 H183 0.961 . S
C116 H184 0.959 . S
C117 C116 1.530 . S
C117 O145 1.412 . S
C117 H181 0.980 . S
C118 C119 1.288 . S
C118 C123 1.377 . S
C118 O145 1.393 . S
C119 C118 1.288 . S
C119 C120 1.369 . S
C119 H185 0.932 . S
C120 C119 1.369 . S
C120 C121 1.398 . S
C120 C124 1.527 1_655 S
C121 C120 1.398 . S
C121 C122 1.380 . S
C121 C135 1.497 1_655 S
C122 C121 1.380 . S
C122 C123 1.383 . S
C122 C125 1.603 . S
C123 C118 1.377 . S
C123 C122 1.383 . S
C123 H186 0.929 . S
C124 C120 1.527 1_455 S
C124 H187 0.961 . S
C124 H188 0.959 . S
C124 H189 0.954 1_455 S
C125 C122 1.603 . S
C125 H190 0.960 . S
C125 H191 0.962 . S
C125 H192 0.961 . S
C126 C93 1.587 1_455 S
C126 C127 1.360 . S
C126 C139 1.412 . S
C127 C126 1.360 . S
C127 C128 1.365 . S
C127 H193 0.929 . S
C128 C103 1.553 . S
C128 C127 1.365 . S
C128 C129 1.404 . S
C129 C128 1.404 . S
C129 C130 1.395 . S
C129 C140 1.451 . S
C130 C129 1.395 . S
C130 C131 1.322 . S
C130 H194 0.930 . S
C131 C130 1.322 . S
C131 C132 1.459 . S
C131 H195 0.929 . S
C132 C131 1.459 . S
C132 C133 1.445 . S
C132 C141 1.395 . S
C133 C111 1.432 . S
C133 C132 1.445 . S
C133 C134 1.370 . S
C134 C133 1.370 . S
C134 C135 1.438 . S
C134 H196 0.930 . S
C135 C121 1.497 1_455 S
C135 C134 1.438 . S
C135 C136 1.360 . S
C136 C135 1.360 . S
C136 C137 1.401 1_455 S
C136 C141 1.446 . S
C137 C136 1.401 1_655 S
C137 C138 1.347 . S
C137 H197 0.929 . S
C138 C137 1.347 . S
C138 C139 1.455 1_655 S
C138 H198 0.930 . S
C139 C126 1.412 . S
C139 C138 1.455 1_455 S
C139 C140 1.331 . S
C140 C129 1.451 . S
C140 C139 1.331 . S
C140 C141 1.497 . S
C141 C132 1.395 . S
C141 C136 1.446 . S
C141 C140 1.497 . S
C142 C143 1.582 . S
C142 H199 0.962 . S
C142 H200 0.959 . S
C142 H201 0.958 . S
C143 C142 1.582 . S
C143 O146 1.458 . S
C143 H172 0.980 . S
O144 C89 1.426 . S
O144 C90 1.334 . S
O145 C117 1.412 . S
O145 C118 1.393 . S
O146 C108 1.435 . S
O146 C143 1.458 . S
O147 C99 1.468 . S
O147 C100 1.408 . S
H148 C89 0.980 . S
H149 C88 0.959 . S
H150 C88 0.959 . S
H151 C88 0.960 . S
H152 C91 0.929 . S
H153 C95 0.929 . S
H154 C96 0.959 . S
H155 C96 0.961 . S
H156 C96 0.961 . S
H157 C97 0.960 1_655 S
H158 C97 0.960 . S
H159 C97 0.961 . S
H160 C99 0.980 . S
H161 C98 0.961 . S
H162 C98 0.960 . S
H163 C98 0.959 . S
H164 C101 0.930 . S
H165 C105 0.931 . S
H166 C106 0.959 . S
H167 C106 0.961 . S
H168 C106 0.959 . S
H169 C107 0.960 . S
H170 C107 0.960 . S
H171 C107 0.960 . S
H172 C143 0.980 . S
H173 C109 0.930 . S
H174 C113 0.930 . S
H175 C114 0.961 . S
H176 C114 0.960 . S
H177 C114 0.958 . S
H178 C115 0.961 . S
H179 C115 0.960 . S
H180 C115 0.960 . S
H181 C117 0.980 . S
H182 C116 0.961 . S
H183 C116 0.961 . S
H184 C116 0.959 . S
H185 C119 0.932 . S
H186 C123 0.929 . S
H187 C124 0.961 . S
H188 C124 0.959 . S
H189 C124 0.954 1_655 S
H190 C125 0.960 . S
H191 C125 0.962 . S
H192 C125 0.961 . S
H193 C127 0.929 . S
H194 C130 0.930 . S
H195 C131 0.929 . S
H196 C134 0.930 . S
H197 C137 0.929 . S
H198 C138 0.930 . S
H199 C142 0.962 . S
H200 C142 0.959 . S
H201 C142 0.958 . S
C202 C203 1.560 . S
C202 H263 0.959 . S
C202 H264 0.959 . S
C202 H265 0.960 . S
C203 C202 1.560 . S
C203 O258 1.426 . S
C203 H262 0.980 . S
C204 C205 1.407 . S
C204 C209 1.418 . S
C204 O258 1.334 . S
C205 C204 1.407 . S
C205 C206 1.360 . S
C205 H266 0.929 . S
C206 C205 1.360 . S
C206 C207 1.401 . S
C206 C210 1.527 . S
C207 C206 1.401 . S
C207 C208 1.405 . S
C207 C240 1.587 . S
C208 C207 1.405 . S
C208 C209 1.332 . S
C208 C211 1.496 . S
C209 C204 1.418 . S
C209 C208 1.332 . S
C209 H267 0.929 . S
C210 C206 1.527 . S
C210 H268 0.959 . S
C210 H269 0.961 . S
C210 H270 0.961 . S
C211 C208 1.496 . S
C211 H271 0.960 . S
C211 H272 0.960 . S
C211 H273 0.961 . S
C212 C213 1.517 . S
C212 H275 0.961 . S
C212 H276 0.960 . S
C212 H277 0.959 . S
C213 C212 1.517 . S
C213 O261 1.468 . S
C213 H274 0.980 . S
C214 C215 1.349 . S
C214 C219 1.367 . S
C214 O261 1.408 . S
C215 C214 1.349 . S
C215 C216 1.407 . S
C215 H278 0.930 . S
C216 C215 1.407 . S
C216 C217 1.449 . S
C216 C220 1.535 . S
C217 C216 1.449 . S
C217 C218 1.384 . S
C217 C242 1.553 . S
C218 C217 1.384 . S
C218 C219 1.364 . S
C218 C221 1.450 . S
C219 C214 1.367 . S
C219 C218 1.364 . S
C219 H279 0.931 . S
C220 C216 1.535 . S
C220 H280 0.959 . S
C220 H281 0.961 . S
C220 H282 0.959 . S
C221 C218 1.450 . S
C221 H283 0.960 . S
C221 H284 0.960 . S
C221 H285 0.960 . S
C222 C223 1.309 . S
C222 C227 1.304 . S
C222 O260 1.435 . S
C223 C222 1.309 . S
C223 C224 1.476 . S
C223 H287 0.930 . S
C224 C223 1.476 . S
C224 C225 1.400 . S
C224 C228 1.567 . S
C225 C224 1.400 . S
C225 C226 1.373 . S
C225 C247 1.432 . S
C226 C225 1.373 . S
C226 C227 1.339 . S
C226 C229 1.530 . S
C227 C222 1.304 . S
C227 C226 1.339 . S
C227 H288 0.930 . S
C228 C224 1.567 . S
C228 H289 0.961 . S
C228 H290 0.960 . S
C228 H291 0.958 . S
C229 C226 1.530 . S
C229 H292 0.961 . S
C229 H293 0.960 . S
C229 H294 0.960 . S
C230 C231 1.530 . S
C230 H296 0.961 . S
C230 H297 0.961 . S
C230 H298 0.959 . S
C231 C230 1.530 . S
C231 O259 1.412 . S
C231 H295 0.980 . S
C232 C233 1.288 . S
C232 C237 1.377 . S
C232 O259 1.393 . S
C233 C232 1.288 . S
C233 C234 1.369 . S
C233 H299 0.932 . S
C234 C233 1.369 . S
C234 C235 1.398 . S
C234 C238 1.527 . S
C235 C234 1.398 . S
C235 C236 1.380 . S
C235 C249 1.497 . S
C236 C235 1.380 . S
C236 C237 1.383 . S
C236 C239 1.603 . S
C237 C232 1.377 . S
C237 C236 1.383 . S
C237 H300 0.929 . S
C238 C234 1.527 . S
C238 H301 0.961 . S
C238 H302 0.959 . S
C238 H303 0.959 . S
C239 C236 1.603 . S
C239 H304 0.960 . S
C239 H305 0.962 . S
C239 H306 0.961 . S
C240 C207 1.587 . S
C240 C241 1.360 . S
C240 C253 1.412 . S
C241 C240 1.360 . S
C241 C242 1.365 1_455 S
C241 H307 0.929 . S
C242 C217 1.553 . S
C242 C241 1.365 1_655 S
C242 C243 1.404 . S
C243 C242 1.404 . S
C243 C244 1.395 . S
C243 C254 1.451 1_655 S
C244 C243 1.395 . S
C244 C245 1.322 . S
C244 H308 0.930 . S
C245 C244 1.322 . S
C245 C246 1.459 . S
C245 H309 0.929 . S
C246 C245 1.459 . S
C246 C247 1.445 . S
C246 C255 1.395 1_655 S
C247 C225 1.432 . S
C247 C246 1.445 . S
C247 C248 1.370 1_655 S
C248 C247 1.370 1_455 S
C248 C249 1.438 . S
C248 H310 0.930 . S
C249 C235 1.497 . S
C249 C248 1.438 . S
C249 C250 1.360 . S
C250 C249 1.360 . S
C250 C251 1.401 . S
C250 C255 1.446 . S
C251 C250 1.401 . S
C251 C252 1.347 . S
C251 H311 0.929 . S
C252 C251 1.347 . S
C252 C253 1.455 . S
C252 H312 0.930 . S
C253 C240 1.412 . S
C253 C252 1.455 . S
C253 C254 1.331 . S
C254 C243 1.451 1_455 S
C254 C253 1.331 . S
C254 C255 1.497 . S
C255 C246 1.395 1_455 S
C255 C250 1.446 . S
C255 C254 1.497 . S
C256 C257 1.582 . S
C256 H313 0.962 . S
C256 H314 0.959 . S
C256 H315 0.958 . S
C257 C256 1.582 . S
C257 O260 1.458 . S
C257 H286 0.980 . S
O258 C203 1.426 . S
O258 C204 1.334 . S
O259 C231 1.412 . S
O259 C232 1.393 . S
O260 C222 1.435 . S
O260 C257 1.458 . S
O261 C213 1.468 . S
O261 C214 1.408 . S
H262 C203 0.980 . S
H263 C202 0.959 . S
H264 C202 0.959 . S
H265 C202 0.960 . S
H266 C205 0.929 . S
H267 C209 0.929 . S
H268 C210 0.959 . S
H269 C210 0.961 . S
H270 C210 0.961 . S
H271 C211 0.960 . S
H272 C211 0.960 . S
H273 C211 0.961 . S
H274 C213 0.980 . S
H275 C212 0.961 . S
H276 C212 0.960 . S
H277 C212 0.959 . S
H278 C215 0.930 . S
H279 C219 0.931 . S
H280 C220 0.959 . S
H281 C220 0.961 . S
H282 C220 0.959 . S
H283 C221 0.960 . S
H284 C221 0.960 . S
H285 C221 0.960 . S
H286 C257 0.980 . S
H287 C223 0.930 . S
H288 C227 0.930 . S
H289 C228 0.961 . S
H290 C228 0.960 . S
H291 C228 0.958 . S
H292 C229 0.961 . S
H293 C229 0.960 . S
H294 C229 0.960 . S
H295 C231 0.980 . S
H296 C230 0.961 . S
H297 C230 0.961 . S
H298 C230 0.959 . S
H299 C233 0.932 . S
H300 C237 0.929 . S
H301 C238 0.961 . S
H302 C238 0.959 . S
H303 C238 0.959 . S
H304 C239 0.960 . S
H305 C239 0.962 . S
H306 C239 0.961 . S
H307 C241 0.929 . S
H308 C244 0.930 . S
H309 C245 0.929 . S
H310 C248 0.930 . S
H311 C251 0.929 . S
H312 C252 0.930 . S
H313 C256 0.962 . S
H314 C256 0.959 . S
H315 C256 0.958 . S
C316 C317 1.560 . S
C316 H377 0.959 . S
C316 H378 0.959 . S
C316 H379 0.960 . S
C317 C316 1.560 . S
C317 O372 1.426 . S
C317 H376 0.980 . S
C318 C319 1.407 . S
C318 C323 1.418 . S
C318 O372 1.334 . S
C319 C318 1.407 . S
C319 C320 1.360 . S
C319 H380 0.929 . S
C320 C319 1.360 . S
C320 C321 1.401 . S
C320 C324 1.527 . S
C321 C320 1.401 . S
C321 C322 1.405 . S
C321 C354 1.587 . S
C322 C321 1.405 . S
C322 C323 1.332 . S
C322 C325 1.496 . S
C323 C318 1.418 . S
C323 C322 1.332 . S
C323 H381 0.929 . S
C324 C320 1.527 . S
C324 H382 0.959 . S
C324 H383 0.961 . S
C324 H384 0.961 . S
C325 C322 1.496 . S
C325 H385 0.960 . S
C325 H386 0.960 . S
C325 H387 0.961 . S
C326 C327 1.517 1_565 S
C326 H389 0.961 . S
C326 H390 0.960 1_565 S
C326 H391 0.959 . S
C327 C326 1.517 1_545 S
C327 O375 1.468 . S
C327 H388 0.980 . S
C328 C329 1.349 . S
C328 C333 1.367 . S
C328 O375 1.408 . S
C329 C328 1.349 . S
C329 C330 1.407 . S
C329 H392 0.930 . S
C330 C329 1.407 . S
C330 C331 1.449 . S
C330 C334 1.535 . S
C331 C330 1.449 . S
C331 C332 1.384 . S
C331 C356 1.553 . S
C332 C331 1.384 . S
C332 C333 1.364 . S
C332 C335 1.450 . S
C333 C328 1.367 . S
C333 C332 1.364 . S
C333 H393 0.931 . S
C334 C330 1.535 . S
C334 H394 0.959 . S
C334 H395 0.961 . S
C334 H396 0.959 . S
C335 C332 1.450 . S
C335 H397 0.960 . S
C335 H398 0.960 . S
C335 H399 0.960 . S
C336 C337 1.309 . S
C336 C341 1.304 . S
C336 O374 1.435 . S
C337 C336 1.309 . S
C337 C338 1.476 . S
C337 H401 0.930 . S
C338 C337 1.476 . S
C338 C339 1.400 . S
C338 C342 1.567 . S
C339 C338 1.400 . S
C339 C340 1.373 . S
C339 C361 1.432 . S
C340 C339 1.373 . S
C340 C341 1.339 . S
C340 C343 1.530 . S
C341 C336 1.304 . S
C341 C340 1.339 . S
C341 H402 0.930 . S
C342 C338 1.567 . S
C342 H403 0.961 . S
C342 H404 0.960 . S
C342 H405 0.958 . S
C343 C340 1.530 . S
C343 H406 0.961 . S
C343 H407 0.960 . S
C343 H408 0.960 . S
C344 C345 1.530 . S
C344 H410 0.961 . S
C344 H411 0.961 . S
C344 H412 0.959 . S
C345 C344 1.530 . S
C345 O373 1.412 . S
C345 H409 0.980 . S
C346 C347 1.288 . S
C346 C351 1.377 . S
C346 O373 1.393 . S
C347 C346 1.288 . S
C347 C348 1.369 . S
C347 H413 0.932 . S
C348 C347 1.369 . S
C348 C349 1.398 . S
C348 C352 1.527 . S
C349 C348 1.398 . S
C349 C350 1.380 . S
C349 C363 1.497 . S
C350 C349 1.380 . S
C350 C351 1.383 . S
C350 C353 1.603 . S
C351 C346 1.377 . S
C351 C350 1.383 . S
C351 H414 0.929 . S
C352 C348 1.527 . S
C352 H415 0.961 . S
C352 H416 0.959 . S
C352 H417 0.959 . S
C353 C350 1.603 . S
C353 H418 0.960 . S
C353 H419 0.962 . S
C353 H420 0.961 . S
C354 C321 1.587 . S
C354 C355 1.360 . S
C354 C367 1.412 . S
C355 C354 1.360 . S
C355 C356 1.365 . S
C355 H421 0.929 . S
C356 C331 1.553 . S
C356 C355 1.365 . S
C356 C357 1.404 . S
C357 C356 1.404 . S
C357 C358 1.395 . S
C357 C368 1.451 . S
C358 C357 1.395 . S
C358 C359 1.322 . S
C358 H422 0.930 . S
C359 C358 1.322 . S
C359 C360 1.459 . S
C359 H423 0.929 . S
C360 C359 1.459 . S
C360 C361 1.445 . S
C360 C369 1.395 . S
C361 C339 1.432 . S
C361 C360 1.445 . S
C361 C362 1.370 . S
C362 C361 1.370 . S
C362 C363 1.438 . S
C362 H424 0.930 . S
C363 C349 1.497 . S
C363 C362 1.438 . S
C363 C364 1.360 . S
C364 C363 1.360 . S
C364 C365 1.401 . S
C364 C369 1.446 . S
C365 C364 1.401 . S
C365 C366 1.347 . S
C365 H425 0.929 . S
C366 C365 1.347 . S
C366 C367 1.455 . S
C366 H426 0.930 . S
C367 C354 1.412 . S
C367 C366 1.455 . S
C367 C368 1.331 . S
C368 C357 1.451 . S
C368 C367 1.331 . S
C368 C369 1.497 . S
C369 C360 1.395 . S
C369 C364 1.446 . S
C369 C368 1.497 . S
C370 C371 1.582 1_565 S
C370 H427 0.962 . S
C370 H428 0.959 . S
C370 H429 0.958 . S
C371 C370 1.582 1_545 S
C371 O374 1.458 . S
C371 H400 0.980 1_545 S
O372 C317 1.426 . S
O372 C318 1.334 . S
O373 C345 1.412 . S
O373 C346 1.393 . S
O374 C336 1.435 . S
O374 C371 1.458 . S
O375 C327 1.468 . S
O375 C328 1.408 . S
H376 C317 0.980 . S
H377 C316 0.959 . S
H378 C316 0.959 . S
H379 C316 0.960 . S
H380 C319 0.929 . S
H381 C323 0.929 . S
H382 C324 0.959 . S
H383 C324 0.961 . S
H384 C324 0.961 . S
H385 C325 0.960 . S
H386 C325 0.960 . S
H387 C325 0.961 . S
H388 C327 0.980 . S
H389 C326 0.961 . S
H390 C326 0.960 1_545 S
H391 C326 0.959 . S
H392 C329 0.930 . S
H393 C333 0.931 . S
H394 C334 0.959 . S
H395 C334 0.961 . S
H396 C334 0.959 . S
H397 C335 0.960 . S
H398 C335 0.960 . S
H399 C335 0.960 . S
H400 C371 0.980 1_565 S
H401 C337 0.930 . S
H402 C341 0.930 . S
H403 C342 0.961 . S
H404 C342 0.960 . S
H405 C342 0.958 . S
H406 C343 0.961 . S
H407 C343 0.960 . S
H408 C343 0.960 . S
H409 C345 0.980 . S
H410 C344 0.961 . S
H411 C344 0.961 . S
H412 C344 0.959 . S
H413 C347 0.932 . S
H414 C351 0.929 . S
H415 C352 0.961 . S
H416 C352 0.959 . S
H417 C352 0.959 . S
H418 C353 0.960 . S
H419 C353 0.962 . S
H420 C353 0.961 . S
H421 C355 0.929 . S
H422 C358 0.930 . S
H423 C359 0.929 . S
H424 C362 0.930 . S
H425 C365 0.929 . S
H426 C366 0.930 . S
H427 C370 0.962 . S
H428 C370 0.959 . S
H429 C370 0.958 . S
C430 C431 1.560 . S
C430 H491 0.959 . S
C430 H492 0.959 . S
C430 H493 0.960 . S
C431 C430 1.560 . S
C431 O486 1.426 . S
C431 H490 0.980 . S
C432 C433 1.407 . S
C432 C437 1.418 . S
C432 O486 1.334 . S
C433 C432 1.407 . S
C433 C434 1.360 . S
C433 H494 0.929 . S
C434 C433 1.360 . S
C434 C435 1.401 . S
C434 C438 1.527 . S
C435 C434 1.401 . S
C435 C436 1.405 . S
C435 C468 1.587 . S
C436 C435 1.405 . S
C436 C437 1.332 . S
C436 C439 1.496 . S
C437 C432 1.418 . S
C437 C436 1.332 . S
C437 H495 0.929 . S
C438 C434 1.527 . S
C438 H496 0.959 . S
C438 H497 0.961 . S
C438 H498 0.961 . S
C439 C436 1.496 . S
C439 H499 0.960 . S
C439 H500 0.960 . S
C439 H501 0.961 . S
C440 C441 1.517 . S
C440 H503 0.961 . S
C440 H504 0.960 . S
C440 H505 0.959 . S
C441 C440 1.517 . S
C441 O489 1.468 . S
C441 H502 0.980 . S
C442 C443 1.349 . S
C442 C447 1.367 . S
C442 O489 1.408 . S
C443 C442 1.349 . S
C443 C444 1.407 . S
C443 H506 0.930 . S
C444 C443 1.407 . S
C444 C445 1.449 . S
C444 C448 1.535 . S
C445 C444 1.449 . S
C445 C446 1.384 . S
C445 C470 1.553 . S
C446 C445 1.384 . S
C446 C447 1.364 . S
C446 C449 1.450 . S
C447 C442 1.367 . S
C447 C446 1.364 . S
C447 H507 0.931 . S
C448 C444 1.535 . S
C448 H508 0.959 . S
C448 H509 0.961 . S
C448 H510 0.959 . S
C449 C446 1.450 . S
C449 H511 0.960 . S
C449 H512 0.960 . S
C449 H513 0.960 . S
C450 C451 1.309 . S
C450 C455 1.304 . S
C450 O488 1.435 . S
C451 C450 1.309 . S
C451 C452 1.476 . S
C451 H515 0.930 . S
C452 C451 1.476 . S
C452 C453 1.400 . S
C452 C456 1.567 . S
C453 C452 1.400 . S
C453 C454 1.373 . S
C453 C475 1.432 . S
C454 C453 1.373 . S
C454 C455 1.339 . S
C454 C457 1.530 . S
C455 C450 1.304 . S
C455 C454 1.339 . S
C455 H516 0.930 . S
C456 C452 1.567 . S
C456 H517 0.961 . S
C456 H518 0.960 . S
C456 H519 0.958 . S
C457 C454 1.530 . S
C457 H520 0.961 . S
C457 H521 0.960 . S
C457 H522 0.960 . S
C458 C459 1.530 . S
C458 H524 0.961 . S
C458 H525 0.961 . S
C458 H526 0.959 . S
C459 C458 1.530 . S
C459 O487 1.412 . S
C459 H523 0.980 . S
C460 C461 1.288 . S
C460 C465 1.377 . S
C460 O487 1.393 . S
C461 C460 1.288 . S
C461 C462 1.369 . S
C461 H527 0.932 . S
C462 C461 1.369 . S
C462 C463 1.398 . S
C462 C466 1.527 . S
C463 C462 1.398 . S
C463 C464 1.380 . S
C463 C477 1.497 . S
C464 C463 1.380 . S
C464 C465 1.383 . S
C464 C467 1.603 . S
C465 C460 1.377 . S
C465 C464 1.383 . S
C465 H528 0.929 . S
C466 C462 1.527 . S
C466 H529 0.961 . S
C466 H530 0.959 . S
C466 H531 0.959 . S
C467 C464 1.603 . S
C467 H532 0.960 . S
C467 H533 0.962 . S
C467 H534 0.961 . S
C468 C435 1.587 . S
C468 C469 1.360 . S
C468 C481 1.412 . S
C469 C468 1.360 . S
C469 C470 1.365 . S
C469 H535 0.929 . S
C470 C445 1.553 . S
C470 C469 1.365 . S
C470 C471 1.404 . S
C471 C470 1.404 . S
C471 C472 1.395 . S
C471 C482 1.451 . S
C472 C471 1.395 . S
C472 C473 1.322 1_554 S
C472 H536 0.930 . S
C473 C472 1.322 1_556 S
C473 C474 1.459 . S
C473 H537 0.929 . S
C474 C473 1.459 . S
C474 C475 1.445 . S
C474 C483 1.395 . S
C475 C453 1.432 . S
C475 C474 1.445 . S
C475 C476 1.370 . S
C476 C475 1.370 . S
C476 C477 1.438 . S
C476 H538 0.930 . S
C477 C463 1.497 . S
C477 C476 1.438 . S
C477 C478 1.360 . S
C478 C477 1.360 . S
C478 C479 1.398 1_556 S
C478 C483 1.446 . S
C479 C478 1.398 1_554 S
C479 C480 1.352 . S
C479 H539 0.927 1_554 S
C480 C479 1.352 . S
C480 C481 1.455 . S
C480 H540 0.930 . S
C481 C468 1.412 . S
C481 C480 1.455 . S
C481 C482 1.331 . S
C482 C471 1.451 . S
C482 C481 1.331 . S
C482 C483 1.497 1_554 S
C483 C474 1.395 . S
C483 C478 1.446 . S
C483 C482 1.497 1_556 S
C484 C485 1.582 . S
C484 H541 0.962 . S
C484 H542 0.959 . S
C484 H543 0.958 . S
C485 C484 1.582 . S
C485 O488 1.458 . S
C485 H514 0.980 . S
O486 C431 1.426 . S
O486 C432 1.334 . S
O487 C459 1.412 . S
O487 C460 1.393 . S
O488 C450 1.435 . S
O488 C485 1.458 . S
O489 C441 1.468 . S
O489 C442 1.408 . S
H490 C431 0.980 . S
H491 C430 0.959 . S
H492 C430 0.959 . S
H493 C430 0.960 . S
H494 C433 0.929 . S
H495 C437 0.929 . S
H496 C438 0.959 . S
H497 C438 0.961 . S
H498 C438 0.961 . S
H499 C439 0.960 . S
H500 C439 0.960 . S
H501 C439 0.961 . S
H502 C441 0.980 . S
H503 C440 0.961 . S
H504 C440 0.960 . S
H505 C440 0.959 . S
H506 C443 0.930 . S
H507 C447 0.931 . S
H508 C448 0.959 . S
H509 C448 0.961 . S
H510 C448 0.959 . S
H511 C449 0.960 . S
H512 C449 0.960 . S
H513 C449 0.960 . S
H514 C485 0.980 . S
H515 C451 0.930 . S
H516 C455 0.930 . S
H517 C456 0.961 . S
H518 C456 0.960 . S
H519 C456 0.958 . S
H520 C457 0.961 . S
H521 C457 0.960 . S
H522 C457 0.960 . S
H523 C459 0.980 . S
H524 C458 0.961 . S
H525 C458 0.961 . S
H526 C458 0.959 . S
H527 C461 0.932 . S
H528 C465 0.929 . S
H529 C466 0.961 . S
H530 C466 0.959 . S
H531 C466 0.959 . S
H532 C467 0.960 . S
H533 C467 0.962 . S
H534 C467 0.961 . S
H535 C469 0.929 . S
H536 C472 0.930 . S
H537 C473 0.929 . S
H538 C476 0.930 . S
H539 C479 0.927 1_556 S
H540 C480 0.930 . S
H541 C484 0.962 . S
H542 C484 0.959 . S
H543 C484 0.958 . S
C544 C545 1.560 . S
C544 H605 0.959 . S
C544 H606 0.959 . S
C544 H607 0.960 . S
C545 C544 1.560 . S
C545 O600 1.426 . S
C545 H604 0.980 . S
C546 C547 1.407 . S
C546 C551 1.418 . S
C546 O600 1.334 . S
C547 C546 1.407 . S
C547 C548 1.360 . S
C547 H608 0.929 . S
C548 C547 1.360 . S
C548 C549 1.401 . S
C548 C552 1.527 . S
C549 C548 1.401 . S
C549 C550 1.405 . S
C549 C582 1.587 . S
C550 C549 1.405 . S
C550 C551 1.332 . S
C550 C553 1.496 . S
C551 C546 1.418 . S
C551 C550 1.332 . S
C551 H609 0.929 . S
C552 C548 1.527 . S
C552 H610 0.959 . S
C552 H611 0.961 . S
C552 H612 0.961 . S
C553 C550 1.496 . S
C553 H613 0.960 . S
C553 H614 0.960 . S
C553 H615 0.961 . S
C554 C555 1.517 . S
C554 H617 0.961 . S
C554 H618 0.960 . S
C554 H619 0.959 . S
C555 C554 1.517 . S
C555 O603 1.468 . S
C555 H616 0.980 . S
C556 C557 1.349 . S
C556 C561 1.367 . S
C556 O603 1.408 . S
C557 C556 1.349 . S
C557 C558 1.407 . S
C557 H620 0.930 . S
C558 C557 1.407 . S
C558 C559 1.449 . S
C558 C562 1.535 . S
C559 C558 1.449 . S
C559 C560 1.384 . S
C559 C584 1.553 . S
C560 C559 1.384 . S
C560 C561 1.364 . S
C560 C563 1.450 . S
C561 C556 1.367 . S
C561 C560 1.364 . S
C561 H621 0.931 . S
C562 C558 1.535 . S
C562 H622 0.959 . S
C562 H623 0.961 . S
C562 H624 0.959 . S
C563 C560 1.450 . S
C563 H625 0.960 . S
C563 H626 0.960 . S
C563 H627 0.960 . S
C564 C565 1.309 . S
C564 C569 1.304 . S
C564 O602 1.435 . S
C565 C564 1.309 . S
C565 C566 1.476 . S
C565 H629 0.930 . S
C566 C565 1.476 . S
C566 C567 1.400 . S
C566 C570 1.567 . S
C567 C566 1.400 . S
C567 C568 1.373 . S
C567 C589 1.432 . S
C568 C567 1.373 . S
C568 C569 1.339 . S
C568 C571 1.530 . S
C569 C564 1.304 . S
C569 C568 1.339 . S
C569 H630 0.930 . S
C570 C566 1.567 . S
C570 H631 0.961 . S
C570 H632 0.960 . S
C570 H633 0.958 . S
C571 C568 1.530 . S
C571 H634 0.961 . S
C571 H635 0.960 . S
C571 H636 0.960 . S
C572 C573 1.530 . S
C572 H638 0.961 . S
C572 H639 0.961 . S
C572 H640 0.959 . S
C573 C572 1.530 . S
C573 O601 1.412 . S
C573 H637 0.980 . S
C574 C575 1.288 . S
C574 C579 1.377 . S
C574 O601 1.393 . S
C575 C574 1.288 . S
C575 C576 1.369 . S
C575 H641 0.932 . S
C576 C575 1.369 . S
C576 C577 1.398 . S
C576 C580 1.527 . S
C577 C576 1.398 . S
C577 C578 1.380 . S
C577 C591 1.497 . S
C578 C577 1.380 . S
C578 C579 1.383 . S
C578 C581 1.603 . S
C579 C574 1.377 . S
C579 C578 1.383 . S
C579 H642 0.929 . S
C580 C576 1.527 . S
C580 H643 0.961 . S
C580 H644 0.959 . S
C580 H645 0.959 . S
C581 C578 1.603 . S
C581 H646 0.960 . S
C581 H647 0.962 . S
C581 H648 0.961 . S
C582 C549 1.587 . S
C582 C583 1.360 . S
C582 C595 1.412 . S
C583 C582 1.360 . S
C583 C584 1.365 1_545 S
C583 H649 0.929 . S
C584 C559 1.553 . S
C584 C583 1.365 1_565 S
C584 C585 1.404 . S
C585 C584 1.404 . S
C585 C586 1.395 . S
C585 C596 1.451 1_565 S
C586 C585 1.395 . S
C586 C587 1.322 . S
C586 H650 0.930 . S
C587 C586 1.322 . S
C587 C588 1.459 . S
C587 H651 0.929 . S
C588 C587 1.459 . S
C588 C589 1.445 . S
C588 C597 1.395 1_565 S
C589 C567 1.432 . S
C589 C588 1.445 . S
C589 C590 1.368 . S
C590 C589 1.368 . S
C590 C591 1.440 1_565 S
C590 H652 0.930 . S
C591 C577 1.497 . S
C591 C590 1.440 1_545 S
C591 C592 1.360 . S
C592 C591 1.360 . S
C592 C593 1.401 . S
C592 C597 1.446 . S
C593 C592 1.401 . S
C593 C594 1.347 . S
C593 H653 0.929 . S
C594 C593 1.347 . S
C594 C595 1.455 . S
C594 H654 0.930 . S
C595 C582 1.412 . S
C595 C594 1.455 . S
C595 C596 1.331 . S
C596 C585 1.451 1_545 S
C596 C595 1.331 . S
C596 C597 1.497 . S
C597 C588 1.395 1_545 S
C597 C592 1.446 . S
C597 C596 1.497 . S
C598 C599 1.582 . S
C598 H655 0.962 . S
C598 H656 0.959 . S
C598 H657 0.958 . S
C599 C598 1.582 . S
C599 O602 1.458 . S
C599 H628 0.980 . S
O600 C545 1.426 . S
O600 C546 1.334 . S
O601 C573 1.412 . S
O601 C574 1.393 . S
O602 C564 1.435 . S
O602 C599 1.458 . S
O603 C555 1.468 . S
O603 C556 1.408 . S
H604 C545 0.980 . S
H605 C544 0.959 . S
H606 C544 0.959 . S
H607 C544 0.960 . S
H608 C547 0.929 . S
H609 C551 0.929 . S
H610 C552 0.959 . S
H611 C552 0.961 . S
H612 C552 0.961 . S
H613 C553 0.960 . S
H614 C553 0.960 . S
H615 C553 0.961 . S
H616 C555 0.980 . S
H617 C554 0.961 . S
H618 C554 0.960 . S
H619 C554 0.959 . S
H620 C557 0.930 . S
H621 C561 0.931 . S
H622 C562 0.959 . S
H623 C562 0.961 . S
H624 C562 0.959 . S
H625 C563 0.960 . S
H626 C563 0.960 . S
H627 C563 0.960 . S
H628 C599 0.980 . S
H629 C565 0.930 . S
H630 C569 0.930 . S
H631 C570 0.961 . S
H632 C570 0.960 . S
H633 C570 0.958 . S
H634 C571 0.961 . S
H635 C571 0.960 . S
H636 C571 0.960 . S
H637 C573 0.980 . S
H638 C572 0.961 . S
H639 C572 0.961 . S
H640 C572 0.959 . S
H641 C575 0.932 . S
H642 C579 0.929 . S
H643 C580 0.961 . S
H644 C580 0.959 . S
H645 C580 0.959 . S
H646 C581 0.960 . S
H647 C581 0.962 . S
H648 C581 0.961 . S
H649 C583 0.929 . S
H650 C586 0.930 . S
H651 C587 0.929 . S
H652 C590 0.930 . S
H653 C593 0.929 . S
H654 C594 0.930 . S
H655 C598 0.962 . S
H656 C598 0.959 . S
H657 C598 0.958 . S
C658 C659 1.560 . S
C658 H719 0.959 . S
C658 H720 0.959 . S
C658 H721 0.960 . S
C659 C658 1.560 . S
C659 O714 1.426 . S
C659 H718 0.980 . S
C660 C661 1.407 . S
C660 C665 1.418 . S
C660 O714 1.334 . S
C661 C660 1.407 . S
C661 C662 1.360 . S
C661 H722 0.929 . S
C662 C661 1.360 . S
C662 C663 1.401 . S
C662 C666 1.527 . S
C663 C662 1.401 . S
C663 C664 1.405 . S
C663 C696 1.587 . S
C664 C663 1.405 . S
C664 C665 1.332 . S
C664 C667 1.496 . S
C665 C660 1.418 . S
C665 C664 1.332 . S
C665 H723 0.929 . S
C666 C662 1.527 . S
C666 H724 0.959 . S
C666 H725 0.961 . S
C666 H726 0.961 . S
C667 C664 1.496 . S
C667 H727 0.960 . S
C667 H728 0.960 . S
C667 H729 0.961 . S
C668 C669 1.517 . S
C668 H731 0.961 . S
C668 H732 0.960 . S
C668 H733 0.959 . S
C669 C668 1.517 . S
C669 O717 1.468 . S
C669 H730 0.980 . S
C670 C671 1.349 . S
C670 C675 1.367 . S
C670 O717 1.408 . S
C671 C670 1.349 . S
C671 C672 1.407 . S
C671 H734 0.930 . S
C672 C671 1.407 . S
C672 C673 1.449 . S
C672 C676 1.535 . S
C673 C672 1.449 . S
C673 C674 1.384 . S
C673 C698 1.553 . S
C674 C673 1.384 . S
C674 C675 1.364 . S
C674 C677 1.450 . S
C675 C670 1.367 . S
C675 C674 1.364 . S
C675 H735 0.931 . S
C676 C672 1.535 . S
C676 H736 0.959 . S
C676 H737 0.961 . S
C676 H738 0.959 . S
C677 C674 1.450 . S
C677 H739 0.960 . S
C677 H740 0.960 . S
C677 H741 0.960 . S
C678 C679 1.309 . S
C678 C683 1.304 . S
C678 O716 1.435 . S
C679 C678 1.309 . S
C679 C680 1.476 . S
C679 H743 0.930 . S
C680 C679 1.476 . S
C680 C681 1.400 . S
C680 C684 1.567 . S
C681 C680 1.400 . S
C681 C682 1.373 . S
C681 C703 1.432 . S
C682 C681 1.373 . S
C682 C683 1.339 . S
C682 C685 1.530 . S
C683 C678 1.304 . S
C683 C682 1.339 . S
C683 H744 0.930 . S
C684 C680 1.567 . S
C684 H745 0.961 . S
C684 H746 0.960 . S
C684 H747 0.958 . S
C685 C682 1.530 . S
C685 H748 0.961 . S
C685 H749 0.960 . S
C685 H750 0.960 . S
C686 C687 1.530 . S
C686 H752 0.961 . S
C686 H753 0.961 . S
C686 H754 0.959 . S
C687 C686 1.530 . S
C687 O715 1.412 . S
C687 H751 0.980 . S
C688 C689 1.288 . S
C688 C693 1.377 . S
C688 O715 1.393 . S
C689 C688 1.288 . S
C689 C690 1.369 . S
C689 H755 0.932 . S
C690 C689 1.369 . S
C690 C691 1.398 . S
C690 C694 1.527 . S
C691 C690 1.398 . S
C691 C692 1.380 . S
C691 C705 1.497 . S
C692 C691 1.380 . S
C692 C693 1.383 . S
C692 C695 1.603 . S
C693 C688 1.377 . S
C693 C692 1.383 . S
C693 H756 0.929 . S
C694 C690 1.527 . S
C694 H757 0.961 . S
C694 H758 0.959 . S
C694 H759 0.959 . S
C695 C692 1.603 . S
C695 H760 0.960 . S
C695 H761 0.962 . S
C695 H762 0.961 . S
C696 C663 1.587 . S
C696 C697 1.360 . S
C696 C709 1.412 . S
C697 C696 1.360 . S
C697 C698 1.365 . S
C697 H763 0.929 . S
C698 C673 1.553 . S
C698 C697 1.365 . S
C698 C699 1.404 . S
C699 C698 1.404 . S
C699 C700 1.395 . S
C699 C710 1.451 . S
C700 C699 1.395 . S
C700 C701 1.322 . S
C700 H764 0.930 . S
C701 C700 1.322 . S
C701 C702 1.459 1_554 S
C701 H765 0.929 1_554 S
C702 C701 1.459 1_556 S
C702 C703 1.445 . S
C702 C711 1.395 1_556 S
C703 C681 1.432 . S
C703 C702 1.445 . S
C703 C704 1.370 . S
C704 C703 1.370 . S
C704 C705 1.438 . S
C704 H766 0.930 . S
C705 C691 1.497 . S
C705 C704 1.438 . S
C705 C706 1.360 . S
C706 C705 1.360 . S
C706 C707 1.401 1_556 S
C706 C711 1.446 1_556 S
C707 C706 1.401 1_554 S
C707 C708 1.347 . S
C707 H767 0.929 . S
C708 C707 1.347 . S
C708 C709 1.455 . S
C708 H768 0.930 . S
C709 C696 1.412 . S
C709 C708 1.455 . S
C709 C710 1.331 . S
C710 C699 1.451 . S
C710 C709 1.331 . S
C710 C711 1.497 . S
C711 C702 1.395 1_554 S
C711 C706 1.446 1_554 S
C711 C710 1.497 . S
C712 C713 1.582 . S
C712 H769 0.962 . S
C712 H770 0.959 . S
C712 H771 0.958 . S
C713 C712 1.582 . S
C713 O716 1.458 . S
C713 H742 0.980 . S
O714 C659 1.426 . S
O714 C660 1.334 . S
O715 C687 1.412 . S
O715 C688 1.393 . S
O716 C678 1.435 . S
O716 C713 1.458 . S
O717 C669 1.468 . S
O717 C670 1.408 . S
H718 C659 0.980 . S
H719 C658 0.959 . S
H720 C658 0.959 . S
H721 C658 0.960 . S
H722 C661 0.929 . S
H723 C665 0.929 . S
H724 C666 0.959 . S
H725 C666 0.961 . S
H726 C666 0.961 . S
H727 C667 0.960 . S
H728 C667 0.960 . S
H729 C667 0.961 . S
H730 C669 0.980 . S
H731 C668 0.961 . S
H732 C668 0.960 . S
H733 C668 0.959 . S
H734 C671 0.930 . S
H735 C675 0.931 . S
H736 C676 0.959 . S
H737 C676 0.961 . S
H738 C676 0.959 . S
H739 C677 0.960 . S
H740 C677 0.960 . S
H741 C677 0.960 . S
H742 C713 0.980 . S
H743 C679 0.930 . S
H744 C683 0.930 . S
H745 C684 0.961 . S
H746 C684 0.960 . S
H747 C684 0.958 . S
H748 C685 0.961 . S
H749 C685 0.960 . S
H750 C685 0.960 . S
H751 C687 0.980 . S
H752 C686 0.961 . S
H753 C686 0.961 . S
H754 C686 0.959 . S
H755 C689 0.932 . S
H756 C693 0.929 . S
H757 C694 0.961 . S
H758 C694 0.959 . S
H759 C694 0.959 . S
H760 C695 0.960 . S
H761 C695 0.962 . S
H762 C695 0.961 . S
H763 C697 0.929 . S
H764 C700 0.930 . S
H765 C701 0.929 1_556 S
H766 C704 0.930 . S
H767 C707 0.929 . S
H768 C708 0.930 . S
H769 C712 0.962 . S
H770 C712 0.959 . S
H771 C712 0.958 . S
H772 C778 0.930 . S
H773 C781 0.930 . S
H774 C782 0.930 . S
H775 C783 0.930 . S
H776 C786 0.930 . S
H777 C787 0.930 . S
C778 H772 0.930 . S
C778 C779 1.355 . S
C778 C780 1.415 . S
C779 C778 1.355 . S
C779 C781 1.419 . S
C780 C778 1.415 . S
C780 C785 1.425 . S
C780 C787 1.409 . S
C781 H773 0.930 . S
C781 C779 1.419 . S
C781 C782 1.362 . S
C782 H774 0.930 . S
C782 C781 1.362 . S
C782 C785 1.409 . S
C783 H775 0.930 . S
C783 C784 1.355 . S
C783 C785 1.415 . S
C784 C783 1.355 . S
C784 C786 1.419 . S
C785 C780 1.425 . S
C785 C782 1.409 . S
C785 C783 1.415 . S
C786 H776 0.930 . S
C786 C784 1.419 . S
C786 C787 1.362 . S
C787 H777 0.930 . S
C787 C780 1.409 . S
C787 C786 1.362 . S
H788 C794 0.930 . S
H789 C797 0.930 . S
H790 C798 0.930 . S
H791 C799 0.930 . S
H792 C802 0.930 . S
H793 C803 0.930 . S
C794 H788 0.930 . S
C794 C795 1.355 . S
C794 C796 1.415 . S
C795 C794 1.355 . S
C795 C797 1.419 . S
C796 C794 1.415 . S
C796 C801 1.425 . S
C796 C803 1.409 . S
C797 H789 0.930 . S
C797 C795 1.419 . S
C797 C798 1.362 . S
C798 H790 0.930 . S
C798 C797 1.362 . S
C798 C801 1.409 . S
C799 H791 0.930 . S
C799 C800 1.355 . S
C799 C801 1.415 . S
C800 C799 1.355 . S
C800 C802 1.419 . S
C801 C796 1.425 . S
C801 C798 1.409 . S
C801 C799 1.415 . S
C802 H792 0.930 . S
C802 C800 1.419 . S
C802 C803 1.362 . S
C803 H793 0.930 . S
C803 C796 1.409 . S
C803 C802 1.362 . S
H804 C810 0.930 . S
H805 C813 0.930 . S
H806 C814 0.930 . S
H807 C815 0.930 . S
H808 C818 0.930 . S
H809 C819 0.930 . S
C810 H804 0.930 . S
C810 C811 1.355 . S
C810 C812 1.415 . S
C811 C810 1.355 . S
C811 C813 1.419 . S
C812 C810 1.415 . S
C812 C817 1.425 . S
C812 C819 1.409 . S
C813 H805 0.930 . S
C813 C811 1.419 . S
C813 C814 1.362 . S
C814 H806 0.930 . S
C814 C813 1.362 . S
C814 C817 1.409 . S
C815 H807 0.930 . S
C815 C816 1.355 . S
C815 C817 1.415 . S
C816 C815 1.355 . S
C816 C818 1.419 . S
C817 C812 1.425 . S
C817 C814 1.409 . S
C817 C815 1.415 . S
C818 H808 0.930 . S
C818 C816 1.419 . S
C818 C819 1.362 . S
C819 H809 0.930 . S
C819 C812 1.409 . S
C819 C818 1.362 . S
H820 C826 0.930 . S
H821 C829 0.930 . S
H822 C830 0.930 . S
H823 C831 0.930 . S
H824 C834 0.930 . S
H825 C835 0.930 . S
C826 H820 0.930 . S
C826 C827 1.355 . S
C826 C828 1.415 . S
C827 C826 1.355 . S
C827 C829 1.419 . S
C828 C826 1.415 . S
C828 C833 1.425 . S
C828 C835 1.409 . S
C829 H821 0.930 . S
C829 C827 1.419 . S
C829 C830 1.362 . S
C830 H822 0.930 . S
C830 C829 1.362 . S
C830 C833 1.409 . S
C831 H823 0.930 . S
C831 C832 1.355 . S
C831 C833 1.415 . S
C832 C831 1.355 . S
C832 C834 1.419 . S
C833 C828 1.425 . S
C833 C830 1.409 . S
C833 C831 1.415 . S
C834 H824 0.930 . S
C834 C832 1.419 . S
C834 C835 1.362 . S
C835 H825 0.930 . S
C835 C828 1.409 . S
C835 C834 1.362 . S
H836 C842 0.930 . S
H837 C845 0.930 . S
H838 C846 0.930 . S
H839 C847 0.930 . S
H840 C850 0.930 . S
H841 C851 0.930 . S
C842 H836 0.930 . S
C842 C843 1.355 . S
C842 C844 1.415 . S
C843 C842 1.355 . S
C843 C845 1.419 . S
C844 C842 1.415 . S
C844 C849 1.425 . S
C844 C851 1.409 . S
C845 H837 0.930 . S
C845 C843 1.419 . S
C845 C846 1.362 . S
C846 H838 0.930 . S
C846 C845 1.362 . S
C846 C849 1.409 . S
C847 H839 0.930 . S
C847 C848 1.355 . S
C847 C849 1.415 . S
C848 C847 1.355 . S
C848 C850 1.419 . S
C849 C844 1.425 . S
C849 C846 1.409 . S
C849 C847 1.415 . S
C850 H840 0.930 . S
C850 C848 1.419 . S
C850 C851 1.362 . S
C851 H841 0.930 . S
C851 C844 1.409 . S
C851 C850 1.362 . S
H852 C858 0.930 . S
H853 C861 0.930 . S
H854 C862 0.930 . S
H855 C863 0.930 . S
H856 C866 0.930 . S
H857 C867 0.930 . S
C858 H852 0.930 . S
C858 C859 1.355 . S
C858 C860 1.415 . S
C859 C858 1.355 . S
C859 C861 1.419 . S
C860 C858 1.415 . S
C860 C865 1.425 . S
C860 C867 1.409 . S
C861 H853 0.930 . S
C861 C859 1.419 . S
C861 C862 1.362 . S
C862 H854 0.930 . S
C862 C861 1.362 . S
C862 C865 1.409 . S
C863 H855 0.930 . S
C863 C864 1.355 . S
C863 C865 1.415 . S
C864 C863 1.355 . S
C864 C866 1.419 . S
C865 C860 1.425 . S
C865 C862 1.409 . S
C865 C863 1.415 . S
C866 H856 0.930 . S
C866 C864 1.419 . S
C866 C867 1.362 . S
C867 H857 0.930 . S
C867 C860 1.409 . S
C867 C866 1.362 . S
H868 C874 0.930 . S
H869 C877 0.930 . S
H870 C878 0.930 . S
H871 C879 0.930 . S
H872 C882 0.930 . S
H873 C883 0.930 . S
C874 H868 0.930 . S
C874 C875 1.355 . S
C874 C876 1.415 . S
C875 C874 1.355 . S
C875 C877 1.419 . S
C876 C874 1.415 . S
C876 C881 1.425 . S
C876 C883 1.409 . S
C877 H869 0.930 . S
C877 C875 1.419 . S
C877 C878 1.362 . S
C878 H870 0.930 . S
C878 C877 1.362 . S
C878 C881 1.409 . S
C879 H871 0.930 . S
C879 C880 1.355 . S
C879 C881 1.415 . S
C880 C879 1.355 . S
C880 C882 1.419 . S
C881 C876 1.425 . S
C881 C878 1.409 . S
C881 C879 1.415 . S
C882 H872 0.930 . S
C882 C880 1.419 . S
C882 C883 1.362 . S
C883 H873 0.930 . S
C883 C876 1.409 . S
C883 C882 1.362 . S
H884 C890 0.930 . S
H885 C893 0.930 . S
H886 C894 0.930 . S
H887 C895 0.930 . S
H888 C898 0.930 . S
H889 C899 0.930 . S
C890 H884 0.930 . S
C890 C891 1.355 . S
C890 C892 1.415 . S
C891 C890 1.355 . S
C891 C893 1.419 . S
C892 C890 1.415 . S
C892 C897 1.425 . S
C892 C899 1.409 . S
C893 H885 0.930 . S
C893 C891 1.419 . S
C893 C894 1.362 . S
C894 H886 0.930 . S
C894 C893 1.362 . S
C894 C897 1.409 . S
C895 H887 0.930 . S
C895 C896 1.355 . S
C895 C897 1.415 . S
C896 C895 1.355 . S
C896 C898 1.419 . S
C897 C892 1.425 . S
C897 C894 1.409 . S
C897 C895 1.415 . S
C898 H888 0.930 . S
C898 C896 1.419 . S
C898 C899 1.362 . S
C899 H889 0.930 . S
C899 C892 1.409 . S
C899 C898 1.362 . S
H900 C906 0.930 . S
H901 C909 0.930 . S
H902 C910 0.930 . S
H903 C911 0.891 1_545 S
H904 C914 0.930 . S
H905 C915 0.930 . S
C906 H900 0.930 . S
C906 C907 1.355 . S
C906 C908 1.415 . S
C907 C906 1.355 . S
C907 C909 1.419 . S
C908 C906 1.415 . S
C908 C913 1.425 . S
C908 C915 1.409 . S
C909 H901 0.930 . S
C909 C907 1.419 . S
C909 C910 1.362 . S
C910 H902 0.930 . S
C910 C909 1.362 . S
C910 C913 1.409 . S
C911 H903 0.891 1_565 S
C911 C912 1.363 . S
C911 C913 1.445 . S
C912 C911 1.363 . S
C912 C914 1.419 . S
C913 C908 1.425 . S
C913 C910 1.409 . S
C913 C911 1.445 . S
C914 H904 0.930 . S
C914 C912 1.419 . S
C914 C915 1.362 . S
C915 H905 0.930 . S
C915 C908 1.409 . S
C915 C914 1.362 . S
H916 C922 0.930 . S
H917 C925 0.930 . S
H918 C926 0.930 . S
H919 C927 0.930 . S
H920 C930 0.930 . S
H921 C931 0.930 . S
C922 H916 0.930 . S
C922 C923 1.355 . S
C922 C924 1.415 . S
C923 C922 1.355 . S
C923 C925 1.419 . S
C924 C922 1.415 . S
C924 C929 1.425 . S
C924 C931 1.409 . S
C925 H917 0.930 . S
C925 C923 1.419 . S
C925 C926 1.362 . S
C926 H918 0.930 . S
C926 C925 1.362 . S
C926 C929 1.409 . S
C927 H919 0.930 . S
C927 C928 1.355 . S
C927 C929 1.415 . S
C928 C927 1.355 . S
C928 C930 1.419 . S
C929 C924 1.425 . S
C929 C926 1.409 . S
C929 C927 1.415 . S
C930 H920 0.930 . S
C930 C928 1.419 . S
C930 C931 1.362 . S
C931 H921 0.930 . S
C931 C924 1.409 . S
C931 C930 1.362 . S
H932 C938 0.930 . S
H933 C941 0.930 . S
H934 C942 0.930 . S
H935 C943 0.930 . S
H936 C946 0.930 . S
H937 C947 0.930 . S
C938 H932 0.930 . S
C938 C939 1.355 . S
C938 C940 1.415 . S
C939 C938 1.355 . S
C939 C941 1.419 . S
C940 C938 1.415 . S
C940 C945 1.425 . S
C940 C947 1.409 . S
C941 H933 0.930 . S
C941 C939 1.419 . S
C941 C942 1.362 . S
C942 H934 0.930 . S
C942 C941 1.362 . S
C942 C945 1.409 . S
C943 H935 0.930 . S
C943 C944 1.355 . S
C943 C945 1.415 . S
C944 C943 1.355 . S
C944 C946 1.419 . S
C945 C940 1.425 . S
C945 C942 1.409 . S
C945 C943 1.415 . S
C946 H936 0.930 . S
C946 C944 1.419 . S
C946 C947 1.362 . S
C947 H937 0.930 . S
C947 C940 1.409 . S
C947 C946 1.362 . S
H948 C954 0.930 . S
H949 C957 0.930 . S
H950 C958 0.930 . S
H951 C959 0.930 . S
H952 C962 0.930 . S
H953 C963 0.930 . S
C954 H948 0.930 . S
C954 C955 1.355 . S
C954 C956 1.415 . S
C955 C954 1.355 . S
C955 C957 1.419 . S
C956 C954 1.415 . S
C956 C961 1.425 . S
C956 C963 1.409 . S
C957 H949 0.930 . S
C957 C955 1.419 . S
C957 C958 1.362 . S
C958 H950 0.930 . S
C958 C957 1.362 . S
C958 C961 1.409 . S
C959 H951 0.930 . S
C959 C960 1.355 . S
C959 C961 1.415 . S
C960 C959 1.355 . S
C960 C962 1.419 . S
C961 C956 1.425 . S
C961 C958 1.409 . S
C961 C959 1.415 . S
C962 H952 0.930 . S
C962 C960 1.419 . S
C962 C963 1.362 . S
C963 H953 0.930 . S
C963 C956 1.409 . S
C963 C962 1.362 . S
H964 C970 0.930 . S
H965 C973 0.930 . S
H966 C974 0.930 . S
H967 C975 0.930 . S
H968 C978 0.930 . S
H969 C979 0.930 . S
C970 H964 0.930 . S
C970 C971 1.355 . S
C970 C972 1.415 . S
C971 C970 1.355 . S
C971 C973 1.419 . S
C972 C970 1.415 . S
C972 C977 1.425 . S
C972 C979 1.409 . S
C973 H965 0.930 . S
C973 C971 1.419 . S
C973 C974 1.362 . S
C974 H966 0.930 . S
C974 C973 1.362 . S
C974 C977 1.409 . S
C975 H967 0.930 . S
C975 C976 1.355 . S
C975 C977 1.415 . S
C976 C975 1.355 . S
C976 C978 1.419 . S
C977 C972 1.425 . S
C977 C974 1.409 . S
C977 C975 1.415 . S
C978 H968 0.930 . S
C978 C976 1.419 . S
C978 C979 1.362 . S
C979 H969 0.930 . S
C979 C972 1.409 . S
C979 C978 1.362 . S
H980 C986 0.930 . S
H981 C989 0.930 . S
H982 C990 0.930 . S
H983 C991 0.930 . S
H984 C994 0.930 . S
H985 C995 0.930 . S
C986 H980 0.930 . S
C986 C987 1.355 . S
C986 C988 1.415 . S
C987 C986 1.355 . S
C987 C989 1.419 . S
C988 C986 1.415 . S
C988 C993 1.425 . S
C988 C995 1.409 . S
C989 H981 0.930 . S
C989 C987 1.419 . S
C989 C990 1.362 . S
C990 H982 0.930 . S
C990 C989 1.362 . S
C990 C993 1.409 . S
C991 H983 0.930 . S
C991 C992 1.355 . S
C991 C993 1.415 . S
C992 C991 1.355 . S
C992 C994 1.419 . S
C993 C988 1.425 . S
C993 C990 1.409 . S
C993 C991 1.415 . S
C994 H984 0.930 . S
C994 C992 1.419 . S
C994 C995 1.362 . S
C995 H985 0.930 . S
C995 C988 1.409 . S
C995 C994 1.362 . S
H996 C1002 0.930 . S
H997 C1005 0.930 . S
H998 C1006 0.930 . S
H999 C1007 0.930 . S
H1000 C1010 0.930 . S
H1001 C1011 0.930 . S
C1002 H996 0.930 . S
C1002 C1003 1.355 . S
C1002 C1004 1.415 . S
C1003 C1002 1.355 . S
C1003 C1005 1.419 . S
C1004 C1002 1.415 . S
C1004 C1009 1.425 . S
C1004 C1011 1.409 . S
C1005 H997 0.930 . S
C1005 C1003 1.419 . S
C1005 C1006 1.362 . S
C1006 H998 0.930 . S
C1006 C1005 1.362 . S
C1006 C1009 1.409 . S
C1007 H999 0.930 . S
C1007 C1008 1.355 . S
C1007 C1009 1.415 . S
C1008 C1007 1.355 . S
C1008 C1010 1.419 . S
C1009 C1004 1.425 . S
C1009 C1006 1.409 . S
C1009 C1007 1.415 . S
C1010 H1000 0.930 . S
C1010 C1008 1.419 . S
C1010 C1011 1.362 . S
C1011 H1001 0.930 . S
C1011 C1004 1.409 . S
C1011 C1010 1.362 . S
H1012 C1018 0.930 . S
H1013 C1021 0.930 . S
H1014 C1022 0.930 . S
H1015 C1023 0.930 . S
H1016 C1026 0.930 . S
H1017 C1027 0.930 . S
C1018 H1012 0.930 . S
C1018 C1019 1.355 . S
C1018 C1020 1.415 . S
C1019 C1018 1.355 . S
C1019 C1021 1.419 . S
C1020 C1018 1.415 . S
C1020 C1025 1.425 . S
C1020 C1027 1.409 . S
C1021 H1013 0.930 . S
C1021 C1019 1.419 . S
C1021 C1022 1.362 . S
C1022 H1014 0.930 . S
C1022 C1021 1.362 . S
C1022 C1025 1.409 . S
C1023 H1015 0.930 . S
C1023 C1024 1.355 . S
C1023 C1025 1.415 . S
C1024 C1023 1.355 . S
C1024 C1026 1.419 . S
C1025 C1020 1.425 . S
C1025 C1022 1.409 . S
C1025 C1023 1.415 . S
C1026 H1016 0.930 . S
C1026 C1024 1.419 . S
C1026 C1027 1.362 . S
C1027 H1017 0.930 . S
C1027 C1020 1.409 . S
C1027 C1026 1.362 . S
H1028 C1034 0.930 . S
H1029 C1037 0.930 . S
H1030 C1038 0.930 . S
H1031 C1039 0.930 . S
H1032 C1042 0.930 . S
H1033 C1043 0.930 . S
C1034 H1028 0.930 . S
C1034 C1035 1.355 . S
C1034 C1036 1.415 . S
C1035 C1034 1.355 . S
C1035 C1037 1.419 . S
C1036 C1034 1.415 . S
C1036 C1041 1.425 . S
C1036 C1043 1.409 . S
C1037 H1029 0.930 . S
C1037 C1035 1.419 . S
C1037 C1038 1.362 . S
C1038 H1030 0.930 . S
C1038 C1037 1.362 . S
C1038 C1041 1.409 . S
C1039 H1031 0.930 . S
C1039 C1040 1.355 . S
C1039 C1041 1.415 . S
C1040 C1039 1.355 . S
C1040 C1042 1.419 . S
C1041 C1036 1.425 . S
C1041 C1038 1.409 . S
C1041 C1039 1.415 . S
C1042 H1032 0.930 . S
C1042 C1040 1.419 . S
C1042 C1043 1.362 . S
C1043 H1033 0.930 . S
C1043 C1036 1.409 . S
C1043 C1042 1.362 . S
H1044 C1050 0.930 . S
H1045 C1053 0.930 . S
H1046 C1054 0.930 . S
H1047 C1055 0.930 . S
H1048 C1058 0.930 . S
H1049 C1059 0.930 . S
C1050 H1044 0.930 . S
C1050 C1051 1.355 . S
C1050 C1052 1.415 . S
C1051 C1050 1.355 . S
C1051 C1053 1.419 . S
C1052 C1050 1.415 . S
C1052 C1057 1.425 . S
C1052 C1059 1.409 . S
C1053 H1045 0.930 . S
C1053 C1051 1.419 . S
C1053 C1054 1.362 . S
C1054 H1046 0.930 . S
C1054 C1053 1.362 . S
C1054 C1057 1.409 . S
C1055 H1047 0.930 . S
C1055 C1056 1.355 . S
C1055 C1057 1.415 . S
C1056 C1055 1.355 . S
C1056 C1058 1.419 . S
C1057 C1052 1.425 . S
C1057 C1054 1.409 . S
C1057 C1055 1.415 . S
C1058 H1048 0.930 . S
C1058 C1056 1.419 . S
C1058 C1059 1.362 . S
C1059 H1049 0.930 . S
C1059 C1052 1.409 . S
C1059 C1058 1.362 . S
H1060 C1066 0.930 . S
H1061 C1069 0.930 . S
H1062 C1070 0.930 . S
H1063 C1071 0.930 . S
H1064 C1074 0.930 . S
H1065 C1075 0.930 . S
C1066 H1060 0.930 . S
C1066 C1067 1.355 . S
C1066 C1068 1.415 . S
C1067 C1066 1.355 . S
C1067 C1069 1.419 . S
C1068 C1066 1.415 . S
C1068 C1073 1.425 . S
C1068 C1075 1.409 . S
C1069 H1061 0.930 . S
C1069 C1067 1.419 . S
C1069 C1070 1.362 . S
C1070 H1062 0.930 . S
C1070 C1069 1.362 . S
C1070 C1073 1.409 . S
C1071 H1063 0.930 . S
C1071 C1072 1.355 . S
C1071 C1073 1.415 . S
C1072 C1071 1.355 . S
C1072 C1074 1.419 . S
C1073 C1068 1.425 . S
C1073 C1070 1.409 . S
C1073 C1071 1.415 . S
C1074 H1064 0.930 . S
C1074 C1072 1.419 . S
C1074 C1075 1.362 . S
C1075 H1065 0.930 . S
C1075 C1068 1.409 . S
C1075 C1074 1.362 . S
H1076 C1082 0.930 . S
H1077 C1085 0.930 . S
H1078 C1086 0.930 . S
H1079 C1087 0.930 . S
H1080 C1090 0.930 . S
H1081 C1091 0.930 . S
C1082 H1076 0.930 . S
C1082 C1083 1.355 . S
C1082 C1084 1.415 . S
C1083 C1082 1.355 . S
C1083 C1085 1.419 . S
C1084 C1082 1.415 . S
C1084 C1089 1.425 . S
C1084 C1091 1.409 . S
C1085 H1077 0.930 . S
C1085 C1083 1.419 . S
C1085 C1086 1.362 . S
C1086 H1078 0.930 . S
C1086 C1085 1.362 . S
C1086 C1089 1.409 . S
C1087 H1079 0.930 . S
C1087 C1088 1.355 . S
C1087 C1089 1.415 . S
C1088 C1087 1.355 . S
C1088 C1090 1.419 . S
C1089 C1084 1.425 . S
C1089 C1086 1.409 . S
C1089 C1087 1.415 . S
C1090 H1080 0.930 . S
C1090 C1088 1.419 . S
C1090 C1091 1.362 . S
C1091 H1081 0.930 . S
C1091 C1084 1.409 . S
C1091 C1090 1.362 . S
H1092 C1098 0.930 . S
H1093 C1101 0.930 . S
H1094 C1102 0.930 . S
H1095 C1103 0.930 . S
H1096 C1106 0.930 . S
H1097 C1107 0.930 . S
C1098 H1092 0.930 . S
C1098 C1099 1.355 . S
C1098 C1100 1.415 . S
C1099 C1098 1.355 . S
C1099 C1101 1.419 . S
C1100 C1098 1.415 . S
C1100 C1105 1.425 . S
C1100 C1107 1.409 . S
C1101 H1093 0.930 . S
C1101 C1099 1.419 . S
C1101 C1102 1.362 . S
C1102 H1094 0.930 . S
C1102 C1101 1.362 . S
C1102 C1105 1.409 . S
C1103 H1095 0.930 . S
C1103 C1104 1.355 . S
C1103 C1105 1.415 . S
C1104 C1103 1.355 . S
C1104 C1106 1.419 . S
C1105 C1100 1.425 . S
C1105 C1102 1.409 . S
C1105 C1103 1.415 . S
C1106 H1096 0.930 . S
C1106 C1104 1.419 . S
C1106 C1107 1.362 . S
C1107 H1097 0.930 . S
C1107 C1100 1.409 . S
C1107 C1106 1.362 . S
H1108 C1114 0.930 . S
H1109 C1117 0.930 . S
H1110 C1118 0.930 . S
H1111 C1119 0.930 . S
H1112 C1122 0.930 . S
H1113 C1123 0.930 . S
C1114 H1108 0.930 . S
C1114 C1115 1.355 . S
C1114 C1116 1.415 . S
C1115 C1114 1.355 . S
C1115 C1117 1.419 . S
C1116 C1114 1.415 . S
C1116 C1121 1.425 . S
C1116 C1123 1.409 . S
C1117 H1109 0.930 . S
C1117 C1115 1.419 . S
C1117 C1118 1.362 . S
C1118 H1110 0.930 . S
C1118 C1117 1.362 . S
C1118 C1121 1.409 . S
C1119 H1111 0.930 . S
C1119 C1120 1.355 . S
C1119 C1121 1.415 . S
C1120 C1119 1.355 . S
C1120 C1122 1.419 . S
C1121 C1116 1.425 . S
C1121 C1118 1.409 . S
C1121 C1119 1.415 . S
C1122 H1112 0.930 . S
C1122 C1120 1.419 . S
C1122 C1123 1.362 . S
C1123 H1113 0.930 . S
C1123 C1116 1.409 . S
C1123 C1122 1.362 . S
H1124 C1130 0.930 . S
H1125 C1133 0.930 . S
H1126 C1134 0.930 . S
H1127 C1135 0.930 . S
H1128 C1138 0.930 . S
H1129 C1139 0.930 . S
C1130 H1124 0.930 . S
C1130 C1131 1.355 . S
C1130 C1132 1.415 . S
C1131 C1130 1.355 . S
C1131 C1133 1.419 . S
C1132 C1130 1.415 . S
C1132 C1137 1.425 . S
C1132 C1139 1.409 . S
C1133 H1125 0.930 . S
C1133 C1131 1.419 . S
C1133 C1134 1.362 . S
C1134 H1126 0.930 . S
C1134 C1133 1.362 . S
C1134 C1137 1.409 . S
C1135 H1127 0.930 . S
C1135 C1136 1.355 . S
C1135 C1137 1.415 . S
C1136 C1135 1.355 . S
C1136 C1138 1.419 . S
C1137 C1132 1.425 . S
C1137 C1134 1.409 . S
C1137 C1135 1.415 . S
C1138 H1128 0.930 . S
C1138 C1136 1.419 . S
C1138 C1139 1.362 . S
C1139 H1129 0.930 . S
C1139 C1132 1.409 . S
C1139 C1138 1.362 . S
H1140 C1146 0.930 . S
H1141 C1149 0.930 . S
H1142 C1150 0.930 . S
H1143 C1151 0.930 . S
H1144 C1154 0.930 . S
H1145 C1155 0.930 . S
C1146 H1140 0.930 . S
C1146 C1147 1.355 . S
C1146 C1148 1.415 . S
C1147 C1146 1.355 . S
C1147 C1149 1.419 . S
C1148 C1146 1.415 . S
C1148 C1153 1.425 . S
C1148 C1155 1.409 . S
C1149 H1141 0.930 . S
C1149 C1147 1.419 . S
C1149 C1150 1.362 . S
C1150 H1142 0.930 . S
C1150 C1149 1.362 . S
C1150 C1153 1.409 . S
C1151 H1143 0.930 . S
C1151 C1152 1.355 . S
C1151 C1153 1.415 . S
C1152 C1151 1.355 . S
C1152 C1154 1.419 . S
C1153 C1148 1.425 . S
C1153 C1150 1.409 . S
C1153 C1151 1.415 . S
C1154 H1144 0.930 . S
C1154 C1152 1.419 . S
C1154 C1155 1.362 . S
C1155 H1145 0.930 . S
C1155 C1148 1.409 . S
C1155 C1154 1.362 . S
C784 C99 1.125 . S
C779 C5 1.678 . S
C800 C231 1.308 . S
C795 C16 1.226 . S
C816 C117 1.711 . S
C811 C30 1.893 . S
C832 C213 1.014 . S
C827 C40 1.626 . S
C848 C345 1.170 . S
C843 C8 1.607 . S
C864 C459 1.205 . S
C859 C18 1.405 . S
C875 C29 1.780 . S
C880 C599 1.505 . S
C896 C713 1.249 . S
C891 C38 1.447 . S
C912 C327 1.171 1_565 S
C907 C19 1.508 . S
C923 C27 1.598 . S
C928 C441 1.191 . S
C944 C545 1.269 . S
C939 C41 1.573 . S
C960 C659 1.212 . S
C955 C7 1.506 . S
C971 C52 1.717 . S
C976 C257 1.189 . S
C992 C89 1.440 . S
C987 C62 1.747 . S
C1003 C74 1.342 . S
C1008 C203 1.186 . S
C1019 C82 1.415 . S
C1024 C143 1.159 . S
C1040 C555 1.236 . S
C1035 C51 1.839 . S
C1056 C669 1.539 . S
C1051 C60 1.616 . S
C1072 C317 0.914 . S
C1067 C71 1.092 . S
C1083 C84 1.386 . S
C1088 C431 1.031 . S
C1104 C573 1.444 . S
C1099 C63 1.661 . S
C1120 C687 1.093 . S
C1115 C73 1.518 . S
C1136 C371 1.305 1_565 S
C1131 C85 1.634 . S
C1147 C49 1.357 . S
C1152 C485 1.393 . S
