# Generated by pormake.
# Topology eea, (3,6)-cn, num edge types: 1
# Building blocks:
#     Node 0, Type 0, BuildingBlock: BELTOD_clean_linker_0, # of connection points: 3
#     Node 1, Type 0, BuildingBlock: BELTOD_clean_linker_0, # of connection points: 3
#     Node 2, Type 0, BuildingBlock: BELTOD_clean_linker_0, # of connection points: 3
#     Node 3, Type 0, BuildingBlock: BELTOD_clean_linker_0, # of connection points: 3
#     Node 4, Type 0, BuildingBlock: BELTOD_clean_linker_0, # of connection points: 3
#     Node 5, Type 0, BuildingBlock: BELTOD_clean_linker_0, # of connection points: 3
#     Node 6, Type 0, BuildingBlock: BELTOD_clean_linker_0, # of connection points: 3
#     Node 7, Type 0, BuildingBlock: BELTOD_clean_linker_0, # of connection points: 3
#     Node 8, Type 0, BuildingBlock: BELTOD_clean_linker_0, # of connection points: 3
#     Node 9, Type 0, BuildingBlock: BELTOD_clean_linker_0, # of connection points: 3
#     Node 10, Type 0, BuildingBlock: BELTOD_clean_linker_0, # of connection points: 3
#     Node 11, Type 0, BuildingBlock: BELTOD_clean_linker_0, # of connection points: 3
#     Node 12, Type 0, BuildingBlock: BELTOD_clean_linker_0, # of connection points: 3
#     Node 13, Type 0, BuildingBlock: BELTOD_clean_linker_0, # of connection points: 3
#     Node 14, Type 0, BuildingBlock: BELTOD_clean_linker_0, # of connection points: 3
#     Node 15, Type 0, BuildingBlock: BELTOD_clean_linker_0, # of connection points: 3
#     Node 16, Type 0, BuildingBlock: BELTOD_clean_linker_0, # of connection points: 3
#     Node 17, Type 0, BuildingBlock: BELTOD_clean_linker_0, # of connection points: 3
#     Node 18, Type 1, BuildingBlock: KUMJIN_clean_sbu_0, # of connection points: 6
#     Node 19, Type 1, BuildingBlock: KUMJIN_clean_sbu_0, # of connection points: 6
#     Node 20, Type 1, BuildingBlock: KUMJIN_clean_sbu_0, # of connection points: 6
#     Node 21, Type 1, BuildingBlock: KUMJIN_clean_sbu_0, # of connection points: 6
#     Node 22, Type 1, BuildingBlock: KUMJIN_clean_sbu_0, # of connection points: 6
#     Node 23, Type 1, BuildingBlock: KUMJIN_clean_sbu_0, # of connection points: 6
#     Node 24, Type 1, BuildingBlock: KUMJIN_clean_sbu_0, # of connection points: 6
#     Node 25, Type 1, BuildingBlock: KUMJIN_clean_sbu_0, # of connection points: 6
#     Node 26, Type 1, BuildingBlock: KUMJIN_clean_sbu_0, # of connection points: 6
#     Edge 27, Type (0, 1), BuildingBlock: CIFDUS_clean_linker_0, # of connection points: 2
#     Edge 28, Type (0, 1), BuildingBlock: CIFDUS_clean_linker_0, # of connection points: 2
#     Edge 29, Type (0, 1), BuildingBlock: CIFDUS_clean_linker_0, # of connection points: 2
#     Edge 30, Type (0, 1), BuildingBlock: CIFDUS_clean_linker_0, # of connection points: 2
#     Edge 31, Type (0, 1), BuildingBlock: CIFDUS_clean_linker_0, # of connection points: 2
#     Edge 32, Type (0, 1), BuildingBlock: CIFDUS_clean_linker_0, # of connection points: 2
#     Edge 33, Type (0, 1), BuildingBlock: CIFDUS_clean_linker_0, # of connection points: 2
#     Edge 34, Type (0, 1), BuildingBlock: CIFDUS_clean_linker_0, # of connection points: 2
#     Edge 35, Type (0, 1), BuildingBlock: CIFDUS_clean_linker_0, # of connection points: 2
#     Edge 36, Type (0, 1), BuildingBlock: CIFDUS_clean_linker_0, # of connection points: 2
#     Edge 37, Type (0, 1), BuildingBlock: CIFDUS_clean_linker_0, # of connection points: 2
#     Edge 38, Type (0, 1), BuildingBlock: CIFDUS_clean_linker_0, # of connection points: 2
#     Edge 39, Type (0, 1), BuildingBlock: CIFDUS_clean_linker_0, # of connection points: 2
#     Edge 40, Type (0, 1), BuildingBlock: CIFDUS_clean_linker_0, # of connection points: 2
#     Edge 41, Type (0, 1), BuildingBlock: CIFDUS_clean_linker_0, # of connection points: 2
#     Edge 42, Type (0, 1), BuildingBlock: CIFDUS_clean_linker_0, # of connection points: 2
#     Edge 43, Type (0, 1), BuildingBlock: CIFDUS_clean_linker_0, # of connection points: 2
#     Edge 44, Type (0, 1), BuildingBlock: CIFDUS_clean_linker_0, # of connection points: 2
#     Edge 45, Type (0, 1), BuildingBlock: CIFDUS_clean_linker_0, # of connection points: 2
#     Edge 46, Type (0, 1), BuildingBlock: CIFDUS_clean_linker_0, # of connection points: 2
#     Edge 47, Type (0, 1), BuildingBlock: CIFDUS_clean_linker_0, # of connection points: 2
#     Edge 48, Type (0, 1), BuildingBlock: CIFDUS_clean_linker_0, # of connection points: 2
#     Edge 49, Type (0, 1), BuildingBlock: CIFDUS_clean_linker_0, # of connection points: 2
#     Edge 50, Type (0, 1), BuildingBlock: CIFDUS_clean_linker_0, # of connection points: 2
#     Edge 51, Type (0, 1), BuildingBlock: CIFDUS_clean_linker_0, # of connection points: 2
#     Edge 52, Type (0, 1), BuildingBlock: CIFDUS_clean_linker_0, # of connection points: 2
#     Edge 53, Type (0, 1), BuildingBlock: CIFDUS_clean_linker_0, # of connection points: 2
#     Edge 54, Type (0, 1), BuildingBlock: CIFDUS_clean_linker_0, # of connection points: 2
#     Edge 55, Type (0, 1), BuildingBlock: CIFDUS_clean_linker_0, # of connection points: 2
#     Edge 56, Type (0, 1), BuildingBlock: CIFDUS_clean_linker_0, # of connection points: 2
#     Edge 57, Type (0, 1), BuildingBlock: CIFDUS_clean_linker_0, # of connection points: 2
#     Edge 58, Type (0, 1), BuildingBlock: CIFDUS_clean_linker_0, # of connection points: 2
#     Edge 59, Type (0, 1), BuildingBlock: CIFDUS_clean_linker_0, # of connection points: 2
#     Edge 60, Type (0, 1), BuildingBlock: CIFDUS_clean_linker_0, # of connection points: 2
#     Edge 61, Type (0, 1), BuildingBlock: CIFDUS_clean_linker_0, # of connection points: 2
#     Edge 62, Type (0, 1), BuildingBlock: CIFDUS_clean_linker_0, # of connection points: 2
#     Edge 63, Type (0, 1), BuildingBlock: CIFDUS_clean_linker_0, # of connection points: 2
#     Edge 64, Type (0, 1), BuildingBlock: CIFDUS_clean_linker_0, # of connection points: 2
#     Edge 65, Type (0, 1), BuildingBlock: CIFDUS_clean_linker_0, # of connection points: 2
#     Edge 66, Type (0, 1), BuildingBlock: CIFDUS_clean_linker_0, # of connection points: 2
#     Edge 67, Type (0, 1), BuildingBlock: CIFDUS_clean_linker_0, # of connection points: 2
#     Edge 68, Type (0, 1), BuildingBlock: CIFDUS_clean_linker_0, # of connection points: 2
#     Edge 69, Type (0, 1), BuildingBlock: CIFDUS_clean_linker_0, # of connection points: 2
#     Edge 70, Type (0, 1), BuildingBlock: CIFDUS_clean_linker_0, # of connection points: 2
#     Edge 71, Type (0, 1), BuildingBlock: CIFDUS_clean_linker_0, # of connection points: 2
#     Edge 72, Type (0, 1), BuildingBlock: CIFDUS_clean_linker_0, # of connection points: 2
#     Edge 73, Type (0, 1), BuildingBlock: CIFDUS_clean_linker_0, # of connection points: 2
#     Edge 74, Type (0, 1), BuildingBlock: CIFDUS_clean_linker_0, # of connection points: 2
#     Edge 75, Type (0, 1), BuildingBlock: CIFDUS_clean_linker_0, # of connection points: 2
#     Edge 76, Type (0, 1), BuildingBlock: CIFDUS_clean_linker_0, # of connection points: 2
#     Edge 77, Type (0, 1), BuildingBlock: CIFDUS_clean_linker_0, # of connection points: 2
#     Edge 78, Type (0, 1), BuildingBlock: CIFDUS_clean_linker_0, # of connection points: 2
#     Edge 79, Type (0, 1), BuildingBlock: CIFDUS_clean_linker_0, # of connection points: 2
#     Edge 80, Type (0, 1), BuildingBlock: CIFDUS_clean_linker_0, # of connection points: 2
# Relax obj value: 0.008
# Max RMSD: 0.085
# Mean RMSD: 0.072
data_MOF--net-eea--node1-KUMJIN_clean_sbu_0--node2-BELTOD_clean_linker_0--edge1-CIFDUS_clean_linker_0
_symmetry_space_group_name_H-M    P1
_symmetry_Int_Tables_number       1
_symmetry_cell_setting            triclinic
loop_
_symmetry_equiv_pos_as_xyz
'x, y, z'
_cell_length_a     51.949967
_cell_length_b     53.029059
_cell_length_c     74.420632
_cell_angle_alpha  90.536683
_cell_angle_beta   89.907945
_cell_angle_gamma 120.05349
loop_
_atom_site_label
_atom_site_type_symbol
_atom_site_fract_x
_atom_site_fract_y
_atom_site_fract_z
_atom_type_partial_charge
P0 P 0.2756 0.143 0.41581 0.0
H1 H 0.29037 0.11803 0.38528 0.0
H2 H 0.26608 0.06942 0.37175 0.0
H3 H 0.19185 0.04243 0.40782 0.0
H4 H 0.21655 0.09136 0.42158 0.0
H5 H 0.30701 0.20275 0.40303 0.0
H6 H 0.29047 0.23607 0.39339 0.0
H7 H 0.19922 0.16984 0.40293 0.0
H8 H 0.21603 0.13626 0.41245 0.0
H9 H 0.26675 0.09638 0.44042 0.0
H10 H 0.28384 0.18469 0.44423 0.0
O11 O 0.31145 0.15765 0.41042 0.0
H12 H 0.27339 0.09597 0.47289 0.0
H13 H 0.29094 0.1845 0.4767 0.0
C14 C 0.25555 0.10808 0.4047 0.0
C15 C 0.26881 0.10179 0.39026 0.0
C16 C 0.25491 0.07403 0.3825 0.0
C17 C 0.22727 0.05217 0.38888 0.0
C18 C 0.21313 0.05897 0.40264 0.0
C19 C 0.22724 0.08681 0.41053 0.0
C20 C 0.26272 0.16688 0.40821 0.0
C21 C 0.28342 0.19523 0.40294 0.0
C22 C 0.27394 0.21437 0.39756 0.0
C23 C 0.24353 0.20561 0.39745 0.0
C24 C 0.22276 0.1771 0.4027 0.0
C25 C 0.23234 0.15792 0.40816 0.0
C26 C 0.27397 0.14029 0.43993 0.0
C27 C 0.27094 0.11535 0.44828 0.0
C28 C 0.27483 0.11515 0.46685 0.0
C29 C 0.28262 0.14019 0.4773 0.0
C30 C 0.28495 0.16491 0.46896 0.0
C31 C 0.28068 0.16495 0.45042 0.0
P32 P 0.9204 0.11223 0.43079 0.0
H33 H 0.92321 0.09391 0.39408 0.0
H34 H 0.88649 0.05521 0.37469 0.0
H35 H 0.8189 0.03591 0.41478 0.0
H36 H 0.85508 0.0754 0.43343 0.0
H37 H 0.9851 0.1394 0.43115 0.0
H38 H 0.02435 0.17856 0.41379 0.0
H39 H 0.9591 0.19325 0.38743 0.0
H40 H 0.91948 0.15344 0.40485 0.0
H41 H 0.88742 0.0795 0.46188 0.0
H42 H 0.91893 0.1658 0.44119 0.0
O43 O 0.9355 0.09345 0.43911 0.0
H44 H 0.86355 0.09002 0.4869 0.0
H45 H 0.89576 0.1767 0.46673 0.0
C46 C 0.89201 0.08788 0.41519 0.0
C47 C 0.90028 0.08188 0.39845 0.0
C48 C 0.87928 0.05943 0.38746 0.0
C49 C 0.84964 0.04211 0.39317 0.0
C50 C 0.84131 0.04892 0.40973 0.0
C51 C 0.86223 0.07156 0.42058 0.0
C52 C 0.94931 0.14332 0.41918 0.0
C53 C 0.9791 0.15098 0.42168 0.0
C54 C 1.00155 0.1733 0.41167 0.0
C55 C 0.99475 0.18869 0.39906 0.0
C56 C 0.96497 0.18171 0.39702 0.0
C57 C 0.94237 0.15904 0.40695 0.0
C58 C 0.9049 0.1218 0.44963 0.0
C59 C 0.88946 0.10082 0.46281 0.0
C60 C 0.87578 0.10679 0.47707 0.0
C61 C 0.87786 0.13411 0.47866 0.0
C62 C 0.89398 0.15549 0.46575 0.0
C63 C 0.90716 0.14925 0.45118 0.0
P64 P 0.87099 0.74128 0.41397 0.0
H65 H 0.82971 0.71898 0.38369 0.0
H66 H 0.7946 0.73207 0.37146 0.0
H67 H 0.83097 0.80789 0.40625 0.0
H68 H 0.86684 0.79487 0.41825 0.0
H69 H 0.89072 0.72523 0.38172 0.0
H70 H 0.93956 0.73734 0.3702 0.0
H71 H 0.98152 0.79986 0.4133 0.0
H72 H 0.93206 0.78727 0.42505 0.0
H73 H 0.83004 0.74847 0.43787 0.0
H74 H 0.90476 0.73483 0.44352 0.0
O75 O 0.85302 0.70545 0.40991 0.0
H76 H 0.81868 0.73836 0.46945 0.0
H77 H 0.8926 0.7234 0.47534 0.0
C78 C 0.85026 0.75539 0.40235 0.0
C79 C 0.83052 0.73867 0.38857 0.0
C80 C 0.81028 0.74612 0.38162 0.0
C81 C 0.80932 0.77057 0.38824 0.0
C82 C 0.83094 0.78881 0.40093 0.0
C83 C 0.85142 0.78135 0.40784 0.0
C84 C 0.90769 0.75482 0.40449 0.0
C85 C 0.91035 0.74175 0.38866 0.0
C86 C 0.9383 0.74868 0.38207 0.0
C87 C 0.96437 0.76928 0.39096 0.0
C88 C 0.96179 0.78388 0.40618 0.0
C89 C 0.93358 0.77664 0.41293 0.0
C90 C 0.869 0.74351 0.43823 0.0
C91 C 0.84491 0.74457 0.44598 0.0
C92 C 0.83801 0.73818 0.46413 0.0
C93 C 0.85445 0.72966 0.47495 0.0
C94 C 0.87962 0.73016 0.46748 0.0
C95 C 0.88668 0.73683 0.44925 0.0
P96 P 0.12872 0.25687 0.60528 0.0
H97 H 0.08853 0.27928 0.60839 0.0
H98 H 0.03933 0.26083 0.62075 0.0
H99 H 0.03755 0.18137 0.63586 0.0
H100 H 0.0863 0.19935 0.62177 0.0
H101 H 0.18245 0.26121 0.59035 0.0
H102 H 0.21972 0.25071 0.60199 0.0
H103 H 0.16855 0.21672 0.65044 0.0
H104 H 0.13101 0.22751 0.63871 0.0
H105 H 0.11842 0.29244 0.57983 0.0
H106 H 0.13195 0.21872 0.57716 0.0
O107 O 0.14638 0.29198 0.61132 0.0
H108 H 0.118 0.29416 0.54719 0.0
H109 H 0.13443 0.22182 0.54454 0.0
C110 C 0.09172 0.24123 0.6147 0.0
C111 C 0.07764 0.25786 0.61436 0.0
C112 C 0.04942 0.24731 0.62173 0.0
C113 C 0.03445 0.21987 0.63001 0.0
C114 C 0.04825 0.20269 0.62979 0.0
C115 C 0.07644 0.21312 0.62194 0.0
C116 C 0.15281 0.24361 0.61311 0.0
C117 C 0.17846 0.25047 0.60319 0.0
C118 C 0.20011 0.24487 0.60999 0.0
C119 C 0.19702 0.23274 0.6271 0.0
C120 C 0.17125 0.22557 0.63707 0.0
C121 C 0.14958 0.23146 0.63026 0.0
C122 C 0.126 0.25595 0.581 0.0
C123 C 0.12156 0.27672 0.57219 0.0
C124 C 0.12177 0.27792 0.55341 0.0
C125 C 0.12691 0.25861 0.54291 0.0
C126 C 0.13022 0.23706 0.55191 0.0
C127 C 0.12919 0.23542 0.57071 0.0
P128 P 0.8111 0.89828 0.58551 0.0
H129 H 0.86251 0.95436 0.59563 0.0
H130 H 0.86762 0.99594 0.6129 0.0
H131 H 0.77263 0.95068 0.62149 0.0
H132 H 0.76765 0.90917 0.60397 0.0
H133 H 0.78995 0.83755 0.57672 0.0
H134 H 0.78169 0.79606 0.59482 0.0
H135 H 0.80056 0.84873 0.643 0.0
H136 H 0.80974 0.89038 0.62471 0.0
H137 H 0.81897 0.91222 0.54736 0.0
H138 H 0.7459 0.86614 0.58391 0.0
O139 O 0.84411 0.90701 0.57676 0.0
H140 H 0.78413 0.90041 0.52257 0.0
H141 H 0.71062 0.85549 0.55933 0.0
C142 C 0.81464 0.92883 0.5983 0.0
C143 C 0.84274 0.95336 0.60117 0.0
C144 C 0.84568 0.97706 0.61118 0.0
C145 C 0.82053 0.97663 0.61856 0.0
C146 C 0.79238 0.95184 0.61578 0.0
C147 C 0.7895 0.92809 0.60578 0.0
C148 C 0.80007 0.86691 0.59936 0.0
C149 C 0.79173 0.83998 0.59121 0.0
C150 C 0.78689 0.81622 0.60161 0.0
C151 C 0.79045 0.81902 0.6204 0.0
C152 C 0.79793 0.8459 0.62856 0.0
C153 C 0.80292 0.8697 0.61811 0.0
C154 C 0.78501 0.88983 0.56742 0.0
C155 C 0.79536 0.89969 0.55007 0.0
C156 C 0.77532 0.89317 0.53591 0.0
C157 C 0.74444 0.87705 0.53889 0.0
C158 C 0.73419 0.86757 0.55644 0.0
C159 C 0.75433 0.87385 0.57057 0.0
P160 P 0.14218 0.85184 0.61307 0.0
H161 H 0.1679 0.88287 0.64656 0.0
H162 H 0.19381 0.93471 0.65477 0.0
H163 H 0.17469 0.95535 0.6023 0.0
H164 H 0.14746 0.9033 0.5944 0.0
H165 H 0.12289 0.8206 0.64682 0.0
H166 H 0.07417 0.78905 0.65988 0.0
H167 H 0.03253 0.80369 0.61399 0.0
H168 H 0.08174 0.83638 0.60138 0.0
H169 H 0.18526 0.88699 0.5856 0.0
H170 H 0.10384 0.80426 0.58802 0.0
O171 O 0.16459 0.8411 0.6219 0.0
H172 H 0.19038 0.8785 0.55388 0.0
H173 H 0.10893 0.7956 0.55624 0.0
C174 C 0.15676 0.88938 0.61965 0.0
C175 C 0.16883 0.89849 0.63692 0.0
C176 C 0.18351 0.92803 0.64162 0.0
C177 C 0.18653 0.9489 0.62905 0.0
C178 C 0.1729 0.9396 0.61212 0.0
C179 C 0.15756 0.90993 0.60758 0.0
C180 C 0.10586 0.82999 0.62282 0.0
C181 C 0.10329 0.81705 0.63955 0.0
C182 C 0.07533 0.79888 0.647 0.0
C183 C 0.04927 0.79325 0.63785 0.0
C184 C 0.05205 0.8075 0.62145 0.0
C185 C 0.08016 0.82596 0.6141 0.0
C186 C 0.14333 0.84701 0.58906 0.0
C187 C 0.16787 0.86746 0.57918 0.0
C188 C 0.17088 0.86252 0.56102 0.0
C189 C 0.14985 0.83655 0.55247 0.0
C190 C 0.1254 0.81591 0.56242 0.0
C191 C 0.12229 0.82102 0.58057 0.0
P192 P 0.96169 0.48001 0.7437 0.0
H193 H 0.98969 0.44691 0.732 0.0
H194 H 0.96991 0.39631 0.7227 0.0
H195 H 0.88045 0.38064 0.72975 0.0
H196 H 0.90048 0.4316 0.7384 0.0
H197 H 0.97145 0.52033 0.71458 0.0
H198 H 0.94468 0.54453 0.70479 0.0
H199 H 0.87717 0.4975 0.74479 0.0
H200 H 0.9053 0.47483 0.75523 0.0
H201 H 0.93371 0.43507 0.77162 0.0
H202 H 0.99292 0.52798 0.76903 0.0
O203 O 0.99646 0.49973 0.73615 0.0
H204 H 0.93977 0.43696 0.80414 0.0
H205 H 0.9987 0.53013 0.80175 0.0
C206 C 0.94658 0.4432 0.73554 0.0
C207 C 0.96581 0.43271 0.73127 0.0
C208 C 0.95444 0.40363 0.72616 0.0
C209 C 0.92355 0.38431 0.72551 0.0
C210 C 0.90433 0.39499 0.72981 0.0
C211 C 0.91577 0.42418 0.73479 0.0
C212 C 0.94053 0.49608 0.73577 0.0
C213 C 0.95091 0.51527 0.72126 0.0
C214 C 0.93531 0.52886 0.71552 0.0
C215 C 0.90867 0.52309 0.72398 0.0
C216 C 0.89786 0.50296 0.73816 0.0
C217 C 0.91378 0.48977 0.74407 0.0
C218 C 0.96335 0.48135 0.76786 0.0
C219 C 0.94781 0.45596 0.77803 0.0
C220 C 0.95109 0.45709 0.7967 0.0
C221 C 0.96992 0.48367 0.80553 0.0
C222 C 0.98444 0.50925 0.79532 0.0
C223 C 0.98109 0.50808 0.77665 0.0
P224 P 0.57645 0.43801 0.76859 0.0
H225 H 0.56222 0.37906 0.75852 0.0
H226 H 0.51996 0.33896 0.74321 0.0
H227 H 0.47905 0.39214 0.73764 0.0
H228 H 0.52156 0.43234 0.75323 0.0
H229 H 0.61666 0.50106 0.77233 0.0
H230 H 0.65629 0.53623 0.75305 0.0
H231 H 0.63024 0.47035 0.71155 0.0
H232 H 0.59061 0.43526 0.7309 0.0
H233 H 0.57328 0.4278 0.80713 0.0
H234 H 0.55213 0.4777 0.77078 0.0
O235 O 0.59705 0.42492 0.77714 0.0
H236 H 0.55695 0.44548 0.83243 0.0
H237 H 0.53417 0.49451 0.79608 0.0
C238 C 0.54487 0.40858 0.75728 0.0
C239 C 0.54416 0.38216 0.7541 0.0
C240 C 0.52004 0.35926 0.74519 0.0
C241 C 0.49613 0.36235 0.73917 0.0
C242 C 0.49696 0.38897 0.74229 0.0
C243 C 0.52126 0.41197 0.75118 0.0
C244 C 0.60017 0.46568 0.75292 0.0
C245 C 0.61874 0.49444 0.75885 0.0
C246 C 0.64147 0.51455 0.7478 0.0
C247 C 0.64642 0.50607 0.73076 0.0
C248 C 0.62706 0.47751 0.72463 0.0
C249 C 0.60421 0.4575 0.73563 0.0
C250 C 0.56422 0.45166 0.78707 0.0
C251 C 0.565 0.44254 0.80457 0.0
C252 C 0.55527 0.45244 0.81906 0.0
C253 C 0.544 0.47135 0.81638 0.0
C254 C 0.54302 0.48027 0.79873 0.0
C255 C 0.55307 0.47051 0.78421 0.0
P256 P 0.53161 0.06297 0.74776 0.0
H257 H 0.47223 0.04778 0.75879 0.0
H258 H 0.43576 0.05971 0.74751 0.0
H259 H 0.49908 0.11672 0.70824 0.0
H260 H 0.53618 0.10541 0.72023 0.0
H261 H 0.54757 0.05143 0.71247 0.0
H262 H 0.59531 0.06535 0.69832 0.0
H263 H 0.64122 0.12336 0.74283 0.0
H264 H 0.5931 0.10888 0.75722 0.0
H265 H 0.51644 0.09085 0.77763 0.0
H266 H 0.55574 0.03643 0.77134 0.0
O267 O 0.5137 0.02766 0.7422 0.0
H268 H 0.51233 0.0822 0.81002 0.0
H269 H 0.55223 0.02817 0.80375 0.0
C270 C 0.50712 0.07603 0.7406 0.0
C271 C 0.47858 0.06338 0.74802 0.0
C272 C 0.45754 0.06993 0.74135 0.0
C273 C 0.46423 0.08886 0.72674 0.0
C274 C 0.49319 0.10218 0.71956 0.0
C275 C 0.51444 0.09571 0.7264 0.0
C276 C 0.56677 0.0787 0.73605 0.0
C277 C 0.56784 0.06749 0.7191 0.0
C278 C 0.59513 0.07545 0.711 0.0
C279 C 0.62196 0.09523 0.71954 0.0
C280 C 0.62086 0.10813 0.73593 0.0
C281 C 0.5934 0.09981 0.74418 0.0
C282 C 0.53584 0.06377 0.77195 0.0
C283 C 0.52461 0.07739 0.78319 0.0
C284 C 0.52223 0.07241 0.80175 0.0
C285 C 0.53155 0.05415 0.80945 0.0
C286 C 0.5449 0.04241 0.79829 0.0
C287 C 0.54692 0.04711 0.77973 0.0
P288 P 0.80135 0.60606 0.93725 0.0
H289 H 0.76045 0.62807 0.93494 0.0
H290 H 0.71319 0.61455 0.9489 0.0
H291 H 0.71354 0.54197 0.97459 0.0
H292 H 0.76057 0.55479 0.95941 0.0
H293 H 0.84304 0.62604 0.9674 0.0
H294 H 0.87768 0.61139 0.97842 0.0
H295 H 0.83921 0.53722 0.94234 0.0
H296 H 0.80426 0.55217 0.93116 0.0
H297 H 0.76615 0.61039 0.90731 0.0
H298 H 0.84539 0.6043 0.91337 0.0
O299 O 0.81932 0.6414 0.94277 0.0
H300 H 0.77915 0.6249 0.87624 0.0
H301 H 0.85714 0.61623 0.88197 0.0
C302 C 0.76398 0.59223 0.9458 0.0
C303 C 0.75001 0.60865 0.94307 0.0
C304 C 0.72311 0.60119 0.95144 0.0
C305 C 0.70966 0.57749 0.96328 0.0
C306 C 0.72314 0.56033 0.96557 0.0
C307 C 0.75011 0.56766 0.95689 0.0
C308 C 0.82153 0.59065 0.94809 0.0
C309 C 0.84163 0.60638 0.96196 0.0
C310 C 0.86152 0.59802 0.96827 0.0
C311 C 0.86158 0.57349 0.961 0.0
C312 C 0.83975 0.55628 0.94816 0.0
C313 C 0.81982 0.56481 0.94175 0.0
C314 C 0.80456 0.60592 0.91293 0.0
C315 C 0.78577 0.61106 0.9019 0.0
C316 C 0.79321 0.61926 0.88391 0.0
C317 C 0.8196 0.62238 0.87647 0.0
C318 C 0.83708 0.61495 0.88722 0.0
C319 C 0.82997 0.60741 0.90525 0.0
P320 P 0.50241 0.25066 0.91351 0.0
H321 H 0.54948 0.30558 0.92835 0.0
H322 H 0.54886 0.34266 0.94776 0.0
H323 H 0.45304 0.29124 0.95075 0.0
H324 H 0.45385 0.25422 0.93116 0.0
H325 H 0.5488 0.2375 0.92326 0.0
H326 H 0.54924 0.2008 0.94257 0.0
H327 H 0.45632 0.16718 0.9546 0.0
H328 H 0.45601 0.20394 0.93498 0.0
H329 H 0.4759 0.27891 0.89367 0.0
H330 H 0.4632 0.19234 0.89789 0.0
O331 O 0.53366 0.26642 0.90148 0.0
H332 H 0.43707 0.26172 0.87073 0.0
H333 H 0.42444 0.175 0.87475 0.0
C334 C 0.50168 0.27754 0.92803 0.0
C335 C 0.52834 0.30233 0.93313 0.0
C336 C 0.52795 0.3234 0.94433 0.0
C337 C 0.50087 0.31991 0.95072 0.0
C338 C 0.47419 0.29472 0.94582 0.0
C339 C 0.47464 0.27355 0.93468 0.0
C340 C 0.5022 0.22299 0.9274 0.0
C341 C 0.52846 0.22213 0.92995 0.0
C342 C 0.52877 0.20131 0.94115 0.0
C343 C 0.50281 0.18105 0.95011 0.0
C344 C 0.47658 0.18225 0.94771 0.0
C345 C 0.47635 0.20321 0.93653 0.0
C346 C 0.47187 0.23675 0.89784 0.0
C347 C 0.46443 0.25608 0.88985 0.0
C348 C 0.44242 0.24629 0.87661 0.0
C349 C 0.42766 0.21699 0.87094 0.0
C350 C 0.43509 0.1976 0.87904 0.0
C351 C 0.45724 0.20748 0.89228 0.0
P352 P 0.79129 0.18983 0.94109 0.0
H353 H 0.82303 0.21846 0.97426 0.0
H354 H 0.85218 0.26964 0.98331 0.0
H355 H 0.82614 0.29445 0.93444 0.0
H356 H 0.79709 0.24304 0.92542 0.0
H357 H 0.74711 0.12847 0.93672 0.0
H358 H 0.6968 0.09842 0.94791 0.0
H359 H 0.70117 0.17445 0.97291 0.0
H360 H 0.75078 0.20468 0.96045 0.0
H361 H 0.84519 0.22427 0.92084 0.0
H362 H 0.756 0.15515 0.90917 0.0
O363 O 0.80824 0.17428 0.95141 0.0
H364 H 0.85972 0.22218 0.89009 0.0
H365 H 0.77097 0.15141 0.8786 0.0
C366 C 0.8085 0.22706 0.94899 0.0
C367 C 0.82331 0.23487 0.96558 0.0
C368 C 0.83985 0.26416 0.97079 0.0
C369 C 0.84179 0.28616 0.95948 0.0
C370 C 0.82552 0.27805 0.94329 0.0
C371 C 0.80881 0.2487 0.93816 0.0
C372 C 0.75254 0.16896 0.9473 0.0
C373 C 0.73689 0.13884 0.94411 0.0
C374 C 0.70824 0.12154 0.95092 0.0
C375 C 0.69482 0.13379 0.96164 0.0
C376 C 0.71047 0.16416 0.96459 0.0
C377 C 0.73902 0.18156 0.95746 0.0
C378 C 0.79948 0.18994 0.91744 0.0
C379 C 0.82859 0.20871 0.91162 0.0
C380 C 0.83702 0.20719 0.89402 0.0
C381 C 0.81674 0.18622 0.88183 0.0
C382 C 0.78722 0.16795 0.88752 0.0
C383 C 0.77865 0.16986 0.90516 0.0
P384 P 0.61159 0.80692 0.08348 0.0
H385 H 0.6135 0.78186 0.04895 0.0
H386 H 0.58654 0.73219 0.03661 0.0
H387 H 0.53631 0.70216 0.08569 0.0
H388 H 0.56238 0.75225 0.09775 0.0
H389 H 0.61014 0.83378 0.05002 0.0
H390 H 0.58554 0.86074 0.04087 0.0
H391 H 0.54541 0.84766 0.0933 0.0
H392 H 0.5692 0.81968 0.10222 0.0
H393 H 0.6146 0.76612 0.1088 0.0
H394 H 0.6268 0.85274 0.11041 0.0
O395 O 0.64497 0.82342 0.07376 0.0
H396 H 0.62623 0.76961 0.14073 0.0
H397 H 0.63974 0.85695 0.1422 0.0
C398 C 0.59079 0.77045 0.07455 0.0
C399 C 0.59665 0.76465 0.05706 0.0
C400 C 0.58114 0.7364 0.04997 0.0
C401 C 0.55968 0.71358 0.06033 0.0
C402 C 0.553 0.71953 0.07758 0.0
C403 C 0.56803 0.74799 0.0845 0.0
C404 C 0.59236 0.8257 0.07699 0.0
C405 C 0.59598 0.83663 0.05953 0.0
C406 C 0.58179 0.85182 0.05428 0.0
C407 C 0.56387 0.85644 0.06646 0.0
C408 C 0.55944 0.84464 0.08377 0.0
C409 C 0.57317 0.82887 0.08889 0.0
C410 C 0.61819 0.80854 0.10738 0.0
C411 C 0.61907 0.78565 0.11609 0.0
C412 C 0.62627 0.78789 0.13434 0.0
C413 C 0.63365 0.81347 0.14415 0.0
C414 C 0.63336 0.83661 0.13524 0.0
C415 C 0.62595 0.83423 0.11702 0.0
P416 P 0.23895 0.77043 0.09989 0.0
H417 H 0.22784 0.71497 0.08476 0.0
H418 H 0.18663 0.67681 0.06759 0.0
H419 H 0.14456 0.72944 0.06605 0.0
H420 H 0.18583 0.7674 0.08373 0.0
H421 H 0.30164 0.78843 0.09526 0.0
H422 H 0.34093 0.82471 0.0766 0.0
H423 H 0.27941 0.84912 0.05496 0.0
H424 H 0.23995 0.81272 0.07414 0.0
H425 H 0.18593 0.74275 0.12198 0.0
H426 H 0.26081 0.82925 0.11527 0.0
O427 O 0.25327 0.75341 0.11136 0.0
H428 H 0.16851 0.75994 0.1472 0.0
H429 H 0.24367 0.84662 0.1407 0.0
C430 C 0.20957 0.74373 0.08581 0.0
C431 C 0.2098 0.71836 0.0807 0.0
C432 C 0.18628 0.69662 0.07072 0.0
C433 C 0.16214 0.69995 0.06547 0.0
C434 C 0.16254 0.72596 0.07011 0.0
C435 C 0.18616 0.74773 0.08013 0.0
C436 C 0.26784 0.79788 0.08612 0.0
C437 C 0.29647 0.80151 0.08654 0.0
C438 C 0.31894 0.82216 0.07568 0.0
C439 C 0.31332 0.83968 0.0641 0.0
C440 C 0.28455 0.83608 0.06377 0.0
C441 C 0.26196 0.81527 0.07468 0.0
C442 C 0.22429 0.78483 0.11648 0.0
C443 C 0.19834 0.7656 0.12573 0.0
C444 C 0.18858 0.77539 0.14029 0.0
C445 C 0.20476 0.80463 0.14603 0.0
C446 C 0.23051 0.82404 0.13649 0.0
C447 C 0.24032 0.81415 0.12192 0.0
P448 P 0.19546 0.40111 0.07627 0.0
H449 H 0.19664 0.43842 0.0466 0.0
H450 H 0.15994 0.45192 0.03692 0.0
H451 H 0.10958 0.41432 0.08523 0.0
H452 H 0.14561 0.4006 0.09461 0.0
H453 H 0.21747 0.39824 0.04081 0.0
H454 H 0.26699 0.41178 0.02964 0.0
H455 H 0.30558 0.45498 0.08002 0.0
H456 H 0.25565 0.44072 0.09145 0.0
H457 H 0.17872 0.34746 0.09573 0.0
H458 H 0.20902 0.43735 0.10924 0.0
O459 O 0.17651 0.36894 0.06576 0.0
H460 H 0.16818 0.33444 0.12728 0.0
H461 H 0.199 0.42424 0.14124 0.0
C462 C 0.17443 0.41911 0.07158 0.0
C463 C 0.17824 0.43398 0.05538 0.0
C464 C 0.15717 0.44159 0.04982 0.0
C465 C 0.13167 0.43392 0.06022 0.0
C466 C 0.12877 0.42026 0.0768 0.0
C467 C 0.14973 0.41277 0.08232 0.0
C468 C 0.2327 0.41802 0.06709 0.0
C469 C 0.23654 0.41109 0.04941 0.0
C470 C 0.26485 0.41884 0.04299 0.0
C471 C 0.29003 0.43427 0.054 0.0
C472 C 0.2865 0.44319 0.07125 0.0
C473 C 0.25797 0.435 0.07779 0.0
C474 C 0.19429 0.39336 0.10003 0.0
C475 C 0.18368 0.36457 0.10549 0.0
C476 C 0.17765 0.35708 0.12356 0.0
C477 C 0.18257 0.37829 0.13664 0.0
C478 C 0.19512 0.40752 0.1314 0.0
C479 C 0.20084 0.41499 0.11316 0.0
P480 P 0.46666 0.93195 0.27104 0.0
H481 H 0.44702 0.94199 0.30543 0.0
H482 H 0.39846 0.9216 0.31981 0.0
H483 H 0.35873 0.86064 0.27565 0.0
H484 H 0.4078 0.88116 0.26132 0.0
H485 H 0.51377 0.9606 0.29781 0.0
H486 H 0.55082 0.95001 0.3098 0.0
H487 H 0.51211 0.86983 0.27897 0.0
H488 H 0.47441 0.88052 0.26707 0.0
H489 H 0.42687 0.93468 0.24439 0.0
H490 H 0.50584 0.92738 0.24408 0.0
O491 O 0.48053 0.9674 0.2753 0.0
H492 H 0.43186 0.9436 0.21211 0.0
H493 H 0.51035 0.93508 0.21177 0.0
C494 C 0.43092 0.9136 0.28209 0.0
C495 C 0.42792 0.9241 0.29886 0.0
C496 C 0.4001 0.91247 0.30707 0.0
C497 C 0.37459 0.88979 0.29877 0.0
C498 C 0.37792 0.8781 0.28241 0.0
C499 C 0.40591 0.88992 0.27414 0.0
C500 C 0.49179 0.92176 0.28112 0.0
C501 C 0.51306 0.94067 0.2936 0.0
C502 C 0.53435 0.9346 0.30046 0.0
C503 C 0.53484 0.90935 0.29509 0.0
C504 C 0.51239 0.8895 0.28336 0.0
C505 C 0.49095 0.89564 0.27647 0.0
C506 C 0.46541 0.92946 0.24671 0.0
C507 C 0.44458 0.93375 0.23727 0.0
C508 C 0.44755 0.93896 0.21873 0.0
C509 C 0.47166 0.94029 0.2092 0.0
C510 C 0.49174 0.93468 0.21861 0.0
C511 C 0.48885 0.92969 0.23716 0.0
P512 P 0.14454 0.57854 0.24281 0.0
H513 H 0.14415 0.58939 0.28164 0.0
H514 H 0.13907 0.62631 0.29865 0.0
H515 H 0.12607 0.66037 0.2491 0.0
H516 H 0.13088 0.62321 0.23218 0.0
H517 H 0.19048 0.56774 0.25699 0.0
H518 H 0.1885 0.52837 0.27469 0.0
H519 H 0.09269 0.48715 0.27688 0.0
H520 H 0.09488 0.52656 0.25879 0.0
H521 H 0.15032 0.56175 0.20626 0.0
H522 H 0.08142 0.56058 0.23924 0.0
O523 O 0.17867 0.59792 0.23429 0.0
H524 H 0.11635 0.5441 0.18057 0.0
H525 H 0.0471 0.54254 0.21364 0.0
C526 C 0.13741 0.60328 0.25566 0.0
C527 C 0.13967 0.60444 0.27444 0.0
C528 C 0.13694 0.62567 0.28415 0.0
C529 C 0.13213 0.64623 0.27521 0.0
C530 C 0.12928 0.64457 0.2564 0.0
C531 C 0.13213 0.62341 0.24672 0.0
C532 C 0.14279 0.54979 0.25635 0.0
C533 C 0.16903 0.55023 0.26124 0.0
C534 C 0.16788 0.5278 0.27152 0.0
C535 C 0.14042 0.50457 0.2772 0.0
C536 C 0.11415 0.50451 0.27252 0.0
C537 C 0.11536 0.52703 0.26222 0.0
C538 C 0.11856 0.56314 0.22448 0.0
C539 C 0.1278 0.55752 0.20798 0.0
C540 C 0.10828 0.54721 0.19335 0.0
C541 C 0.07911 0.54219 0.19503 0.0
C542 C 0.06959 0.54671 0.21185 0.0
C543 C 0.08914 0.55694 0.22648 0.0
P544 P 0.48299 0.52672 0.28217 0.0
H545 H 0.49399 0.55811 0.31611 0.0
H546 H 0.52138 0.61026 0.32351 0.0
H547 H 0.52773 0.63044 0.26707 0.0
H548 H 0.49942 0.57846 0.25975 0.0
H549 H 0.45789 0.47512 0.30463 0.0
H550 H 0.40793 0.44156 0.31497 0.0
H551 H 0.37491 0.49048 0.28667 0.0
H552 H 0.42582 0.52494 0.27673 0.0
H553 H 0.53563 0.55367 0.2601 0.0
H554 H 0.44332 0.48866 0.25282 0.0
O555 O 0.50573 0.51883 0.29351 0.0
H556 H 0.54579 0.54695 0.22905 0.0
H557 H 0.45358 0.48074 0.22175 0.0
C558 C 0.49525 0.56435 0.28739 0.0
C559 C 0.5005 0.57376 0.30536 0.0
C560 C 0.51618 0.60353 0.30957 0.0
C561 C 0.52709 0.62428 0.29582 0.0
C562 C 0.51995 0.61482 0.27789 0.0
C563 C 0.5038 0.58507 0.27372 0.0
C564 C 0.44563 0.5026 0.28992 0.0
C565 C 0.44006 0.47889 0.3007 0.0
C566 C 0.41131 0.45951 0.30654 0.0
C567 C 0.38725 0.4631 0.30154 0.0
C568 C 0.39294 0.4872 0.2909 0.0
C569 C 0.42195 0.50679 0.28512 0.0
C570 C 0.48872 0.5219 0.25875 0.0
C571 C 0.51749 0.53794 0.25176 0.0
C572 C 0.52332 0.53385 0.23401 0.0
C573 C 0.50059 0.51304 0.22287 0.0
C574 C 0.47156 0.49715 0.22986 0.0
C575 C 0.46568 0.50155 0.24768 0.0
Eu576 Eu 0.47762 0.97418 0.9878 0.0
C577 C 0.55619 0.08551 0.03373 0.0
C578 C 0.60613 0.09312 0.03203 0.0
C579 C 0.59862 0.13473 0.03455 0.0
C580 C 0.57505 0.07432 0.03199 0.0
C581 C 0.56774 0.1158 0.03545 0.0
C582 C 0.61779 0.12341 0.03284 0.0
C583 C 0.51761 0.10618 0.04037 0.0
N584 N 0.52653 0.06661 0.03466 0.0
C585 C 0.50724 0.07631 0.03866 0.0
C586 C 0.54795 0.12605 0.03851 0.0
Eu587 Eu 0.5105 0.01665 0.03012 0.0
N588 N 0.56305 0.04497 0.03129 0.0
C589 C 0.58086 0.03291 0.03217 0.0
C590 C 0.62454 0.08088 0.0318 0.0
C591 C 0.61183 0.05064 0.03222 0.0
H592 H 0.48373 0.06098 0.0399 0.0
H593 H 0.62587 0.04095 0.03243 0.0
H594 H 0.6416 0.13821 0.03264 0.0
H595 H 0.50219 0.11385 0.04306 0.0
H596 H 0.57133 0.00956 0.03233 0.0
H597 H 0.3622 0.9499 0.99187 0.0
H598 H 0.64853 0.09456 0.03177 0.0
H599 H 0.50264 0.93156 0.97176 0.0
H600 H 0.41652 0.98118 0.99043 0.0
H601 H 0.48369 0.87958 0.96449 0.0
H602 H 0.60793 0.1581 0.03564 0.0
H603 H 0.3393 0.89634 0.98952 0.0
H604 H 0.34581 0.85297 0.98407 0.0
H605 H 0.55594 0.14916 0.03987 0.0
H606 H 0.37893 0.83374 0.97646 0.0
N607 N 0.42482 0.94583 0.98787 0.0
C608 C 0.40704 0.95792 0.98932 0.0
C609 C 0.36326 0.91 0.9889 0.0
C610 C 0.38147 0.89787 0.98616 0.0
C611 C 0.3761 0.94021 0.99017 0.0
C612 C 0.41254 0.91665 0.98556 0.0
H613 H 0.43034 0.84361 0.96864 0.0
N614 N 0.46054 0.92491 0.98005 0.0
C615 C 0.46864 0.88662 0.96936 0.0
C616 C 0.43105 0.90582 0.98149 0.0
C617 C 0.47929 0.91604 0.97344 0.0
C618 C 0.43854 0.86638 0.97179 0.0
C619 C 0.41921 0.87594 0.97764 0.0
O620 O 0.49712 0.97904 0.96103 0.0
O621 O 0.51772 0.00956 1.00148 0.0
O622 O 0.50914 0.04657 0.00914 0.0
O623 O 0.46955 0.01243 0.99182 0.0
O624 O 0.52502 0.98396 0.98348 0.0
O625 O 0.46479 0.9925 0.9657 0.0
O626 O 0.49104 0.0148 0.0565 0.0
O627 O 0.47099 0.97985 0.01688 0.0
O628 O 0.48368 0.94413 1.00666 0.0
O629 O 0.51769 0.97764 0.0276 0.0
O630 O 0.46259 0.00552 0.0341 0.0
O631 O 0.52437 0.00204 0.0537 0.0
C632 C 0.53764 0.00586 0.99439 0.0
C633 C 0.46701 0.97618 0.93647 0.0
C634 C 0.46303 0.98052 0.90402 0.0
C635 C 0.47765 0.99231 0.92052 0.0
C636 C 0.43808 0.95228 0.90369 0.0
C637 C 0.44218 0.94803 0.93578 0.0
C638 C 0.42789 0.93614 0.91945 0.0
C639 C 0.488 0.03964 0.997 0.0
C640 C 0.48131 0.98912 0.95383 0.0
C641 C 0.38844 0.85684 0.97913 0.0
C642 C 0.36958 0.8678 0.98344 0.0
C643 C 0.45044 0.98243 0.02409 0.0
C644 C 0.52134 0.02151 0.0818 0.0
C645 C 0.51454 0.00602 0.09808 0.0
C646 C 0.52821 0.02052 0.11433 0.0
C647 C 0.54831 0.05074 0.11396 0.0
C648 C 0.54159 0.05152 0.08185 0.0
C649 C 0.55489 0.06603 0.09787 0.0
C650 C 0.50282 0.95119 0.02021 0.0
C651 C 0.50743 0.0063 0.06481 0.0
H652 H 0.49671 0.01417 0.92102 0.0
H653 H 0.42653 0.94262 0.89119 0.0
H654 H 0.43372 0.93535 0.94788 0.0
H655 H 0.4087 0.91441 0.91901 0.0
H656 H 0.49912 0.98274 0.09802 0.0
H657 H 0.55883 0.0627 0.12619 0.0
H658 H 0.54709 0.06375 0.06952 0.0
H659 H 0.5704 0.08925 0.09781 0.0
Eu660 Eu 0.01577 0.50132 0.98569 0.0
C661 C 0.90735 0.4788 0.03403 0.0
C662 C 0.89895 0.51845 0.0267 0.0
C663 C 0.85762 0.47213 0.03632 0.0
C664 C 0.91811 0.50688 0.02811 0.0
C665 C 0.8772 0.46142 0.03882 0.0
C666 C 0.86848 0.50062 0.03025 0.0
C667 C 0.88893 0.42602 0.05055 0.0
N668 N 0.92698 0.46944 0.03667 0.0
C669 C 0.91864 0.44421 0.0457 0.0
C670 C 0.86797 0.43441 0.04677 0.0
Eu671 Eu 0.97677 0.50056 0.02774 0.0
N672 N 0.94773 0.52359 0.02508 0.0
C673 C 0.95997 0.55278 0.02209 0.0
C674 C 0.91116 0.54789 0.02246 0.0
C675 C 0.94188 0.56525 0.0205 0.0
H676 H 0.93486 0.4377 0.0486 0.0
H677 H 0.95166 0.58821 0.01763 0.0
H678 H 0.85336 0.509 0.02898 0.0
H679 H 0.88224 0.4056 0.0572 0.0
H680 H 0.98361 0.56656 0.02043 0.0
H681 H 0.04434 0.41621 0.99568 0.0
H682 H 0.89721 0.5576 0.02119 0.0
H683 H 0.05727 0.56772 0.96839 0.0
H684 H 0.01098 0.43648 0.99322 0.0
H685 H 0.10985 0.60137 0.96041 0.0
H686 H 0.83428 0.45897 0.03968 0.0
H687 H 0.0985 0.44802 0.99145 0.0
H688 H 0.14125 0.49722 0.98353 0.0
H689 H 0.845 0.42041 0.05066 0.0
H690 H 0.15909 0.54756 0.97387 0.0
N691 N 0.04593 0.47969 0.9882 0.0
C692 C 0.03454 0.45068 0.99132 0.0
C693 C 0.08396 0.45709 0.99036 0.0
C694 C 0.09529 0.48643 0.98612 0.0
C695 C 0.05339 0.43905 0.99271 0.0
C696 C 0.07541 0.49719 0.98497 0.0
H697 H 0.14749 0.58642 0.96494 0.0
N698 N 0.06547 0.53462 0.97771 0.0
C699 C 0.10332 0.58015 0.96586 0.0
C700 C 0.08547 0.52549 0.97953 0.0
C701 C 0.07363 0.56109 0.97034 0.0
C702 C 0.12451 0.57165 0.96847 0.0
C703 C 0.11564 0.54387 0.97512 0.0
O704 O 0.01151 0.51083 0.95767 0.0
O705 O 0.97829 0.50455 0.99789 0.0
O706 O 0.94535 0.45896 0.01264 0.0
O707 O 0.97723 0.45565 0.99153 0.0
O708 O 1.0014 0.53377 0.97774 0.0
O709 O 1.00055 0.46716 0.9652 0.0
O710 O 0.98353 0.49194 0.05547 0.0
O711 O 0.01345 0.49637 0.01537 0.0
O712 O 0.04809 0.5394 1.00284 0.0
O713 O 0.01541 0.5461 0.02104 0.0
O714 O 0.99105 0.46806 0.03593 0.0
O715 O 0.99346 0.53523 0.04801 0.0
C716 C 0.97918 0.52469 0.98857 0.0
C717 C 0.02185 0.48373 0.93654 0.0
C718 C 0.03178 0.48872 0.9043 0.0
C719 C 0.01507 0.4889 0.91918 0.0
C720 C 0.05539 0.48336 0.90707 0.0
C721 C 0.04532 0.47813 0.93894 0.0
C722 C 0.06203 0.47806 0.92429 0.0
C723 C 0.95155 0.44465 1.00024 0.0
C724 C 0.00473 0.48487 0.952 0.0
C725 C 0.13577 0.53368 0.97703 0.0
C726 C 0.12561 0.50501 0.98253 0.0
C727 C 0.01284 0.47647 0.02482 0.0
C728 C 0.97672 0.51999 0.07757 0.0
C729 C 0.99105 0.52374 0.09413 0.0
C730 C 0.97757 0.5253 0.1102 0.0
C731 C 0.94941 0.52299 0.10941 0.0
C732 C 0.94868 0.51777 0.07702 0.0
C733 C 0.9351 0.51923 0.09289 0.0
C734 C 0.04228 0.55513 0.01428 0.0
C735 C 0.99127 0.51811 0.06111 0.0
H736 H 0.99705 0.49336 0.9173 0.0
H737 H 0.06839 0.48273 0.89586 0.0
H738 H 0.05073 0.47368 0.95209 0.0
H739 H 0.08009 0.47373 0.92627 0.0
H740 H 0.01292 0.52586 0.09443 0.0
H741 H 0.93835 0.52384 0.12155 0.0
H742 H 0.93734 0.51498 0.06438 0.0
H743 H 0.91341 0.51742 0.0924 0.0
Eu744 Eu 0.51334 0.48936 0.03522 0.0
C745 C 0.45253 0.54356 0.98847 0.0
C746 C 0.40021 0.50727 0.98922 0.0
C747 C 0.41536 0.55837 0.98573 0.0
C748 C 0.43038 0.51487 0.99012 0.0
C749 C 0.44533 0.56559 0.98577 0.0
C750 C 0.39283 0.52925 0.98749 0.0
C751 C 0.49768 0.59965 0.98163 0.0
N752 N 0.48117 0.54969 0.98839 0.0
C753 C 0.50367 0.57703 0.98438 0.0
C754 C 0.46841 0.59401 0.98261 0.0
Eu755 Eu 0.48991 0.51069 0.99372 0.0
N756 N 0.43833 0.4942 0.99156 0.0
C757 C 0.41725 0.46534 0.99068 0.0
C758 C 0.37843 0.47775 0.98952 0.0
C759 C 0.38702 0.45668 0.98995 0.0
H760 H 0.52636 0.58155 0.98375 0.0
H761 H 0.37038 0.43377 0.9898 0.0
H762 H 0.36978 0.52387 0.98696 0.0
H763 H 0.51564 0.62143 0.97886 0.0
H764 H 0.42353 0.44881 0.99111 0.0
H765 H 0.63287 0.56554 0.03991 0.0
H766 H 0.355 0.471 0.98894 0.0
H767 H 0.47631 0.41719 0.04171 0.0
H768 H 0.57971 0.55082 0.03929 0.0
H769 H 0.48693 0.3767 0.04363 0.0
H770 H 0.40936 0.57503 0.98387 0.0
H771 H 0.64797 0.52812 0.03838 0.0
H772 H 0.63297 0.47508 0.03776 0.0
H773 H 0.46381 0.61156 0.98047 0.0
H774 H 0.59328 0.42368 0.03885 0.0
N775 N 0.56478 0.50553 0.03699 0.0
C776 C 0.58595 0.53425 0.0387 0.0
C777 C 0.62457 0.52151 0.03811 0.0
C778 C 0.60268 0.49202 0.03742 0.0
C779 C 0.61614 0.54269 0.03904 0.0
C780 C 0.57256 0.48462 0.037 0.0
H781 H 0.53878 0.38681 0.04134 0.0
N782 N 0.52159 0.44955 0.03799 0.0
C783 C 0.50494 0.39881 0.04184 0.0
C784 C 0.55029 0.45572 0.03755 0.0
C785 C 0.49899 0.42173 0.0408 0.0
C786 C 0.53424 0.40461 0.04051 0.0
C787 C 0.55741 0.43339 0.03862 0.0
O788 O 0.48967 0.47162 0.06035 0.0
O789 O 0.47822 0.4949 0.02182 0.0
O790 O 0.49703 0.54439 0.01504 0.0
O791 O 0.52726 0.53763 0.03547 0.0
O792 O 0.46344 0.4579 0.03697 0.0
O793 O 0.53046 0.51329 0.06057 0.0
O794 O 0.51403 0.52655 0.9685 0.0
O795 O 0.5256 0.50647 0.00744 0.0
O796 O 0.50952 0.45883 0.0129 0.0
O797 O 0.47547 0.46207 0.99421 0.0
O798 O 0.53944 0.54316 0.99219 0.0
O799 O 0.47417 0.48419 0.96917 0.0
C800 C 0.45514 0.47278 0.02745 0.0
C801 C 0.51892 0.48427 0.08659 0.0
C802 C 0.51887 0.48079 0.11937 0.0
C803 C 0.51117 0.49013 0.1036 0.0
C804 C 0.53429 0.46532 0.11768 0.0
C805 C 0.53473 0.46932 0.08533 0.0
C806 C 0.54228 0.45984 0.1008 0.0
C807 C 0.51541 0.55285 0.02903 0.0
C808 C 0.50952 0.49291 0.07024 0.0
C809 C 0.58735 0.44055 0.03824 0.0
C810 C 0.60995 0.46982 0.03762 0.0
C811 C 0.5484 0.52912 1.00199 0.0
C812 C 0.48653 0.50928 0.94156 0.0
C813 C 0.49383 0.499 0.92603 0.0
C814 C 0.48684 0.50485 0.90886 0.0
C815 C 0.47233 0.52114 0.9075 0.0
C816 C 0.47183 0.52524 0.93997 0.0
C817 C 0.46478 0.53112 0.92298 0.0
C818 C 0.49024 0.449 0.99948 0.0
C819 C 0.49525 0.50375 0.95921 0.0
H820 H 0.49936 0.50212 0.10449 0.0
H821 H 0.53994 0.4571 0.12939 0.0
H822 H 0.54101 0.46473 0.07243 0.0
H823 H 0.5542 0.448 0.0997 0.0
H824 H 0.50545 0.48689 0.92733 0.0
H825 H 0.46647 0.5258 0.89448 0.0
H826 H 0.46597 0.53327 0.95179 0.0
H827 H 0.45347 0.5435 0.9218 0.0
Eu828 Eu 0.15722 0.32709 0.32332 0.0
C829 C 0.23436 0.43619 0.37322 0.0
C830 C 0.28476 0.44515 0.371 0.0
C831 C 0.27609 0.48546 0.37685 0.0
C832 C 0.25376 0.4259 0.37034 0.0
C833 C 0.24527 0.46601 0.37683 0.0
C834 C 0.2958 0.47505 0.37393 0.0
C835 C 0.19454 0.45483 0.38133 0.0
N836 N 0.20476 0.41685 0.37314 0.0
C837 C 0.18482 0.42547 0.37771 0.0
C838 C 0.22489 0.47526 0.38069 0.0
Eu839 Eu 0.18979 0.36777 0.36614 0.0
N840 N 0.24235 0.3969 0.36753 0.0
C841 C 0.26074 0.38545 0.36657 0.0
C842 C 0.30372 0.4337 0.36904 0.0
C843 C 0.29163 0.40366 0.36705 0.0
H844 H 0.16132 0.40977 0.37808 0.0
H845 H 0.30609 0.39452 0.3658 0.0
H846 H 0.31953 0.49021 0.37432 0.0
H847 H 0.17863 0.46168 0.38456 0.0
H848 H 0.25182 0.36233 0.36493 0.0
H849 H 0.04107 0.30007 0.32696 0.0
H850 H 0.32766 0.44776 0.36939 0.0
H851 H 0.18459 0.28524 0.30895 0.0
H852 H 0.09541 0.33247 0.32581 0.0
H853 H 0.16697 0.23318 0.30272 0.0
H854 H 0.28491 0.50849 0.37946 0.0
H855 H 0.01946 0.24664 0.32464 0.0
H856 H 0.0274 0.20403 0.31974 0.0
H857 H 0.23238 0.49798 0.38353 0.0
H858 H 0.06167 0.18578 0.31311 0.0
N859 N 0.10468 0.2978 0.32328 0.0
C860 C 0.08634 0.30924 0.32468 0.0
C861 C 0.04337 0.26078 0.32409 0.0
C862 C 0.06222 0.24931 0.32159 0.0
C863 C 0.05548 0.29092 0.32537 0.0
C864 C 0.09318 0.26867 0.32109 0.0
H865 H 0.1137 0.19655 0.30638 0.0
N866 N 0.14185 0.2779 0.31634 0.0
C867 C 0.1514 0.23995 0.30697 0.0
C868 C 0.11238 0.25838 0.31752 0.0
C869 C 0.16129 0.26938 0.31045 0.0
C870 C 0.12133 0.21933 0.3091 0.0
C871 C 0.1013 0.22848 0.31416 0.0
O872 O 0.17792 0.3339 0.29686 0.0
O873 O 0.1969 0.36309 0.33703 0.0
O874 O 0.18718 0.39861 0.34647 0.0
O875 O 0.1492 0.36548 0.32758 0.0
O876 O 0.20504 0.33868 0.31849 0.0
O877 O 0.14068 0.34082 0.30056 0.0
O878 O 0.2039 0.35088 0.38845 0.0
O879 O 0.15028 0.33183 0.3524 0.0
O880 O 0.16237 0.29657 0.34219 0.0
O881 O 0.1989 0.33037 0.36163 0.0
O882 O 0.14167 0.3559 0.37066 0.0
O883 O 0.17171 0.36463 0.39312 0.0
C884 C 0.21725 0.36066 0.32938 0.0
C885 C 0.14689 0.32518 0.27179 0.0
C886 C 0.14675 0.32592 0.23884 0.0
C887 C 0.15777 0.34027 0.25553 0.0
C888 C 0.12483 0.29615 0.23887 0.0
C889 C 0.12481 0.29571 0.27137 0.0
C890 C 0.11391 0.28131 0.25499 0.0
C891 C 0.16665 0.39227 0.33397 0.0
C892 C 0.1593 0.34003 0.2891 0.0
C893 C 0.0706 0.2089 0.31543 0.0
C894 C 0.05109 0.21929 0.31918 0.0
C895 C 0.12956 0.33373 0.35991 0.0
C896 C 0.1657 0.32413 0.40932 0.0
C897 C 0.16587 0.32284 0.42822 0.0
C898 C 0.14588 0.29689 0.4373 0.0
C899 C 0.12579 0.27256 0.42686 0.0
C900 C 0.14619 0.29923 0.39942 0.0
C901 C 0.12629 0.27367 0.40814 0.0
C902 C 0.18284 0.30366 0.35485 0.0
C903 C 0.18506 0.35154 0.39981 0.0
H904 H 0.17462 0.36314 0.25594 0.0
H905 H 0.11634 0.28407 0.22641 0.0
H906 H 0.11614 0.2838 0.28369 0.0
H907 H 0.09707 0.25846 0.25478 0.0
H908 H 0.18168 0.34201 0.4357 0.0
H909 H 0.10925 0.25257 0.43305 0.0
H910 H 0.1462 0.29972 0.38492 0.0
H911 H 0.11097 0.25468 0.40036 0.0
Eu912 Eu 0.69361 0.84491 0.32331 0.0
C913 C 0.57976 0.80596 0.3717 0.0
C914 C 0.56412 0.84122 0.36618 0.0
C915 C 0.52768 0.79193 0.37488 0.0
C916 C 0.58657 0.83366 0.36677 0.0
C917 C 0.55036 0.78497 0.37625 0.0
C918 C 0.53454 0.82001 0.36982 0.0
C919 C 0.56847 0.75273 0.38476 0.0
N920 N 0.60223 0.80006 0.37308 0.0
C921 C 0.59725 0.77427 0.38009 0.0
C922 C 0.54483 0.75794 0.3826 0.0
Eu923 Eu 0.6503 0.83735 0.36473 0.0
N924 N 0.61541 0.85371 0.36357 0.0
C925 C 0.62364 0.88225 0.36105 0.0
C926 C 0.57222 0.87009 0.36249 0.0
C927 C 0.60218 0.89078 0.36018 0.0
H928 H 0.61536 0.77002 0.38173 0.0
H929 H 0.60876 0.91328 0.35766 0.0
H930 H 0.51696 0.82533 0.36926 0.0
H931 H 0.56452 0.73211 0.38997 0.0
H932 H 0.64668 0.89847 0.35919 0.0
H933 H 0.7264 0.76203 0.32816 0.0
H934 H 0.55565 0.87675 0.36184 0.0
H935 H 0.73477 0.91416 0.31007 0.0
H936 H 0.69144 0.78052 0.32612 0.0
H937 H 0.78792 0.95116 0.30625 0.0
H938 H 0.5049 0.77601 0.37814 0.0
H939 H 0.78064 0.79639 0.32789 0.0
H940 H 0.82278 0.84788 0.32494 0.0
H941 H 0.52257 0.74124 0.38626 0.0
H942 H 0.83957 0.89947 0.31917 0.0
N943 N 0.72546 0.82506 0.32504 0.0
C944 C 0.71502 0.7958 0.3259 0.0
C945 C 0.76539 0.80466 0.32693 0.0
C946 C 0.77593 0.8345 0.32511 0.0
C947 C 0.73479 0.7852 0.32704 0.0
C948 C 0.75512 0.84413 0.32401 0.0
H949 H 0.82673 0.93812 0.31192 0.0
N950 N 0.74376 0.88109 0.31839 0.0
C951 C 0.78167 0.92933 0.31039 0.0
C952 C 0.76458 0.87311 0.32071 0.0
C953 C 0.75168 0.90837 0.31249 0.0
C954 C 0.80351 0.9219 0.31367 0.0
C955 C 0.79508 0.89334 0.31852 0.0
O956 O 0.69159 0.85754 0.29572 0.0
O957 O 0.6544 0.84512 0.33517 0.0
O958 O 0.62065 0.79926 0.34673 0.0
O959 O 0.6558 0.79782 0.32763 0.0
O960 O 0.67724 0.87605 0.31583 0.0
O961 O 0.68091 0.81332 0.3013 0.0
O962 O 0.66119 0.83032 0.39185 0.0
O963 O 0.68913 0.83665 0.35261 0.0
O964 O 0.72195 0.88191 0.34256 0.0
O965 O 0.68495 0.88462 0.35863 0.0
O966 O 0.66644 0.80583 0.3719 0.0
O967 O 0.66168 0.87039 0.38575 0.0
C968 C 0.65444 0.86525 0.32628 0.0
C969 C 0.70279 0.83289 0.27328 0.0
C970 C 0.70662 0.82691 0.24097 0.0
C971 C 0.68982 0.82608 0.25609 0.0
C972 C 0.73661 0.83477 0.24341 0.0
C973 C 0.73262 0.84047 0.27537 0.0
C974 C 0.74942 0.84142 0.2605 0.0
C975 C 0.62859 0.78601 0.3346 0.0
C976 C 0.68513 0.83227 0.28891 0.0
C977 C 0.81601 0.88419 0.3206 0.0
C978 C 0.80645 0.85481 0.32387 0.0
C979 C 0.68889 0.81618 0.3612 0.0
C980 C 0.65011 0.85292 0.41549 0.0
C981 C 0.66755 0.86173 0.43113 0.0
C982 C 0.65434 0.85853 0.44809 0.0
C983 C 0.62337 0.84651 0.44918 0.0
C984 C 0.61927 0.84126 0.41675 0.0
C985 C 0.606 0.83813 0.43356 0.0
C986 C 0.71289 0.89599 0.35324 0.0
C987 C 0.66443 0.85472 0.39818 0.0
H988 H 0.66664 0.81989 0.25455 0.0
H989 H 0.75034 0.83619 0.23207 0.0
H990 H 0.74296 0.84571 0.28843 0.0
H991 H 0.7725 0.84747 0.26223 0.0
H992 H 0.69135 0.8704 0.43014 0.0
H993 H 0.61269 0.84385 0.46209 0.0
H994 H 0.60549 0.83438 0.40482 0.0
H995 H 0.58217 0.82901 0.43448 0.0
Eu996 Eu 0.189 0.83114 0.36686 0.0
C997 C 0.11632 0.87324 0.32125 0.0
C998 C 0.06536 0.83396 0.32352 0.0
C999 C 0.07585 0.88372 0.31983 0.0
C1000 C 0.09616 0.84401 0.32344 0.0
C1001 C 0.10642 0.89339 0.31904 0.0
C1002 C 0.05534 0.85404 0.32208 0.0
C1003 C 0.15746 0.93068 0.31397 0.0
N1004 N 0.1456 0.88176 0.3204 0.0
C1005 C 0.16612 0.9098 0.31612 0.0
C1006 C 0.1275 0.92251 0.31565 0.0
Eu1007 Eu 0.159 0.84578 0.32537 0.0
N1008 N 0.10661 0.82524 0.32478 0.0
C1009 C 0.08737 0.79587 0.3249 0.0
C1010 C 0.04556 0.80397 0.32464 0.0
C1011 C 0.05663 0.78483 0.32506 0.0
H1012 H 0.18934 0.91622 0.31493 0.0
H1013 H 0.0415 0.76156 0.32563 0.0
H1014 H 0.03179 0.84677 0.3223 0.0
H1015 H 0.17388 0.95302 0.31104 0.0
H1016 H 0.09555 0.78079 0.32536 0.0
H1017 H 0.30881 0.90694 0.36879 0.0
H1018 H 0.02174 0.79537 0.32482 0.0
H1019 H 0.15206 0.7596 0.37597 0.0
H1020 H 0.25568 0.89239 0.36872 0.0
H1021 H 0.16257 0.71938 0.37964 0.0
H1022 H 0.06781 0.8989 0.31833 0.0
H1023 H 0.32363 0.86928 0.36856 0.0
H1024 H 0.30837 0.81626 0.37009 0.0
H1025 H 0.12081 0.93869 0.31391 0.0
H1026 H 0.26859 0.76524 0.37337 0.0
N1027 N 0.24048 0.84702 0.36787 0.0
C1028 C 0.26182 0.87576 0.36866 0.0
C1029 C 0.30025 0.86278 0.36851 0.0
C1030 C 0.27825 0.83335 0.36894 0.0
C1031 C 0.29198 0.88409 0.3687 0.0
C1032 C 0.24815 0.82608 0.36877 0.0
H1033 H 0.21423 0.72899 0.37731 0.0
N1034 N 0.19725 0.79154 0.37131 0.0
C1035 C 0.18056 0.74122 0.37707 0.0
C1036 C 0.22585 0.79744 0.37067 0.0
C1037 C 0.1747 0.76407 0.37503 0.0
C1038 C 0.20975 0.74673 0.3757 0.0
C1039 C 0.23289 0.77517 0.37269 0.0
O1040 O 0.16779 0.81733 0.39305 0.0
O1041 O 0.1513 0.83316 0.35409 0.0
O1042 O 0.16729 0.881 0.34592 0.0
O1043 O 0.20276 0.87913 0.36435 0.0
O1044 O 0.1397 0.79865 0.37092 0.0
O1045 O 0.20804 0.85915 0.39058 0.0
O1046 O 0.17974 0.86143 0.29923 0.0
O1047 O 0.1975 0.84569 0.33837 0.0
O1048 O 0.18567 0.79953 0.3454 0.0
O1049 O 0.14832 0.79826 0.3275 0.0
O1050 O 0.20749 0.87964 0.32103 0.0
O1051 O 0.14336 0.81711 0.30172 0.0
C1052 C 0.12941 0.81139 0.36101 0.0
C1053 C 0.19936 0.83455 0.41825 0.0
C1054 C 0.19833 0.83201 0.45102 0.0
C1055 C 0.18934 0.83903 0.43488 0.0
C1056 C 0.21766 0.82067 0.45026 0.0
C1057 C 0.21879 0.82343 0.41779 0.0
C1058 C 0.2279 0.81656 0.43374 0.0
C1059 C 0.18894 0.89258 0.35805 0.0
C1060 C 0.18825 0.84026 0.40152 0.0
C1061 C 0.26275 0.78209 0.37202 0.0
C1062 C 0.28539 0.81113 0.37013 0.0
C1063 C 0.21864 0.86812 0.33133 0.0
C1064 C 0.15061 0.83951 0.27336 0.0
C1065 C 0.1595 0.8308 0.25779 0.0
C1066 C 0.14983 0.83381 0.24069 0.0
C1067 C 0.13104 0.84573 0.23947 0.0
C1068 C 0.13174 0.85117 0.2719 0.0
C1069 C 0.12202 0.85424 0.25499 0.0
C1070 C 0.16505 0.78725 0.3328 0.0
C1071 C 0.16211 0.83706 0.29087 0.0
H1072 H 0.17409 0.84739 0.43523 0.0
H1073 H 0.22516 0.81533 0.46246 0.0
H1074 H 0.22675 0.81987 0.40515 0.0
H1075 H 0.24288 0.80793 0.43329 0.0
H1076 H 0.1744 0.82213 0.25901 0.0
H1077 H 0.12298 0.84808 0.22654 0.0
H1078 H 0.12471 0.85801 0.28377 0.0
H1079 H 0.10746 0.86326 0.2539 0.0
Eu1080 Eu 0.81985 0.65084 0.65732 0.0
C1081 C 0.92602 0.71915 0.70595 0.0
C1082 C 0.93906 0.68953 0.72402 0.0
C1083 C 0.97804 0.73526 0.71197 0.0
C1084 C 0.91759 0.69413 0.71544 0.0
C1085 C 0.95633 0.7406 0.70465 0.0
C1086 C 0.9694 0.70971 0.72166 0.0
C1087 C 0.94116 0.77229 0.69112 0.0
N1088 N 0.90436 0.72361 0.69931 0.0
C1089 C 0.91143 0.75022 0.69264 0.0
C1090 C 0.96377 0.76722 0.69676 0.0
Eu1091 Eu 0.85439 0.68458 0.70133 0.0
N1092 N 0.88815 0.67553 0.71767 0.0
C1093 C 0.8786 0.65393 0.73013 0.0
C1094 C 0.9293 0.66562 0.73542 0.0
C1095 C 0.89892 0.64813 0.73882 0.0
H1096 H 0.89431 0.75448 0.68809 0.0
H1097 H 0.89116 0.63029 0.74817 0.0
H1098 H 0.98628 0.70637 0.7279 0.0
H1099 H 0.9466 0.79308 0.68542 0.0
H1100 H 0.85516 0.64059 0.73295 0.0
H1101 H 0.70039 0.60531 0.66711 0.0
H1102 H 0.94504 0.66128 0.74227 0.0
H1103 H 0.85342 0.62028 0.63459 0.0
H1104 H 0.75279 0.644 0.66496 0.0
H1105 H 0.84287 0.57158 0.62448 0.0
H1106 H 1.00146 0.75124 0.71083 0.0
H1107 H 0.68627 0.55391 0.6615 0.0
H1108 H 0.70161 0.51778 0.65186 0.0
H1109 H 0.98677 0.78428 0.69549 0.0
H1110 H 0.74057 0.50852 0.64025 0.0
N1111 N 0.76863 0.61492 0.65861 0.0
C1112 C 0.74708 0.62174 0.66242 0.0
C1113 C 0.70937 0.57085 0.66051 0.0
C1114 C 0.73129 0.56421 0.65553 0.0
C1115 C 0.71725 0.59983 0.66364 0.0
C1116 C 0.76106 0.58708 0.65452 0.0
H1117 H 0.79323 0.52855 0.62965 0.0
N1118 N 0.8107 0.60487 0.64622 0.0
C1119 C 0.82584 0.5741 0.63127 0.0
C1120 C 0.78284 0.58186 0.6481 0.0
C1121 C 0.83175 0.60167 0.63705 0.0
C1122 C 0.79783 0.54987 0.63425 0.0
C1123 C 0.77568 0.55365 0.64239 0.0
O1124 O 0.84116 0.6717 0.6319 0.0
O1125 O 0.85911 0.68735 0.67158 0.0
O1126 O 0.84435 0.71451 0.68469 0.0
O1127 O 0.80437 0.68155 0.66757 0.0
O1128 O 0.86791 0.66584 0.65114 0.0
O1129 O 0.79561 0.65914 0.63631 0.0
O1130 O 0.8581 0.7211 0.71734 0.0
O1131 O 0.81192 0.65587 0.68624 0.0
O1132 O 0.83253 0.62062 0.67148 0.0
O1133 O 0.86638 0.64989 0.69419 0.0
O1134 O 0.818 0.64077 0.71066 0.0
O1135 O 0.82928 0.67754 0.72633 0.0
C1136 C 0.87961 0.68629 0.66304 0.0
C1137 C 0.80979 0.65604 0.60651 0.0
C1138 C 0.81486 0.66117 0.57379 0.0
C1139 C 0.8221 0.67361 0.59122 0.0
C1140 C 0.79561 0.63091 0.572 0.0
C1141 C 0.79064 0.62595 0.60428 0.0
C1142 C 0.78369 0.61351 0.58713 0.0
C1143 C 0.82112 0.70798 0.67435 0.0
C1144 C 0.81718 0.66899 0.62475 0.0
C1145 C 0.74644 0.53043 0.64434 0.0
C1146 C 0.72427 0.5357 0.65093 0.0
C1147 C 0.80039 0.63496 0.69718 0.0
C1148 C 0.85444 0.71362 0.74901 0.0
C1149 C 0.84331 0.6937 0.76342 0.0
C1150 C 0.85505 0.70239 0.78098 0.0
C1151 C 0.87782 0.73139 0.78386 0.0
C1152 C 0.87722 0.74234 0.75245 0.0
C1153 C 0.88878 0.75106 0.76972 0.0
C1154 C 0.85286 0.62594 0.68402 0.0
C1155 C 0.84203 0.70496 0.73053 0.0
H1156 H 0.83684 0.69687 0.59289 0.0
H1157 H 0.78998 0.62057 0.55885 0.0
H1158 H 0.781 0.61204 0.6158 0.0
H1159 H 0.76897 0.59027 0.58554 0.0
H1160 H 0.82577 0.67149 0.76094 0.0
H1161 H 0.8869 0.73917 0.79717 0.0
H1162 H 0.88607 0.75824 0.7418 0.0
H1163 H 0.90622 0.7733 0.77221 0.0
Eu1164 Eu 0.35249 0.16749 0.65598 0.0
C1165 C 0.24474 0.13535 0.70839 0.0
C1166 C 0.2328 0.17347 0.70376 0.0
C1167 C 0.1943 0.12558 0.7134 0.0
C1168 C 0.25341 0.16353 0.70348 0.0
C1169 C 0.2153 0.11629 0.71394 0.0
C1170 C 0.20302 0.15411 0.70827 0.0
C1171 C 0.23042 0.08155 0.72198 0.0
N1172 N 0.26565 0.12724 0.70896 0.0
C1173 C 0.2593 0.10123 0.71628 0.0
C1174 C 0.20818 0.0889 0.72051 0.0
Eu1175 Eu 0.31399 0.16138 0.6991 0.0
N1176 N 0.28243 0.18174 0.69948 0.0
C1177 C 0.29278 0.21076 0.69703 0.0
C1178 C 0.24294 0.20279 0.70006 0.0
C1179 C 0.27316 0.22161 0.69696 0.0
H1180 H 0.27637 0.09538 0.71735 0.0
H1181 H 0.28136 0.24446 0.69446 0.0
H1182 H 0.18679 0.16126 0.70837 0.0
H1183 H 0.22532 0.0607 0.72742 0.0
H1184 H 0.31605 0.22557 0.69456 0.0
H1185 H 0.38257 0.0825 0.65901 0.0
H1186 H 0.2278 0.21125 0.70005 0.0
H1187 H 0.39338 0.23602 0.64161 0.0
H1188 H 0.34856 0.10224 0.65846 0.0
H1189 H 0.44606 0.27147 0.63492 0.0
H1190 H 0.17149 0.11115 0.71741 0.0
H1191 H 0.43683 0.11565 0.65629 0.0
H1192 H 0.47935 0.1663 0.65111 0.0
H1193 H 0.18585 0.07366 0.72496 0.0
H1194 H 0.49664 0.21773 0.64444 0.0
N1195 N 0.38322 0.14631 0.65598 0.0
C1196 C 0.37216 0.11698 0.65721 0.0
C1197 C 0.422 0.12447 0.65605 0.0
C1198 C 0.43303 0.15429 0.65368 0.0
C1199 C 0.39138 0.10568 0.65753 0.0
C1200 C 0.41278 0.16467 0.65358 0.0
H1201 H 0.48433 0.25701 0.63804 0.0
N1202 N 0.40213 0.20234 0.64882 0.0
C1203 C 0.43976 0.24967 0.63918 0.0
C1204 C 0.42253 0.19357 0.64982 0.0
C1205 C 0.41001 0.22959 0.64292 0.0
C1206 C 0.46131 0.24145 0.641 0.0
C1207 C 0.45276 0.21296 0.6461 0.0
O1208 O 0.34622 0.17991 0.62913 0.0
O1209 O 0.31519 0.16914 0.66965 0.0
O1210 O 0.28175 0.12273 0.68204 0.0
O1211 O 0.31415 0.12112 0.66067 0.0
O1212 O 0.33809 0.2008 0.65073 0.0
O1213 O 0.33842 0.13633 0.63366 0.0
O1214 O 0.32531 0.15217 0.72553 0.0
O1215 O 0.35041 0.15863 0.68518 0.0
O1216 O 0.38453 0.20331 0.67459 0.0
O1217 O 0.35121 0.20802 0.6933 0.0
O1218 O 0.32769 0.12751 0.70434 0.0
O1219 O 0.32986 0.19435 0.72048 0.0
C1220 C 0.31587 0.19029 0.66163 0.0
C1221 C 0.35673 0.15722 0.60522 0.0
C1222 C 0.36104 0.16196 0.57264 0.0
C1223 C 0.34479 0.15821 0.5885 0.0
C1224 C 0.38924 0.16446 0.57369 0.0
C1225 C 0.38476 0.15939 0.60597 0.0
C1226 C 0.40091 0.16301 0.59028 0.0
C1227 C 0.28796 0.10953 0.66889 0.0
C1228 C 0.34035 0.15516 0.62178 0.0
C1229 C 0.47326 0.20309 0.64707 0.0
C1230 C 0.46341 0.17381 0.65087 0.0
C1231 C 0.3494 0.13723 0.69308 0.0
C1232 C 0.31982 0.17698 0.75025 0.0
C1233 C 0.33933 0.18678 0.76496 0.0
C1234 C 0.32865 0.18563 0.78248 0.0
C1235 C 0.29802 0.17448 0.78506 0.0
C1236 C 0.28937 0.16618 0.75299 0.0
C1237 C 0.27856 0.16495 0.77036 0.0
C1238 C 0.37833 0.21782 0.68676 0.0
C1239 C 0.33173 0.17737 0.73232 0.0
H1240 H 0.3232 0.15669 0.58787 0.0
H1241 H 0.40211 0.16721 0.56165 0.0
H1242 H 0.39422 0.15841 0.61865 0.0
H1243 H 0.42256 0.16477 0.59097 0.0
H1244 H 0.36282 0.19481 0.76278 0.0
H1245 H 0.28922 0.17348 0.79841 0.0
H1246 H 0.27402 0.1586 0.74178 0.0
H1247 H 0.25503 0.15654 0.77244 0.0
Eu1248 Eu 0.84542 0.15915 0.6957 0.0
C1249 C 0.77812 0.20513 0.6476 0.0
C1250 C 0.72659 0.1669 0.64901 0.0
C1251 C 0.73883 0.21707 0.64467 0.0
C1252 C 0.7572 0.17613 0.64974 0.0
C1253 C 0.76923 0.22589 0.64463 0.0
C1254 C 0.71753 0.18761 0.64688 0.0
C1255 C 0.82093 0.26201 0.64034 0.0
N1256 N 0.80721 0.21282 0.6475 0.0
C1257 C 0.8286 0.24059 0.64333 0.0
C1258 C 0.79113 0.25472 0.64122 0.0
Eu1259 Eu 0.81894 0.17598 0.65354 0.0
N1260 N 0.76677 0.15674 0.65158 0.0
C1261 C 0.74685 0.12751 0.65136 0.0
C1262 C 0.70606 0.13707 0.64992 0.0
C1263 C 0.71626 0.11727 0.65081 0.0
H1264 H 0.85169 0.24639 0.64279 0.0
H1265 H 0.70059 0.0941 0.65116 0.0
H1266 H 0.69413 0.18097 0.64647 0.0
H1267 H 0.83801 0.28412 0.63743 0.0
H1268 H 0.7543 0.11189 0.65214 0.0
H1269 H 0.96432 0.237 0.70213 0.0
H1270 H 0.68236 0.12908 0.64948 0.0
H1271 H 0.80959 0.08723 0.70344 0.0
H1272 H 0.91093 0.22123 0.70061 0.0
H1273 H 0.82115 0.04751 0.7062 0.0
H1274 H 0.73154 0.23272 0.64258 0.0
H1275 H 0.98056 0.20041 0.70095 0.0
H1276 H 0.96664 0.14764 0.70051 0.0
H1277 H 0.78522 0.27132 0.63887 0.0
H1278 H 0.92762 0.096 0.70181 0.0
N1279 N 0.89702 0.1762 0.69821 0.0
C1280 C 0.91767 0.20502 0.70021 0.0
C1281 C 0.95707 0.19335 0.70033 0.0
C1282 C 0.93565 0.16372 0.69948 0.0
C1283 C 0.94799 0.21406 0.70106 0.0
C1284 C 0.90538 0.15573 0.69864 0.0
H1285 H 0.87332 0.05848 0.7043 0.0
N1286 N 0.85468 0.12011 0.69969 0.0
C1287 C 0.83889 0.06969 0.70424 0.0
C1288 C 0.88352 0.12675 0.69945 0.0
C1289 C 0.83243 0.09222 0.70274 0.0
C1290 C 0.86837 0.07596 0.70311 0.0
C1291 C 0.89117 0.10484 0.70099 0.0
O1292 O 0.82206 0.14279 0.72109 0.0
O1293 O 0.80885 0.16205 0.68204 0.0
O1294 O 0.82533 0.21022 0.67418 0.0
O1295 O 0.85848 0.20725 0.69416 0.0
O1296 O 0.79602 0.12632 0.69812 0.0
O1297 O 0.86151 0.18546 0.72032 0.0
O1298 O 0.8415 0.1919 0.62781 0.0
O1299 O 0.85619 0.17495 0.6676 0.0
O1300 O 0.84254 0.12787 0.67394 0.0
O1301 O 0.80638 0.12815 0.65569 0.0
O1302 O 0.86789 0.20985 0.65085 0.0
O1303 O 0.80528 0.14745 0.6299 0.0
C1304 C 0.78651 0.13977 0.6882 0.0
C1305 C 0.85105 0.15912 0.74742 0.0
C1306 C 0.84936 0.15734 0.78029 0.0
C1307 C 0.84121 0.16453 0.76385 0.0
C1308 C 0.86754 0.1446 0.77984 0.0
C1309 C 0.8694 0.14678 0.74736 0.0
C1310 C 0.87756 0.13956 0.76351 0.0
C1311 C 0.84527 0.221 0.68734 0.0
C1312 C 0.8411 0.16542 0.73042 0.0
C1313 C 0.92128 0.11254 0.70084 0.0
C1314 C 0.94349 0.14194 0.70009 0.0
C1315 C 0.878 0.19772 0.66143 0.0
C1316 C 0.81359 0.16986 0.60152 0.0
C1317 C 0.82871 0.16892 0.58609 0.0
C1318 C 0.81832 0.17011 0.56884 0.0
C1319 C 0.79266 0.17251 0.56728 0.0
C1320 C 0.78821 0.17254 0.59972 0.0
C1321 C 0.77785 0.17389 0.58265 0.0
C1322 C 0.82217 0.11627 0.66113 0.0
C1323 C 0.82446 0.16754 0.61929 0.0
H1324 H 0.82736 0.17445 0.76377 0.0
H1325 H 0.87373 0.13809 0.79209 0.0
H1326 H 0.87717 0.14248 0.73486 0.0
H1327 H 0.8915 0.12975 0.76337 0.0
H1328 H 0.84821 0.16662 0.58752 0.0
H1329 H 0.78423 0.1736 0.55418 0.0
H1330 H 0.77637 0.17342 0.61149 0.0
H1331 H 0.75821 0.17589 0.58131 0.0
H1332 H 0.32616 0.89543 0.05763 0.0
H1333 H 0.3558 0.83434 0.04543 0.0
H1334 H 0.39984 0.87264 0.03058 0.0
H1335 H 0.43244 0.92451 0.02396 0.0
H1336 H 0.40268 0.98553 0.0356 0.0
H1337 H 0.3561 0.94621 0.04772 0.0
C1338 C 0.34192 0.89032 0.05142 0.0
C1339 C 0.33787 0.86212 0.05296 0.0
C1340 C 0.36734 0.91251 0.04296 0.0
C1341 C 0.35869 0.85601 0.04486 0.0
C1342 C 0.38386 0.87788 0.03631 0.0
C1343 C 0.41546 0.92907 0.02873 0.0
C1344 C 0.42083 0.95781 0.02874 0.0
C1345 C 0.38883 0.90638 0.03573 0.0
C1346 C 0.3989 0.9635 0.03538 0.0
C1347 C 0.37233 0.94105 0.04233 0.0
H1348 H 0.13434 0.48194 0.0445 0.0
H1349 H 0.07278 0.39367 0.06028 0.0
H1350 H 0.03104 0.39884 0.05026 0.0
H1351 H 0.01153 0.42863 0.03776 0.0
H1352 H 0.07228 0.51737 0.02287 0.0
H1353 H 0.11456 0.51187 0.03158 0.0
C1354 C 0.1118 0.46383 0.04563 0.0
C1355 C 0.10675 0.43757 0.05335 0.0
C1356 C 0.08766 0.46701 0.03995 0.0
C1357 C 0.07733 0.41431 0.05473 0.0
C1358 C 0.0534 0.41718 0.04892 0.0
C1359 C 0.03408 0.44667 0.03632 0.0
C1360 C 0.03877 0.47306 0.02917 0.0
C1361 C 0.05824 0.44347 0.04167 0.0
C1362 C 0.06804 0.49652 0.02778 0.0
C1363 C 0.09226 0.49344 0.03292 0.0
H1364 H 0.56831 0.67109 0.0729 0.0
H1365 H 0.5214 0.68943 0.03214 0.0
H1366 H 0.50161 0.64018 0.01947 0.0
H1367 H 0.49926 0.59275 0.01962 0.0
H1368 H 0.55058 0.57666 0.05872 0.0
H1369 H 0.56651 0.62389 0.07269 0.0
C1370 C 0.55345 0.66404 0.06137 0.0
C1371 C 0.54593 0.68341 0.0535 0.0
C1372 C 0.54308 0.63622 0.05388 0.0
C1373 C 0.52718 0.67456 0.0384 0.0
C1374 C 0.51599 0.64654 0.03118 0.0
C1375 C 0.51424 0.59966 0.03101 0.0
C1376 C 0.52409 0.58125 0.0378 0.0
C1377 C 0.52412 0.62731 0.03869 0.0
C1378 C 0.5428 0.59037 0.05301 0.0
C1379 C 0.55197 0.61744 0.06105 0.0
H1380 H 0.84961 0.31323 0.99203 0.0
H1381 H 0.88032 0.3291 0.93718 0.0
H1382 H 0.91659 0.37955 0.94489 0.0
H1383 H 0.9409 0.41872 0.96745 0.0
H1384 H 0.91062 0.40269 0.02228 0.0
H1385 H 0.87298 0.35291 0.01441 0.0
C1386 C 0.86424 0.32775 0.98177 0.0
C1387 C 0.86224 0.31736 0.96406 0.0
C1388 C 0.88518 0.35673 0.98631 0.0
C1389 C 0.88111 0.33658 0.95087 0.0
C1390 C 0.90204 0.36539 0.95529 0.0
C1391 C 0.92606 0.4043 0.97767 0.0
C1392 C 0.92842 0.41454 0.99544 0.0
C1393 C 0.90448 0.37562 0.973 0.0
C1394 C 0.90887 0.39568 0.00848 0.0
C1395 C 0.88749 0.36705 1.00399 0.0
H1396 H 0.66022 0.52498 0.97237 0.0
H1397 H 0.69825 0.6181 0.97812 0.0
H1398 H 0.65264 0.61103 0.99174 0.0
H1399 H 0.60042 0.57898 0.9997 0.0
H1400 H 0.56194 0.48595 0.9953 0.0
H1401 H 0.60921 0.49231 0.98405 0.0
C1402 C 0.65872 0.5437 0.97685 0.0
C1403 C 0.68255 0.5721 0.97359 0.0
C1404 C 0.63226 0.53952 0.98501 0.0
C1405 C 0.68005 0.59601 0.97972 0.0
C1406 C 0.65399 0.59203 0.9877 0.0
C1407 C 0.60261 0.56011 0.99657 0.0
C1408 C 0.57786 0.53209 0.99846 0.0
C1409 C 0.62972 0.56398 0.98999 0.0
C1410 C 0.58082 0.50776 0.99425 0.0
C1411 C 0.60781 0.51143 0.98764 0.0
H1412 H 0.46123 0.12353 0.95136 0.0
H1413 H 0.54527 0.18765 0.97443 0.0
H1414 H 0.54749 0.14974 0.99164 0.0
H1415 H 0.52677 0.0981 0.99891 0.0
H1416 H 0.44265 0.03406 0.9757 0.0
H1417 H 0.43921 0.0723 0.95991 0.0
C1418 C 0.4798 0.12929 0.96037 0.0
C1419 C 0.5031 0.15835 0.96153 0.0
C1420 C 0.48102 0.10739 0.97014 0.0
C1421 C 0.52723 0.16537 0.97308 0.0
C1422 C 0.52848 0.14373 0.98298 0.0
C1423 C 0.50746 0.09251 0.99061 0.0
C1424 C 0.48502 0.0632 0.98853 0.0
C1425 C 0.50568 0.11461 0.98143 0.0
C1426 C 0.46035 0.05639 0.97753 0.0
C1427 C 0.45832 0.07826 0.96846 0.0
H1428 H 0.67264 0.07874 0.97455 0.0
H1429 H 0.64964 0.14587 0.9678 0.0
H1430 H 0.60017 0.11353 0.97993 0.0
H1431 H 0.56158 0.06429 0.98954 0.0
H1432 H 0.58363 0.9962 0.99291 0.0
H1433 H 0.63508 0.03056 0.98465 0.0
C1434 C 0.65681 0.08633 0.97546 0.0
C1435 C 0.66499 0.11472 0.96992 0.0
C1436 C 0.62804 0.06729 0.98179 0.0
C1437 C 0.64425 0.12427 0.97196 0.0
C1438 C 0.61578 0.10567 0.97879 0.0
C1439 C 0.5779 0.05726 0.98884 0.0
C1440 C 0.56918 0.02799 0.99218 0.0
C1441 C 0.60721 0.07692 0.98339 0.0
C1442 C 0.59012 0.01878 0.99063 0.0
C1443 C 0.61944 0.03836 0.98584 0.0
H1444 H 0.85837 0.52236 0.9715 0.0
H1445 H 0.92052 0.61268 0.96052 0.0
H1446 H 0.96207 0.60542 0.9678 0.0
H1447 H 0.98114 0.57367 0.97735 0.0
H1448 H 0.91984 0.48384 0.98958 0.0
H1449 H 0.87776 0.49042 0.98167 0.0
C1450 C 0.88103 0.54035 0.97066 0.0
C1451 C 0.88631 0.56806 0.96554 0.0
C1452 C 0.90501 0.5361 0.97509 0.0
C1453 C 0.91581 0.59123 0.96463 0.0
C1454 C 0.93963 0.58708 0.9687 0.0
C1455 C 0.95852 0.5556 0.9783 0.0
C1456 C 0.95351 0.52853 0.98439 0.0
C1457 C 0.93453 0.55968 0.97397 0.0
C1458 C 0.92418 0.50509 0.98532 0.0
C1459 C 0.90014 0.50882 0.9807 0.0
H1460 H 0.4642 0.34274 0.94844 0.0
H1461 H 0.53726 0.34817 0.97915 0.0
H1462 H 0.53957 0.3879 0.9972 0.0
H1463 H 0.52274 0.42237 1.00317 0.0
H1464 H 0.44938 0.41747 0.97306 0.0
H1465 H 0.44534 0.37614 0.95575 0.0
C1466 C 0.48034 0.35239 0.95924 0.0
C1467 C 0.50069 0.34268 0.96236 0.0
C1468 C 0.48162 0.37534 0.96955 0.0
C1469 C 0.52169 0.35557 0.97629 0.0
C1470 C 0.52295 0.37819 0.98665 0.0
C1471 C 0.50544 0.41203 0.99309 0.0
C1472 C 0.48622 0.42292 0.98957 0.0
C1473 C 0.50329 0.38845 0.98324 0.0
C1474 C 0.46444 0.40953 0.9761 0.0
C1475 C 0.46212 0.3859 0.96619 0.0
H1476 H 0.16305 0.66485 0.03879 0.0
H1477 H 0.10287 0.68054 0.07062 0.0
H1478 H 0.0604 0.63845 0.05662 0.0
H1479 H 0.0404 0.59523 0.03683 0.0
H1480 H 0.10124 0.57831 1.0065 0.0
H1481 H 0.14315 0.62266 0.01844 0.0
C1482 C 0.14066 0.65905 0.04271 0.0
C1483 C 0.13627 0.67581 0.05584 0.0
C1484 C 0.11634 0.63449 0.03489 0.0
C1485 C 0.107 0.66827 0.06044 0.0
C1486 C 0.08265 0.64403 0.05254 0.0
C1487 C 0.06279 0.60133 0.0327 0.0
C1488 C 0.06745 0.58338 0.02063 0.0
C1489 C 0.08706 0.6267 0.03995 0.0
C1490 C 0.09674 0.59174 0.01552 0.0
C1491 C 0.12087 0.61709 0.02246 0.0
H1492 H 0.34311 0.48454 0.04833 0.0
H1493 H 0.30145 0.39093 0.04673 0.0
H1494 H 0.34853 0.3945 0.03799 0.0
H1495 H 0.40196 0.42412 0.03158 0.0
H1496 H 0.44372 0.5177 0.03167 0.0
H1497 H 0.39649 0.51443 0.03994 0.0
C1498 C 0.34448 0.46503 0.04602 0.0
C1499 C 0.31895 0.4375 0.04827 0.0
C1500 C 0.37164 0.46726 0.04064 0.0
C1501 C 0.32084 0.41232 0.04507 0.0
C1502 C 0.34774 0.41435 0.04009 0.0
C1503 C 0.40058 0.44376 0.03329 0.0
C1504 C 0.42617 0.47106 0.03082 0.0
C1505 C 0.37332 0.44166 0.03794 0.0
C1506 C 0.42423 0.49639 0.03319 0.0
C1507 C 0.39724 0.49452 0.03805 0.0
H1508 H 0.52955 0.84998 0.03739 0.0
H1509 H 0.57047 0.90438 0.08403 0.0
H1510 H 0.55439 0.9382 0.07407 0.0
H1511 H 0.53143 0.95359 0.05127 0.0
H1512 H 0.48751 0.89769 1.00561 0.0
H1513 H 0.50201 0.86313 0.01598 0.0
C1514 C 0.53467 0.86916 0.04539 0.0
C1515 C 0.55128 0.87491 0.06132 0.0
C1516 C 0.52513 0.88831 0.03968 0.0
C1517 C 0.55759 0.89955 0.07175 0.0
C1518 C 0.54856 0.91893 0.06602 0.0
C1519 C 0.52494 0.93387 0.04354 0.0
C1520 C 0.50917 0.9288 0.02728 0.0
C1521 C 0.53275 0.91375 0.04985 0.0
C1522 C 0.50031 0.90265 0.01783 0.0
C1523 C 0.50849 0.88274 0.02383 0.0
H1524 H 0.00567 0.24387 0.39299 0.0
H1525 H 0.03822 0.18516 0.3807 0.0
H1526 H 0.08132 0.22423 0.36552 0.0
H1527 H 0.11228 0.27601 0.35877 0.0
H1528 H 0.08111 0.3355 0.3717 0.0
H1529 H 0.03488 0.29523 0.38358 0.0
C1530 C 0.02197 0.23957 0.38673 0.0
C1531 C 0.01896 0.21177 0.38816 0.0
C1532 C 0.04705 0.26231 0.3783 0.0
C1533 C 0.04032 0.20652 0.38004 0.0
C1534 C 0.06492 0.2288 0.37133 0.0
C1535 C 0.09509 0.28008 0.36374 0.0
C1536 C 0.09997 0.30865 0.36417 0.0
C1537 C 0.06892 0.25695 0.37082 0.0
C1538 C 0.07773 0.31362 0.37112 0.0
C1539 C 0.05138 0.29063 0.37796 0.0
H1540 H 0.81076 0.8218 0.37978 0.0
H1541 H 0.75086 0.72938 0.38541 0.0
H1542 H 0.70888 0.73538 0.37737 0.0
H1543 H 0.68856 0.76665 0.36907 0.0
H1544 H 0.74749 0.85894 0.36333 0.0
H1545 H 0.79015 0.85338 0.37124 0.0
C1546 C 0.78851 0.80302 0.37929 0.0
C1547 C 0.78416 0.77513 0.38306 0.0
C1548 C 0.76417 0.8066 0.37466 0.0
C1549 C 0.75509 0.75103 0.38226 0.0
C1550 C 0.73093 0.75443 0.37779 0.0
C1551 C 0.71082 0.78547 0.36946 0.0
C1552 C 0.71503 0.81299 0.36512 0.0
C1553 C 0.73517 0.78205 0.37397 0.0
C1554 C 0.74382 0.83738 0.36608 0.0
C1555 C 0.76819 0.83422 0.37074 0.0
H1556 H 0.25576 0.02176 0.38706 0.0
H1557 H 0.17097 0.01475 0.37622 0.0
H1558 H 0.15146 0.96461 0.36509 0.0
H1559 H 0.15892 0.92272 0.35866 0.0
H1560 H 0.24385 0.93055 0.371 0.0
H1561 H 0.26293 0.98042 0.38124 0.0
C1562 C 0.23306 0.00929 0.38213 0.0
C1563 C 0.21488 0.02187 0.38224 0.0
C1564 C 0.22204 0.98063 0.37608 0.0
C1565 C 0.18532 0.00539 0.37622 0.0
C1566 C 0.17424 0.97683 0.36984 0.0
C1567 C 0.18161 0.93543 0.36356 0.0
C1568 C 0.1999 0.92288 0.36412 0.0
C1569 C 0.19244 0.9642 0.36972 0.0
C1570 C 0.22918 0.93951 0.3706 0.0
C1571 C 0.2402 0.96812 0.37641 0.0
H1572 H 0.51997 0.65936 0.31979 0.0
H1573 H 0.58183 0.6584 0.28152 0.0
H1574 H 0.61887 0.7083 0.29008 0.0
H1575 H 0.63428 0.75151 0.30924 0.0
H1576 H 0.57083 0.75377 0.34579 0.0
H1577 H 0.5341 0.70417 0.3373 0.0
C1578 C 0.54152 0.67022 0.3133 0.0
C1579 C 0.54823 0.65531 0.30009 0.0
C1580 C 0.56258 0.69902 0.31814 0.0
C1581 C 0.57611 0.6696 0.29163 0.0
C1582 C 0.59735 0.69804 0.29659 0.0
C1583 C 0.61245 0.74122 0.31537 0.0
C1584 C 0.60583 0.75622 0.32863 0.0
C1585 C 0.59094 0.71287 0.30996 0.0
C1586 C 0.57709 0.74258 0.33606 0.0
C1587 C 0.55585 0.71419 0.33107 0.0
H1588 H 0.35356 0.92384 0.31183 0.0
H1589 H 0.32797 0.83381 0.30302 0.0
H1590 H 0.27803 0.81855 0.31455 0.0
H1591 H 0.24044 0.8313 0.32511 0.0
H1592 H 0.26628 0.92178 0.33169 0.0
H1593 H 0.31737 0.93638 0.32343 0.0
C1594 C 0.33723 0.90083 0.31268 0.0
C1595 C 0.34457 0.88002 0.30658 0.0
C1596 C 0.30853 0.89232 0.31898 0.0
C1597 C 0.32286 0.85031 0.30747 0.0
C1598 C 0.29433 0.84158 0.31413 0.0
C1599 C 0.2575 0.85412 0.32512 0.0
C1600 C 0.24989 0.8755 0.32935 0.0
C1601 C 0.28673 0.86242 0.31967 0.0
C1602 C 0.27185 0.90504 0.32872 0.0
C1603 C 0.30099 0.91337 0.32391 0.0
H1604 H 0.17696 0.50815 0.3045 0.0
H1605 H 0.10151 0.44616 0.27306 0.0
H1606 H 0.10178 0.40597 0.28866 0.0
H1607 H 0.12518 0.38843 0.30996 0.0
H1608 H 0.2021 0.45068 0.34039 0.0
H1609 H 0.19947 0.49064 0.32643 0.0
C1610 C 0.16062 0.48584 0.30102 0.0
C1611 C 0.13937 0.48022 0.28755 0.0
C1612 C 0.16118 0.46284 0.30984 0.0
C1613 C 0.11797 0.45117 0.28348 0.0
C1614 C 0.11823 0.42814 0.2923 0.0
C1615 C 0.14129 0.41071 0.31364 0.0
C1616 C 0.16374 0.41641 0.32629 0.0
C1617 C 0.13998 0.43372 0.30533 0.0
C1618 C 0.18438 0.4455 0.33086 0.0
C1619 C 0.18302 0.46846 0.32279 0.0
H1620 H 0.34193 0.47179 0.31312 0.0
H1621 H 0.36299 0.40415 0.30171 0.0
H1622 H 0.31328 0.36718 0.31072 0.0
H1623 H 0.26323 0.35352 0.3209 0.0
H1624 H 0.24021 0.41996 0.33066 0.0
H1625 H 0.29106 0.45783 0.32336 0.0
C1626 C 0.33557 0.44896 0.31251 0.0
C1627 C 0.35641 0.4409 0.30686 0.0
C1628 C 0.30659 0.42755 0.31753 0.0
C1629 C 0.34775 0.41115 0.30631 0.0
C1630 C 0.3192 0.38989 0.31136 0.0
C1631 C 0.26951 0.37634 0.32159 0.0
C1632 C 0.24834 0.38402 0.32677 0.0
C1633 C 0.29845 0.39781 0.31694 0.0
C1634 C 0.25641 0.41357 0.32723 0.0
C1635 C 0.2854 0.4352 0.32286 0.0
H1636 H 0.53274 0.85939 0.30705 0.0
H1637 H 0.59363 0.95001 0.29589 0.0
H1638 H 0.63543 0.94449 0.30519 0.0
H1639 H 0.65523 0.91398 0.31591 0.0
H1640 H 0.59536 0.82329 0.32682 0.0
H1641 H 0.55282 0.82866 0.31826 0.0
C1642 C 0.55517 0.87786 0.3066 0.0
C1643 C 0.55992 0.90513 0.30085 0.0
C1644 C 0.57936 0.87455 0.31198 0.0
C1645 C 0.58918 0.92889 0.3005 0.0
C1646 C 0.61319 0.92574 0.30572 0.0
C1647 C 0.63281 0.89548 0.31651 0.0
C1648 C 0.62835 0.86849 0.32235 0.0
C1649 C 0.60858 0.89872 0.31146 0.0
C1650 C 0.59929 0.84449 0.32279 0.0
C1651 C 0.57499 0.84752 0.31776 0.0
H1652 H 0.17065 0.6794 0.30134 0.0
H1653 H 0.09468 0.66831 0.27132 0.0
H1654 H 0.0975 0.71063 0.28678 0.0
H1655 H 0.12258 0.75159 0.30837 0.0
H1656 H 0.19969 0.76267 0.3373 0.0
H1657 H 0.19493 0.71928 0.32303 0.0
C1658 C 0.15437 0.68591 0.29839 0.0
C1659 C 0.1324 0.67065 0.28529 0.0
C1660 C 0.15629 0.71029 0.30718 0.0
C1661 C 0.11191 0.67982 0.28131 0.0
C1662 C 0.11348 0.70396 0.29016 0.0
C1663 C 0.13825 0.74444 0.31161 0.0
C1664 C 0.1612 0.76029 0.32414 0.0
C1665 C 0.13577 0.71954 0.30303 0.0
C1666 C 0.18142 0.75074 0.32803 0.0
C1667 C 0.17889 0.72594 0.31976 0.0
H1668 H 0.78988 0.02052 0.38867 0.0
H1669 H 0.86063 0.00388 0.37422 0.0
H1670 H 0.8249 0.95857 0.35935 0.0
H1671 H 0.77323 0.92161 0.35263 0.0
H1672 H 0.70215 0.93672 0.36873 0.0
H1673 H 0.73831 0.98422 0.38116 0.0
C1674 C 0.79756 0.00698 0.38235 0.0
C1675 C 0.82804 0.01578 0.38269 0.0
C1676 C 0.77676 0.98039 0.3743 0.0
C1677 C 0.83747 0.99809 0.37402 0.0
C1678 C 0.81698 0.97192 0.36565 0.0
C1679 C 0.76562 0.93543 0.35863 0.0
C1680 C 0.73498 0.92556 0.35973 0.0
C1681 C 0.78652 0.9626 0.36599 0.0
C1682 C 0.72557 0.94366 0.36777 0.0
C1683 C 0.74626 0.97088 0.37487 0.0
H1684 H 0.0158 0.81999 0.38274 0.0
H1685 H 0.97841 0.72697 0.38611 0.0
H1686 H 0.02563 0.73168 0.37669 0.0
H1687 H 0.078 0.76215 0.36805 0.0
H1688 H 0.11568 0.85498 0.36371 0.0
H1689 H 0.06823 0.85055 0.3727 0.0
C1690 C 0.01812 0.80084 0.38143 0.0
C1691 C 0.99363 0.77316 0.38518 0.0
C1692 C 0.0454 0.80366 0.37571 0.0
C1693 C 0.99685 0.74848 0.38323 0.0
C1694 C 0.02388 0.75115 0.37787 0.0
C1695 C 0.07568 0.78135 0.36895 0.0
C1696 C 0.10014 0.80875 0.36492 0.0
C1697 C 0.04832 0.77859 0.37412 0.0
C1698 C 0.09702 0.83354 0.36636 0.0
C1699 C 0.06991 0.83103 0.37165 0.0
H1700 H 0.19727 0.19582 0.37544 0.0
H1701 H 0.26828 0.26247 0.40759 0.0
H1702 H 0.2554 0.29829 0.3974 0.0
H1703 H 0.2255 0.31113 0.37872 0.0
H1704 H 0.15335 0.24497 0.34697 0.0
H1705 H 0.16512 0.20847 0.35771 0.0
C1706 C 0.20966 0.21811 0.38036 0.0
C1707 C 0.23393 0.22654 0.3921 0.0
C1708 C 0.20214 0.23871 0.37441 0.0
C1709 C 0.24988 0.25554 0.39829 0.0
C1710 C 0.24246 0.27602 0.39253 0.0
C1711 C 0.21224 0.28877 0.37408 0.0
C1712 C 0.18899 0.28103 0.36168 0.0
C1713 C 0.21893 0.26793 0.38043 0.0
C1714 C 0.17187 0.25176 0.35613 0.0
C1715 C 0.17846 0.2308 0.36238 0.0
H1716 H 0.66898 0.56394 0.72414 0.0
H1717 H 0.68513 0.49273 0.7144 0.0
H1718 H 0.73324 0.52613 0.70109 0.0
H1719 H 0.77336 0.57647 0.6956 0.0
H1720 H 0.75751 0.64771 0.70524 0.0
H1721 H 0.70686 0.61363 0.71535 0.0
C1722 C 0.68294 0.55574 0.71894 0.0
C1723 C 0.67357 0.52593 0.72042 0.0
C1724 C 0.71076 0.57514 0.71145 0.0
C1725 C 0.69169 0.51553 0.71336 0.0
C1726 C 0.71935 0.53465 0.70588 0.0
C1727 C 0.7584 0.58429 0.69947 0.0
C1728 C 0.76859 0.61426 0.69933 0.0
C1729 C 0.72946 0.56459 0.70531 0.0
C1730 C 0.74962 0.62453 0.70484 0.0
C1731 C 0.72083 0.6051 0.71075 0.0
H1732 H 0.46851 0.13957 0.71419 0.0
H1733 H 0.40614 0.04791 0.721 0.0
H1734 H 0.36574 0.05476 0.71057 0.0
H1735 H 0.34723 0.08696 0.70107 0.0
H1736 H 0.4088 0.17835 0.69366 0.0
H1737 H 0.45026 0.17142 0.7024 0.0
C1738 C 0.44616 0.12104 0.71317 0.0
C1739 C 0.44042 0.09335 0.71879 0.0
C1740 C 0.42278 0.12507 0.70702 0.0
C1741 C 0.41121 0.06963 0.71732 0.0
C1742 C 0.38802 0.07345 0.71122 0.0
C1743 C 0.36981 0.10525 0.70119 0.0
C1744 C 0.37503 0.13297 0.69642 0.0
C1745 C 0.39343 0.10111 0.70635 0.0
C1746 C 0.40429 0.15665 0.69686 0.0
C1747 C 0.42798 0.15272 0.70201 0.0
H1748 H 0.8749 0.34952 0.7048 0.0
H1749 H 0.94513 0.3488 0.73536 0.0
H1750 H 0.92681 0.29825 0.72651 0.0
H1751 H 0.89162 0.25465 0.70969 0.0
H1752 H 0.81992 0.2544 0.68025 0.0
H1753 H 0.83786 0.30481 0.68933 0.0
C1754 C 0.88599 0.33823 0.70973 0.0
C1755 C 0.91155 0.35313 0.7206 0.0
C1756 C 0.87513 0.30898 0.70478 0.0
C1757 C 0.9258 0.33814 0.72667 0.0
C1758 C 0.91521 0.30913 0.72173 0.0
C1759 C 0.87976 0.26548 0.7053 0.0
C1760 C 0.85478 0.25083 0.69398 0.0
C1761 C 0.89003 0.29441 0.7107 0.0
C1762 C 0.83962 0.26529 0.68861 0.0
C1763 C 0.84977 0.29411 0.69388 0.0
H1764 H 0.18226 0.98035 0.65679 0.0
H1765 H 0.23509 0.98721 0.61042 0.0
H1766 H 0.27115 0.03768 0.61853 0.0
H1767 H 0.28879 0.07881 0.63959 0.0
H1768 H 0.23388 0.07365 0.68455 0.0
H1769 H 0.1976 0.02363 0.6763 0.0
C1770 C 0.20156 0.9931 0.64843 0.0
C1771 C 0.20619 0.98024 0.63309 0.0
C1772 C 0.22196 0.02222 0.65304 0.0
C1773 C 0.23108 0.99685 0.62222 0.0
C1774 C 0.25175 0.02559 0.62691 0.0
C1775 C 0.26892 0.06684 0.64763 0.0
C1776 C 0.26473 0.07981 0.66312 0.0
C1777 C 0.24762 0.03836 0.64243 0.0
C1778 C 0.23833 0.06406 0.67298 0.0
C1779 C 0.21737 0.03543 0.66816 0.0
H1780 H 0.01436 0.25266 0.64701 0.0
H1781 H 0.98667 0.16358 0.63247 0.0
H1782 H 0.93681 0.14807 0.6438 0.0
H1783 H 0.89919 0.16068 0.65447 0.0
H1784 H 0.92627 0.25081 0.6644 0.0
H1785 H 0.97788 0.26509 0.65782 0.0
C1786 C 0.99748 0.22984 0.646 0.0
C1787 C 0.00454 0.20956 0.63845 0.0
C1788 C 0.96844 0.22125 0.65165 0.0
C1789 C 0.98229 0.1799 0.63818 0.0
C1790 C 0.95354 0.17097 0.64453 0.0
C1791 C 0.9166 0.18331 0.65555 0.0
C1792 C 0.90921 0.20469 0.66029 0.0
C1793 C 0.94612 0.19156 0.65086 0.0
C1794 C 0.93165 0.23405 0.66103 0.0
C1795 C 0.96109 0.2422 0.65721 0.0
H1796 H 0.82646 0.82277 0.64805 0.0
H1797 H 0.75093 0.76051 0.61674 0.0
H1798 H 0.75235 0.72047 0.63174 0.0
H1799 H 0.77749 0.70335 0.65196 0.0
H1800 H 0.85288 0.76581 0.68337 0.0
H1801 H 0.84845 0.80552 0.67043 0.0
C1802 C 0.80982 0.80047 0.64478 0.0
C1803 C 0.78878 0.79472 0.63115 0.0
C1804 C 0.81079 0.77756 0.65344 0.0
C1805 C 0.76771 0.76561 0.62694 0.0
C1806 C 0.76843 0.74268 0.63557 0.0
C1807 C 0.79275 0.7256 0.65617 0.0
C1808 C 0.81574 0.73154 0.66846 0.0
C1809 C 0.7903 0.74842 0.64854 0.0
C1810 C 0.83513 0.76054 0.67383 0.0
C1811 C 0.83267 0.78333 0.6664 0.0
H1812 H 0.99782 0.79574 0.63747 0.0
H1813 H 0.03352 0.74161 0.65429 0.0
H1814 H 0.98475 0.70505 0.66509 0.0
H1815 H 0.93103 0.68665 0.66799 0.0
H1816 H 0.89467 0.73937 0.6501 0.0
H1817 H 0.94431 0.7779 0.64107 0.0
C1818 C 0.99494 0.77589 0.6434 0.0
C1819 C 0.01948 0.77159 0.64502 0.0
C1820 C 0.9666 0.75456 0.64929 0.0
C1821 C 0.01527 0.74586 0.65307 0.0
C1822 C 0.98727 0.72473 0.65913 0.0
C1823 C 0.93426 0.70688 0.66242 0.0
C1824 C 0.90973 0.71083 0.66023 0.0
C1825 C 0.96273 0.72868 0.65713 0.0
C1826 C 0.91362 0.73647 0.6524 0.0
C1827 C 0.94189 0.75832 0.64713 0.0
H1828 H 0.19422 0.18516 0.64333 0.0
H1829 H 0.25558 0.27371 0.62803 0.0
H1830 H 0.29737 0.26878 0.63833 0.0
H1831 H 0.31696 0.23873 0.65018 0.0
H1832 H 0.25654 0.14953 0.66434 0.0
H1833 H 0.21406 0.15525 0.65627 0.0
C1834 C 0.21673 0.2034 0.64245 0.0
C1835 C 0.22179 0.22967 0.63475 0.0
C1836 C 0.24087 0.20029 0.64819 0.0
C1837 C 0.25111 0.25312 0.63363 0.0
C1838 C 0.27504 0.25036 0.63957 0.0
C1839 C 0.29445 0.22064 0.65162 0.0
C1840 C 0.28986 0.19396 0.65817 0.0
C1841 C 0.27025 0.22395 0.6466 0.0
C1842 C 0.26063 0.1705 0.65971 0.0
C1843 C 0.23634 0.17372 0.65497 0.0
H1844 H 0.78571 0.00138 0.61643 0.0
H1845 H 0.86271 0.00936 0.64375 0.0
H1846 H 0.86968 0.05297 0.65952 0.0
H1847 H 0.85502 0.08966 0.66467 0.0
H1848 H 0.77748 0.08133 0.63778 0.0
H1849 H 0.76967 0.03697 0.6227 0.0
C1850 C 0.80378 0.01243 0.62602 0.0
C1851 C 0.82373 0.00219 0.62884 0.0
C1852 C 0.80768 0.03749 0.63503 0.0
C1853 C 0.84729 0.01702 0.64113 0.0
C1854 C 0.85123 0.04188 0.6502 0.0
C1855 C 0.83613 0.07797 0.65573 0.0
C1856 C 0.81678 0.08879 0.65249 0.0
C1857 C 0.83172 0.05245 0.64712 0.0
C1858 C 0.79277 0.07356 0.64055 0.0
C1859 C 0.78824 0.04815 0.63192 0.0
H1860 H 0.49798 0.32682 0.71332 0.0
H1861 H 0.43668 0.34252 0.74388 0.0
H1862 H 0.39465 0.30008 0.72969 0.0
H1863 H 0.37542 0.257 0.70969 0.0
H1864 H 0.43755 0.24096 0.68013 0.0
H1865 H 0.47895 0.28492 0.69283 0.0
C1866 C 0.47542 0.32091 0.71693 0.0
C1867 C 0.47051 0.3377 0.72975 0.0
C1868 C 0.45144 0.29636 0.70888 0.0
C1869 C 0.44111 0.33009 0.73397 0.0
C1870 C 0.41706 0.30571 0.72594 0.0
C1871 C 0.398 0.2632 0.70593 0.0
C1872 C 0.40319 0.24565 0.69383 0.0
C1873 C 0.42196 0.28846 0.71353 0.0
C1874 C 0.43268 0.25411 0.68918 0.0
C1875 C 0.4565 0.27923 0.69654 0.0
H1876 H 0.67249 0.14641 0.71099 0.0
H1877 H 0.63549 0.05328 0.71206 0.0
H1878 H 0.68257 0.05875 0.7016 0.0
H1879 H 0.73502 0.08998 0.69352 0.0
H1880 H 0.77225 0.18296 0.6912 0.0
H1881 H 0.72453 0.17771 0.70045 0.0
C1882 C 0.67483 0.1274 0.70884 0.0
C1883 C 0.6506 0.09948 0.71237 0.0
C1884 C 0.70199 0.13068 0.70253 0.0
C1885 C 0.65377 0.07497 0.70937 0.0
C1886 C 0.68071 0.07807 0.70344 0.0
C1887 C 0.73251 0.10903 0.69486 0.0
C1888 C 0.75698 0.13674 0.69154 0.0
C1889 C 0.70504 0.10579 0.70015 0.0
C1890 C 0.7536 0.16133 0.69341 0.0
C1891 C 0.72635 0.15834 0.69884 0.0
H1892 H 0.90279 0.54008 0.69026 0.0
H1893 H 0.87998 0.54286 0.74585 0.0
H1894 H 0.85763 0.57199 0.73777 0.0
H1895 H 0.84724 0.59923 0.71535 0.0
H1896 H 0.87506 0.60177 0.66062 0.0
H1897 H 0.89227 0.56754 0.66775 0.0
C1898 C 0.89312 0.54717 0.70066 0.0
C1899 C 0.89322 0.5392 0.71868 0.0
C1900 C 0.88114 0.56485 0.69604 0.0
C1901 C 0.87988 0.54812 0.73184 0.0
C1902 C 0.8673 0.56507 0.72728 0.0
C1903 C 0.85752 0.59262 0.70511 0.0
C1904 C 0.86045 0.60326 0.68762 0.0
C1905 C 0.8683 0.57397 0.70951 0.0
C1906 C 0.87243 0.59358 0.67415 0.0
C1907 C 0.88252 0.57429 0.67829 0.0
H1908 H 0.52499 0.97563 0.19307 0.0
H1909 H 0.43077 0.92707 0.18194 0.0
H1910 H 0.43981 0.94626 0.15141 0.0
H1911 H 0.47451 0.97906 0.12822 0.0
H1912 H 0.56863 0.02646 0.13971 0.0
H1913 H 0.55955 0.00507 0.16951 0.0
C1914 C 0.50638 0.96865 0.18392 0.0
C1915 C 0.47719 0.94987 0.18999 0.0
C1916 C 0.51172 0.97972 0.16635 0.0
C1917 C 0.45346 0.94177 0.17785 0.0
C1918 C 0.45862 0.95265 0.16031 0.0
C1919 C 0.49304 0.98435 0.13715 0.0
C1920 C 0.5222 0.0047 0.13174 0.0
C1921 C 0.48765 0.97198 0.15445 0.0
C1922 C 0.54591 0.01135 0.14359 0.0
C1923 C 0.54076 0.99904 0.16065 0.0
H1924 H 0.04353 0.56359 0.18513 0.0
H1925 H 0.07057 0.50196 0.16898 0.0
H1926 H 0.04077 0.49063 0.14157 0.0
H1927 H 0.00828 0.49936 0.1218 0.0
H1928 H 0.982 0.56165 0.13778 0.0
H1929 H 0.00962 0.571 0.1659 0.0
C1930 C 0.04252 0.54733 0.17576 0.0
C1931 C 0.05929 0.53368 0.17907 0.0
C1932 C 0.02546 0.54102 0.16001 0.0
C1933 C 0.05813 0.51301 0.16664 0.0
C1934 C 0.04103 0.50646 0.151 0.0
C1935 C 0.0087 0.51507 0.13141 0.0
C1936 C 0.9932 0.52987 0.12765 0.0
C1937 C 0.02491 0.5206 0.14745 0.0
C1938 C 0.9935 0.54975 0.1404 0.0
C1939 C 0.00945 0.55526 0.15644 0.0
H1940 H 0.46738 0.50144 0.19199 0.0
H1941 H 0.55 0.51146 0.21208 0.0
H1942 H 0.5633 0.50398 0.18199 0.0
H1943 H 0.55194 0.49472 0.15004 0.0
H1944 H 0.46798 0.4809 0.12977 0.0
H1945 H 0.45505 0.4901 0.15975 0.0
C1946 C 0.48815 0.50171 0.18982 0.0
C1947 C 0.50776 0.50739 0.20436 0.0
C1948 C 0.49559 0.4969 0.1724 0.0
C1949 C 0.53472 0.50786 0.20118 0.0
C1950 C 0.54232 0.50337 0.18395 0.0
C1951 C 0.53059 0.49328 0.15214 0.0
C1952 C 0.51099 0.48698 0.13756 0.0
C1953 C 0.52298 0.49792 0.16947 0.0
C1954 C 0.48377 0.48606 0.14061 0.0
C1955 C 0.47621 0.49108 0.15783 0.0
H1956 H 0.02325 0.51345 0.82251 0.0
H1957 H 0.93002 0.45483 0.83244 0.0
H1958 H 0.94073 0.4525 0.86418 0.0
H1959 H 0.97706 0.46486 0.88869 0.0
H1960 H 0.07022 0.52332 0.87848 0.0
H1961 H 0.059 0.52821 0.84729 0.0
C1962 C 0.00517 0.5006 0.83167 0.0
C1963 C 0.97589 0.4843 0.8251 0.0
C1964 C 0.01151 0.49919 0.84983 0.0
C1965 C 0.95281 0.46733 0.83712 0.0
C1966 C 0.9589 0.46605 0.85527 0.0
C1967 C 0.99482 0.47902 0.8797 0.0
C1968 C 0.02445 0.49355 0.88585 0.0
C1969 C 0.98823 0.48154 0.86172 0.0
C1970 C 0.04728 0.51158 0.87399 0.0
C1971 C 0.04088 0.51446 0.85618 0.0
H1972 H 0.5141 0.44071 0.84607 0.0
H1973 H 0.55051 0.52554 0.82198 0.0
H1974 H 0.53493 0.54292 0.84799 0.0
H1975 H 0.51275 0.53468 0.87821 0.0
H1976 H 0.47861 0.45051 0.90273 0.0
H1977 H 0.49227 0.43253 0.87613 0.0
C1978 C 0.51896 0.46311 0.84653 0.0
C1979 C 0.5336 0.48174 0.83201 0.0
C1980 C 0.51055 0.4732 0.86171 0.0
C1981 C 0.53896 0.51051 0.83278 0.0
C1982 C 0.53027 0.52058 0.84775 0.0
C1983 C 0.50809 0.51233 0.87765 0.0
C1984 C 0.49472 0.49398 0.89245 0.0
C1985 C 0.51623 0.50218 0.86235 0.0
C1986 C 0.48916 0.46518 0.89161 0.0
C1987 C 0.49685 0.45484 0.87637 0.0
H1988 H 0.47983 0.03667 0.82739 0.0
H1989 H 0.56843 0.0507 0.83448 0.0
H1990 H 0.55591 0.03131 0.86497 0.0
H1991 H 0.51848 0.0072 0.88901 0.0
H1992 H 0.4294 0.9913 0.88093 0.0
H1993 H 0.44342 0.01485 0.85166 0.0
C1994 C 0.49659 0.03601 0.83572 0.0
C1995 C 0.52506 0.04521 0.82864 0.0
C1996 C 0.48904 0.0243 0.8531 0.0
C1997 C 0.5463 0.04362 0.83954 0.0
C1998 C 0.53915 0.03255 0.857 0.0
C1999 C 0.50234 0.00932 0.88091 0.0
C2000 C 0.47292 0.99747 0.88709 0.0
C2001 C 0.51042 0.02235 0.86383 0.0
C2002 C 0.45211 6e-05 0.87639 0.0
C2003 C 0.46012 0.01353 0.85966 0.0
H2004 H 0.14743 0.30802 0.5224 0.0
H2005 H 0.11136 0.21495 0.51759 0.0
H2006 H 0.11659 0.2192 0.48515 0.0
H2007 H 0.13087 0.24885 0.45811 0.0
H2008 H 0.1597 0.34062 0.46247 0.0
H2009 H 0.15802 0.33712 0.49507 0.0
C2010 C 0.14011 0.28845 0.51437 0.0
C2011 C 0.12916 0.26118 0.5228 0.0
C2012 C 0.14208 0.29079 0.49551 0.0
C2013 C 0.12058 0.2364 0.51183 0.0
C2014 C 0.12329 0.23873 0.49313 0.0
C2015 C 0.13625 0.26813 0.46601 0.0
C2016 C 0.14538 0.295 0.45746 0.0
C2017 C 0.13395 0.26579 0.48483 0.0
C2018 C 0.15315 0.31969 0.46836 0.0
C2019 C 0.15187 0.31768 0.48713 0.0
H2020 H 0.74928 0.91135 0.5105 0.0
H2021 H 0.69161 0.82645 0.53295 0.0
H2022 H 0.65766 0.8141 0.50752 0.0
H2023 H 0.64559 0.82639 0.47805 0.0
H2024 H 0.70503 0.90994 0.45477 0.0
H2025 H 0.73738 0.9236 0.4812 0.0
C2026 C 0.72946 0.89001 0.50979 0.0
C2027 C 0.72318 0.86989 0.52368 0.0
C2028 C 0.71041 0.88273 0.4949 0.0
C2029 C 0.69692 0.8426 0.52264 0.0
C2030 C 0.67756 0.83539 0.50801 0.0
C2031 C 0.66547 0.84769 0.4789 0.0
C2032 C 0.67296 0.86717 0.46454 0.0
C2033 C 0.68421 0.85518 0.49399 0.0
C2034 C 0.69896 0.89455 0.46564 0.0
C2035 C 0.7174 0.90236 0.48074 0.0
H2036 H 0.16654 0.87284 0.52369 0.0
H2037 H 0.14449 0.78608 0.5391 0.0
H2038 H 0.15638 0.77663 0.50892 0.0
H2039 H 0.17556 0.79385 0.47858 0.0
H2040 H 0.19743 0.88042 0.46295 0.0
H2041 H 0.18307 0.88912 0.49271 0.0
C2042 C 0.16428 0.85186 0.5204 0.0
C2043 C 0.15474 0.83024 0.53365 0.0
C2044 C 0.17125 0.84659 0.503 0.0
C2045 C 0.15151 0.803 0.52912 0.0
C2046 C 0.15852 0.79765 0.5119 0.0
C2047 C 0.17716 0.81461 0.48172 0.0
C2048 C 0.18778 0.83655 0.46867 0.0
C2049 C 0.1688 0.8194 0.49881 0.0
C2050 C 0.18923 0.86316 0.47277 0.0
C2051 C 0.18115 0.86818 0.4898 0.0
H2052 H 0.66813 0.79445 0.15983 0.0
H2053 H 0.62033 0.83973 0.17169 0.0
H2054 H 0.63807 0.84734 0.20272 0.0
H2055 H 0.66868 0.84267 0.22621 0.0
H2056 H 0.71458 0.79548 0.21446 0.0
H2057 H 0.69577 0.78688 0.18371 0.0
C2058 C 0.6611 0.80553 0.16924 0.0
C2059 C 0.64298 0.81658 0.16334 0.0
C2060 C 0.67117 0.80963 0.1871 0.0
C2061 C 0.63464 0.83138 0.17574 0.0
C2062 C 0.64464 0.83561 0.19354 0.0
C2063 C 0.6742 0.83011 0.21702 0.0
C2064 C 0.69327 0.82 0.22264 0.0
C2065 C 0.66314 0.82505 0.19933 0.0
C2066 C 0.70043 0.80404 0.21043 0.0
C2067 C 0.68956 0.79896 0.19285 0.0
H2068 H 0.18601 0.77658 0.1779 0.0
H2069 H 0.20275 0.85493 0.15083 0.0
H2070 H 0.18725 0.87088 0.17763 0.0
H2071 H 0.16879 0.86245 0.20882 0.0
H2072 H 0.152 0.78387 0.23564 0.0
H2073 H 0.16758 0.76812 0.20888 0.0
C2074 C 0.18598 0.79702 0.17778 0.0
C2075 C 0.19536 0.81444 0.16232 0.0
C2076 C 0.17708 0.80605 0.19323 0.0
C2077 C 0.19582 0.84117 0.16257 0.0
C2078 C 0.18683 0.85025 0.17787 0.0
C2079 C 0.16832 0.84177 0.20875 0.0
C2080 C 0.15922 0.82438 0.22424 0.0
C2081 C 0.17737 0.83284 0.19328 0.0
C2082 C 0.1592 0.79784 0.224 0.0
C2083 C 0.16797 0.78875 0.20866 0.0
H2084 H 0.21436 0.39367 0.16819 0.0
H2085 H 0.12594 0.34166 0.14645 0.0
H2086 H 0.10673 0.32267 0.17628 0.0
H2087 H 0.1152 0.31905 0.20813 0.0
H2088 H 0.204 0.36786 0.23004 0.0
H2089 H 0.22272 0.39039 0.20082 0.0
C2090 C 0.19089 0.3784 0.17011 0.0
C2091 C 0.17155 0.36897 0.15519 0.0
C2092 C 0.18005 0.367 0.18733 0.0
C2093 C 0.14121 0.34905 0.15775 0.0
C2094 C 0.13023 0.33821 0.17479 0.0
C2095 C 0.13873 0.33441 0.20656 0.0
C2096 C 0.1581 0.3414 0.22137 0.0
C2097 C 0.14949 0.34665 0.18961 0.0
C2098 C 0.18839 0.36211 0.21903 0.0
C2099 C 0.19921 0.37488 0.20223 0.0
H2100 H 0.78715 0.61797 0.84591 0.0
H2101 H 0.87718 0.65921 0.86639 0.0
H2102 H 0.89576 0.68458 0.83826 0.0
H2103 H 0.8869 0.69789 0.80859 0.0
H2104 H 0.79716 0.66066 0.78852 0.0
H2105 H 0.77831 0.63091 0.81553 0.0
C2106 C 0.81084 0.63252 0.84429 0.0
C2107 C 0.83057 0.63624 0.85846 0.0
C2108 C 0.82157 0.64797 0.82807 0.0
C2109 C 0.86127 0.65507 0.85578 0.0
C2110 C 0.87203 0.66998 0.83968 0.0
C2111 C 0.86316 0.68341 0.8101 0.0
C2112 C 0.84353 0.68193 0.79653 0.0
C2113 C 0.85241 0.66697 0.82585 0.0
C2114 C 0.81291 0.66227 0.79861 0.0
C2115 C 0.80207 0.64539 0.81417 0.0
H2116 H 0.43227 0.24457 0.83959 0.0
H2117 H 0.37342 0.16702 0.86901 0.0
H2118 H 0.33718 0.15072 0.84442 0.0
H2119 H 0.32253 0.1584 0.81435 0.0
H2120 H 0.38186 0.23599 0.78509 0.0
H2121 H 0.41751 0.25254 0.80991 0.0
C2122 C 0.41136 0.22425 0.84071 0.0
C2123 C 0.40548 0.2071 0.85613 0.0
C2124 C 0.39074 0.21504 0.82655 0.0
C2125 C 0.37856 0.18052 0.85722 0.0
C2126 C 0.35779 0.17127 0.84321 0.0
C2127 C 0.34314 0.17906 0.81352 0.0
C2128 C 0.34958 0.19595 0.79793 0.0
C2129 C 0.36366 0.18834 0.8278 0.0
C2130 C 0.37654 0.22248 0.7969 0.0
C2131 C 0.39689 0.23199 0.81109 0.0
H2132 H 0.78648 0.17226 0.84959 0.0
H2133 H 0.87029 0.19124 0.87325 0.0
H2134 H 0.88801 0.18576 0.84408 0.0
H2135 H 0.87995 0.17503 0.81197 0.0
H2136 H 0.79503 0.15192 0.78831 0.0
H2137 H 0.7778 0.15981 0.81725 0.0
C2138 C 0.80853 0.17497 0.84842 0.0
C2139 C 0.82704 0.18254 0.86372 0.0
C2140 C 0.81853 0.17114 0.83154 0.0
C2141 C 0.85569 0.18619 0.86176 0.0
C2142 C 0.86584 0.18279 0.84506 0.0
C2143 C 0.85751 0.17132 0.81311 0.0
C2144 C 0.83889 0.16278 0.79786 0.0
C2145 C 0.84746 0.17521 0.82987 0.0
C2146 C 0.81012 0.15887 0.79967 0.0
C2147 C 0.80011 0.16315 0.81629 0.0
H2148 H 0.33228 0.18218 0.49364 0.0
H2149 H 0.25244 0.10046 0.50361 0.0
H2150 H 0.26876 0.1009 0.53456 0.0
H2151 H 0.3072 0.12344 0.55826 0.0
H2152 H 0.38807 0.2038 0.5474 0.0
H2153 H 0.36986 0.2052 0.51737 0.0
C2154 C 0.31824 0.16472 0.5027 0.0
C2155 C 0.29114 0.14141 0.49644 0.0
C2156 C 0.32807 0.16484 0.52026 0.0
C2157 C 0.27343 0.1186 0.50816 0.0
C2158 C 0.28275 0.11886 0.52583 0.0
C2159 C 0.32059 0.14138 0.54934 0.0
C2160 C 0.34891 0.16348 0.55495 0.0
C2161 C 0.31022 0.14169 0.53195 0.0
C2162 C 0.36629 0.18647 0.54327 0.0
C2163 C 0.35588 0.18729 0.52614 0.0
H2164 H 0.90251 0.1735 0.50599 0.0
H2165 H 0.81861 0.10621 0.48482 0.0
H2166 H 0.79249 0.11231 0.51043 0.0
H2167 H 0.79378 0.1353 0.5395 0.0
H2168 H 0.87788 0.2006 0.56174 0.0
H2169 H 0.90374 0.19673 0.53524 0.0
C2170 C 0.8785 0.16048 0.50698 0.0
C2171 C 0.86237 0.1396 0.49358 0.0
C2172 C 0.86375 0.16358 0.522 0.0
C2173 C 0.83134 0.12246 0.49502 0.0
C2174 C 0.81646 0.12591 0.50965 0.0
C2175 C 0.81773 0.14887 0.53844 0.0
C2176 C 0.83389 0.16825 0.55253 0.0
C2177 C 0.83245 0.14618 0.52331 0.0
C2178 C 0.86498 0.18538 0.55112 0.0
C2179 C 0.87975 0.18325 0.53594 0.0
H2180 H 0.88557 0.73794 0.50659 0.0
H2181 H 0.79715 0.69152 0.48385 0.0
H2182 H 0.77723 0.66806 0.51245 0.0
H2183 H 0.78465 0.65879 0.54355 0.0
H2184 H 0.87243 0.70394 0.56694 0.0
H2185 H 0.89269 0.72995 0.5387 0.0
C2186 C 0.86196 0.72274 0.50794 0.0
C2187 C 0.84294 0.71677 0.49302 0.0
C2188 C 0.85045 0.70903 0.52459 0.0
C2189 C 0.81233 0.69707 0.49509 0.0
C2190 C 0.80086 0.6834 0.51146 0.0
C2191 C 0.80824 0.67433 0.54249 0.0
C2192 C 0.82701 0.67917 0.5573 0.0
C2193 C 0.81969 0.68899 0.52623 0.0
C2194 C 0.85744 0.69986 0.55579 0.0
C2195 C 0.86906 0.71459 0.53958 0.0
loop_
_geom_bond_atom_site_label_1
_geom_bond_atom_site_label_2
_geom_bond_distance
_geom_bond_site_symmetry_2
_ccdc_geom_bond_type
P0 O11 1.490 . S
P0 C14 1.812 . S
P0 C20 1.803 . S
P0 C26 1.819 . S
H1 C15 0.941 . S
H2 C16 0.939 . S
H3 C18 0.940 . S
H4 C19 0.940 . S
H5 C21 0.939 . S
H6 C22 0.942 . S
H7 C24 0.940 . S
H8 C25 0.939 . S
H9 C27 0.941 . S
H10 C31 0.939 . S
O11 P0 1.490 . S
H12 C28 0.939 . S
H13 C30 0.940 . S
C14 P0 1.812 . S
C14 C15 1.389 . S
C14 C19 1.391 . S
C15 H1 0.941 . S
C15 C14 1.389 . S
C15 C16 1.397 . S
C16 H2 0.939 . S
C16 C15 1.397 . S
C16 C17 1.378 . S
C17 C16 1.378 . S
C17 C18 1.378 . S
C18 H3 0.940 . S
C18 C17 1.378 . S
C18 C19 1.396 . S
C19 H4 0.940 . S
C19 C14 1.391 . S
C19 C18 1.396 . S
C20 P0 1.803 . S
C20 C21 1.378 . S
C20 C25 1.400 . S
C21 H5 0.939 . S
C21 C20 1.378 . S
C21 C22 1.361 . S
C22 H6 0.942 . S
C22 C21 1.361 . S
C22 C23 1.369 . S
C23 C22 1.369 . S
C23 C24 1.404 . S
C24 H7 0.940 . S
C24 C23 1.404 . S
C24 C25 1.389 . S
C25 H8 0.939 . S
C25 C20 1.400 . S
C25 C24 1.389 . S
C26 P0 1.819 . S
C26 C27 1.391 . S
C26 C31 1.391 . S
C27 H9 0.941 . S
C27 C26 1.391 . S
C27 C28 1.396 . S
C28 H12 0.939 . S
C28 C27 1.396 . S
C28 C29 1.397 . S
C29 C28 1.397 . S
C29 C30 1.385 . S
C30 H13 0.940 . S
C30 C29 1.385 . S
C30 C31 1.388 . S
C31 H10 0.939 . S
C31 C26 1.391 . S
C31 C30 1.388 . S
P32 O43 1.490 . S
P32 C46 1.812 . S
P32 C52 1.803 . S
P32 C58 1.819 . S
H33 C47 0.941 . S
H34 C48 0.939 . S
H35 C50 0.940 . S
H36 C51 0.940 . S
H37 C53 0.939 . S
H38 C54 0.931 1_455 S
H39 C56 0.940 . S
H40 C57 0.939 . S
H41 C59 0.941 . S
H42 C63 0.939 . S
O43 P32 1.490 . S
H44 C60 0.939 . S
H45 C62 0.940 . S
C46 P32 1.812 . S
C46 C47 1.389 . S
C46 C51 1.391 . S
C47 H33 0.941 . S
C47 C46 1.389 . S
C47 C48 1.397 . S
C48 H34 0.939 . S
C48 C47 1.397 . S
C48 C49 1.378 . S
C49 C48 1.378 . S
C49 C50 1.378 . S
C50 H35 0.940 . S
C50 C49 1.378 . S
C50 C51 1.396 . S
C51 H36 0.940 . S
C51 C46 1.391 . S
C51 C50 1.396 . S
C52 P32 1.803 . S
C52 C53 1.378 . S
C52 C57 1.400 . S
C53 H37 0.939 . S
C53 C52 1.378 . S
C53 C54 1.361 . S
C54 H38 0.931 1_655 S
C54 C53 1.361 . S
C54 C55 1.369 . S
C55 C54 1.369 . S
C55 C56 1.404 . S
C56 H39 0.940 . S
C56 C55 1.404 . S
C56 C57 1.389 . S
C57 H40 0.939 . S
C57 C52 1.400 . S
C57 C56 1.389 . S
C58 P32 1.819 . S
C58 C59 1.391 . S
C58 C63 1.391 . S
C59 H41 0.941 . S
C59 C58 1.391 . S
C59 C60 1.396 . S
C60 H44 0.939 . S
C60 C59 1.396 . S
C60 C61 1.397 . S
C61 C60 1.397 . S
C61 C62 1.385 . S
C62 H45 0.940 . S
C62 C61 1.385 . S
C62 C63 1.388 . S
C63 H42 0.939 . S
C63 C58 1.391 . S
C63 C62 1.388 . S
P64 O75 1.490 . S
P64 C78 1.812 . S
P64 C84 1.803 . S
P64 C90 1.819 . S
H65 C79 0.941 . S
H66 C80 0.939 . S
H67 C82 0.940 . S
H68 C83 0.940 . S
H69 C85 0.939 . S
H70 C86 0.942 . S
H71 C88 0.940 . S
H72 C89 0.939 . S
H73 C91 0.941 . S
H74 C95 0.939 . S
O75 P64 1.490 . S
H76 C92 0.939 . S
H77 C94 0.940 . S
C78 P64 1.812 . S
C78 C79 1.389 . S
C78 C83 1.391 . S
C79 H65 0.941 . S
C79 C78 1.389 . S
C79 C80 1.397 . S
C80 H66 0.939 . S
C80 C79 1.397 . S
C80 C81 1.378 . S
C81 C80 1.378 . S
C81 C82 1.378 . S
C82 H67 0.940 . S
C82 C81 1.378 . S
C82 C83 1.396 . S
C83 H68 0.940 . S
C83 C78 1.391 . S
C83 C82 1.396 . S
C84 P64 1.803 . S
C84 C85 1.378 . S
C84 C89 1.400 . S
C85 H69 0.939 . S
C85 C84 1.378 . S
C85 C86 1.361 . S
C86 H70 0.942 . S
C86 C85 1.361 . S
C86 C87 1.369 . S
C87 C86 1.369 . S
C87 C88 1.404 . S
C88 H71 0.940 . S
C88 C87 1.404 . S
C88 C89 1.389 . S
C89 H72 0.939 . S
C89 C84 1.400 . S
C89 C88 1.389 . S
C90 P64 1.819 . S
C90 C91 1.391 . S
C90 C95 1.391 . S
C91 H73 0.941 . S
C91 C90 1.391 . S
C91 C92 1.396 . S
C92 H76 0.939 . S
C92 C91 1.396 . S
C92 C93 1.397 . S
C93 C92 1.397 . S
C93 C94 1.385 . S
C94 H77 0.940 . S
C94 C93 1.385 . S
C94 C95 1.388 . S
C95 H74 0.939 . S
C95 C90 1.391 . S
C95 C94 1.388 . S
P96 O107 1.490 . S
P96 C110 1.812 . S
P96 C116 1.803 . S
P96 C122 1.819 . S
H97 C111 0.941 . S
H98 C112 0.939 . S
H99 C114 0.940 . S
H100 C115 0.940 . S
H101 C117 0.939 . S
H102 C118 0.942 . S
H103 C120 0.940 . S
H104 C121 0.939 . S
H105 C123 0.941 . S
H106 C127 0.939 . S
O107 P96 1.490 . S
H108 C124 0.939 . S
H109 C126 0.940 . S
C110 P96 1.812 . S
C110 C111 1.389 . S
C110 C115 1.391 . S
C111 H97 0.941 . S
C111 C110 1.389 . S
C111 C112 1.397 . S
C112 H98 0.939 . S
C112 C111 1.397 . S
C112 C113 1.378 . S
C113 C112 1.378 . S
C113 C114 1.378 . S
C114 H99 0.940 . S
C114 C113 1.378 . S
C114 C115 1.396 . S
C115 H100 0.940 . S
C115 C110 1.391 . S
C115 C114 1.396 . S
C116 P96 1.803 . S
C116 C117 1.378 . S
C116 C121 1.400 . S
C117 H101 0.939 . S
C117 C116 1.378 . S
C117 C118 1.361 . S
C118 H102 0.942 . S
C118 C117 1.361 . S
C118 C119 1.369 . S
C119 C118 1.369 . S
C119 C120 1.404 . S
C120 H103 0.940 . S
C120 C119 1.404 . S
C120 C121 1.389 . S
C121 H104 0.939 . S
C121 C116 1.400 . S
C121 C120 1.389 . S
C122 P96 1.819 . S
C122 C123 1.391 . S
C122 C127 1.391 . S
C123 H105 0.941 . S
C123 C122 1.391 . S
C123 C124 1.396 . S
C124 H108 0.939 . S
C124 C123 1.396 . S
C124 C125 1.397 . S
C125 C124 1.397 . S
C125 C126 1.385 . S
C126 H109 0.940 . S
C126 C125 1.385 . S
C126 C127 1.388 . S
C127 H106 0.939 . S
C127 C122 1.391 . S
C127 C126 1.388 . S
P128 O139 1.490 . S
P128 C142 1.812 . S
P128 C148 1.803 . S
P128 C154 1.819 . S
H129 C143 0.941 . S
H130 C144 0.939 . S
H131 C146 0.940 . S
H132 C147 0.940 . S
H133 C149 0.939 . S
H134 C150 0.942 . S
H135 C152 0.940 . S
H136 C153 0.939 . S
H137 C155 0.941 . S
H138 C159 0.939 . S
O139 P128 1.490 . S
H140 C156 0.939 . S
H141 C158 0.940 . S
C142 P128 1.812 . S
C142 C143 1.389 . S
C142 C147 1.391 . S
C143 H129 0.941 . S
C143 C142 1.389 . S
C143 C144 1.397 . S
C144 H130 0.939 . S
C144 C143 1.397 . S
C144 C145 1.378 . S
C145 C144 1.378 . S
C145 C146 1.378 . S
C146 H131 0.940 . S
C146 C145 1.378 . S
C146 C147 1.396 . S
C147 H132 0.940 . S
C147 C142 1.391 . S
C147 C146 1.396 . S
C148 P128 1.803 . S
C148 C149 1.378 . S
C148 C153 1.400 . S
C149 H133 0.939 . S
C149 C148 1.378 . S
C149 C150 1.361 . S
C150 H134 0.942 . S
C150 C149 1.361 . S
C150 C151 1.369 . S
C151 C150 1.369 . S
C151 C152 1.404 . S
C152 H135 0.940 . S
C152 C151 1.404 . S
C152 C153 1.389 . S
C153 H136 0.939 . S
C153 C148 1.400 . S
C153 C152 1.389 . S
C154 P128 1.819 . S
C154 C155 1.391 . S
C154 C159 1.391 . S
C155 H137 0.941 . S
C155 C154 1.391 . S
C155 C156 1.396 . S
C156 H140 0.939 . S
C156 C155 1.396 . S
C156 C157 1.397 . S
C157 C156 1.397 . S
C157 C158 1.385 . S
C158 H141 0.940 . S
C158 C157 1.385 . S
C158 C159 1.388 . S
C159 H138 0.939 . S
C159 C154 1.391 . S
C159 C158 1.388 . S
P160 O171 1.490 . S
P160 C174 1.812 . S
P160 C180 1.803 . S
P160 C186 1.819 . S
H161 C175 0.941 . S
H162 C176 0.939 . S
H163 C178 0.940 . S
H164 C179 0.940 . S
H165 C181 0.939 . S
H166 C182 0.942 . S
H167 C184 0.940 . S
H168 C185 0.939 . S
H169 C187 0.941 . S
H170 C191 0.939 . S
O171 P160 1.490 . S
H172 C188 0.939 . S
H173 C190 0.940 . S
C174 P160 1.812 . S
C174 C175 1.389 . S
C174 C179 1.391 . S
C175 H161 0.941 . S
C175 C174 1.389 . S
C175 C176 1.397 . S
C176 H162 0.939 . S
C176 C175 1.397 . S
C176 C177 1.378 . S
C177 C176 1.378 . S
C177 C178 1.378 . S
C178 H163 0.940 . S
C178 C177 1.378 . S
C178 C179 1.396 . S
C179 H164 0.940 . S
C179 C174 1.391 . S
C179 C178 1.396 . S
C180 P160 1.803 . S
C180 C181 1.378 . S
C180 C185 1.400 . S
C181 H165 0.939 . S
C181 C180 1.378 . S
C181 C182 1.361 . S
C182 H166 0.942 . S
C182 C181 1.361 . S
C182 C183 1.369 . S
C183 C182 1.369 . S
C183 C184 1.404 . S
C184 H167 0.940 . S
C184 C183 1.404 . S
C184 C185 1.389 . S
C185 H168 0.939 . S
C185 C180 1.400 . S
C185 C184 1.389 . S
C186 P160 1.819 . S
C186 C187 1.391 . S
C186 C191 1.391 . S
C187 H169 0.941 . S
C187 C186 1.391 . S
C187 C188 1.396 . S
C188 H172 0.939 . S
C188 C187 1.396 . S
C188 C189 1.397 . S
C189 C188 1.397 . S
C189 C190 1.385 . S
C190 H173 0.940 . S
C190 C189 1.385 . S
C190 C191 1.388 . S
C191 H170 0.939 . S
C191 C186 1.391 . S
C191 C190 1.388 . S
P192 O203 1.490 . S
P192 C206 1.812 . S
P192 C212 1.803 . S
P192 C218 1.819 . S
H193 C207 0.941 . S
H194 C208 0.939 . S
H195 C210 0.940 . S
H196 C211 0.940 . S
H197 C213 0.939 . S
H198 C214 0.942 . S
H199 C216 0.940 . S
H200 C217 0.939 . S
H201 C219 0.941 . S
H202 C223 0.939 . S
O203 P192 1.490 . S
H204 C220 0.939 . S
H205 C222 0.940 . S
C206 P192 1.812 . S
C206 C207 1.389 . S
C206 C211 1.391 . S
C207 H193 0.941 . S
C207 C206 1.389 . S
C207 C208 1.397 . S
C208 H194 0.939 . S
C208 C207 1.397 . S
C208 C209 1.378 . S
C209 C208 1.378 . S
C209 C210 1.378 . S
C210 H195 0.940 . S
C210 C209 1.378 . S
C210 C211 1.396 . S
C211 H196 0.940 . S
C211 C206 1.391 . S
C211 C210 1.396 . S
C212 P192 1.803 . S
C212 C213 1.378 . S
C212 C217 1.400 . S
C213 H197 0.939 . S
C213 C212 1.378 . S
C213 C214 1.361 . S
C214 H198 0.942 . S
C214 C213 1.361 . S
C214 C215 1.369 . S
C215 C214 1.369 . S
C215 C216 1.404 . S
C216 H199 0.940 . S
C216 C215 1.404 . S
C216 C217 1.389 . S
C217 H200 0.939 . S
C217 C212 1.400 . S
C217 C216 1.389 . S
C218 P192 1.819 . S
C218 C219 1.391 . S
C218 C223 1.391 . S
C219 H201 0.941 . S
C219 C218 1.391 . S
C219 C220 1.396 . S
C220 H204 0.939 . S
C220 C219 1.396 . S
C220 C221 1.397 . S
C221 C220 1.397 . S
C221 C222 1.385 . S
C222 H205 0.940 . S
C222 C221 1.385 . S
C222 C223 1.388 . S
C223 H202 0.939 . S
C223 C218 1.391 . S
C223 C222 1.388 . S
P224 O235 1.490 . S
P224 C238 1.812 . S
P224 C244 1.803 . S
P224 C250 1.819 . S
H225 C239 0.941 . S
H226 C240 0.939 . S
H227 C242 0.940 . S
H228 C243 0.940 . S
H229 C245 0.939 . S
H230 C246 0.942 . S
H231 C248 0.940 . S
H232 C249 0.939 . S
H233 C251 0.941 . S
H234 C255 0.939 . S
O235 P224 1.490 . S
H236 C252 0.939 . S
H237 C254 0.940 . S
C238 P224 1.812 . S
C238 C239 1.389 . S
C238 C243 1.391 . S
C239 H225 0.941 . S
C239 C238 1.389 . S
C239 C240 1.397 . S
C240 H226 0.939 . S
C240 C239 1.397 . S
C240 C241 1.378 . S
C241 C240 1.378 . S
C241 C242 1.378 . S
C242 H227 0.940 . S
C242 C241 1.378 . S
C242 C243 1.396 . S
C243 H228 0.940 . S
C243 C238 1.391 . S
C243 C242 1.396 . S
C244 P224 1.803 . S
C244 C245 1.378 . S
C244 C249 1.400 . S
C245 H229 0.939 . S
C245 C244 1.378 . S
C245 C246 1.361 . S
C246 H230 0.942 . S
C246 C245 1.361 . S
C246 C247 1.369 . S
C247 C246 1.369 . S
C247 C248 1.404 . S
C248 H231 0.940 . S
C248 C247 1.404 . S
C248 C249 1.389 . S
C249 H232 0.939 . S
C249 C244 1.400 . S
C249 C248 1.389 . S
C250 P224 1.819 . S
C250 C251 1.391 . S
C250 C255 1.391 . S
C251 H233 0.941 . S
C251 C250 1.391 . S
C251 C252 1.396 . S
C252 H236 0.939 . S
C252 C251 1.396 . S
C252 C253 1.397 . S
C253 C252 1.397 . S
C253 C254 1.385 . S
C254 H237 0.940 . S
C254 C253 1.385 . S
C254 C255 1.388 . S
C255 H234 0.939 . S
C255 C250 1.391 . S
C255 C254 1.388 . S
P256 O267 1.490 . S
P256 C270 1.812 . S
P256 C276 1.803 . S
P256 C282 1.819 . S
H257 C271 0.941 . S
H258 C272 0.939 . S
H259 C274 0.940 . S
H260 C275 0.940 . S
H261 C277 0.939 . S
H262 C278 0.942 . S
H263 C280 0.940 . S
H264 C281 0.939 . S
H265 C283 0.941 . S
H266 C287 0.939 . S
O267 P256 1.490 . S
H268 C284 0.939 . S
H269 C286 0.940 . S
C270 P256 1.812 . S
C270 C271 1.389 . S
C270 C275 1.391 . S
C271 H257 0.941 . S
C271 C270 1.389 . S
C271 C272 1.397 . S
C272 H258 0.939 . S
C272 C271 1.397 . S
C272 C273 1.378 . S
C273 C272 1.378 . S
C273 C274 1.378 . S
C274 H259 0.940 . S
C274 C273 1.378 . S
C274 C275 1.396 . S
C275 H260 0.940 . S
C275 C270 1.391 . S
C275 C274 1.396 . S
C276 P256 1.803 . S
C276 C277 1.378 . S
C276 C281 1.400 . S
C277 H261 0.939 . S
C277 C276 1.378 . S
C277 C278 1.361 . S
C278 H262 0.942 . S
C278 C277 1.361 . S
C278 C279 1.369 . S
C279 C278 1.369 . S
C279 C280 1.404 . S
C280 H263 0.940 . S
C280 C279 1.404 . S
C280 C281 1.389 . S
C281 H264 0.939 . S
C281 C276 1.400 . S
C281 C280 1.389 . S
C282 P256 1.819 . S
C282 C283 1.391 . S
C282 C287 1.391 . S
C283 H265 0.941 . S
C283 C282 1.391 . S
C283 C284 1.396 . S
C284 H268 0.939 . S
C284 C283 1.396 . S
C284 C285 1.397 . S
C285 C284 1.397 . S
C285 C286 1.385 . S
C286 H269 0.940 . S
C286 C285 1.385 . S
C286 C287 1.388 . S
C287 H266 0.939 . S
C287 C282 1.391 . S
C287 C286 1.388 . S
P288 O299 1.490 . S
P288 C302 1.812 . S
P288 C308 1.803 . S
P288 C314 1.819 . S
H289 C303 0.941 . S
H290 C304 0.939 . S
H291 C306 0.940 . S
H292 C307 0.940 . S
H293 C309 0.939 . S
H294 C310 0.942 . S
H295 C312 0.940 . S
H296 C313 0.939 . S
H297 C315 0.941 . S
H298 C319 0.939 . S
O299 P288 1.490 . S
H300 C316 0.939 . S
H301 C318 0.940 . S
C302 P288 1.812 . S
C302 C303 1.389 . S
C302 C307 1.391 . S
C303 H289 0.941 . S
C303 C302 1.389 . S
C303 C304 1.397 . S
C304 H290 0.939 . S
C304 C303 1.397 . S
C304 C305 1.378 . S
C305 C304 1.378 . S
C305 C306 1.378 . S
C306 H291 0.940 . S
C306 C305 1.378 . S
C306 C307 1.396 . S
C307 H292 0.940 . S
C307 C302 1.391 . S
C307 C306 1.396 . S
C308 P288 1.803 . S
C308 C309 1.378 . S
C308 C313 1.400 . S
C309 H293 0.939 . S
C309 C308 1.378 . S
C309 C310 1.361 . S
C310 H294 0.942 . S
C310 C309 1.361 . S
C310 C311 1.369 . S
C311 C310 1.369 . S
C311 C312 1.404 . S
C312 H295 0.940 . S
C312 C311 1.404 . S
C312 C313 1.389 . S
C313 H296 0.939 . S
C313 C308 1.400 . S
C313 C312 1.389 . S
C314 P288 1.819 . S
C314 C315 1.391 . S
C314 C319 1.391 . S
C315 H297 0.941 . S
C315 C314 1.391 . S
C315 C316 1.396 . S
C316 H300 0.939 . S
C316 C315 1.396 . S
C316 C317 1.397 . S
C317 C316 1.397 . S
C317 C318 1.385 . S
C318 H301 0.940 . S
C318 C317 1.385 . S
C318 C319 1.388 . S
C319 H298 0.939 . S
C319 C314 1.391 . S
C319 C318 1.388 . S
P320 O331 1.490 . S
P320 C334 1.812 . S
P320 C340 1.803 . S
P320 C346 1.819 . S
H321 C335 0.941 . S
H322 C336 0.939 . S
H323 C338 0.940 . S
H324 C339 0.940 . S
H325 C341 0.939 . S
H326 C342 0.942 . S
H327 C344 0.940 . S
H328 C345 0.939 . S
H329 C347 0.941 . S
H330 C351 0.939 . S
O331 P320 1.490 . S
H332 C348 0.939 . S
H333 C350 0.940 . S
C334 P320 1.812 . S
C334 C335 1.389 . S
C334 C339 1.391 . S
C335 H321 0.941 . S
C335 C334 1.389 . S
C335 C336 1.397 . S
C336 H322 0.939 . S
C336 C335 1.397 . S
C336 C337 1.378 . S
C337 C336 1.378 . S
C337 C338 1.378 . S
C338 H323 0.940 . S
C338 C337 1.378 . S
C338 C339 1.396 . S
C339 H324 0.940 . S
C339 C334 1.391 . S
C339 C338 1.396 . S
C340 P320 1.803 . S
C340 C341 1.378 . S
C340 C345 1.400 . S
C341 H325 0.939 . S
C341 C340 1.378 . S
C341 C342 1.361 . S
C342 H326 0.942 . S
C342 C341 1.361 . S
C342 C343 1.369 . S
C343 C342 1.369 . S
C343 C344 1.404 . S
C344 H327 0.940 . S
C344 C343 1.404 . S
C344 C345 1.389 . S
C345 H328 0.939 . S
C345 C340 1.400 . S
C345 C344 1.389 . S
C346 P320 1.819 . S
C346 C347 1.391 . S
C346 C351 1.391 . S
C347 H329 0.941 . S
C347 C346 1.391 . S
C347 C348 1.396 . S
C348 H332 0.939 . S
C348 C347 1.396 . S
C348 C349 1.397 . S
C349 C348 1.397 . S
C349 C350 1.385 . S
C350 H333 0.940 . S
C350 C349 1.385 . S
C350 C351 1.388 . S
C351 H330 0.939 . S
C351 C346 1.391 . S
C351 C350 1.388 . S
P352 O363 1.490 . S
P352 C366 1.812 . S
P352 C372 1.803 . S
P352 C378 1.819 . S
H353 C367 0.941 . S
H354 C368 0.939 . S
H355 C370 0.940 . S
H356 C371 0.940 . S
H357 C373 0.939 . S
H358 C374 0.942 . S
H359 C376 0.940 . S
H360 C377 0.939 . S
H361 C379 0.941 . S
H362 C383 0.939 . S
O363 P352 1.490 . S
H364 C380 0.939 . S
H365 C382 0.940 . S
C366 P352 1.812 . S
C366 C367 1.389 . S
C366 C371 1.391 . S
C367 H353 0.941 . S
C367 C366 1.389 . S
C367 C368 1.397 . S
C368 H354 0.939 . S
C368 C367 1.397 . S
C368 C369 1.378 . S
C369 C368 1.378 . S
C369 C370 1.378 . S
C370 H355 0.940 . S
C370 C369 1.378 . S
C370 C371 1.396 . S
C371 H356 0.940 . S
C371 C366 1.391 . S
C371 C370 1.396 . S
C372 P352 1.803 . S
C372 C373 1.378 . S
C372 C377 1.400 . S
C373 H357 0.939 . S
C373 C372 1.378 . S
C373 C374 1.361 . S
C374 H358 0.942 . S
C374 C373 1.361 . S
C374 C375 1.369 . S
C375 C374 1.369 . S
C375 C376 1.404 . S
C376 H359 0.940 . S
C376 C375 1.404 . S
C376 C377 1.389 . S
C377 H360 0.939 . S
C377 C372 1.400 . S
C377 C376 1.389 . S
C378 P352 1.819 . S
C378 C379 1.391 . S
C378 C383 1.391 . S
C379 H361 0.941 . S
C379 C378 1.391 . S
C379 C380 1.396 . S
C380 H364 0.939 . S
C380 C379 1.396 . S
C380 C381 1.397 . S
C381 C380 1.397 . S
C381 C382 1.385 . S
C382 H365 0.940 . S
C382 C381 1.385 . S
C382 C383 1.388 . S
C383 H362 0.939 . S
C383 C378 1.391 . S
C383 C382 1.388 . S
P384 O395 1.490 . S
P384 C398 1.812 . S
P384 C404 1.803 . S
P384 C410 1.819 . S
H385 C399 0.941 . S
H386 C400 0.939 . S
H387 C402 0.940 . S
H388 C403 0.940 . S
H389 C405 0.939 . S
H390 C406 0.942 . S
H391 C408 0.940 . S
H392 C409 0.939 . S
H393 C411 0.941 . S
H394 C415 0.939 . S
O395 P384 1.490 . S
H396 C412 0.939 . S
H397 C414 0.940 . S
C398 P384 1.812 . S
C398 C399 1.389 . S
C398 C403 1.391 . S
C399 H385 0.941 . S
C399 C398 1.389 . S
C399 C400 1.397 . S
C400 H386 0.939 . S
C400 C399 1.397 . S
C400 C401 1.378 . S
C401 C400 1.378 . S
C401 C402 1.378 . S
C402 H387 0.940 . S
C402 C401 1.378 . S
C402 C403 1.396 . S
C403 H388 0.940 . S
C403 C398 1.391 . S
C403 C402 1.396 . S
C404 P384 1.803 . S
C404 C405 1.378 . S
C404 C409 1.400 . S
C405 H389 0.939 . S
C405 C404 1.378 . S
C405 C406 1.361 . S
C406 H390 0.942 . S
C406 C405 1.361 . S
C406 C407 1.369 . S
C407 C406 1.369 . S
C407 C408 1.404 . S
C408 H391 0.940 . S
C408 C407 1.404 . S
C408 C409 1.389 . S
C409 H392 0.939 . S
C409 C404 1.400 . S
C409 C408 1.389 . S
C410 P384 1.819 . S
C410 C411 1.391 . S
C410 C415 1.391 . S
C411 H393 0.941 . S
C411 C410 1.391 . S
C411 C412 1.396 . S
C412 H396 0.939 . S
C412 C411 1.396 . S
C412 C413 1.397 . S
C413 C412 1.397 . S
C413 C414 1.385 . S
C414 H397 0.940 . S
C414 C413 1.385 . S
C414 C415 1.388 . S
C415 H394 0.939 . S
C415 C410 1.391 . S
C415 C414 1.388 . S
P416 O427 1.490 . S
P416 C430 1.812 . S
P416 C436 1.803 . S
P416 C442 1.819 . S
H417 C431 0.941 . S
H418 C432 0.939 . S
H419 C434 0.940 . S
H420 C435 0.940 . S
H421 C437 0.939 . S
H422 C438 0.942 . S
H423 C440 0.940 . S
H424 C441 0.939 . S
H425 C443 0.941 . S
H426 C447 0.939 . S
O427 P416 1.490 . S
H428 C444 0.939 . S
H429 C446 0.940 . S
C430 P416 1.812 . S
C430 C431 1.389 . S
C430 C435 1.391 . S
C431 H417 0.941 . S
C431 C430 1.389 . S
C431 C432 1.397 . S
C432 H418 0.939 . S
C432 C431 1.397 . S
C432 C433 1.378 . S
C433 C432 1.378 . S
C433 C434 1.378 . S
C434 H419 0.940 . S
C434 C433 1.378 . S
C434 C435 1.396 . S
C435 H420 0.940 . S
C435 C430 1.391 . S
C435 C434 1.396 . S
C436 P416 1.803 . S
C436 C437 1.378 . S
C436 C441 1.400 . S
C437 H421 0.939 . S
C437 C436 1.378 . S
C437 C438 1.361 . S
C438 H422 0.942 . S
C438 C437 1.361 . S
C438 C439 1.369 . S
C439 C438 1.369 . S
C439 C440 1.404 . S
C440 H423 0.940 . S
C440 C439 1.404 . S
C440 C441 1.389 . S
C441 H424 0.939 . S
C441 C436 1.400 . S
C441 C440 1.389 . S
C442 P416 1.819 . S
C442 C443 1.391 . S
C442 C447 1.391 . S
C443 H425 0.941 . S
C443 C442 1.391 . S
C443 C444 1.396 . S
C444 H428 0.939 . S
C444 C443 1.396 . S
C444 C445 1.397 . S
C445 C444 1.397 . S
C445 C446 1.385 . S
C446 H429 0.940 . S
C446 C445 1.385 . S
C446 C447 1.388 . S
C447 H426 0.939 . S
C447 C442 1.391 . S
C447 C446 1.388 . S
P448 O459 1.490 . S
P448 C462 1.812 . S
P448 C468 1.803 . S
P448 C474 1.819 . S
H449 C463 0.941 . S
H450 C464 0.939 . S
H451 C466 0.940 . S
H452 C467 0.940 . S
H453 C469 0.939 . S
H454 C470 0.942 . S
H455 C472 0.940 . S
H456 C473 0.939 . S
H457 C475 0.941 . S
H458 C479 0.939 . S
O459 P448 1.490 . S
H460 C476 0.939 . S
H461 C478 0.940 . S
C462 P448 1.812 . S
C462 C463 1.389 . S
C462 C467 1.391 . S
C463 H449 0.941 . S
C463 C462 1.389 . S
C463 C464 1.397 . S
C464 H450 0.939 . S
C464 C463 1.397 . S
C464 C465 1.378 . S
C465 C464 1.378 . S
C465 C466 1.378 . S
C466 H451 0.940 . S
C466 C465 1.378 . S
C466 C467 1.396 . S
C467 H452 0.940 . S
C467 C462 1.391 . S
C467 C466 1.396 . S
C468 P448 1.803 . S
C468 C469 1.378 . S
C468 C473 1.400 . S
C469 H453 0.939 . S
C469 C468 1.378 . S
C469 C470 1.361 . S
C470 H454 0.942 . S
C470 C469 1.361 . S
C470 C471 1.369 . S
C471 C470 1.369 . S
C471 C472 1.404 . S
C472 H455 0.940 . S
C472 C471 1.404 . S
C472 C473 1.389 . S
C473 H456 0.939 . S
C473 C468 1.400 . S
C473 C472 1.389 . S
C474 P448 1.819 . S
C474 C475 1.391 . S
C474 C479 1.391 . S
C475 H457 0.941 . S
C475 C474 1.391 . S
C475 C476 1.396 . S
C476 H460 0.939 . S
C476 C475 1.396 . S
C476 C477 1.397 . S
C477 C476 1.397 . S
C477 C478 1.385 . S
C478 H461 0.940 . S
C478 C477 1.385 . S
C478 C479 1.388 . S
C479 H458 0.939 . S
C479 C474 1.391 . S
C479 C478 1.388 . S
P480 O491 1.490 . S
P480 C494 1.812 . S
P480 C500 1.803 . S
P480 C506 1.819 . S
H481 C495 0.941 . S
H482 C496 0.939 . S
H483 C498 0.940 . S
H484 C499 0.940 . S
H485 C501 0.939 . S
H486 C502 0.942 . S
H487 C504 0.940 . S
H488 C505 0.939 . S
H489 C507 0.941 . S
H490 C511 0.939 . S
O491 P480 1.490 . S
H492 C508 0.939 . S
H493 C510 0.940 . S
C494 P480 1.812 . S
C494 C495 1.389 . S
C494 C499 1.391 . S
C495 H481 0.941 . S
C495 C494 1.389 . S
C495 C496 1.397 . S
C496 H482 0.939 . S
C496 C495 1.397 . S
C496 C497 1.378 . S
C497 C496 1.378 . S
C497 C498 1.378 . S
C498 H483 0.940 . S
C498 C497 1.378 . S
C498 C499 1.396 . S
C499 H484 0.940 . S
C499 C494 1.391 . S
C499 C498 1.396 . S
C500 P480 1.803 . S
C500 C501 1.378 . S
C500 C505 1.400 . S
C501 H485 0.939 . S
C501 C500 1.378 . S
C501 C502 1.361 . S
C502 H486 0.942 . S
C502 C501 1.361 . S
C502 C503 1.369 . S
C503 C502 1.369 . S
C503 C504 1.404 . S
C504 H487 0.940 . S
C504 C503 1.404 . S
C504 C505 1.389 . S
C505 H488 0.939 . S
C505 C500 1.400 . S
C505 C504 1.389 . S
C506 P480 1.819 . S
C506 C507 1.391 . S
C506 C511 1.391 . S
C507 H489 0.941 . S
C507 C506 1.391 . S
C507 C508 1.396 . S
C508 H492 0.939 . S
C508 C507 1.396 . S
C508 C509 1.397 . S
C509 C508 1.397 . S
C509 C510 1.385 . S
C510 H493 0.940 . S
C510 C509 1.385 . S
C510 C511 1.388 . S
C511 H490 0.939 . S
C511 C506 1.391 . S
C511 C510 1.388 . S
P512 O523 1.490 . S
P512 C526 1.812 . S
P512 C532 1.803 . S
P512 C538 1.819 . S
H513 C527 0.941 . S
H514 C528 0.939 . S
H515 C530 0.940 . S
H516 C531 0.940 . S
H517 C533 0.939 . S
H518 C534 0.942 . S
H519 C536 0.940 . S
H520 C537 0.939 . S
H521 C539 0.941 . S
H522 C543 0.939 . S
O523 P512 1.490 . S
H524 C540 0.939 . S
H525 C542 0.940 . S
C526 P512 1.812 . S
C526 C527 1.389 . S
C526 C531 1.391 . S
C527 H513 0.941 . S
C527 C526 1.389 . S
C527 C528 1.397 . S
C528 H514 0.939 . S
C528 C527 1.397 . S
C528 C529 1.378 . S
C529 C528 1.378 . S
C529 C530 1.378 . S
C530 H515 0.940 . S
C530 C529 1.378 . S
C530 C531 1.396 . S
C531 H516 0.940 . S
C531 C526 1.391 . S
C531 C530 1.396 . S
C532 P512 1.803 . S
C532 C533 1.378 . S
C532 C537 1.400 . S
C533 H517 0.939 . S
C533 C532 1.378 . S
C533 C534 1.361 . S
C534 H518 0.942 . S
C534 C533 1.361 . S
C534 C535 1.369 . S
C535 C534 1.369 . S
C535 C536 1.404 . S
C536 H519 0.940 . S
C536 C535 1.404 . S
C536 C537 1.389 . S
C537 H520 0.939 . S
C537 C532 1.400 . S
C537 C536 1.389 . S
C538 P512 1.819 . S
C538 C539 1.391 . S
C538 C543 1.391 . S
C539 H521 0.941 . S
C539 C538 1.391 . S
C539 C540 1.396 . S
C540 H524 0.939 . S
C540 C539 1.396 . S
C540 C541 1.397 . S
C541 C540 1.397 . S
C541 C542 1.385 . S
C542 H525 0.940 . S
C542 C541 1.385 . S
C542 C543 1.388 . S
C543 H522 0.939 . S
C543 C538 1.391 . S
C543 C542 1.388 . S
P544 O555 1.490 . S
P544 C558 1.812 . S
P544 C564 1.803 . S
P544 C570 1.819 . S
H545 C559 0.941 . S
H546 C560 0.939 . S
H547 C562 0.940 . S
H548 C563 0.940 . S
H549 C565 0.939 . S
H550 C566 0.942 . S
H551 C568 0.940 . S
H552 C569 0.939 . S
H553 C571 0.941 . S
H554 C575 0.939 . S
O555 P544 1.490 . S
H556 C572 0.939 . S
H557 C574 0.940 . S
C558 P544 1.812 . S
C558 C559 1.389 . S
C558 C563 1.391 . S
C559 H545 0.941 . S
C559 C558 1.389 . S
C559 C560 1.397 . S
C560 H546 0.939 . S
C560 C559 1.397 . S
C560 C561 1.378 . S
C561 C560 1.378 . S
C561 C562 1.378 . S
C562 H547 0.940 . S
C562 C561 1.378 . S
C562 C563 1.396 . S
C563 H548 0.940 . S
C563 C558 1.391 . S
C563 C562 1.396 . S
C564 P544 1.803 . S
C564 C565 1.378 . S
C564 C569 1.400 . S
C565 H549 0.939 . S
C565 C564 1.378 . S
C565 C566 1.361 . S
C566 H550 0.942 . S
C566 C565 1.361 . S
C566 C567 1.369 . S
C567 C566 1.369 . S
C567 C568 1.404 . S
C568 H551 0.940 . S
C568 C567 1.404 . S
C568 C569 1.389 . S
C569 H552 0.939 . S
C569 C564 1.400 . S
C569 C568 1.389 . S
C570 P544 1.819 . S
C570 C571 1.391 . S
C570 C575 1.391 . S
C571 H553 0.941 . S
C571 C570 1.391 . S
C571 C572 1.396 . S
C572 H556 0.939 . S
C572 C571 1.396 . S
C572 C573 1.397 . S
C573 C572 1.397 . S
C573 C574 1.385 . S
C574 H557 0.940 . S
C574 C573 1.385 . S
C574 C575 1.388 . S
C575 H554 0.939 . S
C575 C570 1.391 . S
C575 C574 1.388 . S
Eu576 N607 2.657 . S
Eu576 N614 2.609 . S
Eu576 O620 2.558 . S
Eu576 O621 2.612 1_565 S
Eu576 O623 2.339 1_565 S
Eu576 O624 2.563 1_565 S
Eu576 O625 2.419 . S
Eu576 O627 2.380 1_556 S
Eu576 O628 2.432 . S
Eu576 C640 2.848 . S
C577 C580 1.429 . S
C577 C581 1.411 . S
C577 N584 1.377 . S
C578 C580 1.420 . S
C578 C582 1.423 . S
C578 C590 1.392 . S
C579 C581 1.420 . S
C579 C582 1.351 . S
C579 H602 0.931 . S
C580 C577 1.429 . S
C580 C578 1.420 . S
C580 N588 1.362 . S
C581 C577 1.411 . S
C581 C579 1.420 . S
C581 C586 1.395 . S
C582 C578 1.423 . S
C582 C579 1.351 . S
C582 H594 0.930 . S
C583 C585 1.400 . S
C583 C586 1.386 . S
C583 H595 0.930 . S
N584 C577 1.377 . S
N584 C585 1.321 . S
N584 Eu587 2.609 . S
C585 C583 1.400 . S
C585 N584 1.321 . S
C585 H592 0.930 . S
C586 C581 1.395 . S
C586 C583 1.386 . S
C586 H605 0.930 . S
Eu587 N584 2.609 . S
Eu587 N588 2.657 . S
Eu587 O621 2.380 1_554 S
Eu587 O622 2.432 . S
Eu587 O626 2.558 . S
Eu587 O627 2.612 1_545 S
Eu587 O629 2.339 1_545 S
Eu587 O630 2.563 1_545 S
Eu587 O631 2.419 . S
Eu587 C651 2.848 . S
N588 C580 1.362 . S
N588 Eu587 2.657 . S
N588 C589 1.334 . S
C589 N588 1.334 . S
C589 C591 1.413 . S
C589 H596 0.929 . S
C590 C578 1.392 . S
C590 C591 1.367 . S
C590 H598 0.930 . S
C591 C589 1.413 . S
C591 C590 1.367 . S
C591 H593 0.930 . S
H592 C585 0.930 . S
H593 C591 0.930 . S
H594 C582 0.930 . S
H595 C583 0.930 . S
H596 C589 0.929 . S
H597 C611 0.930 . S
H598 C590 0.930 . S
H599 C617 0.930 . S
H600 C608 0.929 . S
H601 C615 0.930 . S
H602 C579 0.931 . S
H603 C609 0.930 . S
H604 C642 0.930 . S
H605 C586 0.930 . S
H606 C641 0.931 . S
N607 Eu576 2.657 . S
N607 C608 1.334 . S
N607 C612 1.362 . S
C608 H600 0.929 . S
C608 N607 1.334 . S
C608 C611 1.413 . S
C609 H603 0.930 . S
C609 C610 1.392 . S
C609 C611 1.367 . S
C610 C609 1.392 . S
C610 C612 1.420 . S
C610 C642 1.423 . S
C611 H597 0.930 . S
C611 C608 1.413 . S
C611 C609 1.367 . S
C612 N607 1.362 . S
C612 C610 1.420 . S
C612 C616 1.429 . S
H613 C618 0.930 . S
N614 Eu576 2.609 . S
N614 C616 1.377 . S
N614 C617 1.321 . S
C615 H601 0.930 . S
C615 C617 1.400 . S
C615 C618 1.386 . S
C616 C612 1.429 . S
C616 N614 1.377 . S
C616 C619 1.411 . S
C617 H599 0.930 . S
C617 N614 1.321 . S
C617 C615 1.400 . S
C618 H613 0.930 . S
C618 C615 1.386 . S
C618 C619 1.395 . S
C619 C616 1.411 . S
C619 C618 1.395 . S
C619 C641 1.420 . S
O620 Eu576 2.558 . S
O620 C640 1.257 . S
O621 Eu576 2.612 1_545 S
O621 Eu587 2.380 1_556 S
O621 C632 1.276 . S
O622 Eu587 2.432 . S
O622 C639 1.264 1_554 S
O623 Eu576 2.339 1_545 S
O623 C639 1.254 . S
O624 Eu576 2.563 1_545 S
O624 C632 1.235 . S
O625 Eu576 2.419 . S
O625 C640 1.249 . S
O626 Eu587 2.558 . S
O626 C651 1.257 . S
O627 Eu576 2.380 1_554 S
O627 Eu587 2.612 1_565 S
O627 C643 1.276 . S
O628 Eu576 2.432 . S
O628 C650 1.264 1_556 S
O629 Eu587 2.339 1_565 S
O629 C650 1.254 . S
O630 Eu587 2.563 1_565 S
O630 C643 1.235 . S
O631 Eu587 2.419 . S
O631 C651 1.249 . S
C632 O621 1.276 . S
C632 O624 1.235 . S
C633 C635 1.393 1_565 S
C633 C637 1.395 . S
C633 C640 1.492 . S
C634 C635 1.392 . S
C634 C636 1.386 1_545 S
C635 C633 1.393 1_545 S
C635 C634 1.392 . S
C635 H652 0.930 . S
C636 C634 1.386 1_565 S
C636 C638 1.395 . S
C636 H653 0.930 . S
C637 C633 1.395 . S
C637 C638 1.379 . S
C637 H654 0.930 . S
C638 C636 1.395 . S
C638 C637 1.379 . S
C638 H655 0.930 . S
C639 O622 1.264 1_556 S
C639 O623 1.254 . S
C640 Eu576 2.848 . S
C640 O620 1.257 . S
C640 O625 1.249 . S
C640 C633 1.492 . S
C641 H606 0.931 . S
C641 C619 1.420 . S
C641 C642 1.351 . S
C642 H604 0.930 . S
C642 C610 1.423 . S
C642 C641 1.351 . S
C643 O627 1.276 . S
C643 O630 1.235 . S
C644 C645 1.393 1_545 S
C644 C648 1.395 . S
C644 C651 1.492 . S
C645 C644 1.393 1_565 S
C645 C646 1.392 . S
C645 H656 0.930 . S
C646 C645 1.392 . S
C646 C647 1.386 1_565 S
C647 C646 1.386 1_545 S
C647 C649 1.395 . S
C647 H657 0.930 . S
C648 C644 1.395 . S
C648 C649 1.379 . S
C648 H658 0.930 . S
C649 C647 1.395 . S
C649 C648 1.379 . S
C649 H659 0.930 . S
C650 O628 1.264 1_554 S
C650 O629 1.254 . S
C651 Eu587 2.848 . S
C651 O626 1.257 . S
C651 O631 1.249 . S
C651 C644 1.492 . S
H652 C635 0.930 . S
H653 C636 0.930 . S
H654 C637 0.930 . S
H655 C638 0.930 . S
H656 C645 0.930 . S
H657 C647 0.930 . S
H658 C648 0.930 . S
H659 C649 0.930 . S
Eu660 N691 2.657 . S
Eu660 N698 2.609 . S
Eu660 O704 2.558 . S
Eu660 O705 2.612 1_455 S
Eu660 O707 2.339 1_455 S
Eu660 O708 2.563 1_455 S
Eu660 O709 2.419 . S
Eu660 O711 2.380 1_556 S
Eu660 O712 2.432 . S
Eu660 C724 2.848 . S
C661 C664 1.429 . S
C661 C665 1.411 . S
C661 N668 1.377 . S
C662 C664 1.420 . S
C662 C666 1.423 . S
C662 C674 1.392 . S
C663 C665 1.420 . S
C663 C666 1.351 . S
C663 H686 0.931 . S
C664 C661 1.429 . S
C664 C662 1.420 . S
C664 N672 1.362 . S
C665 C661 1.411 . S
C665 C663 1.420 . S
C665 C670 1.395 . S
C666 C662 1.423 . S
C666 C663 1.351 . S
C666 H678 0.930 . S
C667 C669 1.400 . S
C667 C670 1.386 . S
C667 H679 0.930 . S
N668 C661 1.377 . S
N668 C669 1.321 . S
N668 Eu671 2.609 . S
C669 C667 1.400 . S
C669 N668 1.321 . S
C669 H676 0.930 . S
C670 C665 1.395 . S
C670 C667 1.386 . S
C670 H689 0.930 . S
Eu671 N668 2.609 . S
Eu671 N672 2.657 . S
Eu671 O705 2.380 1_554 S
Eu671 O706 2.432 . S
Eu671 O710 2.558 . S
Eu671 O711 2.612 1_655 S
Eu671 O713 2.339 1_655 S
Eu671 O714 2.563 1_655 S
Eu671 O715 2.419 . S
Eu671 C735 2.848 . S
N672 C664 1.362 . S
N672 Eu671 2.657 . S
N672 C673 1.334 . S
C673 N672 1.334 . S
C673 C675 1.413 . S
C673 H680 0.929 . S
C674 C662 1.392 . S
C674 C675 1.367 . S
C674 H682 0.930 . S
C675 C673 1.413 . S
C675 C674 1.367 . S
C675 H677 0.930 . S
H676 C669 0.930 . S
H677 C675 0.930 . S
H678 C666 0.930 . S
H679 C667 0.930 . S
H680 C673 0.929 . S
H681 C695 0.930 . S
H682 C674 0.930 . S
H683 C701 0.930 . S
H684 C692 0.929 . S
H685 C699 0.930 . S
H686 C663 0.931 . S
H687 C693 0.930 . S
H688 C726 0.930 . S
H689 C670 0.930 . S
H690 C725 0.931 . S
N691 Eu660 2.657 . S
N691 C692 1.334 . S
N691 C696 1.362 . S
C692 H684 0.929 . S
C692 N691 1.334 . S
C692 C695 1.413 . S
C693 H687 0.930 . S
C693 C694 1.392 . S
C693 C695 1.367 . S
C694 C693 1.392 . S
C694 C696 1.420 . S
C694 C726 1.423 . S
C695 H681 0.930 . S
C695 C692 1.413 . S
C695 C693 1.367 . S
C696 N691 1.362 . S
C696 C694 1.420 . S
C696 C700 1.429 . S
H697 C702 0.930 . S
N698 Eu660 2.609 . S
N698 C700 1.377 . S
N698 C701 1.321 . S
C699 H685 0.930 . S
C699 C701 1.400 . S
C699 C702 1.386 . S
C700 C696 1.429 . S
C700 N698 1.377 . S
C700 C703 1.411 . S
C701 H683 0.930 . S
C701 N698 1.321 . S
C701 C699 1.400 . S
C702 H697 0.930 . S
C702 C699 1.386 . S
C702 C703 1.395 . S
C703 C700 1.411 . S
C703 C702 1.395 . S
C703 C725 1.420 . S
O704 Eu660 2.558 . S
O704 C724 1.257 . S
O705 Eu660 2.612 1_655 S
O705 Eu671 2.380 1_556 S
O705 C716 1.276 . S
O706 Eu671 2.432 . S
O706 C723 1.264 1_554 S
O707 Eu660 2.339 1_655 S
O707 C723 1.254 . S
O708 Eu660 2.563 1_655 S
O708 C716 1.235 . S
O709 Eu660 2.419 . S
O709 C724 1.249 . S
O710 Eu671 2.558 . S
O710 C735 1.257 . S
O711 Eu660 2.380 1_554 S
O711 Eu671 2.612 1_455 S
O711 C727 1.276 . S
O712 Eu660 2.432 . S
O712 C734 1.264 1_556 S
O713 Eu671 2.339 1_455 S
O713 C734 1.254 . S
O714 Eu671 2.563 1_455 S
O714 C727 1.235 . S
O715 Eu671 2.419 . S
O715 C735 1.249 . S
C716 O705 1.276 . S
C716 O708 1.235 . S
C717 C719 1.393 1_455 S
C717 C721 1.395 . S
C717 C724 1.492 . S
C718 C719 1.392 . S
C718 C720 1.386 1_655 S
C719 C717 1.393 1_655 S
C719 C718 1.392 . S
C719 H736 0.930 . S
C720 C718 1.386 1_455 S
C720 C722 1.395 . S
C720 H737 0.930 . S
C721 C717 1.395 . S
C721 C722 1.379 . S
C721 H738 0.930 . S
C722 C720 1.395 . S
C722 C721 1.379 . S
C722 H739 0.930 . S
C723 O706 1.264 1_556 S
C723 O707 1.254 . S
C724 Eu660 2.848 . S
C724 O704 1.257 . S
C724 O709 1.249 . S
C724 C717 1.492 . S
C725 H690 0.931 . S
C725 C703 1.420 . S
C725 C726 1.351 . S
C726 H688 0.930 . S
C726 C694 1.423 . S
C726 C725 1.351 . S
C727 O711 1.276 . S
C727 O714 1.235 . S
C728 C729 1.393 1_655 S
C728 C732 1.395 . S
C728 C735 1.492 . S
C729 C728 1.393 1_455 S
C729 C730 1.392 . S
C729 H740 0.930 . S
C730 C729 1.392 . S
C730 C731 1.386 1_455 S
C731 C730 1.386 1_655 S
C731 C733 1.395 . S
C731 H741 0.930 . S
C732 C728 1.395 . S
C732 C733 1.379 . S
C732 H742 0.930 . S
C733 C731 1.395 . S
C733 C732 1.379 . S
C733 H743 0.930 . S
C734 O712 1.264 1_554 S
C734 O713 1.254 . S
C735 Eu671 2.848 . S
C735 O710 1.257 . S
C735 O715 1.249 . S
C735 C728 1.492 . S
H736 C719 0.930 . S
H737 C720 0.930 . S
H738 C721 0.930 . S
H739 C722 0.930 . S
H740 C729 0.930 . S
H741 C731 0.930 . S
H742 C732 0.930 . S
H743 C733 0.930 . S
Eu744 N775 2.657 . S
Eu744 N782 2.609 . S
Eu744 O788 2.558 . S
Eu744 O789 2.612 . S
Eu744 O791 2.339 . S
Eu744 O792 2.563 . S
Eu744 O793 2.419 . S
Eu744 O795 2.380 1_554 S
Eu744 O796 2.432 . S
Eu744 C808 2.848 . S
C745 C748 1.429 . S
C745 C749 1.411 . S
C745 N752 1.377 . S
C746 C748 1.420 . S
C746 C750 1.423 . S
C746 C758 1.392 . S
C747 C749 1.420 . S
C747 C750 1.351 . S
C747 H770 0.931 . S
C748 C745 1.429 . S
C748 C746 1.420 . S
C748 N756 1.362 . S
C749 C745 1.411 . S
C749 C747 1.420 . S
C749 C754 1.395 . S
C750 C746 1.423 . S
C750 C747 1.351 . S
C750 H762 0.930 . S
C751 C753 1.400 . S
C751 C754 1.386 . S
C751 H763 0.930 . S
N752 C745 1.377 . S
N752 C753 1.321 . S
N752 Eu755 2.609 . S
C753 C751 1.400 . S
C753 N752 1.321 . S
C753 H760 0.930 . S
C754 C749 1.395 . S
C754 C751 1.386 . S
C754 H773 0.930 . S
Eu755 N752 2.609 . S
Eu755 N756 2.657 . S
Eu755 O789 2.380 1_556 S
Eu755 O790 2.432 . S
Eu755 O794 2.558 . S
Eu755 O795 2.612 . S
Eu755 O797 2.339 . S
Eu755 O798 2.563 . S
Eu755 O799 2.419 . S
Eu755 C819 2.848 . S
N756 C748 1.362 . S
N756 Eu755 2.657 . S
N756 C757 1.334 . S
C757 N756 1.334 . S
C757 C759 1.413 . S
C757 H764 0.929 . S
C758 C746 1.392 . S
C758 C759 1.367 . S
C758 H766 0.930 . S
C759 C757 1.413 . S
C759 C758 1.367 . S
C759 H761 0.930 . S
H760 C753 0.930 . S
H761 C759 0.930 . S
H762 C750 0.930 . S
H763 C751 0.930 . S
H764 C757 0.929 . S
H765 C779 0.930 . S
H766 C758 0.930 . S
H767 C785 0.930 . S
H768 C776 0.929 . S
H769 C783 0.930 . S
H770 C747 0.931 . S
H771 C777 0.930 . S
H772 C810 0.930 . S
H773 C754 0.930 . S
H774 C809 0.931 . S
N775 Eu744 2.657 . S
N775 C776 1.334 . S
N775 C780 1.362 . S
C776 H768 0.929 . S
C776 N775 1.334 . S
C776 C779 1.413 . S
C777 H771 0.930 . S
C777 C778 1.392 . S
C777 C779 1.367 . S
C778 C777 1.392 . S
C778 C780 1.420 . S
C778 C810 1.423 . S
C779 H765 0.930 . S
C779 C776 1.413 . S
C779 C777 1.367 . S
C780 N775 1.362 . S
C780 C778 1.420 . S
C780 C784 1.429 . S
H781 C786 0.930 . S
N782 Eu744 2.609 . S
N782 C784 1.377 . S
N782 C785 1.321 . S
C783 H769 0.930 . S
C783 C785 1.400 . S
C783 C786 1.386 . S
C784 C780 1.429 . S
C784 N782 1.377 . S
C784 C787 1.411 . S
C785 H767 0.930 . S
C785 N782 1.321 . S
C785 C783 1.400 . S
C786 H781 0.930 . S
C786 C783 1.386 . S
C786 C787 1.395 . S
C787 C784 1.411 . S
C787 C786 1.395 . S
C787 C809 1.420 . S
O788 Eu744 2.558 . S
O788 C808 1.257 . S
O789 Eu744 2.612 . S
O789 Eu755 2.380 1_554 S
O789 C800 1.276 . S
O790 Eu755 2.432 . S
O790 C807 1.264 1_556 S
O791 Eu744 2.339 . S
O791 C807 1.254 . S
O792 Eu744 2.563 . S
O792 C800 1.235 . S
O793 Eu744 2.419 . S
O793 C808 1.249 . S
O794 Eu755 2.558 . S
O794 C819 1.257 . S
O795 Eu744 2.380 1_556 S
O795 Eu755 2.612 . S
O795 C811 1.276 . S
O796 Eu744 2.432 . S
O796 C818 1.264 1_554 S
O797 Eu755 2.339 . S
O797 C818 1.254 . S
O798 Eu755 2.563 . S
O798 C811 1.235 . S
O799 Eu755 2.419 . S
O799 C819 1.249 . S
C800 O789 1.276 . S
C800 O792 1.235 . S
C801 C803 1.393 . S
C801 C805 1.395 . S
C801 C808 1.492 . S
C802 C803 1.392 . S
C802 C804 1.386 . S
C803 C801 1.393 . S
C803 C802 1.392 . S
C803 H820 0.930 . S
C804 C802 1.386 . S
C804 C806 1.395 . S
C804 H821 0.930 . S
C805 C801 1.395 . S
C805 C806 1.379 . S
C805 H822 0.930 . S
C806 C804 1.395 . S
C806 C805 1.379 . S
C806 H823 0.930 . S
C807 O790 1.264 1_554 S
C807 O791 1.254 . S
C808 Eu744 2.848 . S
C808 O788 1.257 . S
C808 O793 1.249 . S
C808 C801 1.492 . S
C809 H774 0.931 . S
C809 C787 1.420 . S
C809 C810 1.351 . S
C810 H772 0.930 . S
C810 C778 1.423 . S
C810 C809 1.351 . S
C811 O795 1.276 . S
C811 O798 1.235 . S
C812 C813 1.393 . S
C812 C816 1.395 . S
C812 C819 1.492 . S
C813 C812 1.393 . S
C813 C814 1.392 . S
C813 H824 0.930 . S
C814 C813 1.392 . S
C814 C815 1.386 . S
C815 C814 1.386 . S
C815 C817 1.395 . S
C815 H825 0.930 . S
C816 C812 1.395 . S
C816 C817 1.379 . S
C816 H826 0.930 . S
C817 C815 1.395 . S
C817 C816 1.379 . S
C817 H827 0.930 . S
C818 O796 1.264 1_556 S
C818 O797 1.254 . S
C819 Eu755 2.848 . S
C819 O794 1.257 . S
C819 O799 1.249 . S
C819 C812 1.492 . S
H820 C803 0.930 . S
H821 C804 0.930 . S
H822 C805 0.930 . S
H823 C806 0.930 . S
H824 C813 0.930 . S
H825 C815 0.930 . S
H826 C816 0.930 . S
H827 C817 0.930 . S
Eu828 N859 2.657 . S
Eu828 N866 2.609 . S
Eu828 O872 2.558 . S
Eu828 O873 2.612 . S
Eu828 O875 2.339 . S
Eu828 O876 2.563 . S
Eu828 O877 2.419 . S
Eu828 O879 2.380 . S
Eu828 O880 2.432 . S
Eu828 C892 2.848 . S
C829 C832 1.429 . S
C829 C833 1.411 . S
C829 N836 1.377 . S
C830 C832 1.420 . S
C830 C834 1.423 . S
C830 C842 1.392 . S
C831 C833 1.420 . S
C831 C834 1.351 . S
C831 H854 0.931 . S
C832 C829 1.429 . S
C832 C830 1.420 . S
C832 N840 1.362 . S
C833 C829 1.411 . S
C833 C831 1.420 . S
C833 C838 1.395 . S
C834 C830 1.423 . S
C834 C831 1.351 . S
C834 H846 0.930 . S
C835 C837 1.400 . S
C835 C838 1.386 . S
C835 H847 0.930 . S
N836 C829 1.377 . S
N836 C837 1.321 . S
N836 Eu839 2.609 . S
C837 C835 1.400 . S
C837 N836 1.321 . S
C837 H844 0.930 . S
C838 C833 1.395 . S
C838 C835 1.386 . S
C838 H857 0.930 . S
Eu839 N836 2.609 . S
Eu839 N840 2.657 . S
Eu839 O873 2.380 . S
Eu839 O874 2.432 . S
Eu839 O878 2.558 . S
Eu839 O879 2.612 . S
Eu839 O881 2.339 . S
Eu839 O882 2.563 . S
Eu839 O883 2.419 . S
Eu839 C903 2.848 . S
N840 C832 1.362 . S
N840 Eu839 2.657 . S
N840 C841 1.334 . S
C841 N840 1.334 . S
C841 C843 1.413 . S
C841 H848 0.929 . S
C842 C830 1.392 . S
C842 C843 1.367 . S
C842 H850 0.930 . S
C843 C841 1.413 . S
C843 C842 1.367 . S
C843 H845 0.930 . S
H844 C837 0.930 . S
H845 C843 0.930 . S
H846 C834 0.930 . S
H847 C835 0.930 . S
H848 C841 0.929 . S
H849 C863 0.930 . S
H850 C842 0.930 . S
H851 C869 0.930 . S
H852 C860 0.929 . S
H853 C867 0.930 . S
H854 C831 0.931 . S
H855 C861 0.930 . S
H856 C894 0.930 . S
H857 C838 0.930 . S
H858 C893 0.931 . S
N859 Eu828 2.657 . S
N859 C860 1.334 . S
N859 C864 1.362 . S
C860 H852 0.929 . S
C860 N859 1.334 . S
C860 C863 1.413 . S
C861 H855 0.930 . S
C861 C862 1.392 . S
C861 C863 1.367 . S
C862 C861 1.392 . S
C862 C864 1.420 . S
C862 C894 1.423 . S
C863 H849 0.930 . S
C863 C860 1.413 . S
C863 C861 1.367 . S
C864 N859 1.362 . S
C864 C862 1.420 . S
C864 C868 1.429 . S
H865 C870 0.930 . S
N866 Eu828 2.609 . S
N866 C868 1.377 . S
N866 C869 1.321 . S
C867 H853 0.930 . S
C867 C869 1.400 . S
C867 C870 1.386 . S
C868 C864 1.429 . S
C868 N866 1.377 . S
C868 C871 1.411 . S
C869 H851 0.930 . S
C869 N866 1.321 . S
C869 C867 1.400 . S
C870 H865 0.930 . S
C870 C867 1.386 . S
C870 C871 1.395 . S
C871 C868 1.411 . S
C871 C870 1.395 . S
C871 C893 1.420 . S
O872 Eu828 2.558 . S
O872 C892 1.257 . S
O873 Eu828 2.612 . S
O873 Eu839 2.380 . S
O873 C884 1.276 . S
O874 Eu839 2.432 . S
O874 C891 1.264 . S
O875 Eu828 2.339 . S
O875 C891 1.254 . S
O876 Eu828 2.563 . S
O876 C884 1.235 . S
O877 Eu828 2.419 . S
O877 C892 1.249 . S
O878 Eu839 2.558 . S
O878 C903 1.257 . S
O879 Eu828 2.380 . S
O879 Eu839 2.612 . S
O879 C895 1.276 . S
O880 Eu828 2.432 . S
O880 C902 1.264 . S
O881 Eu839 2.339 . S
O881 C902 1.254 . S
O882 Eu839 2.563 . S
O882 C895 1.235 . S
O883 Eu839 2.419 . S
O883 C903 1.249 . S
C884 O873 1.276 . S
C884 O876 1.235 . S
C885 C887 1.393 . S
C885 C889 1.395 . S
C885 C892 1.492 . S
C886 C887 1.392 . S
C886 C888 1.386 . S
C887 C885 1.393 . S
C887 C886 1.392 . S
C887 H904 0.930 . S
C888 C886 1.386 . S
C888 C890 1.395 . S
C888 H905 0.930 . S
C889 C885 1.395 . S
C889 C890 1.379 . S
C889 H906 0.930 . S
C890 C888 1.395 . S
C890 C889 1.379 . S
C890 H907 0.930 . S
C891 O874 1.264 . S
C891 O875 1.254 . S
C892 Eu828 2.848 . S
C892 O872 1.257 . S
C892 O877 1.249 . S
C892 C885 1.492 . S
C893 H858 0.931 . S
C893 C871 1.420 . S
C893 C894 1.351 . S
C894 H856 0.930 . S
C894 C862 1.423 . S
C894 C893 1.351 . S
C895 O879 1.276 . S
C895 O882 1.235 . S
C896 C897 1.393 . S
C896 C900 1.395 . S
C896 C903 1.492 . S
C897 C896 1.393 . S
C897 C898 1.392 . S
C897 H908 0.930 . S
C898 C897 1.392 . S
C898 C899 1.386 . S
C899 C898 1.386 . S
C899 C901 1.395 . S
C899 H909 0.930 . S
C900 C896 1.395 . S
C900 C901 1.379 . S
C900 H910 0.930 . S
C901 C899 1.395 . S
C901 C900 1.379 . S
C901 H911 0.930 . S
C902 O880 1.264 . S
C902 O881 1.254 . S
C903 Eu839 2.848 . S
C903 O878 1.257 . S
C903 O883 1.249 . S
C903 C896 1.492 . S
H904 C887 0.930 . S
H905 C888 0.930 . S
H906 C889 0.930 . S
H907 C890 0.930 . S
H908 C897 0.930 . S
H909 C899 0.930 . S
H910 C900 0.930 . S
H911 C901 0.930 . S
Eu912 N943 2.657 . S
Eu912 N950 2.609 . S
Eu912 O956 2.558 . S
Eu912 O957 2.612 . S
Eu912 O959 2.339 . S
Eu912 O960 2.563 . S
Eu912 O961 2.419 . S
Eu912 O963 2.380 . S
Eu912 O964 2.432 . S
Eu912 C976 2.848 . S
C913 C916 1.429 . S
C913 C917 1.411 . S
C913 N920 1.377 . S
C914 C916 1.420 . S
C914 C918 1.423 . S
C914 C926 1.392 . S
C915 C917 1.420 . S
C915 C918 1.351 . S
C915 H938 0.931 . S
C916 C913 1.429 . S
C916 C914 1.420 . S
C916 N924 1.362 . S
C917 C913 1.411 . S
C917 C915 1.420 . S
C917 C922 1.395 . S
C918 C914 1.423 . S
C918 C915 1.351 . S
C918 H930 0.930 . S
C919 C921 1.400 . S
C919 C922 1.386 . S
C919 H931 0.930 . S
N920 C913 1.377 . S
N920 C921 1.321 . S
N920 Eu923 2.609 . S
C921 C919 1.400 . S
C921 N920 1.321 . S
C921 H928 0.930 . S
C922 C917 1.395 . S
C922 C919 1.386 . S
C922 H941 0.930 . S
Eu923 N920 2.609 . S
Eu923 N924 2.657 . S
Eu923 O957 2.380 . S
Eu923 O958 2.432 . S
Eu923 O962 2.558 . S
Eu923 O963 2.612 . S
Eu923 O965 2.339 . S
Eu923 O966 2.563 . S
Eu923 O967 2.419 . S
Eu923 C987 2.848 . S
N924 C916 1.362 . S
N924 Eu923 2.657 . S
N924 C925 1.334 . S
C925 N924 1.334 . S
C925 C927 1.413 . S
C925 H932 0.929 . S
C926 C914 1.392 . S
C926 C927 1.367 . S
C926 H934 0.930 . S
C927 C925 1.413 . S
C927 C926 1.367 . S
C927 H929 0.930 . S
H928 C921 0.930 . S
H929 C927 0.930 . S
H930 C918 0.930 . S
H931 C919 0.930 . S
H932 C925 0.929 . S
H933 C947 0.930 . S
H934 C926 0.930 . S
H935 C953 0.930 . S
H936 C944 0.929 . S
H937 C951 0.930 . S
H938 C915 0.931 . S
H939 C945 0.930 . S
H940 C978 0.930 . S
H941 C922 0.930 . S
H942 C977 0.931 . S
N943 Eu912 2.657 . S
N943 C944 1.334 . S
N943 C948 1.362 . S
C944 H936 0.929 . S
C944 N943 1.334 . S
C944 C947 1.413 . S
C945 H939 0.930 . S
C945 C946 1.392 . S
C945 C947 1.367 . S
C946 C945 1.392 . S
C946 C948 1.420 . S
C946 C978 1.423 . S
C947 H933 0.930 . S
C947 C944 1.413 . S
C947 C945 1.367 . S
C948 N943 1.362 . S
C948 C946 1.420 . S
C948 C952 1.429 . S
H949 C954 0.930 . S
N950 Eu912 2.609 . S
N950 C952 1.377 . S
N950 C953 1.321 . S
C951 H937 0.930 . S
C951 C953 1.400 . S
C951 C954 1.386 . S
C952 C948 1.429 . S
C952 N950 1.377 . S
C952 C955 1.411 . S
C953 H935 0.930 . S
C953 N950 1.321 . S
C953 C951 1.400 . S
C954 H949 0.930 . S
C954 C951 1.386 . S
C954 C955 1.395 . S
C955 C952 1.411 . S
C955 C954 1.395 . S
C955 C977 1.420 . S
O956 Eu912 2.558 . S
O956 C976 1.257 . S
O957 Eu912 2.612 . S
O957 Eu923 2.380 . S
O957 C968 1.276 . S
O958 Eu923 2.432 . S
O958 C975 1.264 . S
O959 Eu912 2.339 . S
O959 C975 1.254 . S
O960 Eu912 2.563 . S
O960 C968 1.235 . S
O961 Eu912 2.419 . S
O961 C976 1.249 . S
O962 Eu923 2.558 . S
O962 C987 1.257 . S
O963 Eu912 2.380 . S
O963 Eu923 2.612 . S
O963 C979 1.276 . S
O964 Eu912 2.432 . S
O964 C986 1.264 . S
O965 Eu923 2.339 . S
O965 C986 1.254 . S
O966 Eu923 2.563 . S
O966 C979 1.235 . S
O967 Eu923 2.419 . S
O967 C987 1.249 . S
C968 O957 1.276 . S
C968 O960 1.235 . S
C969 C971 1.393 . S
C969 C973 1.395 . S
C969 C976 1.492 . S
C970 C971 1.392 . S
C970 C972 1.386 . S
C971 C969 1.393 . S
C971 C970 1.392 . S
C971 H988 0.930 . S
C972 C970 1.386 . S
C972 C974 1.395 . S
C972 H989 0.930 . S
C973 C969 1.395 . S
C973 C974 1.379 . S
C973 H990 0.930 . S
C974 C972 1.395 . S
C974 C973 1.379 . S
C974 H991 0.930 . S
C975 O958 1.264 . S
C975 O959 1.254 . S
C976 Eu912 2.848 . S
C976 O956 1.257 . S
C976 O961 1.249 . S
C976 C969 1.492 . S
C977 H942 0.931 . S
C977 C955 1.420 . S
C977 C978 1.351 . S
C978 H940 0.930 . S
C978 C946 1.423 . S
C978 C977 1.351 . S
C979 O963 1.276 . S
C979 O966 1.235 . S
C980 C981 1.393 . S
C980 C984 1.395 . S
C980 C987 1.492 . S
C981 C980 1.393 . S
C981 C982 1.392 . S
C981 H992 0.930 . S
C982 C981 1.392 . S
C982 C983 1.386 . S
C983 C982 1.386 . S
C983 C985 1.395 . S
C983 H993 0.930 . S
C984 C980 1.395 . S
C984 C985 1.379 . S
C984 H994 0.930 . S
C985 C983 1.395 . S
C985 C984 1.379 . S
C985 H995 0.930 . S
C986 O964 1.264 . S
C986 O965 1.254 . S
C987 Eu923 2.848 . S
C987 O962 1.257 . S
C987 O967 1.249 . S
C987 C980 1.492 . S
H988 C971 0.930 . S
H989 C972 0.930 . S
H990 C973 0.930 . S
H991 C974 0.930 . S
H992 C981 0.930 . S
H993 C983 0.930 . S
H994 C984 0.930 . S
H995 C985 0.930 . S
Eu996 N1027 2.657 . S
Eu996 N1034 2.609 . S
Eu996 O1040 2.558 . S
Eu996 O1041 2.612 . S
Eu996 O1043 2.339 . S
Eu996 O1044 2.563 . S
Eu996 O1045 2.419 . S
Eu996 O1047 2.380 . S
Eu996 O1048 2.432 . S
Eu996 C1060 2.848 . S
C997 C1000 1.429 . S
C997 C1001 1.411 . S
C997 N1004 1.377 . S
C998 C1000 1.420 . S
C998 C1002 1.423 . S
C998 C1010 1.392 . S
C999 C1001 1.420 . S
C999 C1002 1.351 . S
C999 H1022 0.931 . S
C1000 C997 1.429 . S
C1000 C998 1.420 . S
C1000 N1008 1.362 . S
C1001 C997 1.411 . S
C1001 C999 1.420 . S
C1001 C1006 1.395 . S
C1002 C998 1.423 . S
C1002 C999 1.351 . S
C1002 H1014 0.930 . S
C1003 C1005 1.400 . S
C1003 C1006 1.386 . S
C1003 H1015 0.930 . S
N1004 C997 1.377 . S
N1004 C1005 1.321 . S
N1004 Eu1007 2.609 . S
C1005 C1003 1.400 . S
C1005 N1004 1.321 . S
C1005 H1012 0.930 . S
C1006 C1001 1.395 . S
C1006 C1003 1.386 . S
C1006 H1025 0.930 . S
Eu1007 N1004 2.609 . S
Eu1007 N1008 2.657 . S
Eu1007 O1041 2.380 . S
Eu1007 O1042 2.432 . S
Eu1007 O1046 2.558 . S
Eu1007 O1047 2.612 . S
Eu1007 O1049 2.339 . S
Eu1007 O1050 2.563 . S
Eu1007 O1051 2.419 . S
Eu1007 C1071 2.848 . S
N1008 C1000 1.362 . S
N1008 Eu1007 2.657 . S
N1008 C1009 1.334 . S
C1009 N1008 1.334 . S
C1009 C1011 1.413 . S
C1009 H1016 0.929 . S
C1010 C998 1.392 . S
C1010 C1011 1.367 . S
C1010 H1018 0.930 . S
C1011 C1009 1.413 . S
C1011 C1010 1.367 . S
C1011 H1013 0.930 . S
H1012 C1005 0.930 . S
H1013 C1011 0.930 . S
H1014 C1002 0.930 . S
H1015 C1003 0.930 . S
H1016 C1009 0.929 . S
H1017 C1031 0.930 . S
H1018 C1010 0.930 . S
H1019 C1037 0.930 . S
H1020 C1028 0.929 . S
H1021 C1035 0.930 . S
H1022 C999 0.931 . S
H1023 C1029 0.930 . S
H1024 C1062 0.930 . S
H1025 C1006 0.930 . S
H1026 C1061 0.931 . S
N1027 Eu996 2.657 . S
N1027 C1028 1.334 . S
N1027 C1032 1.362 . S
C1028 H1020 0.929 . S
C1028 N1027 1.334 . S
C1028 C1031 1.413 . S
C1029 H1023 0.930 . S
C1029 C1030 1.392 . S
C1029 C1031 1.367 . S
C1030 C1029 1.392 . S
C1030 C1032 1.420 . S
C1030 C1062 1.423 . S
C1031 H1017 0.930 . S
C1031 C1028 1.413 . S
C1031 C1029 1.367 . S
C1032 N1027 1.362 . S
C1032 C1030 1.420 . S
C1032 C1036 1.429 . S
H1033 C1038 0.930 . S
N1034 Eu996 2.609 . S
N1034 C1036 1.377 . S
N1034 C1037 1.321 . S
C1035 H1021 0.930 . S
C1035 C1037 1.400 . S
C1035 C1038 1.386 . S
C1036 C1032 1.429 . S
C1036 N1034 1.377 . S
C1036 C1039 1.411 . S
C1037 H1019 0.930 . S
C1037 N1034 1.321 . S
C1037 C1035 1.400 . S
C1038 H1033 0.930 . S
C1038 C1035 1.386 . S
C1038 C1039 1.395 . S
C1039 C1036 1.411 . S
C1039 C1038 1.395 . S
C1039 C1061 1.420 . S
O1040 Eu996 2.558 . S
O1040 C1060 1.257 . S
O1041 Eu996 2.612 . S
O1041 Eu1007 2.380 . S
O1041 C1052 1.276 . S
O1042 Eu1007 2.432 . S
O1042 C1059 1.264 . S
O1043 Eu996 2.339 . S
O1043 C1059 1.254 . S
O1044 Eu996 2.563 . S
O1044 C1052 1.235 . S
O1045 Eu996 2.419 . S
O1045 C1060 1.249 . S
O1046 Eu1007 2.558 . S
O1046 C1071 1.257 . S
O1047 Eu996 2.380 . S
O1047 Eu1007 2.612 . S
O1047 C1063 1.276 . S
O1048 Eu996 2.432 . S
O1048 C1070 1.264 . S
O1049 Eu1007 2.339 . S
O1049 C1070 1.254 . S
O1050 Eu1007 2.563 . S
O1050 C1063 1.235 . S
O1051 Eu1007 2.419 . S
O1051 C1071 1.249 . S
C1052 O1041 1.276 . S
C1052 O1044 1.235 . S
C1053 C1055 1.393 . S
C1053 C1057 1.395 . S
C1053 C1060 1.492 . S
C1054 C1055 1.392 . S
C1054 C1056 1.386 . S
C1055 C1053 1.393 . S
C1055 C1054 1.392 . S
C1055 H1072 0.930 . S
C1056 C1054 1.386 . S
C1056 C1058 1.395 . S
C1056 H1073 0.930 . S
C1057 C1053 1.395 . S
C1057 C1058 1.379 . S
C1057 H1074 0.930 . S
C1058 C1056 1.395 . S
C1058 C1057 1.379 . S
C1058 H1075 0.930 . S
C1059 O1042 1.264 . S
C1059 O1043 1.254 . S
C1060 Eu996 2.848 . S
C1060 O1040 1.257 . S
C1060 O1045 1.249 . S
C1060 C1053 1.492 . S
C1061 H1026 0.931 . S
C1061 C1039 1.420 . S
C1061 C1062 1.351 . S
C1062 H1024 0.930 . S
C1062 C1030 1.423 . S
C1062 C1061 1.351 . S
C1063 O1047 1.276 . S
C1063 O1050 1.235 . S
C1064 C1065 1.393 . S
C1064 C1068 1.395 . S
C1064 C1071 1.492 . S
C1065 C1064 1.393 . S
C1065 C1066 1.392 . S
C1065 H1076 0.930 . S
C1066 C1065 1.392 . S
C1066 C1067 1.386 . S
C1067 C1066 1.386 . S
C1067 C1069 1.395 . S
C1067 H1077 0.930 . S
C1068 C1064 1.395 . S
C1068 C1069 1.379 . S
C1068 H1078 0.930 . S
C1069 C1067 1.395 . S
C1069 C1068 1.379 . S
C1069 H1079 0.930 . S
C1070 O1048 1.264 . S
C1070 O1049 1.254 . S
C1071 Eu1007 2.848 . S
C1071 O1046 1.257 . S
C1071 O1051 1.249 . S
C1071 C1064 1.492 . S
H1072 C1055 0.930 . S
H1073 C1056 0.930 . S
H1074 C1057 0.930 . S
H1075 C1058 0.930 . S
H1076 C1065 0.930 . S
H1077 C1067 0.930 . S
H1078 C1068 0.930 . S
H1079 C1069 0.930 . S
Eu1080 N1111 2.657 . S
Eu1080 N1118 2.609 . S
Eu1080 O1124 2.558 . S
Eu1080 O1125 2.612 . S
Eu1080 O1127 2.339 . S
Eu1080 O1128 2.563 . S
Eu1080 O1129 2.419 . S
Eu1080 O1131 2.380 . S
Eu1080 O1132 2.432 . S
Eu1080 C1144 2.848 . S
C1081 C1084 1.429 . S
C1081 C1085 1.411 . S
C1081 N1088 1.377 . S
C1082 C1084 1.420 . S
C1082 C1086 1.423 . S
C1082 C1094 1.392 . S
C1083 C1085 1.420 . S
C1083 C1086 1.351 . S
C1083 H1106 0.931 . S
C1084 C1081 1.429 . S
C1084 C1082 1.420 . S
C1084 N1092 1.362 . S
C1085 C1081 1.411 . S
C1085 C1083 1.420 . S
C1085 C1090 1.395 . S
C1086 C1082 1.423 . S
C1086 C1083 1.351 . S
C1086 H1098 0.930 . S
C1087 C1089 1.400 . S
C1087 C1090 1.386 . S
C1087 H1099 0.930 . S
N1088 C1081 1.377 . S
N1088 C1089 1.321 . S
N1088 Eu1091 2.609 . S
C1089 C1087 1.400 . S
C1089 N1088 1.321 . S
C1089 H1096 0.930 . S
C1090 C1085 1.395 . S
C1090 C1087 1.386 . S
C1090 H1109 0.930 . S
Eu1091 N1088 2.609 . S
Eu1091 N1092 2.657 . S
Eu1091 O1125 2.380 . S
Eu1091 O1126 2.432 . S
Eu1091 O1130 2.558 . S
Eu1091 O1131 2.612 . S
Eu1091 O1133 2.339 . S
Eu1091 O1134 2.563 . S
Eu1091 O1135 2.419 . S
Eu1091 C1155 2.848 . S
N1092 C1084 1.362 . S
N1092 Eu1091 2.657 . S
N1092 C1093 1.334 . S
C1093 N1092 1.334 . S
C1093 C1095 1.413 . S
C1093 H1100 0.929 . S
C1094 C1082 1.392 . S
C1094 C1095 1.367 . S
C1094 H1102 0.930 . S
C1095 C1093 1.413 . S
C1095 C1094 1.367 . S
C1095 H1097 0.930 . S
H1096 C1089 0.930 . S
H1097 C1095 0.930 . S
H1098 C1086 0.930 . S
H1099 C1087 0.930 . S
H1100 C1093 0.929 . S
H1101 C1115 0.930 . S
H1102 C1094 0.930 . S
H1103 C1121 0.930 . S
H1104 C1112 0.929 . S
H1105 C1119 0.930 . S
H1106 C1083 0.931 . S
H1107 C1113 0.930 . S
H1108 C1146 0.930 . S
H1109 C1090 0.930 . S
H1110 C1145 0.931 . S
N1111 Eu1080 2.657 . S
N1111 C1112 1.334 . S
N1111 C1116 1.362 . S
C1112 H1104 0.929 . S
C1112 N1111 1.334 . S
C1112 C1115 1.413 . S
C1113 H1107 0.930 . S
C1113 C1114 1.392 . S
C1113 C1115 1.367 . S
C1114 C1113 1.392 . S
C1114 C1116 1.420 . S
C1114 C1146 1.423 . S
C1115 H1101 0.930 . S
C1115 C1112 1.413 . S
C1115 C1113 1.367 . S
C1116 N1111 1.362 . S
C1116 C1114 1.420 . S
C1116 C1120 1.429 . S
H1117 C1122 0.930 . S
N1118 Eu1080 2.609 . S
N1118 C1120 1.377 . S
N1118 C1121 1.321 . S
C1119 H1105 0.930 . S
C1119 C1121 1.400 . S
C1119 C1122 1.386 . S
C1120 C1116 1.429 . S
C1120 N1118 1.377 . S
C1120 C1123 1.411 . S
C1121 H1103 0.930 . S
C1121 N1118 1.321 . S
C1121 C1119 1.400 . S
C1122 H1117 0.930 . S
C1122 C1119 1.386 . S
C1122 C1123 1.395 . S
C1123 C1120 1.411 . S
C1123 C1122 1.395 . S
C1123 C1145 1.420 . S
O1124 Eu1080 2.558 . S
O1124 C1144 1.257 . S
O1125 Eu1080 2.612 . S
O1125 Eu1091 2.380 . S
O1125 C1136 1.276 . S
O1126 Eu1091 2.432 . S
O1126 C1143 1.264 . S
O1127 Eu1080 2.339 . S
O1127 C1143 1.254 . S
O1128 Eu1080 2.563 . S
O1128 C1136 1.235 . S
O1129 Eu1080 2.419 . S
O1129 C1144 1.249 . S
O1130 Eu1091 2.558 . S
O1130 C1155 1.257 . S
O1131 Eu1080 2.380 . S
O1131 Eu1091 2.612 . S
O1131 C1147 1.276 . S
O1132 Eu1080 2.432 . S
O1132 C1154 1.264 . S
O1133 Eu1091 2.339 . S
O1133 C1154 1.254 . S
O1134 Eu1091 2.563 . S
O1134 C1147 1.235 . S
O1135 Eu1091 2.419 . S
O1135 C1155 1.249 . S
C1136 O1125 1.276 . S
C1136 O1128 1.235 . S
C1137 C1139 1.393 . S
C1137 C1141 1.395 . S
C1137 C1144 1.492 . S
C1138 C1139 1.392 . S
C1138 C1140 1.386 . S
C1139 C1137 1.393 . S
C1139 C1138 1.392 . S
C1139 H1156 0.930 . S
C1140 C1138 1.386 . S
C1140 C1142 1.395 . S
C1140 H1157 0.930 . S
C1141 C1137 1.395 . S
C1141 C1142 1.379 . S
C1141 H1158 0.930 . S
C1142 C1140 1.395 . S
C1142 C1141 1.379 . S
C1142 H1159 0.930 . S
C1143 O1126 1.264 . S
C1143 O1127 1.254 . S
C1144 Eu1080 2.848 . S
C1144 O1124 1.257 . S
C1144 O1129 1.249 . S
C1144 C1137 1.492 . S
C1145 H1110 0.931 . S
C1145 C1123 1.420 . S
C1145 C1146 1.351 . S
C1146 H1108 0.930 . S
C1146 C1114 1.423 . S
C1146 C1145 1.351 . S
C1147 O1131 1.276 . S
C1147 O1134 1.235 . S
C1148 C1149 1.393 . S
C1148 C1152 1.395 . S
C1148 C1155 1.492 . S
C1149 C1148 1.393 . S
C1149 C1150 1.392 . S
C1149 H1160 0.930 . S
C1150 C1149 1.392 . S
C1150 C1151 1.386 . S
C1151 C1150 1.386 . S
C1151 C1153 1.395 . S
C1151 H1161 0.930 . S
C1152 C1148 1.395 . S
C1152 C1153 1.379 . S
C1152 H1162 0.930 . S
C1153 C1151 1.395 . S
C1153 C1152 1.379 . S
C1153 H1163 0.930 . S
C1154 O1132 1.264 . S
C1154 O1133 1.254 . S
C1155 Eu1091 2.848 . S
C1155 O1130 1.257 . S
C1155 O1135 1.249 . S
C1155 C1148 1.492 . S
H1156 C1139 0.930 . S
H1157 C1140 0.930 . S
H1158 C1141 0.930 . S
H1159 C1142 0.930 . S
H1160 C1149 0.930 . S
H1161 C1151 0.930 . S
H1162 C1152 0.930 . S
H1163 C1153 0.930 . S
Eu1164 N1195 2.657 . S
Eu1164 N1202 2.609 . S
Eu1164 O1208 2.558 . S
Eu1164 O1209 2.612 . S
Eu1164 O1211 2.339 . S
Eu1164 O1212 2.563 . S
Eu1164 O1213 2.419 . S
Eu1164 O1215 2.380 . S
Eu1164 O1216 2.432 . S
Eu1164 C1228 2.848 . S
C1165 C1168 1.429 . S
C1165 C1169 1.411 . S
C1165 N1172 1.377 . S
C1166 C1168 1.420 . S
C1166 C1170 1.423 . S
C1166 C1178 1.392 . S
C1167 C1169 1.420 . S
C1167 C1170 1.351 . S
C1167 H1190 0.931 . S
C1168 C1165 1.429 . S
C1168 C1166 1.420 . S
C1168 N1176 1.362 . S
C1169 C1165 1.411 . S
C1169 C1167 1.420 . S
C1169 C1174 1.395 . S
C1170 C1166 1.423 . S
C1170 C1167 1.351 . S
C1170 H1182 0.930 . S
C1171 C1173 1.400 . S
C1171 C1174 1.386 . S
C1171 H1183 0.930 . S
N1172 C1165 1.377 . S
N1172 C1173 1.321 . S
N1172 Eu1175 2.609 . S
C1173 C1171 1.400 . S
C1173 N1172 1.321 . S
C1173 H1180 0.930 . S
C1174 C1169 1.395 . S
C1174 C1171 1.386 . S
C1174 H1193 0.930 . S
Eu1175 N1172 2.609 . S
Eu1175 N1176 2.657 . S
Eu1175 O1209 2.380 . S
Eu1175 O1210 2.432 . S
Eu1175 O1214 2.558 . S
Eu1175 O1215 2.612 . S
Eu1175 O1217 2.339 . S
Eu1175 O1218 2.563 . S
Eu1175 O1219 2.419 . S
Eu1175 C1239 2.848 . S
N1176 C1168 1.362 . S
N1176 Eu1175 2.657 . S
N1176 C1177 1.334 . S
C1177 N1176 1.334 . S
C1177 C1179 1.413 . S
C1177 H1184 0.929 . S
C1178 C1166 1.392 . S
C1178 C1179 1.367 . S
C1178 H1186 0.930 . S
C1179 C1177 1.413 . S
C1179 C1178 1.367 . S
C1179 H1181 0.930 . S
H1180 C1173 0.930 . S
H1181 C1179 0.930 . S
H1182 C1170 0.930 . S
H1183 C1171 0.930 . S
H1184 C1177 0.929 . S
H1185 C1199 0.930 . S
H1186 C1178 0.930 . S
H1187 C1205 0.930 . S
H1188 C1196 0.929 . S
H1189 C1203 0.930 . S
H1190 C1167 0.931 . S
H1191 C1197 0.930 . S
H1192 C1230 0.930 . S
H1193 C1174 0.930 . S
H1194 C1229 0.931 . S
N1195 Eu1164 2.657 . S
N1195 C1196 1.334 . S
N1195 C1200 1.362 . S
C1196 H1188 0.929 . S
C1196 N1195 1.334 . S
C1196 C1199 1.413 . S
C1197 H1191 0.930 . S
C1197 C1198 1.392 . S
C1197 C1199 1.367 . S
C1198 C1197 1.392 . S
C1198 C1200 1.420 . S
C1198 C1230 1.423 . S
C1199 H1185 0.930 . S
C1199 C1196 1.413 . S
C1199 C1197 1.367 . S
C1200 N1195 1.362 . S
C1200 C1198 1.420 . S
C1200 C1204 1.429 . S
H1201 C1206 0.930 . S
N1202 Eu1164 2.609 . S
N1202 C1204 1.377 . S
N1202 C1205 1.321 . S
C1203 H1189 0.930 . S
C1203 C1205 1.400 . S
C1203 C1206 1.386 . S
C1204 C1200 1.429 . S
C1204 N1202 1.377 . S
C1204 C1207 1.411 . S
C1205 H1187 0.930 . S
C1205 N1202 1.321 . S
C1205 C1203 1.400 . S
C1206 H1201 0.930 . S
C1206 C1203 1.386 . S
C1206 C1207 1.395 . S
C1207 C1204 1.411 . S
C1207 C1206 1.395 . S
C1207 C1229 1.420 . S
O1208 Eu1164 2.558 . S
O1208 C1228 1.257 . S
O1209 Eu1164 2.612 . S
O1209 Eu1175 2.380 . S
O1209 C1220 1.276 . S
O1210 Eu1175 2.432 . S
O1210 C1227 1.264 . S
O1211 Eu1164 2.339 . S
O1211 C1227 1.254 . S
O1212 Eu1164 2.563 . S
O1212 C1220 1.235 . S
O1213 Eu1164 2.419 . S
O1213 C1228 1.249 . S
O1214 Eu1175 2.558 . S
O1214 C1239 1.257 . S
O1215 Eu1164 2.380 . S
O1215 Eu1175 2.612 . S
O1215 C1231 1.276 . S
O1216 Eu1164 2.432 . S
O1216 C1238 1.264 . S
O1217 Eu1175 2.339 . S
O1217 C1238 1.254 . S
O1218 Eu1175 2.563 . S
O1218 C1231 1.235 . S
O1219 Eu1175 2.419 . S
O1219 C1239 1.249 . S
C1220 O1209 1.276 . S
C1220 O1212 1.235 . S
C1221 C1223 1.393 . S
C1221 C1225 1.395 . S
C1221 C1228 1.492 . S
C1222 C1223 1.392 . S
C1222 C1224 1.386 . S
C1223 C1221 1.393 . S
C1223 C1222 1.392 . S
C1223 H1240 0.930 . S
C1224 C1222 1.386 . S
C1224 C1226 1.395 . S
C1224 H1241 0.930 . S
C1225 C1221 1.395 . S
C1225 C1226 1.379 . S
C1225 H1242 0.930 . S
C1226 C1224 1.395 . S
C1226 C1225 1.379 . S
C1226 H1243 0.930 . S
C1227 O1210 1.264 . S
C1227 O1211 1.254 . S
C1228 Eu1164 2.848 . S
C1228 O1208 1.257 . S
C1228 O1213 1.249 . S
C1228 C1221 1.492 . S
C1229 H1194 0.931 . S
C1229 C1207 1.420 . S
C1229 C1230 1.351 . S
C1230 H1192 0.930 . S
C1230 C1198 1.423 . S
C1230 C1229 1.351 . S
C1231 O1215 1.276 . S
C1231 O1218 1.235 . S
C1232 C1233 1.393 . S
C1232 C1236 1.395 . S
C1232 C1239 1.492 . S
C1233 C1232 1.393 . S
C1233 C1234 1.392 . S
C1233 H1244 0.930 . S
C1234 C1233 1.392 . S
C1234 C1235 1.386 . S
C1235 C1234 1.386 . S
C1235 C1237 1.395 . S
C1235 H1245 0.930 . S
C1236 C1232 1.395 . S
C1236 C1237 1.379 . S
C1236 H1246 0.930 . S
C1237 C1235 1.395 . S
C1237 C1236 1.379 . S
C1237 H1247 0.930 . S
C1238 O1216 1.264 . S
C1238 O1217 1.254 . S
C1239 Eu1175 2.848 . S
C1239 O1214 1.257 . S
C1239 O1219 1.249 . S
C1239 C1232 1.492 . S
H1240 C1223 0.930 . S
H1241 C1224 0.930 . S
H1242 C1225 0.930 . S
H1243 C1226 0.930 . S
H1244 C1233 0.930 . S
H1245 C1235 0.930 . S
H1246 C1236 0.930 . S
H1247 C1237 0.930 . S
Eu1248 N1279 2.657 . S
Eu1248 N1286 2.609 . S
Eu1248 O1292 2.558 . S
Eu1248 O1293 2.612 . S
Eu1248 O1295 2.339 . S
Eu1248 O1296 2.563 . S
Eu1248 O1297 2.419 . S
Eu1248 O1299 2.380 . S
Eu1248 O1300 2.432 . S
Eu1248 C1312 2.848 . S
C1249 C1252 1.429 . S
C1249 C1253 1.411 . S
C1249 N1256 1.377 . S
C1250 C1252 1.420 . S
C1250 C1254 1.423 . S
C1250 C1262 1.392 . S
C1251 C1253 1.420 . S
C1251 C1254 1.351 . S
C1251 H1274 0.931 . S
C1252 C1249 1.429 . S
C1252 C1250 1.420 . S
C1252 N1260 1.362 . S
C1253 C1249 1.411 . S
C1253 C1251 1.420 . S
C1253 C1258 1.395 . S
C1254 C1250 1.423 . S
C1254 C1251 1.351 . S
C1254 H1266 0.930 . S
C1255 C1257 1.400 . S
C1255 C1258 1.386 . S
C1255 H1267 0.930 . S
N1256 C1249 1.377 . S
N1256 C1257 1.321 . S
N1256 Eu1259 2.609 . S
C1257 C1255 1.400 . S
C1257 N1256 1.321 . S
C1257 H1264 0.930 . S
C1258 C1253 1.395 . S
C1258 C1255 1.386 . S
C1258 H1277 0.930 . S
Eu1259 N1256 2.609 . S
Eu1259 N1260 2.657 . S
Eu1259 O1293 2.380 . S
Eu1259 O1294 2.432 . S
Eu1259 O1298 2.558 . S
Eu1259 O1299 2.612 . S
Eu1259 O1301 2.339 . S
Eu1259 O1302 2.563 . S
Eu1259 O1303 2.419 . S
Eu1259 C1323 2.848 . S
N1260 C1252 1.362 . S
N1260 Eu1259 2.657 . S
N1260 C1261 1.334 . S
C1261 N1260 1.334 . S
C1261 C1263 1.413 . S
C1261 H1268 0.929 . S
C1262 C1250 1.392 . S
C1262 C1263 1.367 . S
C1262 H1270 0.930 . S
C1263 C1261 1.413 . S
C1263 C1262 1.367 . S
C1263 H1265 0.930 . S
H1264 C1257 0.930 . S
H1265 C1263 0.930 . S
H1266 C1254 0.930 . S
H1267 C1255 0.930 . S
H1268 C1261 0.929 . S
H1269 C1283 0.930 . S
H1270 C1262 0.930 . S
H1271 C1289 0.930 . S
H1272 C1280 0.929 . S
H1273 C1287 0.930 . S
H1274 C1251 0.931 . S
H1275 C1281 0.930 . S
H1276 C1314 0.930 . S
H1277 C1258 0.930 . S
H1278 C1313 0.931 . S
N1279 Eu1248 2.657 . S
N1279 C1280 1.334 . S
N1279 C1284 1.362 . S
C1280 H1272 0.929 . S
C1280 N1279 1.334 . S
C1280 C1283 1.413 . S
C1281 H1275 0.930 . S
C1281 C1282 1.392 . S
C1281 C1283 1.367 . S
C1282 C1281 1.392 . S
C1282 C1284 1.420 . S
C1282 C1314 1.423 . S
C1283 H1269 0.930 . S
C1283 C1280 1.413 . S
C1283 C1281 1.367 . S
C1284 N1279 1.362 . S
C1284 C1282 1.420 . S
C1284 C1288 1.429 . S
H1285 C1290 0.930 . S
N1286 Eu1248 2.609 . S
N1286 C1288 1.377 . S
N1286 C1289 1.321 . S
C1287 H1273 0.930 . S
C1287 C1289 1.400 . S
C1287 C1290 1.386 . S
C1288 C1284 1.429 . S
C1288 N1286 1.377 . S
C1288 C1291 1.411 . S
C1289 H1271 0.930 . S
C1289 N1286 1.321 . S
C1289 C1287 1.400 . S
C1290 H1285 0.930 . S
C1290 C1287 1.386 . S
C1290 C1291 1.395 . S
C1291 C1288 1.411 . S
C1291 C1290 1.395 . S
C1291 C1313 1.420 . S
O1292 Eu1248 2.558 . S
O1292 C1312 1.257 . S
O1293 Eu1248 2.612 . S
O1293 Eu1259 2.380 . S
O1293 C1304 1.276 . S
O1294 Eu1259 2.432 . S
O1294 C1311 1.264 . S
O1295 Eu1248 2.339 . S
O1295 C1311 1.254 . S
O1296 Eu1248 2.563 . S
O1296 C1304 1.235 . S
O1297 Eu1248 2.419 . S
O1297 C1312 1.249 . S
O1298 Eu1259 2.558 . S
O1298 C1323 1.257 . S
O1299 Eu1248 2.380 . S
O1299 Eu1259 2.612 . S
O1299 C1315 1.276 . S
O1300 Eu1248 2.432 . S
O1300 C1322 1.264 . S
O1301 Eu1259 2.339 . S
O1301 C1322 1.254 . S
O1302 Eu1259 2.563 . S
O1302 C1315 1.235 . S
O1303 Eu1259 2.419 . S
O1303 C1323 1.249 . S
C1304 O1293 1.276 . S
C1304 O1296 1.235 . S
C1305 C1307 1.393 . S
C1305 C1309 1.395 . S
C1305 C1312 1.492 . S
C1306 C1307 1.392 . S
C1306 C1308 1.386 . S
C1307 C1305 1.393 . S
C1307 C1306 1.392 . S
C1307 H1324 0.930 . S
C1308 C1306 1.386 . S
C1308 C1310 1.395 . S
C1308 H1325 0.930 . S
C1309 C1305 1.395 . S
C1309 C1310 1.379 . S
C1309 H1326 0.930 . S
C1310 C1308 1.395 . S
C1310 C1309 1.379 . S
C1310 H1327 0.930 . S
C1311 O1294 1.264 . S
C1311 O1295 1.254 . S
C1312 Eu1248 2.848 . S
C1312 O1292 1.257 . S
C1312 O1297 1.249 . S
C1312 C1305 1.492 . S
C1313 H1278 0.931 . S
C1313 C1291 1.420 . S
C1313 C1314 1.351 . S
C1314 H1276 0.930 . S
C1314 C1282 1.423 . S
C1314 C1313 1.351 . S
C1315 O1299 1.276 . S
C1315 O1302 1.235 . S
C1316 C1317 1.393 . S
C1316 C1320 1.395 . S
C1316 C1323 1.492 . S
C1317 C1316 1.393 . S
C1317 C1318 1.392 . S
C1317 H1328 0.930 . S
C1318 C1317 1.392 . S
C1318 C1319 1.386 . S
C1319 C1318 1.386 . S
C1319 C1321 1.395 . S
C1319 H1329 0.930 . S
C1320 C1316 1.395 . S
C1320 C1321 1.379 . S
C1320 H1330 0.930 . S
C1321 C1319 1.395 . S
C1321 C1320 1.379 . S
C1321 H1331 0.930 . S
C1322 O1300 1.264 . S
C1322 O1301 1.254 . S
C1323 Eu1259 2.848 . S
C1323 O1298 1.257 . S
C1323 O1303 1.249 . S
C1323 C1316 1.492 . S
H1324 C1307 0.930 . S
H1325 C1308 0.930 . S
H1326 C1309 0.930 . S
H1327 C1310 0.930 . S
H1328 C1317 0.930 . S
H1329 C1319 0.930 . S
H1330 C1320 0.930 . S
H1331 C1321 0.930 . S
H1332 C1338 0.930 . S
H1333 C1341 0.930 . S
H1334 C1342 0.930 . S
H1335 C1343 0.930 . S
H1336 C1346 0.930 . S
H1337 C1347 0.930 . S
C1338 H1332 0.930 . S
C1338 C1339 1.355 . S
C1338 C1340 1.415 . S
C1339 C1338 1.355 . S
C1339 C1341 1.419 . S
C1340 C1338 1.415 . S
C1340 C1345 1.425 . S
C1340 C1347 1.409 . S
C1341 H1333 0.930 . S
C1341 C1339 1.419 . S
C1341 C1342 1.362 . S
C1342 H1334 0.930 . S
C1342 C1341 1.362 . S
C1342 C1345 1.409 . S
C1343 H1335 0.930 . S
C1343 C1344 1.355 . S
C1343 C1345 1.415 . S
C1344 C1343 1.355 . S
C1344 C1346 1.419 . S
C1345 C1340 1.425 . S
C1345 C1342 1.409 . S
C1345 C1343 1.415 . S
C1346 H1336 0.930 . S
C1346 C1344 1.419 . S
C1346 C1347 1.362 . S
C1347 H1337 0.930 . S
C1347 C1340 1.409 . S
C1347 C1346 1.362 . S
H1348 C1354 0.930 . S
H1349 C1357 0.930 . S
H1350 C1358 0.930 . S
H1351 C1359 0.930 . S
H1352 C1362 0.930 1_556 S
H1353 C1363 0.930 . S
C1354 H1348 0.930 . S
C1354 C1355 1.355 . S
C1354 C1356 1.415 . S
C1355 C1354 1.355 . S
C1355 C1357 1.419 . S
C1356 C1354 1.415 . S
C1356 C1361 1.425 . S
C1356 C1363 1.409 . S
C1357 H1349 0.930 . S
C1357 C1355 1.419 . S
C1357 C1358 1.362 . S
C1358 H1350 0.930 . S
C1358 C1357 1.362 . S
C1358 C1361 1.409 . S
C1359 H1351 0.930 . S
C1359 C1360 1.355 . S
C1359 C1361 1.415 . S
C1360 C1359 1.355 . S
C1360 C1362 1.419 . S
C1361 C1356 1.425 . S
C1361 C1358 1.409 . S
C1361 C1359 1.415 . S
C1362 H1352 0.930 1_554 S
C1362 C1360 1.419 . S
C1362 C1363 1.362 . S
C1363 H1353 0.930 . S
C1363 C1356 1.409 . S
C1363 C1362 1.362 . S
H1364 C1370 0.930 . S
H1365 C1373 0.930 . S
H1366 C1374 0.930 . S
H1367 C1375 0.930 . S
H1368 C1378 0.930 . S
H1369 C1379 0.930 . S
C1370 H1364 0.930 . S
C1370 C1371 1.355 . S
C1370 C1372 1.415 . S
C1371 C1370 1.355 . S
C1371 C1373 1.419 . S
C1372 C1370 1.415 . S
C1372 C1377 1.425 . S
C1372 C1379 1.409 . S
C1373 H1365 0.930 . S
C1373 C1371 1.419 . S
C1373 C1374 1.362 . S
C1374 H1366 0.930 . S
C1374 C1373 1.362 . S
C1374 C1377 1.409 . S
C1375 H1367 0.930 . S
C1375 C1376 1.355 . S
C1375 C1377 1.415 . S
C1376 C1375 1.355 . S
C1376 C1378 1.419 . S
C1377 C1372 1.425 . S
C1377 C1374 1.409 . S
C1377 C1375 1.415 . S
C1378 H1368 0.930 . S
C1378 C1376 1.419 . S
C1378 C1379 1.362 . S
C1379 H1369 0.930 . S
C1379 C1372 1.409 . S
C1379 C1378 1.362 . S
H1380 C1386 0.930 . S
H1381 C1389 0.930 . S
H1382 C1390 0.930 . S
H1383 C1391 0.930 . S
H1384 C1394 0.924 1_554 S
H1385 C1395 0.930 1_554 S
C1386 H1380 0.930 . S
C1386 C1387 1.355 . S
C1386 C1388 1.415 . S
C1387 C1386 1.355 . S
C1387 C1389 1.419 . S
C1388 C1386 1.415 . S
C1388 C1393 1.425 . S
C1388 C1395 1.409 . S
C1389 H1381 0.930 . S
C1389 C1387 1.419 . S
C1389 C1390 1.362 . S
C1390 H1382 0.930 . S
C1390 C1389 1.362 . S
C1390 C1393 1.409 . S
C1391 H1383 0.930 . S
C1391 C1392 1.355 . S
C1391 C1393 1.415 . S
C1392 C1391 1.355 . S
C1392 C1394 1.424 . S
C1393 C1388 1.425 . S
C1393 C1390 1.409 . S
C1393 C1391 1.415 . S
C1394 H1384 0.924 1_556 S
C1394 C1392 1.424 . S
C1394 C1395 1.363 . S
C1395 H1385 0.930 1_556 S
C1395 C1388 1.409 . S
C1395 C1394 1.363 . S
H1396 C1402 0.930 . S
H1397 C1405 0.930 . S
H1398 C1406 0.949 . S
H1399 C1407 0.930 1_554 S
H1400 C1410 0.930 . S
H1401 C1411 0.930 . S
C1402 H1396 0.930 . S
C1402 C1403 1.355 . S
C1402 C1404 1.415 . S
C1403 C1402 1.355 . S
C1403 C1405 1.419 . S
C1404 C1402 1.415 . S
C1404 C1409 1.425 . S
C1404 C1411 1.409 . S
C1405 H1397 0.930 . S
C1405 C1403 1.419 . S
C1405 C1406 1.362 . S
C1406 H1398 0.949 . S
C1406 C1405 1.362 . S
C1406 C1409 1.409 . S
C1407 H1399 0.930 1_556 S
C1407 C1408 1.355 . S
C1407 C1409 1.415 . S
C1408 C1407 1.355 . S
C1408 C1410 1.419 . S
C1409 C1404 1.425 . S
C1409 C1406 1.409 . S
C1409 C1407 1.415 . S
C1410 H1400 0.930 . S
C1410 C1408 1.419 . S
C1410 C1411 1.362 . S
C1411 H1401 0.930 . S
C1411 C1404 1.409 . S
C1411 C1410 1.362 . S
H1412 C1418 0.930 . S
H1413 C1421 0.930 . S
H1414 C1422 0.930 . S
H1415 C1423 0.930 . S
H1416 C1426 0.930 . S
H1417 C1427 0.930 . S
C1418 H1412 0.930 . S
C1418 C1419 1.355 . S
C1418 C1420 1.415 . S
C1419 C1418 1.355 . S
C1419 C1421 1.419 . S
C1420 C1418 1.415 . S
C1420 C1425 1.425 . S
C1420 C1427 1.409 . S
C1421 H1413 0.930 . S
C1421 C1419 1.419 . S
C1421 C1422 1.362 . S
C1422 H1414 0.930 . S
C1422 C1421 1.362 . S
C1422 C1425 1.409 . S
C1423 H1415 0.930 . S
C1423 C1424 1.355 . S
C1423 C1425 1.415 . S
C1424 C1423 1.355 . S
C1424 C1426 1.419 . S
C1425 C1420 1.425 . S
C1425 C1422 1.409 . S
C1425 C1423 1.415 . S
C1426 H1416 0.930 . S
C1426 C1424 1.419 . S
C1426 C1427 1.362 . S
C1427 H1417 0.930 . S
C1427 C1420 1.409 . S
C1427 C1426 1.362 . S
H1428 C1434 0.930 . S
H1429 C1437 0.930 . S
H1430 C1438 0.930 . S
H1431 C1439 0.930 . S
H1432 C1442 0.955 . S
H1433 C1443 0.930 1_554 S
C1434 H1428 0.930 . S
C1434 C1435 1.355 . S
C1434 C1436 1.415 . S
C1435 C1434 1.355 . S
C1435 C1437 1.419 . S
C1436 C1434 1.415 . S
C1436 C1441 1.425 . S
C1436 C1443 1.409 . S
C1437 H1429 0.930 . S
C1437 C1435 1.419 . S
C1437 C1438 1.362 . S
C1438 H1430 0.930 . S
C1438 C1437 1.362 . S
C1438 C1441 1.409 . S
C1439 H1431 0.930 . S
C1439 C1440 1.355 . S
C1439 C1441 1.415 . S
C1440 C1439 1.355 . S
C1440 C1442 1.400 1_556 S
C1441 C1436 1.425 . S
C1441 C1438 1.409 . S
C1441 C1439 1.415 . S
C1442 H1432 0.955 . S
C1442 C1440 1.400 1_554 S
C1442 C1443 1.357 1_554 S
C1443 H1433 0.930 1_556 S
C1443 C1436 1.409 . S
C1443 C1442 1.357 1_556 S
H1444 C1450 0.930 . S
H1445 C1453 0.930 . S
H1446 C1454 0.930 . S
H1447 C1455 0.930 . S
H1448 C1458 0.930 . S
H1449 C1459 0.930 . S
C1450 H1444 0.930 . S
C1450 C1451 1.355 . S
C1450 C1452 1.415 . S
C1451 C1450 1.355 . S
C1451 C1453 1.419 . S
C1452 C1450 1.415 . S
C1452 C1457 1.425 . S
C1452 C1459 1.409 . S
C1453 H1445 0.930 . S
C1453 C1451 1.419 . S
C1453 C1454 1.362 . S
C1454 H1446 0.930 . S
C1454 C1453 1.362 . S
C1454 C1457 1.409 . S
C1455 H1447 0.930 . S
C1455 C1456 1.355 . S
C1455 C1457 1.415 . S
C1456 C1455 1.355 . S
C1456 C1458 1.419 . S
C1457 C1452 1.425 . S
C1457 C1454 1.409 . S
C1457 C1455 1.415 . S
C1458 H1448 0.930 . S
C1458 C1456 1.419 . S
C1458 C1459 1.362 . S
C1459 H1449 0.930 . S
C1459 C1452 1.409 . S
C1459 C1458 1.362 . S
H1460 C1466 0.930 . S
H1461 C1469 0.930 . S
H1462 C1470 0.930 1_554 S
H1463 C1471 0.930 1_554 S
H1464 C1474 0.930 . S
H1465 C1475 0.930 . S
C1466 H1460 0.930 . S
C1466 C1467 1.355 . S
C1466 C1468 1.415 . S
C1467 C1466 1.355 . S
C1467 C1469 1.419 . S
C1468 C1466 1.415 . S
C1468 C1473 1.425 . S
C1468 C1475 1.409 . S
C1469 H1461 0.930 . S
C1469 C1467 1.419 . S
C1469 C1470 1.362 . S
C1470 H1462 0.930 1_556 S
C1470 C1469 1.362 . S
C1470 C1473 1.409 . S
C1471 H1463 0.930 1_556 S
C1471 C1472 1.355 . S
C1471 C1473 1.415 . S
C1472 C1471 1.355 . S
C1472 C1474 1.419 . S
C1473 C1468 1.425 . S
C1473 C1470 1.409 . S
C1473 C1471 1.415 . S
C1474 H1464 0.930 . S
C1474 C1472 1.419 . S
C1474 C1475 1.362 . S
C1475 H1465 0.930 . S
C1475 C1468 1.409 . S
C1475 C1474 1.362 . S
H1476 C1482 0.930 . S
H1477 C1485 0.930 . S
H1478 C1486 0.930 . S
H1479 C1487 0.930 . S
H1480 C1490 0.930 . S
H1481 C1491 0.930 . S
C1482 H1476 0.930 . S
C1482 C1483 1.355 . S
C1482 C1484 1.415 . S
C1483 C1482 1.355 . S
C1483 C1485 1.419 . S
C1484 C1482 1.415 . S
C1484 C1489 1.425 . S
C1484 C1491 1.409 . S
C1485 H1477 0.930 . S
C1485 C1483 1.419 . S
C1485 C1486 1.362 . S
C1486 H1478 0.930 . S
C1486 C1485 1.362 . S
C1486 C1489 1.409 . S
C1487 H1479 0.930 . S
C1487 C1488 1.355 . S
C1487 C1489 1.415 . S
C1488 C1487 1.355 . S
C1488 C1490 1.419 . S
C1489 C1484 1.425 . S
C1489 C1486 1.409 . S
C1489 C1487 1.415 . S
C1490 H1480 0.930 . S
C1490 C1488 1.419 . S
C1490 C1491 1.362 . S
C1491 H1481 0.930 . S
C1491 C1484 1.409 . S
C1491 C1490 1.362 . S
H1492 C1498 0.930 . S
H1493 C1501 0.930 . S
H1494 C1502 0.930 . S
H1495 C1503 0.930 . S
H1496 C1506 0.930 . S
H1497 C1507 0.930 . S
C1498 H1492 0.930 . S
C1498 C1499 1.355 . S
C1498 C1500 1.415 . S
C1499 C1498 1.355 . S
C1499 C1501 1.419 . S
C1500 C1498 1.415 . S
C1500 C1505 1.425 . S
C1500 C1507 1.409 . S
C1501 H1493 0.930 . S
C1501 C1499 1.419 . S
C1501 C1502 1.362 . S
C1502 H1494 0.930 . S
C1502 C1501 1.362 . S
C1502 C1505 1.409 . S
C1503 H1495 0.930 . S
C1503 C1504 1.355 . S
C1503 C1505 1.415 . S
C1504 C1503 1.355 . S
C1504 C1506 1.419 . S
C1505 C1500 1.425 . S
C1505 C1502 1.409 . S
C1505 C1503 1.415 . S
C1506 H1496 0.930 . S
C1506 C1504 1.419 . S
C1506 C1507 1.362 . S
C1507 H1497 0.930 . S
C1507 C1500 1.409 . S
C1507 C1506 1.362 . S
H1508 C1514 0.930 . S
H1509 C1517 0.930 . S
H1510 C1518 0.930 . S
H1511 C1519 0.930 . S
H1512 C1522 0.930 . S
H1513 C1523 0.930 . S
C1514 H1508 0.930 . S
C1514 C1515 1.355 . S
C1514 C1516 1.415 . S
C1515 C1514 1.355 . S
C1515 C1517 1.419 . S
C1516 C1514 1.415 . S
C1516 C1521 1.425 . S
C1516 C1523 1.409 . S
C1517 H1509 0.930 . S
C1517 C1515 1.419 . S
C1517 C1518 1.362 . S
C1518 H1510 0.930 . S
C1518 C1517 1.362 . S
C1518 C1521 1.409 . S
C1519 H1511 0.930 . S
C1519 C1520 1.355 . S
C1519 C1521 1.415 . S
C1520 C1519 1.355 . S
C1520 C1522 1.419 . S
C1521 C1516 1.425 . S
C1521 C1518 1.409 . S
C1521 C1519 1.415 . S
C1522 H1512 0.930 . S
C1522 C1520 1.419 . S
C1522 C1523 1.362 . S
C1523 H1513 0.930 . S
C1523 C1516 1.409 . S
C1523 C1522 1.362 . S
H1524 C1530 0.930 1_655 S
H1525 C1533 0.930 . S
H1526 C1534 0.930 . S
H1527 C1535 0.930 . S
H1528 C1538 0.930 . S
H1529 C1539 0.930 . S
C1530 H1524 0.930 1_455 S
C1530 C1531 1.355 1_455 S
C1530 C1532 1.415 . S
C1531 C1530 1.355 1_655 S
C1531 C1533 1.419 1_655 S
C1532 C1530 1.415 . S
C1532 C1537 1.425 . S
C1532 C1539 1.409 . S
C1533 H1525 0.930 . S
C1533 C1531 1.419 1_455 S
C1533 C1534 1.362 . S
C1534 H1526 0.930 . S
C1534 C1533 1.362 . S
C1534 C1537 1.409 . S
C1535 H1527 0.930 . S
C1535 C1536 1.355 . S
C1535 C1537 1.415 . S
C1536 C1535 1.355 . S
C1536 C1538 1.419 . S
C1537 C1532 1.425 . S
C1537 C1534 1.409 . S
C1537 C1535 1.415 . S
C1538 H1528 0.930 . S
C1538 C1536 1.419 . S
C1538 C1539 1.362 . S
C1539 H1529 0.930 . S
C1539 C1532 1.409 . S
C1539 C1538 1.362 . S
H1540 C1546 0.930 . S
H1541 C1549 0.930 . S
H1542 C1550 0.930 . S
H1543 C1551 0.930 . S
H1544 C1554 0.930 . S
H1545 C1555 0.930 . S
C1546 H1540 0.930 . S
C1546 C1547 1.355 . S
C1546 C1548 1.415 . S
C1547 C1546 1.355 . S
C1547 C1549 1.419 . S
C1548 C1546 1.415 . S
C1548 C1553 1.425 . S
C1548 C1555 1.409 . S
C1549 H1541 0.930 . S
C1549 C1547 1.419 . S
C1549 C1550 1.362 . S
C1550 H1542 0.930 . S
C1550 C1549 1.362 . S
C1550 C1553 1.409 . S
C1551 H1543 0.930 . S
C1551 C1552 1.355 . S
C1551 C1553 1.415 . S
C1552 C1551 1.355 . S
C1552 C1554 1.419 . S
C1553 C1548 1.425 . S
C1553 C1550 1.409 . S
C1553 C1551 1.415 . S
C1554 H1544 0.930 . S
C1554 C1552 1.419 . S
C1554 C1555 1.362 . S
C1555 H1545 0.930 . S
C1555 C1548 1.409 . S
C1555 C1554 1.362 . S
H1556 C1562 0.930 . S
H1557 C1565 0.930 . S
H1558 C1566 0.930 . S
H1559 C1567 0.930 . S
H1560 C1570 0.930 . S
H1561 C1571 0.930 . S
C1562 H1556 0.930 . S
C1562 C1563 1.355 . S
C1562 C1564 1.415 1_545 S
C1563 C1562 1.355 . S
C1563 C1565 1.419 . S
C1564 C1562 1.415 1_565 S
C1564 C1569 1.425 . S
C1564 C1571 1.409 . S
C1565 H1557 0.930 . S
C1565 C1563 1.419 . S
C1565 C1566 1.362 1_545 S
C1566 H1558 0.930 . S
C1566 C1565 1.362 1_565 S
C1566 C1569 1.409 . S
C1567 H1559 0.930 . S
C1567 C1568 1.355 . S
C1567 C1569 1.415 . S
C1568 C1567 1.355 . S
C1568 C1570 1.419 . S
C1569 C1564 1.425 . S
C1569 C1566 1.409 . S
C1569 C1567 1.415 . S
C1570 H1560 0.930 . S
C1570 C1568 1.419 . S
C1570 C1571 1.362 . S
C1571 H1561 0.930 . S
C1571 C1564 1.409 . S
C1571 C1570 1.362 . S
H1572 C1578 0.930 . S
H1573 C1581 0.930 . S
H1574 C1582 0.930 . S
H1575 C1583 0.930 . S
H1576 C1586 0.930 . S
H1577 C1587 0.930 . S
C1578 H1572 0.930 . S
C1578 C1579 1.355 . S
C1578 C1580 1.415 . S
C1579 C1578 1.355 . S
C1579 C1581 1.419 . S
C1580 C1578 1.415 . S
C1580 C1585 1.425 . S
C1580 C1587 1.409 . S
C1581 H1573 0.930 . S
C1581 C1579 1.419 . S
C1581 C1582 1.362 . S
C1582 H1574 0.930 . S
C1582 C1581 1.362 . S
C1582 C1585 1.409 . S
C1583 H1575 0.930 . S
C1583 C1584 1.355 . S
C1583 C1585 1.415 . S
C1584 C1583 1.355 . S
C1584 C1586 1.419 . S
C1585 C1580 1.425 . S
C1585 C1582 1.409 . S
C1585 C1583 1.415 . S
C1586 H1576 0.930 . S
C1586 C1584 1.419 . S
C1586 C1587 1.362 . S
C1587 H1577 0.930 . S
C1587 C1580 1.409 . S
C1587 C1586 1.362 . S
H1588 C1594 0.930 . S
H1589 C1597 0.930 . S
H1590 C1598 0.930 . S
H1591 C1599 0.930 . S
H1592 C1602 0.930 . S
H1593 C1603 0.930 . S
C1594 H1588 0.930 . S
C1594 C1595 1.355 . S
C1594 C1596 1.415 . S
C1595 C1594 1.355 . S
C1595 C1597 1.419 . S
C1596 C1594 1.415 . S
C1596 C1601 1.425 . S
C1596 C1603 1.409 . S
C1597 H1589 0.930 . S
C1597 C1595 1.419 . S
C1597 C1598 1.362 . S
C1598 H1590 0.930 . S
C1598 C1597 1.362 . S
C1598 C1601 1.409 . S
C1599 H1591 0.930 . S
C1599 C1600 1.355 . S
C1599 C1601 1.415 . S
C1600 C1599 1.355 . S
C1600 C1602 1.419 . S
C1601 C1596 1.425 . S
C1601 C1598 1.409 . S
C1601 C1599 1.415 . S
C1602 H1592 0.930 . S
C1602 C1600 1.419 . S
C1602 C1603 1.362 . S
C1603 H1593 0.930 . S
C1603 C1596 1.409 . S
C1603 C1602 1.362 . S
H1604 C1610 0.930 . S
H1605 C1613 0.930 . S
H1606 C1614 0.930 . S
H1607 C1615 0.930 . S
H1608 C1618 0.930 . S
H1609 C1619 0.930 . S
C1610 H1604 0.930 . S
C1610 C1611 1.355 . S
C1610 C1612 1.415 . S
C1611 C1610 1.355 . S
C1611 C1613 1.419 . S
C1612 C1610 1.415 . S
C1612 C1617 1.425 . S
C1612 C1619 1.409 . S
C1613 H1605 0.930 . S
C1613 C1611 1.419 . S
C1613 C1614 1.362 . S
C1614 H1606 0.930 . S
C1614 C1613 1.362 . S
C1614 C1617 1.409 . S
C1615 H1607 0.930 . S
C1615 C1616 1.355 . S
C1615 C1617 1.415 . S
C1616 C1615 1.355 . S
C1616 C1618 1.419 . S
C1617 C1612 1.425 . S
C1617 C1614 1.409 . S
C1617 C1615 1.415 . S
C1618 H1608 0.930 . S
C1618 C1616 1.419 . S
C1618 C1619 1.362 . S
C1619 H1609 0.930 . S
C1619 C1612 1.409 . S
C1619 C1618 1.362 . S
H1620 C1626 0.930 . S
H1621 C1629 0.930 . S
H1622 C1630 0.930 . S
H1623 C1631 0.930 . S
H1624 C1634 0.930 . S
H1625 C1635 0.930 . S
C1626 H1620 0.930 . S
C1626 C1627 1.355 . S
C1626 C1628 1.415 . S
C1627 C1626 1.355 . S
C1627 C1629 1.419 . S
C1628 C1626 1.415 . S
C1628 C1633 1.425 . S
C1628 C1635 1.409 . S
C1629 H1621 0.930 . S
C1629 C1627 1.419 . S
C1629 C1630 1.362 . S
C1630 H1622 0.930 . S
C1630 C1629 1.362 . S
C1630 C1633 1.409 . S
C1631 H1623 0.930 . S
C1631 C1632 1.355 . S
C1631 C1633 1.415 . S
C1632 C1631 1.355 . S
C1632 C1634 1.419 . S
C1633 C1628 1.425 . S
C1633 C1630 1.409 . S
C1633 C1631 1.415 . S
C1634 H1624 0.930 . S
C1634 C1632 1.419 . S
C1634 C1635 1.362 . S
C1635 H1625 0.930 . S
C1635 C1628 1.409 . S
C1635 C1634 1.362 . S
H1636 C1642 0.930 . S
H1637 C1645 0.930 . S
H1638 C1646 0.930 . S
H1639 C1647 0.930 . S
H1640 C1650 0.930 . S
H1641 C1651 0.930 . S
C1642 H1636 0.930 . S
C1642 C1643 1.355 . S
C1642 C1644 1.415 . S
C1643 C1642 1.355 . S
C1643 C1645 1.419 . S
C1644 C1642 1.415 . S
C1644 C1649 1.425 . S
C1644 C1651 1.409 . S
C1645 H1637 0.930 . S
C1645 C1643 1.419 . S
C1645 C1646 1.362 . S
C1646 H1638 0.930 . S
C1646 C1645 1.362 . S
C1646 C1649 1.409 . S
C1647 H1639 0.930 . S
C1647 C1648 1.355 . S
C1647 C1649 1.415 . S
C1648 C1647 1.355 . S
C1648 C1650 1.419 . S
C1649 C1644 1.425 . S
C1649 C1646 1.409 . S
C1649 C1647 1.415 . S
C1650 H1640 0.930 . S
C1650 C1648 1.419 . S
C1650 C1651 1.362 . S
C1651 H1641 0.930 . S
C1651 C1644 1.409 . S
C1651 C1650 1.362 . S
H1652 C1658 0.930 . S
H1653 C1661 0.930 . S
H1654 C1662 0.930 . S
H1655 C1663 0.930 . S
H1656 C1666 0.930 . S
H1657 C1667 0.930 . S
C1658 H1652 0.930 . S
C1658 C1659 1.355 . S
C1658 C1660 1.415 . S
C1659 C1658 1.355 . S
C1659 C1661 1.419 . S
C1660 C1658 1.415 . S
C1660 C1665 1.425 . S
C1660 C1667 1.409 . S
C1661 H1653 0.930 . S
C1661 C1659 1.419 . S
C1661 C1662 1.362 . S
C1662 H1654 0.930 . S
C1662 C1661 1.362 . S
C1662 C1665 1.409 . S
C1663 H1655 0.930 . S
C1663 C1664 1.355 . S
C1663 C1665 1.415 . S
C1664 C1663 1.355 . S
C1664 C1666 1.419 . S
C1665 C1660 1.425 . S
C1665 C1662 1.409 . S
C1665 C1663 1.415 . S
C1666 H1656 0.930 . S
C1666 C1664 1.419 . S
C1666 C1667 1.362 . S
C1667 H1657 0.930 . S
C1667 C1660 1.409 . S
C1667 C1666 1.362 . S
H1668 C1674 0.930 . S
H1669 C1677 0.930 1_545 S
H1670 C1678 0.930 . S
H1671 C1679 0.930 . S
H1672 C1682 0.930 . S
H1673 C1683 0.930 . S
C1674 H1668 0.930 . S
C1674 C1675 1.355 . S
C1674 C1676 1.415 1_545 S
C1675 C1674 1.355 . S
C1675 C1677 1.419 1_545 S
C1676 C1674 1.415 1_565 S
C1676 C1681 1.425 . S
C1676 C1683 1.409 . S
C1677 H1669 0.930 1_565 S
C1677 C1675 1.419 1_565 S
C1677 C1678 1.362 . S
C1678 H1670 0.930 . S
C1678 C1677 1.362 . S
C1678 C1681 1.409 . S
C1679 H1671 0.930 . S
C1679 C1680 1.355 . S
C1679 C1681 1.415 . S
C1680 C1679 1.355 . S
C1680 C1682 1.419 . S
C1681 C1676 1.425 . S
C1681 C1678 1.409 . S
C1681 C1679 1.415 . S
C1682 H1672 0.930 . S
C1682 C1680 1.419 . S
C1682 C1683 1.362 . S
C1683 H1673 0.930 . S
C1683 C1676 1.409 . S
C1683 C1682 1.362 . S
H1684 C1690 0.930 . S
H1685 C1693 0.930 . S
H1686 C1694 0.930 . S
H1687 C1695 0.930 . S
H1688 C1698 0.930 . S
H1689 C1699 0.930 . S
C1690 H1684 0.930 . S
C1690 C1691 1.355 1_455 S
C1690 C1692 1.415 . S
C1691 C1690 1.355 1_655 S
C1691 C1693 1.419 . S
C1692 C1690 1.415 . S
C1692 C1697 1.425 . S
C1692 C1699 1.409 . S
C1693 H1685 0.930 . S
C1693 C1691 1.419 . S
C1693 C1694 1.362 1_655 S
C1694 H1686 0.930 . S
C1694 C1693 1.362 1_455 S
C1694 C1697 1.409 . S
C1695 H1687 0.930 . S
C1695 C1696 1.355 . S
C1695 C1697 1.415 . S
C1696 C1695 1.355 . S
C1696 C1698 1.419 . S
C1697 C1692 1.425 . S
C1697 C1694 1.409 . S
C1697 C1695 1.415 . S
C1698 H1688 0.930 . S
C1698 C1696 1.419 . S
C1698 C1699 1.362 . S
C1699 H1689 0.930 . S
C1699 C1692 1.409 . S
C1699 C1698 1.362 . S
H1700 C1706 0.930 . S
H1701 C1709 0.930 . S
H1702 C1710 0.930 . S
H1703 C1711 0.930 . S
H1704 C1714 0.930 . S
H1705 C1715 0.930 . S
C1706 H1700 0.930 . S
C1706 C1707 1.355 . S
C1706 C1708 1.415 . S
C1707 C1706 1.355 . S
C1707 C1709 1.419 . S
C1708 C1706 1.415 . S
C1708 C1713 1.425 . S
C1708 C1715 1.409 . S
C1709 H1701 0.930 . S
C1709 C1707 1.419 . S
C1709 C1710 1.362 . S
C1710 H1702 0.930 . S
C1710 C1709 1.362 . S
C1710 C1713 1.409 . S
C1711 H1703 0.930 . S
C1711 C1712 1.355 . S
C1711 C1713 1.415 . S
C1712 C1711 1.355 . S
C1712 C1714 1.419 . S
C1713 C1708 1.425 . S
C1713 C1710 1.409 . S
C1713 C1711 1.415 . S
C1714 H1704 0.930 . S
C1714 C1712 1.419 . S
C1714 C1715 1.362 . S
C1715 H1705 0.930 . S
C1715 C1708 1.409 . S
C1715 C1714 1.362 . S
H1716 C1722 0.930 . S
H1717 C1725 0.930 . S
H1718 C1726 0.930 . S
H1719 C1727 0.930 . S
H1720 C1730 0.930 . S
H1721 C1731 0.930 . S
C1722 H1716 0.930 . S
C1722 C1723 1.355 . S
C1722 C1724 1.415 . S
C1723 C1722 1.355 . S
C1723 C1725 1.419 . S
C1724 C1722 1.415 . S
C1724 C1729 1.425 . S
C1724 C1731 1.409 . S
C1725 H1717 0.930 . S
C1725 C1723 1.419 . S
C1725 C1726 1.362 . S
C1726 H1718 0.930 . S
C1726 C1725 1.362 . S
C1726 C1729 1.409 . S
C1727 H1719 0.930 . S
C1727 C1728 1.355 . S
C1727 C1729 1.415 . S
C1728 C1727 1.355 . S
C1728 C1730 1.419 . S
C1729 C1724 1.425 . S
C1729 C1726 1.409 . S
C1729 C1727 1.415 . S
C1730 H1720 0.930 . S
C1730 C1728 1.419 . S
C1730 C1731 1.362 . S
C1731 H1721 0.930 . S
C1731 C1724 1.409 . S
C1731 C1730 1.362 . S
H1732 C1738 0.930 . S
H1733 C1741 0.930 . S
H1734 C1742 0.930 . S
H1735 C1743 0.930 . S
H1736 C1746 0.930 . S
H1737 C1747 0.930 . S
C1738 H1732 0.930 . S
C1738 C1739 1.355 . S
C1738 C1740 1.415 . S
C1739 C1738 1.355 . S
C1739 C1741 1.419 . S
C1740 C1738 1.415 . S
C1740 C1745 1.425 . S
C1740 C1747 1.409 . S
C1741 H1733 0.930 . S
C1741 C1739 1.419 . S
C1741 C1742 1.362 . S
C1742 H1734 0.930 . S
C1742 C1741 1.362 . S
C1742 C1745 1.409 . S
C1743 H1735 0.930 . S
C1743 C1744 1.355 . S
C1743 C1745 1.415 . S
C1744 C1743 1.355 . S
C1744 C1746 1.419 . S
C1745 C1740 1.425 . S
C1745 C1742 1.409 . S
C1745 C1743 1.415 . S
C1746 H1736 0.930 . S
C1746 C1744 1.419 . S
C1746 C1747 1.362 . S
C1747 H1737 0.930 . S
C1747 C1740 1.409 . S
C1747 C1746 1.362 . S
H1748 C1754 0.930 . S
H1749 C1757 0.930 . S
H1750 C1758 0.930 . S
H1751 C1759 0.930 . S
H1752 C1762 0.930 . S
H1753 C1763 0.930 . S
C1754 H1748 0.930 . S
C1754 C1755 1.355 . S
C1754 C1756 1.415 . S
C1755 C1754 1.355 . S
C1755 C1757 1.419 . S
C1756 C1754 1.415 . S
C1756 C1761 1.425 . S
C1756 C1763 1.409 . S
C1757 H1749 0.930 . S
C1757 C1755 1.419 . S
C1757 C1758 1.362 . S
C1758 H1750 0.930 . S
C1758 C1757 1.362 . S
C1758 C1761 1.409 . S
C1759 H1751 0.930 . S
C1759 C1760 1.355 . S
C1759 C1761 1.415 . S
C1760 C1759 1.355 . S
C1760 C1762 1.419 . S
C1761 C1756 1.425 . S
C1761 C1758 1.409 . S
C1761 C1759 1.415 . S
C1762 H1752 0.930 . S
C1762 C1760 1.419 . S
C1762 C1763 1.362 . S
C1763 H1753 0.930 . S
C1763 C1756 1.409 . S
C1763 C1762 1.362 . S
H1764 C1770 0.930 1_565 S
H1765 C1773 0.907 1_565 S
H1766 C1774 0.930 . S
H1767 C1775 0.930 . S
H1768 C1778 0.930 . S
H1769 C1779 0.930 . S
C1770 H1764 0.930 1_545 S
C1770 C1771 1.355 1_545 S
C1770 C1772 1.415 . S
C1771 C1770 1.355 1_565 S
C1771 C1773 1.417 1_565 S
C1772 C1770 1.415 . S
C1772 C1777 1.425 . S
C1772 C1779 1.409 . S
C1773 H1765 0.907 1_545 S
C1773 C1771 1.417 1_545 S
C1773 C1774 1.388 . S
C1774 H1766 0.930 . S
C1774 C1773 1.388 . S
C1774 C1777 1.409 . S
C1775 H1767 0.930 . S
C1775 C1776 1.355 . S
C1775 C1777 1.415 . S
C1776 C1775 1.355 . S
C1776 C1778 1.419 . S
C1777 C1772 1.425 . S
C1777 C1774 1.409 . S
C1777 C1775 1.415 . S
C1778 H1768 0.930 . S
C1778 C1776 1.419 . S
C1778 C1779 1.362 . S
C1779 H1769 0.930 . S
C1779 C1772 1.409 . S
C1779 C1778 1.362 . S
H1780 C1786 0.924 1_455 S
H1781 C1789 0.930 . S
H1782 C1790 0.930 . S
H1783 C1791 0.930 . S
H1784 C1794 0.930 . S
H1785 C1795 0.930 . S
C1786 H1780 0.924 1_655 S
C1786 C1787 1.352 1_655 S
C1786 C1788 1.422 . S
C1787 C1786 1.352 1_455 S
C1787 C1789 1.419 1_455 S
C1788 C1786 1.422 . S
C1788 C1793 1.425 . S
C1788 C1795 1.409 . S
C1789 H1781 0.930 . S
C1789 C1787 1.419 1_655 S
C1789 C1790 1.362 . S
C1790 H1782 0.930 . S
C1790 C1789 1.362 . S
C1790 C1793 1.409 . S
C1791 H1783 0.930 . S
C1791 C1792 1.355 . S
C1791 C1793 1.415 . S
C1792 C1791 1.355 . S
C1792 C1794 1.419 . S
C1793 C1788 1.425 . S
C1793 C1790 1.409 . S
C1793 C1791 1.415 . S
C1794 H1784 0.930 . S
C1794 C1792 1.419 . S
C1794 C1795 1.362 . S
C1795 H1785 0.930 . S
C1795 C1788 1.409 . S
C1795 C1794 1.362 . S
H1796 C1802 0.930 . S
H1797 C1805 0.930 . S
H1798 C1806 0.930 . S
H1799 C1807 0.930 . S
H1800 C1810 0.930 . S
H1801 C1811 0.930 . S
C1802 H1796 0.930 . S
C1802 C1803 1.355 . S
C1802 C1804 1.415 . S
C1803 C1802 1.355 . S
C1803 C1805 1.419 . S
C1804 C1802 1.415 . S
C1804 C1809 1.425 . S
C1804 C1811 1.409 . S
C1805 H1797 0.930 . S
C1805 C1803 1.419 . S
C1805 C1806 1.362 . S
C1806 H1798 0.930 . S
C1806 C1805 1.362 . S
C1806 C1809 1.409 . S
C1807 H1799 0.930 . S
C1807 C1808 1.355 . S
C1807 C1809 1.415 . S
C1808 C1807 1.355 . S
C1808 C1810 1.419 . S
C1809 C1804 1.425 . S
C1809 C1806 1.409 . S
C1809 C1807 1.415 . S
C1810 H1800 0.930 . S
C1810 C1808 1.419 . S
C1810 C1811 1.362 . S
C1811 H1801 0.930 . S
C1811 C1804 1.409 . S
C1811 C1810 1.362 . S
H1812 C1818 0.930 1_455 S
H1813 C1821 0.928 . S
H1814 C1822 0.930 . S
H1815 C1823 0.930 . S
H1816 C1826 0.930 . S
H1817 C1827 0.930 . S
C1818 H1812 0.930 1_655 S
C1818 C1819 1.355 1_655 S
C1818 C1820 1.415 . S
C1819 C1818 1.355 1_455 S
C1819 C1821 1.419 1_455 S
C1820 C1818 1.415 . S
C1820 C1825 1.425 . S
C1820 C1827 1.409 . S
C1821 H1813 0.928 . S
C1821 C1819 1.419 1_655 S
C1821 C1822 1.362 . S
C1822 H1814 0.930 . S
C1822 C1821 1.362 . S
C1822 C1825 1.409 . S
C1823 H1815 0.930 . S
C1823 C1824 1.355 . S
C1823 C1825 1.415 . S
C1824 C1823 1.355 . S
C1824 C1826 1.419 . S
C1825 C1820 1.425 . S
C1825 C1822 1.409 . S
C1825 C1823 1.415 . S
C1826 H1816 0.930 . S
C1826 C1824 1.419 . S
C1826 C1827 1.362 . S
C1827 H1817 0.930 . S
C1827 C1820 1.409 . S
C1827 C1826 1.362 . S
H1828 C1834 0.930 . S
H1829 C1837 0.930 . S
H1830 C1838 0.930 . S
H1831 C1839 0.930 . S
H1832 C1842 0.930 . S
H1833 C1843 0.930 . S
C1834 H1828 0.930 . S
C1834 C1835 1.355 . S
C1834 C1836 1.415 . S
C1835 C1834 1.355 . S
C1835 C1837 1.419 . S
C1836 C1834 1.415 . S
C1836 C1841 1.425 . S
C1836 C1843 1.409 . S
C1837 H1829 0.930 . S
C1837 C1835 1.419 . S
C1837 C1838 1.362 . S
C1838 H1830 0.930 . S
C1838 C1837 1.362 . S
C1838 C1841 1.409 . S
C1839 H1831 0.930 . S
C1839 C1840 1.355 . S
C1839 C1841 1.415 . S
C1840 C1839 1.355 . S
C1840 C1842 1.419 . S
C1841 C1836 1.425 . S
C1841 C1838 1.409 . S
C1841 C1839 1.415 . S
C1842 H1832 0.930 . S
C1842 C1840 1.419 . S
C1842 C1843 1.362 . S
C1843 H1833 0.930 . S
C1843 C1836 1.409 . S
C1843 C1842 1.362 . S
H1844 C1850 0.930 . S
H1845 C1853 0.930 . S
H1846 C1854 0.930 . S
H1847 C1855 0.930 . S
H1848 C1858 0.930 . S
H1849 C1859 0.930 . S
C1850 H1844 0.930 . S
C1850 C1851 1.355 1_545 S
C1850 C1852 1.415 . S
C1851 C1850 1.355 1_565 S
C1851 C1853 1.419 . S
C1852 C1850 1.415 . S
C1852 C1857 1.425 . S
C1852 C1859 1.409 . S
C1853 H1845 0.930 . S
C1853 C1851 1.419 . S
C1853 C1854 1.362 1_565 S
C1854 H1846 0.930 . S
C1854 C1853 1.362 1_545 S
C1854 C1857 1.409 . S
C1855 H1847 0.930 . S
C1855 C1856 1.355 . S
C1855 C1857 1.415 . S
C1856 C1855 1.355 . S
C1856 C1858 1.419 . S
C1857 C1852 1.425 . S
C1857 C1854 1.409 . S
C1857 C1855 1.415 . S
C1858 H1848 0.930 . S
C1858 C1856 1.419 . S
C1858 C1859 1.362 . S
C1859 H1849 0.930 . S
C1859 C1852 1.409 . S
C1859 C1858 1.362 . S
H1860 C1866 0.930 . S
H1861 C1869 0.930 . S
H1862 C1870 0.930 . S
H1863 C1871 0.930 . S
H1864 C1874 0.930 . S
H1865 C1875 0.930 . S
C1866 H1860 0.930 . S
C1866 C1867 1.355 . S
C1866 C1868 1.415 . S
C1867 C1866 1.355 . S
C1867 C1869 1.419 . S
C1868 C1866 1.415 . S
C1868 C1873 1.425 . S
C1868 C1875 1.409 . S
C1869 H1861 0.930 . S
C1869 C1867 1.419 . S
C1869 C1870 1.362 . S
C1870 H1862 0.930 . S
C1870 C1869 1.362 . S
C1870 C1873 1.409 . S
C1871 H1863 0.930 . S
C1871 C1872 1.355 . S
C1871 C1873 1.415 . S
C1872 C1871 1.355 . S
C1872 C1874 1.419 . S
C1873 C1868 1.425 . S
C1873 C1870 1.409 . S
C1873 C1871 1.415 . S
C1874 H1864 0.930 . S
C1874 C1872 1.419 . S
C1874 C1875 1.362 . S
C1875 H1865 0.930 . S
C1875 C1868 1.409 . S
C1875 C1874 1.362 . S
H1876 C1882 0.930 . S
H1877 C1885 0.930 . S
H1878 C1886 0.930 . S
H1879 C1887 0.930 . S
H1880 C1890 0.930 . S
H1881 C1891 0.930 . S
C1882 H1876 0.930 . S
C1882 C1883 1.355 . S
C1882 C1884 1.415 . S
C1883 C1882 1.355 . S
C1883 C1885 1.419 . S
C1884 C1882 1.415 . S
C1884 C1889 1.425 . S
C1884 C1891 1.409 . S
C1885 H1877 0.930 . S
C1885 C1883 1.419 . S
C1885 C1886 1.362 . S
C1886 H1878 0.930 . S
C1886 C1885 1.362 . S
C1886 C1889 1.409 . S
C1887 H1879 0.930 . S
C1887 C1888 1.355 . S
C1887 C1889 1.415 . S
C1888 C1887 1.355 . S
C1888 C1890 1.419 . S
C1889 C1884 1.425 . S
C1889 C1886 1.409 . S
C1889 C1887 1.415 . S
C1890 H1880 0.930 . S
C1890 C1888 1.419 . S
C1890 C1891 1.362 . S
C1891 H1881 0.930 . S
C1891 C1884 1.409 . S
C1891 C1890 1.362 . S
H1892 C1898 0.930 . S
H1893 C1901 0.930 . S
H1894 C1902 0.930 . S
H1895 C1903 0.930 . S
H1896 C1906 0.930 . S
H1897 C1907 0.930 . S
C1898 H1892 0.930 . S
C1898 C1899 1.355 . S
C1898 C1900 1.415 . S
C1899 C1898 1.355 . S
C1899 C1901 1.419 . S
C1900 C1898 1.415 . S
C1900 C1905 1.425 . S
C1900 C1907 1.409 . S
C1901 H1893 0.930 . S
C1901 C1899 1.419 . S
C1901 C1902 1.362 . S
C1902 H1894 0.930 . S
C1902 C1901 1.362 . S
C1902 C1905 1.409 . S
C1903 H1895 0.930 . S
C1903 C1904 1.355 . S
C1903 C1905 1.415 . S
C1904 C1903 1.355 . S
C1904 C1906 1.419 . S
C1905 C1900 1.425 . S
C1905 C1902 1.409 . S
C1905 C1903 1.415 . S
C1906 H1896 0.930 . S
C1906 C1904 1.419 . S
C1906 C1907 1.362 . S
C1907 H1897 0.930 . S
C1907 C1900 1.409 . S
C1907 C1906 1.362 . S
H1908 C1914 0.930 . S
H1909 C1917 0.930 . S
H1910 C1918 0.930 . S
H1911 C1919 0.930 . S
H1912 C1922 0.930 . S
H1913 C1923 0.930 . S
C1914 H1908 0.930 . S
C1914 C1915 1.355 . S
C1914 C1916 1.415 . S
C1915 C1914 1.355 . S
C1915 C1917 1.419 . S
C1916 C1914 1.415 . S
C1916 C1921 1.425 . S
C1916 C1923 1.409 . S
C1917 H1909 0.930 . S
C1917 C1915 1.419 . S
C1917 C1918 1.362 . S
C1918 H1910 0.930 . S
C1918 C1917 1.362 . S
C1918 C1921 1.409 . S
C1919 H1911 0.930 . S
C1919 C1920 1.355 . S
C1919 C1921 1.415 . S
C1920 C1919 1.355 . S
C1920 C1922 1.419 . S
C1921 C1916 1.425 . S
C1921 C1918 1.409 . S
C1921 C1919 1.415 . S
C1922 H1912 0.930 . S
C1922 C1920 1.419 . S
C1922 C1923 1.362 . S
C1923 H1913 0.930 . S
C1923 C1916 1.409 . S
C1923 C1922 1.362 . S
H1924 C1930 0.930 . S
H1925 C1933 0.930 . S
H1926 C1934 0.930 . S
H1927 C1935 0.930 . S
H1928 C1938 0.930 1_655 S
H1929 C1939 0.930 1_655 S
C1930 H1924 0.930 . S
C1930 C1931 1.355 . S
C1930 C1932 1.415 . S
C1931 C1930 1.355 . S
C1931 C1933 1.419 . S
C1932 C1930 1.415 . S
C1932 C1937 1.425 . S
C1932 C1939 1.409 . S
C1933 H1925 0.930 . S
C1933 C1931 1.419 . S
C1933 C1934 1.362 . S
C1934 H1926 0.930 . S
C1934 C1933 1.362 . S
C1934 C1937 1.409 . S
C1935 H1927 0.930 . S
C1935 C1936 1.355 . S
C1935 C1937 1.415 . S
C1936 C1935 1.355 . S
C1936 C1938 1.419 . S
C1937 C1932 1.425 . S
C1937 C1934 1.409 . S
C1937 C1935 1.415 . S
C1938 H1928 0.930 1_455 S
C1938 C1936 1.419 . S
C1938 C1939 1.362 . S
C1939 H1929 0.930 1_455 S
C1939 C1932 1.409 . S
C1939 C1938 1.362 . S
H1940 C1946 0.930 . S
H1941 C1949 0.930 . S
H1942 C1950 0.930 . S
H1943 C1951 0.930 . S
H1944 C1954 0.930 . S
H1945 C1955 0.930 . S
C1946 H1940 0.930 . S
C1946 C1947 1.355 . S
C1946 C1948 1.415 . S
C1947 C1946 1.355 . S
C1947 C1949 1.419 . S
C1948 C1946 1.415 . S
C1948 C1953 1.425 . S
C1948 C1955 1.409 . S
C1949 H1941 0.930 . S
C1949 C1947 1.419 . S
C1949 C1950 1.362 . S
C1950 H1942 0.930 . S
C1950 C1949 1.362 . S
C1950 C1953 1.409 . S
C1951 H1943 0.930 . S
C1951 C1952 1.355 . S
C1951 C1953 1.415 . S
C1952 C1951 1.355 . S
C1952 C1954 1.419 . S
C1953 C1948 1.425 . S
C1953 C1950 1.409 . S
C1953 C1951 1.415 . S
C1954 H1944 0.930 . S
C1954 C1952 1.419 . S
C1954 C1955 1.362 . S
C1955 H1945 0.930 . S
C1955 C1948 1.409 . S
C1955 C1954 1.362 . S
H1956 C1962 0.930 . S
H1957 C1965 0.930 . S
H1958 C1966 0.930 . S
H1959 C1967 0.930 . S
H1960 C1970 0.930 1_455 S
H1961 C1971 0.938 . S
C1962 H1956 0.930 . S
C1962 C1963 1.355 . S
C1962 C1964 1.415 . S
C1963 C1962 1.355 . S
C1963 C1965 1.419 . S
C1964 C1962 1.415 . S
C1964 C1969 1.425 . S
C1964 C1971 1.409 . S
C1965 H1957 0.930 . S
C1965 C1963 1.419 . S
C1965 C1966 1.362 . S
C1966 H1958 0.930 . S
C1966 C1965 1.362 . S
C1966 C1969 1.409 . S
C1967 H1959 0.930 . S
C1967 C1968 1.355 . S
C1967 C1969 1.415 . S
C1968 C1967 1.355 . S
C1968 C1970 1.419 . S
C1969 C1964 1.425 . S
C1969 C1966 1.409 . S
C1969 C1967 1.415 . S
C1970 H1960 0.930 1_655 S
C1970 C1968 1.419 . S
C1970 C1971 1.362 . S
C1971 H1961 0.938 . S
C1971 C1964 1.409 . S
C1971 C1970 1.362 . S
H1972 C1978 0.930 . S
H1973 C1981 0.930 . S
H1974 C1982 0.930 . S
H1975 C1983 0.930 . S
H1976 C1986 0.930 . S
H1977 C1987 0.930 . S
C1978 H1972 0.930 . S
C1978 C1979 1.355 . S
C1978 C1980 1.415 . S
C1979 C1978 1.355 . S
C1979 C1981 1.419 . S
C1980 C1978 1.415 . S
C1980 C1985 1.425 . S
C1980 C1987 1.409 . S
C1981 H1973 0.930 . S
C1981 C1979 1.419 . S
C1981 C1982 1.362 . S
C1982 H1974 0.930 . S
C1982 C1981 1.362 . S
C1982 C1985 1.409 . S
C1983 H1975 0.930 . S
C1983 C1984 1.355 . S
C1983 C1985 1.415 . S
C1984 C1983 1.355 . S
C1984 C1986 1.419 . S
C1985 C1980 1.425 . S
C1985 C1982 1.409 . S
C1985 C1983 1.415 . S
C1986 H1976 0.930 . S
C1986 C1984 1.419 . S
C1986 C1987 1.362 . S
C1987 H1977 0.930 . S
C1987 C1980 1.409 . S
C1987 C1986 1.362 . S
H1988 C1994 0.930 . S
H1989 C1997 0.930 . S
H1990 C1998 0.930 . S
H1991 C1999 0.930 . S
H1992 C2002 0.930 1_565 S
H1993 C2003 0.930 . S
C1994 H1988 0.930 . S
C1994 C1995 1.355 . S
C1994 C1996 1.415 . S
C1995 C1994 1.355 . S
C1995 C1997 1.419 . S
C1996 C1994 1.415 . S
C1996 C2001 1.425 . S
C1996 C2003 1.409 . S
C1997 H1989 0.930 . S
C1997 C1995 1.419 . S
C1997 C1998 1.362 . S
C1998 H1990 0.930 . S
C1998 C1997 1.362 . S
C1998 C2001 1.409 . S
C1999 H1991 0.930 . S
C1999 C2000 1.355 . S
C1999 C2001 1.415 . S
C2000 C1999 1.355 . S
C2000 C2002 1.419 . S
C2001 C1996 1.425 . S
C2001 C1998 1.409 . S
C2001 C1999 1.415 . S
C2002 H1992 0.930 1_545 S
C2002 C2000 1.419 . S
C2002 C2003 1.362 . S
C2003 H1993 0.930 . S
C2003 C1996 1.409 . S
C2003 C2002 1.362 . S
H2004 C2010 0.930 . S
H2005 C2013 0.930 . S
H2006 C2014 0.930 . S
H2007 C2015 0.930 . S
H2008 C2018 0.930 . S
H2009 C2019 0.930 . S
C2010 H2004 0.930 . S
C2010 C2011 1.355 . S
C2010 C2012 1.415 . S
C2011 C2010 1.355 . S
C2011 C2013 1.419 . S
C2012 C2010 1.415 . S
C2012 C2017 1.425 . S
C2012 C2019 1.409 . S
C2013 H2005 0.930 . S
C2013 C2011 1.419 . S
C2013 C2014 1.362 . S
C2014 H2006 0.930 . S
C2014 C2013 1.362 . S
C2014 C2017 1.409 . S
C2015 H2007 0.930 . S
C2015 C2016 1.355 . S
C2015 C2017 1.415 . S
C2016 C2015 1.355 . S
C2016 C2018 1.419 . S
C2017 C2012 1.425 . S
C2017 C2014 1.409 . S
C2017 C2015 1.415 . S
C2018 H2008 0.930 . S
C2018 C2016 1.419 . S
C2018 C2019 1.362 . S
C2019 H2009 0.930 . S
C2019 C2012 1.409 . S
C2019 C2018 1.362 . S
H2020 C2026 0.930 . S
H2021 C2029 0.930 . S
H2022 C2030 0.930 . S
H2023 C2031 0.930 . S
H2024 C2034 0.930 . S
H2025 C2035 0.930 . S
C2026 H2020 0.930 . S
C2026 C2027 1.355 . S
C2026 C2028 1.415 . S
C2027 C2026 1.355 . S
C2027 C2029 1.419 . S
C2028 C2026 1.415 . S
C2028 C2033 1.425 . S
C2028 C2035 1.409 . S
C2029 H2021 0.930 . S
C2029 C2027 1.419 . S
C2029 C2030 1.362 . S
C2030 H2022 0.930 . S
C2030 C2029 1.362 . S
C2030 C2033 1.409 . S
C2031 H2023 0.930 . S
C2031 C2032 1.355 . S
C2031 C2033 1.415 . S
C2032 C2031 1.355 . S
C2032 C2034 1.419 . S
C2033 C2028 1.425 . S
C2033 C2030 1.409 . S
C2033 C2031 1.415 . S
C2034 H2024 0.930 . S
C2034 C2032 1.419 . S
C2034 C2035 1.362 . S
C2035 H2025 0.930 . S
C2035 C2028 1.409 . S
C2035 C2034 1.362 . S
H2036 C2042 0.930 . S
H2037 C2045 0.930 . S
H2038 C2046 0.930 . S
H2039 C2047 0.930 . S
H2040 C2050 0.930 . S
H2041 C2051 0.930 . S
C2042 H2036 0.930 . S
C2042 C2043 1.355 . S
C2042 C2044 1.415 . S
C2043 C2042 1.355 . S
C2043 C2045 1.419 . S
C2044 C2042 1.415 . S
C2044 C2049 1.425 . S
C2044 C2051 1.409 . S
C2045 H2037 0.930 . S
C2045 C2043 1.419 . S
C2045 C2046 1.362 . S
C2046 H2038 0.930 . S
C2046 C2045 1.362 . S
C2046 C2049 1.409 . S
C2047 H2039 0.930 . S
C2047 C2048 1.355 . S
C2047 C2049 1.415 . S
C2048 C2047 1.355 . S
C2048 C2050 1.419 . S
C2049 C2044 1.425 . S
C2049 C2046 1.409 . S
C2049 C2047 1.415 . S
C2050 H2040 0.930 . S
C2050 C2048 1.419 . S
C2050 C2051 1.362 . S
C2051 H2041 0.930 . S
C2051 C2044 1.409 . S
C2051 C2050 1.362 . S
H2052 C2058 0.930 . S
H2053 C2061 0.930 . S
H2054 C2062 0.930 . S
H2055 C2063 0.930 . S
H2056 C2066 0.930 . S
H2057 C2067 0.930 . S
C2058 H2052 0.930 . S
C2058 C2059 1.355 . S
C2058 C2060 1.415 . S
C2059 C2058 1.355 . S
C2059 C2061 1.419 . S
C2060 C2058 1.415 . S
C2060 C2065 1.425 . S
C2060 C2067 1.409 . S
C2061 H2053 0.930 . S
C2061 C2059 1.419 . S
C2061 C2062 1.362 . S
C2062 H2054 0.930 . S
C2062 C2061 1.362 . S
C2062 C2065 1.409 . S
C2063 H2055 0.930 . S
C2063 C2064 1.355 . S
C2063 C2065 1.415 . S
C2064 C2063 1.355 . S
C2064 C2066 1.419 . S
C2065 C2060 1.425 . S
C2065 C2062 1.409 . S
C2065 C2063 1.415 . S
C2066 H2056 0.930 . S
C2066 C2064 1.419 . S
C2066 C2067 1.362 . S
C2067 H2057 0.930 . S
C2067 C2060 1.409 . S
C2067 C2066 1.362 . S
H2068 C2074 0.930 . S
H2069 C2077 0.930 . S
H2070 C2078 0.930 . S
H2071 C2079 0.930 . S
H2072 C2082 0.930 . S
H2073 C2083 0.930 . S
C2074 H2068 0.930 . S
C2074 C2075 1.355 . S
C2074 C2076 1.415 . S
C2075 C2074 1.355 . S
C2075 C2077 1.419 . S
C2076 C2074 1.415 . S
C2076 C2081 1.425 . S
C2076 C2083 1.409 . S
C2077 H2069 0.930 . S
C2077 C2075 1.419 . S
C2077 C2078 1.362 . S
C2078 H2070 0.930 . S
C2078 C2077 1.362 . S
C2078 C2081 1.409 . S
C2079 H2071 0.930 . S
C2079 C2080 1.355 . S
C2079 C2081 1.415 . S
C2080 C2079 1.355 . S
C2080 C2082 1.419 . S
C2081 C2076 1.425 . S
C2081 C2078 1.409 . S
C2081 C2079 1.415 . S
C2082 H2072 0.930 . S
C2082 C2080 1.419 . S
C2082 C2083 1.362 . S
C2083 H2073 0.930 . S
C2083 C2076 1.409 . S
C2083 C2082 1.362 . S
H2084 C2090 0.930 . S
H2085 C2093 0.930 . S
H2086 C2094 0.930 . S
H2087 C2095 0.930 . S
H2088 C2098 0.930 . S
H2089 C2099 0.930 . S
C2090 H2084 0.930 . S
C2090 C2091 1.355 . S
C2090 C2092 1.415 . S
C2091 C2090 1.355 . S
C2091 C2093 1.419 . S
C2092 C2090 1.415 . S
C2092 C2097 1.425 . S
C2092 C2099 1.409 . S
C2093 H2085 0.930 . S
C2093 C2091 1.419 . S
C2093 C2094 1.362 . S
C2094 H2086 0.930 . S
C2094 C2093 1.362 . S
C2094 C2097 1.409 . S
C2095 H2087 0.930 . S
C2095 C2096 1.355 . S
C2095 C2097 1.415 . S
C2096 C2095 1.355 . S
C2096 C2098 1.419 . S
C2097 C2092 1.425 . S
C2097 C2094 1.409 . S
C2097 C2095 1.415 . S
C2098 H2088 0.930 . S
C2098 C2096 1.419 . S
C2098 C2099 1.362 . S
C2099 H2089 0.930 . S
C2099 C2092 1.409 . S
C2099 C2098 1.362 . S
H2100 C2106 0.930 . S
H2101 C2109 0.930 . S
H2102 C2110 0.930 . S
H2103 C2111 0.930 . S
H2104 C2114 0.930 . S
H2105 C2115 0.930 . S
C2106 H2100 0.930 . S
C2106 C2107 1.355 . S
C2106 C2108 1.415 . S
C2107 C2106 1.355 . S
C2107 C2109 1.419 . S
C2108 C2106 1.415 . S
C2108 C2113 1.425 . S
C2108 C2115 1.409 . S
C2109 H2101 0.930 . S
C2109 C2107 1.419 . S
C2109 C2110 1.362 . S
C2110 H2102 0.930 . S
C2110 C2109 1.362 . S
C2110 C2113 1.409 . S
C2111 H2103 0.930 . S
C2111 C2112 1.355 . S
C2111 C2113 1.415 . S
C2112 C2111 1.355 . S
C2112 C2114 1.419 . S
C2113 C2108 1.425 . S
C2113 C2110 1.409 . S
C2113 C2111 1.415 . S
C2114 H2104 0.930 . S
C2114 C2112 1.419 . S
C2114 C2115 1.362 . S
C2115 H2105 0.930 . S
C2115 C2108 1.409 . S
C2115 C2114 1.362 . S
H2116 C2122 0.930 . S
H2117 C2125 0.930 . S
H2118 C2126 0.930 . S
H2119 C2127 0.930 . S
H2120 C2130 0.930 . S
H2121 C2131 0.930 . S
C2122 H2116 0.930 . S
C2122 C2123 1.355 . S
C2122 C2124 1.415 . S
C2123 C2122 1.355 . S
C2123 C2125 1.419 . S
C2124 C2122 1.415 . S
C2124 C2129 1.425 . S
C2124 C2131 1.409 . S
C2125 H2117 0.930 . S
C2125 C2123 1.419 . S
C2125 C2126 1.362 . S
C2126 H2118 0.930 . S
C2126 C2125 1.362 . S
C2126 C2129 1.409 . S
C2127 H2119 0.930 . S
C2127 C2128 1.355 . S
C2127 C2129 1.415 . S
C2128 C2127 1.355 . S
C2128 C2130 1.419 . S
C2129 C2124 1.425 . S
C2129 C2126 1.409 . S
C2129 C2127 1.415 . S
C2130 H2120 0.930 . S
C2130 C2128 1.419 . S
C2130 C2131 1.362 . S
C2131 H2121 0.930 . S
C2131 C2124 1.409 . S
C2131 C2130 1.362 . S
H2132 C2138 0.930 . S
H2133 C2141 0.930 . S
H2134 C2142 0.930 . S
H2135 C2143 0.930 . S
H2136 C2146 0.930 . S
H2137 C2147 0.930 . S
C2138 H2132 0.930 . S
C2138 C2139 1.355 . S
C2138 C2140 1.415 . S
C2139 C2138 1.355 . S
C2139 C2141 1.419 . S
C2140 C2138 1.415 . S
C2140 C2145 1.425 . S
C2140 C2147 1.409 . S
C2141 H2133 0.930 . S
C2141 C2139 1.419 . S
C2141 C2142 1.362 . S
C2142 H2134 0.930 . S
C2142 C2141 1.362 . S
C2142 C2145 1.409 . S
C2143 H2135 0.930 . S
C2143 C2144 1.355 . S
C2143 C2145 1.415 . S
C2144 C2143 1.355 . S
C2144 C2146 1.419 . S
C2145 C2140 1.425 . S
C2145 C2142 1.409 . S
C2145 C2143 1.415 . S
C2146 H2136 0.930 . S
C2146 C2144 1.419 . S
C2146 C2147 1.362 . S
C2147 H2137 0.930 . S
C2147 C2140 1.409 . S
C2147 C2146 1.362 . S
H2148 C2154 0.930 . S
H2149 C2157 0.930 . S
H2150 C2158 0.930 . S
H2151 C2159 0.930 . S
H2152 C2162 0.930 . S
H2153 C2163 0.930 . S
C2154 H2148 0.930 . S
C2154 C2155 1.355 . S
C2154 C2156 1.415 . S
C2155 C2154 1.355 . S
C2155 C2157 1.419 . S
C2156 C2154 1.415 . S
C2156 C2161 1.425 . S
C2156 C2163 1.409 . S
C2157 H2149 0.930 . S
C2157 C2155 1.419 . S
C2157 C2158 1.362 . S
C2158 H2150 0.930 . S
C2158 C2157 1.362 . S
C2158 C2161 1.409 . S
C2159 H2151 0.930 . S
C2159 C2160 1.355 . S
C2159 C2161 1.415 . S
C2160 C2159 1.355 . S
C2160 C2162 1.419 . S
C2161 C2156 1.425 . S
C2161 C2158 1.409 . S
C2161 C2159 1.415 . S
C2162 H2152 0.930 . S
C2162 C2160 1.419 . S
C2162 C2163 1.362 . S
C2163 H2153 0.930 . S
C2163 C2156 1.409 . S
C2163 C2162 1.362 . S
H2164 C2170 0.930 . S
H2165 C2173 0.930 . S
H2166 C2174 0.930 . S
H2167 C2175 0.930 . S
H2168 C2178 0.930 . S
H2169 C2179 0.930 . S
C2170 H2164 0.930 . S
C2170 C2171 1.355 . S
C2170 C2172 1.415 . S
C2171 C2170 1.355 . S
C2171 C2173 1.419 . S
C2172 C2170 1.415 . S
C2172 C2177 1.425 . S
C2172 C2179 1.409 . S
C2173 H2165 0.930 . S
C2173 C2171 1.419 . S
C2173 C2174 1.362 . S
C2174 H2166 0.930 . S
C2174 C2173 1.362 . S
C2174 C2177 1.409 . S
C2175 H2167 0.930 . S
C2175 C2176 1.355 . S
C2175 C2177 1.415 . S
C2176 C2175 1.355 . S
C2176 C2178 1.419 . S
C2177 C2172 1.425 . S
C2177 C2174 1.409 . S
C2177 C2175 1.415 . S
C2178 H2168 0.930 . S
C2178 C2176 1.419 . S
C2178 C2179 1.362 . S
C2179 H2169 0.930 . S
C2179 C2172 1.409 . S
C2179 C2178 1.362 . S
H2180 C2186 0.930 . S
H2181 C2189 0.930 . S
H2182 C2190 0.930 . S
H2183 C2191 0.930 . S
H2184 C2194 0.930 . S
H2185 C2195 0.930 . S
C2186 H2180 0.930 . S
C2186 C2187 1.355 . S
C2186 C2188 1.415 . S
C2187 C2186 1.355 . S
C2187 C2189 1.419 . S
C2188 C2186 1.415 . S
C2188 C2193 1.425 . S
C2188 C2195 1.409 . S
C2189 H2181 0.930 . S
C2189 C2187 1.419 . S
C2189 C2190 1.362 . S
C2190 H2182 0.930 . S
C2190 C2189 1.362 . S
C2190 C2193 1.409 . S
C2191 H2183 0.930 . S
C2191 C2192 1.355 . S
C2191 C2193 1.415 . S
C2192 C2191 1.355 . S
C2192 C2194 1.419 . S
C2193 C2188 1.425 . S
C2193 C2190 1.409 . S
C2193 C2191 1.415 . S
C2194 H2184 0.930 . S
C2194 C2192 1.419 . S
C2194 C2195 1.362 . S
C2195 H2185 0.930 . S
C2195 C2188 1.409 . S
C2195 C2194 1.362 . S
C1339 C439 1.380 . S
C1344 C643 1.310 . S
C1355 C465 1.520 . S
C1360 C727 1.477 . S
C1371 C401 1.474 . S
C1376 C807 1.466 . S
C1387 C369 1.449 . S
C1392 C723 1.371 . S
C1408 C811 1.368 . S
C1403 C305 1.444 . S
C1419 C343 1.297 . S
C1424 C639 1.314 . S
C1440 C632 1.415 . S
C1435 C375 1.451 . S
C1456 C716 1.450 . S
C1451 C311 1.469 . S
C1467 C337 1.419 . S
C1472 C818 1.429 . S
C1483 C433 1.364 . S
C1488 C734 1.366 . S
C1499 C471 1.421 . S
C1504 C800 1.403 . S
C1520 C650 1.344 . S
C1515 C407 1.437 . S
C1536 C895 1.327 . S
C1531 C55 1.324 . S
C1547 C81 1.521 . S
C1552 C979 1.475 . S
C1563 C17 1.488 . S
C1568 C1059 1.402 . S
C1579 C561 1.443 . S
C1584 C975 1.391 . S
C1595 C497 1.468 . S
C1600 C1063 1.358 . S
C1611 C535 1.327 . S
C1616 C891 1.342 . S
C1627 C567 1.444 . S
C1632 C884 1.420 . S
C1643 C503 1.476 . S
C1648 C968 1.460 . S
C1664 C1070 1.459 . S
C1659 C529 1.451 . S
C1675 C49 1.359 . S
C1680 C986 1.362 . S
C1696 C1052 1.378 . S
C1691 C87 1.412 . S
C1707 C23 1.429 . S
C1712 C902 1.379 . S
C1728 C1147 1.302 . S
C1723 C247 1.369 . S
C1739 C273 1.498 . S
C1744 C1231 1.432 . S
C1760 C1311 1.468 . S
C1755 C209 1.474 . S
C1776 C1227 1.395 . S
C1771 C177 1.442 . S
C1792 C1315 1.407 . S
C1787 C113 1.472 . S
C1803 C151 1.293 . S
C1808 C1143 1.311 . S
C1819 C183 1.445 . S
C1824 C1136 1.420 . S
C1835 C119 1.466 . S
C1840 C1220 1.433 . S
C1856 C1322 1.435 . S
C1851 C145 1.425 . S
C1867 C241 1.426 . S
C1872 C1238 1.425 . S
C1883 C279 1.417 . S
C1888 C1304 1.398 . S
C1899 C215 1.429 . S
C1904 C1154 1.377 . S
C1915 C509 1.454 . S
C1920 C646 1.393 . S
C1936 C730 1.296 . S
C1931 C541 1.413 . S
C1947 C573 1.434 . S
C1952 C802 1.406 . S
C1963 C221 1.506 . S
C1968 C718 1.324 . S
C1979 C253 1.437 . S
C1984 C814 1.377 . S
C2000 C634 1.332 . S
C1995 C285 1.473 . S
C2011 C125 1.479 . S
C2016 C898 1.325 . S
C2027 C157 1.459 . S
C2032 C982 1.396 . S
C2043 C189 1.437 . S
C2048 C1054 1.402 . S
C2059 C413 1.509 . S
C2064 C970 1.318 . S
C2080 C1066 1.390 . S
C2075 C445 1.458 . S
C2091 C477 1.429 . S
C2096 C886 1.397 . S
C2107 C317 1.422 . S
C2112 C1150 1.396 . S
C2123 C349 1.472 . S
C2128 C1234 1.405 . S
C2144 C1306 1.391 . S
C2139 C381 1.435 . S
C2155 C29 1.501 . S
C2160 C1222 1.334 . S
C2171 C61 1.437 . S
C2176 C1318 1.314 . S
C2187 C93 1.417 . S
C2192 C1138 1.423 . S
