# Generated by pormake.
# Topology rtl, (3,6)-cn, num edge types: 1
# Building blocks:
#     Node 0, Type 0, BuildingBlock: BETDIP_clean_linker_0, # of connection points: 3
#     Node 1, Type 0, BuildingBlock: BETDIP_clean_linker_0, # of connection points: 3
#     Node 2, Type 0, BuildingBlock: BETDIP_clean_linker_0, # of connection points: 3
#     Node 3, Type 0, BuildingBlock: BETDIP_clean_linker_0, # of connection points: 3
#     Node 4, Type 1, BuildingBlock: FUNLAD_clean_sbu_0, # of connection points: 6
#     Node 5, Type 1, BuildingBlock: FUNLAD_clean_sbu_0, # of connection points: 6
#     Edge 6, Type (0, 1), BuildingBlock: EZIPEK_clean_linker_0, # of connection points: 2
#     Edge 7, Type (0, 1), BuildingBlock: EZIPEK_clean_linker_0, # of connection points: 2
#     Edge 8, Type (0, 1), BuildingBlock: EZIPEK_clean_linker_0, # of connection points: 2
#     Edge 9, Type (0, 1), BuildingBlock: EZIPEK_clean_linker_0, # of connection points: 2
#     Edge 10, Type (0, 1), BuildingBlock: EZIPEK_clean_linker_0, # of connection points: 2
#     Edge 11, Type (0, 1), BuildingBlock: EZIPEK_clean_linker_0, # of connection points: 2
#     Edge 12, Type (0, 1), BuildingBlock: EZIPEK_clean_linker_0, # of connection points: 2
#     Edge 13, Type (0, 1), BuildingBlock: EZIPEK_clean_linker_0, # of connection points: 2
#     Edge 14, Type (0, 1), BuildingBlock: EZIPEK_clean_linker_0, # of connection points: 2
#     Edge 15, Type (0, 1), BuildingBlock: EZIPEK_clean_linker_0, # of connection points: 2
#     Edge 16, Type (0, 1), BuildingBlock: EZIPEK_clean_linker_0, # of connection points: 2
#     Edge 17, Type (0, 1), BuildingBlock: EZIPEK_clean_linker_0, # of connection points: 2
# Relax obj value: 0.002
# Max RMSD: 0.032
# Mean RMSD: 0.021
data_MOF--net-rtl--node1-FUNLAD_clean_sbu_0--node2-BETDIP_clean_linker_0--edge1-EZIPEK_clean_linker_0
_symmetry_space_group_name_H-M    P1
_symmetry_Int_Tables_number       1
_symmetry_cell_setting            triclinic
loop_
_symmetry_equiv_pos_as_xyz
'x, y, z'
_cell_length_a     30.76811
_cell_length_b     30.729395
_cell_length_c     15.128272
_cell_angle_alpha  91.26871
_cell_angle_beta   92.387789
_cell_angle_gamma 89.934242
loop_
_atom_site_label
_atom_site_type_symbol
_atom_site_fract_x
_atom_site_fract_y
_atom_site_fract_z
_atom_type_partial_charge
H0 H 0.18704 0.83746 0.85869 0.0
H1 H 0.17527 0.82692 0.1408 0.0
H2 H 0.09725 0.91898 -0.00405 0.0
H3 H 0.20694 0.76284 0.12206 0.0
C4 C 0.22562 0.76316 0.06288 0.0
C5 C 0.17229 0.84762 0.91963 0.0
C6 C 0.14013 0.87999 0.91804 0.0
C7 C 0.18474 0.82746 -0.00098 0.0
C8 C 0.16562 0.84109 0.07822 0.0
C9 C 0.13444 0.87456 0.07726 0.0
C10 C 0.12172 0.89352 -0.003 0.0
N11 N 0.21693 0.79425 -0.00378 0.0
H12 H 0.67764 0.68722 0.68278 0.0
H13 H 0.68417 0.67807 0.3984 0.0
H14 H 0.59461 0.59834 0.53158 0.0
H15 H 0.70833 0.74671 0.41526 0.0
C16 C 0.72723 0.74803 0.47746 0.0
C17 C 0.66657 0.67307 0.61955 0.0
C18 C 0.63453 0.6405 0.6163 0.0
C19 C 0.6843 0.68753 0.54135 0.0
C20 C 0.66995 0.66872 0.45936 0.0
C21 C 0.637 0.63712 0.45582 0.0
C22 C 0.61975 0.62313 0.53432 0.0
N23 N 0.71695 0.72031 0.54765 0.0
H24 H 0.83387 0.18785 0.84495 0.0
H25 H 0.83147 0.17917 0.12928 0.0
H26 H 0.90968 0.09071 0.98107 0.0
H27 H 0.80703 0.24744 0.1205 0.0
C28 C 0.7887 0.25014 0.05805 0.0
C29 C 0.84392 0.1721 0.90587 0.0
C30 C 0.87346 0.13736 0.90384 0.0
C31 C 0.82818 0.18742 0.98657 0.0
C32 C 0.84274 0.16785 0.06604 0.0
C33 C 0.87223 0.13296 0.06387 0.0
C34 C 0.88649 0.11734 0.98261 0.0
N35 N 0.79782 0.22232 0.98483 0.0
H36 H 0.3309 0.33374 0.35298 0.0
H37 H 0.33697 0.32635 0.63794 0.0
H38 H 0.41937 0.41523 0.5086 0.0
H39 H 0.269 0.30096 0.61697 0.0
C40 C 0.26704 0.28402 0.55325 0.0
C41 C 0.34461 0.3444 0.41698 0.0
C42 C 0.37754 0.37598 0.42196 0.0
C43 C 0.32905 0.3267 0.49432 0.0
C44 C 0.34725 0.34054 0.57744 0.0
C45 C 0.37937 0.37306 0.5826 0.0
C46 C 0.39433 0.39034 0.50474 0.0
N47 N 0.29562 0.29482 0.48563 0.0
C48 C 0.0486 0.95892 0.36669 0.0
N49 N 0.07718 0.08098 0.48636 0.0
C50 C 0.12001 0.06992 0.48423 0.0
C51 C 0.15211 0.1021 0.49036 0.0
C52 C 0.13986 0.14587 0.49928 0.0
C53 C 0.09558 0.15655 0.49915 0.0
C54 C 0.06456 0.12339 0.49235 0.0
Zn55 Zn 0.031 0.03316 0.48916 0.0
C56 C 0.95798 0.04726 0.36043 0.0
N57 N 0.93523 0.9333 0.5006 0.0
C58 C 0.94673 0.89057 0.50552 0.0
C59 C 0.89268 0.94558 0.49672 0.0
C60 C 0.85975 0.91442 0.49607 0.0
C61 C 0.87073 0.87025 0.49995 0.0
C62 C 0.91474 0.85827 0.50552 0.0
Zn63 Zn 0.98176 0.98075 0.49647 0.0
O64 O 0.0613 0.99733 0.3873 0.0
C65 C 0.05586 0.96693 0.62385 0.0
O66 O 0.01648 0.94285 0.40483 0.0
H67 H 0.88422 0.97963 0.49351 0.0
H68 H 0.12935 0.03604 0.4798 0.0
H69 H 0.98071 0.88151 0.50871 0.0
O70 O 0.07004 0.99977 0.5845 0.0
O71 O 0.01813 0.95232 0.6023 0.0
H72 H 0.0304 0.13151 0.49394 0.0
O73 O 0.94801 0.01906 0.58956 0.0
O74 O 0.99919 0.06857 0.58956 0.0
O75 O 0.9464 0.01043 0.38825 0.0
O76 O 0.99198 0.0653 0.39459 0.0
C77 C 0.96361 0.0551 0.61873 0.0
H78 H 0.18612 0.09295 0.49023 0.0
H79 H 0.08521 0.19011 0.5059 0.0
H80 H 0.82602 0.9246 0.49192 0.0
H81 H 0.92413 0.82434 0.50876 0.0
C82 C 0.46343 0.46075 0.88459 0.0
N83 N 0.58141 0.43638 0.0211 0.0
C84 C 0.57124 0.39325 0.02051 0.0
C85 C 0.60415 0.36189 0.02446 0.0
C86 C 0.64776 0.3752 0.02988 0.0
C87 C 0.65743 0.41974 0.02984 0.0
C88 C 0.62357 0.44996 0.025 0.0
Zn89 Zn 0.53282 0.48203 0.01946 0.0
C90 C 0.5497 0.55377 0.89624 0.0
N91 N 0.43229 0.57764 0.01789 0.0
C92 C 0.39008 0.5642 0.01361 0.0
C93 C 0.44262 0.62068 0.02571 0.0
C94 C 0.40984 0.65206 0.0306 0.0
C95 C 0.36621 0.63886 0.02799 0.0
C96 C 0.35634 0.59445 0.01882 0.0
Zn97 Zn 0.48087 0.53194 0.01773 0.0
O98 O 0.49677 0.44493 0.92433 0.0
C99 C 0.46326 0.46125 0.14117 0.0
O100 O 0.45002 0.49846 0.90706 0.0
H101 H 0.47633 0.63068 0.02931 0.0
H102 H 0.53756 0.38314 0.01768 0.0
H103 H 0.38253 0.52991 0.00744 0.0
O104 O 0.50137 0.44937 0.12172 0.0
O105 O 0.446 0.49384 0.10351 0.0
H106 H 0.631 0.48432 0.02524 0.0
O107 O 0.51294 0.56403 0.12846 0.0
O108 O 0.5682 0.51951 0.11473 0.0
O109 O 0.51644 0.56958 0.93209 0.0
O110 O 0.56311 0.51603 0.91724 0.0
C111 C 0.55108 0.55202 0.15288 0.0
H112 H 0.59574 0.32766 0.02432 0.0
H113 H 0.69084 0.43094 0.03392 0.0
H114 H 0.41838 0.68619 0.0376 0.0
H115 H 0.32291 0.58334 0.0166 0.0
C116 C 0.23139 0.21592 0.60321 0.0
C117 C 0.23463 0.24848 0.53868 0.0
C118 C 0.17957 0.21055 0.4439 0.0
C119 C 0.17328 0.18055 0.51206 0.0
N120 N 0.18739 0.15924 0.66319 0.0
N121 N 0.20423 0.2824 0.40739 0.0
C122 C 0.19759 0.18448 0.59368 0.0
C123 C 0.20678 0.24732 0.46138 0.0
N124 N 0.26157 0.21398 0.67198 0.0
N125 N 0.16023 0.20349 0.36187 0.0
H126 H 0.22155 0.3111 0.42055 0.0
H127 H 0.18133 0.28493 0.35505 0.0
H128 H 0.14011 0.17684 0.34653 0.0
H129 H 0.16733 0.22179 0.30714 0.0
H130 H 0.26363 0.18816 0.71543 0.0
H131 H 0.28716 0.23607 0.68107 0.0
H132 H 0.20075 0.16403 0.72705 0.0
H133 H 0.16272 0.13594 0.65916 0.0
C134 C 0.26507 0.70628 0.97421 0.0
C135 C 0.2616 0.73125 0.05373 0.0
C136 C 0.32439 0.69255 0.11932 0.0
C137 C 0.33072 0.67136 0.03652 0.0
N138 N 0.31192 0.66392 0.88054 0.0
N139 N 0.29214 0.75336 0.19734 0.0
C140 C 0.3025 0.68001 0.9625 0.0
C141 C 0.29237 0.72577 0.12519 0.0
N142 N 0.23154 0.70552 0.91199 0.0
N143 N 0.34792 0.67994 0.19305 0.0
H144 H 0.26955 0.77842 0.20405 0.0
H145 H 0.31669 0.75396 0.24687 0.0
H146 H 0.37156 0.6556 0.19166 0.0
H147 H 0.34138 0.69085 0.2568 0.0
H148 H 0.23063 0.68455 0.8569 0.0
H149 H 0.20241 0.72219 0.92016 0.0
H150 H 0.295 0.673 0.82276 0.0
H151 H 0.33916 0.64466 0.86924 0.0
C152 C 0.79519 0.77846 0.41711 0.0
C153 C 0.76515 0.77796 0.48583 0.0
C154 C 0.80887 0.83264 0.56971 0.0
C155 C 0.83583 0.8368 0.49661 0.0
N156 N 0.8507 0.81873 0.34475 0.0
N157 N 0.73833 0.81147 0.61897 0.0
C158 C 0.828 0.81102 0.41861 0.0
C159 C 0.77068 0.80671 0.56026 0.0
N160 N 0.79334 0.74692 0.35184 0.0
N161 N 0.82008 0.85296 0.64864 0.0
H162 H 0.70873 0.79506 0.61196 0.0
H163 H 0.73889 0.83519 0.66928 0.0
H164 H 0.84792 0.87215 0.65804 0.0
H165 H 0.80409 0.84747 0.70672 0.0
H166 H 0.81719 0.74292 0.30547 0.0
H167 H 0.7702 0.72209 0.34886 0.0
H168 H 0.84294 0.80436 0.28311 0.0
H169 H 0.875 0.84229 0.34295 0.0
C170 C 0.74918 0.31025 0.97727 0.0
C171 C 0.75283 0.28249 0.05102 0.0
C172 C 0.69012 0.31878 0.11535 0.0
C173 C 0.68344 0.34266 0.03669 0.0
N174 N 0.70178 0.35518 0.88583 0.0
N175 N 0.72244 0.25532 0.18375 0.0
C176 C 0.71154 0.33659 0.96548 0.0
C177 C 0.72216 0.28542 0.11848 0.0
N178 N 0.78271 0.31351 0.92128 0.0
N179 N 0.66693 0.32894 0.18816 0.0
H180 H 0.74496 0.22999 0.18808 0.0
H181 H 0.69793 0.25306 0.22889 0.0
H182 H 0.64341 0.3534 0.18886 0.0
H183 H 0.67376 0.31586 0.25014 0.0
H184 H 0.78337 0.33638 0.87154 0.0
H185 H 0.81208 0.29696 0.93069 0.0
H186 H 0.71871 0.34811 0.82903 0.0
H187 H 0.67426 0.37443 0.87432 0.0
C188 C 0.06811 0.88628 0.16488 0.0
C189 C 0.11382 0.89023 0.1593 0.0
C190 C 0.11696 0.93038 0.30106 0.0
C191 C 0.07085 0.93326 0.29776 0.0
N192 N 1.00261 0.91999 0.21606 0.0
N193 N 0.18155 0.92165 0.21663 0.0
C194 C 0.04628 0.9125 0.2273 0.0
C195 C 0.13836 0.91357 0.22621 0.0
N196 N 0.0456 0.85734 0.11059 0.0
N197 N 0.14028 0.94237 0.37652 0.0
H198 H 0.19848 0.91059 0.16227 0.0
H199 H 0.19963 0.94256 0.25899 0.0
H200 H 0.12565 0.95291 0.43417 0.0
H201 H 0.17367 0.93722 0.38495 0.0
H202 H 0.01279 0.85031 0.11739 0.0
H203 H 0.06081 0.83706 0.06503 0.0
H204 H 0.9843 0.90897 0.16054 0.0
H205 H 0.98542 0.94107 0.25669 0.0
C206 C 0.56898 0.6281 0.70409 0.0
C207 C 0.61463 0.6244 0.69726 0.0
C208 C 0.61822 0.58245 0.83305 0.0
C209 C 0.57212 0.57913 0.82937 0.0
N210 N 0.504 0.59211 0.7479 0.0
N211 N 0.68248 0.59206 0.74893 0.0
C212 C 0.54744 0.60042 0.76166 0.0
C213 C 0.63938 0.60013 0.76029 0.0
N214 N 0.54621 0.65801 0.65529 0.0
N215 N 0.64176 0.57028 0.90701 0.0
H216 H 0.69923 0.60366 0.69581 0.0
H217 H 0.70059 0.57062 0.78819 0.0
H218 H 0.6273 0.55964 0.96378 0.0
H219 H 0.67513 0.57561 0.91561 0.0
H220 H 0.51335 0.66453 0.66356 0.0
H221 H 0.56128 0.67947 0.61367 0.0
H222 H 0.48579 0.60395 0.69399 0.0
H223 H 0.48721 0.56939 0.78357 0.0
C224 C 0.86715 0.08867 0.20193 0.0
C225 C 0.89198 0.11436 0.14597 0.0
C226 C 0.95885 0.08938 0.22083 0.0
C227 C 0.93429 0.06833 0.28487 0.0
N228 N 0.86361 0.05527 0.34444 0.0
N229 N 0.96057 0.14849 0.11881 0.0
C230 C 0.88794 0.06992 0.27784 0.0
C231 C 0.93756 0.11782 0.16111 0.0
N232 N 0.82419 0.08083 0.18123 0.0
N233 N 1.00202 0.08023 0.2128 0.0
H234 H 0.99348 0.15449 0.13329 0.0
H235 H 0.94566 0.17111 0.07699 0.0
H236 H 0.01825 0.0562 0.24892 0.0
H237 H 0.02013 0.09233 0.16205 0.0
H238 H 0.80585 0.05835 0.21432 0.0
H239 H 0.8078 0.09404 0.12638 0.0
H240 H 0.83013 0.06009 0.34635 0.0
H241 H 0.87708 0.042 0.40181 0.0
C242 C 0.37405 0.41374 0.72905 0.0
C243 C 0.39902 0.38942 0.66846 0.0
C244 C 0.46597 0.41413 0.74628 0.0
C245 C 0.4411 0.43543 0.81144 0.0
N246 N 0.37134 0.44406 0.87765 0.0
N247 N 0.46771 0.35613 0.63591 0.0
C248 C 0.39503 0.43182 0.80685 0.0
C249 C 0.44468 0.38607 0.68296 0.0
N250 N 0.33091 0.42147 0.71084 0.0
N251 N 0.50933 0.42277 0.74054 0.0
H252 H 0.45281 0.33439 0.59013 0.0
H253 H 0.5006 0.34989 0.64939 0.0
H254 H 0.52589 0.44583 0.78067 0.0
H255 H 0.52767 0.41087 0.68889 0.0
H256 H 0.31263 0.44292 0.7486 0.0
H257 H 0.31427 0.40958 0.65397 0.0
H258 H 0.33801 0.4385 0.88005 0.0
H259 H 0.38565 0.45505 0.93771 0.0
C260 C 0.59601 0.64188 0.30804 0.0
C261 C 0.62031 0.61704 0.37086 0.0
C262 C 0.59636 0.54989 0.29448 0.0
C263 C 0.57528 0.57465 0.22707 0.0
N264 N 0.56558 0.64443 0.15817 0.0
N265 N 0.65356 0.54847 0.40882 0.0
C266 C 0.57821 0.62079 0.23024 0.0
C267 C 0.62385 0.57135 0.3588 0.0
N268 N 0.58811 0.68503 0.32411 0.0
N269 N 0.58809 0.50639 0.30099 0.0
H270 H 0.67493 0.56346 0.45545 0.0
H271 H 0.66003 0.51558 0.39719 0.0
H272 H 0.56557 0.48966 0.25962 0.0
H273 H 0.59973 0.48804 0.35406 0.0
H274 H 0.56665 0.70326 0.2847 0.0
H275 H 0.59989 0.70174 0.38083 0.0
H276 H 0.57079 0.67784 0.15466 0.0
H277 H 0.5544 0.63011 0.09838 0.0
C278 C 0.94041 0.12816 0.81855 0.0
C279 C 0.89472 0.12362 0.82153 0.0
C280 C 0.89408 0.08484 0.67885 0.0
C281 C 0.94022 0.08115 0.68601 0.0
N282 N 0.00661 0.09364 0.77511 0.0
N283 N 0.82778 0.09345 0.75802 0.0
C284 C 0.9634 0.1017 0.7587 0.0
C285 C 0.87129 0.10101 0.75237 0.0
N286 N 0.96183 0.15766 0.87334 0.0
N287 N 0.87215 0.0747 0.60087 0.0
H288 H 0.80987 0.10481 0.81079 0.0
H289 H 0.81032 0.07299 0.71363 0.0
H290 H 0.8881 0.06609 0.54376 0.0
H291 H 0.83893 0.08017 0.5902 0.0
H292 H 0.99478 0.16473 0.86877 0.0
H293 H 0.94551 0.17849 0.91614 0.0
H294 H 0.02357 0.1048 0.83223 0.0
H295 H 0.0243 0.07168 0.7378 0.0
C296 C 0.41898 0.37124 0.28126 0.0
C297 C 0.39434 0.396 0.34171 0.0
C298 C 0.41795 0.46319 0.2752 0.0
C299 C 0.43927 0.43849 0.20938 0.0
N300 N 0.44962 0.36864 0.13652 0.0
N301 N 0.36042 0.46438 0.37918 0.0
C302 C 0.43672 0.39233 0.20829 0.0
C303 C 0.39045 0.44163 0.33274 0.0
N304 N 0.42721 0.32819 0.29528 0.0
N305 N 0.426 0.50673 0.28705 0.0
H306 H 0.33902 0.44932 0.42066 0.0
H307 H 0.35375 0.4972 0.36904 0.0
H308 H 0.44861 0.52354 0.25136 0.0
H309 H 0.41411 0.52504 0.33961 0.0
H310 H 0.44889 0.31006 0.25822 0.0
H311 H 0.41544 0.31154 0.34857 0.0
H312 H 0.44472 0.33517 0.12945 0.0
H313 H 0.4607 0.38293 0.07979 0.0
C314 C 0.10037 0.87688 0.76887 0.0
C315 C 0.12521 0.90073 0.83438 0.0
C316 C 0.10708 0.96872 0.76002 0.0
C317 C 0.08343 0.94467 0.6923 0.0
N318 N 0.07176 0.87506 0.61761 0.0
N319 N 0.16287 0.96696 0.87777 0.0
C320 C 0.08444 0.89844 0.69214 0.0
C321 C 0.13213 0.94591 0.82491 0.0
N322 N 0.09014 0.83426 0.78134 0.0
N323 N 0.10386 0.01302 0.76639 0.0
H324 H 0.18212 0.95096 0.92533 0.0
H325 H 0.17236 0.99899 0.86812 0.0
H326 H 0.08582 0.03171 0.72186 0.0
H327 H 0.11621 0.03113 0.82079 0.0
H328 H 0.06811 0.817 0.73978 0.0
H329 H 0.10062 0.8172 0.83707 0.0
H330 H 0.07534 0.8414 0.61189 0.0
H331 H 0.06277 0.88972 0.55804 0.0
loop_
_geom_bond_atom_site_label_1
_geom_bond_atom_site_label_2
_geom_bond_distance
_geom_bond_site_symmetry_2
_ccdc_geom_bond_type
H0 C5 0.930 . S
H1 C8 0.930 . S
H2 C10 0.930 . S
H3 C4 1.016 . S
C4 H3 1.016 . S
C4 N11 1.286 1_554 S
C5 H0 0.930 . S
C5 C6 1.397 . S
C5 C7 1.361 1_556 S
C6 C5 1.397 . S
C6 C10 1.390 1_556 S
C7 C5 1.361 1_554 S
C7 C8 1.393 . S
C7 N11 1.413 1_554 S
C8 H1 0.930 . S
C8 C7 1.393 . S
C8 C9 1.399 . S
C9 C8 1.399 . S
C9 C10 1.381 . S
C10 H2 0.930 . S
C10 C6 1.390 1_554 S
C10 C9 1.381 . S
N11 C4 1.286 1_556 S
N11 C7 1.413 1_556 S
H12 C17 0.930 . S
H13 C20 0.930 . S
H14 C22 0.930 . S
H15 C16 1.016 . S
C16 H15 1.016 . S
C16 N23 1.286 . S
C17 H12 0.930 . S
C17 C18 1.397 . S
C17 C19 1.361 . S
C18 C17 1.397 . S
C18 C22 1.390 . S
C19 C17 1.361 . S
C19 C20 1.393 . S
C19 N23 1.413 . S
C20 H13 0.930 . S
C20 C19 1.393 . S
C20 C21 1.399 . S
C21 C20 1.399 . S
C21 C22 1.381 . S
C22 H14 0.930 . S
C22 C18 1.390 . S
C22 C21 1.381 . S
N23 C16 1.286 . S
N23 C19 1.413 . S
H24 C29 0.930 . S
H25 C32 0.930 . S
H26 C34 0.930 . S
H27 C28 1.016 . S
C28 H27 1.016 . S
C28 N35 1.286 1_554 S
C29 H24 0.930 . S
C29 C30 1.397 . S
C29 C31 1.361 . S
C30 C29 1.397 . S
C30 C34 1.390 1_556 S
C31 C29 1.361 . S
C31 C32 1.393 1_556 S
C31 N35 1.413 . S
C32 H25 0.930 . S
C32 C31 1.393 1_554 S
C32 C33 1.399 . S
C33 C32 1.399 . S
C33 C34 1.381 . S
C34 H26 0.930 . S
C34 C30 1.390 1_554 S
C34 C33 1.381 . S
N35 C28 1.286 1_556 S
N35 C31 1.413 . S
H36 C41 0.930 . S
H37 C44 0.930 . S
H38 C46 0.930 . S
H39 C40 1.016 . S
C40 H39 1.016 . S
C40 N47 1.286 . S
C41 H36 0.930 . S
C41 C42 1.397 . S
C41 C43 1.361 . S
C42 C41 1.397 . S
C42 C46 1.390 . S
C43 C41 1.361 . S
C43 C44 1.393 . S
C43 N47 1.413 . S
C44 H37 0.930 . S
C44 C43 1.393 . S
C44 C45 1.399 . S
C45 C44 1.399 . S
C45 C46 1.381 . S
C46 H38 0.930 . S
C46 C42 1.390 . S
C46 C45 1.381 . S
N47 C40 1.286 . S
N47 C43 1.413 . S
C48 O64 1.243 1_565 S
C48 O66 1.254 . S
N49 C50 1.333 . S
N49 C54 1.307 . S
N49 Zn55 2.020 . S
C50 N49 1.333 . S
C50 C51 1.379 . S
C50 H68 0.952 . S
C51 C50 1.379 . S
C51 C52 1.390 . S
C51 H78 0.949 . S
C52 C51 1.390 . S
C52 C53 1.357 . S
C53 C52 1.357 . S
C53 C54 1.370 . S
C53 H79 0.950 . S
C54 N49 1.307 . S
C54 C53 1.370 . S
C54 H72 0.948 . S
Zn55 N49 2.020 . S
Zn55 O64 2.044 . S
Zn55 O70 2.034 1_545 S
Zn55 O74 2.025 1_455 S
Zn55 O76 2.024 1_455 S
C56 O75 1.246 . S
C56 O76 1.249 . S
N57 C58 1.307 . S
N57 C59 1.333 . S
N57 Zn63 2.020 . S
C58 N57 1.307 . S
C58 C62 1.370 . S
C58 H69 0.948 . S
C59 N57 1.333 . S
C59 C60 1.379 . S
C59 H67 0.952 . S
C60 C59 1.379 . S
C60 C61 1.390 . S
C60 H80 0.949 . S
C61 C60 1.390 . S
C61 C62 1.357 . S
C62 C58 1.370 . S
C62 C61 1.357 . S
C62 H81 0.950 . S
Zn63 N57 2.020 . S
Zn63 O66 2.025 1_655 S
Zn63 O71 2.024 1_655 S
Zn63 O73 2.039 1_565 S
Zn63 O75 2.034 1_565 S
O64 C48 1.243 1_545 S
O64 Zn55 2.044 . S
C65 O70 1.246 . S
C65 O71 1.249 . S
O66 C48 1.254 . S
O66 Zn63 2.025 1_455 S
H67 C59 0.952 . S
H68 C50 0.952 . S
H69 C58 0.948 . S
O70 Zn55 2.034 1_565 S
O70 C65 1.246 . S
O71 Zn63 2.024 1_455 S
O71 C65 1.249 . S
H72 C54 0.948 . S
O73 Zn63 2.039 1_545 S
O73 C77 1.251 . S
O74 Zn55 2.025 1_655 S
O74 C77 1.254 . S
O75 C56 1.246 . S
O75 Zn63 2.034 1_545 S
O76 Zn55 2.024 1_655 S
O76 C56 1.249 . S
C77 O73 1.251 . S
C77 O74 1.254 . S
H78 C51 0.949 . S
H79 C53 0.950 . S
H80 C60 0.949 . S
H81 C62 0.950 . S
C82 O98 1.251 . S
C82 O100 1.254 . S
N83 C84 1.336 . S
N83 C88 1.307 . S
N83 Zn89 2.020 . S
C84 N83 1.336 . S
C84 C85 1.379 1_554 S
C84 H102 0.949 1_554 S
C85 C84 1.379 1_556 S
C85 C86 1.390 1_556 S
C85 H112 0.949 . S
C86 C85 1.390 1_554 S
C86 C87 1.357 . S
C87 C86 1.357 . S
C87 C88 1.370 . S
C87 H113 0.950 . S
C88 N83 1.307 . S
C88 C87 1.370 . S
C88 H106 0.948 . S
Zn89 N83 2.020 . S
Zn89 O98 2.039 1_554 S
Zn89 O104 2.034 . S
Zn89 O108 2.025 . S
Zn89 O110 2.024 1_554 S
C90 O109 1.246 . S
C90 O110 1.249 . S
N91 C92 1.307 . S
N91 C93 1.333 . S
N91 Zn97 2.020 . S
C92 N91 1.307 . S
C92 C96 1.370 . S
C92 H103 0.948 1_554 S
C93 N91 1.333 . S
C93 C94 1.379 . S
C93 H101 0.952 . S
C94 C93 1.379 . S
C94 C95 1.390 . S
C94 H114 0.949 . S
C95 C94 1.390 . S
C95 C96 1.357 . S
C96 C92 1.370 . S
C96 C95 1.357 . S
C96 H115 0.950 1_554 S
Zn97 N91 2.020 . S
Zn97 O100 2.025 1_554 S
Zn97 O105 2.024 . S
Zn97 O107 2.039 . S
Zn97 O109 2.034 1_554 S
O98 C82 1.251 . S
O98 Zn89 2.039 1_556 S
C99 O104 1.246 . S
C99 O105 1.249 . S
O100 C82 1.254 . S
O100 Zn97 2.025 1_556 S
H101 C93 0.952 . S
H102 C84 0.949 1_556 S
H103 C92 0.948 1_556 S
O104 Zn89 2.034 . S
O104 C99 1.246 . S
O105 Zn97 2.024 . S
O105 C99 1.249 . S
H106 C88 0.948 . S
O107 Zn97 2.039 . S
O107 C111 1.251 . S
O108 Zn89 2.025 . S
O108 C111 1.254 . S
O109 C90 1.246 . S
O109 Zn97 2.034 1_556 S
O110 Zn89 2.024 1_556 S
O110 C90 1.249 . S
C111 O107 1.251 . S
C111 O108 1.254 . S
H112 C85 0.949 . S
H113 C87 0.950 . S
H114 C94 0.949 . S
H115 C96 0.950 1_556 S
C116 C117 1.363 . S
C116 C122 1.379 . S
C116 N124 1.356 . S
C117 C116 1.363 . S
C117 C123 1.363 . S
C118 C119 1.363 . S
C118 C123 1.379 . S
C118 N125 1.356 . S
C119 C118 1.363 . S
C119 C122 1.363 . S
N120 C122 1.356 . S
N120 H132 0.984 . S
N120 H133 0.985 . S
N121 C123 1.356 . S
N121 H126 0.984 . S
N121 H127 0.985 . S
C122 C116 1.379 . S
C122 C119 1.363 . S
C122 N120 1.356 . S
C123 C117 1.363 . S
C123 C118 1.379 . S
C123 N121 1.356 . S
N124 C116 1.356 . S
N124 H130 0.984 . S
N124 H131 0.984 . S
N125 C118 1.356 . S
N125 H128 0.984 . S
N125 H129 0.985 . S
H126 N121 0.984 . S
H127 N121 0.985 . S
H128 N125 0.984 . S
H129 N125 0.985 . S
H130 N124 0.984 . S
H131 N124 0.984 . S
H132 N120 0.984 . S
H133 N120 0.985 . S
C134 C135 1.363 1_556 S
C134 C140 1.379 . S
C134 N142 1.356 . S
C135 C134 1.363 1_554 S
C135 C141 1.363 . S
C136 C137 1.363 . S
C136 C141 1.379 . S
C136 N143 1.356 . S
C137 C136 1.363 . S
C137 C140 1.363 1_554 S
N138 C140 1.356 . S
N138 H150 0.984 . S
N138 H151 0.985 . S
N139 C141 1.356 . S
N139 H144 0.984 . S
N139 H145 0.985 . S
C140 C134 1.379 . S
C140 C137 1.363 1_556 S
C140 N138 1.356 . S
C141 C135 1.363 . S
C141 C136 1.379 . S
C141 N139 1.356 . S
N142 C134 1.356 . S
N142 H148 0.984 . S
N142 H149 0.984 . S
N143 C136 1.356 . S
N143 H146 0.984 . S
N143 H147 0.985 . S
H144 N139 0.984 . S
H145 N139 0.985 . S
H146 N143 0.984 . S
H147 N143 0.985 . S
H148 N142 0.984 . S
H149 N142 0.984 . S
H150 N138 0.984 . S
H151 N138 0.985 . S
C152 C153 1.363 . S
C152 C158 1.379 . S
C152 N160 1.356 . S
C153 C152 1.363 . S
C153 C159 1.363 . S
C154 C155 1.363 . S
C154 C159 1.379 . S
C154 N161 1.356 . S
C155 C154 1.363 . S
C155 C158 1.363 . S
N156 C158 1.356 . S
N156 H168 0.984 . S
N156 H169 0.985 . S
N157 C159 1.356 . S
N157 H162 0.984 . S
N157 H163 0.985 . S
C158 C152 1.379 . S
C158 C155 1.363 . S
C158 N156 1.356 . S
C159 C153 1.363 . S
C159 C154 1.379 . S
C159 N157 1.356 . S
N160 C152 1.356 . S
N160 H166 0.984 . S
N160 H167 0.984 . S
N161 C154 1.356 . S
N161 H164 0.984 . S
N161 H165 0.985 . S
H162 N157 0.984 . S
H163 N157 0.985 . S
H164 N161 0.984 . S
H165 N161 0.985 . S
H166 N160 0.984 . S
H167 N160 0.984 . S
H168 N156 0.984 . S
H169 N156 0.985 . S
C170 C171 1.363 1_556 S
C170 C176 1.379 . S
C170 N178 1.356 . S
C171 C170 1.363 1_554 S
C171 C177 1.363 . S
C172 C173 1.363 . S
C172 C177 1.379 . S
C172 N179 1.356 . S
C173 C172 1.363 . S
C173 C176 1.363 1_554 S
N174 C176 1.356 . S
N174 H186 0.984 . S
N174 H187 0.985 . S
N175 C177 1.356 . S
N175 H180 0.984 . S
N175 H181 0.985 . S
C176 C170 1.379 . S
C176 C173 1.363 1_556 S
C176 N174 1.356 . S
C177 C171 1.363 . S
C177 C172 1.379 . S
C177 N175 1.356 . S
N178 C170 1.356 . S
N178 H184 0.984 . S
N178 H185 0.984 . S
N179 C172 1.356 . S
N179 H182 0.984 . S
N179 H183 0.985 . S
H180 N175 0.984 . S
H181 N175 0.985 . S
H182 N179 0.984 . S
H183 N179 0.985 . S
H184 N178 0.984 . S
H185 N178 0.984 . S
H186 N174 0.984 . S
H187 N174 0.985 . S
C188 C189 1.363 . S
C188 C194 1.379 . S
C188 N196 1.356 . S
C189 C188 1.363 . S
C189 C195 1.363 . S
C190 C191 1.363 . S
C190 C195 1.379 . S
C190 N197 1.356 . S
C191 C190 1.363 . S
C191 C194 1.363 . S
N192 C194 1.356 . S
N192 H204 0.984 1_455 S
N192 H205 0.988 . S
N193 C195 1.356 . S
N193 H198 0.984 . S
N193 H199 0.985 . S
C194 C188 1.379 . S
C194 C191 1.363 . S
C194 N192 1.356 . S
C195 C189 1.363 . S
C195 C190 1.379 . S
C195 N193 1.356 . S
N196 C188 1.356 . S
N196 H202 0.984 . S
N196 H203 0.984 . S
N197 C190 1.356 . S
N197 H200 0.984 . S
N197 H201 0.985 . S
H198 N193 0.984 . S
H199 N193 0.985 . S
H200 N197 0.984 . S
H201 N197 0.985 . S
H202 N196 0.984 . S
H203 N196 0.984 . S
H204 N192 0.984 1_655 S
H205 N192 0.988 . S
C206 C207 1.363 . S
C206 C212 1.379 . S
C206 N214 1.356 . S
C207 C206 1.363 . S
C207 C213 1.363 . S
C208 C209 1.363 . S
C208 C213 1.379 . S
C208 N215 1.356 . S
C209 C208 1.363 . S
C209 C212 1.363 . S
N210 C212 1.356 . S
N210 H222 0.984 . S
N210 H223 0.985 . S
N211 C213 1.356 . S
N211 H216 0.984 . S
N211 H217 0.985 . S
C212 C206 1.379 . S
C212 C209 1.363 . S
C212 N210 1.356 . S
C213 C207 1.363 . S
C213 C208 1.379 . S
C213 N211 1.356 . S
N214 C206 1.356 . S
N214 H220 0.984 . S
N214 H221 0.984 . S
N215 C208 1.356 . S
N215 H218 0.984 . S
N215 H219 0.985 . S
H216 N211 0.984 . S
H217 N211 0.985 . S
H218 N215 0.984 . S
H219 N215 0.985 . S
H220 N214 0.984 . S
H221 N214 0.984 . S
H222 N210 0.984 . S
H223 N210 0.985 . S
C224 C225 1.363 . S
C224 C230 1.379 . S
C224 N232 1.356 . S
C225 C224 1.363 . S
C225 C231 1.363 . S
C226 C227 1.363 . S
C226 C231 1.379 . S
C226 N233 1.356 . S
C227 C226 1.363 . S
C227 C230 1.363 . S
N228 C230 1.356 . S
N228 H240 0.984 . S
N228 H241 0.985 . S
N229 C231 1.356 . S
N229 H234 0.984 . S
N229 H235 0.985 . S
C230 C224 1.379 . S
C230 C227 1.363 . S
C230 N228 1.356 . S
C231 C225 1.363 . S
C231 C226 1.379 . S
C231 N229 1.356 . S
N232 C224 1.356 . S
N232 H238 0.984 . S
N232 H239 0.984 . S
N233 C226 1.356 . S
N233 H236 0.984 . S
N233 H237 0.985 . S
H234 N229 0.984 . S
H235 N229 0.985 . S
H236 N233 0.984 . S
H237 N233 0.985 . S
H238 N232 0.984 . S
H239 N232 0.984 . S
H240 N228 0.984 . S
H241 N228 0.985 . S
C242 C243 1.363 . S
C242 C248 1.379 . S
C242 N250 1.356 . S
C243 C242 1.363 . S
C243 C249 1.363 . S
C244 C245 1.363 . S
C244 C249 1.379 . S
C244 N251 1.356 . S
C245 C244 1.363 . S
C245 C248 1.363 . S
N246 C248 1.356 . S
N246 H258 0.984 . S
N246 H259 0.985 . S
N247 C249 1.356 . S
N247 H252 0.984 . S
N247 H253 0.985 . S
C248 C242 1.379 . S
C248 C245 1.363 . S
C248 N246 1.356 . S
C249 C243 1.363 . S
C249 C244 1.379 . S
C249 N247 1.356 . S
N250 C242 1.356 . S
N250 H256 0.984 . S
N250 H257 0.984 . S
N251 C244 1.356 . S
N251 H254 0.984 . S
N251 H255 0.985 . S
H252 N247 0.984 . S
H253 N247 0.985 . S
H254 N251 0.984 . S
H255 N251 0.985 . S
H256 N250 0.984 . S
H257 N250 0.984 . S
H258 N246 0.984 . S
H259 N246 0.985 . S
C260 C261 1.363 . S
C260 C266 1.379 . S
C260 N268 1.356 . S
C261 C260 1.363 . S
C261 C267 1.363 . S
C262 C263 1.363 . S
C262 C267 1.379 . S
C262 N269 1.356 . S
C263 C262 1.363 . S
C263 C266 1.363 . S
N264 C266 1.356 . S
N264 H276 0.984 . S
N264 H277 0.985 . S
N265 C267 1.356 . S
N265 H270 0.984 . S
N265 H271 0.985 . S
C266 C260 1.379 . S
C266 C263 1.363 . S
C266 N264 1.356 . S
C267 C261 1.363 . S
C267 C262 1.379 . S
C267 N265 1.356 . S
N268 C260 1.356 . S
N268 H274 0.984 . S
N268 H275 0.984 . S
N269 C262 1.356 . S
N269 H272 0.984 . S
N269 H273 0.985 . S
H270 N265 0.984 . S
H271 N265 0.985 . S
H272 N269 0.984 . S
H273 N269 0.985 . S
H274 N268 0.984 . S
H275 N268 0.984 . S
H276 N264 0.984 . S
H277 N264 0.985 . S
C278 C279 1.363 . S
C278 C284 1.379 . S
C278 N286 1.356 . S
C279 C278 1.363 . S
C279 C285 1.363 . S
C280 C281 1.363 . S
C280 C285 1.379 . S
C280 N287 1.356 . S
C281 C280 1.363 . S
C281 C284 1.363 . S
N282 C284 1.356 . S
N282 H294 0.984 1_655 S
N282 H295 0.985 1_655 S
N283 C285 1.356 . S
N283 H288 0.984 . S
N283 H289 0.985 . S
C284 C278 1.379 . S
C284 C281 1.363 . S
C284 N282 1.356 . S
C285 C279 1.363 . S
C285 C280 1.379 . S
C285 N283 1.356 . S
N286 C278 1.356 . S
N286 H292 0.984 . S
N286 H293 0.984 . S
N287 C280 1.356 . S
N287 H290 0.984 . S
N287 H291 0.985 . S
H288 N283 0.984 . S
H289 N283 0.985 . S
H290 N287 0.984 . S
H291 N287 0.985 . S
H292 N286 0.984 . S
H293 N286 0.984 . S
H294 N282 0.984 1_455 S
H295 N282 0.985 1_455 S
C296 C297 1.363 . S
C296 C302 1.379 . S
C296 N304 1.356 . S
C297 C296 1.363 . S
C297 C303 1.363 . S
C298 C299 1.363 . S
C298 C303 1.379 . S
C298 N305 1.356 . S
C299 C298 1.363 . S
C299 C302 1.363 . S
N300 C302 1.356 . S
N300 H312 0.984 . S
N300 H313 0.985 . S
N301 C303 1.356 . S
N301 H306 0.984 . S
N301 H307 0.985 . S
C302 C296 1.379 . S
C302 C299 1.363 . S
C302 N300 1.356 . S
C303 C297 1.363 . S
C303 C298 1.379 . S
C303 N301 1.356 . S
N304 C296 1.356 . S
N304 H310 0.984 . S
N304 H311 0.984 . S
N305 C298 1.356 . S
N305 H308 0.984 . S
N305 H309 0.985 . S
H306 N301 0.984 . S
H307 N301 0.985 . S
H308 N305 0.984 . S
H309 N305 0.985 . S
H310 N304 0.984 . S
H311 N304 0.984 . S
H312 N300 0.984 . S
H313 N300 0.985 . S
C314 C315 1.363 . S
C314 C320 1.379 . S
C314 N322 1.356 . S
C315 C314 1.363 . S
C315 C321 1.363 . S
C316 C317 1.363 . S
C316 C321 1.379 . S
C316 N323 1.356 1_565 S
C317 C316 1.363 . S
C317 C320 1.363 . S
N318 C320 1.356 . S
N318 H330 0.984 . S
N318 H331 0.985 . S
N319 C321 1.356 . S
N319 H324 0.984 . S
N319 H325 0.985 . S
C320 C314 1.379 . S
C320 C317 1.363 . S
C320 N318 1.356 . S
C321 C315 1.363 . S
C321 C316 1.379 . S
C321 N319 1.356 . S
N322 C314 1.356 . S
N322 H328 0.984 . S
N322 H329 0.984 . S
N323 C316 1.356 1_545 S
N323 H326 0.984 . S
N323 H327 0.985 . S
H324 N319 0.984 . S
H325 N319 0.985 . S
H326 N323 0.984 . S
H327 N323 0.985 . S
H328 N322 0.984 . S
H329 N322 0.984 . S
H330 N318 0.984 . S
H331 N318 0.985 . S
C119 C52 1.506 . S
C117 C40 1.505 . S
C135 C4 1.506 . S
C137 C95 1.508 . S
C153 C16 1.499 . S
C155 C61 1.508 . S
C171 C28 1.503 . S
C173 C86 1.506 . S
C191 C48 1.551 . S
C189 C9 1.528 . S
C209 C90 1.534 . S
C207 C18 1.532 . S
C225 C33 1.530 . S
C227 C56 1.546 . S
C243 C45 1.516 . S
C245 C82 1.535 . S
C263 C111 1.484 . S
C261 C21 1.468 . S
C281 C77 1.473 . S
C279 C30 1.466 . S
C299 C99 1.484 . S
C297 C42 1.480 . S
C315 C6 1.468 . S
C317 C65 1.471 . S
