# Generated by pormake.
# Topology pyr, (3,6)-cn, num edge types: 1
# Building blocks:
#     Node 0, Type 0, BuildingBlock: BELTOD_clean_linker_0, # of connection points: 3
#     Node 1, Type 0, BuildingBlock: BELTOD_clean_linker_0, # of connection points: 3
#     Node 2, Type 0, BuildingBlock: BELTOD_clean_linker_0, # of connection points: 3
#     Node 3, Type 0, BuildingBlock: BELTOD_clean_linker_0, # of connection points: 3
#     Node 4, Type 0, BuildingBlock: BELTOD_clean_linker_0, # of connection points: 3
#     Node 5, Type 0, BuildingBlock: BELTOD_clean_linker_0, # of connection points: 3
#     Node 6, Type 0, BuildingBlock: BELTOD_clean_linker_0, # of connection points: 3
#     Node 7, Type 0, BuildingBlock: BELTOD_clean_linker_0, # of connection points: 3
#     Node 8, Type 1, BuildingBlock: GEDQOX_clean_sbu_0, # of connection points: 6
#     Node 9, Type 1, BuildingBlock: GEDQOX_clean_sbu_0, # of connection points: 6
#     Node 10, Type 1, BuildingBlock: GEDQOX_clean_sbu_0, # of connection points: 6
#     Node 11, Type 1, BuildingBlock: GEDQOX_clean_sbu_0, # of connection points: 6
#     Edge 12, Type (0, 1), BuildingBlock: ZUJKAS_clean_linker_0, # of connection points: 2
#     Edge 13, Type (0, 1), BuildingBlock: ZUJKAS_clean_linker_0, # of connection points: 2
#     Edge 14, Type (0, 1), BuildingBlock: ZUJKAS_clean_linker_0, # of connection points: 2
#     Edge 15, Type (0, 1), BuildingBlock: ZUJKAS_clean_linker_0, # of connection points: 2
#     Edge 16, Type (0, 1), BuildingBlock: ZUJKAS_clean_linker_0, # of connection points: 2
#     Edge 17, Type (0, 1), BuildingBlock: ZUJKAS_clean_linker_0, # of connection points: 2
#     Edge 18, Type (0, 1), BuildingBlock: ZUJKAS_clean_linker_0, # of connection points: 2
#     Edge 19, Type (0, 1), BuildingBlock: ZUJKAS_clean_linker_0, # of connection points: 2
#     Edge 20, Type (0, 1), BuildingBlock: ZUJKAS_clean_linker_0, # of connection points: 2
#     Edge 21, Type (0, 1), BuildingBlock: ZUJKAS_clean_linker_0, # of connection points: 2
#     Edge 22, Type (0, 1), BuildingBlock: ZUJKAS_clean_linker_0, # of connection points: 2
#     Edge 23, Type (0, 1), BuildingBlock: ZUJKAS_clean_linker_0, # of connection points: 2
#     Edge 24, Type (0, 1), BuildingBlock: ZUJKAS_clean_linker_0, # of connection points: 2
#     Edge 25, Type (0, 1), BuildingBlock: ZUJKAS_clean_linker_0, # of connection points: 2
#     Edge 26, Type (0, 1), BuildingBlock: ZUJKAS_clean_linker_0, # of connection points: 2
#     Edge 27, Type (0, 1), BuildingBlock: ZUJKAS_clean_linker_0, # of connection points: 2
#     Edge 28, Type (0, 1), BuildingBlock: ZUJKAS_clean_linker_0, # of connection points: 2
#     Edge 29, Type (0, 1), BuildingBlock: ZUJKAS_clean_linker_0, # of connection points: 2
#     Edge 30, Type (0, 1), BuildingBlock: ZUJKAS_clean_linker_0, # of connection points: 2
#     Edge 31, Type (0, 1), BuildingBlock: ZUJKAS_clean_linker_0, # of connection points: 2
#     Edge 32, Type (0, 1), BuildingBlock: ZUJKAS_clean_linker_0, # of connection points: 2
#     Edge 33, Type (0, 1), BuildingBlock: ZUJKAS_clean_linker_0, # of connection points: 2
#     Edge 34, Type (0, 1), BuildingBlock: ZUJKAS_clean_linker_0, # of connection points: 2
#     Edge 35, Type (0, 1), BuildingBlock: ZUJKAS_clean_linker_0, # of connection points: 2
# Relax obj value: 0.087
# Max RMSD: 0.149
# Mean RMSD: 0.055
data_MOF--net-pyr--node1-GEDQOX_clean_sbu_0--node2-BELTOD_clean_linker_0--edge1-ZUJKAS_clean_linker_0
_symmetry_space_group_name_H-M    P1
_symmetry_Int_Tables_number       1
_symmetry_cell_setting            triclinic
loop_
_symmetry_equiv_pos_as_xyz
'x, y, z'
_cell_length_a     56.340181
_cell_length_b     56.660511
_cell_length_c     49.543318
_cell_angle_alpha  87.430628
_cell_angle_beta   90.814521
_cell_angle_gamma 87.455213
loop_
_atom_site_label
_atom_site_type_symbol
_atom_site_fract_x
_atom_site_fract_y
_atom_site_fract_z
_atom_type_partial_charge
P0 P 0.20778 0.19911 0.18908 0.0
H1 H 0.25207 0.21431 0.16592 0.0
H2 H 0.28514 0.19363 0.1443 0.0
H3 H 0.24562 0.13005 0.14501 0.0
H4 H 0.21235 0.15107 0.16651 0.0
H5 H 0.18444 0.24171 0.20856 0.0
H6 H 0.16343 0.27606 0.18672 0.0
H7 H 0.17311 0.24562 0.10903 0.0
H8 H 0.19399 0.21081 0.13139 0.0
H9 H 0.21788 0.15488 0.22087 0.0
H10 H 0.15651 0.20105 0.20204 0.0
O11 O 0.22392 0.21153 0.21264 0.0
H12 H 0.19488 0.13231 0.25355 0.0
H13 H 0.13371 0.17943 0.23557 0.0
C14 C 0.22974 0.18426 0.16822 0.0
C15 C 0.25032 0.196 0.16111 0.0
C16 C 0.26939 0.18404 0.14893 0.0
C17 C 0.26839 0.15996 0.14328 0.0
C18 C 0.24714 0.14855 0.14903 0.0
C19 C 0.22804 0.16057 0.16142 0.0
C20 C 0.19109 0.2237 0.17167 0.0
C21 C 0.18208 0.24235 0.1868 0.0
C22 C 0.17014 0.26217 0.17419 0.0
C23 C 0.16676 0.264 0.14594 0.0
C24 C 0.17527 0.24492 0.1308 0.0
C25 C 0.18732 0.22498 0.14355 0.0
C26 C 0.18895 0.17946 0.2084 0.0
C27 C 0.19929 0.1599 0.22331 0.0
C28 C 0.18614 0.14722 0.24248 0.0
C29 C 0.16231 0.15404 0.24771 0.0
C30 C 0.15182 0.17329 0.23209 0.0
C31 C 0.16497 0.18582 0.21276 0.0
P32 P 0.37901 0.81209 0.72423 0.0
H33 H 0.42646 0.81161 0.74807 0.0
H34 H 0.44154 0.8251 0.791 0.0
H35 H 0.36943 0.83891 0.81665 0.0
H36 H 0.35457 0.82475 0.77419 0.0
H37 H 0.37327 0.79165 0.67244 0.0
H38 H 0.38282 0.75258 0.65567 0.0
H39 H 0.40958 0.72886 0.73493 0.0
H40 H 0.39992 0.76822 0.75162 0.0
H41 H 0.35083 0.85606 0.71518 0.0
H42 H 0.33789 0.78183 0.72619 0.0
O43 O 0.39245 0.83094 0.70329 0.0
H44 H 0.30844 0.86476 0.70681 0.0
H45 H 0.29536 0.79039 0.71785 0.0
C46 C 0.38945 0.81729 0.75786 0.0
C47 C 0.41393 0.81705 0.76322 0.0
C48 C 0.42251 0.82496 0.78768 0.0
C49 C 0.4067 0.83341 0.80715 0.0
C50 C 0.38212 0.83238 0.80224 0.0
C51 C 0.37357 0.82438 0.7778 0.0
C52 C 0.38611 0.78286 0.71313 0.0
C53 C 0.38116 0.77802 0.68622 0.0
C54 C 0.38644 0.75562 0.67673 0.0
C55 C 0.39688 0.7376 0.694 0.0
C56 C 0.4017 0.74246 0.72111 0.0
C57 C 0.3962 0.76493 0.73067 0.0
C58 C 0.34751 0.81828 0.72058 0.0
C59 C 0.33881 0.84166 0.71594 0.0
C60 C 0.31456 0.84661 0.7114 0.0
C61 C 0.29859 0.82822 0.71149 0.0
C62 C 0.3073 0.80487 0.71728 0.0
C63 C 0.33158 0.79997 0.72202 0.0
P64 P 0.74445 0.36431 0.82362 0.0
H65 H 0.77041 0.35167 0.87365 0.0
H66 H 0.79961 0.37206 0.89982 0.0
H67 H 0.79073 0.43306 0.8444 0.0
H68 H 0.76102 0.41281 0.81888 0.0
H69 H 0.72145 0.32082 0.813 0.0
H70 H 0.69243 0.29793 0.83776 0.0
H71 H 0.693 0.34766 0.90137 0.0
H72 H 0.72214 0.37053 0.87639 0.0
H73 H 0.75402 0.38159 0.76864 0.0
H74 H 0.69722 0.38814 0.82562 0.0
O75 O 0.7621 0.34583 0.80684 0.0
H76 H 0.72934 0.40335 0.7341 0.0
H77 H 0.67212 0.40907 0.79104 0.0
C78 C 0.76325 0.38087 0.84463 0.0
C79 C 0.77437 0.36964 0.86751 0.0
C80 C 0.79123 0.38123 0.88229 0.0
C81 C 0.79759 0.40417 0.87415 0.0
C82 C 0.786 0.41555 0.85148 0.0
C83 C 0.76904 0.40394 0.83678 0.0
C84 C 0.7244 0.34695 0.84322 0.0
C85 C 0.71554 0.32664 0.83242 0.0
C86 C 0.69878 0.31373 0.84646 0.0
C87 C 0.69046 0.32101 0.87151 0.0
C88 C 0.69933 0.34147 0.88228 0.0
C89 C 0.71602 0.35448 0.86808 0.0
C90 C 0.72723 0.38277 0.79944 0.0
C91 C 0.73623 0.38774 0.77371 0.0
C92 C 0.72204 0.40007 0.75395 0.0
C93 C 0.69858 0.40763 0.75962 0.0
C94 C 0.69011 0.40363 0.78595 0.0
C95 C 0.70439 0.39144 0.80573 0.0
P96 P 0.7875 0.82795 0.28408 0.0
H97 H 0.82819 0.85492 0.26665 0.0
H98 H 0.85603 0.87845 0.29109 0.0
H99 H 0.81712 0.86574 0.36454 0.0
H100 H 0.78995 0.84171 0.34019 0.0
H101 H 0.77045 0.8087 0.23432 0.0
H102 H 0.7877 0.7792 0.20504 0.0
H103 H 0.85382 0.77905 0.25047 0.0
H104 H 0.83606 0.80771 0.2803 0.0
H105 H 0.73857 0.81662 0.29756 0.0
H106 H 0.80969 0.79154 0.32047 0.0
O107 O 0.76593 0.84546 0.26954 0.0
H108 H 0.72239 0.78543 0.32657 0.0
H109 H 0.79377 0.75981 0.34877 0.0
C110 C 0.80754 0.8459 0.30181 0.0
C111 C 0.82584 0.85703 0.28808 0.0
C112 C 0.84161 0.87066 0.30204 0.0
C113 C 0.83902 0.87373 0.32989 0.0
C114 C 0.82005 0.86322 0.34329 0.0
C115 C 0.80441 0.84952 0.32934 0.0
C116 C 0.80216 0.81086 0.25903 0.0
C117 C 0.78886 0.80277 0.23749 0.0
C118 C 0.79878 0.78589 0.22075 0.0
C119 C 0.82216 0.77669 0.22542 0.0
C120 C 0.83568 0.78553 0.24649 0.0
C121 C 0.82566 0.80224 0.26333 0.0
C122 C 0.7753 0.80642 0.30704 0.0
C123 C 0.75069 0.80446 0.30894 0.0
C124 C 0.74149 0.78647 0.32535 0.0
C125 C 0.75678 0.77002 0.33992 0.0
C126 C 0.78147 0.77232 0.33814 0.0
C127 C 0.79061 0.79037 0.32185 0.0
P128 P 0.85351 0.87365 0.88951 0.0
H129 H 0.82427 0.86254 0.93626 0.0
H130 H 0.78491 0.87693 0.94978 0.0
H131 H 0.77398 0.91214 0.87111 0.0
H132 H 0.81369 0.89823 0.85818 0.0
H133 H 0.90065 0.85525 0.90621 0.0
H134 H 0.91747 0.81603 0.91972 0.0
H135 H 0.84984 0.78613 0.90357 0.0
H136 H 0.83294 0.82589 0.89008 0.0
H137 H 0.86117 0.92108 0.86707 0.0
H138 H 0.86621 0.85031 0.83874 0.0
O139 O 0.86703 0.89043 0.91134 0.0
H140 H 0.87756 0.9363 0.82492 0.0
H141 H 0.88194 0.86548 0.79574 0.0
C142 C 0.82201 0.87892 0.89604 0.0
C143 C 0.81316 0.87285 0.92166 0.0
C144 C 0.79051 0.88121 0.9294 0.0
C145 C 0.77599 0.89601 0.91173 0.0
C146 C 0.78461 0.90124 0.88561 0.0
C147 C 0.80734 0.89294 0.87796 0.0
C148 C 0.86538 0.8437 0.89759 0.0
C149 C 0.88933 0.84032 0.90561 0.0
C150 C 0.89895 0.8178 0.91347 0.0
C151 C 0.88499 0.79783 0.91318 0.0
C152 C 0.86114 0.80108 0.9041 0.0
C153 C 0.85141 0.82382 0.89645 0.0
C154 C 0.86261 0.88451 0.85629 0.0
C155 C 0.8655 0.9088 0.85155 0.0
C156 C 0.87479 0.91754 0.82718 0.0
C157 C 0.8813 0.90223 0.8066 0.0
C158 C 0.87762 0.87787 0.81113 0.0
C159 C 0.86837 0.86913 0.83569 0.0
P160 P 0.71282 0.28917 0.23659 0.0
H161 H 0.72111 0.33663 0.25317 0.0
H162 H 0.70022 0.36297 0.28349 0.0
H163 H 0.64648 0.31154 0.29545 0.0
H164 H 0.66729 0.28551 0.26464 0.0
H165 H 0.75837 0.26586 0.22455 0.0
H166 H 0.78994 0.24645 0.25321 0.0
H167 H 0.74826 0.25985 0.32391 0.0
H168 H 0.71698 0.27927 0.29528 0.0
H169 H 0.6892 0.28838 0.18386 0.0
H170 H 0.69666 0.24298 0.25594 0.0
O171 O 0.72599 0.30477 0.21214 0.0
H172 H 0.66676 0.25854 0.16186 0.0
H173 H 0.67366 0.2132 0.23437 0.0
C174 C 0.69549 0.30937 0.25622 0.0
C175 C 0.70459 0.33123 0.26193 0.0
C176 C 0.69277 0.34615 0.27952 0.0
C177 C 0.6717 0.33934 0.29197 0.0
C178 C 0.66248 0.31747 0.28591 0.0
C179 C 0.67435 0.30255 0.26828 0.0
C180 C 0.73561 0.27447 0.25781 0.0
C181 C 0.75611 0.26466 0.24623 0.0
C182 C 0.77404 0.25346 0.26261 0.0
C183 C 0.77168 0.25185 0.29085 0.0
C184 C 0.75081 0.26125 0.30228 0.0
C185 C 0.73288 0.27233 0.28588 0.0
C186 C 0.69496 0.26768 0.2213 0.0
C187 C 0.68588 0.27201 0.195 0.0
C188 C 0.67288 0.25498 0.18253 0.0
C189 C 0.66852 0.23336 0.19626 0.0
C190 C 0.67708 0.22944 0.223 0.0
C191 C 0.69015 0.24649 0.23542 0.0
P192 P 0.36475 0.60616 0.13589 0.0
H193 H 0.33697 0.59974 0.08725 0.0
H194 H 0.29456 0.59536 0.07879 0.0
H195 H 0.28119 0.60275 0.16375 0.0
H196 H 0.32365 0.60683 0.17208 0.0
H197 H 0.41138 0.62372 0.12555 0.0
H198 H 0.42525 0.66311 0.11454 0.0
H199 H 0.3524 0.69056 0.10859 0.0
H200 H 0.33877 0.65121 0.12061 0.0
H201 H 0.38034 0.56516 0.17067 0.0
H202 H 0.36639 0.63994 0.17884 0.0
O203 O 0.37945 0.58525 0.11929 0.0
H204 H 0.39464 0.56127 0.21761 0.0
H205 H 0.38056 0.63619 0.22576 0.0
C206 C 0.33346 0.60322 0.13029 0.0
C207 C 0.32488 0.60035 0.10404 0.0
C208 C 0.30063 0.59805 0.09922 0.0
C209 C 0.28452 0.59865 0.12063 0.0
C210 C 0.2932 0.60188 0.14691 0.0
C211 C 0.31748 0.60426 0.15168 0.0
C212 C 0.3741 0.63448 0.12345 0.0
C213 C 0.39841 0.63816 0.12138 0.0
C214 C 0.40629 0.66071 0.11499 0.0
C215 C 0.38994 0.68005 0.11059 0.0
C216 C 0.36549 0.67613 0.11212 0.0
C217 C 0.35764 0.65355 0.1187 0.0
C218 C 0.37289 0.6029 0.17114 0.0
C219 C 0.38021 0.5807 0.18263 0.0
C220 C 0.38822 0.57849 0.2095 0.0
C221 C 0.38896 0.59849 0.22527 0.0
C222 C 0.3806 0.62055 0.21395 0.0
C223 C 0.37248 0.6227 0.18716 0.0
P224 P 0.25322 0.22163 0.7543 0.0
H225 H 0.24314 0.17137 0.75431 0.0
H226 H 0.21306 0.14973 0.73098 0.0
H227 H 0.18226 0.21563 0.69632 0.0
H228 H 0.21254 0.23716 0.71955 0.0
H229 H 0.28976 0.2555 0.75982 0.0
H230 H 0.31074 0.27999 0.72716 0.0
H231 H 0.27778 0.24456 0.66186 0.0
H232 H 0.25653 0.22035 0.69471 0.0
H233 H 0.24537 0.22354 0.81266 0.0
H234 H 0.23255 0.26891 0.74121 0.0
O235 O 0.27082 0.20298 0.77341 0.0
H236 H 0.23114 0.25556 0.84081 0.0
H237 H 0.21794 0.30067 0.76902 0.0
C238 C 0.23005 0.20587 0.73869 0.0
C239 C 0.2298 0.18119 0.74191 0.0
C240 C 0.21252 0.16885 0.72866 0.0
C241 C 0.19529 0.18099 0.71182 0.0
C242 C 0.19541 0.20578 0.70899 0.0
C243 C 0.21261 0.21811 0.7224 0.0
C244 C 0.27125 0.23646 0.72973 0.0
C245 C 0.28727 0.25281 0.73847 0.0
C246 C 0.29935 0.26673 0.71975 0.0
C247 C 0.29578 0.26438 0.69186 0.0
C248 C 0.28055 0.24711 0.68319 0.0
C249 C 0.26844 0.23319 0.70199 0.0
C250 C 0.24029 0.24398 0.77492 0.0
C251 C 0.23927 0.24029 0.80302 0.0
C252 C 0.23105 0.25855 0.81906 0.0
C253 C 0.22373 0.28074 0.80714 0.0
C254 C 0.22392 0.28396 0.77885 0.0
C255 C 0.23207 0.26573 0.76291 0.0
Nd256 Nd 0.03151 1.00415 0.51859 0.0
Nd257 Nd 1.00246 0.04775 0.52667 0.0
C258 C 0.04906 0.96041 0.51434 0.0
C259 C 0.06116 0.94322 0.53343 0.0
C260 C 0.07233 0.92268 0.52404 0.0
C261 C 0.08671 0.90797 0.5415 0.0
C262 C 0.09023 0.91371 0.56859 0.0
C263 C 0.07803 0.9338 0.57815 0.0
C264 C 0.06363 0.94844 0.5607 0.0
C265 C 0.05456 0.03633 0.5482 0.0
C266 C 0.99657 1.00628 0.57168 0.0
C267 C 0.9842 0.09129 0.53029 0.0
C268 C 0.97308 0.10864 0.51056 0.0
C269 C 0.97834 0.10771 0.48302 0.0
C270 C 0.96543 0.12211 0.4639 0.0
C271 C 0.94681 0.13749 0.47194 0.0
C272 C 0.94217 0.13891 0.49968 0.0
C273 C 0.9552 0.12458 0.51881 0.0
C274 C 0.97969 1.01539 0.49692 0.0
C275 C 0.03771 0.04573 0.47384 0.0
O276 O 0.02662 0.96547 0.5188 0.0
O277 O 0.06096 0.97916 0.50847 0.0
O278 O 0.06488 0.02328 0.53069 0.0
O279 O 0.03321 0.03127 0.55094 0.0
O280 O 1.00682 0.99274 0.55371 0.0
O281 O 0.99616 0.02952 0.5681 0.0
O282 O 1.00696 0.08642 0.52775 0.0
O283 O 0.97215 0.07243 0.535 0.0
O284 O 0.96936 0.02797 0.51486 0.0
O285 O 1.00093 0.02081 0.49416 0.0
O286 O 0.02745 0.05924 0.49184 0.0
O287 O 0.0379 0.02249 0.47727 0.0
H288 H 0.0706 0.91845 0.50301 0.0
H289 H 0.0956 0.89246 0.53362 0.0
H290 H 0.08057 0.93893 0.59875 0.0
H291 H 0.05523 0.96438 0.56819 0.0
H292 H 0.99193 0.09533 0.4762 0.0
H293 H 0.9697 0.12081 0.44275 0.0
H294 H 0.92778 0.15031 0.50657 0.0
H295 H 0.95072 0.12531 0.53996 0.0
Nd296 Nd 0.52406 1.00776 0.04918 0.0
Nd297 Nd 0.51465 0.04005 1.00343 0.0
C298 C 0.53288 0.97008 0.08181 0.0
C299 C 0.52035 0.94811 0.08613 0.0
C300 C 0.53265 0.92754 0.09636 0.0
C301 C 0.52112 0.9062 0.09862 0.0
C302 C 0.4971 0.9052 0.09073 0.0
C303 C 0.48481 0.92597 0.08073 0.0
C304 C 0.49638 0.94722 0.07832 0.0
C305 C 0.48492 0.03797 0.0566 0.0
C306 C 0.49127 0.99076 0.99854 0.0
C307 C 0.50501 0.07759 0.97076 0.0
C308 C 0.51433 0.10142 0.96767 0.0
C309 C 0.51787 0.1152 0.99015 0.0
C310 C 0.52861 0.1369 0.98714 0.0
C311 C 0.53604 0.14522 0.9616 0.0
C312 C 0.53196 0.13159 0.93907 0.0
C313 C 0.52118 0.10992 0.9421 0.0
C314 C 0.55344 1.00953 0.99564 0.0
C315 C 0.5481 0.05656 0.05352 0.0
O316 O 0.54252 0.97285 0.05813 0.0
O317 O 0.52179 0.98934 0.08942 0.0
O318 O 0.50142 0.03288 0.07469 0.0
O319 O 0.48931 0.02727 0.03522 0.0
O320 O 0.50576 0.98428 0.01892 0.0
O321 O 0.48863 1.0131 0.99027 0.0
O322 O 0.49306 0.07283 0.99261 0.0
O323 O 0.51959 0.06018 0.9646 0.0
O324 O 0.53692 1.01494 0.97765 0.0
O325 O 0.54932 0.0202 0.01716 0.0
O326 O 0.53253 0.06336 0.03428 0.0
O327 O 0.55138 0.03404 0.06077 0.0
H328 H 0.55122 0.92791 0.10223 0.0
H329 H 0.53096 0.89049 0.10656 0.0
H330 H 0.46642 0.92565 0.07412 0.0
H331 H 0.48671 0.96288 0.06994 0.0
H332 H 0.51269 0.10906 1.01013 0.0
H333 H 0.53124 0.14707 1.00485 0.0
H334 H 0.53778 0.13727 0.91917 0.0
H335 H 0.51874 0.09951 0.92453 0.0
Nd336 Nd 0.50261 0.50398 0.50758 0.0
Nd337 Nd 0.54527 0.53402 0.51728 0.0
C338 C 0.4613 0.48612 0.49583 0.0
C339 C 0.44312 0.47334 0.51052 0.0
C340 C 0.42268 0.46683 0.49683 0.0
C341 C 0.40656 0.45233 0.50988 0.0
C342 C 0.41073 0.44406 0.53682 0.0
C343 C 0.4309 0.45139 0.5507 0.0
C344 C 0.44695 0.46593 0.53765 0.0
C345 C 0.53176 0.48777 0.55014 0.0
C346 C 0.49754 0.54837 0.5474 0.0
C347 C 0.58668 0.55141 0.52951 0.0
C348 C 0.60655 0.5617 0.51513 0.0
C349 C 0.62645 0.56829 0.52976 0.0
C350 C 0.64419 0.58077 0.51678 0.0
C351 C 0.64221 0.58691 0.48898 0.0
C352 C 0.62268 0.57927 0.4742 0.0
C353 C 0.60498 0.56676 0.4872 0.0
C354 C 0.51596 0.5502 0.47473 0.0
C355 C 0.55028 0.49019 0.47648 0.0
O356 O 0.46349 0.50827 0.50141 0.0
O357 O 0.48174 0.47454 0.494 0.0
O358 O 0.52023 0.47384 0.5352 0.0
O359 O 0.52587 0.50894 0.54409 0.0
O360 O 0.4866 0.53644 0.52895 0.0
O361 O 0.52081 0.54618 0.5507 0.0
O362 O 0.58383 0.52883 0.52688 0.0
O363 O 0.56668 0.56404 0.52792 0.0
O364 O 0.52734 0.56416 0.48981 0.0
O365 O 0.52205 0.52908 0.48074 0.0
O366 O 0.5614 0.50244 0.4945 0.0
O367 O 0.52692 0.49184 0.47394 0.0
H368 H 0.41952 0.47244 0.47584 0.0
H369 H 0.39104 0.44728 0.49875 0.0
H370 H 0.43484 0.44511 0.57132 0.0
H371 H 0.46277 0.47073 0.54843 0.0
H372 H 0.6279 0.56445 0.55136 0.0
H373 H 0.65916 0.58611 0.52864 0.0
H374 H 0.62046 0.58393 0.45285 0.0
H375 H 0.58963 0.56181 0.47566 0.0
Nd376 Nd 1.00468 0.52266 0.0414 0.0
Nd377 Nd 0.04298 0.53112 0.99967 0.0
C378 C 0.96423 0.51884 0.06721 0.0
C379 C 0.94608 0.53597 0.07642 0.0
C380 C 0.93642 0.53275 0.10215 0.0
C381 C 0.92159 0.55043 0.11259 0.0
C382 C 0.91634 0.57173 0.09752 0.0
C383 C 0.92528 0.57441 0.07125 0.0
C384 C 0.93995 0.55667 0.06079 0.0
C385 C 0.04426 0.54321 0.06055 0.0
C386 C 1.00253 0.573 1.00305 0.0
C387 C 0.0833 0.53438 0.97349 0.0
C388 C 0.10165 0.51704 0.96503 0.0
C389 C 0.10889 0.5176 0.93807 0.0
C390 C 0.12373 0.49942 0.92873 0.0
C391 C 0.13156 0.48031 0.94621 0.0
C392 C 0.12514 0.48036 0.97352 0.0
C393 C 0.11034 0.49857 0.98285 0.0
C394 C 1.00327 0.51082 0.98052 0.0
C395 C 0.04519 0.48096 0.03805 0.0
O396 O 0.96603 0.51704 0.04104 0.0
O397 O 0.98488 0.51905 0.07958 0.0
O398 O 0.03281 0.52764 0.07457 0.0
O399 O 0.03405 0.54826 0.03815 0.0
O400 O 0.99107 0.55781 0.01871 0.0
O401 O 0.02454 0.5681 0.99541 0.0
O402 O 0.08153 0.53734 0.99946 0.0
O403 O 0.06265 0.53347 0.96131 0.0
O404 O 1.01481 0.52635 0.96659 0.0
O405 O 1.01354 0.50552 1.00284 0.0
O406 O 0.05697 0.49657 0.02335 0.0
O407 O 0.02284 0.48551 0.04462 0.0
H408 H 0.94092 0.51687 0.11449 0.0
H409 H 0.91465 0.54762 0.13269 0.0
H410 H 0.92185 0.59064 0.05916 0.0
H411 H 0.94711 0.55948 0.04083 0.0
H412 H 0.10231 0.53164 0.92398 0.0
H413 H 0.12813 0.49979 0.90751 0.0
H414 H 0.13115 0.46607 0.98757 0.0
H415 H 0.10515 0.49782 1.0038 0.0
H416 H 0.17958 0.13535 0.29692 0.0
H417 H 0.15794 0.11625 0.33348 0.0
H418 H 0.09261 0.12759 0.28749 0.0
H419 H 0.11432 0.14549 0.25009 0.0
H420 H 0.12442 0.13253 0.36494 0.0
H421 H 0.08759 0.05938 0.30963 0.0
H422 H 0.11006 0.07776 0.29553 0.0
H423 H 0.07928 0.08786 0.29425 0.0
C424 C 0.1607 0.13334 0.29414 0.0
C425 C 0.14891 0.1419 0.27011 0.0
C426 C 0.14823 0.12258 0.31536 0.0
C427 C 0.12357 0.12002 0.31333 0.0
C428 C 0.11167 0.12873 0.28952 0.0
H429 H 0.0356 0.09247 0.45593 0.0
H430 H 0.05546 0.11055 0.41711 0.0
C431 C 0.12415 0.13935 0.26817 0.0
C432 C 0.11038 0.10895 0.33646 0.0
H433 H 0.07218 0.06546 0.35337 0.0
C434 C 0.11306 0.11782 0.36235 0.0
C435 C 0.09573 0.08947 0.33344 0.0
C436 C 0.09315 0.07789 0.30678 0.0
C437 C 0.1015 0.10803 0.38502 0.0
C438 C 0.08614 0.08913 0.38181 0.0
C439 C 0.08364 0.0801 0.35597 0.0
C440 C 0.07311 0.07804 0.40506 0.0
C441 C 0.10649 0.11766 0.41234 0.0
C442 C 0.07539 0.0535 0.41085 0.0
C443 C 0.06366 0.04301 0.43283 0.0
C444 C 0.04931 0.05679 0.44972 0.0
C445 C 0.04665 0.08129 0.44361 0.0
C446 C 0.05822 0.09172 0.42145 0.0
H447 H 0.12361 0.12667 0.4127 0.0
H448 H 0.09219 0.13087 0.41701 0.0
H449 H 0.10711 0.1034 0.42848 0.0
H450 H 0.08661 0.04241 0.39857 0.0
H451 H 0.06617 0.02411 0.43682 0.0
H452 H 0.44294 0.8637 0.80945 0.0
H453 H 0.45584 0.88561 0.84781 0.0
H454 H 0.40337 0.85276 0.89767 0.0
H455 H 0.39039 0.83044 0.85924 0.0
H456 H 0.40248 0.9014 0.90071 0.0
H457 H 0.49441 0.86409 0.91532 0.0
H458 H 0.48825 0.87404 0.88094 0.0
H459 H 0.47233 0.84993 0.89568 0.0
C460 C 0.4345 0.86062 0.82871 0.0
C461 C 0.41573 0.84515 0.83128 0.0
C462 C 0.4419 0.87322 0.85065 0.0
C463 C 0.43082 0.87055 0.87571 0.0
C464 C 0.41224 0.85497 0.87852 0.0
H465 H 0.49083 0.94333 1.01157 0.0
H466 H 0.47362 0.9127 0.98515 0.0
C467 C 0.4048 0.84231 0.85653 0.0
C468 C 0.43771 0.88531 0.89826 0.0
H469 H 0.48583 0.90182 0.93426 0.0
C470 C 0.42062 0.90126 0.90837 0.0
C471 C 0.46128 0.88486 0.90855 0.0
C472 C 0.48006 0.86713 0.89977 0.0
C473 C 0.42678 0.91763 0.92745 0.0
C474 C 0.45072 0.9183 0.93627 0.0
C475 C 0.46753 0.90151 0.92725 0.0
C476 C 0.45907 0.93703 0.95362 0.0
C477 C 0.40761 0.93416 0.93779 0.0
C478 C 0.45649 0.96091 0.94476 0.0
C479 C 0.46624 0.97847 0.95983 0.0
C480 C 0.47901 0.97247 0.98393 0.0
C481 C 0.48114 0.94858 0.99307 0.0
C482 C 0.47132 0.93103 0.978 0.0
H483 H 0.38983 0.92657 0.9362 0.0
H484 H 0.41106 0.9382 0.95919 0.0
H485 H 0.40711 0.951 0.92541 0.0
H486 H 0.4476 0.96592 0.9257 0.0
H487 H 0.46438 0.99666 0.95212 0.0
H488 H 0.69536 0.39498 0.70711 0.0
H489 H 0.66763 0.41094 0.67192 0.0
H490 H 0.63699 0.45963 0.72756 0.0
H491 H 0.66511 0.44416 0.76288 0.0
H492 H 0.60362 0.43195 0.69888 0.0
H493 H 0.66671 0.47671 0.63063 0.0
H494 H 0.6753 0.4467 0.64105 0.0
H495 H 0.6737 0.46898 0.66571 0.0
C496 C 0.68312 0.40945 0.71178 0.0
C497 C 0.68257 0.41836 0.73784 0.0
C498 C 0.66721 0.41847 0.69163 0.0
C499 C 0.65045 0.43657 0.69712 0.0
C500 C 0.64987 0.44566 0.72298 0.0
H501 H 0.55803 0.51585 0.5807 0.0
H502 H 0.58634 0.50357 0.6171 0.0
C503 C 0.66587 0.43672 0.74314 0.0
C504 C 0.63285 0.44522 0.67612 0.0
H505 H 0.62762 0.47255 0.61339 0.0
C506 C 0.60881 0.44094 0.68023 0.0
C507 C 0.63973 0.45707 0.65197 0.0
C508 C 0.66523 0.46286 0.64705 0.0
C509 C 0.59145 0.44777 0.66047 0.0
C510 C 0.59843 0.45896 0.63597 0.0
C511 C 0.62241 0.46373 0.63212 0.0
C512 C 0.58106 0.46618 0.61417 0.0
C513 C 0.56577 0.44315 0.66601 0.0
C514 C 0.56891 0.44916 0.60034 0.0
C515 C 0.55277 0.45612 0.57947 0.0
C516 C 0.54857 0.48019 0.57221 0.0
C517 C 0.56083 0.49717 0.58601 0.0
C518 C 0.57702 0.4902 0.60674 0.0
H519 H 0.56275 0.43921 0.68784 0.0
H520 H 0.55405 0.45859 0.65911 0.0
H521 H 0.56049 0.42769 0.65471 0.0
H522 H 0.57209 0.43051 0.60554 0.0
H523 H 0.54363 0.44271 0.56903 0.0
H524 H 0.84903 0.73807 0.24458 0.0
H525 H 0.86311 0.70411 0.21984 0.0
H526 H 0.82954 0.73476 0.1469 0.0
H527 H 0.81628 0.76948 0.17126 0.0
H528 H 0.83559 0.67304 0.19423 0.0
H529 H 0.89589 0.7165 0.12143 0.0
H530 H 0.88479 0.73088 0.15079 0.0
H531 H 0.8661 0.72916 0.1213 0.0
C532 C 0.84512 0.73794 0.22312 0.0
C533 C 0.83169 0.75665 0.20986 0.0
C534 C 0.85297 0.71837 0.20908 0.0
C535 C 0.84757 0.71702 0.1815 0.0
C536 C 0.83426 0.73564 0.16809 0.0
H537 H 0.88308 0.60309 0.07333 0.0
H538 H 0.86418 0.63807 0.09278 0.0
C539 C 0.82648 0.75535 0.18211 0.0
C540 C 0.85513 0.6956 0.16727 0.0
H541 H 0.88991 0.67589 0.11632 0.0
C542 C 0.84743 0.67367 0.17715 0.0
C543 C 0.87048 0.69651 0.14492 0.0
C544 C 0.88 0.71948 0.13407 0.0
C545 C 0.85489 0.65256 0.16549 0.0
C546 C 0.87058 0.65344 0.14353 0.0
C547 C 0.8778 0.67538 0.13315 0.0
C548 C 0.88089 0.6317 0.13215 0.0
C549 C 0.84602 0.62946 0.17679 0.0
C550 C 0.89651 0.61667 0.14791 0.0
C551 C 0.9075 0.59687 0.13684 0.0
C552 C 0.90307 0.59172 0.10976 0.0
C553 C 0.88706 0.60667 0.09416 0.0
C554 C 0.87617 0.62658 0.10524 0.0
H555 H 0.82973 0.63219 0.18885 0.0
H556 H 0.84215 0.61745 0.16033 0.0
H557 H 0.85996 0.6206 0.19022 0.0
H558 H 0.9007 0.62061 0.16859 0.0
H559 H 0.92011 0.58608 0.14927 0.0
H560 H 0.27049 0.1267 0.10399 0.0
H561 H 0.30586 0.10531 0.08722 0.0
H562 H 0.3502 0.14183 0.1416 0.0
H563 H 0.31515 0.1631 0.1585 0.0
H564 H 0.35036 0.12624 0.06409 0.0
H565 H 0.36689 0.06902 0.15702 0.0
H566 H 0.33822 0.08335 0.14887 0.0
H567 H 0.36175 0.10007 0.16203 0.0
C568 C 0.28775 0.13012 0.11248 0.0
C569 C 0.28982 0.14676 0.13262 0.0
C570 C 0.308 0.11794 0.10275 0.0
C571 C 0.33078 0.1218 0.11321 0.0
C572 C 0.33288 0.13838 0.13326 0.0
H573 H 0.47527 0.06444 0.09996 0.0
H574 H 0.43783 0.08464 0.1116 0.0
C575 C 0.31275 0.1507 0.14278 0.0
C576 C 0.35241 0.10858 0.10343 0.0
H577 H 0.39678 0.0683 0.12407 0.0
C578 C 0.36043 0.11342 0.0771 0.0
C579 C 0.36569 0.09194 0.12038 0.0
C580 C 0.35771 0.08555 0.1486 0.0
C581 C 0.38171 0.10271 0.06764 0.0
C582 C 0.39513 0.08609 0.08468 0.0
C583 C 0.38675 0.08099 0.11086 0.0
C584 C 0.41828 0.07437 0.0764 0.0
C585 C 0.39004 0.11015 0.03987 0.0
C586 C 0.4202 0.06171 0.05258 0.0
C587 C 0.44189 0.05034 0.04566 0.0
C588 C 0.46207 0.05095 0.06265 0.0
C589 C 0.46011 0.06355 0.08641 0.0
C590 C 0.4386 0.07511 0.09314 0.0
H591 H 0.38193 0.12763 0.03286 0.0
H592 H 0.40967 0.11115 0.03951 0.0
H593 H 0.3847 0.09699 0.02528 0.0
H594 H 0.40482 0.06018 0.03956 0.0
H595 H 0.44271 0.04063 0.02733 0.0
H596 H 0.2689 0.8642 0.72782 0.0
H597 H 0.22908 0.87566 0.71002 0.0
H598 H 0.2318 0.81584 0.6591 0.0
H599 H 0.27144 0.80423 0.67691 0.0
H600 H 0.2204 0.88845 0.65789 0.0
H601 H 0.16463 0.81372 0.6868 0.0
H602 H 0.19321 0.81772 0.70251 0.0
H603 H 0.19134 0.80423 0.67039 0.0
C604 C 0.26082 0.8533 0.71315 0.0
C605 C 0.2733 0.83336 0.7037 0.0
C606 C 0.23806 0.85979 0.7031 0.0
C607 C 0.22735 0.84646 0.68346 0.0
C608 C 0.23942 0.82605 0.67474 0.0
H609 H 0.13413 0.89676 0.5542 0.0
H610 H 0.16574 0.8791 0.58371 0.0
C611 C 0.26213 0.81947 0.68489 0.0
C612 C 0.20503 0.85547 0.66965 0.0
H613 H 0.14962 0.83996 0.65021 0.0
C614 C 0.20483 0.87795 0.65655 0.0
C615 C 0.18464 0.84184 0.66806 0.0
C616 C 0.18333 0.81814 0.68293 0.0
C617 C 0.18516 0.88683 0.64107 0.0
C618 C 0.16533 0.87267 0.6382 0.0
C619 C 0.16504 0.85059 0.65216 0.0
C620 C 0.14512 0.88048 0.62013 0.0
C621 C 0.18585 0.91126 0.6277 0.0
C622 C 0.12274 0.88613 0.63073 0.0
C623 C 0.10447 0.89604 0.61384 0.0
C624 C 0.1083 0.90032 0.58606 0.0
C625 C 0.13044 0.89349 0.5754 0.0
C626 C 0.14863 0.88361 0.59227 0.0
H627 H 0.19937 0.92199 0.63732 0.0
H628 H 0.1905 0.9097 0.60614 0.0
H629 H 0.16825 0.92081 0.62854 0.0
H630 H 0.1197 0.88368 0.6522 0.0
H631 H 0.08752 0.90082 0.6226 0.0
H632 H 0.80034 0.45067 0.88687 0.0
H633 H 0.83442 0.46957 0.90659 0.0
H634 H 0.8732 0.40218 0.91323 0.0
H635 H 0.83971 0.38332 0.89277 0.0
H636 H 0.85942 0.46044 0.95669 0.0
H637 H 0.91658 0.44477 0.86831 0.0
H638 H 0.88483 0.44178 0.86719 0.0
H639 H 0.90394 0.4186 0.88266 0.0
C640 C 0.81616 0.4399 0.89245 0.0
C641 C 0.81734 0.41551 0.88809 0.0
C642 C 0.83552 0.45069 0.90387 0.0
C643 C 0.8564 0.4373 0.91097 0.0
C644 C 0.85735 0.41287 0.90751 0.0
H645 H 0.97843 0.47622 1.00591 0.0
H646 H 0.94192 0.45907 0.9898 0.0
C647 C 0.83807 0.40208 0.89608 0.0
C648 C 0.87749 0.44893 0.92127 0.0
H649 H 0.93532 0.45912 0.90707 0.0
C650 C 0.87602 0.46025 0.94585 0.0
C651 C 0.89898 0.4489 0.90685 0.0
C652 C 0.90121 0.43806 0.87966 0.0
C653 C 0.89569 0.47118 0.95668 0.0
C654 C 0.9174 0.47044 0.94267 0.0
C655 C 0.91871 0.45947 0.91787 0.0
C656 C 0.93898 0.48124 0.95305 0.0
C657 C 0.89298 0.48373 0.98275 0.0
C658 C 0.94964 0.49903 0.93748 0.0
C659 C 0.97054 0.50866 0.94651 0.0
C660 C 0.98118 0.50059 0.97121 0.0
C661 C 0.97051 0.4828 0.98683 0.0
C662 C 0.9496 0.47313 0.97775 0.0
H663 H 0.87401 0.48794 0.98716 0.0
H664 H 0.90055 0.47214 0.99966 0.0
H665 H 0.90265 0.5004 0.9821 0.0
H666 H 0.94178 0.50544 0.9183 0.0
H667 H 0.97839 0.52239 0.9341 0.0
H668 H 0.71921 0.74327 0.32746 0.0
H669 H 0.70296 0.71098 0.35475 0.0
H670 H 0.75645 0.71891 0.41634 0.0
H671 H 0.77253 0.7517 0.38953 0.0
H672 H 0.74823 0.66965 0.39919 0.0
H673 H 0.66698 0.72137 0.42795 0.0
H674 H 0.67375 0.72246 0.39255 0.0
H675 H 0.6934 0.73522 0.41612 0.0
C676 C 0.72737 0.73839 0.34695 0.0
C677 C 0.74706 0.75023 0.3564 0.0
C678 C 0.71816 0.71983 0.3624 0.0
C679 C 0.72847 0.71275 0.38754 0.0
C680 C 0.74833 0.72417 0.39692 0.0
H681 H 0.66056 0.6262 0.50957 0.0
H682 H 0.68465 0.65532 0.4864 0.0
C683 C 0.7575 0.74283 0.38153 0.0
C684 C 0.71812 0.6937 0.40425 0.0
H685 H 0.66855 0.68037 0.43945 0.0
C686 C 0.73087 0.67194 0.40814 0.0
C687 C 0.69561 0.69696 0.41606 0.0
C688 C 0.68163 0.7203 0.41322 0.0
C689 C 0.72134 0.65306 0.42311 0.0
C690 C 0.6985 0.65612 0.43422 0.0
C691 C 0.68604 0.67807 0.4308 0.0
C692 C 0.68683 0.63679 0.44922 0.0
C693 C 0.7358 0.63008 0.42708 0.0
C694 C 0.68041 0.61653 0.43609 0.0
C695 C 0.66673 0.59974 0.44935 0.0
C696 C 0.65916 0.603 0.47592 0.0
C697 C 0.66637 0.62294 0.48927 0.0
C698 C 0.68001 0.6397 0.47601 0.0
H699 H 0.75494 0.63245 0.4232 0.0
H700 H 0.73391 0.6224 0.44791 0.0
H701 H 0.72928 0.61722 0.41276 0.0
H702 H 0.68519 0.61416 0.41526 0.0
H703 H 0.66161 0.58448 0.4386 0.0
H704 H 0.1713 0.3103 0.15881 0.0
H705 H 0.15036 0.34575 0.13915 0.0
H706 H 0.11393 0.30341 0.08306 0.0
H707 H 0.13486 0.26765 0.10275 0.0
H708 H 0.12898 0.34451 0.05831 0.0
H709 H 0.08171 0.36591 0.15192 0.0
H710 H 0.11336 0.36312 0.1567 0.0
H711 H 0.09722 0.33777 0.14792 0.0
C712 C 0.15867 0.30837 0.14247 0.0
C713 C 0.15463 0.28586 0.13273 0.0
C714 C 0.14664 0.32878 0.1312 0.0
C715 C 0.13005 0.32738 0.10995 0.0
C716 C 0.12648 0.30506 0.09955 0.0
H717 H 0.02585 0.44261 0.06417 0.0
H718 H 0.04587 0.4052 0.07993 0.0
C719 C 0.13857 0.28457 0.1108 0.0
C720 C 0.11657 0.34919 0.09868 0.0
H721 H 0.08027 0.39584 0.11659 0.0
C722 C 0.11824 0.35566 0.07105 0.0
C723 C 0.10217 0.36371 0.11506 0.0
C724 C 0.09827 0.35719 0.14448 0.0
C725 C 0.1065 0.37637 0.0596 0.0
C726 C 0.09292 0.39142 0.07625 0.0
C727 C 0.09081 0.38461 0.10374 0.0
C728 C 0.08063 0.41415 0.06569 0.0
C729 C 0.10844 0.38164 0.02961 0.0
C730 C 0.09332 0.43202 0.05252 0.0
C731 C 0.08184 0.45347 0.04332 0.0
C732 C 0.05734 0.45784 0.04727 0.0
C733 C 0.04469 0.44 0.06064 0.0
C734 C 0.05617 0.41851 0.06973 0.0
H735 H 0.11299 0.36538 0.0187 0.0
H736 H 0.0916 0.38984 0.02092 0.0
H737 H 0.12279 0.39414 0.02596 0.0
H738 H 0.11228 0.42958 0.04972 0.0
H739 H 0.09231 0.46677 0.03347 0.0
H740 H 0.69015 0.30775 0.92533 0.0
H741 H 0.662 0.28227 0.94851 0.0
H742 H 0.62255 0.27748 0.87389 0.0
H743 H 0.65031 0.30315 0.85072 0.0
H744 H 0.59425 0.28483 0.923 0.0
H745 H 0.662 0.21004 0.93273 0.0
H746 H 0.67002 0.23807 0.94498 0.0
H747 H 0.66526 0.23508 0.90945 0.0
C748 C 0.67527 0.30154 0.914 0.0
C749 C 0.67255 0.3072 0.88616 0.0
C750 C 0.65931 0.28692 0.92721 0.0
C751 C 0.64041 0.27786 0.91279 0.0
C752 C 0.6371 0.28427 0.8853 0.0
H753 H 0.53151 0.17935 0.92072 0.0
H754 H 0.55593 0.21342 0.91311 0.0
C755 C 0.65306 0.29876 0.87207 0.0
C756 C 0.62478 0.26056 0.9257 0.0
H757 H 0.62348 0.20256 0.94693 0.0
C758 C 0.60063 0.2669 0.92857 0.0
C759 C 0.63326 0.23727 0.93301 0.0
C760 C 0.65901 0.22951 0.92982 0.0
C761 C 0.58456 0.25032 0.93804 0.0
C762 C 0.59283 0.22671 0.94411 0.0
C763 C 0.61717 0.22066 0.94225 0.0
C764 C 0.57646 0.20749 0.95028 0.0
C765 C 0.55888 0.25825 0.94129 0.0
C766 C 0.58007 0.1926 0.97351 0.0
C767 C 0.56643 0.17279 0.97764 0.0
C768 C 0.54897 0.16745 0.95853 0.0
C769 C 0.54496 0.1828 0.93568 0.0
C770 C 0.55868 0.20252 0.93151 0.0
H771 H 0.55711 0.27742 0.9451 0.0
H772 H 0.5489 0.25534 0.92234 0.0
H773 H 0.55058 0.24818 0.95814 0.0
H774 H 0.59387 0.19598 0.98811 0.0
H775 H 0.57022 0.16117 0.99528 0.0
H776 H 0.85887 0.91515 0.31323 0.0
H777 H 0.88615 0.93856 0.33864 0.0
H778 H 0.88366 0.8884 0.40653 0.0
H779 H 0.85738 0.86432 0.38088 0.0
H780 H 0.87796 0.96017 0.38492 0.0
H781 H 0.95425 0.89581 0.4002 0.0
H782 H 0.93046 0.89167 0.37634 0.0
H783 H 0.92698 0.88395 0.41167 0.0
C784 C 0.86451 0.90884 0.33336 0.0
C785 C 0.85595 0.88782 0.34499 0.0
C786 C 0.87998 0.92232 0.34791 0.0
C787 C 0.88723 0.91504 0.37431 0.0
C788 C 0.87874 0.89409 0.38597 0.0
H789 H 0.93413 1.00203 0.50083 0.0
H790 H 0.91254 0.97783 0.46997 0.0
C791 C 0.8634 0.88053 0.37141 0.0
C792 C 0.90251 0.93003 0.3903 0.0
H793 H 0.95335 0.92894 0.42876 0.0
C794 C 0.89457 0.95342 0.39428 0.0
C795 C 0.92436 0.92132 0.40215 0.0
C796 C 0.93465 0.89689 0.39715 0.0
C797 C 0.90747 0.9681 0.41053 0.0
C798 C 0.92857 0.95893 0.4237 0.0
C799 C 0.93697 0.93582 0.41896 0.0
C800 C 0.94195 0.97293 0.4428 0.0
C801 C 0.89841 0.99334 0.41328 0.0
C802 C 0.96593 0.97738 0.43837 0.0
C803 C 0.9784 0.99094 0.4562 0.0
C804 C 0.96702 1.00024 0.4787 0.0
C805 C 0.94322 0.99529 0.48345 0.0
C806 C 0.93083 0.98162 0.46575 0.0
H807 H 0.88671 0.99955 0.39591 0.0
H808 H 0.88779 0.99447 0.43191 0.0
H809 H 0.91329 1.00545 0.41473 0.0
H810 H 0.97489 0.97066 0.4209 0.0
H811 H 0.9968 0.99441 0.45218 0.0
H812 H 0.37046 0.71148 0.66067 0.0
H813 H 0.38303 0.67519 0.63888 0.0
H814 H 0.45079 0.67493 0.68053 0.0
H815 H 0.4383 0.71114 0.70247 0.0
H816 H 0.42014 0.67124 0.60475 0.0
H817 H 0.4339 0.60635 0.69106 0.0
H818 H 0.41746 0.63419 0.69394 0.0
H819 H 0.44943 0.63292 0.69542 0.0
C820 C 0.38795 0.70353 0.6654 0.0
C821 C 0.40343 0.7142 0.68323 0.0
C822 C 0.39506 0.68276 0.65302 0.0
C823 C 0.41774 0.67218 0.6583 0.0
C824 C 0.43299 0.68244 0.67665 0.0
H825 H 0.51433 0.57332 0.58889 0.0
H826 H 0.49241 0.60165 0.6158 0.0
C827 C 0.42585 0.70317 0.68914 0.0
C828 C 0.42626 0.65179 0.64275 0.0
H829 H 0.45205 0.5961 0.64935 0.0
C830 C 0.42677 0.65466 0.61446 0.0
C831 C 0.43491 0.6302 0.65546 0.0
C832 C 0.4337 0.6256 0.68563 0.0
C833 C 0.43666 0.63693 0.59862 0.0
C834 C 0.44599 0.61564 0.61141 0.0
C835 C 0.44489 0.61248 0.63963 0.0
C836 C 0.45855 0.59721 0.596 0.0
C837 C 0.43803 0.64155 0.56845 0.0
C838 C 0.44665 0.58499 0.57624 0.0
C839 C 0.45917 0.56873 0.56069 0.0
C840 C 0.48377 0.56443 0.56473 0.0
C841 C 0.49543 0.57626 0.58511 0.0
C842 C 0.48292 0.59243 0.60061 0.0
H843 H 0.43415 0.66047 0.56243 0.0
H844 H 0.45591 0.63621 0.56109 0.0
H845 H 0.42482 0.63091 0.5582 0.0
H846 H 0.42775 0.58821 0.57266 0.0
H847 H 0.44964 0.55984 0.54526 0.0
H848 H 0.87198 0.94516 0.77891 0.0
H849 H 0.892 0.96155 0.73934 0.0
H850 H 0.93563 0.89744 0.73587 0.0
H851 H 0.91631 0.88108 0.77604 0.0
H852 H 0.9433 0.96769 0.73428 0.0
H853 H 0.90767 0.90959 0.65731 0.0
H854 H 0.89353 0.91357 0.6894 0.0
H855 H 0.92012 0.89509 0.68767 0.0
C856 C 0.88594 0.93449 0.76998 0.0
C857 C 0.89245 0.91169 0.78106 0.0
C858 C 0.89729 0.94391 0.74714 0.0
C859 C 0.91525 0.93073 0.73441 0.0
C860 C 0.9216 0.90787 0.74504 0.0
H861 H 0.99994 0.95974 0.59027 0.0
H862 H 0.98124 0.94168 0.62998 0.0
C863 C 0.91039 0.89848 0.76805 0.0
C864 C 0.92779 0.94127 0.71062 0.0
H865 H 0.93628 0.93634 0.64279 0.0
C866 C 0.94173 0.96086 0.71426 0.0
C867 C 0.92597 0.93228 0.68451 0.0
C868 C 0.91091 0.91157 0.67925 0.0
C869 C 0.95408 0.97151 0.69269 0.0
C870 C 0.95188 0.96287 0.66635 0.0
C871 C 0.93803 0.94312 0.66281 0.0
C872 C 0.96361 0.97411 0.64224 0.0
C873 C 0.9699 0.99151 0.69863 0.0
C874 C 0.9599 0.99839 0.63544 0.0
C875 C 0.97083 1.00884 0.61287 0.0
C876 C 0.98545 0.99522 0.59611 0.0
C877 C 0.98886 0.97084 0.60267 0.0
C878 C 0.97811 0.96045 0.62542 0.0
H879 H 0.97572 0.99077 0.72019 0.0
H880 H 0.98593 0.99115 0.68585 0.0
H881 H 0.95985 1.00861 0.69451 0.0
H882 H 0.94828 1.00931 0.64741 0.0
H883 H 0.9675 0.02758 0.60833 0.0
H884 H 0.62977 0.23917 0.16202 0.0
H885 H 0.60979 0.2087 0.13795 0.0
H886 H 0.6579 0.15515 0.17519 0.0
H887 H 0.67828 0.18548 0.19897 0.0
H888 H 0.63119 0.17615 0.10155 0.0
H889 H 0.591 0.13034 0.1901 0.0
H890 H 0.6018 0.15981 0.19131 0.0
H891 H 0.62234 0.1346 0.19307 0.0
C892 C 0.63618 0.22093 0.16503 0.0
C893 C 0.65563 0.21479 0.1825 0.0
C894 C 0.62467 0.20354 0.15135 0.0
C895 C 0.63221 0.17967 0.15503 0.0
C896 C 0.65152 0.17343 0.17247 0.0
H897 H 0.58399 0.04921 0.09128 0.0
H898 H 0.60529 0.07912 0.11484 0.0
C899 C 0.6631 0.19081 0.1861 0.0
C900 C 0.62033 0.16139 0.13997 0.0
H901 H 0.58766 0.11233 0.14812 0.0
C902 C 0.6216 0.16222 0.11168 0.0
C903 C 0.60797 0.14321 0.1533 0.0
C904 C 0.60546 0.14193 0.1836 0.0
C905 C 0.61109 0.14512 0.09632 0.0
C906 C 0.59853 0.12702 0.10963 0.0
C907 C 0.59734 0.12618 0.13795 0.0
C908 C 0.58616 0.10897 0.09459 0.0
C909 C 0.614 0.14634 0.06605 0.0
C910 C 0.56823 0.1158 0.07551 0.0
C911 C 0.55614 0.09878 0.06191 0.0
C912 C 0.56152 0.07454 0.06736 0.0
C913 C 0.57942 0.06772 0.08657 0.0
C914 C 0.5916 0.08479 0.10007 0.0
H915 H 0.62963 0.15652 0.06005 0.0
H916 H 0.61606 0.12839 0.05804 0.0
H917 H 0.59798 0.15542 0.0564 0.0
H918 H 0.56329 0.13432 0.07143 0.0
H919 H 0.54232 0.10467 0.04745 0.0
H920 H 0.42019 0.62785 0.24753 0.0
H921 H 0.4401 0.6231 0.29183 0.0
H922 H 0.40228 0.5599 0.30945 0.0
H923 H 0.38207 0.56459 0.26522 0.0
H924 H 0.40666 0.59809 0.35345 0.0
H925 H 0.49027 0.56363 0.3074 0.0
H926 H 0.47552 0.58984 0.29202 0.0
H927 H 0.46164 0.56204 0.29086 0.0
C928 C 0.41578 0.61317 0.26102 0.0
C929 C 0.39961 0.59655 0.25289 0.0
C930 C 0.42725 0.61045 0.28622 0.0
C931 C 0.42265 0.59114 0.30373 0.0
C932 C 0.40599 0.57492 0.29612 0.0
H933 H 0.49559 0.52181 0.43927 0.0
H934 H 0.47227 0.53368 0.39857 0.0
C935 C 0.39462 0.57754 0.27083 0.0
C936 C 0.43626 0.58708 0.32931 0.0
H937 H 0.49035 0.56669 0.35459 0.0
C938 C 0.425 0.59138 0.35379 0.0
C939 C 0.4601 0.57823 0.32949 0.0
C940 C 0.47271 0.573 0.30362 0.0
C941 C 0.43708 0.5869 0.37863 0.0
C942 C 0.46087 0.57789 0.37878 0.0
C943 C 0.47213 0.57374 0.35428 0.0
C944 C 0.47399 0.57119 0.40418 0.0
C945 C 0.42426 0.59118 0.40459 0.0
C946 C 0.4826 0.58845 0.42077 0.0
C947 C 0.49612 0.58172 0.44402 0.0
C948 C 0.50111 0.55767 0.45088 0.0
C949 C 0.4921 0.54049 0.43441 0.0
C950 C 0.47877 0.54721 0.41119 0.0
H951 H 0.40509 0.59593 0.40108 0.0
H952 H 0.42602 0.57515 0.41835 0.0
H953 H 0.43249 0.60581 0.41496 0.0
H954 H 0.4792 0.60706 0.41548 0.0
H955 H 0.50284 0.59528 0.45642 0.0
H956 H 0.23607 0.32663 0.8008 0.0
H957 H 0.22321 0.36004 0.82736 0.0
H958 H 0.18247 0.31369 0.87814 0.0
H959 H 0.19523 0.28009 0.85154 0.0
H960 H 0.17659 0.37638 0.83402 0.0
H961 H 0.2198 0.35027 0.93299 0.0
H962 H 0.22824 0.33679 0.90199 0.0
H963 H 0.2019 0.32814 0.91917 0.0
C964 C 0.22434 0.32354 0.8176 0.0
C965 C 0.21655 0.30075 0.824 0.0
C966 C 0.21715 0.34261 0.83284 0.0
C967 C 0.20214 0.33927 0.85489 0.0
C968 C 0.19448 0.31653 0.86155 0.0
H969 H 0.12505 0.43349 0.95802 0.0
H970 H 0.14385 0.39947 0.93682 0.0
C971 C 0.20172 0.29739 0.84631 0.0
C972 C 0.19342 0.35991 0.86979 0.0
H973 H 0.19229 0.38338 0.93207 0.0
C974 C 0.18015 0.378 0.85542 0.0
C975 C 0.19805 0.36188 0.89771 0.0
C976 C 0.21295 0.34335 0.91388 0.0
C977 C 0.17099 0.39787 0.86831 0.0
C978 C 0.17562 0.39987 0.89623 0.0
C979 C 0.18889 0.38179 0.91064 0.0
C980 C 0.16617 0.42035 0.91085 0.0
C981 C 0.15593 0.41626 0.85208 0.0
C982 C 0.17308 0.44328 0.90384 0.0
C983 C 0.16243 0.46277 0.91596 0.0
C984 C 0.1448 0.45963 0.93544 0.0
C985 C 0.13873 0.43652 0.94329 0.0
C986 C 0.14936 0.41706 0.93112 0.0
H987 H 0.14954 0.40945 0.83272 0.0
H988 H 0.14031 0.42233 0.86376 0.0
H989 H 0.16668 0.4318 0.84727 0.0
H990 H 0.18638 0.44611 0.8886 0.0
H991 H 0.16776 0.48032 0.90983 0.0
H992 H 0.75528 0.94019 0.89812 0.0
H993 H 0.71803 0.95796 0.91377 0.0
H994 H 0.70655 0.89508 0.96313 0.0
H995 H 0.74324 0.87661 0.94651 0.0
H996 H 0.666 0.91051 0.93917 0.0
H997 H 0.70591 0.98706 0.98472 0.0
H998 H 0.71263 0.98542 0.94957 0.0
H999 H 0.72368 0.96232 0.97323 0.0
C1000 C 0.74479 0.92988 0.91203 0.0
C1001 C 0.75264 0.90681 0.92096 0.0
C1002 C 0.72353 0.94033 0.92139 0.0
C1003 C 0.70952 0.92822 0.94026 0.0
C1004 C 0.71702 0.90503 0.94884 0.0
H1005 H 0.59299 0.99927 0.02849 0.0
H1006 H 0.63049 0.97857 0.01658 0.0
C1007 C 0.73823 0.89451 0.9394 0.0
C1008 C 0.68688 0.93948 0.95056 0.0
H1009 H 0.66362 0.98905 0.97963 0.0
C1010 C 0.66558 0.92763 0.94814 0.0
C1011 C 0.6861 0.96166 0.96286 0.0
C1012 C 0.70834 0.97475 0.96804 0.0
C1013 C 0.64369 0.93751 0.95681 0.0
C1014 C 0.64271 0.96026 0.96777 0.0
C1015 C 0.66411 0.9718 0.97096 0.0
C1016 C 0.61969 0.97254 0.97542 0.0
C1017 C 0.62185 0.92321 0.95449 0.0
C1018 C 0.60104 0.97643 0.95636 0.0
C1019 C 0.57963 0.98812 0.96318 0.0
C1020 C 0.57625 0.99659 0.9892 0.0
C1021 C 0.59493 0.99293 1.0083 0.0
C1022 C 0.61643 0.98112 1.00146 0.0
H1023 H 0.62659 0.90397 0.95434 0.0
H1024 H 0.60953 0.92634 0.97138 0.0
H1025 H 0.61237 0.92835 0.93519 0.0
H1026 H 0.60312 0.97068 0.93594 0.0
H1027 H 0.56574 0.99073 0.94786 0.0
H1028 H 0.7976 0.21075 0.28311 0.0
H1029 H 0.82901 0.19201 0.31251 0.0
H1030 H 0.82042 0.24839 0.36767 0.0
H1031 H 0.78931 0.26748 0.33817 0.0
H1032 H 0.86913 0.23531 0.35407 0.0
H1033 H 0.817 0.15846 0.38732 0.0
H1034 H 0.81841 0.16419 0.35141 0.0
H1035 H 0.80329 0.18525 0.37189 0.0
C1036 C 0.80253 0.21924 0.3014 0.0
C1037 C 0.7909 0.24053 0.30841 0.0
C1038 C 0.82032 0.20843 0.31825 0.0
C1039 C 0.82679 0.2187 0.34237 0.0
C1040 C 0.81555 0.24014 0.3492 0.0
H1041 H 0.92776 0.18288 0.47359 0.0
H1042 H 0.8995 0.20313 0.44148 0.0
C1043 C 0.79769 0.25091 0.33243 0.0
C1044 C 0.84524 0.20707 0.36057 0.0
H1045 H 0.85714 0.15799 0.40176 0.0
C1046 C 0.86656 0.21842 0.36456 0.0
C1047 C 0.84174 0.18506 0.37414 0.0
C1048 C 0.81882 0.17253 0.37124 0.0
C1049 C 0.88472 0.20811 0.38151 0.0
C1050 C 0.88118 0.18613 0.39522 0.0
C1051 C 0.85983 0.17481 0.39118 0.0
C1052 C 0.89927 0.1745 0.41399 0.0
C1053 C 0.90769 0.22059 0.38414 0.0
C1054 C 0.90823 0.15156 0.40941 0.0
C1055 C 0.92407 0.13982 0.42791 0.0
C1056 C 0.93127 0.15076 0.45143 0.0
C1057 C 0.92248 0.17389 0.45577 0.0
C1058 C 0.90655 0.18561 0.43728 0.0
H1059 H 0.91009 0.23348 0.36694 0.0
H1060 H 0.90749 0.23046 0.40299 0.0
H1061 H 0.92319 0.20775 0.38524 0.0
H1062 H 0.90268 0.1426 0.39168 0.0
H1063 H 0.9301 0.12187 0.42415 0.0
H1064 H 0.25448 0.57185 0.15068 0.0
H1065 H 0.21266 0.56509 0.14106 0.0
H1066 H 0.21473 0.61132 0.06966 0.0
H1067 H 0.25654 0.61821 0.07914 0.0
H1068 H 0.17306 0.59696 0.13481 0.0
H1069 H 0.1909 0.54988 0.0407 0.0
H1070 H 0.21407 0.55561 0.06475 0.0
H1071 H 0.20281 0.57873 0.04136 0.0
C1072 C 0.24597 0.58077 0.13308 0.0
C1073 C 0.25886 0.59543 0.11555 0.0
C1074 C 0.22211 0.57682 0.12756 0.0
C1075 C 0.21075 0.58739 0.10441 0.0
C1076 C 0.22334 0.60257 0.0873 0.0
H1077 H 0.06991 0.57609 0.03354 0.0
H1078 H 0.10978 0.58845 0.0451 0.0
C1079 C 0.24721 0.60648 0.09274 0.0
C1080 C 0.18578 0.58231 0.09806 0.0
H1081 H 0.15059 0.558 0.05104 0.0
C1082 C 0.16812 0.58842 0.11652 0.0
C1083 C 0.17944 0.57115 0.07418 0.0
C1084 C 0.19779 0.56325 0.05419 0.0
C1085 C 0.14418 0.58389 0.11159 0.0
C1086 C 0.13788 0.57267 0.08776 0.0
C1087 C 0.15551 0.5667 0.06923 0.0
C1088 C 0.11318 0.56638 0.08187 0.0
C1089 C 0.1258 0.59142 0.13169 0.0
C1090 C 0.10194 0.5499 0.09873 0.0
C1091 C 0.07922 0.54277 0.09213 0.0
C1092 C 0.06749 0.55193 0.06849 0.0
C1093 C 0.0786 0.56872 0.05186 0.0
C1094 C 0.10133 0.5758 0.05843 0.0
H1095 H 0.13246 0.60502 0.14501 0.0
H1096 H 0.10927 0.59859 0.12125 0.0
H1097 H 0.12126 0.57584 0.14466 0.0
H1098 H 0.11097 0.54209 0.11663 0.0
H1099 H 0.07109 0.52971 0.10522 0.0
H1100 H 0.34096 0.28026 0.69325 0.0
H1101 H 0.35773 0.31051 0.66342 0.0
H1102 H 0.29303 0.31545 0.61553 0.0
H1103 H 0.27573 0.28588 0.6459 0.0
H1104 H 0.36578 0.31219 0.60856 0.0
H1105 H 0.30105 0.38374 0.63594 0.0
H1106 H 0.30418 0.35577 0.65483 0.0
H1107 H 0.28801 0.35801 0.62323 0.0
C1108 C 0.33024 0.28784 0.67644 0.0
C1109 C 0.30691 0.28082 0.67212 0.0
C1110 C 0.33991 0.30501 0.65932 0.0
C1111 C 0.32645 0.31551 0.63759 0.0
C1112 C 0.30353 0.30789 0.63252 0.0
H1113 H 0.39088 0.40626 0.51414 0.0
H1114 H 0.36825 0.37553 0.5367 0.0
C1115 C 0.2938 0.29076 0.6497 0.0
C1116 C 0.33642 0.33471 0.62063 0.0
H1117 H 0.32888 0.39346 0.60247 0.0
C1118 C 0.35768 0.32994 0.60709 0.0
C1119 C 0.3259 0.3579 0.61906 0.0
C1120 C 0.30364 0.36431 0.63421 0.0
C1121 C 0.36886 0.34778 0.59218 0.0
C1122 C 0.3582 0.3709 0.59036 0.0
C1123 C 0.33685 0.37565 0.60372 0.0
C1124 C 0.36971 0.39067 0.57597 0.0
C1125 C 0.39239 0.3419 0.57931 0.0
C1126 C 0.37704 0.40993 0.59033 0.0
C1127 C 0.38964 0.42774 0.57742 0.0
C1128 C 0.39513 0.42661 0.54988 0.0
C1129 C 0.38684 0.40778 0.53531 0.0
C1130 C 0.37415 0.39003 0.54823 0.0
H1131 H 0.40072 0.325 0.58785 0.0
H1132 H 0.38955 0.34009 0.55731 0.0
H1133 H 0.40496 0.35618 0.58206 0.0
H1134 H 0.37359 0.41084 0.61172 0.0
H1135 H 0.39541 0.4422 0.5891 0.0
H1136 H 0.88054 0.75462 0.89035 0.0
H1137 H 0.8996 0.71635 0.90507 0.0
H1138 H 0.93195 0.7487 0.97274 0.0
H1139 H 0.91347 0.78694 0.95774 0.0
H1140 H 0.96368 0.72126 0.95087 0.0
H1141 H 0.88314 0.66974 0.9636 0.0
H1142 H 0.88544 0.68244 0.92999 0.0
H1143 H 0.88165 0.70143 0.95795 0.0
C1144 C 0.89149 0.75352 0.90854 0.0
C1145 C 0.89543 0.77399 0.92278 0.0
C1146 C 0.90235 0.73152 0.91706 0.0
C1147 C 0.91707 0.72929 0.94037 0.0
C1148 C 0.92078 0.74972 0.9547 0.0
H1149 H 0.96379 0.59574 0.02517 0.0
H1150 H 0.94371 0.63327 1.01 0.0
C1151 C 0.91018 0.77169 0.94605 0.0
C1152 C 0.92936 0.70607 0.94942 0.0
H1153 H 0.92018 0.64779 0.96577 0.0
C1154 C 0.95408 0.70525 0.95418 0.0
C1155 C 0.91701 0.68503 0.95425 0.0
C1156 C 0.89033 0.68469 0.95147 0.0
C1157 C 0.96669 0.68426 0.96334 0.0
C1158 C 0.9545 0.66301 0.96714 0.0
C1159 C 0.92974 0.66385 0.96262 0.0
C1160 C 0.96694 0.63991 0.97632 0.0
C1161 C 0.99289 0.68539 0.96964 0.0
C1162 C 0.98668 0.63066 0.96248 0.0
C1163 C 0.99838 0.60922 0.97135 0.0
C1164 C 0.99038 0.59611 0.99399 0.0
C1165 C 0.97039 0.60516 1.00756 0.0
C1166 C 0.95886 0.62674 0.99887 0.0
H1167 H 0.99775 0.70365 0.97398 0.0
H1168 H 0.99832 0.67348 0.98726 0.0
H1169 H 1.00317 0.67989 0.95187 0.0
H1170 H 0.99297 0.63991 0.94456 0.0
H1171 H 1.01349 0.60272 0.96015 0.0
H1172 H 0.42765 0.69384 0.08021 0.0
H1173 H 0.44399 0.73306 0.07639 0.0
H1174 H 0.38748 0.76066 0.12541 0.0
H1175 H 0.37172 0.72129 0.13054 0.0
H1176 H 0.42549 0.77585 0.05634 0.0
H1177 H 0.446 0.77969 0.16599 0.0
H1178 H 0.43776 0.75284 0.15077 0.0
H1179 H 0.41536 0.77503 0.15848 0.0
C1180 C 0.41879 0.7082 0.09037 0.0
C1181 C 0.39852 0.70431 0.10595 0.0
C1182 C 0.42805 0.73064 0.08798 0.0
C1183 C 0.41723 0.74965 0.10108 0.0
C1184 C 0.39642 0.7461 0.11566 0.0
H1185 H 0.45293 0.89703 0.11017 0.0
H1186 H 0.43268 0.85958 0.11188 0.0
C1187 C 0.38724 0.72363 0.11823 0.0
C1188 C 0.42801 0.77304 0.09981 0.0
H1189 H 0.45198 0.81438 0.13888 0.0
C1190 C 0.43131 0.78426 0.07438 0.0
C1191 C 0.43565 0.78393 0.12339 0.0
C1192 C 0.43375 0.77219 0.15119 0.0
C1193 C 0.44191 0.80619 0.07192 0.0
C1194 C 0.44949 0.81701 0.09549 0.0
C1195 C 0.44601 0.80597 0.1209 0.0
C1196 C 0.46161 0.8396 0.09414 0.0
C1197 C 0.44481 0.81775 0.04422 0.0
C1198 C 0.48464 0.84056 0.08391 0.0
C1199 C 0.49627 0.86184 0.08304 0.0
C1200 C 0.485 0.8825 0.09231 0.0
C1201 C 0.46194 0.88143 0.10266 0.0
C1202 C 0.4504 0.86009 0.10373 0.0
H1203 H 0.43401 0.80943 0.02862 0.0
H1204 H 0.43964 0.8369 0.04424 0.0
H1205 H 0.46376 0.81607 0.03848 0.0
H1206 H 0.49363 0.82482 0.0767 0.0
H1207 H 0.51394 0.8622 0.07474 0.0
H1208 H 0.16952 0.14386 0.73002 0.0
H1209 H 0.14293 0.12039 0.70364 0.0
H1210 H 0.15552 0.16446 0.6325 0.0
H1211 H 0.18196 0.1881 0.65876 0.0
H1212 H 0.10816 0.15397 0.63784 0.0
H1213 H 0.16718 0.0729 0.64986 0.0
H1214 H 0.15811 0.08504 0.68115 0.0
H1215 H 0.17662 0.10161 0.65869 0.0
C1216 C 0.1666 0.14853 0.70875 0.0
C1217 C 0.17795 0.1677 0.69641 0.0
C1218 C 0.15144 0.13511 0.69372 0.0
C1219 C 0.1476 0.14044 0.66603 0.0
C1220 C 0.15829 0.16003 0.65385 0.0
H1221 H 0.10059 0.04821 0.54462 0.0
H1222 H 0.12193 0.07442 0.57336 0.0
C1223 C 0.17334 0.17355 0.66889 0.0
C1224 C 0.13303 0.12524 0.64949 0.0
H1225 H 0.13016 0.0691 0.62781 0.0
C1226 C 0.11291 0.1354 0.63565 0.0
C1227 C 0.1395 0.10111 0.64641 0.0
C1228 C 0.16164 0.08952 0.65959 0.0
C1229 C 0.09902 0.12203 0.61882 0.0
C1230 C 0.10523 0.09778 0.61619 0.0
C1231 C 0.12535 0.08766 0.63004 0.0
C1232 C 0.09175 0.08271 0.59835 0.0
C1233 C 0.07824 0.13411 0.60343 0.0
C1234 C 0.06769 0.07865 0.6029 0.0
C1235 C 0.05542 0.06375 0.58639 0.0
C1236 C 0.06713 0.0525 0.56531 0.0
C1237 C 0.09116 0.05661 0.56078 0.0
C1238 C 0.10337 0.07156 0.57718 0.0
H1239 H 0.07944 0.15365 0.6024 0.0
H1240 H 0.07713 0.12788 0.58254 0.0
H1241 H 0.06153 0.12984 0.61381 0.0
H1242 H 0.05852 0.0867 0.61945 0.0
H1243 H 0.0369 0.06081 0.59033 0.0
H1244 H 0.69251 0.36413 0.33141 0.0
H1245 H 0.67298 0.38949 0.36389 0.0
H1246 H 0.60461 0.37467 0.32998 0.0
H1247 H 0.624 0.34941 0.29726 0.0
H1248 H 0.64306 0.42987 0.35386 0.0
H1249 H 0.59678 0.35959 0.41103 0.0
H1250 H 0.6207 0.35315 0.38824 0.0
H1251 H 0.5912 0.36038 0.37521 0.0
C1252 C 0.67332 0.36639 0.33072 0.0
C1253 C 0.6598 0.35473 0.31173 0.0
C1254 C 0.6622 0.38078 0.34939 0.0
C1255 C 0.63735 0.38368 0.34958 0.0
C1256 C 0.62379 0.37225 0.33055 0.0
H1257 H 0.53298 0.46387 0.43646 0.0
H1258 H 0.55532 0.43861 0.40633 0.0
C1259 C 0.63489 0.35783 0.31186 0.0
C1260 C 0.62566 0.39912 0.36929 0.0
H1261 H 0.58565 0.39932 0.4204 0.0
C1262 C 0.63064 0.42319 0.36856 0.0
C1263 C 0.60953 0.39031 0.38847 0.0
C1264 C 0.60436 0.3644 0.39104 0.0
C1265 C 0.61933 0.43888 0.38597 0.0
C1266 C 0.60292 0.43012 0.40486 0.0
C1267 C 0.59821 0.40598 0.40584 0.0
C1268 C 0.58975 0.44582 0.42315 0.0
C1269 C 0.62447 0.46478 0.38343 0.0
C1270 C 0.60171 0.45816 0.44276 0.0
C1271 C 0.58897 0.47272 0.46007 0.0
C1272 C 0.56403 0.47506 0.45813 0.0
C1273 C 0.55216 0.46254 0.43852 0.0
C1274 C 0.56489 0.44804 0.42127 0.0
H1275 H 0.63326 0.46943 0.3641 0.0
H1276 H 0.60786 0.47595 0.38474 0.0
H1277 H 0.6365 0.46912 0.40025 0.0
H1278 H 0.62087 0.45635 0.44485 0.0
H1279 H 0.59865 0.48201 0.47504 0.0
loop_
_geom_bond_atom_site_label_1
_geom_bond_atom_site_label_2
_geom_bond_distance
_geom_bond_site_symmetry_2
_ccdc_geom_bond_type
P0 O11 1.490 . S
P0 C14 1.812 . S
P0 C20 1.803 . S
P0 C26 1.819 . S
H1 C15 0.941 . S
H2 C16 0.939 . S
H3 C18 0.940 . S
H4 C19 0.940 . S
H5 C21 0.939 . S
H6 C22 0.942 . S
H7 C24 0.940 . S
H8 C25 0.939 . S
H9 C27 0.941 . S
H10 C31 0.939 . S
O11 P0 1.490 . S
H12 C28 0.939 . S
H13 C30 0.940 . S
C14 P0 1.812 . S
C14 C15 1.389 . S
C14 C19 1.391 . S
C15 H1 0.941 . S
C15 C14 1.389 . S
C15 C16 1.397 . S
C16 H2 0.939 . S
C16 C15 1.397 . S
C16 C17 1.378 . S
C17 C16 1.378 . S
C17 C18 1.378 . S
C18 H3 0.940 . S
C18 C17 1.378 . S
C18 C19 1.396 . S
C19 H4 0.940 . S
C19 C14 1.391 . S
C19 C18 1.396 . S
C20 P0 1.803 . S
C20 C21 1.378 . S
C20 C25 1.400 . S
C21 H5 0.939 . S
C21 C20 1.378 . S
C21 C22 1.361 . S
C22 H6 0.942 . S
C22 C21 1.361 . S
C22 C23 1.369 . S
C23 C22 1.369 . S
C23 C24 1.404 . S
C24 H7 0.940 . S
C24 C23 1.404 . S
C24 C25 1.389 . S
C25 H8 0.939 . S
C25 C20 1.400 . S
C25 C24 1.389 . S
C26 P0 1.819 . S
C26 C27 1.391 . S
C26 C31 1.391 . S
C27 H9 0.941 . S
C27 C26 1.391 . S
C27 C28 1.396 . S
C28 H12 0.939 . S
C28 C27 1.396 . S
C28 C29 1.397 . S
C29 C28 1.397 . S
C29 C30 1.385 . S
C30 H13 0.940 . S
C30 C29 1.385 . S
C30 C31 1.388 . S
C31 H10 0.939 . S
C31 C26 1.391 . S
C31 C30 1.388 . S
P32 O43 1.490 . S
P32 C46 1.812 . S
P32 C52 1.803 . S
P32 C58 1.819 . S
H33 C47 0.941 . S
H34 C48 0.939 . S
H35 C50 0.940 . S
H36 C51 0.940 . S
H37 C53 0.939 . S
H38 C54 0.942 . S
H39 C56 0.940 . S
H40 C57 0.939 . S
H41 C59 0.941 . S
H42 C63 0.939 . S
O43 P32 1.490 . S
H44 C60 0.939 . S
H45 C62 0.940 . S
C46 P32 1.812 . S
C46 C47 1.389 . S
C46 C51 1.391 . S
C47 H33 0.941 . S
C47 C46 1.389 . S
C47 C48 1.397 . S
C48 H34 0.939 . S
C48 C47 1.397 . S
C48 C49 1.378 . S
C49 C48 1.378 . S
C49 C50 1.378 . S
C50 H35 0.940 . S
C50 C49 1.378 . S
C50 C51 1.396 . S
C51 H36 0.940 . S
C51 C46 1.391 . S
C51 C50 1.396 . S
C52 P32 1.803 . S
C52 C53 1.378 . S
C52 C57 1.400 . S
C53 H37 0.939 . S
C53 C52 1.378 . S
C53 C54 1.361 . S
C54 H38 0.942 . S
C54 C53 1.361 . S
C54 C55 1.369 . S
C55 C54 1.369 . S
C55 C56 1.404 . S
C56 H39 0.940 . S
C56 C55 1.404 . S
C56 C57 1.389 . S
C57 H40 0.939 . S
C57 C52 1.400 . S
C57 C56 1.389 . S
C58 P32 1.819 . S
C58 C59 1.391 . S
C58 C63 1.391 . S
C59 H41 0.941 . S
C59 C58 1.391 . S
C59 C60 1.396 . S
C60 H44 0.939 . S
C60 C59 1.396 . S
C60 C61 1.397 . S
C61 C60 1.397 . S
C61 C62 1.385 . S
C62 H45 0.940 . S
C62 C61 1.385 . S
C62 C63 1.388 . S
C63 H42 0.939 . S
C63 C58 1.391 . S
C63 C62 1.388 . S
P64 O75 1.490 . S
P64 C78 1.812 . S
P64 C84 1.803 . S
P64 C90 1.819 . S
H65 C79 0.941 . S
H66 C80 0.939 . S
H67 C82 0.940 . S
H68 C83 0.940 . S
H69 C85 0.939 . S
H70 C86 0.942 . S
H71 C88 0.940 . S
H72 C89 0.939 . S
H73 C91 0.941 . S
H74 C95 0.939 . S
O75 P64 1.490 . S
H76 C92 0.939 . S
H77 C94 0.940 . S
C78 P64 1.812 . S
C78 C79 1.389 . S
C78 C83 1.391 . S
C79 H65 0.941 . S
C79 C78 1.389 . S
C79 C80 1.397 . S
C80 H66 0.939 . S
C80 C79 1.397 . S
C80 C81 1.378 . S
C81 C80 1.378 . S
C81 C82 1.378 . S
C82 H67 0.940 . S
C82 C81 1.378 . S
C82 C83 1.396 . S
C83 H68 0.940 . S
C83 C78 1.391 . S
C83 C82 1.396 . S
C84 P64 1.803 . S
C84 C85 1.378 . S
C84 C89 1.400 . S
C85 H69 0.939 . S
C85 C84 1.378 . S
C85 C86 1.361 . S
C86 H70 0.942 . S
C86 C85 1.361 . S
C86 C87 1.369 . S
C87 C86 1.369 . S
C87 C88 1.404 . S
C88 H71 0.940 . S
C88 C87 1.404 . S
C88 C89 1.389 . S
C89 H72 0.939 . S
C89 C84 1.400 . S
C89 C88 1.389 . S
C90 P64 1.819 . S
C90 C91 1.391 . S
C90 C95 1.391 . S
C91 H73 0.941 . S
C91 C90 1.391 . S
C91 C92 1.396 . S
C92 H76 0.939 . S
C92 C91 1.396 . S
C92 C93 1.397 . S
C93 C92 1.397 . S
C93 C94 1.385 . S
C94 H77 0.940 . S
C94 C93 1.385 . S
C94 C95 1.388 . S
C95 H74 0.939 . S
C95 C90 1.391 . S
C95 C94 1.388 . S
P96 O107 1.490 . S
P96 C110 1.812 . S
P96 C116 1.803 . S
P96 C122 1.819 . S
H97 C111 0.941 . S
H98 C112 0.939 . S
H99 C114 0.940 . S
H100 C115 0.940 . S
H101 C117 0.939 . S
H102 C118 0.942 . S
H103 C120 0.940 . S
H104 C121 0.939 . S
H105 C123 0.941 . S
H106 C127 0.939 . S
O107 P96 1.490 . S
H108 C124 0.939 . S
H109 C126 0.940 . S
C110 P96 1.812 . S
C110 C111 1.389 . S
C110 C115 1.391 . S
C111 H97 0.941 . S
C111 C110 1.389 . S
C111 C112 1.397 . S
C112 H98 0.939 . S
C112 C111 1.397 . S
C112 C113 1.378 . S
C113 C112 1.378 . S
C113 C114 1.378 . S
C114 H99 0.940 . S
C114 C113 1.378 . S
C114 C115 1.396 . S
C115 H100 0.940 . S
C115 C110 1.391 . S
C115 C114 1.396 . S
C116 P96 1.803 . S
C116 C117 1.378 . S
C116 C121 1.400 . S
C117 H101 0.939 . S
C117 C116 1.378 . S
C117 C118 1.361 . S
C118 H102 0.942 . S
C118 C117 1.361 . S
C118 C119 1.369 . S
C119 C118 1.369 . S
C119 C120 1.404 . S
C120 H103 0.940 . S
C120 C119 1.404 . S
C120 C121 1.389 . S
C121 H104 0.939 . S
C121 C116 1.400 . S
C121 C120 1.389 . S
C122 P96 1.819 . S
C122 C123 1.391 . S
C122 C127 1.391 . S
C123 H105 0.941 . S
C123 C122 1.391 . S
C123 C124 1.396 . S
C124 H108 0.939 . S
C124 C123 1.396 . S
C124 C125 1.397 . S
C125 C124 1.397 . S
C125 C126 1.385 . S
C126 H109 0.940 . S
C126 C125 1.385 . S
C126 C127 1.388 . S
C127 H106 0.939 . S
C127 C122 1.391 . S
C127 C126 1.388 . S
P128 O139 1.490 . S
P128 C142 1.812 . S
P128 C148 1.803 . S
P128 C154 1.819 . S
H129 C143 0.941 . S
H130 C144 0.939 . S
H131 C146 0.940 . S
H132 C147 0.940 . S
H133 C149 0.939 . S
H134 C150 0.942 . S
H135 C152 0.940 . S
H136 C153 0.939 . S
H137 C155 0.941 . S
H138 C159 0.939 . S
O139 P128 1.490 . S
H140 C156 0.939 . S
H141 C158 0.940 . S
C142 P128 1.812 . S
C142 C143 1.389 . S
C142 C147 1.391 . S
C143 H129 0.941 . S
C143 C142 1.389 . S
C143 C144 1.397 . S
C144 H130 0.939 . S
C144 C143 1.397 . S
C144 C145 1.378 . S
C145 C144 1.378 . S
C145 C146 1.378 . S
C146 H131 0.940 . S
C146 C145 1.378 . S
C146 C147 1.396 . S
C147 H132 0.940 . S
C147 C142 1.391 . S
C147 C146 1.396 . S
C148 P128 1.803 . S
C148 C149 1.378 . S
C148 C153 1.400 . S
C149 H133 0.939 . S
C149 C148 1.378 . S
C149 C150 1.361 . S
C150 H134 0.942 . S
C150 C149 1.361 . S
C150 C151 1.369 . S
C151 C150 1.369 . S
C151 C152 1.404 . S
C152 H135 0.940 . S
C152 C151 1.404 . S
C152 C153 1.389 . S
C153 H136 0.939 . S
C153 C148 1.400 . S
C153 C152 1.389 . S
C154 P128 1.819 . S
C154 C155 1.391 . S
C154 C159 1.391 . S
C155 H137 0.941 . S
C155 C154 1.391 . S
C155 C156 1.396 . S
C156 H140 0.939 . S
C156 C155 1.396 . S
C156 C157 1.397 . S
C157 C156 1.397 . S
C157 C158 1.385 . S
C158 H141 0.940 . S
C158 C157 1.385 . S
C158 C159 1.388 . S
C159 H138 0.939 . S
C159 C154 1.391 . S
C159 C158 1.388 . S
P160 O171 1.490 . S
P160 C174 1.812 . S
P160 C180 1.803 . S
P160 C186 1.819 . S
H161 C175 0.941 . S
H162 C176 0.939 . S
H163 C178 0.940 . S
H164 C179 0.940 . S
H165 C181 0.939 . S
H166 C182 0.942 . S
H167 C184 0.940 . S
H168 C185 0.939 . S
H169 C187 0.941 . S
H170 C191 0.939 . S
O171 P160 1.490 . S
H172 C188 0.939 . S
H173 C190 0.940 . S
C174 P160 1.812 . S
C174 C175 1.389 . S
C174 C179 1.391 . S
C175 H161 0.941 . S
C175 C174 1.389 . S
C175 C176 1.397 . S
C176 H162 0.939 . S
C176 C175 1.397 . S
C176 C177 1.378 . S
C177 C176 1.378 . S
C177 C178 1.378 . S
C178 H163 0.940 . S
C178 C177 1.378 . S
C178 C179 1.396 . S
C179 H164 0.940 . S
C179 C174 1.391 . S
C179 C178 1.396 . S
C180 P160 1.803 . S
C180 C181 1.378 . S
C180 C185 1.400 . S
C181 H165 0.939 . S
C181 C180 1.378 . S
C181 C182 1.361 . S
C182 H166 0.942 . S
C182 C181 1.361 . S
C182 C183 1.369 . S
C183 C182 1.369 . S
C183 C184 1.404 . S
C184 H167 0.940 . S
C184 C183 1.404 . S
C184 C185 1.389 . S
C185 H168 0.939 . S
C185 C180 1.400 . S
C185 C184 1.389 . S
C186 P160 1.819 . S
C186 C187 1.391 . S
C186 C191 1.391 . S
C187 H169 0.941 . S
C187 C186 1.391 . S
C187 C188 1.396 . S
C188 H172 0.939 . S
C188 C187 1.396 . S
C188 C189 1.397 . S
C189 C188 1.397 . S
C189 C190 1.385 . S
C190 H173 0.940 . S
C190 C189 1.385 . S
C190 C191 1.388 . S
C191 H170 0.939 . S
C191 C186 1.391 . S
C191 C190 1.388 . S
P192 O203 1.490 . S
P192 C206 1.812 . S
P192 C212 1.803 . S
P192 C218 1.819 . S
H193 C207 0.941 . S
H194 C208 0.939 . S
H195 C210 0.940 . S
H196 C211 0.940 . S
H197 C213 0.939 . S
H198 C214 0.942 . S
H199 C216 0.940 . S
H200 C217 0.939 . S
H201 C219 0.941 . S
H202 C223 0.939 . S
O203 P192 1.490 . S
H204 C220 0.939 . S
H205 C222 0.940 . S
C206 P192 1.812 . S
C206 C207 1.389 . S
C206 C211 1.391 . S
C207 H193 0.941 . S
C207 C206 1.389 . S
C207 C208 1.397 . S
C208 H194 0.939 . S
C208 C207 1.397 . S
C208 C209 1.378 . S
C209 C208 1.378 . S
C209 C210 1.378 . S
C210 H195 0.940 . S
C210 C209 1.378 . S
C210 C211 1.396 . S
C211 H196 0.940 . S
C211 C206 1.391 . S
C211 C210 1.396 . S
C212 P192 1.803 . S
C212 C213 1.378 . S
C212 C217 1.400 . S
C213 H197 0.939 . S
C213 C212 1.378 . S
C213 C214 1.361 . S
C214 H198 0.942 . S
C214 C213 1.361 . S
C214 C215 1.369 . S
C215 C214 1.369 . S
C215 C216 1.404 . S
C216 H199 0.940 . S
C216 C215 1.404 . S
C216 C217 1.389 . S
C217 H200 0.939 . S
C217 C212 1.400 . S
C217 C216 1.389 . S
C218 P192 1.819 . S
C218 C219 1.391 . S
C218 C223 1.391 . S
C219 H201 0.941 . S
C219 C218 1.391 . S
C219 C220 1.396 . S
C220 H204 0.939 . S
C220 C219 1.396 . S
C220 C221 1.397 . S
C221 C220 1.397 . S
C221 C222 1.385 . S
C222 H205 0.940 . S
C222 C221 1.385 . S
C222 C223 1.388 . S
C223 H202 0.939 . S
C223 C218 1.391 . S
C223 C222 1.388 . S
P224 O235 1.490 . S
P224 C238 1.812 . S
P224 C244 1.803 . S
P224 C250 1.819 . S
H225 C239 0.941 . S
H226 C240 0.939 . S
H227 C242 0.940 . S
H228 C243 0.940 . S
H229 C245 0.939 . S
H230 C246 0.942 . S
H231 C248 0.940 . S
H232 C249 0.939 . S
H233 C251 0.941 . S
H234 C255 0.939 . S
O235 P224 1.490 . S
H236 C252 0.939 . S
H237 C254 0.940 . S
C238 P224 1.812 . S
C238 C239 1.389 . S
C238 C243 1.391 . S
C239 H225 0.941 . S
C239 C238 1.389 . S
C239 C240 1.397 . S
C240 H226 0.939 . S
C240 C239 1.397 . S
C240 C241 1.378 . S
C241 C240 1.378 . S
C241 C242 1.378 . S
C242 H227 0.940 . S
C242 C241 1.378 . S
C242 C243 1.396 . S
C243 H228 0.940 . S
C243 C238 1.391 . S
C243 C242 1.396 . S
C244 P224 1.803 . S
C244 C245 1.378 . S
C244 C249 1.400 . S
C245 H229 0.939 . S
C245 C244 1.378 . S
C245 C246 1.361 . S
C246 H230 0.942 . S
C246 C245 1.361 . S
C246 C247 1.369 . S
C247 C246 1.369 . S
C247 C248 1.404 . S
C248 H231 0.940 . S
C248 C247 1.404 . S
C248 C249 1.389 . S
C249 H232 0.939 . S
C249 C244 1.400 . S
C249 C248 1.389 . S
C250 P224 1.819 . S
C250 C251 1.391 . S
C250 C255 1.391 . S
C251 H233 0.941 . S
C251 C250 1.391 . S
C251 C252 1.396 . S
C252 H236 0.939 . S
C252 C251 1.396 . S
C252 C253 1.397 . S
C253 C252 1.397 . S
C253 C254 1.385 . S
C254 H237 0.940 . S
C254 C253 1.385 . S
C254 C255 1.388 . S
C255 H234 0.939 . S
C255 C250 1.391 . S
C255 C254 1.388 . S
Nd256 C258 2.836 . S
Nd256 O276 2.500 . S
Nd256 O277 2.492 . S
Nd256 O278 2.487 1_565 S
Nd256 O279 2.682 1_565 S
Nd256 O280 2.410 . S
Nd256 O285 2.414 1_455 S
Nd256 O287 2.424 1_565 S
Nd257 C267 2.836 . S
Nd257 O279 2.414 1_655 S
Nd257 O281 2.424 1_545 S
Nd257 O282 2.500 . S
Nd257 O283 2.492 . S
Nd257 O284 2.487 1_545 S
Nd257 O285 2.682 1_545 S
Nd257 O286 2.410 . S
C258 Nd256 2.836 . S
C258 C259 1.498 . S
C258 O276 1.258 . S
C258 O277 1.239 . S
C259 C258 1.498 . S
C259 C260 1.366 . S
C259 C264 1.407 . S
C260 C259 1.366 . S
C260 C261 1.392 . S
C260 H288 0.930 . S
C261 C260 1.392 . S
C261 C262 1.398 . S
C261 H289 0.929 . S
C262 C261 1.398 . S
C262 C263 1.352 . S
C263 C262 1.352 . S
C263 C264 1.384 . S
C263 H290 0.930 . S
C264 C259 1.407 . S
C264 C263 1.384 . S
C264 H291 0.929 . S
C265 O278 1.241 . S
C265 O279 1.273 . S
C266 O280 1.251 1_655 S
C266 O281 1.268 . S
C267 Nd257 2.836 . S
C267 C268 1.498 . S
C267 O282 1.258 . S
C267 O283 1.239 . S
C268 C267 1.498 . S
C268 C269 1.366 . S
C268 C273 1.407 . S
C269 C268 1.366 . S
C269 C270 1.392 . S
C269 H292 0.930 . S
C270 C269 1.392 . S
C270 C271 1.398 . S
C270 H293 0.929 . S
C271 C270 1.398 . S
C271 C272 1.352 . S
C272 C271 1.352 . S
C272 C273 1.384 . S
C272 H294 0.930 . S
C273 C268 1.407 . S
C273 C272 1.384 . S
C273 H295 0.929 . S
C274 O284 1.241 . S
C274 O285 1.273 . S
C275 O286 1.251 1_455 S
C275 O287 1.268 . S
O276 Nd256 2.500 . S
O276 C258 1.258 . S
O277 Nd256 2.492 . S
O277 C258 1.239 . S
O278 Nd256 2.487 1_545 S
O278 C265 1.241 . S
O279 Nd256 2.682 1_545 S
O279 Nd257 2.414 1_455 S
O279 C265 1.273 . S
O280 Nd256 2.410 . S
O280 C266 1.251 1_455 S
O281 Nd257 2.424 1_565 S
O281 C266 1.268 . S
O282 Nd257 2.500 . S
O282 C267 1.258 . S
O283 Nd257 2.492 . S
O283 C267 1.239 . S
O284 Nd257 2.487 1_565 S
O284 C274 1.241 . S
O285 Nd256 2.414 1_655 S
O285 Nd257 2.682 1_565 S
O285 C274 1.273 . S
O286 Nd257 2.410 . S
O286 C275 1.251 1_655 S
O287 Nd256 2.424 1_545 S
O287 C275 1.268 . S
H288 C260 0.930 . S
H289 C261 0.929 . S
H290 C263 0.930 . S
H291 C264 0.929 . S
H292 C269 0.930 . S
H293 C270 0.929 . S
H294 C272 0.930 . S
H295 C273 0.929 . S
Nd296 C298 2.836 . S
Nd296 O316 2.500 . S
Nd296 O317 2.492 . S
Nd296 O318 2.487 1_565 S
Nd296 O319 2.682 1_565 S
Nd296 O320 2.410 1_554 S
Nd296 O325 2.414 1_554 S
Nd296 O327 2.424 1_565 S
Nd297 C307 2.836 . S
Nd297 O319 2.414 1_556 S
Nd297 O321 2.424 1_545 S
Nd297 O322 2.500 . S
Nd297 O323 2.492 . S
Nd297 O324 2.487 . S
Nd297 O325 2.682 1_545 S
Nd297 O326 2.410 1_556 S
C298 Nd296 2.836 . S
C298 C299 1.498 . S
C298 O316 1.258 . S
C298 O317 1.239 . S
C299 C298 1.498 . S
C299 C300 1.366 . S
C299 C304 1.407 . S
C300 C299 1.366 . S
C300 C301 1.392 . S
C300 H328 0.930 . S
C301 C300 1.392 . S
C301 C302 1.398 . S
C301 H329 0.929 . S
C302 C301 1.398 . S
C302 C303 1.352 . S
C303 C302 1.352 . S
C303 C304 1.384 . S
C303 H330 0.930 . S
C304 C299 1.407 . S
C304 C303 1.384 . S
C304 H331 0.929 . S
C305 O318 1.241 . S
C305 O319 1.273 . S
C306 O320 1.251 . S
C306 O321 1.268 . S
C307 Nd297 2.836 . S
C307 C308 1.498 . S
C307 O322 1.258 . S
C307 O323 1.239 . S
C308 C307 1.498 . S
C308 C309 1.366 . S
C308 C313 1.407 . S
C309 C308 1.366 . S
C309 C310 1.392 . S
C309 H332 0.930 . S
C310 C309 1.392 . S
C310 C311 1.398 . S
C310 H333 0.929 . S
C311 C310 1.398 . S
C311 C312 1.352 . S
C312 C311 1.352 . S
C312 C313 1.384 . S
C312 H334 0.930 . S
C313 C308 1.407 . S
C313 C312 1.384 . S
C313 H335 0.929 . S
C314 O324 1.241 1_565 S
C314 O325 1.273 . S
C315 O326 1.251 . S
C315 O327 1.268 . S
O316 Nd296 2.500 . S
O316 C298 1.258 . S
O317 Nd296 2.492 . S
O317 C298 1.239 . S
O318 Nd296 2.487 1_545 S
O318 C305 1.241 . S
O319 Nd296 2.682 1_545 S
O319 Nd297 2.414 1_554 S
O319 C305 1.273 . S
O320 Nd296 2.410 1_556 S
O320 C306 1.251 . S
O321 Nd297 2.424 1_565 S
O321 C306 1.268 . S
O322 Nd297 2.500 . S
O322 C307 1.258 . S
O323 Nd297 2.492 . S
O323 C307 1.239 . S
O324 Nd297 2.487 . S
O324 C314 1.241 1_545 S
O325 Nd296 2.414 1_556 S
O325 Nd297 2.682 1_565 S
O325 C314 1.273 . S
O326 Nd297 2.410 1_554 S
O326 C315 1.251 . S
O327 Nd296 2.424 1_545 S
O327 C315 1.268 . S
H328 C300 0.930 . S
H329 C301 0.929 . S
H330 C303 0.930 . S
H331 C304 0.929 . S
H332 C309 0.930 . S
H333 C310 0.929 . S
H334 C312 0.930 . S
H335 C313 0.929 . S
Nd336 C338 2.836 . S
Nd336 O356 2.500 . S
Nd336 O357 2.492 . S
Nd336 O358 2.487 . S
Nd336 O359 2.682 . S
Nd336 O360 2.410 . S
Nd336 O365 2.414 . S
Nd336 O367 2.424 . S
Nd337 C347 2.836 . S
Nd337 O359 2.414 . S
Nd337 O361 2.424 . S
Nd337 O362 2.500 . S
Nd337 O363 2.492 . S
Nd337 O364 2.487 . S
Nd337 O365 2.682 . S
Nd337 O366 2.410 . S
C338 Nd336 2.836 . S
C338 C339 1.498 . S
C338 O356 1.258 . S
C338 O357 1.239 . S
C339 C338 1.498 . S
C339 C340 1.366 . S
C339 C344 1.407 . S
C340 C339 1.366 . S
C340 C341 1.392 . S
C340 H368 0.930 . S
C341 C340 1.392 . S
C341 C342 1.398 . S
C341 H369 0.929 . S
C342 C341 1.398 . S
C342 C343 1.352 . S
C343 C342 1.352 . S
C343 C344 1.384 . S
C343 H370 0.930 . S
C344 C339 1.407 . S
C344 C343 1.384 . S
C344 H371 0.929 . S
C345 O358 1.241 . S
C345 O359 1.273 . S
C346 O360 1.251 . S
C346 O361 1.268 . S
C347 Nd337 2.836 . S
C347 C348 1.498 . S
C347 O362 1.258 . S
C347 O363 1.239 . S
C348 C347 1.498 . S
C348 C349 1.366 . S
C348 C353 1.407 . S
C349 C348 1.366 . S
C349 C350 1.392 . S
C349 H372 0.930 . S
C350 C349 1.392 . S
C350 C351 1.398 . S
C350 H373 0.929 . S
C351 C350 1.398 . S
C351 C352 1.352 . S
C352 C351 1.352 . S
C352 C353 1.384 . S
C352 H374 0.930 . S
C353 C348 1.407 . S
C353 C352 1.384 . S
C353 H375 0.929 . S
C354 O364 1.241 . S
C354 O365 1.273 . S
C355 O366 1.251 . S
C355 O367 1.268 . S
O356 Nd336 2.500 . S
O356 C338 1.258 . S
O357 Nd336 2.492 . S
O357 C338 1.239 . S
O358 Nd336 2.487 . S
O358 C345 1.241 . S
O359 Nd336 2.682 . S
O359 Nd337 2.414 . S
O359 C345 1.273 . S
O360 Nd336 2.410 . S
O360 C346 1.251 . S
O361 Nd337 2.424 . S
O361 C346 1.268 . S
O362 Nd337 2.500 . S
O362 C347 1.258 . S
O363 Nd337 2.492 . S
O363 C347 1.239 . S
O364 Nd337 2.487 . S
O364 C354 1.241 . S
O365 Nd336 2.414 . S
O365 Nd337 2.682 . S
O365 C354 1.273 . S
O366 Nd337 2.410 . S
O366 C355 1.251 . S
O367 Nd336 2.424 . S
O367 C355 1.268 . S
H368 C340 0.930 . S
H369 C341 0.929 . S
H370 C343 0.930 . S
H371 C344 0.929 . S
H372 C349 0.930 . S
H373 C350 0.929 . S
H374 C352 0.930 . S
H375 C353 0.929 . S
Nd376 C378 2.836 . S
Nd376 O396 2.500 . S
Nd376 O397 2.492 . S
Nd376 O398 2.487 1_655 S
Nd376 O399 2.682 1_655 S
Nd376 O400 2.410 . S
Nd376 O405 2.414 1_554 S
Nd376 O407 2.424 1_655 S
Nd377 C387 2.836 . S
Nd377 O399 2.414 1_556 S
Nd377 O401 2.424 1_455 S
Nd377 O402 2.500 . S
Nd377 O403 2.492 . S
Nd377 O404 2.487 1_455 S
Nd377 O405 2.682 1_455 S
Nd377 O406 2.410 . S
C378 Nd376 2.836 . S
C378 C379 1.498 . S
C378 O396 1.258 . S
C378 O397 1.239 . S
C379 C378 1.498 . S
C379 C380 1.366 . S
C379 C384 1.407 . S
C380 C379 1.366 . S
C380 C381 1.392 . S
C380 H408 0.930 . S
C381 C380 1.392 . S
C381 C382 1.398 . S
C381 H409 0.929 . S
C382 C381 1.398 . S
C382 C383 1.352 . S
C383 C382 1.352 . S
C383 C384 1.384 . S
C383 H410 0.930 . S
C384 C379 1.407 . S
C384 C383 1.384 . S
C384 H411 0.929 . S
C385 O398 1.241 . S
C385 O399 1.273 . S
C386 O400 1.251 1_556 S
C386 O401 1.268 . S
C387 Nd377 2.836 . S
C387 C388 1.498 . S
C387 O402 1.258 . S
C387 O403 1.239 . S
C388 C387 1.498 . S
C388 C389 1.366 . S
C388 C393 1.407 . S
C389 C388 1.366 . S
C389 C390 1.392 . S
C389 H412 0.930 . S
C390 C389 1.392 . S
C390 C391 1.398 . S
C390 H413 0.929 . S
C391 C390 1.398 . S
C391 C392 1.352 . S
C392 C391 1.352 . S
C392 C393 1.384 . S
C392 H414 0.930 . S
C393 C388 1.407 . S
C393 C392 1.384 . S
C393 H415 0.929 . S
C394 O404 1.241 . S
C394 O405 1.273 . S
C395 O406 1.251 1_554 S
C395 O407 1.268 . S
O396 Nd376 2.500 . S
O396 C378 1.258 . S
O397 Nd376 2.492 . S
O397 C378 1.239 . S
O398 Nd376 2.487 1_455 S
O398 C385 1.241 . S
O399 Nd376 2.682 1_455 S
O399 Nd377 2.414 1_554 S
O399 C385 1.273 . S
O400 Nd376 2.410 . S
O400 C386 1.251 1_554 S
O401 Nd377 2.424 1_655 S
O401 C386 1.268 . S
O402 Nd377 2.500 . S
O402 C387 1.258 . S
O403 Nd377 2.492 . S
O403 C387 1.239 . S
O404 Nd377 2.487 1_655 S
O404 C394 1.241 . S
O405 Nd376 2.414 1_556 S
O405 Nd377 2.682 1_655 S
O405 C394 1.273 . S
O406 Nd377 2.410 . S
O406 C395 1.251 1_556 S
O407 Nd376 2.424 1_455 S
O407 C395 1.268 . S
H408 C380 0.930 . S
H409 C381 0.929 . S
H410 C383 0.930 . S
H411 C384 0.929 . S
H412 C389 0.930 . S
H413 C390 0.929 . S
H414 C392 0.930 . S
H415 C393 0.929 . S
H416 C424 0.929 . S
H417 C426 0.930 . S
H418 C428 0.930 . S
H419 C431 0.929 . S
H420 C434 0.930 . S
H421 C436 0.960 . S
H422 C436 0.960 . S
H423 C436 0.960 . S
C424 H416 0.929 . S
C424 C425 1.377 . S
C424 C426 1.384 . S
C425 C424 1.377 . S
C425 C431 1.390 . S
C426 H417 0.930 . S
C426 C424 1.384 . S
C426 C427 1.372 . S
C427 C426 1.372 . S
C427 C428 1.400 . S
C427 C432 1.490 . S
C428 H418 0.930 . S
C428 C427 1.400 . S
C428 C431 1.386 . S
H429 C445 0.930 . S
H430 C446 0.931 . S
C431 H419 0.929 . S
C431 C425 1.390 . S
C431 C428 1.386 . S
C432 C427 1.490 . S
C432 C434 1.395 . S
C432 C435 1.403 . S
H433 C439 0.930 . S
C434 H420 0.930 . S
C434 C432 1.395 . S
C434 C437 1.403 . S
C435 C432 1.403 . S
C435 C436 1.524 . S
C435 C439 1.400 . S
C436 H421 0.960 . S
C436 H422 0.960 . S
C436 H423 0.960 . S
C436 C435 1.524 . S
C437 C434 1.403 . S
C437 C438 1.392 . S
C437 C441 1.495 . S
C438 C437 1.392 . S
C438 C439 1.385 . S
C438 C440 1.478 . S
C439 H433 0.930 . S
C439 C435 1.400 . S
C439 C438 1.385 . S
C440 C438 1.478 . S
C440 C442 1.381 . S
C440 C446 1.383 . S
C441 C437 1.495 . S
C441 H447 0.959 . S
C441 H448 0.961 . S
C441 H449 0.960 . S
C442 C440 1.381 . S
C442 C443 1.394 . S
C442 H450 0.930 . S
C443 C442 1.394 . S
C443 C444 1.383 . S
C443 H451 0.929 . S
C444 C443 1.383 . S
C444 C445 1.377 . S
C445 H429 0.930 . S
C445 C444 1.377 . S
C445 C446 1.379 . S
C446 H430 0.931 . S
C446 C440 1.383 . S
C446 C445 1.379 . S
H447 C441 0.959 . S
H448 C441 0.961 . S
H449 C441 0.960 . S
H450 C442 0.930 . S
H451 C443 0.929 . S
H452 C460 0.929 . S
H453 C462 0.930 . S
H454 C464 0.930 . S
H455 C467 0.929 . S
H456 C470 0.930 . S
H457 C472 0.960 . S
H458 C472 0.960 . S
H459 C472 0.960 . S
C460 H452 0.929 . S
C460 C461 1.377 . S
C460 C462 1.384 . S
C461 C460 1.377 . S
C461 C467 1.390 . S
C462 H453 0.930 . S
C462 C460 1.384 . S
C462 C463 1.372 . S
C463 C462 1.372 . S
C463 C464 1.400 . S
C463 C468 1.490 . S
C464 H454 0.930 . S
C464 C463 1.400 . S
C464 C467 1.386 . S
H465 C481 0.930 . S
H466 C482 0.931 . S
C467 H455 0.929 . S
C467 C461 1.390 . S
C467 C464 1.386 . S
C468 C463 1.490 . S
C468 C470 1.395 . S
C468 C471 1.403 . S
H469 C475 0.930 . S
C470 H456 0.930 . S
C470 C468 1.395 . S
C470 C473 1.403 . S
C471 C468 1.403 . S
C471 C472 1.524 . S
C471 C475 1.400 . S
C472 H457 0.960 . S
C472 H458 0.960 . S
C472 H459 0.960 . S
C472 C471 1.524 . S
C473 C470 1.403 . S
C473 C474 1.392 . S
C473 C477 1.495 . S
C474 C473 1.392 . S
C474 C475 1.385 . S
C474 C476 1.478 . S
C475 H469 0.930 . S
C475 C471 1.400 . S
C475 C474 1.385 . S
C476 C474 1.478 . S
C476 C478 1.381 . S
C476 C482 1.383 . S
C477 C473 1.495 . S
C477 H483 0.959 . S
C477 H484 0.961 . S
C477 H485 0.960 . S
C478 C476 1.381 . S
C478 C479 1.394 . S
C478 H486 0.930 . S
C479 C478 1.394 . S
C479 C480 1.383 . S
C479 H487 0.929 . S
C480 C479 1.383 . S
C480 C481 1.377 . S
C481 H465 0.930 . S
C481 C480 1.377 . S
C481 C482 1.379 . S
C482 H466 0.931 . S
C482 C476 1.383 . S
C482 C481 1.379 . S
H483 C477 0.959 . S
H484 C477 0.961 . S
H485 C477 0.960 . S
H486 C478 0.930 . S
H487 C479 0.929 . S
H488 C496 0.929 . S
H489 C498 0.930 . S
H490 C500 0.930 . S
H491 C503 0.929 . S
H492 C506 0.930 . S
H493 C508 0.960 . S
H494 C508 0.960 . S
H495 C508 0.960 . S
C496 H488 0.929 . S
C496 C497 1.377 . S
C496 C498 1.384 . S
C497 C496 1.377 . S
C497 C503 1.390 . S
C498 H489 0.930 . S
C498 C496 1.384 . S
C498 C499 1.372 . S
C499 C498 1.372 . S
C499 C500 1.400 . S
C499 C504 1.490 . S
C500 H490 0.930 . S
C500 C499 1.400 . S
C500 C503 1.386 . S
H501 C517 0.930 . S
H502 C518 0.931 . S
C503 H491 0.929 . S
C503 C497 1.390 . S
C503 C500 1.386 . S
C504 C499 1.490 . S
C504 C506 1.395 . S
C504 C507 1.403 . S
H505 C511 0.930 . S
C506 H492 0.930 . S
C506 C504 1.395 . S
C506 C509 1.403 . S
C507 C504 1.403 . S
C507 C508 1.524 . S
C507 C511 1.400 . S
C508 H493 0.960 . S
C508 H494 0.960 . S
C508 H495 0.960 . S
C508 C507 1.524 . S
C509 C506 1.403 . S
C509 C510 1.392 . S
C509 C513 1.495 . S
C510 C509 1.392 . S
C510 C511 1.385 . S
C510 C512 1.478 . S
C511 H505 0.930 . S
C511 C507 1.400 . S
C511 C510 1.385 . S
C512 C510 1.478 . S
C512 C514 1.381 . S
C512 C518 1.383 . S
C513 C509 1.495 . S
C513 H519 0.959 . S
C513 H520 0.961 . S
C513 H521 0.960 . S
C514 C512 1.381 . S
C514 C515 1.394 . S
C514 H522 0.930 . S
C515 C514 1.394 . S
C515 C516 1.383 . S
C515 H523 0.929 . S
C516 C515 1.383 . S
C516 C517 1.377 . S
C517 H501 0.930 . S
C517 C516 1.377 . S
C517 C518 1.379 . S
C518 H502 0.931 . S
C518 C512 1.383 . S
C518 C517 1.379 . S
H519 C513 0.959 . S
H520 C513 0.961 . S
H521 C513 0.960 . S
H522 C514 0.930 . S
H523 C515 0.929 . S
H524 C532 0.929 . S
H525 C534 0.930 . S
H526 C536 0.930 . S
H527 C539 0.929 . S
H528 C542 0.930 . S
H529 C544 0.960 . S
H530 C544 0.960 . S
H531 C544 0.960 . S
C532 H524 0.929 . S
C532 C533 1.377 . S
C532 C534 1.384 . S
C533 C532 1.377 . S
C533 C539 1.390 . S
C534 H525 0.930 . S
C534 C532 1.384 . S
C534 C535 1.372 . S
C535 C534 1.372 . S
C535 C536 1.400 . S
C535 C540 1.490 . S
C536 H526 0.930 . S
C536 C535 1.400 . S
C536 C539 1.386 . S
H537 C553 0.930 . S
H538 C554 0.931 . S
C539 H527 0.929 . S
C539 C533 1.390 . S
C539 C536 1.386 . S
C540 C535 1.490 . S
C540 C542 1.395 . S
C540 C543 1.403 . S
H541 C547 0.930 . S
C542 H528 0.930 . S
C542 C540 1.395 . S
C542 C545 1.403 . S
C543 C540 1.403 . S
C543 C544 1.524 . S
C543 C547 1.400 . S
C544 H529 0.960 . S
C544 H530 0.960 . S
C544 H531 0.960 . S
C544 C543 1.524 . S
C545 C542 1.403 . S
C545 C546 1.392 . S
C545 C549 1.495 . S
C546 C545 1.392 . S
C546 C547 1.385 . S
C546 C548 1.478 . S
C547 H541 0.930 . S
C547 C543 1.400 . S
C547 C546 1.385 . S
C548 C546 1.478 . S
C548 C550 1.381 . S
C548 C554 1.383 . S
C549 C545 1.495 . S
C549 H555 0.959 . S
C549 H556 0.961 . S
C549 H557 0.960 . S
C550 C548 1.381 . S
C550 C551 1.394 . S
C550 H558 0.930 . S
C551 C550 1.394 . S
C551 C552 1.383 . S
C551 H559 0.929 . S
C552 C551 1.383 . S
C552 C553 1.377 . S
C553 H537 0.930 . S
C553 C552 1.377 . S
C553 C554 1.379 . S
C554 H538 0.931 . S
C554 C548 1.383 . S
C554 C553 1.379 . S
H555 C549 0.959 . S
H556 C549 0.961 . S
H557 C549 0.960 . S
H558 C550 0.930 . S
H559 C551 0.929 . S
H560 C568 0.929 . S
H561 C570 0.930 . S
H562 C572 0.930 . S
H563 C575 0.929 . S
H564 C578 0.930 . S
H565 C580 0.960 . S
H566 C580 0.960 . S
H567 C580 0.960 . S
C568 H560 0.929 . S
C568 C569 1.377 . S
C568 C570 1.384 . S
C569 C568 1.377 . S
C569 C575 1.390 . S
C570 H561 0.930 . S
C570 C568 1.384 . S
C570 C571 1.372 . S
C571 C570 1.372 . S
C571 C572 1.400 . S
C571 C576 1.490 . S
C572 H562 0.930 . S
C572 C571 1.400 . S
C572 C575 1.386 . S
H573 C589 0.930 . S
H574 C590 0.931 . S
C575 H563 0.929 . S
C575 C569 1.390 . S
C575 C572 1.386 . S
C576 C571 1.490 . S
C576 C578 1.395 . S
C576 C579 1.403 . S
H577 C583 0.930 . S
C578 H564 0.930 . S
C578 C576 1.395 . S
C578 C581 1.403 . S
C579 C576 1.403 . S
C579 C580 1.524 . S
C579 C583 1.400 . S
C580 H565 0.960 . S
C580 H566 0.960 . S
C580 H567 0.960 . S
C580 C579 1.524 . S
C581 C578 1.403 . S
C581 C582 1.392 . S
C581 C585 1.495 . S
C582 C581 1.392 . S
C582 C583 1.385 . S
C582 C584 1.478 . S
C583 H577 0.930 . S
C583 C579 1.400 . S
C583 C582 1.385 . S
C584 C582 1.478 . S
C584 C586 1.381 . S
C584 C590 1.383 . S
C585 C581 1.495 . S
C585 H591 0.959 . S
C585 H592 0.961 . S
C585 H593 0.960 . S
C586 C584 1.381 . S
C586 C587 1.394 . S
C586 H594 0.931 . S
C587 C586 1.394 . S
C587 C588 1.383 . S
C587 H595 0.929 1_554 S
C588 C587 1.383 . S
C588 C589 1.377 . S
C589 H573 0.930 . S
C589 C588 1.377 . S
C589 C590 1.379 . S
C590 H574 0.931 . S
C590 C584 1.383 . S
C590 C589 1.379 . S
H591 C585 0.959 . S
H592 C585 0.961 . S
H593 C585 0.960 . S
H594 C586 0.931 . S
H595 C587 0.929 1_556 S
H596 C604 0.929 . S
H597 C606 0.930 . S
H598 C608 0.930 . S
H599 C611 0.929 . S
H600 C614 0.930 . S
H601 C616 0.960 . S
H602 C616 0.960 . S
H603 C616 0.960 . S
C604 H596 0.929 . S
C604 C605 1.377 . S
C604 C606 1.384 . S
C605 C604 1.377 . S
C605 C611 1.390 . S
C606 H597 0.930 . S
C606 C604 1.384 . S
C606 C607 1.372 . S
C607 C606 1.372 . S
C607 C608 1.400 . S
C607 C612 1.490 . S
C608 H598 0.930 . S
C608 C607 1.400 . S
C608 C611 1.386 . S
H609 C625 0.930 . S
H610 C626 0.931 . S
C611 H599 0.929 . S
C611 C605 1.390 . S
C611 C608 1.386 . S
C612 C607 1.490 . S
C612 C614 1.395 . S
C612 C615 1.403 . S
H613 C619 0.930 . S
C614 H600 0.930 . S
C614 C612 1.395 . S
C614 C617 1.403 . S
C615 C612 1.403 . S
C615 C616 1.524 . S
C615 C619 1.400 . S
C616 H601 0.960 . S
C616 H602 0.960 . S
C616 H603 0.960 . S
C616 C615 1.524 . S
C617 C614 1.403 . S
C617 C618 1.392 . S
C617 C621 1.495 . S
C618 C617 1.392 . S
C618 C619 1.385 . S
C618 C620 1.478 . S
C619 H613 0.930 . S
C619 C615 1.400 . S
C619 C618 1.385 . S
C620 C618 1.478 . S
C620 C622 1.381 . S
C620 C626 1.383 . S
C621 C617 1.495 . S
C621 H627 0.959 . S
C621 H628 0.961 . S
C621 H629 0.960 . S
C622 C620 1.381 . S
C622 C623 1.394 . S
C622 H630 0.930 . S
C623 C622 1.394 . S
C623 C624 1.383 . S
C623 H631 0.929 . S
C624 C623 1.383 . S
C624 C625 1.377 . S
C625 H609 0.930 . S
C625 C624 1.377 . S
C625 C626 1.379 . S
C626 H610 0.931 . S
C626 C620 1.383 . S
C626 C625 1.379 . S
H627 C621 0.959 . S
H628 C621 0.961 . S
H629 C621 0.960 . S
H630 C622 0.930 . S
H631 C623 0.929 . S
H632 C640 0.929 . S
H633 C642 0.930 . S
H634 C644 0.930 . S
H635 C647 0.929 . S
H636 C650 0.930 . S
H637 C652 0.960 . S
H638 C652 0.960 . S
H639 C652 0.960 . S
C640 H632 0.929 . S
C640 C641 1.377 . S
C640 C642 1.384 . S
C641 C640 1.377 . S
C641 C647 1.390 . S
C642 H633 0.930 . S
C642 C640 1.384 . S
C642 C643 1.372 . S
C643 C642 1.372 . S
C643 C644 1.400 . S
C643 C648 1.490 . S
C644 H634 0.930 . S
C644 C643 1.400 . S
C644 C647 1.386 . S
H645 C661 0.930 . S
H646 C662 0.931 . S
C647 H635 0.929 . S
C647 C641 1.390 . S
C647 C644 1.386 . S
C648 C643 1.490 . S
C648 C650 1.395 . S
C648 C651 1.403 . S
H649 C655 0.930 . S
C650 H636 0.930 . S
C650 C648 1.395 . S
C650 C653 1.403 . S
C651 C648 1.403 . S
C651 C652 1.524 . S
C651 C655 1.400 . S
C652 H637 0.960 . S
C652 H638 0.960 . S
C652 H639 0.960 . S
C652 C651 1.524 . S
C653 C650 1.403 . S
C653 C654 1.392 . S
C653 C657 1.495 . S
C654 C653 1.392 . S
C654 C655 1.385 . S
C654 C656 1.478 . S
C655 H649 0.930 . S
C655 C651 1.400 . S
C655 C654 1.385 . S
C656 C654 1.478 . S
C656 C658 1.381 . S
C656 C662 1.383 . S
C657 C653 1.495 . S
C657 H663 0.959 . S
C657 H664 0.961 . S
C657 H665 0.980 . S
C658 C656 1.381 . S
C658 C659 1.394 . S
C658 H666 0.930 . S
C659 C658 1.394 . S
C659 C660 1.383 . S
C659 H667 0.929 1_556 S
C660 C659 1.383 . S
C660 C661 1.377 . S
C661 H645 0.930 . S
C661 C660 1.377 . S
C661 C662 1.379 . S
C662 H646 0.931 . S
C662 C656 1.383 . S
C662 C661 1.379 . S
H663 C657 0.959 . S
H664 C657 0.961 . S
H665 C657 0.980 . S
H666 C658 0.930 . S
H667 C659 0.929 1_554 S
H668 C676 0.929 . S
H669 C678 0.930 . S
H670 C680 0.930 . S
H671 C683 0.929 . S
H672 C686 0.930 . S
H673 C688 0.960 . S
H674 C688 0.960 . S
H675 C688 0.960 . S
C676 H668 0.929 . S
C676 C677 1.377 . S
C676 C678 1.384 . S
C677 C676 1.377 . S
C677 C683 1.390 . S
C678 H669 0.930 . S
C678 C676 1.384 . S
C678 C679 1.372 . S
C679 C678 1.372 . S
C679 C680 1.400 . S
C679 C684 1.490 . S
C680 H670 0.930 . S
C680 C679 1.400 . S
C680 C683 1.386 . S
H681 C697 0.930 . S
H682 C698 0.931 . S
C683 H671 0.929 . S
C683 C677 1.390 . S
C683 C680 1.386 . S
C684 C679 1.490 . S
C684 C686 1.395 . S
C684 C687 1.403 . S
H685 C691 0.930 . S
C686 H672 0.930 . S
C686 C684 1.395 . S
C686 C689 1.403 . S
C687 C684 1.403 . S
C687 C688 1.524 . S
C687 C691 1.400 . S
C688 H673 0.960 . S
C688 H674 0.960 . S
C688 H675 0.960 . S
C688 C687 1.524 . S
C689 C686 1.403 . S
C689 C690 1.392 . S
C689 C693 1.495 . S
C690 C689 1.392 . S
C690 C691 1.385 . S
C690 C692 1.478 . S
C691 H685 0.930 . S
C691 C687 1.400 . S
C691 C690 1.385 . S
C692 C690 1.478 . S
C692 C694 1.381 . S
C692 C698 1.383 . S
C693 C689 1.495 . S
C693 H699 0.959 . S
C693 H700 0.961 . S
C693 H701 0.960 . S
C694 C692 1.381 . S
C694 C695 1.394 . S
C694 H702 0.930 . S
C695 C694 1.394 . S
C695 C696 1.383 . S
C695 H703 0.929 . S
C696 C695 1.383 . S
C696 C697 1.377 . S
C697 H681 0.930 . S
C697 C696 1.377 . S
C697 C698 1.379 . S
C698 H682 0.931 . S
C698 C692 1.383 . S
C698 C697 1.379 . S
H699 C693 0.959 . S
H700 C693 0.961 . S
H701 C693 0.960 . S
H702 C694 0.930 . S
H703 C695 0.929 . S
H704 C712 0.929 . S
H705 C714 0.930 . S
H706 C716 0.930 . S
H707 C719 0.929 . S
H708 C722 0.930 . S
H709 C724 0.960 . S
H710 C724 0.960 . S
H711 C724 0.960 . S
C712 H704 0.929 . S
C712 C713 1.377 . S
C712 C714 1.384 . S
C713 C712 1.377 . S
C713 C719 1.390 . S
C714 H705 0.930 . S
C714 C712 1.384 . S
C714 C715 1.372 . S
C715 C714 1.372 . S
C715 C716 1.400 . S
C715 C720 1.490 . S
C716 H706 0.930 . S
C716 C715 1.400 . S
C716 C719 1.386 . S
H717 C733 0.930 1_556 S
H718 C734 0.931 . S
C719 H707 0.929 . S
C719 C713 1.390 . S
C719 C716 1.386 . S
C720 C715 1.490 . S
C720 C722 1.395 . S
C720 C723 1.403 . S
H721 C727 0.930 . S
C722 H708 0.930 . S
C722 C720 1.395 . S
C722 C725 1.403 . S
C723 C720 1.403 . S
C723 C724 1.524 . S
C723 C727 1.400 . S
C724 H709 0.960 . S
C724 H710 0.960 . S
C724 H711 0.960 . S
C724 C723 1.524 . S
C725 C722 1.403 . S
C725 C726 1.392 . S
C725 C729 1.495 . S
C726 C725 1.392 . S
C726 C727 1.385 . S
C726 C728 1.478 . S
C727 H721 0.930 . S
C727 C723 1.400 . S
C727 C726 1.385 . S
C728 C726 1.478 . S
C728 C730 1.381 . S
C728 C734 1.383 . S
C729 C725 1.495 . S
C729 H735 0.959 . S
C729 H736 0.961 . S
C729 H737 0.960 . S
C730 C728 1.381 . S
C730 C731 1.394 . S
C730 H738 0.930 . S
C731 C730 1.394 . S
C731 C732 1.383 . S
C731 H739 0.929 . S
C732 C731 1.383 . S
C732 C733 1.377 . S
C733 H717 0.930 1_554 S
C733 C732 1.377 . S
C733 C734 1.379 . S
C734 H718 0.931 . S
C734 C728 1.383 . S
C734 C733 1.379 . S
H735 C729 0.959 . S
H736 C729 0.961 . S
H737 C729 0.960 . S
H738 C730 0.930 . S
H739 C731 0.929 . S
H740 C748 0.929 . S
H741 C750 0.930 . S
H742 C752 0.930 . S
H743 C755 0.929 . S
H744 C758 0.930 . S
H745 C760 0.960 . S
H746 C760 0.960 . S
H747 C760 0.960 . S
C748 H740 0.929 . S
C748 C749 1.377 . S
C748 C750 1.384 . S
C749 C748 1.377 . S
C749 C755 1.390 . S
C750 H741 0.930 . S
C750 C748 1.384 . S
C750 C751 1.372 . S
C751 C750 1.372 . S
C751 C752 1.400 . S
C751 C756 1.490 . S
C752 H742 0.930 . S
C752 C751 1.400 . S
C752 C755 1.386 . S
H753 C769 0.930 . S
H754 C770 0.931 . S
C755 H743 0.929 . S
C755 C749 1.390 . S
C755 C752 1.386 . S
C756 C751 1.490 . S
C756 C758 1.395 . S
C756 C759 1.403 . S
H757 C763 0.930 . S
C758 H744 0.930 . S
C758 C756 1.395 . S
C758 C761 1.403 . S
C759 C756 1.403 . S
C759 C760 1.524 . S
C759 C763 1.400 . S
C760 H745 0.960 . S
C760 H746 0.960 . S
C760 H747 0.960 . S
C760 C759 1.524 . S
C761 C758 1.403 . S
C761 C762 1.392 . S
C761 C765 1.495 . S
C762 C761 1.392 . S
C762 C763 1.385 . S
C762 C764 1.478 . S
C763 H757 0.930 . S
C763 C759 1.400 . S
C763 C762 1.385 . S
C764 C762 1.478 . S
C764 C766 1.381 . S
C764 C770 1.383 . S
C765 C761 1.495 . S
C765 H771 0.959 . S
C765 H772 0.961 . S
C765 H773 0.960 . S
C766 C764 1.381 . S
C766 C767 1.394 . S
C766 H774 0.930 . S
C767 C766 1.394 . S
C767 C768 1.383 . S
C767 H775 0.929 . S
C768 C767 1.383 . S
C768 C769 1.377 . S
C769 H753 0.930 . S
C769 C768 1.377 . S
C769 C770 1.379 . S
C770 H754 0.931 . S
C770 C764 1.383 . S
C770 C769 1.379 . S
H771 C765 0.959 . S
H772 C765 0.961 . S
H773 C765 0.960 . S
H774 C766 0.930 . S
H775 C767 0.929 . S
H776 C784 0.929 . S
H777 C786 0.930 . S
H778 C788 0.930 . S
H779 C791 0.929 . S
H780 C794 0.930 . S
H781 C796 0.960 . S
H782 C796 0.960 . S
H783 C796 0.960 . S
C784 H776 0.929 . S
C784 C785 1.377 . S
C784 C786 1.384 . S
C785 C784 1.377 . S
C785 C791 1.390 . S
C786 H777 0.930 . S
C786 C784 1.384 . S
C786 C787 1.372 . S
C787 C786 1.372 . S
C787 C788 1.400 . S
C787 C792 1.490 . S
C788 H778 0.930 . S
C788 C787 1.400 . S
C788 C791 1.386 . S
H789 C805 0.930 . S
H790 C806 0.931 . S
C791 H779 0.929 . S
C791 C785 1.390 . S
C791 C788 1.386 . S
C792 C787 1.490 . S
C792 C794 1.395 . S
C792 C795 1.403 . S
H793 C799 0.930 . S
C794 H780 0.930 . S
C794 C792 1.395 . S
C794 C797 1.403 . S
C795 C792 1.403 . S
C795 C796 1.524 . S
C795 C799 1.400 . S
C796 H781 0.960 . S
C796 H782 0.960 . S
C796 H783 0.960 . S
C796 C795 1.524 . S
C797 C794 1.403 . S
C797 C798 1.392 . S
C797 C801 1.495 . S
C798 C797 1.392 . S
C798 C799 1.385 . S
C798 C800 1.478 . S
C799 H793 0.930 . S
C799 C795 1.400 . S
C799 C798 1.385 . S
C800 C798 1.478 . S
C800 C802 1.381 . S
C800 C806 1.383 . S
C801 C797 1.495 . S
C801 H807 0.959 . S
C801 H808 0.961 . S
C801 H809 0.960 . S
C802 C800 1.381 . S
C802 C803 1.394 . S
C802 H810 0.930 . S
C803 C802 1.394 . S
C803 C804 1.383 . S
C803 H811 0.929 . S
C804 C803 1.383 . S
C804 C805 1.377 . S
C805 H789 0.930 . S
C805 C804 1.377 . S
C805 C806 1.379 . S
C806 H790 0.931 . S
C806 C800 1.383 . S
C806 C805 1.379 . S
H807 C801 0.959 . S
H808 C801 0.961 . S
H809 C801 0.960 . S
H810 C802 0.930 . S
H811 C803 0.929 . S
H812 C820 0.929 . S
H813 C822 0.930 . S
H814 C824 0.930 . S
H815 C827 0.929 . S
H816 C830 0.930 . S
H817 C832 0.960 . S
H818 C832 0.960 . S
H819 C832 0.960 . S
C820 H812 0.929 . S
C820 C821 1.377 . S
C820 C822 1.384 . S
C821 C820 1.377 . S
C821 C827 1.390 . S
C822 H813 0.930 . S
C822 C820 1.384 . S
C822 C823 1.372 . S
C823 C822 1.372 . S
C823 C824 1.400 . S
C823 C828 1.490 . S
C824 H814 0.930 . S
C824 C823 1.400 . S
C824 C827 1.386 . S
H825 C841 0.930 . S
H826 C842 0.931 . S
C827 H815 0.929 . S
C827 C821 1.390 . S
C827 C824 1.386 . S
C828 C823 1.490 . S
C828 C830 1.395 . S
C828 C831 1.403 . S
H829 C835 0.930 . S
C830 H816 0.930 . S
C830 C828 1.395 . S
C830 C833 1.403 . S
C831 C828 1.403 . S
C831 C832 1.524 . S
C831 C835 1.400 . S
C832 H817 0.960 . S
C832 H818 0.960 . S
C832 H819 0.960 . S
C832 C831 1.524 . S
C833 C830 1.403 . S
C833 C834 1.392 . S
C833 C837 1.495 . S
C834 C833 1.392 . S
C834 C835 1.385 . S
C834 C836 1.478 . S
C835 H829 0.930 . S
C835 C831 1.400 . S
C835 C834 1.385 . S
C836 C834 1.478 . S
C836 C838 1.381 . S
C836 C842 1.383 . S
C837 C833 1.495 . S
C837 H843 0.959 . S
C837 H844 0.961 . S
C837 H845 0.960 . S
C838 C836 1.381 . S
C838 C839 1.394 . S
C838 H846 0.930 . S
C839 C838 1.394 . S
C839 C840 1.383 . S
C839 H847 0.929 . S
C840 C839 1.383 . S
C840 C841 1.377 . S
C841 H825 0.930 . S
C841 C840 1.377 . S
C841 C842 1.379 . S
C842 H826 0.931 . S
C842 C836 1.383 . S
C842 C841 1.379 . S
H843 C837 0.959 . S
H844 C837 0.961 . S
H845 C837 0.960 . S
H846 C838 0.930 . S
H847 C839 0.929 . S
H848 C856 0.929 . S
H849 C858 0.930 . S
H850 C860 0.930 . S
H851 C863 0.929 . S
H852 C866 0.930 . S
H853 C868 0.960 . S
H854 C868 0.960 . S
H855 C868 0.960 . S
C856 H848 0.929 . S
C856 C857 1.377 . S
C856 C858 1.384 . S
C857 C856 1.377 . S
C857 C863 1.390 . S
C858 H849 0.930 . S
C858 C856 1.384 . S
C858 C859 1.372 . S
C859 C858 1.372 . S
C859 C860 1.400 . S
C859 C864 1.490 . S
C860 H850 0.930 . S
C860 C859 1.400 . S
C860 C863 1.386 . S
H861 C877 0.930 . S
H862 C878 0.931 . S
C863 H851 0.929 . S
C863 C857 1.390 . S
C863 C860 1.386 . S
C864 C859 1.490 . S
C864 C866 1.395 . S
C864 C867 1.403 . S
H865 C871 0.930 . S
C866 H852 0.930 . S
C866 C864 1.395 . S
C866 C869 1.403 . S
C867 C864 1.403 . S
C867 C868 1.524 . S
C867 C871 1.400 . S
C868 H853 0.960 . S
C868 H854 0.960 . S
C868 H855 0.960 . S
C868 C867 1.524 . S
C869 C866 1.403 . S
C869 C870 1.392 . S
C869 C873 1.495 . S
C870 C869 1.392 . S
C870 C871 1.385 . S
C870 C872 1.478 . S
C871 H865 0.930 . S
C871 C867 1.400 . S
C871 C870 1.385 . S
C872 C870 1.478 . S
C872 C874 1.381 . S
C872 C878 1.383 . S
C873 C869 1.495 . S
C873 H879 0.959 . S
C873 H880 0.961 . S
C873 H881 0.960 . S
C874 C872 1.381 . S
C874 C875 1.394 . S
C874 H882 0.930 . S
C875 C874 1.394 . S
C875 C876 1.383 . S
C875 H883 0.929 . S
C876 C875 1.383 . S
C876 C877 1.377 . S
C877 H861 0.930 . S
C877 C876 1.377 . S
C877 C878 1.379 . S
C878 H862 0.931 . S
C878 C872 1.383 . S
C878 C877 1.379 . S
H879 C873 0.959 . S
H880 C873 0.961 . S
H881 C873 0.960 . S
H882 C874 0.930 . S
H883 C875 0.929 . S
H884 C892 0.929 . S
H885 C894 0.930 . S
H886 C896 0.930 . S
H887 C899 0.929 . S
H888 C902 0.930 . S
H889 C904 0.960 . S
H890 C904 0.960 . S
H891 C904 0.960 . S
C892 H884 0.929 . S
C892 C893 1.377 . S
C892 C894 1.384 . S
C893 C892 1.377 . S
C893 C899 1.390 . S
C894 H885 0.930 . S
C894 C892 1.384 . S
C894 C895 1.372 . S
C895 C894 1.372 . S
C895 C896 1.400 . S
C895 C900 1.490 . S
C896 H886 0.930 . S
C896 C895 1.400 . S
C896 C899 1.386 . S
H897 C913 0.930 . S
H898 C914 0.931 . S
C899 H887 0.929 . S
C899 C893 1.390 . S
C899 C896 1.386 . S
C900 C895 1.490 . S
C900 C902 1.395 . S
C900 C903 1.403 . S
H901 C907 0.930 . S
C902 H888 0.930 . S
C902 C900 1.395 . S
C902 C905 1.403 . S
C903 C900 1.403 . S
C903 C904 1.524 . S
C903 C907 1.400 . S
C904 H889 0.960 . S
C904 H890 0.960 . S
C904 H891 0.960 . S
C904 C903 1.524 . S
C905 C902 1.403 . S
C905 C906 1.392 . S
C905 C909 1.495 . S
C906 C905 1.392 . S
C906 C907 1.385 . S
C906 C908 1.478 . S
C907 H901 0.930 . S
C907 C903 1.400 . S
C907 C906 1.385 . S
C908 C906 1.478 . S
C908 C910 1.381 . S
C908 C914 1.383 . S
C909 C905 1.495 . S
C909 H915 0.959 . S
C909 H916 0.961 . S
C909 H917 0.960 . S
C910 C908 1.381 . S
C910 C911 1.394 . S
C910 H918 0.930 . S
C911 C910 1.394 . S
C911 C912 1.383 . S
C911 H919 0.929 . S
C912 C911 1.383 . S
C912 C913 1.377 . S
C913 H897 0.930 . S
C913 C912 1.377 . S
C913 C914 1.379 . S
C914 H898 0.931 . S
C914 C908 1.383 . S
C914 C913 1.379 . S
H915 C909 0.959 . S
H916 C909 0.961 . S
H917 C909 0.960 . S
H918 C910 0.930 . S
H919 C911 0.929 . S
H920 C928 0.929 . S
H921 C930 0.930 . S
H922 C932 0.930 . S
H923 C935 0.929 . S
H924 C938 0.930 . S
H925 C940 0.960 . S
H926 C940 0.960 . S
H927 C940 0.960 . S
C928 H920 0.929 . S
C928 C929 1.377 . S
C928 C930 1.384 . S
C929 C928 1.377 . S
C929 C935 1.390 . S
C930 H921 0.930 . S
C930 C928 1.384 . S
C930 C931 1.372 . S
C931 C930 1.372 . S
C931 C932 1.400 . S
C931 C936 1.490 . S
C932 H922 0.930 . S
C932 C931 1.400 . S
C932 C935 1.386 . S
H933 C949 0.930 . S
H934 C950 0.931 . S
C935 H923 0.929 . S
C935 C929 1.390 . S
C935 C932 1.386 . S
C936 C931 1.490 . S
C936 C938 1.395 . S
C936 C939 1.403 . S
H937 C943 0.930 . S
C938 H924 0.930 . S
C938 C936 1.395 . S
C938 C941 1.403 . S
C939 C936 1.403 . S
C939 C940 1.524 . S
C939 C943 1.400 . S
C940 H925 0.960 . S
C940 H926 0.960 . S
C940 H927 0.960 . S
C940 C939 1.524 . S
C941 C938 1.403 . S
C941 C942 1.392 . S
C941 C945 1.495 . S
C942 C941 1.392 . S
C942 C943 1.385 . S
C942 C944 1.478 . S
C943 H937 0.930 . S
C943 C939 1.400 . S
C943 C942 1.385 . S
C944 C942 1.478 . S
C944 C946 1.381 . S
C944 C950 1.383 . S
C945 C941 1.495 . S
C945 H951 0.959 . S
C945 H952 0.961 . S
C945 H953 0.960 . S
C946 C944 1.381 . S
C946 C947 1.394 . S
C946 H954 0.930 . S
C947 C946 1.394 . S
C947 C948 1.383 . S
C947 H955 0.929 . S
C948 C947 1.383 . S
C948 C949 1.377 . S
C949 H933 0.930 . S
C949 C948 1.377 . S
C949 C950 1.379 . S
C950 H934 0.931 . S
C950 C944 1.383 . S
C950 C949 1.379 . S
H951 C945 0.959 . S
H952 C945 0.961 . S
H953 C945 0.960 . S
H954 C946 0.930 . S
H955 C947 0.929 . S
H956 C964 0.929 . S
H957 C966 0.930 . S
H958 C968 0.930 . S
H959 C971 0.929 . S
H960 C974 0.930 . S
H961 C976 0.960 . S
H962 C976 0.960 . S
H963 C976 0.960 . S
C964 H956 0.929 . S
C964 C965 1.377 . S
C964 C966 1.384 . S
C965 C964 1.377 . S
C965 C971 1.390 . S
C966 H957 0.930 . S
C966 C964 1.384 . S
C966 C967 1.372 . S
C967 C966 1.372 . S
C967 C968 1.400 . S
C967 C972 1.490 . S
C968 H958 0.930 . S
C968 C967 1.400 . S
C968 C971 1.386 . S
H969 C985 0.930 . S
H970 C986 0.931 . S
C971 H959 0.929 . S
C971 C965 1.390 . S
C971 C968 1.386 . S
C972 C967 1.490 . S
C972 C974 1.395 . S
C972 C975 1.403 . S
H973 C979 0.930 . S
C974 H960 0.930 . S
C974 C972 1.395 . S
C974 C977 1.403 . S
C975 C972 1.403 . S
C975 C976 1.524 . S
C975 C979 1.400 . S
C976 H961 0.960 . S
C976 H962 0.960 . S
C976 H963 0.960 . S
C976 C975 1.524 . S
C977 C974 1.403 . S
C977 C978 1.392 . S
C977 C981 1.495 . S
C978 C977 1.392 . S
C978 C979 1.385 . S
C978 C980 1.478 . S
C979 H973 0.930 . S
C979 C975 1.400 . S
C979 C978 1.385 . S
C980 C978 1.478 . S
C980 C982 1.381 . S
C980 C986 1.383 . S
C981 C977 1.495 . S
C981 H987 0.959 . S
C981 H988 0.961 . S
C981 H989 0.960 . S
C982 C980 1.381 . S
C982 C983 1.394 . S
C982 H990 0.930 . S
C983 C982 1.394 . S
C983 C984 1.383 . S
C983 H991 0.929 . S
C984 C983 1.383 . S
C984 C985 1.377 . S
C985 H969 0.930 . S
C985 C984 1.377 . S
C985 C986 1.379 . S
C986 H970 0.931 . S
C986 C980 1.383 . S
C986 C985 1.379 . S
H987 C981 0.959 . S
H988 C981 0.961 . S
H989 C981 0.960 . S
H990 C982 0.930 . S
H991 C983 0.929 . S
H992 C1000 0.929 . S
H993 C1002 0.930 . S
H994 C1004 0.930 . S
H995 C1007 0.929 . S
H996 C1010 0.930 . S
H997 C1012 0.960 1_554 S
H998 C1012 0.960 . S
H999 C1012 0.960 . S
C1000 H992 0.929 . S
C1000 C1001 1.377 . S
C1000 C1002 1.384 . S
C1001 C1000 1.377 . S
C1001 C1007 1.390 . S
C1002 H993 0.930 . S
C1002 C1000 1.384 . S
C1002 C1003 1.372 . S
C1003 C1002 1.372 . S
C1003 C1004 1.400 . S
C1003 C1008 1.490 . S
C1004 H994 0.930 . S
C1004 C1003 1.400 . S
C1004 C1007 1.386 . S
H1005 C1021 0.930 . S
H1006 C1022 0.931 . S
C1007 H995 0.929 . S
C1007 C1001 1.390 . S
C1007 C1004 1.386 . S
C1008 C1003 1.490 . S
C1008 C1010 1.395 . S
C1008 C1011 1.403 . S
H1009 C1015 0.930 . S
C1010 H996 0.930 . S
C1010 C1008 1.395 . S
C1010 C1013 1.403 . S
C1011 C1008 1.403 . S
C1011 C1012 1.524 . S
C1011 C1015 1.400 . S
C1012 H997 0.960 1_556 S
C1012 H998 0.960 . S
C1012 H999 0.960 . S
C1012 C1011 1.524 . S
C1013 C1010 1.403 . S
C1013 C1014 1.392 . S
C1013 C1017 1.495 . S
C1014 C1013 1.392 . S
C1014 C1015 1.385 . S
C1014 C1016 1.478 . S
C1015 H1009 0.930 . S
C1015 C1011 1.400 . S
C1015 C1014 1.385 . S
C1016 C1014 1.478 . S
C1016 C1018 1.381 . S
C1016 C1022 1.383 . S
C1017 C1013 1.495 . S
C1017 H1023 0.959 . S
C1017 H1024 0.961 . S
C1017 H1025 0.960 . S
C1018 C1016 1.381 . S
C1018 C1019 1.394 . S
C1018 H1026 0.930 . S
C1019 C1018 1.394 . S
C1019 C1020 1.383 . S
C1019 H1027 0.929 . S
C1020 C1019 1.383 . S
C1020 C1021 1.377 . S
C1021 H1005 0.930 . S
C1021 C1020 1.377 . S
C1021 C1022 1.379 . S
C1022 H1006 0.931 . S
C1022 C1016 1.383 . S
C1022 C1021 1.379 . S
H1023 C1017 0.959 . S
H1024 C1017 0.961 . S
H1025 C1017 0.960 . S
H1026 C1018 0.930 . S
H1027 C1019 0.929 . S
H1028 C1036 0.929 . S
H1029 C1038 0.930 . S
H1030 C1040 0.930 . S
H1031 C1043 0.929 . S
H1032 C1046 0.930 . S
H1033 C1048 0.960 . S
H1034 C1048 0.960 . S
H1035 C1048 0.960 . S
C1036 H1028 0.929 . S
C1036 C1037 1.377 . S
C1036 C1038 1.384 . S
C1037 C1036 1.377 . S
C1037 C1043 1.390 . S
C1038 H1029 0.930 . S
C1038 C1036 1.384 . S
C1038 C1039 1.372 . S
C1039 C1038 1.372 . S
C1039 C1040 1.400 . S
C1039 C1044 1.490 . S
C1040 H1030 0.930 . S
C1040 C1039 1.400 . S
C1040 C1043 1.386 . S
H1041 C1057 0.930 . S
H1042 C1058 0.931 . S
C1043 H1031 0.929 . S
C1043 C1037 1.390 . S
C1043 C1040 1.386 . S
C1044 C1039 1.490 . S
C1044 C1046 1.395 . S
C1044 C1047 1.403 . S
H1045 C1051 0.930 . S
C1046 H1032 0.930 . S
C1046 C1044 1.395 . S
C1046 C1049 1.403 . S
C1047 C1044 1.403 . S
C1047 C1048 1.524 . S
C1047 C1051 1.400 . S
C1048 H1033 0.960 . S
C1048 H1034 0.960 . S
C1048 H1035 0.960 . S
C1048 C1047 1.524 . S
C1049 C1046 1.403 . S
C1049 C1050 1.392 . S
C1049 C1053 1.495 . S
C1050 C1049 1.392 . S
C1050 C1051 1.385 . S
C1050 C1052 1.478 . S
C1051 H1045 0.930 . S
C1051 C1047 1.400 . S
C1051 C1050 1.385 . S
C1052 C1050 1.478 . S
C1052 C1054 1.381 . S
C1052 C1058 1.383 . S
C1053 C1049 1.495 . S
C1053 H1059 0.959 . S
C1053 H1060 0.961 . S
C1053 H1061 0.960 . S
C1054 C1052 1.381 . S
C1054 C1055 1.394 . S
C1054 H1062 0.930 . S
C1055 C1054 1.394 . S
C1055 C1056 1.383 . S
C1055 H1063 0.929 . S
C1056 C1055 1.383 . S
C1056 C1057 1.377 . S
C1057 H1041 0.930 . S
C1057 C1056 1.377 . S
C1057 C1058 1.379 . S
C1058 H1042 0.931 . S
C1058 C1052 1.383 . S
C1058 C1057 1.379 . S
H1059 C1053 0.959 . S
H1060 C1053 0.961 . S
H1061 C1053 0.960 . S
H1062 C1054 0.930 . S
H1063 C1055 0.929 . S
H1064 C1072 0.929 . S
H1065 C1074 0.930 . S
H1066 C1076 0.930 . S
H1067 C1079 0.929 . S
H1068 C1082 0.930 . S
H1069 C1084 0.960 . S
H1070 C1084 0.960 . S
H1071 C1084 0.960 . S
C1072 H1064 0.929 . S
C1072 C1073 1.377 . S
C1072 C1074 1.384 . S
C1073 C1072 1.377 . S
C1073 C1079 1.390 . S
C1074 H1065 0.930 . S
C1074 C1072 1.384 . S
C1074 C1075 1.372 . S
C1075 C1074 1.372 . S
C1075 C1076 1.400 . S
C1075 C1080 1.490 . S
C1076 H1066 0.930 . S
C1076 C1075 1.400 . S
C1076 C1079 1.386 . S
H1077 C1093 0.930 1_556 S
H1078 C1094 0.931 . S
C1079 H1067 0.929 . S
C1079 C1073 1.390 . S
C1079 C1076 1.386 . S
C1080 C1075 1.490 . S
C1080 C1082 1.395 . S
C1080 C1083 1.403 . S
H1081 C1087 0.930 . S
C1082 H1068 0.930 . S
C1082 C1080 1.395 . S
C1082 C1085 1.403 . S
C1083 C1080 1.403 . S
C1083 C1084 1.524 . S
C1083 C1087 1.400 . S
C1084 H1069 0.960 . S
C1084 H1070 0.960 . S
C1084 H1071 0.960 . S
C1084 C1083 1.524 . S
C1085 C1082 1.403 . S
C1085 C1086 1.392 . S
C1085 C1089 1.495 . S
C1086 C1085 1.392 . S
C1086 C1087 1.385 . S
C1086 C1088 1.478 . S
C1087 H1081 0.930 . S
C1087 C1083 1.400 . S
C1087 C1086 1.385 . S
C1088 C1086 1.478 . S
C1088 C1090 1.381 . S
C1088 C1094 1.383 . S
C1089 C1085 1.495 . S
C1089 H1095 0.959 . S
C1089 H1096 0.961 . S
C1089 H1097 0.960 . S
C1090 C1088 1.381 . S
C1090 C1091 1.394 . S
C1090 H1098 0.930 . S
C1091 C1090 1.394 . S
C1091 C1092 1.383 . S
C1091 H1099 0.929 . S
C1092 C1091 1.383 . S
C1092 C1093 1.377 . S
C1093 H1077 0.930 1_554 S
C1093 C1092 1.377 . S
C1093 C1094 1.379 . S
C1094 H1078 0.931 . S
C1094 C1088 1.383 . S
C1094 C1093 1.379 . S
H1095 C1089 0.959 . S
H1096 C1089 0.961 . S
H1097 C1089 0.960 . S
H1098 C1090 0.930 . S
H1099 C1091 0.929 . S
H1100 C1108 0.929 . S
H1101 C1110 0.930 . S
H1102 C1112 0.930 . S
H1103 C1115 0.929 . S
H1104 C1118 0.930 . S
H1105 C1120 0.960 . S
H1106 C1120 0.960 . S
H1107 C1120 0.960 . S
C1108 H1100 0.929 . S
C1108 C1109 1.377 . S
C1108 C1110 1.384 . S
C1109 C1108 1.377 . S
C1109 C1115 1.390 . S
C1110 H1101 0.930 . S
C1110 C1108 1.384 . S
C1110 C1111 1.372 . S
C1111 C1110 1.372 . S
C1111 C1112 1.400 . S
C1111 C1116 1.490 . S
C1112 H1102 0.930 . S
C1112 C1111 1.400 . S
C1112 C1115 1.386 . S
H1113 C1129 0.930 . S
H1114 C1130 0.931 . S
C1115 H1103 0.929 . S
C1115 C1109 1.390 . S
C1115 C1112 1.386 . S
C1116 C1111 1.490 . S
C1116 C1118 1.395 . S
C1116 C1119 1.403 . S
H1117 C1123 0.930 . S
C1118 H1104 0.930 . S
C1118 C1116 1.395 . S
C1118 C1121 1.403 . S
C1119 C1116 1.403 . S
C1119 C1120 1.524 . S
C1119 C1123 1.400 . S
C1120 H1105 0.960 . S
C1120 H1106 0.960 . S
C1120 H1107 0.960 . S
C1120 C1119 1.524 . S
C1121 C1118 1.403 . S
C1121 C1122 1.392 . S
C1121 C1125 1.495 . S
C1122 C1121 1.392 . S
C1122 C1123 1.385 . S
C1122 C1124 1.478 . S
C1123 H1117 0.930 . S
C1123 C1119 1.400 . S
C1123 C1122 1.385 . S
C1124 C1122 1.478 . S
C1124 C1126 1.381 . S
C1124 C1130 1.383 . S
C1125 C1121 1.495 . S
C1125 H1131 0.959 . S
C1125 H1132 0.961 . S
C1125 H1133 0.960 . S
C1126 C1124 1.381 . S
C1126 C1127 1.394 . S
C1126 H1134 0.930 . S
C1127 C1126 1.394 . S
C1127 C1128 1.383 . S
C1127 H1135 0.929 . S
C1128 C1127 1.383 . S
C1128 C1129 1.377 . S
C1129 H1113 0.930 . S
C1129 C1128 1.377 . S
C1129 C1130 1.379 . S
C1130 H1114 0.931 . S
C1130 C1124 1.383 . S
C1130 C1129 1.379 . S
H1131 C1125 0.959 . S
H1132 C1125 0.961 . S
H1133 C1125 0.960 . S
H1134 C1126 0.930 . S
H1135 C1127 0.929 . S
H1136 C1144 0.929 . S
H1137 C1146 0.930 . S
H1138 C1148 0.930 . S
H1139 C1151 0.929 . S
H1140 C1154 0.930 . S
H1141 C1156 0.960 1_554 S
H1142 C1156 0.960 . S
H1143 C1156 0.960 . S
C1144 H1136 0.929 . S
C1144 C1145 1.377 . S
C1144 C1146 1.384 . S
C1145 C1144 1.377 . S
C1145 C1151 1.390 . S
C1146 H1137 0.930 . S
C1146 C1144 1.384 . S
C1146 C1147 1.372 . S
C1147 C1146 1.372 . S
C1147 C1148 1.400 . S
C1147 C1152 1.490 . S
C1148 H1138 0.930 . S
C1148 C1147 1.400 . S
C1148 C1151 1.386 . S
H1149 C1165 0.930 1_554 S
H1150 C1166 0.931 . S
C1151 H1139 0.929 . S
C1151 C1145 1.390 . S
C1151 C1148 1.386 . S
C1152 C1147 1.490 . S
C1152 C1154 1.395 . S
C1152 C1155 1.403 . S
H1153 C1159 0.930 . S
C1154 H1140 0.930 . S
C1154 C1152 1.395 . S
C1154 C1157 1.403 . S
C1155 C1152 1.403 . S
C1155 C1156 1.524 . S
C1155 C1159 1.400 . S
C1156 H1141 0.960 1_556 S
C1156 H1142 0.960 . S
C1156 H1143 0.960 . S
C1156 C1155 1.524 . S
C1157 C1154 1.403 . S
C1157 C1158 1.392 . S
C1157 C1161 1.495 . S
C1158 C1157 1.392 . S
C1158 C1159 1.385 . S
C1158 C1160 1.478 . S
C1159 H1153 0.930 . S
C1159 C1155 1.400 . S
C1159 C1158 1.385 . S
C1160 C1158 1.478 . S
C1160 C1162 1.381 . S
C1160 C1166 1.383 . S
C1161 C1157 1.495 . S
C1161 H1167 0.959 . S
C1161 H1168 0.961 . S
C1161 H1169 0.960 . S
C1162 C1160 1.381 . S
C1162 C1163 1.394 . S
C1162 H1170 0.930 . S
C1163 C1162 1.394 . S
C1163 C1164 1.383 . S
C1163 H1171 0.929 . S
C1164 C1163 1.383 . S
C1164 C1165 1.377 . S
C1165 H1149 0.930 1_556 S
C1165 C1164 1.377 . S
C1165 C1166 1.379 . S
C1166 H1150 0.931 . S
C1166 C1160 1.383 . S
C1166 C1165 1.379 . S
H1167 C1161 0.959 . S
H1168 C1161 0.961 . S
H1169 C1161 0.960 . S
H1170 C1162 0.930 . S
H1171 C1163 0.929 . S
H1172 C1180 0.929 . S
H1173 C1182 0.930 . S
H1174 C1184 0.930 . S
H1175 C1187 0.929 . S
H1176 C1190 0.930 . S
H1177 C1192 0.960 . S
H1178 C1192 0.960 . S
H1179 C1192 0.960 . S
C1180 H1172 0.929 . S
C1180 C1181 1.377 . S
C1180 C1182 1.384 . S
C1181 C1180 1.377 . S
C1181 C1187 1.390 . S
C1182 H1173 0.930 . S
C1182 C1180 1.384 . S
C1182 C1183 1.372 . S
C1183 C1182 1.372 . S
C1183 C1184 1.400 . S
C1183 C1188 1.490 . S
C1184 H1174 0.930 . S
C1184 C1183 1.400 . S
C1184 C1187 1.386 . S
H1185 C1201 0.930 . S
H1186 C1202 0.931 . S
C1187 H1175 0.929 . S
C1187 C1181 1.390 . S
C1187 C1184 1.386 . S
C1188 C1183 1.490 . S
C1188 C1190 1.395 . S
C1188 C1191 1.403 . S
H1189 C1195 0.930 . S
C1190 H1176 0.930 . S
C1190 C1188 1.395 . S
C1190 C1193 1.403 . S
C1191 C1188 1.403 . S
C1191 C1192 1.524 . S
C1191 C1195 1.400 . S
C1192 H1177 0.960 . S
C1192 H1178 0.960 . S
C1192 H1179 0.960 . S
C1192 C1191 1.524 . S
C1193 C1190 1.403 . S
C1193 C1194 1.392 . S
C1193 C1197 1.495 . S
C1194 C1193 1.392 . S
C1194 C1195 1.385 . S
C1194 C1196 1.478 . S
C1195 H1189 0.930 . S
C1195 C1191 1.400 . S
C1195 C1194 1.385 . S
C1196 C1194 1.478 . S
C1196 C1198 1.381 . S
C1196 C1202 1.383 . S
C1197 C1193 1.495 . S
C1197 H1203 0.959 . S
C1197 H1204 0.961 . S
C1197 H1205 0.960 . S
C1198 C1196 1.381 . S
C1198 C1199 1.394 . S
C1198 H1206 0.930 . S
C1199 C1198 1.394 . S
C1199 C1200 1.383 . S
C1199 H1207 0.929 . S
C1200 C1199 1.383 . S
C1200 C1201 1.377 . S
C1201 H1185 0.930 . S
C1201 C1200 1.377 . S
C1201 C1202 1.379 . S
C1202 H1186 0.931 . S
C1202 C1196 1.383 . S
C1202 C1201 1.379 . S
H1203 C1197 0.959 . S
H1204 C1197 0.961 . S
H1205 C1197 0.960 . S
H1206 C1198 0.930 . S
H1207 C1199 0.929 . S
H1208 C1216 0.929 . S
H1209 C1218 0.930 . S
H1210 C1220 0.930 . S
H1211 C1223 0.929 . S
H1212 C1226 0.930 . S
H1213 C1228 0.960 . S
H1214 C1228 0.960 . S
H1215 C1228 0.960 . S
C1216 H1208 0.929 . S
C1216 C1217 1.377 . S
C1216 C1218 1.384 . S
C1217 C1216 1.377 . S
C1217 C1223 1.390 . S
C1218 H1209 0.930 . S
C1218 C1216 1.384 . S
C1218 C1219 1.372 . S
C1219 C1218 1.372 . S
C1219 C1220 1.400 . S
C1219 C1224 1.490 . S
C1220 H1210 0.930 . S
C1220 C1219 1.400 . S
C1220 C1223 1.386 . S
H1221 C1237 0.930 . S
H1222 C1238 0.931 . S
C1223 H1211 0.929 . S
C1223 C1217 1.390 . S
C1223 C1220 1.386 . S
C1224 C1219 1.490 . S
C1224 C1226 1.395 . S
C1224 C1227 1.403 . S
H1225 C1231 0.930 . S
C1226 H1212 0.930 . S
C1226 C1224 1.395 . S
C1226 C1229 1.403 . S
C1227 C1224 1.403 . S
C1227 C1228 1.524 . S
C1227 C1231 1.400 . S
C1228 H1213 0.960 . S
C1228 H1214 0.960 . S
C1228 H1215 0.960 . S
C1228 C1227 1.524 . S
C1229 C1226 1.403 . S
C1229 C1230 1.392 . S
C1229 C1233 1.495 . S
C1230 C1229 1.392 . S
C1230 C1231 1.385 . S
C1230 C1232 1.478 . S
C1231 H1225 0.930 . S
C1231 C1227 1.400 . S
C1231 C1230 1.385 . S
C1232 C1230 1.478 . S
C1232 C1234 1.381 . S
C1232 C1238 1.383 . S
C1233 C1229 1.495 . S
C1233 H1239 0.959 . S
C1233 H1240 0.961 . S
C1233 H1241 0.960 . S
C1234 C1232 1.381 . S
C1234 C1235 1.394 . S
C1234 H1242 0.930 . S
C1235 C1234 1.394 . S
C1235 C1236 1.383 . S
C1235 H1243 0.929 . S
C1236 C1235 1.383 . S
C1236 C1237 1.377 . S
C1237 H1221 0.930 . S
C1237 C1236 1.377 . S
C1237 C1238 1.379 . S
C1238 H1222 0.931 . S
C1238 C1232 1.383 . S
C1238 C1237 1.379 . S
H1239 C1233 0.959 . S
H1240 C1233 0.961 . S
H1241 C1233 0.960 . S
H1242 C1234 0.930 . S
H1243 C1235 0.929 . S
H1244 C1252 0.929 . S
H1245 C1254 0.930 . S
H1246 C1256 0.930 . S
H1247 C1259 0.929 . S
H1248 C1262 0.930 . S
H1249 C1264 0.960 . S
H1250 C1264 0.960 . S
H1251 C1264 0.960 . S
C1252 H1244 0.929 . S
C1252 C1253 1.377 . S
C1252 C1254 1.384 . S
C1253 C1252 1.377 . S
C1253 C1259 1.390 . S
C1254 H1245 0.930 . S
C1254 C1252 1.384 . S
C1254 C1255 1.372 . S
C1255 C1254 1.372 . S
C1255 C1256 1.400 . S
C1255 C1260 1.490 . S
C1256 H1246 0.930 . S
C1256 C1255 1.400 . S
C1256 C1259 1.386 . S
H1257 C1273 0.930 . S
H1258 C1274 0.931 . S
C1259 H1247 0.929 . S
C1259 C1253 1.390 . S
C1259 C1256 1.386 . S
C1260 C1255 1.490 . S
C1260 C1262 1.395 . S
C1260 C1263 1.403 . S
H1261 C1267 0.930 . S
C1262 H1248 0.930 . S
C1262 C1260 1.395 . S
C1262 C1265 1.403 . S
C1263 C1260 1.403 . S
C1263 C1264 1.524 . S
C1263 C1267 1.400 . S
C1264 H1249 0.960 . S
C1264 H1250 0.960 . S
C1264 H1251 0.960 . S
C1264 C1263 1.524 . S
C1265 C1262 1.403 . S
C1265 C1266 1.392 . S
C1265 C1269 1.495 . S
C1266 C1265 1.392 . S
C1266 C1267 1.385 . S
C1266 C1268 1.478 . S
C1267 H1261 0.930 . S
C1267 C1263 1.400 . S
C1267 C1266 1.385 . S
C1268 C1266 1.478 . S
C1268 C1270 1.381 . S
C1268 C1274 1.383 . S
C1269 C1265 1.495 . S
C1269 H1275 0.959 . S
C1269 H1276 0.961 . S
C1269 H1277 0.960 . S
C1270 C1268 1.381 . S
C1270 C1271 1.394 . S
C1270 H1278 0.930 . S
C1271 C1270 1.394 . S
C1271 C1272 1.383 . S
C1271 H1279 0.929 . S
C1272 C1271 1.383 . S
C1272 C1273 1.377 . S
C1273 H1257 0.930 . S
C1273 C1272 1.377 . S
C1273 C1274 1.379 . S
C1274 H1258 0.931 . S
C1274 C1268 1.383 . S
C1274 C1273 1.379 . S
H1275 C1269 0.959 . S
H1276 C1269 0.961 . S
H1277 C1269 0.960 . S
H1278 C1270 0.930 . S
H1279 C1271 0.929 . S
C425 C29 2.913 . S
C444 C275 2.959 . S
C461 C49 2.187 . S
C480 C306 2.342 . S
C516 C345 1.280 . S
C497 C93 1.291 . S
C533 C119 0.406 . S
C552 C382 0.400 . S
C588 C305 2.816 . S
C569 C17 2.842 . S
C624 C262 1.571 . S
C605 C61 1.501 . S
C660 C394 1.328 . S
C641 C81 1.313 . S
C696 C351 0.995 . S
C677 C125 0.965 . S
C713 C23 2.191 . S
C732 C395 2.239 . S
C768 C311 1.245 . S
C749 C87 1.209 . S
C785 C113 0.606 . S
C804 C274 0.599 . S
C821 C55 2.389 . S
C840 C346 2.522 . S
C876 C266 2.891 . S
C857 C157 2.894 . S
C893 C189 2.406 . S
C912 C315 2.409 . S
C929 C221 1.321 . S
C948 C354 1.277 . S
C965 C253 0.446 . S
C984 C391 0.408 . S
C1001 C145 2.941 . S
C1020 C314 2.854 . S
C1056 C271 1.515 . S
C1037 C183 1.518 . S
C1092 C385 1.329 . S
C1073 C209 1.392 . S
C1128 C342 0.884 . S
C1109 C247 0.920 . S
C1145 C151 2.252 . S
C1164 C386 2.253 . S
C1200 C302 1.221 . S
C1181 C215 1.216 . S
C1236 C265 0.670 . S
C1217 C241 0.570 . S
C1253 C177 2.563 . S
C1272 C355 2.534 . S
