# Generated by pormake.
# Topology nom, (4,4)-cn, num edge types: 1
# Building blocks:
#     Node 0, Type 0, BuildingBlock: NAWXER_clean_linker_0, # of connection points: 4
#     Node 1, Type 0, BuildingBlock: NAWXER_clean_linker_0, # of connection points: 4
#     Node 2, Type 0, BuildingBlock: NAWXER_clean_linker_0, # of connection points: 4
#     Node 3, Type 0, BuildingBlock: NAWXER_clean_linker_0, # of connection points: 4
#     Node 4, Type 0, BuildingBlock: NAWXER_clean_linker_0, # of connection points: 4
#     Node 5, Type 0, BuildingBlock: NAWXER_clean_linker_0, # of connection points: 4
#     Node 6, Type 1, BuildingBlock: UXUYUI_clean_sbu_0, # of connection points: 4
#     Node 7, Type 1, BuildingBlock: UXUYUI_clean_sbu_0, # of connection points: 4
#     Node 8, Type 1, BuildingBlock: UXUYUI_clean_sbu_0, # of connection points: 4
#     Node 9, Type 1, BuildingBlock: UXUYUI_clean_sbu_0, # of connection points: 4
#     Node 10, Type 1, BuildingBlock: UXUYUI_clean_sbu_0, # of connection points: 4
#     Node 11, Type 1, BuildingBlock: UXUYUI_clean_sbu_0, # of connection points: 4
#     Edge 12, Type (0, 1), BuildingBlock: CIFDUS_clean_linker_0, # of connection points: 2
#     Edge 13, Type (0, 1), BuildingBlock: CIFDUS_clean_linker_0, # of connection points: 2
#     Edge 14, Type (0, 1), BuildingBlock: CIFDUS_clean_linker_0, # of connection points: 2
#     Edge 15, Type (0, 1), BuildingBlock: CIFDUS_clean_linker_0, # of connection points: 2
#     Edge 16, Type (0, 1), BuildingBlock: CIFDUS_clean_linker_0, # of connection points: 2
#     Edge 17, Type (0, 1), BuildingBlock: CIFDUS_clean_linker_0, # of connection points: 2
#     Edge 18, Type (0, 1), BuildingBlock: CIFDUS_clean_linker_0, # of connection points: 2
#     Edge 19, Type (0, 1), BuildingBlock: CIFDUS_clean_linker_0, # of connection points: 2
#     Edge 20, Type (0, 1), BuildingBlock: CIFDUS_clean_linker_0, # of connection points: 2
#     Edge 21, Type (0, 1), BuildingBlock: CIFDUS_clean_linker_0, # of connection points: 2
#     Edge 22, Type (0, 1), BuildingBlock: CIFDUS_clean_linker_0, # of connection points: 2
#     Edge 23, Type (0, 1), BuildingBlock: CIFDUS_clean_linker_0, # of connection points: 2
#     Edge 24, Type (0, 1), BuildingBlock: CIFDUS_clean_linker_0, # of connection points: 2
#     Edge 25, Type (0, 1), BuildingBlock: CIFDUS_clean_linker_0, # of connection points: 2
#     Edge 26, Type (0, 1), BuildingBlock: CIFDUS_clean_linker_0, # of connection points: 2
#     Edge 27, Type (0, 1), BuildingBlock: CIFDUS_clean_linker_0, # of connection points: 2
#     Edge 28, Type (0, 1), BuildingBlock: CIFDUS_clean_linker_0, # of connection points: 2
#     Edge 29, Type (0, 1), BuildingBlock: CIFDUS_clean_linker_0, # of connection points: 2
#     Edge 30, Type (0, 1), BuildingBlock: CIFDUS_clean_linker_0, # of connection points: 2
#     Edge 31, Type (0, 1), BuildingBlock: CIFDUS_clean_linker_0, # of connection points: 2
#     Edge 32, Type (0, 1), BuildingBlock: CIFDUS_clean_linker_0, # of connection points: 2
#     Edge 33, Type (0, 1), BuildingBlock: CIFDUS_clean_linker_0, # of connection points: 2
#     Edge 34, Type (0, 1), BuildingBlock: CIFDUS_clean_linker_0, # of connection points: 2
#     Edge 35, Type (0, 1), BuildingBlock: CIFDUS_clean_linker_0, # of connection points: 2
# Relax obj value: 0.041
# Max RMSD: 0.144
# Mean RMSD: 0.123
data_MOF--net-nom--node1-UXUYUI_clean_sbu_0--node2-NAWXER_clean_linker_0--edge1-CIFDUS_clean_linker_0
_symmetry_space_group_name_H-M    P1
_symmetry_Int_Tables_number       1
_symmetry_cell_setting            triclinic
loop_
_symmetry_equiv_pos_as_xyz
'x, y, z'
_cell_length_a     56.89035
_cell_length_b     56.886591
_cell_length_c     63.171232
_cell_angle_alpha  90.010254
_cell_angle_beta   90.008102
_cell_angle_gamma 120.02335
loop_
_atom_site_label
_atom_site_type_symbol
_atom_site_fract_x
_atom_site_fract_y
_atom_site_fract_z
_atom_type_partial_charge
C0 C 0.92547 0.50314 0.34474 0.0
C1 C 0.91369 0.48304 0.36049 0.0
C2 C 0.95171 0.5118 0.33748 0.0
C3 C 0.96683 0.50061 0.34579 0.0
C4 C 0.92895 0.47186 0.36879 0.0
C5 C 0.95537 0.48078 0.36165 0.0
C6 C 0.99522 0.51114 0.33896 0.0
C7 C 0.94298 0.464 0.2844 0.0
C8 C 0.94661 0.47867 0.26563 0.0
C9 C 0.96131 0.47552 0.30116 0.0
C10 C 0.98329 0.50224 0.29974 0.0
C11 C 0.96896 0.5051 0.26397 0.0
C12 C 0.98711 0.51676 0.28086 0.0
C13 C 0.00302 0.51464 0.31742 0.0
C14 C 0.12573 0.57079 0.32188 0.0
C15 C 0.13227 0.59316 0.30864 0.0
C16 C 0.09882 0.55319 0.32791 0.0
C17 C 0.07801 0.55774 0.32093 0.0
C18 C 0.1112 0.59714 0.30125 0.0
C19 C 0.08436 0.57952 0.30723 0.0
C20 C 0.04956 0.54028 0.32782 0.0
C21 C 0.09738 0.58297 0.38672 0.0
C22 C 0.09682 0.56489 0.40219 0.0
C23 C 0.07975 0.57336 0.36938 0.0
C24 C 0.06133 0.54547 0.3671 0.0
C25 C 0.07828 0.53699 0.39986 0.0
C26 C 0.06059 0.52743 0.38257 0.0
C27 C 0.04178 0.535 0.34932 0.0
H28 H 0.9147 0.51275 0.33835 0.0
H29 H 0.96043 0.52775 0.32568 0.0
H30 H 0.92047 0.45616 0.38077 0.0
H31 H 0.96683 0.47209 0.36841 0.0
H32 H 0.92624 0.4434 0.28596 0.0
H33 H 0.95842 0.46333 0.31512 0.0
H34 H 0.9722 0.51692 0.24972 0.0
H35 H 0.00402 0.53726 0.27921 0.0
H36 H 0.14138 0.56682 0.32753 0.0
H37 H 0.0943 0.53611 0.33809 0.0
H38 H 0.1155 0.61431 0.29127 0.0
H39 H 0.06859 0.58335 0.30161 0.0
H40 H 0.11149 0.60456 0.38802 0.0
H41 H 0.08028 0.58775 0.35789 0.0
H42 H 0.07704 0.5226 0.41166 0.0
H43 H 0.04629 0.50587 0.38125 0.0
N44 N 0.01487 0.52087 0.35406 0.0
N45 N 0.0299 0.52963 0.31271 0.0
C46 C 0.43986 0.92626 0.50949 0.0
C47 C 0.4513 0.91393 0.52173 0.0
C48 C 0.4558 0.95304 0.50266 0.0
C49 C 0.48339 0.96805 0.50814 0.0
C50 C 0.47898 0.92884 0.52704 0.0
C51 C 0.49484 0.95588 0.52054 0.0
C52 C 0.49964 0.99685 0.50186 0.0
C53 C 0.49241 0.94987 0.44273 0.0
C54 C 0.47716 0.95259 0.42635 0.0
C55 C 0.49971 0.96656 0.4606 0.0
C56 C 0.49189 0.98629 0.46253 0.0
C57 C 0.46914 0.97221 0.42846 0.0
C58 C 0.47662 0.98902 0.44628 0.0
C59 C 0.5012 0.00536 0.48067 0.0
C60 C 0.56951 0.12785 0.48716 0.0
C61 C 0.55415 0.13475 0.47377 0.0
C62 C 0.55983 0.10081 0.49295 0.0
C63 C 0.53432 0.08027 0.48584 0.0
C64 C 0.52903 0.11407 0.46617 0.0
C65 C 0.51926 0.08712 0.47213 0.0
C66 C 0.52319 0.05151 0.49207 0.0
C67 C 0.53309 0.09801 0.5522 0.0
C68 C 0.55343 0.09895 0.56547 0.0
C69 C 0.52291 0.07974 0.53529 0.0
C70 C 0.5329 0.06208 0.53126 0.0
C71 C 0.56302 0.08083 0.56155 0.0
C72 C 0.55268 0.06244 0.54472 0.0
C73 C 0.52265 0.04302 0.5132 0.0
H74 H 0.41859 0.91512 0.50516 0.0
H75 H 0.44646 0.96221 0.49341 0.0
H76 H 0.48816 0.91975 0.53657 0.0
H77 H 0.51603 0.96725 0.52508 0.0
H78 H 0.49942 0.93539 0.44148 0.0
H79 H 0.51217 0.96456 0.47262 0.0
H80 H 0.45706 0.97463 0.41633 0.0
H81 H 0.47046 0.00418 0.44737 0.0
H82 H 0.58916 0.14334 0.49295 0.0
H83 H 0.57233 0.09599 0.5029 0.0
H84 H 0.51667 0.1188 0.45595 0.0
H85 H 0.49963 0.07163 0.46629 0.0
H86 H 0.52478 0.11121 0.555 0.0
H87 H 0.5072 0.07937 0.52537 0.0
H88 H 0.57886 0.08115 0.57126 0.0
H89 H 0.56055 0.04887 0.54191 0.0
N90 N 0.51077 0.01598 0.51731 0.0
N91 N 0.51256 0.03233 0.47663 0.0
C92 C 0.57184 0.49584 0.60628 0.0
C93 C 0.55404 0.48371 0.58913 0.0
C94 C 0.56302 0.50267 0.62471 0.0
C95 C 0.53606 0.49705 0.62655 0.0
C96 C 0.5271 0.47813 0.59096 0.0
C97 C 0.51824 0.48478 0.60946 0.0
C98 C 0.52694 0.50596 0.64538 0.0
C99 C 0.54448 0.44325 0.67169 0.0
C100 C 0.56639 0.45302 0.6859 0.0
C101 C 0.53455 0.46 0.66493 0.0
C102 C 0.54635 0.4869 0.6722 0.0
C103 C 0.57836 0.48001 0.69303 0.0
C104 C 0.56823 0.49671 0.6864 0.0
C105 C 0.53441 0.5039 0.66635 0.0
C106 C 0.47356 0.54262 0.72017 0.0
C107 C 0.49454 0.56174 0.73317 0.0
C108 C 0.47948 0.53176 0.70245 0.0
C109 C 0.5065 0.53992 0.6973 0.0
C110 C 0.52157 0.56966 0.728 0.0
C111 C 0.52745 0.55871 0.71034 0.0
C112 C 0.51315 0.52833 0.67884 0.0
C113 C 0.47603 0.57658 0.65321 0.0
C114 C 0.45162 0.56027 0.6422 0.0
C115 C 0.49326 0.56653 0.65842 0.0
C116 C 0.48632 0.53994 0.65281 0.0
C117 C 0.44498 0.53377 0.63644 0.0
C118 C 0.46224 0.52381 0.64155 0.0
C119 C 0.50405 0.52869 0.6581 0.0
H120 H 0.59285 0.50084 0.60519 0.0
H121 H 0.57755 0.51305 0.63727 0.0
H122 H 0.51285 0.46859 0.57809 0.0
H123 H 0.49742 0.48044 0.61036 0.0
H124 H 0.53495 0.42259 0.66585 0.0
H125 H 0.5172 0.45171 0.65439 0.0
H126 H 0.59509 0.48797 0.70415 0.0
H127 H 0.5774 0.51727 0.69242 0.0
H128 H 0.4525 0.53561 0.72391 0.0
H129 H 0.46293 0.51674 0.69293 0.0
H130 H 0.53826 0.58454 0.7375 0.0
H131 H 0.54843 0.56516 0.70671 0.0
H132 H 0.48199 0.59724 0.65757 0.0
H133 H 0.51207 0.57956 0.66668 0.0
H134 H 0.42619 0.52049 0.62825 0.0
H135 H 0.45654 0.50326 0.63703 0.0
N136 N 0.51155 0.51777 0.64217 0.0
N137 N 0.52776 0.51571 0.6822 0.0
C138 C 0.9214 0.44619 0.82597 0.0
C139 C 0.90872 0.45263 0.80971 0.0
C140 C 0.94833 0.46415 0.83142 0.0
C141 C 0.96309 0.48921 0.821 0.0
C142 C 0.92368 0.47743 0.79891 0.0
C143 C 0.95069 0.49553 0.80447 0.0
C144 C 0.99189 0.50793 0.82657 0.0
C145 C 0.9428 0.50492 0.88238 0.0
C146 C 0.94692 0.4937 0.90085 0.0
C147 C 0.96063 0.51185 0.86529 0.0
C148 C 0.98263 0.50712 0.86608 0.0
C149 C 0.9695 0.48991 0.90196 0.0
C150 C 0.9872 0.49659 0.88475 0.0
C151 C 0.00119 0.51369 0.84771 0.0
C152 C 0.12389 0.58032 0.83842 0.0
C153 C 0.13061 0.56647 0.85357 0.0
C154 C 0.09681 0.57059 0.8326 0.0
C155 C 0.07596 0.54645 0.84144 0.0
C156 C 0.10952 0.54289 0.86293 0.0
C157 C 0.0826 0.53302 0.8569 0.0
C158 C 0.04704 0.53501 0.83545 0.0
C159 C 0.09048 0.54192 0.77297 0.0
C160 C 0.08793 0.55953 0.75867 0.0
C161 C 0.07446 0.53294 0.79127 0.0
C162 C 0.05575 0.54154 0.79564 0.0
C163 C 0.06916 0.56807 0.76324 0.0
C164 C 0.05312 0.55899 0.78141 0.0
C165 C 0.03769 0.53154 0.81429 0.0
H166 H 0.91065 0.42696 0.83423 0.0
H167 H 0.95771 0.45826 0.84364 0.0
H168 H 0.91443 0.48295 0.78632 0.0
H169 H 0.96182 0.51456 0.79599 0.0
H170 H 0.92591 0.50859 0.88123 0.0
H171 H 0.95718 0.52093 0.85143 0.0
H172 H 0.97314 0.48123 0.91597 0.0
H173 H 0.00417 0.49303 0.88587 0.0
H174 H 0.13955 0.59853 0.83084 0.0
H175 H 0.09226 0.58199 0.82123 0.0
H176 H 0.11372 0.53207 0.87508 0.0
H177 H 0.06689 0.51461 0.86424 0.0
H178 H 0.10442 0.53461 0.7698 0.0
H179 H 0.0764 0.51901 0.80183 0.0
H180 H 0.06693 0.58194 0.75281 0.0
H181 H 0.0387 0.56576 0.78446 0.0
N182 N 0.01047 0.5178 0.81069 0.0
N183 N 0.02836 0.52631 0.85131 0.0
C184 C 0.50224 0.92031 0.99442 0.0
C185 C 0.48269 0.9086 0.97832 0.0
C186 C 0.51286 0.94749 0.99998 0.0
C187 C 0.50384 0.96355 0.98985 0.0
C188 C 0.47392 0.92473 0.96793 0.0
C189 C 0.48448 0.95199 0.97362 0.0
C190 C 0.51635 0.99283 0.99505 0.0
C191 C 0.47149 0.95016 0.05367 0.0
C192 C 0.4879 0.95266 0.07112 0.0
C193 C 0.48275 0.96628 0.03572 0.0
C194 C 0.51068 0.98521 0.03481 0.0
C195 C 0.51582 0.97175 0.07027 0.0
C196 C 0.52705 0.98804 0.05235 0.0
C197 C 0.52254 0.00279 0.01598 0.0
C198 C 0.58582 0.12522 0.00629 0.0
C199 C 0.60811 0.13032 0.01918 0.0
C200 C 0.56622 0.09855 1.00092 0.0
C201 C 0.56884 0.07657 0.00803 0.0
C202 C 0.61008 0.10812 0.02673 0.0
C203 C 0.59073 0.08165 0.02122 0.0
C204 C 0.54882 0.04801 0.00275 0.0
C205 C 0.57939 0.09101 0.93945 0.0
C206 C 0.5582 0.08744 0.92592 0.0
C207 C 0.57384 0.07517 0.95775 0.0
C208 C 0.54694 0.05596 0.96305 0.0
C209 C 0.53139 0.06795 0.93116 0.0
C210 C 0.52586 0.05237 0.94949 0.0
C211 C 0.54018 0.0383 0.98192 0.0
H212 H 0.50994 0.90865 0.00235 0.0
H213 H 0.52866 0.95609 0.01188 0.0
H214 H 0.45885 0.91625 0.95548 0.0
H215 H 0.47751 0.96406 0.96534 0.0
H216 H 0.44994 0.93555 0.05383 0.0
H217 H 0.46955 0.96414 0.0226 0.0
H218 H 0.5289 0.97436 0.08359 0.0
H219 H 0.54858 0.00271 0.0521 0.0
H220 H 0.58364 0.1418 1.00017 0.0
H221 H 0.54909 0.09516 0.99124 0.0
H222 H 0.62649 0.11113 0.03713 0.0
H223 H 0.59299 0.06503 0.02719 0.0
H224 H 0.60029 0.1056 0.93563 0.0
H225 H 0.59055 0.07774 0.96759 0.0
H226 H 0.51462 0.06488 0.92115 0.0
H227 H 0.50497 0.03751 0.95314 0.0
N228 N 0.52466 0.01102 0.97889 0.0
N229 N 0.53919 0.02986 0.01897 0.0
C230 C 0.51174 0.60815 0.171 0.0
C231 C 0.4943 0.60122 0.18853 0.0
C232 C 0.51884 0.58973 0.16286 0.0
C233 C 0.50836 0.56382 0.17189 0.0
C234 C 0.4838 0.57527 0.19755 0.0
C235 C 0.49092 0.55682 0.18939 0.0
C236 C 0.51759 0.54509 0.16439 0.0
C237 C 0.47062 0.55225 0.11034 0.0
C238 C 0.48499 0.56239 0.09132 0.0
C239 C 0.48194 0.54515 0.12707 0.0
C240 C 0.50816 0.54865 0.12532 0.0
C241 C 0.51098 0.5654 0.08941 0.0
C242 C 0.52242 0.55859 0.10623 0.0
C243 C 0.52017 0.5405 0.14274 0.0
C244 C 0.57342 0.47054 0.14539 0.0
C245 C 0.59293 0.48442 0.1296 0.0
C246 C 0.55677 0.48052 0.15252 0.0
C247 C 0.56012 0.50511 0.14454 0.0
C248 C 0.59542 0.50828 0.12098 0.0
C249 C 0.57926 0.51855 0.12842 0.0
C250 C 0.54386 0.51719 0.15228 0.0
C251 C 0.58295 0.50543 0.21111 0.0
C252 C 0.56357 0.48803 0.22596 0.0
C253 C 0.57526 0.51591 0.19412 0.0
C254 C 0.54799 0.50885 0.19151 0.0
C255 C 0.53637 0.48136 0.22339 0.0
C256 C 0.52872 0.49179 0.20642 0.0
C257 C 0.53925 0.51989 0.17394 0.0
H258 H 0.52001 0.62788 0.16358 0.0
H259 H 0.53301 0.59601 0.14978 0.0
H260 H 0.4706 0.56945 0.21124 0.0
H261 H 0.48295 0.53713 0.19684 0.0
H262 H 0.45036 0.54924 0.11212 0.0
H263 H 0.46996 0.5365 0.14123 0.0
H264 H 0.52259 0.57332 0.07498 0.0
H265 H 0.54254 0.56123 0.10434 0.0
H266 H 0.57091 0.45187 0.15203 0.0
H267 H 0.5414 0.46905 0.16428 0.0
H268 H 0.61036 0.51936 0.10882 0.0
H269 H 0.58209 0.53737 0.12181 0.0
H270 H 0.60414 0.51131 0.21283 0.0
H271 H 0.59059 0.52961 0.1831 0.0
H272 H 0.52088 0.46781 0.23438 0.0
H273 H 0.50761 0.48627 0.20479 0.0
N274 N 0.52656 0.53397 0.17909 0.0
N275 N 0.53377 0.5273 0.1376 0.0
Li276 Li 0.63696 0.4133 0.429 0.0
Li277 Li 0.62887 0.37185 0.41109 0.0
Li278 Li 0.67078 0.41566 0.40416 0.0
Li279 Li 0.6276 0.40779 0.39057 0.0
C280 C 0.67023 0.39738 0.45003 0.0
N281 N 0.69379 0.40255 0.4893 0.0
C282 C 0.65779 0.37661 0.46499 0.0
C283 C 0.69499 0.42049 0.45488 0.0
C284 C 0.66991 0.37969 0.4848 0.0
C285 C 0.7065 0.42281 0.47485 0.0
C286 C 0.57823 0.36764 0.40641 0.0
C287 C 0.55024 0.3332 0.38105 0.0
N288 N 0.52771 0.33116 0.39031 0.0
C289 C 0.55482 0.36518 0.41569 0.0
C290 C 0.57597 0.35151 0.38896 0.0
C291 C 0.52945 0.34662 0.40732 0.0
C292 C 0.6326 0.45066 0.45682 0.0
N293 N 0.62944 0.42542 0.45492 0.0
C294 C 0.61195 0.41416 0.49015 0.0
C295 C 0.61894 0.40711 0.47097 0.0
C296 C 0.61518 0.44013 0.49267 0.0
C297 C 0.62561 0.45851 0.47569 0.0
H298 H 0.6401 0.46456 0.4436 0.0
H299 H 0.61541 0.38678 0.4687 0.0
C300 C 0.62257 0.31997 0.40328 0.0
N301 N 0.61451 0.33422 0.4156 0.0
C302 C 0.61345 0.29266 0.40762 0.0
C303 C 0.58796 0.29534 0.43725 0.0
C304 C 0.59731 0.32248 0.43218 0.0
C305 C 0.59621 0.28016 0.42499 0.0
H306 H 0.63652 0.32997 0.39038 0.0
H307 H 0.59136 0.33443 0.44172 0.0
C308 C 0.67492 0.46683 0.40711 0.0
N309 N 0.71509 0.52079 0.40906 0.0
C310 C 0.6792 0.48412 0.39 0.0
C311 C 0.69077 0.47711 0.42533 0.0
C312 C 0.69969 0.5113 0.39126 0.0
C313 C 0.71105 0.50441 0.42598 0.0
C314 C 0.65821 0.39381 0.36356 0.0
C315 C 0.66782 0.41985 0.35535 0.0
C316 C 0.66077 0.37452 0.35163 0.0
C317 C 0.67988 0.42621 0.33535 0.0
C318 C 0.67296 0.38165 0.33168 0.0
N319 N 0.68219 0.40714 0.32402 0.0
C320 C 0.71996 0.41581 0.40474 0.0
C321 C 0.72227 0.45256 0.38535 0.0
C322 C 0.74648 0.42334 0.39888 0.0
N323 N 0.70838 0.43032 0.39786 0.0
C324 C 0.74872 0.46066 0.37894 0.0
C325 C 0.76101 0.44577 0.38551 0.0
H326 H 0.70828 0.39788 0.41432 0.0
H327 H 0.71259 0.46351 0.37968 0.0
C328 C 0.60772 0.43819 0.37045 0.0
N329 N 0.61062 0.41604 0.36801 0.0
C330 C 0.59806 0.44713 0.35379 0.0
C331 C 0.59383 0.40985 0.33255 0.0
C332 C 0.60343 0.40153 0.34969 0.0
C333 C 0.59138 0.43315 0.33439 0.0
H334 H 0.61365 0.44935 0.3852 0.0
H335 H 0.60581 0.3839 0.34817 0.0
O336 O 0.65866 0.39463 0.43051 0.0
O337 O 0.60316 0.38573 0.4145 0.0
O338 O 0.65502 0.44012 0.40609 0.0
O339 O 0.64643 0.38717 0.38318 0.0
H340 H 0.63886 0.35837 0.4614 0.0
H341 H 0.70541 0.43636 0.44328 0.0
H342 H 0.66035 0.36388 0.49659 0.0
H343 H 0.7256 0.44065 0.47883 0.0
H344 H 0.5482 0.32061 0.36755 0.0
H345 H 0.55625 0.37751 0.42924 0.0
H346 H 0.59383 0.35305 0.3816 0.0
H347 H 0.51115 0.34451 0.41434 0.0
H348 H 0.60337 0.39918 0.50265 0.0
H349 H 0.62831 0.4787 0.47698 0.0
H350 H 0.62045 0.28168 0.39792 0.0
H351 H 0.57448 0.28633 0.45064 0.0
H352 H 0.66697 0.47662 0.37583 0.0
H353 H 0.68721 0.46425 0.43892 0.0
H354 H 0.70335 0.52485 0.37808 0.0
H355 H 0.7235 0.51259 0.43998 0.0
H356 H 0.66597 0.435 0.36431 0.0
H357 H 0.65342 0.35425 0.35768 0.0
H358 H 0.68741 0.44631 0.32884 0.0
H359 H 0.67508 0.36692 0.32228 0.0
H360 H 0.75512 0.41114 0.40408 0.0
H361 H 0.75931 0.47817 0.3687 0.0
H362 H 0.5967 0.46531 0.35584 0.0
H363 H 0.58856 0.39828 0.31797 0.0
Li364 Li 0.24923 0.639 0.60226 0.0
Li365 Li 0.28444 0.6325 0.58512 0.0
Li366 Li 0.28347 0.67479 0.57952 0.0
Li367 Li 0.2499 0.63229 0.56302 0.0
C368 C 0.31187 0.68067 0.6157 0.0
N369 N 0.35843 0.72305 0.63319 0.0
C370 C 0.33694 0.68205 0.61301 0.0
C371 C 0.31054 0.70082 0.62745 0.0
C372 C 0.36022 0.70362 0.62195 0.0
C373 C 0.33429 0.72209 0.6361 0.0
C374 C 0.24377 0.5831 0.59156 0.0
C375 C 0.24928 0.545 0.58236 0.0
N376 N 0.24429 0.53644 0.60282 0.0
C377 C 0.23858 0.57388 0.61248 0.0
C378 C 0.24903 0.5685 0.57634 0.0
C379 C 0.23896 0.55025 0.61786 0.0
C380 C 0.20017 0.61149 0.62518 0.0
N381 N 0.22694 0.63038 0.62671 0.0
C382 C 0.22295 0.63369 0.6641 0.0
C383 C 0.23849 0.6416 0.64561 0.0
C384 C 0.19532 0.61371 0.66319 0.0
C385 C 0.18391 0.60277 0.6433 0.0
H386 H 0.19167 0.60263 0.60994 0.0
H387 H 0.2599 0.6563 0.64641 0.0
C388 C 0.32356 0.61737 0.57405 0.0
N389 N 0.30743 0.61763 0.5898 0.0
C390 C 0.34174 0.60815 0.57803 0.0
C391 C 0.32618 0.59946 0.61431 0.0
C392 C 0.30841 0.60895 0.60965 0.0
C393 C 0.34337 0.59922 0.59844 0.0
H394 H 0.32276 0.62492 0.55852 0.0
H395 H 0.29569 0.60986 0.62196 0.0
C396 C 0.23058 0.67273 0.58371 0.0
N397 N 0.20422 0.70086 0.59399 0.0
C398 C 0.21114 0.67243 0.57 0.0
C399 C 0.23645 0.68717 0.6027 0.0
C400 C 0.19809 0.68684 0.57545 0.0
C401 C 0.22294 0.70129 0.60761 0.0
C402 C 0.29155 0.65263 0.53707 0.0
C403 C 0.2973 0.67584 0.5255 0.0
C404 C 0.2867 0.62907 0.52643 0.0
C405 C 0.29786 0.67501 0.50341 0.0
C406 C 0.28739 0.62904 0.50432 0.0
N407 N 0.2929 0.65181 0.49337 0.0
C408 C 0.33307 0.72294 0.57401 0.0
C409 C 0.29508 0.72899 0.56999 0.0
C410 C 0.35079 0.75025 0.56948 0.0
N411 N 0.30581 0.71294 0.57453 0.0
C412 C 0.31203 0.75636 0.56493 0.0
C413 C 0.34039 0.76743 0.56463 0.0
H414 H 0.3411 0.70956 0.5767 0.0
H415 H 0.27336 0.7205 0.56964 0.0
C416 C 0.21221 0.59104 0.53506 0.0
N417 N 0.22759 0.61821 0.53845 0.0
C418 C 0.19589 0.58123 0.517 0.0
C419 C 0.21162 0.62755 0.50631 0.0
C420 C 0.22745 0.63642 0.52462 0.0
C421 C 0.19542 0.59959 0.50229 0.0
H422 H 0.21241 0.57698 0.54646 0.0
H423 H 0.23972 0.65792 0.52781 0.0
O424 O 0.28879 0.6597 0.607 0.0
O425 O 0.24399 0.60647 0.58607 0.0
O426 O 0.24359 0.65879 0.57855 0.0
O427 O 0.2904 0.65286 0.55869 0.0
H428 H 0.33863 0.66699 0.60381 0.0
H429 H 0.29146 0.70019 0.62987 0.0
H430 H 0.37974 0.70499 0.61985 0.0
H431 H 0.33351 0.73784 0.64514 0.0
H432 H 0.25351 0.5336 0.57077 0.0
H433 H 0.23459 0.58499 0.62449 0.0
H434 H 0.25318 0.57541 0.5601 0.0
H435 H 0.23511 0.54295 0.634 0.0
H436 H 0.23259 0.64303 0.67896 0.0
H437 H 0.16286 0.58703 0.64179 0.0
H438 H 0.35488 0.60872 0.5654 0.0
H439 H 0.32649 0.59247 0.6302 0.0
H440 H 0.20624 0.66122 0.55527 0.0
H441 H 0.25123 0.68739 0.61352 0.0
H442 H 0.18308 0.68687 0.56496 0.0
H443 H 0.22733 0.71258 0.62226 0.0
H444 H 0.30103 0.69423 0.53344 0.0
H445 H 0.28214 0.6109 0.53514 0.0
H446 H 0.30214 0.69278 0.49424 0.0
H447 H 0.28348 0.61089 0.49588 0.0
H448 H 0.37241 0.75769 0.5697 0.0
H449 H 0.30289 0.76844 0.56074 0.0
H450 H 0.18343 0.55951 0.51478 0.0
H451 H 0.21229 0.6425 0.49535 0.0
Li452 Li 0.67254 0.27999 0.75108 0.0
Li453 Li 0.63166 0.24626 0.76868 0.0
Li454 Li 0.63739 0.24507 0.73002 0.0
Li455 Li 0.62956 0.27997 0.74483 0.0
C456 C 0.68051 0.23721 0.75514 0.0
N457 N 0.72611 0.23217 0.75978 0.0
C458 C 0.68483 0.22694 0.77395 0.0
C459 C 0.69929 0.24469 0.73865 0.0
C460 C 0.70803 0.2246 0.77599 0.0
C461 C 0.72224 0.24206 0.74131 0.0
C462 C 0.66418 0.29748 0.79018 0.0
C463 C 0.68433 0.33429 0.81534 0.0
N464 N 0.69359 0.3203 0.82674 0.0
C465 C 0.67384 0.28346 0.80219 0.0
C466 C 0.6694 0.32309 0.79683 0.0
C467 C 0.68868 0.29533 0.82061 0.0
C468 C 0.72211 0.32748 0.74264 0.0
N469 N 0.71062 0.30464 0.75474 0.0
C470 C 0.75192 0.32044 0.77412 0.0
C471 C 0.72505 0.30074 0.77012 0.0
C472 C 0.76412 0.34453 0.76224 0.0
C473 C 0.74904 0.34775 0.74606 0.0
H474 H 0.7101 0.33033 0.73074 0.0
H475 H 0.7156 0.28269 0.77975 0.0
C476 C 0.614 0.19913 0.79289 0.0
N477 N 0.61712 0.22441 0.79341 0.0
C478 C 0.60642 0.18312 0.81111 0.0
C479 C 0.60422 0.21901 0.82987 0.0
C480 C 0.6118 0.23431 0.81125 0.0
C481 C 0.60189 0.19321 0.83006 0.0
H482 H 0.61833 0.19179 0.77845 0.0
H483 H 0.61419 0.2544 0.8112 0.0
C484 C 0.6605 0.2859 0.70281 0.0
N485 N 0.66546 0.28708 0.65926 0.0
C486 C 0.64034 0.28565 0.69 0.0
C487 C 0.68339 0.28721 0.69349 0.0
C488 C 0.64316 0.28612 0.66801 0.0
C489 C 0.68548 0.28767 0.67144 0.0
C490 C 0.58034 0.2335 0.75469 0.0
C491 C 0.55648 0.21086 0.74761 0.0
C492 C 0.57919 0.24947 0.77104 0.0
C493 C 0.53179 0.20452 0.75705 0.0
C494 C 0.55411 0.24245 0.78007 0.0
N495 N 0.53113 0.22031 0.77295 0.0
C496 C 0.64068 0.20733 0.70175 0.0
C497 C 0.60679 0.21871 0.69411 0.0
C498 C 0.63251 0.18961 0.68447 0.0
N499 N 0.62785 0.2215 0.70615 0.0
C500 C 0.59812 0.20143 0.67659 0.0
C501 C 0.61096 0.18651 0.67163 0.0
H502 H 0.65699 0.20946 0.71177 0.0
H503 H 0.59659 0.2298 0.69824 0.0
C504 C 0.62888 0.32899 0.7447 0.0
N505 N 0.61433 0.30238 0.73916 0.0
C506 C 0.61953 0.34674 0.73945 0.0
C507 C 0.58048 0.30938 0.72273 0.0
C508 C 0.5905 0.29231 0.72844 0.0
C509 C 0.59514 0.33709 0.7281 0.0
H510 H 0.64805 0.33653 0.7528 0.0
H511 H 0.57965 0.27118 0.7238 0.0
O512 O 0.65799 0.2398 0.75288 0.0
O513 O 0.64967 0.28626 0.77204 0.0
O514 O 0.65787 0.28498 0.72436 0.0
O515 O 0.60461 0.23988 0.74555 0.0
H516 H 0.67059 0.22106 0.78691 0.0
H517 H 0.69623 0.25256 0.724 0.0
H518 H 0.71168 0.21682 0.79049 0.0
H519 H 0.73699 0.2479 0.7287 0.0
H520 H 0.68854 0.35411 0.82064 0.0
H521 H 0.67013 0.26371 0.79726 0.0
H522 H 0.66198 0.33421 0.78784 0.0
H523 H 0.69634 0.28471 0.82999 0.0
H524 H 0.76293 0.31699 0.78658 0.0
H525 H 0.75761 0.36613 0.73668 0.0
H526 H 0.60509 0.16346 0.81055 0.0
H527 H 0.60049 0.22739 0.84403 0.0
H528 H 0.62254 0.28473 0.69695 0.0
H529 H 0.69945 0.28799 0.70316 0.0
H530 H 0.62759 0.28567 0.65791 0.0
H531 H 0.70303 0.28856 0.66401 0.0
H532 H 0.55706 0.19834 0.73494 0.0
H533 H 0.59741 0.26713 0.77668 0.0
H534 H 0.51315 0.18705 0.75173 0.0
H535 H 0.55292 0.25462 0.79273 0.0
H536 H 0.64298 0.17852 0.68116 0.0
H537 H 0.58114 0.19929 0.66733 0.0
H538 H 0.63139 0.36783 0.74416 0.0
H539 H 0.56187 0.30108 0.71365 0.0
Li540 Li 0.40678 0.63085 0.92763 0.0
Li541 Li 0.41273 0.67271 0.91294 0.0
Li542 Li 0.36961 0.63026 0.90608 0.0
Li543 Li 0.41181 0.63963 0.88907 0.0
C544 C 0.38861 0.6622 0.95246 0.0
N545 N 0.39676 0.69107 0.98958 0.0
C546 C 0.41169 0.6696 0.96479 0.0
C547 C 0.36966 0.66948 0.95905 0.0
C548 C 0.41545 0.68418 0.98349 0.0
C549 C 0.37415 0.68408 0.97785 0.0
C550 C 0.46368 0.68108 0.9147 0.0
C551 C 0.50049 0.72383 0.9023 0.0
N552 N 0.51403 0.72666 0.92072 0.0
C553 C 0.47807 0.6843 0.93345 0.0
C554 C 0.47506 0.70089 0.89893 0.0
C555 C 0.50346 0.70752 0.93621 0.0
C556 C 0.43756 0.61157 0.94791 0.0
N557 N 0.41514 0.61401 0.95025 0.0
C558 C 0.40796 0.59545 0.98518 0.0
C559 C 0.40007 0.60582 0.96827 0.0
C560 C 0.43158 0.59349 0.98349 0.0
C561 C 0.44625 0.60144 0.96441 0.0
H562 H 0.44911 0.6182 0.93337 0.0
H563 H 0.38221 0.60783 0.96968 0.0
C564 C 0.41528 0.72299 0.90719 0.0
N565 N 0.42624 0.71051 0.91854 0.0
C566 C 0.42244 0.74984 0.9116 0.0
C567 C 0.45209 0.75057 0.93929 0.0
C568 C 0.44446 0.7238 0.93428 0.0
C569 C 0.44084 0.76386 0.92803 0.0
H570 H 0.40045 0.71188 0.89502 0.0
H571 H 0.45272 0.71354 0.94332 0.0
C572 C 0.36804 0.5806 0.91201 0.0
N573 N 0.33386 0.52968 0.92858 0.0
C574 C 0.36771 0.55779 0.90344 0.0
C575 C 0.35098 0.57753 0.929 0.0
C576 C 0.35027 0.53221 0.91204 0.0
C577 C 0.33385 0.55162 0.93715 0.0
C578 C 0.39298 0.66477 0.86514 0.0
C579 C 0.37214 0.64635 0.85196 0.0
C580 C 0.41485 0.688 0.85642 0.0
C581 C 0.37383 0.65118 0.83018 0.0
C582 C 0.4158 0.69212 0.83457 0.0
N583 N 0.39546 0.67376 0.822 0.0
C584 C 0.31908 0.62823 0.90818 0.0
C585 C 0.31842 0.59199 0.88919 0.0
C586 C 0.29188 0.61875 0.90315 0.0
N587 N 0.33171 0.61481 0.90119 0.0
C588 C 0.29129 0.58192 0.88363 0.0
C589 C 0.27765 0.59545 0.89049 0.0
H590 H 0.33032 0.64668 0.91723 0.0
H591 H 0.32917 0.58212 0.88334 0.0
C592 C 0.45111 0.64424 0.85826 0.0
N593 N 0.42437 0.6318 0.86353 0.0
C594 C 0.45927 0.63704 0.83964 0.0
C595 C 0.41224 0.60451 0.83228 0.0
C596 C 0.40505 0.6121 0.8511 0.0
C597 C 0.43967 0.61695 0.82637 0.0
H598 H 0.46613 0.65948 0.86859 0.0
H599 H 0.38399 0.60213 0.85595 0.0
O600 O 0.38461 0.648 0.93403 0.0
O601 O 0.43874 0.65852 0.91173 0.0
O602 O 0.38511 0.60575 0.90377 0.0
O603 O 0.39193 0.66014 0.88647 0.0
H604 H 0.42679 0.66455 0.95983 0.0
H605 H 0.35166 0.66392 0.94979 0.0
H606 H 0.4333 0.69014 0.9931 0.0
H607 H 0.35964 0.68984 0.98312 0.0
H608 H 0.50945 0.73938 0.89025 0.0
H609 H 0.46967 0.66919 0.94583 0.0
H610 H 0.46435 0.69861 0.88428 0.0
H611 H 0.51474 0.71035 0.95068 0.0
H612 H 0.39576 0.58917 0.99944 0.0
H613 H 0.46474 0.60064 0.96242 0.0
H614 H 0.41305 0.75923 0.90269 0.0
H615 H 0.46656 0.76072 0.95193 0.0
H616 H 0.38081 0.55987 0.89028 0.0
H617 H 0.35091 0.59493 0.93582 0.0
H618 H 0.3498 0.51438 0.90557 0.0
H619 H 0.32056 0.54894 0.9503 0.0
H620 H 0.35501 0.62833 0.85843 0.0
H621 H 0.43087 0.70275 0.86642 0.0
H622 H 0.35796 0.63695 0.81978 0.0
H623 H 0.43267 0.70995 0.8276 0.0
H624 H 0.28219 0.62971 0.90901 0.0
H625 H 0.28141 0.56422 0.87351 0.0
H626 H 0.48063 0.64712 0.83563 0.0
H627 H 0.39655 0.58861 0.82269 0.0
Li628 Li 0.76638 0.41412 0.08827 0.0
Li629 Li 0.80075 0.40512 0.10163 0.0
Li630 Li 0.80087 0.41608 0.06483 0.0
Li631 Li 0.7659 0.37301 0.07819 0.0
C632 C 0.81197 0.46488 0.08271 0.0
N633 N 0.82393 0.5158 0.06895 0.0
C634 C 0.83334 0.48813 0.09187 0.0
C635 C 0.79662 0.46754 0.06658 0.0
C636 C 0.83908 0.51369 0.08468 0.0
C637 C 0.803 0.49345 0.05983 0.0
C638 C 0.75494 0.38805 0.12709 0.0
C639 C 0.72681 0.37205 0.15829 0.0
N640 N 0.74243 0.39668 0.16758 0.0
C641 C 0.77073 0.41319 0.13696 0.0
C642 C 0.73282 0.36729 0.13784 0.0
C643 C 0.76407 0.41715 0.15742 0.0
C644 C 0.71714 0.41391 0.08751 0.0
N645 N 0.74286 0.42774 0.09523 0.0
C646 C 0.73226 0.45685 0.11529 0.0
C647 C 0.75082 0.4491 0.10865 0.0
C648 C 0.70542 0.44266 0.10782 0.0
C649 C 0.69801 0.42119 0.09351 0.0
H650 H 0.71133 0.39679 0.07708 0.0
H651 H 0.7714 0.45973 0.1146 0.0
C652 C 0.84951 0.43415 0.1229 0.0
N653 N 0.82487 0.41129 0.12465 0.0
C654 C 0.86825 0.44219 0.13939 0.0
C655 C 0.83623 0.40255 0.15909 0.0
C656 C 0.81803 0.39527 0.14215 0.0
C657 C 0.86167 0.42648 0.15793 0.0
H658 H 0.85436 0.44647 0.10878 0.0
H659 H 0.79828 0.37716 0.14315 0.0
C660 C 0.75471 0.38808 0.03942 0.0
N661 N 0.7414 0.36701 0.99895 0.0
C662 C 0.77025 0.37868 0.02923 0.0
C663 C 0.73243 0.3868 0.029 0.0
C664 C 0.76319 0.3681 0.00878 0.0
C665 C 0.72602 0.37606 0.00855 0.0
C666 C 0.81071 0.36663 0.08372 0.0
C667 C 0.83146 0.36388 0.07436 0.0
C668 C 0.79529 0.34901 0.10002 0.0
C669 C 0.83651 0.34358 0.08152 0.0
C670 C 0.80098 0.32899 0.10674 0.0
N671 N 0.8213 0.32671 0.09743 0.0
C672 C 0.84951 0.43529 0.04336 0.0
C673 C 0.81841 0.44382 0.02467 0.0
C674 C 0.8683 0.44636 0.02693 0.0
N675 N 0.82506 0.43395 0.04186 0.0
C676 C 0.83667 0.45513 0.00782 0.0
C677 C 0.86195 0.4563 0.00874 0.0
H678 H 0.85421 0.42727 0.05724 0.0
H679 H 0.79881 0.44252 0.02388 0.0
C680 C 0.71629 0.32425 0.0794 0.0
N681 N 0.74172 0.33597 0.07117 0.0
C682 C 0.69667 0.29804 0.07333 0.0
C683 C 0.72983 0.29644 0.0504 0.0
C684 C 0.74892 0.32253 0.05717 0.0
C685 C 0.70314 0.28386 0.05834 0.0
H686 H 0.71111 0.33552 0.09041 0.0
H687 H 0.76927 0.33234 0.05078 0.0
O688 O 0.80621 0.43977 0.08968 0.0
O689 O 0.7609 0.38359 0.10702 0.0
O690 O 0.7611 0.39851 0.05947 0.0
O691 O 0.8056 0.38641 0.07674 0.0
H692 H 0.84536 0.48644 0.10443 0.0
H693 H 0.77991 0.44987 0.05935 0.0
H694 H 0.85558 0.53185 0.09163 0.0
H695 H 0.7913 0.49579 0.04736 0.0
H696 H 0.70974 0.35616 0.16679 0.0
H697 H 0.78795 0.4295 0.12895 0.0
H698 H 0.72042 0.34769 0.13044 0.0
H699 H 0.77612 0.43651 0.16523 0.0
H700 H 0.73879 0.47368 0.12619 0.0
H701 H 0.67745 0.40962 0.08754 0.0
H702 H 0.88739 0.46097 0.13785 0.0
H703 H 0.83042 0.38965 0.17296 0.0
H704 H 0.78757 0.3795 0.037 0.0
H705 H 0.72022 0.39403 0.03665 0.0
H706 H 0.77503 0.36074 1.00073 0.0
H707 H 0.70881 0.37493 1.0003 0.0
H708 H 0.84351 0.37727 0.06166 0.0
H709 H 0.77905 0.35064 0.10742 0.0
H710 H 0.85252 0.34124 0.07441 0.0
H711 H 0.78921 0.31524 0.11934 0.0
H712 H 0.88732 0.44644 0.02825 0.0
H713 H 0.83103 0.46284 0.99423 0.0
H714 H 0.67661 0.28911 0.08027 0.0
H715 H 0.7358 0.28663 0.0386 0.0
Li716 Li 0.41158 0.79314 0.27049 0.0
Li717 Li 0.36978 0.76132 0.25022 0.0
Li718 Li 0.41049 0.75896 0.24623 0.0
Li719 Li 0.40825 0.79593 0.23054 0.0
C720 C 0.39016 0.73236 0.2815 0.0
N721 N 0.39355 0.68922 0.29797 0.0
C722 C 0.37103 0.7058 0.27578 0.0
C723 C 0.41088 0.73703 0.2957 0.0
C724 C 0.37314 0.68425 0.28425 0.0
C725 C 0.41226 0.71492 0.30384 0.0
C726 C 0.3653 0.80498 0.25559 0.0
C727 C 0.32426 0.80184 0.24191 0.0
N728 N 0.31973 0.80978 0.26106 0.0
C729 C 0.36032 0.81321 0.27511 0.0
C730 C 0.34724 0.79936 0.23881 0.0
C731 C 0.33714 0.81549 0.27756 0.0
C732 C 0.44469 0.83929 0.29543 0.0
N733 N 0.42375 0.81328 0.29594 0.0
C734 C 0.41704 0.81689 0.33286 0.0
C735 C 0.41001 0.80184 0.31412 0.0
C736 C 0.43842 0.84398 0.33286 0.0
C737 C 0.45251 0.85504 0.31382 0.0
H738 H 0.4551 0.84786 0.28066 0.0
H739 H 0.39316 0.78122 0.31393 0.0
C740 C 0.31624 0.72067 0.23902 0.0
N741 N 0.33162 0.73947 0.25382 0.0
C742 C 0.28884 0.70234 0.24296 0.0
C743 C 0.2937 0.72315 0.27726 0.0
C744 C 0.32097 0.741 0.27267 0.0
C745 C 0.27731 0.70321 0.26243 0.0
H746 H 0.32547 0.71919 0.22452 0.0
H747 H 0.3339 0.75561 0.28441 0.0
C748 C 0.46315 0.79971 0.25007 0.0
N749 N 0.51331 0.80343 0.25373 0.0
C750 C 0.47697 0.79904 0.23199 0.0
C751 C 0.47498 0.80254 0.27 0.0
C752 C 0.50225 0.80083 0.23418 0.0
C753 C 0.50034 0.80436 0.27152 0.0
C754 C 0.38699 0.75628 0.20233 0.0
C755 C 0.41056 0.75934 0.19285 0.0
C756 C 0.36549 0.75317 0.18965 0.0
C757 C 0.4123 0.75943 0.17079 0.0
C758 C 0.36801 0.75335 0.16764 0.0
N759 N 0.39117 0.75647 0.15875 0.0
C760 C 0.40487 0.7115 0.22875 0.0
C761 C 0.44344 0.73306 0.25102 0.0
C762 C 0.41075 0.69113 0.22376 0.0
N763 N 0.42147 0.7323 0.24177 0.0
C764 C 0.45021 0.71315 0.24635 0.0
C765 C 0.43388 0.69197 0.23237 0.0
H766 H 0.387 0.71074 0.22212 0.0
H767 H 0.45567 0.7489 0.26212 0.0
C768 C 0.4481 0.83824 0.20626 0.0
N769 N 0.42085 0.82111 0.20746 0.0
C770 C 0.45935 0.85575 0.18906 0.0
C771 C 0.41421 0.83843 0.17487 0.0
C772 C 0.4038 0.82136 0.19248 0.0
C773 C 0.44242 0.85567 0.17283 0.0
H774 H 0.4612 0.83818 0.2186 0.0
H775 H 0.38217 0.80794 0.19394 0.0
O776 O 0.38894 0.75373 0.27287 0.0
O777 O 0.38762 0.80218 0.25298 0.0
O778 O 0.43852 0.79833 0.24825 0.0
O779 O 0.38511 0.7566 0.22392 0.0
H780 H 0.35494 0.70193 0.26472 0.0
H781 H 0.42588 0.75751 0.3002 0.0
H782 H 0.3586 0.66358 0.27986 0.0
H783 H 0.42828 0.7182 0.31476 0.0
H784 H 0.30999 0.79737 0.22912 0.0
H785 H 0.37414 0.81763 0.28825 0.0
H786 H 0.35071 0.79272 0.22367 0.0
H787 H 0.33295 0.82174 0.2926 0.0
H788 H 0.40533 0.80763 0.34704 0.0
H789 H 0.46934 0.87568 0.31311 0.0
H790 H 0.27711 0.68699 0.23124 0.0
H791 H 0.28564 0.72471 0.29239 0.0
H792 H 0.46833 0.79724 0.21641 0.0
H793 H 0.4646 0.80305 0.28417 0.0
H794 H 0.51312 0.80023 0.22032 0.0
H795 H 0.50965 0.80641 0.28685 0.0
H796 H 0.42733 0.76167 0.20243 0.0
H797 H 0.34724 0.75115 0.19668 0.0
H798 H 0.43046 0.76187 0.16326 0.0
H799 H 0.3516 0.75115 0.15762 0.0
H800 H 0.39761 0.67521 0.21288 0.0
H801 H 0.46791 0.7142 0.25371 0.0
H802 H 0.48112 0.86917 0.18849 0.0
H803 H 0.40035 0.83756 0.16274 0.0
H804 H 0.15213 0.61763 0.27049 0.0
H805 H 0.17703 0.61286 0.33416 0.0
H806 H 0.22394 0.646 0.32536 0.0
H807 H 0.25777 0.67686 0.29983 0.0
H808 H 0.23273 0.68317 0.23659 0.0
H809 H 0.18595 0.64898 0.24504 0.0
C810 C 0.16776 0.62399 0.28251 0.0
C811 C 0.16098 0.61271 0.30297 0.0
C812 C 0.19467 0.64338 0.27744 0.0
C813 C 0.18166 0.62085 0.3182 0.0
C814 C 0.20848 0.63999 0.31324 0.0
C815 C 0.24204 0.67102 0.28795 0.0
C816 C 0.24877 0.6827 0.26763 0.0
C817 C 0.21518 0.6515 0.29295 0.0
C818 C 0.22819 0.67438 0.2523 0.0
C819 C 0.20141 0.65491 0.25715 0.0
H820 H 0.55457 0.15484 0.43467 0.0
H821 H 0.57585 0.17895 0.49979 0.0
H822 H 0.59067 0.22606 0.49045 0.0
H823 H 0.59696 0.26026 0.46384 0.0
H824 H 0.5762 0.23629 0.39865 0.0
H825 H 0.56171 0.18921 0.40792 0.0
C826 C 0.56236 0.17042 0.44681 0.0
C827 C 0.56403 0.16344 0.46789 0.0
C828 C 0.57087 0.19743 0.44132 0.0
C829 C 0.57457 0.18387 0.48342 0.0
C830 C 0.5829 0.21076 0.47811 0.0
C831 C 0.58907 0.24466 0.45171 0.0
C832 C 0.58746 0.25165 0.43063 0.0
C833 C 0.581 0.21774 0.45714 0.0
C834 C 0.57772 0.23138 0.41498 0.0
C835 C 0.56937 0.20448 0.42028 0.0
H836 H 0.42295 0.55226 0.60572 0.0
H837 H 0.43828 0.59163 0.66667 0.0
H838 H 0.40681 0.60769 0.65827 0.0
H839 H 0.37434 0.60986 0.63392 0.0
H840 H 0.35724 0.56846 0.57376 0.0
H841 H 0.38997 0.55383 0.58163 0.0
C842 C 0.41923 0.56413 0.61728 0.0
C843 C 0.43297 0.57065 0.63683 0.0
C844 C 0.40078 0.57293 0.6125 0.0
C845 C 0.4283 0.58657 0.6514 0.0
C846 C 0.41013 0.5956 0.64667 0.0
C847 C 0.37752 0.59737 0.62262 0.0
C848 C 0.36325 0.59023 0.6033 0.0
C849 C 0.39614 0.58876 0.62733 0.0
C850 C 0.36812 0.57453 0.58865 0.0
C851 C 0.38674 0.56601 0.59318 0.0
H852 H 0.88695 0.4372 0.77021 0.0
H853 H 0.8662 0.42436 0.83655 0.0
H854 H 0.8197 0.39011 0.82765 0.0
H855 H 0.78523 0.36313 0.80118 0.0
H856 H 0.8055 0.37548 0.73478 0.0
H857 H 0.85176 0.41103 0.74352 0.0
C858 C 0.87214 0.42715 0.78269 0.0
C859 C 0.88008 0.43319 0.80402 0.0
C860 C 0.84539 0.4074 0.77746 0.0
C861 C 0.86072 0.41979 0.82002 0.0
C862 C 0.83411 0.40027 0.81495 0.0
C863 C 0.79983 0.37346 0.78861 0.0
C864 C 0.79203 0.36651 0.76738 0.0
C865 C 0.82632 0.39371 0.79375 0.0
C866 C 0.81099 0.38053 0.75126 0.0
C867 C 0.83745 0.40077 0.75625 0.0
H868 H 0.47504 0.88754 0.93847 0.0
H869 H 0.46707 0.8651 0.00444 0.0
H870 H 0.4532 0.81842 0.99467 0.0
H871 H 0.44442 0.78424 0.9675 0.0
H872 H 0.45246 0.80636 0.90149 0.0
H873 H 0.46469 0.85276 0.91114 0.0
C874 C 0.46989 0.87234 0.95069 0.0
C875 C 0.47224 0.87984 0.97215 0.0
C876 C 0.46199 0.8455 0.94496 0.0
C877 C 0.46579 0.85995 0.9878 0.0
C878 C 0.45779 0.83324 0.98224 0.0
C879 C 0.44904 0.79927 0.95523 0.0
C880 C 0.44775 0.79191 0.93382 0.0
C881 C 0.45614 0.82587 0.96089 0.0
C882 C 0.45319 0.81147 0.91809 0.0
C883 C 0.46028 0.83802 0.9236 0.0
H884 H 0.62566 0.47341 0.15365 0.0
H885 H 0.60142 0.47414 0.08913 0.0
H886 H 0.63364 0.46056 0.07665 0.0
H887 H 0.66974 0.44989 0.08406 0.0
H888 H 0.69551 0.45126 0.14847 0.0
H889 H 0.66187 0.46279 0.16106 0.0
C890 C 0.62729 0.47027 0.1369 0.0
C891 C 0.61118 0.47456 0.1223 0.0
C892 C 0.64629 0.46312 0.12984 0.0
C893 C 0.6137 0.47093 0.1006 0.0
C894 C 0.6321 0.4632 0.09348 0.0
C895 C 0.66783 0.45256 0.10085 0.0
C896 C 0.68505 0.44977 0.11532 0.0
C897 C 0.64866 0.45947 0.10794 0.0
C898 C 0.68264 0.4536 0.13702 0.0
C899 C 0.66333 0.46004 0.14424 0.0
H900 H 0.40438 0.89326 0.54381 0.0
H901 H 0.46003 0.87149 0.516 0.0
H902 H 0.43055 0.82413 0.52668 0.0
H903 H 0.3883 0.78895 0.54275 0.0
H904 H 0.33434 0.8115 0.57308 0.0
H905 H 0.36352 0.85844 0.56211 0.0
C906 C 0.40998 0.87807 0.54014 0.0
C907 C 0.43415 0.88564 0.52906 0.0
C908 C 0.39315 0.85107 0.54658 0.0
C909 C 0.44151 0.86601 0.52459 0.0
C910 C 0.42463 0.83899 0.53061 0.0
C911 C 0.38306 0.8041 0.54737 0.0
C912 C 0.35889 0.79639 0.55867 0.0
C913 C 0.40034 0.83127 0.54153 0.0
C914 C 0.3524 0.81651 0.56402 0.0
C915 C 0.36922 0.84349 0.55791 0.0
H916 H 0.53611 0.40143 0.7004 0.0
H917 H 0.61883 0.46401 0.68876 0.0
H918 H 0.63505 0.43381 0.70099 0.0
H919 H 0.62557 0.38928 0.71408 0.0
H920 H 0.54282 0.32722 0.72687 0.0
H921 H 0.52674 0.35739 0.71465 0.0
C922 C 0.55767 0.40837 0.70044 0.0
C923 C 0.57624 0.43484 0.69359 0.0
C924 C 0.56683 0.39096 0.70757 0.0
C925 C 0.60416 0.44377 0.69407 0.0
C926 C 0.61342 0.42648 0.70098 0.0
C927 C 0.60404 0.38243 0.71451 0.0
C928 C 0.58547 0.3559 0.72136 0.0
C929 C 0.59493 0.40002 0.70772 0.0
C930 C 0.55759 0.34732 0.72139 0.0
C931 C 0.54836 0.36463 0.71452 0.0
H932 H 0.1544 0.53627 0.86273 0.0
H933 H 0.17179 0.61922 0.85838 0.0
H934 H 0.2187 0.63538 0.86889 0.0
H935 H 0.25467 0.62598 0.87965 0.0
H936 H 0.23616 0.5429 0.88651 0.0
H937 H 0.18972 0.52686 0.87484 0.0
C938 C 0.16827 0.5579 0.86435 0.0
C939 C 0.15938 0.57643 0.85976 0.0
C940 C 0.19507 0.56706 0.87087 0.0
C941 C 0.17802 0.60442 0.86147 0.0
C942 C 0.20485 0.6137 0.86767 0.0
C943 C 0.24042 0.60435 0.87891 0.0
C944 C 0.24906 0.58573 0.88396 0.0
C945 C 0.21356 0.5952 0.87249 0.0
C946 C 0.23032 0.55776 0.88244 0.0
C947 C 0.20366 0.54853 0.87587 0.0
H948 H 0.60106 0.17323 0.02912 0.0
H949 H 0.66293 0.15094 0.02231 0.0
H950 H 0.69736 0.19587 0.03427 0.0
H951 H 0.70986 0.24101 0.04757 0.0
H952 H 0.64878 0.26474 0.05179 0.0
H953 H 0.61421 0.2197 0.0401 0.0
C954 C 0.62212 0.17829 0.02993 0.0
C955 C 0.62922 0.15849 0.02503 0.0
C956 C 0.64201 0.20438 0.03657 0.0
C957 C 0.65667 0.16547 0.02642 0.0
C958 C 0.67647 0.19126 0.03315 0.0
C959 C 0.6891 0.23659 0.04565 0.0
C960 C 0.68209 0.2564 0.05078 0.0
C961 C 0.66934 0.2108 0.03844 0.0
C962 C 0.65484 0.24986 0.04848 0.0
C963 C 0.63502 0.22411 0.04158 0.0
H964 H 0.44497 0.59214 0.20209 0.0
H965 H 0.52858 0.65536 0.1953 0.0
H966 H 0.51747 0.68875 0.20899 0.0
H967 H 0.48377 0.7003 0.22184 0.0
H968 H 0.40023 0.63712 0.22891 0.0
H969 H 0.4116 0.60338 0.21636 0.0
C970 C 0.46081 0.61316 0.20384 0.0
C971 C 0.48752 0.62124 0.19755 0.0
C972 C 0.4543 0.63228 0.21175 0.0
C973 C 0.50776 0.64866 0.19969 0.0
C974 C 0.50146 0.66775 0.20764 0.0
C975 C 0.46814 0.67908 0.22093 0.0
C976 C 0.4412 0.67125 0.22625 0.0
C977 C 0.47478 0.65983 0.21358 0.0
C978 C 0.42108 0.64372 0.22468 0.0
C979 C 0.42757 0.62441 0.21756 0.0
H980 H 0.86994 0.47619 0.33779 0.0
H981 H 0.89482 0.47046 0.40127 0.0
H982 H 0.84966 0.45763 0.41447 0.0
H983 H 0.80345 0.44956 0.40821 0.0
H984 H 0.77959 0.45753 0.345 0.0
H985 H 0.82429 0.46879 0.33161 0.0
C986 C 0.86566 0.47244 0.35456 0.0
C987 C 0.88589 0.47436 0.36846 0.0
C988 C 0.83987 0.46574 0.36215 0.0
C989 C 0.87961 0.46877 0.39009 0.0
C990 C 0.85383 0.46166 0.39772 0.0
C991 C 0.80805 0.45365 0.3915 0.0
C992 C 0.78832 0.45284 0.37763 0.0
C993 C 0.83385 0.46024 0.38391 0.0
C994 C 0.79458 0.45841 0.35604 0.0
C995 C 0.82006 0.46468 0.34835 0.0
H996 H 0.12596 0.54386 0.42001 0.0
H997 H 0.1082 0.60888 0.42669 0.0
H998 H 0.13709 0.62533 0.45806 0.0
H999 H 0.16643 0.62061 0.48407 0.0
H1000 H 0.18514 0.55623 0.47704 0.0
H1001 H 0.15625 0.53977 0.4457 0.0
C1002 C 0.12832 0.56155 0.4284 0.0
C1003 C 0.11493 0.57512 0.42099 0.0
C1004 C 0.14493 0.57088 0.44648 0.0
C1005 C 0.11851 0.59824 0.43188 0.0
C1006 C 0.1349 0.60757 0.44991 0.0
C1007 C 0.16452 0.60318 0.47557 0.0
C1008 C 0.17799 0.58971 0.48302 0.0
C1009 C 0.14816 0.59402 0.45737 0.0
C1010 C 0.17474 0.56681 0.47193 0.0
C1011 C 0.15835 0.55747 0.45388 0.0
H1012 H 0.56759 0.09096 0.60502 0.0
H1013 H 0.56459 0.15171 0.56597 0.0
H1014 H 0.58192 0.18394 0.59526 0.0
H1015 H 0.59804 0.19502 0.632 0.0
H1016 H 0.60229 0.13478 0.67068 0.0
H1017 H 0.58513 0.10251 0.6413 0.0
C1018 C 0.57103 0.11135 0.60278 0.0
C1019 C 0.56459 0.11875 0.58328 0.0
C1020 C 0.58141 0.12997 0.61961 0.0
C1021 C 0.56884 0.1452 0.58088 0.0
C1022 C 0.57896 0.16376 0.59759 0.0
C1023 C 0.5951 0.17479 0.634 0.0
C1024 C 0.60138 0.1673 0.6535 0.0
C1025 C 0.58521 0.15633 0.61705 0.0
C1026 C 0.59786 0.14114 0.65577 0.0
C1027 C 0.5879 0.12263 0.63902 0.0
H1028 H 0.45612 0.57679 0.73727 0.0
H1029 H 0.51883 0.57193 0.77213 0.0
H1030 H 0.50842 0.58994 0.80355 0.0
H1031 H 0.4804 0.60552 0.82161 0.0
H1032 H 0.41661 0.60878 0.78721 0.0
H1033 H 0.42823 0.59251 0.75527 0.0
C1034 C 0.46738 0.57944 0.75178 0.0
C1035 C 0.48826 0.57299 0.75225 0.0
C1036 C 0.46101 0.58943 0.76993 0.0
C1037 C 0.50292 0.57706 0.77115 0.0
C1038 C 0.49687 0.5872 0.7892 0.0
C1039 C 0.46927 0.60296 0.80705 0.0
C1040 C 0.44769 0.60835 0.80677 0.0
C1041 C 0.47589 0.59335 0.78881 0.0
C1042 C 0.43316 0.60455 0.78787 0.0
C1043 C 0.43984 0.59532 0.7696 0.0
H1044 H 0.95858 0.50413 0.94275 0.0
H1045 H 0.89163 0.46523 0.89901 0.0
H1046 H 0.85941 0.45112 0.92837 0.0
H1047 H 0.85032 0.44838 0.96656 0.0
H1048 H 0.9173 0.48811 0.01029 0.0
H1049 H 0.94939 0.50299 0.9809 0.0
C1050 C 0.93693 0.49247 0.93969 0.0
C1051 C 0.92751 0.48567 0.91876 0.0
C1052 C 0.91852 0.48447 0.95664 0.0
C1053 C 0.89939 0.47091 0.91498 0.0
C1054 C 0.88096 0.46273 0.93176 0.0
C1055 C 0.87191 0.46065 0.96967 0.0
C1056 C 0.88132 0.46695 0.99067 0.0
C1057 C 0.8903 0.4693 0.95267 0.0
C1058 C 0.90945 0.48256 0.99435 0.0
C1059 C 0.92785 0.4912 0.97753 0.0
H1060 H 0.50753 0.92518 0.09318 0.0
H1061 H 0.4412 0.94145 0.0917 0.0
H1062 H 0.42119 0.91291 0.12294 0.0
H1063 H 0.42289 0.88379 0.15095 0.0
H1064 H 0.48868 0.86653 0.15162 0.0
H1065 H 0.50879 0.89544 0.12076 0.0
C1066 C 0.48881 0.92263 0.09981 0.0
C1067 C 0.4759 0.93544 0.09017 0.0
C1068 C 0.47738 0.90613 0.11771 0.0
C1069 C 0.45141 0.93161 0.09872 0.0
C1070 C 0.44002 0.91539 0.11663 0.0
C1071 C 0.44148 0.88612 0.14424 0.0
C1072 C 0.45429 0.87309 0.15377 0.0
C1073 C 0.45281 0.90252 0.12625 0.0
C1074 C 0.47859 0.87669 0.14494 0.0
C1075 C 0.49005 0.89308 0.12716 0.0
H1076 H 0.5467 0.48304 0.26688 0.0
H1077 H 0.59851 0.4681 0.2259 0.0
H1078 H 0.61137 0.44951 0.2557 0.0
H1079 H 0.60798 0.4376 0.29345 0.0
H1080 H 0.55568 0.45204 0.33424 0.0
H1081 H 0.54274 0.4705 0.30441 0.0
C1082 C 0.5606 0.47547 0.26441 0.0
C1083 C 0.57158 0.47694 0.24415 0.0
C1084 C 0.56779 0.46468 0.28158 0.0
C1085 C 0.58999 0.46751 0.24135 0.0
C1086 C 0.59722 0.45671 0.25836 0.0
C1087 C 0.59351 0.44449 0.29575 0.0
C1088 C 0.58277 0.44339 0.31604 0.0
C1089 C 0.58623 0.45517 0.27854 0.0
C1090 C 0.56442 0.45287 0.31883 0.0
C1091 C 0.55695 0.46336 0.30177 0.0
H1092 H 0.46232 0.89898 0.42334 0.0
H1093 H 0.47703 0.96816 0.38537 0.0
H1094 H 0.46609 0.9407 0.35338 0.0
H1095 H 0.45238 0.89717 0.33609 0.0
H1096 H 0.43997 0.82853 0.37371 0.0
H1097 H 0.4501 0.85575 0.40587 0.0
C1098 C 0.46342 0.90816 0.40806 0.0
C1099 C 0.47038 0.93563 0.40687 0.0
C1100 C 0.45751 0.89236 0.38962 0.0
C1101 C 0.47125 0.94698 0.3869 0.0
C1102 C 0.46521 0.93135 0.36853 0.0
C1103 C 0.45225 0.88822 0.35127 0.0
C1104 C 0.44541 0.8608 0.35241 0.0
C1105 C 0.45834 0.90403 0.3697 0.0
C1106 C 0.44481 0.84946 0.37234 0.0
C1107 C 0.45075 0.86506 0.39075 0.0
H1108 H 0.58539 0.46027 0.58475 0.0
H1109 H 0.54449 0.49358 0.54867 0.0
H1110 H 0.56031 0.48368 0.51573 0.0
H1111 H 0.58535 0.46509 0.49711 0.0
H1112 H 0.62596 0.43141 0.5331 0.0
H1113 H 0.61083 0.44205 0.56612 0.0
C1114 C 0.58012 0.46553 0.56967 0.0
C1115 C 0.56374 0.47759 0.56917 0.0
C1116 C 0.58925 0.45973 0.55078 0.0
C1117 C 0.55678 0.48397 0.54949 0.0
C1118 C 0.56595 0.47847 0.53065 0.0
C1119 C 0.59113 0.46037 0.5122 0.0
C1120 C 0.6068 0.44756 0.51267 0.0
C1121 C 0.58215 0.46631 0.5311 0.0
C1122 C 0.61374 0.44111 0.53233 0.0
C1123 C 0.60516 0.44725 0.5512 0.0
H1124 H 0.14124 0.57417 0.75344 0.0
H1125 H 0.07163 0.56558 0.71928 0.0
H1126 H 0.0987 0.58215 0.68712 0.0
H1127 H 0.14216 0.59946 0.66866 0.0
H1128 H 0.21111 0.60548 0.7022 0.0
H1129 H 0.18428 0.58967 0.73454 0.0
C1130 C 0.13188 0.5756 0.73892 0.0
C1131 C 0.10443 0.56878 0.73892 0.0
C1132 C 0.14749 0.58486 0.72033 0.0
C1133 C 0.09281 0.57115 0.71993 0.0
C1134 C 0.10824 0.58048 0.70145 0.0
C1135 C 0.15129 0.59704 0.68295 0.0
C1136 C 0.17874 0.60386 0.6829 0.0
C1137 C 0.13562 0.58747 0.70147 0.0
C1138 C 0.19023 0.60094 0.70177 0.0
C1139 C 0.17482 0.59166 0.72028 0.0
H1140 H 0.59143 0.14194 0.92093 0.0
H1141 H 0.53742 0.06897 0.8866 0.0
H1142 H 0.54561 0.09522 0.85412 0.0
H1143 H 0.56806 0.13887 0.83542 0.0
H1144 H 0.62243 0.21193 0.86955 0.0
H1145 H 0.61394 0.18578 0.90213 0.0
C1146 C 0.58165 0.13181 0.90628 0.0
C1147 C 0.56385 0.10357 0.90617 0.0
C1148 C 0.58635 0.14706 0.88765 0.0
C1149 C 0.55101 0.09073 0.88714 0.0
C1150 C 0.55574 0.10571 0.86855 0.0
C1151 C 0.57817 0.14905 0.84996 0.0
C1152 C 0.59585 0.17733 0.85001 0.0
C1153 C 0.57334 0.13388 0.86862 0.0
C1154 C 0.60845 0.19025 0.86909 0.0
C1155 C 0.60377 0.17528 0.88772 0.0
H1156 H 0.48341 0.54909 0.04979 0.0
H1157 H 0.45922 0.59193 0.09289 0.0
H1158 H 0.43985 0.60465 0.06351 0.0
H1159 H 0.43121 0.60488 0.02543 0.0
H1160 H 0.45434 0.56094 0.98245 0.0
H1161 H 0.47307 0.54777 0.01187 0.0
C1162 C 0.474 0.56132 0.05271 0.0
C1163 C 0.47286 0.56967 0.07346 0.0
C1164 C 0.46283 0.56847 0.03576 0.0
C1165 C 0.4602 0.58512 0.07708 0.0
C1166 C 0.44922 0.59248 0.06027 0.0
C1167 C 0.43995 0.59207 0.0225 0.0
C1168 C 0.44145 0.58407 1.00167 0.0
C1169 C 0.45051 0.58435 0.03954 0.0
C1170 C 0.45329 0.56781 0.99823 0.0
C1171 C 0.4639 0.56013 0.01507 0.0
H1172 H 0.9582 0.47806 0.22396 0.0
H1173 H 0.89127 0.45158 0.2675 0.0
H1174 H 0.85902 0.4321 0.2382 0.0
H1175 H 0.84994 0.42422 0.20005 0.0
H1176 H 0.91699 0.44971 0.15664 0.0
H1177 H 0.94903 0.46821 0.186 0.0
C1178 C 0.93654 0.46811 0.22699 0.0
C1179 C 0.92713 0.46639 0.24783 0.0
C1180 C 0.91814 0.45686 0.21009 0.0
C1181 C 0.89901 0.45304 0.2516 0.0
C1182 C 0.88058 0.44198 0.23485 0.0
C1183 C 0.87153 0.43341 0.19702 0.0
C1184 C 0.88097 0.43571 0.17609 0.0
C1185 C 0.88991 0.44389 0.21401 0.0
C1186 C 0.9091 0.44806 0.17251 0.0
C1187 C 0.92748 0.45856 0.18931 0.0
loop_
_geom_bond_atom_site_label_1
_geom_bond_atom_site_label_2
_geom_bond_distance
_geom_bond_site_symmetry_2
_ccdc_geom_bond_type
C0 C1 1.384 . S
C0 C2 1.384 . S
C0 H28 0.931 . S
C1 C0 1.384 . S
C1 C4 1.382 . S
C2 C0 1.384 . S
C2 C3 1.381 . S
C2 H29 0.930 . S
C3 C2 1.381 . S
C3 C5 1.381 . S
C3 C6 1.487 . S
C4 C1 1.382 . S
C4 C5 1.387 . S
C4 H30 0.930 . S
C5 C3 1.381 . S
C5 C4 1.387 . S
C5 H31 0.931 . S
C6 C3 1.487 . S
C6 C13 1.399 1_655 S
C6 N44 1.343 1_655 S
C7 C8 1.384 . S
C7 C9 1.384 . S
C7 H32 0.931 . S
C8 C7 1.384 . S
C8 C11 1.382 . S
C9 C7 1.384 . S
C9 C10 1.381 . S
C9 H33 0.930 . S
C10 C9 1.381 . S
C10 C12 1.381 . S
C10 C13 1.487 1_655 S
C11 C8 1.382 . S
C11 C12 1.387 . S
C11 H34 0.930 . S
C12 C10 1.381 . S
C12 C11 1.387 . S
C12 H35 0.931 1_655 S
C13 C6 1.399 1_455 S
C13 C10 1.487 1_455 S
C13 N45 1.343 . S
C14 C15 1.384 . S
C14 C16 1.384 . S
C14 H36 0.931 . S
C15 C14 1.384 . S
C15 C18 1.382 . S
C16 C14 1.384 . S
C16 C17 1.381 . S
C16 H37 0.930 . S
C17 C16 1.381 . S
C17 C19 1.381 . S
C17 C20 1.487 . S
C18 C15 1.382 . S
C18 C19 1.387 . S
C18 H38 0.930 . S
C19 C17 1.381 . S
C19 C18 1.387 . S
C19 H39 0.931 . S
C20 C17 1.487 . S
C20 C27 1.399 . S
C20 N45 1.343 . S
C21 C22 1.384 . S
C21 C23 1.384 . S
C21 H40 0.931 . S
C22 C21 1.384 . S
C22 C25 1.382 . S
C23 C21 1.384 . S
C23 C24 1.381 . S
C23 H41 0.930 . S
C24 C23 1.381 . S
C24 C26 1.381 . S
C24 C27 1.487 . S
C25 C22 1.382 . S
C25 C26 1.387 . S
C25 H42 0.930 . S
C26 C24 1.381 . S
C26 C25 1.387 . S
C26 H43 0.931 . S
C27 C20 1.399 . S
C27 C24 1.487 . S
C27 N44 1.343 . S
H28 C0 0.931 . S
H29 C2 0.930 . S
H30 C4 0.930 . S
H31 C5 0.931 . S
H32 C7 0.931 . S
H33 C9 0.930 . S
H34 C11 0.930 . S
H35 C12 0.931 1_455 S
H36 C14 0.931 . S
H37 C16 0.930 . S
H38 C18 0.930 . S
H39 C19 0.931 . S
H40 C21 0.931 . S
H41 C23 0.930 . S
H42 C25 0.930 . S
H43 C26 0.931 . S
N44 C6 1.343 1_455 S
N44 C27 1.343 . S
N45 C13 1.343 . S
N45 C20 1.343 . S
C46 C47 1.384 . S
C46 C48 1.384 . S
C46 H74 0.931 . S
C47 C46 1.384 . S
C47 C50 1.382 . S
C48 C46 1.384 . S
C48 C49 1.381 . S
C48 H75 0.930 . S
C49 C48 1.381 . S
C49 C51 1.381 . S
C49 C52 1.487 . S
C50 C47 1.382 . S
C50 C51 1.387 . S
C50 H76 0.930 . S
C51 C49 1.381 . S
C51 C50 1.387 . S
C51 H77 0.931 . S
C52 C49 1.487 . S
C52 C59 1.399 1_565 S
C52 N90 1.343 1_565 S
C53 C54 1.384 . S
C53 C55 1.384 . S
C53 H78 0.931 . S
C54 C53 1.384 . S
C54 C57 1.382 . S
C55 C53 1.384 . S
C55 C56 1.381 . S
C55 H79 0.930 . S
C56 C55 1.381 . S
C56 C58 1.381 . S
C56 C59 1.487 1_565 S
C57 C54 1.382 . S
C57 C58 1.387 . S
C57 H80 0.930 . S
C58 C56 1.381 . S
C58 C57 1.387 . S
C58 H81 0.931 1_565 S
C59 C52 1.399 1_545 S
C59 C56 1.487 1_545 S
C59 N91 1.343 . S
C60 C61 1.384 . S
C60 C62 1.384 . S
C60 H82 0.931 . S
C61 C60 1.384 . S
C61 C64 1.382 . S
C62 C60 1.384 . S
C62 C63 1.381 . S
C62 H83 0.930 . S
C63 C62 1.381 . S
C63 C65 1.381 . S
C63 C66 1.487 . S
C64 C61 1.382 . S
C64 C65 1.387 . S
C64 H84 0.930 . S
C65 C63 1.381 . S
C65 C64 1.387 . S
C65 H85 0.931 . S
C66 C63 1.487 . S
C66 C73 1.399 . S
C66 N91 1.343 . S
C67 C68 1.384 . S
C67 C69 1.384 . S
C67 H86 0.931 . S
C68 C67 1.384 . S
C68 C71 1.382 . S
C69 C67 1.384 . S
C69 C70 1.381 . S
C69 H87 0.930 . S
C70 C69 1.381 . S
C70 C72 1.381 . S
C70 C73 1.487 . S
C71 C68 1.382 . S
C71 C72 1.387 . S
C71 H88 0.930 . S
C72 C70 1.381 . S
C72 C71 1.387 . S
C72 H89 0.931 . S
C73 C66 1.399 . S
C73 C70 1.487 . S
C73 N90 1.343 . S
H74 C46 0.931 . S
H75 C48 0.930 . S
H76 C50 0.930 . S
H77 C51 0.931 . S
H78 C53 0.931 . S
H79 C55 0.930 . S
H80 C57 0.930 . S
H81 C58 0.931 1_545 S
H82 C60 0.931 . S
H83 C62 0.930 . S
H84 C64 0.930 . S
H85 C65 0.931 . S
H86 C67 0.931 . S
H87 C69 0.930 . S
H88 C71 0.930 . S
H89 C72 0.931 . S
N90 C52 1.343 1_545 S
N90 C73 1.343 . S
N91 C59 1.343 . S
N91 C66 1.343 . S
C92 C93 1.384 . S
C92 C94 1.384 . S
C92 H120 0.931 . S
C93 C92 1.384 . S
C93 C96 1.382 . S
C94 C92 1.384 . S
C94 C95 1.381 . S
C94 H121 0.930 . S
C95 C94 1.381 . S
C95 C97 1.381 . S
C95 C98 1.487 . S
C96 C93 1.382 . S
C96 C97 1.387 . S
C96 H122 0.930 . S
C97 C95 1.381 . S
C97 C96 1.387 . S
C97 H123 0.931 . S
C98 C95 1.487 . S
C98 C105 1.399 . S
C98 N136 1.343 . S
C99 C100 1.384 . S
C99 C101 1.384 . S
C99 H124 0.931 . S
C100 C99 1.384 . S
C100 C103 1.382 . S
C101 C99 1.384 . S
C101 C102 1.381 . S
C101 H125 0.930 . S
C102 C101 1.381 . S
C102 C104 1.381 . S
C102 C105 1.487 . S
C103 C100 1.382 . S
C103 C104 1.387 . S
C103 H126 0.930 . S
C104 C102 1.381 . S
C104 C103 1.387 . S
C104 H127 0.931 . S
C105 C98 1.399 . S
C105 C102 1.487 . S
C105 N137 1.343 . S
C106 C107 1.384 . S
C106 C108 1.384 . S
C106 H128 0.931 . S
C107 C106 1.384 . S
C107 C110 1.382 . S
C108 C106 1.384 . S
C108 C109 1.381 . S
C108 H129 0.930 . S
C109 C108 1.381 . S
C109 C111 1.381 . S
C109 C112 1.487 . S
C110 C107 1.382 . S
C110 C111 1.387 . S
C110 H130 0.930 . S
C111 C109 1.381 . S
C111 C110 1.387 . S
C111 H131 0.931 . S
C112 C109 1.487 . S
C112 C119 1.399 . S
C112 N137 1.343 . S
C113 C114 1.384 . S
C113 C115 1.384 . S
C113 H132 0.931 . S
C114 C113 1.384 . S
C114 C117 1.382 . S
C115 C113 1.384 . S
C115 C116 1.381 . S
C115 H133 0.930 . S
C116 C115 1.381 . S
C116 C118 1.381 . S
C116 C119 1.487 . S
C117 C114 1.382 . S
C117 C118 1.387 . S
C117 H134 0.930 . S
C118 C116 1.381 . S
C118 C117 1.387 . S
C118 H135 0.931 . S
C119 C112 1.399 . S
C119 C116 1.487 . S
C119 N136 1.343 . S
H120 C92 0.931 . S
H121 C94 0.930 . S
H122 C96 0.930 . S
H123 C97 0.931 . S
H124 C99 0.931 . S
H125 C101 0.930 . S
H126 C103 0.930 . S
H127 C104 0.931 . S
H128 C106 0.931 . S
H129 C108 0.930 . S
H130 C110 0.930 . S
H131 C111 0.931 . S
H132 C113 0.931 . S
H133 C115 0.930 . S
H134 C117 0.930 . S
H135 C118 0.931 . S
N136 C98 1.343 . S
N136 C119 1.343 . S
N137 C105 1.343 . S
N137 C112 1.343 . S
C138 C139 1.384 . S
C138 C140 1.384 . S
C138 H166 0.931 . S
C139 C138 1.384 . S
C139 C142 1.382 . S
C140 C138 1.384 . S
C140 C141 1.381 . S
C140 H167 0.930 . S
C141 C140 1.381 . S
C141 C143 1.381 . S
C141 C144 1.487 . S
C142 C139 1.382 . S
C142 C143 1.387 . S
C142 H168 0.930 . S
C143 C141 1.381 . S
C143 C142 1.387 . S
C143 H169 0.931 . S
C144 C141 1.487 . S
C144 C151 1.399 1_655 S
C144 N182 1.343 1_655 S
C145 C146 1.384 . S
C145 C147 1.384 . S
C145 H170 0.931 . S
C146 C145 1.384 . S
C146 C149 1.382 . S
C147 C145 1.384 . S
C147 C148 1.381 . S
C147 H171 0.930 . S
C148 C147 1.381 . S
C148 C150 1.381 . S
C148 C151 1.487 1_655 S
C149 C146 1.382 . S
C149 C150 1.387 . S
C149 H172 0.930 . S
C150 C148 1.381 . S
C150 C149 1.387 . S
C150 H173 0.931 1_655 S
C151 C144 1.399 1_455 S
C151 C148 1.487 1_455 S
C151 N183 1.343 . S
C152 C153 1.384 . S
C152 C154 1.384 . S
C152 H174 0.931 . S
C153 C152 1.384 . S
C153 C156 1.382 . S
C154 C152 1.384 . S
C154 C155 1.381 . S
C154 H175 0.930 . S
C155 C154 1.381 . S
C155 C157 1.381 . S
C155 C158 1.487 . S
C156 C153 1.382 . S
C156 C157 1.387 . S
C156 H176 0.930 . S
C157 C155 1.381 . S
C157 C156 1.387 . S
C157 H177 0.931 . S
C158 C155 1.487 . S
C158 C165 1.399 . S
C158 N183 1.343 . S
C159 C160 1.384 . S
C159 C161 1.384 . S
C159 H178 0.931 . S
C160 C159 1.384 . S
C160 C163 1.382 . S
C161 C159 1.384 . S
C161 C162 1.381 . S
C161 H179 0.930 . S
C162 C161 1.381 . S
C162 C164 1.381 . S
C162 C165 1.487 . S
C163 C160 1.382 . S
C163 C164 1.387 . S
C163 H180 0.930 . S
C164 C162 1.381 . S
C164 C163 1.387 . S
C164 H181 0.931 . S
C165 C158 1.399 . S
C165 C162 1.487 . S
C165 N182 1.343 . S
H166 C138 0.931 . S
H167 C140 0.930 . S
H168 C142 0.930 . S
H169 C143 0.931 . S
H170 C145 0.931 . S
H171 C147 0.930 . S
H172 C149 0.930 . S
H173 C150 0.931 1_455 S
H174 C152 0.931 . S
H175 C154 0.930 . S
H176 C156 0.930 . S
H177 C157 0.931 . S
H178 C159 0.931 . S
H179 C161 0.930 . S
H180 C163 0.930 . S
H181 C164 0.931 . S
N182 C144 1.343 1_455 S
N182 C165 1.343 . S
N183 C151 1.343 . S
N183 C158 1.343 . S
C184 C185 1.384 . S
C184 C186 1.384 . S
C184 H212 0.931 . S
C185 C184 1.384 . S
C185 C188 1.382 . S
C186 C184 1.384 . S
C186 C187 1.381 . S
C186 H213 0.930 1_556 S
C187 C186 1.381 . S
C187 C189 1.381 . S
C187 C190 1.487 . S
C188 C185 1.382 . S
C188 C189 1.387 . S
C188 H214 0.930 . S
C189 C187 1.381 . S
C189 C188 1.387 . S
C189 H215 0.931 . S
C190 C187 1.487 . S
C190 C197 1.399 1_566 S
C190 N228 1.343 1_565 S
C191 C192 1.384 . S
C191 C193 1.384 . S
C191 H216 0.931 . S
C192 C191 1.384 . S
C192 C195 1.382 . S
C193 C191 1.384 . S
C193 C194 1.381 . S
C193 H217 0.930 . S
C194 C193 1.381 . S
C194 C196 1.381 . S
C194 C197 1.487 1_565 S
C195 C192 1.382 . S
C195 C196 1.387 . S
C195 H218 0.930 . S
C196 C194 1.381 . S
C196 C195 1.387 . S
C196 H219 0.931 1_565 S
C197 C190 1.399 1_544 S
C197 C194 1.487 1_545 S
C197 N229 1.343 . S
C198 C199 1.384 . S
C198 C200 1.384 1_554 S
C198 H220 0.949 . S
C199 C198 1.384 . S
C199 C202 1.382 . S
C200 C198 1.384 1_556 S
C200 C201 1.381 1_556 S
C200 H221 0.930 . S
C201 C200 1.381 1_554 S
C201 C203 1.381 . S
C201 C204 1.482 1_554 S
C202 C199 1.382 . S
C202 C203 1.387 . S
C202 H222 0.930 . S
C203 C201 1.381 . S
C203 C202 1.387 . S
C203 H223 0.931 . S
C204 C201 1.482 1_556 S
C204 C211 1.417 . S
C204 N229 1.329 1_556 S
C205 C206 1.384 . S
C205 C207 1.384 . S
C205 H224 0.931 . S
C206 C205 1.384 . S
C206 C209 1.382 . S
C207 C205 1.384 . S
C207 C208 1.381 . S
C207 H225 0.930 . S
C208 C207 1.381 . S
C208 C210 1.381 . S
C208 C211 1.487 . S
C209 C206 1.382 . S
C209 C210 1.387 . S
C209 H226 0.930 . S
C210 C208 1.381 . S
C210 C209 1.387 . S
C210 H227 0.931 . S
C211 C204 1.417 . S
C211 C208 1.487 . S
C211 N228 1.343 . S
H212 C184 0.931 . S
H213 C186 0.930 1_554 S
H214 C188 0.930 . S
H215 C189 0.931 . S
H216 C191 0.931 . S
H217 C193 0.930 . S
H218 C195 0.930 . S
H219 C196 0.931 1_545 S
H220 C198 0.949 . S
H221 C200 0.930 . S
H222 C202 0.930 . S
H223 C203 0.931 . S
H224 C205 0.931 . S
H225 C207 0.930 . S
H226 C209 0.930 . S
H227 C210 0.931 . S
N228 C190 1.343 1_545 S
N228 C211 1.343 . S
N229 C197 1.343 . S
N229 C204 1.329 1_554 S
C230 C231 1.384 . S
C230 C232 1.384 . S
C230 H258 0.931 . S
C231 C230 1.384 . S
C231 C234 1.382 . S
C232 C230 1.384 . S
C232 C233 1.381 . S
C232 H259 0.930 . S
C233 C232 1.381 . S
C233 C235 1.381 . S
C233 C236 1.487 . S
C234 C231 1.382 . S
C234 C235 1.387 . S
C234 H260 0.930 . S
C235 C233 1.381 . S
C235 C234 1.387 . S
C235 H261 0.931 . S
C236 C233 1.487 . S
C236 C243 1.399 . S
C236 N274 1.343 . S
C237 C238 1.384 . S
C237 C239 1.384 . S
C237 H262 0.931 . S
C238 C237 1.384 . S
C238 C241 1.382 . S
C239 C237 1.384 . S
C239 C240 1.381 . S
C239 H263 0.930 . S
C240 C239 1.381 . S
C240 C242 1.381 . S
C240 C243 1.487 . S
C241 C238 1.382 . S
C241 C242 1.387 . S
C241 H264 0.930 . S
C242 C240 1.381 . S
C242 C241 1.387 . S
C242 H265 0.931 . S
C243 C236 1.399 . S
C243 C240 1.487 . S
C243 N275 1.343 . S
C244 C245 1.384 . S
C244 C246 1.384 . S
C244 H266 0.931 . S
C245 C244 1.384 . S
C245 C248 1.382 . S
C246 C244 1.384 . S
C246 C247 1.381 . S
C246 H267 0.930 . S
C247 C246 1.381 . S
C247 C249 1.381 . S
C247 C250 1.487 . S
C248 C245 1.382 . S
C248 C249 1.387 . S
C248 H268 0.930 . S
C249 C247 1.381 . S
C249 C248 1.387 . S
C249 H269 0.931 . S
C250 C247 1.487 . S
C250 C257 1.399 . S
C250 N275 1.343 . S
C251 C252 1.384 . S
C251 C253 1.384 . S
C251 H270 0.931 . S
C252 C251 1.384 . S
C252 C255 1.382 . S
C253 C251 1.384 . S
C253 C254 1.381 . S
C253 H271 0.930 . S
C254 C253 1.381 . S
C254 C256 1.381 . S
C254 C257 1.487 . S
C255 C252 1.382 . S
C255 C256 1.387 . S
C255 H272 0.930 . S
C256 C254 1.381 . S
C256 C255 1.387 . S
C256 H273 0.931 . S
C257 C250 1.399 . S
C257 C254 1.487 . S
C257 N274 1.343 . S
H258 C230 0.931 . S
H259 C232 0.930 . S
H260 C234 0.930 . S
H261 C235 0.931 . S
H262 C237 0.931 . S
H263 C239 0.930 . S
H264 C241 0.930 . S
H265 C242 0.931 . S
H266 C244 0.931 . S
H267 C246 0.930 . S
H268 C248 0.930 . S
H269 C249 0.931 . S
H270 C251 0.931 . S
H271 C253 0.930 . S
H272 C255 0.930 . S
H273 C256 0.931 . S
N274 C236 1.343 . S
N274 C257 1.343 . S
N275 C243 1.343 . S
N275 C250 1.343 . S
Li276 N293 1.990 . S
Li276 O336 1.956 . S
Li276 O337 1.970 . S
Li276 O338 1.961 . S
Li277 N301 1.990 . S
Li277 O336 1.970 . S
Li277 O337 1.956 . S
Li277 O339 1.961 . S
Li278 N323 1.990 . S
Li278 O336 1.961 . S
Li278 O338 1.956 . S
Li278 O339 1.970 . S
Li279 N329 1.990 . S
Li279 O337 1.961 . S
Li279 O338 1.970 . S
Li279 O339 1.956 . S
C280 C282 1.348 . S
C280 C283 1.356 . S
C280 O336 1.325 . S
N281 C284 1.314 . S
N281 C285 1.279 . S
C282 C280 1.348 . S
C282 C284 1.353 . S
C282 H340 0.929 . S
C283 C280 1.356 . S
C283 C285 1.358 . S
C283 H341 0.930 . S
C284 N281 1.314 . S
C284 C282 1.353 . S
C284 H342 0.930 . S
C285 N281 1.279 . S
C285 C283 1.358 . S
C285 H343 0.930 . S
C286 C289 1.348 . S
C286 C290 1.356 . S
C286 O337 1.325 . S
C287 N288 1.279 . S
C287 C290 1.358 . S
C287 H344 0.930 . S
N288 C287 1.279 . S
N288 C291 1.314 . S
C289 C286 1.348 . S
C289 C291 1.353 . S
C289 H345 0.929 . S
C290 C286 1.356 . S
C290 C287 1.358 . S
C290 H346 0.930 . S
C291 N288 1.314 . S
C291 C289 1.353 . S
C291 H347 0.930 . S
C292 N293 1.314 . S
C292 C297 1.353 . S
C292 H298 0.930 . S
N293 Li276 1.990 . S
N293 C292 1.314 . S
N293 C295 1.279 . S
C294 C295 1.358 . S
C294 C296 1.356 . S
C294 H348 0.930 . S
C295 N293 1.279 . S
C295 C294 1.358 . S
C295 H299 0.930 . S
C296 C294 1.356 . S
C296 C297 1.348 . S
C297 C292 1.353 . S
C297 C296 1.348 . S
C297 H349 0.929 . S
H298 C292 0.930 . S
H299 C295 0.930 . S
C300 N301 1.314 . S
C300 C302 1.353 . S
C300 H306 0.930 . S
N301 Li277 1.990 . S
N301 C300 1.314 . S
N301 C304 1.279 . S
C302 C300 1.353 . S
C302 C305 1.348 . S
C302 H350 0.929 . S
C303 C304 1.358 . S
C303 C305 1.356 . S
C303 H351 0.930 . S
C304 N301 1.279 . S
C304 C303 1.358 . S
C304 H307 0.930 . S
C305 C302 1.348 . S
C305 C303 1.356 . S
H306 C300 0.930 . S
H307 C304 0.930 . S
C308 C310 1.348 . S
C308 C311 1.356 . S
C308 O338 1.325 . S
N309 C312 1.314 . S
N309 C313 1.279 . S
C310 C308 1.348 . S
C310 C312 1.353 . S
C310 H352 0.929 . S
C311 C308 1.356 . S
C311 C313 1.358 . S
C311 H353 0.930 . S
C312 N309 1.314 . S
C312 C310 1.353 . S
C312 H354 0.930 . S
C313 N309 1.279 . S
C313 C311 1.358 . S
C313 H355 0.930 . S
C314 C315 1.348 . S
C314 C316 1.356 . S
C314 O339 1.325 . S
C315 C314 1.348 . S
C315 C317 1.353 . S
C315 H356 0.929 . S
C316 C314 1.356 . S
C316 C318 1.358 . S
C316 H357 0.930 . S
C317 C315 1.353 . S
C317 N319 1.314 . S
C317 H358 0.930 . S
C318 C316 1.358 . S
C318 N319 1.279 . S
C318 H359 0.930 . S
N319 C317 1.314 . S
N319 C318 1.279 . S
C320 C322 1.353 . S
C320 N323 1.314 . S
C320 H326 0.930 . S
C321 N323 1.279 . S
C321 C324 1.358 . S
C321 H327 0.930 . S
C322 C320 1.353 . S
C322 C325 1.348 . S
C322 H360 0.929 . S
N323 Li278 1.990 . S
N323 C320 1.314 . S
N323 C321 1.279 . S
C324 C321 1.358 . S
C324 C325 1.356 . S
C324 H361 0.930 . S
C325 C322 1.348 . S
C325 C324 1.356 . S
H326 C320 0.930 . S
H327 C321 0.930 . S
C328 N329 1.314 . S
C328 C330 1.353 . S
C328 H334 0.930 . S
N329 Li279 1.990 . S
N329 C328 1.314 . S
N329 C332 1.279 . S
C330 C328 1.353 . S
C330 C333 1.348 . S
C330 H362 0.929 . S
C331 C332 1.358 . S
C331 C333 1.356 . S
C331 H363 0.930 . S
C332 N329 1.279 . S
C332 C331 1.358 . S
C332 H335 0.930 . S
C333 C330 1.348 . S
C333 C331 1.356 . S
H334 C328 0.930 . S
H335 C332 0.930 . S
O336 Li276 1.956 . S
O336 Li277 1.970 . S
O336 Li278 1.961 . S
O336 C280 1.325 . S
O337 Li276 1.970 . S
O337 Li277 1.956 . S
O337 Li279 1.961 . S
O337 C286 1.325 . S
O338 Li276 1.961 . S
O338 Li278 1.956 . S
O338 Li279 1.970 . S
O338 C308 1.325 . S
O339 Li277 1.961 . S
O339 Li278 1.970 . S
O339 Li279 1.956 . S
O339 C314 1.325 . S
H340 C282 0.929 . S
H341 C283 0.930 . S
H342 C284 0.930 . S
H343 C285 0.930 . S
H344 C287 0.930 . S
H345 C289 0.929 . S
H346 C290 0.930 . S
H347 C291 0.930 . S
H348 C294 0.930 . S
H349 C297 0.929 . S
H350 C302 0.929 . S
H351 C303 0.930 . S
H352 C310 0.929 . S
H353 C311 0.930 . S
H354 C312 0.930 . S
H355 C313 0.930 . S
H356 C315 0.929 . S
H357 C316 0.930 . S
H358 C317 0.930 . S
H359 C318 0.930 . S
H360 C322 0.929 . S
H361 C324 0.930 . S
H362 C330 0.929 . S
H363 C331 0.930 . S
Li364 N381 1.990 . S
Li364 O424 1.956 . S
Li364 O425 1.970 . S
Li364 O426 1.961 . S
Li365 N389 1.990 . S
Li365 O424 1.970 . S
Li365 O425 1.956 . S
Li365 O427 1.961 . S
Li366 N411 1.990 . S
Li366 O424 1.961 . S
Li366 O426 1.956 . S
Li366 O427 1.970 . S
Li367 N417 1.990 . S
Li367 O425 1.961 . S
Li367 O426 1.970 . S
Li367 O427 1.956 . S
C368 C370 1.348 . S
C368 C371 1.356 . S
C368 O424 1.325 . S
N369 C372 1.314 . S
N369 C373 1.279 . S
C370 C368 1.348 . S
C370 C372 1.353 . S
C370 H428 0.929 . S
C371 C368 1.356 . S
C371 C373 1.358 . S
C371 H429 0.930 . S
C372 N369 1.314 . S
C372 C370 1.353 . S
C372 H430 0.930 . S
C373 N369 1.279 . S
C373 C371 1.358 . S
C373 H431 0.930 . S
C374 C377 1.348 . S
C374 C378 1.356 . S
C374 O425 1.325 . S
C375 N376 1.279 . S
C375 C378 1.358 . S
C375 H432 0.930 . S
N376 C375 1.279 . S
N376 C379 1.314 . S
C377 C374 1.348 . S
C377 C379 1.353 . S
C377 H433 0.929 . S
C378 C374 1.356 . S
C378 C375 1.358 . S
C378 H434 0.930 . S
C379 N376 1.314 . S
C379 C377 1.353 . S
C379 H435 0.930 . S
C380 N381 1.314 . S
C380 C385 1.353 . S
C380 H386 0.930 . S
N381 Li364 1.990 . S
N381 C380 1.314 . S
N381 C383 1.279 . S
C382 C383 1.358 . S
C382 C384 1.356 . S
C382 H436 0.930 . S
C383 N381 1.279 . S
C383 C382 1.358 . S
C383 H387 0.930 . S
C384 C382 1.356 . S
C384 C385 1.348 . S
C385 C380 1.353 . S
C385 C384 1.348 . S
C385 H437 0.929 . S
H386 C380 0.930 . S
H387 C383 0.930 . S
C388 N389 1.314 . S
C388 C390 1.353 . S
C388 H394 0.930 . S
N389 Li365 1.990 . S
N389 C388 1.314 . S
N389 C392 1.279 . S
C390 C388 1.353 . S
C390 C393 1.348 . S
C390 H438 0.929 . S
C391 C392 1.358 . S
C391 C393 1.356 . S
C391 H439 0.930 . S
C392 N389 1.279 . S
C392 C391 1.358 . S
C392 H395 0.930 . S
C393 C390 1.348 . S
C393 C391 1.356 . S
H394 C388 0.930 . S
H395 C392 0.930 . S
C396 C398 1.348 . S
C396 C399 1.356 . S
C396 O426 1.325 . S
N397 C400 1.314 . S
N397 C401 1.279 . S
C398 C396 1.348 . S
C398 C400 1.353 . S
C398 H440 0.929 . S
C399 C396 1.356 . S
C399 C401 1.358 . S
C399 H441 0.930 . S
C400 N397 1.314 . S
C400 C398 1.353 . S
C400 H442 0.930 . S
C401 N397 1.279 . S
C401 C399 1.358 . S
C401 H443 0.930 . S
C402 C403 1.348 . S
C402 C404 1.356 . S
C402 O427 1.325 . S
C403 C402 1.348 . S
C403 C405 1.353 . S
C403 H444 0.929 . S
C404 C402 1.356 . S
C404 C406 1.358 . S
C404 H445 0.930 . S
C405 C403 1.353 . S
C405 N407 1.314 . S
C405 H446 0.930 . S
C406 C404 1.358 . S
C406 N407 1.279 . S
C406 H447 0.930 . S
N407 C405 1.314 . S
N407 C406 1.279 . S
C408 C410 1.353 . S
C408 N411 1.314 . S
C408 H414 0.930 . S
C409 N411 1.279 . S
C409 C412 1.358 . S
C409 H415 0.930 . S
C410 C408 1.353 . S
C410 C413 1.348 . S
C410 H448 0.929 . S
N411 Li366 1.990 . S
N411 C408 1.314 . S
N411 C409 1.279 . S
C412 C409 1.358 . S
C412 C413 1.356 . S
C412 H449 0.930 . S
C413 C410 1.348 . S
C413 C412 1.356 . S
H414 C408 0.930 . S
H415 C409 0.930 . S
C416 N417 1.314 . S
C416 C418 1.353 . S
C416 H422 0.930 . S
N417 Li367 1.990 . S
N417 C416 1.314 . S
N417 C420 1.279 . S
C418 C416 1.353 . S
C418 C421 1.348 . S
C418 H450 0.929 . S
C419 C420 1.358 . S
C419 C421 1.356 . S
C419 H451 0.930 . S
C420 N417 1.279 . S
C420 C419 1.358 . S
C420 H423 0.930 . S
C421 C418 1.348 . S
C421 C419 1.356 . S
H422 C416 0.930 . S
H423 C420 0.930 . S
O424 Li364 1.956 . S
O424 Li365 1.970 . S
O424 Li366 1.961 . S
O424 C368 1.325 . S
O425 Li364 1.970 . S
O425 Li365 1.956 . S
O425 Li367 1.961 . S
O425 C374 1.325 . S
O426 Li364 1.961 . S
O426 Li366 1.956 . S
O426 Li367 1.970 . S
O426 C396 1.325 . S
O427 Li365 1.961 . S
O427 Li366 1.970 . S
O427 Li367 1.956 . S
O427 C402 1.325 . S
H428 C370 0.929 . S
H429 C371 0.930 . S
H430 C372 0.930 . S
H431 C373 0.930 . S
H432 C375 0.930 . S
H433 C377 0.929 . S
H434 C378 0.930 . S
H435 C379 0.930 . S
H436 C382 0.930 . S
H437 C385 0.929 . S
H438 C390 0.929 . S
H439 C391 0.930 . S
H440 C398 0.929 . S
H441 C399 0.930 . S
H442 C400 0.930 . S
H443 C401 0.930 . S
H444 C403 0.929 . S
H445 C404 0.930 . S
H446 C405 0.930 . S
H447 C406 0.930 . S
H448 C410 0.929 . S
H449 C412 0.930 . S
H450 C418 0.929 . S
H451 C419 0.930 . S
Li452 N469 1.990 . S
Li452 O512 1.956 . S
Li452 O513 1.970 . S
Li452 O514 1.961 . S
Li453 N477 1.990 . S
Li453 O512 1.970 . S
Li453 O513 1.956 . S
Li453 O515 1.961 . S
Li454 N499 1.990 . S
Li454 O512 1.961 . S
Li454 O514 1.956 . S
Li454 O515 1.970 . S
Li455 N505 1.990 . S
Li455 O513 1.961 . S
Li455 O514 1.970 . S
Li455 O515 1.956 . S
C456 C458 1.348 . S
C456 C459 1.356 . S
C456 O512 1.325 . S
N457 C460 1.314 . S
N457 C461 1.279 . S
C458 C456 1.348 . S
C458 C460 1.353 . S
C458 H516 0.929 . S
C459 C456 1.356 . S
C459 C461 1.358 . S
C459 H517 0.930 . S
C460 N457 1.314 . S
C460 C458 1.353 . S
C460 H518 0.930 . S
C461 N457 1.279 . S
C461 C459 1.358 . S
C461 H519 0.930 . S
C462 C465 1.348 . S
C462 C466 1.356 . S
C462 O513 1.325 . S
C463 N464 1.279 . S
C463 C466 1.358 . S
C463 H520 0.930 . S
N464 C463 1.279 . S
N464 C467 1.314 . S
C465 C462 1.348 . S
C465 C467 1.353 . S
C465 H521 0.929 . S
C466 C462 1.356 . S
C466 C463 1.358 . S
C466 H522 0.930 . S
C467 N464 1.314 . S
C467 C465 1.353 . S
C467 H523 0.930 . S
C468 N469 1.314 . S
C468 C473 1.353 . S
C468 H474 0.930 . S
N469 Li452 1.990 . S
N469 C468 1.314 . S
N469 C471 1.279 . S
C470 C471 1.358 . S
C470 C472 1.356 . S
C470 H524 0.930 . S
C471 N469 1.279 . S
C471 C470 1.358 . S
C471 H475 0.930 . S
C472 C470 1.356 . S
C472 C473 1.348 . S
C473 C468 1.353 . S
C473 C472 1.348 . S
C473 H525 0.929 . S
H474 C468 0.930 . S
H475 C471 0.930 . S
C476 N477 1.314 . S
C476 C478 1.353 . S
C476 H482 0.930 . S
N477 Li453 1.990 . S
N477 C476 1.314 . S
N477 C480 1.279 . S
C478 C476 1.353 . S
C478 C481 1.348 . S
C478 H526 0.929 . S
C479 C480 1.358 . S
C479 C481 1.356 . S
C479 H527 0.930 . S
C480 N477 1.279 . S
C480 C479 1.358 . S
C480 H483 0.930 . S
C481 C478 1.348 . S
C481 C479 1.356 . S
H482 C476 0.930 . S
H483 C480 0.930 . S
C484 C486 1.348 . S
C484 C487 1.356 . S
C484 O514 1.325 . S
N485 C488 1.314 . S
N485 C489 1.279 . S
C486 C484 1.348 . S
C486 C488 1.353 . S
C486 H528 0.929 . S
C487 C484 1.356 . S
C487 C489 1.358 . S
C487 H529 0.930 . S
C488 N485 1.314 . S
C488 C486 1.353 . S
C488 H530 0.930 . S
C489 N485 1.279 . S
C489 C487 1.358 . S
C489 H531 0.930 . S
C490 C491 1.348 . S
C490 C492 1.356 . S
C490 O515 1.325 . S
C491 C490 1.348 . S
C491 C493 1.353 . S
C491 H532 0.929 . S
C492 C490 1.356 . S
C492 C494 1.358 . S
C492 H533 0.930 . S
C493 C491 1.353 . S
C493 N495 1.314 . S
C493 H534 0.930 . S
C494 C492 1.358 . S
C494 N495 1.279 . S
C494 H535 0.930 . S
N495 C493 1.314 . S
N495 C494 1.279 . S
C496 C498 1.353 . S
C496 N499 1.314 . S
C496 H502 0.930 . S
C497 N499 1.279 . S
C497 C500 1.358 . S
C497 H503 0.930 . S
C498 C496 1.353 . S
C498 C501 1.348 . S
C498 H536 0.929 . S
N499 Li454 1.990 . S
N499 C496 1.314 . S
N499 C497 1.279 . S
C500 C497 1.358 . S
C500 C501 1.356 . S
C500 H537 0.930 . S
C501 C498 1.348 . S
C501 C500 1.356 . S
H502 C496 0.930 . S
H503 C497 0.930 . S
C504 N505 1.314 . S
C504 C506 1.353 . S
C504 H510 0.930 . S
N505 Li455 1.990 . S
N505 C504 1.314 . S
N505 C508 1.279 . S
C506 C504 1.353 . S
C506 C509 1.348 . S
C506 H538 0.929 . S
C507 C508 1.358 . S
C507 C509 1.356 . S
C507 H539 0.930 . S
C508 N505 1.279 . S
C508 C507 1.358 . S
C508 H511 0.930 . S
C509 C506 1.348 . S
C509 C507 1.356 . S
H510 C504 0.930 . S
H511 C508 0.930 . S
O512 Li452 1.956 . S
O512 Li453 1.970 . S
O512 Li454 1.961 . S
O512 C456 1.325 . S
O513 Li452 1.970 . S
O513 Li453 1.956 . S
O513 Li455 1.961 . S
O513 C462 1.325 . S
O514 Li452 1.961 . S
O514 Li454 1.956 . S
O514 Li455 1.970 . S
O514 C484 1.325 . S
O515 Li453 1.961 . S
O515 Li454 1.970 . S
O515 Li455 1.956 . S
O515 C490 1.325 . S
H516 C458 0.929 . S
H517 C459 0.930 . S
H518 C460 0.930 . S
H519 C461 0.930 . S
H520 C463 0.930 . S
H521 C465 0.929 . S
H522 C466 0.930 . S
H523 C467 0.930 . S
H524 C470 0.930 . S
H525 C473 0.929 . S
H526 C478 0.929 . S
H527 C479 0.930 . S
H528 C486 0.929 . S
H529 C487 0.930 . S
H530 C488 0.930 . S
H531 C489 0.930 . S
H532 C491 0.929 . S
H533 C492 0.930 . S
H534 C493 0.930 . S
H535 C494 0.930 . S
H536 C498 0.929 . S
H537 C500 0.930 . S
H538 C506 0.929 . S
H539 C507 0.930 . S
Li540 N557 1.990 . S
Li540 O600 1.956 . S
Li540 O601 1.970 . S
Li540 O602 1.961 . S
Li541 N565 1.990 . S
Li541 O600 1.970 . S
Li541 O601 1.956 . S
Li541 O603 1.961 . S
Li542 N587 1.990 . S
Li542 O600 1.961 . S
Li542 O602 1.956 . S
Li542 O603 1.970 . S
Li543 N593 1.990 . S
Li543 O601 1.961 . S
Li543 O602 1.970 . S
Li543 O603 1.956 . S
C544 C546 1.348 . S
C544 C547 1.356 . S
C544 O600 1.325 . S
N545 C548 1.314 . S
N545 C549 1.279 . S
C546 C544 1.348 . S
C546 C548 1.353 . S
C546 H604 0.929 . S
C547 C544 1.356 . S
C547 C549 1.358 . S
C547 H605 0.930 . S
C548 N545 1.314 . S
C548 C546 1.353 . S
C548 H606 0.930 . S
C549 N545 1.279 . S
C549 C547 1.358 . S
C549 H607 0.930 . S
C550 C553 1.348 . S
C550 C554 1.356 . S
C550 O601 1.325 . S
C551 N552 1.279 . S
C551 C554 1.358 . S
C551 H608 0.930 . S
N552 C551 1.279 . S
N552 C555 1.314 . S
C553 C550 1.348 . S
C553 C555 1.353 . S
C553 H609 0.929 . S
C554 C550 1.356 . S
C554 C551 1.358 . S
C554 H610 0.930 . S
C555 N552 1.314 . S
C555 C553 1.353 . S
C555 H611 0.930 . S
C556 N557 1.314 . S
C556 C561 1.353 . S
C556 H562 0.930 . S
N557 Li540 1.990 . S
N557 C556 1.314 . S
N557 C559 1.279 . S
C558 C559 1.358 . S
C558 C560 1.356 . S
C558 H612 0.930 1_556 S
C559 N557 1.279 . S
C559 C558 1.358 . S
C559 H563 0.930 . S
C560 C558 1.356 . S
C560 C561 1.348 . S
C561 C556 1.353 . S
C561 C560 1.348 . S
C561 H613 0.929 . S
H562 C556 0.930 . S
H563 C559 0.930 . S
C564 N565 1.314 . S
C564 C566 1.353 . S
C564 H570 0.930 . S
N565 Li541 1.990 . S
N565 C564 1.314 . S
N565 C568 1.279 . S
C566 C564 1.353 . S
C566 C569 1.348 . S
C566 H614 0.929 . S
C567 C568 1.358 . S
C567 C569 1.356 . S
C567 H615 0.930 . S
C568 N565 1.279 . S
C568 C567 1.358 . S
C568 H571 0.930 . S
C569 C566 1.348 . S
C569 C567 1.356 . S
H570 C564 0.930 . S
H571 C568 0.930 . S
C572 C574 1.348 . S
C572 C575 1.356 . S
C572 O602 1.325 . S
N573 C576 1.314 . S
N573 C577 1.279 . S
C574 C572 1.348 . S
C574 C576 1.353 . S
C574 H616 0.929 . S
C575 C572 1.356 . S
C575 C577 1.358 . S
C575 H617 0.930 . S
C576 N573 1.314 . S
C576 C574 1.353 . S
C576 H618 0.930 . S
C577 N573 1.279 . S
C577 C575 1.358 . S
C577 H619 0.930 . S
C578 C579 1.348 . S
C578 C580 1.356 . S
C578 O603 1.325 . S
C579 C578 1.348 . S
C579 C581 1.353 . S
C579 H620 0.929 . S
C580 C578 1.356 . S
C580 C582 1.358 . S
C580 H621 0.930 . S
C581 C579 1.353 . S
C581 N583 1.314 . S
C581 H622 0.930 . S
C582 C580 1.358 . S
C582 N583 1.279 . S
C582 H623 0.930 . S
N583 C581 1.314 . S
N583 C582 1.279 . S
C584 C586 1.353 . S
C584 N587 1.314 . S
C584 H590 0.930 . S
C585 N587 1.279 . S
C585 C588 1.358 . S
C585 H591 0.930 . S
C586 C584 1.353 . S
C586 C589 1.348 . S
C586 H624 0.929 . S
N587 Li542 1.990 . S
N587 C584 1.314 . S
N587 C585 1.279 . S
C588 C585 1.358 . S
C588 C589 1.356 . S
C588 H625 0.930 . S
C589 C586 1.348 . S
C589 C588 1.356 . S
H590 C584 0.930 . S
H591 C585 0.930 . S
C592 N593 1.314 . S
C592 C594 1.353 . S
C592 H598 0.930 . S
N593 Li543 1.990 . S
N593 C592 1.314 . S
N593 C596 1.279 . S
C594 C592 1.353 . S
C594 C597 1.348 . S
C594 H626 0.929 . S
C595 C596 1.358 . S
C595 C597 1.356 . S
C595 H627 0.930 . S
C596 N593 1.279 . S
C596 C595 1.358 . S
C596 H599 0.930 . S
C597 C594 1.348 . S
C597 C595 1.356 . S
H598 C592 0.930 . S
H599 C596 0.930 . S
O600 Li540 1.956 . S
O600 Li541 1.970 . S
O600 Li542 1.961 . S
O600 C544 1.325 . S
O601 Li540 1.970 . S
O601 Li541 1.956 . S
O601 Li543 1.961 . S
O601 C550 1.325 . S
O602 Li540 1.961 . S
O602 Li542 1.956 . S
O602 Li543 1.970 . S
O602 C572 1.325 . S
O603 Li541 1.961 . S
O603 Li542 1.970 . S
O603 Li543 1.956 . S
O603 C578 1.325 . S
H604 C546 0.929 . S
H605 C547 0.930 . S
H606 C548 0.930 . S
H607 C549 0.930 . S
H608 C551 0.930 . S
H609 C553 0.929 . S
H610 C554 0.930 . S
H611 C555 0.930 . S
H612 C558 0.930 1_554 S
H613 C561 0.929 . S
H614 C566 0.929 . S
H615 C567 0.930 . S
H616 C574 0.929 . S
H617 C575 0.930 . S
H618 C576 0.930 . S
H619 C577 0.930 . S
H620 C579 0.929 . S
H621 C580 0.930 . S
H622 C581 0.930 . S
H623 C582 0.930 . S
H624 C586 0.929 . S
H625 C588 0.930 . S
H626 C594 0.929 . S
H627 C595 0.930 . S
Li628 N645 1.990 . S
Li628 O688 1.956 . S
Li628 O689 1.970 . S
Li628 O690 1.961 . S
Li629 N653 1.990 . S
Li629 O688 1.970 . S
Li629 O689 1.956 . S
Li629 O691 1.961 . S
Li630 N675 1.990 . S
Li630 O688 1.961 . S
Li630 O690 1.956 . S
Li630 O691 1.970 . S
Li631 N681 1.990 . S
Li631 O689 1.961 . S
Li631 O690 1.970 . S
Li631 O691 1.956 . S
C632 C634 1.348 . S
C632 C635 1.356 . S
C632 O688 1.325 . S
N633 C636 1.314 . S
N633 C637 1.279 . S
C634 C632 1.348 . S
C634 C636 1.353 . S
C634 H692 0.929 . S
C635 C632 1.356 . S
C635 C637 1.358 . S
C635 H693 0.930 . S
C636 N633 1.314 . S
C636 C634 1.353 . S
C636 H694 0.930 . S
C637 N633 1.279 . S
C637 C635 1.358 . S
C637 H695 0.930 . S
C638 C641 1.348 . S
C638 C642 1.356 . S
C638 O689 1.325 . S
C639 N640 1.279 . S
C639 C642 1.358 . S
C639 H696 0.930 . S
N640 C639 1.279 . S
N640 C643 1.314 . S
C641 C638 1.348 . S
C641 C643 1.353 . S
C641 H697 0.929 . S
C642 C638 1.356 . S
C642 C639 1.358 . S
C642 H698 0.930 . S
C643 N640 1.314 . S
C643 C641 1.353 . S
C643 H699 0.930 . S
C644 N645 1.314 . S
C644 C649 1.353 . S
C644 H650 0.930 . S
N645 Li628 1.990 . S
N645 C644 1.314 . S
N645 C647 1.279 . S
C646 C647 1.358 . S
C646 C648 1.356 . S
C646 H700 0.930 . S
C647 N645 1.279 . S
C647 C646 1.358 . S
C647 H651 0.930 . S
C648 C646 1.356 . S
C648 C649 1.348 . S
C649 C644 1.353 . S
C649 C648 1.348 . S
C649 H701 0.929 . S
H650 C644 0.930 . S
H651 C647 0.930 . S
C652 N653 1.314 . S
C652 C654 1.353 . S
C652 H658 0.930 . S
N653 Li629 1.990 . S
N653 C652 1.314 . S
N653 C656 1.279 . S
C654 C652 1.353 . S
C654 C657 1.348 . S
C654 H702 0.929 . S
C655 C656 1.358 . S
C655 C657 1.356 . S
C655 H703 0.930 . S
C656 N653 1.279 . S
C656 C655 1.358 . S
C656 H659 0.930 . S
C657 C654 1.348 . S
C657 C655 1.356 . S
H658 C652 0.930 . S
H659 C656 0.930 . S
C660 C662 1.348 . S
C660 C663 1.356 . S
C660 O690 1.325 . S
N661 C664 1.314 . S
N661 C665 1.279 . S
C662 C660 1.348 . S
C662 C664 1.353 . S
C662 H704 0.929 . S
C663 C660 1.356 . S
C663 C665 1.358 . S
C663 H705 0.930 . S
C664 N661 1.314 . S
C664 C662 1.353 . S
C664 H706 0.930 . S
C665 N661 1.279 . S
C665 C663 1.358 . S
C665 H707 0.930 . S
C666 C667 1.348 . S
C666 C668 1.356 . S
C666 O691 1.325 . S
C667 C666 1.348 . S
C667 C669 1.353 . S
C667 H708 0.929 . S
C668 C666 1.356 . S
C668 C670 1.358 . S
C668 H709 0.930 . S
C669 C667 1.353 . S
C669 N671 1.314 . S
C669 H710 0.930 . S
C670 C668 1.358 . S
C670 N671 1.279 . S
C670 H711 0.930 . S
N671 C669 1.314 . S
N671 C670 1.279 . S
C672 C674 1.353 . S
C672 N675 1.314 . S
C672 H678 0.930 . S
C673 N675 1.279 . S
C673 C676 1.358 1_554 S
C673 H679 0.930 . S
C674 C672 1.353 . S
C674 C677 1.348 1_554 S
C674 H712 0.929 . S
N675 Li630 1.990 . S
N675 C672 1.314 . S
N675 C673 1.279 . S
C676 C673 1.358 1_556 S
C676 C677 1.356 . S
C676 H713 0.930 . S
C677 C674 1.348 1_556 S
C677 C676 1.356 . S
H678 C672 0.930 . S
H679 C673 0.930 . S
C680 N681 1.314 . S
C680 C682 1.353 . S
C680 H686 0.930 . S
N681 Li631 1.990 . S
N681 C680 1.314 . S
N681 C684 1.279 . S
C682 C680 1.353 . S
C682 C685 1.348 . S
C682 H714 0.929 . S
C683 C684 1.358 . S
C683 C685 1.356 . S
C683 H715 0.930 . S
C684 N681 1.279 . S
C684 C683 1.358 . S
C684 H687 0.930 . S
C685 C682 1.348 . S
C685 C683 1.356 . S
H686 C680 0.930 . S
H687 C684 0.930 . S
O688 Li628 1.956 . S
O688 Li629 1.970 . S
O688 Li630 1.961 . S
O688 C632 1.325 . S
O689 Li628 1.970 . S
O689 Li629 1.956 . S
O689 Li631 1.961 . S
O689 C638 1.325 . S
O690 Li628 1.961 . S
O690 Li630 1.956 . S
O690 Li631 1.970 . S
O690 C660 1.325 . S
O691 Li629 1.961 . S
O691 Li630 1.970 . S
O691 Li631 1.956 . S
O691 C666 1.325 . S
H692 C634 0.929 . S
H693 C635 0.930 . S
H694 C636 0.930 . S
H695 C637 0.930 . S
H696 C639 0.930 . S
H697 C641 0.929 . S
H698 C642 0.930 . S
H699 C643 0.930 . S
H700 C646 0.930 . S
H701 C649 0.929 . S
H702 C654 0.929 . S
H703 C655 0.930 . S
H704 C662 0.929 . S
H705 C663 0.930 . S
H706 C664 0.930 . S
H707 C665 0.930 . S
H708 C667 0.929 . S
H709 C668 0.930 . S
H710 C669 0.930 . S
H711 C670 0.930 . S
H712 C674 0.929 . S
H713 C676 0.930 . S
H714 C682 0.929 . S
H715 C683 0.930 . S
Li716 N733 1.990 . S
Li716 O776 1.956 . S
Li716 O777 1.970 . S
Li716 O778 1.961 . S
Li717 N741 1.990 . S
Li717 O776 1.970 . S
Li717 O777 1.956 . S
Li717 O779 1.961 . S
Li718 N763 1.990 . S
Li718 O776 1.961 . S
Li718 O778 1.956 . S
Li718 O779 1.970 . S
Li719 N769 1.990 . S
Li719 O777 1.961 . S
Li719 O778 1.970 . S
Li719 O779 1.956 . S
C720 C722 1.348 . S
C720 C723 1.356 . S
C720 O776 1.325 . S
N721 C724 1.314 . S
N721 C725 1.279 . S
C722 C720 1.348 . S
C722 C724 1.353 . S
C722 H780 0.929 . S
C723 C720 1.356 . S
C723 C725 1.358 . S
C723 H781 0.930 . S
C724 N721 1.314 . S
C724 C722 1.353 . S
C724 H782 0.930 . S
C725 N721 1.279 . S
C725 C723 1.358 . S
C725 H783 0.930 . S
C726 C729 1.348 . S
C726 C730 1.356 . S
C726 O777 1.325 . S
C727 N728 1.279 . S
C727 C730 1.358 . S
C727 H784 0.930 . S
N728 C727 1.279 . S
N728 C731 1.314 . S
C729 C726 1.348 . S
C729 C731 1.353 . S
C729 H785 0.929 . S
C730 C726 1.356 . S
C730 C727 1.358 . S
C730 H786 0.930 . S
C731 N728 1.314 . S
C731 C729 1.353 . S
C731 H787 0.930 . S
C732 N733 1.314 . S
C732 C737 1.353 . S
C732 H738 0.930 . S
N733 Li716 1.990 . S
N733 C732 1.314 . S
N733 C735 1.279 . S
C734 C735 1.358 . S
C734 C736 1.356 . S
C734 H788 0.930 . S
C735 N733 1.279 . S
C735 C734 1.358 . S
C735 H739 0.930 . S
C736 C734 1.356 . S
C736 C737 1.348 . S
C737 C732 1.353 . S
C737 C736 1.348 . S
C737 H789 0.929 . S
H738 C732 0.930 . S
H739 C735 0.930 . S
C740 N741 1.314 . S
C740 C742 1.353 . S
C740 H746 0.930 . S
N741 Li717 1.990 . S
N741 C740 1.314 . S
N741 C744 1.279 . S
C742 C740 1.353 . S
C742 C745 1.348 . S
C742 H790 0.929 . S
C743 C744 1.358 . S
C743 C745 1.356 . S
C743 H791 0.930 . S
C744 N741 1.279 . S
C744 C743 1.358 . S
C744 H747 0.930 . S
C745 C742 1.348 . S
C745 C743 1.356 . S
H746 C740 0.930 . S
H747 C744 0.930 . S
C748 C750 1.348 . S
C748 C751 1.356 . S
C748 O778 1.325 . S
N749 C752 1.314 . S
N749 C753 1.279 . S
C750 C748 1.348 . S
C750 C752 1.353 . S
C750 H792 0.929 . S
C751 C748 1.356 . S
C751 C753 1.358 . S
C751 H793 0.930 . S
C752 N749 1.314 . S
C752 C750 1.353 . S
C752 H794 0.930 . S
C753 N749 1.279 . S
C753 C751 1.358 . S
C753 H795 0.930 . S
C754 C755 1.348 . S
C754 C756 1.356 . S
C754 O779 1.325 . S
C755 C754 1.348 . S
C755 C757 1.353 . S
C755 H796 0.929 . S
C756 C754 1.356 . S
C756 C758 1.358 . S
C756 H797 0.930 . S
C757 C755 1.353 . S
C757 N759 1.314 . S
C757 H798 0.930 . S
C758 C756 1.358 . S
C758 N759 1.279 . S
C758 H799 0.930 . S
N759 C757 1.314 . S
N759 C758 1.279 . S
C760 C762 1.353 . S
C760 N763 1.314 . S
C760 H766 0.930 . S
C761 N763 1.279 . S
C761 C764 1.358 . S
C761 H767 0.930 . S
C762 C760 1.353 . S
C762 C765 1.348 . S
C762 H800 0.929 . S
N763 Li718 1.990 . S
N763 C760 1.314 . S
N763 C761 1.279 . S
C764 C761 1.358 . S
C764 C765 1.356 . S
C764 H801 0.930 . S
C765 C762 1.348 . S
C765 C764 1.356 . S
H766 C760 0.930 . S
H767 C761 0.930 . S
C768 N769 1.314 . S
C768 C770 1.353 . S
C768 H774 0.930 . S
N769 Li719 1.990 . S
N769 C768 1.314 . S
N769 C772 1.279 . S
C770 C768 1.353 . S
C770 C773 1.348 . S
C770 H802 0.929 . S
C771 C772 1.358 . S
C771 C773 1.356 . S
C771 H803 0.930 . S
C772 N769 1.279 . S
C772 C771 1.358 . S
C772 H775 0.930 . S
C773 C770 1.348 . S
C773 C771 1.356 . S
H774 C768 0.930 . S
H775 C772 0.930 . S
O776 Li716 1.956 . S
O776 Li717 1.970 . S
O776 Li718 1.961 . S
O776 C720 1.325 . S
O777 Li716 1.970 . S
O777 Li717 1.956 . S
O777 Li719 1.961 . S
O777 C726 1.325 . S
O778 Li716 1.961 . S
O778 Li718 1.956 . S
O778 Li719 1.970 . S
O778 C748 1.325 . S
O779 Li717 1.961 . S
O779 Li718 1.970 . S
O779 Li719 1.956 . S
O779 C754 1.325 . S
H780 C722 0.929 . S
H781 C723 0.930 . S
H782 C724 0.930 . S
H783 C725 0.930 . S
H784 C727 0.930 . S
H785 C729 0.929 . S
H786 C730 0.930 . S
H787 C731 0.930 . S
H788 C734 0.930 . S
H789 C737 0.929 . S
H790 C742 0.929 . S
H791 C743 0.930 . S
H792 C750 0.929 . S
H793 C751 0.930 . S
H794 C752 0.930 . S
H795 C753 0.930 . S
H796 C755 0.929 . S
H797 C756 0.930 . S
H798 C757 0.930 . S
H799 C758 0.930 . S
H800 C762 0.929 . S
H801 C764 0.930 . S
H802 C770 0.929 . S
H803 C771 0.930 . S
H804 C810 0.930 . S
H805 C813 0.930 . S
H806 C814 0.930 . S
H807 C815 0.930 . S
H808 C818 0.930 . S
H809 C819 0.930 . S
C810 H804 0.930 . S
C810 C811 1.355 . S
C810 C812 1.415 . S
C811 C810 1.355 . S
C811 C813 1.419 . S
C812 C810 1.415 . S
C812 C817 1.425 . S
C812 C819 1.409 . S
C813 H805 0.930 . S
C813 C811 1.419 . S
C813 C814 1.362 . S
C814 H806 0.930 . S
C814 C813 1.362 . S
C814 C817 1.409 . S
C815 H807 0.930 . S
C815 C816 1.355 . S
C815 C817 1.415 . S
C816 C815 1.355 . S
C816 C818 1.419 . S
C817 C812 1.425 . S
C817 C814 1.409 . S
C817 C815 1.415 . S
C818 H808 0.930 . S
C818 C816 1.419 . S
C818 C819 1.362 . S
C819 H809 0.930 . S
C819 C812 1.409 . S
C819 C818 1.362 . S
H820 C826 0.930 . S
H821 C829 0.930 . S
H822 C830 0.930 . S
H823 C831 0.930 . S
H824 C834 0.930 . S
H825 C835 0.930 . S
C826 H820 0.930 . S
C826 C827 1.355 . S
C826 C828 1.415 . S
C827 C826 1.355 . S
C827 C829 1.419 . S
C828 C826 1.415 . S
C828 C833 1.425 . S
C828 C835 1.409 . S
C829 H821 0.930 . S
C829 C827 1.419 . S
C829 C830 1.362 . S
C830 H822 0.930 . S
C830 C829 1.362 . S
C830 C833 1.409 . S
C831 H823 0.930 . S
C831 C832 1.355 . S
C831 C833 1.415 . S
C832 C831 1.355 . S
C832 C834 1.419 . S
C833 C828 1.425 . S
C833 C830 1.409 . S
C833 C831 1.415 . S
C834 H824 0.930 . S
C834 C832 1.419 . S
C834 C835 1.362 . S
C835 H825 0.930 . S
C835 C828 1.409 . S
C835 C834 1.362 . S
H836 C842 0.930 . S
H837 C845 0.930 . S
H838 C846 0.930 . S
H839 C847 0.930 . S
H840 C850 0.930 . S
H841 C851 0.930 . S
C842 H836 0.930 . S
C842 C843 1.355 . S
C842 C844 1.415 . S
C843 C842 1.355 . S
C843 C845 1.419 . S
C844 C842 1.415 . S
C844 C849 1.425 . S
C844 C851 1.409 . S
C845 H837 0.930 . S
C845 C843 1.419 . S
C845 C846 1.362 . S
C846 H838 0.930 . S
C846 C845 1.362 . S
C846 C849 1.409 . S
C847 H839 0.930 . S
C847 C848 1.355 . S
C847 C849 1.415 . S
C848 C847 1.355 . S
C848 C850 1.419 . S
C849 C844 1.425 . S
C849 C846 1.409 . S
C849 C847 1.415 . S
C850 H840 0.930 . S
C850 C848 1.419 . S
C850 C851 1.362 . S
C851 H841 0.930 . S
C851 C844 1.409 . S
C851 C850 1.362 . S
H852 C858 0.930 . S
H853 C861 0.930 . S
H854 C862 0.930 . S
H855 C863 0.930 . S
H856 C866 0.930 . S
H857 C867 0.930 . S
C858 H852 0.930 . S
C858 C859 1.355 . S
C858 C860 1.415 . S
C859 C858 1.355 . S
C859 C861 1.419 . S
C860 C858 1.415 . S
C860 C865 1.425 . S
C860 C867 1.409 . S
C861 H853 0.930 . S
C861 C859 1.419 . S
C861 C862 1.362 . S
C862 H854 0.930 . S
C862 C861 1.362 . S
C862 C865 1.409 . S
C863 H855 0.930 . S
C863 C864 1.355 . S
C863 C865 1.415 . S
C864 C863 1.355 . S
C864 C866 1.419 . S
C865 C860 1.425 . S
C865 C862 1.409 . S
C865 C863 1.415 . S
C866 H856 0.930 . S
C866 C864 1.419 . S
C866 C867 1.362 . S
C867 H857 0.930 . S
C867 C860 1.409 . S
C867 C866 1.362 . S
H868 C874 0.930 . S
H869 C877 0.930 . S
H870 C878 0.930 . S
H871 C879 0.930 . S
H872 C882 0.930 . S
H873 C883 0.930 . S
C874 H868 0.930 . S
C874 C875 1.355 . S
C874 C876 1.415 . S
C875 C874 1.355 . S
C875 C877 1.419 . S
C876 C874 1.415 . S
C876 C881 1.425 . S
C876 C883 1.409 . S
C877 H869 0.930 . S
C877 C875 1.419 . S
C877 C878 1.362 . S
C878 H870 0.930 . S
C878 C877 1.362 . S
C878 C881 1.409 . S
C879 H871 0.930 . S
C879 C880 1.355 . S
C879 C881 1.415 . S
C880 C879 1.355 . S
C880 C882 1.419 . S
C881 C876 1.425 . S
C881 C878 1.409 . S
C881 C879 1.415 . S
C882 H872 0.930 . S
C882 C880 1.419 . S
C882 C883 1.362 . S
C883 H873 0.930 . S
C883 C876 1.409 . S
C883 C882 1.362 . S
H884 C890 0.930 . S
H885 C893 0.930 . S
H886 C894 0.930 . S
H887 C895 0.930 . S
H888 C898 0.930 . S
H889 C899 0.930 . S
C890 H884 0.930 . S
C890 C891 1.355 . S
C890 C892 1.415 . S
C891 C890 1.355 . S
C891 C893 1.419 . S
C892 C890 1.415 . S
C892 C897 1.425 . S
C892 C899 1.409 . S
C893 H885 0.930 . S
C893 C891 1.419 . S
C893 C894 1.362 . S
C894 H886 0.930 . S
C894 C893 1.362 . S
C894 C897 1.409 . S
C895 H887 0.930 . S
C895 C896 1.355 . S
C895 C897 1.415 . S
C896 C895 1.355 . S
C896 C898 1.419 . S
C897 C892 1.425 . S
C897 C894 1.409 . S
C897 C895 1.415 . S
C898 H888 0.930 . S
C898 C896 1.419 . S
C898 C899 1.362 . S
C899 H889 0.930 . S
C899 C892 1.409 . S
C899 C898 1.362 . S
H900 C906 0.930 . S
H901 C909 0.930 . S
H902 C910 0.930 . S
H903 C911 0.930 . S
H904 C914 0.930 . S
H905 C915 0.930 . S
C906 H900 0.930 . S
C906 C907 1.355 . S
C906 C908 1.415 . S
C907 C906 1.355 . S
C907 C909 1.419 . S
C908 C906 1.415 . S
C908 C913 1.425 . S
C908 C915 1.409 . S
C909 H901 0.930 . S
C909 C907 1.419 . S
C909 C910 1.362 . S
C910 H902 0.930 . S
C910 C909 1.362 . S
C910 C913 1.409 . S
C911 H903 0.930 . S
C911 C912 1.355 . S
C911 C913 1.415 . S
C912 C911 1.355 . S
C912 C914 1.419 . S
C913 C908 1.425 . S
C913 C910 1.409 . S
C913 C911 1.415 . S
C914 H904 0.930 . S
C914 C912 1.419 . S
C914 C915 1.362 . S
C915 H905 0.930 . S
C915 C908 1.409 . S
C915 C914 1.362 . S
H916 C922 0.930 . S
H917 C925 0.930 . S
H918 C926 0.930 . S
H919 C927 0.930 . S
H920 C930 0.930 . S
H921 C931 0.930 . S
C922 H916 0.930 . S
C922 C923 1.355 . S
C922 C924 1.415 . S
C923 C922 1.355 . S
C923 C925 1.419 . S
C924 C922 1.415 . S
C924 C929 1.425 . S
C924 C931 1.409 . S
C925 H917 0.930 . S
C925 C923 1.419 . S
C925 C926 1.362 . S
C926 H918 0.930 . S
C926 C925 1.362 . S
C926 C929 1.409 . S
C927 H919 0.930 . S
C927 C928 1.355 . S
C927 C929 1.415 . S
C928 C927 1.355 . S
C928 C930 1.419 . S
C929 C924 1.425 . S
C929 C926 1.409 . S
C929 C927 1.415 . S
C930 H920 0.930 . S
C930 C928 1.419 . S
C930 C931 1.362 . S
C931 H921 0.930 . S
C931 C924 1.409 . S
C931 C930 1.362 . S
H932 C938 0.930 . S
H933 C941 0.930 . S
H934 C942 0.930 . S
H935 C943 0.930 . S
H936 C946 0.930 . S
H937 C947 0.930 . S
C938 H932 0.930 . S
C938 C939 1.355 . S
C938 C940 1.415 . S
C939 C938 1.355 . S
C939 C941 1.419 . S
C940 C938 1.415 . S
C940 C945 1.425 . S
C940 C947 1.409 . S
C941 H933 0.930 . S
C941 C939 1.419 . S
C941 C942 1.362 . S
C942 H934 0.930 . S
C942 C941 1.362 . S
C942 C945 1.409 . S
C943 H935 0.930 . S
C943 C944 1.355 . S
C943 C945 1.415 . S
C944 C943 1.355 . S
C944 C946 1.419 . S
C945 C940 1.425 . S
C945 C942 1.409 . S
C945 C943 1.415 . S
C946 H936 0.930 . S
C946 C944 1.419 . S
C946 C947 1.362 . S
C947 H937 0.930 . S
C947 C940 1.409 . S
C947 C946 1.362 . S
H948 C954 0.930 . S
H949 C957 0.930 . S
H950 C958 0.930 . S
H951 C959 0.930 . S
H952 C962 0.930 . S
H953 C963 0.930 . S
C954 H948 0.930 . S
C954 C955 1.355 . S
C954 C956 1.415 . S
C955 C954 1.355 . S
C955 C957 1.419 . S
C956 C954 1.415 . S
C956 C961 1.425 . S
C956 C963 1.409 . S
C957 H949 0.930 . S
C957 C955 1.419 . S
C957 C958 1.362 . S
C958 H950 0.930 . S
C958 C957 1.362 . S
C958 C961 1.409 . S
C959 H951 0.930 . S
C959 C960 1.355 . S
C959 C961 1.415 . S
C960 C959 1.355 . S
C960 C962 1.419 . S
C961 C956 1.425 . S
C961 C958 1.409 . S
C961 C959 1.415 . S
C962 H952 0.930 . S
C962 C960 1.419 . S
C962 C963 1.362 . S
C963 H953 0.930 . S
C963 C956 1.409 . S
C963 C962 1.362 . S
H964 C970 0.930 . S
H965 C973 0.930 . S
H966 C974 0.930 . S
H967 C975 0.930 . S
H968 C978 0.930 . S
H969 C979 0.930 . S
C970 H964 0.930 . S
C970 C971 1.355 . S
C970 C972 1.415 . S
C971 C970 1.355 . S
C971 C973 1.419 . S
C972 C970 1.415 . S
C972 C977 1.425 . S
C972 C979 1.409 . S
C973 H965 0.930 . S
C973 C971 1.419 . S
C973 C974 1.362 . S
C974 H966 0.930 . S
C974 C973 1.362 . S
C974 C977 1.409 . S
C975 H967 0.930 . S
C975 C976 1.355 . S
C975 C977 1.415 . S
C976 C975 1.355 . S
C976 C978 1.419 . S
C977 C972 1.425 . S
C977 C974 1.409 . S
C977 C975 1.415 . S
C978 H968 0.930 . S
C978 C976 1.419 . S
C978 C979 1.362 . S
C979 H969 0.930 . S
C979 C972 1.409 . S
C979 C978 1.362 . S
H980 C986 0.930 . S
H981 C989 0.930 . S
H982 C990 0.930 . S
H983 C991 0.930 . S
H984 C994 0.930 . S
H985 C995 0.930 . S
C986 H980 0.930 . S
C986 C987 1.355 . S
C986 C988 1.415 . S
C987 C986 1.355 . S
C987 C989 1.419 . S
C988 C986 1.415 . S
C988 C993 1.425 . S
C988 C995 1.409 . S
C989 H981 0.930 . S
C989 C987 1.419 . S
C989 C990 1.362 . S
C990 H982 0.930 . S
C990 C989 1.362 . S
C990 C993 1.409 . S
C991 H983 0.930 . S
C991 C992 1.355 . S
C991 C993 1.415 . S
C992 C991 1.355 . S
C992 C994 1.419 . S
C993 C988 1.425 . S
C993 C990 1.409 . S
C993 C991 1.415 . S
C994 H984 0.930 . S
C994 C992 1.419 . S
C994 C995 1.362 . S
C995 H985 0.930 . S
C995 C988 1.409 . S
C995 C994 1.362 . S
H996 C1002 0.930 . S
H997 C1005 0.930 . S
H998 C1006 0.930 . S
H999 C1007 0.930 . S
H1000 C1010 0.930 . S
H1001 C1011 0.930 . S
C1002 H996 0.930 . S
C1002 C1003 1.355 . S
C1002 C1004 1.415 . S
C1003 C1002 1.355 . S
C1003 C1005 1.419 . S
C1004 C1002 1.415 . S
C1004 C1009 1.425 . S
C1004 C1011 1.409 . S
C1005 H997 0.930 . S
C1005 C1003 1.419 . S
C1005 C1006 1.362 . S
C1006 H998 0.930 . S
C1006 C1005 1.362 . S
C1006 C1009 1.409 . S
C1007 H999 0.930 . S
C1007 C1008 1.355 . S
C1007 C1009 1.415 . S
C1008 C1007 1.355 . S
C1008 C1010 1.419 . S
C1009 C1004 1.425 . S
C1009 C1006 1.409 . S
C1009 C1007 1.415 . S
C1010 H1000 0.930 . S
C1010 C1008 1.419 . S
C1010 C1011 1.362 . S
C1011 H1001 0.930 . S
C1011 C1004 1.409 . S
C1011 C1010 1.362 . S
H1012 C1018 0.930 . S
H1013 C1021 0.930 . S
H1014 C1022 0.930 . S
H1015 C1023 0.930 . S
H1016 C1026 0.930 . S
H1017 C1027 0.930 . S
C1018 H1012 0.930 . S
C1018 C1019 1.355 . S
C1018 C1020 1.415 . S
C1019 C1018 1.355 . S
C1019 C1021 1.419 . S
C1020 C1018 1.415 . S
C1020 C1025 1.425 . S
C1020 C1027 1.409 . S
C1021 H1013 0.930 . S
C1021 C1019 1.419 . S
C1021 C1022 1.362 . S
C1022 H1014 0.930 . S
C1022 C1021 1.362 . S
C1022 C1025 1.409 . S
C1023 H1015 0.930 . S
C1023 C1024 1.355 . S
C1023 C1025 1.415 . S
C1024 C1023 1.355 . S
C1024 C1026 1.419 . S
C1025 C1020 1.425 . S
C1025 C1022 1.409 . S
C1025 C1023 1.415 . S
C1026 H1016 0.930 . S
C1026 C1024 1.419 . S
C1026 C1027 1.362 . S
C1027 H1017 0.930 . S
C1027 C1020 1.409 . S
C1027 C1026 1.362 . S
H1028 C1034 0.930 . S
H1029 C1037 0.930 . S
H1030 C1038 0.930 . S
H1031 C1039 0.930 . S
H1032 C1042 0.930 . S
H1033 C1043 0.930 . S
C1034 H1028 0.930 . S
C1034 C1035 1.355 . S
C1034 C1036 1.415 . S
C1035 C1034 1.355 . S
C1035 C1037 1.419 . S
C1036 C1034 1.415 . S
C1036 C1041 1.425 . S
C1036 C1043 1.409 . S
C1037 H1029 0.930 . S
C1037 C1035 1.419 . S
C1037 C1038 1.362 . S
C1038 H1030 0.930 . S
C1038 C1037 1.362 . S
C1038 C1041 1.409 . S
C1039 H1031 0.930 . S
C1039 C1040 1.355 . S
C1039 C1041 1.415 . S
C1040 C1039 1.355 . S
C1040 C1042 1.419 . S
C1041 C1036 1.425 . S
C1041 C1038 1.409 . S
C1041 C1039 1.415 . S
C1042 H1032 0.930 . S
C1042 C1040 1.419 . S
C1042 C1043 1.362 . S
C1043 H1033 0.930 . S
C1043 C1036 1.409 . S
C1043 C1042 1.362 . S
H1044 C1050 0.930 . S
H1045 C1053 0.930 . S
H1046 C1054 0.930 . S
H1047 C1055 0.930 . S
H1048 C1058 0.930 . S
H1049 C1059 0.930 . S
C1050 H1044 0.930 . S
C1050 C1051 1.355 . S
C1050 C1052 1.415 . S
C1051 C1050 1.355 . S
C1051 C1053 1.419 . S
C1052 C1050 1.415 . S
C1052 C1057 1.425 . S
C1052 C1059 1.409 . S
C1053 H1045 0.930 . S
C1053 C1051 1.419 . S
C1053 C1054 1.362 . S
C1054 H1046 0.930 . S
C1054 C1053 1.362 . S
C1054 C1057 1.409 . S
C1055 H1047 0.930 . S
C1055 C1056 1.355 . S
C1055 C1057 1.415 . S
C1056 C1055 1.355 . S
C1056 C1058 1.419 . S
C1057 C1052 1.425 . S
C1057 C1054 1.409 . S
C1057 C1055 1.415 . S
C1058 H1048 0.930 . S
C1058 C1056 1.419 . S
C1058 C1059 1.362 . S
C1059 H1049 0.930 . S
C1059 C1052 1.409 . S
C1059 C1058 1.362 . S
H1060 C1066 0.930 . S
H1061 C1069 0.930 . S
H1062 C1070 0.930 . S
H1063 C1071 0.930 . S
H1064 C1074 0.930 . S
H1065 C1075 0.930 . S
C1066 H1060 0.930 . S
C1066 C1067 1.355 . S
C1066 C1068 1.415 . S
C1067 C1066 1.355 . S
C1067 C1069 1.419 . S
C1068 C1066 1.415 . S
C1068 C1073 1.425 . S
C1068 C1075 1.409 . S
C1069 H1061 0.930 . S
C1069 C1067 1.419 . S
C1069 C1070 1.362 . S
C1070 H1062 0.930 . S
C1070 C1069 1.362 . S
C1070 C1073 1.409 . S
C1071 H1063 0.930 . S
C1071 C1072 1.355 . S
C1071 C1073 1.415 . S
C1072 C1071 1.355 . S
C1072 C1074 1.419 . S
C1073 C1068 1.425 . S
C1073 C1070 1.409 . S
C1073 C1071 1.415 . S
C1074 H1064 0.930 . S
C1074 C1072 1.419 . S
C1074 C1075 1.362 . S
C1075 H1065 0.930 . S
C1075 C1068 1.409 . S
C1075 C1074 1.362 . S
H1076 C1082 0.930 . S
H1077 C1085 0.930 . S
H1078 C1086 0.930 . S
H1079 C1087 0.930 . S
H1080 C1090 0.930 . S
H1081 C1091 0.930 . S
C1082 H1076 0.930 . S
C1082 C1083 1.355 . S
C1082 C1084 1.415 . S
C1083 C1082 1.355 . S
C1083 C1085 1.419 . S
C1084 C1082 1.415 . S
C1084 C1089 1.425 . S
C1084 C1091 1.409 . S
C1085 H1077 0.930 . S
C1085 C1083 1.419 . S
C1085 C1086 1.362 . S
C1086 H1078 0.930 . S
C1086 C1085 1.362 . S
C1086 C1089 1.409 . S
C1087 H1079 0.930 . S
C1087 C1088 1.355 . S
C1087 C1089 1.415 . S
C1088 C1087 1.355 . S
C1088 C1090 1.419 . S
C1089 C1084 1.425 . S
C1089 C1086 1.409 . S
C1089 C1087 1.415 . S
C1090 H1080 0.930 . S
C1090 C1088 1.419 . S
C1090 C1091 1.362 . S
C1091 H1081 0.930 . S
C1091 C1084 1.409 . S
C1091 C1090 1.362 . S
H1092 C1098 0.930 . S
H1093 C1101 0.930 . S
H1094 C1102 0.930 . S
H1095 C1103 0.930 . S
H1096 C1106 0.930 . S
H1097 C1107 0.930 . S
C1098 H1092 0.930 . S
C1098 C1099 1.355 . S
C1098 C1100 1.415 . S
C1099 C1098 1.355 . S
C1099 C1101 1.419 . S
C1100 C1098 1.415 . S
C1100 C1105 1.425 . S
C1100 C1107 1.409 . S
C1101 H1093 0.930 . S
C1101 C1099 1.419 . S
C1101 C1102 1.362 . S
C1102 H1094 0.930 . S
C1102 C1101 1.362 . S
C1102 C1105 1.409 . S
C1103 H1095 0.930 . S
C1103 C1104 1.355 . S
C1103 C1105 1.415 . S
C1104 C1103 1.355 . S
C1104 C1106 1.419 . S
C1105 C1100 1.425 . S
C1105 C1102 1.409 . S
C1105 C1103 1.415 . S
C1106 H1096 0.930 . S
C1106 C1104 1.419 . S
C1106 C1107 1.362 . S
C1107 H1097 0.930 . S
C1107 C1100 1.409 . S
C1107 C1106 1.362 . S
H1108 C1114 0.930 . S
H1109 C1117 0.930 . S
H1110 C1118 0.930 . S
H1111 C1119 0.930 . S
H1112 C1122 0.930 . S
H1113 C1123 0.930 . S
C1114 H1108 0.930 . S
C1114 C1115 1.355 . S
C1114 C1116 1.415 . S
C1115 C1114 1.355 . S
C1115 C1117 1.419 . S
C1116 C1114 1.415 . S
C1116 C1121 1.425 . S
C1116 C1123 1.409 . S
C1117 H1109 0.930 . S
C1117 C1115 1.419 . S
C1117 C1118 1.362 . S
C1118 H1110 0.930 . S
C1118 C1117 1.362 . S
C1118 C1121 1.409 . S
C1119 H1111 0.930 . S
C1119 C1120 1.355 . S
C1119 C1121 1.415 . S
C1120 C1119 1.355 . S
C1120 C1122 1.419 . S
C1121 C1116 1.425 . S
C1121 C1118 1.409 . S
C1121 C1119 1.415 . S
C1122 H1112 0.930 . S
C1122 C1120 1.419 . S
C1122 C1123 1.362 . S
C1123 H1113 0.930 . S
C1123 C1116 1.409 . S
C1123 C1122 1.362 . S
H1124 C1130 0.930 . S
H1125 C1133 0.930 . S
H1126 C1134 0.930 . S
H1127 C1135 0.930 . S
H1128 C1138 0.930 . S
H1129 C1139 0.930 . S
C1130 H1124 0.930 . S
C1130 C1131 1.355 . S
C1130 C1132 1.415 . S
C1131 C1130 1.355 . S
C1131 C1133 1.419 . S
C1132 C1130 1.415 . S
C1132 C1137 1.425 . S
C1132 C1139 1.409 . S
C1133 H1125 0.930 . S
C1133 C1131 1.419 . S
C1133 C1134 1.362 . S
C1134 H1126 0.930 . S
C1134 C1133 1.362 . S
C1134 C1137 1.409 . S
C1135 H1127 0.930 . S
C1135 C1136 1.355 . S
C1135 C1137 1.415 . S
C1136 C1135 1.355 . S
C1136 C1138 1.419 . S
C1137 C1132 1.425 . S
C1137 C1134 1.409 . S
C1137 C1135 1.415 . S
C1138 H1128 0.930 . S
C1138 C1136 1.419 . S
C1138 C1139 1.362 . S
C1139 H1129 0.930 . S
C1139 C1132 1.409 . S
C1139 C1138 1.362 . S
H1140 C1146 0.930 . S
H1141 C1149 0.930 . S
H1142 C1150 0.930 . S
H1143 C1151 0.930 . S
H1144 C1154 0.930 . S
H1145 C1155 0.930 . S
C1146 H1140 0.930 . S
C1146 C1147 1.355 . S
C1146 C1148 1.415 . S
C1147 C1146 1.355 . S
C1147 C1149 1.419 . S
C1148 C1146 1.415 . S
C1148 C1153 1.425 . S
C1148 C1155 1.409 . S
C1149 H1141 0.930 . S
C1149 C1147 1.419 . S
C1149 C1150 1.362 . S
C1150 H1142 0.930 . S
C1150 C1149 1.362 . S
C1150 C1153 1.409 . S
C1151 H1143 0.930 . S
C1151 C1152 1.355 . S
C1151 C1153 1.415 . S
C1152 C1151 1.355 . S
C1152 C1154 1.419 . S
C1153 C1148 1.425 . S
C1153 C1150 1.409 . S
C1153 C1151 1.415 . S
C1154 H1144 0.930 . S
C1154 C1152 1.419 . S
C1154 C1155 1.362 . S
C1155 H1145 0.930 . S
C1155 C1148 1.409 . S
C1155 C1154 1.362 . S
H1156 C1162 0.930 . S
H1157 C1165 0.930 . S
H1158 C1166 0.930 . S
H1159 C1167 0.930 . S
H1160 C1170 0.930 1_556 S
H1161 C1171 0.930 . S
C1162 H1156 0.930 . S
C1162 C1163 1.355 . S
C1162 C1164 1.415 . S
C1163 C1162 1.355 . S
C1163 C1165 1.419 . S
C1164 C1162 1.415 . S
C1164 C1169 1.425 . S
C1164 C1171 1.409 . S
C1165 H1157 0.930 . S
C1165 C1163 1.419 . S
C1165 C1166 1.362 . S
C1166 H1158 0.930 . S
C1166 C1165 1.362 . S
C1166 C1169 1.409 . S
C1167 H1159 0.930 . S
C1167 C1168 1.355 . S
C1167 C1169 1.415 . S
C1168 C1167 1.355 . S
C1168 C1170 1.419 . S
C1169 C1164 1.425 . S
C1169 C1166 1.409 . S
C1169 C1167 1.415 . S
C1170 H1160 0.930 1_554 S
C1170 C1168 1.419 . S
C1170 C1171 1.362 . S
C1171 H1161 0.930 . S
C1171 C1164 1.409 . S
C1171 C1170 1.362 . S
H1172 C1178 0.930 . S
H1173 C1181 0.930 . S
H1174 C1182 0.930 . S
H1175 C1183 0.930 . S
H1176 C1186 0.930 . S
H1177 C1187 0.930 . S
C1178 H1172 0.930 . S
C1178 C1179 1.355 . S
C1178 C1180 1.415 . S
C1179 C1178 1.355 . S
C1179 C1181 1.419 . S
C1180 C1178 1.415 . S
C1180 C1185 1.425 . S
C1180 C1187 1.409 . S
C1181 H1173 0.930 . S
C1181 C1179 1.419 . S
C1181 C1182 1.362 . S
C1182 H1174 0.930 . S
C1182 C1181 1.362 . S
C1182 C1185 1.409 . S
C1183 H1175 0.930 . S
C1183 C1184 1.355 . S
C1183 C1185 1.415 . S
C1184 C1183 1.355 . S
C1184 C1186 1.419 . S
C1185 C1180 1.425 . S
C1185 C1182 1.409 . S
C1185 C1183 1.415 . S
C1186 H1176 0.930 . S
C1186 C1184 1.419 . S
C1186 C1187 1.362 . S
C1187 H1177 0.930 . S
C1187 C1180 1.409 . S
C1187 C1186 1.362 . S
C816 C745 1.693 . S
C811 C15 1.648 . S
C827 C61 1.654 . S
C832 C305 1.697 . S
C843 C114 1.651 . S
C848 C393 1.695 . S
C859 C139 1.669 . S
C864 C472 1.691 . S
C880 C569 1.699 . S
C875 C185 1.678 . S
C891 C245 1.634 . S
C896 C648 1.662 . S
C907 C47 1.701 . S
C912 C413 1.711 . S
C923 C100 1.699 . S
C928 C509 1.711 . S
C939 C153 1.688 . S
C944 C589 1.706 . S
C960 C685 1.665 . S
C955 C199 1.620 . S
C976 C765 1.678 . S
C971 C231 1.656 . S
C992 C325 1.685 . S
C987 C1 1.687 . S
C1003 C22 1.481 . S
C1008 C421 1.480 . S
C1019 C68 1.460 . S
C1024 C501 1.467 . S
C1040 C597 1.464 . S
C1035 C107 1.474 . S
C1051 C146 1.466 . S
C1056 C677 1.476 . S
C1072 C773 1.455 . S
C1067 C192 1.460 . S
C1088 C333 1.473 . S
C1083 C252 1.465 . S
C1104 C736 1.472 . S
C1099 C54 1.482 . S
C1115 C93 1.481 . S
C1120 C296 1.466 . S
C1136 C384 1.454 . S
C1131 C160 1.464 . S
C1147 C206 1.468 . S
C1152 C481 1.457 . S
C1163 C238 1.465 . S
C1168 C560 1.473 1_554 S
C1179 C8 1.465 . S
C1184 C657 1.474 . S
