# Generated by pormake.
# Topology nom, (4,4)-cn, num edge types: 1
# Building blocks:
#     Node 0, Type 0, BuildingBlock: MIFKUJ_clean_linker_1, # of connection points: 4
#     Node 1, Type 0, BuildingBlock: MIFKUJ_clean_linker_1, # of connection points: 4
#     Node 2, Type 0, BuildingBlock: MIFKUJ_clean_linker_1, # of connection points: 4
#     Node 3, Type 0, BuildingBlock: MIFKUJ_clean_linker_1, # of connection points: 4
#     Node 4, Type 0, BuildingBlock: MIFKUJ_clean_linker_1, # of connection points: 4
#     Node 5, Type 0, BuildingBlock: MIFKUJ_clean_linker_1, # of connection points: 4
#     Node 6, Type 1, BuildingBlock: KUFVIS_clean_sbu_0, # of connection points: 4
#     Node 7, Type 1, BuildingBlock: KUFVIS_clean_sbu_0, # of connection points: 4
#     Node 8, Type 1, BuildingBlock: KUFVIS_clean_sbu_0, # of connection points: 4
#     Node 9, Type 1, BuildingBlock: KUFVIS_clean_sbu_0, # of connection points: 4
#     Node 10, Type 1, BuildingBlock: KUFVIS_clean_sbu_0, # of connection points: 4
#     Node 11, Type 1, BuildingBlock: KUFVIS_clean_sbu_0, # of connection points: 4
#     Edge 12, Type (0, 1), BuildingBlock: AJUNOK_clean_linker_0, # of connection points: 2
#     Edge 13, Type (0, 1), BuildingBlock: AJUNOK_clean_linker_0, # of connection points: 2
#     Edge 14, Type (0, 1), BuildingBlock: AJUNOK_clean_linker_0, # of connection points: 2
#     Edge 15, Type (0, 1), BuildingBlock: AJUNOK_clean_linker_0, # of connection points: 2
#     Edge 16, Type (0, 1), BuildingBlock: AJUNOK_clean_linker_0, # of connection points: 2
#     Edge 17, Type (0, 1), BuildingBlock: AJUNOK_clean_linker_0, # of connection points: 2
#     Edge 18, Type (0, 1), BuildingBlock: AJUNOK_clean_linker_0, # of connection points: 2
#     Edge 19, Type (0, 1), BuildingBlock: AJUNOK_clean_linker_0, # of connection points: 2
#     Edge 20, Type (0, 1), BuildingBlock: AJUNOK_clean_linker_0, # of connection points: 2
#     Edge 21, Type (0, 1), BuildingBlock: AJUNOK_clean_linker_0, # of connection points: 2
#     Edge 22, Type (0, 1), BuildingBlock: AJUNOK_clean_linker_0, # of connection points: 2
#     Edge 23, Type (0, 1), BuildingBlock: AJUNOK_clean_linker_0, # of connection points: 2
#     Edge 24, Type (0, 1), BuildingBlock: AJUNOK_clean_linker_0, # of connection points: 2
#     Edge 25, Type (0, 1), BuildingBlock: AJUNOK_clean_linker_0, # of connection points: 2
#     Edge 26, Type (0, 1), BuildingBlock: AJUNOK_clean_linker_0, # of connection points: 2
#     Edge 27, Type (0, 1), BuildingBlock: AJUNOK_clean_linker_0, # of connection points: 2
#     Edge 28, Type (0, 1), BuildingBlock: AJUNOK_clean_linker_0, # of connection points: 2
#     Edge 29, Type (0, 1), BuildingBlock: AJUNOK_clean_linker_0, # of connection points: 2
#     Edge 30, Type (0, 1), BuildingBlock: AJUNOK_clean_linker_0, # of connection points: 2
#     Edge 31, Type (0, 1), BuildingBlock: AJUNOK_clean_linker_0, # of connection points: 2
#     Edge 32, Type (0, 1), BuildingBlock: AJUNOK_clean_linker_0, # of connection points: 2
#     Edge 33, Type (0, 1), BuildingBlock: AJUNOK_clean_linker_0, # of connection points: 2
#     Edge 34, Type (0, 1), BuildingBlock: AJUNOK_clean_linker_0, # of connection points: 2
#     Edge 35, Type (0, 1), BuildingBlock: AJUNOK_clean_linker_0, # of connection points: 2
# Relax obj value: 0.002
# Max RMSD: 0.100
# Mean RMSD: 0.062
data_MOF--net-nom--node1-KUFVIS_clean_sbu_0--node2-MIFKUJ_clean_linker_1--edge1-AJUNOK_clean_linker_0
_symmetry_space_group_name_H-M    P1
_symmetry_Int_Tables_number       1
_symmetry_cell_setting            triclinic
loop_
_symmetry_equiv_pos_as_xyz
'x, y, z'
_cell_length_a     41.013164
_cell_length_b     41.413642
_cell_length_c     43.727988
_cell_angle_alpha  90.586241
_cell_angle_beta   90.757231
_cell_angle_gamma 120.06153
loop_
_atom_site_label
_atom_site_type_symbol
_atom_site_fract_x
_atom_site_fract_y
_atom_site_fract_z
_atom_type_partial_charge
H0 H 0.98043 0.4812 0.26246 0.0
H1 H 0.93863 0.4573 0.21734 0.0
H2 H 0.89598 0.53125 0.23728 0.0
H3 H 0.93812 0.55561 0.28271 0.0
H4 H 0.03663 0.55424 0.27358 0.0
H5 H 0.91611 0.46408 0.31762 0.0
H6 H 0.84994 0.43932 0.33076 0.0
H7 H 0.88061 0.54159 0.38055 0.0
H8 H 0.94598 0.56687 0.36604 0.0
H9 H 0.05234 0.61345 0.39685 0.0
H10 H 0.09588 0.63225 0.4409 0.0
H11 H 0.133 0.55662 0.41005 0.0
H12 H 0.09041 0.53898 0.36573 0.0
H13 H 0.99398 0.54509 0.38033 0.0
H14 H 0.10755 0.6368 0.34041 0.0
H15 H 0.17397 0.67177 0.32707 0.0
H16 H 0.15877 0.58044 0.26872 0.0
H17 H 0.09234 0.54456 0.28303 0.0
C18 C 0.96214 0.51994 0.27603 0.0
C19 C 0.96201 0.49222 0.25724 0.0
C20 C 0.93813 0.47848 0.23157 0.0
C21 C 0.91424 0.4924 0.22415 0.0
C22 C 0.91426 0.52017 0.2428 0.0
C23 C 0.9381 0.53389 0.26868 0.0
C24 C 0.98863 0.53496 0.30257 0.0
C25 C 0.02735 0.55175 0.297 0.0
C26 C 0.97638 0.53334 0.33291 0.0
C27 C 0.93605 0.51757 0.34052 0.0
C28 C 0.90847 0.48135 0.33099 0.0
C29 C 0.87074 0.467 0.33889 0.0
C30 C 0.86007 0.48843 0.35685 0.0
C31 C 0.88783 0.52451 0.36646 0.0
C32 C 0.92529 0.5389 0.35836 0.0
C33 C 0.06842 0.57509 0.37793 0.0
C34 C 0.07002 0.60109 0.39961 0.0
C35 C 0.09483 0.61169 0.42478 0.0
C36 C 0.11818 0.59616 0.42895 0.0
C37 C 0.11614 0.56981 0.40728 0.0
C38 C 0.09164 0.55952 0.38197 0.0
C39 C 0.0419 0.56353 0.35138 0.0
C40 C 1.00328 0.54743 0.35693 0.0
C41 C 0.05428 0.56676 0.32093 0.0
C42 C 0.09494 0.5876 0.3133 0.0
C43 C 0.11855 0.62376 0.32536 0.0
C44 C 0.15645 0.64386 0.3176 0.0
C45 C 0.17138 0.62855 0.29715 0.0
C46 C 0.14781 0.5927 0.28463 0.0
C47 C 0.10994 0.5723 0.29278 0.0
H48 H 0.41052 0.94891 0.53181 0.0
H49 H 0.37552 0.88368 0.54686 0.0
H50 H 0.45857 0.86401 0.50425 0.0
H51 H 0.49342 0.92948 0.48888 0.0
H52 H 0.48107 1.00142 0.548 0.0
H53 H 0.41519 0.93556 0.45537 0.0
H54 H 0.39845 0.89313 0.41099 0.0
H55 H 0.5116 0.95795 0.37825 0.0
H56 H 0.52942 0.99866 0.42369 0.0
H57 H 0.57545 0.10025 0.45088 0.0
H58 H 0.60416 0.16586 0.43632 0.0
H59 H 0.52674 0.17886 0.49387 0.0
H60 H 0.4971 0.11318 0.50749 0.0
H61 H 0.51019 0.04426 0.44126 0.0
H62 H 0.58034 0.098 0.53589 0.0
H63 H 0.6031 0.13791 0.58183 0.0
H64 H 0.48804 0.09957 0.60721 0.0
H65 H 0.46562 0.05843 0.56199 0.0
C66 C 0.45438 0.94402 0.50892 0.0
C67 C 0.42121 0.93057 0.52564 0.0
C68 C 0.40131 0.89333 0.53435 0.0
C69 C 0.41418 0.86866 0.52663 0.0
C70 C 0.4476 0.88219 0.51007 0.0
C71 C 0.46755 0.91957 0.50131 0.0
C72 C 0.47562 0.98404 0.50071 0.0
C73 C 0.48717 0.0107 0.52457 0.0
C74 C 0.48479 0.99623 0.47019 0.0
C75 C 0.4739 0.96996 0.44346 0.0
C76 C 0.4368 0.94013 0.43922 0.0
C77 C 0.42708 0.91613 0.41372 0.0
C78 C 0.45393 0.92233 0.39156 0.0
C79 C 0.49063 0.95255 0.39527 0.0
C80 C 0.50066 0.97587 0.42115 0.0
C81 C 0.5345 0.10174 0.48082 0.0
C82 C 0.56461 0.11717 0.46041 0.0
C83 C 0.58102 0.1546 0.45208 0.0
C84 C 0.5679 0.17737 0.46429 0.0
C85 C 0.5378 0.162 0.48461 0.0
C86 C 0.52105 0.12451 0.49257 0.0
C87 C 0.51585 0.06146 0.48854 0.0
C88 C 0.50452 0.03481 0.46465 0.0
C89 C 0.50758 0.04906 0.51898 0.0
C90 C 0.52133 0.07518 0.54566 0.0
C91 C 0.56009 0.09823 0.55142 0.0
C92 C 0.57303 0.121 0.57772 0.0
C93 C 0.54744 0.12126 0.59874 0.0
C94 C 0.50858 0.09899 0.59227 0.0
C95 C 0.49568 0.0758 0.56622 0.0
H96 H 0.53008 0.57163 0.72615 0.0
H97 H 0.5101 0.59227 0.77121 0.0
H98 H 0.39366 0.51816 0.7449 0.0
H99 H 0.41377 0.49688 0.70023 0.0
H100 H 0.51401 0.49948 0.71366 0.0
H101 H 0.48387 0.58939 0.66673 0.0
H102 H 0.44001 0.61169 0.65402 0.0
H103 H 0.36733 0.50758 0.60608 0.0
H104 H 0.41008 0.48495 0.61973 0.0
H105 H 0.46719 0.4379 0.59141 0.0
H106 H 0.48976 0.41685 0.54833 0.0
H107 H 0.60467 0.4922 0.57841 0.0
H108 H 0.58181 0.51175 0.62197 0.0
H109 H 0.48025 0.50783 0.60588 0.0
H110 H 0.49706 0.41484 0.64842 0.0
H111 H 0.52446 0.37695 0.66407 0.0
H112 H 0.60527 0.46746 0.7221 0.0
H113 H 0.5787 0.50614 0.70554 0.0
C114 C 0.47343 0.53304 0.70967 0.0
C115 C 0.50025 0.56007 0.72996 0.0
C116 C 0.48883 0.57207 0.75552 0.0
C117 C 0.45034 0.55714 0.76131 0.0
C118 C 0.42351 0.53019 0.7409 0.0
C119 C 0.43495 0.51821 0.71531 0.0
C120 C 0.48589 0.51904 0.68359 0.0
C121 C 0.5074 0.50202 0.69001 0.0
C122 C 0.47515 0.52037 0.65293 0.0
C123 C 0.44998 0.53523 0.6446 0.0
C124 C 0.45828 0.57127 0.65376 0.0
C125 C 0.43342 0.58409 0.64631 0.0
C126 C 0.39995 0.56107 0.62959 0.0
C127 C 0.3924 0.52556 0.61969 0.0
C128 C 0.41704 0.51275 0.62721 0.0
C129 C 0.52284 0.47616 0.60997 0.0
C130 C 0.49724 0.44966 0.58872 0.0
C131 C 0.51022 0.43778 0.56407 0.0
C132 C 0.54909 0.45259 0.55992 0.0
C133 C 0.57458 0.47945 0.58117 0.0
C134 C 0.56158 0.49089 0.60605 0.0
C135 C 0.50917 0.48912 0.63591 0.0
C136 C 0.48746 0.50585 0.62949 0.0
C137 C 0.51834 0.48609 0.66667 0.0
C138 C 0.53623 0.46374 0.67528 0.0
C139 C 0.52129 0.42704 0.66389 0.0
C140 C 0.53672 0.40524 0.67303 0.0
C141 C 0.56684 0.41932 0.69431 0.0
C142 C 0.58183 0.45593 0.70583 0.0
C143 C 0.56671 0.47799 0.69633 0.0
H144 H 0.05079 0.57562 0.76156 0.0
H145 H 0.09169 0.59615 0.71708 0.0
H146 H 0.13123 0.52028 0.74015 0.0
H147 H 0.08962 0.49917 0.78411 0.0
H148 H 0.99234 0.50314 0.77336 0.0
H149 H 0.11727 0.59235 0.8206 0.0
H150 H 0.18342 0.6127 0.83359 0.0
H151 H 0.14797 0.50782 0.87788 0.0
H152 H 0.0827 0.48711 0.86387 0.0
H153 H 0.98169 0.44102 0.89149 0.0
H154 H 0.9405 0.4192 0.93556 0.0
H155 H 0.90056 0.49527 0.91398 0.0
H156 H 0.94039 0.51543 0.86897 0.0
H157 H 0.03883 0.51278 0.88023 0.0
H158 H 0.93257 0.41692 0.83304 0.0
H159 H 0.86676 0.37523 0.8183 0.0
H160 H 0.8633 0.46654 0.77454 0.0
H161 H 0.92979 0.50828 0.78905 0.0
C162 C 0.06747 0.5362 0.77639 0.0
C163 C 0.06844 0.56357 0.75712 0.0
C164 C 0.09207 0.57554 0.7319 0.0
C165 C 0.11506 0.5602 0.72539 0.0
C166 C 0.11393 0.53269 0.74467 0.0
C167 C 0.09033 0.52077 0.76988 0.0
C168 C 0.04165 0.523 0.8027 0.0
C169 C 1.00261 0.50611 0.7968 0.0
C170 C 0.05481 0.5245 0.83311 0.0
C171 C 0.09502 0.53799 0.84092 0.0
C172 C 0.12388 0.57361 0.83276 0.0
C173 C 0.16155 0.58531 0.84036 0.0
C174 C 0.17085 0.56155 0.85623 0.0
C175 C 0.1418 0.52634 0.8649 0.0
C176 C 0.1044 0.51465 0.85721 0.0
C177 C 0.96399 0.47974 0.87697 0.0
C178 C 0.96375 0.45269 0.89613 0.0
C179 C 0.94028 0.44036 0.92135 0.0
C180 C 0.91701 0.45532 0.92828 0.0
C181 C 0.9173 0.48241 0.90893 0.0
C182 C 0.94031 0.49424 0.88335 0.0
C183 C 0.98994 0.49372 0.85087 0.0
C184 C 0.02877 0.5107 0.85682 0.0
C185 C 0.97658 0.49018 0.8204 0.0
C186 C 0.93602 0.46583 0.81241 0.0
C187 C 0.91756 0.42816 0.82063 0.0
C188 C 0.87991 0.40433 0.8122 0.0
C189 C 0.85987 0.41753 0.79515 0.0
C190 C 0.8782 0.45541 0.78724 0.0
C191 C 0.91607 0.47932 0.79563 0.0
H192 H 0.61788 0.08892 0.0357 0.0
H193 H 0.66188 0.15426 0.04846 0.0
H194 H 0.5915 0.18661 0.99864 0.0
H195 H 0.54642 0.12057 0.98675 0.0
H196 H 0.54665 0.04396 0.04892 0.0
H197 H 0.61705 0.09567 0.95571 0.0
H198 H 0.63921 0.13821 0.91247 0.0
H199 H 0.52396 0.09765 0.88324 0.0
H200 H 0.50192 0.05586 0.92689 0.0
H201 H 0.45066 0.94119 0.94979 0.0
H202 H 0.42307 0.87506 0.93502 0.0
H203 H 0.50514 0.86758 0.99264 0.0
H204 H 0.5334 0.93365 1.00662 0.0
H205 H 0.51663 0.99877 0.94118 0.0
H206 H 0.44832 0.93597 0.02987 0.0
H207 H 0.42852 0.89336 0.07283 0.0
H208 H 0.54077 0.95553 0.11254 0.0
H209 H 0.56112 0.99626 0.06855 0.0
C210 C 0.57906 0.09982 0.00996 0.0
C211 C 0.61167 0.10996 0.02766 0.0
C212 C 0.63703 0.14735 0.03465 0.0
C213 C 0.6305 0.17551 0.02392 0.0
C214 C 0.5973 0.16541 1.00696 0.0
C215 C 0.57172 0.1278 1.00004 0.0
C216 C 0.55352 0.05988 1.00174 0.0
C217 C 0.54019 0.03388 0.02538 0.0
C218 C 0.54405 0.0471 0.97101 0.0
C219 C 0.55778 0.07296 0.94482 0.0
C220 C 0.59655 0.09627 0.94021 0.0
C221 C 0.60919 0.1204 0.91542 0.0
C222 C 0.58332 0.12165 0.89473 0.0
C223 C 0.54455 0.09796 0.89919 0.0
C224 C 0.53193 0.07382 0.92395 0.0
C225 C 0.49362 0.94226 0.97985 0.0
C226 C 0.46273 0.92533 0.95923 0.0
C227 C 0.44699 0.88766 0.95081 0.0
C228 C 0.46171 0.86632 0.9631 0.0
C229 C 0.49286 0.88335 0.98337 0.0
C230 C 0.50888 0.92103 0.99144 0.0
C231 C 0.51096 0.98244 0.98839 0.0
C232 C 0.52254 1.00857 0.9648 0.0
C233 C 0.51905 0.99528 0.01928 0.0
C234 C 0.50637 0.96937 0.04567 0.0
C235 C 0.46884 0.94017 0.0476 0.0
C236 C 0.45736 0.91612 0.07248 0.0
C237 C 0.4829 0.92126 0.09643 0.0
C238 C 0.52038 0.95056 0.09447 0.0
C239 C 0.53197 0.97419 0.06941 0.0
H240 H 0.50157 0.48131 0.22913 0.0
H241 H 0.5193 0.45882 0.27445 0.0
H242 H 0.63419 0.51191 0.24459 0.0
H243 H 0.61705 0.53612 0.19999 0.0
H244 H 0.52155 0.54858 0.2145 0.0
H245 H 0.54002 0.45167 0.16471 0.0
H246 H 0.57543 0.42146 0.14794 0.0
H247 H 0.65717 0.52399 0.10632 0.0
H248 H 0.622 0.55396 0.12303 0.0
H249 H 0.56759 0.60811 0.09368 0.0
H250 H 0.54447 0.62837 0.0502 0.0
H251 H 0.43 0.55548 0.07834 0.0
H252 H 0.4534 0.53663 0.12213 0.0
H253 H 0.55208 0.53664 0.10713 0.0
H254 H 0.54535 0.63514 0.15538 0.0
H255 H 0.52015 0.67511 0.17064 0.0
H256 H 0.42696 0.5814 0.21354 0.0
H257 H 0.45301 0.54167 0.19888 0.0
C258 C 0.55781 0.51011 0.21079 0.0
C259 C 0.53059 0.48808 0.23218 0.0
C260 C 0.54062 0.47508 0.25797 0.0
C261 C 0.57793 0.48336 0.26265 0.0
C262 C 0.6051 0.50471 0.24109 0.0
C263 C 0.59523 0.51836 0.21556 0.0
C264 C 0.54714 0.52602 0.18468 0.0
C265 C 0.52768 0.54525 0.191 0.0
C266 C 0.55687 0.52368 0.15404 0.0
C267 C 0.57841 0.50512 0.14518 0.0
C268 C 0.56569 0.46766 0.15214 0.0
C269 C 0.58581 0.45041 0.14248 0.0
C270 C 0.61863 0.47022 0.12537 0.0
C271 C 0.63145 0.50777 0.11878 0.0
C272 C 0.6115 0.52498 0.12849 0.0
C273 C 0.51221 0.57116 0.11123 0.0
C274 C 0.53754 0.5968 0.09051 0.0
C275 C 0.52425 0.6082 0.06563 0.0
C276 C 0.48534 0.59378 0.0608 0.0
C277 C 0.46013 0.56791 0.08162 0.0
C278 C 0.47344 0.55691 0.10665 0.0
C279 C 0.52593 0.55803 0.13709 0.0
C280 C 0.54583 0.53951 0.13071 0.0
C281 C 0.5176 0.56185 0.16767 0.0
C282 C 0.50104 0.5854 0.17596 0.0
C283 C 0.51934 0.62311 0.16789 0.0
C284 C 0.50485 0.64591 0.17656 0.0
C285 C 0.47172 0.63154 0.19355 0.0
C286 C 0.45298 0.59354 0.20107 0.0
C287 C 0.4677 0.57076 0.19258 0.0
Mn288 Mn 0.63107 0.39006 0.41842 0.0
Mn289 Mn 0.67275 0.48253 0.43351 0.0
C290 C 0.60483 0.41305 0.45266 0.0
C291 C 0.62218 0.33106 0.42959 0.0
C292 C 0.62576 0.44654 0.3763 0.0
O293 O 0.68389 0.40879 0.40266 0.0
O294 O 0.70769 0.47025 0.41189 0.0
C295 C 0.72914 0.48603 0.47846 0.0
N296 N 0.70029 0.49218 0.47134 0.0
C297 C 0.70299 0.51746 0.52172 0.0
C298 C 0.7329 0.51163 0.52951 0.0
C299 C 0.74591 0.4957 0.50782 0.0
C300 C 0.68723 0.50703 0.49217 0.0
H301 H 0.73926 0.4738 0.46189 0.0
C302 C 0.7104 0.44266 0.40147 0.0
O303 O 0.61353 0.33819 0.40276 0.0
O304 O 0.63746 0.35861 0.44915 0.0
N305 N 0.64283 0.49886 0.45466 0.0
C306 C 0.61376 0.50266 0.44356 0.0
C307 C 0.59739 0.51807 0.46245 0.0
C308 C 0.61136 0.52981 0.49243 0.0
C309 C 0.64178 0.52632 0.50316 0.0
C310 C 0.65704 0.51089 0.48325 0.0
H311 H 0.60288 0.49361 0.42061 0.0
O312 O 0.5841 0.38089 0.43919 0.0
O313 O 0.64019 0.43087 0.44559 0.0
O314 O 0.61931 0.41354 0.38159 0.0
O315 O 0.64411 0.4743 0.39474 0.0
C316 C 0.65761 0.53759 0.53283 0.0
C317 C 0.688 0.53291 0.54218 0.0
H318 H 0.74592 0.51907 0.55213 0.0
H319 H 0.76885 0.49094 0.51371 0.0
H320 H 0.57398 0.52075 0.45395 0.0
H321 H 0.59851 0.54145 0.50701 0.0
H322 H 0.64648 0.54974 0.54869 0.0
H323 H 0.69964 0.54128 0.56518 0.0
Mn324 Mn 0.26428 0.6556 0.5722 0.0
Mn325 Mn 0.21282 0.5633 0.55609 0.0
C326 C 0.21457 0.63303 0.53729 0.0
C327 C 0.31533 0.71458 0.56169 0.0
C328 C 0.20334 0.59842 0.61401 0.0
O329 O 0.29806 0.6364 0.58864 0.0
O330 O 0.26157 0.57542 0.57597 0.0
C331 C 0.26206 0.5601 0.5087 0.0
N332 N 0.22766 0.55406 0.51722 0.0
C333 C 0.20099 0.52969 0.46717 0.0
C334 C 0.23608 0.5354 0.45791 0.0
C335 C 0.26677 0.55081 0.47874 0.0
C336 C 0.19806 0.53966 0.49727 0.0
H337 H 0.28572 0.57197 0.52464 0.0
C338 C 0.29144 0.6028 0.58796 0.0
O339 O 0.29943 0.70731 0.58821 0.0
O340 O 0.3026 0.68714 0.54205 0.0
N341 N 0.16491 0.54742 0.53671 0.0
C342 C 0.13297 0.54359 0.5493 0.0
C343 C 0.09968 0.5287 0.53143 0.0
C344 C 0.09947 0.51749 0.50097 0.0
C345 C 0.13248 0.52096 0.48873 0.0
C346 C 0.16475 0.53583 0.50767 0.0
H347 H 0.13292 0.55197 0.57276 0.0
O348 O 0.22674 0.66524 0.55067 0.0
O349 O 0.23188 0.61511 0.5447 0.0
O350 O 0.22849 0.63201 0.6083 0.0
O351 O 0.19539 0.57086 0.59593 0.0
C352 C 0.13464 0.51024 0.45849 0.0
C353 C 0.16893 0.51483 0.44765 0.0
H354 H 0.23983 0.5283 0.43482 0.0
H355 H 0.29399 0.5555 0.47171 0.0
H356 H 0.07427 0.52593 0.5411 0.0
H357 H 0.07381 0.50623 0.4872 0.0
H358 H 0.11013 0.49863 0.44332 0.0
H359 H 0.17034 0.50689 0.42424 0.0
Mn360 Mn 0.62815 0.26738 0.74147 0.0
Mn361 Mn 0.6764 0.22294 0.72672 0.0
C362 C 0.60346 0.21738 0.70725 0.0
C363 C 0.61623 0.31574 0.73091 0.0
C364 C 0.63312 0.21286 0.78528 0.0
O365 O 0.68099 0.30376 0.75788 0.0
O366 O 0.71211 0.27464 0.74208 0.0
C367 C 0.72156 0.26755 0.67481 0.0
N368 N 0.69607 0.23401 0.68638 0.0
C369 C 0.69097 0.20261 0.63842 0.0
C370 C 0.7173 0.23683 0.62604 0.0
C371 C 0.7326 0.26946 0.64431 0.0
C372 C 0.68106 0.20246 0.66896 0.0
H373 H 0.73332 0.29262 0.68875 0.0
C374 C 0.71107 0.30235 0.75437 0.0
O375 O 0.60864 0.29973 0.75731 0.0
O376 O 0.63143 0.30413 0.71103 0.0
N377 N 0.64532 0.1729 0.71141 0.0
C378 C 0.61955 0.14225 0.72655 0.0
C379 C 0.60128 0.10737 0.71135 0.0
C380 C 0.60981 0.10429 0.68085 0.0
C381 C 0.63684 0.13609 0.6659 0.0
C382 C 0.65438 0.17005 0.68228 0.0
H383 H 0.61284 0.14436 0.74999 0.0
O384 O 0.58165 0.22771 0.71994 0.0
O385 O 0.639 0.23688 0.71477 0.0
O386 O 0.6191 0.23314 0.77777 0.0
O387 O 0.6561 0.20874 0.76842 0.0
C388 C 0.64685 0.13547 0.6353 0.0
C389 C 0.67381 0.16872 0.62153 0.0
H390 H 0.7258 0.23842 0.6025 0.0
H391 H 0.75284 0.29602 0.63491 0.0
H392 H 0.58051 0.08294 0.72309 0.0
H393 H 0.59537 0.07741 0.66911 0.0
H394 H 0.63368 0.10963 0.62203 0.0
H395 H 0.68091 0.16796 0.59786 0.0
Mn396 Mn 0.40083 0.65275 0.91811 0.0
Mn397 Mn 0.3584 0.56063 0.93197 0.0
C398 C 0.42761 0.63039 0.95256 0.0
C399 C 0.40962 0.71181 0.92932 0.0
C400 C 0.40298 0.59496 0.87491 0.0
O401 O 0.34768 0.63362 0.90114 0.0
O402 O 0.32187 0.57275 0.91248 0.0
C403 C 0.30646 0.55815 0.97945 0.0
N404 N 0.3346 0.55192 0.97068 0.0
C405 C 0.33691 0.52797 0.02008 0.0
C406 C 0.30777 0.5339 0.02958 0.0
C407 C 0.29259 0.54919 0.00921 0.0
C408 C 0.3497 0.53761 0.99021 0.0
H409 H 0.29475 0.56993 0.96386 0.0
C410 C 0.32006 0.6002 0.90105 0.0
O411 O 0.41796 0.70391 0.90274 0.0
O412 O 0.39487 0.68498 0.9487 0.0
N413 N 0.39029 0.54481 0.95084 0.0
C414 C 0.41826 0.54086 0.93808 0.0
C415 C 0.43658 0.5261 0.95551 0.0
C416 C 0.42565 0.51517 0.9857 0.0
C417 C 0.39628 0.51881 0.99811 0.0
C418 C 0.37897 0.53355 0.97961 0.0
H419 H 0.42663 0.54903 0.91483 0.0
O420 O 0.44814 0.66242 0.93993 0.0
O421 O 0.39212 0.61256 0.94467 0.0
O422 O 0.41225 0.62862 0.88164 0.0
O423 O 0.38299 0.56753 0.89219 0.0
C424 C 0.38351 0.50841 0.0281 0.0
C425 C 0.35402 0.51322 0.03915 0.0
H426 H 0.29701 0.52705 0.05252 0.0
H427 H 0.27024 0.55404 0.01642 0.0
H428 H 0.45911 0.52322 0.94572 0.0
H429 H 0.43999 0.50401 0.99914 0.0
H430 H 0.39635 0.49692 0.04293 0.0
H431 H 0.34475 0.50552 0.06238 0.0
Mn432 Mn 0.7684 0.40492 0.08118 0.0
Mn433 Mn 0.81951 0.36359 0.09716 0.0
C434 C 0.81781 0.43193 0.1164 0.0
C435 C 0.71775 0.41439 0.09009 0.0
C436 C 0.83027 0.40804 0.04011 0.0
O437 O 0.73423 0.35212 0.06476 0.0
O438 O 0.77154 0.32804 0.07552 0.0
C439 C 0.76773 0.31009 0.14211 0.0
N440 N 0.80273 0.33803 0.13488 0.0
C441 C 0.82766 0.33612 0.18451 0.0
C442 C 0.79193 0.30717 0.19244 0.0
C443 C 0.7618 0.29422 0.17118 0.0
C444 C 0.83181 0.35097 0.15527 0.0
H445 H 0.74452 0.29999 0.12581 0.0
C446 C 0.74133 0.32546 0.06418 0.0
O447 O 0.73448 0.42194 0.06397 0.0
O448 O 0.72966 0.40008 0.11059 0.0
N449 N 0.86657 0.39414 0.11827 0.0
C450 C 0.89876 0.4234 0.10756 0.0
C451 C 0.93149 0.43996 0.12616 0.0
C452 C 0.93091 0.42598 0.15539 0.0
C453 C 0.89745 0.39579 0.16592 0.0
C454 C 0.86575 0.38039 0.14633 0.0
H455 H 0.89936 0.43421 0.08512 0.0
O456 O 0.80615 0.45201 0.10266 0.0
O457 O 0.80023 0.39656 0.10918 0.0
O458 O 0.80409 0.41542 0.04527 0.0
O459 O 0.8392 0.38977 0.05844 0.0
C460 C 0.8942 0.38055 0.19515 0.0
C461 C 0.85926 0.35096 0.20453 0.0
H462 H 0.78726 0.29482 0.21482 0.0
H463 H 0.73411 0.27199 0.17716 0.0
H464 H 0.95713 0.4634 0.11795 0.0
H465 H 0.95628 0.43877 0.16958 0.0
H466 H 0.91829 0.39156 0.21072 0.0
H467 H 0.85699 0.33987 0.22723 0.0
Mn468 Mn 0.38624 0.77539 0.25033 0.0
Mn469 Mn 0.48008 0.82134 0.26403 0.0
C470 C 0.41288 0.82542 0.28448 0.0
C471 C 0.32629 0.72683 0.2621 0.0
C472 C 0.44383 0.831 0.20629 0.0
O473 O 0.40234 0.73957 0.23338 0.0
O474 O 0.46391 0.77027 0.24767 0.0
C475 C 0.48329 0.77596 0.31461 0.0
N476 N 0.49027 0.80954 0.30391 0.0
C477 C 0.51784 0.83983 0.3523 0.0
C478 C 0.51107 0.80557 0.36378 0.0
C479 C 0.49361 0.77347 0.34486 0.0
C480 C 0.50686 0.84056 0.32198 0.0
H481 H 0.46996 0.7513 0.30015 0.0
C482 C 0.43457 0.74208 0.23582 0.0
O483 O 0.33318 0.74232 0.23547 0.0
O484 O 0.35452 0.73868 0.28123 0.0
N485 N 0.49928 0.87086 0.2803 0.0
C486 C 0.50367 0.90173 0.2658 0.0
C487 C 0.52057 0.93619 0.28164 0.0
C488 C 0.53306 0.93863 0.31209 0.0
C489 C 0.52871 0.9066 0.3264 0.0
C490 C 0.51187 0.87308 0.30941 0.0
H491 H 0.49425 0.90008 0.24237 0.0
O492 O 0.37998 0.81455 0.27216 0.0
O493 O 0.42893 0.80644 0.2766 0.0
O494 O 0.40964 0.80979 0.21385 0.0
O495 O 0.47205 0.836 0.22279 0.0
C496 C 0.54035 0.9066 0.35686 0.0
C497 C 0.53473 0.87321 0.36986 0.0
H498 H 0.51893 0.80354 0.38713 0.0
H499 H 0.48813 0.74688 0.35357 0.0
H500 H 0.5239 0.9608 0.27042 0.0
H501 H 0.54589 0.96522 0.32427 0.0
H502 H 0.55359 0.93211 0.37055 0.0
H503 H 0.5435 0.8735 0.39338 0.0
C504 C 0.22061 0.65943 0.25753 0.0
C505 C 0.21133 0.65066 0.28833 0.0
C506 C 0.25802 0.68336 0.2491 0.0
C507 C 0.28751 0.69895 0.27115 0.0
H508 H 0.19862 0.64872 0.23996 0.0
H509 H 0.26372 0.69019 0.2252 0.0
S510 S 0.27781 0.68194 0.35476 0.0
N511 N 0.23439 0.6575 0.34072 0.0
N512 N 0.30472 0.70204 0.32515 0.0
C513 C 0.27859 0.68909 0.30196 0.0
C514 C 0.24049 0.6651 0.31049 0.0
C515 C 0.58543 0.22649 0.42471 0.0
C516 C 0.58498 0.21702 0.45555 0.0
C517 C 0.59846 0.2636 0.41634 0.0
C518 C 0.61202 0.29263 0.4385 0.0
H519 H 0.57445 0.20489 0.40703 0.0
H520 H 0.59724 0.26944 0.3924 0.0
S521 S 0.61948 0.28231 0.52229 0.0
N522 N 0.601 0.23947 0.50811 0.0
N523 N 0.62595 0.30915 0.49268 0.0
C524 C 0.61306 0.28351 0.46936 0.0
C525 C 0.59938 0.24572 0.47782 0.0
C526 C 0.38447 0.60818 0.60837 0.0
C527 C 0.3726 0.57359 0.62226 0.0
C528 C 0.35821 0.61839 0.59834 0.0
C529 C 0.3193 0.5942 0.6017 0.0
H530 H 0.41407 0.6268 0.60418 0.0
H531 H 0.36831 0.64461 0.58675 0.0
S532 S 0.27437 0.50341 0.64107 0.0
N533 N 0.3198 0.51745 0.64225 0.0
N534 N 0.27058 0.53619 0.62294 0.0
C535 C 0.30735 0.56051 0.61701 0.0
C536 C 0.33396 0.55033 0.62741 0.0
C537 C 0.79452 0.36547 0.80556 0.0
C538 C 0.82043 0.39107 0.78487 0.0
C539 C 0.75842 0.3376 0.79574 0.0
C540 C 0.74706 0.33442 0.76494 0.0
H541 H 0.80249 0.36654 0.82943 0.0
H542 H 0.7397 0.31775 0.81215 0.0
S543 S 0.80301 0.39488 0.70182 0.0
N544 N 0.83142 0.41161 0.73215 0.0
N545 N 0.76323 0.35974 0.71407 0.0
C546 C 0.77196 0.3604 0.74422 0.0
C547 C 0.80873 0.38871 0.75412 0.0
C548 C 0.4434 0.81539 0.92384 0.0
C549 C 0.44512 0.82638 0.9546 0.0
C550 C 0.43095 0.77805 0.91571 0.0
C551 C 0.41929 0.75036 0.93805 0.0
H552 H 0.45293 0.836 0.90605 0.0
H553 H 0.43109 0.771 0.89181 0.0
S554 S 0.41588 0.76488 0.02173 0.0
N555 N 0.43242 0.8068 1.0073 0.0
N556 N 0.40861 0.73662 0.99228 0.0
C557 C 0.41955 0.76095 0.96884 0.0
C558 C 0.43262 0.79898 0.97705 0.0
C559 C 0.6515 0.43419 0.13601 0.0
C560 C 0.64027 0.45235 0.11496 0.0
C561 C 0.67537 0.42068 0.1274 0.0
C562 C 0.68884 0.42471 0.09738 0.0
H563 H 0.64298 0.43171 0.15962 0.0
H564 H 0.68427 0.40807 0.14474 0.0
S565 S 0.66358 0.46603 0.03271 0.0
N566 N 0.64132 0.47055 0.06218 0.0
N567 N 0.6863 0.44539 0.04593 0.0
C568 C 0.67622 0.44118 0.07574 0.0
C569 C 0.65196 0.45497 0.08455 0.0
C570 C 0.37912 0.81997 0.56581 0.0
C571 C 0.39222 0.82892 0.53575 0.0
C572 C 0.35557 0.78284 0.57434 0.0
C573 C 0.34404 0.75312 0.55313 0.0
H574 H 0.3867 0.84193 0.58281 0.0
H575 H 0.34556 0.77756 0.59756 0.0
S576 S 0.37132 0.76165 0.47155 0.0
N577 N 0.3925 0.80506 0.48484 0.0
N578 N 0.34874 0.73532 0.50076 0.0
C579 C 0.35795 0.76165 0.52318 0.0
C580 C 0.3819 0.7995 0.51453 0.0
C581 C 0.59391 0.37838 0.68297 0.0
C582 C 0.58193 0.39528 0.70464 0.0
C583 C 0.60602 0.35362 0.69189 0.0
C584 C 0.60604 0.34433 0.7228 0.0
H585 H 0.59364 0.38414 0.65888 0.0
H586 H 0.6145 0.34096 0.67424 0.0
S587 S 0.5777 0.38167 0.78845 0.0
N588 N 0.57139 0.40178 0.7583 0.0
N589 N 0.59375 0.35489 0.77519 0.0
C590 C 0.59463 0.36154 0.74476 0.0
C591 C 0.58271 0.38713 0.73566 0.0
C592 C 0.23404 0.60764 0.87939 0.0
C593 C 0.21055 0.57317 0.86437 0.0
C594 C 0.27016 0.617 0.89034 0.0
C595 C 0.28373 0.59201 0.88686 0.0
H596 H 0.22391 0.62687 0.88372 0.0
H597 H 0.28692 0.64325 0.90265 0.0
S598 S 0.23569 0.50104 0.84492 0.0
N599 N 0.20537 0.51619 0.8433 0.0
N600 N 0.27265 0.53331 0.86444 0.0
C601 C 0.26126 0.55837 0.87054 0.0
C602 C 0.22484 0.54907 0.85915 0.0
C603 C 0.64744 0.23919 0.04402 0.0
C604 C 0.65856 0.21521 0.03072 0.0
C605 C 0.67429 0.27558 0.0537 0.0
C606 C 0.71309 0.289 0.05055 0.0
H607 H 0.61794 0.22929 0.04806 0.0
H608 H 0.66469 0.29269 0.06489 0.0
S609 S 0.75622 0.23929 0.01265 0.0
N610 N 0.71055 0.20906 0.01149 0.0
N611 N 0.76093 0.27698 0.0301 0.0
C612 C 0.72434 0.26596 0.03579 0.0
C613 C 0.6971 0.22918 0.02576 0.0
C614 C 0.457 0.68266 0.18384 0.0
C615 C 0.45789 0.6568 0.20409 0.0
C616 C 0.4477 0.70926 0.19398 0.0
C617 C 0.4388 0.71079 0.22463 0.0
H618 H 0.46426 0.6828 0.1601 0.0
H619 H 0.44857 0.72947 0.17797 0.0
S620 S 0.43568 0.64922 0.28668 0.0
N621 N 0.44837 0.63445 0.25632 0.0
N622 N 0.42985 0.68379 0.27488 0.0
C623 C 0.43828 0.68452 0.24486 0.0
C624 C 0.44797 0.65759 0.23469 0.0
C625 C 0.80458 0.49728 0.36319 0.0
C626 C 0.82025 0.47397 0.36562 0.0
C627 C 0.76867 0.48633 0.37409 0.0
C628 C 0.74666 0.45142 0.38764 0.0
H629 H 0.82048 0.52458 0.3532 0.0
H630 H 0.75826 0.50567 0.37218 0.0
S631 S 0.77407 0.37945 0.39883 0.0
N632 N 0.8107 0.41399 0.38222 0.0
N633 N 0.74263 0.39302 0.40211 0.0
C634 C 0.76128 0.42715 0.3892 0.0
C635 C 0.79818 0.4385 0.37832 0.0
C636 C 0.13098 0.60998 0.4853 0.0
C637 C 0.14374 0.60664 0.45628 0.0
C638 C 0.15415 0.61885 0.51153 0.0
C639 C 0.19029 0.62334 0.50979 0.0
H640 H 0.10264 0.60508 0.48791 0.0
H641 H 0.14337 0.62119 0.53343 0.0
S642 S 0.23959 0.62389 0.43929 0.0
N643 N 0.19708 0.61361 0.42723 0.0
N644 N 0.23975 0.62851 0.47685 0.0
C645 C 0.20403 0.62156 0.48101 0.0
C646 C 0.18087 0.61338 0.45419 0.0
C647 C 0.59218 0.18169 0.62573 0.0
C648 C 0.5614 0.14503 0.62707 0.0
C649 C 0.60597 0.20466 0.65197 0.0
C650 C 0.58959 0.19185 0.68052 0.0
H651 H 0.60551 0.19296 0.60416 0.0
H652 H 0.62945 0.2328 0.64987 0.0
S653 S 0.50888 0.09872 0.69698 0.0
N654 N 0.51567 0.09694 0.66 0.0
N655 N 0.54065 0.14117 0.70886 0.0
C656 C 0.55846 0.15581 0.68227 0.0
C657 C 0.54474 0.13206 0.6557 0.0
C658 C 0.41245 0.54007 0.80875 0.0
C659 C 0.43818 0.56792 0.78956 0.0
C660 C 0.40144 0.5492 0.83615 0.0
C661 C 0.4155 0.58665 0.84551 0.0
H662 H 0.40119 0.51087 0.80281 0.0
H663 H 0.38167 0.52649 0.85007 0.0
S664 S 0.48271 0.67013 0.80241 0.0
N665 N 0.47673 0.63441 0.78103 0.0
N666 N 0.45627 0.6519 0.8326 0.0
C667 C 0.44103 0.61486 0.82622 0.0
C668 C 0.45234 0.60543 0.7983 0.0
C669 C 0.90996 0.44005 0.98395 0.0
C670 C 0.89404 0.44376 0.95643 0.0
C671 C 0.88917 0.42867 0.01076 0.0
C672 C 0.8517 0.42112 0.01144 0.0
H673 H 0.93892 0.44616 0.98489 0.0
H674 H 0.90277 0.42598 0.03117 0.0
S675 S 0.79598 0.42466 0.94534 0.0
N676 N 0.83773 0.43719 0.93122 0.0
N677 N 0.79905 0.4171 0.98199 0.0
C678 C 0.83537 0.42489 0.98419 0.0
C679 C 0.85642 0.43593 0.95665 0.0
C680 C 0.49447 0.88358 0.1353 0.0
C681 C 0.47096 0.89642 0.1235 0.0
C682 C 0.48517 0.86202 0.16172 0.0
C683 C 0.45169 0.85192 0.17732 0.0
H684 H 0.52047 0.89036 0.12408 0.0
H685 H 0.50446 0.85322 0.16999 0.0
S686 S 0.38083 0.8792 0.15666 0.0
N687 N 0.41309 0.89822 0.13019 0.0
N688 N 0.39509 0.85679 0.17926 0.0
C689 C 0.42756 0.86401 0.16557 0.0
C690 C 0.43728 0.88641 0.13884 0.0
C691 C 0.58608 0.48713 0.31934 0.0
C692 C 0.58897 0.47217 0.29122 0.0
C693 C 0.59775 0.47839 0.34674 0.0
C694 C 0.61185 0.45362 0.34713 0.0
H695 H 0.57545 0.50637 0.32006 0.0
H696 H 0.59566 0.49117 0.36774 0.0
S697 S 0.62453 0.40662 0.27942 0.0
N698 N 0.60693 0.43161 0.26513 0.0
N699 N 0.62787 0.41415 0.31682 0.0
C700 C 0.61418 0.4379 0.31915 0.0
C701 C 0.60306 0.44749 0.29113 0.0
C702 C 0.44185 0.91049 0.33529 0.0
C703 C 0.44373 0.89739 0.36443 0.0
C704 C 0.43187 0.88703 0.30929 0.0
C705 C 0.42508 0.85038 0.31156 0.0
H706 H 0.44769 0.93887 0.33269 0.0
H707 H 0.42998 0.89774 0.28724 0.0
S708 S 0.42378 0.80222 0.38289 0.0
N709 N 0.4359 0.84501 0.39432 0.0
N710 N 0.41818 0.80121 0.34533 0.0
C711 C 0.42635 0.83686 0.34061 0.0
C712 C 0.43564 0.8604 0.3671 0.0
C713 C 0.54551 0.43634 0.50393 0.0
C714 C 0.56291 0.44096 0.53296 0.0
C715 C 0.55883 0.42676 0.47798 0.0
C716 C 0.59084 0.42288 0.47995 0.0
H717 H 0.52188 0.44091 0.50104 0.0
H718 H 0.54481 0.42361 0.45606 0.0
S719 S 0.64272 0.42532 0.5507 0.0
N720 N 0.61072 0.43548 0.56237 0.0
N721 N 0.63672 0.41942 0.51323 0.0
C722 C 0.60756 0.42577 0.50878 0.0
C723 C 0.59353 0.4346 0.53534 0.0
C724 C 0.13641 0.54345 0.67754 0.0
C725 C 0.13859 0.57119 0.69762 0.0
C726 C 0.15743 0.55268 0.65082 0.0
C727 C 0.18186 0.59016 0.64295 0.0
H728 H 0.11779 0.51423 0.68228 0.0
H729 H 0.15432 0.52999 0.63621 0.0
S730 S 0.19874 0.67344 0.68876 0.0
N731 N 0.16773 0.63768 0.70853 0.0
N732 N 0.20731 0.6553 0.65822 0.0
C733 C 0.1846 0.61827 0.66311 0.0
C734 C 0.16294 0.60874 0.69036 0.0
C735 C 0.62402 0.14653 0.84881 0.0
C736 C 0.59676 0.1466 0.8679 0.0
C737 C 0.63592 0.16842 0.82258 0.0
C738 C 0.62123 0.19158 0.81433 0.0
H739 H 0.63567 0.12871 0.85378 0.0
H740 H 0.6565 0.16667 0.80848 0.0
S741 S 0.551 0.20379 0.85832 0.0
N742 N 0.55682 0.17313 0.87793 0.0
N743 N 0.57886 0.21424 0.8287 0.0
C744 C 0.59453 0.19256 0.83379 0.0
C745 C 0.58236 0.17009 0.86048 0.0
C746 C 0.48732 0.60752 1.00475 0.0
C747 C 0.47106 0.60464 0.03356 0.0
C748 C 0.47341 0.61624 0.97853 0.0
C749 C 0.44197 0.62104 0.98003 0.0
H750 H 0.51049 0.60225 1.00227 0.0
H751 H 0.4866 0.61816 0.95681 0.0
S752 S 0.3931 0.62296 0.05002 0.0
N753 N 0.42493 0.61255 0.06224 0.0
N754 N 0.39784 0.62706 0.0126 0.0
C755 C 0.42638 0.6198 0.00863 0.0
C756 C 0.44099 0.61181 0.03545 0.0
C757 C 0.85566 0.44387 0.19761 0.0
C758 C 0.88964 0.47798 0.19667 0.0
C759 C 0.83256 0.42903 0.17136 0.0
C760 C 0.84323 0.44746 0.14331 0.0
H761 H 0.84697 0.4286 0.21872 0.0
H762 H 0.8062 0.40296 0.173 0.0
S763 S 0.92939 0.53773 0.12928 0.0
N764 N 0.9327 0.53004 0.16589 0.0
N765 N 0.8893 0.502 0.1164 0.0
C766 C 0.87678 0.48192 0.14231 0.0
C767 C 0.9002 0.49708 0.16902 0.0
loop_
_geom_bond_atom_site_label_1
_geom_bond_atom_site_label_2
_geom_bond_distance
_geom_bond_site_symmetry_2
_ccdc_geom_bond_type
H0 C19 0.949 . S
H1 C20 0.950 . S
H2 C22 0.950 . S
H3 C23 0.950 . S
H4 C25 0.950 . S
H5 C28 0.950 . S
H6 C29 0.950 . S
H7 C31 0.951 . S
H8 C32 0.949 . S
H9 C34 0.949 . S
H10 C35 0.950 . S
H11 C37 0.950 . S
H12 C38 0.950 . S
H13 C40 0.950 . S
H14 C43 0.950 . S
H15 C44 0.950 . S
H16 C46 0.951 . S
H17 C47 0.949 . S
C18 C19 1.376 . S
C18 C23 1.386 . S
C18 C24 1.483 . S
C19 H0 0.949 . S
C19 C18 1.376 . S
C19 C20 1.397 . S
C20 H1 0.950 . S
C20 C19 1.397 . S
C20 C21 1.391 . S
C21 C20 1.391 . S
C21 C22 1.405 . S
C22 H2 0.950 . S
C22 C21 1.405 . S
C22 C23 1.367 . S
C23 H3 0.950 . S
C23 C18 1.386 . S
C23 C22 1.367 . S
C24 C18 1.483 . S
C24 C25 1.382 1_655 S
C24 C26 1.403 . S
C25 H4 0.950 . S
C25 C24 1.382 1_455 S
C25 C41 1.411 . S
C26 C24 1.403 . S
C26 C27 1.489 . S
C26 C40 1.411 . S
C27 C26 1.489 . S
C27 C28 1.383 . S
C27 C32 1.382 . S
C28 H5 0.950 . S
C28 C27 1.383 . S
C28 C29 1.395 . S
C29 H6 0.950 . S
C29 C28 1.395 . S
C29 C30 1.288 . S
C30 C29 1.288 . S
C30 C31 1.392 . S
C31 H7 0.951 . S
C31 C30 1.392 . S
C31 C32 1.392 . S
C32 H8 0.949 . S
C32 C27 1.382 . S
C32 C31 1.392 . S
C33 C34 1.376 . S
C33 C38 1.386 . S
C33 C39 1.483 . S
C34 H9 0.949 . S
C34 C33 1.376 . S
C34 C35 1.397 . S
C35 H10 0.950 . S
C35 C34 1.397 . S
C35 C36 1.391 . S
C36 C35 1.391 . S
C36 C37 1.405 . S
C37 H11 0.950 . S
C37 C36 1.405 . S
C37 C38 1.367 . S
C38 H12 0.950 . S
C38 C33 1.386 . S
C38 C37 1.367 . S
C39 C33 1.483 . S
C39 C40 1.382 1_455 S
C39 C41 1.403 . S
C40 H13 0.950 . S
C40 C26 1.411 . S
C40 C39 1.382 1_655 S
C41 C25 1.411 . S
C41 C39 1.403 . S
C41 C42 1.489 . S
C42 C41 1.489 . S
C42 C43 1.383 . S
C42 C47 1.382 . S
C43 H14 0.950 . S
C43 C42 1.383 . S
C43 C44 1.395 . S
C44 H15 0.950 . S
C44 C43 1.395 . S
C44 C45 1.288 . S
C45 C44 1.288 . S
C45 C46 1.392 . S
C46 H16 0.951 . S
C46 C45 1.392 . S
C46 C47 1.392 . S
C47 H17 0.949 . S
C47 C42 1.382 . S
C47 C46 1.392 . S
H48 C67 0.949 . S
H49 C68 0.950 . S
H50 C70 0.950 . S
H51 C71 0.950 . S
H52 C73 0.950 1_565 S
H53 C76 0.950 . S
H54 C77 0.950 . S
H55 C79 0.951 . S
H56 C80 0.949 . S
H57 C82 0.949 . S
H58 C83 0.950 . S
H59 C85 0.950 . S
H60 C86 0.950 . S
H61 C88 0.950 . S
H62 C91 0.950 . S
H63 C92 0.950 . S
H64 C94 0.951 . S
H65 C95 0.949 . S
C66 C67 1.376 . S
C66 C71 1.386 . S
C66 C72 1.483 . S
C67 H48 0.949 . S
C67 C66 1.376 . S
C67 C68 1.397 . S
C68 H49 0.950 . S
C68 C67 1.397 . S
C68 C69 1.391 . S
C69 C68 1.391 . S
C69 C70 1.405 . S
C70 H50 0.950 . S
C70 C69 1.405 . S
C70 C71 1.367 . S
C71 H51 0.950 . S
C71 C66 1.386 . S
C71 C70 1.367 . S
C72 C66 1.483 . S
C72 C73 1.382 1_565 S
C72 C74 1.403 . S
C73 H52 0.950 1_545 S
C73 C72 1.382 1_545 S
C73 C89 1.411 . S
C74 C72 1.403 . S
C74 C75 1.489 . S
C74 C88 1.411 1_565 S
C75 C74 1.489 . S
C75 C76 1.383 . S
C75 C80 1.382 . S
C76 H53 0.950 . S
C76 C75 1.383 . S
C76 C77 1.395 . S
C77 H54 0.950 . S
C77 C76 1.395 . S
C77 C78 1.288 . S
C78 C77 1.288 . S
C78 C79 1.392 . S
C79 H55 0.951 . S
C79 C78 1.392 . S
C79 C80 1.392 . S
C80 H56 0.949 . S
C80 C75 1.382 . S
C80 C79 1.392 . S
C81 C82 1.376 . S
C81 C86 1.386 . S
C81 C87 1.483 . S
C82 H57 0.949 . S
C82 C81 1.376 . S
C82 C83 1.397 . S
C83 H58 0.950 . S
C83 C82 1.397 . S
C83 C84 1.391 . S
C84 C83 1.391 . S
C84 C85 1.405 . S
C85 H59 0.950 . S
C85 C84 1.405 . S
C85 C86 1.367 . S
C86 H60 0.950 . S
C86 C81 1.386 . S
C86 C85 1.367 . S
C87 C81 1.483 . S
C87 C88 1.382 . S
C87 C89 1.403 . S
C88 H61 0.950 . S
C88 C74 1.411 1_545 S
C88 C87 1.382 . S
C89 C73 1.411 . S
C89 C87 1.403 . S
C89 C90 1.489 . S
C90 C89 1.489 . S
C90 C91 1.383 . S
C90 C95 1.382 . S
C91 H62 0.950 . S
C91 C90 1.383 . S
C91 C92 1.395 . S
C92 H63 0.950 . S
C92 C91 1.395 . S
C92 C93 1.288 . S
C93 C92 1.288 . S
C93 C94 1.392 . S
C94 H64 0.951 . S
C94 C93 1.392 . S
C94 C95 1.392 . S
C95 H65 0.949 . S
C95 C90 1.382 . S
C95 C94 1.392 . S
H96 C115 0.949 . S
H97 C116 0.950 . S
H98 C118 0.950 . S
H99 C119 0.950 . S
H100 C121 0.950 . S
H101 C124 0.950 . S
H102 C125 0.950 . S
H103 C127 0.951 . S
H104 C128 0.949 . S
H105 C130 0.949 . S
H106 C131 0.950 . S
H107 C133 0.950 . S
H108 C134 0.950 . S
H109 C136 0.950 . S
H110 C139 0.950 . S
H111 C140 0.950 . S
H112 C142 0.951 . S
H113 C143 0.949 . S
C114 C115 1.376 . S
C114 C119 1.386 . S
C114 C120 1.483 . S
C115 H96 0.949 . S
C115 C114 1.376 . S
C115 C116 1.397 . S
C116 H97 0.950 . S
C116 C115 1.397 . S
C116 C117 1.391 . S
C117 C116 1.391 . S
C117 C118 1.405 . S
C118 H98 0.950 . S
C118 C117 1.405 . S
C118 C119 1.367 . S
C119 H99 0.950 . S
C119 C114 1.386 . S
C119 C118 1.367 . S
C120 C114 1.483 . S
C120 C121 1.382 . S
C120 C122 1.403 . S
C121 H100 0.950 . S
C121 C120 1.382 . S
C121 C137 1.411 . S
C122 C120 1.403 . S
C122 C123 1.489 . S
C122 C136 1.411 . S
C123 C122 1.489 . S
C123 C124 1.383 . S
C123 C128 1.382 . S
C124 H101 0.950 . S
C124 C123 1.383 . S
C124 C125 1.395 . S
C125 H102 0.950 . S
C125 C124 1.395 . S
C125 C126 1.288 . S
C126 C125 1.288 . S
C126 C127 1.392 . S
C127 H103 0.951 . S
C127 C126 1.392 . S
C127 C128 1.392 . S
C128 H104 0.949 . S
C128 C123 1.382 . S
C128 C127 1.392 . S
C129 C130 1.376 . S
C129 C134 1.386 . S
C129 C135 1.483 . S
C130 H105 0.949 . S
C130 C129 1.376 . S
C130 C131 1.397 . S
C131 H106 0.950 . S
C131 C130 1.397 . S
C131 C132 1.391 . S
C132 C131 1.391 . S
C132 C133 1.405 . S
C133 H107 0.950 . S
C133 C132 1.405 . S
C133 C134 1.367 . S
C134 H108 0.950 . S
C134 C129 1.386 . S
C134 C133 1.367 . S
C135 C129 1.483 . S
C135 C136 1.382 . S
C135 C137 1.403 . S
C136 H109 0.950 . S
C136 C122 1.411 . S
C136 C135 1.382 . S
C137 C121 1.411 . S
C137 C135 1.403 . S
C137 C138 1.489 . S
C138 C137 1.489 . S
C138 C139 1.383 . S
C138 C143 1.382 . S
C139 H110 0.950 . S
C139 C138 1.383 . S
C139 C140 1.395 . S
C140 H111 0.950 . S
C140 C139 1.395 . S
C140 C141 1.288 . S
C141 C140 1.288 . S
C141 C142 1.392 . S
C142 H112 0.951 . S
C142 C141 1.392 . S
C142 C143 1.392 . S
C143 H113 0.949 . S
C143 C138 1.382 . S
C143 C142 1.392 . S
H144 C163 0.949 . S
H145 C164 0.950 . S
H146 C166 0.950 . S
H147 C167 0.950 . S
H148 C169 0.950 . S
H149 C172 0.950 . S
H150 C173 0.950 . S
H151 C175 0.951 . S
H152 C176 0.949 . S
H153 C178 0.949 . S
H154 C179 0.950 . S
H155 C181 0.950 . S
H156 C182 0.950 . S
H157 C184 0.950 . S
H158 C187 0.950 . S
H159 C188 0.950 . S
H160 C190 0.951 . S
H161 C191 0.949 . S
C162 C163 1.376 . S
C162 C167 1.386 . S
C162 C168 1.483 . S
C163 H144 0.949 . S
C163 C162 1.376 . S
C163 C164 1.397 . S
C164 H145 0.950 . S
C164 C163 1.397 . S
C164 C165 1.391 . S
C165 C164 1.391 . S
C165 C166 1.405 . S
C166 H146 0.950 . S
C166 C165 1.405 . S
C166 C167 1.367 . S
C167 H147 0.950 . S
C167 C162 1.386 . S
C167 C166 1.367 . S
C168 C162 1.483 . S
C168 C169 1.382 1_455 S
C168 C170 1.403 . S
C169 H148 0.950 . S
C169 C168 1.382 1_655 S
C169 C185 1.411 . S
C170 C168 1.403 . S
C170 C171 1.489 . S
C170 C184 1.411 . S
C171 C170 1.489 . S
C171 C172 1.383 . S
C171 C176 1.382 . S
C172 H149 0.950 . S
C172 C171 1.383 . S
C172 C173 1.395 . S
C173 H150 0.950 . S
C173 C172 1.395 . S
C173 C174 1.288 . S
C174 C173 1.288 . S
C174 C175 1.392 . S
C175 H151 0.951 . S
C175 C174 1.392 . S
C175 C176 1.392 . S
C176 H152 0.949 . S
C176 C171 1.382 . S
C176 C175 1.392 . S
C177 C178 1.376 . S
C177 C182 1.386 . S
C177 C183 1.483 . S
C178 H153 0.949 . S
C178 C177 1.376 . S
C178 C179 1.397 . S
C179 H154 0.950 . S
C179 C178 1.397 . S
C179 C180 1.391 . S
C180 C179 1.391 . S
C180 C181 1.405 . S
C181 H155 0.950 . S
C181 C180 1.405 . S
C181 C182 1.367 . S
C182 H156 0.950 . S
C182 C177 1.386 . S
C182 C181 1.367 . S
C183 C177 1.483 . S
C183 C184 1.382 1_655 S
C183 C185 1.403 . S
C184 H157 0.950 . S
C184 C170 1.411 . S
C184 C183 1.382 1_455 S
C185 C169 1.411 . S
C185 C183 1.403 . S
C185 C186 1.489 . S
C186 C185 1.489 . S
C186 C187 1.383 . S
C186 C191 1.382 . S
C187 H158 0.950 . S
C187 C186 1.383 . S
C187 C188 1.395 . S
C188 H159 0.950 . S
C188 C187 1.395 . S
C188 C189 1.288 . S
C189 C188 1.288 . S
C189 C190 1.392 . S
C190 H160 0.951 . S
C190 C189 1.392 . S
C190 C191 1.392 . S
C191 H161 0.949 . S
C191 C186 1.382 . S
C191 C190 1.392 . S
H192 C211 0.949 . S
H193 C212 0.950 . S
H194 C214 0.950 . S
H195 C215 0.969 . S
H196 C217 0.950 . S
H197 C220 0.950 . S
H198 C221 0.950 . S
H199 C223 0.951 . S
H200 C224 0.949 . S
H201 C226 0.949 . S
H202 C227 0.950 . S
H203 C229 0.950 . S
H204 C230 0.950 . S
H205 C232 0.950 1_565 S
H206 C235 0.950 . S
H207 C236 0.950 . S
H208 C238 0.951 . S
H209 C239 0.949 . S
C210 C211 1.376 . S
C210 C215 1.378 1_554 S
C210 C216 1.483 1_554 S
C211 H192 0.949 . S
C211 C210 1.376 . S
C211 C212 1.397 . S
C212 H193 0.950 . S
C212 C211 1.397 . S
C212 C213 1.391 . S
C213 C212 1.391 . S
C213 C214 1.405 . S
C214 H194 0.950 . S
C214 C213 1.405 . S
C214 C215 1.357 1_554 S
C215 H195 0.969 . S
C215 C210 1.378 1_556 S
C215 C214 1.357 1_556 S
C216 C210 1.483 1_556 S
C216 C217 1.382 1_556 S
C216 C218 1.403 . S
C217 H196 0.950 . S
C217 C216 1.382 1_554 S
C217 C233 1.411 1_545 S
C218 C216 1.403 . S
C218 C219 1.489 . S
C218 C232 1.411 . S
C219 C218 1.489 . S
C219 C220 1.383 . S
C219 C224 1.382 . S
C220 H197 0.950 . S
C220 C219 1.383 . S
C220 C221 1.395 . S
C221 H198 0.950 . S
C221 C220 1.395 . S
C221 C222 1.288 . S
C222 C221 1.288 . S
C222 C223 1.392 . S
C223 H199 0.951 . S
C223 C222 1.392 . S
C223 C224 1.392 . S
C224 H200 0.949 . S
C224 C219 1.382 . S
C224 C223 1.392 . S
C225 C226 1.376 . S
C225 C230 1.386 . S
C225 C231 1.483 . S
C226 H201 0.949 . S
C226 C225 1.376 . S
C226 C227 1.397 . S
C227 H202 0.950 . S
C227 C226 1.397 . S
C227 C228 1.391 . S
C228 C227 1.391 . S
C228 C229 1.405 . S
C229 H203 0.950 . S
C229 C228 1.405 . S
C229 C230 1.367 . S
C230 H204 0.950 . S
C230 C225 1.386 . S
C230 C229 1.367 . S
C231 C225 1.483 . S
C231 C232 1.382 1_565 S
C231 C233 1.403 1_556 S
C232 H205 0.950 1_545 S
C232 C218 1.411 . S
C232 C231 1.382 1_545 S
C233 C217 1.411 1_565 S
C233 C231 1.403 1_554 S
C233 C234 1.489 . S
C234 C233 1.489 . S
C234 C235 1.383 . S
C234 C239 1.382 . S
C235 H206 0.950 . S
C235 C234 1.383 . S
C235 C236 1.395 . S
C236 H207 0.950 . S
C236 C235 1.395 . S
C236 C237 1.288 . S
C237 C236 1.288 . S
C237 C238 1.392 . S
C238 H208 0.951 . S
C238 C237 1.392 . S
C238 C239 1.392 . S
C239 H209 0.949 . S
C239 C234 1.382 . S
C239 C238 1.392 . S
H240 C259 0.949 . S
H241 C260 0.950 . S
H242 C262 0.950 . S
H243 C263 0.950 . S
H244 C265 0.950 . S
H245 C268 0.950 . S
H246 C269 0.950 . S
H247 C271 0.951 . S
H248 C272 0.949 . S
H249 C274 0.949 . S
H250 C275 0.950 . S
H251 C277 0.950 . S
H252 C278 0.950 . S
H253 C280 0.950 . S
H254 C283 0.950 . S
H255 C284 0.950 . S
H256 C286 0.951 . S
H257 C287 0.949 . S
C258 C259 1.376 . S
C258 C263 1.386 . S
C258 C264 1.483 . S
C259 H240 0.949 . S
C259 C258 1.376 . S
C259 C260 1.397 . S
C260 H241 0.950 . S
C260 C259 1.397 . S
C260 C261 1.391 . S
C261 C260 1.391 . S
C261 C262 1.405 . S
C262 H242 0.950 . S
C262 C261 1.405 . S
C262 C263 1.367 . S
C263 H243 0.950 . S
C263 C258 1.386 . S
C263 C262 1.367 . S
C264 C258 1.483 . S
C264 C265 1.382 . S
C264 C266 1.403 . S
C265 H244 0.950 . S
C265 C264 1.382 . S
C265 C281 1.411 . S
C266 C264 1.403 . S
C266 C267 1.489 . S
C266 C280 1.411 . S
C267 C266 1.489 . S
C267 C268 1.383 . S
C267 C272 1.382 . S
C268 H245 0.950 . S
C268 C267 1.383 . S
C268 C269 1.395 . S
C269 H246 0.950 . S
C269 C268 1.395 . S
C269 C270 1.288 . S
C270 C269 1.288 . S
C270 C271 1.392 . S
C271 H247 0.951 . S
C271 C270 1.392 . S
C271 C272 1.392 . S
C272 H248 0.949 . S
C272 C267 1.382 . S
C272 C271 1.392 . S
C273 C274 1.376 . S
C273 C278 1.386 . S
C273 C279 1.483 . S
C274 H249 0.949 . S
C274 C273 1.376 . S
C274 C275 1.397 . S
C275 H250 0.950 . S
C275 C274 1.397 . S
C275 C276 1.391 . S
C276 C275 1.391 . S
C276 C277 1.405 . S
C277 H251 0.950 . S
C277 C276 1.405 . S
C277 C278 1.367 . S
C278 H252 0.950 . S
C278 C273 1.386 . S
C278 C277 1.367 . S
C279 C273 1.483 . S
C279 C280 1.382 . S
C279 C281 1.403 . S
C280 H253 0.950 . S
C280 C266 1.411 . S
C280 C279 1.382 . S
C281 C265 1.411 . S
C281 C279 1.403 . S
C281 C282 1.489 . S
C282 C281 1.489 . S
C282 C283 1.383 . S
C282 C287 1.382 . S
C283 H254 0.950 . S
C283 C282 1.383 . S
C283 C284 1.395 . S
C284 H255 0.950 . S
C284 C283 1.395 . S
C284 C285 1.288 . S
C285 C284 1.288 . S
C285 C286 1.392 . S
C286 H256 0.951 . S
C286 C285 1.392 . S
C286 C287 1.392 . S
C287 H257 0.949 . S
C287 C282 1.382 . S
C287 C286 1.392 . S
Mn288 O293 2.095 . S
Mn288 O303 2.162 . S
Mn288 O304 2.297 . S
Mn288 O312 2.385 . S
Mn288 O313 2.209 . S
Mn288 O314 2.094 . S
Mn289 O294 2.121 . S
Mn289 N296 2.257 . S
Mn289 N305 2.282 . S
Mn289 O313 2.215 . S
Mn289 O315 2.117 . S
C290 O312 1.234 . S
C290 O313 1.283 . S
C291 O303 1.281 . S
C291 O304 1.236 . S
C292 O314 1.240 . S
C292 O315 1.264 . S
O293 Mn288 2.095 . S
O293 C302 1.250 . S
O294 Mn289 2.121 . S
O294 C302 1.258 . S
C295 N296 1.326 . S
C295 C299 1.460 . S
C295 H301 0.929 . S
N296 Mn289 2.257 . S
N296 C295 1.326 . S
N296 C300 1.362 . S
C297 C298 1.258 . S
C297 C300 1.431 . S
C297 C317 1.449 . S
C298 C297 1.258 . S
C298 C299 1.477 . S
C298 H318 0.931 . S
C299 C295 1.460 . S
C299 C298 1.477 . S
C299 H319 0.930 . S
C300 N296 1.362 . S
C300 C297 1.431 . S
C300 C310 1.476 . S
H301 C295 0.929 . S
C302 O293 1.250 . S
C302 O294 1.258 . S
O303 Mn288 2.162 . S
O303 C291 1.281 . S
O304 Mn288 2.297 . S
O304 C291 1.236 . S
N305 Mn289 2.282 . S
N305 C306 1.328 . S
N305 C310 1.318 . S
C306 N305 1.328 . S
C306 C307 1.457 . S
C306 H311 0.929 . S
C307 C306 1.457 . S
C307 C308 1.291 . S
C307 H320 0.931 . S
C308 C307 1.291 . S
C308 C309 1.373 . S
C308 H321 0.929 . S
C309 C308 1.373 . S
C309 C310 1.396 . S
C309 C316 1.403 . S
C310 C300 1.476 . S
C310 N305 1.318 . S
C310 C309 1.396 . S
H311 C306 0.929 . S
O312 Mn288 2.385 . S
O312 C290 1.234 . S
O313 Mn288 2.209 . S
O313 Mn289 2.215 . S
O313 C290 1.283 . S
O314 Mn288 2.094 . S
O314 C292 1.240 . S
O315 Mn289 2.117 . S
O315 C292 1.264 . S
C316 C309 1.403 . S
C316 C317 1.399 . S
C316 H322 0.929 . S
C317 C297 1.449 . S
C317 C316 1.399 . S
C317 H323 0.930 . S
H318 C298 0.931 . S
H319 C299 0.930 . S
H320 C307 0.931 . S
H321 C308 0.929 . S
H322 C316 0.929 . S
H323 C317 0.930 . S
Mn324 O329 2.095 . S
Mn324 O339 2.162 . S
Mn324 O340 2.297 . S
Mn324 O348 2.385 . S
Mn324 O349 2.209 . S
Mn324 O350 2.094 . S
Mn325 O330 2.121 . S
Mn325 N332 2.257 . S
Mn325 N341 2.282 . S
Mn325 O349 2.215 . S
Mn325 O351 2.117 . S
C326 O348 1.234 . S
C326 O349 1.283 . S
C327 O339 1.281 . S
C327 O340 1.236 . S
C328 O350 1.240 . S
C328 O351 1.264 . S
O329 Mn324 2.095 . S
O329 C338 1.250 . S
O330 Mn325 2.121 . S
O330 C338 1.258 . S
C331 N332 1.326 . S
C331 C335 1.460 . S
C331 H337 0.929 . S
N332 Mn325 2.257 . S
N332 C331 1.326 . S
N332 C336 1.362 . S
C333 C334 1.258 . S
C333 C336 1.431 . S
C333 C353 1.449 . S
C334 C333 1.258 . S
C334 C335 1.477 . S
C334 H354 0.931 . S
C335 C331 1.460 . S
C335 C334 1.477 . S
C335 H355 0.930 . S
C336 N332 1.362 . S
C336 C333 1.431 . S
C336 C346 1.476 . S
H337 C331 0.929 . S
C338 O329 1.250 . S
C338 O330 1.258 . S
O339 Mn324 2.162 . S
O339 C327 1.281 . S
O340 Mn324 2.297 . S
O340 C327 1.236 . S
N341 Mn325 2.282 . S
N341 C342 1.328 . S
N341 C346 1.318 . S
C342 N341 1.328 . S
C342 C343 1.457 . S
C342 H347 0.929 . S
C343 C342 1.457 . S
C343 C344 1.291 . S
C343 H356 0.931 . S
C344 C343 1.291 . S
C344 C345 1.373 . S
C344 H357 0.929 . S
C345 C344 1.373 . S
C345 C346 1.396 . S
C345 C352 1.403 . S
C346 C336 1.476 . S
C346 N341 1.318 . S
C346 C345 1.396 . S
H347 C342 0.929 . S
O348 Mn324 2.385 . S
O348 C326 1.234 . S
O349 Mn324 2.209 . S
O349 Mn325 2.215 . S
O349 C326 1.283 . S
O350 Mn324 2.094 . S
O350 C328 1.240 . S
O351 Mn325 2.117 . S
O351 C328 1.264 . S
C352 C345 1.403 . S
C352 C353 1.399 . S
C352 H358 0.929 . S
C353 C333 1.449 . S
C353 C352 1.399 . S
C353 H359 0.930 . S
H354 C334 0.931 . S
H355 C335 0.930 . S
H356 C343 0.931 . S
H357 C344 0.929 . S
H358 C352 0.929 . S
H359 C353 0.930 . S
Mn360 O365 2.095 . S
Mn360 O375 2.162 . S
Mn360 O376 2.297 . S
Mn360 O384 2.385 . S
Mn360 O385 2.209 . S
Mn360 O386 2.094 . S
Mn361 O366 2.121 . S
Mn361 N368 2.257 . S
Mn361 N377 2.282 . S
Mn361 O385 2.215 . S
Mn361 O387 2.117 . S
C362 O384 1.234 . S
C362 O385 1.283 . S
C363 O375 1.281 . S
C363 O376 1.236 . S
C364 O386 1.240 . S
C364 O387 1.264 . S
O365 Mn360 2.095 . S
O365 C374 1.250 . S
O366 Mn361 2.121 . S
O366 C374 1.258 . S
C367 N368 1.326 . S
C367 C371 1.460 . S
C367 H373 0.929 . S
N368 Mn361 2.257 . S
N368 C367 1.326 . S
N368 C372 1.362 . S
C369 C370 1.258 . S
C369 C372 1.431 . S
C369 C389 1.449 . S
C370 C369 1.258 . S
C370 C371 1.477 . S
C370 H390 0.931 . S
C371 C367 1.460 . S
C371 C370 1.477 . S
C371 H391 0.930 . S
C372 N368 1.362 . S
C372 C369 1.431 . S
C372 C382 1.476 . S
H373 C367 0.929 . S
C374 O365 1.250 . S
C374 O366 1.258 . S
O375 Mn360 2.162 . S
O375 C363 1.281 . S
O376 Mn360 2.297 . S
O376 C363 1.236 . S
N377 Mn361 2.282 . S
N377 C378 1.328 . S
N377 C382 1.318 . S
C378 N377 1.328 . S
C378 C379 1.457 . S
C378 H383 0.929 . S
C379 C378 1.457 . S
C379 C380 1.291 . S
C379 H392 0.931 . S
C380 C379 1.291 . S
C380 C381 1.373 . S
C380 H393 0.929 . S
C381 C380 1.373 . S
C381 C382 1.396 . S
C381 C388 1.403 . S
C382 C372 1.476 . S
C382 N377 1.318 . S
C382 C381 1.396 . S
H383 C378 0.929 . S
O384 Mn360 2.385 . S
O384 C362 1.234 . S
O385 Mn360 2.209 . S
O385 Mn361 2.215 . S
O385 C362 1.283 . S
O386 Mn360 2.094 . S
O386 C364 1.240 . S
O387 Mn361 2.117 . S
O387 C364 1.264 . S
C388 C381 1.403 . S
C388 C389 1.399 . S
C388 H394 0.929 . S
C389 C369 1.449 . S
C389 C388 1.399 . S
C389 H395 0.930 . S
H390 C370 0.931 . S
H391 C371 0.930 . S
H392 C379 0.931 . S
H393 C380 0.929 . S
H394 C388 0.929 . S
H395 C389 0.930 . S
Mn396 O401 2.095 . S
Mn396 O411 2.162 . S
Mn396 O412 2.297 . S
Mn396 O420 2.385 . S
Mn396 O421 2.209 . S
Mn396 O422 2.094 . S
Mn397 O402 2.121 . S
Mn397 N404 2.257 . S
Mn397 N413 2.282 . S
Mn397 O421 2.215 . S
Mn397 O423 2.117 . S
C398 O420 1.234 . S
C398 O421 1.283 . S
C399 O411 1.281 . S
C399 O412 1.236 . S
C400 O422 1.240 . S
C400 O423 1.264 . S
O401 Mn396 2.095 . S
O401 C410 1.250 . S
O402 Mn397 2.121 . S
O402 C410 1.258 . S
C403 N404 1.326 . S
C403 C407 1.460 . S
C403 H409 0.929 . S
N404 Mn397 2.257 . S
N404 C403 1.326 . S
N404 C408 1.362 . S
C405 C406 1.258 . S
C405 C408 1.431 . S
C405 C425 1.449 . S
C406 C405 1.258 . S
C406 C407 1.477 . S
C406 H426 0.931 1_556 S
C407 C403 1.460 . S
C407 C406 1.477 . S
C407 H427 0.930 . S
C408 N404 1.362 . S
C408 C405 1.431 . S
C408 C418 1.476 . S
H409 C403 0.929 . S
C410 O401 1.250 . S
C410 O402 1.258 . S
O411 Mn396 2.162 . S
O411 C399 1.281 . S
O412 Mn396 2.297 . S
O412 C399 1.236 . S
N413 Mn397 2.282 . S
N413 C414 1.328 . S
N413 C418 1.318 . S
C414 N413 1.328 . S
C414 C415 1.457 . S
C414 H419 0.929 . S
C415 C414 1.457 . S
C415 C416 1.291 . S
C415 H428 0.931 . S
C416 C415 1.291 . S
C416 C417 1.373 . S
C416 H429 0.929 . S
C417 C416 1.373 . S
C417 C418 1.396 . S
C417 C424 1.403 . S
C418 C408 1.476 . S
C418 N413 1.318 . S
C418 C417 1.396 . S
H419 C414 0.929 . S
O420 Mn396 2.385 . S
O420 C398 1.234 . S
O421 Mn396 2.209 . S
O421 Mn397 2.215 . S
O421 C398 1.283 . S
O422 Mn396 2.094 . S
O422 C400 1.240 . S
O423 Mn397 2.117 . S
O423 C400 1.264 . S
C424 C417 1.403 . S
C424 C425 1.399 . S
C424 H430 0.929 . S
C425 C405 1.449 . S
C425 C424 1.399 . S
C425 H431 0.930 1_556 S
H426 C406 0.931 1_554 S
H427 C407 0.930 . S
H428 C415 0.931 . S
H429 C416 0.929 . S
H430 C424 0.929 . S
H431 C425 0.930 1_554 S
Mn432 O437 2.095 . S
Mn432 O447 2.162 . S
Mn432 O448 2.297 . S
Mn432 O456 2.385 . S
Mn432 O457 2.209 . S
Mn432 O458 2.094 . S
Mn433 O438 2.121 . S
Mn433 N440 2.257 . S
Mn433 N449 2.282 . S
Mn433 O457 2.215 . S
Mn433 O459 2.117 . S
C434 O456 1.234 . S
C434 O457 1.283 . S
C435 O447 1.281 . S
C435 O448 1.236 . S
C436 O458 1.240 . S
C436 O459 1.264 . S
O437 Mn432 2.095 . S
O437 C446 1.250 . S
O438 Mn433 2.121 . S
O438 C446 1.258 . S
C439 N440 1.326 . S
C439 C443 1.460 . S
C439 H445 0.929 . S
N440 Mn433 2.257 . S
N440 C439 1.326 . S
N440 C444 1.362 . S
C441 C442 1.258 . S
C441 C444 1.431 . S
C441 C461 1.449 . S
C442 C441 1.258 . S
C442 C443 1.477 . S
C442 H462 0.931 . S
C443 C439 1.460 . S
C443 C442 1.477 . S
C443 H463 0.930 . S
C444 N440 1.362 . S
C444 C441 1.431 . S
C444 C454 1.476 . S
H445 C439 0.929 . S
C446 O437 1.250 . S
C446 O438 1.258 . S
O447 Mn432 2.162 . S
O447 C435 1.281 . S
O448 Mn432 2.297 . S
O448 C435 1.236 . S
N449 Mn433 2.282 . S
N449 C450 1.328 . S
N449 C454 1.318 . S
C450 N449 1.328 . S
C450 C451 1.457 . S
C450 H455 0.929 . S
C451 C450 1.457 . S
C451 C452 1.291 . S
C451 H464 0.931 . S
C452 C451 1.291 . S
C452 C453 1.373 . S
C452 H465 0.929 . S
C453 C452 1.373 . S
C453 C454 1.396 . S
C453 C460 1.403 . S
C454 C444 1.476 . S
C454 N449 1.318 . S
C454 C453 1.396 . S
H455 C450 0.929 . S
O456 Mn432 2.385 . S
O456 C434 1.234 . S
O457 Mn432 2.209 . S
O457 Mn433 2.215 . S
O457 C434 1.283 . S
O458 Mn432 2.094 . S
O458 C436 1.240 . S
O459 Mn433 2.117 . S
O459 C436 1.264 . S
C460 C453 1.403 . S
C460 C461 1.399 . S
C460 H466 0.929 . S
C461 C441 1.449 . S
C461 C460 1.399 . S
C461 H467 0.930 . S
H462 C442 0.931 . S
H463 C443 0.930 . S
H464 C451 0.931 . S
H465 C452 0.929 . S
H466 C460 0.929 . S
H467 C461 0.930 . S
Mn468 O473 2.095 . S
Mn468 O483 2.162 . S
Mn468 O484 2.297 . S
Mn468 O492 2.385 . S
Mn468 O493 2.209 . S
Mn468 O494 2.094 . S
Mn469 O474 2.121 . S
Mn469 N476 2.257 . S
Mn469 N485 2.282 . S
Mn469 O493 2.215 . S
Mn469 O495 2.117 . S
C470 O492 1.234 . S
C470 O493 1.283 . S
C471 O483 1.281 . S
C471 O484 1.236 . S
C472 O494 1.240 . S
C472 O495 1.264 . S
O473 Mn468 2.095 . S
O473 C482 1.250 . S
O474 Mn469 2.121 . S
O474 C482 1.258 . S
C475 N476 1.326 . S
C475 C479 1.460 . S
C475 H481 0.929 . S
N476 Mn469 2.257 . S
N476 C475 1.326 . S
N476 C480 1.362 . S
C477 C478 1.258 . S
C477 C480 1.431 . S
C477 C497 1.449 . S
C478 C477 1.258 . S
C478 C479 1.477 . S
C478 H498 0.931 . S
C479 C475 1.460 . S
C479 C478 1.477 . S
C479 H499 0.930 . S
C480 N476 1.362 . S
C480 C477 1.431 . S
C480 C490 1.476 . S
H481 C475 0.929 . S
C482 O473 1.250 . S
C482 O474 1.258 . S
O483 Mn468 2.162 . S
O483 C471 1.281 . S
O484 Mn468 2.297 . S
O484 C471 1.236 . S
N485 Mn469 2.282 . S
N485 C486 1.328 . S
N485 C490 1.318 . S
C486 N485 1.328 . S
C486 C487 1.457 . S
C486 H491 0.929 . S
C487 C486 1.457 . S
C487 C488 1.291 . S
C487 H500 0.931 . S
C488 C487 1.291 . S
C488 C489 1.373 . S
C488 H501 0.929 . S
C489 C488 1.373 . S
C489 C490 1.396 . S
C489 C496 1.403 . S
C490 C480 1.476 . S
C490 N485 1.318 . S
C490 C489 1.396 . S
H491 C486 0.929 . S
O492 Mn468 2.385 . S
O492 C470 1.234 . S
O493 Mn468 2.209 . S
O493 Mn469 2.215 . S
O493 C470 1.283 . S
O494 Mn468 2.094 . S
O494 C472 1.240 . S
O495 Mn469 2.117 . S
O495 C472 1.264 . S
C496 C489 1.403 . S
C496 C497 1.399 . S
C496 H502 0.929 . S
C497 C477 1.449 . S
C497 C496 1.399 . S
C497 H503 0.930 . S
H498 C478 0.931 . S
H499 C479 0.930 . S
H500 C487 0.931 . S
H501 C488 0.929 . S
H502 C496 0.929 . S
H503 C497 0.930 . S
C504 C505 1.369 . S
C504 C506 1.419 . S
C504 H508 0.930 . S
C505 C504 1.369 . S
C505 C514 1.429 . S
C506 C504 1.419 . S
C506 C507 1.363 . S
C506 H509 0.929 . S
C507 C506 1.363 . S
C507 C513 1.428 . S
H508 C504 0.930 . S
H509 C506 0.929 . S
S510 N511 1.613 . S
S510 N512 1.610 . S
N511 S510 1.613 . S
N511 C514 1.350 . S
N512 S510 1.610 . S
N512 C513 1.351 . S
C513 C507 1.428 . S
C513 N512 1.351 . S
C513 C514 1.434 . S
C514 C505 1.429 . S
C514 N511 1.350 . S
C514 C513 1.434 . S
C515 C516 1.369 . S
C515 C517 1.419 . S
C515 H519 0.930 . S
C516 C515 1.369 . S
C516 C525 1.429 . S
C517 C515 1.419 . S
C517 C518 1.363 . S
C517 H520 0.929 . S
C518 C517 1.363 . S
C518 C524 1.428 . S
H519 C515 0.930 . S
H520 C517 0.929 . S
S521 N522 1.613 . S
S521 N523 1.610 . S
N522 S521 1.613 . S
N522 C525 1.350 . S
N523 S521 1.610 . S
N523 C524 1.351 . S
C524 C518 1.428 . S
C524 N523 1.351 . S
C524 C525 1.434 . S
C525 C516 1.429 . S
C525 N522 1.350 . S
C525 C524 1.434 . S
C526 C527 1.369 . S
C526 C528 1.419 . S
C526 H530 0.930 . S
C527 C526 1.369 . S
C527 C536 1.429 . S
C528 C526 1.419 . S
C528 C529 1.363 . S
C528 H531 0.929 . S
C529 C528 1.363 . S
C529 C535 1.428 . S
H530 C526 0.930 . S
H531 C528 0.929 . S
S532 N533 1.613 . S
S532 N534 1.610 . S
N533 S532 1.613 . S
N533 C536 1.350 . S
N534 S532 1.610 . S
N534 C535 1.351 . S
C535 C529 1.428 . S
C535 N534 1.351 . S
C535 C536 1.434 . S
C536 C527 1.429 . S
C536 N533 1.350 . S
C536 C535 1.434 . S
C537 C538 1.369 . S
C537 C539 1.419 . S
C537 H541 0.930 . S
C538 C537 1.369 . S
C538 C547 1.429 . S
C539 C537 1.419 . S
C539 C540 1.363 . S
C539 H542 0.929 . S
C540 C539 1.363 . S
C540 C546 1.428 . S
H541 C537 0.930 . S
H542 C539 0.929 . S
S543 N544 1.613 . S
S543 N545 1.610 . S
N544 S543 1.613 . S
N544 C547 1.350 . S
N545 S543 1.610 . S
N545 C546 1.351 . S
C546 C540 1.428 . S
C546 N545 1.351 . S
C546 C547 1.434 . S
C547 C538 1.429 . S
C547 N544 1.350 . S
C547 C546 1.434 . S
C548 C549 1.369 . S
C548 C550 1.419 . S
C548 H552 0.930 . S
C549 C548 1.369 . S
C549 C558 1.429 . S
C550 C548 1.419 . S
C550 C551 1.363 . S
C550 H553 0.929 . S
C551 C550 1.363 . S
C551 C557 1.428 . S
H552 C548 0.930 . S
H553 C550 0.929 . S
S554 N555 1.613 . S
S554 N556 1.610 . S
N555 S554 1.613 . S
N555 C558 1.350 . S
N556 S554 1.610 . S
N556 C557 1.351 . S
C557 C551 1.428 . S
C557 N556 1.351 . S
C557 C558 1.434 . S
C558 C549 1.429 . S
C558 N555 1.350 . S
C558 C557 1.434 . S
C559 C560 1.369 . S
C559 C561 1.419 . S
C559 H563 0.930 . S
C560 C559 1.369 . S
C560 C569 1.429 . S
C561 C559 1.419 . S
C561 C562 1.363 . S
C561 H564 0.929 . S
C562 C561 1.363 . S
C562 C568 1.428 . S
H563 C559 0.930 . S
H564 C561 0.929 . S
S565 N566 1.613 . S
S565 N567 1.610 . S
N566 S565 1.613 . S
N566 C569 1.350 . S
N567 S565 1.610 . S
N567 C568 1.351 . S
C568 C562 1.428 . S
C568 N567 1.351 . S
C568 C569 1.434 . S
C569 C560 1.429 . S
C569 N566 1.350 . S
C569 C568 1.434 . S
C570 C571 1.369 . S
C570 C572 1.419 . S
C570 H574 0.930 . S
C571 C570 1.369 . S
C571 C580 1.429 . S
C572 C570 1.419 . S
C572 C573 1.363 . S
C572 H575 0.929 . S
C573 C572 1.363 . S
C573 C579 1.428 . S
H574 C570 0.930 . S
H575 C572 0.929 . S
S576 N577 1.613 . S
S576 N578 1.610 . S
N577 S576 1.613 . S
N577 C580 1.350 . S
N578 S576 1.610 . S
N578 C579 1.351 . S
C579 C573 1.428 . S
C579 N578 1.351 . S
C579 C580 1.434 . S
C580 C571 1.429 . S
C580 N577 1.350 . S
C580 C579 1.434 . S
C581 C582 1.369 . S
C581 C583 1.419 . S
C581 H585 0.930 . S
C582 C581 1.369 . S
C582 C591 1.429 . S
C583 C581 1.419 . S
C583 C584 1.363 . S
C583 H586 0.929 . S
C584 C583 1.363 . S
C584 C590 1.428 . S
H585 C581 0.930 . S
H586 C583 0.929 . S
S587 N588 1.613 . S
S587 N589 1.610 . S
N588 S587 1.613 . S
N588 C591 1.350 . S
N589 S587 1.610 . S
N589 C590 1.351 . S
C590 C584 1.428 . S
C590 N589 1.351 . S
C590 C591 1.434 . S
C591 C582 1.429 . S
C591 N588 1.350 . S
C591 C590 1.434 . S
C592 C593 1.369 . S
C592 C594 1.419 . S
C592 H596 0.930 . S
C593 C592 1.369 . S
C593 C602 1.429 . S
C594 C592 1.419 . S
C594 C595 1.363 . S
C594 H597 0.929 . S
C595 C594 1.363 . S
C595 C601 1.428 . S
H596 C592 0.930 . S
H597 C594 0.929 . S
S598 N599 1.613 . S
S598 N600 1.610 . S
N599 S598 1.613 . S
N599 C602 1.350 . S
N600 S598 1.610 . S
N600 C601 1.351 . S
C601 C595 1.428 . S
C601 N600 1.351 . S
C601 C602 1.434 . S
C602 C593 1.429 . S
C602 N599 1.350 . S
C602 C601 1.434 . S
C603 C604 1.369 . S
C603 C605 1.419 . S
C603 H607 0.930 . S
C604 C603 1.369 . S
C604 C613 1.429 . S
C605 C603 1.419 . S
C605 C606 1.363 . S
C605 H608 0.929 . S
C606 C605 1.363 . S
C606 C612 1.428 . S
H607 C603 0.930 . S
H608 C605 0.929 . S
S609 N610 1.613 . S
S609 N611 1.610 . S
N610 S609 1.613 . S
N610 C613 1.350 . S
N611 S609 1.610 . S
N611 C612 1.351 . S
C612 C606 1.428 . S
C612 N611 1.351 . S
C612 C613 1.434 . S
C613 C604 1.429 . S
C613 N610 1.350 . S
C613 C612 1.434 . S
C614 C615 1.369 . S
C614 C616 1.419 . S
C614 H618 0.930 . S
C615 C614 1.369 . S
C615 C624 1.429 . S
C616 C614 1.419 . S
C616 C617 1.363 . S
C616 H619 0.929 . S
C617 C616 1.363 . S
C617 C623 1.428 . S
H618 C614 0.930 . S
H619 C616 0.929 . S
S620 N621 1.613 . S
S620 N622 1.610 . S
N621 S620 1.613 . S
N621 C624 1.350 . S
N622 S620 1.610 . S
N622 C623 1.351 . S
C623 C617 1.428 . S
C623 N622 1.351 . S
C623 C624 1.434 . S
C624 C615 1.429 . S
C624 N621 1.350 . S
C624 C623 1.434 . S
C625 C626 1.369 . S
C625 C627 1.419 . S
C625 H629 0.930 . S
C626 C625 1.369 . S
C626 C635 1.429 . S
C627 C625 1.419 . S
C627 C628 1.363 . S
C627 H630 0.929 . S
C628 C627 1.363 . S
C628 C634 1.428 . S
H629 C625 0.930 . S
H630 C627 0.929 . S
S631 N632 1.613 . S
S631 N633 1.610 . S
N632 S631 1.613 . S
N632 C635 1.350 . S
N633 S631 1.610 . S
N633 C634 1.351 . S
C634 C628 1.428 . S
C634 N633 1.351 . S
C634 C635 1.434 . S
C635 C626 1.429 . S
C635 N632 1.350 . S
C635 C634 1.434 . S
C636 C637 1.369 . S
C636 C638 1.419 . S
C636 H640 0.930 . S
C637 C636 1.369 . S
C637 C646 1.429 . S
C638 C636 1.419 . S
C638 C639 1.363 . S
C638 H641 0.929 . S
C639 C638 1.363 . S
C639 C645 1.428 . S
H640 C636 0.930 . S
H641 C638 0.929 . S
S642 N643 1.613 . S
S642 N644 1.610 . S
N643 S642 1.613 . S
N643 C646 1.350 . S
N644 S642 1.610 . S
N644 C645 1.351 . S
C645 C639 1.428 . S
C645 N644 1.351 . S
C645 C646 1.434 . S
C646 C637 1.429 . S
C646 N643 1.350 . S
C646 C645 1.434 . S
C647 C648 1.369 . S
C647 C649 1.419 . S
C647 H651 0.930 . S
C648 C647 1.369 . S
C648 C657 1.429 . S
C649 C647 1.419 . S
C649 C650 1.363 . S
C649 H652 0.929 . S
C650 C649 1.363 . S
C650 C656 1.428 . S
H651 C647 0.930 . S
H652 C649 0.929 . S
S653 N654 1.613 . S
S653 N655 1.610 . S
N654 S653 1.613 . S
N654 C657 1.350 . S
N655 S653 1.610 . S
N655 C656 1.351 . S
C656 C650 1.428 . S
C656 N655 1.351 . S
C656 C657 1.434 . S
C657 C648 1.429 . S
C657 N654 1.350 . S
C657 C656 1.434 . S
C658 C659 1.369 . S
C658 C660 1.419 . S
C658 H662 0.930 . S
C659 C658 1.369 . S
C659 C668 1.429 . S
C660 C658 1.419 . S
C660 C661 1.363 . S
C660 H663 0.929 . S
C661 C660 1.363 . S
C661 C667 1.428 . S
H662 C658 0.930 . S
H663 C660 0.929 . S
S664 N665 1.613 . S
S664 N666 1.610 . S
N665 S664 1.613 . S
N665 C668 1.350 . S
N666 S664 1.610 . S
N666 C667 1.351 . S
C667 C661 1.428 . S
C667 N666 1.351 . S
C667 C668 1.434 . S
C668 C659 1.429 . S
C668 N665 1.350 . S
C668 C667 1.434 . S
C669 C670 1.369 . S
C669 C671 1.419 . S
C669 H673 0.930 . S
C670 C669 1.369 . S
C670 C679 1.429 . S
C671 C669 1.419 . S
C671 C672 1.363 . S
C671 H674 0.929 1_556 S
C672 C671 1.363 . S
C672 C678 1.428 . S
H673 C669 0.930 . S
H674 C671 0.929 1_554 S
S675 N676 1.613 . S
S675 N677 1.610 . S
N676 S675 1.613 . S
N676 C679 1.350 . S
N677 S675 1.610 . S
N677 C678 1.351 . S
C678 C672 1.428 . S
C678 N677 1.351 . S
C678 C679 1.434 . S
C679 C670 1.429 . S
C679 N676 1.350 . S
C679 C678 1.434 . S
C680 C681 1.369 . S
C680 C682 1.419 . S
C680 H684 0.930 . S
C681 C680 1.369 . S
C681 C690 1.429 . S
C682 C680 1.419 . S
C682 C683 1.363 . S
C682 H685 0.929 . S
C683 C682 1.363 . S
C683 C689 1.428 . S
H684 C680 0.930 . S
H685 C682 0.929 . S
S686 N687 1.613 . S
S686 N688 1.610 . S
N687 S686 1.613 . S
N687 C690 1.350 . S
N688 S686 1.610 . S
N688 C689 1.351 . S
C689 C683 1.428 . S
C689 N688 1.351 . S
C689 C690 1.434 . S
C690 C681 1.429 . S
C690 N687 1.350 . S
C690 C689 1.434 . S
C691 C692 1.369 . S
C691 C693 1.419 . S
C691 H695 0.930 . S
C692 C691 1.369 . S
C692 C701 1.429 . S
C693 C691 1.419 . S
C693 C694 1.363 . S
C693 H696 0.929 . S
C694 C693 1.363 . S
C694 C700 1.428 . S
H695 C691 0.930 . S
H696 C693 0.929 . S
S697 N698 1.613 . S
S697 N699 1.610 . S
N698 S697 1.613 . S
N698 C701 1.350 . S
N699 S697 1.610 . S
N699 C700 1.351 . S
C700 C694 1.428 . S
C700 N699 1.351 . S
C700 C701 1.434 . S
C701 C692 1.429 . S
C701 N698 1.350 . S
C701 C700 1.434 . S
C702 C703 1.369 . S
C702 C704 1.419 . S
C702 H706 0.930 . S
C703 C702 1.369 . S
C703 C712 1.429 . S
C704 C702 1.419 . S
C704 C705 1.363 . S
C704 H707 0.929 . S
C705 C704 1.363 . S
C705 C711 1.428 . S
H706 C702 0.930 . S
H707 C704 0.929 . S
S708 N709 1.613 . S
S708 N710 1.610 . S
N709 S708 1.613 . S
N709 C712 1.350 . S
N710 S708 1.610 . S
N710 C711 1.351 . S
C711 C705 1.428 . S
C711 N710 1.351 . S
C711 C712 1.434 . S
C712 C703 1.429 . S
C712 N709 1.350 . S
C712 C711 1.434 . S
C713 C714 1.369 . S
C713 C715 1.419 . S
C713 H717 0.930 . S
C714 C713 1.369 . S
C714 C723 1.429 . S
C715 C713 1.419 . S
C715 C716 1.363 . S
C715 H718 0.929 . S
C716 C715 1.363 . S
C716 C722 1.428 . S
H717 C713 0.930 . S
H718 C715 0.929 . S
S719 N720 1.613 . S
S719 N721 1.610 . S
N720 S719 1.613 . S
N720 C723 1.350 . S
N721 S719 1.610 . S
N721 C722 1.351 . S
C722 C716 1.428 . S
C722 N721 1.351 . S
C722 C723 1.434 . S
C723 C714 1.429 . S
C723 N720 1.350 . S
C723 C722 1.434 . S
C724 C725 1.369 . S
C724 C726 1.419 . S
C724 H728 0.930 . S
C725 C724 1.369 . S
C725 C734 1.429 . S
C726 C724 1.419 . S
C726 C727 1.363 . S
C726 H729 0.929 . S
C727 C726 1.363 . S
C727 C733 1.428 . S
H728 C724 0.930 . S
H729 C726 0.929 . S
S730 N731 1.613 . S
S730 N732 1.610 . S
N731 S730 1.613 . S
N731 C734 1.350 . S
N732 S730 1.610 . S
N732 C733 1.351 . S
C733 C727 1.428 . S
C733 N732 1.351 . S
C733 C734 1.434 . S
C734 C725 1.429 . S
C734 N731 1.350 . S
C734 C733 1.434 . S
C735 C736 1.369 . S
C735 C737 1.419 . S
C735 H739 0.930 . S
C736 C735 1.369 . S
C736 C745 1.429 . S
C737 C735 1.419 . S
C737 C738 1.363 . S
C737 H740 0.929 . S
C738 C737 1.363 . S
C738 C744 1.428 . S
H739 C735 0.930 . S
H740 C737 0.929 . S
S741 N742 1.613 . S
S741 N743 1.610 . S
N742 S741 1.613 . S
N742 C745 1.350 . S
N743 S741 1.610 . S
N743 C744 1.351 . S
C744 C738 1.428 . S
C744 N743 1.351 . S
C744 C745 1.434 . S
C745 C736 1.429 . S
C745 N742 1.350 . S
C745 C744 1.434 . S
C746 C747 1.369 . S
C746 C748 1.419 1_554 S
C746 H750 0.931 . S
C747 C746 1.369 . S
C747 C756 1.429 . S
C748 C746 1.419 1_556 S
C748 C749 1.363 . S
C748 H751 0.929 . S
C749 C748 1.363 . S
C749 C755 1.420 1_556 S
H750 C746 0.931 . S
H751 C748 0.929 . S
S752 N753 1.613 . S
S752 N754 1.610 . S
N753 S752 1.613 . S
N753 C756 1.350 . S
N754 S752 1.610 . S
N754 C755 1.352 . S
C755 C749 1.420 1_554 S
C755 N754 1.352 . S
C755 C756 1.443 . S
C756 C747 1.429 . S
C756 N753 1.350 . S
C756 C755 1.443 . S
C757 C758 1.369 . S
C757 C759 1.419 . S
C757 H761 0.930 . S
C758 C757 1.369 . S
C758 C767 1.429 . S
C759 C757 1.419 . S
C759 C760 1.363 . S
C759 H762 0.929 . S
C760 C759 1.363 . S
C760 C766 1.428 . S
H761 C757 0.930 . S
H762 C759 0.929 . S
S763 N764 1.613 . S
S763 N765 1.610 . S
N764 S763 1.613 . S
N764 C767 1.350 . S
N765 S763 1.610 . S
N765 C766 1.351 . S
C766 C760 1.428 . S
C766 N765 1.351 . S
C766 C767 1.434 . S
C767 C758 1.429 . S
C767 N764 1.350 . S
C767 C766 1.434 . S
C507 C471 1.619 . S
C505 C45 1.625 . S
C516 C84 1.646 . S
C518 C291 1.661 . S
C527 C126 1.582 . S
C529 C338 1.639 . S
C538 C189 1.583 . S
C540 C374 1.576 . S
C551 C399 1.601 . S
C549 C228 1.591 . S
C560 C270 1.559 . S
C562 C435 1.605 . S
C571 C69 1.613 . S
C573 C327 1.651 . S
C582 C141 1.604 . S
C584 C363 1.604 . S
C593 C174 1.524 . S
C595 C410 1.564 . S
C606 C446 1.617 . S
C604 C213 1.583 . S
C617 C482 1.629 . S
C615 C285 1.630 . S
C628 C302 1.644 . S
C626 C30 1.592 . S
C637 C36 1.497 . S
C639 C326 1.482 . S
C648 C93 1.500 . S
C650 C362 1.489 . S
C661 C400 1.499 . S
C659 C117 1.500 . S
C670 C180 1.507 . S
C672 C436 1.502 1_556 S
C683 C472 1.467 . S
C681 C237 1.476 . S
C694 C292 1.461 . S
C692 C261 1.464 . S
C705 C470 1.474 . S
C703 C78 1.481 . S
C714 C132 1.493 . S
C716 C290 1.478 . S
C727 C328 1.485 . S
C725 C165 1.486 . S
C736 C222 1.487 . S
C738 C364 1.491 . S
C747 C276 1.531 . S
C749 C398 1.519 . S
C758 C21 1.516 . S
C760 C434 1.504 . S
