# Generated by pormake.
# Topology apo, (3,6)-cn, num edge types: 1
# Building blocks:
#     Node 0, Type 0, BuildingBlock: PAMTOO_clean_linker_0, # of connection points: 3
#     Node 1, Type 0, BuildingBlock: PAMTOO_clean_linker_0, # of connection points: 3
#     Node 2, Type 0, BuildingBlock: PAMTOO_clean_linker_0, # of connection points: 3
#     Node 3, Type 0, BuildingBlock: PAMTOO_clean_linker_0, # of connection points: 3
#     Node 4, Type 0, BuildingBlock: PAMTOO_clean_linker_0, # of connection points: 3
#     Node 5, Type 0, BuildingBlock: PAMTOO_clean_linker_0, # of connection points: 3
#     Node 6, Type 0, BuildingBlock: PAMTOO_clean_linker_0, # of connection points: 3
#     Node 7, Type 0, BuildingBlock: PAMTOO_clean_linker_0, # of connection points: 3
#     Node 8, Type 1, BuildingBlock: MIDCAF_clean_sbu_0, # of connection points: 6
#     Node 9, Type 1, BuildingBlock: MIDCAF_clean_sbu_0, # of connection points: 6
#     Node 10, Type 1, BuildingBlock: MIDCAF_clean_sbu_0, # of connection points: 6
#     Node 11, Type 1, BuildingBlock: MIDCAF_clean_sbu_0, # of connection points: 6
#     Edge 12, Type (0, 1), BuildingBlock: EZIPEK_clean_linker_0, # of connection points: 2
#     Edge 13, Type (0, 1), BuildingBlock: EZIPEK_clean_linker_0, # of connection points: 2
#     Edge 14, Type (0, 1), BuildingBlock: EZIPEK_clean_linker_0, # of connection points: 2
#     Edge 15, Type (0, 1), BuildingBlock: EZIPEK_clean_linker_0, # of connection points: 2
#     Edge 16, Type (0, 1), BuildingBlock: EZIPEK_clean_linker_0, # of connection points: 2
#     Edge 17, Type (0, 1), BuildingBlock: EZIPEK_clean_linker_0, # of connection points: 2
#     Edge 18, Type (0, 1), BuildingBlock: EZIPEK_clean_linker_0, # of connection points: 2
#     Edge 19, Type (0, 1), BuildingBlock: EZIPEK_clean_linker_0, # of connection points: 2
#     Edge 20, Type (0, 1), BuildingBlock: EZIPEK_clean_linker_0, # of connection points: 2
#     Edge 21, Type (0, 1), BuildingBlock: EZIPEK_clean_linker_0, # of connection points: 2
#     Edge 22, Type (0, 1), BuildingBlock: EZIPEK_clean_linker_0, # of connection points: 2
#     Edge 23, Type (0, 1), BuildingBlock: EZIPEK_clean_linker_0, # of connection points: 2
#     Edge 24, Type (0, 1), BuildingBlock: EZIPEK_clean_linker_0, # of connection points: 2
#     Edge 25, Type (0, 1), BuildingBlock: EZIPEK_clean_linker_0, # of connection points: 2
#     Edge 26, Type (0, 1), BuildingBlock: EZIPEK_clean_linker_0, # of connection points: 2
#     Edge 27, Type (0, 1), BuildingBlock: EZIPEK_clean_linker_0, # of connection points: 2
#     Edge 28, Type (0, 1), BuildingBlock: EZIPEK_clean_linker_0, # of connection points: 2
#     Edge 29, Type (0, 1), BuildingBlock: EZIPEK_clean_linker_0, # of connection points: 2
#     Edge 30, Type (0, 1), BuildingBlock: EZIPEK_clean_linker_0, # of connection points: 2
#     Edge 31, Type (0, 1), BuildingBlock: EZIPEK_clean_linker_0, # of connection points: 2
#     Edge 32, Type (0, 1), BuildingBlock: EZIPEK_clean_linker_0, # of connection points: 2
#     Edge 33, Type (0, 1), BuildingBlock: EZIPEK_clean_linker_0, # of connection points: 2
#     Edge 34, Type (0, 1), BuildingBlock: EZIPEK_clean_linker_0, # of connection points: 2
#     Edge 35, Type (0, 1), BuildingBlock: EZIPEK_clean_linker_0, # of connection points: 2
# Relax obj value: 0.013
# Max RMSD: 0.059
# Mean RMSD: 0.052
data_MOF--net-apo--node1-MIDCAF_clean_sbu_0--node2-PAMTOO_clean_linker_0--edge1-EZIPEK_clean_linker_0
_symmetry_space_group_name_H-M    P1
_symmetry_Int_Tables_number       1
_symmetry_cell_setting            triclinic
loop_
_symmetry_equiv_pos_as_xyz
'x, y, z'
_cell_length_a     27.06929
_cell_length_b     30.89104
_cell_length_c     24.122199
_cell_angle_alpha  90.098693
_cell_angle_beta   90.19339
_cell_angle_gamma 89.827275
loop_
_atom_site_label
_atom_site_type_symbol
_atom_site_fract_x
_atom_site_fract_y
_atom_site_fract_z
_atom_type_partial_charge
H0 H 0.39666 0.38244 0.42713 0.0
H1 H 0.30994 0.35083 0.28326 0.0
H2 H 0.30463 0.26875 0.42689 0.0
H3 H 0.30966 0.2285 0.29949 0.0
C4 C 0.28399 0.25314 0.28205 0.0
O5 O 0.27136 0.28096 0.32475 0.0
H6 H 0.3032 0.27098 0.24845 0.0
C7 C 0.37167 0.3606 0.4058 0.0
C8 C 0.35276 0.32441 0.43379 0.0
C9 C 0.35686 0.36988 0.35127 0.0
C10 C 0.32279 0.34296 0.32464 0.0
C11 C 0.30494 0.30598 0.35114 0.0
C12 C 0.31977 0.29664 0.40583 0.0
H13 H 0.08154 0.11417 0.94225 0.0
H14 H 0.15616 0.23699 0.93983 0.0
H15 H 0.15763 0.15514 0.79538 0.0
H16 H 0.25371 0.19663 0.85093 0.0
C17 C 0.2382 0.22991 0.84761 0.0
O18 O 0.18809 0.22843 0.83702 0.0
H19 H 0.24439 0.24479 0.88908 0.0
C20 C 0.10187 0.1388 0.91994 0.0
C21 C 0.11623 0.13096 0.86505 0.0
C22 C 0.11633 0.17675 0.9475 0.0
C23 C 0.14406 0.20786 0.9188 0.0
C24 C 0.15852 0.20012 0.86364 0.0
C25 C 0.14479 0.16166 0.83708 0.0
H26 H 0.88273 0.08443 0.61659 0.0
H27 H 0.78951 0.13068 0.74711 0.0
H28 H 0.8156 0.21102 0.60469 0.0
H29 H 0.80442 0.25471 0.7223 0.0
C30 C 0.77701 0.23176 0.73961 0.0
O31 O 0.76514 0.20296 0.69776 0.0
H32 H 0.79407 0.21458 0.7754 0.0
C33 C 0.85916 0.10972 0.63328 0.0
C34 C 0.85177 0.14828 0.60321 0.0
C35 C 0.83903 0.10436 0.68615 0.0
C36 C 0.80669 0.13558 0.70715 0.0
C37 C 0.79767 0.17371 0.67749 0.0
C38 C 0.82137 0.18075 0.62639 0.0
H39 H 0.59317 0.3754 0.08441 0.0
H40 H 0.66515 0.25095 0.08634 0.0
H41 H 0.67256 0.33371 0.22971 0.0
H42 H 0.76567 0.28265 0.16218 0.0
C43 C 0.74793 0.25193 0.17541 0.0
O44 O 0.69894 0.25877 0.18869 0.0
H45 H 0.74978 0.23049 0.13839 0.0
C46 C 0.61412 0.35071 0.10624 0.0
C47 C 0.6299 0.3585 0.16083 0.0
C48 C 0.62712 0.31229 0.07869 0.0
C49 C 0.6548 0.28073 0.10712 0.0
C50 C 0.6709 0.28843 0.1618 0.0
C51 C 0.65896 0.32747 0.18816 0.0
H52 H 0.60251 0.60256 0.56814 0.0
H53 H 0.72108 0.69467 0.57124 0.0
H54 H 0.66722 0.64083 0.72374 0.0
H55 H 0.70475 0.74593 0.70914 0.0
C56 C 0.73831 0.73367 0.6881 0.0
O57 O 0.73453 0.68971 0.67964 0.0
H58 H 0.73922 0.75057 0.64743 0.0
C59 C 0.62801 0.62265 0.59146 0.0
C60 C 0.63127 0.6181 0.64917 0.0
C61 C 0.65913 0.65127 0.5632 0.0
C62 C 0.69496 0.67444 0.59303 0.0
C63 C 0.69709 0.67125 0.65115 0.0
C64 C 0.66394 0.64449 0.6792 0.0
H65 H 0.91535 0.87102 0.1114 0.0
H66 H 0.87096 0.82123 0.26976 0.0
H67 H 0.82057 0.75951 0.11988 0.0
H68 H 0.76455 0.80653 0.24999 0.0
C69 C 0.77414 0.77205 0.25794 0.0
O70 O 0.816 0.75923 0.22935 0.0
H71 H 0.78234 0.77226 0.30304 0.0
C72 C 0.89585 0.84701 0.13567 0.0
C73 C 0.87003 0.81372 0.10862 0.0
C74 C 0.89555 0.85045 0.19358 0.0
C75 C 0.87122 0.81892 0.22493 0.0
C76 C 0.84302 0.78691 0.19845 0.0
C77 C 0.84214 0.78442 0.14023 0.0
H78 H 0.1082 0.88698 0.48076 0.0
H79 H 0.22328 0.79078 0.48251 0.0
H80 H 0.18269 0.85309 0.32954 0.0
H81 H 0.21089 0.74527 0.34094 0.0
C82 C 0.24454 0.75451 0.36428 0.0
O83 O 0.24358 0.79828 0.37576 0.0
H84 H 0.24273 0.73601 0.40375 0.0
C85 C 0.13455 0.86689 0.45863 0.0
C86 C 0.14203 0.87365 0.40191 0.0
C87 C 0.16281 0.83637 0.48784 0.0
C88 C 0.19956 0.81284 0.4598 0.0
C89 C 0.20573 0.81803 0.40225 0.0
C90 C 0.17606 0.8476 0.37324 0.0
H91 H 0.41009 0.61424 0.94178 0.0
H92 H 0.36352 0.66302 0.78331 0.0
H93 H 0.31692 0.72733 0.93274 0.0
H94 H 0.2585 0.67932 0.80382 0.0
C95 C 0.26846 0.7135 0.79476 0.0
O96 O 0.31042 0.72638 0.82327 0.0
H97 H 0.27665 0.71225 0.74974 0.0
C98 C 0.39057 0.63838 0.91743 0.0
C99 C 0.36585 0.67245 0.94429 0.0
C100 C 0.38898 0.63427 0.85963 0.0
C101 C 0.36475 0.6659 0.82808 0.0
C102 C 0.33764 0.69872 0.85435 0.0
C103 C 0.33778 0.70185 0.91255 0.0
Zn104 Zn 0.05742 0.12765 0.35965 0.0
Zn105 Zn 0.95275 0.10003 0.19085 0.0
Zn106 Zn 0.00144 0.1131 0.27934 0.0
C107 C 0.0319 0.14383 0.15352 0.0
C108 C 0.96321 0.01949 0.23242 0.0
O109 O 0.95525 0.13896 0.35152 0.0
O110 O 0.01359 0.15827 0.41047 0.0
C111 C 0.10671 0.16655 0.27929 0.0
O112 O 0.03862 0.14565 0.20663 0.0
O113 O 0.99669 0.12223 0.13354 0.0
O114 O 0.9398 0.03781 0.19379 0.0
O115 O 0.98992 0.04197 0.26615 0.0
O116 O 0.11155 0.16117 0.33064 0.0
O117 O 0.06853 0.15143 0.25349 0.0
O118 O 0.02691 0.04861 0.30496 0.0
O119 O 0.07469 0.06598 0.37593 0.0
C120 C 0.05664 0.03754 0.3442 0.0
O121 O 0.93071 0.14649 0.29628 0.0
O122 O 0.89874 0.13855 0.21228 0.0
C123 C 0.96838 0.1529 0.40006 0.0
C124 C 0.89637 0.15422 0.26047 0.0
Zn125 Zn 0.54401 0.37266 0.66378 0.0
Zn126 Zn 0.44671 0.38066 0.84868 0.0
Zn127 Zn 0.49299 0.37398 0.7562 0.0
C128 C 0.45297 0.4636 0.81339 0.0
C129 C 0.38782 0.33108 0.77709 0.0
O130 O 0.56219 0.33729 0.77211 0.0
O131 O 0.59668 0.33301 0.68903 0.0
C132 C 0.54134 0.4582 0.69818 0.0
O133 O 0.47791 0.44337 0.77592 0.0
O134 O 0.43287 0.44306 0.85227 0.0
O135 O 0.39147 0.3436 0.82671 0.0
O136 O 0.42174 0.34035 0.7417 0.0
O137 O 0.56118 0.43484 0.66151 0.0
O138 O 0.51324 0.44126 0.73518 0.0
O139 O 0.44544 0.34384 0.68972 0.0
O140 O 0.49149 0.35097 0.61456 0.0
C141 C 0.45134 0.33992 0.63676 0.0
O142 O 0.5376 0.34093 0.82326 0.0
O143 O 0.49575 0.35624 0.89956 0.0
C144 C 0.5971 0.32398 0.73999 0.0
C145 C 0.53281 0.33935 0.87654 0.0
Zn146 Zn 0.03796 0.88083 0.88256 0.0
Zn147 Zn 0.96911 0.87712 0.70262 0.0
Zn148 Zn -0.00021 0.87519 0.79274 0.0
C149 C 0.93105 0.95061 0.7495 0.0
C150 C 0.916 0.81389 0.75388 0.0
O151 O 0.07117 0.84095 0.78831 0.0
O152 O 0.0844 0.83104 0.87776 0.0
C153 C 0.05414 0.95954 0.82783 0.0
O154 O 0.96778 0.94183 0.78195 0.0
O155 O 0.92378 0.92639 0.70823 0.0
O156 O 0.93272 0.82216 0.70625 0.0
O157 O 0.93406 0.83364 0.79627 0.0
O158 O 0.06954 0.93733 0.86824 0.0
O159 O 0.01712 0.94514 0.79965 0.0
O160 O 0.95053 0.84205 0.85272 0.0
O161 O 0.97789 0.8746 0.92834 0.0
C162 C 0.94659 0.85049 0.90486 0.0
O163 O 0.05624 0.84905 0.73356 0.0
O164 O 0.02889 0.87945 0.65656 0.0
C165 C 0.09613 0.82355 0.82804 0.0
C166 C 0.06194 0.85843 0.68188 0.0
Zn167 Zn 0.54259 0.60926 0.1629 0.0
Zn168 Zn 0.47786 0.60351 0.34453 0.0
Zn169 Zn 0.50625 0.60944 0.25386 0.0
C170 C 0.56974 0.62526 0.36454 0.0
C171 C 0.44406 0.52937 0.29592 0.0
O172 O 0.45342 0.64316 0.19746 0.0
O173 O 0.48165 0.61639 0.11868 0.0
C174 C 0.60085 0.6644 0.22005 0.0
O175 O 0.56257 0.63562 0.31335 0.0
O176 O 0.53838 0.60243 0.38945 0.0
O177 O 0.43676 0.55216 0.33846 0.0
O178 O 0.47839 0.54101 0.26202 0.0
O179 O 0.5883 0.6591 0.17005 0.0
O180 O 0.57677 0.6451 0.25877 0.0
O181 O 0.52693 0.54033 0.24067 0.0
O182 O 0.5761 0.5528 0.17064 0.0
C183 C 0.56329 0.52826 0.20975 0.0
O184 O 0.43881 0.6503 0.2544 0.0
O185 O 0.43767 0.65674 0.34527 0.0
C186 C 0.44908 0.63738 0.14473 0.0
C187 C 0.42061 0.66757 0.29851 0.0
C188 C 0.0676 0.91591 0.36996 0.0
C189 C 0.11972 0.91264 0.37577 0.0
C190 C 0.12806 0.98702 0.34293 0.0
C191 C 0.07634 -0.00714 0.34785 0.0
N192 N 0.99616 0.96359 0.36906 0.0
N193 N 0.19957 0.94791 0.37547 0.0
C194 C 0.04563 0.95734 0.36134 0.0
C195 C 0.15012 0.94876 0.36363 0.0
N196 N 0.03938 0.87942 0.37271 0.0
N197 N 0.15614 0.01808 0.31808 0.0
H198 H 0.21766 0.92128 0.39257 0.0
H199 H 0.22191 0.97526 0.3732 0.0
H200 H 0.14087 0.04627 0.30153 0.0
H201 H 0.19335 0.01368 0.3086 0.0
H202 H 0.00172 0.87907 0.36366 0.0
H203 H 0.05474 0.84877 0.3789 0.0
H204 H 0.9727 0.93981 0.38433 0.0
H205 H 0.97908 -0.0064 0.36367 0.0
C206 C 0.37402 0.56228 0.81417 0.0
C207 C 0.40795 0.59397 0.8335 0.0
C208 C 0.47607 0.5418 0.82555 0.0
C209 C 0.44164 0.51014 0.80814 0.0
N210 N 0.36284 0.49346 0.76742 0.0
N211 N 0.49208 0.61802 0.84303 0.0
C212 C 0.39229 0.52172 0.7959 0.0
C213 C 0.45945 0.58508 0.8341 0.0
N214 N 0.32421 0.56945 0.81722 0.0
N215 N 0.52375 0.52997 0.83657 0.0
H216 H 0.48055 0.64993 0.84924 0.0
H217 H 0.5302 0.61451 0.8394 0.0
H218 H 0.53693 0.49871 0.82924 0.0
H219 H 0.54953 0.5504 0.85504 0.0
H220 H 0.29805 0.54546 0.80981 0.0
H221 H 0.30864 0.59822 0.83155 0.0
H222 H 0.32773 0.5015 0.75283 0.0
H223 H 0.37574 0.46351 0.75337 0.0
C224 C 0.553 0.57883 0.67375 0.0
C225 C 0.60543 0.58133 0.67608 0.0
C226 C 0.60814 0.50964 0.71842 0.0
C227 C 0.55832 0.50335 0.70336 0.0
N228 N 0.48104 0.53184 0.67024 0.0
N229 N 0.68381 0.54573 0.69504 0.0
C230 C 0.52966 0.53819 0.68294 0.0
C231 C 0.63337 0.54621 0.69802 0.0
N232 N 0.52596 0.6152 0.66262 0.0
N233 N 0.63138 0.48003 0.75146 0.0
H234 H 0.70455 0.57035 0.67724 0.0
H235 H 0.705 0.51866 0.70527 0.0
H236 H 0.61263 0.45358 0.76802 0.0
H237 H 0.66682 0.48456 0.76744 0.0
H238 H 0.48756 0.61633 0.6646 0.0
H239 H 0.54243 0.64529 0.65629 0.0
H240 H 0.45925 0.55459 0.6497 0.0
H241 H 0.46308 0.50273 0.67857 0.0
C242 C 0.96808 0.89776 0.21711 0.0
C243 C 0.91645 0.88992 0.22001 0.0
C244 C 0.90397 0.96264 0.25775 0.0
C245 C 0.95272 0.9733 0.24239 0.0
N246 N 0.03343 0.95155 0.2119 0.0
N247 N 0.83409 0.9161 0.24083 0.0
C248 C 0.98589 0.94077 0.22446 0.0
C249 C 0.8841 0.92229 0.24106 0.0
N250 N -0.0004 0.8641 0.20694 0.0
N251 N 0.87649 0.99177 0.28725 0.0
H252 H 0.81728 0.88757 0.22771 0.0
H253 H 0.80877 0.94063 0.24951 0.0
H254 H 0.8907 0.02162 0.29988 0.0
H255 H 0.84205 0.98459 0.30397 0.0
H256 H 0.0379 0.86681 0.2085 0.0
H257 H 0.98712 0.83241 0.20169 0.0
H258 H 0.05828 0.93051 0.19291 0.0
H259 H 0.04743 0.98252 0.219 0.0
C260 C 0.8301 0.02551 0.70641 0.0
C261 C 0.85265 0.06558 0.71905 0.0
C262 C 0.9122 0.02855 0.77997 0.0
C263 C 0.89741 0.98897 0.75561 0.0
N264 N 0.82598 0.94873 0.72643 0.0
N265 N 0.90902 0.10724 0.77537 0.0
C266 C 0.85084 0.98713 0.72859 0.0
C267 C 0.89134 0.06782 0.7591 0.0
N268 N 0.79044 0.02408 0.67127 0.0
N269 N 0.94316 0.02823 0.82466 0.0
H270 H 0.89431 0.13638 0.76097 0.0
H271 H 0.93867 0.11139 0.8023 0.0
H272 H 0.95321 -0.00043 0.84441 0.0
H273 H 0.95402 0.05581 0.84622 0.0
H274 H 0.77625 -0.00455 0.65496 0.0
H275 H 0.77289 0.05193 0.65657 0.0
H276 H 0.79021 0.94556 0.711 0.0
H277 H 0.83931 0.92101 0.74632 0.0
C278 C 0.64777 0.43769 0.16693 0.0
C279 C 0.62068 0.40161 0.18631 0.0
C280 C 0.57131 0.44998 0.24548 0.0
C281 C 0.58985 0.48555 0.21511 0.0
N282 N 0.66625 0.51364 0.17932 0.0
N283 N 0.56164 0.37177 0.25034 0.0
C284 C 0.63457 0.47964 0.18546 0.0
C285 C 0.58439 0.40716 0.22833 0.0
N286 N 0.6853 0.43202 0.12979 0.0
N287 N 0.5453 0.45721 0.29294 0.0
H288 H 0.57031 0.34019 0.23848 0.0
H289 H 0.53312 0.37357 0.27902 0.0
H290 H 0.54208 0.48802 0.31019 0.0
H291 H 0.53281 0.43279 0.31896 0.0
H292 H 0.70174 0.45749 0.10857 0.0
H293 H 0.6986 0.40157 0.11829 0.0
H294 H 0.70132 0.51077 0.16202 0.0
H295 H 0.66011 0.54343 0.19864 0.0
C296 C 0.3492 0.44995 0.34031 0.0
C297 C 0.37252 0.41077 0.32443 0.0
C298 C 0.42839 0.45122 0.2633 0.0
C299 C 0.4126 0.48974 0.28975 0.0
N300 N 0.34019 0.52673 0.32283 0.0
N301 N 0.42785 0.37229 0.26348 0.0
C302 C 0.36714 0.48938 0.31872 0.0
C303 C 0.40977 0.41076 0.28288 0.0
N304 N 0.31102 0.44962 0.37728 0.0
N305 N 0.45766 0.45368 0.21755 0.0
H306 H 0.41505 0.3424 0.27733 0.0
H307 H 0.45603 0.36959 0.23454 0.0
H308 H 0.46574 0.48315 0.19884 0.0
H309 H 0.46909 0.42707 0.19439 0.0
H310 H 0.29696 0.47753 0.39577 0.0
H311 H 0.2948 0.4212 0.39166 0.0
H312 H 0.30478 0.52822 0.33946 0.0
H313 H 0.35113 0.55525 0.30319 0.0
C314 C 0.1379 0.0526 0.85896 0.0
C315 C 0.10787 0.08745 0.84077 0.0
C316 C 0.05639 0.03668 0.78771 0.0
C317 C 0.07869 0.00236 0.81766 0.0
N318 N 0.15824 0.97674 0.84841 0.0
N319 N 0.04398 0.1146 0.7802 0.0
C320 C 0.12515 0.00998 0.84314 0.0
C321 C 0.0691 0.08017 0.80197 0.0
N322 N 0.1776 0.06008 0.89282 0.0
N323 N 0.02695 0.02766 0.74322 0.0
H324 H 0.0529 0.14659 0.78971 0.0
H325 H 0.01376 0.1117 0.75375 0.0
H326 H 0.02379 -0.0036 0.7274 0.0
H327 H 0.01114 0.05108 0.71776 0.0
H328 H 0.19668 0.03554 0.91337 0.0
H329 H 0.19018 0.09111 0.90238 0.0
H330 H 0.19433 0.98075 0.86258 0.0
H331 H 0.15152 0.94618 0.83151 0.0
C332 C 0.06596 0.20604 0.02733 0.0
C333 C 0.10604 0.18053 1.00802 0.0
C334 C 0.10839 0.14086 0.09588 0.0
C335 C 0.06616 0.16418 0.11361 0.0
N336 N 0.01435 0.22694 0.10549 0.0
N337 N 0.17556 0.13488 0.02979 0.0
C338 C 0.04857 0.19986 0.08245 0.0
C339 C 0.13095 0.15198 0.04473 0.0
N340 N 0.04264 0.23397 0.99199 0.0
N341 N 0.12435 0.10588 0.12557 0.0
H342 H 0.19263 0.14272 0.99239 0.0
H343 H 0.19758 0.11655 0.05639 0.0
H344 H 0.10826 0.09686 0.163 0.0
H345 H 0.15137 0.08443 0.11169 0.0
H346 H 0.00977 0.24988 1.00142 0.0
H347 H 0.05515 0.23976 0.95185 0.0
H348 H 0.0023 0.2555 0.08694 0.0
H349 H 0.00155 0.22256 0.1459 0.0
C350 C 0.34671 0.34732 0.53353 0.0
C351 C 0.36603 0.31811 0.49349 0.0
C352 C 0.42287 0.28913 0.56371 0.0
C353 C 0.41166 0.32469 0.59866 0.0
N354 N 0.36038 0.3863 0.61979 0.0
N355 N 0.42099 0.2593 0.47054 0.0
C356 C 0.37181 0.35271 0.58518 0.0
C357 C 0.40288 0.28766 0.50901 0.0
N358 N 0.3047 0.37013 0.52159 0.0
N359 N 0.45363 0.25741 0.583 0.0
H360 H 0.40665 0.25691 0.43048 0.0
H361 H 0.45175 0.23969 0.47728 0.0
H362 H 0.4682 0.25831 0.62315 0.0
H363 H 0.46079 0.22874 0.56173 0.0
H364 H 0.28617 0.38935 0.55031 0.0
H365 H 0.28583 0.36661 0.48404 0.0
H366 H 0.33614 0.41123 0.60936 0.0
H367 H 0.37674 0.39012 0.65865 0.0
C368 C 0.63718 0.3348 0.97955 0.0
C369 C 0.61391 0.30748 1.01885 0.0
C370 C 0.55467 0.28486 0.94752 0.0
C371 C 0.57032 0.31957 0.91371 0.0
N372 N 0.62846 0.37628 0.89461 0.0
N373 N 0.55169 0.25441 0.0401 0.0
C374 C 0.61314 0.34338 0.92809 0.0
C375 C 0.57372 0.28097 1.00239 0.0
N376 N 0.68183 0.3529 0.99212 0.0
N377 N 0.5205 0.25654 0.92713 0.0
H378 H 0.56498 0.25045 0.0804 0.0
H379 H 0.51881 0.23801 0.0325 0.0
H380 H 0.50655 0.25933 0.88684 0.0
H381 H 0.50977 0.22848 0.94763 0.0
H382 H 0.70276 0.37039 0.96387 0.0
H383 H 0.70003 0.34687 0.02956 0.0
H384 H 0.65573 0.39838 0.90567 0.0
H385 H 0.61213 0.38255 0.85625 0.0
C386 C 0.93098 0.1442 0.55026 0.0
C387 C 0.88003 0.15461 0.55028 0.0
C388 C 0.8868 0.17059 0.45043 0.0
C389 C 0.9349 0.15214 0.4496 0.0
N390 N 0.99282 0.1058 0.499 0.0
N391 N 0.80687 0.17009 0.4955 0.0
C392 C 0.95412 0.13431 0.49961 0.0
C393 C 0.85695 0.1658 0.49894 0.0
N394 N 0.95766 0.14391 0.59841 0.0
N395 N 0.87041 0.19414 0.40645 0.0
H396 H 0.78356 0.1648 0.52908 0.0
H397 H 0.78845 0.17462 0.45792 0.0
H398 H 0.89326 0.20075 0.373 0.0
H399 H 0.83695 0.21094 0.40649 0.0
H400 H 0.99579 0.13882 0.59905 0.0
H401 H 0.94276 0.15373 0.63628 0.0
H402 H 0.00542 0.09033 0.53481 0.0
H403 H 0.00744 0.09311 0.46245 0.0
C404 C 0.90511 0.78202 1.02065 0.0
C405 C 0.87246 0.81166 0.0469 0.0
C406 C 0.8718 0.8573 0.96396 0.0
C407 C 0.9087 0.83041 0.94058 0.0
N408 N 0.94738 0.76061 0.93589 0.0
N409 N 0.81207 0.86833 0.03785 0.0
C410 C 0.92024 0.7901 0.96512 0.0
C411 C 0.85108 0.84601 1.01609 0.0
N412 N 0.92456 0.74826 0.05008 0.0
N413 N 0.8593 0.89499 0.93786 0.0
H414 H 0.79668 0.86016 0.07607 0.0
H415 H 0.79246 0.89202 1.01636 0.0
H416 H 0.87317 0.90294 0.89883 0.0
H417 H 0.83682 0.91874 0.95526 0.0
H418 H 0.953 0.72855 0.03562 0.0
H419 H 0.91361 0.74099 0.09038 0.0
H420 H 0.95445 0.72924 0.94953 0.0
H421 H 0.9588 0.76653 0.89533 0.0
C422 C 0.66972 0.61772 0.46985 0.0
C423 C 0.65493 0.65399 0.50181 0.0
C424 C 0.60834 0.68206 0.42236 0.0
C425 C 0.61238 0.64091 0.39713 0.0
N426 N 0.65205 0.57163 0.3904 0.0
N427 N 0.61491 0.72362 0.50762 0.0
C428 C 0.64596 0.60981 0.4182 0.0
C429 C 0.62684 0.68778 0.47718 0.0
N430 N 0.70525 0.59049 0.49011 0.0
N431 N 0.58498 0.71472 0.39455 0.0
H432 H 0.62889 0.72905 0.54735 0.0
H433 H 0.5899 0.74715 0.49452 0.0
H434 H 0.57132 0.71052 0.35439 0.0
H435 H 0.58322 0.74651 0.40879 0.0
H436 H 0.72011 0.56474 0.46779 0.0
H437 H 0.72279 0.59613 0.52805 0.0
H438 H 0.6717 0.54527 0.40591 0.0
H439 H 0.63587 0.5662 0.35164 0.0
C440 C 0.3496 0.64073 0.03758 0.0
C441 C 0.36951 0.67512 1.00595 0.0
C442 C 0.41878 0.6975 0.08645 0.0
C443 C 0.40901 0.65707 0.11132 0.0
N444 N 0.36154 0.59171 0.11526 0.0
N445 N 0.42032 0.73903 1.00121 0.0
C446 C 0.37212 0.62969 0.08905 0.0
C447 C 0.40216 0.70523 0.03126 0.0
N448 N 0.31035 0.61803 1.01709 0.0
N449 N 0.44589 0.72737 0.11502 0.0
H450 H 0.40843 0.746 0.96107 0.0
H451 H 0.44866 0.75907 1.01502 0.0
H452 H 0.45843 0.72152 0.15532 0.0
H453 H 0.45183 0.75883 0.1012 0.0
H454 H 0.29181 0.59428 0.03934 0.0
H455 H 0.2937 0.62599 0.97932 0.0
H456 H 0.33916 0.56768 0.09841 0.0
H457 H 0.37701 0.5838 0.15367 0.0
C458 C 0.12498 0.7985 0.56972 0.0
C459 C 0.15475 0.83241 0.54865 0.0
C460 C 0.13961 0.87568 0.63197 0.0
C461 C 0.10537 0.84412 0.64966 0.0
N462 N 0.07805 0.77038 0.64767 0.0
N463 N 0.20407 0.89539 0.56679 0.0
C464 C 0.10299 0.80343 0.62291 0.0
C465 C 0.16711 0.86818 0.58277 0.0
N466 N 0.11484 0.76335 0.53725 0.0
N467 N 0.14306 0.9139 0.66028 0.0
H468 H 0.22437 0.89008 0.53066 0.0
H469 H 0.21738 0.92059 0.59128 0.0
H470 H 0.12415 0.9193 0.69734 0.0
H471 H 0.16306 0.94047 0.64645 0.0
H472 H 0.08885 0.73991 0.54737 0.0
H473 H 0.13128 0.75846 0.49872 0.0
H474 H 0.07745 0.73884 0.63246 0.0
H475 H 0.06167 0.77396 0.68654 0.0
C476 C 0.19364 0.2562 0.25024 0.0
C477 C 0.23783 0.23198 0.25809 0.0
C478 C 0.19255 0.16459 0.24479 0.0
C479 C 0.14785 0.18809 0.25057 0.0
N480 N 0.10356 0.25528 0.24726 0.0
N481 N 0.28142 0.16705 0.23209 0.0
C482 C 0.14772 0.23381 0.24796 0.0
C483 C 0.23805 0.18727 0.24512 0.0
N484 N 0.1961 0.3001 0.24443 0.0
N485 N 0.19133 0.12044 0.24344 0.0
H486 H 0.31461 0.18391 0.22856 0.0
H487 H 0.28365 0.13508 0.21861 0.0
H488 H 0.15811 0.10353 0.24139 0.0
H489 H 0.22255 0.10082 0.2464 0.0
H490 H 0.16576 0.31981 0.23618 0.0
H491 H 0.22973 0.31647 0.24304 0.0
H492 H 0.09983 0.28867 0.25105 0.0
H493 H 0.07006 0.23884 0.24338 0.0
C494 C 0.26071 0.30281 0.80517 0.0
C495 C 0.26527 0.25696 0.80469 0.0
C496 C 0.34339 0.26233 0.75427 0.0
C497 C 0.34207 0.30762 0.76244 0.0
N498 N 0.29244 0.37143 0.77125 0.0
N499 N 0.29709 0.19508 0.7552 0.0
C500 C 0.29755 0.32786 0.77859 0.0
C501 C 0.30195 0.2373 0.77091 0.0
N502 N 0.22368 0.32241 0.83433 0.0
N503 N 0.38522 0.24317 0.73445 0.0
H504 H 0.26547 0.17723 0.76434 0.0
H505 H 0.32125 0.17972 0.72795 0.0
H506 H 0.41511 0.26118 0.72022 0.0
H507 H 0.39067 0.20978 0.73383 0.0
H508 H 0.22213 0.35563 0.84154 0.0
H509 H 0.19543 0.30531 0.85357 0.0
H510 H 0.25973 0.38825 0.77872 0.0
H511 H 0.32014 0.38969 0.75242 0.0
C512 C 0.68574 0.23228 0.76734 0.0
C513 C 0.73057 0.25524 0.75916 0.0
C514 C 0.6862 0.32403 0.76545 0.0
C515 C 0.64098 0.30109 0.76186 0.0
N516 N 0.59578 0.23446 0.76708 0.0
N517 N 0.77477 0.3207 0.7807 0.0
C518 C 0.64014 0.25545 0.76664 0.0
C519 C 0.73132 0.30058 0.76792 0.0
N520 N 0.68728 0.18877 0.77714 0.0
N521 N 0.68592 0.36821 0.76329 0.0
H522 H 0.80756 0.30358 0.78714 0.0
H523 H 0.77728 0.35324 0.79159 0.0
H524 H 0.65325 0.38615 0.76395 0.0
H525 H 0.71756 0.38689 0.7585 0.0
H526 H 0.65651 0.17018 0.78673 0.0
H527 H 0.7205 0.17191 0.78109 0.0
H528 H 0.59193 0.20105 0.76409 0.0
H529 H 0.56218 0.25106 0.76907 0.0
C530 C 0.76901 0.18558 0.23431 0.0
C531 C 0.77624 0.23022 0.22257 0.0
C532 C 0.85788 0.22752 0.26611 0.0
C533 C 0.85303 0.18212 0.2714 0.0
N534 N 0.79934 0.12144 0.28235 0.0
N535 N 0.81575 0.29612 0.25225 0.0
C536 C 0.80634 0.16268 0.26387 0.0
C537 C 0.81668 0.25213 0.24734 0.0
N538 N 0.72857 0.16449 0.21389 0.0
N539 N 0.90272 0.24652 0.2746 0.0
H540 H 0.78461 0.3143 0.24142 0.0
H541 H 0.84305 0.31357 0.27299 0.0
H542 H 0.93322 0.22922 0.28931 0.0
H543 H 0.90995 0.27872 0.26482 0.0
H544 H 0.72432 0.13103 0.21554 0.0
H545 H 0.69996 0.18027 0.19311 0.0
H546 H 0.76529 0.10585 0.2816 0.0
H547 H 0.8273 0.10465 0.30328 0.0
C548 C 0.83259 0.73283 0.69403 0.0
C549 C 0.78637 0.74391 0.71836 0.0
C550 C 0.82861 0.79343 0.78209 0.0
C551 C 0.8744 0.78272 0.75682 0.0
N552 N 0.92115 0.7288 0.70764 0.0
N553 N 0.74588 0.76862 0.80204 0.0
C554 C 0.87659 0.74725 0.71982 0.0
C555 C 0.78605 0.7688 0.76801 0.0
N556 N 0.83498 0.71125 0.6446 0.0
N557 N 0.82435 0.82849 0.81622 0.0
H558 H 0.71599 0.74795 0.79585 0.0
H559 H 0.74556 0.78427 0.84037 0.0
H560 H 0.85401 0.84778 0.82771 0.0
H561 H 0.79034 0.84009 0.83006 0.0
H562 H 0.86797 0.70676 0.62314 0.0
H563 H 0.80414 0.70116 0.62227 0.0
H564 H 0.92458 0.70079 0.68375 0.0
H565 H 0.95382 0.73905 0.72669 0.0
C566 C 0.69306 0.75568 0.20867 0.0
C567 C 0.73109 0.742 0.24539 0.0
C568 C 0.68561 0.67436 0.2617 0.0
C569 C 0.64444 0.69175 0.23255 0.0
N570 N 0.60583 0.75289 0.18755 0.0
N571 N 0.76361 0.68764 0.30794 0.0
C572 C 0.64727 0.73358 0.20875 0.0
C573 C 0.72732 0.70115 0.27238 0.0
N574 N 0.7011 0.78855 0.17197 0.0
N575 N 0.68644 0.63152 0.27591 0.0
H576 H 0.79735 0.70343 0.31247 0.0
H577 H 0.75936 0.66155 0.33479 0.0
H578 H 0.65764 0.6103 0.26701 0.0
H579 H 0.71751 0.61591 0.29188 0.0
H580 H 0.67574 0.79706 0.14124 0.0
H581 H 0.73527 0.80354 0.16733 0.0
H582 H 0.60507 0.78503 0.17448 0.0
H583 H 0.57107 0.73842 0.18864 0.0
C584 C 0.29236 0.71856 0.28482 0.0
C585 C 0.29281 0.74216 0.33559 0.0
C586 C 0.38272 0.73369 0.33773 0.0
C587 C 0.37957 0.69981 0.29831 0.0
N588 N 0.32828 0.65811 0.23555 0.0
N589 N 0.3412 0.7691 0.41336 0.0
C590 C 0.33376 0.6921 0.2712 0.0
C591 C 0.33891 0.74955 0.36254 0.0
N592 N 0.25325 0.72176 0.24921 0.0
N593 N 0.42785 0.74967 0.35259 0.0
H594 H 0.3104 0.78001 0.43503 0.0
H595 H 0.37375 0.77087 0.43646 0.0
H596 H 0.46046 0.73885 0.33402 0.0
H597 H 0.43208 0.77659 0.37828 0.0
H598 H 0.25308 0.70713 0.21022 0.0
H599 H 0.22453 0.74383 0.255 0.0
H600 H 0.29405 0.64876 0.21973 0.0
H601 H 0.35694 0.63722 0.22518 0.0
C602 C 0.22201 0.78439 0.77731 0.0
C603 C 0.22575 0.74426 0.80609 0.0
C604 C 0.14239 0.75448 0.84276 0.0
C605 C 0.13953 0.79557 0.8169 0.0
N606 N 0.18111 0.85407 0.77023 0.0
N607 N 0.19626 0.69999 0.88165 0.0
C608 C 0.18044 0.81175 0.78673 0.0
C609 C 0.18803 0.73195 0.84358 0.0
N610 N 0.25819 0.79665 0.74125 0.0
N611 N 0.10109 0.73626 0.86522 0.0
H612 H 0.23037 0.68473 0.88669 0.0
H613 H 0.1712 0.69255 0.9129 0.0
H614 H 0.06642 0.75109 0.86378 0.0
H615 H 0.10025 0.70454 0.87983 0.0
H616 H 0.25391 0.822 0.7132 0.0
H617 H 0.29192 0.78056 0.73763 0.0
H618 H 0.21201 0.86905 0.75339 0.0
H619 H 0.15225 0.87561 0.77793 0.0
loop_
_geom_bond_atom_site_label_1
_geom_bond_atom_site_label_2
_geom_bond_distance
_geom_bond_site_symmetry_2
_ccdc_geom_bond_type
H0 C7 0.929 . S
H1 C10 0.930 . S
H2 C12 0.929 . S
H3 C4 0.969 . S
C4 H3 0.969 . S
C4 O5 1.550 . S
C4 H6 0.973 . S
O5 C4 1.550 . S
O5 C11 1.412 . S
H6 C4 0.973 . S
C7 H0 0.929 . S
C7 C8 1.400 . S
C7 C9 1.364 . S
C8 C7 1.400 . S
C8 C12 1.377 . S
C9 C7 1.364 . S
C9 C10 1.374 . S
C10 H1 0.930 . S
C10 C9 1.374 . S
C10 C11 1.383 . S
C11 O5 1.412 . S
C11 C10 1.383 . S
C11 C12 1.394 . S
C12 H2 0.929 . S
C12 C8 1.377 . S
C12 C11 1.394 . S
H13 C20 0.929 . S
H14 C23 0.930 . S
H15 C25 0.929 . S
H16 C17 0.969 . S
C17 H16 0.969 . S
C17 O18 1.550 . S
C17 H19 0.973 . S
O18 C17 1.550 . S
O18 C24 1.412 . S
H19 C17 0.973 . S
C20 H13 0.929 . S
C20 C21 1.400 . S
C20 C22 1.364 . S
C21 C20 1.400 . S
C21 C25 1.377 . S
C22 C20 1.364 . S
C22 C23 1.374 . S
C23 H14 0.930 . S
C23 C22 1.374 . S
C23 C24 1.383 . S
C24 O18 1.412 . S
C24 C23 1.383 . S
C24 C25 1.394 . S
C25 H15 0.929 . S
C25 C21 1.377 . S
C25 C24 1.394 . S
H26 C33 0.929 . S
H27 C36 0.930 . S
H28 C38 0.929 . S
H29 C30 0.969 . S
C30 H29 0.969 . S
C30 O31 1.550 . S
C30 H32 0.973 . S
O31 C30 1.550 . S
O31 C37 1.412 . S
H32 C30 0.973 . S
C33 H26 0.929 . S
C33 C34 1.400 . S
C33 C35 1.364 . S
C34 C33 1.400 . S
C34 C38 1.377 . S
C35 C33 1.364 . S
C35 C36 1.374 . S
C36 H27 0.930 . S
C36 C35 1.374 . S
C36 C37 1.383 . S
C37 O31 1.412 . S
C37 C36 1.383 . S
C37 C38 1.394 . S
C38 H28 0.929 . S
C38 C34 1.377 . S
C38 C37 1.394 . S
H39 C46 0.929 . S
H40 C49 0.930 . S
H41 C51 0.929 . S
H42 C43 0.969 . S
C43 H42 0.969 . S
C43 O44 1.550 . S
C43 H45 0.973 . S
O44 C43 1.550 . S
O44 C50 1.412 . S
H45 C43 0.973 . S
C46 H39 0.929 . S
C46 C47 1.400 . S
C46 C48 1.364 . S
C47 C46 1.400 . S
C47 C51 1.377 . S
C48 C46 1.364 . S
C48 C49 1.374 . S
C49 H40 0.930 . S
C49 C48 1.374 . S
C49 C50 1.383 . S
C50 O44 1.412 . S
C50 C49 1.383 . S
C50 C51 1.394 . S
C51 H41 0.929 . S
C51 C47 1.377 . S
C51 C50 1.394 . S
H52 C59 0.929 . S
H53 C62 0.930 . S
H54 C64 0.929 . S
H55 C56 0.969 . S
C56 H55 0.969 . S
C56 O57 1.550 . S
C56 H58 0.973 . S
O57 C56 1.550 . S
O57 C63 1.412 . S
H58 C56 0.973 . S
C59 H52 0.929 . S
C59 C60 1.400 . S
C59 C61 1.364 . S
C60 C59 1.400 . S
C60 C64 1.377 . S
C61 C59 1.364 . S
C61 C62 1.374 . S
C62 H53 0.930 . S
C62 C61 1.374 . S
C62 C63 1.383 . S
C63 O57 1.412 . S
C63 C62 1.383 . S
C63 C64 1.394 . S
C64 H54 0.929 . S
C64 C60 1.377 . S
C64 C63 1.394 . S
H65 C72 0.929 . S
H66 C75 0.930 . S
H67 C77 0.929 . S
H68 C69 0.969 . S
C69 H68 0.969 . S
C69 O70 1.550 . S
C69 H71 0.973 . S
O70 C69 1.550 . S
O70 C76 1.412 . S
H71 C69 0.973 . S
C72 H65 0.929 . S
C72 C73 1.400 . S
C72 C74 1.364 . S
C73 C72 1.400 . S
C73 C77 1.377 . S
C74 C72 1.364 . S
C74 C75 1.374 . S
C75 H66 0.930 . S
C75 C74 1.374 . S
C75 C76 1.383 . S
C76 O70 1.412 . S
C76 C75 1.383 . S
C76 C77 1.394 . S
C77 H67 0.929 . S
C77 C73 1.377 . S
C77 C76 1.394 . S
H78 C85 0.929 . S
H79 C88 0.930 . S
H80 C90 0.929 . S
H81 C82 0.969 . S
C82 H81 0.969 . S
C82 O83 1.550 . S
C82 H84 0.973 . S
O83 C82 1.550 . S
O83 C89 1.412 . S
H84 C82 0.973 . S
C85 H78 0.929 . S
C85 C86 1.400 . S
C85 C87 1.364 . S
C86 C85 1.400 . S
C86 C90 1.377 . S
C87 C85 1.364 . S
C87 C88 1.374 . S
C88 H79 0.930 . S
C88 C87 1.374 . S
C88 C89 1.383 . S
C89 O83 1.412 . S
C89 C88 1.383 . S
C89 C90 1.394 . S
C90 H80 0.929 . S
C90 C86 1.377 . S
C90 C89 1.394 . S
H91 C98 0.929 . S
H92 C101 0.930 . S
H93 C103 0.929 . S
H94 C95 0.969 . S
C95 H94 0.969 . S
C95 O96 1.550 . S
C95 H97 0.973 . S
O96 C95 1.550 . S
O96 C102 1.412 . S
H97 C95 0.973 . S
C98 H91 0.929 . S
C98 C99 1.400 . S
C98 C100 1.364 . S
C99 C98 1.400 . S
C99 C103 1.377 . S
C100 C98 1.364 . S
C100 C101 1.374 . S
C101 H92 0.930 . S
C101 C100 1.374 . S
C101 C102 1.383 . S
C102 O96 1.412 . S
C102 C101 1.383 . S
C102 C103 1.394 . S
C103 H93 0.929 . S
C103 C99 1.377 . S
C103 C102 1.394 . S
Zn104 O110 1.934 . S
Zn104 O116 1.898 . S
Zn104 O119 1.905 . S
Zn105 O113 1.905 1_655 S
Zn105 O114 1.898 . S
Zn105 O122 1.920 . S
Zn106 O109 2.080 1_455 S
Zn106 O112 2.114 . S
Zn106 O115 2.120 1_455 S
Zn106 O117 2.120 . S
Zn106 O118 2.114 . S
Zn106 O121 2.080 1_455 S
C107 O112 1.166 . S
C107 O113 1.182 . S
C108 O114 1.167 . S
C108 O115 1.299 . S
O109 Zn106 2.080 1_655 S
O109 C123 1.305 . S
O110 Zn104 1.934 . S
O110 C123 1.222 1_455 S
C111 O116 1.167 . S
C111 O117 1.299 . S
O112 Zn106 2.114 . S
O112 C107 1.166 . S
O113 Zn105 1.905 1_455 S
O113 C107 1.182 . S
O114 Zn105 1.898 . S
O114 C108 1.167 . S
O115 Zn106 2.120 1_655 S
O115 C108 1.299 . S
O116 Zn104 1.898 . S
O116 C111 1.167 . S
O117 Zn106 2.120 . S
O117 C111 1.299 . S
O118 Zn106 2.114 . S
O118 C120 1.166 . S
O119 Zn104 1.905 . S
O119 C120 1.182 . S
C120 O118 1.166 . S
C120 O119 1.182 . S
O121 Zn106 2.080 1_655 S
O121 C124 1.305 . S
O122 Zn105 1.920 . S
O122 C124 1.234 . S
C123 O109 1.305 . S
C123 O110 1.222 1_655 S
C124 O121 1.305 . S
C124 O122 1.234 . S
Zn125 O131 1.920 . S
Zn125 O137 1.898 . S
Zn125 O140 1.905 . S
Zn126 O134 1.905 . S
Zn126 O135 1.898 . S
Zn126 O143 1.920 . S
Zn127 O130 2.080 . S
Zn127 O133 2.114 . S
Zn127 O136 2.120 . S
Zn127 O138 2.120 . S
Zn127 O139 2.114 . S
Zn127 O142 2.080 . S
C128 O133 1.166 . S
C128 O134 1.182 . S
C129 O135 1.167 . S
C129 O136 1.299 . S
O130 Zn127 2.080 . S
O130 C144 1.305 . S
O131 Zn125 1.920 . S
O131 C144 1.234 . S
C132 O137 1.167 . S
C132 O138 1.299 . S
O133 Zn127 2.114 . S
O133 C128 1.166 . S
O134 Zn126 1.905 . S
O134 C128 1.182 . S
O135 Zn126 1.898 . S
O135 C129 1.167 . S
O136 Zn127 2.120 . S
O136 C129 1.299 . S
O137 Zn125 1.898 . S
O137 C132 1.167 . S
O138 Zn127 2.120 . S
O138 C132 1.299 . S
O139 Zn127 2.114 . S
O139 C141 1.166 . S
O140 Zn125 1.905 . S
O140 C141 1.182 . S
C141 O139 1.166 . S
C141 O140 1.182 . S
O142 Zn127 2.080 . S
O142 C145 1.305 . S
O143 Zn126 1.920 . S
O143 C145 1.234 . S
C144 O130 1.305 . S
C144 O131 1.234 . S
C145 O142 1.305 . S
C145 O143 1.234 . S
Zn146 O152 1.920 . S
Zn146 O158 1.898 . S
Zn146 O161 1.905 1_455 S
Zn147 O155 1.905 . S
Zn147 O156 1.898 . S
Zn147 O164 1.920 1_655 S
Zn148 O151 2.080 . S
Zn148 O154 2.114 1_455 S
Zn148 O157 2.120 1_455 S
Zn148 O159 2.120 . S
Zn148 O160 2.114 1_455 S
Zn148 O163 2.080 . S
C149 O154 1.166 . S
C149 O155 1.182 . S
C150 O156 1.167 . S
C150 O157 1.299 . S
O151 Zn148 2.080 . S
O151 C165 1.305 . S
O152 Zn146 1.920 . S
O152 C165 1.234 . S
C153 O158 1.167 . S
C153 O159 1.299 . S
O154 Zn148 2.114 1_655 S
O154 C149 1.166 . S
O155 Zn147 1.905 . S
O155 C149 1.182 . S
O156 Zn147 1.898 . S
O156 C150 1.167 . S
O157 Zn148 2.120 1_655 S
O157 C150 1.299 . S
O158 Zn146 1.898 . S
O158 C153 1.167 . S
O159 Zn148 2.120 . S
O159 C153 1.299 . S
O160 Zn148 2.114 1_655 S
O160 C162 1.166 . S
O161 Zn146 1.905 1_655 S
O161 C162 1.182 . S
C162 O160 1.166 . S
C162 O161 1.182 . S
O163 Zn148 2.080 . S
O163 C166 1.305 . S
O164 Zn147 1.920 1_455 S
O164 C166 1.234 . S
C165 O151 1.305 . S
C165 O152 1.234 . S
C166 O163 1.305 . S
C166 O164 1.234 . S
Zn167 O173 1.920 . S
Zn167 O179 1.898 . S
Zn167 O182 1.905 . S
Zn168 O176 1.905 . S
Zn168 O177 1.898 . S
Zn168 O185 1.920 . S
Zn169 O172 2.080 . S
Zn169 O175 2.114 . S
Zn169 O178 2.120 . S
Zn169 O180 2.120 . S
Zn169 O181 2.114 . S
Zn169 O184 2.080 . S
C170 O175 1.166 . S
C170 O176 1.182 . S
C171 O177 1.167 . S
C171 O178 1.299 . S
O172 Zn169 2.080 . S
O172 C186 1.305 . S
O173 Zn167 1.920 . S
O173 C186 1.234 . S
C174 O179 1.167 . S
C174 O180 1.299 . S
O175 Zn169 2.114 . S
O175 C170 1.166 . S
O176 Zn168 1.905 . S
O176 C170 1.182 . S
O177 Zn168 1.898 . S
O177 C171 1.167 . S
O178 Zn169 2.120 . S
O178 C171 1.299 . S
O179 Zn167 1.898 . S
O179 C174 1.167 . S
O180 Zn169 2.120 . S
O180 C174 1.299 . S
O181 Zn169 2.114 . S
O181 C183 1.166 . S
O182 Zn167 1.905 . S
O182 C183 1.182 . S
C183 O181 1.166 . S
C183 O182 1.182 . S
O184 Zn169 2.080 . S
O184 C187 1.305 . S
O185 Zn168 1.920 . S
O185 C187 1.234 . S
C186 O172 1.305 . S
C186 O173 1.234 . S
C187 O184 1.305 . S
C187 O185 1.234 . S
C188 C189 1.363 . S
C188 C194 1.379 . S
C188 N196 1.356 . S
C189 C188 1.363 . S
C189 C195 1.363 . S
C190 C191 1.355 1_565 S
C190 C195 1.379 . S
C190 N197 1.356 1_565 S
C191 C190 1.355 1_545 S
C191 C194 1.353 1_545 S
N192 C194 1.356 1_545 S
N192 H204 0.984 1_545 S
N192 H205 0.985 . S
N193 C195 1.356 . S
N193 H198 0.984 . S
N193 H199 0.985 . S
C194 C188 1.379 . S
C194 C191 1.353 1_565 S
C194 N192 1.356 1_565 S
C195 C189 1.363 . S
C195 C190 1.379 . S
C195 N193 1.356 . S
N196 C188 1.356 . S
N196 H202 0.984 . S
N196 H203 0.984 . S
N197 C190 1.356 1_545 S
N197 H200 0.984 . S
N197 H201 0.985 . S
H198 N193 0.984 . S
H199 N193 0.985 . S
H200 N197 0.984 . S
H201 N197 0.985 . S
H202 N196 0.984 . S
H203 N196 0.984 . S
H204 N192 0.984 1_565 S
H205 N192 0.985 . S
C206 C207 1.363 . S
C206 C212 1.379 . S
C206 N214 1.356 . S
C207 C206 1.363 . S
C207 C213 1.363 . S
C208 C209 1.363 . S
C208 C213 1.379 . S
C208 N215 1.356 . S
C209 C208 1.363 . S
C209 C212 1.363 . S
N210 C212 1.356 . S
N210 H222 0.984 . S
N210 H223 0.985 . S
N211 C213 1.356 . S
N211 H216 0.984 . S
N211 H217 0.985 . S
C212 C206 1.379 . S
C212 C209 1.363 . S
C212 N210 1.356 . S
C213 C207 1.363 . S
C213 C208 1.379 . S
C213 N211 1.356 . S
N214 C206 1.356 . S
N214 H220 0.984 . S
N214 H221 0.984 . S
N215 C208 1.356 . S
N215 H218 0.984 . S
N215 H219 0.985 . S
H216 N211 0.984 . S
H217 N211 0.985 . S
H218 N215 0.984 . S
H219 N215 0.985 . S
H220 N214 0.984 . S
H221 N214 0.984 . S
H222 N210 0.984 . S
H223 N210 0.985 . S
C224 C225 1.363 . S
C224 C230 1.379 . S
C224 N232 1.356 . S
C225 C224 1.363 . S
C225 C231 1.363 . S
C226 C227 1.363 . S
C226 C231 1.379 . S
C226 N233 1.356 . S
C227 C226 1.363 . S
C227 C230 1.363 . S
N228 C230 1.356 . S
N228 H240 0.984 . S
N228 H241 0.985 . S
N229 C231 1.356 . S
N229 H234 0.984 . S
N229 H235 0.985 . S
C230 C224 1.379 . S
C230 C227 1.363 . S
C230 N228 1.356 . S
C231 C225 1.363 . S
C231 C226 1.379 . S
C231 N229 1.356 . S
N232 C224 1.356 . S
N232 H238 0.984 . S
N232 H239 0.984 . S
N233 C226 1.356 . S
N233 H236 0.984 . S
N233 H237 0.985 . S
H234 N229 0.984 . S
H235 N229 0.985 . S
H236 N233 0.984 . S
H237 N233 0.985 . S
H238 N232 0.984 . S
H239 N232 0.984 . S
H240 N228 0.984 . S
H241 N228 0.985 . S
C242 C243 1.363 . S
C242 C248 1.379 . S
C242 N250 1.356 . S
C243 C242 1.363 . S
C243 C249 1.363 . S
C244 C245 1.363 . S
C244 C249 1.379 . S
C244 N251 1.356 1_565 S
C245 C244 1.363 . S
C245 C248 1.363 . S
N246 C248 1.356 . S
N246 H258 0.984 1_655 S
N246 H259 0.985 1_655 S
N247 C249 1.356 . S
N247 H252 0.984 . S
N247 H253 0.985 . S
C248 C242 1.379 . S
C248 C245 1.363 . S
C248 N246 1.356 . S
C249 C243 1.363 . S
C249 C244 1.379 . S
C249 N247 1.356 . S
N250 C242 1.356 . S
N250 H256 0.984 . S
N250 H257 0.984 . S
N251 C244 1.356 1_545 S
N251 H254 0.984 . S
N251 H255 0.985 . S
H252 N247 0.984 . S
H253 N247 0.985 . S
H254 N251 0.984 . S
H255 N251 0.985 . S
H256 N250 0.984 . S
H257 N250 0.984 . S
H258 N246 0.984 1_455 S
H259 N246 0.985 1_455 S
C260 C261 1.363 . S
C260 C266 1.379 . S
C260 N268 1.356 . S
C261 C260 1.363 . S
C261 C267 1.363 . S
C262 C263 1.363 . S
C262 C267 1.379 . S
C262 N269 1.356 . S
C263 C262 1.363 . S
C263 C266 1.363 . S
N264 C266 1.356 1_565 S
N264 H276 0.984 . S
N264 H277 0.985 . S
N265 C267 1.356 . S
N265 H270 0.984 . S
N265 H271 0.985 . S
C266 C260 1.379 . S
C266 C263 1.363 . S
C266 N264 1.356 1_545 S
C267 C261 1.363 . S
C267 C262 1.379 . S
C267 N265 1.356 . S
N268 C260 1.356 . S
N268 H274 0.984 . S
N268 H275 0.984 . S
N269 C262 1.356 . S
N269 H272 0.984 1_545 S
N269 H273 0.985 . S
H270 N265 0.984 . S
H271 N265 0.985 . S
H272 N269 0.984 1_565 S
H273 N269 0.985 . S
H274 N268 0.984 . S
H275 N268 0.984 . S
H276 N264 0.984 . S
H277 N264 0.985 . S
C278 C279 1.363 . S
C278 C284 1.379 . S
C278 N286 1.356 . S
C279 C278 1.363 . S
C279 C285 1.363 . S
C280 C281 1.363 . S
C280 C285 1.379 . S
C280 N287 1.356 . S
C281 C280 1.363 . S
C281 C284 1.363 . S
N282 C284 1.356 . S
N282 H294 0.984 . S
N282 H295 0.985 . S
N283 C285 1.356 . S
N283 H288 0.984 . S
N283 H289 0.985 . S
C284 C278 1.379 . S
C284 C281 1.363 . S
C284 N282 1.356 . S
C285 C279 1.363 . S
C285 C280 1.379 . S
C285 N283 1.356 . S
N286 C278 1.356 . S
N286 H292 0.984 . S
N286 H293 0.984 . S
N287 C280 1.356 . S
N287 H290 0.984 . S
N287 H291 0.985 . S
H288 N283 0.984 . S
H289 N283 0.985 . S
H290 N287 0.984 . S
H291 N287 0.985 . S
H292 N286 0.984 . S
H293 N286 0.984 . S
H294 N282 0.984 . S
H295 N282 0.985 . S
C296 C297 1.363 . S
C296 C302 1.379 . S
C296 N304 1.356 . S
C297 C296 1.363 . S
C297 C303 1.363 . S
C298 C299 1.363 . S
C298 C303 1.379 . S
C298 N305 1.356 . S
C299 C298 1.363 . S
C299 C302 1.363 . S
N300 C302 1.356 . S
N300 H312 0.984 . S
N300 H313 0.985 . S
N301 C303 1.356 . S
N301 H306 0.984 . S
N301 H307 0.985 . S
C302 C296 1.379 . S
C302 C299 1.363 . S
C302 N300 1.356 . S
C303 C297 1.363 . S
C303 C298 1.379 . S
C303 N301 1.356 . S
N304 C296 1.356 . S
N304 H310 0.984 . S
N304 H311 0.984 . S
N305 C298 1.356 . S
N305 H308 0.984 . S
N305 H309 0.985 . S
H306 N301 0.984 . S
H307 N301 0.985 . S
H308 N305 0.984 . S
H309 N305 0.985 . S
H310 N304 0.984 . S
H311 N304 0.984 . S
H312 N300 0.984 . S
H313 N300 0.985 . S
C314 C315 1.363 . S
C314 C320 1.379 . S
C314 N322 1.356 . S
C315 C314 1.363 . S
C315 C321 1.363 . S
C316 C317 1.363 . S
C316 C321 1.379 . S
C316 N323 1.356 . S
C317 C316 1.363 . S
C317 C320 1.363 . S
N318 C320 1.356 1_565 S
N318 H330 0.984 . S
N318 H331 0.985 . S
N319 C321 1.356 . S
N319 H324 0.984 . S
N319 H325 0.985 . S
C320 C314 1.379 . S
C320 C317 1.363 . S
C320 N318 1.356 1_545 S
C321 C315 1.363 . S
C321 C316 1.379 . S
C321 N319 1.356 . S
N322 C314 1.356 . S
N322 H328 0.984 . S
N322 H329 0.984 . S
N323 C316 1.356 . S
N323 H326 0.984 1_545 S
N323 H327 0.982 1_455 S
H324 N319 0.984 . S
H325 N319 0.985 . S
H326 N323 0.984 1_565 S
H327 N323 0.982 1_655 S
H328 N322 0.984 . S
H329 N322 0.984 . S
H330 N318 0.984 . S
H331 N318 0.985 . S
C332 C333 1.363 1_554 S
C332 C338 1.379 . S
C332 N340 1.356 . S
C333 C332 1.363 1_556 S
C333 C339 1.363 1_556 S
C334 C335 1.363 . S
C334 C339 1.379 . S
C334 N341 1.356 . S
C335 C334 1.363 . S
C335 C338 1.363 . S
N336 C338 1.356 . S
N336 H348 0.984 . S
N336 H349 0.985 . S
N337 C339 1.356 1_556 S
N337 H342 0.984 . S
N337 H343 0.985 . S
C338 C332 1.379 . S
C338 C335 1.363 . S
C338 N336 1.356 . S
C339 C333 1.363 1_554 S
C339 C334 1.379 . S
C339 N337 1.356 1_554 S
N340 C332 1.356 . S
N340 H346 0.984 . S
N340 H347 0.984 1_554 S
N341 C334 1.356 . S
N341 H344 0.984 . S
N341 H345 0.985 . S
H342 N337 0.984 . S
H343 N337 0.985 . S
H344 N341 0.984 . S
H345 N341 0.985 . S
H346 N340 0.984 . S
H347 N340 0.984 1_556 S
H348 N336 0.984 . S
H349 N336 0.985 . S
C350 C351 1.363 . S
C350 C356 1.379 . S
C350 N358 1.356 . S
C351 C350 1.363 . S
C351 C357 1.363 . S
C352 C353 1.363 . S
C352 C357 1.379 . S
C352 N359 1.356 . S
C353 C352 1.363 . S
C353 C356 1.363 . S
N354 C356 1.356 . S
N354 H366 0.984 . S
N354 H367 0.985 . S
N355 C357 1.356 . S
N355 H360 0.984 . S
N355 H361 0.985 . S
C356 C350 1.379 . S
C356 C353 1.363 . S
C356 N354 1.356 . S
C357 C351 1.363 . S
C357 C352 1.379 . S
C357 N355 1.356 . S
N358 C350 1.356 . S
N358 H364 0.984 . S
N358 H365 0.984 . S
N359 C352 1.356 . S
N359 H362 0.984 . S
N359 H363 0.985 . S
H360 N355 0.984 . S
H361 N355 0.985 . S
H362 N359 0.984 . S
H363 N359 0.985 . S
H364 N358 0.984 . S
H365 N358 0.984 . S
H366 N354 0.984 . S
H367 N354 0.985 . S
C368 C369 1.365 . S
C368 C374 1.365 1_554 S
C368 N376 1.371 . S
C369 C368 1.365 . S
C369 C375 1.363 1_554 S
C370 C371 1.363 . S
C370 C375 1.379 . S
C370 N377 1.356 . S
C371 C370 1.363 . S
C371 C374 1.363 . S
N372 C374 1.356 . S
N372 H384 0.984 . S
N372 H385 0.985 . S
N373 C375 1.356 . S
N373 H378 0.984 1_556 S
N373 H379 0.985 . S
C374 C368 1.365 1_556 S
C374 C371 1.363 . S
C374 N372 1.356 . S
C375 C369 1.363 1_556 S
C375 C370 1.379 . S
C375 N373 1.356 . S
N376 C368 1.371 . S
N376 H382 0.984 . S
N376 H383 0.984 . S
N377 C370 1.356 . S
N377 H380 0.984 . S
N377 H381 0.985 . S
H378 N373 0.984 1_554 S
H379 N373 0.985 . S
H380 N377 0.984 . S
H381 N377 0.985 . S
H382 N376 0.984 . S
H383 N376 0.984 . S
H384 N372 0.984 . S
H385 N372 0.985 . S
C386 C387 1.363 . S
C386 C392 1.379 . S
C386 N394 1.356 . S
C387 C386 1.363 . S
C387 C393 1.363 . S
C388 C389 1.363 . S
C388 C393 1.379 . S
C388 N395 1.356 . S
C389 C388 1.363 . S
C389 C392 1.363 . S
N390 C392 1.356 . S
N390 H402 0.984 . S
N390 H403 0.985 . S
N391 C393 1.356 . S
N391 H396 0.984 . S
N391 H397 0.985 . S
C392 C386 1.379 . S
C392 C389 1.363 . S
C392 N390 1.356 . S
C393 C387 1.363 . S
C393 C388 1.379 . S
C393 N391 1.356 . S
N394 C386 1.356 . S
N394 H400 0.984 . S
N394 H401 0.984 . S
N395 C388 1.356 . S
N395 H398 0.984 . S
N395 H399 0.985 . S
H396 N391 0.984 . S
H397 N391 0.985 . S
H398 N395 0.984 . S
H399 N395 0.985 . S
H400 N394 0.984 . S
H401 N394 0.984 . S
H402 N390 0.984 . S
H403 N390 0.985 . S
C404 C405 1.363 . S
C404 C410 1.379 . S
C404 N412 1.356 1_556 S
C405 C404 1.363 . S
C405 C411 1.363 . S
C406 C407 1.363 . S
C406 C411 1.379 . S
C406 N413 1.356 . S
C407 C406 1.363 . S
C407 C410 1.363 . S
N408 C410 1.356 . S
N408 H420 0.984 1_655 S
N408 H421 0.982 1_655 S
N409 C411 1.356 . S
N409 H414 0.984 1_556 S
N409 H415 0.985 . S
C410 C404 1.379 . S
C410 C407 1.363 . S
C410 N408 1.356 . S
C411 C405 1.363 . S
C411 C406 1.379 . S
C411 N409 1.356 . S
N412 C404 1.356 1_554 S
N412 H418 0.984 . S
N412 H419 0.984 . S
N413 C406 1.356 . S
N413 H416 0.984 . S
N413 H417 0.985 . S
H414 N409 0.984 1_554 S
H415 N409 0.985 . S
H416 N413 0.984 . S
H417 N413 0.985 . S
H418 N412 0.984 . S
H419 N412 0.984 . S
H420 N408 0.984 1_455 S
H421 N408 0.982 1_455 S
C422 C423 1.363 . S
C422 C428 1.379 . S
C422 N430 1.356 . S
C423 C422 1.363 . S
C423 C429 1.363 . S
C424 C425 1.363 . S
C424 C429 1.379 . S
C424 N431 1.356 . S
C425 C424 1.363 . S
C425 C428 1.363 . S
N426 C428 1.356 . S
N426 H438 0.984 . S
N426 H439 0.985 . S
N427 C429 1.356 . S
N427 H432 0.984 . S
N427 H433 0.985 . S
C428 C422 1.379 . S
C428 C425 1.363 . S
C428 N426 1.356 . S
C429 C423 1.363 . S
C429 C424 1.379 . S
C429 N427 1.356 . S
N430 C422 1.356 . S
N430 H436 0.984 . S
N430 H437 0.984 . S
N431 C424 1.356 . S
N431 H434 0.984 . S
N431 H435 0.985 . S
H432 N427 0.984 . S
H433 N427 0.985 . S
H434 N431 0.984 . S
H435 N431 0.985 . S
H436 N430 0.984 . S
H437 N430 0.984 . S
H438 N426 0.984 . S
H439 N426 0.985 . S
C440 C441 1.363 . S
C440 C446 1.379 . S
C440 N448 1.356 . S
C441 C440 1.363 . S
C441 C447 1.363 . S
C442 C443 1.363 . S
C442 C447 1.379 . S
C442 N449 1.356 . S
C443 C442 1.363 . S
C443 C446 1.363 . S
N444 C446 1.356 . S
N444 H456 0.984 . S
N444 H457 0.985 . S
N445 C447 1.356 1_556 S
N445 H450 0.984 . S
N445 H451 0.985 . S
C446 C440 1.379 . S
C446 C443 1.363 . S
C446 N444 1.356 . S
C447 C441 1.363 . S
C447 C442 1.379 . S
C447 N445 1.356 1_554 S
N448 C440 1.356 . S
N448 H454 0.984 . S
N448 H455 0.984 1_554 S
N449 C442 1.356 . S
N449 H452 0.984 . S
N449 H453 0.985 . S
H450 N445 0.984 . S
H451 N445 0.985 . S
H452 N449 0.984 . S
H453 N449 0.985 . S
H454 N448 0.984 . S
H455 N448 0.984 1_556 S
H456 N444 0.984 . S
H457 N444 0.985 . S
C458 C459 1.363 . S
C458 C464 1.379 . S
C458 N466 1.356 . S
C459 C458 1.363 . S
C459 C465 1.363 . S
C460 C461 1.363 . S
C460 C465 1.379 . S
C460 N467 1.356 . S
C461 C460 1.363 . S
C461 C464 1.363 . S
N462 C464 1.356 . S
N462 H474 0.984 . S
N462 H475 0.985 . S
N463 C465 1.356 . S
N463 H468 0.984 . S
N463 H469 0.985 . S
C464 C458 1.379 . S
C464 C461 1.363 . S
C464 N462 1.356 . S
C465 C459 1.363 . S
C465 C460 1.379 . S
C465 N463 1.356 . S
N466 C458 1.356 . S
N466 H472 0.984 . S
N466 H473 0.984 . S
N467 C460 1.356 . S
N467 H470 0.984 . S
N467 H471 0.985 . S
H468 N463 0.984 . S
H469 N463 0.985 . S
H470 N467 0.984 . S
H471 N467 0.985 . S
H472 N466 0.984 . S
H473 N466 0.984 . S
H474 N462 0.984 . S
H475 N462 0.985 . S
C476 C477 1.363 . S
C476 C482 1.379 . S
C476 N484 1.356 . S
C477 C476 1.363 . S
C477 C483 1.363 . S
C478 C479 1.363 . S
C478 C483 1.379 . S
C478 N485 1.356 . S
C479 C478 1.363 . S
C479 C482 1.363 . S
N480 C482 1.356 . S
N480 H492 0.984 . S
N480 H493 0.985 . S
N481 C483 1.356 . S
N481 H486 0.984 . S
N481 H487 0.985 . S
C482 C476 1.379 . S
C482 C479 1.363 . S
C482 N480 1.356 . S
C483 C477 1.363 . S
C483 C478 1.379 . S
C483 N481 1.356 . S
N484 C476 1.356 . S
N484 H490 0.984 . S
N484 H491 0.984 . S
N485 C478 1.356 . S
N485 H488 0.984 . S
N485 H489 0.985 . S
H486 N481 0.984 . S
H487 N481 0.985 . S
H488 N485 0.984 . S
H489 N485 0.985 . S
H490 N484 0.984 . S
H491 N484 0.984 . S
H492 N480 0.984 . S
H493 N480 0.985 . S
C494 C495 1.363 . S
C494 C500 1.379 . S
C494 N502 1.356 . S
C495 C494 1.363 . S
C495 C501 1.363 . S
C496 C497 1.363 . S
C496 C501 1.379 . S
C496 N503 1.356 . S
C497 C496 1.363 . S
C497 C500 1.363 . S
N498 C500 1.356 . S
N498 H510 0.984 . S
N498 H511 0.985 . S
N499 C501 1.356 . S
N499 H504 0.984 . S
N499 H505 0.985 . S
C500 C494 1.379 . S
C500 C497 1.363 . S
C500 N498 1.356 . S
C501 C495 1.363 . S
C501 C496 1.379 . S
C501 N499 1.356 . S
N502 C494 1.356 . S
N502 H508 0.984 . S
N502 H509 0.984 . S
N503 C496 1.356 . S
N503 H506 0.984 . S
N503 H507 0.985 . S
H504 N499 0.984 . S
H505 N499 0.985 . S
H506 N503 0.984 . S
H507 N503 0.985 . S
H508 N502 0.984 . S
H509 N502 0.984 . S
H510 N498 0.984 . S
H511 N498 0.985 . S
C512 C513 1.363 . S
C512 C518 1.379 . S
C512 N520 1.356 . S
C513 C512 1.363 . S
C513 C519 1.363 . S
C514 C515 1.363 . S
C514 C519 1.379 . S
C514 N521 1.356 . S
C515 C514 1.363 . S
C515 C518 1.363 . S
N516 C518 1.356 . S
N516 H528 0.984 . S
N516 H529 0.985 . S
N517 C519 1.356 . S
N517 H522 0.984 . S
N517 H523 0.985 . S
C518 C512 1.379 . S
C518 C515 1.363 . S
C518 N516 1.356 . S
C519 C513 1.363 . S
C519 C514 1.379 . S
C519 N517 1.356 . S
N520 C512 1.356 . S
N520 H526 0.984 . S
N520 H527 0.984 . S
N521 C514 1.356 . S
N521 H524 0.984 . S
N521 H525 0.985 . S
H522 N517 0.984 . S
H523 N517 0.985 . S
H524 N521 0.984 . S
H525 N521 0.985 . S
H526 N520 0.984 . S
H527 N520 0.984 . S
H528 N516 0.984 . S
H529 N516 0.985 . S
C530 C531 1.363 . S
C530 C536 1.379 . S
C530 N538 1.356 . S
C531 C530 1.363 . S
C531 C537 1.363 . S
C532 C533 1.363 . S
C532 C537 1.379 . S
C532 N539 1.356 . S
C533 C532 1.363 . S
C533 C536 1.363 . S
N534 C536 1.356 . S
N534 H546 0.984 . S
N534 H547 0.985 . S
N535 C537 1.356 . S
N535 H540 0.984 . S
N535 H541 0.985 . S
C536 C530 1.379 . S
C536 C533 1.363 . S
C536 N534 1.356 . S
C537 C531 1.363 . S
C537 C532 1.379 . S
C537 N535 1.356 . S
N538 C530 1.356 . S
N538 H544 0.984 . S
N538 H545 0.984 . S
N539 C532 1.356 . S
N539 H542 0.984 . S
N539 H543 0.985 . S
H540 N535 0.984 . S
H541 N535 0.985 . S
H542 N539 0.984 . S
H543 N539 0.985 . S
H544 N538 0.984 . S
H545 N538 0.984 . S
H546 N534 0.984 . S
H547 N534 0.985 . S
C548 C549 1.363 . S
C548 C554 1.379 . S
C548 N556 1.356 . S
C549 C548 1.363 . S
C549 C555 1.363 . S
C550 C551 1.363 . S
C550 C555 1.379 . S
C550 N557 1.356 . S
C551 C550 1.363 . S
C551 C554 1.363 . S
N552 C554 1.356 . S
N552 H564 0.984 . S
N552 H565 0.985 . S
N553 C555 1.356 . S
N553 H558 0.984 . S
N553 H559 0.985 . S
C554 C548 1.379 . S
C554 C551 1.363 . S
C554 N552 1.356 . S
C555 C549 1.363 . S
C555 C550 1.379 . S
C555 N553 1.356 . S
N556 C548 1.356 . S
N556 H562 0.984 . S
N556 H563 0.984 . S
N557 C550 1.356 . S
N557 H560 0.984 . S
N557 H561 0.985 . S
H558 N553 0.984 . S
H559 N553 0.985 . S
H560 N557 0.984 . S
H561 N557 0.985 . S
H562 N556 0.984 . S
H563 N556 0.984 . S
H564 N552 0.984 . S
H565 N552 0.985 . S
C566 C567 1.363 . S
C566 C572 1.379 . S
C566 N574 1.356 . S
C567 C566 1.363 . S
C567 C573 1.363 . S
C568 C569 1.363 . S
C568 C573 1.379 . S
C568 N575 1.356 . S
C569 C568 1.363 . S
C569 C572 1.363 . S
N570 C572 1.356 . S
N570 H582 0.984 . S
N570 H583 0.985 . S
N571 C573 1.356 . S
N571 H576 0.984 . S
N571 H577 0.985 . S
C572 C566 1.379 . S
C572 C569 1.363 . S
C572 N570 1.356 . S
C573 C567 1.363 . S
C573 C568 1.379 . S
C573 N571 1.356 . S
N574 C566 1.356 . S
N574 H580 0.984 . S
N574 H581 0.984 . S
N575 C568 1.356 . S
N575 H578 0.984 . S
N575 H579 0.985 . S
H576 N571 0.984 . S
H577 N571 0.985 . S
H578 N575 0.984 . S
H579 N575 0.985 . S
H580 N574 0.984 . S
H581 N574 0.984 . S
H582 N570 0.984 . S
H583 N570 0.985 . S
C584 C585 1.363 . S
C584 C590 1.379 . S
C584 N592 1.356 . S
C585 C584 1.363 . S
C585 C591 1.363 . S
C586 C587 1.363 . S
C586 C591 1.379 . S
C586 N593 1.356 . S
C587 C586 1.363 . S
C587 C590 1.363 . S
N588 C590 1.356 . S
N588 H600 0.984 . S
N588 H601 0.985 . S
N589 C591 1.356 . S
N589 H594 0.984 . S
N589 H595 0.985 . S
C590 C584 1.379 . S
C590 C587 1.363 . S
C590 N588 1.356 . S
C591 C585 1.363 . S
C591 C586 1.379 . S
C591 N589 1.356 . S
N592 C584 1.356 . S
N592 H598 0.984 . S
N592 H599 0.984 . S
N593 C586 1.356 . S
N593 H596 0.984 . S
N593 H597 0.985 . S
H594 N589 0.984 . S
H595 N589 0.985 . S
H596 N593 0.984 . S
H597 N593 0.985 . S
H598 N592 0.984 . S
H599 N592 0.984 . S
H600 N588 0.984 . S
H601 N588 0.985 . S
C602 C603 1.363 . S
C602 C608 1.379 . S
C602 N610 1.356 . S
C603 C602 1.363 . S
C603 C609 1.363 . S
C604 C605 1.363 . S
C604 C609 1.379 . S
C604 N611 1.356 . S
C605 C604 1.363 . S
C605 C608 1.363 . S
N606 C608 1.356 . S
N606 H618 0.984 . S
N606 H619 0.985 . S
N607 C609 1.356 . S
N607 H612 0.984 . S
N607 H613 0.985 . S
C608 C602 1.379 . S
C608 C605 1.363 . S
C608 N606 1.356 . S
C609 C603 1.363 . S
C609 C604 1.379 . S
C609 N607 1.356 . S
N610 C602 1.356 . S
N610 H616 0.984 . S
N610 H617 0.984 . S
N611 C604 1.356 . S
N611 H614 0.984 . S
N611 H615 0.985 . S
H612 N607 0.984 . S
H613 N607 0.985 . S
H614 N611 0.984 . S
H615 N611 0.985 . S
H616 N610 0.984 . S
H617 N610 0.984 . S
H618 N606 0.984 . S
H619 N606 0.985 . S
C189 C86 1.387 . S
C191 C120 1.331 . S
C209 C128 1.462 . S
C207 C100 1.493 . S
C227 C132 1.305 . S
C225 C60 1.388 . S
C243 C74 1.492 . S
C245 C108 1.452 1_565 S
C263 C149 1.462 1_545 S
C261 C35 1.494 . S
C281 C183 1.311 . S
C279 C47 1.384 . S
C297 C9 1.494 . S
C299 C171 1.452 . S
C315 C21 1.385 . S
C317 C153 1.305 1_545 S
C335 C107 1.368 . S
C333 C22 1.479 . S
C353 C141 1.321 . S
C351 C8 1.467 . S
C371 C145 1.365 . S
C369 C48 1.480 . S
C389 C123 1.318 . S
C387 C34 1.465 . S
C407 C162 1.321 . S
C405 C73 1.464 1_556 S
C423 C61 1.480 . S
C425 C170 1.368 . S
C443 C186 1.318 . S
C441 C99 1.463 1_554 S
C459 C87 1.481 . S
C461 C166 1.365 . S
C479 C111 1.397 . S
C477 C4 1.529 . S
C497 C129 1.314 . S
C495 C17 1.434 . S
C513 C30 1.526 . S
C515 C144 1.402 . S
C533 C124 1.317 . S
C531 C43 1.427 . S
C551 C150 1.314 . S
C549 C56 1.458 . S
C567 C69 1.510 . S
C569 C174 1.397 . S
C585 C82 1.447 . S
C587 C187 1.317 . S
C603 C95 1.511 . S
C605 C165 1.402 . S
