# Generated by pormake.
# Topology tbo, (3,4)-cn, num edge types: 1
# Building blocks:
#     Node 0, Type 0, BuildingBlock: BETDAH_clean_linker_0, # of connection points: 3
#     Node 1, Type 0, BuildingBlock: BETDAH_clean_linker_0, # of connection points: 3
#     Node 2, Type 0, BuildingBlock: BETDAH_clean_linker_0, # of connection points: 3
#     Node 3, Type 0, BuildingBlock: BETDAH_clean_linker_0, # of connection points: 3
#     Node 4, Type 0, BuildingBlock: BETDAH_clean_linker_0, # of connection points: 3
#     Node 5, Type 0, BuildingBlock: BETDAH_clean_linker_0, # of connection points: 3
#     Node 6, Type 0, BuildingBlock: BETDAH_clean_linker_0, # of connection points: 3
#     Node 7, Type 0, BuildingBlock: BETDAH_clean_linker_0, # of connection points: 3
#     Node 8, Type 0, BuildingBlock: BETDAH_clean_linker_0, # of connection points: 3
#     Node 9, Type 0, BuildingBlock: BETDAH_clean_linker_0, # of connection points: 3
#     Node 10, Type 0, BuildingBlock: BETDAH_clean_linker_0, # of connection points: 3
#     Node 11, Type 0, BuildingBlock: BETDAH_clean_linker_0, # of connection points: 3
#     Node 12, Type 0, BuildingBlock: BETDAH_clean_linker_0, # of connection points: 3
#     Node 13, Type 0, BuildingBlock: BETDAH_clean_linker_0, # of connection points: 3
#     Node 14, Type 0, BuildingBlock: BETDAH_clean_linker_0, # of connection points: 3
#     Node 15, Type 0, BuildingBlock: BETDAH_clean_linker_0, # of connection points: 3
#     Node 16, Type 0, BuildingBlock: BETDAH_clean_linker_0, # of connection points: 3
#     Node 17, Type 0, BuildingBlock: BETDAH_clean_linker_0, # of connection points: 3
#     Node 18, Type 0, BuildingBlock: BETDAH_clean_linker_0, # of connection points: 3
#     Node 19, Type 0, BuildingBlock: BETDAH_clean_linker_0, # of connection points: 3
#     Node 20, Type 0, BuildingBlock: BETDAH_clean_linker_0, # of connection points: 3
#     Node 21, Type 0, BuildingBlock: BETDAH_clean_linker_0, # of connection points: 3
#     Node 22, Type 0, BuildingBlock: BETDAH_clean_linker_0, # of connection points: 3
#     Node 23, Type 0, BuildingBlock: BETDAH_clean_linker_0, # of connection points: 3
#     Node 24, Type 0, BuildingBlock: BETDAH_clean_linker_0, # of connection points: 3
#     Node 25, Type 0, BuildingBlock: BETDAH_clean_linker_0, # of connection points: 3
#     Node 26, Type 0, BuildingBlock: BETDAH_clean_linker_0, # of connection points: 3
#     Node 27, Type 0, BuildingBlock: BETDAH_clean_linker_0, # of connection points: 3
#     Node 28, Type 0, BuildingBlock: BETDAH_clean_linker_0, # of connection points: 3
#     Node 29, Type 0, BuildingBlock: BETDAH_clean_linker_0, # of connection points: 3
#     Node 30, Type 0, BuildingBlock: BETDAH_clean_linker_0, # of connection points: 3
#     Node 31, Type 0, BuildingBlock: BETDAH_clean_linker_0, # of connection points: 3
#     Node 32, Type 1, BuildingBlock: ESEHIV_clean_sbu_0, # of connection points: 4
#     Node 33, Type 1, BuildingBlock: ESEHIV_clean_sbu_0, # of connection points: 4
#     Node 34, Type 1, BuildingBlock: ESEHIV_clean_sbu_0, # of connection points: 4
#     Node 35, Type 1, BuildingBlock: ESEHIV_clean_sbu_0, # of connection points: 4
#     Node 36, Type 1, BuildingBlock: ESEHIV_clean_sbu_0, # of connection points: 4
#     Node 37, Type 1, BuildingBlock: ESEHIV_clean_sbu_0, # of connection points: 4
#     Node 38, Type 1, BuildingBlock: ESEHIV_clean_sbu_0, # of connection points: 4
#     Node 39, Type 1, BuildingBlock: ESEHIV_clean_sbu_0, # of connection points: 4
#     Node 40, Type 1, BuildingBlock: ESEHIV_clean_sbu_0, # of connection points: 4
#     Node 41, Type 1, BuildingBlock: ESEHIV_clean_sbu_0, # of connection points: 4
#     Node 42, Type 1, BuildingBlock: ESEHIV_clean_sbu_0, # of connection points: 4
#     Node 43, Type 1, BuildingBlock: ESEHIV_clean_sbu_0, # of connection points: 4
#     Node 44, Type 1, BuildingBlock: ESEHIV_clean_sbu_0, # of connection points: 4
#     Node 45, Type 1, BuildingBlock: ESEHIV_clean_sbu_0, # of connection points: 4
#     Node 46, Type 1, BuildingBlock: ESEHIV_clean_sbu_0, # of connection points: 4
#     Node 47, Type 1, BuildingBlock: ESEHIV_clean_sbu_0, # of connection points: 4
#     Node 48, Type 1, BuildingBlock: ESEHIV_clean_sbu_0, # of connection points: 4
#     Node 49, Type 1, BuildingBlock: ESEHIV_clean_sbu_0, # of connection points: 4
#     Node 50, Type 1, BuildingBlock: ESEHIV_clean_sbu_0, # of connection points: 4
#     Node 51, Type 1, BuildingBlock: ESEHIV_clean_sbu_0, # of connection points: 4
#     Node 52, Type 1, BuildingBlock: ESEHIV_clean_sbu_0, # of connection points: 4
#     Node 53, Type 1, BuildingBlock: ESEHIV_clean_sbu_0, # of connection points: 4
#     Node 54, Type 1, BuildingBlock: ESEHIV_clean_sbu_0, # of connection points: 4
#     Node 55, Type 1, BuildingBlock: ESEHIV_clean_sbu_0, # of connection points: 4
#     Edge 56, Type (0, 1), BuildingBlock: ZUJKAS_clean_linker_0, # of connection points: 2
#     Edge 57, Type (0, 1), BuildingBlock: ZUJKAS_clean_linker_0, # of connection points: 2
#     Edge 58, Type (0, 1), BuildingBlock: ZUJKAS_clean_linker_0, # of connection points: 2
#     Edge 59, Type (0, 1), BuildingBlock: ZUJKAS_clean_linker_0, # of connection points: 2
#     Edge 60, Type (0, 1), BuildingBlock: ZUJKAS_clean_linker_0, # of connection points: 2
#     Edge 61, Type (0, 1), BuildingBlock: ZUJKAS_clean_linker_0, # of connection points: 2
#     Edge 62, Type (0, 1), BuildingBlock: ZUJKAS_clean_linker_0, # of connection points: 2
#     Edge 63, Type (0, 1), BuildingBlock: ZUJKAS_clean_linker_0, # of connection points: 2
#     Edge 64, Type (0, 1), BuildingBlock: ZUJKAS_clean_linker_0, # of connection points: 2
#     Edge 65, Type (0, 1), BuildingBlock: ZUJKAS_clean_linker_0, # of connection points: 2
#     Edge 66, Type (0, 1), BuildingBlock: ZUJKAS_clean_linker_0, # of connection points: 2
#     Edge 67, Type (0, 1), BuildingBlock: ZUJKAS_clean_linker_0, # of connection points: 2
#     Edge 68, Type (0, 1), BuildingBlock: ZUJKAS_clean_linker_0, # of connection points: 2
#     Edge 69, Type (0, 1), BuildingBlock: ZUJKAS_clean_linker_0, # of connection points: 2
#     Edge 70, Type (0, 1), BuildingBlock: ZUJKAS_clean_linker_0, # of connection points: 2
#     Edge 71, Type (0, 1), BuildingBlock: ZUJKAS_clean_linker_0, # of connection points: 2
#     Edge 72, Type (0, 1), BuildingBlock: ZUJKAS_clean_linker_0, # of connection points: 2
#     Edge 73, Type (0, 1), BuildingBlock: ZUJKAS_clean_linker_0, # of connection points: 2
#     Edge 74, Type (0, 1), BuildingBlock: ZUJKAS_clean_linker_0, # of connection points: 2
#     Edge 75, Type (0, 1), BuildingBlock: ZUJKAS_clean_linker_0, # of connection points: 2
#     Edge 76, Type (0, 1), BuildingBlock: ZUJKAS_clean_linker_0, # of connection points: 2
#     Edge 77, Type (0, 1), BuildingBlock: ZUJKAS_clean_linker_0, # of connection points: 2
#     Edge 78, Type (0, 1), BuildingBlock: ZUJKAS_clean_linker_0, # of connection points: 2
#     Edge 79, Type (0, 1), BuildingBlock: ZUJKAS_clean_linker_0, # of connection points: 2
#     Edge 80, Type (0, 1), BuildingBlock: ZUJKAS_clean_linker_0, # of connection points: 2
#     Edge 81, Type (0, 1), BuildingBlock: ZUJKAS_clean_linker_0, # of connection points: 2
#     Edge 82, Type (0, 1), BuildingBlock: ZUJKAS_clean_linker_0, # of connection points: 2
#     Edge 83, Type (0, 1), BuildingBlock: ZUJKAS_clean_linker_0, # of connection points: 2
#     Edge 84, Type (0, 1), BuildingBlock: ZUJKAS_clean_linker_0, # of connection points: 2
#     Edge 85, Type (0, 1), BuildingBlock: ZUJKAS_clean_linker_0, # of connection points: 2
#     Edge 86, Type (0, 1), BuildingBlock: ZUJKAS_clean_linker_0, # of connection points: 2
#     Edge 87, Type (0, 1), BuildingBlock: ZUJKAS_clean_linker_0, # of connection points: 2
#     Edge 88, Type (0, 1), BuildingBlock: ZUJKAS_clean_linker_0, # of connection points: 2
#     Edge 89, Type (0, 1), BuildingBlock: ZUJKAS_clean_linker_0, # of connection points: 2
#     Edge 90, Type (0, 1), BuildingBlock: ZUJKAS_clean_linker_0, # of connection points: 2
#     Edge 91, Type (0, 1), BuildingBlock: ZUJKAS_clean_linker_0, # of connection points: 2
#     Edge 92, Type (0, 1), BuildingBlock: ZUJKAS_clean_linker_0, # of connection points: 2
#     Edge 93, Type (0, 1), BuildingBlock: ZUJKAS_clean_linker_0, # of connection points: 2
#     Edge 94, Type (0, 1), BuildingBlock: ZUJKAS_clean_linker_0, # of connection points: 2
#     Edge 95, Type (0, 1), BuildingBlock: ZUJKAS_clean_linker_0, # of connection points: 2
#     Edge 96, Type (0, 1), BuildingBlock: ZUJKAS_clean_linker_0, # of connection points: 2
#     Edge 97, Type (0, 1), BuildingBlock: ZUJKAS_clean_linker_0, # of connection points: 2
#     Edge 98, Type (0, 1), BuildingBlock: ZUJKAS_clean_linker_0, # of connection points: 2
#     Edge 99, Type (0, 1), BuildingBlock: ZUJKAS_clean_linker_0, # of connection points: 2
#     Edge 100, Type (0, 1), BuildingBlock: ZUJKAS_clean_linker_0, # of connection points: 2
#     Edge 101, Type (0, 1), BuildingBlock: ZUJKAS_clean_linker_0, # of connection points: 2
#     Edge 102, Type (0, 1), BuildingBlock: ZUJKAS_clean_linker_0, # of connection points: 2
#     Edge 103, Type (0, 1), BuildingBlock: ZUJKAS_clean_linker_0, # of connection points: 2
#     Edge 104, Type (0, 1), BuildingBlock: ZUJKAS_clean_linker_0, # of connection points: 2
#     Edge 105, Type (0, 1), BuildingBlock: ZUJKAS_clean_linker_0, # of connection points: 2
#     Edge 106, Type (0, 1), BuildingBlock: ZUJKAS_clean_linker_0, # of connection points: 2
#     Edge 107, Type (0, 1), BuildingBlock: ZUJKAS_clean_linker_0, # of connection points: 2
#     Edge 108, Type (0, 1), BuildingBlock: ZUJKAS_clean_linker_0, # of connection points: 2
#     Edge 109, Type (0, 1), BuildingBlock: ZUJKAS_clean_linker_0, # of connection points: 2
#     Edge 110, Type (0, 1), BuildingBlock: ZUJKAS_clean_linker_0, # of connection points: 2
#     Edge 111, Type (0, 1), BuildingBlock: ZUJKAS_clean_linker_0, # of connection points: 2
#     Edge 112, Type (0, 1), BuildingBlock: ZUJKAS_clean_linker_0, # of connection points: 2
#     Edge 113, Type (0, 1), BuildingBlock: ZUJKAS_clean_linker_0, # of connection points: 2
#     Edge 114, Type (0, 1), BuildingBlock: ZUJKAS_clean_linker_0, # of connection points: 2
#     Edge 115, Type (0, 1), BuildingBlock: ZUJKAS_clean_linker_0, # of connection points: 2
#     Edge 116, Type (0, 1), BuildingBlock: ZUJKAS_clean_linker_0, # of connection points: 2
#     Edge 117, Type (0, 1), BuildingBlock: ZUJKAS_clean_linker_0, # of connection points: 2
#     Edge 118, Type (0, 1), BuildingBlock: ZUJKAS_clean_linker_0, # of connection points: 2
#     Edge 119, Type (0, 1), BuildingBlock: ZUJKAS_clean_linker_0, # of connection points: 2
#     Edge 120, Type (0, 1), BuildingBlock: ZUJKAS_clean_linker_0, # of connection points: 2
#     Edge 121, Type (0, 1), BuildingBlock: ZUJKAS_clean_linker_0, # of connection points: 2
#     Edge 122, Type (0, 1), BuildingBlock: ZUJKAS_clean_linker_0, # of connection points: 2
#     Edge 123, Type (0, 1), BuildingBlock: ZUJKAS_clean_linker_0, # of connection points: 2
#     Edge 124, Type (0, 1), BuildingBlock: ZUJKAS_clean_linker_0, # of connection points: 2
#     Edge 125, Type (0, 1), BuildingBlock: ZUJKAS_clean_linker_0, # of connection points: 2
#     Edge 126, Type (0, 1), BuildingBlock: ZUJKAS_clean_linker_0, # of connection points: 2
#     Edge 127, Type (0, 1), BuildingBlock: ZUJKAS_clean_linker_0, # of connection points: 2
#     Edge 128, Type (0, 1), BuildingBlock: ZUJKAS_clean_linker_0, # of connection points: 2
#     Edge 129, Type (0, 1), BuildingBlock: ZUJKAS_clean_linker_0, # of connection points: 2
#     Edge 130, Type (0, 1), BuildingBlock: ZUJKAS_clean_linker_0, # of connection points: 2
#     Edge 131, Type (0, 1), BuildingBlock: ZUJKAS_clean_linker_0, # of connection points: 2
#     Edge 132, Type (0, 1), BuildingBlock: ZUJKAS_clean_linker_0, # of connection points: 2
#     Edge 133, Type (0, 1), BuildingBlock: ZUJKAS_clean_linker_0, # of connection points: 2
#     Edge 134, Type (0, 1), BuildingBlock: ZUJKAS_clean_linker_0, # of connection points: 2
#     Edge 135, Type (0, 1), BuildingBlock: ZUJKAS_clean_linker_0, # of connection points: 2
#     Edge 136, Type (0, 1), BuildingBlock: ZUJKAS_clean_linker_0, # of connection points: 2
#     Edge 137, Type (0, 1), BuildingBlock: ZUJKAS_clean_linker_0, # of connection points: 2
#     Edge 138, Type (0, 1), BuildingBlock: ZUJKAS_clean_linker_0, # of connection points: 2
#     Edge 139, Type (0, 1), BuildingBlock: ZUJKAS_clean_linker_0, # of connection points: 2
#     Edge 140, Type (0, 1), BuildingBlock: ZUJKAS_clean_linker_0, # of connection points: 2
#     Edge 141, Type (0, 1), BuildingBlock: ZUJKAS_clean_linker_0, # of connection points: 2
#     Edge 142, Type (0, 1), BuildingBlock: ZUJKAS_clean_linker_0, # of connection points: 2
#     Edge 143, Type (0, 1), BuildingBlock: ZUJKAS_clean_linker_0, # of connection points: 2
#     Edge 144, Type (0, 1), BuildingBlock: ZUJKAS_clean_linker_0, # of connection points: 2
#     Edge 145, Type (0, 1), BuildingBlock: ZUJKAS_clean_linker_0, # of connection points: 2
#     Edge 146, Type (0, 1), BuildingBlock: ZUJKAS_clean_linker_0, # of connection points: 2
#     Edge 147, Type (0, 1), BuildingBlock: ZUJKAS_clean_linker_0, # of connection points: 2
#     Edge 148, Type (0, 1), BuildingBlock: ZUJKAS_clean_linker_0, # of connection points: 2
#     Edge 149, Type (0, 1), BuildingBlock: ZUJKAS_clean_linker_0, # of connection points: 2
#     Edge 150, Type (0, 1), BuildingBlock: ZUJKAS_clean_linker_0, # of connection points: 2
#     Edge 151, Type (0, 1), BuildingBlock: ZUJKAS_clean_linker_0, # of connection points: 2
# Relax obj value: 0.023
# Max RMSD: 0.145
# Mean RMSD: 0.109
data_MOF--net-tbo--node1-ESEHIV_clean_sbu_0--node2-BETDAH_clean_linker_0--edge1-ZUJKAS_clean_linker_0
_symmetry_space_group_name_H-M    P1
_symmetry_Int_Tables_number       1
_symmetry_cell_setting            triclinic
loop_
_symmetry_equiv_pos_as_xyz
'x, y, z'
_cell_length_a     90.611374
_cell_length_b     92.609507
_cell_length_c     98.633182
_cell_angle_alpha  90.365833
_cell_angle_beta   92.937539
_cell_angle_gamma 100.10183
loop_
_atom_site_label
_atom_site_type_symbol
_atom_site_fract_x
_atom_site_fract_y
_atom_site_fract_z
_atom_type_partial_charge
H0 H 0.2229 0.13801 0.18509 0.0
H1 H 0.18614 0.14071 0.21072 0.0
H2 H 0.19696 0.17232 0.1795 0.0
C3 C 0.21366 0.14322 0.18788 0.0
C4 C 0.21108 0.15582 0.18088 0.0
C5 C 0.20477 0.13753 0.19867 0.0
C6 C 0.19317 0.14492 0.20258 0.0
C7 C 0.19045 0.15756 0.19565 0.0
C8 C 0.19939 0.16278 0.1849 0.0
N9 N 0.17878 0.16538 0.19872 0.0
C10 C 0.16884 0.16311 0.20918 0.0
H11 H 0.88011 0.16913 0.17844 0.0
H12 H 0.8945 0.18667 0.14 0.0
H13 H 0.85939 0.14909 0.14109 0.0
C14 C 0.87907 0.16886 0.16744 0.0
C15 C 0.86833 0.15803 0.16072 0.0
C16 C 0.8887 0.17914 0.16007 0.0
C17 C 0.8872 0.17878 0.14581 0.0
C18 C 0.8765 0.16797 0.13902 0.0
C19 C 0.86735 0.15755 0.14648 0.0
N20 N 0.87494 0.16712 0.12468 0.0
C21 C 0.87498 0.17945 0.11677 0.0
H22 H 0.87509 0.82801 0.17364 0.0
H23 H 0.87183 0.85984 0.20514 0.0
H24 H 0.84083 0.85471 0.17035 0.0
C25 C 0.86969 0.83652 0.17773 0.0
C26 C 0.85727 0.84045 0.17042 0.0
C27 C 0.87508 0.84333 0.19035 0.0
C28 C 0.86801 0.85459 0.19544 0.0
C29 C 0.85556 0.85859 0.18818 0.0
C30 C 0.85035 0.85144 0.17585 0.0
N31 N 0.8474 0.86929 0.19287 0.0
C32 C 0.8512 0.87938 0.20358 0.0
H33 H 0.17611 0.81478 0.19194 0.0
H34 H 0.21919 0.80695 0.18024 0.0
H35 H 0.18081 0.77256 0.1759 0.0
C36 C 0.18308 0.80753 0.18797 0.0
C37 C 0.17662 0.79295 0.18444 0.0
C38 C 0.19841 0.81281 0.18642 0.0
C39 C 0.20725 0.80329 0.18118 0.0
C40 C 0.20085 0.78901 0.17702 0.0
C41 C 0.18553 0.78385 0.17858 0.0
N42 N 0.21022 0.77983 0.1718 0.0
C43 C 0.20602 0.77108 0.16031 0.0
H44 H 0.18731 0.86548 0.83446 0.0
H45 H 0.17703 0.81981 0.84444 0.0
H46 H 0.21523 0.84746 0.86414 0.0
C47 C 0.18971 0.8563 0.84043 0.0
C48 C 0.20233 0.85816 0.8496 0.0
C49 C 0.18054 0.84251 0.83843 0.0
C50 C 0.18407 0.83052 0.84576 0.0
C51 C 0.19639 0.83222 0.85512 0.0
C52 C 0.20557 0.84607 0.85702 0.0
N53 N 0.19925 0.81971 0.86233 0.0
C54 C 0.2089 0.82028 0.8738 0.0
H55 H 0.2391 0.17272 0.88655 0.0
H56 H 0.20901 0.20343 0.87828 0.0
H57 H 0.21363 0.17093 0.84843 0.0
C58 C 0.2312 0.17707 0.8798 0.0
C59 C 0.22725 0.17033 0.86696 0.0
C60 C 0.22471 0.18905 0.88414 0.0
C61 C 0.21395 0.19413 0.87533 0.0
C62 C 0.2099 0.18746 0.86249 0.0
C63 C 0.21664 0.17574 0.85845 0.0
N64 N 0.19938 0.19224 0.85307 0.0
C65 C 0.19028 0.20263 0.85522 0.0
H66 H 0.88532 0.17562 0.82929 0.0
H67 H 0.88084 0.20468 0.86233 0.0
H68 H 0.84695 0.16648 0.85376 0.0
C69 C 0.87891 0.17868 0.83749 0.0
C70 C 0.86535 0.16967 0.84035 0.0
C71 C 0.88457 0.19131 0.84533 0.0
C72 C 0.87655 0.19487 0.85632 0.0
C73 C 0.86296 0.18587 0.85942 0.0
C74 C 0.85748 0.1733 0.85142 0.0
N75 N 0.85451 0.18918 0.87041 0.0
C76 C 0.85867 0.20145 0.87887 0.0
H77 H 0.88353 0.81923 0.85978 0.0
H78 H 0.87494 0.85191 0.83072 0.0
H79 H 0.84981 0.84533 0.86664 0.0
C80 C 0.87741 0.82776 0.85654 0.0
C81 C 0.86635 0.83138 0.86479 0.0
C82 C 0.88078 0.83512 0.84426 0.0
C83 C 0.87249 0.84611 0.84006 0.0
C84 C 0.86134 0.84982 0.84826 0.0
C85 C 0.85848 0.84245 0.8605 0.0
N86 N 0.85275 0.86098 0.84504 0.0
C87 C 0.85253 0.86943 0.83339 0.0
H88 H 0.22824 0.66308 0.66139 0.0
H89 H 0.20522 0.65896 0.69859 0.0
H90 H 0.19587 0.69082 0.66949 0.0
C91 C 0.22014 0.66643 0.6679 0.0
C92 C 0.21249 0.67791 0.6638 0.0
C93 C 0.21748 0.65928 0.68035 0.0
C94 C 0.20715 0.66397 0.68879 0.0
C95 C 0.19928 0.67518 0.68497 0.0
C96 C 0.20193 0.68214 0.67245 0.0
N97 N 0.18927 0.67926 0.69441 0.0
C98 C 0.17813 0.68778 0.69218 0.0
H99 H 0.88871 0.67699 0.69586 0.0
H100 H 0.86881 0.69417 0.66036 0.0
H101 H 0.8451 0.65618 0.67972 0.0
C102 C 0.87957 0.67625 0.68821 0.0
C103 C 0.86689 0.66523 0.68907 0.0
C104 C 0.88034 0.68673 0.67791 0.0
C105 C 0.86823 0.68611 0.66831 0.0
C106 C 0.85549 0.67502 0.66897 0.0
C107 C 0.8549 0.66473 0.67936 0.0
N108 N 0.84304 0.67383 0.65942 0.0
C109 C 0.84256 0.6826 0.64809 0.0
H110 H 0.89021 0.33815 0.6857 0.0
H111 H 0.87915 0.37029 0.7136 0.0
H112 H 0.84974 0.35584 0.67883 0.0
C113 C 0.88281 0.34546 0.68869 0.0
C114 C 0.86974 0.34611 0.68054 0.0
C115 C 0.8864 0.35405 0.7007 0.0
C116 C 0.8766 0.36357 0.70448 0.0
C117 C 0.86341 0.36424 0.69646 0.0
C118 C 0.8601 0.35544 0.6847 0.0
N119 N 0.85275 0.37309 0.69992 0.0
C120 C 0.85462 0.38473 0.70926 0.0
H121 H 0.17833 0.34681 0.70355 0.0
H122 H 0.22292 0.34753 0.69033 0.0
H123 H 0.1895 0.30881 0.6838 0.0
C124 C 0.18642 0.34141 0.69875 0.0
C125 C 0.18216 0.32681 0.69407 0.0
C126 C 0.20103 0.34907 0.69734 0.0
C127 C 0.21143 0.34198 0.69112 0.0
C128 C 0.20722 0.32768 0.68595 0.0
C129 C 0.19253 0.32011 0.68729 0.0
N130 N 0.21834 0.32085 0.6803 0.0
C131 C 0.21576 0.31218 0.66861 0.0
H132 H 0.1768 0.35612 0.3412 0.0
H133 H 0.17579 0.31977 0.36823 0.0
H134 H 0.21193 0.35663 0.37236 0.0
C135 C 0.18157 0.35105 0.34986 0.0
C136 C 0.19508 0.35814 0.3564 0.0
C137 C 0.17453 0.33719 0.35398 0.0
C138 C 0.18114 0.33042 0.36481 0.0
C139 C 0.19451 0.33734 0.37153 0.0
C140 C 0.20153 0.35123 0.36728 0.0
N141 N 0.20054 0.32985 0.3824 0.0
C142 C 0.21251 0.3359 0.3912 0.0
H143 H 0.234 0.6525 0.36052 0.0
H144 H 0.20156 0.68114 0.35425 0.0
H145 H 0.20948 0.65245 0.32204 0.0
C146 C 0.22566 0.65655 0.35404 0.0
C147 C 0.2226 0.65088 0.34072 0.0
C148 C 0.21825 0.66751 0.35907 0.0
C149 C 0.20736 0.67274 0.35055 0.0
C150 C 0.2041 0.66714 0.3372 0.0
C151 C 0.21183 0.65639 0.33243 0.0
N152 N 0.19361 0.67223 0.32793 0.0
C153 C 0.18267 0.68056 0.33077 0.0
H154 H 0.8533 0.65338 0.31255 0.0
H155 H 0.85166 0.69748 0.32606 0.0
H156 H 0.81275 0.66396 0.32771 0.0
C157 C 0.84728 0.66133 0.31676 0.0
C158 C 0.83235 0.65678 0.32031 0.0
C159 C 0.8544 0.67606 0.31862 0.0
C160 C 0.84638 0.68615 0.32428 0.0
C161 C 0.83136 0.68175 0.32743 0.0
C162 C 0.82439 0.66719 0.32529 0.0
N163 N 0.82288 0.69189 0.33243 0.0
C164 C 0.82813 0.70139 0.34322 0.0
H165 H 0.87056 0.30079 0.38027 0.0
H166 H 0.88315 0.33589 0.35227 0.0
H167 H 0.85267 0.34082 0.38294 0.0
C168 C 0.86934 0.31139 0.37624 0.0
C169 C 0.86014 0.31983 0.38279 0.0
C170 C 0.87781 0.31699 0.36518 0.0
C171 C 0.8766 0.33116 0.36054 0.0
C172 C 0.86747 0.33965 0.36686 0.0
C173 C 0.85932 0.33396 0.37791 0.0
N174 N 0.86907 0.35488 0.36418 0.0
C175 C 0.86067 0.36105 0.35427 0.0
H176 H 0.72587 0.14831 0.66835 0.0
H177 H 0.6897 0.13956 0.69555 0.0
H178 H 0.68962 0.17301 0.66597 0.0
C179 C 0.71574 0.15102 0.67227 0.0
C180 C 0.70892 0.16204 0.6659 0.0
C181 C 0.709 0.14277 0.68307 0.0
C182 C 0.69533 0.14588 0.68752 0.0
C183 C 0.68844 0.1568 0.68142 0.0
C184 C 0.69529 0.16486 0.67075 0.0
N185 N 0.67325 0.15733 0.68392 0.0
C186 C 0.66857 0.16697 0.69301 0.0
H187 H 0.37613 0.19321 0.70403 0.0
H188 H 0.36915 0.22635 0.6752 0.0
H189 H 0.33261 0.19205 0.6841 0.0
C190 C 0.36882 0.19785 0.69691 0.0
C191 C 0.35378 0.19097 0.69482 0.0
C192 C 0.37448 0.21063 0.68988 0.0
C193 C 0.36484 0.21656 0.6807 0.0
C194 C 0.34971 0.20983 0.67862 0.0
C195 C 0.3443 0.19712 0.6857 0.0
N196 N 0.3396 0.21554 0.66954 0.0
C197 C 0.34402 0.22641 0.66021 0.0
H198 H 0.38275 0.83794 0.6821 0.0
H199 H 0.37591 0.87194 0.70997 0.0
H200 H 0.34777 0.86301 0.67346 0.0
C201 C 0.37647 0.84631 0.68497 0.0
C202 C 0.36468 0.84931 0.6762 0.0
C203 C 0.38062 0.8543 0.69723 0.0
C204 C 0.37289 0.86572 0.7006 0.0
C205 C 0.36107 0.86889 0.69192 0.0
C206 C 0.35707 0.86063 0.67989 0.0
N207 N 0.35273 0.88018 0.6947 0.0
C208 C 0.3543 0.88953 0.70604 0.0
H209 H 0.68392 0.84908 0.67981 0.0
H210 H 0.70891 0.84177 0.64525 0.0
H211 H 0.66773 0.81277 0.65237 0.0
C212 C 0.6852 0.84273 0.67082 0.0
C213 C 0.67437 0.83029 0.66723 0.0
C214 C 0.69766 0.84706 0.66289 0.0
C215 C 0.69923 0.83868 0.65128 0.0
C216 C 0.68843 0.82628 0.64753 0.0
C217 C 0.67608 0.82223 0.65548 0.0
N218 N 0.68958 0.81762 0.63583 0.0
C219 C 0.7018 0.81985 0.62768 0.0
H220 H 0.67174 0.8503 0.34008 0.0
H221 H 0.67828 0.82333 0.37454 0.0
H222 H 0.70855 0.8639 0.36913 0.0
C223 C 0.67807 0.84829 0.34928 0.0
C224 C 0.69076 0.85851 0.35359 0.0
C225 C 0.67349 0.83552 0.35671 0.0
C226 C 0.68173 0.83312 0.36874 0.0
C227 C 0.69443 0.84341 0.37318 0.0
C228 C 0.69883 0.85599 0.36558 0.0
N229 N 0.70304 0.84173 0.38531 0.0
C230 C 0.70182 0.82912 0.39301 0.0
H231 H 0.73222 0.15637 0.36495 0.0
H232 H 0.70075 0.18635 0.3606 0.0
H233 H 0.70241 0.154 0.3295 0.0
C234 C 0.72337 0.16046 0.35917 0.0
C235 C 0.71821 0.15385 0.34657 0.0
C236 C 0.71736 0.17232 0.36436 0.0
C237 C 0.70555 0.1773 0.3568 0.0
C238 C 0.70017 0.17064 0.34415 0.0
C239 C 0.70665 0.15909 0.33918 0.0
N240 N 0.68831 0.17492 0.33593 0.0
C241 C 0.68023 0.18618 0.33813 0.0
H242 H 0.36361 0.17191 0.32085 0.0
H243 H 0.35273 0.19828 0.35368 0.0
H244 H 0.32345 0.15784 0.34202 0.0
C245 C 0.35596 0.17385 0.32849 0.0
C246 C 0.34314 0.16336 0.33039 0.0
C247 C 0.35947 0.18647 0.3368 0.0
C248 C 0.34998 0.1886 0.3472 0.0
C249 C 0.33684 0.17826 0.34896 0.0
C250 C 0.33353 0.16577 0.34054 0.0
N251 N 0.32661 0.17992 0.35902 0.0
C252 C 0.32916 0.19044 0.36934 0.0
H253 H 0.36543 0.80591 0.37474 0.0
H254 H 0.36716 0.82792 0.33643 0.0
H255 H 0.3363 0.83721 0.36548 0.0
C256 C 0.36151 0.81367 0.36786 0.0
C257 C 0.35001 0.82116 0.37174 0.0
C258 C 0.36799 0.81608 0.35519 0.0
C259 C 0.36264 0.8261 0.34636 0.0
C260 C 0.35134 0.83378 0.34995 0.0
C261 C 0.345 0.83128 0.36266 0.0
N262 N 0.34673 0.84365 0.34022 0.0
C263 C 0.33706 0.85366 0.34181 0.0
H264 H 0.72164 0.65219 0.17348 0.0
H265 H 0.68937 0.65726 0.20304 0.0
H266 H 0.69664 0.68753 0.17021 0.0
C267 C 0.71307 0.65787 0.17705 0.0
C268 C 0.70999 0.67035 0.17014 0.0
C269 C 0.70573 0.65299 0.18889 0.0
C270 C 0.695 0.6608 0.19389 0.0
C271 C 0.69176 0.67331 0.18708 0.0
C272 C 0.69933 0.67795 0.17537 0.0
N273 N 0.68162 0.68215 0.19183 0.0
C274 C 0.67004 0.67837 0.20067 0.0
H275 H 0.35983 0.6864 0.20103 0.0
H276 H 0.35611 0.72351 0.17584 0.0
H277 H 0.31807 0.68908 0.17916 0.0
C278 C 0.3532 0.6921 0.19413 0.0
C279 C 0.33823 0.68584 0.19057 0.0
C280 C 0.35974 0.7057 0.18894 0.0
C281 C 0.35123 0.71298 0.17984 0.0
C282 C 0.3361 0.70702 0.17655 0.0
C283 C 0.32967 0.69362 0.18202 0.0
N284 N 0.32685 0.7145 0.16819 0.0
C285 C 0.33165 0.72199 0.15663 0.0
H286 H 0.39407 0.32468 0.18465 0.0
H287 H 0.39016 0.3557 0.21676 0.0
H288 H 0.35779 0.34894 0.18305 0.0
C289 C 0.38844 0.33284 0.18903 0.0
C290 C 0.37559 0.33632 0.18205 0.0
C291 C 0.39395 0.33972 0.20162 0.0
C292 C 0.38623 0.35027 0.20716 0.0
C293 C 0.37317 0.35355 0.20038 0.0
C294 C 0.36802 0.34651 0.188 0.0
N295 N 0.36409 0.363 0.20586 0.0
C296 C 0.36834 0.37466 0.21507 0.0
H297 H 0.68552 0.342 0.18128 0.0
H298 H 0.72475 0.34616 0.15774 0.0
H299 H 0.69069 0.30751 0.15358 0.0
C300 C 0.69197 0.33767 0.17377 0.0
C301 C 0.68646 0.32385 0.16786 0.0
C302 C 0.70587 0.34577 0.17036 0.0
C303 C 0.71398 0.34009 0.1604 0.0
C304 C 0.70843 0.32629 0.15429 0.0
C305 C 0.69483 0.31819 0.15822 0.0
N306 N 0.71629 0.31996 0.1444 0.0
C307 C 0.72863 0.32728 0.13793 0.0
H308 H 0.69961 0.36889 0.84175 0.0
H309 H 0.68451 0.32409 0.85282 0.0
H310 H 0.72479 0.34867 0.87208 0.0
C311 C 0.70099 0.35952 0.84791 0.0
C312 C 0.71347 0.3604 0.85718 0.0
C313 C 0.69054 0.34645 0.84618 0.0
C314 C 0.69261 0.3342 0.85388 0.0
C315 C 0.70477 0.33492 0.86331 0.0
C316 C 0.71527 0.34803 0.86488 0.0
N317 N 0.70599 0.32226 0.87104 0.0
C318 C 0.71593 0.32217 0.88223 0.0
H319 H 0.7338 0.6665 0.8745 0.0
H320 H 0.70067 0.69417 0.8666 0.0
H321 H 0.70445 0.65974 0.83848 0.0
C322 C 0.72482 0.66959 0.86811 0.0
C323 C 0.72034 0.66182 0.8558 0.0
C324 C 0.71778 0.68127 0.87226 0.0
C325 C 0.70607 0.68514 0.86376 0.0
C326 C 0.70135 0.67735 0.85157 0.0
C327 C 0.70844 0.66578 0.84779 0.0
N328 N 0.68939 0.6805 0.84279 0.0
C329 C 0.68176 0.69226 0.84379 0.0
H330 H 0.37379 0.66189 0.81835 0.0
H331 H 0.37769 0.70637 0.83294 0.0
H332 H 0.3396 0.67423 0.8425 0.0
C333 C 0.36938 0.67014 0.82397 0.0
C334 C 0.35564 0.66636 0.83021 0.0
C335 C 0.3775 0.68452 0.82501 0.0
C336 C 0.37164 0.69519 0.83217 0.0
C337 C 0.35812 0.69155 0.83859 0.0
C338 C 0.35011 0.67712 0.83758 0.0
N339 N 0.35294 0.70265 0.84603 0.0
C340 C 0.34315 0.69963 0.85642 0.0
H341 H 0.39209 0.31393 0.87724 0.0
H342 H 0.38602 0.34662 0.84744 0.0
H343 H 0.35847 0.34079 0.88187 0.0
C344 C 0.38648 0.32273 0.87372 0.0
C345 C 0.3748 0.32643 0.88117 0.0
C346 C 0.39071 0.32991 0.86155 0.0
C347 C 0.38287 0.34095 0.85671 0.0
C348 C 0.37118 0.34484 0.86409 0.0
C349 C 0.36732 0.33755 0.87619 0.0
N350 N 0.36299 0.35607 0.86004 0.0
C351 C 0.36445 0.3648 0.84851 0.0
Cu352 Cu 0.30156 0.24617 0.03679 0.0
N353 N 0.31775 0.24817 0.02514 0.0
N354 N 0.33129 0.25511 1.00703 0.0
C355 C 0.31847 0.25556 0.01335 0.0
C356 C 0.33899 0.2471 0.01525 0.0
C357 C 0.33063 0.24282 0.02636 0.0
O358 O 0.28362 0.24261 0.02446 0.0
C359 C 0.31661 0.27122 0.05215 0.0
O360 O 0.32727 0.2709 0.04369 0.0
H361 H 0.30985 0.2614 1.00957 0.0
H362 H 0.33375 0.2363 0.03474 0.0
N363 N 0.30012 0.22952 0.04782 0.0
N364 N 0.29226 0.21423 0.06467 0.0
C365 C 0.2923 0.22762 0.05918 0.0
C366 C 0.30522 0.21691 0.046 0.0
C367 C 0.30044 0.2075 0.05635 0.0
C368 C 0.2792 0.25153 0.01604 0.0
O369 O 0.28481 0.26558 0.01728 0.0
H370 H 0.28636 0.2358 0.06307 0.0
H371 H 0.31171 0.21459 0.03761 0.0
O372 O 0.30401 0.26265 0.04995 0.0
H373 H 0.34982 0.24433 0.01334 0.0
H374 H 0.30281 0.19651 0.05758 0.0
Cu375 Cu 0.8419 0.31625 0.01282 0.0
N376 N 0.84382 0.33242 0.02455 0.0
N377 N 0.8384 0.34492 0.04255 0.0
C378 C 0.8372 0.33166 0.03646 0.0
C379 C 0.84614 0.35448 0.03409 0.0
C380 C 0.84953 0.3467 0.02297 0.0
O381 O 0.84296 0.29926 0.02384 0.0
C382 C 0.82048 0.325 0.99541 0.0
O383 O 0.83055 0.33709 0.99597 0.0
H384 H 0.8308 0.32161 0.04015 0.0
H385 H 0.85509 0.35124 0.01412 0.0
N386 N 0.8566 0.31706 1.00023 0.0
N387 N 0.86759 0.30889 0.98266 0.0
C388 C 0.85626 0.30616 0.99113 0.0
C389 C 0.86861 0.32719 0.9975 0.0
C390 C 0.8754 0.32218 0.98656 0.0
C391 C 0.8551 0.29934 0.03093 0.0
O392 O 0.86595 0.31075 0.03032 0.0
H393 H 0.84753 0.29653 0.99057 0.0
H394 H 0.87213 0.33747 1.00297 0.0
O395 O 0.8229 0.31416 1.00251 0.0
H396 H 0.84877 0.36625 0.0356 0.0
H397 H 0.88531 0.32784 0.98191 0.0
Cu398 Cu 0.79766 0.75339 0.02176 0.0
N399 N 0.81395 0.75518 1.01043 0.0
N400 N 0.82731 0.7622 0.99225 0.0
C401 C 0.81369 0.76042 0.99769 0.0
C402 C 0.83647 0.75781 1.00206 0.0
C403 C 0.82824 0.75358 0.01324 0.0
O404 O 0.78007 0.75006 1.0089 0.0
C405 C 0.79304 0.77434 0.04252 0.0
O406 O 0.77899 0.76769 0.04234 0.0
H407 H 0.80368 0.76314 0.99266 0.0
H408 H 0.83251 0.75011 0.0229 0.0
N409 N 0.79643 0.73742 0.03373 0.0
N410 N 0.78879 0.72299 0.05117 0.0
C411 C 0.78646 0.73451 0.0435 0.0
C412 C 0.80532 0.72726 0.03518 0.0
C413 C 0.80061 0.71832 0.04588 0.0
C414 C 0.77837 0.73763 1.00275 0.0
O415 O 0.78731 0.72849 1.00652 0.0
H416 H 0.7776 0.7407 0.04495 0.0
H417 H 0.81472 0.72652 0.02904 0.0
O418 O 0.80153 0.77093 0.03355 0.0
H419 H 0.84842 0.75817 1.00147 0.0
H420 H 0.80578 0.70937 0.04971 0.0
Cu421 Cu 0.26682 0.73925 1.00623 0.0
N422 N 0.24783 0.73546 0.01305 0.0
N423 N 0.22994 0.73294 0.02801 0.0
C424 C 0.24483 0.73518 0.02626 0.0
C425 C 0.22331 0.73177 0.01538 0.0
C426 C 0.23442 0.73329 1.00615 0.0
O427 O 0.28126 0.74479 0.0213 0.0
C428 C 0.26297 0.76658 0.99522 0.0
O429 O 0.25821 0.7691 1.00723 0.0
H430 H 0.25346 0.73713 0.03439 0.0
H431 H 0.23286 0.73312 0.9952 0.0
N432 N 0.27044 0.7225 0.9975 0.0
N433 N 0.27598 0.70807 0.98101 0.0
C434 C 0.27385 0.72164 0.98446 0.0
C435 C 0.27037 0.70903 1.00255 0.0
C436 C 0.27385 0.70008 0.99238 0.0
C437 C 0.29473 0.74257 0.0216 0.0
O438 O 0.29971 0.73688 1.01087 0.0
H439 H 0.27506 0.73093 0.97776 0.0
H440 H 0.26803 0.70599 0.01289 0.0
O441 O 0.26756 0.75462 0.99302 0.0
H442 H 0.21134 0.73006 0.01297 0.0
H443 H 0.27466 0.68861 0.99327 0.0
Cu444 Cu 0.01704 0.23403 0.28124 0.0
N445 N 0.02565 0.21714 0.27869 0.0
N446 N 0.04197 0.20305 0.27215 0.0
C447 C 0.03974 0.21684 0.27489 0.0
C448 C 0.02874 0.19436 0.27444 0.0
C449 C 0.01875 0.20304 0.27841 0.0
O450 O 0.03312 0.25005 0.28633 0.0
C451 C 1.00944 0.23466 0.2528 0.0
O452 O 0.02199 0.22974 0.25119 0.0
H453 H 0.04793 0.22666 0.27348 0.0
H454 H 1.00709 0.19937 0.28048 0.0
N455 N 1.00303 0.23226 0.29488 0.0
N456 N 0.98499 0.23786 0.30778 0.0
C457 C 0.99442 0.24229 0.29779 0.0
C458 C 0.999 0.22111 0.30336 0.0
C459 C 0.98788 0.22451 0.31128 0.0
C460 C 0.04004 0.2489 0.29771 0.0
O461 O 0.03573 0.23729 0.30507 0.0
H462 H 0.99486 0.25252 0.29245 0.0
H463 H 1.00376 0.21119 0.30375 0.0
O464 O 1.00603 0.23783 0.26467 0.0
H465 H 0.02632 0.18255 0.27315 0.0
H466 H 0.98247 0.2177 0.31911 0.0
Cu467 Cu 0.7779 0.01611 0.26507 0.0
N468 N 0.7761 0.02539 0.24858 0.0
N469 N 0.78152 0.0417 0.23223 0.0
C470 C 0.78489 0.03787 0.24504 0.0
C471 C 0.77009 0.0312 0.22756 0.0
C472 C 0.7668 0.02109 0.23767 0.0
O473 O 0.78082 0.03197 0.27875 0.0
C474 C 0.79904 0.99597 0.27112 0.0
O475 O 0.7947 0.9952 0.28364 0.0
H476 H 0.79364 0.04395 0.25177 0.0
H477 H 0.75846 0.01118 0.23703 0.0
N478 N 0.75987 1.0035 0.26775 0.0
N479 N 0.74346 0.98491 0.27543 0.0
C480 C 0.75807 0.99063 0.27423 0.0
C481 C 0.74589 1.00598 0.26465 0.0
C482 C 0.73572 0.99447 0.26932 0.0
C483 C 0.77444 0.031 0.29002 0.0
O484 O 0.76794 0.01806 0.29406 0.0
H485 H 0.76727 0.98566 0.27821 0.0
H486 H 0.74331 0.0157 0.25972 0.0
O487 O 0.79399 1.00471 0.26289 0.0
H488 H 0.76479 0.0306 0.21743 0.0
H489 H 0.72363 0.99353 0.26878 0.0
Cu490 Cu 0.02411 0.75966 0.26949 0.0
N491 N 0.0155 0.7768 0.268 0.0
N492 N 0.99948 0.79164 0.26107 0.0
C493 C 1.00296 0.778 0.26037 0.0
C494 C 1.01035 0.79925 0.26954 0.0
C495 C 0.02016 0.79013 0.27375 0.0
O496 O 1.00781 0.74389 0.27328 0.0
C497 C 0.04199 0.76778 0.24826 0.0
O498 O 0.04342 0.78028 0.255 0.0
H499 H 0.99668 0.76904 0.25425 0.0
H500 H 0.03009 0.7931 0.28042 0.0
N501 N 0.03944 0.76037 0.28332 0.0
N502 N 0.05953 0.75463 0.29504 0.0
C503 C 0.05023 0.75195 0.28376 0.0
C504 C 0.04192 0.76859 0.29478 0.0
C505 C 0.0543 0.76514 0.30197 0.0
C506 C 1.00087 0.74579 0.28386 0.0
O507 O 1.00567 0.75755 0.29145 0.0
H508 H 0.05126 0.74404 0.27589 0.0
H509 H 0.03508 0.77636 0.29786 0.0
O510 O 0.03331 0.75666 0.2526 0.0
H511 H 1.01119 0.81061 0.27262 0.0
H512 H 0.05885 0.76978 0.31172 0.0
Cu513 Cu 0.27266 0.98898 0.26036 0.0
N514 N 0.29094 1.00173 0.26227 0.0
N515 N 0.30685 0.02243 0.26764 0.0
C516 C 0.29241 0.01563 0.26677 0.0
C517 C 0.31482 0.01238 0.26339 0.0
C518 C 0.30493 0.99955 0.26011 0.0
O519 O 0.25734 1.00174 0.25826 0.0
C520 C 0.28013 0.97643 0.28592 0.0
O521 O 0.28877 0.98921 0.28839 0.0
H522 H 0.28296 0.02062 0.26933 0.0
H523 H 0.30774 0.98933 0.25658 0.0
N524 N 0.27214 0.9776 0.24464 0.0
N525 N 0.26574 0.95849 0.23029 0.0
C526 C 0.26323 0.96453 0.24228 0.0
C527 C 0.28069 0.97996 0.23384 0.0
C528 C 0.27673 0.96822 0.22494 0.0
C529 C 0.25792 0.0092 0.24737 0.0
O530 O 0.26778 1.00713 0.23858 0.0
H531 H 0.2554 0.95941 0.24947 0.0
H532 H 0.28927 0.9895 0.23258 0.0
O533 O 0.27126 0.97484 0.27531 0.0
H534 H 0.32691 0.01405 0.26298 0.0
H535 H 0.2816 0.96699 0.21531 0.0
Cu536 Cu 0.02758 0.77465 0.74952 0.0
N537 N 0.03611 0.75766 0.74757 0.0
N538 N 0.05199 0.74307 0.74117 0.0
C539 C 0.04956 0.75703 0.74248 0.0
C540 C 0.03957 0.73465 0.74577 0.0
C541 C 0.02984 0.74365 0.74969 0.0
O542 O 0.04436 0.79074 0.75167 0.0
C543 C 0.01548 0.7707 0.72227 0.0
O544 O 0.02731 0.76476 0.72014 0.0
H545 H 0.05712 0.76662 0.73925 0.0
H546 H 0.01882 0.7402 0.75352 0.0
N547 N 0.01583 0.77395 0.76479 0.0
N548 N 0.99858 0.779 0.77886 0.0
C549 C 1.00396 0.78076 0.7663 0.0
C550 C 0.01798 0.76755 0.77674 0.0
C551 C 1.0074 0.77062 0.78541 0.0
C552 C 0.04444 0.80224 0.75881 0.0
O553 O 0.03189 0.80464 0.76374 0.0
H554 H 0.99974 0.78732 0.75846 0.0
H555 H 0.02679 0.7613 0.77907 0.0
O556 O 0.01428 0.77646 0.73381 0.0
H557 H 0.03757 0.7228 0.74622 0.0
H558 H 1.00635 0.76695 0.79577 0.0
Cu559 Cu 0.29448 0.02724 0.79268 0.0
N560 N 0.29511 0.03789 0.77568 0.0
N561 N 0.30039 0.05543 0.76039 0.0
C562 C 0.30338 0.05103 0.77313 0.0
C563 C 0.28987 0.04455 0.75481 0.0
C564 C 0.28664 0.03376 0.76429 0.0
O565 O 0.2859 0.04375 0.80186 0.0
C566 C 0.31556 0.01107 0.77964 0.0
O567 O 0.32513 0.02337 0.78176 0.0
H568 H 0.31134 0.05719 0.78048 0.0
H569 H 0.2785 0.02373 0.76307 0.0
N570 N 0.29349 0.01636 0.80954 0.0
N571 N 0.28636 0.99849 0.8241 0.0
C572 C 0.28391 1.00389 0.81166 0.0
C573 C 0.30239 0.01905 0.82093 0.0
C574 C 0.298 0.00799 0.82997 0.0
C575 C 0.29399 0.05449 0.80838 0.0
O576 O 0.30861 0.05519 0.80938 0.0
H577 H 0.27566 0.99867 0.80403 0.0
H578 H 0.31151 0.02824 0.82246 0.0
O579 O 0.30217 0.01027 0.78336 0.0
H580 H 0.28452 0.04453 0.74475 0.0
H581 H 0.30301 1.00702 0.84004 0.0
Cu582 Cu 0.04148 0.28845 0.78584 0.0
N583 N 0.03098 0.30425 0.78526 0.0
N584 N 1.0133 0.31739 0.7788 0.0
C585 C 0.02055 0.30635 0.77553 0.0
C586 C 0.01947 0.32241 0.79106 0.0
C587 C 0.03031 0.31428 0.79502 0.0
O588 O 0.02744 0.27187 0.79178 0.0
C589 C 0.05506 0.2963 0.76204 0.0
O590 O 0.0563 0.30923 0.76798 0.0
H591 H 0.01781 0.2994 0.76657 0.0
H592 H 0.03679 0.31522 0.8046 0.0
N593 N 0.05865 0.29139 0.79775 0.0
N594 N 0.0789 0.2864 0.80969 0.0
C595 C 0.0662 0.28084 0.8022 0.0
C596 C 0.06684 0.30409 0.80255 0.0
C597 C 0.07927 0.30106 0.80992 0.0
C598 C 0.02443 0.27161 0.80424 0.0
O599 O 0.03177 0.28188 0.81252 0.0
H600 H 0.06269 0.26935 0.79955 0.0
H601 H 0.06417 0.31483 0.80053 0.0
O602 O 0.0482 0.28513 0.76796 0.0
H603 H 0.01621 0.33116 0.7969 0.0
H604 H 0.08796 0.30909 0.81498 0.0
Cu605 Cu 0.79713 0.00776 0.74346 0.0
N606 N 0.81418 0.02216 0.74533 0.0
N607 N 0.82913 0.04195 0.7544 0.0
C608 C 0.81701 0.03149 0.756 0.0
C609 C 0.83416 0.03906 0.74219 0.0
C610 C 0.8249 0.02677 0.73661 0.0
O611 O 0.78067 0.01914 0.74391 0.0
C612 C 0.79115 0.98173 0.76055 0.0
O613 O 0.77782 0.97852 0.75426 0.0
H614 H 0.80979 0.03103 0.76445 0.0
H615 H 0.82565 0.02186 0.72675 0.0
N616 N 0.79642 0.99815 0.72664 0.0
N617 N 0.7902 0.98014 0.71103 0.0
C618 C 0.7926 0.9836 0.72439 0.0
C619 C 0.79689 1.00418 0.71427 0.0
C620 C 0.79306 0.99312 0.70462 0.0
C621 C 0.76993 0.01802 0.73484 0.0
O622 O 0.76745 1.00653 0.72664 0.0
H623 H 0.79108 0.97579 0.73246 0.0
H624 H 0.79888 0.01585 0.71244 0.0
O625 O 0.79966 0.99379 0.75801 0.0
H626 H 0.84366 0.04551 0.73752 0.0
H627 H 0.79155 0.9947 0.69382 0.0
Cu628 Cu 0.28836 0.75284 0.52112 0.0
N629 N 0.30522 0.75649 0.53345 0.0
N630 N 0.31921 0.76575 0.55199 0.0
C631 C 0.30659 0.76595 0.5441 0.0
C632 C 0.32607 0.75574 0.54601 0.0
C633 C 0.31745 0.75008 0.5346 0.0
O634 O 0.27129 0.74906 0.53303 0.0
C635 C 0.30203 0.77149 0.50222 0.0
O636 O 0.31267 0.7643 0.50633 0.0
H637 H 0.29819 0.77252 0.54625 0.0
H638 H 0.3199 0.74179 0.52771 0.0
N639 N 0.28747 0.73644 0.50951 0.0
N640 N 0.28087 0.72242 0.49075 0.0
C641 C 0.27974 0.73498 0.49736 0.0
C642 C 0.29379 0.72436 0.51064 0.0
C643 C 0.2897 0.71569 0.49913 0.0
C644 C 0.27078 0.73728 0.53984 0.0
O645 O 0.28067 0.72886 0.53757 0.0
H646 H 0.27327 0.743 0.49354 0.0
H647 H 0.30083 0.72196 0.51922 0.0
O648 O 0.28963 0.76908 0.50817 0.0
H649 H 0.33659 0.75274 0.54961 0.0
H650 H 0.29315 0.70532 0.49705 0.0
Cu651 Cu 0.80874 0.77245 0.50403 0.0
N652 N 0.82377 0.77344 0.49176 0.0
N653 N 0.83454 0.76915 0.47263 0.0
C654 C 0.82237 0.76568 0.48008 0.0
C655 C 0.84404 0.77948 0.48 0.0
C656 C 0.83732 0.78216 0.4918 0.0
O657 O 0.78988 0.76664 0.49357 0.0
C658 C 0.82359 0.76151 0.52583 0.0
O659 O 0.83358 0.77315 0.52333 0.0
H660 H 0.81251 0.75767 0.47712 0.0
H661 H 0.84182 0.79012 0.49969 0.0
N662 N 0.8089 0.79074 0.51199 0.0
N663 N 0.80363 0.80693 0.52703 0.0
C664 C 0.80518 0.79292 0.52476 0.0
C665 C 0.80993 0.80383 0.50596 0.0
C666 C 0.80661 0.81388 0.51523 0.0
C667 C 0.77751 0.76999 0.49688 0.0
O668 O 0.77682 0.77636 0.50871 0.0
H669 H 0.80241 0.78411 0.53186 0.0
H670 H 0.81203 0.80572 0.49536 0.0
O671 O 0.81161 0.75873 0.51826 0.0
H672 H 0.85486 0.78501 0.47692 0.0
H673 H 0.80579 0.8252 0.51327 0.0
Cu674 Cu 0.79465 0.2449 0.5283 0.0
N675 N 0.79384 0.22926 0.51588 0.0
N676 N 0.78655 0.21658 0.49649 0.0
C677 C 0.78467 0.22788 0.50456 0.0
C678 C 0.79737 0.21054 0.50305 0.0
C679 C 0.80181 0.21834 0.51503 0.0
O680 O 0.79444 0.26148 0.51588 0.0
C681 C 0.7809 0.22869 0.54843 0.0
O682 O 0.79254 0.22255 0.54602 0.0
H683 H 0.7771 0.23543 0.50208 0.0
H684 H 0.81033 0.21625 0.52246 0.0
N685 N 0.81208 0.2492 0.53999 0.0
N686 N 0.82653 0.25921 0.558 0.0
C687 C 0.81351 0.25878 0.55055 0.0
C688 C 0.8247 0.24337 0.54074 0.0
C689 C 0.83361 0.2495 0.55184 0.0
C690 C 0.80695 0.26564 0.51039 0.0
O691 O 0.81862 0.26 0.51471 0.0
H692 H 0.80488 0.26497 0.55295 0.0
H693 H 0.82724 0.23517 0.53382 0.0
O694 O 0.77843 0.2393 0.54089 0.0
H695 H 0.80178 0.20116 0.49947 0.0
H696 H 0.84446 0.247 0.55508 0.0
Cu697 Cu 0.29956 0.28713 0.52029 0.0
N698 N 0.28029 0.28233 0.52643 0.0
N699 N 0.26137 0.28055 0.54031 0.0
C700 C 0.27618 0.28522 0.53892 0.0
C701 C 0.25599 0.27441 0.52819 0.0
C702 C 0.26771 0.27556 0.51962 0.0
O703 O 0.31301 0.29286 0.53599 0.0
C704 C 0.29389 0.31353 0.50867 0.0
O705 O 0.28899 0.31594 0.52065 0.0
H706 H 0.284 0.29053 0.54684 0.0
H707 H 0.26712 0.27181 0.50917 0.0
N708 N 0.30452 0.27064 0.51214 0.0
N709 N 0.31118 0.25588 0.49646 0.0
C710 C 0.30835 0.2694 0.49925 0.0
C711 C 0.30493 0.25753 0.51776 0.0
C712 C 0.30905 0.24838 0.50811 0.0
C713 C 0.32666 0.29123 0.53669 0.0
O714 O 0.33269 0.28728 0.52573 0.0
H715 H 0.30912 0.27831 0.49214 0.0
H716 H 0.30231 0.25481 0.52812 0.0
O717 O 0.29973 0.3022 0.50683 0.0
H718 H 0.2444 0.26967 0.5256 0.0
H719 H 0.31004 0.23701 0.50951 0.0
Cu720 Cu 0.81204 0.52502 0.80542 0.0
N721 N 0.82927 0.53876 0.80276 0.0
N722 N 0.84349 0.55687 0.79208 0.0
C723 C 0.82962 0.54898 0.79314 0.0
C724 C 0.85225 0.55147 0.80156 0.0
C725 C 0.84343 0.54019 0.8081 0.0
O726 O 0.79563 0.53639 0.80619 0.0
C727 C 0.8216 0.50236 0.79249 0.0
O728 O 0.83145 0.50562 0.80278 0.0
H729 H 0.81983 0.55038 0.78687 0.0
H730 H 0.84723 0.53321 0.81578 0.0
N731 N 0.81271 0.51501 0.82178 0.0
N732 N 0.80598 0.497 0.83636 0.0
C733 C 0.80303 0.50268 0.82418 0.0
C734 C 0.82218 0.51733 0.83286 0.0
C735 C 0.81807 0.50615 0.84189 0.0
C736 C 0.79668 0.54475 0.81671 0.0
O737 O 0.80801 0.54468 0.82555 0.0
H738 H 0.79424 0.49775 0.81687 0.0
H739 H 0.83141 0.52642 0.83429 0.0
O740 O 0.81109 0.50993 0.79104 0.0
H741 H 0.86424 0.55497 0.80326 0.0
H742 H 0.82352 0.50489 0.85173 0.0
Cu743 Cu 0.29434 0.51023 0.75984 0.0
N744 N 0.31114 0.50086 0.7627 0.0
N745 N 0.32504 0.48455 0.77067 0.0
C746 C 0.31104 0.48764 0.76849 0.0
C747 C 0.33426 0.4963 0.76593 0.0
C748 C 0.32569 0.50629 0.76105 0.0
O749 O 0.27727 0.49503 0.75527 0.0
C750 C 0.29971 0.52217 0.78679 0.0
O751 O 0.30968 0.51351 0.78827 0.0
H752 H 0.30092 0.48077 0.77166 0.0
H753 H 0.32984 0.517 0.75706 0.0
N754 N 0.29611 0.524 0.74573 0.0
N755 N 0.29095 0.54251 0.73264 0.0
C756 C 0.28702 0.53396 0.74344 0.0
C757 C 0.30613 0.52627 0.73603 0.0
C758 C 0.303 0.53764 0.72798 0.0
C759 C 0.2774 0.48848 0.74392 0.0
O760 O 0.28863 0.49272 0.7361 0.0
H761 H 0.27781 0.535 0.74973 0.0
H762 H 0.31501 0.52003 0.73481 0.0
O763 O 0.29137 0.52134 0.77593 0.0
H764 H 0.34638 0.49772 0.76612 0.0
H765 H 0.30902 0.54181 0.71923 0.0
Cu766 Cu 0.29104 0.51284 0.26828 0.0
N767 N 0.27445 0.49788 0.26899 0.0
N768 N 0.2582 0.47968 0.27752 0.0
C769 C 0.269 0.49149 0.28034 0.0
C770 C 0.2566 0.47884 0.26383 0.0
C771 C 0.26666 0.49007 0.2586 0.0
O772 O 0.30893 0.50348 0.26804 0.0
C773 C 0.29706 0.53968 0.28447 0.0
O774 O 0.30865 0.54361 0.277 0.0
H775 H 0.27335 0.49512 0.29044 0.0
H776 H 0.26863 0.49198 0.248 0.0
N777 N 0.28975 0.52233 0.25173 0.0
N778 N 0.28999 0.54013 0.23648 0.0
C779 C 0.28873 0.53648 0.24967 0.0
C780 C 0.29146 0.51673 0.23942 0.0
C781 C 0.29158 0.52765 0.22999 0.0
C782 C 0.31023 0.49186 0.27456 0.0
O783 O 0.30069 0.48741 0.28388 0.0
H784 H 0.28784 0.54413 0.25776 0.0
H785 H 0.29308 0.50561 0.23753 0.0
O786 O 0.28949 0.52674 0.28305 0.0
H787 H 0.24932 0.47026 0.25798 0.0
H788 H 0.29317 0.52653 0.21926 0.0
Cu789 Cu 0.77516 0.49844 0.26509 0.0
N790 N 0.79258 0.49113 0.2707 0.0
N791 N 0.80684 0.47573 0.27978 0.0
C792 C 0.79284 0.47756 0.27554 0.0
C793 C 0.81571 0.4887 0.27741 0.0
C794 C 0.8069 0.49816 0.27188 0.0
O795 O 0.76186 0.4827 0.25535 0.0
C796 C 0.7728 0.50751 0.2923 0.0
O797 O 0.78266 0.49917 0.29573 0.0
H798 H 0.78287 0.46928 0.27614 0.0
H799 H 0.81062 0.50951 0.26934 0.0
N800 N 0.77863 0.5148 0.25374 0.0
N801 N 0.77407 0.53523 0.24334 0.0
C802 C 0.7688 0.52404 0.25154 0.0
C803 C 0.79061 0.52028 0.24669 0.0
C804 C 0.78784 0.53284 0.24027 0.0
C805 C 0.76579 0.47938 0.2437 0.0
O806 O 0.77802 0.48701 0.23898 0.0
H807 H 0.75792 0.52244 0.25588 0.0
H808 H 0.80067 0.51554 0.24628 0.0
O809 O 0.7663 0.50599 0.28051 0.0
H810 H 0.82764 0.49138 0.27996 0.0
H811 H 0.79553 0.53976 0.23401 0.0
Cu812 Cu 0.53886 0.26465 0.77298 0.0
N813 N 0.52787 0.26555 0.78855 0.0
N814 N 0.51092 0.27172 0.80238 0.0
C815 C 0.51534 0.27149 0.78946 0.0
C816 C 0.52108 0.26555 0.80979 0.0
C817 C 0.53149 0.26184 0.80128 0.0
O818 O 0.52498 0.26395 0.7573 0.0
C819 C 0.55376 0.29432 0.7773 0.0
O820 O 0.54082 0.29694 0.78117 0.0
H821 H 0.50997 0.27609 0.78088 0.0
H822 H 0.54125 0.25711 0.80423 0.0
N823 N 0.5486 0.2483 0.77259 0.0
N824 N 0.5644 0.23356 0.76634 0.0
C825 C 0.55931 0.2463 0.76408 0.0
C826 C 0.54681 0.23645 0.78054 0.0
C827 C 0.55649 0.22737 0.77673 0.0
C828 C 0.51669 0.2517 0.7542 0.0
O829 O 0.51834 0.24013 0.76136 0.0
H830 H 0.56315 0.25405 0.75631 0.0
H831 H 0.53903 0.23453 0.78855 0.0
O832 O 0.5547 0.28161 0.77287 0.0
H833 H 0.52113 0.2639 0.82064 0.0
H834 H 0.55772 0.21711 0.78145 0.0
Cu835 Cu 0.53618 0.78365 0.77698 0.0
N836 N 0.5499 0.78348 0.79192 0.0
N837 N 0.56837 0.7765 0.80494 0.0
C838 C 0.56115 0.77565 0.79253 0.0
C839 C 0.56138 0.78527 0.8124 0.0
C840 C 0.55003 0.78956 0.80437 0.0
O841 O 0.54757 0.78502 0.7608 0.0
C842 C 0.51409 0.7639 0.78788 0.0
O843 O 0.51727 0.77376 0.79771 0.0
H844 H 0.56357 0.76897 0.78416 0.0
H845 H 0.54213 0.79624 0.80753 0.0
N846 N 0.52542 0.79927 0.77724 0.0
N847 N 0.50769 0.81263 0.77147 0.0
C848 C 0.51276 0.79988 0.7696 0.0
C849 C 0.52851 0.81206 0.78422 0.0
C850 C 0.51763 0.8203 0.7807 0.0
C851 C 0.55593 0.79728 0.75876 0.0
O852 O 0.55603 0.80817 0.76738 0.0
H853 H 0.5076 0.79123 0.76256 0.0
H854 H 0.53813 0.8153 0.79121 0.0
O855 O 0.52143 0.76578 0.77718 0.0
H856 H 0.56416 0.78829 0.82297 0.0
H857 H 0.5171 0.8311 0.78468 0.0
Cu858 Cu 0.51635 0.7386 0.2802 0.0
N859 N 0.50001 0.7351 0.29158 0.0
N860 N 0.48044 0.73978 0.30306 0.0
C861 C 0.49306 0.74554 0.29677 0.0
C862 C 0.47949 0.72509 0.3017 0.0
C863 C 0.49144 0.72227 0.29459 0.0
O864 O 0.50763 0.74333 0.26272 0.0
C865 C 0.53484 0.75383 0.30041 0.0
O866 O 0.52807 0.74282 0.30742 0.0
H867 H 0.49708 0.75714 0.29562 0.0
H868 H 0.49334 0.71162 0.29131 0.0
N869 N 0.52702 0.7229 0.27854 0.0
N870 N 0.5449 0.71052 0.27225 0.0
C871 C 0.53813 0.72229 0.27 0.0
C872 C 0.52685 0.71117 0.28655 0.0
C873 C 0.53777 0.70352 0.28267 0.0
C874 C 0.50409 0.73371 0.25328 0.0
O875 O 0.50818 0.72086 0.2547 0.0
H876 H 0.54154 0.73065 0.26261 0.0
H877 H 0.51966 0.70861 0.29493 0.0
O878 O 0.53095 0.7547 0.2879 0.0
H879 H 0.47044 0.71689 0.30504 0.0
H880 H 0.54035 0.69363 0.2873 0.0
Cu881 Cu 0.53379 0.2547 0.26619 0.0
N882 N 0.51881 0.23949 0.27108 0.0
N883 N 0.49869 0.22829 0.28143 0.0
C884 C 0.5081 0.24105 0.27963 0.0
C885 C 0.50371 0.21831 0.27366 0.0
C886 C 0.51616 0.22525 0.2673 0.0
O887 O 0.52404 0.27218 0.26453 0.0
C888 C 0.55736 0.24353 0.27822 0.0
O889 O 0.55144 0.23339 0.2692 0.0
H890 H 0.50712 0.25146 0.28423 0.0
H891 H 0.5228 0.22026 0.26044 0.0
N892 N 0.54066 0.25109 0.24914 0.0
N893 N 0.55621 0.25295 0.23218 0.0
C894 C 0.55411 0.25733 0.24488 0.0
C895 C 0.534 0.24237 0.23879 0.0
C896 C 0.54355 0.2436 0.22823 0.0
C897 C 0.51377 0.27114 0.25497 0.0
O898 O 0.51089 0.25908 0.24753 0.0
H899 H 0.56212 0.26513 0.25095 0.0
H900 H 0.52295 0.23567 0.23885 0.0
O901 O 0.55117 0.25488 0.27927 0.0
H902 H 0.49886 0.20678 0.27273 0.0
H903 H 0.54144 0.23797 0.21848 0.0
H904 H 0.22161 0.14042 0.16054 0.0
H905 H 0.2362 0.15015 0.14134 0.0
H906 H 0.23575 0.19424 0.15534 0.0
H907 H 0.22162 0.18464 0.17475 0.0
H908 H 0.22863 0.16786 0.12067 0.0
H909 H 0.27996 0.19606 0.14924 0.0
H910 H 0.26587 0.18296 0.15701 0.0
H911 H 0.26307 0.20154 0.15453 0.0
C912 C 0.22482 0.15219 0.15969 0.0
C913 C 0.22041 0.1617 0.1693 0.0
C914 C 0.23309 0.15775 0.14861 0.0
C915 C 0.2373 0.17296 0.14692 0.0
C916 C 0.23294 0.18247 0.1565 0.0
H917 H 0.28319 0.22928 0.08568 0.0
H918 H 0.26972 0.21908 0.10529 0.0
C919 C 0.22466 0.17693 0.16755 0.0
C920 C 0.24578 0.17887 0.13491 0.0
H921 H 0.27783 0.20125 0.1257 0.0
C922 C 0.23943 0.17507 0.12178 0.0
C923 C 0.25988 0.18836 0.13628 0.0
C924 C 0.26769 0.19238 0.15001 0.0
C925 C 0.24659 0.18071 0.11009 0.0
C926 C 0.26067 0.19023 0.11146 0.0
C927 C 0.26704 0.19399 0.12458 0.0
C928 C 0.26896 0.1964 0.09943 0.0
C929 C 0.23875 0.17673 0.09636 0.0
C930 C 0.27328 0.18712 0.08961 0.0
C931 C 0.28092 0.19293 0.0783 0.0
C932 C 0.28456 0.20822 0.07651 0.0
C933 C 0.28042 0.21748 0.08651 0.0
C934 C 0.27278 0.21165 0.09782 0.0
H935 H 0.22652 0.17283 0.09715 0.0
H936 H 0.24037 0.18624 0.08946 0.0
H937 H 0.24352 0.16774 0.09171 0.0
H938 H 0.27078 0.17533 0.09071 0.0
H939 H 0.28379 0.18538 0.07087 0.0
H940 H 0.89508 0.20442 0.11416 0.0
H941 H 0.89173 0.22532 0.0997 0.0
H942 H 0.84778 0.20252 0.08591 0.0
H943 H 0.8511 0.18177 0.10041 0.0
H944 H 0.88574 0.22509 0.07101 0.0
H945 H 0.84004 0.24278 0.09882 0.0
H946 H 0.85185 0.23071 0.10609 0.0
H947 H 0.83667 0.22368 0.09407 0.0
C948 C 0.88474 0.20398 0.10803 0.0
C949 C 0.87331 0.19167 0.10829 0.0
C950 C 0.88283 0.21585 0.09981 0.0
C951 C 0.86942 0.21552 0.09191 0.0
C952 C 0.85808 0.20309 0.09213 0.0
H953 H 0.8352 0.2739 0.03457 0.0
H954 H 0.83891 0.25339 0.04917 0.0
C955 C 0.86 0.19125 0.10031 0.0
C956 C 0.86737 0.22799 0.08315 0.0
H957 H 0.8452 0.25382 0.07752 0.0
C958 C 0.87695 0.23145 0.07247 0.0
C959 C 0.85583 0.23618 0.08507 0.0
C960 C 0.84557 0.23327 0.0967 0.0
C961 C 0.87511 0.24274 0.06345 0.0
C962 C 0.86356 0.25092 0.06536 0.0
C963 C 0.854 0.24748 0.07607 0.0
C964 C 0.86136 0.26326 0.05648 0.0
C965 C 0.88533 0.2456 0.05179 0.0
C966 C 0.87267 0.27565 0.05592 0.0
C967 C 0.87061 0.28734 0.0476 0.0
C968 C 0.85713 0.28691 0.03975 0.0
C969 C 0.84572 0.27455 0.04045 0.0
C970 C 0.84782 0.26283 0.04879 0.0
H971 H 0.89084 0.23606 0.04968 0.0
H972 H 0.87904 0.24815 0.04241 0.0
H973 H 0.89427 0.25517 0.05439 0.0
H974 H 0.88308 0.27633 0.06199 0.0
H975 H 0.87958 0.29674 0.04737 0.0
H976 H 0.8279 0.83087 0.16188 0.0
H977 H 0.81793 0.82041 0.13978 0.0
H978 H 0.86298 0.82327 0.12662 0.0
H979 H 0.87305 0.83367 0.14882 0.0
H980 H 0.8206 0.83236 0.11487 0.0
H981 H 0.84511 0.78152 0.11574 0.0
H982 H 0.845 0.7928 0.1307 0.0
H983 H 0.85876 0.79798 0.1183 0.0
C984 C 0.83572 0.82925 0.15431 0.0
C985 C 0.85131 0.83315 0.15717 0.0
C986 C 0.82998 0.82323 0.14165 0.0
C987 C 0.83965 0.82087 0.1315 0.0
C988 C 0.85525 0.82464 0.13434 0.0
H989 H 0.82261 0.78674 0.04805 0.0
H990 H 0.83396 0.79897 0.06909 0.0
C991 C 0.86101 0.83062 0.14706 0.0
C992 C 0.83331 0.81494 0.11786 0.0
H993 H 0.83285 0.78684 0.09504 0.0
C994 C 0.82327 0.82238 0.11057 0.0
C995 C 0.83677 0.80193 0.11216 0.0
C996 C 0.84689 0.793 0.11967 0.0
C997 C 0.81672 0.81727 0.09777 0.0
C998 C 0.82011 0.80423 0.09212 0.0
C999 C 0.83027 0.79686 0.09933 0.0
C1000 C 0.813 0.79781 0.07891 0.0
C1001 C 0.80639 0.82602 0.09033 0.0
C1002 C 0.79738 0.79319 0.0773 0.0
C1003 C 0.79082 0.78619 0.06524 0.0
C1004 C 0.79973 0.7836 0.0545 0.0
C1005 C 0.81534 0.7886 0.05603 0.0
C1006 C 0.82189 0.79555 0.06811 0.0
H1007 H 0.80814 0.83754 0.09414 0.0
H1008 H 0.80807 0.82607 0.07925 0.0
H1009 H 0.79457 0.82096 0.09189 0.0
H1010 H 0.79027 0.79455 0.08554 0.0
H1011 H 0.77879 0.7824 0.06453 0.0
H1012 H 0.2235 0.75391 0.14969 0.0
H1013 H 0.22131 0.7439 0.12645 0.0
H1014 H 0.18042 0.7611 0.11886 0.0
H1015 H 0.18278 0.77134 0.14213 0.0
H1016 H 0.19865 0.72469 0.11091 0.0
H1017 H 0.2087 0.78147 0.09078 0.0
H1018 H 0.21168 0.77775 0.10854 0.0
H1019 H 0.19296 0.77682 0.10126 0.0
C1020 C 0.21391 0.75527 0.1431 0.0
C1021 C 0.2033 0.76331 0.14751 0.0
C1022 C 0.21265 0.74957 0.12988 0.0
C1023 C 0.20081 0.75193 0.1209 0.0
C1024 C 0.18974 0.75934 0.12558 0.0
H1025 H 0.20351 0.7416 0.03263 0.0
H1026 H 0.19296 0.74408 0.05474 0.0
C1027 C 0.19103 0.76508 0.13884 0.0
C1028 C 0.20093 0.74768 0.10642 0.0
H1029 H 0.20764 0.76218 0.07515 0.0
C1030 C 0.2004 0.73285 0.10303 0.0
C1031 C 0.20317 0.75836 0.09618 0.0
C1032 C 0.20428 0.77451 0.09931 0.0
C1033 C 0.20256 0.72846 0.08974 0.0
C1034 C 0.20556 0.73923 0.07967 0.0
C1035 C 0.20531 0.75395 0.0829 0.0
C1036 C 0.21064 0.7358 0.06617 0.0
C1037 C 0.20187 0.71238 0.08665 0.0
C1038 C 0.22399 0.73023 0.06527 0.0
C1039 C 0.23001 0.7288 0.0527 0.0
C1040 C 0.22286 0.73301 0.04076 0.0
C1041 C 0.20921 0.73813 0.04162 0.0
C1042 C 0.2032 0.7396 0.05424 0.0
H1043 H 0.19466 0.70542 0.09373 0.0
H1044 H 0.19751 0.70952 0.07607 0.0
H1045 H 0.21334 0.70973 0.08793 0.0
H1046 H 0.2301 0.72753 0.07436 0.0
H1047 H 0.24044 0.72467 0.05235 0.0
H1048 H 0.22769 0.80136 0.87901 0.0
H1049 H 0.24024 0.7976 0.90103 0.0
H1050 H 0.22249 0.83346 0.91837 0.0
H1051 H 0.20979 0.83711 0.89632 0.0
H1052 H 0.26105 0.81663 0.91932 0.0
H1053 H 0.20552 0.79741 0.94094 0.0
H1054 H 0.20764 0.79938 0.92293 0.0
H1055 H 0.20828 0.81531 0.93356 0.0
C1056 C 0.22672 0.80857 0.8875 0.0
C1057 C 0.21785 0.81948 0.88615 0.0
C1058 C 0.23388 0.80644 0.90003 0.0
C1059 C 0.23214 0.81514 0.91134 0.0
C1060 C 0.22381 0.82653 0.90979 0.0
H1061 H 0.25144 0.79204 0.99556 0.0
H1062 H 0.24601 0.80683 0.97605 0.0
C1063 C 0.21665 0.82865 0.89724 0.0
C1064 C 0.23807 0.81145 0.9249 0.0
H1065 H 0.22692 0.79624 0.95493 0.0
C1066 C 0.25362 0.81233 0.92719 0.0
C1067 C 0.22834 0.80589 0.93514 0.0
C1068 C 0.2115 0.80431 0.93307 0.0
C1069 C 0.25969 0.80747 0.93937 0.0
C1070 C 0.2499 0.80131 0.94936 0.0
C1071 C 0.23441 0.801 0.94727 0.0
C1072 C 0.25519 0.7938 0.96142 0.0
C1073 C 0.2765 0.80886 0.94135 0.0
C1074 C 0.2623 0.78167 0.95969 0.0
C1075 C 0.26543 0.77322 0.97079 0.0
C1076 C 0.26136 0.77664 0.98385 0.0
C1077 C 0.25472 0.7891 0.98565 0.0
C1078 C 0.25161 0.79757 0.97451 0.0
H1079 H 0.28238 0.81806 0.93539 0.0
H1080 H 0.28027 0.81065 0.95222 0.0
H1081 H 0.27989 0.79862 0.93773 0.0
H1082 H 0.26483 0.77831 0.94966 0.0
H1083 H 0.27053 0.76368 0.96903 0.0
H1084 H 0.25263 0.19369 0.89752 0.0
H1085 H 0.25983 0.20443 0.92003 0.0
H1086 H 0.21484 0.21257 0.92403 0.0
H1087 H 0.20725 0.20094 0.90187 0.0
H1088 H 0.26092 0.23089 0.93011 0.0
H1089 H 0.22072 0.19269 0.95916 0.0
H1090 H 0.22377 0.18945 0.94157 0.0
H1091 H 0.21163 0.20194 0.94614 0.0
C1092 C 0.24413 0.19747 0.90325 0.0
C1093 C 0.22925 0.19619 0.8978 0.0
C1094 C 0.24834 0.20379 0.91612 0.0
C1095 C 0.23785 0.20911 0.92395 0.0
C1096 C 0.2231 0.20823 0.91842 0.0
H1097 H 0.26856 0.26691 0.99501 0.0
H1098 H 0.25745 0.25723 0.97292 0.0
C1099 C 0.21882 0.20175 0.90559 0.0
C1100 C 0.24252 0.21574 0.93774 0.0
H1101 H 0.2344 0.21342 0.97126 0.0
C1102 C 0.2551 0.22705 0.9391 0.0
C1103 C 0.23511 0.21066 0.94957 0.0
C1104 C 0.22216 0.19792 0.9491 0.0
C1105 C 0.26046 0.23335 0.95184 0.0
C1106 C 0.25278 0.22857 0.96361 0.0
C1107 C 0.24019 0.21727 0.96226 0.0
C1108 C 0.25813 0.23452 0.9775 0.0
C1109 C 0.27467 0.24469 0.95257 0.0
C1110 C 0.26142 0.22498 0.9878 0.0
C1111 C 0.26749 0.23046 1.00054 0.0
C1112 C 0.27048 0.24566 1.00334 0.0
C1113 C 0.26651 0.25516 0.99323 0.0
C1114 C 0.2603 0.24964 0.9805 0.0
H1115 H 0.28134 0.24413 0.9435 0.0
H1116 H 0.2717 0.2558 0.95303 0.0
H1117 H 0.28184 0.24327 0.96177 0.0
H1118 H 0.25977 0.21326 0.98584 0.0
H1119 H 0.27039 0.22277 1.00803 0.0
H1120 H 0.85497 0.22912 0.87351 0.0
H1121 H 0.86005 0.25025 0.88933 0.0
H1122 H 0.87568 0.22293 0.92026 0.0
H1123 H 0.87075 0.2019 0.90439 0.0
H1124 H 0.84671 0.252 0.91345 0.0
H1125 H 0.90838 0.25937 0.92276 0.0
H1126 H 0.89859 0.24869 0.90859 0.0
H1127 H 0.89917 0.24085 0.92521 0.0
C1128 C 0.85969 0.22776 0.88364 0.0
C1129 C 0.86254 0.21404 0.88783 0.0
C1130 C 0.8626 0.23979 0.89264 0.0
C1131 C 0.86848 0.23823 0.90591 0.0
C1132 C 0.87151 0.22449 0.90999 0.0
H1133 H 0.85999 0.27935 0.98096 0.0
H1134 H 0.86139 0.26371 0.96126 0.0
C1135 C 0.86859 0.21248 0.90098 0.0
C1136 C 0.87017 0.25056 0.91588 0.0
H1137 H 0.89492 0.27063 0.93911 0.0
C1138 C 0.85731 0.25624 0.91889 0.0
C1139 C 0.88402 0.25617 0.92292 0.0
C1140 C 0.89836 0.25106 0.91962 0.0
C1141 C 0.85778 0.26683 0.9292 0.0
C1142 C 0.87143 0.27181 0.93673 0.0
C1143 C 0.88445 0.26669 0.93334 0.0
C1144 C 0.8719 0.28136 0.94887 0.0
C1145 C 0.84358 0.27234 0.93229 0.0
C1146 C 0.8777 0.29642 0.9485 0.0
C1147 C 0.87679 0.30548 0.95976 0.0
C1148 C 0.87006 0.29956 0.97153 0.0
C1149 C 0.86491 0.28433 0.97198 0.0
C1150 C 0.86579 0.27535 0.96076 0.0
H1151 H 0.83471 0.26952 0.92403 0.0
H1152 H 0.83923 0.2673 0.9418 0.0
H1153 H 0.8459 0.28443 0.93388 0.0
H1154 H 0.88248 0.30122 0.93937 0.0
H1155 H 0.88081 0.31715 0.95908 0.0
H1156 H 0.86124 0.84346 0.88925 0.0
H1157 H 0.85518 0.83095 0.91055 0.0
H1158 H 0.85804 0.78952 0.89165 0.0
H1159 H 0.86381 0.80193 0.87017 0.0
H1160 H 0.8324 0.78856 0.90685 0.0
H1161 H 0.88384 0.8139 0.93704 0.0
H1162 H 0.87399 0.8269 0.92877 0.0
H1163 H 0.88234 0.81452 0.91873 0.0
C1164 C 0.86054 0.83167 0.88957 0.0
C1165 C 0.86304 0.82373 0.87793 0.0
C1166 C 0.85721 0.82454 0.90183 0.0
C1167 C 0.85634 0.80929 0.9028 0.0
C1168 C 0.85875 0.8013 0.8912 0.0
H1169 H 0.85228 0.76001 0.97853 0.0
H1170 H 0.85928 0.77086 0.95674 0.0
C1171 C 0.86215 0.80844 0.87894 0.0
C1172 C 0.85254 0.80167 0.91582 0.0
H1173 H 0.86414 0.80043 0.9493 0.0
C1174 C 0.83938 0.79111 0.91612 0.0
C1175 C 0.86172 0.80485 0.9279 0.0
C1176 C 0.87634 0.81556 0.92813 0.0
C1177 C 0.83497 0.78393 0.92819 0.0
C1178 C 0.84387 0.78749 0.94039 0.0
C1179 C 0.85723 0.79778 0.94001 0.0
C1180 C 0.83947 0.78074 0.95365 0.0
C1181 C 0.82088 0.77248 0.92776 0.0
C1182 C 0.82607 0.78277 0.95932 0.0
C1183 C 0.82205 0.77666 0.97187 0.0
C1184 C 0.83136 0.76835 0.97914 0.0
C1185 C 0.84483 0.7664 0.9734 0.0
C1186 C 0.84885 0.77257 0.96086 0.0
H1187 H 0.8176 0.76826 0.91727 0.0
H1188 H 0.82235 0.7631 0.93435 0.0
H1189 H 0.81153 0.77743 0.93152 0.0
H1190 H 0.81878 0.7893 0.95413 0.0
H1191 H 0.81175 0.77873 0.97593 0.0
H1192 H 0.17019 0.18334 0.22914 0.0
H1193 H 0.14914 0.18914 0.24162 0.0
H1194 H 0.11963 0.15285 0.22151 0.0
H1195 H 0.14075 0.14703 0.20909 0.0
H1196 H 0.12341 0.19705 0.22953 0.0
H1197 H 0.10796 0.14785 0.261 0.0
H1198 H 0.12581 0.15209 0.25324 0.0
H1199 H 0.10925 0.1439 0.24329 0.0
C1200 C 0.15929 0.17634 0.22773 0.0
C1201 C 0.15713 0.16456 0.21839 0.0
C1202 C 0.14724 0.17973 0.23477 0.0
C1203 C 0.13275 0.17137 0.23266 0.0
C1204 C 0.1307 0.1593 0.22358 0.0
H1205 H 0.04326 0.17865 0.25699 0.0
H1206 H 0.06544 0.17135 0.24785 0.0
C1207 C 0.14278 0.15595 0.21649 0.0
C1208 C 0.11966 0.176 0.23909 0.0
H1209 H 0.09079 0.16453 0.25974 0.0
C1210 C 0.11635 0.18998 0.23622 0.0
C1211 C 0.11034 0.16677 0.24776 0.0
C1212 C 0.11355 0.15186 0.25163 0.0
C1213 C 0.10386 0.19483 0.24148 0.0
C1214 C 0.09453 0.18561 0.25019 0.0
C1215 C 0.09789 0.17165 0.25311 0.0
C1216 C 0.08105 0.1901 0.2561 0.0
C1217 C 0.10052 0.2096 0.23726 0.0
C1218 C 0.0823 0.203 0.26401 0.0
C1219 C 0.06955 0.20725 0.26926 0.0
C1220 C 0.05522 0.19861 0.2669 0.0
C1221 C 0.05406 0.18555 0.25919 0.0
C1222 C 0.06679 0.18136 0.25389 0.0
H1223 H 0.10597 0.21334 0.22775 0.0
H1224 H 0.08825 0.20932 0.23569 0.0
H1225 H 0.10493 0.21784 0.24535 0.0
H1226 H 0.09318 0.20978 0.26622 0.0
H1227 H 0.07097 0.21723 0.27532 0.0
H1228 H 0.8383 0.14801 0.15568 0.0
H1229 H 0.82197 0.12928 0.16802 0.0
H1230 H 0.85924 0.12457 0.19562 0.0
H1231 H 0.87568 0.14316 0.18327 0.0
H1232 H 0.82573 0.10009 0.17205 0.0
H1233 H 0.82596 0.12988 0.22106 0.0
H1234 H 0.83188 0.13903 0.20563 0.0
H1235 H 0.84435 0.1294 0.21527 0.0
C1236 C 0.84302 0.14297 0.16437 0.0
C1237 C 0.85829 0.14708 0.16851 0.0
C1238 C 0.83366 0.13234 0.17144 0.0
C1239 C 0.83936 0.12571 0.18283 0.0
C1240 C 0.85455 0.1298 0.18703 0.0
H1241 H 0.8104 0.05537 0.23646 0.0
H1242 H 0.82334 0.07613 0.2241 0.0
C1243 C 0.86393 0.14042 0.17996 0.0
C1244 C 0.8296 0.11397 0.18992 0.0
H1245 H 0.81617 0.10425 0.22087 0.0
C1246 C 0.82349 0.10103 0.18268 0.0
C1247 C 0.82671 0.11529 0.20378 0.0
C1248 C 0.83244 0.1292 0.21188 0.0
C1249 C 0.81501 0.0891 0.18908 0.0
C1250 C 0.81239 0.0903 0.20302 0.0
C1251 C 0.81823 0.10337 0.21019 0.0
C1252 C 0.80423 0.07787 0.21054 0.0
C1253 C 0.80942 0.07514 0.18101 0.0
C1254 C 0.78912 0.07208 0.2071 0.0
C1255 C 0.78165 0.06019 0.21419 0.0
C1256 C 0.78913 0.054 0.22492 0.0
C1257 C 0.80422 0.05998 0.2284 0.0
C1258 C 0.81167 0.07181 0.2213 0.0
H1259 H 0.81516 0.07492 0.17134 0.0
H1260 H 0.81113 0.0654 0.187 0.0
H1261 H 0.79722 0.07425 0.17851 0.0
H1262 H 0.7831 0.07679 0.19898 0.0
H1263 H 0.76997 0.05598 0.21139 0.0
H1264 H 0.89928 0.86006 0.20447 0.0
H1265 H 0.92048 0.85161 0.21655 0.0
H1266 H 0.90073 0.8068 0.20639 0.0
H1267 H 0.87966 0.81514 0.1943 0.0
H1268 H 0.92219 0.83364 0.2382 0.0
H1269 H 0.94238 0.80845 0.19323 0.0
H1270 H 0.92862 0.82035 0.19183 0.0
H1271 H 0.92308 0.80135 0.19604 0.0
C1272 C 0.89942 0.84841 0.20485 0.0
C1273 C 0.88781 0.83832 0.19822 0.0
C1274 C 0.91159 0.84358 0.21173 0.0
C1275 C 0.91246 0.82856 0.21214 0.0
C1276 C 0.90065 0.81847 0.20589 0.0
H1277 H 0.97367 0.77552 0.24948 0.0
H1278 H 0.95279 0.7847 0.23785 0.0
C1279 C 0.88854 0.82327 0.19897 0.0
C1280 C 0.92556 0.82339 0.21923 0.0
H1281 H 0.95304 0.80294 0.21474 0.0
C1282 C 0.92899 0.82702 0.23303 0.0
C1283 C 0.93451 0.81473 0.21254 0.0
C1284 C 0.93208 0.8111 0.19756 0.0
C1285 C 0.94082 0.82197 0.24036 0.0
C1286 C 0.94963 0.81317 0.2337 0.0
C1287 C 0.94626 0.8096 0.21989 0.0
C1288 C 0.96244 0.80763 0.24084 0.0
C1289 C 0.94355 0.8258 0.25527 0.0
C1290 C 0.975 0.81741 0.24626 0.0
C1291 C 0.98708 0.8122 0.25284 0.0
C1292 C 0.98697 0.79702 0.25418 0.0
C1293 C 0.97437 0.78725 0.24862 0.0
C1294 C 0.96232 0.79249 0.24198 0.0
H1295 H 0.93371 0.82947 0.25958 0.0
H1296 H 0.94617 0.81627 0.2611 0.0
H1297 H 0.9533 0.83488 0.25665 0.0
H1298 H 0.97556 0.82913 0.24527 0.0
H1299 H 0.99659 0.82014 0.2567 0.0
H1300 H 0.21957 0.83182 0.17343 0.0
H1301 H 0.23134 0.85669 0.18054 0.0
H1302 H 0.20389 0.85368 0.21521 0.0
H1303 H 0.19263 0.82856 0.20859 0.0
H1304 H 0.21928 0.88122 0.18393 0.0
H1305 H 0.24533 0.86655 0.23285 0.0
H1306 H 0.23744 0.85298 0.22005 0.0
H1307 H 0.22543 0.86018 0.23136 0.0
C1308 C 0.21619 0.83635 0.18268 0.0
C1309 C 0.20524 0.82812 0.1905 0.0
C1310 C 0.22285 0.85062 0.18667 0.0
C1311 C 0.21869 0.85694 0.19854 0.0
C1312 C 0.20752 0.8489 0.20618 0.0
H1313 H 0.2389 0.94261 0.23671 0.0
H1314 H 0.22763 0.91808 0.22839 0.0
C1315 C 0.20094 0.8346 0.20227 0.0
C1316 C 0.2259 0.87201 0.20282 0.0
H1317 H 0.24535 0.89199 0.22929 0.0
C1318 C 0.22507 0.88356 0.19381 0.0
C1319 C 0.23354 0.87502 0.21569 0.0
C1320 C 0.23564 0.86301 0.22549 0.0
C1321 C 0.23138 0.8981 0.19746 0.0
C1322 C 0.23866 0.90109 0.21042 0.0
C1323 C 0.23964 0.88958 0.21938 0.0
C1324 C 0.24529 0.91616 0.21494 0.0
C1325 C 0.23002 0.91023 0.1876 0.0
C1326 C 0.25895 0.92314 0.21009 0.0
C1327 C 0.26558 0.93711 0.21496 0.0
C1328 C 0.25862 0.94435 0.22477 0.0
C1329 C 0.24475 0.93733 0.22938 0.0
C1330 C 0.23821 0.92334 0.22457 0.0
H1331 H 0.22263 0.90629 0.17851 0.0
H1332 H 0.2255 0.91915 0.19266 0.0
H1333 H 0.24132 0.91498 0.18422 0.0
H1334 H 0.26461 0.91766 0.20272 0.0
H1335 H 0.27631 0.94203 0.21127 0.0
H1336 H 0.15937 0.86015 0.83527 0.0
H1337 H 0.13665 0.85606 0.82014 0.0
H1338 H 0.14914 0.81657 0.80447 0.0
H1339 H 0.17178 0.82055 0.81957 0.0
H1340 H 0.13209 0.8527 0.79167 0.0
H1341 H 0.10738 0.80232 0.81836 0.0
H1342 H 0.1234 0.81501 0.82538 0.0
H1343 H 0.12574 0.80183 0.81254 0.0
C1344 C 0.15733 0.85068 0.8285 0.0
C1345 C 0.16725 0.84057 0.82872 0.0
C1346 C 0.14436 0.84835 0.81989 0.0
C1347 C 0.1411 0.83588 0.81138 0.0
C1348 C 0.15128 0.82609 0.81119 0.0
H1349 H 0.07252 0.79893 0.75193 0.0
H1350 H 0.09635 0.80946 0.76378 0.0
C1351 C 0.1642 0.82836 0.81983 0.0
C1352 C 0.12683 0.83281 0.803 0.0
H1353 H 0.09499 0.80724 0.79751 0.0
C1354 C 0.12392 0.84282 0.79299 0.0
C1355 C 0.11614 0.81997 0.80486 0.0
C1356 C 0.11821 0.80923 0.81595 0.0
C1357 C 0.11076 0.84006 0.7845 0.0
C1358 C 0.10037 0.82703 0.78613 0.0
C1359 C 0.10312 0.81718 0.79628 0.0
C1360 C 0.08656 0.82313 0.77733 0.0
C1361 C 0.10803 0.85087 0.77372 0.0
C1362 C 0.07329 0.8277 0.78083 0.0
C1363 C 0.0596 0.82168 0.77411 0.0
C1364 C 0.05902 0.81092 0.76387 0.0
C1365 C 0.07254 0.80714 0.75981 0.0
C1366 C 0.08618 0.81315 0.76654 0.0
H1367 H 0.11729 0.86048 0.77364 0.0
H1368 H 0.10677 0.84536 0.76359 0.0
H1369 H 0.09737 0.85481 0.77543 0.0
H1370 H 0.07342 0.83534 0.78923 0.0
H1371 H 0.04942 0.82485 0.77748 0.0
H1372 H 0.21349 0.14538 0.85309 0.0
H1373 H 0.225 0.12564 0.84401 0.0
H1374 H 0.26827 0.14696 0.86076 0.0
H1375 H 0.25681 0.16679 0.86991 0.0
H1376 H 0.24642 0.12722 0.82543 0.0
H1377 H 0.26735 0.10532 0.87351 0.0
H1378 H 0.25411 0.11779 0.87309 0.0
H1379 H 0.27378 0.12462 0.87152 0.0
C1380 C 0.22547 0.14589 0.85488 0.0
C1381 C 0.2342 0.15775 0.86224 0.0
C1382 C 0.23203 0.13454 0.8497 0.0
C1383 C 0.24751 0.13465 0.85179 0.0
C1384 C 0.25626 0.14639 0.85925 0.0
H1385 H 0.30804 0.07855 0.82332 0.0
H1386 H 0.29673 0.09782 0.8336 0.0
C1387 C 0.24968 0.15776 0.86448 0.0
C1388 C 0.25447 0.12281 0.84563 0.0
H1389 H 0.27531 0.09613 0.85308 0.0
C1390 C 0.25266 0.12038 0.83151 0.0
C1391 C 0.26269 0.11386 0.8535 0.0
C1392 C 0.26451 0.1154 0.86876 0.0
C1393 C 0.25899 0.10949 0.82505 0.0
C1394 C 0.26718 0.10052 0.83291 0.0
C1395 C 0.26904 0.10297 0.84703 0.0
C1396 C 0.27397 0.08862 0.82667 0.0
C1397 C 0.25715 0.10792 0.80979 0.0
C1398 C 0.26496 0.07685 0.81946 0.0
C1399 C 0.27141 0.06578 0.81354 0.0
C1400 C 0.28703 0.06616 0.81474 0.0
C1401 C 0.29599 0.07788 0.82212 0.0
C1402 C 0.28953 0.08893 0.82804 0.0
H1403 H 0.25415 0.11793 0.80503 0.0
H1404 H 0.26759 0.10566 0.80544 0.0
H1405 H 0.24798 0.09859 0.80705 0.0
H1406 H 0.2529 0.07617 0.81847 0.0
H1407 H 0.26414 0.05691 0.80802 0.0
H1408 H 0.89372 0.19969 0.82021 0.0
H1409 H 0.91826 0.21283 0.81433 0.0
H1410 H 0.93233 0.21756 0.85681 0.0
H1411 H 0.90792 0.20384 0.86278 0.0
H1412 H 0.93286 0.24051 0.82109 0.0
H1413 H 0.96537 0.1989 0.84106 0.0
H1414 H 0.94516 0.19528 0.83879 0.0
H1415 H 0.95417 0.20581 0.85324 0.0
C1416 C 0.90207 0.20343 0.82831 0.0
C1417 C 0.89896 0.20055 0.84195 0.0
C1418 C 0.91605 0.21101 0.82494 0.0
C1419 C 0.9272 0.21589 0.83512 0.0
C1420 C 0.92398 0.21357 0.84879 0.0
H1421 H 0.01652 0.26692 0.83036 0.0
H1422 H 0.99321 0.25261 0.83803 0.0
C1423 C 0.90997 0.20592 0.85219 0.0
C1424 C 0.94216 0.22339 0.83129 0.0
H1425 H 0.97936 0.22079 0.83272 0.0
C1426 C 0.94302 0.23619 0.82362 0.0
C1427 C 0.95538 0.21768 0.83458 0.0
C1428 C 0.95503 0.2036 0.84227 0.0
C1429 C 0.95677 0.24349 0.81919 0.0
C1430 C 0.96994 0.23775 0.82244 0.0
C1431 C 0.96916 0.22507 0.83024 0.0
C1432 C 0.98464 0.24498 0.81791 0.0
C1433 C 0.95716 0.25737 0.81117 0.0
C1434 C 0.98767 0.24497 0.80411 0.0
C1435 C 1.001 0.25307 0.79968 0.0
C1436 C 1.01144 0.26134 0.80901 0.0
C1437 C 1.00865 0.26073 0.82292 0.0
C1438 C 0.99537 0.25257 0.82733 0.0
H1439 H 0.94653 0.26175 0.81161 0.0
H1440 H 0.96662 0.26595 0.81502 0.0
H1441 H 0.95895 0.25504 0.80038 0.0
H1442 H 0.97952 0.23903 0.79673 0.0
H1443 H 1.00282 0.2533 0.78891 0.0
H1444 H 0.82821 0.86568 0.816 0.0
H1445 H 0.81858 0.88476 0.80279 0.0
H1446 H 0.85757 0.91623 0.81626 0.0
H1447 H 0.86722 0.89709 0.82941 0.0
H1448 H 0.81145 0.91019 0.81403 0.0
H1449 H 0.85401 0.92462 0.77559 0.0
H1450 H 0.85234 0.90784 0.78507 0.0
H1451 H 0.86158 0.92488 0.7928 0.0
C1452 C 0.83494 0.87657 0.81576 0.0
C1453 C 0.84861 0.87986 0.82345 0.0
C1454 C 0.82937 0.8875 0.80832 0.0
C1455 C 0.83737 0.90197 0.80838 0.0
C1456 C 0.8513 0.90514 0.81578 0.0
H1457 H 0.8183 0.98455 0.775 0.0
H1458 H 0.8291 0.96547 0.78701 0.0
C1459 C 0.85684 0.89419 0.82327 0.0
C1460 C 0.83058 0.91388 0.80163 0.0
H1461 H 0.83601 0.94022 0.77732 0.0
C1462 C 0.8168 0.9167 0.80595 0.0
C1463 C 0.83757 0.92251 0.79116 0.0
C1464 C 0.85213 0.91978 0.78577 0.0
C1465 C 0.80994 0.92796 0.80026 0.0
C1466 C 0.81684 0.93651 0.78968 0.0
C1467 C 0.83067 0.93373 0.7854 0.0
C1468 C 0.80987 0.9483 0.78286 0.0
C1469 C 0.79556 0.93083 0.80594 0.0
C1470 C 0.79539 0.94514 0.77649 0.0
C1471 C 0.78911 0.95608 0.7697 0.0
C1472 C 0.79721 0.97048 0.76895 0.0
C1473 C 0.81167 0.97364 0.77541 0.0
C1474 C 0.81791 0.9627 0.78225 0.0
H1475 H 0.79426 0.92662 0.81641 0.0
H1476 H 0.7951 0.94273 0.80611 0.0
H1477 H 0.78588 0.9251 0.79948 0.0
H1478 H 0.78904 0.93409 0.77649 0.0
H1479 H 0.77804 0.95314 0.76472 0.0
H1480 H 0.21238 0.11298 0.18715 0.0
H1481 H 0.21941 0.09163 0.19843 0.0
H1482 H 0.21074 0.10917 0.2372 0.0
H1483 H 0.20399 0.1309 0.226 0.0
H1484 H 0.24353 0.09323 0.21954 0.0
H1485 H 0.18828 0.0652 0.23665 0.0
H1486 H 0.18975 0.07823 0.22301 0.0
H1487 H 0.1938 0.08455 0.24023 0.0
C1488 C 0.212 0.11241 0.19809 0.0
C1489 C 0.20776 0.12386 0.20563 0.0
C1490 C 0.21594 0.10009 0.20453 0.0
C1491 C 0.21557 0.09871 0.21867 0.0
C1492 C 0.21095 0.10987 0.22626 0.0
H1493 H 0.24494 0.02569 0.26551 0.0
H1494 H 0.23402 0.0478 0.26027 0.0
C1495 C 0.20706 0.1223 0.21981 0.0
C1496 C 0.2209 0.08596 0.22533 0.0
H1497 H 0.20907 0.05348 0.2412 0.0
C1498 C 0.236 0.08462 0.22438 0.0
C1499 C 0.21115 0.07476 0.2318 0.0
C1500 C 0.1948 0.07561 0.23299 0.0
C1501 C 0.24153 0.0723 0.22937 0.0
C1502 C 0.23164 0.06073 0.23522 0.0
C1503 C 0.21665 0.0623 0.23669 0.0
C1504 C 0.23652 0.0465 0.23861 0.0
C1505 C 0.25795 0.07168 0.22817 0.0
C1506 C 0.24098 0.03812 0.22819 0.0
C1507 C 0.24715 0.02562 0.23114 0.0
C1508 C 0.24894 0.02101 0.2446 0.0
C1509 C 0.24365 0.02889 0.25504 0.0
C1510 C 0.23748 0.04155 0.25205 0.0
H1511 H 0.26474 0.08282 0.22726 0.0
H1512 H 0.26247 0.06626 0.23708 0.0
H1513 H 0.2593 0.06526 0.21892 0.0
H1514 H 0.2401 0.0415 0.21772 0.0
H1515 H 0.25094 0.01977 0.22281 0.0
H1516 H 0.19452 0.88525 0.85175 0.0
H1517 H 0.21102 0.90912 0.85066 0.0
H1518 H 0.24945 0.88764 0.84917 0.0
H1519 H 0.23301 0.86368 0.85002 0.0
H1520 H 0.23833 0.92285 0.86711 0.0
H1521 H 0.24767 0.91123 0.81302 0.0
H1522 H 0.23251 0.90083 0.82193 0.0
H1523 H 0.25136 0.89775 0.8252 0.0
C1524 C 0.2065 0.88562 0.8513 0.0
C1525 C 0.21246 0.8726 0.85082 0.0
C1526 C 0.21591 0.89925 0.85078 0.0
C1527 C 0.2314 0.90009 0.8497 0.0
C1528 C 0.23749 0.88717 0.84991 0.0
H1529 H 0.29703 0.98138 0.84326 0.0
H1530 H 0.28431 0.95754 0.85102 0.0
C1531 C 0.2281 0.87352 0.85048 0.0
C1532 C 0.24089 0.91439 0.84716 0.0
H1533 H 0.25922 0.93419 0.82209 0.0
C1534 C 0.24305 0.92533 0.85734 0.0
C1535 C 0.24686 0.91755 0.83433 0.0
C1536 C 0.24445 0.9063 0.82292 0.0
C1537 C 0.25095 0.93947 0.85494 0.0
C1538 C 0.25675 0.94264 0.84206 0.0
C1539 C 0.25478 0.93164 0.83197 0.0
C1540 C 0.26405 0.95755 0.83845 0.0
C1541 C 0.25263 0.95108 0.86597 0.0
C1542 C 0.25679 0.96543 0.82891 0.0
C1543 C 0.26395 0.97903 0.82453 0.0
C1544 C 0.2786 0.98498 0.82949 0.0
C1545 C 0.28571 0.9772 0.83932 0.0
C1546 C 0.27848 0.96357 0.84375 0.0
H1547 H 0.24602 0.94731 0.87486 0.0
H1548 H 0.26464 0.95405 0.86944 0.0
H1549 H 0.24898 0.96114 0.86196 0.0
H1550 H 0.24562 0.96094 0.82473 0.0
H1551 H 0.25803 0.98482 0.81716 0.0
H1552 H 0.16026 0.19458 0.85459 0.0
H1553 H 0.14151 0.20993 0.84846 0.0
H1554 H 0.17678 0.24766 0.84661 0.0
H1555 H 0.19557 0.23219 0.85249 0.0
H1556 H 0.13336 0.23461 0.85937 0.0
H1557 H 0.15655 0.24685 0.80889 0.0
H1558 H 0.16229 0.23304 0.81978 0.0
H1559 H 0.16987 0.25212 0.82291 0.0
C1560 C 0.16394 0.20622 0.85314 0.0
C1561 C 0.17929 0.21227 0.8541 0.0
C1562 C 0.15324 0.21497 0.84957 0.0
C1563 C 0.15771 0.22992 0.84679 0.0
C1564 C 0.17305 0.23611 0.8484 0.0
H1565 H 0.10853 0.29691 0.81562 0.0
H1566 H 0.12738 0.28349 0.82533 0.0
C1567 C 0.18377 0.22732 0.85193 0.0
C1568 C 0.14635 0.2388 0.8417 0.0
H1569 H 0.13673 0.25887 0.81467 0.0
C1570 C 0.13411 0.23991 0.8496 0.0
C1571 C 0.14723 0.24568 0.82889 0.0
C1572 C 0.1596 0.24428 0.81955 0.0
C1573 C 0.12288 0.24785 0.84515 0.0
C1574 C 0.12377 0.2547 0.83234 0.0
C1575 C 0.13605 0.25366 0.82449 0.0
C1576 C 0.11205 0.26292 0.82683 0.0
C1577 C 0.1103 0.24902 0.8543 0.0
C1578 C 0.09711 0.25584 0.8243 0.0
C1579 C 0.08625 0.26352 0.81876 0.0
C1580 C 0.09006 0.27848 0.81557 0.0
C1581 C 0.10507 0.2855 0.8181 0.0
C1582 C 0.11592 0.2778 0.8236 0.0
H1583 H 0.11328 0.24658 0.86501 0.0
H1584 H 0.10734 0.26016 0.85392 0.0
H1585 H 0.10021 0.24099 0.85085 0.0
H1586 H 0.09388 0.2443 0.82646 0.0
H1587 H 0.07484 0.25774 0.81705 0.0
H1588 H 0.86445 0.16753 0.81273 0.0
H1589 H 0.85792 0.14533 0.7986 0.0
H1590 H 0.84718 0.11969 0.83425 0.0
H1591 H 0.85384 0.14191 0.84852 0.0
H1592 H 0.87224 0.12045 0.80131 0.0
H1593 H 0.81071 0.10637 0.80728 0.0
H1594 H 0.82138 0.12439 0.81128 0.0
H1595 H 0.82218 0.10957 0.82279 0.0
C1596 C 0.86062 0.15717 0.81757 0.0
C1597 C 0.85974 0.15644 0.83175 0.0
C1598 C 0.85686 0.14452 0.80948 0.0
C1599 C 0.85202 0.1309 0.81538 0.0
C1600 C 0.85069 0.13015 0.82949 0.0
H1601 H 0.82763 0.0427 0.78166 0.0
H1602 H 0.83415 0.06422 0.79668 0.0
C1603 C 0.85447 0.14283 0.83762 0.0
C1604 C 0.84921 0.11745 0.80678 0.0
H1605 H 0.82187 0.08927 0.79528 0.0
C1606 C 0.86123 0.11363 0.79996 0.0
C1607 C 0.83485 0.10858 0.80511 0.0
C1608 C 0.82148 0.11244 0.8119 0.0
C1609 C 0.85931 0.10106 0.79158 0.0
C1610 C 0.8449 0.09227 0.78978 0.0
C1611 C 0.8329 0.09604 0.79668 0.0
C1612 C 0.84196 0.07912 0.78073 0.0
C1613 C 0.87277 0.09718 0.78495 0.0
C1614 C 0.84431 0.08033 0.76679 0.0
C1615 C 0.84063 0.06802 0.75818 0.0
C1616 C 0.83435 0.05434 0.76335 0.0
C1617 C 0.83229 0.05313 0.77736 0.0
C1618 C 0.83603 0.0654 0.78596 0.0
H1619 H 0.88346 0.10252 0.79026 0.0
H1620 H 0.8724 0.08513 0.78476 0.0
H1621 H 0.8728 0.10103 0.77431 0.0
H1622 H 0.84858 0.09088 0.76249 0.0
H1623 H 0.84214 0.06934 0.74742 0.0
H1624 H 0.8814 0.83138 0.81646 0.0
H1625 H 0.90086 0.82253 0.80381 0.0
H1626 H 0.92747 0.82108 0.8411 0.0
H1627 H 0.90831 0.83001 0.85369 0.0
H1628 H 0.93285 0.83348 0.80203 0.0
H1629 H 0.92195 0.77874 0.82567 0.0
H1630 H 0.90896 0.79143 0.82621 0.0
H1631 H 0.92533 0.79378 0.83766 0.0
C1632 C 0.89148 0.82936 0.82193 0.0
C1633 C 0.89312 0.83119 0.83615 0.0
C1634 C 0.90258 0.82424 0.81469 0.0
C1635 C 0.9155 0.8208 0.82153 0.0
C1636 C 0.91745 0.82328 0.83561 0.0
H1637 H 0.99447 0.78447 0.80543 0.0
H1638 H 0.97406 0.79475 0.81475 0.0
C1639 C 0.90644 0.82839 0.84282 0.0
C1640 C 0.92688 0.81434 0.81416 0.0
H1641 H 0.94404 0.78427 0.81335 0.0
C1642 C 0.93521 0.82266 0.80439 0.0
C1643 C 0.92998 0.80021 0.81722 0.0
C1644 C 0.92101 0.79044 0.82717 0.0
C1645 C 0.94692 0.81749 0.79801 0.0
C1646 C 0.95022 0.80346 0.80128 0.0
C1647 C 0.94163 0.79504 0.81084 0.0
C1648 C 0.9628 0.79745 0.7953 0.0
C1649 C 0.95603 0.82734 0.78821 0.0
C1650 C 0.96333 0.79535 0.78121 0.0
C1651 C 0.97505 0.7894 0.7758 0.0
C1652 C 0.98648 0.78525 0.78437 0.0
C1653 C 0.98584 0.78731 0.79848 0.0
C1654 C 0.97417 0.79329 0.80385 0.0
H1655 H 0.95467 0.83897 0.78944 0.0
H1656 H 0.96814 0.82672 0.78961 0.0
H1657 H 0.95219 0.82376 0.77767 0.0
H1658 H 0.95454 0.7981 0.77437 0.0
H1659 H 0.97499 0.7878 0.76493 0.0
H1660 H 0.84133 0.87815 0.22911 0.0
H1661 H 0.83561 0.8989 0.24241 0.0
H1662 H 0.85384 0.92872 0.21165 0.0
H1663 H 0.8596 0.90804 0.19842 0.0
H1664 H 0.85472 0.92878 0.25171 0.0
H1665 H 0.80753 0.93142 0.21397 0.0
H1666 H 0.81609 0.9153 0.21587 0.0
H1667 H 0.82558 0.93101 0.20731 0.0
C1668 C 0.84457 0.8892 0.22546 0.0
C1669 C 0.8511 0.89157 0.21287 0.0
C1670 C 0.84123 0.90103 0.233 0.0
C1671 C 0.8442 0.91536 0.22797 0.0
C1672 C 0.85142 0.91777 0.21571 0.0
H1673 H 0.81208 0.99601 0.24664 0.0
H1674 H 0.82431 0.97706 0.23704 0.0
C1675 C 0.85481 0.90597 0.20822 0.0
C1676 C 0.83854 0.92756 0.23483 0.0
H1677 H 0.81202 0.94953 0.23122 0.0
C1678 C 0.84538 0.93333 0.24727 0.0
C1679 C 0.82636 0.9335 0.22902 0.0
C1680 C 0.81834 0.92748 0.21585 0.0
C1681 C 0.84054 0.94508 0.2539 0.0
C1682 C 0.82827 0.95099 0.24811 0.0
C1683 C 0.82144 0.94512 0.23569 0.0
C1684 C 0.82219 0.9632 0.25467 0.0
C1685 C 0.8489 0.95129 0.26685 0.0
C1686 C 0.81703 0.96193 0.26789 0.0
C1687 C 0.81014 0.97288 0.27349 0.0
C1688 C 0.80804 0.98527 0.26592 0.0
C1689 C 0.8135 0.98666 0.2528 0.0
C1690 C 0.82048 0.97578 0.24726 0.0
H1691 H 0.86046 0.9488 0.26764 0.0
H1692 H 0.84959 0.96336 0.26756 0.0
H1693 H 0.84289 0.94627 0.27566 0.0
H1694 H 0.81782 0.95222 0.27374 0.0
H1695 H 0.80594 0.97134 0.28356 0.0
H1696 H 0.15474 0.77454 0.16909 0.0
H1697 H 0.12906 0.76464 0.17536 0.0
H1698 H 0.13754 0.78826 0.21358 0.0
H1699 H 0.16312 0.79777 0.20764 0.0
H1700 H 0.12393 0.75833 0.21558 0.0
H1701 H 0.09416 0.78831 0.17714 0.0
H1702 H 0.10736 0.7775 0.17136 0.0
H1703 H 0.11396 0.79371 0.1815 0.0
C1704 C 0.15111 0.77756 0.17884 0.0
C1705 C 0.16092 0.78707 0.18781 0.0
C1706 C 0.13643 0.77198 0.18235 0.0
C1707 C 0.13139 0.77583 0.19488 0.0
C1708 C 0.1412 0.7852 0.20384 0.0
H1709 H 0.05887 0.79014 0.2354 0.0
H1710 H 0.07837 0.7886 0.21969 0.0
C1711 C 0.15579 0.79075 0.20037 0.0
C1712 C 0.11594 0.77028 0.19895 0.0
H1713 H 0.07991 0.77615 0.19417 0.0
C1714 C 0.11419 0.7619 0.21075 0.0
C1715 C 0.10333 0.77501 0.19258 0.0
C1716 C 0.10468 0.78419 0.17997 0.0
C1717 C 0.1004 0.75903 0.21693 0.0
C1718 C 0.08796 0.76446 0.21098 0.0
C1719 C 0.08945 0.77194 0.19865 0.0
C1720 C 0.07438 0.76488 0.21864 0.0
C1721 C 0.09962 0.75124 0.23035 0.0
C1722 C 0.06524 0.75203 0.2229 0.0
C1723 C 0.05405 0.75287 0.23203 0.0
C1724 C 0.05187 0.76658 0.23698 0.0
C1725 C 0.06037 0.77939 0.23193 0.0
C1726 C 0.07149 0.77854 0.22287 0.0
H1727 H 0.11084 0.74956 0.23444 0.0
H1728 H 0.09467 0.75757 0.23798 0.0
H1729 H 0.09233 0.74032 0.229 0.0
H1730 H 0.06713 0.74137 0.21957 0.0
H1731 H 0.04761 0.74281 0.23568 0.0
H1732 H 0.88662 0.19616 0.1824 0.0
H1733 H 0.90728 0.21047 0.19633 0.0
H1734 H 0.93894 0.19936 0.16854 0.0
H1735 H 0.91831 0.18524 0.15448 0.0
H1736 H 0.92881 0.19836 0.209 0.0
H1737 H 0.95554 0.24224 0.17574 0.0
H1738 H 0.93705 0.23173 0.17179 0.0
H1739 H 0.95352 0.2243 0.16814 0.0
C1740 C 0.89797 0.19701 0.17914 0.0
C1741 C 0.90087 0.18956 0.16738 0.0
C1742 C 0.90976 0.20522 0.18708 0.0
C1743 C 0.92467 0.20612 0.18342 0.0
C1744 C 0.92753 0.19915 0.17139 0.0
H1745 H 1.01081 0.22421 0.22691 0.0
H1746 H 0.99025 0.21929 0.20949 0.0
C1747 C 0.91573 0.19103 0.16339 0.0
C1748 C 0.93722 0.21277 0.19301 0.0
H1749 H 0.97004 0.23753 0.19579 0.0
C1750 C 0.9377 0.20707 0.20615 0.0
C1751 C 0.9489 0.22405 0.18926 0.0
C1752 C 0.94868 0.23104 0.1755 0.0
C1753 C 0.94968 0.21206 0.21553 0.0
C1754 C 0.96145 0.22319 0.21173 0.0
C1755 C 0.96097 0.22901 0.19865 0.0
C1756 C 0.97451 0.22846 0.22122 0.0
C1757 C 0.9499 0.20506 0.22931 0.0
C1758 C 0.9726 0.23577 0.23332 0.0
C1759 C 0.98428 0.23856 0.24331 0.0
C1760 C 0.99811 0.23411 0.24134 0.0
C1761 C 1.0003 0.22771 0.22879 0.0
C1762 C 0.98858 0.22491 0.21881 0.0
H1763 H 0.9416 0.19472 0.22965 0.0
H1764 H 0.96122 0.20265 0.23214 0.0
H1765 H 0.94711 0.21277 0.23705 0.0
H1766 H 0.96186 0.23875 0.23529 0.0
H1767 H 0.98225 0.24363 0.2528 0.0
H1768 H 0.21535 0.70741 0.65827 0.0
H1769 H 0.2217 0.71973 0.63686 0.0
H1770 H 0.22412 0.67807 0.61817 0.0
H1771 H 0.21729 0.66567 0.63929 0.0
H1772 H 0.24701 0.72111 0.62268 0.0
H1773 H 0.1981 0.69483 0.59012 0.0
H1774 H 0.19853 0.69372 0.6084 0.0
H1775 H 0.20742 0.68157 0.59854 0.0
C1776 C 0.21695 0.70082 0.64954 0.0
C1777 C 0.21576 0.68548 0.65059 0.0
C1778 C 0.2207 0.70791 0.6373 0.0
C1779 C 0.22319 0.69986 0.62576 0.0
C1780 C 0.22196 0.68456 0.62678 0.0
H1781 H 0.26067 0.70994 0.5487 0.0
H1782 H 0.24768 0.70279 0.56929 0.0
C1783 C 0.21823 0.67748 0.63898 0.0
C1784 C 0.22776 0.7074 0.61284 0.0
H1785 H 0.21961 0.7065 0.57853 0.0
C1786 C 0.24087 0.7181 0.61306 0.0
C1787 C 0.21975 0.70358 0.60023 0.0
C1788 C 0.20509 0.69291 0.5993 0.0
C1789 C 0.24661 0.72442 0.601 0.0
C1790 C 0.23894 0.72011 0.58835 0.0
C1791 C 0.22552 0.70983 0.58819 0.0
C1792 C 0.24551 0.72482 0.57513 0.0
C1793 C 0.26127 0.7351 0.60184 0.0
C1794 C 0.24821 0.73962 0.57118 0.0
C1795 C 0.25561 0.74378 0.55921 0.0
C1796 C 0.26049 0.73321 0.55105 0.0
C1797 C 0.25712 0.71839 0.55476 0.0
C1798 C 0.24967 0.71425 0.56656 0.0
H1799 H 0.267 0.73549 0.6121 0.0
H1800 H 0.26896 0.73213 0.59429 0.0
H1801 H 0.2591 0.74626 0.59947 0.0
H1802 H 0.2449 0.74798 0.57751 0.0
H1803 H 0.25813 0.75529 0.5567 0.0
H1804 H 0.86153 0.68608 0.62775 0.0
H1805 H 0.85877 0.69966 0.60668 0.0
H1806 H 0.81779 0.71126 0.62026 0.0
H1807 H 0.82066 0.69781 0.64134 0.0
H1808 H 0.83462 0.69473 0.58705 0.0
H1809 H 0.84231 0.75082 0.60958 0.0
H1810 H 0.84758 0.7355 0.6187 0.0
H1811 H 0.82825 0.73769 0.61716 0.0
C1812 C 0.85204 0.69167 0.62621 0.0
C1813 C 0.84135 0.69109 0.63604 0.0
C1814 C 0.85044 0.69936 0.61422 0.0
C1815 C 0.83817 0.7066 0.61199 0.0
C1816 C 0.82748 0.70598 0.62189 0.0
H1817 H 0.80434 0.738 0.5354 0.0
H1818 H 0.80794 0.72415 0.55603 0.0
C1819 C 0.82909 0.69829 0.63387 0.0
C1820 C 0.83631 0.71445 0.59914 0.0
H1821 H 0.83397 0.74818 0.58635 0.0
C1822 C 0.83452 0.70643 0.58687 0.0
C1823 C 0.83632 0.72972 0.59896 0.0
C1824 C 0.83885 0.73899 0.61178 0.0
C1825 C 0.83254 0.71325 0.57439 0.0
C1826 C 0.83217 0.72845 0.57424 0.0
C1827 C 0.83414 0.73649 0.58651 0.0
C1828 C 0.83011 0.73635 0.56145 0.0
C1829 C 0.83114 0.70419 0.56147 0.0
C1830 C 0.84131 0.74788 0.55775 0.0
C1831 C 0.83926 0.75584 0.54604 0.0
C1832 C 0.82594 0.75247 0.53781 0.0
C1833 C 0.81477 0.74081 0.54147 0.0
C1834 C 0.81683 0.73285 0.55322 0.0
H1835 H 0.83527 0.69369 0.56304 0.0
H1836 H 0.81915 0.70157 0.55788 0.0
H1837 H 0.83749 0.71035 0.55336 0.0
H1838 H 0.85162 0.75078 0.56398 0.0
H1839 H 0.84809 0.76475 0.54353 0.0
H1840 H 0.87391 0.31775 0.6756 0.0
H1841 H 0.86783 0.30317 0.65465 0.0
H1842 H 0.85022 0.33887 0.63574 0.0
H1843 H 0.85698 0.35379 0.65632 0.0
H1844 H 0.84142 0.29335 0.64138 0.0
H1845 H 0.87704 0.32965 0.60708 0.0
H1846 H 0.87875 0.33212 0.62528 0.0
H1847 H 0.86427 0.33903 0.61543 0.0
C1848 C 0.86902 0.32265 0.66691 0.0
C1849 C 0.86605 0.33706 0.66773 0.0
C1850 C 0.86542 0.31421 0.65494 0.0
C1851 C 0.85879 0.31996 0.64345 0.0
C1852 C 0.85566 0.33426 0.64429 0.0
H1853 H 0.81962 0.28558 0.56493 0.0
H1854 H 0.82763 0.29994 0.5858 0.0
C1855 C 0.85934 0.34273 0.6562 0.0
C1856 C 0.85471 0.31086 0.63078 0.0
H1857 H 0.85871 0.31072 0.59644 0.0
C1858 C 0.84533 0.29711 0.63158 0.0
C1859 C 0.8598 0.31569 0.61793 0.0
C1860 C 0.87064 0.32986 0.61637 0.0
C1861 C 0.84061 0.2883 0.61993 0.0
C1862 C 0.84546 0.29328 0.60709 0.0
C1863 C 0.85492 0.30694 0.60627 0.0
C1864 C 0.84072 0.28451 0.59439 0.0
C1865 C 0.83018 0.27386 0.62137 0.0
C1866 C 0.84555 0.27112 0.59218 0.0
C1867 C 0.84103 0.26289 0.58022 0.0
C1868 C 0.8315 0.26784 0.57023 0.0
C1869 C 0.82678 0.28133 0.57246 0.0
C1870 C 0.83142 0.2896 0.58436 0.0
H1871 H 0.82522 0.27286 0.63146 0.0
H1872 H 0.82096 0.27251 0.61336 0.0
H1873 H 0.83653 0.26476 0.62014 0.0
H1874 H 0.85286 0.26704 0.5997 0.0
H1875 H 0.8448 0.25254 0.57892 0.0
H1876 H 0.23804 0.30005 0.6595 0.0
H1877 H 0.24009 0.29115 0.63637 0.0
H1878 H 0.19535 0.29882 0.62565 0.0
H1879 H 0.19348 0.30811 0.64885 0.0
H1880 H 0.22405 0.26936 0.61955 0.0
H1881 H 0.22093 0.32492 0.59954 0.0
H1882 H 0.22294 0.32154 0.61746 0.0
H1883 H 0.20506 0.31616 0.60845 0.0
C1884 C 0.22856 0.29954 0.65224 0.0
C1885 C 0.21563 0.3047 0.65578 0.0
C1886 C 0.22971 0.29447 0.63907 0.0
C1887 C 0.21796 0.29453 0.62923 0.0
C1888 C 0.20464 0.29891 0.63302 0.0
H1889 H 0.23529 0.26359 0.54733 0.0
H1890 H 0.22186 0.26597 0.56795 0.0
C1891 C 0.20353 0.30409 0.64624 0.0
C1892 C 0.22041 0.29118 0.61489 0.0
H1893 H 0.2265 0.30749 0.58425 0.0
C1894 C 0.22434 0.27759 0.61174 0.0
C1895 C 0.22091 0.30201 0.60478 0.0
C1896 C 0.21735 0.31702 0.60768 0.0
C1897 C 0.22945 0.27478 0.59894 0.0
C1898 C 0.23037 0.28578 0.58898 0.0
C1899 C 0.22572 0.29908 0.59192 0.0
C1900 C 0.23784 0.28449 0.57613 0.0
C1901 C 0.23467 0.26043 0.59646 0.0
C1902 C 0.25102 0.29436 0.57372 0.0
C1903 C 0.25859 0.29315 0.56193 0.0
C1904 C 0.25316 0.28202 0.55225 0.0
C1905 C 0.23976 0.27231 0.55454 0.0
C1906 C 0.23214 0.27356 0.56638 0.0
H1907 H 0.23562 0.25419 0.60596 0.0
H1908 H 0.22651 0.25353 0.58928 0.0
H1909 H 0.24575 0.26235 0.59183 0.0
H1910 H 0.25557 0.30293 0.58108 0.0
H1911 H 0.26867 0.30101 0.5604 0.0
H1912 H 0.21203 0.35473 0.41201 0.0
H1913 H 0.22965 0.35841 0.43203 0.0
H1914 H 0.25616 0.32962 0.4141 0.0
H1915 H 0.23868 0.32614 0.39408 0.0
H1916 H 0.23332 0.33549 0.44799 0.0
H1917 H 0.28869 0.36152 0.43072 0.0
H1918 H 0.27139 0.36184 0.42085 0.0
H1919 H 0.28031 0.34595 0.42035 0.0
C1920 C 0.22192 0.34962 0.41222 0.0
C1921 C 0.22419 0.34027 0.40161 0.0
C1922 C 0.23194 0.35169 0.42362 0.0
C1923 C 0.24435 0.34445 0.42449 0.0
C1924 C 0.24692 0.33563 0.41352 0.0
H1925 H 0.29897 0.30891 0.48205 0.0
H1926 H 0.28821 0.31976 0.46226 0.0
C1927 C 0.23691 0.33357 0.40214 0.0
C1928 C 0.25316 0.3442 0.43755 0.0
H1929 H 0.28892 0.3479 0.45155 0.0
C1930 C 0.24546 0.33852 0.44887 0.0
C1931 C 0.26899 0.34806 0.43864 0.0
C1932 C 0.27781 0.35482 0.42702 0.0
C1933 C 0.25317 0.33577 0.461 0.0
C1934 C 0.26905 0.33912 0.46195 0.0
C1935 C 0.27675 0.34538 0.45082 0.0
C1936 C 0.27775 0.33472 0.47388 0.0
C1937 C 0.24426 0.32845 0.47238 0.0
C1938 C 0.27603 0.34002 0.48697 0.0
C1939 C 0.28206 0.33372 0.49836 0.0
C1940 C 0.29003 0.32213 0.49681 0.0
C1941 C 0.29279 0.31773 0.48363 0.0
C1942 C 0.28667 0.32395 0.47228 0.0
H1943 H 0.23245 0.32397 0.46899 0.0
H1944 H 0.24948 0.31936 0.47664 0.0
H1945 H 0.24408 0.33659 0.48064 0.0
H1946 H 0.26944 0.34855 0.4884 0.0
H1947 H 0.27989 0.33749 0.50836 0.0
H1948 H 0.22315 0.69637 0.36771 0.0
H1949 H 0.23293 0.70632 0.39019 0.0
H1950 H 0.23277 0.66246 0.40458 0.0
H1951 H 0.22295 0.65246 0.38228 0.0
H1952 H 0.22232 0.70152 0.41683 0.0
H1953 H 0.27662 0.68257 0.412 0.0
H1954 H 0.26351 0.6832 0.3977 0.0
H1955 H 0.26047 0.66834 0.40945 0.0
C1956 C 0.22498 0.68884 0.37572 0.0
C1957 C 0.22244 0.67361 0.3731 0.0
C1958 C 0.23065 0.69455 0.38855 0.0
C1959 C 0.23393 0.68516 0.399 0.0
C1960 C 0.23071 0.66995 0.3966 0.0
H1961 H 0.27381 0.69425 0.48131 0.0
H1962 H 0.26219 0.68572 0.4591 0.0
C1963 C 0.22507 0.66425 0.38382 0.0
C1964 C 0.24103 0.69118 0.41232 0.0
H1965 H 0.27214 0.69177 0.43362 0.0
C1966 C 0.23326 0.69947 0.42048 0.0
C1967 C 0.25531 0.68853 0.41709 0.0
C1968 C 0.26455 0.68029 0.40857 0.0
C1969 C 0.23917 0.70481 0.43341 0.0
C1970 C 0.25341 0.70203 0.43824 0.0
C1971 C 0.26122 0.69387 0.43 0.0
C1972 C 0.26037 0.70737 0.45182 0.0
C1973 C 0.22991 0.71299 0.44196 0.0
C1974 C 0.26347 0.72241 0.45514 0.0
C1975 C 0.27016 0.72733 0.46786 0.0
C1976 C 0.27404 0.71734 0.47756 0.0
C1977 C 0.27111 0.70229 0.47412 0.0
C1978 C 0.26439 0.69738 0.46141 0.0
H1979 H 0.21786 0.71076 0.43847 0.0
H1980 H 0.23089 0.70998 0.4528 0.0
H1981 H 0.23402 0.72495 0.44117 0.0
H1982 H 0.2609 0.73039 0.44782 0.0
H1983 H 0.27251 0.73901 0.46999 0.0
H1984 H 0.80859 0.71193 0.35817 0.0
H1985 H 0.81388 0.72472 0.3802 0.0
H1986 H 0.86095 0.72295 0.37789 0.0
H1987 H 0.85561 0.71006 0.35574 0.0
H1988 H 0.82978 0.71121 0.40333 0.0
H1989 H 0.8573 0.76724 0.38885 0.0
H1990 H 0.84444 0.75552 0.37717 0.0
H1991 H 0.86275 0.7514 0.38113 0.0
C1992 C 0.82009 0.71451 0.3623 0.0
C1993 C 0.83174 0.71019 0.35539 0.0
C1994 C 0.82309 0.72176 0.37484 0.0
C1995 C 0.8378 0.72483 0.38058 0.0
C1996 C 0.84956 0.72081 0.37351 0.0
H1997 H 0.86081 0.76711 0.46122 0.0
H1998 H 0.86375 0.75622 0.43895 0.0
C1999 C 0.84653 0.71348 0.36094 0.0
C2000 C 0.84044 0.73126 0.39442 0.0
H2001 H 0.85227 0.7635 0.4119 0.0
C2002 C 0.83487 0.72259 0.40525 0.0
C2003 C 0.84721 0.74605 0.39685 0.0
C2004 C 0.85328 0.7557 0.38544 0.0
C2005 C 0.8354 0.72847 0.41842 0.0
C2006 C 0.84138 0.74348 0.42073 0.0
C2007 C 0.84764 0.752 0.41004 0.0
C2008 C 0.83991 0.75072 0.43388 0.0
C2009 C 0.82925 0.71864 0.4297 0.0
C2010 C 0.82558 0.75153 0.43818 0.0
C2011 C 0.82387 0.75776 0.45078 0.0
C2012 C 0.83648 0.76334 0.45936 0.0
C2013 C 0.85089 0.76293 0.45484 0.0
C2014 C 0.85259 0.75668 0.44217 0.0
H2015 H 0.82913 0.70689 0.42723 0.0
H2016 H 0.83594 0.72151 0.4394 0.0
H2017 H 0.81752 0.72002 0.43122 0.0
H2018 H 0.81567 0.74727 0.43179 0.0
H2019 H 0.81263 0.75824 0.45374 0.0
H2020 H 0.84539 0.29192 0.38807 0.0
H2021 H 0.83295 0.28315 0.40872 0.0
H2022 H 0.84476 0.32651 0.42656 0.0
H2023 H 0.85722 0.33531 0.40609 0.0
H2024 H 0.84462 0.28232 0.43436 0.0
H2025 H 0.80071 0.31695 0.43416 0.0
H2026 H 0.81144 0.315 0.41954 0.0
H2027 H 0.81917 0.32758 0.43312 0.0
C2028 C 0.84533 0.29961 0.39638 0.0
C2029 C 0.85223 0.31438 0.39528 0.0
C2030 C 0.83812 0.29459 0.40817 0.0
C2031 C 0.83757 0.30422 0.41916 0.0
C2032 C 0.84455 0.31893 0.41812 0.0
H2033 H 0.83145 0.28463 0.50348 0.0
H2034 H 0.83712 0.29418 0.48098 0.0
C2035 C 0.85173 0.32395 0.40635 0.0
C2036 C 0.83059 0.29874 0.43201 0.0
H2037 H 0.80555 0.30528 0.45524 0.0
C2038 C 0.83596 0.28726 0.43881 0.0
C2039 C 0.81911 0.30499 0.43784 0.0
C2040 C 0.81215 0.31671 0.43072 0.0
C2041 C 0.83069 0.28232 0.45144 0.0
C2042 C 0.81985 0.28913 0.45762 0.0
C2043 C 0.81398 0.30017 0.4506 0.0
C2044 C 0.81527 0.28534 0.47167 0.0
C2045 C 0.83689 0.2699 0.45816 0.0
C2046 C 0.80075 0.27789 0.47418 0.0
C2047 C 0.79738 0.27251 0.48721 0.0
C2048 C 0.8085 0.27453 0.49788 0.0
C2049 C 0.82263 0.2829 0.49549 0.0
C2050 C 0.82594 0.28828 0.48259 0.0
H2051 H 0.84206 0.26346 0.45076 0.0
H2052 H 0.84568 0.27447 0.46604 0.0
H2053 H 0.82795 0.26238 0.46318 0.0
H2054 H 0.79231 0.27553 0.46592 0.0
H2055 H 0.78649 0.26591 0.48867 0.0
H2056 H 0.1489 0.67571 0.68839 0.0
H2057 H 0.12732 0.68633 0.69512 0.0
H2058 H 0.15704 0.72651 0.70712 0.0
H2059 H 0.17861 0.71588 0.70029 0.0
H2060 H 0.12365 0.69541 0.72144 0.0
H2061 H 0.12282 0.74175 0.68619 0.0
H2062 H 0.13292 0.72702 0.68296 0.0
H2063 H 0.14069 0.74147 0.69487 0.0
C2064 C 0.15074 0.68697 0.69206 0.0
C2065 C 0.16534 0.6951 0.69357 0.0
C2066 C 0.13842 0.693 0.69601 0.0
C2067 C 0.14046 0.7073 0.70153 0.0
C2068 C 0.15507 0.71559 0.70264 0.0
H2069 H 0.0805 0.75829 0.73984 0.0
H2070 H 0.10195 0.74975 0.73029 0.0
C2071 C 0.1674 0.70953 0.69872 0.0
C2072 C 0.12752 0.71298 0.70717 0.0
H2073 H 0.10683 0.74054 0.70465 0.0
C2074 C 0.11993 0.70524 0.7177 0.0
C2075 C 0.12272 0.72589 0.70244 0.0
C2076 C 0.1301 0.73448 0.69092 0.0
C2077 C 0.10786 0.71009 0.7237 0.0
C2078 C 0.10289 0.7229 0.71885 0.0
C2079 C 0.11056 0.73072 0.70838 0.0
C2080 C 0.08971 0.72822 0.72444 0.0
C2081 C 0.10079 0.7016 0.73544 0.0
C2082 C 0.07554 0.71912 0.72417 0.0
C2083 C 0.06326 0.72397 0.72965 0.0
C2084 C 0.06473 0.73813 0.73544 0.0
C2085 C 0.07887 0.74735 0.73543 0.0
C2086 C 0.09119 0.74246 0.72999 0.0
H2087 H 0.10853 0.69498 0.74048 0.0
H2088 H 0.09747 0.70905 0.74314 0.0
H2089 H 0.09059 0.69395 0.73161 0.0
H2090 H 0.07393 0.70825 0.71962 0.0
H2091 H 0.05254 0.71664 0.72916 0.0
H2092 H 0.8892 0.65117 0.69921 0.0
H2093 H 0.88789 0.63348 0.71764 0.0
H2094 H 0.84154 0.63682 0.72226 0.0
H2095 H 0.84288 0.65486 0.70417 0.0
H2096 H 0.85863 0.63791 0.74699 0.0
H2097 H 0.86608 0.59073 0.71444 0.0
H2098 H 0.88043 0.60673 0.71367 0.0
H2099 H 0.8616 0.60752 0.70749 0.0
C2100 C 0.87876 0.64823 0.70422 0.0
C2101 C 0.86611 0.65437 0.70017 0.0
C2102 C 0.878 0.63802 0.71466 0.0
C2103 C 0.86456 0.63371 0.72119 0.0
C2104 C 0.85199 0.63995 0.7173 0.0
H2105 H 0.83051 0.55895 0.76701 0.0
H2106 H 0.83721 0.57816 0.75056 0.0
C2107 C 0.85274 0.65016 0.70688 0.0
C2108 C 0.8635 0.62263 0.73203 0.0
H2109 H 0.86429 0.58647 0.73789 0.0
C2110 C 0.85996 0.62668 0.74505 0.0
C2111 C 0.86516 0.60798 0.72941 0.0
C2112 C 0.86841 0.60289 0.71548 0.0
C2113 C 0.8578 0.6164 0.75549 0.0
C2114 C 0.85941 0.60174 0.75285 0.0
C2115 C 0.8632 0.59776 0.73989 0.0
C2116 C 0.85583 0.59007 0.76297 0.0
C2117 C 0.85322 0.62114 0.76908 0.0
C2118 C 0.8642 0.59028 0.77537 0.0
C2119 C 0.8603 0.57931 0.78492 0.0
C2120 C 0.84796 0.56797 0.78218 0.0
C2121 C 0.83985 0.56768 0.7696 0.0
C2122 C 0.84375 0.57859 0.76011 0.0
H2123 H 0.84978 0.63208 0.76867 0.0
H2124 H 0.84378 0.61305 0.77273 0.0
H2125 H 0.86284 0.62179 0.77662 0.0
H2126 H 0.87371 0.59895 0.77768 0.0
H2127 H 0.86675 0.57984 0.7945 0.0
H2128 H 0.88987 0.35354 0.72861 0.0
H2129 H 0.91188 0.34927 0.74246 0.0
H2130 H 0.93576 0.34603 0.70617 0.0
H2131 H 0.9142 0.35103 0.69237 0.0
H2132 H 0.92498 0.32555 0.74309 0.0
H2133 H 0.96718 0.37279 0.7286 0.0
H2134 H 0.94739 0.37167 0.72445 0.0
H2135 H 0.95861 0.36228 0.71406 0.0
C2136 C 0.89993 0.35228 0.72359 0.0
C2137 C 0.90017 0.35263 0.70932 0.0
C2138 C 0.91249 0.3497 0.73153 0.0
C2139 C 0.92563 0.34749 0.72543 0.0
C2140 C 0.92595 0.34801 0.71121 0.0
H2141 H 1.00747 0.31613 0.75148 0.0
H2142 H 0.98606 0.32359 0.73884 0.0
C2143 C 0.91346 0.35067 0.70329 0.0
C2144 C 0.93867 0.34381 0.7338 0.0
H2145 H 0.97675 0.35314 0.73971 0.0
C2146 C 0.93626 0.3317 0.74245 0.0
C2147 C 0.95346 0.35179 0.73301 0.0
C2148 C 0.95681 0.36544 0.72463 0.0
C2149 C 0.9482 0.32716 0.74999 0.0
C2150 C 0.96299 0.33494 0.74895 0.0
C2151 C 0.96542 0.34711 0.74043 0.0
C2152 C 0.97606 0.33057 0.75664 0.0
C2153 C 0.945 0.31384 0.75881 0.0
C2154 C 0.97765 0.33216 0.77083 0.0
C2155 C 0.9899 0.32797 0.77807 0.0
C2156 C 1.00082 0.32201 0.77128 0.0
C2157 C 0.99921 0.32052 0.75704 0.0
C2158 C 0.98702 0.32485 0.7498 0.0
H2159 H 0.93351 0.30752 0.75666 0.0
H2160 H 0.95326 0.3065 0.75731 0.0
H2161 H 0.94606 0.31738 0.76964 0.0
H2162 H 0.96941 0.33666 0.77632 0.0
H2163 H 0.99067 0.32916 0.78901 0.0
H2164 H 0.19464 0.36021 0.72171 0.0
H2165 H 0.20296 0.38515 0.73082 0.0
H2166 H 0.22643 0.39703 0.69447 0.0
H2167 H 0.21785 0.37229 0.68516 0.0
H2168 H 0.23259 0.39867 0.73582 0.0
H2169 H 0.20353 0.43084 0.6994 0.0
H2170 H 0.19809 0.41123 0.70104 0.0
H2171 H 0.21373 0.41865 0.69115 0.0
C2172 C 0.20134 0.36822 0.71556 0.0
C2173 C 0.20558 0.3643 0.7027 0.0
C2174 C 0.20613 0.38243 0.7208 0.0
C2175 C 0.2151 0.39298 0.71323 0.0
C2176 C 0.21924 0.38914 0.70036 0.0
H2177 H 0.27411 0.47364 0.71977 0.0
H2178 H 0.25676 0.45108 0.71361 0.0
C2179 C 0.2145 0.37495 0.69513 0.0
C2180 C 0.22115 0.4077 0.71912 0.0
H2181 H 0.22478 0.44423 0.71247 0.0
C2182 C 0.23067 0.40867 0.73089 0.0
C2183 C 0.21855 0.42069 0.71268 0.0
C2184 C 0.20779 0.42034 0.70044 0.0
C2185 C 0.23843 0.42226 0.73591 0.0
C2186 C 0.23639 0.4352 0.72906 0.0
C2187 C 0.22632 0.43428 0.71767 0.0
C2188 C 0.24584 0.44954 0.73267 0.0
C2189 C 0.24939 0.4226 0.74801 0.0
C2190 C 0.2452 0.45634 0.74534 0.0
C2191 C 0.25517 0.46928 0.74893 0.0
C2192 C 0.26589 0.47559 0.73988 0.0
C2193 C 0.26607 0.46902 0.72702 0.0
C2194 C 0.25612 0.45615 0.72345 0.0
H2195 H 0.25142 0.41147 0.75075 0.0
H2196 H 0.2603 0.42958 0.74596 0.0
H2197 H 0.24485 0.42741 0.7569 0.0
H2198 H 0.23717 0.4515 0.75251 0.0
H2199 H 0.25471 0.47413 0.75889 0.0
H2200 H 0.16695 0.30829 0.3463 0.0
H2201 H 0.14346 0.29591 0.33499 0.0
H2202 H 0.12681 0.33677 0.33389 0.0
H2203 H 0.15013 0.34918 0.34559 0.0
H2204 H 0.10644 0.31375 0.34329 0.0
H2205 H 0.12898 0.29807 0.29525 0.0
H2206 H 0.1387 0.29235 0.31002 0.0
H2207 H 0.13951 0.3116 0.30695 0.0
C2208 C 0.15827 0.31464 0.3437 0.0
C2209 C 0.16039 0.32972 0.34684 0.0
C2210 C 0.14494 0.30759 0.33708 0.0
C2211 C 0.13352 0.31549 0.33339 0.0
C2212 C 0.13556 0.33052 0.33653 0.0
H2213 H 0.05361 0.27322 0.28438 0.0
H2214 H 0.07559 0.29116 0.2925 0.0
C2215 C 0.1489 0.3376 0.34315 0.0
C2216 C 0.11915 0.30784 0.3269 0.0
H2217 H 0.10437 0.28551 0.3001 0.0
C2218 C 0.10595 0.30773 0.33376 0.0
C2219 C 0.11849 0.3002 0.31435 0.0
C2220 C 0.13215 0.30066 0.30613 0.0
C2221 C 0.09221 0.29958 0.32874 0.0
C2222 C 0.09175 0.29117 0.31666 0.0
C2223 C 0.10479 0.29186 0.30944 0.0
C2224 C 0.07812 0.2808 0.31188 0.0
C2225 C 0.07835 0.2999 0.3365 0.0
C2226 C 0.0724 0.26901 0.32004 0.0
C2227 C 0.05993 0.25879 0.31545 0.0
C2228 C 0.05296 0.2601 0.30256 0.0
C2229 C 0.05869 0.27195 0.29438 0.0
C2230 C 0.07124 0.28218 0.29899 0.0
H2231 H 0.07953 0.31 0.3429 0.0
H2232 H 0.06824 0.29929 0.32951 0.0
H2233 H 0.07656 0.29033 0.3433 0.0
H2234 H 0.07774 0.26756 0.3299 0.0
H2235 H 0.05585 0.24977 0.322 0.0
H2236 H 0.25227 0.64822 0.34562 0.0
H2237 H 0.26537 0.62937 0.33705 0.0
H2238 H 0.22479 0.60863 0.31509 0.0
H2239 H 0.21145 0.62721 0.32384 0.0
H2240 H 0.25873 0.59809 0.33974 0.0
H2241 H 0.25641 0.6148 0.28581 0.0
H2242 H 0.253 0.62654 0.29957 0.0
H2243 H 0.23865 0.61163 0.29359 0.0
C2244 C 0.24602 0.63958 0.33909 0.0
C2245 C 0.23072 0.63935 0.33544 0.0
C2246 C 0.2536 0.62883 0.33413 0.0
C2247 C 0.24615 0.61765 0.32528 0.0
C2248 C 0.23088 0.61728 0.3217 0.0
H2249 H 0.2732 0.53564 0.30102 0.0
H2250 H 0.26151 0.55449 0.3116 0.0
C2251 C 0.22327 0.62798 0.3267 0.0
C2252 C 0.25433 0.60635 0.31987 0.0
H2253 H 0.26551 0.59278 0.29048 0.0
C2254 C 0.26023 0.59694 0.32897 0.0
C2255 C 0.25646 0.60493 0.30583 0.0
C2256 C 0.25093 0.61507 0.29561 0.0
C2257 C 0.26793 0.58601 0.3244 0.0
C2258 C 0.26974 0.58436 0.31032 0.0
C2259 C 0.26406 0.59395 0.30126 0.0
C2260 C 0.27748 0.5728 0.30475 0.0
C2261 C 0.27426 0.57644 0.33468 0.0
C2262 C 0.2904 0.57674 0.29737 0.0
C2263 C 0.29716 0.56596 0.29134 0.0
C2264 C 0.29107 0.55096 0.29241 0.0
C2265 C 0.27829 0.54704 0.30005 0.0
C2266 C 0.27159 0.55784 0.30614 0.0
H2267 H 0.27517 0.58132 0.34508 0.0
H2268 H 0.26674 0.56562 0.33484 0.0
H2269 H 0.28554 0.57458 0.33197 0.0
H2270 H 0.29514 0.5882 0.2961 0.0
H2271 H 0.30689 0.56945 0.28546 0.0
H2272 H 0.87833 0.66138 0.32091 0.0
H2273 H 0.90385 0.66964 0.3138 0.0
H2274 H 0.89162 0.71035 0.30029 0.0
H2275 H 0.86592 0.70187 0.30659 0.0
H2276 H 0.90843 0.69965 0.28227 0.0
H2277 H 0.93532 0.69915 0.33414 0.0
H2278 H 0.92475 0.68179 0.32833 0.0
H2279 H 0.91525 0.69697 0.3311 0.0
C2280 C 0.881 0.67203 0.31628 0.0
C2281 C 0.87004 0.681 0.31444 0.0
C2282 C 0.89567 0.6768 0.31237 0.0
C2283 C 0.89974 0.69073 0.30674 0.0
C2284 C 0.88878 0.6996 0.3047 0.0
H2285 H 0.98248 0.7492 0.30411 0.0
H2286 H 0.95865 0.73401 0.30887 0.0
C2287 C 0.87411 0.69479 0.30847 0.0
C2288 C 0.91538 0.69626 0.30303 0.0
H2289 H 0.95134 0.70591 0.31633 0.0
C2290 C 0.91785 0.70094 0.28969 0.0
C2291 C 0.92764 0.698 0.31275 0.0
C2292 C 0.92565 0.69385 0.32741 0.0
C2293 C 0.93211 0.70772 0.28589 0.0
C2294 C 0.94435 0.70953 0.29563 0.0
C2295 C 0.94197 0.70441 0.30885 0.0
C2296 C 0.95928 0.71814 0.29281 0.0
C2297 C 0.93377 0.71355 0.27169 0.0
C2298 C 0.96775 0.71417 0.28229 0.0
C2299 C 0.98143 0.72299 0.27942 0.0
C2300 C 0.98691 0.7358 0.28714 0.0
C2301 C 0.97861 0.73943 0.29793 0.0
C2302 C 0.96496 0.73073 0.3007 0.0
H2303 H 0.92273 0.7141 0.26645 0.0
H2304 H 0.94074 0.72468 0.27184 0.0
H2305 H 0.9394 0.70619 0.26563 0.0
H2306 H 0.96374 0.70433 0.27625 0.0
H2307 H 0.98761 0.71984 0.2711 0.0
H2308 H 0.8742 0.37862 0.33527 0.0
H2309 H 0.8635 0.3968 0.32174 0.0
H2310 H 0.82069 0.38269 0.33908 0.0
H2311 H 0.83155 0.36468 0.35284 0.0
H2312 H 0.8403 0.39508 0.30257 0.0
H2313 H 0.82822 0.42625 0.34772 0.0
H2314 H 0.83955 0.41208 0.34889 0.0
H2315 H 0.81942 0.40731 0.34734 0.0
C2316 C 0.86245 0.37929 0.33602 0.0
C2317 C 0.85365 0.37025 0.345 0.0
C2318 C 0.85635 0.3897 0.32833 0.0
C2319 C 0.84134 0.39137 0.32954 0.0
C2320 C 0.83238 0.38189 0.33816 0.0
H2321 H 0.78958 0.45487 0.29426 0.0
H2322 H 0.79737 0.43382 0.30567 0.0
C2323 C 0.83852 0.37149 0.3459 0.0
C2324 C 0.83529 0.40322 0.32199 0.0
H2325 H 0.82006 0.43415 0.32632 0.0
C2326 C 0.83587 0.40361 0.30778 0.0
C2327 C 0.82951 0.41442 0.32874 0.0
C2328 C 0.82924 0.41513 0.34402 0.0
C2329 C 0.83078 0.41477 0.30017 0.0
C2330 C 0.82512 0.42602 0.30693 0.0
C2331 C 0.82436 0.42553 0.32112 0.0
C2332 C 0.82027 0.43857 0.29954 0.0
C2333 C 0.83133 0.41433 0.28492 0.0
C2334 C 0.83054 0.44836 0.29233 0.0
C2335 C 0.82611 0.46042 0.28577 0.0
C2336 C 0.81129 0.46302 0.28625 0.0
C2337 C 0.80101 0.45315 0.29347 0.0
C2338 C 0.80548 0.44113 0.30009 0.0
H2339 H 0.8321 0.40319 0.28109 0.0
H2340 H 0.82126 0.41779 0.27996 0.0
H2341 H 0.8414 0.42199 0.28185 0.0
H2342 H 0.84208 0.44681 0.29194 0.0
H2343 H 0.83432 0.46769 0.28027 0.0
H2344 H 0.20599 0.63397 0.69342 0.0
H2345 H 0.21909 0.61466 0.70183 0.0
H2346 H 0.25993 0.63674 0.68519 0.0
H2347 H 0.24703 0.65649 0.67721 0.0
H2348 H 0.23304 0.59544 0.68897 0.0
H2349 H 0.27458 0.63059 0.72373 0.0
H2350 H 0.25848 0.63695 0.71595 0.0
H2351 H 0.27481 0.63649 0.70644 0.0
C2352 C 0.21782 0.63488 0.69167 0.0
C2353 C 0.22544 0.647 0.68475 0.0
C2354 C 0.22529 0.62371 0.69642 0.0
C2355 C 0.24062 0.62429 0.69443 0.0
C2356 C 0.2482 0.63614 0.68718 0.0
H2357 H 0.30343 0.56557 0.71753 0.0
H2358 H 0.29122 0.58505 0.70796 0.0
C2359 C 0.24073 0.64737 0.68244 0.0
C2360 C 0.24851 0.61241 0.69984 0.0
H2361 H 0.27775 0.6059 0.72098 0.0
C2362 C 0.2428 0.59776 0.69599 0.0
C2363 C 0.26127 0.61532 0.70903 0.0
C2364 C 0.26759 0.63066 0.71415 0.0
C2365 C 0.24952 0.58606 0.70091 0.0
C2366 C 0.26223 0.58898 0.71015 0.0
C2367 C 0.26803 0.60362 0.71391 0.0
C2368 C 0.26962 0.577 0.71603 0.0
C2369 C 0.24311 0.57068 0.69597 0.0
C2370 C 0.26168 0.566 0.72396 0.0
C2371 C 0.26864 0.55477 0.72944 0.0
C2372 C 0.28377 0.55424 0.72716 0.0
C2373 C 0.29174 0.56541 0.71935 0.0
C2374 C 0.28478 0.57666 0.71393 0.0
H2375 H 0.23611 0.57067 0.68639 0.0
H2376 H 0.25218 0.56432 0.69426 0.0
H2377 H 0.23589 0.565 0.70376 0.0
H2378 H 0.25006 0.56612 0.72597 0.0
H2379 H 0.26207 0.5464 0.7353 0.0
H2380 H 0.18238 0.38192 0.34966 0.0
H2381 H 0.19398 0.40399 0.33807 0.0
H2382 H 0.23633 0.38874 0.33994 0.0
H2383 H 0.22474 0.36646 0.35135 0.0
H2384 H 0.22008 0.42628 0.34493 0.0
H2385 H 0.22558 0.39326 0.29872 0.0
H2386 H 0.21381 0.38618 0.31225 0.0
H2387 H 0.2338 0.3874 0.31426 0.0
C2388 C 0.1942 0.38333 0.3477 0.0
C2389 C 0.20263 0.37241 0.35126 0.0
C2390 C 0.20081 0.39596 0.34115 0.0
C2391 C 0.21593 0.39785 0.33799 0.0
C2392 C 0.22459 0.38736 0.34217 0.0
H2393 H 0.26962 0.47365 0.30244 0.0
H2394 H 0.25888 0.4545 0.31773 0.0
C2395 C 0.21799 0.37472 0.34877 0.0
C2396 C 0.22228 0.41032 0.32955 0.0
H2397 H 0.23515 0.41861 0.29813 0.0
C2398 C 0.22344 0.42465 0.33472 0.0
C2399 C 0.22638 0.40809 0.31616 0.0
C2400 C 0.22475 0.39293 0.30992 0.0
C2401 C 0.22877 0.43686 0.32684 0.0
C2402 C 0.23311 0.4346 0.31353 0.0
C2403 C 0.23184 0.42027 0.30836 0.0
C2404 C 0.23903 0.44693 0.30474 0.0
C2405 C 0.22944 0.45205 0.33271 0.0
C2406 C 0.23146 0.44897 0.29233 0.0
C2407 C 0.23755 0.45996 0.28355 0.0
C2408 C 0.25138 0.46905 0.28699 0.0
C2409 C 0.25881 0.46708 0.29955 0.0
C2410 C 0.25271 0.4561 0.30832 0.0
H2411 H 0.22246 0.45195 0.34166 0.0
H2412 H 0.24122 0.45667 0.33602 0.0
H2413 H 0.22562 0.45945 0.32497 0.0
H2414 H 0.2209 0.44195 0.28938 0.0
H2415 H 0.23146 0.46127 0.27404 0.0
H2416 H 0.18205 0.70915 0.33721 0.0
H2417 H 0.16085 0.72221 0.33285 0.0
H2418 H 0.1337 0.68213 0.31695 0.0
H2419 H 0.15466 0.66912 0.32165 0.0
H2420 H 0.14695 0.72699 0.30919 0.0
H2421 H 0.10447 0.69555 0.34097 0.0
H2422 H 0.124 0.69382 0.34255 0.0
H2423 H 0.11169 0.68381 0.32945 0.0
C2424 C 0.1714 0.70311 0.33313 0.0
C2425 C 0.16984 0.68809 0.33002 0.0
C2426 C 0.15932 0.71058 0.33054 0.0
C2427 C 0.14547 0.70316 0.32477 0.0
C2428 C 0.14401 0.68809 0.32178 0.0
H2429 H 0.06353 0.72702 0.28845 0.0
H2430 H 0.08462 0.71502 0.29573 0.0
C2431 C 0.15602 0.68064 0.32443 0.0
C2432 C 0.13291 0.71126 0.32107 0.0
H2433 H 0.09524 0.71051 0.32389 0.0
C2434 C 0.13569 0.72346 0.31255 0.0
C2435 C 0.11813 0.70673 0.32539 0.0
C2436 C 0.11442 0.69436 0.33521 0.0
C2437 C 0.12413 0.73093 0.30797 0.0
C2438 C 0.10933 0.72617 0.31204 0.0
C2439 C 0.10655 0.7141 0.32067 0.0
C2440 C 0.0966 0.73361 0.30748 0.0
C2441 C 0.12774 0.74363 0.2985 0.0
C2442 C 0.09621 0.74805 0.3117 0.0
C2443 C 0.08413 0.75493 0.30758 0.0
C2444 C 0.07214 0.74757 0.29909 0.0
C2445 C 0.0726 0.73311 0.29484 0.0
C2446 C 0.08463 0.72619 0.29907 0.0
H2447 H 0.13889 0.7441 0.29417 0.0
H2448 H 0.11906 0.7429 0.29004 0.0
H2449 H 0.12784 0.75405 0.30416 0.0
H2450 H 0.1052 0.75398 0.31829 0.0
H2451 H 0.08425 0.76608 0.31098 0.0
H2452 H 0.83227 0.63794 0.29879 0.0
H2453 H 0.81968 0.61229 0.29668 0.0
H2454 H 0.80363 0.61471 0.33692 0.0
H2455 H 0.81599 0.64038 0.339 0.0
H2456 H 0.82394 0.58901 0.31176 0.0
H2457 H 0.76528 0.59796 0.31521 0.0
H2458 H 0.78068 0.61275 0.31265 0.0
H2459 H 0.77756 0.60549 0.32934 0.0
C2460 C 0.82607 0.63298 0.30718 0.0
C2461 C 0.82501 0.64117 0.31901 0.0
C2462 C 0.81884 0.61837 0.30595 0.0
C2463 C 0.81047 0.61168 0.31654 0.0
C2464 C 0.80965 0.61976 0.32847 0.0
H2465 H 0.78709 0.5161 0.31694 0.0
H2466 H 0.79462 0.54138 0.32529 0.0
C2467 C 0.81677 0.6344 0.32966 0.0
C2468 C 0.80306 0.59609 0.31524 0.0
H2469 H 0.76907 0.57324 0.31535 0.0
C2470 C 0.81195 0.58555 0.31257 0.0
C2471 C 0.78738 0.59164 0.31621 0.0
C2472 C 0.77713 0.60255 0.31838 0.0
C2473 C 0.80562 0.57069 0.3107 0.0
C2474 C 0.78998 0.56618 0.31192 0.0
C2475 C 0.78108 0.5767 0.31467 0.0
C2476 C 0.7826 0.5508 0.30905 0.0
C2477 C 0.81567 0.56009 0.30687 0.0
C2478 C 0.7723 0.54764 0.29787 0.0
C2479 C 0.76775 0.53319 0.29322 0.0
C2480 C 0.77357 0.52167 0.2996 0.0
C2481 C 0.78258 0.52473 0.31167 0.0
C2482 C 0.787 0.53918 0.3164 0.0
H2483 H 0.82658 0.56584 0.30335 0.0
H2484 H 0.81805 0.55358 0.31587 0.0
H2485 H 0.81016 0.55238 0.29871 0.0
H2486 H 0.76863 0.55643 0.29215 0.0
H2487 H 0.76067 0.53126 0.28397 0.0
H2488 H 0.87467 0.28711 0.36053 0.0
H2489 H 0.89282 0.27348 0.35125 0.0
H2490 H 0.92346 0.31403 0.34615 0.0
H2491 H 0.90583 0.32762 0.35602 0.0
H2492 H 0.90491 0.27399 0.32681 0.0
H2493 H 0.95084 0.29072 0.36593 0.0
H2494 H 0.93205 0.29408 0.36791 0.0
H2495 H 0.94482 0.30615 0.35788 0.0
C2496 C 0.88535 0.29314 0.35762 0.0
C2497 C 0.88868 0.30854 0.35911 0.0
C2498 C 0.89571 0.28531 0.3522 0.0
C2499 C 0.90971 0.29264 0.34819 0.0
C2500 C 0.91294 0.30801 0.34944 0.0
H2501 H 0.98587 0.26739 0.30902 0.0
H2502 H 0.96735 0.28039 0.31857 0.0
C2503 C 0.90266 0.31583 0.35491 0.0
C2504 C 0.92079 0.2843 0.34246 0.0
H2505 H 0.95727 0.27901 0.34601 0.0
C2506 C 0.91632 0.27502 0.33109 0.0
C2507 C 0.93573 0.28555 0.348 0.0
C2508 C 0.94112 0.29454 0.36068 0.0
C2509 C 0.9264 0.26731 0.32497 0.0
C2510 C 0.94138 0.26876 0.33039 0.0
C2511 C 0.94584 0.27795 0.34178 0.0
C2512 C 0.95255 0.26076 0.32443 0.0
C2513 C 0.92104 0.2579 0.31253 0.0
C2514 C 0.95053 0.24537 0.32463 0.0
C2515 C 0.96114 0.2379 0.3192 0.0
C2516 C 0.97403 0.24561 0.31339 0.0
C2517 C 0.97603 0.26105 0.31323 0.0
C2518 C 0.96547 0.26852 0.31877 0.0
H2519 H 0.91041 0.26048 0.30786 0.0
H2520 H 0.92967 0.25935 0.30482 0.0
H2521 H 0.91901 0.24619 0.31545 0.0
H2522 H 0.94079 0.23912 0.3291 0.0
H2523 H 0.95912 0.22604 0.31943 0.0
H2524 H 0.86281 0.39119 0.73597 0.0
H2525 H 0.85669 0.41178 0.74934 0.0
H2526 H 0.83522 0.42716 0.71357 0.0
H2527 H 0.84132 0.40671 0.70029 0.0
H2528 H 0.86393 0.44336 0.74472 0.0
H2529 H 0.80242 0.42279 0.74191 0.0
H2530 H 0.81589 0.41121 0.73833 0.0
H2531 H 0.81126 0.42408 0.72596 0.0
C2532 C 0.85695 0.3991 0.73099 0.0
C2533 C 0.8526 0.39749 0.71713 0.0
C2534 C 0.8534 0.4108 0.73861 0.0
C2535 C 0.84527 0.4209 0.73251 0.0
C2536 C 0.84126 0.41941 0.71856 0.0
H2537 H 0.80979 0.49608 0.7661 0.0
H2538 H 0.81524 0.47672 0.75077 0.0
C2539 C 0.84487 0.4078 0.71097 0.0
C2540 C 0.84096 0.43302 0.74065 0.0
H2541 H 0.81073 0.44616 0.75213 0.0
C2542 C 0.8523 0.44395 0.74636 0.0
C2543 C 0.82576 0.43392 0.74265 0.0
C2544 C 0.81309 0.42234 0.737 0.0
C2545 C 0.8489 0.45575 0.75397 0.0
C2546 C 0.83372 0.45647 0.75629 0.0
C2547 C 0.82235 0.44566 0.75038 0.0
C2548 C 0.82959 0.46782 0.76554 0.0
C2549 C 0.86166 0.46745 0.75928 0.0
C2550 C 0.83535 0.46896 0.77905 0.0
C2551 C 0.83233 0.47995 0.7877 0.0
C2552 C 0.82326 0.49005 0.78321 0.0
C2553 C 0.81684 0.48852 0.76987 0.0
C2554 C 0.81999 0.47748 0.7611 0.0
H2555 H 0.87164 0.46798 0.75309 0.0
H2556 H 0.85831 0.47842 0.75937 0.0
H2557 H 0.86505 0.46483 0.76983 0.0
H2558 H 0.84235 0.46139 0.78291 0.0
H2559 H 0.83728 0.48058 0.79797 0.0
H2560 H 0.16191 0.30803 0.67746 0.0
H2561 H 0.13689 0.29514 0.68316 0.0
H2562 H 0.1441 0.31403 0.72357 0.0
H2563 H 0.16897 0.32644 0.71814 0.0
H2564 H 0.13172 0.28388 0.72273 0.0
H2565 H 0.10071 0.31635 0.6875 0.0
H2566 H 0.11428 0.30652 0.68082 0.0
H2567 H 0.12046 0.32208 0.69188 0.0
C2568 C 0.15815 0.30928 0.68758 0.0
C2569 C 0.16728 0.31843 0.69729 0.0
C2570 C 0.14386 0.302 0.69079 0.0
C2571 C 0.13861 0.30377 0.70374 0.0
C2572 C 0.14792 0.31254 0.7135 0.0
H2573 H 0.07114 0.31815 0.74789 0.0
H2574 H 0.08851 0.31577 0.73039 0.0
C2575 C 0.16208 0.31975 0.71033 0.0
C2576 C 0.12328 0.29716 0.7074 0.0
H2577 H 0.0874 0.30382 0.70482 0.0
C2578 C 0.12187 0.28785 0.71859 0.0
C2579 C 0.11051 0.30235 0.7019 0.0
C2580 C 0.11144 0.31242 0.68988 0.0
C2581 C 0.10846 0.28485 0.72536 0.0
C2582 C 0.09601 0.29107 0.72054 0.0
C2583 C 0.09697 0.29911 0.70849 0.0
C2584 C 0.08338 0.29204 0.7293 0.0
C2585 C 0.10824 0.27628 0.73835 0.0
C2586 C 0.07425 0.27951 0.73415 0.0
C2587 C 0.06437 0.28083 0.74438 0.0
C2588 C 0.06341 0.29473 0.74978 0.0
C2589 C 0.07172 0.30727 0.7441 0.0
C2590 C 0.08161 0.30593 0.734 0.0
H2591 H 0.11948 0.27385 0.74153 0.0
H2592 H 0.10428 0.28246 0.74672 0.0
H2593 H 0.1004 0.2657 0.73688 0.0
H2594 H 0.0752 0.2687 0.73044 0.0
H2595 H 0.05798 0.27097 0.74845 0.0
H2596 H 0.90971 0.68366 0.67977 0.0
H2597 H 0.93175 0.70315 0.68256 0.0
H2598 H 0.90332 0.73579 0.67845 0.0
H2599 H 0.88112 0.71629 0.67562 0.0
H2600 H 0.94031 0.7337 0.66449 0.0
H2601 H 0.92786 0.73653 0.71918 0.0
H2602 H 0.92229 0.71962 0.70957 0.0
H2603 H 0.91297 0.73483 0.70609 0.0
C2604 C 0.90818 0.69499 0.67925 0.0
C2605 C 0.89372 0.69849 0.67759 0.0
C2606 C 0.92076 0.70609 0.68075 0.0
C2607 C 0.91909 0.72084 0.68069 0.0
C2608 C 0.90477 0.72443 0.67841 0.0
H2609 H 0.99034 0.78333 0.72201 0.0
H2610 H 0.96652 0.77479 0.70925 0.0
C2611 C 0.89215 0.71331 0.6768 0.0
C2612 C 0.93217 0.73223 0.68464 0.0
H2613 H 0.95116 0.74896 0.7128 0.0
C2614 C 0.94263 0.73729 0.67499 0.0
C2615 C 0.93502 0.73694 0.69831 0.0
C2616 C 0.92401 0.73177 0.70897 0.0
C2617 C 0.95622 0.7466 0.67881 0.0
C2618 C 0.95954 0.75053 0.69268 0.0
C2619 C 0.94867 0.746 0.70216 0.0
C2620 C 0.97466 0.75792 0.69796 0.0
C2621 C 0.9669 0.75198 0.66796 0.0
C2622 C 0.98734 0.75167 0.69553 0.0
C2623 C 1.00103 0.75668 0.70266 0.0
C2624 C 1.00221 0.76782 0.71261 0.0
C2625 C 0.98977 0.77468 0.71446 0.0
C2626 C 0.97614 0.7698 0.70717 0.0
H2627 H 0.96069 0.75309 0.65812 0.0
H2628 H 0.97396 0.76273 0.67079 0.0
H2629 H 0.97434 0.74386 0.66641 0.0
H2630 H 0.98646 0.74225 0.68879 0.0
H2631 H 1.01035 0.75109 0.70105 0.0
H2632 H 0.73877 0.17107 0.66056 0.0
H2633 H 0.74915 0.18332 0.6403 0.0
H2634 H 0.70447 0.18356 0.62333 0.0
H2635 H 0.69393 0.17083 0.64319 0.0
H2636 H 0.73836 0.17116 0.60994 0.0
H2637 H 0.73153 0.22822 0.62271 0.0
H2638 H 0.7344 0.21525 0.63579 0.0
H2639 H 0.71682 0.21307 0.62617 0.0
C2640 C 0.7311 0.17361 0.65251 0.0
C2641 C 0.71544 0.16994 0.65369 0.0
C2642 C 0.73708 0.18073 0.64096 0.0
C2643 C 0.72759 0.1845 0.63036 0.0
C2644 C 0.71201 0.18095 0.63146 0.0
H2645 H 0.75195 0.23217 0.55445 0.0
H2646 H 0.73767 0.2216 0.57381 0.0
C2647 C 0.70601 0.17372 0.64293 0.0
C2648 C 0.73395 0.19155 0.61787 0.0
H2649 H 0.74243 0.22455 0.60204 0.0
C2650 C 0.73922 0.18282 0.6082 0.0
C2651 C 0.73479 0.20671 0.61547 0.0
C2652 C 0.72914 0.21648 0.62554 0.0
C2653 C 0.74552 0.18886 0.59629 0.0
C2654 C 0.74705 0.20418 0.59413 0.0
C2655 C 0.74135 0.21285 0.60365 0.0
C2656 C 0.75558 0.21138 0.58265 0.0
C2657 C 0.75038 0.17867 0.58608 0.0
C2658 C 0.7705 0.20963 0.58137 0.0
C2659 C 0.77852 0.21548 0.57038 0.0
C2660 C 0.77201 0.22354 0.56036 0.0
C2661 C 0.75727 0.22596 0.56192 0.0
C2662 C 0.74912 0.21991 0.57298 0.0
H2663 H 0.74395 0.16734 0.58678 0.0
H2664 H 0.7489 0.18253 0.57555 0.0
H2665 H 0.76242 0.17816 0.58821 0.0
H2666 H 0.77598 0.20357 0.58887 0.0
H2667 H 0.78994 0.21361 0.56975 0.0
H2668 H 0.36721 0.22853 0.64389 0.0
H2669 H 0.3714 0.24448 0.62411 0.0
H2670 H 0.33263 0.26338 0.63302 0.0
H2671 H 0.32861 0.24759 0.65282 0.0
H2672 H 0.35098 0.24281 0.60278 0.0
H2673 H 0.36229 0.29955 0.62335 0.0
H2674 H 0.36396 0.28385 0.63374 0.0
H2675 H 0.34588 0.28888 0.63005 0.0
C2676 C 0.35986 0.23638 0.64175 0.0
C2677 C 0.34766 0.237 0.64975 0.0
C2678 C 0.36225 0.24546 0.6305 0.0
C2679 C 0.35248 0.25529 0.62721 0.0
C2680 C 0.34055 0.25619 0.63556 0.0
H2681 H 0.31602 0.29592 0.56146 0.0
H2682 H 0.32601 0.28925 0.5835 0.0
C2683 C 0.33818 0.24711 0.64678 0.0
C2684 C 0.35338 0.26309 0.61412 0.0
H2685 H 0.35263 0.29652 0.59996 0.0
C2686 C 0.35171 0.2546 0.60213 0.0
C2687 C 0.35429 0.27846 0.61332 0.0
C2688 C 0.35685 0.28823 0.62581 0.0
C2689 C 0.34989 0.2609 0.5894 0.0
C2690 C 0.35008 0.27619 0.58863 0.0
C2691 C 0.35251 0.28481 0.60057 0.0
C2692 C 0.34592 0.28299 0.57575 0.0
C2693 C 0.34676 0.25096 0.577 0.0
C2694 C 0.35421 0.2824 0.56418 0.0
C2695 C 0.34845 0.28609 0.55148 0.0
C2696 C 0.33438 0.29053 0.55021 0.0
C2697 C 0.32682 0.29239 0.56203 0.0
C2698 C 0.33253 0.28862 0.57468 0.0
H2699 H 0.34426 0.23918 0.57971 0.0
H2700 H 0.33712 0.25358 0.57067 0.0
H2701 H 0.35676 0.2526 0.57077 0.0
H2702 H 0.36474 0.27836 0.56486 0.0
H2703 H 0.35465 0.28469 0.5426 0.0
H2704 H 0.36423 0.81985 0.67133 0.0
H2705 H 0.35738 0.80594 0.65013 0.0
H2706 H 0.34731 0.84483 0.63059 0.0
H2707 H 0.35498 0.85901 0.65147 0.0
H2708 H 0.33158 0.79966 0.63553 0.0
H2709 H 0.37339 0.83163 0.60332 0.0
H2710 H 0.37421 0.83399 0.62152 0.0
H2711 H 0.3618 0.84289 0.61096 0.0
C2712 C 0.36085 0.82556 0.66247 0.0
C2713 C 0.36031 0.84067 0.66321 0.0
C2714 C 0.35679 0.81752 0.65034 0.0
C2715 C 0.35206 0.82433 0.6386 0.0
C2716 C 0.35127 0.83933 0.63935 0.0
H2717 H 0.31357 0.79267 0.55875 0.0
H2718 H 0.32151 0.80665 0.57986 0.0
C2719 C 0.35545 0.84742 0.65143 0.0
C2720 C 0.34758 0.81565 0.62572 0.0
H2721 H 0.3538 0.81471 0.59178 0.0
C2722 C 0.33654 0.80292 0.62601 0.0
C2723 C 0.35404 0.8198 0.61321 0.0
C2724 C 0.36662 0.83273 0.61223 0.0
C2725 C 0.33162 0.79448 0.61417 0.0
C2726 C 0.33789 0.7988 0.60168 0.0
C2727 C 0.34894 0.81146 0.60135 0.0
C2728 C 0.33312 0.79028 0.58885 0.0
C2729 C 0.31956 0.78109 0.61503 0.0
C2730 C 0.33712 0.77648 0.58681 0.0
C2731 C 0.33267 0.76849 0.57471 0.0
C2732 C 0.32402 0.77409 0.56441 0.0
C2733 C 0.32006 0.78795 0.5665 0.0
C2734 C 0.32466 0.79599 0.57854 0.0
H2735 H 0.31422 0.78047 0.62494 0.0
H2736 H 0.31075 0.78107 0.60677 0.0
H2737 H 0.32457 0.77109 0.6137 0.0
H2738 H 0.34373 0.77189 0.59459 0.0
H2739 H 0.33582 0.75783 0.57352 0.0
H2740 H 0.70331 0.8321 0.60301 0.0
H2741 H 0.72378 0.83279 0.58745 0.0
H2742 H 0.74869 0.81176 0.61753 0.0
H2743 H 0.72817 0.81099 0.63303 0.0
H2744 H 0.75606 0.84467 0.59085 0.0
H2745 H 0.74289 0.78405 0.58352 0.0
H2746 H 0.73 0.79433 0.59082 0.0
H2747 H 0.74597 0.79055 0.60082 0.0
C2748 C 0.71326 0.82779 0.60628 0.0
C2749 C 0.71429 0.82143 0.61906 0.0
C2750 C 0.72491 0.82822 0.59745 0.0
C2751 C 0.73764 0.8222 0.60132 0.0
C2752 C 0.73887 0.81632 0.61433 0.0
H2753 H 0.80762 0.79897 0.55302 0.0
H2754 H 0.79344 0.80464 0.57223 0.0
C2755 C 0.72722 0.81591 0.62315 0.0
C2756 C 0.74917 0.82123 0.59143 0.0
H2757 H 0.7635 0.79667 0.57238 0.0
C2758 C 0.75777 0.8342 0.58682 0.0
C2759 C 0.75131 0.80754 0.58622 0.0
C2760 C 0.742 0.7933 0.59048 0.0
C2761 C 0.76857 0.83381 0.57716 0.0
C2762 C 0.77056 0.82011 0.57181 0.0
C2763 C 0.76204 0.80716 0.57655 0.0
C2764 C 0.78086 0.81877 0.56085 0.0
C2765 C 0.77785 0.84804 0.57289 0.0
C2766 C 0.77875 0.8251 0.54815 0.0
C2767 C 0.78692 0.82194 0.53719 0.0
C2768 C 0.79715 0.8122 0.53871 0.0
C2769 C 0.79971 0.80641 0.55157 0.0
C2770 C 0.79165 0.80966 0.56253 0.0
H2771 H 0.77839 0.85677 0.58077 0.0
H2772 H 0.78946 0.84664 0.57085 0.0
H2773 H 0.77261 0.8518 0.56345 0.0
H2774 H 0.77023 0.83187 0.54651 0.0
H2775 H 0.78455 0.82639 0.52736 0.0
H2776 H 0.6981 0.82946 0.41978 0.0
H2777 H 0.70639 0.81256 0.43638 0.0
H2778 H 0.71793 0.78605 0.40377 0.0
H2779 H 0.70985 0.80315 0.38715 0.0
H2780 H 0.70047 0.78143 0.44125 0.0
H2781 H 0.7582 0.8017 0.42465 0.0
H2782 H 0.74253 0.81045 0.41969 0.0
H2783 H 0.74462 0.79351 0.41167 0.0
C2784 C 0.702 0.81977 0.41619 0.0
C2785 C 0.70337 0.81748 0.4023 0.0
C2786 C 0.70672 0.81014 0.42565 0.0
C2787 C 0.71296 0.79818 0.42131 0.0
C2788 C 0.7133 0.79531 0.40732 0.0
H2789 H 0.77471 0.7566 0.47184 0.0
H2790 H 0.75677 0.75963 0.45318 0.0
C2791 C 0.70862 0.805 0.39786 0.0
C2792 C 0.72078 0.78998 0.43141 0.0
H2793 H 0.75589 0.78586 0.44302 0.0
C2794 C 0.71257 0.78221 0.44156 0.0
C2795 C 0.73657 0.79105 0.4318 0.0
C2796 C 0.74607 0.7997 0.42146 0.0
C2797 C 0.71978 0.7757 0.45225 0.0
C2798 C 0.73563 0.77728 0.45292 0.0
C2799 C 0.74374 0.78458 0.44248 0.0
C2800 C 0.7443 0.77277 0.46487 0.0
C2801 C 0.71037 0.76729 0.46275 0.0
C2802 C 0.743 0.77876 0.47778 0.0
C2803 C 0.75318 0.77695 0.48851 0.0
C2804 C 0.76502 0.76932 0.48646 0.0
C2805 C 0.76577 0.7626 0.47375 0.0
C2806 C 0.75551 0.76432 0.46306 0.0
H2807 H 0.69896 0.76264 0.45841 0.0
H2808 H 0.71568 0.75823 0.46696 0.0
H2809 H 0.70907 0.77486 0.4712 0.0
H2810 H 0.7347 0.78562 0.47938 0.0
H2811 H 0.7523 0.78232 0.49815 0.0
H2812 H 0.74685 0.17857 0.37355 0.0
H2813 H 0.75713 0.18691 0.39611 0.0
H2814 H 0.71288 0.19104 0.40791 0.0
H2815 H 0.70233 0.18189 0.38543 0.0
H2816 H 0.75844 0.21139 0.41042 0.0
H2817 H 0.72513 0.16579 0.43792 0.0
H2818 H 0.7257 0.16583 0.41967 0.0
H2819 H 0.71392 0.17645 0.42805 0.0
C2820 C 0.73922 0.1811 0.38095 0.0
C2821 C 0.72367 0.17922 0.37769 0.0
C2822 C 0.74517 0.186 0.39387 0.0
C2823 C 0.73579 0.18928 0.40392 0.0
C2824 C 0.72034 0.18818 0.40051 0.0
H2825 H 0.75837 0.21987 0.48802 0.0
H2826 H 0.74584 0.21364 0.4656 0.0
C2827 C 0.71433 0.18315 0.38756 0.0
C2828 C 0.74234 0.19369 0.41788 0.0
H2829 H 0.74073 0.1842 0.45136 0.0
C2830 C 0.75453 0.20542 0.41935 0.0
C2831 C 0.73735 0.18591 0.42962 0.0
C2832 C 0.72491 0.17271 0.42877 0.0
C2833 C 0.76179 0.20954 0.4321 0.0
C2834 C 0.75683 0.20172 0.44377 0.0
C2835 C 0.74451 0.19018 0.4424 0.0
C2836 C 0.76443 0.20529 0.45744 0.0
C2837 C 0.77472 0.22228 0.43306 0.0
C2838 C 0.77898 0.20248 0.46039 0.0
C2839 C 0.78616 0.20595 0.47324 0.0
C2840 C 0.77897 0.21242 0.48339 0.0
C2841 C 0.76432 0.21508 0.48041 0.0
C2842 C 0.7571 0.21146 0.46762 0.0
H2843 H 0.77541 0.22885 0.42366 0.0
H2844 H 0.77365 0.22957 0.44181 0.0
H2845 H 0.78539 0.21806 0.43473 0.0
H2846 H 0.78481 0.1976 0.45273 0.0
H2847 H 0.79746 0.20385 0.47513 0.0
H2848 H 0.30708 0.20378 0.37723 0.0
H2849 H 0.30646 0.21699 0.39877 0.0
H2850 H 0.35177 0.21108 0.40946 0.0
H2851 H 0.35238 0.19784 0.38781 0.0
H2852 H 0.31116 0.20294 0.42441 0.0
H2853 H 0.35087 0.2554 0.41856 0.0
H2854 H 0.34195 0.24447 0.40417 0.0
H2855 H 0.35716 0.23876 0.41384 0.0
C2856 C 0.317 0.20563 0.38407 0.0
C2857 C 0.32981 0.19999 0.38098 0.0
C2858 C 0.31663 0.21311 0.39634 0.0
C2859 C 0.3291 0.21507 0.40563 0.0
C2860 C 0.34213 0.20985 0.40231 0.0
H2861 H 0.32553 0.23296 0.49221 0.0
H2862 H 0.33096 0.22309 0.47032 0.0
C2863 C 0.34248 0.20231 0.39002 0.0
C2864 C 0.32784 0.22133 0.41925 0.0
H2865 H 0.34046 0.25107 0.43998 0.0
C2866 C 0.31759 0.21344 0.42785 0.0
C2867 C 0.33624 0.23504 0.42362 0.0
C2868 C 0.34713 0.24402 0.41458 0.0
C2869 C 0.31543 0.21892 0.44073 0.0
C2870 C 0.32384 0.23261 0.44514 0.0
C2871 C 0.33413 0.24052 0.43656 0.0
C2872 C 0.32153 0.23912 0.45841 0.0
C2873 C 0.30391 0.21022 0.44942 0.0
C2874 C 0.3147 0.25154 0.45893 0.0
C2875 C 0.31145 0.25714 0.4714 0.0
C2876 C 0.31508 0.25046 0.48361 0.0
C2877 C 0.32232 0.23822 0.48303 0.0
C2878 C 0.32551 0.23261 0.47054 0.0
H2879 H 0.29651 0.20123 0.44357 0.0
H2880 H 0.30974 0.20529 0.4579 0.0
H2881 H 0.29682 0.21747 0.45388 0.0
H2882 H 0.3115 0.25667 0.44965 0.0
H2883 H 0.30574 0.26645 0.47139 0.0
H2884 H 0.32024 0.81757 0.37782 0.0
H2885 H 0.30937 0.81198 0.39989 0.0
H2886 H 0.3536 0.81224 0.41827 0.0
H2887 H 0.36454 0.81808 0.3964 0.0
H2888 H 0.31122 0.78755 0.4165 0.0
H2889 H 0.33616 0.83915 0.44384 0.0
H2890 H 0.3355 0.83743 0.42556 0.0
H2891 H 0.34978 0.83063 0.43572 0.0
C2892 C 0.32768 0.81665 0.3866 0.0
C2893 C 0.3433 0.8183 0.38527 0.0
C2894 C 0.32143 0.81336 0.39921 0.0
C2895 C 0.33065 0.81186 0.41083 0.0
C2896 C 0.34623 0.81358 0.40954 0.0
H2897 H 0.32862 0.78411 0.49262 0.0
H2898 H 0.33341 0.79491 0.47049 0.0
C2899 C 0.35247 0.81677 0.39696 0.0
C2900 C 0.32407 0.80796 0.42422 0.0
H2901 H 0.32621 0.81891 0.45757 0.0
C2902 C 0.3143 0.79451 0.42544 0.0
C2903 C 0.32802 0.81703 0.43592 0.0
C2904 C 0.33782 0.83193 0.43521 0.0
C2905 C 0.30909 0.78953 0.43813 0.0
C2906 C 0.3135 0.79838 0.44993 0.0
C2907 C 0.32279 0.81209 0.44858 0.0
C2908 C 0.31001 0.79299 0.4639 0.0
C2909 C 0.29956 0.77449 0.43889 0.0
C2910 C 0.29518 0.78871 0.46791 0.0
C2911 C 0.29236 0.7825 0.48074 0.0
C2912 C 0.30434 0.78047 0.48977 0.0
C2913 C 0.31911 0.78545 0.48593 0.0
C2914 C 0.32189 0.79165 0.47323 0.0
H2915 H 0.29963 0.76794 0.42942 0.0
H2916 H 0.30355 0.76832 0.44755 0.0
H2917 H 0.28779 0.77564 0.44049 0.0
H2918 H 0.28579 0.78989 0.46103 0.0
H2919 H 0.28087 0.7787 0.48333 0.0
H2920 H 0.65076 0.1562 0.71286 0.0
H2921 H 0.63455 0.1692 0.72576 0.0
H2922 H 0.652 0.20938 0.70569 0.0
H2923 H 0.668 0.19622 0.69254 0.0
H2924 H 0.63985 0.19239 0.7435 0.0
H2925 H 0.60734 0.20664 0.69779 0.0
H2926 H 0.62021 0.19387 0.69714 0.0
H2927 H 0.62717 0.2133 0.69766 0.0
C2928 C 0.65125 0.16786 0.71135 0.0
C2929 C 0.66063 0.17526 0.7018 0.0
C2930 C 0.64196 0.17527 0.71869 0.0
C2931 C 0.64178 0.19024 0.71655 0.0
C2932 C 0.65163 0.19777 0.70732 0.0
H2933 H 0.58581 0.24851 0.75062 0.0
H2934 H 0.60502 0.23862 0.7388 0.0
C2935 C 0.6609 0.19031 0.69993 0.0
C2936 C 0.63109 0.19775 0.72383 0.0
H2937 H 0.60143 0.21586 0.71886 0.0
C2938 C 0.63147 0.19753 0.73809 0.0
C2939 C 0.62009 0.20448 0.71682 0.0
C2940 C 0.61853 0.2045 0.70151 0.0
C2941 C 0.62125 0.20384 0.74549 0.0
C2942 C 0.61016 0.21039 0.73848 0.0
C2943 C 0.60993 0.21085 0.72424 0.0
C2944 C 0.59843 0.21643 0.74571 0.0
C2945 C 0.62251 0.20353 0.7608 0.0
C2946 C 0.58812 0.20723 0.75338 0.0
C2947 C 0.577 0.21282 0.76006 0.0
C2948 C 0.57585 0.22778 0.75927 0.0
C2949 C 0.58615 0.23694 0.75144 0.0
C2950 C 0.59724 0.23131 0.7447 0.0
H2951 H 0.63379 0.20176 0.76463 0.0
H2952 H 0.62028 0.21392 0.76528 0.0
H2953 H 0.61407 0.19439 0.76439 0.0
H2954 H 0.58856 0.19565 0.75407 0.0
H2955 H 0.56919 0.20529 0.76571 0.0
H2956 H 0.33663 0.16591 0.68413 0.0
H2957 H 0.32762 0.14313 0.69587 0.0
H2958 H 0.34895 0.16228 0.73347 0.0
H2959 H 0.35816 0.18506 0.72172 0.0
H2960 H 0.35449 0.13473 0.72916 0.0
H2961 H 0.29354 0.135 0.72117 0.0
H2962 H 0.3031 0.13624 0.70562 0.0
H2963 H 0.30759 0.15085 0.71808 0.0
C2964 C 0.33925 0.16532 0.69493 0.0
C2965 C 0.34803 0.17729 0.70203 0.0
C2966 C 0.33406 0.15231 0.70163 0.0
C2967 C 0.33737 0.1511 0.7156 0.0
C2968 C 0.34621 0.16301 0.7227 0.0
H2969 H 0.31339 0.08099 0.77319 0.0
H2970 H 0.32308 0.10426 0.76259 0.0
C2971 C 0.35149 0.17599 0.71598 0.0
C2972 C 0.33201 0.13725 0.72269 0.0
H2973 H 0.30046 0.11275 0.7292 0.0
C2974 C 0.34267 0.12999 0.72927 0.0
C2975 C 0.31658 0.1311 0.72286 0.0
C2976 C 0.30453 0.13877 0.71667 0.0
C2977 C 0.33831 0.11655 0.73571 0.0
C2978 C 0.32293 0.11029 0.73561 0.0
C2979 C 0.31226 0.11758 0.72916 0.0
C2980 C 0.31765 0.09607 0.74204 0.0
C2981 C 0.35017 0.10894 0.74232 0.0
C2982 C 0.31136 0.08381 0.73397 0.0
C2983 C 0.30594 0.07044 0.73997 0.0
C2984 C 0.30654 0.06912 0.75419 0.0
C2985 C 0.31293 0.08148 0.76223 0.0
C2986 C 0.31843 0.09483 0.7562 0.0
H2987 H 0.36166 0.11398 0.73956 0.0
H2988 H 0.34968 0.10966 0.75352 0.0
H2989 H 0.3481 0.09714 0.73935 0.0
H2990 H 0.31068 0.08459 0.723 0.0
H2991 H 0.30132 0.06116 0.73343 0.0
H2992 H 0.40366 0.87304 0.71093 0.0
H2993 H 0.42513 0.86654 0.72425 0.0
H2994 H 0.40728 0.82065 0.71739 0.0
H2995 H 0.38587 0.82701 0.70416 0.0
H2996 H 0.42715 0.84946 0.74758 0.0
H2997 H 0.44948 0.82437 0.70358 0.0
H2998 H 0.43521 0.83569 0.70167 0.0
H2999 H 0.43027 0.81679 0.70639 0.0
C3000 C 0.40423 0.86156 0.71238 0.0
C3001 C 0.39312 0.85056 0.7063 0.0
C3002 C 0.41655 0.85786 0.71995 0.0
C3003 C 0.41803 0.8431 0.72157 0.0
C3004 C 0.40664 0.83211 0.71598 0.0
H3005 H 0.48299 0.79519 0.75961 0.0
H3006 H 0.46134 0.803 0.74794 0.0
C3007 C 0.39437 0.83578 0.70842 0.0
C3008 C 0.43149 0.8391 0.72896 0.0
H3009 H 0.46061 0.82058 0.72531 0.0
C3010 C 0.43453 0.84324 0.74269 0.0
C3011 C 0.44115 0.83097 0.7226 0.0
C3012 C 0.43898 0.8268 0.70772 0.0
C3013 C 0.44669 0.83912 0.7503 0.0
C3014 C 0.45624 0.83086 0.74396 0.0
C3015 C 0.45327 0.82685 0.7302 0.0
C3016 C 0.46936 0.8262 0.75137 0.0
C3017 C 0.44893 0.84332 0.76516 0.0
C3018 C 0.48122 0.83662 0.75711 0.0
C3019 C 0.4937 0.83219 0.76375 0.0
C3020 C 0.49469 0.81721 0.76476 0.0
C3021 C 0.48278 0.80681 0.75895 0.0
C3022 C 0.47031 0.81126 0.75231 0.0
H3023 H 0.4386 0.84618 0.76926 0.0
H3024 H 0.45232 0.83426 0.77123 0.0
H3025 H 0.45799 0.85305 0.76649 0.0
H3026 H 0.48096 0.84823 0.75625 0.0
H3027 H 0.5027 0.84056 0.76785 0.0
H3028 H 0.70924 0.85632 0.68834 0.0
H3029 H 0.72691 0.87873 0.6946 0.0
H3030 H 0.73003 0.88993 0.65234 0.0
H3031 H 0.71178 0.86792 0.64603 0.0
H3032 H 0.75599 0.88811 0.68785 0.0
H3033 H 0.7196 0.92684 0.66874 0.0
H3034 H 0.71263 0.90752 0.6706 0.0
H3035 H 0.72326 0.91392 0.65625 0.0
C3036 C 0.71351 0.86364 0.68038 0.0
C3037 C 0.70895 0.86037 0.66669 0.0
C3038 C 0.72373 0.87638 0.68396 0.0
C3039 C 0.72961 0.88612 0.67396 0.0
C3040 C 0.72541 0.88272 0.66026 0.0
H3041 H 0.78891 0.97169 0.68436 0.0
H3042 H 0.77568 0.9485 0.6743 0.0
C3043 C 0.71511 0.87003 0.65666 0.0
C3044 C 0.74005 0.89985 0.67794 0.0
H3045 H 0.74394 0.93721 0.67738 0.0
C3046 C 0.75338 0.89885 0.68551 0.0
C3047 C 0.73665 0.91386 0.67485 0.0
C3048 C 0.72221 0.91567 0.66727 0.0
C3049 C 0.7633 0.91146 0.69022 0.0
C3050 C 0.75974 0.92542 0.68736 0.0
C3051 C 0.74666 0.92646 0.67947 0.0
C3052 C 0.76874 0.93903 0.69342 0.0
C3053 C 0.77747 0.90978 0.69831 0.0
C3054 C 0.76918 0.94137 0.70749 0.0
C3055 C 0.77652 0.95465 0.71327 0.0
C3056 C 0.78363 0.96597 0.70511 0.0
C3057 C 0.78345 0.9634 0.69099 0.0
C3058 C 0.77596 0.9501 0.6852 0.0
H3059 H 0.78053 0.89883 0.69659 0.0
H3060 H 0.787 0.91839 0.69567 0.0
H3061 H 0.77571 0.91097 0.70929 0.0
H3062 H 0.76341 0.93306 0.71398 0.0
H3063 H 0.77609 0.95609 0.72411 0.0
H3064 H 0.65047 0.82186 0.3716 0.0
H3065 H 0.62681 0.8068 0.36295 0.0
H3066 H 0.64186 0.81131 0.32215 0.0
H3067 H 0.66565 0.82575 0.33074 0.0
H3068 H 0.60613 0.81572 0.34544 0.0
H3069 H 0.6258 0.768 0.32305 0.0
H3070 H 0.63758 0.78085 0.33456 0.0
H3071 H 0.63544 0.78505 0.31684 0.0
C3072 C 0.64887 0.8193 0.36083 0.0
C3073 C 0.65989 0.82503 0.35184 0.0
C3074 C 0.63532 0.8108 0.35589 0.0
C3075 C 0.63262 0.80781 0.34192 0.0
C3076 C 0.64378 0.81321 0.33299 0.0
H3077 H 0.5566 0.7724 0.28769 0.0
H3078 H 0.57997 0.78636 0.29816 0.0
C3079 C 0.65731 0.82162 0.33791 0.0
C3080 C 0.6178 0.79998 0.33648 0.0
H3081 H 0.60098 0.77139 0.31587 0.0
C3082 C 0.60498 0.80593 0.33911 0.0
C3083 C 0.61632 0.78723 0.32818 0.0
C3084 C 0.6295 0.77983 0.3256 0.0
C3085 C 0.59078 0.79968 0.33336 0.0
C3086 C 0.58942 0.78718 0.32481 0.0
C3087 C 0.60216 0.78111 0.32231 0.0
C3088 C 0.57476 0.77993 0.31866 0.0
C3089 C 0.57737 0.80661 0.33622 0.0
C3090 C 0.56411 0.77189 0.32678 0.0
C3091 C 0.55084 0.76387 0.32085 0.0
C3092 C 0.54798 0.7638 0.30669 0.0
C3093 C 0.55844 0.77231 0.29863 0.0
C3094 C 0.5718 0.78023 0.30457 0.0
H3095 H 0.58068 0.81759 0.34116 0.0
H3096 H 0.57065 0.80772 0.32666 0.0
H3097 H 0.57006 0.79944 0.34305 0.0
H3098 H 0.56628 0.77145 0.33766 0.0
H3099 H 0.54299 0.75743 0.32734 0.0
H3100 H 0.72473 0.12968 0.36003 0.0
H3101 H 0.73577 0.10946 0.35103 0.0
H3102 H 0.73792 0.12972 0.31182 0.0
H3103 H 0.7269 0.14999 0.32073 0.0
H3104 H 0.72341 0.09065 0.32642 0.0
H3105 H 0.78168 0.12089 0.32217 0.0
H3106 H 0.76879 0.12678 0.33353 0.0
H3107 H 0.7666 0.12964 0.31563 0.0
C3108 C 0.72765 0.1299 0.34952 0.0
C3109 C 0.72494 0.14149 0.34111 0.0
C3110 C 0.73391 0.1183 0.34438 0.0
C3111 C 0.73781 0.11814 0.33079 0.0
C3112 C 0.73514 0.12968 0.32237 0.0
H3113 H 0.77799 0.05921 0.2806 0.0
H3114 H 0.76954 0.08027 0.29086 0.0
C3115 C 0.72873 0.14121 0.32745 0.0
C3116 C 0.74425 0.10569 0.32531 0.0
H3117 H 0.77634 0.09657 0.31358 0.0
C3118 C 0.735 0.0919 0.32366 0.0
C3119 C 0.75933 0.10739 0.3216 0.0
C3120 C 0.76978 0.12193 0.32336 0.0
C3121 C 0.74032 0.07982 0.31819 0.0
C3122 C 0.75551 0.08141 0.31467 0.0
C3123 C 0.76475 0.09526 0.31633 0.0
C3124 C 0.76187 0.06891 0.30901 0.0
C3125 C 0.7294 0.06562 0.31581 0.0
C3126 C 0.761 0.05562 0.31597 0.0
C3127 C 0.76571 0.0435 0.31007 0.0
C3128 C 0.77171 0.04446 0.29715 0.0
C3129 C 0.77346 0.05805 0.29057 0.0
C3130 C 0.76857 0.07012 0.29642 0.0
H3131 H 0.71759 0.06745 0.31513 0.0
H3132 H 0.7316 0.06001 0.30633 0.0
H3133 H 0.73059 0.05822 0.32445 0.0
H3134 H 0.75636 0.05449 0.32589 0.0
H3135 H 0.76431 0.03326 0.3155 0.0
H3136 H 0.36827 0.19938 0.31329 0.0
H3137 H 0.39367 0.21106 0.30827 0.0
H3138 H 0.40801 0.20823 0.35041 0.0
H3139 H 0.38248 0.19628 0.35545 0.0
H3140 H 0.41522 0.2355 0.31802 0.0
H3141 H 0.43192 0.18163 0.32986 0.0
H3142 H 0.41252 0.18381 0.32811 0.0
H3143 H 0.42374 0.19046 0.34314 0.0
C3144 C 0.37676 0.20161 0.32154 0.0
C3145 C 0.37353 0.1968 0.33471 0.0
C3146 C 0.39124 0.2083 0.31868 0.0
C3147 C 0.40275 0.21024 0.32892 0.0
C3148 C 0.39928 0.20663 0.34234 0.0
H3149 H 0.49419 0.24417 0.30362 0.0
H3150 H 0.47185 0.24089 0.31694 0.0
C3151 C 0.38472 0.19993 0.34523 0.0
C3152 C 0.41847 0.21427 0.32501 0.0
H3153 H 0.44958 0.19923 0.31981 0.0
C3154 C 0.42289 0.22772 0.31863 0.0
C3155 C 0.42831 0.20395 0.32566 0.0
C3156 C 0.42393 0.1891 0.33197 0.0
C3157 C 0.43668 0.23093 0.31244 0.0
C3158 C 0.4463 0.22043 0.31278 0.0
C3159 C 0.44215 0.20724 0.31962 0.0
C3160 C 0.46006 0.22232 0.30505 0.0
C3161 C 0.44048 0.24514 0.30495 0.0
C3162 C 0.46095 0.21275 0.29416 0.0
C3163 C 0.47368 0.21459 0.28652 0.0
C3164 C 0.48579 0.22603 0.28964 0.0
C3165 C 0.48496 0.23543 0.30076 0.0
C3166 C 0.47222 0.23357 0.30841 0.0
H3167 H 0.43074 0.25091 0.30371 0.0
H3168 H 0.4497 0.25251 0.3107 0.0
H3169 H 0.44443 0.24312 0.29475 0.0
H3170 H 0.45166 0.20399 0.29143 0.0
H3171 H 0.47386 0.20725 0.27797 0.0
H3172 H 0.34363 0.88153 0.35168 0.0
H3173 H 0.33142 0.90217 0.34458 0.0
H3174 H 0.29936 0.87273 0.31903 0.0
H3175 H 0.3114 0.85213 0.32634 0.0
H3176 H 0.32974 0.91209 0.31905 0.0
H3177 H 0.27185 0.89667 0.336 0.0
H3178 H 0.287 0.88774 0.3422 0.0
H3179 H 0.27753 0.8826 0.32594 0.0
C3180 C 0.33366 0.87944 0.34491 0.0
C3181 C 0.32824 0.86523 0.33977 0.0
C3182 C 0.32675 0.89124 0.34076 0.0
C3183 C 0.31429 0.88907 0.33137 0.0
C3184 C 0.30866 0.87473 0.32653 0.0
H3185 H 0.26887 0.9471 0.28093 0.0
H3186 H 0.2765 0.92599 0.29252 0.0
C3187 C 0.31556 0.86294 0.33071 0.0
C3188 C 0.30815 0.90191 0.32567 0.0
H3189 H 0.27592 0.91608 0.32002 0.0
C3190 C 0.31799 0.91301 0.31941 0.0
C3191 C 0.29278 0.90312 0.32596 0.0
C3192 C 0.2817 0.89197 0.333 0.0
C3193 C 0.31291 0.92505 0.31327 0.0
C3194 C 0.29756 0.92627 0.31354 0.0
C3195 C 0.28768 0.91519 0.31979 0.0
C3196 C 0.29168 0.939 0.30738 0.0
C3197 C 0.32401 0.93619 0.3062 0.0
C3198 C 0.2972 0.95335 0.31214 0.0
C3199 C 0.29285 0.96543 0.30556 0.0
C3200 C 0.28278 0.96349 0.29407 0.0
C3201 C 0.27662 0.94905 0.28975 0.0
C3202 C 0.28101 0.93695 0.29635 0.0
H3203 H 0.33426 0.9318 0.30386 0.0
H3204 H 0.31891 0.93974 0.29659 0.0
H3205 H 0.32749 0.94598 0.31291 0.0
H3206 H 0.30519 0.95525 0.3208 0.0
H3207 H 0.29777 0.97633 0.30927 0.0
H3208 H 0.69428 0.11596 0.69143 0.0
H3209 H 0.70495 0.09594 0.70168 0.0
H3210 H 0.74951 0.12069 0.69841 0.0
H3211 H 0.73891 0.14105 0.68839 0.0
H3212 H 0.74631 0.09122 0.68933 0.0
H3213 H 0.72389 0.09411 0.74034 0.0
H3214 H 0.70993 0.09309 0.7266 0.0
H3215 H 0.72461 0.10889 0.7284 0.0
C3216 C 0.70635 0.11736 0.69309 0.0
C3217 C 0.71567 0.13035 0.68919 0.0
C3218 C 0.71245 0.10581 0.69896 0.0
C3219 C 0.72804 0.10684 0.70108 0.0
C3220 C 0.73743 0.11963 0.69698 0.0
H3221 H 0.77477 0.04545 0.74716 0.0
H3222 H 0.76477 0.06721 0.73954 0.0
C3223 C 0.73133 0.13126 0.69116 0.0
C3224 C 0.73448 0.09437 0.70717 0.0
H3225 H 0.73427 0.07286 0.73533 0.0
C3226 C 0.74374 0.08728 0.69941 0.0
C3227 C 0.73129 0.08926 0.72041 0.0
C3228 C 0.72201 0.09679 0.7295 0.0
C3229 C 0.74949 0.07501 0.70434 0.0
C3230 C 0.74583 0.06955 0.71736 0.0
C3231 C 0.73696 0.07691 0.7253 0.0
C3232 C 0.75098 0.05609 0.72275 0.0
C3233 C 0.75953 0.06802 0.69557 0.0
C3234 C 0.74617 0.04245 0.71619 0.0
C3235 C 0.75176 0.02998 0.72058 0.0
C3236 C 0.76233 0.03079 0.73168 0.0
C3237 C 0.76663 0.04435 0.73862 0.0
C3238 C 0.76096 0.05684 0.73424 0.0
H3239 H 0.76421 0.07549 0.68748 0.0
H3240 H 0.76897 0.06478 0.70177 0.0
H3241 H 0.75292 0.05798 0.69061 0.0
H3242 H 0.73827 0.04149 0.70747 0.0
H3243 H 0.74811 0.01978 0.71497 0.0
H3244 H 0.71907 0.86955 0.34616 0.0
H3245 H 0.72702 0.89125 0.33245 0.0
H3246 H 0.68141 0.89891 0.32891 0.0
H3247 H 0.67337 0.87728 0.34269 0.0
H3248 H 0.71363 0.8965 0.30442 0.0
H3249 H 0.70911 0.93844 0.34404 0.0
H3250 H 0.71134 0.91994 0.34822 0.0
H3251 H 0.69359 0.92344 0.34142 0.0
C3252 C 0.71077 0.87594 0.34255 0.0
C3253 C 0.69561 0.87177 0.3455 0.0
C3254 C 0.7153 0.88824 0.33467 0.0
C3255 C 0.70479 0.89664 0.32976 0.0
C3256 C 0.68967 0.89256 0.3327 0.0
H3257 H 0.71687 0.96673 0.27025 0.0
H3258 H 0.70671 0.94491 0.2831 0.0
C3259 C 0.6851 0.88019 0.34049 0.0
C3260 C 0.70967 0.90965 0.32148 0.0
H3261 H 0.71604 0.94708 0.32242 0.0
C3262 C 0.71411 0.90757 0.30829 0.0
C3263 C 0.71031 0.92401 0.32666 0.0
C3264 C 0.70593 0.92672 0.34089 0.0
C3265 C 0.71921 0.91957 0.30012 0.0
C3266 C 0.71986 0.93393 0.30531 0.0
C3267 C 0.71541 0.93601 0.31849 0.0
C3268 C 0.72585 0.94696 0.29745 0.0
C3269 C 0.72421 0.91689 0.28611 0.0
C3270 C 0.73987 0.9553 0.30138 0.0
C3271 C 0.74568 0.96767 0.29408 0.0
C3272 C 0.7375 0.972 0.28278 0.0
C3273 C 0.72337 0.96368 0.27894 0.0
C3274 C 0.71761 0.95121 0.2862 0.0
H3275 H 0.7248 0.90516 0.28426 0.0
H3276 H 0.71618 0.92027 0.2784 0.0
H3277 H 0.73542 0.92361 0.28465 0.0
H3278 H 0.74633 0.9522 0.3101 0.0
H3279 H 0.75646 0.97399 0.29745 0.0
H3280 H 0.65643 0.18852 0.35328 0.0
H3281 H 0.63593 0.20189 0.34707 0.0
H3282 H 0.65911 0.21881 0.31185 0.0
H3283 H 0.67971 0.20582 0.31827 0.0
H3284 H 0.64464 0.23931 0.32275 0.0
H3285 H 0.60576 0.18589 0.31684 0.0
H3286 H 0.61427 0.18963 0.33361 0.0
H3287 H 0.62573 0.18709 0.31974 0.0
C3288 C 0.6573 0.19546 0.34444 0.0
C3289 C 0.66968 0.19628 0.33631 0.0
C3290 C 0.6455 0.20295 0.34079 0.0
C3291 C 0.64574 0.21116 0.32879 0.0
C3292 C 0.65857 0.21258 0.32112 0.0
H3293 H 0.57571 0.22441 0.27267 0.0
H3294 H 0.59673 0.21833 0.2863 0.0
C3295 C 0.67038 0.20519 0.32482 0.0
C3296 C 0.6323 0.21727 0.32354 0.0
H3297 H 0.59576 0.20701 0.31173 0.0
C3298 C 0.6339 0.23228 0.32047 0.0
C3299 C 0.61827 0.20811 0.32039 0.0
C3300 C 0.61587 0.19177 0.32268 0.0
C3301 C 0.62204 0.23825 0.31411 0.0
C3302 C 0.60809 0.22903 0.31085 0.0
C3303 C 0.60638 0.21414 0.31429 0.0
C3304 C 0.59571 0.23397 0.30243 0.0
C3305 C 0.62474 0.25421 0.31035 0.0
C3306 C 0.58808 0.24507 0.30677 0.0
C3307 C 0.57586 0.24871 0.29883 0.0
C3308 C 0.571 0.24119 0.2865 0.0
C3309 C 0.57895 0.23037 0.28215 0.0
C3310 C 0.59105 0.22684 0.28996 0.0
H3311 H 0.63682 0.25923 0.31145 0.0
H3312 H 0.62061 0.25554 0.29971 0.0
H3313 H 0.61846 0.26033 0.31707 0.0
H3314 H 0.59129 0.25065 0.31643 0.0
H3315 H 0.56998 0.25704 0.30251 0.0
H3316 H 0.33493 0.1355 0.33942 0.0
H3317 H 0.33132 0.11264 0.32615 0.0
H3318 H 0.34163 0.13714 0.28977 0.0
H3319 H 0.34505 0.16014 0.30297 0.0
H3320 H 0.3154 0.11476 0.28741 0.0
H3321 H 0.36504 0.09407 0.3096 0.0
H3322 H 0.35336 0.0998 0.32204 0.0
H3323 H 0.36298 0.11309 0.31086 0.0
C3324 C 0.33629 0.13603 0.32857 0.0
C3325 C 0.34027 0.14959 0.32222 0.0
C3326 C 0.33442 0.12297 0.32105 0.0
C3327 C 0.3365 0.12324 0.30706 0.0
C3328 C 0.34016 0.13674 0.3006 0.0
H3329 H 0.33279 0.04024 0.26154 0.0
H3330 H 0.34146 0.06567 0.26945 0.0
C3331 C 0.34212 0.14983 0.30814 0.0
C3332 C 0.33432 0.10936 0.29917 0.0
H3333 H 0.34625 0.07645 0.2976 0.0
C3334 C 0.32228 0.10646 0.28947 0.0
C3335 C 0.34348 0.09868 0.30173 0.0
C3336 C 0.35704 0.10158 0.31153 0.0
C3337 C 0.31859 0.09277 0.28285 0.0
C3338 C 0.3271 0.08174 0.28613 0.0
C3339 C 0.33969 0.08493 0.29521 0.0
C3340 C 0.32217 0.06645 0.2813 0.0
C3341 C 0.30536 0.09006 0.27266 0.0
C3342 C 0.30871 0.05847 0.28565 0.0
C3343 C 0.30385 0.04402 0.28131 0.0
C3344 C 0.31234 0.03721 0.27248 0.0
C3345 C 0.32603 0.04514 0.26836 0.0
C3346 C 0.33094 0.05967 0.27279 0.0
H3347 H 0.30272 0.10049 0.26851 0.0
H3348 H 0.30751 0.08296 0.26412 0.0
H3349 H 0.29534 0.08438 0.27772 0.0
H3350 H 0.30199 0.06343 0.29251 0.0
H3351 H 0.29348 0.03816 0.28501 0.0
H3352 H 0.37098 0.78725 0.35956 0.0
H3353 H 0.39062 0.77442 0.35195 0.0
H3354 H 0.41202 0.81392 0.33309 0.0
H3355 H 0.39289 0.82694 0.3411 0.0
H3356 H 0.39818 0.76885 0.32641 0.0
H3357 H 0.44747 0.80237 0.35369 0.0
H3358 H 0.42846 0.80355 0.35754 0.0
H3359 H 0.43693 0.8132 0.34332 0.0
C3360 C 0.38001 0.79331 0.35402 0.0
C3361 C 0.38025 0.80821 0.351 0.0
C3362 C 0.39121 0.7859 0.34956 0.0
C3363 C 0.40302 0.7932 0.34208 0.0
C3364 C 0.40329 0.80805 0.33908 0.0
H3365 H 0.47688 0.76825 0.29919 0.0
H3366 H 0.45824 0.78085 0.30887 0.0
C3367 C 0.39215 0.81546 0.34353 0.0
C3368 C 0.41469 0.78518 0.33694 0.0
H3369 H 0.45265 0.78622 0.33629 0.0
C3370 C 0.41008 0.77259 0.32869 0.0
C3371 C 0.43029 0.79001 0.33983 0.0
C3372 C 0.4361 0.80293 0.34919 0.0
C3373 C 0.42053 0.76498 0.32302 0.0
C3374 C 0.43611 0.76991 0.32579 0.0
C3375 C 0.44074 0.78244 0.3341 0.0
C3376 C 0.44775 0.76223 0.32016 0.0
C3377 C 0.4148 0.75193 0.3138 0.0
C3378 C 0.44836 0.7476 0.32344 0.0
C3379 C 0.45913 0.74034 0.31799 0.0
C3380 C 0.46964 0.74751 0.30908 0.0
C3381 C 0.46915 0.76229 0.30603 0.0
C3382 C 0.4584 0.76955 0.31154 0.0
H3383 H 0.40301 0.75177 0.31 0.0
H3384 H 0.42191 0.75189 0.30496 0.0
H3385 H 0.41516 0.74171 0.31951 0.0
H3386 H 0.44053 0.74177 0.33031 0.0
H3387 H 0.45922 0.72911 0.32087 0.0
H3388 H 0.37289 0.91549 0.7113 0.0
H3389 H 0.36783 0.93579 0.72554 0.0
H3390 H 0.3263 0.90923 0.7366 0.0
H3391 H 0.33155 0.88892 0.72263 0.0
H3392 H 0.34477 0.95035 0.72203 0.0
H3393 H 0.3423 0.92609 0.77316 0.0
H3394 H 0.34999 0.91778 0.75916 0.0
H3395 H 0.33 0.91504 0.76081 0.0
C3396 C 0.36293 0.91389 0.71712 0.0
C3397 C 0.35275 0.90059 0.71613 0.0
C3398 C 0.35997 0.92552 0.72517 0.0
C3399 C 0.34676 0.92406 0.73236 0.0
C3400 C 0.33676 0.91059 0.73151 0.0
H3401 H 0.29935 0.98327 0.7751 0.0
H3402 H 0.30725 0.96245 0.76377 0.0
C3403 C 0.33975 0.89897 0.72351 0.0
C3404 C 0.34286 0.93691 0.7398 0.0
H3405 H 0.33208 0.94808 0.77038 0.0
C3406 C 0.34216 0.94988 0.73264 0.0
C3407 C 0.33934 0.93636 0.75366 0.0
C3408 C 0.34058 0.92312 0.76218 0.0
C3409 C 0.33773 0.96209 0.73881 0.0
C3410 C 0.33405 0.96148 0.7526 0.0
C3411 C 0.33483 0.94856 0.7598 0.0
C3412 C 0.32938 0.97413 0.75969 0.0
C3413 C 0.33662 0.97543 0.73037 0.0
C3414 C 0.33923 0.98761 0.76137 0.0
C3415 C 0.33476 0.99953 0.76787 0.0
C3416 C 0.32031 0.99828 0.77287 0.0
C3417 C 0.31053 0.98469 0.77133 0.0
C3418 C 0.31504 0.97275 0.76487 0.0
H3419 H 0.33623 0.9729 0.71932 0.0
H3420 H 0.32647 0.98001 0.73265 0.0
H3421 H 0.34662 0.98401 0.7328 0.0
H3422 H 0.35044 0.98891 0.75769 0.0
H3423 H 0.34264 0.00976 0.76891 0.0
H3424 H 0.65735 0.84773 0.67962 0.0
H3425 H 0.63619 0.84008 0.6939 0.0
H3426 H 0.64005 0.79478 0.68772 0.0
H3427 H 0.66167 0.80235 0.67397 0.0
H3428 H 0.60895 0.82253 0.68769 0.0
H3429 H 0.6402 0.79776 0.72871 0.0
H3430 H 0.64956 0.80918 0.71587 0.0
H3431 H 0.64158 0.79032 0.71207 0.0
C3432 C 0.65386 0.83615 0.68146 0.0
C3433 C 0.6613 0.82567 0.67572 0.0
C3434 C 0.64167 0.83178 0.68953 0.0
C3435 C 0.63668 0.81687 0.69203 0.0
C3436 C 0.64389 0.80636 0.68614 0.0
H3437 H 0.56436 0.77603 0.74281 0.0
H3438 H 0.5829 0.77963 0.72526 0.0
C3439 C 0.65614 0.81071 0.67814 0.0
C3440 C 0.62384 0.81239 0.70074 0.0
H3441 H 0.61396 0.7953 0.73036 0.0
C3442 C 0.61004 0.81654 0.697 0.0
C3443 C 0.62527 0.80452 0.71286 0.0
C3444 C 0.63997 0.80028 0.71771 0.0
C3445 C 0.59767 0.81319 0.70514 0.0
C3446 C 0.59919 0.80557 0.71735 0.0
C3447 C 0.61284 0.80106 0.72092 0.0
C3448 C 0.5872 0.8033 0.72714 0.0
C3449 C 0.58309 0.81789 0.70068 0.0
C3450 C 0.58354 0.81541 0.73394 0.0
C3451 C 0.57311 0.8134 0.74398 0.0
C3452 C 0.56609 0.79922 0.74739 0.0
C3453 C 0.56952 0.78708 0.74035 0.0
C3454 C 0.58011 0.78911 0.73036 0.0
H3455 H 0.58256 0.82026 0.68965 0.0
H3456 H 0.57336 0.80931 0.70292 0.0
H3457 H 0.58205 0.82803 0.70633 0.0
H3458 H 0.58906 0.82643 0.73173 0.0
H3459 H 0.57071 0.82298 0.74921 0.0
H3460 H 0.38571 0.23999 0.69313 0.0
H3461 H 0.41169 0.25149 0.69914 0.0
H3462 H 0.42492 0.20897 0.69892 0.0
H3463 H 0.39921 0.1975 0.69241 0.0
H3464 H 0.42695 0.24672 0.72222 0.0
H3465 H 0.45839 0.23265 0.67902 0.0
H3466 H 0.43821 0.23112 0.67799 0.0
H3467 H 0.44682 0.21662 0.68526 0.0
C3468 C 0.39424 0.23314 0.69401 0.0
C3469 C 0.39039 0.21782 0.69235 0.0
C3470 C 0.40906 0.23973 0.6975 0.0
C3471 C 0.4203 0.23112 0.69928 0.0
C3472 C 0.41654 0.21588 0.69728 0.0
H3473 H 0.50022 0.22678 0.7429 0.0
H3474 H 0.47788 0.22458 0.72761 0.0
C3475 C 0.40177 0.2093 0.69377 0.0
C3476 C 0.43557 0.23772 0.70471 0.0
H3477 H 0.4727 0.23739 0.70063 0.0
C3478 C 0.43698 0.24504 0.71734 0.0
C3479 C 0.44865 0.23556 0.6983 0.0
C3480 C 0.44794 0.22869 0.68432 0.0
C3481 C 0.45104 0.24926 0.7242 0.0
C3482 C 0.464 0.2462 0.71819 0.0
C3483 C 0.46271 0.23966 0.70522 0.0
C3484 C 0.47859 0.24796 0.72598 0.0
C3485 C 0.45185 0.2561 0.73822 0.0
C3486 C 0.4866 0.26189 0.72981 0.0
C3487 C 0.49945 0.2632 0.73856 0.0
C3488 C 0.50436 0.25059 0.74364 0.0
C3489 C 0.49666 0.2367 0.73926 0.0
C3490 C 0.48393 0.23541 0.73047 0.0
H3491 H 0.44055 0.25625 0.74203 0.0
H3492 H 0.45813 0.25002 0.7455 0.0
H3493 H 0.45797 0.26757 0.73798 0.0
H3494 H 0.48268 0.27169 0.72634 0.0
H3495 H 0.50517 0.27405 0.74175 0.0
H3496 H 0.71976 0.69877 0.16214 0.0
H3497 H 0.73253 0.70712 0.14166 0.0
H3498 H 0.73234 0.66225 0.12967 0.0
H3499 H 0.7188 0.65376 0.1497 0.0
H3500 H 0.75925 0.70422 0.13327 0.0
H3501 H 0.7161 0.67719 0.09509 0.0
H3502 H 0.71251 0.67828 0.11285 0.0
H3503 H 0.72234 0.66445 0.10673 0.0
C3504 C 0.72214 0.69062 0.15505 0.0
C3505 C 0.71804 0.67553 0.15764 0.0
C3506 C 0.7296 0.69545 0.14335 0.0
C3507 C 0.73321 0.68536 0.1339 0.0
C3508 C 0.72939 0.6703 0.13656 0.0
H3509 H 0.78454 0.69511 0.06059 0.0
H3510 H 0.77129 0.68591 0.08075 0.0
C3511 C 0.72181 0.66545 0.1482 0.0
C3512 C 0.74132 0.69063 0.12151 0.0
H3513 H 0.73979 0.68764 0.0868 0.0
C3514 C 0.75492 0.70063 0.12312 0.0
C3515 C 0.73574 0.68601 0.10819 0.0
C3516 C 0.7208 0.67602 0.10557 0.0
C3517 C 0.76312 0.70594 0.11189 0.0
C3518 C 0.7576 0.70122 0.09863 0.0
C3519 C 0.74406 0.6912 0.09698 0.0
C3520 C 0.7656 0.70679 0.08634 0.0
C3521 C 0.77777 0.71644 0.11429 0.0
C3522 C 0.76668 0.72155 0.08267 0.0
C3523 C 0.77417 0.72681 0.07112 0.0
C3524 C 0.78083 0.71745 0.06298 0.0
C3525 C 0.77968 0.70265 0.06667 0.0
C3526 C 0.77205 0.69736 0.07817 0.0
H3527 H 0.782 0.71667 0.12508 0.0
H3528 H 0.78645 0.71342 0.1078 0.0
H3529 H 0.7761 0.72767 0.11156 0.0
H3530 H 0.76168 0.72902 0.08873 0.0
H3531 H 0.77495 0.7383 0.06871 0.0
H3532 H 0.31494 0.73945 0.14404 0.0
H3533 H 0.31578 0.74668 0.1202 0.0
H3534 H 0.35447 0.72602 0.11585 0.0
H3535 H 0.35338 0.7185 0.13974 0.0
H3536 H 0.33715 0.76252 0.10376 0.0
H3537 H 0.32318 0.70341 0.08866 0.0
H3538 H 0.32228 0.70958 0.10592 0.0
H3539 H 0.34013 0.70889 0.09905 0.0
C3540 C 0.32381 0.73677 0.13804 0.0
C3541 C 0.33409 0.72848 0.14354 0.0
C3542 C 0.3243 0.74089 0.12446 0.0
C3543 C 0.33504 0.73669 0.11621 0.0
C3544 C 0.34594 0.72916 0.12199 0.0
H3545 H 0.32215 0.73473 0.02737 0.0
H3546 H 0.33562 0.73542 0.04961 0.0
C3547 C 0.3454 0.72497 0.1356 0.0
C3548 C 0.33372 0.73901 0.10137 0.0
H3549 H 0.32315 0.72054 0.0714 0.0
C3550 C 0.33433 0.75336 0.09663 0.0
C3551 C 0.33006 0.72704 0.09209 0.0
C3552 C 0.32875 0.71134 0.09663 0.0
C3553 C 0.3308 0.75602 0.08295 0.0
C3554 C 0.32636 0.74401 0.07385 0.0
C3555 C 0.32659 0.72973 0.07841 0.0
C3556 C 0.31968 0.74572 0.06004 0.0
C3557 C 0.33153 0.77164 0.07843 0.0
C3558 C 0.30634 0.75143 0.05851 0.0
C3559 C 0.2986 0.751 0.04587 0.0
C3560 C 0.304 0.74477 0.0345 0.0
C3561 C 0.3177 0.73961 0.03592 0.0
C3562 C 0.32542 0.74 0.04862 0.0
H3563 H 0.33975 0.77933 0.08496 0.0
H3564 H 0.33467 0.77294 0.06771 0.0
H3565 H 0.32035 0.7748 0.07928 0.0
H3566 H 0.3015 0.75558 0.06723 0.0
H3567 H 0.28809 0.75506 0.04514 0.0
H3568 H 0.36538 0.34956 0.15957 0.0
H3569 H 0.35434 0.33821 0.13813 0.0
H3570 H 0.36137 0.29593 0.15244 0.0
H3571 H 0.37255 0.30729 0.174 0.0
H3572 H 0.36891 0.29988 0.12636 0.0
H3573 H 0.31278 0.31444 0.13141 0.0
H3574 H 0.32748 0.33019 0.13265 0.0
H3575 H 0.32671 0.31623 0.14534 0.0
C3576 C 0.3645 0.33782 0.15822 0.0
C3577 C 0.36974 0.32934 0.16862 0.0
C3578 C 0.3581 0.33132 0.14594 0.0
C3579 C 0.35661 0.31613 0.14373 0.0
C3580 C 0.36224 0.30766 0.15391 0.0
H3581 H 0.30196 0.26753 0.07607 0.0
H3582 H 0.31113 0.27817 0.09847 0.0
C3583 C 0.36872 0.31418 0.16622 0.0
C3584 C 0.34949 0.3092 0.13068 0.0
H3585 H 0.31793 0.3061 0.10943 0.0
C3586 C 0.35773 0.30117 0.12273 0.0
C3587 C 0.33476 0.31061 0.12595 0.0
C3588 C 0.32485 0.3182 0.13434 0.0
C3589 C 0.35189 0.29496 0.11007 0.0
C3590 C 0.3375 0.29706 0.105 0.0
C3591 C 0.32904 0.30466 0.11315 0.0
C3592 C 0.33115 0.29153 0.09125 0.0
C3593 C 0.36119 0.28604 0.10233 0.0
C3594 C 0.33895 0.29594 0.07961 0.0
C3595 C 0.33374 0.28989 0.06683 0.0
C3596 C 0.32048 0.27939 0.0653 0.0
C3597 C 0.31217 0.27563 0.07684 0.0
C3598 C 0.31746 0.28165 0.08968 0.0
H3599 H 0.36954 0.28182 0.10915 0.0
H3600 H 0.354 0.2766 0.09691 0.0
H3601 H 0.36743 0.29309 0.0947 0.0
H3602 H 0.34929 0.30387 0.08043 0.0
H3603 H 0.34038 0.29315 0.05818 0.0
H3604 H 0.73589 0.31451 0.11557 0.0
H3605 H 0.7568 0.3233 0.10126 0.0
H3606 H 0.76992 0.36152 0.12729 0.0
H3607 H 0.74892 0.35255 0.14178 0.0
H3608 H 0.76249 0.34997 0.08725 0.0
H3609 H 0.8089 0.34412 0.12497 0.0
H3610 H 0.78973 0.33542 0.12711 0.0
H3611 H 0.79525 0.3548 0.12998 0.0
C3612 C 0.74327 0.32478 0.11821 0.0
C3613 C 0.74097 0.33289 0.12969 0.0
C3614 C 0.75517 0.3298 0.11005 0.0
C3615 C 0.76498 0.343 0.11326 0.0
C3616 C 0.7626 0.35121 0.12474 0.0
H3617 H 0.8276 0.36973 0.04851 0.0
H3618 H 0.81151 0.37304 0.06712 0.0
C3619 C 0.75063 0.34615 0.13295 0.0
C3620 C 0.77757 0.3479 0.1044 0.0
H3621 H 0.81549 0.3504 0.10279 0.0
C3622 C 0.77412 0.35035 0.09067 0.0
C3623 C 0.7927 0.34831 0.10892 0.0
C3624 C 0.79697 0.34545 0.12352 0.0
C3625 C 0.78529 0.35239 0.08117 0.0
C3626 C 0.80038 0.35227 0.08559 0.0
C3627 C 0.80393 0.35059 0.09946 0.0
C3628 C 0.81213 0.35171 0.07575 0.0
C3629 C 0.78066 0.35365 0.06635 0.0
C3630 C 0.8185 0.33901 0.0749 0.0
C3631 C 0.8278 0.33718 0.06442 0.0
C3632 C 0.83093 0.348 0.05453 0.0
C3633 C 0.8254 0.36118 0.05594 0.0
C3634 C 0.81608 0.36303 0.06649 0.0
H3635 H 0.76828 0.35099 0.06443 0.0
H3636 H 0.78451 0.36505 0.06304 0.0
H3637 H 0.78589 0.34619 0.06 0.0
H3638 H 0.8157 0.33017 0.08198 0.0
H3639 H 0.83216 0.32705 0.06379 0.0
H3640 H 0.7333 0.34496 0.89566 0.0
H3641 H 0.74962 0.34372 0.91612 0.0
H3642 H 0.73616 0.29664 0.9162 0.0
H3643 H 0.72006 0.29789 0.89557 0.0
H3644 H 0.74167 0.3326 0.94154 0.0
H3645 H 0.78197 0.30201 0.91853 0.0
H3646 H 0.76893 0.31067 0.90842 0.0
H3647 H 0.76261 0.29344 0.91636 0.0
C3648 C 0.73397 0.33437 0.90002 0.0
C3649 C 0.72566 0.32149 0.89411 0.0
C3650 C 0.74321 0.33367 0.91169 0.0
C3651 C 0.74424 0.32007 0.91756 0.0
C3652 C 0.73575 0.30721 0.91168 0.0
H3653 H 0.80065 0.30017 0.98738 0.0
H3654 H 0.78049 0.29809 0.96952 0.0
C3655 C 0.72655 0.30792 0.89998 0.0
C3656 C 0.75404 0.31945 0.92995 0.0
H3657 H 0.78521 0.30671 0.94214 0.0
C3658 C 0.75117 0.32692 0.94169 0.0
C3659 C 0.76636 0.31194 0.93012 0.0
C3660 C 0.77028 0.30415 0.91767 0.0
C3661 C 0.7604 0.32719 0.95359 0.0
C3662 C 0.7729 0.31997 0.95366 0.0
C3663 C 0.77555 0.31218 0.94204 0.0
C3664 C 0.78406 0.3213 0.96529 0.0
C3665 C 0.75672 0.33524 0.96597 0.0
C3666 C 0.79266 0.33503 0.96881 0.0
C3667 C 0.80417 0.33625 0.97892 0.0
C3668 C 0.80733 0.32374 0.98569 0.0
C3669 C 0.79844 0.31002 0.98239 0.0
C3670 C 0.78695 0.3088 0.97219 0.0
H3671 H 0.74474 0.33653 0.96556 0.0
H3672 H 0.75916 0.3294 0.9754 0.0
H3673 H 0.76371 0.34635 0.9665 0.0
H3674 H 0.79077 0.34477 0.96344 0.0
H3675 H 0.81081 0.34698 0.98121 0.0
H3676 H 0.70009 0.69205 0.89041 0.0
H3677 H 0.7078 0.70476 0.91207 0.0
H3678 H 0.7537 0.70046 0.90642 0.0
H3679 H 0.74626 0.68858 0.8844 0.0
H3680 H 0.71933 0.69554 0.93446 0.0
H3681 H 0.76 0.74263 0.91757 0.0
H3682 H 0.74752 0.73076 0.90576 0.0
H3683 H 0.76487 0.72565 0.91213 0.0
C3684 C 0.71189 0.69409 0.89358 0.0
C3685 C 0.72252 0.68927 0.88549 0.0
C3686 C 0.71628 0.70128 0.90608 0.0
C3687 C 0.7314 0.70387 0.91087 0.0
C3688 C 0.74203 0.69901 0.90287 0.0
H3689 H 0.76888 0.7105 0.99183 0.0
H3690 H 0.75575 0.7038 0.97002 0.0
C3691 C 0.73768 0.69194 0.89032 0.0
C3692 C 0.73594 0.71082 0.92455 0.0
H3693 H 0.76192 0.737 0.94138 0.0
C3694 C 0.72852 0.70474 0.93591 0.0
C3695 C 0.74769 0.72307 0.92657 0.0
C3696 C 0.75535 0.731 0.91483 0.0
C3697 C 0.733 0.71002 0.94917 0.0
C3698 C 0.74553 0.72148 0.95126 0.0
C3699 C 0.75244 0.7281 0.93987 0.0
C3700 C 0.75245 0.72579 0.96511 0.0
C3701 C 0.72426 0.70315 0.96081 0.0
C3702 C 0.75521 0.7405 0.96974 0.0
C3703 C 0.7629 0.74444 0.98236 0.0
C3704 C 0.76812 0.73375 0.99048 0.0
C3705 C 0.76498 0.71904 0.98592 0.0
C3706 C 0.75735 0.71514 0.97341 0.0
H3707 H 0.71239 0.69886 0.95749 0.0
H3708 H 0.72928 0.69376 0.96462 0.0
H3709 H 0.72444 0.71112 0.96931 0.0
H3710 H 0.75166 0.74896 0.96348 0.0
H3711 H 0.7653 0.75588 0.98548 0.0
H3712 H 0.32301 0.71557 0.86453 0.0
H3713 H 0.3094 0.71244 0.88553 0.0
H3714 H 0.32941 0.67452 0.89518 0.0
H3715 H 0.3431 0.67773 0.87419 0.0
H3716 H 0.28917 0.68732 0.89591 0.0
H3717 H 0.34213 0.70356 0.92778 0.0
H3718 H 0.341 0.70696 0.9098 0.0
H3719 H 0.34166 0.6888 0.91575 0.0
C3720 C 0.32429 0.70648 0.87109 0.0
C3721 C 0.33401 0.69689 0.86793 0.0
C3722 C 0.31655 0.70468 0.88302 0.0
C3723 C 0.31855 0.69335 0.89194 0.0
C3724 C 0.32787 0.68343 0.88849 0.0
H3725 H 0.29164 0.68632 0.97599 0.0
H3726 H 0.30053 0.67992 0.95409 0.0
C3727 C 0.33561 0.68522 0.87654 0.0
C3728 C 0.31153 0.6925 0.90518 0.0
H3729 H 0.31971 0.69853 0.93911 0.0
C3730 C 0.29582 0.68963 0.90538 0.0
C3731 C 0.32028 0.69546 0.9175 0.0
C3732 C 0.3372 0.69898 0.91779 0.0
C3733 C 0.28859 0.68989 0.91761 0.0
C3734 C 0.29733 0.69344 0.92987 0.0
C3735 C 0.31304 0.69579 0.9297 0.0
C3736 C 0.29051 0.69603 0.9428 0.0
C3737 C 0.27167 0.68645 0.91727 0.0
C3738 C 0.28189 0.70715 0.9437 0.0
C3739 C 0.27675 0.71076 0.95615 0.0
C3740 C 0.28026 0.70345 0.96801 0.0
C3741 C 0.28861 0.69206 0.96704 0.0
C3742 C 0.29375 0.68844 0.95454 0.0
H3743 H 0.26706 0.67932 0.9084 0.0
H3744 H 0.26762 0.68093 0.92668 0.0
H3745 H 0.26717 0.69682 0.91634 0.0
H3746 H 0.27952 0.71338 0.93483 0.0
H3747 H 0.27018 0.71944 0.95649 0.0
H3748 H 0.34648 0.31772 0.89043 0.0
H3749 H 0.33949 0.3057 0.91177 0.0
H3750 H 0.38609 0.3051 0.92248 0.0
H3751 H 0.39323 0.31757 0.9014 0.0
H3752 H 0.34381 0.27893 0.92159 0.0
H3753 H 0.37306 0.32325 0.95642 0.0
H3754 H 0.37003 0.32598 0.93846 0.0
H3755 H 0.38506 0.31698 0.9446 0.0
C3756 C 0.35529 0.31523 0.89739 0.0
C3757 C 0.37046 0.31877 0.89414 0.0
C3758 C 0.35125 0.30823 0.90957 0.0
C3759 C 0.36225 0.30466 0.91891 0.0
C3760 C 0.37738 0.30798 0.91563 0.0
H3761 H 0.35962 0.26269 0.99823 0.0
H3762 H 0.36697 0.27409 0.97671 0.0
C3763 C 0.38144 0.31497 0.90344 0.0
C3764 C 0.35785 0.29727 0.93193 0.0
H3765 H 0.36296 0.30074 0.96652 0.0
C3766 C 0.34796 0.28374 0.93141 0.0
C3767 C 0.36325 0.30348 0.94481 0.0
C3768 C 0.37332 0.31828 0.94617 0.0
C3769 C 0.34354 0.27617 0.94331 0.0
C3770 C 0.34892 0.28239 0.95618 0.0
C3771 C 0.35884 0.29591 0.9567 0.0
C3772 C 0.34433 0.27514 0.96922 0.0
C3773 C 0.33341 0.2614 0.94194 0.0
C3774 C 0.32915 0.272 0.97234 0.0
C3775 C 0.32489 0.26538 0.98463 0.0
C3776 C 0.33571 0.26181 0.99423 0.0
C3777 C 0.35093 0.26506 0.99109 0.0
C3778 C 0.35517 0.27169 0.97879 0.0
H3779 H 0.33383 0.25635 0.93175 0.0
H3780 H 0.33653 0.25374 0.94977 0.0
H3781 H 0.32166 0.26278 0.9433 0.0
H3782 H 0.32055 0.27479 0.96531 0.0
H3783 H 0.31306 0.26298 0.98653 0.0
H3784 H 0.66662 0.6738 0.22778 0.0
H3785 H 0.64479 0.67726 0.24056 0.0
H3786 H 0.62218 0.68799 0.20339 0.0
H3787 H 0.64369 0.6841 0.1907 0.0
H3788 H 0.6332 0.70138 0.24411 0.0
H3789 H 0.58871 0.66027 0.21865 0.0
H3790 H 0.60836 0.66054 0.21626 0.0
H3791 H 0.59823 0.67251 0.20665 0.0
C3792 C 0.65679 0.6765 0.22235 0.0
C3793 C 0.65666 0.67838 0.20824 0.0
C3794 C 0.64435 0.67859 0.22965 0.0
C3795 C 0.63159 0.68263 0.22296 0.0
C3796 C 0.63157 0.68442 0.20881 0.0
H3797 H 0.55231 0.71632 0.2462 0.0
H3798 H 0.57349 0.70943 0.23465 0.0
C3799 C 0.64391 0.68224 0.20155 0.0
C3800 C 0.61874 0.68593 0.23077 0.0
H3801 H 0.58037 0.67903 0.23165 0.0
C3802 C 0.62168 0.69634 0.24147 0.0
C3803 C 0.6036 0.67941 0.22741 0.0
C3804 C 0.59954 0.66746 0.21671 0.0
C3805 C 0.61 0.70067 0.24855 0.0
C3806 C 0.59489 0.69444 0.24492 0.0
C3807 C 0.59192 0.68392 0.23436 0.0
C3808 C 0.58205 0.69869 0.252 0.0
C3809 C 0.61384 0.71218 0.25966 0.0
C3810 C 0.57969 0.69486 0.26557 0.0
C3811 C 0.56755 0.69872 0.27218 0.0
C3812 C 0.55747 0.70658 0.2654 0.0
C3813 C 0.55989 0.71042 0.25179 0.0
C3814 C 0.57197 0.70641 0.24514 0.0
H3815 H 0.62573 0.71781 0.25963 0.0
H3816 H 0.60644 0.72052 0.25859 0.0
H3817 H 0.61201 0.70691 0.26965 0.0
H3818 H 0.58722 0.6888 0.27106 0.0
H3819 H 0.56617 0.69568 0.28267 0.0
H3820 H 0.35176 0.66173 0.19309 0.0
H3821 H 0.34103 0.63743 0.20108 0.0
H3822 H 0.29908 0.6519 0.20692 0.0
H3823 H 0.30983 0.67645 0.19927 0.0
H3824 H 0.32715 0.63074 0.22747 0.0
H3825 H 0.28893 0.61358 0.18197 0.0
H3826 H 0.30502 0.62815 0.18148 0.0
H3827 H 0.28852 0.63127 0.1895 0.0
C3828 C 0.34031 0.65984 0.19623 0.0
C3829 C 0.33167 0.67108 0.19556 0.0
C3830 C 0.33417 0.64591 0.2007 0.0
C3831 C 0.31925 0.64288 0.20446 0.0
C3832 C 0.31057 0.65402 0.20388 0.0
H3833 H 0.28034 0.56383 0.24707 0.0
H3834 H 0.28605 0.58913 0.23935 0.0
C3835 C 0.31673 0.66801 0.19947 0.0
C3836 C 0.31293 0.62806 0.20915 0.0
H3837 H 0.28872 0.59663 0.19974 0.0
C3838 C 0.31866 0.6233 0.22149 0.0
C3839 C 0.30195 0.61842 0.20123 0.0
C3840 C 0.29575 0.62299 0.18776 0.0
C3841 C 0.31376 0.60904 0.22608 0.0
C3842 C 0.30283 0.59937 0.21813 0.0
C3843 C 0.29702 0.60416 0.20584 0.0
C3844 C 0.29804 0.58395 0.22209 0.0
C3845 C 0.32065 0.60426 0.23918 0.0
C3846 C 0.30252 0.57265 0.21468 0.0
C3847 C 0.29941 0.55819 0.21911 0.0
C3848 C 0.29169 0.55474 0.23103 0.0
C3849 C 0.28658 0.56607 0.23804 0.0
C3850 C 0.28977 0.58054 0.23362 0.0
H3851 H 0.33063 0.61226 0.24298 0.0
H3852 H 0.31222 0.60314 0.24705 0.0
H3853 H 0.32402 0.5934 0.2378 0.0
H3854 H 0.30892 0.5751 0.20574 0.0
H3855 H 0.30363 0.54987 0.21348 0.0
H3856 H 0.41943 0.33299 0.19082 0.0
H3857 H 0.44045 0.32423 0.20252 0.0
H3858 H 0.42103 0.3289 0.24095 0.0
H3859 H 0.39948 0.33691 0.22924 0.0
H3860 H 0.46168 0.33617 0.22095 0.0
H3861 H 0.42782 0.2874 0.24368 0.0
H3862 H 0.41998 0.29822 0.231 0.0
H3863 H 0.42258 0.30447 0.24841 0.0
C3864 C 0.41945 0.33198 0.20175 0.0
C3865 C 0.40749 0.33549 0.20899 0.0
C3866 C 0.43162 0.32708 0.20847 0.0
C3867 C 0.43229 0.32555 0.22265 0.0
C3868 C 0.42068 0.32957 0.22999 0.0
H3869 H 0.50055 0.28784 0.27255 0.0
H3870 H 0.48151 0.30309 0.2663 0.0
C3871 C 0.40841 0.33439 0.22326 0.0
C3872 C 0.44513 0.31972 0.22957 0.0
H3873 H 0.45385 0.2917 0.24928 0.0
C3874 C 0.45991 0.3265 0.22721 0.0
C3875 C 0.44297 0.30708 0.23782 0.0
C3876 C 0.4275 0.29877 0.2403 0.0
C3877 C 0.47244 0.32089 0.23257 0.0
C3878 C 0.47026 0.3081 0.24052 0.0
C3879 C 0.45555 0.30159 0.2433 0.0
C3880 C 0.4829 0.30033 0.24462 0.0
C3881 C 0.48797 0.3286 0.22953 0.0
C3882 C 0.49015 0.29387 0.23457 0.0
C3883 C 0.50084 0.28515 0.23812 0.0
C3884 C 0.50475 0.28276 0.25181 0.0
C3885 C 0.498 0.28972 0.26193 0.0
C3886 C 0.48703 0.29831 0.25836 0.0
H3887 H 0.48803 0.34017 0.22661 0.0
H3888 H 0.49595 0.32841 0.23843 0.0
H3889 H 0.49204 0.32286 0.22094 0.0
H3890 H 0.48706 0.29505 0.22393 0.0
H3891 H 0.50571 0.27982 0.23008 0.0
H3892 H 0.70503 0.35191 0.1974 0.0
H3893 H 0.7138 0.3752 0.20931 0.0
H3894 H 0.73022 0.39457 0.17211 0.0
H3895 H 0.72076 0.3714 0.1599 0.0
H3896 H 0.74171 0.39062 0.2131 0.0
H3897 H 0.70566 0.42412 0.18484 0.0
H3898 H 0.70257 0.40436 0.18349 0.0
H3899 H 0.71695 0.41526 0.17416 0.0
C3900 C 0.71027 0.36118 0.19166 0.0
C3901 C 0.71196 0.35984 0.17762 0.0
C3902 C 0.71539 0.37446 0.19853 0.0
C3903 C 0.72239 0.38671 0.19156 0.0
C3904 C 0.7245 0.38536 0.17762 0.0
H3905 H 0.76891 0.47237 0.2173 0.0
H3906 H 0.75735 0.45 0.20486 0.0
C3907 C 0.71928 0.37205 0.1707 0.0
C3908 C 0.72779 0.40073 0.19905 0.0
H3909 H 0.72472 0.43697 0.20014 0.0
C3910 C 0.73792 0.40073 0.21031 0.0
C3911 C 0.72277 0.4139 0.19544 0.0
C3912 C 0.71128 0.41444 0.18391 0.0
C3913 C 0.74338 0.41358 0.2179 0.0
C3914 C 0.73851 0.42675 0.21418 0.0
C3915 C 0.72837 0.4268 0.20295 0.0
C3916 C 0.7444 0.44071 0.22149 0.0
C3917 C 0.75458 0.4131 0.22969 0.0
C3918 C 0.74063 0.44299 0.23487 0.0
C3919 C 0.74716 0.45583 0.24202 0.0
C3920 C 0.75762 0.46649 0.23589 0.0
C3921 C 0.76097 0.46432 0.22234 0.0
C3922 C 0.75436 0.45158 0.21519 0.0
H3923 H 0.75895 0.40262 0.22994 0.0
H3924 H 0.76418 0.42233 0.22918 0.0
H3925 H 0.74909 0.41431 0.23934 0.0
H3926 H 0.73285 0.43473 0.23984 0.0
H3927 H 0.74436 0.45718 0.25244 0.0
H3928 H 0.67148 0.3662 0.84295 0.0
H3929 H 0.64834 0.36353 0.82838 0.0
H3930 H 0.65652 0.32201 0.8133 0.0
H3931 H 0.67968 0.32465 0.8277 0.0
H3932 H 0.64595 0.34301 0.79289 0.0
H3933 H 0.61131 0.33097 0.83797 0.0
H3934 H 0.62572 0.34709 0.83845 0.0
H3935 H 0.63087 0.32926 0.83846 0.0
C3936 C 0.66846 0.35663 0.83635 0.0
C3937 C 0.67729 0.34556 0.83654 0.0
C3938 C 0.65524 0.3551 0.82809 0.0
C3939 C 0.65073 0.34254 0.81987 0.0
C3940 C 0.65985 0.33178 0.81961 0.0
H3941 H 0.58233 0.29144 0.77188 0.0
H3942 H 0.60553 0.3067 0.78054 0.0
C3943 C 0.67299 0.33325 0.8279 0.0
C3944 C 0.63601 0.33991 0.81226 0.0
H3945 H 0.59883 0.32776 0.81654 0.0
C3946 C 0.63558 0.3399 0.79802 0.0
C3947 C 0.62255 0.33601 0.81902 0.0
C3948 C 0.6225 0.33573 0.83432 0.0
C3949 C 0.62203 0.33553 0.79034 0.0
C3950 C 0.60869 0.33068 0.7971 0.0
C3951 C 0.60905 0.33148 0.81135 0.0
C3952 C 0.59471 0.32304 0.78987 0.0
C3953 C 0.62221 0.33594 0.77506 0.0
C3954 C 0.58082 0.32712 0.79216 0.0
C3955 C 0.56742 0.31824 0.78735 0.0
C3956 C 0.56771 0.30509 0.78024 0.0
C3957 C 0.58167 0.30149 0.77731 0.0
C3958 C 0.59501 0.31031 0.78216 0.0
H3959 H 0.63115 0.34482 0.77175 0.0
H3960 H 0.62469 0.32539 0.7712 0.0
H3961 H 0.61125 0.33764 0.77038 0.0
H3962 H 0.58032 0.33685 0.79815 0.0
H3963 H 0.55687 0.32134 0.78977 0.0
H3964 H 0.72688 0.65502 0.82984 0.0
H3965 H 0.7376 0.63423 0.82207 0.0
H3966 H 0.74256 0.62034 0.86342 0.0
H3967 H 0.73105 0.64067 0.87125 0.0
H3968 H 0.76416 0.62662 0.82642 0.0
H3969 H 0.72169 0.58254 0.84611 0.0
H3970 H 0.71916 0.60143 0.84572 0.0
H3971 H 0.73044 0.59512 0.85925 0.0
C3972 C 0.73 0.64743 0.83732 0.0
C3973 C 0.72783 0.64952 0.8512 0.0
C3974 C 0.73627 0.63557 0.83283 0.0
C3975 C 0.74061 0.62542 0.84208 0.0
C3976 C 0.73893 0.62771 0.85599 0.0
H3977 H 0.79068 0.55534 0.84107 0.0
H3978 H 0.77592 0.57423 0.84581 0.0
C3979 C 0.73254 0.63954 0.8605 0.0
C3980 C 0.74718 0.6127 0.83714 0.0
H3981 H 0.74414 0.57536 0.83877 0.0
C3982 C 0.75965 0.61541 0.82899 0.0
C3983 C 0.74128 0.59797 0.84036 0.0
C3984 C 0.72731 0.59405 0.84821 0.0
C3985 C 0.76666 0.60396 0.82446 0.0
C3986 C 0.76105 0.58934 0.82807 0.0
C3987 C 0.74843 0.58656 0.83597 0.0
C3988 C 0.76899 0.57701 0.82484 0.0
C3989 C 0.78039 0.60761 0.81626 0.0
C3990 C 0.76973 0.57192 0.81144 0.0
C3991 C 0.77811 0.56088 0.80867 0.0
C3992 C 0.78602 0.5549 0.81925 0.0
C3993 C 0.78482 0.55975 0.83265 0.0
C3994 C 0.77635 0.57056 0.83541 0.0
H3995 H 0.78445 0.61963 0.81577 0.0
H3996 H 0.7896 0.60234 0.82067 0.0
H3997 H 0.77766 0.60326 0.80575 0.0
H3998 H 0.76401 0.57664 0.80312 0.0
H3999 H 0.77887 0.55745 0.79825 0.0
H4000 H 0.38506 0.67822 0.79933 0.0
H4001 H 0.4094 0.68596 0.78921 0.0
H4002 H 0.42734 0.70747 0.82693 0.0
H4003 H 0.40326 0.69973 0.83706 0.0
H4004 H 0.42399 0.71583 0.78695 0.0
H4005 H 0.45956 0.68341 0.81675 0.0
H4006 H 0.43932 0.67856 0.81527 0.0
H4007 H 0.4483 0.6925 0.82726 0.0
C4008 C 0.3943 0.68441 0.80549 0.0
C4009 C 0.39229 0.68843 0.81896 0.0
C4010 C 0.40814 0.68884 0.7997 0.0
C4011 C 0.4202 0.69709 0.8074 0.0
C4012 C 0.41826 0.70088 0.8209 0.0
H4013 H 0.4993 0.75567 0.81057 0.0
H4014 H 0.47724 0.73679 0.81264 0.0
C4015 C 0.40445 0.69659 0.82663 0.0
C4016 C 0.43456 0.70286 0.80123 0.0
H4017 H 0.47239 0.70587 0.80717 0.0
C4018 C 0.4346 0.71339 0.79106 0.0
C4019 C 0.44833 0.69956 0.80658 0.0
C4020 C 0.4489 0.68777 0.81697 0.0
C4021 C 0.44811 0.72166 0.78698 0.0
C4022 C 0.46186 0.71913 0.79312 0.0
C4023 C 0.46182 0.70781 0.80252 0.0
C4024 C 0.47603 0.72958 0.79164 0.0
C4025 C 0.44753 0.7338 0.77693 0.0
C4026 C 0.48288 0.73159 0.77918 0.0
C4027 C 0.4956 0.74247 0.77793 0.0
C4028 C 0.50156 0.75147 0.78915 0.0
C4029 C 0.49494 0.74902 0.8017 0.0
C4030 C 0.48234 0.73818 0.80292 0.0
H4031 H 0.43586 0.73535 0.77426 0.0
H4032 H 0.45403 0.74431 0.78112 0.0
H4033 H 0.45272 0.73117 0.76748 0.0
H4034 H 0.47825 0.72492 0.77039 0.0
H4035 H 0.50049 0.74408 0.76815 0.0
H4036 H 0.3412 0.36332 0.83013 0.0
H4037 H 0.33532 0.38302 0.81536 0.0
H4038 H 0.37675 0.41057 0.82945 0.0
H4039 H 0.38264 0.39078 0.84419 0.0
H4040 H 0.33142 0.41057 0.82449 0.0
H4041 H 0.37687 0.41647 0.78827 0.0
H4042 H 0.37227 0.40043 0.79858 0.0
H4043 H 0.38324 0.41697 0.80584 0.0
C4044 C 0.34924 0.37344 0.82976 0.0
C4045 C 0.36251 0.37545 0.83807 0.0
C4046 C 0.34582 0.38474 0.8214 0.0
C4047 C 0.35563 0.3983 0.82113 0.0
C4048 C 0.36912 0.40015 0.82921 0.0
H4049 H 0.35161 0.48306 0.78439 0.0
H4050 H 0.35866 0.46205 0.79631 0.0
C4051 C 0.37251 0.38884 0.83762 0.0
C4052 C 0.35118 0.41077 0.81324 0.0
H4053 H 0.36174 0.43497 0.78795 0.0
C4054 C 0.338 0.41583 0.81643 0.0
C4055 C 0.35979 0.41777 0.80278 0.0
C4056 C 0.37377 0.41259 0.79855 0.0
C4057 C 0.33338 0.4278 0.80971 0.0
C4058 C 0.34194 0.43477 0.79918 0.0
C4059 C 0.35512 0.42968 0.79597 0.0
C4060 C 0.33758 0.4475 0.79157 0.0
C4061 C 0.31961 0.43315 0.81429 0.0
C4062 C 0.32343 0.44641 0.78467 0.0
C4063 C 0.31932 0.45849 0.77783 0.0
C4064 C 0.32934 0.47196 0.77754 0.0
C4065 C 0.34361 0.47291 0.78423 0.0
C4066 C 0.34767 0.46085 0.79112 0.0
H4067 H 0.31698 0.42958 0.82476 0.0
H4068 H 0.32107 0.4453 0.81401 0.0
H4069 H 0.30983 0.42852 0.80742 0.0
H4070 H 0.31554 0.43616 0.7845 0.0
H4071 H 0.30835 0.45722 0.77263 0.0
H4072 H 0.70861 0.62658 0.17779 0.0
H4073 H 0.71868 0.6065 0.18877 0.0
H4074 H 0.72295 0.62992 0.22707 0.0
H4075 H 0.71293 0.65019 0.21607 0.0
H4076 H 0.74949 0.61958 0.21986 0.0
H4077 H 0.69969 0.57516 0.21529 0.0
H4078 H 0.70409 0.58447 0.19969 0.0
H4079 H 0.69834 0.59432 0.21368 0.0
C4080 C 0.71151 0.62739 0.1886 0.0
C4081 C 0.70995 0.64 0.19605 0.0
C4082 C 0.7172 0.61585 0.19488 0.0
C4083 C 0.72149 0.61661 0.20878 0.0
C4084 C 0.71965 0.62904 0.21635 0.0
H4085 H 0.75041 0.54463 0.2546 0.0
H4086 H 0.73769 0.56448 0.24685 0.0
C4087 C 0.71382 0.64058 0.21007 0.0
C4088 C 0.72871 0.60481 0.21513 0.0
H4089 H 0.72322 0.56791 0.22093 0.0
C4090 C 0.7437 0.60831 0.2202 0.0
C4091 C 0.72116 0.5901 0.21567 0.0
C4092 C 0.70489 0.58576 0.21091 0.0
C4093 C 0.75146 0.59744 0.22538 0.0
C4094 C 0.74409 0.58263 0.22543 0.0
C4095 C 0.72894 0.57922 0.22077 0.0
C4096 C 0.75194 0.57053 0.23014 0.0
C4097 C 0.76749 0.60191 0.23081 0.0
C4098 C 0.76412 0.56715 0.22326 0.0
C4099 C 0.77137 0.55565 0.22757 0.0
C4100 C 0.76661 0.5472 0.2389 0.0
C4101 C 0.75435 0.55065 0.24575 0.0
C4102 C 0.74707 0.56211 0.24137 0.0
H4103 H 0.77029 0.61386 0.23316 0.0
H4104 H 0.76964 0.59578 0.24014 0.0
H4105 H 0.77514 0.59933 0.22306 0.0
H4106 H 0.76793 0.5733 0.21441 0.0
H4107 H 0.78056 0.55329 0.22186 0.0
H4108 H 0.74413 0.36338 0.85885 0.0
H4109 H 0.76256 0.38618 0.85956 0.0
H4110 H 0.72664 0.41123 0.85874 0.0
H4111 H 0.70821 0.38855 0.85841 0.0
H4112 H 0.76496 0.40699 0.8397 0.0
H4113 H 0.75518 0.43213 0.88875 0.0
H4114 H 0.74853 0.41297 0.88468 0.0
H4115 H 0.73815 0.42668 0.87849 0.0
C4116 C 0.74018 0.37375 0.85913 0.0
C4117 C 0.72471 0.37416 0.85856 0.0
C4118 C 0.75071 0.38676 0.85948 0.0
C4119 C 0.74598 0.4004 0.8594 0.0
C4120 C 0.73056 0.40084 0.8591 0.0
H4121 H 0.77673 0.4852 0.83148 0.0
H4122 H 0.76385 0.46132 0.83873 0.0
C4123 C 0.72004 0.38786 0.85873 0.0
C4124 C 0.75699 0.41417 0.85837 0.0
H4125 H 0.76763 0.44855 0.87229 0.0
C4126 C 0.76578 0.41597 0.84698 0.0
C4127 C 0.7581 0.42586 0.8679 0.0
C4128 C 0.74959 0.42428 0.88071 0.0
C4129 C 0.77498 0.42941 0.84448 0.0
C4130 C 0.77539 0.4413 0.85359 0.0
C4131 C 0.76721 0.43936 0.86531 0.0
C4132 C 0.7831 0.45615 0.85028 0.0
C4133 C 0.78375 0.43109 0.83182 0.0
C4134 C 0.79812 0.46117 0.8546 0.0
C4135 C 0.80558 0.47483 0.8504 0.0
C4136 C 0.7981 0.48357 0.84178 0.0
C4137 C 0.78288 0.47863 0.8379 0.0
C4138 C 0.77547 0.46505 0.8421 0.0
H4139 H 0.78334 0.42045 0.82641 0.0
H4140 H 0.77908 0.4387 0.82482 0.0
H4141 H 0.79565 0.43596 0.83444 0.0
H4142 H 0.80416 0.45436 0.8609 0.0
H4143 H 0.81731 0.47829 0.85348 0.0
H4144 H 0.67945 0.70807 0.8214 0.0
H4145 H 0.66081 0.72374 0.81598 0.0
H4146 H 0.64327 0.71599 0.85562 0.0
H4147 H 0.66199 0.70024 0.86104 0.0
H4148 H 0.62895 0.71335 0.81617 0.0
H4149 H 0.64757 0.76134 0.85092 0.0
H4150 H 0.65998 0.74904 0.84629 0.0
H4151 H 0.64604 0.74351 0.8584 0.0
C4152 C 0.67182 0.71 0.82906 0.0
C4153 C 0.67222 0.70316 0.84168 0.0
C4154 C 0.66114 0.71888 0.82593 0.0
C4155 C 0.6507 0.72115 0.83542 0.0
C4156 C 0.65136 0.71461 0.84822 0.0
H4157 H 0.57463 0.76774 0.83055 0.0
H4158 H 0.59448 0.7543 0.83799 0.0
C4159 C 0.66203 0.70563 0.85132 0.0
C4160 C 0.63851 0.72945 0.83145 0.0
H4161 H 0.62475 0.76073 0.83803 0.0
C4162 C 0.62805 0.72373 0.82093 0.0
C4163 C 0.63724 0.74291 0.83774 0.0
C4164 C 0.64834 0.74969 0.84891 0.0
C4165 C 0.61631 0.73102 0.8166 0.0
C4166 C 0.6152 0.74468 0.82267 0.0
C4167 C 0.62559 0.75032 0.83331 0.0
C4168 C 0.60335 0.75323 0.81813 0.0
C4169 C 0.60499 0.72379 0.80577 0.0
C4170 C 0.60182 0.7574 0.80452 0.0
C4171 C 0.59041 0.76504 0.80021 0.0
C4172 C 0.58038 0.76891 0.80945 0.0
C4173 C 0.58219 0.76506 0.82316 0.0
C4174 C 0.59353 0.75732 0.82743 0.0
H4175 H 0.60468 0.71175 0.80522 0.0
H4176 H 0.59354 0.7258 0.80764 0.0
H4177 H 0.60816 0.72835 0.79574 0.0
H4178 H 0.60949 0.75478 0.79719 0.0
H4179 H 0.58955 0.76805 0.78966 0.0
H4180 H 0.32568 0.65793 0.82376 0.0
H4181 H 0.31174 0.63288 0.82026 0.0
H4182 H 0.35218 0.61569 0.83 0.0
H4183 H 0.36616 0.64067 0.8336 0.0
H4184 H 0.32027 0.61306 0.80047 0.0
H4185 H 0.31935 0.59036 0.85241 0.0
H4186 H 0.32215 0.60983 0.84923 0.0
H4187 H 0.33734 0.5999 0.84769 0.0
C4188 C 0.33153 0.64879 0.82539 0.0
C4189 C 0.34701 0.65122 0.82891 0.0
C4190 C 0.32357 0.63452 0.82337 0.0
C4191 C 0.33091 0.62248 0.82506 0.0
C4192 C 0.34628 0.62485 0.82889 0.0
H4193 H 0.32181 0.53234 0.8061 0.0
H4194 H 0.32662 0.55656 0.81693 0.0
C4195 C 0.35427 0.63911 0.83078 0.0
C4196 C 0.32295 0.6075 0.82147 0.0
H4197 H 0.3134 0.57307 0.83402 0.0
C4198 C 0.3185 0.60433 0.80781 0.0
C4199 C 0.3208 0.59621 0.8311 0.0
C4200 C 0.32504 0.59921 0.84597 0.0
C4201 C 0.31266 0.58997 0.80335 0.0
C4202 C 0.31079 0.57854 0.81294 0.0
C4203 C 0.31475 0.58184 0.82671 0.0
C4204 C 0.30622 0.56297 0.80859 0.0
C4205 C 0.30944 0.58708 0.7883 0.0
C4206 C 0.29273 0.55821 0.80093 0.0
C4207 C 0.29004 0.54442 0.79454 0.0
C4208 C 0.30068 0.53507 0.79593 0.0
C4209 C 0.31343 0.5393 0.80474 0.0
C4210 C 0.3162 0.55316 0.81096 0.0
H4211 H 0.3147 0.59643 0.78216 0.0
H4212 H 0.31359 0.57708 0.78504 0.0
H4213 H 0.29714 0.58538 0.786 0.0
H4214 H 0.28465 0.56546 0.79931 0.0
H4215 H 0.28 0.54139 0.78797 0.0
H4216 H 0.41766 0.32458 0.87226 0.0
H4217 H 0.4374 0.31542 0.86065 0.0
H4218 H 0.41225 0.3161 0.82242 0.0
H4219 H 0.39237 0.32534 0.83404 0.0
H4220 H 0.43476 0.28951 0.84654 0.0
H4221 H 0.45401 0.33594 0.81268 0.0
H4222 H 0.44239 0.33766 0.82673 0.0
H4223 H 0.43422 0.32887 0.81115 0.0
C4224 C 0.41632 0.32285 0.86136 0.0
C4225 C 0.40334 0.32564 0.85411 0.0
C4226 C 0.42767 0.31763 0.85472 0.0
C4227 C 0.42644 0.31512 0.84062 0.0
C4228 C 0.41365 0.31819 0.83326 0.0
H4229 H 0.4859 0.27704 0.78799 0.0
H4230 H 0.46502 0.28735 0.79664 0.0
C4231 C 0.40227 0.32347 0.83992 0.0
C4232 C 0.43821 0.30856 0.83391 0.0
H4233 H 0.46464 0.31456 0.81001 0.0
C4234 C 0.44128 0.29502 0.83856 0.0
C4235 C 0.44669 0.31563 0.8234 0.0
C4236 C 0.44429 0.33039 0.81824 0.0
C4237 C 0.45257 0.28843 0.83309 0.0
C4238 C 0.46128 0.29564 0.8228 0.0
C4239 C 0.45801 0.30902 0.81791 0.0
C4240 C 0.47415 0.28969 0.81738 0.0
C4241 C 0.45496 0.27369 0.83831 0.0
C4242 C 0.4864 0.28779 0.82607 0.0
C4243 C 0.49839 0.28196 0.82116 0.0
C4244 C 0.49852 0.2779 0.80737 0.0
C4245 C 0.48632 0.28007 0.79863 0.0
C4246 C 0.47431 0.28594 0.80357 0.0
H4247 H 0.44488 0.26782 0.84319 0.0
H4248 H 0.45773 0.26665 0.82999 0.0
H4249 H 0.46446 0.27531 0.84604 0.0
H4250 H 0.48675 0.29091 0.8367 0.0
H4251 H 0.50765 0.28083 0.8282 0.0
H4252 H 0.37587 0.40265 0.20711 0.0
H4253 H 0.37018 0.42453 0.21852 0.0
H4254 H 0.35335 0.39795 0.25201 0.0
H4255 H 0.35919 0.37613 0.24063 0.0
H4256 H 0.34172 0.42781 0.22432 0.0
H4257 H 0.37763 0.43372 0.27189 0.0
H4258 H 0.38108 0.42261 0.25768 0.0
H4259 H 0.36686 0.41564 0.26919 0.0
C4260 C 0.37147 0.40161 0.21714 0.0
C4261 C 0.36826 0.38781 0.22315 0.0
C4262 C 0.3681 0.41409 0.2236 0.0
C4263 C 0.36147 0.41299 0.23623 0.0
C4264 C 0.35878 0.39922 0.24246 0.0
H4265 H 0.31435 0.46563 0.28541 0.0
H4266 H 0.32798 0.44763 0.2761 0.0
C4267 C 0.36214 0.38673 0.23597 0.0
C4268 C 0.35593 0.42585 0.24214 0.0
H4269 H 0.35743 0.44724 0.27078 0.0
C4270 C 0.34531 0.43218 0.23442 0.0
C4271 C 0.36048 0.43152 0.25535 0.0
C4272 C 0.37224 0.42562 0.26398 0.0
C4273 C 0.33881 0.44363 0.23966 0.0
C4274 C 0.34326 0.44923 0.25293 0.0
C4275 C 0.35403 0.44303 0.2606 0.0
C4276 C 0.33626 0.46095 0.25925 0.0
C4277 C 0.32675 0.44919 0.23111 0.0
C4278 C 0.33676 0.47474 0.2532 0.0
C4279 C 0.3289 0.48511 0.2585 0.0
C4280 C 0.32046 0.48197 0.27005 0.0
C4281 C 0.32067 0.46846 0.27649 0.0
C4282 C 0.32848 0.45811 0.27117 0.0
H4283 H 0.32202 0.44137 0.22275 0.0
H4284 H 0.31744 0.45114 0.23738 0.0
H4285 H 0.33163 0.45972 0.22648 0.0
H4286 H 0.34296 0.47737 0.24418 0.0
H4287 H 0.32906 0.49538 0.25328 0.0
H4288 H 0.65964 0.33298 0.17006 0.0
H4289 H 0.63678 0.31936 0.17926 0.0
H4290 H 0.65841 0.28173 0.18501 0.0
H4291 H 0.6812 0.29522 0.17554 0.0
H4292 H 0.62901 0.27392 0.17567 0.0
H4293 H 0.63382 0.31246 0.2196 0.0
H4294 H 0.63284 0.3213 0.20353 0.0
H4295 H 0.64867 0.31266 0.20808 0.0
C4296 C 0.65946 0.32177 0.17323 0.0
C4297 C 0.67221 0.31519 0.17223 0.0
C4298 C 0.64644 0.31403 0.17851 0.0
C4299 C 0.64603 0.29966 0.18311 0.0
C4300 C 0.65852 0.29284 0.18158 0.0
H4301 H 0.58499 0.25908 0.24188 0.0
H4302 H 0.60692 0.26908 0.22928 0.0
C4303 C 0.67151 0.30053 0.17616 0.0
C4304 C 0.63282 0.29197 0.19003 0.0
H4305 H 0.61152 0.29477 0.21713 0.0
C4306 C 0.62518 0.27843 0.18476 0.0
C4307 C 0.62803 0.29777 0.20202 0.0
C4308 C 0.63635 0.31176 0.20873 0.0
C4309 C 0.61273 0.27062 0.19107 0.0
C4310 C 0.60763 0.27669 0.20279 0.0
C4311 C 0.61537 0.29017 0.20809 0.0
C4312 C 0.59448 0.26925 0.20996 0.0
C4313 C 0.60541 0.25581 0.18531 0.0
C4314 C 0.58021 0.26584 0.20326 0.0
C4315 C 0.56768 0.25998 0.21045 0.0
C4316 C 0.56919 0.25772 0.22449 0.0
C4317 C 0.5835 0.26089 0.2311 0.0
C4318 C 0.59603 0.26655 0.2239 0.0
H4319 H 0.61313 0.25093 0.17899 0.0
H4320 H 0.6017 0.24806 0.19352 0.0
H4321 H 0.59541 0.25708 0.17876 0.0
H4322 H 0.57868 0.26815 0.19259 0.0
H4323 H 0.55673 0.25778 0.20517 0.0
H4324 H 0.37152 0.70914 0.21484 0.0
H4325 H 0.39769 0.71748 0.22249 0.0
H4326 H 0.4095 0.7251 0.181 0.0
H4327 H 0.38309 0.71692 0.17327 0.0
H4328 H 0.42028 0.7035 0.21531 0.0
H4329 H 0.43231 0.76214 0.20082 0.0
H4330 H 0.41344 0.75202 0.20164 0.0
H4331 H 0.42438 0.74939 0.18745 0.0
C4332 C 0.37967 0.71275 0.20736 0.0
C4333 C 0.37534 0.71227 0.19346 0.0
C4334 C 0.3946 0.71756 0.21174 0.0
C4335 C 0.40555 0.72197 0.20233 0.0
C4336 C 0.4012 0.72199 0.18845 0.0
H4337 H 0.49799 0.7185 0.22931 0.0
H4338 H 0.47545 0.71721 0.21428 0.0
C4339 C 0.38615 0.71727 0.18405 0.0
C4340 C 0.42158 0.72515 0.20715 0.0
H4341 H 0.4527 0.75203 0.21036 0.0
C4342 C 0.4274 0.71409 0.21416 0.0
C4343 C 0.43079 0.73899 0.20568 0.0
C4344 C 0.42494 0.75139 0.19859 0.0
C4345 C 0.44203 0.71655 0.22006 0.0
C4346 C 0.45132 0.73037 0.21855 0.0
C4347 C 0.44561 0.7414 0.21135 0.0
C4348 C 0.46653 0.73371 0.22536 0.0
C4349 C 0.44713 0.7045 0.22835 0.0
C4350 C 0.46953 0.74421 0.23592 0.0
C4351 C 0.48255 0.74516 0.24438 0.0
C4352 C 0.49266 0.73551 0.24247 0.0
C4353 C 0.49029 0.72594 0.23114 0.0
C4354 C 0.4774 0.72516 0.22257 0.0
H4355 H 0.43755 0.69599 0.23109 0.0
H4356 H 0.4547 0.69907 0.22236 0.0
H4357 H 0.45341 0.709 0.23786 0.0
H4358 H 0.46133 0.75098 0.23819 0.0
H4359 H 0.48406 0.75266 0.25302 0.0
loop_
_geom_bond_atom_site_label_1
_geom_bond_atom_site_label_2
_geom_bond_distance
_geom_bond_site_symmetry_2
_ccdc_geom_bond_type
H0 C3 0.929 . S
H1 C6 0.929 . S
H2 C8 0.930 . S
C3 H0 0.929 . S
C3 C4 1.398 . S
C3 C5 1.396 . S
C4 C3 1.398 . S
C4 C8 1.407 . S
C5 C3 1.396 . S
C5 C6 1.394 . S
C6 H1 0.929 . S
C6 C5 1.394 . S
C6 C7 1.382 . S
C7 C6 1.382 . S
C7 C8 1.392 . S
C7 N9 1.420 . S
C8 H2 0.930 . S
C8 C4 1.407 . S
C8 C7 1.392 . S
N9 C7 1.420 . S
N9 C10 1.244 . S
C10 N9 1.244 . S
H11 C14 0.929 . S
H12 C17 0.929 . S
H13 C19 0.930 . S
C14 H11 0.929 . S
C14 C15 1.398 . S
C14 C16 1.396 . S
C15 C14 1.398 . S
C15 C19 1.407 . S
C16 C14 1.396 . S
C16 C17 1.394 . S
C17 H12 0.929 . S
C17 C16 1.394 . S
C17 C18 1.382 . S
C18 C17 1.382 . S
C18 C19 1.392 . S
C18 N20 1.420 . S
C19 H13 0.930 . S
C19 C15 1.407 . S
C19 C18 1.392 . S
N20 C18 1.420 . S
N20 C21 1.244 . S
C21 N20 1.244 . S
H22 C25 0.929 . S
H23 C28 0.929 . S
H24 C30 0.930 . S
C25 H22 0.929 . S
C25 C26 1.398 . S
C25 C27 1.396 . S
C26 C25 1.398 . S
C26 C30 1.407 . S
C27 C25 1.396 . S
C27 C28 1.394 . S
C28 H23 0.929 . S
C28 C27 1.394 . S
C28 C29 1.382 . S
C29 C28 1.382 . S
C29 C30 1.392 . S
C29 N31 1.420 . S
C30 H24 0.930 . S
C30 C26 1.407 . S
C30 C29 1.392 . S
N31 C29 1.420 . S
N31 C32 1.244 . S
C32 N31 1.244 . S
H33 C36 0.929 . S
H34 C39 0.929 . S
H35 C41 0.930 . S
C36 H33 0.929 . S
C36 C37 1.398 . S
C36 C38 1.396 . S
C37 C36 1.398 . S
C37 C41 1.407 . S
C38 C36 1.396 . S
C38 C39 1.394 . S
C39 H34 0.929 . S
C39 C38 1.394 . S
C39 C40 1.382 . S
C40 C39 1.382 . S
C40 C41 1.392 . S
C40 N42 1.420 . S
C41 H35 0.930 . S
C41 C37 1.407 . S
C41 C40 1.392 . S
N42 C40 1.420 . S
N42 C43 1.244 . S
C43 N42 1.244 . S
H44 C47 0.929 . S
H45 C50 0.929 . S
H46 C52 0.930 . S
C47 H44 0.929 . S
C47 C48 1.398 . S
C47 C49 1.396 . S
C48 C47 1.398 . S
C48 C52 1.407 . S
C49 C47 1.396 . S
C49 C50 1.394 . S
C50 H45 0.929 . S
C50 C49 1.394 . S
C50 C51 1.382 . S
C51 C50 1.382 . S
C51 C52 1.392 . S
C51 N53 1.420 . S
C52 H46 0.930 . S
C52 C48 1.407 . S
C52 C51 1.392 . S
N53 C51 1.420 . S
N53 C54 1.244 . S
C54 N53 1.244 . S
H55 C58 0.929 . S
H56 C61 0.929 . S
H57 C63 0.930 . S
C58 H55 0.929 . S
C58 C59 1.398 . S
C58 C60 1.396 . S
C59 C58 1.398 . S
C59 C63 1.407 . S
C60 C58 1.396 . S
C60 C61 1.394 . S
C61 H56 0.929 . S
C61 C60 1.394 . S
C61 C62 1.382 . S
C62 C61 1.382 . S
C62 C63 1.392 . S
C62 N64 1.420 . S
C63 H57 0.930 . S
C63 C59 1.407 . S
C63 C62 1.392 . S
N64 C62 1.420 . S
N64 C65 1.244 . S
C65 N64 1.244 . S
H66 C69 0.929 . S
H67 C72 0.929 . S
H68 C74 0.930 . S
C69 H66 0.929 . S
C69 C70 1.398 . S
C69 C71 1.396 . S
C70 C69 1.398 . S
C70 C74 1.407 . S
C71 C69 1.396 . S
C71 C72 1.394 . S
C72 H67 0.929 . S
C72 C71 1.394 . S
C72 C73 1.382 . S
C73 C72 1.382 . S
C73 C74 1.392 . S
C73 N75 1.420 . S
C74 H68 0.930 . S
C74 C70 1.407 . S
C74 C73 1.392 . S
N75 C73 1.420 . S
N75 C76 1.244 . S
C76 N75 1.244 . S
H77 C80 0.929 . S
H78 C83 0.929 . S
H79 C85 0.930 . S
C80 H77 0.929 . S
C80 C81 1.398 . S
C80 C82 1.396 . S
C81 C80 1.398 . S
C81 C85 1.407 . S
C82 C80 1.396 . S
C82 C83 1.394 . S
C83 H78 0.929 . S
C83 C82 1.394 . S
C83 C84 1.382 . S
C84 C83 1.382 . S
C84 C85 1.392 . S
C84 N86 1.420 . S
C85 H79 0.930 . S
C85 C81 1.407 . S
C85 C84 1.392 . S
N86 C84 1.420 . S
N86 C87 1.244 . S
C87 N86 1.244 . S
H88 C91 0.929 . S
H89 C94 0.929 . S
H90 C96 0.930 . S
C91 H88 0.929 . S
C91 C92 1.398 . S
C91 C93 1.396 . S
C92 C91 1.398 . S
C92 C96 1.407 . S
C93 C91 1.396 . S
C93 C94 1.394 . S
C94 H89 0.929 . S
C94 C93 1.394 . S
C94 C95 1.382 . S
C95 C94 1.382 . S
C95 C96 1.392 . S
C95 N97 1.420 . S
C96 H90 0.930 . S
C96 C92 1.407 . S
C96 C95 1.392 . S
N97 C95 1.420 . S
N97 C98 1.244 . S
C98 N97 1.244 . S
H99 C102 0.929 . S
H100 C105 0.929 . S
H101 C107 0.930 . S
C102 H99 0.929 . S
C102 C103 1.398 . S
C102 C104 1.396 . S
C103 C102 1.398 . S
C103 C107 1.407 . S
C104 C102 1.396 . S
C104 C105 1.394 . S
C105 H100 0.929 . S
C105 C104 1.394 . S
C105 C106 1.382 . S
C106 C105 1.382 . S
C106 C107 1.392 . S
C106 N108 1.420 . S
C107 H101 0.930 . S
C107 C103 1.407 . S
C107 C106 1.392 . S
N108 C106 1.420 . S
N108 C109 1.244 . S
C109 N108 1.244 . S
H110 C113 0.929 . S
H111 C116 0.929 . S
H112 C118 0.930 . S
C113 H110 0.929 . S
C113 C114 1.398 . S
C113 C115 1.396 . S
C114 C113 1.398 . S
C114 C118 1.407 . S
C115 C113 1.396 . S
C115 C116 1.394 . S
C116 H111 0.929 . S
C116 C115 1.394 . S
C116 C117 1.382 . S
C117 C116 1.382 . S
C117 C118 1.392 . S
C117 N119 1.420 . S
C118 H112 0.930 . S
C118 C114 1.407 . S
C118 C117 1.392 . S
N119 C117 1.420 . S
N119 C120 1.244 . S
C120 N119 1.244 . S
H121 C124 0.929 . S
H122 C127 0.929 . S
H123 C129 0.930 . S
C124 H121 0.929 . S
C124 C125 1.398 . S
C124 C126 1.396 . S
C125 C124 1.398 . S
C125 C129 1.407 . S
C126 C124 1.396 . S
C126 C127 1.394 . S
C127 H122 0.929 . S
C127 C126 1.394 . S
C127 C128 1.382 . S
C128 C127 1.382 . S
C128 C129 1.392 . S
C128 N130 1.420 . S
C129 H123 0.930 . S
C129 C125 1.407 . S
C129 C128 1.392 . S
N130 C128 1.420 . S
N130 C131 1.244 . S
C131 N130 1.244 . S
H132 C135 0.929 . S
H133 C138 0.929 . S
H134 C140 0.930 . S
C135 H132 0.929 . S
C135 C136 1.398 . S
C135 C137 1.396 . S
C136 C135 1.398 . S
C136 C140 1.407 . S
C137 C135 1.396 . S
C137 C138 1.394 . S
C138 H133 0.929 . S
C138 C137 1.394 . S
C138 C139 1.382 . S
C139 C138 1.382 . S
C139 C140 1.392 . S
C139 N141 1.420 . S
C140 H134 0.930 . S
C140 C136 1.407 . S
C140 C139 1.392 . S
N141 C139 1.420 . S
N141 C142 1.244 . S
C142 N141 1.244 . S
H143 C146 0.929 . S
H144 C149 0.929 . S
H145 C151 0.930 . S
C146 H143 0.929 . S
C146 C147 1.398 . S
C146 C148 1.396 . S
C147 C146 1.398 . S
C147 C151 1.407 . S
C148 C146 1.396 . S
C148 C149 1.394 . S
C149 H144 0.929 . S
C149 C148 1.394 . S
C149 C150 1.382 . S
C150 C149 1.382 . S
C150 C151 1.392 . S
C150 N152 1.420 . S
C151 H145 0.930 . S
C151 C147 1.407 . S
C151 C150 1.392 . S
N152 C150 1.420 . S
N152 C153 1.244 . S
C153 N152 1.244 . S
H154 C157 0.929 . S
H155 C160 0.929 . S
H156 C162 0.930 . S
C157 H154 0.929 . S
C157 C158 1.398 . S
C157 C159 1.396 . S
C158 C157 1.398 . S
C158 C162 1.407 . S
C159 C157 1.396 . S
C159 C160 1.394 . S
C160 H155 0.929 . S
C160 C159 1.394 . S
C160 C161 1.382 . S
C161 C160 1.382 . S
C161 C162 1.392 . S
C161 N163 1.420 . S
C162 H156 0.930 . S
C162 C158 1.407 . S
C162 C161 1.392 . S
N163 C161 1.420 . S
N163 C164 1.244 . S
C164 N163 1.244 . S
H165 C168 0.929 . S
H166 C171 0.929 . S
H167 C173 0.930 . S
C168 H165 0.929 . S
C168 C169 1.398 . S
C168 C170 1.396 . S
C169 C168 1.398 . S
C169 C173 1.407 . S
C170 C168 1.396 . S
C170 C171 1.394 . S
C171 H166 0.929 . S
C171 C170 1.394 . S
C171 C172 1.382 . S
C172 C171 1.382 . S
C172 C173 1.392 . S
C172 N174 1.420 . S
C173 H167 0.930 . S
C173 C169 1.407 . S
C173 C172 1.392 . S
N174 C172 1.420 . S
N174 C175 1.244 . S
C175 N174 1.244 . S
H176 C179 0.929 . S
H177 C182 0.929 . S
H178 C184 0.930 . S
C179 H176 0.929 . S
C179 C180 1.398 . S
C179 C181 1.396 . S
C180 C179 1.398 . S
C180 C184 1.407 . S
C181 C179 1.396 . S
C181 C182 1.394 . S
C182 H177 0.929 . S
C182 C181 1.394 . S
C182 C183 1.382 . S
C183 C182 1.382 . S
C183 C184 1.392 . S
C183 N185 1.420 . S
C184 H178 0.930 . S
C184 C180 1.407 . S
C184 C183 1.392 . S
N185 C183 1.420 . S
N185 C186 1.244 . S
C186 N185 1.244 . S
H187 C190 0.929 . S
H188 C193 0.929 . S
H189 C195 0.930 . S
C190 H187 0.929 . S
C190 C191 1.398 . S
C190 C192 1.396 . S
C191 C190 1.398 . S
C191 C195 1.407 . S
C192 C190 1.396 . S
C192 C193 1.394 . S
C193 H188 0.929 . S
C193 C192 1.394 . S
C193 C194 1.382 . S
C194 C193 1.382 . S
C194 C195 1.392 . S
C194 N196 1.420 . S
C195 H189 0.930 . S
C195 C191 1.407 . S
C195 C194 1.392 . S
N196 C194 1.420 . S
N196 C197 1.244 . S
C197 N196 1.244 . S
H198 C201 0.929 . S
H199 C204 0.929 . S
H200 C206 0.930 . S
C201 H198 0.929 . S
C201 C202 1.398 . S
C201 C203 1.396 . S
C202 C201 1.398 . S
C202 C206 1.407 . S
C203 C201 1.396 . S
C203 C204 1.394 . S
C204 H199 0.929 . S
C204 C203 1.394 . S
C204 C205 1.382 . S
C205 C204 1.382 . S
C205 C206 1.392 . S
C205 N207 1.420 . S
C206 H200 0.930 . S
C206 C202 1.407 . S
C206 C205 1.392 . S
N207 C205 1.420 . S
N207 C208 1.244 . S
C208 N207 1.244 . S
H209 C212 0.929 . S
H210 C215 0.929 . S
H211 C217 0.930 . S
C212 H209 0.929 . S
C212 C213 1.398 . S
C212 C214 1.396 . S
C213 C212 1.398 . S
C213 C217 1.407 . S
C214 C212 1.396 . S
C214 C215 1.394 . S
C215 H210 0.929 . S
C215 C214 1.394 . S
C215 C216 1.382 . S
C216 C215 1.382 . S
C216 C217 1.392 . S
C216 N218 1.420 . S
C217 H211 0.930 . S
C217 C213 1.407 . S
C217 C216 1.392 . S
N218 C216 1.420 . S
N218 C219 1.244 . S
C219 N218 1.244 . S
H220 C223 0.929 . S
H221 C226 0.929 . S
H222 C228 0.930 . S
C223 H220 0.929 . S
C223 C224 1.398 . S
C223 C225 1.396 . S
C224 C223 1.398 . S
C224 C228 1.407 . S
C225 C223 1.396 . S
C225 C226 1.394 . S
C226 H221 0.929 . S
C226 C225 1.394 . S
C226 C227 1.382 . S
C227 C226 1.382 . S
C227 C228 1.392 . S
C227 N229 1.420 . S
C228 H222 0.930 . S
C228 C224 1.407 . S
C228 C227 1.392 . S
N229 C227 1.420 . S
N229 C230 1.244 . S
C230 N229 1.244 . S
H231 C234 0.929 . S
H232 C237 0.929 . S
H233 C239 0.930 . S
C234 H231 0.929 . S
C234 C235 1.398 . S
C234 C236 1.396 . S
C235 C234 1.398 . S
C235 C239 1.407 . S
C236 C234 1.396 . S
C236 C237 1.394 . S
C237 H232 0.929 . S
C237 C236 1.394 . S
C237 C238 1.382 . S
C238 C237 1.382 . S
C238 C239 1.392 . S
C238 N240 1.420 . S
C239 H233 0.930 . S
C239 C235 1.407 . S
C239 C238 1.392 . S
N240 C238 1.420 . S
N240 C241 1.244 . S
C241 N240 1.244 . S
H242 C245 0.929 . S
H243 C248 0.929 . S
H244 C250 0.930 . S
C245 H242 0.929 . S
C245 C246 1.398 . S
C245 C247 1.396 . S
C246 C245 1.398 . S
C246 C250 1.407 . S
C247 C245 1.396 . S
C247 C248 1.394 . S
C248 H243 0.929 . S
C248 C247 1.394 . S
C248 C249 1.382 . S
C249 C248 1.382 . S
C249 C250 1.392 . S
C249 N251 1.420 . S
C250 H244 0.930 . S
C250 C246 1.407 . S
C250 C249 1.392 . S
N251 C249 1.420 . S
N251 C252 1.244 . S
C252 N251 1.244 . S
H253 C256 0.929 . S
H254 C259 0.929 . S
H255 C261 0.930 . S
C256 H253 0.929 . S
C256 C257 1.398 . S
C256 C258 1.396 . S
C257 C256 1.398 . S
C257 C261 1.407 . S
C258 C256 1.396 . S
C258 C259 1.394 . S
C259 H254 0.929 . S
C259 C258 1.394 . S
C259 C260 1.382 . S
C260 C259 1.382 . S
C260 C261 1.392 . S
C260 N262 1.420 . S
C261 H255 0.930 . S
C261 C257 1.407 . S
C261 C260 1.392 . S
N262 C260 1.420 . S
N262 C263 1.244 . S
C263 N262 1.244 . S
H264 C267 0.929 . S
H265 C270 0.929 . S
H266 C272 0.930 . S
C267 H264 0.929 . S
C267 C268 1.398 . S
C267 C269 1.396 . S
C268 C267 1.398 . S
C268 C272 1.407 . S
C269 C267 1.396 . S
C269 C270 1.394 . S
C270 H265 0.929 . S
C270 C269 1.394 . S
C270 C271 1.382 . S
C271 C270 1.382 . S
C271 C272 1.392 . S
C271 N273 1.420 . S
C272 H266 0.930 . S
C272 C268 1.407 . S
C272 C271 1.392 . S
N273 C271 1.420 . S
N273 C274 1.244 . S
C274 N273 1.244 . S
H275 C278 0.929 . S
H276 C281 0.929 . S
H277 C283 0.930 . S
C278 H275 0.929 . S
C278 C279 1.398 . S
C278 C280 1.396 . S
C279 C278 1.398 . S
C279 C283 1.407 . S
C280 C278 1.396 . S
C280 C281 1.394 . S
C281 H276 0.929 . S
C281 C280 1.394 . S
C281 C282 1.382 . S
C282 C281 1.382 . S
C282 C283 1.392 . S
C282 N284 1.420 . S
C283 H277 0.930 . S
C283 C279 1.407 . S
C283 C282 1.392 . S
N284 C282 1.420 . S
N284 C285 1.244 . S
C285 N284 1.244 . S
H286 C289 0.929 . S
H287 C292 0.929 . S
H288 C294 0.930 . S
C289 H286 0.929 . S
C289 C290 1.398 . S
C289 C291 1.396 . S
C290 C289 1.398 . S
C290 C294 1.407 . S
C291 C289 1.396 . S
C291 C292 1.394 . S
C292 H287 0.929 . S
C292 C291 1.394 . S
C292 C293 1.382 . S
C293 C292 1.382 . S
C293 C294 1.392 . S
C293 N295 1.420 . S
C294 H288 0.930 . S
C294 C290 1.407 . S
C294 C293 1.392 . S
N295 C293 1.420 . S
N295 C296 1.244 . S
C296 N295 1.244 . S
H297 C300 0.929 . S
H298 C303 0.929 . S
H299 C305 0.930 . S
C300 H297 0.929 . S
C300 C301 1.398 . S
C300 C302 1.396 . S
C301 C300 1.398 . S
C301 C305 1.407 . S
C302 C300 1.396 . S
C302 C303 1.394 . S
C303 H298 0.929 . S
C303 C302 1.394 . S
C303 C304 1.382 . S
C304 C303 1.382 . S
C304 C305 1.392 . S
C304 N306 1.420 . S
C305 H299 0.930 . S
C305 C301 1.407 . S
C305 C304 1.392 . S
N306 C304 1.420 . S
N306 C307 1.244 . S
C307 N306 1.244 . S
H308 C311 0.929 . S
H309 C314 0.929 . S
H310 C316 0.930 . S
C311 H308 0.929 . S
C311 C312 1.398 . S
C311 C313 1.396 . S
C312 C311 1.398 . S
C312 C316 1.407 . S
C313 C311 1.396 . S
C313 C314 1.394 . S
C314 H309 0.929 . S
C314 C313 1.394 . S
C314 C315 1.382 . S
C315 C314 1.382 . S
C315 C316 1.392 . S
C315 N317 1.420 . S
C316 H310 0.930 . S
C316 C312 1.407 . S
C316 C315 1.392 . S
N317 C315 1.420 . S
N317 C318 1.244 . S
C318 N317 1.244 . S
H319 C322 0.929 . S
H320 C325 0.929 . S
H321 C327 0.930 . S
C322 H319 0.929 . S
C322 C323 1.398 . S
C322 C324 1.396 . S
C323 C322 1.398 . S
C323 C327 1.407 . S
C324 C322 1.396 . S
C324 C325 1.394 . S
C325 H320 0.929 . S
C325 C324 1.394 . S
C325 C326 1.382 . S
C326 C325 1.382 . S
C326 C327 1.392 . S
C326 N328 1.420 . S
C327 H321 0.930 . S
C327 C323 1.407 . S
C327 C326 1.392 . S
N328 C326 1.420 . S
N328 C329 1.244 . S
C329 N328 1.244 . S
H330 C333 0.929 . S
H331 C336 0.929 . S
H332 C338 0.930 . S
C333 H330 0.929 . S
C333 C334 1.398 . S
C333 C335 1.396 . S
C334 C333 1.398 . S
C334 C338 1.407 . S
C335 C333 1.396 . S
C335 C336 1.394 . S
C336 H331 0.929 . S
C336 C335 1.394 . S
C336 C337 1.382 . S
C337 C336 1.382 . S
C337 C338 1.392 . S
C337 N339 1.420 . S
C338 H332 0.930 . S
C338 C334 1.407 . S
C338 C337 1.392 . S
N339 C337 1.420 . S
N339 C340 1.244 . S
C340 N339 1.244 . S
H341 C344 0.929 . S
H342 C347 0.929 . S
H343 C349 0.930 . S
C344 H341 0.929 . S
C344 C345 1.398 . S
C344 C346 1.396 . S
C345 C344 1.398 . S
C345 C349 1.407 . S
C346 C344 1.396 . S
C346 C347 1.394 . S
C347 H342 0.929 . S
C347 C346 1.394 . S
C347 C348 1.382 . S
C348 C347 1.382 . S
C348 C349 1.392 . S
C348 N350 1.420 . S
C349 H343 0.930 . S
C349 C345 1.407 . S
C349 C348 1.392 . S
N350 C348 1.420 . S
N350 C351 1.244 . S
C351 N350 1.244 . S
Cu352 N353 1.999 . S
Cu352 O358 1.974 1_554 S
Cu352 N363 1.985 . S
Cu352 O372 1.959 . S
N353 Cu352 1.999 . S
N353 C355 1.263 1_554 S
N353 C357 1.389 . S
N354 C355 1.358 . S
N354 C356 1.400 . S
C355 N353 1.263 1_556 S
C355 N354 1.358 . S
C355 H361 0.930 . S
C356 N354 1.400 . S
C356 C357 1.351 1_556 S
C356 H373 0.930 . S
C357 N353 1.389 . S
C357 C356 1.351 1_554 S
C357 H362 0.930 . S
O358 Cu352 1.974 1_556 S
O358 C368 1.282 . S
C359 O360 1.261 . S
C359 O372 1.251 . S
O360 C359 1.261 . S
H361 C355 0.930 . S
H362 C357 0.930 . S
N363 Cu352 1.985 . S
N363 C365 1.335 . S
N363 C366 1.390 . S
N364 C365 1.345 . S
N364 C367 1.336 . S
C365 N363 1.335 . S
C365 N364 1.345 . S
C365 H370 0.930 . S
C366 N363 1.390 . S
C366 C367 1.346 . S
C366 H371 0.930 . S
C367 N364 1.336 . S
C367 C366 1.346 . S
C367 H374 0.929 . S
C368 O358 1.282 . S
C368 O369 1.216 . S
O369 C368 1.216 . S
H370 C365 0.930 . S
H371 C366 0.930 . S
O372 Cu352 1.959 . S
O372 C359 1.251 . S
H373 C356 0.930 . S
H374 C367 0.929 . S
Cu375 N376 1.999 . S
Cu375 O381 1.974 . S
Cu375 N386 1.986 1_554 S
Cu375 O395 1.959 1_554 S
N376 Cu375 1.999 . S
N376 C378 1.263 . S
N376 C380 1.389 . S
N377 C378 1.358 . S
N377 C379 1.400 . S
C378 N376 1.263 . S
C378 N377 1.358 . S
C378 H384 0.930 . S
C379 N377 1.400 . S
C379 C380 1.351 . S
C379 H396 0.930 . S
C380 N376 1.389 . S
C380 C379 1.351 . S
C380 H385 0.930 . S
O381 Cu375 1.974 . S
O381 C391 1.282 . S
C382 O383 1.300 . S
C382 O395 1.251 . S
O383 C382 1.300 . S
H384 C378 0.930 . S
H385 C380 0.930 . S
N386 Cu375 1.986 1_556 S
N386 C388 1.333 . S
N386 C389 1.390 1_556 S
N387 C388 1.345 . S
N387 C390 1.336 . S
C388 N386 1.333 . S
C388 N387 1.345 . S
C388 H393 0.930 . S
C389 N386 1.390 1_554 S
C389 C390 1.346 1_554 S
C389 H394 0.930 . S
C390 N387 1.336 . S
C390 C389 1.346 1_556 S
C390 H397 0.929 . S
C391 O381 1.282 . S
C391 O392 1.216 . S
O392 C391 1.216 . S
H393 C388 0.930 . S
H394 C389 0.930 . S
O395 Cu375 1.959 1_556 S
O395 C382 1.251 . S
H396 C379 0.930 . S
H397 C390 0.929 . S
Cu398 N399 1.999 1_554 S
Cu398 O404 1.974 1_554 S
Cu398 N409 1.985 . S
Cu398 O418 1.959 . S
N399 Cu398 1.999 1_556 S
N399 C401 1.263 . S
N399 C403 1.389 . S
N400 C401 1.358 . S
N400 C402 1.400 . S
C401 N399 1.263 . S
C401 N400 1.358 . S
C401 H407 0.930 . S
C402 N400 1.400 . S
C402 C403 1.351 . S
C402 H419 0.930 . S
C403 N399 1.389 . S
C403 C402 1.351 . S
C403 H408 0.930 1_556 S
O404 Cu398 1.974 1_556 S
O404 C414 1.282 . S
C405 O406 1.261 . S
C405 O418 1.251 . S
O406 C405 1.261 . S
H407 C401 0.930 . S
H408 C403 0.930 1_554 S
N409 Cu398 1.985 . S
N409 C411 1.335 . S
N409 C412 1.390 . S
N410 C411 1.345 . S
N410 C413 1.336 . S
C411 N409 1.335 . S
C411 N410 1.345 . S
C411 H416 0.930 . S
C412 N409 1.390 . S
C412 C413 1.346 . S
C412 H417 0.930 . S
C413 N410 1.336 . S
C413 C412 1.346 . S
C413 H420 0.929 . S
C414 O404 1.282 . S
C414 O415 1.216 . S
O415 C414 1.216 . S
H416 C411 0.930 . S
H417 C412 0.930 . S
O418 Cu398 1.959 . S
O418 C405 1.251 . S
H419 C402 0.930 . S
H420 C413 0.929 . S
Cu421 N422 1.999 . S
Cu421 O427 1.974 . S
Cu421 N432 1.985 1_554 S
Cu421 O441 1.959 1_554 S
N422 Cu421 1.999 . S
N422 C424 1.263 . S
N422 C426 1.389 . S
N423 C424 1.358 . S
N423 C425 1.400 . S
C424 N422 1.263 . S
C424 N423 1.358 . S
C424 H430 0.930 . S
C425 N423 1.400 . S
C425 C426 1.351 . S
C425 H442 0.930 . S
C426 N422 1.389 . S
C426 C425 1.351 . S
C426 H431 0.930 . S
O427 Cu421 1.974 . S
O427 C437 1.282 . S
C428 O429 1.261 . S
C428 O441 1.251 . S
O429 C428 1.261 . S
H430 C424 0.930 . S
H431 C426 0.930 . S
N432 Cu421 1.985 1_556 S
N432 C434 1.335 . S
N432 C435 1.390 . S
N433 C434 1.345 . S
N433 C436 1.336 . S
C434 N432 1.335 . S
C434 N433 1.345 . S
C434 H439 0.930 . S
C435 N432 1.390 . S
C435 C436 1.346 . S
C435 H440 0.930 1_556 S
C436 N433 1.336 . S
C436 C435 1.346 . S
C436 H443 0.929 . S
C437 O427 1.282 . S
C437 O438 1.216 . S
O438 C437 1.216 . S
H439 C434 0.930 . S
H440 C435 0.930 1_554 S
O441 Cu421 1.959 1_556 S
O441 C428 1.251 . S
H442 C425 0.930 . S
H443 C436 0.929 . S
Cu444 N445 1.999 . S
Cu444 O450 1.974 . S
Cu444 N455 1.985 . S
Cu444 O464 1.965 1_455 S
N445 Cu444 1.999 . S
N445 C447 1.263 . S
N445 C449 1.389 . S
N446 C447 1.358 . S
N446 C448 1.400 . S
C447 N445 1.263 . S
C447 N446 1.358 . S
C447 H453 0.930 . S
C448 N446 1.400 . S
C448 C449 1.351 . S
C448 H465 0.930 . S
C449 N445 1.389 . S
C449 C448 1.351 . S
C449 H454 0.930 . S
O450 Cu444 1.974 . S
O450 C460 1.282 . S
C451 O452 1.261 . S
C451 O464 1.248 . S
O452 C451 1.261 . S
H453 C447 0.930 . S
H454 C449 0.930 . S
N455 Cu444 1.985 . S
N455 C457 1.335 1_455 S
N455 C458 1.390 . S
N456 C457 1.345 . S
N456 C459 1.353 . S
C457 N455 1.335 1_655 S
C457 N456 1.345 . S
C457 H462 0.930 . S
C458 N455 1.390 . S
C458 C459 1.325 1_455 S
C458 H463 0.930 . S
C459 N456 1.353 . S
C459 C458 1.325 1_655 S
C459 H466 0.926 . S
C460 O450 1.282 . S
C460 O461 1.216 . S
O461 C460 1.216 . S
H462 C457 0.930 . S
H463 C458 0.930 . S
O464 Cu444 1.965 1_655 S
O464 C451 1.248 . S
H465 C448 0.930 . S
H466 C459 0.926 . S
Cu467 N468 1.999 . S
Cu467 O473 1.974 . S
Cu467 N478 1.985 1_545 S
Cu467 O487 1.959 1_545 S
N468 Cu467 1.999 . S
N468 C470 1.263 . S
N468 C472 1.389 . S
N469 C470 1.358 . S
N469 C471 1.400 . S
C470 N468 1.263 . S
C470 N469 1.358 . S
C470 H476 0.930 . S
C471 N469 1.400 . S
C471 C472 1.351 . S
C471 H488 0.930 . S
C472 N468 1.389 . S
C472 C471 1.351 . S
C472 H477 0.930 . S
O473 Cu467 1.974 . S
O473 C483 1.282 . S
C474 O475 1.261 . S
C474 O487 1.251 . S
O475 C474 1.261 . S
H476 C470 0.930 . S
H477 C472 0.930 . S
N478 Cu467 1.985 1_565 S
N478 C480 1.335 . S
N478 C481 1.390 . S
N479 C480 1.345 . S
N479 C482 1.336 . S
C480 N478 1.335 . S
C480 N479 1.345 . S
C480 H485 0.930 . S
C481 N478 1.390 . S
C481 C482 1.346 . S
C481 H486 0.899 1_565 S
C482 N479 1.336 . S
C482 C481 1.346 . S
C482 H489 0.929 . S
C483 O473 1.282 . S
C483 O484 1.216 . S
O484 C483 1.216 . S
H485 C480 0.930 . S
H486 C481 0.899 1_545 S
O487 Cu467 1.959 1_565 S
O487 C474 1.251 . S
H488 C471 0.930 . S
H489 C482 0.929 . S
Cu490 N491 1.999 1_455 S
Cu490 O496 1.974 1_455 S
Cu490 N501 1.985 . S
Cu490 O510 1.959 . S
N491 Cu490 1.999 1_655 S
N491 C493 1.263 . S
N491 C495 1.389 . S
N492 C493 1.358 . S
N492 C494 1.400 . S
C493 N491 1.263 . S
C493 N492 1.358 . S
C493 H499 0.930 . S
C494 N492 1.400 . S
C494 C495 1.351 . S
C494 H511 0.930 . S
C495 N491 1.389 . S
C495 C494 1.351 . S
C495 H500 0.930 . S
O496 Cu490 1.974 1_655 S
O496 C506 1.282 . S
C497 O498 1.261 . S
C497 O510 1.251 . S
O498 C497 1.261 . S
H499 C493 0.930 . S
H500 C495 0.930 . S
N501 Cu490 1.985 . S
N501 C503 1.335 . S
N501 C504 1.390 . S
N502 C503 1.345 . S
N502 C505 1.336 . S
C503 N501 1.335 . S
C503 N502 1.345 . S
C503 H508 0.930 . S
C504 N501 1.390 . S
C504 C505 1.346 . S
C504 H509 0.930 . S
C505 N502 1.336 . S
C505 C504 1.346 . S
C505 H512 0.929 . S
C506 O496 1.282 . S
C506 O507 1.216 . S
O507 C506 1.216 . S
H508 C503 0.930 . S
H509 C504 0.930 . S
O510 Cu490 1.959 . S
O510 C497 1.251 . S
H511 C494 0.930 . S
H512 C505 0.929 . S
Cu513 N514 1.999 . S
Cu513 O519 1.974 . S
Cu513 N524 1.985 1_545 S
Cu513 O533 1.959 1_545 S
N514 Cu513 1.999 . S
N514 C516 1.263 . S
N514 C518 1.389 . S
N515 C516 1.358 . S
N515 C517 1.400 . S
C516 N514 1.263 . S
C516 N515 1.358 . S
C516 H522 0.930 . S
C517 N515 1.400 . S
C517 C518 1.351 . S
C517 H534 0.930 . S
C518 N514 1.389 . S
C518 C517 1.351 . S
C518 H523 0.930 . S
O519 Cu513 1.974 . S
O519 C529 1.282 . S
C520 O521 1.261 . S
C520 O533 1.251 . S
O521 C520 1.261 . S
H522 C516 0.930 . S
H523 C518 0.930 . S
N524 Cu513 1.985 1_565 S
N524 C526 1.335 . S
N524 C527 1.390 . S
N525 C526 1.345 . S
N525 C528 1.336 . S
C526 N524 1.335 . S
C526 N525 1.345 . S
C526 H531 0.930 . S
C527 N524 1.390 . S
C527 C528 1.346 . S
C527 H532 0.930 . S
C528 N525 1.336 . S
C528 C527 1.346 . S
C528 H535 0.929 . S
C529 O519 1.282 . S
C529 O530 1.216 . S
O530 C529 1.216 . S
H531 C526 0.930 . S
H532 C527 0.930 . S
O533 Cu513 1.959 1_565 S
O533 C520 1.251 . S
H534 C517 0.930 . S
H535 C528 0.929 . S
Cu536 N537 1.999 . S
Cu536 O542 1.974 . S
Cu536 N547 1.985 . S
Cu536 O556 1.965 . S
N537 Cu536 1.999 . S
N537 C539 1.263 . S
N537 C541 1.389 . S
N538 C539 1.358 . S
N538 C540 1.400 . S
C539 N537 1.263 . S
C539 N538 1.358 . S
C539 H545 0.930 . S
C540 N538 1.400 . S
C540 C541 1.351 . S
C540 H557 0.930 . S
C541 N537 1.389 . S
C541 C540 1.351 . S
C541 H546 0.930 . S
O542 Cu536 1.974 . S
O542 C552 1.282 . S
C543 O544 1.261 . S
C543 O556 1.248 1_655 S
O544 C543 1.261 . S
H545 C539 0.930 . S
H546 C541 0.930 . S
N547 Cu536 1.985 . S
N547 C549 1.335 1_455 S
N547 C550 1.390 . S
N548 C549 1.345 . S
N548 C551 1.331 . S
C549 N547 1.335 1_655 S
C549 N548 1.345 . S
C549 H554 0.930 . S
C550 N547 1.390 . S
C550 C551 1.353 1_455 S
C550 H555 0.930 . S
C551 N548 1.331 . S
C551 C550 1.353 1_655 S
C551 H558 0.926 . S
C552 O542 1.282 . S
C552 O553 1.216 . S
O553 C552 1.216 . S
H554 C549 0.930 . S
H555 C550 0.930 . S
O556 Cu536 1.965 . S
O556 C543 1.248 1_455 S
H557 C540 0.930 . S
H558 C551 0.926 . S
Cu559 N560 1.999 . S
Cu559 O565 1.974 . S
Cu559 N570 1.985 1_545 S
Cu559 O579 1.959 1_545 S
N560 Cu559 1.999 . S
N560 C562 1.263 . S
N560 C564 1.389 . S
N561 C562 1.358 . S
N561 C563 1.400 . S
C562 N560 1.263 . S
C562 N561 1.358 . S
C562 H568 0.930 . S
C563 N561 1.400 . S
C563 C564 1.351 . S
C563 H580 0.930 . S
C564 N560 1.389 . S
C564 C563 1.351 . S
C564 H569 0.930 . S
O565 Cu559 1.974 . S
O565 C575 1.282 . S
C566 O567 1.261 1_565 S
C566 O579 1.251 . S
O567 C566 1.261 1_545 S
H568 C562 0.930 . S
H569 C564 0.930 . S
N570 Cu559 1.985 1_565 S
N570 C572 1.335 . S
N570 C573 1.390 . S
N571 C572 1.345 . S
N571 C574 1.336 . S
C572 N570 1.335 . S
C572 N571 1.345 . S
C572 H577 0.930 . S
C573 N570 1.390 . S
C573 C574 1.346 . S
C573 H578 0.930 1_565 S
C574 N571 1.336 . S
C574 C573 1.346 . S
C574 H581 0.929 . S
C575 O565 1.282 . S
C575 O576 1.216 . S
O576 C575 1.216 . S
H577 C572 0.930 . S
H578 C573 0.930 1_545 S
O579 Cu559 1.959 1_565 S
O579 C566 1.251 . S
H580 C563 0.930 . S
H581 C574 0.929 . S
Cu582 N583 1.999 . S
Cu582 O588 1.974 . S
Cu582 N593 1.985 . S
Cu582 O602 1.959 . S
N583 Cu582 1.999 . S
N583 C585 1.296 . S
N583 C587 1.389 . S
N584 C585 1.340 1_655 S
N584 C586 1.400 1_655 S
C585 N583 1.296 . S
C585 N584 1.340 1_455 S
C585 H591 0.917 1_455 S
C586 N584 1.400 1_455 S
C586 C587 1.351 . S
C586 H603 0.937 . S
C587 N583 1.389 . S
C587 C586 1.351 . S
C587 H592 0.930 . S
O588 Cu582 1.974 . S
O588 C598 1.282 . S
C589 O590 1.261 . S
C589 O602 1.251 . S
O590 C589 1.261 . S
H591 C585 0.917 1_655 S
H592 C587 0.930 . S
N593 Cu582 1.985 . S
N593 C595 1.335 . S
N593 C596 1.390 . S
N594 C595 1.345 . S
N594 C597 1.336 . S
C595 N593 1.335 . S
C595 N594 1.345 . S
C595 H600 0.930 . S
C596 N593 1.390 . S
C596 C597 1.346 . S
C596 H601 0.930 . S
C597 N594 1.336 . S
C597 C596 1.346 . S
C597 H604 0.929 . S
C598 O588 1.282 . S
C598 O599 1.216 . S
O599 C598 1.216 . S
H600 C595 0.930 . S
H601 C596 0.930 . S
O602 Cu582 1.959 . S
O602 C589 1.251 . S
H603 C586 0.937 . S
H604 C597 0.929 . S
Cu605 N606 1.999 . S
Cu605 O611 1.974 . S
Cu605 N616 2.004 . S
Cu605 O625 1.959 . S
N606 Cu605 1.999 . S
N606 C608 1.263 . S
N606 C610 1.389 . S
N607 C608 1.358 . S
N607 C609 1.400 . S
C608 N606 1.263 . S
C608 N607 1.358 . S
C608 H614 0.930 . S
C609 N607 1.400 . S
C609 C610 1.351 . S
C609 H626 0.930 . S
C610 N606 1.389 . S
C610 C609 1.351 . S
C610 H615 0.930 . S
O611 Cu605 1.974 . S
O611 C621 1.282 . S
C612 O613 1.234 1_565 S
C612 O625 1.251 1_565 S
O613 C612 1.234 1_545 S
H614 C608 0.930 . S
H615 C610 0.930 . S
N616 Cu605 2.004 . S
N616 C618 1.306 1_545 S
N616 C619 1.389 . S
N617 C618 1.345 . S
N617 C620 1.336 . S
C618 N616 1.306 1_565 S
C618 N617 1.345 . S
C618 H623 0.930 . S
C619 N616 1.389 . S
C619 C620 1.316 1_545 S
C619 H624 0.963 . S
C620 N617 1.336 . S
C620 C619 1.316 1_565 S
C620 H627 0.929 . S
C621 O611 1.282 . S
C621 O622 1.216 . S
O622 C621 1.216 . S
H623 C618 0.930 . S
H624 C619 0.963 . S
O625 Cu605 1.959 . S
O625 C612 1.251 1_545 S
H626 C609 0.930 . S
H627 C620 0.929 . S
Cu628 N629 1.999 . S
Cu628 O634 1.974 . S
Cu628 N639 1.985 . S
Cu628 O648 1.959 . S
N629 Cu628 1.999 . S
N629 C631 1.263 . S
N629 C633 1.389 . S
N630 C631 1.358 . S
N630 C632 1.400 . S
C631 N629 1.263 . S
C631 N630 1.358 . S
C631 H637 0.930 . S
C632 N630 1.400 . S
C632 C633 1.351 . S
C632 H649 0.930 . S
C633 N629 1.389 . S
C633 C632 1.351 . S
C633 H638 0.930 . S
O634 Cu628 1.974 . S
O634 C644 1.282 . S
C635 O636 1.261 . S
C635 O648 1.251 . S
O636 C635 1.261 . S
H637 C631 0.930 . S
H638 C633 0.930 . S
N639 Cu628 1.985 . S
N639 C641 1.335 . S
N639 C642 1.390 . S
N640 C641 1.345 . S
N640 C643 1.336 . S
C641 N639 1.335 . S
C641 N640 1.345 . S
C641 H646 0.930 . S
C642 N639 1.390 . S
C642 C643 1.346 . S
C642 H647 0.930 . S
C643 N640 1.336 . S
C643 C642 1.346 . S
C643 H650 0.929 . S
C644 O634 1.282 . S
C644 O645 1.216 . S
O645 C644 1.216 . S
H646 C641 0.930 . S
H647 C642 0.930 . S
O648 Cu628 1.959 . S
O648 C635 1.251 . S
H649 C632 0.930 . S
H650 C643 0.929 . S
Cu651 N652 1.999 . S
Cu651 O657 1.974 . S
Cu651 N662 1.985 . S
Cu651 O671 1.959 . S
N652 Cu651 1.999 . S
N652 C654 1.263 . S
N652 C656 1.389 . S
N653 C654 1.358 . S
N653 C655 1.400 . S
C654 N652 1.263 . S
C654 N653 1.358 . S
C654 H660 0.930 . S
C655 N653 1.400 . S
C655 C656 1.351 . S
C655 H672 0.930 . S
C656 N652 1.389 . S
C656 C655 1.351 . S
C656 H661 0.930 . S
O657 Cu651 1.974 . S
O657 C667 1.282 . S
C658 O659 1.261 . S
C658 O671 1.251 . S
O659 C658 1.261 . S
H660 C654 0.930 . S
H661 C656 0.930 . S
N662 Cu651 1.985 . S
N662 C664 1.335 . S
N662 C665 1.390 . S
N663 C664 1.345 . S
N663 C666 1.336 . S
C664 N662 1.335 . S
C664 N663 1.345 . S
C664 H669 0.930 . S
C665 N662 1.390 . S
C665 C666 1.346 . S
C665 H670 0.930 . S
C666 N663 1.336 . S
C666 C665 1.346 . S
C666 H673 0.929 . S
C667 O657 1.282 . S
C667 O668 1.216 . S
O668 C667 1.216 . S
H669 C664 0.930 . S
H670 C665 0.930 . S
O671 Cu651 1.959 . S
O671 C658 1.251 . S
H672 C655 0.930 . S
H673 C666 0.929 . S
Cu674 N675 1.999 . S
Cu674 O680 1.974 . S
Cu674 N685 1.985 . S
Cu674 O694 1.959 . S
N675 Cu674 1.999 . S
N675 C677 1.263 . S
N675 C679 1.389 . S
N676 C677 1.358 . S
N676 C678 1.400 . S
C677 N675 1.263 . S
C677 N676 1.358 . S
C677 H683 0.930 . S
C678 N676 1.400 . S
C678 C679 1.351 . S
C678 H695 0.930 . S
C679 N675 1.389 . S
C679 C678 1.351 . S
C679 H684 0.930 . S
O680 Cu674 1.974 . S
O680 C690 1.282 . S
C681 O682 1.261 . S
C681 O694 1.251 . S
O682 C681 1.261 . S
H683 C677 0.930 . S
H684 C679 0.930 . S
N685 Cu674 1.985 . S
N685 C687 1.335 . S
N685 C688 1.390 . S
N686 C687 1.345 . S
N686 C689 1.336 . S
C687 N685 1.335 . S
C687 N686 1.345 . S
C687 H692 0.930 . S
C688 N685 1.390 . S
C688 C689 1.346 . S
C688 H693 0.930 . S
C689 N686 1.336 . S
C689 C688 1.346 . S
C689 H696 0.929 . S
C690 O680 1.282 . S
C690 O691 1.216 . S
O691 C690 1.216 . S
H692 C687 0.930 . S
H693 C688 0.930 . S
O694 Cu674 1.959 . S
O694 C681 1.251 . S
H695 C678 0.930 . S
H696 C689 0.929 . S
Cu697 N698 1.999 . S
Cu697 O703 1.974 . S
Cu697 N708 1.985 . S
Cu697 O717 1.959 . S
N698 Cu697 1.999 . S
N698 C700 1.263 . S
N698 C702 1.389 . S
N699 C700 1.358 . S
N699 C701 1.400 . S
C700 N698 1.263 . S
C700 N699 1.358 . S
C700 H706 0.930 . S
C701 N699 1.400 . S
C701 C702 1.351 . S
C701 H718 0.930 . S
C702 N698 1.389 . S
C702 C701 1.351 . S
C702 H707 0.930 . S
O703 Cu697 1.974 . S
O703 C713 1.282 . S
C704 O705 1.261 . S
C704 O717 1.251 . S
O705 C704 1.261 . S
H706 C700 0.930 . S
H707 C702 0.930 . S
N708 Cu697 1.985 . S
N708 C710 1.335 . S
N708 C711 1.390 . S
N709 C710 1.345 . S
N709 C712 1.336 . S
C710 N708 1.335 . S
C710 N709 1.345 . S
C710 H715 0.930 . S
C711 N708 1.390 . S
C711 C712 1.346 . S
C711 H716 0.930 . S
C712 N709 1.336 . S
C712 C711 1.346 . S
C712 H719 0.929 . S
C713 O703 1.282 . S
C713 O714 1.216 . S
O714 C713 1.216 . S
H715 C710 0.930 . S
H716 C711 0.930 . S
O717 Cu697 1.959 . S
O717 C704 1.251 . S
H718 C701 0.930 . S
H719 C712 0.929 . S
Cu720 N721 1.999 . S
Cu720 O726 1.974 . S
Cu720 N731 1.985 . S
Cu720 O740 1.959 . S
N721 Cu720 1.999 . S
N721 C723 1.263 . S
N721 C725 1.389 . S
N722 C723 1.358 . S
N722 C724 1.400 . S
C723 N721 1.263 . S
C723 N722 1.358 . S
C723 H729 0.930 . S
C724 N722 1.400 . S
C724 C725 1.351 . S
C724 H741 0.930 . S
C725 N721 1.389 . S
C725 C724 1.351 . S
C725 H730 0.930 . S
O726 Cu720 1.974 . S
O726 C736 1.282 . S
C727 O728 1.261 . S
C727 O740 1.251 . S
O728 C727 1.261 . S
H729 C723 0.930 . S
H730 C725 0.930 . S
N731 Cu720 1.985 . S
N731 C733 1.335 . S
N731 C734 1.390 . S
N732 C733 1.345 . S
N732 C735 1.336 . S
C733 N731 1.335 . S
C733 N732 1.345 . S
C733 H738 0.930 . S
C734 N731 1.390 . S
C734 C735 1.346 . S
C734 H739 0.930 . S
C735 N732 1.336 . S
C735 C734 1.346 . S
C735 H742 0.929 . S
C736 O726 1.282 . S
C736 O737 1.216 . S
O737 C736 1.216 . S
H738 C733 0.930 . S
H739 C734 0.930 . S
O740 Cu720 1.959 . S
O740 C727 1.251 . S
H741 C724 0.930 . S
H742 C735 0.929 . S
Cu743 N744 1.999 . S
Cu743 O749 1.974 . S
Cu743 N754 1.985 . S
Cu743 O763 1.959 . S
N744 Cu743 1.999 . S
N744 C746 1.263 . S
N744 C748 1.389 . S
N745 C746 1.358 . S
N745 C747 1.400 . S
C746 N744 1.263 . S
C746 N745 1.358 . S
C746 H752 0.930 . S
C747 N745 1.400 . S
C747 C748 1.351 . S
C747 H764 0.930 . S
C748 N744 1.389 . S
C748 C747 1.351 . S
C748 H753 0.930 . S
O749 Cu743 1.974 . S
O749 C759 1.282 . S
C750 O751 1.261 . S
C750 O763 1.251 . S
O751 C750 1.261 . S
H752 C746 0.930 . S
H753 C748 0.930 . S
N754 Cu743 1.985 . S
N754 C756 1.335 . S
N754 C757 1.390 . S
N755 C756 1.345 . S
N755 C758 1.336 . S
C756 N754 1.335 . S
C756 N755 1.345 . S
C756 H761 0.930 . S
C757 N754 1.390 . S
C757 C758 1.346 . S
C757 H762 0.930 . S
C758 N755 1.336 . S
C758 C757 1.346 . S
C758 H765 0.929 . S
C759 O749 1.282 . S
C759 O760 1.216 . S
O760 C759 1.216 . S
H761 C756 0.930 . S
H762 C757 0.930 . S
O763 Cu743 1.959 . S
O763 C750 1.251 . S
H764 C747 0.930 . S
H765 C758 0.929 . S
Cu766 N767 1.999 . S
Cu766 O772 1.974 . S
Cu766 N777 1.985 . S
Cu766 O786 1.959 . S
N767 Cu766 1.999 . S
N767 C769 1.263 . S
N767 C771 1.389 . S
N768 C769 1.358 . S
N768 C770 1.400 . S
C769 N767 1.263 . S
C769 N768 1.358 . S
C769 H775 0.930 . S
C770 N768 1.400 . S
C770 C771 1.351 . S
C770 H787 0.930 . S
C771 N767 1.389 . S
C771 C770 1.351 . S
C771 H776 0.930 . S
O772 Cu766 1.974 . S
O772 C782 1.282 . S
C773 O774 1.261 . S
C773 O786 1.251 . S
O774 C773 1.261 . S
H775 C769 0.930 . S
H776 C771 0.930 . S
N777 Cu766 1.985 . S
N777 C779 1.335 . S
N777 C780 1.390 . S
N778 C779 1.345 . S
N778 C781 1.336 . S
C779 N777 1.335 . S
C779 N778 1.345 . S
C779 H784 0.930 . S
C780 N777 1.390 . S
C780 C781 1.346 . S
C780 H785 0.930 . S
C781 N778 1.336 . S
C781 C780 1.346 . S
C781 H788 0.929 . S
C782 O772 1.282 . S
C782 O783 1.216 . S
O783 C782 1.216 . S
H784 C779 0.930 . S
H785 C780 0.930 . S
O786 Cu766 1.959 . S
O786 C773 1.251 . S
H787 C770 0.930 . S
H788 C781 0.929 . S
Cu789 N790 1.999 . S
Cu789 O795 1.974 . S
Cu789 N800 1.985 . S
Cu789 O809 1.959 . S
N790 Cu789 1.999 . S
N790 C792 1.263 . S
N790 C794 1.389 . S
N791 C792 1.358 . S
N791 C793 1.400 . S
C792 N790 1.263 . S
C792 N791 1.358 . S
C792 H798 0.930 . S
C793 N791 1.400 . S
C793 C794 1.351 . S
C793 H810 0.930 . S
C794 N790 1.389 . S
C794 C793 1.351 . S
C794 H799 0.930 . S
O795 Cu789 1.974 . S
O795 C805 1.282 . S
C796 O797 1.261 . S
C796 O809 1.251 . S
O797 C796 1.261 . S
H798 C792 0.930 . S
H799 C794 0.930 . S
N800 Cu789 1.985 . S
N800 C802 1.335 . S
N800 C803 1.390 . S
N801 C802 1.345 . S
N801 C804 1.336 . S
C802 N800 1.335 . S
C802 N801 1.345 . S
C802 H807 0.930 . S
C803 N800 1.390 . S
C803 C804 1.346 . S
C803 H808 0.930 . S
C804 N801 1.336 . S
C804 C803 1.346 . S
C804 H811 0.929 . S
C805 O795 1.282 . S
C805 O806 1.216 . S
O806 C805 1.216 . S
H807 C802 0.930 . S
H808 C803 0.930 . S
O809 Cu789 1.959 . S
O809 C796 1.251 . S
H810 C793 0.930 . S
H811 C804 0.929 . S
Cu812 N813 1.999 . S
Cu812 O818 1.974 . S
Cu812 N823 1.985 . S
Cu812 O832 1.959 . S
N813 Cu812 1.999 . S
N813 C815 1.263 . S
N813 C817 1.389 . S
N814 C815 1.358 . S
N814 C816 1.400 . S
C815 N813 1.263 . S
C815 N814 1.358 . S
C815 H821 0.930 . S
C816 N814 1.400 . S
C816 C817 1.351 . S
C816 H833 0.930 . S
C817 N813 1.389 . S
C817 C816 1.351 . S
C817 H822 0.930 . S
O818 Cu812 1.974 . S
O818 C828 1.282 . S
C819 O820 1.261 . S
C819 O832 1.251 . S
O820 C819 1.261 . S
H821 C815 0.930 . S
H822 C817 0.930 . S
N823 Cu812 1.985 . S
N823 C825 1.335 . S
N823 C826 1.390 . S
N824 C825 1.345 . S
N824 C827 1.336 . S
C825 N823 1.335 . S
C825 N824 1.345 . S
C825 H830 0.930 . S
C826 N823 1.390 . S
C826 C827 1.346 . S
C826 H831 0.930 . S
C827 N824 1.336 . S
C827 C826 1.346 . S
C827 H834 0.929 . S
C828 O818 1.282 . S
C828 O829 1.216 . S
O829 C828 1.216 . S
H830 C825 0.930 . S
H831 C826 0.930 . S
O832 Cu812 1.959 . S
O832 C819 1.251 . S
H833 C816 0.930 . S
H834 C827 0.929 . S
Cu835 N836 1.999 . S
Cu835 O841 1.974 . S
Cu835 N846 1.985 . S
Cu835 O855 1.959 . S
N836 Cu835 1.999 . S
N836 C838 1.263 . S
N836 C840 1.389 . S
N837 C838 1.358 . S
N837 C839 1.400 . S
C838 N836 1.263 . S
C838 N837 1.358 . S
C838 H844 0.930 . S
C839 N837 1.400 . S
C839 C840 1.351 . S
C839 H856 0.930 . S
C840 N836 1.389 . S
C840 C839 1.351 . S
C840 H845 0.930 . S
O841 Cu835 1.974 . S
O841 C851 1.282 . S
C842 O843 1.261 . S
C842 O855 1.251 . S
O843 C842 1.261 . S
H844 C838 0.930 . S
H845 C840 0.930 . S
N846 Cu835 1.985 . S
N846 C848 1.335 . S
N846 C849 1.390 . S
N847 C848 1.345 . S
N847 C850 1.336 . S
C848 N846 1.335 . S
C848 N847 1.345 . S
C848 H853 0.930 . S
C849 N846 1.390 . S
C849 C850 1.346 . S
C849 H854 0.930 . S
C850 N847 1.336 . S
C850 C849 1.346 . S
C850 H857 0.929 . S
C851 O841 1.282 . S
C851 O852 1.216 . S
O852 C851 1.216 . S
H853 C848 0.930 . S
H854 C849 0.930 . S
O855 Cu835 1.959 . S
O855 C842 1.251 . S
H856 C839 0.930 . S
H857 C850 0.929 . S
Cu858 N859 1.999 . S
Cu858 O864 1.974 . S
Cu858 N869 1.985 . S
Cu858 O878 1.959 . S
N859 Cu858 1.999 . S
N859 C861 1.263 . S
N859 C863 1.389 . S
N860 C861 1.358 . S
N860 C862 1.400 . S
C861 N859 1.263 . S
C861 N860 1.358 . S
C861 H867 0.930 . S
C862 N860 1.400 . S
C862 C863 1.351 . S
C862 H879 0.930 . S
C863 N859 1.389 . S
C863 C862 1.351 . S
C863 H868 0.930 . S
O864 Cu858 1.974 . S
O864 C874 1.282 . S
C865 O866 1.261 . S
C865 O878 1.251 . S
O866 C865 1.261 . S
H867 C861 0.930 . S
H868 C863 0.930 . S
N869 Cu858 1.985 . S
N869 C871 1.335 . S
N869 C872 1.390 . S
N870 C871 1.345 . S
N870 C873 1.336 . S
C871 N869 1.335 . S
C871 N870 1.345 . S
C871 H876 0.930 . S
C872 N869 1.390 . S
C872 C873 1.346 . S
C872 H877 0.930 . S
C873 N870 1.336 . S
C873 C872 1.346 . S
C873 H880 0.929 . S
C874 O864 1.282 . S
C874 O875 1.216 . S
O875 C874 1.216 . S
H876 C871 0.930 . S
H877 C872 0.930 . S
O878 Cu858 1.959 . S
O878 C865 1.251 . S
H879 C862 0.930 . S
H880 C873 0.929 . S
Cu881 N882 1.999 . S
Cu881 O887 1.974 . S
Cu881 N892 1.985 . S
Cu881 O901 1.959 . S
N882 Cu881 1.999 . S
N882 C884 1.263 . S
N882 C886 1.389 . S
N883 C884 1.358 . S
N883 C885 1.400 . S
C884 N882 1.263 . S
C884 N883 1.358 . S
C884 H890 0.930 . S
C885 N883 1.400 . S
C885 C886 1.351 . S
C885 H902 0.930 . S
C886 N882 1.389 . S
C886 C885 1.351 . S
C886 H891 0.930 . S
O887 Cu881 1.974 . S
O887 C897 1.282 . S
C888 O889 1.261 . S
C888 O901 1.251 . S
O889 C888 1.261 . S
H890 C884 0.930 . S
H891 C886 0.930 . S
N892 Cu881 1.985 . S
N892 C894 1.335 . S
N892 C895 1.390 . S
N893 C894 1.345 . S
N893 C896 1.336 . S
C894 N892 1.335 . S
C894 N893 1.345 . S
C894 H899 0.930 . S
C895 N892 1.390 . S
C895 C896 1.346 . S
C895 H900 0.930 . S
C896 N893 1.336 . S
C896 C895 1.346 . S
C896 H903 0.929 . S
C897 O887 1.282 . S
C897 O898 1.216 . S
O898 C897 1.216 . S
H899 C894 0.930 . S
H900 C895 0.930 . S
O901 Cu881 1.959 . S
O901 C888 1.251 . S
H902 C885 0.930 . S
H903 C896 0.929 . S
H904 C912 0.929 . S
H905 C914 0.930 . S
H906 C916 0.930 . S
H907 C919 0.929 . S
H908 C922 0.930 . S
H909 C924 0.960 . S
H910 C924 0.960 . S
H911 C924 0.960 . S
C912 H904 0.929 . S
C912 C913 1.377 . S
C912 C914 1.384 . S
C913 C912 1.377 . S
C913 C919 1.390 . S
C914 H905 0.930 . S
C914 C912 1.384 . S
C914 C915 1.372 . S
C915 C914 1.372 . S
C915 C916 1.400 . S
C915 C920 1.490 . S
C916 H906 0.930 . S
C916 C915 1.400 . S
C916 C919 1.386 . S
H917 C933 0.930 . S
H918 C934 0.931 . S
C919 H907 0.929 . S
C919 C913 1.390 . S
C919 C916 1.386 . S
C920 C915 1.490 . S
C920 C922 1.395 . S
C920 C923 1.403 . S
H921 C927 0.930 . S
C922 H908 0.930 . S
C922 C920 1.395 . S
C922 C925 1.403 . S
C923 C920 1.403 . S
C923 C924 1.524 . S
C923 C927 1.400 . S
C924 H909 0.960 . S
C924 H910 0.960 . S
C924 H911 0.960 . S
C924 C923 1.524 . S
C925 C922 1.403 . S
C925 C926 1.392 . S
C925 C929 1.495 . S
C926 C925 1.392 . S
C926 C927 1.385 . S
C926 C928 1.478 . S
C927 H921 0.930 . S
C927 C923 1.400 . S
C927 C926 1.385 . S
C928 C926 1.478 . S
C928 C930 1.381 . S
C928 C934 1.383 . S
C929 C925 1.495 . S
C929 H935 0.959 . S
C929 H936 0.961 . S
C929 H937 0.960 . S
C930 C928 1.381 . S
C930 C931 1.394 . S
C930 H938 0.930 . S
C931 C930 1.394 . S
C931 C932 1.383 . S
C931 H939 0.929 . S
C932 C931 1.383 . S
C932 C933 1.377 . S
C933 H917 0.930 . S
C933 C932 1.377 . S
C933 C934 1.379 . S
C934 H918 0.931 . S
C934 C928 1.383 . S
C934 C933 1.379 . S
H935 C929 0.959 . S
H936 C929 0.961 . S
H937 C929 0.960 . S
H938 C930 0.930 . S
H939 C931 0.929 . S
H940 C948 0.929 . S
H941 C950 0.930 . S
H942 C952 0.930 . S
H943 C955 0.929 . S
H944 C958 0.930 . S
H945 C960 0.960 . S
H946 C960 0.960 . S
H947 C960 0.960 . S
C948 H940 0.929 . S
C948 C949 1.377 . S
C948 C950 1.384 . S
C949 C948 1.377 . S
C949 C955 1.390 . S
C950 H941 0.930 . S
C950 C948 1.384 . S
C950 C951 1.372 . S
C951 C950 1.372 . S
C951 C952 1.400 . S
C951 C956 1.490 . S
C952 H942 0.930 . S
C952 C951 1.400 . S
C952 C955 1.386 . S
H953 C969 0.930 . S
H954 C970 0.931 . S
C955 H943 0.929 . S
C955 C949 1.390 . S
C955 C952 1.386 . S
C956 C951 1.490 . S
C956 C958 1.395 . S
C956 C959 1.403 . S
H957 C963 0.930 . S
C958 H944 0.930 . S
C958 C956 1.395 . S
C958 C961 1.403 . S
C959 C956 1.403 . S
C959 C960 1.524 . S
C959 C963 1.400 . S
C960 H945 0.960 . S
C960 H946 0.960 . S
C960 H947 0.960 . S
C960 C959 1.524 . S
C961 C958 1.403 . S
C961 C962 1.392 . S
C961 C965 1.495 . S
C962 C961 1.392 . S
C962 C963 1.385 . S
C962 C964 1.478 . S
C963 H957 0.930 . S
C963 C959 1.400 . S
C963 C962 1.385 . S
C964 C962 1.478 . S
C964 C966 1.381 . S
C964 C970 1.383 . S
C965 C961 1.495 . S
C965 H971 0.959 . S
C965 H972 0.961 . S
C965 H973 0.960 . S
C966 C964 1.381 . S
C966 C967 1.394 . S
C966 H974 0.930 . S
C967 C966 1.394 . S
C967 C968 1.383 . S
C967 H975 0.929 . S
C968 C967 1.383 . S
C968 C969 1.377 . S
C969 H953 0.930 . S
C969 C968 1.377 . S
C969 C970 1.379 . S
C970 H954 0.931 . S
C970 C964 1.383 . S
C970 C969 1.379 . S
H971 C965 0.959 . S
H972 C965 0.961 . S
H973 C965 0.960 . S
H974 C966 0.930 . S
H975 C967 0.929 . S
H976 C984 0.929 . S
H977 C986 0.930 . S
H978 C988 0.930 . S
H979 C991 0.929 . S
H980 C994 0.930 . S
H981 C996 0.960 . S
H982 C996 0.960 . S
H983 C996 0.960 . S
C984 H976 0.929 . S
C984 C985 1.377 . S
C984 C986 1.384 . S
C985 C984 1.377 . S
C985 C991 1.390 . S
C986 H977 0.930 . S
C986 C984 1.384 . S
C986 C987 1.372 . S
C987 C986 1.372 . S
C987 C988 1.400 . S
C987 C992 1.490 . S
C988 H978 0.930 . S
C988 C987 1.400 . S
C988 C991 1.386 . S
H989 C1005 0.930 . S
H990 C1006 0.931 . S
C991 H979 0.929 . S
C991 C985 1.390 . S
C991 C988 1.386 . S
C992 C987 1.490 . S
C992 C994 1.395 . S
C992 C995 1.403 . S
H993 C999 0.930 . S
C994 H980 0.930 . S
C994 C992 1.395 . S
C994 C997 1.403 . S
C995 C992 1.403 . S
C995 C996 1.524 . S
C995 C999 1.400 . S
C996 H981 0.960 . S
C996 H982 0.960 . S
C996 H983 0.960 . S
C996 C995 1.524 . S
C997 C994 1.403 . S
C997 C998 1.392 . S
C997 C1001 1.495 . S
C998 C997 1.392 . S
C998 C999 1.385 . S
C998 C1000 1.478 . S
C999 H993 0.930 . S
C999 C995 1.400 . S
C999 C998 1.385 . S
C1000 C998 1.478 . S
C1000 C1002 1.381 . S
C1000 C1006 1.383 . S
C1001 C997 1.495 . S
C1001 H1007 0.959 . S
C1001 H1008 0.961 . S
C1001 H1009 0.960 . S
C1002 C1000 1.381 . S
C1002 C1003 1.394 . S
C1002 H1010 0.930 . S
C1003 C1002 1.394 . S
C1003 C1004 1.383 . S
C1003 H1011 0.929 . S
C1004 C1003 1.383 . S
C1004 C1005 1.377 . S
C1005 H989 0.930 . S
C1005 C1004 1.377 . S
C1005 C1006 1.379 . S
C1006 H990 0.931 . S
C1006 C1000 1.383 . S
C1006 C1005 1.379 . S
H1007 C1001 0.959 . S
H1008 C1001 0.961 . S
H1009 C1001 0.960 . S
H1010 C1002 0.930 . S
H1011 C1003 0.929 . S
H1012 C1020 0.929 . S
H1013 C1022 0.930 . S
H1014 C1024 0.930 . S
H1015 C1027 0.929 . S
H1016 C1030 0.930 . S
H1017 C1032 0.960 . S
H1018 C1032 0.960 . S
H1019 C1032 0.960 . S
C1020 H1012 0.929 . S
C1020 C1021 1.377 . S
C1020 C1022 1.384 . S
C1021 C1020 1.377 . S
C1021 C1027 1.390 . S
C1022 H1013 0.930 . S
C1022 C1020 1.384 . S
C1022 C1023 1.372 . S
C1023 C1022 1.372 . S
C1023 C1024 1.400 . S
C1023 C1028 1.490 . S
C1024 H1014 0.930 . S
C1024 C1023 1.400 . S
C1024 C1027 1.386 . S
H1025 C1041 0.930 . S
H1026 C1042 0.931 . S
C1027 H1015 0.929 . S
C1027 C1021 1.390 . S
C1027 C1024 1.386 . S
C1028 C1023 1.490 . S
C1028 C1030 1.395 . S
C1028 C1031 1.403 . S
H1029 C1035 0.930 . S
C1030 H1016 0.930 . S
C1030 C1028 1.395 . S
C1030 C1033 1.403 . S
C1031 C1028 1.403 . S
C1031 C1032 1.524 . S
C1031 C1035 1.400 . S
C1032 H1017 0.960 . S
C1032 H1018 0.960 . S
C1032 H1019 0.960 . S
C1032 C1031 1.524 . S
C1033 C1030 1.403 . S
C1033 C1034 1.392 . S
C1033 C1037 1.495 . S
C1034 C1033 1.392 . S
C1034 C1035 1.385 . S
C1034 C1036 1.478 . S
C1035 H1029 0.930 . S
C1035 C1031 1.400 . S
C1035 C1034 1.385 . S
C1036 C1034 1.478 . S
C1036 C1038 1.381 . S
C1036 C1042 1.383 . S
C1037 C1033 1.495 . S
C1037 H1043 0.959 . S
C1037 H1044 0.961 . S
C1037 H1045 0.960 . S
C1038 C1036 1.381 . S
C1038 C1039 1.394 . S
C1038 H1046 0.930 . S
C1039 C1038 1.394 . S
C1039 C1040 1.383 . S
C1039 H1047 0.929 . S
C1040 C1039 1.383 . S
C1040 C1041 1.377 . S
C1041 H1025 0.930 . S
C1041 C1040 1.377 . S
C1041 C1042 1.379 . S
C1042 H1026 0.931 . S
C1042 C1036 1.383 . S
C1042 C1041 1.379 . S
H1043 C1037 0.959 . S
H1044 C1037 0.961 . S
H1045 C1037 0.960 . S
H1046 C1038 0.930 . S
H1047 C1039 0.929 . S
H1048 C1056 0.929 . S
H1049 C1058 0.930 . S
H1050 C1060 0.930 . S
H1051 C1063 0.929 . S
H1052 C1066 0.930 . S
H1053 C1068 0.960 . S
H1054 C1068 0.960 . S
H1055 C1068 0.960 . S
C1056 H1048 0.929 . S
C1056 C1057 1.377 . S
C1056 C1058 1.384 . S
C1057 C1056 1.377 . S
C1057 C1063 1.390 . S
C1058 H1049 0.930 . S
C1058 C1056 1.384 . S
C1058 C1059 1.372 . S
C1059 C1058 1.372 . S
C1059 C1060 1.400 . S
C1059 C1064 1.490 . S
C1060 H1050 0.930 . S
C1060 C1059 1.400 . S
C1060 C1063 1.386 . S
H1061 C1077 0.930 . S
H1062 C1078 0.931 . S
C1063 H1051 0.929 . S
C1063 C1057 1.390 . S
C1063 C1060 1.386 . S
C1064 C1059 1.490 . S
C1064 C1066 1.395 . S
C1064 C1067 1.403 . S
H1065 C1071 0.930 . S
C1066 H1052 0.930 . S
C1066 C1064 1.395 . S
C1066 C1069 1.403 . S
C1067 C1064 1.403 . S
C1067 C1068 1.524 . S
C1067 C1071 1.400 . S
C1068 H1053 0.960 . S
C1068 H1054 0.960 . S
C1068 H1055 0.960 . S
C1068 C1067 1.524 . S
C1069 C1066 1.403 . S
C1069 C1070 1.392 . S
C1069 C1073 1.495 . S
C1070 C1069 1.392 . S
C1070 C1071 1.385 . S
C1070 C1072 1.478 . S
C1071 H1065 0.930 . S
C1071 C1067 1.400 . S
C1071 C1070 1.385 . S
C1072 C1070 1.478 . S
C1072 C1074 1.381 . S
C1072 C1078 1.383 . S
C1073 C1069 1.495 . S
C1073 H1079 0.959 . S
C1073 H1080 0.961 . S
C1073 H1081 0.960 . S
C1074 C1072 1.381 . S
C1074 C1075 1.394 . S
C1074 H1082 0.930 . S
C1075 C1074 1.394 . S
C1075 C1076 1.383 . S
C1075 H1083 0.929 . S
C1076 C1075 1.383 . S
C1076 C1077 1.377 . S
C1077 H1061 0.930 . S
C1077 C1076 1.377 . S
C1077 C1078 1.379 . S
C1078 H1062 0.931 . S
C1078 C1072 1.383 . S
C1078 C1077 1.379 . S
H1079 C1073 0.959 . S
H1080 C1073 0.961 . S
H1081 C1073 0.960 . S
H1082 C1074 0.930 . S
H1083 C1075 0.929 . S
H1084 C1092 0.929 . S
H1085 C1094 0.930 . S
H1086 C1096 0.930 . S
H1087 C1099 0.929 . S
H1088 C1102 0.930 . S
H1089 C1104 0.960 . S
H1090 C1104 0.960 . S
H1091 C1104 0.960 . S
C1092 H1084 0.929 . S
C1092 C1093 1.377 . S
C1092 C1094 1.384 . S
C1093 C1092 1.377 . S
C1093 C1099 1.390 . S
C1094 H1085 0.930 . S
C1094 C1092 1.384 . S
C1094 C1095 1.372 . S
C1095 C1094 1.372 . S
C1095 C1096 1.400 . S
C1095 C1100 1.490 . S
C1096 H1086 0.930 . S
C1096 C1095 1.400 . S
C1096 C1099 1.386 . S
H1097 C1113 0.930 . S
H1098 C1114 0.931 . S
C1099 H1087 0.929 . S
C1099 C1093 1.390 . S
C1099 C1096 1.386 . S
C1100 C1095 1.490 . S
C1100 C1102 1.395 . S
C1100 C1103 1.403 . S
H1101 C1107 0.930 . S
C1102 H1088 0.930 . S
C1102 C1100 1.395 . S
C1102 C1105 1.403 . S
C1103 C1100 1.403 . S
C1103 C1104 1.524 . S
C1103 C1107 1.400 . S
C1104 H1089 0.960 . S
C1104 H1090 0.960 . S
C1104 H1091 0.960 . S
C1104 C1103 1.524 . S
C1105 C1102 1.403 . S
C1105 C1106 1.392 . S
C1105 C1109 1.495 . S
C1106 C1105 1.392 . S
C1106 C1107 1.385 . S
C1106 C1108 1.478 . S
C1107 H1101 0.930 . S
C1107 C1103 1.400 . S
C1107 C1106 1.385 . S
C1108 C1106 1.478 . S
C1108 C1110 1.381 . S
C1108 C1114 1.383 . S
C1109 C1105 1.495 . S
C1109 H1115 0.959 . S
C1109 H1116 0.961 . S
C1109 H1117 0.960 . S
C1110 C1108 1.381 . S
C1110 C1111 1.394 . S
C1110 H1118 0.930 . S
C1111 C1110 1.394 . S
C1111 C1112 1.383 . S
C1111 H1119 0.929 . S
C1112 C1111 1.383 . S
C1112 C1113 1.377 . S
C1113 H1097 0.930 . S
C1113 C1112 1.377 . S
C1113 C1114 1.379 . S
C1114 H1098 0.931 . S
C1114 C1108 1.383 . S
C1114 C1113 1.379 . S
H1115 C1109 0.959 . S
H1116 C1109 0.961 . S
H1117 C1109 0.960 . S
H1118 C1110 0.930 . S
H1119 C1111 0.929 . S
H1120 C1128 0.929 . S
H1121 C1130 0.930 . S
H1122 C1132 0.930 . S
H1123 C1135 0.929 . S
H1124 C1138 0.930 . S
H1125 C1140 0.960 . S
H1126 C1140 0.960 . S
H1127 C1140 0.960 . S
C1128 H1120 0.929 . S
C1128 C1129 1.377 . S
C1128 C1130 1.384 . S
C1129 C1128 1.377 . S
C1129 C1135 1.390 . S
C1130 H1121 0.930 . S
C1130 C1128 1.384 . S
C1130 C1131 1.372 . S
C1131 C1130 1.372 . S
C1131 C1132 1.400 . S
C1131 C1136 1.490 . S
C1132 H1122 0.930 . S
C1132 C1131 1.400 . S
C1132 C1135 1.386 . S
H1133 C1149 0.930 . S
H1134 C1150 0.931 . S
C1135 H1123 0.929 . S
C1135 C1129 1.390 . S
C1135 C1132 1.386 . S
C1136 C1131 1.490 . S
C1136 C1138 1.395 . S
C1136 C1139 1.403 . S
H1137 C1143 0.930 . S
C1138 H1124 0.930 . S
C1138 C1136 1.395 . S
C1138 C1141 1.403 . S
C1139 C1136 1.403 . S
C1139 C1140 1.524 . S
C1139 C1143 1.400 . S
C1140 H1125 0.960 . S
C1140 H1126 0.960 . S
C1140 H1127 0.960 . S
C1140 C1139 1.524 . S
C1141 C1138 1.403 . S
C1141 C1142 1.392 . S
C1141 C1145 1.495 . S
C1142 C1141 1.392 . S
C1142 C1143 1.385 . S
C1142 C1144 1.478 . S
C1143 H1137 0.930 . S
C1143 C1139 1.400 . S
C1143 C1142 1.385 . S
C1144 C1142 1.478 . S
C1144 C1146 1.381 . S
C1144 C1150 1.383 . S
C1145 C1141 1.495 . S
C1145 H1151 0.959 . S
C1145 H1152 0.961 . S
C1145 H1153 0.960 . S
C1146 C1144 1.381 . S
C1146 C1147 1.394 . S
C1146 H1154 0.930 . S
C1147 C1146 1.394 . S
C1147 C1148 1.383 . S
C1147 H1155 0.929 . S
C1148 C1147 1.383 . S
C1148 C1149 1.377 . S
C1149 H1133 0.930 . S
C1149 C1148 1.377 . S
C1149 C1150 1.379 . S
C1150 H1134 0.931 . S
C1150 C1144 1.383 . S
C1150 C1149 1.379 . S
H1151 C1145 0.959 . S
H1152 C1145 0.961 . S
H1153 C1145 0.960 . S
H1154 C1146 0.930 . S
H1155 C1147 0.929 . S
H1156 C1164 0.929 . S
H1157 C1166 0.930 . S
H1158 C1168 0.930 . S
H1159 C1171 0.929 . S
H1160 C1174 0.930 . S
H1161 C1176 0.960 . S
H1162 C1176 0.960 . S
H1163 C1176 0.960 . S
C1164 H1156 0.929 . S
C1164 C1165 1.377 . S
C1164 C1166 1.384 . S
C1165 C1164 1.377 . S
C1165 C1171 1.390 . S
C1166 H1157 0.930 . S
C1166 C1164 1.384 . S
C1166 C1167 1.372 . S
C1167 C1166 1.372 . S
C1167 C1168 1.400 . S
C1167 C1172 1.490 . S
C1168 H1158 0.930 . S
C1168 C1167 1.400 . S
C1168 C1171 1.386 . S
H1169 C1185 0.930 . S
H1170 C1186 0.931 . S
C1171 H1159 0.929 . S
C1171 C1165 1.390 . S
C1171 C1168 1.386 . S
C1172 C1167 1.490 . S
C1172 C1174 1.395 . S
C1172 C1175 1.403 . S
H1173 C1179 0.930 . S
C1174 H1160 0.930 . S
C1174 C1172 1.395 . S
C1174 C1177 1.403 . S
C1175 C1172 1.403 . S
C1175 C1176 1.524 . S
C1175 C1179 1.400 . S
C1176 H1161 0.960 . S
C1176 H1162 0.960 . S
C1176 H1163 0.960 . S
C1176 C1175 1.524 . S
C1177 C1174 1.403 . S
C1177 C1178 1.392 . S
C1177 C1181 1.495 . S
C1178 C1177 1.392 . S
C1178 C1179 1.385 . S
C1178 C1180 1.478 . S
C1179 H1173 0.930 . S
C1179 C1175 1.400 . S
C1179 C1178 1.385 . S
C1180 C1178 1.478 . S
C1180 C1182 1.381 . S
C1180 C1186 1.383 . S
C1181 C1177 1.495 . S
C1181 H1187 0.959 . S
C1181 H1188 0.961 . S
C1181 H1189 0.960 . S
C1182 C1180 1.381 . S
C1182 C1183 1.394 . S
C1182 H1190 0.930 . S
C1183 C1182 1.394 . S
C1183 C1184 1.383 . S
C1183 H1191 0.929 . S
C1184 C1183 1.383 . S
C1184 C1185 1.377 . S
C1185 H1169 0.930 . S
C1185 C1184 1.377 . S
C1185 C1186 1.379 . S
C1186 H1170 0.931 . S
C1186 C1180 1.383 . S
C1186 C1185 1.379 . S
H1187 C1181 0.959 . S
H1188 C1181 0.961 . S
H1189 C1181 0.960 . S
H1190 C1182 0.930 . S
H1191 C1183 0.929 . S
H1192 C1200 0.929 . S
H1193 C1202 0.930 . S
H1194 C1204 0.930 . S
H1195 C1207 0.929 . S
H1196 C1210 0.930 . S
H1197 C1212 0.960 . S
H1198 C1212 0.960 . S
H1199 C1212 0.960 . S
C1200 H1192 0.929 . S
C1200 C1201 1.377 . S
C1200 C1202 1.384 . S
C1201 C1200 1.377 . S
C1201 C1207 1.390 . S
C1202 H1193 0.930 . S
C1202 C1200 1.384 . S
C1202 C1203 1.372 . S
C1203 C1202 1.372 . S
C1203 C1204 1.400 . S
C1203 C1208 1.490 . S
C1204 H1194 0.930 . S
C1204 C1203 1.400 . S
C1204 C1207 1.386 . S
H1205 C1221 0.930 . S
H1206 C1222 0.931 . S
C1207 H1195 0.929 . S
C1207 C1201 1.390 . S
C1207 C1204 1.386 . S
C1208 C1203 1.490 . S
C1208 C1210 1.395 . S
C1208 C1211 1.403 . S
H1209 C1215 0.930 . S
C1210 H1196 0.930 . S
C1210 C1208 1.395 . S
C1210 C1213 1.403 . S
C1211 C1208 1.403 . S
C1211 C1212 1.524 . S
C1211 C1215 1.400 . S
C1212 H1197 0.960 . S
C1212 H1198 0.960 . S
C1212 H1199 0.960 . S
C1212 C1211 1.524 . S
C1213 C1210 1.403 . S
C1213 C1214 1.392 . S
C1213 C1217 1.495 . S
C1214 C1213 1.392 . S
C1214 C1215 1.385 . S
C1214 C1216 1.478 . S
C1215 H1209 0.930 . S
C1215 C1211 1.400 . S
C1215 C1214 1.385 . S
C1216 C1214 1.478 . S
C1216 C1218 1.381 . S
C1216 C1222 1.383 . S
C1217 C1213 1.495 . S
C1217 H1223 0.959 . S
C1217 H1224 0.961 . S
C1217 H1225 0.960 . S
C1218 C1216 1.381 . S
C1218 C1219 1.394 . S
C1218 H1226 0.930 . S
C1219 C1218 1.394 . S
C1219 C1220 1.383 . S
C1219 H1227 0.929 . S
C1220 C1219 1.383 . S
C1220 C1221 1.377 . S
C1221 H1205 0.930 . S
C1221 C1220 1.377 . S
C1221 C1222 1.379 . S
C1222 H1206 0.931 . S
C1222 C1216 1.383 . S
C1222 C1221 1.379 . S
H1223 C1217 0.959 . S
H1224 C1217 0.961 . S
H1225 C1217 0.960 . S
H1226 C1218 0.930 . S
H1227 C1219 0.929 . S
H1228 C1236 0.929 . S
H1229 C1238 0.930 . S
H1230 C1240 0.930 . S
H1231 C1243 0.929 . S
H1232 C1246 0.930 . S
H1233 C1248 0.960 . S
H1234 C1248 0.960 . S
H1235 C1248 0.960 . S
C1236 H1228 0.929 . S
C1236 C1237 1.377 . S
C1236 C1238 1.384 . S
C1237 C1236 1.377 . S
C1237 C1243 1.390 . S
C1238 H1229 0.930 . S
C1238 C1236 1.384 . S
C1238 C1239 1.372 . S
C1239 C1238 1.372 . S
C1239 C1240 1.400 . S
C1239 C1244 1.490 . S
C1240 H1230 0.930 . S
C1240 C1239 1.400 . S
C1240 C1243 1.386 . S
H1241 C1257 0.930 . S
H1242 C1258 0.931 . S
C1243 H1231 0.929 . S
C1243 C1237 1.390 . S
C1243 C1240 1.386 . S
C1244 C1239 1.490 . S
C1244 C1246 1.395 . S
C1244 C1247 1.403 . S
H1245 C1251 0.930 . S
C1246 H1232 0.930 . S
C1246 C1244 1.395 . S
C1246 C1249 1.403 . S
C1247 C1244 1.403 . S
C1247 C1248 1.524 . S
C1247 C1251 1.400 . S
C1248 H1233 0.960 . S
C1248 H1234 0.960 . S
C1248 H1235 0.960 . S
C1248 C1247 1.524 . S
C1249 C1246 1.403 . S
C1249 C1250 1.392 . S
C1249 C1253 1.495 . S
C1250 C1249 1.392 . S
C1250 C1251 1.385 . S
C1250 C1252 1.478 . S
C1251 H1245 0.930 . S
C1251 C1247 1.400 . S
C1251 C1250 1.385 . S
C1252 C1250 1.478 . S
C1252 C1254 1.381 . S
C1252 C1258 1.383 . S
C1253 C1249 1.495 . S
C1253 H1259 0.959 . S
C1253 H1260 0.961 . S
C1253 H1261 0.960 . S
C1254 C1252 1.381 . S
C1254 C1255 1.394 . S
C1254 H1262 0.930 . S
C1255 C1254 1.394 . S
C1255 C1256 1.383 . S
C1255 H1263 0.929 . S
C1256 C1255 1.383 . S
C1256 C1257 1.377 . S
C1257 H1241 0.930 . S
C1257 C1256 1.377 . S
C1257 C1258 1.379 . S
C1258 H1242 0.931 . S
C1258 C1252 1.383 . S
C1258 C1257 1.379 . S
H1259 C1253 0.959 . S
H1260 C1253 0.961 . S
H1261 C1253 0.960 . S
H1262 C1254 0.930 . S
H1263 C1255 0.929 . S
H1264 C1272 0.929 . S
H1265 C1274 0.930 . S
H1266 C1276 0.930 . S
H1267 C1279 0.929 . S
H1268 C1282 0.930 . S
H1269 C1284 0.960 . S
H1270 C1284 0.960 . S
H1271 C1284 0.960 . S
C1272 H1264 0.929 . S
C1272 C1273 1.377 . S
C1272 C1274 1.384 . S
C1273 C1272 1.377 . S
C1273 C1279 1.390 . S
C1274 H1265 0.930 . S
C1274 C1272 1.384 . S
C1274 C1275 1.372 . S
C1275 C1274 1.372 . S
C1275 C1276 1.400 . S
C1275 C1280 1.490 . S
C1276 H1266 0.930 . S
C1276 C1275 1.400 . S
C1276 C1279 1.386 . S
H1277 C1293 0.930 . S
H1278 C1294 0.931 . S
C1279 H1267 0.929 . S
C1279 C1273 1.390 . S
C1279 C1276 1.386 . S
C1280 C1275 1.490 . S
C1280 C1282 1.395 . S
C1280 C1283 1.403 . S
H1281 C1287 0.930 . S
C1282 H1268 0.930 . S
C1282 C1280 1.395 . S
C1282 C1285 1.403 . S
C1283 C1280 1.403 . S
C1283 C1284 1.524 . S
C1283 C1287 1.400 . S
C1284 H1269 0.960 . S
C1284 H1270 0.960 . S
C1284 H1271 0.960 . S
C1284 C1283 1.524 . S
C1285 C1282 1.403 . S
C1285 C1286 1.392 . S
C1285 C1289 1.495 . S
C1286 C1285 1.392 . S
C1286 C1287 1.385 . S
C1286 C1288 1.478 . S
C1287 H1281 0.930 . S
C1287 C1283 1.400 . S
C1287 C1286 1.385 . S
C1288 C1286 1.478 . S
C1288 C1290 1.381 . S
C1288 C1294 1.383 . S
C1289 C1285 1.495 . S
C1289 H1295 0.959 . S
C1289 H1296 0.961 . S
C1289 H1297 0.960 . S
C1290 C1288 1.381 . S
C1290 C1291 1.394 . S
C1290 H1298 0.930 . S
C1291 C1290 1.394 . S
C1291 C1292 1.383 . S
C1291 H1299 0.929 . S
C1292 C1291 1.383 . S
C1292 C1293 1.377 . S
C1293 H1277 0.930 . S
C1293 C1292 1.377 . S
C1293 C1294 1.379 . S
C1294 H1278 0.931 . S
C1294 C1288 1.383 . S
C1294 C1293 1.379 . S
H1295 C1289 0.959 . S
H1296 C1289 0.961 . S
H1297 C1289 0.960 . S
H1298 C1290 0.930 . S
H1299 C1291 0.929 . S
H1300 C1308 0.929 . S
H1301 C1310 0.930 . S
H1302 C1312 0.930 . S
H1303 C1315 0.929 . S
H1304 C1318 0.930 . S
H1305 C1320 0.960 . S
H1306 C1320 0.960 . S
H1307 C1320 0.960 . S
C1308 H1300 0.929 . S
C1308 C1309 1.377 . S
C1308 C1310 1.384 . S
C1309 C1308 1.377 . S
C1309 C1315 1.390 . S
C1310 H1301 0.930 . S
C1310 C1308 1.384 . S
C1310 C1311 1.372 . S
C1311 C1310 1.372 . S
C1311 C1312 1.400 . S
C1311 C1316 1.490 . S
C1312 H1302 0.930 . S
C1312 C1311 1.400 . S
C1312 C1315 1.386 . S
H1313 C1329 0.930 . S
H1314 C1330 0.931 . S
C1315 H1303 0.929 . S
C1315 C1309 1.390 . S
C1315 C1312 1.386 . S
C1316 C1311 1.490 . S
C1316 C1318 1.395 . S
C1316 C1319 1.403 . S
H1317 C1323 0.930 . S
C1318 H1304 0.930 . S
C1318 C1316 1.395 . S
C1318 C1321 1.403 . S
C1319 C1316 1.403 . S
C1319 C1320 1.524 . S
C1319 C1323 1.400 . S
C1320 H1305 0.960 . S
C1320 H1306 0.960 . S
C1320 H1307 0.960 . S
C1320 C1319 1.524 . S
C1321 C1318 1.403 . S
C1321 C1322 1.392 . S
C1321 C1325 1.495 . S
C1322 C1321 1.392 . S
C1322 C1323 1.385 . S
C1322 C1324 1.478 . S
C1323 H1317 0.930 . S
C1323 C1319 1.400 . S
C1323 C1322 1.385 . S
C1324 C1322 1.478 . S
C1324 C1326 1.381 . S
C1324 C1330 1.383 . S
C1325 C1321 1.495 . S
C1325 H1331 0.959 . S
C1325 H1332 0.961 . S
C1325 H1333 0.960 . S
C1326 C1324 1.381 . S
C1326 C1327 1.394 . S
C1326 H1334 0.930 . S
C1327 C1326 1.394 . S
C1327 C1328 1.383 . S
C1327 H1335 0.929 . S
C1328 C1327 1.383 . S
C1328 C1329 1.377 . S
C1329 H1313 0.930 . S
C1329 C1328 1.377 . S
C1329 C1330 1.379 . S
C1330 H1314 0.931 . S
C1330 C1324 1.383 . S
C1330 C1329 1.379 . S
H1331 C1325 0.959 . S
H1332 C1325 0.961 . S
H1333 C1325 0.960 . S
H1334 C1326 0.930 . S
H1335 C1327 0.929 . S
H1336 C1344 0.929 . S
H1337 C1346 0.930 . S
H1338 C1348 0.930 . S
H1339 C1351 0.929 . S
H1340 C1354 0.930 . S
H1341 C1356 0.960 . S
H1342 C1356 0.960 . S
H1343 C1356 0.960 . S
C1344 H1336 0.929 . S
C1344 C1345 1.377 . S
C1344 C1346 1.384 . S
C1345 C1344 1.377 . S
C1345 C1351 1.390 . S
C1346 H1337 0.930 . S
C1346 C1344 1.384 . S
C1346 C1347 1.372 . S
C1347 C1346 1.372 . S
C1347 C1348 1.400 . S
C1347 C1352 1.490 . S
C1348 H1338 0.930 . S
C1348 C1347 1.400 . S
C1348 C1351 1.386 . S
H1349 C1365 0.930 . S
H1350 C1366 0.931 . S
C1351 H1339 0.929 . S
C1351 C1345 1.390 . S
C1351 C1348 1.386 . S
C1352 C1347 1.490 . S
C1352 C1354 1.395 . S
C1352 C1355 1.403 . S
H1353 C1359 0.930 . S
C1354 H1340 0.930 . S
C1354 C1352 1.395 . S
C1354 C1357 1.403 . S
C1355 C1352 1.403 . S
C1355 C1356 1.524 . S
C1355 C1359 1.400 . S
C1356 H1341 0.960 . S
C1356 H1342 0.960 . S
C1356 H1343 0.960 . S
C1356 C1355 1.524 . S
C1357 C1354 1.403 . S
C1357 C1358 1.392 . S
C1357 C1361 1.495 . S
C1358 C1357 1.392 . S
C1358 C1359 1.385 . S
C1358 C1360 1.478 . S
C1359 H1353 0.930 . S
C1359 C1355 1.400 . S
C1359 C1358 1.385 . S
C1360 C1358 1.478 . S
C1360 C1362 1.381 . S
C1360 C1366 1.383 . S
C1361 C1357 1.495 . S
C1361 H1367 0.959 . S
C1361 H1368 0.961 . S
C1361 H1369 0.960 . S
C1362 C1360 1.381 . S
C1362 C1363 1.394 . S
C1362 H1370 0.930 . S
C1363 C1362 1.394 . S
C1363 C1364 1.383 . S
C1363 H1371 0.929 . S
C1364 C1363 1.383 . S
C1364 C1365 1.377 . S
C1365 H1349 0.930 . S
C1365 C1364 1.377 . S
C1365 C1366 1.379 . S
C1366 H1350 0.931 . S
C1366 C1360 1.383 . S
C1366 C1365 1.379 . S
H1367 C1361 0.959 . S
H1368 C1361 0.961 . S
H1369 C1361 0.960 . S
H1370 C1362 0.930 . S
H1371 C1363 0.929 . S
H1372 C1380 0.929 . S
H1373 C1382 0.930 . S
H1374 C1384 0.930 . S
H1375 C1387 0.929 . S
H1376 C1390 0.930 . S
H1377 C1392 0.960 . S
H1378 C1392 0.960 . S
H1379 C1392 0.960 . S
C1380 H1372 0.929 . S
C1380 C1381 1.377 . S
C1380 C1382 1.384 . S
C1381 C1380 1.377 . S
C1381 C1387 1.390 . S
C1382 H1373 0.930 . S
C1382 C1380 1.384 . S
C1382 C1383 1.372 . S
C1383 C1382 1.372 . S
C1383 C1384 1.400 . S
C1383 C1388 1.490 . S
C1384 H1374 0.930 . S
C1384 C1383 1.400 . S
C1384 C1387 1.386 . S
H1385 C1401 0.930 . S
H1386 C1402 0.931 . S
C1387 H1375 0.929 . S
C1387 C1381 1.390 . S
C1387 C1384 1.386 . S
C1388 C1383 1.490 . S
C1388 C1390 1.395 . S
C1388 C1391 1.403 . S
H1389 C1395 0.930 . S
C1390 H1376 0.930 . S
C1390 C1388 1.395 . S
C1390 C1393 1.403 . S
C1391 C1388 1.403 . S
C1391 C1392 1.524 . S
C1391 C1395 1.400 . S
C1392 H1377 0.960 . S
C1392 H1378 0.960 . S
C1392 H1379 0.960 . S
C1392 C1391 1.524 . S
C1393 C1390 1.403 . S
C1393 C1394 1.392 . S
C1393 C1397 1.495 . S
C1394 C1393 1.392 . S
C1394 C1395 1.385 . S
C1394 C1396 1.478 . S
C1395 H1389 0.930 . S
C1395 C1391 1.400 . S
C1395 C1394 1.385 . S
C1396 C1394 1.478 . S
C1396 C1398 1.381 . S
C1396 C1402 1.383 . S
C1397 C1393 1.495 . S
C1397 H1403 0.959 . S
C1397 H1404 0.961 . S
C1397 H1405 0.960 . S
C1398 C1396 1.381 . S
C1398 C1399 1.394 . S
C1398 H1406 0.930 . S
C1399 C1398 1.394 . S
C1399 C1400 1.383 . S
C1399 H1407 0.929 . S
C1400 C1399 1.383 . S
C1400 C1401 1.377 . S
C1401 H1385 0.930 . S
C1401 C1400 1.377 . S
C1401 C1402 1.379 . S
C1402 H1386 0.931 . S
C1402 C1396 1.383 . S
C1402 C1401 1.379 . S
H1403 C1397 0.959 . S
H1404 C1397 0.961 . S
H1405 C1397 0.960 . S
H1406 C1398 0.930 . S
H1407 C1399 0.929 . S
H1408 C1416 0.929 . S
H1409 C1418 0.930 . S
H1410 C1420 0.930 . S
H1411 C1423 0.929 . S
H1412 C1426 0.930 . S
H1413 C1428 0.960 . S
H1414 C1428 0.960 . S
H1415 C1428 0.960 . S
C1416 H1408 0.929 . S
C1416 C1417 1.377 . S
C1416 C1418 1.384 . S
C1417 C1416 1.377 . S
C1417 C1423 1.390 . S
C1418 H1409 0.930 . S
C1418 C1416 1.384 . S
C1418 C1419 1.372 . S
C1419 C1418 1.372 . S
C1419 C1420 1.400 . S
C1419 C1424 1.490 . S
C1420 H1410 0.930 . S
C1420 C1419 1.400 . S
C1420 C1423 1.386 . S
H1421 C1437 0.929 . S
H1422 C1438 0.931 . S
C1423 H1411 0.929 . S
C1423 C1417 1.390 . S
C1423 C1420 1.386 . S
C1424 C1419 1.490 . S
C1424 C1426 1.395 . S
C1424 C1427 1.403 . S
H1425 C1431 0.930 . S
C1426 H1412 0.930 . S
C1426 C1424 1.395 . S
C1426 C1429 1.403 . S
C1427 C1424 1.403 . S
C1427 C1428 1.524 . S
C1427 C1431 1.400 . S
C1428 H1413 0.960 . S
C1428 H1414 0.960 . S
C1428 H1415 0.960 . S
C1428 C1427 1.524 . S
C1429 C1426 1.403 . S
C1429 C1430 1.392 . S
C1429 C1433 1.495 . S
C1430 C1429 1.392 . S
C1430 C1431 1.385 . S
C1430 C1432 1.478 . S
C1431 H1425 0.930 . S
C1431 C1427 1.400 . S
C1431 C1430 1.385 . S
C1432 C1430 1.478 . S
C1432 C1434 1.381 . S
C1432 C1438 1.383 . S
C1433 C1429 1.495 . S
C1433 H1439 0.959 . S
C1433 H1440 0.961 . S
C1433 H1441 0.960 . S
C1434 C1432 1.381 . S
C1434 C1435 1.394 . S
C1434 H1442 0.930 . S
C1435 C1434 1.394 . S
C1435 C1436 1.383 . S
C1435 H1443 0.929 . S
C1436 C1435 1.383 . S
C1436 C1437 1.377 . S
C1437 H1421 0.929 . S
C1437 C1436 1.377 . S
C1437 C1438 1.379 . S
C1438 H1422 0.931 . S
C1438 C1432 1.383 . S
C1438 C1437 1.379 . S
H1439 C1433 0.959 . S
H1440 C1433 0.961 . S
H1441 C1433 0.960 . S
H1442 C1434 0.930 . S
H1443 C1435 0.929 . S
H1444 C1452 0.929 . S
H1445 C1454 0.930 . S
H1446 C1456 0.930 . S
H1447 C1459 0.929 . S
H1448 C1462 0.930 . S
H1449 C1464 0.960 . S
H1450 C1464 0.960 . S
H1451 C1464 0.960 . S
C1452 H1444 0.929 . S
C1452 C1453 1.377 . S
C1452 C1454 1.384 . S
C1453 C1452 1.377 . S
C1453 C1459 1.390 . S
C1454 H1445 0.930 . S
C1454 C1452 1.384 . S
C1454 C1455 1.372 . S
C1455 C1454 1.372 . S
C1455 C1456 1.400 . S
C1455 C1460 1.490 . S
C1456 H1446 0.930 . S
C1456 C1455 1.400 . S
C1456 C1459 1.386 . S
H1457 C1473 0.930 . S
H1458 C1474 0.931 . S
C1459 H1447 0.929 . S
C1459 C1453 1.390 . S
C1459 C1456 1.386 . S
C1460 C1455 1.490 . S
C1460 C1462 1.395 . S
C1460 C1463 1.403 . S
H1461 C1467 0.930 . S
C1462 H1448 0.930 . S
C1462 C1460 1.395 . S
C1462 C1465 1.403 . S
C1463 C1460 1.403 . S
C1463 C1464 1.524 . S
C1463 C1467 1.400 . S
C1464 H1449 0.960 . S
C1464 H1450 0.960 . S
C1464 H1451 0.960 . S
C1464 C1463 1.524 . S
C1465 C1462 1.403 . S
C1465 C1466 1.392 . S
C1465 C1469 1.495 . S
C1466 C1465 1.392 . S
C1466 C1467 1.385 . S
C1466 C1468 1.478 . S
C1467 H1461 0.930 . S
C1467 C1463 1.400 . S
C1467 C1466 1.385 . S
C1468 C1466 1.478 . S
C1468 C1470 1.381 . S
C1468 C1474 1.383 . S
C1469 C1465 1.495 . S
C1469 H1475 0.959 . S
C1469 H1476 0.961 . S
C1469 H1477 0.960 . S
C1470 C1468 1.381 . S
C1470 C1471 1.394 . S
C1470 H1478 0.930 . S
C1471 C1470 1.394 . S
C1471 C1472 1.383 . S
C1471 H1479 0.929 . S
C1472 C1471 1.383 . S
C1472 C1473 1.377 . S
C1473 H1457 0.930 . S
C1473 C1472 1.377 . S
C1473 C1474 1.379 . S
C1474 H1458 0.931 . S
C1474 C1468 1.383 . S
C1474 C1473 1.379 . S
H1475 C1469 0.959 . S
H1476 C1469 0.961 . S
H1477 C1469 0.960 . S
H1478 C1470 0.930 . S
H1479 C1471 0.929 . S
H1480 C1488 0.929 . S
H1481 C1490 0.930 . S
H1482 C1492 0.930 . S
H1483 C1495 0.929 . S
H1484 C1498 0.930 . S
H1485 C1500 0.960 . S
H1486 C1500 0.960 . S
H1487 C1500 0.960 . S
C1488 H1480 0.929 . S
C1488 C1489 1.377 . S
C1488 C1490 1.384 . S
C1489 C1488 1.377 . S
C1489 C1495 1.390 . S
C1490 H1481 0.930 . S
C1490 C1488 1.384 . S
C1490 C1491 1.372 . S
C1491 C1490 1.372 . S
C1491 C1492 1.400 . S
C1491 C1496 1.490 . S
C1492 H1482 0.930 . S
C1492 C1491 1.400 . S
C1492 C1495 1.386 . S
H1493 C1509 0.930 . S
H1494 C1510 0.931 . S
C1495 H1483 0.929 . S
C1495 C1489 1.390 . S
C1495 C1492 1.386 . S
C1496 C1491 1.490 . S
C1496 C1498 1.395 . S
C1496 C1499 1.403 . S
H1497 C1503 0.930 . S
C1498 H1484 0.930 . S
C1498 C1496 1.395 . S
C1498 C1501 1.403 . S
C1499 C1496 1.403 . S
C1499 C1500 1.524 . S
C1499 C1503 1.400 . S
C1500 H1485 0.960 . S
C1500 H1486 0.960 . S
C1500 H1487 0.960 . S
C1500 C1499 1.524 . S
C1501 C1498 1.403 . S
C1501 C1502 1.392 . S
C1501 C1505 1.495 . S
C1502 C1501 1.392 . S
C1502 C1503 1.385 . S
C1502 C1504 1.478 . S
C1503 H1497 0.930 . S
C1503 C1499 1.400 . S
C1503 C1502 1.385 . S
C1504 C1502 1.478 . S
C1504 C1506 1.381 . S
C1504 C1510 1.383 . S
C1505 C1501 1.495 . S
C1505 H1511 0.959 . S
C1505 H1512 0.961 . S
C1505 H1513 0.960 . S
C1506 C1504 1.381 . S
C1506 C1507 1.394 . S
C1506 H1514 0.930 . S
C1507 C1506 1.394 . S
C1507 C1508 1.383 . S
C1507 H1515 0.929 . S
C1508 C1507 1.383 . S
C1508 C1509 1.377 . S
C1509 H1493 0.930 . S
C1509 C1508 1.377 . S
C1509 C1510 1.379 . S
C1510 H1494 0.931 . S
C1510 C1504 1.383 . S
C1510 C1509 1.379 . S
H1511 C1505 0.959 . S
H1512 C1505 0.961 . S
H1513 C1505 0.960 . S
H1514 C1506 0.930 . S
H1515 C1507 0.929 . S
H1516 C1524 0.929 . S
H1517 C1526 0.930 . S
H1518 C1528 0.930 . S
H1519 C1531 0.929 . S
H1520 C1534 0.930 . S
H1521 C1536 0.960 . S
H1522 C1536 0.960 . S
H1523 C1536 0.960 . S
C1524 H1516 0.929 . S
C1524 C1525 1.377 . S
C1524 C1526 1.384 . S
C1525 C1524 1.377 . S
C1525 C1531 1.390 . S
C1526 H1517 0.930 . S
C1526 C1524 1.384 . S
C1526 C1527 1.372 . S
C1527 C1526 1.372 . S
C1527 C1528 1.400 . S
C1527 C1532 1.490 . S
C1528 H1518 0.930 . S
C1528 C1527 1.400 . S
C1528 C1531 1.386 . S
H1529 C1545 0.930 . S
H1530 C1546 0.931 . S
C1531 H1519 0.929 . S
C1531 C1525 1.390 . S
C1531 C1528 1.386 . S
C1532 C1527 1.490 . S
C1532 C1534 1.395 . S
C1532 C1535 1.403 . S
H1533 C1539 0.930 . S
C1534 H1520 0.930 . S
C1534 C1532 1.395 . S
C1534 C1537 1.403 . S
C1535 C1532 1.403 . S
C1535 C1536 1.524 . S
C1535 C1539 1.400 . S
C1536 H1521 0.960 . S
C1536 H1522 0.960 . S
C1536 H1523 0.960 . S
C1536 C1535 1.524 . S
C1537 C1534 1.403 . S
C1537 C1538 1.392 . S
C1537 C1541 1.495 . S
C1538 C1537 1.392 . S
C1538 C1539 1.385 . S
C1538 C1540 1.478 . S
C1539 H1533 0.930 . S
C1539 C1535 1.400 . S
C1539 C1538 1.385 . S
C1540 C1538 1.478 . S
C1540 C1542 1.381 . S
C1540 C1546 1.383 . S
C1541 C1537 1.495 . S
C1541 H1547 0.959 . S
C1541 H1548 0.961 . S
C1541 H1549 0.960 . S
C1542 C1540 1.381 . S
C1542 C1543 1.394 . S
C1542 H1550 0.930 . S
C1543 C1542 1.394 . S
C1543 C1544 1.383 . S
C1543 H1551 0.929 . S
C1544 C1543 1.383 . S
C1544 C1545 1.377 . S
C1545 H1529 0.930 . S
C1545 C1544 1.377 . S
C1545 C1546 1.379 . S
C1546 H1530 0.931 . S
C1546 C1540 1.383 . S
C1546 C1545 1.379 . S
H1547 C1541 0.959 . S
H1548 C1541 0.961 . S
H1549 C1541 0.960 . S
H1550 C1542 0.930 . S
H1551 C1543 0.929 . S
H1552 C1560 0.929 . S
H1553 C1562 0.930 . S
H1554 C1564 0.930 . S
H1555 C1567 0.929 . S
H1556 C1570 0.930 . S
H1557 C1572 0.960 . S
H1558 C1572 0.960 . S
H1559 C1572 0.960 . S
C1560 H1552 0.929 . S
C1560 C1561 1.377 . S
C1560 C1562 1.384 . S
C1561 C1560 1.377 . S
C1561 C1567 1.390 . S
C1562 H1553 0.930 . S
C1562 C1560 1.384 . S
C1562 C1563 1.372 . S
C1563 C1562 1.372 . S
C1563 C1564 1.400 . S
C1563 C1568 1.490 . S
C1564 H1554 0.930 . S
C1564 C1563 1.400 . S
C1564 C1567 1.386 . S
H1565 C1581 0.930 . S
H1566 C1582 0.931 . S
C1567 H1555 0.929 . S
C1567 C1561 1.390 . S
C1567 C1564 1.386 . S
C1568 C1563 1.490 . S
C1568 C1570 1.395 . S
C1568 C1571 1.403 . S
H1569 C1575 0.930 . S
C1570 H1556 0.930 . S
C1570 C1568 1.395 . S
C1570 C1573 1.403 . S
C1571 C1568 1.403 . S
C1571 C1572 1.524 . S
C1571 C1575 1.400 . S
C1572 H1557 0.960 . S
C1572 H1558 0.960 . S
C1572 H1559 0.960 . S
C1572 C1571 1.524 . S
C1573 C1570 1.403 . S
C1573 C1574 1.392 . S
C1573 C1577 1.495 . S
C1574 C1573 1.392 . S
C1574 C1575 1.385 . S
C1574 C1576 1.478 . S
C1575 H1569 0.930 . S
C1575 C1571 1.400 . S
C1575 C1574 1.385 . S
C1576 C1574 1.478 . S
C1576 C1578 1.381 . S
C1576 C1582 1.383 . S
C1577 C1573 1.495 . S
C1577 H1583 0.959 . S
C1577 H1584 0.961 . S
C1577 H1585 0.960 . S
C1578 C1576 1.381 . S
C1578 C1579 1.394 . S
C1578 H1586 0.930 . S
C1579 C1578 1.394 . S
C1579 C1580 1.383 . S
C1579 H1587 0.929 . S
C1580 C1579 1.383 . S
C1580 C1581 1.377 . S
C1581 H1565 0.930 . S
C1581 C1580 1.377 . S
C1581 C1582 1.379 . S
C1582 H1566 0.931 . S
C1582 C1576 1.383 . S
C1582 C1581 1.379 . S
H1583 C1577 0.959 . S
H1584 C1577 0.961 . S
H1585 C1577 0.960 . S
H1586 C1578 0.930 . S
H1587 C1579 0.929 . S
H1588 C1596 0.929 . S
H1589 C1598 0.930 . S
H1590 C1600 0.930 . S
H1591 C1603 0.929 . S
H1592 C1606 0.930 . S
H1593 C1608 0.960 . S
H1594 C1608 0.960 . S
H1595 C1608 0.960 . S
C1596 H1588 0.929 . S
C1596 C1597 1.377 . S
C1596 C1598 1.384 . S
C1597 C1596 1.377 . S
C1597 C1603 1.390 . S
C1598 H1589 0.930 . S
C1598 C1596 1.384 . S
C1598 C1599 1.372 . S
C1599 C1598 1.372 . S
C1599 C1600 1.400 . S
C1599 C1604 1.490 . S
C1600 H1590 0.930 . S
C1600 C1599 1.400 . S
C1600 C1603 1.386 . S
H1601 C1617 0.930 . S
H1602 C1618 0.931 . S
C1603 H1591 0.929 . S
C1603 C1597 1.390 . S
C1603 C1600 1.386 . S
C1604 C1599 1.490 . S
C1604 C1606 1.395 . S
C1604 C1607 1.403 . S
H1605 C1611 0.930 . S
C1606 H1592 0.930 . S
C1606 C1604 1.395 . S
C1606 C1609 1.403 . S
C1607 C1604 1.403 . S
C1607 C1608 1.524 . S
C1607 C1611 1.400 . S
C1608 H1593 0.960 . S
C1608 H1594 0.960 . S
C1608 H1595 0.960 . S
C1608 C1607 1.524 . S
C1609 C1606 1.403 . S
C1609 C1610 1.392 . S
C1609 C1613 1.495 . S
C1610 C1609 1.392 . S
C1610 C1611 1.385 . S
C1610 C1612 1.478 . S
C1611 H1605 0.930 . S
C1611 C1607 1.400 . S
C1611 C1610 1.385 . S
C1612 C1610 1.478 . S
C1612 C1614 1.381 . S
C1612 C1618 1.383 . S
C1613 C1609 1.495 . S
C1613 H1619 0.959 . S
C1613 H1620 0.961 . S
C1613 H1621 0.960 . S
C1614 C1612 1.381 . S
C1614 C1615 1.394 . S
C1614 H1622 0.930 . S
C1615 C1614 1.394 . S
C1615 C1616 1.383 . S
C1615 H1623 0.929 . S
C1616 C1615 1.383 . S
C1616 C1617 1.377 . S
C1617 H1601 0.930 . S
C1617 C1616 1.377 . S
C1617 C1618 1.379 . S
C1618 H1602 0.931 . S
C1618 C1612 1.383 . S
C1618 C1617 1.379 . S
H1619 C1613 0.959 . S
H1620 C1613 0.961 . S
H1621 C1613 0.960 . S
H1622 C1614 0.930 . S
H1623 C1615 0.929 . S
H1624 C1632 0.929 . S
H1625 C1634 0.930 . S
H1626 C1636 0.930 . S
H1627 C1639 0.929 . S
H1628 C1642 0.930 . S
H1629 C1644 0.960 . S
H1630 C1644 0.960 . S
H1631 C1644 0.960 . S
C1632 H1624 0.929 . S
C1632 C1633 1.377 . S
C1632 C1634 1.384 . S
C1633 C1632 1.377 . S
C1633 C1639 1.390 . S
C1634 H1625 0.930 . S
C1634 C1632 1.384 . S
C1634 C1635 1.372 . S
C1635 C1634 1.372 . S
C1635 C1636 1.400 . S
C1635 C1640 1.490 . S
C1636 H1626 0.930 . S
C1636 C1635 1.400 . S
C1636 C1639 1.386 . S
H1637 C1653 0.930 . S
H1638 C1654 0.931 . S
C1639 H1627 0.929 . S
C1639 C1633 1.390 . S
C1639 C1636 1.386 . S
C1640 C1635 1.490 . S
C1640 C1642 1.395 . S
C1640 C1643 1.403 . S
H1641 C1647 0.930 . S
C1642 H1628 0.930 . S
C1642 C1640 1.395 . S
C1642 C1645 1.403 . S
C1643 C1640 1.403 . S
C1643 C1644 1.524 . S
C1643 C1647 1.400 . S
C1644 H1629 0.960 . S
C1644 H1630 0.960 . S
C1644 H1631 0.960 . S
C1644 C1643 1.524 . S
C1645 C1642 1.403 . S
C1645 C1646 1.392 . S
C1645 C1649 1.495 . S
C1646 C1645 1.392 . S
C1646 C1647 1.385 . S
C1646 C1648 1.478 . S
C1647 H1641 0.930 . S
C1647 C1643 1.400 . S
C1647 C1646 1.385 . S
C1648 C1646 1.478 . S
C1648 C1650 1.381 . S
C1648 C1654 1.383 . S
C1649 C1645 1.495 . S
C1649 H1655 0.959 . S
C1649 H1656 0.961 . S
C1649 H1657 0.960 . S
C1650 C1648 1.381 . S
C1650 C1651 1.394 . S
C1650 H1658 0.930 . S
C1651 C1650 1.394 . S
C1651 C1652 1.383 . S
C1651 H1659 0.929 . S
C1652 C1651 1.383 . S
C1652 C1653 1.377 . S
C1653 H1637 0.930 . S
C1653 C1652 1.377 . S
C1653 C1654 1.379 . S
C1654 H1638 0.931 . S
C1654 C1648 1.383 . S
C1654 C1653 1.379 . S
H1655 C1649 0.959 . S
H1656 C1649 0.961 . S
H1657 C1649 0.960 . S
H1658 C1650 0.930 . S
H1659 C1651 0.929 . S
H1660 C1668 0.929 . S
H1661 C1670 0.930 . S
H1662 C1672 0.930 . S
H1663 C1675 0.929 . S
H1664 C1678 0.930 . S
H1665 C1680 0.960 . S
H1666 C1680 0.960 . S
H1667 C1680 0.960 . S
C1668 H1660 0.929 . S
C1668 C1669 1.377 . S
C1668 C1670 1.384 . S
C1669 C1668 1.377 . S
C1669 C1675 1.390 . S
C1670 H1661 0.930 . S
C1670 C1668 1.384 . S
C1670 C1671 1.372 . S
C1671 C1670 1.372 . S
C1671 C1672 1.400 . S
C1671 C1676 1.490 . S
C1672 H1662 0.930 . S
C1672 C1671 1.400 . S
C1672 C1675 1.386 . S
H1673 C1689 0.930 . S
H1674 C1690 0.931 . S
C1675 H1663 0.929 . S
C1675 C1669 1.390 . S
C1675 C1672 1.386 . S
C1676 C1671 1.490 . S
C1676 C1678 1.395 . S
C1676 C1679 1.403 . S
H1677 C1683 0.930 . S
C1678 H1664 0.930 . S
C1678 C1676 1.395 . S
C1678 C1681 1.403 . S
C1679 C1676 1.403 . S
C1679 C1680 1.524 . S
C1679 C1683 1.400 . S
C1680 H1665 0.960 . S
C1680 H1666 0.960 . S
C1680 H1667 0.960 . S
C1680 C1679 1.524 . S
C1681 C1678 1.403 . S
C1681 C1682 1.392 . S
C1681 C1685 1.495 . S
C1682 C1681 1.392 . S
C1682 C1683 1.385 . S
C1682 C1684 1.478 . S
C1683 H1677 0.930 . S
C1683 C1679 1.400 . S
C1683 C1682 1.385 . S
C1684 C1682 1.478 . S
C1684 C1686 1.381 . S
C1684 C1690 1.383 . S
C1685 C1681 1.495 . S
C1685 H1691 0.959 . S
C1685 H1692 0.961 . S
C1685 H1693 0.960 . S
C1686 C1684 1.381 . S
C1686 C1687 1.394 . S
C1686 H1694 0.930 . S
C1687 C1686 1.394 . S
C1687 C1688 1.383 . S
C1687 H1695 0.929 . S
C1688 C1687 1.383 . S
C1688 C1689 1.377 . S
C1689 H1673 0.930 . S
C1689 C1688 1.377 . S
C1689 C1690 1.379 . S
C1690 H1674 0.931 . S
C1690 C1684 1.383 . S
C1690 C1689 1.379 . S
H1691 C1685 0.959 . S
H1692 C1685 0.961 . S
H1693 C1685 0.960 . S
H1694 C1686 0.930 . S
H1695 C1687 0.929 . S
H1696 C1704 0.929 . S
H1697 C1706 0.930 . S
H1698 C1708 0.930 . S
H1699 C1711 0.929 . S
H1700 C1714 0.930 . S
H1701 C1716 0.960 . S
H1702 C1716 0.960 . S
H1703 C1716 0.960 . S
C1704 H1696 0.929 . S
C1704 C1705 1.377 . S
C1704 C1706 1.384 . S
C1705 C1704 1.377 . S
C1705 C1711 1.390 . S
C1706 H1697 0.930 . S
C1706 C1704 1.384 . S
C1706 C1707 1.372 . S
C1707 C1706 1.372 . S
C1707 C1708 1.400 . S
C1707 C1712 1.490 . S
C1708 H1698 0.930 . S
C1708 C1707 1.400 . S
C1708 C1711 1.386 . S
H1709 C1725 0.930 . S
H1710 C1726 0.931 . S
C1711 H1699 0.929 . S
C1711 C1705 1.390 . S
C1711 C1708 1.386 . S
C1712 C1707 1.490 . S
C1712 C1714 1.395 . S
C1712 C1715 1.403 . S
H1713 C1719 0.930 . S
C1714 H1700 0.930 . S
C1714 C1712 1.395 . S
C1714 C1717 1.403 . S
C1715 C1712 1.403 . S
C1715 C1716 1.524 . S
C1715 C1719 1.400 . S
C1716 H1701 0.960 . S
C1716 H1702 0.960 . S
C1716 H1703 0.960 . S
C1716 C1715 1.524 . S
C1717 C1714 1.403 . S
C1717 C1718 1.392 . S
C1717 C1721 1.495 . S
C1718 C1717 1.392 . S
C1718 C1719 1.385 . S
C1718 C1720 1.478 . S
C1719 H1713 0.930 . S
C1719 C1715 1.400 . S
C1719 C1718 1.385 . S
C1720 C1718 1.478 . S
C1720 C1722 1.381 . S
C1720 C1726 1.383 . S
C1721 C1717 1.495 . S
C1721 H1727 0.959 . S
C1721 H1728 0.961 . S
C1721 H1729 0.960 . S
C1722 C1720 1.381 . S
C1722 C1723 1.394 . S
C1722 H1730 0.930 . S
C1723 C1722 1.394 . S
C1723 C1724 1.383 . S
C1723 H1731 0.929 . S
C1724 C1723 1.383 . S
C1724 C1725 1.377 . S
C1725 H1709 0.930 . S
C1725 C1724 1.377 . S
C1725 C1726 1.379 . S
C1726 H1710 0.931 . S
C1726 C1720 1.383 . S
C1726 C1725 1.379 . S
H1727 C1721 0.959 . S
H1728 C1721 0.961 . S
H1729 C1721 0.960 . S
H1730 C1722 0.930 . S
H1731 C1723 0.929 . S
H1732 C1740 0.929 . S
H1733 C1742 0.930 . S
H1734 C1744 0.930 . S
H1735 C1747 0.929 . S
H1736 C1750 0.930 . S
H1737 C1752 0.960 . S
H1738 C1752 0.960 . S
H1739 C1752 0.960 . S
C1740 H1732 0.929 . S
C1740 C1741 1.377 . S
C1740 C1742 1.384 . S
C1741 C1740 1.377 . S
C1741 C1747 1.390 . S
C1742 H1733 0.930 . S
C1742 C1740 1.384 . S
C1742 C1743 1.372 . S
C1743 C1742 1.372 . S
C1743 C1744 1.400 . S
C1743 C1748 1.490 . S
C1744 H1734 0.930 . S
C1744 C1743 1.400 . S
C1744 C1747 1.386 . S
H1745 C1761 0.930 . S
H1746 C1762 0.931 . S
C1747 H1735 0.929 . S
C1747 C1741 1.390 . S
C1747 C1744 1.386 . S
C1748 C1743 1.490 . S
C1748 C1750 1.395 . S
C1748 C1751 1.403 . S
H1749 C1755 0.930 . S
C1750 H1736 0.930 . S
C1750 C1748 1.395 . S
C1750 C1753 1.403 . S
C1751 C1748 1.403 . S
C1751 C1752 1.524 . S
C1751 C1755 1.400 . S
C1752 H1737 0.960 . S
C1752 H1738 0.960 . S
C1752 H1739 0.960 . S
C1752 C1751 1.524 . S
C1753 C1750 1.403 . S
C1753 C1754 1.392 . S
C1753 C1757 1.495 . S
C1754 C1753 1.392 . S
C1754 C1755 1.385 . S
C1754 C1756 1.478 . S
C1755 H1749 0.930 . S
C1755 C1751 1.400 . S
C1755 C1754 1.385 . S
C1756 C1754 1.478 . S
C1756 C1758 1.381 . S
C1756 C1762 1.383 . S
C1757 C1753 1.495 . S
C1757 H1763 0.959 . S
C1757 H1764 0.961 . S
C1757 H1765 0.960 . S
C1758 C1756 1.381 . S
C1758 C1759 1.394 . S
C1758 H1766 0.930 . S
C1759 C1758 1.394 . S
C1759 C1760 1.383 . S
C1759 H1767 0.929 . S
C1760 C1759 1.383 . S
C1760 C1761 1.377 . S
C1761 H1745 0.930 . S
C1761 C1760 1.377 . S
C1761 C1762 1.379 . S
C1762 H1746 0.931 . S
C1762 C1756 1.383 . S
C1762 C1761 1.379 . S
H1763 C1757 0.959 . S
H1764 C1757 0.961 . S
H1765 C1757 0.960 . S
H1766 C1758 0.930 . S
H1767 C1759 0.929 . S
H1768 C1776 0.929 . S
H1769 C1778 0.930 . S
H1770 C1780 0.930 . S
H1771 C1783 0.929 . S
H1772 C1786 0.930 . S
H1773 C1788 0.960 . S
H1774 C1788 0.960 . S
H1775 C1788 0.960 . S
C1776 H1768 0.929 . S
C1776 C1777 1.377 . S
C1776 C1778 1.384 . S
C1777 C1776 1.377 . S
C1777 C1783 1.390 . S
C1778 H1769 0.930 . S
C1778 C1776 1.384 . S
C1778 C1779 1.372 . S
C1779 C1778 1.372 . S
C1779 C1780 1.400 . S
C1779 C1784 1.490 . S
C1780 H1770 0.930 . S
C1780 C1779 1.400 . S
C1780 C1783 1.386 . S
H1781 C1797 0.930 . S
H1782 C1798 0.931 . S
C1783 H1771 0.929 . S
C1783 C1777 1.390 . S
C1783 C1780 1.386 . S
C1784 C1779 1.490 . S
C1784 C1786 1.395 . S
C1784 C1787 1.403 . S
H1785 C1791 0.930 . S
C1786 H1772 0.930 . S
C1786 C1784 1.395 . S
C1786 C1789 1.403 . S
C1787 C1784 1.403 . S
C1787 C1788 1.524 . S
C1787 C1791 1.400 . S
C1788 H1773 0.960 . S
C1788 H1774 0.960 . S
C1788 H1775 0.960 . S
C1788 C1787 1.524 . S
C1789 C1786 1.403 . S
C1789 C1790 1.392 . S
C1789 C1793 1.495 . S
C1790 C1789 1.392 . S
C1790 C1791 1.385 . S
C1790 C1792 1.478 . S
C1791 H1785 0.930 . S
C1791 C1787 1.400 . S
C1791 C1790 1.385 . S
C1792 C1790 1.478 . S
C1792 C1794 1.381 . S
C1792 C1798 1.383 . S
C1793 C1789 1.495 . S
C1793 H1799 0.959 . S
C1793 H1800 0.961 . S
C1793 H1801 0.960 . S
C1794 C1792 1.381 . S
C1794 C1795 1.394 . S
C1794 H1802 0.930 . S
C1795 C1794 1.394 . S
C1795 C1796 1.383 . S
C1795 H1803 0.929 . S
C1796 C1795 1.383 . S
C1796 C1797 1.377 . S
C1797 H1781 0.930 . S
C1797 C1796 1.377 . S
C1797 C1798 1.379 . S
C1798 H1782 0.931 . S
C1798 C1792 1.383 . S
C1798 C1797 1.379 . S
H1799 C1793 0.959 . S
H1800 C1793 0.961 . S
H1801 C1793 0.960 . S
H1802 C1794 0.930 . S
H1803 C1795 0.929 . S
H1804 C1812 0.929 . S
H1805 C1814 0.930 . S
H1806 C1816 0.930 . S
H1807 C1819 0.929 . S
H1808 C1822 0.930 . S
H1809 C1824 0.960 . S
H1810 C1824 0.960 . S
H1811 C1824 0.960 . S
C1812 H1804 0.929 . S
C1812 C1813 1.377 . S
C1812 C1814 1.384 . S
C1813 C1812 1.377 . S
C1813 C1819 1.390 . S
C1814 H1805 0.930 . S
C1814 C1812 1.384 . S
C1814 C1815 1.372 . S
C1815 C1814 1.372 . S
C1815 C1816 1.400 . S
C1815 C1820 1.490 . S
C1816 H1806 0.930 . S
C1816 C1815 1.400 . S
C1816 C1819 1.386 . S
H1817 C1833 0.930 . S
H1818 C1834 0.931 . S
C1819 H1807 0.929 . S
C1819 C1813 1.390 . S
C1819 C1816 1.386 . S
C1820 C1815 1.490 . S
C1820 C1822 1.395 . S
C1820 C1823 1.403 . S
H1821 C1827 0.930 . S
C1822 H1808 0.930 . S
C1822 C1820 1.395 . S
C1822 C1825 1.403 . S
C1823 C1820 1.403 . S
C1823 C1824 1.524 . S
C1823 C1827 1.400 . S
C1824 H1809 0.960 . S
C1824 H1810 0.960 . S
C1824 H1811 0.960 . S
C1824 C1823 1.524 . S
C1825 C1822 1.403 . S
C1825 C1826 1.392 . S
C1825 C1829 1.495 . S
C1826 C1825 1.392 . S
C1826 C1827 1.385 . S
C1826 C1828 1.478 . S
C1827 H1821 0.930 . S
C1827 C1823 1.400 . S
C1827 C1826 1.385 . S
C1828 C1826 1.478 . S
C1828 C1830 1.381 . S
C1828 C1834 1.383 . S
C1829 C1825 1.495 . S
C1829 H1835 0.959 . S
C1829 H1836 0.961 . S
C1829 H1837 0.960 . S
C1830 C1828 1.381 . S
C1830 C1831 1.394 . S
C1830 H1838 0.930 . S
C1831 C1830 1.394 . S
C1831 C1832 1.383 . S
C1831 H1839 0.929 . S
C1832 C1831 1.383 . S
C1832 C1833 1.377 . S
C1833 H1817 0.930 . S
C1833 C1832 1.377 . S
C1833 C1834 1.379 . S
C1834 H1818 0.931 . S
C1834 C1828 1.383 . S
C1834 C1833 1.379 . S
H1835 C1829 0.959 . S
H1836 C1829 0.961 . S
H1837 C1829 0.960 . S
H1838 C1830 0.930 . S
H1839 C1831 0.929 . S
H1840 C1848 0.929 . S
H1841 C1850 0.930 . S
H1842 C1852 0.930 . S
H1843 C1855 0.929 . S
H1844 C1858 0.930 . S
H1845 C1860 0.960 . S
H1846 C1860 0.960 . S
H1847 C1860 0.960 . S
C1848 H1840 0.929 . S
C1848 C1849 1.377 . S
C1848 C1850 1.384 . S
C1849 C1848 1.377 . S
C1849 C1855 1.390 . S
C1850 H1841 0.930 . S
C1850 C1848 1.384 . S
C1850 C1851 1.372 . S
C1851 C1850 1.372 . S
C1851 C1852 1.400 . S
C1851 C1856 1.490 . S
C1852 H1842 0.930 . S
C1852 C1851 1.400 . S
C1852 C1855 1.386 . S
H1853 C1869 0.930 . S
H1854 C1870 0.931 . S
C1855 H1843 0.929 . S
C1855 C1849 1.390 . S
C1855 C1852 1.386 . S
C1856 C1851 1.490 . S
C1856 C1858 1.395 . S
C1856 C1859 1.403 . S
H1857 C1863 0.930 . S
C1858 H1844 0.930 . S
C1858 C1856 1.395 . S
C1858 C1861 1.403 . S
C1859 C1856 1.403 . S
C1859 C1860 1.524 . S
C1859 C1863 1.400 . S
C1860 H1845 0.960 . S
C1860 H1846 0.960 . S
C1860 H1847 0.960 . S
C1860 C1859 1.524 . S
C1861 C1858 1.403 . S
C1861 C1862 1.392 . S
C1861 C1865 1.495 . S
C1862 C1861 1.392 . S
C1862 C1863 1.385 . S
C1862 C1864 1.478 . S
C1863 H1857 0.930 . S
C1863 C1859 1.400 . S
C1863 C1862 1.385 . S
C1864 C1862 1.478 . S
C1864 C1866 1.381 . S
C1864 C1870 1.383 . S
C1865 C1861 1.495 . S
C1865 H1871 0.959 . S
C1865 H1872 0.961 . S
C1865 H1873 0.960 . S
C1866 C1864 1.381 . S
C1866 C1867 1.394 . S
C1866 H1874 0.930 . S
C1867 C1866 1.394 . S
C1867 C1868 1.383 . S
C1867 H1875 0.929 . S
C1868 C1867 1.383 . S
C1868 C1869 1.377 . S
C1869 H1853 0.930 . S
C1869 C1868 1.377 . S
C1869 C1870 1.379 . S
C1870 H1854 0.931 . S
C1870 C1864 1.383 . S
C1870 C1869 1.379 . S
H1871 C1865 0.959 . S
H1872 C1865 0.961 . S
H1873 C1865 0.960 . S
H1874 C1866 0.930 . S
H1875 C1867 0.929 . S
H1876 C1884 0.929 . S
H1877 C1886 0.930 . S
H1878 C1888 0.930 . S
H1879 C1891 0.929 . S
H1880 C1894 0.930 . S
H1881 C1896 0.960 . S
H1882 C1896 0.960 . S
H1883 C1896 0.960 . S
C1884 H1876 0.929 . S
C1884 C1885 1.377 . S
C1884 C1886 1.384 . S
C1885 C1884 1.377 . S
C1885 C1891 1.390 . S
C1886 H1877 0.930 . S
C1886 C1884 1.384 . S
C1886 C1887 1.372 . S
C1887 C1886 1.372 . S
C1887 C1888 1.400 . S
C1887 C1892 1.490 . S
C1888 H1878 0.930 . S
C1888 C1887 1.400 . S
C1888 C1891 1.386 . S
H1889 C1905 0.930 . S
H1890 C1906 0.931 . S
C1891 H1879 0.929 . S
C1891 C1885 1.390 . S
C1891 C1888 1.386 . S
C1892 C1887 1.490 . S
C1892 C1894 1.395 . S
C1892 C1895 1.403 . S
H1893 C1899 0.930 . S
C1894 H1880 0.930 . S
C1894 C1892 1.395 . S
C1894 C1897 1.403 . S
C1895 C1892 1.403 . S
C1895 C1896 1.524 . S
C1895 C1899 1.400 . S
C1896 H1881 0.960 . S
C1896 H1882 0.960 . S
C1896 H1883 0.960 . S
C1896 C1895 1.524 . S
C1897 C1894 1.403 . S
C1897 C1898 1.392 . S
C1897 C1901 1.495 . S
C1898 C1897 1.392 . S
C1898 C1899 1.385 . S
C1898 C1900 1.478 . S
C1899 H1893 0.930 . S
C1899 C1895 1.400 . S
C1899 C1898 1.385 . S
C1900 C1898 1.478 . S
C1900 C1902 1.381 . S
C1900 C1906 1.383 . S
C1901 C1897 1.495 . S
C1901 H1907 0.959 . S
C1901 H1908 0.961 . S
C1901 H1909 0.960 . S
C1902 C1900 1.381 . S
C1902 C1903 1.394 . S
C1902 H1910 0.930 . S
C1903 C1902 1.394 . S
C1903 C1904 1.383 . S
C1903 H1911 0.929 . S
C1904 C1903 1.383 . S
C1904 C1905 1.377 . S
C1905 H1889 0.930 . S
C1905 C1904 1.377 . S
C1905 C1906 1.379 . S
C1906 H1890 0.931 . S
C1906 C1900 1.383 . S
C1906 C1905 1.379 . S
H1907 C1901 0.959 . S
H1908 C1901 0.961 . S
H1909 C1901 0.960 . S
H1910 C1902 0.930 . S
H1911 C1903 0.929 . S
H1912 C1920 0.929 . S
H1913 C1922 0.930 . S
H1914 C1924 0.930 . S
H1915 C1927 0.929 . S
H1916 C1930 0.930 . S
H1917 C1932 0.960 . S
H1918 C1932 0.960 . S
H1919 C1932 0.960 . S
C1920 H1912 0.929 . S
C1920 C1921 1.377 . S
C1920 C1922 1.384 . S
C1921 C1920 1.377 . S
C1921 C1927 1.390 . S
C1922 H1913 0.930 . S
C1922 C1920 1.384 . S
C1922 C1923 1.372 . S
C1923 C1922 1.372 . S
C1923 C1924 1.400 . S
C1923 C1928 1.490 . S
C1924 H1914 0.930 . S
C1924 C1923 1.400 . S
C1924 C1927 1.386 . S
H1925 C1941 0.930 . S
H1926 C1942 0.931 . S
C1927 H1915 0.929 . S
C1927 C1921 1.390 . S
C1927 C1924 1.386 . S
C1928 C1923 1.490 . S
C1928 C1930 1.395 . S
C1928 C1931 1.403 . S
H1929 C1935 0.930 . S
C1930 H1916 0.930 . S
C1930 C1928 1.395 . S
C1930 C1933 1.403 . S
C1931 C1928 1.403 . S
C1931 C1932 1.524 . S
C1931 C1935 1.400 . S
C1932 H1917 0.960 . S
C1932 H1918 0.960 . S
C1932 H1919 0.960 . S
C1932 C1931 1.524 . S
C1933 C1930 1.403 . S
C1933 C1934 1.392 . S
C1933 C1937 1.495 . S
C1934 C1933 1.392 . S
C1934 C1935 1.385 . S
C1934 C1936 1.478 . S
C1935 H1929 0.930 . S
C1935 C1931 1.400 . S
C1935 C1934 1.385 . S
C1936 C1934 1.478 . S
C1936 C1938 1.381 . S
C1936 C1942 1.383 . S
C1937 C1933 1.495 . S
C1937 H1943 0.959 . S
C1937 H1944 0.961 . S
C1937 H1945 0.960 . S
C1938 C1936 1.381 . S
C1938 C1939 1.394 . S
C1938 H1946 0.930 . S
C1939 C1938 1.394 . S
C1939 C1940 1.383 . S
C1939 H1947 0.929 . S
C1940 C1939 1.383 . S
C1940 C1941 1.377 . S
C1941 H1925 0.930 . S
C1941 C1940 1.377 . S
C1941 C1942 1.379 . S
C1942 H1926 0.931 . S
C1942 C1936 1.383 . S
C1942 C1941 1.379 . S
H1943 C1937 0.959 . S
H1944 C1937 0.961 . S
H1945 C1937 0.960 . S
H1946 C1938 0.930 . S
H1947 C1939 0.929 . S
H1948 C1956 0.929 . S
H1949 C1958 0.930 . S
H1950 C1960 0.930 . S
H1951 C1963 0.929 . S
H1952 C1966 0.930 . S
H1953 C1968 0.960 . S
H1954 C1968 0.960 . S
H1955 C1968 0.960 . S
C1956 H1948 0.929 . S
C1956 C1957 1.377 . S
C1956 C1958 1.384 . S
C1957 C1956 1.377 . S
C1957 C1963 1.390 . S
C1958 H1949 0.930 . S
C1958 C1956 1.384 . S
C1958 C1959 1.372 . S
C1959 C1958 1.372 . S
C1959 C1960 1.400 . S
C1959 C1964 1.490 . S
C1960 H1950 0.930 . S
C1960 C1959 1.400 . S
C1960 C1963 1.386 . S
H1961 C1977 0.930 . S
H1962 C1978 0.931 . S
C1963 H1951 0.929 . S
C1963 C1957 1.390 . S
C1963 C1960 1.386 . S
C1964 C1959 1.490 . S
C1964 C1966 1.395 . S
C1964 C1967 1.403 . S
H1965 C1971 0.930 . S
C1966 H1952 0.930 . S
C1966 C1964 1.395 . S
C1966 C1969 1.403 . S
C1967 C1964 1.403 . S
C1967 C1968 1.524 . S
C1967 C1971 1.400 . S
C1968 H1953 0.960 . S
C1968 H1954 0.960 . S
C1968 H1955 0.960 . S
C1968 C1967 1.524 . S
C1969 C1966 1.403 . S
C1969 C1970 1.392 . S
C1969 C1973 1.495 . S
C1970 C1969 1.392 . S
C1970 C1971 1.385 . S
C1970 C1972 1.478 . S
C1971 H1965 0.930 . S
C1971 C1967 1.400 . S
C1971 C1970 1.385 . S
C1972 C1970 1.478 . S
C1972 C1974 1.381 . S
C1972 C1978 1.383 . S
C1973 C1969 1.495 . S
C1973 H1979 0.959 . S
C1973 H1980 0.961 . S
C1973 H1981 0.960 . S
C1974 C1972 1.381 . S
C1974 C1975 1.394 . S
C1974 H1982 0.930 . S
C1975 C1974 1.394 . S
C1975 C1976 1.383 . S
C1975 H1983 0.929 . S
C1976 C1975 1.383 . S
C1976 C1977 1.377 . S
C1977 H1961 0.930 . S
C1977 C1976 1.377 . S
C1977 C1978 1.379 . S
C1978 H1962 0.931 . S
C1978 C1972 1.383 . S
C1978 C1977 1.379 . S
H1979 C1973 0.959 . S
H1980 C1973 0.961 . S
H1981 C1973 0.960 . S
H1982 C1974 0.930 . S
H1983 C1975 0.929 . S
H1984 C1992 0.929 . S
H1985 C1994 0.930 . S
H1986 C1996 0.930 . S
H1987 C1999 0.929 . S
H1988 C2002 0.930 . S
H1989 C2004 0.960 . S
H1990 C2004 0.960 . S
H1991 C2004 0.960 . S
C1992 H1984 0.929 . S
C1992 C1993 1.377 . S
C1992 C1994 1.384 . S
C1993 C1992 1.377 . S
C1993 C1999 1.390 . S
C1994 H1985 0.930 . S
C1994 C1992 1.384 . S
C1994 C1995 1.372 . S
C1995 C1994 1.372 . S
C1995 C1996 1.400 . S
C1995 C2000 1.490 . S
C1996 H1986 0.930 . S
C1996 C1995 1.400 . S
C1996 C1999 1.386 . S
H1997 C2013 0.930 . S
H1998 C2014 0.931 . S
C1999 H1987 0.929 . S
C1999 C1993 1.390 . S
C1999 C1996 1.386 . S
C2000 C1995 1.490 . S
C2000 C2002 1.395 . S
C2000 C2003 1.403 . S
H2001 C2007 0.930 . S
C2002 H1988 0.930 . S
C2002 C2000 1.395 . S
C2002 C2005 1.403 . S
C2003 C2000 1.403 . S
C2003 C2004 1.524 . S
C2003 C2007 1.400 . S
C2004 H1989 0.960 . S
C2004 H1990 0.960 . S
C2004 H1991 0.960 . S
C2004 C2003 1.524 . S
C2005 C2002 1.403 . S
C2005 C2006 1.392 . S
C2005 C2009 1.495 . S
C2006 C2005 1.392 . S
C2006 C2007 1.385 . S
C2006 C2008 1.478 . S
C2007 H2001 0.930 . S
C2007 C2003 1.400 . S
C2007 C2006 1.385 . S
C2008 C2006 1.478 . S
C2008 C2010 1.381 . S
C2008 C2014 1.383 . S
C2009 C2005 1.495 . S
C2009 H2015 0.959 . S
C2009 H2016 0.961 . S
C2009 H2017 0.960 . S
C2010 C2008 1.381 . S
C2010 C2011 1.394 . S
C2010 H2018 0.930 . S
C2011 C2010 1.394 . S
C2011 C2012 1.383 . S
C2011 H2019 0.929 . S
C2012 C2011 1.383 . S
C2012 C2013 1.377 . S
C2013 H1997 0.930 . S
C2013 C2012 1.377 . S
C2013 C2014 1.379 . S
C2014 H1998 0.931 . S
C2014 C2008 1.383 . S
C2014 C2013 1.379 . S
H2015 C2009 0.959 . S
H2016 C2009 0.961 . S
H2017 C2009 0.960 . S
H2018 C2010 0.930 . S
H2019 C2011 0.929 . S
H2020 C2028 0.929 . S
H2021 C2030 0.930 . S
H2022 C2032 0.930 . S
H2023 C2035 0.929 . S
H2024 C2038 0.930 . S
H2025 C2040 0.960 . S
H2026 C2040 0.960 . S
H2027 C2040 0.960 . S
C2028 H2020 0.929 . S
C2028 C2029 1.377 . S
C2028 C2030 1.384 . S
C2029 C2028 1.377 . S
C2029 C2035 1.390 . S
C2030 H2021 0.930 . S
C2030 C2028 1.384 . S
C2030 C2031 1.372 . S
C2031 C2030 1.372 . S
C2031 C2032 1.400 . S
C2031 C2036 1.490 . S
C2032 H2022 0.930 . S
C2032 C2031 1.400 . S
C2032 C2035 1.386 . S
H2033 C2049 0.930 . S
H2034 C2050 0.931 . S
C2035 H2023 0.929 . S
C2035 C2029 1.390 . S
C2035 C2032 1.386 . S
C2036 C2031 1.490 . S
C2036 C2038 1.395 . S
C2036 C2039 1.403 . S
H2037 C2043 0.930 . S
C2038 H2024 0.930 . S
C2038 C2036 1.395 . S
C2038 C2041 1.403 . S
C2039 C2036 1.403 . S
C2039 C2040 1.524 . S
C2039 C2043 1.400 . S
C2040 H2025 0.960 . S
C2040 H2026 0.960 . S
C2040 H2027 0.960 . S
C2040 C2039 1.524 . S
C2041 C2038 1.403 . S
C2041 C2042 1.392 . S
C2041 C2045 1.495 . S
C2042 C2041 1.392 . S
C2042 C2043 1.385 . S
C2042 C2044 1.478 . S
C2043 H2037 0.930 . S
C2043 C2039 1.400 . S
C2043 C2042 1.385 . S
C2044 C2042 1.478 . S
C2044 C2046 1.381 . S
C2044 C2050 1.383 . S
C2045 C2041 1.495 . S
C2045 H2051 0.959 . S
C2045 H2052 0.961 . S
C2045 H2053 0.960 . S
C2046 C2044 1.381 . S
C2046 C2047 1.394 . S
C2046 H2054 0.930 . S
C2047 C2046 1.394 . S
C2047 C2048 1.383 . S
C2047 H2055 0.929 . S
C2048 C2047 1.383 . S
C2048 C2049 1.377 . S
C2049 H2033 0.930 . S
C2049 C2048 1.377 . S
C2049 C2050 1.379 . S
C2050 H2034 0.931 . S
C2050 C2044 1.383 . S
C2050 C2049 1.379 . S
H2051 C2045 0.959 . S
H2052 C2045 0.961 . S
H2053 C2045 0.960 . S
H2054 C2046 0.930 . S
H2055 C2047 0.929 . S
H2056 C2064 0.929 . S
H2057 C2066 0.930 . S
H2058 C2068 0.930 . S
H2059 C2071 0.929 . S
H2060 C2074 0.930 . S
H2061 C2076 0.960 . S
H2062 C2076 0.960 . S
H2063 C2076 0.960 . S
C2064 H2056 0.929 . S
C2064 C2065 1.377 . S
C2064 C2066 1.384 . S
C2065 C2064 1.377 . S
C2065 C2071 1.390 . S
C2066 H2057 0.930 . S
C2066 C2064 1.384 . S
C2066 C2067 1.372 . S
C2067 C2066 1.372 . S
C2067 C2068 1.400 . S
C2067 C2072 1.490 . S
C2068 H2058 0.930 . S
C2068 C2067 1.400 . S
C2068 C2071 1.386 . S
H2069 C2085 0.930 . S
H2070 C2086 0.931 . S
C2071 H2059 0.929 . S
C2071 C2065 1.390 . S
C2071 C2068 1.386 . S
C2072 C2067 1.490 . S
C2072 C2074 1.395 . S
C2072 C2075 1.403 . S
H2073 C2079 0.930 . S
C2074 H2060 0.930 . S
C2074 C2072 1.395 . S
C2074 C2077 1.403 . S
C2075 C2072 1.403 . S
C2075 C2076 1.524 . S
C2075 C2079 1.400 . S
C2076 H2061 0.960 . S
C2076 H2062 0.960 . S
C2076 H2063 0.960 . S
C2076 C2075 1.524 . S
C2077 C2074 1.403 . S
C2077 C2078 1.392 . S
C2077 C2081 1.495 . S
C2078 C2077 1.392 . S
C2078 C2079 1.385 . S
C2078 C2080 1.478 . S
C2079 H2073 0.930 . S
C2079 C2075 1.400 . S
C2079 C2078 1.385 . S
C2080 C2078 1.478 . S
C2080 C2082 1.381 . S
C2080 C2086 1.383 . S
C2081 C2077 1.495 . S
C2081 H2087 0.959 . S
C2081 H2088 0.961 . S
C2081 H2089 0.960 . S
C2082 C2080 1.381 . S
C2082 C2083 1.394 . S
C2082 H2090 0.930 . S
C2083 C2082 1.394 . S
C2083 C2084 1.383 . S
C2083 H2091 0.929 . S
C2084 C2083 1.383 . S
C2084 C2085 1.377 . S
C2085 H2069 0.930 . S
C2085 C2084 1.377 . S
C2085 C2086 1.379 . S
C2086 H2070 0.931 . S
C2086 C2080 1.383 . S
C2086 C2085 1.379 . S
H2087 C2081 0.959 . S
H2088 C2081 0.961 . S
H2089 C2081 0.960 . S
H2090 C2082 0.930 . S
H2091 C2083 0.929 . S
H2092 C2100 0.929 . S
H2093 C2102 0.930 . S
H2094 C2104 0.930 . S
H2095 C2107 0.929 . S
H2096 C2110 0.930 . S
H2097 C2112 0.960 . S
H2098 C2112 0.960 . S
H2099 C2112 0.960 . S
C2100 H2092 0.929 . S
C2100 C2101 1.377 . S
C2100 C2102 1.384 . S
C2101 C2100 1.377 . S
C2101 C2107 1.390 . S
C2102 H2093 0.930 . S
C2102 C2100 1.384 . S
C2102 C2103 1.372 . S
C2103 C2102 1.372 . S
C2103 C2104 1.400 . S
C2103 C2108 1.490 . S
C2104 H2094 0.930 . S
C2104 C2103 1.400 . S
C2104 C2107 1.386 . S
H2105 C2121 0.930 . S
H2106 C2122 0.931 . S
C2107 H2095 0.929 . S
C2107 C2101 1.390 . S
C2107 C2104 1.386 . S
C2108 C2103 1.490 . S
C2108 C2110 1.395 . S
C2108 C2111 1.403 . S
H2109 C2115 0.930 . S
C2110 H2096 0.930 . S
C2110 C2108 1.395 . S
C2110 C2113 1.403 . S
C2111 C2108 1.403 . S
C2111 C2112 1.524 . S
C2111 C2115 1.400 . S
C2112 H2097 0.960 . S
C2112 H2098 0.960 . S
C2112 H2099 0.960 . S
C2112 C2111 1.524 . S
C2113 C2110 1.403 . S
C2113 C2114 1.392 . S
C2113 C2117 1.495 . S
C2114 C2113 1.392 . S
C2114 C2115 1.385 . S
C2114 C2116 1.478 . S
C2115 H2109 0.930 . S
C2115 C2111 1.400 . S
C2115 C2114 1.385 . S
C2116 C2114 1.478 . S
C2116 C2118 1.381 . S
C2116 C2122 1.383 . S
C2117 C2113 1.495 . S
C2117 H2123 0.959 . S
C2117 H2124 0.961 . S
C2117 H2125 0.960 . S
C2118 C2116 1.381 . S
C2118 C2119 1.394 . S
C2118 H2126 0.930 . S
C2119 C2118 1.394 . S
C2119 C2120 1.383 . S
C2119 H2127 0.929 . S
C2120 C2119 1.383 . S
C2120 C2121 1.377 . S
C2121 H2105 0.930 . S
C2121 C2120 1.377 . S
C2121 C2122 1.379 . S
C2122 H2106 0.931 . S
C2122 C2116 1.383 . S
C2122 C2121 1.379 . S
H2123 C2117 0.959 . S
H2124 C2117 0.961 . S
H2125 C2117 0.960 . S
H2126 C2118 0.930 . S
H2127 C2119 0.929 . S
H2128 C2136 0.929 . S
H2129 C2138 0.930 . S
H2130 C2140 0.930 . S
H2131 C2143 0.929 . S
H2132 C2146 0.930 . S
H2133 C2148 0.960 . S
H2134 C2148 0.960 . S
H2135 C2148 0.960 . S
C2136 H2128 0.929 . S
C2136 C2137 1.377 . S
C2136 C2138 1.384 . S
C2137 C2136 1.377 . S
C2137 C2143 1.390 . S
C2138 H2129 0.930 . S
C2138 C2136 1.384 . S
C2138 C2139 1.372 . S
C2139 C2138 1.372 . S
C2139 C2140 1.400 . S
C2139 C2144 1.490 . S
C2140 H2130 0.930 . S
C2140 C2139 1.400 . S
C2140 C2143 1.386 . S
H2141 C2157 0.930 . S
H2142 C2158 0.931 . S
C2143 H2131 0.929 . S
C2143 C2137 1.390 . S
C2143 C2140 1.386 . S
C2144 C2139 1.490 . S
C2144 C2146 1.395 . S
C2144 C2147 1.403 . S
H2145 C2151 0.930 . S
C2146 H2132 0.930 . S
C2146 C2144 1.395 . S
C2146 C2149 1.403 . S
C2147 C2144 1.403 . S
C2147 C2148 1.524 . S
C2147 C2151 1.400 . S
C2148 H2133 0.960 . S
C2148 H2134 0.960 . S
C2148 H2135 0.960 . S
C2148 C2147 1.524 . S
C2149 C2146 1.403 . S
C2149 C2150 1.392 . S
C2149 C2153 1.495 . S
C2150 C2149 1.392 . S
C2150 C2151 1.385 . S
C2150 C2152 1.478 . S
C2151 H2145 0.930 . S
C2151 C2147 1.400 . S
C2151 C2150 1.385 . S
C2152 C2150 1.478 . S
C2152 C2154 1.381 . S
C2152 C2158 1.383 . S
C2153 C2149 1.495 . S
C2153 H2159 0.959 . S
C2153 H2160 0.961 . S
C2153 H2161 0.960 . S
C2154 C2152 1.381 . S
C2154 C2155 1.394 . S
C2154 H2162 0.930 . S
C2155 C2154 1.394 . S
C2155 C2156 1.383 . S
C2155 H2163 0.929 . S
C2156 C2155 1.383 . S
C2156 C2157 1.377 . S
C2157 H2141 0.930 . S
C2157 C2156 1.377 . S
C2157 C2158 1.379 . S
C2158 H2142 0.931 . S
C2158 C2152 1.383 . S
C2158 C2157 1.379 . S
H2159 C2153 0.959 . S
H2160 C2153 0.961 . S
H2161 C2153 0.960 . S
H2162 C2154 0.930 . S
H2163 C2155 0.929 . S
H2164 C2172 0.929 . S
H2165 C2174 0.930 . S
H2166 C2176 0.930 . S
H2167 C2179 0.929 . S
H2168 C2182 0.930 . S
H2169 C2184 0.960 . S
H2170 C2184 0.960 . S
H2171 C2184 0.960 . S
C2172 H2164 0.929 . S
C2172 C2173 1.377 . S
C2172 C2174 1.384 . S
C2173 C2172 1.377 . S
C2173 C2179 1.390 . S
C2174 H2165 0.930 . S
C2174 C2172 1.384 . S
C2174 C2175 1.372 . S
C2175 C2174 1.372 . S
C2175 C2176 1.400 . S
C2175 C2180 1.490 . S
C2176 H2166 0.930 . S
C2176 C2175 1.400 . S
C2176 C2179 1.386 . S
H2177 C2193 0.930 . S
H2178 C2194 0.931 . S
C2179 H2167 0.929 . S
C2179 C2173 1.390 . S
C2179 C2176 1.386 . S
C2180 C2175 1.490 . S
C2180 C2182 1.395 . S
C2180 C2183 1.403 . S
H2181 C2187 0.930 . S
C2182 H2168 0.930 . S
C2182 C2180 1.395 . S
C2182 C2185 1.403 . S
C2183 C2180 1.403 . S
C2183 C2184 1.524 . S
C2183 C2187 1.400 . S
C2184 H2169 0.960 . S
C2184 H2170 0.960 . S
C2184 H2171 0.960 . S
C2184 C2183 1.524 . S
C2185 C2182 1.403 . S
C2185 C2186 1.392 . S
C2185 C2189 1.495 . S
C2186 C2185 1.392 . S
C2186 C2187 1.385 . S
C2186 C2188 1.478 . S
C2187 H2181 0.930 . S
C2187 C2183 1.400 . S
C2187 C2186 1.385 . S
C2188 C2186 1.478 . S
C2188 C2190 1.381 . S
C2188 C2194 1.383 . S
C2189 C2185 1.495 . S
C2189 H2195 0.959 . S
C2189 H2196 0.961 . S
C2189 H2197 0.960 . S
C2190 C2188 1.381 . S
C2190 C2191 1.394 . S
C2190 H2198 0.930 . S
C2191 C2190 1.394 . S
C2191 C2192 1.383 . S
C2191 H2199 0.929 . S
C2192 C2191 1.383 . S
C2192 C2193 1.377 . S
C2193 H2177 0.930 . S
C2193 C2192 1.377 . S
C2193 C2194 1.379 . S
C2194 H2178 0.931 . S
C2194 C2188 1.383 . S
C2194 C2193 1.379 . S
H2195 C2189 0.959 . S
H2196 C2189 0.961 . S
H2197 C2189 0.960 . S
H2198 C2190 0.930 . S
H2199 C2191 0.929 . S
H2200 C2208 0.929 . S
H2201 C2210 0.930 . S
H2202 C2212 0.930 . S
H2203 C2215 0.929 . S
H2204 C2218 0.930 . S
H2205 C2220 0.960 . S
H2206 C2220 0.960 . S
H2207 C2220 0.960 . S
C2208 H2200 0.929 . S
C2208 C2209 1.377 . S
C2208 C2210 1.384 . S
C2209 C2208 1.377 . S
C2209 C2215 1.390 . S
C2210 H2201 0.930 . S
C2210 C2208 1.384 . S
C2210 C2211 1.372 . S
C2211 C2210 1.372 . S
C2211 C2212 1.400 . S
C2211 C2216 1.490 . S
C2212 H2202 0.930 . S
C2212 C2211 1.400 . S
C2212 C2215 1.386 . S
H2213 C2229 0.930 . S
H2214 C2230 0.931 . S
C2215 H2203 0.929 . S
C2215 C2209 1.390 . S
C2215 C2212 1.386 . S
C2216 C2211 1.490 . S
C2216 C2218 1.395 . S
C2216 C2219 1.403 . S
H2217 C2223 0.930 . S
C2218 H2204 0.930 . S
C2218 C2216 1.395 . S
C2218 C2221 1.403 . S
C2219 C2216 1.403 . S
C2219 C2220 1.524 . S
C2219 C2223 1.400 . S
C2220 H2205 0.960 . S
C2220 H2206 0.960 . S
C2220 H2207 0.960 . S
C2220 C2219 1.524 . S
C2221 C2218 1.403 . S
C2221 C2222 1.392 . S
C2221 C2225 1.495 . S
C2222 C2221 1.392 . S
C2222 C2223 1.385 . S
C2222 C2224 1.478 . S
C2223 H2217 0.930 . S
C2223 C2219 1.400 . S
C2223 C2222 1.385 . S
C2224 C2222 1.478 . S
C2224 C2226 1.381 . S
C2224 C2230 1.383 . S
C2225 C2221 1.495 . S
C2225 H2231 0.959 . S
C2225 H2232 0.961 . S
C2225 H2233 0.960 . S
C2226 C2224 1.381 . S
C2226 C2227 1.394 . S
C2226 H2234 0.930 . S
C2227 C2226 1.394 . S
C2227 C2228 1.383 . S
C2227 H2235 0.929 . S
C2228 C2227 1.383 . S
C2228 C2229 1.377 . S
C2229 H2213 0.930 . S
C2229 C2228 1.377 . S
C2229 C2230 1.379 . S
C2230 H2214 0.931 . S
C2230 C2224 1.383 . S
C2230 C2229 1.379 . S
H2231 C2225 0.959 . S
H2232 C2225 0.961 . S
H2233 C2225 0.960 . S
H2234 C2226 0.930 . S
H2235 C2227 0.929 . S
H2236 C2244 0.929 . S
H2237 C2246 0.930 . S
H2238 C2248 0.930 . S
H2239 C2251 0.929 . S
H2240 C2254 0.930 . S
H2241 C2256 0.960 . S
H2242 C2256 0.960 . S
H2243 C2256 0.960 . S
C2244 H2236 0.929 . S
C2244 C2245 1.377 . S
C2244 C2246 1.384 . S
C2245 C2244 1.377 . S
C2245 C2251 1.390 . S
C2246 H2237 0.930 . S
C2246 C2244 1.384 . S
C2246 C2247 1.372 . S
C2247 C2246 1.372 . S
C2247 C2248 1.400 . S
C2247 C2252 1.490 . S
C2248 H2238 0.930 . S
C2248 C2247 1.400 . S
C2248 C2251 1.386 . S
H2249 C2265 0.930 . S
H2250 C2266 0.931 . S
C2251 H2239 0.929 . S
C2251 C2245 1.390 . S
C2251 C2248 1.386 . S
C2252 C2247 1.490 . S
C2252 C2254 1.395 . S
C2252 C2255 1.403 . S
H2253 C2259 0.930 . S
C2254 H2240 0.930 . S
C2254 C2252 1.395 . S
C2254 C2257 1.403 . S
C2255 C2252 1.403 . S
C2255 C2256 1.524 . S
C2255 C2259 1.400 . S
C2256 H2241 0.960 . S
C2256 H2242 0.960 . S
C2256 H2243 0.960 . S
C2256 C2255 1.524 . S
C2257 C2254 1.403 . S
C2257 C2258 1.392 . S
C2257 C2261 1.495 . S
C2258 C2257 1.392 . S
C2258 C2259 1.385 . S
C2258 C2260 1.478 . S
C2259 H2253 0.930 . S
C2259 C2255 1.400 . S
C2259 C2258 1.385 . S
C2260 C2258 1.478 . S
C2260 C2262 1.381 . S
C2260 C2266 1.383 . S
C2261 C2257 1.495 . S
C2261 H2267 0.959 . S
C2261 H2268 0.961 . S
C2261 H2269 0.960 . S
C2262 C2260 1.381 . S
C2262 C2263 1.394 . S
C2262 H2270 0.930 . S
C2263 C2262 1.394 . S
C2263 C2264 1.383 . S
C2263 H2271 0.929 . S
C2264 C2263 1.383 . S
C2264 C2265 1.377 . S
C2265 H2249 0.930 . S
C2265 C2264 1.377 . S
C2265 C2266 1.379 . S
C2266 H2250 0.931 . S
C2266 C2260 1.383 . S
C2266 C2265 1.379 . S
H2267 C2261 0.959 . S
H2268 C2261 0.961 . S
H2269 C2261 0.960 . S
H2270 C2262 0.930 . S
H2271 C2263 0.929 . S
H2272 C2280 0.929 . S
H2273 C2282 0.930 . S
H2274 C2284 0.930 . S
H2275 C2287 0.929 . S
H2276 C2290 0.930 . S
H2277 C2292 0.960 . S
H2278 C2292 0.960 . S
H2279 C2292 0.960 . S
C2280 H2272 0.929 . S
C2280 C2281 1.377 . S
C2280 C2282 1.384 . S
C2281 C2280 1.377 . S
C2281 C2287 1.390 . S
C2282 H2273 0.930 . S
C2282 C2280 1.384 . S
C2282 C2283 1.372 . S
C2283 C2282 1.372 . S
C2283 C2284 1.400 . S
C2283 C2288 1.490 . S
C2284 H2274 0.930 . S
C2284 C2283 1.400 . S
C2284 C2287 1.386 . S
H2285 C2301 0.930 . S
H2286 C2302 0.931 . S
C2287 H2275 0.929 . S
C2287 C2281 1.390 . S
C2287 C2284 1.386 . S
C2288 C2283 1.490 . S
C2288 C2290 1.395 . S
C2288 C2291 1.403 . S
H2289 C2295 0.930 . S
C2290 H2276 0.930 . S
C2290 C2288 1.395 . S
C2290 C2293 1.403 . S
C2291 C2288 1.403 . S
C2291 C2292 1.524 . S
C2291 C2295 1.400 . S
C2292 H2277 0.960 . S
C2292 H2278 0.960 . S
C2292 H2279 0.960 . S
C2292 C2291 1.524 . S
C2293 C2290 1.403 . S
C2293 C2294 1.392 . S
C2293 C2297 1.495 . S
C2294 C2293 1.392 . S
C2294 C2295 1.385 . S
C2294 C2296 1.478 . S
C2295 H2289 0.930 . S
C2295 C2291 1.400 . S
C2295 C2294 1.385 . S
C2296 C2294 1.478 . S
C2296 C2298 1.381 . S
C2296 C2302 1.383 . S
C2297 C2293 1.495 . S
C2297 H2303 0.959 . S
C2297 H2304 0.961 . S
C2297 H2305 0.960 . S
C2298 C2296 1.381 . S
C2298 C2299 1.394 . S
C2298 H2306 0.930 . S
C2299 C2298 1.394 . S
C2299 C2300 1.383 . S
C2299 H2307 0.929 . S
C2300 C2299 1.383 . S
C2300 C2301 1.377 . S
C2301 H2285 0.930 . S
C2301 C2300 1.377 . S
C2301 C2302 1.379 . S
C2302 H2286 0.931 . S
C2302 C2296 1.383 . S
C2302 C2301 1.379 . S
H2303 C2297 0.959 . S
H2304 C2297 0.961 . S
H2305 C2297 0.960 . S
H2306 C2298 0.930 . S
H2307 C2299 0.929 . S
H2308 C2316 0.929 . S
H2309 C2318 0.930 . S
H2310 C2320 0.930 . S
H2311 C2323 0.929 . S
H2312 C2326 0.930 . S
H2313 C2328 0.960 . S
H2314 C2328 0.960 . S
H2315 C2328 0.960 . S
C2316 H2308 0.929 . S
C2316 C2317 1.377 . S
C2316 C2318 1.384 . S
C2317 C2316 1.377 . S
C2317 C2323 1.390 . S
C2318 H2309 0.930 . S
C2318 C2316 1.384 . S
C2318 C2319 1.372 . S
C2319 C2318 1.372 . S
C2319 C2320 1.400 . S
C2319 C2324 1.490 . S
C2320 H2310 0.930 . S
C2320 C2319 1.400 . S
C2320 C2323 1.386 . S
H2321 C2337 0.930 . S
H2322 C2338 0.931 . S
C2323 H2311 0.929 . S
C2323 C2317 1.390 . S
C2323 C2320 1.386 . S
C2324 C2319 1.490 . S
C2324 C2326 1.395 . S
C2324 C2327 1.403 . S
H2325 C2331 0.930 . S
C2326 H2312 0.930 . S
C2326 C2324 1.395 . S
C2326 C2329 1.403 . S
C2327 C2324 1.403 . S
C2327 C2328 1.524 . S
C2327 C2331 1.400 . S
C2328 H2313 0.960 . S
C2328 H2314 0.960 . S
C2328 H2315 0.960 . S
C2328 C2327 1.524 . S
C2329 C2326 1.403 . S
C2329 C2330 1.392 . S
C2329 C2333 1.495 . S
C2330 C2329 1.392 . S
C2330 C2331 1.385 . S
C2330 C2332 1.478 . S
C2331 H2325 0.930 . S
C2331 C2327 1.400 . S
C2331 C2330 1.385 . S
C2332 C2330 1.478 . S
C2332 C2334 1.381 . S
C2332 C2338 1.383 . S
C2333 C2329 1.495 . S
C2333 H2339 0.959 . S
C2333 H2340 0.961 . S
C2333 H2341 0.960 . S
C2334 C2332 1.381 . S
C2334 C2335 1.394 . S
C2334 H2342 0.930 . S
C2335 C2334 1.394 . S
C2335 C2336 1.383 . S
C2335 H2343 0.929 . S
C2336 C2335 1.383 . S
C2336 C2337 1.377 . S
C2337 H2321 0.930 . S
C2337 C2336 1.377 . S
C2337 C2338 1.379 . S
C2338 H2322 0.931 . S
C2338 C2332 1.383 . S
C2338 C2337 1.379 . S
H2339 C2333 0.959 . S
H2340 C2333 0.961 . S
H2341 C2333 0.960 . S
H2342 C2334 0.930 . S
H2343 C2335 0.929 . S
H2344 C2352 0.929 . S
H2345 C2354 0.930 . S
H2346 C2356 0.930 . S
H2347 C2359 0.929 . S
H2348 C2362 0.930 . S
H2349 C2364 0.960 . S
H2350 C2364 0.960 . S
H2351 C2364 0.960 . S
C2352 H2344 0.929 . S
C2352 C2353 1.377 . S
C2352 C2354 1.384 . S
C2353 C2352 1.377 . S
C2353 C2359 1.390 . S
C2354 H2345 0.930 . S
C2354 C2352 1.384 . S
C2354 C2355 1.372 . S
C2355 C2354 1.372 . S
C2355 C2356 1.400 . S
C2355 C2360 1.490 . S
C2356 H2346 0.930 . S
C2356 C2355 1.400 . S
C2356 C2359 1.386 . S
H2357 C2373 0.930 . S
H2358 C2374 0.931 . S
C2359 H2347 0.929 . S
C2359 C2353 1.390 . S
C2359 C2356 1.386 . S
C2360 C2355 1.490 . S
C2360 C2362 1.395 . S
C2360 C2363 1.403 . S
H2361 C2367 0.930 . S
C2362 H2348 0.930 . S
C2362 C2360 1.395 . S
C2362 C2365 1.403 . S
C2363 C2360 1.403 . S
C2363 C2364 1.524 . S
C2363 C2367 1.400 . S
C2364 H2349 0.960 . S
C2364 H2350 0.960 . S
C2364 H2351 0.960 . S
C2364 C2363 1.524 . S
C2365 C2362 1.403 . S
C2365 C2366 1.392 . S
C2365 C2369 1.495 . S
C2366 C2365 1.392 . S
C2366 C2367 1.385 . S
C2366 C2368 1.478 . S
C2367 H2361 0.930 . S
C2367 C2363 1.400 . S
C2367 C2366 1.385 . S
C2368 C2366 1.478 . S
C2368 C2370 1.381 . S
C2368 C2374 1.383 . S
C2369 C2365 1.495 . S
C2369 H2375 0.959 . S
C2369 H2376 0.961 . S
C2369 H2377 0.960 . S
C2370 C2368 1.381 . S
C2370 C2371 1.394 . S
C2370 H2378 0.930 . S
C2371 C2370 1.394 . S
C2371 C2372 1.383 . S
C2371 H2379 0.929 . S
C2372 C2371 1.383 . S
C2372 C2373 1.377 . S
C2373 H2357 0.930 . S
C2373 C2372 1.377 . S
C2373 C2374 1.379 . S
C2374 H2358 0.931 . S
C2374 C2368 1.383 . S
C2374 C2373 1.379 . S
H2375 C2369 0.959 . S
H2376 C2369 0.961 . S
H2377 C2369 0.960 . S
H2378 C2370 0.930 . S
H2379 C2371 0.929 . S
H2380 C2388 0.929 . S
H2381 C2390 0.930 . S
H2382 C2392 0.930 . S
H2383 C2395 0.929 . S
H2384 C2398 0.930 . S
H2385 C2400 0.960 . S
H2386 C2400 0.960 . S
H2387 C2400 0.960 . S
C2388 H2380 0.929 . S
C2388 C2389 1.377 . S
C2388 C2390 1.384 . S
C2389 C2388 1.377 . S
C2389 C2395 1.390 . S
C2390 H2381 0.930 . S
C2390 C2388 1.384 . S
C2390 C2391 1.372 . S
C2391 C2390 1.372 . S
C2391 C2392 1.400 . S
C2391 C2396 1.490 . S
C2392 H2382 0.930 . S
C2392 C2391 1.400 . S
C2392 C2395 1.386 . S
H2393 C2409 0.930 . S
H2394 C2410 0.931 . S
C2395 H2383 0.929 . S
C2395 C2389 1.390 . S
C2395 C2392 1.386 . S
C2396 C2391 1.490 . S
C2396 C2398 1.395 . S
C2396 C2399 1.403 . S
H2397 C2403 0.930 . S
C2398 H2384 0.930 . S
C2398 C2396 1.395 . S
C2398 C2401 1.403 . S
C2399 C2396 1.403 . S
C2399 C2400 1.524 . S
C2399 C2403 1.400 . S
C2400 H2385 0.960 . S
C2400 H2386 0.960 . S
C2400 H2387 0.960 . S
C2400 C2399 1.524 . S
C2401 C2398 1.403 . S
C2401 C2402 1.392 . S
C2401 C2405 1.495 . S
C2402 C2401 1.392 . S
C2402 C2403 1.385 . S
C2402 C2404 1.478 . S
C2403 H2397 0.930 . S
C2403 C2399 1.400 . S
C2403 C2402 1.385 . S
C2404 C2402 1.478 . S
C2404 C2406 1.381 . S
C2404 C2410 1.383 . S
C2405 C2401 1.495 . S
C2405 H2411 0.959 . S
C2405 H2412 0.961 . S
C2405 H2413 0.960 . S
C2406 C2404 1.381 . S
C2406 C2407 1.394 . S
C2406 H2414 0.930 . S
C2407 C2406 1.394 . S
C2407 C2408 1.383 . S
C2407 H2415 0.929 . S
C2408 C2407 1.383 . S
C2408 C2409 1.377 . S
C2409 H2393 0.930 . S
C2409 C2408 1.377 . S
C2409 C2410 1.379 . S
C2410 H2394 0.931 . S
C2410 C2404 1.383 . S
C2410 C2409 1.379 . S
H2411 C2405 0.959 . S
H2412 C2405 0.961 . S
H2413 C2405 0.960 . S
H2414 C2406 0.930 . S
H2415 C2407 0.929 . S
H2416 C2424 0.929 . S
H2417 C2426 0.930 . S
H2418 C2428 0.930 . S
H2419 C2431 0.929 . S
H2420 C2434 0.930 . S
H2421 C2436 0.960 . S
H2422 C2436 0.960 . S
H2423 C2436 0.960 . S
C2424 H2416 0.929 . S
C2424 C2425 1.377 . S
C2424 C2426 1.384 . S
C2425 C2424 1.377 . S
C2425 C2431 1.390 . S
C2426 H2417 0.930 . S
C2426 C2424 1.384 . S
C2426 C2427 1.372 . S
C2427 C2426 1.372 . S
C2427 C2428 1.400 . S
C2427 C2432 1.490 . S
C2428 H2418 0.930 . S
C2428 C2427 1.400 . S
C2428 C2431 1.386 . S
H2429 C2445 0.930 . S
H2430 C2446 0.931 . S
C2431 H2419 0.929 . S
C2431 C2425 1.390 . S
C2431 C2428 1.386 . S
C2432 C2427 1.490 . S
C2432 C2434 1.395 . S
C2432 C2435 1.403 . S
H2433 C2439 0.930 . S
C2434 H2420 0.930 . S
C2434 C2432 1.395 . S
C2434 C2437 1.403 . S
C2435 C2432 1.403 . S
C2435 C2436 1.524 . S
C2435 C2439 1.400 . S
C2436 H2421 0.960 . S
C2436 H2422 0.960 . S
C2436 H2423 0.960 . S
C2436 C2435 1.524 . S
C2437 C2434 1.403 . S
C2437 C2438 1.392 . S
C2437 C2441 1.495 . S
C2438 C2437 1.392 . S
C2438 C2439 1.385 . S
C2438 C2440 1.478 . S
C2439 H2433 0.930 . S
C2439 C2435 1.400 . S
C2439 C2438 1.385 . S
C2440 C2438 1.478 . S
C2440 C2442 1.381 . S
C2440 C2446 1.383 . S
C2441 C2437 1.495 . S
C2441 H2447 0.959 . S
C2441 H2448 0.961 . S
C2441 H2449 0.960 . S
C2442 C2440 1.381 . S
C2442 C2443 1.394 . S
C2442 H2450 0.930 . S
C2443 C2442 1.394 . S
C2443 C2444 1.383 . S
C2443 H2451 0.929 . S
C2444 C2443 1.383 . S
C2444 C2445 1.377 . S
C2445 H2429 0.930 . S
C2445 C2444 1.377 . S
C2445 C2446 1.379 . S
C2446 H2430 0.931 . S
C2446 C2440 1.383 . S
C2446 C2445 1.379 . S
H2447 C2441 0.959 . S
H2448 C2441 0.961 . S
H2449 C2441 0.960 . S
H2450 C2442 0.930 . S
H2451 C2443 0.929 . S
H2452 C2460 0.929 . S
H2453 C2462 0.930 . S
H2454 C2464 0.930 . S
H2455 C2467 0.929 . S
H2456 C2470 0.930 . S
H2457 C2472 0.960 . S
H2458 C2472 0.960 . S
H2459 C2472 0.960 . S
C2460 H2452 0.929 . S
C2460 C2461 1.377 . S
C2460 C2462 1.384 . S
C2461 C2460 1.377 . S
C2461 C2467 1.390 . S
C2462 H2453 0.930 . S
C2462 C2460 1.384 . S
C2462 C2463 1.372 . S
C2463 C2462 1.372 . S
C2463 C2464 1.400 . S
C2463 C2468 1.490 . S
C2464 H2454 0.930 . S
C2464 C2463 1.400 . S
C2464 C2467 1.386 . S
H2465 C2481 0.930 . S
H2466 C2482 0.931 . S
C2467 H2455 0.929 . S
C2467 C2461 1.390 . S
C2467 C2464 1.386 . S
C2468 C2463 1.490 . S
C2468 C2470 1.395 . S
C2468 C2471 1.403 . S
H2469 C2475 0.930 . S
C2470 H2456 0.930 . S
C2470 C2468 1.395 . S
C2470 C2473 1.403 . S
C2471 C2468 1.403 . S
C2471 C2472 1.524 . S
C2471 C2475 1.400 . S
C2472 H2457 0.960 . S
C2472 H2458 0.960 . S
C2472 H2459 0.960 . S
C2472 C2471 1.524 . S
C2473 C2470 1.403 . S
C2473 C2474 1.392 . S
C2473 C2477 1.495 . S
C2474 C2473 1.392 . S
C2474 C2475 1.385 . S
C2474 C2476 1.478 . S
C2475 H2469 0.930 . S
C2475 C2471 1.400 . S
C2475 C2474 1.385 . S
C2476 C2474 1.478 . S
C2476 C2478 1.381 . S
C2476 C2482 1.383 . S
C2477 C2473 1.495 . S
C2477 H2483 0.959 . S
C2477 H2484 0.961 . S
C2477 H2485 0.960 . S
C2478 C2476 1.381 . S
C2478 C2479 1.394 . S
C2478 H2486 0.930 . S
C2479 C2478 1.394 . S
C2479 C2480 1.383 . S
C2479 H2487 0.929 . S
C2480 C2479 1.383 . S
C2480 C2481 1.377 . S
C2481 H2465 0.930 . S
C2481 C2480 1.377 . S
C2481 C2482 1.379 . S
C2482 H2466 0.931 . S
C2482 C2476 1.383 . S
C2482 C2481 1.379 . S
H2483 C2477 0.959 . S
H2484 C2477 0.961 . S
H2485 C2477 0.960 . S
H2486 C2478 0.930 . S
H2487 C2479 0.929 . S
H2488 C2496 0.929 . S
H2489 C2498 0.930 . S
H2490 C2500 0.930 . S
H2491 C2503 0.929 . S
H2492 C2506 0.930 . S
H2493 C2508 0.960 . S
H2494 C2508 0.960 . S
H2495 C2508 0.960 . S
C2496 H2488 0.929 . S
C2496 C2497 1.377 . S
C2496 C2498 1.384 . S
C2497 C2496 1.377 . S
C2497 C2503 1.390 . S
C2498 H2489 0.930 . S
C2498 C2496 1.384 . S
C2498 C2499 1.372 . S
C2499 C2498 1.372 . S
C2499 C2500 1.400 . S
C2499 C2504 1.490 . S
C2500 H2490 0.930 . S
C2500 C2499 1.400 . S
C2500 C2503 1.386 . S
H2501 C2517 0.930 . S
H2502 C2518 0.931 . S
C2503 H2491 0.929 . S
C2503 C2497 1.390 . S
C2503 C2500 1.386 . S
C2504 C2499 1.490 . S
C2504 C2506 1.395 . S
C2504 C2507 1.403 . S
H2505 C2511 0.930 . S
C2506 H2492 0.930 . S
C2506 C2504 1.395 . S
C2506 C2509 1.403 . S
C2507 C2504 1.403 . S
C2507 C2508 1.524 . S
C2507 C2511 1.400 . S
C2508 H2493 0.960 . S
C2508 H2494 0.960 . S
C2508 H2495 0.960 . S
C2508 C2507 1.524 . S
C2509 C2506 1.403 . S
C2509 C2510 1.392 . S
C2509 C2513 1.495 . S
C2510 C2509 1.392 . S
C2510 C2511 1.385 . S
C2510 C2512 1.478 . S
C2511 H2505 0.930 . S
C2511 C2507 1.400 . S
C2511 C2510 1.385 . S
C2512 C2510 1.478 . S
C2512 C2514 1.381 . S
C2512 C2518 1.383 . S
C2513 C2509 1.495 . S
C2513 H2519 0.959 . S
C2513 H2520 0.961 . S
C2513 H2521 0.960 . S
C2514 C2512 1.381 . S
C2514 C2515 1.394 . S
C2514 H2522 0.930 . S
C2515 C2514 1.394 . S
C2515 C2516 1.383 . S
C2515 H2523 0.929 . S
C2516 C2515 1.383 . S
C2516 C2517 1.377 . S
C2517 H2501 0.930 . S
C2517 C2516 1.377 . S
C2517 C2518 1.379 . S
C2518 H2502 0.931 . S
C2518 C2512 1.383 . S
C2518 C2517 1.379 . S
H2519 C2513 0.959 . S
H2520 C2513 0.961 . S
H2521 C2513 0.960 . S
H2522 C2514 0.930 . S
H2523 C2515 0.929 . S
H2524 C2532 0.929 . S
H2525 C2534 0.930 . S
H2526 C2536 0.930 . S
H2527 C2539 0.929 . S
H2528 C2542 0.930 . S
H2529 C2544 0.960 . S
H2530 C2544 0.960 . S
H2531 C2544 0.960 . S
C2532 H2524 0.929 . S
C2532 C2533 1.377 . S
C2532 C2534 1.384 . S
C2533 C2532 1.377 . S
C2533 C2539 1.390 . S
C2534 H2525 0.930 . S
C2534 C2532 1.384 . S
C2534 C2535 1.372 . S
C2535 C2534 1.372 . S
C2535 C2536 1.400 . S
C2535 C2540 1.490 . S
C2536 H2526 0.930 . S
C2536 C2535 1.400 . S
C2536 C2539 1.386 . S
H2537 C2553 0.930 . S
H2538 C2554 0.931 . S
C2539 H2527 0.929 . S
C2539 C2533 1.390 . S
C2539 C2536 1.386 . S
C2540 C2535 1.490 . S
C2540 C2542 1.395 . S
C2540 C2543 1.403 . S
H2541 C2547 0.930 . S
C2542 H2528 0.930 . S
C2542 C2540 1.395 . S
C2542 C2545 1.403 . S
C2543 C2540 1.403 . S
C2543 C2544 1.524 . S
C2543 C2547 1.400 . S
C2544 H2529 0.960 . S
C2544 H2530 0.960 . S
C2544 H2531 0.960 . S
C2544 C2543 1.524 . S
C2545 C2542 1.403 . S
C2545 C2546 1.392 . S
C2545 C2549 1.495 . S
C2546 C2545 1.392 . S
C2546 C2547 1.385 . S
C2546 C2548 1.478 . S
C2547 H2541 0.930 . S
C2547 C2543 1.400 . S
C2547 C2546 1.385 . S
C2548 C2546 1.478 . S
C2548 C2550 1.381 . S
C2548 C2554 1.383 . S
C2549 C2545 1.495 . S
C2549 H2555 0.959 . S
C2549 H2556 0.961 . S
C2549 H2557 0.960 . S
C2550 C2548 1.381 . S
C2550 C2551 1.394 . S
C2550 H2558 0.930 . S
C2551 C2550 1.394 . S
C2551 C2552 1.383 . S
C2551 H2559 0.929 . S
C2552 C2551 1.383 . S
C2552 C2553 1.377 . S
C2553 H2537 0.930 . S
C2553 C2552 1.377 . S
C2553 C2554 1.379 . S
C2554 H2538 0.931 . S
C2554 C2548 1.383 . S
C2554 C2553 1.379 . S
H2555 C2549 0.959 . S
H2556 C2549 0.961 . S
H2557 C2549 0.960 . S
H2558 C2550 0.930 . S
H2559 C2551 0.929 . S
H2560 C2568 0.929 . S
H2561 C2570 0.930 . S
H2562 C2572 0.930 . S
H2563 C2575 0.929 . S
H2564 C2578 0.930 . S
H2565 C2580 0.960 . S
H2566 C2580 0.960 . S
H2567 C2580 0.960 . S
C2568 H2560 0.929 . S
C2568 C2569 1.377 . S
C2568 C2570 1.384 . S
C2569 C2568 1.377 . S
C2569 C2575 1.390 . S
C2570 H2561 0.930 . S
C2570 C2568 1.384 . S
C2570 C2571 1.372 . S
C2571 C2570 1.372 . S
C2571 C2572 1.400 . S
C2571 C2576 1.490 . S
C2572 H2562 0.930 . S
C2572 C2571 1.400 . S
C2572 C2575 1.386 . S
H2573 C2589 0.930 . S
H2574 C2590 0.931 . S
C2575 H2563 0.929 . S
C2575 C2569 1.390 . S
C2575 C2572 1.386 . S
C2576 C2571 1.490 . S
C2576 C2578 1.395 . S
C2576 C2579 1.403 . S
H2577 C2583 0.930 . S
C2578 H2564 0.930 . S
C2578 C2576 1.395 . S
C2578 C2581 1.403 . S
C2579 C2576 1.403 . S
C2579 C2580 1.524 . S
C2579 C2583 1.400 . S
C2580 H2565 0.960 . S
C2580 H2566 0.960 . S
C2580 H2567 0.960 . S
C2580 C2579 1.524 . S
C2581 C2578 1.403 . S
C2581 C2582 1.392 . S
C2581 C2585 1.495 . S
C2582 C2581 1.392 . S
C2582 C2583 1.385 . S
C2582 C2584 1.478 . S
C2583 H2577 0.930 . S
C2583 C2579 1.400 . S
C2583 C2582 1.385 . S
C2584 C2582 1.478 . S
C2584 C2586 1.381 . S
C2584 C2590 1.383 . S
C2585 C2581 1.495 . S
C2585 H2591 0.959 . S
C2585 H2592 0.961 . S
C2585 H2593 0.960 . S
C2586 C2584 1.381 . S
C2586 C2587 1.394 . S
C2586 H2594 0.930 . S
C2587 C2586 1.394 . S
C2587 C2588 1.383 . S
C2587 H2595 0.929 . S
C2588 C2587 1.383 . S
C2588 C2589 1.377 . S
C2589 H2573 0.930 . S
C2589 C2588 1.377 . S
C2589 C2590 1.379 . S
C2590 H2574 0.931 . S
C2590 C2584 1.383 . S
C2590 C2589 1.379 . S
H2591 C2585 0.959 . S
H2592 C2585 0.961 . S
H2593 C2585 0.960 . S
H2594 C2586 0.930 . S
H2595 C2587 0.929 . S
H2596 C2604 0.929 . S
H2597 C2606 0.930 . S
H2598 C2608 0.930 . S
H2599 C2611 0.929 . S
H2600 C2614 0.930 . S
H2601 C2616 0.960 . S
H2602 C2616 0.960 . S
H2603 C2616 0.960 . S
C2604 H2596 0.929 . S
C2604 C2605 1.377 . S
C2604 C2606 1.384 . S
C2605 C2604 1.377 . S
C2605 C2611 1.390 . S
C2606 H2597 0.930 . S
C2606 C2604 1.384 . S
C2606 C2607 1.372 . S
C2607 C2606 1.372 . S
C2607 C2608 1.400 . S
C2607 C2612 1.490 . S
C2608 H2598 0.930 . S
C2608 C2607 1.400 . S
C2608 C2611 1.386 . S
H2609 C2625 0.930 . S
H2610 C2626 0.931 . S
C2611 H2599 0.929 . S
C2611 C2605 1.390 . S
C2611 C2608 1.386 . S
C2612 C2607 1.490 . S
C2612 C2614 1.395 . S
C2612 C2615 1.403 . S
H2613 C2619 0.930 . S
C2614 H2600 0.930 . S
C2614 C2612 1.395 . S
C2614 C2617 1.403 . S
C2615 C2612 1.403 . S
C2615 C2616 1.524 . S
C2615 C2619 1.400 . S
C2616 H2601 0.960 . S
C2616 H2602 0.960 . S
C2616 H2603 0.960 . S
C2616 C2615 1.524 . S
C2617 C2614 1.403 . S
C2617 C2618 1.392 . S
C2617 C2621 1.495 . S
C2618 C2617 1.392 . S
C2618 C2619 1.385 . S
C2618 C2620 1.478 . S
C2619 H2613 0.930 . S
C2619 C2615 1.400 . S
C2619 C2618 1.385 . S
C2620 C2618 1.478 . S
C2620 C2622 1.381 . S
C2620 C2626 1.383 . S
C2621 C2617 1.495 . S
C2621 H2627 0.959 . S
C2621 H2628 0.961 . S
C2621 H2629 0.960 . S
C2622 C2620 1.381 . S
C2622 C2623 1.394 . S
C2622 H2630 0.930 . S
C2623 C2622 1.394 . S
C2623 C2624 1.383 . S
C2623 H2631 0.929 . S
C2624 C2623 1.383 . S
C2624 C2625 1.377 . S
C2625 H2609 0.930 . S
C2625 C2624 1.377 . S
C2625 C2626 1.379 . S
C2626 H2610 0.931 . S
C2626 C2620 1.383 . S
C2626 C2625 1.379 . S
H2627 C2621 0.959 . S
H2628 C2621 0.961 . S
H2629 C2621 0.960 . S
H2630 C2622 0.930 . S
H2631 C2623 0.929 . S
H2632 C2640 0.929 . S
H2633 C2642 0.930 . S
H2634 C2644 0.930 . S
H2635 C2647 0.929 . S
H2636 C2650 0.930 . S
H2637 C2652 0.960 . S
H2638 C2652 0.960 . S
H2639 C2652 0.960 . S
C2640 H2632 0.929 . S
C2640 C2641 1.377 . S
C2640 C2642 1.384 . S
C2641 C2640 1.377 . S
C2641 C2647 1.390 . S
C2642 H2633 0.930 . S
C2642 C2640 1.384 . S
C2642 C2643 1.372 . S
C2643 C2642 1.372 . S
C2643 C2644 1.400 . S
C2643 C2648 1.490 . S
C2644 H2634 0.930 . S
C2644 C2643 1.400 . S
C2644 C2647 1.386 . S
H2645 C2661 0.930 . S
H2646 C2662 0.931 . S
C2647 H2635 0.929 . S
C2647 C2641 1.390 . S
C2647 C2644 1.386 . S
C2648 C2643 1.490 . S
C2648 C2650 1.395 . S
C2648 C2651 1.403 . S
H2649 C2655 0.930 . S
C2650 H2636 0.930 . S
C2650 C2648 1.395 . S
C2650 C2653 1.403 . S
C2651 C2648 1.403 . S
C2651 C2652 1.524 . S
C2651 C2655 1.400 . S
C2652 H2637 0.960 . S
C2652 H2638 0.960 . S
C2652 H2639 0.960 . S
C2652 C2651 1.524 . S
C2653 C2650 1.403 . S
C2653 C2654 1.392 . S
C2653 C2657 1.495 . S
C2654 C2653 1.392 . S
C2654 C2655 1.385 . S
C2654 C2656 1.478 . S
C2655 H2649 0.930 . S
C2655 C2651 1.400 . S
C2655 C2654 1.385 . S
C2656 C2654 1.478 . S
C2656 C2658 1.381 . S
C2656 C2662 1.383 . S
C2657 C2653 1.495 . S
C2657 H2663 0.959 . S
C2657 H2664 0.961 . S
C2657 H2665 0.960 . S
C2658 C2656 1.381 . S
C2658 C2659 1.394 . S
C2658 H2666 0.930 . S
C2659 C2658 1.394 . S
C2659 C2660 1.383 . S
C2659 H2667 0.929 . S
C2660 C2659 1.383 . S
C2660 C2661 1.377 . S
C2661 H2645 0.930 . S
C2661 C2660 1.377 . S
C2661 C2662 1.379 . S
C2662 H2646 0.931 . S
C2662 C2656 1.383 . S
C2662 C2661 1.379 . S
H2663 C2657 0.959 . S
H2664 C2657 0.961 . S
H2665 C2657 0.960 . S
H2666 C2658 0.930 . S
H2667 C2659 0.929 . S
H2668 C2676 0.929 . S
H2669 C2678 0.930 . S
H2670 C2680 0.930 . S
H2671 C2683 0.929 . S
H2672 C2686 0.930 . S
H2673 C2688 0.960 . S
H2674 C2688 0.960 . S
H2675 C2688 0.960 . S
C2676 H2668 0.929 . S
C2676 C2677 1.377 . S
C2676 C2678 1.384 . S
C2677 C2676 1.377 . S
C2677 C2683 1.390 . S
C2678 H2669 0.930 . S
C2678 C2676 1.384 . S
C2678 C2679 1.372 . S
C2679 C2678 1.372 . S
C2679 C2680 1.400 . S
C2679 C2684 1.490 . S
C2680 H2670 0.930 . S
C2680 C2679 1.400 . S
C2680 C2683 1.386 . S
H2681 C2697 0.930 . S
H2682 C2698 0.931 . S
C2683 H2671 0.929 . S
C2683 C2677 1.390 . S
C2683 C2680 1.386 . S
C2684 C2679 1.490 . S
C2684 C2686 1.395 . S
C2684 C2687 1.403 . S
H2685 C2691 0.930 . S
C2686 H2672 0.930 . S
C2686 C2684 1.395 . S
C2686 C2689 1.403 . S
C2687 C2684 1.403 . S
C2687 C2688 1.524 . S
C2687 C2691 1.400 . S
C2688 H2673 0.960 . S
C2688 H2674 0.960 . S
C2688 H2675 0.960 . S
C2688 C2687 1.524 . S
C2689 C2686 1.403 . S
C2689 C2690 1.392 . S
C2689 C2693 1.495 . S
C2690 C2689 1.392 . S
C2690 C2691 1.385 . S
C2690 C2692 1.478 . S
C2691 H2685 0.930 . S
C2691 C2687 1.400 . S
C2691 C2690 1.385 . S
C2692 C2690 1.478 . S
C2692 C2694 1.381 . S
C2692 C2698 1.383 . S
C2693 C2689 1.495 . S
C2693 H2699 0.959 . S
C2693 H2700 0.961 . S
C2693 H2701 0.960 . S
C2694 C2692 1.381 . S
C2694 C2695 1.394 . S
C2694 H2702 0.930 . S
C2695 C2694 1.394 . S
C2695 C2696 1.383 . S
C2695 H2703 0.929 . S
C2696 C2695 1.383 . S
C2696 C2697 1.377 . S
C2697 H2681 0.930 . S
C2697 C2696 1.377 . S
C2697 C2698 1.379 . S
C2698 H2682 0.931 . S
C2698 C2692 1.383 . S
C2698 C2697 1.379 . S
H2699 C2693 0.959 . S
H2700 C2693 0.961 . S
H2701 C2693 0.960 . S
H2702 C2694 0.930 . S
H2703 C2695 0.929 . S
H2704 C2712 0.929 . S
H2705 C2714 0.930 . S
H2706 C2716 0.930 . S
H2707 C2719 0.929 . S
H2708 C2722 0.930 . S
H2709 C2724 0.960 . S
H2710 C2724 0.960 . S
H2711 C2724 0.960 . S
C2712 H2704 0.929 . S
C2712 C2713 1.377 . S
C2712 C2714 1.384 . S
C2713 C2712 1.377 . S
C2713 C2719 1.390 . S
C2714 H2705 0.930 . S
C2714 C2712 1.384 . S
C2714 C2715 1.372 . S
C2715 C2714 1.372 . S
C2715 C2716 1.400 . S
C2715 C2720 1.490 . S
C2716 H2706 0.930 . S
C2716 C2715 1.400 . S
C2716 C2719 1.386 . S
H2717 C2733 0.930 . S
H2718 C2734 0.931 . S
C2719 H2707 0.929 . S
C2719 C2713 1.390 . S
C2719 C2716 1.386 . S
C2720 C2715 1.490 . S
C2720 C2722 1.395 . S
C2720 C2723 1.403 . S
H2721 C2727 0.930 . S
C2722 H2708 0.930 . S
C2722 C2720 1.395 . S
C2722 C2725 1.403 . S
C2723 C2720 1.403 . S
C2723 C2724 1.524 . S
C2723 C2727 1.400 . S
C2724 H2709 0.960 . S
C2724 H2710 0.960 . S
C2724 H2711 0.960 . S
C2724 C2723 1.524 . S
C2725 C2722 1.403 . S
C2725 C2726 1.392 . S
C2725 C2729 1.495 . S
C2726 C2725 1.392 . S
C2726 C2727 1.385 . S
C2726 C2728 1.478 . S
C2727 H2721 0.930 . S
C2727 C2723 1.400 . S
C2727 C2726 1.385 . S
C2728 C2726 1.478 . S
C2728 C2730 1.381 . S
C2728 C2734 1.383 . S
C2729 C2725 1.495 . S
C2729 H2735 0.959 . S
C2729 H2736 0.961 . S
C2729 H2737 0.960 . S
C2730 C2728 1.381 . S
C2730 C2731 1.394 . S
C2730 H2738 0.930 . S
C2731 C2730 1.394 . S
C2731 C2732 1.383 . S
C2731 H2739 0.929 . S
C2732 C2731 1.383 . S
C2732 C2733 1.377 . S
C2733 H2717 0.930 . S
C2733 C2732 1.377 . S
C2733 C2734 1.379 . S
C2734 H2718 0.931 . S
C2734 C2728 1.383 . S
C2734 C2733 1.379 . S
H2735 C2729 0.959 . S
H2736 C2729 0.961 . S
H2737 C2729 0.960 . S
H2738 C2730 0.930 . S
H2739 C2731 0.929 . S
H2740 C2748 0.929 . S
H2741 C2750 0.930 . S
H2742 C2752 0.930 . S
H2743 C2755 0.929 . S
H2744 C2758 0.930 . S
H2745 C2760 0.960 . S
H2746 C2760 0.960 . S
H2747 C2760 0.960 . S
C2748 H2740 0.929 . S
C2748 C2749 1.377 . S
C2748 C2750 1.384 . S
C2749 C2748 1.377 . S
C2749 C2755 1.390 . S
C2750 H2741 0.930 . S
C2750 C2748 1.384 . S
C2750 C2751 1.372 . S
C2751 C2750 1.372 . S
C2751 C2752 1.400 . S
C2751 C2756 1.490 . S
C2752 H2742 0.930 . S
C2752 C2751 1.400 . S
C2752 C2755 1.386 . S
H2753 C2769 0.930 . S
H2754 C2770 0.931 . S
C2755 H2743 0.929 . S
C2755 C2749 1.390 . S
C2755 C2752 1.386 . S
C2756 C2751 1.490 . S
C2756 C2758 1.395 . S
C2756 C2759 1.403 . S
H2757 C2763 0.930 . S
C2758 H2744 0.930 . S
C2758 C2756 1.395 . S
C2758 C2761 1.403 . S
C2759 C2756 1.403 . S
C2759 C2760 1.524 . S
C2759 C2763 1.400 . S
C2760 H2745 0.960 . S
C2760 H2746 0.960 . S
C2760 H2747 0.960 . S
C2760 C2759 1.524 . S
C2761 C2758 1.403 . S
C2761 C2762 1.392 . S
C2761 C2765 1.495 . S
C2762 C2761 1.392 . S
C2762 C2763 1.385 . S
C2762 C2764 1.478 . S
C2763 H2757 0.930 . S
C2763 C2759 1.400 . S
C2763 C2762 1.385 . S
C2764 C2762 1.478 . S
C2764 C2766 1.381 . S
C2764 C2770 1.383 . S
C2765 C2761 1.495 . S
C2765 H2771 0.959 . S
C2765 H2772 0.961 . S
C2765 H2773 0.960 . S
C2766 C2764 1.381 . S
C2766 C2767 1.394 . S
C2766 H2774 0.930 . S
C2767 C2766 1.394 . S
C2767 C2768 1.383 . S
C2767 H2775 0.929 . S
C2768 C2767 1.383 . S
C2768 C2769 1.377 . S
C2769 H2753 0.930 . S
C2769 C2768 1.377 . S
C2769 C2770 1.379 . S
C2770 H2754 0.931 . S
C2770 C2764 1.383 . S
C2770 C2769 1.379 . S
H2771 C2765 0.959 . S
H2772 C2765 0.961 . S
H2773 C2765 0.960 . S
H2774 C2766 0.930 . S
H2775 C2767 0.929 . S
H2776 C2784 0.929 . S
H2777 C2786 0.930 . S
H2778 C2788 0.930 . S
H2779 C2791 0.929 . S
H2780 C2794 0.930 . S
H2781 C2796 0.960 . S
H2782 C2796 0.960 . S
H2783 C2796 0.960 . S
C2784 H2776 0.929 . S
C2784 C2785 1.377 . S
C2784 C2786 1.384 . S
C2785 C2784 1.377 . S
C2785 C2791 1.390 . S
C2786 H2777 0.930 . S
C2786 C2784 1.384 . S
C2786 C2787 1.372 . S
C2787 C2786 1.372 . S
C2787 C2788 1.400 . S
C2787 C2792 1.490 . S
C2788 H2778 0.930 . S
C2788 C2787 1.400 . S
C2788 C2791 1.386 . S
H2789 C2805 0.930 . S
H2790 C2806 0.931 . S
C2791 H2779 0.929 . S
C2791 C2785 1.390 . S
C2791 C2788 1.386 . S
C2792 C2787 1.490 . S
C2792 C2794 1.395 . S
C2792 C2795 1.403 . S
H2793 C2799 0.930 . S
C2794 H2780 0.930 . S
C2794 C2792 1.395 . S
C2794 C2797 1.403 . S
C2795 C2792 1.403 . S
C2795 C2796 1.524 . S
C2795 C2799 1.400 . S
C2796 H2781 0.960 . S
C2796 H2782 0.960 . S
C2796 H2783 0.960 . S
C2796 C2795 1.524 . S
C2797 C2794 1.403 . S
C2797 C2798 1.392 . S
C2797 C2801 1.495 . S
C2798 C2797 1.392 . S
C2798 C2799 1.385 . S
C2798 C2800 1.478 . S
C2799 H2793 0.930 . S
C2799 C2795 1.400 . S
C2799 C2798 1.385 . S
C2800 C2798 1.478 . S
C2800 C2802 1.381 . S
C2800 C2806 1.383 . S
C2801 C2797 1.495 . S
C2801 H2807 0.959 . S
C2801 H2808 0.961 . S
C2801 H2809 0.960 . S
C2802 C2800 1.381 . S
C2802 C2803 1.394 . S
C2802 H2810 0.930 . S
C2803 C2802 1.394 . S
C2803 C2804 1.383 . S
C2803 H2811 0.929 . S
C2804 C2803 1.383 . S
C2804 C2805 1.377 . S
C2805 H2789 0.930 . S
C2805 C2804 1.377 . S
C2805 C2806 1.379 . S
C2806 H2790 0.931 . S
C2806 C2800 1.383 . S
C2806 C2805 1.379 . S
H2807 C2801 0.959 . S
H2808 C2801 0.961 . S
H2809 C2801 0.960 . S
H2810 C2802 0.930 . S
H2811 C2803 0.929 . S
H2812 C2820 0.929 . S
H2813 C2822 0.930 . S
H2814 C2824 0.930 . S
H2815 C2827 0.929 . S
H2816 C2830 0.930 . S
H2817 C2832 0.960 . S
H2818 C2832 0.960 . S
H2819 C2832 0.960 . S
C2820 H2812 0.929 . S
C2820 C2821 1.377 . S
C2820 C2822 1.384 . S
C2821 C2820 1.377 . S
C2821 C2827 1.390 . S
C2822 H2813 0.930 . S
C2822 C2820 1.384 . S
C2822 C2823 1.372 . S
C2823 C2822 1.372 . S
C2823 C2824 1.400 . S
C2823 C2828 1.490 . S
C2824 H2814 0.930 . S
C2824 C2823 1.400 . S
C2824 C2827 1.386 . S
H2825 C2841 0.930 . S
H2826 C2842 0.931 . S
C2827 H2815 0.929 . S
C2827 C2821 1.390 . S
C2827 C2824 1.386 . S
C2828 C2823 1.490 . S
C2828 C2830 1.395 . S
C2828 C2831 1.403 . S
H2829 C2835 0.930 . S
C2830 H2816 0.930 . S
C2830 C2828 1.395 . S
C2830 C2833 1.403 . S
C2831 C2828 1.403 . S
C2831 C2832 1.524 . S
C2831 C2835 1.400 . S
C2832 H2817 0.960 . S
C2832 H2818 0.960 . S
C2832 H2819 0.960 . S
C2832 C2831 1.524 . S
C2833 C2830 1.403 . S
C2833 C2834 1.392 . S
C2833 C2837 1.495 . S
C2834 C2833 1.392 . S
C2834 C2835 1.385 . S
C2834 C2836 1.478 . S
C2835 H2829 0.930 . S
C2835 C2831 1.400 . S
C2835 C2834 1.385 . S
C2836 C2834 1.478 . S
C2836 C2838 1.381 . S
C2836 C2842 1.383 . S
C2837 C2833 1.495 . S
C2837 H2843 0.959 . S
C2837 H2844 0.961 . S
C2837 H2845 0.960 . S
C2838 C2836 1.381 . S
C2838 C2839 1.394 . S
C2838 H2846 0.930 . S
C2839 C2838 1.394 . S
C2839 C2840 1.383 . S
C2839 H2847 0.929 . S
C2840 C2839 1.383 . S
C2840 C2841 1.377 . S
C2841 H2825 0.930 . S
C2841 C2840 1.377 . S
C2841 C2842 1.379 . S
C2842 H2826 0.931 . S
C2842 C2836 1.383 . S
C2842 C2841 1.379 . S
H2843 C2837 0.959 . S
H2844 C2837 0.961 . S
H2845 C2837 0.960 . S
H2846 C2838 0.930 . S
H2847 C2839 0.929 . S
H2848 C2856 0.929 . S
H2849 C2858 0.930 . S
H2850 C2860 0.930 . S
H2851 C2863 0.929 . S
H2852 C2866 0.930 . S
H2853 C2868 0.960 . S
H2854 C2868 0.960 . S
H2855 C2868 0.960 . S
C2856 H2848 0.929 . S
C2856 C2857 1.377 . S
C2856 C2858 1.384 . S
C2857 C2856 1.377 . S
C2857 C2863 1.390 . S
C2858 H2849 0.930 . S
C2858 C2856 1.384 . S
C2858 C2859 1.372 . S
C2859 C2858 1.372 . S
C2859 C2860 1.400 . S
C2859 C2864 1.490 . S
C2860 H2850 0.930 . S
C2860 C2859 1.400 . S
C2860 C2863 1.386 . S
H2861 C2877 0.930 . S
H2862 C2878 0.931 . S
C2863 H2851 0.929 . S
C2863 C2857 1.390 . S
C2863 C2860 1.386 . S
C2864 C2859 1.490 . S
C2864 C2866 1.395 . S
C2864 C2867 1.403 . S
H2865 C2871 0.930 . S
C2866 H2852 0.930 . S
C2866 C2864 1.395 . S
C2866 C2869 1.403 . S
C2867 C2864 1.403 . S
C2867 C2868 1.524 . S
C2867 C2871 1.400 . S
C2868 H2853 0.960 . S
C2868 H2854 0.960 . S
C2868 H2855 0.960 . S
C2868 C2867 1.524 . S
C2869 C2866 1.403 . S
C2869 C2870 1.392 . S
C2869 C2873 1.495 . S
C2870 C2869 1.392 . S
C2870 C2871 1.385 . S
C2870 C2872 1.478 . S
C2871 H2865 0.930 . S
C2871 C2867 1.400 . S
C2871 C2870 1.385 . S
C2872 C2870 1.478 . S
C2872 C2874 1.381 . S
C2872 C2878 1.383 . S
C2873 C2869 1.495 . S
C2873 H2879 0.959 . S
C2873 H2880 0.961 . S
C2873 H2881 0.960 . S
C2874 C2872 1.381 . S
C2874 C2875 1.394 . S
C2874 H2882 0.930 . S
C2875 C2874 1.394 . S
C2875 C2876 1.383 . S
C2875 H2883 0.929 . S
C2876 C2875 1.383 . S
C2876 C2877 1.377 . S
C2877 H2861 0.930 . S
C2877 C2876 1.377 . S
C2877 C2878 1.379 . S
C2878 H2862 0.931 . S
C2878 C2872 1.383 . S
C2878 C2877 1.379 . S
H2879 C2873 0.959 . S
H2880 C2873 0.961 . S
H2881 C2873 0.960 . S
H2882 C2874 0.930 . S
H2883 C2875 0.929 . S
H2884 C2892 0.929 . S
H2885 C2894 0.930 . S
H2886 C2896 0.930 . S
H2887 C2899 0.929 . S
H2888 C2902 0.930 . S
H2889 C2904 0.960 . S
H2890 C2904 0.960 . S
H2891 C2904 0.960 . S
C2892 H2884 0.929 . S
C2892 C2893 1.377 . S
C2892 C2894 1.384 . S
C2893 C2892 1.377 . S
C2893 C2899 1.390 . S
C2894 H2885 0.930 . S
C2894 C2892 1.384 . S
C2894 C2895 1.372 . S
C2895 C2894 1.372 . S
C2895 C2896 1.400 . S
C2895 C2900 1.490 . S
C2896 H2886 0.930 . S
C2896 C2895 1.400 . S
C2896 C2899 1.386 . S
H2897 C2913 0.930 . S
H2898 C2914 0.931 . S
C2899 H2887 0.929 . S
C2899 C2893 1.390 . S
C2899 C2896 1.386 . S
C2900 C2895 1.490 . S
C2900 C2902 1.395 . S
C2900 C2903 1.403 . S
H2901 C2907 0.930 . S
C2902 H2888 0.930 . S
C2902 C2900 1.395 . S
C2902 C2905 1.403 . S
C2903 C2900 1.403 . S
C2903 C2904 1.524 . S
C2903 C2907 1.400 . S
C2904 H2889 0.960 . S
C2904 H2890 0.960 . S
C2904 H2891 0.960 . S
C2904 C2903 1.524 . S
C2905 C2902 1.403 . S
C2905 C2906 1.392 . S
C2905 C2909 1.495 . S
C2906 C2905 1.392 . S
C2906 C2907 1.385 . S
C2906 C2908 1.478 . S
C2907 H2901 0.930 . S
C2907 C2903 1.400 . S
C2907 C2906 1.385 . S
C2908 C2906 1.478 . S
C2908 C2910 1.381 . S
C2908 C2914 1.383 . S
C2909 C2905 1.495 . S
C2909 H2915 0.959 . S
C2909 H2916 0.961 . S
C2909 H2917 0.960 . S
C2910 C2908 1.381 . S
C2910 C2911 1.394 . S
C2910 H2918 0.930 . S
C2911 C2910 1.394 . S
C2911 C2912 1.383 . S
C2911 H2919 0.929 . S
C2912 C2911 1.383 . S
C2912 C2913 1.377 . S
C2913 H2897 0.930 . S
C2913 C2912 1.377 . S
C2913 C2914 1.379 . S
C2914 H2898 0.931 . S
C2914 C2908 1.383 . S
C2914 C2913 1.379 . S
H2915 C2909 0.959 . S
H2916 C2909 0.961 . S
H2917 C2909 0.960 . S
H2918 C2910 0.930 . S
H2919 C2911 0.929 . S
H2920 C2928 0.929 . S
H2921 C2930 0.930 . S
H2922 C2932 0.930 . S
H2923 C2935 0.929 . S
H2924 C2938 0.930 . S
H2925 C2940 0.960 . S
H2926 C2940 0.960 . S
H2927 C2940 0.960 . S
C2928 H2920 0.929 . S
C2928 C2929 1.377 . S
C2928 C2930 1.384 . S
C2929 C2928 1.377 . S
C2929 C2935 1.390 . S
C2930 H2921 0.930 . S
C2930 C2928 1.384 . S
C2930 C2931 1.372 . S
C2931 C2930 1.372 . S
C2931 C2932 1.400 . S
C2931 C2936 1.490 . S
C2932 H2922 0.930 . S
C2932 C2931 1.400 . S
C2932 C2935 1.386 . S
H2933 C2949 0.930 . S
H2934 C2950 0.931 . S
C2935 H2923 0.929 . S
C2935 C2929 1.390 . S
C2935 C2932 1.386 . S
C2936 C2931 1.490 . S
C2936 C2938 1.395 . S
C2936 C2939 1.403 . S
H2937 C2943 0.930 . S
C2938 H2924 0.930 . S
C2938 C2936 1.395 . S
C2938 C2941 1.403 . S
C2939 C2936 1.403 . S
C2939 C2940 1.524 . S
C2939 C2943 1.400 . S
C2940 H2925 0.960 . S
C2940 H2926 0.960 . S
C2940 H2927 0.960 . S
C2940 C2939 1.524 . S
C2941 C2938 1.403 . S
C2941 C2942 1.392 . S
C2941 C2945 1.495 . S
C2942 C2941 1.392 . S
C2942 C2943 1.385 . S
C2942 C2944 1.478 . S
C2943 H2937 0.930 . S
C2943 C2939 1.400 . S
C2943 C2942 1.385 . S
C2944 C2942 1.478 . S
C2944 C2946 1.381 . S
C2944 C2950 1.383 . S
C2945 C2941 1.495 . S
C2945 H2951 0.959 . S
C2945 H2952 0.961 . S
C2945 H2953 0.960 . S
C2946 C2944 1.381 . S
C2946 C2947 1.394 . S
C2946 H2954 0.930 . S
C2947 C2946 1.394 . S
C2947 C2948 1.383 . S
C2947 H2955 0.929 . S
C2948 C2947 1.383 . S
C2948 C2949 1.377 . S
C2949 H2933 0.930 . S
C2949 C2948 1.377 . S
C2949 C2950 1.379 . S
C2950 H2934 0.931 . S
C2950 C2944 1.383 . S
C2950 C2949 1.379 . S
H2951 C2945 0.959 . S
H2952 C2945 0.961 . S
H2953 C2945 0.960 . S
H2954 C2946 0.930 . S
H2955 C2947 0.929 . S
H2956 C2964 0.929 . S
H2957 C2966 0.930 . S
H2958 C2968 0.930 . S
H2959 C2971 0.929 . S
H2960 C2974 0.930 . S
H2961 C2976 0.960 . S
H2962 C2976 0.960 . S
H2963 C2976 0.960 . S
C2964 H2956 0.929 . S
C2964 C2965 1.377 . S
C2964 C2966 1.384 . S
C2965 C2964 1.377 . S
C2965 C2971 1.390 . S
C2966 H2957 0.930 . S
C2966 C2964 1.384 . S
C2966 C2967 1.372 . S
C2967 C2966 1.372 . S
C2967 C2968 1.400 . S
C2967 C2972 1.490 . S
C2968 H2958 0.930 . S
C2968 C2967 1.400 . S
C2968 C2971 1.386 . S
H2969 C2985 0.930 . S
H2970 C2986 0.931 . S
C2971 H2959 0.929 . S
C2971 C2965 1.390 . S
C2971 C2968 1.386 . S
C2972 C2967 1.490 . S
C2972 C2974 1.395 . S
C2972 C2975 1.403 . S
H2973 C2979 0.930 . S
C2974 H2960 0.930 . S
C2974 C2972 1.395 . S
C2974 C2977 1.403 . S
C2975 C2972 1.403 . S
C2975 C2976 1.524 . S
C2975 C2979 1.400 . S
C2976 H2961 0.960 . S
C2976 H2962 0.960 . S
C2976 H2963 0.960 . S
C2976 C2975 1.524 . S
C2977 C2974 1.403 . S
C2977 C2978 1.392 . S
C2977 C2981 1.495 . S
C2978 C2977 1.392 . S
C2978 C2979 1.385 . S
C2978 C2980 1.478 . S
C2979 H2973 0.930 . S
C2979 C2975 1.400 . S
C2979 C2978 1.385 . S
C2980 C2978 1.478 . S
C2980 C2982 1.381 . S
C2980 C2986 1.383 . S
C2981 C2977 1.495 . S
C2981 H2987 0.959 . S
C2981 H2988 0.961 . S
C2981 H2989 0.960 . S
C2982 C2980 1.381 . S
C2982 C2983 1.394 . S
C2982 H2990 0.930 . S
C2983 C2982 1.394 . S
C2983 C2984 1.383 . S
C2983 H2991 0.929 . S
C2984 C2983 1.383 . S
C2984 C2985 1.377 . S
C2985 H2969 0.930 . S
C2985 C2984 1.377 . S
C2985 C2986 1.379 . S
C2986 H2970 0.931 . S
C2986 C2980 1.383 . S
C2986 C2985 1.379 . S
H2987 C2981 0.959 . S
H2988 C2981 0.961 . S
H2989 C2981 0.960 . S
H2990 C2982 0.930 . S
H2991 C2983 0.929 . S
H2992 C3000 0.929 . S
H2993 C3002 0.930 . S
H2994 C3004 0.930 . S
H2995 C3007 0.929 . S
H2996 C3010 0.930 . S
H2997 C3012 0.960 . S
H2998 C3012 0.960 . S
H2999 C3012 0.960 . S
C3000 H2992 0.929 . S
C3000 C3001 1.377 . S
C3000 C3002 1.384 . S
C3001 C3000 1.377 . S
C3001 C3007 1.390 . S
C3002 H2993 0.930 . S
C3002 C3000 1.384 . S
C3002 C3003 1.372 . S
C3003 C3002 1.372 . S
C3003 C3004 1.400 . S
C3003 C3008 1.490 . S
C3004 H2994 0.930 . S
C3004 C3003 1.400 . S
C3004 C3007 1.386 . S
H3005 C3021 0.930 . S
H3006 C3022 0.931 . S
C3007 H2995 0.929 . S
C3007 C3001 1.390 . S
C3007 C3004 1.386 . S
C3008 C3003 1.490 . S
C3008 C3010 1.395 . S
C3008 C3011 1.403 . S
H3009 C3015 0.930 . S
C3010 H2996 0.930 . S
C3010 C3008 1.395 . S
C3010 C3013 1.403 . S
C3011 C3008 1.403 . S
C3011 C3012 1.524 . S
C3011 C3015 1.400 . S
C3012 H2997 0.960 . S
C3012 H2998 0.960 . S
C3012 H2999 0.960 . S
C3012 C3011 1.524 . S
C3013 C3010 1.403 . S
C3013 C3014 1.392 . S
C3013 C3017 1.495 . S
C3014 C3013 1.392 . S
C3014 C3015 1.385 . S
C3014 C3016 1.478 . S
C3015 H3009 0.930 . S
C3015 C3011 1.400 . S
C3015 C3014 1.385 . S
C3016 C3014 1.478 . S
C3016 C3018 1.381 . S
C3016 C3022 1.383 . S
C3017 C3013 1.495 . S
C3017 H3023 0.959 . S
C3017 H3024 0.961 . S
C3017 H3025 0.960 . S
C3018 C3016 1.381 . S
C3018 C3019 1.394 . S
C3018 H3026 0.930 . S
C3019 C3018 1.394 . S
C3019 C3020 1.383 . S
C3019 H3027 0.929 . S
C3020 C3019 1.383 . S
C3020 C3021 1.377 . S
C3021 H3005 0.930 . S
C3021 C3020 1.377 . S
C3021 C3022 1.379 . S
C3022 H3006 0.931 . S
C3022 C3016 1.383 . S
C3022 C3021 1.379 . S
H3023 C3017 0.959 . S
H3024 C3017 0.961 . S
H3025 C3017 0.960 . S
H3026 C3018 0.930 . S
H3027 C3019 0.929 . S
H3028 C3036 0.929 . S
H3029 C3038 0.930 . S
H3030 C3040 0.930 . S
H3031 C3043 0.929 . S
H3032 C3046 0.930 . S
H3033 C3048 0.960 . S
H3034 C3048 0.960 . S
H3035 C3048 0.960 . S
C3036 H3028 0.929 . S
C3036 C3037 1.377 . S
C3036 C3038 1.384 . S
C3037 C3036 1.377 . S
C3037 C3043 1.390 . S
C3038 H3029 0.930 . S
C3038 C3036 1.384 . S
C3038 C3039 1.372 . S
C3039 C3038 1.372 . S
C3039 C3040 1.400 . S
C3039 C3044 1.490 . S
C3040 H3030 0.930 . S
C3040 C3039 1.400 . S
C3040 C3043 1.386 . S
H3041 C3057 0.930 . S
H3042 C3058 0.931 . S
C3043 H3031 0.929 . S
C3043 C3037 1.390 . S
C3043 C3040 1.386 . S
C3044 C3039 1.490 . S
C3044 C3046 1.395 . S
C3044 C3047 1.403 . S
H3045 C3051 0.930 . S
C3046 H3032 0.930 . S
C3046 C3044 1.395 . S
C3046 C3049 1.403 . S
C3047 C3044 1.403 . S
C3047 C3048 1.524 . S
C3047 C3051 1.400 . S
C3048 H3033 0.960 . S
C3048 H3034 0.960 . S
C3048 H3035 0.960 . S
C3048 C3047 1.524 . S
C3049 C3046 1.403 . S
C3049 C3050 1.392 . S
C3049 C3053 1.495 . S
C3050 C3049 1.392 . S
C3050 C3051 1.385 . S
C3050 C3052 1.478 . S
C3051 H3045 0.930 . S
C3051 C3047 1.400 . S
C3051 C3050 1.385 . S
C3052 C3050 1.478 . S
C3052 C3054 1.381 . S
C3052 C3058 1.383 . S
C3053 C3049 1.495 . S
C3053 H3059 0.959 . S
C3053 H3060 0.961 . S
C3053 H3061 0.960 . S
C3054 C3052 1.381 . S
C3054 C3055 1.394 . S
C3054 H3062 0.930 . S
C3055 C3054 1.394 . S
C3055 C3056 1.383 . S
C3055 H3063 0.929 . S
C3056 C3055 1.383 . S
C3056 C3057 1.377 . S
C3057 H3041 0.930 . S
C3057 C3056 1.377 . S
C3057 C3058 1.379 . S
C3058 H3042 0.931 . S
C3058 C3052 1.383 . S
C3058 C3057 1.379 . S
H3059 C3053 0.959 . S
H3060 C3053 0.961 . S
H3061 C3053 0.960 . S
H3062 C3054 0.930 . S
H3063 C3055 0.929 . S
H3064 C3072 0.929 . S
H3065 C3074 0.930 . S
H3066 C3076 0.930 . S
H3067 C3079 0.929 . S
H3068 C3082 0.930 . S
H3069 C3084 0.960 . S
H3070 C3084 0.960 . S
H3071 C3084 0.960 . S
C3072 H3064 0.929 . S
C3072 C3073 1.377 . S
C3072 C3074 1.384 . S
C3073 C3072 1.377 . S
C3073 C3079 1.390 . S
C3074 H3065 0.930 . S
C3074 C3072 1.384 . S
C3074 C3075 1.372 . S
C3075 C3074 1.372 . S
C3075 C3076 1.400 . S
C3075 C3080 1.490 . S
C3076 H3066 0.930 . S
C3076 C3075 1.400 . S
C3076 C3079 1.386 . S
H3077 C3093 0.930 . S
H3078 C3094 0.931 . S
C3079 H3067 0.929 . S
C3079 C3073 1.390 . S
C3079 C3076 1.386 . S
C3080 C3075 1.490 . S
C3080 C3082 1.395 . S
C3080 C3083 1.403 . S
H3081 C3087 0.930 . S
C3082 H3068 0.930 . S
C3082 C3080 1.395 . S
C3082 C3085 1.403 . S
C3083 C3080 1.403 . S
C3083 C3084 1.524 . S
C3083 C3087 1.400 . S
C3084 H3069 0.960 . S
C3084 H3070 0.960 . S
C3084 H3071 0.960 . S
C3084 C3083 1.524 . S
C3085 C3082 1.403 . S
C3085 C3086 1.392 . S
C3085 C3089 1.495 . S
C3086 C3085 1.392 . S
C3086 C3087 1.385 . S
C3086 C3088 1.478 . S
C3087 H3081 0.930 . S
C3087 C3083 1.400 . S
C3087 C3086 1.385 . S
C3088 C3086 1.478 . S
C3088 C3090 1.381 . S
C3088 C3094 1.383 . S
C3089 C3085 1.495 . S
C3089 H3095 0.959 . S
C3089 H3096 0.961 . S
C3089 H3097 0.960 . S
C3090 C3088 1.381 . S
C3090 C3091 1.394 . S
C3090 H3098 0.930 . S
C3091 C3090 1.394 . S
C3091 C3092 1.383 . S
C3091 H3099 0.929 . S
C3092 C3091 1.383 . S
C3092 C3093 1.377 . S
C3093 H3077 0.930 . S
C3093 C3092 1.377 . S
C3093 C3094 1.379 . S
C3094 H3078 0.931 . S
C3094 C3088 1.383 . S
C3094 C3093 1.379 . S
H3095 C3089 0.959 . S
H3096 C3089 0.961 . S
H3097 C3089 0.960 . S
H3098 C3090 0.930 . S
H3099 C3091 0.929 . S
H3100 C3108 0.929 . S
H3101 C3110 0.930 . S
H3102 C3112 0.930 . S
H3103 C3115 0.929 . S
H3104 C3118 0.930 . S
H3105 C3120 0.960 . S
H3106 C3120 0.960 . S
H3107 C3120 0.960 . S
C3108 H3100 0.929 . S
C3108 C3109 1.377 . S
C3108 C3110 1.384 . S
C3109 C3108 1.377 . S
C3109 C3115 1.390 . S
C3110 H3101 0.930 . S
C3110 C3108 1.384 . S
C3110 C3111 1.372 . S
C3111 C3110 1.372 . S
C3111 C3112 1.400 . S
C3111 C3116 1.490 . S
C3112 H3102 0.930 . S
C3112 C3111 1.400 . S
C3112 C3115 1.386 . S
H3113 C3129 0.930 . S
H3114 C3130 0.931 . S
C3115 H3103 0.929 . S
C3115 C3109 1.390 . S
C3115 C3112 1.386 . S
C3116 C3111 1.490 . S
C3116 C3118 1.395 . S
C3116 C3119 1.403 . S
H3117 C3123 0.930 . S
C3118 H3104 0.930 . S
C3118 C3116 1.395 . S
C3118 C3121 1.403 . S
C3119 C3116 1.403 . S
C3119 C3120 1.524 . S
C3119 C3123 1.400 . S
C3120 H3105 0.960 . S
C3120 H3106 0.960 . S
C3120 H3107 0.960 . S
C3120 C3119 1.524 . S
C3121 C3118 1.403 . S
C3121 C3122 1.392 . S
C3121 C3125 1.495 . S
C3122 C3121 1.392 . S
C3122 C3123 1.385 . S
C3122 C3124 1.478 . S
C3123 H3117 0.930 . S
C3123 C3119 1.400 . S
C3123 C3122 1.385 . S
C3124 C3122 1.478 . S
C3124 C3126 1.381 . S
C3124 C3130 1.383 . S
C3125 C3121 1.495 . S
C3125 H3131 0.959 . S
C3125 H3132 0.961 . S
C3125 H3133 0.960 . S
C3126 C3124 1.381 . S
C3126 C3127 1.394 . S
C3126 H3134 0.930 . S
C3127 C3126 1.394 . S
C3127 C3128 1.383 . S
C3127 H3135 0.929 . S
C3128 C3127 1.383 . S
C3128 C3129 1.377 . S
C3129 H3113 0.930 . S
C3129 C3128 1.377 . S
C3129 C3130 1.379 . S
C3130 H3114 0.931 . S
C3130 C3124 1.383 . S
C3130 C3129 1.379 . S
H3131 C3125 0.959 . S
H3132 C3125 0.961 . S
H3133 C3125 0.960 . S
H3134 C3126 0.930 . S
H3135 C3127 0.929 . S
H3136 C3144 0.929 . S
H3137 C3146 0.930 . S
H3138 C3148 0.930 . S
H3139 C3151 0.929 . S
H3140 C3154 0.930 . S
H3141 C3156 0.960 . S
H3142 C3156 0.960 . S
H3143 C3156 0.960 . S
C3144 H3136 0.929 . S
C3144 C3145 1.377 . S
C3144 C3146 1.384 . S
C3145 C3144 1.377 . S
C3145 C3151 1.390 . S
C3146 H3137 0.930 . S
C3146 C3144 1.384 . S
C3146 C3147 1.372 . S
C3147 C3146 1.372 . S
C3147 C3148 1.400 . S
C3147 C3152 1.490 . S
C3148 H3138 0.930 . S
C3148 C3147 1.400 . S
C3148 C3151 1.386 . S
H3149 C3165 0.930 . S
H3150 C3166 0.931 . S
C3151 H3139 0.929 . S
C3151 C3145 1.390 . S
C3151 C3148 1.386 . S
C3152 C3147 1.490 . S
C3152 C3154 1.395 . S
C3152 C3155 1.403 . S
H3153 C3159 0.930 . S
C3154 H3140 0.930 . S
C3154 C3152 1.395 . S
C3154 C3157 1.403 . S
C3155 C3152 1.403 . S
C3155 C3156 1.524 . S
C3155 C3159 1.400 . S
C3156 H3141 0.960 . S
C3156 H3142 0.960 . S
C3156 H3143 0.960 . S
C3156 C3155 1.524 . S
C3157 C3154 1.403 . S
C3157 C3158 1.392 . S
C3157 C3161 1.495 . S
C3158 C3157 1.392 . S
C3158 C3159 1.385 . S
C3158 C3160 1.478 . S
C3159 H3153 0.930 . S
C3159 C3155 1.400 . S
C3159 C3158 1.385 . S
C3160 C3158 1.478 . S
C3160 C3162 1.381 . S
C3160 C3166 1.383 . S
C3161 C3157 1.495 . S
C3161 H3167 0.959 . S
C3161 H3168 0.961 . S
C3161 H3169 0.960 . S
C3162 C3160 1.381 . S
C3162 C3163 1.394 . S
C3162 H3170 0.930 . S
C3163 C3162 1.394 . S
C3163 C3164 1.383 . S
C3163 H3171 0.929 . S
C3164 C3163 1.383 . S
C3164 C3165 1.377 . S
C3165 H3149 0.930 . S
C3165 C3164 1.377 . S
C3165 C3166 1.379 . S
C3166 H3150 0.931 . S
C3166 C3160 1.383 . S
C3166 C3165 1.379 . S
H3167 C3161 0.959 . S
H3168 C3161 0.961 . S
H3169 C3161 0.960 . S
H3170 C3162 0.930 . S
H3171 C3163 0.929 . S
H3172 C3180 0.929 . S
H3173 C3182 0.930 . S
H3174 C3184 0.930 . S
H3175 C3187 0.929 . S
H3176 C3190 0.930 . S
H3177 C3192 0.960 . S
H3178 C3192 0.960 . S
H3179 C3192 0.960 . S
C3180 H3172 0.929 . S
C3180 C3181 1.377 . S
C3180 C3182 1.384 . S
C3181 C3180 1.377 . S
C3181 C3187 1.390 . S
C3182 H3173 0.930 . S
C3182 C3180 1.384 . S
C3182 C3183 1.372 . S
C3183 C3182 1.372 . S
C3183 C3184 1.400 . S
C3183 C3188 1.490 . S
C3184 H3174 0.930 . S
C3184 C3183 1.400 . S
C3184 C3187 1.386 . S
H3185 C3201 0.930 . S
H3186 C3202 0.931 . S
C3187 H3175 0.929 . S
C3187 C3181 1.390 . S
C3187 C3184 1.386 . S
C3188 C3183 1.490 . S
C3188 C3190 1.395 . S
C3188 C3191 1.403 . S
H3189 C3195 0.930 . S
C3190 H3176 0.930 . S
C3190 C3188 1.395 . S
C3190 C3193 1.403 . S
C3191 C3188 1.403 . S
C3191 C3192 1.524 . S
C3191 C3195 1.400 . S
C3192 H3177 0.960 . S
C3192 H3178 0.960 . S
C3192 H3179 0.960 . S
C3192 C3191 1.524 . S
C3193 C3190 1.403 . S
C3193 C3194 1.392 . S
C3193 C3197 1.495 . S
C3194 C3193 1.392 . S
C3194 C3195 1.385 . S
C3194 C3196 1.478 . S
C3195 H3189 0.930 . S
C3195 C3191 1.400 . S
C3195 C3194 1.385 . S
C3196 C3194 1.478 . S
C3196 C3198 1.381 . S
C3196 C3202 1.383 . S
C3197 C3193 1.495 . S
C3197 H3203 0.959 . S
C3197 H3204 0.961 . S
C3197 H3205 0.960 . S
C3198 C3196 1.381 . S
C3198 C3199 1.394 . S
C3198 H3206 0.930 . S
C3199 C3198 1.394 . S
C3199 C3200 1.383 . S
C3199 H3207 0.929 . S
C3200 C3199 1.383 . S
C3200 C3201 1.377 . S
C3201 H3185 0.930 . S
C3201 C3200 1.377 . S
C3201 C3202 1.379 . S
C3202 H3186 0.931 . S
C3202 C3196 1.383 . S
C3202 C3201 1.379 . S
H3203 C3197 0.959 . S
H3204 C3197 0.961 . S
H3205 C3197 0.960 . S
H3206 C3198 0.930 . S
H3207 C3199 0.929 . S
H3208 C3216 0.929 . S
H3209 C3218 0.930 . S
H3210 C3220 0.930 . S
H3211 C3223 0.929 . S
H3212 C3226 0.930 . S
H3213 C3228 0.960 . S
H3214 C3228 0.960 . S
H3215 C3228 0.960 . S
C3216 H3208 0.929 . S
C3216 C3217 1.377 . S
C3216 C3218 1.384 . S
C3217 C3216 1.377 . S
C3217 C3223 1.390 . S
C3218 H3209 0.930 . S
C3218 C3216 1.384 . S
C3218 C3219 1.372 . S
C3219 C3218 1.372 . S
C3219 C3220 1.400 . S
C3219 C3224 1.490 . S
C3220 H3210 0.930 . S
C3220 C3219 1.400 . S
C3220 C3223 1.386 . S
H3221 C3237 0.930 . S
H3222 C3238 0.931 . S
C3223 H3211 0.929 . S
C3223 C3217 1.390 . S
C3223 C3220 1.386 . S
C3224 C3219 1.490 . S
C3224 C3226 1.395 . S
C3224 C3227 1.403 . S
H3225 C3231 0.930 . S
C3226 H3212 0.930 . S
C3226 C3224 1.395 . S
C3226 C3229 1.403 . S
C3227 C3224 1.403 . S
C3227 C3228 1.524 . S
C3227 C3231 1.400 . S
C3228 H3213 0.960 . S
C3228 H3214 0.960 . S
C3228 H3215 0.960 . S
C3228 C3227 1.524 . S
C3229 C3226 1.403 . S
C3229 C3230 1.392 . S
C3229 C3233 1.495 . S
C3230 C3229 1.392 . S
C3230 C3231 1.385 . S
C3230 C3232 1.478 . S
C3231 H3225 0.930 . S
C3231 C3227 1.400 . S
C3231 C3230 1.385 . S
C3232 C3230 1.478 . S
C3232 C3234 1.381 . S
C3232 C3238 1.383 . S
C3233 C3229 1.495 . S
C3233 H3239 0.959 . S
C3233 H3240 0.961 . S
C3233 H3241 0.960 . S
C3234 C3232 1.381 . S
C3234 C3235 1.394 . S
C3234 H3242 0.930 . S
C3235 C3234 1.394 . S
C3235 C3236 1.383 . S
C3235 H3243 0.929 . S
C3236 C3235 1.383 . S
C3236 C3237 1.377 . S
C3237 H3221 0.930 . S
C3237 C3236 1.377 . S
C3237 C3238 1.379 . S
C3238 H3222 0.931 . S
C3238 C3232 1.383 . S
C3238 C3237 1.379 . S
H3239 C3233 0.959 . S
H3240 C3233 0.961 . S
H3241 C3233 0.960 . S
H3242 C3234 0.930 . S
H3243 C3235 0.929 . S
H3244 C3252 0.929 . S
H3245 C3254 0.930 . S
H3246 C3256 0.930 . S
H3247 C3259 0.929 . S
H3248 C3262 0.930 . S
H3249 C3264 0.960 . S
H3250 C3264 0.960 . S
H3251 C3264 0.960 . S
C3252 H3244 0.929 . S
C3252 C3253 1.377 . S
C3252 C3254 1.384 . S
C3253 C3252 1.377 . S
C3253 C3259 1.390 . S
C3254 H3245 0.930 . S
C3254 C3252 1.384 . S
C3254 C3255 1.372 . S
C3255 C3254 1.372 . S
C3255 C3256 1.400 . S
C3255 C3260 1.490 . S
C3256 H3246 0.930 . S
C3256 C3255 1.400 . S
C3256 C3259 1.386 . S
H3257 C3273 0.930 . S
H3258 C3274 0.931 . S
C3259 H3247 0.929 . S
C3259 C3253 1.390 . S
C3259 C3256 1.386 . S
C3260 C3255 1.490 . S
C3260 C3262 1.395 . S
C3260 C3263 1.403 . S
H3261 C3267 0.930 . S
C3262 H3248 0.930 . S
C3262 C3260 1.395 . S
C3262 C3265 1.403 . S
C3263 C3260 1.403 . S
C3263 C3264 1.524 . S
C3263 C3267 1.400 . S
C3264 H3249 0.960 . S
C3264 H3250 0.960 . S
C3264 H3251 0.960 . S
C3264 C3263 1.524 . S
C3265 C3262 1.403 . S
C3265 C3266 1.392 . S
C3265 C3269 1.495 . S
C3266 C3265 1.392 . S
C3266 C3267 1.385 . S
C3266 C3268 1.478 . S
C3267 H3261 0.930 . S
C3267 C3263 1.400 . S
C3267 C3266 1.385 . S
C3268 C3266 1.478 . S
C3268 C3270 1.381 . S
C3268 C3274 1.383 . S
C3269 C3265 1.495 . S
C3269 H3275 0.959 . S
C3269 H3276 0.961 . S
C3269 H3277 0.960 . S
C3270 C3268 1.381 . S
C3270 C3271 1.394 . S
C3270 H3278 0.930 . S
C3271 C3270 1.394 . S
C3271 C3272 1.383 . S
C3271 H3279 0.929 . S
C3272 C3271 1.383 . S
C3272 C3273 1.377 . S
C3273 H3257 0.930 . S
C3273 C3272 1.377 . S
C3273 C3274 1.379 . S
C3274 H3258 0.931 . S
C3274 C3268 1.383 . S
C3274 C3273 1.379 . S
H3275 C3269 0.959 . S
H3276 C3269 0.961 . S
H3277 C3269 0.960 . S
H3278 C3270 0.930 . S
H3279 C3271 0.929 . S
H3280 C3288 0.929 . S
H3281 C3290 0.930 . S
H3282 C3292 0.930 . S
H3283 C3295 0.929 . S
H3284 C3298 0.930 . S
H3285 C3300 0.960 . S
H3286 C3300 0.960 . S
H3287 C3300 0.960 . S
C3288 H3280 0.929 . S
C3288 C3289 1.377 . S
C3288 C3290 1.384 . S
C3289 C3288 1.377 . S
C3289 C3295 1.390 . S
C3290 H3281 0.930 . S
C3290 C3288 1.384 . S
C3290 C3291 1.372 . S
C3291 C3290 1.372 . S
C3291 C3292 1.400 . S
C3291 C3296 1.490 . S
C3292 H3282 0.930 . S
C3292 C3291 1.400 . S
C3292 C3295 1.386 . S
H3293 C3309 0.930 . S
H3294 C3310 0.931 . S
C3295 H3283 0.929 . S
C3295 C3289 1.390 . S
C3295 C3292 1.386 . S
C3296 C3291 1.490 . S
C3296 C3298 1.395 . S
C3296 C3299 1.403 . S
H3297 C3303 0.930 . S
C3298 H3284 0.930 . S
C3298 C3296 1.395 . S
C3298 C3301 1.403 . S
C3299 C3296 1.403 . S
C3299 C3300 1.524 . S
C3299 C3303 1.400 . S
C3300 H3285 0.960 . S
C3300 H3286 0.960 . S
C3300 H3287 0.960 . S
C3300 C3299 1.524 . S
C3301 C3298 1.403 . S
C3301 C3302 1.392 . S
C3301 C3305 1.495 . S
C3302 C3301 1.392 . S
C3302 C3303 1.385 . S
C3302 C3304 1.478 . S
C3303 H3297 0.930 . S
C3303 C3299 1.400 . S
C3303 C3302 1.385 . S
C3304 C3302 1.478 . S
C3304 C3306 1.381 . S
C3304 C3310 1.383 . S
C3305 C3301 1.495 . S
C3305 H3311 0.959 . S
C3305 H3312 0.961 . S
C3305 H3313 0.960 . S
C3306 C3304 1.381 . S
C3306 C3307 1.394 . S
C3306 H3314 0.930 . S
C3307 C3306 1.394 . S
C3307 C3308 1.383 . S
C3307 H3315 0.929 . S
C3308 C3307 1.383 . S
C3308 C3309 1.377 . S
C3309 H3293 0.930 . S
C3309 C3308 1.377 . S
C3309 C3310 1.379 . S
C3310 H3294 0.931 . S
C3310 C3304 1.383 . S
C3310 C3309 1.379 . S
H3311 C3305 0.959 . S
H3312 C3305 0.961 . S
H3313 C3305 0.960 . S
H3314 C3306 0.930 . S
H3315 C3307 0.929 . S
H3316 C3324 0.929 . S
H3317 C3326 0.930 . S
H3318 C3328 0.930 . S
H3319 C3331 0.929 . S
H3320 C3334 0.930 . S
H3321 C3336 0.960 . S
H3322 C3336 0.960 . S
H3323 C3336 0.960 . S
C3324 H3316 0.929 . S
C3324 C3325 1.377 . S
C3324 C3326 1.384 . S
C3325 C3324 1.377 . S
C3325 C3331 1.390 . S
C3326 H3317 0.930 . S
C3326 C3324 1.384 . S
C3326 C3327 1.372 . S
C3327 C3326 1.372 . S
C3327 C3328 1.400 . S
C3327 C3332 1.490 . S
C3328 H3318 0.930 . S
C3328 C3327 1.400 . S
C3328 C3331 1.386 . S
H3329 C3345 0.930 . S
H3330 C3346 0.931 . S
C3331 H3319 0.929 . S
C3331 C3325 1.390 . S
C3331 C3328 1.386 . S
C3332 C3327 1.490 . S
C3332 C3334 1.395 . S
C3332 C3335 1.403 . S
H3333 C3339 0.930 . S
C3334 H3320 0.930 . S
C3334 C3332 1.395 . S
C3334 C3337 1.403 . S
C3335 C3332 1.403 . S
C3335 C3336 1.524 . S
C3335 C3339 1.400 . S
C3336 H3321 0.960 . S
C3336 H3322 0.960 . S
C3336 H3323 0.960 . S
C3336 C3335 1.524 . S
C3337 C3334 1.403 . S
C3337 C3338 1.392 . S
C3337 C3341 1.495 . S
C3338 C3337 1.392 . S
C3338 C3339 1.385 . S
C3338 C3340 1.478 . S
C3339 H3333 0.930 . S
C3339 C3335 1.400 . S
C3339 C3338 1.385 . S
C3340 C3338 1.478 . S
C3340 C3342 1.381 . S
C3340 C3346 1.383 . S
C3341 C3337 1.495 . S
C3341 H3347 0.959 . S
C3341 H3348 0.961 . S
C3341 H3349 0.960 . S
C3342 C3340 1.381 . S
C3342 C3343 1.394 . S
C3342 H3350 0.930 . S
C3343 C3342 1.394 . S
C3343 C3344 1.383 . S
C3343 H3351 0.929 . S
C3344 C3343 1.383 . S
C3344 C3345 1.377 . S
C3345 H3329 0.930 . S
C3345 C3344 1.377 . S
C3345 C3346 1.379 . S
C3346 H3330 0.931 . S
C3346 C3340 1.383 . S
C3346 C3345 1.379 . S
H3347 C3341 0.959 . S
H3348 C3341 0.961 . S
H3349 C3341 0.960 . S
H3350 C3342 0.930 . S
H3351 C3343 0.929 . S
H3352 C3360 0.929 . S
H3353 C3362 0.930 . S
H3354 C3364 0.930 . S
H3355 C3367 0.929 . S
H3356 C3370 0.930 . S
H3357 C3372 0.960 . S
H3358 C3372 0.960 . S
H3359 C3372 0.960 . S
C3360 H3352 0.929 . S
C3360 C3361 1.377 . S
C3360 C3362 1.384 . S
C3361 C3360 1.377 . S
C3361 C3367 1.390 . S
C3362 H3353 0.930 . S
C3362 C3360 1.384 . S
C3362 C3363 1.372 . S
C3363 C3362 1.372 . S
C3363 C3364 1.400 . S
C3363 C3368 1.490 . S
C3364 H3354 0.930 . S
C3364 C3363 1.400 . S
C3364 C3367 1.386 . S
H3365 C3381 0.930 . S
H3366 C3382 0.931 . S
C3367 H3355 0.929 . S
C3367 C3361 1.390 . S
C3367 C3364 1.386 . S
C3368 C3363 1.490 . S
C3368 C3370 1.395 . S
C3368 C3371 1.403 . S
H3369 C3375 0.930 . S
C3370 H3356 0.930 . S
C3370 C3368 1.395 . S
C3370 C3373 1.403 . S
C3371 C3368 1.403 . S
C3371 C3372 1.524 . S
C3371 C3375 1.400 . S
C3372 H3357 0.960 . S
C3372 H3358 0.960 . S
C3372 H3359 0.960 . S
C3372 C3371 1.524 . S
C3373 C3370 1.403 . S
C3373 C3374 1.392 . S
C3373 C3377 1.495 . S
C3374 C3373 1.392 . S
C3374 C3375 1.385 . S
C3374 C3376 1.478 . S
C3375 H3369 0.930 . S
C3375 C3371 1.400 . S
C3375 C3374 1.385 . S
C3376 C3374 1.478 . S
C3376 C3378 1.381 . S
C3376 C3382 1.383 . S
C3377 C3373 1.495 . S
C3377 H3383 0.959 . S
C3377 H3384 0.961 . S
C3377 H3385 0.960 . S
C3378 C3376 1.381 . S
C3378 C3379 1.394 . S
C3378 H3386 0.930 . S
C3379 C3378 1.394 . S
C3379 C3380 1.383 . S
C3379 H3387 0.929 . S
C3380 C3379 1.383 . S
C3380 C3381 1.377 . S
C3381 H3365 0.930 . S
C3381 C3380 1.377 . S
C3381 C3382 1.379 . S
C3382 H3366 0.931 . S
C3382 C3376 1.383 . S
C3382 C3381 1.379 . S
H3383 C3377 0.959 . S
H3384 C3377 0.961 . S
H3385 C3377 0.960 . S
H3386 C3378 0.930 . S
H3387 C3379 0.929 . S
H3388 C3396 0.929 . S
H3389 C3398 0.930 . S
H3390 C3400 0.930 . S
H3391 C3403 0.929 . S
H3392 C3406 0.930 . S
H3393 C3408 0.960 . S
H3394 C3408 0.960 . S
H3395 C3408 0.960 . S
C3396 H3388 0.929 . S
C3396 C3397 1.377 . S
C3396 C3398 1.384 . S
C3397 C3396 1.377 . S
C3397 C3403 1.390 . S
C3398 H3389 0.930 . S
C3398 C3396 1.384 . S
C3398 C3399 1.372 . S
C3399 C3398 1.372 . S
C3399 C3400 1.400 . S
C3399 C3404 1.490 . S
C3400 H3390 0.930 . S
C3400 C3399 1.400 . S
C3400 C3403 1.386 . S
H3401 C3417 0.930 . S
H3402 C3418 0.931 . S
C3403 H3391 0.929 . S
C3403 C3397 1.390 . S
C3403 C3400 1.386 . S
C3404 C3399 1.490 . S
C3404 C3406 1.395 . S
C3404 C3407 1.403 . S
H3405 C3411 0.930 . S
C3406 H3392 0.930 . S
C3406 C3404 1.395 . S
C3406 C3409 1.403 . S
C3407 C3404 1.403 . S
C3407 C3408 1.524 . S
C3407 C3411 1.400 . S
C3408 H3393 0.960 . S
C3408 H3394 0.960 . S
C3408 H3395 0.960 . S
C3408 C3407 1.524 . S
C3409 C3406 1.403 . S
C3409 C3410 1.392 . S
C3409 C3413 1.495 . S
C3410 C3409 1.392 . S
C3410 C3411 1.385 . S
C3410 C3412 1.478 . S
C3411 H3405 0.930 . S
C3411 C3407 1.400 . S
C3411 C3410 1.385 . S
C3412 C3410 1.478 . S
C3412 C3414 1.381 . S
C3412 C3418 1.383 . S
C3413 C3409 1.495 . S
C3413 H3419 0.959 . S
C3413 H3420 0.961 . S
C3413 H3421 0.960 . S
C3414 C3412 1.381 . S
C3414 C3415 1.394 . S
C3414 H3422 0.930 . S
C3415 C3414 1.394 . S
C3415 C3416 1.383 . S
C3415 H3423 0.929 . S
C3416 C3415 1.383 . S
C3416 C3417 1.377 . S
C3417 H3401 0.930 . S
C3417 C3416 1.377 . S
C3417 C3418 1.379 . S
C3418 H3402 0.931 . S
C3418 C3412 1.383 . S
C3418 C3417 1.379 . S
H3419 C3413 0.959 . S
H3420 C3413 0.961 . S
H3421 C3413 0.960 . S
H3422 C3414 0.930 . S
H3423 C3415 0.929 . S
H3424 C3432 0.929 . S
H3425 C3434 0.930 . S
H3426 C3436 0.930 . S
H3427 C3439 0.929 . S
H3428 C3442 0.930 . S
H3429 C3444 0.960 . S
H3430 C3444 0.960 . S
H3431 C3444 0.960 . S
C3432 H3424 0.929 . S
C3432 C3433 1.377 . S
C3432 C3434 1.384 . S
C3433 C3432 1.377 . S
C3433 C3439 1.390 . S
C3434 H3425 0.930 . S
C3434 C3432 1.384 . S
C3434 C3435 1.372 . S
C3435 C3434 1.372 . S
C3435 C3436 1.400 . S
C3435 C3440 1.490 . S
C3436 H3426 0.930 . S
C3436 C3435 1.400 . S
C3436 C3439 1.386 . S
H3437 C3453 0.930 . S
H3438 C3454 0.931 . S
C3439 H3427 0.929 . S
C3439 C3433 1.390 . S
C3439 C3436 1.386 . S
C3440 C3435 1.490 . S
C3440 C3442 1.395 . S
C3440 C3443 1.403 . S
H3441 C3447 0.930 . S
C3442 H3428 0.930 . S
C3442 C3440 1.395 . S
C3442 C3445 1.403 . S
C3443 C3440 1.403 . S
C3443 C3444 1.524 . S
C3443 C3447 1.400 . S
C3444 H3429 0.960 . S
C3444 H3430 0.960 . S
C3444 H3431 0.960 . S
C3444 C3443 1.524 . S
C3445 C3442 1.403 . S
C3445 C3446 1.392 . S
C3445 C3449 1.495 . S
C3446 C3445 1.392 . S
C3446 C3447 1.385 . S
C3446 C3448 1.478 . S
C3447 H3441 0.930 . S
C3447 C3443 1.400 . S
C3447 C3446 1.385 . S
C3448 C3446 1.478 . S
C3448 C3450 1.381 . S
C3448 C3454 1.383 . S
C3449 C3445 1.495 . S
C3449 H3455 0.959 . S
C3449 H3456 0.961 . S
C3449 H3457 0.960 . S
C3450 C3448 1.381 . S
C3450 C3451 1.394 . S
C3450 H3458 0.930 . S
C3451 C3450 1.394 . S
C3451 C3452 1.383 . S
C3451 H3459 0.929 . S
C3452 C3451 1.383 . S
C3452 C3453 1.377 . S
C3453 H3437 0.930 . S
C3453 C3452 1.377 . S
C3453 C3454 1.379 . S
C3454 H3438 0.931 . S
C3454 C3448 1.383 . S
C3454 C3453 1.379 . S
H3455 C3449 0.959 . S
H3456 C3449 0.961 . S
H3457 C3449 0.960 . S
H3458 C3450 0.930 . S
H3459 C3451 0.929 . S
H3460 C3468 0.929 . S
H3461 C3470 0.930 . S
H3462 C3472 0.930 . S
H3463 C3475 0.929 . S
H3464 C3478 0.930 . S
H3465 C3480 0.960 . S
H3466 C3480 0.960 . S
H3467 C3480 0.960 . S
C3468 H3460 0.929 . S
C3468 C3469 1.377 . S
C3468 C3470 1.384 . S
C3469 C3468 1.377 . S
C3469 C3475 1.390 . S
C3470 H3461 0.930 . S
C3470 C3468 1.384 . S
C3470 C3471 1.372 . S
C3471 C3470 1.372 . S
C3471 C3472 1.400 . S
C3471 C3476 1.490 . S
C3472 H3462 0.930 . S
C3472 C3471 1.400 . S
C3472 C3475 1.386 . S
H3473 C3489 0.930 . S
H3474 C3490 0.931 . S
C3475 H3463 0.929 . S
C3475 C3469 1.390 . S
C3475 C3472 1.386 . S
C3476 C3471 1.490 . S
C3476 C3478 1.395 . S
C3476 C3479 1.403 . S
H3477 C3483 0.930 . S
C3478 H3464 0.930 . S
C3478 C3476 1.395 . S
C3478 C3481 1.403 . S
C3479 C3476 1.403 . S
C3479 C3480 1.524 . S
C3479 C3483 1.400 . S
C3480 H3465 0.960 . S
C3480 H3466 0.960 . S
C3480 H3467 0.960 . S
C3480 C3479 1.524 . S
C3481 C3478 1.403 . S
C3481 C3482 1.392 . S
C3481 C3485 1.495 . S
C3482 C3481 1.392 . S
C3482 C3483 1.385 . S
C3482 C3484 1.478 . S
C3483 H3477 0.930 . S
C3483 C3479 1.400 . S
C3483 C3482 1.385 . S
C3484 C3482 1.478 . S
C3484 C3486 1.381 . S
C3484 C3490 1.383 . S
C3485 C3481 1.495 . S
C3485 H3491 0.959 . S
C3485 H3492 0.961 . S
C3485 H3493 0.960 . S
C3486 C3484 1.381 . S
C3486 C3487 1.394 . S
C3486 H3494 0.930 . S
C3487 C3486 1.394 . S
C3487 C3488 1.383 . S
C3487 H3495 0.929 . S
C3488 C3487 1.383 . S
C3488 C3489 1.377 . S
C3489 H3473 0.930 . S
C3489 C3488 1.377 . S
C3489 C3490 1.379 . S
C3490 H3474 0.931 . S
C3490 C3484 1.383 . S
C3490 C3489 1.379 . S
H3491 C3485 0.959 . S
H3492 C3485 0.961 . S
H3493 C3485 0.960 . S
H3494 C3486 0.930 . S
H3495 C3487 0.929 . S
H3496 C3504 0.929 . S
H3497 C3506 0.930 . S
H3498 C3508 0.930 . S
H3499 C3511 0.929 . S
H3500 C3514 0.930 . S
H3501 C3516 0.960 . S
H3502 C3516 0.960 . S
H3503 C3516 0.960 . S
C3504 H3496 0.929 . S
C3504 C3505 1.377 . S
C3504 C3506 1.384 . S
C3505 C3504 1.377 . S
C3505 C3511 1.390 . S
C3506 H3497 0.930 . S
C3506 C3504 1.384 . S
C3506 C3507 1.372 . S
C3507 C3506 1.372 . S
C3507 C3508 1.400 . S
C3507 C3512 1.490 . S
C3508 H3498 0.930 . S
C3508 C3507 1.400 . S
C3508 C3511 1.386 . S
H3509 C3525 0.930 . S
H3510 C3526 0.931 . S
C3511 H3499 0.929 . S
C3511 C3505 1.390 . S
C3511 C3508 1.386 . S
C3512 C3507 1.490 . S
C3512 C3514 1.395 . S
C3512 C3515 1.403 . S
H3513 C3519 0.930 . S
C3514 H3500 0.930 . S
C3514 C3512 1.395 . S
C3514 C3517 1.403 . S
C3515 C3512 1.403 . S
C3515 C3516 1.524 . S
C3515 C3519 1.400 . S
C3516 H3501 0.960 . S
C3516 H3502 0.960 . S
C3516 H3503 0.960 . S
C3516 C3515 1.524 . S
C3517 C3514 1.403 . S
C3517 C3518 1.392 . S
C3517 C3521 1.495 . S
C3518 C3517 1.392 . S
C3518 C3519 1.385 . S
C3518 C3520 1.478 . S
C3519 H3513 0.930 . S
C3519 C3515 1.400 . S
C3519 C3518 1.385 . S
C3520 C3518 1.478 . S
C3520 C3522 1.381 . S
C3520 C3526 1.383 . S
C3521 C3517 1.495 . S
C3521 H3527 0.959 . S
C3521 H3528 0.961 . S
C3521 H3529 0.960 . S
C3522 C3520 1.381 . S
C3522 C3523 1.394 . S
C3522 H3530 0.930 . S
C3523 C3522 1.394 . S
C3523 C3524 1.383 . S
C3523 H3531 0.929 . S
C3524 C3523 1.383 . S
C3524 C3525 1.377 . S
C3525 H3509 0.930 . S
C3525 C3524 1.377 . S
C3525 C3526 1.379 . S
C3526 H3510 0.931 . S
C3526 C3520 1.383 . S
C3526 C3525 1.379 . S
H3527 C3521 0.959 . S
H3528 C3521 0.961 . S
H3529 C3521 0.960 . S
H3530 C3522 0.930 . S
H3531 C3523 0.929 . S
H3532 C3540 0.929 . S
H3533 C3542 0.930 . S
H3534 C3544 0.930 . S
H3535 C3547 0.929 . S
H3536 C3550 0.930 . S
H3537 C3552 0.960 . S
H3538 C3552 0.960 . S
H3539 C3552 0.960 . S
C3540 H3532 0.929 . S
C3540 C3541 1.377 . S
C3540 C3542 1.384 . S
C3541 C3540 1.377 . S
C3541 C3547 1.390 . S
C3542 H3533 0.930 . S
C3542 C3540 1.384 . S
C3542 C3543 1.372 . S
C3543 C3542 1.372 . S
C3543 C3544 1.400 . S
C3543 C3548 1.490 . S
C3544 H3534 0.930 . S
C3544 C3543 1.400 . S
C3544 C3547 1.386 . S
H3545 C3561 0.930 . S
H3546 C3562 0.931 . S
C3547 H3535 0.929 . S
C3547 C3541 1.390 . S
C3547 C3544 1.386 . S
C3548 C3543 1.490 . S
C3548 C3550 1.395 . S
C3548 C3551 1.403 . S
H3549 C3555 0.930 . S
C3550 H3536 0.930 . S
C3550 C3548 1.395 . S
C3550 C3553 1.403 . S
C3551 C3548 1.403 . S
C3551 C3552 1.524 . S
C3551 C3555 1.400 . S
C3552 H3537 0.960 . S
C3552 H3538 0.960 . S
C3552 H3539 0.960 . S
C3552 C3551 1.524 . S
C3553 C3550 1.403 . S
C3553 C3554 1.392 . S
C3553 C3557 1.495 . S
C3554 C3553 1.392 . S
C3554 C3555 1.385 . S
C3554 C3556 1.478 . S
C3555 H3549 0.930 . S
C3555 C3551 1.400 . S
C3555 C3554 1.385 . S
C3556 C3554 1.478 . S
C3556 C3558 1.381 . S
C3556 C3562 1.383 . S
C3557 C3553 1.495 . S
C3557 H3563 0.959 . S
C3557 H3564 0.961 . S
C3557 H3565 0.960 . S
C3558 C3556 1.381 . S
C3558 C3559 1.394 . S
C3558 H3566 0.930 . S
C3559 C3558 1.394 . S
C3559 C3560 1.383 . S
C3559 H3567 0.929 . S
C3560 C3559 1.383 . S
C3560 C3561 1.377 . S
C3561 H3545 0.930 . S
C3561 C3560 1.377 . S
C3561 C3562 1.379 . S
C3562 H3546 0.931 . S
C3562 C3556 1.383 . S
C3562 C3561 1.379 . S
H3563 C3557 0.959 . S
H3564 C3557 0.961 . S
H3565 C3557 0.960 . S
H3566 C3558 0.930 . S
H3567 C3559 0.929 . S
H3568 C3576 0.929 . S
H3569 C3578 0.930 . S
H3570 C3580 0.930 . S
H3571 C3583 0.929 . S
H3572 C3586 0.930 . S
H3573 C3588 0.960 . S
H3574 C3588 0.960 . S
H3575 C3588 0.960 . S
C3576 H3568 0.929 . S
C3576 C3577 1.377 . S
C3576 C3578 1.384 . S
C3577 C3576 1.377 . S
C3577 C3583 1.390 . S
C3578 H3569 0.930 . S
C3578 C3576 1.384 . S
C3578 C3579 1.372 . S
C3579 C3578 1.372 . S
C3579 C3580 1.400 . S
C3579 C3584 1.490 . S
C3580 H3570 0.930 . S
C3580 C3579 1.400 . S
C3580 C3583 1.386 . S
H3581 C3597 0.930 . S
H3582 C3598 0.931 . S
C3583 H3571 0.929 . S
C3583 C3577 1.390 . S
C3583 C3580 1.386 . S
C3584 C3579 1.490 . S
C3584 C3586 1.395 . S
C3584 C3587 1.403 . S
H3585 C3591 0.930 . S
C3586 H3572 0.930 . S
C3586 C3584 1.395 . S
C3586 C3589 1.403 . S
C3587 C3584 1.403 . S
C3587 C3588 1.524 . S
C3587 C3591 1.400 . S
C3588 H3573 0.960 . S
C3588 H3574 0.960 . S
C3588 H3575 0.960 . S
C3588 C3587 1.524 . S
C3589 C3586 1.403 . S
C3589 C3590 1.392 . S
C3589 C3593 1.495 . S
C3590 C3589 1.392 . S
C3590 C3591 1.385 . S
C3590 C3592 1.478 . S
C3591 H3585 0.930 . S
C3591 C3587 1.400 . S
C3591 C3590 1.385 . S
C3592 C3590 1.478 . S
C3592 C3594 1.381 . S
C3592 C3598 1.383 . S
C3593 C3589 1.495 . S
C3593 H3599 0.959 . S
C3593 H3600 0.961 . S
C3593 H3601 0.960 . S
C3594 C3592 1.381 . S
C3594 C3595 1.394 . S
C3594 H3602 0.930 . S
C3595 C3594 1.394 . S
C3595 C3596 1.383 . S
C3595 H3603 0.929 . S
C3596 C3595 1.383 . S
C3596 C3597 1.377 . S
C3597 H3581 0.930 . S
C3597 C3596 1.377 . S
C3597 C3598 1.379 . S
C3598 H3582 0.931 . S
C3598 C3592 1.383 . S
C3598 C3597 1.379 . S
H3599 C3593 0.959 . S
H3600 C3593 0.961 . S
H3601 C3593 0.960 . S
H3602 C3594 0.930 . S
H3603 C3595 0.929 . S
H3604 C3612 0.929 . S
H3605 C3614 0.930 . S
H3606 C3616 0.930 . S
H3607 C3619 0.929 . S
H3608 C3622 0.930 . S
H3609 C3624 0.960 . S
H3610 C3624 0.960 . S
H3611 C3624 0.960 . S
C3612 H3604 0.929 . S
C3612 C3613 1.377 . S
C3612 C3614 1.384 . S
C3613 C3612 1.377 . S
C3613 C3619 1.390 . S
C3614 H3605 0.930 . S
C3614 C3612 1.384 . S
C3614 C3615 1.372 . S
C3615 C3614 1.372 . S
C3615 C3616 1.400 . S
C3615 C3620 1.490 . S
C3616 H3606 0.930 . S
C3616 C3615 1.400 . S
C3616 C3619 1.386 . S
H3617 C3633 0.930 . S
H3618 C3634 0.931 . S
C3619 H3607 0.929 . S
C3619 C3613 1.390 . S
C3619 C3616 1.386 . S
C3620 C3615 1.490 . S
C3620 C3622 1.395 . S
C3620 C3623 1.403 . S
H3621 C3627 0.930 . S
C3622 H3608 0.930 . S
C3622 C3620 1.395 . S
C3622 C3625 1.403 . S
C3623 C3620 1.403 . S
C3623 C3624 1.524 . S
C3623 C3627 1.400 . S
C3624 H3609 0.960 . S
C3624 H3610 0.960 . S
C3624 H3611 0.960 . S
C3624 C3623 1.524 . S
C3625 C3622 1.403 . S
C3625 C3626 1.392 . S
C3625 C3629 1.495 . S
C3626 C3625 1.392 . S
C3626 C3627 1.385 . S
C3626 C3628 1.478 . S
C3627 H3621 0.930 . S
C3627 C3623 1.400 . S
C3627 C3626 1.385 . S
C3628 C3626 1.478 . S
C3628 C3630 1.381 . S
C3628 C3634 1.383 . S
C3629 C3625 1.495 . S
C3629 H3635 0.959 . S
C3629 H3636 0.961 . S
C3629 H3637 0.960 . S
C3630 C3628 1.381 . S
C3630 C3631 1.394 . S
C3630 H3638 0.930 . S
C3631 C3630 1.394 . S
C3631 C3632 1.383 . S
C3631 H3639 0.929 . S
C3632 C3631 1.383 . S
C3632 C3633 1.377 . S
C3633 H3617 0.930 . S
C3633 C3632 1.377 . S
C3633 C3634 1.379 . S
C3634 H3618 0.931 . S
C3634 C3628 1.383 . S
C3634 C3633 1.379 . S
H3635 C3629 0.959 . S
H3636 C3629 0.961 . S
H3637 C3629 0.960 . S
H3638 C3630 0.930 . S
H3639 C3631 0.929 . S
H3640 C3648 0.929 . S
H3641 C3650 0.930 . S
H3642 C3652 0.930 . S
H3643 C3655 0.929 . S
H3644 C3658 0.930 . S
H3645 C3660 0.960 . S
H3646 C3660 0.960 . S
H3647 C3660 0.960 . S
C3648 H3640 0.929 . S
C3648 C3649 1.377 . S
C3648 C3650 1.384 . S
C3649 C3648 1.377 . S
C3649 C3655 1.390 . S
C3650 H3641 0.930 . S
C3650 C3648 1.384 . S
C3650 C3651 1.372 . S
C3651 C3650 1.372 . S
C3651 C3652 1.400 . S
C3651 C3656 1.490 . S
C3652 H3642 0.930 . S
C3652 C3651 1.400 . S
C3652 C3655 1.386 . S
H3653 C3669 0.930 . S
H3654 C3670 0.931 . S
C3655 H3643 0.929 . S
C3655 C3649 1.390 . S
C3655 C3652 1.386 . S
C3656 C3651 1.490 . S
C3656 C3658 1.395 . S
C3656 C3659 1.403 . S
H3657 C3663 0.930 . S
C3658 H3644 0.930 . S
C3658 C3656 1.395 . S
C3658 C3661 1.403 . S
C3659 C3656 1.403 . S
C3659 C3660 1.524 . S
C3659 C3663 1.400 . S
C3660 H3645 0.960 . S
C3660 H3646 0.960 . S
C3660 H3647 0.960 . S
C3660 C3659 1.524 . S
C3661 C3658 1.403 . S
C3661 C3662 1.392 . S
C3661 C3665 1.495 . S
C3662 C3661 1.392 . S
C3662 C3663 1.385 . S
C3662 C3664 1.478 . S
C3663 H3657 0.930 . S
C3663 C3659 1.400 . S
C3663 C3662 1.385 . S
C3664 C3662 1.478 . S
C3664 C3666 1.381 . S
C3664 C3670 1.383 . S
C3665 C3661 1.495 . S
C3665 H3671 0.959 . S
C3665 H3672 0.961 . S
C3665 H3673 0.960 . S
C3666 C3664 1.381 . S
C3666 C3667 1.394 . S
C3666 H3674 0.930 . S
C3667 C3666 1.394 . S
C3667 C3668 1.383 . S
C3667 H3675 0.929 . S
C3668 C3667 1.383 . S
C3668 C3669 1.377 . S
C3669 H3653 0.930 . S
C3669 C3668 1.377 . S
C3669 C3670 1.379 . S
C3670 H3654 0.931 . S
C3670 C3664 1.383 . S
C3670 C3669 1.379 . S
H3671 C3665 0.959 . S
H3672 C3665 0.961 . S
H3673 C3665 0.960 . S
H3674 C3666 0.930 . S
H3675 C3667 0.929 . S
H3676 C3684 0.929 . S
H3677 C3686 0.930 . S
H3678 C3688 0.930 . S
H3679 C3691 0.929 . S
H3680 C3694 0.930 . S
H3681 C3696 0.960 . S
H3682 C3696 0.960 . S
H3683 C3696 0.960 . S
C3684 H3676 0.929 . S
C3684 C3685 1.377 . S
C3684 C3686 1.384 . S
C3685 C3684 1.377 . S
C3685 C3691 1.390 . S
C3686 H3677 0.930 . S
C3686 C3684 1.384 . S
C3686 C3687 1.372 . S
C3687 C3686 1.372 . S
C3687 C3688 1.400 . S
C3687 C3692 1.490 . S
C3688 H3678 0.930 . S
C3688 C3687 1.400 . S
C3688 C3691 1.386 . S
H3689 C3705 0.930 . S
H3690 C3706 0.931 . S
C3691 H3679 0.929 . S
C3691 C3685 1.390 . S
C3691 C3688 1.386 . S
C3692 C3687 1.490 . S
C3692 C3694 1.395 . S
C3692 C3695 1.403 . S
H3693 C3699 0.930 . S
C3694 H3680 0.930 . S
C3694 C3692 1.395 . S
C3694 C3697 1.403 . S
C3695 C3692 1.403 . S
C3695 C3696 1.524 . S
C3695 C3699 1.400 . S
C3696 H3681 0.960 . S
C3696 H3682 0.960 . S
C3696 H3683 0.960 . S
C3696 C3695 1.524 . S
C3697 C3694 1.403 . S
C3697 C3698 1.392 . S
C3697 C3701 1.495 . S
C3698 C3697 1.392 . S
C3698 C3699 1.385 . S
C3698 C3700 1.478 . S
C3699 H3693 0.930 . S
C3699 C3695 1.400 . S
C3699 C3698 1.385 . S
C3700 C3698 1.478 . S
C3700 C3702 1.381 . S
C3700 C3706 1.383 . S
C3701 C3697 1.495 . S
C3701 H3707 0.959 . S
C3701 H3708 0.961 . S
C3701 H3709 0.960 . S
C3702 C3700 1.381 . S
C3702 C3703 1.394 . S
C3702 H3710 0.930 . S
C3703 C3702 1.394 . S
C3703 C3704 1.383 . S
C3703 H3711 0.929 . S
C3704 C3703 1.383 . S
C3704 C3705 1.377 . S
C3705 H3689 0.930 . S
C3705 C3704 1.377 . S
C3705 C3706 1.379 . S
C3706 H3690 0.931 . S
C3706 C3700 1.383 . S
C3706 C3705 1.379 . S
H3707 C3701 0.959 . S
H3708 C3701 0.961 . S
H3709 C3701 0.960 . S
H3710 C3702 0.930 . S
H3711 C3703 0.929 . S
H3712 C3720 0.929 . S
H3713 C3722 0.930 . S
H3714 C3724 0.930 . S
H3715 C3727 0.929 . S
H3716 C3730 0.930 . S
H3717 C3732 0.960 . S
H3718 C3732 0.960 . S
H3719 C3732 0.960 . S
C3720 H3712 0.929 . S
C3720 C3721 1.377 . S
C3720 C3722 1.384 . S
C3721 C3720 1.377 . S
C3721 C3727 1.390 . S
C3722 H3713 0.930 . S
C3722 C3720 1.384 . S
C3722 C3723 1.372 . S
C3723 C3722 1.372 . S
C3723 C3724 1.400 . S
C3723 C3728 1.490 . S
C3724 H3714 0.930 . S
C3724 C3723 1.400 . S
C3724 C3727 1.386 . S
H3725 C3741 0.930 . S
H3726 C3742 0.931 . S
C3727 H3715 0.929 . S
C3727 C3721 1.390 . S
C3727 C3724 1.386 . S
C3728 C3723 1.490 . S
C3728 C3730 1.395 . S
C3728 C3731 1.403 . S
H3729 C3735 0.930 . S
C3730 H3716 0.930 . S
C3730 C3728 1.395 . S
C3730 C3733 1.403 . S
C3731 C3728 1.403 . S
C3731 C3732 1.524 . S
C3731 C3735 1.400 . S
C3732 H3717 0.960 . S
C3732 H3718 0.960 . S
C3732 H3719 0.960 . S
C3732 C3731 1.524 . S
C3733 C3730 1.403 . S
C3733 C3734 1.392 . S
C3733 C3737 1.495 . S
C3734 C3733 1.392 . S
C3734 C3735 1.385 . S
C3734 C3736 1.478 . S
C3735 H3729 0.930 . S
C3735 C3731 1.400 . S
C3735 C3734 1.385 . S
C3736 C3734 1.478 . S
C3736 C3738 1.381 . S
C3736 C3742 1.383 . S
C3737 C3733 1.495 . S
C3737 H3743 0.959 . S
C3737 H3744 0.961 . S
C3737 H3745 0.960 . S
C3738 C3736 1.381 . S
C3738 C3739 1.394 . S
C3738 H3746 0.930 . S
C3739 C3738 1.394 . S
C3739 C3740 1.383 . S
C3739 H3747 0.929 . S
C3740 C3739 1.383 . S
C3740 C3741 1.377 . S
C3741 H3725 0.930 . S
C3741 C3740 1.377 . S
C3741 C3742 1.379 . S
C3742 H3726 0.931 . S
C3742 C3736 1.383 . S
C3742 C3741 1.379 . S
H3743 C3737 0.959 . S
H3744 C3737 0.961 . S
H3745 C3737 0.960 . S
H3746 C3738 0.930 . S
H3747 C3739 0.929 . S
H3748 C3756 0.929 . S
H3749 C3758 0.930 . S
H3750 C3760 0.930 . S
H3751 C3763 0.929 . S
H3752 C3766 0.930 . S
H3753 C3768 0.960 . S
H3754 C3768 0.960 . S
H3755 C3768 0.960 . S
C3756 H3748 0.929 . S
C3756 C3757 1.377 . S
C3756 C3758 1.384 . S
C3757 C3756 1.377 . S
C3757 C3763 1.390 . S
C3758 H3749 0.930 . S
C3758 C3756 1.384 . S
C3758 C3759 1.372 . S
C3759 C3758 1.372 . S
C3759 C3760 1.400 . S
C3759 C3764 1.490 . S
C3760 H3750 0.930 . S
C3760 C3759 1.400 . S
C3760 C3763 1.386 . S
H3761 C3777 0.930 . S
H3762 C3778 0.931 . S
C3763 H3751 0.929 . S
C3763 C3757 1.390 . S
C3763 C3760 1.386 . S
C3764 C3759 1.490 . S
C3764 C3766 1.395 . S
C3764 C3767 1.403 . S
H3765 C3771 0.930 . S
C3766 H3752 0.930 . S
C3766 C3764 1.395 . S
C3766 C3769 1.403 . S
C3767 C3764 1.403 . S
C3767 C3768 1.524 . S
C3767 C3771 1.400 . S
C3768 H3753 0.960 . S
C3768 H3754 0.960 . S
C3768 H3755 0.960 . S
C3768 C3767 1.524 . S
C3769 C3766 1.403 . S
C3769 C3770 1.392 . S
C3769 C3773 1.495 . S
C3770 C3769 1.392 . S
C3770 C3771 1.385 . S
C3770 C3772 1.478 . S
C3771 H3765 0.930 . S
C3771 C3767 1.400 . S
C3771 C3770 1.385 . S
C3772 C3770 1.478 . S
C3772 C3774 1.381 . S
C3772 C3778 1.383 . S
C3773 C3769 1.495 . S
C3773 H3779 0.959 . S
C3773 H3780 0.961 . S
C3773 H3781 0.960 . S
C3774 C3772 1.381 . S
C3774 C3775 1.394 . S
C3774 H3782 0.930 . S
C3775 C3774 1.394 . S
C3775 C3776 1.383 . S
C3775 H3783 0.929 . S
C3776 C3775 1.383 . S
C3776 C3777 1.377 . S
C3777 H3761 0.930 . S
C3777 C3776 1.377 . S
C3777 C3778 1.379 . S
C3778 H3762 0.931 . S
C3778 C3772 1.383 . S
C3778 C3777 1.379 . S
H3779 C3773 0.959 . S
H3780 C3773 0.961 . S
H3781 C3773 0.960 . S
H3782 C3774 0.930 . S
H3783 C3775 0.929 . S
H3784 C3792 0.929 . S
H3785 C3794 0.930 . S
H3786 C3796 0.930 . S
H3787 C3799 0.929 . S
H3788 C3802 0.930 . S
H3789 C3804 0.960 . S
H3790 C3804 0.960 . S
H3791 C3804 0.960 . S
C3792 H3784 0.929 . S
C3792 C3793 1.377 . S
C3792 C3794 1.384 . S
C3793 C3792 1.377 . S
C3793 C3799 1.390 . S
C3794 H3785 0.930 . S
C3794 C3792 1.384 . S
C3794 C3795 1.372 . S
C3795 C3794 1.372 . S
C3795 C3796 1.400 . S
C3795 C3800 1.490 . S
C3796 H3786 0.930 . S
C3796 C3795 1.400 . S
C3796 C3799 1.386 . S
H3797 C3813 0.930 . S
H3798 C3814 0.931 . S
C3799 H3787 0.929 . S
C3799 C3793 1.390 . S
C3799 C3796 1.386 . S
C3800 C3795 1.490 . S
C3800 C3802 1.395 . S
C3800 C3803 1.403 . S
H3801 C3807 0.930 . S
C3802 H3788 0.930 . S
C3802 C3800 1.395 . S
C3802 C3805 1.403 . S
C3803 C3800 1.403 . S
C3803 C3804 1.524 . S
C3803 C3807 1.400 . S
C3804 H3789 0.960 . S
C3804 H3790 0.960 . S
C3804 H3791 0.960 . S
C3804 C3803 1.524 . S
C3805 C3802 1.403 . S
C3805 C3806 1.392 . S
C3805 C3809 1.495 . S
C3806 C3805 1.392 . S
C3806 C3807 1.385 . S
C3806 C3808 1.478 . S
C3807 H3801 0.930 . S
C3807 C3803 1.400 . S
C3807 C3806 1.385 . S
C3808 C3806 1.478 . S
C3808 C3810 1.381 . S
C3808 C3814 1.383 . S
C3809 C3805 1.495 . S
C3809 H3815 0.959 . S
C3809 H3816 0.961 . S
C3809 H3817 0.960 . S
C3810 C3808 1.381 . S
C3810 C3811 1.394 . S
C3810 H3818 0.930 . S
C3811 C3810 1.394 . S
C3811 C3812 1.383 . S
C3811 H3819 0.929 . S
C3812 C3811 1.383 . S
C3812 C3813 1.377 . S
C3813 H3797 0.930 . S
C3813 C3812 1.377 . S
C3813 C3814 1.379 . S
C3814 H3798 0.931 . S
C3814 C3808 1.383 . S
C3814 C3813 1.379 . S
H3815 C3809 0.959 . S
H3816 C3809 0.961 . S
H3817 C3809 0.960 . S
H3818 C3810 0.930 . S
H3819 C3811 0.929 . S
H3820 C3828 0.929 . S
H3821 C3830 0.930 . S
H3822 C3832 0.930 . S
H3823 C3835 0.929 . S
H3824 C3838 0.930 . S
H3825 C3840 0.960 . S
H3826 C3840 0.960 . S
H3827 C3840 0.960 . S
C3828 H3820 0.929 . S
C3828 C3829 1.377 . S
C3828 C3830 1.384 . S
C3829 C3828 1.377 . S
C3829 C3835 1.390 . S
C3830 H3821 0.930 . S
C3830 C3828 1.384 . S
C3830 C3831 1.372 . S
C3831 C3830 1.372 . S
C3831 C3832 1.400 . S
C3831 C3836 1.490 . S
C3832 H3822 0.930 . S
C3832 C3831 1.400 . S
C3832 C3835 1.386 . S
H3833 C3849 0.930 . S
H3834 C3850 0.931 . S
C3835 H3823 0.929 . S
C3835 C3829 1.390 . S
C3835 C3832 1.386 . S
C3836 C3831 1.490 . S
C3836 C3838 1.395 . S
C3836 C3839 1.403 . S
H3837 C3843 0.930 . S
C3838 H3824 0.930 . S
C3838 C3836 1.395 . S
C3838 C3841 1.403 . S
C3839 C3836 1.403 . S
C3839 C3840 1.524 . S
C3839 C3843 1.400 . S
C3840 H3825 0.960 . S
C3840 H3826 0.960 . S
C3840 H3827 0.960 . S
C3840 C3839 1.524 . S
C3841 C3838 1.403 . S
C3841 C3842 1.392 . S
C3841 C3845 1.495 . S
C3842 C3841 1.392 . S
C3842 C3843 1.385 . S
C3842 C3844 1.478 . S
C3843 H3837 0.930 . S
C3843 C3839 1.400 . S
C3843 C3842 1.385 . S
C3844 C3842 1.478 . S
C3844 C3846 1.381 . S
C3844 C3850 1.383 . S
C3845 C3841 1.495 . S
C3845 H3851 0.959 . S
C3845 H3852 0.961 . S
C3845 H3853 0.960 . S
C3846 C3844 1.381 . S
C3846 C3847 1.394 . S
C3846 H3854 0.930 . S
C3847 C3846 1.394 . S
C3847 C3848 1.383 . S
C3847 H3855 0.929 . S
C3848 C3847 1.383 . S
C3848 C3849 1.377 . S
C3849 H3833 0.930 . S
C3849 C3848 1.377 . S
C3849 C3850 1.379 . S
C3850 H3834 0.931 . S
C3850 C3844 1.383 . S
C3850 C3849 1.379 . S
H3851 C3845 0.959 . S
H3852 C3845 0.961 . S
H3853 C3845 0.960 . S
H3854 C3846 0.930 . S
H3855 C3847 0.929 . S
H3856 C3864 0.929 . S
H3857 C3866 0.930 . S
H3858 C3868 0.930 . S
H3859 C3871 0.929 . S
H3860 C3874 0.930 . S
H3861 C3876 0.960 . S
H3862 C3876 0.960 . S
H3863 C3876 0.960 . S
C3864 H3856 0.929 . S
C3864 C3865 1.377 . S
C3864 C3866 1.384 . S
C3865 C3864 1.377 . S
C3865 C3871 1.390 . S
C3866 H3857 0.930 . S
C3866 C3864 1.384 . S
C3866 C3867 1.372 . S
C3867 C3866 1.372 . S
C3867 C3868 1.400 . S
C3867 C3872 1.490 . S
C3868 H3858 0.930 . S
C3868 C3867 1.400 . S
C3868 C3871 1.386 . S
H3869 C3885 0.930 . S
H3870 C3886 0.931 . S
C3871 H3859 0.929 . S
C3871 C3865 1.390 . S
C3871 C3868 1.386 . S
C3872 C3867 1.490 . S
C3872 C3874 1.395 . S
C3872 C3875 1.403 . S
H3873 C3879 0.930 . S
C3874 H3860 0.930 . S
C3874 C3872 1.395 . S
C3874 C3877 1.403 . S
C3875 C3872 1.403 . S
C3875 C3876 1.524 . S
C3875 C3879 1.400 . S
C3876 H3861 0.960 . S
C3876 H3862 0.960 . S
C3876 H3863 0.960 . S
C3876 C3875 1.524 . S
C3877 C3874 1.403 . S
C3877 C3878 1.392 . S
C3877 C3881 1.495 . S
C3878 C3877 1.392 . S
C3878 C3879 1.385 . S
C3878 C3880 1.478 . S
C3879 H3873 0.930 . S
C3879 C3875 1.400 . S
C3879 C3878 1.385 . S
C3880 C3878 1.478 . S
C3880 C3882 1.381 . S
C3880 C3886 1.383 . S
C3881 C3877 1.495 . S
C3881 H3887 0.959 . S
C3881 H3888 0.961 . S
C3881 H3889 0.960 . S
C3882 C3880 1.381 . S
C3882 C3883 1.394 . S
C3882 H3890 0.930 . S
C3883 C3882 1.394 . S
C3883 C3884 1.383 . S
C3883 H3891 0.929 . S
C3884 C3883 1.383 . S
C3884 C3885 1.377 . S
C3885 H3869 0.930 . S
C3885 C3884 1.377 . S
C3885 C3886 1.379 . S
C3886 H3870 0.931 . S
C3886 C3880 1.383 . S
C3886 C3885 1.379 . S
H3887 C3881 0.959 . S
H3888 C3881 0.961 . S
H3889 C3881 0.960 . S
H3890 C3882 0.930 . S
H3891 C3883 0.929 . S
H3892 C3900 0.929 . S
H3893 C3902 0.930 . S
H3894 C3904 0.930 . S
H3895 C3907 0.929 . S
H3896 C3910 0.930 . S
H3897 C3912 0.960 . S
H3898 C3912 0.960 . S
H3899 C3912 0.960 . S
C3900 H3892 0.929 . S
C3900 C3901 1.377 . S
C3900 C3902 1.384 . S
C3901 C3900 1.377 . S
C3901 C3907 1.390 . S
C3902 H3893 0.930 . S
C3902 C3900 1.384 . S
C3902 C3903 1.372 . S
C3903 C3902 1.372 . S
C3903 C3904 1.400 . S
C3903 C3908 1.490 . S
C3904 H3894 0.930 . S
C3904 C3903 1.400 . S
C3904 C3907 1.386 . S
H3905 C3921 0.930 . S
H3906 C3922 0.931 . S
C3907 H3895 0.929 . S
C3907 C3901 1.390 . S
C3907 C3904 1.386 . S
C3908 C3903 1.490 . S
C3908 C3910 1.395 . S
C3908 C3911 1.403 . S
H3909 C3915 0.930 . S
C3910 H3896 0.930 . S
C3910 C3908 1.395 . S
C3910 C3913 1.403 . S
C3911 C3908 1.403 . S
C3911 C3912 1.524 . S
C3911 C3915 1.400 . S
C3912 H3897 0.960 . S
C3912 H3898 0.960 . S
C3912 H3899 0.960 . S
C3912 C3911 1.524 . S
C3913 C3910 1.403 . S
C3913 C3914 1.392 . S
C3913 C3917 1.495 . S
C3914 C3913 1.392 . S
C3914 C3915 1.385 . S
C3914 C3916 1.478 . S
C3915 H3909 0.930 . S
C3915 C3911 1.400 . S
C3915 C3914 1.385 . S
C3916 C3914 1.478 . S
C3916 C3918 1.381 . S
C3916 C3922 1.383 . S
C3917 C3913 1.495 . S
C3917 H3923 0.959 . S
C3917 H3924 0.961 . S
C3917 H3925 0.960 . S
C3918 C3916 1.381 . S
C3918 C3919 1.394 . S
C3918 H3926 0.930 . S
C3919 C3918 1.394 . S
C3919 C3920 1.383 . S
C3919 H3927 0.929 . S
C3920 C3919 1.383 . S
C3920 C3921 1.377 . S
C3921 H3905 0.930 . S
C3921 C3920 1.377 . S
C3921 C3922 1.379 . S
C3922 H3906 0.931 . S
C3922 C3916 1.383 . S
C3922 C3921 1.379 . S
H3923 C3917 0.959 . S
H3924 C3917 0.961 . S
H3925 C3917 0.960 . S
H3926 C3918 0.930 . S
H3927 C3919 0.929 . S
H3928 C3936 0.929 . S
H3929 C3938 0.930 . S
H3930 C3940 0.930 . S
H3931 C3943 0.929 . S
H3932 C3946 0.930 . S
H3933 C3948 0.960 . S
H3934 C3948 0.960 . S
H3935 C3948 0.960 . S
C3936 H3928 0.929 . S
C3936 C3937 1.377 . S
C3936 C3938 1.384 . S
C3937 C3936 1.377 . S
C3937 C3943 1.390 . S
C3938 H3929 0.930 . S
C3938 C3936 1.384 . S
C3938 C3939 1.372 . S
C3939 C3938 1.372 . S
C3939 C3940 1.400 . S
C3939 C3944 1.490 . S
C3940 H3930 0.930 . S
C3940 C3939 1.400 . S
C3940 C3943 1.386 . S
H3941 C3957 0.930 . S
H3942 C3958 0.931 . S
C3943 H3931 0.929 . S
C3943 C3937 1.390 . S
C3943 C3940 1.386 . S
C3944 C3939 1.490 . S
C3944 C3946 1.395 . S
C3944 C3947 1.403 . S
H3945 C3951 0.930 . S
C3946 H3932 0.930 . S
C3946 C3944 1.395 . S
C3946 C3949 1.403 . S
C3947 C3944 1.403 . S
C3947 C3948 1.524 . S
C3947 C3951 1.400 . S
C3948 H3933 0.960 . S
C3948 H3934 0.960 . S
C3948 H3935 0.960 . S
C3948 C3947 1.524 . S
C3949 C3946 1.403 . S
C3949 C3950 1.392 . S
C3949 C3953 1.495 . S
C3950 C3949 1.392 . S
C3950 C3951 1.385 . S
C3950 C3952 1.478 . S
C3951 H3945 0.930 . S
C3951 C3947 1.400 . S
C3951 C3950 1.385 . S
C3952 C3950 1.478 . S
C3952 C3954 1.381 . S
C3952 C3958 1.383 . S
C3953 C3949 1.495 . S
C3953 H3959 0.959 . S
C3953 H3960 0.961 . S
C3953 H3961 0.960 . S
C3954 C3952 1.381 . S
C3954 C3955 1.394 . S
C3954 H3962 0.930 . S
C3955 C3954 1.394 . S
C3955 C3956 1.383 . S
C3955 H3963 0.929 . S
C3956 C3955 1.383 . S
C3956 C3957 1.377 . S
C3957 H3941 0.930 . S
C3957 C3956 1.377 . S
C3957 C3958 1.379 . S
C3958 H3942 0.931 . S
C3958 C3952 1.383 . S
C3958 C3957 1.379 . S
H3959 C3953 0.959 . S
H3960 C3953 0.961 . S
H3961 C3953 0.960 . S
H3962 C3954 0.930 . S
H3963 C3955 0.929 . S
H3964 C3972 0.929 . S
H3965 C3974 0.930 . S
H3966 C3976 0.930 . S
H3967 C3979 0.929 . S
H3968 C3982 0.930 . S
H3969 C3984 0.960 . S
H3970 C3984 0.960 . S
H3971 C3984 0.960 . S
C3972 H3964 0.929 . S
C3972 C3973 1.377 . S
C3972 C3974 1.384 . S
C3973 C3972 1.377 . S
C3973 C3979 1.390 . S
C3974 H3965 0.930 . S
C3974 C3972 1.384 . S
C3974 C3975 1.372 . S
C3975 C3974 1.372 . S
C3975 C3976 1.400 . S
C3975 C3980 1.490 . S
C3976 H3966 0.930 . S
C3976 C3975 1.400 . S
C3976 C3979 1.386 . S
H3977 C3993 0.930 . S
H3978 C3994 0.931 . S
C3979 H3967 0.929 . S
C3979 C3973 1.390 . S
C3979 C3976 1.386 . S
C3980 C3975 1.490 . S
C3980 C3982 1.395 . S
C3980 C3983 1.403 . S
H3981 C3987 0.930 . S
C3982 H3968 0.930 . S
C3982 C3980 1.395 . S
C3982 C3985 1.403 . S
C3983 C3980 1.403 . S
C3983 C3984 1.524 . S
C3983 C3987 1.400 . S
C3984 H3969 0.960 . S
C3984 H3970 0.960 . S
C3984 H3971 0.960 . S
C3984 C3983 1.524 . S
C3985 C3982 1.403 . S
C3985 C3986 1.392 . S
C3985 C3989 1.495 . S
C3986 C3985 1.392 . S
C3986 C3987 1.385 . S
C3986 C3988 1.478 . S
C3987 H3981 0.930 . S
C3987 C3983 1.400 . S
C3987 C3986 1.385 . S
C3988 C3986 1.478 . S
C3988 C3990 1.381 . S
C3988 C3994 1.383 . S
C3989 C3985 1.495 . S
C3989 H3995 0.959 . S
C3989 H3996 0.961 . S
C3989 H3997 0.960 . S
C3990 C3988 1.381 . S
C3990 C3991 1.394 . S
C3990 H3998 0.930 . S
C3991 C3990 1.394 . S
C3991 C3992 1.383 . S
C3991 H3999 0.929 . S
C3992 C3991 1.383 . S
C3992 C3993 1.377 . S
C3993 H3977 0.930 . S
C3993 C3992 1.377 . S
C3993 C3994 1.379 . S
C3994 H3978 0.931 . S
C3994 C3988 1.383 . S
C3994 C3993 1.379 . S
H3995 C3989 0.959 . S
H3996 C3989 0.961 . S
H3997 C3989 0.960 . S
H3998 C3990 0.930 . S
H3999 C3991 0.929 . S
H4000 C4008 0.929 . S
H4001 C4010 0.930 . S
H4002 C4012 0.930 . S
H4003 C4015 0.929 . S
H4004 C4018 0.930 . S
H4005 C4020 0.960 . S
H4006 C4020 0.960 . S
H4007 C4020 0.960 . S
C4008 H4000 0.929 . S
C4008 C4009 1.377 . S
C4008 C4010 1.384 . S
C4009 C4008 1.377 . S
C4009 C4015 1.390 . S
C4010 H4001 0.930 . S
C4010 C4008 1.384 . S
C4010 C4011 1.372 . S
C4011 C4010 1.372 . S
C4011 C4012 1.400 . S
C4011 C4016 1.490 . S
C4012 H4002 0.930 . S
C4012 C4011 1.400 . S
C4012 C4015 1.386 . S
H4013 C4029 0.930 . S
H4014 C4030 0.931 . S
C4015 H4003 0.929 . S
C4015 C4009 1.390 . S
C4015 C4012 1.386 . S
C4016 C4011 1.490 . S
C4016 C4018 1.395 . S
C4016 C4019 1.403 . S
H4017 C4023 0.930 . S
C4018 H4004 0.930 . S
C4018 C4016 1.395 . S
C4018 C4021 1.403 . S
C4019 C4016 1.403 . S
C4019 C4020 1.524 . S
C4019 C4023 1.400 . S
C4020 H4005 0.960 . S
C4020 H4006 0.960 . S
C4020 H4007 0.960 . S
C4020 C4019 1.524 . S
C4021 C4018 1.403 . S
C4021 C4022 1.392 . S
C4021 C4025 1.495 . S
C4022 C4021 1.392 . S
C4022 C4023 1.385 . S
C4022 C4024 1.478 . S
C4023 H4017 0.930 . S
C4023 C4019 1.400 . S
C4023 C4022 1.385 . S
C4024 C4022 1.478 . S
C4024 C4026 1.381 . S
C4024 C4030 1.383 . S
C4025 C4021 1.495 . S
C4025 H4031 0.959 . S
C4025 H4032 0.961 . S
C4025 H4033 0.960 . S
C4026 C4024 1.381 . S
C4026 C4027 1.394 . S
C4026 H4034 0.930 . S
C4027 C4026 1.394 . S
C4027 C4028 1.383 . S
C4027 H4035 0.929 . S
C4028 C4027 1.383 . S
C4028 C4029 1.377 . S
C4029 H4013 0.930 . S
C4029 C4028 1.377 . S
C4029 C4030 1.379 . S
C4030 H4014 0.931 . S
C4030 C4024 1.383 . S
C4030 C4029 1.379 . S
H4031 C4025 0.959 . S
H4032 C4025 0.961 . S
H4033 C4025 0.960 . S
H4034 C4026 0.930 . S
H4035 C4027 0.929 . S
H4036 C4044 0.929 . S
H4037 C4046 0.930 . S
H4038 C4048 0.930 . S
H4039 C4051 0.929 . S
H4040 C4054 0.930 . S
H4041 C4056 0.960 . S
H4042 C4056 0.960 . S
H4043 C4056 0.960 . S
C4044 H4036 0.929 . S
C4044 C4045 1.377 . S
C4044 C4046 1.384 . S
C4045 C4044 1.377 . S
C4045 C4051 1.390 . S
C4046 H4037 0.930 . S
C4046 C4044 1.384 . S
C4046 C4047 1.372 . S
C4047 C4046 1.372 . S
C4047 C4048 1.400 . S
C4047 C4052 1.490 . S
C4048 H4038 0.930 . S
C4048 C4047 1.400 . S
C4048 C4051 1.386 . S
H4049 C4065 0.930 . S
H4050 C4066 0.931 . S
C4051 H4039 0.929 . S
C4051 C4045 1.390 . S
C4051 C4048 1.386 . S
C4052 C4047 1.490 . S
C4052 C4054 1.395 . S
C4052 C4055 1.403 . S
H4053 C4059 0.930 . S
C4054 H4040 0.930 . S
C4054 C4052 1.395 . S
C4054 C4057 1.403 . S
C4055 C4052 1.403 . S
C4055 C4056 1.524 . S
C4055 C4059 1.400 . S
C4056 H4041 0.960 . S
C4056 H4042 0.960 . S
C4056 H4043 0.960 . S
C4056 C4055 1.524 . S
C4057 C4054 1.403 . S
C4057 C4058 1.392 . S
C4057 C4061 1.495 . S
C4058 C4057 1.392 . S
C4058 C4059 1.385 . S
C4058 C4060 1.478 . S
C4059 H4053 0.930 . S
C4059 C4055 1.400 . S
C4059 C4058 1.385 . S
C4060 C4058 1.478 . S
C4060 C4062 1.381 . S
C4060 C4066 1.383 . S
C4061 C4057 1.495 . S
C4061 H4067 0.959 . S
C4061 H4068 0.961 . S
C4061 H4069 0.960 . S
C4062 C4060 1.381 . S
C4062 C4063 1.394 . S
C4062 H4070 0.930 . S
C4063 C4062 1.394 . S
C4063 C4064 1.383 . S
C4063 H4071 0.929 . S
C4064 C4063 1.383 . S
C4064 C4065 1.377 . S
C4065 H4049 0.930 . S
C4065 C4064 1.377 . S
C4065 C4066 1.379 . S
C4066 H4050 0.931 . S
C4066 C4060 1.383 . S
C4066 C4065 1.379 . S
H4067 C4061 0.959 . S
H4068 C4061 0.961 . S
H4069 C4061 0.960 . S
H4070 C4062 0.930 . S
H4071 C4063 0.929 . S
H4072 C4080 0.929 . S
H4073 C4082 0.930 . S
H4074 C4084 0.930 . S
H4075 C4087 0.929 . S
H4076 C4090 0.930 . S
H4077 C4092 0.960 . S
H4078 C4092 0.960 . S
H4079 C4092 0.960 . S
C4080 H4072 0.929 . S
C4080 C4081 1.377 . S
C4080 C4082 1.384 . S
C4081 C4080 1.377 . S
C4081 C4087 1.390 . S
C4082 H4073 0.930 . S
C4082 C4080 1.384 . S
C4082 C4083 1.372 . S
C4083 C4082 1.372 . S
C4083 C4084 1.400 . S
C4083 C4088 1.490 . S
C4084 H4074 0.930 . S
C4084 C4083 1.400 . S
C4084 C4087 1.386 . S
H4085 C4101 0.930 . S
H4086 C4102 0.931 . S
C4087 H4075 0.929 . S
C4087 C4081 1.390 . S
C4087 C4084 1.386 . S
C4088 C4083 1.490 . S
C4088 C4090 1.395 . S
C4088 C4091 1.403 . S
H4089 C4095 0.930 . S
C4090 H4076 0.930 . S
C4090 C4088 1.395 . S
C4090 C4093 1.403 . S
C4091 C4088 1.403 . S
C4091 C4092 1.524 . S
C4091 C4095 1.400 . S
C4092 H4077 0.960 . S
C4092 H4078 0.960 . S
C4092 H4079 0.960 . S
C4092 C4091 1.524 . S
C4093 C4090 1.403 . S
C4093 C4094 1.392 . S
C4093 C4097 1.495 . S
C4094 C4093 1.392 . S
C4094 C4095 1.385 . S
C4094 C4096 1.478 . S
C4095 H4089 0.930 . S
C4095 C4091 1.400 . S
C4095 C4094 1.385 . S
C4096 C4094 1.478 . S
C4096 C4098 1.381 . S
C4096 C4102 1.383 . S
C4097 C4093 1.495 . S
C4097 H4103 0.959 . S
C4097 H4104 0.961 . S
C4097 H4105 0.960 . S
C4098 C4096 1.381 . S
C4098 C4099 1.394 . S
C4098 H4106 0.930 . S
C4099 C4098 1.394 . S
C4099 C4100 1.383 . S
C4099 H4107 0.929 . S
C4100 C4099 1.383 . S
C4100 C4101 1.377 . S
C4101 H4085 0.930 . S
C4101 C4100 1.377 . S
C4101 C4102 1.379 . S
C4102 H4086 0.931 . S
C4102 C4096 1.383 . S
C4102 C4101 1.379 . S
H4103 C4097 0.959 . S
H4104 C4097 0.961 . S
H4105 C4097 0.960 . S
H4106 C4098 0.930 . S
H4107 C4099 0.929 . S
H4108 C4116 0.929 . S
H4109 C4118 0.930 . S
H4110 C4120 0.930 . S
H4111 C4123 0.929 . S
H4112 C4126 0.930 . S
H4113 C4128 0.960 . S
H4114 C4128 0.960 . S
H4115 C4128 0.960 . S
C4116 H4108 0.929 . S
C4116 C4117 1.377 . S
C4116 C4118 1.384 . S
C4117 C4116 1.377 . S
C4117 C4123 1.390 . S
C4118 H4109 0.930 . S
C4118 C4116 1.384 . S
C4118 C4119 1.372 . S
C4119 C4118 1.372 . S
C4119 C4120 1.400 . S
C4119 C4124 1.490 . S
C4120 H4110 0.930 . S
C4120 C4119 1.400 . S
C4120 C4123 1.386 . S
H4121 C4137 0.930 . S
H4122 C4138 0.931 . S
C4123 H4111 0.929 . S
C4123 C4117 1.390 . S
C4123 C4120 1.386 . S
C4124 C4119 1.490 . S
C4124 C4126 1.395 . S
C4124 C4127 1.403 . S
H4125 C4131 0.930 . S
C4126 H4112 0.930 . S
C4126 C4124 1.395 . S
C4126 C4129 1.403 . S
C4127 C4124 1.403 . S
C4127 C4128 1.524 . S
C4127 C4131 1.400 . S
C4128 H4113 0.960 . S
C4128 H4114 0.960 . S
C4128 H4115 0.960 . S
C4128 C4127 1.524 . S
C4129 C4126 1.403 . S
C4129 C4130 1.392 . S
C4129 C4133 1.495 . S
C4130 C4129 1.392 . S
C4130 C4131 1.385 . S
C4130 C4132 1.478 . S
C4131 H4125 0.930 . S
C4131 C4127 1.400 . S
C4131 C4130 1.385 . S
C4132 C4130 1.478 . S
C4132 C4134 1.381 . S
C4132 C4138 1.383 . S
C4133 C4129 1.495 . S
C4133 H4139 0.959 . S
C4133 H4140 0.961 . S
C4133 H4141 0.960 . S
C4134 C4132 1.381 . S
C4134 C4135 1.394 . S
C4134 H4142 0.930 . S
C4135 C4134 1.394 . S
C4135 C4136 1.383 . S
C4135 H4143 0.929 . S
C4136 C4135 1.383 . S
C4136 C4137 1.377 . S
C4137 H4121 0.930 . S
C4137 C4136 1.377 . S
C4137 C4138 1.379 . S
C4138 H4122 0.931 . S
C4138 C4132 1.383 . S
C4138 C4137 1.379 . S
H4139 C4133 0.959 . S
H4140 C4133 0.961 . S
H4141 C4133 0.960 . S
H4142 C4134 0.930 . S
H4143 C4135 0.929 . S
H4144 C4152 0.929 . S
H4145 C4154 0.930 . S
H4146 C4156 0.930 . S
H4147 C4159 0.929 . S
H4148 C4162 0.930 . S
H4149 C4164 0.960 . S
H4150 C4164 0.960 . S
H4151 C4164 0.960 . S
C4152 H4144 0.929 . S
C4152 C4153 1.377 . S
C4152 C4154 1.384 . S
C4153 C4152 1.377 . S
C4153 C4159 1.390 . S
C4154 H4145 0.930 . S
C4154 C4152 1.384 . S
C4154 C4155 1.372 . S
C4155 C4154 1.372 . S
C4155 C4156 1.400 . S
C4155 C4160 1.490 . S
C4156 H4146 0.930 . S
C4156 C4155 1.400 . S
C4156 C4159 1.386 . S
H4157 C4173 0.930 . S
H4158 C4174 0.931 . S
C4159 H4147 0.929 . S
C4159 C4153 1.390 . S
C4159 C4156 1.386 . S
C4160 C4155 1.490 . S
C4160 C4162 1.395 . S
C4160 C4163 1.403 . S
H4161 C4167 0.930 . S
C4162 H4148 0.930 . S
C4162 C4160 1.395 . S
C4162 C4165 1.403 . S
C4163 C4160 1.403 . S
C4163 C4164 1.524 . S
C4163 C4167 1.400 . S
C4164 H4149 0.960 . S
C4164 H4150 0.960 . S
C4164 H4151 0.960 . S
C4164 C4163 1.524 . S
C4165 C4162 1.403 . S
C4165 C4166 1.392 . S
C4165 C4169 1.495 . S
C4166 C4165 1.392 . S
C4166 C4167 1.385 . S
C4166 C4168 1.478 . S
C4167 H4161 0.930 . S
C4167 C4163 1.400 . S
C4167 C4166 1.385 . S
C4168 C4166 1.478 . S
C4168 C4170 1.381 . S
C4168 C4174 1.383 . S
C4169 C4165 1.495 . S
C4169 H4175 0.959 . S
C4169 H4176 0.961 . S
C4169 H4177 0.960 . S
C4170 C4168 1.381 . S
C4170 C4171 1.394 . S
C4170 H4178 0.930 . S
C4171 C4170 1.394 . S
C4171 C4172 1.383 . S
C4171 H4179 0.929 . S
C4172 C4171 1.383 . S
C4172 C4173 1.377 . S
C4173 H4157 0.930 . S
C4173 C4172 1.377 . S
C4173 C4174 1.379 . S
C4174 H4158 0.931 . S
C4174 C4168 1.383 . S
C4174 C4173 1.379 . S
H4175 C4169 0.959 . S
H4176 C4169 0.961 . S
H4177 C4169 0.960 . S
H4178 C4170 0.930 . S
H4179 C4171 0.929 . S
H4180 C4188 0.929 . S
H4181 C4190 0.930 . S
H4182 C4192 0.930 . S
H4183 C4195 0.929 . S
H4184 C4198 0.930 . S
H4185 C4200 0.960 . S
H4186 C4200 0.960 . S
H4187 C4200 0.960 . S
C4188 H4180 0.929 . S
C4188 C4189 1.377 . S
C4188 C4190 1.384 . S
C4189 C4188 1.377 . S
C4189 C4195 1.390 . S
C4190 H4181 0.930 . S
C4190 C4188 1.384 . S
C4190 C4191 1.372 . S
C4191 C4190 1.372 . S
C4191 C4192 1.400 . S
C4191 C4196 1.490 . S
C4192 H4182 0.930 . S
C4192 C4191 1.400 . S
C4192 C4195 1.386 . S
H4193 C4209 0.930 . S
H4194 C4210 0.931 . S
C4195 H4183 0.929 . S
C4195 C4189 1.390 . S
C4195 C4192 1.386 . S
C4196 C4191 1.490 . S
C4196 C4198 1.395 . S
C4196 C4199 1.403 . S
H4197 C4203 0.930 . S
C4198 H4184 0.930 . S
C4198 C4196 1.395 . S
C4198 C4201 1.403 . S
C4199 C4196 1.403 . S
C4199 C4200 1.524 . S
C4199 C4203 1.400 . S
C4200 H4185 0.960 . S
C4200 H4186 0.960 . S
C4200 H4187 0.960 . S
C4200 C4199 1.524 . S
C4201 C4198 1.403 . S
C4201 C4202 1.392 . S
C4201 C4205 1.495 . S
C4202 C4201 1.392 . S
C4202 C4203 1.385 . S
C4202 C4204 1.478 . S
C4203 H4197 0.930 . S
C4203 C4199 1.400 . S
C4203 C4202 1.385 . S
C4204 C4202 1.478 . S
C4204 C4206 1.381 . S
C4204 C4210 1.383 . S
C4205 C4201 1.495 . S
C4205 H4211 0.959 . S
C4205 H4212 0.961 . S
C4205 H4213 0.960 . S
C4206 C4204 1.381 . S
C4206 C4207 1.394 . S
C4206 H4214 0.930 . S
C4207 C4206 1.394 . S
C4207 C4208 1.383 . S
C4207 H4215 0.929 . S
C4208 C4207 1.383 . S
C4208 C4209 1.377 . S
C4209 H4193 0.930 . S
C4209 C4208 1.377 . S
C4209 C4210 1.379 . S
C4210 H4194 0.931 . S
C4210 C4204 1.383 . S
C4210 C4209 1.379 . S
H4211 C4205 0.959 . S
H4212 C4205 0.961 . S
H4213 C4205 0.960 . S
H4214 C4206 0.930 . S
H4215 C4207 0.929 . S
H4216 C4224 0.929 . S
H4217 C4226 0.930 . S
H4218 C4228 0.930 . S
H4219 C4231 0.929 . S
H4220 C4234 0.930 . S
H4221 C4236 0.960 . S
H4222 C4236 0.960 . S
H4223 C4236 0.960 . S
C4224 H4216 0.929 . S
C4224 C4225 1.377 . S
C4224 C4226 1.384 . S
C4225 C4224 1.377 . S
C4225 C4231 1.390 . S
C4226 H4217 0.930 . S
C4226 C4224 1.384 . S
C4226 C4227 1.372 . S
C4227 C4226 1.372 . S
C4227 C4228 1.400 . S
C4227 C4232 1.490 . S
C4228 H4218 0.930 . S
C4228 C4227 1.400 . S
C4228 C4231 1.386 . S
H4229 C4245 0.930 . S
H4230 C4246 0.931 . S
C4231 H4219 0.929 . S
C4231 C4225 1.390 . S
C4231 C4228 1.386 . S
C4232 C4227 1.490 . S
C4232 C4234 1.395 . S
C4232 C4235 1.403 . S
H4233 C4239 0.930 . S
C4234 H4220 0.930 . S
C4234 C4232 1.395 . S
C4234 C4237 1.403 . S
C4235 C4232 1.403 . S
C4235 C4236 1.524 . S
C4235 C4239 1.400 . S
C4236 H4221 0.960 . S
C4236 H4222 0.960 . S
C4236 H4223 0.960 . S
C4236 C4235 1.524 . S
C4237 C4234 1.403 . S
C4237 C4238 1.392 . S
C4237 C4241 1.495 . S
C4238 C4237 1.392 . S
C4238 C4239 1.385 . S
C4238 C4240 1.478 . S
C4239 H4233 0.930 . S
C4239 C4235 1.400 . S
C4239 C4238 1.385 . S
C4240 C4238 1.478 . S
C4240 C4242 1.381 . S
C4240 C4246 1.383 . S
C4241 C4237 1.495 . S
C4241 H4247 0.959 . S
C4241 H4248 0.961 . S
C4241 H4249 0.960 . S
C4242 C4240 1.381 . S
C4242 C4243 1.394 . S
C4242 H4250 0.930 . S
C4243 C4242 1.394 . S
C4243 C4244 1.383 . S
C4243 H4251 0.929 . S
C4244 C4243 1.383 . S
C4244 C4245 1.377 . S
C4245 H4229 0.930 . S
C4245 C4244 1.377 . S
C4245 C4246 1.379 . S
C4246 H4230 0.931 . S
C4246 C4240 1.383 . S
C4246 C4245 1.379 . S
H4247 C4241 0.959 . S
H4248 C4241 0.961 . S
H4249 C4241 0.960 . S
H4250 C4242 0.930 . S
H4251 C4243 0.929 . S
H4252 C4260 0.929 . S
H4253 C4262 0.930 . S
H4254 C4264 0.930 . S
H4255 C4267 0.929 . S
H4256 C4270 0.930 . S
H4257 C4272 0.960 . S
H4258 C4272 0.960 . S
H4259 C4272 0.960 . S
C4260 H4252 0.929 . S
C4260 C4261 1.377 . S
C4260 C4262 1.384 . S
C4261 C4260 1.377 . S
C4261 C4267 1.390 . S
C4262 H4253 0.930 . S
C4262 C4260 1.384 . S
C4262 C4263 1.372 . S
C4263 C4262 1.372 . S
C4263 C4264 1.400 . S
C4263 C4268 1.490 . S
C4264 H4254 0.930 . S
C4264 C4263 1.400 . S
C4264 C4267 1.386 . S
H4265 C4281 0.930 . S
H4266 C4282 0.931 . S
C4267 H4255 0.929 . S
C4267 C4261 1.390 . S
C4267 C4264 1.386 . S
C4268 C4263 1.490 . S
C4268 C4270 1.395 . S
C4268 C4271 1.403 . S
H4269 C4275 0.930 . S
C4270 H4256 0.930 . S
C4270 C4268 1.395 . S
C4270 C4273 1.403 . S
C4271 C4268 1.403 . S
C4271 C4272 1.524 . S
C4271 C4275 1.400 . S
C4272 H4257 0.960 . S
C4272 H4258 0.960 . S
C4272 H4259 0.960 . S
C4272 C4271 1.524 . S
C4273 C4270 1.403 . S
C4273 C4274 1.392 . S
C4273 C4277 1.495 . S
C4274 C4273 1.392 . S
C4274 C4275 1.385 . S
C4274 C4276 1.478 . S
C4275 H4269 0.930 . S
C4275 C4271 1.400 . S
C4275 C4274 1.385 . S
C4276 C4274 1.478 . S
C4276 C4278 1.381 . S
C4276 C4282 1.383 . S
C4277 C4273 1.495 . S
C4277 H4283 0.959 . S
C4277 H4284 0.961 . S
C4277 H4285 0.960 . S
C4278 C4276 1.381 . S
C4278 C4279 1.394 . S
C4278 H4286 0.930 . S
C4279 C4278 1.394 . S
C4279 C4280 1.383 . S
C4279 H4287 0.929 . S
C4280 C4279 1.383 . S
C4280 C4281 1.377 . S
C4281 H4265 0.930 . S
C4281 C4280 1.377 . S
C4281 C4282 1.379 . S
C4282 H4266 0.931 . S
C4282 C4276 1.383 . S
C4282 C4281 1.379 . S
H4283 C4277 0.959 . S
H4284 C4277 0.961 . S
H4285 C4277 0.960 . S
H4286 C4278 0.930 . S
H4287 C4279 0.929 . S
H4288 C4296 0.929 . S
H4289 C4298 0.930 . S
H4290 C4300 0.930 . S
H4291 C4303 0.929 . S
H4292 C4306 0.930 . S
H4293 C4308 0.960 . S
H4294 C4308 0.960 . S
H4295 C4308 0.960 . S
C4296 H4288 0.929 . S
C4296 C4297 1.377 . S
C4296 C4298 1.384 . S
C4297 C4296 1.377 . S
C4297 C4303 1.390 . S
C4298 H4289 0.930 . S
C4298 C4296 1.384 . S
C4298 C4299 1.372 . S
C4299 C4298 1.372 . S
C4299 C4300 1.400 . S
C4299 C4304 1.490 . S
C4300 H4290 0.930 . S
C4300 C4299 1.400 . S
C4300 C4303 1.386 . S
H4301 C4317 0.930 . S
H4302 C4318 0.931 . S
C4303 H4291 0.929 . S
C4303 C4297 1.390 . S
C4303 C4300 1.386 . S
C4304 C4299 1.490 . S
C4304 C4306 1.395 . S
C4304 C4307 1.403 . S
H4305 C4311 0.930 . S
C4306 H4292 0.930 . S
C4306 C4304 1.395 . S
C4306 C4309 1.403 . S
C4307 C4304 1.403 . S
C4307 C4308 1.524 . S
C4307 C4311 1.400 . S
C4308 H4293 0.960 . S
C4308 H4294 0.960 . S
C4308 H4295 0.960 . S
C4308 C4307 1.524 . S
C4309 C4306 1.403 . S
C4309 C4310 1.392 . S
C4309 C4313 1.495 . S
C4310 C4309 1.392 . S
C4310 C4311 1.385 . S
C4310 C4312 1.478 . S
C4311 H4305 0.930 . S
C4311 C4307 1.400 . S
C4311 C4310 1.385 . S
C4312 C4310 1.478 . S
C4312 C4314 1.381 . S
C4312 C4318 1.383 . S
C4313 C4309 1.495 . S
C4313 H4319 0.959 . S
C4313 H4320 0.961 . S
C4313 H4321 0.960 . S
C4314 C4312 1.381 . S
C4314 C4315 1.394 . S
C4314 H4322 0.930 . S
C4315 C4314 1.394 . S
C4315 C4316 1.383 . S
C4315 H4323 0.929 . S
C4316 C4315 1.383 . S
C4316 C4317 1.377 . S
C4317 H4301 0.930 . S
C4317 C4316 1.377 . S
C4317 C4318 1.379 . S
C4318 H4302 0.931 . S
C4318 C4312 1.383 . S
C4318 C4317 1.379 . S
H4319 C4313 0.959 . S
H4320 C4313 0.961 . S
H4321 C4313 0.960 . S
H4322 C4314 0.930 . S
H4323 C4315 0.929 . S
H4324 C4332 0.929 . S
H4325 C4334 0.930 . S
H4326 C4336 0.930 . S
H4327 C4339 0.929 . S
H4328 C4342 0.930 . S
H4329 C4344 0.960 . S
H4330 C4344 0.960 . S
H4331 C4344 0.960 . S
C4332 H4324 0.929 . S
C4332 C4333 1.377 . S
C4332 C4334 1.384 . S
C4333 C4332 1.377 . S
C4333 C4339 1.390 . S
C4334 H4325 0.930 . S
C4334 C4332 1.384 . S
C4334 C4335 1.372 . S
C4335 C4334 1.372 . S
C4335 C4336 1.400 . S
C4335 C4340 1.490 . S
C4336 H4326 0.930 . S
C4336 C4335 1.400 . S
C4336 C4339 1.386 . S
H4337 C4353 0.930 . S
H4338 C4354 0.931 . S
C4339 H4327 0.929 . S
C4339 C4333 1.390 . S
C4339 C4336 1.386 . S
C4340 C4335 1.490 . S
C4340 C4342 1.395 . S
C4340 C4343 1.403 . S
H4341 C4347 0.930 . S
C4342 H4328 0.930 . S
C4342 C4340 1.395 . S
C4342 C4345 1.403 . S
C4343 C4340 1.403 . S
C4343 C4344 1.524 . S
C4343 C4347 1.400 . S
C4344 H4329 0.960 . S
C4344 H4330 0.960 . S
C4344 H4331 0.960 . S
C4344 C4343 1.524 . S
C4345 C4342 1.403 . S
C4345 C4346 1.392 . S
C4345 C4349 1.495 . S
C4346 C4345 1.392 . S
C4346 C4347 1.385 . S
C4346 C4348 1.478 . S
C4347 H4341 0.930 . S
C4347 C4343 1.400 . S
C4347 C4346 1.385 . S
C4348 C4346 1.478 . S
C4348 C4350 1.381 . S
C4348 C4354 1.383 . S
C4349 C4345 1.495 . S
C4349 H4355 0.959 . S
C4349 H4356 0.961 . S
C4349 H4357 0.960 . S
C4350 C4348 1.381 . S
C4350 C4351 1.394 . S
C4350 H4358 0.930 . S
C4351 C4350 1.394 . S
C4351 C4352 1.383 . S
C4351 H4359 0.929 . S
C4352 C4351 1.383 . S
C4352 C4353 1.377 . S
C4353 H4337 0.930 . S
C4353 C4352 1.377 . S
C4353 C4354 1.379 . S
C4354 H4338 0.931 . S
C4354 C4348 1.383 . S
C4354 C4353 1.379 . S
H4355 C4349 0.959 . S
H4356 C4349 0.961 . S
H4357 C4349 0.960 . S
H4358 C4350 0.930 . S
H4359 C4351 0.929 . S
C932 N364 2.002 . S
C913 C4 2.088 . S
C968 C391 1.035 . S
C949 C21 1.032 . S
C985 C26 1.991 . S
C1004 C405 1.972 . S
C1040 N423 0.920 . S
C1021 C43 0.924 . S
C1057 C54 0.878 . S
C1076 C428 0.881 . S
C1093 C60 1.990 . S
C1112 C368 1.962 . S
C1129 C76 0.888 . S
C1148 N387 0.908 . S
C1184 N400 2.149 . S
C1165 C81 2.151 . S
C1220 N446 1.720 . S
C1201 C10 1.807 . S
C1237 C15 1.270 . S
C1256 N469 1.216 . S
C1273 C27 1.788 . S
C1292 N492 1.773 . S
C1328 N525 1.294 . S
C1309 C38 1.352 . S
C1345 C49 1.323 . S
C1364 C552 1.320 . S
C1400 C575 1.851 . S
C1381 C59 1.847 . S
C1417 C71 1.179 . S
C1436 C598 1.184 1_655 S
C1472 C612 1.825 . S
C1453 C87 1.828 . S
C1489 C5 1.849 . S
C1508 C529 1.844 . S
C1525 C48 1.282 . S
C1544 N571 1.233 . S
C1580 N594 1.649 . S
C1561 C65 1.727 . S
C1597 C70 1.256 . S
C1616 N607 1.212 . S
C1652 N548 1.821 . S
C1633 C82 1.839 . S
C1688 C474 1.920 . S
C1669 C32 1.911 . S
C1705 C37 1.259 . S
C1724 C497 1.261 . S
C1760 C451 1.328 . S
C1741 C16 1.310 . S
C1796 C644 2.114 . S
C1777 C92 2.103 . S
C1813 C109 0.984 . S
C1832 C658 0.987 . S
C1849 C114 1.948 . S
C1868 N686 1.928 . S
C1904 N699 0.874 . S
C1885 C131 0.861 . S
C1921 C142 0.923 . S
C1940 C704 0.918 . S
C1957 C148 1.919 . S
C1976 N640 1.883 . S
C1993 C164 0.976 . S
C2012 N653 0.947 . S
C2029 C169 2.058 . S
C2048 C690 2.069 . S
C2084 N538 1.790 . S
C2065 C98 1.828 . S
C2101 C103 1.227 . S
C2120 N722 1.222 . S
C2156 N584 1.726 . S
C2137 C115 1.743 . S
C2173 C126 1.307 . S
C2192 C759 1.308 . S
C2209 C137 1.451 . S
C2228 C460 1.448 . S
C2264 C773 1.931 . S
C2245 C147 1.925 . S
C2281 C159 1.283 . S
C2300 C506 1.295 . S
C2336 N791 1.767 . S
C2317 C175 1.803 . S
C2353 C93 1.825 . S
C2372 N755 1.785 . S
C2408 N768 1.241 . S
C2389 C136 1.275 . S
C2425 C153 1.730 . S
C2444 N502 1.705 . S
C2480 C796 1.153 . S
C2461 C158 1.152 . S
C2497 C170 1.817 . S
C2516 N456 1.812 . S
C2533 C120 1.815 . S
C2552 C727 1.822 . S
C2569 C125 1.303 . S
C2588 C589 1.302 . S
C2605 C104 1.297 . S
C2624 C543 1.311 . S
C2641 C180 2.140 . S
C2660 C681 2.141 . S
C2696 C713 0.967 . S
C2677 C197 0.967 . S
C2713 C202 1.939 . S
C2732 N630 1.865 . S
C2749 C219 0.888 . S
C2768 N663 0.849 . S
C2785 C230 0.909 . S
C2804 C667 0.897 . S
C2821 C236 2.053 . S
C2840 N676 1.978 . S
C2876 N709 0.844 . S
C2857 C252 0.873 . S
C2893 C257 2.195 . S
C2912 C635 2.187 . S
C2948 N824 1.812 . S
C2929 C186 1.852 . S
C2965 C191 1.193 . S
C2984 N561 1.180 . S
C3020 N847 1.641 . S
C3001 C203 1.675 . S
C3037 C214 1.342 . S
C3056 N617 1.324 . S
C3073 C225 1.348 . S
C3092 C865 1.343 . S
C3109 C235 1.946 . S
C3128 C483 1.943 . S
C3164 N883 1.201 . S
C3145 C247 1.201 . S
C3181 C263 1.863 . S
C3200 C520 1.862 . S
C3236 C621 1.871 . S
C3217 C181 1.883 . S
C3272 N479 1.295 . S
C3253 C224 1.304 . S
C3289 C241 1.835 . S
C3308 C888 1.831 . S
C3325 C246 1.181 . S
C3344 N515 1.178 . S
C3380 N860 1.825 . S
C3361 C258 1.848 . S
C3416 C566 1.804 . S
C3397 C208 1.796 . S
C3452 C851 1.285 . S
C3433 C213 1.288 . S
C3488 C828 1.284 . S
C3469 C192 1.266 . S
C3505 C268 2.052 . S
C3524 N410 1.991 . S
C3541 C285 0.956 . S
C3560 C437 0.939 . S
C3596 C359 1.997 . S
C3577 C290 2.005 . S
C3632 N377 0.775 . S
C3613 C307 0.835 . S
C3668 C382 0.978 . S
C3649 C318 0.985 . S
C3704 C414 1.895 . S
C3685 C324 1.936 . S
C3740 N433 1.016 . S
C3721 C340 1.009 . S
C3757 C345 2.125 . S
C3776 N354 2.126 . S
C3793 C274 1.754 . S
C3812 N870 1.729 . S
C3848 N778 1.147 . S
C3829 C279 1.181 . S
C3884 C897 1.879 . S
C3865 C291 1.872 . S
C3920 C805 1.148 . S
C3901 C302 1.143 . S
C3937 C313 1.468 . S
C3956 C819 1.459 . S
C3992 C736 1.874 . S
C3973 C323 1.876 . S
C4028 C842 1.379 . S
C4009 C335 1.368 . S
C4045 C351 1.833 . S
C4064 N745 1.776 . S
C4100 N801 1.740 . S
C4081 C269 1.771 . S
C4136 N732 1.229 . S
C4117 C312 1.233 . S
C4172 N837 1.633 . S
C4153 C329 1.675 . S
C4189 C334 1.217 . S
C4208 C750 1.222 . S
C4225 C346 1.842 . S
C4244 N814 1.816 . S
C4261 C296 1.937 . S
C4280 C782 1.941 . S
C4297 C301 1.264 . S
C4316 N893 1.227 . S
C4352 C874 1.282 . S
C4333 C280 1.271 . S
