# Generated by pormake.
# Topology anh, (6,3)-cn, num edge types: 1
# Building blocks:
#     Node 0, Type 0, BuildingBlock: BETFEN_clean_sbu_0, # of connection points: 6
#     Node 1, Type 0, BuildingBlock: BETFEN_clean_sbu_0, # of connection points: 6
#     Node 2, Type 0, BuildingBlock: BETFEN_clean_sbu_0, # of connection points: 6
#     Node 3, Type 1, BuildingBlock: MIDCAF_clean_linker_0, # of connection points: 3
#     Node 4, Type 1, BuildingBlock: MIDCAF_clean_linker_0, # of connection points: 3
#     Node 5, Type 1, BuildingBlock: MIDCAF_clean_linker_0, # of connection points: 3
#     Node 6, Type 1, BuildingBlock: MIDCAF_clean_linker_0, # of connection points: 3
#     Node 7, Type 1, BuildingBlock: MIDCAF_clean_linker_0, # of connection points: 3
#     Node 8, Type 1, BuildingBlock: MIDCAF_clean_linker_0, # of connection points: 3
#     Edge 9, Type (0, 1), BuildingBlock: AJUNOK_clean_linker_0, # of connection points: 2
#     Edge 10, Type (0, 1), BuildingBlock: AJUNOK_clean_linker_0, # of connection points: 2
#     Edge 11, Type (0, 1), BuildingBlock: AJUNOK_clean_linker_0, # of connection points: 2
#     Edge 12, Type (0, 1), BuildingBlock: AJUNOK_clean_linker_0, # of connection points: 2
#     Edge 13, Type (0, 1), BuildingBlock: AJUNOK_clean_linker_0, # of connection points: 2
#     Edge 14, Type (0, 1), BuildingBlock: AJUNOK_clean_linker_0, # of connection points: 2
#     Edge 15, Type (0, 1), BuildingBlock: AJUNOK_clean_linker_0, # of connection points: 2
#     Edge 16, Type (0, 1), BuildingBlock: AJUNOK_clean_linker_0, # of connection points: 2
#     Edge 17, Type (0, 1), BuildingBlock: AJUNOK_clean_linker_0, # of connection points: 2
#     Edge 18, Type (0, 1), BuildingBlock: AJUNOK_clean_linker_0, # of connection points: 2
#     Edge 19, Type (0, 1), BuildingBlock: AJUNOK_clean_linker_0, # of connection points: 2
#     Edge 20, Type (0, 1), BuildingBlock: AJUNOK_clean_linker_0, # of connection points: 2
#     Edge 21, Type (0, 1), BuildingBlock: AJUNOK_clean_linker_0, # of connection points: 2
#     Edge 22, Type (0, 1), BuildingBlock: AJUNOK_clean_linker_0, # of connection points: 2
#     Edge 23, Type (0, 1), BuildingBlock: AJUNOK_clean_linker_0, # of connection points: 2
#     Edge 24, Type (0, 1), BuildingBlock: AJUNOK_clean_linker_0, # of connection points: 2
#     Edge 25, Type (0, 1), BuildingBlock: AJUNOK_clean_linker_0, # of connection points: 2
#     Edge 26, Type (0, 1), BuildingBlock: AJUNOK_clean_linker_0, # of connection points: 2
# Relax obj value: 0.215
# Max RMSD: 0.224
# Mean RMSD: 0.165
data_MOF--net-anh--node1-BETFEN_clean_sbu_0--node2-MIDCAF_clean_linker_0--edge1-AJUNOK_clean_linker_0
_symmetry_space_group_name_H-M    P1
_symmetry_Int_Tables_number       1
_symmetry_cell_setting            triclinic
loop_
_symmetry_equiv_pos_as_xyz
'x, y, z'
_cell_length_a     27.648668
_cell_length_b     28.399288
_cell_length_c     52.733534
_cell_angle_alpha  91.596139
_cell_angle_beta   91.394611
_cell_angle_gamma 101.12963
loop_
_atom_site_label
_atom_site_type_symbol
_atom_site_fract_x
_atom_site_fract_y
_atom_site_fract_z
_atom_type_partial_charge
Pr0 Pr 0.05636 0.54325 0.14912 0.0
Pr1 Pr 0.07929 0.65664 0.14238 0.0
C2 C 1.02142 0.45099 0.15969 0.0
C3 C 0.97415 0.41981 0.16592 0.0
C4 C 0.94443 0.39261 0.1466 0.0
C5 C 0.90017 0.36244 0.1523 0.0
C6 C 0.88496 0.35839 0.17747 0.0
C7 C 0.91445 0.38569 0.19679 0.0
C8 C 0.95869 0.41598 0.1911 0.0
C9 C 0.07869 0.57481 0.10066 0.0
C10 C 0.9627 0.60381 0.1447 0.0
C11 C 0.11144 0.7443 0.12452 0.0
C12 C 0.15156 0.78313 0.13396 0.0
C13 C 0.16609 0.7858 0.15972 0.0
C14 C 0.20764 0.81867 0.16848 0.0
C15 C 0.23575 0.84946 0.15165 0.0
C16 C 0.22064 0.84762 0.12591 0.0
C17 C 0.17882 0.81451 0.11711 0.0
C18 C 0.07999 0.63759 0.19442 0.0
C19 C 0.17214 0.59625 0.15046 0.0
O20 O 0.04275 0.48302 0.1769 0.0
O21 O 1.02486 0.46675 0.13659 0.0
O22 O 0.05063 0.59192 0.11538 0.0
O23 O 0.09567 0.53973 0.11061 0.0
O24 O 0.99372 0.64236 0.13768 0.0
O25 O 0.97765 0.56409 0.1513 0.0
O26 O 0.12586 0.70591 0.11559 0.0
O27 O 0.07306 0.73444 0.13898 0.0
O28 O 0.0723 0.60757 0.17616 0.0
O29 O 0.08773 0.6806 0.1858 0.0
O30 O 0.14111 0.55874 0.15868 0.0
O31 O 0.15651 0.6336 0.14105 0.0
H32 H 0.95541 0.39453 0.12702 0.0
H33 H 0.87777 0.34236 0.137 0.0
H34 H 0.90368 0.38295 0.21639 0.0
H35 H 0.98087 0.4361 0.20646 0.0
H36 H 0.14604 0.76162 0.17304 0.0
H37 H 0.21826 0.81955 0.18843 0.0
H38 H 0.24204 0.87059 0.1125 0.0
H39 H 0.16859 0.81246 0.09709 0.0
Pr40 Pr 0.59801 0.0997 0.51829 0.0
Pr41 Pr 0.48678 0.07798 0.51845 0.0
C42 C 0.69371 0.13473 0.50971 0.0
C43 C 0.72474 0.18022 0.50201 0.0
C44 C 0.76449 0.20287 0.51782 0.0
C45 C 0.79511 0.24521 0.51058 0.0
C46 C 0.78672 0.2657 0.48729 0.0
C47 C 0.74673 0.24305 0.47153 0.0
C48 C 0.71588 0.20095 0.47887 0.0
C49 C 0.5573 0.0842 0.56584 0.0
C50 C 0.5373 0.1921 0.52046 0.0
C51 C 0.39195 1.0395 0.52668 0.0
C52 C 0.36225 0.99193 0.51984 0.0
C53 C 0.37768 0.96361 0.50058 0.0
C54 C 0.35063 0.91782 0.4944 0.0
C55 C 0.30801 0.89908 0.50763 0.0
C56 C 0.29266 0.92757 0.52696 0.0
C57 C 0.31971 0.97366 0.53306 0.0
C58 C 0.52459 0.09137 0.47028 0.0
C59 C 0.549 0.98495 0.51707 0.0
O60 O 0.66302 0.11053 0.49255 0.0
O61 O 0.67523 0.13448 0.53231 0.0
O62 O 0.54348 0.10952 0.54898 0.0
O63 O 0.59518 1.06662 0.55886 0.0
O64 O 0.49837 0.16117 0.52782 0.0
O65 O 0.57644 0.17618 0.5123 0.0
O66 O 0.42741 1.03972 0.54357 0.0
O67 O 0.40565 1.06725 0.5077 0.0
O68 O 0.54076 1.06729 0.48715 0.0
O69 O 0.48674 0.10823 0.4778 0.0
O70 O 0.58993 1.01621 0.51313 0.0
O71 O 0.50718 0.99995 0.52123 0.0
H72 H 0.7721 0.1876 0.53575 0.0
H73 H 0.8255 0.26189 0.52318 0.0
H74 H 0.73991 0.25718 0.4532 0.0
H75 H 0.68552 0.18438 0.46622 0.0
H76 H 0.41068 0.977 0.49026 0.0
H77 H 0.36272 0.89737 0.47897 0.0
H78 H 0.25996 0.91406 0.53746 0.0
H79 H 0.30758 0.9949 0.54815 0.0
Pr80 Pr 0.57552 0.56218 0.81721 0.0
Pr81 Pr 0.58905 0.66306 0.83734 0.0
C82 C 0.58621 0.48022 0.79377 0.0
C83 C 0.61403 0.44424 0.802 0.0
C84 C 0.63318 0.44647 0.82704 0.0
C85 C 0.64964 0.40703 0.83692 0.0
C86 C 0.64733 0.36529 0.82173 0.0
C87 C 0.6333 0.36549 0.79588 0.0
C88 C 0.6164 0.40468 0.78611 0.0
C89 C 0.5739 0.56894 0.86996 0.0
C90 C 0.69058 0.62484 0.83013 0.0
C91 C 0.57596 0.74165 0.86357 0.0
C92 C 0.53204 0.76344 0.86447 0.0
C93 C 0.49857 0.75662 0.84369 0.0
C94 C 0.45548 0.775 0.84454 0.0
C95 C 0.44459 0.80016 0.86631 0.0
C96 C 0.47774 0.80619 0.88737 0.0
C97 C 0.52113 0.78767 0.88648 0.0
C98 C 0.59048 0.65457 0.78439 0.0
C99 C 0.4743 0.60047 0.82438 0.0
O100 O 0.61246 0.52183 0.78821 0.0
O101 O 0.54835 0.48363 0.80761 0.0
O102 O 0.60367 0.59562 0.85636 0.0
O103 O 0.54538 0.53543 0.85648 0.0
O104 O 0.67138 0.65693 0.84292 0.0
O105 O 0.662 0.58967 0.81677 0.0
O106 O 0.5706 0.69943 0.87354 0.0
O107 O 0.59829 0.74376 0.84189 0.0
O108 O 0.56032 0.62907 0.79828 0.0
O109 O 0.62037 0.68766 0.79766 0.0
O110 O 0.49384 0.57053 0.81017 0.0
O111 O 0.50292 0.63456 0.8384 0.0
H112 H 0.63196 0.47726 0.83946 0.0
H113 H 0.66016 0.4076 0.85687 0.0
H114 H 0.63063 0.33348 0.78384 0.0
H115 H 0.60198 0.40265 0.76674 0.0
H116 H 0.50585 0.73723 0.82665 0.0
H117 H 0.43164 0.77103 0.82769 0.0
H118 H 0.47049 0.82593 0.90427 0.0
H119 H 0.54621 0.79245 0.90287 0.0
C120 C 0.41484 0.96755 0.22443 0.0
C121 C 0.40876 0.97325 0.19827 0.0
C122 C 0.44261 1.00818 0.18616 0.0
C123 C 0.48157 1.03716 0.20007 0.0
H124 H 0.61476 0.13774 0.19342 0.0
H125 H 0.68025 0.19548 0.17447 0.0
H126 H 0.73187 0.25225 0.24914 0.0
H127 H 0.66674 0.19574 0.26809 0.0
H128 H 0.61084 0.15916 0.31565 0.0
H129 H 0.60791 0.15856 0.36187 0.0
H130 H 0.51774 1.01644 0.3573 0.0
H131 H 0.51983 1.01686 0.3109 0.0
H132 H 0.45664 0.99111 0.25851 0.0
H133 H 0.38912 0.94105 0.23427 0.0
H134 H 0.43915 1.01282 0.16592 0.0
H135 H 0.50691 1.06393 0.19022 0.0
N136 N 0.56182 0.09623 0.23016 0.0
N137 N 0.59833 0.12264 0.26993 0.0
N138 N 0.52919 1.06041 0.26726 0.0
C139 C 0.59752 0.12597 0.24432 0.0
C140 C 0.56454 0.08998 0.28156 0.0
C141 C 0.5274 1.06335 0.24156 0.0
C142 C 0.63557 0.16178 0.23231 0.0
C143 C 0.6399 0.16271 0.20579 0.0
C144 C 0.67749 0.19554 0.19492 0.0
C145 C 0.71122 0.22804 0.21039 0.0
C146 C 0.70618 0.22778 0.23678 0.0
C147 C 0.66893 0.19507 0.24761 0.0
C148 C 0.56531 0.08812 0.30957 0.0
C149 C 0.59079 0.12749 0.32442 0.0
C150 C 0.58919 0.12727 0.35085 0.0
C151 C 0.56291 0.08737 0.36294 0.0
C152 C 0.5387 1.04737 0.34828 0.0
C153 C 0.53961 1.04783 0.32178 0.0
C154 C 0.48732 1.03181 0.22638 0.0
C155 C 0.45353 0.99646 0.23832 0.0
C156 C 0.51799 0.41458 0.55623 0.0
C157 C 0.53743 0.40061 0.53344 0.0
C158 C 0.55713 0.43743 0.51687 0.0
C159 C 0.55856 0.48653 0.52338 0.0
H160 H 0.4833 0.66484 0.52344 0.0
H161 H 0.48065 0.74764 0.51145 0.0
H162 H 0.62956 0.79414 0.5411 0.0
H163 H 0.63216 0.71218 0.55243 0.0
H164 H 0.57731 0.68904 0.62063 0.0
H165 H 0.58646 0.70139 0.66648 0.0
H166 H 0.57352 0.54884 0.67508 0.0
H167 H 0.56334 0.53597 0.62914 0.0
H168 H 0.5054 0.4717 0.58088 0.0
H169 H 0.50266 0.38787 0.56961 0.0
H170 H 0.5717 0.42835 0.4989 0.0
H171 H 0.57529 0.51374 0.51058 0.0
N172 N 0.54911 0.5906 0.54153 0.0
N173 N 0.56352 0.64188 0.57805 0.0
N174 N 0.55491 0.55917 0.58222 0.0
C175 C 0.55665 0.6362 0.55251 0.0
C176 C 0.56259 0.60391 0.59307 0.0
C177 C 0.54831 0.55158 0.55666 0.0
C178 C 0.55854 0.68133 0.53816 0.0
C179 C 0.51615 0.69242 0.52627 0.0
C180 C 0.51439 0.74019 0.51984 0.0
C181 C 0.55507 0.77813 0.52502 0.0
C182 C 0.59789 0.76629 0.53607 0.0
C183 C 0.59949 0.71895 0.54254 0.0
C184 C 0.56955 0.61143 0.62104 0.0
C185 C 0.57662 0.658 0.63218 0.0
C186 C 0.5823 0.66523 0.6585 0.0
C187 C 0.58132 0.62616 0.67436 0.0
C188 C 0.5744 0.57963 0.66331 0.0
C189 C 0.56867 0.57233 0.63696 0.0
C190 C 0.54073 0.50018 0.54674 0.0
C191 C 0.51976 0.46314 0.56275 0.0
C192 C 0.92096 0.65283 0.86947 0.0
C193 C 0.90214 0.63215 0.84591 0.0
C194 C 0.93363 0.61149 0.83023 0.0
C195 C 0.98198 0.60958 0.83857 0.0
H196 H 0.16966 0.64934 0.83138 0.0
H197 H 0.25134 0.64595 0.81472 0.0
H198 H 0.26211 0.52825 0.86308 0.0
H199 H 0.18142 0.53221 0.88005 0.0
H200 H 0.13846 0.55365 0.94103 0.0
H201 H 0.1384 0.5496 0.98715 0.0
H202 H 0.05727 0.66526 0.99111 0.0
H203 H 0.05451 0.66686 0.94488 0.0
H204 H 0.98112 0.66612 0.89641 0.0
H205 H 0.89793 0.66893 0.88209 0.0
H206 H 0.92065 0.5961 0.81171 0.0
H207 H 1.00465 0.59184 0.82653 0.0
N208 N 0.08471 0.60987 0.85973 0.0
N209 N 0.12931 0.59925 0.89715 0.0
N210 N 0.05206 0.62052 0.89978 0.0
C211 C 0.12607 0.59957 0.87138 0.0
C212 C 0.09269 0.61019 0.91143 0.0
C213 C 0.04717 0.61997 0.87409 0.0
C214 C 0.16912 0.59094 0.85695 0.0
C215 C 0.18883 0.62181 0.83782 0.0
C216 C 0.23563 0.62008 0.82843 0.0
C217 C 0.26292 0.58672 0.83757 0.0
C218 C 0.24169 0.55388 0.85546 0.0
C219 C 0.19556 0.55627 0.86521 0.0
C220 C 0.09638 0.61043 0.93941 0.0
C221 C 0.12106 0.57847 0.95182 0.0
C222 C 0.12144 0.57656 0.9783 0.0
C223 C 0.09845 0.60763 0.99297 0.0
C224 C 0.07498 0.64054 0.98044 0.0
C225 C 0.07351 0.64157 0.95397 0.0
C226 C 0.99966 0.62818 0.86277 0.0
C227 C 0.96883 0.65091 0.87775 0.0
C228 C 0.20775 0.70357 0.44393 0.0
C229 C 0.19292 0.71835 0.46763 0.0
C230 C 0.14866 0.69379 0.47745 0.0
C231 C 0.11933 0.65548 0.46357 0.0
H232 H 1.02885 0.51007 0.46751 0.0
H233 H 0.96779 0.44658 0.48536 0.0
H234 H 0.89097 0.42119 0.41261 0.0
H235 H 0.95178 0.48433 0.39459 0.0
H236 H 1.00589 0.52985 0.34521 0.0
H237 H 1.00846 0.5426 0.29949 0.0
H238 H 0.14847 0.63985 0.31026 0.0
H239 H 0.14591 0.62805 0.35573 0.0
H240 H 0.19015 0.6562 0.41141 0.0
H241 H 0.24138 0.72235 0.4358 0.0
H242 H 0.13645 0.70473 0.49567 0.0
H243 H 0.08487 0.63783 0.47133 0.0
N244 N 0.06482 0.57168 0.43356 0.0
N245 N 1.03693 0.54159 0.39271 0.0
N246 N 0.10353 0.6063 0.39765 0.0
C247 C 1.03325 0.53951 0.41837 0.0
C248 C 0.07215 0.57482 0.38221 0.0
C249 C 0.10012 0.60518 0.42326 0.0
C250 C 0.99531 0.50233 0.42958 0.0
C251 C 0.99877 0.49125 0.45533 0.0
C252 C 0.96397 0.45484 0.46556 0.0
C253 C 0.9246 0.42934 0.45038 0.0
C254 C 0.92065 0.44078 0.42479 0.0
C255 C 0.95572 0.47673 0.41446 0.0
C256 C 0.07531 0.57851 0.35426 0.0
C257 C 1.03742 0.55367 0.33783 0.0
C258 C 1.03888 0.56082 0.31165 0.0
C259 C 0.07818 0.59291 0.30147 0.0
C260 C 0.11713 0.61583 0.31771 0.0
C261 C 0.11565 0.60889 0.34378 0.0
C262 C 0.13332 0.64184 0.4394 0.0
C263 C 0.17818 0.6659 0.42991 0.0
C264 C 0.56917 0.17683 0.79205 0.0
C265 C 0.57262 0.17736 0.81869 0.0
C266 C 0.53855 0.14421 0.8318 0.0
C267 C 0.50005 0.11329 0.81851 0.0
H268 H 0.33969 1.03783 0.82096 0.0
H269 H 0.31929 0.97524 0.85178 0.0
H270 H 0.33039 0.86823 0.7935 0.0
H271 H 0.34897 0.93041 0.76275 0.0
H272 H 0.40759 0.97524 0.70517 0.0
H273 H 0.43463 0.9762 0.66101 0.0
H274 H 0.46684 0.13123 0.66516 0.0
H275 H 0.44 0.13021 0.70876 0.0
H276 H 0.52926 0.14806 0.75839 0.0
H277 H 0.59408 0.20242 0.78128 0.0
H278 H 0.54055 0.14348 0.85231 0.0
H279 H 0.47352 0.08899 0.82911 0.0
N280 N 0.41752 1.0551 0.78936 0.0
N281 N 0.38241 1.02277 0.74998 0.0
N282 N 0.45324 0.08361 0.7518 0.0
C283 C 0.38143 1.02468 0.77583 0.0
C284 C 0.41788 1.0534 0.73796 0.0
C285 C 0.45383 0.08435 0.77745 0.0
C286 C 0.34759 0.98881 0.7898 0.0
C287 C 0.33484 1.00062 0.81448 0.0
C288 C 0.323 0.96479 0.83211 0.0
C289 C 0.32501 0.91706 0.82532 0.0
C290 C 0.32868 0.90464 0.79948 0.0
C291 C 0.33974 0.94044 0.78174 0.0
C292 C 0.42183 1.05266 0.71021 0.0
C293 C 0.419 1.00934 0.69625 0.0
C294 C 0.43505 1.00991 0.67122 0.0
C295 C 0.45345 1.0538 0.65991 0.0
C296 C 0.4528 0.09692 0.6734 0.0
C297 C 0.43741 0.09635 0.69832 0.0
C298 C 0.49533 0.11489 0.79191 0.0
C299 C 0.53121 0.14604 0.77886 0.0
C300 C 0.74246 0.63683 0.11392 0.0
C301 C 0.75304 0.60691 0.13319 0.0
C302 C 0.71358 0.57571 0.14406 0.0
C303 C 0.66469 0.57375 0.13525 0.0
H304 H 0.49079 0.57121 0.14882 0.0
H305 H 0.4089 0.57315 0.166 0.0
H306 H 0.3587 0.61111 0.09265 0.0
H307 H 0.43873 0.60922 0.07562 0.0
H308 H 0.48733 0.581 0.0272 0.0
H309 H 0.49044 0.57853 0.98097 0.0
H310 H 0.647 0.58135 0.98615 0.0
H311 H 0.64449 0.58466 0.03224 0.0
H312 H 0.68772 0.65677 0.08942 0.0
H313 H 0.77187 0.66048 0.10473 0.0
H314 H 0.72069 0.5521 0.15889 0.0
H315 H 0.63514 0.54807 0.14309 0.0
N316 N 0.56281 0.59254 0.11341 0.0
N317 N 0.5214 0.58479 0.07349 0.0
N318 N 0.60662 0.59096 0.07575 0.0
C319 C 0.51989 0.58816 0.09924 0.0
C320 C 0.5644 0.58587 0.06161 0.0
C321 C 0.60646 0.59418 0.10145 0.0
C322 C 0.47154 0.58985 0.1108 0.0
C323 C 0.46223 0.58005 0.13646 0.0
C324 C 0.41538 0.58088 0.14624 0.0
C325 C 0.37752 0.5923 0.13061 0.0
C326 C 0.38718 0.60245 0.10517 0.0
C327 C 0.43324 0.60107 0.09541 0.0
C328 C 0.5657 0.58327 0.03352 0.0
C329 C 0.52248 0.58117 0.01854 0.0
C330 C 0.52417 0.57968 0.99206 0.0
C331 C 0.56905 0.5804 0.98004 0.0
C332 C 0.61209 0.58187 0.99494 0.0
C333 C 0.61049 0.58341 0.02138 0.0
C334 C 0.65485 0.60237 0.11518 0.0
C335 C 0.69415 0.63455 0.10506 0.0
C336 C 0.25821 0.63634 0.14058 0.0
C337 C 0.22603 0.59576 0.14939 0.0
C338 C 0.30773 0.63558 0.13594 0.0
C339 C 0.32765 0.5944 0.14009 0.0
H340 H 0.24483 0.66874 0.13631 0.0
H341 H 0.33033 0.66711 0.12823 0.0
S342 S 0.26121 0.47978 0.16496 0.0
N343 N 0.21919 0.51392 0.16366 0.0
N344 N 0.31254 0.51288 0.1549 0.0
C345 C 0.29699 0.55441 0.15018 0.0
C346 C 0.24619 0.55499 0.15483 0.0
C347 C 0.87238 0.31205 0.48136 0.0
C348 C 0.82102 0.30921 0.47896 0.0
C349 C 0.9056 0.35152 0.47257 0.0
C350 C 0.88875 0.3895 0.46091 0.0
H351 H 0.88708 0.28297 0.48952 0.0
H352 H 0.94476 0.35172 0.47432 0.0
S353 S 0.75846 0.40215 0.45233 0.0
N354 N 0.75522 0.3499 0.46582 0.0
N355 N 0.81777 0.42361 0.44893 0.0
C356 C 0.83768 0.38781 0.45894 0.0
C357 C 0.80382 0.34781 0.46804 0.0
C358 C 0.41338 0.87622 0.87014 0.0
C359 C 0.4033 0.82649 0.86493 0.0
C360 C 0.38278 0.90541 0.86019 0.0
C361 C 0.34121 0.88582 0.84458 0.0
H362 H 0.44793 0.89345 0.8794 0.0
H363 H 0.39546 0.94391 0.86218 0.0
S364 S 0.29031 0.75642 0.83278 0.0
N365 N 0.34253 0.75783 0.84896 0.0
N366 N 0.28505 0.81302 0.82992 0.0
C367 C 0.32666 0.83567 0.84273 0.0
C368 C 0.35779 0.80589 0.85296 0.0
C369 C 0.87353 0.56198 0.14182 0.0
C370 C 0.90898 0.60488 0.14455 0.0
C371 C 0.82282 0.56265 0.13952 0.0
C372 C 0.80559 0.6062 0.14006 0.0
H373 H 0.88506 0.52767 0.14045 0.0
H374 H 0.79715 0.52895 0.13616 0.0
S375 S 0.88227 0.72786 0.15105 0.0
N376 N 0.92245 0.69178 0.15049 0.0
N377 N 0.82755 0.6928 0.14654 0.0
C378 C 0.84039 0.64904 0.14434 0.0
C379 C 0.89191 0.64845 0.14648 0.0
C380 C 0.2272 0.84466 0.49631 0.0
C381 C 0.27859 0.85083 0.50036 0.0
C382 C 0.19935 0.80086 0.48682 0.0
C383 C 0.22192 0.76176 0.48093 0.0
H384 H 0.20862 0.87448 0.49951 0.0
H385 H 0.16022 0.79826 0.48301 0.0
S386 S 0.35393 0.75699 0.49144 0.0
N387 N 0.34993 0.81227 0.50039 0.0
N388 N 0.29762 0.73034 0.48202 0.0
C389 C 0.27278 0.76665 0.486 0.0
C390 C 0.30109 0.81107 0.49585 0.0
C391 C 0.67148 0.28555 0.822 0.0
C392 C 0.64565 0.31826 0.83327 0.0
C393 C 0.65202 0.23621 0.82163 0.0
C394 C 0.60555 0.21877 0.83181 0.0
H395 H 0.70299 0.29845 0.81053 0.0
H396 H 0.66953 0.21268 0.80999 0.0
S397 S 0.53323 0.28881 0.87106 0.0
N398 N 0.57965 0.32899 0.86115 0.0
N399 N 0.54196 0.23653 0.85961 0.0
C400 C 0.58493 0.25017 0.84741 0.0
C401 C 0.60531 0.30024 0.84824 0.0
C402 C 0.50995 0.89864 0.52659 0.0
C403 C 0.54997 0.93182 0.51734 0.0
C404 C 0.51112 0.84917 0.52822 0.0
C405 C 0.55236 0.83018 0.52068 0.0
H406 H 0.47764 0.91106 0.53318 0.0
H407 H 0.47994 0.82586 0.53623 0.0
S408 S 0.66429 0.89997 0.492 0.0
N409 N 0.63053 0.94052 0.49851 0.0
N410 N 0.63236 0.84842 0.50129 0.0
C411 C 0.59173 0.86261 0.51044 0.0
C412 C 0.59063 0.91294 0.50884 0.0
C413 C 0.77703 0.66945 0.83988 0.0
C414 C 0.74488 0.62675 0.83175 0.0
C415 C 0.82796 0.67138 0.84324 0.0
C416 C 0.84907 0.63061 0.83881 0.0
H417 H 0.76273 0.70167 0.84399 0.0
H418 H 0.85094 0.70502 0.84983 0.0
S419 S 0.78107 0.50955 0.81762 0.0
N420 N 0.73814 0.54257 0.81911 0.0
N421 N 0.83342 0.54603 0.82596 0.0
C422 C 0.8175 0.58787 0.83018 0.0
C423 C 0.76561 0.58597 0.82657 0.0
C424 C 0.31603 0.86269 0.17595 0.0
C425 C 0.28178 0.88163 0.16115 0.0
C426 C 0.35776 0.89245 0.18715 0.0
C427 C 0.36695 0.94235 0.18399 0.0
H428 H 0.31015 0.82452 0.1792 0.0
H429 H 0.38273 0.87634 0.19871 0.0
S430 S 0.28887 1.00981 0.14688 0.0
N431 N 0.26006 0.95324 0.1436 0.0
N432 N 0.3387 1.00943 0.16475 0.0
C433 C 0.33378 0.96168 0.16865 0.0
C434 C 0.29116 0.93125 0.1572 0.0
C435 C 0.49575 0.26281 0.53006 0.0
C436 C 0.53768 0.24557 0.52203 0.0
C437 C 0.49568 0.31244 0.53291 0.0
C438 C 0.53745 0.34785 0.52784 0.0
H439 H 0.46256 0.23772 0.53452 0.0
H440 H 0.4624 0.32316 0.53936 0.0
S441 S 0.6573 0.32277 0.50639 0.0
N442 N 0.62251 0.26898 0.50885 0.0
N443 N 0.62232 0.36148 0.51441 0.0
C444 C 0.57944 0.33126 0.51939 0.0
C445 C 0.57959 0.28059 0.5165 0.0
C446 C 0.40042 0.63569 0.8348 0.0
C447 C 0.41971 0.59654 0.8252 0.0
C448 C 0.34959 0.63261 0.83762 0.0
C449 C 0.3157 0.59015 0.83126 0.0
H450 H 0.42481 0.66892 0.84066 0.0
H451 H 0.33681 0.6631 0.84587 0.0
S452 S 0.34595 0.47734 0.80487 0.0
N453 N 0.40001 0.51397 0.80867 0.0
N454 N 0.30448 0.5082 0.81446 0.0
C455 C 0.33406 0.55086 0.8213 0.0
C456 C 0.38596 0.55411 0.81807 0.0
C457 C 0.80482 0.34157 0.19963 0.0
C458 C 0.8388 0.3253 0.1838 0.0
C459 C 0.76262 0.31023 0.20733 0.0
C460 C 0.75284 0.26147 0.1995 0.0
H461 H 0.81118 0.37872 0.20633 0.0
H462 H 0.73782 0.32409 0.21987 0.0
S463 S 0.83056 0.20081 0.15832 0.0
N464 N 0.85997 0.25726 0.16059 0.0
N465 N 0.78053 0.19834 0.1751 0.0
C466 C 0.78591 0.24495 0.18322 0.0
C467 C 0.82894 0.27687 0.17538 0.0
C468 C 0.0468 0.59848 0.05931 0.0
C469 C 0.08607 0.58804 0.07406 0.0
C470 C 0.05149 0.60565 0.03322 0.0
C471 C 0.09599 0.60367 0.02106 0.0
H472 H 1.01155 0.599 0.06774 0.0
H473 H 1.01939 0.61116 0.02239 0.0
S474 S 0.21215 0.58533 0.05272 0.0
N475 N 0.17191 0.58023 0.07559 0.0
N476 N 0.1819 0.59631 0.02683 0.0
C477 C 0.13641 0.59601 0.03611 0.0
C478 C 0.13117 0.58761 0.06255 0.0
C479 C 0.52523 0.12575 0.42751 0.0
C480 C 0.53884 0.09146 0.44353 0.0
C481 C 0.53461 0.12491 0.40157 0.0
C482 C 0.55719 0.08927 0.39069 0.0
H483 H 0.50665 0.15317 0.43501 0.0
H484 H 0.5228 0.1515 0.38978 0.0
S485 S 0.60202 0.9926 0.42447 0.0
N486 N 0.57817 1.02214 0.44686 0.0
N487 N 0.59473 1.02001 0.39781 0.0
C488 C 0.5719 1.05532 0.4065 0.0
C489 C 0.56312 1.05663 0.43304 0.0
C490 C 0.55309 0.61286 0.74426 0.0
C491 C 0.58968 0.64824 0.75638 0.0
C492 C 0.55104 0.60571 0.71782 0.0
C493 C 0.58547 0.63367 0.70242 0.0
H494 H 0.52553 0.59054 0.75525 0.0
H495 H 0.52173 0.57854 0.70934 0.0
S496 S 0.69048 0.72897 0.72484 0.0
N497 N 0.6623 0.71035 0.75103 0.0
N498 N 0.6587 0.69661 0.70131 0.0
C499 C 0.6227 0.66872 0.7143 0.0
C500 C 0.62478 0.67603 0.74128 0.0
C501 C 0.48951 0.09478 0.59425 0.0
C502 C 0.5301 1.07303 0.58937 0.0
C503 C 0.46339 0.08641 0.61656 0.0
C504 C 0.47671 1.05585 0.63486 0.0
H505 H 0.47817 0.1192 0.58091 0.0
H506 H 0.43314 0.10486 0.6198 0.0
S507 S 0.57902 0.98876 0.6309 0.0
N508 N 0.58136 1.01822 0.60425 0.0
N509 N 0.53245 1.0029 0.6465 0.0
C510 C 0.51631 1.03272 0.62995 0.0
C511 C 0.54305 1.04131 0.60715 0.0
C512 C 0.53889 0.54076 0.91122 0.0
C513 C 0.57373 0.57287 0.89794 0.0
C514 C 0.5374 0.54369 0.93774 0.0
C515 C 0.5708 0.57875 0.95196 0.0
H516 H 0.51251 0.51305 0.90107 0.0
H517 H 0.5103 0.5179 0.9472 0.0
S518 S 0.66781 0.67274 0.9263 0.0
N519 N 0.64175 0.64156 0.90099 0.0
N520 N 0.63849 0.64742 0.95083 0.0
C521 C 0.60553 0.61139 0.93893 0.0
C522 C 0.60708 0.6084 0.91192 0.0
C523 C 0.07084 0.57858 0.22937 0.0
C524 C 0.07895 0.62644 0.22167 0.0
C525 C 0.07006 0.56775 0.25522 0.0
C526 C 0.07772 0.60447 0.2742 0.0
H527 H 0.06529 0.54931 0.21537 0.0
H528 H 0.0642 0.53047 0.26039 0.0
S529 S 0.09735 0.73545 0.26406 0.0
N530 N 0.09285 0.71074 0.23519 0.0
N531 N 0.09098 0.69035 0.28355 0.0
C532 C 0.08504 0.65237 0.26672 0.0
C533 C 0.08577 0.66337 0.24051 0.0
loop_
_geom_bond_atom_site_label_1
_geom_bond_atom_site_label_2
_geom_bond_distance
_geom_bond_site_symmetry_2
_ccdc_geom_bond_type
Pr0 C2 2.880 . S
Pr0 O20 2.562 . S
Pr0 O21 2.490 . S
Pr0 O22 2.695 1_655 S
Pr0 O23 2.512 . S
Pr0 O25 2.437 . S
Pr0 O28 2.436 . S
Pr0 O30 2.438 1_655 S
Pr1 C11 2.880 . S
Pr1 O22 2.436 . S
Pr1 O24 2.438 1_455 S
Pr1 O26 2.562 . S
Pr1 O27 2.490 . S
Pr1 O28 2.695 1_455 S
Pr1 O29 2.512 . S
Pr1 O31 2.437 . S
C2 Pr0 2.880 . S
C2 C3 1.491 . S
C2 O20 1.254 . S
C2 O21 1.225 . S
C3 C2 1.491 . S
C3 C4 1.392 . S
C3 C8 1.356 . S
C4 C3 1.392 . S
C4 C5 1.368 . S
C4 H32 0.929 . S
C5 C4 1.368 . S
C5 C6 1.386 . S
C5 H33 0.929 . S
C6 C5 1.386 . S
C6 C7 1.373 . S
C7 C6 1.373 . S
C7 C8 1.409 . S
C7 H34 0.931 . S
C8 C3 1.356 . S
C8 C7 1.409 . S
C8 H35 0.930 . S
C9 O22 1.270 . S
C9 O23 1.248 1_455 S
C10 O24 1.267 . S
C10 O25 1.278 . S
C11 Pr1 2.880 . S
C11 C12 1.491 . S
C11 O26 1.254 . S
C11 O27 1.225 . S
C12 C11 1.491 . S
C12 C13 1.392 . S
C12 C17 1.356 . S
C13 C12 1.392 . S
C13 C14 1.368 . S
C13 H36 0.929 . S
C14 C13 1.368 . S
C14 C15 1.386 . S
C14 H37 0.929 . S
C15 C14 1.386 . S
C15 C16 1.373 . S
C16 C15 1.373 . S
C16 C17 1.409 . S
C16 H38 0.931 . S
C17 C12 1.356 . S
C17 C16 1.409 . S
C17 H39 0.930 . S
C18 O28 1.270 1_455 S
C18 O29 1.248 . S
C19 O30 1.267 . S
C19 O31 1.278 . S
O20 Pr0 2.562 . S
O20 C2 1.254 . S
O21 Pr0 2.490 . S
O21 C2 1.225 . S
O22 Pr0 2.695 1_455 S
O22 Pr1 2.436 . S
O22 C9 1.270 . S
O23 Pr0 2.512 . S
O23 C9 1.248 1_655 S
O24 Pr1 2.438 1_655 S
O24 C10 1.267 . S
O25 Pr0 2.437 . S
O25 C10 1.278 . S
O26 Pr1 2.562 . S
O26 C11 1.254 . S
O27 Pr1 2.490 . S
O27 C11 1.225 . S
O28 Pr0 2.436 . S
O28 Pr1 2.695 1_655 S
O28 C18 1.270 1_655 S
O29 Pr1 2.512 . S
O29 C18 1.248 . S
O30 Pr0 2.438 1_455 S
O30 C19 1.267 . S
O31 Pr1 2.437 . S
O31 C19 1.278 . S
H32 C4 0.929 . S
H33 C5 0.929 . S
H34 C7 0.931 . S
H35 C8 0.930 . S
H36 C13 0.929 . S
H37 C14 0.929 . S
H38 C16 0.931 . S
H39 C17 0.930 . S
Pr40 C42 2.880 . S
Pr40 O60 2.562 . S
Pr40 O61 2.490 . S
Pr40 O62 2.695 1_545 S
Pr40 O63 2.512 . S
Pr40 O65 2.437 . S
Pr40 O68 2.436 . S
Pr40 O70 2.438 1_545 S
Pr41 C51 2.880 . S
Pr41 O62 2.436 . S
Pr41 O64 2.438 1_565 S
Pr41 O66 2.562 . S
Pr41 O67 2.490 . S
Pr41 O68 2.695 1_565 S
Pr41 O69 2.512 . S
Pr41 O71 2.437 . S
C42 Pr40 2.880 . S
C42 C43 1.491 . S
C42 O60 1.254 . S
C42 O61 1.225 . S
C43 C42 1.491 . S
C43 C44 1.392 . S
C43 C48 1.356 . S
C44 C43 1.392 . S
C44 C45 1.368 . S
C44 H72 0.929 . S
C45 C44 1.368 . S
C45 C46 1.386 . S
C45 H73 0.929 . S
C46 C45 1.386 . S
C46 C47 1.373 . S
C47 C46 1.373 . S
C47 C48 1.409 . S
C47 H74 0.931 . S
C48 C43 1.356 . S
C48 C47 1.409 . S
C48 H75 0.930 . S
C49 O62 1.270 1_545 S
C49 O63 1.248 . S
C50 O64 1.267 . S
C50 O65 1.278 . S
C51 Pr41 2.880 . S
C51 C52 1.491 . S
C51 O66 1.254 . S
C51 O67 1.225 . S
C52 C51 1.491 . S
C52 C53 1.392 . S
C52 C57 1.356 . S
C53 C52 1.392 . S
C53 C54 1.368 . S
C53 H76 0.929 . S
C54 C53 1.368 . S
C54 C55 1.386 . S
C54 H77 0.929 . S
C55 C54 1.386 . S
C55 C56 1.373 . S
C56 C55 1.373 . S
C56 C57 1.409 . S
C56 H78 0.931 . S
C57 C52 1.356 . S
C57 C56 1.409 . S
C57 H79 0.930 . S
C58 O68 1.270 . S
C58 O69 1.248 1_545 S
C59 O70 1.267 . S
C59 O71 1.278 . S
O60 Pr40 2.562 . S
O60 C42 1.254 . S
O61 Pr40 2.490 . S
O61 C42 1.225 . S
O62 Pr40 2.695 1_565 S
O62 Pr41 2.436 . S
O62 C49 1.270 1_565 S
O63 Pr40 2.512 . S
O63 C49 1.248 . S
O64 Pr41 2.438 1_545 S
O64 C50 1.267 . S
O65 Pr40 2.437 . S
O65 C50 1.278 . S
O66 Pr41 2.562 . S
O66 C51 1.254 . S
O67 Pr41 2.490 . S
O67 C51 1.225 . S
O68 Pr40 2.436 . S
O68 Pr41 2.695 1_545 S
O68 C58 1.270 . S
O69 Pr41 2.512 . S
O69 C58 1.248 1_565 S
O70 Pr40 2.438 1_565 S
O70 C59 1.267 . S
O71 Pr41 2.437 . S
O71 C59 1.278 . S
H72 C44 0.929 . S
H73 C45 0.929 . S
H74 C47 0.931 . S
H75 C48 0.930 . S
H76 C53 0.929 . S
H77 C54 0.929 . S
H78 C56 0.931 . S
H79 C57 0.930 . S
Pr80 C82 2.880 . S
Pr80 O100 2.562 . S
Pr80 O101 2.490 . S
Pr80 O102 2.695 . S
Pr80 O103 2.512 . S
Pr80 O105 2.437 . S
Pr80 O108 2.436 . S
Pr80 O110 2.438 . S
Pr81 C91 2.880 . S
Pr81 O102 2.436 . S
Pr81 O104 2.438 . S
Pr81 O106 2.562 . S
Pr81 O107 2.490 . S
Pr81 O108 2.695 . S
Pr81 O109 2.512 . S
Pr81 O111 2.437 . S
C82 Pr80 2.880 . S
C82 C83 1.491 . S
C82 O100 1.254 . S
C82 O101 1.225 . S
C83 C82 1.491 . S
C83 C84 1.392 . S
C83 C88 1.356 . S
C84 C83 1.392 . S
C84 C85 1.368 . S
C84 H112 0.929 . S
C85 C84 1.368 . S
C85 C86 1.386 . S
C85 H113 0.929 . S
C86 C85 1.386 . S
C86 C87 1.373 . S
C87 C86 1.373 . S
C87 C88 1.409 . S
C87 H114 0.931 . S
C88 C83 1.356 . S
C88 C87 1.409 . S
C88 H115 0.930 . S
C89 O102 1.270 . S
C89 O103 1.248 . S
C90 O104 1.267 . S
C90 O105 1.278 . S
C91 Pr81 2.880 . S
C91 C92 1.491 . S
C91 O106 1.254 . S
C91 O107 1.225 . S
C92 C91 1.491 . S
C92 C93 1.392 . S
C92 C97 1.356 . S
C93 C92 1.392 . S
C93 C94 1.368 . S
C93 H116 0.929 . S
C94 C93 1.368 . S
C94 C95 1.386 . S
C94 H117 0.929 . S
C95 C94 1.386 . S
C95 C96 1.373 . S
C96 C95 1.373 . S
C96 C97 1.409 . S
C96 H118 0.931 . S
C97 C92 1.356 . S
C97 C96 1.409 . S
C97 H119 0.930 . S
C98 O108 1.270 . S
C98 O109 1.248 . S
C99 O110 1.267 . S
C99 O111 1.278 . S
O100 Pr80 2.562 . S
O100 C82 1.254 . S
O101 Pr80 2.490 . S
O101 C82 1.225 . S
O102 Pr80 2.695 . S
O102 Pr81 2.436 . S
O102 C89 1.270 . S
O103 Pr80 2.512 . S
O103 C89 1.248 . S
O104 Pr81 2.438 . S
O104 C90 1.267 . S
O105 Pr80 2.437 . S
O105 C90 1.278 . S
O106 Pr81 2.562 . S
O106 C91 1.254 . S
O107 Pr81 2.490 . S
O107 C91 1.225 . S
O108 Pr80 2.436 . S
O108 Pr81 2.695 . S
O108 C98 1.270 . S
O109 Pr81 2.512 . S
O109 C98 1.248 . S
O110 Pr80 2.438 . S
O110 C99 1.267 . S
O111 Pr81 2.437 . S
O111 C99 1.278 . S
H112 C84 0.929 . S
H113 C85 0.929 . S
H114 C87 0.931 . S
H115 C88 0.930 . S
H116 C93 0.929 . S
H117 C94 0.929 . S
H118 C96 0.931 . S
H119 C97 0.930 . S
C120 C121 1.384 . S
C120 H133 0.947 . S
C120 C155 1.382 . S
C121 C120 1.384 . S
C121 C122 1.378 . S
C122 C121 1.378 . S
C122 C123 1.378 . S
C122 H134 0.952 . S
C123 C122 1.378 . S
C123 H135 0.950 . S
C123 C154 1.383 . S
H124 C143 0.947 . S
H125 C144 0.946 . S
H126 C146 0.953 . S
H127 C147 0.945 . S
H128 C149 0.952 . S
H129 C150 0.949 . S
H130 C152 0.950 . S
H131 C153 0.948 . S
H132 C155 0.951 . S
H133 C120 0.947 . S
H134 C122 0.952 . S
H135 C123 0.950 . S
N136 C139 1.382 . S
N136 C141 1.363 1_545 S
N137 C139 1.371 . S
N137 C140 1.372 . S
N138 C140 1.361 1_565 S
N138 C141 1.377 . S
C139 N136 1.382 . S
C139 N137 1.371 . S
C139 C142 1.480 . S
C140 N137 1.372 . S
C140 N138 1.361 1_545 S
C140 C148 1.457 . S
C141 N136 1.363 1_565 S
C141 N138 1.377 . S
C141 C154 1.479 . S
C142 C139 1.480 . S
C142 C143 1.383 . S
C142 C147 1.385 . S
C143 H124 0.947 . S
C143 C142 1.383 . S
C143 C144 1.388 . S
C144 H125 0.946 . S
C144 C143 1.388 . S
C144 C145 1.384 . S
C145 C144 1.384 . S
C145 C146 1.377 . S
C146 H126 0.953 . S
C146 C145 1.377 . S
C146 C147 1.369 . S
C147 H127 0.945 . S
C147 C142 1.385 . S
C147 C146 1.369 . S
C148 C140 1.457 . S
C148 C149 1.372 . S
C148 C153 1.364 1_545 S
C149 H128 0.952 . S
C149 C148 1.372 . S
C149 C150 1.389 . S
C150 H129 0.949 . S
C150 C149 1.389 . S
C150 C151 1.387 . S
C151 C150 1.387 . S
C151 C152 1.372 1_545 S
C152 H130 0.950 . S
C152 C151 1.372 1_565 S
C152 C153 1.379 . S
C153 H131 0.948 . S
C153 C148 1.364 1_565 S
C153 C152 1.379 . S
C154 C123 1.383 . S
C154 C141 1.479 . S
C154 C155 1.398 . S
C155 C120 1.382 . S
C155 H132 0.951 . S
C155 C154 1.398 . S
C156 C157 1.384 . S
C156 H169 0.947 . S
C156 C191 1.382 . S
C157 C156 1.384 . S
C157 C158 1.378 . S
C158 C157 1.378 . S
C158 C159 1.378 . S
C158 H170 0.952 . S
C159 C158 1.378 . S
C159 H171 0.950 . S
C159 C190 1.383 . S
H160 C179 0.947 . S
H161 C180 0.946 . S
H162 C182 0.953 . S
H163 C183 0.945 . S
H164 C185 0.952 . S
H165 C186 0.949 . S
H166 C188 0.950 . S
H167 C189 0.948 . S
H168 C191 0.951 . S
H169 C156 0.947 . S
H170 C158 0.952 . S
H171 C159 0.950 . S
N172 C175 1.382 . S
N172 C177 1.363 . S
N173 C175 1.371 . S
N173 C176 1.372 . S
N174 C176 1.361 . S
N174 C177 1.377 . S
C175 N172 1.382 . S
C175 N173 1.371 . S
C175 C178 1.480 . S
C176 N173 1.372 . S
C176 N174 1.361 . S
C176 C184 1.457 . S
C177 N172 1.363 . S
C177 N174 1.377 . S
C177 C190 1.479 . S
C178 C175 1.480 . S
C178 C179 1.383 . S
C178 C183 1.385 . S
C179 H160 0.947 . S
C179 C178 1.383 . S
C179 C180 1.388 . S
C180 H161 0.946 . S
C180 C179 1.388 . S
C180 C181 1.384 . S
C181 C180 1.384 . S
C181 C182 1.377 . S
C182 H162 0.953 . S
C182 C181 1.377 . S
C182 C183 1.369 . S
C183 H163 0.945 . S
C183 C178 1.385 . S
C183 C182 1.369 . S
C184 C176 1.457 . S
C184 C185 1.372 . S
C184 C189 1.364 . S
C185 H164 0.952 . S
C185 C184 1.372 . S
C185 C186 1.389 . S
C186 H165 0.949 . S
C186 C185 1.389 . S
C186 C187 1.387 . S
C187 C186 1.387 . S
C187 C188 1.372 . S
C188 H166 0.950 . S
C188 C187 1.372 . S
C188 C189 1.379 . S
C189 H167 0.948 . S
C189 C184 1.364 . S
C189 C188 1.379 . S
C190 C159 1.383 . S
C190 C177 1.479 . S
C190 C191 1.398 . S
C191 C156 1.382 . S
C191 H168 0.951 . S
C191 C190 1.398 . S
C192 C193 1.384 . S
C192 H205 0.947 . S
C192 C227 1.382 . S
C193 C192 1.384 . S
C193 C194 1.378 . S
C194 C193 1.378 . S
C194 C195 1.378 . S
C194 H206 0.952 . S
C195 C194 1.378 . S
C195 H207 0.950 . S
C195 C226 1.383 . S
H196 C215 0.947 . S
H197 C216 0.946 . S
H198 C218 0.953 . S
H199 C219 0.945 . S
H200 C221 0.952 . S
H201 C222 0.949 . S
H202 C224 0.950 . S
H203 C225 0.948 . S
H204 C227 0.951 . S
H205 C192 0.947 . S
H206 C194 0.952 . S
H207 C195 0.950 . S
N208 C211 1.382 . S
N208 C213 1.363 1_455 S
N209 C211 1.371 . S
N209 C212 1.372 . S
N210 C212 1.361 1_655 S
N210 C213 1.377 . S
C211 N208 1.382 . S
C211 N209 1.371 . S
C211 C214 1.480 . S
C212 N209 1.372 . S
C212 N210 1.361 1_455 S
C212 C220 1.457 . S
C213 N208 1.363 1_655 S
C213 N210 1.377 . S
C213 C226 1.479 . S
C214 C211 1.480 . S
C214 C215 1.383 . S
C214 C219 1.385 . S
C215 H196 0.947 . S
C215 C214 1.383 . S
C215 C216 1.388 . S
C216 H197 0.946 . S
C216 C215 1.388 . S
C216 C217 1.384 . S
C217 C216 1.384 . S
C217 C218 1.377 . S
C218 H198 0.953 . S
C218 C217 1.377 . S
C218 C219 1.369 . S
C219 H199 0.945 . S
C219 C214 1.385 . S
C219 C218 1.369 . S
C220 C212 1.457 . S
C220 C221 1.372 . S
C220 C225 1.364 1_455 S
C221 H200 0.952 . S
C221 C220 1.372 . S
C221 C222 1.389 . S
C222 H201 0.949 . S
C222 C221 1.389 . S
C222 C223 1.387 . S
C223 C222 1.387 . S
C223 C224 1.372 1_455 S
C224 H202 0.950 . S
C224 C223 1.372 1_655 S
C224 C225 1.379 . S
C225 H203 0.948 . S
C225 C220 1.364 1_655 S
C225 C224 1.379 . S
C226 C195 1.383 . S
C226 C213 1.479 . S
C226 C227 1.398 . S
C227 C192 1.382 . S
C227 H204 0.951 . S
C227 C226 1.398 . S
C228 C229 1.384 . S
C228 H241 0.947 . S
C228 C263 1.382 . S
C229 C228 1.384 . S
C229 C230 1.378 . S
C230 C229 1.378 . S
C230 C231 1.378 . S
C230 H242 0.952 . S
C231 C230 1.378 . S
C231 H243 0.950 . S
C231 C262 1.383 . S
H232 C251 0.947 . S
H233 C252 0.946 . S
H234 C254 0.953 . S
H235 C255 0.945 . S
H236 C257 0.952 . S
H237 C258 0.949 . S
H238 C260 0.950 . S
H239 C261 0.948 . S
H240 C263 0.951 . S
H241 C228 0.947 . S
H242 C230 0.952 . S
H243 C231 0.950 . S
N244 C247 1.382 1_455 S
N244 C249 1.363 . S
N245 C247 1.371 . S
N245 C248 1.372 1_655 S
N246 C248 1.361 . S
N246 C249 1.377 . S
C247 N244 1.382 1_655 S
C247 N245 1.371 . S
C247 C250 1.480 . S
C248 N245 1.372 1_455 S
C248 N246 1.361 . S
C248 C256 1.457 . S
C249 N244 1.363 . S
C249 N246 1.377 . S
C249 C262 1.479 . S
C250 C247 1.480 . S
C250 C251 1.383 . S
C250 C255 1.385 . S
C251 H232 0.947 . S
C251 C250 1.383 . S
C251 C252 1.388 . S
C252 H233 0.946 . S
C252 C251 1.388 . S
C252 C253 1.384 . S
C253 C252 1.384 . S
C253 C254 1.377 . S
C254 H234 0.953 . S
C254 C253 1.377 . S
C254 C255 1.369 . S
C255 H235 0.945 . S
C255 C250 1.385 . S
C255 C254 1.369 . S
C256 C248 1.457 . S
C256 C257 1.372 1_455 S
C256 C261 1.364 . S
C257 H236 0.952 . S
C257 C256 1.372 1_655 S
C257 C258 1.389 . S
C258 H237 0.949 . S
C258 C257 1.389 . S
C258 C259 1.387 . S
C259 C258 1.387 . S
C259 C260 1.372 1_655 S
C260 H238 0.950 . S
C260 C259 1.372 1_455 S
C260 C261 1.379 . S
C261 H239 0.948 . S
C261 C256 1.364 . S
C261 C260 1.379 . S
C262 C231 1.383 . S
C262 C249 1.479 . S
C262 C263 1.398 . S
C263 C228 1.382 . S
C263 H240 0.951 . S
C263 C262 1.398 . S
C264 C265 1.384 . S
C264 H277 0.947 . S
C264 C299 1.382 . S
C265 C264 1.384 . S
C265 C266 1.378 . S
C266 C265 1.378 . S
C266 C267 1.378 . S
C266 H278 0.952 . S
C267 C266 1.378 . S
C267 H279 0.950 . S
C267 C298 1.383 . S
H268 C287 0.947 . S
H269 C288 0.946 . S
H270 C290 0.953 . S
H271 C291 0.945 . S
H272 C293 0.952 . S
H273 C294 0.949 . S
H274 C296 0.950 . S
H275 C297 0.948 . S
H276 C299 0.951 . S
H277 C264 0.947 . S
H278 C266 0.952 . S
H279 C267 0.950 . S
N280 C283 1.382 1_545 S
N280 C285 1.363 . S
N281 C283 1.371 . S
N281 C284 1.372 1_565 S
N282 C284 1.361 . S
N282 C285 1.377 . S
C283 N280 1.382 1_565 S
C283 N281 1.371 . S
C283 C286 1.480 . S
C284 N281 1.372 1_545 S
C284 N282 1.361 . S
C284 C292 1.457 . S
C285 N280 1.363 . S
C285 N282 1.377 . S
C285 C298 1.479 . S
C286 C283 1.480 . S
C286 C287 1.383 . S
C286 C291 1.385 . S
C287 H268 0.947 . S
C287 C286 1.383 . S
C287 C288 1.388 . S
C288 H269 0.946 . S
C288 C287 1.388 . S
C288 C289 1.384 . S
C289 C288 1.384 . S
C289 C290 1.377 . S
C290 H270 0.953 . S
C290 C289 1.377 . S
C290 C291 1.369 . S
C291 H271 0.945 . S
C291 C286 1.385 . S
C291 C290 1.369 . S
C292 C284 1.457 . S
C292 C293 1.372 1_545 S
C292 C297 1.364 . S
C293 H272 0.952 . S
C293 C292 1.372 1_565 S
C293 C294 1.389 . S
C294 H273 0.949 . S
C294 C293 1.389 . S
C294 C295 1.387 1_565 S
C295 C294 1.387 1_545 S
C295 C296 1.372 . S
C296 H274 0.950 . S
C296 C295 1.372 . S
C296 C297 1.379 . S
C297 H275 0.948 . S
C297 C292 1.364 . S
C297 C296 1.379 . S
C298 C267 1.383 . S
C298 C285 1.479 . S
C298 C299 1.398 . S
C299 C264 1.382 . S
C299 H276 0.951 . S
C299 C298 1.398 . S
C300 C301 1.384 . S
C300 H313 0.947 . S
C300 C335 1.382 . S
C301 C300 1.384 . S
C301 C302 1.378 . S
C302 C301 1.378 . S
C302 C303 1.378 . S
C302 H314 0.952 . S
C303 C302 1.378 . S
C303 H315 0.950 . S
C303 C334 1.383 . S
H304 C323 0.947 . S
H305 C324 0.946 . S
H306 C326 0.953 . S
H307 C327 0.945 . S
H308 C329 0.952 . S
H309 C330 0.949 . S
H310 C332 0.950 . S
H311 C333 0.948 . S
H312 C335 0.951 . S
H313 C300 0.947 . S
H314 C302 0.952 . S
H315 C303 0.950 . S
N316 C319 1.382 . S
N316 C321 1.363 . S
N317 C319 1.371 . S
N317 C320 1.372 . S
N318 C320 1.361 . S
N318 C321 1.377 . S
C319 N316 1.382 . S
C319 N317 1.371 . S
C319 C322 1.480 . S
C320 N317 1.372 . S
C320 N318 1.361 . S
C320 C328 1.457 . S
C321 N316 1.363 . S
C321 N318 1.377 . S
C321 C334 1.479 . S
C322 C319 1.480 . S
C322 C323 1.383 . S
C322 C327 1.385 . S
C323 H304 0.947 . S
C323 C322 1.383 . S
C323 C324 1.388 . S
C324 H305 0.946 . S
C324 C323 1.388 . S
C324 C325 1.384 . S
C325 C324 1.384 . S
C325 C326 1.377 . S
C326 H306 0.953 . S
C326 C325 1.377 . S
C326 C327 1.369 . S
C327 H307 0.945 . S
C327 C322 1.385 . S
C327 C326 1.369 . S
C328 C320 1.457 . S
C328 C329 1.372 . S
C328 C333 1.364 . S
C329 H308 0.952 . S
C329 C328 1.372 . S
C329 C330 1.389 . S
C330 H309 0.949 . S
C330 C329 1.389 . S
C330 C331 1.387 . S
C331 C330 1.387 . S
C331 C332 1.372 . S
C332 H310 0.950 . S
C332 C331 1.372 . S
C332 C333 1.379 . S
C333 H311 0.948 . S
C333 C328 1.364 . S
C333 C332 1.379 . S
C334 C303 1.383 . S
C334 C321 1.479 . S
C334 C335 1.398 . S
C335 C300 1.382 . S
C335 H312 0.951 . S
C335 C334 1.398 . S
C336 C337 1.369 . S
C336 C338 1.419 . S
C336 H340 0.930 . S
C337 C336 1.369 . S
C337 C346 1.429 . S
C338 C336 1.419 . S
C338 C339 1.363 . S
C338 H341 0.929 . S
C339 C338 1.363 . S
C339 C345 1.428 . S
H340 C336 0.930 . S
H341 C338 0.929 . S
S342 N343 1.613 . S
S342 N344 1.610 . S
N343 S342 1.613 . S
N343 C346 1.350 . S
N344 S342 1.610 . S
N344 C345 1.351 . S
C345 C339 1.428 . S
C345 N344 1.351 . S
C345 C346 1.434 . S
C346 C337 1.429 . S
C346 N343 1.350 . S
C346 C345 1.434 . S
C347 C348 1.369 . S
C347 C349 1.419 . S
C347 H351 0.930 . S
C348 C347 1.369 . S
C348 C357 1.429 . S
C349 C347 1.419 . S
C349 C350 1.363 . S
C349 H352 0.929 . S
C350 C349 1.363 . S
C350 C356 1.428 . S
H351 C347 0.930 . S
H352 C349 0.929 . S
S353 N354 1.613 . S
S353 N355 1.610 . S
N354 S353 1.613 . S
N354 C357 1.350 . S
N355 S353 1.610 . S
N355 C356 1.351 . S
C356 C350 1.428 . S
C356 N355 1.351 . S
C356 C357 1.434 . S
C357 C348 1.429 . S
C357 N354 1.350 . S
C357 C356 1.434 . S
C358 C359 1.369 . S
C358 C360 1.419 . S
C358 H362 0.930 . S
C359 C358 1.369 . S
C359 C368 1.429 . S
C360 C358 1.419 . S
C360 C361 1.363 . S
C360 H363 0.929 . S
C361 C360 1.363 . S
C361 C367 1.428 . S
H362 C358 0.930 . S
H363 C360 0.929 . S
S364 N365 1.613 . S
S364 N366 1.610 . S
N365 S364 1.613 . S
N365 C368 1.350 . S
N366 S364 1.610 . S
N366 C367 1.351 . S
C367 C361 1.428 . S
C367 N366 1.351 . S
C367 C368 1.434 . S
C368 C359 1.429 . S
C368 N365 1.350 . S
C368 C367 1.434 . S
C369 C370 1.369 . S
C369 C371 1.419 . S
C369 H373 0.930 . S
C370 C369 1.369 . S
C370 C379 1.429 . S
C371 C369 1.419 . S
C371 C372 1.363 . S
C371 H374 0.929 . S
C372 C371 1.363 . S
C372 C378 1.428 . S
H373 C369 0.930 . S
H374 C371 0.929 . S
S375 N376 1.613 . S
S375 N377 1.610 . S
N376 S375 1.613 . S
N376 C379 1.350 . S
N377 S375 1.610 . S
N377 C378 1.351 . S
C378 C372 1.428 . S
C378 N377 1.351 . S
C378 C379 1.434 . S
C379 C370 1.429 . S
C379 N376 1.350 . S
C379 C378 1.434 . S
C380 C381 1.369 . S
C380 C382 1.419 . S
C380 H384 0.930 . S
C381 C380 1.369 . S
C381 C390 1.429 . S
C382 C380 1.419 . S
C382 C383 1.363 . S
C382 H385 0.929 . S
C383 C382 1.363 . S
C383 C389 1.428 . S
H384 C380 0.930 . S
H385 C382 0.929 . S
S386 N387 1.613 . S
S386 N388 1.610 . S
N387 S386 1.613 . S
N387 C390 1.350 . S
N388 S386 1.610 . S
N388 C389 1.351 . S
C389 C383 1.428 . S
C389 N388 1.351 . S
C389 C390 1.434 . S
C390 C381 1.429 . S
C390 N387 1.350 . S
C390 C389 1.434 . S
C391 C392 1.369 . S
C391 C393 1.419 . S
C391 H395 0.930 . S
C392 C391 1.369 . S
C392 C401 1.429 . S
C393 C391 1.419 . S
C393 C394 1.363 . S
C393 H396 0.929 . S
C394 C393 1.363 . S
C394 C400 1.428 . S
H395 C391 0.930 . S
H396 C393 0.929 . S
S397 N398 1.613 . S
S397 N399 1.610 . S
N398 S397 1.613 . S
N398 C401 1.350 . S
N399 S397 1.610 . S
N399 C400 1.351 . S
C400 C394 1.428 . S
C400 N399 1.351 . S
C400 C401 1.434 . S
C401 C392 1.429 . S
C401 N398 1.350 . S
C401 C400 1.434 . S
C402 C403 1.369 . S
C402 C404 1.419 . S
C402 H406 0.930 . S
C403 C402 1.369 . S
C403 C412 1.429 . S
C404 C402 1.419 . S
C404 C405 1.363 . S
C404 H407 0.929 . S
C405 C404 1.363 . S
C405 C411 1.428 . S
H406 C402 0.930 . S
H407 C404 0.929 . S
S408 N409 1.613 . S
S408 N410 1.610 . S
N409 S408 1.613 . S
N409 C412 1.350 . S
N410 S408 1.610 . S
N410 C411 1.351 . S
C411 C405 1.428 . S
C411 N410 1.351 . S
C411 C412 1.434 . S
C412 C403 1.429 . S
C412 N409 1.350 . S
C412 C411 1.434 . S
C413 C414 1.369 . S
C413 C415 1.419 . S
C413 H417 0.930 . S
C414 C413 1.369 . S
C414 C423 1.429 . S
C415 C413 1.419 . S
C415 C416 1.363 . S
C415 H418 0.929 . S
C416 C415 1.363 . S
C416 C422 1.428 . S
H417 C413 0.930 . S
H418 C415 0.929 . S
S419 N420 1.613 . S
S419 N421 1.610 . S
N420 S419 1.613 . S
N420 C423 1.350 . S
N421 S419 1.610 . S
N421 C422 1.351 . S
C422 C416 1.428 . S
C422 N421 1.351 . S
C422 C423 1.434 . S
C423 C414 1.429 . S
C423 N420 1.350 . S
C423 C422 1.434 . S
C424 C425 1.369 . S
C424 C426 1.419 . S
C424 H428 0.930 . S
C425 C424 1.369 . S
C425 C434 1.429 . S
C426 C424 1.419 . S
C426 C427 1.363 . S
C426 H429 0.929 . S
C427 C426 1.363 . S
C427 C433 1.428 . S
H428 C424 0.930 . S
H429 C426 0.929 . S
S430 N431 1.613 . S
S430 N432 1.610 . S
N431 S430 1.613 . S
N431 C434 1.350 . S
N432 S430 1.610 . S
N432 C433 1.351 . S
C433 C427 1.428 . S
C433 N432 1.351 . S
C433 C434 1.434 . S
C434 C425 1.429 . S
C434 N431 1.350 . S
C434 C433 1.434 . S
C435 C436 1.369 . S
C435 C437 1.419 . S
C435 H439 0.930 . S
C436 C435 1.369 . S
C436 C445 1.429 . S
C437 C435 1.419 . S
C437 C438 1.363 . S
C437 H440 0.929 . S
C438 C437 1.363 . S
C438 C444 1.428 . S
H439 C435 0.930 . S
H440 C437 0.929 . S
S441 N442 1.613 . S
S441 N443 1.610 . S
N442 S441 1.613 . S
N442 C445 1.350 . S
N443 S441 1.610 . S
N443 C444 1.351 . S
C444 C438 1.428 . S
C444 N443 1.351 . S
C444 C445 1.434 . S
C445 C436 1.429 . S
C445 N442 1.350 . S
C445 C444 1.434 . S
C446 C447 1.369 . S
C446 C448 1.419 . S
C446 H450 0.930 . S
C447 C446 1.369 . S
C447 C456 1.429 . S
C448 C446 1.419 . S
C448 C449 1.363 . S
C448 H451 0.929 . S
C449 C448 1.363 . S
C449 C455 1.428 . S
H450 C446 0.930 . S
H451 C448 0.929 . S
S452 N453 1.613 . S
S452 N454 1.610 . S
N453 S452 1.613 . S
N453 C456 1.350 . S
N454 S452 1.610 . S
N454 C455 1.351 . S
C455 C449 1.428 . S
C455 N454 1.351 . S
C455 C456 1.434 . S
C456 C447 1.429 . S
C456 N453 1.350 . S
C456 C455 1.434 . S
C457 C458 1.369 . S
C457 C459 1.419 . S
C457 H461 0.930 . S
C458 C457 1.369 . S
C458 C467 1.429 . S
C459 C457 1.419 . S
C459 C460 1.363 . S
C459 H462 0.929 . S
C460 C459 1.363 . S
C460 C466 1.428 . S
H461 C457 0.930 . S
H462 C459 0.929 . S
S463 N464 1.613 . S
S463 N465 1.610 . S
N464 S463 1.613 . S
N464 C467 1.350 . S
N465 S463 1.610 . S
N465 C466 1.351 . S
C466 C460 1.428 . S
C466 N465 1.351 . S
C466 C467 1.434 . S
C467 C458 1.429 . S
C467 N464 1.350 . S
C467 C466 1.434 . S
C468 C469 1.369 1_655 S
C468 C470 1.419 . S
C468 H472 0.930 . S
C469 C468 1.369 1_455 S
C469 C478 1.429 . S
C470 C468 1.419 . S
C470 C471 1.363 1_655 S
C470 H473 0.929 . S
C471 C470 1.363 1_455 S
C471 C477 1.428 . S
H472 C468 0.930 . S
H473 C470 0.929 . S
S474 N475 1.613 . S
S474 N476 1.610 . S
N475 S474 1.613 . S
N475 C478 1.350 . S
N476 S474 1.610 . S
N476 C477 1.351 . S
C477 C471 1.428 . S
C477 N476 1.351 . S
C477 C478 1.434 . S
C478 C469 1.429 . S
C478 N475 1.350 . S
C478 C477 1.434 . S
C479 C480 1.369 . S
C479 C481 1.419 . S
C479 H483 0.930 . S
C480 C479 1.369 . S
C480 C489 1.429 1_545 S
C481 C479 1.419 . S
C481 C482 1.363 . S
C481 H484 0.929 . S
C482 C481 1.363 . S
C482 C488 1.428 1_545 S
H483 C479 0.930 . S
H484 C481 0.929 . S
S485 N486 1.613 . S
S485 N487 1.610 . S
N486 S485 1.613 . S
N486 C489 1.350 . S
N487 S485 1.610 . S
N487 C488 1.351 . S
C488 C482 1.428 1_565 S
C488 N487 1.351 . S
C488 C489 1.434 . S
C489 C480 1.429 1_565 S
C489 N486 1.350 . S
C489 C488 1.434 . S
C490 C491 1.369 . S
C490 C492 1.419 . S
C490 H494 0.930 . S
C491 C490 1.369 . S
C491 C500 1.429 . S
C492 C490 1.419 . S
C492 C493 1.363 . S
C492 H495 0.929 . S
C493 C492 1.363 . S
C493 C499 1.428 . S
H494 C490 0.930 . S
H495 C492 0.929 . S
S496 N497 1.613 . S
S496 N498 1.610 . S
N497 S496 1.613 . S
N497 C500 1.350 . S
N498 S496 1.610 . S
N498 C499 1.351 . S
C499 C493 1.428 . S
C499 N498 1.351 . S
C499 C500 1.434 . S
C500 C491 1.429 . S
C500 N497 1.350 . S
C500 C499 1.434 . S
C501 C502 1.369 . S
C501 C503 1.419 . S
C501 H505 0.930 . S
C502 C501 1.369 . S
C502 C511 1.429 1_545 S
C503 C501 1.419 . S
C503 C504 1.363 . S
C503 H506 0.929 . S
C504 C503 1.363 . S
C504 C510 1.428 1_545 S
H505 C501 0.930 . S
H506 C503 0.929 . S
S507 N508 1.613 . S
S507 N509 1.610 . S
N508 S507 1.613 . S
N508 C511 1.350 . S
N509 S507 1.610 . S
N509 C510 1.351 . S
C510 C504 1.428 1_565 S
C510 N509 1.351 . S
C510 C511 1.434 . S
C511 C502 1.429 1_565 S
C511 N508 1.350 . S
C511 C510 1.434 . S
C512 C513 1.369 . S
C512 C514 1.419 . S
C512 H516 0.930 . S
C513 C512 1.369 . S
C513 C522 1.429 . S
C514 C512 1.419 . S
C514 C515 1.363 . S
C514 H517 0.929 . S
C515 C514 1.363 . S
C515 C521 1.428 . S
H516 C512 0.930 . S
H517 C514 0.929 . S
S518 N519 1.613 . S
S518 N520 1.610 . S
N519 S518 1.613 . S
N519 C522 1.350 . S
N520 S518 1.610 . S
N520 C521 1.351 . S
C521 C515 1.428 . S
C521 N520 1.351 . S
C521 C522 1.434 . S
C522 C513 1.429 . S
C522 N519 1.350 . S
C522 C521 1.434 . S
C523 C524 1.369 . S
C523 C525 1.419 . S
C523 H527 0.930 . S
C524 C523 1.369 . S
C524 C533 1.429 1_455 S
C525 C523 1.419 . S
C525 C526 1.363 1_455 S
C525 H528 0.929 . S
C526 C525 1.363 1_655 S
C526 C532 1.428 . S
H527 C523 0.930 . S
H528 C525 0.929 . S
S529 N530 1.613 . S
S529 N531 1.610 . S
N530 S529 1.613 . S
N530 C533 1.350 . S
N531 S529 1.610 . S
N531 C532 1.351 . S
C532 C526 1.428 . S
C532 N531 1.351 . S
C532 C533 1.434 . S
C533 C524 1.429 1_655 S
C533 N530 1.350 . S
C533 C532 1.434 . S
C337 C19 2.016 . S
C339 C325 1.929 . S
C348 C46 1.348 . S
C350 C253 1.372 . S
C359 C95 0.671 . S
C361 C289 0.571 . S
C370 C10 2.142 . S
C372 C301 2.058 . S
C383 C229 1.386 . S
C381 C55 1.354 . S
C394 C265 0.914 . S
C392 C86 0.889 . S
C403 C59 3.178 . S
C405 C181 3.079 . S
C414 C90 2.173 . S
C416 C193 2.100 . S
C425 C15 1.354 . S
C427 C121 1.390 . S
C438 C157 3.069 . S
C436 C50 3.115 . S
C449 C217 1.946 . S
C447 C99 2.014 . S
C458 C6 1.290 . S
C460 C145 1.318 . S
C471 C223 1.363 1_554 S
C469 C9 1.326 . S
C480 C58 1.449 . S
C482 C151 1.501 . S
C491 C98 1.716 . S
C493 C187 1.791 . S
C504 C295 1.060 . S
C502 C49 1.070 . S
C515 C331 1.347 1_556 S
C513 C89 1.319 . S
C524 C18 1.434 . S
C526 C259 1.475 . S
