# Generated by pormake.
# Topology zzz, (3,6)-cn, num edge types: 1
# Building blocks:
#     Node 0, Type 0, BuildingBlock: KAKCAD_clean_linker_0, # of connection points: 3
#     Node 1, Type 0, BuildingBlock: KAKCAD_clean_linker_0, # of connection points: 3
#     Node 2, Type 0, BuildingBlock: KAKCAD_clean_linker_0, # of connection points: 3
#     Node 3, Type 0, BuildingBlock: KAKCAD_clean_linker_0, # of connection points: 3
#     Node 4, Type 0, BuildingBlock: KAKCAD_clean_linker_0, # of connection points: 3
#     Node 5, Type 0, BuildingBlock: KAKCAD_clean_linker_0, # of connection points: 3
#     Node 6, Type 0, BuildingBlock: KAKCAD_clean_linker_0, # of connection points: 3
#     Node 7, Type 0, BuildingBlock: KAKCAD_clean_linker_0, # of connection points: 3
#     Node 8, Type 1, BuildingBlock: BETDEL_clean_sbu_0, # of connection points: 6
#     Node 9, Type 1, BuildingBlock: BETDEL_clean_sbu_0, # of connection points: 6
#     Node 10, Type 1, BuildingBlock: BETDEL_clean_sbu_0, # of connection points: 6
#     Node 11, Type 1, BuildingBlock: BETDEL_clean_sbu_0, # of connection points: 6
#     Edge 12, Type (0, 1), BuildingBlock: XUDNAN_clean_linker_2, # of connection points: 2
#     Edge 13, Type (0, 1), BuildingBlock: XUDNAN_clean_linker_2, # of connection points: 2
#     Edge 14, Type (0, 1), BuildingBlock: XUDNAN_clean_linker_2, # of connection points: 2
#     Edge 15, Type (0, 1), BuildingBlock: XUDNAN_clean_linker_2, # of connection points: 2
#     Edge 16, Type (0, 1), BuildingBlock: XUDNAN_clean_linker_2, # of connection points: 2
#     Edge 17, Type (0, 1), BuildingBlock: XUDNAN_clean_linker_2, # of connection points: 2
#     Edge 18, Type (0, 1), BuildingBlock: XUDNAN_clean_linker_2, # of connection points: 2
#     Edge 19, Type (0, 1), BuildingBlock: XUDNAN_clean_linker_2, # of connection points: 2
#     Edge 20, Type (0, 1), BuildingBlock: XUDNAN_clean_linker_2, # of connection points: 2
#     Edge 21, Type (0, 1), BuildingBlock: XUDNAN_clean_linker_2, # of connection points: 2
#     Edge 22, Type (0, 1), BuildingBlock: XUDNAN_clean_linker_2, # of connection points: 2
#     Edge 23, Type (0, 1), BuildingBlock: XUDNAN_clean_linker_2, # of connection points: 2
#     Edge 24, Type (0, 1), BuildingBlock: XUDNAN_clean_linker_2, # of connection points: 2
#     Edge 25, Type (0, 1), BuildingBlock: XUDNAN_clean_linker_2, # of connection points: 2
#     Edge 26, Type (0, 1), BuildingBlock: XUDNAN_clean_linker_2, # of connection points: 2
#     Edge 27, Type (0, 1), BuildingBlock: XUDNAN_clean_linker_2, # of connection points: 2
#     Edge 28, Type (0, 1), BuildingBlock: XUDNAN_clean_linker_2, # of connection points: 2
#     Edge 29, Type (0, 1), BuildingBlock: XUDNAN_clean_linker_2, # of connection points: 2
#     Edge 30, Type (0, 1), BuildingBlock: XUDNAN_clean_linker_2, # of connection points: 2
#     Edge 31, Type (0, 1), BuildingBlock: XUDNAN_clean_linker_2, # of connection points: 2
#     Edge 32, Type (0, 1), BuildingBlock: XUDNAN_clean_linker_2, # of connection points: 2
#     Edge 33, Type (0, 1), BuildingBlock: XUDNAN_clean_linker_2, # of connection points: 2
#     Edge 34, Type (0, 1), BuildingBlock: XUDNAN_clean_linker_2, # of connection points: 2
#     Edge 35, Type (0, 1), BuildingBlock: XUDNAN_clean_linker_2, # of connection points: 2
# Relax obj value: 0.332
# Max RMSD: 0.227
# Mean RMSD: 0.209
data_MOF--net-zzz--node1-BETDEL_clean_sbu_0--node2-KAKCAD_clean_linker_0--edge1-XUDNAN_clean_linker_2
_symmetry_space_group_name_H-M    P1
_symmetry_Int_Tables_number       1
_symmetry_cell_setting            triclinic
loop_
_symmetry_equiv_pos_as_xyz
'x, y, z'
_cell_length_a     57.027107
_cell_length_b     56.652399
_cell_length_c     19.975859
_cell_angle_alpha  91.063758
_cell_angle_beta   89.354081
_cell_angle_gamma 95.939973
loop_
_atom_site_label
_atom_site_type_symbol
_atom_site_fract_x
_atom_site_fract_y
_atom_site_fract_z
_atom_type_partial_charge
C0 C 0.79885 0.4343 0.88513 0.0
C1 C 0.81517 0.42159 0.91748 0.0
C2 C 0.77979 0.44202 0.92069 0.0
C3 C 0.77702 0.43732 0.98922 0.0
C4 C 0.79157 0.42196 0.019 0.0
C5 C 0.81055 0.41408 0.98321 0.0
C6 C 0.76361 0.453 0.03161 0.0
C7 C 0.7409 0.45804 0.01459 0.0
C8 C 0.73023 0.47629 0.04815 0.0
C9 C 0.74269 0.48971 0.09918 0.0
C10 C 0.76544 0.48454 0.11661 0.0
C11 C 0.77549 0.46608 0.08327 0.0
C12 C 0.78018 0.49859 0.16655 0.0
C13 C 0.80071 0.51224 0.14471 0.0
C14 C 0.77729 0.49374 0.23487 0.0
C15 C 0.79533 0.50117 0.28003 0.0
C16 C 0.81663 0.51347 0.25747 0.0
C17 C 0.70672 0.48186 0.02568 0.0
C18 C 0.70351 0.50451 0.00214 0.0
C19 C 0.68808 0.46369 0.02036 0.0
C20 C 0.66688 0.46785 0.99041 0.0
C21 C 0.66397 0.49019 0.96409 0.0
C22 C 0.6824 0.50859 0.97108 0.0
C23 C 0.81871 0.51967 0.18967 0.0
H24 H 0.80215 0.44024 0.83431 0.0
H25 H 0.76893 0.45389 0.89654 0.0
H26 H 0.78965 0.41798 0.07175 0.0
H27 H 0.82299 0.40436 0.00912 0.0
H28 H 0.73191 0.44836 0.97336 0.0
H29 H 0.79336 0.4628 0.09537 0.0
H30 H 0.73492 0.50417 0.12431 0.0
H31 H 0.80346 0.51583 0.09195 0.0
H32 H 0.76187 0.48272 0.25249 0.0
H33 H 0.79317 0.49591 0.33175 0.0
H34 H 0.71772 0.51874 0.00498 0.0
H35 H 0.69016 0.44604 0.03784 0.0
H36 H 0.83467 0.52944 0.17077 0.0
H37 H 0.6806 0.52602 0.95158 0.0
H38 H 0.65313 0.45326 0.98529 0.0
C39 C 1.00164 0.83007 0.9745 0.0
C40 C 0.02575 0.83712 0.96503 0.0
C41 C 0.99408 0.80724 0.99561 0.0
C42 C 0.01049 0.79104 0.0077 0.0
C43 C 0.03443 0.79735 0.99319 0.0
C44 C 0.04204 0.8203 0.97159 0.0
C45 C 1.00309 0.77035 0.0493 0.0
C46 C 1.00309 0.74695 0.02561 0.0
C47 C 0.99441 0.72779 0.06635 0.0
C48 C 0.98623 0.73254 0.13197 0.0
C49 C 0.98663 0.75613 0.1556 0.0
C50 C 0.99506 0.77469 0.11402 0.0
C51 C 0.97871 0.76294 0.2232 0.0
C52 C 0.95892 0.77573 0.22848 0.0
C53 C 0.99497 0.76454 0.27568 0.0
C54 C 0.99284 0.78064 0.32898 0.0
C55 C 0.97451 0.79549 0.33009 0.0
C56 C 0.99264 0.7032 0.03782 0.0
C57 C 0.97159 0.6881 0.04375 0.0
C58 C 0.01116 0.69554 0.99866 0.0
C59 C 0.00827 0.67387 0.96343 0.0
C60 C 0.98672 0.65941 0.96612 0.0
C61 C 0.96863 0.66649 0.00806 0.0
C62 C 0.95687 0.79192 0.28134 0.0
H63 H 0.98869 0.84255 0.96834 0.0
H64 H 0.97554 0.80271 0.00686 0.0
H65 H 0.04736 0.78517 0.00318 0.0
H66 H 0.06072 0.82535 0.9642 0.0
H67 H 0.00888 0.74377 0.97467 0.0
H68 H 0.99537 0.79289 0.13241 0.0
H69 H 0.97954 0.71812 0.16408 0.0
H70 H 0.9464 0.77511 0.18792 0.0
H71 H 0.01067 0.75531 0.27183 0.0
H72 H 0.00675 0.78302 0.3657 0.0
H73 H 0.95695 0.69353 0.0732 0.0
H74 H 0.02768 0.70669 0.99359 0.0
H75 H 0.94238 0.80287 0.28143 0.0
H76 H 0.95189 0.65563 0.01175 0.0
H77 H 0.02252 0.66906 0.93133 0.0
C78 C 0.72562 0.06429 0.88397 0.0
C79 C 0.71 0.0796 0.91126 0.0
C80 C 0.74036 0.05304 0.92552 0.0
C81 C 0.73984 0.05695 0.99518 0.0
C82 C 0.7254 0.07356 0.02184 0.0
C83 C 0.71054 0.08469 0.9803 0.0
C84 C 0.75257 0.04214 0.04009 0.0
C85 C 0.77519 0.0362 0.02362 0.0
C86 C 0.78659 0.02075 0.06347 0.0
C87 C 0.77491 0.01103 0.12114 0.0
C88 C 0.75234 0.01744 0.13893 0.0
C89 C 0.74142 0.03277 0.09797 0.0
C90 C 0.7394 0.00935 0.20058 0.0
C91 C 0.72514 0.9876 0.20095 0.0
C92 C 0.7365 0.02601 0.25205 0.0
C93 C 0.71894 0.02162 0.301 0.0
C94 C 0.70369 1.00038 0.2999 0.0
C95 C 0.81058 0.01524 0.04219 0.0
C96 C 0.81514 0.99192 0.02578 0.0
C97 C 0.82792 0.03397 0.02763 0.0
C98 C 0.8487 0.02971 0.9938 0.0
C99 C 0.85271 0.00659 0.97315 0.0
C100 C 0.83602 0.98762 0.99154 0.0
C101 C 0.70753 0.98311 0.25026 0.0
H102 H 0.72536 0.05976 0.83104 0.0
H103 H 0.75109 0.04019 0.9034 0.0
H104 H 0.72499 0.07735 0.07516 0.0
H105 H 0.69883 0.09661 0.00248 0.0
H106 H 0.78396 0.0435 0.97902 0.0
H107 H 0.72378 0.03698 0.11085 0.0
H108 H 0.78349 0.99917 0.15252 0.0
H109 H 0.72663 0.97471 0.16079 0.0
H110 H 0.74681 0.04319 0.25172 0.0
H111 H 0.71646 0.03561 0.33722 0.0
H112 H 0.80197 0.97719 0.03568 0.0
H113 H 0.82492 0.05213 0.03995 0.0
H114 H 0.69642 0.96642 0.24809 0.0
H115 H 0.83845 0.96959 0.97637 0.0
H116 H 0.86136 0.04469 0.98214 0.0
C117 C 0.51871 0.72275 0.34246 0.0
C118 C 0.53676 0.70792 0.3313 0.0
C119 C 0.51359 0.73895 0.29399 0.0
C120 C 0.5266 0.7408 0.23398 0.0
C121 C 0.54593 0.72757 0.22534 0.0
C122 C 0.551 0.71129 0.27359 0.0
C123 C 0.51583 0.74998 0.17429 0.0
C124 C 0.52099 0.77339 0.1521 0.0
C125 C 0.5107 0.78053 0.09274 0.0
C126 C 0.49588 0.76383 0.05549 0.0
C127 C 0.49094 0.74047 0.07731 0.0
C128 C 0.5007 0.73387 0.13714 0.0
C129 C 0.47812 0.72189 0.03468 0.0
C130 C 0.46103 0.70521 0.06291 0.0
C131 C 0.48577 0.71838 0.96857 0.0
C132 C 0.47812 0.6975 0.93358 0.0
C133 C 0.46253 0.67994 0.9639 0.0
C134 C 0.51578 0.80498 0.06689 0.0
C135 C 0.49722 0.8171 0.04398 0.0
C136 C 0.53906 0.81542 0.05881 0.0
C137 C 0.54371 0.83694 0.02515 0.0
C138 C 0.52513 0.84849 0.99926 0.0
C139 C 0.50183 0.8386 0.01087 0.0
C140 C 0.45319 0.68442 0.0276 0.0
H141 H 0.50726 0.72049 0.38599 0.0
H142 H 0.49821 0.74851 0.30081 0.0
H143 H 0.55585 0.72834 0.1787 0.0
H144 H 0.56521 0.70036 0.26391 0.0
H145 H 0.5328 0.78586 0.18069 0.0
H146 H 0.49745 0.71565 0.15348 0.0
H147 H 0.48864 0.76883 0.00847 0.0
H148 H 0.45481 0.70762 0.11378 0.0
H149 H 0.49905 0.73087 0.94582 0.0
H150 H 0.4854 0.69447 0.8842 0.0
H151 H 0.47908 0.80964 0.05036 0.0
H152 H 0.5537 0.80637 0.07555 0.0
H153 H 0.4412 0.67111 0.05204 0.0
H154 H 0.48705 0.84728 0.99332 0.0
H155 H 0.56187 0.84397 0.01689 0.0
C156 C 0.20635 0.57578 0.12573 0.0
C157 C 0.20133 0.56648 0.18941 0.0
C158 C 0.225 0.56823 0.08781 0.0
C159 C 0.23891 0.55146 0.11351 0.0
C160 C 0.23515 0.54394 0.17971 0.0
C161 C 0.21633 0.55125 0.21719 0.0
C162 C 0.25369 0.53819 0.06816 0.0
C163 C 0.27632 0.53338 0.08644 0.0
C164 C 0.28837 0.51705 0.04912 0.0
C165 C 0.27735 0.50516 0.99322 0.0
C166 C 0.25481 0.51044 0.97389 0.0
C167 C 0.24339 0.52711 0.01099 0.0
C168 C 0.24116 0.49743 0.91992 0.0
C169 C 0.23971 0.50786 0.85716 0.0
C170 C 0.22445 0.47857 0.93728 0.0
C171 C 0.20562 0.47138 0.89481 0.0
C172 C 0.20309 0.48285 0.83367 0.0
C173 C 0.31188 0.51197 0.07239 0.0
C174 C 0.33022 0.53045 0.07691 0.0
C175 C 0.31514 0.48981 0.09917 0.0
C176 C 0.33604 0.48655 0.13263 0.0
C177 C 0.35416 0.5053 0.13888 0.0
C178 C 0.35121 0.5271 0.10923 0.0
C179 C 0.22101 0.50049 0.81413 0.0
H180 H 0.19478 0.5874 0.10344 0.0
H181 H 0.22758 0.57422 0.03681 0.0
H182 H 0.24541 0.5308 0.20037 0.0
H183 H 0.21253 0.5438 0.26618 0.0
H184 H 0.28424 0.5417 0.13124 0.0
H185 H 0.22557 0.53022 0.99773 0.0
H186 H 0.2861 0.49192 0.96553 0.0
H187 H 0.25212 0.52282 0.84342 0.0
H188 H 0.22483 0.47076 0.98632 0.0
H189 H 0.19217 0.45801 0.91256 0.0
H190 H 0.32797 0.54778 0.05733 0.0
H191 H 0.30108 0.47542 0.09714 0.0
H192 H 0.22003 0.50943 0.76697 0.0
H193 H 0.3647 0.54196 0.11376 0.0
H194 H 0.33786 0.46953 0.15472 0.0
C195 C 0.99726 0.18864 0.16678 0.0
C196 C 0.01353 0.17172 0.17105 0.0
C197 C 0.00465 0.21158 0.14503 0.0
C198 C 0.02837 0.21781 0.12754 0.0
C199 C 0.0449 0.20156 0.13785 0.0
C200 C 0.03755 0.17872 0.15938 0.0
C201 C 0.03492 0.23855 0.08512 0.0
C202 C 0.02981 0.26142 0.10346 0.0
C203 C 0.03436 0.28033 0.05867 0.0
C204 C 0.0434 0.27584 0.99393 0.0
C205 C 0.04831 0.25272 0.97543 0.0
C206 C 0.0444 0.23452 0.02178 0.0
C207 C 0.0545 0.24543 0.90643 0.0
C208 C 0.03697 0.24368 0.85728 0.0
C209 C 0.0742 0.23269 0.89691 0.0
C210 C 0.07489 0.21625 0.84404 0.0
C211 C 0.05602 0.21246 0.7992 0.0
C212 C 0.0288 0.30437 0.0803 0.0
C213 C 0.00652 0.30733 0.1079 0.0
C214 C 0.04616 0.32389 0.07979 0.0
C215 C 0.04154 0.34572 0.10887 0.0
C216 C 0.01935 0.34849 0.13783 0.0
C217 C 1.00183 0.32911 0.13602 0.0
C218 C 0.03775 0.22734 0.80391 0.0
H219 H 0.97866 0.1837 0.17586 0.0
H220 H 0.99157 0.22376 0.13675 0.0
H221 H 0.0633 0.20605 0.12487 0.0
H222 H 0.05054 0.1662 0.16404 0.0
H223 H 0.02237 0.26449 0.15266 0.0
H224 H 0.0473 0.21653 0.00666 0.0
H225 H 0.04602 0.28999 0.95801 0.0
H226 H 0.02139 0.25294 0.86412 0.0
H227 H 0.08781 0.23353 0.93455 0.0
H228 H 0.0894 0.20534 0.84098 0.0
H229 H 0.99284 0.29257 0.10902 0.0
H230 H 0.06355 0.32199 0.05932 0.0
H231 H 0.02295 0.22484 0.7701 0.0
H232 H 0.98465 0.3305 0.15855 0.0
H233 H 0.05536 0.36036 0.10922 0.0
C234 C 0.30575 0.92644 0.21523 0.0
C235 C 0.32947 0.93587 0.21936 0.0
C236 C 0.2905 0.93609 0.17125 0.0
C237 C 0.29875 0.95539 0.13101 0.0
C238 C 0.32249 0.96467 0.13523 0.0
C239 C 0.33764 0.95504 0.17873 0.0
C240 C 0.28275 0.96647 0.08586 0.0
C241 C 0.2603 0.97126 0.10764 0.0
C242 C 0.24552 0.98331 0.06696 0.0
C243 C 0.25442 0.99171 0.00407 0.0
C244 C 0.27709 0.98679 0.98179 0.0
C245 C 0.29068 0.9738 0.02246 0.0
C246 C 0.28855 0.99606 0.91909 0.0
C247 C 0.29595 0.97992 0.87094 0.0
C248 C 0.29832 0.01982 0.91704 0.0
C249 C 0.31642 0.02686 0.87115 0.0
C250 C 0.32518 0.01027 0.82631 0.0
C251 C 0.2214 0.98724 0.09326 0.0
C252 C 0.20917 0.97019 0.13477 0.0
C253 C 0.21117 0.00839 0.0826 0.0
C254 C 0.19004 0.0128 0.11555 0.0
C255 C 0.17877 0.99642 0.16128 0.0
C256 C 0.18866 0.97486 0.16914 0.0
C257 C 0.31396 0.98694 0.825 0.0
H258 H 0.29899 0.91171 0.24613 0.0
H259 H 0.2723 0.9285 0.16871 0.0
H260 H 0.32927 0.9799 0.10623 0.0
H261 H 0.35563 0.96321 0.18217 0.0
H262 H 0.25475 0.96633 0.15795 0.0
H263 H 0.30806 0.97007 0.0053 0.0
H264 H 0.24383 1.00163 0.97242 0.0
H265 H 0.28902 0.96139 0.87223 0.0
H266 H 0.29345 0.03246 0.95474 0.0
H267 H 0.32465 0.04494 0.87423 0.0
H268 H 0.21586 0.95327 0.14277 0.0
H269 H 0.21986 0.02194 0.05076 0.0
H270 H 0.31982 0.97376 0.79043 0.0
H271 H 0.18127 0.96163 0.20382 0.0
H272 H 0.1829 0.02933 0.10567 0.0
C273 C 0.45547 0.29036 0.83407 0.0
C274 C 0.47144 0.29395 0.78017 0.0
C275 C 0.45894 0.27382 0.88322 0.0
C276 C 0.47844 0.26061 0.87945 0.0
C277 C 0.49319 0.26264 0.82272 0.0
C278 C 0.48963 0.27905 0.77322 0.0
C279 C 0.48766 0.25197 0.94218 0.0
C280 C 0.48172 0.22889 0.96621 0.0
C281 C 0.48966 0.22281 0.02979 0.0
C282 C 0.50349 0.23997 0.0682 0.0
C283 C 0.50981 0.26271 0.0435 0.0
C284 C 0.50193 0.26848 0.98055 0.0
C285 C 0.52284 0.28144 0.08487 0.0
C286 C 0.54194 0.29588 0.05735 0.0
C287 C 0.51406 0.28718 0.14831 0.0
C288 C 0.52293 0.30811 0.18117 0.0
C289 C 0.5409 0.32338 0.15145 0.0
C290 C 0.48459 0.19858 0.05693 0.0
C291 C 0.49144 0.17883 0.02114 0.0
C292 C 0.47641 0.19562 0.12322 0.0
C293 C 0.47679 0.17386 0.15483 0.0
C294 C 0.48557 0.15462 0.12098 0.0
C295 C 0.49203 0.15706 0.05298 0.0
C296 C 0.55103 0.31666 0.09068 0.0
H297 H 0.44113 0.30136 0.8404 0.0
H298 H 0.44768 0.27296 0.92735 0.0
H299 H 0.50872 0.25314 0.81975 0.0
H300 H 0.50236 0.28148 0.73263 0.0
H301 H 0.47075 0.216 0.9365 0.0
H302 H 0.50611 0.28637 0.96226 0.0
H303 H 0.50971 0.23553 0.11704 0.0
H304 H 0.54901 0.29169 0.00848 0.0
H305 H 0.49924 0.27641 0.17027 0.0
H306 H 0.51497 0.31296 0.22829 0.0
H307 H 0.49792 0.18065 0.97011 0.0
H308 H 0.47094 0.21057 0.15184 0.0
H309 H 0.56485 0.32824 0.06684 0.0
H310 H 0.49863 0.14246 0.02534 0.0
H311 H 0.47181 0.17265 0.20724 0.0
Dy312 Dy 0.02937 0.99634 0.61974 0.0
C313 C 0.98386 0.02469 0.38927 0.0
C314 C 0.04742 0.98264 0.73729 0.0
Dy315 Dy 1.0009 0.01125 0.50837 0.0
O316 O 0.02913 0.99436 0.73227 0.0
O317 O 0.05626 0.97937 0.67821 0.0
O318 O 0.0552 0.98347 0.54519 0.0
O319 O 0.03883 0.01385 0.52438 0.0
C320 C 0.05256 0.99954 0.50139 0.0
C321 C 0.97741 0.00822 0.62616 0.0
O322 O 0.99815 0.97177 0.48691 0.0
O323 O 0.01 0.96135 0.59145 0.0
O324 O 0.97463 0.02824 0.44771 0.0
O325 O 1.00195 0.01279 0.39587 0.0
O326 O 0.97434 0.02371 0.58098 0.0
O327 O 0.99143 0.994 0.6041 0.0
O328 O 0.03196 0.03584 0.64179 0.0
O329 O 0.01976 0.04637 0.53769 0.0
C330 C 1.0015 0.95539 0.53143 0.0
C331 C 0.02828 0.05228 0.5977 0.0
Dy332 Dy 0.50054 0.98908 0.53882 0.0
C333 C 0.56807 0.05884 0.66224 0.0
C334 C 0.46296 0.96017 0.49224 0.0
Dy335 Dy 0.53182 0.0295 0.60926 0.0
O336 O 0.48216 0.96613 0.45821 0.0
O337 O 0.46427 0.97015 0.55119 0.0
O338 O 0.53209 0.96945 0.5119 0.0
O339 O 0.53597 0.00638 0.52364 0.0
C340 C 0.54703 0.98838 0.51669 0.0
C341 C 0.48522 0.03049 0.62885 0.0
O342 O 0.52742 0.04563 0.50971 0.0
O343 O 0.49462 0.02063 0.47581 0.0
O344 O 0.56605 0.05261 0.59965 0.0
O345 O 0.55016 0.04913 0.69619 0.0
O346 O 0.50017 0.04945 0.62744 0.0
O347 O 0.49619 0.01226 0.62571 0.0
O348 O 0.50803 0.97076 0.63257 0.0
O349 O 0.53933 0.99744 0.66788 0.0
C350 C 0.5096 0.03999 0.46852 0.0
C351 C 0.52594 0.9769 0.67303 0.0
Dy352 Dy 0.49176 0.50833 0.61519 0.0
C353 C 0.53832 0.4729 0.38897 0.0
C354 C 0.47648 0.5307 0.72701 0.0
Dy355 Dy 0.52289 0.49456 0.50169 0.0
O356 O 0.46279 0.51946 0.68279 0.0
O357 O 0.49835 0.52894 0.71104 0.0
O358 O 0.45939 0.49624 0.5556 0.0
O359 O 0.49006 0.51083 0.5064 0.0
C360 C 0.46949 0.50077 0.49798 0.0
C361 C 0.54518 0.50231 0.61889 0.0
O362 O 0.52538 0.53326 0.47993 0.0
O363 O 0.5104 0.54361 0.58339 0.0
O364 O 0.55186 0.48215 0.43648 0.0
O365 O 0.51658 0.47611 0.40249 0.0
O366 O 0.5551 0.50711 0.56115 0.0
O367 O 0.52467 0.49205 0.61056 0.0
O368 O 0.48954 0.46959 0.63706 0.0
O369 O 0.50398 0.45936 0.53286 0.0
C370 C 0.52105 0.5495 0.52574 0.0
C371 C 0.49357 0.45339 0.59077 0.0
Dy372 Dy 0.99317 0.48512 0.60775 0.0
C373 C 0.05154 0.5401 0.42455 0.0
C374 C 0.96792 0.46399 0.71075 0.0
Dy375 Dy 0.02045 0.51765 0.513 0.0
O376 O 0.98062 0.453 0.66832 0.0
O377 O 0.96973 0.48649 0.69788 0.0
O378 O 0.97765 0.46327 0.5217 0.0
O379 O 0.01258 0.47908 0.51413 0.0
C380 C 0.99609 0.46699 0.4834 0.0
C381 C 1.00098 0.5398 0.61572 0.0
O382 O 0.98459 0.51503 0.46556 0.0
O383 O 0.96518 0.50512 0.56468 0.0
O384 O 0.04671 0.54805 0.48379 0.0
O385 O 0.03919 0.51987 0.41303 0.0
O386 O 1.00206 0.54771 0.55515 0.0
O387 O 0.01096 0.52097 0.61942 0.0
O388 O 0.02905 0.47919 0.64339 0.0
O389 O 0.05036 0.50518 0.57101 0.0
C390 C 0.96499 0.51244 0.50221 0.0
C391 C 0.04928 0.48962 0.62004 0.0
H392 H 0.14399 0.96502 0.22127 0.0
H393 H 0.16524 0.04057 0.19977 0.0
H394 H 0.13263 0.04937 0.27428 0.0
H395 H 0.08104 0.96698 0.24136 0.0
H396 H 0.07848 0.9449 0.30558 0.0
H397 H 0.1011 0.94439 0.24199 0.0
H398 H 0.133 0.9458 0.33374 0.0
H399 H 0.11051 0.94623 0.39751 0.0
H400 H 0.13471 0.96936 0.39598 0.0
H401 H 0.09798 0.05007 0.35636 0.0
H402 H 0.06791 0.04237 0.4461 0.0
H403 H 0.07367 0.96689 0.426 0.0
C404 C 0.14222 0.98352 0.23192 0.0
C405 C 0.15768 1.00197 0.20306 0.0
C406 C 0.15365 0.02584 0.21868 0.0
C407 C 0.13513 0.03112 0.26183 0.0
C408 C 0.12082 0.01245 0.29037 0.0
C409 C 0.12438 0.98913 0.27657 0.0
C410 C 0.10818 0.97228 0.3187 0.0
C411 C 0.09119 0.95619 0.27424 0.0
C412 C 0.12245 0.95756 0.36417 0.0
C413 C 0.09513 0.98977 0.35912 0.0
C414 C 0.10222 0.01286 0.34091 0.0
C415 C 0.09241 0.03205 0.37105 0.0
C416 C 0.07529 0.02753 0.42183 0.0
C417 C 0.06863 0.00407 0.44316 0.0
C418 C 0.07856 0.98501 0.41085 0.0
H419 H 0.45816 0.1294 0.21619 0.0
H420 H 0.52605 0.13305 0.11435 0.0
H421 H 0.53815 0.10205 0.1874 0.0
H422 H 0.47876 0.1228 0.37795 0.0
H423 H 0.45472 0.10193 0.40537 0.0
H424 H 0.45008 0.12261 0.3407 0.0
H425 H 0.43494 0.08787 0.26117 0.0
H426 H 0.43933 0.06705 0.32587 0.0
H427 H 0.45305 0.06411 0.24482 0.0
H428 H 0.54519 0.07532 0.28029 0.0
H429 H 0.54515 0.05071 0.38105 0.0
H430 H 0.47213 0.06164 0.42061 0.0
C431 C 0.47538 0.12331 0.2085 0.0
C432 C 0.49108 0.13354 0.15902 0.0
C433 C 0.51353 0.1252 0.15082 0.0
C434 C 0.52064 0.10769 0.19245 0.0
C435 C 0.50501 0.09839 0.2416 0.0
C436 C 0.48268 0.10553 0.24918 0.0
C437 C 0.46971 0.09312 0.30769 0.0
C438 C 0.46293 0.1112 0.36107 0.0
C439 C 0.44797 0.07708 0.28342 0.0
C440 C 0.48856 0.07854 0.33306 0.0
C441 C 0.50879 0.08196 0.29409 0.0
C442 C 0.52931 0.07207 0.31031 0.0
C443 C 0.52917 0.05825 0.36772 0.0
C444 C 0.50859 0.05414 0.40769 0.0
C445 C 0.48792 0.06419 0.38985 0.0
H446 H 0.35598 0.48692 0.26468 0.0
H447 H 0.4003 0.51906 0.10624 0.0
H448 H 0.43525 0.5187 0.17829 0.0
H449 H 0.3839 0.51981 0.39673 0.0
H450 H 0.38116 0.49598 0.45578 0.0
H451 H 0.36011 0.49635 0.38949 0.0
H452 H 0.36918 0.45441 0.34994 0.0
H453 H 0.39021 0.45386 0.41643 0.0
H454 H 0.39918 0.4491 0.33084 0.0
H455 H 0.46495 0.51734 0.27047 0.0
H456 H 0.48689 0.51571 0.37612 0.0
H457 H 0.42317 0.4849 0.47508 0.0
C458 C 0.37313 0.49331 0.24457 0.0
C459 C 0.37546 0.50283 0.17958 0.0
C460 C 0.39812 0.51169 0.15582 0.0
C461 C 0.41807 0.51147 0.1963 0.0
C462 C 0.41511 0.50236 0.26057 0.0
C463 C 0.39321 0.49339 0.28455 0.0
C464 C 0.39455 0.48612 0.35699 0.0
C465 C 0.37901 0.50042 0.4024 0.0
C466 C 0.38789 0.45928 0.36393 0.0
C467 C 0.42053 0.49279 0.37041 0.0
C468 C 0.43214 0.5019 0.31395 0.0
C469 C 0.45607 0.51005 0.31479 0.0
C470 C 0.46839 0.50907 0.37502 0.0
C471 C 0.45674 0.50015 0.43369 0.0
C472 C 0.43257 0.49168 0.43092 0.0
H473 H 0.04732 0.3757 0.22787 0.0
H474 H 0.97981 0.3716 0.12808 0.0
H475 H 0.96877 0.40528 0.19727 0.0
H476 H 0.0268 0.3865 0.38682 0.0
H477 H 0.05125 0.4072 0.41314 0.0
H478 H 0.05555 0.38526 0.34919 0.0
H479 H 0.07193 0.41835 0.26836 0.0
H480 H 0.06779 0.44045 0.33235 0.0
H481 H 0.05459 0.44237 0.25135 0.0
H482 H 0.96244 0.43467 0.28756 0.0
H483 H 0.96198 0.45927 0.39086 0.0
H484 H 0.03411 0.44654 0.43054 0.0
C485 C 0.03055 0.38243 0.21907 0.0
C486 C 0.01442 0.371 0.17247 0.0
C487 C 0.99238 0.37995 0.16373 0.0
C488 C 0.98601 0.39918 0.20253 0.0
C489 C 1.00196 0.40955 0.24949 0.0
C490 C 0.02392 0.40174 0.25745 0.0
C491 C 0.03691 0.41481 0.31539 0.0
C492 C 0.04297 0.3974 0.36931 0.0
C493 C 0.05912 0.42989 0.29035 0.0
C494 C 0.01843 0.4304 0.34043 0.0
C495 C 0.99849 0.4272 0.30112 0.0
C496 C 0.97814 0.43776 0.31774 0.0
C497 C 0.97799 0.45162 0.37654 0.0
C498 C 0.9981 0.45503 0.4177 0.0
C499 C 0.01876 0.44472 0.39871 0.0
H500 H 0.87053 0.03382 0.86834 0.0
H501 H 0.88163 0.97034 0.97683 0.0
H502 H 0.91545 0.96404 0.90197 0.0
H503 H 0.88384 0.01176 0.70601 0.0
H504 H 0.89825 0.03969 0.67786 0.0
H505 H 0.87543 0.03926 0.74095 0.0
H506 H 0.90404 0.06439 0.82065 0.0
H507 H 0.92696 0.06491 0.75775 0.0
H508 H 0.93201 0.05411 0.84011 0.0
H509 H 0.94846 0.96488 0.81288 0.0
H510 H 0.97619 0.97216 0.71706 0.0
H511 H 0.94303 0.03517 0.66917 0.0
C512 C 0.88024 0.01876 0.87724 0.0
C513 C 0.87344 1.00269 0.92913 0.0
C514 C 0.88635 0.98286 0.93742 0.0
C515 C 0.90569 0.97921 0.8953 0.0
C516 C 0.91192 0.99549 0.84485 0.0
C517 C 0.89948 0.01485 0.83574 0.0
C518 C 0.90922 0.0295 0.77711 0.0
C519 C 0.89058 0.03007 0.72225 0.0
C520 C 0.91862 0.05472 0.80032 0.0
C521 C 0.9291 0.0154 0.75431 0.0
C522 C 0.93051 0.99587 0.79399 0.0
C523 C 0.94746 0.98015 0.78167 0.0
C524 C 0.96316 0.98442 0.7272 0.0
C525 C 0.96175 0.00419 0.68561 0.0
C526 C 0.94457 0.0199 0.7 0.0
H527 H 0.50211 0.8591 0.88564 0.0
H528 H 0.55896 0.88657 0.01723 0.0
H529 H 0.56638 0.92209 0.94664 0.0
H530 H 0.52913 0.87952 0.73155 0.0
H531 H 0.50187 0.88671 0.69617 0.0
H532 H 0.50158 0.86338 0.75628 0.0
H533 H 0.47223 0.88428 0.83104 0.0
H534 H 0.47237 0.90762 0.77104 0.0
H535 H 0.47969 0.91475 0.85712 0.0
H536 H 0.56682 0.95527 0.86127 0.0
H537 H 0.5601 0.98282 0.77033 0.0
H538 H 0.50249 0.93318 0.69757 0.0
C539 C 0.51599 0.87265 0.90026 0.0
C540 C 0.52986 0.87003 0.95739 0.0
C541 C 0.5482 0.88803 0.97349 0.0
C542 C 0.55248 0.90833 0.93382 0.0
C543 C 0.53832 0.91035 0.8781 0.0
C544 C 0.52045 0.89294 0.86147 0.0
C545 C 0.50753 0.89929 0.79965 0.0
C546 C 0.5102 0.88114 0.74254 0.0
C547 C 0.48141 0.90163 0.8157 0.0
C548 C 0.5208 0.92311 0.78411 0.0
C549 C 0.53855 0.92922 0.82964 0.0
C550 C 0.55298 0.9506 0.82534 0.0
C551 C 0.54902 0.96614 0.77344 0.0
C552 C 0.53076 0.96024 0.72658 0.0
C553 C 0.51662 0.93832 0.73226 0.0
H554 H 0.66104 0.51072 0.84153 0.0
H555 H 0.61805 0.47663 0.99977 0.0
H556 H 0.58235 0.47893 0.93198 0.0
H557 H 0.61795 0.55056 0.78588 0.0
H558 H 0.62582 0.54706 0.69888 0.0
H559 H 0.64755 0.54497 0.76273 0.0
H560 H 0.65531 0.50344 0.71636 0.0
H561 H 0.63357 0.50536 0.65265 0.0
H562 H 0.63102 0.48055 0.70841 0.0
H563 H 0.55165 0.48247 0.84353 0.0
H564 H 0.52865 0.48612 0.74056 0.0
H565 H 0.59175 0.51742 0.63954 0.0
C566 C 0.64404 0.50429 0.86258 0.0
C567 C 0.64229 0.49368 0.92621 0.0
C568 C 0.61979 0.48483 0.95118 0.0
C569 C 0.59941 0.48615 0.91315 0.0
C570 C 0.60179 0.49635 0.85011 0.0
C571 C 0.62354 0.5053 0.82503 0.0
C572 C 0.62152 0.51383 0.75403 0.0
C573 C 0.62863 0.5407 0.75018 0.0
C574 C 0.63622 0.49996 0.70499 0.0
C575 C 0.59533 0.50789 0.7426 0.0
C576 C 0.5842 0.49806 0.79887 0.0
C577 C 0.56016 0.49034 0.79941 0.0
C578 C 0.54724 0.49246 0.74071 0.0
C579 C 0.55842 0.50206 0.68217 0.0
C580 C 0.5827 0.51014 0.68367 0.0
H581 H 0.01643 0.62504 0.93575 0.0
H582 H 0.9477 0.64685 0.8905 0.0
H583 H 0.94202 0.61509 0.80445 0.0
H584 H 0.0335 0.61367 0.77189 0.0
H585 H 0.04839 0.58795 0.78945 0.0
H586 H 0.04594 0.61037 0.85336 0.0
H587 H 0.02606 0.57859 0.93316 0.0
H588 H 0.0285 0.55602 0.86937 0.0
H589 H 1.00016 0.56005 0.9062 0.0
H590 H 0.94635 0.5857 0.712 0.0
H591 H 0.95937 0.5584 0.62432 0.0
H592 H 0.02401 0.55316 0.73225 0.0
C593 C 1.00001 0.62283 0.90855 0.0
C594 C 0.98243 0.63837 0.92032 0.0
C595 C 0.96124 0.63494 0.8834 0.0
C596 C 0.95789 0.61699 0.83414 0.0
C597 C 0.97573 0.60231 0.82286 0.0
C598 C 0.99625 0.60476 0.85962 0.0
C599 C 0.01317 0.58744 0.83485 0.0
C600 C 0.03663 0.60065 0.81096 0.0
C601 C 0.0172 0.56946 0.88914 0.0
C602 C 0.99934 0.57555 0.77677 0.0
C603 C 0.97774 0.5844 0.77094 0.0
C604 C 0.96289 0.57813 0.71712 0.0
C605 C 0.9704 0.56267 0.66759 0.0
C606 C 0.99231 0.55331 0.67283 0.0
C607 C 0.00678 0.55947 0.72864 0.0
H608 H 0.98246 0.15318 0.26684 0.0
H609 H 0.02689 0.13333 0.10192 0.0
H610 H 0.01633 0.09104 0.12622 0.0
H611 H 0.99871 0.1128 0.37651 0.0
H612 H 0.97021 0.1063 0.4157 0.0
H613 H 0.97764 0.13445 0.37703 0.0
H614 H 0.94042 0.12695 0.30291 0.0
H615 H 0.9331 0.09849 0.34104 0.0
H616 H 0.93622 0.10042 0.25135 0.0
H617 H 0.00719 0.05218 0.18001 0.0
H618 H 1.00165 0.02019 0.26281 0.0
H619 H 0.96119 0.06432 0.3892 0.0
C620 C 0.98935 0.13986 0.23471 0.0
C621 C 0.00551 0.14644 0.18274 0.0
C622 C 0.01467 0.12861 0.14256 0.0
C623 C 0.00852 0.10455 0.15538 0.0
C624 C 0.99296 0.09859 0.20803 0.0
C625 C 0.9834 0.11573 0.24694 0.0
C626 C 0.96962 0.10478 0.30575 0.0
C627 C 0.97966 0.11519 0.37264 0.0
C628 C 0.94327 0.10784 0.29988 0.0
C629 C 0.97405 0.07904 0.29592 0.0
C630 C 0.98713 0.07573 0.23843 0.0
C631 C 0.99633 0.0543 0.22404 0.0
C632 C 0.99306 0.03619 0.27116 0.0
C633 C 0.9807 0.03973 0.33161 0.0
C634 C 0.97007 0.06091 0.34234 0.0
H635 H 0.37549 0.92815 0.20089 0.0
H636 H 0.31996 0.92621 0.35119 0.0
H637 H 0.34921 0.92258 0.43938 0.0
H638 H 0.41683 0.89053 0.29438 0.0
H639 H 0.4421 0.90946 0.26523 0.0
H640 H 0.41641 0.90384 0.21319 0.0
H641 H 0.41426 0.94914 0.20461 0.0
H642 H 0.43958 0.95491 0.25703 0.0
H643 H 0.41243 0.96676 0.28026 0.0
H644 H 0.38437 0.92993 0.51114 0.0
H645 H 0.42232 0.9463 0.5599 0.0
H646 H 0.45541 0.94472 0.36384 0.0
C647 C 0.36942 0.92602 0.2522 0.0
C648 C 0.34553 0.92744 0.26934 0.0
C649 C 0.33814 0.92478 0.33686 0.0
C650 C 0.35467 0.92275 0.38732 0.0
C651 C 0.3784 0.9231 0.36918 0.0
C652 C 0.38573 0.92426 0.30295 0.0
C653 C 0.41231 0.92853 0.29706 0.0
C654 C 0.42251 0.90679 0.26562 0.0
C655 C 0.42007 0.95118 0.25747 0.0
C656 C 0.41868 0.93151 0.37017 0.0
C657 C 0.39897 0.9276 0.41112 0.0
C658 C 0.40002 0.93231 0.47983 0.0
C659 C 0.42159 0.94175 0.50705 0.0
C660 C 0.44167 0.9466 0.46546 0.0
C661 C 0.44036 0.9407 0.39674 0.0
H662 H 0.51018 0.35543 0.18 0.0
H663 H 0.58451 0.3457 0.18372 0.0
H664 H 0.59322 0.38636 0.23211 0.0
H665 H 0.51771 0.41872 0.13745 0.0
H666 H 0.49302 0.42525 0.18922 0.0
H667 H 0.49324 0.39636 0.14996 0.0
H668 H 0.48712 0.37646 0.26574 0.0
H669 H 0.48655 0.40519 0.30495 0.0
H670 H 0.50726 0.38553 0.33254 0.0
H671 H 0.59261 0.42618 0.2925 0.0
H672 H 0.58278 0.46112 0.35957 0.0
H673 H 0.50915 0.44499 0.30819 0.0
C674 C 0.52831 0.36194 0.19081 0.0
C675 C 0.5467 0.34755 0.17918 0.0
C676 C 0.57024 0.35661 0.19276 0.0
C677 C 0.5753 0.37963 0.21982 0.0
C678 C 0.55664 0.39335 0.23129 0.0
C679 C 0.53364 0.38484 0.21661 0.0
C680 C 0.51653 0.40242 0.23638 0.0
C681 C 0.50442 0.41121 0.17455 0.0
C682 C 0.49831 0.39177 0.28797 0.0
C683 C 0.53333 0.42186 0.26711 0.0
C684 C 0.55644 0.41651 0.26328 0.0
C685 C 0.57467 0.43081 0.29447 0.0
C686 C 0.56896 0.45062 0.33226 0.0
C687 C 0.54528 0.4558 0.33818 0.0
C688 C 0.52747 0.44171 0.30325 0.0
H689 H 0.16489 0.53253 0.19829 0.0
H690 H 0.18649 0.60591 0.25176 0.0
H691 H 0.14793 0.60862 0.30938 0.0
H692 H 0.10246 0.53994 0.1684 0.0
H693 H 0.09245 0.51134 0.20226 0.0
H694 H 0.12092 0.516 0.16178 0.0
H695 H 0.14073 0.502 0.26821 0.0
H696 H 0.11236 0.49719 0.30869 0.0
H697 H 0.13571 0.51636 0.34764 0.0
H698 H 0.10898 0.60144 0.37122 0.0
H699 H 0.07237 0.58556 0.42967 0.0
H700 H 0.07553 0.5176 0.32853 0.0
C701 C 0.1613 0.54921 0.22167 0.0
C702 C 0.17839 0.56901 0.22143 0.0
C703 C 0.1734 0.59063 0.25193 0.0
C704 C 0.15162 0.59229 0.28437 0.0
C705 C 0.1351 0.57228 0.28431 0.0
C706 C 0.13964 0.55122 0.25311 0.0
C707 C 0.11945 0.53201 0.26219 0.0
C708 C 0.10815 0.52438 0.19463 0.0
C709 C 0.12755 0.51065 0.29888 0.0
C710 C 0.10306 0.54525 0.30532 0.0
C711 C 0.11233 0.56848 0.31739 0.0
C712 C 0.10132 0.58347 0.36094 0.0
C713 C 0.08059 0.57433 0.39387 0.0
C714 C 0.07107 0.55054 0.3825 0.0
C715 C 0.08215 0.53605 0.33658 0.0
H716 H 0.05566 0.85567 0.86659 0.0
H717 H 0.01291 0.87534 0.0353 0.0
H718 H 0.0218 0.9176 0.00799 0.0
H719 H 0.10036 0.91051 0.87291 0.0
H720 H 0.10183 0.91153 0.78281 0.0
H721 H 0.09651 0.88337 0.8239 0.0
H722 H 0.05831 0.87337 0.7552 0.0
H723 H 0.06366 0.90127 0.7138 0.0
H724 H 0.03609 0.89383 0.75725 0.0
H725 H 0.02825 0.95597 0.95057 0.0
H726 H 0.03102 0.98718 0.86528 0.0
H727 H 0.07125 0.94373 0.7362 0.0
C728 C 0.04892 0.869 0.89897 0.0
C729 C 0.03365 0.86237 0.95291 0.0
C730 C 0.02455 0.88015 0.9934 0.0
C731 C 0.02971 0.90419 0.97874 0.0
C732 C 0.04421 0.9102 0.92383 0.0
C733 C 0.05385 0.89314 0.88477 0.0
C734 C 0.06611 0.90399 0.82339 0.0
C735 C 0.09279 0.90225 0.82594 0.0
C736 C 0.05539 0.89244 0.75865 0.0
C737 C 0.06062 0.92948 0.83199 0.0
C738 C 0.04842 0.93283 0.89103 0.0
C739 C 0.03845 0.95386 0.90524 0.0
C740 C 0.04012 0.97152 0.85665 0.0
C741 C 0.05168 0.96795 0.79493 0.0
C742 C 0.06297 0.94719 0.78394 0.0
H743 H 0.66331 0.07693 0.94171 0.0
H744 H 0.71389 0.09778 0.7847 0.0
H745 H 0.68117 0.1023 0.7074 0.0
H746 H 0.62738 0.04061 0.84754 0.0
H747 H 0.59986 0.04703 0.88542 0.0
H748 H 0.62651 0.05145 0.9329 0.0
H749 H 0.61963 0.09536 0.9562 0.0
H750 H 0.59266 0.09102 0.90922 0.0
H751 H 0.61515 0.1144 0.88719 0.0
H752 H 0.64407 0.0965 0.64241 0.0
H753 H 0.60557 0.08111 0.59502 0.0
H754 H 0.57893 0.06424 0.79437 0.0
C755 C 0.66748 0.0836 0.89207 0.0
C756 C 0.69107 0.08732 0.8693 0.0
C757 C 0.69589 0.09499 0.80309 0.0
C758 C 0.67743 0.09773 0.75905 0.0
C759 C 0.6543 0.0929 0.78225 0.0
C760 C 0.64927 0.08625 0.84755 0.0
C761 C 0.62324 0.07864 0.85748 0.0
C762 C 0.61903 0.05292 0.88223 0.0
C763 C 0.61201 0.09589 0.90535 0.0
C764 C 0.61462 0.08067 0.78673 0.0
C765 C 0.63269 0.08944 0.74435 0.0
C766 C 0.62964 0.09026 0.67533 0.0
C767 C 0.60776 0.08141 0.64884 0.0
C768 C 0.58934 0.07177 0.69131 0.0
C769 C 0.59261 0.07204 0.76112 0.0
H770 H 0.49641 0.65322 0.91994 0.0
H771 H 0.42063 0.6523 0.94181 0.0
H772 H 0.41556 0.61146 0.89288 0.0
H773 H 0.49699 0.62283 0.76413 0.0
H774 H 0.52162 0.6069 0.78482 0.0
H775 H 0.51864 0.63538 0.82337 0.0
H776 H 0.52034 0.61666 0.94062 0.0
H777 H 0.52297 0.58801 0.90225 0.0
H778 H 0.49959 0.59166 0.96183 0.0
H779 H 0.41929 0.57186 0.83249 0.0
H780 H 0.43142 0.53749 0.76684 0.0
H781 H 0.50477 0.5643 0.79333 0.0
C782 C 0.47873 0.64446 0.91406 0.0
C783 C 0.45886 0.65588 0.93352 0.0
C784 C 0.43602 0.64376 0.92665 0.0
C785 C 0.43302 0.62061 0.89923 0.0
C786 C 0.45309 0.60984 0.88041 0.0
C787 C 0.47549 0.6214 0.88796 0.0
C788 C 0.49424 0.60636 0.86297 0.0
C789 C 0.50871 0.61859 0.80541 0.0
C790 C 0.51022 0.60032 0.92035 0.0
C791 C 0.47893 0.58467 0.8385 0.0
C792 C 0.45523 0.58687 0.84897 0.0
C793 C 0.4378 0.56977 0.82517 0.0
C794 C 0.44481 0.5503 0.78821 0.0
C795 C 0.469 0.54815 0.77607 0.0
C796 C 0.48617 0.56521 0.80322 0.0
H797 H 0.84428 0.46033 0.88833 0.0
H798 H 0.8404 0.38357 0.88779 0.0
H799 H 0.88169 0.38569 0.84443 0.0
H800 H 0.87712 0.47006 0.73984 0.0
H801 H 0.89402 0.49651 0.77131 0.0
H802 H 0.86487 0.48818 0.80374 0.0
H803 H 0.88167 0.48891 0.92407 0.0
H804 H 0.91098 0.4969 0.89172 0.0
H805 H 0.90504 0.47098 0.94261 0.0
H806 H 0.92256 0.39711 0.7919 0.0
H807 H 0.95842 0.4164 0.73585 0.0
H808 H 0.93511 0.48544 0.78078 0.0
C809 C 0.8521 0.44395 0.87864 0.0
C810 C 0.83924 0.42178 0.88974 0.0
C811 C 0.85007 0.40069 0.87847 0.0
C812 C 0.87345 0.40178 0.85436 0.0
C813 C 0.88569 0.42409 0.84369 0.0
C814 C 0.87532 0.44476 0.85608 0.0
C815 C 0.89173 0.46657 0.84 0.0
C816 C 0.88132 0.48117 0.78548 0.0
C817 C 0.89771 0.48172 0.90339 0.0
C818 C 0.91285 0.45506 0.81443 0.0
C819 C 0.90923 0.43056 0.81708 0.0
C820 C 0.92573 0.41627 0.79076 0.0
C821 C 0.94605 0.42734 0.75928 0.0
C822 C 0.94956 0.45236 0.75482 0.0
C823 C 0.93309 0.46628 0.7846 0.0
H824 H 0.06238 0.16684 0.83141 0.0
H825 H 0.04346 0.20967 0.66658 0.0
H826 H 0.03645 0.1734 0.59545 0.0
H827 H 0.09165 0.12309 0.7319 0.0
H828 H 0.08021 0.09874 0.78367 0.0
H829 H 0.08559 0.12822 0.81944 0.0
H830 H 0.04229 0.12577 0.86151 0.0
H831 H 0.03673 0.09637 0.82561 0.0
H832 H 0.0187 0.11919 0.80255 0.0
H833 H 0.02978 0.13238 0.5444 0.0
H834 H 0.023 0.08977 0.51696 0.0
H835 H 0.0455 0.07318 0.71624 0.0
C836 C 0.05734 0.16867 0.7798 0.0
C837 C 0.05381 0.19115 0.7541 0.0
C838 C 0.04639 0.19267 0.68708 0.0
C839 C 0.04243 0.17217 0.64637 0.0
C840 C 0.04583 0.15027 0.67358 0.0
C841 C 0.0531 0.14838 0.73878 0.0
C842 C 0.05408 0.12262 0.75715 0.0
C843 C 0.07939 0.11789 0.77402 0.0
C844 C 0.03692 0.11558 0.81513 0.0
C845 C 0.04601 0.11024 0.69222 0.0
C846 C 0.04153 0.12656 0.64458 0.0
C847 C 0.03338 0.11948 0.58121 0.0
C848 C 0.02956 0.09512 0.56616 0.0
C849 C 0.03376 0.07795 0.61433 0.0
C850 C 0.04225 0.08576 0.6781 0.0
H851 H 0.36179 0.9831 0.79851 0.0
H852 H 0.33864 0.05236 0.76261 0.0
H853 H 0.37617 0.06416 0.70355 0.0
H854 H 0.42119 1.00272 0.83041 0.0
H855 H 0.43308 0.97796 0.78908 0.0
H856 H 0.40384 0.97429 0.82478 0.0
H857 H 0.38671 0.95938 0.70988 0.0
H858 H 0.41612 0.9626 0.67506 0.0
H859 H 0.39319 0.97724 0.63687 0.0
H860 H 0.41741 0.06945 0.65518 0.0
H861 H 0.45876 0.06747 0.61883 0.0
H862 H 0.45477 0.9943 0.68168 0.0
C863 C 0.36428 1.00056 0.77686 0.0
C864 C 0.34702 0.01675 0.78533 0.0
C865 C 0.35152 0.03966 0.75759 0.0
C866 C 0.37278 0.04649 0.72351 0.0
C867 C 0.38946 0.03021 0.71696 0.0
C868 C 0.38539 0.00764 0.74241 0.0
C869 C 0.40661 0.99385 0.73085 0.0
C870 C 0.41678 0.9868 0.79776 0.0
C871 C 0.40026 0.97198 0.68543 0.0
C872 C 0.42337 0.01228 0.6956 0.0
C873 C 0.4131 0.03313 0.68809 0.0
C874 C 0.4255 0.05312 0.66011 0.0
C875 C 0.449 0.05185 0.63972 0.0
C876 C 0.45992 0.03072 0.64693 0.0
C877 C 0.44678 0.0106 0.67459 0.0
H878 H 0.4659 0.3396 0.81956 0.0
H879 H 0.47757 0.29619 0.64357 0.0
H880 H 0.48176 0.33221 0.5744 0.0
H881 H 0.433 0.38348 0.73605 0.0
H882 H 0.44659 0.40778 0.78632 0.0
H883 H 0.44212 0.37837 0.82022 0.0
H884 H 0.48665 0.38039 0.84678 0.0
H885 H 0.49131 0.40967 0.81255 0.0
H886 H 0.508 0.38653 0.78048 0.0
H887 H 0.48775 0.37323 0.52642 0.0
H888 H 0.49496 0.41592 0.50274 0.0
H889 H 0.47942 0.4327 0.71053 0.0
C890 C 0.46862 0.33756 0.76612 0.0
C891 C 0.47112 0.315 0.73678 0.0
C892 C 0.47553 0.31325 0.66704 0.0
C893 C 0.47786 0.3336 0.62739 0.0
C894 C 0.47574 0.3556 0.6582 0.0
C895 C 0.47111 0.35768 0.72596 0.0
C896 C 0.4712 0.38349 0.74767 0.0
C897 C 0.44677 0.38858 0.77411 0.0
C898 C 0.49043 0.39041 0.79994 0.0
C899 C 0.47699 0.39567 0.68175 0.0
C900 C 0.47938 0.37925 0.63069 0.0
C901 C 0.48569 0.38622 0.5659 0.0
C902 C 0.48982 0.41057 0.55302 0.0
C903 C 0.4877 0.42777 0.60469 0.0
C904 C 0.48096 0.42008 0.66973 0.0
H905 H 0.1799 0.51462 0.76229 0.0
H906 H 0.17511 0.44038 0.81704 0.0
H907 H 0.13572 0.43394 0.76639 0.0
H908 H 0.12133 0.52402 0.79267 0.0
H909 H 0.1185 0.54264 0.72163 0.0
H910 H 0.14691 0.54136 0.75898 0.0
H911 H 0.1642 0.52919 0.64449 0.0
H912 H 0.1359 0.53072 0.60648 0.0
H913 H 0.15019 0.50385 0.59917 0.0
H914 H 0.09504 0.43658 0.7205 0.0
H915 H 0.058 0.44707 0.67103 0.0
H916 H 0.09061 0.51847 0.63676 0.0
C917 C 0.171 0.4968 0.76211 0.0
C918 C 0.18079 0.47807 0.79452 0.0
C919 C 0.16799 0.4552 0.794 0.0
C920 C 0.14559 0.4513 0.7649 0.0
C921 C 0.13628 0.4703 0.73519 0.0
C922 C 0.14878 0.49248 0.73232 0.0
C923 C 0.13464 0.50998 0.6981 0.0
C924 C 0.13008 0.53072 0.7457 0.0
C925 C 0.14697 0.51896 0.6332 0.0
C926 C 0.11205 0.49428 0.68337 0.0
C927 C 0.1133 0.47149 0.70564 0.0
C928 C 0.09403 0.45425 0.70178 0.0
C929 C 0.07303 0.4604 0.67399 0.0
C930 C 0.07154 0.48348 0.64948 0.0
C931 C 0.09139 0.50056 0.65401 0.0
H932 H 0.96914 0.84113 0.29634 0.0
H933 H 0.98399 0.79803 0.46485 0.0
H934 H 0.99007 0.83427 0.53645 0.0
H935 H 0.01276 0.88789 0.3308 0.0
H936 H 0.99575 0.91112 0.30453 0.0
H937 H 0.99021 0.88175 0.2685 0.0
H938 H 0.94626 0.88024 0.30414 0.0
H939 H 0.95163 0.90971 0.33995 0.0
H940 H 0.93875 0.88564 0.39059 0.0
H941 H 0.99686 0.8753 0.58735 0.0
H942 H 0.00437 0.91794 0.61434 0.0
H943 H 0.9857 0.93462 0.41161 0.0
C944 C 0.97302 0.83924 0.3488 0.0
C945 C 0.97573 0.8167 0.37541 0.0
C946 C 0.98169 0.81508 0.44365 0.0
C947 C 0.98511 0.83555 0.48461 0.0
C948 C 0.98263 0.85752 0.45646 0.0
C949 C 0.97669 0.85948 0.39012 0.0
C950 C 0.97663 0.88527 0.37096 0.0
C951 C 0.99493 0.89189 0.31542 0.0
C952 C 0.95184 0.89052 0.3502 0.0
C953 C 0.98373 0.89758 0.43674 0.0
C954 C 0.98693 0.88122 0.48548 0.0
C955 C 0.99422 0.88825 0.54971 0.0
C956 C 0.99848 0.9126 0.56449 0.0
C957 C 0.99557 0.92977 0.51521 0.0
C958 C 0.98791 0.92202 0.45061 0.0
H959 H 0.65868 0.97846 0.27616 0.0
H960 H 0.70144 0.01563 0.43149 0.0
H961 H 0.66638 0.01523 0.50476 0.0
H962 H 0.60763 0.00705 0.3026 0.0
H963 H 0.5871 0.98106 0.28884 0.0
H964 H 0.61573 0.98313 0.24924 0.0
H965 H 0.62403 0.94348 0.30217 0.0
H966 H 0.59532 0.94119 0.3416 0.0
H967 H 0.62129 0.94014 0.39159 0.0
H968 H 0.62587 0.01456 0.55709 0.0
H969 H 0.58351 0.01002 0.58834 0.0
H970 H 0.5674 0.97034 0.4043 0.0
C971 C 0.66091 0.98599 0.32615 0.0
C972 C 0.68303 0.9973 0.34734 0.0
C973 C 0.68476 0.00729 0.41304 0.0
C974 C 0.66492 0.00702 0.45543 0.0
C975 C 0.64337 0.99631 0.43225 0.0
C976 C 0.6413 0.98559 0.3696 0.0
C977 C 0.61596 0.97562 0.35652 0.0
C978 C 0.60603 0.98743 0.2957 0.0
C979 C 0.61404 0.94849 0.34745 0.0
C980 C 0.60406 0.98276 0.42111 0.0
C981 C 0.62019 0.99484 0.46393 0.0
C982 C 0.61318 0.00474 0.52449 0.0
C983 C 0.58911 1.0022 0.54173 0.0
C984 C 0.57237 0.9896 0.49918 0.0
C985 C 0.57998 0.97957 0.43841 0.0
H986 H 0.54246 0.66229 0.29191 0.0
H987 H 0.53403 0.70631 0.46883 0.0
H988 H 0.5321 0.67066 0.53918 0.0
H989 H 0.50231 0.61504 0.33886 0.0
H990 H 0.51875 0.59207 0.30442 0.0
H991 H 0.52215 0.6212 0.26898 0.0
H992 H 0.56723 0.6241 0.28793 0.0
H993 H 0.56401 0.59485 0.32301 0.0
H994 H 0.57824 0.61955 0.37045 0.0
H995 H 0.52745 0.6298 0.58863 0.0
H996 H 0.52106 0.58714 0.61379 0.0
H997 H 0.53299 0.56983 0.40431 0.0
C998 C 0.54096 0.66458 0.34567 0.0
C999 C 0.53865 0.68718 0.37494 0.0
C1000 C 0.53585 0.68921 0.44531 0.0
C1001 C 0.53483 0.66907 0.48565 0.0
C1002 C 0.53669 0.64702 0.45493 0.0
C1003 C 0.53985 0.64469 0.38655 0.0
C1004 C 0.53978 0.61884 0.36532 0.0
C1005 C 0.51954 0.61136 0.31653 0.0
C1006 C 0.56375 0.61406 0.33489 0.0
C1007 C 0.53561 0.60692 0.43226 0.0
C1008 C 0.53402 0.62349 0.48339 0.0
C1009 C 0.52896 0.6167 0.5491 0.0
C1010 C 0.52528 0.59238 0.56284 0.0
C1011 C 0.52664 0.57507 0.51112 0.0
C1012 C 0.53215 0.58257 0.44516 0.0
H1013 H 0.86325 0.50842 0.2293 0.0
H1014 H 0.81661 0.52817 0.38941 0.0
H1015 H 0.85023 0.53258 0.46709 0.0
H1016 H 0.89742 0.47407 0.32632 0.0
H1017 H 0.92501 0.48317 0.28479 0.0
H1018 H 0.89774 0.48321 0.2403 0.0
H1019 H 0.90811 0.5276 0.21286 0.0
H1020 H 0.9355 0.52768 0.25705 0.0
H1021 H 0.9151 0.54879 0.27996 0.0
H1022 H 0.88799 0.5318 0.52919 0.0
H1023 H 0.92752 0.52661 0.57157 0.0
H1024 H 0.95044 0.50878 0.37075 0.0
C1025 C 0.86017 0.51424 0.28028 0.0
C1026 C 0.83721 0.51807 0.30309 0.0
C1027 C 0.83393 0.52499 0.37078 0.0
C1028 C 0.85296 0.52768 0.41519 0.0
C1029 C 0.87525 0.52349 0.3912 0.0
C1030 C 0.87899 0.51704 0.32526 0.0
C1031 C 0.9045 0.51252 0.31307 0.0
C1032 C 0.90626 0.48671 0.28975 0.0
C1033 C 0.91651 0.53021 0.26275 0.0
C1034 C 0.91445 0.5171 0.38275 0.0
C1035 C 0.89723 0.52344 0.42694 0.0
C1036 C 0.90168 0.52717 0.49489 0.0
C1037 C 0.92419 0.52412 0.5185 0.0
C1038 C 0.94213 0.51755 0.47434 0.0
C1039 C 0.93723 0.51431 0.40538 0.0
loop_
_geom_bond_atom_site_label_1
_geom_bond_atom_site_label_2
_geom_bond_distance
_geom_bond_site_symmetry_2
_ccdc_geom_bond_type
C0 C1 1.386 . S
C0 C2 1.397 . S
C0 H24 0.931 . S
C1 C0 1.386 . S
C1 C5 1.397 . S
C2 C0 1.397 . S
C2 C3 1.384 . S
C2 H25 0.930 . S
C3 C2 1.384 . S
C3 C4 1.377 . S
C3 C6 1.481 . S
C4 C3 1.377 . S
C4 C5 1.389 . S
C4 H26 0.929 . S
C5 C1 1.397 . S
C5 C4 1.389 . S
C5 H27 0.931 . S
C6 C3 1.481 . S
C6 C7 1.387 . S
C6 C11 1.390 1_556 S
C7 C6 1.387 . S
C7 C8 1.401 1_556 S
C7 H28 0.930 . S
C8 C7 1.401 1_554 S
C8 C9 1.376 . S
C8 C17 1.511 1_554 S
C9 C8 1.376 . S
C9 C10 1.392 . S
C9 H30 0.931 . S
C10 C9 1.392 . S
C10 C11 1.361 . S
C10 C12 1.500 . S
C11 C6 1.390 1_554 S
C11 C10 1.361 . S
C11 H29 0.931 . S
C12 C10 1.500 . S
C12 C13 1.371 . S
C12 C14 1.365 . S
C13 C12 1.371 . S
C13 C23 1.386 . S
C13 H31 0.931 . S
C14 C12 1.365 . S
C14 C15 1.409 . S
C14 H32 0.929 . S
C15 C14 1.409 . S
C15 C16 1.380 . S
C15 H33 0.930 . S
C16 C15 1.380 . S
C16 C23 1.357 . S
C17 C8 1.511 1_556 S
C17 C18 1.341 . S
C17 C19 1.371 1_556 S
C18 C17 1.341 . S
C18 C22 1.394 . S
C18 H34 0.930 . S
C19 C17 1.371 1_554 S
C19 C20 1.392 . S
C19 H35 0.931 . S
C20 C19 1.392 . S
C20 C21 1.331 1_554 S
C20 H38 0.932 . S
C21 C20 1.331 1_556 S
C21 C22 1.336 . S
C22 C18 1.394 . S
C22 C21 1.336 . S
C22 H37 0.929 . S
C23 C13 1.386 . S
C23 C16 1.357 . S
C23 H36 0.928 . S
H24 C0 0.931 . S
H25 C2 0.930 . S
H26 C4 0.929 . S
H27 C5 0.931 . S
H28 C7 0.930 . S
H29 C11 0.931 . S
H30 C9 0.931 . S
H31 C13 0.931 . S
H32 C14 0.929 . S
H33 C15 0.930 . S
H34 C18 0.930 . S
H35 C19 0.931 . S
H36 C23 0.928 . S
H37 C22 0.929 . S
H38 C20 0.932 . S
C39 C40 1.386 . S
C39 C41 1.397 . S
C39 H63 0.931 . S
C40 C39 1.386 . S
C40 C44 1.397 . S
C41 C39 1.397 . S
C41 C42 1.384 . S
C41 H64 0.930 . S
C42 C41 1.384 . S
C42 C43 1.377 . S
C42 C45 1.481 . S
C43 C42 1.377 . S
C43 C44 1.389 . S
C43 H65 0.929 . S
C44 C40 1.397 . S
C44 C43 1.389 . S
C44 H66 0.931 . S
C45 C42 1.481 . S
C45 C46 1.387 . S
C45 C50 1.390 1_556 S
C46 C45 1.387 . S
C46 C47 1.401 . S
C46 H67 0.930 . S
C47 C46 1.401 . S
C47 C48 1.376 1_556 S
C47 C56 1.511 . S
C48 C47 1.376 1_554 S
C48 C49 1.392 . S
C48 H69 0.931 . S
C49 C48 1.392 . S
C49 C50 1.361 . S
C49 C51 1.500 . S
C50 C45 1.390 1_554 S
C50 C49 1.361 . S
C50 H68 0.931 . S
C51 C49 1.500 . S
C51 C52 1.371 . S
C51 C53 1.365 . S
C52 C51 1.371 . S
C52 C62 1.386 . S
C52 H70 0.931 . S
C53 C51 1.365 . S
C53 C54 1.409 . S
C53 H71 0.929 . S
C54 C53 1.409 . S
C54 C55 1.380 . S
C54 H72 0.930 . S
C55 C54 1.380 . S
C55 C62 1.357 . S
C56 C47 1.511 . S
C56 C57 1.341 . S
C56 C58 1.371 1_556 S
C57 C56 1.341 . S
C57 C61 1.394 . S
C57 H73 0.930 . S
C58 C56 1.371 1_554 S
C58 C59 1.392 . S
C58 H74 0.931 . S
C59 C58 1.392 . S
C59 C60 1.331 1_554 S
C59 H77 0.932 . S
C60 C59 1.331 1_556 S
C60 C61 1.336 . S
C61 C57 1.394 . S
C61 C60 1.336 . S
C61 H76 0.929 . S
C62 C52 1.386 . S
C62 C55 1.357 . S
C62 H75 0.928 . S
H63 C39 0.931 . S
H64 C41 0.930 . S
H65 C43 0.929 . S
H66 C44 0.931 . S
H67 C46 0.930 . S
H68 C50 0.931 . S
H69 C48 0.931 . S
H70 C52 0.931 . S
H71 C53 0.929 . S
H72 C54 0.930 . S
H73 C57 0.930 . S
H74 C58 0.931 . S
H75 C62 0.928 . S
H76 C61 0.929 . S
H77 C59 0.932 . S
C78 C79 1.396 . S
C78 C80 1.397 . S
C78 H102 0.931 . S
C79 C78 1.396 . S
C79 C83 1.389 1_565 S
C80 C78 1.397 . S
C80 C81 1.389 . S
C80 H103 0.930 . S
C81 C80 1.389 . S
C81 C82 1.372 1_565 S
C81 C84 1.478 . S
C82 C81 1.372 1_545 S
C82 C83 1.389 . S
C82 H104 0.929 . S
C83 C79 1.389 1_545 S
C83 C82 1.389 . S
C83 H105 0.931 . S
C84 C81 1.478 . S
C84 C85 1.392 . S
C84 C89 1.390 1_556 S
C85 C84 1.392 . S
C85 C86 1.399 1_556 S
C85 H106 0.930 . S
C86 C85 1.399 1_554 S
C86 C87 1.376 . S
C86 C95 1.516 . S
C87 C86 1.376 . S
C87 C88 1.387 . S
C87 H108 0.938 . S
C88 C87 1.387 . S
C88 C89 1.362 . S
C88 C90 1.499 1_565 S
C89 C84 1.390 1_554 S
C89 C88 1.362 . S
C89 H107 0.930 . S
C90 C88 1.499 1_545 S
C90 C91 1.360 1_545 S
C90 C92 1.377 . S
C91 C90 1.360 1_565 S
C91 C101 1.386 . S
C91 H109 0.931 . S
C92 C90 1.377 . S
C92 C93 1.409 . S
C92 H110 0.929 . S
C93 C92 1.409 . S
C93 C94 1.379 . S
C93 H111 0.930 . S
C94 C93 1.379 . S
C94 C101 1.358 1_545 S
C95 C86 1.516 . S
C95 C96 1.341 1_554 S
C95 C97 1.371 1_565 S
C96 C95 1.341 1_556 S
C96 C100 1.394 . S
C96 H112 0.930 . S
C97 C95 1.371 1_545 S
C97 C98 1.392 . S
C97 H113 0.931 . S
C98 C97 1.392 . S
C98 C99 1.322 1_544 S
C98 H116 0.932 . S
C99 C98 1.322 1_566 S
C99 C100 1.343 . S
C100 C96 1.394 . S
C100 C99 1.343 . S
C100 H115 0.929 . S
C101 C91 1.386 . S
C101 C94 1.358 1_565 S
C101 H114 0.928 . S
H102 C78 0.931 . S
H103 C80 0.930 . S
H104 C82 0.929 . S
H105 C83 0.931 . S
H106 C85 0.930 . S
H107 C89 0.930 . S
H108 C87 0.938 . S
H109 C91 0.931 . S
H110 C92 0.929 . S
H111 C93 0.930 . S
H112 C96 0.930 . S
H113 C97 0.931 . S
H114 C101 0.928 . S
H115 C100 0.929 . S
H116 C98 0.932 . S
C117 C118 1.386 . S
C117 C119 1.397 . S
C117 H141 0.931 . S
C118 C117 1.386 . S
C118 C122 1.397 . S
C119 C117 1.397 . S
C119 C120 1.384 . S
C119 H142 0.930 . S
C120 C119 1.384 . S
C120 C121 1.377 . S
C120 C123 1.481 . S
C121 C120 1.377 . S
C121 C122 1.389 . S
C121 H143 0.929 . S
C122 C118 1.397 . S
C122 C121 1.389 . S
C122 H144 0.931 . S
C123 C120 1.481 . S
C123 C124 1.387 . S
C123 C128 1.390 . S
C124 C123 1.387 . S
C124 C125 1.401 . S
C124 H145 0.930 . S
C125 C124 1.401 . S
C125 C126 1.376 1_554 S
C125 C134 1.511 . S
C126 C125 1.376 1_556 S
C126 C127 1.392 1_556 S
C126 H147 0.931 . S
C127 C126 1.392 1_554 S
C127 C128 1.361 . S
C127 C129 1.500 1_554 S
C128 C123 1.390 . S
C128 C127 1.361 . S
C128 H146 0.931 . S
C129 C127 1.500 1_556 S
C129 C130 1.371 . S
C129 C131 1.365 . S
C130 C129 1.371 . S
C130 C140 1.386 . S
C130 H148 0.931 . S
C131 C129 1.365 . S
C131 C132 1.409 . S
C131 H149 0.929 1_556 S
C132 C131 1.409 . S
C132 C133 1.380 . S
C132 H150 0.930 . S
C133 C132 1.380 . S
C133 C140 1.357 . S
C134 C125 1.511 . S
C134 C135 1.341 . S
C134 C136 1.371 1_554 S
C135 C134 1.341 . S
C135 C139 1.394 . S
C135 H151 0.930 . S
C136 C134 1.371 1_556 S
C136 C137 1.392 . S
C136 H152 0.931 . S
C137 C136 1.392 . S
C137 C138 1.323 1_556 S
C137 H155 0.932 . S
C138 C137 1.323 1_554 S
C138 C139 1.347 . S
C139 C135 1.394 . S
C139 C138 1.347 . S
C139 H154 0.929 . S
C140 C130 1.386 . S
C140 C133 1.357 . S
C140 H153 0.928 . S
H141 C117 0.931 . S
H142 C119 0.930 . S
H143 C121 0.929 . S
H144 C122 0.931 . S
H145 C124 0.930 . S
H146 C128 0.931 . S
H147 C126 0.931 . S
H148 C130 0.931 . S
H149 C131 0.929 1_554 S
H150 C132 0.930 . S
H151 C135 0.930 . S
H152 C136 0.931 . S
H153 C140 0.928 . S
H154 C139 0.929 . S
H155 C137 0.932 . S
C156 C157 1.386 . S
C156 C158 1.397 . S
C156 H180 0.931 . S
C157 C156 1.386 . S
C157 C161 1.397 . S
C158 C156 1.397 . S
C158 C159 1.384 . S
C158 H181 0.930 . S
C159 C158 1.384 . S
C159 C160 1.377 . S
C159 C162 1.481 . S
C160 C159 1.377 . S
C160 C161 1.389 . S
C160 H182 0.929 . S
C161 C157 1.397 . S
C161 C160 1.389 . S
C161 H183 0.931 . S
C162 C159 1.481 . S
C162 C163 1.387 . S
C162 C167 1.390 . S
C163 C162 1.387 . S
C163 C164 1.401 . S
C163 H184 0.930 . S
C164 C163 1.401 . S
C164 C165 1.376 . S
C164 C173 1.511 . S
C165 C164 1.376 . S
C165 C166 1.392 . S
C165 H186 0.931 . S
C166 C165 1.392 . S
C166 C167 1.361 . S
C166 C168 1.500 1_554 S
C167 C162 1.390 . S
C167 C166 1.361 . S
C167 H185 0.931 . S
C168 C166 1.500 1_556 S
C168 C169 1.371 . S
C168 C170 1.365 . S
C169 C168 1.371 . S
C169 C179 1.386 . S
C169 H187 0.931 . S
C170 C168 1.365 . S
C170 C171 1.409 . S
C170 H188 0.929 . S
C171 C170 1.409 . S
C171 C172 1.380 . S
C171 H189 0.930 . S
C172 C171 1.380 . S
C172 C179 1.357 . S
C173 C164 1.511 . S
C173 C174 1.341 . S
C173 C175 1.371 . S
C174 C173 1.341 . S
C174 C178 1.394 . S
C174 H190 0.930 . S
C175 C173 1.371 . S
C175 C176 1.392 . S
C175 H191 0.931 . S
C176 C175 1.392 . S
C176 C177 1.331 . S
C176 H194 0.932 . S
C177 C176 1.331 . S
C177 C178 1.336 . S
C178 C174 1.394 . S
C178 C177 1.336 . S
C178 H193 0.929 . S
C179 C169 1.386 . S
C179 C172 1.357 . S
C179 H192 0.928 . S
H180 C156 0.931 . S
H181 C158 0.930 . S
H182 C160 0.929 . S
H183 C161 0.931 . S
H184 C163 0.930 . S
H185 C167 0.931 . S
H186 C165 0.931 . S
H187 C169 0.931 . S
H188 C170 0.929 . S
H189 C171 0.930 . S
H190 C174 0.930 . S
H191 C175 0.931 . S
H192 C179 0.928 . S
H193 C178 0.929 . S
H194 C176 0.932 . S
C195 C196 1.386 . S
C195 C197 1.397 . S
C195 H219 0.931 . S
C196 C195 1.386 . S
C196 C200 1.397 . S
C197 C195 1.397 . S
C197 C198 1.384 . S
C197 H220 0.930 . S
C198 C197 1.384 . S
C198 C199 1.377 . S
C198 C201 1.481 . S
C199 C198 1.377 . S
C199 C200 1.389 . S
C199 H221 0.929 . S
C200 C196 1.397 . S
C200 C199 1.389 . S
C200 H222 0.931 . S
C201 C198 1.481 . S
C201 C202 1.387 . S
C201 C206 1.390 . S
C202 C201 1.387 . S
C202 C203 1.401 . S
C202 H223 0.930 . S
C203 C202 1.401 . S
C203 C204 1.376 . S
C203 C212 1.511 . S
C204 C203 1.376 . S
C204 C205 1.392 . S
C204 H225 0.931 . S
C205 C204 1.392 . S
C205 C206 1.361 . S
C205 C207 1.500 1_554 S
C206 C201 1.390 . S
C206 C205 1.361 . S
C206 H224 0.931 . S
C207 C205 1.500 1_556 S
C207 C208 1.371 . S
C207 C209 1.365 . S
C208 C207 1.371 . S
C208 C218 1.386 . S
C208 H226 0.931 . S
C209 C207 1.365 . S
C209 C210 1.409 . S
C209 H227 0.929 . S
C210 C209 1.409 . S
C210 C211 1.380 . S
C210 H228 0.930 . S
C211 C210 1.380 . S
C211 C218 1.357 . S
C212 C203 1.511 . S
C212 C213 1.341 . S
C212 C214 1.371 . S
C213 C212 1.341 . S
C213 C217 1.394 . S
C213 H229 0.930 . S
C214 C212 1.371 . S
C214 C215 1.392 . S
C214 H230 0.931 . S
C215 C214 1.392 . S
C215 C216 1.331 . S
C215 H233 0.932 . S
C216 C215 1.331 . S
C216 C217 1.336 . S
C217 C213 1.394 . S
C217 C216 1.336 . S
C217 H232 0.929 . S
C218 C208 1.386 . S
C218 C211 1.357 . S
C218 H231 0.928 . S
H219 C195 0.931 . S
H220 C197 0.930 . S
H221 C199 0.929 . S
H222 C200 0.931 . S
H223 C202 0.930 . S
H224 C206 0.931 . S
H225 C204 0.931 . S
H226 C208 0.931 . S
H227 C209 0.929 . S
H228 C210 0.930 . S
H229 C213 0.930 . S
H230 C214 0.931 . S
H231 C218 0.928 . S
H232 C217 0.929 . S
H233 C215 0.932 . S
C234 C235 1.387 . S
C234 C236 1.397 . S
C234 H258 0.931 . S
C235 C234 1.387 . S
C235 C239 1.395 1_565 S
C236 C234 1.397 . S
C236 C237 1.382 . S
C236 H259 0.930 . S
C237 C236 1.382 . S
C237 C238 1.379 1_565 S
C237 C240 1.483 . S
C238 C237 1.379 1_545 S
C238 C239 1.389 . S
C238 H260 0.929 . S
C239 C235 1.395 1_545 S
C239 C238 1.389 . S
C239 H261 0.931 . S
C240 C237 1.483 . S
C240 C241 1.386 . S
C240 C245 1.390 . S
C241 C240 1.386 . S
C241 C242 1.404 . S
C241 H262 0.930 . S
C242 C241 1.404 . S
C242 C243 1.376 . S
C242 C251 1.510 . S
C243 C242 1.376 . S
C243 C244 1.395 1_565 S
C243 H264 0.930 1_554 S
C244 C243 1.395 1_545 S
C244 C245 1.361 1_545 S
C244 C246 1.500 1_554 S
C245 C240 1.390 . S
C245 C244 1.361 1_565 S
C245 H263 0.932 . S
C246 C244 1.500 1_556 S
C246 C247 1.359 1_545 S
C246 C248 1.378 . S
C247 C246 1.359 1_565 S
C247 C257 1.386 . S
C247 H265 0.931 . S
C248 C246 1.378 . S
C248 C249 1.409 . S
C248 H266 0.929 . S
C249 C248 1.409 . S
C249 C250 1.384 . S
C249 H267 0.930 . S
C250 C249 1.384 . S
C250 C257 1.354 1_545 S
C251 C242 1.510 . S
C251 C252 1.341 . S
C251 C253 1.371 1_565 S
C252 C251 1.341 . S
C252 C256 1.394 . S
C252 H268 0.930 . S
C253 C251 1.371 1_545 S
C253 C254 1.392 . S
C253 H269 0.931 . S
C254 C253 1.392 . S
C254 C255 1.326 1_545 S
C254 H272 0.932 . S
C255 C254 1.326 1_565 S
C255 C256 1.343 . S
C256 C252 1.394 . S
C256 C255 1.343 . S
C256 H271 0.929 . S
C257 C247 1.386 . S
C257 C250 1.354 1_565 S
C257 H270 0.928 . S
H258 C234 0.931 . S
H259 C236 0.930 . S
H260 C238 0.929 . S
H261 C239 0.931 . S
H262 C241 0.930 . S
H263 C245 0.932 . S
H264 C243 0.930 1_556 S
H265 C247 0.931 . S
H266 C248 0.929 . S
H267 C249 0.930 . S
H268 C252 0.930 . S
H269 C253 0.931 . S
H270 C257 0.928 . S
H271 C256 0.929 . S
H272 C254 0.932 . S
C273 C274 1.386 . S
C273 C275 1.397 . S
C273 H297 0.931 . S
C274 C273 1.386 . S
C274 C278 1.397 . S
C275 C273 1.397 . S
C275 C276 1.384 . S
C275 H298 0.930 . S
C276 C275 1.384 . S
C276 C277 1.377 . S
C276 C279 1.481 . S
C277 C276 1.377 . S
C277 C278 1.389 . S
C277 H299 0.929 . S
C278 C274 1.397 . S
C278 C277 1.389 . S
C278 H300 0.931 . S
C279 C276 1.481 . S
C279 C280 1.387 1_556 S
C279 C284 1.390 1_556 S
C280 C279 1.387 1_554 S
C280 C281 1.401 . S
C280 H301 0.930 1_554 S
C281 C280 1.401 . S
C281 C282 1.376 . S
C281 C290 1.511 . S
C282 C281 1.376 . S
C282 C283 1.392 . S
C282 H303 0.931 . S
C283 C282 1.392 . S
C283 C284 1.361 . S
C283 C285 1.500 . S
C284 C279 1.390 1_554 S
C284 C283 1.361 . S
C284 H302 0.931 . S
C285 C283 1.500 . S
C285 C286 1.371 . S
C285 C287 1.365 . S
C286 C285 1.371 . S
C286 C296 1.386 . S
C286 H304 0.931 . S
C287 C285 1.365 . S
C287 C288 1.409 . S
C287 H305 0.929 . S
C288 C287 1.409 . S
C288 C289 1.380 . S
C288 H306 0.930 . S
C289 C288 1.380 . S
C289 C296 1.357 . S
C290 C281 1.511 . S
C290 C291 1.341 . S
C290 C292 1.371 . S
C291 C290 1.341 . S
C291 C295 1.394 . S
C291 H307 0.916 1_554 S
C292 C290 1.371 . S
C292 C293 1.392 . S
C292 H308 0.931 . S
C293 C292 1.392 . S
C293 C294 1.331 . S
C293 H311 0.932 . S
C294 C293 1.331 . S
C294 C295 1.336 . S
C295 C291 1.394 . S
C295 C294 1.336 . S
C295 H310 0.929 . S
C296 C286 1.386 . S
C296 C289 1.357 . S
C296 H309 0.928 . S
H297 C273 0.931 . S
H298 C275 0.930 . S
H299 C277 0.929 . S
H300 C278 0.931 . S
H301 C280 0.930 1_556 S
H302 C284 0.931 . S
H303 C282 0.931 . S
H304 C286 0.931 . S
H305 C287 0.929 . S
H306 C288 0.930 . S
H307 C291 0.916 1_556 S
H308 C292 0.931 . S
H309 C296 0.928 . S
H310 C295 0.929 . S
H311 C293 0.932 . S
Dy312 O316 2.398 . S
Dy312 O317 2.491 1_455 S
Dy312 O318 2.403 . S
Dy312 O319 2.664 1_565 S
Dy312 O323 2.326 . S
Dy312 O327 2.310 1_455 S
Dy312 O328 2.351 1_565 S
C313 O324 1.185 1_455 S
C313 O325 1.355 . S
C314 O316 1.185 . S
C314 O317 1.355 1_455 S
Dy315 O319 2.310 1_655 S
Dy315 O322 2.351 1_545 S
Dy315 O324 2.398 . S
Dy315 O325 2.491 1_655 S
Dy315 O326 2.403 . S
Dy315 O327 2.664 1_545 S
Dy315 O329 2.326 1_655 S
O316 Dy312 2.398 . S
O316 C314 1.185 . S
O317 Dy312 2.491 1_655 S
O317 C314 1.355 1_655 S
O318 Dy312 2.403 . S
O318 C320 1.254 . S
O319 Dy312 2.664 1_545 S
O319 Dy315 2.310 1_455 S
O319 C320 1.268 1_545 S
C320 O318 1.254 . S
C320 O319 1.268 1_565 S
C321 O326 1.254 . S
C321 O327 1.268 1_545 S
O322 Dy315 2.351 1_565 S
O322 C330 1.249 . S
O323 Dy312 2.326 . S
O323 C330 1.267 1_455 S
O324 C313 1.185 1_655 S
O324 Dy315 2.398 . S
O325 C313 1.355 . S
O325 Dy315 2.491 1_455 S
O326 Dy315 2.403 . S
O326 C321 1.254 . S
O327 Dy312 2.310 1_655 S
O327 Dy315 2.664 1_565 S
O327 C321 1.268 1_565 S
O328 Dy312 2.351 1_545 S
O328 C331 1.249 . S
O329 Dy315 2.326 1_455 S
O329 C331 1.267 . S
C330 O322 1.249 . S
C330 O323 1.267 1_655 S
C331 O328 1.249 . S
C331 O329 1.267 . S
Dy332 O336 2.398 . S
Dy332 O337 2.491 . S
Dy332 O338 2.403 . S
Dy332 O339 2.664 . S
Dy332 O343 2.326 1_565 S
Dy332 O347 2.310 1_565 S
Dy332 O348 2.351 . S
C333 O344 1.185 . S
C333 O345 1.355 . S
C334 O336 1.185 . S
C334 O337 1.355 . S
Dy335 O339 2.310 1_545 S
Dy335 O342 2.351 . S
Dy335 O344 2.398 . S
Dy335 O345 2.491 . S
Dy335 O346 2.403 . S
Dy335 O347 2.664 . S
Dy335 O349 2.326 1_545 S
O336 Dy332 2.398 . S
O336 C334 1.185 . S
O337 Dy332 2.491 . S
O337 C334 1.355 . S
O338 Dy332 2.403 . S
O338 C340 1.254 . S
O339 Dy332 2.664 . S
O339 Dy335 2.310 1_565 S
O339 C340 1.268 . S
C340 O338 1.254 . S
C340 O339 1.268 . S
C341 O346 1.254 . S
C341 O347 1.268 . S
O342 Dy335 2.351 . S
O342 C350 1.249 . S
O343 Dy332 2.326 1_545 S
O343 C350 1.267 . S
O344 C333 1.185 . S
O344 Dy335 2.398 . S
O345 C333 1.355 . S
O345 Dy335 2.491 . S
O346 Dy335 2.403 . S
O346 C341 1.254 . S
O347 Dy332 2.310 1_545 S
O347 Dy335 2.664 . S
O347 C341 1.268 . S
O348 Dy332 2.351 . S
O348 C351 1.249 . S
O349 Dy335 2.326 1_565 S
O349 C351 1.267 . S
C350 O342 1.249 . S
C350 O343 1.267 . S
C351 O348 1.249 . S
C351 O349 1.267 . S
Dy352 O356 2.398 . S
Dy352 O357 2.491 . S
Dy352 O358 2.403 . S
Dy352 O359 2.664 . S
Dy352 O363 2.326 . S
Dy352 O367 2.310 . S
Dy352 O368 2.351 . S
C353 O364 1.185 . S
C353 O365 1.355 . S
C354 O356 1.185 . S
C354 O357 1.355 . S
Dy355 O359 2.310 . S
Dy355 O362 2.351 . S
Dy355 O364 2.398 . S
Dy355 O365 2.491 . S
Dy355 O366 2.403 . S
Dy355 O367 2.664 . S
Dy355 O369 2.326 . S
O356 Dy352 2.398 . S
O356 C354 1.185 . S
O357 Dy352 2.491 . S
O357 C354 1.355 . S
O358 Dy352 2.403 . S
O358 C360 1.254 . S
O359 Dy352 2.664 . S
O359 Dy355 2.310 . S
O359 C360 1.268 . S
C360 O358 1.254 . S
C360 O359 1.268 . S
C361 O366 1.254 . S
C361 O367 1.268 . S
O362 Dy355 2.351 . S
O362 C370 1.249 . S
O363 Dy352 2.326 . S
O363 C370 1.267 . S
O364 C353 1.185 . S
O364 Dy355 2.398 . S
O365 C353 1.355 . S
O365 Dy355 2.491 . S
O366 Dy355 2.403 . S
O366 C361 1.254 . S
O367 Dy352 2.310 . S
O367 Dy355 2.664 . S
O367 C361 1.268 . S
O368 Dy352 2.351 . S
O368 C371 1.249 . S
O369 Dy355 2.326 . S
O369 C371 1.267 . S
C370 O362 1.249 . S
C370 O363 1.267 . S
C371 O368 1.249 . S
C371 O369 1.267 . S
Dy372 O376 2.398 . S
Dy372 O377 2.491 . S
Dy372 O378 2.403 1_655 S
Dy372 O379 2.664 1_655 S
Dy372 O383 2.326 . S
Dy372 O387 2.310 . S
Dy372 O388 2.351 1_655 S
C373 O384 1.185 . S
C373 O385 1.355 . S
C374 O376 1.185 . S
C374 O377 1.355 . S
Dy375 O379 2.310 . S
Dy375 O382 2.351 1_455 S
Dy375 O384 2.398 . S
Dy375 O385 2.491 . S
Dy375 O386 2.403 . S
Dy375 O387 2.664 1_455 S
Dy375 O389 2.326 . S
O376 Dy372 2.398 . S
O376 C374 1.185 . S
O377 Dy372 2.491 . S
O377 C374 1.355 . S
O378 Dy372 2.403 1_455 S
O378 C380 1.254 . S
O379 Dy372 2.664 1_455 S
O379 Dy375 2.310 . S
O379 C380 1.268 . S
C380 O378 1.254 . S
C380 O379 1.268 . S
C381 O386 1.254 1_655 S
C381 O387 1.268 . S
O382 Dy375 2.351 1_655 S
O382 C390 1.249 . S
O383 Dy372 2.326 . S
O383 C390 1.267 . S
O384 C373 1.185 . S
O384 Dy375 2.398 . S
O385 C373 1.355 . S
O385 Dy375 2.491 . S
O386 Dy375 2.403 . S
O386 C381 1.254 1_455 S
O387 Dy372 2.310 . S
O387 Dy375 2.664 1_655 S
O387 C381 1.268 . S
O388 Dy372 2.351 1_455 S
O388 C391 1.249 . S
O389 Dy375 2.326 . S
O389 C391 1.267 . S
C390 O382 1.249 . S
C390 O383 1.267 . S
C391 O388 1.249 . S
C391 O389 1.267 . S
H392 C404 0.930 . S
H393 C406 0.930 . S
H394 C407 0.930 . S
H395 C411 0.959 . S
H396 C411 0.959 . S
H397 C411 0.961 . S
H398 C412 0.960 . S
H399 C412 0.961 . S
H400 C412 0.959 . S
H401 C415 0.929 . S
H402 C416 0.931 . S
H403 C418 0.930 . S
C404 H392 0.930 . S
C404 C405 1.399 1_565 S
C404 C409 1.399 . S
C405 C404 1.399 1_545 S
C405 C406 1.376 . S
C406 H393 0.930 . S
C406 C405 1.376 . S
C406 C407 1.388 . S
C407 H394 0.930 . S
C407 C406 1.388 . S
C407 C408 1.390 . S
C408 C407 1.390 . S
C408 C409 1.394 1_545 S
C408 C414 1.465 . S
C409 C404 1.399 . S
C409 C408 1.394 1_565 S
C409 C410 1.516 . S
C410 C409 1.516 . S
C410 C411 1.502 . S
C410 C412 1.561 . S
C410 C413 1.526 . S
C411 H395 0.959 . S
C411 H396 0.959 . S
C411 H397 0.961 . S
C411 C410 1.502 . S
C412 H398 0.960 . S
C412 H399 0.961 . S
C412 H400 0.959 . S
C412 C410 1.561 . S
C413 C410 1.526 . S
C413 C414 1.396 1_565 S
C413 C418 1.390 . S
C414 C408 1.465 . S
C414 C413 1.396 1_545 S
C414 C415 1.399 . S
C415 H401 0.929 . S
C415 C414 1.399 . S
C415 C416 1.385 . S
C416 H402 0.931 . S
C416 C415 1.385 . S
C416 C417 1.389 1_545 S
C417 C416 1.389 1_565 S
C417 C418 1.387 . S
C418 H403 0.930 . S
C418 C413 1.390 . S
C418 C417 1.387 . S
H419 C431 0.930 . S
H420 C433 0.930 . S
H421 C434 0.930 . S
H422 C438 0.959 . S
H423 C438 0.959 . S
H424 C438 0.961 . S
H425 C439 0.960 . S
H426 C439 0.961 . S
H427 C439 0.959 . S
H428 C442 0.929 . S
H429 C443 0.931 . S
H430 C445 0.930 . S
C431 H419 0.930 . S
C431 C432 1.399 . S
C431 C436 1.399 . S
C432 C431 1.399 . S
C432 C433 1.376 . S
C433 H420 0.930 . S
C433 C432 1.376 . S
C433 C434 1.388 . S
C434 H421 0.930 . S
C434 C433 1.388 . S
C434 C435 1.390 . S
C435 C434 1.390 . S
C435 C436 1.394 . S
C435 C441 1.465 . S
C436 C431 1.399 . S
C436 C435 1.394 . S
C436 C437 1.516 . S
C437 C436 1.516 . S
C437 C438 1.502 . S
C437 C439 1.561 . S
C437 C440 1.526 . S
C438 H422 0.959 . S
C438 H423 0.959 . S
C438 H424 0.961 . S
C438 C437 1.502 . S
C439 H425 0.960 . S
C439 H426 0.961 . S
C439 H427 0.959 . S
C439 C437 1.561 . S
C440 C437 1.526 . S
C440 C441 1.396 . S
C440 C445 1.390 . S
C441 C435 1.465 . S
C441 C440 1.396 . S
C441 C442 1.399 . S
C442 H428 0.929 . S
C442 C441 1.399 . S
C442 C443 1.385 . S
C443 H429 0.931 . S
C443 C442 1.385 . S
C443 C444 1.389 . S
C444 C443 1.389 . S
C444 C445 1.387 . S
C445 H430 0.930 . S
C445 C440 1.390 . S
C445 C444 1.387 . S
H446 C458 0.930 . S
H447 C460 0.930 . S
H448 C461 0.930 . S
H449 C465 0.959 . S
H450 C465 0.959 . S
H451 C465 0.961 . S
H452 C466 0.960 . S
H453 C466 0.961 . S
H454 C466 0.959 . S
H455 C469 0.929 . S
H456 C470 0.931 . S
H457 C472 0.930 . S
C458 H446 0.930 . S
C458 C459 1.399 . S
C458 C463 1.399 . S
C459 C458 1.399 . S
C459 C460 1.376 . S
C460 H447 0.930 . S
C460 C459 1.376 . S
C460 C461 1.388 . S
C461 H448 0.930 . S
C461 C460 1.388 . S
C461 C462 1.390 . S
C462 C461 1.390 . S
C462 C463 1.394 . S
C462 C468 1.465 . S
C463 C458 1.399 . S
C463 C462 1.394 . S
C463 C464 1.516 . S
C464 C463 1.516 . S
C464 C465 1.502 . S
C464 C466 1.561 . S
C464 C467 1.526 . S
C465 H449 0.959 . S
C465 H450 0.959 . S
C465 H451 0.961 . S
C465 C464 1.502 . S
C466 H452 0.960 . S
C466 H453 0.961 . S
C466 H454 0.959 . S
C466 C464 1.561 . S
C467 C464 1.526 . S
C467 C468 1.396 . S
C467 C472 1.390 . S
C468 C462 1.465 . S
C468 C467 1.396 . S
C468 C469 1.399 . S
C469 H455 0.929 . S
C469 C468 1.399 . S
C469 C470 1.385 . S
C470 H456 0.931 . S
C470 C469 1.385 . S
C470 C471 1.389 . S
C471 C470 1.389 . S
C471 C472 1.387 . S
C472 H457 0.930 . S
C472 C467 1.390 . S
C472 C471 1.387 . S
H473 C485 0.930 . S
H474 C487 0.930 . S
H475 C488 0.930 . S
H476 C492 0.959 . S
H477 C492 0.959 . S
H478 C492 0.961 . S
H479 C493 0.960 . S
H480 C493 0.961 . S
H481 C493 0.959 . S
H482 C496 0.929 . S
H483 C497 0.931 . S
H484 C499 0.930 . S
C485 H473 0.930 . S
C485 C486 1.399 . S
C485 C490 1.399 . S
C486 C485 1.399 . S
C486 C487 1.376 . S
C487 H474 0.930 . S
C487 C486 1.376 . S
C487 C488 1.388 . S
C488 H475 0.930 . S
C488 C487 1.388 . S
C488 C489 1.390 . S
C489 C488 1.390 . S
C489 C490 1.394 . S
C489 C495 1.465 . S
C490 C485 1.399 . S
C490 C489 1.394 . S
C490 C491 1.516 . S
C491 C490 1.516 . S
C491 C492 1.502 . S
C491 C493 1.561 . S
C491 C494 1.526 . S
C492 H476 0.959 . S
C492 H477 0.959 . S
C492 H478 0.961 . S
C492 C491 1.502 . S
C493 H479 0.960 . S
C493 H480 0.961 . S
C493 H481 0.959 . S
C493 C491 1.561 . S
C494 C491 1.526 . S
C494 C495 1.396 . S
C494 C499 1.390 . S
C495 C489 1.465 . S
C495 C494 1.396 . S
C495 C496 1.399 . S
C496 H482 0.929 . S
C496 C495 1.399 . S
C496 C497 1.385 . S
C497 H483 0.931 . S
C497 C496 1.385 . S
C497 C498 1.389 . S
C498 C497 1.389 . S
C498 C499 1.387 . S
C499 H484 0.930 . S
C499 C494 1.390 . S
C499 C498 1.387 . S
H500 C512 0.930 . S
H501 C514 0.930 . S
H502 C515 0.930 . S
H503 C519 0.959 . S
H504 C519 0.959 . S
H505 C519 0.961 . S
H506 C520 0.960 . S
H507 C520 0.961 . S
H508 C520 0.959 . S
H509 C523 0.929 . S
H510 C524 0.931 . S
H511 C526 0.930 . S
C512 H500 0.930 . S
C512 C513 1.399 1_545 S
C512 C517 1.399 . S
C513 C512 1.399 1_565 S
C513 C514 1.376 . S
C514 H501 0.930 . S
C514 C513 1.376 . S
C514 C515 1.388 . S
C515 H502 0.930 . S
C515 C514 1.388 . S
C515 C516 1.390 . S
C516 C515 1.390 . S
C516 C517 1.394 1_565 S
C516 C522 1.465 . S
C517 C512 1.399 . S
C517 C516 1.394 1_545 S
C517 C518 1.516 . S
C518 C517 1.516 . S
C518 C519 1.502 . S
C518 C520 1.561 . S
C518 C521 1.526 . S
C519 H503 0.959 . S
C519 H504 0.959 . S
C519 H505 0.961 . S
C519 C518 1.502 . S
C520 H506 0.960 . S
C520 H507 0.961 . S
C520 H508 0.959 . S
C520 C518 1.561 . S
C521 C518 1.526 . S
C521 C522 1.396 1_545 S
C521 C526 1.390 . S
C522 C516 1.465 . S
C522 C521 1.396 1_565 S
C522 C523 1.399 . S
C523 H509 0.929 . S
C523 C522 1.399 . S
C523 C524 1.385 . S
C524 H510 0.931 . S
C524 C523 1.385 . S
C524 C525 1.389 1_565 S
C525 C524 1.389 1_545 S
C525 C526 1.387 . S
C526 H511 0.930 . S
C526 C521 1.390 . S
C526 C525 1.387 . S
H527 C539 0.930 . S
H528 C541 0.930 . S
H529 C542 0.930 . S
H530 C546 0.959 . S
H531 C546 0.959 . S
H532 C546 0.961 . S
H533 C547 0.960 . S
H534 C547 0.961 . S
H535 C547 0.959 . S
H536 C550 0.929 . S
H537 C551 0.931 . S
H538 C553 0.930 . S
C539 H527 0.930 . S
C539 C540 1.399 . S
C539 C544 1.399 . S
C540 C539 1.399 . S
C540 C541 1.376 . S
C541 H528 0.930 . S
C541 C540 1.376 . S
C541 C542 1.388 . S
C542 H529 0.930 . S
C542 C541 1.388 . S
C542 C543 1.390 . S
C543 C542 1.390 . S
C543 C544 1.394 . S
C543 C549 1.465 . S
C544 C539 1.399 . S
C544 C543 1.394 . S
C544 C545 1.516 . S
C545 C544 1.516 . S
C545 C546 1.502 . S
C545 C547 1.561 . S
C545 C548 1.526 . S
C546 H530 0.959 . S
C546 H531 0.959 . S
C546 H532 0.961 . S
C546 C545 1.502 . S
C547 H533 0.960 . S
C547 H534 0.961 . S
C547 H535 0.959 . S
C547 C545 1.561 . S
C548 C545 1.526 . S
C548 C549 1.396 . S
C548 C553 1.390 . S
C549 C543 1.465 . S
C549 C548 1.396 . S
C549 C550 1.399 . S
C550 H536 0.929 . S
C550 C549 1.399 . S
C550 C551 1.385 . S
C551 H537 0.931 . S
C551 C550 1.385 . S
C551 C552 1.389 . S
C552 C551 1.389 . S
C552 C553 1.387 . S
C553 H538 0.930 . S
C553 C548 1.390 . S
C553 C552 1.387 . S
H554 C566 0.930 . S
H555 C568 0.930 . S
H556 C569 0.930 . S
H557 C573 0.959 . S
H558 C573 0.959 . S
H559 C573 0.961 . S
H560 C574 0.960 . S
H561 C574 0.961 . S
H562 C574 0.959 . S
H563 C577 0.929 . S
H564 C578 0.931 . S
H565 C580 0.930 . S
C566 H554 0.930 . S
C566 C567 1.399 . S
C566 C571 1.399 . S
C567 C566 1.399 . S
C567 C568 1.376 . S
C568 H555 0.930 . S
C568 C567 1.376 . S
C568 C569 1.388 . S
C569 H556 0.930 . S
C569 C568 1.388 . S
C569 C570 1.390 . S
C570 C569 1.390 . S
C570 C571 1.394 . S
C570 C576 1.465 . S
C571 C566 1.399 . S
C571 C570 1.394 . S
C571 C572 1.516 . S
C572 C571 1.516 . S
C572 C573 1.502 . S
C572 C574 1.561 . S
C572 C575 1.526 . S
C573 H557 0.959 . S
C573 H558 0.959 . S
C573 H559 0.961 . S
C573 C572 1.502 . S
C574 H560 0.960 . S
C574 H561 0.961 . S
C574 H562 0.959 . S
C574 C572 1.561 . S
C575 C572 1.526 . S
C575 C576 1.396 . S
C575 C580 1.390 . S
C576 C570 1.465 . S
C576 C575 1.396 . S
C576 C577 1.399 . S
C577 H563 0.929 . S
C577 C576 1.399 . S
C577 C578 1.385 . S
C578 H564 0.931 . S
C578 C577 1.385 . S
C578 C579 1.389 . S
C579 C578 1.389 . S
C579 C580 1.387 . S
C580 H565 0.930 . S
C580 C575 1.390 . S
C580 C579 1.387 . S
H581 C593 0.930 . S
H582 C595 0.930 . S
H583 C596 0.930 . S
H584 C600 0.965 . S
H585 C600 0.959 . S
H586 C600 0.961 . S
H587 C601 0.960 . S
H588 C601 0.961 . S
H589 C601 0.959 . S
H590 C604 0.929 . S
H591 C605 0.931 . S
H592 C607 0.930 . S
C593 H581 0.930 . S
C593 C594 1.399 . S
C593 C598 1.399 . S
C594 C593 1.399 . S
C594 C595 1.376 . S
C595 H582 0.930 . S
C595 C594 1.376 . S
C595 C596 1.388 . S
C596 H583 0.930 . S
C596 C595 1.388 . S
C596 C597 1.390 . S
C597 C596 1.390 . S
C597 C598 1.394 . S
C597 C603 1.465 . S
C598 C593 1.399 . S
C598 C597 1.394 . S
C598 C599 1.516 . S
C599 C598 1.516 . S
C599 C600 1.502 . S
C599 C601 1.561 . S
C599 C602 1.526 . S
C600 H584 0.965 . S
C600 H585 0.959 . S
C600 H586 0.961 . S
C600 C599 1.502 . S
C601 H587 0.960 . S
C601 H588 0.961 . S
C601 H589 0.959 . S
C601 C599 1.561 . S
C602 C599 1.526 . S
C602 C603 1.396 . S
C602 C607 1.390 . S
C603 C597 1.465 . S
C603 C602 1.396 . S
C603 C604 1.399 . S
C604 H590 0.929 . S
C604 C603 1.399 . S
C604 C605 1.385 . S
C605 H591 0.931 . S
C605 C604 1.385 . S
C605 C606 1.389 . S
C606 C605 1.389 . S
C606 C607 1.387 . S
C607 H592 0.930 . S
C607 C602 1.390 . S
C607 C606 1.387 . S
H608 C620 0.930 . S
H609 C622 0.930 . S
H610 C623 0.930 . S
H611 C627 0.959 . S
H612 C627 0.959 . S
H613 C627 0.961 . S
H614 C628 0.960 . S
H615 C628 0.961 . S
H616 C628 0.959 . S
H617 C631 0.929 . S
H618 C632 0.931 1_655 S
H619 C634 0.930 . S
C620 H608 0.930 . S
C620 C621 1.399 . S
C620 C625 1.399 . S
C621 C620 1.399 . S
C621 C622 1.376 . S
C622 H609 0.930 . S
C622 C621 1.376 . S
C622 C623 1.388 . S
C623 H610 0.930 . S
C623 C622 1.388 . S
C623 C624 1.390 . S
C624 C623 1.390 . S
C624 C625 1.394 . S
C624 C630 1.465 . S
C625 C620 1.399 . S
C625 C624 1.394 . S
C625 C626 1.516 . S
C626 C625 1.516 . S
C626 C627 1.502 . S
C626 C628 1.561 . S
C626 C629 1.526 . S
C627 H611 0.959 . S
C627 H612 0.959 . S
C627 H613 0.961 . S
C627 C626 1.502 . S
C628 H614 0.960 . S
C628 H615 0.961 . S
C628 H616 0.959 . S
C628 C626 1.561 . S
C629 C626 1.526 . S
C629 C630 1.396 . S
C629 C634 1.390 . S
C630 C624 1.465 . S
C630 C629 1.396 . S
C630 C631 1.399 . S
C631 H617 0.929 . S
C631 C630 1.399 . S
C631 C632 1.385 . S
C632 H618 0.931 1_455 S
C632 C631 1.385 . S
C632 C633 1.389 . S
C633 C632 1.389 . S
C633 C634 1.387 . S
C634 H619 0.930 . S
C634 C629 1.390 . S
C634 C633 1.387 . S
H635 C647 0.930 . S
H636 C649 0.930 . S
H637 C650 0.930 . S
H638 C654 0.959 . S
H639 C654 0.959 . S
H640 C654 0.961 . S
H641 C655 0.960 . S
H642 C655 0.961 . S
H643 C655 0.959 . S
H644 C658 0.929 . S
H645 C659 0.931 . S
H646 C661 0.930 . S
C647 H635 0.930 . S
C647 C648 1.399 1_565 S
C647 C652 1.399 . S
C648 C647 1.399 1_545 S
C648 C649 1.376 . S
C649 H636 0.930 . S
C649 C648 1.376 . S
C649 C650 1.388 . S
C650 H637 0.930 . S
C650 C649 1.388 . S
C650 C651 1.390 . S
C651 C650 1.390 . S
C651 C652 1.394 1_545 S
C651 C657 1.465 . S
C652 C647 1.399 . S
C652 C651 1.394 1_565 S
C652 C653 1.516 . S
C653 C652 1.516 . S
C653 C654 1.502 . S
C653 C655 1.561 . S
C653 C656 1.526 . S
C654 H638 0.959 . S
C654 H639 0.959 . S
C654 H640 0.961 . S
C654 C653 1.502 . S
C655 H641 0.960 . S
C655 H642 0.961 . S
C655 H643 0.959 . S
C655 C653 1.561 . S
C656 C653 1.526 . S
C656 C657 1.396 1_565 S
C656 C661 1.390 . S
C657 C651 1.465 . S
C657 C656 1.396 1_545 S
C657 C658 1.399 . S
C658 H644 0.929 . S
C658 C657 1.399 . S
C658 C659 1.385 . S
C659 H645 0.931 . S
C659 C658 1.385 . S
C659 C660 1.389 1_545 S
C660 C659 1.389 1_565 S
C660 C661 1.387 . S
C661 H646 0.930 . S
C661 C656 1.390 . S
C661 C660 1.387 . S
H662 C674 0.930 . S
H663 C676 0.930 . S
H664 C677 0.930 . S
H665 C681 0.959 . S
H666 C681 0.959 . S
H667 C681 0.961 . S
H668 C682 0.960 . S
H669 C682 0.961 . S
H670 C682 0.959 . S
H671 C685 0.929 . S
H672 C686 0.931 . S
H673 C688 0.930 . S
C674 H662 0.930 . S
C674 C675 1.399 . S
C674 C679 1.399 . S
C675 C674 1.399 . S
C675 C676 1.376 . S
C676 H663 0.930 . S
C676 C675 1.376 . S
C676 C677 1.388 . S
C677 H664 0.930 . S
C677 C676 1.388 . S
C677 C678 1.390 . S
C678 C677 1.390 . S
C678 C679 1.394 . S
C678 C684 1.465 . S
C679 C674 1.399 . S
C679 C678 1.394 . S
C679 C680 1.516 . S
C680 C679 1.516 . S
C680 C681 1.502 . S
C680 C682 1.561 . S
C680 C683 1.526 . S
C681 H665 0.959 . S
C681 H666 0.959 . S
C681 H667 0.961 . S
C681 C680 1.502 . S
C682 H668 0.960 . S
C682 H669 0.961 . S
C682 H670 0.959 . S
C682 C680 1.561 . S
C683 C680 1.526 . S
C683 C684 1.396 . S
C683 C688 1.390 . S
C684 C678 1.465 . S
C684 C683 1.396 . S
C684 C685 1.399 . S
C685 H671 0.929 . S
C685 C684 1.399 . S
C685 C686 1.385 . S
C686 H672 0.931 . S
C686 C685 1.385 . S
C686 C687 1.389 . S
C687 C686 1.389 . S
C687 C688 1.387 . S
C688 H673 0.930 . S
C688 C683 1.390 . S
C688 C687 1.387 . S
H689 C701 0.930 . S
H690 C703 0.930 . S
H691 C704 0.930 . S
H692 C708 0.959 . S
H693 C708 0.959 . S
H694 C708 0.961 . S
H695 C709 0.960 . S
H696 C709 0.961 . S
H697 C709 0.959 . S
H698 C712 0.929 . S
H699 C713 0.931 . S
H700 C715 0.930 . S
C701 H689 0.930 . S
C701 C702 1.399 . S
C701 C706 1.399 . S
C702 C701 1.399 . S
C702 C703 1.376 . S
C703 H690 0.930 . S
C703 C702 1.376 . S
C703 C704 1.388 . S
C704 H691 0.930 . S
C704 C703 1.388 . S
C704 C705 1.390 . S
C705 C704 1.390 . S
C705 C706 1.394 . S
C705 C711 1.465 . S
C706 C701 1.399 . S
C706 C705 1.394 . S
C706 C707 1.516 . S
C707 C706 1.516 . S
C707 C708 1.502 . S
C707 C709 1.561 . S
C707 C710 1.526 . S
C708 H692 0.959 . S
C708 H693 0.959 . S
C708 H694 0.961 . S
C708 C707 1.502 . S
C709 H695 0.960 . S
C709 H696 0.961 . S
C709 H697 0.959 . S
C709 C707 1.561 . S
C710 C707 1.526 . S
C710 C711 1.396 . S
C710 C715 1.390 . S
C711 C705 1.465 . S
C711 C710 1.396 . S
C711 C712 1.399 . S
C712 H698 0.929 . S
C712 C711 1.399 . S
C712 C713 1.385 . S
C713 H699 0.931 . S
C713 C712 1.385 . S
C713 C714 1.389 . S
C714 C713 1.389 . S
C714 C715 1.387 . S
C715 H700 0.930 . S
C715 C710 1.390 . S
C715 C714 1.387 . S
H716 C728 0.930 . S
H717 C730 0.930 . S
H718 C731 0.930 . S
H719 C735 0.959 1_455 S
H720 C735 0.959 1_455 S
H721 C735 0.961 . S
H722 C736 0.960 . S
H723 C736 0.961 . S
H724 C736 0.959 . S
H725 C739 0.929 . S
H726 C740 0.931 . S
H727 C742 0.930 1_455 S
C728 H716 0.930 . S
C728 C729 1.399 . S
C728 C733 1.399 . S
C729 C728 1.399 . S
C729 C730 1.376 . S
C730 H717 0.930 . S
C730 C729 1.376 . S
C730 C731 1.388 . S
C731 H718 0.930 . S
C731 C730 1.388 . S
C731 C732 1.390 . S
C732 C731 1.390 . S
C732 C733 1.394 . S
C732 C738 1.465 . S
C733 C728 1.399 . S
C733 C732 1.394 . S
C733 C734 1.516 . S
C734 C733 1.516 . S
C734 C735 1.502 . S
C734 C736 1.561 . S
C734 C737 1.526 . S
C735 H719 0.959 1_655 S
C735 H720 0.959 1_655 S
C735 H721 0.961 . S
C735 C734 1.502 . S
C736 H722 0.960 . S
C736 H723 0.961 . S
C736 H724 0.959 . S
C736 C734 1.561 . S
C737 C734 1.526 . S
C737 C738 1.396 . S
C737 C742 1.390 . S
C738 C732 1.465 . S
C738 C737 1.396 . S
C738 C739 1.399 . S
C739 H725 0.929 . S
C739 C738 1.399 . S
C739 C740 1.385 . S
C740 H726 0.931 . S
C740 C739 1.385 . S
C740 C741 1.389 . S
C741 C740 1.389 . S
C741 C742 1.387 . S
C742 H727 0.930 1_655 S
C742 C737 1.390 . S
C742 C741 1.387 . S
H743 C755 0.930 . S
H744 C757 0.930 . S
H745 C758 0.930 . S
H746 C762 0.959 . S
H747 C762 0.959 . S
H748 C762 0.961 . S
H749 C763 0.960 . S
H750 C763 0.961 . S
H751 C763 0.959 . S
H752 C766 0.929 . S
H753 C767 0.931 . S
H754 C769 0.930 . S
C755 H743 0.930 . S
C755 C756 1.395 1_565 S
C755 C760 1.384 1_565 S
C756 C755 1.395 1_545 S
C756 C757 1.394 . S
C757 H744 0.930 . S
C757 C756 1.394 . S
C757 C758 1.388 . S
C758 H745 0.930 . S
C758 C757 1.388 . S
C758 C759 1.390 . S
C759 C758 1.390 . S
C759 C760 1.415 . S
C759 C765 1.465 . S
C760 C755 1.384 1_545 S
C760 C759 1.415 . S
C760 C761 1.516 1_545 S
C761 C760 1.516 1_565 S
C761 C762 1.502 . S
C761 C763 1.561 1_565 S
C761 C764 1.526 1_565 S
C762 H746 0.959 . S
C762 H747 0.959 . S
C762 H748 0.961 . S
C762 C761 1.502 . S
C763 H749 0.960 . S
C763 H750 0.961 . S
C763 H751 0.959 . S
C763 C761 1.561 1_545 S
C764 C761 1.526 1_545 S
C764 C765 1.396 . S
C764 C769 1.390 . S
C765 C759 1.465 . S
C765 C764 1.396 . S
C765 C766 1.399 . S
C766 H752 0.929 . S
C766 C765 1.399 . S
C766 C767 1.385 . S
C767 H753 0.931 . S
C767 C766 1.385 . S
C767 C768 1.389 . S
C768 C767 1.389 . S
C768 C769 1.387 . S
C769 H754 0.930 . S
C769 C764 1.390 . S
C769 C768 1.387 . S
H770 C782 0.930 . S
H771 C784 0.930 . S
H772 C785 0.930 . S
H773 C789 0.959 . S
H774 C789 0.959 . S
H775 C789 0.961 . S
H776 C790 0.960 . S
H777 C790 0.961 . S
H778 C790 0.959 . S
H779 C793 0.929 . S
H780 C794 0.931 . S
H781 C796 0.930 . S
C782 H770 0.930 . S
C782 C783 1.399 . S
C782 C787 1.399 . S
C783 C782 1.399 . S
C783 C784 1.376 . S
C784 H771 0.930 . S
C784 C783 1.376 . S
C784 C785 1.388 . S
C785 H772 0.930 . S
C785 C784 1.388 . S
C785 C786 1.390 . S
C786 C785 1.390 . S
C786 C787 1.394 . S
C786 C792 1.465 . S
C787 C782 1.399 . S
C787 C786 1.394 . S
C787 C788 1.516 . S
C788 C787 1.516 . S
C788 C789 1.502 . S
C788 C790 1.561 . S
C788 C791 1.526 . S
C789 H773 0.959 . S
C789 H774 0.959 . S
C789 H775 0.961 . S
C789 C788 1.502 . S
C790 H776 0.960 . S
C790 H777 0.961 . S
C790 H778 0.959 . S
C790 C788 1.561 . S
C791 C788 1.526 . S
C791 C792 1.396 . S
C791 C796 1.390 . S
C792 C786 1.465 . S
C792 C791 1.396 . S
C792 C793 1.399 . S
C793 H779 0.929 . S
C793 C792 1.399 . S
C793 C794 1.385 . S
C794 H780 0.931 . S
C794 C793 1.385 . S
C794 C795 1.389 . S
C795 C794 1.389 . S
C795 C796 1.387 . S
C796 H781 0.930 . S
C796 C791 1.390 . S
C796 C795 1.387 . S
H797 C809 0.930 . S
H798 C811 0.930 . S
H799 C812 0.930 . S
H800 C816 0.959 . S
H801 C816 0.959 . S
H802 C816 0.961 . S
H803 C817 0.960 . S
H804 C817 0.961 . S
H805 C817 0.959 . S
H806 C820 0.929 . S
H807 C821 0.931 . S
H808 C823 0.930 . S
C809 H797 0.930 . S
C809 C810 1.399 . S
C809 C814 1.399 . S
C810 C809 1.399 . S
C810 C811 1.376 . S
C811 H798 0.930 . S
C811 C810 1.376 . S
C811 C812 1.388 . S
C812 H799 0.930 . S
C812 C811 1.388 . S
C812 C813 1.390 . S
C813 C812 1.390 . S
C813 C814 1.394 . S
C813 C819 1.465 . S
C814 C809 1.399 . S
C814 C813 1.394 . S
C814 C815 1.516 . S
C815 C814 1.516 . S
C815 C816 1.502 . S
C815 C817 1.561 . S
C815 C818 1.526 . S
C816 H800 0.959 . S
C816 H801 0.959 . S
C816 H802 0.961 . S
C816 C815 1.502 . S
C817 H803 0.960 . S
C817 H804 0.961 . S
C817 H805 0.959 . S
C817 C815 1.561 . S
C818 C815 1.526 . S
C818 C819 1.396 . S
C818 C823 1.390 . S
C819 C813 1.465 . S
C819 C818 1.396 . S
C819 C820 1.399 . S
C820 H806 0.929 . S
C820 C819 1.399 . S
C820 C821 1.385 . S
C821 H807 0.931 . S
C821 C820 1.385 . S
C821 C822 1.389 . S
C822 C821 1.389 . S
C822 C823 1.387 . S
C823 H808 0.930 . S
C823 C818 1.390 . S
C823 C822 1.387 . S
H824 C836 0.930 . S
H825 C838 0.930 . S
H826 C839 0.930 . S
H827 C843 0.959 . S
H828 C843 0.959 . S
H829 C843 0.961 . S
H830 C844 0.960 . S
H831 C844 0.961 . S
H832 C844 0.959 . S
H833 C847 0.929 . S
H834 C848 0.931 . S
H835 C850 0.930 . S
C836 H824 0.930 . S
C836 C837 1.399 . S
C836 C841 1.399 . S
C837 C836 1.399 . S
C837 C838 1.376 . S
C838 H825 0.930 . S
C838 C837 1.376 . S
C838 C839 1.388 . S
C839 H826 0.930 . S
C839 C838 1.388 . S
C839 C840 1.390 . S
C840 C839 1.390 . S
C840 C841 1.394 . S
C840 C846 1.465 . S
C841 C836 1.399 . S
C841 C840 1.394 . S
C841 C842 1.516 . S
C842 C841 1.516 . S
C842 C843 1.502 . S
C842 C844 1.561 . S
C842 C845 1.526 . S
C843 H827 0.959 . S
C843 H828 0.959 . S
C843 H829 0.961 . S
C843 C842 1.502 . S
C844 H830 0.960 . S
C844 H831 0.961 . S
C844 H832 0.959 . S
C844 C842 1.561 . S
C845 C842 1.526 . S
C845 C846 1.396 . S
C845 C850 1.390 . S
C846 C840 1.465 . S
C846 C845 1.396 . S
C846 C847 1.399 . S
C847 H833 0.929 . S
C847 C846 1.399 . S
C847 C848 1.385 . S
C848 H834 0.931 . S
C848 C847 1.385 . S
C848 C849 1.389 . S
C849 C848 1.389 . S
C849 C850 1.387 . S
C850 H835 0.930 . S
C850 C845 1.390 . S
C850 C849 1.387 . S
H851 C863 0.930 . S
H852 C865 0.930 . S
H853 C866 0.930 . S
H854 C870 0.959 . S
H855 C870 0.959 . S
H856 C870 0.961 . S
H857 C871 0.960 . S
H858 C871 0.961 . S
H859 C871 0.959 . S
H860 C874 0.929 . S
H861 C875 0.931 . S
H862 C877 0.930 . S
C863 H851 0.930 . S
C863 C864 1.399 1_565 S
C863 C868 1.399 . S
C864 C863 1.399 1_545 S
C864 C865 1.376 . S
C865 H852 0.930 . S
C865 C864 1.376 . S
C865 C866 1.388 . S
C866 H853 0.930 . S
C866 C865 1.388 . S
C866 C867 1.390 . S
C867 C866 1.390 . S
C867 C868 1.394 1_545 S
C867 C873 1.465 . S
C868 C863 1.399 . S
C868 C867 1.394 1_565 S
C868 C869 1.516 . S
C869 C868 1.516 . S
C869 C870 1.502 . S
C869 C871 1.561 . S
C869 C872 1.526 . S
C870 H854 0.959 . S
C870 H855 0.959 . S
C870 H856 0.961 . S
C870 C869 1.502 . S
C871 H857 0.960 . S
C871 H858 0.961 . S
C871 H859 0.959 . S
C871 C869 1.561 . S
C872 C869 1.526 . S
C872 C873 1.396 1_565 S
C872 C877 1.390 . S
C873 C867 1.465 . S
C873 C872 1.396 1_545 S
C873 C874 1.399 . S
C874 H860 0.929 . S
C874 C873 1.399 . S
C874 C875 1.385 . S
C875 H861 0.931 . S
C875 C874 1.385 . S
C875 C876 1.389 . S
C876 C875 1.389 . S
C876 C877 1.387 1_545 S
C877 H862 0.930 . S
C877 C872 1.390 . S
C877 C876 1.387 1_565 S
H878 C890 0.930 . S
H879 C892 0.930 . S
H880 C893 0.930 . S
H881 C897 0.959 . S
H882 C897 0.959 . S
H883 C897 0.961 . S
H884 C898 0.960 . S
H885 C898 0.961 . S
H886 C898 0.959 . S
H887 C901 0.929 . S
H888 C902 0.931 . S
H889 C904 0.930 . S
C890 H878 0.930 . S
C890 C891 1.399 . S
C890 C895 1.399 . S
C891 C890 1.399 . S
C891 C892 1.376 . S
C892 H879 0.930 . S
C892 C891 1.376 . S
C892 C893 1.388 . S
C893 H880 0.930 . S
C893 C892 1.388 . S
C893 C894 1.390 . S
C894 C893 1.390 . S
C894 C895 1.394 . S
C894 C900 1.465 . S
C895 C890 1.399 . S
C895 C894 1.394 . S
C895 C896 1.516 . S
C896 C895 1.516 . S
C896 C897 1.502 . S
C896 C898 1.561 . S
C896 C899 1.526 . S
C897 H881 0.959 . S
C897 H882 0.959 . S
C897 H883 0.961 . S
C897 C896 1.502 . S
C898 H884 0.960 . S
C898 H885 0.961 . S
C898 H886 0.959 . S
C898 C896 1.561 . S
C899 C896 1.526 . S
C899 C900 1.396 . S
C899 C904 1.390 . S
C900 C894 1.465 . S
C900 C899 1.396 . S
C900 C901 1.399 . S
C901 H887 0.929 . S
C901 C900 1.399 . S
C901 C902 1.385 . S
C902 H888 0.931 . S
C902 C901 1.385 . S
C902 C903 1.389 . S
C903 C902 1.389 . S
C903 C904 1.387 . S
C904 H889 0.930 . S
C904 C899 1.390 . S
C904 C903 1.387 . S
H905 C917 0.930 . S
H906 C919 0.930 . S
H907 C920 0.930 . S
H908 C924 0.959 . S
H909 C924 0.959 . S
H910 C924 0.961 . S
H911 C925 0.960 . S
H912 C925 0.961 . S
H913 C925 0.959 . S
H914 C928 0.929 . S
H915 C929 0.931 . S
H916 C931 0.930 . S
C917 H905 0.930 . S
C917 C918 1.399 . S
C917 C922 1.399 . S
C918 C917 1.399 . S
C918 C919 1.376 . S
C919 H906 0.930 . S
C919 C918 1.376 . S
C919 C920 1.388 . S
C920 H907 0.930 . S
C920 C919 1.388 . S
C920 C921 1.390 . S
C921 C920 1.390 . S
C921 C922 1.394 . S
C921 C927 1.465 . S
C922 C917 1.399 . S
C922 C921 1.394 . S
C922 C923 1.516 . S
C923 C922 1.516 . S
C923 C924 1.502 . S
C923 C925 1.561 . S
C923 C926 1.526 . S
C924 H908 0.959 . S
C924 H909 0.959 . S
C924 H910 0.961 . S
C924 C923 1.502 . S
C925 H911 0.960 . S
C925 H912 0.961 . S
C925 H913 0.959 . S
C925 C923 1.561 . S
C926 C923 1.526 . S
C926 C927 1.396 . S
C926 C931 1.390 . S
C927 C921 1.465 . S
C927 C926 1.396 . S
C927 C928 1.399 . S
C928 H914 0.929 . S
C928 C927 1.399 . S
C928 C929 1.385 . S
C929 H915 0.931 . S
C929 C928 1.385 . S
C929 C930 1.389 . S
C930 C929 1.389 . S
C930 C931 1.387 . S
C931 H916 0.930 . S
C931 C926 1.390 . S
C931 C930 1.387 . S
H932 C944 0.930 . S
H933 C946 0.930 . S
H934 C947 0.930 . S
H935 C951 0.959 . S
H936 C951 0.959 . S
H937 C951 0.961 . S
H938 C952 0.960 . S
H939 C952 0.961 . S
H940 C952 0.959 . S
H941 C955 0.929 . S
H942 C956 0.931 . S
H943 C958 0.930 . S
C944 H932 0.930 . S
C944 C945 1.399 . S
C944 C949 1.399 . S
C945 C944 1.399 . S
C945 C946 1.376 . S
C946 H933 0.930 . S
C946 C945 1.376 . S
C946 C947 1.388 . S
C947 H934 0.930 . S
C947 C946 1.388 . S
C947 C948 1.390 . S
C948 C947 1.390 . S
C948 C949 1.394 . S
C948 C954 1.465 . S
C949 C944 1.399 . S
C949 C948 1.394 . S
C949 C950 1.516 . S
C950 C949 1.516 . S
C950 C951 1.502 . S
C950 C952 1.561 . S
C950 C953 1.526 . S
C951 H935 0.959 . S
C951 H936 0.959 . S
C951 H937 0.961 . S
C951 C950 1.502 . S
C952 H938 0.960 . S
C952 H939 0.961 . S
C952 H940 0.959 . S
C952 C950 1.561 . S
C953 C950 1.526 . S
C953 C954 1.396 . S
C953 C958 1.390 . S
C954 C948 1.465 . S
C954 C953 1.396 . S
C954 C955 1.399 . S
C955 H941 0.929 . S
C955 C954 1.399 . S
C955 C956 1.385 . S
C956 H942 0.931 . S
C956 C955 1.385 . S
C956 C957 1.389 . S
C957 C956 1.389 . S
C957 C958 1.387 . S
C958 H943 0.930 . S
C958 C953 1.390 . S
C958 C957 1.387 . S
H959 C971 0.930 . S
H960 C973 0.930 . S
H961 C974 0.930 . S
H962 C978 0.959 1_545 S
H963 C978 0.959 . S
H964 C978 0.961 . S
H965 C979 0.960 . S
H966 C979 0.961 . S
H967 C979 0.959 . S
H968 C982 0.929 . S
H969 C983 0.931 . S
H970 C985 0.930 . S
C971 H959 0.930 . S
C971 C972 1.404 . S
C971 C976 1.399 . S
C972 C971 1.404 . S
C972 C973 1.369 1_565 S
C973 H960 0.930 . S
C973 C972 1.369 1_545 S
C973 C974 1.388 . S
C974 H961 0.930 . S
C974 C973 1.388 . S
C974 C975 1.390 . S
C975 C974 1.390 . S
C975 C976 1.394 1_545 S
C975 C981 1.462 . S
C976 C971 1.399 . S
C976 C975 1.394 1_565 S
C976 C977 1.516 . S
C977 C976 1.516 . S
C977 C978 1.502 . S
C977 C979 1.561 . S
C977 C980 1.526 . S
C978 H962 0.959 1_565 S
C978 H963 0.959 . S
C978 H964 0.961 . S
C978 C977 1.502 . S
C979 H965 0.960 . S
C979 H966 0.961 . S
C979 H967 0.959 . S
C979 C977 1.561 . S
C980 C977 1.526 . S
C980 C981 1.380 1_565 S
C980 C985 1.390 . S
C981 C975 1.462 . S
C981 C980 1.380 1_545 S
C981 C982 1.417 . S
C982 H968 0.929 . S
C982 C981 1.417 . S
C982 C983 1.385 . S
C983 H969 0.931 . S
C983 C982 1.385 . S
C983 C984 1.389 1_545 S
C984 C983 1.389 1_565 S
C984 C985 1.387 . S
C985 H970 0.930 . S
C985 C980 1.390 . S
C985 C984 1.387 . S
H986 C998 0.930 . S
H987 C1000 0.930 . S
H988 C1001 0.930 . S
H989 C1005 0.959 . S
H990 C1005 0.959 . S
H991 C1005 0.961 . S
H992 C1006 0.960 . S
H993 C1006 0.961 . S
H994 C1006 0.959 . S
H995 C1009 0.929 . S
H996 C1010 0.931 . S
H997 C1012 0.930 . S
C998 H986 0.930 . S
C998 C999 1.399 . S
C998 C1003 1.399 . S
C999 C998 1.399 . S
C999 C1000 1.376 . S
C1000 H987 0.930 . S
C1000 C999 1.376 . S
C1000 C1001 1.388 . S
C1001 H988 0.930 . S
C1001 C1000 1.388 . S
C1001 C1002 1.390 . S
C1002 C1001 1.390 . S
C1002 C1003 1.394 . S
C1002 C1008 1.465 . S
C1003 C998 1.399 . S
C1003 C1002 1.394 . S
C1003 C1004 1.516 . S
C1004 C1003 1.516 . S
C1004 C1005 1.502 . S
C1004 C1006 1.561 . S
C1004 C1007 1.526 . S
C1005 H989 0.959 . S
C1005 H990 0.959 . S
C1005 H991 0.961 . S
C1005 C1004 1.502 . S
C1006 H992 0.960 . S
C1006 H993 0.961 . S
C1006 H994 0.959 . S
C1006 C1004 1.561 . S
C1007 C1004 1.526 . S
C1007 C1008 1.396 . S
C1007 C1012 1.390 . S
C1008 C1002 1.465 . S
C1008 C1007 1.396 . S
C1008 C1009 1.399 . S
C1009 H995 0.929 . S
C1009 C1008 1.399 . S
C1009 C1010 1.385 . S
C1010 H996 0.931 . S
C1010 C1009 1.385 . S
C1010 C1011 1.389 . S
C1011 C1010 1.389 . S
C1011 C1012 1.387 . S
C1012 H997 0.930 . S
C1012 C1007 1.390 . S
C1012 C1011 1.387 . S
H1013 C1025 0.930 . S
H1014 C1027 0.930 . S
H1015 C1028 0.930 . S
H1016 C1032 0.959 . S
H1017 C1032 0.959 . S
H1018 C1032 0.961 . S
H1019 C1033 0.960 . S
H1020 C1033 0.961 . S
H1021 C1033 0.959 . S
H1022 C1036 0.929 . S
H1023 C1037 0.931 . S
H1024 C1039 0.930 . S
C1025 H1013 0.930 . S
C1025 C1026 1.399 . S
C1025 C1030 1.399 . S
C1026 C1025 1.399 . S
C1026 C1027 1.376 . S
C1027 H1014 0.930 . S
C1027 C1026 1.376 . S
C1027 C1028 1.388 . S
C1028 H1015 0.930 . S
C1028 C1027 1.388 . S
C1028 C1029 1.390 . S
C1029 C1028 1.390 . S
C1029 C1030 1.394 . S
C1029 C1035 1.465 . S
C1030 C1025 1.399 . S
C1030 C1029 1.394 . S
C1030 C1031 1.516 . S
C1031 C1030 1.516 . S
C1031 C1032 1.502 . S
C1031 C1033 1.561 . S
C1031 C1034 1.526 . S
C1032 H1016 0.959 . S
C1032 H1017 0.959 . S
C1032 H1018 0.961 . S
C1032 C1031 1.502 . S
C1033 H1019 0.960 . S
C1033 H1020 0.961 . S
C1033 H1021 0.959 . S
C1033 C1031 1.561 . S
C1034 C1031 1.526 . S
C1034 C1035 1.396 . S
C1034 C1039 1.390 . S
C1035 C1029 1.465 . S
C1035 C1034 1.396 . S
C1035 C1036 1.399 . S
C1036 H1022 0.929 . S
C1036 C1035 1.399 . S
C1036 C1037 1.385 . S
C1037 H1023 0.931 . S
C1037 C1036 1.385 . S
C1037 C1038 1.389 . S
C1038 C1037 1.389 . S
C1038 C1039 1.387 . S
C1039 H1024 0.930 . S
C1039 C1034 1.390 . S
C1039 C1038 1.387 . S
C405 C255 1.711 1_545 S
C417 C320 1.796 . S
C444 C350 2.425 . S
C432 C294 2.250 . S
C471 C360 1.893 . S
C459 C177 1.784 . S
C498 C380 1.776 . S
C486 C216 1.609 . S
C525 C321 1.794 . S
C513 C99 1.737 . S
C540 C138 2.298 1_556 S
C552 C351 2.397 . S
C567 C21 1.820 . S
C579 C361 1.877 . S
C594 C60 1.650 . S
C606 C381 1.776 . S
C633 C313 0.814 . S
C621 C196 0.695 . S
C660 C334 0.344 . S
C648 C235 0.429 1_545 S
C687 C353 1.093 . S
C675 C289 1.108 . S
C702 C157 0.659 . S
C714 C373 0.581 . S
C729 C40 0.840 . S
C741 C314 0.756 1_655 S
C768 C333 0.181 . S
C756 C79 0.480 1_545 S
C795 C354 1.120 . S
C783 C133 1.030 . S
C810 C1 0.661 . S
C822 C374 0.573 . S
C837 C211 2.281 . S
C849 C331 2.464 . S
C864 C250 1.809 . S
C876 C341 1.998 . S
C903 C371 2.671 . S
C891 C274 2.422 . S
C930 C391 2.562 . S
C918 C172 2.312 . S
C945 C55 2.225 . S
C957 C330 2.480 . S
C984 C340 2.006 . S
C972 C94 1.838 1_565 S
C1011 C370 2.689 . S
C999 C118 2.454 . S
C1026 C16 2.373 . S
C1038 C390 2.531 . S
