# Generated by pormake.
# Topology anh, (6,3)-cn, num edge types: 1
# Building blocks:
#     Node 0, Type 0, BuildingBlock: PAMTOO_clean_sbu_0, # of connection points: 6
#     Node 1, Type 0, BuildingBlock: PAMTOO_clean_sbu_0, # of connection points: 6
#     Node 2, Type 0, BuildingBlock: PAMTOO_clean_sbu_0, # of connection points: 6
#     Node 3, Type 1, BuildingBlock: CUQRIR_clean_linker_1, # of connection points: 3
#     Node 4, Type 1, BuildingBlock: CUQRIR_clean_linker_1, # of connection points: 3
#     Node 5, Type 1, BuildingBlock: CUQRIR_clean_linker_1, # of connection points: 3
#     Node 6, Type 1, BuildingBlock: CUQRIR_clean_linker_1, # of connection points: 3
#     Node 7, Type 1, BuildingBlock: CUQRIR_clean_linker_1, # of connection points: 3
#     Node 8, Type 1, BuildingBlock: CUQRIR_clean_linker_1, # of connection points: 3
#     Edge 9, Type (0, 1), BuildingBlock: XIVTED_clean_linker_0, # of connection points: 2
#     Edge 10, Type (0, 1), BuildingBlock: XIVTED_clean_linker_0, # of connection points: 2
#     Edge 11, Type (0, 1), BuildingBlock: XIVTED_clean_linker_0, # of connection points: 2
#     Edge 12, Type (0, 1), BuildingBlock: XIVTED_clean_linker_0, # of connection points: 2
#     Edge 13, Type (0, 1), BuildingBlock: XIVTED_clean_linker_0, # of connection points: 2
#     Edge 14, Type (0, 1), BuildingBlock: XIVTED_clean_linker_0, # of connection points: 2
#     Edge 15, Type (0, 1), BuildingBlock: XIVTED_clean_linker_0, # of connection points: 2
#     Edge 16, Type (0, 1), BuildingBlock: XIVTED_clean_linker_0, # of connection points: 2
#     Edge 17, Type (0, 1), BuildingBlock: XIVTED_clean_linker_0, # of connection points: 2
#     Edge 18, Type (0, 1), BuildingBlock: XIVTED_clean_linker_0, # of connection points: 2
#     Edge 19, Type (0, 1), BuildingBlock: XIVTED_clean_linker_0, # of connection points: 2
#     Edge 20, Type (0, 1), BuildingBlock: XIVTED_clean_linker_0, # of connection points: 2
#     Edge 21, Type (0, 1), BuildingBlock: XIVTED_clean_linker_0, # of connection points: 2
#     Edge 22, Type (0, 1), BuildingBlock: XIVTED_clean_linker_0, # of connection points: 2
#     Edge 23, Type (0, 1), BuildingBlock: XIVTED_clean_linker_0, # of connection points: 2
#     Edge 24, Type (0, 1), BuildingBlock: XIVTED_clean_linker_0, # of connection points: 2
#     Edge 25, Type (0, 1), BuildingBlock: XIVTED_clean_linker_0, # of connection points: 2
#     Edge 26, Type (0, 1), BuildingBlock: XIVTED_clean_linker_0, # of connection points: 2
# Relax obj value: 0.208
# Max RMSD: 0.218
# Mean RMSD: 0.165
data_MOF--net-anh--node1-PAMTOO_clean_sbu_0--node2-CUQRIR_clean_linker_1--edge1-XIVTED_clean_linker_0
_symmetry_space_group_name_H-M    P1
_symmetry_Int_Tables_number       1
_symmetry_cell_setting            triclinic
loop_
_symmetry_equiv_pos_as_xyz
'x, y, z'
_cell_length_a     27.967732
_cell_length_b     27.415122
_cell_length_c     46.950417
_cell_angle_alpha  83.953157
_cell_angle_beta   94.02709
_cell_angle_gamma 99.520347
loop_
_atom_site_label
_atom_site_type_symbol
_atom_site_fract_x
_atom_site_fract_y
_atom_site_fract_z
_atom_type_partial_charge
Dy0 Dy 1.05977 0.5691 0.14455 0.0
Dy1 Dy 1.03895 0.44678 0.14715 0.0
C2 C 1.04001 0.51481 0.08846 0.0
O3 O 0.97968 0.55089 0.15139 0.0
O4 O 0.96424 0.46867 0.1419 0.0
O5 O 1.08472 0.63936 0.12085 0.0
O6 O 1.06174 0.63751 0.16409 0.0
O7 O 1.02758 0.46595 0.19091 0.0
O8 O 1.07934 0.53988 0.1891 0.0
O9 O 0.12051 0.46475 0.15383 0.0
O10 O 0.13145 0.54718 0.13648 0.0
O11 O 1.04481 0.37416 0.16881 0.0
O12 O 1.0092 0.38103 0.12643 0.0
C13 C 0.94909 0.51001 0.14678 0.0
O14 O 1.02627 0.54868 0.10228 0.0
O15 O 1.05756 0.47711 0.10247 0.0
C16 C 0.1293 0.6963 0.15042 0.0
C17 C 0.2178 0.75617 0.16532 0.0
C18 C 0.21593 0.70528 0.16248 0.0
C19 C 0.1721 0.67566 0.15535 0.0
C20 C 0.13075 0.747 0.15294 0.0
C21 C 0.17465 0.77674 0.16038 0.0
C22 C 1.0835 0.6646 0.14277 0.0
C23 C 1.05429 0.50203 0.20372 0.0
C24 C 0.14912 0.50609 0.14514 0.0
C25 C 0.97536 0.3144 0.15925 0.0
C26 C 0.89436 0.24734 0.17987 0.0
C27 C 0.93897 0.25264 0.19595 0.0
C28 C 0.97905 0.28573 0.18571 0.0
C29 C 0.93105 0.30827 0.14289 0.0
C30 C 0.89109 0.27519 0.15308 0.0
C31 C 1.01724 0.35115 0.14917 0.0
H32 H 0.2484 0.68822 0.16557 0.0
H33 H 0.17163 0.63653 0.15364 0.0
H34 H 0.09794 0.76347 0.14933 0.0
H35 H 0.17458 0.81559 0.16275 0.0
H36 H 0.94267 0.232 0.21674 0.0
H37 H 1.01278 0.2894 0.19872 0.0
H38 H 0.92696 0.3293 0.12225 0.0
H39 H 0.85761 0.27127 0.13986 0.0
Dy40 Dy 0.60546 0.99366 0.52285 0.0
Dy41 Dy 0.72494 0.01438 0.52729 0.0
C42 C 0.66386 0.0061 0.58215 0.0
O43 O 0.62442 0.07508 0.50991 0.0
O44 O 0.70301 0.08882 0.52896 0.0
O45 O 0.53764 0.97203 0.54327 0.0
O46 O 0.53775 0.99247 0.49736 0.0
O47 O 0.69922 0.0315 0.48172 0.0
O48 O 0.63294 0.9713 0.48358 0.0
O49 O 0.70538 0.93174 0.52585 0.0
O50 O 0.62634 0.92031 0.53915 0.0
O51 O 0.79282 0.00729 0.51014 0.0
O52 O 0.79269 0.0462 0.54799 0.0
C53 C 0.66342 0.10527 0.51804 0.0
O54 O 0.62948 0.02193 0.565 0.0
O55 O 0.70081 0.99108 0.57184 0.0
C56 C 0.47609 0.92879 0.51434 0.0
C57 C 0.40684 0.84391 0.50509 0.0
C58 C 0.45085 0.83934 0.52082 0.0
C59 C 0.48524 0.88134 0.52527 0.0
C60 C 0.43242 0.93361 0.49863 0.0
C61 C 0.39814 0.89159 0.49396 0.0
C62 C 0.5118 0.97335 0.51904 0.0
C63 C 0.66618 1.00049 0.46883 0.0
C64 C 0.66566 0.90259 0.53445 0.0
C65 C 0.85081 0.07923 0.51458 0.0
C66 C 0.91084 0.16529 0.49151 0.0
C67 C 0.86344 0.15157 0.47972 0.0
C68 C 0.83365 0.10912 0.49125 0.0
C69 C 0.89816 0.09218 0.52618 0.0
C70 C 0.92796 0.13484 0.51477 0.0
C71 C 0.81843 0.03638 0.52782 0.0
H72 H 0.4586 0.80338 0.52999 0.0
H73 H 0.51888 0.87674 0.53738 0.0
H74 H 0.42492 0.9699 0.48985 0.0
H75 H 0.36513 0.89648 0.48127 0.0
H76 H 0.84923 0.17364 0.46159 0.0
H77 H 0.79697 0.09993 0.48213 0.0
H78 H 0.91177 0.0698 0.54441 0.0
H79 H 0.96392 0.14464 0.5247 0.0
Dy80 Dy 0.70662 0.58344 0.84035 0.0
Dy81 Dy 0.59078 0.55941 0.84707 0.0
C82 C 0.63213 0.56805 0.78573 0.0
O83 O 0.68655 0.65489 0.85048 0.0
O84 O 0.60777 0.64071 0.83266 0.0
O85 O 0.76894 0.63285 0.82411 0.0
O86 O 0.77751 0.56124 0.84661 0.0
O87 O 0.62429 0.5915 0.88666 0.0
O88 O 0.69684 0.56381 0.88748 0.0
O89 O 0.61822 0.48696 0.85721 0.0
O90 O 0.68402 0.50538 0.82986 0.0
O91 O 0.53311 0.5191 0.87238 0.0
O92 O 0.51673 0.56922 0.83533 0.0
C93 C 0.64653 0.67139 0.84059 0.0
O94 O 0.67126 0.5947 0.79651 0.0
O95 O 0.59885 0.54296 0.80231 0.0
C96 C 0.82091 0.58627 0.80485 0.0
C97 C 0.86874 0.56181 0.75861 0.0
C98 C 0.83533 0.59517 0.75379 0.0
C99 C 0.81135 0.60706 0.77667 0.0
C100 C 0.85287 0.55164 0.80945 0.0
C101 C 0.87632 0.53936 0.78664 0.0
C102 C 0.79677 0.59883 0.82944 0.0
C103 C 0.66299 0.57878 0.9008 0.0
C104 C 0.65226 0.47269 0.84375 0.0
C105 C 0.47521 0.5691 0.87723 0.0
C106 C 0.42678 0.61708 0.91374 0.0
C107 C 0.46892 0.64226 0.90092 0.0
C108 C 0.49323 0.61827 0.88296 0.0
C109 C 0.43428 0.54336 0.89071 0.0
C110 C 0.41025 0.5671 0.90884 0.0
C111 C 0.50088 0.54352 0.85878 0.0
H112 H 0.82918 0.6134 0.73255 0.0
H113 H 0.78618 0.63334 0.77233 0.0
H114 H 0.86057 0.53482 0.83087 0.0
H115 H 0.90282 0.51455 0.7914 0.0
H116 H 0.48229 0.68076 0.90423 0.0
H117 H 0.52568 0.63829 0.87322 0.0
H118 H 0.42051 0.50515 0.88689 0.0
H119 H 0.37723 0.54697 0.91786 0.0
C120 C 0.5613 0.99631 0.21788 0.0
N121 N 0.59678 0.01268 0.23743 0.0
N122 N 0.52745 0.96112 0.23053 0.0
C123 C 0.5616 0.01171 0.18619 0.0
C124 C 0.54351 0.95675 0.2584 0.0
N125 N 0.58597 0.98753 0.26254 0.0
C126 C 0.51544 0.92571 0.282 0.0
H127 H 0.54316 0.04473 0.18141 0.0
H128 H 0.54192 0.98154 0.1738 0.0
H129 H 0.59931 0.02178 0.17915 0.0
H130 H 0.52754 0.8889 0.28559 0.0
H131 H 0.47591 0.91995 0.27619 0.0
H132 H 0.52194 0.94362 0.30234 0.0
C133 C 0.6542 0.50046 0.53836 0.0
N134 N 0.64856 0.53217 0.55779 0.0
N135 N 0.64422 0.4527 0.54993 0.0
C136 C 0.66712 0.51573 0.50785 0.0
C137 C 0.63263 0.45638 0.57701 0.0
N138 N 0.63482 0.50455 0.58174 0.0
C139 C 0.62294 0.41297 0.59945 0.0
H140 H 0.65421 0.48515 0.4941 0.0
H141 H 0.7072 0.52492 0.50715 0.0
H142 H 0.65132 0.54921 0.49927 0.0
H143 H 0.63924 0.38096 0.59424 0.0
H144 H 0.58314 0.40118 0.6004 0.0
H145 H 0.63769 0.42347 0.6209 0.0
C146 C 0.13892 0.61708 0.84714 0.0
N147 N 0.13172 0.61729 0.87537 0.0
N148 N 0.10213 0.58707 0.83446 0.0
C149 C 0.18396 0.64209 0.83251 0.0
C150 C 1.07204 0.56924 0.85589 0.0
N151 N 1.09034 0.58719 0.88081 0.0
C152 C 1.02344 0.53698 0.85208 0.0
H153 H 0.18747 0.62602 0.81218 0.0
H154 H 0.21679 0.63841 0.84677 0.0
H155 H 0.18209 0.68223 0.82761 0.0
H156 H 1.02884 0.49763 0.85309 0.0
H157 H 1.00566 0.54689 0.83086 0.0
H158 H 0.9992 0.54061 0.86919 0.0
C159 C 0.15131 0.51039 0.45542 0.0
N160 N 0.12232 0.48634 0.43523 0.0
N161 N 0.17046 0.55656 0.44452 0.0
C162 C 0.15858 0.49015 0.48617 0.0
C163 C 0.15234 0.55984 0.41706 0.0
N164 N 0.12251 0.51736 0.41146 0.0
C165 C 0.16742 0.60288 0.39514 0.0
H166 H 0.16919 0.52061 0.50027 0.0
H167 H 0.188 0.46721 0.48782 0.0
H168 H 0.125 0.46624 0.49371 0.0
H169 H 0.2036 0.62359 0.40122 0.0
H170 H 0.14056 0.62873 0.39379 0.0
H171 H 0.16875 0.58991 0.37365 0.0
C172 C 0.64584 0.07202 0.82999 0.0
N173 N 0.6424 0.03735 0.81102 0.0
N174 N 0.64628 0.11791 0.81592 0.0
C175 C 0.64963 0.06131 0.86202 0.0
C176 C 0.64264 0.10987 0.78787 0.0
N177 N 0.64008 0.06105 0.78492 0.0
C178 C 0.64357 0.1501 0.76339 0.0
H179 H 0.63664 0.09036 0.87281 0.0
H180 H 0.68826 0.06072 0.86904 0.0
H181 H 0.62851 0.02442 0.86869 0.0
H182 H 0.68182 0.16343 0.75801 0.0
H183 H 0.62798 0.18201 0.76942 0.0
H184 H 0.62324 0.13607 0.744 0.0
C185 C 0.54929 0.5051 0.14265 0.0
N186 N 0.5883 0.51473 0.12585 0.0
N187 N 0.50799 0.51469 0.12729 0.0
C188 C 0.55195 0.48878 0.17413 0.0
C189 C 0.52349 0.53003 0.10064 0.0
N190 N 0.57185 0.53044 0.09984 0.0
C191 C 0.4906 0.54157 0.07486 0.0
H192 H 0.55022 0.44785 0.17707 0.0
H193 H 0.52117 0.49857 0.18484 0.0
H194 H 0.58688 0.50591 0.18428 0.0
H195 H 0.48924 0.58202 0.07233 0.0
H196 H 0.45318 0.52128 0.07749 0.0
H197 H 0.50442 0.5315 0.05504 0.0
H198 H 0.21964 0.58523 0.12973 0.0
H199 H 0.44568 0.43433 0.14923 0.0
H200 H 0.20293 0.42948 0.15982 0.0
H201 H 0.45759 0.59109 0.12414 0.0
H202 H 0.35817 0.43104 0.15578 0.0
H203 H 0.307 0.58732 0.12925 0.0
C204 C 0.23414 0.55132 0.13632 0.0
C205 C 0.20314 0.50708 0.14484 0.0
C206 C 0.38002 0.4663 0.14919 0.0
C207 C 0.30481 0.50923 0.14418 0.0
C208 C 0.43004 0.46819 0.14574 0.0
C209 C 0.45898 0.51311 0.13628 0.0
C210 C 0.35868 0.50967 0.14303 0.0
C211 C 0.43664 0.55577 0.13153 0.0
C212 C 0.28444 0.55258 0.13605 0.0
C213 C 0.22498 0.46451 0.15304 0.0
N214 N 0.38815 0.55295 0.13475 0.0
N215 N 0.27419 0.4666 0.15241 0.0
H216 H 0.88281 0.25514 0.47267 0.0
H217 H 0.15266 0.39939 0.45345 0.0
H218 H 1.00934 0.18227 0.48463 0.0
H219 H 1.02514 0.46472 0.42681 0.0
H220 H 0.10099 0.31907 0.46475 0.0
H221 H 0.93413 0.33185 0.45546 0.0
C222 C 0.92129 0.255 0.4714 0.0
C223 C 0.94167 0.21194 0.48018 0.0
C224 C 1.08422 0.35079 0.45621 0.0
C225 C 1.00093 0.30031 0.46091 0.0
C226 C 0.11367 0.39643 0.44986 0.0
C227 C 0.09279 0.43825 0.43941 0.0
C228 C 1.0335 0.34725 0.45229 0.0
C229 C 1.04229 0.43299 0.43478 0.0
C230 C 0.95065 0.29901 0.46168 0.0
C231 C 0.99203 0.21461 0.47855 0.0
N232 N 1.01424 0.38836 0.4415 0.0
N233 N 1.01992 0.25805 0.46925 0.0
H234 H 0.71734 0.74584 0.8578 0.0
H235 H 0.57274 0.96519 0.79332 0.0
H236 H 0.57277 0.72062 0.81774 0.0
H237 H 0.7092 0.98998 0.84206 0.0
H238 H 0.57234 0.87527 0.80169 0.0
H239 H 0.71537 0.83511 0.85215 0.0
C240 C 0.68511 0.75899 0.84786 0.0
C241 C 0.64523 0.72554 0.83812 0.0
C242 C 0.6023 0.90024 0.81073 0.0
C243 C 0.64284 0.82798 0.83152 0.0
C244 C 0.60253 0.95139 0.80586 0.0
C245 C 0.64097 0.98456 0.8171 0.0
C246 C 0.64109 0.88217 0.82682 0.0
C247 C 0.67871 0.9653 0.83336 0.0
C248 C 0.68401 0.81005 0.84468 0.0
C249 C 0.60443 0.74491 0.82551 0.0
N250 N 0.67797 0.91531 0.83764 0.0
N251 N 0.60439 0.7948 0.82247 0.0
H252 H 0.90172 0.59085 0.14573 0.0
H253 H 0.63086 0.43438 0.14566 0.0
H254 H 0.87316 0.43117 0.14674 0.0
H255 H 0.66205 0.59199 0.12298 0.0
H256 H 0.71892 0.43223 0.15268 0.0
H257 H 0.81414 0.59181 0.14354 0.0
C258 C 0.87719 0.55588 0.14564 0.0
C259 C 0.8954 0.51087 0.14634 0.0
C260 C 0.70653 0.4674 0.14645 0.0
C261 C 0.79405 0.51175 0.14398 0.0
C262 C 0.6563 0.46862 0.14274 0.0
C263 C 0.63924 0.5135 0.13399 0.0
C264 C 0.74003 0.51151 0.14162 0.0
C265 C 0.67377 0.55674 0.1299 0.0
C266 C 0.82696 0.5565 0.14431 0.0
C267 C 0.8612 0.46687 0.1461 0.0
N268 N 0.72225 0.55471 0.13374 0.0
N269 N 0.81246 0.46842 0.145 0.0
H270 H 0.3074 0.83413 0.50422 0.0
H271 H 0.26062 0.55085 0.46755 0.0
H272 H 0.42299 0.75139 0.49442 0.0
H273 H 0.15325 0.64762 0.45234 0.0
H274 H 0.3185 0.61939 0.48626 0.0
H275 H 0.24826 0.76163 0.49329 0.0
C276 C 0.32043 0.80083 0.49971 0.0
C277 C 0.3704 0.7992 0.49997 0.0
C278 C 0.28213 0.62551 0.47909 0.0
C279 C 0.30268 0.71566 0.48801 0.0
C280 C 0.24927 0.58646 0.46866 0.0
C281 C 0.20263 0.59419 0.45851 0.0
C282 C 0.2678 0.67223 0.47947 0.0
C283 C 0.18917 0.64076 0.45999 0.0
C284 C 0.28659 0.75935 0.49366 0.0
C285 C 0.38494 0.75441 0.49472 0.0
N286 N 0.22167 0.67819 0.47021 0.0
N287 N 0.35125 0.7145 0.48886 0.0
H288 H 0.72308 0.43049 0.82303 0.0
H289 H 0.58112 0.15215 0.84518 0.0
H290 H 0.58682 0.39248 0.86421 0.0
H291 H 0.72209 0.19172 0.81053 0.0
H292 H 0.58467 0.2386 0.85614 0.0
H293 H 0.72526 0.34242 0.82124 0.0
C294 C 0.69359 0.40363 0.83177 0.0
C295 C 0.65451 0.41905 0.84361 0.0
C296 C 0.61523 0.22827 0.84658 0.0
C297 C 0.65679 0.31763 0.84159 0.0
C298 C 0.61329 0.17901 0.84062 0.0
C299 C 0.65157 0.1653 0.82724 0.0
C300 C 0.6556 0.2639 0.83879 0.0
C301 C 0.69213 0.20123 0.82104 0.0
C302 C 0.69495 0.3532 0.83082 0.0
C303 C 0.61759 0.38235 0.85479 0.0
N304 N 0.69295 0.24897 0.82664 0.0
N305 N 0.61946 0.33336 0.85332 0.0
H306 H 0.59113 0.83157 0.55357 0.0
H307 H 0.7248 0.59894 0.53816 0.0
H308 H 0.73634 0.8481 0.52421 0.0
H309 H 0.58063 0.58661 0.56761 0.0
H310 H 0.73038 0.68998 0.53225 0.0
H311 H 0.58743 0.74186 0.55866 0.0
C312 C 0.62239 0.81645 0.54821 0.0
C313 C 0.66415 0.84778 0.5384 0.0
C314 C 0.69747 0.66738 0.53995 0.0
C315 C 0.66002 0.74414 0.54421 0.0
C316 C 0.69424 0.61556 0.54312 0.0
C317 C 0.65213 0.58555 0.55326 0.0
C318 C 0.65824 0.68919 0.54699 0.0
C319 C 0.61376 0.60865 0.55988 0.0
C320 C 0.6202 0.76497 0.55113 0.0
C321 C 0.70341 0.82556 0.53188 0.0
N322 N 0.61771 0.65898 0.55664 0.0
N323 N 0.70036 0.77513 0.53487 0.0
H324 H 0.91839 0.63755 0.72428 0.0
H325 H 1.08618 0.50001 0.81054 0.0
H326 H 0.90084 0.47872 0.74296 0.0
H327 H 0.09948 0.65816 0.79045 0.0
H328 H 1.04652 0.48793 0.76311 0.0
H329 H 1.0041 0.63929 0.71852 0.0
C330 C 0.93194 0.60252 0.72577 0.0
C331 C 0.9037 0.55838 0.73687 0.0
C332 C 1.05957 0.52543 0.76853 0.0
C333 C 1.00181 0.56077 0.73235 0.0
C334 C 1.08185 0.53215 0.79567 0.0
C335 C 0.09363 0.57999 0.80457 0.0
C336 C 1.04718 0.56688 0.75097 0.0
C337 C 1.0892 0.62064 0.78448 0.0
C338 C 0.98138 0.60356 0.72275 0.0
C339 C 0.92268 0.51417 0.7367 0.0
N340 N 1.06495 0.61321 0.75885 0.0
N341 N 0.97144 0.51651 0.73604 0.0
H342 H 0.28948 0.72934 0.20372 0.0
H343 H 0.45488 0.99639 0.19759 0.0
H344 H 0.25281 0.85368 0.14683 0.0
H345 H 0.5039 0.86158 0.23442 0.0
H346 H 0.37929 0.94681 0.17967 0.0
H347 H 0.36652 0.77916 0.21689 0.0
C348 C 0.29771 0.767 0.19375 0.0
C349 C 0.26452 0.78706 0.1739 0.0
C350 C 0.40676 0.92808 0.19149 0.0
C351 C 0.35285 0.84494 0.18946 0.0
C352 C 0.44978 0.95629 0.20154 0.0
C353 C 0.48511 0.93278 0.21759 0.0
C354 C 0.39918 0.87618 0.19783 0.0
C355 C 0.47702 0.88088 0.22244 0.0
C356 C 0.34177 0.79556 0.20141 0.0
C357 C 0.27695 0.8367 0.16242 0.0
N358 N 0.43477 0.85434 0.21282 0.0
N359 N 0.32009 0.86399 0.17041 0.0
H360 H 0.73942 0.18138 0.5245 0.0
H361 H 0.56887 0.38194 0.53839 0.0
H362 H 0.58391 0.15279 0.50837 0.0
H363 H 0.72382 0.42018 0.53456 0.0
H364 H 0.57347 0.29868 0.52512 0.0
H365 H 0.73505 0.26934 0.52637 0.0
C366 C 0.70437 0.19358 0.52115 0.0
C367 C 0.66189 0.1594 0.51653 0.0
C368 C 0.60649 0.3254 0.52665 0.0
C369 C 0.65667 0.26026 0.51882 0.0
C370 C 0.60372 0.37281 0.53407 0.0
C371 C 0.64597 0.40754 0.53727 0.0
C372 C 0.65206 0.31236 0.52296 0.0
C373 C 0.69052 0.39425 0.53195 0.0
C374 C 0.70195 0.24392 0.52213 0.0
C375 C 0.61761 0.17762 0.51208 0.0
N376 N 0.69255 0.34741 0.52541 0.0
N377 N 0.6161 0.22662 0.51367 0.0
H378 H 0.37889 0.58808 0.96332 0.0
H379 H 0.17844 0.71189 0.87661 0.0
H380 H 0.40088 0.70755 0.89577 0.0
H381 H 0.16649 0.56612 0.92227 0.0
H382 H 0.25438 0.737 0.90471 0.0
H383 H 0.30064 0.61141 0.97115 0.0
C384 C 0.36815 0.62052 0.95095 0.0
C385 C 0.39484 0.64415 0.92777 0.0
C386 C 0.23393 0.70021 0.90942 0.0
C387 C 0.30553 0.67009 0.93611 0.0
C388 C 0.19106 0.68583 0.89324 0.0
C389 C 0.16734 0.63657 0.89666 0.0
C390 C 0.25283 0.66481 0.92893 0.0
C391 C 0.18396 0.60434 0.91886 0.0
C392 C 0.32352 0.63388 0.95543 0.0
C393 C 0.38042 0.68708 0.91315 0.0
N394 N 0.22623 0.61873 0.9338 0.0
N395 N 0.33568 0.69766 0.91682 0.0
H396 H 0.89045 0.15422 0.20878 0.0
H397 H 0.60046 0.10655 0.2131 0.0
H398 H 0.7997 0.26288 0.17634 0.0
H399 H 0.69006 0.99982 0.2493 0.0
H400 H 0.67366 0.16559 0.20097 0.0
H401 H 0.81835 0.09831 0.22557 0.0
C402 C 0.85546 0.16651 0.20537 0.0
C403 C 0.85118 0.21327 0.19093 0.0
C404 C 0.67751 0.1294 0.2117 0.0
C405 C 0.76837 0.14918 0.20985 0.0
C406 C 0.63579 0.09585 0.21852 0.0
C407 C 0.63964 0.04854 0.23199 0.0
C408 C 0.72343 0.11535 0.21834 0.0
C409 C 0.68595 0.0362 0.23898 0.0
C410 C 0.81426 0.13445 0.21484 0.0
C411 C 0.80473 0.22687 0.18686 0.0
N412 N 0.72616 0.06932 0.23191 0.0
N413 N 0.76523 0.19497 0.19617 0.0
H414 H 1.05805 0.44975 0.05135 0.0
H415 H 1.07021 0.65101 0.9163 0.0
H416 H 1.01907 0.5953 0.05328 0.0
H417 H 1.06884 0.49576 0.90872 0.0
H418 H 1.04975 0.63093 0.96657 0.0
H419 H 1.06116 0.46483 -0.00089 0.0
C420 C 1.04983 0.4847 0.0408 0.0
C421 C 1.03866 0.52145 0.05675 0.0
C422 C 1.05308 0.60105 0.95385 0.0
C423 C 1.04238 0.53901 -0.00289 0.0
C424 C 1.06462 0.61258 0.92527 0.0
C425 C 1.07092 0.57489 0.90867 0.0
C426 C 1.04867 0.55148 0.96597 0.0
C427 C 1.0637 0.5256 0.92098 0.0
C428 C 1.05144 0.49321 0.01099 0.0
C429 C 1.02805 0.56594 0.04192 0.0
N430 N 1.05359 0.51529 0.94908 0.0
N431 N 1.03066 0.57365 0.013 0.0
H432 H 0.6319 0.92141 0.43888 0.0
H433 H 0.61289 0.07217 0.28857 0.0
H434 H 0.6978 0.0755 0.42776 0.0
H435 H 0.61915 0.91549 0.2979 0.0
H436 H 0.64401 0.07706 0.33878 0.0
H437 H 0.62455 0.91979 0.38688 0.0
C438 C 0.64507 0.95485 0.42543 0.0
C439 C 0.66525 0.9987 0.43753 0.0
C440 C 0.63951 0.04184 0.32962 0.0
C441 C 0.65642 0.99733 0.37801 0.0
C442 C 0.62203 0.03916 0.30107 0.0
C443 C 0.61301 0.99324 0.28952 0.0
C444 C 0.64708 0.99807 0.34657 0.0
C445 C 0.62497 0.95131 0.3064 0.0
C446 C 0.64117 0.95384 0.39577 0.0
C447 C 0.68207 0.04093 0.41916 0.0
N448 N 0.64052 0.95448 0.33426 0.0
N449 N 0.67653 0.03949 0.39019 0.0
H450 H 0.55773 0.5163 0.75419 0.0
H451 H 0.70071 0.56842 0.60971 0.0
H452 H 0.69563 0.61281 0.74559 0.0
H453 H 0.55834 0.48112 0.61546 0.0
H454 H 0.69626 0.5909 0.65849 0.0
H455 H 0.55411 0.50757 0.7027 0.0
C456 C 0.58704 0.53596 0.74149 0.0
C457 C 0.62718 0.56506 0.75432 0.0
C458 C 0.66569 0.56722 0.64906 0.0
C459 C 0.62336 0.5551 0.69542 0.0
C460 C 0.6682 0.55475 0.62121 0.0
C461 C 0.62997 0.52275 0.60889 0.0
C462 C 0.62474 0.54714 0.66472 0.0
C463 C 0.58872 0.50542 0.62458 0.0
C464 C 0.58494 0.53099 0.71207 0.0
C465 C 0.66404 0.58977 0.73673 0.0
N466 N 0.58734 0.51742 0.65183 0.0
N467 N 0.66138 0.58393 0.70828 0.0
H468 H 0.73323 0.99141 0.62549 0.0
H469 H 0.56494 0.0426 0.74685 0.0
H470 H 0.58556 0.01898 0.61018 0.0
H471 H 0.71649 0.03318 0.76281 0.0
H472 H 0.569 0.01989 0.69804 0.0
H473 H 0.72572 0.99437 0.67705 0.0
C474 C 0.69922 0.99782 0.63295 0.0
C475 C 0.66018 0.00558 0.61345 0.0
C476 C 0.60137 0.02211 0.71223 0.0
C477 C 0.65125 0.00858 0.67223 0.0
C478 C 0.5988 0.0347 0.74 0.0
C479 C 0.64043 0.03966 0.75837 0.0
C480 C 0.64613 0.01494 0.70279 0.0
C481 C 0.68378 0.02949 0.74893 0.0
C482 C 0.69496 0.99946 0.66235 0.0
C483 C 0.61688 0.01346 0.62432 0.0
N484 N 0.68575 0.01809 0.72157 0.0
N485 N 0.61369 0.01493 0.65289 0.0
H486 H 0.63048 0.6451 0.93031 0.0
H487 H 0.62477 0.47237 0.07643 0.0
H488 H 0.70106 0.51547 0.94239 0.0
H489 H 0.58213 0.61719 0.06651 0.0
H490 H 0.66161 0.49041 0.02962 0.0
H491 H 0.62114 0.63953 0.98174 0.0
C492 C 0.64478 0.61588 0.94397 0.0
C493 C 0.66627 0.58049 0.93216 0.0
C494 C 0.64497 0.51861 0.03788 0.0
C495 C 0.65464 0.57301 0.99116 0.0
C496 C 0.62417 0.50833 0.06454 0.0
C497 C 0.60004 0.54322 0.07485 0.0
C498 C 0.6411 0.56396 0.02153 0.0
C499 C 0.59984 0.58922 0.05886 0.0
C500 C 0.63943 0.61266 0.97337 0.0
C501 C 0.68437 0.54352 0.95076 0.0
N502 N 0.61944 0.59803 0.03283 0.0
N503 N 0.67729 0.54011 0.97939 0.0
H504 H 1.06747 0.58074 0.23557 0.0
H505 H 0.12882 0.43834 0.3827 0.0
H506 H 1.04536 0.42048 0.24335 0.0
H507 H 1.06494 0.57168 0.37769 0.0
H508 H 0.10274 0.42933 0.33208 0.0
H509 H 1.07339 0.5789 0.28783 0.0
C510 C 1.06381 0.54515 0.24833 0.0
C511 C 1.05612 0.50069 0.23523 0.0
C512 C 0.09366 0.46 0.34227 0.0
C513 C 1.06332 0.49835 0.29493 0.0
C514 C 0.10825 0.46495 0.37106 0.0
C515 C 0.09948 0.50618 0.384 0.0
C516 C 1.07111 0.49712 0.32644 0.0
C517 C 1.07313 0.54 0.36813 0.0
C518 C 1.06679 0.54411 0.27811 0.0
C519 C 1.05123 0.45555 0.25274 0.0
N520 N 1.06074 0.53536 0.33997 0.0
N521 N 1.0557 0.45547 0.28181 0.0
loop_
_geom_bond_atom_site_label_1
_geom_bond_atom_site_label_2
_geom_bond_distance
_geom_bond_site_symmetry_2
_ccdc_geom_bond_type
Dy0 O3 2.307 1_455 S
Dy0 O5 2.395 . S
Dy0 O6 2.379 . S
Dy0 O8 2.339 . S
Dy0 O10 2.298 . S
Dy0 O14 2.275 . S
Dy0 C22 2.738 . S
Dy1 O4 2.298 . S
Dy1 O7 2.275 . S
Dy1 O9 2.307 1_655 S
Dy1 O11 2.395 . S
Dy1 O12 2.379 . S
Dy1 O15 2.339 . S
Dy1 C31 2.738 . S
C2 O14 1.254 . S
C2 O15 1.257 1_455 S
O3 Dy0 2.307 1_655 S
O3 C13 1.266 . S
O4 Dy1 2.298 . S
O4 C13 1.236 . S
O5 Dy0 2.395 . S
O5 C22 1.255 . S
O6 Dy0 2.379 . S
O6 C22 1.249 . S
O7 Dy1 2.275 . S
O7 C23 1.254 1_655 S
O8 Dy0 2.339 . S
O8 C23 1.257 . S
O9 Dy1 2.307 1_455 S
O9 C24 1.266 . S
O10 Dy0 2.298 . S
O10 C24 1.236 . S
O11 Dy1 2.395 . S
O11 C31 1.255 . S
O12 Dy1 2.379 . S
O12 C31 1.249 . S
C13 O3 1.266 . S
C13 O4 1.236 . S
O14 Dy0 2.275 . S
O14 C2 1.254 . S
O15 Dy1 2.339 . S
O15 C2 1.257 1_655 S
C16 C19 1.344 . S
C16 C20 1.328 . S
C16 C22 1.516 . S
C17 C18 1.304 . S
C17 C21 1.323 . S
C18 C17 1.304 . S
C18 C19 1.371 . S
C18 H32 0.930 . S
C19 C16 1.344 . S
C19 C18 1.371 . S
C19 H33 0.931 . S
C20 C16 1.328 . S
C20 C21 1.433 . S
C20 H34 0.931 . S
C21 C17 1.323 . S
C21 C20 1.433 . S
C21 H35 0.933 . S
C22 Dy0 2.738 . S
C22 O5 1.255 . S
C22 O6 1.249 . S
C22 C16 1.516 . S
C23 O7 1.254 1_455 S
C23 O8 1.257 . S
C24 O9 1.266 . S
C24 O10 1.236 . S
C25 C28 1.344 . S
C25 C29 1.328 . S
C25 C31 1.516 . S
C26 C27 1.304 . S
C26 C30 1.323 . S
C27 C26 1.304 . S
C27 C28 1.371 . S
C27 H36 0.930 . S
C28 C25 1.344 . S
C28 C27 1.371 . S
C28 H37 0.931 . S
C29 C25 1.328 . S
C29 C30 1.433 . S
C29 H38 0.931 . S
C30 C26 1.323 . S
C30 C29 1.433 . S
C30 H39 0.933 . S
C31 Dy1 2.738 . S
C31 O11 1.255 . S
C31 O12 1.249 . S
C31 C25 1.516 . S
H32 C18 0.930 . S
H33 C19 0.931 . S
H34 C20 0.931 . S
H35 C21 0.933 . S
H36 C27 0.930 . S
H37 C28 0.931 . S
H38 C29 0.931 . S
H39 C30 0.933 . S
Dy40 O43 2.307 1_565 S
Dy40 O45 2.395 . S
Dy40 O46 2.379 . S
Dy40 O48 2.339 1_565 S
Dy40 O50 2.298 . S
Dy40 O54 2.275 1_565 S
Dy40 C62 2.738 . S
Dy41 O44 2.298 . S
Dy41 O47 2.275 . S
Dy41 O49 2.307 1_545 S
Dy41 O51 2.395 . S
Dy41 O52 2.379 . S
Dy41 O55 2.339 . S
Dy41 C71 2.738 . S
C42 O54 1.254 . S
C42 O55 1.257 . S
O43 Dy40 2.307 1_545 S
O43 C53 1.266 . S
O44 Dy41 2.298 . S
O44 C53 1.236 . S
O45 Dy40 2.395 . S
O45 C62 1.255 . S
O46 Dy40 2.379 . S
O46 C62 1.249 . S
O47 Dy41 2.275 . S
O47 C63 1.254 . S
O48 Dy40 2.339 1_545 S
O48 C63 1.257 . S
O49 Dy41 2.307 1_565 S
O49 C64 1.266 . S
O50 Dy40 2.298 . S
O50 C64 1.236 . S
O51 Dy41 2.395 . S
O51 C71 1.255 . S
O52 Dy41 2.379 . S
O52 C71 1.249 . S
C53 O43 1.266 . S
C53 O44 1.236 . S
O54 Dy40 2.275 1_545 S
O54 C42 1.254 . S
O55 Dy41 2.339 . S
O55 C42 1.257 . S
C56 C59 1.344 . S
C56 C60 1.328 . S
C56 C62 1.516 . S
C57 C58 1.304 . S
C57 C61 1.323 . S
C58 C57 1.304 . S
C58 C59 1.371 . S
C58 H72 0.930 . S
C59 C56 1.344 . S
C59 C58 1.371 . S
C59 H73 0.931 . S
C60 C56 1.328 . S
C60 C61 1.433 . S
C60 H74 0.931 . S
C61 C57 1.323 . S
C61 C60 1.433 . S
C61 H75 0.933 . S
C62 Dy40 2.738 . S
C62 O45 1.255 . S
C62 O46 1.249 . S
C62 C56 1.516 . S
C63 O47 1.254 . S
C63 O48 1.257 . S
C64 O49 1.266 . S
C64 O50 1.236 . S
C65 C68 1.344 . S
C65 C69 1.328 . S
C65 C71 1.516 . S
C66 C67 1.304 . S
C66 C70 1.323 . S
C67 C66 1.304 . S
C67 C68 1.371 . S
C67 H76 0.930 . S
C68 C65 1.344 . S
C68 C67 1.371 . S
C68 H77 0.931 . S
C69 C65 1.328 . S
C69 C70 1.433 . S
C69 H78 0.931 . S
C70 C66 1.323 . S
C70 C69 1.433 . S
C70 H79 0.933 . S
C71 Dy41 2.738 . S
C71 O51 1.255 . S
C71 O52 1.249 . S
C71 C65 1.516 . S
H72 C58 0.930 . S
H73 C59 0.931 . S
H74 C60 0.931 . S
H75 C61 0.933 . S
H76 C67 0.930 . S
H77 C68 0.931 . S
H78 C69 0.931 . S
H79 C70 0.933 . S
Dy80 O83 2.307 . S
Dy80 O85 2.395 . S
Dy80 O86 2.379 . S
Dy80 O88 2.339 . S
Dy80 O90 2.298 . S
Dy80 O94 2.275 . S
Dy80 C102 2.738 . S
Dy81 O84 2.298 . S
Dy81 O87 2.275 . S
Dy81 O89 2.307 . S
Dy81 O91 2.395 . S
Dy81 O92 2.379 . S
Dy81 O95 2.339 . S
Dy81 C111 2.738 . S
C82 O94 1.254 . S
C82 O95 1.257 . S
O83 Dy80 2.307 . S
O83 C93 1.266 . S
O84 Dy81 2.298 . S
O84 C93 1.236 . S
O85 Dy80 2.395 . S
O85 C102 1.255 . S
O86 Dy80 2.379 . S
O86 C102 1.249 . S
O87 Dy81 2.275 . S
O87 C103 1.254 . S
O88 Dy80 2.339 . S
O88 C103 1.257 . S
O89 Dy81 2.307 . S
O89 C104 1.266 . S
O90 Dy80 2.298 . S
O90 C104 1.236 . S
O91 Dy81 2.395 . S
O91 C111 1.255 . S
O92 Dy81 2.379 . S
O92 C111 1.249 . S
C93 O83 1.266 . S
C93 O84 1.236 . S
O94 Dy80 2.275 . S
O94 C82 1.254 . S
O95 Dy81 2.339 . S
O95 C82 1.257 . S
C96 C99 1.344 . S
C96 C100 1.328 . S
C96 C102 1.516 . S
C97 C98 1.304 . S
C97 C101 1.323 . S
C98 C97 1.304 . S
C98 C99 1.371 . S
C98 H112 0.930 . S
C99 C96 1.344 . S
C99 C98 1.371 . S
C99 H113 0.931 . S
C100 C96 1.328 . S
C100 C101 1.433 . S
C100 H114 0.931 . S
C101 C97 1.323 . S
C101 C100 1.433 . S
C101 H115 0.933 . S
C102 Dy80 2.738 . S
C102 O85 1.255 . S
C102 O86 1.249 . S
C102 C96 1.516 . S
C103 O87 1.254 . S
C103 O88 1.257 . S
C104 O89 1.266 . S
C104 O90 1.236 . S
C105 C108 1.344 . S
C105 C109 1.328 . S
C105 C111 1.516 . S
C106 C107 1.304 . S
C106 C110 1.323 . S
C107 C106 1.304 . S
C107 C108 1.371 . S
C107 H116 0.930 . S
C108 C105 1.344 . S
C108 C107 1.371 . S
C108 H117 0.931 . S
C109 C105 1.328 . S
C109 C110 1.433 . S
C109 H118 0.931 . S
C110 C106 1.323 . S
C110 C109 1.433 . S
C110 H119 0.933 . S
C111 Dy81 2.738 . S
C111 O91 1.255 . S
C111 O92 1.249 . S
C111 C105 1.516 . S
H112 C98 0.930 . S
H113 C99 0.931 . S
H114 C100 0.931 . S
H115 C101 0.933 . S
H116 C107 0.930 . S
H117 C108 0.931 . S
H118 C109 0.931 . S
H119 C110 0.933 . S
C120 N121 1.317 . S
C120 N122 1.348 1_545 S
C120 C123 1.485 . S
N121 C120 1.317 . S
N121 N125 1.370 . S
N122 C120 1.348 1_565 S
N122 C124 1.346 . S
C123 C120 1.485 . S
C123 H127 0.960 . S
C123 H128 0.961 1_545 S
C123 H129 0.960 . S
C124 N122 1.346 . S
C124 N125 1.307 1_565 S
C124 C126 1.486 . S
N125 N121 1.370 . S
N125 C124 1.307 1_545 S
C126 C124 1.486 . S
C126 H130 0.960 . S
C126 H131 0.960 . S
C126 H132 0.959 . S
H127 C123 0.960 . S
H128 C123 0.961 1_565 S
H129 C123 0.960 . S
H130 C126 0.960 . S
H131 C126 0.960 . S
H132 C126 0.959 . S
C133 N134 1.317 . S
C133 N135 1.348 . S
C133 C136 1.485 . S
N134 C133 1.317 . S
N134 N138 1.370 . S
N135 C133 1.348 . S
N135 C137 1.346 . S
C136 C133 1.485 . S
C136 H140 0.960 . S
C136 H141 0.961 . S
C136 H142 0.960 . S
C137 N135 1.346 . S
C137 N138 1.307 . S
C137 C139 1.486 . S
N138 N134 1.370 . S
N138 C137 1.307 . S
C139 C137 1.486 . S
C139 H143 0.960 . S
C139 H144 0.960 . S
C139 H145 0.959 . S
H140 C136 0.960 . S
H141 C136 0.961 . S
H142 C136 0.960 . S
H143 C139 0.960 . S
H144 C139 0.960 . S
H145 C139 0.959 . S
C146 N147 1.317 . S
C146 N148 1.348 1_455 S
C146 C149 1.485 . S
N147 C146 1.317 . S
N147 N151 1.370 . S
N148 C146 1.348 1_655 S
N148 C150 1.346 . S
C149 C146 1.485 . S
C149 H153 0.960 . S
C149 H154 0.961 1_455 S
C149 H155 0.960 . S
C150 N148 1.346 . S
C150 N151 1.307 1_655 S
C150 C152 1.486 . S
N151 N147 1.370 . S
N151 C150 1.307 1_455 S
C152 C150 1.486 . S
C152 H156 0.960 . S
C152 H157 0.960 . S
C152 H158 0.959 . S
H153 C149 0.960 . S
H154 C149 0.961 1_655 S
H155 C149 0.960 . S
H156 C152 0.960 . S
H157 C152 0.960 . S
H158 C152 0.959 . S
C159 N160 1.317 . S
C159 N161 1.348 . S
C159 C162 1.485 . S
N160 C159 1.317 . S
N160 N164 1.370 . S
N161 C159 1.348 . S
N161 C163 1.346 . S
C162 C159 1.485 . S
C162 H166 0.960 . S
C162 H167 0.961 . S
C162 H168 0.960 . S
C163 N161 1.346 . S
C163 N164 1.307 . S
C163 C165 1.486 . S
N164 N160 1.370 . S
N164 C163 1.307 . S
C165 C163 1.486 . S
C165 H169 0.960 . S
C165 H170 0.960 . S
C165 H171 0.959 . S
H166 C162 0.960 . S
H167 C162 0.961 . S
H168 C162 0.960 . S
H169 C165 0.960 . S
H170 C165 0.960 . S
H171 C165 0.959 . S
C172 N173 1.317 . S
C172 N174 1.348 . S
C172 C175 1.485 . S
N173 C172 1.317 . S
N173 N177 1.370 . S
N174 C172 1.348 . S
N174 C176 1.346 . S
C175 C172 1.485 . S
C175 H179 0.960 . S
C175 H180 0.961 . S
C175 H181 0.960 1_545 S
C176 N174 1.346 . S
C176 N177 1.307 . S
C176 C178 1.486 . S
N177 N173 1.370 . S
N177 C176 1.307 . S
C178 C176 1.486 . S
C178 H182 0.960 . S
C178 H183 0.960 . S
C178 H184 0.959 . S
H179 C175 0.960 . S
H180 C175 0.961 . S
H181 C175 0.960 1_565 S
H182 C178 0.960 . S
H183 C178 0.960 . S
H184 C178 0.959 . S
C185 N186 1.317 . S
C185 N187 1.348 . S
C185 C188 1.485 . S
N186 C185 1.317 . S
N186 N190 1.370 . S
N187 C185 1.348 . S
N187 C189 1.346 . S
C188 C185 1.485 . S
C188 H192 0.960 . S
C188 H193 0.961 . S
C188 H194 0.960 . S
C189 N187 1.346 . S
C189 N190 1.307 . S
C189 C191 1.486 . S
N190 N186 1.370 . S
N190 C189 1.307 . S
C191 C189 1.486 . S
C191 H195 0.960 . S
C191 H196 0.960 . S
C191 H197 0.959 . S
H192 C188 0.960 . S
H193 C188 0.961 . S
H194 C188 0.960 . S
H195 C191 0.960 . S
H196 C191 0.960 . S
H197 C191 0.959 . S
H198 C204 0.930 . S
H199 C208 0.930 . S
H200 C213 0.929 . S
H201 C211 0.929 . S
H202 C206 0.929 . S
H203 C212 0.929 . S
C204 H198 0.930 . S
C204 C205 1.367 . S
C204 C212 1.378 . S
C205 C204 1.367 . S
C205 C213 1.433 . S
C206 H202 0.929 . S
C206 C208 1.378 . S
C206 C210 1.350 . S
C207 C210 1.463 . S
C207 C212 1.350 . S
C207 N215 1.427 . S
C208 H199 0.930 . S
C208 C206 1.378 . S
C208 C209 1.367 . S
C209 C208 1.367 . S
C209 C211 1.433 . S
C210 C206 1.350 . S
C210 C207 1.463 . S
C210 N214 1.427 . S
C211 H201 0.929 . S
C211 C209 1.433 . S
C211 N214 1.384 . S
C212 H203 0.929 . S
C212 C204 1.378 . S
C212 C207 1.350 . S
C213 H200 0.929 . S
C213 C205 1.433 . S
C213 N215 1.384 . S
N214 C210 1.427 . S
N214 C211 1.384 . S
N215 C207 1.427 . S
N215 C213 1.384 . S
H216 C222 0.930 . S
H217 C226 0.930 . S
H218 C231 0.929 . S
H219 C229 0.929 . S
H220 C224 0.929 . S
H221 C230 0.929 . S
C222 H216 0.930 . S
C222 C223 1.367 . S
C222 C230 1.378 . S
C223 C222 1.367 . S
C223 C231 1.433 . S
C224 H220 0.929 . S
C224 C226 1.378 1_655 S
C224 C228 1.350 . S
C225 C228 1.463 . S
C225 C230 1.350 . S
C225 N233 1.427 . S
C226 H217 0.930 . S
C226 C224 1.378 1_455 S
C226 C227 1.367 1_455 S
C227 C226 1.367 1_655 S
C227 C229 1.433 . S
C228 C224 1.350 . S
C228 C225 1.463 . S
C228 N232 1.427 . S
C229 H219 0.929 . S
C229 C227 1.433 . S
C229 N232 1.384 . S
C230 H221 0.929 . S
C230 C222 1.378 . S
C230 C225 1.350 . S
C231 H218 0.929 . S
C231 C223 1.433 . S
C231 N233 1.384 . S
N232 C228 1.427 . S
N232 C229 1.384 . S
N233 C225 1.427 . S
N233 C231 1.384 . S
H234 C240 0.930 . S
H235 C244 0.930 . S
H236 C249 0.929 . S
H237 C247 0.929 . S
H238 C242 0.929 . S
H239 C248 0.929 . S
C240 H234 0.930 . S
C240 C241 1.367 . S
C240 C248 1.378 . S
C241 C240 1.367 . S
C241 C249 1.433 . S
C242 H238 0.929 . S
C242 C244 1.378 . S
C242 C246 1.350 . S
C243 C246 1.463 . S
C243 C248 1.350 . S
C243 N251 1.427 . S
C244 H235 0.930 . S
C244 C242 1.378 . S
C244 C245 1.367 . S
C245 C244 1.367 . S
C245 C247 1.433 . S
C246 C242 1.350 . S
C246 C243 1.463 . S
C246 N250 1.427 . S
C247 H237 0.929 . S
C247 C245 1.433 . S
C247 N250 1.384 . S
C248 H239 0.929 . S
C248 C240 1.378 . S
C248 C243 1.350 . S
C249 H236 0.929 . S
C249 C241 1.433 . S
C249 N251 1.384 . S
N250 C246 1.427 . S
N250 C247 1.384 . S
N251 C243 1.427 . S
N251 C249 1.384 . S
H252 C258 0.930 . S
H253 C262 0.930 . S
H254 C267 0.929 . S
H255 C265 0.929 . S
H256 C260 0.929 . S
H257 C266 0.929 . S
C258 H252 0.930 . S
C258 C259 1.367 . S
C258 C266 1.378 . S
C259 C258 1.367 . S
C259 C267 1.433 . S
C260 H256 0.929 . S
C260 C262 1.378 . S
C260 C264 1.350 . S
C261 C264 1.463 . S
C261 C266 1.350 . S
C261 N269 1.427 . S
C262 H253 0.930 . S
C262 C260 1.378 . S
C262 C263 1.367 . S
C263 C262 1.367 . S
C263 C265 1.433 . S
C264 C260 1.350 . S
C264 C261 1.463 . S
C264 N268 1.427 . S
C265 H255 0.929 . S
C265 C263 1.433 . S
C265 N268 1.384 . S
C266 H257 0.929 . S
C266 C258 1.378 . S
C266 C261 1.350 . S
C267 H254 0.929 . S
C267 C259 1.433 . S
C267 N269 1.384 . S
N268 C264 1.427 . S
N268 C265 1.384 . S
N269 C261 1.427 . S
N269 C267 1.384 . S
H270 C276 0.930 . S
H271 C280 0.930 . S
H272 C285 0.929 . S
H273 C283 0.929 . S
H274 C278 0.929 . S
H275 C284 0.929 . S
C276 H270 0.930 . S
C276 C277 1.367 . S
C276 C284 1.378 . S
C277 C276 1.367 . S
C277 C285 1.433 . S
C278 H274 0.929 . S
C278 C280 1.378 . S
C278 C282 1.350 . S
C279 C282 1.463 . S
C279 C284 1.350 . S
C279 N287 1.427 . S
C280 H271 0.930 . S
C280 C278 1.378 . S
C280 C281 1.367 . S
C281 C280 1.367 . S
C281 C283 1.433 . S
C282 C278 1.350 . S
C282 C279 1.463 . S
C282 N286 1.427 . S
C283 H273 0.929 . S
C283 C281 1.433 . S
C283 N286 1.384 . S
C284 H275 0.929 . S
C284 C276 1.378 . S
C284 C279 1.350 . S
C285 H272 0.929 . S
C285 C277 1.433 . S
C285 N287 1.384 . S
N286 C282 1.427 . S
N286 C283 1.384 . S
N287 C279 1.427 . S
N287 C285 1.384 . S
H288 C294 0.930 . S
H289 C298 0.930 . S
H290 C303 0.929 . S
H291 C301 0.929 . S
H292 C296 0.929 . S
H293 C302 0.929 . S
C294 H288 0.930 . S
C294 C295 1.367 . S
C294 C302 1.378 . S
C295 C294 1.367 . S
C295 C303 1.433 . S
C296 H292 0.929 . S
C296 C298 1.378 . S
C296 C300 1.350 . S
C297 C300 1.463 . S
C297 C302 1.350 . S
C297 N305 1.427 . S
C298 H289 0.930 . S
C298 C296 1.378 . S
C298 C299 1.367 . S
C299 C298 1.367 . S
C299 C301 1.433 . S
C300 C296 1.350 . S
C300 C297 1.463 . S
C300 N304 1.427 . S
C301 H291 0.929 . S
C301 C299 1.433 . S
C301 N304 1.384 . S
C302 H293 0.929 . S
C302 C294 1.378 . S
C302 C297 1.350 . S
C303 H290 0.929 . S
C303 C295 1.433 . S
C303 N305 1.384 . S
N304 C300 1.427 . S
N304 C301 1.384 . S
N305 C297 1.427 . S
N305 C303 1.384 . S
H306 C312 0.930 . S
H307 C316 0.930 . S
H308 C321 0.929 . S
H309 C319 0.929 . S
H310 C314 0.929 . S
H311 C320 0.929 . S
C312 H306 0.930 . S
C312 C313 1.367 . S
C312 C320 1.378 . S
C313 C312 1.367 . S
C313 C321 1.433 . S
C314 H310 0.929 . S
C314 C316 1.378 . S
C314 C318 1.350 . S
C315 C318 1.463 . S
C315 C320 1.350 . S
C315 N323 1.427 . S
C316 H307 0.930 . S
C316 C314 1.378 . S
C316 C317 1.367 . S
C317 C316 1.367 . S
C317 C319 1.433 . S
C318 C314 1.350 . S
C318 C315 1.463 . S
C318 N322 1.427 . S
C319 H309 0.929 . S
C319 C317 1.433 . S
C319 N322 1.384 . S
C320 H311 0.929 . S
C320 C312 1.378 . S
C320 C315 1.350 . S
C321 H308 0.929 . S
C321 C313 1.433 . S
C321 N323 1.384 . S
N322 C318 1.427 . S
N322 C319 1.384 . S
N323 C315 1.427 . S
N323 C321 1.384 . S
H324 C330 0.930 . S
H325 C334 0.930 . S
H326 C339 0.929 . S
H327 C337 0.929 . S
H328 C332 0.929 . S
H329 C338 0.929 . S
C330 H324 0.930 . S
C330 C331 1.367 . S
C330 C338 1.378 . S
C331 C330 1.367 . S
C331 C339 1.433 . S
C332 H328 0.929 . S
C332 C334 1.378 . S
C332 C336 1.350 . S
C333 C336 1.463 . S
C333 C338 1.350 . S
C333 N341 1.427 . S
C334 H325 0.930 . S
C334 C332 1.378 . S
C334 C335 1.367 . S
C335 C334 1.367 . S
C335 C337 1.433 . S
C336 C332 1.350 . S
C336 C333 1.463 . S
C336 N340 1.427 . S
C337 H327 0.929 . S
C337 C335 1.433 . S
C337 N340 1.384 . S
C338 H329 0.929 . S
C338 C330 1.378 . S
C338 C333 1.350 . S
C339 H326 0.929 . S
C339 C331 1.433 . S
C339 N341 1.384 . S
N340 C336 1.427 . S
N340 C337 1.384 . S
N341 C333 1.427 . S
N341 C339 1.384 . S
H342 C348 0.930 . S
H343 C352 0.930 1_545 S
H344 C357 0.929 . S
H345 C355 0.929 . S
H346 C350 0.929 . S
H347 C356 0.929 . S
C348 H342 0.930 . S
C348 C349 1.367 . S
C348 C356 1.378 . S
C349 C348 1.367 . S
C349 C357 1.433 . S
C350 H346 0.929 . S
C350 C352 1.378 . S
C350 C354 1.350 . S
C351 C354 1.463 . S
C351 C356 1.350 . S
C351 N359 1.427 . S
C352 H343 0.930 1_565 S
C352 C350 1.378 . S
C352 C353 1.367 . S
C353 C352 1.367 . S
C353 C355 1.433 . S
C354 C350 1.350 . S
C354 C351 1.463 . S
C354 N358 1.427 . S
C355 H345 0.929 . S
C355 C353 1.433 . S
C355 N358 1.384 . S
C356 H347 0.929 . S
C356 C348 1.378 . S
C356 C351 1.350 . S
C357 H344 0.929 . S
C357 C349 1.433 . S
C357 N359 1.384 . S
N358 C354 1.427 . S
N358 C355 1.384 . S
N359 C351 1.427 . S
N359 C357 1.384 . S
H360 C366 0.930 . S
H361 C370 0.930 . S
H362 C375 0.929 . S
H363 C373 0.929 . S
H364 C368 0.929 . S
H365 C374 0.929 . S
C366 H360 0.930 . S
C366 C367 1.367 . S
C366 C374 1.378 . S
C367 C366 1.367 . S
C367 C375 1.433 . S
C368 H364 0.929 . S
C368 C370 1.378 . S
C368 C372 1.350 . S
C369 C372 1.463 . S
C369 C374 1.350 . S
C369 N377 1.427 . S
C370 H361 0.930 . S
C370 C368 1.378 . S
C370 C371 1.367 . S
C371 C370 1.367 . S
C371 C373 1.433 . S
C372 C368 1.350 . S
C372 C369 1.463 . S
C372 N376 1.427 . S
C373 H363 0.929 . S
C373 C371 1.433 . S
C373 N376 1.384 . S
C374 H365 0.929 . S
C374 C366 1.378 . S
C374 C369 1.350 . S
C375 H362 0.929 . S
C375 C367 1.433 . S
C375 N377 1.384 . S
N376 C372 1.427 . S
N376 C373 1.384 . S
N377 C369 1.427 . S
N377 C375 1.384 . S
H378 C384 0.930 . S
H379 C388 0.930 . S
H380 C393 0.929 . S
H381 C391 0.929 . S
H382 C386 0.929 . S
H383 C392 0.929 . S
C384 H378 0.930 . S
C384 C385 1.367 . S
C384 C392 1.378 . S
C385 C384 1.367 . S
C385 C393 1.433 . S
C386 H382 0.929 . S
C386 C388 1.378 . S
C386 C390 1.350 . S
C387 C390 1.463 . S
C387 C392 1.350 . S
C387 N395 1.427 . S
C388 H379 0.930 . S
C388 C386 1.378 . S
C388 C389 1.367 . S
C389 C388 1.367 . S
C389 C391 1.433 . S
C390 C386 1.350 . S
C390 C387 1.463 . S
C390 N394 1.427 . S
C391 H381 0.929 . S
C391 C389 1.433 . S
C391 N394 1.384 . S
C392 H383 0.929 . S
C392 C384 1.378 . S
C392 C387 1.350 . S
C393 H380 0.929 . S
C393 C385 1.433 . S
C393 N395 1.384 . S
N394 C390 1.427 . S
N394 C391 1.384 . S
N395 C387 1.427 . S
N395 C393 1.384 . S
H396 C402 0.930 . S
H397 C406 0.930 . S
H398 C411 0.929 . S
H399 C409 0.929 . S
H400 C404 0.929 . S
H401 C410 0.929 . S
C402 H396 0.930 . S
C402 C403 1.367 . S
C402 C410 1.378 . S
C403 C402 1.367 . S
C403 C411 1.433 . S
C404 H400 0.929 . S
C404 C406 1.378 . S
C404 C408 1.350 . S
C405 C408 1.463 . S
C405 C410 1.350 . S
C405 N413 1.427 . S
C406 H397 0.930 . S
C406 C404 1.378 . S
C406 C407 1.367 . S
C407 C406 1.367 . S
C407 C409 1.433 . S
C408 C404 1.350 . S
C408 C405 1.463 . S
C408 N412 1.427 . S
C409 H399 0.929 . S
C409 C407 1.433 . S
C409 N412 1.384 . S
C410 H401 0.929 . S
C410 C402 1.378 . S
C410 C405 1.350 . S
C411 H398 0.929 . S
C411 C403 1.433 . S
C411 N413 1.384 . S
N412 C408 1.427 . S
N412 C409 1.384 . S
N413 C405 1.427 . S
N413 C411 1.384 . S
H414 C420 0.930 . S
H415 C424 0.930 . S
H416 C429 0.929 . S
H417 C427 0.929 . S
H418 C422 0.920 1_554 S
H419 C428 0.929 . S
C420 H414 0.930 . S
C420 C421 1.367 1_655 S
C420 C428 1.378 . S
C421 C420 1.367 1_455 S
C421 C429 1.433 . S
C422 H418 0.920 1_556 S
C422 C424 1.378 . S
C422 C426 1.350 . S
C423 C426 1.463 1_554 S
C423 C428 1.350 1_455 S
C423 N431 1.427 . S
C424 H415 0.930 . S
C424 C422 1.378 . S
C424 C425 1.367 . S
C425 C424 1.367 . S
C425 C427 1.433 1_455 S
C426 C422 1.350 . S
C426 C423 1.463 1_556 S
C426 N430 1.427 1_455 S
C427 H417 0.929 . S
C427 C425 1.433 1_655 S
C427 N430 1.384 . S
C428 H419 0.929 . S
C428 C420 1.378 . S
C428 C423 1.350 1_655 S
C429 H416 0.929 . S
C429 C421 1.433 . S
C429 N431 1.384 . S
N430 C426 1.427 1_655 S
N430 C427 1.384 . S
N431 C423 1.427 . S
N431 C429 1.384 . S
H432 C438 0.930 . S
H433 C442 0.930 . S
H434 C447 0.929 . S
H435 C445 0.929 . S
H436 C440 0.929 . S
H437 C446 0.929 . S
C438 H432 0.930 . S
C438 C439 1.367 1_565 S
C438 C446 1.378 . S
C439 C438 1.367 1_545 S
C439 C447 1.433 . S
C440 H436 0.929 . S
C440 C442 1.378 . S
C440 C444 1.350 . S
C441 C444 1.463 . S
C441 C446 1.350 1_545 S
C441 N449 1.427 . S
C442 H433 0.930 . S
C442 C440 1.378 . S
C442 C443 1.367 . S
C443 C442 1.367 . S
C443 C445 1.433 1_545 S
C444 C440 1.350 . S
C444 C441 1.463 . S
C444 N448 1.427 1_545 S
C445 H435 0.929 . S
C445 C443 1.433 1_565 S
C445 N448 1.384 . S
C446 H437 0.929 . S
C446 C438 1.378 . S
C446 C441 1.350 1_565 S
C447 H434 0.929 . S
C447 C439 1.433 . S
C447 N449 1.384 . S
N448 C444 1.427 1_565 S
N448 C445 1.384 . S
N449 C441 1.427 . S
N449 C447 1.384 . S
H450 C456 0.930 . S
H451 C460 0.930 . S
H452 C465 0.929 . S
H453 C463 0.929 . S
H454 C458 0.929 . S
H455 C464 0.929 . S
C456 H450 0.930 . S
C456 C457 1.367 . S
C456 C464 1.378 . S
C457 C456 1.367 . S
C457 C465 1.433 . S
C458 H454 0.929 . S
C458 C460 1.378 . S
C458 C462 1.350 . S
C459 C462 1.463 . S
C459 C464 1.350 . S
C459 N467 1.427 . S
C460 H451 0.930 . S
C460 C458 1.378 . S
C460 C461 1.367 . S
C461 C460 1.367 . S
C461 C463 1.433 . S
C462 C458 1.350 . S
C462 C459 1.463 . S
C462 N466 1.427 . S
C463 H453 0.929 . S
C463 C461 1.433 . S
C463 N466 1.384 . S
C464 H455 0.929 . S
C464 C456 1.378 . S
C464 C459 1.350 . S
C465 H452 0.929 . S
C465 C457 1.433 . S
C465 N467 1.384 . S
N466 C462 1.427 . S
N466 C463 1.384 . S
N467 C459 1.427 . S
N467 C465 1.384 . S
H468 C474 0.930 . S
H469 C478 0.930 . S
H470 C483 0.929 . S
H471 C481 0.929 . S
H472 C476 0.929 . S
H473 C482 0.929 . S
C474 H468 0.930 . S
C474 C475 1.367 1_565 S
C474 C482 1.378 . S
C475 C474 1.367 1_545 S
C475 C483 1.433 . S
C476 H472 0.929 . S
C476 C478 1.378 . S
C476 C480 1.350 . S
C477 C480 1.463 . S
C477 C482 1.350 1_545 S
C477 N485 1.427 . S
C478 H469 0.930 . S
C478 C476 1.378 . S
C478 C479 1.367 . S
C479 C478 1.367 . S
C479 C481 1.433 1_545 S
C480 C476 1.350 . S
C480 C477 1.463 . S
C480 N484 1.427 1_545 S
C481 H471 0.929 . S
C481 C479 1.433 1_565 S
C481 N484 1.384 . S
C482 H473 0.929 . S
C482 C474 1.378 . S
C482 C477 1.350 1_565 S
C483 H470 0.929 . S
C483 C475 1.433 . S
C483 N485 1.384 . S
N484 C480 1.427 1_565 S
N484 C481 1.384 . S
N485 C477 1.427 . S
N485 C483 1.384 . S
H486 C492 0.930 . S
H487 C496 0.930 . S
H488 C501 0.929 . S
H489 C499 0.929 . S
H490 C494 0.929 . S
H491 C500 0.929 . S
C492 H486 0.930 . S
C492 C493 1.367 . S
C492 C500 1.378 . S
C493 C492 1.367 . S
C493 C501 1.433 . S
C494 H490 0.929 . S
C494 C496 1.378 . S
C494 C498 1.350 . S
C495 C498 1.463 1_556 S
C495 C500 1.350 . S
C495 N503 1.427 . S
C496 H487 0.930 . S
C496 C494 1.378 . S
C496 C497 1.367 . S
C497 C496 1.367 . S
C497 C499 1.433 . S
C498 C494 1.350 . S
C498 C495 1.463 1_554 S
C498 N502 1.427 . S
C499 H489 0.929 . S
C499 C497 1.433 . S
C499 N502 1.384 . S
C500 H491 0.929 . S
C500 C492 1.378 . S
C500 C495 1.350 . S
C501 H488 0.929 . S
C501 C493 1.433 . S
C501 N503 1.384 . S
N502 C498 1.427 . S
N502 C499 1.384 . S
N503 C495 1.427 . S
N503 C501 1.384 . S
H504 C510 0.935 . S
H505 C514 0.930 . S
H506 C519 0.929 . S
H507 C517 0.929 . S
H508 C512 0.929 . S
H509 C518 0.929 . S
C510 H504 0.935 . S
C510 C511 1.362 1_655 S
C510 C518 1.378 1_655 S
C511 C510 1.362 1_455 S
C511 C519 1.433 . S
C512 H508 0.929 . S
C512 C514 1.378 . S
C512 C516 1.350 . S
C513 C516 1.463 . S
C513 C518 1.350 . S
C513 N521 1.427 . S
C514 H505 0.930 . S
C514 C512 1.378 . S
C514 C515 1.367 . S
C515 C514 1.367 . S
C515 C517 1.433 . S
C516 C512 1.350 . S
C516 C513 1.463 . S
C516 N520 1.427 . S
C517 H507 0.929 . S
C517 C515 1.433 . S
C517 N520 1.384 . S
C518 H509 0.929 . S
C518 C510 1.378 1_455 S
C518 C513 1.350 . S
C519 H506 0.929 . S
C519 C511 1.433 . S
C519 N521 1.384 . S
N520 C516 1.427 . S
N520 C517 1.384 . S
N521 C513 1.427 . S
N521 C519 1.384 . S
C205 C24 2.733 . S
C209 N187 2.704 . S
C223 C66 1.092 . S
C227 N160 1.105 1_655 S
C241 C93 1.701 . S
C245 N173 1.714 1_565 S
C259 C13 3.306 . S
C263 N186 3.329 . S
C281 N161 1.351 . S
C277 C57 1.340 . S
C299 N174 1.950 . S
C295 C104 1.974 . S
C313 C64 1.822 . S
C317 N134 1.820 . S
C331 C97 0.296 . S
C335 N148 0.259 . S
C349 C17 1.349 . S
C353 N122 1.377 . S
C371 N135 1.826 . S
C367 C53 1.836 . S
C389 N147 0.536 . S
C385 C106 0.569 . S
C403 C26 1.142 . S
C407 N121 1.162 . S
C425 N151 1.228 . S
C421 C2 1.236 . S
C439 C63 1.515 . S
C443 N125 1.596 . S
C457 C82 1.441 . S
C461 N138 1.447 . S
C479 N177 1.547 . S
C475 C42 1.538 . S
C497 N190 1.745 . S
C493 C103 1.715 . S
C511 C23 1.500 . S
C515 N164 1.563 . S
