# Generated by pormake.
# Topology pyr, (3,6)-cn, num edge types: 1
# Building blocks:
#     Node 0, Type 0, BuildingBlock: QEWDON_clean_linker_0, # of connection points: 3
#     Node 1, Type 0, BuildingBlock: QEWDON_clean_linker_0, # of connection points: 3
#     Node 2, Type 0, BuildingBlock: QEWDON_clean_linker_0, # of connection points: 3
#     Node 3, Type 0, BuildingBlock: QEWDON_clean_linker_0, # of connection points: 3
#     Node 4, Type 0, BuildingBlock: QEWDON_clean_linker_0, # of connection points: 3
#     Node 5, Type 0, BuildingBlock: QEWDON_clean_linker_0, # of connection points: 3
#     Node 6, Type 0, BuildingBlock: QEWDON_clean_linker_0, # of connection points: 3
#     Node 7, Type 0, BuildingBlock: QEWDON_clean_linker_0, # of connection points: 3
#     Node 8, Type 1, BuildingBlock: CIFDUS_clean_sbu_1, # of connection points: 6
#     Node 9, Type 1, BuildingBlock: CIFDUS_clean_sbu_1, # of connection points: 6
#     Node 10, Type 1, BuildingBlock: CIFDUS_clean_sbu_1, # of connection points: 6
#     Node 11, Type 1, BuildingBlock: CIFDUS_clean_sbu_1, # of connection points: 6
#     Edge 12, Type (0, 1), BuildingBlock: AJUNOK_clean_linker_0, # of connection points: 2
#     Edge 13, Type (0, 1), BuildingBlock: AJUNOK_clean_linker_0, # of connection points: 2
#     Edge 14, Type (0, 1), BuildingBlock: AJUNOK_clean_linker_0, # of connection points: 2
#     Edge 15, Type (0, 1), BuildingBlock: AJUNOK_clean_linker_0, # of connection points: 2
#     Edge 16, Type (0, 1), BuildingBlock: AJUNOK_clean_linker_0, # of connection points: 2
#     Edge 17, Type (0, 1), BuildingBlock: AJUNOK_clean_linker_0, # of connection points: 2
#     Edge 18, Type (0, 1), BuildingBlock: AJUNOK_clean_linker_0, # of connection points: 2
#     Edge 19, Type (0, 1), BuildingBlock: AJUNOK_clean_linker_0, # of connection points: 2
#     Edge 20, Type (0, 1), BuildingBlock: AJUNOK_clean_linker_0, # of connection points: 2
#     Edge 21, Type (0, 1), BuildingBlock: AJUNOK_clean_linker_0, # of connection points: 2
#     Edge 22, Type (0, 1), BuildingBlock: AJUNOK_clean_linker_0, # of connection points: 2
#     Edge 23, Type (0, 1), BuildingBlock: AJUNOK_clean_linker_0, # of connection points: 2
#     Edge 24, Type (0, 1), BuildingBlock: AJUNOK_clean_linker_0, # of connection points: 2
#     Edge 25, Type (0, 1), BuildingBlock: AJUNOK_clean_linker_0, # of connection points: 2
#     Edge 26, Type (0, 1), BuildingBlock: AJUNOK_clean_linker_0, # of connection points: 2
#     Edge 27, Type (0, 1), BuildingBlock: AJUNOK_clean_linker_0, # of connection points: 2
#     Edge 28, Type (0, 1), BuildingBlock: AJUNOK_clean_linker_0, # of connection points: 2
#     Edge 29, Type (0, 1), BuildingBlock: AJUNOK_clean_linker_0, # of connection points: 2
#     Edge 30, Type (0, 1), BuildingBlock: AJUNOK_clean_linker_0, # of connection points: 2
#     Edge 31, Type (0, 1), BuildingBlock: AJUNOK_clean_linker_0, # of connection points: 2
#     Edge 32, Type (0, 1), BuildingBlock: AJUNOK_clean_linker_0, # of connection points: 2
#     Edge 33, Type (0, 1), BuildingBlock: AJUNOK_clean_linker_0, # of connection points: 2
#     Edge 34, Type (0, 1), BuildingBlock: AJUNOK_clean_linker_0, # of connection points: 2
#     Edge 35, Type (0, 1), BuildingBlock: AJUNOK_clean_linker_0, # of connection points: 2
# Relax obj value: 0.141
# Max RMSD: 0.249
# Mean RMSD: 0.188
data_MOF--net-pry--node1-CIFDUS_clean_sbu_1--node2-QEWDON_clean_linker_0--edge1-AJUNOK_clean_linker_0
_symmetry_space_group_name_H-M    P1
_symmetry_Int_Tables_number       1
_symmetry_cell_setting            triclinic
loop_
_symmetry_equiv_pos_as_xyz
'x, y, z'
_cell_length_a     27.063793
_cell_length_b     26.402199
_cell_length_c     27.692448
_cell_angle_alpha  92.333606
_cell_angle_beta   91.316586
_cell_angle_gamma 102.37904
loop_
_atom_site_label
_atom_site_type_symbol
_atom_site_fract_x
_atom_site_fract_y
_atom_site_fract_z
_atom_type_partial_charge
H0 H 0.26741 0.22853 0.15914 0.0
C1 C 0.24357 0.21274 0.18824 0.0
C2 C 0.2508 0.16679 0.20913 0.0
C3 C 0.20895 0.2411 0.20674 0.0
H4 H 0.22785 0.11468 0.26676 0.0
C5 C 0.22258 0.14967 0.25014 0.0
C6 C 0.18705 0.17701 0.2693 0.0
C7 C 0.18046 0.22243 0.24675 0.0
C8 C 0.21292 0.296 0.19253 0.0
H9 H 0.15524 0.2451 0.26221 0.0
C10 C 0.17519 0.31369 0.16502 0.0
C11 C 0.18281 0.36693 0.15288 0.0
C12 C 0.2572 0.33177 0.20784 0.0
H13 H 0.2864 0.31945 0.22891 0.0
C14 C 0.26434 0.38368 0.19696 0.0
H15 H 0.14118 0.28624 0.15251 0.0
C16 C 0.22773 0.4011 0.17014 0.0
H17 H 0.23458 0.44212 0.16347 0.0
H18 H 0.29851 0.41079 0.20965 0.0
H19 H 0.3489 0.94484 0.79229 0.0
C20 C 0.376 0.92673 0.77382 0.0
C21 C 0.42392 0.92857 0.79566 0.0
C22 C 0.36143 0.89909 0.72965 0.0
H23 H 0.49467 0.90376 0.78772 0.0
C24 C 0.45815 0.90359 0.77081 0.0
C25 C 0.44387 0.87548 0.72581 0.0
C26 C 0.39512 0.87383 0.7062 0.0
C27 C 0.30808 0.88803 0.71217 0.0
H28 H 0.38127 0.84926 0.67434 0.0
C29 C 0.29106 0.91804 0.67716 0.0
C30 C 0.23997 0.90602 0.66031 0.0
C31 C 0.27442 0.84515 0.72948 0.0
H32 H 0.28716 0.82128 0.756 0.0
C33 C 0.22416 0.83268 0.71271 0.0
H34 H 0.31739 0.95087 0.66358 0.0
C35 C 0.20685 0.86305 0.67881 0.0
H36 H 0.16699 0.85384 0.66851 0.0
H37 H 0.19825 0.79984 0.72665 0.0
H38 H 0.76317 0.46132 0.93242 0.0
C39 C 0.73974 0.42273 0.93554 0.0
C40 C 0.75505 0.38886 0.96699 0.0
C41 C 0.69381 0.40887 0.90962 0.0
H42 H 0.73576 0.31587 0.99935 0.0
C43 C 0.72452 0.33959 0.97201 0.0
C44 C 0.67864 0.32318 0.94444 0.0
C45 C 0.66418 0.35845 0.91236 0.0
C46 C 0.67496 0.45101 0.88688 0.0
H47 H 0.6287 0.3482 0.89175 0.0
C48 C 0.66581 0.45116 0.83668 0.0
C49 C 0.65509 0.4958 0.81619 0.0
C50 C 0.6714 0.49471 0.91634 0.0
H51 H 0.6782 0.49525 0.95511 0.0
C52 C 0.66023 0.53843 0.89622 0.0
H53 H 0.66799 0.4175 0.81376 0.0
C54 C 0.65233 0.53916 0.84653 0.0
H55 H 0.64228 0.57321 0.83194 0.0
H56 H 0.65759 0.57184 0.91922 0.0
H57 H 0.9585 0.70189 0.42848 0.0
C58 C 0.92697 0.69635 0.45254 0.0
C59 C 0.92544 0.73397 0.48978 0.0
C60 C 0.88627 0.6539 0.44334 0.0
H61 H 0.88105 0.75486 0.54847 0.0
C62 C 0.88453 0.7254 0.52117 0.0
C63 C 0.84493 0.68141 0.51455 0.0
C64 C 0.84598 0.64603 0.47533 0.0
C65 C 0.88406 0.62029 0.3983 0.0
H66 H 0.81357 0.6144 0.46767 0.0
C67 C 0.89837 0.64193 0.35338 0.0
C68 C 0.89832 0.60988 0.31109 0.0
C69 C 0.86739 0.56629 0.4 0.0
H70 H 0.85626 0.54852 0.43376 0.0
C71 C 0.86589 0.53448 0.35835 0.0
H72 H 0.90902 0.68369 0.3515 0.0
C73 C 0.88159 0.55582 0.31454 0.0
H74 H 0.88198 0.52949 0.28361 0.0
H75 H 0.85349 0.49283 0.36024 0.0
H76 H 0.85218 0.84533 0.9239 0.0
C77 C 0.87138 0.86303 0.8929 0.0
C78 C 0.91647 0.84899 0.87773 0.0
C79 C 0.84932 0.89799 0.86744 0.0
H80 H 0.97443 0.86304 0.82329 0.0
C81 C 0.93985 0.87269 0.83585 0.0
C82 C 0.91754 0.90822 0.80966 0.0
C83 C 0.87246 0.9199 0.82622 0.0
C84 C 0.79726 0.90444 0.87759 0.0
H85 H 0.85471 0.9462 0.80632 0.0
C86 C 0.78653 0.93929 0.91424 0.0
C87 C 0.73648 0.94692 0.91885 0.0
C88 C 0.75776 0.87682 0.84695 0.0
H89 H 0.76523 0.85018 0.8186 0.0
C90 C 0.70851 0.88346 0.8521 0.0
H91 H 0.81676 0.96096 0.938 0.0
C92 C 0.69792 0.91813 0.88757 0.0
H93 H 0.65907 0.92198 0.891 0.0
H94 H 0.67836 0.86173 0.82834 0.0
H95 H 0.73351 0.20959 0.506 0.0
C96 C 0.71918 0.19758 0.46951 0.0
C97 C 0.74548 0.16862 0.43959 0.0
C98 C 0.67433 0.21119 0.45288 0.0
H99 H 0.74495 0.13003 0.36894 0.0
C100 C 0.72579 0.15317 0.39215 0.0
C101 C 0.68028 0.16547 0.37523 0.0
C102 C 0.65528 0.195 0.40588 0.0
C103 C 0.64376 0.23585 0.48697 0.0
H104 H 0.62008 0.20429 0.39358 0.0
C105 C 0.63274 0.28526 0.47991 0.0
C106 C 0.60412 0.30717 0.51406 0.0
C107 C 0.62478 0.20845 0.52733 0.0
H108 H 0.63242 0.17049 0.53327 0.0
C109 C 0.59513 0.22912 0.55994 0.0
H110 H 0.64775 0.30706 0.44923 0.0
C111 C 0.58483 0.27792 0.55342 0.0
H112 H 0.562 0.29319 0.57963 0.0
H113 H 0.5803 0.20734 0.59065 0.0
H114 H 0.35582 0.8448 0.3197 0.0
C115 C 0.33288 0.82539 0.289 0.0
C116 C 0.33774 0.84756 0.24351 0.0
C117 C 0.29891 0.7778 0.29488 0.0
H118 H 0.31243 0.83734 0.16833 0.0
C119 C 0.3076 0.82195 0.20405 0.0
C120 C 0.27409 0.77442 0.20913 0.0
C121 C 0.26963 0.75252 0.25472 0.0
C122 C 0.29473 0.75388 0.34269 0.0
H123 H 0.24402 0.71537 0.25872 0.0
C124 C 0.33775 0.74393 0.36699 0.0
C125 C 0.33372 0.72063 0.41224 0.0
C126 C 0.2474 0.74011 0.36384 0.0
H127 H 0.21378 0.74725 0.34579 0.0
C128 C 0.24315 0.71755 0.40872 0.0
H129 H 0.37389 0.75258 0.34966 0.0
C130 C 0.28586 0.70784 0.43279 0.0
H131 H 0.28143 0.69019 0.46751 0.0
H132 H 0.20651 0.70735 0.42487 0.0
H133 H 0.23225 0.47862 0.66535 0.0
C134 C 0.20571 0.45094 0.64221 0.0
C135 C 0.21342 0.44797 0.59217 0.0
C136 C 0.16731 0.41527 0.66317 0.0
H137 H 0.18946 0.40485 0.5246 0.0
C138 C 0.18178 0.40908 0.56262 0.0
C139 C 0.14156 0.37434 0.58276 0.0
C140 C 0.13453 0.37825 0.63291 0.0
C141 C 0.16445 0.41281 0.71677 0.0
H142 H 0.10521 0.35003 0.64906 0.0
C143 C 0.16929 0.45805 0.74705 0.0
C144 C 0.16184 0.45479 0.79745 0.0
C145 C 0.15601 0.36429 0.73782 0.0
H146 H 0.15379 0.32891 0.71587 0.0
C147 C 0.14982 0.36063 0.78735 0.0
H148 H 0.17684 0.49544 0.73088 0.0
C149 C 0.15145 0.40508 0.81671 0.0
H150 H 0.14217 0.39967 0.85416 0.0
H151 H 0.14208 0.32288 0.8029 0.0
O152 O 0.95838 0.09383 0.51991 0.0
Mn153 Mn 0.02335 0.06082 0.53436 0.0
O154 O 0.91666 0.04957 0.4561 0.0
Mn155 Mn 0.97023 0.01998 0.44371 0.0
O156 O 0.08752 0.03049 0.55144 0.0
O157 O 0.05263 0.12781 0.57123 0.0
Mn158 Mn 0.07987 0.11635 0.62634 0.0
O159 O 0.98914 0.02609 0.59984 0.0
O160 O 0.13094 0.08291 0.61112 0.0
O161 O 0.06259 0.09588 0.47284 0.0
O162 O 0.01908 0.05795 0.40705 0.0
O163 O 0.09061 0.18724 0.62436 0.0
O164 O 0.02947 0.07824 0.6614 0.0
C165 C 0.97693 0.94904 0.46754 0.0
C166 C 0.92027 0.08415 0.48944 0.0
C167 C 0.12617 0.04431 0.58095 0.0
C168 C 0.06851 0.17674 0.58206 0.0
C169 C 0.99658 0.03846 0.64619 0.0
C170 C 0.05662 0.08986 0.42627 0.0
O171 O 0.99543 0.99171 0.4943 0.0
O172 O 0.95335 0.95326 0.42705 0.0
O173 O 0.48737 0.04081 1.02141 0.0
Mn174 Mn 0.52168 0.06431 0.09155 0.0
O175 O 0.49022 0.95569 1.01151 0.0
Mn176 Mn 0.52453 0.94885 0.06884 0.0
O177 O 0.55899 0.08294 0.16095 0.0
O178 O 0.53902 0.14031 0.07251 0.0
Mn179 Mn 0.52704 0.17496 0.12624 0.0
O180 O 0.45025 0.07385 0.11974 0.0
O181 O 0.57268 0.16886 0.17478 0.0
O182 O 0.59145 0.0541 0.06162 0.0
O183 O 0.5937 0.97003 0.06751 0.0
O184 O 0.54626 0.22533 0.08454 0.0
O185 O 0.45989 0.15831 0.1415 0.0
C186 C 0.4877 0.95053 0.13589 0.0
C187 C 0.47925 0.99702 0.99607 0.0
C188 C 0.57899 0.12471 0.18629 0.0
C189 C 0.55165 0.1869 0.05596 0.0
C190 C 0.43288 0.11269 0.13733 0.0
C191 C 0.61454 0.01598 0.05725 0.0
O192 O 0.50464 0.99061 0.11123 0.0
O193 O 0.49491 0.90731 0.11663 0.0
O194 O 0.60662 0.6326 0.58595 0.0
Mn195 Mn 0.52761 0.60371 0.5791 0.0
O196 O 0.63239 0.64635 0.50933 0.0
Mn197 Mn 0.57378 0.61191 0.4769 0.0
O198 O 0.44981 0.57362 0.56862 0.0
O199 O 0.52637 0.57429 0.64545 0.0
Mn200 Mn 0.47526 0.5908 0.67624 0.0
O201 O 0.51529 0.67669 0.6086 0.0
O202 O 0.41608 0.56264 0.64178 0.0
O203 O 0.54223 0.53269 0.55261 0.0
O204 O 0.5649 0.53961 0.47523 0.0
O205 O 0.50256 0.55209 0.71814 0.0
O206 O 0.49081 0.66154 0.68479 0.0
C207 C 0.5109 0.64996 0.47456 0.0
C208 C 0.64089 0.64855 0.55497 0.0
C209 C 0.41216 0.55964 0.59591 0.0
C210 C 0.53431 0.55065 0.68406 0.0
C211 C 0.50487 0.69263 0.65146 0.0
C212 C 0.5558 0.51327 0.5129 0.0
O213 O 0.5259 0.62901 0.51189 0.0
O214 O 0.53771 0.64677 0.43694 0.0
O215 O 0.96489 0.54944 0.02438 0.0
Mn216 Mn 0.03615 0.60125 0.03015 0.0
O217 O 0.95755 0.5168 0.95009 0.0
Mn218 Mn 0.99598 0.5799 0.93686 0.0
O219 O 0.10605 0.65213 0.04423 0.0
O220 O 1.01084 0.61852 0.10072 0.0
Mn221 Mn 0.05809 0.58339 0.1185 0.0
O222 O 0.06672 0.53317 0.04668 0.0
O223 O 0.12533 0.60756 0.1044 0.0
O224 O 1.00785 0.66791 1.00718 0.0
O225 O 0.9667 0.63675 0.93862 0.0
O226 O 0.04858 0.61181 0.17427 0.0
O227 O 0.03539 0.51318 0.11608 0.0
C228 C 0.06558 0.58044 0.91174 0.0
C229 C 0.94551 0.5131 0.99344 0.0
C230 C 0.13801 0.644 0.07611 0.0
C231 C 1.01482 0.62764 0.14851 0.0
C232 C 0.0552 0.49905 0.07912 0.0
C233 C 0.98032 0.67366 0.96968 0.0
O234 O 0.06075 0.5873 0.95918 0.0
O235 O 0.02674 0.57728 0.88266 0.0
C236 C 0.10331 0.15475 0.31038 0.0
C237 C 0.15601 0.15845 0.31242 0.0
C238 C 0.07249 0.13549 0.34869 0.0
C239 C 0.0926 0.11967 0.39167 0.0
H240 H 0.08529 0.16523 0.27805 0.0
H241 H 0.03197 0.13162 0.34399 0.0
S242 S 0.22871 0.12529 0.41775 0.0
N243 N 0.22744 0.14731 0.36279 0.0
N244 N 0.16937 0.11156 0.43479 0.0
C245 C 0.14547 0.12522 0.39531 0.0
C246 C 0.17706 0.14424 0.35577 0.0
C247 C 0.48046 0.98818 0.85898 0.0
C248 C 0.43528 0.95164 0.84653 0.0
C249 C 0.49199 0.00795 0.9072 0.0
C250 C 0.45909 0.99181 0.94506 0.0
H251 H 0.50759 1.00076 0.83144 0.0
H252 H 0.52832 0.03363 0.91541 0.0
S253 S 0.33644 0.8968 0.93244 0.0
N254 N 0.35736 0.90073 0.87688 0.0
N255 N 0.37955 0.93723 0.96655 0.0
C256 C 0.41343 0.95642 0.93285 0.0
C257 C 0.40142 0.93659 0.88399 0.0
C258 C 0.59468 0.46154 0.74848 0.0
C259 C 0.63931 0.49628 0.76473 0.0
C260 C 0.56337 0.47565 0.71283 0.0
C261 C 0.57606 0.5246 0.69258 0.0
H262 H 0.58023 0.42702 0.76803 0.0
H263 H 0.52587 0.45146 0.70628 0.0
S264 S 0.6967 0.62095 0.7116 0.0
N265 N 0.70117 0.57476 0.74893 0.0
N266 N 0.64141 0.6017 0.68256 0.0
C267 C 0.62473 0.55491 0.70193 0.0
C268 C 0.65677 0.54052 0.73809 0.0
C269 C 0.89936 0.60619 0.21955 0.0
C270 C 0.91956 0.63076 0.26429 0.0
C271 C 0.92712 0.61287 0.17698 0.0
C272 C 0.97573 0.64502 0.17746 0.0
H273 H 0.86376 0.57799 0.21818 0.0
H274 H 0.91319 0.58776 0.14546 0.0
S275 S 0.04037 0.72904 0.28057 0.0
N276 N 0.98779 0.6962 0.30314 0.0
N277 N 0.03791 0.71038 0.22281 0.0
C278 C 0.99234 0.67635 0.21951 0.0
C279 C 0.96497 0.66865 0.26315 0.0
C280 C 0.32893 0.12925 0.22193 0.0
C281 C 0.29133 0.14016 0.19027 0.0
C282 C 0.37246 0.11392 0.20436 0.0
C283 C 0.38002 0.10757 0.15439 0.0
H284 H 0.3266 0.13625 0.26053 0.0
H285 H 0.40225 0.11065 0.2301 0.0
S286 S 0.29035 0.12447 0.05623 0.0
N287 N 0.26263 0.13809 0.10621 0.0
N288 N 0.34405 0.1096 0.07378 0.0
C289 C 0.34108 0.11464 0.12257 0.0
C290 C 0.29698 0.13072 0.1403 0.0
C291 C 0.23319 0.99537 0.63883 0.0
C292 C 0.21934 0.94156 0.62862 0.0
C293 C 0.20608 0.02912 0.6184 0.0
C294 C 0.16322 0.01057 0.58752 0.0
H295 H 0.26268 0.01142 0.66572 0.0
H296 H 0.21661 0.06975 0.63015 0.0
S297 S 0.12002 0.87481 0.53888 0.0
N298 N 0.16718 0.87262 0.57713 0.0
N299 N 0.11467 0.93601 0.54026 0.0
C300 C 0.15265 0.95772 0.57249 0.0
C301 C 0.18089 0.92323 0.59288 0.0
C302 C 0.81208 0.45334 1.02182 0.0
C303 C 0.80417 0.40692 0.99298 0.0
C304 C 0.86042 0.48561 0.0277 0.0
C305 C 0.90167 0.47224 1.00444 0.0
H306 H 0.77996 0.46763 0.03498 0.0
H307 H 0.86422 0.5236 0.04556 0.0
S308 S 0.90252 0.34891 0.936 0.0
N309 N 0.84267 0.34454 0.94957 0.0
N310 N 0.93368 0.4052 0.96035 0.0
C311 C 0.89533 0.42264 0.98162 0.0
C312 C 0.84633 0.38974 0.97606 0.0
C313 C 0.77281 0.71899 0.54315 0.0
C314 C 0.79785 0.67739 0.54226 0.0
C315 C 0.72211 0.71181 0.55626 0.0
C316 C 0.69489 0.66301 0.56928 0.0
H317 H 0.79069 0.75586 0.52898 0.0
H318 H 0.70248 0.74293 0.5507 0.0
S319 S 0.74621 0.54491 0.58255 0.0
N320 N 0.79427 0.58831 0.56336 0.0
N321 N 0.69877 0.57488 0.58759 0.0
C322 C 0.72134 0.62314 0.5744 0.0
C323 C 0.77286 0.63023 0.56071 0.0
C324 C 0.16361 0.42913 0.09128 0.0
C325 C 0.14543 0.38983 0.12385 0.0
C326 C 0.133 0.46162 0.07341 0.0
C327 C 0.08197 0.45527 0.08526 0.0
H328 H 0.20315 0.43749 0.08215 0.0
H329 H 0.15076 0.495 0.05401 0.0
S330 S 1.01281 0.35411 0.16325 0.0
N331 N 0.07102 0.34411 0.16368 0.0
N332 N 1.01303 0.40301 0.12784 0.0
C333 C 0.06193 0.41323 0.11416 0.0
C334 C 0.09349 0.38085 0.13354 0.0
C335 C 0.59015 0.27336 0.95737 0.0
C336 C 0.64234 0.2739 0.95595 0.0
C337 C 0.55742 0.23657 0.98318 0.0
C338 C 0.57563 0.19984 1.00974 0.0
H339 H 0.5749 0.30466 0.94335 0.0
H340 H 0.51906 0.24158 0.98788 0.0
S341 S 0.70498 0.17489 1.00716 0.0
N342 N 0.70701 0.22447 0.97223 0.0
N343 N 0.64652 0.15999 0.02636 0.0
C344 C 0.62564 0.19513 1.00332 0.0
C345 C 0.65876 0.23122 0.97514 0.0
C346 C 0.96737 0.80814 0.44214 0.0
C347 C 0.95812 0.78715 0.48773 0.0
C348 C 0.9809 0.86144 0.43739 0.0
C349 C 0.98405 0.89642 0.47765 0.0
H350 H 0.95911 0.7842 0.40907 0.0
H351 H 0.98373 0.87527 0.40101 0.0
S352 S 0.98723 0.86108 0.60541 0.0
N353 N 0.97133 0.8048 0.57459 0.0
N354 N 0.9934 0.90652 0.56519 0.0
C355 C 0.98365 0.87639 0.52378 0.0
C356 C 0.9712 0.8213 0.52882 0.0
C357 C 0.49683 0.80847 0.73329 0.0
C358 C 0.47436 0.83951 0.70334 0.0
C359 C 0.51203 0.76423 0.71459 0.0
C360 C 0.5049 0.74811 0.66511 0.0
H361 H 0.49882 0.81551 0.77215 0.0
H362 H 0.52587 0.74003 0.74009 0.0
S363 S 0.46039 0.82282 0.5691 0.0
N364 N 0.45646 0.85715 0.61959 0.0
N365 N 0.48235 0.77203 0.58525 0.0
C366 C 0.48814 0.78183 0.63381 0.0
C367 C 0.47343 0.82779 0.65276 0.0
C368 C 0.93096 0.92 0.71868 0.0
C369 C 0.94127 0.93827 0.76751 0.0
C370 C 0.94594 0.95256 0.67924 0.0
C371 C 0.97186 0.00489 0.68666 0.0
H372 H 0.91019 0.88055 0.71089 0.0
H373 H 0.9369 0.93677 0.64275 0.0
S374 S 0.99895 0.07378 0.80834 0.0
N375 N 0.97333 0.01345 0.82063 0.0
N376 N 1.00024 0.0743 0.74887 0.0
C377 C 0.97942 0.02384 0.73585 0.0
C378 C 0.9647 0.99077 0.77536 0.0
C379 C 0.60646 0.12041 0.32067 0.0
C380 C 0.65758 0.14701 0.32602 0.0
C381 C 0.58223 0.10856 0.27469 0.0
C382 C 0.60803 0.12325 0.23225 0.0
H383 H 0.5845 0.11021 0.35243 0.0
H384 H 0.54222 0.09069 0.27253 0.0
S385 S 0.7424 0.19145 0.22581 0.0
N386 N 0.73355 0.18522 0.2843 0.0
N387 N 0.68778 0.16414 0.19834 0.0
C388 C 0.6595 0.14801 0.23696 0.0
C389 C 0.68437 0.15943 0.28365 0.0
C390 C 0.37438 0.6572 0.45571 0.0
C391 C 0.37856 0.70667 0.43654 0.0
C392 C 0.41725 0.64046 0.4728 0.0
C393 C 0.46572 0.67259 0.47138 0.0
H394 H 0.33818 0.62997 0.45488 0.0
H395 H 0.4128 0.60083 0.48365 0.0
S396 S 0.49677 0.80794 0.43221 0.0
N397 N 0.4348 0.78979 0.42353 0.0
N398 N 0.51524 0.75743 0.45397 0.0
C399 C 0.47011 0.72305 0.45535 0.0
C400 C 0.42659 0.74035 0.4384 0.0
C401 C 0.13416 0.53948 0.8085 0.0
C402 C 0.15645 0.50128 0.82849 0.0
C403 C 0.11319 0.57306 0.83795 0.0
C404 C 0.11072 0.56792 0.88843 0.0
H405 H 0.12791 0.54057 0.76989 0.0
H406 H 0.0926 0.59845 0.82022 0.0
S407 S 0.18374 0.49158 0.95934 0.0
N408 N 0.19231 0.4751 0.90255 0.0
N409 N 0.14639 0.53356 0.95788 0.0
C410 C 0.14032 0.53663 0.9094 0.0
C411 C 0.16437 0.50417 0.8793 0.0
C412 C 0.72593 0.97113 1.0061 0.0
C413 C 0.72158 0.98196 0.9571 0.0
C414 C 0.69601 0.98954 0.04092 0.0
C415 C 0.66062 0.01943 0.02809 0.0
H416 H 0.74851 0.94394 1.01679 0.0
H417 H 0.69669 0.97566 0.07717 0.0
S418 S 0.64197 0.0661 0.90588 0.0
N419 N 0.68572 0.03161 0.89899 0.0
N420 N 0.62794 0.06386 0.96359 0.0
C421 C 0.66031 0.03524 0.98024 0.0
C422 C 0.69115 0.01703 0.94498 0.0
C423 C 0.83617 0.16144 0.42936 0.0
C424 C 0.79303 0.15373 0.45785 0.0
C425 C 0.87959 0.1436 0.44316 0.0
C426 C 0.88215 0.11717 0.4861 0.0
H427 H 0.83585 0.1801 0.39527 0.0
H428 H 0.91052 0.1478 0.41842 0.0
S429 S 0.78047 0.08792 0.57449 0.0
N430 N 0.75655 0.11915 0.53237 0.0
N431 N 0.83807 0.08525 0.55761 0.0
C432 C 0.8403 0.11105 0.51603 0.0
C433 C 0.79589 0.12946 0.50212 0.0
C434 C 0.25323 0.69633 0.15249 0.0
C435 C 0.24621 0.74603 0.16601 0.0
C436 C 0.22276 0.66587 0.11595 0.0
C437 C 0.1833 0.68352 0.09239 0.0
H438 H 0.28084 0.67991 0.17189 0.0
H439 H 0.22661 0.62612 0.10966 0.0
S440 S 0.15499 0.81422 0.10962 0.0
N441 N 0.20221 0.81462 0.14863 0.0
N442 N 0.14353 0.75658 0.08095 0.0
C443 C 0.17946 0.73518 0.10216 0.0
C444 C 0.21101 0.76651 0.13908 0.0
C445 C 0.29925 0.45658 0.55893 0.0
C446 C 0.26003 0.48045 0.57387 0.0
C447 C 0.34955 0.4848 0.55954 0.0
C448 C 0.3616 0.53748 0.57486 0.0
H449 H 0.29189 0.41492 0.55191 0.0
H450 H 0.37946 0.46409 0.5531 0.0
S451 S 0.27151 0.61986 0.6071 0.0
N452 N 0.23558 0.5613 0.59627 0.0
N453 N 0.33015 0.61419 0.59751 0.0
C454 C 0.32213 0.56294 0.58401 0.0
C455 C 0.27115 0.53439 0.58342 0.0
C456 C 0.89997 0.76179 0.9172 0.0
C457 C 0.93512 0.80679 0.9046 0.0
C458 C 0.91465 0.72152 0.94223 0.0
C459 C 0.9653 0.72372 0.95722 0.0
H460 H 0.86049 0.75662 0.90615 0.0
H461 H 0.88603 0.68697 0.94819 0.0
S462 S 0.07302 0.83285 0.93517 0.0
N463 N 0.02369 0.85117 0.91078 0.0
N464 N 0.05101 0.77551 0.95746 0.0
C465 C 1.00091 0.76888 0.94607 0.0
C466 C 0.986 0.81006 0.91992 0.0
C467 C 0.36965 0.92997 0.20187 0.0
C468 C 0.3791 0.89261 0.23386 0.0
C469 C 0.40861 0.95799 0.17479 0.0
C470 C 0.45792 0.94966 0.1795 0.0
H471 H 0.3311 0.93283 0.19334 0.0
H472 H 0.39853 0.98018 0.14549 0.0
S473 S 0.50509 0.8688 0.26832 0.0
N474 N 0.44351 0.85804 0.27623 0.0
N475 N 0.51652 0.91171 0.22602 0.0
C476 C 0.46923 0.91978 0.21729 0.0
C477 C 0.42972 0.89085 0.24449 0.0
C478 C 0.14025 0.29225 0.53474 0.0
C479 C 0.11303 0.32719 0.55512 0.0
C480 C 0.11899 0.23877 0.53106 0.0
C481 C 0.07078 0.21908 0.549 0.0
H482 H 0.18022 0.30499 0.52822 0.0
H483 H 0.14376 0.21255 0.52265 0.0
S484 S 0.97793 0.296 0.58648 0.0
N485 N 0.03018 0.33982 0.57789 0.0
N486 N 0.99134 0.23903 0.57288 0.0
C487 C 0.03996 0.25427 0.55922 0.0
C488 C 0.06112 0.30868 0.56231 0.0
C489 C 0.57116 0.37713 0.47115 0.0
C490 C 0.59556 0.36119 0.5115 0.0
C491 C 0.55799 0.42619 0.47163 0.0
C492 C 0.56799 0.46065 0.51276 0.0
H493 H 0.56111 0.35108 0.43954 0.0
H494 H 0.5391 0.43686 0.43992 0.0
S495 S 0.63851 0.44037 0.62436 0.0
N496 N 0.63441 0.38627 0.59114 0.0
N497 N 0.60884 0.47705 0.59259 0.0
C498 C 0.59401 0.44565 0.55246 0.0
C499 C 0.608 0.3964 0.55166 0.0
loop_
_geom_bond_atom_site_label_1
_geom_bond_atom_site_label_2
_geom_bond_distance
_geom_bond_site_symmetry_2
_ccdc_geom_bond_type
H0 C1 0.949 . S
C1 H0 0.949 . S
C1 C2 1.395 . S
C1 C3 1.391 . S
C2 C1 1.395 . S
C2 C5 1.390 . S
C3 C1 1.391 . S
C3 C7 1.387 . S
C3 C8 1.491 . S
H4 C5 0.950 . S
C5 C2 1.390 . S
C5 H4 0.950 . S
C5 C6 1.378 . S
C6 C5 1.378 . S
C6 C7 1.409 . S
C7 C3 1.387 . S
C7 C6 1.409 . S
C7 H9 0.951 . S
C8 C3 1.491 . S
C8 C10 1.382 . S
C8 C12 1.404 . S
H9 C7 0.951 . S
C10 C8 1.382 . S
C10 C11 1.390 . S
C10 H15 0.949 . S
C11 C10 1.390 . S
C11 C16 1.399 . S
C12 C8 1.404 . S
C12 H13 0.950 . S
C12 C14 1.375 . S
H13 C12 0.950 . S
C14 C12 1.375 . S
C14 C16 1.382 . S
C14 H18 0.950 . S
H15 C10 0.949 . S
C16 C11 1.399 . S
C16 C14 1.382 . S
C16 H17 0.952 . S
H17 C16 0.952 . S
H18 C14 0.950 . S
H19 C20 0.949 . S
C20 H19 0.949 . S
C20 C21 1.395 . S
C20 C22 1.391 . S
C21 C20 1.395 . S
C21 C24 1.390 . S
C22 C20 1.391 . S
C22 C26 1.387 . S
C22 C27 1.491 . S
H23 C24 0.950 . S
C24 C21 1.390 . S
C24 H23 0.950 . S
C24 C25 1.378 . S
C25 C24 1.378 . S
C25 C26 1.409 . S
C26 C22 1.387 . S
C26 C25 1.409 . S
C26 H28 0.951 . S
C27 C22 1.491 . S
C27 C29 1.382 . S
C27 C31 1.404 . S
H28 C26 0.951 . S
C29 C27 1.382 . S
C29 C30 1.390 . S
C29 H34 0.949 1_565 S
C30 C29 1.390 . S
C30 C35 1.399 . S
C31 C27 1.404 . S
C31 H32 0.950 . S
C31 C33 1.375 . S
H32 C31 0.950 . S
C33 C31 1.375 . S
C33 C35 1.382 . S
C33 H37 0.950 . S
H34 C29 0.949 1_545 S
C35 C30 1.399 . S
C35 C33 1.382 . S
C35 H36 0.952 . S
H36 C35 0.952 . S
H37 C33 0.950 . S
H38 C39 0.949 . S
C39 H38 0.949 . S
C39 C40 1.395 . S
C39 C41 1.391 . S
C40 C39 1.395 . S
C40 C43 1.390 . S
C41 C39 1.391 . S
C41 C45 1.387 . S
C41 C46 1.491 . S
H42 C43 0.955 . S
C43 C40 1.390 . S
C43 H42 0.955 . S
C43 C44 1.378 . S
C44 C43 1.378 . S
C44 C45 1.409 . S
C45 C41 1.387 . S
C45 C44 1.409 . S
C45 H47 0.951 . S
C46 C41 1.491 . S
C46 C48 1.382 . S
C46 C50 1.404 . S
H47 C45 0.951 . S
C48 C46 1.382 . S
C48 C49 1.390 . S
C48 H53 0.949 . S
C49 C48 1.390 . S
C49 C54 1.399 . S
C50 C46 1.404 . S
C50 H51 0.950 . S
C50 C52 1.375 . S
H51 C50 0.950 . S
C52 C50 1.375 . S
C52 C54 1.382 . S
C52 H56 0.950 . S
H53 C48 0.949 . S
C54 C49 1.399 . S
C54 C52 1.382 . S
C54 H55 0.952 . S
H55 C54 0.952 . S
H56 C52 0.950 . S
H57 C58 0.949 . S
C58 H57 0.949 . S
C58 C59 1.395 . S
C58 C60 1.391 . S
C59 C58 1.395 . S
C59 C62 1.390 . S
C60 C58 1.391 . S
C60 C64 1.387 . S
C60 C65 1.491 . S
H61 C62 0.950 . S
C62 C59 1.390 . S
C62 H61 0.950 . S
C62 C63 1.378 . S
C63 C62 1.378 . S
C63 C64 1.409 . S
C64 C60 1.387 . S
C64 C63 1.409 . S
C64 H66 0.951 . S
C65 C60 1.491 . S
C65 C67 1.382 . S
C65 C69 1.404 . S
H66 C64 0.951 . S
C67 C65 1.382 . S
C67 C68 1.390 . S
C67 H72 0.949 . S
C68 C67 1.390 . S
C68 C73 1.399 . S
C69 C65 1.404 . S
C69 H70 0.950 . S
C69 C71 1.375 . S
H70 C69 0.950 . S
C71 C69 1.375 . S
C71 C73 1.382 . S
C71 H75 0.950 . S
H72 C67 0.949 . S
C73 C68 1.399 . S
C73 C71 1.382 . S
C73 H74 0.952 . S
H74 C73 0.952 . S
H75 C71 0.950 . S
H76 C77 0.949 . S
C77 H76 0.949 . S
C77 C78 1.395 . S
C77 C79 1.391 . S
C78 C77 1.395 . S
C78 C81 1.390 . S
C79 C77 1.391 . S
C79 C83 1.387 . S
C79 C84 1.491 . S
H80 C81 0.950 . S
C81 C78 1.390 . S
C81 H80 0.950 . S
C81 C82 1.378 . S
C82 C81 1.378 . S
C82 C83 1.409 . S
C83 C79 1.387 . S
C83 C82 1.409 . S
C83 H85 0.951 . S
C84 C79 1.491 . S
C84 C86 1.382 . S
C84 C88 1.404 . S
H85 C83 0.951 . S
C86 C84 1.382 . S
C86 C87 1.390 . S
C86 H91 0.949 . S
C87 C86 1.390 . S
C87 C92 1.399 . S
C88 C84 1.404 . S
C88 H89 0.950 . S
C88 C90 1.375 . S
H89 C88 0.950 . S
C90 C88 1.375 . S
C90 C92 1.382 . S
C90 H94 0.950 . S
H91 C86 0.949 . S
C92 C87 1.399 . S
C92 C90 1.382 . S
C92 H93 0.952 . S
H93 C92 0.952 . S
H94 C90 0.950 . S
H95 C96 0.949 . S
C96 H95 0.949 . S
C96 C97 1.395 . S
C96 C98 1.391 . S
C97 C96 1.395 . S
C97 C100 1.390 . S
C98 C96 1.391 . S
C98 C102 1.387 . S
C98 C103 1.491 . S
H99 C100 0.950 . S
C100 C97 1.390 . S
C100 H99 0.950 . S
C100 C101 1.378 . S
C101 C100 1.378 . S
C101 C102 1.409 . S
C102 C98 1.387 . S
C102 C101 1.409 . S
C102 H104 0.951 . S
C103 C98 1.491 . S
C103 C105 1.382 . S
C103 C107 1.404 . S
H104 C102 0.951 . S
C105 C103 1.382 . S
C105 C106 1.390 . S
C105 H110 0.949 . S
C106 C105 1.390 . S
C106 C111 1.399 . S
C107 C103 1.404 . S
C107 H108 0.950 . S
C107 C109 1.375 . S
H108 C107 0.950 . S
C109 C107 1.375 . S
C109 C111 1.382 . S
C109 H113 0.950 . S
H110 C105 0.949 . S
C111 C106 1.399 . S
C111 C109 1.382 . S
C111 H112 0.952 . S
H112 C111 0.952 . S
H113 C109 0.950 . S
H114 C115 0.949 . S
C115 H114 0.949 . S
C115 C116 1.395 . S
C115 C117 1.391 . S
C116 C115 1.395 . S
C116 C119 1.390 . S
C117 C115 1.391 . S
C117 C121 1.387 . S
C117 C122 1.491 . S
H118 C119 0.950 . S
C119 C116 1.390 . S
C119 H118 0.950 . S
C119 C120 1.378 . S
C120 C119 1.378 . S
C120 C121 1.409 . S
C121 C117 1.387 . S
C121 C120 1.409 . S
C121 H123 0.951 . S
C122 C117 1.491 . S
C122 C124 1.382 . S
C122 C126 1.404 . S
H123 C121 0.951 . S
C124 C122 1.382 . S
C124 C125 1.390 . S
C124 H129 0.949 . S
C125 C124 1.390 . S
C125 C130 1.399 . S
C126 C122 1.404 . S
C126 H127 0.950 . S
C126 C128 1.375 . S
H127 C126 0.950 . S
C128 C126 1.375 . S
C128 C130 1.382 . S
C128 H132 0.950 . S
H129 C124 0.949 . S
C130 C125 1.399 . S
C130 C128 1.382 . S
C130 H131 0.952 . S
H131 C130 0.952 . S
H132 C128 0.950 . S
H133 C134 0.949 . S
C134 H133 0.949 . S
C134 C135 1.395 . S
C134 C136 1.391 . S
C135 C134 1.395 . S
C135 C138 1.390 . S
C136 C134 1.391 . S
C136 C140 1.387 . S
C136 C141 1.491 . S
H137 C138 0.950 . S
C138 C135 1.390 . S
C138 H137 0.950 . S
C138 C139 1.378 . S
C139 C138 1.378 . S
C139 C140 1.409 . S
C140 C136 1.387 . S
C140 C139 1.409 . S
C140 H142 0.951 . S
C141 C136 1.491 . S
C141 C143 1.382 . S
C141 C145 1.404 . S
H142 C140 0.951 . S
C143 C141 1.382 . S
C143 C144 1.390 . S
C143 H148 0.949 . S
C144 C143 1.390 . S
C144 C149 1.399 . S
C145 C141 1.404 . S
C145 H146 0.950 . S
C145 C147 1.375 . S
H146 C145 0.950 . S
C147 C145 1.375 . S
C147 C149 1.382 . S
C147 H151 0.950 . S
H148 C143 0.949 . S
C149 C144 1.399 . S
C149 C147 1.382 . S
C149 H150 0.952 . S
H150 C149 0.952 . S
H151 C147 0.950 . S
O152 Mn153 2.163 1_655 S
O152 C166 1.244 . S
Mn153 O152 2.163 1_455 S
Mn153 O156 2.160 . S
Mn153 O157 2.221 . S
Mn153 O159 2.163 1_455 S
Mn153 O161 2.160 . S
Mn153 O171 2.221 1_445 S
O154 Mn155 2.087 1_545 S
O154 C166 1.256 . S
Mn155 O154 2.087 1_565 S
Mn155 O162 2.089 1_565 S
Mn155 O171 2.290 . S
Mn155 O172 2.251 . S
O156 Mn153 2.160 . S
O156 C167 1.239 . S
O157 Mn153 2.221 . S
O157 Mn158 2.290 . S
O157 C168 1.278 . S
Mn158 O157 2.290 . S
Mn158 O160 2.089 . S
Mn158 O163 2.251 . S
Mn158 O164 2.087 . S
O159 Mn153 2.163 1_655 S
O159 C169 1.244 . S
O160 Mn158 2.089 . S
O160 C167 1.256 . S
O161 Mn153 2.160 . S
O161 C170 1.239 . S
O162 Mn155 2.089 1_545 S
O162 C170 1.256 1_655 S
O163 Mn158 2.251 . S
O163 C168 1.241 . S
O164 Mn158 2.087 . S
O164 C169 1.256 1_455 S
C165 O171 1.278 . S
C165 O172 1.241 . S
C166 O152 1.244 . S
C166 O154 1.256 . S
C167 O156 1.239 . S
C167 O160 1.256 . S
C168 O157 1.278 . S
C168 O163 1.241 . S
C169 O159 1.244 . S
C169 O164 1.256 1_655 S
C170 O161 1.239 . S
C170 O162 1.256 1_455 S
O171 Mn153 2.221 1_665 S
O171 Mn155 2.290 . S
O171 C165 1.278 . S
O172 Mn155 2.251 . S
O172 C165 1.241 . S
O173 Mn174 2.163 1_556 S
O173 C187 1.244 . S
Mn174 O173 2.163 1_554 S
Mn174 O177 2.160 . S
Mn174 O178 2.221 . S
Mn174 O180 2.163 . S
Mn174 O182 2.160 . S
Mn174 O192 2.221 1_545 S
O175 Mn176 2.087 1_556 S
O175 C187 1.256 1_565 S
Mn176 O175 2.087 1_554 S
Mn176 O183 2.089 . S
Mn176 O192 2.290 . S
Mn176 O193 2.251 . S
O177 Mn174 2.160 . S
O177 C188 1.239 . S
O178 Mn174 2.221 . S
O178 Mn179 2.290 . S
O178 C189 1.278 . S
Mn179 O178 2.290 . S
Mn179 O181 2.089 . S
Mn179 O184 2.251 . S
Mn179 O185 2.087 . S
O180 Mn174 2.163 . S
O180 C190 1.244 . S
O181 Mn179 2.089 . S
O181 C188 1.256 . S
O182 Mn174 2.160 . S
O182 C191 1.239 . S
O183 Mn176 2.089 . S
O183 C191 1.256 1_565 S
O184 Mn179 2.251 . S
O184 C189 1.241 . S
O185 Mn179 2.087 . S
O185 C190 1.256 . S
C186 O192 1.278 . S
C186 O193 1.241 . S
C187 O173 1.244 . S
C187 O175 1.256 1_545 S
C188 O177 1.239 . S
C188 O181 1.256 . S
C189 O178 1.278 . S
C189 O184 1.241 . S
C190 O180 1.244 . S
C190 O185 1.256 . S
C191 O182 1.239 . S
C191 O183 1.256 1_545 S
O192 Mn174 2.221 1_565 S
O192 Mn176 2.290 . S
O192 C186 1.278 . S
O193 Mn176 2.251 . S
O193 C186 1.241 . S
O194 Mn195 2.163 . S
O194 C208 1.244 . S
Mn195 O194 2.163 . S
Mn195 O198 2.160 . S
Mn195 O199 2.221 . S
Mn195 O201 2.163 . S
Mn195 O203 2.160 . S
Mn195 O213 2.221 . S
O196 Mn197 2.087 . S
O196 C208 1.256 . S
Mn197 O196 2.087 . S
Mn197 O204 2.089 . S
Mn197 O213 2.290 . S
Mn197 O214 2.251 . S
O198 Mn195 2.160 . S
O198 C209 1.239 . S
O199 Mn195 2.221 . S
O199 Mn200 2.290 . S
O199 C210 1.278 . S
Mn200 O199 2.290 . S
Mn200 O202 2.089 . S
Mn200 O205 2.251 . S
Mn200 O206 2.087 . S
O201 Mn195 2.163 . S
O201 C211 1.244 . S
O202 Mn200 2.089 . S
O202 C209 1.256 . S
O203 Mn195 2.160 . S
O203 C212 1.239 . S
O204 Mn197 2.089 . S
O204 C212 1.256 . S
O205 Mn200 2.251 . S
O205 C210 1.241 . S
O206 Mn200 2.087 . S
O206 C211 1.256 . S
C207 O213 1.278 . S
C207 O214 1.241 . S
C208 O194 1.244 . S
C208 O196 1.256 . S
C209 O198 1.239 . S
C209 O202 1.256 . S
C210 O199 1.278 . S
C210 O205 1.241 . S
C211 O201 1.244 . S
C211 O206 1.256 . S
C212 O203 1.239 . S
C212 O204 1.256 . S
O213 Mn195 2.221 . S
O213 Mn197 2.290 . S
O213 C207 1.278 . S
O214 Mn197 2.251 . S
O214 C207 1.241 . S
O215 Mn216 2.163 1_655 S
O215 C229 1.244 1_554 S
Mn216 O215 2.163 1_455 S
Mn216 O219 2.160 . S
Mn216 O220 2.221 . S
Mn216 O222 2.163 . S
Mn216 O224 2.160 . S
Mn216 O234 2.221 1_554 S
O217 Mn218 2.087 . S
O217 C229 1.256 . S
Mn218 O217 2.087 . S
Mn218 O225 2.089 . S
Mn218 O234 2.290 1_655 S
Mn218 O235 2.251 1_655 S
O219 Mn216 2.160 . S
O219 C230 1.239 . S
O220 Mn216 2.221 . S
O220 Mn221 2.290 . S
O220 C231 1.278 1_455 S
Mn221 O220 2.290 . S
Mn221 O223 2.089 . S
Mn221 O226 2.251 1_455 S
Mn221 O227 2.087 . S
O222 Mn216 2.163 . S
O222 C232 1.244 . S
O223 Mn221 2.089 . S
O223 C230 1.256 . S
O224 Mn216 2.160 . S
O224 C233 1.239 1_454 S
O225 Mn218 2.089 . S
O225 C233 1.256 . S
O226 Mn221 2.251 1_655 S
O226 C231 1.241 . S
O227 Mn221 2.087 . S
O227 C232 1.256 . S
C228 O234 1.278 . S
C228 O235 1.241 . S
C229 O215 1.244 1_556 S
C229 O217 1.256 . S
C230 O219 1.239 . S
C230 O223 1.256 . S
C231 O220 1.278 1_655 S
C231 O226 1.241 . S
C232 O222 1.244 . S
C232 O227 1.256 . S
C233 O224 1.239 1_656 S
C233 O225 1.256 . S
O234 Mn216 2.221 1_556 S
O234 Mn218 2.290 1_455 S
O234 C228 1.278 . S
O235 Mn218 2.251 1_455 S
O235 C228 1.241 . S
C236 C237 1.369 . S
C236 C238 1.419 . S
C236 H240 0.930 . S
C237 C236 1.369 . S
C237 C246 1.429 . S
C238 C236 1.419 . S
C238 C239 1.363 . S
C238 H241 0.929 . S
C239 C238 1.363 . S
C239 C245 1.428 . S
H240 C236 0.930 . S
H241 C238 0.929 . S
S242 N243 1.613 . S
S242 N244 1.610 . S
N243 S242 1.613 . S
N243 C246 1.350 . S
N244 S242 1.610 . S
N244 C245 1.351 . S
C245 C239 1.428 . S
C245 N244 1.351 . S
C245 C246 1.434 . S
C246 C237 1.429 . S
C246 N243 1.350 . S
C246 C245 1.434 . S
C247 C248 1.369 . S
C247 C249 1.419 . S
C247 H251 0.930 . S
C248 C247 1.369 . S
C248 C257 1.429 . S
C249 C247 1.419 . S
C249 C250 1.363 . S
C249 H252 0.929 1_565 S
C250 C249 1.363 . S
C250 C256 1.428 . S
H251 C247 0.930 . S
H252 C249 0.929 1_545 S
S253 N254 1.613 . S
S253 N255 1.610 . S
N254 S253 1.613 . S
N254 C257 1.350 . S
N255 S253 1.610 . S
N255 C256 1.351 . S
C256 C250 1.428 . S
C256 N255 1.351 . S
C256 C257 1.434 . S
C257 C248 1.429 . S
C257 N254 1.350 . S
C257 C256 1.434 . S
C258 C259 1.369 . S
C258 C260 1.419 . S
C258 H262 0.930 . S
C259 C258 1.369 . S
C259 C268 1.429 . S
C260 C258 1.419 . S
C260 C261 1.363 . S
C260 H263 0.929 . S
C261 C260 1.363 . S
C261 C267 1.428 . S
H262 C258 0.930 . S
H263 C260 0.929 . S
S264 N265 1.613 . S
S264 N266 1.610 . S
N265 S264 1.613 . S
N265 C268 1.350 . S
N266 S264 1.610 . S
N266 C267 1.351 . S
C267 C261 1.428 . S
C267 N266 1.351 . S
C267 C268 1.434 . S
C268 C259 1.429 . S
C268 N265 1.350 . S
C268 C267 1.434 . S
C269 C270 1.369 . S
C269 C271 1.419 . S
C269 H273 0.930 . S
C270 C269 1.369 . S
C270 C279 1.429 . S
C271 C269 1.419 . S
C271 C272 1.363 . S
C271 H274 0.929 . S
C272 C271 1.363 . S
C272 C278 1.428 . S
H273 C269 0.930 . S
H274 C271 0.929 . S
S275 N276 1.610 1_455 S
S275 N277 1.610 . S
N276 S275 1.610 1_655 S
N276 C279 1.353 . S
N277 S275 1.610 . S
N277 C278 1.351 1_455 S
C278 C272 1.428 . S
C278 N277 1.351 1_655 S
C278 C279 1.434 . S
C279 C270 1.429 . S
C279 N276 1.353 . S
C279 C278 1.434 . S
C280 C281 1.369 . S
C280 C282 1.419 . S
C280 H284 0.930 . S
C281 C280 1.369 . S
C281 C290 1.429 . S
C282 C280 1.419 . S
C282 C283 1.363 . S
C282 H285 0.929 . S
C283 C282 1.363 . S
C283 C289 1.428 . S
H284 C280 0.930 . S
H285 C282 0.929 . S
S286 N287 1.613 . S
S286 N288 1.610 . S
N287 S286 1.613 . S
N287 C290 1.350 . S
N288 S286 1.610 . S
N288 C289 1.351 . S
C289 C283 1.428 . S
C289 N288 1.351 . S
C289 C290 1.434 . S
C290 C281 1.429 . S
C290 N287 1.350 . S
C290 C289 1.434 . S
C291 C292 1.369 . S
C291 C293 1.418 . S
C291 H295 0.930 1_545 S
C292 C291 1.369 . S
C292 C301 1.429 . S
C293 C291 1.418 . S
C293 C294 1.363 . S
C293 H296 0.927 . S
C294 C293 1.363 . S
C294 C300 1.428 . S
H295 C291 0.930 1_565 S
H296 C293 0.927 . S
S297 N298 1.613 . S
S297 N299 1.610 . S
N298 S297 1.613 . S
N298 C301 1.350 . S
N299 S297 1.610 . S
N299 C300 1.351 . S
C300 C294 1.428 . S
C300 N299 1.351 . S
C300 C301 1.434 . S
C301 C292 1.429 . S
C301 N298 1.350 . S
C301 C300 1.434 . S
C302 C303 1.369 1_554 S
C302 C304 1.419 . S
C302 H306 0.930 . S
C303 C302 1.369 1_556 S
C303 C312 1.429 . S
C304 C302 1.419 . S
C304 C305 1.363 1_554 S
C304 H307 0.929 . S
C305 C304 1.363 1_556 S
C305 C311 1.428 . S
H306 C302 0.930 . S
H307 C304 0.929 . S
S308 N309 1.613 . S
S308 N310 1.610 . S
N309 S308 1.613 . S
N309 C312 1.350 . S
N310 S308 1.610 . S
N310 C311 1.351 . S
C311 C305 1.428 . S
C311 N310 1.351 . S
C311 C312 1.434 . S
C312 C303 1.429 . S
C312 N309 1.350 . S
C312 C311 1.434 . S
C313 C314 1.369 . S
C313 C315 1.419 . S
C313 H317 0.930 . S
C314 C313 1.369 . S
C314 C323 1.429 . S
C315 C313 1.419 . S
C315 C316 1.363 . S
C315 H318 0.929 . S
C316 C315 1.363 . S
C316 C322 1.428 . S
H317 C313 0.930 . S
H318 C315 0.929 . S
S319 N320 1.613 . S
S319 N321 1.610 . S
N320 S319 1.613 . S
N320 C323 1.350 . S
N321 S319 1.610 . S
N321 C322 1.351 . S
C322 C316 1.428 . S
C322 N321 1.351 . S
C322 C323 1.434 . S
C323 C314 1.429 . S
C323 N320 1.350 . S
C323 C322 1.434 . S
C324 C325 1.369 . S
C324 C326 1.419 . S
C324 H328 0.930 . S
C325 C324 1.369 . S
C325 C334 1.429 . S
C326 C324 1.419 . S
C326 C327 1.363 . S
C326 H329 0.929 . S
C327 C326 1.363 . S
C327 C333 1.428 . S
H328 C324 0.930 . S
H329 C326 0.929 . S
S330 N331 1.613 1_656 S
S330 N332 1.610 1_556 S
N331 S330 1.613 1_454 S
N331 C334 1.350 . S
N332 S330 1.610 1_554 S
N332 C333 1.351 1_655 S
C333 C327 1.428 . S
C333 N332 1.351 1_455 S
C333 C334 1.434 . S
C334 C325 1.429 . S
C334 N331 1.350 . S
C334 C333 1.434 . S
C335 C336 1.369 1_554 S
C335 C337 1.419 . S
C335 H339 0.930 . S
C336 C335 1.369 1_556 S
C336 C345 1.429 . S
C337 C335 1.419 . S
C337 C338 1.356 1_554 S
C337 H340 0.929 . S
C338 C337 1.356 1_556 S
C338 C344 1.441 . S
H339 C335 0.930 . S
H340 C337 0.929 . S
S341 N342 1.613 . S
S341 N343 1.610 . S
N342 S341 1.613 . S
N342 C345 1.350 . S
N343 S341 1.610 . S
N343 C344 1.351 . S
C344 C338 1.441 . S
C344 N343 1.351 . S
C344 C345 1.434 . S
C345 C336 1.429 . S
C345 N342 1.350 . S
C345 C344 1.434 . S
C346 C347 1.369 . S
C346 C348 1.419 . S
C346 H350 0.930 . S
C347 C346 1.369 . S
C347 C356 1.429 . S
C348 C346 1.419 . S
C348 C349 1.363 . S
C348 H351 0.929 . S
C349 C348 1.363 . S
C349 C355 1.428 . S
H350 C346 0.930 . S
H351 C348 0.929 . S
S352 N353 1.613 . S
S352 N354 1.610 . S
N353 S352 1.613 . S
N353 C356 1.350 . S
N354 S352 1.610 . S
N354 C355 1.351 . S
C355 C349 1.428 . S
C355 N354 1.351 . S
C355 C356 1.434 . S
C356 C347 1.429 . S
C356 N353 1.350 . S
C356 C355 1.434 . S
C357 C358 1.369 . S
C357 C359 1.419 . S
C357 H361 0.930 . S
C358 C357 1.369 . S
C358 C367 1.429 . S
C359 C357 1.419 . S
C359 C360 1.363 . S
C359 H362 0.929 . S
C360 C359 1.363 . S
C360 C366 1.428 . S
H361 C357 0.930 . S
H362 C359 0.929 . S
S363 N364 1.613 . S
S363 N365 1.610 . S
N364 S363 1.613 . S
N364 C367 1.350 . S
N365 S363 1.610 . S
N365 C366 1.351 . S
C366 C360 1.428 . S
C366 N365 1.351 . S
C366 C367 1.434 . S
C367 C358 1.429 . S
C367 N364 1.350 . S
C367 C366 1.434 . S
C368 C369 1.369 . S
C368 C370 1.419 . S
C368 H372 0.930 . S
C369 C368 1.369 . S
C369 C378 1.429 1_565 S
C370 C368 1.419 . S
C370 C371 1.363 . S
C370 H373 0.929 . S
C371 C370 1.363 . S
C371 C377 1.428 1_565 S
H372 C368 0.930 . S
H373 C370 0.929 . S
S374 N375 1.613 . S
S374 N376 1.610 . S
N375 S374 1.613 . S
N375 C378 1.350 1_455 S
N376 S374 1.610 . S
N376 C377 1.351 1_455 S
C377 C371 1.428 1_545 S
C377 N376 1.351 1_655 S
C377 C378 1.434 . S
C378 C369 1.429 1_545 S
C378 N375 1.350 1_655 S
C378 C377 1.434 . S
C379 C380 1.369 . S
C379 C381 1.419 . S
C379 H383 0.930 . S
C380 C379 1.369 . S
C380 C389 1.429 . S
C381 C379 1.419 . S
C381 C382 1.363 . S
C381 H384 0.929 . S
C382 C381 1.363 . S
C382 C388 1.428 . S
H383 C379 0.930 . S
H384 C381 0.929 . S
S385 N386 1.613 . S
S385 N387 1.610 . S
N386 S385 1.613 . S
N386 C389 1.350 . S
N387 S385 1.610 . S
N387 C388 1.351 . S
C388 C382 1.428 . S
C388 N387 1.351 . S
C388 C389 1.434 . S
C389 C380 1.429 . S
C389 N386 1.350 . S
C389 C388 1.434 . S
C390 C391 1.369 . S
C390 C392 1.419 . S
C390 H394 0.930 . S
C391 C390 1.369 . S
C391 C400 1.429 . S
C392 C390 1.419 . S
C392 C393 1.363 . S
C392 H395 0.929 . S
C393 C392 1.363 . S
C393 C399 1.428 . S
H394 C390 0.930 . S
H395 C392 0.929 . S
S396 N397 1.613 . S
S396 N398 1.610 . S
N397 S396 1.613 . S
N397 C400 1.350 . S
N398 S396 1.610 . S
N398 C399 1.351 . S
C399 C393 1.428 . S
C399 N398 1.351 . S
C399 C400 1.434 . S
C400 C391 1.429 . S
C400 N397 1.350 . S
C400 C399 1.434 . S
C401 C402 1.369 . S
C401 C403 1.419 . S
C401 H405 0.930 . S
C402 C401 1.369 . S
C402 C411 1.429 . S
C403 C401 1.419 . S
C403 C404 1.363 . S
C403 H406 0.929 . S
C404 C403 1.363 . S
C404 C410 1.428 . S
H405 C401 0.930 . S
H406 C403 0.929 . S
S407 N408 1.613 . S
S407 N409 1.610 . S
N408 S407 1.613 . S
N408 C411 1.350 . S
N409 S407 1.610 . S
N409 C410 1.351 . S
C410 C404 1.428 . S
C410 N409 1.351 . S
C410 C411 1.434 . S
C411 C402 1.429 . S
C411 N408 1.350 . S
C411 C410 1.434 . S
C412 C413 1.369 1_554 S
C412 C414 1.419 . S
C412 H416 0.930 . S
C413 C412 1.369 1_556 S
C413 C422 1.429 1_565 S
C414 C412 1.419 . S
C414 C415 1.363 1_565 S
C414 H417 0.929 . S
C415 C414 1.363 1_545 S
C415 C421 1.428 1_554 S
H416 C412 0.930 . S
H417 C414 0.929 . S
S418 N419 1.613 . S
S418 N420 1.610 . S
N419 S418 1.613 . S
N419 C422 1.350 . S
N420 S418 1.610 . S
N420 C421 1.351 . S
C421 C415 1.428 1_556 S
C421 N420 1.351 . S
C421 C422 1.434 . S
C422 C413 1.429 1_545 S
C422 N419 1.350 . S
C422 C421 1.434 . S
C423 C424 1.369 . S
C423 C425 1.419 . S
C423 H427 0.930 . S
C424 C423 1.369 . S
C424 C433 1.429 . S
C425 C423 1.419 . S
C425 C426 1.363 . S
C425 H428 0.929 . S
C426 C425 1.363 . S
C426 C432 1.428 . S
H427 C423 0.930 . S
H428 C425 0.929 . S
S429 N430 1.613 . S
S429 N431 1.610 . S
N430 S429 1.613 . S
N430 C433 1.350 . S
N431 S429 1.610 . S
N431 C432 1.351 . S
C432 C426 1.428 . S
C432 N431 1.351 . S
C432 C433 1.434 . S
C433 C424 1.429 . S
C433 N430 1.350 . S
C433 C432 1.434 . S
C434 C435 1.369 . S
C434 C436 1.419 . S
C434 H438 0.930 . S
C435 C434 1.369 . S
C435 C444 1.429 . S
C436 C434 1.419 . S
C436 C437 1.363 . S
C436 H439 0.929 . S
C437 C436 1.363 . S
C437 C443 1.428 . S
H438 C434 0.930 . S
H439 C436 0.929 . S
S440 N441 1.613 . S
S440 N442 1.610 . S
N441 S440 1.613 . S
N441 C444 1.350 . S
N442 S440 1.610 . S
N442 C443 1.351 . S
C443 C437 1.428 . S
C443 N442 1.351 . S
C443 C444 1.434 . S
C444 C435 1.429 . S
C444 N441 1.350 . S
C444 C443 1.434 . S
C445 C446 1.369 . S
C445 C447 1.419 . S
C445 H449 0.930 . S
C446 C445 1.369 . S
C446 C455 1.429 . S
C447 C445 1.419 . S
C447 C448 1.363 . S
C447 H450 0.929 . S
C448 C447 1.363 . S
C448 C454 1.428 . S
H449 C445 0.930 . S
H450 C447 0.929 . S
S451 N452 1.613 . S
S451 N453 1.610 . S
N452 S451 1.613 . S
N452 C455 1.350 . S
N453 S451 1.610 . S
N453 C454 1.351 . S
C454 C448 1.428 . S
C454 N453 1.351 . S
C454 C455 1.434 . S
C455 C446 1.429 . S
C455 N452 1.350 . S
C455 C454 1.434 . S
C456 C457 1.369 . S
C456 C458 1.419 . S
C456 H460 0.930 . S
C457 C456 1.369 . S
C457 C466 1.429 . S
C458 C456 1.419 . S
C458 C459 1.363 . S
C458 H461 0.929 . S
C459 C458 1.363 . S
C459 C465 1.428 . S
H460 C456 0.930 . S
H461 C458 0.929 . S
S462 N463 1.613 1_455 S
S462 N464 1.610 . S
N463 S462 1.613 1_655 S
N463 C466 1.350 1_554 S
N464 S462 1.610 . S
N464 C465 1.351 1_454 S
C465 C459 1.428 . S
C465 N464 1.351 1_656 S
C465 C466 1.434 . S
C466 C457 1.429 . S
C466 N463 1.350 1_556 S
C466 C465 1.434 . S
C467 C468 1.369 . S
C467 C469 1.419 . S
C467 H471 0.930 . S
C468 C467 1.369 . S
C468 C477 1.429 . S
C469 C467 1.419 . S
C469 C470 1.363 . S
C469 H472 0.929 . S
C470 C469 1.363 . S
C470 C476 1.428 . S
H471 C467 0.930 . S
H472 C469 0.929 . S
S473 N474 1.613 . S
S473 N475 1.610 . S
N474 S473 1.613 . S
N474 C477 1.350 . S
N475 S473 1.610 . S
N475 C476 1.351 . S
C476 C470 1.428 . S
C476 N475 1.351 . S
C476 C477 1.434 . S
C477 C468 1.429 . S
C477 N474 1.350 . S
C477 C476 1.434 . S
C478 C479 1.369 . S
C478 C480 1.419 . S
C478 H482 0.930 . S
C479 C478 1.369 . S
C479 C488 1.429 . S
C480 C478 1.419 . S
C480 C481 1.363 . S
C480 H483 0.929 . S
C481 C480 1.363 . S
C481 C487 1.428 . S
H482 C478 0.930 . S
H483 C480 0.929 . S
S484 N485 1.613 1_655 S
S484 N486 1.610 . S
N485 S484 1.613 1_455 S
N485 C488 1.350 . S
N486 S484 1.610 . S
N486 C487 1.351 1_655 S
C487 C481 1.428 . S
C487 N486 1.351 1_455 S
C487 C488 1.434 . S
C488 C479 1.429 . S
C488 N485 1.350 . S
C488 C487 1.434 . S
C489 C490 1.369 . S
C489 C491 1.419 . S
C489 H493 0.930 . S
C490 C489 1.369 . S
C490 C499 1.429 . S
C491 C489 1.419 . S
C491 C492 1.363 . S
C491 H494 0.929 . S
C492 C491 1.363 . S
C492 C498 1.428 . S
H493 C489 0.930 . S
H494 C491 0.929 . S
S495 N496 1.613 . S
S495 N497 1.610 . S
N496 S495 1.613 . S
N496 C499 1.350 . S
N497 S495 1.610 . S
N497 C498 1.351 . S
C498 C492 1.428 . S
C498 N497 1.351 . S
C498 C499 1.434 . S
C499 C490 1.429 . S
C499 N496 1.350 . S
C499 C498 1.434 . S
C237 C6 1.841 . S
C239 C170 1.796 . S
C248 C21 1.926 . S
C250 C187 1.893 1_565 S
C261 C210 0.905 . S
C259 C49 1.083 . S
C270 C68 1.426 . S
C272 C231 1.236 . S
C283 C190 2.198 . S
C281 C2 2.271 . S
C294 C167 1.351 . S
C292 C30 1.245 1_545 S
C305 C229 1.267 . S
C303 C40 1.280 . S
C316 C208 1.261 . S
C314 C63 1.353 . S
C325 C11 1.470 . S
C327 C232 1.672 . S
C338 C189 1.405 1_556 S
C336 C44 1.742 . S
C347 C59 1.412 . S
C349 C165 1.286 . S
C358 C25 1.708 . S
C360 C211 1.669 . S
C371 C169 1.886 1_565 S
C369 C82 1.985 . S
C380 C101 1.620 . S
C382 C188 1.626 . S
C391 C125 1.329 . S
C393 C207 1.142 . S
C402 C144 1.136 . S
C404 C228 1.050 . S
C413 C87 1.290 . S
C415 C191 1.442 . S
C426 C166 2.202 . S
C424 C97 2.219 . S
C437 C230 1.112 . S
C435 C120 1.211 . S
C448 C209 1.485 . S
C446 C135 1.474 . S
C457 C78 1.845 . S
C459 C233 1.777 . S
C470 C186 1.012 . S
C468 C116 1.188 . S
C481 C168 1.465 . S
C479 C139 1.614 . S
C490 C106 1.393 . S
C492 C212 1.544 . S
