# Generated by pormake.
# Topology ctn, (3,4)-cn, num edge types: 1
# Building blocks:
#     Node 0, Type 0, BuildingBlock: PAMTOO_clean_linker_0, # of connection points: 3
#     Node 1, Type 0, BuildingBlock: PAMTOO_clean_linker_0, # of connection points: 3
#     Node 2, Type 0, BuildingBlock: PAMTOO_clean_linker_0, # of connection points: 3
#     Node 3, Type 0, BuildingBlock: PAMTOO_clean_linker_0, # of connection points: 3
#     Node 4, Type 0, BuildingBlock: PAMTOO_clean_linker_0, # of connection points: 3
#     Node 5, Type 0, BuildingBlock: PAMTOO_clean_linker_0, # of connection points: 3
#     Node 6, Type 0, BuildingBlock: PAMTOO_clean_linker_0, # of connection points: 3
#     Node 7, Type 0, BuildingBlock: PAMTOO_clean_linker_0, # of connection points: 3
#     Node 8, Type 0, BuildingBlock: PAMTOO_clean_linker_0, # of connection points: 3
#     Node 9, Type 0, BuildingBlock: PAMTOO_clean_linker_0, # of connection points: 3
#     Node 10, Type 0, BuildingBlock: PAMTOO_clean_linker_0, # of connection points: 3
#     Node 11, Type 0, BuildingBlock: PAMTOO_clean_linker_0, # of connection points: 3
#     Node 12, Type 0, BuildingBlock: PAMTOO_clean_linker_0, # of connection points: 3
#     Node 13, Type 0, BuildingBlock: PAMTOO_clean_linker_0, # of connection points: 3
#     Node 14, Type 0, BuildingBlock: PAMTOO_clean_linker_0, # of connection points: 3
#     Node 15, Type 0, BuildingBlock: PAMTOO_clean_linker_0, # of connection points: 3
#     Node 16, Type 1, BuildingBlock: AZAVOO_clean_sbu_0, # of connection points: 4
#     Node 17, Type 1, BuildingBlock: AZAVOO_clean_sbu_0, # of connection points: 4
#     Node 18, Type 1, BuildingBlock: AZAVOO_clean_sbu_0, # of connection points: 4
#     Node 19, Type 1, BuildingBlock: AZAVOO_clean_sbu_0, # of connection points: 4
#     Node 20, Type 1, BuildingBlock: AZAVOO_clean_sbu_0, # of connection points: 4
#     Node 21, Type 1, BuildingBlock: AZAVOO_clean_sbu_0, # of connection points: 4
#     Node 22, Type 1, BuildingBlock: AZAVOO_clean_sbu_0, # of connection points: 4
#     Node 23, Type 1, BuildingBlock: AZAVOO_clean_sbu_0, # of connection points: 4
#     Node 24, Type 1, BuildingBlock: AZAVOO_clean_sbu_0, # of connection points: 4
#     Node 25, Type 1, BuildingBlock: AZAVOO_clean_sbu_0, # of connection points: 4
#     Node 26, Type 1, BuildingBlock: AZAVOO_clean_sbu_0, # of connection points: 4
#     Node 27, Type 1, BuildingBlock: AZAVOO_clean_sbu_0, # of connection points: 4
#     Edge 28, Type (0, 1), BuildingBlock: KIFKEQ_clean_linker_1, # of connection points: 2
#     Edge 29, Type (0, 1), BuildingBlock: KIFKEQ_clean_linker_1, # of connection points: 2
#     Edge 30, Type (0, 1), BuildingBlock: KIFKEQ_clean_linker_1, # of connection points: 2
#     Edge 31, Type (0, 1), BuildingBlock: KIFKEQ_clean_linker_1, # of connection points: 2
#     Edge 32, Type (0, 1), BuildingBlock: KIFKEQ_clean_linker_1, # of connection points: 2
#     Edge 33, Type (0, 1), BuildingBlock: KIFKEQ_clean_linker_1, # of connection points: 2
#     Edge 34, Type (0, 1), BuildingBlock: KIFKEQ_clean_linker_1, # of connection points: 2
#     Edge 35, Type (0, 1), BuildingBlock: KIFKEQ_clean_linker_1, # of connection points: 2
#     Edge 36, Type (0, 1), BuildingBlock: KIFKEQ_clean_linker_1, # of connection points: 2
#     Edge 37, Type (0, 1), BuildingBlock: KIFKEQ_clean_linker_1, # of connection points: 2
#     Edge 38, Type (0, 1), BuildingBlock: KIFKEQ_clean_linker_1, # of connection points: 2
#     Edge 39, Type (0, 1), BuildingBlock: KIFKEQ_clean_linker_1, # of connection points: 2
#     Edge 40, Type (0, 1), BuildingBlock: KIFKEQ_clean_linker_1, # of connection points: 2
#     Edge 41, Type (0, 1), BuildingBlock: KIFKEQ_clean_linker_1, # of connection points: 2
#     Edge 42, Type (0, 1), BuildingBlock: KIFKEQ_clean_linker_1, # of connection points: 2
#     Edge 43, Type (0, 1), BuildingBlock: KIFKEQ_clean_linker_1, # of connection points: 2
#     Edge 44, Type (0, 1), BuildingBlock: KIFKEQ_clean_linker_1, # of connection points: 2
#     Edge 45, Type (0, 1), BuildingBlock: KIFKEQ_clean_linker_1, # of connection points: 2
#     Edge 46, Type (0, 1), BuildingBlock: KIFKEQ_clean_linker_1, # of connection points: 2
#     Edge 47, Type (0, 1), BuildingBlock: KIFKEQ_clean_linker_1, # of connection points: 2
#     Edge 48, Type (0, 1), BuildingBlock: KIFKEQ_clean_linker_1, # of connection points: 2
#     Edge 49, Type (0, 1), BuildingBlock: KIFKEQ_clean_linker_1, # of connection points: 2
#     Edge 50, Type (0, 1), BuildingBlock: KIFKEQ_clean_linker_1, # of connection points: 2
#     Edge 51, Type (0, 1), BuildingBlock: KIFKEQ_clean_linker_1, # of connection points: 2
#     Edge 52, Type (0, 1), BuildingBlock: KIFKEQ_clean_linker_1, # of connection points: 2
#     Edge 53, Type (0, 1), BuildingBlock: KIFKEQ_clean_linker_1, # of connection points: 2
#     Edge 54, Type (0, 1), BuildingBlock: KIFKEQ_clean_linker_1, # of connection points: 2
#     Edge 55, Type (0, 1), BuildingBlock: KIFKEQ_clean_linker_1, # of connection points: 2
#     Edge 56, Type (0, 1), BuildingBlock: KIFKEQ_clean_linker_1, # of connection points: 2
#     Edge 57, Type (0, 1), BuildingBlock: KIFKEQ_clean_linker_1, # of connection points: 2
#     Edge 58, Type (0, 1), BuildingBlock: KIFKEQ_clean_linker_1, # of connection points: 2
#     Edge 59, Type (0, 1), BuildingBlock: KIFKEQ_clean_linker_1, # of connection points: 2
#     Edge 60, Type (0, 1), BuildingBlock: KIFKEQ_clean_linker_1, # of connection points: 2
#     Edge 61, Type (0, 1), BuildingBlock: KIFKEQ_clean_linker_1, # of connection points: 2
#     Edge 62, Type (0, 1), BuildingBlock: KIFKEQ_clean_linker_1, # of connection points: 2
#     Edge 63, Type (0, 1), BuildingBlock: KIFKEQ_clean_linker_1, # of connection points: 2
#     Edge 64, Type (0, 1), BuildingBlock: KIFKEQ_clean_linker_1, # of connection points: 2
#     Edge 65, Type (0, 1), BuildingBlock: KIFKEQ_clean_linker_1, # of connection points: 2
#     Edge 66, Type (0, 1), BuildingBlock: KIFKEQ_clean_linker_1, # of connection points: 2
#     Edge 67, Type (0, 1), BuildingBlock: KIFKEQ_clean_linker_1, # of connection points: 2
#     Edge 68, Type (0, 1), BuildingBlock: KIFKEQ_clean_linker_1, # of connection points: 2
#     Edge 69, Type (0, 1), BuildingBlock: KIFKEQ_clean_linker_1, # of connection points: 2
#     Edge 70, Type (0, 1), BuildingBlock: KIFKEQ_clean_linker_1, # of connection points: 2
#     Edge 71, Type (0, 1), BuildingBlock: KIFKEQ_clean_linker_1, # of connection points: 2
#     Edge 72, Type (0, 1), BuildingBlock: KIFKEQ_clean_linker_1, # of connection points: 2
#     Edge 73, Type (0, 1), BuildingBlock: KIFKEQ_clean_linker_1, # of connection points: 2
#     Edge 74, Type (0, 1), BuildingBlock: KIFKEQ_clean_linker_1, # of connection points: 2
#     Edge 75, Type (0, 1), BuildingBlock: KIFKEQ_clean_linker_1, # of connection points: 2
# Relax obj value: 0.057
# Max RMSD: 0.171
# Mean RMSD: 0.109
data_MOF--net-ctn--node1-AZAVOO_clean_sbu_0--node2-PAMTOO_clean_linker_0--edge1-KIFKEQ_clean_linker_1
_symmetry_space_group_name_H-M    P1
_symmetry_Int_Tables_number       1
_symmetry_cell_setting            triclinic
loop_
_symmetry_equiv_pos_as_xyz
'x, y, z'
_cell_length_a     53.365402
_cell_length_b     54.733374
_cell_length_c     55.853391
_cell_angle_alpha  85.139951
_cell_angle_beta   95.459107
_cell_angle_gamma 100.62231
loop_
_atom_site_label
_atom_site_type_symbol
_atom_site_fract_x
_atom_site_fract_y
_atom_site_fract_z
_atom_type_partial_charge
H0 H 0.99935 0.06623 0.05442 0.0
H1 H 0.02822 0.99737 0.06368 0.0
H2 H 0.0515 0.05093 0.00563 0.0
H3 H 0.04247 1.00149 0.99096 0.0
C4 C 0.04652 0.99071 0.00826 0.0
O5 O 0.05553 0.00689 0.02606 0.0
H6 H 0.02827 0.97865 0.01309 0.0
C7 C 0.01096 0.05395 0.04847 0.0
C8 C 0.0253 0.06154 0.02849 0.0
C9 C 0.01195 0.03097 0.06131 0.0
C10 C 0.02713 0.0151 0.0538 0.0
C11 C 0.04096 0.02216 0.03341 0.0
C12 C 0.04017 0.04539 0.02093 0.0
H13 H 0.31542 0.70592 0.29406 0.0
H14 H 0.28158 0.72998 0.22495 0.0
H15 H 0.35157 0.77219 0.25488 0.0
H16 H 0.32296 0.80647 0.22334 0.0
C17 C 0.30717 0.79111 0.21817 0.0
O18 O 0.31684 0.76934 0.21845 0.0
H19 H 0.29255 0.78926 0.23152 0.0
C20 C 0.31546 0.71924 0.27854 0.0
C21 C 0.33572 0.7396 0.27695 0.0
C22 C 0.29595 0.71533 0.25976 0.0
C23 C 0.29658 0.73243 0.2395 0.0
C24 C 0.31653 0.75289 0.2379 0.0
C25 C 0.33622 0.75627 0.25639 0.0
H26 H 0.98333 0.5376 0.1153 0.0
H27 H 0.94482 0.50623 0.05047 0.0
H28 H 0.00774 0.47603 0.08627 0.0
H29 H 0.00581 0.49142 0.03183 0.0
C30 C 0.98681 0.47935 0.0282 0.0
O31 O 0.97449 0.47355 0.04915 0.0
H32 H 0.97521 0.48994 0.01499 0.0
C33 C 0.98105 0.52391 0.10199 0.0
C34 C 0.99806 0.50679 0.10347 0.0
C35 C 0.96171 0.52407 0.08288 0.0
C36 C 0.95964 0.5068 0.06518 0.0
C37 C 0.9765 0.4899 0.06637 0.0
C38 C 0.99535 0.48972 0.0855 0.0
H39 H 0.72654 0.86246 0.28843 0.0
H40 H 0.68414 0.79272 0.26451 0.0
H41 H 0.75501 0.82498 0.2348 0.0
H42 H 0.70902 0.80436 0.20203 0.0
C43 C 0.70553 0.78572 0.21202 0.0
O44 O 0.71754 0.78674 0.23499 0.0
H45 H 0.68456 0.78002 0.21331 0.0
C46 C 0.72456 0.84681 0.27729 0.0
C47 C 0.74326 0.84612 0.26142 0.0
C48 C 0.70294 0.82784 0.27831 0.0
C49 C 0.70044 0.80777 0.26362 0.0
C50 C 0.71932 0.8067 0.24814 0.0
C51 C 0.74052 0.82597 0.24685 0.0
H52 H 0.09167 0.98822 0.55439 0.0
H53 H 0.02685 0.96734 0.50342 0.0
H54 H 0.07273 0.03971 0.49538 0.0
H55 H 0.0186 0.03971 0.48439 0.0
C56 C 0.01262 0.02108 0.47701 0.0
O57 O 0.0335 0.00942 0.47737 0.0
H58 H 0.99815 0.00965 0.48839 0.0
C59 C 0.07941 0.99286 0.5387 0.0
C60 C 0.08467 0.01659 0.52634 0.0
C61 C 0.05871 0.97481 0.53043 0.0
C62 C 0.04287 0.98094 0.51009 0.0
C63 C 0.04783 0.00438 0.49782 0.0
C64 C 0.06871 0.022 0.50576 0.0
H65 H 0.17314 0.75145 0.79329 0.0
H66 H 0.19556 0.69222 0.75843 0.0
H67 H 0.23637 0.71708 0.82396 0.0
H68 H 0.2701 0.70827 0.78976 0.0
C69 C 0.2568 0.69487 0.77852 0.0
O70 O 0.23418 0.6874 0.78937 0.0
H71 H 0.25309 0.70464 0.76056 0.0
C72 C 0.18512 0.73757 0.7928 0.0
C73 C 0.20485 0.73601 0.8112 0.0
C74 C 0.18149 0.72201 0.7734 0.0
C75 C 0.19798 0.70474 0.7728 0.0
C76 C 0.21787 0.70335 0.79077 0.0
C77 C 0.22111 0.71872 0.80999 0.0
H78 H 0.92861 0.54113 0.51172 0.0
H79 H 0.9566 0.49527 0.46496 0.0
H80 H 1.00351 0.56374 0.48582 0.0
H81 H 1.00461 0.55433 0.43391 0.0
C82 C 0.99974 0.53363 0.43551 0.0
O83 O 0.99997 0.52535 0.45957 0.0
H84 H 0.98024 0.52818 0.4264 0.0
C85 C 0.94337 0.53787 0.50093 0.0
C86 C 0.96648 0.555 0.50035 0.0
C87 C 0.93978 0.51598 0.48859 0.0
C88 C 0.9592 0.51184 0.47491 0.0
C89 C 0.9819 0.52921 0.47357 0.0
C90 C 0.98574 0.55053 0.48665 0.0
H91 H 0.77162 0.80964 0.84787 0.0
H92 H 0.82793 0.76869 0.82972 0.0
H93 H 0.79791 0.81854 0.77633 0.0
H94 H 0.80576 0.76969 0.76093 0.0
C95 C 0.82488 0.76947 0.77077 0.0
O96 O 0.83077 0.78882 0.7858 0.0
H97 H 0.82404 0.75141 0.78168 0.0
C98 C 0.78325 0.80492 0.83472 0.0
C99 C 0.78258 0.81683 0.81129 0.0
C100 C 0.79916 0.78713 0.84155 0.0
C101 C 0.81491 0.78163 0.82471 0.0
C102 C 0.81447 0.79319 0.80141 0.0
C103 C 0.79811 0.81029 0.79464 0.0
H104 H 0.26737 0.30109 0.34195 0.0
H105 H 0.32309 0.26044 0.32224 0.0
H106 H 0.29928 0.31738 0.27286 0.0
H107 H 0.30958 0.27663 0.24857 0.0
C108 C 0.32308 0.26902 0.26236 0.0
O109 O 0.32987 0.28515 0.28055 0.0
H110 H 0.31321 0.25066 0.26992 0.0
C111 C 0.27948 0.29738 0.32869 0.0
C112 C 0.28103 0.31195 0.3066 0.0
C113 C 0.29436 0.27862 0.33445 0.0
C114 C 0.31134 0.27465 0.31806 0.0
C115 C 0.31305 0.28877 0.29601 0.0
C116 C 0.29784 0.3071 0.29024 0.0
H117 H 0.48215 0.0354 0.61266 0.0
H118 H 0.44292 1.00123 0.54944 0.0
H119 H 0.50733 0.97342 0.58516 0.0
H120 H 0.50391 0.98717 0.53022 0.0
C121 C 0.48494 0.97486 0.52718 0.0
O122 O 0.47338 0.96921 0.54855 0.0
H123 H 0.47281 0.98514 0.5142 0.0
C124 C 0.47987 0.02123 0.59983 0.0
C125 C 0.49727 0.00447 0.6016 0.0
C126 C 0.46013 0.02042 0.58101 0.0
C127 C 0.45803 0.00253 0.56391 0.0
C128 C 0.47532 0.98603 0.56533 0.0
C129 C 0.49459 0.98682 0.58417 0.0
H130 H 0.22142 0.35912 0.7868 0.0
H131 H 0.18816 0.2853 0.76594 0.0
H132 H 0.25255 0.32675 0.73118 0.0
H133 H 0.2023 0.29851 0.70303 0.0
C134 C 0.20599 0.28053 0.71234 0.0
O135 O 0.22058 0.28443 0.73388 0.0
H136 H 0.18713 0.26901 0.71601 0.0
C137 C 0.22077 0.34387 0.77543 0.0
C138 C 0.23902 0.34569 0.75853 0.0
C139 C 0.20217 0.32224 0.77821 0.0
C140 C 0.20215 0.30226 0.76394 0.0
C141 C 0.22014 0.30404 0.7469 0.0
C142 C 0.23837 0.32579 0.74406 0.0
H143 H 0.82679 0.20633 0.79187 0.0
H144 H 0.78953 0.23166 0.72484 0.0
H145 H 0.85777 0.27627 0.75534 0.0
H146 H 0.8259 0.30902 0.7267 0.0
C147 C 0.81139 0.29343 0.71974 0.0
O148 O 0.8227 0.27277 0.71916 0.0
H149 H 0.79567 0.2894 0.73207 0.0
C150 C 0.82581 0.22011 0.77683 0.0
C151 C 0.84461 0.24175 0.77588 0.0
C152 C 0.80572 0.21624 0.75855 0.0
C153 C 0.80486 0.23419 0.73908 0.0
C154 C 0.82358 0.25574 0.73803 0.0
C155 C 0.84336 0.25953 0.75638 0.0
H156 H 0.5026 0.5723 0.54588 0.0
H157 H 0.53092 0.50385 0.56511 0.0
H158 H 0.55102 0.54683 0.49968 0.0
H159 H 0.53886 0.49503 0.49388 0.0
C160 C 0.54573 0.4872 0.51184 0.0
O161 O 0.55585 0.50627 0.52649 0.0
H162 H 0.52902 0.47524 0.51993 0.0
C163 C 0.51358 0.55855 0.54196 0.0
C164 C 0.52652 0.56221 0.52085 0.0
C165 C 0.51516 0.53783 0.55836 0.0
C166 C 0.52923 0.51996 0.5528 0.0
C167 C 0.54197 0.52323 0.53158 0.0
C168 C 0.54088 0.54444 0.51587 0.0
H169 H 0.5997 0.47827 0.04278 0.0
H170 H 0.52953 0.45877 0.99813 0.0
H171 H 0.57574 0.53053 0.98676 0.0
H172 H 0.52226 0.53131 0.97951 0.0
C173 C 0.51515 0.51289 0.97199 0.0
O174 O 0.53518 0.50032 0.97123 0.0
H175 H 0.50083 0.50184 0.98375 0.0
C176 C 0.58583 0.48337 0.02868 0.0
C177 C 0.59065 0.50684 0.01578 0.0
C178 C 0.56386 0.46581 0.02237 0.0
C179 C 0.5464 0.47212 0.00344 0.0
C180 C 0.55086 0.49535 0.99074 0.0
C181 C 0.57275 0.51263 0.99693 0.0
H182 H 0.67073 0.24965 0.29847 0.0
H183 H 0.69247 0.19218 0.26096 0.0
H184 H 0.73717 0.21777 0.32476 0.0
H185 H 0.76526 0.21389 0.28245 0.0
C186 C 0.75404 0.19599 0.27623 0.0
O187 O 0.73338 0.18817 0.28983 0.0
H188 H 0.74711 0.19945 0.25703 0.0
C189 C 0.68341 0.23656 0.29706 0.0
C190 C 0.70432 0.23559 0.31428 0.0
C191 C 0.67886 0.22086 0.27786 0.0
C192 C 0.69547 0.2041 0.27589 0.0
C193 C 0.71668 0.20339 0.29257 0.0
C194 C 0.72092 0.21889 0.31178 0.0
H195 H 0.42834 0.03144 0.01478 0.0
H196 H 0.44976 0.99139 0.95888 0.0
H197 H 0.49804 0.05868 0.98043 0.0
H198 H 0.49303 0.05105 0.92727 0.0
C199 C 0.49083 0.03037 0.92855 0.0
O200 O 0.49262 0.02165 0.95245 0.0
H201 H 0.47164 0.02276 0.91986 0.0
C202 C 0.44139 0.02959 1.00159 0.0
C203 C 0.46362 0.04773 0.99927 0.0
C204 C 0.43599 0.0091 0.98711 0.0
C205 C 0.45341 0.00686 0.97036 0.0
C206 C 0.47563 0.02469 0.96798 0.0
C207 C 0.48063 0.04514 0.98228 0.0
Mg208 Mg 0.21771 0.85306 0.0089 0.0
O209 O 0.25775 0.87785 0.00563 0.0
O210 O 0.28586 0.85202 0.0144 0.0
Mg211 Mg 0.26523 0.81218 0.02164 0.0
C212 C 0.28077 0.87378 0.00875 0.0
C213 C 0.17232 0.87705 0.99184 0.0
O214 O 0.16335 0.85321 0.99609 0.0
O215 O 0.21952 0.83772 0.9722 0.0
O216 O 0.24763 0.81223 0.98239 0.0
O217 O 0.22037 0.85849 0.04818 0.0
O218 O 0.23378 0.82772 0.03307 0.0
C219 C 0.23231 0.82164 0.9668 0.0
C220 C 0.23182 0.83947 0.05165 0.0
O221 O 0.19646 0.8842 0.99324 0.0
Mg222 Mg 0.16246 0.50394 0.29475 0.0
O223 O 0.13759 0.5026 0.25841 0.0
O224 O 0.16502 0.51182 0.22979 0.0
Mg225 Mg 0.20625 0.51956 0.24677 0.0
C226 C 0.1422 0.50625 0.23621 0.0
C227 C 0.13239 0.48965 0.33852 0.0
O228 O 0.15618 0.49692 0.34704 0.0
O229 O 0.17457 0.46614 0.29008 0.0
O230 O 0.20412 0.47966 0.26382 0.0
O231 O 0.1625 0.54488 0.29536 0.0
O232 O 0.19178 0.5295 0.27923 0.0
C233 C 0.19269 0.46256 0.27803 0.0
C234 C 0.18286 0.54875 0.28375 0.0
O235 O 0.12787 0.48755 0.31592 0.0
Mg236 Mg 0.79589 0.67648 0.06127 0.0
O237 O 0.75839 0.64802 0.05439 0.0
O238 O 0.72693 0.67045 0.04863 0.0
Mg239 Mg 0.74265 0.71149 0.05382 0.0
C240 C 0.73478 0.64967 0.04968 0.0
C241 C 0.83969 0.64736 0.07268 0.0
O242 O 0.84291 0.66365 0.08918 0.0
O243 O 0.79452 0.69054 0.02075 0.0
O244 O 0.76363 0.71322 0.01995 0.0
O245 O 0.79157 0.67338 0.10138 0.0
O246 O 0.77515 0.69995 0.07553 0.0
C247 C 0.78071 0.70546 0.00962 0.0
C248 C 0.77768 0.69053 0.09729 0.0
O249 O 0.82101 0.6474 0.05668 0.0
Mg250 Mg 0.91488 0.04862 0.25317 0.0
O251 O 0.88974 0.00971 0.25338 0.0
O252 O 0.91576 0.98199 0.25326 0.0
Mg253 Mg 0.95673 0.00293 0.25036 0.0
C254 C 0.89349 0.98728 0.25378 0.0
C255 C 0.88667 0.08692 0.27263 0.0
O256 O 0.91068 0.09775 0.27631 0.0
O257 O 0.92945 0.04096 0.29261 0.0
O258 O 0.957 0.01567 0.28848 0.0
O259 O 0.91108 0.05204 0.21285 0.0
O260 O 0.94158 0.03586 0.2344 0.0
C261 C 0.94652 0.0284 0.30149 0.0
C262 C 0.93066 0.04104 0.21349 0.0
O263 O 0.88174 0.06564 0.26395 0.0
Mg264 Mg 0.29934 0.1776 0.55657 0.0
O265 O 0.25987 0.15126 0.55458 0.0
O266 O 0.23041 0.17582 0.55262 0.0
Mg267 Mg 0.24963 0.21668 0.55096 0.0
C268 C 0.23655 0.15426 0.55366 0.0
C269 C 0.34035 0.14585 0.56804 0.0
O270 O 0.34565 0.16388 0.58284 0.0
O271 O 0.29461 0.18778 0.51546 0.0
O272 O 0.26517 0.21209 0.51513 0.0
O273 O 0.2983 0.17862 0.59688 0.0
O274 O 0.28356 0.20536 0.57003 0.0
C275 C 0.2802 0.20204 0.50418 0.0
C276 C 0.28677 0.1975 0.59221 0.0
O277 O 0.32084 0.14542 0.55292 0.0
Mg278 Mg 0.41413 0.54696 0.75076 0.0
O279 O 0.3868 0.50921 0.74996 0.0
O280 O 0.41111 0.4802 0.74847 0.0
Mg281 Mg 0.45273 0.49915 0.7452 0.0
C282 C 0.38938 0.48648 0.74961 0.0
C283 C 0.36156 0.56509 0.75207 0.0
O284 O 0.35589 0.55169 0.73321 0.0
O285 O 0.42882 0.53703 0.78958 0.0
O286 O 0.45484 0.51067 0.78406 0.0
O287 O 0.41003 0.55241 0.71052 0.0
O288 O 0.43925 0.53345 0.73085 0.0
C289 C 0.44526 0.52348 0.79773 0.0
C290 C 0.42876 0.5404 0.71031 0.0
O291 O 0.38345 0.56597 0.76352 0.0
Mg292 Mg 0.72337 0.35686 0.51032 0.0
O293 O 0.76203 0.38324 0.50478 0.0
O294 O 0.79162 0.35864 0.51055 0.0
Mg295 Mg 0.77347 0.31869 0.52136 0.0
C296 C 0.78524 0.37995 0.50534 0.0
C297 C 0.67582 0.37803 0.4954 0.0
O298 O 0.66828 0.35423 0.50132 0.0
O299 O 0.72405 0.34056 0.47378 0.0
O300 O 0.7533 0.31613 0.48325 0.0
O301 O 0.72758 0.36335 0.54941 0.0
O302 O 0.74202 0.33325 0.53418 0.0
C303 C 0.73687 0.32458 0.46819 0.0
C304 C 0.74011 0.34508 0.55272 0.0
O305 O 0.69969 0.38621 0.49491 0.0
Mg306 Mg 0.66386 0.00859 0.7916 0.0
O307 O 0.63889 0.00682 0.75536 0.0
O308 O 0.66598 0.01465 0.72642 0.0
Mg309 Mg 0.70732 0.0221 0.74318 0.0
C310 C 0.64325 0.00968 0.73309 0.0
C311 C 0.6326 0.99775 0.83491 0.0
O312 O 0.6559 0.00702 0.84345 0.0
O313 O 0.67516 0.97019 0.78786 0.0
O314 O 0.7045 0.98258 0.76119 0.0
O315 O 0.66521 0.0499 0.79141 0.0
O316 O 0.69368 0.0331 0.77563 0.0
C317 C 0.69305 0.96598 0.77585 0.0
C318 C 0.6856 0.05288 0.77992 0.0
O319 O 0.6289 0.99332 0.81272 0.0
Mg320 Mg 0.03848 0.28176 0.93845 0.0
O321 O 1.00175 0.27295 0.91316 0.0
O322 O 0.97006 0.25722 0.93661 0.0
Mg323 Mg 0.98648 0.25412 0.97583 0.0
C324 C 0.9782 0.26424 0.91592 0.0
C325 C 0.08384 0.30197 0.91153 0.0
O326 O 0.0917 0.29085 0.93191 0.0
O327 O 0.02488 0.31561 0.95092 0.0
O328 O 0.9949 0.297 0.97512 0.0
O329 O 0.04672 0.24398 0.93533 0.0
O330 O 0.02407 0.25313 0.96333 0.0
C331 C 0.00822 0.31666 0.96566 0.0
C332 C 0.03308 0.23653 0.95337 0.0
O333 O 0.06033 0.30377 0.90809 0.0
Mg334 Mg 0.53678 0.78133 0.43101 0.0
O335 O 0.49815 0.77108 0.40896 0.0
O336 O 0.46955 0.75184 0.43423 0.0
Mg337 Mg 0.48947 0.75085 0.47229 0.0
C338 C 0.47552 0.76014 0.41308 0.0
C339 C 0.57515 0.81837 0.40102 0.0
O340 O 0.58537 0.8229 0.42289 0.0
O341 O 0.52289 0.81395 0.44537 0.0
O342 O 0.49537 0.79381 0.47126 0.0
O343 O 0.54618 0.74432 0.42626 0.0
O344 O 0.52608 0.75212 0.45677 0.0
C345 C 0.50713 0.81402 0.46123 0.0
C346 C 0.53457 0.73616 0.44542 0.0
O347 O 0.55359 0.80406 0.39848 0.0
Mg348 Mg 0.98574 0.74552 0.61731 0.0
O349 O 0.02248 0.739 0.64026 0.0
O350 O 0.05154 0.73658 0.61463 0.0
Mg351 Mg 0.03335 0.73962 0.57595 0.0
C352 C 0.04499 0.73657 0.63604 0.0
C353 C 0.95285 0.77067 0.64785 0.0
O354 O 0.94888 0.78198 0.62649 0.0
O355 O 1.00444 0.78621 0.60776 0.0
O356 O 0.03127 0.78029 0.58126 0.0
O357 O 0.97223 0.70421 0.61596 0.0
O358 O 0.99526 0.72735 0.58887 0.0
C359 C 0.0212 0.79472 0.59278 0.0
C360 C 0.98406 0.70565 0.59657 0.0
O361 O 0.96838 0.7554 0.65046 0.0
Mg362 Mg 0.48813 0.24034 0.11491 0.0
O363 O 0.52288 0.23389 0.14116 0.0
O364 O 0.55382 0.23004 0.11808 0.0
Mg365 Mg 0.5386 0.23055 0.07842 0.0
C366 C 0.54576 0.23112 0.13871 0.0
C367 C 0.46371 0.24069 0.16412 0.0
O368 O 0.47237 0.21961 0.16798 0.0
O369 O 0.50878 0.27996 0.10424 0.0
O370 O 0.53675 0.27196 0.07988 0.0
O371 O 0.47263 0.19925 0.11486 0.0
O372 O 0.49952 0.21957 0.08944 0.0
C373 C 0.52626 0.28732 0.08975 0.0
C374 C 0.48634 0.19873 0.09705 0.0
O375 O 0.46826 0.25397 0.14466 0.0
H376 H 0.24992 0.76142 0.83101 0.0
H377 H 0.16849 0.74775 0.83764 0.0
H378 H 0.2568 0.78537 0.86662 0.0
H379 H 0.17537 0.7716 0.87351 0.0
H380 H 0.19631 0.83014 0.92969 0.0
H381 H 0.18972 0.81259 0.89018 0.0
H382 H 0.2538 0.77475 0.90912 0.0
H383 H 0.26065 0.79242 0.94801 0.0
C384 C 0.23348 0.76353 0.8401 0.0
C385 C 0.20869 0.75239 0.83168 0.0
C386 C 0.23741 0.77728 0.86051 0.0
C387 C 0.21667 0.78018 0.87312 0.0
C388 C 0.19176 0.76992 0.86413 0.0
C389 C 0.18781 0.7562 0.84361 0.0
C390 C 0.20914 0.8183 0.92528 0.0
C391 C 0.22897 0.81267 0.94212 0.0
C392 C 0.20526 0.80812 0.9027 0.0
C393 C 0.22125 0.79227 0.89644 0.0
C394 C 0.24135 0.78715 0.91312 0.0
C395 C 0.24516 0.79719 0.93559 0.0
H396 H 0.99088 0.49502 0.40555 0.0
H397 H 0.05164 0.54813 0.4382 0.0
H398 H 0.02187 0.47969 0.38369 0.0
H399 H 0.08266 0.53321 0.4162 0.0
H400 H 0.1362 0.49146 0.38738 0.0
H401 H 0.1036 0.49826 0.4125 0.0
H402 H 0.04854 0.49471 0.35042 0.0
H403 H 0.08112 0.48743 0.32531 0.0
C404 C 0.01092 0.50332 0.40808 0.0
C405 C 0.01891 0.52296 0.42328 0.0
C406 C 0.02864 0.49464 0.39551 0.0
C407 C 0.05477 0.50527 0.39807 0.0
C408 C 0.06277 0.52437 0.41397 0.0
C409 C 0.04504 0.53306 0.42647 0.0
C410 C 0.11703 0.49168 0.37913 0.0
C411 C 0.11136 0.48915 0.35426 0.0
C412 C 0.09837 0.49578 0.39353 0.0
C413 C 0.07355 0.49748 0.38344 0.0
C414 C 0.06743 0.49341 0.35884 0.0
C415 C 0.08613 0.48926 0.3444 0.0
H416 H 0.80133 0.73802 0.85512 0.0
H417 H 0.79822 0.80795 0.88428 0.0
H418 H 0.79927 0.7172 0.89564 0.0
H419 H 0.79574 0.78708 0.92447 0.0
H420 H 0.75401 0.73695 0.98223 0.0
H421 H 0.76097 0.75575 0.9422 0.0
H422 H 0.82293 0.7158 0.93855 0.0
H423 H 0.81602 0.69656 0.9794 0.0
C424 C 0.80053 0.74902 0.87016 0.0
C425 C 0.79953 0.77463 0.86635 0.0
C426 C 0.79938 0.73707 0.89336 0.0
C427 C 0.79706 0.75044 0.91317 0.0
C428 C 0.79705 0.77618 0.90947 0.0
C429 C 0.79832 0.78812 0.8864 0.0
C430 C 0.76918 0.73196 0.9731 0.0
C431 C 0.78461 0.71529 0.9843 0.0
C432 C 0.77323 0.74296 0.95008 0.0
C433 C 0.79274 0.7376 0.93736 0.0
C434 C 0.80776 0.72032 0.94802 0.0
C435 C 0.80382 0.70934 0.97138 0.0
H436 H 0.03747 0.04358 0.43836 0.0
H437 H 0.96293 0.00675 0.45817 0.0
H438 H 0.02068 0.04721 0.39613 0.0
H439 H 0.94599 0.01052 0.41589 0.0
H440 H 0.92315 0.04343 0.33823 0.0
H441 H 0.93824 0.04354 0.38115 0.0
H442 H 1.00457 0.0145 0.3661 0.0
H443 H 0.9897 0.01422 0.32365 0.0
C444 C 0.01747 0.03637 0.43362 0.0
C445 C 1.00159 0.0245 0.45136 0.0
C446 C 0.00786 0.03842 0.40953 0.0
C447 C 0.98208 0.02897 0.40274 0.0
C448 C 0.96591 0.01805 0.42065 0.0
C449 C 0.97561 0.01576 0.44476 0.0
C450 C 0.94096 0.03712 0.34413 0.0
C451 C 0.95518 0.02879 0.3275 0.0
C452 C 0.94952 0.0371 0.36866 0.0
C453 C 0.97265 0.02917 0.37689 0.0
C454 C 0.98685 0.02101 0.36024 0.0
C455 C 0.97818 0.02069 0.33591 0.0
H456 H 0.2432 0.30171 0.68291 0.0
H457 H 0.20031 0.23045 0.70644 0.0
H458 H 0.26466 0.28131 0.65555 0.0
H459 H 0.22144 0.2099 0.67883 0.0
H460 H 0.28094 0.18022 0.63943 0.0
H461 H 0.26316 0.19999 0.67015 0.0
H462 H 0.25129 0.26068 0.61816 0.0
H463 H 0.2693 0.24135 0.58789 0.0
C464 C 0.23838 0.28166 0.68211 0.0
C465 C 0.21972 0.26767 0.69624 0.0
C466 C 0.25058 0.26997 0.66647 0.0
C467 C 0.24452 0.244 0.6648 0.0
C468 C 0.2266 0.2299 0.67975 0.0
C469 C 0.21435 0.24164 0.69538 0.0
C470 C 0.2746 0.19782 0.63467 0.0
C471 C 0.27636 0.20912 0.61119 0.0
C472 C 0.26432 0.20908 0.65219 0.0
C473 C 0.25589 0.23196 0.64661 0.0
C474 C 0.25791 0.24325 0.62318 0.0
C475 C 0.268 0.23199 0.60572 0.0
H476 H 0.49011 0.49557 0.58255 0.0
H477 H 0.51212 0.57529 0.58681 0.0
H478 H 0.46753 0.49327 0.61921 0.0
H479 H 0.48856 0.57295 0.6223 0.0
H480 H 0.46171 0.5091 0.70308 0.0
H481 H 0.48143 0.5058 0.666 0.0
H482 H 0.43847 0.55905 0.62881 0.0
H483 H 0.41827 0.56204 0.66564 0.0
C484 C 0.49026 0.51254 0.59125 0.0
C485 C 0.50259 0.53568 0.58138 0.0
C486 C 0.4772 0.51121 0.61211 0.0
C487 C 0.47596 0.53301 0.6232 0.0
C488 C 0.48876 0.55595 0.61374 0.0
C489 C 0.50215 0.55725 0.5933 0.0
C490 C 0.45609 0.51977 0.68694 0.0
C491 C 0.43849 0.53594 0.68738 0.0
C492 C 0.46734 0.51778 0.66571 0.0
C493 C 0.46154 0.53228 0.64469 0.0
C494 C 0.44332 0.54777 0.64487 0.0
C495 C 0.43173 0.54941 0.66594 0.0
H496 H 0.83604 0.29987 0.67822 0.0
H497 H 0.76426 0.30519 0.70523 0.0
H498 H 0.81979 0.313 0.63757 0.0
H499 H 0.74797 0.31832 0.66471 0.0
H500 H 0.73866 0.36677 0.59465 0.0
H501 H 0.75652 0.35475 0.6348 0.0
H502 H 0.78605 0.29617 0.60569 0.0
H503 H 0.76814 0.30809 0.5655 0.0
C504 C 0.81673 0.30368 0.67536 0.0
C505 C 0.80122 0.30112 0.69471 0.0
C506 C 0.80743 0.31115 0.65217 0.0
C507 C 0.78259 0.31661 0.64797 0.0
C508 C 0.76725 0.31441 0.66743 0.0
C509 C 0.77648 0.30675 0.69057 0.0
C510 C 0.74907 0.3514 0.59675 0.0
C511 C 0.75204 0.33844 0.57683 0.0
C512 C 0.75917 0.34445 0.61979 0.0
C513 C 0.77261 0.32448 0.62338 0.0
C514 C 0.77599 0.31179 0.60342 0.0
C515 C 0.7657 0.31862 0.58039 0.0
H516 H 0.54632 0.99703 0.59873 0.0
H517 H 0.49651 0.01419 0.64916 0.0
H518 H 0.58033 0.99684 0.63069 0.0
H519 H 0.53131 0.01572 0.68096 0.0
H520 H 0.59199 0.99273 0.73815 0.0
H521 H 0.55659 0.99122 0.70684 0.0
H522 H 0.60989 0.02356 0.65432 0.0
H523 H 0.64507 0.02413 0.68519 0.0
C524 C 0.54255 1.00077 0.61665 0.0
C525 C 0.51846 0.00547 0.62126 0.0
C526 C 0.5623 1.00106 0.635 0.0
C527 C 0.55877 0.0064 0.65853 0.0
C528 C 0.53473 0.01124 0.66318 0.0
C529 C 0.51483 0.01074 0.6448 0.0
C530 C 0.59612 0.99939 0.71988 0.0
C531 C 0.62146 0.00837 0.71422 0.0
C532 C 0.57578 0.99871 0.70192 0.0
C533 C 0.58025 0.00718 0.6779 0.0
C534 C 0.60561 0.01634 0.67241 0.0
C535 C 0.62589 0.01679 0.69024 0.0
H536 H 0.8782 0.21109 0.79266 0.0
H537 H 0.85746 0.28181 0.80306 0.0
H538 H 0.91196 0.21777 0.82573 0.0
H539 H 0.89079 0.2882 0.83648 0.0
H540 H 0.92738 0.26579 0.91422 0.0
H541 H 0.89602 0.26146 0.87929 0.0
H542 H 0.95503 0.25293 0.83456 0.0
H543 H 0.98675 0.25791 0.86945 0.0
C544 C 0.88092 0.22803 0.80205 0.0
C545 C 0.86532 0.24595 0.79543 0.0
C546 C 0.90025 0.2319 0.8208 0.0
C547 C 0.90388 0.25349 0.83354 0.0
C548 C 0.88828 0.2714 0.8269 0.0
C549 C 0.86935 0.26779 0.80782 0.0
C550 C 0.93371 0.26309 0.89693 0.0
C551 C 0.95951 0.26217 0.89455 0.0
C552 C 0.9158 0.26074 0.87697 0.0
C553 C 0.9232 0.25686 0.85435 0.0
C554 C 0.94893 0.25585 0.85189 0.0
C555 C 0.96702 0.2588 0.87178 0.0
H556 H 0.44736 0.93871 0.50901 0.0
H557 H 0.52935 0.95795 0.5218 0.0
H558 H 0.45198 0.90037 0.49151 0.0
H559 H 0.5341 0.91964 0.5045 0.0
H560 H 0.53365 0.86105 0.45038 0.0
H561 H 0.52788 0.90016 0.46536 0.0
H562 H 0.46552 0.8605 0.50512 0.0
H563 H 0.47102 0.82156 0.49007 0.0
C564 C 0.46634 0.93464 0.50807 0.0
C565 C 0.48798 0.95123 0.51665 0.0
C566 C 0.46902 0.91273 0.49814 0.0
C567 C 0.49342 0.907 0.49654 0.0
C568 C 0.51507 0.92368 0.50514 0.0
C569 C 0.51237 0.94552 0.51518 0.0
C570 C 0.51858 0.86069 0.46217 0.0
C571 C 0.50287 0.8381 0.46906 0.0
C572 C 0.51539 0.88309 0.47088 0.0
C573 C 0.49629 0.88343 0.4865 0.0
C574 C 0.48025 0.86094 0.49294 0.0
C575 C 0.48353 0.83856 0.48439 0.0
H576 H 0.17363 0.35662 0.78749 0.0
H577 H 0.18899 0.28321 0.81094 0.0
H578 H 0.14465 0.35378 0.81955 0.0
H579 H 0.15999 0.28032 0.84271 0.0
H580 H 0.13369 0.29676 0.91347 0.0
H581 H 0.16144 0.30267 0.88064 0.0
H582 H 0.10193 0.32794 0.83236 0.0
H583 H 0.07377 0.32192 0.86541 0.0
C584 C 0.17075 0.33988 0.79946 0.0
C585 C 0.1836 0.32015 0.79677 0.0
C586 C 0.15406 0.33821 0.81765 0.0
C587 C 0.15022 0.31692 0.83369 0.0
C588 C 0.16281 0.29708 0.83076 0.0
C589 C 0.17923 0.29863 0.81245 0.0
C590 C 0.12647 0.3038 0.89595 0.0
C591 C 0.10139 0.30868 0.89204 0.0
C592 C 0.14238 0.30703 0.8771 0.0
C593 C 0.13372 0.31541 0.85389 0.0
C594 C 0.10907 0.32144 0.85011 0.0
C595 C 0.09298 0.31799 0.86901 0.0
H596 H 0.4854 0.58491 0.50671 0.0
H597 H 0.56638 0.59211 0.49945 0.0
H598 H 0.48575 0.62606 0.48608 0.0
H599 H 0.56656 0.63309 0.47839 0.0
H600 H 0.50907 0.71261 0.48361 0.0
H601 H 0.50549 0.66902 0.49835 0.0
H602 H 0.5491 0.65562 0.44105 0.0
H603 H 0.5526 0.69925 0.42613 0.0
C604 C 0.50324 0.59518 0.50054 0.0
C605 C 0.52595 0.58537 0.50502 0.0
C606 C 0.5034 0.61873 0.48872 0.0
C607 C 0.52622 0.63287 0.48089 0.0
C608 C 0.54864 0.62252 0.48412 0.0
C609 C 0.54852 0.59902 0.49611 0.0
C610 C 0.5176 0.70036 0.47394 0.0
C611 C 0.53106 0.70943 0.45367 0.0
C612 C 0.51549 0.67534 0.48235 0.0
C613 C 0.52701 0.65893 0.47082 0.0
C614 C 0.54019 0.6679 0.45037 0.0
C615 C 0.54208 0.69286 0.44181 0.0
H616 H 0.87506 0.76493 0.78068 0.0
H617 H 0.82033 0.77917 0.72163 0.0
H618 H 0.90802 0.76768 0.75241 0.0
H619 H 0.85278 0.78118 0.69324 0.0
H620 H 0.92037 0.80368 0.64898 0.0
H621 H 0.8912 0.80547 0.6795 0.0
H622 H 0.9195 0.74485 0.72161 0.0
H623 H 0.94923 0.74357 0.69139 0.0
C624 C 0.87016 0.76863 0.76161 0.0
C625 C 0.8452 0.77173 0.75329 0.0
C626 C 0.88894 0.77006 0.74539 0.0
C627 C 0.88313 0.77463 0.72047 0.0
C628 C 0.85813 0.77803 0.71229 0.0
C629 C 0.83943 0.77668 0.72852 0.0
C630 C 0.92059 0.79091 0.66488 0.0
C631 C 0.93706 0.77339 0.66764 0.0
C632 C 0.90369 0.79181 0.68233 0.0
C633 C 0.9027 0.77511 0.70295 0.0
C634 C 0.91984 0.75816 0.70611 0.0
C635 C 0.93686 0.75736 0.6887 0.0
H636 H 0.05132 0.93182 0.50785 0.0
H637 H 0.05634 0.9596 0.57854 0.0
H638 H 0.04325 0.88922 0.52556 0.0
H639 H 0.04829 0.9165 0.59648 0.0
H640 H 1.00098 0.83309 0.60831 0.0
H641 H 0.01136 0.87757 0.59545 0.0
H642 H 0.06906 0.86232 0.55253 0.0
H643 H 0.05894 0.81839 0.5651 0.0
C644 C 0.05062 0.92878 0.52721 0.0
C645 C 0.05438 0.94902 0.54181 0.0
C646 C 0.04618 0.90438 0.53738 0.0
C647 C 0.04524 0.89953 0.56242 0.0
C648 C 0.04882 0.91973 0.57712 0.0
C649 C 0.05361 0.94431 0.5669 0.0
C650 C 0.01608 0.8393 0.59637 0.0
C651 C 0.02883 0.82203 0.58748 0.0
C652 C 0.02207 0.86476 0.58909 0.0
C653 C 0.04077 0.87332 0.57273 0.0
C654 C 0.05424 0.85621 0.5648 0.0
C655 C 0.04841 0.83097 0.57209 0.0
H656 H 0.18301 0.71623 0.72521 0.0
H657 H 0.13334 0.73267 0.77619 0.0
H658 H 0.14963 0.71832 0.69307 0.0
H659 H 0.10066 0.73711 0.74349 0.0
H660 H 0.03736 0.72032 0.68305 0.0
H661 H 0.0698 0.71625 0.7163 0.0
H662 H 0.12907 0.74569 0.66853 0.0
H663 H 0.09675 0.74831 0.63528 0.0
C664 C 0.16497 0.7203 0.72966 0.0
C665 C 0.161 0.7241 0.75351 0.0
C666 C 0.14587 0.72199 0.71101 0.0
C667 C 0.12232 0.72811 0.71546 0.0
C668 C 0.11835 0.73206 0.73929 0.0
C669 C 0.13734 0.72992 0.75807 0.0
C670 C 0.05735 0.72581 0.67972 0.0
C671 C 0.06448 0.73442 0.65649 0.0
C672 C 0.07601 0.72366 0.69883 0.0
C673 C 0.10224 0.73051 0.69525 0.0
C674 C 0.1092 0.73957 0.67201 0.0
C675 C 0.09061 0.74124 0.65288 0.0
H676 H 1.00248 0.56713 0.53738 0.0
H677 H 0.93934 0.59284 0.49501 0.0
H678 H 0.00814 0.60352 0.56167 0.0
H679 H 0.94556 0.62963 0.51871 0.0
H680 H 0.99264 0.70458 0.54945 0.0
H681 H 0.98919 0.66798 0.5262 0.0
H682 H 0.97262 0.6199 0.59008 0.0
H683 H 0.97522 0.65654 0.61336 0.0
C684 C 0.99001 0.58071 0.53319 0.0
C685 C 0.97052 0.57734 0.51438 0.0
C686 C 0.99317 0.60137 0.54708 0.0
C687 C 0.97729 0.61926 0.54195 0.0
C688 C 0.95807 0.61607 0.5229 0.0
C689 C 0.9545 0.59512 0.50942 0.0
C690 C 0.98847 0.68622 0.55862 0.0
C691 C 0.98417 0.68341 0.58323 0.0
C692 C 0.9864 0.66534 0.54527 0.0
C693 C 0.98062 0.64125 0.55641 0.0
C694 C 0.97716 0.63834 0.58117 0.0
C695 C 0.97861 0.65926 0.59443 0.0
H696 H 0.77695 0.86357 0.29837 0.0
H697 H 0.75957 0.8746 0.2216 0.0
H698 H 0.81361 0.89787 0.2964 0.0
H699 H 0.79592 0.9093 0.2197 0.0
H700 H 0.84351 0.9885 0.23838 0.0
H701 H 0.80712 0.95393 0.23981 0.0
H702 H 0.85705 0.90511 0.27361 0.0
H703 H 0.89355 0.93939 0.27173 0.0
C704 C 0.781 0.87341 0.28112 0.0
C705 C 0.76559 0.86652 0.26012 0.0
C706 C 0.80193 0.8929 0.27998 0.0
C707 C 0.80744 0.90616 0.25791 0.0
C708 C 0.79192 0.89939 0.23693 0.0
C709 C 0.77131 0.87953 0.23798 0.0
C710 C 0.8467 0.97039 0.24612 0.0
C711 C 0.87137 0.96663 0.25492 0.0
C712 C 0.82594 0.95064 0.24681 0.0
C713 C 0.8294 0.92697 0.25681 0.0
C714 C 0.85395 0.92326 0.26589 0.0
C715 C 0.87479 0.94283 0.26472 0.0
H716 H 0.75586 0.16037 0.245 0.0
H717 H 0.79045 0.1882 0.31258 0.0
H718 H 0.7865 0.13201 0.24659 0.0
H719 H 0.82088 0.15948 0.3146 0.0
H720 H 0.89118 0.13262 0.29044 0.0
H721 H 0.85758 0.1565 0.2935 0.0
H722 H 0.80106 0.09566 0.26696 0.0
H723 H 0.83487 0.07186 0.26344 0.0
C724 C 0.76988 0.16014 0.26034 0.0
C725 C 0.77118 0.17674 0.27844 0.0
C726 C 0.78733 0.1438 0.26137 0.0
C727 C 0.80637 0.1436 0.28062 0.0
C728 C 0.80681 0.15946 0.29929 0.0
C729 C 0.78934 0.1758 0.29824 0.0
C730 C 0.87158 0.12419 0.28544 0.0
C731 C 0.86578 0.10036 0.27654 0.0
C732 C 0.85224 0.13786 0.28736 0.0
C733 C 0.82656 0.12806 0.28042 0.0
C734 C 0.82066 0.10391 0.27216 0.0
C735 C 0.84004 0.09021 0.27028 0.0
H736 H 0.43093 0.95857 0.98512 0.0
H737 H 0.38769 0.01586 0.99512 0.0
H738 H 0.39286 0.92709 0.98927 0.0
H739 H 0.34981 0.98404 1.00083 0.0
H740 H 0.28058 0.92082 0.9868 0.0
H741 H 0.31753 0.954 0.98096 0.0
H742 H 0.367 0.90721 0.01971 0.0
H743 H 0.33057 0.8741 0.02476 0.0
C744 C 0.41329 0.96451 0.98815 0.0
C745 C 0.41249 0.98984 0.98978 0.0
C746 C 0.39147 0.94635 0.99091 0.0
C747 C 0.36823 0.95292 0.99565 0.0
C748 C 0.3673 0.97827 0.99704 0.0
C749 C 0.38915 0.99651 0.9941 0.0
C750 C 0.29937 0.9177 0.99407 0.0
C751 C 0.30261 0.89469 0.00601 0.0
C752 C 0.32055 0.93675 0.99082 0.0
C753 C 0.34536 0.93322 0.9996 0.0
C754 C 0.34835 0.91042 0.0121 0.0
C755 C 0.32735 0.89142 0.01514 0.0
H756 H 0.29393 0.35603 0.27917 0.0
H757 H 0.23372 0.31565 0.32142 0.0
H758 H 0.27055 0.38979 0.27078 0.0
H759 H 0.21173 0.35104 0.31537 0.0
H760 H 0.16783 0.41378 0.28575 0.0
H761 H 0.18751 0.37629 0.29121 0.0
H762 H 0.26225 0.42283 0.28826 0.0
H763 H 0.24254 0.45932 0.28114 0.0
C764 C 0.27569 0.35415 0.28673 0.0
C765 C 0.26603 0.33276 0.30113 0.0
C766 C 0.26241 0.37403 0.28234 0.0
C767 C 0.23935 0.37373 0.29284 0.0
C768 C 0.22933 0.35216 0.30686 0.0
C769 C 0.24232 0.33191 0.31073 0.0
C770 C 0.18843 0.41575 0.28615 0.0
C771 C 0.2036 0.43941 0.28259 0.0
C772 C 0.19981 0.39431 0.28941 0.0
C773 C 0.22663 0.39622 0.28975 0.0
C774 C 0.24158 0.42017 0.28714 0.0
C775 C 0.23025 0.44129 0.28327 0.0
H776 H 0.13321 0.0095 0.54325 0.0
H777 H 0.08721 0.06688 0.52671 0.0
H778 H 0.17049 0.04128 0.55317 0.0
H779 H 0.12449 0.09851 0.53504 0.0
H780 H 0.1889 0.15118 0.56834 0.0
H781 H 0.1531 0.11678 0.56539 0.0
H782 H 0.2004 0.07345 0.53454 0.0
H783 H 0.23674 0.10775 0.53861 0.0
C784 C 0.13097 0.02885 0.5419 0.0
C785 C 0.10717 0.03559 0.53407 0.0
C786 C 0.15246 0.04712 0.54726 0.0
C787 C 0.15066 0.07257 0.54487 0.0
C788 C 0.12669 0.07917 0.53749 0.0
C789 C 0.10528 0.06097 0.53234 0.0
C790 C 0.19174 0.13424 0.56109 0.0
C791 C 0.2156 0.13231 0.55345 0.0
C792 C 0.17112 0.11451 0.55925 0.0
C793 C 0.17359 0.09239 0.5493 0.0
C794 C 0.19776 0.09009 0.54246 0.0
C795 C 0.2186 0.10979 0.54466 0.0
H796 H 0.78628 0.18549 0.72259 0.0
H797 H 0.77995 0.19574 0.79744 0.0
H798 H 0.75438 0.14724 0.7252 0.0
H799 H 0.74832 0.15738 0.80014 0.0
H800 H 0.72743 0.06453 0.75368 0.0
H801 H 0.75404 0.10513 0.74663 0.0
H802 H 0.70371 0.13881 0.78445 0.0
H803 H 0.67679 0.098 0.79145 0.0
C804 C 0.7779 0.17967 0.73952 0.0
C805 C 0.7857 0.19351 0.75985 0.0
C806 C 0.75977 0.15773 0.74105 0.0
C807 C 0.74885 0.14933 0.76286 0.0
C808 C 0.7562 0.16352 0.78302 0.0
C809 C 0.77451 0.18531 0.78156 0.0
C810 C 0.72166 0.08058 0.7601 0.0
C811 C 0.69992 0.07796 0.77311 0.0
C812 C 0.73695 0.10391 0.75601 0.0
C813 C 0.73103 0.12514 0.76507 0.0
C814 C 0.70886 0.12271 0.77745 0.0
C815 C 0.69338 0.09937 0.78132 0.0
H816 H 0.44076 0.0442 0.53999 0.0
H817 H 0.43794 0.03719 0.61737 0.0
H818 H 0.4108 0.07323 0.53664 0.0
H819 H 0.40817 0.06641 0.61398 0.0
H820 H 0.38066 0.14117 0.60076 0.0
H821 H 0.40864 0.11057 0.60362 0.0
H822 H 0.36602 0.07609 0.54189 0.0
H823 H 0.33792 0.10716 0.5388 0.0
C824 C 0.43358 0.04864 0.55629 0.0
C825 C 0.44186 0.03831 0.57898 0.0
C826 C 0.41636 0.0653 0.55434 0.0
C827 C 0.40706 0.0722 0.57502 0.0
C828 C 0.41523 0.0618 0.59769 0.0
C829 C 0.43238 0.04507 0.59965 0.0
C830 C 0.37713 0.12709 0.58775 0.0
C831 C 0.35699 0.12668 0.56951 0.0
C832 C 0.39314 0.10939 0.58952 0.0
C833 C 0.38956 0.09076 0.57308 0.0
C834 C 0.36944 0.09031 0.55475 0.0
C835 C 0.35326 0.10803 0.55304 0.0
H836 H 0.55218 0.44228 0.53481 0.0
H837 H 0.58482 0.49832 0.48208 0.0
H838 H 0.58394 0.41695 0.52872 0.0
H839 H 0.61662 0.47285 0.47565 0.0
H840 H 0.68507 0.42932 0.49292 0.0
H841 H 0.65412 0.45658 0.4961 0.0
H842 H 0.59324 0.39253 0.49703 0.0
H843 H 0.62398 0.36541 0.49416 0.0
C844 C 0.56615 0.44909 0.52184 0.0
C845 C 0.56585 0.47199 0.50859 0.0
C846 C 0.58425 0.43456 0.51823 0.0
C847 C 0.6026 0.44271 0.50142 0.0
C848 C 0.60277 0.46605 0.48872 0.0
C849 C 0.58456 0.48055 0.49229 0.0
C850 C 0.66503 0.42113 0.49343 0.0
C851 C 0.65705 0.39516 0.49352 0.0
C852 C 0.64729 0.43675 0.49525 0.0
C853 C 0.62127 0.42668 0.49724 0.0
C854 C 0.61322 0.40084 0.49611 0.0
C855 C 0.63086 0.3853 0.49427 0.0
H856 H 0.74984 0.26183 0.33242 0.0
H857 H 0.66908 0.24637 0.34259 0.0
H858 H 0.75778 0.28634 0.36769 0.0
H859 H 0.67704 0.2708 0.37802 0.0
H860 H 0.69893 0.33112 0.43231 0.0
H861 H 0.69106 0.31246 0.39333 0.0
H862 H 0.75688 0.27672 0.41057 0.0
H863 H 0.76498 0.2955 0.4489 0.0
C864 C 0.73378 0.26363 0.34222 0.0
C865 C 0.70887 0.2519 0.33484 0.0
C866 C 0.73832 0.27771 0.36242 0.0
C867 C 0.71808 0.28037 0.37584 0.0
C868 C 0.69304 0.26937 0.36797 0.0
C869 C 0.68848 0.2553 0.3477 0.0
C870 C 0.71184 0.31949 0.42763 0.0
C871 C 0.73253 0.31478 0.44383 0.0
C872 C 0.70724 0.30867 0.40537 0.0
C873 C 0.72336 0.2931 0.3988 0.0
C874 C 0.74429 0.28889 0.41483 0.0
C875 C 0.74881 0.29955 0.43698 0.0
H876 H 0.54124 0.05193 0.92924 0.0
H877 H 0.48696 0.99147 0.89949 0.0
H878 H 0.5748 0.04076 0.90767 0.0
H879 H 0.52057 0.97989 0.87807 0.0
H880 H 0.58113 0.99035 0.82075 0.0
H881 H 0.54656 0.9959 0.84438 0.0
H882 H 0.6005 0.00885 0.90668 0.0
H883 H 0.63498 0.00375 0.88306 0.0
C884 C 0.5366 0.03618 0.91812 0.0
C885 C 0.51151 0.02282 0.91569 0.0
C886 C 0.55581 0.02961 0.9059 0.0
C887 C 0.5504 0.00941 0.89107 0.0
C888 C 0.52532 0.99574 0.88906 0.0
C889 C 0.50611 0.00229 0.90136 0.0
C890 C 0.58552 0.99395 0.8396 0.0
C891 C 0.61088 0.99685 0.84993 0.0
C892 C 0.56569 0.99712 0.85317 0.0
C893 C 0.5708 0.00322 0.87735 0.0
C894 C 0.59595 0.00474 0.88797 0.0
C895 C 0.61572 1.00162 0.87444 0.0
H896 H 0.25092 0.25491 0.35421 0.0
H897 H 0.33313 0.26794 0.36721 0.0
H898 H 0.24701 0.23198 0.3934 0.0
H899 H 0.32934 0.24573 0.40694 0.0
H900 H 0.31457 0.19231 0.4736 0.0
H901 H 0.31774 0.20722 0.43113 0.0
H902 H 0.25217 0.24271 0.43357 0.0
H903 H 0.24849 0.22733 0.47504 0.0
C904 C 0.26816 0.2529 0.36554 0.0
C905 C 0.2923 0.26345 0.35778 0.0
C906 C 0.26597 0.2398 0.38805 0.0
C907 C 0.28785 0.23725 0.40359 0.0
C908 C 0.31208 0.24707 0.39543 0.0
C909 C 0.31427 0.25994 0.37272 0.0
C910 C 0.30063 0.20295 0.46488 0.0
C911 C 0.28135 0.20865 0.47786 0.0
C912 C 0.30256 0.21169 0.4406 0.0
C913 C 0.28521 0.22621 0.42881 0.0
C914 C 0.26562 0.23124 0.44174 0.0
C915 C 0.26366 0.22254 0.46577 0.0
H916 H 0.46488 0.49951 0.95427 0.0
H917 H 0.53905 0.5358 0.93301 0.0
H918 H 0.44696 0.50381 0.91232 0.0
H919 H 0.52129 0.53987 0.89112 0.0
H920 H 0.48797 0.50741 0.81884 0.0
H921 H 0.50373 0.50691 0.86114 0.0
H922 H 0.4392 0.53773 0.87804 0.0
H923 H 0.42327 0.53846 0.83534 0.0
C924 C 0.47726 0.50856 0.94063 0.0
C925 C 0.5034 0.51703 0.94671 0.0
C926 C 0.46701 0.51112 0.91671 0.0
C927 C 0.48281 0.52196 0.89849 0.0
C928 C 0.50876 0.53115 0.90477 0.0
C929 C 0.5189 0.52888 0.92867 0.0
C930 C 0.47703 0.51407 0.83149 0.0
C931 C 0.45432 0.52298 0.82367 0.0
C932 C 0.4862 0.51393 0.85572 0.0
C933 C 0.47277 0.52242 0.87281 0.0
C934 C 0.44988 0.53104 0.86518 0.0
C935 C 0.44084 0.53153 0.84077 0.0
H936 H 0.67868 0.74599 0.1881 0.0
H937 H 0.75535 0.78547 0.20447 0.0
H938 H 0.69516 0.71894 0.16309 0.0
H939 H 0.77195 0.75853 0.17934 0.0
H940 H 0.79563 0.69485 0.14445 0.0
H941 H 0.77769 0.71471 0.17502 0.0
H942 H 0.71405 0.72602 0.12405 0.0
H943 H 0.73164 0.70594 0.094 0.0
C944 C 0.6991 0.74865 0.18655 0.0
C945 C 0.7158 0.76769 0.19828 0.0
C946 C 0.70853 0.73325 0.17219 0.0
C947 C 0.73486 0.73659 0.16924 0.0
C948 C 0.75162 0.75524 0.18153 0.0
C949 C 0.74216 0.77073 0.19579 0.0
C950 C 0.77759 0.70123 0.14 0.0
C951 C 0.76527 0.69929 0.1167 0.0
C952 C 0.76744 0.71276 0.1574 0.0
C953 C 0.74457 0.72213 0.15188 0.0
C954 C 0.73165 0.71894 0.12894 0.0
C955 C 0.74192 0.70772 0.11155 0.0
H956 H 0.96079 0.02562 0.06491 0.0
H957 H 0.03238 0.02392 0.10724 0.0
H958 H 0.9389 0.02319 0.10169 0.0
H959 H 0.01108 0.02295 0.14413 0.0
H960 H 0.96591 0.01134 0.20881 0.0
H961 H 0.98303 0.00316 0.17212 0.0
H962 H 0.93531 0.05007 0.13073 0.0
H963 H 0.91717 0.05696 0.16731 0.0
C964 C 0.97171 0.02435 0.08221 0.0
C965 C 0.99817 0.02484 0.08337 0.0
C966 C 0.9593 0.0233 0.1033 0.0
C967 C 0.9732 0.02332 0.12603 0.0
C968 C 0.99957 0.0226 0.12709 0.0
C969 C 0.01187 0.02319 0.10596 0.0
C970 C 0.95876 0.01959 0.19187 0.0
C971 C 0.94011 0.03479 0.19106 0.0
C972 C 0.96878 0.01506 0.17075 0.0
C973 C 0.96076 0.02601 0.1483 0.0
C974 C 0.94171 0.04086 0.14751 0.0
C975 C 0.93139 0.04502 0.16858 0.0
H976 H 0.32903 0.79392 0.17542 0.0
H977 H 0.26001 0.80353 0.20512 0.0
H978 H 0.31105 0.80553 0.13496 0.0
H979 H 0.24198 0.81511 0.16477 0.0
H980 H 0.23189 0.86201 0.0934 0.0
H981 H 0.25015 0.85013 0.13343 0.0
H982 H 0.2755 0.78878 0.10486 0.0
H983 H 0.25717 0.80055 0.06481 0.0
C984 C 0.30993 0.79831 0.17319 0.0
C985 C 0.29575 0.79751 0.19326 0.0
C986 C 0.29963 0.8049 0.1501 0.0
C987 C 0.27509 0.81117 0.14671 0.0
C988 C 0.26101 0.81056 0.16685 0.0
C989 C 0.27124 0.80379 0.1899 0.0
C990 C 0.24138 0.846 0.09562 0.0
C991 C 0.24321 0.83234 0.07585 0.0
C992 C 0.25173 0.83913 0.11859 0.0
C993 C 0.26425 0.81852 0.12227 0.0
C994 C 0.26621 0.80493 0.1025 0.0
C995 C 0.25569 0.81168 0.07955 0.0
H996 H 0.04687 0.49866 0.10077 0.0
H997 H 0.99678 0.51495 0.15138 0.0
H998 H 0.08033 0.49685 0.13301 0.0
H999 H 0.0311 0.51484 0.18355 0.0
H1000 H 0.09075 0.48935 0.24051 0.0
H1001 H 0.05571 0.48911 0.20892 0.0
H1002 H 0.1099 0.52256 0.15756 0.0
H1003 H 0.14468 0.52188 0.18864 0.0
C1004 C 0.04292 0.50187 0.1188 0.0
C1005 C 0.01892 0.5068 0.12337 0.0
C1006 C 0.06236 0.5012 0.13732 0.0
C1007 C 0.05862 0.50583 0.16101 0.0
C1008 C 0.03466 0.5109 0.16564 0.0
C1009 C 0.01506 0.51134 0.14707 0.0
C1010 C 0.09515 0.49649 0.22242 0.0
C1011 C 0.12062 0.50544 0.21715 0.0
C1012 C 0.07502 0.49655 0.20432 0.0
C1013 C 0.07985 0.50573 0.18054 0.0
C1014 C 0.10534 0.51481 0.17544 0.0
C1015 C 0.12539 0.51453 0.19339 0.0
H1016 H 0.38731 0.74914 0.27317 0.0
H1017 H 0.33073 0.73823 0.32517 0.0
H1018 H 0.42135 0.75383 0.30574 0.0
H1019 H 0.36459 0.74379 0.35776 0.0
H1020 H 0.42935 0.72874 0.41203 0.0
H1021 H 0.39616 0.72376 0.37898 0.0
H1022 H 0.44253 0.78041 0.3354 0.0
H1023 H 0.47622 0.7846 0.36821 0.0
C1024 C 0.3822 0.74806 0.29159 0.0
C1025 C 0.35642 0.74324 0.29668 0.0
C1026 C 0.40169 0.75083 0.31028 0.0
C1027 C 0.3958 0.74913 0.33448 0.0
C1028 C 0.36991 0.74468 0.33944 0.0
C1029 C 0.35047 0.74161 0.32077 0.0
C1030 C 0.43249 0.74012 0.39539 0.0
C1031 C 0.45544 0.75709 0.39279 0.0
C1032 C 0.41335 0.73739 0.37644 0.0
C1033 C 0.4165 0.75179 0.35448 0.0
C1034 C 0.43952 0.76873 0.35188 0.0
C1035 C 0.45882 0.77124 0.37076 0.0
H1036 H 0.9498 0.4451 0.00647 0.0
H1037 H 0.0309 0.4605 0.02665 0.0
H1038 H 0.95455 0.40653 0.98952 0.0
H1039 H 0.03577 0.42191 0.00988 0.0
H1040 H 0.03791 0.3627 0.95686 0.0
H1041 H 0.03256 0.4025 0.97072 0.0
H1042 H 0.96494 0.36578 0.0047 0.0
H1043 H 0.97004 0.32624 0.99077 0.0
C1044 C 0.96862 0.44018 0.0072 0.0
C1045 C 0.98999 0.45576 0.01768 0.0
C1046 C 0.97137 0.41811 0.9976 0.0
C1047 C 0.99557 0.4112 0.99828 0.0
C1048 C 0.01695 0.42689 0.00874 0.0
C1049 C 0.01416 0.44888 0.01846 0.0
C1050 C 0.02179 0.36316 0.96712 0.0
C1051 C 1.00446 0.34121 0.97274 0.0
C1052 C 0.01883 0.38593 0.9752 0.0
C1053 C 0.99835 0.38729 0.98886 0.0
C1054 C 0.98076 0.36545 0.99402 0.0
C1055 C 0.98381 0.34271 0.98613 0.0
H1056 H 0.6513 0.82277 0.26787 0.0
H1057 H 0.71025 0.83559 0.32613 0.0
H1058 H 0.61888 0.82497 0.29528 0.0
H1059 H 0.67802 0.8366 0.35389 0.0
H1060 H 0.61897 0.85296 0.39791 0.0
H1061 H 0.64868 0.8585 0.36652 0.0
H1062 H 0.59765 0.80233 0.32679 0.0
H1063 H 0.56754 0.7979 0.35743 0.0
C1064 C 0.65723 0.82586 0.28663 0.0
C1065 C 0.68321 0.82897 0.29494 0.0
C1066 C 0.63869 0.82707 0.30239 0.0
C1067 C 0.6457 0.831 0.32692 0.0
C1068 C 0.67182 0.83415 0.33509 0.0
C1069 C 0.69034 0.83335 0.31924 0.0
C1070 C 0.61391 0.84222 0.38218 0.0
C1071 C 0.591 0.82489 0.38026 0.0
C1072 C 0.63106 0.84516 0.36428 0.0
C1073 C 0.62592 0.83051 0.34423 0.0
C1074 C 0.60231 0.81414 0.34176 0.0
C1075 C 0.58498 0.81152 0.35944 0.0
H1076 H 0.02084 0.07464 0.98 0.0
H1077 H 0.02998 0.10532 0.04967 0.0
H1078 H 0.01992 0.11621 0.96042 0.0
H1079 H 0.02944 0.14671 0.03029 0.0
H1080 H 1.00564 0.21475 0.99103 0.0
H1081 H 1.00167 0.17175 0.00779 0.0
H1082 H 0.04772 0.15567 0.95349 0.0
H1083 H 0.05095 0.19836 0.9363 0.0
C1084 C 0.02282 0.09029 0.99109 0.0
C1085 C 0.02532 0.08672 0.01635 0.0
C1086 C 0.02228 0.11409 0.97992 0.0
C1087 C 0.02439 0.1348 0.99379 0.0
C1088 C 0.02713 0.13114 0.01904 0.0
C1089 C 0.02755 0.10741 0.03017 0.0
C1090 C 0.01458 0.20195 0.98246 0.0
C1091 C 0.02866 0.21001 0.96238 0.0
C1092 C 0.01251 0.17734 0.99219 0.0
C1093 C 0.02459 0.16029 0.98214 0.0
C1094 C 0.03796 0.16819 0.96156 0.0
C1095 C 0.03993 0.19275 0.95178 0.0
H1096 H 0.35871 0.30543 0.24192 0.0
H1097 H 0.33939 0.2257 0.25513 0.0
H1098 H 0.39514 0.30043 0.22039 0.0
H1099 H 0.37512 0.22048 0.23309 0.0
H1100 H 0.45204 0.2178 0.20813 0.0
H1101 H 0.42052 0.22603 0.2338 0.0
H1102 H 0.40374 0.28621 0.18318 0.0
H1103 H 0.43581 0.27844 0.1579 0.0
C1104 C 0.36243 0.28686 0.24033 0.0
C1105 C 0.34643 0.26598 0.25039 0.0
C1106 C 0.38314 0.28394 0.22784 0.0
C1107 C 0.38819 0.26003 0.22497 0.0
C1108 C 0.3722 0.23919 0.23528 0.0
C1109 C 0.35159 0.24214 0.24781 0.0
C1110 C 0.44184 0.23298 0.2026 0.0
C1111 C 0.44638 0.24735 0.18085 0.0
C1112 C 0.4236 0.2376 0.21726 0.0
C1113 C 0.40929 0.25662 0.2105 0.0
C1114 C 0.41451 0.27156 0.18914 0.0
C1115 C 0.43286 0.26703 0.17455 0.0
H1116 H 0.55279 0.42237 1.00033 0.0
H1117 H 0.5659 0.45147 0.07077 0.0
H1118 H 0.54498 0.38005 0.01886 0.0
H1119 H 0.55807 0.40871 0.08951 0.0
H1120 H 0.50918 0.3272 0.10586 0.0
H1121 H 0.51988 0.37117 0.09146 0.0
H1122 H 0.57165 0.35234 0.04403 0.0
H1123 H 0.56122 0.30881 0.05817 0.0
C1124 C 0.55394 0.41967 0.01982 0.0
C1125 C 0.55985 0.44019 0.03412 0.0
C1126 C 0.54965 0.39544 0.03043 0.0
C1127 C 0.55099 0.39109 0.05563 0.0
C1128 C 0.55682 0.41157 0.07004 0.0
C1129 C 0.56146 0.43595 0.05936 0.0
C1130 C 0.52304 0.33249 0.09255 0.0
C1131 C 0.53408 0.31434 0.08301 0.0
C1132 C 0.52923 0.35767 0.0844 0.0
C1133 C 0.54638 0.36509 0.06645 0.0
C1134 C 0.55808 0.34711 0.05762 0.0
C1135 C 0.5521 0.32212 0.06583 0.0
H1136 H 0.64106 0.18347 0.26228 0.0
H1137 H 0.66882 0.26245 0.25128 0.0
H1138 H 0.60705 0.18644 0.22983 0.0
H1139 H 0.63526 0.26529 0.21853 0.0
H1140 H 0.59747 0.24498 0.14087 0.0
H1141 H 0.62814 0.24312 0.176 0.0
H1142 H 0.56653 0.21222 0.22039 0.0
H1143 H 0.53547 0.21468 0.1852 0.0
C1144 C 0.63976 0.20144 0.25298 0.0
C1145 C 0.65749 0.22274 0.25921 0.0
C1146 C 0.62029 0.20315 0.23458 0.0
C1147 C 0.61862 0.22608 0.22177 0.0
C1148 C 0.6362 0.24741 0.22817 0.0
C1149 C 0.65529 0.2458 0.24689 0.0
C1150 C 0.5904 0.23782 0.1581 0.0
C1151 C 0.56405 0.22992 0.16027 0.0
C1152 C 0.60795 0.23689 0.1782 0.0
C1153 C 0.59964 0.22756 0.20081 0.0
C1154 C 0.57335 0.21945 0.20308 0.0
C1155 C 0.55564 0.22094 0.18301 0.0
H1156 H 0.47865 0.09691 0.98532 0.0
H1157 H 0.46065 0.04724 0.04795 0.0
H1158 H 0.4857 0.13247 0.0101 0.0
H1159 H 0.46847 0.08268 0.07304 0.0
H1160 H 0.45499 0.15374 0.10449 0.0
H1161 H 0.45075 0.11703 0.08165 0.0
H1162 H 0.51285 0.15404 0.04 0.0
H1163 H 0.5162 0.19104 0.06208 0.0
C1164 C 0.47657 0.09359 0.00448 0.0
C1165 C 0.46899 0.0693 0.01465 0.0
C1166 C 0.48072 0.11398 0.01878 0.0
C1167 C 0.4777 0.11059 0.0437 0.0
C1168 C 0.47054 0.08616 0.0539 0.0
C1169 C 0.46613 0.0658 0.03954 0.0
C1170 C 0.46791 0.15394 0.09062 0.0
C1171 C 0.4859 0.17541 0.08512 0.0
C1172 C 0.46556 0.1328 0.07753 0.0
C1173 C 0.48132 0.13249 0.05875 0.0
C1174 C 0.49997 0.15369 0.05393 0.0
C1175 C 0.50211 0.1749 0.06682 0.0
H1176 H 0.25324 0.37564 0.71865 0.0
H1177 H 0.27169 0.36488 0.7953 0.0
H1178 H 0.28892 0.41108 0.71648 0.0
H1179 H 0.30758 0.39985 0.79303 0.0
H1180 H 0.38776 0.43818 0.76666 0.0
H1181 H 0.35027 0.40512 0.7689 0.0
H1182 H 0.30197 0.45637 0.73714 0.0
H1183 H 0.33948 0.48984 0.73539 0.0
C1184 C 0.2649 0.38094 0.73498 0.0
C1185 C 0.25978 0.36766 0.75714 0.0
C1186 C 0.28513 0.4012 0.73377 0.0
C1187 C 0.30088 0.40806 0.7546 0.0
C1188 C 0.29569 0.39483 0.77674 0.0
C1189 C 0.27516 0.37496 0.77805 0.0
C1190 C 0.36917 0.44244 0.76016 0.0
C1191 C 0.36655 0.4666 0.75085 0.0
C1192 C 0.34775 0.42356 0.76155 0.0
C1193 C 0.32335 0.4283 0.75319 0.0
C1194 C 0.32065 0.45232 0.74362 0.0
C1195 C 0.34205 0.47142 0.74273 0.0
H1196 H 0.28024 0.66724 0.81392 0.0
H1197 H 0.26113 0.67282 0.73713 0.0
H1198 H 0.30309 0.63317 0.80944 0.0
H1199 H 0.28444 0.63939 0.73238 0.0
H1200 H 0.31318 0.56719 0.73179 0.0
H1201 H 0.2854 0.5958 0.7397 0.0
H1202 H 0.34218 0.62812 0.79394 0.0
H1203 H 0.36962 0.59909 0.78649 0.0
C1204 C 0.28089 0.66104 0.79611 0.0
C1205 C 0.2692 0.67274 0.77586 0.0
C1206 C 0.29407 0.64168 0.79348 0.0
C1207 C 0.2958 0.63361 0.77051 0.0
C1208 C 0.28331 0.64487 0.75037 0.0
C1209 C 0.27009 0.66416 0.75303 0.0
C1210 C 0.31962 0.58022 0.74559 0.0
C1211 C 0.34372 0.58093 0.75839 0.0
C1212 C 0.30374 0.59674 0.75003 0.0
C1213 C 0.31159 0.61446 0.76732 0.0
C1214 C 0.33534 0.61458 0.78068 0.0
C1215 C 0.35118 0.598 0.7763 0.0
H1216 H 0.88993 0.52286 0.48205 0.0
H1217 H 0.9366 0.46636 0.49988 0.0
H1218 H 0.85128 0.491 0.48418 0.0
H1219 H 0.89839 0.43474 0.5031 0.0
H1220 H 0.82914 0.37884 0.48512 0.0
H1221 H 0.86512 0.41246 0.47961 0.0
H1222 H 0.82483 0.46281 0.50974 0.0
H1223 H 0.78806 0.42909 0.51403 0.0
C1224 C 0.89185 0.50363 0.48664 0.0
C1225 C 0.9162 0.497 0.49055 0.0
C1226 C 0.86975 0.48537 0.48796 0.0
C1227 C 0.87157 0.46014 0.49354 0.0
C1228 C 0.89607 0.45378 0.49803 0.0
C1229 C 0.91806 0.47192 0.49634 0.0
C1230 C 0.82787 0.39715 0.49038 0.0
C1231 C 0.80588 0.40129 0.5002 0.0
C1232 C 0.84863 0.41645 0.48743 0.0
C1233 C 0.84826 0.44035 0.49472 0.0
C1234 C 0.82583 0.44473 0.50379 0.0
C1235 C 0.80476 0.42541 0.50633 0.0
H1236 H 0.79257 0.85779 0.77915 0.0
H1237 H 0.73658 0.82208 0.82812 0.0
H1238 H 0.76844 0.89072 0.76904 0.0
H1239 H 0.71399 0.857 0.82007 0.0
H1240 H 0.66841 0.91786 0.78794 0.0
H1241 H 0.68798 0.88032 0.79503 0.0
H1242 H 0.76216 0.92564 0.78477 0.0
H1243 H 0.74254 0.96199 0.77622 0.0
C1244 C 0.77508 0.85673 0.78781 0.0
C1245 C 0.76687 0.83692 0.80464 0.0
C1246 C 0.76141 0.87619 0.78238 0.0
C1247 C 0.73945 0.87716 0.79417 0.0
C1248 C 0.73074 0.85709 0.81055 0.0
C1249 C 0.7441 0.83716 0.81553 0.0
C1250 C 0.68885 0.91954 0.78703 0.0
C1251 C 0.70383 0.94278 0.78104 0.0
C1252 C 0.70015 0.89808 0.79123 0.0
C1253 C 0.72675 0.89961 0.79003 0.0
C1254 C 0.74158 0.9232 0.78491 0.0
C1255 C 0.73029 0.94427 0.78017 0.0
H1256 H 0.61604 0.51772 0.06003 0.0
H1257 H 0.61988 0.53727 0.98365 0.0
H1258 H 0.6533 0.55032 0.06842 0.0
H1259 H 0.65618 0.57024 0.99223 0.0
H1260 H 0.68947 0.64736 0.0227 0.0
H1261 H 0.65691 0.61084 0.01494 0.0
H1262 H 0.70329 0.56416 0.0581 0.0
H1263 H 0.73649 0.60096 0.06562 0.0
C1264 C 0.62493 0.52869 0.04504 0.0
C1265 C 0.61456 0.52513 0.02117 0.0
C1266 C 0.64623 0.54734 0.04987 0.0
C1267 C 0.65737 0.5629 0.03097 0.0
C1268 C 0.6477 0.55871 0.00714 0.0
C1269 C 0.62674 0.53994 0.00229 0.0
C1270 C 0.69284 0.62934 0.03052 0.0
C1271 C 0.71557 0.62705 0.04478 0.0
C1272 C 0.67423 0.60843 0.02598 0.0
C1273 C 0.67764 0.58473 0.0359 0.0
C1274 C 0.70023 0.58229 0.05031 0.0
C1275 C 0.71922 0.60327 0.05448 0.0
H1276 H 0.26857 0.696 0.29809 0.0
H1277 H 0.27769 0.68373 0.22429 0.0
H1278 H 0.23825 0.65679 0.30131 0.0
H1279 H 0.24703 0.64472 0.22738 0.0
H1280 H 0.22503 0.56228 0.25818 0.0
H1281 H 0.24912 0.60392 0.25016 0.0
H1282 H 0.19505 0.63487 0.28588 0.0
H1283 H 0.1707 0.593 0.29388 0.0
C1284 C 0.26389 0.68503 0.2825 0.0
C1285 C 0.27563 0.69284 0.261 0.0
C1286 C 0.24634 0.66272 0.28426 0.0
C1287 C 0.24033 0.64765 0.26462 0.0
C1288 C 0.25146 0.65585 0.24287 0.0
C1289 C 0.26885 0.67827 0.24105 0.0
C1290 C 0.21792 0.57792 0.26394 0.0
C1291 C 0.19589 0.57426 0.27665 0.0
C1292 C 0.23175 0.60185 0.25928 0.0
C1293 C 0.22401 0.62267 0.26742 0.0
C1294 C 0.20158 0.61913 0.27956 0.0
C1295 C 0.18759 0.59517 0.28402 0.0
H1296 H 0.94365 0.54965 0.0424 0.0
H1297 H 0.93893 0.53966 0.11949 0.0
H1298 H 0.91379 0.57874 0.03953 0.0
H1299 H 0.90918 0.56888 0.11662 0.0
H1300 H 0.87973 0.64257 0.1058 0.0
H1301 H 0.90878 0.61298 0.10792 0.0
H1302 H 0.86892 0.58088 0.04386 0.0
H1303 H 0.83983 0.61094 0.04151 0.0
C1304 C 0.9361 0.55348 0.05874 0.0
C1305 C 0.94376 0.54224 0.0812 0.0
C1306 C 0.91893 0.57018 0.05706 0.0
C1307 C 0.90903 0.57619 0.07782 0.0
C1308 C 0.9167 0.56498 0.10028 0.0
C1309 C 0.93382 0.54823 0.10195 0.0
C1310 C 0.87708 0.62925 0.0921 0.0
C1311 C 0.85737 0.62917 0.07346 0.0
C1312 C 0.8937 0.61213 0.09344 0.0
C1313 C 0.89117 0.59442 0.07616 0.0
C1314 C 0.87157 0.5944 0.05737 0.0
C1315 C 0.85481 0.61155 0.05607 0.0
H1316 H 0.04908 0.9437 0.02813 0.0
H1317 H 0.08836 0.00253 0.98181 0.0
H1318 H 0.07997 0.91741 0.02204 0.0
H1319 H 0.1193 0.97615 0.97536 0.0
H1320 H 0.18398 0.92806 0.99328 0.0
H1321 H 0.15416 0.95645 0.9965 0.0
H1322 H 0.09071 0.89519 0.98939 0.0
H1323 H 0.12031 0.86692 0.9865 0.0
C1324 C 0.06432 0.95091 0.01655 0.0
C1325 C 0.06612 0.9749 0.00507 0.0
C1326 C 0.08193 0.93586 0.01293 0.0
C1327 C 0.1019 0.94453 0.99789 0.0
C1328 C 0.10417 0.9689 0.98703 0.0
C1329 C 0.08645 0.98395 0.99061 0.0
C1330 C 0.16364 0.92076 0.99202 0.0
C1331 C 0.15456 0.89517 0.98987 0.0
C1332 C 0.14655 0.93703 0.99387 0.0
C1333 C 0.12007 0.928 0.99364 0.0
C1334 C 0.11101 0.90265 0.99023 0.0
C1335 C 0.12801 0.88646 0.98837 0.0
loop_
_geom_bond_atom_site_label_1
_geom_bond_atom_site_label_2
_geom_bond_distance
_geom_bond_site_symmetry_2
_ccdc_geom_bond_type
H0 C7 0.929 . S
H1 C10 0.930 . S
H2 C12 0.929 1_556 S
H3 C4 0.969 . S
C4 H3 0.969 . S
C4 O5 1.550 1_565 S
C4 H6 0.973 . S
O5 C4 1.550 1_545 S
O5 C11 1.412 . S
H6 C4 0.973 . S
C7 H0 0.929 . S
C7 C8 1.400 1_655 S
C7 C9 1.364 . S
C8 C7 1.400 1_455 S
C8 C12 1.377 . S
C9 C7 1.364 . S
C9 C10 1.374 1_655 S
C10 H1 0.930 . S
C10 C9 1.374 1_455 S
C10 C11 1.383 . S
C11 O5 1.412 . S
C11 C10 1.383 . S
C11 C12 1.394 . S
C12 H2 0.929 1_554 S
C12 C8 1.377 . S
C12 C11 1.394 . S
H13 C20 0.929 . S
H14 C23 0.930 . S
H15 C25 0.929 . S
H16 C17 0.969 . S
C17 H16 0.969 . S
C17 O18 1.550 . S
C17 H19 0.973 . S
O18 C17 1.550 . S
O18 C24 1.412 . S
H19 C17 0.973 . S
C20 H13 0.929 . S
C20 C21 1.400 . S
C20 C22 1.364 . S
C21 C20 1.400 . S
C21 C25 1.377 . S
C22 C20 1.364 . S
C22 C23 1.374 . S
C23 H14 0.930 . S
C23 C22 1.374 . S
C23 C24 1.383 . S
C24 O18 1.412 . S
C24 C23 1.383 . S
C24 C25 1.394 . S
C25 H15 0.929 . S
C25 C21 1.377 . S
C25 C24 1.394 . S
H26 C33 0.929 . S
H27 C36 0.930 . S
H28 C38 0.948 . S
H29 C30 0.969 . S
C30 H29 0.969 . S
C30 O31 1.550 . S
C30 H32 0.973 . S
O31 C30 1.550 . S
O31 C37 1.412 . S
H32 C30 0.973 . S
C33 H26 0.929 . S
C33 C34 1.400 . S
C33 C35 1.364 . S
C34 C33 1.400 . S
C34 C38 1.369 1_655 S
C35 C33 1.364 . S
C35 C36 1.374 . S
C36 H27 0.930 . S
C36 C35 1.374 . S
C36 C37 1.383 . S
C37 O31 1.412 . S
C37 C36 1.383 . S
C37 C38 1.384 1_655 S
C38 H28 0.948 . S
C38 C34 1.369 1_455 S
C38 C37 1.384 1_455 S
H39 C46 0.929 . S
H40 C49 0.930 . S
H41 C51 0.929 . S
H42 C43 0.969 . S
C43 H42 0.969 . S
C43 O44 1.550 . S
C43 H45 0.973 . S
O44 C43 1.550 . S
O44 C50 1.412 . S
H45 C43 0.973 . S
C46 H39 0.929 . S
C46 C47 1.400 . S
C46 C48 1.364 . S
C47 C46 1.400 . S
C47 C51 1.377 . S
C48 C46 1.364 . S
C48 C49 1.374 . S
C49 H40 0.930 . S
C49 C48 1.374 . S
C49 C50 1.383 . S
C50 O44 1.412 . S
C50 C49 1.383 . S
C50 C51 1.394 . S
C51 H41 0.929 . S
C51 C47 1.377 . S
C51 C50 1.394 . S
H52 C59 0.929 . S
H53 C62 0.930 . S
H54 C64 0.929 . S
H55 C56 0.969 . S
C56 H55 0.969 . S
C56 O57 1.550 . S
C56 H58 0.973 . S
O57 C56 1.550 . S
O57 C63 1.412 . S
H58 C56 0.973 . S
C59 H52 0.929 . S
C59 C60 1.400 . S
C59 C61 1.364 . S
C60 C59 1.400 . S
C60 C64 1.377 1_565 S
C61 C59 1.364 . S
C61 C62 1.374 . S
C62 H53 0.930 . S
C62 C61 1.374 . S
C62 C63 1.383 . S
C63 O57 1.412 . S
C63 C62 1.383 . S
C63 C64 1.394 1_565 S
C64 H54 0.929 . S
C64 C60 1.377 1_545 S
C64 C63 1.394 1_545 S
H65 C72 0.929 . S
H66 C75 0.930 . S
H67 C77 0.929 . S
H68 C69 0.969 . S
C69 H68 0.969 . S
C69 O70 1.550 . S
C69 H71 0.973 . S
O70 C69 1.550 . S
O70 C76 1.412 . S
H71 C69 0.973 . S
C72 H65 0.929 . S
C72 C73 1.400 . S
C72 C74 1.364 . S
C73 C72 1.400 . S
C73 C77 1.377 . S
C74 C72 1.364 . S
C74 C75 1.374 . S
C75 H66 0.930 . S
C75 C74 1.374 . S
C75 C76 1.383 . S
C76 O70 1.412 . S
C76 C75 1.383 . S
C76 C77 1.394 . S
C77 H67 0.929 . S
C77 C73 1.377 . S
C77 C76 1.394 . S
H78 C85 0.929 . S
H79 C88 0.930 . S
H80 C90 0.929 1_455 S
H81 C82 0.989 . S
C82 H81 0.989 . S
C82 O83 1.549 1_655 S
C82 H84 0.984 . S
O83 C82 1.549 1_455 S
O83 C89 1.412 1_455 S
H84 C82 0.984 . S
C85 H78 0.929 . S
C85 C86 1.400 . S
C85 C87 1.364 . S
C86 C85 1.400 . S
C86 C90 1.377 . S
C87 C85 1.364 . S
C87 C88 1.374 . S
C88 H79 0.930 . S
C88 C87 1.374 . S
C88 C89 1.383 . S
C89 O83 1.412 1_655 S
C89 C88 1.383 . S
C89 C90 1.394 . S
C90 H80 0.929 1_655 S
C90 C86 1.377 . S
C90 C89 1.394 . S
H91 C98 0.929 . S
H92 C101 0.930 . S
H93 C103 0.929 . S
H94 C95 0.969 . S
C95 H94 0.969 . S
C95 O96 1.550 . S
C95 H97 0.973 . S
O96 C95 1.550 . S
O96 C102 1.412 . S
H97 C95 0.973 . S
C98 H91 0.929 . S
C98 C99 1.400 . S
C98 C100 1.364 . S
C99 C98 1.400 . S
C99 C103 1.377 . S
C100 C98 1.364 . S
C100 C101 1.374 . S
C101 H92 0.930 . S
C101 C100 1.374 . S
C101 C102 1.383 . S
C102 O96 1.412 . S
C102 C101 1.383 . S
C102 C103 1.394 . S
C103 H93 0.929 . S
C103 C99 1.377 . S
C103 C102 1.394 . S
H104 C111 0.929 . S
H105 C114 0.930 . S
H106 C116 0.929 . S
H107 C108 0.969 . S
C108 H107 0.969 . S
C108 O109 1.550 . S
C108 H110 0.973 . S
O109 C108 1.550 . S
O109 C115 1.412 . S
H110 C108 0.973 . S
C111 H104 0.929 . S
C111 C112 1.400 . S
C111 C113 1.364 . S
C112 C111 1.400 . S
C112 C116 1.377 . S
C113 C111 1.364 . S
C113 C114 1.374 . S
C114 H105 0.930 . S
C114 C113 1.374 . S
C114 C115 1.383 . S
C115 O109 1.412 . S
C115 C114 1.383 . S
C115 C116 1.394 . S
C116 H106 0.929 . S
C116 C112 1.377 . S
C116 C115 1.394 . S
H117 C124 0.929 . S
H118 C127 0.930 . S
H119 C129 0.929 . S
H120 C121 0.969 . S
C121 H120 0.969 . S
C121 O122 1.550 . S
C121 H123 0.973 . S
O122 C121 1.550 . S
O122 C128 1.412 . S
H123 C121 0.973 . S
C124 H117 0.929 . S
C124 C125 1.400 . S
C124 C126 1.364 . S
C125 C124 1.400 . S
C125 C129 1.377 . S
C126 C124 1.364 . S
C126 C127 1.374 . S
C127 H118 0.930 . S
C127 C126 1.374 . S
C127 C128 1.383 . S
C128 O122 1.412 . S
C128 C127 1.383 . S
C128 C129 1.394 . S
C129 H119 0.929 . S
C129 C125 1.377 . S
C129 C128 1.394 . S
H130 C137 0.929 . S
H131 C140 0.930 . S
H132 C142 0.929 . S
H133 C134 0.969 . S
C134 H133 0.969 . S
C134 O135 1.550 . S
C134 H136 0.973 . S
O135 C134 1.550 . S
O135 C141 1.412 . S
H136 C134 0.973 . S
C137 H130 0.929 . S
C137 C138 1.400 . S
C137 C139 1.364 . S
C138 C137 1.400 . S
C138 C142 1.377 . S
C139 C137 1.364 . S
C139 C140 1.374 . S
C140 H131 0.930 . S
C140 C139 1.374 . S
C140 C141 1.383 . S
C141 O135 1.412 . S
C141 C140 1.383 . S
C141 C142 1.394 . S
C142 H132 0.929 . S
C142 C138 1.377 . S
C142 C141 1.394 . S
H143 C150 0.929 . S
H144 C153 0.930 . S
H145 C155 0.929 . S
H146 C147 0.969 . S
C147 H146 0.969 . S
C147 O148 1.550 . S
C147 H149 0.973 . S
O148 C147 1.550 . S
O148 C154 1.412 . S
H149 C147 0.973 . S
C150 H143 0.929 . S
C150 C151 1.400 . S
C150 C152 1.364 . S
C151 C150 1.400 . S
C151 C155 1.377 . S
C152 C150 1.364 . S
C152 C153 1.374 . S
C153 H144 0.930 . S
C153 C152 1.374 . S
C153 C154 1.383 . S
C154 O148 1.412 . S
C154 C153 1.383 . S
C154 C155 1.394 . S
C155 H145 0.929 . S
C155 C151 1.377 . S
C155 C154 1.394 . S
H156 C163 0.929 . S
H157 C166 0.930 . S
H158 C168 0.929 . S
H159 C160 0.969 . S
C160 H159 0.969 . S
C160 O161 1.550 . S
C160 H162 0.973 . S
O161 C160 1.550 . S
O161 C167 1.412 . S
H162 C160 0.973 . S
C163 H156 0.929 . S
C163 C164 1.400 . S
C163 C165 1.364 . S
C164 C163 1.400 . S
C164 C168 1.377 . S
C165 C163 1.364 . S
C165 C166 1.374 . S
C166 H157 0.930 . S
C166 C165 1.374 . S
C166 C167 1.383 . S
C167 O161 1.412 . S
C167 C166 1.383 . S
C167 C168 1.394 . S
C168 H158 0.929 . S
C168 C164 1.377 . S
C168 C167 1.394 . S
H169 C176 0.952 . S
H170 C179 0.930 . S
H171 C181 0.929 . S
H172 C173 0.969 . S
C173 H172 0.969 . S
C173 O174 1.550 . S
C173 H175 0.973 . S
O174 C173 1.550 . S
O174 C180 1.412 . S
H175 C173 0.973 . S
C176 H169 0.952 . S
C176 C177 1.385 1_554 S
C176 C178 1.356 1_554 S
C177 C176 1.385 1_556 S
C177 C181 1.377 . S
C178 C176 1.356 1_556 S
C178 C179 1.374 . S
C179 H170 0.930 . S
C179 C178 1.374 . S
C179 C180 1.383 . S
C180 O174 1.412 . S
C180 C179 1.383 . S
C180 C181 1.394 . S
C181 H171 0.929 . S
C181 C177 1.377 . S
C181 C180 1.394 . S
H182 C189 0.929 . S
H183 C192 0.930 . S
H184 C194 0.929 . S
H185 C186 0.969 . S
C186 H185 0.969 . S
C186 O187 1.550 . S
C186 H188 0.973 . S
O187 C186 1.550 . S
O187 C193 1.412 . S
H188 C186 0.973 . S
C189 H182 0.929 . S
C189 C190 1.400 . S
C189 C191 1.364 . S
C190 C189 1.400 . S
C190 C194 1.377 . S
C191 C189 1.364 . S
C191 C192 1.374 . S
C192 H183 0.930 . S
C192 C191 1.374 . S
C192 C193 1.383 . S
C193 O187 1.412 . S
C193 C192 1.383 . S
C193 C194 1.394 . S
C194 H184 0.929 . S
C194 C190 1.377 . S
C194 C193 1.394 . S
H195 C202 0.929 . S
H196 C205 0.930 . S
H197 C207 0.929 . S
H198 C199 0.969 . S
C199 H198 0.969 . S
C199 O200 1.550 . S
C199 H201 0.973 . S
O200 C199 1.550 . S
O200 C206 1.412 . S
H201 C199 0.973 . S
C202 H195 0.929 . S
C202 C203 1.400 . S
C202 C204 1.364 . S
C203 C202 1.400 . S
C203 C207 1.377 . S
C204 C202 1.364 . S
C204 C205 1.374 1_554 S
C205 H196 0.930 . S
C205 C204 1.374 1_556 S
C205 C206 1.383 . S
C206 O200 1.412 . S
C206 C205 1.383 . S
C206 C207 1.394 1_556 S
C207 H197 0.929 . S
C207 C203 1.377 . S
C207 C206 1.394 1_554 S
Mg208 O209 2.028 . S
Mg208 O215 1.986 1_554 S
Mg208 O217 2.114 . S
Mg208 O218 2.251 . S
Mg208 O221 2.010 . S
O209 Mg208 2.028 . S
O209 C212 1.254 . S
O210 Mg211 2.026 1_554 S
O210 C212 1.246 . S
Mg211 O210 2.026 1_556 S
Mg211 O216 2.041 . S
Mg211 O218 2.072 1_556 S
C212 O209 1.254 . S
C212 O210 1.246 . S
C213 O214 1.264 . S
C213 O221 1.249 . S
O214 C213 1.264 . S
O215 Mg208 1.986 1_556 S
O215 C219 1.246 . S
O216 Mg211 2.041 . S
O216 C219 1.259 . S
O217 Mg208 2.114 . S
O217 C220 1.252 . S
O218 Mg208 2.251 . S
O218 Mg211 2.072 1_554 S
O218 C220 1.273 . S
C219 O215 1.246 . S
C219 O216 1.259 . S
C220 O217 1.252 . S
C220 O218 1.273 . S
O221 Mg208 2.010 . S
O221 C213 1.249 . S
Mg222 O223 2.028 . S
Mg222 O229 1.986 . S
Mg222 O231 2.114 . S
Mg222 O232 2.251 . S
Mg222 O235 2.010 . S
O223 Mg222 2.028 . S
O223 C226 1.250 . S
O224 Mg225 2.028 . S
O224 C226 1.248 . S
Mg225 O224 2.028 . S
Mg225 O230 2.032 . S
Mg225 O232 2.079 . S
C226 O223 1.250 . S
C226 O224 1.248 . S
C227 O228 1.264 . S
C227 O235 1.249 . S
O228 C227 1.264 . S
O229 Mg222 1.986 . S
O229 C233 1.246 . S
O230 Mg225 2.032 . S
O230 C233 1.259 . S
O231 Mg222 2.114 . S
O231 C234 1.252 . S
O232 Mg222 2.251 . S
O232 Mg225 2.079 . S
O232 C234 1.273 . S
C233 O229 1.246 . S
C233 O230 1.259 . S
C234 O231 1.252 . S
C234 O232 1.273 . S
O235 Mg222 2.010 . S
O235 C227 1.249 . S
Mg236 O237 2.028 . S
Mg236 O243 1.986 . S
Mg236 O245 2.114 . S
Mg236 O246 2.251 . S
Mg236 O249 2.010 . S
O237 Mg236 2.028 . S
O237 C240 1.250 . S
O238 Mg239 2.028 . S
O238 C240 1.248 . S
Mg239 O238 2.028 . S
Mg239 O244 2.032 . S
Mg239 O246 2.079 . S
C240 O237 1.250 . S
C240 O238 1.248 . S
C241 O242 1.264 . S
C241 O249 1.249 . S
O242 C241 1.264 . S
O243 Mg236 1.986 . S
O243 C247 1.246 . S
O244 Mg239 2.032 . S
O244 C247 1.259 . S
O245 Mg236 2.114 . S
O245 C248 1.252 . S
O246 Mg236 2.251 . S
O246 Mg239 2.079 . S
O246 C248 1.273 . S
C247 O243 1.246 . S
C247 O244 1.259 . S
C248 O245 1.252 . S
C248 O246 1.273 . S
O249 Mg236 2.010 . S
O249 C241 1.249 . S
Mg250 O251 2.028 . S
Mg250 O257 1.986 . S
Mg250 O259 2.114 . S
Mg250 O260 2.251 . S
Mg250 O263 2.010 . S
O251 Mg250 2.028 . S
O251 C254 1.250 1_545 S
O252 Mg253 2.028 . S
O252 C254 1.248 . S
Mg253 O252 2.028 . S
Mg253 O258 2.032 1_565 S
Mg253 O260 2.079 1_565 S
C254 O251 1.250 1_565 S
C254 O252 1.248 . S
C255 O256 1.264 . S
C255 O263 1.249 . S
O256 C255 1.264 . S
O257 Mg250 1.986 . S
O257 C261 1.246 . S
O258 Mg253 2.032 1_545 S
O258 C261 1.259 . S
O259 Mg250 2.114 . S
O259 C262 1.252 . S
O260 Mg250 2.251 . S
O260 Mg253 2.079 1_545 S
O260 C262 1.273 . S
C261 O257 1.246 . S
C261 O258 1.259 . S
C262 O259 1.252 . S
C262 O260 1.273 . S
O263 Mg250 2.010 . S
O263 C255 1.249 . S
Mg264 O265 2.028 . S
Mg264 O271 1.986 . S
Mg264 O273 2.114 . S
Mg264 O274 2.251 . S
Mg264 O277 2.010 . S
O265 Mg264 2.028 . S
O265 C268 1.250 . S
O266 Mg267 2.028 . S
O266 C268 1.248 . S
Mg267 O266 2.028 . S
Mg267 O272 2.032 . S
Mg267 O274 2.079 . S
C268 O265 1.250 . S
C268 O266 1.248 . S
C269 O270 1.264 . S
C269 O277 1.249 . S
O270 C269 1.264 . S
O271 Mg264 1.986 . S
O271 C275 1.246 . S
O272 Mg267 2.032 . S
O272 C275 1.259 . S
O273 Mg264 2.114 . S
O273 C276 1.252 . S
O274 Mg264 2.251 . S
O274 Mg267 2.079 . S
O274 C276 1.273 . S
C275 O271 1.246 . S
C275 O272 1.259 . S
C276 O273 1.252 . S
C276 O274 1.273 . S
O277 Mg264 2.010 . S
O277 C269 1.249 . S
Mg278 O279 2.028 . S
Mg278 O285 1.986 . S
Mg278 O287 2.114 . S
Mg278 O288 2.251 . S
Mg278 O291 2.010 . S
O279 Mg278 2.028 . S
O279 C282 1.250 . S
O280 Mg281 2.028 . S
O280 C282 1.248 . S
Mg281 O280 2.028 . S
Mg281 O286 2.032 . S
Mg281 O288 2.079 . S
C282 O279 1.250 . S
C282 O280 1.248 . S
C283 O284 1.264 . S
C283 O291 1.249 . S
O284 C283 1.264 . S
O285 Mg278 1.986 . S
O285 C289 1.246 . S
O286 Mg281 2.032 . S
O286 C289 1.259 . S
O287 Mg278 2.114 . S
O287 C290 1.252 . S
O288 Mg278 2.251 . S
O288 Mg281 2.079 . S
O288 C290 1.273 . S
C289 O285 1.246 . S
C289 O286 1.259 . S
C290 O287 1.252 . S
C290 O288 1.273 . S
O291 Mg278 2.010 . S
O291 C283 1.249 . S
Mg292 O293 2.028 . S
Mg292 O299 1.986 . S
Mg292 O301 2.114 . S
Mg292 O302 2.251 . S
Mg292 O305 2.010 . S
O293 Mg292 2.028 . S
O293 C296 1.250 . S
O294 Mg295 2.028 . S
O294 C296 1.248 . S
Mg295 O294 2.028 . S
Mg295 O300 2.032 . S
Mg295 O302 2.079 . S
C296 O293 1.250 . S
C296 O294 1.248 . S
C297 O298 1.264 . S
C297 O305 1.249 . S
O298 C297 1.264 . S
O299 Mg292 1.986 . S
O299 C303 1.246 . S
O300 Mg295 2.032 . S
O300 C303 1.259 . S
O301 Mg292 2.114 . S
O301 C304 1.252 . S
O302 Mg292 2.251 . S
O302 Mg295 2.079 . S
O302 C304 1.273 . S
C303 O299 1.246 . S
C303 O300 1.259 . S
C304 O301 1.252 . S
C304 O302 1.273 . S
O305 Mg292 2.010 . S
O305 C297 1.249 . S
Mg306 O307 2.028 1_545 S
Mg306 O313 1.986 1_545 S
Mg306 O315 2.114 . S
Mg306 O316 2.251 . S
Mg306 O319 2.010 . S
O307 Mg306 2.028 1_565 S
O307 C310 1.250 . S
O308 Mg309 2.028 . S
O308 C310 1.248 . S
Mg309 O308 2.028 . S
Mg309 O314 2.032 . S
Mg309 O316 2.079 1_565 S
C310 O307 1.250 . S
C310 O308 1.248 . S
C311 O312 1.264 . S
C311 O319 1.249 . S
O312 C311 1.264 . S
O313 Mg306 1.986 1_565 S
O313 C317 1.246 . S
O314 Mg309 2.032 . S
O314 C317 1.259 . S
O315 Mg306 2.114 . S
O315 C318 1.252 . S
O316 Mg306 2.251 . S
O316 Mg309 2.079 1_545 S
O316 C318 1.273 . S
C317 O313 1.246 . S
C317 O314 1.259 . S
C318 O315 1.252 . S
C318 O316 1.273 . S
O319 Mg306 2.010 . S
O319 C311 1.249 . S
Mg320 O321 2.028 1_455 S
Mg320 O327 1.986 . S
Mg320 O329 2.114 . S
Mg320 O330 2.251 1_455 S
Mg320 O333 2.010 . S
O321 Mg320 2.028 1_655 S
O321 C324 1.250 . S
O322 Mg323 2.028 . S
O322 C324 1.248 . S
Mg323 O322 2.028 . S
Mg323 O328 2.032 . S
Mg323 O330 2.079 . S
C324 O321 1.250 . S
C324 O322 1.248 . S
C325 O326 1.264 . S
C325 O333 1.249 . S
O326 C325 1.264 . S
O327 Mg320 1.986 . S
O327 C331 1.219 1_455 S
O328 Mg323 2.032 . S
O328 C331 1.288 . S
O329 Mg320 2.114 . S
O329 C332 1.252 . S
O330 Mg320 2.251 1_655 S
O330 Mg323 2.079 . S
O330 C332 1.273 1_655 S
C331 O327 1.219 1_655 S
C331 O328 1.288 . S
C332 O329 1.252 . S
C332 O330 1.273 1_455 S
O333 Mg320 2.010 . S
O333 C325 1.249 . S
Mg334 O335 2.028 . S
Mg334 O341 1.986 . S
Mg334 O343 2.114 . S
Mg334 O344 2.251 . S
Mg334 O347 2.010 . S
O335 Mg334 2.028 . S
O335 C338 1.250 . S
O336 Mg337 2.028 . S
O336 C338 1.248 . S
Mg337 O336 2.028 . S
Mg337 O342 2.032 . S
Mg337 O344 2.079 . S
C338 O335 1.250 . S
C338 O336 1.248 . S
C339 O340 1.264 . S
C339 O347 1.249 . S
O340 C339 1.264 . S
O341 Mg334 1.986 . S
O341 C345 1.246 . S
O342 Mg337 2.032 . S
O342 C345 1.259 . S
O343 Mg334 2.114 . S
O343 C346 1.252 . S
O344 Mg334 2.251 . S
O344 Mg337 2.079 . S
O344 C346 1.273 . S
C345 O341 1.246 . S
C345 O342 1.259 . S
C346 O343 1.252 . S
C346 O344 1.273 . S
O347 Mg334 2.010 . S
O347 C339 1.249 . S
Mg348 O349 2.028 1_655 S
Mg348 O355 1.986 1_655 S
Mg348 O357 2.114 . S
Mg348 O358 2.251 1_655 S
Mg348 O361 2.010 . S
O349 Mg348 2.028 1_455 S
O349 C352 1.250 . S
O350 Mg351 2.028 . S
O350 C352 1.248 . S
Mg351 O350 2.028 . S
Mg351 O356 2.032 . S
Mg351 O358 2.079 . S
C352 O349 1.250 . S
C352 O350 1.248 . S
C353 O354 1.264 . S
C353 O361 1.249 . S
O354 C353 1.264 . S
O355 Mg348 1.986 1_455 S
O355 C359 1.246 . S
O356 Mg351 2.032 . S
O356 C359 1.259 . S
O357 Mg348 2.114 . S
O357 C360 1.252 . S
O358 Mg348 2.251 1_455 S
O358 Mg351 2.079 . S
O358 C360 1.273 1_455 S
C359 O355 1.246 . S
C359 O356 1.259 . S
C360 O357 1.252 . S
C360 O358 1.273 1_655 S
O361 Mg348 2.010 . S
O361 C353 1.249 . S
Mg362 O363 2.028 . S
Mg362 O369 1.986 . S
Mg362 O371 2.114 . S
Mg362 O372 2.251 . S
Mg362 O375 2.010 . S
O363 Mg362 2.028 . S
O363 C366 1.250 . S
O364 Mg365 2.028 . S
O364 C366 1.248 . S
Mg365 O364 2.028 . S
Mg365 O370 2.032 . S
Mg365 O372 2.079 . S
C366 O363 1.250 . S
C366 O364 1.248 . S
C367 O368 1.264 . S
C367 O375 1.249 . S
O368 C367 1.264 . S
O369 Mg362 1.986 . S
O369 C373 1.246 . S
O370 Mg365 2.032 . S
O370 C373 1.259 . S
O371 Mg362 2.114 . S
O371 C374 1.252 . S
O372 Mg362 2.251 . S
O372 Mg365 2.079 . S
O372 C374 1.273 . S
C373 O369 1.246 . S
C373 O370 1.259 . S
C374 O371 1.252 . S
C374 O372 1.273 . S
O375 Mg362 2.010 . S
O375 C367 1.249 . S
H376 C384 0.950 . S
H377 C389 0.950 . S
H378 C386 0.950 . S
H379 C388 0.950 . S
H380 C390 0.950 . S
H381 C392 0.950 . S
H382 C394 0.950 . S
H383 C395 0.950 . S
C384 H376 0.950 . S
C384 C385 1.386 . S
C384 C386 1.391 . S
C385 C384 1.386 . S
C385 C389 1.393 . S
C386 H378 0.950 . S
C386 C384 1.391 . S
C386 C387 1.400 . S
C387 C386 1.400 . S
C387 C388 1.398 . S
C387 C393 1.491 . S
C388 H379 0.950 . S
C388 C387 1.398 . S
C388 C389 1.391 . S
C389 H377 0.950 . S
C389 C385 1.393 . S
C389 C388 1.391 . S
C390 H380 0.950 . S
C390 C391 1.386 . S
C390 C392 1.391 . S
C391 C390 1.386 . S
C391 C395 1.393 . S
C392 H381 0.950 . S
C392 C390 1.391 . S
C392 C393 1.400 . S
C393 C387 1.491 . S
C393 C392 1.400 . S
C393 C394 1.398 . S
C394 H382 0.950 . S
C394 C393 1.398 . S
C394 C395 1.391 . S
C395 H383 0.950 . S
C395 C391 1.393 . S
C395 C394 1.391 . S
H396 C404 0.950 1_655 S
H397 C409 0.950 . S
H398 C406 0.950 . S
H399 C408 0.950 . S
H400 C410 0.950 . S
H401 C412 0.950 . S
H402 C414 0.950 . S
H403 C415 0.950 . S
C404 H396 0.950 1_455 S
C404 C405 1.386 . S
C404 C406 1.391 . S
C405 C404 1.386 . S
C405 C409 1.393 . S
C406 H398 0.950 . S
C406 C404 1.391 . S
C406 C407 1.400 . S
C407 C406 1.400 . S
C407 C408 1.398 . S
C407 C413 1.491 . S
C408 H399 0.950 . S
C408 C407 1.398 . S
C408 C409 1.391 . S
C409 H397 0.950 . S
C409 C405 1.393 . S
C409 C408 1.391 . S
C410 H400 0.950 . S
C410 C411 1.386 . S
C410 C412 1.391 . S
C411 C410 1.386 . S
C411 C415 1.393 . S
C412 H401 0.950 . S
C412 C410 1.391 . S
C412 C413 1.400 . S
C413 C407 1.491 . S
C413 C412 1.400 . S
C413 C414 1.398 . S
C414 H402 0.950 . S
C414 C413 1.398 . S
C414 C415 1.391 . S
C415 H403 0.950 . S
C415 C411 1.393 . S
C415 C414 1.391 . S
H416 C424 0.950 . S
H417 C429 0.950 . S
H418 C426 0.950 . S
H419 C428 0.950 . S
H420 C430 0.950 . S
H421 C432 0.950 . S
H422 C434 0.950 . S
H423 C435 0.950 . S
C424 H416 0.950 . S
C424 C425 1.386 . S
C424 C426 1.391 . S
C425 C424 1.386 . S
C425 C429 1.393 . S
C426 H418 0.950 . S
C426 C424 1.391 . S
C426 C427 1.400 . S
C427 C426 1.400 . S
C427 C428 1.398 . S
C427 C433 1.491 . S
C428 H419 0.950 . S
C428 C427 1.398 . S
C428 C429 1.391 . S
C429 H417 0.950 . S
C429 C425 1.393 . S
C429 C428 1.391 . S
C430 H420 0.950 . S
C430 C431 1.386 . S
C430 C432 1.391 . S
C431 C430 1.386 . S
C431 C435 1.393 . S
C432 H421 0.950 . S
C432 C430 1.391 . S
C432 C433 1.400 . S
C433 C427 1.491 . S
C433 C432 1.400 . S
C433 C434 1.398 . S
C434 H422 0.950 . S
C434 C433 1.398 . S
C434 C435 1.391 . S
C435 H423 0.950 . S
C435 C431 1.393 . S
C435 C434 1.391 . S
H436 C444 0.950 . S
H437 C449 0.950 . S
H438 C446 0.950 1_455 S
H439 C448 0.950 . S
H440 C450 0.950 1_565 S
H441 C452 0.949 1_565 S
H442 C454 0.950 . S
H443 C455 0.950 . S
C444 H436 0.950 . S
C444 C445 1.386 1_545 S
C444 C446 1.391 1_455 S
C445 C444 1.386 1_565 S
C445 C449 1.393 1_455 S
C446 H438 0.950 1_655 S
C446 C444 1.391 1_655 S
C446 C447 1.400 . S
C447 C446 1.400 . S
C447 C448 1.398 1_545 S
C447 C453 1.491 . S
C448 H439 0.950 . S
C448 C447 1.398 1_565 S
C448 C449 1.391 . S
C449 H437 0.950 . S
C449 C445 1.393 1_655 S
C449 C448 1.391 . S
C450 H440 0.950 1_545 S
C450 C451 1.386 . S
C450 C452 1.392 . S
C451 C450 1.386 . S
C451 C455 1.393 . S
C452 H441 0.949 1_545 S
C452 C450 1.392 . S
C452 C453 1.401 . S
C453 C447 1.491 . S
C453 C452 1.401 . S
C453 C454 1.398 . S
C454 H442 0.950 . S
C454 C453 1.398 . S
C454 C455 1.391 . S
C455 H443 0.950 . S
C455 C451 1.393 . S
C455 C454 1.391 . S
H456 C464 0.950 . S
H457 C469 0.950 . S
H458 C466 0.950 . S
H459 C468 0.950 . S
H460 C470 0.950 . S
H461 C472 0.950 . S
H462 C474 0.950 . S
H463 C475 0.950 . S
C464 H456 0.950 . S
C464 C465 1.386 . S
C464 C466 1.391 . S
C465 C464 1.386 . S
C465 C469 1.393 . S
C466 H458 0.950 . S
C466 C464 1.391 . S
C466 C467 1.400 . S
C467 C466 1.400 . S
C467 C468 1.398 . S
C467 C473 1.491 . S
C468 H459 0.950 . S
C468 C467 1.398 . S
C468 C469 1.391 . S
C469 H457 0.950 . S
C469 C465 1.393 . S
C469 C468 1.391 . S
C470 H460 0.950 . S
C470 C471 1.386 . S
C470 C472 1.391 . S
C471 C470 1.386 . S
C471 C475 1.393 . S
C472 H461 0.950 . S
C472 C470 1.391 . S
C472 C473 1.400 . S
C473 C467 1.491 . S
C473 C472 1.400 . S
C473 C474 1.398 . S
C474 H462 0.950 . S
C474 C473 1.398 . S
C474 C475 1.391 . S
C475 H463 0.950 . S
C475 C471 1.393 . S
C475 C474 1.391 . S
H476 C484 0.950 . S
H477 C489 0.950 . S
H478 C486 0.950 . S
H479 C488 0.950 . S
H480 C490 0.950 . S
H481 C492 0.950 . S
H482 C494 0.950 . S
H483 C495 0.950 . S
C484 H476 0.950 . S
C484 C485 1.386 . S
C484 C486 1.391 . S
C485 C484 1.386 . S
C485 C489 1.393 . S
C486 H478 0.950 . S
C486 C484 1.391 . S
C486 C487 1.400 . S
C487 C486 1.400 . S
C487 C488 1.398 . S
C487 C493 1.491 . S
C488 H479 0.950 . S
C488 C487 1.398 . S
C488 C489 1.391 . S
C489 H477 0.950 . S
C489 C485 1.393 . S
C489 C488 1.391 . S
C490 H480 0.950 . S
C490 C491 1.386 . S
C490 C492 1.391 . S
C491 C490 1.386 . S
C491 C495 1.393 . S
C492 H481 0.950 . S
C492 C490 1.391 . S
C492 C493 1.400 . S
C493 C487 1.491 . S
C493 C492 1.400 . S
C493 C494 1.398 . S
C494 H482 0.950 . S
C494 C493 1.398 . S
C494 C495 1.391 . S
C495 H483 0.950 . S
C495 C491 1.393 . S
C495 C494 1.391 . S
H496 C504 0.950 . S
H497 C509 0.950 . S
H498 C506 0.950 . S
H499 C508 0.950 . S
H500 C510 0.950 . S
H501 C512 0.950 . S
H502 C514 0.950 . S
H503 C515 0.950 . S
C504 H496 0.950 . S
C504 C505 1.386 . S
C504 C506 1.391 . S
C505 C504 1.386 . S
C505 C509 1.393 . S
C506 H498 0.950 . S
C506 C504 1.391 . S
C506 C507 1.400 . S
C507 C506 1.400 . S
C507 C508 1.398 . S
C507 C513 1.491 . S
C508 H499 0.950 . S
C508 C507 1.398 . S
C508 C509 1.391 . S
C509 H497 0.950 . S
C509 C505 1.393 . S
C509 C508 1.391 . S
C510 H500 0.950 . S
C510 C511 1.386 . S
C510 C512 1.391 . S
C511 C510 1.386 . S
C511 C515 1.393 . S
C512 H501 0.950 . S
C512 C510 1.391 . S
C512 C513 1.400 . S
C513 C507 1.491 . S
C513 C512 1.400 . S
C513 C514 1.398 . S
C514 H502 0.950 . S
C514 C513 1.398 . S
C514 C515 1.391 . S
C515 H503 0.950 . S
C515 C511 1.393 . S
C515 C514 1.391 . S
H516 C524 0.959 . S
H517 C529 0.950 . S
H518 C526 0.950 1_545 S
H519 C528 0.950 . S
H520 C530 0.950 . S
H521 C532 0.950 . S
H522 C534 0.950 1_545 S
H523 C535 0.939 1_545 S
C524 H516 0.959 . S
C524 C525 1.386 . S
C524 C526 1.391 . S
C525 C524 1.386 . S
C525 C529 1.393 . S
C526 H518 0.950 1_565 S
C526 C524 1.391 . S
C526 C527 1.400 . S
C527 C526 1.400 . S
C527 C528 1.398 . S
C527 C533 1.491 . S
C528 H519 0.950 . S
C528 C527 1.398 . S
C528 C529 1.391 . S
C529 H517 0.950 . S
C529 C525 1.393 . S
C529 C528 1.391 . S
C530 H520 0.950 . S
C530 C531 1.386 . S
C530 C532 1.391 . S
C531 C530 1.386 . S
C531 C535 1.402 . S
C532 H521 0.950 . S
C532 C530 1.391 . S
C532 C533 1.400 . S
C533 C527 1.491 . S
C533 C532 1.400 . S
C533 C534 1.398 . S
C534 H522 0.950 1_565 S
C534 C533 1.398 . S
C534 C535 1.392 . S
C535 H523 0.939 1_565 S
C535 C531 1.402 . S
C535 C534 1.392 . S
H536 C544 0.950 . S
H537 C549 0.950 . S
H538 C546 0.950 . S
H539 C548 0.950 . S
H540 C550 0.950 . S
H541 C552 0.950 . S
H542 C554 0.950 . S
H543 C555 0.950 . S
C544 H536 0.950 . S
C544 C545 1.386 . S
C544 C546 1.391 . S
C545 C544 1.386 . S
C545 C549 1.393 . S
C546 H538 0.950 . S
C546 C544 1.391 . S
C546 C547 1.400 . S
C547 C546 1.400 . S
C547 C548 1.398 . S
C547 C553 1.491 . S
C548 H539 0.950 . S
C548 C547 1.398 . S
C548 C549 1.391 . S
C549 H537 0.950 . S
C549 C545 1.393 . S
C549 C548 1.391 . S
C550 H540 0.950 . S
C550 C551 1.386 . S
C550 C552 1.391 . S
C551 C550 1.386 . S
C551 C555 1.393 . S
C552 H541 0.950 . S
C552 C550 1.391 . S
C552 C553 1.400 . S
C553 C547 1.491 . S
C553 C552 1.400 . S
C553 C554 1.398 . S
C554 H542 0.950 . S
C554 C553 1.398 . S
C554 C555 1.391 . S
C555 H543 0.950 . S
C555 C551 1.393 . S
C555 C554 1.391 . S
H556 C564 0.950 . S
H557 C569 0.950 . S
H558 C566 0.950 . S
H559 C568 0.950 . S
H560 C570 0.950 . S
H561 C572 0.950 . S
H562 C574 0.950 . S
H563 C575 0.950 . S
C564 H556 0.950 . S
C564 C565 1.386 . S
C564 C566 1.391 . S
C565 C564 1.386 . S
C565 C569 1.393 . S
C566 H558 0.950 . S
C566 C564 1.391 . S
C566 C567 1.400 . S
C567 C566 1.400 . S
C567 C568 1.398 . S
C567 C573 1.491 . S
C568 H559 0.950 . S
C568 C567 1.398 . S
C568 C569 1.391 . S
C569 H557 0.950 . S
C569 C565 1.393 . S
C569 C568 1.391 . S
C570 H560 0.950 . S
C570 C571 1.386 . S
C570 C572 1.391 . S
C571 C570 1.386 . S
C571 C575 1.393 . S
C572 H561 0.950 . S
C572 C570 1.391 . S
C572 C573 1.400 . S
C573 C567 1.491 . S
C573 C572 1.400 . S
C573 C574 1.398 . S
C574 H562 0.950 . S
C574 C573 1.398 . S
C574 C575 1.391 . S
C575 H563 0.950 . S
C575 C571 1.393 . S
C575 C574 1.391 . S
H576 C584 0.950 . S
H577 C589 0.950 . S
H578 C586 0.950 . S
H579 C588 0.950 . S
H580 C590 0.950 . S
H581 C592 0.950 . S
H582 C594 0.950 . S
H583 C595 0.950 . S
C584 H576 0.950 . S
C584 C585 1.386 . S
C584 C586 1.391 . S
C585 C584 1.386 . S
C585 C589 1.393 . S
C586 H578 0.950 . S
C586 C584 1.391 . S
C586 C587 1.400 . S
C587 C586 1.400 . S
C587 C588 1.398 . S
C587 C593 1.491 . S
C588 H579 0.950 . S
C588 C587 1.398 . S
C588 C589 1.391 . S
C589 H577 0.950 . S
C589 C585 1.393 . S
C589 C588 1.391 . S
C590 H580 0.950 . S
C590 C591 1.386 . S
C590 C592 1.391 . S
C591 C590 1.386 . S
C591 C595 1.393 . S
C592 H581 0.950 . S
C592 C590 1.391 . S
C592 C593 1.400 . S
C593 C587 1.491 . S
C593 C592 1.400 . S
C593 C594 1.398 . S
C594 H582 0.950 . S
C594 C593 1.398 . S
C594 C595 1.391 . S
C595 H583 0.950 . S
C595 C591 1.393 . S
C595 C594 1.391 . S
H596 C604 0.950 . S
H597 C609 0.950 . S
H598 C606 0.950 . S
H599 C608 0.950 . S
H600 C610 0.950 . S
H601 C612 0.950 . S
H602 C614 0.950 . S
H603 C615 0.950 . S
C604 H596 0.950 . S
C604 C605 1.386 . S
C604 C606 1.391 . S
C605 C604 1.386 . S
C605 C609 1.393 . S
C606 H598 0.950 . S
C606 C604 1.391 . S
C606 C607 1.400 . S
C607 C606 1.400 . S
C607 C608 1.398 . S
C607 C613 1.491 . S
C608 H599 0.950 . S
C608 C607 1.398 . S
C608 C609 1.391 . S
C609 H597 0.950 . S
C609 C605 1.393 . S
C609 C608 1.391 . S
C610 H600 0.950 . S
C610 C611 1.386 . S
C610 C612 1.391 . S
C611 C610 1.386 . S
C611 C615 1.393 . S
C612 H601 0.950 . S
C612 C610 1.391 . S
C612 C613 1.400 . S
C613 C607 1.491 . S
C613 C612 1.400 . S
C613 C614 1.398 . S
C614 H602 0.950 . S
C614 C613 1.398 . S
C614 C615 1.391 . S
C615 H603 0.950 . S
C615 C611 1.393 . S
C615 C614 1.391 . S
H616 C624 0.950 . S
H617 C629 0.950 . S
H618 C626 0.950 . S
H619 C628 0.950 . S
H620 C630 0.950 . S
H621 C632 0.950 . S
H622 C634 0.950 . S
H623 C635 0.950 . S
C624 H616 0.950 . S
C624 C625 1.386 . S
C624 C626 1.391 . S
C625 C624 1.386 . S
C625 C629 1.393 . S
C626 H618 0.950 . S
C626 C624 1.391 . S
C626 C627 1.400 . S
C627 C626 1.400 . S
C627 C628 1.398 . S
C627 C633 1.491 . S
C628 H619 0.950 . S
C628 C627 1.398 . S
C628 C629 1.391 . S
C629 H617 0.950 . S
C629 C625 1.393 . S
C629 C628 1.391 . S
C630 H620 0.950 . S
C630 C631 1.386 . S
C630 C632 1.391 . S
C631 C630 1.386 . S
C631 C635 1.393 . S
C632 H621 0.950 . S
C632 C630 1.391 . S
C632 C633 1.400 . S
C633 C627 1.491 . S
C633 C632 1.400 . S
C633 C634 1.398 . S
C634 H622 0.950 . S
C634 C633 1.398 . S
C634 C635 1.391 . S
C635 H623 0.950 . S
C635 C631 1.393 . S
C635 C634 1.391 . S
H636 C644 0.950 . S
H637 C649 0.950 . S
H638 C646 0.950 . S
H639 C648 0.950 . S
H640 C650 0.950 1_655 S
H641 C652 0.950 1_655 S
H642 C654 0.950 . S
H643 C655 0.950 . S
C644 H636 0.950 . S
C644 C645 1.386 . S
C644 C646 1.391 . S
C645 C644 1.386 . S
C645 C649 1.393 . S
C646 H638 0.950 . S
C646 C644 1.391 . S
C646 C647 1.400 . S
C647 C646 1.400 . S
C647 C648 1.398 . S
C647 C653 1.491 . S
C648 H639 0.950 . S
C648 C647 1.398 . S
C648 C649 1.391 . S
C649 H637 0.950 . S
C649 C645 1.393 . S
C649 C648 1.391 . S
C650 H640 0.950 1_455 S
C650 C651 1.386 . S
C650 C652 1.391 . S
C651 C650 1.386 . S
C651 C655 1.393 . S
C652 H641 0.950 1_455 S
C652 C650 1.391 . S
C652 C653 1.400 . S
C653 C647 1.491 . S
C653 C652 1.400 . S
C653 C654 1.398 . S
C654 H642 0.950 . S
C654 C653 1.398 . S
C654 C655 1.391 . S
C655 H643 0.950 . S
C655 C651 1.393 . S
C655 C654 1.391 . S
H656 C664 0.950 . S
H657 C669 0.950 . S
H658 C666 0.950 . S
H659 C668 0.950 . S
H660 C670 0.950 . S
H661 C672 0.950 . S
H662 C674 0.950 . S
H663 C675 0.950 . S
C664 H656 0.950 . S
C664 C665 1.386 . S
C664 C666 1.391 . S
C665 C664 1.386 . S
C665 C669 1.393 . S
C666 H658 0.950 . S
C666 C664 1.391 . S
C666 C667 1.400 . S
C667 C666 1.400 . S
C667 C668 1.398 . S
C667 C673 1.491 . S
C668 H659 0.950 . S
C668 C667 1.398 . S
C668 C669 1.391 . S
C669 H657 0.950 . S
C669 C665 1.393 . S
C669 C668 1.391 . S
C670 H660 0.950 . S
C670 C671 1.386 . S
C670 C672 1.391 . S
C671 C670 1.386 . S
C671 C675 1.393 . S
C672 H661 0.950 . S
C672 C670 1.391 . S
C672 C673 1.400 . S
C673 C667 1.491 . S
C673 C672 1.400 . S
C673 C674 1.398 . S
C674 H662 0.950 . S
C674 C673 1.398 . S
C674 C675 1.391 . S
C675 H663 0.950 . S
C675 C671 1.393 . S
C675 C674 1.391 . S
H676 C684 0.950 . S
H677 C689 0.950 . S
H678 C686 0.950 . S
H679 C688 0.950 . S
H680 C690 0.950 . S
H681 C692 0.950 . S
H682 C694 0.950 . S
H683 C695 0.950 1_455 S
C684 H676 0.950 . S
C684 C685 1.386 . S
C684 C686 1.391 . S
C685 C684 1.386 . S
C685 C689 1.393 . S
C686 H678 0.950 . S
C686 C684 1.391 . S
C686 C687 1.400 . S
C687 C686 1.400 . S
C687 C688 1.398 . S
C687 C693 1.491 . S
C688 H679 0.950 . S
C688 C687 1.398 . S
C688 C689 1.391 . S
C689 H677 0.950 . S
C689 C685 1.393 . S
C689 C688 1.391 . S
C690 H680 0.950 . S
C690 C691 1.386 . S
C690 C692 1.391 . S
C691 C690 1.386 . S
C691 C695 1.393 . S
C692 H681 0.950 . S
C692 C690 1.391 . S
C692 C693 1.400 . S
C693 C687 1.491 . S
C693 C692 1.400 . S
C693 C694 1.398 . S
C694 H682 0.950 . S
C694 C693 1.398 . S
C694 C695 1.391 . S
C695 H683 0.950 1_655 S
C695 C691 1.393 . S
C695 C694 1.391 . S
H696 C704 0.950 . S
H697 C709 0.950 . S
H698 C706 0.950 . S
H699 C708 0.950 . S
H700 C710 0.950 . S
H701 C712 0.950 . S
H702 C714 0.950 . S
H703 C715 0.950 . S
C704 H696 0.950 . S
C704 C705 1.386 . S
C704 C706 1.391 . S
C705 C704 1.386 . S
C705 C709 1.393 . S
C706 H698 0.950 . S
C706 C704 1.391 . S
C706 C707 1.400 . S
C707 C706 1.400 . S
C707 C708 1.398 . S
C707 C713 1.491 . S
C708 H699 0.950 . S
C708 C707 1.398 . S
C708 C709 1.391 . S
C709 H697 0.950 . S
C709 C705 1.393 . S
C709 C708 1.391 . S
C710 H700 0.950 . S
C710 C711 1.386 . S
C710 C712 1.391 . S
C711 C710 1.386 . S
C711 C715 1.393 . S
C712 H701 0.950 . S
C712 C710 1.391 . S
C712 C713 1.400 . S
C713 C707 1.491 . S
C713 C712 1.400 . S
C713 C714 1.398 . S
C714 H702 0.950 . S
C714 C713 1.398 . S
C714 C715 1.391 . S
C715 H703 0.950 . S
C715 C711 1.393 . S
C715 C714 1.391 . S
H716 C724 0.950 . S
H717 C729 0.950 . S
H718 C726 0.950 . S
H719 C728 0.950 . S
H720 C730 0.950 . S
H721 C732 0.950 . S
H722 C734 0.950 . S
H723 C735 0.950 . S
C724 H716 0.950 . S
C724 C725 1.386 . S
C724 C726 1.391 . S
C725 C724 1.386 . S
C725 C729 1.393 . S
C726 H718 0.950 . S
C726 C724 1.391 . S
C726 C727 1.400 . S
C727 C726 1.400 . S
C727 C728 1.398 . S
C727 C733 1.491 . S
C728 H719 0.950 . S
C728 C727 1.398 . S
C728 C729 1.391 . S
C729 H717 0.950 . S
C729 C725 1.393 . S
C729 C728 1.391 . S
C730 H720 0.950 . S
C730 C731 1.386 . S
C730 C732 1.391 . S
C731 C730 1.386 . S
C731 C735 1.393 . S
C732 H721 0.950 . S
C732 C730 1.391 . S
C732 C733 1.400 . S
C733 C727 1.491 . S
C733 C732 1.400 . S
C733 C734 1.398 . S
C734 H722 0.950 . S
C734 C733 1.398 . S
C734 C735 1.391 . S
C735 H723 0.950 . S
C735 C731 1.393 . S
C735 C734 1.391 . S
H736 C744 0.950 . S
H737 C749 0.950 . S
H738 C746 0.950 . S
H739 C748 0.950 . S
H740 C750 0.950 . S
H741 C752 0.950 . S
H742 C754 0.950 . S
H743 C755 0.950 . S
C744 H736 0.950 . S
C744 C745 1.386 1_565 S
C744 C746 1.391 . S
C745 C744 1.386 1_545 S
C745 C749 1.393 1_554 S
C746 H738 0.950 . S
C746 C744 1.391 . S
C746 C747 1.400 . S
C747 C746 1.400 . S
C747 C748 1.398 1_564 S
C747 C753 1.491 . S
C748 H739 0.950 . S
C748 C747 1.398 1_546 S
C748 C749 1.391 . S
C749 H737 0.950 . S
C749 C745 1.393 1_556 S
C749 C748 1.391 . S
C750 H740 0.950 . S
C750 C751 1.383 1_556 S
C750 C752 1.391 . S
C751 C750 1.383 1_554 S
C751 C755 1.395 . S
C752 H741 0.950 . S
C752 C750 1.391 . S
C752 C753 1.400 1_556 S
C753 C747 1.491 . S
C753 C752 1.400 1_554 S
C753 C754 1.398 . S
C754 H742 0.950 . S
C754 C753 1.398 . S
C754 C755 1.391 . S
C755 H743 0.950 . S
C755 C751 1.395 . S
C755 C754 1.391 . S
H756 C764 0.950 . S
H757 C769 0.950 . S
H758 C766 0.950 . S
H759 C768 0.950 . S
H760 C770 0.950 . S
H761 C772 0.950 . S
H762 C774 0.950 . S
H763 C775 0.950 . S
C764 H756 0.950 . S
C764 C765 1.386 . S
C764 C766 1.391 . S
C765 C764 1.386 . S
C765 C769 1.393 . S
C766 H758 0.950 . S
C766 C764 1.391 . S
C766 C767 1.400 . S
C767 C766 1.400 . S
C767 C768 1.398 . S
C767 C773 1.491 . S
C768 H759 0.950 . S
C768 C767 1.398 . S
C768 C769 1.391 . S
C769 H757 0.950 . S
C769 C765 1.393 . S
C769 C768 1.391 . S
C770 H760 0.950 . S
C770 C771 1.386 . S
C770 C772 1.391 . S
C771 C770 1.386 . S
C771 C775 1.393 . S
C772 H761 0.950 . S
C772 C770 1.391 . S
C772 C773 1.400 . S
C773 C767 1.491 . S
C773 C772 1.400 . S
C773 C774 1.398 . S
C774 H762 0.950 . S
C774 C773 1.398 . S
C774 C775 1.391 . S
C775 H763 0.950 . S
C775 C771 1.393 . S
C775 C774 1.391 . S
H776 C784 0.950 1_565 S
H777 C789 0.950 . S
H778 C786 0.950 . S
H779 C788 0.950 . S
H780 C790 0.950 . S
H781 C792 0.950 . S
H782 C794 0.950 . S
H783 C795 0.950 . S
C784 H776 0.950 1_545 S
C784 C785 1.386 . S
C784 C786 1.391 . S
C785 C784 1.386 . S
C785 C789 1.393 . S
C786 H778 0.950 . S
C786 C784 1.391 . S
C786 C787 1.400 . S
C787 C786 1.400 . S
C787 C788 1.398 . S
C787 C793 1.491 . S
C788 H779 0.950 . S
C788 C787 1.398 . S
C788 C789 1.391 . S
C789 H777 0.950 . S
C789 C785 1.393 . S
C789 C788 1.391 . S
C790 H780 0.950 . S
C790 C791 1.386 . S
C790 C792 1.391 . S
C791 C790 1.386 . S
C791 C795 1.393 . S
C792 H781 0.950 . S
C792 C790 1.391 . S
C792 C793 1.400 . S
C793 C787 1.491 . S
C793 C792 1.400 . S
C793 C794 1.398 . S
C794 H782 0.950 . S
C794 C793 1.398 . S
C794 C795 1.391 . S
C795 H783 0.950 . S
C795 C791 1.393 . S
C795 C794 1.391 . S
H796 C804 0.950 . S
H797 C809 0.950 . S
H798 C806 0.950 . S
H799 C808 0.950 . S
H800 C810 0.950 . S
H801 C812 0.950 . S
H802 C814 0.950 . S
H803 C815 0.950 . S
C804 H796 0.950 . S
C804 C805 1.386 . S
C804 C806 1.391 . S
C805 C804 1.386 . S
C805 C809 1.393 . S
C806 H798 0.950 . S
C806 C804 1.391 . S
C806 C807 1.400 . S
C807 C806 1.400 . S
C807 C808 1.398 . S
C807 C813 1.491 . S
C808 H799 0.950 . S
C808 C807 1.398 . S
C808 C809 1.391 . S
C809 H797 0.950 . S
C809 C805 1.393 . S
C809 C808 1.391 . S
C810 H800 0.950 . S
C810 C811 1.386 . S
C810 C812 1.391 . S
C811 C810 1.386 . S
C811 C815 1.393 . S
C812 H801 0.950 . S
C812 C810 1.391 . S
C812 C813 1.400 . S
C813 C807 1.491 . S
C813 C812 1.400 . S
C813 C814 1.398 . S
C814 H802 0.950 . S
C814 C813 1.398 . S
C814 C815 1.391 . S
C815 H803 0.950 . S
C815 C811 1.393 . S
C815 C814 1.391 . S
H816 C824 0.950 . S
H817 C829 0.950 1_565 S
H818 C826 0.950 . S
H819 C828 0.950 . S
H820 C830 0.950 . S
H821 C832 0.950 . S
H822 C834 0.950 . S
H823 C835 0.950 . S
C824 H816 0.950 . S
C824 C825 1.386 1_545 S
C824 C826 1.391 . S
C825 C824 1.386 1_565 S
C825 C829 1.393 1_565 S
C826 H818 0.950 . S
C826 C824 1.391 . S
C826 C827 1.400 . S
C827 C826 1.400 . S
C827 C828 1.398 . S
C827 C833 1.491 . S
C828 H819 0.950 . S
C828 C827 1.398 . S
C828 C829 1.391 . S
C829 H817 0.950 1_545 S
C829 C825 1.393 1_545 S
C829 C828 1.391 . S
C830 H820 0.950 . S
C830 C831 1.386 . S
C830 C832 1.391 . S
C831 C830 1.386 . S
C831 C835 1.393 . S
C832 H821 0.950 . S
C832 C830 1.391 . S
C832 C833 1.400 . S
C833 C827 1.491 . S
C833 C832 1.400 . S
C833 C834 1.398 . S
C834 H822 0.950 . S
C834 C833 1.398 . S
C834 C835 1.391 . S
C835 H823 0.950 . S
C835 C831 1.393 . S
C835 C834 1.391 . S
H836 C844 0.950 . S
H837 C849 0.950 . S
H838 C846 0.950 . S
H839 C848 0.950 . S
H840 C850 0.950 . S
H841 C852 0.950 . S
H842 C854 0.950 . S
H843 C855 0.950 . S
C844 H836 0.950 . S
C844 C845 1.386 . S
C844 C846 1.391 . S
C845 C844 1.386 . S
C845 C849 1.393 . S
C846 H838 0.950 . S
C846 C844 1.391 . S
C846 C847 1.400 . S
C847 C846 1.400 . S
C847 C848 1.398 . S
C847 C853 1.491 . S
C848 H839 0.950 . S
C848 C847 1.398 . S
C848 C849 1.391 . S
C849 H837 0.950 . S
C849 C845 1.393 . S
C849 C848 1.391 . S
C850 H840 0.950 . S
C850 C851 1.386 . S
C850 C852 1.391 . S
C851 C850 1.386 . S
C851 C855 1.393 . S
C852 H841 0.950 . S
C852 C850 1.391 . S
C852 C853 1.400 . S
C853 C847 1.491 . S
C853 C852 1.400 . S
C853 C854 1.398 . S
C854 H842 0.950 . S
C854 C853 1.398 . S
C854 C855 1.391 . S
C855 H843 0.950 . S
C855 C851 1.393 . S
C855 C854 1.391 . S
H856 C864 0.950 . S
H857 C869 0.950 . S
H858 C866 0.950 . S
H859 C868 0.950 . S
H860 C870 0.950 . S
H861 C872 0.950 . S
H862 C874 0.950 . S
H863 C875 0.950 . S
C864 H856 0.950 . S
C864 C865 1.386 . S
C864 C866 1.391 . S
C865 C864 1.386 . S
C865 C869 1.393 . S
C866 H858 0.950 . S
C866 C864 1.391 . S
C866 C867 1.400 . S
C867 C866 1.400 . S
C867 C868 1.398 . S
C867 C873 1.491 . S
C868 H859 0.950 . S
C868 C867 1.398 . S
C868 C869 1.391 . S
C869 H857 0.950 . S
C869 C865 1.393 . S
C869 C868 1.391 . S
C870 H860 0.950 . S
C870 C871 1.386 . S
C870 C872 1.391 . S
C871 C870 1.386 . S
C871 C875 1.393 . S
C872 H861 0.950 . S
C872 C870 1.391 . S
C872 C873 1.400 . S
C873 C867 1.491 . S
C873 C872 1.400 . S
C873 C874 1.398 . S
C874 H862 0.950 . S
C874 C873 1.398 . S
C874 C875 1.391 . S
C875 H863 0.950 . S
C875 C871 1.393 . S
C875 C874 1.391 . S
H876 C884 0.950 . S
H877 C889 0.950 1_565 S
H878 C886 0.950 . S
H879 C888 0.950 1_565 S
H880 C890 0.950 . S
H881 C892 0.950 . S
H882 C894 0.950 . S
H883 C895 0.950 . S
C884 H876 0.950 . S
C884 C885 1.386 . S
C884 C886 1.391 . S
C885 C884 1.386 . S
C885 C889 1.393 . S
C886 H878 0.950 . S
C886 C884 1.391 . S
C886 C887 1.400 . S
C887 C886 1.400 . S
C887 C888 1.398 . S
C887 C893 1.491 . S
C888 H879 0.950 1_545 S
C888 C887 1.398 . S
C888 C889 1.391 . S
C889 H877 0.950 1_545 S
C889 C885 1.393 . S
C889 C888 1.391 . S
C890 H880 0.950 . S
C890 C891 1.386 1_565 S
C890 C892 1.391 . S
C891 C890 1.386 1_545 S
C891 C895 1.393 . S
C892 H881 0.950 . S
C892 C890 1.391 . S
C892 C893 1.400 1_565 S
C893 C887 1.491 . S
C893 C892 1.400 1_545 S
C893 C894 1.398 . S
C894 H882 0.950 . S
C894 C893 1.398 . S
C894 C895 1.391 . S
C895 H883 0.950 . S
C895 C891 1.393 . S
C895 C894 1.391 . S
H896 C904 0.950 . S
H897 C909 0.950 . S
H898 C906 0.950 . S
H899 C908 0.950 . S
H900 C910 0.950 . S
H901 C912 0.950 . S
H902 C914 0.950 . S
H903 C915 0.950 . S
C904 H896 0.950 . S
C904 C905 1.386 . S
C904 C906 1.391 . S
C905 C904 1.386 . S
C905 C909 1.393 . S
C906 H898 0.950 . S
C906 C904 1.391 . S
C906 C907 1.400 . S
C907 C906 1.400 . S
C907 C908 1.398 . S
C907 C913 1.491 . S
C908 H899 0.950 . S
C908 C907 1.398 . S
C908 C909 1.391 . S
C909 H897 0.950 . S
C909 C905 1.393 . S
C909 C908 1.391 . S
C910 H900 0.950 . S
C910 C911 1.386 . S
C910 C912 1.391 . S
C911 C910 1.386 . S
C911 C915 1.393 . S
C912 H901 0.950 . S
C912 C910 1.391 . S
C912 C913 1.400 . S
C913 C907 1.491 . S
C913 C912 1.400 . S
C913 C914 1.398 . S
C914 H902 0.950 . S
C914 C913 1.398 . S
C914 C915 1.391 . S
C915 H903 0.950 . S
C915 C911 1.393 . S
C915 C914 1.391 . S
H916 C924 0.950 . S
H917 C929 0.950 . S
H918 C926 0.950 . S
H919 C928 0.950 . S
H920 C930 0.950 . S
H921 C932 0.950 . S
H922 C934 0.950 . S
H923 C935 0.950 . S
C924 H916 0.950 . S
C924 C925 1.386 . S
C924 C926 1.391 . S
C925 C924 1.386 . S
C925 C929 1.393 . S
C926 H918 0.950 . S
C926 C924 1.391 . S
C926 C927 1.400 . S
C927 C926 1.400 . S
C927 C928 1.398 . S
C927 C933 1.491 . S
C928 H919 0.950 . S
C928 C927 1.398 . S
C928 C929 1.391 . S
C929 H917 0.950 . S
C929 C925 1.393 . S
C929 C928 1.391 . S
C930 H920 0.950 . S
C930 C931 1.386 . S
C930 C932 1.391 . S
C931 C930 1.386 . S
C931 C935 1.393 . S
C932 H921 0.950 . S
C932 C930 1.391 . S
C932 C933 1.400 . S
C933 C927 1.491 . S
C933 C932 1.400 . S
C933 C934 1.398 . S
C934 H922 0.950 . S
C934 C933 1.398 . S
C934 C935 1.391 . S
C935 H923 0.950 . S
C935 C931 1.393 . S
C935 C934 1.391 . S
H936 C944 0.950 . S
H937 C949 0.950 . S
H938 C946 0.950 . S
H939 C948 0.950 . S
H940 C950 0.950 . S
H941 C952 0.950 . S
H942 C954 0.950 . S
H943 C955 0.950 . S
C944 H936 0.950 . S
C944 C945 1.386 . S
C944 C946 1.391 . S
C945 C944 1.386 . S
C945 C949 1.393 . S
C946 H938 0.950 . S
C946 C944 1.391 . S
C946 C947 1.400 . S
C947 C946 1.400 . S
C947 C948 1.398 . S
C947 C953 1.491 . S
C948 H939 0.950 . S
C948 C947 1.398 . S
C948 C949 1.391 . S
C949 H937 0.950 . S
C949 C945 1.393 . S
C949 C948 1.391 . S
C950 H940 0.950 . S
C950 C951 1.386 . S
C950 C952 1.391 . S
C951 C950 1.386 . S
C951 C955 1.393 . S
C952 H941 0.950 . S
C952 C950 1.391 . S
C952 C953 1.400 . S
C953 C947 1.491 . S
C953 C952 1.400 . S
C953 C954 1.398 . S
C954 H942 0.950 . S
C954 C953 1.398 . S
C954 C955 1.391 . S
C955 H943 0.950 . S
C955 C951 1.393 . S
C955 C954 1.391 . S
H956 C964 0.950 . S
H957 C969 0.950 . S
H958 C966 0.950 . S
H959 C968 0.950 . S
H960 C970 0.950 . S
H961 C972 0.950 . S
H962 C974 0.950 . S
H963 C975 0.950 . S
C964 H956 0.950 . S
C964 C965 1.386 . S
C964 C966 1.391 . S
C965 C964 1.386 . S
C965 C969 1.393 . S
C966 H958 0.950 . S
C966 C964 1.391 . S
C966 C967 1.400 . S
C967 C966 1.400 . S
C967 C968 1.398 . S
C967 C973 1.491 . S
C968 H959 0.950 . S
C968 C967 1.398 . S
C968 C969 1.391 . S
C969 H957 0.950 . S
C969 C965 1.393 . S
C969 C968 1.391 . S
C970 H960 0.950 . S
C970 C971 1.386 . S
C970 C972 1.391 . S
C971 C970 1.386 . S
C971 C975 1.393 . S
C972 H961 0.950 . S
C972 C970 1.391 . S
C972 C973 1.400 . S
C973 C967 1.491 . S
C973 C972 1.400 . S
C973 C974 1.398 . S
C974 H962 0.950 . S
C974 C973 1.398 . S
C974 C975 1.391 . S
C975 H963 0.950 . S
C975 C971 1.393 . S
C975 C974 1.391 . S
H976 C984 0.950 . S
H977 C989 0.950 . S
H978 C986 0.950 . S
H979 C988 0.950 . S
H980 C990 0.950 . S
H981 C992 0.950 . S
H982 C994 0.950 . S
H983 C995 0.950 . S
C984 H976 0.950 . S
C984 C985 1.386 . S
C984 C986 1.391 . S
C985 C984 1.386 . S
C985 C989 1.393 . S
C986 H978 0.950 . S
C986 C984 1.391 . S
C986 C987 1.400 . S
C987 C986 1.400 . S
C987 C988 1.398 . S
C987 C993 1.491 . S
C988 H979 0.950 . S
C988 C987 1.398 . S
C988 C989 1.391 . S
C989 H977 0.950 . S
C989 C985 1.393 . S
C989 C988 1.391 . S
C990 H980 0.950 . S
C990 C991 1.386 . S
C990 C992 1.391 . S
C991 C990 1.386 . S
C991 C995 1.393 . S
C992 H981 0.950 . S
C992 C990 1.391 . S
C992 C993 1.400 . S
C993 C987 1.491 . S
C993 C992 1.400 . S
C993 C994 1.398 . S
C994 H982 0.950 . S
C994 C993 1.398 . S
C994 C995 1.391 . S
C995 H983 0.950 . S
C995 C991 1.393 . S
C995 C994 1.391 . S
H996 C1004 0.950 . S
H997 C1009 0.950 1_655 S
H998 C1006 0.950 . S
H999 C1008 0.950 . S
H1000 C1010 0.950 . S
H1001 C1012 0.950 . S
H1002 C1014 0.950 . S
H1003 C1015 0.950 . S
C1004 H996 0.950 . S
C1004 C1005 1.386 . S
C1004 C1006 1.391 . S
C1005 C1004 1.386 . S
C1005 C1009 1.393 . S
C1006 H998 0.950 . S
C1006 C1004 1.391 . S
C1006 C1007 1.400 . S
C1007 C1006 1.400 . S
C1007 C1008 1.398 . S
C1007 C1013 1.491 . S
C1008 H999 0.950 . S
C1008 C1007 1.398 . S
C1008 C1009 1.391 . S
C1009 H997 0.950 1_455 S
C1009 C1005 1.393 . S
C1009 C1008 1.391 . S
C1010 H1000 0.950 . S
C1010 C1011 1.386 . S
C1010 C1012 1.391 . S
C1011 C1010 1.386 . S
C1011 C1015 1.393 . S
C1012 H1001 0.950 . S
C1012 C1010 1.391 . S
C1012 C1013 1.400 . S
C1013 C1007 1.491 . S
C1013 C1012 1.400 . S
C1013 C1014 1.398 . S
C1014 H1002 0.950 . S
C1014 C1013 1.398 . S
C1014 C1015 1.391 . S
C1015 H1003 0.950 . S
C1015 C1011 1.393 . S
C1015 C1014 1.391 . S
H1016 C1024 0.950 . S
H1017 C1029 0.950 . S
H1018 C1026 0.950 . S
H1019 C1028 0.950 . S
H1020 C1030 0.950 . S
H1021 C1032 0.950 . S
H1022 C1034 0.950 . S
H1023 C1035 0.950 . S
C1024 H1016 0.950 . S
C1024 C1025 1.386 . S
C1024 C1026 1.391 . S
C1025 C1024 1.386 . S
C1025 C1029 1.393 . S
C1026 H1018 0.950 . S
C1026 C1024 1.391 . S
C1026 C1027 1.400 . S
C1027 C1026 1.400 . S
C1027 C1028 1.398 . S
C1027 C1033 1.491 . S
C1028 H1019 0.950 . S
C1028 C1027 1.398 . S
C1028 C1029 1.391 . S
C1029 H1017 0.950 . S
C1029 C1025 1.393 . S
C1029 C1028 1.391 . S
C1030 H1020 0.950 . S
C1030 C1031 1.386 . S
C1030 C1032 1.391 . S
C1031 C1030 1.386 . S
C1031 C1035 1.393 . S
C1032 H1021 0.950 . S
C1032 C1030 1.391 . S
C1032 C1033 1.400 . S
C1033 C1027 1.491 . S
C1033 C1032 1.400 . S
C1033 C1034 1.398 . S
C1034 H1022 0.950 . S
C1034 C1033 1.398 . S
C1034 C1035 1.391 . S
C1035 H1023 0.950 . S
C1035 C1031 1.393 . S
C1035 C1034 1.391 . S
H1036 C1044 0.950 . S
H1037 C1049 0.957 . S
H1038 C1046 0.950 . S
H1039 C1048 0.950 . S
H1040 C1050 0.950 . S
H1041 C1052 0.950 . S
H1042 C1054 0.950 1_554 S
H1043 C1055 0.946 . S
C1044 H1036 0.950 . S
C1044 C1045 1.386 . S
C1044 C1046 1.391 . S
C1045 C1044 1.386 . S
C1045 C1049 1.393 . S
C1046 H1038 0.950 . S
C1046 C1044 1.391 . S
C1046 C1047 1.400 1_554 S
C1047 C1046 1.400 1_556 S
C1047 C1048 1.398 . S
C1047 C1053 1.491 . S
C1048 H1039 0.950 . S
C1048 C1047 1.398 . S
C1048 C1049 1.391 1_556 S
C1049 H1037 0.957 . S
C1049 C1045 1.393 . S
C1049 C1048 1.391 1_554 S
C1050 H1040 0.950 . S
C1050 C1051 1.386 . S
C1050 C1052 1.391 1_455 S
C1051 C1050 1.386 . S
C1051 C1055 1.389 1_455 S
C1052 H1041 0.950 . S
C1052 C1050 1.391 1_655 S
C1052 C1053 1.400 . S
C1053 C1047 1.491 . S
C1053 C1052 1.400 . S
C1053 C1054 1.398 . S
C1054 H1042 0.950 1_556 S
C1054 C1053 1.398 . S
C1054 C1055 1.402 . S
C1055 H1043 0.946 . S
C1055 C1051 1.389 1_655 S
C1055 C1054 1.402 . S
H1056 C1064 0.950 . S
H1057 C1069 0.950 . S
H1058 C1066 0.950 . S
H1059 C1068 0.950 . S
H1060 C1070 0.950 . S
H1061 C1072 0.950 . S
H1062 C1074 0.950 . S
H1063 C1075 0.950 . S
C1064 H1056 0.950 . S
C1064 C1065 1.386 . S
C1064 C1066 1.391 . S
C1065 C1064 1.386 . S
C1065 C1069 1.393 . S
C1066 H1058 0.950 . S
C1066 C1064 1.391 . S
C1066 C1067 1.400 . S
C1067 C1066 1.400 . S
C1067 C1068 1.398 . S
C1067 C1073 1.491 . S
C1068 H1059 0.950 . S
C1068 C1067 1.398 . S
C1068 C1069 1.391 . S
C1069 H1057 0.950 . S
C1069 C1065 1.393 . S
C1069 C1068 1.391 . S
C1070 H1060 0.950 . S
C1070 C1071 1.386 . S
C1070 C1072 1.391 . S
C1071 C1070 1.386 . S
C1071 C1075 1.393 . S
C1072 H1061 0.950 . S
C1072 C1070 1.391 . S
C1072 C1073 1.400 . S
C1073 C1067 1.491 . S
C1073 C1072 1.400 . S
C1073 C1074 1.398 . S
C1074 H1062 0.950 . S
C1074 C1073 1.398 . S
C1074 C1075 1.391 . S
C1075 H1063 0.950 . S
C1075 C1071 1.393 . S
C1075 C1074 1.391 . S
H1076 C1084 0.950 . S
H1077 C1089 0.950 . S
H1078 C1086 0.950 . S
H1079 C1088 0.936 1_554 S
H1080 C1090 0.950 . S
H1081 C1092 0.950 . S
H1082 C1094 0.950 . S
H1083 C1095 0.950 . S
C1084 H1076 0.950 . S
C1084 C1085 1.383 1_656 S
C1084 C1086 1.391 . S
C1085 C1084 1.383 1_454 S
C1085 C1089 1.394 . S
C1086 H1078 0.950 . S
C1086 C1084 1.391 . S
C1086 C1087 1.400 1_655 S
C1087 C1086 1.400 1_455 S
C1087 C1088 1.425 . S
C1087 C1093 1.491 . S
C1088 H1079 0.936 1_556 S
C1088 C1087 1.425 . S
C1088 C1089 1.378 1_556 S
C1089 H1077 0.950 . S
C1089 C1085 1.394 . S
C1089 C1088 1.378 1_554 S
C1090 H1080 0.950 . S
C1090 C1091 1.386 . S
C1090 C1092 1.391 . S
C1091 C1090 1.386 . S
C1091 C1095 1.393 1_455 S
C1092 H1081 0.950 . S
C1092 C1090 1.391 . S
C1092 C1093 1.400 . S
C1093 C1087 1.491 . S
C1093 C1092 1.400 . S
C1093 C1094 1.398 1_455 S
C1094 H1082 0.950 . S
C1094 C1093 1.398 1_655 S
C1094 C1095 1.391 . S
C1095 H1083 0.950 . S
C1095 C1091 1.393 1_655 S
C1095 C1094 1.391 . S
H1096 C1104 0.950 . S
H1097 C1109 0.950 . S
H1098 C1106 0.950 . S
H1099 C1108 0.950 . S
H1100 C1110 0.950 . S
H1101 C1112 0.950 . S
H1102 C1114 0.950 . S
H1103 C1115 0.950 . S
C1104 H1096 0.950 . S
C1104 C1105 1.386 . S
C1104 C1106 1.391 . S
C1105 C1104 1.386 . S
C1105 C1109 1.393 . S
C1106 H1098 0.950 . S
C1106 C1104 1.391 . S
C1106 C1107 1.400 . S
C1107 C1106 1.400 . S
C1107 C1108 1.398 . S
C1107 C1113 1.491 . S
C1108 H1099 0.950 . S
C1108 C1107 1.398 . S
C1108 C1109 1.391 . S
C1109 H1097 0.950 . S
C1109 C1105 1.393 . S
C1109 C1108 1.391 . S
C1110 H1100 0.950 . S
C1110 C1111 1.386 . S
C1110 C1112 1.391 . S
C1111 C1110 1.386 . S
C1111 C1115 1.393 . S
C1112 H1101 0.950 . S
C1112 C1110 1.391 . S
C1112 C1113 1.400 . S
C1113 C1107 1.491 . S
C1113 C1112 1.400 . S
C1113 C1114 1.398 . S
C1114 H1102 0.950 . S
C1114 C1113 1.398 . S
C1114 C1115 1.391 . S
C1115 H1103 0.950 . S
C1115 C1111 1.393 . S
C1115 C1114 1.391 . S
H1116 C1124 0.950 . S
H1117 C1129 0.950 . S
H1118 C1126 0.950 . S
H1119 C1128 0.950 . S
H1120 C1130 0.950 . S
H1121 C1132 0.950 . S
H1122 C1134 0.950 . S
H1123 C1135 0.950 . S
C1124 H1116 0.950 . S
C1124 C1125 1.386 . S
C1124 C1126 1.391 . S
C1125 C1124 1.386 . S
C1125 C1129 1.393 . S
C1126 H1118 0.950 . S
C1126 C1124 1.391 . S
C1126 C1127 1.400 . S
C1127 C1126 1.400 . S
C1127 C1128 1.398 . S
C1127 C1133 1.491 . S
C1128 H1119 0.950 . S
C1128 C1127 1.398 . S
C1128 C1129 1.391 . S
C1129 H1117 0.950 . S
C1129 C1125 1.393 . S
C1129 C1128 1.391 . S
C1130 H1120 0.950 . S
C1130 C1131 1.386 . S
C1130 C1132 1.391 . S
C1131 C1130 1.386 . S
C1131 C1135 1.393 . S
C1132 H1121 0.950 . S
C1132 C1130 1.391 . S
C1132 C1133 1.400 . S
C1133 C1127 1.491 . S
C1133 C1132 1.400 . S
C1133 C1134 1.398 . S
C1134 H1122 0.950 . S
C1134 C1133 1.398 . S
C1134 C1135 1.391 . S
C1135 H1123 0.950 . S
C1135 C1131 1.393 . S
C1135 C1134 1.391 . S
H1136 C1144 0.950 . S
H1137 C1149 0.950 . S
H1138 C1146 0.950 . S
H1139 C1148 0.950 . S
H1140 C1150 0.950 . S
H1141 C1152 0.950 . S
H1142 C1154 0.950 . S
H1143 C1155 0.950 . S
C1144 H1136 0.950 . S
C1144 C1145 1.386 . S
C1144 C1146 1.391 . S
C1145 C1144 1.386 . S
C1145 C1149 1.393 . S
C1146 H1138 0.950 . S
C1146 C1144 1.391 . S
C1146 C1147 1.400 . S
C1147 C1146 1.400 . S
C1147 C1148 1.398 . S
C1147 C1153 1.491 . S
C1148 H1139 0.950 . S
C1148 C1147 1.398 . S
C1148 C1149 1.391 . S
C1149 H1137 0.950 . S
C1149 C1145 1.393 . S
C1149 C1148 1.391 . S
C1150 H1140 0.950 . S
C1150 C1151 1.386 . S
C1150 C1152 1.391 . S
C1151 C1150 1.386 . S
C1151 C1155 1.393 . S
C1152 H1141 0.950 . S
C1152 C1150 1.391 . S
C1152 C1153 1.400 . S
C1153 C1147 1.491 . S
C1153 C1152 1.400 . S
C1153 C1154 1.398 . S
C1154 H1142 0.950 . S
C1154 C1153 1.398 . S
C1154 C1155 1.391 . S
C1155 H1143 0.950 . S
C1155 C1151 1.393 . S
C1155 C1154 1.391 . S
H1156 C1164 0.950 . S
H1157 C1169 0.950 . S
H1158 C1166 0.950 . S
H1159 C1168 0.950 . S
H1160 C1170 0.950 . S
H1161 C1172 0.950 . S
H1162 C1174 0.950 . S
H1163 C1175 0.950 . S
C1164 H1156 0.950 . S
C1164 C1165 1.386 . S
C1164 C1166 1.391 . S
C1165 C1164 1.386 . S
C1165 C1169 1.393 . S
C1166 H1158 0.950 . S
C1166 C1164 1.391 . S
C1166 C1167 1.400 . S
C1167 C1166 1.400 . S
C1167 C1168 1.398 . S
C1167 C1173 1.491 . S
C1168 H1159 0.950 . S
C1168 C1167 1.398 . S
C1168 C1169 1.391 . S
C1169 H1157 0.950 . S
C1169 C1165 1.393 . S
C1169 C1168 1.391 . S
C1170 H1160 0.950 . S
C1170 C1171 1.386 . S
C1170 C1172 1.391 . S
C1171 C1170 1.386 . S
C1171 C1175 1.393 . S
C1172 H1161 0.950 . S
C1172 C1170 1.391 . S
C1172 C1173 1.400 . S
C1173 C1167 1.491 . S
C1173 C1172 1.400 . S
C1173 C1174 1.398 . S
C1174 H1162 0.950 . S
C1174 C1173 1.398 . S
C1174 C1175 1.391 . S
C1175 H1163 0.950 . S
C1175 C1171 1.393 . S
C1175 C1174 1.391 . S
H1176 C1184 0.950 . S
H1177 C1189 0.950 . S
H1178 C1186 0.950 . S
H1179 C1188 0.950 . S
H1180 C1190 0.950 . S
H1181 C1192 0.950 . S
H1182 C1194 0.950 . S
H1183 C1195 0.950 . S
C1184 H1176 0.950 . S
C1184 C1185 1.386 . S
C1184 C1186 1.391 . S
C1185 C1184 1.386 . S
C1185 C1189 1.393 . S
C1186 H1178 0.950 . S
C1186 C1184 1.391 . S
C1186 C1187 1.400 . S
C1187 C1186 1.400 . S
C1187 C1188 1.398 . S
C1187 C1193 1.491 . S
C1188 H1179 0.950 . S
C1188 C1187 1.398 . S
C1188 C1189 1.391 . S
C1189 H1177 0.950 . S
C1189 C1185 1.393 . S
C1189 C1188 1.391 . S
C1190 H1180 0.950 . S
C1190 C1191 1.386 . S
C1190 C1192 1.391 . S
C1191 C1190 1.386 . S
C1191 C1195 1.393 . S
C1192 H1181 0.950 . S
C1192 C1190 1.391 . S
C1192 C1193 1.400 . S
C1193 C1187 1.491 . S
C1193 C1192 1.400 . S
C1193 C1194 1.398 . S
C1194 H1182 0.950 . S
C1194 C1193 1.398 . S
C1194 C1195 1.391 . S
C1195 H1183 0.950 . S
C1195 C1191 1.393 . S
C1195 C1194 1.391 . S
H1196 C1204 0.950 . S
H1197 C1209 0.950 . S
H1198 C1206 0.950 . S
H1199 C1208 0.950 . S
H1200 C1210 0.950 . S
H1201 C1212 0.950 . S
H1202 C1214 0.950 . S
H1203 C1215 0.950 . S
C1204 H1196 0.950 . S
C1204 C1205 1.386 . S
C1204 C1206 1.391 . S
C1205 C1204 1.386 . S
C1205 C1209 1.393 . S
C1206 H1198 0.950 . S
C1206 C1204 1.391 . S
C1206 C1207 1.400 . S
C1207 C1206 1.400 . S
C1207 C1208 1.398 . S
C1207 C1213 1.491 . S
C1208 H1199 0.950 . S
C1208 C1207 1.398 . S
C1208 C1209 1.391 . S
C1209 H1197 0.950 . S
C1209 C1205 1.393 . S
C1209 C1208 1.391 . S
C1210 H1200 0.950 . S
C1210 C1211 1.386 . S
C1210 C1212 1.391 . S
C1211 C1210 1.386 . S
C1211 C1215 1.393 . S
C1212 H1201 0.950 . S
C1212 C1210 1.391 . S
C1212 C1213 1.400 . S
C1213 C1207 1.491 . S
C1213 C1212 1.400 . S
C1213 C1214 1.398 . S
C1214 H1202 0.950 . S
C1214 C1213 1.398 . S
C1214 C1215 1.391 . S
C1215 H1203 0.950 . S
C1215 C1211 1.393 . S
C1215 C1214 1.391 . S
H1216 C1224 0.950 . S
H1217 C1229 0.950 . S
H1218 C1226 0.950 . S
H1219 C1228 0.950 . S
H1220 C1230 0.950 . S
H1221 C1232 0.950 . S
H1222 C1234 0.950 . S
H1223 C1235 0.950 . S
C1224 H1216 0.950 . S
C1224 C1225 1.386 . S
C1224 C1226 1.391 . S
C1225 C1224 1.386 . S
C1225 C1229 1.393 . S
C1226 H1218 0.950 . S
C1226 C1224 1.391 . S
C1226 C1227 1.400 . S
C1227 C1226 1.400 . S
C1227 C1228 1.398 . S
C1227 C1233 1.491 . S
C1228 H1219 0.950 . S
C1228 C1227 1.398 . S
C1228 C1229 1.391 . S
C1229 H1217 0.950 . S
C1229 C1225 1.393 . S
C1229 C1228 1.391 . S
C1230 H1220 0.950 . S
C1230 C1231 1.386 . S
C1230 C1232 1.391 . S
C1231 C1230 1.386 . S
C1231 C1235 1.393 . S
C1232 H1221 0.950 . S
C1232 C1230 1.391 . S
C1232 C1233 1.400 . S
C1233 C1227 1.491 . S
C1233 C1232 1.400 . S
C1233 C1234 1.398 . S
C1234 H1222 0.950 . S
C1234 C1233 1.398 . S
C1234 C1235 1.391 . S
C1235 H1223 0.950 . S
C1235 C1231 1.393 . S
C1235 C1234 1.391 . S
H1236 C1244 0.950 . S
H1237 C1249 0.950 . S
H1238 C1246 0.950 . S
H1239 C1248 0.950 . S
H1240 C1250 0.950 . S
H1241 C1252 0.950 . S
H1242 C1254 0.950 . S
H1243 C1255 0.950 . S
C1244 H1236 0.950 . S
C1244 C1245 1.386 . S
C1244 C1246 1.391 . S
C1245 C1244 1.386 . S
C1245 C1249 1.393 . S
C1246 H1238 0.950 . S
C1246 C1244 1.391 . S
C1246 C1247 1.400 . S
C1247 C1246 1.400 . S
C1247 C1248 1.398 . S
C1247 C1253 1.491 . S
C1248 H1239 0.950 . S
C1248 C1247 1.398 . S
C1248 C1249 1.391 . S
C1249 H1237 0.950 . S
C1249 C1245 1.393 . S
C1249 C1248 1.391 . S
C1250 H1240 0.950 . S
C1250 C1251 1.386 . S
C1250 C1252 1.391 . S
C1251 C1250 1.386 . S
C1251 C1255 1.393 . S
C1252 H1241 0.950 . S
C1252 C1250 1.391 . S
C1252 C1253 1.400 . S
C1253 C1247 1.491 . S
C1253 C1252 1.400 . S
C1253 C1254 1.398 . S
C1254 H1242 0.950 . S
C1254 C1253 1.398 . S
C1254 C1255 1.391 . S
C1255 H1243 0.950 . S
C1255 C1251 1.393 . S
C1255 C1254 1.391 . S
H1256 C1264 0.950 . S
H1257 C1269 0.950 . S
H1258 C1266 0.950 . S
H1259 C1268 0.950 . S
H1260 C1270 0.950 . S
H1261 C1272 0.950 1_556 S
H1262 C1274 0.950 . S
H1263 C1275 0.950 . S
C1264 H1256 0.950 . S
C1264 C1265 1.386 1_554 S
C1264 C1266 1.391 . S
C1265 C1264 1.386 1_556 S
C1265 C1269 1.393 . S
C1266 H1258 0.950 . S
C1266 C1264 1.391 . S
C1266 C1267 1.400 . S
C1267 C1266 1.400 . S
C1267 C1268 1.398 1_554 S
C1267 C1273 1.491 . S
C1268 H1259 0.950 . S
C1268 C1267 1.398 1_556 S
C1268 C1269 1.391 . S
C1269 H1257 0.950 . S
C1269 C1265 1.393 . S
C1269 C1268 1.391 . S
C1270 H1260 0.950 . S
C1270 C1271 1.386 . S
C1270 C1272 1.391 . S
C1271 C1270 1.386 . S
C1271 C1275 1.393 . S
C1272 H1261 0.950 1_554 S
C1272 C1270 1.391 . S
C1272 C1273 1.400 . S
C1273 C1267 1.491 . S
C1273 C1272 1.400 . S
C1273 C1274 1.398 . S
C1274 H1262 0.950 . S
C1274 C1273 1.398 . S
C1274 C1275 1.391 . S
C1275 H1263 0.950 . S
C1275 C1271 1.393 . S
C1275 C1274 1.391 . S
H1276 C1284 0.950 . S
H1277 C1289 0.950 . S
H1278 C1286 0.950 . S
H1279 C1288 0.950 . S
H1280 C1290 0.950 . S
H1281 C1292 0.950 . S
H1282 C1294 0.950 . S
H1283 C1295 0.950 . S
C1284 H1276 0.950 . S
C1284 C1285 1.386 . S
C1284 C1286 1.391 . S
C1285 C1284 1.386 . S
C1285 C1289 1.393 . S
C1286 H1278 0.950 . S
C1286 C1284 1.391 . S
C1286 C1287 1.400 . S
C1287 C1286 1.400 . S
C1287 C1288 1.398 . S
C1287 C1293 1.491 . S
C1288 H1279 0.950 . S
C1288 C1287 1.398 . S
C1288 C1289 1.391 . S
C1289 H1277 0.950 . S
C1289 C1285 1.393 . S
C1289 C1288 1.391 . S
C1290 H1280 0.950 . S
C1290 C1291 1.386 . S
C1290 C1292 1.391 . S
C1291 C1290 1.386 . S
C1291 C1295 1.393 . S
C1292 H1281 0.950 . S
C1292 C1290 1.391 . S
C1292 C1293 1.400 . S
C1293 C1287 1.491 . S
C1293 C1292 1.400 . S
C1293 C1294 1.398 . S
C1294 H1282 0.950 . S
C1294 C1293 1.398 . S
C1294 C1295 1.391 . S
C1295 H1283 0.950 . S
C1295 C1291 1.393 . S
C1295 C1294 1.391 . S
H1296 C1304 0.950 . S
H1297 C1309 0.950 . S
H1298 C1306 0.950 . S
H1299 C1308 0.950 . S
H1300 C1310 0.950 . S
H1301 C1312 0.950 . S
H1302 C1314 0.950 . S
H1303 C1315 0.950 . S
C1304 H1296 0.950 . S
C1304 C1305 1.386 . S
C1304 C1306 1.391 . S
C1305 C1304 1.386 . S
C1305 C1309 1.393 . S
C1306 H1298 0.950 . S
C1306 C1304 1.391 . S
C1306 C1307 1.400 . S
C1307 C1306 1.400 . S
C1307 C1308 1.398 . S
C1307 C1313 1.491 . S
C1308 H1299 0.950 . S
C1308 C1307 1.398 . S
C1308 C1309 1.391 . S
C1309 H1297 0.950 . S
C1309 C1305 1.393 . S
C1309 C1308 1.391 . S
C1310 H1300 0.950 . S
C1310 C1311 1.386 . S
C1310 C1312 1.391 . S
C1311 C1310 1.386 . S
C1311 C1315 1.393 . S
C1312 H1301 0.950 . S
C1312 C1310 1.391 . S
C1312 C1313 1.400 . S
C1313 C1307 1.491 . S
C1313 C1312 1.400 . S
C1313 C1314 1.398 . S
C1314 H1302 0.950 . S
C1314 C1313 1.398 . S
C1314 C1315 1.391 . S
C1315 H1303 0.950 . S
C1315 C1311 1.393 . S
C1315 C1314 1.391 . S
H1316 C1324 0.950 . S
H1317 C1329 0.950 . S
H1318 C1326 0.950 . S
H1319 C1328 0.950 1_545 S
H1320 C1330 0.950 . S
H1321 C1332 0.950 . S
H1322 C1334 0.950 . S
H1323 C1335 0.950 . S
C1324 H1316 0.950 . S
C1324 C1325 1.386 . S
C1324 C1326 1.391 . S
C1325 C1324 1.386 . S
C1325 C1329 1.393 1_565 S
C1326 H1318 0.950 . S
C1326 C1324 1.391 . S
C1326 C1327 1.400 . S
C1327 C1326 1.400 . S
C1327 C1328 1.398 . S
C1327 C1333 1.491 . S
C1328 H1319 0.950 1_565 S
C1328 C1327 1.398 . S
C1328 C1329 1.391 1_565 S
C1329 H1317 0.950 . S
C1329 C1325 1.393 1_545 S
C1329 C1328 1.391 1_545 S
C1330 H1320 0.950 . S
C1330 C1331 1.386 . S
C1330 C1332 1.391 . S
C1331 C1330 1.386 . S
C1331 C1335 1.393 . S
C1332 H1321 0.950 . S
C1332 C1330 1.391 . S
C1332 C1333 1.400 . S
C1333 C1327 1.491 . S
C1333 C1332 1.400 . S
C1333 C1334 1.398 . S
C1334 H1322 0.950 . S
C1334 C1333 1.398 . S
C1334 C1335 1.391 . S
C1335 H1323 0.950 . S
C1335 C1331 1.393 . S
C1335 C1334 1.391 . S
C391 C219 1.678 . S
C385 C73 1.722 . S
C411 C227 1.150 . S
C405 C82 1.258 1_455 S
C425 C100 1.757 . S
C431 C247 1.708 1_556 S
C451 C261 1.334 . S
C445 C56 1.314 . S
C471 C276 1.407 . S
C465 C134 1.395 . S
C491 C290 1.733 . S
C485 C165 1.720 . S
C505 C147 1.234 . S
C511 C304 1.277 . S
C531 C310 1.746 . S
C525 C125 1.803 . S
C545 C151 1.421 . S
C551 C324 1.378 . S
C571 C345 1.470 . S
C565 C121 1.447 . S
C585 C139 1.715 . S
C591 C325 1.473 . S
C611 C346 1.346 . S
C605 C164 1.344 . S
C625 C95 1.273 . S
C631 C353 1.146 . S
C645 C61 1.515 . S
C651 C359 1.496 . S
C665 C74 1.427 . S
C671 C352 1.393 . S
C685 C86 1.710 . S
C691 C360 1.715 . S
C705 C47 1.406 . S
C711 C254 1.369 . S
C725 C186 1.291 . S
C731 C255 1.110 . S
C751 C212 1.482 . S
C745 C204 1.552 . S
C771 C233 1.773 . S
C765 C112 1.809 . S
C785 C60 1.375 1_545 S
C791 C268 1.337 . S
C811 C318 1.455 . S
C805 C152 1.446 . S
C831 C269 1.555 . S
C825 C126 1.843 . S
C851 C297 1.130 . S
C845 C160 1.335 . S
C871 C303 1.674 . S
C865 C190 1.720 . S
C885 C199 1.293 . S
C891 C311 1.160 . S
C905 C113 1.758 . S
C911 C275 1.711 . S
C931 C289 1.321 . S
C925 C173 1.324 . S
C945 C43 1.388 . S
C951 C248 1.414 . S
C971 C262 1.734 . S
C965 C9 1.721 . S
C991 C220 1.278 . S
C985 C17 1.243 . S
C1011 C226 1.747 . S
C1005 C34 1.803 1_455 S
C1025 C21 1.420 . S
C1031 C338 1.392 . S
C1045 C30 1.447 . S
C1051 C331 1.474 1_455 S
C1065 C48 1.714 . S
C1071 C339 1.475 . S
C1085 C8 1.349 . S
C1091 C332 1.346 . S
C1111 C367 1.115 . S
C1105 C108 1.285 . S
C1131 C373 1.496 . S
C1125 C178 1.515 1_554 S
C1151 C366 1.384 . S
C1145 C191 1.422 . S
C1165 C203 1.710 . S
C1171 C374 1.715 . S
C1185 C138 1.405 . S
C1191 C282 1.341 . S
C1211 C283 1.085 . S
C1205 C69 1.297 . S
C1231 C296 1.485 . S
C1225 C87 1.552 . S
C1251 C317 1.774 . S
C1245 C99 1.808 . S
C1265 C177 1.374 . S
C1271 C240 1.318 . S
C1291 C234 1.457 . S
C1285 C22 1.453 . S
C1305 C35 1.844 . S
C1311 C241 1.555 . S
C1331 C213 1.091 . S
C1325 C4 1.350 . S
