# Generated by pormake.
# Topology eea, (3,6)-cn, num edge types: 1
# Building blocks:
#     Node 0, Type 0, BuildingBlock: PAMTOO_clean_linker_0, # of connection points: 3
#     Node 1, Type 0, BuildingBlock: PAMTOO_clean_linker_0, # of connection points: 3
#     Node 2, Type 0, BuildingBlock: PAMTOO_clean_linker_0, # of connection points: 3
#     Node 3, Type 0, BuildingBlock: PAMTOO_clean_linker_0, # of connection points: 3
#     Node 4, Type 0, BuildingBlock: PAMTOO_clean_linker_0, # of connection points: 3
#     Node 5, Type 0, BuildingBlock: PAMTOO_clean_linker_0, # of connection points: 3
#     Node 6, Type 0, BuildingBlock: PAMTOO_clean_linker_0, # of connection points: 3
#     Node 7, Type 0, BuildingBlock: PAMTOO_clean_linker_0, # of connection points: 3
#     Node 8, Type 0, BuildingBlock: PAMTOO_clean_linker_0, # of connection points: 3
#     Node 9, Type 0, BuildingBlock: PAMTOO_clean_linker_0, # of connection points: 3
#     Node 10, Type 0, BuildingBlock: PAMTOO_clean_linker_0, # of connection points: 3
#     Node 11, Type 0, BuildingBlock: PAMTOO_clean_linker_0, # of connection points: 3
#     Node 12, Type 0, BuildingBlock: PAMTOO_clean_linker_0, # of connection points: 3
#     Node 13, Type 0, BuildingBlock: PAMTOO_clean_linker_0, # of connection points: 3
#     Node 14, Type 0, BuildingBlock: PAMTOO_clean_linker_0, # of connection points: 3
#     Node 15, Type 0, BuildingBlock: PAMTOO_clean_linker_0, # of connection points: 3
#     Node 16, Type 0, BuildingBlock: PAMTOO_clean_linker_0, # of connection points: 3
#     Node 17, Type 0, BuildingBlock: PAMTOO_clean_linker_0, # of connection points: 3
#     Node 18, Type 1, BuildingBlock: CUWYAW_clean_sbu_0, # of connection points: 6
#     Node 19, Type 1, BuildingBlock: CUWYAW_clean_sbu_0, # of connection points: 6
#     Node 20, Type 1, BuildingBlock: CUWYAW_clean_sbu_0, # of connection points: 6
#     Node 21, Type 1, BuildingBlock: CUWYAW_clean_sbu_0, # of connection points: 6
#     Node 22, Type 1, BuildingBlock: CUWYAW_clean_sbu_0, # of connection points: 6
#     Node 23, Type 1, BuildingBlock: CUWYAW_clean_sbu_0, # of connection points: 6
#     Node 24, Type 1, BuildingBlock: CUWYAW_clean_sbu_0, # of connection points: 6
#     Node 25, Type 1, BuildingBlock: CUWYAW_clean_sbu_0, # of connection points: 6
#     Node 26, Type 1, BuildingBlock: CUWYAW_clean_sbu_0, # of connection points: 6
#     Edge 27, Type (0, 1), BuildingBlock: AJUNOK_clean_linker_0, # of connection points: 2
#     Edge 28, Type (0, 1), BuildingBlock: AJUNOK_clean_linker_0, # of connection points: 2
#     Edge 29, Type (0, 1), BuildingBlock: AJUNOK_clean_linker_0, # of connection points: 2
#     Edge 30, Type (0, 1), BuildingBlock: AJUNOK_clean_linker_0, # of connection points: 2
#     Edge 31, Type (0, 1), BuildingBlock: AJUNOK_clean_linker_0, # of connection points: 2
#     Edge 32, Type (0, 1), BuildingBlock: AJUNOK_clean_linker_0, # of connection points: 2
#     Edge 33, Type (0, 1), BuildingBlock: AJUNOK_clean_linker_0, # of connection points: 2
#     Edge 34, Type (0, 1), BuildingBlock: AJUNOK_clean_linker_0, # of connection points: 2
#     Edge 35, Type (0, 1), BuildingBlock: AJUNOK_clean_linker_0, # of connection points: 2
#     Edge 36, Type (0, 1), BuildingBlock: AJUNOK_clean_linker_0, # of connection points: 2
#     Edge 37, Type (0, 1), BuildingBlock: AJUNOK_clean_linker_0, # of connection points: 2
#     Edge 38, Type (0, 1), BuildingBlock: AJUNOK_clean_linker_0, # of connection points: 2
#     Edge 39, Type (0, 1), BuildingBlock: AJUNOK_clean_linker_0, # of connection points: 2
#     Edge 40, Type (0, 1), BuildingBlock: AJUNOK_clean_linker_0, # of connection points: 2
#     Edge 41, Type (0, 1), BuildingBlock: AJUNOK_clean_linker_0, # of connection points: 2
#     Edge 42, Type (0, 1), BuildingBlock: AJUNOK_clean_linker_0, # of connection points: 2
#     Edge 43, Type (0, 1), BuildingBlock: AJUNOK_clean_linker_0, # of connection points: 2
#     Edge 44, Type (0, 1), BuildingBlock: AJUNOK_clean_linker_0, # of connection points: 2
#     Edge 45, Type (0, 1), BuildingBlock: AJUNOK_clean_linker_0, # of connection points: 2
#     Edge 46, Type (0, 1), BuildingBlock: AJUNOK_clean_linker_0, # of connection points: 2
#     Edge 47, Type (0, 1), BuildingBlock: AJUNOK_clean_linker_0, # of connection points: 2
#     Edge 48, Type (0, 1), BuildingBlock: AJUNOK_clean_linker_0, # of connection points: 2
#     Edge 49, Type (0, 1), BuildingBlock: AJUNOK_clean_linker_0, # of connection points: 2
#     Edge 50, Type (0, 1), BuildingBlock: AJUNOK_clean_linker_0, # of connection points: 2
#     Edge 51, Type (0, 1), BuildingBlock: AJUNOK_clean_linker_0, # of connection points: 2
#     Edge 52, Type (0, 1), BuildingBlock: AJUNOK_clean_linker_0, # of connection points: 2
#     Edge 53, Type (0, 1), BuildingBlock: AJUNOK_clean_linker_0, # of connection points: 2
#     Edge 54, Type (0, 1), BuildingBlock: AJUNOK_clean_linker_0, # of connection points: 2
#     Edge 55, Type (0, 1), BuildingBlock: AJUNOK_clean_linker_0, # of connection points: 2
#     Edge 56, Type (0, 1), BuildingBlock: AJUNOK_clean_linker_0, # of connection points: 2
#     Edge 57, Type (0, 1), BuildingBlock: AJUNOK_clean_linker_0, # of connection points: 2
#     Edge 58, Type (0, 1), BuildingBlock: AJUNOK_clean_linker_0, # of connection points: 2
#     Edge 59, Type (0, 1), BuildingBlock: AJUNOK_clean_linker_0, # of connection points: 2
#     Edge 60, Type (0, 1), BuildingBlock: AJUNOK_clean_linker_0, # of connection points: 2
#     Edge 61, Type (0, 1), BuildingBlock: AJUNOK_clean_linker_0, # of connection points: 2
#     Edge 62, Type (0, 1), BuildingBlock: AJUNOK_clean_linker_0, # of connection points: 2
#     Edge 63, Type (0, 1), BuildingBlock: AJUNOK_clean_linker_0, # of connection points: 2
#     Edge 64, Type (0, 1), BuildingBlock: AJUNOK_clean_linker_0, # of connection points: 2
#     Edge 65, Type (0, 1), BuildingBlock: AJUNOK_clean_linker_0, # of connection points: 2
#     Edge 66, Type (0, 1), BuildingBlock: AJUNOK_clean_linker_0, # of connection points: 2
#     Edge 67, Type (0, 1), BuildingBlock: AJUNOK_clean_linker_0, # of connection points: 2
#     Edge 68, Type (0, 1), BuildingBlock: AJUNOK_clean_linker_0, # of connection points: 2
#     Edge 69, Type (0, 1), BuildingBlock: AJUNOK_clean_linker_0, # of connection points: 2
#     Edge 70, Type (0, 1), BuildingBlock: AJUNOK_clean_linker_0, # of connection points: 2
#     Edge 71, Type (0, 1), BuildingBlock: AJUNOK_clean_linker_0, # of connection points: 2
#     Edge 72, Type (0, 1), BuildingBlock: AJUNOK_clean_linker_0, # of connection points: 2
#     Edge 73, Type (0, 1), BuildingBlock: AJUNOK_clean_linker_0, # of connection points: 2
#     Edge 74, Type (0, 1), BuildingBlock: AJUNOK_clean_linker_0, # of connection points: 2
#     Edge 75, Type (0, 1), BuildingBlock: AJUNOK_clean_linker_0, # of connection points: 2
#     Edge 76, Type (0, 1), BuildingBlock: AJUNOK_clean_linker_0, # of connection points: 2
#     Edge 77, Type (0, 1), BuildingBlock: AJUNOK_clean_linker_0, # of connection points: 2
#     Edge 78, Type (0, 1), BuildingBlock: AJUNOK_clean_linker_0, # of connection points: 2
#     Edge 79, Type (0, 1), BuildingBlock: AJUNOK_clean_linker_0, # of connection points: 2
#     Edge 80, Type (0, 1), BuildingBlock: AJUNOK_clean_linker_0, # of connection points: 2
# Relax obj value: 0.058
# Max RMSD: 0.226
# Mean RMSD: 0.161
data_MOF--net-eea--node1-CUWYAW_clean_sbu_0--node2-PAMTOO_clean_linker_0--edge1-AJUNOK_clean_linker_0
_symmetry_space_group_name_H-M    P1
_symmetry_Int_Tables_number       1
_symmetry_cell_setting            triclinic
loop_
_symmetry_equiv_pos_as_xyz
'x, y, z'
_cell_length_a     39.679332
_cell_length_b     39.027074
_cell_length_c     54.865815
_cell_angle_alpha  92.992659
_cell_angle_beta   92.892683
_cell_angle_gamma 119.96658
loop_
_atom_site_label
_atom_site_type_symbol
_atom_site_fract_x
_atom_site_fract_y
_atom_site_fract_z
_atom_type_partial_charge
H0 H 0.23966 0.05257 0.42961 0.0
H1 H 0.23791 0.16188 0.44005 0.0
H2 H 0.20322 0.09635 0.3693 0.0
H3 H 0.25034 0.18469 0.36902 0.0
C4 C 0.24051 0.1933 0.3857 0.0
O5 O 0.21195 0.15955 0.39495 0.0
H6 H 0.26597 0.20904 0.39966 0.0
C7 C 0.23485 0.07521 0.42233 0.0
C8 C 0.22161 0.07083 0.39749 0.0
C9 C 0.2413 0.10814 0.43789 0.0
C10 C 0.23304 0.13621 0.42844 0.0
C11 C 0.2194 0.132 0.40378 0.0
C12 C 0.21354 0.09926 0.38838 0.0
H13 H 0.98203 0.21353 0.44088 0.0
H14 H 0.87676 0.09944 0.43242 0.0
H15 H 0.94222 0.14412 0.37067 0.0
H16 H 0.85522 0.09021 0.35728 0.0
C17 C 0.84864 0.07502 0.37445 0.0
O18 O 0.88313 0.08296 0.3871 0.0
H19 H 0.83334 0.08663 0.38574 0.0
C20 C 0.96058 0.18775 0.42917 0.0
C21 C 0.96604 0.18378 0.40413 0.0
C22 C 0.92796 0.158 0.43948 0.0
C23 C 0.90189 0.12295 0.42488 0.0
C24 C 0.90744 0.11791 0.40034 0.0
C25 C 0.93896 0.14837 0.38989 0.0
H26 H 0.83233 0.77861 0.44142 0.0
H27 H 0.94386 0.78485 0.44599 0.0
H28 H 0.90204 0.81112 0.37987 0.0
H29 H 0.93971 0.75832 0.37518 0.0
C30 C 0.96322 0.77476 0.39028 0.0
O31 O 0.95916 0.8049 0.40138 0.0
H32 H 0.95994 0.75322 0.40379 0.0
C33 C 0.85885 0.78464 0.43323 0.0
C34 C 0.86365 0.7957 0.40914 0.0
C35 C 0.88761 0.78094 0.4468 0.0
C36 C 0.92128 0.78749 0.43579 0.0
C37 C 0.92617 0.79779 0.41158 0.0
C38 C 0.89743 0.80197 0.39829 0.0
H39 H 0.06542 0.27154 0.58161 0.0
H40 H 0.16298 0.25176 0.58124 0.0
H41 H 0.09269 0.22029 0.64191 0.0
H42 H 0.18126 0.26481 0.65399 0.0
C43 C 0.18875 0.25271 0.63764 0.0
O44 O 0.15473 0.22479 0.62413 0.0
H45 H 0.2063 0.27785 0.62656 0.0
C46 C 0.08312 0.26067 0.59008 0.0
C47 C 0.07464 0.24513 0.61304 0.0
C48 C 0.11504 0.26336 0.57842 0.0
C49 C 0.13828 0.25004 0.5899 0.0
C50 C 0.13064 0.23536 0.61287 0.0
C51 C 0.09878 0.23263 0.62436 0.0
H52 H 0.80279 0.8247 0.59097 0.0
H53 H 0.80919 0.93829 0.59103 0.0
H54 H 0.8391 0.90307 0.65749 0.0
H55 H 0.79795 0.94969 0.66545 0.0
C56 C 0.80422 0.96412 0.64801 0.0
O57 O 0.83252 0.9592 0.63735 0.0
H58 H 0.77681 0.94945 0.63556 0.0
C59 C 0.80858 0.85226 0.6007 0.0
C60 C 0.82184 0.86042 0.62578 0.0
C61 C 0.80456 0.88055 0.58792 0.0
C62 C 0.81262 0.91643 0.60056 0.0
C63 C 0.82464 0.9243 0.62557 0.0
C64 C 0.8294 0.89647 0.63812 0.0
H65 H 0.21569 0.98089 0.59581 0.0
H66 H 0.10572 0.87167 0.5817 0.0
H67 H 0.13867 0.93472 0.65323 0.0
H68 H 0.10119 0.84501 0.65041 0.0
C69 C 0.0789 0.8376 0.63482 0.0
O70 O 0.08407 0.87231 0.62604 0.0
H71 H 0.08314 0.81966 0.62017 0.0
C72 C 0.18873 0.95819 0.60219 0.0
C73 C 0.18088 0.9617 0.62661 0.0
C74 C 0.16189 0.92586 0.58583 0.0
C75 C 0.12683 0.89666 0.59413 0.0
C76 C 0.1185 0.89989 0.61841 0.0
C77 C 0.14543 0.9324 0.63454 0.0
H78 H 0.90414 0.38153 0.76092 0.0
H79 H 0.90148 0.49037 0.77109 0.0
H80 H 0.86498 0.42333 0.70079 0.0
H81 H 0.91009 0.50927 0.69885 0.0
C82 C 0.90118 0.51933 0.7154 0.0
O83 O 0.87385 0.48673 0.72619 0.0
H84 H 0.92751 0.53685 0.72857 0.0
C85 C 0.89878 0.40381 0.7536 0.0
C86 C 0.8848 0.39884 0.72888 0.0
C87 C 0.9053 0.43687 0.769 0.0
C88 C 0.89652 0.46458 0.75956 0.0
C89 C 0.88204 0.4597 0.73504 0.0
C90 C 0.87596 0.42675 0.71978 0.0
H91 H 0.64565 0.54548 0.77357 0.0
H92 H 0.5405 0.43134 0.76491 0.0
H93 H 0.60482 0.47728 0.70289 0.0
H94 H 0.516 0.42296 0.68989 0.0
C95 C 0.51044 0.40903 0.70751 0.0
O96 O 0.5454 0.4162 0.71905 0.0
H97 H 0.49725 0.42268 0.71909 0.0
C98 C 0.62434 0.51972 0.76178 0.0
C99 C 0.62954 0.5161 0.73664 0.0
C100 C 0.59219 0.48944 0.77215 0.0
C101 C 0.56559 0.45489 0.75736 0.0
C102 C 0.57046 0.45056 0.73261 0.0
C103 C 0.60196 0.48112 0.72222 0.0
H104 H 0.49686 0.10828 0.7772 0.0
H105 H 0.60863 0.11494 0.77882 0.0
H106 H 0.56494 0.1449 0.71512 0.0
H107 H 0.60397 0.09493 0.70622 0.0
C108 C 0.62632 0.10833 0.72221 0.0
O109 O 0.62261 0.13768 0.73474 0.0
H110 H 0.62115 0.08447 0.73432 0.0
C111 C 0.52304 0.11456 0.76848 0.0
C112 C 0.52763 0.1278 0.7449 0.0
C113 C 0.55182 0.10947 0.78091 0.0
C114 C 0.58554 0.11762 0.76936 0.0
C115 C 0.58987 0.12966 0.74554 0.0
C116 C 0.56088 0.13458 0.73327 0.0
H117 H 0.73486 0.60594 0.91585 0.0
H118 H 0.83424 0.58936 0.91568 0.0
H119 H 0.76729 0.5617 0.97796 0.0
H120 H 0.85889 0.60763 0.98732 0.0
C121 C 0.86368 0.59303 0.97097 0.0
O122 O 0.82818 0.56473 0.95917 0.0
H123 H 0.8802 0.61662 0.95865 0.0
C124 C 0.75408 0.59741 0.92496 0.0
C125 C 0.74703 0.58377 0.94848 0.0
C126 C 0.78551 0.59963 0.91297 0.0
C127 C 0.80975 0.58769 0.92458 0.0
C128 C 0.80365 0.57493 0.94811 0.0
C129 C 0.77234 0.57284 0.96004 0.0
H130 H 0.45752 0.15492 0.93003 0.0
H131 H 0.46225 0.26773 0.93033 0.0
H132 H 0.50793 0.23981 0.99373 0.0
H133 H 0.46928 0.28744 1.00559 0.0
C134 C 0.47216 0.3008 0.98786 0.0
O135 O 0.49682 0.29375 0.9743 0.0
H136 H 0.44261 0.28667 0.97779 0.0
C137 C 0.46547 0.18347 0.93935 0.0
C138 C 0.48406 0.19404 0.96334 0.0
C139 C 0.45735 0.20989 0.92733 0.0
C140 C 0.46786 0.24687 0.93946 0.0
C141 C 0.48603 0.25754 0.96325 0.0
C142 C 0.49403 0.23122 0.97519 0.0
H143 H 0.87644 0.31785 0.92264 0.0
H144 H 0.76678 0.20755 0.91062 0.0
H145 H 0.80093 0.27397 0.98097 0.0
H146 H 0.76712 0.18687 0.98106 0.0
C147 C 0.74427 0.17687 0.96547 0.0
O148 O 0.74681 0.2096 0.95522 0.0
H149 H 0.74976 0.15875 0.95164 0.0
C150 C 0.84943 0.29566 0.92925 0.0
C151 C 0.84181 0.30051 0.95357 0.0
C152 C 0.82249 0.26236 0.91345 0.0
C153 C 0.7879 0.23341 0.92245 0.0
C154 C 0.78024 0.23761 0.94675 0.0
C155 C 0.80707 0.27114 0.96219 0.0
H156 H 0.5733 0.71905 0.09519 0.0
H157 H 0.5662 0.82555 0.10435 0.0
H158 H 0.53473 0.75948 0.03394 0.0
H159 H 0.579 0.84569 0.03192 0.0
C160 C 0.56978 0.85541 0.04845 0.0
O161 O 0.54197 0.82254 0.05878 0.0
H162 H 0.59582 0.87252 0.0619 0.0
C163 C 0.56655 0.74029 0.08767 0.0
C164 C 0.55356 0.73522 0.06272 0.0
C165 C 0.571 0.77263 0.10294 0.0
C166 C 0.56282 0.80036 0.0929 0.0
C167 C 0.54993 0.79568 0.0681 0.0
C168 C 0.54484 0.76292 0.05311 0.0
H169 H 0.30492 0.88315 0.10385 0.0
H170 H 0.20502 0.76492 0.09462 0.0
H171 H 0.27979 0.8092 0.03651 0.0
H172 H 0.19242 0.75233 0.01814 0.0
C173 C 0.18391 0.73963 0.03599 0.0
O174 O 0.21705 0.74835 0.0506 0.0
H175 H 0.16817 0.75323 0.04483 0.0
C176 C 0.28697 0.85521 0.0928 0.0
C177 C 0.29686 0.84992 0.06915 0.0
C178 C 0.25388 0.82476 0.10218 0.0
C179 C 0.23033 0.78899 0.08757 0.0
C180 C 0.23939 0.78363 0.06392 0.0
C181 C 0.27249 0.81405 0.05465 0.0
H182 H 0.16364 0.44005 0.10877 0.0
H183 H 0.27752 0.45162 0.11348 0.0
H184 H 0.2344 0.4777 0.04785 0.0
H185 H 0.27502 0.42894 0.04162 0.0
C186 C 0.29752 0.44396 0.05743 0.0
O187 O 0.29258 0.47312 0.06913 0.0
H188 H 0.29348 0.42124 0.07022 0.0
C189 C 0.19063 0.44759 0.1007 0.0
C190 C 0.19535 0.45956 0.07679 0.0
C191 C 0.22012 0.44502 0.11425 0.0
C192 C 0.2544 0.45346 0.10334 0.0
C193 C 0.25919 0.46457 0.0793 0.0
C194 C 0.22981 0.4678 0.0661 0.0
H195 H 0.39183 0.92634 0.24629 0.0
H196 H 0.49211 0.91138 0.24615 0.0
H197 H 0.43194 0.89349 0.31097 0.0
H198 H 0.52079 0.93674 0.31805 0.0
C199 C 0.52556 0.92171 0.3019 0.0
O200 O 0.48986 0.89225 0.29093 0.0
H201 H 0.54111 0.94445 0.28892 0.0
C202 C 0.41225 0.91991 0.25592 0.0
C203 C 0.40763 0.90987 0.28041 0.0
C204 C 0.44269 0.9206 0.24342 0.0
C205 C 0.4682 0.91051 0.25537 0.0
C206 C 0.46429 0.9009 0.27961 0.0
C207 C 0.43426 0.90068 0.29209 0.0
H208 H 0.13258 0.49801 0.26052 0.0
H209 H 0.13486 0.60962 0.26139 0.0
H210 H 0.16567 0.57436 0.32761 0.0
H211 H 0.11789 0.61668 0.33241 0.0
C212 C 0.12953 0.63558 0.31699 0.0
O213 O 0.15862 0.63055 0.30762 0.0
H214 H 0.10493 0.6259 0.30261 0.0
C215 C 0.13691 0.52482 0.27049 0.0
C216 C 0.1491 0.5322 0.2957 0.0
C217 C 0.13134 0.55238 0.25792 0.0
C218 C 0.13906 0.58804 0.27071 0.0
C219 C 0.1512 0.59585 0.29574 0.0
C220 C 0.15622 0.56801 0.30821 0.0
H221 H 0.54597 0.65085 0.2586 0.0
H222 H 0.43652 0.5407 0.24587 0.0
H223 H 0.46967 0.60674 0.31644 0.0
H224 H 0.43478 0.51672 0.31347 0.0
C225 C 0.41084 0.50903 0.29899 0.0
O226 O 0.41502 0.54323 0.28998 0.0
H227 H 0.41345 0.49036 0.28402 0.0
C228 C 0.51935 0.62805 0.26526 0.0
C229 C 0.51167 0.63255 0.28958 0.0
C230 C 0.49287 0.59475 0.24937 0.0
C231 C 0.45736 0.56658 0.25779 0.0
C232 C 0.44905 0.57091 0.28194 0.0
C233 C 0.47616 0.60384 0.29776 0.0
C234 C 0.55309 0.04551 0.08867 0.0
Eu235 Eu 0.53376 0.03879 0.04184 0.0
C236 C 0.53309 0.02531 0.1101 0.0
C237 C 0.49994 0.02611 0.1174 0.0
C238 C 0.48168 1.00706 0.1378 0.0
C239 C 0.49586 0.98645 0.15116 0.0
C240 C 0.529 0.98572 0.14386 0.0
C241 C 0.54739 1.00495 0.12357 0.0
C242 C 0.51647 0.08809 0.01828 0.0
C243 C 0.44077 0.97117 0.0325 0.0
C244 C 0.47213 1.00007 0.944 0.0
Eu245 Eu 0.49603 1.0084 0.9902 0.0
C246 C 0.48721 0.01801 0.9212 0.0
C247 C 0.47549 0.99343 0.89927 0.0
C248 C 0.48932 1.00939 0.87728 0.0
C249 C 0.51538 0.05028 0.87684 0.0
C250 C 0.52698 0.07498 0.89886 0.0
C251 C 0.51315 0.05895 0.92092 0.0
C252 C 0.51459 0.95927 0.01299 0.0
C253 C 0.59043 0.07279 0.9999 0.0
O254 O 0.56044 0.02461 0.07261 0.0
O255 O 0.54116 0.06752 0.07836 0.0
O256 O 0.54753 0.1001 0.03311 0.0
O257 O 0.49481 0.05084 0.01761 0.0
O258 O 0.47342 0.98812 0.04707 0.0
O259 O 0.4407 0.97868 0.00931 0.0
O260 O 0.46665 0.02162 0.96069 0.0
O261 O 0.48743 0.98023 0.95328 0.0
O262 O 0.48352 0.94717 0.99816 0.0
O263 O 0.53553 0.99665 0.01412 0.0
O264 O 0.55806 0.05753 0.9849 0.0
O265 O 0.58928 0.06547 0.02319 0.0
H266 H 0.488 0.04139 0.10737 0.0
H267 H 0.4562 1.00809 0.143 0.0
H268 H 0.54117 0.97087 0.15413 0.0
H269 H 0.57299 1.00407 0.11847 0.0
H270 H 0.45536 0.96181 0.89913 0.0
H271 H 0.47901 0.98979 0.86053 0.0
H272 H 0.54691 0.10663 0.89901 0.0
H273 H 0.5227 0.07847 0.93769 0.0
C274 C 1.01003 0.52928 0.08795 0.0
Eu275 Eu 1.00886 0.51102 0.04139 0.0
C276 C 0.02971 0.52982 0.11157 0.0
C277 C 1.00823 0.51938 0.13211 0.0
C278 C 0.02593 0.51982 0.15486 0.0
C279 C 0.06549 0.53053 0.15748 0.0
C280 C 0.08705 0.54093 0.13683 0.0
C281 C 0.06926 0.54047 0.114 0.0
C282 C 0.95504 0.44059 0.01703 0.0
C283 C 0.07282 0.48359 0.03214 0.0
C284 C 0.02152 0.47524 0.94357 0.0
Eu285 Eu 0.02469 0.49751 0.98971 0.0
C286 C 1.00254 0.47232 0.91909 0.0
C287 C 0.02607 0.49243 0.90057 0.0
C288 C 1.00973 0.48752 0.87662 0.0
C289 C 0.96951 0.46196 0.87059 0.0
C290 C 0.94563 0.44301 0.88932 0.0
C291 C 0.96201 0.44796 0.91337 0.0
C292 C 0.07824 0.56913 0.01276 0.0
C293 C 0.96466 0.53073 1.00022 0.0
O294 O 0.03105 0.55517 0.07289 0.0
O295 O 0.98591 0.49424 0.07681 0.0
O296 O 0.94645 0.46181 0.03156 0.0
O297 O 0.99159 0.45665 0.01672 0.0
O298 O 0.0604 0.5018 0.04698 0.0
O299 O 0.059 0.47326 0.0089 0.0
O300 O 1.00037 0.45118 0.9594 0.0
O301 O 0.04639 0.51087 0.95366 0.0
O302 O 0.08656 0.54779 0.99809 0.0
O303 O 0.04172 0.55239 0.01394 0.0
O304 O 0.97564 0.51215 0.98433 0.0
O305 O 0.97861 0.53924 0.02337 0.0
H306 H 0.97773 0.51122 0.13061 0.0
H307 H 1.00884 0.51267 0.17055 0.0
H308 H 0.11763 0.54945 0.13837 0.0
H309 H 0.0864 0.54868 0.09835 0.0
H310 H 0.05736 0.51141 0.90452 0.0
H311 H 0.0287 0.5034 0.86272 0.0
H312 H 0.91448 0.42351 0.88525 0.0
H313 H 0.94309 0.43211 0.9273 0.0
C314 C 0.48916 0.50042 0.93512 0.0
Eu315 Eu 0.51063 0.52319 0.98162 0.0
C316 C 0.50791 0.50025 0.91258 0.0
C317 C 0.49524 0.50912 0.89073 0.0
C318 C 0.51256 0.50931 0.86912 0.0
C319 C 0.54292 0.5006 0.86892 0.0
C320 C 0.556 0.49229 0.89095 0.0
C321 C 0.53854 0.49197 0.91257 0.0
C322 C 0.52861 0.59505 1.00321 0.0
C323 C 0.60462 0.55673 0.99126 0.0
C324 C 0.57129 0.56799 0.07956 0.0
Eu325 Eu 0.54863 0.54225 0.03347 0.0
C326 C 0.55491 0.56805 0.10321 0.0
C327 C 0.56052 0.54799 0.12208 0.0
C328 C 0.54845 0.55036 0.14527 0.0
C329 C 0.53101 0.57338 0.15028 0.0
C330 C 0.52386 0.59212 0.13112 0.0
C331 C 0.53585 0.58966 0.10783 0.0
C332 C 0.53044 0.46983 0.01274 0.0
C333 C 0.4535 0.50452 0.02346 0.0
O334 O 0.48807 0.47666 0.95144 0.0
O335 O 0.49755 0.53528 0.945 0.0
O336 O 0.49679 0.57226 0.98922 0.0
O337 O 0.54985 0.57954 1.0045 0.0
O338 O 0.57204 0.53571 0.97674 0.0
O339 O 0.60394 0.56829 0.01421 0.0
O340 O 0.56812 0.58936 0.06299 0.0
O341 O 0.56596 0.534 0.07011 0.0
O342 O 0.56163 0.49259 0.02726 0.0
O343 O 0.50928 0.48545 0.01076 0.0
O344 O 0.48556 0.52553 0.03855 0.0
O345 O 0.45529 0.49505 1.0003 0.0
H346 H 0.47174 0.51571 0.89036 0.0
H347 H 0.50169 0.51558 0.85243 0.0
H348 H 0.5798 0.48617 0.89148 0.0
H349 H 0.54894 0.48519 0.92923 0.0
H350 H 0.57499 0.53102 0.11902 0.0
H351 H 0.55328 0.53455 0.15943 0.0
H352 H 0.51007 0.60967 0.13432 0.0
H353 H 0.53091 0.60537 0.09366 0.0
C354 C 0.21513 0.38873 0.42188 0.0
Eu355 Eu 0.19653 0.37576 0.37473 0.0
C356 C 0.19705 0.37013 0.44391 0.0
C357 C 0.20613 0.39387 0.46599 0.0
C358 C 0.18991 0.37682 0.48728 0.0
C359 C 0.16428 0.33564 0.48687 0.0
C360 C 0.15468 0.31196 0.46457 0.0
C361 C 0.1708 0.32911 0.44322 0.0
C362 C 0.18006 0.42252 0.34767 0.0
C363 C 0.1052 0.30507 0.36355 0.0
C364 C 0.14493 0.32848 0.27606 0.0
Eu365 Eu 0.1648 0.34147 0.32312 0.0
C366 C 0.15902 0.34804 0.25358 0.0
C367 C 0.1467 0.32497 0.23105 0.0
C368 C 0.15937 0.34273 0.20935 0.0
C369 C 0.18451 0.38396 0.2098 0.0
C370 C 0.19723 0.40704 0.23248 0.0
C371 C 0.18459 0.38919 0.25425 0.0
C372 C 0.18382 0.29592 0.3499 0.0
C373 C 0.25708 0.40971 0.33481 0.0
O374 O 0.22547 0.36869 0.40725 0.0
O375 O 0.19857 0.40542 0.41004 0.0
O376 O 0.20995 0.43576 0.36368 0.0
O377 O 0.15902 0.38515 0.34726 0.0
O378 O 0.13579 0.32507 0.3797 0.0
O379 O 0.10763 0.30877 0.33987 0.0
O380 O 0.13184 0.34499 0.29136 0.0
O381 O 0.16636 0.31617 0.28709 0.0
O382 O 0.15378 0.28179 0.33393 0.0
O383 O 0.20341 0.33328 0.35017 0.0
O384 O 0.22596 0.39287 0.31872 0.0
O385 O 0.2539 0.40321 0.35816 0.0
H386 H 0.22607 0.42562 0.46681 0.0
H387 H 0.19768 0.39581 0.50416 0.0
H388 H 0.13563 0.28008 0.46376 0.0
H389 H 0.16325 0.31027 0.42629 0.0
H390 H 0.12706 0.29316 0.23023 0.0
H391 H 0.14898 0.32429 0.19213 0.0
H392 H 0.21709 0.43879 0.23338 0.0
H393 H 0.19466 0.40743 0.27155 0.0
C394 C 0.68115 0.86645 0.42089 0.0
Eu395 Eu 0.6769 0.84701 0.37419 0.0
C396 C 0.70244 0.86612 0.44367 0.0
C397 C 0.70421 0.83228 0.44941 0.0
C398 C 0.72342 0.83245 0.47159 0.0
C399 C 0.74164 0.86661 0.48819 0.0
C400 C 0.74021 0.90049 0.48224 0.0
C401 C 0.72077 0.90021 0.46022 0.0
C402 C 0.62499 0.77485 0.35109 0.0
C403 C 0.7418 0.82065 0.36465 0.0
C404 C 0.68853 0.8094 0.27652 0.0
Eu405 Eu 0.69239 0.83292 0.3225 0.0
C406 C 0.66943 0.80648 0.25218 0.0
C407 C 0.692 0.81657 0.2321 0.0
C408 C 0.67463 0.81193 0.20848 0.0
C409 C 0.63424 0.79687 0.20448 0.0
C410 C 0.61167 0.78753 0.22468 0.0
C411 C 0.62914 0.79231 0.24839 0.0
C412 C 0.7447 0.90563 0.34486 0.0
C413 C 0.63112 0.86473 0.33268 0.0
O414 O 0.70189 0.8918 0.40552 0.0
O415 O 0.65478 0.83203 0.40991 0.0
O416 O 0.6152 0.79554 0.36521 0.0
O417 O 0.66156 0.79256 0.35036 0.0
O418 O 0.72927 0.83882 0.37945 0.0
O419 O 0.72758 0.80969 0.34153 0.0
O420 O 0.66685 0.78618 0.29251 0.0
O421 O 0.71411 0.84499 0.28632 0.0
O422 O 0.75371 0.88489 0.33017 0.0
O423 O 0.70821 0.88787 0.34624 0.0
O424 O 0.64211 0.84562 0.31721 0.0
O425 O 0.64514 0.87377 0.35589 0.0
H426 H 0.69051 0.80561 0.43688 0.0
H427 H 0.72412 0.80598 0.47578 0.0
H428 H 0.75341 0.92698 0.49491 0.0
H429 H 0.71969 0.92656 0.45622 0.0
H430 H 0.72309 0.82745 0.23464 0.0
H431 H 0.69265 0.81925 0.19324 0.0
H432 H 0.58058 0.77651 0.22213 0.0
H433 H 0.61114 0.78455 0.26365 0.0
C434 C 0.15764 0.83843 0.26729 0.0
Eu435 Eu 0.17764 0.85999 0.31386 0.0
C436 C 0.17568 0.83667 0.24479 0.0
C437 C 0.21197 0.86822 0.23959 0.0
C438 C 0.22689 0.8671 0.21717 0.0
C439 C 0.20598 0.83426 0.19972 0.0
C440 C 0.17029 0.80227 0.20538 0.0
C441 C 0.15529 0.80353 0.22767 0.0
C442 C 0.1949 0.9303 0.3374 0.0
C443 C 0.27086 0.89034 0.32657 0.0
C444 C 0.23824 0.91513 0.41353 0.0
Eu445 Eu 0.21439 0.87847 0.36973 0.0
C446 C 0.22364 0.91216 0.43813 0.0
C447 C 0.24238 0.90514 0.45804 0.0
C448 C 0.2308 0.90551 0.48172 0.0
C449 C 0.20064 0.91346 0.48594 0.0
C450 C 0.18127 0.91952 0.46597 0.0
C451 C 0.19258 0.91886 0.44233 0.0
C452 C 0.18643 0.80066 0.35388 0.0
C453 C 0.11931 0.8373 0.35608 0.0
O454 O 0.15445 0.81362 0.28343 0.0
O455 O 0.1678 0.87383 0.27731 0.0
O456 O 0.16449 0.9095 0.32185 0.0
O457 O 0.21505 0.91358 0.33919 0.0
O458 O 0.24025 0.87568 0.31017 0.0
O459 O 0.26922 0.89673 0.35037 0.0
O460 O 0.22115 0.9248 0.39639 0.0
O461 O 0.24657 0.88818 0.40548 0.0
O462 O 0.20315 0.81613 0.37578 0.0
O463 O 0.18561 0.82742 0.34248 0.0
O464 O 0.14999 0.85837 0.37235 0.0
O465 O 0.12271 0.82935 0.33288 0.0
H466 H 0.22837 0.89411 0.25259 0.0
H467 H 0.25414 0.89245 0.21322 0.0
H468 H 0.15372 0.77639 0.19239 0.0
H469 H 0.12734 0.77885 0.23136 0.0
H470 H 0.26652 0.90017 0.45537 0.0
H471 H 0.2462 0.9008 0.49685 0.0
H472 H 0.15755 0.92516 0.46871 0.0
H473 H 0.17736 0.92432 0.42745 0.0
C474 C 0.88429 0.71159 0.75348 0.0
Eu475 Eu 0.86295 0.70179 0.70675 0.0
C476 C 0.86647 0.6946 0.7759 0.0
C477 C 0.88295 0.71679 0.79854 0.0
C478 C 0.86657 0.70125 0.82012 0.0
C479 C 0.83328 0.66327 0.81938 0.0
C480 C 0.8167 0.64109 0.79662 0.0
C481 C 0.83309 0.65671 0.775 0.0
C482 C 0.84852 0.75169 0.68165 0.0
C483 C 0.7699 0.6352 0.69586 0.0
C484 C 0.80739 0.66374 0.6079 0.0
Eu485 Eu 0.82832 0.6711 0.65451 0.0
C486 C 0.82279 0.68493 0.58597 0.0
C487 C 0.85967 0.69395 0.57879 0.0
C488 C 0.87279 0.71247 0.55731 0.0
C489 C 0.8495 0.72264 0.54276 0.0
C490 C 0.81281 0.71391 0.55011 0.0
C491 C 0.79963 0.69527 0.57151 0.0
C492 C 0.84519 0.62198 0.67885 0.0
C493 C 0.92204 0.73545 0.66591 0.0
O494 O 0.88922 0.68828 0.73786 0.0
O495 O 0.87131 0.73245 0.74283 0.0
O496 O 0.87842 0.76324 0.69742 0.0
O497 O 0.82628 0.71449 0.68082 0.0
O498 O 0.80098 0.65368 0.71181 0.0
O499 O 0.77183 0.63958 0.6722 0.0
O500 O 0.79709 0.6813 0.62446 0.0
O501 O 0.82519 0.64636 0.61748 0.0
O502 O 0.81522 0.60982 0.66301 0.0
O503 O 0.8661 0.65935 0.67999 0.0
O504 O 0.8905 0.72072 0.65026 0.0
O505 O 0.91935 0.72739 0.68905 0.0
H506 H 0.90873 0.74606 0.79954 0.0
H507 H 0.88045 0.71862 0.83744 0.0
H508 H 0.79109 0.61172 0.79557 0.0
H509 H 0.81986 0.63916 0.75766 0.0
H510 H 0.87826 0.68643 0.58961 0.0
H511 H 0.90117 0.71883 0.55206 0.0
H512 H 0.79382 0.72056 0.53898 0.0
H513 H 0.77101 0.68837 0.5766 0.0
C514 C 0.34119 0.19817 0.75756 0.0
Eu515 Eu 0.33919 0.17882 0.71104 0.0
C516 C 0.35839 0.19504 0.78134 0.0
C517 C 0.33378 0.17009 0.79803 0.0
C518 C 0.34912 0.16803 0.82105 0.0
C519 C 0.38942 0.19089 0.82787 0.0
C520 C 0.41412 0.21565 0.81113 0.0
C521 C 0.39878 0.21774 0.7881 0.0
C522 C 0.28986 0.10546 0.68842 0.0
C523 C 0.40639 0.15535 0.70253 0.0
C524 C 0.3512 0.14037 0.61372 0.0
Eu525 Eu 0.35586 0.16486 0.65963 0.0
C526 C 0.33376 0.13948 0.58905 0.0
C527 C 0.35851 0.15874 0.57083 0.0
C528 C 0.34326 0.15502 0.5467 0.0
C529 C 0.3029 0.13145 0.54015 0.0
C530 C 0.27791 0.11358 0.5586 0.0
C531 C 0.29317 0.11736 0.58281 0.0
C532 C 0.40567 0.23881 0.68127 0.0
C533 C 0.29314 0.19507 0.66904 0.0
O534 O 0.36492 0.22253 0.74276 0.0
O535 O 0.31355 0.165 0.74597 0.0
O536 O 0.27868 0.12536 0.70209 0.0
O537 O 0.32643 0.12462 0.68782 0.0
O538 O 0.39244 0.1724 0.71705 0.0
O539 O 0.39252 0.14372 0.67935 0.0
O540 O 0.32785 0.11838 0.62953 0.0
O541 O 0.37912 0.17475 0.62381 0.0
O542 O 0.41597 0.21896 0.66679 0.0
O543 O 0.36919 0.2196 0.68273 0.0
O544 O 0.30491 0.17646 0.65378 0.0
O545 O 0.30697 0.20457 0.69224 0.0
H546 H 0.30252 0.15254 0.7934 0.0
H547 H 0.32941 0.14886 0.83365 0.0
H548 H 0.44517 0.23437 0.81614 0.0
H549 H 0.41852 0.23765 0.7758 0.0
H550 H 0.38987 0.17601 0.57514 0.0
H551 H 0.36319 0.17023 0.53308 0.0
H552 H 0.24665 0.09567 0.55418 0.0
H553 H 0.27325 0.10221 0.59645 0.0
C554 C 0.81834 0.1642 0.60041 0.0
Eu555 Eu 0.83921 0.18642 0.64695 0.0
C556 C 0.83832 0.1654 0.57826 0.0
C557 C 0.87619 0.19671 0.57564 0.0
C558 C 0.8945 0.19733 0.55436 0.0
C559 C 0.87529 0.16658 0.53543 0.0
C560 C 0.83769 0.13501 0.53835 0.0
C561 C 0.81937 0.13449 0.55954 0.0
C562 C 0.85776 0.25782 0.6694 0.0
C563 C 0.933 0.2186 0.65642 0.0
C564 C 0.90085 0.22751 0.74514 0.0
Eu565 Eu 0.87709 0.20335 0.69893 0.0
C566 C 0.88593 0.23098 0.76871 0.0
C567 C 0.89961 0.22144 0.78988 0.0
C568 C 0.88743 0.22594 0.81269 0.0
C569 C 0.86144 0.2403 0.81483 0.0
C570 C 0.84719 0.24926 0.79352 0.0
C571 C 0.85933 0.24465 0.77064 0.0
C572 C 0.85756 0.13121 0.67689 0.0
C573 C 0.78237 0.16772 0.68884 0.0
O574 O 0.81809 0.14043 0.61643 0.0
O575 O 0.82505 0.1983 0.61066 0.0
O576 O 0.82627 0.23595 0.65492 0.0
O577 O 0.87867 0.24187 0.67056 0.0
O578 O 0.90053 0.19927 0.64167 0.0
O579 O 0.93243 0.2285 0.67973 0.0
O580 O 0.90163 0.25075 0.72857 0.0
O581 O 0.89 0.19166 0.73577 0.0
O582 O 0.88904 0.153 0.69141 0.0
O583 O 0.83716 0.1477 0.67555 0.0
O584 O 0.81448 0.18854 0.70396 0.0
O585 O 0.78403 0.15824 0.66567 0.0
H586 H 0.89159 0.22069 0.59001 0.0
H587 H 0.92372 0.22169 0.55276 0.0
H588 H 0.82216 0.111 0.524 0.0
H589 H 0.79027 0.10999 0.56127 0.0
H590 H 0.92017 0.21093 0.7888 0.0
H591 H 0.89899 0.21893 0.82877 0.0
H592 H 0.82655 0.25966 0.79455 0.0
H593 H 0.84812 0.25196 0.75453 0.0
C594 C 0.3333 0.89499 0.03696 0.0
C595 C 0.33354 0.88117 0.06012 0.0
C596 C 0.36789 0.92442 0.02826 0.0
C597 C 0.4041 0.94104 0.04234 0.0
H598 H 0.3061 0.88316 0.02555 0.0
H599 H 0.36617 0.9341 0.01033 0.0
S600 S 0.42049 0.91241 0.10363 0.0
N601 N 0.37301 0.88464 0.09645 0.0
N602 N 0.43781 0.93971 0.08046 0.0
C603 C 0.4046 0.92698 0.06551 0.0
C604 C 0.36943 0.89714 0.07429 0.0
C605 C 0.15067 0.48711 0.07702 0.0
C606 C 0.16502 0.46576 0.06411 0.0
C607 C 0.12103 0.49238 0.06642 0.0
C608 C 0.10425 0.47668 0.04231 0.0
H609 H 0.16253 0.50002 0.09559 0.0
H610 H 0.11137 0.50913 0.07741 0.0
S611 S 0.13151 0.4182 1.00057 0.0
N612 N 0.16036 0.42855 0.02593 0.0
N613 N 0.10466 0.43886 1.00571 0.0
C614 C 0.11861 0.45555 0.02899 0.0
C615 C 0.14901 0.45009 0.03993 0.0
C616 C 0.51266 0.67517 0.03323 0.0
C617 C 0.54857 0.70066 0.04684 0.0
C618 C 0.50671 0.64139 0.01894 0.0
C619 C 0.53654 0.63197 0.01759 0.0
H620 H 0.48868 0.68091 0.03406 0.0
H621 H 0.47828 0.6222 0.00918 0.0
S622 S 0.6372 0.69134 0.04787 0.0
N623 N 0.61512 0.71552 0.05697 0.0
N624 N 0.60424 0.65256 0.02972 0.0
C625 C 0.57299 0.65792 0.03049 0.0
C626 C 0.57891 0.69208 0.04524 0.0
C627 C 0.91005 0.34752 0.9725 0.0
C628 C 0.87025 0.33623 0.96995 0.0
C629 C 0.93728 0.38108 0.98791 0.0
C630 C 0.9258 0.40481 1.00118 0.0
H631 H 0.92015 0.33 0.96271 0.0
H632 H 0.96752 0.38841 0.98948 0.0
S633 S 0.82548 0.38949 0.99965 0.0
N634 N 0.82106 0.3524 0.98121 0.0
N635 N 0.87201 0.41533 0.01007 0.0
C636 C 0.88615 0.39404 0.9986 0.0
C637 C 0.85846 0.35983 0.98301 0.0
C638 C 0.67552 0.55987 0.94614 0.0
C639 C 0.71184 0.57871 0.96008 0.0
C640 C 0.64155 0.55368 0.95639 0.0
C641 C 0.64212 0.56588 0.98113 0.0
H642 H 0.6731 0.54912 0.92716 0.0
H643 H 0.61454 0.53881 0.94466 0.0
S644 S 0.73042 0.61874 0.02527 0.0
N645 N 0.74693 0.6113 0.99966 0.0
N646 N 0.68284 0.59912 0.01915 0.0
C647 C 0.67843 0.58538 0.99526 0.0
C648 C 0.71324 0.59179 0.98473 0.0
C649 C 0.46405 0.12687 0.97796 0.0
C650 C 0.49323 0.16655 0.97614 0.0
C651 C 0.47175 0.10138 0.99137 0.0
C652 C 0.50892 0.11466 1.00339 0.0
H653 H 0.4348 0.11575 0.96947 0.0
H654 H 0.44825 0.07134 0.9927 0.0
S655 S 0.59655 0.21434 1.00169 0.0
N656 N 0.56152 0.2167 0.98569 0.0
N657 N 0.57598 0.16917 0.01088 0.0
C658 C 0.53865 0.15382 1.00095 0.0
C659 C 0.53081 0.17965 0.98734 0.0
C660 C 0.69932 0.14629 0.99903 0.0
C661 C 0.70406 0.15137 0.974 0.0
C662 C 0.66259 0.12095 1.00714 0.0
C663 C 0.62894 0.09967 0.99058 0.0
H664 H 0.72432 0.1617 0.01247 0.0
H665 H 0.66071 0.11806 0.02662 0.0
S666 S 0.62602 0.10342 0.92294 0.0
N667 N 0.67234 0.1337 0.9327 0.0
N668 N 0.60322 0.08616 0.9477 0.0
C669 C 0.63333 0.10502 0.96544 0.0
C670 C 0.67084 0.13081 0.95724 0.0
C671 C 0.91078 0.56929 0.96144 0.0
C672 C 0.88739 0.57413 0.97819 0.0
C673 C 0.93483 0.55388 0.96832 0.0
C674 C 0.93634 0.54297 0.9922 0.0
H675 H 0.9111 0.57834 0.94308 0.0
H676 H 0.95329 0.55178 0.95513 0.0
S677 S 0.87621 0.54426 0.0416 0.0
N678 N 0.86394 0.56272 0.01864 0.0
N679 N 0.90915 0.5341 0.03173 0.0
C680 C 0.91148 0.54574 0.00865 0.0
C681 C 0.8869 0.56111 1.00158 0.0
C682 C 0.46593 0.36234 0.98673 0.0
C683 C 0.48858 0.34499 0.99295 0.0
C684 C 0.48 0.40296 0.99267 0.0
C685 C 0.5172 0.42769 1.00507 0.0
H686 H 0.43688 0.34428 0.97753 0.0
H687 H 0.4613 0.41487 0.98788 0.0
S688 S 0.58833 0.39682 0.0247 0.0
N689 N 0.55009 0.35562 0.01176 0.0
N690 N 0.57692 0.43193 0.02261 0.0
C691 C 0.54043 0.4108 0.0109 0.0
C692 C 0.52598 0.36947 1.00498 0.0
C693 C 0.11837 0.67673 0.037 0.0
C694 C 0.15759 0.69515 0.03146 0.0
C695 C 0.09308 0.63569 0.03159 0.0
C696 C 0.1061 0.61164 0.02042 0.0
H697 H 0.10696 0.69424 0.04521 0.0
H698 H 0.06294 0.62292 0.03572 0.0
S699 S 0.20671 0.64534 1.00336 0.0
N700 N 0.20849 0.6862 0.01489 0.0
N701 N 0.16144 0.60916 1.00506 0.0
C702 C 0.14556 0.6296 0.01543 0.0
C703 C 0.17114 0.67133 0.0208 0.0
C704 C 0.34331 0.45743 0.02414 0.0
C705 C 0.33815 0.46169 0.04904 0.0
C706 C 0.38065 0.47165 0.01613 0.0
C707 C 0.41447 0.49077 0.03268 0.0
H708 H 0.31823 0.44257 0.01072 0.0
H709 H 0.38284 0.46732 0.99674 0.0
S710 S 0.41643 0.50973 0.10003 0.0
N711 N 0.36959 0.48647 0.09026 0.0
N712 N 0.43993 0.51362 0.07539 0.0
C713 C 0.40964 0.49566 0.05769 0.0
C714 C 0.3715 0.48099 0.06581 0.0
C715 C 0.57645 0.92304 0.04538 0.0
C716 C 0.55355 0.88144 0.04084 0.0
C717 C 0.56337 0.94804 0.03676 0.0
C718 C 0.52697 0.93239 0.02316 0.0
H719 H 0.60502 0.93643 0.05536 0.0
H720 H 0.58226 0.97986 0.04041 0.0
S721 S 0.45591 0.82547 1.00626 0.0
N722 N 0.49293 0.82581 0.02165 0.0
N723 N 0.46789 0.87248 1.00593 0.0
C724 C 0.50358 0.89081 0.01876 0.0
C725 C 0.51704 0.86544 0.02737 0.0
C726 C 0.01998 0.20556 0.37576 0.0
C727 C 1.00045 0.21575 0.39301 0.0
C728 C 0.05291 0.23475 0.36552 0.0
C729 C 0.06812 0.27525 0.37245 0.0
H730 H 1.01045 0.17473 0.37052 0.0
H731 H 0.06742 0.2255 0.35275 0.0
S732 S 0.02735 0.31873 0.41517 0.0
N733 N 0.99773 0.27031 0.41479 0.0
N734 N 0.06114 0.32462 0.39672 0.0
C735 C 0.04906 0.28614 0.38935 0.0
C736 C 1.0149 0.25657 0.39933 0.0
C737 C 0.82118 0.82587 0.40888 0.0
C738 C 0.83398 0.80272 0.39636 0.0
C739 C 0.79162 0.83136 0.39834 0.0
C740 C 0.77344 0.81404 0.3747 0.0
H741 H 0.83408 0.83985 0.42713 0.0
H742 H 0.78304 0.84943 0.40902 0.0
S743 S 0.79639 0.75061 0.33411 0.0
N744 N 0.82642 0.76223 0.35906 0.0
N745 N 0.77086 0.77283 0.33895 0.0
C746 C 0.78634 0.79122 0.36174 0.0
C747 C 0.81663 0.78557 0.3726 0.0
C748 C 0.18021 1.01135 0.36751 0.0
C749 C 0.21613 0.03631 0.38127 0.0
C750 C 0.1738 0.97737 0.35319 0.0
C751 C 0.20313 0.9672 0.35197 0.0
H752 H 0.15656 0.0176 0.3683 0.0
H753 H 0.14538 0.95858 0.34332 0.0
S754 S 0.3037 0.02507 0.38256 0.0
N755 N 0.28223 0.04993 0.39156 0.0
N756 N 0.27047 0.98664 0.36429 0.0
C757 C 0.23965 0.99272 0.36494 0.0
C758 C 0.24604 0.02706 0.37971 0.0
C759 C 0.52929 0.69122 0.31943 0.0
C760 C 0.54081 0.6675 0.30622 0.0
C761 C 0.55669 0.72558 0.33413 0.0
C762 C 0.59664 0.73744 0.33627 0.0
H763 H 0.49899 0.68372 0.31792 0.0
H764 H 0.54652 0.74333 0.34356 0.0
S765 S 0.64129 0.68343 0.30735 0.0
N766 N 0.59454 0.65686 0.2975 0.0
N767 N 0.64589 0.72113 0.32527 0.0
C768 C 0.60837 0.71332 0.32376 0.0
C769 C 0.58052 0.67847 0.3087 0.0
C770 C 0.35376 0.87582 0.30815 0.0
C771 C 0.37447 0.9075 0.29361 0.0
C772 C 0.32137 0.87161 0.31985 0.0
C773 C 0.30827 0.89873 0.31736 0.0
H774 H 0.36181 0.85327 0.30991 0.0
H775 H 0.30559 0.84612 0.33017 0.0
S776 S 0.35299 0.9883 0.28322 0.0
N777 N 0.38058 0.96819 0.27914 0.0
N778 N 0.31862 0.9589 0.30026 0.0
C779 C 0.32882 0.93086 0.30341 0.0
C780 C 0.36216 0.93559 0.29176 0.0
C781 C 0.19083 0.51653 0.32342 0.0
C782 C 0.15574 0.50323 0.30876 0.0
C783 C 0.19825 0.49002 0.33567 0.0
C784 C 0.17083 0.44906 0.33394 0.0
H785 H 0.21303 0.5477 0.3252 0.0
H786 H 0.22588 0.50186 0.3466 0.0
S787 S 0.07357 0.39915 0.29876 0.0
N788 N 0.09273 0.44638 0.29367 0.0
N789 N 0.10663 0.39661 0.31689 0.0
C790 C 0.13547 0.43529 0.31947 0.0
C791 C 0.12797 0.46233 0.30684 0.0
C792 C 0.33774 0.46277 0.29246 0.0
C793 C 0.37127 0.48548 0.30878 0.0
C794 C 0.30098 0.43881 0.30102 0.0
C795 C 0.29625 0.43653 0.3263 0.0
H796 H 0.34011 0.46307 0.27287 0.0
H797 H 0.27622 0.42148 0.28763 0.0
S798 S 0.37479 0.49301 0.37663 0.0
N799 N 0.39723 0.50625 0.35134 0.0
N800 N 0.32852 0.46124 0.36756 0.0
C801 C 0.32955 0.46011 0.34282 0.0
C802 C 0.3669 0.48464 0.33404 0.0
C803 C 0.56321 0.9071 0.33414 0.0
C804 C 0.55075 0.90443 0.30935 0.0
C805 C 0.58871 0.89374 0.34136 0.0
C806 C 0.60285 0.87703 0.32411 0.0
H807 H 0.55364 0.9202 0.34809 0.0
H808 H 0.59759 0.89691 0.36072 0.0
S809 S 0.5776 0.86219 0.25677 0.0
N810 N 0.55339 0.88315 0.26748 0.0
N811 N 0.60121 0.85766 0.28092 0.0
C812 C 0.58986 0.87342 0.29921 0.0
C813 C 0.5639 0.88722 0.29188 0.0
C814 C 0.13475 0.70276 0.31355 0.0
C815 C 0.14553 0.67862 0.32611 0.0
C816 C 0.14825 0.74233 0.32248 0.0
C817 C 0.17316 0.75924 0.34417 0.0
H818 H 0.11528 0.69081 0.2969 0.0
H819 H 0.13841 0.75944 0.31262 0.0
S820 S 0.21131 0.70894 0.38316 0.0
N821 N 0.18343 0.67475 0.3608 0.0
N822 N 0.20896 0.7489 0.37757 0.0
C823 C 0.18461 0.73552 0.35663 0.0
C824 C 0.17088 0.69535 0.34755 0.0
C825 C 0.78362 1.01088 0.37366 0.0
C826 C 0.82279 0.03076 0.36796 0.0
C827 C 0.75871 0.97021 0.36658 0.0
C828 C 0.77203 0.94793 0.35352 0.0
H829 H 0.77198 0.02697 0.38339 0.0
H830 H 0.72866 0.95631 0.37107 0.0
S831 S 0.87233 0.98601 0.33454 0.0
N832 N 0.87371 0.02516 0.34866 0.0
N833 N 0.82741 0.94879 0.33573 0.0
C834 C 0.81133 0.96739 0.34808 0.0
C835 C 0.83652 1.00877 0.35514 0.0
C836 C 0.0362 0.80412 0.39754 0.0
C837 C 1.0032 0.79168 0.38095 0.0
C838 C 0.07362 0.8191 0.38938 0.0
C839 C 0.07946 0.82208 0.36428 0.0
H840 H 0.03296 0.80191 0.41697 0.0
H841 H 0.09802 0.82787 0.40288 0.0
S842 S 1.00265 0.79641 0.31362 0.0
N843 N 0.97888 0.78553 0.33851 0.0
N844 N 0.04887 0.81329 0.32303 0.0
C845 C 0.04665 0.81054 0.34756 0.0
C846 C 1.00865 0.79557 0.35593 0.0
C847 C 0.18803 0.20446 0.36594 0.0
C848 C 0.22509 0.22037 0.37875 0.0
C849 C 0.1746 0.22919 0.35737 0.0
C850 C 0.19793 0.27087 0.36088 0.0
H851 H 0.16949 0.17262 0.36215 0.0
H852 H 0.14596 0.21546 0.34745 0.0
S853 S 0.29767 0.32756 0.39275 0.0
N854 N 0.28509 0.28056 0.39431 0.0
N855 N 0.26003 0.32693 0.378 0.0
C856 C 0.23497 0.2872 0.37375 0.0
C857 C 0.24857 0.262 0.3826 0.0
C858 C 0.68321 0.53683 0.70816 0.0
C859 C 0.66433 0.54767 0.72555 0.0
C860 C 0.71642 0.56548 0.69788 0.0
C861 C 0.73259 0.6061 0.70489 0.0
H862 H 0.67292 0.50586 0.70282 0.0
H863 H 0.73035 0.55569 0.68498 0.0
S864 S 0.69406 0.65127 0.74814 0.0
N865 N 0.66346 0.60303 0.7477 0.0
N866 N 0.72734 0.65631 0.72949 0.0
C867 C 0.71426 0.61766 0.72198 0.0
C868 C 0.67982 0.58863 0.73203 0.0
C869 C 0.47899 0.11862 0.71019 0.0
C870 C 0.49851 0.13665 0.7334 0.0
C871 C 0.44946 0.12501 0.70012 0.0
C872 C 0.43858 0.14978 0.71289 0.0
H873 H 0.48593 0.0987 0.70006 0.0
H874 H 0.43465 0.1099 0.68241 0.0
S875 S 0.48452 0.20739 0.77325 0.0
N876 N 0.50731 0.18249 0.768 0.0
N877 N 0.45238 0.19484 0.74938 0.0
C878 C 0.45909 0.16903 0.73581 0.0
C879 C 0.48889 0.1624 0.74596 0.0
C880 C 0.84323 0.339 0.69928 0.0
C881 C 0.87929 0.36421 0.7128 0.0
C882 C 0.83678 0.30494 0.68509 0.0
C883 C 0.86622 0.29493 0.68375 0.0
H884 H 0.8195 0.34512 0.70016 0.0
H885 H 0.80824 0.28597 0.6754 0.0
S886 S 0.96714 0.35348 0.71372 0.0
N887 N 0.94564 0.37828 0.72275 0.0
N888 N 0.93374 0.31472 0.69574 0.0
C889 C 0.90282 0.32061 0.69655 0.0
C890 C 0.90928 0.3551 0.71116 0.0
C891 C 0.19611 0.01936 0.6566 0.0
C892 C 0.20908 0.99689 0.64343 0.0
C893 C 0.22244 0.05407 0.67137 0.0
C894 C 0.26275 0.06762 0.67361 0.0
H895 H 0.16548 1.01063 0.65498 0.0
H896 H 0.21113 0.0708 0.68075 0.0
S897 S 0.31118 0.0175 0.64478 0.0
N898 N 0.26462 0.98927 0.63483 0.0
N899 N 0.31402 0.05434 0.66271 0.0
C900 C 0.27598 0.04479 0.66115 0.0
C901 C 0.24919 1.00952 0.64601 0.0
C902 C 1.00341 0.2224 0.61069 0.0
C903 C 0.03968 0.24059 0.62462 0.0
C904 C 0.96952 0.21604 0.62115 0.0
C905 C 0.97031 0.22774 0.64605 0.0
H906 H 1.00098 0.21215 0.59159 0.0
H907 H 0.94238 0.20127 0.60951 0.0
S908 S 0.0588 0.27924 0.6901 0.0
N909 N 0.07505 0.27214 0.66429 0.0
N910 N 1.01126 0.26008 0.68411 0.0
C911 C 1.00666 0.2468 0.66011 0.0
C912 C 0.04129 0.25318 0.64939 0.0
C913 C 0.80005 0.7922 0.63931 0.0
C914 C 0.82934 0.83225 0.63905 0.0
C915 C 0.80639 0.766 0.65292 0.0
C916 C 0.84232 0.77894 0.6666 0.0
H917 H 0.77177 0.7813 0.62939 0.0
H918 H 0.78281 0.73565 0.65305 0.0
S919 S 0.92987 0.87975 0.66947 0.0
N920 N 0.89645 0.88264 0.65197 0.0
N921 N 0.90849 0.83379 0.67739 0.0
C922 C 0.8722 0.81858 0.66573 0.0
C923 C 0.86569 0.84512 0.652 0.0
C924 C 0.03267 0.79972 0.66634 0.0
C925 C 0.03808 0.81311 0.64277 0.0
C926 C 0.99517 0.77492 0.6736 0.0
C927 C 0.96138 0.76222 0.65756 0.0
H928 H 0.05768 0.80814 0.67925 0.0
H929 H 0.99283 0.76537 0.69193 0.0
S930 S 0.95997 0.7899 0.59384 0.0
N931 N 1.00682 0.81227 0.60342 0.0
N932 N 0.93626 0.76617 0.61697 0.0
C933 C 0.96647 0.77581 0.63394 0.0
C934 C 1.00477 0.80102 0.62658 0.0
C935 C 0.22364 0.23532 0.67001 0.0
C936 C 0.21313 0.23464 0.64511 0.0
C937 C 0.24889 0.22179 0.6774 0.0
C938 C 0.26474 0.20695 0.6602 0.0
H939 H 0.21282 0.2471 0.68395 0.0
H940 H 0.25631 0.22347 0.69687 0.0
S941 S 0.24509 0.19777 0.59256 0.0
N942 N 0.21954 0.2173 0.60313 0.0
N943 N 0.26689 0.1914 0.61691 0.0
C944 C 0.25367 0.20522 0.63515 0.0
C945 C 0.22798 0.21923 0.62765 0.0
C946 C 0.85563 0.03337 0.66541 0.0
C947 C 0.81816 1.00783 0.65358 0.0
C948 C 0.86834 0.07341 0.6723 0.0
C949 C 0.84389 0.08938 0.66799 0.0
H950 H 0.87513 0.02218 0.66962 0.0
H951 H 0.89738 0.09179 0.68147 0.0
S952 S 0.74261 0.03477 0.63825 0.0
N953 N 0.75652 1.00132 0.63813 0.0
N954 N 0.7802 0.07632 0.65135 0.0
C955 C 0.80634 0.0642 0.65619 0.0
C956 C 0.79348 0.02347 0.64903 0.0
C957 C 0.49578 0.34162 0.68964 0.0
C958 C 0.48301 0.36474 0.70224 0.0
C959 C 0.47074 0.30082 0.6835 0.0
C960 C 0.4317 0.28153 0.68941 0.0
H961 H 0.52537 0.35532 0.68431 0.0
H962 H 0.482 0.28442 0.67369 0.0
S963 S 0.38364 0.32865 0.72225 0.0
N964 N 0.42869 0.36533 0.72053 0.0
N965 N 0.38147 0.28873 0.70868 0.0
C966 C 0.41852 0.30423 0.7021 0.0
C967 C 0.44415 0.34581 0.70851 0.0
C968 C 0.67245 0.12289 0.68905 0.0
C969 C 0.66698 0.12539 0.71404 0.0
C970 C 0.70983 0.13693 0.68119 0.0
C971 C 0.74336 0.15417 0.69798 0.0
H972 H 0.64759 0.10962 0.67545 0.0
H973 H 0.7123 0.13406 0.66171 0.0
S974 S 0.74438 0.16772 0.76564 0.0
N975 N 0.69775 0.14627 0.75561 0.0
N976 N 0.76821 0.17306 0.74099 0.0
C977 C 0.73822 0.15719 0.72309 0.0
C978 C 0.70003 0.14267 0.73106 0.0
C979 C 0.90683 0.58656 0.71242 0.0
C980 C 0.88453 0.54496 0.70765 0.0
C981 C 0.89354 0.61125 0.70354 0.0
C982 C 0.8575 0.59529 0.68945 0.0
H983 H 0.93515 0.60022 0.72274 0.0
H984 H 0.91204 0.64309 0.70734 0.0
S985 S 0.78792 0.48821 0.67193 0.0
N986 N 0.82476 0.48897 0.68785 0.0
N987 N 0.79932 0.53506 0.67159 0.0
C988 C 0.83464 0.5537 0.68487 0.0
C989 C 0.84832 0.52864 0.69377 0.0
C990 C 0.45651 0.97208 0.21396 0.0
C991 C 0.44991 0.93413 0.21841 0.0
C992 C 0.46993 0.98824 0.19176 0.0
C993 C 0.47719 0.96699 0.17324 0.0
H994 H 0.45316 0.99019 0.2282 0.0
H995 H 0.47634 0.01827 0.18955 0.0
S996 S 0.45817 0.86389 0.17437 0.0
N997 N 0.44729 0.87401 0.20148 0.0
N998 N 0.47213 0.90414 0.15972 0.0
C999 C 0.46832 0.92805 0.17691 0.0
C1000 C 0.45477 0.91169 0.19949 0.0
C1001 C 0.13466 0.57371 0.21535 0.0
C1002 C 0.11673 0.54407 0.23155 0.0
C1003 C 0.11893 0.56834 0.19106 0.0
C1004 C 0.08453 0.53321 0.18208 0.0
H1005 H 0.16062 0.60168 0.22166 0.0
H1006 H 0.1329 0.59255 0.17954 0.0
S1007 S 0.02816 0.44512 0.2163 0.0
N1008 N 0.06386 0.47742 0.23642 0.0
N1009 N 0.03479 0.46707 0.19062 0.0
C1010 C 0.06734 0.50261 0.19771 0.0
C1011 C 0.08335 0.50806 0.22245 0.0
C1012 C 0.47567 0.57908 0.20378 0.0
C1013 C 0.50287 0.58912 0.22421 0.0
C1014 C 0.48495 0.57426 0.17992 0.0
C1015 C 0.52166 0.57895 0.17562 0.0
H1016 H 0.44714 0.57536 0.20622 0.0
H1017 H 0.4631 0.56641 0.16475 0.0
S1018 S 0.60324 0.60535 0.22281 0.0
N1019 N 0.56785 0.60298 0.23851 0.0
N1020 N 0.58568 0.59526 0.19379 0.0
C1021 C 0.54912 0.58914 0.19589 0.0
C1022 C 0.53965 0.59391 0.22012 0.0
C1023 C 0.90452 0.45194 0.81401 0.0
C1024 C 0.92174 0.44266 0.79485 0.0
C1025 C 0.91971 0.45757 0.8385 0.0
C1026 C 0.95287 0.45448 0.84469 0.0
H1027 H 0.87895 0.45462 0.81006 0.0
H1028 H 0.90576 0.465 0.85265 0.0
S1029 S 1.00834 0.42999 0.80146 0.0
N1030 N 0.97379 0.43066 0.7838 0.0
N1031 N 1.00157 0.44011 0.82977 0.0
C1032 C 0.97006 0.44475 0.82574 0.0
C1033 C 0.95468 0.4391 0.80086 0.0
C1034 C 0.58302 0.52763 0.80679 0.0
C1035 C 0.58494 0.49414 0.79813 0.0
C1036 C 0.57053 0.53003 0.82999 0.0
C1037 C 0.55985 0.49921 0.84551 0.0
H1038 H 0.58959 0.55139 0.79514 0.0
H1039 H 0.56848 0.5559 0.83565 0.0
S1040 S 0.56275 0.40656 0.83213 0.0
N1041 N 0.57774 0.43076 0.80749 0.0
N1042 N 0.55376 0.43495 0.85089 0.0
C1043 C 0.56329 0.46635 0.83746 0.0
C1044 C 0.5759 0.46388 0.81383 0.0
C1045 C 0.5337 0.11386 0.82357 0.0
C1046 C 0.54631 0.09609 0.80602 0.0
C1047 C 0.52513 0.09975 0.84674 0.0
C1048 C 0.52864 0.06722 0.85321 0.0
H1049 H 0.52989 0.13855 0.81923 0.0
H1050 H 0.5144 0.11356 0.85938 0.0
S1051 S 0.56297 1.01186 0.81458 0.0
N1052 N 0.56333 0.0452 0.79709 0.0
N1053 N 0.54803 0.01927 0.84086 0.0
C1054 C 0.54255 0.05008 0.83619 0.0
C1055 C 0.55128 0.06443 0.81257 0.0
C1056 C 0.16503 0.31069 0.5527 0.0
C1057 C 0.12588 0.28198 0.55496 0.0
C1058 C 0.17686 0.32803 0.53073 0.0
C1059 C 0.15006 0.31743 0.51006 0.0
H1060 H 0.18683 0.31989 0.56808 0.0
H1061 H 0.20748 0.34947 0.52982 0.0
S1062 S 0.04379 0.24462 0.5065 0.0
N1063 N 0.06007 0.24397 0.5347 0.0
N1064 N 0.08223 0.27731 0.49344 0.0
C1065 C 0.11064 0.28916 0.5121 0.0
C1066 C 0.09855 0.2714 0.53456 0.0
C1067 C 0.75499 0.84113 0.55255 0.0
C1068 C 0.79178 0.87332 0.56138 0.0
C1069 C 0.73965 0.8379 0.52833 0.0
C1070 C 0.76066 0.86678 0.51224 0.0
H1071 H 0.73714 0.81952 0.56478 0.0
H1072 H 0.71038 0.81382 0.52256 0.0
S1073 S 0.86099 0.95277 0.52537 0.0
N1074 N 0.85071 0.93173 0.55141 0.0
N1075 N 0.82203 0.9256 0.50595 0.0
C1076 C 0.79854 0.89749 0.52042 0.0
C1077 C 0.81407 0.90077 0.54498 0.0
C1078 C 0.17016 0.88842 0.55028 0.0
C1079 C 0.1707 0.92277 0.56008 0.0
C1080 C 0.1801 0.88564 0.52633 0.0
C1081 C 0.19024 0.91682 0.51122 0.0
H1082 H 0.1627 0.86384 0.56137 0.0
H1083 H 0.1796 0.85881 0.51951 0.0
S1084 S 0.19541 1.01272 0.528 0.0
N1085 N 0.18179 0.98836 0.5527 0.0
N1086 N 0.20029 0.98303 0.50774 0.0
C1087 C 0.1905 0.95111 0.52072 0.0
C1088 C 0.1808 0.95412 0.54514 0.0
C1089 C 0.61685 0.81525 0.139 0.0
C1090 C 0.58539 0.77831 0.1292 0.0
C1091 C 0.63203 0.82115 0.16345 0.0
C1092 C 0.61606 0.79047 0.17912 0.0
H1093 H 0.63041 0.83958 0.12752 0.0
H1094 H 0.65659 0.84994 0.17015 0.0
S1095 S 0.53269 0.68855 0.16275 0.0
N1096 N 0.538 0.71089 0.13729 0.0
N1097 N 0.56684 0.72194 0.18323 0.0
C1098 C 0.58418 0.75359 0.16971 0.0
C1099 C 0.56884 0.74748 0.14475 0.0
C1100 C 0.20502 0.82037 0.13065 0.0
C1101 C 0.24347 0.82979 0.12719 0.0
C1102 C 0.19349 0.82245 0.15411 0.0
C1103 C 0.2199 0.83386 0.1751 0.0
H1104 H 0.18358 0.81121 0.11505 0.0
H1105 H 0.16357 0.81506 0.1558 0.0
S1106 S 0.32392 0.86077 0.17601 0.0
N1107 N 0.30804 0.85074 0.14665 0.0
N1108 N 0.2863 0.85438 0.19089 0.0
C1109 C 0.25864 0.84383 0.17191 0.0
C1110 C 0.27043 0.84184 0.14793 0.0
C1111 C 0.22007 0.40132 0.14613 0.0
C1112 C 0.21436 0.43253 0.13956 0.0
C1113 C 0.21121 0.38643 0.1691 0.0
C1114 C 0.19668 0.40244 0.18645 0.0
H1115 H 0.23022 0.38741 0.13311 0.0
H1116 H 0.21529 0.36182 0.17321 0.0
S1117 S 0.17857 0.48594 0.17877 0.0
N1118 N 0.19518 0.48036 0.15273 0.0
N1119 N 0.17799 0.45195 0.19574 0.0
C1120 C 0.192 0.43447 0.18041 0.0
C1121 C 0.2009 0.44957 0.15701 0.0
C1122 C 0.8002 0.59324 0.8697 0.0
C1123 C 0.79377 0.61479 0.88844 0.0
C1124 C 0.81158 0.60853 0.84708 0.0
C1125 C 0.81729 0.64609 0.84247 0.0
H1126 H 0.79702 0.56459 0.87269 0.0
H1127 H 0.81727 0.59141 0.83343 0.0
S1128 S 0.80218 0.71339 0.88492 0.0
N1129 N 0.79253 0.67494 0.90056 0.0
N1130 N 0.8135 0.70348 0.85791 0.0
C1131 C 0.80976 0.66739 0.86075 0.0
C1132 C 0.79801 0.65175 0.88375 0.0
C1133 C 0.40441 0.20263 0.89727 0.0
C1134 C 0.43807 0.19984 0.90207 0.0
C1135 C 0.38814 0.19824 0.87326 0.0
C1136 C 0.40518 0.19136 0.8531 0.0
H1137 H 0.39108 0.20919 0.91221 0.0
H1138 H 0.36286 0.20178 0.87043 0.0
S1139 S 0.4924 0.17958 0.85588 0.0
N1140 N 0.48705 0.18817 0.88484 0.0
N1141 N 0.45641 0.17988 0.83957 0.0
C1142 C 0.43817 0.1873 0.85767 0.0
C1143 C 0.45456 0.19143 0.88219 0.0
C1144 C 0.82754 0.2209 0.87892 0.0
C1145 C 0.83099 0.2571 0.88782 0.0
C1146 C 0.83693 0.21559 0.85523 0.0
C1147 C 0.84977 0.24611 0.83938 0.0
H1148 H 0.81829 0.19672 0.89056 0.0
H1149 H 0.83421 0.18734 0.84928 0.0
S1150 S 0.86253 0.34614 0.85341 0.0
N1151 N 0.84702 0.3236 0.87856 0.0
N1152 N 0.86508 0.31371 0.83416 0.0
C1153 C 0.85272 0.28223 0.84786 0.0
C1154 C 0.84334 0.28774 0.87205 0.0
C1155 C 0.24011 0.12357 0.48284 0.0
C1156 C 0.25712 0.11347 0.46389 0.0
C1157 C 0.25475 0.12895 0.50745 0.0
C1158 C 0.28715 0.12473 0.51404 0.0
H1159 H 0.2151 0.12709 0.47864 0.0
H1160 H 0.24094 0.13702 0.52138 0.0
S1161 S 0.34182 0.09779 0.47151 0.0
N1162 N 0.30827 0.09963 0.4535 0.0
N1163 N 0.33484 0.10836 0.49967 0.0
C1164 C 0.30412 0.11419 0.4953 0.0
C1165 C 0.28934 0.10887 0.47029 0.0
C1166 C 0.90761 0.13151 0.4802 0.0
C1167 C 0.92001 0.16325 0.46528 0.0
C1168 C 0.89456 0.13342 0.50323 0.0
C1169 C 0.89367 0.16727 0.51238 0.0
H1170 H 0.90706 0.1045 0.47377 0.0
H1171 H 0.88432 0.10786 0.51377 0.0
S1172 S 0.92425 0.25905 0.4811 0.0
N1173 N 0.93151 0.23005 0.46171 0.0
N1174 N 0.90751 0.2338 0.50517 0.0
C1175 C 0.90758 0.19991 0.49819 0.0
C1176 C 0.92066 0.19789 0.47462 0.0
C1177 C 0.88553 0.73714 0.47917 0.0
C1178 C 0.88158 0.76923 0.47224 0.0
C1179 C 0.87613 0.72298 0.50228 0.0
C1180 C 0.86248 0.74042 0.51931 0.0
H1181 H 0.89456 0.72192 0.4663 0.0
H1182 H 0.87828 0.69729 0.50651 0.0
S1183 S 0.8519 0.82851 0.51129 0.0
N1184 N 0.86658 0.8204 0.48508 0.0
N1185 N 0.84896 0.79378 0.52849 0.0
C1186 C 0.86004 0.77362 0.513 0.0
C1187 C 0.8696 0.78804 0.4895 0.0
loop_
_geom_bond_atom_site_label_1
_geom_bond_atom_site_label_2
_geom_bond_distance
_geom_bond_site_symmetry_2
_ccdc_geom_bond_type
H0 C7 0.929 . S
H1 C10 0.930 . S
H2 C12 0.929 . S
H3 C4 0.969 . S
C4 H3 0.969 . S
C4 O5 1.550 . S
C4 H6 0.973 . S
O5 C4 1.550 . S
O5 C11 1.412 . S
H6 C4 0.973 . S
C7 H0 0.929 . S
C7 C8 1.400 . S
C7 C9 1.364 . S
C8 C7 1.400 . S
C8 C12 1.377 . S
C9 C7 1.364 . S
C9 C10 1.374 . S
C10 H1 0.930 . S
C10 C9 1.374 . S
C10 C11 1.383 . S
C11 O5 1.412 . S
C11 C10 1.383 . S
C11 C12 1.394 . S
C12 H2 0.929 . S
C12 C8 1.377 . S
C12 C11 1.394 . S
H13 C20 0.929 . S
H14 C23 0.930 . S
H15 C25 0.929 . S
H16 C17 0.969 . S
C17 H16 0.969 . S
C17 O18 1.550 . S
C17 H19 0.973 . S
O18 C17 1.550 . S
O18 C24 1.412 . S
H19 C17 0.973 . S
C20 H13 0.929 . S
C20 C21 1.400 . S
C20 C22 1.364 . S
C21 C20 1.400 . S
C21 C25 1.377 . S
C22 C20 1.364 . S
C22 C23 1.374 . S
C23 H14 0.930 . S
C23 C22 1.374 . S
C23 C24 1.383 . S
C24 O18 1.412 . S
C24 C23 1.383 . S
C24 C25 1.394 . S
C25 H15 0.929 . S
C25 C21 1.377 . S
C25 C24 1.394 . S
H26 C33 0.929 . S
H27 C36 0.930 . S
H28 C38 0.929 . S
H29 C30 0.969 . S
C30 H29 0.969 . S
C30 O31 1.550 . S
C30 H32 0.973 . S
O31 C30 1.550 . S
O31 C37 1.412 . S
H32 C30 0.973 . S
C33 H26 0.929 . S
C33 C34 1.400 . S
C33 C35 1.364 . S
C34 C33 1.400 . S
C34 C38 1.377 . S
C35 C33 1.364 . S
C35 C36 1.374 . S
C36 H27 0.930 . S
C36 C35 1.374 . S
C36 C37 1.383 . S
C37 O31 1.412 . S
C37 C36 1.383 . S
C37 C38 1.394 . S
C38 H28 0.929 . S
C38 C34 1.377 . S
C38 C37 1.394 . S
H39 C46 0.929 . S
H40 C49 0.930 . S
H41 C51 0.929 . S
H42 C43 0.969 . S
C43 H42 0.969 . S
C43 O44 1.550 . S
C43 H45 0.973 . S
O44 C43 1.550 . S
O44 C50 1.412 . S
H45 C43 0.973 . S
C46 H39 0.929 . S
C46 C47 1.400 . S
C46 C48 1.364 . S
C47 C46 1.400 . S
C47 C51 1.377 . S
C48 C46 1.364 . S
C48 C49 1.374 . S
C49 H40 0.930 . S
C49 C48 1.374 . S
C49 C50 1.383 . S
C50 O44 1.412 . S
C50 C49 1.383 . S
C50 C51 1.394 . S
C51 H41 0.929 . S
C51 C47 1.377 . S
C51 C50 1.394 . S
H52 C59 0.929 . S
H53 C62 0.930 . S
H54 C64 0.929 . S
H55 C56 0.969 . S
C56 H55 0.969 . S
C56 O57 1.550 . S
C56 H58 0.973 . S
O57 C56 1.550 . S
O57 C63 1.412 . S
H58 C56 0.973 . S
C59 H52 0.929 . S
C59 C60 1.400 . S
C59 C61 1.364 . S
C60 C59 1.400 . S
C60 C64 1.377 . S
C61 C59 1.364 . S
C61 C62 1.374 . S
C62 H53 0.930 . S
C62 C61 1.374 . S
C62 C63 1.383 . S
C63 O57 1.412 . S
C63 C62 1.383 . S
C63 C64 1.394 . S
C64 H54 0.929 . S
C64 C60 1.377 . S
C64 C63 1.394 . S
H65 C72 0.929 . S
H66 C75 0.930 . S
H67 C77 0.929 . S
H68 C69 0.969 . S
C69 H68 0.969 . S
C69 O70 1.550 . S
C69 H71 0.973 . S
O70 C69 1.550 . S
O70 C76 1.412 . S
H71 C69 0.973 . S
C72 H65 0.929 . S
C72 C73 1.400 . S
C72 C74 1.364 . S
C73 C72 1.400 . S
C73 C77 1.377 . S
C74 C72 1.364 . S
C74 C75 1.374 . S
C75 H66 0.930 . S
C75 C74 1.374 . S
C75 C76 1.383 . S
C76 O70 1.412 . S
C76 C75 1.383 . S
C76 C77 1.394 . S
C77 H67 0.929 . S
C77 C73 1.377 . S
C77 C76 1.394 . S
H78 C85 0.929 . S
H79 C88 0.930 . S
H80 C90 0.929 . S
H81 C82 0.969 . S
C82 H81 0.969 . S
C82 O83 1.550 . S
C82 H84 0.973 . S
O83 C82 1.550 . S
O83 C89 1.412 . S
H84 C82 0.973 . S
C85 H78 0.929 . S
C85 C86 1.400 . S
C85 C87 1.364 . S
C86 C85 1.400 . S
C86 C90 1.377 . S
C87 C85 1.364 . S
C87 C88 1.374 . S
C88 H79 0.930 . S
C88 C87 1.374 . S
C88 C89 1.383 . S
C89 O83 1.412 . S
C89 C88 1.383 . S
C89 C90 1.394 . S
C90 H80 0.929 . S
C90 C86 1.377 . S
C90 C89 1.394 . S
H91 C98 0.929 . S
H92 C101 0.930 . S
H93 C103 0.929 . S
H94 C95 0.969 . S
C95 H94 0.969 . S
C95 O96 1.550 . S
C95 H97 0.973 . S
O96 C95 1.550 . S
O96 C102 1.412 . S
H97 C95 0.973 . S
C98 H91 0.929 . S
C98 C99 1.400 . S
C98 C100 1.364 . S
C99 C98 1.400 . S
C99 C103 1.377 . S
C100 C98 1.364 . S
C100 C101 1.374 . S
C101 H92 0.930 . S
C101 C100 1.374 . S
C101 C102 1.383 . S
C102 O96 1.412 . S
C102 C101 1.383 . S
C102 C103 1.394 . S
C103 H93 0.929 . S
C103 C99 1.377 . S
C103 C102 1.394 . S
H104 C111 0.929 . S
H105 C114 0.930 . S
H106 C116 0.929 . S
H107 C108 0.969 . S
C108 H107 0.969 . S
C108 O109 1.550 . S
C108 H110 0.973 . S
O109 C108 1.550 . S
O109 C115 1.412 . S
H110 C108 0.973 . S
C111 H104 0.929 . S
C111 C112 1.400 . S
C111 C113 1.364 . S
C112 C111 1.400 . S
C112 C116 1.377 . S
C113 C111 1.364 . S
C113 C114 1.374 . S
C114 H105 0.930 . S
C114 C113 1.374 . S
C114 C115 1.383 . S
C115 O109 1.412 . S
C115 C114 1.383 . S
C115 C116 1.394 . S
C116 H106 0.929 . S
C116 C112 1.377 . S
C116 C115 1.394 . S
H117 C124 0.929 . S
H118 C127 0.930 . S
H119 C129 0.929 . S
H120 C121 0.969 . S
C121 H120 0.969 . S
C121 O122 1.550 . S
C121 H123 0.973 . S
O122 C121 1.550 . S
O122 C128 1.412 . S
H123 C121 0.973 . S
C124 H117 0.929 . S
C124 C125 1.400 . S
C124 C126 1.364 . S
C125 C124 1.400 . S
C125 C129 1.377 . S
C126 C124 1.364 . S
C126 C127 1.374 . S
C127 H118 0.930 . S
C127 C126 1.374 . S
C127 C128 1.383 . S
C128 O122 1.412 . S
C128 C127 1.383 . S
C128 C129 1.394 . S
C129 H119 0.929 . S
C129 C125 1.377 . S
C129 C128 1.394 . S
H130 C137 0.929 . S
H131 C140 0.930 . S
H132 C142 0.929 1_554 S
H133 C134 0.969 . S
C134 H133 0.969 . S
C134 O135 1.550 . S
C134 H136 0.973 . S
O135 C134 1.550 . S
O135 C141 1.412 . S
H136 C134 0.973 . S
C137 H130 0.929 . S
C137 C138 1.400 . S
C137 C139 1.364 . S
C138 C137 1.400 . S
C138 C142 1.377 . S
C139 C137 1.364 . S
C139 C140 1.374 . S
C140 H131 0.930 . S
C140 C139 1.374 . S
C140 C141 1.383 . S
C141 O135 1.412 . S
C141 C140 1.383 . S
C141 C142 1.394 . S
C142 H132 0.929 1_556 S
C142 C138 1.377 . S
C142 C141 1.394 . S
H143 C150 0.929 . S
H144 C153 0.930 . S
H145 C155 0.929 . S
H146 C147 0.969 . S
C147 H146 0.969 . S
C147 O148 1.550 . S
C147 H149 0.973 . S
O148 C147 1.550 . S
O148 C154 1.412 . S
H149 C147 0.973 . S
C150 H143 0.929 . S
C150 C151 1.400 . S
C150 C152 1.364 . S
C151 C150 1.400 . S
C151 C155 1.377 . S
C152 C150 1.364 . S
C152 C153 1.374 . S
C153 H144 0.930 . S
C153 C152 1.374 . S
C153 C154 1.383 . S
C154 O148 1.412 . S
C154 C153 1.383 . S
C154 C155 1.394 . S
C155 H145 0.929 . S
C155 C151 1.377 . S
C155 C154 1.394 . S
H156 C163 0.929 . S
H157 C166 0.930 . S
H158 C168 0.929 . S
H159 C160 0.969 . S
C160 H159 0.969 . S
C160 O161 1.550 . S
C160 H162 0.973 . S
O161 C160 1.550 . S
O161 C167 1.412 . S
H162 C160 0.973 . S
C163 H156 0.929 . S
C163 C164 1.400 . S
C163 C165 1.364 . S
C164 C163 1.400 . S
C164 C168 1.377 . S
C165 C163 1.364 . S
C165 C166 1.374 . S
C166 H157 0.930 . S
C166 C165 1.374 . S
C166 C167 1.383 . S
C167 O161 1.412 . S
C167 C166 1.383 . S
C167 C168 1.394 . S
C168 H158 0.929 . S
C168 C164 1.377 . S
C168 C167 1.394 . S
H169 C176 0.929 . S
H170 C179 0.930 . S
H171 C181 0.929 . S
H172 C173 0.969 . S
C173 H172 0.969 . S
C173 O174 1.550 . S
C173 H175 0.973 . S
O174 C173 1.550 . S
O174 C180 1.412 . S
H175 C173 0.973 . S
C176 H169 0.929 . S
C176 C177 1.400 . S
C176 C178 1.364 . S
C177 C176 1.400 . S
C177 C181 1.377 . S
C178 C176 1.364 . S
C178 C179 1.374 . S
C179 H170 0.930 . S
C179 C178 1.374 . S
C179 C180 1.383 . S
C180 O174 1.412 . S
C180 C179 1.383 . S
C180 C181 1.394 . S
C181 H171 0.929 . S
C181 C177 1.377 . S
C181 C180 1.394 . S
H182 C189 0.929 . S
H183 C192 0.930 . S
H184 C194 0.929 . S
H185 C186 0.969 . S
C186 H185 0.969 . S
C186 O187 1.550 . S
C186 H188 0.973 . S
O187 C186 1.550 . S
O187 C193 1.412 . S
H188 C186 0.973 . S
C189 H182 0.929 . S
C189 C190 1.400 . S
C189 C191 1.364 . S
C190 C189 1.400 . S
C190 C194 1.377 . S
C191 C189 1.364 . S
C191 C192 1.374 . S
C192 H183 0.930 . S
C192 C191 1.374 . S
C192 C193 1.383 . S
C193 O187 1.412 . S
C193 C192 1.383 . S
C193 C194 1.394 . S
C194 H184 0.929 . S
C194 C190 1.377 . S
C194 C193 1.394 . S
H195 C202 0.929 . S
H196 C205 0.930 . S
H197 C207 0.929 . S
H198 C199 0.969 . S
C199 H198 0.969 . S
C199 O200 1.550 . S
C199 H201 0.973 . S
O200 C199 1.550 . S
O200 C206 1.412 . S
H201 C199 0.973 . S
C202 H195 0.929 . S
C202 C203 1.400 . S
C202 C204 1.364 . S
C203 C202 1.400 . S
C203 C207 1.377 . S
C204 C202 1.364 . S
C204 C205 1.374 . S
C205 H196 0.930 . S
C205 C204 1.374 . S
C205 C206 1.383 . S
C206 O200 1.412 . S
C206 C205 1.383 . S
C206 C207 1.394 . S
C207 H197 0.929 . S
C207 C203 1.377 . S
C207 C206 1.394 . S
H208 C215 0.929 . S
H209 C218 0.930 . S
H210 C220 0.929 . S
H211 C212 0.969 . S
C212 H211 0.969 . S
C212 O213 1.550 . S
C212 H214 0.973 . S
O213 C212 1.550 . S
O213 C219 1.412 . S
H214 C212 0.973 . S
C215 H208 0.929 . S
C215 C216 1.400 . S
C215 C217 1.364 . S
C216 C215 1.400 . S
C216 C220 1.377 . S
C217 C215 1.364 . S
C217 C218 1.374 . S
C218 H209 0.930 . S
C218 C217 1.374 . S
C218 C219 1.383 . S
C219 O213 1.412 . S
C219 C218 1.383 . S
C219 C220 1.394 . S
C220 H210 0.929 . S
C220 C216 1.377 . S
C220 C219 1.394 . S
H221 C228 0.929 . S
H222 C231 0.930 . S
H223 C233 0.929 . S
H224 C225 0.969 . S
C225 H224 0.969 . S
C225 O226 1.550 . S
C225 H227 0.973 . S
O226 C225 1.550 . S
O226 C232 1.412 . S
H227 C225 0.973 . S
C228 H221 0.929 . S
C228 C229 1.400 . S
C228 C230 1.364 . S
C229 C228 1.400 . S
C229 C233 1.377 . S
C230 C228 1.364 . S
C230 C231 1.374 . S
C231 H222 0.930 . S
C231 C230 1.374 . S
C231 C232 1.383 . S
C232 O226 1.412 . S
C232 C231 1.383 . S
C232 C233 1.394 . S
C233 H223 0.929 . S
C233 C229 1.377 . S
C233 C232 1.394 . S
C234 Eu235 2.835 . S
C234 C236 1.500 1_545 S
C234 O254 1.257 1_545 S
C234 O255 1.260 . S
Eu235 C234 2.835 . S
Eu235 O254 2.473 1_545 S
Eu235 O255 2.480 . S
Eu235 O256 2.430 . S
Eu235 O257 2.670 1_554 S
Eu235 O258 2.394 1_545 S
Eu235 O263 2.355 1_545 S
Eu235 O265 2.374 . S
C236 C234 1.500 1_565 S
C236 C237 1.377 1_565 S
C236 C241 1.377 . S
C237 C236 1.377 1_545 S
C237 C238 1.395 . S
C237 H266 0.931 . S
C238 C237 1.395 . S
C238 C239 1.383 1_545 S
C238 H267 0.931 . S
C239 C238 1.383 1_565 S
C239 C240 1.394 . S
C240 C239 1.394 . S
C240 C241 1.378 . S
C240 H268 0.931 . S
C241 C236 1.377 . S
C241 C240 1.378 . S
C241 H269 0.931 . S
C242 O256 1.259 . S
C242 O257 1.270 1_554 S
C243 O258 1.251 . S
C243 O259 1.251 1_554 S
C244 Eu245 2.835 1_545 S
C244 C246 1.500 . S
C244 O260 1.257 . S
C244 O261 1.260 1_545 S
Eu245 C244 2.835 1_565 S
Eu245 O257 2.355 1_565 S
Eu245 O259 2.374 . S
Eu245 O260 2.473 1_565 S
Eu245 O261 2.480 . S
Eu245 O262 2.430 . S
Eu245 O263 2.670 1_556 S
Eu245 O264 2.394 1_565 S
C246 C244 1.500 . S
C246 C247 1.385 . S
C246 C251 1.377 . S
C247 C246 1.385 . S
C247 C248 1.397 . S
C247 H270 0.920 1_545 S
C248 C247 1.397 . S
C248 C249 1.383 . S
C248 H271 0.931 1_545 S
C249 C248 1.383 . S
C249 C250 1.394 . S
C250 C249 1.394 . S
C250 C251 1.378 . S
C250 H272 0.931 . S
C251 C246 1.377 . S
C251 C250 1.378 . S
C251 H273 0.931 . S
C252 O262 1.259 1_554 S
C252 O263 1.270 . S
C253 O264 1.251 . S
C253 O265 1.251 1_556 S
O254 C234 1.257 1_565 S
O254 Eu235 2.473 1_565 S
O255 C234 1.260 . S
O255 Eu235 2.480 . S
O256 Eu235 2.430 . S
O256 C242 1.259 . S
O257 Eu235 2.670 1_556 S
O257 C242 1.270 1_556 S
O257 Eu245 2.355 1_545 S
O258 Eu235 2.394 1_565 S
O258 C243 1.251 . S
O259 C243 1.251 1_556 S
O259 Eu245 2.374 . S
O260 C244 1.257 . S
O260 Eu245 2.473 1_545 S
O261 C244 1.260 1_565 S
O261 Eu245 2.480 . S
O262 Eu245 2.430 . S
O262 C252 1.259 1_556 S
O263 Eu235 2.355 1_565 S
O263 Eu245 2.670 1_554 S
O263 C252 1.270 . S
O264 Eu245 2.394 1_545 S
O264 C253 1.251 . S
O265 Eu235 2.374 . S
O265 C253 1.251 1_554 S
H266 C237 0.931 . S
H267 C238 0.931 . S
H268 C240 0.931 . S
H269 C241 0.931 . S
H270 C247 0.920 1_565 S
H271 C248 0.931 1_565 S
H272 C250 0.931 . S
H273 C251 0.931 . S
C274 Eu275 2.835 1_455 S
C274 C276 1.500 . S
C274 O294 1.257 . S
C274 O295 1.260 1_455 S
Eu275 C274 2.835 1_655 S
Eu275 O294 2.473 1_655 S
Eu275 O295 2.480 . S
Eu275 O296 2.430 . S
Eu275 O297 2.670 1_554 S
Eu275 O298 2.394 1_655 S
Eu275 O303 2.355 1_655 S
Eu275 O305 2.374 . S
C276 C274 1.500 . S
C276 C277 1.377 . S
C276 C281 1.377 . S
C277 C276 1.377 . S
C277 C278 1.395 . S
C277 H306 0.931 1_455 S
C278 C277 1.395 . S
C278 C279 1.383 . S
C278 H307 0.928 1_455 S
C279 C278 1.383 . S
C279 C280 1.394 . S
C280 C279 1.394 . S
C280 C281 1.378 . S
C280 H308 0.931 . S
C281 C276 1.377 . S
C281 C280 1.378 . S
C281 H309 0.931 . S
C282 O296 1.259 1_556 S
C282 O297 1.270 . S
C283 O298 1.251 . S
C283 O299 1.237 1_554 S
C284 Eu285 2.835 1_655 S
C284 C286 1.500 . S
C284 O300 1.257 . S
C284 O301 1.260 1_655 S
Eu285 C284 2.835 1_455 S
Eu285 O297 2.355 1_455 S
Eu285 O299 2.384 . S
Eu285 O300 2.473 1_455 S
Eu285 O301 2.480 . S
Eu285 O302 2.430 . S
Eu285 O303 2.670 1_556 S
Eu285 O304 2.394 1_455 S
C286 C284 1.500 . S
C286 C287 1.370 1_655 S
C286 C291 1.377 . S
C287 C286 1.370 1_455 S
C287 C288 1.388 1_455 S
C287 H310 0.946 . S
C288 C287 1.388 1_655 S
C288 C289 1.383 . S
C288 H311 0.931 1_655 S
C289 C288 1.383 . S
C289 C290 1.394 . S
C290 C289 1.394 . S
C290 C291 1.378 . S
C290 H312 0.931 . S
C291 C286 1.377 . S
C291 C290 1.378 . S
C291 H313 0.931 . S
C292 O302 1.259 1_554 S
C292 O303 1.270 . S
C293 O304 1.251 . S
C293 O305 1.251 1_556 S
O294 C274 1.257 . S
O294 Eu275 2.473 1_455 S
O295 C274 1.260 1_655 S
O295 Eu275 2.480 . S
O296 Eu275 2.430 . S
O296 C282 1.259 1_554 S
O297 Eu275 2.670 1_556 S
O297 C282 1.270 . S
O297 Eu285 2.355 1_655 S
O298 Eu275 2.394 1_455 S
O298 C283 1.251 . S
O299 C283 1.237 1_556 S
O299 Eu285 2.384 . S
O300 C284 1.257 . S
O300 Eu285 2.473 1_655 S
O301 C284 1.260 1_455 S
O301 Eu285 2.480 . S
O302 Eu285 2.430 . S
O302 C292 1.259 1_556 S
O303 Eu275 2.355 1_455 S
O303 Eu285 2.670 1_554 S
O303 C292 1.270 . S
O304 Eu285 2.394 1_655 S
O304 C293 1.251 . S
O305 Eu275 2.374 . S
O305 C293 1.251 1_554 S
H306 C277 0.931 1_655 S
H307 C278 0.928 1_655 S
H308 C280 0.931 . S
H309 C281 0.931 . S
H310 C287 0.946 . S
H311 C288 0.931 1_455 S
H312 C290 0.931 . S
H313 C291 0.931 . S
C314 Eu315 2.835 . S
C314 C316 1.500 . S
C314 O334 1.257 . S
C314 O335 1.260 . S
Eu315 C314 2.835 . S
Eu315 O334 2.473 . S
Eu315 O335 2.480 . S
Eu315 O336 2.430 . S
Eu315 O337 2.670 1_556 S
Eu315 O338 2.394 . S
Eu315 O343 2.355 . S
Eu315 O345 2.374 1_556 S
C316 C314 1.500 . S
C316 C317 1.377 . S
C316 C321 1.377 . S
C317 C316 1.377 . S
C317 C318 1.395 . S
C317 H346 0.931 . S
C318 C317 1.395 . S
C318 C319 1.383 . S
C318 H347 0.931 . S
C319 C318 1.383 . S
C319 C320 1.394 . S
C320 C319 1.394 . S
C320 C321 1.378 . S
C320 H348 0.931 . S
C321 C316 1.377 . S
C321 C320 1.378 . S
C321 H349 0.931 . S
C322 O336 1.259 1_554 S
C322 O337 1.270 . S
C323 O338 1.251 . S
C323 O339 1.251 1_556 S
C324 Eu325 2.835 . S
C324 C326 1.500 . S
C324 O340 1.257 . S
C324 O341 1.260 . S
Eu325 C324 2.835 . S
Eu325 O337 2.355 . S
Eu325 O339 2.374 . S
Eu325 O340 2.473 . S
Eu325 O341 2.480 . S
Eu325 O342 2.430 . S
Eu325 O343 2.670 1_554 S
Eu325 O344 2.394 . S
C326 C324 1.500 . S
C326 C327 1.377 . S
C326 C331 1.377 . S
C327 C326 1.377 . S
C327 C328 1.395 . S
C327 H350 0.931 . S
C328 C327 1.395 . S
C328 C329 1.383 . S
C328 H351 0.931 . S
C329 C328 1.383 . S
C329 C330 1.394 . S
C330 C329 1.394 . S
C330 C331 1.378 . S
C330 H352 0.931 . S
C331 C326 1.377 . S
C331 C330 1.378 . S
C331 H353 0.931 . S
C332 O342 1.259 . S
C332 O343 1.270 1_554 S
C333 O344 1.251 . S
C333 O345 1.251 . S
O334 C314 1.257 . S
O334 Eu315 2.473 . S
O335 C314 1.260 . S
O335 Eu315 2.480 . S
O336 Eu315 2.430 . S
O336 C322 1.259 1_556 S
O337 Eu315 2.670 1_554 S
O337 C322 1.270 . S
O337 Eu325 2.355 . S
O338 Eu315 2.394 . S
O338 C323 1.251 . S
O339 C323 1.251 1_554 S
O339 Eu325 2.374 . S
O340 C324 1.257 . S
O340 Eu325 2.473 . S
O341 C324 1.260 . S
O341 Eu325 2.480 . S
O342 Eu325 2.430 . S
O342 C332 1.259 . S
O343 Eu315 2.355 . S
O343 Eu325 2.670 1_556 S
O343 C332 1.270 1_556 S
O344 Eu325 2.394 . S
O344 C333 1.251 . S
O345 Eu315 2.374 1_554 S
O345 C333 1.251 . S
H346 C317 0.931 . S
H347 C318 0.931 . S
H348 C320 0.931 . S
H349 C321 0.931 . S
H350 C327 0.931 . S
H351 C328 0.931 . S
H352 C330 0.931 . S
H353 C331 0.931 . S
C354 Eu355 2.835 . S
C354 C356 1.500 . S
C354 O374 1.257 . S
C354 O375 1.260 . S
Eu355 C354 2.835 . S
Eu355 O374 2.473 . S
Eu355 O375 2.480 . S
Eu355 O376 2.430 . S
Eu355 O377 2.670 . S
Eu355 O378 2.394 . S
Eu355 O383 2.355 . S
Eu355 O385 2.374 . S
C356 C354 1.500 . S
C356 C357 1.377 . S
C356 C361 1.377 . S
C357 C356 1.377 . S
C357 C358 1.395 . S
C357 H386 0.931 . S
C358 C357 1.395 . S
C358 C359 1.383 . S
C358 H387 0.931 . S
C359 C358 1.383 . S
C359 C360 1.394 . S
C360 C359 1.394 . S
C360 C361 1.378 . S
C360 H388 0.931 . S
C361 C356 1.377 . S
C361 C360 1.378 . S
C361 H389 0.931 . S
C362 O376 1.259 . S
C362 O377 1.270 . S
C363 O378 1.251 . S
C363 O379 1.251 . S
C364 Eu365 2.835 . S
C364 C366 1.500 . S
C364 O380 1.257 . S
C364 O381 1.260 . S
Eu365 C364 2.835 . S
Eu365 O377 2.355 . S
Eu365 O379 2.374 . S
Eu365 O380 2.473 . S
Eu365 O381 2.480 . S
Eu365 O382 2.430 . S
Eu365 O383 2.670 . S
Eu365 O384 2.394 . S
C366 C364 1.500 . S
C366 C367 1.377 . S
C366 C371 1.377 . S
C367 C366 1.377 . S
C367 C368 1.395 . S
C367 H390 0.931 . S
C368 C367 1.395 . S
C368 C369 1.383 . S
C368 H391 0.931 . S
C369 C368 1.383 . S
C369 C370 1.394 . S
C370 C369 1.394 . S
C370 C371 1.378 . S
C370 H392 0.931 . S
C371 C366 1.377 . S
C371 C370 1.378 . S
C371 H393 0.931 . S
C372 O382 1.259 . S
C372 O383 1.270 . S
C373 O384 1.251 . S
C373 O385 1.251 . S
O374 C354 1.257 . S
O374 Eu355 2.473 . S
O375 C354 1.260 . S
O375 Eu355 2.480 . S
O376 Eu355 2.430 . S
O376 C362 1.259 . S
O377 Eu355 2.670 . S
O377 C362 1.270 . S
O377 Eu365 2.355 . S
O378 Eu355 2.394 . S
O378 C363 1.251 . S
O379 C363 1.251 . S
O379 Eu365 2.374 . S
O380 C364 1.257 . S
O380 Eu365 2.473 . S
O381 C364 1.260 . S
O381 Eu365 2.480 . S
O382 Eu365 2.430 . S
O382 C372 1.259 . S
O383 Eu355 2.355 . S
O383 Eu365 2.670 . S
O383 C372 1.270 . S
O384 Eu365 2.394 . S
O384 C373 1.251 . S
O385 Eu355 2.374 . S
O385 C373 1.251 . S
H386 C357 0.931 . S
H387 C358 0.931 . S
H388 C360 0.931 . S
H389 C361 0.931 . S
H390 C367 0.931 . S
H391 C368 0.931 . S
H392 C370 0.931 . S
H393 C371 0.931 . S
C394 Eu395 2.835 . S
C394 C396 1.500 . S
C394 O414 1.257 . S
C394 O415 1.260 . S
Eu395 C394 2.835 . S
Eu395 O414 2.473 . S
Eu395 O415 2.480 . S
Eu395 O416 2.430 . S
Eu395 O417 2.670 . S
Eu395 O418 2.394 . S
Eu395 O423 2.355 . S
Eu395 O425 2.374 . S
C396 C394 1.500 . S
C396 C397 1.377 . S
C396 C401 1.377 . S
C397 C396 1.377 . S
C397 C398 1.395 . S
C397 H426 0.931 . S
C398 C397 1.395 . S
C398 C399 1.383 . S
C398 H427 0.931 . S
C399 C398 1.383 . S
C399 C400 1.394 . S
C400 C399 1.394 . S
C400 C401 1.378 . S
C400 H428 0.931 . S
C401 C396 1.377 . S
C401 C400 1.378 . S
C401 H429 0.931 . S
C402 O416 1.259 . S
C402 O417 1.270 . S
C403 O418 1.251 . S
C403 O419 1.251 . S
C404 Eu405 2.835 . S
C404 C406 1.500 . S
C404 O420 1.257 . S
C404 O421 1.260 . S
Eu405 C404 2.835 . S
Eu405 O417 2.355 . S
Eu405 O419 2.374 . S
Eu405 O420 2.473 . S
Eu405 O421 2.480 . S
Eu405 O422 2.430 . S
Eu405 O423 2.670 . S
Eu405 O424 2.394 . S
C406 C404 1.500 . S
C406 C407 1.377 . S
C406 C411 1.377 . S
C407 C406 1.377 . S
C407 C408 1.395 . S
C407 H430 0.931 . S
C408 C407 1.395 . S
C408 C409 1.383 . S
C408 H431 0.931 . S
C409 C408 1.383 . S
C409 C410 1.394 . S
C410 C409 1.394 . S
C410 C411 1.378 . S
C410 H432 0.931 . S
C411 C406 1.377 . S
C411 C410 1.378 . S
C411 H433 0.931 . S
C412 O422 1.259 . S
C412 O423 1.270 . S
C413 O424 1.251 . S
C413 O425 1.251 . S
O414 C394 1.257 . S
O414 Eu395 2.473 . S
O415 C394 1.260 . S
O415 Eu395 2.480 . S
O416 Eu395 2.430 . S
O416 C402 1.259 . S
O417 Eu395 2.670 . S
O417 C402 1.270 . S
O417 Eu405 2.355 . S
O418 Eu395 2.394 . S
O418 C403 1.251 . S
O419 C403 1.251 . S
O419 Eu405 2.374 . S
O420 C404 1.257 . S
O420 Eu405 2.473 . S
O421 C404 1.260 . S
O421 Eu405 2.480 . S
O422 Eu405 2.430 . S
O422 C412 1.259 . S
O423 Eu395 2.355 . S
O423 Eu405 2.670 . S
O423 C412 1.270 . S
O424 Eu405 2.394 . S
O424 C413 1.251 . S
O425 Eu395 2.374 . S
O425 C413 1.251 . S
H426 C397 0.931 . S
H427 C398 0.931 . S
H428 C400 0.931 . S
H429 C401 0.931 . S
H430 C407 0.931 . S
H431 C408 0.931 . S
H432 C410 0.931 . S
H433 C411 0.931 . S
C434 Eu435 2.835 . S
C434 C436 1.500 . S
C434 O454 1.257 . S
C434 O455 1.260 . S
Eu435 C434 2.835 . S
Eu435 O454 2.473 . S
Eu435 O455 2.480 . S
Eu435 O456 2.430 . S
Eu435 O457 2.670 . S
Eu435 O458 2.394 . S
Eu435 O463 2.355 . S
Eu435 O465 2.374 . S
C436 C434 1.500 . S
C436 C437 1.377 . S
C436 C441 1.377 . S
C437 C436 1.377 . S
C437 C438 1.395 . S
C437 H466 0.931 . S
C438 C437 1.395 . S
C438 C439 1.383 . S
C438 H467 0.931 . S
C439 C438 1.383 . S
C439 C440 1.394 . S
C440 C439 1.394 . S
C440 C441 1.378 . S
C440 H468 0.931 . S
C441 C436 1.377 . S
C441 C440 1.378 . S
C441 H469 0.931 . S
C442 O456 1.259 . S
C442 O457 1.270 . S
C443 O458 1.251 . S
C443 O459 1.251 . S
C444 Eu445 2.835 . S
C444 C446 1.500 . S
C444 O460 1.257 . S
C444 O461 1.260 . S
Eu445 C444 2.835 . S
Eu445 O457 2.355 . S
Eu445 O459 2.374 . S
Eu445 O460 2.473 . S
Eu445 O461 2.480 . S
Eu445 O462 2.430 . S
Eu445 O463 2.670 . S
Eu445 O464 2.394 . S
C446 C444 1.500 . S
C446 C447 1.377 . S
C446 C451 1.377 . S
C447 C446 1.377 . S
C447 C448 1.395 . S
C447 H470 0.931 . S
C448 C447 1.395 . S
C448 C449 1.383 . S
C448 H471 0.931 . S
C449 C448 1.383 . S
C449 C450 1.394 . S
C450 C449 1.394 . S
C450 C451 1.378 . S
C450 H472 0.931 . S
C451 C446 1.377 . S
C451 C450 1.378 . S
C451 H473 0.931 . S
C452 O462 1.259 . S
C452 O463 1.270 . S
C453 O464 1.251 . S
C453 O465 1.251 . S
O454 C434 1.257 . S
O454 Eu435 2.473 . S
O455 C434 1.260 . S
O455 Eu435 2.480 . S
O456 Eu435 2.430 . S
O456 C442 1.259 . S
O457 Eu435 2.670 . S
O457 C442 1.270 . S
O457 Eu445 2.355 . S
O458 Eu435 2.394 . S
O458 C443 1.251 . S
O459 C443 1.251 . S
O459 Eu445 2.374 . S
O460 C444 1.257 . S
O460 Eu445 2.473 . S
O461 C444 1.260 . S
O461 Eu445 2.480 . S
O462 Eu445 2.430 . S
O462 C452 1.259 . S
O463 Eu435 2.355 . S
O463 Eu445 2.670 . S
O463 C452 1.270 . S
O464 Eu445 2.394 . S
O464 C453 1.251 . S
O465 Eu435 2.374 . S
O465 C453 1.251 . S
H466 C437 0.931 . S
H467 C438 0.931 . S
H468 C440 0.931 . S
H469 C441 0.931 . S
H470 C447 0.931 . S
H471 C448 0.931 . S
H472 C450 0.931 . S
H473 C451 0.931 . S
C474 Eu475 2.835 . S
C474 C476 1.500 . S
C474 O494 1.257 . S
C474 O495 1.260 . S
Eu475 C474 2.835 . S
Eu475 O494 2.473 . S
Eu475 O495 2.480 . S
Eu475 O496 2.430 . S
Eu475 O497 2.670 . S
Eu475 O498 2.394 . S
Eu475 O503 2.355 . S
Eu475 O505 2.374 . S
C476 C474 1.500 . S
C476 C477 1.377 . S
C476 C481 1.377 . S
C477 C476 1.377 . S
C477 C478 1.395 . S
C477 H506 0.931 . S
C478 C477 1.395 . S
C478 C479 1.383 . S
C478 H507 0.931 . S
C479 C478 1.383 . S
C479 C480 1.394 . S
C480 C479 1.394 . S
C480 C481 1.378 . S
C480 H508 0.931 . S
C481 C476 1.377 . S
C481 C480 1.378 . S
C481 H509 0.931 . S
C482 O496 1.259 . S
C482 O497 1.270 . S
C483 O498 1.251 . S
C483 O499 1.251 . S
C484 Eu485 2.835 . S
C484 C486 1.500 . S
C484 O500 1.257 . S
C484 O501 1.260 . S
Eu485 C484 2.835 . S
Eu485 O497 2.355 . S
Eu485 O499 2.374 . S
Eu485 O500 2.473 . S
Eu485 O501 2.480 . S
Eu485 O502 2.430 . S
Eu485 O503 2.670 . S
Eu485 O504 2.394 . S
C486 C484 1.500 . S
C486 C487 1.377 . S
C486 C491 1.377 . S
C487 C486 1.377 . S
C487 C488 1.395 . S
C487 H510 0.931 . S
C488 C487 1.395 . S
C488 C489 1.383 . S
C488 H511 0.931 . S
C489 C488 1.383 . S
C489 C490 1.394 . S
C490 C489 1.394 . S
C490 C491 1.378 . S
C490 H512 0.931 . S
C491 C486 1.377 . S
C491 C490 1.378 . S
C491 H513 0.931 . S
C492 O502 1.259 . S
C492 O503 1.270 . S
C493 O504 1.251 . S
C493 O505 1.251 . S
O494 C474 1.257 . S
O494 Eu475 2.473 . S
O495 C474 1.260 . S
O495 Eu475 2.480 . S
O496 Eu475 2.430 . S
O496 C482 1.259 . S
O497 Eu475 2.670 . S
O497 C482 1.270 . S
O497 Eu485 2.355 . S
O498 Eu475 2.394 . S
O498 C483 1.251 . S
O499 C483 1.251 . S
O499 Eu485 2.374 . S
O500 C484 1.257 . S
O500 Eu485 2.473 . S
O501 C484 1.260 . S
O501 Eu485 2.480 . S
O502 Eu485 2.430 . S
O502 C492 1.259 . S
O503 Eu475 2.355 . S
O503 Eu485 2.670 . S
O503 C492 1.270 . S
O504 Eu485 2.394 . S
O504 C493 1.251 . S
O505 Eu475 2.374 . S
O505 C493 1.251 . S
H506 C477 0.931 . S
H507 C478 0.931 . S
H508 C480 0.931 . S
H509 C481 0.931 . S
H510 C487 0.931 . S
H511 C488 0.931 . S
H512 C490 0.931 . S
H513 C491 0.931 . S
C514 Eu515 2.835 . S
C514 C516 1.500 . S
C514 O534 1.257 . S
C514 O535 1.260 . S
Eu515 C514 2.835 . S
Eu515 O534 2.473 . S
Eu515 O535 2.480 . S
Eu515 O536 2.430 . S
Eu515 O537 2.670 . S
Eu515 O538 2.394 . S
Eu515 O543 2.355 . S
Eu515 O545 2.374 . S
C516 C514 1.500 . S
C516 C517 1.377 . S
C516 C521 1.377 . S
C517 C516 1.377 . S
C517 C518 1.395 . S
C517 H546 0.931 . S
C518 C517 1.395 . S
C518 C519 1.383 . S
C518 H547 0.931 . S
C519 C518 1.383 . S
C519 C520 1.394 . S
C520 C519 1.394 . S
C520 C521 1.378 . S
C520 H548 0.931 . S
C521 C516 1.377 . S
C521 C520 1.378 . S
C521 H549 0.931 . S
C522 O536 1.259 . S
C522 O537 1.270 . S
C523 O538 1.251 . S
C523 O539 1.251 . S
C524 Eu525 2.835 . S
C524 C526 1.500 . S
C524 O540 1.257 . S
C524 O541 1.260 . S
Eu525 C524 2.835 . S
Eu525 O537 2.355 . S
Eu525 O539 2.374 . S
Eu525 O540 2.473 . S
Eu525 O541 2.480 . S
Eu525 O542 2.430 . S
Eu525 O543 2.670 . S
Eu525 O544 2.394 . S
C526 C524 1.500 . S
C526 C527 1.377 . S
C526 C531 1.377 . S
C527 C526 1.377 . S
C527 C528 1.395 . S
C527 H550 0.931 . S
C528 C527 1.395 . S
C528 C529 1.383 . S
C528 H551 0.931 . S
C529 C528 1.383 . S
C529 C530 1.394 . S
C530 C529 1.394 . S
C530 C531 1.378 . S
C530 H552 0.931 . S
C531 C526 1.377 . S
C531 C530 1.378 . S
C531 H553 0.931 . S
C532 O542 1.259 . S
C532 O543 1.270 . S
C533 O544 1.251 . S
C533 O545 1.251 . S
O534 C514 1.257 . S
O534 Eu515 2.473 . S
O535 C514 1.260 . S
O535 Eu515 2.480 . S
O536 Eu515 2.430 . S
O536 C522 1.259 . S
O537 Eu515 2.670 . S
O537 C522 1.270 . S
O537 Eu525 2.355 . S
O538 Eu515 2.394 . S
O538 C523 1.251 . S
O539 C523 1.251 . S
O539 Eu525 2.374 . S
O540 C524 1.257 . S
O540 Eu525 2.473 . S
O541 C524 1.260 . S
O541 Eu525 2.480 . S
O542 Eu525 2.430 . S
O542 C532 1.259 . S
O543 Eu515 2.355 . S
O543 Eu525 2.670 . S
O543 C532 1.270 . S
O544 Eu525 2.394 . S
O544 C533 1.251 . S
O545 Eu515 2.374 . S
O545 C533 1.251 . S
H546 C517 0.931 . S
H547 C518 0.931 . S
H548 C520 0.931 . S
H549 C521 0.931 . S
H550 C527 0.931 . S
H551 C528 0.931 . S
H552 C530 0.931 . S
H553 C531 0.931 . S
C554 Eu555 2.835 . S
C554 C556 1.500 . S
C554 O574 1.257 . S
C554 O575 1.260 . S
Eu555 C554 2.835 . S
Eu555 O574 2.473 . S
Eu555 O575 2.480 . S
Eu555 O576 2.430 . S
Eu555 O577 2.670 . S
Eu555 O578 2.394 . S
Eu555 O583 2.355 . S
Eu555 O585 2.374 . S
C556 C554 1.500 . S
C556 C557 1.377 . S
C556 C561 1.377 . S
C557 C556 1.377 . S
C557 C558 1.395 . S
C557 H586 0.931 . S
C558 C557 1.395 . S
C558 C559 1.383 . S
C558 H587 0.931 . S
C559 C558 1.383 . S
C559 C560 1.394 . S
C560 C559 1.394 . S
C560 C561 1.378 . S
C560 H588 0.931 . S
C561 C556 1.377 . S
C561 C560 1.378 . S
C561 H589 0.931 . S
C562 O576 1.259 . S
C562 O577 1.270 . S
C563 O578 1.251 . S
C563 O579 1.251 . S
C564 Eu565 2.835 . S
C564 C566 1.500 . S
C564 O580 1.257 . S
C564 O581 1.260 . S
Eu565 C564 2.835 . S
Eu565 O577 2.355 . S
Eu565 O579 2.374 . S
Eu565 O580 2.473 . S
Eu565 O581 2.480 . S
Eu565 O582 2.430 . S
Eu565 O583 2.670 . S
Eu565 O584 2.394 . S
C566 C564 1.500 . S
C566 C567 1.377 . S
C566 C571 1.377 . S
C567 C566 1.377 . S
C567 C568 1.395 . S
C567 H590 0.931 . S
C568 C567 1.395 . S
C568 C569 1.383 . S
C568 H591 0.931 . S
C569 C568 1.383 . S
C569 C570 1.394 . S
C570 C569 1.394 . S
C570 C571 1.378 . S
C570 H592 0.931 . S
C571 C566 1.377 . S
C571 C570 1.378 . S
C571 H593 0.931 . S
C572 O582 1.259 . S
C572 O583 1.270 . S
C573 O584 1.251 . S
C573 O585 1.251 . S
O574 C554 1.257 . S
O574 Eu555 2.473 . S
O575 C554 1.260 . S
O575 Eu555 2.480 . S
O576 Eu555 2.430 . S
O576 C562 1.259 . S
O577 Eu555 2.670 . S
O577 C562 1.270 . S
O577 Eu565 2.355 . S
O578 Eu555 2.394 . S
O578 C563 1.251 . S
O579 C563 1.251 . S
O579 Eu565 2.374 . S
O580 C564 1.257 . S
O580 Eu565 2.473 . S
O581 C564 1.260 . S
O581 Eu565 2.480 . S
O582 Eu565 2.430 . S
O582 C572 1.259 . S
O583 Eu555 2.355 . S
O583 Eu565 2.670 . S
O583 C572 1.270 . S
O584 Eu565 2.394 . S
O584 C573 1.251 . S
O585 Eu555 2.374 . S
O585 C573 1.251 . S
H586 C557 0.931 . S
H587 C558 0.931 . S
H588 C560 0.931 . S
H589 C561 0.931 . S
H590 C567 0.931 . S
H591 C568 0.931 . S
H592 C570 0.931 . S
H593 C571 0.931 . S
C594 C595 1.369 . S
C594 C596 1.419 . S
C594 H598 0.930 . S
C595 C594 1.369 . S
C595 C604 1.429 . S
C596 C594 1.419 . S
C596 C597 1.363 . S
C596 H599 0.929 1_554 S
C597 C596 1.363 . S
C597 C603 1.428 . S
H598 C594 0.930 . S
H599 C596 0.929 1_556 S
S600 N601 1.613 . S
S600 N602 1.610 . S
N601 S600 1.613 . S
N601 C604 1.350 . S
N602 S600 1.610 . S
N602 C603 1.351 . S
C603 C597 1.428 . S
C603 N602 1.351 . S
C603 C604 1.434 . S
C604 C595 1.429 . S
C604 N601 1.350 . S
C604 C603 1.434 . S
C605 C606 1.369 . S
C605 C607 1.419 . S
C605 H609 0.930 . S
C606 C605 1.369 . S
C606 C615 1.429 . S
C607 C605 1.419 . S
C607 C608 1.363 . S
C607 H610 0.929 . S
C608 C607 1.363 . S
C608 C614 1.428 . S
H609 C605 0.930 . S
H610 C607 0.929 . S
S611 N612 1.613 1_556 S
S611 N613 1.610 . S
N612 S611 1.613 1_554 S
N612 C615 1.350 . S
N613 S611 1.610 . S
N613 C614 1.351 1_556 S
C614 C608 1.428 . S
C614 N613 1.351 1_554 S
C614 C615 1.434 . S
C615 C606 1.429 . S
C615 N612 1.350 . S
C615 C614 1.434 . S
C616 C617 1.369 . S
C616 C618 1.419 . S
C616 H620 0.930 . S
C617 C616 1.369 . S
C617 C626 1.429 . S
C618 C616 1.419 . S
C618 C619 1.363 . S
C618 H621 0.929 . S
C619 C618 1.363 . S
C619 C625 1.428 . S
H620 C616 0.930 . S
H621 C618 0.929 . S
S622 N623 1.613 . S
S622 N624 1.610 . S
N623 S622 1.613 . S
N623 C626 1.350 . S
N624 S622 1.610 . S
N624 C625 1.351 . S
C625 C619 1.428 . S
C625 N624 1.351 . S
C625 C626 1.434 . S
C626 C617 1.429 . S
C626 N623 1.350 . S
C626 C625 1.434 . S
C627 C628 1.369 . S
C627 C629 1.419 . S
C627 H631 0.930 1_556 S
C628 C627 1.369 . S
C628 C637 1.429 . S
C629 C627 1.419 . S
C629 C630 1.363 . S
C629 H632 0.929 1_556 S
C630 C629 1.363 . S
C630 C636 1.428 . S
H631 C627 0.930 1_554 S
H632 C629 0.929 1_554 S
S633 N634 1.613 . S
S633 N635 1.610 . S
N634 S633 1.613 . S
N634 C637 1.350 . S
N635 S633 1.610 . S
N635 C636 1.351 . S
C636 C630 1.428 . S
C636 N635 1.351 . S
C636 C637 1.434 . S
C637 C628 1.429 . S
C637 N634 1.350 . S
C637 C636 1.434 . S
C638 C639 1.369 . S
C638 C640 1.419 . S
C638 H642 0.930 . S
C639 C638 1.369 . S
C639 C648 1.429 . S
C640 C638 1.419 . S
C640 C641 1.363 . S
C640 H643 0.929 . S
C641 C640 1.363 . S
C641 C647 1.428 . S
H642 C638 0.930 . S
H643 C640 0.929 . S
S644 N645 1.613 1_554 S
S644 N646 1.610 . S
N645 S644 1.613 1_556 S
N645 C648 1.350 . S
N646 S644 1.610 . S
N646 C647 1.351 1_554 S
C647 C641 1.428 . S
C647 N646 1.351 1_556 S
C647 C648 1.434 . S
C648 C639 1.429 . S
C648 N645 1.350 . S
C648 C647 1.434 . S
C649 C650 1.404 . S
C649 C651 1.408 1_556 S
C649 H653 0.906 1_556 S
C650 C649 1.404 . S
C650 C659 1.429 . S
C651 C649 1.408 1_554 S
C651 C652 1.363 1_554 S
C651 H654 0.929 . S
C652 C651 1.363 1_556 S
C652 C658 1.428 . S
H653 C649 0.906 1_554 S
H654 C651 0.929 . S
S655 N656 1.613 . S
S655 N657 1.610 . S
N656 S655 1.613 . S
N656 C659 1.350 . S
N657 S655 1.610 . S
N657 C658 1.351 . S
C658 C652 1.428 . S
C658 N657 1.351 . S
C658 C659 1.434 . S
C659 C650 1.429 . S
C659 N656 1.350 . S
C659 C658 1.434 . S
C660 C661 1.369 . S
C660 C662 1.418 1_556 S
C660 H664 0.930 1_556 S
C661 C660 1.369 . S
C661 C670 1.429 . S
C662 C660 1.418 1_554 S
C662 C663 1.361 1_554 S
C662 H665 0.933 . S
C663 C662 1.361 1_556 S
C663 C669 1.428 . S
H664 C660 0.930 1_554 S
H665 C662 0.933 . S
S666 N667 1.613 . S
S666 N668 1.610 . S
N667 S666 1.613 . S
N667 C670 1.350 . S
N668 S666 1.610 . S
N668 C669 1.351 . S
C669 C663 1.428 . S
C669 N668 1.351 . S
C669 C670 1.434 . S
C670 C661 1.429 . S
C670 N667 1.350 . S
C670 C669 1.434 . S
C671 C672 1.369 . S
C671 C673 1.419 . S
C671 H675 0.930 . S
C672 C671 1.369 . S
C672 C681 1.429 . S
C673 C671 1.419 . S
C673 C674 1.363 . S
C673 H676 0.929 . S
C674 C673 1.363 . S
C674 C680 1.428 . S
H675 C671 0.930 . S
H676 C673 0.929 . S
S677 N678 1.613 1_554 S
S677 N679 1.610 1_554 S
N678 S677 1.613 1_556 S
N678 C681 1.350 . S
N679 S677 1.610 1_556 S
N679 C680 1.351 . S
C680 C674 1.428 . S
C680 N679 1.351 . S
C680 C681 1.434 . S
C681 C672 1.429 . S
C681 N678 1.350 . S
C681 C680 1.434 . S
C682 C683 1.369 . S
C682 C684 1.419 . S
C682 H686 0.930 . S
C683 C682 1.369 . S
C683 C692 1.429 1_556 S
C684 C682 1.419 . S
C684 C685 1.363 . S
C684 H687 0.929 . S
C685 C684 1.363 . S
C685 C691 1.428 1_556 S
H686 C682 0.930 . S
H687 C684 0.929 . S
S688 N689 1.613 . S
S688 N690 1.610 . S
N689 S688 1.613 . S
N689 C692 1.350 . S
N690 S688 1.610 . S
N690 C691 1.351 . S
C691 C685 1.428 1_554 S
C691 N690 1.351 . S
C691 C692 1.434 . S
C692 C683 1.429 1_554 S
C692 N689 1.350 . S
C692 C691 1.434 . S
C693 C694 1.369 . S
C693 C695 1.419 . S
C693 H697 0.930 . S
C694 C693 1.369 . S
C694 C703 1.428 . S
C695 C693 1.419 . S
C695 C696 1.363 . S
C695 H698 0.929 . S
C696 C695 1.363 . S
C696 C702 1.428 1_554 S
H697 C693 0.930 . S
H698 C695 0.929 . S
S699 N700 1.613 . S
S699 N701 1.610 . S
N700 S699 1.613 . S
N700 C703 1.351 1_556 S
N701 S699 1.610 . S
N701 C702 1.351 . S
C702 C696 1.428 1_556 S
C702 N701 1.351 . S
C702 C703 1.434 1_556 S
C703 C694 1.428 . S
C703 N700 1.351 1_554 S
C703 C702 1.434 1_554 S
C704 C705 1.369 . S
C704 C706 1.419 . S
C704 H708 0.930 . S
C705 C704 1.369 . S
C705 C714 1.429 . S
C706 C704 1.419 . S
C706 C707 1.363 . S
C706 H709 0.929 . S
C707 C706 1.363 . S
C707 C713 1.428 . S
H708 C704 0.930 . S
H709 C706 0.929 . S
S710 N711 1.613 . S
S710 N712 1.610 . S
N711 S710 1.613 . S
N711 C714 1.350 . S
N712 S710 1.610 . S
N712 C713 1.351 . S
C713 C707 1.428 . S
C713 N712 1.351 . S
C713 C714 1.434 . S
C714 C705 1.429 . S
C714 N711 1.350 . S
C714 C713 1.434 . S
C715 C716 1.369 . S
C715 C717 1.419 1_554 S
C715 H719 0.930 1_554 S
C716 C715 1.369 . S
C716 C725 1.429 . S
C717 C715 1.419 1_556 S
C717 C718 1.363 1_556 S
C717 H720 0.929 . S
C718 C717 1.363 1_554 S
C718 C724 1.428 . S
H719 C715 0.930 1_556 S
H720 C717 0.929 . S
S721 N722 1.613 . S
S721 N723 1.610 . S
N722 S721 1.613 . S
N722 C725 1.350 . S
N723 S721 1.610 . S
N723 C724 1.351 . S
C724 C718 1.428 . S
C724 N723 1.351 . S
C724 C725 1.434 . S
C725 C716 1.429 . S
C725 N722 1.350 . S
C725 C724 1.434 . S
C726 C727 1.369 . S
C726 C728 1.419 1_655 S
C726 H730 0.930 . S
C727 C726 1.369 . S
C727 C736 1.429 . S
C728 C726 1.419 1_455 S
C728 C729 1.363 . S
C728 H731 0.929 . S
C729 C728 1.363 . S
C729 C735 1.428 1_455 S
H730 C726 0.930 . S
H731 C728 0.929 . S
S732 N733 1.613 . S
S732 N734 1.610 1_655 S
N733 S732 1.613 . S
N733 C736 1.350 . S
N734 S732 1.610 1_455 S
N734 C735 1.351 1_455 S
C735 C729 1.428 1_655 S
C735 N734 1.351 1_655 S
C735 C736 1.434 . S
C736 C727 1.429 . S
C736 N733 1.350 . S
C736 C735 1.434 . S
C737 C738 1.369 . S
C737 C739 1.419 . S
C737 H741 0.930 . S
C738 C737 1.369 . S
C738 C747 1.429 . S
C739 C737 1.419 . S
C739 C740 1.363 . S
C739 H742 0.929 . S
C740 C739 1.363 . S
C740 C746 1.428 . S
H741 C737 0.930 . S
H742 C739 0.929 . S
S743 N744 1.613 . S
S743 N745 1.610 . S
N744 S743 1.613 . S
N744 C747 1.350 . S
N745 S743 1.610 . S
N745 C746 1.351 . S
C746 C740 1.428 . S
C746 N745 1.351 . S
C746 C747 1.434 . S
C747 C738 1.429 . S
C747 N744 1.350 . S
C747 C746 1.434 . S
C748 C749 1.369 . S
C748 C750 1.419 . S
C748 H752 0.930 . S
C749 C748 1.369 . S
C749 C758 1.429 . S
C750 C748 1.419 . S
C750 C751 1.363 1_545 S
C750 H753 0.929 1_545 S
C751 C750 1.363 1_565 S
C751 C757 1.428 1_565 S
H752 C748 0.930 . S
H753 C750 0.929 1_565 S
S754 N755 1.613 . S
S754 N756 1.593 1_545 S
N755 S754 1.613 . S
N755 C758 1.350 . S
N756 S754 1.593 1_565 S
N756 C757 1.334 1_565 S
C757 C751 1.428 1_545 S
C757 N756 1.334 1_545 S
C757 C758 1.434 . S
C758 C749 1.429 . S
C758 N755 1.350 . S
C758 C757 1.434 . S
C759 C760 1.369 . S
C759 C761 1.419 . S
C759 H763 0.930 . S
C760 C759 1.369 . S
C760 C769 1.429 . S
C761 C759 1.419 . S
C761 C762 1.363 . S
C761 H764 0.929 . S
C762 C761 1.363 . S
C762 C768 1.428 . S
H763 C759 0.930 . S
H764 C761 0.929 . S
S765 N766 1.613 . S
S765 N767 1.610 . S
N766 S765 1.613 . S
N766 C769 1.350 . S
N767 S765 1.610 . S
N767 C768 1.351 . S
C768 C762 1.428 . S
C768 N767 1.351 . S
C768 C769 1.434 . S
C769 C760 1.429 . S
C769 N766 1.350 . S
C769 C768 1.434 . S
C770 C771 1.369 . S
C770 C772 1.419 . S
C770 H774 0.930 . S
C771 C770 1.369 . S
C771 C780 1.429 . S
C772 C770 1.419 . S
C772 C773 1.363 . S
C772 H775 0.929 . S
C773 C772 1.363 . S
C773 C779 1.428 . S
H774 C770 0.930 . S
H775 C772 0.929 . S
S776 N777 1.613 1_545 S
S776 N778 1.610 1_545 S
N777 S776 1.613 1_565 S
N777 C780 1.350 . S
N778 S776 1.610 1_565 S
N778 C779 1.351 . S
C779 C773 1.428 . S
C779 N778 1.351 . S
C779 C780 1.434 . S
C780 C771 1.429 . S
C780 N777 1.350 . S
C780 C779 1.434 . S
C781 C782 1.369 . S
C781 C783 1.419 . S
C781 H785 0.930 . S
C782 C781 1.369 . S
C782 C791 1.429 . S
C783 C781 1.419 . S
C783 C784 1.363 . S
C783 H786 0.929 . S
C784 C783 1.363 . S
C784 C790 1.428 . S
H785 C781 0.930 . S
H786 C783 0.929 . S
S787 N788 1.613 . S
S787 N789 1.610 . S
N788 S787 1.613 . S
N788 C791 1.350 . S
N789 S787 1.610 . S
N789 C790 1.351 . S
C790 C784 1.428 . S
C790 N789 1.351 . S
C790 C791 1.434 . S
C791 C782 1.429 . S
C791 N788 1.350 . S
C791 C790 1.434 . S
C792 C793 1.369 . S
C792 C794 1.419 . S
C792 H796 0.930 . S
C793 C792 1.369 . S
C793 C802 1.429 . S
C794 C792 1.419 . S
C794 C795 1.363 . S
C794 H797 0.929 . S
C795 C794 1.363 . S
C795 C801 1.428 . S
H796 C792 0.930 . S
H797 C794 0.929 . S
S798 N799 1.613 . S
S798 N800 1.610 . S
N799 S798 1.613 . S
N799 C802 1.350 . S
N800 S798 1.610 . S
N800 C801 1.351 . S
C801 C795 1.428 . S
C801 N800 1.351 . S
C801 C802 1.434 . S
C802 C793 1.429 . S
C802 N799 1.350 . S
C802 C801 1.434 . S
C803 C804 1.369 . S
C803 C805 1.419 . S
C803 H807 0.930 . S
C804 C803 1.369 . S
C804 C813 1.429 . S
C805 C803 1.419 . S
C805 C806 1.363 . S
C805 H808 0.929 . S
C806 C805 1.363 . S
C806 C812 1.428 . S
H807 C803 0.930 . S
H808 C805 0.929 . S
S809 N810 1.613 . S
S809 N811 1.610 . S
N810 S809 1.613 . S
N810 C813 1.350 . S
N811 S809 1.610 . S
N811 C812 1.351 . S
C812 C806 1.428 . S
C812 N811 1.351 . S
C812 C813 1.434 . S
C813 C804 1.429 . S
C813 N810 1.350 . S
C813 C812 1.434 . S
C814 C815 1.369 . S
C814 C816 1.419 . S
C814 H818 0.930 . S
C815 C814 1.369 . S
C815 C824 1.429 . S
C816 C814 1.419 . S
C816 C817 1.363 . S
C816 H819 0.929 . S
C817 C816 1.363 . S
C817 C823 1.428 . S
H818 C814 0.930 . S
H819 C816 0.929 . S
S820 N821 1.613 . S
S820 N822 1.610 . S
N821 S820 1.613 . S
N821 C824 1.350 . S
N822 S820 1.610 . S
N822 C823 1.351 . S
C823 C817 1.428 . S
C823 N822 1.351 . S
C823 C824 1.434 . S
C824 C815 1.429 . S
C824 N821 1.350 . S
C824 C823 1.434 . S
C825 C826 1.369 1_565 S
C825 C827 1.419 . S
C825 H829 0.930 . S
C826 C825 1.369 1_545 S
C826 C835 1.429 1_545 S
C827 C825 1.419 . S
C827 C828 1.363 . S
C827 H830 0.929 . S
C828 C827 1.363 . S
C828 C834 1.428 . S
H829 C825 0.930 . S
H830 C827 0.929 . S
S831 N832 1.633 . S
S831 N833 1.610 . S
N832 S831 1.633 . S
N832 C835 1.349 . S
N833 S831 1.610 . S
N833 C834 1.351 . S
C834 C828 1.428 . S
C834 N833 1.351 . S
C834 C835 1.434 . S
C835 C826 1.429 1_565 S
C835 N832 1.349 . S
C835 C834 1.434 . S
C836 C837 1.369 . S
C836 C838 1.419 . S
C836 H840 0.930 . S
C837 C836 1.369 . S
C837 C846 1.429 . S
C838 C836 1.419 . S
C838 C839 1.363 . S
C838 H841 0.929 . S
C839 C838 1.363 . S
C839 C845 1.428 . S
H840 C836 0.930 . S
H841 C838 0.929 . S
S842 N843 1.613 . S
S842 N844 1.610 . S
N843 S842 1.613 . S
N843 C846 1.350 . S
N844 S842 1.610 . S
N844 C845 1.351 . S
C845 C839 1.428 . S
C845 N844 1.351 . S
C845 C846 1.434 . S
C846 C837 1.429 . S
C846 N843 1.350 . S
C846 C845 1.434 . S
C847 C848 1.369 . S
C847 C849 1.419 . S
C847 H851 0.930 . S
C848 C847 1.369 . S
C848 C857 1.429 . S
C849 C847 1.419 . S
C849 C850 1.363 . S
C849 H852 0.929 . S
C850 C849 1.363 . S
C850 C856 1.428 . S
H851 C847 0.930 . S
H852 C849 0.929 . S
S853 N854 1.613 . S
S853 N855 1.610 . S
N854 S853 1.613 . S
N854 C857 1.350 . S
N855 S853 1.610 . S
N855 C856 1.351 . S
C856 C850 1.428 . S
C856 N855 1.351 . S
C856 C857 1.434 . S
C857 C848 1.429 . S
C857 N854 1.350 . S
C857 C856 1.434 . S
C858 C859 1.369 . S
C858 C860 1.419 . S
C858 H862 0.930 . S
C859 C858 1.369 . S
C859 C868 1.429 . S
C860 C858 1.419 . S
C860 C861 1.363 . S
C860 H863 0.929 . S
C861 C860 1.363 . S
C861 C867 1.428 . S
H862 C858 0.930 . S
H863 C860 0.929 . S
S864 N865 1.613 . S
S864 N866 1.610 . S
N865 S864 1.613 . S
N865 C868 1.350 . S
N866 S864 1.610 . S
N866 C867 1.351 . S
C867 C861 1.428 . S
C867 N866 1.351 . S
C867 C868 1.434 . S
C868 C859 1.429 . S
C868 N865 1.350 . S
C868 C867 1.434 . S
C869 C870 1.369 . S
C869 C871 1.419 . S
C869 H873 0.930 . S
C870 C869 1.369 . S
C870 C879 1.429 . S
C871 C869 1.419 . S
C871 C872 1.363 . S
C871 H874 0.929 . S
C872 C871 1.363 . S
C872 C878 1.428 . S
H873 C869 0.930 . S
H874 C871 0.929 . S
S875 N876 1.613 . S
S875 N877 1.610 . S
N876 S875 1.613 . S
N876 C879 1.350 . S
N877 S875 1.610 . S
N877 C878 1.351 . S
C878 C872 1.428 . S
C878 N877 1.351 . S
C878 C879 1.434 . S
C879 C870 1.429 . S
C879 N876 1.350 . S
C879 C878 1.434 . S
C880 C881 1.369 . S
C880 C882 1.419 . S
C880 H884 0.930 . S
C881 C880 1.369 . S
C881 C890 1.429 . S
C882 C880 1.419 . S
C882 C883 1.363 . S
C882 H885 0.929 . S
C883 C882 1.363 . S
C883 C889 1.428 . S
H884 C880 0.930 . S
H885 C882 0.929 . S
S886 N887 1.613 . S
S886 N888 1.610 . S
N887 S886 1.613 . S
N887 C890 1.350 . S
N888 S886 1.610 . S
N888 C889 1.351 . S
C889 C883 1.428 . S
C889 N888 1.351 . S
C889 C890 1.434 . S
C890 C881 1.429 . S
C890 N887 1.350 . S
C890 C889 1.434 . S
C891 C892 1.369 . S
C891 C893 1.419 1_565 S
C891 H895 0.930 . S
C892 C891 1.369 . S
C892 C901 1.429 . S
C893 C891 1.419 1_545 S
C893 C894 1.363 . S
C893 H896 0.929 . S
C894 C893 1.363 . S
C894 C900 1.428 . S
H895 C891 0.930 . S
H896 C893 0.929 . S
S897 N898 1.613 . S
S897 N899 1.610 1_565 S
N898 S897 1.613 . S
N898 C901 1.350 . S
N899 S897 1.610 1_545 S
N899 C900 1.351 . S
C900 C894 1.428 . S
C900 N899 1.351 . S
C900 C901 1.434 1_545 S
C901 C892 1.429 . S
C901 N898 1.350 . S
C901 C900 1.434 1_565 S
C902 C903 1.369 . S
C902 C904 1.419 1_455 S
C902 H906 0.930 . S
C903 C902 1.369 . S
C903 C912 1.429 . S
C904 C902 1.419 1_655 S
C904 C905 1.363 . S
C904 H907 0.929 . S
C905 C904 1.363 . S
C905 C911 1.428 1_655 S
H906 C902 0.930 . S
H907 C904 0.929 . S
S908 N909 1.613 . S
S908 N910 1.610 . S
N909 S908 1.613 . S
N909 C912 1.350 . S
N910 S908 1.610 . S
N910 C911 1.351 . S
C911 C905 1.428 1_455 S
C911 N910 1.351 . S
C911 C912 1.434 . S
C912 C903 1.429 . S
C912 N909 1.350 . S
C912 C911 1.434 . S
C913 C914 1.369 . S
C913 C915 1.419 . S
C913 H917 0.930 . S
C914 C913 1.369 . S
C914 C923 1.429 . S
C915 C913 1.419 . S
C915 C916 1.363 . S
C915 H918 0.929 . S
C916 C915 1.363 . S
C916 C922 1.428 . S
H917 C913 0.930 . S
H918 C915 0.929 . S
S919 N920 1.613 . S
S919 N921 1.610 . S
N920 S919 1.613 . S
N920 C923 1.350 . S
N921 S919 1.610 . S
N921 C922 1.351 . S
C922 C916 1.428 . S
C922 N921 1.351 . S
C922 C923 1.434 . S
C923 C914 1.429 . S
C923 N920 1.350 . S
C923 C922 1.434 . S
C924 C925 1.356 1_655 S
C924 C926 1.419 . S
C924 H928 0.930 . S
C925 C924 1.356 1_455 S
C925 C934 1.427 1_455 S
C926 C924 1.419 . S
C926 C927 1.363 . S
C926 H929 0.929 . S
C927 C926 1.363 . S
C927 C933 1.428 . S
H928 C924 0.930 . S
H929 C926 0.929 . S
S930 N931 1.613 . S
S930 N932 1.610 . S
N931 S930 1.613 . S
N931 C934 1.350 . S
N932 S930 1.610 . S
N932 C933 1.351 . S
C933 C927 1.428 . S
C933 N932 1.351 . S
C933 C934 1.434 . S
C934 C925 1.427 1_655 S
C934 N931 1.350 . S
C934 C933 1.434 . S
C935 C936 1.369 . S
C935 C937 1.419 . S
C935 H939 0.930 . S
C936 C935 1.369 . S
C936 C945 1.429 . S
C937 C935 1.419 . S
C937 C938 1.363 . S
C937 H940 0.929 . S
C938 C937 1.363 . S
C938 C944 1.428 . S
H939 C935 0.930 . S
H940 C937 0.929 . S
S941 N942 1.613 . S
S941 N943 1.610 . S
N942 S941 1.613 . S
N942 C945 1.350 . S
N943 S941 1.610 . S
N943 C944 1.351 . S
C944 C938 1.428 . S
C944 N943 1.351 . S
C944 C945 1.434 . S
C945 C936 1.429 . S
C945 N942 1.350 . S
C945 C944 1.434 . S
C946 C947 1.369 . S
C946 C948 1.419 . S
C946 H950 0.930 . S
C947 C946 1.369 . S
C947 C956 1.429 . S
C948 C946 1.419 . S
C948 C949 1.363 . S
C948 H951 0.929 . S
C949 C948 1.363 . S
C949 C955 1.428 . S
H950 C946 0.930 . S
H951 C948 0.929 . S
S952 N953 1.613 . S
S952 N954 1.610 . S
N953 S952 1.613 . S
N953 C956 1.350 . S
N954 S952 1.610 . S
N954 C955 1.351 . S
C955 C949 1.428 . S
C955 N954 1.351 . S
C955 C956 1.434 . S
C956 C947 1.429 . S
C956 N953 1.350 . S
C956 C955 1.434 . S
C957 C958 1.369 . S
C957 C959 1.419 . S
C957 H961 0.930 . S
C958 C957 1.369 . S
C958 C967 1.429 . S
C959 C957 1.419 . S
C959 C960 1.363 . S
C959 H962 0.929 . S
C960 C959 1.363 . S
C960 C966 1.428 . S
H961 C957 0.930 . S
H962 C959 0.929 . S
S963 N964 1.613 . S
S963 N965 1.610 . S
N964 S963 1.613 . S
N964 C967 1.350 . S
N965 S963 1.610 . S
N965 C966 1.351 . S
C966 C960 1.428 . S
C966 N965 1.351 . S
C966 C967 1.434 . S
C967 C958 1.429 . S
C967 N964 1.350 . S
C967 C966 1.434 . S
C968 C969 1.369 . S
C968 C970 1.419 . S
C968 H972 0.930 . S
C969 C968 1.369 . S
C969 C978 1.429 . S
C970 C968 1.419 . S
C970 C971 1.363 . S
C970 H973 0.929 . S
C971 C970 1.363 . S
C971 C977 1.428 . S
H972 C968 0.930 . S
H973 C970 0.929 . S
S974 N975 1.613 . S
S974 N976 1.610 . S
N975 S974 1.613 . S
N975 C978 1.350 . S
N976 S974 1.610 . S
N976 C977 1.351 . S
C977 C971 1.428 . S
C977 N976 1.351 . S
C977 C978 1.434 . S
C978 C969 1.429 . S
C978 N975 1.350 . S
C978 C977 1.434 . S
C979 C980 1.369 . S
C979 C981 1.419 . S
C979 H983 0.930 . S
C980 C979 1.369 . S
C980 C989 1.429 . S
C981 C979 1.419 . S
C981 C982 1.363 . S
C981 H984 0.929 . S
C982 C981 1.363 . S
C982 C988 1.428 . S
H983 C979 0.930 . S
H984 C981 0.929 . S
S985 N986 1.613 . S
S985 N987 1.610 . S
N986 S985 1.613 . S
N986 C989 1.350 . S
N987 S985 1.610 . S
N987 C988 1.351 . S
C988 C982 1.428 . S
C988 N987 1.351 . S
C988 C989 1.434 . S
C989 C980 1.429 . S
C989 N986 1.350 . S
C989 C988 1.434 . S
C990 C991 1.369 . S
C990 C992 1.419 . S
C990 H994 0.930 . S
C991 C990 1.369 . S
C991 C1000 1.429 . S
C992 C990 1.419 . S
C992 C993 1.363 . S
C992 H995 0.929 1_565 S
C993 C992 1.363 . S
C993 C999 1.428 . S
H994 C990 0.930 . S
H995 C992 0.929 1_545 S
S996 N997 1.613 . S
S996 N998 1.610 . S
N997 S996 1.613 . S
N997 C1000 1.350 . S
N998 S996 1.610 . S
N998 C999 1.351 . S
C999 C993 1.428 . S
C999 N998 1.351 . S
C999 C1000 1.434 . S
C1000 C991 1.429 . S
C1000 N997 1.350 . S
C1000 C999 1.434 . S
C1001 C1002 1.369 . S
C1001 C1003 1.419 . S
C1001 H1005 0.930 . S
C1002 C1001 1.369 . S
C1002 C1011 1.429 . S
C1003 C1001 1.419 . S
C1003 C1004 1.363 . S
C1003 H1006 0.929 . S
C1004 C1003 1.363 . S
C1004 C1010 1.428 . S
H1005 C1001 0.930 . S
H1006 C1003 0.929 . S
S1007 N1008 1.613 1_655 S
S1007 N1009 1.606 1_655 S
N1008 S1007 1.613 1_455 S
N1008 C1011 1.350 . S
N1009 S1007 1.606 1_455 S
N1009 C1010 1.353 . S
C1010 C1004 1.428 . S
C1010 N1009 1.353 . S
C1010 C1011 1.434 . S
C1011 C1002 1.429 . S
C1011 N1008 1.350 . S
C1011 C1010 1.434 . S
C1012 C1013 1.369 . S
C1012 C1014 1.419 . S
C1012 H1016 0.930 . S
C1013 C1012 1.369 . S
C1013 C1022 1.429 . S
C1014 C1012 1.419 . S
C1014 C1015 1.363 . S
C1014 H1017 0.929 . S
C1015 C1014 1.363 . S
C1015 C1021 1.428 . S
H1016 C1012 0.930 . S
H1017 C1014 0.929 . S
S1018 N1019 1.613 . S
S1018 N1020 1.610 . S
N1019 S1018 1.613 . S
N1019 C1022 1.350 . S
N1020 S1018 1.610 . S
N1020 C1021 1.351 . S
C1021 C1015 1.428 . S
C1021 N1020 1.351 . S
C1021 C1022 1.434 . S
C1022 C1013 1.429 . S
C1022 N1019 1.350 . S
C1022 C1021 1.434 . S
C1023 C1024 1.369 . S
C1023 C1025 1.419 . S
C1023 H1027 0.930 . S
C1024 C1023 1.369 . S
C1024 C1033 1.429 . S
C1025 C1023 1.419 . S
C1025 C1026 1.363 . S
C1025 H1028 0.929 . S
C1026 C1025 1.363 . S
C1026 C1032 1.428 . S
H1027 C1023 0.930 . S
H1028 C1025 0.929 . S
S1029 N1030 1.613 1_455 S
S1029 N1031 1.610 1_455 S
N1030 S1029 1.613 1_655 S
N1030 C1033 1.350 . S
N1031 S1029 1.610 1_655 S
N1031 C1032 1.351 . S
C1032 C1026 1.428 . S
C1032 N1031 1.351 . S
C1032 C1033 1.434 . S
C1033 C1024 1.429 . S
C1033 N1030 1.350 . S
C1033 C1032 1.434 . S
C1034 C1035 1.369 . S
C1034 C1036 1.419 . S
C1034 H1038 0.930 . S
C1035 C1034 1.369 . S
C1035 C1044 1.429 . S
C1036 C1034 1.419 . S
C1036 C1037 1.363 . S
C1036 H1039 0.929 . S
C1037 C1036 1.363 . S
C1037 C1043 1.428 . S
H1038 C1034 0.930 . S
H1039 C1036 0.929 . S
S1040 N1041 1.613 . S
S1040 N1042 1.610 . S
N1041 S1040 1.613 . S
N1041 C1044 1.350 . S
N1042 S1040 1.610 . S
N1042 C1043 1.351 . S
C1043 C1037 1.428 . S
C1043 N1042 1.351 . S
C1043 C1044 1.434 . S
C1044 C1035 1.429 . S
C1044 N1041 1.350 . S
C1044 C1043 1.434 . S
C1045 C1046 1.369 . S
C1045 C1047 1.419 . S
C1045 H1049 0.930 . S
C1046 C1045 1.369 . S
C1046 C1055 1.429 . S
C1047 C1045 1.419 . S
C1047 C1048 1.363 . S
C1047 H1050 0.929 . S
C1048 C1047 1.363 . S
C1048 C1054 1.428 . S
H1049 C1045 0.930 . S
H1050 C1047 0.929 . S
S1051 N1052 1.613 1_565 S
S1051 N1053 1.610 1_565 S
N1052 S1051 1.613 1_545 S
N1052 C1055 1.350 . S
N1053 S1051 1.610 1_545 S
N1053 C1054 1.351 . S
C1054 C1048 1.428 . S
C1054 N1053 1.351 . S
C1054 C1055 1.434 . S
C1055 C1046 1.429 . S
C1055 N1052 1.350 . S
C1055 C1054 1.434 . S
C1056 C1057 1.369 . S
C1056 C1058 1.419 . S
C1056 H1060 0.930 . S
C1057 C1056 1.369 . S
C1057 C1066 1.429 . S
C1058 C1056 1.419 . S
C1058 C1059 1.363 . S
C1058 H1061 0.929 . S
C1059 C1058 1.363 . S
C1059 C1065 1.428 . S
H1060 C1056 0.930 . S
H1061 C1058 0.929 . S
S1062 N1063 1.613 . S
S1062 N1064 1.610 . S
N1063 S1062 1.613 . S
N1063 C1066 1.350 . S
N1064 S1062 1.610 . S
N1064 C1065 1.351 . S
C1065 C1059 1.428 . S
C1065 N1064 1.351 . S
C1065 C1066 1.434 . S
C1066 C1057 1.429 . S
C1066 N1063 1.350 . S
C1066 C1065 1.434 . S
C1067 C1068 1.369 . S
C1067 C1069 1.419 . S
C1067 H1071 0.930 . S
C1068 C1067 1.369 . S
C1068 C1077 1.429 . S
C1069 C1067 1.419 . S
C1069 C1070 1.363 . S
C1069 H1072 0.929 . S
C1070 C1069 1.363 . S
C1070 C1076 1.428 . S
H1071 C1067 0.930 . S
H1072 C1069 0.929 . S
S1073 N1074 1.613 . S
S1073 N1075 1.610 . S
N1074 S1073 1.613 . S
N1074 C1077 1.350 . S
N1075 S1073 1.610 . S
N1075 C1076 1.351 . S
C1076 C1070 1.428 . S
C1076 N1075 1.351 . S
C1076 C1077 1.434 . S
C1077 C1068 1.429 . S
C1077 N1074 1.350 . S
C1077 C1076 1.434 . S
C1078 C1079 1.369 . S
C1078 C1080 1.419 . S
C1078 H1082 0.930 . S
C1079 C1078 1.369 . S
C1079 C1088 1.429 . S
C1080 C1078 1.419 . S
C1080 C1081 1.363 . S
C1080 H1083 0.929 . S
C1081 C1080 1.363 . S
C1081 C1087 1.428 . S
H1082 C1078 0.930 . S
H1083 C1080 0.929 . S
S1084 N1085 1.613 . S
S1084 N1086 1.610 . S
N1085 S1084 1.613 . S
N1085 C1088 1.350 . S
N1086 S1084 1.610 . S
N1086 C1087 1.351 . S
C1087 C1081 1.428 . S
C1087 N1086 1.351 . S
C1087 C1088 1.434 . S
C1088 C1079 1.429 . S
C1088 N1085 1.350 . S
C1088 C1087 1.434 . S
C1089 C1090 1.369 . S
C1089 C1091 1.419 . S
C1089 H1093 0.930 . S
C1090 C1089 1.369 . S
C1090 C1099 1.429 . S
C1091 C1089 1.419 . S
C1091 C1092 1.363 . S
C1091 H1094 0.929 . S
C1092 C1091 1.363 . S
C1092 C1098 1.428 . S
H1093 C1089 0.930 . S
H1094 C1091 0.929 . S
S1095 N1096 1.613 . S
S1095 N1097 1.610 . S
N1096 S1095 1.613 . S
N1096 C1099 1.350 . S
N1097 S1095 1.610 . S
N1097 C1098 1.351 . S
C1098 C1092 1.428 . S
C1098 N1097 1.351 . S
C1098 C1099 1.434 . S
C1099 C1090 1.429 . S
C1099 N1096 1.350 . S
C1099 C1098 1.434 . S
C1100 C1101 1.369 . S
C1100 C1102 1.419 . S
C1100 H1104 0.930 . S
C1101 C1100 1.369 . S
C1101 C1110 1.429 . S
C1102 C1100 1.419 . S
C1102 C1103 1.363 . S
C1102 H1105 0.929 . S
C1103 C1102 1.363 . S
C1103 C1109 1.428 . S
H1104 C1100 0.930 . S
H1105 C1102 0.929 . S
S1106 N1107 1.613 . S
S1106 N1108 1.610 . S
N1107 S1106 1.613 . S
N1107 C1110 1.350 . S
N1108 S1106 1.610 . S
N1108 C1109 1.351 . S
C1109 C1103 1.428 . S
C1109 N1108 1.351 . S
C1109 C1110 1.434 . S
C1110 C1101 1.429 . S
C1110 N1107 1.350 . S
C1110 C1109 1.434 . S
C1111 C1112 1.369 . S
C1111 C1113 1.419 . S
C1111 H1115 0.930 . S
C1112 C1111 1.369 . S
C1112 C1121 1.429 . S
C1113 C1111 1.419 . S
C1113 C1114 1.363 . S
C1113 H1116 0.929 . S
C1114 C1113 1.363 . S
C1114 C1120 1.428 . S
H1115 C1111 0.930 . S
H1116 C1113 0.929 . S
S1117 N1118 1.613 . S
S1117 N1119 1.610 . S
N1118 S1117 1.613 . S
N1118 C1121 1.350 . S
N1119 S1117 1.610 . S
N1119 C1120 1.351 . S
C1120 C1114 1.428 . S
C1120 N1119 1.351 . S
C1120 C1121 1.434 . S
C1121 C1112 1.429 . S
C1121 N1118 1.350 . S
C1121 C1120 1.434 . S
C1122 C1123 1.369 . S
C1122 C1124 1.419 . S
C1122 H1126 0.930 . S
C1123 C1122 1.369 . S
C1123 C1132 1.429 . S
C1124 C1122 1.419 . S
C1124 C1125 1.363 . S
C1124 H1127 0.929 . S
C1125 C1124 1.363 . S
C1125 C1131 1.428 . S
H1126 C1122 0.930 . S
H1127 C1124 0.929 . S
S1128 N1129 1.613 . S
S1128 N1130 1.610 . S
N1129 S1128 1.613 . S
N1129 C1132 1.350 . S
N1130 S1128 1.610 . S
N1130 C1131 1.351 . S
C1131 C1125 1.428 . S
C1131 N1130 1.351 . S
C1131 C1132 1.434 . S
C1132 C1123 1.429 . S
C1132 N1129 1.350 . S
C1132 C1131 1.434 . S
C1133 C1134 1.369 . S
C1133 C1135 1.419 . S
C1133 H1137 0.930 . S
C1134 C1133 1.369 . S
C1134 C1143 1.429 . S
C1135 C1133 1.419 . S
C1135 C1136 1.363 . S
C1135 H1138 0.929 . S
C1136 C1135 1.363 . S
C1136 C1142 1.428 . S
H1137 C1133 0.930 . S
H1138 C1135 0.929 . S
S1139 N1140 1.613 . S
S1139 N1141 1.610 . S
N1140 S1139 1.613 . S
N1140 C1143 1.350 . S
N1141 S1139 1.610 . S
N1141 C1142 1.351 . S
C1142 C1136 1.428 . S
C1142 N1141 1.351 . S
C1142 C1143 1.434 . S
C1143 C1134 1.429 . S
C1143 N1140 1.350 . S
C1143 C1142 1.434 . S
C1144 C1145 1.369 . S
C1144 C1146 1.419 . S
C1144 H1148 0.930 . S
C1145 C1144 1.369 . S
C1145 C1154 1.429 . S
C1146 C1144 1.419 . S
C1146 C1147 1.363 . S
C1146 H1149 0.929 . S
C1147 C1146 1.363 . S
C1147 C1153 1.428 . S
H1148 C1144 0.930 . S
H1149 C1146 0.929 . S
S1150 N1151 1.613 . S
S1150 N1152 1.610 . S
N1151 S1150 1.613 . S
N1151 C1154 1.350 . S
N1152 S1150 1.610 . S
N1152 C1153 1.351 . S
C1153 C1147 1.428 . S
C1153 N1152 1.351 . S
C1153 C1154 1.434 . S
C1154 C1145 1.429 . S
C1154 N1151 1.350 . S
C1154 C1153 1.434 . S
C1155 C1156 1.369 . S
C1155 C1157 1.419 . S
C1155 H1159 0.930 . S
C1156 C1155 1.369 . S
C1156 C1165 1.429 . S
C1157 C1155 1.419 . S
C1157 C1158 1.363 . S
C1157 H1160 0.929 . S
C1158 C1157 1.363 . S
C1158 C1164 1.428 . S
H1159 C1155 0.930 . S
H1160 C1157 0.929 . S
S1161 N1162 1.613 . S
S1161 N1163 1.610 . S
N1162 S1161 1.613 . S
N1162 C1165 1.350 . S
N1163 S1161 1.610 . S
N1163 C1164 1.351 . S
C1164 C1158 1.428 . S
C1164 N1163 1.351 . S
C1164 C1165 1.434 . S
C1165 C1156 1.429 . S
C1165 N1162 1.350 . S
C1165 C1164 1.434 . S
C1166 C1167 1.369 . S
C1166 C1168 1.419 . S
C1166 H1170 0.930 . S
C1167 C1166 1.369 . S
C1167 C1176 1.429 . S
C1168 C1166 1.419 . S
C1168 C1169 1.363 . S
C1168 H1171 0.929 . S
C1169 C1168 1.363 . S
C1169 C1175 1.428 . S
H1170 C1166 0.930 . S
H1171 C1168 0.929 . S
S1172 N1173 1.613 . S
S1172 N1174 1.610 . S
N1173 S1172 1.613 . S
N1173 C1176 1.350 . S
N1174 S1172 1.610 . S
N1174 C1175 1.351 . S
C1175 C1169 1.428 . S
C1175 N1174 1.351 . S
C1175 C1176 1.434 . S
C1176 C1167 1.429 . S
C1176 N1173 1.350 . S
C1176 C1175 1.434 . S
C1177 C1178 1.369 . S
C1177 C1179 1.419 . S
C1177 H1181 0.930 . S
C1178 C1177 1.369 . S
C1178 C1187 1.429 . S
C1179 C1177 1.419 . S
C1179 C1180 1.363 . S
C1179 H1182 0.929 . S
C1180 C1179 1.363 . S
C1180 C1186 1.428 . S
H1181 C1177 0.930 . S
H1182 C1179 0.929 . S
S1183 N1184 1.613 . S
S1183 N1185 1.610 . S
N1184 S1183 1.613 . S
N1184 C1187 1.350 . S
N1185 S1183 1.610 . S
N1185 C1186 1.351 . S
C1186 C1180 1.428 . S
C1186 N1185 1.351 . S
C1186 C1187 1.434 . S
C1187 C1178 1.429 . S
C1187 N1184 1.350 . S
C1187 C1186 1.434 . S
C595 C177 1.641 . S
C597 C243 1.643 . S
C606 C190 1.735 . S
C608 C283 1.727 . S
C617 C164 1.587 . S
C619 C322 1.558 . S
C628 C151 1.490 . S
C630 C282 1.454 . S
C641 C323 1.514 . S
C639 C125 1.517 . S
C650 C138 1.402 . S
C652 C242 1.393 1_556 S
C663 C253 1.621 . S
C661 C147 1.642 . S
C674 C293 1.604 . S
C672 C121 1.583 . S
C683 C134 1.612 . S
C685 C332 1.660 1_556 S
C694 C173 1.498 . S
C696 C292 1.523 . S
C705 C186 1.478 . S
C707 C333 1.460 . S
C718 C252 1.533 . S
C716 C160 1.497 . S
C729 C363 1.640 . S
C727 C21 1.645 . S
C738 C34 1.735 . S
C740 C403 1.727 . S
C749 C8 1.583 . S
C751 C442 1.560 . S
C760 C229 1.494 . S
C762 C402 1.456 . S
C771 C203 1.517 . S
C773 C443 1.513 . S
C782 C216 1.405 . S
C784 C362 1.395 . S
C793 C225 1.647 . S
C795 C373 1.615 . S
C804 C199 1.582 . S
C806 C413 1.609 . S
C817 C452 1.660 . S
C815 C212 1.613 . S
C826 C17 1.493 . S
C828 C412 1.527 . S
C839 C453 1.457 . S
C837 C30 1.481 1_455 S
C848 C4 1.494 . S
C850 C372 1.534 . S
C861 C483 1.640 . S
C859 C99 1.645 . S
C870 C112 1.733 . S
C872 C523 1.730 . S
C883 C562 1.556 . S
C881 C86 1.588 . S
C894 C522 1.456 . S
C892 C73 1.491 . S
C905 C563 1.514 . S
C903 C47 1.516 . S
C914 C60 1.402 . S
C916 C482 1.390 . S
C925 C69 1.656 . S
C927 C493 1.615 . S
C936 C43 1.581 . S
C938 C533 1.608 . S
C949 C572 1.664 . S
C947 C56 1.603 1_545 S
C958 C95 1.489 . S
C960 C532 1.528 . S
C969 C108 1.475 . S
C971 C573 1.455 . S
C980 C82 1.501 . S
C982 C492 1.531 . S
C991 C204 1.595 . S
C993 C239 1.578 . S
C1004 C279 1.889 . S
C1002 C217 1.891 . S
C1013 C230 1.549 . S
C1015 C329 1.572 . S
C1024 C87 1.714 . S
C1026 C289 1.729 . S
C1035 C100 1.674 . S
C1037 C319 1.672 . S
C1048 C249 1.380 . S
C1046 C113 1.372 . S
C1057 C48 1.592 . S
C1059 C359 1.581 . S
C1068 C61 1.892 . S
C1070 C399 1.888 . S
C1079 C74 1.549 . S
C1081 C449 1.572 . S
C1090 C165 1.712 . S
C1092 C409 1.731 . S
C1103 C439 1.676 . S
C1101 C178 1.669 . S
C1112 C191 1.371 . S
C1114 C369 1.379 . S
C1123 C126 1.590 . S
C1125 C479 1.582 . S
C1134 C139 1.890 . S
C1136 C519 1.889 . S
C1147 C569 1.572 . S
C1145 C152 1.549 . S
C1156 C9 1.716 . S
C1158 C529 1.728 . S
C1167 C22 1.672 . S
C1169 C559 1.674 . S
C1178 C35 1.372 . S
C1180 C489 1.379 . S
