# Generated by pormake.
# Topology dag, (6,3)-cn, num edge types: 1
# Building blocks:
#     Node 0, Type 0, BuildingBlock: IZENUY_clean_sbu_0, # of connection points: 6
#     Node 1, Type 0, BuildingBlock: IZENUY_clean_sbu_0, # of connection points: 6
#     Node 2, Type 0, BuildingBlock: IZENUY_clean_sbu_0, # of connection points: 6
#     Node 3, Type 0, BuildingBlock: IZENUY_clean_sbu_0, # of connection points: 6
#     Node 4, Type 1, BuildingBlock: QEWDON_clean_linker_0, # of connection points: 3
#     Node 5, Type 1, BuildingBlock: QEWDON_clean_linker_0, # of connection points: 3
#     Node 6, Type 1, BuildingBlock: QEWDON_clean_linker_0, # of connection points: 3
#     Node 7, Type 1, BuildingBlock: QEWDON_clean_linker_0, # of connection points: 3
#     Node 8, Type 1, BuildingBlock: QEWDON_clean_linker_0, # of connection points: 3
#     Node 9, Type 1, BuildingBlock: QEWDON_clean_linker_0, # of connection points: 3
#     Node 10, Type 1, BuildingBlock: QEWDON_clean_linker_0, # of connection points: 3
#     Node 11, Type 1, BuildingBlock: QEWDON_clean_linker_0, # of connection points: 3
#     Edge 12, Type (0, 1), BuildingBlock: TEMPAE_clean_linker_10, # of connection points: 2
#     Edge 13, Type (0, 1), BuildingBlock: TEMPAE_clean_linker_10, # of connection points: 2
#     Edge 14, Type (0, 1), BuildingBlock: TEMPAE_clean_linker_10, # of connection points: 2
#     Edge 15, Type (0, 1), BuildingBlock: TEMPAE_clean_linker_10, # of connection points: 2
#     Edge 16, Type (0, 1), BuildingBlock: TEMPAE_clean_linker_10, # of connection points: 2
#     Edge 17, Type (0, 1), BuildingBlock: TEMPAE_clean_linker_10, # of connection points: 2
#     Edge 18, Type (0, 1), BuildingBlock: TEMPAE_clean_linker_10, # of connection points: 2
#     Edge 19, Type (0, 1), BuildingBlock: TEMPAE_clean_linker_10, # of connection points: 2
#     Edge 20, Type (0, 1), BuildingBlock: TEMPAE_clean_linker_10, # of connection points: 2
#     Edge 21, Type (0, 1), BuildingBlock: TEMPAE_clean_linker_10, # of connection points: 2
#     Edge 22, Type (0, 1), BuildingBlock: TEMPAE_clean_linker_10, # of connection points: 2
#     Edge 23, Type (0, 1), BuildingBlock: TEMPAE_clean_linker_10, # of connection points: 2
#     Edge 24, Type (0, 1), BuildingBlock: TEMPAE_clean_linker_10, # of connection points: 2
#     Edge 25, Type (0, 1), BuildingBlock: TEMPAE_clean_linker_10, # of connection points: 2
#     Edge 26, Type (0, 1), BuildingBlock: TEMPAE_clean_linker_10, # of connection points: 2
#     Edge 27, Type (0, 1), BuildingBlock: TEMPAE_clean_linker_10, # of connection points: 2
#     Edge 28, Type (0, 1), BuildingBlock: TEMPAE_clean_linker_10, # of connection points: 2
#     Edge 29, Type (0, 1), BuildingBlock: TEMPAE_clean_linker_10, # of connection points: 2
#     Edge 30, Type (0, 1), BuildingBlock: TEMPAE_clean_linker_10, # of connection points: 2
#     Edge 31, Type (0, 1), BuildingBlock: TEMPAE_clean_linker_10, # of connection points: 2
#     Edge 32, Type (0, 1), BuildingBlock: TEMPAE_clean_linker_10, # of connection points: 2
#     Edge 33, Type (0, 1), BuildingBlock: TEMPAE_clean_linker_10, # of connection points: 2
#     Edge 34, Type (0, 1), BuildingBlock: TEMPAE_clean_linker_10, # of connection points: 2
#     Edge 35, Type (0, 1), BuildingBlock: TEMPAE_clean_linker_10, # of connection points: 2
# Relax obj value: 0.042
# Max RMSD: 0.066
# Mean RMSD: 0.060
data_MOF--net-dag--node1-IZENUY_clean_sbu_0--node2-QEWDON_clean_linker_0--edge1-TEMPAE_clean_linker_10
_symmetry_space_group_name_H-M    P1
_symmetry_Int_Tables_number       1
_symmetry_cell_setting            triclinic
loop_
_symmetry_equiv_pos_as_xyz
'x, y, z'
_cell_length_a     41.955043
_cell_length_b     42.24411
_cell_length_c     38.367642
_cell_angle_alpha  91.303946
_cell_angle_beta   89.809859
_cell_angle_gamma 89.863517
loop_
_atom_site_label
_atom_site_type_symbol
_atom_site_fract_x
_atom_site_fract_y
_atom_site_fract_z
_atom_type_partial_charge
Fe0 Fe 0.18162 0.86315 0.01981 0.0
Fe1 Fe 0.11072 0.88056 0.01606 0.0
O2 O 0.14096 0.85152 0.01871 0.0
Fe3 Fe 0.13054 0.81086 0.0204 0.0
O4 O 0.14973 0.80714 0.06237 0.0
O5 O 0.19439 0.83075 0.04805 0.0
O6 O 0.1757 0.887 0.05936 0.0
C7 C 0.15519 0.90875 0.06278 0.0
C8 C 0.1858 0.81079 0.97699 0.0
O9 O 0.13225 0.91075 0.04159 0.0
C10 C 0.08837 0.83102 0.97132 0.0
O11 O 0.17631 0.89783 0.99193 0.0
O12 O 0.12632 0.89484 0.97544 0.0
O13 O 0.16642 0.79676 0.99683 0.0
O14 O 0.19039 0.84019 0.98045 0.0
C15 C 0.08252 0.84113 0.06209 0.0
O16 O 0.08367 0.85565 0.99007 0.0
O17 O 0.11045 0.81188 0.97844 0.0
C18 C 0.15404 0.90558 0.97151 0.0
O19 O 0.09285 0.86851 0.0565 0.0
O20 O 0.09274 0.81747 0.04439 0.0
C21 C 0.17855 0.81358 0.06853 0.0
Fe22 Fe 0.68367 0.62561 0.50182 0.0
Fe23 Fe 0.63403 0.68018 0.50564 0.0
O24 O 0.64352 0.63909 0.50505 0.0
Fe25 Fe 0.61238 0.61095 0.50763 0.0
O26 O 0.6359 0.58068 0.52887 0.0
O27 O 0.68081 0.60389 0.54237 0.0
O28 O 0.70036 0.65851 0.52765 0.0
C29 C 0.68791 0.67997 0.54682 0.0
C30 C 0.64942 0.58344 0.45675 0.0
O31 O 0.65921 0.68824 0.54317 0.0
C32 C 0.58415 0.65791 0.46644 0.0
O33 O 0.69012 0.64602 0.46138 0.0
O34 O 0.66576 0.69093 0.4752 0.0
O35 O 0.62231 0.59453 0.46489 0.0
O36 O 0.67384 0.59033 0.47485 0.0
C37 C 0.59277 0.65432 0.55698 0.0
O38 O 0.60794 0.67606 0.4677 0.0
O39 O 0.58214 0.63516 0.48699 0.0
C40 C 0.6839 0.67461 0.45537 0.0
O41 O 0.60057 0.67633 0.5366 0.0
O42 O 0.60082 0.62593 0.55043 0.0
C43 C 0.66073 0.58227 0.54722 0.0
Fe44 Fe 0.87476 0.1791 1.0011 0.0
Fe45 Fe 0.89303 0.10888 0.99994 0.0
O46 O 0.86354 0.13865 0.99917 0.0
Fe47 Fe 0.82292 0.12752 0.99622 0.0
O48 O 0.81855 0.14797 0.95554 0.0
O49 O 0.84257 0.19214 0.97216 0.0
O50 O 0.89981 0.17498 0.96217 0.0
C51 C 0.92253 0.15548 0.95926 0.0
C52 C 0.82135 0.18107 0.04246 0.0
O53 O 0.92391 0.13194 0.97882 0.0
C54 C 0.84394 0.08331 0.04123 0.0
O55 O 0.90885 0.1727 0.03054 0.0
O56 O 0.9061 0.12204 0.04261 0.0
O57 O 0.80785 0.16183 0.02149 0.0
O58 O 0.85079 0.18657 0.03993 0.0
C59 C 0.85401 0.08363 0.95053 0.0
O60 O 0.86802 0.07988 0.02162 0.0
O61 O 0.82488 0.10609 0.03699 0.0
C62 C 0.91594 0.14963 0.04979 0.0
O63 O 0.88149 0.09419 0.95704 0.0
O64 O 0.83059 0.09112 0.97002 0.0
C65 C 0.82516 0.17671 0.95079 0.0
Fe66 Fe 0.38892 0.38372 0.51347 0.0
Fe67 Fe 0.31882 0.36572 0.52182 0.0
O68 O 0.3594 0.35431 0.51711 0.0
Fe69 Fe 0.37064 0.31379 0.51644 0.0
O70 O 0.39667 0.31918 0.55422 0.0
O71 O 0.42038 0.36126 0.53443 0.0
O72 O 0.37886 0.40015 0.55617 0.0
C73 C 0.3515 0.4103 0.56435 0.0
C74 C 0.41032 0.34095 0.46465 0.0
O75 O 0.32733 0.4027 0.54635 0.0
C76 C 0.31619 0.311 0.47732 0.0
O77 O 0.36334 0.41189 0.49133 0.0
O78 O 0.31892 0.38613 0.48045 0.0
O79 O 0.40396 0.31884 0.48546 0.0
O80 O 0.40062 0.3688 0.47086 0.0
C81 C 0.32252 0.31775 0.56866 0.0
O82 O 0.30312 0.33076 0.49827 0.0
O83 O 0.34567 0.30535 0.47892 0.0
C84 C 0.33856 0.40763 0.47323 0.0
O85 O 0.31597 0.34642 0.56344 0.0
O86 O 0.33923 0.30172 0.547 0.0
C87 C 0.41943 0.33865 0.55533 0.0
H88 H 0.16739 0.09836 0.2629 0.0
C89 C 0.1502 0.11073 0.24711 0.0
C90 C 0.14492 0.10074 0.21245 0.0
C91 C 0.13206 0.13564 0.2619 0.0
H92 H 0.11633 0.10704 0.16676 0.0
C93 C 0.12161 0.11607 0.19279 0.0
C94 C 0.10297 0.14069 0.20733 0.0
C95 C 0.10856 0.1505 0.24198 0.0
C96 C 0.13476 0.14377 0.29933 0.0
H97 H 0.09412 0.16916 0.25386 0.0
C98 C 0.1614 0.16016 0.31254 0.0
C99 C 0.16296 0.16875 0.34822 0.0
C100 C 0.10983 0.13571 0.32186 0.0
H101 H 0.08911 0.12317 0.31201 0.0
C102 C 0.11144 0.14375 0.35723 0.0
H103 H 0.18058 0.16645 0.29503 0.0
C104 C 0.13772 0.16022 0.37037 0.0
H105 H 0.13793 0.16691 0.39779 0.0
H106 H 0.09208 0.13752 0.37447 0.0
H107 H 0.41075 0.68052 0.76315 0.0
C108 C 0.40098 0.66039 0.74885 0.0
C109 C 0.41009 0.65452 0.71401 0.0
C110 C 0.3806 0.63919 0.76576 0.0
H111 H 0.40489 0.62346 0.66932 0.0
C112 C 0.39791 0.62786 0.69621 0.0
C113 C 0.37928 0.60539 0.71326 0.0
C114 C 0.37028 0.61154 0.74807 0.0
C115 C 0.37322 0.64358 0.80323 0.0
H116 H 0.35636 0.5943 0.762 0.0
C117 C 0.35318 0.66829 0.81532 0.0
C118 C 0.34529 0.67119 0.85106 0.0
C119 C 0.38563 0.62204 0.82695 0.0
H120 H 0.40103 0.60285 0.81804 0.0
C121 C 0.37828 0.62503 0.8623 0.0
H122 H 0.34353 0.68487 0.79694 0.0
C123 C 0.35819 0.64929 0.87431 0.0
H124 H 0.3522 0.65044 0.90179 0.0
H125 H 0.38788 0.60824 0.88044 0.0
H126 H 0.85385 0.80173 0.1948 0.0
C127 C 0.84919 0.82691 0.19324 0.0
C128 C 0.87395 0.84759 0.18437 0.0
C129 C 0.81798 0.83855 0.19775 0.0
H130 H 0.88633 0.89529 0.17163 0.0
C131 C 0.86743 0.87988 0.18043 0.0
C132 C 0.83627 0.89172 0.18404 0.0
C133 C 0.81177 0.87092 0.19323 0.0
C134 C 0.79088 0.81673 0.20258 0.0
H135 H 0.78752 0.87968 0.19565 0.0
C136 C 0.7881 0.79825 0.23252 0.0
C137 C 0.76076 0.77941 0.23772 0.0
C138 C 0.76672 0.81563 0.17738 0.0
H139 H 0.76848 0.82964 0.15414 0.0
C140 C 0.74 0.79672 0.18202 0.0
H141 H 0.80684 0.7991 0.25188 0.0
C142 C 0.73684 0.77898 0.212 0.0
H143 H 0.71514 0.76555 0.21536 0.0
H144 H 0.72136 0.79623 0.16257 0.0
H145 H 0.71212 0.37025 0.69235 0.0
C146 C 0.6871 0.3639 0.69152 0.0
C147 C 0.66407 0.38694 0.68401 0.0
C148 C 0.67812 0.33228 0.69613 0.0
H149 H 0.61432 0.39525 0.67386 0.0
C150 C 0.63189 0.37795 0.68165 0.0
C151 C 0.62263 0.34624 0.68547 0.0
C152 C 0.64597 0.32355 0.69307 0.0
C153 C 0.7027 0.30752 0.69877 0.0
H154 H 0.63939 0.29887 0.69523 0.0
C155 C 0.71486 0.29874 0.73125 0.0
C156 C 0.73792 0.27448 0.73324 0.0
C157 C 0.71364 0.29218 0.66823 0.0
H158 H 0.70438 0.29869 0.64304 0.0
C159 C 0.73643 0.26823 0.66998 0.0
H160 H 0.70645 0.31086 0.75474 0.0
C161 C 0.74844 0.25933 0.70218 0.0
H162 H 0.76561 0.24017 0.70277 0.0
H163 H 0.74465 0.25634 0.64632 0.0
H164 H 0.66457 0.39164 0.25982 0.0
C165 C 0.64686 0.37865 0.2743 0.0
C166 C 0.63886 0.38835 0.30853 0.0
C167 C 0.63078 0.35312 0.25814 0.0
H168 H 0.60748 0.38059 0.3519 0.0
C169 C 0.61499 0.37196 0.32633 0.0
C170 C 0.59862 0.34655 0.31055 0.0
C171 C 0.60668 0.33723 0.27629 0.0
C172 C 0.63587 0.34568 0.22079 0.0
H173 H 0.59372 0.31817 0.26337 0.0
C174 C 0.66343 0.32969 0.20885 0.0
C175 C 0.66722 0.32204 0.17307 0.0
C176 C 0.61227 0.35419 0.19694 0.0
H177 H 0.5909 0.36643 0.20578 0.0
C178 C 0.61604 0.34699 0.16156 0.0
H179 H 0.6816 0.32306 0.22734 0.0
C180 C 0.6432 0.33097 0.14966 0.0
H181 H 0.64505 0.32496 0.12213 0.0
H182 H 0.59767 0.35355 0.14332 0.0
H183 H 0.21346 0.12145 0.83856 0.0
C184 C 0.1889 0.12891 0.83548 0.0
C185 C 0.16416 0.10761 0.84199 0.0
C186 C 0.182 0.16022 0.82641 0.0
H187 H 0.11354 0.10172 0.84697 0.0
C188 C 0.13246 0.11781 0.83978 0.0
C189 C 0.12515 0.14941 0.83223 0.0
C190 C 0.15013 0.17042 0.8249 0.0
C191 C 0.20808 0.18339 0.8236 0.0
H192 H 0.14489 0.19505 0.81991 0.0
C193 C 0.21712 0.1955 0.79118 0.0
C194 C 0.24223 0.2176 0.78903 0.0
C195 C 0.22398 0.19349 0.85392 0.0
H196 H 0.21724 0.18438 0.87907 0.0
C197 C 0.24837 0.21572 0.8521 0.0
H198 H 0.20512 0.18713 0.76778 0.0
C199 C 0.25739 0.22779 0.82001 0.0
H200 H 0.27614 0.24536 0.81956 0.0
H201 H 0.26029 0.2237 0.87567 0.0
H202 H 0.36149 0.69766 0.32449 0.0
C203 C 0.35639 0.67325 0.33055 0.0
C204 C 0.38119 0.65319 0.34114 0.0
C205 C 0.32472 0.66228 0.3298 0.0
H206 H 0.39274 0.60693 0.36032 0.0
C207 C 0.37396 0.62213 0.35079 0.0
C208 C 0.34249 0.61107 0.35059 0.0
C209 C 0.31801 0.63107 0.33956 0.0
C210 C 0.29802 0.68448 0.32402 0.0
H211 H 0.29352 0.62295 0.34037 0.0
C212 C 0.29371 0.6994 0.29188 0.0
C213 C 0.26753 0.71992 0.28705 0.0
C214 C 0.27627 0.69042 0.35129 0.0
H215 H 0.27923 0.67923 0.37621 0.0
C216 C 0.25064 0.71091 0.34677 0.0
H217 H 0.31042 0.6948 0.27076 0.0
C218 C 0.2462 0.72549 0.31494 0.0
H219 H 0.22558 0.74065 0.31192 0.0
H220 H 0.23397 0.71527 0.36794 0.0
H221 H 0.91227 0.80717 0.75964 0.0
C222 C 0.90233 0.82693 0.77459 0.0
C223 C 0.91116 0.83182 0.80961 0.0
C224 C 0.88205 0.84866 0.75841 0.0
H225 H 0.90572 0.86156 0.85537 0.0
C226 C 0.89887 0.85806 0.82835 0.0
C227 C 0.88027 0.88107 0.81205 0.0
C228 C 0.87158 0.87582 0.77706 0.0
C229 C 0.87448 0.84543 0.72088 0.0
H230 H 0.85775 0.89345 0.76363 0.0
C231 C 0.85538 0.82046 0.70791 0.0
C232 C 0.84582 0.81955 0.67259 0.0
C233 C 0.88478 0.86898 0.69828 0.0
H234 H 0.89943 0.88838 0.70782 0.0
C235 C 0.87591 0.86798 0.66335 0.0
H236 H 0.84754 0.80231 0.72547 0.0
C237 C 0.85637 0.84375 0.65064 0.0
H238 H 0.84893 0.8445 0.62368 0.0
H239 H 0.88371 0.88643 0.64617 0.0
C240 C 0.18803 0.93857 0.1075 0.0
C241 C 0.15912 0.93417 0.08972 0.0
C242 C 0.19206 0.96412 0.1313 0.0
C243 C 0.16653 0.98553 0.13751 0.0
C244 C 0.13701 0.9805 0.12049 0.0
C245 C 0.13372 0.955 0.09685 0.0
C246 C 0.22385 0.96875 0.14894 0.0
C247 C 0.109 0.00255 0.12655 0.0
C248 C 0.15555 0.04266 0.2139 0.0
C249 C 0.15984 0.07163 0.19747 0.0
C250 C 0.16071 0.01388 0.19563 0.0
C251 C 0.17046 0.01429 0.16025 0.0
C252 C 0.17815 0.04349 0.1449 0.0
C253 C 0.1726 0.07184 0.16368 0.0
C254 C 0.15245 0.9833 0.21307 0.0
C255 C 0.18903 0.04504 0.10743 0.0
H256 H 0.20777 0.92256 0.10219 0.0
H257 H 0.11116 0.95159 0.08361 0.0
H258 H 0.23549 0.99027 0.13887 0.0
H259 H 0.22059 0.97249 0.17744 0.0
H260 H 0.24007 0.94824 0.14433 0.0
H261 H 0.0873 0.9945 0.11242 0.0
H262 H 0.10331 0.00445 0.15478 0.0
H263 H 0.11512 0.02664 0.11776 0.0
H264 H 0.14551 0.04244 0.23998 0.0
H265 H 0.17611 0.09429 0.15106 0.0
H266 H 0.17003 0.9645 0.2062 0.0
H267 H 0.12876 0.97511 0.20384 0.0
H268 H 0.15144 0.98629 0.2419 0.0
H269 H 0.20721 0.02658 0.1015 0.0
H270 H 0.19915 0.06857 0.10136 0.0
H271 H 0.16841 0.04057 0.08996 0.0
C272 C 0.55208 0.63631 0.59988 0.0
C273 C 0.56955 0.66109 0.58547 0.0
C274 C 0.52743 0.64239 0.62389 0.0
C275 C 0.52041 0.67404 0.63441 0.0
C276 C 0.53903 0.69908 0.62141 0.0
C277 C 0.56317 0.69234 0.59677 0.0
C278 C 0.50803 0.61491 0.63687 0.0
C279 C 0.53282 0.73301 0.63259 0.0
C280 C 0.43427 0.67949 0.66197 0.0
C281 C 0.43659 0.67182 0.69725 0.0
C282 C 0.46169 0.6835 0.64157 0.0
C283 C 0.49209 0.6804 0.65707 0.0
C284 C 0.4944 0.67725 0.69366 0.0
C285 C 0.46653 0.67281 0.71338 0.0
C286 C 0.45801 0.68703 0.60272 0.0
C287 C 0.52632 0.67495 0.7114 0.0
H288 H 0.55676 0.61211 0.59135 0.0
H289 H 0.57674 0.71163 0.58598 0.0
H290 H 0.50845 0.61463 0.66576 0.0
H291 H 0.48279 0.61762 0.62884 0.0
H292 H 0.51695 0.59171 0.62666 0.0
H293 H 0.55268 0.74885 0.62512 0.0
H294 H 0.5107 0.74151 0.62006 0.0
H295 H 0.52921 0.73499 0.66122 0.0
H296 H 0.41108 0.67913 0.64956 0.0
H297 H 0.46851 0.66694 0.74065 0.0
H298 H 0.46372 0.66412 0.58934 0.0
H299 H 0.47479 0.70496 0.59278 0.0
H300 H 0.43335 0.69394 0.59558 0.0
H301 H 0.53611 0.65073 0.70725 0.0
H302 H 0.52428 0.67968 0.73993 0.0
H303 H 0.54357 0.69186 0.70025 0.0
C304 C 0.85153 0.0282 0.0608 0.0
C305 C 0.83673 0.05778 0.06588 0.0
C306 C 0.84694 0.00371 0.08414 0.0
C307 C 0.82713 0.00877 0.11366 0.0
C308 C 0.81155 0.03834 0.11877 0.0
C309 C 0.81644 0.06258 0.09465 0.0
C310 C 0.86375 0.97245 0.0773 0.0
C311 C 0.79032 0.04455 0.15001 0.0
C312 C 0.80387 0.92971 0.14962 0.0
C313 C 0.82899 0.92444 0.17287 0.0
C314 C 0.8009 0.95862 0.13259 0.0
C315 C 0.82364 0.98276 0.13892 0.0
C316 C 0.84714 0.97867 0.16486 0.0
C317 C 0.84959 0.9495 0.18148 0.0
C318 C 0.77543 0.96197 0.10522 0.0
C319 C 0.87165 0.00392 0.17268 0.0
H320 H 0.86692 0.02407 0.03839 0.0
H321 H 0.80501 0.08541 0.09873 0.0
H322 H 0.88022 0.96742 0.09907 0.0
H323 H 0.84613 0.95293 0.07587 0.0
H324 H 0.87772 0.97219 0.05264 0.0
H325 H 0.77816 0.06789 0.14894 0.0
H326 H 0.77203 0.02574 0.15188 0.0
H327 H 0.80474 0.04393 0.17417 0.0
H328 H 0.78794 0.91045 0.14262 0.0
H329 H 0.86871 0.94572 0.19987 0.0
H330 H 0.7863 0.95858 0.07898 0.0
H331 H 0.76469 0.98599 0.10644 0.0
H332 H 0.75622 0.94416 0.10813 0.0
H333 H 0.88946 0.00419 0.15124 0.0
H334 H 0.88441 0.99961 0.19746 0.0
H335 H 0.86035 0.02767 0.1743 0.0
C336 C 0.47531 0.35101 0.57211 0.0
C337 C 0.44723 0.33407 0.57853 0.0
C338 C 0.50189 0.34853 0.59375 0.0
C339 C 0.50058 0.32867 0.62291 0.0
C340 C 0.47251 0.31112 0.62951 0.0
C341 C 0.4461 0.31394 0.6071 0.0
C342 C 0.53137 0.36752 0.58542 0.0
C343 C 0.47027 0.28982 0.66043 0.0
C344 C 0.58439 0.31133 0.65266 0.0
C345 C 0.58954 0.33665 0.67627 0.0
C346 C 0.55434 0.30632 0.63752 0.0
C347 C 0.52888 0.32715 0.64619 0.0
C348 C 0.53319 0.35079 0.67251 0.0
C349 C 0.56351 0.35532 0.68717 0.0
C350 C 0.55083 0.28079 0.60964 0.0
C351 C 0.50664 0.37331 0.68282 0.0
H352 H 0.47665 0.36643 0.54996 0.0
H353 H 0.42447 0.30085 0.61229 0.0
H354 H 0.53678 0.38419 0.60736 0.0
H355 H 0.55221 0.35151 0.58203 0.0
H356 H 0.52866 0.38137 0.56134 0.0
H357 H 0.44739 0.27665 0.66107 0.0
H358 H 0.49023 0.27255 0.65995 0.0
H359 H 0.47244 0.30415 0.6849 0.0
H360 H 0.60438 0.29687 0.64393 0.0
H361 H 0.56726 0.3746 0.70583 0.0
H362 H 0.55136 0.29175 0.58363 0.0
H363 H 0.52769 0.26841 0.61219 0.0
H364 H 0.57039 0.26306 0.61066 0.0
H365 H 0.50347 0.39095 0.6621 0.0
H366 H 0.51185 0.38625 0.70768 0.0
H367 H 0.48377 0.36047 0.6856 0.0
C368 C 0.6246 0.54215 0.41777 0.0
C369 C 0.65191 0.55832 0.42923 0.0
C370 C 0.62692 0.51596 0.39475 0.0
C371 C 0.65725 0.50598 0.38234 0.0
C372 C 0.68475 0.52326 0.39225 0.0
C373 C 0.68179 0.54906 0.41584 0.0
C374 C 0.59699 0.49805 0.38505 0.0
C375 C 0.71739 0.51381 0.37897 0.0
C376 C 0.6595 0.41825 0.36057 0.0
C377 C 0.65184 0.41776 0.325 0.0
C378 C 0.66337 0.44691 0.37916 0.0
C379 C 0.66006 0.47585 0.36161 0.0
C380 C 0.6555 0.47546 0.32502 0.0
C381 C 0.65126 0.44635 0.30712 0.0
C382 C 0.66825 0.44617 0.41812 0.0
C383 C 0.65265 0.50578 0.30522 0.0
H384 H 0.60142 0.54912 0.42792 0.0
H385 H 0.70299 0.56166 0.42426 0.0
H386 H 0.59482 0.49586 0.3563 0.0
H387 H 0.59828 0.47371 0.39528 0.0
H388 H 0.57513 0.50971 0.39561 0.0
H389 H 0.73562 0.53209 0.38521 0.0
H390 H 0.72478 0.49131 0.39095 0.0
H391 H 0.71692 0.50964 0.35032 0.0
H392 H 0.66043 0.39614 0.37436 0.0
H393 H 0.64525 0.44618 0.27966 0.0
H394 H 0.64641 0.45501 0.43159 0.0
H395 H 0.68814 0.46194 0.42609 0.0
H396 H 0.6734 0.42191 0.42722 0.0
H397 H 0.62898 0.51666 0.3105 0.0
H398 H 0.65505 0.50158 0.27664 0.0
H399 H 0.67102 0.52306 0.31388 0.0
C400 C 0.9782 0.14394 0.94052 0.0
C401 C 0.94993 0.1611 0.93563 0.0
C402 C 0.00452 0.14749 0.91857 0.0
C403 C 0.00275 0.16867 0.89059 0.0
C404 C 0.97446 0.1864 0.88549 0.0
C405 C 0.94833 0.18251 0.90824 0.0
C406 C 0.03424 0.12823 0.92532 0.0
C407 C 0.9717 0.20903 0.85581 0.0
C408 C 0.08672 0.18621 0.86213 0.0
C409 C 0.09212 0.161 0.83843 0.0
C410 C 0.05635 0.19157 0.87662 0.0
C411 C 0.03085 0.1713 0.86699 0.0
C412 C 0.03541 0.14836 0.83991 0.0
C413 C 0.06608 0.14333 0.8261 0.0
C414 C 0.05264 0.21634 0.90532 0.0
C415 C 0.00881 0.1266 0.82836 0.0
H416 H 0.97991 0.12754 0.96176 0.0
H417 H 0.92655 0.19578 0.90425 0.0
H418 H 0.03949 0.11244 0.90251 0.0
H419 H 0.055 0.14415 0.92906 0.0
H420 H 0.03191 0.11339 0.94873 0.0
H421 H 0.94862 0.22197 0.85619 0.0
H422 H 0.99139 0.2265 0.85696 0.0
H423 H 0.97398 0.19582 0.8306 0.0
H424 H 0.10677 0.19989 0.87188 0.0
H425 H 0.07013 0.12406 0.80744 0.0
H426 H 0.05352 0.20468 0.93094 0.0
H427 H 0.02934 0.22863 0.90354 0.0
H428 H 0.07199 0.23422 0.90458 0.0
H429 H 0.00574 0.10777 0.84779 0.0
H430 H 0.01402 0.11508 0.80264 0.0
H431 H 0.98592 0.13966 0.82669 0.0
C432 C 0.35566 0.44019 0.42395 0.0
C433 C 0.33138 0.43134 0.44684 0.0
C434 C 0.35289 0.46748 0.40411 0.0
C435 C 0.32546 0.48687 0.40797 0.0
C436 C 0.29988 0.47683 0.42929 0.0
C437 C 0.30306 0.44892 0.44837 0.0
C438 C 0.38051 0.47689 0.38126 0.0
C439 C 0.27038 0.49692 0.43438 0.0
C440 C 0.34523 0.57381 0.39975 0.0
C441 C 0.33522 0.57996 0.36578 0.0
C442 C 0.34064 0.54404 0.4143 0.0
C443 C 0.3261 0.51956 0.39417 0.0
C444 C 0.31497 0.52594 0.36018 0.0
C445 C 0.31944 0.55626 0.34645 0.0
C446 C 0.35244 0.53851 0.45083 0.0
C447 C 0.29965 0.50042 0.33784 0.0
H448 H 0.37758 0.4265 0.42288 0.0
H449 H 0.28447 0.44224 0.46647 0.0
H450 H 0.37188 0.4846 0.3555 0.0
H451 H 0.39323 0.49718 0.39367 0.0
H452 H 0.39781 0.45718 0.37715 0.0
H453 H 0.25069 0.4835 0.44659 0.0
H454 H 0.27611 0.51758 0.45159 0.0
H455 H 0.26202 0.50618 0.40918 0.0
H456 H 0.35703 0.59233 0.41485 0.0
H457 H 0.31168 0.56111 0.32017 0.0
H458 H 0.37257 0.52142 0.44995 0.0
H459 H 0.33327 0.52805 0.46686 0.0
H460 H 0.3607 0.56069 0.464 0.0
H461 H 0.31777 0.48226 0.33047 0.0
H462 H 0.28926 0.50996 0.31363 0.0
H463 H 0.28063 0.48833 0.3526 0.0
C464 C 0.06302 0.79327 0.92765 0.0
C465 C 0.06544 0.82372 0.94286 0.0
C466 C 0.03958 0.78632 0.90237 0.0
C467 C 0.01826 0.81041 0.8921 0.0
C468 C 0.02135 0.84138 0.90663 0.0
C469 C 0.04478 0.84758 0.93173 0.0
C470 C 0.03703 0.75305 0.88752 0.0
C471 C 0.99938 0.86799 0.89627 0.0
C472 C 0.96815 0.81574 0.81111 0.0
C473 C 0.93755 0.81396 0.8257 0.0
C474 C 0.99534 0.81078 0.8316 0.0
C475 C 0.99164 0.80382 0.86733 0.0
C476 C 0.9608 0.79771 0.88069 0.0
C477 C 0.93406 0.80297 0.85969 0.0
C478 C 0.02775 0.81703 0.81611 0.0
C479 C 0.95572 0.78965 0.91841 0.0
H480 H 0.07887 0.77468 0.9361 0.0
H481 H 0.04668 0.87129 0.94295 0.0
H482 H 0.0154 0.74163 0.89813 0.0
H483 H 0.0345 0.75329 0.85876 0.0
H484 H 0.05807 0.73837 0.89413 0.0
H485 H 0.00567 0.89093 0.90919 0.0
H486 H 1.00026 0.871 0.86764 0.0
H487 H 0.97442 0.86217 0.9033 0.0
H488 H 0.97095 0.82436 0.78487 0.0
H489 H 0.91038 0.80144 0.87093 0.0
H490 H 0.04577 0.80026 0.82602 0.0
H491 H 0.03542 0.84133 0.82377 0.0
H492 H 0.02735 0.8152 0.78718 0.0
H493 H 0.97387 0.77244 0.9271 0.0
H494 H 0.93162 0.77964 0.92291 0.0
H495 H 0.95817 0.81146 0.93486 0.0
C496 C 0.86677 0.05647 0.89383 0.0
C497 C 0.85121 0.0564 0.92614 0.0
C498 C 0.86761 0.02909 0.87239 0.0
C499 C 0.85377 1.00074 0.88436 0.0
C500 C 0.83715 1.00093 0.91656 0.0
C501 C 0.83562 0.02896 0.93681 0.0
C502 C 0.88461 0.03014 0.8377 0.0
C503 C 0.82309 0.97102 0.93091 0.0
C504 C 0.84438 0.92828 0.82435 0.0
C505 C 0.87279 0.9117 0.83066 0.0
C506 C 0.83803 0.95764 0.84104 0.0
C507 C 0.8601 0.97021 0.86548 0.0
C508 C 0.88857 0.95349 0.87229 0.0
C509 C 0.89486 0.92496 0.85428 0.0
C510 C 0.80788 0.97531 0.83236 0.0
C511 C 0.91249 0.96569 0.89871 0.0
H512 H 0.87873 0.07779 0.88564 0.0
H513 H 0.82397 0.02886 0.96209 0.0
H514 H 0.90765 0.01735 0.83931 0.0
H515 H 0.87025 0.01816 0.81708 0.0
H516 H 0.8895 0.05481 0.82981 0.0
H517 H 0.80866 0.97571 0.95482 0.0
H518 H 0.80786 0.95898 0.91116 0.0
H519 H 0.84262 0.95441 0.93737 0.0
H520 H 0.82699 0.91835 0.80642 0.0
H521 H 0.91747 0.91329 0.85857 0.0
H522 H 0.81382 0.99949 0.8237 0.0
H523 H 0.79266 0.978 0.85593 0.0
H524 H 0.7939 0.96307 0.81155 0.0
H525 H 0.92263 0.98843 0.89008 0.0
H526 H 0.93241 0.94877 0.90261 0.0
H527 H 0.90059 0.97031 0.92421 0.0
C528 C 0.44814 0.36168 0.42037 0.0
C529 C 0.43402 0.33563 0.43635 0.0
C530 C 0.47356 0.35767 0.39695 0.0
C531 C 0.4848 0.32678 0.38859 0.0
C532 C 0.46935 0.30023 0.40281 0.0
C533 C 0.44433 0.30497 0.42687 0.0
C534 C 0.48949 0.38672 0.38264 0.0
C535 C 0.48003 0.26691 0.3937 0.0
C536 C 0.5415 0.32901 0.31181 0.0
C537 C 0.57075 0.33296 0.32898 0.0
C538 C 0.51333 0.32375 0.33073 0.0
C539 C 0.51449 0.32304 0.36758 0.0
C540 C 0.54434 0.32406 0.38467 0.0
C541 C 0.57213 0.32861 0.36509 0.0
C542 C 0.48208 0.32169 0.31147 0.0
C543 C 0.54673 0.32348 0.42392 0.0
H544 H 0.4403 0.38547 0.42733 0.0
H545 H 0.4333 0.28469 0.43878 0.0
H546 H 0.5145 0.38798 0.39189 0.0
H547 H 0.49017 0.38528 0.35376 0.0
H548 H 0.4771 0.40898 0.39074 0.0
H549 H 0.4622 0.24907 0.40174 0.0
H550 H 0.48438 0.26411 0.36525 0.0
H551 H 0.5028 0.26188 0.40711 0.0
H552 H 0.54016 0.33228 0.28392 0.0
H553 H 0.5948 0.33087 0.37838 0.0
H554 H 0.46956 0.34481 0.31368 0.0
H555 H 0.46636 0.30358 0.32297 0.0
H556 H 0.48568 0.31583 0.28335 0.0
H557 H 0.53685 0.34587 0.43523 0.0
H558 H 0.57175 0.32098 0.43286 0.0
H559 H 0.5325 0.30375 0.43439 0.0
C560 C 0.1892 0.93965 0.93481 0.0
C561 C 0.15877 0.93201 0.94728 0.0
C562 C 0.19392 0.96644 0.91424 0.0
C563 C 0.16777 0.9865 0.90697 0.0
C564 C 0.13694 0.97852 0.91901 0.0
C565 C 0.13278 0.95119 0.93855 0.0
C566 C 0.22694 0.97365 0.90096 0.0
C567 C 0.10849 0.99959 0.91259 0.0
C568 C 0.17856 0.07426 0.89192 0.0
C569 C 0.1708 0.07627 0.85662 0.0
C570 C 0.17922 0.04491 0.90833 0.0
C571 C 0.1725 0.01691 0.88869 0.0
C572 C 0.16664 0.01876 0.85242 0.0
C573 C 0.16533 0.04856 0.83689 0.0
C574 C 0.18487 0.04417 0.94716 0.0
C575 C 0.16013 0.98944 0.83041 0.0
H576 H 0.20933 0.92481 0.94132 0.0
H577 H 0.10922 0.94564 0.94832 0.0
H578 H 0.22626 0.97818 0.87259 0.0
H579 H 0.23606 0.99543 0.91413 0.0
H580 H 0.24396 0.95402 0.90563 0.0
H581 H 0.08608 0.98981 0.92339 0.0
H582 H 0.11256 0.02334 0.92472 0.0
H583 H 0.1053 0.00291 0.88423 0.0
H584 H 0.18235 0.09587 0.90713 0.0
H585 H 0.15911 0.05032 0.80959 0.0
H586 H 0.20359 0.0266 0.95325 0.0
H587 H 0.16268 0.03674 0.96049 0.0
H588 H 0.19211 0.06763 0.95809 0.0
H589 H 0.17772 0.9706 0.83611 0.0
H590 H 0.16097 0.99431 0.80209 0.0
H591 H 0.13615 0.98014 0.83676 0.0
C592 C 0.55807 0.68544 0.41592 0.0
C593 C 0.55643 0.66428 0.44357 0.0
C594 C 0.53165 0.68993 0.39385 0.0
C595 C 0.50307 0.67296 0.39975 0.0
C596 C 0.50122 0.65219 0.4281 0.0
C597 C 0.52778 0.64811 0.44945 0.0
C598 C 0.53452 0.71222 0.36385 0.0
C599 C 0.47124 0.63369 0.43569 0.0
C600 C 0.41914 0.6905 0.37064 0.0
C601 C 0.41403 0.66502 0.34731 0.0
C602 C 0.4494 0.69591 0.38523 0.0
C603 C 0.47503 0.67536 0.37612 0.0
C604 C 0.47072 0.65206 0.34942 0.0
C605 C 0.44021 0.64706 0.33548 0.0
C606 C 0.45291 0.72118 0.41337 0.0
C607 C 0.49737 0.6299 0.33847 0.0
H608 H 0.58009 0.69801 0.41117 0.0
H609 H 0.526 0.63193 0.4709 0.0
H610 H 0.53375 0.69851 0.33886 0.0
H611 H 0.51412 0.72898 0.36387 0.0
H612 H 0.55706 0.72595 0.3648 0.0
H613 H 0.47345 0.61926 0.45942 0.0
H614 H 0.45073 0.65007 0.43932 0.0
H615 H 0.46565 0.61758 0.41331 0.0
H616 H 0.39894 0.7044 0.37994 0.0
H617 H 0.43633 0.62751 0.31718 0.0
H618 H 0.47626 0.73326 0.41133 0.0
H619 H 0.4518 0.71003 0.43926 0.0
H620 H 0.4336 0.73915 0.41214 0.0
H621 H 0.52023 0.64285 0.33622 0.0
H622 H 0.49225 0.61767 0.31317 0.0
H623 H 0.50047 0.61166 0.35856 0.0
C624 C 0.36291 0.4331 0.62331 0.0
C625 C 0.34898 0.43614 0.59047 0.0
C626 C 0.36361 0.45884 0.64707 0.0
C627 C 0.35145 0.48856 0.63695 0.0
C628 C 0.3364 0.49133 0.60414 0.0
C629 C 0.33484 0.46484 0.58151 0.0
C630 C 0.37878 0.4546 0.68228 0.0
C631 C 0.32419 0.52279 0.59178 0.0
C632 C 0.34293 0.55891 0.70029 0.0
C633 C 0.37204 0.57455 0.69526 0.0
C634 C 0.33616 0.53025 0.6824 0.0
C635 C 0.35861 0.51752 0.6582 0.0
C636 C 0.38811 0.53296 0.6534 0.0
C637 C 0.39473 0.56069 0.67256 0.0
C638 C 0.30495 0.51375 0.68912 0.0
C639 C 0.41259 0.52055 0.62745 0.0
H640 H 0.37362 0.4107 0.63016 0.0
H641 H 0.32434 0.46709 0.55588 0.0
H642 H 0.40267 0.46578 0.68263 0.0
H643 H 0.36426 0.46637 0.70307 0.0
H644 H 0.38167 0.4292 0.68851 0.0
H645 H 0.31086 0.52041 0.56688 0.0
H646 H 0.3084 0.53406 0.6117 0.0
H647 H 0.34461 0.53898 0.58779 0.0
H648 H 0.32524 0.56924 0.71778 0.0
H649 H 0.41788 0.5716 0.66951 0.0
H650 H 0.30929 0.48853 0.69513 0.0
H651 H 0.28994 0.51418 0.66541 0.0
H652 H 0.29145 0.52503 0.71107 0.0
H653 H 0.42091 0.49675 0.63501 0.0
H654 H 0.43366 0.53631 0.62561 0.0
H655 H 0.40174 0.51805 0.60119 0.0
C656 C 0.04681 0.80883 0.10025 0.0
C657 C 0.05433 0.83783 0.08514 0.0
C658 C 0.01895 0.80549 0.12042 0.0
C659 C 0.99772 0.83145 0.1246 0.0
C660 C 0.00544 0.86082 0.10964 0.0
C661 C 0.03379 0.86374 0.09058 0.0
C662 C 0.01201 0.77412 0.13685 0.0
C663 C 0.98323 0.88898 0.11274 0.0
C664 C 0.90886 0.82277 0.13924 0.0
C665 C 0.9055 0.8356 0.173 0.0
C666 C 0.9391 0.81914 0.12386 0.0
C667 C 0.96659 0.82808 0.14304 0.0
C668 C 0.96334 0.83846 0.17827 0.0
C669 C 0.93271 0.84266 0.19267 0.0
C670 C 0.9413 0.80865 0.08604 0.0
C671 C 0.99203 0.8474 0.19993 0.0
H672 H 0.06271 0.7888 0.09631 0.0
H673 H 0.03925 0.88616 0.07877 0.0
H674 H 0.00663 0.7777 0.16501 0.0
H675 H 0.99064 0.76327 0.1246 0.0
H676 H 0.03226 0.75727 0.13395 0.0
H677 H 0.99268 0.91005 0.09935 0.0
H678 H 0.95973 0.88284 0.10127 0.0
H679 H 0.97917 0.89545 0.14057 0.0
H680 H 0.88768 0.81789 0.12392 0.0
H681 H 0.92997 0.85291 0.21867 0.0
H682 H 0.95999 0.79028 0.0823 0.0
H683 H 0.94812 0.82915 0.07004 0.0
H684 H 0.91833 0.7991 0.0761 0.0
H685 H 0.98612 0.84913 0.22816 0.0
H686 H 1.00115 0.87071 0.19172 0.0
H687 H 0.01149 0.82984 0.19595 0.0
C688 C 0.6905 0.5581 0.59734 0.0
C689 C 0.66725 0.55592 0.57118 0.0
C690 C 0.69543 0.53294 0.62032 0.0
C691 C 0.6769 0.50503 0.61669 0.0
C692 C 0.65386 0.50264 0.58992 0.0
C693 C 0.64928 0.52803 0.56774 0.0
C694 C 0.72003 0.53636 0.64872 0.0
C695 C 0.63375 0.47324 0.58471 0.0
C696 C 0.69668 0.423 0.6474 0.0
C697 C 0.67345 0.41923 0.67335 0.0
C698 C 0.70047 0.4521 0.63088 0.0
C699 C 0.68065 0.47802 0.64068 0.0
C700 C 0.65949 0.47518 0.66929 0.0
C701 C 0.65601 0.44575 0.68515 0.0
C702 C 0.72329 0.454 0.60051 0.0
C703 C 0.63821 0.50228 0.68094 0.0
H704 H 0.70442 0.57957 0.6002 0.0
H705 H 0.63146 0.52587 0.54743 0.0
H706 H 0.70819 0.53555 0.67458 0.0
H707 H 0.73714 0.51631 0.64721 0.0
H708 H 0.73348 0.5589 0.64711 0.0
H709 H 0.61745 0.47493 0.56207 0.0
H710 H 0.6493 0.45221 0.58057 0.0
H711 H 0.61919 0.46918 0.60837 0.0
H712 H 0.71013 0.40257 0.63801 0.0
H713 H 0.63833 0.44302 0.70553 0.0
H714 H 0.73611 0.47693 0.60094 0.0
H715 H 0.70966 0.45237 0.57579 0.0
H716 H 0.74105 0.43444 0.60046 0.0
H717 H 0.65154 0.52493 0.68152 0.0
H718 H 0.62782 0.49842 0.70717 0.0
H719 H 0.61836 0.50468 0.66213 0.0
C720 C 0.95407 0.12696 0.09242 0.0
C721 C 0.94028 0.15372 0.07747 0.0
C722 C 0.97959 0.12983 0.11567 0.0
C723 C 0.99138 0.16027 0.12481 0.0
C724 C 0.97659 0.1875 0.11127 0.0
C725 C 0.95134 0.18391 0.08749 0.0
C726 C 0.99481 0.10011 0.1293 0.0
C727 C 0.98805 0.22034 0.12107 0.0
C728 C 0.04547 0.15684 0.20338 0.0
C729 C 0.0754 0.15296 0.18733 0.0
C730 C 0.01799 0.16208 0.1835 0.0
C731 C 0.02046 0.16291 0.14673 0.0
C732 C 0.05088 0.16151 0.13067 0.0
C733 C 0.07799 0.15688 0.15121 0.0
C734 C 0.98607 0.16423 0.20167 0.0
C735 C 0.0546 0.16218 0.09153 0.0
H736 H 0.94571 0.10352 0.08499 0.0
H737 H 0.94066 0.20472 0.0763 0.0
H738 H 0.01997 0.09856 0.12037 0.0
H739 H 0.995 0.10086 0.15821 0.0
H740 H 0.98222 0.0783 0.1204 0.0
H741 H 0.97159 0.239 0.11188 0.0
H742 H 0.99062 0.22293 0.14977 0.0
H743 H 0.01189 0.2243 0.10939 0.0
H744 H 0.04311 0.15375 0.23123 0.0
H745 H 0.10113 0.15466 0.13872 0.0
H746 H 0.97324 0.14146 0.19811 0.0
H747 H 0.9711 0.18301 0.19026 0.0
H748 H 0.98865 0.1692 0.23008 0.0
H749 H 0.04486 0.13999 0.07979 0.0
H750 H 0.07993 0.16436 0.08342 0.0
H751 H 0.04092 0.18216 0.08071 0.0
C752 C 0.22744 0.80312 0.10428 0.0
C753 C 0.19457 0.79919 0.09887 0.0
C754 C 0.24266 0.79007 0.13326 0.0
C755 C 0.22458 0.77283 0.15757 0.0
C756 C 0.19149 0.76851 0.15208 0.0
C757 C 0.17693 0.78167 0.12284 0.0
C758 C 0.278 0.79508 0.13811 0.0
C759 C 0.17128 0.75044 0.17746 0.0
C760 C 0.26235 0.71656 0.22179 0.0
C761 C 0.2611 0.73467 0.25288 0.0
C762 C 0.25181 0.7291 0.19016 0.0
C763 C 0.23974 0.76045 0.18965 0.0
C764 C 0.24 0.77932 0.22061 0.0
C765 C 0.25074 0.76625 0.25176 0.0
C766 C 0.25217 0.7083 0.15765 0.0
C767 C 0.22751 0.8129 0.22123 0.0
H768 H 0.24135 0.81652 0.08591 0.0
H769 H 0.15154 0.7785 0.11902 0.0
H770 H 0.28231 0.80902 0.16249 0.0
H771 H 0.29024 0.77196 0.1408 0.0
H772 H 0.28894 0.80774 0.11603 0.0
H773 H 0.14607 0.74843 0.16895 0.0
H774 H 0.18109 0.72626 0.18058 0.0
H775 H 0.17183 0.76246 0.20347 0.0
H776 H 0.27013 0.6921 0.22247 0.0
H777 H 0.25023 0.78055 0.27558 0.0
H778 H 0.2633 0.72092 0.1357 0.0
H779 H 0.22734 0.70258 0.14994 0.0
H780 H 0.26527 0.68577 0.16151 0.0
H781 H 0.23918 0.82676 0.20058 0.0
H782 H 0.23148 0.82514 0.24678 0.0
H783 H 0.20155 0.81278 0.21578 0.0
C784 C 0.70404 0.73056 0.57677 0.0
C785 C 0.70859 0.69795 0.57131 0.0
C786 C 0.72594 0.74866 0.59635 0.0
C787 C 0.7525 0.7336 0.61168 0.0
C788 C 0.75607 0.70034 0.60799 0.0
C789 C 0.73437 0.68299 0.58735 0.0
C790 C 0.72161 0.78413 0.59895 0.0
C791 C 0.78339 0.68322 0.62487 0.0
C792 C 0.82685 0.78363 0.62386 0.0
C793 C 0.82375 0.79465 0.65854 0.0
C794 C 0.80408 0.76348 0.60856 0.0
C795 C 0.77796 0.75305 0.62867 0.0
C796 C 0.77562 0.76243 0.66427 0.0
C797 C 0.79831 0.78341 0.67868 0.0
C798 C 0.80739 0.75433 0.57041 0.0
C799 C 0.74864 0.75106 0.68685 0.0
H800 H 0.68425 0.74222 0.56422 0.0
H801 H 0.73775 0.6577 0.58344 0.0
H802 H 0.72198 0.79229 0.62662 0.0
H803 H 0.74168 0.79589 0.58554 0.0
H804 H 0.69891 0.79199 0.58704 0.0
H805 H 0.78039 0.6571 0.62344 0.0
H806 H 0.80605 0.68928 0.61165 0.0
H807 H 0.78563 0.69081 0.65263 0.0
H808 H 0.84686 0.7913 0.60827 0.0
H809 H 0.7954 0.79181 0.70539 0.0
H810 H 0.78629 0.76276 0.55589 0.0
H811 H 0.80828 0.7282 0.56712 0.0
H812 H 0.82915 0.76441 0.55842 0.0
H813 H 0.72591 0.7618 0.67831 0.0
H814 H 0.75228 0.75736 0.71483 0.0
H815 H 0.74608 0.72498 0.68408 0.0
C816 C 0.81538 0.22245 0.09033 0.0
C817 C 0.80148 0.20027 0.0672 0.0
C818 C 0.79641 0.24244 0.11171 0.0
C819 C 0.76278 0.24037 0.10972 0.0
C820 C 0.74867 0.2173 0.08736 0.0
C821 C 0.76814 0.19749 0.06654 0.0
C822 C 0.81234 0.26646 0.13555 0.0
C823 C 0.7129 0.21432 0.08436 0.0
C824 C 0.70583 0.27661 0.177 0.0
C825 C 0.6952 0.30361 0.15978 0.0
C826 C 0.72919 0.25659 0.16194 0.0
C827 C 0.74206 0.26369 0.12884 0.0
C828 C 0.73271 0.29185 0.11233 0.0
C829 C 0.70954 0.31149 0.12805 0.0
C830 C 0.7388 0.22699 0.18057 0.0
C831 C 0.74587 0.30039 0.07709 0.0
H832 H 0.8411 0.22465 0.09127 0.0
H833 H 0.75708 0.18038 0.04896 0.0
H834 H 0.8075 0.29066 0.12625 0.0
H835 H 0.80243 0.26512 0.16232 0.0
H836 H 0.83856 0.26295 0.13669 0.0
H837 H 0.70571 0.19412 0.06711 0.0
H838 H 0.70211 0.21113 0.11047 0.0
H839 H 0.70284 0.23641 0.07373 0.0
H840 H 0.69479 0.27027 0.20144 0.0
H841 H 0.70192 0.33266 0.11494 0.0
H842 H 0.76512 0.22438 0.18067 0.0
H843 H 0.72891 0.20596 0.16659 0.0
H844 H 0.73 0.22705 0.20791 0.0
H845 H 0.7723 0.29976 0.07736 0.0
H846 H 0.73802 0.32426 0.06901 0.0
H847 H 0.73783 0.28274 0.05715 0.0
C848 C 0.29807 0.32034 0.62828 0.0
C849 C 0.30897 0.30214 0.59959 0.0
C850 C 0.28612 0.30591 0.65823 0.0
C851 C 0.28456 0.27245 0.65934 0.0
C852 C 0.29485 0.25396 0.63017 0.0
C853 C 0.30719 0.26901 0.60077 0.0
C854 C 0.27587 0.32646 0.68899 0.0
C855 C 0.29313 0.21826 0.63014 0.0
C856 C 0.28548 0.23545 0.74862 0.0
C857 C 0.25294 0.23007 0.75485 0.0
C858 C 0.29603 0.24898 0.7176 0.0
C859 C 0.27362 0.25686 0.69171 0.0
C860 C 0.24085 0.25059 0.69723 0.0
C861 C 0.23088 0.23746 0.7288 0.0
C862 C 0.33117 0.25539 0.71284 0.0
C863 C 0.21628 0.25828 0.67001 0.0
H864 H 0.29953 0.34594 0.62766 0.0
H865 H 0.31532 0.25477 0.57861 0.0
H866 H 0.25081 0.32124 0.69608 0.0
H867 H 0.2908 0.3211 0.71195 0.0
H868 H 0.27791 0.35212 0.68368 0.0
H869 H 0.30035 0.20741 0.60467 0.0
H870 H 0.30894 0.20898 0.65067 0.0
H871 H 0.26852 0.21058 0.63631 0.0
H872 H 0.30285 0.22914 0.76813 0.0
H873 H 0.20569 0.23367 0.73338 0.0
H874 H 0.33507 0.28109 0.70928 0.0
H875 H 0.34013 0.24291 0.68901 0.0
H876 H 0.34554 0.24771 0.73542 0.0
H877 H 0.21552 0.28422 0.66622 0.0
H878 H 0.19205 0.2502 0.67736 0.0
H879 H 0.22292 0.24701 0.6446 0.0
C880 C 0.68262 0.71441 0.40834 0.0
C881 C 0.69854 0.6897 0.42481 0.0
C882 C 0.69544 0.7283 0.37854 0.0
C883 C 0.72534 0.71781 0.36539 0.0
C884 C 0.74195 0.69344 0.38249 0.0
C885 C 0.72812 0.67934 0.41172 0.0
C886 C 0.67657 0.75367 0.36062 0.0
C887 C 0.77423 0.68219 0.36982 0.0
C888 C 0.73996 0.7323 0.26942 0.0
C889 C 0.75583 0.76156 0.27044 0.0
C890 C 0.73072 0.71737 0.30012 0.0
C891 C 0.73832 0.7315 0.33283 0.0
C892 C 0.75623 0.75987 0.33416 0.0
C893 C 0.7645 0.77474 0.30298 0.0
C894 C 0.71138 0.68729 0.29748 0.0
C895 C 0.76549 0.77526 0.36854 0.0
H896 H 0.65963 0.72231 0.41822 0.0
H897 H 0.74063 0.66042 0.42458 0.0
H898 H 0.69074 0.77575 0.35943 0.0
H899 H 0.67135 0.74599 0.33338 0.0
H900 H 0.65367 0.7591 0.37412 0.0
H901 H 0.78493 0.66448 0.3873 0.0
H902 H 0.77213 0.67138 0.34332 0.0
H903 H 0.79073 0.70258 0.36791 0.0
H904 H 0.7339 0.72141 0.24448 0.0
H905 H 0.77657 0.79738 0.30424 0.0
H906 H 0.68728 0.69158 0.30868 0.0
H907 H 0.72269 0.6684 0.3128 0.0
H908 H 0.70868 0.67859 0.27011 0.0
H909 H 0.74393 0.78499 0.38176 0.0
H910 H 0.78279 0.79483 0.36517 0.0
H911 H 0.77609 0.75752 0.38599 0.0
C912 C 0.79677 0.17534 0.89349 0.0
C913 C 0.81111 0.19298 0.92059 0.0
C914 C 0.78425 0.1902 0.86419 0.0
C915 C 0.7858 0.22357 0.86199 0.0
C916 C 0.79969 0.2416 0.88952 0.0
C917 C 0.81235 0.22608 0.91839 0.0
C918 C 0.76992 0.17009 0.83522 0.0
C919 C 0.80148 0.27725 0.88827 0.0
C920 C 0.78295 0.25626 0.77073 0.0
C921 C 0.75061 0.2642 0.76739 0.0
C922 C 0.79484 0.24373 0.80165 0.0
C923 C 0.77398 0.23934 0.83019 0.0
C924 C 0.7416 0.2485 0.82757 0.0
C925 C 0.73026 0.26071 0.79616 0.0
C926 C 0.82953 0.23426 0.80336 0.0
C927 C 0.7187 0.24444 0.85757 0.0
H928 H 0.79582 0.14975 0.89485 0.0
H929 H 0.82323 0.23994 0.93927 0.0
H930 H 0.74502 0.17765 0.83035 0.0
H931 H 0.78353 0.17338 0.81073 0.0
H932 H 0.76993 0.1445 0.84126 0.0
H933 H 0.81166 0.28792 0.9125 0.0
H934 H 0.81645 0.28429 0.86587 0.0
H935 H 0.77736 0.28733 0.88425 0.0
H936 H 0.79899 0.25948 0.7489 0.0
H937 H 0.7052 0.26652 0.79377 0.0
H938 H 0.83146 0.20835 0.80702 0.0
H939 H 0.84113 0.24608 0.82608 0.0
H940 H 0.84287 0.24038 0.77939 0.0
H941 H 0.71544 0.21887 0.86247 0.0
H942 H 0.69499 0.25509 0.85241 0.0
H943 H 0.72853 0.25547 0.88174 0.0
C944 C 0.26267 0.29511 0.45421 0.0
C945 C 0.29593 0.29149 0.45357 0.0
C946 C 0.24293 0.27522 0.43406 0.0
C947 C 0.25671 0.25115 0.41256 0.0
C948 C 0.29028 0.24809 0.41074 0.0
C949 C 0.3095 0.26826 0.4313 0.0
C950 C 0.20721 0.2793 0.43673 0.0
C951 C 0.30585 0.22288 0.3879 0.0
C952 C 0.20283 0.18067 0.39511 0.0
C953 C 0.18993 0.18773 0.3625 0.0
C954 C 0.22552 0.20049 0.41105 0.0
C955 C 0.23574 0.22803 0.39391 0.0
C956 C 0.22404 0.23447 0.36022 0.0
C957 C 0.20121 0.21425 0.34491 0.0
C958 C 0.23752 0.19267 0.44692 0.0
C959 C 0.23451 0.26348 0.34103 0.0
H960 H 0.2519 0.31306 0.47113 0.0
H961 H 0.33517 0.26537 0.43039 0.0
H962 H 0.1968 0.282 0.41042 0.0
H963 H 0.19649 0.25785 0.44808 0.0
H964 H 0.20033 0.30019 0.45321 0.0
H965 H 0.33221 0.22527 0.38717 0.0
H966 H 0.29988 0.19913 0.39778 0.0
H967 H 0.29662 0.22398 0.36089 0.0
H968 H 0.19464 0.15989 0.40855 0.0
H969 H 0.1912 0.21998 0.31982 0.0
H970 H 0.22952 0.21117 0.46601 0.0
H971 H 0.26396 0.19246 0.44721 0.0
H972 H 0.2288 0.16935 0.45571 0.0
H973 H 0.22515 0.28502 0.35465 0.0
H974 H 0.22589 0.26331 0.31368 0.0
H975 H 0.26089 0.26525 0.34087 0.0
C976 C 0.22768 0.80686 0.93008 0.0
C977 C 0.20674 0.79187 0.95307 0.0
C978 C 0.24962 0.78928 0.90967 0.0
C979 C 0.25087 0.75594 0.9125 0.0
C980 C 0.22902 0.7406 0.93468 0.0
C981 C 0.20716 0.75871 0.95453 0.0
C982 C 0.27221 0.80649 0.88599 0.0
C983 C 0.22961 0.70511 0.93857 0.0
C984 C 0.29429 0.70236 0.84666 0.0
C985 C 0.32271 0.69596 0.86441 0.0
C986 C 0.27114 0.72288 0.86129 0.0
C987 C 0.27648 0.73718 0.89451 0.0
C988 C 0.30571 0.73189 0.91179 0.0
C989 C 0.32847 0.71151 0.89647 0.0
C990 C 0.24043 0.7282 0.84188 0.0
C991 C 0.31245 0.74673 0.94719 0.0
H992 H 0.22739 0.83244 0.92849 0.0
H993 H 0.19107 0.74684 0.97209 0.0
H994 H 0.29689 0.80443 0.89597 0.0
H995 H 0.27191 0.79556 0.85942 0.0
H996 H 0.26616 0.83201 0.88414 0.0
H997 H 0.20987 0.69664 0.9553 0.0
H998 H 0.22789 0.69307 0.91265 0.0
H999 H 0.25258 0.69787 0.95027 0.0
H1000 H 0.28953 0.69031 0.82199 0.0
H1001 H 0.35063 0.70719 0.91004 0.0
H1002 H 0.23501 0.75388 0.84078 0.0
H1003 H 0.22047 0.7169 0.85593 0.0
H1004 H 0.24134 0.71819 0.81486 0.0
H1005 H 0.30931 0.77278 0.94644 0.0
H1006 H 0.33697 0.74153 0.95633 0.0
H1007 H 0.29522 0.7377 0.96656 0.0
loop_
_geom_bond_atom_site_label_1
_geom_bond_atom_site_label_2
_geom_bond_distance
_geom_bond_site_symmetry_2
_ccdc_geom_bond_type
Fe0 O2 1.918 . S
Fe0 O5 1.997 . S
Fe0 O6 2.002 . S
Fe0 O11 1.976 1_554 S
Fe0 O14 1.996 1_554 S
Fe1 O2 1.918 . S
Fe1 O9 1.997 . S
Fe1 O12 1.996 1_554 S
Fe1 O16 1.976 1_554 S
Fe1 O19 2.002 . S
O2 Fe0 1.918 . S
O2 Fe1 1.918 . S
O2 Fe3 1.918 . S
Fe3 O2 1.918 . S
Fe3 O4 2.002 . S
Fe3 O13 1.976 1_554 S
Fe3 O17 1.996 1_554 S
Fe3 O20 1.997 . S
O4 Fe3 2.002 . S
O4 C21 1.295 . S
O5 Fe0 1.997 . S
O5 C21 1.235 . S
O6 Fe0 2.002 . S
O6 C7 1.295 . S
C7 O6 1.295 . S
C7 O9 1.235 . S
C8 O13 1.287 . S
C8 O14 1.255 . S
O9 Fe1 1.997 . S
O9 C7 1.235 . S
C10 O16 1.287 . S
C10 O17 1.255 . S
O11 Fe0 1.976 1_556 S
O11 C18 1.287 . S
O12 Fe1 1.996 1_556 S
O12 C18 1.255 . S
O13 Fe3 1.976 1_556 S
O13 C8 1.287 . S
O14 Fe0 1.996 1_556 S
O14 C8 1.255 . S
C15 O19 1.295 . S
C15 O20 1.235 . S
O16 Fe1 1.976 1_556 S
O16 C10 1.287 . S
O17 Fe3 1.996 1_556 S
O17 C10 1.255 . S
C18 O11 1.287 . S
C18 O12 1.255 . S
O19 Fe1 2.002 . S
O19 C15 1.295 . S
O20 Fe3 1.997 . S
O20 C15 1.235 . S
C21 O4 1.295 . S
C21 O5 1.235 . S
Fe22 O24 1.918 . S
Fe22 O27 1.997 . S
Fe22 O28 2.002 . S
Fe22 O33 1.976 . S
Fe22 O36 1.996 . S
Fe23 O24 1.918 . S
Fe23 O31 1.997 . S
Fe23 O34 1.996 . S
Fe23 O38 1.976 . S
Fe23 O41 2.002 . S
O24 Fe22 1.918 . S
O24 Fe23 1.918 . S
O24 Fe25 1.918 . S
Fe25 O24 1.918 . S
Fe25 O26 2.002 . S
Fe25 O35 1.976 . S
Fe25 O39 1.996 . S
Fe25 O42 1.997 . S
O26 Fe25 2.002 . S
O26 C43 1.295 . S
O27 Fe22 1.997 . S
O27 C43 1.235 . S
O28 Fe22 2.002 . S
O28 C29 1.295 . S
C29 O28 1.295 . S
C29 O31 1.235 . S
C30 O35 1.287 . S
C30 O36 1.255 . S
O31 Fe23 1.997 . S
O31 C29 1.235 . S
C32 O38 1.287 . S
C32 O39 1.255 . S
O33 Fe22 1.976 . S
O33 C40 1.287 . S
O34 Fe23 1.996 . S
O34 C40 1.255 . S
O35 Fe25 1.976 . S
O35 C30 1.287 . S
O36 Fe22 1.996 . S
O36 C30 1.255 . S
C37 O41 1.295 . S
C37 O42 1.235 . S
O38 Fe23 1.976 . S
O38 C32 1.287 . S
O39 Fe25 1.996 . S
O39 C32 1.255 . S
C40 O33 1.287 . S
C40 O34 1.255 . S
O41 Fe23 2.002 . S
O41 C37 1.295 . S
O42 Fe25 1.997 . S
O42 C37 1.235 . S
C43 O26 1.295 . S
C43 O27 1.235 . S
Fe44 O46 1.918 . S
Fe44 O49 1.997 1_554 S
Fe44 O50 2.002 1_554 S
Fe44 O55 1.976 . S
Fe44 O58 1.996 . S
Fe45 O46 1.918 . S
Fe45 O53 1.997 1_554 S
Fe45 O56 1.996 . S
Fe45 O60 1.976 . S
Fe45 O63 2.002 1_554 S
O46 Fe44 1.918 . S
O46 Fe45 1.918 . S
O46 Fe47 1.918 1_554 S
Fe47 O46 1.918 1_556 S
Fe47 O48 2.002 . S
Fe47 O57 1.976 1_556 S
Fe47 O61 1.996 1_556 S
Fe47 O64 1.997 . S
O48 Fe47 2.002 . S
O48 C65 1.295 . S
O49 Fe44 1.997 1_556 S
O49 C65 1.235 . S
O50 Fe44 2.002 1_556 S
O50 C51 1.295 . S
C51 O50 1.295 . S
C51 O53 1.235 . S
C52 O57 1.287 . S
C52 O58 1.255 . S
O53 Fe45 1.997 1_556 S
O53 C51 1.235 . S
C54 O60 1.287 . S
C54 O61 1.255 . S
O55 Fe44 1.976 . S
O55 C62 1.287 . S
O56 Fe45 1.996 . S
O56 C62 1.255 . S
O57 Fe47 1.976 1_554 S
O57 C52 1.287 . S
O58 Fe44 1.996 . S
O58 C52 1.255 . S
C59 O63 1.295 . S
C59 O64 1.235 . S
O60 Fe45 1.976 . S
O60 C54 1.287 . S
O61 Fe47 1.996 1_554 S
O61 C54 1.255 . S
C62 O55 1.287 . S
C62 O56 1.255 . S
O63 Fe45 2.002 1_556 S
O63 C59 1.295 . S
O64 Fe47 1.997 . S
O64 C59 1.235 . S
C65 O48 1.295 . S
C65 O49 1.235 . S
Fe66 O68 1.918 . S
Fe66 O71 1.997 . S
Fe66 O72 2.002 . S
Fe66 O77 1.976 . S
Fe66 O80 1.996 . S
Fe67 O68 1.918 . S
Fe67 O75 1.997 . S
Fe67 O78 1.996 . S
Fe67 O82 1.976 . S
Fe67 O85 2.002 . S
O68 Fe66 1.918 . S
O68 Fe67 1.918 . S
O68 Fe69 1.918 . S
Fe69 O68 1.918 . S
Fe69 O70 2.002 . S
Fe69 O79 1.976 . S
Fe69 O83 1.996 . S
Fe69 O86 1.997 . S
O70 Fe69 2.002 . S
O70 C87 1.295 . S
O71 Fe66 1.997 . S
O71 C87 1.235 . S
O72 Fe66 2.002 . S
O72 C73 1.295 . S
C73 O72 1.295 . S
C73 O75 1.235 . S
C74 O79 1.287 . S
C74 O80 1.255 . S
O75 Fe67 1.997 . S
O75 C73 1.235 . S
C76 O82 1.287 . S
C76 O83 1.255 . S
O77 Fe66 1.976 . S
O77 C84 1.287 . S
O78 Fe67 1.996 . S
O78 C84 1.255 . S
O79 Fe69 1.976 . S
O79 C74 1.287 . S
O80 Fe66 1.996 . S
O80 C74 1.255 . S
C81 O85 1.295 . S
C81 O86 1.235 . S
O82 Fe67 1.976 . S
O82 C76 1.287 . S
O83 Fe69 1.996 . S
O83 C76 1.255 . S
C84 O77 1.287 . S
C84 O78 1.255 . S
O85 Fe67 2.002 . S
O85 C81 1.295 . S
O86 Fe69 1.997 . S
O86 C81 1.235 . S
C87 O70 1.295 . S
C87 O71 1.235 . S
H88 C89 0.949 . S
C89 H88 0.949 . S
C89 C90 1.395 . S
C89 C91 1.391 . S
C90 C89 1.395 . S
C90 C93 1.390 . S
C91 C89 1.391 . S
C91 C95 1.387 . S
C91 C96 1.491 . S
H92 C93 0.950 . S
C93 C90 1.390 . S
C93 H92 0.950 . S
C93 C94 1.378 . S
C94 C93 1.378 . S
C94 C95 1.409 . S
C95 C91 1.387 . S
C95 C94 1.409 . S
C95 H97 0.951 . S
C96 C91 1.491 . S
C96 C98 1.382 . S
C96 C100 1.404 . S
H97 C95 0.951 . S
C98 C96 1.382 . S
C98 C99 1.390 . S
C98 H103 0.949 . S
C99 C98 1.390 . S
C99 C104 1.399 . S
C100 C96 1.404 . S
C100 H101 0.950 . S
C100 C102 1.375 . S
H101 C100 0.950 . S
C102 C100 1.375 . S
C102 C104 1.382 . S
C102 H106 0.950 . S
H103 C98 0.949 . S
C104 C99 1.399 . S
C104 C102 1.382 . S
C104 H105 0.952 . S
H105 C104 0.952 . S
H106 C102 0.950 . S
H107 C108 0.949 . S
C108 H107 0.949 . S
C108 C109 1.395 . S
C108 C110 1.391 . S
C109 C108 1.395 . S
C109 C112 1.390 . S
C110 C108 1.391 . S
C110 C114 1.387 . S
C110 C115 1.491 . S
H111 C112 0.950 . S
C112 C109 1.390 . S
C112 H111 0.950 . S
C112 C113 1.378 . S
C113 C112 1.378 . S
C113 C114 1.409 . S
C114 C110 1.387 . S
C114 C113 1.409 . S
C114 H116 0.951 . S
C115 C110 1.491 . S
C115 C117 1.382 . S
C115 C119 1.404 . S
H116 C114 0.951 . S
C117 C115 1.382 . S
C117 C118 1.390 . S
C117 H122 0.949 . S
C118 C117 1.390 . S
C118 C123 1.399 . S
C119 C115 1.404 . S
C119 H120 0.950 . S
C119 C121 1.375 . S
H120 C119 0.950 . S
C121 C119 1.375 . S
C121 C123 1.382 . S
C121 H125 0.950 . S
H122 C117 0.949 . S
C123 C118 1.399 . S
C123 C121 1.382 . S
C123 H124 0.952 . S
H124 C123 0.952 . S
H125 C121 0.950 . S
H126 C127 0.949 . S
C127 H126 0.949 . S
C127 C128 1.395 . S
C127 C129 1.391 . S
C128 C127 1.395 . S
C128 C131 1.390 . S
C129 C127 1.391 . S
C129 C133 1.387 . S
C129 C134 1.491 . S
H130 C131 0.950 . S
C131 C128 1.390 . S
C131 H130 0.950 . S
C131 C132 1.378 . S
C132 C131 1.378 . S
C132 C133 1.409 . S
C133 C129 1.387 . S
C133 C132 1.409 . S
C133 H135 0.951 . S
C134 C129 1.491 . S
C134 C136 1.382 . S
C134 C138 1.404 . S
H135 C133 0.951 . S
C136 C134 1.382 . S
C136 C137 1.390 . S
C136 H141 0.949 . S
C137 C136 1.390 . S
C137 C142 1.399 . S
C138 C134 1.404 . S
C138 H139 0.950 . S
C138 C140 1.375 . S
H139 C138 0.950 . S
C140 C138 1.375 . S
C140 C142 1.382 . S
C140 H144 0.950 . S
H141 C136 0.949 . S
C142 C137 1.399 . S
C142 C140 1.382 . S
C142 H143 0.952 . S
H143 C142 0.952 . S
H144 C140 0.950 . S
H145 C146 0.949 . S
C146 H145 0.949 . S
C146 C147 1.395 . S
C146 C148 1.391 . S
C147 C146 1.395 . S
C147 C150 1.390 . S
C148 C146 1.391 . S
C148 C152 1.387 . S
C148 C153 1.491 . S
H149 C150 0.950 . S
C150 C147 1.390 . S
C150 H149 0.950 . S
C150 C151 1.378 . S
C151 C150 1.378 . S
C151 C152 1.409 . S
C152 C148 1.387 . S
C152 C151 1.409 . S
C152 H154 0.951 . S
C153 C148 1.491 . S
C153 C155 1.382 . S
C153 C157 1.404 . S
H154 C152 0.951 . S
C155 C153 1.382 . S
C155 C156 1.390 . S
C155 H160 0.949 . S
C156 C155 1.390 . S
C156 C161 1.399 . S
C157 C153 1.404 . S
C157 H158 0.950 . S
C157 C159 1.375 . S
H158 C157 0.950 . S
C159 C157 1.375 . S
C159 C161 1.382 . S
C159 H163 0.950 . S
H160 C155 0.949 . S
C161 C156 1.399 . S
C161 C159 1.382 . S
C161 H162 0.952 . S
H162 C161 0.952 . S
H163 C159 0.950 . S
H164 C165 0.949 . S
C165 H164 0.949 . S
C165 C166 1.395 . S
C165 C167 1.391 . S
C166 C165 1.395 . S
C166 C169 1.390 . S
C167 C165 1.391 . S
C167 C171 1.387 . S
C167 C172 1.491 . S
H168 C169 0.950 . S
C169 C166 1.390 . S
C169 H168 0.950 . S
C169 C170 1.378 . S
C170 C169 1.378 . S
C170 C171 1.409 . S
C171 C167 1.387 . S
C171 C170 1.409 . S
C171 H173 0.951 . S
C172 C167 1.491 . S
C172 C174 1.382 . S
C172 C176 1.404 . S
H173 C171 0.951 . S
C174 C172 1.382 . S
C174 C175 1.390 . S
C174 H179 0.949 . S
C175 C174 1.390 . S
C175 C180 1.399 . S
C176 C172 1.404 . S
C176 H177 0.950 . S
C176 C178 1.375 . S
H177 C176 0.950 . S
C178 C176 1.375 . S
C178 C180 1.382 . S
C178 H182 0.950 . S
H179 C174 0.949 . S
C180 C175 1.399 . S
C180 C178 1.382 . S
C180 H181 0.952 . S
H181 C180 0.952 . S
H182 C178 0.950 . S
H183 C184 0.949 . S
C184 H183 0.949 . S
C184 C185 1.395 . S
C184 C186 1.391 . S
C185 C184 1.395 . S
C185 C188 1.390 . S
C186 C184 1.391 . S
C186 C190 1.387 . S
C186 C191 1.491 . S
H187 C188 0.950 . S
C188 C185 1.390 . S
C188 H187 0.950 . S
C188 C189 1.378 . S
C189 C188 1.378 . S
C189 C190 1.409 . S
C190 C186 1.387 . S
C190 C189 1.409 . S
C190 H192 0.951 . S
C191 C186 1.491 . S
C191 C193 1.382 . S
C191 C195 1.404 . S
H192 C190 0.951 . S
C193 C191 1.382 . S
C193 C194 1.390 . S
C193 H198 0.949 . S
C194 C193 1.390 . S
C194 C199 1.399 . S
C195 C191 1.404 . S
C195 H196 0.950 . S
C195 C197 1.375 . S
H196 C195 0.950 . S
C197 C195 1.375 . S
C197 C199 1.382 . S
C197 H201 0.950 . S
H198 C193 0.949 . S
C199 C194 1.399 . S
C199 C197 1.382 . S
C199 H200 0.952 . S
H200 C199 0.952 . S
H201 C197 0.950 . S
H202 C203 0.949 . S
C203 H202 0.949 . S
C203 C204 1.395 . S
C203 C205 1.391 . S
C204 C203 1.395 . S
C204 C207 1.390 . S
C205 C203 1.391 . S
C205 C209 1.387 . S
C205 C210 1.491 . S
H206 C207 0.950 . S
C207 C204 1.390 . S
C207 H206 0.950 . S
C207 C208 1.378 . S
C208 C207 1.378 . S
C208 C209 1.409 . S
C209 C205 1.387 . S
C209 C208 1.409 . S
C209 H211 0.951 . S
C210 C205 1.491 . S
C210 C212 1.382 . S
C210 C214 1.404 . S
H211 C209 0.951 . S
C212 C210 1.382 . S
C212 C213 1.390 . S
C212 H217 0.949 . S
C213 C212 1.390 . S
C213 C218 1.399 . S
C214 C210 1.404 . S
C214 H215 0.950 . S
C214 C216 1.375 . S
H215 C214 0.950 . S
C216 C214 1.375 . S
C216 C218 1.382 . S
C216 H220 0.950 . S
H217 C212 0.949 . S
C218 C213 1.399 . S
C218 C216 1.382 . S
C218 H219 0.952 . S
H219 C218 0.952 . S
H220 C216 0.950 . S
H221 C222 0.949 . S
C222 H221 0.949 . S
C222 C223 1.395 . S
C222 C224 1.391 . S
C223 C222 1.395 . S
C223 C226 1.390 . S
C224 C222 1.391 . S
C224 C228 1.387 . S
C224 C229 1.491 . S
H225 C226 0.950 . S
C226 C223 1.390 . S
C226 H225 0.950 . S
C226 C227 1.378 . S
C227 C226 1.378 . S
C227 C228 1.409 . S
C228 C224 1.387 . S
C228 C227 1.409 . S
C228 H230 0.951 . S
C229 C224 1.491 . S
C229 C231 1.382 . S
C229 C233 1.404 . S
H230 C228 0.951 . S
C231 C229 1.382 . S
C231 C232 1.390 . S
C231 H236 0.949 . S
C232 C231 1.390 . S
C232 C237 1.399 . S
C233 C229 1.404 . S
C233 H234 0.950 . S
C233 C235 1.375 . S
H234 C233 0.950 . S
C235 C233 1.375 . S
C235 C237 1.382 . S
C235 H239 0.950 . S
H236 C231 0.949 . S
C237 C232 1.399 . S
C237 C235 1.382 . S
C237 H238 0.952 . S
H238 C237 0.952 . S
H239 C235 0.950 . S
C240 C241 1.391 . S
C240 C242 1.394 1_565 S
C240 H256 0.931 . S
C241 C240 1.391 . S
C241 C245 1.376 . S
C242 C240 1.394 1_545 S
C242 C243 1.369 . S
C242 C246 1.531 . S
C243 C242 1.369 . S
C243 C244 1.410 1_545 S
C243 C251 1.503 . S
C244 C243 1.410 1_565 S
C244 C245 1.392 . S
C244 C247 1.511 . S
C245 C241 1.376 . S
C245 C244 1.392 . S
C245 H257 0.929 . S
C246 C242 1.531 . S
C246 H258 0.960 . S
C246 H259 0.962 . S
C246 H260 0.960 . S
C247 C244 1.511 . S
C247 H261 0.961 . S
C247 H262 0.961 1_565 S
C247 H263 0.961 1_565 S
C248 C249 1.370 . S
C248 C250 1.363 . S
C248 H264 0.931 . S
C249 C248 1.370 . S
C249 C253 1.408 . S
C250 C248 1.363 . S
C250 C251 1.370 . S
C250 C254 1.524 . S
C251 C243 1.503 . S
C251 C250 1.370 . S
C251 C252 1.403 . S
C252 C251 1.403 . S
C252 C253 1.404 . S
C252 C255 1.539 . S
C253 C249 1.408 . S
C253 C252 1.404 . S
C253 H265 0.930 . S
C254 C250 1.524 . S
C254 H266 0.958 . S
C254 H267 0.961 1_545 S
C254 H268 0.961 . S
C255 C252 1.539 . S
C255 H269 0.958 . S
C255 H270 0.961 . S
C255 H271 0.960 . S
H256 C240 0.931 . S
H257 C245 0.929 . S
H258 C246 0.960 . S
H259 C246 0.962 . S
H260 C246 0.960 . S
H261 C247 0.961 . S
H262 C247 0.961 1_545 S
H263 C247 0.961 1_545 S
H264 C248 0.931 . S
H265 C253 0.930 . S
H266 C254 0.958 . S
H267 C254 0.961 1_565 S
H268 C254 0.961 . S
H269 C255 0.958 . S
H270 C255 0.961 . S
H271 C255 0.960 . S
C272 C273 1.391 . S
C272 C274 1.394 . S
C272 H288 0.931 . S
C273 C272 1.391 . S
C273 C277 1.376 . S
C274 C272 1.394 . S
C274 C275 1.369 . S
C274 C278 1.531 . S
C275 C274 1.369 . S
C275 C276 1.410 . S
C275 C283 1.503 . S
C276 C275 1.410 . S
C276 C277 1.392 . S
C276 C279 1.511 . S
C277 C273 1.376 . S
C277 C276 1.392 . S
C277 H289 0.929 . S
C278 C274 1.531 . S
C278 H290 0.960 . S
C278 H291 0.962 . S
C278 H292 0.960 . S
C279 C276 1.511 . S
C279 H293 0.961 . S
C279 H294 0.961 . S
C279 H295 0.961 . S
C280 C281 1.370 . S
C280 C282 1.363 . S
C280 H296 0.931 . S
C281 C280 1.370 . S
C281 C285 1.408 . S
C282 C280 1.363 . S
C282 C283 1.370 . S
C282 C286 1.524 . S
C283 C275 1.503 . S
C283 C282 1.370 . S
C283 C284 1.403 . S
C284 C283 1.403 . S
C284 C285 1.404 . S
C284 C287 1.539 . S
C285 C281 1.408 . S
C285 C284 1.404 . S
C285 H297 0.930 . S
C286 C282 1.524 . S
C286 H298 0.956 . S
C286 H299 0.961 . S
C286 H300 0.961 . S
C287 C284 1.539 . S
C287 H301 0.958 . S
C287 H302 0.961 . S
C287 H303 0.960 . S
H288 C272 0.931 . S
H289 C277 0.929 . S
H290 C278 0.960 . S
H291 C278 0.962 . S
H292 C278 0.960 . S
H293 C279 0.961 . S
H294 C279 0.961 . S
H295 C279 0.961 . S
H296 C280 0.931 . S
H297 C285 0.930 . S
H298 C286 0.956 . S
H299 C286 0.961 . S
H300 C286 0.961 . S
H301 C287 0.958 . S
H302 C287 0.961 . S
H303 C287 0.960 . S
C304 C305 1.391 . S
C304 C306 1.394 1_545 S
C304 H320 0.931 . S
C305 C304 1.391 . S
C305 C309 1.376 . S
C306 C304 1.394 1_565 S
C306 C307 1.369 . S
C306 C310 1.531 . S
C307 C306 1.369 . S
C307 C308 1.410 1_565 S
C307 C315 1.503 . S
C308 C307 1.410 1_545 S
C308 C309 1.392 . S
C308 C311 1.511 . S
C309 C305 1.376 . S
C309 C308 1.392 . S
C309 H321 0.929 . S
C310 C306 1.531 . S
C310 H322 0.960 . S
C310 H323 0.962 . S
C310 H324 0.960 . S
C311 C308 1.511 . S
C311 H325 0.961 . S
C311 H326 0.961 1_545 S
C311 H327 0.961 . S
C312 C313 1.370 . S
C312 C314 1.363 . S
C312 H328 0.931 . S
C313 C312 1.370 . S
C313 C317 1.408 . S
C314 C312 1.363 . S
C314 C315 1.370 . S
C314 C318 1.524 . S
C315 C307 1.503 . S
C315 C314 1.370 . S
C315 C316 1.403 . S
C316 C315 1.403 . S
C316 C317 1.404 . S
C316 C319 1.539 . S
C317 C313 1.408 . S
C317 C316 1.404 . S
C317 H329 0.930 . S
C318 C314 1.524 . S
C318 H330 0.956 . S
C318 H331 0.961 . S
C318 H332 0.961 . S
C319 C316 1.539 . S
C319 H333 0.958 . S
C319 H334 0.961 . S
C319 H335 0.960 . S
H320 C304 0.931 . S
H321 C309 0.929 . S
H322 C310 0.960 . S
H323 C310 0.962 . S
H324 C310 0.960 . S
H325 C311 0.961 . S
H326 C311 0.961 1_565 S
H327 C311 0.961 . S
H328 C312 0.931 . S
H329 C317 0.930 . S
H330 C318 0.956 . S
H331 C318 0.961 . S
H332 C318 0.961 . S
H333 C319 0.958 . S
H334 C319 0.961 . S
H335 C319 0.960 . S
C336 C337 1.391 . S
C336 C338 1.394 . S
C336 H352 0.931 . S
C337 C336 1.391 . S
C337 C341 1.376 . S
C338 C336 1.394 . S
C338 C339 1.369 . S
C338 C342 1.531 . S
C339 C338 1.369 . S
C339 C340 1.410 . S
C339 C347 1.503 . S
C340 C339 1.410 . S
C340 C341 1.392 . S
C340 C343 1.511 . S
C341 C337 1.376 . S
C341 C340 1.392 . S
C341 H353 0.929 . S
C342 C338 1.531 . S
C342 H354 0.960 . S
C342 H355 0.962 . S
C342 H356 0.960 . S
C343 C340 1.511 . S
C343 H357 0.961 . S
C343 H358 0.961 . S
C343 H359 0.961 . S
C344 C345 1.370 . S
C344 C346 1.363 . S
C344 H360 0.931 . S
C345 C344 1.370 . S
C345 C349 1.408 . S
C346 C344 1.363 . S
C346 C347 1.370 . S
C346 C350 1.524 . S
C347 C339 1.503 . S
C347 C346 1.370 . S
C347 C348 1.403 . S
C348 C347 1.403 . S
C348 C349 1.404 . S
C348 C351 1.539 . S
C349 C345 1.408 . S
C349 C348 1.404 . S
C349 H361 0.930 . S
C350 C346 1.524 . S
C350 H362 0.956 . S
C350 H363 0.961 . S
C350 H364 0.961 . S
C351 C348 1.539 . S
C351 H365 0.958 . S
C351 H366 0.961 . S
C351 H367 0.960 . S
H352 C336 0.931 . S
H353 C341 0.929 . S
H354 C342 0.960 . S
H355 C342 0.962 . S
H356 C342 0.960 . S
H357 C343 0.961 . S
H358 C343 0.961 . S
H359 C343 0.961 . S
H360 C344 0.931 . S
H361 C349 0.930 . S
H362 C350 0.956 . S
H363 C350 0.961 . S
H364 C350 0.961 . S
H365 C351 0.958 . S
H366 C351 0.961 . S
H367 C351 0.960 . S
C368 C369 1.391 . S
C368 C370 1.394 . S
C368 H384 0.931 . S
C369 C368 1.391 . S
C369 C373 1.376 . S
C370 C368 1.394 . S
C370 C371 1.369 . S
C370 C374 1.531 . S
C371 C370 1.369 . S
C371 C372 1.410 . S
C371 C379 1.503 . S
C372 C371 1.410 . S
C372 C373 1.392 . S
C372 C375 1.511 . S
C373 C369 1.376 . S
C373 C372 1.392 . S
C373 H385 0.929 . S
C374 C370 1.531 . S
C374 H386 0.960 . S
C374 H387 0.962 . S
C374 H388 0.960 . S
C375 C372 1.511 . S
C375 H389 0.961 . S
C375 H390 0.961 . S
C375 H391 0.961 . S
C376 C377 1.370 . S
C376 C378 1.363 . S
C376 H392 0.931 . S
C377 C376 1.370 . S
C377 C381 1.408 . S
C378 C376 1.363 . S
C378 C379 1.370 . S
C378 C382 1.524 . S
C379 C371 1.503 . S
C379 C378 1.370 . S
C379 C380 1.403 . S
C380 C379 1.403 . S
C380 C381 1.404 . S
C380 C383 1.539 . S
C381 C377 1.408 . S
C381 C380 1.404 . S
C381 H393 0.930 . S
C382 C378 1.524 . S
C382 H394 0.956 . S
C382 H395 0.961 . S
C382 H396 0.961 . S
C383 C380 1.539 . S
C383 H397 0.958 . S
C383 H398 0.961 . S
C383 H399 0.960 . S
H384 C368 0.931 . S
H385 C373 0.929 . S
H386 C374 0.960 . S
H387 C374 0.962 . S
H388 C374 0.960 . S
H389 C375 0.961 . S
H390 C375 0.961 . S
H391 C375 0.961 . S
H392 C376 0.931 . S
H393 C381 0.930 . S
H394 C382 0.956 . S
H395 C382 0.961 . S
H396 C382 0.961 . S
H397 C383 0.958 . S
H398 C383 0.961 . S
H399 C383 0.960 . S
C400 C401 1.391 . S
C400 C402 1.394 1_655 S
C400 H416 0.931 . S
C401 C400 1.391 . S
C401 C405 1.376 . S
C402 C400 1.394 1_455 S
C402 C403 1.369 . S
C402 C406 1.531 . S
C403 C402 1.369 . S
C403 C404 1.410 . S
C403 C411 1.503 . S
C404 C403 1.410 . S
C404 C405 1.392 1_455 S
C404 C407 1.511 . S
C405 C401 1.376 . S
C405 C404 1.392 1_655 S
C405 H417 0.929 . S
C406 C402 1.531 . S
C406 H418 0.960 . S
C406 H419 0.962 . S
C406 H420 0.960 . S
C407 C404 1.511 . S
C407 H421 0.961 . S
C407 H422 0.961 . S
C407 H423 0.961 . S
C408 C409 1.370 . S
C408 C410 1.363 . S
C408 H424 0.931 . S
C409 C408 1.370 . S
C409 C413 1.408 . S
C410 C408 1.363 . S
C410 C411 1.370 . S
C410 C414 1.524 . S
C411 C403 1.503 . S
C411 C410 1.370 . S
C411 C412 1.403 . S
C412 C411 1.403 . S
C412 C413 1.404 . S
C412 C415 1.539 . S
C413 C409 1.408 . S
C413 C412 1.404 . S
C413 H425 0.930 . S
C414 C410 1.524 . S
C414 H426 0.956 . S
C414 H427 0.961 . S
C414 H428 0.961 . S
C415 C412 1.539 . S
C415 H429 0.958 . S
C415 H430 0.961 . S
C415 H431 0.960 . S
H416 C400 0.931 . S
H417 C405 0.929 . S
H418 C406 0.960 . S
H419 C406 0.962 . S
H420 C406 0.960 . S
H421 C407 0.961 . S
H422 C407 0.961 . S
H423 C407 0.961 . S
H424 C408 0.931 . S
H425 C413 0.930 . S
H426 C414 0.956 . S
H427 C414 0.961 . S
H428 C414 0.961 . S
H429 C415 0.958 . S
H430 C415 0.961 . S
H431 C415 0.960 . S
C432 C433 1.391 . S
C432 C434 1.394 . S
C432 H448 0.931 . S
C433 C432 1.391 . S
C433 C437 1.376 . S
C434 C432 1.394 . S
C434 C435 1.369 . S
C434 C438 1.531 . S
C435 C434 1.369 . S
C435 C436 1.410 . S
C435 C443 1.503 . S
C436 C435 1.410 . S
C436 C437 1.392 . S
C436 C439 1.511 . S
C437 C433 1.376 . S
C437 C436 1.392 . S
C437 H449 0.929 . S
C438 C434 1.531 . S
C438 H450 0.960 . S
C438 H451 0.962 . S
C438 H452 0.960 . S
C439 C436 1.511 . S
C439 H453 0.961 . S
C439 H454 0.961 . S
C439 H455 0.961 . S
C440 C441 1.370 . S
C440 C442 1.363 . S
C440 H456 0.931 . S
C441 C440 1.370 . S
C441 C445 1.408 . S
C442 C440 1.363 . S
C442 C443 1.370 . S
C442 C446 1.524 . S
C443 C435 1.503 . S
C443 C442 1.370 . S
C443 C444 1.403 . S
C444 C443 1.403 . S
C444 C445 1.404 . S
C444 C447 1.539 . S
C445 C441 1.408 . S
C445 C444 1.404 . S
C445 H457 0.930 . S
C446 C442 1.524 . S
C446 H458 0.956 . S
C446 H459 0.961 . S
C446 H460 0.961 . S
C447 C444 1.539 . S
C447 H461 0.958 . S
C447 H462 0.961 . S
C447 H463 0.960 . S
H448 C432 0.931 . S
H449 C437 0.929 . S
H450 C438 0.960 . S
H451 C438 0.962 . S
H452 C438 0.960 . S
H453 C439 0.961 . S
H454 C439 0.961 . S
H455 C439 0.961 . S
H456 C440 0.931 . S
H457 C445 0.930 . S
H458 C446 0.956 . S
H459 C446 0.961 . S
H460 C446 0.961 . S
H461 C447 0.958 . S
H462 C447 0.961 . S
H463 C447 0.960 . S
C464 C465 1.391 . S
C464 C466 1.394 . S
C464 H480 0.931 . S
C465 C464 1.391 . S
C465 C469 1.376 . S
C466 C464 1.394 . S
C466 C467 1.369 1_455 S
C466 C470 1.531 . S
C467 C466 1.369 1_655 S
C467 C468 1.410 . S
C467 C475 1.503 . S
C468 C467 1.410 . S
C468 C469 1.392 1_655 S
C468 C471 1.511 . S
C469 C465 1.376 . S
C469 C468 1.392 1_455 S
C469 H481 0.929 . S
C470 C466 1.531 . S
C470 H482 0.960 . S
C470 H483 0.962 . S
C470 H484 0.960 . S
C471 C468 1.511 . S
C471 H485 0.961 . S
C471 H486 0.961 . S
C471 H487 0.961 . S
C472 C473 1.370 . S
C472 C474 1.363 . S
C472 H488 0.931 . S
C473 C472 1.370 . S
C473 C477 1.408 . S
C474 C472 1.363 . S
C474 C475 1.370 . S
C474 C478 1.524 . S
C475 C467 1.503 . S
C475 C474 1.370 . S
C475 C476 1.403 . S
C476 C475 1.403 . S
C476 C477 1.404 . S
C476 C479 1.539 . S
C477 C473 1.408 . S
C477 C476 1.404 . S
C477 H489 0.930 . S
C478 C474 1.524 . S
C478 H490 0.956 1_655 S
C478 H491 0.961 . S
C478 H492 0.961 . S
C479 C476 1.539 . S
C479 H493 0.958 . S
C479 H494 0.961 . S
C479 H495 0.960 . S
H480 C464 0.931 . S
H481 C469 0.929 . S
H482 C470 0.960 . S
H483 C470 0.962 . S
H484 C470 0.960 . S
H485 C471 0.961 . S
H486 C471 0.961 . S
H487 C471 0.961 . S
H488 C472 0.931 . S
H489 C477 0.930 . S
H490 C478 0.956 1_455 S
H491 C478 0.961 . S
H492 C478 0.961 . S
H493 C479 0.958 . S
H494 C479 0.961 . S
H495 C479 0.960 . S
C496 C497 1.391 . S
C496 C498 1.394 . S
C496 H512 0.931 . S
C497 C496 1.391 . S
C497 C501 1.376 . S
C498 C496 1.394 . S
C498 C499 1.369 1_545 S
C498 C502 1.531 . S
C499 C498 1.369 1_565 S
C499 C500 1.410 . S
C499 C507 1.503 . S
C500 C499 1.410 . S
C500 C501 1.392 1_565 S
C500 C503 1.511 . S
C501 C497 1.376 . S
C501 C500 1.392 1_545 S
C501 H513 0.929 . S
C502 C498 1.531 . S
C502 H514 0.960 1_545 S
C502 H515 0.962 . S
C502 H516 0.960 . S
C503 C500 1.511 . S
C503 H517 0.961 . S
C503 H518 0.961 . S
C503 H519 0.961 . S
C504 C505 1.370 . S
C504 C506 1.363 . S
C504 H520 0.931 . S
C505 C504 1.370 . S
C505 C509 1.408 . S
C506 C504 1.363 . S
C506 C507 1.370 . S
C506 C510 1.524 . S
C507 C499 1.503 . S
C507 C506 1.370 . S
C507 C508 1.403 . S
C508 C507 1.403 . S
C508 C509 1.404 . S
C508 C511 1.539 . S
C509 C505 1.408 . S
C509 C508 1.404 . S
C509 H521 0.930 . S
C510 C506 1.524 . S
C510 H522 0.956 . S
C510 H523 0.961 . S
C510 H524 0.961 . S
C511 C508 1.539 . S
C511 H525 0.958 . S
C511 H526 0.961 . S
C511 H527 0.960 . S
H512 C496 0.931 . S
H513 C501 0.929 . S
H514 C502 0.960 1_565 S
H515 C502 0.962 . S
H516 C502 0.960 . S
H517 C503 0.961 . S
H518 C503 0.961 . S
H519 C503 0.961 . S
H520 C504 0.931 . S
H521 C509 0.930 . S
H522 C510 0.956 . S
H523 C510 0.961 . S
H524 C510 0.961 . S
H525 C511 0.958 . S
H526 C511 0.961 . S
H527 C511 0.960 . S
C528 C529 1.391 . S
C528 C530 1.394 . S
C528 H544 0.931 . S
C529 C528 1.391 . S
C529 C533 1.376 . S
C530 C528 1.394 . S
C530 C531 1.369 . S
C530 C534 1.531 . S
C531 C530 1.369 . S
C531 C532 1.410 . S
C531 C539 1.503 . S
C532 C531 1.410 . S
C532 C533 1.392 . S
C532 C535 1.511 . S
C533 C529 1.376 . S
C533 C532 1.392 . S
C533 H545 0.929 . S
C534 C530 1.531 . S
C534 H546 0.960 . S
C534 H547 0.962 . S
C534 H548 0.960 . S
C535 C532 1.511 . S
C535 H549 0.961 . S
C535 H550 0.961 . S
C535 H551 0.961 . S
C536 C537 1.370 . S
C536 C538 1.363 . S
C536 H552 0.931 . S
C537 C536 1.370 . S
C537 C541 1.408 . S
C538 C536 1.363 . S
C538 C539 1.370 . S
C538 C542 1.524 . S
C539 C531 1.503 . S
C539 C538 1.370 . S
C539 C540 1.403 . S
C540 C539 1.403 . S
C540 C541 1.404 . S
C540 C543 1.539 . S
C541 C537 1.408 . S
C541 C540 1.404 . S
C541 H553 0.930 . S
C542 C538 1.524 . S
C542 H554 0.956 . S
C542 H555 0.961 . S
C542 H556 0.961 . S
C543 C540 1.539 . S
C543 H557 0.958 . S
C543 H558 0.961 . S
C543 H559 0.960 . S
H544 C528 0.931 . S
H545 C533 0.929 . S
H546 C534 0.960 . S
H547 C534 0.962 . S
H548 C534 0.960 . S
H549 C535 0.961 . S
H550 C535 0.961 . S
H551 C535 0.961 . S
H552 C536 0.931 . S
H553 C541 0.930 . S
H554 C542 0.956 . S
H555 C542 0.961 . S
H556 C542 0.961 . S
H557 C543 0.958 . S
H558 C543 0.961 . S
H559 C543 0.960 . S
C560 C561 1.391 . S
C560 C562 1.394 . S
C560 H576 0.931 . S
C561 C560 1.391 . S
C561 C565 1.376 . S
C562 C560 1.394 . S
C562 C563 1.369 1_565 S
C562 C566 1.531 . S
C563 C562 1.369 1_545 S
C563 C564 1.410 . S
C563 C571 1.503 . S
C564 C563 1.410 . S
C564 C565 1.392 1_545 S
C564 C567 1.511 . S
C565 C561 1.376 . S
C565 C564 1.392 1_565 S
C565 H577 0.929 . S
C566 C562 1.531 . S
C566 H578 0.960 . S
C566 H579 0.962 . S
C566 H580 0.960 . S
C567 C564 1.511 . S
C567 H581 0.961 . S
C567 H582 0.961 . S
C567 H583 0.961 . S
C568 C569 1.370 . S
C568 C570 1.363 . S
C568 H584 0.931 . S
C569 C568 1.370 . S
C569 C573 1.408 . S
C570 C568 1.363 . S
C570 C571 1.370 . S
C570 C574 1.524 . S
C571 C563 1.503 . S
C571 C570 1.370 . S
C571 C572 1.403 . S
C572 C571 1.403 . S
C572 C573 1.404 . S
C572 C575 1.539 . S
C573 C569 1.408 . S
C573 C572 1.404 . S
C573 H585 0.930 . S
C574 C570 1.524 . S
C574 H586 0.956 . S
C574 H587 0.961 . S
C574 H588 0.961 . S
C575 C572 1.539 . S
C575 H589 0.958 . S
C575 H590 0.961 . S
C575 H591 0.960 . S
H576 C560 0.931 . S
H577 C565 0.929 . S
H578 C566 0.960 . S
H579 C566 0.962 . S
H580 C566 0.960 . S
H581 C567 0.961 . S
H582 C567 0.961 . S
H583 C567 0.961 . S
H584 C568 0.931 . S
H585 C573 0.930 . S
H586 C574 0.956 . S
H587 C574 0.961 . S
H588 C574 0.961 . S
H589 C575 0.958 . S
H590 C575 0.961 . S
H591 C575 0.960 . S
C592 C593 1.391 . S
C592 C594 1.394 . S
C592 H608 0.931 . S
C593 C592 1.391 . S
C593 C597 1.376 . S
C594 C592 1.394 . S
C594 C595 1.369 . S
C594 C598 1.531 . S
C595 C594 1.369 . S
C595 C596 1.410 . S
C595 C603 1.503 . S
C596 C595 1.410 . S
C596 C597 1.392 . S
C596 C599 1.511 . S
C597 C593 1.376 . S
C597 C596 1.392 . S
C597 H609 0.929 . S
C598 C594 1.531 . S
C598 H610 0.960 . S
C598 H611 0.962 . S
C598 H612 0.960 . S
C599 C596 1.511 . S
C599 H613 0.961 . S
C599 H614 0.961 . S
C599 H615 0.961 . S
C600 C601 1.370 . S
C600 C602 1.363 . S
C600 H616 0.931 . S
C601 C600 1.370 . S
C601 C605 1.408 . S
C602 C600 1.363 . S
C602 C603 1.370 . S
C602 C606 1.524 . S
C603 C595 1.503 . S
C603 C602 1.370 . S
C603 C604 1.403 . S
C604 C603 1.403 . S
C604 C605 1.404 . S
C604 C607 1.539 . S
C605 C601 1.408 . S
C605 C604 1.404 . S
C605 H617 0.930 . S
C606 C602 1.524 . S
C606 H618 0.956 . S
C606 H619 0.961 . S
C606 H620 0.961 . S
C607 C604 1.539 . S
C607 H621 0.958 . S
C607 H622 0.961 . S
C607 H623 0.960 . S
H608 C592 0.931 . S
H609 C597 0.929 . S
H610 C598 0.960 . S
H611 C598 0.962 . S
H612 C598 0.960 . S
H613 C599 0.961 . S
H614 C599 0.961 . S
H615 C599 0.961 . S
H616 C600 0.931 . S
H617 C605 0.930 . S
H618 C606 0.956 . S
H619 C606 0.961 . S
H620 C606 0.961 . S
H621 C607 0.958 . S
H622 C607 0.961 . S
H623 C607 0.960 . S
C624 C625 1.391 . S
C624 C626 1.394 . S
C624 H640 0.931 . S
C625 C624 1.391 . S
C625 C629 1.376 . S
C626 C624 1.394 . S
C626 C627 1.369 . S
C626 C630 1.531 . S
C627 C626 1.369 . S
C627 C628 1.410 . S
C627 C635 1.503 . S
C628 C627 1.410 . S
C628 C629 1.392 . S
C628 C631 1.511 . S
C629 C625 1.376 . S
C629 C628 1.392 . S
C629 H641 0.929 . S
C630 C626 1.531 . S
C630 H642 0.960 . S
C630 H643 0.962 . S
C630 H644 0.960 . S
C631 C628 1.511 . S
C631 H645 0.961 . S
C631 H646 0.961 . S
C631 H647 0.961 . S
C632 C633 1.370 . S
C632 C634 1.363 . S
C632 H648 0.931 . S
C633 C632 1.370 . S
C633 C637 1.408 . S
C634 C632 1.363 . S
C634 C635 1.370 . S
C634 C638 1.524 . S
C635 C627 1.503 . S
C635 C634 1.370 . S
C635 C636 1.403 . S
C636 C635 1.403 . S
C636 C637 1.404 . S
C636 C639 1.539 . S
C637 C633 1.408 . S
C637 C636 1.404 . S
C637 H649 0.930 . S
C638 C634 1.524 . S
C638 H650 0.956 . S
C638 H651 0.961 . S
C638 H652 0.961 . S
C639 C636 1.539 . S
C639 H653 0.958 . S
C639 H654 0.961 . S
C639 H655 0.960 . S
H640 C624 0.931 . S
H641 C629 0.929 . S
H642 C630 0.960 . S
H643 C630 0.962 . S
H644 C630 0.960 . S
H645 C631 0.961 . S
H646 C631 0.961 . S
H647 C631 0.961 . S
H648 C632 0.931 . S
H649 C637 0.930 . S
H650 C638 0.956 . S
H651 C638 0.961 . S
H652 C638 0.961 . S
H653 C639 0.958 . S
H654 C639 0.961 . S
H655 C639 0.960 . S
C656 C657 1.391 . S
C656 C658 1.394 . S
C656 H672 0.931 . S
C657 C656 1.391 . S
C657 C661 1.376 . S
C658 C656 1.394 . S
C658 C659 1.369 1_455 S
C658 C662 1.531 . S
C659 C658 1.369 1_655 S
C659 C660 1.410 . S
C659 C667 1.503 . S
C660 C659 1.410 . S
C660 C661 1.392 1_655 S
C660 C663 1.511 . S
C661 C657 1.376 . S
C661 C660 1.392 1_455 S
C661 H673 0.929 . S
C662 C658 1.531 . S
C662 H674 0.960 1_455 S
C662 H675 0.962 . S
C662 H676 0.960 . S
C663 C660 1.511 . S
C663 H677 0.961 . S
C663 H678 0.961 . S
C663 H679 0.961 . S
C664 C665 1.370 . S
C664 C666 1.363 . S
C664 H680 0.931 . S
C665 C664 1.370 . S
C665 C669 1.408 . S
C666 C664 1.363 . S
C666 C667 1.370 . S
C666 C670 1.524 . S
C667 C659 1.503 . S
C667 C666 1.370 . S
C667 C668 1.403 . S
C668 C667 1.403 . S
C668 C669 1.404 . S
C668 C671 1.539 . S
C669 C665 1.408 . S
C669 C668 1.404 . S
C669 H681 0.930 . S
C670 C666 1.524 . S
C670 H682 0.956 . S
C670 H683 0.961 . S
C670 H684 0.961 . S
C671 C668 1.539 . S
C671 H685 0.958 . S
C671 H686 0.961 . S
C671 H687 0.960 . S
H672 C656 0.931 . S
H673 C661 0.929 . S
H674 C662 0.960 1_655 S
H675 C662 0.962 . S
H676 C662 0.960 . S
H677 C663 0.961 . S
H678 C663 0.961 . S
H679 C663 0.961 . S
H680 C664 0.931 . S
H681 C669 0.930 . S
H682 C670 0.956 . S
H683 C670 0.961 . S
H684 C670 0.961 . S
H685 C671 0.958 . S
H686 C671 0.961 . S
H687 C671 0.960 . S
C688 C689 1.391 . S
C688 C690 1.394 . S
C688 H704 0.931 . S
C689 C688 1.391 . S
C689 C693 1.376 . S
C690 C688 1.394 . S
C690 C691 1.369 . S
C690 C694 1.531 . S
C691 C690 1.369 . S
C691 C692 1.410 . S
C691 C699 1.503 . S
C692 C691 1.410 . S
C692 C693 1.392 . S
C692 C695 1.511 . S
C693 C689 1.376 . S
C693 C692 1.392 . S
C693 H705 0.929 . S
C694 C690 1.531 . S
C694 H706 0.960 . S
C694 H707 0.962 . S
C694 H708 0.960 . S
C695 C692 1.511 . S
C695 H709 0.961 . S
C695 H710 0.961 . S
C695 H711 0.961 . S
C696 C697 1.370 . S
C696 C698 1.363 . S
C696 H712 0.931 . S
C697 C696 1.370 . S
C697 C701 1.408 . S
C698 C696 1.363 . S
C698 C699 1.370 . S
C698 C702 1.524 . S
C699 C691 1.503 . S
C699 C698 1.370 . S
C699 C700 1.403 . S
C700 C699 1.403 . S
C700 C701 1.404 . S
C700 C703 1.539 . S
C701 C697 1.408 . S
C701 C700 1.404 . S
C701 H713 0.930 . S
C702 C698 1.524 . S
C702 H714 0.956 . S
C702 H715 0.961 . S
C702 H716 0.961 . S
C703 C700 1.539 . S
C703 H717 0.958 . S
C703 H718 0.961 . S
C703 H719 0.960 . S
H704 C688 0.931 . S
H705 C693 0.929 . S
H706 C694 0.960 . S
H707 C694 0.962 . S
H708 C694 0.960 . S
H709 C695 0.961 . S
H710 C695 0.961 . S
H711 C695 0.961 . S
H712 C696 0.931 . S
H713 C701 0.930 . S
H714 C702 0.956 . S
H715 C702 0.961 . S
H716 C702 0.961 . S
H717 C703 0.958 . S
H718 C703 0.961 . S
H719 C703 0.960 . S
C720 C721 1.391 . S
C720 C722 1.394 . S
C720 H736 0.931 . S
C721 C720 1.391 . S
C721 C725 1.376 . S
C722 C720 1.394 . S
C722 C723 1.369 1_655 S
C722 C726 1.531 . S
C723 C722 1.369 1_455 S
C723 C724 1.410 . S
C723 C731 1.503 . S
C724 C723 1.410 . S
C724 C725 1.392 1_455 S
C724 C727 1.511 . S
C725 C721 1.376 . S
C725 C724 1.392 1_655 S
C725 H737 0.929 . S
C726 C722 1.531 . S
C726 H738 0.960 . S
C726 H739 0.962 . S
C726 H740 0.960 . S
C727 C724 1.511 . S
C727 H741 0.961 . S
C727 H742 0.961 . S
C727 H743 0.961 . S
C728 C729 1.370 . S
C728 C730 1.363 . S
C728 H744 0.931 . S
C729 C728 1.370 . S
C729 C733 1.408 . S
C730 C728 1.363 . S
C730 C731 1.370 . S
C730 C734 1.524 . S
C731 C723 1.503 . S
C731 C730 1.370 . S
C731 C732 1.403 . S
C732 C731 1.403 . S
C732 C733 1.404 . S
C732 C735 1.539 . S
C733 C729 1.408 . S
C733 C732 1.404 . S
C733 H745 0.930 . S
C734 C730 1.524 . S
C734 H746 0.956 1_455 S
C734 H747 0.961 . S
C734 H748 0.961 . S
C735 C732 1.539 . S
C735 H749 0.958 . S
C735 H750 0.961 . S
C735 H751 0.960 . S
H736 C720 0.931 . S
H737 C725 0.929 . S
H738 C726 0.960 . S
H739 C726 0.962 . S
H740 C726 0.960 . S
H741 C727 0.961 . S
H742 C727 0.961 . S
H743 C727 0.961 . S
H744 C728 0.931 . S
H745 C733 0.930 . S
H746 C734 0.956 1_655 S
H747 C734 0.961 . S
H748 C734 0.961 . S
H749 C735 0.958 . S
H750 C735 0.961 . S
H751 C735 0.960 . S
C752 C753 1.391 . S
C752 C754 1.394 . S
C752 H768 0.931 . S
C753 C752 1.391 . S
C753 C757 1.376 . S
C754 C752 1.394 . S
C754 C755 1.369 . S
C754 C758 1.531 . S
C755 C754 1.369 . S
C755 C756 1.410 . S
C755 C763 1.503 . S
C756 C755 1.410 . S
C756 C757 1.392 . S
C756 C759 1.511 . S
C757 C753 1.376 . S
C757 C756 1.392 . S
C757 H769 0.929 . S
C758 C754 1.531 . S
C758 H770 0.960 . S
C758 H771 0.962 . S
C758 H772 0.960 . S
C759 C756 1.511 . S
C759 H773 0.961 . S
C759 H774 0.961 . S
C759 H775 0.961 . S
C760 C761 1.370 . S
C760 C762 1.363 . S
C760 H776 0.931 . S
C761 C760 1.370 . S
C761 C765 1.408 . S
C762 C760 1.363 . S
C762 C763 1.370 . S
C762 C766 1.524 . S
C763 C755 1.503 . S
C763 C762 1.370 . S
C763 C764 1.403 . S
C764 C763 1.403 . S
C764 C765 1.404 . S
C764 C767 1.539 . S
C765 C761 1.408 . S
C765 C764 1.404 . S
C765 H777 0.930 . S
C766 C762 1.524 . S
C766 H778 0.956 . S
C766 H779 0.961 . S
C766 H780 0.961 . S
C767 C764 1.539 . S
C767 H781 0.958 . S
C767 H782 0.961 . S
C767 H783 0.960 . S
H768 C752 0.931 . S
H769 C757 0.929 . S
H770 C758 0.960 . S
H771 C758 0.962 . S
H772 C758 0.960 . S
H773 C759 0.961 . S
H774 C759 0.961 . S
H775 C759 0.961 . S
H776 C760 0.931 . S
H777 C765 0.930 . S
H778 C766 0.956 . S
H779 C766 0.961 . S
H780 C766 0.961 . S
H781 C767 0.958 . S
H782 C767 0.961 . S
H783 C767 0.960 . S
C784 C785 1.391 . S
C784 C786 1.394 . S
C784 H800 0.931 . S
C785 C784 1.391 . S
C785 C789 1.376 . S
C786 C784 1.394 . S
C786 C787 1.369 . S
C786 C790 1.531 . S
C787 C786 1.369 . S
C787 C788 1.410 . S
C787 C795 1.503 . S
C788 C787 1.410 . S
C788 C789 1.392 . S
C788 C791 1.511 . S
C789 C785 1.376 . S
C789 C788 1.392 . S
C789 H801 0.929 . S
C790 C786 1.531 . S
C790 H802 0.960 . S
C790 H803 0.962 . S
C790 H804 0.960 . S
C791 C788 1.511 . S
C791 H805 0.961 . S
C791 H806 0.961 . S
C791 H807 0.961 . S
C792 C793 1.370 . S
C792 C794 1.363 . S
C792 H808 0.931 . S
C793 C792 1.370 . S
C793 C797 1.408 . S
C794 C792 1.363 . S
C794 C795 1.370 . S
C794 C798 1.524 . S
C795 C787 1.503 . S
C795 C794 1.370 . S
C795 C796 1.403 . S
C796 C795 1.403 . S
C796 C797 1.404 . S
C796 C799 1.539 . S
C797 C793 1.408 . S
C797 C796 1.404 . S
C797 H809 0.930 . S
C798 C794 1.524 . S
C798 H810 0.956 . S
C798 H811 0.961 . S
C798 H812 0.961 . S
C799 C796 1.539 . S
C799 H813 0.958 . S
C799 H814 0.961 . S
C799 H815 0.960 . S
H800 C784 0.931 . S
H801 C789 0.929 . S
H802 C790 0.960 . S
H803 C790 0.962 . S
H804 C790 0.960 . S
H805 C791 0.961 . S
H806 C791 0.961 . S
H807 C791 0.961 . S
H808 C792 0.931 . S
H809 C797 0.930 . S
H810 C798 0.956 . S
H811 C798 0.961 . S
H812 C798 0.961 . S
H813 C799 0.958 . S
H814 C799 0.961 . S
H815 C799 0.960 . S
C816 C817 1.391 . S
C816 C818 1.394 . S
C816 H832 0.931 . S
C817 C816 1.391 . S
C817 C821 1.376 . S
C818 C816 1.394 . S
C818 C819 1.369 . S
C818 C822 1.531 . S
C819 C818 1.369 . S
C819 C820 1.410 . S
C819 C827 1.503 . S
C820 C819 1.410 . S
C820 C821 1.392 . S
C820 C823 1.511 . S
C821 C817 1.376 . S
C821 C820 1.392 . S
C821 H833 0.929 . S
C822 C818 1.531 . S
C822 H834 0.960 . S
C822 H835 0.962 . S
C822 H836 0.960 . S
C823 C820 1.511 . S
C823 H837 0.961 . S
C823 H838 0.961 . S
C823 H839 0.961 . S
C824 C825 1.370 . S
C824 C826 1.363 . S
C824 H840 0.931 . S
C825 C824 1.370 . S
C825 C829 1.408 . S
C826 C824 1.363 . S
C826 C827 1.370 . S
C826 C830 1.524 . S
C827 C819 1.503 . S
C827 C826 1.370 . S
C827 C828 1.403 . S
C828 C827 1.403 . S
C828 C829 1.404 . S
C828 C831 1.539 . S
C829 C825 1.408 . S
C829 C828 1.404 . S
C829 H841 0.930 . S
C830 C826 1.524 . S
C830 H842 0.956 . S
C830 H843 0.961 . S
C830 H844 0.961 . S
C831 C828 1.539 . S
C831 H845 0.958 . S
C831 H846 0.961 . S
C831 H847 0.960 . S
H832 C816 0.931 . S
H833 C821 0.929 . S
H834 C822 0.960 . S
H835 C822 0.962 . S
H836 C822 0.960 . S
H837 C823 0.961 . S
H838 C823 0.961 . S
H839 C823 0.961 . S
H840 C824 0.931 . S
H841 C829 0.930 . S
H842 C830 0.956 . S
H843 C830 0.961 . S
H844 C830 0.961 . S
H845 C831 0.958 . S
H846 C831 0.961 . S
H847 C831 0.960 . S
C848 C849 1.391 . S
C848 C850 1.394 . S
C848 H864 0.931 . S
C849 C848 1.391 . S
C849 C853 1.376 . S
C850 C848 1.394 . S
C850 C851 1.369 . S
C850 C854 1.531 . S
C851 C850 1.369 . S
C851 C852 1.410 . S
C851 C859 1.503 . S
C852 C851 1.410 . S
C852 C853 1.392 . S
C852 C855 1.511 . S
C853 C849 1.376 . S
C853 C852 1.392 . S
C853 H865 0.929 . S
C854 C850 1.531 . S
C854 H866 0.960 . S
C854 H867 0.962 . S
C854 H868 0.960 . S
C855 C852 1.511 . S
C855 H869 0.961 . S
C855 H870 0.961 . S
C855 H871 0.961 . S
C856 C857 1.370 . S
C856 C858 1.363 . S
C856 H872 0.931 . S
C857 C856 1.370 . S
C857 C861 1.408 . S
C858 C856 1.363 . S
C858 C859 1.370 . S
C858 C862 1.524 . S
C859 C851 1.503 . S
C859 C858 1.370 . S
C859 C860 1.403 . S
C860 C859 1.403 . S
C860 C861 1.404 . S
C860 C863 1.539 . S
C861 C857 1.408 . S
C861 C860 1.404 . S
C861 H873 0.930 . S
C862 C858 1.524 . S
C862 H874 0.956 . S
C862 H875 0.961 . S
C862 H876 0.961 . S
C863 C860 1.539 . S
C863 H877 0.958 . S
C863 H878 0.961 . S
C863 H879 0.960 . S
H864 C848 0.931 . S
H865 C853 0.929 . S
H866 C854 0.960 . S
H867 C854 0.962 . S
H868 C854 0.960 . S
H869 C855 0.961 . S
H870 C855 0.961 . S
H871 C855 0.961 . S
H872 C856 0.931 . S
H873 C861 0.930 . S
H874 C862 0.956 . S
H875 C862 0.961 . S
H876 C862 0.961 . S
H877 C863 0.958 . S
H878 C863 0.961 . S
H879 C863 0.960 . S
C880 C881 1.391 . S
C880 C882 1.394 . S
C880 H896 0.931 . S
C881 C880 1.391 . S
C881 C885 1.376 . S
C882 C880 1.394 . S
C882 C883 1.369 . S
C882 C886 1.531 . S
C883 C882 1.369 . S
C883 C884 1.410 . S
C883 C891 1.503 . S
C884 C883 1.410 . S
C884 C885 1.392 . S
C884 C887 1.511 . S
C885 C881 1.376 . S
C885 C884 1.392 . S
C885 H897 0.929 . S
C886 C882 1.531 . S
C886 H898 0.960 . S
C886 H899 0.962 . S
C886 H900 0.960 . S
C887 C884 1.511 . S
C887 H901 0.961 . S
C887 H902 0.961 . S
C887 H903 0.961 . S
C888 C889 1.370 . S
C888 C890 1.363 . S
C888 H904 0.931 . S
C889 C888 1.370 . S
C889 C893 1.408 . S
C890 C888 1.363 . S
C890 C891 1.370 . S
C890 C894 1.524 . S
C891 C883 1.503 . S
C891 C890 1.370 . S
C891 C892 1.403 . S
C892 C891 1.403 . S
C892 C893 1.404 . S
C892 C895 1.539 . S
C893 C889 1.408 . S
C893 C892 1.404 . S
C893 H905 0.930 . S
C894 C890 1.524 . S
C894 H906 0.956 . S
C894 H907 0.961 . S
C894 H908 0.961 . S
C895 C892 1.539 . S
C895 H909 0.958 . S
C895 H910 0.961 . S
C895 H911 0.960 . S
H896 C880 0.931 . S
H897 C885 0.929 . S
H898 C886 0.960 . S
H899 C886 0.962 . S
H900 C886 0.960 . S
H901 C887 0.961 . S
H902 C887 0.961 . S
H903 C887 0.961 . S
H904 C888 0.931 . S
H905 C893 0.930 . S
H906 C894 0.956 . S
H907 C894 0.961 . S
H908 C894 0.961 . S
H909 C895 0.958 . S
H910 C895 0.961 . S
H911 C895 0.960 . S
C912 C913 1.391 . S
C912 C914 1.394 . S
C912 H928 0.931 . S
C913 C912 1.391 . S
C913 C917 1.376 . S
C914 C912 1.394 . S
C914 C915 1.369 . S
C914 C918 1.531 . S
C915 C914 1.369 . S
C915 C916 1.410 . S
C915 C923 1.503 . S
C916 C915 1.410 . S
C916 C917 1.392 . S
C916 C919 1.511 . S
C917 C913 1.376 . S
C917 C916 1.392 . S
C917 H929 0.929 . S
C918 C914 1.531 . S
C918 H930 0.960 . S
C918 H931 0.962 . S
C918 H932 0.960 . S
C919 C916 1.511 . S
C919 H933 0.961 . S
C919 H934 0.961 . S
C919 H935 0.961 . S
C920 C921 1.370 . S
C920 C922 1.363 . S
C920 H936 0.931 . S
C921 C920 1.370 . S
C921 C925 1.408 . S
C922 C920 1.363 . S
C922 C923 1.370 . S
C922 C926 1.524 . S
C923 C915 1.503 . S
C923 C922 1.370 . S
C923 C924 1.403 . S
C924 C923 1.403 . S
C924 C925 1.404 . S
C924 C927 1.539 . S
C925 C921 1.408 . S
C925 C924 1.404 . S
C925 H937 0.930 . S
C926 C922 1.524 . S
C926 H938 0.956 . S
C926 H939 0.961 . S
C926 H940 0.961 . S
C927 C924 1.539 . S
C927 H941 0.958 . S
C927 H942 0.961 . S
C927 H943 0.960 . S
H928 C912 0.931 . S
H929 C917 0.929 . S
H930 C918 0.960 . S
H931 C918 0.962 . S
H932 C918 0.960 . S
H933 C919 0.961 . S
H934 C919 0.961 . S
H935 C919 0.961 . S
H936 C920 0.931 . S
H937 C925 0.930 . S
H938 C926 0.956 . S
H939 C926 0.961 . S
H940 C926 0.961 . S
H941 C927 0.958 . S
H942 C927 0.961 . S
H943 C927 0.960 . S
C944 C945 1.391 . S
C944 C946 1.394 . S
C944 H960 0.931 . S
C945 C944 1.391 . S
C945 C949 1.376 . S
C946 C944 1.394 . S
C946 C947 1.369 . S
C946 C950 1.531 . S
C947 C946 1.369 . S
C947 C948 1.410 . S
C947 C955 1.503 . S
C948 C947 1.410 . S
C948 C949 1.392 . S
C948 C951 1.511 . S
C949 C945 1.376 . S
C949 C948 1.392 . S
C949 H961 0.929 . S
C950 C946 1.531 . S
C950 H962 0.960 . S
C950 H963 0.962 . S
C950 H964 0.960 . S
C951 C948 1.511 . S
C951 H965 0.961 . S
C951 H966 0.961 . S
C951 H967 0.961 . S
C952 C953 1.370 . S
C952 C954 1.363 . S
C952 H968 0.931 . S
C953 C952 1.370 . S
C953 C957 1.408 . S
C954 C952 1.363 . S
C954 C955 1.370 . S
C954 C958 1.524 . S
C955 C947 1.503 . S
C955 C954 1.370 . S
C955 C956 1.403 . S
C956 C955 1.403 . S
C956 C957 1.404 . S
C956 C959 1.539 . S
C957 C953 1.408 . S
C957 C956 1.404 . S
C957 H969 0.930 . S
C958 C954 1.524 . S
C958 H970 0.956 . S
C958 H971 0.961 . S
C958 H972 0.961 . S
C959 C956 1.539 . S
C959 H973 0.958 . S
C959 H974 0.961 . S
C959 H975 0.960 . S
H960 C944 0.931 . S
H961 C949 0.929 . S
H962 C950 0.960 . S
H963 C950 0.962 . S
H964 C950 0.960 . S
H965 C951 0.961 . S
H966 C951 0.961 . S
H967 C951 0.961 . S
H968 C952 0.931 . S
H969 C957 0.930 . S
H970 C958 0.956 . S
H971 C958 0.961 . S
H972 C958 0.961 . S
H973 C959 0.958 . S
H974 C959 0.961 . S
H975 C959 0.960 . S
C976 C977 1.391 . S
C976 C978 1.394 . S
C976 H992 0.931 . S
C977 C976 1.391 . S
C977 C981 1.376 . S
C978 C976 1.394 . S
C978 C979 1.369 . S
C978 C982 1.531 . S
C979 C978 1.369 . S
C979 C980 1.410 . S
C979 C987 1.503 . S
C980 C979 1.410 . S
C980 C981 1.392 . S
C980 C983 1.511 . S
C981 C977 1.376 . S
C981 C980 1.392 . S
C981 H993 0.929 . S
C982 C978 1.531 . S
C982 H994 0.960 . S
C982 H995 0.962 . S
C982 H996 0.960 . S
C983 C980 1.511 . S
C983 H997 0.961 . S
C983 H998 0.961 . S
C983 H999 0.961 . S
C984 C985 1.370 . S
C984 C986 1.363 . S
C984 H1000 0.931 . S
C985 C984 1.370 . S
C985 C989 1.408 . S
C986 C984 1.363 . S
C986 C987 1.370 . S
C986 C990 1.524 . S
C987 C979 1.503 . S
C987 C986 1.370 . S
C987 C988 1.403 . S
C988 C987 1.403 . S
C988 C989 1.404 . S
C988 C991 1.539 . S
C989 C985 1.408 . S
C989 C988 1.404 . S
C989 H1001 0.930 . S
C990 C986 1.524 . S
C990 H1002 0.956 . S
C990 H1003 0.961 . S
C990 H1004 0.961 . S
C991 C988 1.539 . S
C991 H1005 0.958 . S
C991 H1006 0.961 . S
C991 H1007 0.960 . S
H992 C976 0.931 . S
H993 C981 0.929 . S
H994 C982 0.960 . S
H995 C982 0.962 . S
H996 C982 0.960 . S
H997 C983 0.961 . S
H998 C983 0.961 . S
H999 C983 0.961 . S
H1000 C984 0.931 . S
H1001 C989 0.930 . S
H1002 C990 0.956 . S
H1003 C990 0.961 . S
H1004 C990 0.961 . S
H1005 C991 0.958 . S
H1006 C991 0.961 . S
H1007 C991 0.960 . S
C241 C7 1.454 . S
C249 C90 1.375 . S
C273 C37 1.488 . S
C281 C109 1.381 . S
C305 C54 1.200 . S
C313 C132 1.168 . S
C345 C151 1.227 . S
C337 C87 1.246 . S
C377 C166 1.370 . S
C369 C30 1.441 . S
C401 C51 1.257 . S
C409 C189 1.245 . S
C433 C84 1.253 . S
C441 C208 1.237 . S
C465 C10 1.452 . S
C473 C223 1.355 . S
C497 C59 1.285 . S
C505 C227 1.285 . S
C537 C170 1.135 . S
C529 C74 1.156 . S
C569 C185 1.306 . S
C561 C18 1.419 . S
C593 C32 1.533 . S
C601 C204 1.453 . S
C633 C113 1.270 . S
C625 C73 1.274 . S
C657 C15 1.520 . S
C665 C128 1.442 . S
C697 C147 1.364 . S
C689 C43 1.471 . S
C729 C94 1.120 . S
C721 C62 1.137 . S
C761 C213 1.350 . S
C753 C21 1.456 . S
C793 C232 1.338 . S
C785 C29 1.458 . S
C817 C52 1.326 . S
C825 C175 1.236 . S
C857 C194 1.263 . S
C849 C81 1.359 . S
C889 C137 1.345 . S
C881 C40 1.417 . S
C913 C65 1.374 . S
C921 C156 1.289 . S
C953 C99 1.265 . S
C945 C76 1.331 . S
C985 C118 1.357 . S
C977 C8 1.461 . S
