# Generated by pormake.
# Topology pyr, (3,6)-cn, num edge types: 1
# Building blocks:
#     Node 0, Type 0, BuildingBlock: ESEHIV_clean_linker_0, # of connection points: 3
#     Node 1, Type 0, BuildingBlock: ESEHIV_clean_linker_0, # of connection points: 3
#     Node 2, Type 0, BuildingBlock: ESEHIV_clean_linker_0, # of connection points: 3
#     Node 3, Type 0, BuildingBlock: ESEHIV_clean_linker_0, # of connection points: 3
#     Node 4, Type 0, BuildingBlock: ESEHIV_clean_linker_0, # of connection points: 3
#     Node 5, Type 0, BuildingBlock: ESEHIV_clean_linker_0, # of connection points: 3
#     Node 6, Type 0, BuildingBlock: ESEHIV_clean_linker_0, # of connection points: 3
#     Node 7, Type 0, BuildingBlock: ESEHIV_clean_linker_0, # of connection points: 3
#     Node 8, Type 1, BuildingBlock: PAMTUU_clean_sbu_0, # of connection points: 6
#     Node 9, Type 1, BuildingBlock: PAMTUU_clean_sbu_0, # of connection points: 6
#     Node 10, Type 1, BuildingBlock: PAMTUU_clean_sbu_0, # of connection points: 6
#     Node 11, Type 1, BuildingBlock: PAMTUU_clean_sbu_0, # of connection points: 6
#     Edge 12, Type (0, 1), BuildingBlock: XIVTED_clean_linker_0, # of connection points: 2
#     Edge 13, Type (0, 1), BuildingBlock: XIVTED_clean_linker_0, # of connection points: 2
#     Edge 14, Type (0, 1), BuildingBlock: XIVTED_clean_linker_0, # of connection points: 2
#     Edge 15, Type (0, 1), BuildingBlock: XIVTED_clean_linker_0, # of connection points: 2
#     Edge 16, Type (0, 1), BuildingBlock: XIVTED_clean_linker_0, # of connection points: 2
#     Edge 17, Type (0, 1), BuildingBlock: XIVTED_clean_linker_0, # of connection points: 2
#     Edge 18, Type (0, 1), BuildingBlock: XIVTED_clean_linker_0, # of connection points: 2
#     Edge 19, Type (0, 1), BuildingBlock: XIVTED_clean_linker_0, # of connection points: 2
#     Edge 20, Type (0, 1), BuildingBlock: XIVTED_clean_linker_0, # of connection points: 2
#     Edge 21, Type (0, 1), BuildingBlock: XIVTED_clean_linker_0, # of connection points: 2
#     Edge 22, Type (0, 1), BuildingBlock: XIVTED_clean_linker_0, # of connection points: 2
#     Edge 23, Type (0, 1), BuildingBlock: XIVTED_clean_linker_0, # of connection points: 2
#     Edge 24, Type (0, 1), BuildingBlock: XIVTED_clean_linker_0, # of connection points: 2
#     Edge 25, Type (0, 1), BuildingBlock: XIVTED_clean_linker_0, # of connection points: 2
#     Edge 26, Type (0, 1), BuildingBlock: XIVTED_clean_linker_0, # of connection points: 2
#     Edge 27, Type (0, 1), BuildingBlock: XIVTED_clean_linker_0, # of connection points: 2
#     Edge 28, Type (0, 1), BuildingBlock: XIVTED_clean_linker_0, # of connection points: 2
#     Edge 29, Type (0, 1), BuildingBlock: XIVTED_clean_linker_0, # of connection points: 2
#     Edge 30, Type (0, 1), BuildingBlock: XIVTED_clean_linker_0, # of connection points: 2
#     Edge 31, Type (0, 1), BuildingBlock: XIVTED_clean_linker_0, # of connection points: 2
#     Edge 32, Type (0, 1), BuildingBlock: XIVTED_clean_linker_0, # of connection points: 2
#     Edge 33, Type (0, 1), BuildingBlock: XIVTED_clean_linker_0, # of connection points: 2
#     Edge 34, Type (0, 1), BuildingBlock: XIVTED_clean_linker_0, # of connection points: 2
#     Edge 35, Type (0, 1), BuildingBlock: XIVTED_clean_linker_0, # of connection points: 2
# Relax obj value: 0.127
# Max RMSD: 0.142
# Mean RMSD: 0.057
data_MOF--net-pyr--node1-PAMTUU_clean_sbu_0--node2-ESEHIV_clean_linker_0--edge1-XIVTED_clean_linker_0
_symmetry_space_group_name_H-M    P1
_symmetry_Int_Tables_number       1
_symmetry_cell_setting            triclinic
loop_
_symmetry_equiv_pos_as_xyz
'x, y, z'
_cell_length_a     36.183476
_cell_length_b     37.146685
_cell_length_c     35.12528
_cell_angle_alpha  89.985412
_cell_angle_beta   89.20337
_cell_angle_gamma 101.51801
loop_
_atom_site_label
_atom_site_type_symbol
_atom_site_fract_x
_atom_site_fract_y
_atom_site_fract_z
_atom_type_partial_charge
H0 H 0.33036 0.34277 0.27732 0.0
H1 H 0.39129 0.25478 0.2795 0.0
H2 H 0.38783 0.31644 0.17661 0.0
C3 C 0.34905 0.32723 0.26353 0.0
C4 C 0.3575 0.33286 0.2246 0.0
C5 C 0.36031 0.29862 0.28356 0.0
C6 C 0.38402 0.27817 0.26514 0.0
C7 C 0.39464 0.28468 0.22673 0.0
C8 C 0.38131 0.31225 0.20668 0.0
H9 H 0.1107 0.80306 0.77835 0.0
H10 H 0.20344 0.74776 0.78958 0.0
H11 H 0.14666 0.74571 0.68297 0.0
C12 C 0.12819 0.78511 0.76675 0.0
C13 C 0.1253 0.77559 0.72806 0.0
C14 C 0.15657 0.77558 0.78929 0.0
C15 C 0.17994 0.75335 0.77339 0.0
C16 C 0.17642 0.74209 0.73521 0.0
C17 C 0.14867 0.75301 0.71285 0.0
H18 H 0.69965 0.34203 0.9233 0.0
H19 H 0.7084 0.42771 0.83938 0.0
H20 H 0.61292 0.33706 0.83973 0.0
C21 C 0.68829 0.35373 0.89892 0.0
C22 C 0.65384 0.33517 0.88368 0.0
C23 C 0.70835 0.38713 0.88355 0.0
C24 C 0.69332 0.40209 0.85161 0.0
C25 C 0.65886 0.3843 0.83534 0.0
C26 C 0.63938 0.35084 0.85177 0.0
H27 H 0.83459 0.72489 0.42888 0.0
H28 H 0.92043 0.72951 0.34227 0.0
H29 H 0.83203 0.6329 0.3543 0.0
C30 C 0.8468 0.71208 0.40546 0.0
C31 C 0.82961 0.67636 0.39434 0.0
C32 C 0.87932 0.73174 0.38688 0.0
C33 C 0.89516 0.71469 0.35641 0.0
C34 C 0.87837 0.67883 0.34401 0.0
C35 C 0.84549 0.66015 0.36339 0.0
H36 H 0.61772 0.80514 0.82406 0.0
H37 H 0.70914 0.74838 0.80636 0.0
H38 H 0.66335 0.75599 0.91853 0.0
C39 C 0.63663 0.78842 0.83474 0.0
C40 C 0.63767 0.78223 0.87413 0.0
C41 C 0.66263 0.77684 0.80975 0.0
C42 C 0.6874 0.75573 0.82452 0.0
C43 C 0.68758 0.74764 0.86356 0.0
C44 C 0.66245 0.76087 0.88816 0.0
H45 H 0.83001 0.31598 0.31985 0.0
H46 H 0.91967 0.25635 0.32863 0.0
H47 H 0.88893 0.3166 0.42473 0.0
C48 C 0.85341 0.30926 0.33535 0.0
C49 C 0.85835 0.32059 0.37334 0.0
C50 C 0.87514 0.28577 0.31894 0.0
C51 C 0.9034 0.27508 0.3408 0.0
C52 C 0.90796 0.28496 0.37936 0.0
C53 C 0.88593 0.3087 0.39507 0.0
H54 H 0.33121 0.71857 0.18431 0.0
H55 H 0.32357 0.63176 0.26634 0.0
H56 H 0.41961 0.72208 0.26549 0.0
C57 C 0.34307 0.70646 0.20804 0.0
C58 C 0.37778 0.72475 0.22278 0.0
C59 C 0.32327 0.67286 0.22303 0.0
C60 C 0.339 0.65716 0.25404 0.0
C61 C 0.3737 0.67466 0.27022 0.0
C62 C 0.39268 0.70867 0.25422 0.0
H63 H 0.1112 0.33488 0.77358 0.0
H64 H 0.19714 0.33985 0.68671 0.0
H65 H 0.20318 0.42856 0.76632 0.0
C66 C 0.13675 0.34928 0.75954 0.0
C67 C 0.15478 0.38414 0.77328 0.0
C68 C 0.1525 0.33231 0.72899 0.0
C69 C 0.18588 0.35162 0.71144 0.0
C70 C 0.2048 0.38608 0.72466 0.0
C71 C 0.18892 0.40211 0.7557 0.0
Tb72 Tb 0.05695 0.03623 0.53695 0.0
Tb73 Tb 0.97441 1.02695 0.58035 0.0
C74 C 0.98811 0.97449 0.51258 0.0
C75 C 0.14984 0.07538 0.49343 0.0
C76 C 0.20441 0.13597 0.46855 0.0
C77 C 0.20884 0.09991 0.46069 0.0
C78 C 0.18173 0.06985 0.47309 0.0
C79 C 0.14554 0.11119 0.50204 0.0
C80 C 0.17266 0.14127 0.48976 0.0
C81 C 0.1213 0.04374 0.5058 0.0
O82 O 0.02561 0.06998 0.50431 0.0
O83 O 0.98301 0.07875 0.5506 0.0
O84 O 1.01372 0.06572 0.61547 0.0
O85 O 0.06175 0.0852 0.57189 0.0
O86 O 0.91757 1.03044 0.57634 0.0
O87 O 0.94043 1.01592 0.62956 0.0
O88 O 0.99581 0.9787 0.59637 0.0
O89 O 0.05846 1.00363 0.58796 0.0
O90 O 0.02473 0.98371 0.51746 0.0
O91 O 0.96482 0.99332 0.52864 0.0
C92 C 1.00071 0.08801 0.51824 0.0
O93 O 0.11528 0.04113 0.54241 0.0
O94 O 0.08987 0.03783 0.48697 0.0
C95 C 0.04435 0.08922 0.60427 0.0
C96 C 0.87711 0.98987 0.6168 0.0
C97 C 0.81354 0.93348 0.62936 0.0
C98 C 0.81622 0.96798 0.64688 0.0
C99 C 0.84768 0.99589 0.64057 0.0
C100 C 0.87462 0.9558 0.59872 0.0
C101 C 0.843 0.92775 0.60496 0.0
C102 C 0.91012 1.01947 0.61138 0.0
C103 C 0.03137 0.97762 0.60117 0.0
H104 H 0.2326 0.09489 0.44387 0.0
H105 H 0.18539 0.0423 0.46633 0.0
H106 H 0.12108 0.11584 0.51798 0.0
H107 H 0.16862 0.16867 0.49655 0.0
H108 H 0.79458 0.97314 0.66656 0.0
H109 H 0.84929 1.02206 0.65476 0.0
H110 H 0.89721 0.95086 0.5801 0.0
H111 H 0.84176 0.90158 0.59095 0.0
Tb112 Tb 0.55386 0.03552 0.07794 0.0
Tb113 Tb 0.47628 1.02466 1.02806 0.0
C114 C 0.53627 0.97743 1.01179 0.0
C115 C 0.64553 0.07326 0.12566 0.0
C116 C 0.70689 0.12748 0.14882 0.0
C117 C 0.68252 0.13533 0.1205 0.0
C118 C 0.652 0.10836 0.10897 0.0
C119 C 0.6692 0.06563 0.15439 0.0
C120 C 0.69953 0.09249 0.16598 0.0
C121 C 0.61587 0.04349 0.11206 0.0
O122 O 0.55853 0.08626 1.04542 0.0
O123 O 0.51895 0.0647 0.99638 0.0
O124 O 0.47826 0.0738 0.06121 0.0
O125 O 0.5176 0.06567 0.10973 0.0
O126 O 0.44787 1.01512 0.97623 0.0
O127 O 0.41894 1.02715 1.0277 0.0
O128 O 0.46229 0.98599 0.07599 0.0
O129 O 0.52141 0.98282 0.09768 0.0
O130 O 0.56128 1.00344 1.0275 0.0
O131 O 0.50021 0.97761 1.01364 0.0
C132 C 0.54561 0.0902 1.01115 0.0
O133 O 0.58325 0.03875 0.12957 0.0
O134 O 0.61243 0.04092 0.07527 0.0
C135 C 0.49195 0.08195 0.09512 0.0
C136 C 0.38312 0.98714 0.98415 0.0
C137 C 0.31973 0.93282 0.96577 0.0
C138 C 0.31521 0.96608 0.98249 0.0
C139 C 0.34661 0.99301 0.9914 0.0
C140 C 0.38789 0.95334 0.96904 0.0
C141 C 0.35644 0.92646 0.95981 0.0
C142 C 0.41545 1.0169 0.99221 0.0
C143 C 0.4848 0.97021 0.09674 0.0
H144 H 0.68745 0.16199 0.10676 0.0
H145 H 0.63391 0.11467 0.08664 0.0
H146 H 0.66449 0.03869 0.16759 0.0
H147 H 0.71712 0.08583 0.18858 0.0
H148 H 0.28736 0.97163 0.98804 0.0
H149 H 0.34235 1.01876 1.00345 0.0
H150 H 0.41583 0.94797 0.96356 0.0
H151 H 0.36097 0.90134 0.94658 0.0
Tb152 Tb 0.51512 0.49315 0.53097 0.0
Tb153 Tb 0.51571 0.5673 0.57938 0.0
C154 C 0.47923 0.55671 0.49686 0.0
C155 C 0.55752 0.42535 0.48156 0.0
C156 C 0.62601 0.40453 0.46142 0.0
C157 C 0.59303 0.37773 0.46786 0.0
C158 C 0.559 0.3881 0.47781 0.0
C159 C 0.59044 0.45206 0.47528 0.0
C160 C 0.62425 0.44179 0.46515 0.0
C161 C 0.52259 0.43656 0.49438 0.0
O162 O 0.5606 0.5348 0.50752 0.0
O163 O 0.57417 0.57194 0.55939 0.0
O164 O 0.52877 0.52647 0.61935 0.0
O165 O 0.55601 0.49336 0.5768 0.0
O166 O 0.52324 0.62486 0.5824 0.0
O167 O 0.50882 0.59132 0.63243 0.0
O168 O 0.4571 0.53784 0.58137 0.0
O169 O 0.46684 0.47967 0.57015 0.0
O170 O 0.47611 0.5208 0.50011 0.0
O171 O 0.49829 0.57918 0.52193 0.0
C172 C 0.5837 0.5604 0.52591 0.0
O173 O 0.51748 0.43697 0.53112 0.0
O174 O 0.51567 0.46616 0.4785 0.0
C175 C 0.55012 0.5025 0.61221 0.0
C176 C 0.47875 0.64076 0.62562 0.0
C177 C 0.41142 0.66343 0.64598 0.0
C178 C 0.4421 0.66891 0.67096 0.0
C179 C 0.47553 0.65767 0.66081 0.0
C180 C 0.44854 0.6361 0.6002 0.0
C181 C 0.41525 0.64757 0.6102 0.0
C182 C 0.51136 0.62381 0.61764 0.0
C183 C 0.44578 0.50199 0.58361 0.0
H184 H 0.59349 0.3488 0.46496 0.0
H185 H 0.534 0.36709 0.48293 0.0
H186 H 0.59018 0.48094 0.47865 0.0
H187 H 0.64922 0.46307 0.461 0.0
H188 H 0.44002 0.68138 0.69857 0.0
H189 H 0.49839 0.66107 0.68092 0.0
H190 H 0.45017 0.62242 0.57316 0.0
H191 H 0.39196 0.64263 0.59058 0.0
Tb192 Tb 0.01484 0.56877 1.03291 0.0
Tb193 Tb 1.01347 0.49313 0.07963 0.0
C194 C 0.04762 0.5042 0.99778 0.0
C195 C 0.98302 0.6377 0.97293 0.0
C196 C 0.91968 0.65917 0.9413 0.0
C197 C 0.95107 0.68569 0.95251 0.0
C198 C 0.98243 0.675 0.96832 0.0
C199 C 0.95276 0.6111 0.9598 0.0
C200 C 0.92134 0.62174 0.94403 0.0
C201 C 1.01204 0.62696 0.99668 0.0
O202 O 0.95689 0.5382 1.02679 0.0
O203 O 0.96551 0.48015 1.04127 0.0
O204 O 0.97546 0.52154 0.1118 0.0
O205 O 1.00363 0.57938 0.09275 0.0
O206 O 1.00946 0.43595 0.07825 0.0
O207 O 0.01822 0.46563 0.13116 0.0
O208 O 0.06218 0.53135 0.10133 0.0
O209 O 0.07238 0.57584 0.05466 0.0
O210 O 0.0254 0.5275 0.99173 0.0
O211 O 0.05437 0.49531 1.03278 0.0
C212 C 0.94542 0.50225 1.02608 0.0
O213 O 1.00199 0.62126 1.03217 0.0
O214 O 0.02855 0.6013 0.98359 0.0
C215 C 0.98184 0.55739 0.11681 0.0
C216 C 0.05518 0.4214 0.1199 0.0
C217 C 0.12703 0.40605 0.13431 0.0
C218 C 0.10063 0.40583 0.16416 0.0
C219 C 0.065 0.41337 0.15698 0.0
C220 C 0.08121 0.42063 0.0899 0.0
C221 C 0.11666 0.41285 0.09702 0.0
C222 C 0.02024 0.43524 0.11347 0.0
C223 C 0.0833 0.56039 0.08524 0.0
H224 H 0.95091 0.71473 0.95015 0.0
H225 H 1.00546 0.69586 0.97855 0.0
H226 H 0.95266 0.58213 0.96343 0.0
H227 H 0.89756 0.60064 0.93594 0.0
H228 H 0.10769 0.40022 0.19314 0.0
H229 H 0.04556 0.41414 0.18057 0.0
H230 H 0.07478 0.42729 0.06103 0.0
H231 H 0.13647 0.41354 0.0735 0.0
H232 H 0.28723 0.29865 0.30558 0.0
H233 H 0.28173 0.14661 0.46241 0.0
H234 H 0.3887 0.2666 0.34504 0.0
H235 H 0.18778 0.1975 0.43608 0.0
H236 H 0.32342 0.19468 0.4257 0.0
H237 H 0.25311 0.26803 0.35961 0.0
C238 C 0.30287 0.28615 0.32608 0.0
C239 C 0.34123 0.28533 0.32029 0.0
C240 C 0.29381 0.19567 0.4286 0.0
C241 C 0.30107 0.24809 0.38198 0.0
C242 C 0.26997 0.16813 0.4493 0.0
C243 C 0.2311 0.16772 0.45184 0.0
C244 C 0.27856 0.22273 0.41003 0.0
C245 C 0.2175 0.19666 0.435 0.0
C246 C 0.28299 0.26812 0.35696 0.0
C247 C 0.35904 0.26738 0.34775 0.0
N248 N 0.2411 0.22265 0.4144 0.0
N249 N 0.33864 0.24886 0.37704 0.0
H250 H 0.15313 0.84661 0.8081 0.0
H251 H 0.30588 0.85708 0.96711 0.0
H252 H 0.18571 0.74967 0.85392 0.0
H253 H 0.25813 0.94873 0.93041 0.0
H254 H 0.2559 0.81544 0.93355 0.0
H255 H 0.18279 0.88174 0.86106 0.0
C256 C 0.16549 0.83222 0.82978 0.0
C257 C 0.16718 0.79492 0.82592 0.0
C258 C 0.25599 0.84461 0.93352 0.0
C259 C 0.20327 0.8361 0.88631 0.0
C260 C 0.28466 0.86842 0.95243 0.0
C261 C 0.28659 0.90655 0.95113 0.0
C262 C 0.2293 0.85912 0.91293 0.0
C263 C 0.25786 0.91961 0.93238 0.0
C264 C 0.18299 0.85265 0.86003 0.0
C265 C 0.18456 0.77854 0.85501 0.0
N266 N 0.2308 0.89601 0.91362 0.0
N267 N 0.20267 0.79941 0.88354 0.0
H268 H 0.69533 0.41109 0.76852 0.0
H269 H 0.5264 0.49705 0.68698 0.0
H270 H 0.58664 0.39583 0.82457 0.0
H271 H 0.61113 0.46745 0.61246 0.0
H272 H 0.55228 0.46769 0.74017 0.0
H273 H 0.66942 0.43893 0.71393 0.0
C274 C 0.66604 0.41364 0.76945 0.0
C275 C 0.64321 0.40092 0.80141 0.0
C276 C 0.56526 0.4676 0.71221 0.0
C277 C 0.61337 0.43346 0.73884 0.0
C278 C 0.5506 0.48456 0.68172 0.0
C279 C 0.5665 0.48491 0.64487 0.0
C280 C 0.59678 0.45132 0.70642 0.0
C281 C 0.59777 0.4679 0.64018 0.0
C282 C 0.65121 0.42941 0.73813 0.0
C283 C 0.60532 0.4049 0.80062 0.0
N284 N 0.61202 0.45217 0.67051 0.0
N285 N 0.5918 0.42105 0.77021 0.0
H286 H 0.9129 0.7112 0.27806 0.0
H287 H 0.94161 0.52271 0.17905 0.0
H288 H 0.88094 0.60528 0.33278 0.0
H289 H 0.98499 0.63045 0.13221 0.0
H290 H 0.9169 0.55166 0.23427 0.0
H291 H 0.93769 0.68167 0.2239 0.0
C292 C 0.91127 0.6818 0.27905 0.0
C293 C 0.89455 0.66101 0.31059 0.0
C294 C 0.93183 0.56895 0.21188 0.0
C295 C 0.92266 0.62651 0.24745 0.0
C296 C 0.9459 0.55238 0.18021 0.0
C297 C 0.96558 0.57399 0.15063 0.0
C298 C 0.93716 0.60753 0.21414 0.0
C299 C 0.97018 0.61244 0.1541 0.0
C300 C 0.92528 0.66483 0.24776 0.0
C301 C 0.89286 0.62271 0.30919 0.0
N302 N 0.95614 0.6278 0.185 0.0
N303 N 0.90658 0.60684 0.27835 0.0
H304 H 0.45366 0.25408 0.25104 0.0
H305 H 0.43755 0.11816 0.0731 0.0
H306 H 0.37881 0.2544 0.15645 0.0
H307 H 0.51712 0.11545 0.16315 0.0
H308 H 0.41749 0.16924 0.10391 0.0
H309 H 0.47943 0.20521 0.21966 0.0
C310 C 0.44293 0.24417 0.22354 0.0
C311 C 0.41409 0.25853 0.20632 0.0
C312 C 0.43937 0.15766 0.1171 0.0
C313 C 0.44327 0.20264 0.17048 0.0
C314 C 0.45091 0.12825 0.09949 0.0
C315 C 0.4792 0.11231 0.11549 0.0
C316 C 0.456 0.17157 0.15126 0.0
C317 C 0.49515 0.12679 0.14985 0.0
C318 C 0.45765 0.21632 0.20569 0.0
C319 C 0.40141 0.2448 0.17061 0.0
N320 N 0.48329 0.15568 0.16667 0.0
N321 N 0.41592 0.21759 0.15408 0.0
H322 H 0.14986 0.80809 0.66035 0.0
H323 H 0.98633 0.92305 0.64342 0.0
H324 H 0.0547 0.79198 0.73841 0.0
H325 H 0.09955 0.95724 0.59826 0.0
H326 H 1.00432 0.86778 0.66974 0.0
H327 H 0.12329 0.85369 0.62631 0.0
C328 C 0.12277 0.8133 0.66974 0.0
C329 C 0.10459 0.79626 0.7025 0.0
C330 C 0.02507 0.88748 0.65402 0.0
C331 C 0.07462 0.84955 0.66417 0.0
C332 C 0.01492 0.91901 0.63913 0.0
C333 C 0.04159 0.94498 0.61894 0.0
C334 C 0.06189 0.8817 0.64802 0.0
C335 C 0.07815 0.93826 0.614 0.0
C336 C 0.10791 0.83983 0.65057 0.0
C337 C 0.06986 0.80481 0.71357 0.0
N338 N 0.08713 0.90727 0.62831 0.0
N339 N 0.05614 0.83122 0.69467 0.0
H340 H 0.73498 0.46151 0.89658 0.0
H341 H 0.91522 0.42925 1.014 0.0
H342 H 0.76518 0.35594 0.91241 0.0
H343 H 0.89403 0.53738 0.99102 0.0
H344 H 0.85911 0.40257 0.97823 0.0
H345 H 0.79214 0.49033 0.93075 0.0
C346 C 0.75366 0.44435 0.90685 0.0
C347 C 0.74467 0.406 0.90169 0.0
C348 C 0.86659 0.43216 0.98097 0.0
C349 C 0.81025 0.43899 0.94158 0.0
C350 C 0.89874 0.44752 1.00164 0.0
C351 C 0.90974 0.48581 1.0058 0.0
C352 C 0.84473 0.45501 0.96408 0.0
C353 C 0.88691 0.50776 0.98873 0.0
C354 C 0.78624 0.46086 0.92667 0.0
C355 C 0.77013 0.38541 0.91619 0.0
N356 N 0.85563 0.49211 0.96872 0.0
N357 N 0.80137 0.40204 0.93543 0.0
H358 H 0.81282 0.67632 0.47127 0.0
H359 H 0.60757 0.54816 0.45364 0.0
H360 H 0.76611 0.63151 0.36494 0.0
H361 H 0.64458 0.60952 0.55518 0.0
H362 H 0.66751 0.57433 0.4226 0.0
H363 H 0.75396 0.64824 0.50375 0.0
C364 C 0.79023 0.66069 0.45459 0.0
C365 C 0.79465 0.65677 0.41498 0.0
C366 C 0.66264 0.58214 0.45166 0.0
C367 C 0.72688 0.6238 0.45257 0.0
C368 C 0.6283 0.56709 0.4696 0.0
C369 C 0.62071 0.57657 0.5073 0.0
C370 C 0.69012 0.60689 0.4714 0.0
C371 C 0.64896 0.60143 0.52613 0.0
C372 C 0.75658 0.64451 0.47333 0.0
C373 C 0.76444 0.63521 0.39543 0.0
N374 N 0.68237 0.61565 0.50803 0.0
N375 N 0.73197 0.61971 0.41435 0.0
H376 H 0.33852 0.39935 0.2412 0.0
H377 H 0.16828 0.36391 0.09438 0.0
H378 H 0.32214 0.31291 0.15736 0.0
H379 H 0.17393 0.43566 0.19162 0.0
H380 H 0.23142 0.35385 0.10879 0.0
H381 H 0.28611 0.42279 0.21391 0.0
C382 C 0.32451 0.38583 0.21649 0.0
C383 C 0.3344 0.35377 0.20197 0.0
C384 C 0.21894 0.37198 0.12682 0.0
C385 C 0.27419 0.38019 0.17086 0.0
C386 C 0.18293 0.37776 0.1186 0.0
C387 C 0.16564 0.40028 0.14214 0.0
C388 C 0.23791 0.389 0.15871 0.0
C389 C 0.18589 0.41746 0.1732 0.0
C390 C 0.29447 0.3991 0.20106 0.0
C391 C 0.31562 0.33771 0.16954 0.0
N392 N 0.22086 0.41134 0.18068 0.0
N393 N 0.28603 0.35073 0.15548 0.0
H394 H 0.64631 0.31736 0.95988 0.0
H395 H 0.53304 0.1093 0.93647 0.0
H396 H 0.61495 0.27124 0.84947 0.0
H397 H 0.59161 0.15252 1.03789 0.0
H398 H 0.55683 0.16866 0.90444 0.0
H399 H 0.6198 0.25827 0.98909 0.0
C400 C 0.63398 0.29482 0.94157 0.0
C401 C 0.63373 0.29958 0.90181 0.0
C402 C 0.56447 0.16502 0.93368 0.0
C403 C 0.60224 0.23093 0.93578 0.0
C404 C 0.55089 0.13109 0.95204 0.0
C405 C 0.5603 0.12551 0.99008 0.0
C406 C 0.58726 0.19392 0.95357 0.0
C407 C 0.58355 0.15508 1.0086 0.0
C408 C 0.61864 0.2609 0.95845 0.0
C409 C 0.61595 0.26918 0.88015 0.0
N410 N 0.59594 0.18772 0.99034 0.0
N411 N 0.60113 0.23623 0.89733 0.0
H412 H 0.84237 0.78686 0.40733 0.0
H413 H 0.0273 0.92695 0.47773 0.0
H414 H 0.95446 0.76429 0.39707 0.0
H415 H 0.91388 0.94381 0.49657 0.0
H416 H 1.0019 0.8699 0.44412 0.0
H417 H 0.86872 0.84639 0.4354 0.0
C418 C 0.87261 0.79436 0.41092 0.0
C419 C 0.89607 0.76998 0.40012 0.0
C420 C 0.98254 0.88613 0.45542 0.0
C421 C 0.92673 0.83902 0.43231 0.0
C422 C 0.99703 0.9189 0.47465 0.0
C423 C 0.9728 0.94058 0.49017 0.0
C424 C 0.94338 0.87463 0.45142 0.0
C425 C 0.93381 0.92828 0.48515 0.0
C426 C 0.88767 0.82857 0.42693 0.0
C427 C 0.93516 0.78199 0.40478 0.0
N428 N 0.92041 0.89625 0.46636 0.0
N429 N 0.94918 0.81544 0.4207 0.0
H430 H 0.21202 0.75711 0.66583 0.0
H431 H 0.37429 0.64838 0.71414 0.0
H432 H 0.20914 0.68792 0.76507 0.0
H433 H 0.36527 0.69849 0.60473 0.0
H434 H 0.31383 0.66298 0.73332 0.0
H435 H 0.26691 0.73478 0.64197 0.0
C436 C 0.22235 0.73658 0.68224 0.0
C437 C 0.20592 0.72445 0.71763 0.0
C438 C 0.32496 0.67067 0.70505 0.0
C439 C 0.26961 0.69964 0.69092 0.0
C440 C 0.35965 0.66267 0.69424 0.0
C441 C 0.37493 0.67252 0.6579 0.0
C442 C 0.30551 0.68897 0.67948 0.0
C443 C 0.35441 0.69033 0.63297 0.0
C444 C 0.25399 0.72412 0.66873 0.0
C445 C 0.22119 0.69842 0.73792 0.0
N446 N 0.32085 0.69821 0.64431 0.0
N447 N 0.25239 0.68719 0.72447 0.0
H448 H 0.65318 0.84469 0.78441 0.0
H449 H 0.81521 0.8609 0.64232 0.0
H450 H 0.68858 0.74634 0.745 0.0
H451 H 0.73896 0.93664 0.64003 0.0
H452 H 0.76599 0.8155 0.67338 0.0
H453 H 0.67841 0.87566 0.72667 0.0
C454 C 0.66511 0.82893 0.76333 0.0
C455 C 0.66935 0.79272 0.77056 0.0
C456 C 0.75969 0.8417 0.66514 0.0
C457 C 0.70032 0.82941 0.70444 0.0
C458 C 0.78781 0.86768 0.64731 0.0
C459 C 0.7816 0.90308 0.63955 0.0
C460 C 0.72549 0.85147 0.67583 0.0
C461 C 0.74546 0.91018 0.64679 0.0
C462 C 0.67993 0.84702 0.73017 0.0
C463 C 0.68594 0.77466 0.74166 0.0
N464 N 0.71908 0.88496 0.66539 0.0
N465 N 0.70188 0.79354 0.71041 0.0
H466 H 0.87654 0.2145 0.29868 0.0
H467 H 0.71037 0.20126 0.16051 0.0
H468 H 0.84476 0.31301 0.25573 0.0
H469 H 0.77784 0.1178 0.1657 0.0
H470 H 0.76137 0.24445 0.1908 0.0
H471 H 0.84474 0.18048 0.24605 0.0
C472 C 0.86397 0.22949 0.2777 0.0
C473 C 0.8631 0.26692 0.28235 0.0
C474 C 0.76527 0.21688 0.18458 0.0
C475 C 0.82466 0.22702 0.22246 0.0
C476 C 0.73617 0.19221 0.16728 0.0
C477 C 0.73947 0.15559 0.16144 0.0
C478 C 0.79755 0.20464 0.19649 0.0
C479 C 0.77356 0.14542 0.17085 0.0
C480 C 0.84534 0.20972 0.24762 0.0
C481 C 0.84526 0.28402 0.25416 0.0
N482 N 0.80098 0.16959 0.18854 0.0
N483 N 0.82589 0.26374 0.22594 0.0
H484 H 0.41309 0.7086 0.3321 0.0
H485 H 0.43975 0.52138 0.43558 0.0
H486 H 0.37129 0.60081 0.28585 0.0
H487 H 0.47972 0.62961 0.48146 0.0
H488 H 0.41434 0.54945 0.38093 0.0
H489 H 0.43795 0.68003 0.38636 0.0
C490 C 0.40925 0.67895 0.33302 0.0
C491 C 0.38977 0.65739 0.3038 0.0
C492 C 0.42861 0.56707 0.40299 0.0
C493 C 0.41823 0.62403 0.36702 0.0
C494 C 0.44314 0.55099 0.43438 0.0
C495 C 0.46209 0.57294 0.4636 0.0
C496 C 0.43295 0.60557 0.40039 0.0
C497 C 0.46547 0.6113 0.45994 0.0
C498 C 0.42333 0.66256 0.36437 0.0
C499 C 0.38546 0.61889 0.30758 0.0
N500 N 0.45122 0.6262 0.42918 0.0
N501 N 0.39949 0.60363 0.33831 0.0
H502 H 0.08195 0.39415 0.78408 0.0
H503 H 0.10897 0.47054 0.99693 0.0
H504 H 0.19022 0.41388 0.83826 0.0
H505 H 0.02408 0.49781 0.9234 0.0
H506 H 0.13514 0.44162 0.94266 0.0
H507 H 0.05611 0.42368 0.83823 0.0
C508 C 0.10025 0.40451 0.80744 0.0
C509 C 0.1384 0.40156 0.80644 0.0
C510 C 0.11084 0.45401 0.9384 0.0
C511 C 0.10878 0.43507 0.86895 0.0
C512 C 0.09579 0.47049 0.96942 0.0
C513 C 0.0643 0.48693 0.96486 0.0
C514 C 0.09385 0.45306 0.90253 0.0
C515 C 0.04851 0.48581 0.92835 0.0
C516 C 0.08552 0.42155 0.83826 0.0
C517 C 0.16076 0.41576 0.83757 0.0
N518 N 0.06318 0.46896 0.89882 0.0
N519 N 0.14561 0.43155 0.86757 0.0
H520 H 0.66712 0.82016 0.93679 0.0
H521 H 0.49493 0.92304 0.96804 0.0
H522 H 0.56558 0.79576 0.8706 0.0
H523 H 0.60656 0.96087 1.01264 0.0
H524 H 0.51657 0.87103 0.93861 0.0
H525 H 0.64051 0.86502 0.97295 0.0
C526 C 0.6388 0.82355 0.93044 0.0
C527 C 0.61856 0.80413 0.90053 0.0
C528 C 0.53626 0.89075 0.95485 0.0
C529 C 0.58833 0.85643 0.94126 0.0
C530 C 0.52399 0.92049 0.9716 0.0
C531 C 0.54906 0.94655 0.99263 0.0
C532 C 0.57373 0.88685 0.95951 0.0
C533 C 0.58632 0.9417 0.99642 0.0
C534 C 0.62383 0.8496 0.9508 0.0
C535 C 0.58228 0.81037 0.89318 0.0
N536 N 0.59747 0.91244 0.98008 0.0
N537 N 0.5684 0.83619 0.91324 0.0
H538 H 0.89057 0.26036 0.4522 0.0
H539 H 0.02872 0.11841 0.44907 0.0
H540 H 0.97471 0.26172 0.36338 0.0
H541 H 0.95541 0.13352 0.54335 0.0
H542 H 1.01284 0.17262 0.41796 0.0
H543 H 0.9188 0.21745 0.48786 0.0
C544 C 0.9156 0.25248 0.44045 0.0
C545 C 0.92994 0.26471 0.40434 0.0
C546 C 1.00055 0.16407 0.4456 0.0
C547 C 0.96168 0.21368 0.4448 0.0
C548 C 1.00945 0.13307 0.46325 0.0
C549 C 0.993 0.12099 0.49864 0.0
C550 C 0.97506 0.18292 0.46354 0.0
C551 C 0.9685 0.1413 0.51588 0.0
C552 C 0.93149 0.22738 0.46077 0.0
C553 C 0.96206 0.25245 0.39066 0.0
N554 N 0.96019 0.17097 0.49811 0.0
N555 N 0.97649 0.22714 0.4106 0.0
H556 H 0.2942 0.59856 0.21202 0.0
H557 H 0.12515 0.63096 0.07933 0.0
H558 H 0.26745 0.70531 0.19328 0.0
H559 H 0.12488 0.5268 0.13375 0.0
H560 H 0.18271 0.65756 0.11387 0.0
H561 H 0.23654 0.57063 0.17832 0.0
C562 C 0.27627 0.61621 0.2012 0.0
C563 C 0.28647 0.65462 0.20533 0.0
C564 C 0.17008 0.62885 0.11816 0.0
C565 C 0.22061 0.62262 0.16558 0.0
C566 C 0.13733 0.61357 0.09821 0.0
C567 C 0.11992 0.57657 0.10361 0.0
C568 C 0.1861 0.60691 0.14332 0.0
C569 C 0.13708 0.55551 0.12877 0.0
C570 C 0.24342 0.60019 0.18164 0.0
C571 C 0.26183 0.67577 0.19006 0.0
N572 N 0.16915 0.57087 0.1475 0.0
N573 N 0.23051 0.65962 0.17071 0.0
H574 H 0.26267 0.35407 0.69917 0.0
H575 H 0.39324 0.5384 0.61532 0.0
H576 H 0.23103 0.45984 0.70721 0.0
H577 H 0.41485 0.42942 0.59794 0.0
H578 H 0.33521 0.51153 0.6506 0.0
H579 H 0.31986 0.38249 0.66461 0.0
C580 C 0.26758 0.38333 0.69357 0.0
C581 C 0.24138 0.40436 0.70588 0.0
C582 C 0.3526 0.49352 0.63894 0.0
C583 C 0.30793 0.43753 0.66624 0.0
C584 C 0.38579 0.50883 0.61867 0.0
C585 C 0.4092 0.48622 0.60338 0.0
C586 C 0.34269 0.45525 0.64428 0.0
C587 C 0.39789 0.44809 0.60896 0.0
C588 C 0.3005 0.39962 0.67384 0.0
C589 C 0.25026 0.44241 0.69849 0.0
N590 N 0.36571 0.43396 0.62892 0.0
N591 N 0.28261 0.45771 0.67907 0.0
H592 H 0.73068 0.76792 0.92637 0.0
H593 H 0.87148 0.6312 0.8838 0.0
H594 H 0.71472 0.68906 0.83483 0.0
H595 H 0.88684 0.71224 0.97326 0.0
H596 H 0.81223 0.64935 0.86724 0.0
H597 H 0.78545 0.74435 0.94664 0.0
C598 C 0.73824 0.74513 0.91094 0.0
C599 C 0.71799 0.7304 0.87885 0.0
C600 C 0.82862 0.66316 0.89047 0.0
C601 C 0.78149 0.70387 0.90136 0.0
C602 C 0.8624 0.65278 0.89995 0.0
C603 C 0.88434 0.67045 0.92974 0.0
C604 C 0.81663 0.69128 0.91105 0.0
C605 C 0.87128 0.69836 0.94959 0.0
C606 C 0.76983 0.73194 0.92229 0.0
C607 C 0.72973 0.70144 0.85952 0.0
N608 N 0.83835 0.70788 0.93989 0.0
N609 N 0.76083 0.68925 0.87094 0.0
H610 H 0.38054 0.74476 0.14681 0.0
H611 H 0.51214 0.94267 0.16105 0.0
H612 H 0.42093 0.7872 0.25629 0.0
H613 H 0.42181 0.91778 0.08054 0.0
H614 H 0.48789 0.88349 0.193 0.0
H615 H 0.40498 0.80474 0.11853 0.0
C616 C 0.39428 0.7666 0.16521 0.0
C617 C 0.39745 0.76058 0.2046 0.0
C618 C 0.4733 0.89113 0.1685 0.0
C619 C 0.4272 0.82991 0.17127 0.0
C620 C 0.48712 0.92489 0.15016 0.0
C621 C 0.46892 0.93548 0.11805 0.0
C622 C 0.44164 0.86712 0.15406 0.0
C623 C 0.43663 0.91111 0.10531 0.0
C624 C 0.40846 0.80098 0.14876 0.0
C625 C 0.4175 0.79012 0.22597 0.0
N626 N 0.42438 0.87804 0.12298 0.0
N627 N 0.43158 0.82339 0.20908 0.0
H628 H 0.18919 0.27847 0.70403 0.0
H629 H 1.00673 0.12449 0.65728 0.0
H630 H 0.07676 0.29804 0.7232 0.0
H631 H 0.11565 0.13106 0.60325 0.0
H632 H 0.03161 0.1825 0.69069 0.0
H633 H 0.16241 0.21907 0.6766 0.0
C634 C 0.1588 0.27054 0.70234 0.0
C635 C 0.1354 0.2942 0.71532 0.0
C636 C 0.05001 0.17105 0.67165 0.0
C637 C 0.10424 0.2247 0.68445 0.0
C638 C 0.03593 0.13781 0.65277 0.0
C639 C 0.0591 0.12269 0.62737 0.0
C640 C 0.08774 0.18898 0.66568 0.0
C641 C 0.09662 0.14153 0.62241 0.0
C642 C 0.1435 0.23629 0.68678 0.0
C643 C 0.0961 0.28108 0.71358 0.0
N644 N 0.10969 0.17338 0.6414 0.0
N645 N 0.08178 0.24734 0.69831 0.0
H646 H 0.83235 0.38007 0.34678 0.0
H647 H 0.65689 0.34949 0.49204 0.0
H648 H 0.81895 0.30267 0.43993 0.0
H649 H 0.67796 0.43572 0.40748 0.0
H650 H 0.71707 0.33296 0.47461 0.0
H651 H 0.7777 0.40313 0.37074 0.0
C652 C 0.81824 0.36839 0.37266 0.0
C653 C 0.83014 0.33943 0.39138 0.0
C654 C 0.70861 0.35562 0.45999 0.0
C655 C 0.76718 0.36513 0.41861 0.0
C656 C 0.67411 0.36483 0.4697 0.0
C657 C 0.66231 0.39393 0.45109 0.0
C658 C 0.73138 0.37545 0.43124 0.0
C659 C 0.68606 0.41328 0.42279 0.0
C660 C 0.78699 0.38146 0.38628 0.0
C661 C 0.81092 0.32528 0.42483 0.0
N662 N 0.71932 0.40357 0.4136 0.0
N663 N 0.78011 0.33796 0.43712 0.0
loop_
_geom_bond_atom_site_label_1
_geom_bond_atom_site_label_2
_geom_bond_distance
_geom_bond_site_symmetry_2
_ccdc_geom_bond_type
H0 C3 0.931 . S
H1 C6 0.928 . S
H2 C8 0.930 . S
C3 H0 0.931 . S
C3 C4 1.413 . S
C3 C5 1.360 . S
C4 C3 1.413 . S
C4 C8 1.429 . S
C5 C3 1.360 . S
C5 C6 1.372 . S
C6 H1 0.928 . S
C6 C5 1.372 . S
C6 C7 1.404 . S
C7 C6 1.404 . S
C7 C8 1.391 . S
C8 H2 0.930 . S
C8 C4 1.429 . S
C8 C7 1.391 . S
H9 C12 0.931 . S
H10 C15 0.928 . S
H11 C17 0.930 . S
C12 H9 0.931 . S
C12 C13 1.413 . S
C12 C14 1.360 . S
C13 C12 1.413 . S
C13 C17 1.429 . S
C14 C12 1.360 . S
C14 C15 1.372 . S
C15 H10 0.928 . S
C15 C14 1.372 . S
C15 C16 1.404 . S
C16 C15 1.404 . S
C16 C17 1.391 . S
C17 H11 0.930 . S
C17 C13 1.429 . S
C17 C16 1.391 . S
H18 C21 0.931 . S
H19 C24 0.928 . S
H20 C26 0.930 . S
C21 H18 0.931 . S
C21 C22 1.413 . S
C21 C23 1.360 . S
C22 C21 1.413 . S
C22 C26 1.429 . S
C23 C21 1.360 . S
C23 C24 1.372 . S
C24 H19 0.928 . S
C24 C23 1.372 . S
C24 C25 1.404 . S
C25 C24 1.404 . S
C25 C26 1.391 . S
C26 H20 0.930 . S
C26 C22 1.429 . S
C26 C25 1.391 . S
H27 C30 0.931 . S
H28 C33 0.928 . S
H29 C35 0.930 . S
C30 H27 0.931 . S
C30 C31 1.413 . S
C30 C32 1.360 . S
C31 C30 1.413 . S
C31 C35 1.429 . S
C32 C30 1.360 . S
C32 C33 1.372 . S
C33 H28 0.928 . S
C33 C32 1.372 . S
C33 C34 1.404 . S
C34 C33 1.404 . S
C34 C35 1.391 . S
C35 H29 0.930 . S
C35 C31 1.429 . S
C35 C34 1.391 . S
H36 C39 0.931 . S
H37 C42 0.928 . S
H38 C44 0.930 . S
C39 H36 0.931 . S
C39 C40 1.413 . S
C39 C41 1.360 . S
C40 C39 1.413 . S
C40 C44 1.429 . S
C41 C39 1.360 . S
C41 C42 1.372 . S
C42 H37 0.928 . S
C42 C41 1.372 . S
C42 C43 1.404 . S
C43 C42 1.404 . S
C43 C44 1.391 . S
C44 H38 0.930 . S
C44 C40 1.429 . S
C44 C43 1.391 . S
H45 C48 0.931 . S
H46 C51 0.928 . S
H47 C53 0.930 . S
C48 H45 0.931 . S
C48 C49 1.413 . S
C48 C50 1.360 . S
C49 C48 1.413 . S
C49 C53 1.429 . S
C50 C48 1.360 . S
C50 C51 1.372 . S
C51 H46 0.928 . S
C51 C50 1.372 . S
C51 C52 1.404 . S
C52 C51 1.404 . S
C52 C53 1.391 . S
C53 H47 0.930 . S
C53 C49 1.429 . S
C53 C52 1.391 . S
H54 C57 0.931 . S
H55 C60 0.928 . S
H56 C62 0.930 . S
C57 H54 0.931 . S
C57 C58 1.413 . S
C57 C59 1.360 . S
C58 C57 1.413 . S
C58 C62 1.429 . S
C59 C57 1.360 . S
C59 C60 1.372 . S
C60 H55 0.928 . S
C60 C59 1.372 . S
C60 C61 1.404 . S
C61 C60 1.404 . S
C61 C62 1.391 . S
C62 H56 0.930 . S
C62 C58 1.429 . S
C62 C61 1.391 . S
H63 C66 0.931 . S
H64 C69 0.928 . S
H65 C71 0.930 . S
C66 H63 0.931 . S
C66 C67 1.413 . S
C66 C68 1.360 . S
C67 C66 1.413 . S
C67 C71 1.429 . S
C68 C66 1.360 . S
C68 C69 1.372 . S
C69 H64 0.928 . S
C69 C68 1.372 . S
C69 C70 1.404 . S
C70 C69 1.404 . S
C70 C71 1.391 . S
C71 H65 0.930 . S
C71 C67 1.429 . S
C71 C70 1.391 . S
Tb72 C81 2.764 . S
Tb72 O82 2.300 1_455 S
Tb72 O85 2.303 . S
Tb72 O89 2.322 1_545 S
Tb72 O90 2.349 1_545 S
Tb72 O93 2.415 . S
Tb72 O94 2.399 . S
Tb73 O83 2.343 . S
Tb73 O84 2.374 . S
Tb73 O86 2.389 1_545 S
Tb73 O87 2.397 1_545 S
Tb73 O88 2.307 1_645 S
Tb73 O91 2.284 1_545 S
Tb73 C102 2.748 1_545 S
C74 O90 1.261 1_655 S
C74 O91 1.257 . S
C75 C78 1.358 . S
C75 C79 1.332 . S
C75 C81 1.504 . S
C76 C77 1.373 . S
C76 C80 1.308 . S
C77 C76 1.373 . S
C77 C78 1.429 . S
C77 H104 0.932 . S
C78 C75 1.358 . S
C78 C77 1.429 . S
C78 H105 0.930 . S
C79 C75 1.332 . S
C79 C80 1.394 . S
C79 H106 0.932 . S
C80 C76 1.308 . S
C80 C79 1.394 . S
C80 H107 0.929 . S
C81 Tb72 2.764 . S
C81 C75 1.504 . S
C81 O93 1.239 . S
C81 O94 1.263 . S
O82 Tb72 2.300 1_655 S
O82 C92 1.261 . S
O83 Tb73 2.343 . S
O83 C92 1.257 . S
O84 Tb73 2.374 . S
O84 C95 1.261 1_655 S
O85 Tb72 2.303 . S
O85 C95 1.257 . S
O86 Tb73 2.389 1_565 S
O86 C102 1.239 . S
O87 Tb73 2.397 1_565 S
O87 C102 1.263 . S
O88 Tb73 2.307 1_465 S
O88 C103 1.236 . S
O89 Tb72 2.322 1_565 S
O89 C103 1.257 . S
O90 Tb72 2.349 1_565 S
O90 C74 1.261 1_455 S
O91 Tb73 2.284 1_565 S
O91 C74 1.257 . S
C92 O82 1.261 . S
C92 O83 1.257 . S
O93 Tb72 2.415 . S
O93 C81 1.239 . S
O94 Tb72 2.399 . S
O94 C81 1.263 . S
C95 O84 1.261 1_455 S
C95 O85 1.257 . S
C96 C99 1.358 . S
C96 C100 1.332 . S
C96 C102 1.504 . S
C97 C98 1.373 . S
C97 C101 1.308 . S
C98 C97 1.373 . S
C98 C99 1.429 . S
C98 H108 0.932 . S
C99 C96 1.358 . S
C99 C98 1.429 . S
C99 H109 0.930 . S
C100 C96 1.332 . S
C100 C101 1.394 . S
C100 H110 0.932 . S
C101 C97 1.308 . S
C101 C100 1.394 . S
C101 H111 0.929 . S
C102 Tb73 2.748 1_565 S
C102 O86 1.239 . S
C102 O87 1.263 . S
C102 C96 1.504 . S
C103 O88 1.236 . S
C103 O89 1.257 . S
H104 C77 0.932 . S
H105 C78 0.930 . S
H106 C79 0.932 . S
H107 C80 0.929 . S
H108 C98 0.932 . S
H109 C99 0.930 . S
H110 C100 0.932 . S
H111 C101 0.929 . S
Tb112 C121 2.764 . S
Tb112 O122 2.325 1_554 S
Tb112 O125 2.303 . S
Tb112 O129 2.322 1_545 S
Tb112 O130 2.349 1_544 S
Tb112 O133 2.415 . S
Tb112 O134 2.399 . S
Tb113 O123 2.322 1_565 S
Tb113 O124 2.349 1_566 S
Tb113 O126 2.415 . S
Tb113 O127 2.399 . S
Tb113 O128 2.325 1_556 S
Tb113 O131 2.303 . S
Tb113 C142 2.764 . S
C114 O130 1.261 . S
C114 O131 1.257 . S
C115 C118 1.358 . S
C115 C119 1.332 . S
C115 C121 1.504 . S
C116 C117 1.373 . S
C116 C120 1.308 . S
C117 C116 1.373 . S
C117 C118 1.429 . S
C117 H144 0.932 . S
C118 C115 1.358 . S
C118 C117 1.429 . S
C118 H145 0.930 . S
C119 C115 1.332 . S
C119 C120 1.394 . S
C119 H146 0.932 . S
C120 C116 1.308 . S
C120 C119 1.394 . S
C120 H147 0.929 . S
C121 Tb112 2.764 . S
C121 C115 1.504 . S
C121 O133 1.239 . S
C121 O134 1.263 . S
O122 Tb112 2.325 1_556 S
O122 C132 1.236 . S
O123 Tb113 2.322 1_545 S
O123 C132 1.257 . S
O124 Tb113 2.349 1_544 S
O124 C135 1.261 . S
O125 Tb112 2.303 . S
O125 C135 1.257 . S
O126 Tb113 2.415 . S
O126 C142 1.239 . S
O127 Tb113 2.399 . S
O127 C142 1.263 . S
O128 Tb113 2.325 1_554 S
O128 C143 1.236 . S
O129 Tb112 2.322 1_565 S
O129 C143 1.257 . S
O130 Tb112 2.349 1_566 S
O130 C114 1.261 . S
O131 Tb113 2.303 . S
O131 C114 1.257 . S
C132 O122 1.236 . S
C132 O123 1.257 . S
O133 Tb112 2.415 . S
O133 C121 1.239 . S
O134 Tb112 2.399 . S
O134 C121 1.263 . S
C135 O124 1.261 . S
C135 O125 1.257 . S
C136 C139 1.358 . S
C136 C140 1.332 . S
C136 C142 1.504 . S
C137 C138 1.373 . S
C137 C141 1.308 . S
C138 C137 1.373 . S
C138 C139 1.429 . S
C138 H148 0.932 . S
C139 C136 1.358 . S
C139 C138 1.429 . S
C139 H149 0.930 . S
C140 C136 1.332 . S
C140 C141 1.394 . S
C140 H150 0.932 . S
C141 C137 1.308 . S
C141 C140 1.394 . S
C141 H151 0.929 . S
C142 Tb113 2.764 . S
C142 O126 1.239 . S
C142 O127 1.263 . S
C142 C136 1.504 . S
C143 O128 1.236 . S
C143 O129 1.257 . S
H144 C117 0.932 . S
H145 C118 0.930 . S
H146 C119 0.932 . S
H147 C120 0.929 . S
H148 C138 0.932 . S
H149 C139 0.930 . S
H150 C140 0.932 . S
H151 C141 0.929 . S
Tb152 C161 2.764 . S
Tb152 O162 2.325 . S
Tb152 O165 2.303 . S
Tb152 O169 2.322 . S
Tb152 O170 2.349 . S
Tb152 O173 2.415 . S
Tb152 O174 2.399 . S
Tb153 O163 2.322 . S
Tb153 O164 2.349 . S
Tb153 O166 2.415 . S
Tb153 O167 2.399 . S
Tb153 O168 2.325 . S
Tb153 O171 2.303 . S
Tb153 C182 2.764 . S
C154 O170 1.261 . S
C154 O171 1.257 . S
C155 C158 1.358 . S
C155 C159 1.332 . S
C155 C161 1.504 . S
C156 C157 1.373 . S
C156 C160 1.308 . S
C157 C156 1.373 . S
C157 C158 1.429 . S
C157 H184 0.932 . S
C158 C155 1.358 . S
C158 C157 1.429 . S
C158 H185 0.930 . S
C159 C155 1.332 . S
C159 C160 1.394 . S
C159 H186 0.932 . S
C160 C156 1.308 . S
C160 C159 1.394 . S
C160 H187 0.929 . S
C161 Tb152 2.764 . S
C161 C155 1.504 . S
C161 O173 1.239 . S
C161 O174 1.263 . S
O162 Tb152 2.325 . S
O162 C172 1.236 . S
O163 Tb153 2.322 . S
O163 C172 1.257 . S
O164 Tb153 2.349 . S
O164 C175 1.261 . S
O165 Tb152 2.303 . S
O165 C175 1.257 . S
O166 Tb153 2.415 . S
O166 C182 1.239 . S
O167 Tb153 2.399 . S
O167 C182 1.263 . S
O168 Tb153 2.325 . S
O168 C183 1.236 . S
O169 Tb152 2.322 . S
O169 C183 1.257 . S
O170 Tb152 2.349 . S
O170 C154 1.261 . S
O171 Tb153 2.303 . S
O171 C154 1.257 . S
C172 O162 1.236 . S
C172 O163 1.257 . S
O173 Tb152 2.415 . S
O173 C161 1.239 . S
O174 Tb152 2.399 . S
O174 C161 1.263 . S
C175 O164 1.261 . S
C175 O165 1.257 . S
C176 C179 1.358 . S
C176 C180 1.332 . S
C176 C182 1.504 . S
C177 C178 1.373 . S
C177 C181 1.308 . S
C178 C177 1.373 . S
C178 C179 1.429 . S
C178 H188 0.932 . S
C179 C176 1.358 . S
C179 C178 1.429 . S
C179 H189 0.930 . S
C180 C176 1.332 . S
C180 C181 1.394 . S
C180 H190 0.932 . S
C181 C177 1.308 . S
C181 C180 1.394 . S
C181 H191 0.929 . S
C182 Tb153 2.764 . S
C182 O166 1.239 . S
C182 O167 1.263 . S
C182 C176 1.504 . S
C183 O168 1.236 . S
C183 O169 1.257 . S
H184 C157 0.932 . S
H185 C158 0.930 . S
H186 C159 0.932 . S
H187 C160 0.929 . S
H188 C178 0.932 . S
H189 C179 0.930 . S
H190 C180 0.932 . S
H191 C181 0.929 . S
Tb192 C201 2.764 . S
Tb192 O202 2.325 . S
Tb192 O205 2.303 1_556 S
Tb192 O209 2.319 1_656 S
Tb192 O210 2.349 1_655 S
Tb192 O213 2.415 . S
Tb192 O214 2.399 . S
Tb193 O203 2.322 1_455 S
Tb193 O204 2.349 1_455 S
Tb193 O206 2.415 . S
Tb193 O207 2.399 . S
Tb193 O208 2.325 . S
Tb193 O211 2.303 1_554 S
Tb193 C222 2.764 . S
C194 O210 1.261 . S
C194 O211 1.257 . S
C195 C198 1.358 . S
C195 C199 1.332 . S
C195 C201 1.504 . S
C196 C197 1.373 . S
C196 C200 1.308 . S
C197 C196 1.373 . S
C197 C198 1.429 . S
C197 H224 0.932 . S
C198 C195 1.358 . S
C198 C197 1.429 . S
C198 H225 0.930 . S
C199 C195 1.332 . S
C199 C200 1.394 . S
C199 H226 0.932 . S
C200 C196 1.308 . S
C200 C199 1.394 . S
C200 H227 0.929 . S
C201 Tb192 2.764 . S
C201 C195 1.504 . S
C201 O213 1.239 . S
C201 O214 1.263 . S
O202 Tb192 2.325 . S
O202 C212 1.236 . S
O203 Tb193 2.322 1_655 S
O203 C212 1.257 1_554 S
O204 Tb193 2.349 1_655 S
O204 C215 1.261 . S
O205 Tb192 2.303 1_554 S
O205 C215 1.257 . S
O206 Tb193 2.415 . S
O206 C222 1.239 . S
O207 Tb193 2.399 . S
O207 C222 1.263 . S
O208 Tb193 2.325 . S
O208 C223 1.236 . S
O209 Tb192 2.319 1_454 S
O209 C223 1.263 . S
O210 Tb192 2.349 1_455 S
O210 C194 1.261 . S
O211 Tb193 2.303 1_556 S
O211 C194 1.257 . S
C212 O202 1.236 . S
C212 O203 1.257 1_556 S
O213 Tb192 2.415 . S
O213 C201 1.239 . S
O214 Tb192 2.399 . S
O214 C201 1.263 . S
C215 O204 1.261 . S
C215 O205 1.257 . S
C216 C219 1.358 . S
C216 C220 1.332 . S
C216 C222 1.504 . S
C217 C218 1.373 . S
C217 C221 1.308 . S
C218 C217 1.373 . S
C218 C219 1.429 . S
C218 H228 0.932 . S
C219 C216 1.358 . S
C219 C218 1.429 . S
C219 H229 0.930 . S
C220 C216 1.332 . S
C220 C221 1.394 . S
C220 H230 0.932 . S
C221 C217 1.308 . S
C221 C220 1.394 . S
C221 H231 0.929 . S
C222 Tb193 2.764 . S
C222 O206 1.239 . S
C222 O207 1.263 . S
C222 C216 1.504 . S
C223 O208 1.236 . S
C223 O209 1.263 . S
H224 C197 0.932 . S
H225 C198 0.930 . S
H226 C199 0.932 . S
H227 C200 0.929 . S
H228 C218 0.932 . S
H229 C219 0.930 . S
H230 C220 0.932 . S
H231 C221 0.929 . S
H232 C238 0.930 . S
H233 C242 0.930 . S
H234 C247 0.929 . S
H235 C245 0.929 . S
H236 C240 0.929 . S
H237 C246 0.929 . S
C238 H232 0.930 . S
C238 C239 1.367 . S
C238 C246 1.378 . S
C239 C238 1.367 . S
C239 C247 1.433 . S
C240 H236 0.929 . S
C240 C242 1.378 . S
C240 C244 1.350 . S
C241 C244 1.463 . S
C241 C246 1.350 . S
C241 N249 1.427 . S
C242 H233 0.930 . S
C242 C240 1.378 . S
C242 C243 1.367 . S
C243 C242 1.367 . S
C243 C245 1.433 . S
C244 C240 1.350 . S
C244 C241 1.463 . S
C244 N248 1.427 . S
C245 H235 0.929 . S
C245 C243 1.433 . S
C245 N248 1.384 . S
C246 H237 0.929 . S
C246 C238 1.378 . S
C246 C241 1.350 . S
C247 H234 0.929 . S
C247 C239 1.433 . S
C247 N249 1.384 . S
N248 C244 1.427 . S
N248 C245 1.384 . S
N249 C241 1.427 . S
N249 C247 1.384 . S
H250 C256 0.930 . S
H251 C260 0.930 . S
H252 C265 0.929 . S
H253 C263 0.929 . S
H254 C258 0.929 . S
H255 C264 0.929 . S
C256 H250 0.930 . S
C256 C257 1.367 . S
C256 C264 1.378 . S
C257 C256 1.367 . S
C257 C265 1.433 . S
C258 H254 0.929 . S
C258 C260 1.378 . S
C258 C262 1.350 . S
C259 C262 1.463 . S
C259 C264 1.350 . S
C259 N267 1.427 . S
C260 H251 0.930 . S
C260 C258 1.378 . S
C260 C261 1.367 . S
C261 C260 1.367 . S
C261 C263 1.433 . S
C262 C258 1.350 . S
C262 C259 1.463 . S
C262 N266 1.427 . S
C263 H253 0.929 . S
C263 C261 1.433 . S
C263 N266 1.384 . S
C264 H255 0.929 . S
C264 C256 1.378 . S
C264 C259 1.350 . S
C265 H252 0.929 . S
C265 C257 1.433 . S
C265 N267 1.384 . S
N266 C262 1.427 . S
N266 C263 1.384 . S
N267 C259 1.427 . S
N267 C265 1.384 . S
H268 C274 0.930 . S
H269 C278 0.930 . S
H270 C283 0.929 . S
H271 C281 0.929 . S
H272 C276 0.929 . S
H273 C282 0.929 . S
C274 H268 0.930 . S
C274 C275 1.367 . S
C274 C282 1.378 . S
C275 C274 1.367 . S
C275 C283 1.433 . S
C276 H272 0.929 . S
C276 C278 1.378 . S
C276 C280 1.350 . S
C277 C280 1.463 . S
C277 C282 1.350 . S
C277 N285 1.427 . S
C278 H269 0.930 . S
C278 C276 1.378 . S
C278 C279 1.367 . S
C279 C278 1.367 . S
C279 C281 1.433 . S
C280 C276 1.350 . S
C280 C277 1.463 . S
C280 N284 1.427 . S
C281 H271 0.929 . S
C281 C279 1.433 . S
C281 N284 1.384 . S
C282 H273 0.929 . S
C282 C274 1.378 . S
C282 C277 1.350 . S
C283 H270 0.929 . S
C283 C275 1.433 . S
C283 N285 1.384 . S
N284 C280 1.427 . S
N284 C281 1.384 . S
N285 C277 1.427 . S
N285 C283 1.384 . S
H286 C292 0.930 . S
H287 C296 0.930 . S
H288 C301 0.929 . S
H289 C299 0.929 . S
H290 C294 0.929 . S
H291 C300 0.929 . S
C292 H286 0.930 . S
C292 C293 1.367 . S
C292 C300 1.378 . S
C293 C292 1.367 . S
C293 C301 1.433 . S
C294 H290 0.929 . S
C294 C296 1.378 . S
C294 C298 1.350 . S
C295 C298 1.463 . S
C295 C300 1.350 . S
C295 N303 1.427 . S
C296 H287 0.930 . S
C296 C294 1.378 . S
C296 C297 1.367 . S
C297 C296 1.367 . S
C297 C299 1.433 . S
C298 C294 1.350 . S
C298 C295 1.463 . S
C298 N302 1.427 . S
C299 H289 0.929 . S
C299 C297 1.433 . S
C299 N302 1.384 . S
C300 H291 0.929 . S
C300 C292 1.378 . S
C300 C295 1.350 . S
C301 H288 0.929 . S
C301 C293 1.433 . S
C301 N303 1.384 . S
N302 C298 1.427 . S
N302 C299 1.384 . S
N303 C295 1.427 . S
N303 C301 1.384 . S
H304 C310 0.930 . S
H305 C314 0.930 . S
H306 C319 0.929 . S
H307 C317 0.929 . S
H308 C312 0.929 . S
H309 C318 0.929 . S
C310 H304 0.930 . S
C310 C311 1.367 . S
C310 C318 1.378 . S
C311 C310 1.367 . S
C311 C319 1.433 . S
C312 H308 0.929 . S
C312 C314 1.378 . S
C312 C316 1.350 . S
C313 C316 1.463 . S
C313 C318 1.350 . S
C313 N321 1.427 . S
C314 H305 0.930 . S
C314 C312 1.378 . S
C314 C315 1.367 . S
C315 C314 1.367 . S
C315 C317 1.433 . S
C316 C312 1.350 . S
C316 C313 1.463 . S
C316 N320 1.427 . S
C317 H307 0.929 . S
C317 C315 1.433 . S
C317 N320 1.384 . S
C318 H309 0.929 . S
C318 C310 1.378 . S
C318 C313 1.350 . S
C319 H306 0.929 . S
C319 C311 1.433 . S
C319 N321 1.384 . S
N320 C316 1.427 . S
N320 C317 1.384 . S
N321 C313 1.427 . S
N321 C319 1.384 . S
H322 C328 0.930 . S
H323 C332 0.930 . S
H324 C337 0.929 . S
H325 C335 0.929 . S
H326 C330 0.929 . S
H327 C336 0.929 . S
C328 H322 0.930 . S
C328 C329 1.367 . S
C328 C336 1.378 . S
C329 C328 1.367 . S
C329 C337 1.433 . S
C330 H326 0.929 . S
C330 C332 1.378 . S
C330 C334 1.350 . S
C331 C334 1.463 . S
C331 C336 1.350 . S
C331 N339 1.427 . S
C332 H323 0.930 . S
C332 C330 1.378 . S
C332 C333 1.367 . S
C333 C332 1.367 . S
C333 C335 1.433 . S
C334 C330 1.350 . S
C334 C331 1.463 . S
C334 N338 1.427 . S
C335 H325 0.929 . S
C335 C333 1.433 . S
C335 N338 1.384 . S
C336 H327 0.929 . S
C336 C328 1.378 . S
C336 C331 1.350 . S
C337 H324 0.929 . S
C337 C329 1.433 . S
C337 N339 1.384 . S
N338 C334 1.427 . S
N338 C335 1.384 . S
N339 C331 1.427 . S
N339 C337 1.384 . S
H340 C346 0.930 . S
H341 C350 0.930 1_554 S
H342 C355 0.929 . S
H343 C353 0.929 . S
H344 C348 0.929 . S
H345 C354 0.929 . S
C346 H340 0.930 . S
C346 C347 1.367 . S
C346 C354 1.378 . S
C347 C346 1.367 . S
C347 C355 1.433 . S
C348 H344 0.929 . S
C348 C350 1.378 . S
C348 C352 1.350 . S
C349 C352 1.463 . S
C349 C354 1.350 . S
C349 N357 1.427 . S
C350 H341 0.930 1_556 S
C350 C348 1.378 . S
C350 C351 1.367 . S
C351 C350 1.367 . S
C351 C353 1.433 . S
C352 C348 1.350 . S
C352 C349 1.463 . S
C352 N356 1.427 . S
C353 H343 0.929 . S
C353 C351 1.433 . S
C353 N356 1.384 . S
C354 H345 0.929 . S
C354 C346 1.378 . S
C354 C349 1.350 . S
C355 H342 0.929 . S
C355 C347 1.433 . S
C355 N357 1.384 . S
N356 C352 1.427 . S
N356 C353 1.384 . S
N357 C349 1.427 . S
N357 C355 1.384 . S
H358 C364 0.930 . S
H359 C368 0.930 . S
H360 C373 0.929 . S
H361 C371 0.929 . S
H362 C366 0.929 . S
H363 C372 0.929 . S
C364 H358 0.930 . S
C364 C365 1.367 . S
C364 C372 1.378 . S
C365 C364 1.367 . S
C365 C373 1.433 . S
C366 H362 0.929 . S
C366 C368 1.378 . S
C366 C370 1.350 . S
C367 C370 1.463 . S
C367 C372 1.350 . S
C367 N375 1.427 . S
C368 H359 0.930 . S
C368 C366 1.378 . S
C368 C369 1.367 . S
C369 C368 1.367 . S
C369 C371 1.433 . S
C370 C366 1.350 . S
C370 C367 1.463 . S
C370 N374 1.427 . S
C371 H361 0.929 . S
C371 C369 1.433 . S
C371 N374 1.384 . S
C372 H363 0.929 . S
C372 C364 1.378 . S
C372 C367 1.350 . S
C373 H360 0.929 . S
C373 C365 1.433 . S
C373 N375 1.384 . S
N374 C370 1.427 . S
N374 C371 1.384 . S
N375 C367 1.427 . S
N375 C373 1.384 . S
H376 C382 0.930 . S
H377 C386 0.930 . S
H378 C391 0.929 . S
H379 C389 0.929 . S
H380 C384 0.929 . S
H381 C390 0.929 . S
C382 H376 0.930 . S
C382 C383 1.367 . S
C382 C390 1.378 . S
C383 C382 1.367 . S
C383 C391 1.433 . S
C384 H380 0.929 . S
C384 C386 1.378 . S
C384 C388 1.350 . S
C385 C388 1.463 . S
C385 C390 1.350 . S
C385 N393 1.427 . S
C386 H377 0.930 . S
C386 C384 1.378 . S
C386 C387 1.367 . S
C387 C386 1.367 . S
C387 C389 1.433 . S
C388 C384 1.350 . S
C388 C385 1.463 . S
C388 N392 1.427 . S
C389 H379 0.929 . S
C389 C387 1.433 . S
C389 N392 1.384 . S
C390 H381 0.929 . S
C390 C382 1.378 . S
C390 C385 1.350 . S
C391 H378 0.929 . S
C391 C383 1.433 . S
C391 N393 1.384 . S
N392 C388 1.427 . S
N392 C389 1.384 . S
N393 C385 1.427 . S
N393 C391 1.384 . S
H394 C400 0.930 . S
H395 C404 0.930 . S
H396 C409 0.929 . S
H397 C407 0.929 . S
H398 C402 0.929 . S
H399 C408 0.929 . S
C400 H394 0.930 . S
C400 C401 1.367 . S
C400 C408 1.378 . S
C401 C400 1.367 . S
C401 C409 1.433 . S
C402 H398 0.929 . S
C402 C404 1.378 . S
C402 C406 1.350 . S
C403 C406 1.463 . S
C403 C408 1.350 . S
C403 N411 1.427 . S
C404 H395 0.930 . S
C404 C402 1.378 . S
C404 C405 1.367 . S
C405 C404 1.367 . S
C405 C407 1.433 . S
C406 C402 1.350 . S
C406 C403 1.463 . S
C406 N410 1.427 . S
C407 H397 0.929 . S
C407 C405 1.433 . S
C407 N410 1.384 . S
C408 H399 0.929 . S
C408 C400 1.378 . S
C408 C403 1.350 . S
C409 H396 0.929 . S
C409 C401 1.433 . S
C409 N411 1.384 . S
N410 C406 1.427 . S
N410 C407 1.384 . S
N411 C403 1.427 . S
N411 C409 1.384 . S
H412 C418 0.930 . S
H413 C422 0.930 . S
H414 C427 0.929 . S
H415 C425 0.929 . S
H416 C420 0.929 . S
H417 C426 0.929 . S
C418 H412 0.930 . S
C418 C419 1.367 . S
C418 C426 1.378 . S
C419 C418 1.367 . S
C419 C427 1.433 . S
C420 H416 0.929 . S
C420 C422 1.378 . S
C420 C424 1.350 . S
C421 C424 1.463 . S
C421 C426 1.350 . S
C421 N429 1.427 . S
C422 H413 0.930 . S
C422 C420 1.378 . S
C422 C423 1.367 . S
C423 C422 1.367 . S
C423 C425 1.433 . S
C424 C420 1.350 . S
C424 C421 1.463 . S
C424 N428 1.427 . S
C425 H415 0.929 . S
C425 C423 1.433 . S
C425 N428 1.384 . S
C426 H417 0.929 . S
C426 C418 1.378 . S
C426 C421 1.350 . S
C427 H414 0.929 . S
C427 C419 1.433 . S
C427 N429 1.384 . S
N428 C424 1.427 . S
N428 C425 1.384 . S
N429 C421 1.427 . S
N429 C427 1.384 . S
H430 C436 0.930 . S
H431 C440 0.930 . S
H432 C445 0.929 . S
H433 C443 0.929 . S
H434 C438 0.929 . S
H435 C444 0.929 . S
C436 H430 0.930 . S
C436 C437 1.367 . S
C436 C444 1.378 . S
C437 C436 1.367 . S
C437 C445 1.433 . S
C438 H434 0.929 . S
C438 C440 1.378 . S
C438 C442 1.350 . S
C439 C442 1.463 . S
C439 C444 1.350 . S
C439 N447 1.427 . S
C440 H431 0.930 . S
C440 C438 1.378 . S
C440 C441 1.367 . S
C441 C440 1.367 . S
C441 C443 1.433 . S
C442 C438 1.350 . S
C442 C439 1.463 . S
C442 N446 1.427 . S
C443 H433 0.929 . S
C443 C441 1.433 . S
C443 N446 1.384 . S
C444 H435 0.929 . S
C444 C436 1.378 . S
C444 C439 1.350 . S
C445 H432 0.929 . S
C445 C437 1.433 . S
C445 N447 1.384 . S
N446 C442 1.427 . S
N446 C443 1.384 . S
N447 C439 1.427 . S
N447 C445 1.384 . S
H448 C454 0.930 . S
H449 C458 0.930 . S
H450 C463 0.929 . S
H451 C461 0.929 . S
H452 C456 0.929 . S
H453 C462 0.929 . S
C454 H448 0.930 . S
C454 C455 1.367 . S
C454 C462 1.378 . S
C455 C454 1.367 . S
C455 C463 1.433 . S
C456 H452 0.929 . S
C456 C458 1.378 . S
C456 C460 1.350 . S
C457 C460 1.463 . S
C457 C462 1.350 . S
C457 N465 1.427 . S
C458 H449 0.930 . S
C458 C456 1.378 . S
C458 C459 1.367 . S
C459 C458 1.367 . S
C459 C461 1.433 . S
C460 C456 1.350 . S
C460 C457 1.463 . S
C460 N464 1.427 . S
C461 H451 0.929 . S
C461 C459 1.433 . S
C461 N464 1.384 . S
C462 H453 0.929 . S
C462 C454 1.378 . S
C462 C457 1.350 . S
C463 H450 0.929 . S
C463 C455 1.433 . S
C463 N465 1.384 . S
N464 C460 1.427 . S
N464 C461 1.384 . S
N465 C457 1.427 . S
N465 C463 1.384 . S
H466 C472 0.930 . S
H467 C476 0.930 . S
H468 C481 0.929 . S
H469 C479 0.929 . S
H470 C474 0.929 . S
H471 C480 0.929 . S
C472 H466 0.930 . S
C472 C473 1.367 . S
C472 C480 1.378 . S
C473 C472 1.367 . S
C473 C481 1.433 . S
C474 H470 0.929 . S
C474 C476 1.378 . S
C474 C478 1.350 . S
C475 C478 1.463 . S
C475 C480 1.350 . S
C475 N483 1.427 . S
C476 H467 0.930 . S
C476 C474 1.378 . S
C476 C477 1.367 . S
C477 C476 1.367 . S
C477 C479 1.433 . S
C478 C474 1.350 . S
C478 C475 1.463 . S
C478 N482 1.427 . S
C479 H469 0.929 . S
C479 C477 1.433 . S
C479 N482 1.384 . S
C480 H471 0.929 . S
C480 C472 1.378 . S
C480 C475 1.350 . S
C481 H468 0.929 . S
C481 C473 1.433 . S
C481 N483 1.384 . S
N482 C478 1.427 . S
N482 C479 1.384 . S
N483 C475 1.427 . S
N483 C481 1.384 . S
H484 C490 0.930 . S
H485 C494 0.930 . S
H486 C499 0.929 . S
H487 C497 0.929 . S
H488 C492 0.929 . S
H489 C498 0.929 . S
C490 H484 0.930 . S
C490 C491 1.367 . S
C490 C498 1.378 . S
C491 C490 1.367 . S
C491 C499 1.433 . S
C492 H488 0.929 . S
C492 C494 1.378 . S
C492 C496 1.350 . S
C493 C496 1.463 . S
C493 C498 1.350 . S
C493 N501 1.427 . S
C494 H485 0.930 . S
C494 C492 1.378 . S
C494 C495 1.367 . S
C495 C494 1.367 . S
C495 C497 1.433 . S
C496 C492 1.350 . S
C496 C493 1.463 . S
C496 N500 1.427 . S
C497 H487 0.929 . S
C497 C495 1.433 . S
C497 N500 1.384 . S
C498 H489 0.929 . S
C498 C490 1.378 . S
C498 C493 1.350 . S
C499 H486 0.929 . S
C499 C491 1.433 . S
C499 N501 1.384 . S
N500 C496 1.427 . S
N500 C497 1.384 . S
N501 C493 1.427 . S
N501 C499 1.384 . S
H502 C508 0.930 . S
H503 C512 0.930 . S
H504 C517 0.929 . S
H505 C515 0.929 . S
H506 C510 0.929 . S
H507 C516 0.929 . S
C508 H502 0.930 . S
C508 C509 1.367 . S
C508 C516 1.378 . S
C509 C508 1.367 . S
C509 C517 1.433 . S
C510 H506 0.929 . S
C510 C512 1.378 . S
C510 C514 1.350 . S
C511 C514 1.463 . S
C511 C516 1.350 . S
C511 N519 1.427 . S
C512 H503 0.930 . S
C512 C510 1.378 . S
C512 C513 1.367 . S
C513 C512 1.367 . S
C513 C515 1.433 . S
C514 C510 1.350 . S
C514 C511 1.463 . S
C514 N518 1.427 . S
C515 H505 0.929 . S
C515 C513 1.433 . S
C515 N518 1.384 . S
C516 H507 0.929 . S
C516 C508 1.378 . S
C516 C511 1.350 . S
C517 H504 0.929 . S
C517 C509 1.433 . S
C517 N519 1.384 . S
N518 C514 1.427 . S
N518 C515 1.384 . S
N519 C511 1.427 . S
N519 C517 1.384 . S
H520 C526 0.930 . S
H521 C530 0.930 . S
H522 C535 0.929 . S
H523 C533 0.929 . S
H524 C528 0.929 . S
H525 C534 0.929 . S
C526 H520 0.930 . S
C526 C527 1.367 . S
C526 C534 1.378 . S
C527 C526 1.367 . S
C527 C535 1.433 . S
C528 H524 0.929 . S
C528 C530 1.378 . S
C528 C532 1.350 . S
C529 C532 1.463 . S
C529 C534 1.350 . S
C529 N537 1.427 . S
C530 H521 0.930 . S
C530 C528 1.378 . S
C530 C531 1.367 . S
C531 C530 1.367 . S
C531 C533 1.433 . S
C532 C528 1.350 . S
C532 C529 1.463 . S
C532 N536 1.427 . S
C533 H523 0.929 . S
C533 C531 1.433 . S
C533 N536 1.384 . S
C534 H525 0.929 . S
C534 C526 1.378 . S
C534 C529 1.350 . S
C535 H522 0.929 . S
C535 C527 1.433 . S
C535 N537 1.384 . S
N536 C532 1.427 . S
N536 C533 1.384 . S
N537 C529 1.427 . S
N537 C535 1.384 . S
H538 C544 0.930 . S
H539 C548 0.930 . S
H540 C553 0.929 . S
H541 C551 0.929 . S
H542 C546 0.929 . S
H543 C552 0.929 . S
C544 H538 0.930 . S
C544 C545 1.367 . S
C544 C552 1.378 . S
C545 C544 1.367 . S
C545 C553 1.433 . S
C546 H542 0.929 . S
C546 C548 1.378 . S
C546 C550 1.350 . S
C547 C550 1.463 . S
C547 C552 1.350 . S
C547 N555 1.427 . S
C548 H539 0.930 . S
C548 C546 1.378 . S
C548 C549 1.367 . S
C549 C548 1.367 . S
C549 C551 1.433 . S
C550 C546 1.350 . S
C550 C547 1.463 . S
C550 N554 1.427 . S
C551 H541 0.929 . S
C551 C549 1.433 . S
C551 N554 1.384 . S
C552 H543 0.929 . S
C552 C544 1.378 . S
C552 C547 1.350 . S
C553 H540 0.929 . S
C553 C545 1.433 . S
C553 N555 1.384 . S
N554 C550 1.427 . S
N554 C551 1.384 . S
N555 C547 1.427 . S
N555 C553 1.384 . S
H556 C562 0.930 . S
H557 C566 0.930 . S
H558 C571 0.929 . S
H559 C569 0.929 . S
H560 C564 0.929 . S
H561 C570 0.929 . S
C562 H556 0.930 . S
C562 C563 1.367 . S
C562 C570 1.378 . S
C563 C562 1.367 . S
C563 C571 1.433 . S
C564 H560 0.929 . S
C564 C566 1.378 . S
C564 C568 1.350 . S
C565 C568 1.463 . S
C565 C570 1.350 . S
C565 N573 1.427 . S
C566 H557 0.930 . S
C566 C564 1.378 . S
C566 C567 1.367 . S
C567 C566 1.367 . S
C567 C569 1.433 . S
C568 C564 1.350 . S
C568 C565 1.463 . S
C568 N572 1.427 . S
C569 H559 0.929 . S
C569 C567 1.433 . S
C569 N572 1.384 . S
C570 H561 0.929 . S
C570 C562 1.378 . S
C570 C565 1.350 . S
C571 H558 0.929 . S
C571 C563 1.433 . S
C571 N573 1.384 . S
N572 C568 1.427 . S
N572 C569 1.384 . S
N573 C565 1.427 . S
N573 C571 1.384 . S
H574 C580 0.930 . S
H575 C584 0.930 . S
H576 C589 0.929 . S
H577 C587 0.929 . S
H578 C582 0.929 . S
H579 C588 0.929 . S
C580 H574 0.930 . S
C580 C581 1.367 . S
C580 C588 1.378 . S
C581 C580 1.367 . S
C581 C589 1.433 . S
C582 H578 0.929 . S
C582 C584 1.378 . S
C582 C586 1.350 . S
C583 C586 1.463 . S
C583 C588 1.350 . S
C583 N591 1.427 . S
C584 H575 0.930 . S
C584 C582 1.378 . S
C584 C585 1.367 . S
C585 C584 1.367 . S
C585 C587 1.433 . S
C586 C582 1.350 . S
C586 C583 1.463 . S
C586 N590 1.427 . S
C587 H577 0.929 . S
C587 C585 1.433 . S
C587 N590 1.384 . S
C588 H579 0.929 . S
C588 C580 1.378 . S
C588 C583 1.350 . S
C589 H576 0.929 . S
C589 C581 1.433 . S
C589 N591 1.384 . S
N590 C586 1.427 . S
N590 C587 1.384 . S
N591 C583 1.427 . S
N591 C589 1.384 . S
H592 C598 0.930 . S
H593 C602 0.930 . S
H594 C607 0.929 . S
H595 C605 0.929 . S
H596 C600 0.929 . S
H597 C606 0.929 . S
C598 H592 0.930 . S
C598 C599 1.367 . S
C598 C606 1.378 . S
C599 C598 1.367 . S
C599 C607 1.433 . S
C600 H596 0.929 . S
C600 C602 1.378 . S
C600 C604 1.350 . S
C601 C604 1.463 . S
C601 C606 1.350 . S
C601 N609 1.427 . S
C602 H593 0.930 . S
C602 C600 1.378 . S
C602 C603 1.367 . S
C603 C602 1.367 . S
C603 C605 1.433 . S
C604 C600 1.350 . S
C604 C601 1.463 . S
C604 N608 1.427 . S
C605 H595 0.929 . S
C605 C603 1.433 . S
C605 N608 1.384 . S
C606 H597 0.929 . S
C606 C598 1.378 . S
C606 C601 1.350 . S
C607 H594 0.929 . S
C607 C599 1.433 . S
C607 N609 1.384 . S
N608 C604 1.427 . S
N608 C605 1.384 . S
N609 C601 1.427 . S
N609 C607 1.384 . S
H610 C616 0.930 . S
H611 C620 0.930 . S
H612 C625 0.929 . S
H613 C623 0.929 . S
H614 C618 0.929 . S
H615 C624 0.929 . S
C616 H610 0.930 . S
C616 C617 1.367 . S
C616 C624 1.378 . S
C617 C616 1.367 . S
C617 C625 1.433 . S
C618 H614 0.929 . S
C618 C620 1.378 . S
C618 C622 1.350 . S
C619 C622 1.463 . S
C619 C624 1.350 . S
C619 N627 1.427 . S
C620 H611 0.930 . S
C620 C618 1.378 . S
C620 C621 1.367 . S
C621 C620 1.367 . S
C621 C623 1.433 . S
C622 C618 1.350 . S
C622 C619 1.463 . S
C622 N626 1.427 . S
C623 H613 0.929 . S
C623 C621 1.433 . S
C623 N626 1.384 . S
C624 H615 0.929 . S
C624 C616 1.378 . S
C624 C619 1.350 . S
C625 H612 0.929 . S
C625 C617 1.433 . S
C625 N627 1.384 . S
N626 C622 1.427 . S
N626 C623 1.384 . S
N627 C619 1.427 . S
N627 C625 1.384 . S
H628 C634 0.930 . S
H629 C638 0.930 . S
H630 C643 0.929 . S
H631 C641 0.929 . S
H632 C636 0.929 . S
H633 C642 0.929 . S
C634 H628 0.930 . S
C634 C635 1.367 . S
C634 C642 1.378 . S
C635 C634 1.367 . S
C635 C643 1.433 . S
C636 H632 0.929 . S
C636 C638 1.378 . S
C636 C640 1.350 . S
C637 C640 1.463 . S
C637 C642 1.350 . S
C637 N645 1.427 . S
C638 H629 0.930 . S
C638 C636 1.378 . S
C638 C639 1.367 . S
C639 C638 1.367 . S
C639 C641 1.433 . S
C640 C636 1.350 . S
C640 C637 1.463 . S
C640 N644 1.427 . S
C641 H631 0.929 . S
C641 C639 1.433 . S
C641 N644 1.384 . S
C642 H633 0.929 . S
C642 C634 1.378 . S
C642 C637 1.350 . S
C643 H630 0.929 . S
C643 C635 1.433 . S
C643 N645 1.384 . S
N644 C640 1.427 . S
N644 C641 1.384 . S
N645 C637 1.427 . S
N645 C643 1.384 . S
H646 C652 0.930 . S
H647 C656 0.930 . S
H648 C661 0.929 . S
H649 C659 0.929 . S
H650 C654 0.929 . S
H651 C660 0.929 . S
C652 H646 0.930 . S
C652 C653 1.367 . S
C652 C660 1.378 . S
C653 C652 1.367 . S
C653 C661 1.433 . S
C654 H650 0.929 . S
C654 C656 1.378 . S
C654 C658 1.350 . S
C655 C658 1.463 . S
C655 C660 1.350 . S
C655 N663 1.427 . S
C656 H647 0.930 . S
C656 C654 1.378 . S
C656 C657 1.367 . S
C657 C656 1.367 . S
C657 C659 1.433 . S
C658 C654 1.350 . S
C658 C655 1.463 . S
C658 N662 1.427 . S
C659 H649 0.929 . S
C659 C657 1.433 . S
C659 N662 1.384 . S
C660 H651 0.929 . S
C660 C652 1.378 . S
C660 C655 1.350 . S
C661 H648 0.929 . S
C661 C653 1.433 . S
C661 N663 1.384 . S
N662 C658 1.427 . S
N662 C659 1.384 . S
N663 C655 1.427 . S
N663 C661 1.384 . S
C239 C5 0.818 . S
C243 C76 0.827 . S
C257 C14 0.989 . S
C261 C137 1.004 . S
C279 C175 2.522 . S
C275 C25 2.583 . S
C293 C34 2.401 . S
C297 C215 2.356 . S
C315 C135 1.094 . S
C311 C7 1.085 . S
C333 C103 1.786 . S
C329 C13 1.711 . S
C351 C212 1.775 . S
C347 C23 1.794 . S
C369 C172 1.887 . S
C365 C31 1.912 . S
C383 C4 1.010 . S
C387 C217 1.020 . S
C405 C132 2.366 . S
C401 C22 2.369 . S
C419 C32 2.240 . S
C423 C74 2.204 . S
C437 C16 1.240 . S
C441 C177 1.285 . S
C459 C97 0.820 . S
C455 C41 0.820 . S
C473 C50 0.987 . S
C477 C116 1.012 . S
C491 C61 2.577 . S
C495 C154 2.518 . S
C509 C67 2.412 . S
C513 C194 2.370 . S
C527 C40 1.105 . S
C531 C114 1.126 . S
C549 C92 1.766 . S
C545 C52 1.688 . S
C567 C223 1.780 . S
C563 C59 1.800 . S
C585 C183 1.882 . S
C581 C70 1.905 . S
C599 C43 0.999 . S
C603 C196 1.016 . S
C621 C143 2.379 . S
C617 C58 2.381 . S
C639 C95 2.183 . S
C635 C68 2.221 . S
C653 C49 1.266 . S
C657 C156 1.298 . S
