# Generated by pormake.
# Topology ssa, (4,4)-cn, num edge types: 1
# Building blocks:
#     Node 0, Type 0, BuildingBlock: NAWXER_clean_sbu_0, # of connection points: 4
#     Node 1, Type 0, BuildingBlock: NAWXER_clean_sbu_0, # of connection points: 4
#     Node 2, Type 0, BuildingBlock: NAWXER_clean_sbu_0, # of connection points: 4
#     Node 3, Type 0, BuildingBlock: NAWXER_clean_sbu_0, # of connection points: 4
#     Node 4, Type 0, BuildingBlock: NAWXER_clean_sbu_0, # of connection points: 4
#     Node 5, Type 0, BuildingBlock: NAWXER_clean_sbu_0, # of connection points: 4
#     Node 6, Type 1, BuildingBlock: MIFKUJ_clean_linker_1, # of connection points: 4
#     Node 7, Type 1, BuildingBlock: MIFKUJ_clean_linker_1, # of connection points: 4
#     Node 8, Type 1, BuildingBlock: MIFKUJ_clean_linker_1, # of connection points: 4
#     Node 9, Type 1, BuildingBlock: MIFKUJ_clean_linker_1, # of connection points: 4
#     Node 10, Type 1, BuildingBlock: MIFKUJ_clean_linker_1, # of connection points: 4
#     Node 11, Type 1, BuildingBlock: MIFKUJ_clean_linker_1, # of connection points: 4
#     Edge 12, Type (0, 1), BuildingBlock: XUDNAN_clean_linker_2, # of connection points: 2
#     Edge 13, Type (0, 1), BuildingBlock: XUDNAN_clean_linker_2, # of connection points: 2
#     Edge 14, Type (0, 1), BuildingBlock: XUDNAN_clean_linker_2, # of connection points: 2
#     Edge 15, Type (0, 1), BuildingBlock: XUDNAN_clean_linker_2, # of connection points: 2
#     Edge 16, Type (0, 1), BuildingBlock: XUDNAN_clean_linker_2, # of connection points: 2
#     Edge 17, Type (0, 1), BuildingBlock: XUDNAN_clean_linker_2, # of connection points: 2
#     Edge 18, Type (0, 1), BuildingBlock: XUDNAN_clean_linker_2, # of connection points: 2
#     Edge 19, Type (0, 1), BuildingBlock: XUDNAN_clean_linker_2, # of connection points: 2
#     Edge 20, Type (0, 1), BuildingBlock: XUDNAN_clean_linker_2, # of connection points: 2
#     Edge 21, Type (0, 1), BuildingBlock: XUDNAN_clean_linker_2, # of connection points: 2
#     Edge 22, Type (0, 1), BuildingBlock: XUDNAN_clean_linker_2, # of connection points: 2
#     Edge 23, Type (0, 1), BuildingBlock: XUDNAN_clean_linker_2, # of connection points: 2
#     Edge 24, Type (0, 1), BuildingBlock: XUDNAN_clean_linker_2, # of connection points: 2
#     Edge 25, Type (0, 1), BuildingBlock: XUDNAN_clean_linker_2, # of connection points: 2
#     Edge 26, Type (0, 1), BuildingBlock: XUDNAN_clean_linker_2, # of connection points: 2
#     Edge 27, Type (0, 1), BuildingBlock: XUDNAN_clean_linker_2, # of connection points: 2
#     Edge 28, Type (0, 1), BuildingBlock: XUDNAN_clean_linker_2, # of connection points: 2
#     Edge 29, Type (0, 1), BuildingBlock: XUDNAN_clean_linker_2, # of connection points: 2
#     Edge 30, Type (0, 1), BuildingBlock: XUDNAN_clean_linker_2, # of connection points: 2
#     Edge 31, Type (0, 1), BuildingBlock: XUDNAN_clean_linker_2, # of connection points: 2
#     Edge 32, Type (0, 1), BuildingBlock: XUDNAN_clean_linker_2, # of connection points: 2
#     Edge 33, Type (0, 1), BuildingBlock: XUDNAN_clean_linker_2, # of connection points: 2
#     Edge 34, Type (0, 1), BuildingBlock: XUDNAN_clean_linker_2, # of connection points: 2
#     Edge 35, Type (0, 1), BuildingBlock: XUDNAN_clean_linker_2, # of connection points: 2
# Relax obj value: 0.011
# Max RMSD: 0.026
# Mean RMSD: 0.026
data_MOF--net-ssa--node1-NAWXER_clean_sbu_0--node2-MIFKUJ_clean_linker_1--edge1-XUDNAN_clean_linker_2
_symmetry_space_group_name_H-M    P1
_symmetry_Int_Tables_number       1
_symmetry_cell_setting            triclinic
loop_
_symmetry_equiv_pos_as_xyz
'x, y, z'
_cell_length_a     59.335071
_cell_length_b     59.336728
_cell_length_c     37.528967
_cell_angle_alpha  89.999863
_cell_angle_beta   90.045132
_cell_angle_gamma 120.02696
loop_
_atom_site_label
_atom_site_type_symbol
_atom_site_fract_x
_atom_site_fract_y
_atom_site_fract_z
_atom_type_partial_charge
C0 C 0.04348 0.55836 0.99251 0.0
C1 C 0.99482 0.47266 0.93688 0.0
O2 O 0.02455 0.54169 0.01167 0.0
Zn3 Zn 0.99529 0.50071 0.0097 0.0
O4 O 0.04867 0.55169 0.96274 0.0
Zn5 Zn 0.02096 0.51578 0.96504 0.0
O6 O 0.98749 0.52088 0.9638 0.0
O7 O 0.96391 0.50292 0.01234 0.0
O8 O 0.01582 0.49207 0.92599 0.0
O9 O 0.98544 0.47365 0.96714 0.0
O10 O 0.00543 0.48649 0.04976 0.0
O11 O 0.03554 0.50382 0.00809 0.0
C12 C 0.96755 0.51522 0.98318 0.0
C13 C 0.02819 0.49327 0.03874 0.0
C14 C 0.48984 0.04099 0.49206 0.0
C15 C 0.50942 0.97383 0.45586 0.0
O16 O 0.485 0.02405 0.51637 0.0
Zn17 Zn 0.48854 0.99048 0.52462 0.0
O18 O 0.49971 0.03981 0.46258 0.0
Zn19 Zn 0.50149 0.00875 0.47367 0.0
O20 O 0.46107 0.97924 0.47694 0.0
O21 O 0.45251 0.96373 0.5318 0.0
O22 O 0.5139 0.9939 0.43807 0.0
O23 O 0.50056 0.97089 0.48773 0.0
O24 O 0.51341 0.00122 0.56376 0.0
O25 O 0.5311 0.02183 0.51353 0.0
C26 C 0.44489 0.96353 0.5 0.0
C27 C 0.53329 0.01779 0.54657 0.0
C28 C 0.50593 0.44884 0.00171 0.0
C29 C 0.53111 0.53048 0.06227 0.0
O30 O 0.49966 0.46333 0.98383 0.0
Zn31 Zn 0.50335 0.5012 0.9892 0.0
O32 O 0.51742 0.45677 0.03149 0.0
Zn33 Zn 0.5188 0.48978 0.03209 0.0
O34 O 0.4785 0.47876 0.03723 0.0
O35 O 0.46765 0.49374 0.99016 0.0
O36 O 0.53495 0.51225 0.07233 0.0
O37 O 0.51975 0.52872 0.03244 0.0
O38 O 0.5252 0.51957 0.94849 0.0
O39 O 0.54582 0.51087 0.99049 0.0
C40 C 0.46157 0.48164 0.01969 0.0
C41 C 0.54592 0.52089 0.96023 0.0
C42 C 0.00555 0.52973 0.43869 0.0
C43 C 0.96225 0.45053 0.50944 0.0
O44 O 0.01867 0.53044 0.46619 0.0
Zn45 Zn 0.01429 0.50688 0.51143 0.0
O46 O 0.98286 0.51047 0.43374 0.0
Zn47 Zn 0.98239 0.49046 0.47498 0.0
O48 O 0.97768 0.51057 0.51858 0.0
O49 O 0.01269 0.52627 0.5523 0.0
O50 O 0.95313 0.45592 0.48215 0.0
O51 O 0.98434 0.4675 0.52237 0.0
O52 O 0.04422 0.50268 0.50517 0.0
O53 O 0.01344 0.48226 0.46447 0.0
C54 C 0.99024 0.52319 0.5463 0.0
C55 C 0.03566 0.48815 0.47777 0.0
C56 C 0.51459 0.97066 0.02292 0.0
C57 C 0.47277 0.01369 0.96548 0.0
O58 O 0.51823 0.99087 0.04014 0.0
Zn59 Zn 0.50588 0.01929 0.03612 0.0
O60 O 0.50059 0.9636 0.99503 0.0
Zn61 Zn 0.49282 0.99157 0.99492 0.0
O62 O 0.53051 0.02611 0.98648 0.0
O63 O 0.53843 0.05104 0.03386 0.0
O64 O 0.47327 0.99357 0.95523 0.0
O65 O 0.4837 0.02482 0.99489 0.0
O66 O 0.48577 0.01343 0.07854 0.0
O67 O 0.46674 0.98128 0.03988 0.0
C68 C 0.5454 0.04722 0.00354 0.0
C69 C 0.46676 0.99134 0.07018 0.0
C70 C 0.54761 0.50891 0.5064 0.0
C71 C 0.45791 0.4735 0.46702 0.0
O72 O 0.53416 0.51447 0.52758 0.0
Zn73 Zn 0.49535 0.50807 0.53101 0.0
O74 O 0.53724 0.49631 0.47795 0.0
Zn75 Zn 0.50298 0.49178 0.48576 0.0
O76 O 0.50901 0.53043 0.47808 0.0
O77 O 0.50028 0.54265 0.52923 0.0
O78 O 0.47602 0.47192 0.45132 0.0
O79 O 0.46261 0.48606 0.49647 0.0
O80 O 0.48406 0.48957 0.57526 0.0
O81 O 0.49044 0.46741 0.5331 0.0
C82 C 0.50724 0.54755 0.49686 0.0
C83 C 0.4842 0.46917 0.56534 0.0
H84 H 0.17674 0.429 0.17664 0.0
H85 H 0.14617 0.43958 0.14733 0.0
H86 H 0.17326 0.50727 0.21486 0.0
H87 H 0.20409 0.49708 0.24314 0.0
H88 H 0.22967 0.45639 0.17993 0.0
H89 H 0.15951 0.424 0.26161 0.0
H90 H 0.12642 0.42438 0.29948 0.0
H91 H 0.18675 0.48303 0.36619 0.0
H92 H 0.21974 0.48389 0.32659 0.0
H93 H 0.28281 0.48515 0.31385 0.0
H94 H 0.31438 0.48136 0.35138 0.0
H95 H 0.30306 0.41484 0.29045 0.0
H96 H 0.27049 0.41798 0.25339 0.0
H97 H 0.2335 0.45096 0.31142 0.0
H98 H 0.30305 0.48853 0.22206 0.0
H99 H 0.33594 0.48772 0.18339 0.0
H100 H 0.27628 0.41699 0.1343 0.0
H101 H 0.24357 0.41781 0.17315 0.0
C102 C 0.1926 0.46218 0.21217 0.0
C103 C 0.17604 0.44611 0.18504 0.0
C104 C 0.15843 0.45201 0.1686 0.0
C105 C 0.15732 0.47425 0.1788 0.0
C106 C 0.17381 0.49014 0.20617 0.0
C107 C 0.19133 0.48425 0.22252 0.0
C108 C 0.21149 0.4563 0.22968 0.0
C109 C 0.23032 0.45486 0.20867 0.0
C110 C 0.2124 0.45443 0.26719 0.0
C111 C 0.19217 0.45417 0.29087 0.0
C112 C 0.16563 0.43724 0.28406 0.0
C113 C 0.14669 0.43721 0.30615 0.0
C114 C 0.15383 0.45368 0.33609 0.0
C115 C 0.18046 0.47036 0.34312 0.0
C116 C 0.19939 0.47066 0.3207 0.0
C117 C 0.27418 0.45183 0.28082 0.0
C118 C 0.2872 0.46984 0.30827 0.0
C119 C 0.30523 0.46771 0.32965 0.0
C120 C 0.3109 0.44774 0.32376 0.0
C121 C 0.29898 0.43045 0.29525 0.0
C122 C 0.28051 0.43233 0.27406 0.0
C123 C 0.25251 0.45245 0.26188 0.0
C124 C 0.23289 0.45254 0.28267 0.0
C125 C 0.25095 0.45314 0.22431 0.0
C126 C 0.27093 0.45306 0.20072 0.0
C127 C 0.2971 0.47284 0.20301 0.0
C128 C 0.31581 0.47247 0.18072 0.0
C129 C 0.30867 0.45225 0.1559 0.0
C130 C 0.28239 0.43266 0.15342 0.0
C131 C 0.26368 0.43317 0.17546 0.0
H132 H 0.7268 0.22704 0.82043 0.0
H133 H 0.69408 0.20155 0.86527 0.0
H134 H 0.69699 0.13303 0.8338 0.0
H135 H 0.73011 0.15877 0.78908 0.0
H136 H 0.77571 0.23734 0.81684 0.0
H137 H 0.69846 0.19149 0.73686 0.0
H138 H 0.66336 0.15532 0.70361 0.0
H139 H 0.71677 0.12932 0.6726 0.0
H140 H 0.75169 0.16571 0.705 0.0
H141 H 0.8195 0.2362 0.67935 0.0
H142 H 0.85113 0.26726 0.63683 0.0
H143 H 0.83555 0.3267 0.67549 0.0
H144 H 0.80392 0.29557 0.71788 0.0
H145 H 0.76783 0.21804 0.68748 0.0
H146 H 0.84534 0.26768 0.75016 0.0
H147 H 0.88356 0.30545 0.77331 0.0
H148 H 0.83479 0.31988 0.84466 0.0
H149 H 0.79646 0.28431 0.81737 0.0
C150 C 0.73083 0.19482 0.80125 0.0
C151 C 0.7204 0.20652 0.82312 0.0
C152 C 0.70177 0.19196 0.8488 0.0
C153 C 0.69311 0.16535 0.85314 0.0
C154 C 0.70316 0.15347 0.8308 0.0
C155 C 0.72202 0.16813 0.80521 0.0
C156 C 0.75169 0.21108 0.77557 0.0
C157 C 0.77388 0.23348 0.78842 0.0
C158 C 0.74993 0.20498 0.7389 0.0
C159 C 0.7277 0.18134 0.72322 0.0
C160 C 0.70242 0.1777 0.72337 0.0
C161 C 0.68237 0.15698 0.70444 0.0
C162 C 0.68733 0.13961 0.68502 0.0
C163 C 0.71239 0.14264 0.68659 0.0
C164 C 0.73236 0.16335 0.70525 0.0
C165 C 0.80961 0.2637 0.70196 0.0
C166 C 0.82279 0.25588 0.67846 0.0
C167 C 0.8409 0.27362 0.65436 0.0
C168 C 0.84577 0.29935 0.65296 0.0
C169 C 0.832 0.30692 0.67583 0.0
C170 C 0.81411 0.28925 0.70019 0.0
C171 C 0.79116 0.24516 0.72843 0.0
C172 C 0.76968 0.22217 0.71585 0.0
C173 C 0.79392 0.25057 0.76548 0.0
C174 C 0.81766 0.27332 0.78102 0.0
C175 C 0.84272 0.27949 0.76987 0.0
C176 C 0.86486 0.30094 0.78405 0.0
C177 C 0.86278 0.31619 0.81127 0.0
C178 C 0.83761 0.3094 0.82319 0.0
C179 C 0.81543 0.28854 0.80794 0.0
H180 H 0.58231 0.83373 0.30436 0.0
H181 H 0.57298 0.86411 0.33685 0.0
H182 H 0.49844 0.83132 0.28437 0.0
H183 H 0.50809 0.80144 0.25109 0.0
H184 H 0.54658 0.77724 0.31024 0.0
H185 H 0.58438 0.84622 0.22564 0.0
H186 H 0.58417 0.87897 0.18704 0.0
H187 H 0.52548 0.81817 0.1209 0.0
H188 H 0.52436 0.78546 0.1615 0.0
H189 H 0.52831 0.72396 0.17278 0.0
H190 H 0.53145 0.68845 0.14604 0.0
H191 H 0.58536 0.69523 0.22888 0.0
H192 H 0.58463 0.73288 0.25256 0.0
H193 H 0.55754 0.77126 0.18028 0.0
H194 H 0.51525 0.70238 0.26714 0.0
H195 H 0.5092 0.66966 0.31178 0.0
H196 H 0.57294 0.72888 0.37322 0.0
H197 H 0.57912 0.76138 0.32845 0.0
C198 C 0.54591 0.81548 0.27532 0.0
C199 C 0.56424 0.83353 0.29926 0.0
C200 C 0.559 0.85089 0.31759 0.0
C201 C 0.53513 0.84999 0.31273 0.0
C202 C 0.51707 0.83242 0.28811 0.0
C203 C 0.52254 0.81541 0.26924 0.0
C204 C 0.55011 0.79513 0.25925 0.0
C205 C 0.54938 0.77603 0.28187 0.0
C206 C 0.55286 0.79336 0.22213 0.0
C207 C 0.55396 0.81332 0.19705 0.0
C208 C 0.57114 0.8399 0.20318 0.0
C209 C 0.57133 0.85867 0.18057 0.0
C210 C 0.55479 0.85134 0.15065 0.0
C211 C 0.53815 0.82463 0.14396 0.0
C212 C 0.5377 0.80585 0.16697 0.0
C213 C 0.55583 0.73096 0.21522 0.0
C214 C 0.54115 0.71808 0.18487 0.0
C215 C 0.54263 0.69731 0.16992 0.0
C216 C 0.55833 0.68834 0.18544 0.0
C217 C 0.57325 0.70151 0.21566 0.0
C218 C 0.57243 0.72287 0.22985 0.0
C219 C 0.55372 0.75279 0.23128 0.0
C220 C 0.55478 0.77227 0.20867 0.0
C221 C 0.55075 0.75467 0.2685 0.0
C222 C 0.54777 0.73434 0.2943 0.0
C223 C 0.52818 0.70823 0.28994 0.0
C224 C 0.52473 0.68956 0.31545 0.0
C225 C 0.54053 0.69675 0.34606 0.0
C226 C 0.56026 0.72282 0.35015 0.0
C227 C 0.56384 0.74139 0.32454 0.0
H228 H 0.72969 0.50455 0.67442 0.0
H229 H 0.69847 0.50015 0.62863 0.0
H230 H 0.70843 0.57488 0.65886 0.0
H231 H 0.73977 0.57921 0.70461 0.0
H232 H 0.78012 0.54031 0.68036 0.0
H233 H 0.70269 0.51273 0.76046 0.0
H234 H 0.6688 0.51606 0.79344 0.0
H235 H 0.72393 0.59664 0.81713 0.0
H236 H 0.75772 0.59277 0.78542 0.0
H237 H 0.8189 0.58328 0.82287 0.0
H238 H 0.8481 0.58249 0.86802 0.0
H239 H 0.83965 0.512 0.82142 0.0
H240 H 0.8092 0.51203 0.77782 0.0
H241 H 0.77083 0.55358 0.80874 0.0
H242 H 0.84816 0.58214 0.74242 0.0
H243 H 0.88667 0.58295 0.71768 0.0
H244 H 0.83723 0.50939 0.66539 0.0
H245 H 0.79884 0.50884 0.68996 0.0
C246 C 0.73682 0.54205 0.69326 0.0
C247 C 0.72515 0.51999 0.67119 0.0
C248 C 0.70743 0.51757 0.64488 0.0
C249 C 0.70105 0.53721 0.64004 0.0
C250 C 0.71273 0.55929 0.66221 0.0
C251 C 0.73056 0.56174 0.68847 0.0
C252 C 0.75641 0.54476 0.72005 0.0
C253 C 0.77793 0.54286 0.70853 0.0
C254 C 0.75433 0.5495 0.75646 0.0
C255 C 0.7327 0.55245 0.77079 0.0
C256 C 0.70724 0.5312 0.77226 0.0
C257 C 0.68789 0.53319 0.791 0.0
C258 C 0.69373 0.55653 0.80844 0.0
C259 C 0.71889 0.57821 0.80479 0.0
C260 C 0.73821 0.57611 0.78647 0.0
C261 C 0.81215 0.54796 0.79654 0.0
C262 C 0.82316 0.56753 0.82258 0.0
C263 C 0.84005 0.56716 0.84822 0.0
C264 C 0.84641 0.54728 0.84827 0.0
C265 C 0.835 0.52746 0.82249 0.0
C266 C 0.81789 0.52769 0.79712 0.0
C267 C 0.7942 0.54838 0.76927 0.0
C268 C 0.7731 0.55102 0.7806 0.0
C269 C 0.79715 0.54517 0.73251 0.0
C270 C 0.82059 0.54535 0.7182 0.0
C271 C 0.84564 0.56607 0.72588 0.0
C272 C 0.86766 0.56649 0.71177 0.0
C273 C 0.86506 0.54627 0.68947 0.0
C274 C 0.83993 0.52549 0.682 0.0
C275 C 0.81794 0.52509 0.69611 0.0
H276 H 0.25069 0.83138 0.1955 0.0
H277 H 0.29055 0.86885 0.173 0.0
H278 H 0.33633 0.85001 0.24332 0.0
H279 H 0.29656 0.81177 0.26462 0.0
H280 H 0.23387 0.78232 0.19099 0.0
H281 H 0.25894 0.84248 0.29089 0.0
H282 H 0.2886 0.87054 0.33759 0.0
H283 H 0.28904 0.80413 0.38399 0.0
H284 H 0.25974 0.7763 0.33714 0.0
H285 H 0.19596 0.71619 0.317 0.0
H286 H 0.1571 0.67899 0.34017 0.0
H287 H 0.11046 0.69212 0.26322 0.0
H288 H 0.1493 0.73126 0.24309 0.0
H289 H 0.21214 0.76362 0.31901 0.0
H290 H 0.19072 0.70402 0.21936 0.0
H291 H 0.16182 0.67462 0.1731 0.0
H292 H 0.15652 0.7383 0.12611 0.0
H293 H 0.18472 0.76732 0.17294 0.0
C294 C 0.27051 0.81889 0.23216 0.0
C295 C 0.26928 0.8352 0.20601 0.0
C296 C 0.29201 0.85659 0.19319 0.0
C297 C 0.31638 0.8623 0.20663 0.0
C298 C 0.31769 0.84614 0.23291 0.0
C299 C 0.29497 0.82439 0.24519 0.0
C300 C 0.24618 0.7957 0.2447 0.0
C301 C 0.22899 0.77839 0.21902 0.0
C302 C 0.2401 0.79014 0.28132 0.0
C303 C 0.25733 0.80731 0.3102 0.0
C304 C 0.26552 0.83399 0.31102 0.0
C305 C 0.28244 0.85 0.33774 0.0
C306 C 0.29115 0.83954 0.36449 0.0
C307 C 0.28242 0.81273 0.36406 0.0
C308 C 0.26572 0.79681 0.33721 0.0
C309 C 0.17581 0.72649 0.27786 0.0
C310 C 0.17735 0.71124 0.30529 0.0
C311 C 0.15496 0.68954 0.31815 0.0
C312 C 0.13036 0.68199 0.30333 0.0
C313 C 0.12887 0.69727 0.2757 0.0
C314 C 0.15125 0.71951 0.26358 0.0
C315 C 0.1999 0.75005 0.26531 0.0
C316 C 0.21703 0.7675 0.29098 0.0
C317 C 0.20613 0.75554 0.22872 0.0
C318 C 0.18957 0.73778 0.19992 0.0
C319 C 0.18325 0.7116 0.19913 0.0
C320 C 0.16694 0.69488 0.17247 0.0
C321 C 0.15675 0.70409 0.14601 0.0
C322 C 0.1637 0.73049 0.14639 0.0
C323 C 0.17998 0.74716 0.173 0.0
H324 H 0.50415 0.26604 0.82408 0.0
H325 H 0.50914 0.29676 0.87089 0.0
H326 H 0.43988 0.29603 0.83346 0.0
H327 H 0.43492 0.2651 0.78658 0.0
H328 H 0.466 0.21765 0.81228 0.0
H329 H 0.50206 0.29994 0.75185 0.0
H330 H 0.50354 0.3397 0.73077 0.0
H331 H 0.43415 0.29354 0.66845 0.0
H332 H 0.43195 0.25372 0.69079 0.0
H333 H 0.42934 0.18969 0.66441 0.0
H334 H 0.43012 0.16328 0.61538 0.0
H335 H 0.49076 0.15605 0.66912 0.0
H336 H 0.49167 0.18462 0.71606 0.0
H337 H 0.46221 0.23449 0.68371 0.0
H338 H 0.41966 0.15409 0.75613 0.0
H339 H 0.41317 0.11469 0.78691 0.0
H340 H 0.49251 0.15674 0.82478 0.0
H341 H 0.49868 0.19609 0.79475 0.0
C342 C 0.46929 0.26343 0.80167 0.0
C343 C 0.48996 0.27239 0.82605 0.0
C344 C 0.49273 0.28987 0.85286 0.0
C345 C 0.47485 0.29874 0.85593 0.0
C346 C 0.4541 0.28973 0.83153 0.0
C347 C 0.45125 0.27208 0.80476 0.0
C348 C 0.4666 0.2447 0.77352 0.0
C349 C 0.46536 0.22143 0.7841 0.0
C350 C 0.46505 0.24935 0.73682 0.0
C351 C 0.46659 0.27372 0.72352 0.0
C352 C 0.48687 0.29829 0.73417 0.0
C353 C 0.48779 0.32101 0.72201 0.0
C354 C 0.46889 0.31962 0.69814 0.0
C355 C 0.449 0.29511 0.68676 0.0
C356 C 0.44777 0.27239 0.69948 0.0
C357 C 0.46016 0.18894 0.69441 0.0
C358 C 0.44288 0.18249 0.66558 0.0
C359 C 0.44317 0.16709 0.63762 0.0
C360 C 0.4605 0.15738 0.63803 0.0
C361 C 0.47744 0.16348 0.66732 0.0
C362 C 0.47755 0.17938 0.69484 0.0
C363 C 0.46131 0.20721 0.72247 0.0
C364 C 0.46248 0.23053 0.71187 0.0
C365 C 0.46249 0.20256 0.75921 0.0
C366 C 0.45966 0.17791 0.77312 0.0
C367 C 0.43575 0.15463 0.77054 0.0
C368 C 0.43205 0.13224 0.7882 0.0
C369 C 0.45236 0.13273 0.80814 0.0
C370 C 0.47662 0.15576 0.8093 0.0
C371 C 0.48014 0.17824 0.79228 0.0
H372 H 0.02885 0.45392 0.07787 0.0
H373 H 0.07326 0.53631 0.05313 0.0
H374 H 0.10989 0.5406 0.08916 0.0
H375 H 0.0541 0.45867 0.16971 0.0
H376 H 0.05559 0.42917 0.1657 0.0
H377 H 0.0315 0.43278 0.14105 0.0
H378 H 0.0481 0.4232 0.08233 0.0
H379 H 0.07233 0.41975 0.10675 0.0
H380 H 0.082 0.44277 0.07064 0.0
H381 H 0.14244 0.53605 0.12387 0.0
H382 H 0.17006 0.52273 0.15592 0.0
H383 H 0.10606 0.4429 0.15815 0.0
C384 C 0.04614 0.47285 0.08078 0.0
C385 C 0.04834 0.49485 0.06307 0.0
C386 C 0.07135 0.51928 0.06662 0.0
C387 C 0.0922 0.52194 0.08707 0.0
C388 C 0.08982 0.4999 0.10362 0.0
C389 C 0.06748 0.47579 0.10083 0.0
C390 C 0.07102 0.45509 0.11958 0.0
C391 C 0.05192 0.44323 0.15087 0.0
C392 C 0.06819 0.43396 0.09325 0.0
C393 C 0.09888 0.47132 0.13268 0.0
C394 C 0.10913 0.49715 0.12343 0.0
C395 C 0.1346 0.51594 0.13167 0.0
C396 C 0.1501 0.50819 0.15 0.0
C397 C 0.14017 0.48184 0.15982 0.0
C398 C 0.11419 0.46317 0.15094 0.0
H399 H 0.54405 0.03499 0.61616 0.0
H400 H 0.58042 0.0359 0.5155 0.0
H401 H 0.62366 0.06489 0.54152 0.0
H402 H 0.58549 0.10174 0.63504 0.0
H403 H 0.58701 0.09783 0.68245 0.0
H404 H 0.55887 0.07473 0.65763 0.0
H405 H 0.56485 0.03701 0.68118 0.0
H406 H 0.59293 0.05999 0.70632 0.0
H407 H 0.59564 0.03837 0.67512 0.0
H408 H 0.66238 0.0956 0.57628 0.0
H409 H 0.6949 0.12714 0.61785 0.0
H410 H 0.63434 0.10785 0.69667 0.0
C411 C 0.5612 0.04085 0.59997 0.0
C412 C 0.55897 0.03301 0.56393 0.0
C413 C 0.58174 0.04163 0.54319 0.0
C414 C 0.60638 0.05804 0.55774 0.0
C415 C 0.60796 0.06588 0.59305 0.0
C416 C 0.58606 0.05766 0.61398 0.0
C417 C 0.5933 0.07061 0.65037 0.0
C418 C 0.5804 0.08721 0.65673 0.0
C419 C 0.58626 0.05028 0.68 0.0
C420 C 0.6226 0.08753 0.64635 0.0
C421 C 0.63055 0.08423 0.61314 0.0
C422 C 0.65647 0.09813 0.60255 0.0
C423 C 0.67484 0.11592 0.62651 0.0
C424 C 0.66732 0.1198 0.66079 0.0
C425 C 0.64075 0.10534 0.67072 0.0
H426 H 0.50457 0.55601 0.07483 0.0
H427 H 0.57635 0.55695 0.09996 0.0
H428 H 0.59136 0.59755 0.13474 0.0
H429 H 0.53013 0.62389 0.06557 0.0
H430 H 0.50313 0.62419 0.08708 0.0
H431 H 0.49816 0.59536 0.06428 0.0
H432 H 0.47888 0.56823 0.12174 0.0
H433 H 0.48358 0.59693 0.14469 0.0
H434 H 0.4975 0.57837 0.16247 0.0
H435 H 0.59975 0.64003 0.16205 0.0
H436 H 0.59916 0.67829 0.18598 0.0
H437 H 0.51921 0.64599 0.14958 0.0
C438 C 0.52342 0.5648 0.08777 0.0
C439 C 0.5395 0.55369 0.08462 0.0
C440 C 0.56384 0.56531 0.10223 0.0
C441 C 0.57251 0.58834 0.12186 0.0
C442 C 0.55627 0.599 0.12422 0.0
C443 C 0.53201 0.5873 0.10826 0.0
C444 C 0.51795 0.60214 0.11584 0.0
C445 C 0.512 0.61198 0.08112 0.0
C446 C 0.493 0.58542 0.13748 0.0
C447 C 0.53835 0.62441 0.13784 0.0
C448 C 0.56039 0.6224 0.14208 0.0
C449 C 0.58236 0.64151 0.15962 0.0
C450 C 0.58171 0.66315 0.17343 0.0
C451 C 0.55903 0.66537 0.1703 0.0
C452 C 0.53707 0.64544 0.15231 0.0
H453 H 0.94328 0.52048 0.53838 0.0
H454 H 0.00775 0.54566 0.61239 0.0
H455 H 0.98366 0.55649 0.65669 0.0
H456 H 0.92536 0.56912 0.56247 0.0
H457 H 0.89108 0.5464 0.55717 0.0
H458 H 0.91448 0.54285 0.53079 0.0
H459 H 0.89527 0.4955 0.55358 0.0
H460 H 0.872 0.49895 0.58027 0.0
H461 H 0.89344 0.48945 0.60086 0.0
H462 H 0.95062 0.56157 0.6943 0.0
H463 H 0.91237 0.56123 0.72116 0.0
H464 H 0.87042 0.53293 0.6214 0.0
C465 C 0.95261 0.52863 0.56368 0.0
C466 C 0.97747 0.53227 0.57187 0.0
C467 C 0.98879 0.54283 0.60543 0.0
C468 C 0.97523 0.549 0.63076 0.0
C469 C 0.95048 0.54461 0.62197 0.0
C470 C 0.93942 0.53483 0.58908 0.0
C471 C 0.91221 0.5308 0.58647 0.0
C472 C 0.91071 0.54834 0.55751 0.0
C473 C 0.89205 0.50197 0.57992 0.0
C474 C 0.90939 0.53939 0.62328 0.0
C475 C 0.93167 0.54745 0.64339 0.0
C476 C 0.93321 0.55555 0.67863 0.0
C477 C 0.91141 0.55537 0.69362 0.0
C478 C 0.88835 0.54703 0.67343 0.0
C479 C 0.88758 0.53913 0.63773 0.0
H480 H 0.41912 0.94827 0.05737 0.0
H481 H 0.46683 0.00067 0.14159 0.0
H482 H 0.4331 0.97386 0.18572 0.0
H483 H 0.35672 0.9358 0.09348 0.0
H484 H 0.33996 0.90222 0.07951 0.0
H485 H 0.3675 0.92612 0.05449 0.0
H486 H 0.39005 0.89859 0.06186 0.0
H487 H 0.36268 0.87471 0.08707 0.0
H488 H 0.39493 0.88971 0.10593 0.0
H489 H 0.39572 0.93936 0.22126 0.0
H490 H 0.35548 0.90165 0.2448 0.0
H491 H 0.33143 0.87318 0.13714 0.0
C492 C 0.42237 0.95426 0.08504 0.0
C493 C 0.44562 0.97654 0.09605 0.0
C494 C 0.44911 0.98374 0.13251 0.0
C495 C 0.43011 0.9686 0.1578 0.0
C496 C 0.4076 0.94652 0.14613 0.0
C497 C 0.40348 0.93957 0.11055 0.0
C498 C 0.37765 0.91487 0.10499 0.0
C499 C 0.35938 0.92008 0.08175 0.0
C500 C 0.38157 0.89319 0.08903 0.0
C501 C 0.36806 0.9088 0.14305 0.0
C502 C 0.38568 0.92719 0.16644 0.0
C503 C 0.38162 0.92502 0.20318 0.0
C504 C 0.35886 0.90355 0.21631 0.0
C505 C 0.34041 0.88479 0.19269 0.0
C506 C 0.34509 0.88753 0.15565 0.0
H507 H 0.47591 0.42019 0.55143 0.0
H508 H 0.48149 0.47125 0.63804 0.0
H509 H 0.47696 0.43803 0.68158 0.0
H510 H 0.42784 0.35946 0.5941 0.0
H511 H 0.44213 0.3413 0.57617 0.0
H512 H 0.4446 0.36865 0.55193 0.0
H513 H 0.49481 0.38964 0.55049 0.0
H514 H 0.49253 0.36246 0.57491 0.0
H515 H 0.51241 0.39507 0.59174 0.0
H516 H 0.47545 0.40068 0.71567 0.0
H517 H 0.47349 0.36037 0.73767 0.0
H518 H 0.46711 0.33311 0.62893 0.0
C519 C 0.47588 0.42429 0.57954 0.0
C520 C 0.47906 0.44834 0.59132 0.0
C521 C 0.47894 0.45292 0.62836 0.0
C522 C 0.47646 0.4342 0.65332 0.0
C523 C 0.4738 0.41088 0.6408 0.0
C524 C 0.47314 0.40572 0.60478 0.0
C525 C 0.4704 0.37927 0.5983 0.0
C526 C 0.44471 0.3611 0.57899 0.0
C527 C 0.49394 0.38178 0.57765 0.0
C528 C 0.47005 0.37052 0.63629 0.0
C529 C 0.47214 0.38907 0.66043 0.0
C530 C 0.47348 0.38588 0.69704 0.0
C531 C 0.4725 0.36305 0.70927 0.0
C532 C 0.46997 0.34366 0.68498 0.0
C533 C 0.46865 0.34748 0.64807 0.0
H534 H 0.53875 0.9757 0.39746 0.0
H535 H 0.48429 0.92327 0.47648 0.0
H536 H 0.48463 0.88627 0.44756 0.0
H537 H 0.51349 0.93266 0.32261 0.0
H538 H 0.54485 0.94208 0.30354 0.0
H539 H 0.5406 0.96493 0.3302 0.0
H540 H 0.57815 0.97106 0.37175 0.0
H541 H 0.58265 0.94838 0.34505 0.0
H542 H 0.57687 0.94296 0.39225 0.0
H543 H 0.48857 0.85464 0.40894 0.0
H544 H 0.4999 0.83041 0.36573 0.0
H545 H 0.55404 0.90277 0.31363 0.0
C546 C 0.52704 0.95644 0.4087 0.0
C547 C 0.51149 0.95237 0.43922 0.0
C548 C 0.49651 0.92691 0.45329 0.0
C549 C 0.49643 0.90571 0.43695 0.0
C550 C 0.51173 0.91028 0.40681 0.0
C551 C 0.5271 0.93499 0.39306 0.0
C552 C 0.54226 0.93437 0.36088 0.0
C553 C 0.53485 0.94409 0.32732 0.0
C554 C 0.57173 0.95013 0.36792 0.0
C555 C 0.53273 0.90545 0.3586 0.0
C556 C 0.51489 0.89195 0.38519 0.0
C557 C 0.50267 0.86497 0.38816 0.0
C558 C 0.50909 0.85138 0.36353 0.0
C559 C 0.52774 0.86485 0.33668 0.0
C560 C 0.53974 0.89219 0.33412 0.0
H561 H 0.55314 0.51486 0.88929 0.0
H562 H 0.59371 0.55418 0.98605 0.0
H563 H 0.63585 0.5713 0.95515 0.0
H564 H 0.59605 0.49334 0.86626 0.0
H565 H 0.59481 0.49709 0.81876 0.0
H566 H 0.56755 0.49141 0.84608 0.0
H567 H 0.56989 0.53334 0.82155 0.0
H568 H 0.59707 0.53904 0.79387 0.0
H569 H 0.60007 0.56385 0.8244 0.0
H570 H 0.67312 0.58035 0.91679 0.0
H571 H 0.70404 0.58032 0.8734 0.0
H572 H 0.64026 0.53431 0.80063 0.0
C573 C 0.57093 0.5278 0.90344 0.0
C574 C 0.57035 0.5337 0.93978 0.0
C575 C 0.5939 0.54977 0.95806 0.0
C576 C 0.61787 0.5596 0.94073 0.0
C577 C 0.61794 0.55294 0.90517 0.0
C578 C 0.59516 0.53741 0.88661 0.0
C579 C 0.60099 0.53102 0.84976 0.0
C580 C 0.58915 0.50146 0.84495 0.0
C581 C 0.59144 0.5425 0.82067 0.0
C582 C 0.63051 0.54486 0.85095 0.0
C583 C 0.63979 0.55768 0.883 0.0
C584 C 0.66617 0.57081 0.89131 0.0
C585 C 0.68363 0.57079 0.8663 0.0
C586 C 0.67473 0.55765 0.83325 0.0
C587 C 0.64773 0.54462 0.82553 0.0
H588 H 0.05454 0.55054 0.41369 0.0
H589 H 0.98466 0.55606 0.40475 0.0
H590 H 0.00815 0.59456 0.36518 0.0
H591 H 0.09972 0.61638 0.4175 0.0
H592 H 0.12405 0.61472 0.39071 0.0
H593 H 0.10118 0.58676 0.41588 0.0
H594 H 0.08683 0.55881 0.35847 0.0
H595 H 0.10983 0.58662 0.33301 0.0
H596 H 0.07594 0.56945 0.32052 0.0
H597 H 0.04158 0.63588 0.33348 0.0
H598 H 0.08013 0.67362 0.30764 0.0
H599 H 0.12624 0.63714 0.33164 0.0
C600 C 0.04412 0.55968 0.40294 0.0
C601 C 0.01796 0.55066 0.4122 0.0
C602 C 0.00474 0.5628 0.39766 0.0
C603 C 0.01793 0.58462 0.37532 0.0
C604 C 0.04401 0.59341 0.36721 0.0
C605 C 0.05673 0.5809 0.38 0.0
C606 C 0.08476 0.59418 0.36787 0.0
C607 C 0.10352 0.60357 0.3999 0.0
C608 C 0.08961 0.57619 0.34351 0.0
C609 C 0.08622 0.61678 0.34734 0.0
C610 C 0.06261 0.61611 0.34728 0.0
C611 C 0.05999 0.63623 0.33255 0.0
C612 C 0.08207 0.65759 0.31767 0.0
C613 C 0.10651 0.6586 0.31723 0.0
C614 C 0.10818 0.63748 0.33176 0.0
H615 H 0.49238 0.03746 0.90231 0.0
H616 H 0.43055 0.01908 0.97805 0.0
H617 H 0.41535 0.04376 0.9415 0.0
H618 H 0.50854 0.10216 0.89063 0.0
H619 H 0.51661 0.10391 0.84404 0.0
H620 H 0.51988 0.08141 0.87269 0.0
H621 H 0.48966 0.04326 0.83109 0.0
H622 H 0.48634 0.06568 0.80217 0.0
H623 H 0.45777 0.03801 0.8203 0.0
H624 H 0.40862 0.07246 0.8985 0.0
H625 H 0.41332 0.10644 0.85605 0.0
H626 H 0.48178 0.10891 0.81104 0.0
C627 C 0.47518 0.03807 0.91048 0.0
C628 C 0.46206 0.02593 0.94224 0.0
C629 C 0.44038 0.02792 0.95329 0.0
C630 C 0.43166 0.04183 0.9327 0.0
C631 C 0.44518 0.05391 0.90157 0.0
C632 C 0.46664 0.05238 0.89068 0.0
C633 C 0.47954 0.06954 0.85858 0.0
C634 C 0.50781 0.09049 0.86701 0.0
C635 C 0.47824 0.05314 0.82611 0.0
C636 C 0.46231 0.08137 0.85348 0.0
C637 C 0.44225 0.07165 0.87802 0.0
C638 C 0.42414 0.08007 0.87902 0.0
C639 C 0.42688 0.09927 0.85474 0.0
C640 C 0.44783 0.11014 0.83027 0.0
C641 C 0.46555 0.10083 0.82944 0.0
H642 H 0.44489 0.46587 0.39607 0.0
H643 H 0.41226 0.4571 0.50198 0.0
H644 H 0.36924 0.44359 0.47575 0.0
H645 H 0.41269 0.49512 0.35917 0.0
H646 H 0.40714 0.48001 0.31593 0.0
H647 H 0.4343 0.48444 0.3425 0.0
H648 H 0.41808 0.43505 0.33862 0.0
H649 H 0.39087 0.43047 0.31181 0.0
H650 H 0.38532 0.41195 0.35217 0.0
H651 H 0.33187 0.43697 0.43926 0.0
H652 H 0.30198 0.43778 0.39412 0.0
H653 H 0.358 0.45098 0.31111 0.0
C654 C 0.42846 0.46027 0.41365 0.0
C655 C 0.43175 0.46223 0.45104 0.0
C656 C 0.41007 0.4556 0.47327 0.0
C657 C 0.38555 0.44779 0.45863 0.0
C658 C 0.38304 0.44675 0.42168 0.0
C659 C 0.40383 0.45272 0.39939 0.0
C660 C 0.39646 0.4528 0.36068 0.0
C661 C 0.41367 0.47969 0.34358 0.0
C662 C 0.39776 0.43128 0.33958 0.0
C663 C 0.36858 0.44682 0.36486 0.0
C664 C 0.36119 0.44304 0.40029 0.0
C665 C 0.3372 0.43937 0.41138 0.0
C666 C 0.32042 0.43995 0.38566 0.0
C667 C 0.32772 0.44416 0.34935 0.0
C668 C 0.35186 0.44715 0.33869 0.0
H669 H 0.94368 0.44967 0.91974 0.0
H670 H 0.01283 0.44381 0.90333 0.0
H671 H 0.98671 0.40301 0.86889 0.0
H672 H 0.89786 0.38276 0.92944 0.0
H673 H 0.87239 0.38388 0.90469 0.0
H674 H 0.8965 0.41243 0.9278 0.0
H675 H 0.90816 0.43889 0.86917 0.0
H676 H 0.88394 0.4105 0.84584 0.0
H677 H 0.91716 0.42717 0.83046 0.0
H678 H 0.9517 0.36064 0.84168 0.0
H679 H 0.91262 0.32329 0.81684 0.0
H680 H 0.86771 0.36071 0.84348 0.0
C681 C 0.95327 0.43979 0.90869 0.0
C682 C 0.9801 0.44952 0.91428 0.0
C683 C 0.99224 0.43649 0.89918 0.0
C684 C 0.97755 0.41334 0.87977 0.0
C685 C 0.95098 0.40404 0.87503 0.0
C686 C 0.9391 0.4172 0.88839 0.0
C687 C 0.91051 0.40366 0.87859 0.0
C688 C 0.89331 0.39518 0.91213 0.0
C689 C 0.90461 0.42109 0.85458 0.0
C690 C 0.90794 0.38041 0.85834 0.0
C691 C 0.93139 0.38081 0.85695 0.0
C692 C 0.93338 0.36049 0.84176 0.0
C693 C 0.91091 0.33934 0.8273 0.0
C694 C 0.88665 0.33877 0.82725 0.0
C695 C 0.88551 0.3599 0.84303 0.0
H696 H 0.91637 0.48665 0.96366 0.0
H697 H 0.9809 0.56536 0.97505 0.0
H698 H 0.95471 0.5825 0.94738 0.0
H699 H 0.89929 0.49535 0.87875 0.0
H700 H 0.86458 0.47503 0.88398 0.0
H701 H 0.88631 0.46895 0.91038 0.0
H702 H 0.86473 0.47287 0.96825 0.0
H703 H 0.84268 0.47867 0.94201 0.0
H704 H 0.86244 0.50166 0.97589 0.0
H705 H 0.92421 0.59073 0.91245 0.0
H706 H 0.89109 0.58985 0.87209 0.0
H707 H 0.84571 0.50569 0.8824 0.0
C708 C 0.92446 0.5075 0.96144 0.0
C709 C 0.95026 0.52487 0.9721 0.0
C710 C 0.96091 0.55195 0.96751 0.0
C711 C 0.94621 0.56181 0.95187 0.0
C712 C 0.921 0.54423 0.94072 0.0
C713 C 0.91011 0.51765 0.94533 0.0
C714 C 0.88369 0.50296 0.92743 0.0
C715 C 0.88347 0.4845 0.89842 0.0
C716 C 0.86211 0.48817 0.95505 0.0
C717 C 0.88181 0.5254 0.91136 0.0
C718 C 0.9034 0.54902 0.91975 0.0
C719 C 0.90692 0.57242 0.90626 0.0
C720 C 0.8879 0.57171 0.88344 0.0
C721 C 0.8656 0.54774 0.87423 0.0
C722 C 0.86251 0.52434 0.88878 0.0
H723 H 0.42374 0.95928 0.43399 0.0
H724 H 0.40579 0.92384 0.53899 0.0
H725 H 0.36285 0.88958 0.51677 0.0
H726 H 0.3579 0.94521 0.41118 0.0
H727 H 0.36139 0.93881 0.36516 0.0
H728 H 0.3895 0.96162 0.39036 0.0
H729 H 0.41256 0.93557 0.37482 0.0
H730 H 0.38453 0.91266 0.34972 0.0
H731 H 0.3968 0.90137 0.38532 0.0
H732 H 0.3233 0.85722 0.48131 0.0
H733 H 0.29031 0.83014 0.43626 0.0
H734 H 0.33489 0.88712 0.35488 0.0
C735 C 0.41068 0.94459 0.4526 0.0
C736 C 0.41814 0.94431 0.48833 0.0
C737 C 0.40047 0.92455 0.51158 0.0
C738 C 0.37605 0.90501 0.49918 0.0
C739 C 0.36958 0.90563 0.46356 0.0
C740 C 0.38636 0.92505 0.44071 0.0
C741 C 0.3755 0.92072 0.40324 0.0
C742 C 0.37079 0.94291 0.39182 0.0
C743 C 0.39341 0.91737 0.37673 0.0
C744 C 0.35012 0.89554 0.40831 0.0
C745 C 0.34694 0.88717 0.4433 0.0
C746 C 0.3255 0.86373 0.45395 0.0
C747 C 0.30695 0.84842 0.42814 0.0
C748 C 0.30996 0.85658 0.39209 0.0
C749 C 0.33176 0.88059 0.38231 0.0
H750 H 0.48798 0.42947 0.93497 0.0
H751 H 0.51177 0.41095 0.03507 0.0
H752 H 0.50409 0.36931 0.00955 0.0
H753 H 0.43722 0.36357 0.91278 0.0
H754 H 0.4447 0.36772 0.86587 0.0
H755 H 0.45056 0.39532 0.89271 0.0
H756 H 0.4988 0.41979 0.87254 0.0
H757 H 0.4931 0.39231 0.84565 0.0
H758 H 0.51845 0.40477 0.87888 0.0
H759 H 0.49561 0.33065 0.97237 0.0
H760 H 0.48749 0.29794 0.92592 0.0
H761 H 0.47002 0.34222 0.84992 0.0
C762 C 0.4913 0.41656 0.95171 0.0
C763 C 0.50038 0.42343 0.98709 0.0
C764 C 0.50478 0.40608 0.00792 0.0
C765 C 0.50042 0.38237 0.99369 0.0
C766 C 0.49167 0.37632 0.95863 0.0
C767 C 0.48716 0.3929 0.93791 0.0
C768 C 0.47889 0.38235 0.90052 0.0
C769 C 0.45119 0.37692 0.89251 0.0
C770 C 0.49848 0.40091 0.87278 0.0
C771 C 0.47971 0.35733 0.90333 0.0
C772 C 0.48699 0.35414 0.93711 0.0
C773 C 0.48982 0.33289 0.94585 0.0
C774 C 0.48532 0.31451 0.91926 0.0
C775 C 0.47814 0.31755 0.88432 0.0
C776 C 0.47509 0.33916 0.87649 0.0
H777 H 0.08667 0.51486 0.45715 0.0
H778 H 0.01804 0.43807 0.4591 0.0
H779 H 0.04194 0.42027 0.42652 0.0
H780 H 0.10371 0.50991 0.36837 0.0
H781 H 0.13838 0.52812 0.37567 0.0
H782 H 0.11707 0.53424 0.40295 0.0
H783 H 0.13622 0.52531 0.45978 0.0
H784 H 0.15765 0.51921 0.43264 0.0
H785 H 0.13608 0.49497 0.46398 0.0
H786 H 0.0726 0.41116 0.39245 0.0
H787 H 0.10708 0.41149 0.35562 0.0
H788 H 0.15457 0.49513 0.37069 0.0
C789 C 0.077 0.49421 0.45138 0.0
C790 C 0.05079 0.47761 0.46105 0.0
C791 C 0.03826 0.4509 0.45209 0.0
C792 C 0.05166 0.44066 0.43372 0.0
C793 C 0.07742 0.45755 0.42402 0.0
C794 C 0.08993 0.48379 0.43223 0.0
C795 C 0.11685 0.49806 0.4158 0.0
C796 C 0.11912 0.5188 0.38911 0.0
C797 C 0.13795 0.51009 0.44479 0.0
C798 C 0.11746 0.47575 0.39706 0.0
C799 C 0.09465 0.45253 0.40255 0.0
C800 C 0.09053 0.42924 0.3878 0.0
C801 C 0.11017 0.42969 0.3666 0.0
C802 C 0.13356 0.45336 0.35984 0.0
C803 C 0.13716 0.47663 0.37558 0.0
H804 H 0.56337 0.04804 0.93591 0.0
H805 H 0.58332 0.09186 0.03487 0.0
H806 H 0.62397 0.12604 0.00761 0.0
H807 H 0.62898 0.06396 0.91189 0.0
H808 H 0.62405 0.06655 0.86501 0.0
H809 H 0.59697 0.04496 0.89272 0.0
H810 H 0.57173 0.06797 0.8726 0.0
H811 H 0.59871 0.08963 0.84485 0.0
H812 H 0.58648 0.10269 0.87809 0.0
H813 H 0.66155 0.15606 0.9693 0.0
H814 H 0.69386 0.18005 0.92224 0.0
H815 H 0.64946 0.11694 0.84803 0.0
C816 C 0.57639 0.0647 0.95199 0.0
C817 C 0.5702 0.06723 0.98758 0.0
C818 C 0.58765 0.08947 0.00757 0.0
C819 C 0.61081 0.10898 0.99235 0.0
C820 C 0.61622 0.10595 0.95714 0.0
C821 C 0.59955 0.08439 0.93719 0.0
C822 C 0.60961 0.08628 0.89958 0.0
C823 C 0.61524 0.06412 0.89186 0.0
C824 C 0.5905 0.08667 0.87217 0.0
C825 C 0.6345 0.11235 0.90148 0.0
C826 C 0.63793 0.12334 0.93495 0.0
C827 C 0.65913 0.14764 0.94301 0.0
C828 C 0.67728 0.16116 0.91609 0.0
C829 C 0.67411 0.15035 0.88153 0.0
C830 C 0.65252 0.12553 0.87432 0.0
H831 H 0.51331 0.56043 0.42592 0.0
H832 H 0.51355 0.59115 0.53103 0.0
H833 H 0.52241 0.63271 0.50384 0.0
H834 H 0.5646 0.61985 0.38798 0.0
H835 H 0.54934 0.61416 0.34482 0.0
H836 H 0.54354 0.58702 0.37261 0.0
H837 H 0.49383 0.56918 0.36861 0.0
H838 H 0.49948 0.59628 0.34087 0.0
H839 H 0.4809 0.58978 0.38135 0.0
H840 H 0.53146 0.67094 0.46532 0.0
H841 H 0.53886 0.70284 0.418 0.0
H842 H 0.53187 0.64696 0.33787 0.0
C843 C 0.51536 0.57594 0.44327 0.0
C844 C 0.51285 0.57258 0.48065 0.0
C845 C 0.5154 0.59327 0.50234 0.0
C846 C 0.52046 0.61695 0.48715 0.0
C847 C 0.52275 0.61958 0.45023 0.0
C848 C 0.52019 0.59961 0.42854 0.0
C849 C 0.52299 0.60727 0.38958 0.0
C850 C 0.54652 0.60707 0.37277 0.0
C851 C 0.4978 0.58958 0.36889 0.0
C852 C 0.5276 0.63471 0.39274 0.0
C853 C 0.5275 0.64145 0.42797 0.0
C854 C 0.53159 0.66588 0.43765 0.0
C855 C 0.53591 0.6839 0.41061 0.0
C856 C 0.53599 0.67739 0.37429 0.0
C857 C 0.53169 0.6524 0.36537 0.0
H858 H 0.52055 0.08748 0.52374 0.0
H859 H 0.4435 0.03799 0.48049 0.0
H860 H 0.42846 0.06614 0.50781 0.0
H861 H 0.50156 0.09575 0.60477 0.0
H862 H 0.5261 0.12932 0.61151 0.0
H863 H 0.53254 0.10913 0.58247 0.0
H864 H 0.543 0.14156 0.53044 0.0
H865 H 0.53719 0.16229 0.55957 0.0
H866 H 0.5197 0.15125 0.51806 0.0
H867 H 0.41998 0.09399 0.54918 0.0
H868 H 0.41929 0.12186 0.59719 0.0
H869 H 0.50274 0.15525 0.61125 0.0
C870 C 0.50093 0.08351 0.51857 0.0
C871 C 0.48329 0.06126 0.4992 0.0
C872 C 0.45736 0.05555 0.49435 0.0
C873 C 0.44868 0.07132 0.50992 0.0
C874 C 0.46629 0.09271 0.53006 0.0
C875 C 0.49204 0.09915 0.53384 0.0
C876 C 0.50627 0.12144 0.55982 0.0
C877 C 0.51724 0.11341 0.5915 0.0
C878 C 0.52781 0.14557 0.54083 0.0
C879 C 0.48423 0.12569 0.57133 0.0
C880 C 0.4614 0.10909 0.55368 0.0
C881 C 0.43791 0.10768 0.56237 0.0
C882 C 0.43776 0.12371 0.58972 0.0
C883 C 0.46099 0.14109 0.60807 0.0
C884 C 0.48454 0.14218 0.59816 0.0
H885 H 0.43641 0.50847 0.03444 0.0
H886 H 0.42913 0.43223 0.04134 0.0
H887 H 0.38732 0.41558 0.07339 0.0
H888 H 0.41479 0.50781 0.12189 0.0
H889 H 0.39788 0.52519 0.11183 0.0
H890 H 0.42519 0.53029 0.08504 0.0
H891 H 0.39664 0.51804 0.02817 0.0
H892 H 0.36926 0.51311 0.05476 0.0
H893 H 0.36655 0.48739 0.02631 0.0
H894 H 0.34788 0.40789 0.10724 0.0
H895 H 0.31418 0.40996 0.14333 0.0
H896 H 0.34832 0.49198 0.11797 0.0
C897 C 0.42552 0.48811 0.04185 0.0
C898 C 0.43541 0.47133 0.03482 0.0
C899 C 0.42144 0.44511 0.04611 0.0
C900 C 0.39777 0.43555 0.06427 0.0
C901 C 0.38866 0.45265 0.07145 0.0
C902 C 0.40214 0.47841 0.0608 0.0
C903 C 0.38937 0.49326 0.07494 0.0
C904 C 0.40791 0.51544 0.0999 0.0
C905 C 0.37989 0.50355 0.04421 0.0
C906 C 0.36671 0.47184 0.0953 0.0
C907 C 0.36651 0.44851 0.09253 0.0
C908 C 0.34772 0.426 0.10942 0.0
C909 C 0.32863 0.42734 0.12976 0.0
C910 C 0.32861 0.45109 0.13337 0.0
C911 C 0.34793 0.47359 0.11582 0.0
H912 H 0.90982 0.42158 0.52181 0.0
H913 H 0.98277 0.42268 0.53738 0.0
H914 H 0.95988 0.3816 0.57138 0.0
H915 H 0.88702 0.40137 0.60868 0.0
H916 H 0.85327 0.38119 0.5966 0.0
H917 H 0.87449 0.40853 0.56913 0.0
H918 H 0.86265 0.37814 0.51424 0.0
H919 H 0.84125 0.35068 0.54154 0.0
H920 H 0.86681 0.35008 0.51638 0.0
H921 H 0.92993 0.34227 0.60654 0.0
H922 H 0.89517 0.30838 0.64376 0.0
H923 H 0.84193 0.33392 0.60837 0.0
C924 C 0.92075 0.41272 0.53165 0.0
C925 C 0.94791 0.42491 0.52669 0.0
C926 C 0.96188 0.41341 0.54085 0.0
C927 C 0.94905 0.39009 0.56002 0.0
C928 C 0.92231 0.37874 0.56513 0.0
C929 C 0.9083 0.38969 0.55155 0.0
C930 C 0.88024 0.37493 0.5639 0.0
C931 C 0.87337 0.39256 0.58588 0.0
C932 C 0.86164 0.36273 0.53212 0.0
C933 C 0.88082 0.35426 0.58693 0.0
C934 C 0.90517 0.35656 0.58676 0.0
C935 C 0.91071 0.34011 0.60668 0.0
C936 C 0.89086 0.32089 0.62762 0.0
C937 C 0.86593 0.31855 0.6288 0.0
C938 C 0.86086 0.33536 0.60797 0.0
H939 H 0.48995 0.91875 0.03796 0.0
H940 H 0.56523 0.98928 0.0401 0.0
H941 H 0.58468 0.96508 0.06782 0.0
H942 H 0.49591 0.89823 0.12349 0.0
H943 H 0.47878 0.86394 0.11332 0.0
H944 H 0.47163 0.88566 0.08877 0.0
H945 H 0.48154 0.86989 0.02953 0.0
H946 H 0.48871 0.84807 0.05394 0.0
H947 H 0.5125 0.87156 0.02379 0.0
H948 H 0.59541 0.93382 0.09746 0.0
H949 H 0.59631 0.8989 0.13171 0.0
H950 H 0.51289 0.8498 0.11613 0.0
C951 C 0.51065 0.9288 0.04344 0.0
C952 C 0.52635 0.95562 0.0363 0.0
C953 C 0.55311 0.9686 0.04503 0.0
C954 C 0.56428 0.95502 0.06064 0.0
C955 C 0.54825 0.92861 0.0679 0.0
C956 C 0.52195 0.91567 0.05993 0.0
C957 C 0.50854 0.88805 0.07412 0.0
C958 C 0.48748 0.88373 0.10155 0.0
C959 C 0.49716 0.86822 0.04351 0.0
C960 C 0.53134 0.88758 0.09158 0.0
C961 C 0.55412 0.91101 0.0871 0.0
C962 C 0.57767 0.91541 0.10128 0.0
C963 C 0.57791 0.89548 0.12104 0.0
C964 C 0.55463 0.87155 0.12713 0.0
C965 C 0.53113 0.86761 0.1117 0.0
H966 H 0.57308 0.53272 0.56775 0.0
H967 H 0.58187 0.49883 0.46991 0.0
H968 H 0.62417 0.50549 0.49166 0.0
H969 H 0.64217 0.58125 0.58069 0.0
H970 H 0.63994 0.57693 0.62835 0.0
H971 H 0.61198 0.57213 0.60323 0.0
H972 H 0.58493 0.52571 0.62962 0.0
H973 H 0.61279 0.53028 0.65462 0.0
H974 H 0.59651 0.50299 0.62471 0.0
H975 H 0.6636 0.51237 0.52668 0.0
H976 H 0.69713 0.51952 0.57146 0.0
H977 H 0.66145 0.54801 0.64633 0.0
C978 C 0.58407 0.52715 0.55047 0.0
C979 C 0.5742 0.51535 0.51702 0.0
C980 C 0.58912 0.50804 0.49555 0.0
C981 C 0.61315 0.51175 0.50767 0.0
C982 C 0.62198 0.52288 0.5412 0.0
C983 C 0.60793 0.53061 0.56216 0.0
C984 C 0.6207 0.5405 0.59808 0.0
C985 C 0.62921 0.56942 0.60285 0.0
C986 C 0.60266 0.52387 0.62854 0.0
C987 C 0.64392 0.53668 0.59442 0.0
C988 C 0.64447 0.52668 0.56136 0.0
C989 C 0.66348 0.52041 0.55251 0.0
C990 C 0.68232 0.52436 0.57819 0.0
C991 C 0.68193 0.53438 0.61235 0.0
C992 C 0.66257 0.54079 0.62026 0.0
H993 H 0.0937 0.58115 0.01515 0.0
H994 H 0.02793 0.59338 0.00475 0.0
H995 H 0.05172 0.63454 0.03871 0.0
H996 H 0.10609 0.60014 0.10357 0.0
H997 H 0.14105 0.61568 0.10105 0.0
H998 H 0.12113 0.58983 0.07061 0.0
H999 H 0.14473 0.61984 0.01689 0.0
H1000 H 0.16506 0.64575 0.04714 0.0
H1001 H 0.14645 0.65097 0.0135 0.0
H1002 H 0.08052 0.67156 0.07851 0.0
H1003 H 0.11219 0.70202 0.12214 0.0
H1004 H 0.159 0.6651 0.10899 0.0
C1005 C 0.08487 0.59314 0.01889 0.0
C1006 C 0.05945 0.58481 0.00653 0.0
C1007 C 0.04772 0.60003 0.01334 0.0
C1008 C 0.06104 0.62331 0.03263 0.0
C1009 C 0.08591 0.6308 0.04531 0.0
C1010 C 0.09776 0.61621 0.03871 0.0
C1011 C 0.12337 0.6271 0.05861 0.0
C1012 C 0.12286 0.60699 0.08503 0.0
C1013 C 0.14626 0.63648 0.03247 0.0
C1014 C 0.12383 0.64977 0.07788 0.0
C1015 C 0.10219 0.65172 0.06946 0.0
C1016 C 0.09775 0.67048 0.08491 0.0
C1017 C 0.11591 0.68777 0.10959 0.0
C1018 C 0.13821 0.68612 0.11883 0.0
C1019 C 0.14215 0.66684 0.10257 0.0
loop_
_geom_bond_atom_site_label_1
_geom_bond_atom_site_label_2
_geom_bond_distance
_geom_bond_site_symmetry_2
_ccdc_geom_bond_type
C0 O2 1.247 . S
C0 O4 1.258 . S
C1 O8 1.247 . S
C1 O9 1.258 . S
O2 C0 1.247 . S
O2 Zn3 2.028 1_455 S
Zn3 O2 2.028 1_655 S
Zn3 O7 2.035 1_554 S
Zn3 O9 2.035 1_554 S
Zn3 O10 2.028 1_655 S
O4 C0 1.258 . S
O4 Zn5 2.035 1_554 S
Zn5 O4 2.035 1_556 S
Zn5 O6 2.028 1_455 S
Zn5 O8 2.028 1_455 S
Zn5 O11 2.035 1_556 S
O6 Zn5 2.028 1_655 S
O6 C12 1.247 . S
O7 Zn3 2.035 1_556 S
O7 C12 1.258 . S
O8 C1 1.247 . S
O8 Zn5 2.028 1_655 S
O9 C1 1.258 . S
O9 Zn3 2.035 1_556 S
O10 Zn3 2.028 1_455 S
O10 C13 1.247 . S
O11 Zn5 2.035 1_554 S
O11 C13 1.258 . S
C12 O6 1.247 . S
C12 O7 1.258 . S
C13 O10 1.247 . S
C13 O11 1.258 . S
C14 O16 1.247 . S
C14 O18 1.258 . S
C15 O22 1.247 . S
C15 O23 1.258 . S
O16 C14 1.247 . S
O16 Zn17 2.028 1_545 S
Zn17 O16 2.028 1_565 S
Zn17 O21 2.035 . S
Zn17 O23 2.035 . S
Zn17 O24 2.028 1_565 S
O18 C14 1.258 . S
O18 Zn19 2.035 . S
Zn19 O18 2.035 . S
Zn19 O20 2.028 1_545 S
Zn19 O22 2.028 1_545 S
Zn19 O25 2.035 . S
O20 Zn19 2.028 1_565 S
O20 C26 1.247 . S
O21 Zn17 2.035 . S
O21 C26 1.258 . S
O22 C15 1.247 . S
O22 Zn19 2.028 1_565 S
O23 C15 1.258 . S
O23 Zn17 2.035 . S
O24 Zn17 2.028 1_545 S
O24 C27 1.247 . S
O25 Zn19 2.035 . S
O25 C27 1.258 . S
C26 O20 1.247 . S
C26 O21 1.258 . S
C27 O24 1.247 . S
C27 O25 1.258 . S
C28 O30 1.247 . S
C28 O32 1.258 . S
C29 O36 1.247 . S
C29 O37 1.258 . S
O30 C28 1.247 . S
O30 Zn31 2.028 . S
Zn31 O30 2.028 . S
Zn31 O35 2.035 1_556 S
Zn31 O37 2.035 1_556 S
Zn31 O38 2.028 . S
O32 C28 1.258 . S
O32 Zn33 2.035 1_556 S
Zn33 O32 2.035 1_554 S
Zn33 O34 2.028 . S
Zn33 O36 2.028 . S
Zn33 O39 2.035 1_554 S
O34 Zn33 2.028 . S
O34 C40 1.247 . S
O35 Zn31 2.035 1_554 S
O35 C40 1.258 . S
O36 C29 1.247 . S
O36 Zn33 2.028 . S
O37 C29 1.258 . S
O37 Zn31 2.035 1_554 S
O38 Zn31 2.028 . S
O38 C41 1.247 . S
O39 Zn33 2.035 1_556 S
O39 C41 1.258 . S
C40 O34 1.247 . S
C40 O35 1.258 . S
C41 O38 1.247 . S
C41 O39 1.258 . S
C42 O44 1.247 . S
C42 O46 1.258 . S
C43 O50 1.247 . S
C43 O51 1.258 . S
O44 C42 1.247 . S
O44 Zn45 2.028 . S
Zn45 O44 2.028 . S
Zn45 O49 2.035 1_455 S
Zn45 O51 2.035 1_455 S
Zn45 O52 2.028 . S
O46 C42 1.258 . S
O46 Zn47 2.035 1_455 S
Zn47 O46 2.035 1_655 S
Zn47 O48 2.028 . S
Zn47 O50 2.028 . S
Zn47 O53 2.035 1_655 S
O48 Zn47 2.028 . S
O48 C54 1.247 . S
O49 Zn45 2.035 1_655 S
O49 C54 1.258 . S
O50 C43 1.247 . S
O50 Zn47 2.028 . S
O51 C43 1.258 . S
O51 Zn45 2.035 1_655 S
O52 Zn45 2.028 . S
O52 C55 1.247 . S
O53 Zn47 2.035 1_455 S
O53 C55 1.258 . S
C54 O48 1.247 . S
C54 O49 1.258 . S
C55 O52 1.247 . S
C55 O53 1.258 . S
C56 O58 1.247 . S
C56 O60 1.258 . S
C57 O64 1.247 . S
C57 O65 1.258 . S
O58 C56 1.247 . S
O58 Zn59 2.028 1_565 S
Zn59 O58 2.028 1_545 S
Zn59 O63 2.035 1_554 S
Zn59 O65 2.035 1_554 S
Zn59 O66 2.028 1_545 S
O60 C56 1.258 . S
O60 Zn61 2.035 1_554 S
Zn61 O60 2.035 1_556 S
Zn61 O62 2.028 1_565 S
Zn61 O64 2.028 1_565 S
Zn61 O67 2.035 1_556 S
O62 Zn61 2.028 1_545 S
O62 C68 1.247 . S
O63 Zn59 2.035 1_556 S
O63 C68 1.258 . S
O64 C57 1.247 . S
O64 Zn61 2.028 1_545 S
O65 C57 1.258 . S
O65 Zn59 2.035 1_556 S
O66 Zn59 2.028 1_565 S
O66 C69 1.247 . S
O67 Zn61 2.035 1_554 S
O67 C69 1.258 . S
C68 O62 1.247 . S
C68 O63 1.258 . S
C69 O66 1.247 . S
C69 O67 1.258 . S
C70 O72 1.247 . S
C70 O74 1.258 . S
C71 O78 1.247 . S
C71 O79 1.258 . S
O72 C70 1.247 . S
O72 Zn73 2.028 . S
Zn73 O72 2.028 . S
Zn73 O77 2.035 . S
Zn73 O79 2.035 . S
Zn73 O80 2.028 . S
O74 C70 1.258 . S
O74 Zn75 2.035 . S
Zn75 O74 2.035 . S
Zn75 O76 2.028 . S
Zn75 O78 2.028 . S
Zn75 O81 2.035 . S
O76 Zn75 2.028 . S
O76 C82 1.247 . S
O77 Zn73 2.035 . S
O77 C82 1.258 . S
O78 C71 1.247 . S
O78 Zn75 2.028 . S
O79 C71 1.258 . S
O79 Zn73 2.035 . S
O80 Zn73 2.028 . S
O80 C83 1.247 . S
O81 Zn75 2.035 . S
O81 C83 1.258 . S
C82 O76 1.247 . S
C82 O77 1.258 . S
C83 O80 1.247 . S
C83 O81 1.258 . S
H84 C103 0.949 . S
H85 C104 0.950 . S
H86 C106 0.950 . S
H87 C107 0.950 . S
H88 C109 0.950 . S
H89 C112 0.950 . S
H90 C113 0.950 . S
H91 C115 0.951 . S
H92 C116 0.949 . S
H93 C118 0.949 . S
H94 C119 0.950 . S
H95 C121 0.950 . S
H96 C122 0.950 . S
H97 C124 0.950 . S
H98 C127 0.950 . S
H99 C128 0.950 . S
H100 C130 0.951 . S
H101 C131 0.949 . S
C102 C103 1.376 . S
C102 C107 1.386 . S
C102 C108 1.483 . S
C103 H84 0.949 . S
C103 C102 1.376 . S
C103 C104 1.397 . S
C104 H85 0.950 . S
C104 C103 1.397 . S
C104 C105 1.391 . S
C105 C104 1.391 . S
C105 C106 1.405 . S
C106 H86 0.950 . S
C106 C105 1.405 . S
C106 C107 1.367 . S
C107 H87 0.950 . S
C107 C102 1.386 . S
C107 C106 1.367 . S
C108 C102 1.483 . S
C108 C109 1.382 . S
C108 C110 1.403 . S
C109 H88 0.950 . S
C109 C108 1.382 . S
C109 C125 1.411 . S
C110 C108 1.403 . S
C110 C111 1.489 . S
C110 C124 1.411 . S
C111 C110 1.489 . S
C111 C112 1.383 . S
C111 C116 1.382 . S
C112 H89 0.950 . S
C112 C111 1.383 . S
C112 C113 1.395 . S
C113 H90 0.950 . S
C113 C112 1.395 . S
C113 C114 1.288 . S
C114 C113 1.288 . S
C114 C115 1.392 . S
C115 H91 0.951 . S
C115 C114 1.392 . S
C115 C116 1.392 . S
C116 H92 0.949 . S
C116 C111 1.382 . S
C116 C115 1.392 . S
C117 C118 1.376 . S
C117 C122 1.386 . S
C117 C123 1.483 . S
C118 H93 0.949 . S
C118 C117 1.376 . S
C118 C119 1.397 . S
C119 H94 0.950 . S
C119 C118 1.397 . S
C119 C120 1.391 . S
C120 C119 1.391 . S
C120 C121 1.405 . S
C121 H95 0.950 . S
C121 C120 1.405 . S
C121 C122 1.367 . S
C122 H96 0.950 . S
C122 C117 1.386 . S
C122 C121 1.367 . S
C123 C117 1.483 . S
C123 C124 1.382 . S
C123 C125 1.403 . S
C124 H97 0.950 . S
C124 C110 1.411 . S
C124 C123 1.382 . S
C125 C109 1.411 . S
C125 C123 1.403 . S
C125 C126 1.489 . S
C126 C125 1.489 . S
C126 C127 1.383 . S
C126 C131 1.382 . S
C127 H98 0.950 . S
C127 C126 1.383 . S
C127 C128 1.395 . S
C128 H99 0.950 . S
C128 C127 1.395 . S
C128 C129 1.288 . S
C129 C128 1.288 . S
C129 C130 1.392 . S
C130 H100 0.951 . S
C130 C129 1.392 . S
C130 C131 1.392 . S
C131 H101 0.949 . S
C131 C126 1.382 . S
C131 C130 1.392 . S
H132 C151 0.949 . S
H133 C152 0.950 . S
H134 C154 0.950 . S
H135 C155 0.950 . S
H136 C157 0.950 . S
H137 C160 0.950 . S
H138 C161 0.950 . S
H139 C163 0.951 . S
H140 C164 0.949 . S
H141 C166 0.949 . S
H142 C167 0.950 . S
H143 C169 0.950 . S
H144 C170 0.950 . S
H145 C172 0.950 . S
H146 C175 0.950 . S
H147 C176 0.950 . S
H148 C178 0.951 . S
H149 C179 0.949 . S
C150 C151 1.376 . S
C150 C155 1.386 . S
C150 C156 1.483 . S
C151 H132 0.949 . S
C151 C150 1.376 . S
C151 C152 1.397 . S
C152 H133 0.950 . S
C152 C151 1.397 . S
C152 C153 1.391 . S
C153 C152 1.391 . S
C153 C154 1.405 . S
C154 H134 0.950 . S
C154 C153 1.405 . S
C154 C155 1.367 . S
C155 H135 0.950 . S
C155 C150 1.386 . S
C155 C154 1.367 . S
C156 C150 1.483 . S
C156 C157 1.382 . S
C156 C158 1.403 . S
C157 H136 0.950 . S
C157 C156 1.382 . S
C157 C173 1.411 . S
C158 C156 1.403 . S
C158 C159 1.489 . S
C158 C172 1.411 . S
C159 C158 1.489 . S
C159 C160 1.383 . S
C159 C164 1.382 . S
C160 H137 0.950 . S
C160 C159 1.383 . S
C160 C161 1.395 . S
C161 H138 0.950 . S
C161 C160 1.395 . S
C161 C162 1.288 . S
C162 C161 1.288 . S
C162 C163 1.392 . S
C163 H139 0.951 . S
C163 C162 1.392 . S
C163 C164 1.392 . S
C164 H140 0.949 . S
C164 C159 1.382 . S
C164 C163 1.392 . S
C165 C166 1.376 . S
C165 C170 1.386 . S
C165 C171 1.483 . S
C166 H141 0.949 . S
C166 C165 1.376 . S
C166 C167 1.397 . S
C167 H142 0.950 . S
C167 C166 1.397 . S
C167 C168 1.391 . S
C168 C167 1.391 . S
C168 C169 1.405 . S
C169 H143 0.950 . S
C169 C168 1.405 . S
C169 C170 1.367 . S
C170 H144 0.950 . S
C170 C165 1.386 . S
C170 C169 1.367 . S
C171 C165 1.483 . S
C171 C172 1.382 . S
C171 C173 1.403 . S
C172 H145 0.950 . S
C172 C158 1.411 . S
C172 C171 1.382 . S
C173 C157 1.411 . S
C173 C171 1.403 . S
C173 C174 1.489 . S
C174 C173 1.489 . S
C174 C175 1.383 . S
C174 C179 1.382 . S
C175 H146 0.950 . S
C175 C174 1.383 . S
C175 C176 1.395 . S
C176 H147 0.950 . S
C176 C175 1.395 . S
C176 C177 1.288 . S
C177 C176 1.288 . S
C177 C178 1.392 . S
C178 H148 0.951 . S
C178 C177 1.392 . S
C178 C179 1.392 . S
C179 H149 0.949 . S
C179 C174 1.382 . S
C179 C178 1.392 . S
H180 C199 0.949 . S
H181 C200 0.950 . S
H182 C202 0.950 . S
H183 C203 0.950 . S
H184 C205 0.950 . S
H185 C208 0.950 . S
H186 C209 0.950 . S
H187 C211 0.951 . S
H188 C212 0.949 . S
H189 C214 0.949 . S
H190 C215 0.950 . S
H191 C217 0.950 . S
H192 C218 0.950 . S
H193 C220 0.950 . S
H194 C223 0.950 . S
H195 C224 0.950 . S
H196 C226 0.951 . S
H197 C227 0.949 . S
C198 C199 1.376 . S
C198 C203 1.386 . S
C198 C204 1.483 . S
C199 H180 0.949 . S
C199 C198 1.376 . S
C199 C200 1.397 . S
C200 H181 0.950 . S
C200 C199 1.397 . S
C200 C201 1.391 . S
C201 C200 1.391 . S
C201 C202 1.405 . S
C202 H182 0.950 . S
C202 C201 1.405 . S
C202 C203 1.367 . S
C203 H183 0.950 . S
C203 C198 1.386 . S
C203 C202 1.367 . S
C204 C198 1.483 . S
C204 C205 1.382 . S
C204 C206 1.403 . S
C205 H184 0.950 . S
C205 C204 1.382 . S
C205 C221 1.411 . S
C206 C204 1.403 . S
C206 C207 1.489 . S
C206 C220 1.411 . S
C207 C206 1.489 . S
C207 C208 1.383 . S
C207 C212 1.382 . S
C208 H185 0.950 . S
C208 C207 1.383 . S
C208 C209 1.395 . S
C209 H186 0.950 . S
C209 C208 1.395 . S
C209 C210 1.288 . S
C210 C209 1.288 . S
C210 C211 1.392 . S
C211 H187 0.951 . S
C211 C210 1.392 . S
C211 C212 1.392 . S
C212 H188 0.949 . S
C212 C207 1.382 . S
C212 C211 1.392 . S
C213 C214 1.376 . S
C213 C218 1.386 . S
C213 C219 1.483 . S
C214 H189 0.949 . S
C214 C213 1.376 . S
C214 C215 1.397 . S
C215 H190 0.950 . S
C215 C214 1.397 . S
C215 C216 1.391 . S
C216 C215 1.391 . S
C216 C217 1.405 . S
C217 H191 0.950 . S
C217 C216 1.405 . S
C217 C218 1.367 . S
C218 H192 0.950 . S
C218 C213 1.386 . S
C218 C217 1.367 . S
C219 C213 1.483 . S
C219 C220 1.382 . S
C219 C221 1.403 . S
C220 H193 0.950 . S
C220 C206 1.411 . S
C220 C219 1.382 . S
C221 C205 1.411 . S
C221 C219 1.403 . S
C221 C222 1.489 . S
C222 C221 1.489 . S
C222 C223 1.383 . S
C222 C227 1.382 . S
C223 H194 0.950 . S
C223 C222 1.383 . S
C223 C224 1.395 . S
C224 H195 0.950 . S
C224 C223 1.395 . S
C224 C225 1.288 . S
C225 C224 1.288 . S
C225 C226 1.392 . S
C226 H196 0.951 . S
C226 C225 1.392 . S
C226 C227 1.392 . S
C227 H197 0.949 . S
C227 C222 1.382 . S
C227 C226 1.392 . S
H228 C247 0.949 . S
H229 C248 0.950 . S
H230 C250 0.950 . S
H231 C251 0.950 . S
H232 C253 0.950 . S
H233 C256 0.950 . S
H234 C257 0.950 . S
H235 C259 0.951 . S
H236 C260 0.949 . S
H237 C262 0.949 . S
H238 C263 0.950 . S
H239 C265 0.950 . S
H240 C266 0.950 . S
H241 C268 0.950 . S
H242 C271 0.950 . S
H243 C272 0.950 . S
H244 C274 0.951 . S
H245 C275 0.949 . S
C246 C247 1.376 . S
C246 C251 1.386 . S
C246 C252 1.483 . S
C247 H228 0.949 . S
C247 C246 1.376 . S
C247 C248 1.397 . S
C248 H229 0.950 . S
C248 C247 1.397 . S
C248 C249 1.391 . S
C249 C248 1.391 . S
C249 C250 1.405 . S
C250 H230 0.950 . S
C250 C249 1.405 . S
C250 C251 1.367 . S
C251 H231 0.950 . S
C251 C246 1.386 . S
C251 C250 1.367 . S
C252 C246 1.483 . S
C252 C253 1.382 . S
C252 C254 1.403 . S
C253 H232 0.950 . S
C253 C252 1.382 . S
C253 C269 1.411 . S
C254 C252 1.403 . S
C254 C255 1.489 . S
C254 C268 1.411 . S
C255 C254 1.489 . S
C255 C256 1.383 . S
C255 C260 1.382 . S
C256 H233 0.950 . S
C256 C255 1.383 . S
C256 C257 1.395 . S
C257 H234 0.950 . S
C257 C256 1.395 . S
C257 C258 1.288 . S
C258 C257 1.288 . S
C258 C259 1.392 . S
C259 H235 0.951 . S
C259 C258 1.392 . S
C259 C260 1.392 . S
C260 H236 0.949 . S
C260 C255 1.382 . S
C260 C259 1.392 . S
C261 C262 1.376 . S
C261 C266 1.386 . S
C261 C267 1.483 . S
C262 H237 0.949 . S
C262 C261 1.376 . S
C262 C263 1.397 . S
C263 H238 0.950 . S
C263 C262 1.397 . S
C263 C264 1.391 . S
C264 C263 1.391 . S
C264 C265 1.405 . S
C265 H239 0.950 . S
C265 C264 1.405 . S
C265 C266 1.367 . S
C266 H240 0.950 . S
C266 C261 1.386 . S
C266 C265 1.367 . S
C267 C261 1.483 . S
C267 C268 1.382 . S
C267 C269 1.403 . S
C268 H241 0.950 . S
C268 C254 1.411 . S
C268 C267 1.382 . S
C269 C253 1.411 . S
C269 C267 1.403 . S
C269 C270 1.489 . S
C270 C269 1.489 . S
C270 C271 1.383 . S
C270 C275 1.382 . S
C271 H242 0.950 . S
C271 C270 1.383 . S
C271 C272 1.395 . S
C272 H243 0.950 . S
C272 C271 1.395 . S
C272 C273 1.288 . S
C273 C272 1.288 . S
C273 C274 1.392 . S
C274 H244 0.951 . S
C274 C273 1.392 . S
C274 C275 1.392 . S
C275 H245 0.949 . S
C275 C270 1.382 . S
C275 C274 1.392 . S
H276 C295 0.949 . S
H277 C296 0.950 . S
H278 C298 0.950 . S
H279 C299 0.950 . S
H280 C301 0.950 . S
H281 C304 0.950 . S
H282 C305 0.950 . S
H283 C307 0.951 . S
H284 C308 0.949 . S
H285 C310 0.949 . S
H286 C311 0.950 . S
H287 C313 0.950 . S
H288 C314 0.950 . S
H289 C316 0.950 . S
H290 C319 0.950 . S
H291 C320 0.950 . S
H292 C322 0.951 . S
H293 C323 0.949 . S
C294 C295 1.376 . S
C294 C299 1.386 . S
C294 C300 1.483 . S
C295 H276 0.949 . S
C295 C294 1.376 . S
C295 C296 1.397 . S
C296 H277 0.950 . S
C296 C295 1.397 . S
C296 C297 1.391 . S
C297 C296 1.391 . S
C297 C298 1.405 . S
C298 H278 0.950 . S
C298 C297 1.405 . S
C298 C299 1.367 . S
C299 H279 0.950 . S
C299 C294 1.386 . S
C299 C298 1.367 . S
C300 C294 1.483 . S
C300 C301 1.382 . S
C300 C302 1.403 . S
C301 H280 0.950 . S
C301 C300 1.382 . S
C301 C317 1.411 . S
C302 C300 1.403 . S
C302 C303 1.489 . S
C302 C316 1.411 . S
C303 C302 1.489 . S
C303 C304 1.383 . S
C303 C308 1.382 . S
C304 H281 0.950 . S
C304 C303 1.383 . S
C304 C305 1.395 . S
C305 H282 0.950 . S
C305 C304 1.395 . S
C305 C306 1.288 . S
C306 C305 1.288 . S
C306 C307 1.392 . S
C307 H283 0.951 . S
C307 C306 1.392 . S
C307 C308 1.392 . S
C308 H284 0.949 . S
C308 C303 1.382 . S
C308 C307 1.392 . S
C309 C310 1.376 . S
C309 C314 1.386 . S
C309 C315 1.483 . S
C310 H285 0.949 . S
C310 C309 1.376 . S
C310 C311 1.397 . S
C311 H286 0.950 . S
C311 C310 1.397 . S
C311 C312 1.391 . S
C312 C311 1.391 . S
C312 C313 1.405 . S
C313 H287 0.950 . S
C313 C312 1.405 . S
C313 C314 1.367 . S
C314 H288 0.950 . S
C314 C309 1.386 . S
C314 C313 1.367 . S
C315 C309 1.483 . S
C315 C316 1.382 . S
C315 C317 1.403 . S
C316 H289 0.950 . S
C316 C302 1.411 . S
C316 C315 1.382 . S
C317 C301 1.411 . S
C317 C315 1.403 . S
C317 C318 1.489 . S
C318 C317 1.489 . S
C318 C319 1.383 . S
C318 C323 1.382 . S
C319 H290 0.950 . S
C319 C318 1.383 . S
C319 C320 1.395 . S
C320 H291 0.950 . S
C320 C319 1.395 . S
C320 C321 1.288 . S
C321 C320 1.288 . S
C321 C322 1.392 . S
C322 H292 0.951 . S
C322 C321 1.392 . S
C322 C323 1.392 . S
C323 H293 0.949 . S
C323 C318 1.382 . S
C323 C322 1.392 . S
H324 C343 0.949 . S
H325 C344 0.950 . S
H326 C346 0.950 . S
H327 C347 0.950 . S
H328 C349 0.950 . S
H329 C352 0.950 . S
H330 C353 0.950 . S
H331 C355 0.951 . S
H332 C356 0.949 . S
H333 C358 0.949 . S
H334 C359 0.950 . S
H335 C361 0.950 . S
H336 C362 0.950 . S
H337 C364 0.950 . S
H338 C367 0.950 . S
H339 C368 0.950 . S
H340 C370 0.951 . S
H341 C371 0.949 . S
C342 C343 1.376 . S
C342 C347 1.386 . S
C342 C348 1.483 . S
C343 H324 0.949 . S
C343 C342 1.376 . S
C343 C344 1.397 . S
C344 H325 0.950 . S
C344 C343 1.397 . S
C344 C345 1.391 . S
C345 C344 1.391 . S
C345 C346 1.405 . S
C346 H326 0.950 . S
C346 C345 1.405 . S
C346 C347 1.367 . S
C347 H327 0.950 . S
C347 C342 1.386 . S
C347 C346 1.367 . S
C348 C342 1.483 . S
C348 C349 1.382 . S
C348 C350 1.403 . S
C349 H328 0.950 . S
C349 C348 1.382 . S
C349 C365 1.411 . S
C350 C348 1.403 . S
C350 C351 1.489 . S
C350 C364 1.411 . S
C351 C350 1.489 . S
C351 C352 1.383 . S
C351 C356 1.382 . S
C352 H329 0.950 . S
C352 C351 1.383 . S
C352 C353 1.395 . S
C353 H330 0.950 . S
C353 C352 1.395 . S
C353 C354 1.288 . S
C354 C353 1.288 . S
C354 C355 1.392 . S
C355 H331 0.951 . S
C355 C354 1.392 . S
C355 C356 1.392 . S
C356 H332 0.949 . S
C356 C351 1.382 . S
C356 C355 1.392 . S
C357 C358 1.376 . S
C357 C362 1.386 . S
C357 C363 1.483 . S
C358 H333 0.949 . S
C358 C357 1.376 . S
C358 C359 1.397 . S
C359 H334 0.950 . S
C359 C358 1.397 . S
C359 C360 1.391 . S
C360 C359 1.391 . S
C360 C361 1.405 . S
C361 H335 0.950 . S
C361 C360 1.405 . S
C361 C362 1.367 . S
C362 H336 0.950 . S
C362 C357 1.386 . S
C362 C361 1.367 . S
C363 C357 1.483 . S
C363 C364 1.382 . S
C363 C365 1.403 . S
C364 H337 0.950 . S
C364 C350 1.411 . S
C364 C363 1.382 . S
C365 C349 1.411 . S
C365 C363 1.403 . S
C365 C366 1.489 . S
C366 C365 1.489 . S
C366 C367 1.383 . S
C366 C371 1.382 . S
C367 H338 0.950 . S
C367 C366 1.383 . S
C367 C368 1.395 . S
C368 H339 0.950 . S
C368 C367 1.395 . S
C368 C369 1.288 . S
C369 C368 1.288 . S
C369 C370 1.392 . S
C370 H340 0.951 . S
C370 C369 1.392 . S
C370 C371 1.392 . S
C371 H341 0.949 . S
C371 C366 1.382 . S
C371 C370 1.392 . S
H372 C384 0.930 . S
H373 C386 0.930 . S
H374 C387 0.930 . S
H375 C391 0.959 . S
H376 C391 0.959 . S
H377 C391 0.961 . S
H378 C392 0.960 . S
H379 C392 0.961 . S
H380 C392 0.959 . S
H381 C395 0.929 . S
H382 C396 0.931 . S
H383 C398 0.930 . S
C384 H372 0.930 . S
C384 C385 1.399 . S
C384 C389 1.399 . S
C385 C384 1.399 . S
C385 C386 1.376 . S
C386 H373 0.930 . S
C386 C385 1.376 . S
C386 C387 1.388 . S
C387 H374 0.930 . S
C387 C386 1.388 . S
C387 C388 1.390 . S
C388 C387 1.390 . S
C388 C389 1.394 . S
C388 C394 1.465 . S
C389 C384 1.399 . S
C389 C388 1.394 . S
C389 C390 1.516 . S
C390 C389 1.516 . S
C390 C391 1.502 . S
C390 C392 1.561 . S
C390 C393 1.526 . S
C391 H375 0.959 . S
C391 H376 0.959 . S
C391 H377 0.961 . S
C391 C390 1.502 . S
C392 H378 0.960 . S
C392 H379 0.961 . S
C392 H380 0.959 . S
C392 C390 1.561 . S
C393 C390 1.526 . S
C393 C394 1.396 . S
C393 C398 1.390 . S
C394 C388 1.465 . S
C394 C393 1.396 . S
C394 C395 1.399 . S
C395 H381 0.929 . S
C395 C394 1.399 . S
C395 C396 1.385 . S
C396 H382 0.931 . S
C396 C395 1.385 . S
C396 C397 1.389 . S
C397 C396 1.389 . S
C397 C398 1.387 . S
C398 H383 0.930 . S
C398 C393 1.390 . S
C398 C397 1.387 . S
H399 C411 0.930 . S
H400 C413 0.930 . S
H401 C414 0.930 . S
H402 C418 0.959 . S
H403 C418 0.959 . S
H404 C418 0.961 . S
H405 C419 0.960 . S
H406 C419 0.961 . S
H407 C419 0.959 . S
H408 C422 0.929 . S
H409 C423 0.931 . S
H410 C425 0.930 . S
C411 H399 0.930 . S
C411 C412 1.399 . S
C411 C416 1.399 . S
C412 C411 1.399 . S
C412 C413 1.376 . S
C413 H400 0.930 . S
C413 C412 1.376 . S
C413 C414 1.388 . S
C414 H401 0.930 . S
C414 C413 1.388 . S
C414 C415 1.390 . S
C415 C414 1.390 . S
C415 C416 1.394 . S
C415 C421 1.465 . S
C416 C411 1.399 . S
C416 C415 1.394 . S
C416 C417 1.516 . S
C417 C416 1.516 . S
C417 C418 1.502 . S
C417 C419 1.561 . S
C417 C420 1.526 . S
C418 H402 0.959 . S
C418 H403 0.959 . S
C418 H404 0.961 . S
C418 C417 1.502 . S
C419 H405 0.960 . S
C419 H406 0.961 . S
C419 H407 0.959 . S
C419 C417 1.561 . S
C420 C417 1.526 . S
C420 C421 1.396 . S
C420 C425 1.390 . S
C421 C415 1.465 . S
C421 C420 1.396 . S
C421 C422 1.399 . S
C422 H408 0.929 . S
C422 C421 1.399 . S
C422 C423 1.385 . S
C423 H409 0.931 . S
C423 C422 1.385 . S
C423 C424 1.389 . S
C424 C423 1.389 . S
C424 C425 1.387 . S
C425 H410 0.930 . S
C425 C420 1.390 . S
C425 C424 1.387 . S
H426 C438 0.930 . S
H427 C440 0.930 . S
H428 C441 0.930 . S
H429 C445 0.959 . S
H430 C445 0.959 . S
H431 C445 0.961 . S
H432 C446 0.960 . S
H433 C446 0.961 . S
H434 C446 0.959 . S
H435 C449 0.929 . S
H436 C450 0.931 . S
H437 C452 0.930 . S
C438 H426 0.930 . S
C438 C439 1.399 . S
C438 C443 1.399 . S
C439 C438 1.399 . S
C439 C440 1.376 . S
C440 H427 0.930 . S
C440 C439 1.376 . S
C440 C441 1.388 . S
C441 H428 0.930 . S
C441 C440 1.388 . S
C441 C442 1.390 . S
C442 C441 1.390 . S
C442 C443 1.394 . S
C442 C448 1.465 . S
C443 C438 1.399 . S
C443 C442 1.394 . S
C443 C444 1.516 . S
C444 C443 1.516 . S
C444 C445 1.502 . S
C444 C446 1.561 . S
C444 C447 1.526 . S
C445 H429 0.959 . S
C445 H430 0.959 . S
C445 H431 0.961 . S
C445 C444 1.502 . S
C446 H432 0.960 . S
C446 H433 0.961 . S
C446 H434 0.959 . S
C446 C444 1.561 . S
C447 C444 1.526 . S
C447 C448 1.396 . S
C447 C452 1.390 . S
C448 C442 1.465 . S
C448 C447 1.396 . S
C448 C449 1.399 . S
C449 H435 0.929 . S
C449 C448 1.399 . S
C449 C450 1.385 . S
C450 H436 0.931 . S
C450 C449 1.385 . S
C450 C451 1.389 . S
C451 C450 1.389 . S
C451 C452 1.387 . S
C452 H437 0.930 . S
C452 C447 1.390 . S
C452 C451 1.387 . S
H453 C465 0.930 . S
H454 C467 0.930 . S
H455 C468 0.930 . S
H456 C472 0.959 . S
H457 C472 0.959 . S
H458 C472 0.961 . S
H459 C473 0.960 . S
H460 C473 0.961 . S
H461 C473 0.959 . S
H462 C476 0.929 . S
H463 C477 0.931 . S
H464 C479 0.930 . S
C465 H453 0.930 . S
C465 C466 1.399 . S
C465 C470 1.399 . S
C466 C465 1.399 . S
C466 C467 1.376 . S
C467 H454 0.930 . S
C467 C466 1.376 . S
C467 C468 1.388 . S
C468 H455 0.930 . S
C468 C467 1.388 . S
C468 C469 1.390 . S
C469 C468 1.390 . S
C469 C470 1.394 . S
C469 C475 1.465 . S
C470 C465 1.399 . S
C470 C469 1.394 . S
C470 C471 1.516 . S
C471 C470 1.516 . S
C471 C472 1.502 . S
C471 C473 1.561 . S
C471 C474 1.526 . S
C472 H456 0.959 . S
C472 H457 0.959 . S
C472 H458 0.961 . S
C472 C471 1.502 . S
C473 H459 0.960 . S
C473 H460 0.961 . S
C473 H461 0.959 . S
C473 C471 1.561 . S
C474 C471 1.526 . S
C474 C475 1.396 . S
C474 C479 1.390 . S
C475 C469 1.465 . S
C475 C474 1.396 . S
C475 C476 1.399 . S
C476 H462 0.929 . S
C476 C475 1.399 . S
C476 C477 1.385 . S
C477 H463 0.931 . S
C477 C476 1.385 . S
C477 C478 1.389 . S
C478 C477 1.389 . S
C478 C479 1.387 . S
C479 H464 0.930 . S
C479 C474 1.390 . S
C479 C478 1.387 . S
H480 C492 0.930 . S
H481 C494 0.930 . S
H482 C495 0.930 . S
H483 C499 0.959 . S
H484 C499 0.959 . S
H485 C499 0.961 . S
H486 C500 0.960 . S
H487 C500 0.961 . S
H488 C500 0.959 . S
H489 C503 0.929 . S
H490 C504 0.931 . S
H491 C506 0.930 . S
C492 H480 0.930 . S
C492 C493 1.399 . S
C492 C497 1.399 . S
C493 C492 1.399 . S
C493 C494 1.376 . S
C494 H481 0.930 . S
C494 C493 1.376 . S
C494 C495 1.388 . S
C495 H482 0.930 . S
C495 C494 1.388 . S
C495 C496 1.390 . S
C496 C495 1.390 . S
C496 C497 1.394 . S
C496 C502 1.465 . S
C497 C492 1.399 . S
C497 C496 1.394 . S
C497 C498 1.516 . S
C498 C497 1.516 . S
C498 C499 1.502 . S
C498 C500 1.561 . S
C498 C501 1.526 . S
C499 H483 0.959 . S
C499 H484 0.959 . S
C499 H485 0.961 . S
C499 C498 1.502 . S
C500 H486 0.960 . S
C500 H487 0.961 . S
C500 H488 0.959 . S
C500 C498 1.561 . S
C501 C498 1.526 . S
C501 C502 1.396 . S
C501 C506 1.390 . S
C502 C496 1.465 . S
C502 C501 1.396 . S
C502 C503 1.399 . S
C503 H489 0.929 . S
C503 C502 1.399 . S
C503 C504 1.385 . S
C504 H490 0.931 . S
C504 C503 1.385 . S
C504 C505 1.389 . S
C505 C504 1.389 . S
C505 C506 1.387 . S
C506 H491 0.930 . S
C506 C501 1.390 . S
C506 C505 1.387 . S
H507 C519 0.930 . S
H508 C521 0.930 . S
H509 C522 0.930 . S
H510 C526 0.959 . S
H511 C526 0.959 . S
H512 C526 0.961 . S
H513 C527 0.960 . S
H514 C527 0.961 . S
H515 C527 0.959 . S
H516 C530 0.929 . S
H517 C531 0.931 . S
H518 C533 0.930 . S
C519 H507 0.930 . S
C519 C520 1.399 . S
C519 C524 1.399 . S
C520 C519 1.399 . S
C520 C521 1.376 . S
C521 H508 0.930 . S
C521 C520 1.376 . S
C521 C522 1.388 . S
C522 H509 0.930 . S
C522 C521 1.388 . S
C522 C523 1.390 . S
C523 C522 1.390 . S
C523 C524 1.394 . S
C523 C529 1.465 . S
C524 C519 1.399 . S
C524 C523 1.394 . S
C524 C525 1.516 . S
C525 C524 1.516 . S
C525 C526 1.502 . S
C525 C527 1.561 . S
C525 C528 1.526 . S
C526 H510 0.959 . S
C526 H511 0.959 . S
C526 H512 0.961 . S
C526 C525 1.502 . S
C527 H513 0.960 . S
C527 H514 0.961 . S
C527 H515 0.959 . S
C527 C525 1.561 . S
C528 C525 1.526 . S
C528 C529 1.396 . S
C528 C533 1.390 . S
C529 C523 1.465 . S
C529 C528 1.396 . S
C529 C530 1.399 . S
C530 H516 0.929 . S
C530 C529 1.399 . S
C530 C531 1.385 . S
C531 H517 0.931 . S
C531 C530 1.385 . S
C531 C532 1.389 . S
C532 C531 1.389 . S
C532 C533 1.387 . S
C533 H518 0.930 . S
C533 C528 1.390 . S
C533 C532 1.387 . S
H534 C546 0.930 . S
H535 C548 0.930 . S
H536 C549 0.930 . S
H537 C553 0.959 . S
H538 C553 0.959 . S
H539 C553 0.961 . S
H540 C554 0.960 . S
H541 C554 0.961 . S
H542 C554 0.959 . S
H543 C557 0.929 . S
H544 C558 0.931 . S
H545 C560 0.930 . S
C546 H534 0.930 . S
C546 C547 1.399 . S
C546 C551 1.399 . S
C547 C546 1.399 . S
C547 C548 1.376 . S
C548 H535 0.930 . S
C548 C547 1.376 . S
C548 C549 1.388 . S
C549 H536 0.930 . S
C549 C548 1.388 . S
C549 C550 1.390 . S
C550 C549 1.390 . S
C550 C551 1.394 . S
C550 C556 1.465 . S
C551 C546 1.399 . S
C551 C550 1.394 . S
C551 C552 1.516 . S
C552 C551 1.516 . S
C552 C553 1.502 . S
C552 C554 1.561 . S
C552 C555 1.526 . S
C553 H537 0.959 . S
C553 H538 0.959 . S
C553 H539 0.961 . S
C553 C552 1.502 . S
C554 H540 0.960 . S
C554 H541 0.961 . S
C554 H542 0.959 . S
C554 C552 1.561 . S
C555 C552 1.526 . S
C555 C556 1.396 . S
C555 C560 1.390 . S
C556 C550 1.465 . S
C556 C555 1.396 . S
C556 C557 1.399 . S
C557 H543 0.929 . S
C557 C556 1.399 . S
C557 C558 1.385 . S
C558 H544 0.931 . S
C558 C557 1.385 . S
C558 C559 1.389 . S
C559 C558 1.389 . S
C559 C560 1.387 . S
C560 H545 0.930 . S
C560 C555 1.390 . S
C560 C559 1.387 . S
H561 C573 0.930 . S
H562 C575 0.930 . S
H563 C576 0.930 . S
H564 C580 0.959 . S
H565 C580 0.959 . S
H566 C580 0.961 . S
H567 C581 0.960 . S
H568 C581 0.961 . S
H569 C581 0.959 . S
H570 C584 0.929 . S
H571 C585 0.931 . S
H572 C587 0.930 . S
C573 H561 0.930 . S
C573 C574 1.399 . S
C573 C578 1.399 . S
C574 C573 1.399 . S
C574 C575 1.376 . S
C575 H562 0.930 . S
C575 C574 1.376 . S
C575 C576 1.388 . S
C576 H563 0.930 . S
C576 C575 1.388 . S
C576 C577 1.390 . S
C577 C576 1.390 . S
C577 C578 1.394 . S
C577 C583 1.465 . S
C578 C573 1.399 . S
C578 C577 1.394 . S
C578 C579 1.516 . S
C579 C578 1.516 . S
C579 C580 1.502 . S
C579 C581 1.561 . S
C579 C582 1.526 . S
C580 H564 0.959 . S
C580 H565 0.959 . S
C580 H566 0.961 . S
C580 C579 1.502 . S
C581 H567 0.960 . S
C581 H568 0.961 . S
C581 H569 0.959 . S
C581 C579 1.561 . S
C582 C579 1.526 . S
C582 C583 1.396 . S
C582 C587 1.390 . S
C583 C577 1.465 . S
C583 C582 1.396 . S
C583 C584 1.399 . S
C584 H570 0.929 . S
C584 C583 1.399 . S
C584 C585 1.385 . S
C585 H571 0.931 . S
C585 C584 1.385 . S
C585 C586 1.389 . S
C586 C585 1.389 . S
C586 C587 1.387 . S
C587 H572 0.930 . S
C587 C582 1.390 . S
C587 C586 1.387 . S
H588 C600 0.930 . S
H589 C602 0.930 . S
H590 C603 0.930 . S
H591 C607 0.959 . S
H592 C607 0.959 . S
H593 C607 0.961 . S
H594 C608 0.960 . S
H595 C608 0.961 . S
H596 C608 0.959 . S
H597 C611 0.929 . S
H598 C612 0.931 . S
H599 C614 0.930 . S
C600 H588 0.930 . S
C600 C601 1.399 . S
C600 C605 1.399 . S
C601 C600 1.399 . S
C601 C602 1.376 . S
C602 H589 0.930 . S
C602 C601 1.376 . S
C602 C603 1.388 . S
C603 H590 0.930 . S
C603 C602 1.388 . S
C603 C604 1.390 . S
C604 C603 1.390 . S
C604 C605 1.394 . S
C604 C610 1.465 . S
C605 C600 1.399 . S
C605 C604 1.394 . S
C605 C606 1.516 . S
C606 C605 1.516 . S
C606 C607 1.502 . S
C606 C608 1.561 . S
C606 C609 1.526 . S
C607 H591 0.959 . S
C607 H592 0.959 . S
C607 H593 0.961 . S
C607 C606 1.502 . S
C608 H594 0.960 . S
C608 H595 0.961 . S
C608 H596 0.959 . S
C608 C606 1.561 . S
C609 C606 1.526 . S
C609 C610 1.396 . S
C609 C614 1.390 . S
C610 C604 1.465 . S
C610 C609 1.396 . S
C610 C611 1.399 . S
C611 H597 0.929 . S
C611 C610 1.399 . S
C611 C612 1.385 . S
C612 H598 0.931 . S
C612 C611 1.385 . S
C612 C613 1.389 . S
C613 C612 1.389 . S
C613 C614 1.387 . S
C614 H599 0.930 . S
C614 C609 1.390 . S
C614 C613 1.387 . S
H615 C627 0.930 . S
H616 C629 0.930 . S
H617 C630 0.930 . S
H618 C634 0.959 . S
H619 C634 0.959 . S
H620 C634 0.961 . S
H621 C635 0.960 . S
H622 C635 0.961 . S
H623 C635 0.959 . S
H624 C638 0.929 . S
H625 C639 0.931 . S
H626 C641 0.930 . S
C627 H615 0.930 . S
C627 C628 1.399 . S
C627 C632 1.399 . S
C628 C627 1.399 . S
C628 C629 1.376 . S
C629 H616 0.930 . S
C629 C628 1.376 . S
C629 C630 1.388 . S
C630 H617 0.930 . S
C630 C629 1.388 . S
C630 C631 1.390 . S
C631 C630 1.390 . S
C631 C632 1.394 . S
C631 C637 1.465 . S
C632 C627 1.399 . S
C632 C631 1.394 . S
C632 C633 1.516 . S
C633 C632 1.516 . S
C633 C634 1.502 . S
C633 C635 1.561 . S
C633 C636 1.526 . S
C634 H618 0.959 . S
C634 H619 0.959 . S
C634 H620 0.961 . S
C634 C633 1.502 . S
C635 H621 0.960 . S
C635 H622 0.961 . S
C635 H623 0.959 . S
C635 C633 1.561 . S
C636 C633 1.526 . S
C636 C637 1.396 . S
C636 C641 1.390 . S
C637 C631 1.465 . S
C637 C636 1.396 . S
C637 C638 1.399 . S
C638 H624 0.929 . S
C638 C637 1.399 . S
C638 C639 1.385 . S
C639 H625 0.931 . S
C639 C638 1.385 . S
C639 C640 1.389 . S
C640 C639 1.389 . S
C640 C641 1.387 . S
C641 H626 0.930 . S
C641 C636 1.390 . S
C641 C640 1.387 . S
H642 C654 0.930 . S
H643 C656 0.930 . S
H644 C657 0.930 . S
H645 C661 0.959 . S
H646 C661 0.959 . S
H647 C661 0.961 . S
H648 C662 0.960 . S
H649 C662 0.961 . S
H650 C662 0.959 . S
H651 C665 0.929 . S
H652 C666 0.931 . S
H653 C668 0.930 . S
C654 H642 0.930 . S
C654 C655 1.399 . S
C654 C659 1.399 . S
C655 C654 1.399 . S
C655 C656 1.376 . S
C656 H643 0.930 . S
C656 C655 1.376 . S
C656 C657 1.388 . S
C657 H644 0.930 . S
C657 C656 1.388 . S
C657 C658 1.390 . S
C658 C657 1.390 . S
C658 C659 1.394 . S
C658 C664 1.465 . S
C659 C654 1.399 . S
C659 C658 1.394 . S
C659 C660 1.516 . S
C660 C659 1.516 . S
C660 C661 1.502 . S
C660 C662 1.561 . S
C660 C663 1.526 . S
C661 H645 0.959 . S
C661 H646 0.959 . S
C661 H647 0.961 . S
C661 C660 1.502 . S
C662 H648 0.960 . S
C662 H649 0.961 . S
C662 H650 0.959 . S
C662 C660 1.561 . S
C663 C660 1.526 . S
C663 C664 1.396 . S
C663 C668 1.390 . S
C664 C658 1.465 . S
C664 C663 1.396 . S
C664 C665 1.399 . S
C665 H651 0.929 . S
C665 C664 1.399 . S
C665 C666 1.385 . S
C666 H652 0.931 . S
C666 C665 1.385 . S
C666 C667 1.389 . S
C667 C666 1.389 . S
C667 C668 1.387 . S
C668 H653 0.930 . S
C668 C663 1.390 . S
C668 C667 1.387 . S
H669 C681 0.930 . S
H670 C683 0.930 . S
H671 C684 0.930 . S
H672 C688 0.959 . S
H673 C688 0.959 . S
H674 C688 0.961 . S
H675 C689 0.960 . S
H676 C689 0.961 . S
H677 C689 0.959 . S
H678 C692 0.929 . S
H679 C693 0.931 . S
H680 C695 0.930 . S
C681 H669 0.930 . S
C681 C682 1.399 . S
C681 C686 1.399 . S
C682 C681 1.399 . S
C682 C683 1.376 . S
C683 H670 0.930 . S
C683 C682 1.376 . S
C683 C684 1.388 . S
C684 H671 0.930 . S
C684 C683 1.388 . S
C684 C685 1.390 . S
C685 C684 1.390 . S
C685 C686 1.394 . S
C685 C691 1.465 . S
C686 C681 1.399 . S
C686 C685 1.394 . S
C686 C687 1.516 . S
C687 C686 1.516 . S
C687 C688 1.502 . S
C687 C689 1.561 . S
C687 C690 1.526 . S
C688 H672 0.959 . S
C688 H673 0.959 . S
C688 H674 0.961 . S
C688 C687 1.502 . S
C689 H675 0.960 . S
C689 H676 0.961 . S
C689 H677 0.959 . S
C689 C687 1.561 . S
C690 C687 1.526 . S
C690 C691 1.396 . S
C690 C695 1.390 . S
C691 C685 1.465 . S
C691 C690 1.396 . S
C691 C692 1.399 . S
C692 H678 0.929 . S
C692 C691 1.399 . S
C692 C693 1.385 . S
C693 H679 0.931 . S
C693 C692 1.385 . S
C693 C694 1.389 . S
C694 C693 1.389 . S
C694 C695 1.387 . S
C695 H680 0.930 . S
C695 C690 1.390 . S
C695 C694 1.387 . S
H696 C708 0.930 . S
H697 C710 0.930 . S
H698 C711 0.930 . S
H699 C715 0.959 . S
H700 C715 0.959 . S
H701 C715 0.961 . S
H702 C716 0.960 . S
H703 C716 0.961 . S
H704 C716 0.959 . S
H705 C719 0.929 . S
H706 C720 0.931 . S
H707 C722 0.930 . S
C708 H696 0.930 . S
C708 C709 1.399 . S
C708 C713 1.399 . S
C709 C708 1.399 . S
C709 C710 1.376 . S
C710 H697 0.930 . S
C710 C709 1.376 . S
C710 C711 1.388 . S
C711 H698 0.930 . S
C711 C710 1.388 . S
C711 C712 1.390 . S
C712 C711 1.390 . S
C712 C713 1.394 . S
C712 C718 1.465 . S
C713 C708 1.399 . S
C713 C712 1.394 . S
C713 C714 1.516 . S
C714 C713 1.516 . S
C714 C715 1.502 . S
C714 C716 1.561 . S
C714 C717 1.526 . S
C715 H699 0.959 . S
C715 H700 0.959 . S
C715 H701 0.961 . S
C715 C714 1.502 . S
C716 H702 0.960 . S
C716 H703 0.961 . S
C716 H704 0.959 . S
C716 C714 1.561 . S
C717 C714 1.526 . S
C717 C718 1.396 . S
C717 C722 1.390 . S
C718 C712 1.465 . S
C718 C717 1.396 . S
C718 C719 1.399 . S
C719 H705 0.929 . S
C719 C718 1.399 . S
C719 C720 1.385 . S
C720 H706 0.931 . S
C720 C719 1.385 . S
C720 C721 1.389 . S
C721 C720 1.389 . S
C721 C722 1.387 . S
C722 H707 0.930 . S
C722 C717 1.390 . S
C722 C721 1.387 . S
H723 C735 0.930 . S
H724 C737 0.930 . S
H725 C738 0.930 . S
H726 C742 0.959 . S
H727 C742 0.959 . S
H728 C742 0.961 . S
H729 C743 0.960 . S
H730 C743 0.961 . S
H731 C743 0.959 . S
H732 C746 0.929 . S
H733 C747 0.931 . S
H734 C749 0.930 . S
C735 H723 0.930 . S
C735 C736 1.399 . S
C735 C740 1.399 . S
C736 C735 1.399 . S
C736 C737 1.376 . S
C737 H724 0.930 . S
C737 C736 1.376 . S
C737 C738 1.388 . S
C738 H725 0.930 . S
C738 C737 1.388 . S
C738 C739 1.390 . S
C739 C738 1.390 . S
C739 C740 1.394 . S
C739 C745 1.465 . S
C740 C735 1.399 . S
C740 C739 1.394 . S
C740 C741 1.516 . S
C741 C740 1.516 . S
C741 C742 1.502 . S
C741 C743 1.561 . S
C741 C744 1.526 . S
C742 H726 0.959 . S
C742 H727 0.959 . S
C742 H728 0.961 . S
C742 C741 1.502 . S
C743 H729 0.960 . S
C743 H730 0.961 . S
C743 H731 0.959 . S
C743 C741 1.561 . S
C744 C741 1.526 . S
C744 C745 1.396 . S
C744 C749 1.390 . S
C745 C739 1.465 . S
C745 C744 1.396 . S
C745 C746 1.399 . S
C746 H732 0.929 . S
C746 C745 1.399 . S
C746 C747 1.385 . S
C747 H733 0.931 . S
C747 C746 1.385 . S
C747 C748 1.389 . S
C748 C747 1.389 . S
C748 C749 1.387 . S
C749 H734 0.930 . S
C749 C744 1.390 . S
C749 C748 1.387 . S
H750 C762 0.930 . S
H751 C764 0.930 . S
H752 C765 0.930 . S
H753 C769 0.959 . S
H754 C769 0.959 . S
H755 C769 0.961 . S
H756 C770 0.960 . S
H757 C770 0.961 . S
H758 C770 0.959 . S
H759 C773 0.929 . S
H760 C774 0.931 . S
H761 C776 0.930 . S
C762 H750 0.930 . S
C762 C763 1.399 . S
C762 C767 1.399 . S
C763 C762 1.399 . S
C763 C764 1.376 . S
C764 H751 0.930 . S
C764 C763 1.376 . S
C764 C765 1.388 . S
C765 H752 0.930 . S
C765 C764 1.388 . S
C765 C766 1.390 . S
C766 C765 1.390 . S
C766 C767 1.394 . S
C766 C772 1.465 . S
C767 C762 1.399 . S
C767 C766 1.394 . S
C767 C768 1.516 . S
C768 C767 1.516 . S
C768 C769 1.502 . S
C768 C770 1.561 . S
C768 C771 1.526 . S
C769 H753 0.959 . S
C769 H754 0.959 . S
C769 H755 0.961 . S
C769 C768 1.502 . S
C770 H756 0.960 . S
C770 H757 0.961 . S
C770 H758 0.959 . S
C770 C768 1.561 . S
C771 C768 1.526 . S
C771 C772 1.396 . S
C771 C776 1.390 . S
C772 C766 1.465 . S
C772 C771 1.396 . S
C772 C773 1.399 . S
C773 H759 0.929 . S
C773 C772 1.399 . S
C773 C774 1.385 . S
C774 H760 0.931 . S
C774 C773 1.385 . S
C774 C775 1.389 . S
C775 C774 1.389 . S
C775 C776 1.387 . S
C776 H761 0.930 . S
C776 C771 1.390 . S
C776 C775 1.387 . S
H777 C789 0.930 . S
H778 C791 0.930 . S
H779 C792 0.930 . S
H780 C796 0.959 . S
H781 C796 0.959 . S
H782 C796 0.961 . S
H783 C797 0.960 . S
H784 C797 0.961 . S
H785 C797 0.959 . S
H786 C800 0.929 . S
H787 C801 0.931 . S
H788 C803 0.930 . S
C789 H777 0.930 . S
C789 C790 1.399 . S
C789 C794 1.399 . S
C790 C789 1.399 . S
C790 C791 1.376 . S
C791 H778 0.930 . S
C791 C790 1.376 . S
C791 C792 1.388 . S
C792 H779 0.930 . S
C792 C791 1.388 . S
C792 C793 1.390 . S
C793 C792 1.390 . S
C793 C794 1.394 . S
C793 C799 1.465 . S
C794 C789 1.399 . S
C794 C793 1.394 . S
C794 C795 1.516 . S
C795 C794 1.516 . S
C795 C796 1.502 . S
C795 C797 1.561 . S
C795 C798 1.526 . S
C796 H780 0.959 . S
C796 H781 0.959 . S
C796 H782 0.961 . S
C796 C795 1.502 . S
C797 H783 0.960 . S
C797 H784 0.961 . S
C797 H785 0.959 . S
C797 C795 1.561 . S
C798 C795 1.526 . S
C798 C799 1.396 . S
C798 C803 1.390 . S
C799 C793 1.465 . S
C799 C798 1.396 . S
C799 C800 1.399 . S
C800 H786 0.929 . S
C800 C799 1.399 . S
C800 C801 1.385 . S
C801 H787 0.931 . S
C801 C800 1.385 . S
C801 C802 1.389 . S
C802 C801 1.389 . S
C802 C803 1.387 . S
C803 H788 0.930 . S
C803 C798 1.390 . S
C803 C802 1.387 . S
H804 C816 0.930 . S
H805 C818 0.930 . S
H806 C819 0.930 . S
H807 C823 0.959 . S
H808 C823 0.959 . S
H809 C823 0.961 . S
H810 C824 0.960 . S
H811 C824 0.961 . S
H812 C824 0.959 . S
H813 C827 0.929 . S
H814 C828 0.931 . S
H815 C830 0.930 . S
C816 H804 0.930 . S
C816 C817 1.399 . S
C816 C821 1.399 . S
C817 C816 1.399 . S
C817 C818 1.376 . S
C818 H805 0.930 . S
C818 C817 1.376 . S
C818 C819 1.388 . S
C819 H806 0.930 . S
C819 C818 1.388 . S
C819 C820 1.390 . S
C820 C819 1.390 . S
C820 C821 1.394 . S
C820 C826 1.465 . S
C821 C816 1.399 . S
C821 C820 1.394 . S
C821 C822 1.516 . S
C822 C821 1.516 . S
C822 C823 1.502 . S
C822 C824 1.561 . S
C822 C825 1.526 . S
C823 H807 0.959 . S
C823 H808 0.959 . S
C823 H809 0.961 . S
C823 C822 1.502 . S
C824 H810 0.960 . S
C824 H811 0.961 . S
C824 H812 0.959 . S
C824 C822 1.561 . S
C825 C822 1.526 . S
C825 C826 1.396 . S
C825 C830 1.390 . S
C826 C820 1.465 . S
C826 C825 1.396 . S
C826 C827 1.399 . S
C827 H813 0.929 . S
C827 C826 1.399 . S
C827 C828 1.385 . S
C828 H814 0.931 . S
C828 C827 1.385 . S
C828 C829 1.389 . S
C829 C828 1.389 . S
C829 C830 1.387 . S
C830 H815 0.930 . S
C830 C825 1.390 . S
C830 C829 1.387 . S
H831 C843 0.930 . S
H832 C845 0.930 . S
H833 C846 0.930 . S
H834 C850 0.959 . S
H835 C850 0.959 . S
H836 C850 0.961 . S
H837 C851 0.960 . S
H838 C851 0.961 . S
H839 C851 0.959 . S
H840 C854 0.929 . S
H841 C855 0.931 . S
H842 C857 0.930 . S
C843 H831 0.930 . S
C843 C844 1.399 . S
C843 C848 1.399 . S
C844 C843 1.399 . S
C844 C845 1.376 . S
C845 H832 0.930 . S
C845 C844 1.376 . S
C845 C846 1.388 . S
C846 H833 0.930 . S
C846 C845 1.388 . S
C846 C847 1.390 . S
C847 C846 1.390 . S
C847 C848 1.394 . S
C847 C853 1.465 . S
C848 C843 1.399 . S
C848 C847 1.394 . S
C848 C849 1.516 . S
C849 C848 1.516 . S
C849 C850 1.502 . S
C849 C851 1.561 . S
C849 C852 1.526 . S
C850 H834 0.959 . S
C850 H835 0.959 . S
C850 H836 0.961 . S
C850 C849 1.502 . S
C851 H837 0.960 . S
C851 H838 0.961 . S
C851 H839 0.959 . S
C851 C849 1.561 . S
C852 C849 1.526 . S
C852 C853 1.396 . S
C852 C857 1.390 . S
C853 C847 1.465 . S
C853 C852 1.396 . S
C853 C854 1.399 . S
C854 H840 0.929 . S
C854 C853 1.399 . S
C854 C855 1.385 . S
C855 H841 0.931 . S
C855 C854 1.385 . S
C855 C856 1.389 . S
C856 C855 1.389 . S
C856 C857 1.387 . S
C857 H842 0.930 . S
C857 C852 1.390 . S
C857 C856 1.387 . S
H858 C870 0.930 . S
H859 C872 0.930 . S
H860 C873 0.930 . S
H861 C877 0.959 . S
H862 C877 0.959 . S
H863 C877 0.961 . S
H864 C878 0.960 . S
H865 C878 0.961 . S
H866 C878 0.959 . S
H867 C881 0.929 . S
H868 C882 0.931 . S
H869 C884 0.930 . S
C870 H858 0.930 . S
C870 C871 1.399 . S
C870 C875 1.399 . S
C871 C870 1.399 . S
C871 C872 1.376 . S
C872 H859 0.930 . S
C872 C871 1.376 . S
C872 C873 1.388 . S
C873 H860 0.930 . S
C873 C872 1.388 . S
C873 C874 1.390 . S
C874 C873 1.390 . S
C874 C875 1.394 . S
C874 C880 1.465 . S
C875 C870 1.399 . S
C875 C874 1.394 . S
C875 C876 1.516 . S
C876 C875 1.516 . S
C876 C877 1.502 . S
C876 C878 1.561 . S
C876 C879 1.526 . S
C877 H861 0.959 . S
C877 H862 0.959 . S
C877 H863 0.961 . S
C877 C876 1.502 . S
C878 H864 0.960 . S
C878 H865 0.961 . S
C878 H866 0.959 . S
C878 C876 1.561 . S
C879 C876 1.526 . S
C879 C880 1.396 . S
C879 C884 1.390 . S
C880 C874 1.465 . S
C880 C879 1.396 . S
C880 C881 1.399 . S
C881 H867 0.929 . S
C881 C880 1.399 . S
C881 C882 1.385 . S
C882 H868 0.931 . S
C882 C881 1.385 . S
C882 C883 1.389 . S
C883 C882 1.389 . S
C883 C884 1.387 . S
C884 H869 0.930 . S
C884 C879 1.390 . S
C884 C883 1.387 . S
H885 C897 0.930 . S
H886 C899 0.930 . S
H887 C900 0.930 . S
H888 C904 0.959 . S
H889 C904 0.959 . S
H890 C904 0.961 . S
H891 C905 0.960 . S
H892 C905 0.961 . S
H893 C905 0.959 . S
H894 C908 0.929 . S
H895 C909 0.931 . S
H896 C911 0.930 . S
C897 H885 0.930 . S
C897 C898 1.399 . S
C897 C902 1.399 . S
C898 C897 1.399 . S
C898 C899 1.376 . S
C899 H886 0.930 . S
C899 C898 1.376 . S
C899 C900 1.388 . S
C900 H887 0.930 . S
C900 C899 1.388 . S
C900 C901 1.390 . S
C901 C900 1.390 . S
C901 C902 1.394 . S
C901 C907 1.465 . S
C902 C897 1.399 . S
C902 C901 1.394 . S
C902 C903 1.516 . S
C903 C902 1.516 . S
C903 C904 1.502 . S
C903 C905 1.561 . S
C903 C906 1.526 . S
C904 H888 0.959 . S
C904 H889 0.959 . S
C904 H890 0.961 . S
C904 C903 1.502 . S
C905 H891 0.960 . S
C905 H892 0.961 . S
C905 H893 0.959 . S
C905 C903 1.561 . S
C906 C903 1.526 . S
C906 C907 1.396 . S
C906 C911 1.390 . S
C907 C901 1.465 . S
C907 C906 1.396 . S
C907 C908 1.399 . S
C908 H894 0.929 . S
C908 C907 1.399 . S
C908 C909 1.385 . S
C909 H895 0.931 . S
C909 C908 1.385 . S
C909 C910 1.389 . S
C910 C909 1.389 . S
C910 C911 1.387 . S
C911 H896 0.930 . S
C911 C906 1.390 . S
C911 C910 1.387 . S
H912 C924 0.930 . S
H913 C926 0.930 . S
H914 C927 0.930 . S
H915 C931 0.959 . S
H916 C931 0.959 . S
H917 C931 0.961 . S
H918 C932 0.960 . S
H919 C932 0.961 . S
H920 C932 0.959 . S
H921 C935 0.929 . S
H922 C936 0.931 . S
H923 C938 0.930 . S
C924 H912 0.930 . S
C924 C925 1.399 . S
C924 C929 1.399 . S
C925 C924 1.399 . S
C925 C926 1.376 . S
C926 H913 0.930 . S
C926 C925 1.376 . S
C926 C927 1.388 . S
C927 H914 0.930 . S
C927 C926 1.388 . S
C927 C928 1.390 . S
C928 C927 1.390 . S
C928 C929 1.394 . S
C928 C934 1.465 . S
C929 C924 1.399 . S
C929 C928 1.394 . S
C929 C930 1.516 . S
C930 C929 1.516 . S
C930 C931 1.502 . S
C930 C932 1.561 . S
C930 C933 1.526 . S
C931 H915 0.959 . S
C931 H916 0.959 . S
C931 H917 0.961 . S
C931 C930 1.502 . S
C932 H918 0.960 . S
C932 H919 0.961 . S
C932 H920 0.959 . S
C932 C930 1.561 . S
C933 C930 1.526 . S
C933 C934 1.396 . S
C933 C938 1.390 . S
C934 C928 1.465 . S
C934 C933 1.396 . S
C934 C935 1.399 . S
C935 H921 0.929 . S
C935 C934 1.399 . S
C935 C936 1.385 . S
C936 H922 0.931 . S
C936 C935 1.385 . S
C936 C937 1.389 . S
C937 C936 1.389 . S
C937 C938 1.387 . S
C938 H923 0.930 . S
C938 C933 1.390 . S
C938 C937 1.387 . S
H939 C951 0.930 . S
H940 C953 0.930 . S
H941 C954 0.930 . S
H942 C958 0.959 . S
H943 C958 0.959 . S
H944 C958 0.961 . S
H945 C959 0.960 . S
H946 C959 0.961 . S
H947 C959 0.959 . S
H948 C962 0.929 . S
H949 C963 0.931 . S
H950 C965 0.930 . S
C951 H939 0.930 . S
C951 C952 1.399 . S
C951 C956 1.399 . S
C952 C951 1.399 . S
C952 C953 1.376 . S
C953 H940 0.930 . S
C953 C952 1.376 . S
C953 C954 1.388 . S
C954 H941 0.930 . S
C954 C953 1.388 . S
C954 C955 1.390 . S
C955 C954 1.390 . S
C955 C956 1.394 . S
C955 C961 1.465 . S
C956 C951 1.399 . S
C956 C955 1.394 . S
C956 C957 1.516 . S
C957 C956 1.516 . S
C957 C958 1.502 . S
C957 C959 1.561 . S
C957 C960 1.526 . S
C958 H942 0.959 . S
C958 H943 0.959 . S
C958 H944 0.961 . S
C958 C957 1.502 . S
C959 H945 0.960 . S
C959 H946 0.961 . S
C959 H947 0.959 . S
C959 C957 1.561 . S
C960 C957 1.526 . S
C960 C961 1.396 . S
C960 C965 1.390 . S
C961 C955 1.465 . S
C961 C960 1.396 . S
C961 C962 1.399 . S
C962 H948 0.929 . S
C962 C961 1.399 . S
C962 C963 1.385 . S
C963 H949 0.931 . S
C963 C962 1.385 . S
C963 C964 1.389 . S
C964 C963 1.389 . S
C964 C965 1.387 . S
C965 H950 0.930 . S
C965 C960 1.390 . S
C965 C964 1.387 . S
H966 C978 0.930 . S
H967 C980 0.930 . S
H968 C981 0.930 . S
H969 C985 0.959 . S
H970 C985 0.959 . S
H971 C985 0.961 . S
H972 C986 0.960 . S
H973 C986 0.961 . S
H974 C986 0.959 . S
H975 C989 0.929 . S
H976 C990 0.931 . S
H977 C992 0.930 . S
C978 H966 0.930 . S
C978 C979 1.399 . S
C978 C983 1.399 . S
C979 C978 1.399 . S
C979 C980 1.376 . S
C980 H967 0.930 . S
C980 C979 1.376 . S
C980 C981 1.388 . S
C981 H968 0.930 . S
C981 C980 1.388 . S
C981 C982 1.390 . S
C982 C981 1.390 . S
C982 C983 1.394 . S
C982 C988 1.465 . S
C983 C978 1.399 . S
C983 C982 1.394 . S
C983 C984 1.516 . S
C984 C983 1.516 . S
C984 C985 1.502 . S
C984 C986 1.561 . S
C984 C987 1.526 . S
C985 H969 0.959 . S
C985 H970 0.959 . S
C985 H971 0.961 . S
C985 C984 1.502 . S
C986 H972 0.960 . S
C986 H973 0.961 . S
C986 H974 0.959 . S
C986 C984 1.561 . S
C987 C984 1.526 . S
C987 C988 1.396 . S
C987 C992 1.390 . S
C988 C982 1.465 . S
C988 C987 1.396 . S
C988 C989 1.399 . S
C989 H975 0.929 . S
C989 C988 1.399 . S
C989 C990 1.385 . S
C990 H976 0.931 . S
C990 C989 1.385 . S
C990 C991 1.389 . S
C991 C990 1.389 . S
C991 C992 1.387 . S
C992 H977 0.930 . S
C992 C987 1.390 . S
C992 C991 1.387 . S
H993 C1005 0.930 . S
H994 C1007 0.930 . S
H995 C1008 0.930 . S
H996 C1012 0.959 . S
H997 C1012 0.959 . S
H998 C1012 0.961 . S
H999 C1013 0.960 . S
H1000 C1013 0.961 . S
H1001 C1013 0.959 . S
H1002 C1016 0.929 . S
H1003 C1017 0.931 . S
H1004 C1019 0.930 . S
C1005 H993 0.930 . S
C1005 C1006 1.399 . S
C1005 C1010 1.399 . S
C1006 C1005 1.399 . S
C1006 C1007 1.376 . S
C1007 H994 0.930 . S
C1007 C1006 1.376 . S
C1007 C1008 1.388 . S
C1008 H995 0.930 . S
C1008 C1007 1.388 . S
C1008 C1009 1.390 . S
C1009 C1008 1.390 . S
C1009 C1010 1.394 . S
C1009 C1015 1.465 . S
C1010 C1005 1.399 . S
C1010 C1009 1.394 . S
C1010 C1011 1.516 . S
C1011 C1010 1.516 . S
C1011 C1012 1.502 . S
C1011 C1013 1.561 . S
C1011 C1014 1.526 . S
C1012 H996 0.959 . S
C1012 H997 0.959 . S
C1012 H998 0.961 . S
C1012 C1011 1.502 . S
C1013 H999 0.960 . S
C1013 H1000 0.961 . S
C1013 H1001 0.959 . S
C1013 C1011 1.561 . S
C1014 C1011 1.526 . S
C1014 C1015 1.396 . S
C1014 C1019 1.390 . S
C1015 C1009 1.465 . S
C1015 C1014 1.396 . S
C1015 C1016 1.399 . S
C1016 H1002 0.929 . S
C1016 C1015 1.399 . S
C1016 C1017 1.385 . S
C1017 H1003 0.931 . S
C1017 C1016 1.385 . S
C1017 C1018 1.389 . S
C1018 C1017 1.389 . S
C1018 C1019 1.387 . S
C1019 H1004 0.930 . S
C1019 C1014 1.390 . S
C1019 C1018 1.387 . S
C385 C13 1.745 . S
C397 C105 1.693 . S
C412 C27 1.716 . S
C424 C162 1.736 . S
C451 C216 1.718 . S
C439 C29 1.719 . S
C478 C273 1.624 . S
C466 C54 1.743 . S
C505 C297 1.709 . S
C493 C69 1.738 . S
C532 C354 1.727 . S
C520 C83 1.734 . S
C547 C15 1.741 . S
C559 C201 1.698 . S
C574 C41 1.713 . S
C586 C258 1.741 . S
C613 C312 1.720 . S
C601 C42 1.719 . S
C640 C369 1.677 . S
C628 C57 1.718 . S
C655 C71 1.723 . S
C667 C120 1.708 . S
C694 C177 1.691 . S
C682 C1 1.714 . S
C721 C264 1.737 . S
C709 C12 1.721 . S
C736 C26 1.726 . S
C748 C306 1.676 . S
C775 C345 1.692 . S
C763 C28 1.739 . S
C790 C55 1.717 . S
C802 C114 1.695 . S
C817 C68 1.744 . S
C829 C153 1.680 . S
C844 C82 1.734 . S
C856 C225 1.724 . S
C871 C14 1.719 . S
C883 C360 1.735 . S
C910 C129 1.739 . S
C898 C40 1.720 . S
C925 C43 1.740 . S
C937 C168 1.694 . S
C952 C56 1.714 . S
C964 C210 1.699 . S
C979 C70 1.731 . S
C991 C249 1.709 . S
C1006 C0 1.724 . S
C1018 C321 1.727 . S
