# Generated by pormake.
# Topology zzz, (3,6)-cn, num edge types: 1
# Building blocks:
#     Node 0, Type 0, BuildingBlock: BETDIP_clean_linker_0, # of connection points: 3
#     Node 1, Type 0, BuildingBlock: BETDIP_clean_linker_0, # of connection points: 3
#     Node 2, Type 0, BuildingBlock: BETDIP_clean_linker_0, # of connection points: 3
#     Node 3, Type 0, BuildingBlock: BETDIP_clean_linker_0, # of connection points: 3
#     Node 4, Type 0, BuildingBlock: BETDIP_clean_linker_0, # of connection points: 3
#     Node 5, Type 0, BuildingBlock: BETDIP_clean_linker_0, # of connection points: 3
#     Node 6, Type 0, BuildingBlock: BETDIP_clean_linker_0, # of connection points: 3
#     Node 7, Type 0, BuildingBlock: BETDIP_clean_linker_0, # of connection points: 3
#     Node 8, Type 1, BuildingBlock: NUHQIS_clean_sbu_0, # of connection points: 6
#     Node 9, Type 1, BuildingBlock: NUHQIS_clean_sbu_0, # of connection points: 6
#     Node 10, Type 1, BuildingBlock: NUHQIS_clean_sbu_0, # of connection points: 6
#     Node 11, Type 1, BuildingBlock: NUHQIS_clean_sbu_0, # of connection points: 6
#     Edge 12, Type (0, 1), BuildingBlock: UVAHIK_clean_linker_0, # of connection points: 2
#     Edge 13, Type (0, 1), BuildingBlock: UVAHIK_clean_linker_0, # of connection points: 2
#     Edge 14, Type (0, 1), BuildingBlock: UVAHIK_clean_linker_0, # of connection points: 2
#     Edge 15, Type (0, 1), BuildingBlock: UVAHIK_clean_linker_0, # of connection points: 2
#     Edge 16, Type (0, 1), BuildingBlock: UVAHIK_clean_linker_0, # of connection points: 2
#     Edge 17, Type (0, 1), BuildingBlock: UVAHIK_clean_linker_0, # of connection points: 2
#     Edge 18, Type (0, 1), BuildingBlock: UVAHIK_clean_linker_0, # of connection points: 2
#     Edge 19, Type (0, 1), BuildingBlock: UVAHIK_clean_linker_0, # of connection points: 2
#     Edge 20, Type (0, 1), BuildingBlock: UVAHIK_clean_linker_0, # of connection points: 2
#     Edge 21, Type (0, 1), BuildingBlock: UVAHIK_clean_linker_0, # of connection points: 2
#     Edge 22, Type (0, 1), BuildingBlock: UVAHIK_clean_linker_0, # of connection points: 2
#     Edge 23, Type (0, 1), BuildingBlock: UVAHIK_clean_linker_0, # of connection points: 2
#     Edge 24, Type (0, 1), BuildingBlock: UVAHIK_clean_linker_0, # of connection points: 2
#     Edge 25, Type (0, 1), BuildingBlock: UVAHIK_clean_linker_0, # of connection points: 2
#     Edge 26, Type (0, 1), BuildingBlock: UVAHIK_clean_linker_0, # of connection points: 2
#     Edge 27, Type (0, 1), BuildingBlock: UVAHIK_clean_linker_0, # of connection points: 2
#     Edge 28, Type (0, 1), BuildingBlock: UVAHIK_clean_linker_0, # of connection points: 2
#     Edge 29, Type (0, 1), BuildingBlock: UVAHIK_clean_linker_0, # of connection points: 2
#     Edge 30, Type (0, 1), BuildingBlock: UVAHIK_clean_linker_0, # of connection points: 2
#     Edge 31, Type (0, 1), BuildingBlock: UVAHIK_clean_linker_0, # of connection points: 2
#     Edge 32, Type (0, 1), BuildingBlock: UVAHIK_clean_linker_0, # of connection points: 2
#     Edge 33, Type (0, 1), BuildingBlock: UVAHIK_clean_linker_0, # of connection points: 2
#     Edge 34, Type (0, 1), BuildingBlock: UVAHIK_clean_linker_0, # of connection points: 2
#     Edge 35, Type (0, 1), BuildingBlock: UVAHIK_clean_linker_0, # of connection points: 2
# Relax obj value: 0.208
# Max RMSD: 0.141
# Mean RMSD: 0.134
data_MOF--net-zzz--node1-NUHQIS_clean_sbu_0--node2-BETDIP_clean_linker_0--edge1-UVAHIK_clean_linker_0
_symmetry_space_group_name_H-M    P1
_symmetry_Int_Tables_number       1
_symmetry_cell_setting            triclinic
loop_
_symmetry_equiv_pos_as_xyz
'x, y, z'
_cell_length_a     68.060501
_cell_length_b     67.955882
_cell_length_c     17.824586
_cell_angle_alpha  89.878366
_cell_angle_beta   90.026576
_cell_angle_gamma 89.970352
loop_
_atom_site_label
_atom_site_type_symbol
_atom_site_fract_x
_atom_site_fract_y
_atom_site_fract_z
_atom_type_partial_charge
H0 H 0.76083 0.52458 0.42341 0.0
H1 H 0.74225 0.51198 0.19729 0.0
H2 H 0.80371 0.51324 0.25104 0.0
H3 H 0.72581 0.5511 0.28565 0.0
C4 C 0.71838 0.53721 0.29629 0.0
C5 C 0.76441 0.521 0.36584 0.0
C6 C 0.78426 0.51939 0.34342 0.0
C7 C 0.74925 0.51886 0.31228 0.0
C8 C 0.75392 0.51404 0.23798 0.0
C9 C 0.77349 0.51195 0.21603 0.0
C10 C 0.78852 0.51494 0.26841 0.0
N11 N 0.72924 0.52187 0.33157 0.0
H12 H 1.00251 0.75283 0.37394 0.0
H13 H 0.00897 0.74157 0.13726 0.0
H14 H 0.01677 0.80012 0.22233 0.0
H15 H 0.97371 0.7224 0.20808 0.0
C16 C 0.98695 0.7145 0.22438 0.0
C17 C 1.00546 0.75812 0.31768 0.0
C18 C 0.00961 0.77821 0.30531 0.0
C19 C 1.00504 0.74488 0.25671 0.0
C20 C 0.009 0.75177 0.18395 0.0
C21 C 0.0132 0.77165 0.17137 0.0
C22 C 0.01344 0.78471 0.23208 0.0
N23 N 1.00129 0.72452 0.26808 0.0
H24 H 0.76391 0.99685 0.37777 0.0
H25 H 0.77637 0.01287 0.14847 0.0
H26 H 0.71683 0.01273 0.22808 0.0
H27 H 0.79326 0.97319 0.21212 0.0
C28 C 0.80203 0.98567 0.23032 0.0
C29 C 0.75887 1.00176 0.32321 0.0
C30 C 0.73862 1.00435 0.30959 0.0
C31 C 0.77249 1.0045 0.26433 0.0
C32 C 0.76588 0.01067 0.19344 0.0
C33 C 0.74585 0.01367 0.18017 0.0
C34 C 0.73238 0.01039 0.23825 0.0
N35 N 0.79278 1.00041 0.27454 0.0
H36 H 0.51772 0.75936 0.37512 0.0
H37 H 0.47872 0.77122 0.18961 0.0
H38 H 0.46953 0.72028 0.32698 0.0
H39 H 0.51432 0.77767 0.14421 0.0
C40 C 0.51446 0.78945 0.18546 0.0
C41 C 0.50487 0.75556 0.34233 0.0
C42 C 0.494 0.73844 0.35989 0.0
C43 C 0.4994 0.76748 0.28072 0.0
C44 C 0.48297 0.76223 0.23723 0.0
C45 C 0.47195 0.74548 0.25484 0.0
C46 C 0.47749 0.73381 0.31613 0.0
N47 N 0.51043 0.78461 0.26177 0.0
H48 H 0.26705 0.49383 0.07384 0.0
H49 H 0.28085 0.53325 0.25617 0.0
H50 H 0.22128 0.52719 0.18172 0.0
H51 H 0.30942 0.53615 0.15291 0.0
C52 C 0.31197 0.52107 0.17103 0.0
C53 C 0.26243 0.50445 0.11551 0.0
C54 C 0.24242 0.50974 0.12123 0.0
C55 C 0.27646 0.51303 0.16395 0.0
C56 C 0.27031 0.52686 0.21772 0.0
C57 C 0.25044 0.5317 0.22463 0.0
C58 C 0.23666 0.52316 0.17652 0.0
N59 N 0.29654 0.50715 0.16139 0.0
H60 H 0.02458 0.25682 0.04863 0.0
H61 H 1.00139 0.26806 0.26954 0.0
H62 H 1.00736 0.20868 0.19139 0.0
H63 H 0.98572 0.29397 0.17563 0.0
C64 C 1.00087 0.29901 0.17256 0.0
C65 C 0.01884 0.25144 0.10149 0.0
C66 C 0.01678 0.23102 0.11371 0.0
C67 C 0.01315 0.26491 0.15765 0.0
C68 C 1.0055 0.25781 0.22578 0.0
C69 C 1.00367 0.23758 0.23873 0.0
C70 C 0.00936 0.22435 0.18255 0.0
N71 N 0.01542 0.28555 0.14678 0.0
H72 H 0.25833 0.01309 0.01997 0.0
H73 H 0.23907 1.00162 0.24631 0.0
H74 H 0.3006 1.00487 0.19748 0.0
H75 H 0.21957 0.97773 0.13171 0.0
C76 C 0.21358 0.99257 0.13053 0.0
C77 C 0.26176 0.0107 0.07864 0.0
C78 C 0.28154 1.00904 0.10208 0.0
C79 C 0.24638 1.00783 0.13077 0.0
C80 C 0.25084 1.00396 0.20631 0.0
C81 C 0.27032 1.00321 0.2306 0.0
C82 C 0.28548 1.00594 0.17856 0.0
N83 N 0.22638 1.00802 0.10769 0.0
H84 H 0.49875 0.25206 0.0163 0.0
H85 H 0.50315 0.2356 0.24973 0.0
H86 H 0.49914 0.29644 0.18836 0.0
H87 H 0.532 0.2173 0.14995 0.0
C88 C 0.51798 0.20989 0.14224 0.0
C89 C 0.4987 0.25612 0.07502 0.0
C90 C 0.49864 0.27619 0.09576 0.0
C91 C 0.50032 0.24137 0.13095 0.0
C92 C 0.50137 0.24679 0.20684 0.0
C93 C 0.50051 0.26655 0.22759 0.0
C94 C 0.49889 0.28105 0.17211 0.0
N95 N 0.50219 0.22114 0.11188 0.0
Tb96 Tb 0.02407 0.99936 0.75999 0.0
Eu97 Eu 0.99552 0.01392 0.62371 0.0
C98 C 0.04134 1.00782 0.60013 0.0
C99 C 0.01321 0.04449 0.74315 0.0
C100 C 0.05823 0.96649 0.85049 0.0
C101 C 0.06984 0.93949 0.77297 0.0
C102 C 0.06399 0.95907 0.7803 0.0
C103 C 0.05957 0.95441 0.91393 0.0
C104 C 0.06533 0.93478 0.90664 0.0
C105 C 0.06984 0.9269 0.83559 0.0
C106 C 0.04742 0.98518 0.85502 0.0
O107 O 0.99677 1.00738 0.81666 0.0
O108 O 0.97607 1.00302 0.71695 0.0
O109 O 1.00323 0.98253 0.59524 0.0
O110 O 0.01064 0.97262 0.71502 0.0
C111 C 0.97901 1.0049 0.78932 0.0
O112 O 0.96732 0.01272 0.56529 0.0
O113 O 0.99008 0.03235 0.5257 0.0
O114 O 0.02665 0.01975 0.58643 0.0
O115 O 0.04048 0.9953 0.65609 0.0
O116 O 0.02682 0.03145 0.76046 0.0
O117 O 0.99791 0.03974 0.70215 0.0
C118 C 1.0065 0.9685 0.64463 0.0
O119 O 0.05242 0.99877 0.80686 0.0
O120 O 0.02841 0.98314 0.85895 0.0
C121 C 0.95816 0.04469 0.52703 0.0
C122 C 0.94105 0.08219 0.54328 0.0
C123 C 0.94181 0.06912 0.60448 0.0
C124 C 0.95044 0.05058 0.59656 0.0
C125 C 0.95601 0.057 0.4646 0.0
C126 C 0.94755 0.07559 0.47256 0.0
C127 C 0.97151 0.02776 0.5227 0.0
H128 H 0.07344 0.93397 0.7177 0.0
H129 H 0.0629 0.96806 0.73025 0.0
H130 H 0.0549 0.95977 0.9683 0.0
H131 H 0.06487 0.92547 0.95598 0.0
H132 H 0.93672 0.07359 0.65941 0.0
H133 H 0.95213 0.04136 0.64583 0.0
H134 H 0.96212 0.0528 0.41082 0.0
H135 H 0.94754 0.08528 0.4243 0.0
Tb136 Tb 0.51754 0.02063 0.77176 0.0
Eu137 Eu 0.50266 0.99122 0.63938 0.0
C138 C 0.50688 0.03704 0.61289 0.0
C139 C 0.47236 0.01029 0.75807 0.0
C140 C 0.54982 0.05527 0.86404 0.0
C141 C 0.57651 0.0687 0.78919 0.0
C142 C 0.55727 0.06172 0.79469 0.0
C143 C 0.56149 0.05686 0.92835 0.0
C144 C 0.58079 0.06369 0.92283 0.0
C145 C 0.58874 0.06909 0.85273 0.0
C146 C 0.53147 0.04393 0.86725 0.0
O147 O 0.51065 0.99245 0.82548 0.0
O148 O 0.51903 0.97349 0.72574 0.0
O149 O 0.5341 0.99731 0.6081 0.0
O150 O 0.54475 0.00952 0.7217 0.0
C151 C 0.516 0.97535 0.79791 0.0
O152 O 0.49344 0.9616 0.60887 0.0
O153 O 0.49306 0.98467 0.52506 0.0
O154 O 0.4948 0.0222 0.60401 0.0
O155 O 0.52021 0.03656 0.666 0.0
O156 O 0.48557 0.02365 0.77567 0.0
O157 O 0.4769 0.99491 0.71727 0.0
C158 C 0.54827 1.00297 0.65343 0.0
O159 O 0.51786 0.0489 0.81922 0.0
O160 O 0.53395 0.02492 0.87004 0.0
C161 C 0.46571 0.96356 0.53368 0.0
C162 C 0.42542 0.95493 0.54416 0.0
C163 C 0.43866 0.94065 0.51764 0.0
C164 C 0.45877 0.94491 0.5131 0.0
C165 C 0.45235 0.97801 0.55721 0.0
C166 C 0.43241 0.97374 0.56235 0.0
C167 C 0.4868 0.96715 0.54366 0.0
H168 H 0.58205 0.07297 0.73459 0.0
H169 H 0.54859 0.06043 0.74398 0.0
H170 H 0.5561 0.05169 0.98207 0.0
H171 H 0.58981 0.06344 0.97285 0.0
H172 H 0.43354 0.92608 0.50282 0.0
H173 H 0.46894 0.93348 0.49616 0.0
H174 H 0.45741 0.99242 0.57447 0.0
H175 H 0.42245 0.98513 0.58134 0.0
Tb176 Tb 0.49828 0.51761 0.81696 0.0
Eu177 Eu 0.52748 0.50404 0.68181 0.0
C178 C 0.48148 0.50733 0.65794 0.0
C179 C 0.50796 0.47215 0.79514 0.0
C180 C 0.46383 0.54911 0.91968 0.0
C181 C 0.43267 0.56608 0.93642 0.0
C182 C 0.44354 0.54861 0.93346 0.0
C183 C 0.47303 0.56734 0.90773 0.0
C184 C 0.46227 0.58474 0.91145 0.0
C185 C 0.44195 0.58441 0.92606 0.0
C186 C 0.47514 0.53064 0.91519 0.0
O187 O 0.52618 0.5096 0.86943 0.0
O188 O 0.54526 0.51908 0.7714 0.0
O189 O 0.52006 0.53542 0.6535 0.0
O190 O 0.51015 0.54519 0.77104 0.0
C191 C 0.54331 0.51513 0.84296 0.0
O192 O 0.55698 0.49445 0.6517 0.0
O193 O 0.53481 0.49735 0.56527 0.0
O194 O 0.49674 0.49599 0.64546 0.0
O195 O 0.48182 0.52028 0.7125 0.0
O196 O 0.49544 0.48552 0.81917 0.0
O197 O 0.52277 0.47672 0.75128 0.0
C198 C 0.5154 0.54931 0.7015 0.0
O199 O 0.46978 0.51848 0.8626 0.0
O200 O 0.49422 0.53226 0.91912 0.0
C201 C 0.55464 0.46901 0.56595 0.0
C202 C 0.56109 0.42821 0.55894 0.0
C203 C 0.57627 0.44139 0.5405 0.0
C204 C 0.5731 0.46174 0.54468 0.0
C205 C 0.53938 0.45582 0.58223 0.0
C206 C 0.54256 0.43565 0.57861 0.0
C207 C 0.55184 0.48986 0.58355 0.0
H208 H 0.41703 0.56522 0.94698 0.0
H209 H 0.43611 0.53468 0.94187 0.0
H210 H 0.48863 0.56822 0.89613 0.0
H211 H 0.47009 0.59851 0.90488 0.0
H212 H 0.59064 0.43597 0.52455 0.0
H213 H 0.58513 0.47174 0.53342 0.0
H214 H 0.5251 0.4611 0.60001 0.0
H215 H 0.53044 0.42585 0.59117 0.0
Tb216 Tb 0.01007 0.49245 0.75832 0.0
Eu217 Eu 0.02566 0.52304 0.63085 0.0
C218 C 0.02275 0.47698 0.60188 0.0
C219 C 0.05567 0.50249 0.7502 0.0
C220 C 0.97228 0.47059 0.8675 0.0
C221 C 0.94199 0.45376 0.89983 0.0
C222 C 0.96257 0.45403 0.89609 0.0
C223 C 0.96129 0.48686 0.84324 0.0
C224 C 0.94091 0.48649 0.84575 0.0
C225 C 0.93092 0.46996 0.87393 0.0
C226 C 0.99343 0.47037 0.85189 0.0
O227 O 1.00182 0.52235 0.79193 0.0
O228 O 0.02834 0.5379 0.7428 0.0
O229 O 0.99251 0.52609 0.63022 0.0
O230 O 0.98538 0.49611 0.68175 0.0
C231 C 0.01413 0.53723 0.79203 0.0
O232 O 0.02571 0.55271 0.5838 0.0
O233 O 0.04236 0.52953 0.52964 0.0
O234 O 0.01851 0.49432 0.57359 0.0
O235 O 0.02532 0.47484 0.67448 0.0
O236 O 0.04067 0.4965 0.7911 0.0
O237 O 0.05332 0.51066 0.68365 0.0
C238 C 0.97988 0.51206 0.64584 0.0
O239 O 0.99772 0.46494 0.78386 0.0
O240 O 1.00295 0.48628 0.87078 0.0
C241 C 0.0559 0.56125 0.52925 0.0
C242 C 0.09052 0.58361 0.51554 0.0
C243 C 0.07476 0.58648 0.46545 0.0
C244 C 0.0576 0.57532 0.47219 0.0
C245 C 0.07109 0.55905 0.58174 0.0
C246 C 0.08827 0.5701 0.57487 0.0
C247 C 0.03867 0.54837 0.53251 0.0
H248 H 0.93478 0.44088 0.9227 0.0
H249 H 0.97084 0.44122 0.91392 0.0
H250 H 0.96846 0.49966 0.81958 0.0
H251 H 0.933 0.49904 0.82345 0.0
H252 H 0.07593 0.59694 0.41972 0.0
H253 H 0.04588 0.57731 0.43171 0.0
H254 H 0.06992 0.5483 0.62651 0.0
H255 H 0.10017 0.56725 0.61378 0.0
C256 C 0.18631 0.01482 0.17738 0.0
C257 C 0.19527 0.99619 0.1737 0.0
C258 C 0.1695 0.01769 0.22191 0.0
C259 C 0.14489 0.99775 0.38864 0.0
H260 H 0.09713 0.02148 0.31188 0.0
C261 C 0.07237 0.99216 0.55326 0.0
C262 C 0.05886 1.00779 0.55028 0.0
C263 C 0.08896 0.99202 0.50699 0.0
C264 C 0.11043 0.01512 0.33486 0.0
H265 H 0.19364 0.96605 0.21286 0.0
H266 H 0.16471 0.97113 0.29112 0.0
H267 H 0.12626 0.01956 0.23184 0.0
H268 H 0.05233 0.03563 0.49619 0.0
H269 H 0.08159 0.03571 0.41695 0.0
H270 H 0.1295 0.99355 0.4918 0.0
C271 C 0.17055 0.98349 0.2598 0.0
C272 C 0.1271 0.01398 0.28872 0.0
C273 C 0.18705 0.98056 0.21464 0.0
C274 C 0.06238 0.02331 0.49969 0.0
C275 C 0.07915 0.02329 0.45388 0.0
C276 C 0.12838 0.99911 0.43499 0.0
C277 C 0.16164 1.00209 0.26446 0.0
C278 C 0.1444 1.00495 0.31473 0.0
C279 C 0.09274 1.00765 0.45695 0.0
C280 C 0.11074 1.00745 0.40846 0.0
H281 H 0.19233 0.02714 0.14639 0.0
H282 H 0.16294 0.0322 0.22454 0.0
H283 H 0.15811 0.99099 0.41069 0.0
H284 H 0.07005 0.97985 0.59092 0.0
H285 H 0.09871 0.97945 0.50999 0.0
C286 C 0.49718 0.18057 0.18106 0.0
C287 C 0.5152 0.19066 0.18077 0.0
C288 C 0.49509 0.16291 0.22171 0.0
C289 C 0.525 0.12351 0.31576 0.0
H290 H 0.47702 0.11278 0.42559 0.0
C291 C 0.52209 0.06753 0.55863 0.0
C292 C 0.50641 0.05405 0.56011 0.0
C293 C 0.52212 0.08333 0.50816 0.0
C294 C 0.49045 0.11548 0.39462 0.0
H295 H 0.54503 0.19029 0.22284 0.0
H296 H 0.54138 0.16012 0.29445 0.0
H297 H 0.47895 0.14177 0.34416 0.0
H298 H 0.47825 0.04692 0.51017 0.0
H299 H 0.47817 0.07484 0.4226 0.0
H300 H 0.53669 0.09763 0.36814 0.0
C301 C 0.52892 0.1653 0.26216 0.0
C302 C 0.49155 0.13208 0.34763 0.0
C303 C 0.53101 0.18274 0.22137 0.0
C304 C 0.49058 0.05698 0.51041 0.0
C305 C 0.49049 0.07301 0.46048 0.0
C306 C 0.52396 0.10713 0.36325 0.0
C307 C 0.51096 0.15504 0.26308 0.0
C308 C 0.50898 0.13652 0.30841 0.0
C309 C 0.50636 0.08626 0.4583 0.0
C310 C 0.50679 0.10304 0.40412 0.0
H311 H 0.48469 0.18634 0.1504 0.0
H312 H 0.48107 0.1554 0.22037 0.0
H313 H 0.5385 0.12602 0.2851 0.0
H314 H 0.53453 0.06579 0.59598 0.0
H315 H 0.53446 0.09338 0.50858 0.0
C316 C 0.33284 0.49935 0.25514 0.0
C317 C 0.3303 0.51675 0.21341 0.0
C318 C 0.34953 0.49683 0.3008 0.0
C319 C 0.3877 0.5266 0.39766 0.0
H320 H 0.41412 0.47663 0.42686 0.0
C321 C 0.44707 0.51751 0.62521 0.0
C322 C 0.46395 0.50646 0.60794 0.0
C323 C 0.43075 0.51746 0.57753 0.0
C324 C 0.407 0.49073 0.41895 0.0
H325 H 0.34349 0.5447 0.18435 0.0
H326 H 0.37262 0.54018 0.2617 0.0
H327 H 0.38627 0.47884 0.34029 0.0
H328 H 0.47661 0.48631 0.52712 0.0
H329 H 0.44817 0.48647 0.44306 0.0
H330 H 0.40854 0.53868 0.47448 0.0
C331 C 0.36165 0.52864 0.26118 0.0
C332 C 0.39087 0.49195 0.36987 0.0
C333 C 0.34501 0.53118 0.21618 0.0
C334 C 0.46388 0.49501 0.54222 0.0
C335 C 0.44751 0.49502 0.49417 0.0
C336 C 0.40376 0.52539 0.44642 0.0
C337 C 0.36399 0.51164 0.30551 0.0
C338 C 0.38105 0.50995 0.35829 0.0
C339 C 0.43078 0.50644 0.51075 0.0
C340 C 0.41365 0.50746 0.45803 0.0
H341 H 0.32169 0.48799 0.25448 0.0
H342 H 0.35074 0.48358 0.33436 0.0
H343 H 0.38039 0.54066 0.3914 0.0
H344 H 0.44645 0.52634 0.67568 0.0
H345 H 0.41803 0.5261 0.59327 0.0
C346 C 0.99015 0.33062 0.22921 0.0
C347 C 1.00564 0.31851 0.20542 0.0
C348 C 0.99388 0.34844 0.26554 0.0
C349 C 1.00512 0.39 0.30856 0.0
H350 H 0.04506 0.39161 0.4635 0.0
C351 C 0.02099 0.46138 0.47405 0.0
C352 C 0.02376 0.45946 0.55193 0.0
C353 C 0.02074 0.44477 0.42761 0.0
C354 C 0.0338 0.39141 0.42058 0.0
H355 H 0.03732 0.31565 0.20046 0.0
H356 H 0.04393 0.34699 0.26389 0.0
H357 H 0.04075 0.36176 0.38917 0.0
H358 H 0.02884 0.43843 0.64161 0.0
H359 H 0.02818 0.40952 0.56097 0.0
H360 H 0.99766 0.41933 0.34139 0.0
C361 C 0.02883 0.3426 0.2547 0.0
C362 C 0.03149 0.37435 0.37727 0.0
C363 C 0.02506 0.32472 0.21784 0.0
C364 C 0.02672 0.44052 0.5819 0.0
C365 C 0.02645 0.4239 0.53546 0.0
C366 C 1.00744 0.40704 0.35168 0.0
C367 C 0.01325 0.35464 0.27939 0.0
C368 C 0.01692 0.37332 0.32138 0.0
C369 C 0.02323 0.42576 0.45774 0.0
C370 C 0.02165 0.40793 0.40895 0.0
H371 H 0.97503 0.32613 0.22089 0.0
H372 H 0.9815 0.35708 0.28469 0.0
H373 H 0.99391 0.38987 0.26543 0.0
H374 H 0.01876 0.47573 0.44883 0.0
H375 H 0.01854 0.44685 0.36795 0.0
C376 C 0.83029 0.9721 0.15899 0.0
C377 C 0.82204 0.98795 0.1983 0.0
C378 C 0.84816 0.97418 0.12121 0.0
C379 C 0.89237 1.00607 0.09947 0.0
H380 H 0.89487 0.98058 0.90535 0.0
C381 C 0.96389 1.00281 0.91863 0.0
C382 C 0.9617 1.00422 0.8403 0.0
C383 C 0.94735 1.0015 0.9655 0.0
C384 C 0.89444 0.98797 0.95907 0.0
H385 H 0.8263 0.01837 0.23054 0.0
H386 H 0.85749 0.02219 0.16333 0.0
H387 H 0.86551 0.97731 0.98126 0.0
H388 H 0.94026 1.00612 0.75036 0.0
H389 H 0.9117 1.00419 0.83145 0.0
H390 H 0.92124 0.01718 0.07571 0.0
C391 C 0.85026 1.008 0.1626 0.0
C392 C 0.87763 0.98584 0.00335 0.0
C393 C 0.83236 1.00585 0.20103 0.0
C394 C 0.94259 1.00476 0.81028 0.0
C395 C 0.92613 1.00356 0.85694 0.0
C396 C 0.90926 1.00824 0.0549 0.0
C397 C 0.8582 0.99228 0.12089 0.0
C398 C 0.87633 0.99479 0.07431 0.0
C399 C 0.92823 1.00163 0.93515 0.0
C400 C 0.91048 0.99926 0.9839 0.0
H401 H 0.8227 0.95811 0.15623 0.0
H402 H 0.85397 0.9616 0.09139 0.0
H403 H 0.89199 0.01308 0.15396 0.0
H404 H 0.97838 1.00237 0.9437 0.0
H405 H 0.94958 0.99989 0.02536 0.0
C406 C 0.51374 0.82647 0.2031 0.0
C407 C 0.51743 0.80991 0.15811 0.0
C408 C 0.51521 0.84555 0.17274 0.0
C409 C 0.5366 0.87325 0.01184 0.0
H410 H 0.49469 0.91072 0.04759 0.0
C411 C 0.52398 0.93963 0.8167 0.0
C412 C 0.51789 0.95771 0.84718 0.0
C413 C 0.5252 0.92274 0.86142 0.0
C414 C 0.5067 0.90058 0.03785 0.0
H415 H 0.52577 0.8003 0.04691 0.0
H416 H 0.52848 0.83327 0.99438 0.0
H417 H 0.49488 0.8793 0.11475 0.0
H418 H 0.50842 0.9721 0.94941 0.0
H419 H 0.51069 0.94255 0.02785 0.0
H420 H 0.54832 0.89428 0.93441 0.0
C421 C 0.52461 0.83173 0.05303 0.0
C422 C 0.5068 0.88254 0.07645 0.0
C423 C 0.52298 0.81279 0.08305 0.0
C424 C 0.51318 0.95845 0.92401 0.0
C425 C 0.51436 0.94146 0.96891 0.0
C426 C 0.53652 0.89124 0.9735 0.0
C427 C 0.52061 0.84839 0.09712 0.0
C428 C 0.52154 0.86846 0.06271 0.0
C429 C 0.52039 0.92335 0.93814 0.0
C430 C 0.52135 0.905 0.98466 0.0
H431 H 0.50932 0.82471 0.26108 0.0
H432 H 0.51213 0.85805 0.20839 0.0
H433 H 0.54841 0.86296 1.00094 0.0
H434 H 0.52765 0.9384 0.75778 0.0
H435 H 0.52956 0.90905 0.83523 0.0
C436 C 0.68893 0.55028 0.23027 0.0
C437 C 0.69885 0.53405 0.26093 0.0
C438 C 0.67147 0.5478 0.19003 0.0
C439 C 0.63115 0.51233 0.14756 0.0
H440 H 0.62492 0.54552 0.972 0.0
C441 C 0.55893 0.51438 0.97148 0.0
C442 C 0.56072 0.51664 0.8933 0.0
C443 C 0.57546 0.51594 0.01827 0.0
C444 C 0.62643 0.53597 0.02035 0.0
H445 H 0.69806 0.50238 0.27468 0.0
H446 H 0.66763 0.4979 0.20317 0.0
H447 H 0.65403 0.5488 0.04946 0.0
H448 H 0.58148 0.52191 0.80314 0.0
H449 H 0.61013 0.52426 0.88392 0.0
H450 H 0.6037 0.4991 0.11668 0.0
C451 C 0.67318 0.51267 0.21124 0.0
C452 C 0.64307 0.53806 0.06567 0.0
C453 C 0.69066 0.51521 0.25216 0.0
C454 C 0.57946 0.52028 0.86311 0.0
C455 C 0.59594 0.52174 0.90968 0.0
C456 C 0.61446 0.51018 0.10192 0.0
C457 C 0.66352 0.52893 0.17846 0.0
C458 C 0.64568 0.52635 0.13018 0.0
C459 C 0.59421 0.51975 0.98804 0.0
C460 C 0.61187 0.52197 0.03754 0.0
H461 H 0.69487 0.56499 0.23638 0.0
H462 H 0.66429 0.56073 0.1674 0.0
H463 H 0.63253 0.50313 0.19696 0.0
H464 H 0.54473 0.51158 0.99672 0.0
H465 H 0.57346 0.51453 0.0783 0.0
C466 C 0.97388 0.68367 0.16813 0.0
C467 C 0.9901 0.69444 0.19381 0.0
C468 C 0.97643 0.66559 0.13203 0.0
C469 C 0.01397 0.62659 0.08786 0.0
H470 H 0.97685 0.61403 0.9299 0.0
C471 C 0.02705 0.56699 0.85905 0.0
C472 C 0.01146 0.55393 0.84479 0.0
C473 C 0.02451 0.58313 0.90679 0.0
C474 C 0.98723 0.61724 0.97431 0.0
H475 H 0.02183 0.69474 0.20217 0.0
H476 H 0.02649 0.66359 0.1364 0.0
H477 H 0.97262 0.64402 1.00225 0.0
H478 H 0.98095 0.54759 0.86996 0.0
H479 H 0.97637 0.57615 0.95189 0.0
H480 H 0.02903 0.60006 0.05652 0.0
C481 C 0.01164 0.66867 0.14614 0.0
C482 C 0.98478 0.63443 0.01641 0.0
C483 C 0.00901 0.68662 0.18381 0.0
C484 C 0.99327 0.55734 0.87984 0.0
C485 C 0.99062 0.57373 0.92648 0.0
C486 C 0.01661 0.60955 0.04468 0.0
C487 C 0.99537 0.65798 0.11867 0.0
C488 C 0.99805 0.6394 0.07419 0.0
C489 C 1.0062 0.58683 0.94035 0.0
C490 C 1.00324 0.60466 0.98756 0.0
H491 H 0.95912 0.68936 0.17534 0.0
H492 H 0.96345 0.6577 0.1141 0.0
H493 H 0.02436 0.62957 0.13238 0.0
H494 H 0.04128 0.56475 0.83318 0.0
H495 H 0.03674 0.59303 0.91597 0.0
C496 C 1.00389 0.21377 0.34541 0.0
C497 C 0.99521 0.22999 0.30965 0.0
C498 C 0.99443 0.20447 0.40494 0.0
C499 C 0.97377 0.18729 0.53733 0.0
H500 H 0.92006 0.17539 0.48161 0.0
C501 C 0.94393 0.11335 0.61782 0.0
C502 C 0.93656 0.10341 0.55457 0.0
C503 C 0.94469 0.13389 0.61905 0.0
C504 C 0.935 0.17859 0.49846 0.0
H505 H 0.97057 0.25019 0.3117 0.0
H506 H 0.95401 0.234 0.41688 0.0
H507 H 0.93655 0.20335 0.42473 0.0
H508 H 0.92152 0.10731 0.4484 0.0
H509 H 0.92392 0.14279 0.44803 0.0
H510 H 0.97316 0.16136 0.60411 0.0
C511 C 0.96803 0.22832 0.39808 0.0
C512 C 0.94441 0.19486 0.46657 0.0
C513 C 0.97756 0.23766 0.33824 0.0
C514 C 0.92786 0.1145 0.49688 0.0
C515 C 0.92897 0.13499 0.49742 0.0
C516 C 0.96452 0.17084 0.56807 0.0
C517 C 0.97605 0.2112 0.43044 0.0
C518 C 0.96434 0.19857 0.48187 0.0
C519 C 0.93851 0.14491 0.55643 0.0
C520 C 0.94546 0.16552 0.54502 0.0
H521 H 0.01764 0.20773 0.32521 0.0
H522 H 1.00099 0.1912 0.4275 0.0
H523 H 0.98894 0.19015 0.55223 0.0
H524 H 0.95069 0.10537 0.66371 0.0
H525 H 0.95153 0.14102 0.66665 0.0
C526 C 0.28984 1.00833 0.34702 0.0
C527 C 0.27533 0.99775 0.30859 0.0
C528 C 0.29851 1.00048 0.41122 0.0
C529 C 0.31184 0.95163 0.47244 0.0
H530 H 0.34353 0.9829 0.60763 0.0
C531 C 0.39369 0.94316 0.4905 0.0
C532 C 0.40421 0.95074 0.55146 0.0
C533 C 0.37319 0.94309 0.49155 0.0
C534 C 0.33459 0.97359 0.57215 0.0
H535 H 0.25682 0.97183 0.31133 0.0
H536 H 0.27191 0.95807 0.42448 0.0
H537 H 0.31284 0.9961 0.56044 0.0
H538 H 0.40187 0.96205 0.66468 0.0
H539 H 0.36601 0.96158 0.66732 0.0
H540 H 0.33392 0.92939 0.48212 0.0
C541 C 0.2768 0.97231 0.40439 0.0
C542 C 0.31702 0.98131 0.54443 0.0
C543 C 0.26808 0.98022 0.33996 0.0
C544 C 0.39399 0.95649 0.61633 0.0
C545 C 0.37348 0.95622 0.61778 0.0
C546 C 0.32927 0.94379 0.50102 0.0
C547 C 0.29286 0.98184 0.43823 0.0
C548 C 0.30631 0.97107 0.48959 0.0
C549 C 0.36282 0.95044 0.55397 0.0
C550 C 0.3416 0.95532 0.54641 0.0
H551 H 0.29549 0.022 0.32424 0.0
H552 H 0.31089 1.00825 0.43515 0.0
H553 H 0.3039 0.94318 0.43088 0.0
H554 H 0.40124 0.93869 0.43982 0.0
H555 H 0.36557 0.93874 0.44089 0.0
C556 C 0.52305 0.2691 0.33653 0.0
C557 C 0.50447 0.2728 0.3052 0.0
C558 C 0.53024 0.28124 0.39348 0.0
C559 C 0.5404 0.31363 0.51524 0.0
H560 H 0.53625 0.36213 0.40075 0.0
C561 C 0.55565 0.39424 0.60864 0.0
C562 C 0.56372 0.40668 0.55346 0.0
C563 C 0.55297 0.37426 0.5941 0.0
C564 C 0.53772 0.34867 0.433 0.0
H565 H 0.47763 0.28962 0.31574 0.0
H566 H 0.4901 0.3107 0.41572 0.0
H567 H 0.51895 0.33304 0.35845 0.0
H568 H 0.57758 0.40766 0.44416 0.0
H569 H 0.57288 0.3727 0.41869 0.0
H570 H 0.55906 0.32983 0.59075 0.0
C571 C 0.49917 0.29866 0.39606 0.0
C572 C 0.52754 0.33212 0.40956 0.0
C573 C 0.49205 0.28665 0.33898 0.0
C574 C 0.57126 0.39842 0.48745 0.0
C575 C 0.56853 0.37845 0.47286 0.0
C576 C 0.55039 0.33049 0.53981 0.0
C577 C 0.51884 0.29704 0.41922 0.0
C578 C 0.5287 0.3145 0.45038 0.0
C579 C 0.55829 0.36653 0.52416 0.0
C580 C 0.54924 0.34806 0.49816 0.0
H581 H 0.53287 0.2585 0.31101 0.0
H582 H 0.54546 0.27977 0.41047 0.0
H583 H 0.54167 0.30006 0.54683 0.0
H584 H 0.55003 0.40027 0.66064 0.0
H585 H 0.54503 0.36535 0.63444 0.0
C586 C 0.24672 0.56549 0.2777 0.0
C587 C 0.2435 0.54516 0.2835 0.0
C588 C 0.2364 0.57849 0.32414 0.0
C589 C 0.20127 0.5802 0.48565 0.0
H590 H 0.17174 0.61516 0.35568 0.0
C591 C 0.12251 0.59814 0.55997 0.0
C592 C 0.11007 0.59254 0.50068 0.0
C593 C 0.14236 0.60218 0.54666 0.0
C594 C 0.17999 0.60572 0.39328 0.0
H595 H 0.22844 0.5222 0.34466 0.0
H596 H 0.21051 0.54461 0.42564 0.0
H597 H 0.20301 0.60195 0.31321 0.0
H598 H 0.1084 0.5885 0.3801 0.0
H599 H 0.14263 0.5954 0.35706 0.0
H600 H 0.1773 0.58219 0.56221 0.0
C601 C 0.221 0.55076 0.38642 0.0
C602 C 0.19806 0.5983 0.36927 0.0
C603 C 0.23114 0.53787 0.33975 0.0
C604 C 0.11745 0.59292 0.42712 0.0
C605 C 0.13722 0.59696 0.41385 0.0
C606 C 0.18313 0.58747 0.50937 0.0
C607 C 0.22288 0.57125 0.37717 0.0
C608 C 0.20819 0.58437 0.41308 0.0
C609 C 0.15013 0.60071 0.4738 0.0
C610 C 0.17166 0.59919 0.4611 0.0
H611 H 0.25617 0.57134 0.23417 0.0
H612 H 0.2382 0.59418 0.31593 0.0
H613 H 0.209 0.56986 0.52141 0.0
H614 H 0.11714 0.59841 0.61716 0.0
H615 H 0.15184 0.60536 0.59391 0.0
C616 C 0.03341 0.7706 0.05403 0.0
C617 C 0.01804 0.77904 0.09559 0.0
C618 C 0.04051 0.78005 0.98966 0.0
C619 C 0.06267 0.81358 0.91438 0.0
H620 H 0.03037 0.84933 0.79804 0.0
C621 C 0.08081 0.89379 0.88186 0.0
C622 C 0.07177 0.90527 0.82611 0.0
C623 C 0.07841 0.87341 0.88272 0.0
C624 C 0.03984 0.8392 0.82798 0.0
H625 H 0.99685 0.80275 0.09942 0.0
H626 H 0.00917 0.8193 0.98828 0.0
H627 H 0.01554 0.82061 0.85542 0.0
H628 H 0.05496 0.90405 0.72255 0.0
H629 H 0.05138 0.86847 0.72271 0.0
H630 H 0.08686 0.83254 0.88905 0.0
C631 C 0.0158 0.80542 0.00428 0.0
C632 C 0.03122 0.82279 0.86169 0.0
C633 C 0.00883 0.79608 0.06856 0.0
C634 C 0.0621 0.89571 0.76662 0.0
C635 C 0.05986 0.87527 0.76707 0.0
C636 C 0.07136 0.82988 0.87991 0.0
C637 C 0.03222 0.79796 0.96571 0.0
C638 C 0.04226 0.81064 0.90965 0.0
C639 C 0.06703 0.864 0.82739 0.0
C640 C 0.05976 0.84365 0.84089 0.0
H641 H 0.04074 0.75743 0.07395 0.0
H642 H 0.05308 0.77387 0.96081 0.0
H643 H 0.07168 0.80444 0.95046 0.0
H644 H 0.08873 0.90067 0.92753 0.0
H645 H 0.08414 0.86534 0.93037 0.0
C646 C 0.74583 0.03756 0.0728 0.0
C647 C 0.73857 0.0203 0.10618 0.0
C648 C 0.73623 0.04581 0.01073 0.0
C649 C 0.70173 0.06733 0.93927 0.0
H650 H 0.66925 0.03559 0.80843 0.0
C651 C 0.62085 0.0815 0.90328 0.0
C652 C 0.61024 0.0725 0.84516 0.0
C653 C 0.64131 0.08033 0.90527 0.0
C654 C 0.67842 0.04501 0.84256 0.0
H655 H 0.71692 0.99711 0.09738 0.0
H656 H 0.70005 0.01141 0.99064 0.0
H657 H 0.69865 0.02153 0.86267 0.0
H658 H 0.61305 0.05724 0.73866 0.0
H659 H 0.64868 0.05613 0.74024 0.0
H660 H 0.6813 0.09072 0.92025 0.0
C661 C 0.71314 0.01869 0.01113 0.0
C662 C 0.69524 0.03678 0.87456 0.0
C663 C 0.72265 0.01055 0.073 0.0
C664 C 0.62068 0.06431 0.7846 0.0
C665 C 0.64118 0.06343 0.78597 0.0
C666 C 0.68507 0.07569 0.90621 0.0
C667 C 0.71932 0.03681 0.98094 0.0
C668 C 0.70622 0.04736 0.9276 0.0
C669 C 0.6517 0.07037 0.84851 0.0
C670 C 0.67242 0.06418 0.86192 0.0
H671 H 0.75814 0.04532 0.09751 0.0
H672 H 0.74146 0.05968 0.98833 0.0
H673 H 0.70995 0.07602 0.97928 0.0
H674 H 0.6133 0.08839 0.9498 0.0
H675 H 0.64872 0.08587 0.95462 0.0
C676 C 0.43831 0.73163 0.23595 0.0
C677 C 0.45601 0.73849 0.20507 0.0
C678 C 0.42568 0.71993 0.1934 0.0
C679 C 0.41893 0.69613 0.00579 0.0
H680 H 0.41551 0.64902 0.12778 0.0
C681 C 0.43647 0.62006 0.89477 0.0
C682 C 0.43108 0.60325 0.93602 0.0
C683 C 0.42979 0.63866 0.91591 0.0
C684 C 0.41562 0.662 0.09252 0.0
H685 H 0.47338 0.74042 0.10359 0.0
H686 H 0.45162 0.71969 0.02965 0.0
H687 H 0.42099 0.68023 0.18722 0.0
H688 H 0.41222 0.59262 0.02558 0.0
H689 H 0.3997 0.62484 0.05947 0.0
H690 H 0.4145 0.67751 0.91053 0.0
C691 C 0.44725 0.72348 0.08622 0.0
C692 C 0.41883 0.68008 0.12702 0.0
C693 C 0.4598 0.73533 0.12866 0.0
C694 C 0.4169 0.60521 0.99286 0.0
C695 C 0.40988 0.62379 0.013 0.0
C696 C 0.4155 0.67798 0.97112 0.0
C697 C 0.43069 0.71468 0.11957 0.0
C698 C 0.42157 0.69719 0.0839 0.0
C699 C 0.41722 0.64086 0.97798 0.0
C700 C 0.41493 0.66053 0.01386 0.0
H701 H 0.43495 0.73414 0.29457 0.0
H702 H 0.41281 0.71371 0.22016 0.0
H703 H 0.42064 0.70913 0.97117 0.0
H704 H 0.44682 0.61904 0.8488 0.0
H705 H 0.4358 0.65133 0.88708 0.0
C706 C 0.79132 0.51778 0.09672 0.0
C707 C 0.77863 0.50599 0.13916 0.0
C708 C 0.79995 0.51038 0.03182 0.0
C709 C 0.81962 0.46406 0.97646 0.0
H710 H 0.84135 0.49686 0.81894 0.0
C711 C 0.89816 0.45278 0.86167 0.0
C712 C 0.90909 0.46996 0.87602 0.0
C713 C 0.87758 0.45319 0.86366 0.0
C714 C 0.83516 0.48726 0.8614 0.0
H715 H 0.76359 0.47797 0.14499 0.0
H716 H 0.77907 0.46474 0.03143 0.0
H717 H 0.80985 0.50558 0.87527 0.0
H718 H 0.90679 0.50094 0.90486 0.0
H719 H 0.8713 0.5017 0.90618 0.0
H720 H 0.84578 0.44676 0.96717 0.0
C721 C 0.78222 0.47974 0.048 0.0
C722 C 0.81716 0.49224 0.89362 0.0
C723 C 0.77336 0.48729 0.11266 0.0
C724 C 0.89897 0.48753 0.89144 0.0
C725 C 0.87856 0.488 0.89201 0.0
C726 C 0.83761 0.45904 0.94403 0.0
C727 C 0.79624 0.49093 0.00883 0.0
C728 C 0.81002 0.48156 0.95538 0.0
C729 C 0.86764 0.47086 0.87859 0.0
C730 C 0.84616 0.47147 0.89029 0.0
H731 H 0.79552 0.53226 0.11641 0.0
H732 H 0.81087 0.51933 0.00369 0.0
H733 H 0.81451 0.45549 0.0239 0.0
H734 H 0.90546 0.43905 0.84867 0.0
H735 H 0.86944 0.43973 0.85402 0.0
C736 C 0.00972 0.21482 0.99017 0.0
C737 C 0.02123 0.21606 0.05539 0.0
C738 C 0.01043 0.19793 0.94492 0.0
C739 C 0.03889 0.15206 0.90654 0.0
H740 H 0.98793 0.12992 0.85891 0.0
C741 C 0.02975 0.07025 0.82281 0.0
C742 C 0.01504 0.0651 0.77103 0.0
C743 C 0.03122 0.08955 0.84997 0.0
C744 C 1.00233 0.13596 0.87041 0.0
H745 H 0.04317 0.20112 0.12245 0.0
H746 H 0.04481 0.17195 0.04303 0.0
H747 H 0.98999 0.16252 0.91483 0.0
H748 H 0.99049 0.07649 0.70637 0.0
H749 H 0.9933 0.11009 0.75229 0.0
H750 H 0.05127 0.12552 0.86253 0.0
C751 C 0.03522 0.18392 0.02638 0.0
C752 C 1.0035 0.15474 0.90258 0.0
C753 C 0.03434 0.20065 0.07191 0.0
C754 C 1.00196 0.07983 0.74655 0.0
C755 C 1.00351 0.09916 0.77333 0.0
C756 C 0.03774 0.13334 0.87389 0.0
C757 C 0.02282 0.18203 0.96363 0.0
C758 C 0.02178 0.16293 0.92214 0.0
C759 C 0.01811 0.10432 0.82578 0.0
C760 C 0.01942 0.12484 0.85638 0.0
H761 H 0.99927 0.22634 0.97684 0.0
H762 H 1.00083 0.19706 0.89657 0.0
H763 H 0.05323 0.158 0.91998 0.0
H764 H 0.04003 0.05932 0.84329 0.0
H765 H 0.04244 0.09275 0.89122 0.0
C766 C 0.31348 0.995 0.05798 0.0
C767 C 0.2985 0.00911 0.04882 0.0
C768 C 0.33113 0.99653 0.01868 0.0
C769 C 0.35659 0.01509 0.85538 0.0
H770 H 0.40214 0.01607 0.98656 0.0
C771 C 0.43679 1.00018 0.75672 0.0
C772 C 0.45174 0.0124 0.78511 0.0
C773 C 0.41743 1.00178 0.78277 0.0
C774 C 0.3896 0.016 0.9491 0.0
H775 H 0.28982 0.03503 0.98617 0.0
H776 H 0.32082 0.03737 0.9149 0.0
H777 H 0.36918 0.01471 0.04042 0.0
H778 H 0.45785 0.03603 0.86327 0.0
H779 H 0.42415 0.03847 0.91013 0.0
H780 H 0.37717 0.01565 0.76388 0.0
C781 C 0.31881 0.02535 0.95414 0.0
C782 C 0.37073 0.01511 0.97994 0.0
C783 C 0.30107 0.02397 0.99459 0.0
C784 C 0.44676 0.02637 0.84007 0.0
C785 C 0.42745 0.02775 0.86706 0.0
C786 C 0.37557 0.01561 0.82433 0.0
C787 C 0.33424 0.01199 0.96785 0.0
C788 C 0.35403 0.01448 0.93356 0.0
C789 C 0.41256 0.01541 0.83893 0.0
C790 C 0.3923 0.01597 0.87094 0.0
H791 H 0.31183 0.98307 0.09787 0.0
H792 H 0.34259 0.98581 0.02929 0.0
H793 H 0.34398 0.01452 0.81838 0.0
H794 H 0.44003 0.9892 0.71466 0.0
H795 H 0.40639 0.99191 0.76052 0.0
C796 C 0.51677 0.30558 0.04939 0.0
C797 C 0.50072 0.29272 0.0412 0.0
C798 C 0.51694 0.32392 0.01389 0.0
C799 C 0.49729 0.355 0.86429 0.0
H800 H 0.50571 0.39743 0.00621 0.0
C801 C 0.5154 0.43606 0.77936 0.0
C802 C 0.50546 0.45115 0.81796 0.0
C803 C 0.5134 0.41631 0.80113 0.0
C804 C 0.50322 0.3858 0.96586 0.0
H805 H 0.47282 0.28853 0.98537 0.0
H806 H 0.47339 0.32067 0.92058 0.0
H807 H 0.50548 0.36336 0.05009 0.0
H808 H 0.4855 0.45709 0.90991 0.0
H809 H 0.48242 0.42267 0.94914 0.0
H810 H 0.49556 0.37757 0.77968 0.0
C811 C 0.48575 0.31646 0.95538 0.0
C812 C 0.50322 0.36626 0.99092 0.0
C813 C 0.48547 0.29803 0.99192 0.0
C814 C 0.49337 0.44591 0.87881 0.0
C815 C 0.49165 0.42618 0.90145 0.0
C816 C 0.49767 0.37462 0.83887 0.0
C817 C 0.50116 0.32989 0.96845 0.0
C818 C 0.50034 0.35061 0.94053 0.0
C819 C 0.50168 0.41113 0.86302 0.0
C820 C 0.50065 0.39026 0.88945 0.0
H821 H 0.52872 0.30189 0.0871 0.0
H822 H 0.52914 0.33379 0.02421 0.0
H823 H 0.49508 0.34326 0.82417 0.0
H824 H 0.52482 0.43948 0.73224 0.0
H825 H 0.52147 0.40514 0.77071 0.0
C826 C 0.22525 0.50899 0.99674 0.0
C827 C 0.22691 0.50198 0.07066 0.0
C828 C 0.20774 0.50634 0.95612 0.0
C829 C 0.15461 0.49933 0.9936 0.0
H830 H 0.15043 0.49245 0.77843 0.0
C831 C 0.07904 0.49074 0.85037 0.0
C832 C 0.07593 0.50044 0.78155 0.0
C833 C 0.09788 0.48946 0.8817 0.0
C834 C 0.15133 0.49456 0.83852 0.0
H835 H 0.21209 0.48582 0.15858 0.0
H836 H 0.18194 0.48048 0.0873 0.0
H837 H 0.18278 0.49182 0.83837 0.0
H838 H 0.09052 0.51619 0.69139 0.0
H839 H 0.12332 0.51414 0.74649 0.0
H840 H 0.12335 0.50236 0.99412 0.0
C841 C 0.19387 0.48843 0.06084 0.0
C842 C 0.16992 0.49416 0.87296 0.0
C843 C 0.21126 0.49118 0.10137 0.0
C844 C 0.0923 0.50855 0.74435 0.0
C845 C 0.11118 0.50729 0.77584 0.0
C846 C 0.13612 0.49974 0.95933 0.0
C847 C 0.19153 0.49665 0.98878 0.0
C848 C 0.17182 0.49648 0.95112 0.0
C849 C 0.11422 0.49789 0.84541 0.0
C850 C 0.13414 0.49732 0.88131 0.0
H851 H 0.23694 0.51773 0.9724 0.0
H852 H 0.20651 0.51297 0.90103 0.0
H853 H 0.15542 0.50172 0.05357 0.0
H854 H 0.06689 0.48418 0.88058 0.0
H855 H 0.09962 0.48178 0.93458 0.0
C856 C 0.99247 0.79813 0.40429 0.0
C857 C 0.00984 0.79308 0.36643 0.0
C858 C 0.99158 0.81531 0.44791 0.0
C859 C 0.02207 0.8548 0.53615 0.0
H860 H 0.97704 0.88796 0.49349 0.0
C861 C 0.01246 0.93241 0.66877 0.0
C862 C 1.00582 0.9475 0.62068 0.0
C863 C 0.01227 0.9127 0.64565 0.0
C864 C 0.98974 0.87893 0.50595 0.0
H865 H 0.04013 0.80137 0.34761 0.0
H866 H 0.03876 0.83102 0.42435 0.0
H867 H 0.97822 0.85458 0.44379 0.0
H868 H 0.99377 0.95348 0.51034 0.0
H869 H 0.99348 0.9192 0.4701 0.0
H870 H 0.03386 0.8794 0.59637 0.0
C871 C 0.02579 0.82183 0.42088 0.0
C872 C 0.9903 0.85964 0.47825 0.0
C873 C 0.02661 0.80482 0.37686 0.0
C874 C 0.99893 0.9423 0.54902 0.0
C875 C 0.99864 0.92258 0.5261 0.0
C876 C 0.02146 0.87407 0.56425 0.0
C877 C 1.0081 0.82769 0.45502 0.0
C878 C 1.00661 0.84741 0.49189 0.0
C879 C 1.00535 0.90749 0.57397 0.0
C880 C 1.00543 0.88652 0.54844 0.0
H881 H 0.97927 0.78948 0.39638 0.0
H882 H 0.97778 0.81924 0.47411 0.0
H883 H 0.0348 0.84577 0.54831 0.0
H884 H 0.018 0.93582 0.72423 0.0
H885 H 0.0174 0.90149 0.68429 0.0
C886 C 0.72003 0.01289 0.42717 0.0
C887 C 0.72321 1.00015 0.36637 0.0
C888 C 0.70236 0.012 0.46802 0.0
C889 C 0.65092 0.99857 0.43449 0.0
H890 H 0.64371 1.00307 0.64938 0.0
C891 C 0.574 0.99044 0.56448 0.0
C892 C 0.56898 1.00201 0.62682 0.0
C893 C 0.59337 0.98978 0.53828 0.0
C894 C 0.64542 1.00205 0.58913 0.0
H895 H 0.71114 0.9758 0.30349 0.0
H896 H 0.68064 0.97398 0.37502 0.0
H897 H 0.67698 1.00227 0.59697 0.0
H898 H 0.58056 0.02203 0.71056 0.0
H899 H 0.61423 0.02136 0.6635 0.0
H900 H 0.61967 0.99893 0.42542 0.0
C901 C 0.69153 0.98483 0.39083 0.0
C902 C 0.66453 1.00152 0.55922 0.0
C903 C 0.70908 0.98571 0.35041 0.0
C904 C 0.58391 0.01284 0.66263 0.0
C905 C 0.60329 0.01238 0.63579 0.0
C906 C 0.63193 0.99931 0.46409 0.0
C907 C 0.68758 0.99845 0.44817 0.0
C908 C 0.66748 0.99949 0.48153 0.0
C909 C 0.6083 1.00092 0.57281 0.0
C910 C 0.62881 1.0008 0.54193 0.0
H911 H 0.73056 0.02437 0.43972 0.0
H912 H 0.69976 0.02271 0.51181 0.0
H913 H 0.65264 0.99752 0.37421 0.0
H914 H 0.56296 0.98174 0.53601 0.0
H915 H 0.59661 0.98038 0.49091 0.0
C916 C 0.51934 0.71629 0.41988 0.0
C917 C 0.50018 0.72401 0.41872 0.0
C918 C 0.5237 0.69938 0.46238 0.0
C919 C 0.50262 0.6645 0.60666 0.0
H920 H 0.53587 0.62658 0.50599 0.0
C921 C 0.51442 0.58582 0.72766 0.0
C922 C 0.51599 0.57024 0.67616 0.0
C923 C 0.51465 0.60546 0.70306 0.0
C924 C 0.52638 0.63687 0.53477 0.0
H925 H 0.47104 0.72098 0.46608 0.0
H926 H 0.47836 0.69159 0.53819 0.0
H927 H 0.53247 0.65948 0.45449 0.0
H928 H 0.51884 0.56326 0.55798 0.0
H929 H 0.51859 0.59718 0.5151 0.0
H930 H 0.49557 0.64152 0.68428 0.0
C931 C 0.49021 0.69845 0.50726 0.0
C932 C 0.52471 0.656 0.50582 0.0
C933 C 0.48593 0.71533 0.46535 0.0
C934 C 0.51779 0.57483 0.59949 0.0
C935 C 0.51779 0.59442 0.57484 0.0
C936 C 0.50411 0.6453 0.63512 0.0
C937 C 0.50899 0.68977 0.50459 0.0
C938 C 0.51254 0.67006 0.54053 0.0
C939 C 0.51624 0.6101 0.62612 0.0
C940 C 0.51576 0.63105 0.59894 0.0
H941 H 0.53064 0.72255 0.38434 0.0
H942 H 0.53847 0.69349 0.46006 0.0
H943 H 0.49338 0.6749 0.63611 0.0
H944 H 0.51309 0.58288 0.78718 0.0
H945 H 0.51371 0.61701 0.74466 0.0
C946 C 0.80466 0.50877 0.45416 0.0
C947 C 0.80106 0.5222 0.39574 0.0
C948 C 0.8228 0.5088 0.49194 0.0
C949 C 0.86852 0.5381 0.52371 0.0
H950 H 0.89339 0.48702 0.54248 0.0
C951 C 0.95231 0.52988 0.57887 0.0
C952 C 0.95887 0.51394 0.62269 0.0
C953 C 0.93249 0.53142 0.55757 0.0
C954 C 0.88664 0.50142 0.539 0.0
H955 H 0.81318 0.54668 0.33331 0.0
H956 H 0.84453 0.54703 0.39972 0.0
H957 H 0.8595 0.48922 0.49971 0.0
H958 H 0.94944 0.4872 0.67893 0.0
H959 H 0.91507 0.49021 0.64425 0.0
H960 H 0.89566 0.55033 0.56275 0.0
C961 C 0.83347 0.53649 0.41686 0.0
C962 C 0.86711 0.50267 0.5144 0.0
C963 C 0.81549 0.53632 0.37874 0.0
C964 C 0.94503 0.49969 0.64507 0.0
C965 C 0.92523 0.50133 0.6245 0.0
C966 C 0.88803 0.53685 0.54881 0.0
C967 C 0.83763 0.52237 0.47249 0.0
C968 C 0.85783 0.52103 0.50552 0.0
C969 C 0.91862 0.51714 0.57997 0.0
C970 C 0.8975 0.5185 0.55603 0.0
H971 H 0.79391 0.49756 0.46763 0.0
H972 H 0.82541 0.49784 0.53502 0.0
H973 H 0.8618 0.55248 0.51841 0.0
H974 H 0.96251 0.54111 0.56038 0.0
H975 H 0.92814 0.54366 0.52235 0.0
loop_
_geom_bond_atom_site_label_1
_geom_bond_atom_site_label_2
_geom_bond_distance
_geom_bond_site_symmetry_2
_ccdc_geom_bond_type
H0 C5 0.930 . S
H1 C8 0.930 . S
H2 C10 0.930 . S
H3 C4 1.016 . S
C4 H3 1.016 . S
C4 N11 1.286 . S
C5 H0 0.930 . S
C5 C6 1.397 . S
C5 C7 1.361 . S
C6 C5 1.397 . S
C6 C10 1.390 . S
C7 C5 1.361 . S
C7 C8 1.393 . S
C7 N11 1.413 . S
C8 H1 0.930 . S
C8 C7 1.393 . S
C8 C9 1.399 . S
C9 C8 1.399 . S
C9 C10 1.381 . S
C10 H2 0.930 . S
C10 C6 1.390 . S
C10 C9 1.381 . S
N11 C4 1.286 . S
N11 C7 1.413 . S
H12 C17 0.930 . S
H13 C20 0.930 . S
H14 C22 0.930 . S
H15 C16 1.029 . S
C16 H15 1.029 . S
C16 N23 1.268 1_655 S
C17 H12 0.930 . S
C17 C18 1.407 . S
C17 C19 1.361 . S
C18 C17 1.407 . S
C18 C22 1.385 1_455 S
C19 C17 1.361 . S
C19 C20 1.393 . S
C19 N23 1.413 . S
C20 H13 0.930 . S
C20 C19 1.393 . S
C20 C21 1.402 . S
C21 C20 1.402 . S
C21 C22 1.379 1_455 S
C22 H14 0.930 . S
C22 C18 1.385 1_655 S
C22 C21 1.379 1_655 S
N23 C16 1.268 1_455 S
N23 C19 1.413 . S
H24 C29 0.930 . S
H25 C32 0.930 . S
H26 C34 0.930 . S
H27 C28 1.029 . S
C28 H27 1.029 . S
C28 N35 1.268 1_565 S
C29 H24 0.930 . S
C29 C30 1.407 . S
C29 C31 1.361 . S
C30 C29 1.407 . S
C30 C34 1.385 1_545 S
C31 C29 1.361 . S
C31 C32 1.393 . S
C31 N35 1.413 . S
C32 H25 0.930 . S
C32 C31 1.393 . S
C32 C33 1.402 . S
C33 C32 1.402 . S
C33 C34 1.379 1_545 S
C34 H26 0.930 . S
C34 C30 1.385 1_565 S
C34 C33 1.379 1_565 S
N35 C28 1.268 1_545 S
N35 C31 1.413 . S
H36 C41 0.930 . S
H37 C44 0.930 . S
H38 C46 0.930 . S
H39 C40 1.016 . S
C40 H39 1.016 . S
C40 N47 1.286 . S
C41 H36 0.930 . S
C41 C42 1.397 . S
C41 C43 1.361 . S
C42 C41 1.397 . S
C42 C46 1.390 . S
C43 C41 1.361 . S
C43 C44 1.393 . S
C43 N47 1.413 . S
C44 H37 0.930 . S
C44 C43 1.393 . S
C44 C45 1.399 . S
C45 C44 1.399 . S
C45 C46 1.381 . S
C46 H38 0.930 . S
C46 C42 1.390 . S
C46 C45 1.381 . S
N47 C40 1.286 . S
N47 C43 1.413 . S
H48 C53 0.930 . S
H49 C56 0.930 . S
H50 C58 0.930 . S
H51 C52 1.016 . S
C52 H51 1.016 . S
C52 N59 1.286 . S
C53 H48 0.930 . S
C53 C54 1.397 . S
C53 C55 1.361 1_556 S
C54 C53 1.397 . S
C54 C58 1.390 1_556 S
C55 C53 1.361 1_554 S
C55 C56 1.393 . S
C55 N59 1.413 . S
C56 H49 0.930 . S
C56 C55 1.393 . S
C56 C57 1.399 . S
C57 C56 1.399 . S
C57 C58 1.381 . S
C58 H50 0.930 . S
C58 C54 1.390 1_554 S
C58 C57 1.381 . S
N59 C52 1.286 . S
N59 C55 1.413 . S
H60 C65 0.930 . S
H61 C68 0.930 . S
H62 C70 0.930 . S
H63 C64 1.025 . S
C64 H63 1.025 . S
C64 N71 1.274 1_655 S
C65 H60 0.930 . S
C65 C66 1.397 . S
C65 C67 1.361 1_556 S
C66 C65 1.397 . S
C66 C70 1.390 1_456 S
C67 C65 1.361 1_554 S
C67 C68 1.393 . S
C67 N71 1.413 . S
C68 H61 0.930 . S
C68 C67 1.393 . S
C68 C69 1.404 . S
C69 C68 1.404 . S
C69 C70 1.378 1_455 S
C70 H62 0.930 . S
C70 C66 1.390 1_654 S
C70 C69 1.378 1_655 S
N71 C64 1.274 1_455 S
N71 C67 1.413 . S
H72 C77 0.930 . S
H73 C80 0.930 . S
H74 C82 0.930 . S
H75 C76 1.025 . S
C76 H75 1.025 . S
C76 N83 1.274 1_565 S
C77 H72 0.930 . S
C77 C78 1.397 . S
C77 C79 1.361 1_556 S
C78 C77 1.397 . S
C78 C82 1.390 1_546 S
C79 C77 1.361 1_554 S
C79 C80 1.393 . S
C79 N83 1.413 . S
C80 H73 0.930 . S
C80 C79 1.393 . S
C80 C81 1.404 . S
C81 C80 1.404 . S
C81 C82 1.378 1_545 S
C82 H74 0.930 . S
C82 C78 1.390 1_564 S
C82 C81 1.378 1_565 S
N83 C76 1.274 1_545 S
N83 C79 1.413 . S
H84 C89 0.930 . S
H85 C92 0.930 . S
H86 C94 0.930 . S
H87 C88 1.016 . S
C88 H87 1.016 . S
C88 N95 1.286 . S
C89 H84 0.930 . S
C89 C90 1.397 . S
C89 C91 1.361 1_556 S
C90 C89 1.397 . S
C90 C94 1.390 1_556 S
C91 C89 1.361 1_554 S
C91 C92 1.393 . S
C91 N95 1.413 . S
C92 H85 0.930 . S
C92 C91 1.393 . S
C92 C93 1.399 . S
C93 C92 1.399 . S
C93 C94 1.381 . S
C94 H86 0.930 . S
C94 C90 1.390 1_554 S
C94 C93 1.381 . S
N95 C88 1.286 . S
N95 C91 1.413 . S
Tb96 C106 2.825 . S
Tb96 O107 2.347 1_455 S
Tb96 O110 2.366 . S
Tb96 O115 2.418 . S
Tb96 O116 2.384 1_565 S
Tb96 O119 2.479 . S
Tb96 O120 2.471 . S
Eu97 O108 2.418 . S
Eu97 O109 2.384 1_545 S
Eu97 O112 2.479 . S
Eu97 O113 2.471 . S
Eu97 O114 2.347 1_655 S
Eu97 O117 2.366 . S
Eu97 C127 2.825 . S
C98 O114 1.259 1_565 S
C98 O115 1.265 . S
C99 O116 1.255 . S
C99 O117 1.265 1_455 S
C100 C102 1.380 . S
C100 C103 1.374 . S
C100 C106 1.507 . S
C101 C102 1.384 . S
C101 C105 1.387 . S
C101 H128 0.930 . S
C102 C100 1.380 . S
C102 C101 1.384 . S
C102 H129 0.931 . S
C103 C100 1.374 . S
C103 C104 1.390 . S
C103 H130 0.930 1_455 S
C104 C103 1.390 . S
C104 C105 1.391 . S
C104 H131 0.930 1_455 S
C105 C101 1.387 . S
C105 C104 1.391 . S
C106 Tb96 2.825 . S
C106 C100 1.507 . S
C106 O119 1.238 . S
C106 O120 1.247 . S
O107 Tb96 2.347 1_655 S
O107 C111 1.259 1_565 S
O108 Eu97 2.418 . S
O108 C111 1.265 . S
O109 Eu97 2.384 1_565 S
O109 C118 1.255 . S
O110 Tb96 2.366 . S
O110 C118 1.265 1_455 S
C111 O107 1.259 1_545 S
C111 O108 1.265 . S
O112 Eu97 2.479 . S
O112 C127 1.238 . S
O113 Eu97 2.471 . S
O113 C127 1.247 . S
O114 Eu97 2.347 1_455 S
O114 C98 1.259 1_545 S
O115 Tb96 2.418 . S
O115 C98 1.265 . S
O116 Tb96 2.384 1_545 S
O116 C99 1.255 . S
O117 Eu97 2.366 . S
O117 C99 1.265 1_655 S
C118 O109 1.255 . S
C118 O110 1.265 1_655 S
O119 Tb96 2.479 . S
O119 C106 1.238 . S
O120 Tb96 2.471 . S
O120 C106 1.247 . S
C121 C124 1.380 . S
C121 C125 1.374 . S
C121 C127 1.507 . S
C122 C123 1.387 . S
C122 C126 1.391 . S
C123 C122 1.387 . S
C123 C124 1.384 . S
C123 H132 0.930 . S
C124 C121 1.380 . S
C124 C123 1.384 . S
C124 H133 0.931 . S
C125 C121 1.374 . S
C125 C126 1.390 . S
C125 H134 0.930 1_655 S
C126 C122 1.391 . S
C126 C125 1.390 . S
C126 H135 0.930 1_655 S
C127 Eu97 2.825 . S
C127 O112 1.238 . S
C127 O113 1.247 . S
C127 C121 1.507 . S
H128 C101 0.930 . S
H129 C102 0.931 . S
H130 C103 0.930 1_655 S
H131 C104 0.930 1_655 S
H132 C123 0.930 . S
H133 C124 0.931 . S
H134 C125 0.930 1_455 S
H135 C126 0.930 1_455 S
Tb136 C146 2.825 . S
Tb136 O147 2.347 1_545 S
Tb136 O150 2.366 . S
Tb136 O155 2.418 . S
Tb136 O156 2.384 . S
Tb136 O159 2.479 . S
Tb136 O160 2.471 . S
Eu137 O148 2.418 . S
Eu137 O149 2.384 . S
Eu137 O152 2.479 . S
Eu137 O153 2.471 . S
Eu137 O154 2.347 1_565 S
Eu137 O157 2.366 . S
Eu137 C167 2.825 . S
C138 O154 1.259 . S
C138 O155 1.265 . S
C139 O156 1.255 . S
C139 O157 1.265 1_545 S
C140 C142 1.380 . S
C140 C143 1.374 . S
C140 C146 1.507 . S
C141 C142 1.384 . S
C141 C145 1.387 . S
C141 H168 0.930 . S
C142 C140 1.380 . S
C142 C141 1.384 . S
C142 H169 0.931 . S
C143 C140 1.374 . S
C143 C144 1.390 . S
C143 H170 0.930 1_545 S
C144 C143 1.390 . S
C144 C145 1.391 . S
C144 H171 0.930 1_545 S
C145 C141 1.387 . S
C145 C144 1.391 . S
C146 Tb136 2.825 . S
C146 C140 1.507 . S
C146 O159 1.238 . S
C146 O160 1.247 . S
O147 Tb136 2.347 1_565 S
O147 C151 1.259 . S
O148 Eu137 2.418 . S
O148 C151 1.265 . S
O149 Eu137 2.384 . S
O149 C158 1.255 . S
O150 Tb136 2.366 . S
O150 C158 1.265 1_545 S
C151 O147 1.259 . S
C151 O148 1.265 . S
O152 Eu137 2.479 . S
O152 C167 1.238 . S
O153 Eu137 2.471 . S
O153 C167 1.247 . S
O154 Eu137 2.347 1_545 S
O154 C138 1.259 . S
O155 Tb136 2.418 . S
O155 C138 1.265 . S
O156 Tb136 2.384 . S
O156 C139 1.255 . S
O157 Eu137 2.366 . S
O157 C139 1.265 1_565 S
C158 O149 1.255 . S
C158 O150 1.265 1_565 S
O159 Tb136 2.479 . S
O159 C146 1.238 . S
O160 Tb136 2.471 . S
O160 C146 1.247 . S
C161 C164 1.380 . S
C161 C165 1.374 . S
C161 C167 1.507 . S
C162 C163 1.387 . S
C162 C166 1.391 . S
C163 C162 1.387 . S
C163 C164 1.384 . S
C163 H172 0.930 . S
C164 C161 1.380 . S
C164 C163 1.384 . S
C164 H173 0.931 . S
C165 C161 1.374 . S
C165 C166 1.390 . S
C165 H174 0.930 1_565 S
C166 C162 1.391 . S
C166 C165 1.390 . S
C166 H175 0.930 1_565 S
C167 Eu137 2.825 . S
C167 O152 1.238 . S
C167 O153 1.247 . S
C167 C161 1.507 . S
H168 C141 0.930 . S
H169 C142 0.931 . S
H170 C143 0.930 1_565 S
H171 C144 0.930 1_565 S
H172 C163 0.930 . S
H173 C164 0.931 . S
H174 C165 0.930 1_545 S
H175 C166 0.930 1_545 S
Tb176 C186 2.825 . S
Tb176 O187 2.347 . S
Tb176 O190 2.366 . S
Tb176 O195 2.418 . S
Tb176 O196 2.384 . S
Tb176 O199 2.479 . S
Tb176 O200 2.471 . S
Eu177 O188 2.418 . S
Eu177 O189 2.384 . S
Eu177 O192 2.479 . S
Eu177 O193 2.471 . S
Eu177 O194 2.347 . S
Eu177 O197 2.366 . S
Eu177 C207 2.825 . S
C178 O194 1.259 . S
C178 O195 1.265 . S
C179 O196 1.255 . S
C179 O197 1.265 . S
C180 C182 1.380 . S
C180 C183 1.374 . S
C180 C186 1.507 . S
C181 C182 1.384 . S
C181 C185 1.387 . S
C181 H208 0.930 . S
C182 C180 1.380 . S
C182 C181 1.384 . S
C182 H209 0.931 . S
C183 C180 1.374 . S
C183 C184 1.390 . S
C183 H210 0.930 . S
C184 C183 1.390 . S
C184 C185 1.391 . S
C184 H211 0.930 . S
C185 C181 1.387 . S
C185 C184 1.391 . S
C186 Tb176 2.825 . S
C186 C180 1.507 . S
C186 O199 1.238 . S
C186 O200 1.247 . S
O187 Tb176 2.347 . S
O187 C191 1.259 . S
O188 Eu177 2.418 . S
O188 C191 1.265 . S
O189 Eu177 2.384 . S
O189 C198 1.255 . S
O190 Tb176 2.366 . S
O190 C198 1.265 . S
C191 O187 1.259 . S
C191 O188 1.265 . S
O192 Eu177 2.479 . S
O192 C207 1.238 . S
O193 Eu177 2.471 . S
O193 C207 1.247 . S
O194 Eu177 2.347 . S
O194 C178 1.259 . S
O195 Tb176 2.418 . S
O195 C178 1.265 . S
O196 Tb176 2.384 . S
O196 C179 1.255 . S
O197 Eu177 2.366 . S
O197 C179 1.265 . S
C198 O189 1.255 . S
C198 O190 1.265 . S
O199 Tb176 2.479 . S
O199 C186 1.238 . S
O200 Tb176 2.471 . S
O200 C186 1.247 . S
C201 C204 1.380 . S
C201 C205 1.374 . S
C201 C207 1.507 . S
C202 C203 1.387 . S
C202 C206 1.391 . S
C203 C202 1.387 . S
C203 C204 1.384 . S
C203 H212 0.930 . S
C204 C201 1.380 . S
C204 C203 1.384 . S
C204 H213 0.931 . S
C205 C201 1.374 . S
C205 C206 1.390 . S
C205 H214 0.930 . S
C206 C202 1.391 . S
C206 C205 1.390 . S
C206 H215 0.930 . S
C207 Eu177 2.825 . S
C207 O192 1.238 . S
C207 O193 1.247 . S
C207 C201 1.507 . S
H208 C181 0.930 . S
H209 C182 0.931 . S
H210 C183 0.930 . S
H211 C184 0.930 . S
H212 C203 0.930 . S
H213 C204 0.931 . S
H214 C205 0.930 . S
H215 C206 0.930 . S
Tb216 C226 2.825 . S
Tb216 O227 2.347 . S
Tb216 O230 2.366 . S
Tb216 O235 2.418 . S
Tb216 O236 2.384 1_655 S
Tb216 O239 2.479 . S
Tb216 O240 2.471 . S
Eu217 O228 2.418 . S
Eu217 O229 2.384 1_455 S
Eu217 O232 2.479 . S
Eu217 O233 2.471 . S
Eu217 O234 2.347 . S
Eu217 O237 2.366 . S
Eu217 C247 2.825 . S
C218 O234 1.259 1_655 S
C218 O235 1.265 . S
C219 O236 1.255 . S
C219 O237 1.265 . S
C220 C222 1.380 . S
C220 C223 1.374 . S
C220 C226 1.507 . S
C221 C222 1.384 . S
C221 C225 1.387 . S
C221 H248 0.930 . S
C222 C220 1.380 . S
C222 C221 1.384 . S
C222 H249 0.931 . S
C223 C220 1.374 . S
C223 C224 1.390 . S
C223 H250 0.930 . S
C224 C223 1.390 . S
C224 C225 1.391 . S
C224 H251 0.930 . S
C225 C221 1.387 . S
C225 C224 1.391 . S
C226 Tb216 2.825 . S
C226 C220 1.507 . S
C226 O239 1.238 . S
C226 O240 1.247 . S
O227 Tb216 2.347 . S
O227 C231 1.259 1_655 S
O228 Eu217 2.418 . S
O228 C231 1.265 . S
O229 Eu217 2.384 1_655 S
O229 C238 1.255 . S
O230 Tb216 2.366 . S
O230 C238 1.265 . S
C231 O227 1.259 1_455 S
C231 O228 1.265 . S
O232 Eu217 2.479 . S
O232 C247 1.238 . S
O233 Eu217 2.471 . S
O233 C247 1.247 . S
O234 Eu217 2.347 . S
O234 C218 1.259 1_455 S
O235 Tb216 2.418 . S
O235 C218 1.265 . S
O236 Tb216 2.384 1_455 S
O236 C219 1.255 . S
O237 Eu217 2.366 . S
O237 C219 1.265 . S
C238 O229 1.255 . S
C238 O230 1.265 . S
O239 Tb216 2.479 . S
O239 C226 1.238 . S
O240 Tb216 2.471 . S
O240 C226 1.247 . S
C241 C244 1.380 . S
C241 C245 1.374 . S
C241 C247 1.507 . S
C242 C243 1.387 . S
C242 C246 1.391 . S
C243 C242 1.387 . S
C243 C244 1.384 . S
C243 H252 0.930 . S
C244 C241 1.380 . S
C244 C243 1.384 . S
C244 H253 0.931 . S
C245 C241 1.374 . S
C245 C246 1.390 . S
C245 H254 0.930 . S
C246 C242 1.391 . S
C246 C245 1.390 . S
C246 H255 0.930 . S
C247 Eu217 2.825 . S
C247 O232 1.238 . S
C247 O233 1.247 . S
C247 C241 1.507 . S
H248 C221 0.930 . S
H249 C222 0.931 . S
H250 C223 0.930 . S
H251 C224 0.930 . S
H252 C243 0.930 . S
H253 C244 0.931 . S
H254 C245 0.930 . S
H255 C246 0.930 . S
C256 C257 1.351 . S
C256 C258 1.327 . S
C256 H281 0.950 . S
C257 C256 1.351 . S
C257 C273 1.346 1_545 S
C258 C256 1.327 . S
C258 C277 1.437 . S
C258 H282 0.950 . S
C259 C276 1.574 . S
C259 C278 1.356 1_565 S
C259 H283 0.949 . S
H260 C264 0.949 . S
C261 C262 1.323 1_565 S
C261 C263 1.327 . S
C261 H284 0.950 . S
C262 C261 1.323 1_545 S
C262 C274 1.375 . S
C263 C261 1.327 . S
C263 C279 1.409 1_565 S
C263 H285 0.950 . S
C264 H260 0.949 . S
C264 C272 1.574 . S
C264 C280 1.387 . S
H265 C273 0.950 . S
H266 C271 0.950 . S
H267 C272 0.949 . S
H268 C274 0.950 . S
H269 C275 0.950 . S
H270 C276 0.949 . S
C271 H266 0.950 . S
C271 C273 1.327 . S
C271 C277 1.421 1_565 S
C272 C264 1.574 . S
C272 H267 0.949 . S
C272 C278 1.381 . S
C273 C257 1.346 1_565 S
C273 H265 0.950 . S
C273 C271 1.327 . S
C274 C262 1.375 . S
C274 H268 0.950 . S
C274 C275 1.327 . S
C275 H269 0.950 . S
C275 C274 1.327 . S
C275 C279 1.449 . S
C276 C259 1.574 . S
C276 H270 0.949 . S
C276 C280 1.350 1_565 S
C277 C258 1.437 . S
C277 C271 1.421 1_545 S
C277 C278 1.523 . S
C278 C259 1.356 1_545 S
C278 C272 1.381 . S
C278 C277 1.523 . S
C279 C263 1.409 1_545 S
C279 C275 1.449 . S
C279 C280 1.523 . S
C280 C264 1.387 . S
C280 C276 1.350 1_545 S
C280 C279 1.523 . S
H281 C256 0.950 . S
H282 C258 0.950 . S
H283 C259 0.949 . S
H284 C261 0.950 . S
H285 C263 0.950 . S
C286 C287 1.349 . S
C286 C288 1.327 . S
C286 H311 0.950 . S
C287 C286 1.349 . S
C287 C303 1.349 . S
C288 C286 1.327 . S
C288 C307 1.429 . S
C288 H312 0.950 . S
C289 C306 1.574 . S
C289 C308 1.368 . S
C289 H313 0.949 . S
H290 C294 0.949 . S
C291 C292 1.349 . S
C291 C293 1.327 . S
C291 H314 0.950 . S
C292 C291 1.349 . S
C292 C304 1.349 . S
C293 C291 1.327 . S
C293 C309 1.429 . S
C293 H315 0.950 . S
C294 H290 0.949 . S
C294 C302 1.574 . S
C294 C310 1.368 . S
H295 C303 0.950 . S
H296 C301 0.950 . S
H297 C302 0.949 . S
H298 C304 0.950 . S
H299 C305 0.950 . S
H300 C306 0.949 . S
C301 H296 0.950 . S
C301 C303 1.327 . S
C301 C307 1.429 . S
C302 C294 1.574 . S
C302 H297 0.949 . S
C302 C308 1.368 . S
C303 C287 1.349 . S
C303 H295 0.950 . S
C303 C301 1.327 . S
C304 C292 1.349 . S
C304 H298 0.950 . S
C304 C305 1.327 . S
C305 H299 0.950 . S
C305 C304 1.327 . S
C305 C309 1.429 . S
C306 C289 1.574 . S
C306 H300 0.949 . S
C306 C310 1.368 . S
C307 C288 1.429 . S
C307 C301 1.429 . S
C307 C308 1.523 . S
C308 C289 1.368 . S
C308 C302 1.368 . S
C308 C307 1.523 . S
C309 C293 1.429 . S
C309 C305 1.429 . S
C309 C310 1.523 . S
C310 C294 1.368 . S
C310 C306 1.368 . S
C310 C309 1.523 . S
H311 C286 0.950 . S
H312 C288 0.950 . S
H313 C289 0.949 . S
H314 C291 0.950 . S
H315 C293 0.950 . S
C316 C317 1.349 . S
C316 C318 1.327 . S
C316 H341 0.950 . S
C317 C316 1.349 . S
C317 C333 1.349 . S
C318 C316 1.327 . S
C318 C337 1.429 . S
C318 H342 0.950 . S
C319 C336 1.574 . S
C319 C338 1.368 . S
C319 H343 0.949 . S
H320 C324 0.949 . S
C321 C322 1.349 . S
C321 C323 1.327 . S
C321 H344 0.950 . S
C322 C321 1.349 . S
C322 C334 1.349 . S
C323 C321 1.327 . S
C323 C339 1.429 . S
C323 H345 0.950 . S
C324 H320 0.949 . S
C324 C332 1.574 . S
C324 C340 1.368 . S
H325 C333 0.950 . S
H326 C331 0.950 . S
H327 C332 0.949 . S
H328 C334 0.950 . S
H329 C335 0.950 . S
H330 C336 0.949 . S
C331 H326 0.950 . S
C331 C333 1.327 . S
C331 C337 1.429 . S
C332 C324 1.574 . S
C332 H327 0.949 . S
C332 C338 1.368 . S
C333 C317 1.349 . S
C333 H325 0.950 . S
C333 C331 1.327 . S
C334 C322 1.349 . S
C334 H328 0.950 . S
C334 C335 1.327 . S
C335 H329 0.950 . S
C335 C334 1.327 . S
C335 C339 1.429 . S
C336 C319 1.574 . S
C336 H330 0.949 . S
C336 C340 1.368 . S
C337 C318 1.429 . S
C337 C331 1.429 . S
C337 C338 1.523 . S
C338 C319 1.368 . S
C338 C332 1.368 . S
C338 C337 1.523 . S
C339 C323 1.429 . S
C339 C335 1.429 . S
C339 C340 1.523 . S
C340 C324 1.368 . S
C340 C336 1.368 . S
C340 C339 1.523 . S
H341 C316 0.950 . S
H342 C318 0.950 . S
H343 C319 0.949 . S
H344 C321 0.950 . S
H345 C323 0.950 . S
C346 C347 1.351 . S
C346 C348 1.327 . S
C346 H371 0.950 . S
C347 C346 1.351 . S
C347 C363 1.347 1_455 S
C348 C346 1.327 . S
C348 C367 1.436 . S
C348 H372 0.950 . S
C349 C366 1.574 . S
C349 C368 1.357 1_655 S
C349 H373 0.949 . S
H350 C354 0.949 . S
C351 C352 1.324 1_655 S
C351 C353 1.327 . S
C351 H374 0.950 . S
C352 C351 1.324 1_455 S
C352 C364 1.375 . S
C353 C351 1.327 . S
C353 C369 1.410 1_655 S
C353 H375 0.950 . S
C354 H350 0.949 . S
C354 C362 1.574 . S
C354 C370 1.386 . S
H355 C363 0.950 . S
H356 C361 0.950 . S
H357 C362 0.949 . S
H358 C364 0.950 . S
H359 C365 0.950 . S
H360 C366 0.949 . S
C361 H356 0.950 . S
C361 C363 1.327 . S
C361 C367 1.421 1_655 S
C362 C354 1.574 . S
C362 H357 0.949 . S
C362 C368 1.380 . S
C363 C347 1.347 1_655 S
C363 H355 0.950 . S
C363 C361 1.327 . S
C364 C352 1.375 . S
C364 H358 0.950 . S
C364 C365 1.327 . S
C365 H359 0.950 . S
C365 C364 1.327 . S
C365 C369 1.448 . S
C366 C349 1.574 . S
C366 H360 0.949 . S
C366 C370 1.351 1_655 S
C367 C348 1.436 . S
C367 C361 1.421 1_455 S
C367 C368 1.523 . S
C368 C349 1.357 1_455 S
C368 C362 1.380 . S
C368 C367 1.523 . S
C369 C353 1.410 1_455 S
C369 C365 1.448 . S
C369 C370 1.523 . S
C370 C354 1.386 . S
C370 C366 1.351 1_455 S
C370 C369 1.523 . S
H371 C346 0.950 . S
H372 C348 0.950 . S
H373 C349 0.949 . S
H374 C351 0.950 . S
H375 C353 0.950 . S
C376 C377 1.352 1_565 S
C376 C378 1.327 . S
C376 H401 0.950 . S
C377 C376 1.352 1_545 S
C377 C393 1.346 . S
C378 C376 1.327 . S
C378 C397 1.427 . S
C378 H402 0.950 . S
C379 C396 1.574 . S
C379 C398 1.366 1_545 S
C379 H403 0.949 . S
H380 C384 0.949 . S
C381 C382 1.332 1_545 S
C381 C383 1.327 . S
C381 H404 0.950 . S
C382 C381 1.332 1_565 S
C382 C394 1.365 . S
C383 C381 1.327 . S
C383 C399 1.418 1_545 S
C383 H405 0.950 . S
C384 H380 0.949 . S
C384 C392 1.574 1_556 S
C384 C400 1.376 1_556 S
H385 C393 0.950 . S
H386 C391 0.950 . S
H387 C392 0.949 . S
H388 C394 0.950 . S
H389 C395 0.950 . S
H390 C396 0.949 . S
C391 H386 0.950 . S
C391 C393 1.327 . S
C391 C397 1.430 1_545 S
C392 C384 1.574 1_554 S
C392 H387 0.949 . S
C392 C398 1.370 . S
C393 C377 1.346 . S
C393 H385 0.950 . S
C393 C391 1.327 . S
C394 C382 1.365 . S
C394 H388 0.950 . S
C394 C395 1.327 . S
C395 H389 0.950 . S
C395 C394 1.327 . S
C395 C399 1.439 . S
C396 C379 1.574 . S
C396 H390 0.949 . S
C396 C400 1.360 1_545 S
C397 C378 1.427 . S
C397 C391 1.430 1_565 S
C397 C398 1.523 . S
C398 C379 1.366 1_565 S
C398 C392 1.370 . S
C398 C397 1.523 . S
C399 C383 1.418 1_565 S
C399 C395 1.439 . S
C399 C400 1.523 1_556 S
C400 C384 1.376 1_554 S
C400 C396 1.360 1_565 S
C400 C399 1.523 1_554 S
H401 C376 0.950 . S
H402 C378 0.950 . S
H403 C379 0.949 . S
H404 C381 0.950 . S
H405 C383 0.950 . S
C406 C407 1.349 . S
C406 C408 1.327 . S
C406 H431 0.950 . S
C407 C406 1.349 . S
C407 C423 1.349 . S
C408 C406 1.327 . S
C408 C427 1.429 . S
C408 H432 0.950 . S
C409 C426 1.574 1_554 S
C409 C428 1.368 . S
C409 H433 0.949 . S
H410 C414 0.949 . S
C411 C412 1.349 . S
C411 C413 1.327 . S
C411 H434 0.950 . S
C412 C411 1.349 . S
C412 C424 1.349 . S
C413 C411 1.327 . S
C413 C429 1.429 . S
C413 H435 0.950 . S
C414 H410 0.949 . S
C414 C422 1.574 . S
C414 C430 1.368 . S
H415 C423 0.950 . S
H416 C421 0.950 . S
H417 C422 0.949 . S
H418 C424 0.950 . S
H419 C425 0.950 1_554 S
H420 C426 0.949 . S
C421 H416 0.950 . S
C421 C423 1.327 . S
C421 C427 1.429 . S
C422 C414 1.574 . S
C422 H417 0.949 . S
C422 C428 1.368 . S
C423 C407 1.349 . S
C423 H415 0.950 . S
C423 C421 1.327 . S
C424 C412 1.349 . S
C424 H418 0.950 . S
C424 C425 1.327 . S
C425 H419 0.950 1_556 S
C425 C424 1.327 . S
C425 C429 1.429 . S
C426 C409 1.574 1_556 S
C426 H420 0.949 . S
C426 C430 1.368 1_556 S
C427 C408 1.429 . S
C427 C421 1.429 . S
C427 C428 1.523 . S
C428 C409 1.368 . S
C428 C422 1.368 . S
C428 C427 1.523 . S
C429 C413 1.429 . S
C429 C425 1.429 . S
C429 C430 1.523 1_556 S
C430 C414 1.368 . S
C430 C426 1.368 1_554 S
C430 C429 1.523 1_554 S
H431 C406 0.950 . S
H432 C408 0.950 . S
H433 C409 0.949 . S
H434 C411 0.950 . S
H435 C413 0.950 . S
C436 C437 1.349 . S
C436 C438 1.327 . S
C436 H461 0.950 . S
C437 C436 1.349 . S
C437 C453 1.349 . S
C438 C436 1.327 . S
C438 C457 1.429 . S
C438 H462 0.950 . S
C439 C456 1.574 . S
C439 C458 1.368 . S
C439 H463 0.949 . S
H440 C444 0.949 . S
C441 C442 1.349 . S
C441 C443 1.327 . S
C441 H464 0.950 . S
C442 C441 1.349 . S
C442 C454 1.349 . S
C443 C441 1.327 . S
C443 C459 1.429 . S
C443 H465 0.950 . S
C444 H440 0.949 . S
C444 C452 1.574 1_556 S
C444 C460 1.368 1_556 S
H445 C453 0.950 . S
H446 C451 0.950 . S
H447 C452 0.949 . S
H448 C454 0.950 . S
H449 C455 0.950 . S
H450 C456 0.949 . S
C451 H446 0.950 . S
C451 C453 1.327 . S
C451 C457 1.429 . S
C452 C444 1.574 1_554 S
C452 H447 0.949 . S
C452 C458 1.368 . S
C453 C437 1.349 . S
C453 H445 0.950 . S
C453 C451 1.327 . S
C454 C442 1.349 . S
C454 H448 0.950 . S
C454 C455 1.327 . S
C455 H449 0.950 . S
C455 C454 1.327 . S
C455 C459 1.429 . S
C456 C439 1.574 . S
C456 H450 0.949 . S
C456 C460 1.368 . S
C457 C438 1.429 . S
C457 C451 1.429 . S
C457 C458 1.523 . S
C458 C439 1.368 . S
C458 C452 1.368 . S
C458 C457 1.523 . S
C459 C443 1.429 . S
C459 C455 1.429 . S
C459 C460 1.523 1_556 S
C460 C444 1.368 1_554 S
C460 C456 1.368 . S
C460 C459 1.523 1_554 S
H461 C436 0.950 . S
H462 C438 0.950 . S
H463 C439 0.949 . S
H464 C441 0.950 . S
H465 C443 0.950 . S
C466 C467 1.351 . S
C466 C468 1.327 . S
C466 H491 0.950 . S
C467 C466 1.351 . S
C467 C483 1.347 1_655 S
C468 C466 1.327 . S
C468 C487 1.436 . S
C468 H492 0.950 . S
C469 C486 1.574 1_554 S
C469 C488 1.357 1_455 S
C469 H493 0.949 . S
H470 C474 0.949 . S
C471 C472 1.326 1_455 S
C471 C473 1.327 . S
C471 H494 0.950 . S
C472 C471 1.326 1_655 S
C472 C484 1.373 . S
C473 C471 1.327 . S
C473 C489 1.411 1_455 S
C473 H495 0.950 . S
C474 H470 0.949 . S
C474 C482 1.574 . S
C474 C490 1.385 . S
H475 C483 0.950 . S
H476 C481 0.950 . S
H477 C482 0.949 . S
H478 C484 0.950 . S
H479 C485 0.958 . S
H480 C486 0.949 . S
C481 H476 0.950 . S
C481 C483 1.327 . S
C481 C487 1.421 1_455 S
C482 C474 1.574 . S
C482 H477 0.949 . S
C482 C488 1.379 . S
C483 C467 1.347 1_455 S
C483 H475 0.950 . S
C483 C481 1.327 . S
C484 C472 1.373 . S
C484 H478 0.950 . S
C484 C485 1.327 . S
C485 H479 0.958 . S
C485 C484 1.327 . S
C485 C489 1.447 . S
C486 C469 1.574 1_556 S
C486 H480 0.949 . S
C486 C490 1.352 1_456 S
C487 C468 1.436 . S
C487 C481 1.421 1_655 S
C487 C488 1.523 . S
C488 C469 1.357 1_655 S
C488 C482 1.379 . S
C488 C487 1.523 . S
C489 C473 1.411 1_655 S
C489 C485 1.447 . S
C489 C490 1.523 1_556 S
C490 C474 1.385 . S
C490 C486 1.352 1_654 S
C490 C489 1.523 1_554 S
H491 C466 0.950 . S
H492 C468 0.950 . S
H493 C469 0.949 . S
H494 C471 0.950 . S
H495 C473 0.950 . S
C496 C497 1.349 . S
C496 C498 1.327 . S
C496 H521 0.950 . S
C497 C496 1.349 . S
C497 C513 1.349 1_455 S
C498 C496 1.327 . S
C498 C517 1.429 1_455 S
C498 H522 0.950 . S
C499 C516 1.574 . S
C499 C518 1.368 . S
C499 H523 0.949 . S
H500 C504 0.949 1_455 S
C501 C502 1.349 . S
C501 C503 1.327 . S
C501 H524 0.950 . S
C502 C501 1.349 . S
C502 C514 1.349 . S
C503 C501 1.327 . S
C503 C519 1.429 . S
C503 H525 0.950 . S
C504 H500 0.949 1_655 S
C504 C512 1.574 1_655 S
C504 C520 1.368 . S
H505 C513 0.950 . S
H506 C511 0.950 . S
H507 C512 0.949 . S
H508 C514 0.950 . S
H509 C515 0.946 1_455 S
H510 C516 0.949 . S
C511 H506 0.950 . S
C511 C513 1.327 . S
C511 C517 1.429 . S
C512 C504 1.574 1_455 S
C512 H507 0.949 . S
C512 C518 1.368 1_455 S
C513 C497 1.349 1_655 S
C513 H505 0.950 . S
C513 C511 1.327 . S
C514 C502 1.349 . S
C514 H508 0.950 . S
C514 C515 1.327 . S
C515 H509 0.946 1_655 S
C515 C514 1.327 . S
C515 C519 1.429 . S
C516 C499 1.574 . S
C516 H510 0.949 . S
C516 C520 1.368 . S
C517 C498 1.429 1_655 S
C517 C511 1.429 . S
C517 C518 1.523 . S
C518 C499 1.368 . S
C518 C512 1.368 1_655 S
C518 C517 1.523 . S
C519 C503 1.429 . S
C519 C515 1.429 . S
C519 C520 1.523 . S
C520 C504 1.368 . S
C520 C516 1.368 . S
C520 C519 1.523 . S
H521 C496 0.950 . S
H522 C498 0.950 . S
H523 C499 0.949 . S
H524 C501 0.950 . S
H525 C503 0.950 . S
C526 C527 1.382 . S
C526 C528 1.327 . S
C526 H551 0.950 . S
C527 C526 1.382 . S
C527 C543 1.310 1_545 S
C528 C526 1.327 . S
C528 C547 1.429 1_545 S
C528 H552 0.950 . S
C529 C546 1.574 . S
C529 C548 1.368 . S
C529 H553 0.949 . S
H530 C534 0.969 . S
C531 C532 1.349 . S
C531 C533 1.327 . S
C531 H554 0.950 . S
C532 C531 1.349 . S
C532 C544 1.349 . S
C533 C531 1.327 . S
C533 C549 1.429 . S
C533 H555 0.950 . S
C534 H530 0.969 . S
C534 C542 1.580 . S
C534 C550 1.342 1_545 S
H535 C543 0.950 . S
H536 C541 0.950 . S
H537 C542 0.949 . S
H538 C544 0.950 . S
H539 C545 0.950 1_545 S
H540 C546 0.949 . S
C541 H536 0.950 . S
C541 C543 1.327 . S
C541 C547 1.429 . S
C542 C534 1.580 . S
C542 H537 0.949 . S
C542 C548 1.368 1_545 S
C543 C527 1.310 1_565 S
C543 H535 0.950 . S
C543 C541 1.327 . S
C544 C532 1.349 . S
C544 H538 0.950 . S
C544 C545 1.327 . S
C545 H539 0.950 1_565 S
C545 C544 1.327 . S
C545 C549 1.429 . S
C546 C529 1.574 . S
C546 H540 0.949 . S
C546 C550 1.368 . S
C547 C528 1.429 1_565 S
C547 C541 1.429 . S
C547 C548 1.523 . S
C548 C529 1.368 . S
C548 C542 1.368 1_565 S
C548 C547 1.523 . S
C549 C533 1.429 . S
C549 C545 1.429 . S
C549 C550 1.523 . S
C550 C534 1.342 1_565 S
C550 C546 1.368 . S
C550 C549 1.523 . S
H551 C526 0.950 . S
H552 C528 0.950 . S
H553 C529 0.949 . S
H554 C531 0.950 . S
H555 C533 0.950 . S
C556 C557 1.349 . S
C556 C558 1.327 . S
C556 H581 0.950 . S
C557 C556 1.349 . S
C557 C573 1.349 . S
C558 C556 1.327 . S
C558 C577 1.429 . S
C558 H582 0.950 . S
C559 C576 1.574 . S
C559 C578 1.368 . S
C559 H583 0.949 . S
H560 C564 0.949 . S
C561 C562 1.349 . S
C561 C563 1.327 . S
C561 H584 0.950 . S
C562 C561 1.349 . S
C562 C574 1.349 . S
C563 C561 1.327 . S
C563 C579 1.429 . S
C563 H585 0.950 . S
C564 H560 0.949 . S
C564 C572 1.574 . S
C564 C580 1.368 . S
H565 C573 0.950 . S
H566 C571 0.950 . S
H567 C572 0.949 . S
H568 C574 0.950 . S
H569 C575 0.950 . S
H570 C576 0.949 . S
C571 H566 0.950 . S
C571 C573 1.327 . S
C571 C577 1.429 . S
C572 C564 1.574 . S
C572 H567 0.949 . S
C572 C578 1.368 . S
C573 C557 1.349 . S
C573 H565 0.950 . S
C573 C571 1.327 . S
C574 C562 1.349 . S
C574 H568 0.950 . S
C574 C575 1.327 . S
C575 H569 0.950 . S
C575 C574 1.327 . S
C575 C579 1.429 . S
C576 C559 1.574 . S
C576 H570 0.949 . S
C576 C580 1.368 . S
C577 C558 1.429 . S
C577 C571 1.429 . S
C577 C578 1.523 . S
C578 C559 1.368 . S
C578 C572 1.368 . S
C578 C577 1.523 . S
C579 C563 1.429 . S
C579 C575 1.429 . S
C579 C580 1.523 . S
C580 C564 1.368 . S
C580 C576 1.368 . S
C580 C579 1.523 . S
H581 C556 0.950 . S
H582 C558 0.950 . S
H583 C559 0.949 . S
H584 C561 0.950 . S
H585 C563 0.950 . S
C586 C587 1.349 . S
C586 C588 1.327 . S
C586 H611 0.950 . S
C587 C586 1.349 . S
C587 C603 1.349 . S
C588 C586 1.327 . S
C588 C607 1.429 . S
C588 H612 0.950 . S
C589 C606 1.574 . S
C589 C608 1.368 . S
C589 H613 0.949 . S
H590 C594 0.949 . S
C591 C592 1.349 . S
C591 C593 1.327 . S
C591 H614 0.950 . S
C592 C591 1.349 . S
C592 C604 1.349 . S
C593 C591 1.327 . S
C593 C609 1.429 . S
C593 H615 0.950 . S
C594 H590 0.949 . S
C594 C602 1.574 . S
C594 C610 1.368 . S
H595 C603 0.950 . S
H596 C601 0.950 . S
H597 C602 0.949 . S
H598 C604 0.950 . S
H599 C605 0.950 . S
H600 C606 0.949 . S
C601 H596 0.950 . S
C601 C603 1.327 . S
C601 C607 1.429 . S
C602 C594 1.574 . S
C602 H597 0.949 . S
C602 C608 1.368 . S
C603 C587 1.349 . S
C603 H595 0.950 . S
C603 C601 1.327 . S
C604 C592 1.349 . S
C604 H598 0.950 . S
C604 C605 1.327 . S
C605 H599 0.950 . S
C605 C604 1.327 . S
C605 C609 1.429 . S
C606 C589 1.574 . S
C606 H600 0.949 . S
C606 C610 1.368 . S
C607 C588 1.429 . S
C607 C601 1.429 . S
C607 C608 1.523 . S
C608 C589 1.368 . S
C608 C602 1.368 . S
C608 C607 1.523 . S
C609 C593 1.429 . S
C609 C605 1.429 . S
C609 C610 1.523 . S
C610 C594 1.368 . S
C610 C606 1.368 . S
C610 C609 1.523 . S
H611 C586 0.950 . S
H612 C588 0.950 . S
H613 C589 0.949 . S
H614 C591 0.950 . S
H615 C593 0.950 . S
C616 C617 1.349 1_455 S
C616 C618 1.327 . S
C616 H641 0.950 . S
C617 C616 1.349 1_655 S
C617 C633 1.349 . S
C618 C616 1.327 . S
C618 C637 1.429 . S
C618 H642 0.950 . S
C619 C636 1.574 . S
C619 C638 1.368 . S
C619 H643 0.949 . S
H620 C624 0.949 . S
C621 C622 1.349 1_554 S
C621 C623 1.327 . S
C621 H644 0.950 . S
C622 C621 1.349 1_556 S
C622 C634 1.349 . S
C623 C621 1.327 . S
C623 C639 1.429 . S
C623 H645 0.950 . S
C624 H620 0.949 . S
C624 C632 1.574 . S
C624 C640 1.368 . S
H625 C633 0.950 . S
H626 C631 0.951 . S
H627 C632 0.949 . S
H628 C634 0.950 . S
H629 C635 0.950 . S
H630 C636 0.949 . S
C631 H626 0.951 . S
C631 C633 1.327 1_455 S
C631 C637 1.429 . S
C632 C624 1.574 . S
C632 H627 0.949 . S
C632 C638 1.368 . S
C633 C617 1.349 . S
C633 H625 0.950 . S
C633 C631 1.327 1_655 S
C634 C622 1.349 . S
C634 H628 0.950 . S
C634 C635 1.327 . S
C635 H629 0.950 . S
C635 C634 1.327 . S
C635 C639 1.429 1_556 S
C636 C619 1.574 . S
C636 H630 0.949 . S
C636 C640 1.368 . S
C637 C618 1.429 . S
C637 C631 1.429 . S
C637 C638 1.523 . S
C638 C619 1.368 . S
C638 C632 1.368 . S
C638 C637 1.523 . S
C639 C623 1.429 . S
C639 C635 1.429 1_554 S
C639 C640 1.523 . S
C640 C624 1.368 . S
C640 C636 1.368 . S
C640 C639 1.523 . S
H641 C616 0.950 . S
H642 C618 0.950 . S
H643 C619 0.949 . S
H644 C621 0.950 . S
H645 C623 0.950 . S
C646 C647 1.329 1_545 S
C646 C648 1.327 . S
C646 H671 0.950 . S
C647 C646 1.329 1_565 S
C647 C663 1.364 . S
C648 C646 1.327 . S
C648 C667 1.429 . S
C648 H672 0.950 . S
C649 C666 1.574 . S
C649 C668 1.368 . S
C649 H673 0.949 1_545 S
H650 C654 0.949 . S
C651 C652 1.349 1_554 S
C651 C653 1.327 . S
C651 H674 0.950 . S
C652 C651 1.349 1_556 S
C652 C664 1.349 . S
C653 C651 1.327 . S
C653 C669 1.429 . S
C653 H675 0.950 . S
C654 H650 0.949 . S
C654 C662 1.574 . S
C654 C670 1.368 . S
H655 C663 0.950 . S
H656 C661 0.950 . S
H657 C662 0.949 . S
H658 C664 0.950 . S
H659 C665 0.950 . S
H660 C666 0.962 . S
C661 H656 0.950 . S
C661 C663 1.327 . S
C661 C667 1.429 1_565 S
C662 C654 1.574 . S
C662 H657 0.949 . S
C662 C668 1.368 . S
C663 C647 1.364 . S
C663 H655 0.950 . S
C663 C661 1.327 . S
C664 C652 1.349 . S
C664 H658 0.950 . S
C664 C665 1.327 . S
C665 H659 0.950 . S
C665 C664 1.327 . S
C665 C669 1.429 1_556 S
C666 C649 1.574 . S
C666 H660 0.962 . S
C666 C670 1.368 . S
C667 C648 1.429 . S
C667 C661 1.429 1_545 S
C667 C668 1.523 . S
C668 C649 1.368 . S
C668 C662 1.368 . S
C668 C667 1.523 . S
C669 C653 1.429 . S
C669 C665 1.429 1_554 S
C669 C670 1.523 . S
C670 C654 1.368 . S
C670 C666 1.368 . S
C670 C669 1.523 . S
H671 C646 0.950 . S
H672 C648 0.950 . S
H673 C649 0.949 1_565 S
H674 C651 0.950 . S
H675 C653 0.950 . S
C676 C677 1.349 . S
C676 C678 1.327 . S
C676 H701 0.950 . S
C677 C676 1.349 . S
C677 C693 1.349 . S
C678 C676 1.327 . S
C678 C697 1.429 . S
C678 H702 0.950 . S
C679 C696 1.574 . S
C679 C698 1.368 . S
C679 H703 0.949 . S
H680 C684 0.949 . S
C681 C682 1.349 . S
C681 C683 1.327 . S
C681 H704 0.950 . S
C682 C681 1.349 . S
C682 C694 1.349 1_556 S
C683 C681 1.327 . S
C683 C699 1.429 1_556 S
C683 H705 0.950 . S
C684 H680 0.949 . S
C684 C692 1.574 . S
C684 C700 1.368 . S
H685 C693 0.950 . S
H686 C691 0.950 . S
H687 C692 0.949 . S
H688 C694 0.950 . S
H689 C695 0.950 . S
H690 C696 0.949 . S
C691 H686 0.950 . S
C691 C693 1.327 . S
C691 C697 1.429 . S
C692 C684 1.574 . S
C692 H687 0.949 . S
C692 C698 1.368 . S
C693 C677 1.349 . S
C693 H685 0.950 . S
C693 C691 1.327 . S
C694 C682 1.349 1_554 S
C694 H688 0.950 . S
C694 C695 1.327 . S
C695 H689 0.950 . S
C695 C694 1.327 . S
C695 C699 1.429 . S
C696 C679 1.574 . S
C696 H690 0.949 . S
C696 C700 1.368 . S
C697 C678 1.429 . S
C697 C691 1.429 . S
C697 C698 1.523 . S
C698 C679 1.368 . S
C698 C692 1.368 . S
C698 C697 1.523 . S
C699 C683 1.429 1_554 S
C699 C695 1.429 . S
C699 C700 1.523 . S
C700 C684 1.368 . S
C700 C696 1.368 . S
C700 C699 1.523 . S
H701 C676 0.950 . S
H702 C678 0.950 . S
H703 C679 0.949 . S
H704 C681 0.950 . S
H705 C683 0.950 . S
C706 C707 1.349 . S
C706 C708 1.327 . S
C706 H731 0.950 . S
C707 C706 1.349 . S
C707 C723 1.349 . S
C708 C706 1.327 . S
C708 C727 1.429 . S
C708 H732 0.950 . S
C709 C726 1.574 . S
C709 C728 1.368 . S
C709 H733 0.949 . S
H710 C714 0.949 . S
C711 C712 1.345 1_554 S
C711 C713 1.335 . S
C711 H734 0.946 1_554 S
C712 C711 1.345 1_556 S
C712 C724 1.349 . S
C713 C711 1.335 . S
C713 C729 1.429 . S
C713 H735 0.950 . S
C714 H710 0.949 . S
C714 C722 1.574 . S
C714 C730 1.368 . S
H715 C723 0.950 . S
H716 C721 0.950 . S
H717 C722 0.949 . S
H718 C724 0.950 . S
H719 C725 0.950 . S
H720 C726 0.949 . S
C721 H716 0.950 . S
C721 C723 1.327 . S
C721 C727 1.429 . S
C722 C714 1.574 . S
C722 H717 0.949 . S
C722 C728 1.368 . S
C723 C707 1.349 . S
C723 H715 0.950 . S
C723 C721 1.327 . S
C724 C712 1.349 . S
C724 H718 0.950 . S
C724 C725 1.327 1_556 S
C725 H719 0.950 . S
C725 C724 1.327 1_554 S
C725 C729 1.429 . S
C726 C709 1.574 . S
C726 H720 0.949 . S
C726 C730 1.368 . S
C727 C708 1.429 . S
C727 C721 1.429 . S
C727 C728 1.523 . S
C728 C709 1.368 . S
C728 C722 1.368 . S
C728 C727 1.523 . S
C729 C713 1.429 . S
C729 C725 1.429 . S
C729 C730 1.523 . S
C730 C714 1.368 . S
C730 C726 1.368 . S
C730 C729 1.523 . S
H731 C706 0.950 . S
H732 C708 0.950 . S
H733 C709 0.949 . S
H734 C711 0.946 1_556 S
H735 C713 0.950 . S
C736 C737 1.314 1_655 S
C736 C738 1.327 . S
C736 H761 0.950 . S
C737 C736 1.314 1_455 S
C737 C753 1.386 . S
C738 C736 1.327 . S
C738 C757 1.429 1_655 S
C738 H762 0.950 . S
C739 C756 1.574 . S
C739 C758 1.368 . S
C739 H763 0.949 . S
H740 C744 0.949 . S
C741 C742 1.349 . S
C741 C743 1.327 . S
C741 H764 0.950 . S
C742 C741 1.349 . S
C742 C754 1.349 1_455 S
C743 C741 1.327 . S
C743 C759 1.429 . S
C743 H765 0.950 . S
C744 H740 0.949 . S
C744 C752 1.574 . S
C744 C760 1.368 1_655 S
H745 C753 0.950 . S
H746 C751 0.950 . S
H747 C752 0.949 . S
H748 C754 0.950 . S
H749 C755 0.950 . S
H750 C756 0.949 . S
C751 H746 0.950 . S
C751 C753 1.327 . S
C751 C757 1.429 . S
C752 C744 1.574 . S
C752 H747 0.949 . S
C752 C758 1.368 1_655 S
C753 C737 1.386 . S
C753 H745 0.950 . S
C753 C751 1.327 . S
C754 C742 1.349 1_655 S
C754 H748 0.950 . S
C754 C755 1.327 . S
C755 H749 0.950 . S
C755 C754 1.327 . S
C755 C759 1.429 1_655 S
C756 C739 1.574 . S
C756 H750 0.949 . S
C756 C760 1.368 . S
C757 C738 1.429 1_455 S
C757 C751 1.429 . S
C757 C758 1.523 . S
C758 C739 1.368 . S
C758 C752 1.368 1_455 S
C758 C757 1.523 . S
C759 C743 1.429 . S
C759 C755 1.429 1_455 S
C759 C760 1.523 . S
C760 C744 1.368 1_455 S
C760 C756 1.368 . S
C760 C759 1.523 . S
H761 C736 0.950 . S
H762 C738 0.950 . S
H763 C739 0.949 . S
H764 C741 0.950 . S
H765 C743 0.950 . S
C766 C767 1.341 1_565 S
C766 C768 1.327 . S
C766 H791 0.950 1_556 S
C767 C766 1.341 1_545 S
C767 C783 1.361 . S
C768 C766 1.327 . S
C768 C787 1.429 1_565 S
C768 H792 0.950 . S
C769 C786 1.574 . S
C769 C788 1.368 . S
C769 H793 0.949 . S
H770 C774 0.949 . S
C771 C772 1.349 . S
C771 C773 1.327 . S
C771 H794 0.950 . S
C772 C771 1.349 . S
C772 C784 1.349 . S
C773 C771 1.327 . S
C773 C789 1.429 . S
C773 H795 0.950 . S
C774 H770 0.949 . S
C774 C782 1.573 . S
C774 C790 1.369 1_565 S
H775 C783 0.950 . S
H776 C781 0.950 . S
H777 C782 0.962 . S
H778 C784 0.950 1_565 S
H779 C785 0.950 1_565 S
H780 C786 0.949 . S
C781 H776 0.950 . S
C781 C783 1.327 . S
C781 C787 1.429 . S
C782 C774 1.573 . S
C782 H777 0.962 . S
C782 C788 1.358 1_565 S
C783 C767 1.361 . S
C783 H775 0.950 . S
C783 C781 1.327 . S
C784 C772 1.349 . S
C784 H778 0.950 1_545 S
C784 C785 1.327 . S
C785 H779 0.950 1_545 S
C785 C784 1.327 . S
C785 C789 1.429 . S
C786 C769 1.574 . S
C786 H780 0.949 . S
C786 C790 1.368 . S
C787 C768 1.429 1_545 S
C787 C781 1.429 . S
C787 C788 1.523 . S
C788 C769 1.368 . S
C788 C782 1.358 1_545 S
C788 C787 1.523 . S
C789 C773 1.429 . S
C789 C785 1.429 . S
C789 C790 1.523 . S
C790 C774 1.369 1_545 S
C790 C786 1.368 . S
C790 C789 1.523 . S
H791 C766 0.950 1_554 S
H792 C768 0.950 . S
H793 C769 0.949 . S
H794 C771 0.950 . S
H795 C773 0.950 . S
C796 C797 1.349 . S
C796 C798 1.327 . S
C796 H821 0.950 . S
C797 C796 1.349 . S
C797 C813 1.349 . S
C798 C796 1.327 . S
C798 C817 1.429 . S
C798 H822 0.950 . S
C799 C816 1.574 . S
C799 C818 1.368 . S
C799 H823 0.949 . S
H800 C804 0.949 . S
C801 C802 1.349 . S
C801 C803 1.327 . S
C801 H824 0.950 . S
C802 C801 1.349 . S
C802 C814 1.349 . S
C803 C801 1.327 . S
C803 C819 1.429 . S
C803 H825 0.950 . S
C804 H800 0.949 . S
C804 C812 1.574 . S
C804 C820 1.368 . S
H805 C813 0.950 . S
H806 C811 0.950 . S
H807 C812 0.949 . S
H808 C814 0.950 . S
H809 C815 0.950 . S
H810 C816 0.949 . S
C811 H806 0.950 . S
C811 C813 1.327 . S
C811 C817 1.429 . S
C812 C804 1.574 . S
C812 H807 0.949 . S
C812 C818 1.368 . S
C813 C797 1.349 . S
C813 H805 0.950 . S
C813 C811 1.327 . S
C814 C802 1.349 . S
C814 H808 0.950 . S
C814 C815 1.327 . S
C815 H809 0.950 . S
C815 C814 1.327 . S
C815 C819 1.429 . S
C816 C799 1.574 . S
C816 H810 0.949 . S
C816 C820 1.368 . S
C817 C798 1.429 . S
C817 C811 1.429 . S
C817 C818 1.523 . S
C818 C799 1.368 . S
C818 C812 1.368 . S
C818 C817 1.523 . S
C819 C803 1.429 . S
C819 C815 1.429 . S
C819 C820 1.523 . S
C820 C804 1.368 . S
C820 C816 1.368 . S
C820 C819 1.523 . S
H821 C796 0.950 . S
H822 C798 0.950 . S
H823 C799 0.949 . S
H824 C801 0.950 . S
H825 C803 0.950 . S
C826 C827 1.349 . S
C826 C828 1.327 . S
C826 H851 0.950 . S
C827 C826 1.349 . S
C827 C843 1.349 . S
C828 C826 1.327 . S
C828 C847 1.429 . S
C828 H852 0.950 . S
C829 C846 1.574 . S
C829 C848 1.368 . S
C829 H853 0.949 . S
H830 C834 0.949 . S
C831 C832 1.349 . S
C831 C833 1.327 . S
C831 H854 0.950 . S
C832 C831 1.349 . S
C832 C844 1.349 . S
C833 C831 1.327 . S
C833 C849 1.429 . S
C833 H855 0.950 . S
C834 H830 0.949 . S
C834 C842 1.574 . S
C834 C850 1.368 . S
H835 C843 0.950 1_554 S
H836 C841 0.950 . S
H837 C842 0.949 . S
H838 C844 0.950 . S
H839 C845 0.950 . S
H840 C846 0.949 . S
C841 H836 0.950 . S
C841 C843 1.327 . S
C841 C847 1.429 . S
C842 C834 1.574 . S
C842 H837 0.949 . S
C842 C848 1.368 . S
C843 C827 1.349 . S
C843 H835 0.950 1_556 S
C843 C841 1.327 . S
C844 C832 1.349 . S
C844 H838 0.950 . S
C844 C845 1.327 . S
C845 H839 0.950 . S
C845 C844 1.327 . S
C845 C849 1.429 . S
C846 C829 1.574 . S
C846 H840 0.949 . S
C846 C850 1.368 . S
C847 C828 1.429 . S
C847 C841 1.429 . S
C847 C848 1.523 . S
C848 C829 1.368 . S
C848 C842 1.368 . S
C848 C847 1.523 . S
C849 C833 1.429 . S
C849 C845 1.429 . S
C849 C850 1.523 . S
C850 C834 1.368 . S
C850 C846 1.368 . S
C850 C849 1.523 . S
H851 C826 0.950 . S
H852 C828 0.950 . S
H853 C829 0.949 . S
H854 C831 0.950 . S
H855 C833 0.950 . S
C856 C857 1.377 . S
C856 C858 1.327 . S
C856 H881 0.950 . S
C857 C856 1.377 . S
C857 C873 1.324 1_655 S
C858 C856 1.327 . S
C858 C877 1.429 . S
C858 H882 0.950 . S
C859 C876 1.574 . S
C859 C878 1.368 1_455 S
C859 H883 0.949 . S
H860 C864 0.949 . S
C861 C862 1.349 1_455 S
C861 C863 1.327 . S
C861 H884 0.950 . S
C862 C861 1.349 1_655 S
C862 C874 1.349 . S
C863 C861 1.327 . S
C863 C879 1.429 1_455 S
C863 H885 0.950 . S
C864 H860 0.949 . S
C864 C872 1.574 . S
C864 C880 1.368 . S
H865 C873 0.950 . S
H866 C871 0.950 . S
H867 C872 0.949 . S
H868 C874 0.950 . S
H869 C875 0.950 . S
H870 C876 0.949 . S
C871 H866 0.950 . S
C871 C873 1.327 . S
C871 C877 1.429 1_455 S
C872 C864 1.574 . S
C872 H867 0.949 . S
C872 C878 1.368 . S
C873 C857 1.324 1_455 S
C873 H865 0.950 . S
C873 C871 1.327 . S
C874 C862 1.349 . S
C874 H868 0.950 . S
C874 C875 1.327 . S
C875 H869 0.950 . S
C875 C874 1.327 . S
C875 C879 1.429 . S
C876 C859 1.574 . S
C876 H870 0.949 . S
C876 C880 1.368 1_455 S
C877 C858 1.429 . S
C877 C871 1.429 1_655 S
C877 C878 1.523 . S
C878 C859 1.368 1_655 S
C878 C872 1.368 . S
C878 C877 1.523 . S
C879 C863 1.429 1_655 S
C879 C875 1.429 . S
C879 C880 1.523 . S
C880 C864 1.368 . S
C880 C876 1.368 1_655 S
C880 C879 1.523 . S
H881 C856 0.950 . S
H882 C858 0.950 . S
H883 C859 0.949 . S
H884 C861 0.950 . S
H885 C863 0.950 . S
C886 C887 1.349 . S
C886 C888 1.326 . S
C886 H911 0.948 1_565 S
C887 C886 1.349 . S
C887 C903 1.351 . S
C888 C886 1.326 . S
C888 C907 1.433 . S
C888 H912 0.949 . S
C889 C906 1.574 . S
C889 C908 1.368 . S
C889 H913 0.949 . S
H890 C894 0.949 . S
C891 C892 1.349 . S
C891 C893 1.327 . S
C891 H914 0.950 . S
C892 C891 1.349 . S
C892 C904 1.349 . S
C893 C891 1.327 . S
C893 C909 1.429 . S
C893 H915 0.950 . S
C894 H890 0.949 . S
C894 C902 1.574 . S
C894 C910 1.368 . S
H895 C903 0.950 . S
H896 C901 0.950 . S
H897 C902 0.949 . S
H898 C904 0.950 . S
H899 C905 0.950 . S
H900 C906 0.949 . S
C901 H896 0.950 . S
C901 C903 1.327 . S
C901 C907 1.429 . S
C902 C894 1.574 . S
C902 H897 0.949 . S
C902 C908 1.368 . S
C903 C887 1.351 . S
C903 H895 0.950 . S
C903 C901 1.327 . S
C904 C892 1.349 . S
C904 H898 0.950 . S
C904 C905 1.327 . S
C905 H899 0.950 . S
C905 C904 1.327 . S
C905 C909 1.429 . S
C906 C889 1.574 . S
C906 H900 0.949 . S
C906 C910 1.368 . S
C907 C888 1.433 . S
C907 C901 1.429 . S
C907 C908 1.523 . S
C908 C889 1.368 . S
C908 C902 1.368 . S
C908 C907 1.523 . S
C909 C893 1.429 . S
C909 C905 1.429 . S
C909 C910 1.523 . S
C910 C894 1.368 . S
C910 C906 1.368 . S
C910 C909 1.523 . S
H911 C886 0.948 1_545 S
H912 C888 0.949 . S
H913 C889 0.949 . S
H914 C891 0.950 . S
H915 C893 0.950 . S
C916 C917 1.349 . S
C916 C918 1.327 . S
C916 H941 0.950 . S
C917 C916 1.349 . S
C917 C933 1.349 . S
C918 C916 1.327 . S
C918 C937 1.429 . S
C918 H942 0.950 . S
C919 C936 1.574 . S
C919 C938 1.368 . S
C919 H943 0.949 . S
H920 C924 0.949 . S
C921 C922 1.349 . S
C921 C923 1.327 . S
C921 H944 0.950 . S
C922 C921 1.349 . S
C922 C934 1.349 . S
C923 C921 1.327 . S
C923 C939 1.429 . S
C923 H945 0.950 . S
C924 H920 0.949 . S
C924 C932 1.574 . S
C924 C940 1.368 . S
H925 C933 0.950 . S
H926 C931 0.950 . S
H927 C932 0.949 . S
H928 C934 0.950 . S
H929 C935 0.950 . S
H930 C936 0.949 . S
C931 H926 0.950 . S
C931 C933 1.327 . S
C931 C937 1.429 . S
C932 C924 1.574 . S
C932 H927 0.949 . S
C932 C938 1.368 . S
C933 C917 1.349 . S
C933 H925 0.950 . S
C933 C931 1.327 . S
C934 C922 1.349 . S
C934 H928 0.950 . S
C934 C935 1.327 . S
C935 H929 0.950 . S
C935 C934 1.327 . S
C935 C939 1.429 . S
C936 C919 1.574 . S
C936 H930 0.949 . S
C936 C940 1.368 . S
C937 C918 1.429 . S
C937 C931 1.429 . S
C937 C938 1.523 . S
C938 C919 1.368 . S
C938 C932 1.368 . S
C938 C937 1.523 . S
C939 C923 1.429 . S
C939 C935 1.429 . S
C939 C940 1.523 . S
C940 C924 1.368 . S
C940 C936 1.368 . S
C940 C939 1.523 . S
H941 C916 0.950 . S
H942 C918 0.950 . S
H943 C919 0.949 . S
H944 C921 0.950 . S
H945 C923 0.950 . S
C946 C947 1.349 . S
C946 C948 1.327 . S
C946 H971 0.950 . S
C947 C946 1.349 . S
C947 C963 1.349 . S
C948 C946 1.327 . S
C948 C967 1.429 . S
C948 H972 0.950 . S
C949 C966 1.574 . S
C949 C968 1.368 . S
C949 H973 0.949 . S
H950 C954 0.949 . S
C951 C952 1.349 . S
C951 C953 1.327 . S
C951 H974 0.950 . S
C952 C951 1.349 . S
C952 C964 1.349 . S
C953 C951 1.327 . S
C953 C969 1.429 . S
C953 H975 0.950 . S
C954 H950 0.949 . S
C954 C962 1.574 . S
C954 C970 1.368 . S
H955 C963 0.950 . S
H956 C961 0.950 . S
H957 C962 0.949 . S
H958 C964 0.950 . S
H959 C965 0.950 . S
H960 C966 0.949 . S
C961 H956 0.950 . S
C961 C963 1.327 . S
C961 C967 1.429 . S
C962 C954 1.574 . S
C962 H957 0.949 . S
C962 C968 1.368 . S
C963 C947 1.349 . S
C963 H955 0.950 . S
C963 C961 1.327 . S
C964 C952 1.349 . S
C964 H958 0.950 . S
C964 C965 1.327 . S
C965 H959 0.950 . S
C965 C964 1.327 . S
C965 C969 1.429 . S
C966 C949 1.574 . S
C966 H960 0.949 . S
C966 C970 1.368 . S
C967 C948 1.429 . S
C967 C961 1.429 . S
C967 C968 1.523 . S
C968 C949 1.368 . S
C968 C962 1.368 . S
C968 C967 1.523 . S
C969 C953 1.429 . S
C969 C965 1.429 . S
C969 C970 1.523 . S
C970 C954 1.368 . S
C970 C966 1.368 . S
C970 C969 1.523 . S
H971 C946 0.950 . S
H972 C948 0.950 . S
H973 C949 0.949 . S
H974 C951 0.950 . S
H975 C953 0.950 . S
C257 C76 1.750 1_545 S
C262 C98 1.853 1_545 S
C292 C138 1.862 . S
C287 C88 1.747 . S
C322 C178 1.864 . S
C317 C52 1.754 . S
C352 C218 1.859 1_455 S
C347 C64 1.751 1_455 S
C382 C111 1.858 1_565 S
C377 C28 1.755 1_545 S
C407 C40 1.752 . S
C412 C151 1.866 . S
C437 C4 1.753 . S
C442 C191 1.863 . S
C467 C16 1.751 . S
C472 C231 1.859 1_655 S
C502 C122 0.300 . S
C497 C69 0.372 . S
C532 C162 0.304 . S
C527 C81 0.370 . S
C562 C202 0.307 . S
C557 C93 0.373 . S
C587 C57 0.371 . S
C592 C242 0.297 . S
C617 C21 0.376 1_655 S
C622 C105 0.302 . S
C652 C145 0.304 . S
C647 C33 0.370 1_565 S
C682 C185 0.307 . S
C677 C45 0.384 . S
C707 C9 0.381 . S
C712 C225 0.309 . S
C737 C66 1.904 . S
C742 C99 2.100 . S
C767 C78 1.897 . S
C772 C139 2.099 . S
C802 C179 2.095 . S
C797 C90 1.892 . S
C832 C219 2.102 . S
C827 C54 1.893 . S
C857 C18 1.903 1_655 S
C862 C118 2.113 . S
C892 C158 2.099 . S
C887 C30 1.896 1_565 S
C922 C198 2.095 . S
C917 C42 1.896 . S
C947 C6 1.903 . S
C952 C238 2.109 . S
