# Generated by pormake.
# Topology pts, (4,4)-cn, num edge types: 1
# Building blocks:
#     Node 0, Type 0, BuildingBlock: NAHDIM_clean_linker_0, # of connection points: 4
#     Node 1, Type 0, BuildingBlock: NAHDIM_clean_linker_0, # of connection points: 4
#     Node 2, Type 1, BuildingBlock: UXUYUI_clean_sbu_0, # of connection points: 4
#     Node 3, Type 1, BuildingBlock: UXUYUI_clean_sbu_0, # of connection points: 4
#     Edge 4, Type (0, 1), BuildingBlock: ZUJKAS_clean_linker_0, # of connection points: 2
#     Edge 5, Type (0, 1), BuildingBlock: ZUJKAS_clean_linker_0, # of connection points: 2
#     Edge 6, Type (0, 1), BuildingBlock: ZUJKAS_clean_linker_0, # of connection points: 2
#     Edge 7, Type (0, 1), BuildingBlock: ZUJKAS_clean_linker_0, # of connection points: 2
#     Edge 8, Type (0, 1), BuildingBlock: ZUJKAS_clean_linker_0, # of connection points: 2
#     Edge 9, Type (0, 1), BuildingBlock: ZUJKAS_clean_linker_0, # of connection points: 2
#     Edge 10, Type (0, 1), BuildingBlock: ZUJKAS_clean_linker_0, # of connection points: 2
#     Edge 11, Type (0, 1), BuildingBlock: ZUJKAS_clean_linker_0, # of connection points: 2
# Relax obj value: 0.021
# Max RMSD: 0.066
# Mean RMSD: 0.065
data_MOF--net-pts--node1-UXUYUI_clean_sbu_0--node2-NAHDIM_clean_linker_0--edge1-ZUJKAS_clean_linker_0
_symmetry_space_group_name_H-M    P1
_symmetry_Int_Tables_number       1
_symmetry_cell_setting            triclinic
loop_
_symmetry_equiv_pos_as_xyz
'x, y, z'
_cell_length_a     45.026934
_cell_length_b     45.041934
_cell_length_c     73.250305
_cell_angle_alpha  90.35995
_cell_angle_beta   89.584511
_cell_angle_gamma 90.012721
loop_
_atom_site_label
_atom_site_type_symbol
_atom_site_fract_x
_atom_site_fract_y
_atom_site_fract_z
_atom_type_partial_charge
C0 C 0.73017 0.08513 0.06483 0.0
C1 C 0.7194 0.06433 0.08001 0.0
C2 C 0.68439 0.03041 0.0647 0.0
C3 C 0.68002 0.00115 0.05886 0.0
C4 C 0.65357 0.99246 0.05032 0.0
C5 C 0.63105 0.01375 0.04743 0.0
C6 C 0.6352 0.04339 0.05335 0.0
C7 C 0.66177 0.05143 0.06197 0.0
C8 C 0.64975 0.96063 0.04426 0.0
C9 C 0.61159 0.06664 0.05043 0.0
C10 C 0.47787 0.93039 0.12166 0.0
C11 C 0.46672 0.95631 0.1102 0.0
C12 C 0.48575 0.95855 0.07911 0.0
C13 C 0.49119 0.98905 0.07735 0.0
C14 C 0.51186 -0.00046 0.06447 0.0
C15 C 0.52755 0.97901 0.05331 0.0
C16 C 0.52141 0.94825 0.05475 0.0
C17 C 0.5001 0.9385 0.06743 0.0
C18 C 0.51728 0.0325 0.06304 0.0
C19 C 0.53795 0.9256 0.0433 0.0
C20 C 0.45314 0.98335 0.94003 0.0
C21 C 0.46285 0.01208 0.94463 0.0
C22 C 0.49099 0.01667 0.95224 0.0
C23 C 0.50993 0.99211 0.95509 0.0
C24 C 0.50077 0.96334 0.9497 0.0
C25 C 0.47249 0.95939 0.94212 0.0
C26 C 0.50044 0.04774 0.95741 0.0
C27 C 0.52065 0.93677 0.95229 0.0
C28 C 0.73557 0.0386 0.94098 0.0
C29 C 0.7239 0.01865 0.92561 0.0
C30 C 0.67022 0.02265 0.92894 0.0
C31 C 0.65021 0.04587 0.93203 0.0
C32 C 0.62399 0.04136 0.94213 0.0
C33 C 0.6175 0.01273 0.94893 0.0
C34 C 0.63682 0.98876 0.94487 0.0
C35 C 0.66301 0.99398 0.93492 0.0
C36 C 0.60369 0.0673 0.94604 0.0
C37 C 0.63007 0.95774 0.95139 0.0
C38 C 0.60318 0.00521 0.03807 0.0
C39 C 0.57903 0.99641 0.04881 0.0
C40 C 0.55166 0.98946 0.04097 0.0
C41 C 0.54804 0.99175 0.02186 0.0
C42 C 0.52047 0.98637 0.01358 0.0
C43 C 0.51734 0.98814 0.99472 0.0
C44 C 0.54172 0.99514 0.98341 0.0
C45 C 0.53893 0.99651 0.96421 0.0
C46 C 0.56383 0.00259 0.95333 0.0
C47 C 0.59152 0.00804 0.96117 0.0
C48 C 0.5945 0.00795 0.98038 0.0
C49 C 0.62176 0.0146 0.98874 0.0
C50 C 0.62458 0.01405 0.00763 0.0
C51 C 0.60039 0.00636 0.01888 0.0
C52 C 0.57268 -0.0003 0.01076 0.0
C53 C 0.56962 0.00096 0.99151 0.0
C54 C 0.38484 0.97393 0.95397 0.0
C55 C 0.3995 0.99179 0.93864 0.0
O56 O 0.71074 0.03724 0.0727 0.0
O57 O 0.69619 0.02856 0.92014 0.0
O58 O 0.42567 0.97798 0.9332 0.0
O59 O 0.46681 0.94788 0.09195 0.0
H60 H 0.70035 0.07484 0.08733 0.0
H61 H 0.71198 0.08983 0.05514 0.0
H62 H 0.74888 0.07496 0.05704 0.0
H63 H 0.73766 0.1066 0.07079 0.0
H64 H 0.69752 0.98506 0.06102 0.0
H65 H 0.66461 0.0742 0.06635 0.0
H66 H 0.6293 0.95122 0.0505 0.0
H67 H 0.66898 0.94654 0.04803 0.0
H68 H 0.64703 0.95971 0.02921 0.0
H69 H 0.61837 0.08889 0.05553 0.0
H70 H 0.5908 0.05999 0.05755 0.0
H71 H 0.60655 0.06829 0.03565 0.0
H72 H 0.48223 0.9752 0.11256 0.0
H73 H 0.4782 0.93667 0.13636 0.0
H74 H 0.50082 0.92442 0.11737 0.0
H75 H 0.4634 0.9106 0.11985 0.0
H76 H 0.47927 0.00462 0.08603 0.0
H77 H 0.49538 0.91502 0.0688 0.0
H78 H 0.5393 0.03787 0.06892 0.0
H79 H 0.50012 0.04564 0.07048 0.0
H80 H 0.51763 0.03938 0.04851 0.0
H81 H 0.5327 0.90247 0.0474 0.0
H82 H 0.56228 0.92912 0.04445 0.0
H83 H 0.53198 0.92829 0.02874 0.0
H84 H 0.40376 0.01432 0.94426 0.0
H85 H 0.44881 0.03106 0.94209 0.0
H86 H 0.46504 0.9374 0.93818 0.0
H87 H 0.50485 0.04888 0.97229 0.0
H88 H 0.48337 0.06459 0.95403 0.0
H89 H 0.52144 0.05344 0.9502 0.0
H90 H 0.51061 0.91599 0.9469 0.0
H91 H 0.52524 0.93388 0.96705 0.0
H92 H 0.54227 0.94051 0.94529 0.0
H93 H 0.72244 0.99567 0.93097 0.0
H94 H 0.75797 0.03114 0.94527 0.0
H95 H 0.72043 0.0374 0.95299 0.0
H96 H 0.7369 0.06207 0.93646 0.0
H97 H 0.65574 0.06781 0.92705 0.0
H98 H 0.67766 0.97559 0.93177 0.0
H99 H 0.60139 0.07055 0.96102 0.0
H100 H 0.58122 0.06252 0.9406 0.0
H101 H 0.61199 0.08822 0.93988 0.0
H102 H 0.64565 0.94104 0.94553 0.0
H103 H 0.60703 0.95145 0.94767 0.0
H104 H 0.63163 0.95706 0.9665 0.0
H105 H 0.58158 0.99498 0.0635 0.0
H106 H 0.501 0.98074 0.02161 0.0
H107 H 0.4956 0.98369 0.98912 0.0
H108 H 0.56163 0.00302 0.9386 0.0
H109 H 0.64122 0.02045 0.98078 0.0
H110 H 0.64609 0.01943 0.01328 0.0
H111 H 0.36341 0.98429 0.95812 0.0
H112 H 0.39961 0.9736 0.96605 0.0
H113 H 0.38074 0.95064 0.94958 0.0
C114 C 0.10966 0.4339 0.6239 0.0
C115 C 0.09438 0.41352 0.61006 0.0
C116 C 0.10267 0.4332 0.57969 0.0
C117 C 0.0737 0.43507 0.57291 0.0
C118 C 0.0667 0.45538 0.55914 0.0
C119 C 0.08916 0.47422 0.55214 0.0
C120 C 0.11863 0.4716 0.55855 0.0
C121 C 0.12508 0.4507 0.57208 0.0
C122 C 0.03522 0.45708 0.5523 0.0
C123 C 0.14309 0.49148 0.55152 0.0
C124 C 0.98062 0.62685 0.60522 0.0
C125 C 0.00975 0.63628 0.59609 0.0
C126 C 0.02019 0.61789 0.56566 0.0
C127 C 0.05114 0.6149 0.56592 0.0
C128 C 0.06539 0.59346 0.55499 0.0
C129 C 0.04818 0.57431 0.54388 0.0
C130 C 0.01697 0.57819 0.54308 0.0
C131 C 0.00345 0.60045 0.55375 0.0
C132 C 0.09873 0.59054 0.55588 0.0
C133 C 0.99773 0.5579 0.53173 0.0
C134 C 0.07028 0.60962 0.42063 0.0
C135 C 0.09813 0.60547 0.42849 0.0
C136 C 0.10296 0.58291 0.44124 0.0
C137 C 0.07927 0.5639 0.44618 0.0
C138 C 0.05086 0.56819 0.43853 0.0
C139 C 0.04656 0.59115 0.42592 0.0
C140 C 0.13348 0.57917 0.44929 0.0
C141 C 0.02513 0.54829 0.44353 0.0
C142 C 0.16461 0.33594 0.44982 0.0
C143 C 0.13998 0.35258 0.4399 0.0
C144 C 0.13748 0.40681 0.44113 0.0
C145 C 0.15611 0.43089 0.44472 0.0
C146 C 0.14466 0.45778 0.45149 0.0
C147 C 0.11369 0.46073 0.45434 0.0
C148 C 0.09452 0.43695 0.44976 0.0
C149 C 0.10663 0.41018 0.44319 0.0
C150 C 0.1657 0.4828 0.45601 0.0
C151 C 0.06132 0.43969 0.45213 0.0
C152 C 0.08144 0.49802 0.53908 0.0
C153 C 0.06916 0.52409 0.54623 0.0
C154 C 0.06226 0.54806 0.53502 0.0
C155 C 0.06815 0.54626 0.51605 0.0
C156 C 0.06276 0.57037 0.50445 0.0
C157 C 0.0682 0.56813 0.48575 0.0
C158 C 0.07917 0.54166 0.47795 0.0
C159 C 0.0845 0.53901 0.45895 0.0
C160 C 0.09544 0.51236 0.45167 0.0
C161 C 0.10153 0.48817 0.46288 0.0
C162 C 0.09653 0.49042 0.48193 0.0
C163 C 0.10271 0.46659 0.49363 0.0
C164 C 0.09773 0.46898 0.51234 0.0
C165 C 0.08643 0.49531 0.52008 0.0
C166 C 0.0799 0.5196 0.50854 0.0
C167 C 0.08516 0.51721 0.48945 0.0
C168 C 0.03847 0.61543 0.38235 0.0
C169 C 0.04291 0.63842 0.39764 0.0
O170 O 0.10956 0.41467 0.59354 0.0
O171 O 0.15003 0.38082 0.43563 0.0
O172 O 0.06762 0.63137 0.40793 0.0
O173 O 0.00599 0.63664 0.57732 0.0
H174 H 0.07117 0.42159 0.60852 0.0
H175 H 0.10934 0.45714 0.61891 0.0
H176 H 0.13314 0.4271 0.62587 0.0
H177 H 0.09782 0.4332 0.63725 0.0
H178 H 0.0566 0.42064 0.57836 0.0
H179 H 0.14746 0.44871 0.57729 0.0
H180 H 0.02512 0.47843 0.55677 0.0
H181 H 0.02123 0.43862 0.55751 0.0
H182 H 0.03506 0.45654 0.53714 0.0
H183 H 0.1645 0.48759 0.55856 0.0
H184 H 0.1367 0.51512 0.55339 0.0
H185 H 0.14642 0.48755 0.53667 0.0
H186 H 0.02672 0.61943 0.59994 0.0
H187 H 0.98315 0.62643 0.6203 0.0
H188 H 0.97443 0.6042 0.60051 0.0
H189 H 0.96235 0.64234 0.6017 0.0
H190 H 0.06401 0.62902 0.57491 0.0
H191 H 0.97954 0.60323 0.55362 0.0
H192 H 0.10827 0.58719 0.54199 0.0
H193 H 0.10448 0.57083 0.56416 0.0
H194 H 0.10921 0.61038 0.56222 0.0
H195 H 0.97367 0.5624 0.53377 0.0
H196 H 0.00218 0.53436 0.53521 0.0
H197 H 0.00316 0.5608 0.51705 0.0
H198 H 0.02284 0.639 0.40658 0.0
H199 H 0.11625 0.61989 0.42442 0.0
H200 H 0.02472 0.59421 0.4202 0.0
H201 H 0.13196 0.579 0.46443 0.0
H202 H 0.14897 0.59709 0.44505 0.0
H203 H 0.14289 0.55751 0.44485 0.0
H204 H 0.00456 0.55404 0.43606 0.0
H205 H 0.02058 0.55002 0.45842 0.0
H206 H 0.03094 0.52481 0.44048 0.0
H207 H 0.12075 0.35362 0.44953 0.0
H208 H 0.15709 0.31322 0.45347 0.0
H209 H 0.17037 0.34796 0.4626 0.0
H210 H 0.18489 0.33429 0.44113 0.0
H211 H 0.17984 0.4282 0.44275 0.0
H212 H 0.09198 0.392 0.43963 0.0
H213 H 0.16308 0.48925 0.47059 0.0
H214 H 0.16018 0.50251 0.44767 0.0
H215 H 0.18927 0.47672 0.45341 0.0
H216 H 0.04929 0.42012 0.44658 0.0
H217 H 0.05325 0.45998 0.44519 0.0
H218 H 0.05581 0.44201 0.46686 0.0
H219 H 0.06489 0.52574 0.56081 0.0
H220 H 0.05426 0.59124 0.50973 0.0
H221 H 0.06358 0.58739 0.47746 0.0
H222 H 0.09947 0.51049 0.43708 0.0
H223 H 0.11149 0.44577 0.48847 0.0
H224 H 0.1028 0.4499 0.52068 0.0
H225 H 0.05853 0.61406 0.37345 0.0
H226 H 0.01906 0.62158 0.37388 0.0
H227 H 0.0342 0.59309 0.38809 0.0
Li228 Li 0.08073 0.05246 0.26208 0.0
Li229 Li 0.07616 0.99837 0.2633 0.0
Li230 Li 0.10538 0.0241 0.23855 0.0
Li231 Li 0.05096 0.0253 0.2384 0.0
C232 C 0.12906 0.03459 0.27914 0.0
N233 N 0.16037 0.05989 0.30757 0.0
C234 C 0.12687 0.02276 0.29669 0.0
C235 C 0.14746 0.05906 0.276 0.0
C236 C 0.14283 0.03591 0.31089 0.0
C237 C 0.163 0.07162 0.29056 0.0
C238 C 0.01863 0.01979 0.27414 0.0
C239 C 0.97351 0.99091 0.27519 0.0
N240 N 0.96725 0.00237 0.292 0.0
C241 C 0.0115 0.03162 0.29131 0.0
C242 C 0.99928 -0.00045 0.26591 0.0
C243 C 0.98553 0.0224 0.30016 0.0
C244 C 0.08674 0.11424 0.26953 0.0
N245 N 0.08252 0.08708 0.27711 0.0
C246 C 0.0824 0.10827 0.30709 0.0
C247 C 0.08009 0.08373 0.29548 0.0
C248 C 0.08712 0.13662 0.29972 0.0
C249 C 0.08918 0.13945 0.28065 0.0
H250 H 0.08833 0.11632 0.25487 0.0
H251 H 0.07687 0.06185 0.30115 0.0
C252 C 0.08849 0.93933 0.27278 0.0
N253 N 0.07471 0.96447 0.27872 0.0
C254 C 0.08753 0.91357 0.28327 0.0
C255 C 0.05904 0.94031 0.30611 0.0
C256 C 0.06056 0.96555 0.29517 0.0
C257 C 0.07245 0.91378 0.30013 0.0
H258 H 0.09996 0.93921 0.25975 0.0
H259 H 0.05064 0.98603 0.29989 0.0
C260 C 0.0915 0.07313 0.22071 0.0
N261 N 0.11757 0.10022 0.19088 0.0
C262 C 0.07808 0.07136 0.20359 0.0
C263 C 0.11799 0.08896 0.2227 0.0
C264 C 0.09165 0.08516 0.18867 0.0
C265 C 0.13089 0.1024 0.20745 0.0
C266 C 0.06679 0.9654 0.22781 0.0
C267 C 0.0781 0.95716 0.21069 0.0
C268 C 0.04507 0.94778 0.23612 0.0
C269 C 0.06698 0.93185 0.20199 0.0
C270 C 0.03455 0.92261 0.227 0.0
N271 N 0.04559 0.91526 0.21024 0.0
C272 C 0.16692 0.02076 0.23085 0.0
C273 C 0.13616 0.01911 0.20475 0.0
C274 C 0.19232 0.01825 0.21991 0.0
N275 N 0.13956 0.02116 0.22314 0.0
C276 C 0.16094 0.01648 0.19329 0.0
C277 C 0.18951 0.01593 0.20086 0.0
H278 H 0.16901 0.02204 0.24552 0.0
H279 H 0.11415 0.01946 0.19897 0.0
C280 C 0.99395 0.04497 0.22915 0.0
N281 N 0.01652 0.02701 0.22352 0.0
C282 C 0.96828 0.04751 0.2187 0.0
C283 C 0.98967 0.0132 0.19677 0.0
C284 C 0.01496 0.01143 0.20761 0.0
C285 C 0.96591 0.03145 0.20227 0.0
H286 H 0.99594 0.05736 0.24178 0.0
H287 H 0.03351 0.99805 0.20312 0.0
O288 O 0.1132 0.02233 0.26513 0.0
O289 O 0.04402 0.02865 0.26529 0.0
O290 O 0.07874 0.05946 0.23543 0.0
O291 O 0.07756 0.99013 0.23652 0.0
H292 H 0.11283 0.00377 0.29935 0.0
H293 H 0.14946 0.06844 0.2625 0.0
H294 H 0.14121 0.02709 0.32456 0.0
H295 H 0.17712 0.09072 0.28836 0.0
H296 H 0.95841 0.97521 0.26897 0.0
H297 H 0.0259 0.04764 0.2978 0.0
H298 H 0.0038 0.99092 0.25241 0.0
H299 H 0.97989 0.03121 0.31352 0.0
H300 H 0.08114 0.10494 0.3217 0.0
H301 H 0.09246 0.16092 0.27437 0.0
H302 H 0.09801 0.89358 0.27805 0.0
H303 H 0.04773 0.94165 0.31919 0.0
H304 H 0.05752 0.05933 0.2018 0.0
H305 H 0.12863 0.09062 0.23585 0.0
H306 H 0.08159 0.08384 0.17532 0.0
H307 H 0.15151 0.11453 0.20877 0.0
H308 H 0.09519 0.9702 0.20413 0.0
H309 H 0.03674 0.95311 0.2496 0.0
H310 H 0.0754 0.92537 0.18868 0.0
H311 H 0.01772 0.90883 0.23329 0.0
H312 H 0.21389 0.01745 0.22634 0.0
H313 H 0.15778 0.01504 0.17867 0.0
H314 H 0.95041 0.06172 0.22348 0.0
H315 H 0.98899 0.00092 0.18402 0.0
Li316 Li 0.04532 0.0177 0.75584 0.0
Li317 Li 0.09944 0.01412 0.75701 0.0
Li318 Li 0.07483 0.04329 0.73348 0.0
Li319 Li 0.07329 0.98918 0.73294 0.0
C320 C 0.07975 0.07931 0.76147 0.0
N321 N 0.09209 0.1394 0.76203 0.0
C322 C 0.10819 0.08932 0.76592 0.0
C323 C 0.05754 0.09987 0.75738 0.0
C324 C 0.11398 0.1198 0.76613 0.0
C325 C 0.06425 0.13015 0.7577 0.0
C326 C 0.08013 0.96658 0.77393 0.0
C327 C 0.11624 0.93412 0.78754 0.0
N328 N 0.10299 0.9383 0.8041 0.0
C329 C 0.06681 0.97049 0.79107 0.0
C330 C 0.10497 0.94815 0.77211 0.0
C331 C 0.07871 0.956 0.80616 0.0
C332 C 0.99322 0.99346 0.77136 0.0
N333 N 0.01004 0.01846 0.77031 0.0
C334 C 0.97684 0.04426 0.79043 0.0
C335 C 0.00247 0.04357 0.77961 0.0
C336 C 0.95896 0.01878 0.7918 0.0
C337 C 0.96742 0.99314 0.78204 0.0
H338 H -3e-05 0.97372 0.76393 0.0
H339 H 0.0165 0.06296 0.77878 0.0
C340 C 0.15995 0.00643 0.76726 0.0
N341 N 0.13203 0.01265 0.77334 0.0
C342 C 0.18343 0.00476 0.77958 0.0
C343 C 0.14893 0.01613 0.8041 0.0
C344 C 0.12624 0.01791 0.7913 0.0
C345 C 0.17795 0.00938 0.79829 0.0
H346 H 0.16396 0.00269 0.75287 0.0
H347 H 0.10389 0.02331 0.79568 0.0
C348 C 0.0104 0.0145 0.72773 0.0
N349 N 0.94944 0.0076 0.7271 0.0
C350 C 0.99798 0.98671 0.72394 0.0
C351 C 0.99181 0.03881 0.73113 0.0
C352 C 0.9671 0.98369 0.72368 0.0
C353 C 0.96105 0.03485 0.73079 0.0
C354 C 0.12301 0.0029 0.71625 0.0
C355 C 0.12078 0.01559 0.69895 0.0
C356 C 0.13907 0.97661 0.71841 0.0
C357 C 0.13453 0.00162 0.68405 0.0
C358 C 0.15245 0.9633 0.70317 0.0
N359 N 0.14991 0.97597 0.68644 0.0
C360 C 0.10397 0.09307 0.71847 0.0
C361 C 0.05418 0.08673 0.7089 0.0
C362 C 0.10654 0.11908 0.70832 0.0
N363 N 0.07795 0.07778 0.71877 0.0
C364 C 0.05579 0.11254 0.69851 0.0
C365 C 0.08216 0.12925 0.69824 0.0
H366 H 0.1226 0.08522 0.72633 0.0
H367 H 0.03396 0.07384 0.70911 0.0
C368 C 0.07422 0.92771 0.72418 0.0
N369 N 0.07193 0.95549 0.71721 0.0
C370 C 0.07204 0.90293 0.71273 0.0
C371 C 0.06527 0.93584 0.68715 0.0
C372 C 0.06746 0.95996 0.69911 0.0
C373 C 0.06735 0.9068 0.69394 0.0
H374 H 0.07717 0.92478 0.73868 0.0
H375 H 0.06531 0.98233 0.694 0.0
O376 O 0.07379 0.04954 0.76084 0.0
O377 O 0.0692 0.98107 0.75905 0.0
O378 O 0.04058 0.01779 0.72844 0.0
O379 O 0.10926 0.01594 0.73095 0.0
H380 H 0.12571 0.07375 0.769 0.0
H381 H 0.03551 0.09251 0.75368 0.0
H382 H 0.13592 0.12785 0.76948 0.0
H383 H 0.04735 0.14629 0.75441 0.0
H384 H 0.13559 0.91999 0.78635 0.0
H385 H 0.04771 0.98482 0.79277 0.0
H386 H 0.11571 0.94508 0.75898 0.0
H387 H 0.06872 0.95894 0.81952 0.0
H388 H 0.97145 0.06433 0.79797 0.0
H389 H 0.95418 0.97308 0.78259 0.0
H390 H 0.2055 -0.00057 0.77458 0.0
H391 H 0.14389 0.02032 0.81836 0.0
H392 H 0.01198 0.9676 0.72142 0.0
H393 H 0.00104 0.06039 0.73432 0.0
H394 H 0.95718 0.96229 0.72084 0.0
H395 H 0.94641 0.05341 0.73353 0.0
H396 H 0.10832 0.03584 0.697 0.0
H397 H 0.14084 0.96638 0.73168 0.0
H398 H 0.13288 0.01112 0.67057 0.0
H399 H 0.16476 0.94284 0.70462 0.0
H400 H 0.12721 0.13136 0.70864 0.0
H401 H 0.03664 0.11923 0.69068 0.0
H402 H 0.0732 0.88098 0.71863 0.0
H403 H 0.06194 0.93991 0.67276 0.0
H404 H 0.45092 0.00068 0.134 0.0
H405 H 0.4016 0.01193 0.14655 0.0
H406 H 0.3637 0.94259 0.11317 0.0
H407 H 0.41312 0.93082 0.10088 0.0
H408 H 0.34832 0.02855 0.13005 0.0
H409 H 0.33801 0.91958 0.16473 0.0
H410 H 0.37267 0.93268 0.15524 0.0
H411 H 0.34471 0.9173 0.14056 0.0
C412 C 0.43198 0.98811 0.12918 0.0
C413 C 0.43578 0.96513 0.11631 0.0
C414 C 0.40387 0.99452 0.13636 0.0
C415 C 0.37908 0.97787 0.13094 0.0
C416 C 0.38263 0.95541 0.11774 0.0
H417 H 0.19666 0.97822 0.17174 0.0
H418 H 0.24141 0.97043 0.15315 0.0
C419 C 0.41078 0.9489 0.1106 0.0
C420 C 0.34977 0.98348 0.13963 0.0
H421 H 0.29672 0.9517 0.16672 0.0
C422 C 0.33697 0.01175 0.13804 0.0
C423 C 0.33508 0.9615 0.15006 0.0
C424 C 0.34837 0.93113 0.15293 0.0
C425 C 0.3098 0.01864 0.14659 0.0
C426 C 0.29532 0.99677 0.15718 0.0
C427 C 0.30787 0.96837 0.15853 0.0
C428 C 0.26769 0.0031 0.16757 0.0
C429 C 0.2967 0.04916 0.14413 0.0
C430 C 0.2677 0.02402 0.18184 0.0
C431 C 0.24218 0.02856 0.19246 0.0
C432 C 0.2162 0.01217 0.18904 0.0
C433 C 0.21619 0.99147 0.17458 0.0
C434 C 0.24176 0.98688 0.164 0.0
H435 H 0.30616 0.06045 0.13196 0.0
H436 H 0.27219 0.04799 0.14273 0.0
H437 H 0.30177 0.06298 0.15631 0.0
H438 H 0.28765 0.0364 0.18501 0.0
H439 H 0.24283 0.04482 0.20341 0.0
H440 H 0.04849 0.38494 0.62724 0.0
H441 H 0.04814 0.33521 0.64057 0.0
H442 H 0.13853 0.32176 0.62246 0.0
H443 H 0.13917 0.37174 0.60939 0.0
H444 H 0.05779 0.27966 0.62422 0.0
H445 H 0.14234 0.30433 0.67712 0.0
H446 H 0.12429 0.33308 0.66422 0.0
H447 H 0.15396 0.31182 0.6541 0.0
C448 C 0.06818 0.37125 0.62597 0.0
C449 C 0.09371 0.38201 0.61707 0.0
C450 C 0.06798 0.34292 0.6336 0.0
C451 C 0.0934 0.32496 0.63266 0.0
C452 C 0.11883 0.33545 0.62357 0.0
H453 H 0.12894 0.14972 0.67768 0.0
H454 H 0.13208 0.19639 0.66081 0.0
C455 C 0.11907 0.36384 0.61597 0.0
C456 C 0.09322 0.29536 0.64135 0.0
H457 H 0.12528 0.25479 0.67514 0.0
C458 C 0.07255 0.27419 0.63534 0.0
C459 C 0.11255 0.28833 0.65584 0.0
C460 C 0.13439 0.31062 0.66335 0.0
C461 C 0.07071 0.24608 0.64343 0.0
C462 C 0.08977 0.2392 0.65807 0.0
C463 C 0.11075 0.26018 0.66389 0.0
C464 C 0.08762 0.21072 0.66795 0.0
C465 C 0.04856 0.2239 0.63617 0.0
C466 C 0.06172 0.20356 0.67771 0.0
C467 C 0.05992 0.17707 0.68746 0.0
C468 C 0.08406 0.15726 0.68769 0.0
C469 C 0.11006 0.16461 0.67794 0.0
C470 C 0.11185 0.19116 0.66821 0.0
H471 H 0.04132 0.22955 0.62215 0.0
H472 H 0.05804 0.20114 0.636 0.0
H473 H 0.02863 0.22385 0.64516 0.0
H474 H 0.04303 0.2187 0.67801 0.0
H475 H 0.0398 0.1724 0.69511 0.0
H476 H 0.72468 0.08714 0.11473 0.0
H477 H 0.76577 0.08074 0.13614 0.0
H478 H 0.8111 0.02461 0.09703 0.0
H479 H 0.77004 0.03082 0.07557 0.0
H480 H 0.79065 0.02472 0.15018 0.0
H481 H 0.87095 0.09289 0.11038 0.0
H482 H 0.8313 0.09504 0.10706 0.0
H483 H 0.85193 0.06424 0.09786 0.0
C484 C 0.74331 0.07325 0.11077 0.0
C485 C 0.7441 0.0593 0.09354 0.0
C486 C 0.76671 0.06964 0.12298 0.0
C487 C 0.79146 0.05239 0.11807 0.0
C488 C 0.79226 0.03822 0.10097 0.0
H489 H 0.93575 0.98713 0.18466 0.0
H490 H 0.8926 0.99209 0.16472 0.0
C491 C 0.7688 0.04168 0.08879 0.0
C492 C 0.81664 0.04951 0.13077 0.0
H493 H 0.88955 0.06802 0.13624 0.0
C494 C 0.81229 0.03417 0.14718 0.0
C495 C 0.84467 0.06217 0.12683 0.0
C496 C 0.85011 0.07973 0.10965 0.0
C497 C 0.83551 0.03076 0.15969 0.0
C498 C 0.86371 0.0429 0.15557 0.0
C499 C 0.8679 0.05861 0.13928 0.0
C500 C 0.88918 0.03973 0.16803 0.0
C501 C 0.82966 0.01454 0.17731 0.0
C502 C 0.90169 0.06493 0.17627 0.0
C503 C 0.92636 0.0622 0.1876 0.0
C504 C 0.93914 0.03421 0.19071 0.0
C505 C 0.92652 0.009 0.18241 0.0
C506 C 0.90174 0.01174 0.17117 0.0
H507 H 0.80551 0.01215 0.18016 0.0
H508 H 0.8395 0.99199 0.17639 0.0
H509 H 0.84014 0.02633 0.18896 0.0
H510 H 0.89239 0.08674 0.17389 0.0
H511 H 0.93581 0.08207 0.1936 0.0
H512 H 0.98598 0.6909 0.58795 0.0
H513 H 0.99828 0.7392 0.60164 0.0
H514 H 0.06601 0.69762 0.63403 0.0
H515 H 0.0539 0.64944 0.62037 0.0
H516 H 0.99457 0.75132 0.63949 0.0
H517 H 0.10856 0.77094 0.61285 0.0
H518 H 0.08336 0.74466 0.60249 0.0
H519 H 0.10302 0.73505 0.62288 0.0
C520 C 0.00386 0.69225 0.59773 0.0
C521 C 0.01923 0.66652 0.60296 0.0
C522 C 0.01081 0.71975 0.60555 0.0
C523 C 0.03334 0.72201 0.61863 0.0
C524 C 0.04901 0.69646 0.62366 0.0
H525 H 0.0979 0.85414 0.69426 0.0
H526 H 0.08932 0.81017 0.67524 0.0
C527 C 0.042 0.66896 0.6159 0.0
C528 C 0.03881 0.75054 0.62817 0.0
H529 H 0.09233 0.8021 0.63737 0.0
C530 C 0.01583 0.76264 0.63889 0.0
C531 C 0.06664 0.76503 0.62744 0.0
C532 C 0.09177 0.75345 0.61567 0.0
C533 C 0.02016 0.78846 0.64933 0.0
C534 C 0.04806 0.8029 0.6487 0.0
C535 C 0.07097 0.79098 0.63781 0.0
C536 C 0.05403 0.83005 0.65959 0.0
C537 C 0.99515 0.79945 0.66144 0.0
C538 C 0.03742 0.85596 0.65685 0.0
C539 C 0.04202 0.88099 0.66782 0.0
C540 C 0.06355 0.88069 0.68165 0.0
C541 C 0.0808 0.85495 0.68396 0.0
C542 C 0.0761 0.82989 0.67301 0.0
H543 H 0.97823 0.78193 0.66388 0.0
H544 H 0.00367 0.80724 0.67482 0.0
H545 H 0.98398 0.81839 0.65473 0.0
H546 H 0.02063 0.85671 0.64634 0.0
H547 H 0.02817 0.90031 0.66575 0.0
H548 H 0.38018 0.94754 0.9155 0.0
H549 H 0.34459 0.95142 0.89051 0.0
H550 H 0.33753 0.04576 0.90015 0.0
H551 H 0.37225 0.04178 0.92556 0.0
H552 H 0.28418 0.02107 0.89699 0.0
H553 H 0.35524 0.98269 0.83953 0.0
H554 H 0.35355 0.95635 0.85777 0.0
H555 H 0.37012 0.9922 0.86161 0.0
C556 C 0.37112 0.9691 0.91219 0.0
C557 C 0.37896 0.99435 0.92247 0.0
C558 C 0.35102 0.97136 0.89781 0.0
C559 C 0.33877 0.99898 0.89325 0.0
C560 C 0.34682 0.02425 0.90338 0.0
H561 H 0.23372 0.03322 0.79597 0.0
H562 H 0.27304 0.03133 0.8189 0.0
C563 C 0.36668 0.02197 0.91785 0.0
C564 C 0.31624 0.00131 0.87864 0.0
H565 H 0.30309 0.98533 0.83378 0.0
C566 C 0.2884 0.01344 0.88314 0.0
C567 C 0.32189 0.99175 0.8605 0.0
C568 C 0.35192 0.98031 0.85449 0.0
C569 C 0.26586 0.01574 0.87012 0.0
C570 C 0.271 0.00482 0.85221 0.0
C571 C 0.29905 0.99331 0.84758 0.0
C572 C 0.24752 0.0052 0.83812 0.0
C573 C 0.23692 0.03028 0.87563 0.0
C574 C 0.2204 0.99062 0.84116 0.0
C575 C 0.1979 0.99184 0.82817 0.0
C576 C 0.20227 0.00728 0.81175 0.0
C577 C 0.22979 0.02107 0.80847 0.0
C578 C 0.25221 0.02006 0.82156 0.0
H579 H 0.23972 0.04513 0.88767 0.0
H580 H 0.2276 0.04346 0.86427 0.0
H581 H 0.2206 0.01286 0.8794 0.0
H582 H 0.2166 0.97829 0.85361 0.0
H583 H 0.17711 0.98053 0.83091 0.0
H584 H 0.16892 0.35104 0.40664 0.0
H585 H 0.15771 0.31969 0.38009 0.0
H586 H 0.08193 0.28348 0.4086 0.0
H587 H 0.09277 0.3151 0.43503 0.0
H588 H 0.15704 0.25881 0.38043 0.0
H589 H 0.04746 0.30119 0.35856 0.0
H590 H 0.07146 0.32184 0.37367 0.0
H591 H 0.04873 0.29222 0.38238 0.0
C592 C 0.14945 0.33692 0.40703 0.0
C593 C 0.13136 0.33588 0.42275 0.0
C594 C 0.14315 0.31896 0.39192 0.0
C595 C 0.11869 0.29964 0.39225 0.0
C596 C 0.10043 0.2988 0.40785 0.0
H597 H 0.05523 0.15008 0.33063 0.0
H598 H 0.06329 0.1913 0.35193 0.0
C599 C 0.1067 0.31676 0.42296 0.0
C600 C 0.11384 0.27841 0.37701 0.0
H601 H 0.06213 0.25383 0.34656 0.0
C602 C 0.13645 0.25796 0.37284 0.0
C603 C 0.0869 0.27729 0.36721 0.0
C604 C 0.06234 0.29949 0.37054 0.0
C605 C 0.13248 0.23575 0.35958 0.0
C606 C 0.10535 0.23428 0.35001 0.0
C607 C 0.08291 0.25504 0.35393 0.0
C608 C 0.09947 0.21054 0.33643 0.0
C609 C 0.15695 0.21335 0.3564 0.0
C610 C 0.11676 0.20807 0.32048 0.0
C611 C 0.11238 0.18441 0.30835 0.0
C612 C 0.09052 0.16284 0.31194 0.0
C613 C 0.07259 0.166 0.32764 0.0
C614 C 0.077 0.18966 0.33974 0.0
H615 H 0.17347 0.21361 0.36759 0.0
H616 H 0.14771 0.19057 0.35514 0.0
H617 H 0.16876 0.21864 0.34348 0.0
H618 H 0.13394 0.22423 0.31755 0.0
H619 H 0.12667 0.18255 0.29645 0.0
H620 H 0.7649 0.97626 0.91611 0.0
H621 H 0.80195 0.97768 0.8915 0.0
H622 H 0.76895 0.06312 0.87481 0.0
H623 H 0.73196 0.06195 0.89957 0.0
H624 H 0.79395 0.98345 0.85314 0.0
H625 H 0.85844 0.07717 0.88281 0.0
H626 H 0.83126 0.05665 0.89585 0.0
H627 H 0.81949 0.084 0.8797 0.0
C628 C 0.76537 0.99521 0.90708 0.0
C629 C 0.74533 0.01883 0.9096 0.0
C630 C 0.78654 0.99601 0.89306 0.0
C631 C 0.78832 0.0206 0.88146 0.0
C632 C 0.76814 0.0441 0.88377 0.0
H633 H 0.91732 0.0627 0.79593 0.0
H634 H 0.87427 0.06327 0.81655 0.0
C635 C 0.74692 0.04331 0.8978 0.0
C636 C 0.81164 0.02166 0.86713 0.0
H637 H 0.87456 0.05854 0.85426 0.0
C638 C 0.81155 -0.0001 0.85333 0.0
C639 C 0.8345 0.0432 0.86743 0.0
C640 C 0.83622 0.06647 0.8823 0.0
C641 C 0.83376 0.99909 0.83979 0.0
C642 C 0.85694 0.02028 0.8403 0.0
C643 C 0.85674 0.04235 0.85391 0.0
C644 C 0.88223 0.01935 0.82725 0.0
C645 C 0.83207 0.97572 0.82499 0.0
C646 C 0.90108 0.99456 0.82655 0.0
C647 C 0.92571 0.9942 0.81484 0.0
C648 C 0.93213 0.01875 0.80372 0.0
C649 C 0.91315 0.04355 0.80445 0.0
C650 C 0.88848 0.04387 0.81614 0.0
H651 H 0.80911 0.96706 0.82344 0.0
H652 H 0.8397 0.98464 0.81165 0.0
H653 H 0.84663 0.95681 0.82861 0.0
H654 H 0.8971 0.97571 0.83534 0.0
H655 H 0.94018 0.97499 0.81486 0.0
H656 H 0.09309 0.6613 0.3813 0.0
H657 H 0.09914 0.7094 0.36629 0.0
H658 H 0.00806 0.73121 0.37911 0.0
H659 H 0.002 0.68326 0.39433 0.0
H660 H 0.06683 0.72985 0.33653 0.0
H661 H 0.05341 0.8053 0.39625 0.0
H662 H 0.06095 0.76614 0.39858 0.0
H663 H 0.02403 0.77868 0.39357 0.0
C664 C 0.07454 0.6766 0.38119 0.0
C665 C 0.04725 0.66883 0.38933 0.0
C666 C 0.07797 0.70397 0.37256 0.0
C667 C 0.05421 0.72407 0.37188 0.0
C668 C 0.02689 0.71633 0.37988 0.0
H669 H 0.02429 0.89281 0.31909 0.0
H670 H 0.02062 0.84696 0.3367 0.0
C671 C 0.02342 0.68893 0.38851 0.0
C672 C 0.05757 0.75241 0.36193 0.0
H673 H 0.05392 0.82775 0.36698 0.0
C674 C 0.06421 0.75128 0.34319 0.0
C675 C 0.05401 0.78028 0.37067 0.0
C676 C 0.04796 0.78283 0.39091 0.0
C677 C 0.06684 0.77728 0.33286 0.0
C678 C 0.06324 0.80516 0.34159 0.0
C679 C 0.05666 0.80632 0.36034 0.0
C680 C 0.06596 0.83336 0.33142 0.0
C681 C 0.0727 0.77466 0.3126 0.0
C682 C 0.09284 0.84115 0.32291 0.0
C683 C 0.09505 0.86736 0.31288 0.0
C684 C 0.07045 0.88639 0.31128 0.0
C685 C 0.04373 0.8788 0.32018 0.0
C686 C 0.04155 0.85256 0.33019 0.0
H687 H 0.06757 0.75207 0.30733 0.0
H688 H 0.05934 0.79106 0.30493 0.0
H689 H 0.09653 0.77918 0.30982 0.0
H690 H 0.11214 0.82694 0.32404 0.0
H691 H 0.1161 0.87282 0.30649 0.0
loop_
_geom_bond_atom_site_label_1
_geom_bond_atom_site_label_2
_geom_bond_distance
_geom_bond_site_symmetry_2
_ccdc_geom_bond_type
C0 C1 1.560 . S
C0 H61 0.959 . S
C0 H62 0.959 . S
C0 H63 0.960 . S
C1 C0 1.560 . S
C1 O56 1.426 . S
C1 H60 0.980 . S
C2 C3 1.407 . S
C2 C7 1.418 . S
C2 O56 1.334 . S
C3 C2 1.407 . S
C3 C4 1.360 1_545 S
C3 H64 0.929 1_545 S
C4 C3 1.360 1_565 S
C4 C5 1.401 1_565 S
C4 C8 1.527 . S
C5 C4 1.401 1_545 S
C5 C6 1.405 . S
C5 C38 1.587 . S
C6 C5 1.405 . S
C6 C7 1.332 . S
C6 C9 1.496 . S
C7 C2 1.418 . S
C7 C6 1.332 . S
C7 H65 0.929 . S
C8 C4 1.527 . S
C8 H66 0.959 . S
C8 H67 0.961 . S
C8 H68 0.961 . S
C9 C6 1.496 . S
C9 H69 0.960 . S
C9 H70 0.960 . S
C9 H71 0.961 . S
C10 C11 1.514 1_565 S
C10 H73 0.961 1_565 S
C10 H74 0.960 . S
C10 H75 0.959 . S
C11 C10 1.514 1_545 S
C11 O59 1.460 1_545 S
C11 H72 0.985 . S
C12 C13 1.349 1_565 S
C12 C17 1.367 . S
C12 O59 1.408 . S
C13 C12 1.349 1_545 S
C13 C14 1.407 . S
C13 H76 0.930 . S
C14 C13 1.407 . S
C14 C15 1.449 1_545 S
C14 C18 1.535 . S
C15 C14 1.449 1_565 S
C15 C16 1.384 . S
C15 C40 1.553 . S
C16 C15 1.384 . S
C16 C17 1.364 . S
C16 C19 1.450 . S
C17 C12 1.367 . S
C17 C16 1.364 . S
C17 H77 0.931 . S
C18 C14 1.535 . S
C18 H78 0.959 . S
C18 H79 0.961 . S
C18 H80 0.959 . S
C19 C16 1.450 . S
C19 H81 0.960 . S
C19 H82 0.960 . S
C19 H83 0.960 . S
C20 C21 1.309 1_565 S
C20 C25 1.304 . S
C20 O58 1.435 . S
C21 C20 1.309 1_545 S
C21 C22 1.476 . S
C21 H85 0.930 . S
C22 C21 1.476 . S
C22 C23 1.400 1_545 S
C22 C26 1.567 . S
C23 C22 1.400 1_565 S
C23 C24 1.373 . S
C23 C45 1.436 . S
C24 C23 1.373 . S
C24 C25 1.339 . S
C24 C27 1.530 . S
C25 C20 1.304 . S
C25 C24 1.339 . S
C25 H86 0.930 . S
C26 C22 1.567 . S
C26 H87 0.961 . S
C26 H88 0.960 . S
C26 H89 0.958 . S
C27 C24 1.530 . S
C27 H90 0.961 . S
C27 H91 0.960 . S
C27 H92 0.960 . S
C28 C29 1.530 . S
C28 H94 0.961 . S
C28 H95 0.961 . S
C28 H96 0.959 . S
C29 C28 1.530 . S
C29 O57 1.412 . S
C29 H93 0.980 . S
C30 C31 1.288 . S
C30 C35 1.377 . S
C30 O57 1.393 . S
C31 C30 1.288 . S
C31 C32 1.369 . S
C31 H97 0.932 . S
C32 C31 1.369 . S
C32 C33 1.398 . S
C32 C36 1.527 . S
C33 C32 1.398 . S
C33 C34 1.380 1_545 S
C33 C47 1.497 . S
C34 C33 1.380 1_565 S
C34 C35 1.383 1_565 S
C34 C37 1.603 . S
C35 C30 1.377 . S
C35 C34 1.383 1_545 S
C35 H98 0.929 1_545 S
C36 C32 1.527 . S
C36 H99 0.961 . S
C36 H100 0.959 . S
C36 H101 0.959 . S
C37 C34 1.603 . S
C37 H102 0.960 . S
C37 H103 0.962 . S
C37 H104 0.961 . S
C38 C5 1.587 . S
C38 C39 1.360 1_545 S
C38 C51 1.412 . S
C39 C38 1.360 1_565 S
C39 C40 1.365 . S
C39 H105 0.929 . S
C40 C15 1.553 . S
C40 C39 1.365 . S
C40 C41 1.404 . S
C41 C40 1.404 . S
C41 C42 1.395 . S
C41 C52 1.451 . S
C42 C41 1.395 . S
C42 C43 1.322 1_554 S
C42 H106 0.930 . S
C43 C42 1.322 1_556 S
C43 C44 1.459 . S
C43 H107 0.929 . S
C44 C43 1.459 . S
C44 C45 1.449 . S
C44 C53 1.399 . S
C45 C23 1.436 . S
C45 C44 1.449 . S
C45 C46 1.365 1_565 S
C46 C45 1.365 1_545 S
C46 C47 1.438 . S
C46 H108 0.930 . S
C47 C33 1.497 . S
C47 C46 1.438 . S
C47 C48 1.360 . S
C48 C47 1.360 . S
C48 C49 1.401 . S
C48 C53 1.439 1_545 S
C49 C48 1.401 . S
C49 C50 1.347 1_556 S
C49 H109 0.929 . S
C50 C49 1.347 1_554 S
C50 C51 1.455 . S
C50 H110 0.930 . S
C51 C38 1.412 . S
C51 C50 1.455 . S
C51 C52 1.331 1_545 S
C52 C41 1.451 . S
C52 C51 1.331 1_565 S
C52 C53 1.498 1_554 S
C53 C44 1.399 . S
C53 C48 1.439 1_565 S
C53 C52 1.498 1_556 S
C54 C55 1.582 1_565 S
C54 H111 0.962 1_565 S
C54 H112 0.959 . S
C54 H113 0.958 . S
C55 C54 1.582 1_545 S
C55 O58 1.458 1_545 S
C55 H84 0.980 . S
O56 C1 1.426 . S
O56 C2 1.334 . S
O57 C29 1.412 . S
O57 C30 1.393 . S
O58 C20 1.435 . S
O58 C55 1.458 1_565 S
O59 C11 1.460 1_565 S
O59 C12 1.408 . S
H60 C1 0.980 . S
H61 C0 0.959 . S
H62 C0 0.959 . S
H63 C0 0.960 . S
H64 C3 0.929 1_565 S
H65 C7 0.929 . S
H66 C8 0.959 . S
H67 C8 0.961 . S
H68 C8 0.961 . S
H69 C9 0.960 . S
H70 C9 0.960 . S
H71 C9 0.961 . S
H72 C11 0.985 . S
H73 C10 0.961 1_545 S
H74 C10 0.960 . S
H75 C10 0.959 . S
H76 C13 0.930 . S
H77 C17 0.931 . S
H78 C18 0.959 . S
H79 C18 0.961 . S
H80 C18 0.959 . S
H81 C19 0.960 . S
H82 C19 0.960 . S
H83 C19 0.960 . S
H84 C55 0.980 . S
H85 C21 0.930 . S
H86 C25 0.930 . S
H87 C26 0.961 . S
H88 C26 0.960 . S
H89 C26 0.958 . S
H90 C27 0.961 . S
H91 C27 0.960 . S
H92 C27 0.960 . S
H93 C29 0.980 . S
H94 C28 0.961 . S
H95 C28 0.961 . S
H96 C28 0.959 . S
H97 C31 0.932 . S
H98 C35 0.929 1_565 S
H99 C36 0.961 . S
H100 C36 0.959 . S
H101 C36 0.959 . S
H102 C37 0.960 . S
H103 C37 0.962 . S
H104 C37 0.961 . S
H105 C39 0.929 . S
H106 C42 0.930 . S
H107 C43 0.929 . S
H108 C46 0.930 . S
H109 C49 0.929 . S
H110 C50 0.930 . S
H111 C54 0.962 1_545 S
H112 C54 0.959 . S
H113 C54 0.958 . S
C114 C115 1.560 . S
C114 H175 0.959 . S
C114 H176 0.959 . S
C114 H177 0.960 . S
C115 C114 1.560 . S
C115 O170 1.426 . S
C115 H174 0.980 . S
C116 C117 1.407 . S
C116 C121 1.418 . S
C116 O170 1.334 . S
C117 C116 1.407 . S
C117 C118 1.360 . S
C117 H178 0.929 . S
C118 C117 1.360 . S
C118 C119 1.401 . S
C118 C122 1.527 . S
C119 C118 1.401 . S
C119 C120 1.405 . S
C119 C152 1.587 . S
C120 C119 1.405 . S
C120 C121 1.332 . S
C120 C123 1.496 . S
C121 C116 1.418 . S
C121 C120 1.332 . S
C121 H179 0.929 . S
C122 C118 1.527 . S
C122 H180 0.959 . S
C122 H181 0.961 . S
C122 H182 0.961 . S
C123 C120 1.496 . S
C123 H183 0.960 . S
C123 H184 0.960 . S
C123 H185 0.961 . S
C124 C125 1.517 . S
C124 H187 0.961 . S
C124 H188 0.960 . S
C124 H189 0.959 . S
C125 C124 1.517 . S
C125 O173 1.468 . S
C125 H186 0.980 . S
C126 C127 1.349 . S
C126 C131 1.367 . S
C126 O173 1.408 . S
C127 C126 1.349 . S
C127 C128 1.407 . S
C127 H190 0.930 . S
C128 C127 1.407 . S
C128 C129 1.449 . S
C128 C132 1.535 . S
C129 C128 1.449 . S
C129 C130 1.384 . S
C129 C154 1.553 . S
C130 C129 1.384 . S
C130 C131 1.364 . S
C130 C133 1.450 1_455 S
C131 C126 1.367 . S
C131 C130 1.364 . S
C131 H191 0.921 1_455 S
C132 C128 1.535 . S
C132 H192 0.959 . S
C132 H193 0.961 . S
C132 H194 0.959 . S
C133 C130 1.450 1_655 S
C133 H195 0.960 . S
C133 H196 0.960 . S
C133 H197 0.960 . S
C134 C135 1.309 . S
C134 C139 1.304 . S
C134 O172 1.435 . S
C135 C134 1.309 . S
C135 C136 1.476 . S
C135 H199 0.930 . S
C136 C135 1.476 . S
C136 C137 1.400 . S
C136 C140 1.567 . S
C137 C136 1.400 . S
C137 C138 1.373 . S
C137 C159 1.432 . S
C138 C137 1.373 . S
C138 C139 1.339 . S
C138 C141 1.530 . S
C139 C134 1.304 . S
C139 C138 1.339 . S
C139 H200 0.930 . S
C140 C136 1.567 . S
C140 H201 0.961 . S
C140 H202 0.960 . S
C140 H203 0.958 . S
C141 C138 1.530 . S
C141 H204 0.961 1_455 S
C141 H205 0.960 . S
C141 H206 0.960 . S
C142 C143 1.530 . S
C142 H208 0.961 . S
C142 H209 0.961 . S
C142 H210 0.959 . S
C143 C142 1.530 . S
C143 O171 1.412 . S
C143 H207 0.980 . S
C144 C145 1.288 . S
C144 C149 1.377 . S
C144 O171 1.393 . S
C145 C144 1.288 . S
C145 C146 1.369 . S
C145 H211 0.932 . S
C146 C145 1.369 . S
C146 C147 1.398 . S
C146 C150 1.527 . S
C147 C146 1.398 . S
C147 C148 1.380 . S
C147 C161 1.497 . S
C148 C147 1.380 . S
C148 C149 1.383 . S
C148 C151 1.603 . S
C149 C144 1.377 . S
C149 C148 1.383 . S
C149 H212 0.929 . S
C150 C146 1.527 . S
C150 H213 0.961 . S
C150 H214 0.959 . S
C150 H215 0.959 . S
C151 C148 1.603 . S
C151 H216 0.960 . S
C151 H217 0.962 . S
C151 H218 0.961 . S
C152 C119 1.587 . S
C152 C153 1.360 . S
C152 C165 1.412 . S
C153 C152 1.360 . S
C153 C154 1.365 . S
C153 H219 0.929 . S
C154 C129 1.553 . S
C154 C153 1.365 . S
C154 C155 1.404 . S
C155 C154 1.404 . S
C155 C156 1.395 . S
C155 C166 1.451 . S
C156 C155 1.395 . S
C156 C157 1.322 . S
C156 H220 0.930 . S
C157 C156 1.322 . S
C157 C158 1.459 . S
C157 H221 0.929 . S
C158 C157 1.459 . S
C158 C159 1.445 . S
C158 C167 1.395 . S
C159 C137 1.432 . S
C159 C158 1.445 . S
C159 C160 1.370 . S
C160 C159 1.370 . S
C160 C161 1.438 . S
C160 H222 0.930 . S
C161 C147 1.497 . S
C161 C160 1.438 . S
C161 C162 1.360 . S
C162 C161 1.360 . S
C162 C163 1.401 . S
C162 C167 1.446 . S
C163 C162 1.401 . S
C163 C164 1.347 . S
C163 H223 0.929 . S
C164 C163 1.347 . S
C164 C165 1.455 . S
C164 H224 0.930 . S
C165 C152 1.412 . S
C165 C164 1.455 . S
C165 C166 1.331 . S
C166 C155 1.451 . S
C166 C165 1.331 . S
C166 C167 1.497 . S
C167 C158 1.395 . S
C167 C162 1.446 . S
C167 C166 1.497 . S
C168 C169 1.582 . S
C168 H225 0.962 . S
C168 H226 0.959 . S
C168 H227 0.958 . S
C169 C168 1.582 . S
C169 O172 1.458 . S
C169 H198 0.980 . S
O170 C115 1.426 . S
O170 C116 1.334 . S
O171 C143 1.412 . S
O171 C144 1.393 . S
O172 C134 1.435 . S
O172 C169 1.458 . S
O173 C125 1.468 . S
O173 C126 1.408 . S
H174 C115 0.980 . S
H175 C114 0.959 . S
H176 C114 0.959 . S
H177 C114 0.960 . S
H178 C117 0.929 . S
H179 C121 0.929 . S
H180 C122 0.959 . S
H181 C122 0.961 . S
H182 C122 0.961 . S
H183 C123 0.960 . S
H184 C123 0.960 . S
H185 C123 0.961 . S
H186 C125 0.980 . S
H187 C124 0.961 . S
H188 C124 0.960 . S
H189 C124 0.959 . S
H190 C127 0.930 . S
H191 C131 0.921 1_655 S
H192 C132 0.959 . S
H193 C132 0.961 . S
H194 C132 0.959 . S
H195 C133 0.960 . S
H196 C133 0.960 . S
H197 C133 0.960 . S
H198 C169 0.980 . S
H199 C135 0.930 . S
H200 C139 0.930 . S
H201 C140 0.961 . S
H202 C140 0.960 . S
H203 C140 0.958 . S
H204 C141 0.961 1_655 S
H205 C141 0.960 . S
H206 C141 0.960 . S
H207 C143 0.980 . S
H208 C142 0.961 . S
H209 C142 0.961 . S
H210 C142 0.959 . S
H211 C145 0.932 . S
H212 C149 0.929 . S
H213 C150 0.961 . S
H214 C150 0.959 . S
H215 C150 0.959 . S
H216 C151 0.960 . S
H217 C151 0.962 . S
H218 C151 0.961 . S
H219 C153 0.929 . S
H220 C156 0.930 . S
H221 C157 0.929 . S
H222 C160 0.930 . S
H223 C163 0.929 . S
H224 C164 0.930 . S
H225 C168 0.962 . S
H226 C168 0.959 . S
H227 C168 0.958 . S
Li228 N245 1.990 . S
Li228 O288 1.956 . S
Li228 O289 1.970 . S
Li228 O290 1.961 . S
Li229 N253 1.990 . S
Li229 O288 1.970 1_565 S
Li229 O289 1.956 1_565 S
Li229 O291 1.961 . S
Li230 N275 1.990 . S
Li230 O288 1.961 . S
Li230 O290 1.956 . S
Li230 O291 1.970 1_545 S
Li231 N281 1.990 . S
Li231 O289 1.961 . S
Li231 O290 1.970 . S
Li231 O291 1.956 1_545 S
C232 C234 1.348 . S
C232 C235 1.356 . S
C232 O288 1.325 . S
N233 C236 1.314 . S
N233 C237 1.279 . S
C234 C232 1.348 . S
C234 C236 1.353 . S
C234 H292 0.929 1_545 S
C235 C232 1.356 . S
C235 C237 1.358 . S
C235 H293 0.930 . S
C236 N233 1.314 . S
C236 C234 1.353 . S
C236 H294 0.930 1_545 S
C237 N233 1.279 . S
C237 C235 1.358 . S
C237 H295 0.930 . S
C238 C241 1.348 . S
C238 C242 1.348 1_545 S
C238 O289 1.325 . S
C239 N240 1.272 1_565 S
C239 C242 1.361 1_655 S
C239 H296 0.938 . S
N240 C239 1.272 1_545 S
N240 C243 1.314 . S
C241 C238 1.348 . S
C241 C243 1.353 1_455 S
C241 H297 0.929 . S
C242 C238 1.348 1_565 S
C242 C239 1.361 1_455 S
C242 H298 0.934 . S
C243 N240 1.314 . S
C243 C241 1.353 1_655 S
C243 H299 0.930 . S
C244 N245 1.314 . S
C244 C249 1.353 . S
C244 H250 0.930 . S
N245 Li228 1.990 . S
N245 C244 1.314 . S
N245 C247 1.279 . S
C246 C247 1.358 . S
C246 C248 1.356 . S
C246 H300 0.930 . S
C247 N245 1.279 . S
C247 C246 1.358 . S
C247 H251 0.930 . S
C248 C246 1.356 . S
C248 C249 1.348 . S
C249 C244 1.353 . S
C249 C248 1.348 . S
C249 H301 0.929 . S
H250 C244 0.930 . S
H251 C247 0.930 . S
C252 N253 1.314 . S
C252 C254 1.353 . S
C252 H258 0.930 . S
N253 Li229 1.990 . S
N253 C252 1.314 . S
N253 C256 1.279 . S
C254 C252 1.353 . S
C254 C257 1.348 . S
C254 H302 0.929 . S
C255 C256 1.358 . S
C255 C257 1.356 . S
C255 H303 0.930 . S
C256 N253 1.279 . S
C256 C255 1.358 . S
C256 H259 0.930 . S
C257 C254 1.348 . S
C257 C255 1.356 . S
H258 C252 0.930 . S
H259 C256 0.930 . S
C260 C262 1.348 . S
C260 C263 1.356 . S
C260 O290 1.325 . S
N261 C264 1.314 . S
N261 C265 1.279 . S
C262 C260 1.348 . S
C262 C264 1.353 . S
C262 H304 0.929 . S
C263 C260 1.356 . S
C263 C265 1.358 . S
C263 H305 0.930 . S
C264 N261 1.314 . S
C264 C262 1.353 . S
C264 H306 0.930 . S
C265 N261 1.279 . S
C265 C263 1.358 . S
C265 H307 0.930 . S
C266 C267 1.348 . S
C266 C268 1.356 . S
C266 O291 1.325 . S
C267 C266 1.348 . S
C267 C269 1.353 . S
C267 H308 0.929 . S
C268 C266 1.356 . S
C268 C270 1.358 . S
C268 H309 0.930 . S
C269 C267 1.353 . S
C269 N271 1.314 . S
C269 H310 0.930 . S
C270 C268 1.358 . S
C270 N271 1.279 . S
C270 H311 0.930 . S
N271 C269 1.314 . S
N271 C270 1.279 . S
C272 C274 1.353 . S
C272 N275 1.314 . S
C272 H278 0.930 1_545 S
C273 N275 1.279 . S
C273 C276 1.358 . S
C273 H279 0.930 . S
C274 C272 1.353 . S
C274 C277 1.348 . S
C274 H312 0.929 1_545 S
N275 Li230 1.990 . S
N275 C272 1.314 . S
N275 C273 1.279 . S
C276 C273 1.358 . S
C276 C277 1.356 . S
C276 H313 0.930 . S
C277 C274 1.348 . S
C277 C276 1.356 . S
H278 C272 0.930 1_565 S
H279 C273 0.930 . S
C280 N281 1.314 1_655 S
C280 C282 1.353 . S
C280 H286 0.930 . S
N281 Li231 1.990 . S
N281 C280 1.314 1_455 S
N281 C284 1.259 1_545 S
C282 C280 1.353 . S
C282 C285 1.348 . S
C282 H314 0.929 . S
C283 C284 1.358 1_655 S
C283 C285 1.335 1_565 S
C283 H315 0.951 . S
C284 N281 1.259 1_565 S
C284 C283 1.358 1_455 S
C284 H287 0.954 . S
C285 C282 1.348 . S
C285 C283 1.335 1_545 S
H286 C280 0.930 . S
H287 C284 0.954 . S
O288 Li228 1.956 . S
O288 Li229 1.970 1_545 S
O288 Li230 1.961 . S
O288 C232 1.325 . S
O289 Li228 1.970 . S
O289 Li229 1.956 1_545 S
O289 Li231 1.961 . S
O289 C238 1.325 . S
O290 Li228 1.961 . S
O290 Li230 1.956 . S
O290 Li231 1.970 . S
O290 C260 1.325 . S
O291 Li229 1.961 . S
O291 Li230 1.970 1_565 S
O291 Li231 1.956 1_565 S
O291 C266 1.325 . S
H292 C234 0.929 1_565 S
H293 C235 0.930 . S
H294 C236 0.930 1_565 S
H295 C237 0.930 . S
H296 C239 0.938 . S
H297 C241 0.929 . S
H298 C242 0.934 . S
H299 C243 0.930 . S
H300 C246 0.930 . S
H301 C249 0.929 . S
H302 C254 0.929 . S
H303 C255 0.930 . S
H304 C262 0.929 . S
H305 C263 0.930 . S
H306 C264 0.930 . S
H307 C265 0.930 . S
H308 C267 0.929 . S
H309 C268 0.930 . S
H310 C269 0.930 . S
H311 C270 0.930 . S
H312 C274 0.929 1_565 S
H313 C276 0.930 . S
H314 C282 0.929 . S
H315 C283 0.951 . S
Li316 N333 1.990 . S
Li316 O376 1.956 . S
Li316 O377 1.970 1_545 S
Li316 O378 1.961 . S
Li317 N341 1.990 . S
Li317 O376 1.970 . S
Li317 O377 1.956 1_545 S
Li317 O379 1.961 . S
Li318 N363 1.990 . S
Li318 O376 1.961 . S
Li318 O378 1.956 . S
Li318 O379 1.970 . S
Li319 N369 1.990 . S
Li319 O377 1.961 . S
Li319 O378 1.970 1_565 S
Li319 O379 1.956 1_565 S
C320 C322 1.348 . S
C320 C323 1.356 . S
C320 O376 1.325 . S
N321 C324 1.314 . S
N321 C325 1.279 . S
C322 C320 1.348 . S
C322 C324 1.353 . S
C322 H380 0.929 . S
C323 C320 1.356 . S
C323 C325 1.358 . S
C323 H381 0.930 . S
C324 N321 1.314 . S
C324 C322 1.353 . S
C324 H382 0.930 . S
C325 N321 1.279 . S
C325 C323 1.358 . S
C325 H383 0.930 . S
C326 C329 1.348 . S
C326 C330 1.356 . S
C326 O377 1.325 . S
C327 N328 1.279 . S
C327 C330 1.358 . S
C327 H384 0.930 . S
N328 C327 1.279 . S
N328 C331 1.314 . S
C329 C326 1.348 . S
C329 C331 1.353 . S
C329 H385 0.929 . S
C330 C326 1.356 . S
C330 C327 1.358 . S
C330 H386 0.930 . S
C331 N328 1.314 . S
C331 C329 1.353 . S
C331 H387 0.930 . S
C332 N333 1.314 1_655 S
C332 C337 1.353 1_545 S
C332 H338 0.930 1_545 S
N333 Li316 1.990 . S
N333 C332 1.314 1_455 S
N333 C335 1.279 . S
C334 C335 1.358 1_655 S
C334 C336 1.356 . S
C334 H388 0.930 . S
C335 N333 1.279 . S
C335 C334 1.358 1_455 S
C335 H339 0.930 . S
C336 C334 1.356 . S
C336 C337 1.344 1_545 S
C337 C332 1.353 1_565 S
C337 C336 1.344 1_565 S
C337 H389 0.933 . S
H338 C332 0.930 1_565 S
H339 C335 0.930 . S
C340 N341 1.314 . S
C340 C342 1.353 . S
C340 H346 0.930 . S
N341 Li317 1.990 . S
N341 C340 1.314 . S
N341 C344 1.279 1_545 S
C342 C340 1.353 . S
C342 C345 1.348 . S
C342 H390 0.929 . S
C343 C344 1.358 . S
C343 C345 1.356 1_565 S
C343 H391 0.930 . S
C344 N341 1.279 1_565 S
C344 C343 1.358 . S
C344 H347 0.930 . S
C345 C342 1.348 . S
C345 C343 1.356 1_545 S
H346 C340 0.930 . S
H347 C344 0.930 . S
C348 C350 1.342 1_545 S
C348 C351 1.356 1_455 S
C348 O378 1.325 . S
N349 C352 1.314 . S
N349 C353 1.279 . S
C350 C348 1.342 1_565 S
C350 C352 1.352 1_465 S
C350 H392 0.936 . S
C351 C348 1.356 1_655 S
C351 C353 1.358 . S
C351 H393 0.930 . S
C352 N349 1.314 . S
C352 C350 1.352 1_645 S
C352 H394 0.930 1_545 S
C353 N349 1.279 . S
C353 C351 1.358 . S
C353 H395 0.930 . S
C354 C355 1.348 . S
C354 C356 1.356 1_545 S
C354 O379 1.325 . S
C355 C354 1.348 . S
C355 C357 1.353 . S
C355 H396 0.929 . S
C356 C354 1.356 1_565 S
C356 C358 1.358 . S
C356 H397 0.930 . S
C357 C355 1.353 . S
C357 N359 1.314 . S
C357 H398 0.930 . S
C358 C356 1.358 . S
C358 N359 1.279 1_565 S
C358 H399 0.930 . S
N359 C357 1.314 . S
N359 C358 1.279 1_545 S
C360 C362 1.353 . S
C360 N363 1.314 . S
C360 H366 0.930 . S
C361 N363 1.279 . S
C361 C364 1.358 . S
C361 H367 0.930 . S
C362 C360 1.353 . S
C362 C365 1.348 . S
C362 H400 0.929 . S
N363 Li318 1.990 . S
N363 C360 1.314 . S
N363 C361 1.279 . S
C364 C361 1.358 . S
C364 C365 1.356 . S
C364 H401 0.930 . S
C365 C362 1.348 . S
C365 C364 1.356 . S
H366 C360 0.930 . S
H367 C361 0.930 . S
C368 N369 1.314 . S
C368 C370 1.353 . S
C368 H374 0.930 . S
N369 Li319 1.990 . S
N369 C368 1.314 . S
N369 C372 1.279 . S
C370 C368 1.353 . S
C370 C373 1.348 . S
C370 H402 0.929 . S
C371 C372 1.358 . S
C371 C373 1.356 . S
C371 H403 0.930 . S
C372 N369 1.279 . S
C372 C371 1.358 . S
C372 H375 0.930 . S
C373 C370 1.348 . S
C373 C371 1.356 . S
H374 C368 0.930 . S
H375 C372 0.930 . S
O376 Li316 1.956 . S
O376 Li317 1.970 . S
O376 Li318 1.961 . S
O376 C320 1.325 . S
O377 Li316 1.970 1_565 S
O377 Li317 1.956 1_565 S
O377 Li319 1.961 . S
O377 C326 1.325 . S
O378 Li316 1.961 . S
O378 Li318 1.956 . S
O378 Li319 1.970 1_545 S
O378 C348 1.325 . S
O379 Li317 1.961 . S
O379 Li318 1.970 . S
O379 Li319 1.956 1_545 S
O379 C354 1.325 . S
H380 C322 0.929 . S
H381 C323 0.930 . S
H382 C324 0.930 . S
H383 C325 0.930 . S
H384 C327 0.930 . S
H385 C329 0.929 . S
H386 C330 0.930 . S
H387 C331 0.930 . S
H388 C334 0.930 . S
H389 C337 0.933 . S
H390 C342 0.929 . S
H391 C343 0.930 . S
H392 C350 0.936 . S
H393 C351 0.930 . S
H394 C352 0.930 1_565 S
H395 C353 0.930 . S
H396 C355 0.929 . S
H397 C356 0.930 . S
H398 C357 0.930 . S
H399 C358 0.930 . S
H400 C362 0.929 . S
H401 C364 0.930 . S
H402 C370 0.929 . S
H403 C371 0.930 . S
H404 C412 0.929 . S
H405 C414 0.930 . S
H406 C416 0.930 . S
H407 C419 0.929 . S
H408 C422 0.930 . S
H409 C424 0.960 . S
H410 C424 0.960 . S
H411 C424 0.960 . S
C412 H404 0.929 . S
C412 C413 1.377 . S
C412 C414 1.384 . S
C413 C412 1.377 . S
C413 C419 1.390 1_545 S
C414 H405 0.930 . S
C414 C412 1.384 . S
C414 C415 1.372 . S
C415 C414 1.372 . S
C415 C416 1.400 1_545 S
C415 C420 1.490 . S
C416 H406 0.930 . S
C416 C415 1.400 1_565 S
C416 C419 1.386 . S
H417 C433 0.930 1_565 S
H418 C434 0.931 1_565 S
C419 H407 0.929 . S
C419 C413 1.390 1_565 S
C419 C416 1.386 . S
C420 C415 1.490 . S
C420 C422 1.395 . S
C420 C423 1.403 1_545 S
H421 C427 0.930 . S
C422 H408 0.930 . S
C422 C420 1.395 . S
C422 C425 1.403 . S
C423 C420 1.403 1_565 S
C423 C424 1.524 . S
C423 C427 1.400 . S
C424 H409 0.960 . S
C424 H410 0.960 . S
C424 H411 0.960 . S
C424 C423 1.524 . S
C425 C422 1.403 . S
C425 C426 1.392 . S
C425 C429 1.495 . S
C426 C425 1.392 . S
C426 C427 1.385 1_545 S
C426 C428 1.478 . S
C427 H421 0.930 . S
C427 C423 1.400 . S
C427 C426 1.385 1_565 S
C428 C426 1.478 . S
C428 C430 1.381 . S
C428 C434 1.383 . S
C429 C425 1.495 . S
C429 H435 0.959 . S
C429 H436 0.961 . S
C429 H437 0.960 . S
C430 C428 1.381 . S
C430 C431 1.394 . S
C430 H438 0.930 . S
C431 C430 1.394 . S
C431 C432 1.383 . S
C431 H439 0.929 . S
C432 C431 1.383 . S
C432 C433 1.377 . S
C433 H417 0.930 1_545 S
C433 C432 1.377 . S
C433 C434 1.379 . S
C434 H418 0.931 1_545 S
C434 C428 1.383 . S
C434 C433 1.379 . S
H435 C429 0.959 . S
H436 C429 0.961 . S
H437 C429 0.960 . S
H438 C430 0.930 . S
H439 C431 0.929 . S
H440 C448 0.929 . S
H441 C450 0.930 . S
H442 C452 0.930 . S
H443 C455 0.929 . S
H444 C458 0.930 . S
H445 C460 0.960 . S
H446 C460 0.960 . S
H447 C460 0.960 . S
C448 H440 0.929 . S
C448 C449 1.377 . S
C448 C450 1.384 . S
C449 C448 1.377 . S
C449 C455 1.390 . S
C450 H441 0.930 . S
C450 C448 1.384 . S
C450 C451 1.372 . S
C451 C450 1.372 . S
C451 C452 1.400 . S
C451 C456 1.490 . S
C452 H442 0.930 . S
C452 C451 1.400 . S
C452 C455 1.386 . S
H453 C469 0.930 . S
H454 C470 0.931 . S
C455 H443 0.929 . S
C455 C449 1.390 . S
C455 C452 1.386 . S
C456 C451 1.490 . S
C456 C458 1.395 . S
C456 C459 1.403 . S
H457 C463 0.930 . S
C458 H444 0.930 . S
C458 C456 1.395 . S
C458 C461 1.403 . S
C459 C456 1.403 . S
C459 C460 1.524 . S
C459 C463 1.400 . S
C460 H445 0.960 . S
C460 H446 0.960 . S
C460 H447 0.960 . S
C460 C459 1.524 . S
C461 C458 1.403 . S
C461 C462 1.392 . S
C461 C465 1.495 . S
C462 C461 1.392 . S
C462 C463 1.385 . S
C462 C464 1.478 . S
C463 H457 0.930 . S
C463 C459 1.400 . S
C463 C462 1.385 . S
C464 C462 1.478 . S
C464 C466 1.381 . S
C464 C470 1.383 . S
C465 C461 1.495 . S
C465 H471 0.959 . S
C465 H472 0.961 . S
C465 H473 0.960 . S
C466 C464 1.381 . S
C466 C467 1.394 . S
C466 H474 0.930 . S
C467 C466 1.394 . S
C467 C468 1.383 . S
C467 H475 0.929 . S
C468 C467 1.383 . S
C468 C469 1.377 . S
C469 H453 0.930 . S
C469 C468 1.377 . S
C469 C470 1.379 . S
C470 H454 0.931 . S
C470 C464 1.383 . S
C470 C469 1.379 . S
H471 C465 0.959 . S
H472 C465 0.961 . S
H473 C465 0.960 . S
H474 C466 0.930 . S
H475 C467 0.929 . S
H476 C484 0.929 . S
H477 C486 0.930 . S
H478 C488 0.930 1_565 S
H479 C491 0.929 1_565 S
H480 C494 0.930 . S
H481 C496 0.960 . S
H482 C496 0.960 . S
H483 C496 0.960 . S
C484 H476 0.929 . S
C484 C485 1.377 . S
C484 C486 1.384 . S
C485 C484 1.377 . S
C485 C491 1.390 . S
C486 H477 0.930 . S
C486 C484 1.384 . S
C486 C487 1.372 . S
C487 C486 1.372 . S
C487 C488 1.400 . S
C487 C492 1.490 . S
C488 H478 0.930 1_545 S
C488 C487 1.400 . S
C488 C491 1.386 . S
H489 C505 0.930 . S
H490 C506 0.931 . S
C491 H479 0.929 1_545 S
C491 C485 1.390 . S
C491 C488 1.386 . S
C492 C487 1.490 . S
C492 C494 1.395 . S
C492 C495 1.403 . S
H493 C499 0.930 . S
C494 H480 0.930 . S
C494 C492 1.395 . S
C494 C497 1.403 . S
C495 C492 1.403 . S
C495 C496 1.524 . S
C495 C499 1.400 . S
C496 H481 0.960 . S
C496 H482 0.960 . S
C496 H483 0.960 . S
C496 C495 1.524 . S
C497 C494 1.403 . S
C497 C498 1.392 . S
C497 C501 1.495 . S
C498 C497 1.392 . S
C498 C499 1.385 . S
C498 C500 1.478 . S
C499 H493 0.930 . S
C499 C495 1.400 . S
C499 C498 1.385 . S
C500 C498 1.478 . S
C500 C502 1.381 . S
C500 C506 1.383 1_545 S
C501 C497 1.495 . S
C501 H507 0.959 1_545 S
C501 H508 0.961 1_545 S
C501 H509 0.960 . S
C502 C500 1.381 . S
C502 C503 1.394 . S
C502 H510 0.930 . S
C503 C502 1.394 . S
C503 C504 1.383 . S
C503 H511 0.929 . S
C504 C503 1.383 . S
C504 C505 1.377 1_545 S
C505 H489 0.930 . S
C505 C504 1.377 1_565 S
C505 C506 1.379 . S
C506 H490 0.931 . S
C506 C500 1.383 1_565 S
C506 C505 1.379 . S
H507 C501 0.959 1_565 S
H508 C501 0.961 1_565 S
H509 C501 0.960 . S
H510 C502 0.930 . S
H511 C503 0.929 . S
H512 C520 0.929 . S
H513 C522 0.930 . S
H514 C524 0.930 . S
H515 C527 0.929 . S
H516 C530 0.930 . S
H517 C532 0.960 . S
H518 C532 0.960 . S
H519 C532 0.960 . S
C520 H512 0.929 . S
C520 C521 1.377 . S
C520 C522 1.384 . S
C521 C520 1.377 . S
C521 C527 1.390 . S
C522 H513 0.930 . S
C522 C520 1.384 . S
C522 C523 1.372 . S
C523 C522 1.372 . S
C523 C524 1.400 . S
C523 C528 1.490 . S
C524 H514 0.930 . S
C524 C523 1.400 . S
C524 C527 1.386 . S
H525 C541 0.930 . S
H526 C542 0.931 . S
C527 H515 0.929 . S
C527 C521 1.390 . S
C527 C524 1.386 . S
C528 C523 1.490 . S
C528 C530 1.395 . S
C528 C531 1.403 . S
H529 C535 0.930 . S
C530 H516 0.930 . S
C530 C528 1.395 . S
C530 C533 1.403 . S
C531 C528 1.403 . S
C531 C532 1.524 . S
C531 C535 1.400 . S
C532 H517 0.960 . S
C532 H518 0.960 . S
C532 H519 0.960 . S
C532 C531 1.524 . S
C533 C530 1.403 . S
C533 C534 1.392 . S
C533 C537 1.495 . S
C534 C533 1.392 . S
C534 C535 1.385 . S
C534 C536 1.478 . S
C535 H529 0.930 . S
C535 C531 1.400 . S
C535 C534 1.385 . S
C536 C534 1.478 . S
C536 C538 1.381 . S
C536 C542 1.383 . S
C537 C533 1.495 . S
C537 H543 0.959 . S
C537 H544 0.961 . S
C537 H545 0.960 . S
C538 C536 1.381 . S
C538 C539 1.394 . S
C538 H546 0.930 . S
C539 C538 1.394 . S
C539 C540 1.383 . S
C539 H547 0.929 . S
C540 C539 1.383 . S
C540 C541 1.377 . S
C541 H525 0.930 . S
C541 C540 1.377 . S
C541 C542 1.379 . S
C542 H526 0.931 . S
C542 C536 1.383 . S
C542 C541 1.379 . S
H543 C537 0.959 . S
H544 C537 0.961 . S
H545 C537 0.960 . S
H546 C538 0.930 . S
H547 C539 0.929 . S
H548 C556 0.929 . S
H549 C558 0.930 . S
H550 C560 0.930 . S
H551 C563 0.929 . S
H552 C566 0.930 . S
H553 C568 0.960 . S
H554 C568 0.960 . S
H555 C568 0.960 . S
C556 H548 0.929 . S
C556 C557 1.377 1_565 S
C556 C558 1.384 . S
C557 C556 1.377 1_545 S
C557 C563 1.390 . S
C558 H549 0.930 . S
C558 C556 1.384 . S
C558 C559 1.372 1_565 S
C559 C558 1.372 1_545 S
C559 C560 1.400 . S
C559 C564 1.490 . S
C560 H550 0.930 . S
C560 C559 1.400 . S
C560 C563 1.386 . S
H561 C577 0.930 . S
H562 C578 0.931 . S
C563 H551 0.929 . S
C563 C557 1.390 . S
C563 C560 1.386 . S
C564 C559 1.490 . S
C564 C566 1.395 . S
C564 C567 1.403 . S
H565 C571 0.930 . S
C566 H552 0.930 . S
C566 C564 1.395 . S
C566 C569 1.403 . S
C567 C564 1.403 . S
C567 C568 1.524 . S
C567 C571 1.400 . S
C568 H553 0.960 . S
C568 H554 0.960 . S
C568 H555 0.960 . S
C568 C567 1.524 . S
C569 C566 1.403 . S
C569 C570 1.392 . S
C569 C573 1.495 . S
C570 C569 1.392 . S
C570 C571 1.385 . S
C570 C572 1.478 . S
C571 H565 0.930 . S
C571 C567 1.400 . S
C571 C570 1.385 . S
C572 C570 1.478 . S
C572 C574 1.381 1_545 S
C572 C578 1.383 . S
C573 C569 1.495 . S
C573 H579 0.959 . S
C573 H580 0.961 . S
C573 H581 0.960 1_545 S
C574 C572 1.381 1_565 S
C574 C575 1.394 . S
C574 H582 0.930 . S
C575 C574 1.394 . S
C575 C576 1.383 1_565 S
C575 H583 0.929 . S
C576 C575 1.383 1_545 S
C576 C577 1.377 . S
C577 H561 0.930 . S
C577 C576 1.377 . S
C577 C578 1.379 . S
C578 H562 0.931 . S
C578 C572 1.383 . S
C578 C577 1.379 . S
H579 C573 0.959 . S
H580 C573 0.961 . S
H581 C573 0.960 1_565 S
H582 C574 0.930 . S
H583 C575 0.929 . S
H584 C592 0.929 . S
H585 C594 0.930 . S
H586 C596 0.930 . S
H587 C599 0.929 . S
H588 C602 0.930 . S
H589 C604 0.960 . S
H590 C604 0.960 . S
H591 C604 0.960 . S
C592 H584 0.929 . S
C592 C593 1.377 . S
C592 C594 1.384 . S
C593 C592 1.377 . S
C593 C599 1.390 . S
C594 H585 0.930 . S
C594 C592 1.384 . S
C594 C595 1.372 . S
C595 C594 1.372 . S
C595 C596 1.400 . S
C595 C600 1.490 . S
C596 H586 0.930 . S
C596 C595 1.400 . S
C596 C599 1.386 . S
H597 C613 0.930 . S
H598 C614 0.931 . S
C599 H587 0.929 . S
C599 C593 1.390 . S
C599 C596 1.386 . S
C600 C595 1.490 . S
C600 C602 1.395 . S
C600 C603 1.403 . S
H601 C607 0.930 . S
C602 H588 0.930 . S
C602 C600 1.395 . S
C602 C605 1.403 . S
C603 C600 1.403 . S
C603 C604 1.524 . S
C603 C607 1.400 . S
C604 H589 0.960 . S
C604 H590 0.960 . S
C604 H591 0.960 . S
C604 C603 1.524 . S
C605 C602 1.403 . S
C605 C606 1.392 . S
C605 C609 1.495 . S
C606 C605 1.392 . S
C606 C607 1.385 . S
C606 C608 1.478 . S
C607 H601 0.930 . S
C607 C603 1.400 . S
C607 C606 1.385 . S
C608 C606 1.478 . S
C608 C610 1.381 . S
C608 C614 1.383 . S
C609 C605 1.495 . S
C609 H615 0.959 . S
C609 H616 0.961 . S
C609 H617 0.960 . S
C610 C608 1.381 . S
C610 C611 1.394 . S
C610 H618 0.930 . S
C611 C610 1.394 . S
C611 C612 1.383 . S
C611 H619 0.929 . S
C612 C611 1.383 . S
C612 C613 1.377 . S
C613 H597 0.930 . S
C613 C612 1.377 . S
C613 C614 1.379 . S
C614 H598 0.931 . S
C614 C608 1.383 . S
C614 C613 1.379 . S
H615 C609 0.959 . S
H616 C609 0.961 . S
H617 C609 0.960 . S
H618 C610 0.930 . S
H619 C611 0.929 . S
H620 C628 0.929 . S
H621 C630 0.930 . S
H622 C632 0.930 . S
H623 C635 0.929 . S
H624 C638 0.930 . S
H625 C640 0.960 . S
H626 C640 0.960 . S
H627 C640 0.960 . S
C628 H620 0.929 . S
C628 C629 1.377 1_565 S
C628 C630 1.384 . S
C629 C628 1.377 1_545 S
C629 C635 1.390 . S
C630 H621 0.930 . S
C630 C628 1.384 . S
C630 C631 1.372 1_565 S
C631 C630 1.372 1_545 S
C631 C632 1.400 . S
C631 C636 1.490 . S
C632 H622 0.930 . S
C632 C631 1.400 . S
C632 C635 1.386 . S
H633 C649 0.930 . S
H634 C650 0.931 . S
C635 H623 0.929 . S
C635 C629 1.390 . S
C635 C632 1.386 . S
C636 C631 1.490 . S
C636 C638 1.395 1_545 S
C636 C639 1.403 . S
H637 C643 0.930 . S
C638 H624 0.930 . S
C638 C636 1.395 1_565 S
C638 C641 1.403 . S
C639 C636 1.403 . S
C639 C640 1.524 . S
C639 C643 1.400 . S
C640 H625 0.960 . S
C640 H626 0.960 . S
C640 H627 0.960 . S
C640 C639 1.524 . S
C641 C638 1.403 . S
C641 C642 1.392 1_565 S
C641 C645 1.495 . S
C642 C641 1.392 1_545 S
C642 C643 1.385 . S
C642 C644 1.478 . S
C643 H637 0.930 . S
C643 C639 1.400 . S
C643 C642 1.385 . S
C644 C642 1.478 . S
C644 C646 1.381 1_545 S
C644 C650 1.383 . S
C645 C641 1.495 . S
C645 H651 0.959 . S
C645 H652 0.961 . S
C645 H653 0.960 . S
C646 C644 1.381 1_565 S
C646 C647 1.394 . S
C646 H654 0.930 . S
C647 C646 1.394 . S
C647 C648 1.383 1_565 S
C647 H655 0.929 . S
C648 C647 1.383 1_545 S
C648 C649 1.377 . S
C649 H633 0.930 . S
C649 C648 1.377 . S
C649 C650 1.379 . S
C650 H634 0.931 . S
C650 C644 1.383 . S
C650 C649 1.379 . S
H651 C645 0.959 . S
H652 C645 0.961 . S
H653 C645 0.960 . S
H654 C646 0.930 . S
H655 C647 0.929 . S
H656 C664 0.929 . S
H657 C666 0.930 . S
H658 C668 0.930 . S
H659 C671 0.929 . S
H660 C674 0.930 . S
H661 C676 0.960 . S
H662 C676 0.960 . S
H663 C676 0.960 . S
C664 H656 0.929 . S
C664 C665 1.377 . S
C664 C666 1.384 . S
C665 C664 1.377 . S
C665 C671 1.390 . S
C666 H657 0.930 . S
C666 C664 1.384 . S
C666 C667 1.372 . S
C667 C666 1.372 . S
C667 C668 1.400 . S
C667 C672 1.490 . S
C668 H658 0.930 . S
C668 C667 1.400 . S
C668 C671 1.386 . S
H669 C685 0.930 . S
H670 C686 0.931 . S
C671 H659 0.929 . S
C671 C665 1.390 . S
C671 C668 1.386 . S
C672 C667 1.490 . S
C672 C674 1.395 . S
C672 C675 1.403 . S
H673 C679 0.930 . S
C674 H660 0.930 . S
C674 C672 1.395 . S
C674 C677 1.403 . S
C675 C672 1.403 . S
C675 C676 1.524 . S
C675 C679 1.400 . S
C676 H661 0.960 . S
C676 H662 0.960 . S
C676 H663 0.960 . S
C676 C675 1.524 . S
C677 C674 1.403 . S
C677 C678 1.392 . S
C677 C681 1.495 . S
C678 C677 1.392 . S
C678 C679 1.385 . S
C678 C680 1.478 . S
C679 H673 0.930 . S
C679 C675 1.400 . S
C679 C678 1.385 . S
C680 C678 1.478 . S
C680 C682 1.381 . S
C680 C686 1.383 . S
C681 C677 1.495 . S
C681 H687 0.959 . S
C681 H688 0.961 . S
C681 H689 0.960 . S
C682 C680 1.381 . S
C682 C683 1.394 . S
C682 H690 0.930 . S
C683 C682 1.394 . S
C683 C684 1.383 . S
C683 H691 0.929 . S
C684 C683 1.383 . S
C684 C685 1.377 . S
C685 H669 0.930 . S
C685 C684 1.377 . S
C685 C686 1.379 . S
C686 H670 0.931 . S
C686 C680 1.383 . S
C686 C685 1.379 . S
H687 C681 0.959 . S
H688 C681 0.961 . S
H689 C681 0.960 . S
H690 C682 0.930 . S
H691 C683 0.929 . S
C432 C277 1.467 . S
C413 C11 0.904 . S
C468 C365 1.278 . S
C449 C115 1.021 . S
C504 C285 1.282 . S
C485 C1 1.017 . S
C540 C373 1.471 . S
C521 C125 0.921 . S
C576 C345 1.569 . S
C557 C55 1.147 . S
C612 C248 1.380 . S
C593 C143 1.121 . S
C648 C336 1.384 . S
C629 C29 1.100 . S
C665 C169 1.155 . S
C684 C257 1.577 . S
