# Generated by pormake.
# Topology the, (3,8)-cn, num edge types: 1
# Building blocks:
#     Node 0, Type 0, BuildingBlock: MIDCAF_clean_linker_0, # of connection points: 3
#     Node 1, Type 0, BuildingBlock: MIDCAF_clean_linker_0, # of connection points: 3
#     Node 2, Type 0, BuildingBlock: MIDCAF_clean_linker_0, # of connection points: 3
#     Node 3, Type 0, BuildingBlock: MIDCAF_clean_linker_0, # of connection points: 3
#     Node 4, Type 0, BuildingBlock: MIDCAF_clean_linker_0, # of connection points: 3
#     Node 5, Type 0, BuildingBlock: MIDCAF_clean_linker_0, # of connection points: 3
#     Node 6, Type 0, BuildingBlock: MIDCAF_clean_linker_0, # of connection points: 3
#     Node 7, Type 0, BuildingBlock: MIDCAF_clean_linker_0, # of connection points: 3
#     Node 8, Type 1, BuildingBlock: GIZVER_clean_sbu_0, # of connection points: 8
#     Node 9, Type 1, BuildingBlock: GIZVER_clean_sbu_0, # of connection points: 8
#     Node 10, Type 1, BuildingBlock: GIZVER_clean_sbu_0, # of connection points: 8
#     Edge 11, Type (0, 1), None
#     Edge 12, Type (0, 1), None
#     Edge 13, Type (0, 1), None
#     Edge 14, Type (0, 1), None
#     Edge 15, Type (0, 1), None
#     Edge 16, Type (0, 1), None
#     Edge 17, Type (0, 1), None
#     Edge 18, Type (0, 1), None
#     Edge 19, Type (0, 1), None
#     Edge 20, Type (0, 1), None
#     Edge 21, Type (0, 1), None
#     Edge 22, Type (0, 1), None
#     Edge 23, Type (0, 1), None
#     Edge 24, Type (0, 1), None
#     Edge 25, Type (0, 1), None
#     Edge 26, Type (0, 1), None
#     Edge 27, Type (0, 1), None
#     Edge 28, Type (0, 1), None
#     Edge 29, Type (0, 1), None
#     Edge 30, Type (0, 1), None
#     Edge 31, Type (0, 1), None
#     Edge 32, Type (0, 1), None
#     Edge 33, Type (0, 1), None
#     Edge 34, Type (0, 1), None
# Relax obj value: 0.056
# Max RMSD: 0.137
# Mean RMSD: 0.085
data_MOF--net-the--node1-GIZVER_clean_sbu_0--node2-MIDCAF_clean_linker_0--edge1-none
_symmetry_space_group_name_H-M    P1
_symmetry_Int_Tables_number       1
_symmetry_cell_setting            triclinic
loop_
_symmetry_equiv_pos_as_xyz
'x, y, z'
_cell_length_a     28.186262
_cell_length_b     27.187445
_cell_length_c     24.876592
_cell_angle_alpha  85.778329
_cell_angle_beta   98.796943
_cell_angle_gamma 109.59199
loop_
_atom_site_label
_atom_site_type_symbol
_atom_site_fract_x
_atom_site_fract_y
_atom_site_fract_z
_atom_type_partial_charge
C0 C 0.14966 0.33168 0.43902 0.0
C1 C 0.15862 0.37856 0.46538 0.0
C2 C 0.20881 0.40929 0.48393 0.0
C3 C 0.24936 0.39544 0.47299 0.0
H4 H 0.28774 0.19903 0.44042 0.0
H5 H 0.32028 0.12528 0.45396 0.0
H6 H 0.474 0.23316 0.46486 0.0
H7 H 0.44147 0.30624 0.44969 0.0
H8 H 0.44516 0.41484 0.34974 0.0
H9 H 0.47639 0.45221 0.26435 0.0
H10 H 0.32308 0.43638 0.19086 0.0
H11 H 0.29205 0.40092 0.27704 0.0
H12 H 0.18349 0.28276 0.40571 0.0
H13 H 0.11134 0.30717 0.42466 0.0
H14 H 0.21709 0.44546 0.5047 0.0
H15 H 0.2878 0.42117 0.48493 0.0
N16 N 0.3013 0.3044 0.4433 0.0
N17 N 0.36577 0.33547 0.38744 0.0
N18 N 0.30499 0.37701 0.38453 0.0
C19 C 0.34329 0.30098 0.42566 0.0
C20 C 0.34647 0.37324 0.36644 0.0
C21 C 0.28286 0.3431 0.42328 0.0
C22 C 0.36232 0.25787 0.44377 0.0
C23 C 0.32845 0.20669 0.44672 0.0
C24 C 0.34694 0.16469 0.45383 0.0
C25 C 0.39946 0.17375 0.45946 0.0
C26 C 0.43328 0.22519 0.46022 0.0
C27 C 0.4148 0.26693 0.45167 0.0
C28 C 0.36636 0.4049 0.31953 0.0
C29 C 0.41848 0.42084 0.31577 0.0
C30 C 0.43624 0.44226 0.2671 0.0
C31 C 0.40183 0.44635 0.22123 0.0
C32 C 0.35008 0.43311 0.2258 0.0
C33 C 0.3325 0.41321 0.27502 0.0
C34 C 0.24041 0.35036 0.44415 0.0
C35 C 0.19062 0.31752 0.42857 0.0
C36 C 0.63265 0.16207 0.41694 0.0
C37 C 0.58339 0.13543 0.39103 0.0
C38 C 0.56783 0.15275 0.33891 0.0
C39 C 0.5992 0.19741 0.31479 0.0
H40 H 0.57857 0.30029 0.20708 0.0
H41 H 0.52481 0.3366 0.14313 0.0
H42 H 0.64511 0.48541 0.14616 0.0
H43 H 0.69975 0.44895 0.2117 0.0
H44 H 0.79328 0.46247 0.31753 0.0
H45 H 0.87157 0.51554 0.37055 0.0
H46 H 0.89477 0.37693 0.4482 0.0
H47 H 0.81557 0.32303 0.39562 0.0
H48 H 0.70067 0.22817 0.41509 0.0
H49 H 0.64595 0.14981 0.45716 0.0
H50 H 0.53043 0.13302 0.3175 0.0
H51 H 0.58482 0.21031 0.27535 0.0
N52 N 0.65193 0.30018 0.27813 0.0
N53 N 0.72135 0.3776 0.28275 0.0
N54 N 0.72307 0.30691 0.34314 0.0
C55 C 0.67392 0.34931 0.25905 0.0
C56 C 0.74649 0.35643 0.32458 0.0
C57 C 0.67565 0.27847 0.31984 0.0
C58 C 0.64373 0.37173 0.21548 0.0
C59 C 0.59421 0.34074 0.19421 0.0
C60 C 0.56305 0.36157 0.15721 0.0
C61 C 0.58035 0.41399 0.1396 0.0
C62 C 0.63061 0.44472 0.15874 0.0
C63 C 0.66191 0.42388 0.19648 0.0
C64 C 0.79747 0.38827 0.35245 0.0
C65 C 0.81522 0.4429 0.3451 0.0
C66 C 0.86025 0.47345 0.37546 0.0
C67 C 0.88946 0.45034 0.41314 0.0
C68 C 0.87345 0.39569 0.41876 0.0
C69 C 0.82776 0.36497 0.38897 0.0
C70 C 0.647 0.22637 0.34222 0.0
C71 C 0.66408 0.20715 0.39285 0.0
C72 C 0.66954 0.63802 0.14491 0.0
C73 C 0.61948 0.6377 0.13009 0.0
C74 C 0.60363 0.67485 0.15175 0.0
C75 C 0.63628 0.70966 0.19055 0.0
H76 H 0.62114 0.77602 0.32187 0.0
H77 H 0.57869 0.8212 0.36773 0.0
H78 H 0.72187 0.90786 0.45932 0.0
H79 H 0.76519 0.86114 0.41344 0.0
H80 H 0.83891 0.76702 0.43313 0.0
H81 H 0.89871 0.72383 0.47833 0.0
H82 H 0.88421 0.6427 0.33122 0.0
H83 H 0.8272 0.68682 0.28518 0.0
H84 H 0.73988 0.6701 0.19672 0.0
H85 H 0.68212 0.60896 0.12936 0.0
H86 H 0.56485 0.67477 0.14121 0.0
H87 H 0.62181 0.73593 0.20848 0.0
N88 N 0.69705 0.76551 0.28529 0.0
N89 N 0.76478 0.77691 0.35663 0.0
N90 N 0.75886 0.72706 0.28106 0.0
C91 C 0.72128 0.7865 0.33407 0.0
C92 C 0.78389 0.74714 0.32987 0.0
C93 C 0.71565 0.73602 0.25828 0.0
C94 C 0.69679 0.81504 0.36366 0.0
C95 C 0.644 0.80475 0.35159 0.0
C96 C 0.61946 0.83059 0.37814 0.0
C97 C 0.6469 0.86833 0.41696 0.0
C98 C 0.69982 0.87926 0.42916 0.0
C99 C 0.72451 0.85233 0.40318 0.0
C100 C 0.82726 0.72988 0.35566 0.0
C101 C 0.84971 0.74128 0.4099 0.0
C102 C 0.88403 0.71664 0.43584 0.0
C103 C 0.89575 0.6799 0.40812 0.0
C104 C 0.87599 0.67117 0.35327 0.0
C105 C 0.84283 0.69632 0.32713 0.0
C106 C 0.68528 0.70744 0.20899 0.0
C107 C 0.70231 0.67276 0.18391 0.0
C108 C 0.15634 0.62693 0.41375 0.0
C109 C 0.13058 0.57629 0.39416 0.0
C110 C 0.14742 0.56017 0.35022 0.0
C111 C 0.19056 0.59265 0.32855 0.0
H112 H 0.29272 0.59627 0.21623 0.0
H113 H 0.33703 0.55601 0.16439 0.0
H114 H 0.48023 0.67027 0.22504 0.0
H115 H 0.43664 0.7107 0.27554 0.0
H116 H 0.42794 0.82084 0.3099 0.0
H117 H 0.48551 0.89607 0.36092 0.0
H118 H 0.3806 0.86951 0.47744 0.0
H119 H 0.32226 0.79392 0.42664 0.0
H120 H 0.21915 0.69748 0.40945 0.0
H121 H 0.14447 0.6408 0.44745 0.0
H122 H 0.12858 0.52151 0.33394 0.0
H123 H 0.20328 0.57807 0.29599 0.0
N124 N 0.28868 0.65361 0.29727 0.0
N125 N 0.36073 0.72877 0.30453 0.0
N126 N 0.29342 0.72214 0.35248 0.0
C127 C 0.33549 0.68076 0.28357 0.0
C128 C 0.34005 0.75001 0.33868 0.0
C129 C 0.26724 0.67406 0.33165 0.0
C130 C 0.36103 0.65686 0.25003 0.0
C131 C 0.33362 0.61293 0.21813 0.0
C132 C 0.35889 0.58996 0.18832 0.0
C133 C 0.41207 0.6099 0.1908 0.0
C134 C 0.43924 0.65376 0.22251 0.0
C135 C 0.41409 0.67718 0.25131 0.0
C136 C 0.37056 0.80073 0.36442 0.0
C137 C 0.41627 0.83157 0.34559 0.0
C138 C 0.4491 0.87507 0.37436 0.0
C139 C 0.43685 0.88893 0.4223 0.0
C140 C 0.39016 0.86015 0.43978 0.0
C141 C 0.35703 0.81666 0.41083 0.0
C142 C 0.21795 0.64221 0.35009 0.0
C143 C 0.19939 0.65949 0.39194 0.0
C144 C 0.19903 0.56363 0.6624 0.0
C145 C 0.16981 0.58674 0.62472 0.0
C146 C 0.18581 0.64139 0.6191 0.0
C147 C 0.2315 0.67212 0.64888 0.0
H148 H 0.35861 0.80893 0.62276 0.0
H149 H 0.41333 0.88729 0.58069 0.0
H150 H 0.52883 0.90409 0.72037 0.0
H151 H 0.47444 0.8268 0.76251 0.0
H152 H 0.48067 0.73684 0.83082 0.0
H153 H 0.53442 0.70052 0.89477 0.0
H154 H 0.41414 0.5517 0.8917 0.0
H155 H 0.3595 0.58816 0.82616 0.0
H156 H 0.26601 0.57463 0.72032 0.0
H157 H 0.18772 0.52154 0.66732 0.0
H158 H 0.16448 0.66014 0.58966 0.0
H159 H 0.24368 0.71406 0.64223 0.0
N160 N 0.3362 0.73019 0.69471 0.0
N161 N 0.40733 0.73693 0.75973 0.0
N162 N 0.33791 0.65951 0.75512 0.0
C163 C 0.38362 0.75863 0.71802 0.0
C164 C 0.38534 0.6878 0.77882 0.0
C165 C 0.31277 0.68068 0.71327 0.0
C166 C 0.41227 0.81073 0.69564 0.0
C167 C 0.39519 0.82996 0.645 0.0
C168 C 0.42663 0.87503 0.62091 0.0
C169 C 0.47588 0.90168 0.64683 0.0
C170 C 0.49144 0.88435 0.69895 0.0
C171 C 0.46007 0.8397 0.72307 0.0
C172 C 0.41551 0.66538 0.8224 0.0
C173 C 0.46503 0.69638 0.84369 0.0
C174 C 0.49619 0.67555 0.88069 0.0
C175 C 0.47889 0.62312 0.89828 0.0
C176 C 0.42864 0.59239 0.87913 0.0
C177 C 0.39734 0.61324 0.84139 0.0
C178 C 0.2618 0.64882 0.68541 0.0
C179 C 0.24406 0.59419 0.69276 0.0
C180 C 0.18316 0.36579 0.68462 0.0
C181 C 0.16343 0.35709 0.62976 0.0
C182 C 0.1752 0.32039 0.60202 0.0
C183 C 0.20952 0.29577 0.62796 0.0
H184 H 0.29407 0.17592 0.62445 0.0
H185 H 0.3374 0.12921 0.57857 0.0
H186 H 0.48058 0.21595 0.67009 0.0
H187 H 0.43812 0.26111 0.71596 0.0
H188 H 0.43743 0.30118 0.82939 0.0
H189 H 0.49438 0.36234 0.89666 0.0
H190 H 0.3771 0.42815 0.90847 0.0
H191 H 0.31935 0.367 0.84111 0.0
H192 H 0.23193 0.35012 0.75272 0.0
H193 H 0.1749 0.39422 0.70669 0.0
H194 H 0.16054 0.31324 0.55952 0.0
H195 H 0.22036 0.27007 0.60472 0.0
N196 N 0.29446 0.26015 0.68123 0.0
N197 N 0.36221 0.27159 0.75256 0.0
N198 N 0.30037 0.31 0.7568 0.0
C199 C 0.33797 0.25059 0.70379 0.0
C200 C 0.34359 0.30107 0.77957 0.0
C201 C 0.27533 0.28991 0.708 0.0
C202 C 0.36247 0.22206 0.67419 0.0
C203 C 0.33475 0.18475 0.63469 0.0
C204 C 0.35945 0.15782 0.60871 0.0
C205 C 0.41237 0.16878 0.62089 0.0
C206 C 0.43981 0.20654 0.6597 0.0
C207 C 0.41527 0.23237 0.68624 0.0
C208 C 0.37396 0.32966 0.82886 0.0
C209 C 0.42296 0.32745 0.84731 0.0
C210 C 0.4556 0.36225 0.88611 0.0
C211 C 0.43975 0.3994 0.90777 0.0
C212 C 0.38968 0.39908 0.89293 0.0
C213 C 0.35692 0.36434 0.85393 0.0
C214 C 0.23194 0.30713 0.68222 0.0
C215 C 0.21632 0.34064 0.71076 0.0
C216 C 0.66911 0.17696 0.5981 0.0
C217 C 0.62241 0.14819 0.61557 0.0
C218 C 0.61016 0.16205 0.6635 0.0
C219 C 0.64298 0.20555 0.69227 0.0
H220 H 0.6226 0.32646 0.76224 0.0
H221 H 0.579 0.36689 0.81274 0.0
H222 H 0.72221 0.4811 0.87346 0.0
H223 H 0.76653 0.44085 0.82163 0.0
H224 H 0.85598 0.45905 0.74187 0.0
H225 H 0.93069 0.51559 0.70393 0.0
H226 H 0.91482 0.39628 0.59046 0.0
H227 H 0.84014 0.33961 0.62845 0.0
H228 H 0.73701 0.24318 0.61124 0.0
H229 H 0.67868 0.16759 0.56044 0.0
H230 H 0.57375 0.14106 0.67694 0.0
H231 H 0.63131 0.21629 0.72795 0.0
N232 N 0.69852 0.30836 0.73332 0.0
N233 N 0.77058 0.38351 0.74058 0.0
N234 N 0.76585 0.31497 0.68539 0.0
C235 C 0.72376 0.35637 0.75428 0.0
C236 C 0.79202 0.36306 0.70622 0.0
C237 C 0.71921 0.28711 0.69918 0.0
C238 C 0.69821 0.38028 0.7878 0.0
C239 C 0.64515 0.35997 0.7865 0.0
C240 C 0.61999 0.38339 0.81528 0.0
C241 C 0.64716 0.42724 0.84701 0.0
C242 C 0.70034 0.44716 0.84952 0.0
C243 C 0.72562 0.4242 0.81971 0.0
C244 C 0.84132 0.39489 0.68779 0.0
C245 C 0.86871 0.44446 0.70933 0.0
C246 C 0.91186 0.47694 0.68766 0.0
C247 C 0.9287 0.4608 0.64373 0.0
C248 C 0.90295 0.41016 0.62415 0.0
C249 C 0.85989 0.3776 0.64595 0.0
C250 C 0.68871 0.23638 0.67345 0.0
C251 C 0.70224 0.22044 0.62705 0.0
C252 C 0.62292 0.59485 0.77072 0.0
C253 C 0.65734 0.59074 0.81658 0.0
C254 C 0.70908 0.60393 0.81198 0.0
C255 C 0.72664 0.62379 0.76274 0.0
H256 H 0.77138 0.61566 0.55305 0.0
H257 H 0.84212 0.5914 0.53333 0.0
H258 H 0.94781 0.72994 0.613 0.0
H259 H 0.87561 0.75432 0.6319 0.0
H260 H 0.61773 0.73082 0.58801 0.0
H261 H 0.58523 0.80393 0.57287 0.0
H262 H 0.73899 0.91177 0.58395 0.0
H263 H 0.77149 0.83799 0.59745 0.0
H264 H 0.61397 0.62225 0.68808 0.0
H265 H 0.58278 0.58493 0.77351 0.0
H266 H 0.73609 0.60065 0.8469 0.0
H267 H 0.76709 0.63606 0.7607 0.0
N268 N 0.75412 0.65997 0.65323 0.0
N269 N 0.75787 0.73259 0.59447 0.0
N270 N 0.69339 0.70156 0.65033 0.0
C271 C 0.77628 0.69387 0.61449 0.0
C272 C 0.71589 0.73604 0.61211 0.0
C273 C 0.71267 0.66376 0.67132 0.0
C274 C 0.81874 0.6866 0.59364 0.0
C275 C 0.80981 0.64145 0.56492 0.0
C276 C 0.85038 0.62762 0.554 0.0
C277 C 0.90057 0.65843 0.57247 0.0
C278 C 0.90949 0.70536 0.59872 0.0
C279 C 0.86852 0.71951 0.60913 0.0
C280 C 0.69689 0.77918 0.59401 0.0
C281 C 0.64442 0.77013 0.58608 0.0
C282 C 0.62596 0.81189 0.57755 0.0
C283 C 0.65979 0.86332 0.57836 0.0
C284 C 0.71231 0.87236 0.58403 0.0
C285 C 0.73078 0.83035 0.59112 0.0
C286 C 0.69277 0.63212 0.71824 0.0
C287 C 0.64066 0.61623 0.72205 0.0
Co288 Co 0.11103 0.45048 0.56479 0.0
Co289 Co 0.06206 0.43749 0.46397 0.0
Co290 Co 0.02963 0.51854 0.51894 0.0
O291 O 0.04564 0.45199 0.53035 0.0
H292 H 1.01783 0.42321 0.54193 0.0
O293 O 1.01362 0.58508 0.50753 0.0
Co294 Co 0.94821 0.58656 0.4731 0.0
Co295 Co 0.9972 0.59959 0.57392 0.0
H296 H 0.04142 0.61386 0.49593 0.0
O297 O 0.07069 0.37414 0.44901 0.0
O298 O 0.12779 0.44255 0.49331 0.0
O299 O 0.07146 0.49188 0.40773 0.0
O300 O 0.08292 0.55137 0.46897 0.0
O301 O 0.97693 0.4851 0.45565 0.0
O302 O 0.89071 0.59413 0.44032 0.0
O303 O 0.9667 0.65704 0.45921 0.0
O304 O 0.91954 0.51374 0.48093 0.0
O305 O 0.97635 0.48571 0.56892 0.0
O306 O 0.98784 0.5452 0.63016 0.0
O307 O 0.93146 0.59448 0.54458 0.0
O308 O 0.98851 0.66292 0.58886 0.0
C309 C 0.14017 0.39426 0.60054 0.0
C310 C 0.12839 0.55304 0.58593 0.0
C311 C 0.09061 0.53864 0.42341 0.0
C312 C 0.11699 0.39823 0.47043 0.0
C313 C 0.91903 0.64275 0.43735 0.0
C314 C 0.93088 0.48402 0.45195 0.0
C315 C 0.96868 0.49844 0.61448 0.0
C316 C 0.94223 0.6388 0.56744 0.0
O317 O 0.16851 0.44288 0.59759 0.0
O318 O 0.09251 0.38 0.57867 0.0
O319 O 0.08234 0.55198 0.58223 0.0
O320 O 0.13972 0.5233 0.55697 0.0
Co321 Co 0.57605 0.92776 0.48031 0.0
Co322 Co 0.60569 0.96513 0.57958 0.0
Co323 Co 0.52964 0.01856 0.51893 0.0
O324 O 0.58743 0.99373 0.51224 0.0
H325 H 0.61632 0.02112 0.50074 0.0
O326 O 0.47185 0.04338 0.52563 0.0
Co327 Co 0.48323 0.10935 0.55755 0.0
Co328 Co 0.45359 0.07197 0.45829 0.0
H329 H 0.44297 0.01599 0.53713 0.0
O330 O 0.66719 0.95139 0.59636 0.0
O331 O 0.59344 0.89973 0.55272 0.0
O332 O 0.56006 0.95298 0.63374 0.0
O333 O 0.49754 0.96008 0.5711 0.0
O334 O 0.57316 0.06346 0.58062 0.0
O335 O 0.4879 0.16787 0.58843 0.0
O336 O 0.41877 0.09622 0.57332 0.0
O337 O 0.55224 0.13198 0.54743 0.0
O338 O 0.56174 0.07703 0.46677 0.0
O339 O 0.49922 0.08411 0.40413 0.0
O340 O 0.46582 0.13737 0.48514 0.0
O341 O 0.39208 0.08569 0.4415 0.0
C342 C 0.61886 0.89414 0.4447 0.0
C343 C 0.47722 0.92441 0.45963 0.0
C344 C 0.51296 0.94274 0.61721 0.0
C345 C 0.63974 0.90683 0.57525 0.0
C346 C 0.44041 0.14297 0.59315 0.0
C347 C 0.58205 0.11271 0.57824 0.0
C348 C 0.54632 0.09437 0.42065 0.0
C349 C 0.41953 0.13026 0.4626 0.0
O350 O 0.57137 0.86925 0.44942 0.0
O351 O 0.64051 0.94088 0.46454 0.0
O352 O 0.48612 0.97366 0.45724 0.0
O353 O 0.50704 0.90513 0.49043 0.0
Co354 Co 0.48283 0.55558 0.1219 0.0
Co355 Co 0.4534 0.45729 0.09858 0.0
Co356 Co 0.52962 0.51855 0.01893 0.0
O357 O 0.47178 0.51781 0.05662 0.0
H358 H 0.44288 0.52054 0.03163 0.0
O359 O 0.58746 0.51929 0.98123 0.0
Co360 Co 0.5764 0.48153 0.91594 0.0
Co361 Co 0.60583 0.57982 0.93927 0.0
H362 H 0.61636 0.51656 1.00621 0.0
O363 O 0.39167 0.43285 0.12585 0.0
O364 O 0.46546 0.48942 0.1647 0.0
O365 O 0.49711 0.41461 0.10585 0.0
O366 O 0.56138 0.48089 0.08052 0.0
O367 O 0.48574 0.45031 0.9855 0.0
O368 O 0.57173 0.44578 0.85743 0.0
O369 O 0.64055 0.47926 0.9194 0.0
O370 O 0.50791 0.47719 0.90445 0.0
O371 O 0.49786 0.55621 0.95733 0.0
O372 O 0.56214 0.6225 0.93204 0.0
O373 O 0.59375 0.54769 0.87315 0.0
O374 O 0.66756 0.60426 0.91197 0.0
C375 C 0.44023 0.58534 0.16187 0.0
C376 C 0.58084 0.59201 0.10374 0.0
C377 C 0.54446 0.43682 0.10516 0.0
C378 C 0.41946 0.45851 0.16792 0.0
C379 C 0.619 0.45179 0.87595 0.0
C380 C 0.47839 0.44509 0.93412 0.0
C381 C 0.51479 0.60029 0.93272 0.0
C382 C 0.63974 0.5786 0.86991 0.0
O383 O 0.48749 0.59134 0.1804 0.0
O384 O 0.41868 0.55786 0.11843 0.0
O385 O 0.5735 0.58679 0.05235 0.0
O386 O 0.55132 0.55991 0.1334 0.0
loop_
_geom_bond_atom_site_label_1
_geom_bond_atom_site_label_2
_geom_bond_distance
_geom_bond_site_symmetry_2
_ccdc_geom_bond_type
C0 C1 1.384 . S
C0 H13 0.947 . S
C0 C35 1.382 . S
C1 C0 1.384 . S
C1 C2 1.378 . S
C2 C1 1.378 . S
C2 C3 1.378 . S
C2 H14 0.952 . S
C3 C2 1.378 . S
C3 H15 0.950 . S
C3 C34 1.383 . S
H4 C23 0.947 . S
H5 C24 0.946 . S
H6 C26 0.953 . S
H7 C27 0.945 . S
H8 C29 0.952 . S
H9 C30 0.949 . S
H10 C32 0.950 . S
H11 C33 0.948 . S
H12 C35 0.951 . S
H13 C0 0.947 . S
H14 C2 0.952 . S
H15 C3 0.950 . S
N16 C19 1.382 . S
N16 C21 1.363 . S
N17 C19 1.371 . S
N17 C20 1.372 . S
N18 C20 1.361 . S
N18 C21 1.377 . S
C19 N16 1.382 . S
C19 N17 1.371 . S
C19 C22 1.480 . S
C20 N17 1.372 . S
C20 N18 1.361 . S
C20 C28 1.457 . S
C21 N16 1.363 . S
C21 N18 1.377 . S
C21 C34 1.479 . S
C22 C19 1.480 . S
C22 C23 1.383 . S
C22 C27 1.385 . S
C23 H4 0.947 . S
C23 C22 1.383 . S
C23 C24 1.388 . S
C24 H5 0.946 . S
C24 C23 1.388 . S
C24 C25 1.384 . S
C25 C24 1.384 . S
C25 C26 1.377 . S
C26 H6 0.953 . S
C26 C25 1.377 . S
C26 C27 1.369 . S
C27 H7 0.945 . S
C27 C22 1.385 . S
C27 C26 1.369 . S
C28 C20 1.457 . S
C28 C29 1.372 . S
C28 C33 1.364 . S
C29 H8 0.952 . S
C29 C28 1.372 . S
C29 C30 1.389 . S
C30 H9 0.949 . S
C30 C29 1.389 . S
C30 C31 1.387 . S
C31 C30 1.387 . S
C31 C32 1.372 . S
C32 H10 0.950 . S
C32 C31 1.372 . S
C32 C33 1.379 . S
C33 H11 0.948 . S
C33 C28 1.364 . S
C33 C32 1.379 . S
C34 C3 1.383 . S
C34 C21 1.479 . S
C34 C35 1.398 . S
C35 C0 1.382 . S
C35 H12 0.951 . S
C35 C34 1.398 . S
C36 C37 1.384 . S
C36 H49 0.947 . S
C36 C71 1.382 . S
C37 C36 1.384 . S
C37 C38 1.378 . S
C38 C37 1.378 . S
C38 C39 1.378 . S
C38 H50 0.952 . S
C39 C38 1.378 . S
C39 H51 0.950 . S
C39 C70 1.383 . S
H40 C59 0.947 . S
H41 C60 0.946 . S
H42 C62 0.953 . S
H43 C63 0.945 . S
H44 C65 0.952 . S
H45 C66 0.949 . S
H46 C68 0.950 . S
H47 C69 0.948 . S
H48 C71 0.951 . S
H49 C36 0.947 . S
H50 C38 0.952 . S
H51 C39 0.950 . S
N52 C55 1.382 . S
N52 C57 1.363 . S
N53 C55 1.371 . S
N53 C56 1.372 . S
N54 C56 1.361 . S
N54 C57 1.377 . S
C55 N52 1.382 . S
C55 N53 1.371 . S
C55 C58 1.480 . S
C56 N53 1.372 . S
C56 N54 1.361 . S
C56 C64 1.457 . S
C57 N52 1.363 . S
C57 N54 1.377 . S
C57 C70 1.479 . S
C58 C55 1.480 . S
C58 C59 1.383 . S
C58 C63 1.385 . S
C59 H40 0.947 . S
C59 C58 1.383 . S
C59 C60 1.388 . S
C60 H41 0.946 . S
C60 C59 1.388 . S
C60 C61 1.384 . S
C61 C60 1.384 . S
C61 C62 1.377 . S
C62 H42 0.953 . S
C62 C61 1.377 . S
C62 C63 1.369 . S
C63 H43 0.945 . S
C63 C58 1.385 . S
C63 C62 1.369 . S
C64 C56 1.457 . S
C64 C65 1.372 . S
C64 C69 1.364 . S
C65 H44 0.952 . S
C65 C64 1.372 . S
C65 C66 1.389 . S
C66 H45 0.949 . S
C66 C65 1.389 . S
C66 C67 1.387 . S
C67 C66 1.387 . S
C67 C68 1.372 . S
C68 H46 0.950 . S
C68 C67 1.372 . S
C68 C69 1.379 . S
C69 H47 0.948 . S
C69 C64 1.364 . S
C69 C68 1.379 . S
C70 C39 1.383 . S
C70 C57 1.479 . S
C70 C71 1.398 . S
C71 C36 1.382 . S
C71 H48 0.951 . S
C71 C70 1.398 . S
C72 C73 1.384 . S
C72 H85 0.947 . S
C72 C107 1.382 . S
C73 C72 1.384 . S
C73 C74 1.378 . S
C74 C73 1.378 . S
C74 C75 1.378 . S
C74 H86 0.952 . S
C75 C74 1.378 . S
C75 H87 0.950 . S
C75 C106 1.383 . S
H76 C95 0.947 . S
H77 C96 0.946 . S
H78 C98 0.953 . S
H79 C99 0.945 . S
H80 C101 0.952 . S
H81 C102 0.949 . S
H82 C104 0.950 . S
H83 C105 0.948 . S
H84 C107 0.951 . S
H85 C72 0.947 . S
H86 C74 0.952 . S
H87 C75 0.950 . S
N88 C91 1.382 . S
N88 C93 1.363 . S
N89 C91 1.371 . S
N89 C92 1.372 . S
N90 C92 1.361 . S
N90 C93 1.377 . S
C91 N88 1.382 . S
C91 N89 1.371 . S
C91 C94 1.480 . S
C92 N89 1.372 . S
C92 N90 1.361 . S
C92 C100 1.457 . S
C93 N88 1.363 . S
C93 N90 1.377 . S
C93 C106 1.479 . S
C94 C91 1.480 . S
C94 C95 1.383 . S
C94 C99 1.385 . S
C95 H76 0.947 . S
C95 C94 1.383 . S
C95 C96 1.388 . S
C96 H77 0.946 . S
C96 C95 1.388 . S
C96 C97 1.384 . S
C97 C96 1.384 . S
C97 C98 1.377 . S
C98 H78 0.953 . S
C98 C97 1.377 . S
C98 C99 1.369 . S
C99 H79 0.945 . S
C99 C94 1.385 . S
C99 C98 1.369 . S
C100 C92 1.457 . S
C100 C101 1.372 . S
C100 C105 1.364 . S
C101 H80 0.952 . S
C101 C100 1.372 . S
C101 C102 1.389 . S
C102 H81 0.949 . S
C102 C101 1.389 . S
C102 C103 1.387 . S
C103 C102 1.387 . S
C103 C104 1.372 . S
C104 H82 0.950 . S
C104 C103 1.372 . S
C104 C105 1.379 . S
C105 H83 0.948 . S
C105 C100 1.364 . S
C105 C104 1.379 . S
C106 C75 1.383 . S
C106 C93 1.479 . S
C106 C107 1.398 . S
C107 C72 1.382 . S
C107 H84 0.951 . S
C107 C106 1.398 . S
C108 C109 1.384 . S
C108 H121 0.947 . S
C108 C143 1.382 . S
C109 C108 1.384 . S
C109 C110 1.378 . S
C110 C109 1.378 . S
C110 C111 1.378 . S
C110 H122 0.952 . S
C111 C110 1.378 . S
C111 H123 0.950 . S
C111 C142 1.383 . S
H112 C131 0.947 . S
H113 C132 0.946 . S
H114 C134 0.953 . S
H115 C135 0.945 . S
H116 C137 0.952 . S
H117 C138 0.949 . S
H118 C140 0.950 . S
H119 C141 0.948 . S
H120 C143 0.951 . S
H121 C108 0.947 . S
H122 C110 0.952 . S
H123 C111 0.950 . S
N124 C127 1.382 . S
N124 C129 1.363 . S
N125 C127 1.371 . S
N125 C128 1.372 . S
N126 C128 1.361 . S
N126 C129 1.377 . S
C127 N124 1.382 . S
C127 N125 1.371 . S
C127 C130 1.480 . S
C128 N125 1.372 . S
C128 N126 1.361 . S
C128 C136 1.457 . S
C129 N124 1.363 . S
C129 N126 1.377 . S
C129 C142 1.479 . S
C130 C127 1.480 . S
C130 C131 1.383 . S
C130 C135 1.385 . S
C131 H112 0.947 . S
C131 C130 1.383 . S
C131 C132 1.388 . S
C132 H113 0.946 . S
C132 C131 1.388 . S
C132 C133 1.384 . S
C133 C132 1.384 . S
C133 C134 1.377 . S
C134 H114 0.953 . S
C134 C133 1.377 . S
C134 C135 1.369 . S
C135 H115 0.945 . S
C135 C130 1.385 . S
C135 C134 1.369 . S
C136 C128 1.457 . S
C136 C137 1.372 . S
C136 C141 1.364 . S
C137 H116 0.952 . S
C137 C136 1.372 . S
C137 C138 1.389 . S
C138 H117 0.949 . S
C138 C137 1.389 . S
C138 C139 1.387 . S
C139 C138 1.387 . S
C139 C140 1.372 . S
C140 H118 0.950 . S
C140 C139 1.372 . S
C140 C141 1.379 . S
C141 H119 0.948 . S
C141 C136 1.364 . S
C141 C140 1.379 . S
C142 C111 1.383 . S
C142 C129 1.479 . S
C142 C143 1.398 . S
C143 C108 1.382 . S
C143 H120 0.951 . S
C143 C142 1.398 . S
C144 C145 1.384 . S
C144 H157 0.947 . S
C144 C179 1.382 . S
C145 C144 1.384 . S
C145 C146 1.378 . S
C146 C145 1.378 . S
C146 C147 1.378 . S
C146 H158 0.952 . S
C147 C146 1.378 . S
C147 H159 0.950 . S
C147 C178 1.383 . S
H148 C167 0.947 . S
H149 C168 0.946 . S
H150 C170 0.953 . S
H151 C171 0.945 . S
H152 C173 0.952 . S
H153 C174 0.949 . S
H154 C176 0.950 . S
H155 C177 0.948 . S
H156 C179 0.951 . S
H157 C144 0.947 . S
H158 C146 0.952 . S
H159 C147 0.950 . S
N160 C163 1.382 . S
N160 C165 1.363 . S
N161 C163 1.371 . S
N161 C164 1.372 . S
N162 C164 1.361 . S
N162 C165 1.377 . S
C163 N160 1.382 . S
C163 N161 1.371 . S
C163 C166 1.480 . S
C164 N161 1.372 . S
C164 N162 1.361 . S
C164 C172 1.457 . S
C165 N160 1.363 . S
C165 N162 1.377 . S
C165 C178 1.479 . S
C166 C163 1.480 . S
C166 C167 1.383 . S
C166 C171 1.385 . S
C167 H148 0.947 . S
C167 C166 1.383 . S
C167 C168 1.388 . S
C168 H149 0.946 . S
C168 C167 1.388 . S
C168 C169 1.384 . S
C169 C168 1.384 . S
C169 C170 1.377 . S
C170 H150 0.953 . S
C170 C169 1.377 . S
C170 C171 1.369 . S
C171 H151 0.945 . S
C171 C166 1.385 . S
C171 C170 1.369 . S
C172 C164 1.457 . S
C172 C173 1.372 . S
C172 C177 1.364 . S
C173 H152 0.952 . S
C173 C172 1.372 . S
C173 C174 1.389 . S
C174 H153 0.949 . S
C174 C173 1.389 . S
C174 C175 1.387 . S
C175 C174 1.387 . S
C175 C176 1.372 . S
C176 H154 0.950 . S
C176 C175 1.372 . S
C176 C177 1.379 . S
C177 H155 0.948 . S
C177 C172 1.364 . S
C177 C176 1.379 . S
C178 C147 1.383 . S
C178 C165 1.479 . S
C178 C179 1.398 . S
C179 C144 1.382 . S
C179 H156 0.951 . S
C179 C178 1.398 . S
C180 C181 1.384 . S
C180 H193 0.947 . S
C180 C215 1.382 . S
C181 C180 1.384 . S
C181 C182 1.378 . S
C182 C181 1.378 . S
C182 C183 1.378 . S
C182 H194 0.952 . S
C183 C182 1.378 . S
C183 H195 0.950 . S
C183 C214 1.383 . S
H184 C203 0.947 . S
H185 C204 0.946 . S
H186 C206 0.953 . S
H187 C207 0.945 . S
H188 C209 0.952 . S
H189 C210 0.949 . S
H190 C212 0.950 . S
H191 C213 0.948 . S
H192 C215 0.951 . S
H193 C180 0.947 . S
H194 C182 0.952 . S
H195 C183 0.950 . S
N196 C199 1.382 . S
N196 C201 1.363 . S
N197 C199 1.371 . S
N197 C200 1.372 . S
N198 C200 1.361 . S
N198 C201 1.377 . S
C199 N196 1.382 . S
C199 N197 1.371 . S
C199 C202 1.480 . S
C200 N197 1.372 . S
C200 N198 1.361 . S
C200 C208 1.457 . S
C201 N196 1.363 . S
C201 N198 1.377 . S
C201 C214 1.479 . S
C202 C199 1.480 . S
C202 C203 1.383 . S
C202 C207 1.385 . S
C203 H184 0.947 . S
C203 C202 1.383 . S
C203 C204 1.388 . S
C204 H185 0.946 . S
C204 C203 1.388 . S
C204 C205 1.384 . S
C205 C204 1.384 . S
C205 C206 1.377 . S
C206 H186 0.953 . S
C206 C205 1.377 . S
C206 C207 1.369 . S
C207 H187 0.945 . S
C207 C202 1.385 . S
C207 C206 1.369 . S
C208 C200 1.457 . S
C208 C209 1.372 . S
C208 C213 1.364 . S
C209 H188 0.952 . S
C209 C208 1.372 . S
C209 C210 1.389 . S
C210 H189 0.949 . S
C210 C209 1.389 . S
C210 C211 1.387 . S
C211 C210 1.387 . S
C211 C212 1.372 . S
C212 H190 0.950 . S
C212 C211 1.372 . S
C212 C213 1.379 . S
C213 H191 0.948 . S
C213 C208 1.364 . S
C213 C212 1.379 . S
C214 C183 1.383 . S
C214 C201 1.479 . S
C214 C215 1.398 . S
C215 C180 1.382 . S
C215 H192 0.951 . S
C215 C214 1.398 . S
C216 C217 1.384 . S
C216 H229 0.947 . S
C216 C251 1.382 . S
C217 C216 1.384 . S
C217 C218 1.378 . S
C218 C217 1.378 . S
C218 C219 1.378 . S
C218 H230 0.952 . S
C219 C218 1.378 . S
C219 H231 0.950 . S
C219 C250 1.383 . S
H220 C239 0.947 . S
H221 C240 0.946 . S
H222 C242 0.953 . S
H223 C243 0.945 . S
H224 C245 0.952 . S
H225 C246 0.949 . S
H226 C248 0.950 . S
H227 C249 0.948 . S
H228 C251 0.951 . S
H229 C216 0.947 . S
H230 C218 0.952 . S
H231 C219 0.950 . S
N232 C235 1.382 . S
N232 C237 1.363 . S
N233 C235 1.371 . S
N233 C236 1.372 . S
N234 C236 1.361 . S
N234 C237 1.377 . S
C235 N232 1.382 . S
C235 N233 1.371 . S
C235 C238 1.480 . S
C236 N233 1.372 . S
C236 N234 1.361 . S
C236 C244 1.457 . S
C237 N232 1.363 . S
C237 N234 1.377 . S
C237 C250 1.479 . S
C238 C235 1.480 . S
C238 C239 1.383 . S
C238 C243 1.385 . S
C239 H220 0.947 . S
C239 C238 1.383 . S
C239 C240 1.388 . S
C240 H221 0.946 . S
C240 C239 1.388 . S
C240 C241 1.384 . S
C241 C240 1.384 . S
C241 C242 1.377 . S
C242 H222 0.953 . S
C242 C241 1.377 . S
C242 C243 1.369 . S
C243 H223 0.945 . S
C243 C238 1.385 . S
C243 C242 1.369 . S
C244 C236 1.457 . S
C244 C245 1.372 . S
C244 C249 1.364 . S
C245 H224 0.952 . S
C245 C244 1.372 . S
C245 C246 1.389 . S
C246 H225 0.949 . S
C246 C245 1.389 . S
C246 C247 1.387 . S
C247 C246 1.387 . S
C247 C248 1.372 . S
C248 H226 0.950 . S
C248 C247 1.372 . S
C248 C249 1.379 . S
C249 H227 0.948 . S
C249 C244 1.364 . S
C249 C248 1.379 . S
C250 C219 1.383 . S
C250 C237 1.479 . S
C250 C251 1.398 . S
C251 C216 1.382 . S
C251 H228 0.951 . S
C251 C250 1.398 . S
C252 C253 1.384 . S
C252 H265 0.947 . S
C252 C287 1.382 . S
C253 C252 1.384 . S
C253 C254 1.378 . S
C254 C253 1.378 . S
C254 C255 1.378 . S
C254 H266 0.952 . S
C255 C254 1.378 . S
C255 H267 0.950 . S
C255 C286 1.383 . S
H256 C275 0.947 . S
H257 C276 0.946 . S
H258 C278 0.953 . S
H259 C279 0.945 . S
H260 C281 0.952 . S
H261 C282 0.949 . S
H262 C284 0.950 . S
H263 C285 0.948 . S
H264 C287 0.951 . S
H265 C252 0.947 . S
H266 C254 0.952 . S
H267 C255 0.950 . S
N268 C271 1.382 . S
N268 C273 1.363 . S
N269 C271 1.371 . S
N269 C272 1.372 . S
N270 C272 1.361 . S
N270 C273 1.377 . S
C271 N268 1.382 . S
C271 N269 1.371 . S
C271 C274 1.480 . S
C272 N269 1.372 . S
C272 N270 1.361 . S
C272 C280 1.457 . S
C273 N268 1.363 . S
C273 N270 1.377 . S
C273 C286 1.479 . S
C274 C271 1.480 . S
C274 C275 1.383 . S
C274 C279 1.385 . S
C275 H256 0.947 . S
C275 C274 1.383 . S
C275 C276 1.388 . S
C276 H257 0.946 . S
C276 C275 1.388 . S
C276 C277 1.384 . S
C277 C276 1.384 . S
C277 C278 1.377 . S
C278 H258 0.953 . S
C278 C277 1.377 . S
C278 C279 1.369 . S
C279 H259 0.945 . S
C279 C274 1.385 . S
C279 C278 1.369 . S
C280 C272 1.457 . S
C280 C281 1.372 . S
C280 C285 1.364 . S
C281 H260 0.952 . S
C281 C280 1.372 . S
C281 C282 1.389 . S
C282 H261 0.949 . S
C282 C281 1.389 . S
C282 C283 1.387 . S
C283 C282 1.387 . S
C283 C284 1.372 . S
C284 H262 0.950 . S
C284 C283 1.372 . S
C284 C285 1.379 . S
C285 H263 0.948 . S
C285 C280 1.364 . S
C285 C284 1.379 . S
C286 C255 1.383 . S
C286 C273 1.479 . S
C286 C287 1.398 . S
C287 C252 1.382 . S
C287 H264 0.951 . S
C287 C286 1.398 . S
Co288 O291 2.042 . S
Co288 O298 2.264 . S
Co288 O317 2.286 . S
Co288 O318 2.069 . S
Co288 O320 2.015 . S
Co289 O291 2.122 . S
Co289 O297 2.073 . S
Co289 O298 2.327 . S
Co289 O299 1.976 . S
Co290 O291 2.087 . S
Co290 O293 2.087 1_455 S
Co290 O300 2.111 . S
Co290 O301 2.143 1_455 S
Co290 O305 2.111 1_455 S
Co290 O319 2.143 . S
O291 Co288 2.042 . S
O291 Co289 2.122 . S
O291 Co290 2.087 . S
O291 H292 0.980 . S
H292 O291 0.980 . S
O293 Co290 2.087 1_655 S
O293 Co294 2.042 . S
O293 Co295 2.122 . S
O293 H296 0.980 . S
Co294 O293 2.042 . S
Co294 O302 2.286 . S
Co294 O303 2.069 . S
Co294 O304 2.015 . S
Co294 O307 2.264 . S
Co295 O293 2.122 . S
Co295 O306 1.976 . S
Co295 O307 2.327 . S
Co295 O308 2.073 . S
H296 O293 0.980 . S
O297 Co289 2.073 . S
O297 C312 1.245 . S
O298 Co288 2.264 . S
O298 Co289 2.327 . S
O298 C312 1.257 . S
O299 Co289 1.976 . S
O299 C311 1.251 . S
O300 Co290 2.111 . S
O300 C311 1.274 . S
O301 Co290 2.143 1_655 S
O301 C314 1.246 . S
O302 Co294 2.286 . S
O302 C313 1.259 . S
O303 Co294 2.069 . S
O303 C313 1.289 . S
O304 Co294 2.015 . S
O304 C314 1.257 . S
O305 Co290 2.111 1_655 S
O305 C315 1.274 . S
O306 Co295 1.976 . S
O306 C315 1.251 . S
O307 Co294 2.264 . S
O307 Co295 2.327 . S
O307 C316 1.257 . S
O308 Co295 2.073 . S
O308 C316 1.245 . S
C309 O317 1.259 . S
C309 O318 1.289 . S
C310 O319 1.246 . S
C310 O320 1.257 . S
C311 O299 1.251 . S
C311 O300 1.274 . S
C312 O297 1.245 . S
C312 O298 1.257 . S
C313 O302 1.259 . S
C313 O303 1.289 . S
C314 O301 1.246 . S
C314 O304 1.257 . S
C315 O305 1.274 . S
C315 O306 1.251 . S
C316 O307 1.257 . S
C316 O308 1.245 . S
O317 Co288 2.286 . S
O317 C309 1.259 . S
O318 Co288 2.069 . S
O318 C309 1.289 . S
O319 Co290 2.143 . S
O319 C310 1.246 . S
O320 Co288 2.015 . S
O320 C310 1.257 . S
Co321 O324 2.042 . S
Co321 O331 2.264 . S
Co321 O350 2.286 . S
Co321 O351 2.069 . S
Co321 O353 2.015 . S
Co322 O324 2.122 . S
Co322 O330 2.073 . S
Co322 O331 2.327 . S
Co322 O332 1.976 . S
Co323 O324 2.087 1_545 S
Co323 O326 2.087 . S
Co323 O333 2.111 1_545 S
Co323 O334 2.143 . S
Co323 O338 2.111 . S
Co323 O352 2.143 1_545 S
O324 Co321 2.042 . S
O324 Co322 2.122 . S
O324 Co323 2.087 1_565 S
O324 H325 0.980 . S
H325 O324 0.980 . S
O326 Co323 2.087 . S
O326 Co327 2.042 . S
O326 Co328 2.122 . S
O326 H329 0.980 . S
Co327 O326 2.042 . S
Co327 O335 2.286 . S
Co327 O336 2.069 . S
Co327 O337 2.015 . S
Co327 O340 2.264 . S
Co328 O326 2.122 . S
Co328 O339 1.976 . S
Co328 O340 2.327 . S
Co328 O341 2.073 . S
H329 O326 0.980 . S
O330 Co322 2.073 . S
O330 C345 1.245 . S
O331 Co321 2.264 . S
O331 Co322 2.327 . S
O331 C345 1.257 . S
O332 Co322 1.976 . S
O332 C344 1.251 . S
O333 Co323 2.111 1_565 S
O333 C344 1.274 . S
O334 Co323 2.143 . S
O334 C347 1.246 . S
O335 Co327 2.286 . S
O335 C346 1.259 . S
O336 Co327 2.069 . S
O336 C346 1.289 . S
O337 Co327 2.015 . S
O337 C347 1.257 . S
O338 Co323 2.111 . S
O338 C348 1.274 . S
O339 Co328 1.976 . S
O339 C348 1.251 . S
O340 Co327 2.264 . S
O340 Co328 2.327 . S
O340 C349 1.257 . S
O341 Co328 2.073 . S
O341 C349 1.245 . S
C342 O350 1.259 . S
C342 O351 1.289 . S
C343 O352 1.246 . S
C343 O353 1.257 . S
C344 O332 1.251 . S
C344 O333 1.274 . S
C345 O330 1.245 . S
C345 O331 1.257 . S
C346 O335 1.259 . S
C346 O336 1.289 . S
C347 O334 1.246 . S
C347 O337 1.257 . S
C348 O338 1.274 . S
C348 O339 1.251 . S
C349 O340 1.257 . S
C349 O341 1.245 . S
O350 Co321 2.286 . S
O350 C342 1.259 . S
O351 Co321 2.069 . S
O351 C342 1.289 . S
O352 Co323 2.143 1_565 S
O352 C343 1.246 . S
O353 Co321 2.015 . S
O353 C343 1.257 . S
Co354 O357 2.042 . S
Co354 O364 2.264 . S
Co354 O383 2.286 . S
Co354 O384 2.069 . S
Co354 O386 2.015 . S
Co355 O357 2.122 . S
Co355 O363 2.073 . S
Co355 O364 2.327 . S
Co355 O365 1.976 . S
Co356 O357 2.087 . S
Co356 O359 2.087 1_554 S
Co356 O366 2.111 . S
Co356 O367 2.143 1_554 S
Co356 O371 2.111 1_554 S
Co356 O385 2.143 . S
O357 Co354 2.042 . S
O357 Co355 2.122 . S
O357 Co356 2.087 . S
O357 H358 0.980 . S
H358 O357 0.980 . S
O359 Co356 2.087 1_556 S
O359 Co360 2.042 . S
O359 Co361 2.122 . S
O359 H362 0.980 . S
Co360 O359 2.042 . S
Co360 O368 2.286 . S
Co360 O369 2.069 . S
Co360 O370 2.015 . S
Co360 O373 2.264 . S
Co361 O359 2.122 . S
Co361 O372 1.976 . S
Co361 O373 2.327 . S
Co361 O374 2.073 . S
H362 O359 0.980 . S
O363 Co355 2.073 . S
O363 C378 1.245 . S
O364 Co354 2.264 . S
O364 Co355 2.327 . S
O364 C378 1.257 . S
O365 Co355 1.976 . S
O365 C377 1.251 . S
O366 Co356 2.111 . S
O366 C377 1.274 . S
O367 Co356 2.143 1_556 S
O367 C380 1.246 . S
O368 Co360 2.286 . S
O368 C379 1.259 . S
O369 Co360 2.069 . S
O369 C379 1.289 . S
O370 Co360 2.015 . S
O370 C380 1.257 . S
O371 Co356 2.111 1_556 S
O371 C381 1.274 . S
O372 Co361 1.976 . S
O372 C381 1.251 . S
O373 Co360 2.264 . S
O373 Co361 2.327 . S
O373 C382 1.257 . S
O374 Co361 2.073 . S
O374 C382 1.245 . S
C375 O383 1.259 . S
C375 O384 1.289 . S
C376 O385 1.246 . S
C376 O386 1.257 . S
C377 O365 1.251 . S
C377 O366 1.274 . S
C378 O363 1.245 . S
C378 O364 1.257 . S
C379 O368 1.259 . S
C379 O369 1.289 . S
C380 O367 1.246 . S
C380 O370 1.257 . S
C381 O371 1.274 . S
C381 O372 1.251 . S
C382 O373 1.257 . S
C382 O374 1.245 . S
O383 Co354 2.286 . S
O383 C375 1.259 . S
O384 Co354 2.069 . S
O384 C375 1.289 . S
O385 Co356 2.143 . S
O385 C376 1.246 . S
O386 Co354 2.015 . S
O386 C376 1.257 . S
C312 C1 1.229 . S
C348 C37 2.052 . S
C313 C103 1.780 . S
C343 C139 1.882 . S
C310 C145 1.817 . S
C205 C346 2.351 . S
C247 C315 1.119 . S
C345 C283 2.058 . S
C349 C25 1.984 . S
C314 C67 1.958 . S
C342 C97 2.351 . S
C311 C109 1.124 . S
C344 C169 1.929 . S
C181 C309 1.767 . S
C217 C347 1.828 . S
C316 C277 1.307 . S
C378 C31 1.636 . S
C175 C381 2.438 . S
C380 C211 2.571 . S
C241 C379 2.488 . S
C382 C253 1.678 . S
C73 C376 2.544 . S
C375 C133 2.478 . S
C61 C377 2.550 . S
