# Generated by pormake.
# Topology ssb, (4,4)-cn, num edge types: 1
# Building blocks:
#     Node 0, Type 0, BuildingBlock: KUFVIS_clean_linker_0, # of connection points: 4
#     Node 1, Type 0, BuildingBlock: KUFVIS_clean_linker_0, # of connection points: 4
#     Node 2, Type 0, BuildingBlock: KUFVIS_clean_linker_0, # of connection points: 4
#     Node 3, Type 0, BuildingBlock: KUFVIS_clean_linker_0, # of connection points: 4
#     Node 4, Type 0, BuildingBlock: KUFVIS_clean_linker_0, # of connection points: 4
#     Node 5, Type 0, BuildingBlock: KUFVIS_clean_linker_0, # of connection points: 4
#     Node 6, Type 0, BuildingBlock: KUFVIS_clean_linker_0, # of connection points: 4
#     Node 7, Type 0, BuildingBlock: KUFVIS_clean_linker_0, # of connection points: 4
#     Node 8, Type 1, BuildingBlock: NAWXER_clean_sbu_0, # of connection points: 4
#     Node 9, Type 1, BuildingBlock: NAWXER_clean_sbu_0, # of connection points: 4
#     Node 10, Type 1, BuildingBlock: NAWXER_clean_sbu_0, # of connection points: 4
#     Node 11, Type 1, BuildingBlock: NAWXER_clean_sbu_0, # of connection points: 4
#     Node 12, Type 1, BuildingBlock: NAWXER_clean_sbu_0, # of connection points: 4
#     Node 13, Type 1, BuildingBlock: NAWXER_clean_sbu_0, # of connection points: 4
#     Node 14, Type 1, BuildingBlock: NAWXER_clean_sbu_0, # of connection points: 4
#     Node 15, Type 1, BuildingBlock: NAWXER_clean_sbu_0, # of connection points: 4
#     Edge 16, Type (0, 1), BuildingBlock: KIFKEQ_clean_linker_1, # of connection points: 2
#     Edge 17, Type (0, 1), BuildingBlock: KIFKEQ_clean_linker_1, # of connection points: 2
#     Edge 18, Type (0, 1), BuildingBlock: KIFKEQ_clean_linker_1, # of connection points: 2
#     Edge 19, Type (0, 1), BuildingBlock: KIFKEQ_clean_linker_1, # of connection points: 2
#     Edge 20, Type (0, 1), BuildingBlock: KIFKEQ_clean_linker_1, # of connection points: 2
#     Edge 21, Type (0, 1), BuildingBlock: KIFKEQ_clean_linker_1, # of connection points: 2
#     Edge 22, Type (0, 1), BuildingBlock: KIFKEQ_clean_linker_1, # of connection points: 2
#     Edge 23, Type (0, 1), BuildingBlock: KIFKEQ_clean_linker_1, # of connection points: 2
#     Edge 24, Type (0, 1), BuildingBlock: KIFKEQ_clean_linker_1, # of connection points: 2
#     Edge 25, Type (0, 1), BuildingBlock: KIFKEQ_clean_linker_1, # of connection points: 2
#     Edge 26, Type (0, 1), BuildingBlock: KIFKEQ_clean_linker_1, # of connection points: 2
#     Edge 27, Type (0, 1), BuildingBlock: KIFKEQ_clean_linker_1, # of connection points: 2
#     Edge 28, Type (0, 1), BuildingBlock: KIFKEQ_clean_linker_1, # of connection points: 2
#     Edge 29, Type (0, 1), BuildingBlock: KIFKEQ_clean_linker_1, # of connection points: 2
#     Edge 30, Type (0, 1), BuildingBlock: KIFKEQ_clean_linker_1, # of connection points: 2
#     Edge 31, Type (0, 1), BuildingBlock: KIFKEQ_clean_linker_1, # of connection points: 2
#     Edge 32, Type (0, 1), BuildingBlock: KIFKEQ_clean_linker_1, # of connection points: 2
#     Edge 33, Type (0, 1), BuildingBlock: KIFKEQ_clean_linker_1, # of connection points: 2
#     Edge 34, Type (0, 1), BuildingBlock: KIFKEQ_clean_linker_1, # of connection points: 2
#     Edge 35, Type (0, 1), BuildingBlock: KIFKEQ_clean_linker_1, # of connection points: 2
#     Edge 36, Type (0, 1), BuildingBlock: KIFKEQ_clean_linker_1, # of connection points: 2
#     Edge 37, Type (0, 1), BuildingBlock: KIFKEQ_clean_linker_1, # of connection points: 2
#     Edge 38, Type (0, 1), BuildingBlock: KIFKEQ_clean_linker_1, # of connection points: 2
#     Edge 39, Type (0, 1), BuildingBlock: KIFKEQ_clean_linker_1, # of connection points: 2
#     Edge 40, Type (0, 1), BuildingBlock: KIFKEQ_clean_linker_1, # of connection points: 2
#     Edge 41, Type (0, 1), BuildingBlock: KIFKEQ_clean_linker_1, # of connection points: 2
#     Edge 42, Type (0, 1), BuildingBlock: KIFKEQ_clean_linker_1, # of connection points: 2
#     Edge 43, Type (0, 1), BuildingBlock: KIFKEQ_clean_linker_1, # of connection points: 2
#     Edge 44, Type (0, 1), BuildingBlock: KIFKEQ_clean_linker_1, # of connection points: 2
#     Edge 45, Type (0, 1), BuildingBlock: KIFKEQ_clean_linker_1, # of connection points: 2
#     Edge 46, Type (0, 1), BuildingBlock: KIFKEQ_clean_linker_1, # of connection points: 2
#     Edge 47, Type (0, 1), BuildingBlock: KIFKEQ_clean_linker_1, # of connection points: 2
# Relax obj value: 0.000
# Max RMSD: 0.051
# Mean RMSD: 0.025
data_MOF--net-ssb--node1-NAWXER_clean_sbu_0--node2-KUFVIS_clean_linker_0--edge1-KIFKEQ_clean_linker_1
_symmetry_space_group_name_H-M    P1
_symmetry_Int_Tables_number       1
_symmetry_cell_setting            triclinic
loop_
_symmetry_equiv_pos_as_xyz
'x, y, z'
_cell_length_a     47.203472
_cell_length_b     46.932641
_cell_length_c     38.471956
_cell_angle_alpha  90.39309
_cell_angle_beta   89.998987
_cell_angle_gamma 90.408323
loop_
_atom_site_label
_atom_site_type_symbol
_atom_site_fract_x
_atom_site_fract_y
_atom_site_fract_z
_atom_type_partial_charge
H0 H 0.21909 0.23454 0.38746 0.0
H1 H 0.28383 0.22843 0.30997 0.0
H2 H 0.23176 0.30394 0.31729 0.0
H3 H 0.24073 0.30682 0.26075 0.0
H4 H 0.31707 0.31395 0.20109 0.0
H5 H 0.3153 0.25813 0.28813 0.0
C6 C 0.23065 0.24397 0.366 0.0
C7 C 0.22276 0.27078 0.35367 0.0
C8 C 0.25294 0.22892 0.3506 0.0
C9 C 0.26749 0.24095 0.32236 0.0
C10 C 0.26021 0.26817 0.30951 0.0
C11 C 0.23767 0.28286 0.32574 0.0
C12 C 0.27589 0.28106 0.27928 0.0
C13 C 0.26268 0.30106 0.25707 0.0
C14 C 0.27744 0.31296 0.22881 0.0
C15 C 0.30547 0.30493 0.22281 0.0
C16 C 0.31872 0.28482 0.24362 0.0
C17 C 0.30419 0.27312 0.27193 0.0
H18 H 0.69577 0.26793 0.18853 0.0
H19 H 0.7624 0.27508 0.26379 0.0
H20 H 0.72242 0.19335 0.24248 0.0
H21 H 0.73481 0.18523 0.29785 0.0
H22 H 0.81614 0.18084 0.34664 0.0
H23 H 0.79978 0.24834 0.27543 0.0
C24 C 0.70937 0.25815 0.20773 0.0
C25 C 0.70657 0.22903 0.2143 0.0
C26 C 0.72967 0.27471 0.22521 0.0
C27 C 0.74735 0.2618 0.24983 0.0
C28 C 0.74517 0.23228 0.25679 0.0
C29 C 0.72443 0.2161 0.23862 0.0
C30 C 0.76473 0.21833 0.28232 0.0
C31 C 0.7561 0.19367 0.30065 0.0
C32 C 0.7749 0.1797 0.32301 0.0
C33 C 0.80205 0.19093 0.3282 0.0
C34 C 0.81068 0.21601 0.31189 0.0
C35 C 0.79226 0.22948 0.28866 0.0
H36 H 0.77266 0.80595 0.41164 0.0
H37 H 0.79028 0.75102 0.32508 0.0
H38 H 0.70892 0.79274 0.33449 0.0
H39 H 0.70702 0.78846 0.27859 0.0
H40 H 0.71294 0.72104 0.20387 0.0
H41 H 0.76763 0.72025 0.29255 0.0
C42 C 0.7657 0.79527 0.38802 0.0
C43 C 0.73888 0.80141 0.37474 0.0
C44 C 0.78407 0.77655 0.37081 0.0
C45 C 0.77555 0.76459 0.33873 0.0
C46 C 0.74837 0.77005 0.32459 0.0
C47 C 0.73016 0.7885 0.34343 0.0
C48 C 0.73903 0.7566 0.29055 0.0
C49 C 0.71709 0.76888 0.27054 0.0
C50 C 0.70719 0.75563 0.24005 0.0
C51 C 0.72056 0.73112 0.2276 0.0
C52 C 0.7429 0.71887 0.24598 0.0
C53 C 0.75144 0.73104 0.27789 0.0
H54 H 0.1956 0.77936 0.37491 0.0
H55 H 0.24805 0.78824 0.28452 0.0
H56 H 0.20374 0.70888 0.30448 0.0
H57 H 0.19979 0.70964 0.24649 0.0
H58 H 0.26388 0.70125 0.16894 0.0
H59 H 0.27832 0.75718 0.25625 0.0
C60 C 0.20487 0.7701 0.35167 0.0
C61 C 0.1976 0.74225 0.34184 0.0
C62 C 0.22322 0.78655 0.3313 0.0
C63 C 0.23465 0.77494 0.30061 0.0
C64 C 0.22753 0.74687 0.29 0.0
C65 C 0.20918 0.73065 0.31134 0.0
C66 C 0.23788 0.73483 0.25609 0.0
C67 C 0.2207 0.71542 0.23722 0.0
C68 C 0.23 0.70348 0.20585 0.0
C69 C 0.25646 0.7114 0.19261 0.0
C70 C 0.27394 0.73108 0.21016 0.0
C71 C 0.26466 0.74248 0.24222 0.0
H72 H 0.3041 0.73306 0.88234 0.0
H73 H 0.25255 0.72194 0.79145 0.0
H74 H 0.29718 0.8015 0.80953 0.0
H75 H 0.3022 0.79808 0.75073 0.0
H76 H 0.23863 0.80326 0.67206 0.0
H77 H 0.2225 0.75301 0.76303 0.0
C78 C 0.29519 0.74174 0.85871 0.0
C79 C 0.30274 0.76934 0.84827 0.0
C80 C 0.27685 0.72481 0.83859 0.0
C81 C 0.26593 0.73559 0.80736 0.0
C82 C 0.27346 0.76323 0.79598 0.0
C83 C 0.29163 0.77999 0.81711 0.0
C84 C 0.26348 0.77425 0.76159 0.0
C85 C 0.2812 0.79231 0.74167 0.0
C86 C 0.2723 0.80245 0.70932 0.0
C87 C 0.24562 0.79454 0.69661 0.0
C88 C 0.22757 0.77646 0.71543 0.0
C89 C 0.23653 0.76661 0.74815 0.0
H90 H 0.27673 0.28314 0.88696 0.0
H91 H 0.28182 0.21631 0.81054 0.0
H92 H 0.20623 0.26767 0.82031 0.0
H93 H 0.19766 0.25485 0.76782 0.0
H94 H 0.18719 0.1759 0.7136 0.0
H95 H 0.25403 0.18402 0.788 0.0
C96 C 0.26732 0.27087 0.8659 0.0
C97 C 0.24047 0.27839 0.8539 0.0
C98 C 0.28231 0.24828 0.85061 0.0
C99 C 0.26957 0.23277 0.82315 0.0
C100 C 0.24182 0.23909 0.81148 0.0
C101 C 0.22761 0.26216 0.82752 0.0
C102 C 0.22751 0.2218 0.7831 0.0
C103 C 0.20433 0.23306 0.76421 0.0
C104 C 0.18915 0.21619 0.7403 0.0
C105 C 0.19812 0.18849 0.73329 0.0
C106 C 0.22198 0.17738 0.74957 0.0
C107 C 0.23636 0.19371 0.77483 0.0
H108 H 0.72983 0.31659 0.88846 0.0
H109 H 0.79745 0.30467 0.81559 0.0
H110 H 0.71542 0.26474 0.79834 0.0
H111 H 0.74042 0.23285 0.76946 0.0
H112 H 0.79385 0.23867 0.67959 0.0
H113 H 0.79916 0.30346 0.75797 0.0
C114 C 0.73782 0.30701 0.86469 0.0
C115 C 0.72 0.28943 0.84487 0.0
C116 C 0.76561 0.31276 0.85405 0.0
C117 C 0.77573 0.30045 0.82301 0.0
C118 C 0.75806 0.28254 0.8023 0.0
C119 C 0.73003 0.27737 0.81382 0.0
C120 C 0.76834 0.26991 0.76847 0.0
C121 C 0.75638 0.24432 0.75492 0.0
C122 C 0.76473 0.23333 0.72234 0.0
C123 C 0.7862 0.24754 0.7039 0.0
C124 C 0.79894 0.2724 0.71703 0.0
C125 C 0.78979 0.28364 0.74898 0.0
H126 H 0.68405 0.69062 0.8622 0.0
H127 H 0.76635 0.69779 0.81698 0.0
H128 H 0.70159 0.76025 0.79424 0.0
H129 H 0.73745 0.78729 0.77973 0.0
H130 H 0.81156 0.78341 0.71561 0.0
H131 H 0.78246 0.70772 0.76536 0.0
C132 C 0.69846 0.7014 0.84457 0.0
C133 C 0.69013 0.7268 0.82907 0.0
C134 C 0.72573 0.69082 0.83989 0.0
C135 C 0.74497 0.70574 0.81885 0.0
C136 C 0.7367 0.73063 0.80087 0.0
C137 C 0.70897 0.74116 0.80682 0.0
C138 C 0.75712 0.74544 0.77664 0.0
C139 C 0.75426 0.77472 0.7685 0.0
C140 C 0.77359 0.78844 0.74618 0.0
C141 C 0.79651 0.7731 0.73283 0.0
C142 C 0.79981 0.74426 0.74029 0.0
C143 C 0.7799 0.73033 0.76131 0.0
C144 C 0.96503 0.30372 0.56251 0.0
C145 C 0.04345 0.30632 0.47875 0.0
O146 O 0.9761 0.32583 0.54905 0.0
Zn147 Zn 0.00375 0.3061 0.51987 0.0
O148 O 0.97367 0.27901 0.55316 0.0
Zn149 Zn 0.00394 0.26092 0.51824 0.0
O150 O 0.02721 0.2394 0.54927 0.0
O151 O 0.03078 0.28584 0.55774 0.0
O152 O 0.03479 0.28109 0.48582 0.0
O153 O 0.03171 0.32767 0.49316 0.0
O154 O 0.97715 0.28703 0.48005 0.0
O155 O 0.9809 0.24046 0.48533 0.0
C156 C 0.03782 0.26038 0.56595 0.0
C157 C 0.97038 0.26176 0.46991 0.0
C158 C 0.71937 0.047 0.60341 0.0
C159 C 0.70227 0.96581 0.52376 0.0
O160 O 0.74176 0.03572 0.59074 0.0
Zn161 Zn 0.75382 1.001 0.55831 0.0
O162 O 0.69535 0.03564 0.59691 0.0
Zn163 Zn 0.70897 0.00493 0.56606 0.0
O164 O 0.72926 0.97644 0.60105 0.0
O165 O 0.77477 0.97568 0.58851 0.0
O166 O 0.68318 0.97859 0.54119 0.0
O167 O 0.72835 0.97247 0.52826 0.0
O168 O 0.77289 0.02122 0.52145 0.0
O169 O 0.72673 0.02881 0.52326 0.0
C170 C 0.75416 0.9669 0.60692 0.0
C171 C 0.75098 0.03317 0.50906 0.0
C172 C 0.96794 0.70941 0.59354 0.0
C173 C 0.03769 0.70492 0.49933 0.0
O174 O 0.97659 0.73388 0.58325 0.0
Zn175 Zn 0.00458 0.7514 0.54519 0.0
O176 O 0.97764 0.68699 0.57924 0.0
Zn177 Zn 0.00309 0.70612 0.54675 0.0
O178 O 0.03429 0.72569 0.5805 0.0
O179 O 0.03209 0.77215 0.57285 0.0
O180 O 0.02716 0.6839 0.51568 0.0
O181 O 0.03068 0.73036 0.50775 0.0
O182 O 0.9787 0.7723 0.51632 0.0
O183 O 0.97323 0.72568 0.51156 0.0
C184 C 0.04332 0.75091 0.58767 0.0
C185 C 0.96602 0.75097 0.50277 0.0
C186 C 0.25363 0.02697 0.57366 0.0
C187 C 0.25044 0.96522 0.47079 0.0
O188 O 0.278 0.02399 0.55936 0.0
Zn189 Zn 0.29589 0.00256 0.51485 0.0
O190 O 0.23204 0.01514 0.55988 0.0
Zn191 Zn 0.25119 0.99743 0.52109 0.0
O192 O 0.2766 0.96626 0.54608 0.0
O193 O 0.32194 0.9764 0.53813 0.0
O194 O 0.22981 0.97387 0.48923 0.0
O195 O 0.27557 0.97442 0.47743 0.0
O196 O 0.30984 0.03421 0.4862 0.0
O197 O 0.26333 0.03307 0.49053 0.0
C198 C 0.30275 0.96041 0.55094 0.0
C199 C 0.2859 0.04502 0.47905 0.0
C200 C 0.45861 0.75584 0.08259 0.0
C201 C 0.53075 0.7603 0.99112 0.0
O202 O 0.46866 0.78107 0.07857 0.0
Zn203 Zn 0.4995 0.80207 0.04624 0.0
O204 O 0.46837 0.7355 0.06431 0.0
Zn205 Zn 0.49571 0.7572 0.03768 0.0
O206 O 0.52718 0.76945 0.07463 0.0
O207 O 0.52772 0.81624 0.07967 0.0
O208 O 0.51803 0.7383 1.00261 0.0
O209 O 0.52579 0.78473 1.00503 0.0
O210 O 0.47506 0.82818 1.02049 0.0
O211 O 0.46917 0.78283 1.00616 0.0
C212 C 0.53762 0.79216 0.08834 0.0
C213 C 0.46301 0.80908 1.00193 0.0
C214 C 0.19342 0.53946 0.05466 0.0
C215 C 0.1998 0.46461 0.96609 0.0
O216 O 0.2189 0.53215 0.04762 0.0
Zn217 Zn 0.24065 0.50434 1.0124 0.0
O218 O 0.17288 0.52845 0.03776 0.0
Zn219 Zn 0.19586 0.50332 1.00904 0.0
O220 O 0.21419 0.47529 0.04751 0.0
O221 O 0.26066 0.48012 0.04416 0.0
O222 O 0.17744 0.47583 0.97826 0.0
O223 O 0.22409 0.47373 0.97623 0.0
O224 O 0.26217 0.53055 0.98425 0.0
O225 O 0.21627 0.53365 0.97478 0.0
C226 C 0.23906 0.46845 0.05794 0.0
C227 C 0.24167 0.5421 0.96842 0.0
C228 C 0.54195 0.25619 0.98156 0.0
C229 C 0.47277 0.25197 0.07531 0.0
O230 O 0.53184 0.27644 0.99963 0.0
Zn231 Zn 0.50618 0.25424 1.02721 0.0
O232 O 0.53307 0.23061 0.98661 0.0
Zn233 Zn 0.5036 0.2094 1.02118 0.0
O234 O 0.47493 0.19302 0.9902 0.0
O235 O 0.47501 0.24001 0.99054 0.0
O236 O 0.47818 0.22715 0.06284 0.0
O237 O 0.48405 0.27382 0.06157 0.0
O238 O 0.5345 0.23031 0.05916 0.0
O239 O 0.52917 0.18455 0.04672 0.0
C240 C 0.46496 0.21632 0.97904 0.0
C241 C 0.54131 0.20428 0.06416 0.0
C242 C 0.78613 0.54137 0.11181 0.0
C243 C 0.79865 0.46765 1.02108 0.0
O244 O 0.80952 0.53167 0.1005 0.0
Zn245 Zn 0.79392 0.50363 0.06752 0.0
O246 O 0.76283 0.53127 0.09964 0.0
Zn247 Zn 0.74898 0.50073 0.06172 0.0
O248 O 0.7278 0.47316 0.0885 0.0
O249 O 0.77355 0.47266 0.10013 0.0
O250 O 0.77283 0.47418 1.02727 0.0
O251 O 0.81841 0.47904 0.03905 0.0
O252 O 0.77584 0.53086 1.02865 0.0
O253 O 0.72945 0.52441 1.02877 0.0
C254 C 0.74846 0.46289 0.10536 0.0
C255 C 0.75129 0.53676 1.01643 0.0
H256 H 0.21371 0.28363 0.42198 0.0
H257 H 0.17542 0.28933 0.32047 0.0
H258 H 0.16955 0.29986 0.44873 0.0
H259 H 0.131 0.30512 0.34727 0.0
H260 H 0.05449 0.27522 0.42098 0.0
H261 H 0.09838 0.27417 0.38749 0.0
H262 H 0.13259 0.34221 0.45118 0.0
H263 H 0.08804 0.34378 0.48433 0.0
C264 C 0.19599 0.28895 0.40541 0.0
C265 C 0.19787 0.28518 0.36922 0.0
C266 C 0.17081 0.29839 0.42066 0.0
C267 C 0.14687 0.3037 0.40005 0.0
C268 C 0.14917 0.30117 0.36372 0.0
C269 C 0.17455 0.29226 0.34841 0.0
C270 C 0.07111 0.29047 0.42723 0.0
C271 C 0.06793 0.3096 0.45517 0.0
C272 C 0.09617 0.28994 0.40799 0.0
C273 C 0.11888 0.30808 0.41677 0.0
C274 C 0.11536 0.32802 0.44389 0.0
C275 C 0.08989 0.32903 0.46267 0.0
H276 H 0.80151 0.12868 0.32526 0.0
H277 H 0.73018 0.17422 0.36744 0.0
H278 H 0.79399 0.09061 0.36722 0.0
H279 H 0.72297 0.13661 0.41026 0.0
H280 H 0.70752 0.05609 0.47197 0.0
H281 H 0.71043 0.08819 0.42266 0.0
H282 H 0.80183 0.08603 0.42825 0.0
H283 H 0.79891 0.05322 0.47695 0.0
C284 C 0.78388 0.13021 0.34321 0.0
C285 C 0.76642 0.15431 0.34323 0.0
C286 C 0.77976 0.10861 0.36749 0.0
C287 C 0.75823 0.11076 0.3926 0.0
C288 C 0.73967 0.13412 0.39121 0.0
C289 C 0.74369 0.15566 0.36665 0.0
C290 C 0.72827 0.06235 0.46259 0.0
C291 C 0.75302 0.05214 0.47851 0.0
C292 C 0.72991 0.08087 0.43436 0.0
C293 C 0.75633 0.08976 0.4214 0.0
C294 C 0.78109 0.07927 0.4371 0.0
C295 C 0.77945 0.0606 0.46524 0.0
H296 H 0.83624 0.7699 0.33892 0.0
H297 H 0.79551 0.76824 0.43961 0.0
H298 H 0.88233 0.76305 0.3673 0.0
H299 H 0.84148 0.76305 0.46746 0.0
H300 H 0.93365 0.79851 0.49479 0.0
H301 H 0.89079 0.80336 0.45951 0.0
H302 H 0.90115 0.71777 0.42045 0.0
H303 H 0.94373 0.71244 0.45638 0.0
C304 C 0.83698 0.76785 0.36692 0.0
C305 C 0.81208 0.77006 0.38695 0.0
C306 C 0.86336 0.76414 0.38309 0.0
C307 C 0.86527 0.76297 0.41948 0.0
C308 C 0.84048 0.76433 0.43937 0.0
C309 C 0.81421 0.76748 0.42333 0.0
C310 C 0.92707 0.78085 0.47834 0.0
C311 C 0.94198 0.75504 0.47854 0.0
C312 C 0.90257 0.78365 0.45822 0.0
C313 C 0.89291 0.76096 0.43732 0.0
C314 C 0.90841 0.73559 0.43623 0.0
C315 C 0.93262 0.73256 0.4569 0.0
H316 H 0.27307 0.80912 0.35476 0.0
H317 H 0.18604 0.83015 0.33398 0.0
H318 H 0.27984 0.8551 0.38404 0.0
H319 H 0.1928 0.87665 0.36167 0.0
H320 H 0.20254 0.9337 0.45825 0.0
H321 H 0.19709 0.8932 0.41915 0.0
H322 H 0.28287 0.90554 0.38258 0.0
H323 H 0.28863 0.94554 0.42283 0.0
C324 C 0.2557 0.82407 0.35552 0.0
C325 C 0.22908 0.81627 0.34223 0.0
C326 C 0.25949 0.85044 0.37224 0.0
C327 C 0.23675 0.86959 0.37572 0.0
C328 C 0.21061 0.86227 0.36032 0.0
C329 C 0.20677 0.83581 0.34407 0.0
C330 C 0.22014 0.92804 0.44157 0.0
C331 C 0.24606 0.94282 0.44385 0.0
C332 C 0.21698 0.90482 0.4189 0.0
C333 C 0.23956 0.89591 0.39758 0.0
C334 C 0.26516 0.91142 0.39895 0.0
C335 C 0.2684 0.93452 0.42188 0.0
H336 H 0.21538 0.76328 0.64776 0.0
H337 H 0.17577 0.77205 0.74856 0.0
H338 H 0.16893 0.75784 0.62085 0.0
H339 H 0.12908 0.76505 0.72127 0.0
H340 H 0.06344 0.71353 0.63594 0.0
H341 H 0.10671 0.71821 0.67096 0.0
H342 H 0.12245 0.80106 0.62703 0.0
H343 H 0.07896 0.7969 0.59263 0.0
C344 C 0.19681 0.76389 0.66427 0.0
C345 C 0.19937 0.76871 0.70033 0.0
C346 C 0.17026 0.76063 0.64879 0.0
C347 C 0.14561 0.76139 0.669 0.0
C348 C 0.14793 0.7645 0.70523 0.0
C349 C 0.17463 0.76829 0.7208 0.0
C350 C 0.07589 0.73294 0.63416 0.0
C351 C 0.06783 0.75483 0.61141 0.0
C352 C 0.10052 0.73561 0.6543 0.0
C353 C 0.11771 0.75997 0.65158 0.0
C354 C 0.10937 0.78212 0.62957 0.0
C355 C 0.0845 0.77973 0.60996 0.0
H356 H 0.2714 0.16733 0.71602 0.0
H357 H 0.19514 0.12598 0.75192 0.0
H358 H 0.28107 0.12686 0.67789 0.0
H359 H 0.2052 0.08476 0.71497 0.0
H360 H 0.20506 0.0462 0.60444 0.0
H361 H 0.20091 0.07805 0.65426 0.0
H362 H 0.29201 0.07863 0.66599 0.0
H363 H 0.29614 0.04756 0.61527 0.0
C364 C 0.25747 0.1489 0.71695 0.0
C365 C 0.23259 0.14966 0.73682 0.0
C366 C 0.26288 0.12568 0.69497 0.0
C367 C 0.24357 0.1027 0.69269 0.0
C368 C 0.22012 0.10239 0.71529 0.0
C369 C 0.21457 0.12574 0.73691 0.0
C370 C 0.22419 0.05293 0.61782 0.0
C371 C 0.25092 0.04456 0.60563 0.0
C372 C 0.22183 0.07103 0.64668 0.0
C373 C 0.24615 0.081 0.66434 0.0
C374 C 0.27285 0.07177 0.65281 0.0
C375 C 0.2752 0.05387 0.62374 0.0
H376 H 0.85203 0.28473 0.74088 0.0
H377 H 0.79976 0.28873 0.64909 0.0
H378 H 0.89357 0.29826 0.70626 0.0
H379 H 0.84115 0.30269 0.61459 0.0
H380 H 0.92243 0.34316 0.56783 0.0
H381 H 0.88192 0.3419 0.60814 0.0
H382 H 0.91656 0.26732 0.65696 0.0
H383 H 0.9563 0.26812 0.61649 0.0
C384 C 0.84932 0.2893 0.71352 0.0
C385 C 0.82278 0.28558 0.69758 0.0
C386 C 0.87306 0.2969 0.69372 0.0
C387 C 0.87055 0.30145 0.65776 0.0
C388 C 0.84364 0.29955 0.64229 0.0
C389 C 0.82002 0.29143 0.66196 0.0
C390 C 0.92151 0.32682 0.58756 0.0
C391 C 0.94238 0.30565 0.58897 0.0
C392 C 0.89836 0.32604 0.61047 0.0
C393 C 0.8962 0.30457 0.63572 0.0
C394 C 0.91781 0.28428 0.63804 0.0
C395 C 0.94045 0.28464 0.61472 0.0
H396 H 0.81285 0.83151 0.74443 0.0
H397 H 0.72536 0.81241 0.7209 0.0
H398 H 0.80852 0.87755 0.71592 0.0
H399 H 0.72105 0.85812 0.69165 0.0
H400 H 0.71592 0.94864 0.65531 0.0
H401 H 0.72029 0.90881 0.6951 0.0
H402 H 0.80512 0.89359 0.65736 0.0
H403 H 0.80101 0.93401 0.6183 0.0
C404 C 0.79258 0.83736 0.73349 0.0
C405 C 0.76948 0.81831 0.73471 0.0
C406 C 0.79014 0.86365 0.71691 0.0
C407 C 0.76457 0.87148 0.70094 0.0
C408 C 0.74101 0.85302 0.70388 0.0
C409 C 0.74343 0.82678 0.7207 0.0
C410 C 0.73565 0.93701 0.65577 0.0
C411 C 0.75808 0.94444 0.63343 0.0
C412 C 0.73808 0.91402 0.67849 0.0
C413 C 0.76295 0.89773 0.67935 0.0
C414 C 0.78575 0.90581 0.65782 0.0
C415 C 0.78338 0.92894 0.63523 0.0
H416 H 0.80209 0.71032 0.68265 0.0
H417 H 0.85344 0.74654 0.76455 0.0
H418 H 0.84501 0.69586 0.65139 0.0
H419 H 0.89635 0.73167 0.73401 0.0
H420 H 0.95564 0.75038 0.64096 0.0
H421 H 0.9161 0.75204 0.68109 0.0
H422 H 0.88999 0.66764 0.64829 0.0
H423 H 0.93001 0.66605 0.60748 0.0
C424 C 0.8226 0.71419 0.69447 0.0
C425 C 0.82467 0.72938 0.7259 0.0
C426 C 0.84715 0.70593 0.67668 0.0
C427 C 0.87411 0.71292 0.69003 0.0
C428 C 0.87593 0.72633 0.72279 0.0
C429 C 0.85145 0.73464 0.74043 0.0
C430 C 0.94175 0.73196 0.64256 0.0
C431 C 0.94588 0.70814 0.6209 0.0
C432 C 0.91915 0.73281 0.66585 0.0
C433 C 0.89988 0.70993 0.66801 0.0
C434 C 0.90443 0.68564 0.64712 0.0
C435 C 0.92741 0.68465 0.62395 0.0
H436 H 0.29156 0.79377 0.64374 0.0
H437 H 0.29146 0.85564 0.72708 0.0
H438 H 0.30921 0.82993 0.60373 0.0
H439 H 0.30842 0.89227 0.68684 0.0
H440 H 0.34092 0.95372 0.60438 0.0
H441 H 0.34343 0.91266 0.64387 0.0
H442 H 0.2805 0.86867 0.58156 0.0
H443 H 0.27807 0.90919 0.54295 0.0
C444 C 0.29613 0.81498 0.65364 0.0
C445 C 0.28996 0.82207 0.68831 0.0
C446 C 0.30608 0.83573 0.63075 0.0
C447 C 0.30967 0.86413 0.64191 0.0
C448 C 0.306 0.87059 0.67742 0.0
C449 C 0.29625 0.84967 0.70048 0.0
C450 C 0.32836 0.93484 0.59877 0.0
C451 C 0.30934 0.93447 0.5707 0.0
C452 C 0.32958 0.91149 0.62145 0.0
C453 C 0.31221 0.88734 0.61585 0.0
C454 C 0.29453 0.88662 0.58645 0.0
C455 C 0.293 0.90992 0.56435 0.0
H456 H 0.13703 0.19184 0.73587 0.0
H457 H 0.18553 0.26447 0.70106 0.0
H458 H 0.09858 0.20445 0.69672 0.0
H459 H 0.14725 0.27693 0.66107 0.0
H460 H 0.06399 0.30041 0.60727 0.0
H461 H 0.09838 0.29246 0.65355 0.0
H462 H 0.09302 0.20174 0.63457 0.0
H463 H 0.05833 0.20958 0.58898 0.0
C464 C 0.13923 0.21075 0.72008 0.0
C465 C 0.16425 0.22709 0.72124 0.0
C466 C 0.11734 0.21786 0.69746 0.0
C467 C 0.12005 0.24137 0.67524 0.0
C468 C 0.14443 0.25874 0.67791 0.0
C469 C 0.16634 0.25168 0.7008 0.0
C470 C 0.07006 0.27875 0.6131 0.0
C471 C 0.05838 0.25561 0.59441 0.0
C472 C 0.08987 0.27423 0.63954 0.0
C473 C 0.09838 0.24647 0.64792 0.0
C474 C 0.08656 0.22337 0.62928 0.0
C475 C 0.06679 0.22788 0.60291 0.0
H476 H 0.74924 0.18347 0.75558 0.0
H477 H 0.75046 0.22307 0.65448 0.0
H478 H 0.73353 0.13852 0.72852 0.0
H479 H 0.73599 0.17806 0.62777 0.0
H480 H 0.76303 0.0845 0.60001 0.0
H481 H 0.76897 0.12966 0.63044 0.0
H482 H 0.68901 0.11701 0.68248 0.0
H483 H 0.68247 0.07137 0.65102 0.0
C484 C 0.74568 0.18283 0.72778 0.0
C485 C 0.75168 0.20686 0.70718 0.0
C486 C 0.7367 0.15707 0.71235 0.0
C487 C 0.73377 0.15485 0.67608 0.0
C488 C 0.7383 0.17917 0.65578 0.0
C489 C 0.74686 0.20488 0.67112 0.0
C490 C 0.74662 0.09112 0.61796 0.0
C491 C 0.72225 0.07424 0.62309 0.0
C492 C 0.75004 0.11711 0.63528 0.0
C493 C 0.72946 0.12681 0.6587 0.0
C494 C 0.7052 0.10989 0.66453 0.0
C495 C 0.70144 0.08392 0.64648 0.0
H496 H 0.81965 0.26701 0.34398 0.0
H497 H 0.86291 0.19254 0.30576 0.0
H498 H 0.86156 0.28062 0.37763 0.0
H499 H 0.90527 0.20648 0.33825 0.0
H500 H 0.94959 0.21137 0.44441 0.0
H501 H 0.91452 0.20413 0.39904 0.0
H502 H 0.91044 0.2951 0.38326 0.0
H503 H 0.9452 0.30241 0.42958 0.0
C504 C 0.83862 0.25428 0.3416 0.0
C505 C 0.83814 0.22874 0.32244 0.0
C506 C 0.86264 0.26197 0.36096 0.0
C507 C 0.88663 0.24429 0.3613 0.0
C508 C 0.88693 0.22018 0.33935 0.0
C509 C 0.86286 0.21237 0.32034 0.0
C510 C 0.94141 0.22986 0.43116 0.0
C511 C 0.95012 0.25747 0.44083 0.0
C512 C 0.92143 0.2257 0.4048 0.0
C513 C 0.9097 0.24903 0.38722 0.0
C514 C 0.91884 0.27667 0.3964 0.0
C515 C 0.93883 0.28084 0.42291 0.0
H516 H 0.72502 0.80257 0.44359 0.0
H517 H 0.71368 0.84879 0.34814 0.0
H518 H 0.7063 0.84283 0.47656 0.0
H519 H 0.69462 0.88917 0.3811 0.0
H520 H 0.72299 0.96259 0.45882 0.0
H521 H 0.72196 0.92172 0.41964 0.0
H522 H 0.6672 0.87686 0.49104 0.0
H523 H 0.66812 0.91844 0.5304 0.0
C524 C 0.71772 0.82107 0.4296 0.0
C525 C 0.72111 0.82268 0.39334 0.0
C526 C 0.70679 0.8441 0.44846 0.0
C527 C 0.69922 0.86937 0.43152 0.0
C528 C 0.70052 0.8701 0.39495 0.0
C529 C 0.71124 0.84692 0.37603 0.0
C530 C 0.71 0.94433 0.46562 0.0
C531 C 0.69561 0.94362 0.49755 0.0
C532 C 0.70928 0.92092 0.44309 0.0
C533 C 0.69456 0.89593 0.45219 0.0
C534 C 0.6788 0.89578 0.48334 0.0
C535 C 0.67912 0.91959 0.50573 0.0
H536 H 0.14828 0.71876 0.31825 0.0
H537 H 0.19773 0.73152 0.41145 0.0
H538 H 0.10837 0.70169 0.35339 0.0
H539 H 0.15805 0.714 0.44652 0.0
H540 H 0.08295 0.66877 0.49844 0.0
H541 H 0.12298 0.66995 0.45745 0.0
H542 H 0.08013 0.734 0.39748 0.0
H543 H 0.04085 0.73341 0.43872 0.0
C544 C 0.15089 0.71703 0.34614 0.0
C545 C 0.17597 0.72654 0.36223 0.0
C546 C 0.12807 0.70738 0.3662 0.0
C547 C 0.13016 0.70656 0.40263 0.0
C548 C 0.15598 0.71414 0.41848 0.0
C549 C 0.17859 0.72429 0.39848 0.0
C550 C 0.08188 0.68249 0.47596 0.0
C551 C 0.05892 0.70101 0.47162 0.0
C552 C 0.10476 0.68328 0.45269 0.0
C553 C 0.10457 0.70202 0.42431 0.0
C554 C 0.08071 0.71913 0.41889 0.0
C555 C 0.05829 0.71887 0.44253 0.0
H556 H 0.30405 0.21055 0.37525 0.0
H557 H 0.21808 0.18299 0.35643 0.0
H558 H 0.31382 0.16548 0.40466 0.0
H559 H 0.2279 0.13761 0.38403 0.0
H560 H 0.23973 0.07875 0.47404 0.0
H561 H 0.23383 0.12176 0.44079 0.0
H562 H 0.31971 0.11473 0.40284 0.0
H563 H 0.32599 0.07166 0.43777 0.0
C564 C 0.28746 0.19454 0.37678 0.0
C565 C 0.26024 0.20029 0.36398 0.0
C566 C 0.29303 0.16867 0.39352 0.0
C567 C 0.27152 0.14795 0.39742 0.0
C568 C 0.24478 0.15329 0.38263 0.0
C569 C 0.23915 0.17921 0.36649 0.0
C570 C 0.25743 0.08621 0.45858 0.0
C571 C 0.28329 0.07155 0.45843 0.0
C572 C 0.25395 0.11091 0.43916 0.0
C573 C 0.27608 0.12165 0.41844 0.0
C574 C 0.30219 0.10721 0.41854 0.0
C575 C 0.30579 0.08246 0.43845 0.0
H576 H 0.68148 0.77549 0.86579 0.0
H577 H 0.63765 0.70378 0.81972 0.0
H578 H 0.63986 0.78611 0.90109 0.0
H579 H 0.5955 0.71481 0.85392 0.0
H580 H 0.5506 0.7118 0.95994 0.0
H581 H 0.58564 0.70796 0.91386 0.0
H582 H 0.59165 0.79978 0.90908 0.0
H583 H 0.55714 0.80358 0.95603 0.0
C584 C 0.66239 0.76288 0.86202 0.0
C585 C 0.66267 0.7389 0.84005 0.0
C586 C 0.63853 0.76881 0.88239 0.0
C587 C 0.61445 0.75091 0.881 0.0
C588 C 0.61391 0.72858 0.8564 0.0
C589 C 0.63784 0.72252 0.83633 0.0
C590 C 0.55926 0.73119 0.94896 0.0
C591 C 0.55118 0.75797 0.96191 0.0
C592 C 0.5792 0.72902 0.92221 0.0
C593 C 0.59148 0.75359 0.90748 0.0
C594 C 0.58292 0.78041 0.91998 0.0
C595 C 0.56306 0.78257 0.94689 0.0
H596 H 0.31338 0.68081 0.84478 0.0
H597 H 0.22592 0.70333 0.85994 0.0
H598 H 0.30463 0.63449 0.87119 0.0
H599 H 0.21713 0.6576 0.88826 0.0
H600 H 0.29031 0.57334 0.96092 0.0
H601 H 0.2978 0.61559 0.92601 0.0
H602 H 0.21248 0.60789 0.88592 0.0
H603 H 0.20464 0.56623 0.92237 0.0
C604 C 0.29218 0.67561 0.85359 0.0
C605 C 0.27029 0.69548 0.8503 0.0
C606 C 0.28716 0.64921 0.86915 0.0
C607 C 0.26023 0.64222 0.88255 0.0
C608 C 0.23807 0.66188 0.87802 0.0
C609 C 0.24304 0.68816 0.86187 0.0
C610 C 0.27321 0.58049 0.94444 0.0
C611 C 0.24686 0.56638 0.94456 0.0
C612 C 0.27755 0.60474 0.92412 0.0
C613 C 0.2558 0.6154 0.90285 0.0
C614 C 0.22963 0.60076 0.90231 0.0
C615 C 0.22517 0.57668 0.92305 0.0
H616 H 0.30655 0.19555 0.86 0.0
H617 H 0.32416 0.28563 0.87039 0.0
H618 H 0.35278 0.18503 0.88527 0.0
H619 H 0.36886 0.27535 0.89786 0.0
H620 H 0.45604 0.25505 0.92838 0.0
H621 H 0.41456 0.26003 0.89159 0.0
H622 H 0.37739 0.185 0.93836 0.0
H623 H 0.42007 0.17914 0.97355 0.0
C624 C 0.3203 0.21311 0.86746 0.0
C625 C 0.31137 0.24146 0.86346 0.0
C626 C 0.3467 0.20709 0.88245 0.0
C627 C 0.36478 0.22926 0.89394 0.0
C628 C 0.35601 0.25755 0.88898 0.0
C629 C 0.32993 0.26353 0.87368 0.0
C630 C 0.43916 0.23937 0.93035 0.0
C631 C 0.44116 0.21685 0.954 0.0
C632 C 0.41517 0.24235 0.90948 0.0
C633 C 0.39206 0.22336 0.9124 0.0
C634 C 0.39468 0.2 0.93505 0.0
C635 C 0.41912 0.19664 0.95539 0.0
H636 H 0.78954 0.3629 0.83321 0.0
H637 H 0.77893 0.30911 0.92274 0.0
H638 H 0.8066 0.40168 0.87099 0.0
H639 H 0.79611 0.34763 0.96047 0.0
H640 H 0.83444 0.42167 1.02112 0.0
H641 H 0.83572 0.38298 0.97758 0.0
H642 H 0.77615 0.4288 0.91416 0.0
H643 H 0.7745 0.46672 0.95763 0.0
C644 C 0.79187 0.35906 0.86079 0.0
C645 C 0.78285 0.3331 0.87511 0.0
C646 C 0.80143 0.38128 0.88245 0.0
C647 C 0.8025 0.37779 0.91876 0.0
C648 C 0.79578 0.35095 0.93264 0.0
C649 C 0.78586 0.32892 0.91107 0.0
C650 C 0.82228 0.42368 0.9974 0.0
C651 C 0.80434 0.44709 0.99268 0.0
C652 C 0.82287 0.40154 0.97261 0.0
C653 C 0.80606 0.40285 0.94239 0.0
C654 C 0.78962 0.42724 0.93686 0.0
C655 C 0.78855 0.44891 0.96185 0.0
H656 H 0.65711 0.20849 0.2404 0.0
H657 H 0.7054 0.21528 0.14572 0.0
H658 H 0.61532 0.19363 0.20674 0.0
H659 H 0.66391 0.20008 0.11201 0.0
H660 H 0.58393 0.16481 0.06064 0.0
H661 H 0.62483 0.16143 0.10008 0.0
H662 H 0.58885 0.22702 0.16539 0.0
H663 H 0.54874 0.23078 0.12593 0.0
C664 C 0.65901 0.20566 0.21253 0.0
C665 C 0.68432 0.21284 0.19553 0.0
C666 C 0.63514 0.19734 0.19327 0.0
C667 C 0.63636 0.1958 0.15675 0.0
C668 C 0.66242 0.20076 0.1401 0.0
C669 C 0.68612 0.20948 0.15932 0.0
C670 C 0.58457 0.17795 0.08389 0.0
C671 C 0.56335 0.19816 0.09023 0.0
C672 C 0.60794 0.1761 0.10632 0.0
C673 C 0.60996 0.1939 0.13585 0.0
C674 C 0.58775 0.21277 0.14314 0.0
C675 C 0.56488 0.21507 0.12042 0.0
H676 H 0.74528 0.66603 0.27541 0.0
H677 H 0.7694 0.71261 0.18372 0.0
H678 H 0.76017 0.62141 0.24725 0.0
H679 H 0.78478 0.66828 0.15584 0.0
H680 H 0.74317 0.55382 0.15634 0.0
H681 H 0.73796 0.59589 0.19328 0.0
H682 H 0.82048 0.62585 0.16126 0.0
H683 H 0.82602 0.5832 0.12452 0.0
C684 C 0.75446 0.66677 0.24962 0.0
C685 C 0.75623 0.69269 0.23171 0.0
C686 C 0.76283 0.64129 0.23345 0.0
C687 C 0.77364 0.64136 0.19933 0.0
C688 C 0.77682 0.66756 0.18223 0.0
C689 C 0.76794 0.69289 0.19812 0.0
C690 C 0.76047 0.56909 0.15762 0.0
C691 C 0.785 0.56518 0.13742 0.0
C692 C 0.75752 0.59313 0.17895 0.0
C693 C 0.7788 0.61418 0.18019 0.0
C694 C 0.80372 0.60997 0.16076 0.0
C695 C 0.80694 0.58552 0.13989 0.0
H696 H 0.32556 0.73886 0.24308 0.0
H697 H 0.28608 0.7403 0.14173 0.0
H698 H 0.37216 0.74511 0.21551 0.0
H699 H 0.33242 0.74504 0.11461 0.0
H700 H 0.42032 0.71194 0.08139 0.0
H701 H 0.37661 0.7077 0.11516 0.0
H702 H 0.39769 0.78497 0.171 0.0
H703 H 0.44125 0.78971 0.13667 0.0
C704 C 0.3267 0.74085 0.2151 0.0
C705 C 0.30203 0.73857 0.19464 0.0
C706 C 0.35337 0.7442 0.19936 0.0
C707 C 0.35581 0.74493 0.16295 0.0
C708 C 0.33114 0.74391 0.14269 0.0
C709 C 0.30462 0.74112 0.15831 0.0
C710 C 0.4159 0.72781 0.1012 0.0
C711 C 0.43418 0.75124 0.10621 0.0
C712 C 0.39084 0.72543 0.1204 0.0
C713 C 0.38381 0.74609 0.14551 0.0
C714 C 0.40272 0.76874 0.15186 0.0
C715 C 0.42755 0.77145 0.13213 0.0
H716 H 0.27811 0.31091 0.15826 0.0
H717 H 0.24788 0.36176 0.24434 0.0
H718 H 0.26677 0.34919 0.11824 0.0
H719 H 0.23579 0.40012 0.20373 0.0
H720 H 0.19912 0.44889 0.10381 0.0
H721 H 0.20417 0.41064 0.14647 0.0
H722 H 0.29123 0.39967 0.11529 0.0
H723 H 0.28646 0.43801 0.07318 0.0
C724 C 0.26856 0.33013 0.16854 0.0
C725 C 0.26434 0.33356 0.20452 0.0
C726 C 0.26216 0.35204 0.14563 0.0
C727 C 0.25097 0.37777 0.15802 0.0
C728 C 0.24454 0.38048 0.1936 0.0
C729 C 0.25129 0.35852 0.21676 0.0
C730 C 0.21938 0.4384 0.10623 0.0
C731 C 0.24238 0.44639 0.08501 0.0
C732 C 0.22225 0.41664 0.13072 0.0
C733 C 0.24799 0.4021 0.13391 0.0
C734 C 0.27105 0.41037 0.11308 0.0
C735 C 0.26836 0.43241 0.0891 0.0
H736 H 0.36836 0.31432 0.2455 0.0
H737 H 0.3313 0.234 0.21426 0.0
H738 H 0.41029 0.30417 0.21046 0.0
H739 H 0.37241 0.22416 0.17785 0.0
H740 H 0.44971 0.30083 0.10141 0.0
H741 H 0.41698 0.30569 0.14973 0.0
H742 H 0.42097 0.21494 0.16755 0.0
H743 H 0.453 0.20999 0.11816 0.0
C744 C 0.36974 0.29403 0.23202 0.0
C745 C 0.34688 0.2748 0.23265 0.0
C746 C 0.39347 0.28839 0.21145 0.0
C747 C 0.39448 0.26367 0.19055 0.0
C748 C 0.37254 0.24334 0.19366 0.0
C749 C 0.34899 0.24885 0.21463 0.0
C750 C 0.44373 0.28192 0.11573 0.0
C751 C 0.45376 0.255 0.10571 0.0
C752 C 0.42515 0.28473 0.14378 0.0
C753 C 0.41635 0.26071 0.16282 0.0
C754 C 0.42699 0.23385 0.15329 0.0
C755 C 0.44539 0.23102 0.12497 0.0
H756 H 0.68836 0.31496 0.22229 0.0
H757 H 0.77796 0.30292 0.20664 0.0
H758 H 0.69218 0.36308 0.19906 0.0
H759 H 0.78183 0.35056 0.18211 0.0
H760 H 0.78528 0.44298 0.15411 0.0
H761 H 0.78047 0.40035 0.18941 0.0
H762 H 0.69798 0.38416 0.14424 0.0
H763 H 0.70239 0.42743 0.11013 0.0
C764 C 0.70894 0.32279 0.21411 0.0
C765 C 0.73286 0.30524 0.21611 0.0
C766 C 0.71112 0.35027 0.20052 0.0
C767 C 0.73724 0.36072 0.18815 0.0
C768 C 0.76141 0.34351 0.19169 0.0
C769 C 0.75925 0.31614 0.20571 0.0
C770 C 0.76596 0.43049 0.15207 0.0
C771 C 0.74426 0.43853 0.12917 0.0
C772 C 0.76327 0.4059 0.17216 0.0
C773 C 0.73895 0.38852 0.16958 0.0
C774 C 0.71687 0.39713 0.14743 0.0
C775 C 0.71943 0.42192 0.12765 0.0
H776 H 0.6995 0.80295 0.19962 0.0
H777 H 0.6563 0.72956 0.24126 0.0
H778 H 0.65728 0.81442 0.16504 0.0
H779 H 0.61399 0.74127 0.20813 0.0
H780 H 0.56288 0.7434 0.10924 0.0
H781 H 0.60263 0.73776 0.14801 0.0
H782 H 0.60699 0.82893 0.16363 0.0
H783 H 0.56698 0.83475 0.1235 0.0
C784 C 0.68072 0.78969 0.20184 0.0
C785 C 0.68102 0.76529 0.22273 0.0
C786 C 0.65655 0.79625 0.18222 0.0
C787 C 0.63235 0.77851 0.18335 0.0
C788 C 0.63242 0.75501 0.2059 0.0
C789 C 0.65653 0.74837 0.22509 0.0
C790 C 0.57208 0.76237 0.12093 0.0
C791 C 0.56154 0.78956 0.11325 0.0
C792 C 0.59489 0.75908 0.1435 0.0
C793 C 0.60788 0.78284 0.15941 0.0
C794 C 0.59752 0.81017 0.15174 0.0
C795 C 0.57452 0.8135 0.12891 0.0
H796 H 0.21432 0.70234 0.1377 0.0
H797 H 0.20903 0.65404 0.23253 0.0
H798 H 0.19614 0.66133 0.10488 0.0
H799 H 0.19101 0.61284 0.19965 0.0
H800 H 0.22186 0.54459 0.11519 0.0
H801 H 0.2212 0.5846 0.15583 0.0
H802 H 0.15535 0.62425 0.09556 0.0
H803 H 0.15561 0.5835 0.05496 0.0
C804 C 0.2085 0.68316 0.15158 0.0
C805 C 0.21326 0.68118 0.18753 0.0
C806 C 0.19793 0.65978 0.13288 0.0
C807 C 0.19233 0.63388 0.14973 0.0
C808 C 0.19524 0.63255 0.18606 0.0
C809 C 0.20542 0.6561 0.20486 0.0
C810 C 0.20671 0.5615 0.11114 0.0
C811 C 0.18887 0.56111 0.08196 0.0
C812 C 0.2062 0.5843 0.13452 0.0
C813 C 0.18823 0.60752 0.12883 0.0
C814 C 0.16937 0.60656 0.10051 0.0
C815 C 0.16943 0.58329 0.07744 0.0
H816 H 0.34941 0.79806 0.82461 0.0
H817 H 0.30403 0.77758 0.91871 0.0
H818 H 0.3883 0.81799 0.85926 0.0
H819 H 0.343 0.79715 0.95332 0.0
H820 H 0.46248 0.79132 0.93541 0.0
H821 H 0.42225 0.79088 0.89584 0.0
H822 H 0.37363 0.83943 0.97035 0.0
H823 H 0.41452 0.84009 1.01001 0.0
C824 C 0.34742 0.79849 0.85266 0.0
C825 C 0.32383 0.78595 0.86896 0.0
C826 C 0.36974 0.80977 0.87249 0.0
C827 C 0.36882 0.80897 0.90903 0.0
C828 C 0.34429 0.79832 0.92526 0.0
C829 C 0.3221 0.78683 0.90544 0.0
C830 C 0.44353 0.80281 0.94274 0.0
C831 C 0.44155 0.81587 0.97555 0.0
C832 C 0.42048 0.80261 0.92007 0.0
C833 C 0.39468 0.815 0.93001 0.0
C834 C 0.39323 0.82963 0.96206 0.0
C835 C 0.41663 0.83027 0.98459 0.0
H836 H 0.22363 0.32456 0.81726 0.0
H837 H 0.22764 0.29133 0.9214 0.0
H838 H 0.20804 0.3707 0.84044 0.0
H839 H 0.21131 0.33723 0.94452 0.0
H840 H 0.16214 0.42022 0.96875 0.0
H841 H 0.16637 0.37398 0.93892 0.0
H842 H 0.23923 0.40537 0.88292 0.0
H843 H 0.23562 0.45108 0.91344 0.0
C844 C 0.22042 0.32695 0.84501 0.0
C845 C 0.22681 0.3045 0.86761 0.0
C846 C 0.21161 0.35329 0.85822 0.0
C847 C 0.20841 0.3574 0.8942 0.0
C848 C 0.21333 0.33447 0.91665 0.0
C849 C 0.22277 0.30833 0.9035 0.0
C850 C 0.17858 0.41742 0.94941 0.0
C851 C 0.19854 0.43918 0.9433 0.0
C852 C 0.1811 0.39097 0.93258 0.0
C853 C 0.20312 0.38621 0.90869 0.0
C854 C 0.22195 0.40859 0.90103 0.0
C855 C 0.2199 0.43469 0.91849 0.0
H856 H 0.6787 0.32832 0.85631 0.0
H857 H 0.69615 0.23847 0.86202 0.0
H858 H 0.63278 0.32056 0.88386 0.0
H859 H 0.65095 0.23057 0.89144 0.0
H860 H 0.56129 0.22098 0.92983 0.0
H861 H 0.60134 0.22907 0.89098 0.0
H862 H 0.61582 0.31137 0.93933 0.0
H863 H 0.57511 0.3038 0.97668 0.0
C864 C 0.67247 0.30685 0.86332 0.0
C865 C 0.69081 0.28398 0.85719 0.0
C866 C 0.64632 0.30237 0.87945 0.0
C867 C 0.63817 0.27498 0.89055 0.0
C868 C 0.6562 0.25192 0.88301 0.0
C869 C 0.68217 0.25637 0.86626 0.0
C870 C 0.57288 0.24093 0.9318 0.0
C871 C 0.56503 0.26173 0.95636 0.0
C872 C 0.59599 0.24551 0.90968 0.0
C873 C 0.61206 0.27085 0.91192 0.0
C874 C 0.60376 0.29182 0.93616 0.0
C875 C 0.58044 0.28741 0.95787 0.0
H876 H 0.69868 0.63957 0.84048 0.0
H877 H 0.77048 0.68455 0.88406 0.0
H878 H 0.70642 0.60025 0.88044 0.0
H879 H 0.77795 0.64559 0.92482 0.0
H880 H 0.79426 0.56221 0.98035 0.0
H881 H 0.79067 0.59667 0.93359 0.0
H882 H 0.69937 0.59348 0.94154 0.0
H883 H 0.70296 0.55839 0.98768 0.0
C884 C 0.7164 0.64077 0.85835 0.0
C885 C 0.73395 0.66505 0.85934 0.0
C886 C 0.72068 0.61842 0.88146 0.0
C887 C 0.74248 0.61996 0.9063 0.0
C888 C 0.76105 0.64359 0.90592 0.0
C889 C 0.75686 0.66591 0.88255 0.0
C890 C 0.77339 0.56879 0.97208 0.0
C891 C 0.74886 0.5576 0.98786 0.0
C892 C 0.77136 0.58865 0.94531 0.0
C893 C 0.74476 0.59787 0.93373 0.0
C894 C 0.72022 0.58651 0.94937 0.0
C895 C 0.72225 0.56654 0.97605 0.0
loop_
_geom_bond_atom_site_label_1
_geom_bond_atom_site_label_2
_geom_bond_distance
_geom_bond_site_symmetry_2
_ccdc_geom_bond_type
H0 C6 0.930 . S
H1 C9 0.931 . S
H2 C11 0.931 . S
H3 C13 0.930 . S
H4 C15 0.930 . S
H5 C17 0.931 . S
C6 H0 0.930 . S
C6 C7 1.380 . S
C6 C8 1.394 . S
C7 C6 1.380 . S
C7 C11 1.382 . S
C8 C6 1.394 . S
C8 C9 1.400 . S
C9 H1 0.931 . S
C9 C8 1.400 . S
C9 C10 1.375 . S
C10 C9 1.375 . S
C10 C11 1.415 . S
C10 C12 1.501 . S
C11 H2 0.931 . S
C11 C7 1.382 . S
C11 C10 1.415 . S
C12 C10 1.501 . S
C12 C13 1.384 . S
C12 C17 1.408 . S
C13 H3 0.930 . S
C13 C12 1.384 . S
C13 C14 1.389 . S
C14 C13 1.389 . S
C14 C15 1.405 . S
C15 H4 0.930 . S
C15 C14 1.405 . S
C15 C16 1.364 . S
C16 C15 1.364 . S
C16 C17 1.400 . S
C17 H5 0.931 . S
C17 C12 1.408 . S
C17 C16 1.400 . S
H18 C24 0.930 . S
H19 C27 0.931 . S
H20 C29 0.931 . S
H21 C31 0.930 . S
H22 C33 0.930 . S
H23 C35 0.931 . S
C24 H18 0.930 . S
C24 C25 1.380 . S
C24 C26 1.394 . S
C25 C24 1.380 . S
C25 C29 1.382 . S
C26 C24 1.394 . S
C26 C27 1.400 . S
C27 H19 0.931 . S
C27 C26 1.400 . S
C27 C28 1.375 . S
C28 C27 1.375 . S
C28 C29 1.415 . S
C28 C30 1.501 . S
C29 H20 0.931 . S
C29 C25 1.382 . S
C29 C28 1.415 . S
C30 C28 1.501 . S
C30 C31 1.384 . S
C30 C35 1.408 . S
C31 H21 0.930 . S
C31 C30 1.384 . S
C31 C32 1.389 . S
C32 C31 1.389 . S
C32 C33 1.405 . S
C33 H22 0.930 . S
C33 C32 1.405 . S
C33 C34 1.364 . S
C34 C33 1.364 . S
C34 C35 1.400 . S
C35 H23 0.931 . S
C35 C30 1.408 . S
C35 C34 1.400 . S
H36 C42 0.930 . S
H37 C45 0.931 . S
H38 C47 0.931 . S
H39 C49 0.930 . S
H40 C51 0.930 . S
H41 C53 0.931 . S
C42 H36 0.930 . S
C42 C43 1.380 . S
C42 C44 1.394 . S
C43 C42 1.380 . S
C43 C47 1.382 . S
C44 C42 1.394 . S
C44 C45 1.400 . S
C45 H37 0.931 . S
C45 C44 1.400 . S
C45 C46 1.375 . S
C46 C45 1.375 . S
C46 C47 1.415 . S
C46 C48 1.501 . S
C47 H38 0.931 . S
C47 C43 1.382 . S
C47 C46 1.415 . S
C48 C46 1.501 . S
C48 C49 1.384 . S
C48 C53 1.408 . S
C49 H39 0.930 . S
C49 C48 1.384 . S
C49 C50 1.389 . S
C50 C49 1.389 . S
C50 C51 1.405 . S
C51 H40 0.930 . S
C51 C50 1.405 . S
C51 C52 1.364 . S
C52 C51 1.364 . S
C52 C53 1.400 . S
C53 H41 0.931 . S
C53 C48 1.408 . S
C53 C52 1.400 . S
H54 C60 0.930 . S
H55 C63 0.931 . S
H56 C65 0.931 . S
H57 C67 0.930 . S
H58 C69 0.930 . S
H59 C71 0.931 . S
C60 H54 0.930 . S
C60 C61 1.380 . S
C60 C62 1.394 . S
C61 C60 1.380 . S
C61 C65 1.382 . S
C62 C60 1.394 . S
C62 C63 1.400 . S
C63 H55 0.931 . S
C63 C62 1.400 . S
C63 C64 1.375 . S
C64 C63 1.375 . S
C64 C65 1.415 . S
C64 C66 1.501 . S
C65 H56 0.931 . S
C65 C61 1.382 . S
C65 C64 1.415 . S
C66 C64 1.501 . S
C66 C67 1.384 . S
C66 C71 1.408 . S
C67 H57 0.930 . S
C67 C66 1.384 . S
C67 C68 1.389 . S
C68 C67 1.389 . S
C68 C69 1.405 . S
C69 H58 0.930 . S
C69 C68 1.405 . S
C69 C70 1.364 . S
C70 C69 1.364 . S
C70 C71 1.400 . S
C71 H59 0.931 . S
C71 C66 1.408 . S
C71 C70 1.400 . S
H72 C78 0.930 . S
H73 C81 0.931 . S
H74 C83 0.931 . S
H75 C85 0.930 . S
H76 C87 0.930 . S
H77 C89 0.931 . S
C78 H72 0.930 . S
C78 C79 1.380 . S
C78 C80 1.394 . S
C79 C78 1.380 . S
C79 C83 1.382 . S
C80 C78 1.394 . S
C80 C81 1.400 . S
C81 H73 0.931 . S
C81 C80 1.400 . S
C81 C82 1.375 . S
C82 C81 1.375 . S
C82 C83 1.415 . S
C82 C84 1.501 . S
C83 H74 0.931 . S
C83 C79 1.382 . S
C83 C82 1.415 . S
C84 C82 1.501 . S
C84 C85 1.384 . S
C84 C89 1.408 . S
C85 H75 0.930 . S
C85 C84 1.384 . S
C85 C86 1.389 . S
C86 C85 1.389 . S
C86 C87 1.405 . S
C87 H76 0.930 . S
C87 C86 1.405 . S
C87 C88 1.364 . S
C88 C87 1.364 . S
C88 C89 1.400 . S
C89 H77 0.931 . S
C89 C84 1.408 . S
C89 C88 1.400 . S
H90 C96 0.930 . S
H91 C99 0.931 . S
H92 C101 0.931 . S
H93 C103 0.930 . S
H94 C105 0.930 . S
H95 C107 0.931 . S
C96 H90 0.930 . S
C96 C97 1.380 . S
C96 C98 1.394 . S
C97 C96 1.380 . S
C97 C101 1.382 . S
C98 C96 1.394 . S
C98 C99 1.400 . S
C99 H91 0.931 . S
C99 C98 1.400 . S
C99 C100 1.375 . S
C100 C99 1.375 . S
C100 C101 1.415 . S
C100 C102 1.501 . S
C101 H92 0.931 . S
C101 C97 1.382 . S
C101 C100 1.415 . S
C102 C100 1.501 . S
C102 C103 1.384 . S
C102 C107 1.408 . S
C103 H93 0.930 . S
C103 C102 1.384 . S
C103 C104 1.389 . S
C104 C103 1.389 . S
C104 C105 1.405 . S
C105 H94 0.930 . S
C105 C104 1.405 . S
C105 C106 1.364 . S
C106 C105 1.364 . S
C106 C107 1.400 . S
C107 H95 0.931 . S
C107 C102 1.408 . S
C107 C106 1.400 . S
H108 C114 0.930 . S
H109 C117 0.931 . S
H110 C119 0.931 . S
H111 C121 0.930 . S
H112 C123 0.930 . S
H113 C125 0.931 . S
C114 H108 0.930 . S
C114 C115 1.380 . S
C114 C116 1.394 . S
C115 C114 1.380 . S
C115 C119 1.382 . S
C116 C114 1.394 . S
C116 C117 1.400 . S
C117 H109 0.931 . S
C117 C116 1.400 . S
C117 C118 1.375 . S
C118 C117 1.375 . S
C118 C119 1.415 . S
C118 C120 1.501 . S
C119 H110 0.931 . S
C119 C115 1.382 . S
C119 C118 1.415 . S
C120 C118 1.501 . S
C120 C121 1.384 . S
C120 C125 1.408 . S
C121 H111 0.930 . S
C121 C120 1.384 . S
C121 C122 1.389 . S
C122 C121 1.389 . S
C122 C123 1.405 . S
C123 H112 0.930 . S
C123 C122 1.405 . S
C123 C124 1.364 . S
C124 C123 1.364 . S
C124 C125 1.400 . S
C125 H113 0.931 . S
C125 C120 1.408 . S
C125 C124 1.400 . S
H126 C132 0.930 . S
H127 C135 0.931 . S
H128 C137 0.931 . S
H129 C139 0.930 . S
H130 C141 0.930 . S
H131 C143 0.931 . S
C132 H126 0.930 . S
C132 C133 1.380 . S
C132 C134 1.394 . S
C133 C132 1.380 . S
C133 C137 1.382 . S
C134 C132 1.394 . S
C134 C135 1.400 . S
C135 H127 0.931 . S
C135 C134 1.400 . S
C135 C136 1.375 . S
C136 C135 1.375 . S
C136 C137 1.415 . S
C136 C138 1.501 . S
C137 H128 0.931 . S
C137 C133 1.382 . S
C137 C136 1.415 . S
C138 C136 1.501 . S
C138 C139 1.384 . S
C138 C143 1.408 . S
C139 H129 0.930 . S
C139 C138 1.384 . S
C139 C140 1.389 . S
C140 C139 1.389 . S
C140 C141 1.405 . S
C141 H130 0.930 . S
C141 C140 1.405 . S
C141 C142 1.364 . S
C142 C141 1.364 . S
C142 C143 1.400 . S
C143 H131 0.931 . S
C143 C138 1.408 . S
C143 C142 1.400 . S
C144 O146 1.247 . S
C144 O148 1.258 . S
C145 O152 1.247 . S
C145 O153 1.258 . S
O146 C144 1.247 . S
O146 Zn147 2.028 1_655 S
Zn147 O146 2.028 1_455 S
Zn147 O151 2.035 . S
Zn147 O153 2.035 . S
Zn147 O154 2.028 1_455 S
O148 C144 1.258 . S
O148 Zn149 2.035 1_655 S
Zn149 O148 2.035 1_455 S
Zn149 O150 2.028 . S
Zn149 O152 2.028 . S
Zn149 O155 2.035 1_455 S
O150 Zn149 2.028 . S
O150 C156 1.247 . S
O151 Zn147 2.035 . S
O151 C156 1.258 . S
O152 C145 1.247 . S
O152 Zn149 2.028 . S
O153 C145 1.258 . S
O153 Zn147 2.035 . S
O154 Zn147 2.028 1_655 S
O154 C157 1.247 . S
O155 Zn149 2.035 1_655 S
O155 C157 1.258 . S
C156 O150 1.247 . S
C156 O151 1.258 . S
C157 O154 1.247 . S
C157 O155 1.258 . S
C158 O160 1.247 . S
C158 O162 1.258 . S
C159 O166 1.247 . S
C159 O167 1.258 . S
O160 C158 1.247 . S
O160 Zn161 2.028 . S
Zn161 O160 2.028 . S
Zn161 O165 2.035 1_545 S
Zn161 O167 2.035 1_545 S
Zn161 O168 2.028 . S
O162 C158 1.258 . S
O162 Zn163 2.057 . S
Zn163 O162 2.057 . S
Zn163 O164 2.007 1_545 S
Zn163 O166 2.007 1_545 S
Zn163 O169 2.057 . S
O164 Zn163 2.007 1_565 S
O164 C170 1.247 . S
O165 Zn161 2.035 1_565 S
O165 C170 1.258 . S
O166 C159 1.247 . S
O166 Zn163 2.007 1_565 S
O167 C159 1.258 . S
O167 Zn161 2.035 1_565 S
O168 Zn161 2.028 . S
O168 C171 1.247 . S
O169 Zn163 2.057 . S
O169 C171 1.258 . S
C170 O164 1.247 . S
C170 O165 1.258 . S
C171 O168 1.247 . S
C171 O169 1.258 . S
C172 O174 1.247 . S
C172 O176 1.258 . S
C173 O180 1.247 . S
C173 O181 1.258 . S
O174 C172 1.247 . S
O174 Zn175 2.028 1_655 S
Zn175 O174 2.028 1_455 S
Zn175 O179 2.035 . S
Zn175 O181 2.035 . S
Zn175 O182 2.028 1_455 S
O176 C172 1.258 . S
O176 Zn177 2.035 1_655 S
Zn177 O176 2.035 1_455 S
Zn177 O178 2.028 . S
Zn177 O180 2.028 . S
Zn177 O183 2.035 1_455 S
O178 Zn177 2.028 . S
O178 C184 1.247 . S
O179 Zn175 2.035 . S
O179 C184 1.258 . S
O180 C173 1.247 . S
O180 Zn177 2.028 . S
O181 C173 1.258 . S
O181 Zn175 2.035 . S
O182 Zn175 2.028 1_655 S
O182 C185 1.247 . S
O183 Zn177 2.035 1_655 S
O183 C185 1.258 . S
C184 O178 1.247 . S
C184 O179 1.258 . S
C185 O182 1.247 . S
C185 O183 1.258 . S
C186 O188 1.247 . S
C186 O190 1.258 . S
C187 O194 1.247 . S
C187 O195 1.258 . S
O188 C186 1.247 . S
O188 Zn189 2.052 . S
Zn189 O188 2.052 . S
Zn189 O193 2.011 1_545 S
Zn189 O195 2.011 1_545 S
Zn189 O196 2.052 . S
O190 C186 1.258 . S
O190 Zn191 2.045 . S
Zn191 O190 2.045 . S
Zn191 O192 2.018 1_545 S
Zn191 O194 2.018 1_545 S
Zn191 O197 2.045 . S
O192 Zn191 2.018 1_565 S
O192 C198 1.247 . S
O193 Zn189 2.011 1_565 S
O193 C198 1.258 . S
O194 C187 1.247 . S
O194 Zn191 2.018 1_565 S
O195 C187 1.258 . S
O195 Zn189 2.011 1_565 S
O196 Zn189 2.052 . S
O196 C199 1.247 . S
O197 Zn191 2.045 . S
O197 C199 1.258 . S
C198 O192 1.247 . S
C198 O193 1.258 . S
C199 O196 1.247 . S
C199 O197 1.258 . S
C200 O202 1.247 . S
C200 O204 1.258 . S
C201 O208 1.247 . S
C201 O209 1.258 . S
O202 C200 1.247 . S
O202 Zn203 2.028 . S
Zn203 O202 2.028 . S
Zn203 O207 2.035 . S
Zn203 O209 2.035 1_554 S
Zn203 O210 2.028 1_554 S
O204 C200 1.258 . S
O204 Zn205 2.035 . S
Zn205 O204 2.035 . S
Zn205 O206 2.028 . S
Zn205 O208 2.028 1_554 S
Zn205 O211 2.035 1_554 S
O206 Zn205 2.028 . S
O206 C212 1.247 . S
O207 Zn203 2.035 . S
O207 C212 1.258 . S
O208 C201 1.247 . S
O208 Zn205 2.028 1_556 S
O209 C201 1.258 . S
O209 Zn203 2.035 1_556 S
O210 Zn203 2.028 1_556 S
O210 C213 1.247 . S
O211 Zn205 2.035 1_556 S
O211 C213 1.258 . S
C212 O206 1.247 . S
C212 O207 1.258 . S
C213 O210 1.247 . S
C213 O211 1.258 . S
C214 O216 1.247 . S
C214 O218 1.258 . S
C215 O222 1.247 . S
C215 O223 1.258 . S
O216 C214 1.247 . S
O216 Zn217 2.047 . S
Zn217 O216 2.047 . S
Zn217 O221 2.054 . S
Zn217 O223 2.017 1_554 S
Zn217 O224 2.009 1_554 S
O218 C214 1.258 . S
O218 Zn219 2.056 . S
Zn219 O218 2.056 . S
Zn219 O220 2.049 . S
Zn219 O222 2.007 1_554 S
Zn219 O225 2.015 1_554 S
O220 Zn219 2.049 . S
O220 C226 1.247 . S
O221 Zn217 2.054 . S
O221 C226 1.258 . S
O222 C215 1.247 . S
O222 Zn219 2.007 1_556 S
O223 C215 1.258 . S
O223 Zn217 2.017 1_556 S
O224 Zn217 2.009 1_556 S
O224 C227 1.247 . S
O225 Zn219 2.015 1_556 S
O225 C227 1.258 . S
C226 O220 1.247 . S
C226 O221 1.258 . S
C227 O224 1.247 . S
C227 O225 1.258 . S
C228 O230 1.247 . S
C228 O232 1.258 . S
C229 O236 1.247 . S
C229 O237 1.258 . S
O230 C228 1.247 . S
O230 Zn231 2.007 1_556 S
Zn231 O230 2.007 1_554 S
Zn231 O235 2.014 1_554 S
Zn231 O237 2.056 . S
Zn231 O238 2.049 . S
O232 C228 1.258 . S
O232 Zn233 2.014 1_556 S
Zn233 O232 2.014 1_554 S
Zn233 O234 2.006 1_554 S
Zn233 O236 2.050 . S
Zn233 O239 2.057 . S
O234 Zn233 2.006 1_556 S
O234 C240 1.247 . S
O235 Zn231 2.014 1_556 S
O235 C240 1.258 . S
O236 C229 1.247 . S
O236 Zn233 2.050 . S
O237 C229 1.258 . S
O237 Zn231 2.056 . S
O238 Zn231 2.049 . S
O238 C241 1.247 . S
O239 Zn233 2.057 . S
O239 C241 1.258 . S
C240 O234 1.247 . S
C240 O235 1.258 . S
C241 O238 1.247 . S
C241 O239 1.258 . S
C242 O244 1.247 . S
C242 O246 1.258 . S
C243 O250 1.247 . S
C243 O251 1.258 . S
O244 C242 1.247 . S
O244 Zn245 2.036 . S
Zn245 O244 2.036 . S
Zn245 O249 2.044 . S
Zn245 O251 2.027 1_554 S
Zn245 O252 2.019 1_554 S
O246 C242 1.258 . S
O246 Zn247 2.046 . S
Zn247 O246 2.046 . S
Zn247 O248 2.039 . S
Zn247 O250 2.017 1_554 S
Zn247 O253 2.024 1_554 S
O248 Zn247 2.039 . S
O248 C254 1.247 . S
O249 Zn245 2.044 . S
O249 C254 1.258 . S
O250 C243 1.247 . S
O250 Zn247 2.017 1_556 S
O251 C243 1.258 . S
O251 Zn245 2.027 1_556 S
O252 Zn245 2.019 1_556 S
O252 C255 1.247 . S
O253 Zn247 2.024 1_556 S
O253 C255 1.258 . S
C254 O248 1.247 . S
C254 O249 1.258 . S
C255 O252 1.247 . S
C255 O253 1.258 . S
H256 C264 0.950 . S
H257 C269 0.950 . S
H258 C266 0.950 . S
H259 C268 0.950 . S
H260 C270 0.950 . S
H261 C272 0.950 . S
H262 C274 0.950 . S
H263 C275 0.950 . S
C264 H256 0.950 . S
C264 C265 1.386 . S
C264 C266 1.391 . S
C265 C264 1.386 . S
C265 C269 1.393 . S
C266 H258 0.950 . S
C266 C264 1.391 . S
C266 C267 1.400 . S
C267 C266 1.400 . S
C267 C268 1.398 . S
C267 C273 1.491 . S
C268 H259 0.950 . S
C268 C267 1.398 . S
C268 C269 1.391 . S
C269 H257 0.950 . S
C269 C265 1.393 . S
C269 C268 1.391 . S
C270 H260 0.950 . S
C270 C271 1.386 . S
C270 C272 1.391 . S
C271 C270 1.386 . S
C271 C275 1.393 . S
C272 H261 0.950 . S
C272 C270 1.391 . S
C272 C273 1.400 . S
C273 C267 1.491 . S
C273 C272 1.400 . S
C273 C274 1.398 . S
C274 H262 0.950 . S
C274 C273 1.398 . S
C274 C275 1.391 . S
C275 H263 0.950 . S
C275 C271 1.393 . S
C275 C274 1.391 . S
H276 C284 0.950 . S
H277 C289 0.950 . S
H278 C286 0.950 . S
H279 C288 0.950 . S
H280 C290 0.950 . S
H281 C292 0.950 . S
H282 C294 0.950 . S
H283 C295 0.950 . S
C284 H276 0.950 . S
C284 C285 1.386 . S
C284 C286 1.391 . S
C285 C284 1.386 . S
C285 C289 1.393 . S
C286 H278 0.950 . S
C286 C284 1.391 . S
C286 C287 1.400 . S
C287 C286 1.400 . S
C287 C288 1.398 . S
C287 C293 1.491 . S
C288 H279 0.950 . S
C288 C287 1.398 . S
C288 C289 1.391 . S
C289 H277 0.950 . S
C289 C285 1.393 . S
C289 C288 1.391 . S
C290 H280 0.950 . S
C290 C291 1.386 . S
C290 C292 1.391 . S
C291 C290 1.386 . S
C291 C295 1.393 . S
C292 H281 0.950 . S
C292 C290 1.391 . S
C292 C293 1.400 . S
C293 C287 1.491 . S
C293 C292 1.400 . S
C293 C294 1.398 . S
C294 H282 0.950 . S
C294 C293 1.398 . S
C294 C295 1.391 . S
C295 H283 0.950 . S
C295 C291 1.393 . S
C295 C294 1.391 . S
H296 C304 0.950 . S
H297 C309 0.950 . S
H298 C306 0.950 . S
H299 C308 0.950 . S
H300 C310 0.950 . S
H301 C312 0.950 . S
H302 C314 0.950 . S
H303 C315 0.950 . S
C304 H296 0.950 . S
C304 C305 1.386 . S
C304 C306 1.391 . S
C305 C304 1.386 . S
C305 C309 1.393 . S
C306 H298 0.950 . S
C306 C304 1.391 . S
C306 C307 1.400 . S
C307 C306 1.400 . S
C307 C308 1.398 . S
C307 C313 1.491 . S
C308 H299 0.950 . S
C308 C307 1.398 . S
C308 C309 1.391 . S
C309 H297 0.950 . S
C309 C305 1.393 . S
C309 C308 1.391 . S
C310 H300 0.950 . S
C310 C311 1.386 . S
C310 C312 1.391 . S
C311 C310 1.386 . S
C311 C315 1.393 . S
C312 H301 0.950 . S
C312 C310 1.391 . S
C312 C313 1.400 . S
C313 C307 1.491 . S
C313 C312 1.400 . S
C313 C314 1.398 . S
C314 H302 0.950 . S
C314 C313 1.398 . S
C314 C315 1.391 . S
C315 H303 0.950 . S
C315 C311 1.393 . S
C315 C314 1.391 . S
H316 C324 0.950 . S
H317 C329 0.950 . S
H318 C326 0.950 . S
H319 C328 0.950 . S
H320 C330 0.950 . S
H321 C332 0.950 . S
H322 C334 0.950 . S
H323 C335 0.950 . S
C324 H316 0.950 . S
C324 C325 1.386 . S
C324 C326 1.391 . S
C325 C324 1.386 . S
C325 C329 1.393 . S
C326 H318 0.950 . S
C326 C324 1.391 . S
C326 C327 1.400 . S
C327 C326 1.400 . S
C327 C328 1.398 . S
C327 C333 1.491 . S
C328 H319 0.950 . S
C328 C327 1.398 . S
C328 C329 1.391 . S
C329 H317 0.950 . S
C329 C325 1.393 . S
C329 C328 1.391 . S
C330 H320 0.950 . S
C330 C331 1.386 . S
C330 C332 1.391 . S
C331 C330 1.386 . S
C331 C335 1.393 . S
C332 H321 0.950 . S
C332 C330 1.391 . S
C332 C333 1.400 . S
C333 C327 1.491 . S
C333 C332 1.400 . S
C333 C334 1.398 . S
C334 H322 0.950 . S
C334 C333 1.398 . S
C334 C335 1.391 . S
C335 H323 0.950 . S
C335 C331 1.393 . S
C335 C334 1.391 . S
H336 C344 0.950 . S
H337 C349 0.950 . S
H338 C346 0.950 . S
H339 C348 0.950 . S
H340 C350 0.950 . S
H341 C352 0.950 . S
H342 C354 0.950 . S
H343 C355 0.950 . S
C344 H336 0.950 . S
C344 C345 1.386 . S
C344 C346 1.391 . S
C345 C344 1.386 . S
C345 C349 1.393 . S
C346 H338 0.950 . S
C346 C344 1.391 . S
C346 C347 1.400 . S
C347 C346 1.400 . S
C347 C348 1.398 . S
C347 C353 1.491 . S
C348 H339 0.950 . S
C348 C347 1.398 . S
C348 C349 1.391 . S
C349 H337 0.950 . S
C349 C345 1.393 . S
C349 C348 1.391 . S
C350 H340 0.950 . S
C350 C351 1.386 . S
C350 C352 1.391 . S
C351 C350 1.386 . S
C351 C355 1.393 . S
C352 H341 0.950 . S
C352 C350 1.391 . S
C352 C353 1.400 . S
C353 C347 1.491 . S
C353 C352 1.400 . S
C353 C354 1.398 . S
C354 H342 0.950 . S
C354 C353 1.398 . S
C354 C355 1.391 . S
C355 H343 0.950 . S
C355 C351 1.393 . S
C355 C354 1.391 . S
H356 C364 0.950 . S
H357 C369 0.950 . S
H358 C366 0.950 . S
H359 C368 0.950 . S
H360 C370 0.950 . S
H361 C372 0.950 . S
H362 C374 0.950 . S
H363 C375 0.950 . S
C364 H356 0.950 . S
C364 C365 1.386 . S
C364 C366 1.391 . S
C365 C364 1.386 . S
C365 C369 1.393 . S
C366 H358 0.950 . S
C366 C364 1.391 . S
C366 C367 1.400 . S
C367 C366 1.400 . S
C367 C368 1.398 . S
C367 C373 1.491 . S
C368 H359 0.950 . S
C368 C367 1.398 . S
C368 C369 1.391 . S
C369 H357 0.950 . S
C369 C365 1.393 . S
C369 C368 1.391 . S
C370 H360 0.950 . S
C370 C371 1.386 . S
C370 C372 1.391 . S
C371 C370 1.386 . S
C371 C375 1.393 . S
C372 H361 0.950 . S
C372 C370 1.391 . S
C372 C373 1.400 . S
C373 C367 1.491 . S
C373 C372 1.400 . S
C373 C374 1.398 . S
C374 H362 0.950 . S
C374 C373 1.398 . S
C374 C375 1.391 . S
C375 H363 0.950 . S
C375 C371 1.393 . S
C375 C374 1.391 . S
H376 C384 0.950 . S
H377 C389 0.950 . S
H378 C386 0.950 . S
H379 C388 0.950 . S
H380 C390 0.950 . S
H381 C392 0.950 . S
H382 C394 0.950 . S
H383 C395 0.950 . S
C384 H376 0.950 . S
C384 C385 1.386 . S
C384 C386 1.391 . S
C385 C384 1.386 . S
C385 C389 1.393 . S
C386 H378 0.950 . S
C386 C384 1.391 . S
C386 C387 1.400 . S
C387 C386 1.400 . S
C387 C388 1.398 . S
C387 C393 1.491 . S
C388 H379 0.950 . S
C388 C387 1.398 . S
C388 C389 1.391 . S
C389 H377 0.950 . S
C389 C385 1.393 . S
C389 C388 1.391 . S
C390 H380 0.950 . S
C390 C391 1.386 . S
C390 C392 1.391 . S
C391 C390 1.386 . S
C391 C395 1.393 . S
C392 H381 0.950 . S
C392 C390 1.391 . S
C392 C393 1.400 . S
C393 C387 1.491 . S
C393 C392 1.400 . S
C393 C394 1.398 . S
C394 H382 0.950 . S
C394 C393 1.398 . S
C394 C395 1.391 . S
C395 H383 0.950 . S
C395 C391 1.393 . S
C395 C394 1.391 . S
H396 C404 0.950 . S
H397 C409 0.950 . S
H398 C406 0.950 . S
H399 C408 0.950 . S
H400 C410 0.950 . S
H401 C412 0.950 . S
H402 C414 0.950 . S
H403 C415 0.950 . S
C404 H396 0.950 . S
C404 C405 1.386 . S
C404 C406 1.391 . S
C405 C404 1.386 . S
C405 C409 1.393 . S
C406 H398 0.950 . S
C406 C404 1.391 . S
C406 C407 1.400 . S
C407 C406 1.400 . S
C407 C408 1.398 . S
C407 C413 1.491 . S
C408 H399 0.950 . S
C408 C407 1.398 . S
C408 C409 1.391 . S
C409 H397 0.950 . S
C409 C405 1.393 . S
C409 C408 1.391 . S
C410 H400 0.950 . S
C410 C411 1.386 . S
C410 C412 1.391 . S
C411 C410 1.386 . S
C411 C415 1.393 . S
C412 H401 0.950 . S
C412 C410 1.391 . S
C412 C413 1.400 . S
C413 C407 1.491 . S
C413 C412 1.400 . S
C413 C414 1.398 . S
C414 H402 0.950 . S
C414 C413 1.398 . S
C414 C415 1.391 . S
C415 H403 0.950 . S
C415 C411 1.393 . S
C415 C414 1.391 . S
H416 C424 0.950 . S
H417 C429 0.950 . S
H418 C426 0.950 . S
H419 C428 0.950 . S
H420 C430 0.950 . S
H421 C432 0.950 . S
H422 C434 0.950 . S
H423 C435 0.950 . S
C424 H416 0.950 . S
C424 C425 1.386 . S
C424 C426 1.391 . S
C425 C424 1.386 . S
C425 C429 1.393 . S
C426 H418 0.950 . S
C426 C424 1.391 . S
C426 C427 1.400 . S
C427 C426 1.400 . S
C427 C428 1.398 . S
C427 C433 1.491 . S
C428 H419 0.950 . S
C428 C427 1.398 . S
C428 C429 1.391 . S
C429 H417 0.950 . S
C429 C425 1.393 . S
C429 C428 1.391 . S
C430 H420 0.950 . S
C430 C431 1.386 . S
C430 C432 1.391 . S
C431 C430 1.386 . S
C431 C435 1.393 . S
C432 H421 0.950 . S
C432 C430 1.391 . S
C432 C433 1.400 . S
C433 C427 1.491 . S
C433 C432 1.400 . S
C433 C434 1.398 . S
C434 H422 0.950 . S
C434 C433 1.398 . S
C434 C435 1.391 . S
C435 H423 0.950 . S
C435 C431 1.393 . S
C435 C434 1.391 . S
H436 C444 0.950 . S
H437 C449 0.950 . S
H438 C446 0.950 . S
H439 C448 0.950 . S
H440 C450 0.950 . S
H441 C452 0.950 . S
H442 C454 0.950 . S
H443 C455 0.950 . S
C444 H436 0.950 . S
C444 C445 1.386 . S
C444 C446 1.391 . S
C445 C444 1.386 . S
C445 C449 1.393 . S
C446 H438 0.950 . S
C446 C444 1.391 . S
C446 C447 1.400 . S
C447 C446 1.400 . S
C447 C448 1.398 . S
C447 C453 1.491 . S
C448 H439 0.950 . S
C448 C447 1.398 . S
C448 C449 1.391 . S
C449 H437 0.950 . S
C449 C445 1.393 . S
C449 C448 1.391 . S
C450 H440 0.950 . S
C450 C451 1.386 . S
C450 C452 1.391 . S
C451 C450 1.386 . S
C451 C455 1.393 . S
C452 H441 0.950 . S
C452 C450 1.391 . S
C452 C453 1.400 . S
C453 C447 1.491 . S
C453 C452 1.400 . S
C453 C454 1.398 . S
C454 H442 0.950 . S
C454 C453 1.398 . S
C454 C455 1.391 . S
C455 H443 0.950 . S
C455 C451 1.393 . S
C455 C454 1.391 . S
H456 C464 0.950 . S
H457 C469 0.950 . S
H458 C466 0.950 . S
H459 C468 0.950 . S
H460 C470 0.950 . S
H461 C472 0.950 . S
H462 C474 0.950 . S
H463 C475 0.950 . S
C464 H456 0.950 . S
C464 C465 1.386 . S
C464 C466 1.391 . S
C465 C464 1.386 . S
C465 C469 1.393 . S
C466 H458 0.950 . S
C466 C464 1.391 . S
C466 C467 1.400 . S
C467 C466 1.400 . S
C467 C468 1.398 . S
C467 C473 1.491 . S
C468 H459 0.950 . S
C468 C467 1.398 . S
C468 C469 1.391 . S
C469 H457 0.950 . S
C469 C465 1.393 . S
C469 C468 1.391 . S
C470 H460 0.950 . S
C470 C471 1.386 . S
C470 C472 1.391 . S
C471 C470 1.386 . S
C471 C475 1.393 . S
C472 H461 0.950 . S
C472 C470 1.391 . S
C472 C473 1.400 . S
C473 C467 1.491 . S
C473 C472 1.400 . S
C473 C474 1.398 . S
C474 H462 0.950 . S
C474 C473 1.398 . S
C474 C475 1.391 . S
C475 H463 0.950 . S
C475 C471 1.393 . S
C475 C474 1.391 . S
H476 C484 0.950 . S
H477 C489 0.950 . S
H478 C486 0.950 . S
H479 C488 0.950 . S
H480 C490 0.950 . S
H481 C492 0.950 . S
H482 C494 0.950 . S
H483 C495 0.950 . S
C484 H476 0.950 . S
C484 C485 1.386 . S
C484 C486 1.391 . S
C485 C484 1.386 . S
C485 C489 1.393 . S
C486 H478 0.950 . S
C486 C484 1.391 . S
C486 C487 1.400 . S
C487 C486 1.400 . S
C487 C488 1.398 . S
C487 C493 1.491 . S
C488 H479 0.950 . S
C488 C487 1.398 . S
C488 C489 1.391 . S
C489 H477 0.950 . S
C489 C485 1.393 . S
C489 C488 1.391 . S
C490 H480 0.950 . S
C490 C491 1.386 . S
C490 C492 1.391 . S
C491 C490 1.386 . S
C491 C495 1.393 . S
C492 H481 0.950 . S
C492 C490 1.391 . S
C492 C493 1.400 . S
C493 C487 1.491 . S
C493 C492 1.400 . S
C493 C494 1.398 . S
C494 H482 0.950 . S
C494 C493 1.398 . S
C494 C495 1.391 . S
C495 H483 0.950 . S
C495 C491 1.393 . S
C495 C494 1.391 . S
H496 C504 0.950 . S
H497 C509 0.950 . S
H498 C506 0.950 . S
H499 C508 0.950 . S
H500 C510 0.950 . S
H501 C512 0.950 . S
H502 C514 0.950 . S
H503 C515 0.950 . S
C504 H496 0.950 . S
C504 C505 1.386 . S
C504 C506 1.391 . S
C505 C504 1.386 . S
C505 C509 1.393 . S
C506 H498 0.950 . S
C506 C504 1.391 . S
C506 C507 1.400 . S
C507 C506 1.400 . S
C507 C508 1.398 . S
C507 C513 1.491 . S
C508 H499 0.950 . S
C508 C507 1.398 . S
C508 C509 1.391 . S
C509 H497 0.950 . S
C509 C505 1.393 . S
C509 C508 1.391 . S
C510 H500 0.950 . S
C510 C511 1.386 . S
C510 C512 1.391 . S
C511 C510 1.386 . S
C511 C515 1.393 . S
C512 H501 0.950 . S
C512 C510 1.391 . S
C512 C513 1.400 . S
C513 C507 1.491 . S
C513 C512 1.400 . S
C513 C514 1.398 . S
C514 H502 0.950 . S
C514 C513 1.398 . S
C514 C515 1.391 . S
C515 H503 0.950 . S
C515 C511 1.393 . S
C515 C514 1.391 . S
H516 C524 0.950 . S
H517 C529 0.950 . S
H518 C526 0.950 . S
H519 C528 0.950 . S
H520 C530 0.950 . S
H521 C532 0.950 . S
H522 C534 0.950 . S
H523 C535 0.950 . S
C524 H516 0.950 . S
C524 C525 1.386 . S
C524 C526 1.391 . S
C525 C524 1.386 . S
C525 C529 1.393 . S
C526 H518 0.950 . S
C526 C524 1.391 . S
C526 C527 1.400 . S
C527 C526 1.400 . S
C527 C528 1.398 . S
C527 C533 1.491 . S
C528 H519 0.950 . S
C528 C527 1.398 . S
C528 C529 1.391 . S
C529 H517 0.950 . S
C529 C525 1.393 . S
C529 C528 1.391 . S
C530 H520 0.950 . S
C530 C531 1.386 . S
C530 C532 1.391 . S
C531 C530 1.386 . S
C531 C535 1.393 . S
C532 H521 0.950 . S
C532 C530 1.391 . S
C532 C533 1.400 . S
C533 C527 1.491 . S
C533 C532 1.400 . S
C533 C534 1.398 . S
C534 H522 0.950 . S
C534 C533 1.398 . S
C534 C535 1.391 . S
C535 H523 0.950 . S
C535 C531 1.393 . S
C535 C534 1.391 . S
H536 C544 0.950 . S
H537 C549 0.950 . S
H538 C546 0.950 . S
H539 C548 0.950 . S
H540 C550 0.950 . S
H541 C552 0.950 . S
H542 C554 0.950 . S
H543 C555 0.950 . S
C544 H536 0.950 . S
C544 C545 1.386 . S
C544 C546 1.391 . S
C545 C544 1.386 . S
C545 C549 1.393 . S
C546 H538 0.950 . S
C546 C544 1.391 . S
C546 C547 1.400 . S
C547 C546 1.400 . S
C547 C548 1.398 . S
C547 C553 1.491 . S
C548 H539 0.950 . S
C548 C547 1.398 . S
C548 C549 1.391 . S
C549 H537 0.950 . S
C549 C545 1.393 . S
C549 C548 1.391 . S
C550 H540 0.950 . S
C550 C551 1.386 . S
C550 C552 1.391 . S
C551 C550 1.386 . S
C551 C555 1.393 . S
C552 H541 0.950 . S
C552 C550 1.391 . S
C552 C553 1.400 . S
C553 C547 1.491 . S
C553 C552 1.400 . S
C553 C554 1.398 . S
C554 H542 0.950 . S
C554 C553 1.398 . S
C554 C555 1.391 . S
C555 H543 0.950 . S
C555 C551 1.393 . S
C555 C554 1.391 . S
H556 C564 0.950 . S
H557 C569 0.950 . S
H558 C566 0.950 . S
H559 C568 0.950 . S
H560 C570 0.950 . S
H561 C572 0.950 . S
H562 C574 0.950 . S
H563 C575 0.950 . S
C564 H556 0.950 . S
C564 C565 1.386 . S
C564 C566 1.391 . S
C565 C564 1.386 . S
C565 C569 1.393 . S
C566 H558 0.950 . S
C566 C564 1.391 . S
C566 C567 1.400 . S
C567 C566 1.400 . S
C567 C568 1.398 . S
C567 C573 1.491 . S
C568 H559 0.950 . S
C568 C567 1.398 . S
C568 C569 1.391 . S
C569 H557 0.950 . S
C569 C565 1.393 . S
C569 C568 1.391 . S
C570 H560 0.950 . S
C570 C571 1.386 . S
C570 C572 1.391 . S
C571 C570 1.386 . S
C571 C575 1.393 . S
C572 H561 0.950 . S
C572 C570 1.391 . S
C572 C573 1.400 . S
C573 C567 1.491 . S
C573 C572 1.400 . S
C573 C574 1.398 . S
C574 H562 0.950 . S
C574 C573 1.398 . S
C574 C575 1.391 . S
C575 H563 0.950 . S
C575 C571 1.393 . S
C575 C574 1.391 . S
H576 C584 0.950 . S
H577 C589 0.950 . S
H578 C586 0.950 . S
H579 C588 0.950 . S
H580 C590 0.950 . S
H581 C592 0.950 . S
H582 C594 0.950 . S
H583 C595 0.950 . S
C584 H576 0.950 . S
C584 C585 1.386 . S
C584 C586 1.391 . S
C585 C584 1.386 . S
C585 C589 1.393 . S
C586 H578 0.950 . S
C586 C584 1.391 . S
C586 C587 1.400 . S
C587 C586 1.400 . S
C587 C588 1.398 . S
C587 C593 1.491 . S
C588 H579 0.950 . S
C588 C587 1.398 . S
C588 C589 1.391 . S
C589 H577 0.950 . S
C589 C585 1.393 . S
C589 C588 1.391 . S
C590 H580 0.950 . S
C590 C591 1.386 . S
C590 C592 1.391 . S
C591 C590 1.386 . S
C591 C595 1.393 . S
C592 H581 0.950 . S
C592 C590 1.391 . S
C592 C593 1.400 . S
C593 C587 1.491 . S
C593 C592 1.400 . S
C593 C594 1.398 . S
C594 H582 0.950 . S
C594 C593 1.398 . S
C594 C595 1.391 . S
C595 H583 0.950 . S
C595 C591 1.393 . S
C595 C594 1.391 . S
H596 C604 0.950 . S
H597 C609 0.950 . S
H598 C606 0.950 . S
H599 C608 0.950 . S
H600 C610 0.950 . S
H601 C612 0.950 . S
H602 C614 0.950 . S
H603 C615 0.950 . S
C604 H596 0.950 . S
C604 C605 1.386 . S
C604 C606 1.391 . S
C605 C604 1.386 . S
C605 C609 1.393 . S
C606 H598 0.950 . S
C606 C604 1.391 . S
C606 C607 1.400 . S
C607 C606 1.400 . S
C607 C608 1.398 . S
C607 C613 1.491 . S
C608 H599 0.950 . S
C608 C607 1.398 . S
C608 C609 1.391 . S
C609 H597 0.950 . S
C609 C605 1.393 . S
C609 C608 1.391 . S
C610 H600 0.950 . S
C610 C611 1.386 . S
C610 C612 1.391 . S
C611 C610 1.386 . S
C611 C615 1.393 . S
C612 H601 0.950 . S
C612 C610 1.391 . S
C612 C613 1.400 . S
C613 C607 1.491 . S
C613 C612 1.400 . S
C613 C614 1.398 . S
C614 H602 0.950 . S
C614 C613 1.398 . S
C614 C615 1.391 . S
C615 H603 0.950 . S
C615 C611 1.393 . S
C615 C614 1.391 . S
H616 C624 0.950 . S
H617 C629 0.950 . S
H618 C626 0.950 . S
H619 C628 0.950 . S
H620 C630 0.950 . S
H621 C632 0.950 . S
H622 C634 0.950 . S
H623 C635 0.950 . S
C624 H616 0.950 . S
C624 C625 1.386 . S
C624 C626 1.391 . S
C625 C624 1.386 . S
C625 C629 1.393 . S
C626 H618 0.950 . S
C626 C624 1.391 . S
C626 C627 1.400 . S
C627 C626 1.400 . S
C627 C628 1.398 . S
C627 C633 1.491 . S
C628 H619 0.950 . S
C628 C627 1.398 . S
C628 C629 1.391 . S
C629 H617 0.950 . S
C629 C625 1.393 . S
C629 C628 1.391 . S
C630 H620 0.950 . S
C630 C631 1.386 . S
C630 C632 1.391 . S
C631 C630 1.386 . S
C631 C635 1.393 . S
C632 H621 0.950 . S
C632 C630 1.391 . S
C632 C633 1.400 . S
C633 C627 1.491 . S
C633 C632 1.400 . S
C633 C634 1.398 . S
C634 H622 0.950 . S
C634 C633 1.398 . S
C634 C635 1.391 . S
C635 H623 0.950 . S
C635 C631 1.393 . S
C635 C634 1.391 . S
H636 C644 0.950 . S
H637 C649 0.950 . S
H638 C646 0.950 . S
H639 C648 0.950 . S
H640 C650 0.950 . S
H641 C652 0.950 . S
H642 C654 0.950 . S
H643 C655 0.950 . S
C644 H636 0.950 . S
C644 C645 1.386 . S
C644 C646 1.391 . S
C645 C644 1.386 . S
C645 C649 1.393 . S
C646 H638 0.950 . S
C646 C644 1.391 . S
C646 C647 1.400 . S
C647 C646 1.400 . S
C647 C648 1.398 . S
C647 C653 1.491 . S
C648 H639 0.950 . S
C648 C647 1.398 . S
C648 C649 1.391 . S
C649 H637 0.950 . S
C649 C645 1.393 . S
C649 C648 1.391 . S
C650 H640 0.950 . S
C650 C651 1.386 . S
C650 C652 1.391 . S
C651 C650 1.386 . S
C651 C655 1.393 . S
C652 H641 0.950 . S
C652 C650 1.391 . S
C652 C653 1.400 . S
C653 C647 1.491 . S
C653 C652 1.400 . S
C653 C654 1.398 . S
C654 H642 0.950 . S
C654 C653 1.398 . S
C654 C655 1.391 . S
C655 H643 0.950 . S
C655 C651 1.393 . S
C655 C654 1.391 . S
H656 C664 0.950 . S
H657 C669 0.950 . S
H658 C666 0.950 . S
H659 C668 0.950 . S
H660 C670 0.950 . S
H661 C672 0.950 . S
H662 C674 0.950 . S
H663 C675 0.950 . S
C664 H656 0.950 . S
C664 C665 1.386 . S
C664 C666 1.391 . S
C665 C664 1.386 . S
C665 C669 1.393 . S
C666 H658 0.950 . S
C666 C664 1.391 . S
C666 C667 1.400 . S
C667 C666 1.400 . S
C667 C668 1.398 . S
C667 C673 1.491 . S
C668 H659 0.950 . S
C668 C667 1.398 . S
C668 C669 1.391 . S
C669 H657 0.950 . S
C669 C665 1.393 . S
C669 C668 1.391 . S
C670 H660 0.950 . S
C670 C671 1.386 . S
C670 C672 1.391 . S
C671 C670 1.386 . S
C671 C675 1.393 . S
C672 H661 0.950 . S
C672 C670 1.391 . S
C672 C673 1.400 . S
C673 C667 1.491 . S
C673 C672 1.400 . S
C673 C674 1.398 . S
C674 H662 0.950 . S
C674 C673 1.398 . S
C674 C675 1.391 . S
C675 H663 0.950 . S
C675 C671 1.393 . S
C675 C674 1.391 . S
H676 C684 0.950 . S
H677 C689 0.950 . S
H678 C686 0.950 . S
H679 C688 0.950 . S
H680 C690 0.950 . S
H681 C692 0.950 . S
H682 C694 0.950 . S
H683 C695 0.950 . S
C684 H676 0.950 . S
C684 C685 1.386 . S
C684 C686 1.391 . S
C685 C684 1.386 . S
C685 C689 1.393 . S
C686 H678 0.950 . S
C686 C684 1.391 . S
C686 C687 1.400 . S
C687 C686 1.400 . S
C687 C688 1.398 . S
C687 C693 1.491 . S
C688 H679 0.950 . S
C688 C687 1.398 . S
C688 C689 1.391 . S
C689 H677 0.950 . S
C689 C685 1.393 . S
C689 C688 1.391 . S
C690 H680 0.950 . S
C690 C691 1.386 . S
C690 C692 1.391 . S
C691 C690 1.386 . S
C691 C695 1.393 . S
C692 H681 0.950 . S
C692 C690 1.391 . S
C692 C693 1.400 . S
C693 C687 1.491 . S
C693 C692 1.400 . S
C693 C694 1.398 . S
C694 H682 0.950 . S
C694 C693 1.398 . S
C694 C695 1.391 . S
C695 H683 0.950 . S
C695 C691 1.393 . S
C695 C694 1.391 . S
H696 C704 0.950 . S
H697 C709 0.950 . S
H698 C706 0.950 . S
H699 C708 0.950 . S
H700 C710 0.950 . S
H701 C712 0.950 . S
H702 C714 0.950 . S
H703 C715 0.950 . S
C704 H696 0.950 . S
C704 C705 1.386 . S
C704 C706 1.391 . S
C705 C704 1.386 . S
C705 C709 1.393 . S
C706 H698 0.950 . S
C706 C704 1.391 . S
C706 C707 1.400 . S
C707 C706 1.400 . S
C707 C708 1.398 . S
C707 C713 1.491 . S
C708 H699 0.950 . S
C708 C707 1.398 . S
C708 C709 1.391 . S
C709 H697 0.950 . S
C709 C705 1.393 . S
C709 C708 1.391 . S
C710 H700 0.950 . S
C710 C711 1.386 . S
C710 C712 1.391 . S
C711 C710 1.386 . S
C711 C715 1.393 . S
C712 H701 0.950 . S
C712 C710 1.391 . S
C712 C713 1.400 . S
C713 C707 1.491 . S
C713 C712 1.400 . S
C713 C714 1.398 . S
C714 H702 0.950 . S
C714 C713 1.398 . S
C714 C715 1.391 . S
C715 H703 0.950 . S
C715 C711 1.393 . S
C715 C714 1.391 . S
H716 C724 0.950 . S
H717 C729 0.950 . S
H718 C726 0.950 . S
H719 C728 0.950 . S
H720 C730 0.950 . S
H721 C732 0.950 . S
H722 C734 0.950 . S
H723 C735 0.950 . S
C724 H716 0.950 . S
C724 C725 1.386 . S
C724 C726 1.391 . S
C725 C724 1.386 . S
C725 C729 1.393 . S
C726 H718 0.950 . S
C726 C724 1.391 . S
C726 C727 1.400 . S
C727 C726 1.400 . S
C727 C728 1.398 . S
C727 C733 1.491 . S
C728 H719 0.950 . S
C728 C727 1.398 . S
C728 C729 1.391 . S
C729 H717 0.950 . S
C729 C725 1.393 . S
C729 C728 1.391 . S
C730 H720 0.950 . S
C730 C731 1.386 . S
C730 C732 1.391 . S
C731 C730 1.386 . S
C731 C735 1.393 . S
C732 H721 0.950 . S
C732 C730 1.391 . S
C732 C733 1.400 . S
C733 C727 1.491 . S
C733 C732 1.400 . S
C733 C734 1.398 . S
C734 H722 0.950 . S
C734 C733 1.398 . S
C734 C735 1.391 . S
C735 H723 0.950 . S
C735 C731 1.393 . S
C735 C734 1.391 . S
H736 C744 0.950 . S
H737 C749 0.950 . S
H738 C746 0.950 . S
H739 C748 0.950 . S
H740 C750 0.950 . S
H741 C752 0.950 . S
H742 C754 0.950 . S
H743 C755 0.950 . S
C744 H736 0.950 . S
C744 C745 1.386 . S
C744 C746 1.391 . S
C745 C744 1.386 . S
C745 C749 1.393 . S
C746 H738 0.950 . S
C746 C744 1.391 . S
C746 C747 1.400 . S
C747 C746 1.400 . S
C747 C748 1.398 . S
C747 C753 1.491 . S
C748 H739 0.950 . S
C748 C747 1.398 . S
C748 C749 1.391 . S
C749 H737 0.950 . S
C749 C745 1.393 . S
C749 C748 1.391 . S
C750 H740 0.950 . S
C750 C751 1.386 . S
C750 C752 1.391 . S
C751 C750 1.386 . S
C751 C755 1.393 . S
C752 H741 0.950 . S
C752 C750 1.391 . S
C752 C753 1.400 . S
C753 C747 1.491 . S
C753 C752 1.400 . S
C753 C754 1.398 . S
C754 H742 0.950 . S
C754 C753 1.398 . S
C754 C755 1.391 . S
C755 H743 0.950 . S
C755 C751 1.393 . S
C755 C754 1.391 . S
H756 C764 0.950 . S
H757 C769 0.950 . S
H758 C766 0.950 . S
H759 C768 0.950 . S
H760 C770 0.950 . S
H761 C772 0.950 . S
H762 C774 0.950 . S
H763 C775 0.950 . S
C764 H756 0.950 . S
C764 C765 1.386 . S
C764 C766 1.391 . S
C765 C764 1.386 . S
C765 C769 1.393 . S
C766 H758 0.950 . S
C766 C764 1.391 . S
C766 C767 1.400 . S
C767 C766 1.400 . S
C767 C768 1.398 . S
C767 C773 1.491 . S
C768 H759 0.950 . S
C768 C767 1.398 . S
C768 C769 1.391 . S
C769 H757 0.950 . S
C769 C765 1.393 . S
C769 C768 1.391 . S
C770 H760 0.950 . S
C770 C771 1.386 . S
C770 C772 1.391 . S
C771 C770 1.386 . S
C771 C775 1.393 . S
C772 H761 0.950 . S
C772 C770 1.391 . S
C772 C773 1.400 . S
C773 C767 1.491 . S
C773 C772 1.400 . S
C773 C774 1.398 . S
C774 H762 0.950 . S
C774 C773 1.398 . S
C774 C775 1.391 . S
C775 H763 0.950 . S
C775 C771 1.393 . S
C775 C774 1.391 . S
H776 C784 0.950 . S
H777 C789 0.950 . S
H778 C786 0.950 . S
H779 C788 0.950 . S
H780 C790 0.950 . S
H781 C792 0.950 . S
H782 C794 0.950 . S
H783 C795 0.950 . S
C784 H776 0.950 . S
C784 C785 1.386 . S
C784 C786 1.391 . S
C785 C784 1.386 . S
C785 C789 1.393 . S
C786 H778 0.950 . S
C786 C784 1.391 . S
C786 C787 1.400 . S
C787 C786 1.400 . S
C787 C788 1.398 . S
C787 C793 1.491 . S
C788 H779 0.950 . S
C788 C787 1.398 . S
C788 C789 1.391 . S
C789 H777 0.950 . S
C789 C785 1.393 . S
C789 C788 1.391 . S
C790 H780 0.950 . S
C790 C791 1.386 . S
C790 C792 1.391 . S
C791 C790 1.386 . S
C791 C795 1.393 . S
C792 H781 0.950 . S
C792 C790 1.391 . S
C792 C793 1.400 . S
C793 C787 1.491 . S
C793 C792 1.400 . S
C793 C794 1.398 . S
C794 H782 0.950 . S
C794 C793 1.398 . S
C794 C795 1.391 . S
C795 H783 0.950 . S
C795 C791 1.393 . S
C795 C794 1.391 . S
H796 C804 0.950 . S
H797 C809 0.950 . S
H798 C806 0.950 . S
H799 C808 0.950 . S
H800 C810 0.950 . S
H801 C812 0.950 . S
H802 C814 0.950 . S
H803 C815 0.950 . S
C804 H796 0.950 . S
C804 C805 1.386 . S
C804 C806 1.391 . S
C805 C804 1.386 . S
C805 C809 1.393 . S
C806 H798 0.950 . S
C806 C804 1.391 . S
C806 C807 1.400 . S
C807 C806 1.400 . S
C807 C808 1.398 . S
C807 C813 1.491 . S
C808 H799 0.950 . S
C808 C807 1.398 . S
C808 C809 1.391 . S
C809 H797 0.950 . S
C809 C805 1.393 . S
C809 C808 1.391 . S
C810 H800 0.950 . S
C810 C811 1.386 . S
C810 C812 1.391 . S
C811 C810 1.386 . S
C811 C815 1.393 . S
C812 H801 0.950 . S
C812 C810 1.391 . S
C812 C813 1.400 . S
C813 C807 1.491 . S
C813 C812 1.400 . S
C813 C814 1.398 . S
C814 H802 0.950 . S
C814 C813 1.398 . S
C814 C815 1.391 . S
C815 H803 0.950 . S
C815 C811 1.393 . S
C815 C814 1.391 . S
H816 C824 0.950 . S
H817 C829 0.950 . S
H818 C826 0.950 . S
H819 C828 0.950 . S
H820 C830 0.950 . S
H821 C832 0.950 . S
H822 C834 0.950 . S
H823 C835 0.950 . S
C824 H816 0.950 . S
C824 C825 1.386 . S
C824 C826 1.391 . S
C825 C824 1.386 . S
C825 C829 1.393 . S
C826 H818 0.950 . S
C826 C824 1.391 . S
C826 C827 1.400 . S
C827 C826 1.400 . S
C827 C828 1.398 . S
C827 C833 1.491 . S
C828 H819 0.950 . S
C828 C827 1.398 . S
C828 C829 1.391 . S
C829 H817 0.950 . S
C829 C825 1.393 . S
C829 C828 1.391 . S
C830 H820 0.950 . S
C830 C831 1.386 . S
C830 C832 1.391 . S
C831 C830 1.386 . S
C831 C835 1.393 . S
C832 H821 0.950 . S
C832 C830 1.391 . S
C832 C833 1.400 . S
C833 C827 1.491 . S
C833 C832 1.400 . S
C833 C834 1.398 . S
C834 H822 0.950 . S
C834 C833 1.398 . S
C834 C835 1.391 . S
C835 H823 0.950 . S
C835 C831 1.393 . S
C835 C834 1.391 . S
H836 C844 0.950 . S
H837 C849 0.950 . S
H838 C846 0.950 . S
H839 C848 0.950 . S
H840 C850 0.950 . S
H841 C852 0.950 . S
H842 C854 0.950 . S
H843 C855 0.950 . S
C844 H836 0.950 . S
C844 C845 1.386 . S
C844 C846 1.391 . S
C845 C844 1.386 . S
C845 C849 1.393 . S
C846 H838 0.950 . S
C846 C844 1.391 . S
C846 C847 1.400 . S
C847 C846 1.400 . S
C847 C848 1.398 . S
C847 C853 1.491 . S
C848 H839 0.950 . S
C848 C847 1.398 . S
C848 C849 1.391 . S
C849 H837 0.950 . S
C849 C845 1.393 . S
C849 C848 1.391 . S
C850 H840 0.950 . S
C850 C851 1.386 . S
C850 C852 1.391 . S
C851 C850 1.386 . S
C851 C855 1.393 . S
C852 H841 0.950 . S
C852 C850 1.391 . S
C852 C853 1.400 . S
C853 C847 1.491 . S
C853 C852 1.400 . S
C853 C854 1.398 . S
C854 H842 0.950 . S
C854 C853 1.398 . S
C854 C855 1.391 . S
C855 H843 0.950 . S
C855 C851 1.393 . S
C855 C854 1.391 . S
H856 C864 0.950 . S
H857 C869 0.950 . S
H858 C866 0.950 . S
H859 C868 0.950 . S
H860 C870 0.950 . S
H861 C872 0.950 . S
H862 C874 0.950 . S
H863 C875 0.950 . S
C864 H856 0.950 . S
C864 C865 1.386 . S
C864 C866 1.391 . S
C865 C864 1.386 . S
C865 C869 1.393 . S
C866 H858 0.950 . S
C866 C864 1.391 . S
C866 C867 1.400 . S
C867 C866 1.400 . S
C867 C868 1.398 . S
C867 C873 1.491 . S
C868 H859 0.950 . S
C868 C867 1.398 . S
C868 C869 1.391 . S
C869 H857 0.950 . S
C869 C865 1.393 . S
C869 C868 1.391 . S
C870 H860 0.950 . S
C870 C871 1.386 . S
C870 C872 1.391 . S
C871 C870 1.386 . S
C871 C875 1.393 . S
C872 H861 0.950 . S
C872 C870 1.391 . S
C872 C873 1.400 . S
C873 C867 1.491 . S
C873 C872 1.400 . S
C873 C874 1.398 . S
C874 H862 0.950 . S
C874 C873 1.398 . S
C874 C875 1.391 . S
C875 H863 0.950 . S
C875 C871 1.393 . S
C875 C874 1.391 . S
H876 C884 0.950 . S
H877 C889 0.950 . S
H878 C886 0.950 . S
H879 C888 0.950 . S
H880 C890 0.950 . S
H881 C892 0.950 . S
H882 C894 0.950 . S
H883 C895 0.950 . S
C884 H876 0.950 . S
C884 C885 1.386 . S
C884 C886 1.391 . S
C885 C884 1.386 . S
C885 C889 1.393 . S
C886 H878 0.950 . S
C886 C884 1.391 . S
C886 C887 1.400 . S
C887 C886 1.400 . S
C887 C888 1.398 . S
C887 C893 1.491 . S
C888 H879 0.950 . S
C888 C887 1.398 . S
C888 C889 1.391 . S
C889 H877 0.950 . S
C889 C885 1.393 . S
C889 C888 1.391 . S
C890 H880 0.950 . S
C890 C891 1.386 . S
C890 C892 1.391 . S
C891 C890 1.386 . S
C891 C895 1.393 . S
C892 H881 0.950 . S
C892 C890 1.391 . S
C892 C893 1.400 . S
C893 C887 1.491 . S
C893 C892 1.400 . S
C893 C894 1.398 . S
C894 H882 0.950 . S
C894 C893 1.398 . S
C894 C895 1.391 . S
C895 H883 0.950 . S
C895 C891 1.393 . S
C895 C894 1.391 . S
C271 C145 1.507 . S
C265 C7 1.458 . S
C291 C171 1.503 . S
C285 C32 1.441 . S
C311 C185 1.499 . S
C305 C44 1.435 . S
C331 C187 1.503 . S
C325 C62 1.458 . S
C345 C88 1.458 . S
C351 C184 1.507 . S
C371 C186 1.505 . S
C365 C106 1.448 . S
C391 C144 1.502 . S
C385 C124 1.431 . S
C411 C170 1.504 . S
C405 C140 1.442 . S
C431 C172 1.502 . S
C425 C142 1.441 . S
C451 C198 1.501 . S
C445 C86 1.437 . S
C471 C156 1.508 . S
C465 C104 1.462 . S
C491 C158 1.503 . S
C485 C122 1.452 . S
C511 C157 1.501 . S
C505 C34 1.437 . S
C531 C159 1.502 . S
C525 C43 1.440 . S
C551 C173 1.503 . S
C545 C61 1.456 . S
C571 C199 1.495 . S
C565 C8 1.433 . S
C591 C201 1.505 . S
C585 C133 1.445 . S
C605 C80 1.444 . S
C611 C227 1.504 . S
C625 C98 1.461 . S
C631 C240 1.504 . S
C645 C116 1.438 . S
C651 C243 1.499 . S
C665 C25 1.430 . S
C671 C241 1.502 . S
C685 C52 1.431 . S
C691 C242 1.502 . S
C705 C70 1.432 . S
C711 C200 1.501 . S
C731 C226 1.508 . S
C725 C14 1.463 . S
C751 C229 1.504 . S
C745 C16 1.452 . S
C765 C26 1.456 . S
C771 C254 1.503 . S
C785 C50 1.445 . S
C791 C212 1.500 . S
C805 C68 1.440 . S
C811 C214 1.502 . S
C831 C213 1.501 . S
C825 C79 1.440 . S
C851 C215 1.507 . S
C845 C97 1.459 . S
C865 C115 1.457 . S
C871 C228 1.505 . S
C891 C255 1.502 . S
C885 C134 1.458 . S
