# Generated by pormake.
# Topology apo, (3,6)-cn, num edge types: 1
# Building blocks:
#     Node 0, Type 0, BuildingBlock: ESEHIV_clean_linker_0, # of connection points: 3
#     Node 1, Type 0, BuildingBlock: ESEHIV_clean_linker_0, # of connection points: 3
#     Node 2, Type 0, BuildingBlock: ESEHIV_clean_linker_0, # of connection points: 3
#     Node 3, Type 0, BuildingBlock: ESEHIV_clean_linker_0, # of connection points: 3
#     Node 4, Type 0, BuildingBlock: ESEHIV_clean_linker_0, # of connection points: 3
#     Node 5, Type 0, BuildingBlock: ESEHIV_clean_linker_0, # of connection points: 3
#     Node 6, Type 0, BuildingBlock: ESEHIV_clean_linker_0, # of connection points: 3
#     Node 7, Type 0, BuildingBlock: ESEHIV_clean_linker_0, # of connection points: 3
#     Node 8, Type 1, BuildingBlock: MIDCAF_clean_sbu_0, # of connection points: 6
#     Node 9, Type 1, BuildingBlock: MIDCAF_clean_sbu_0, # of connection points: 6
#     Node 10, Type 1, BuildingBlock: MIDCAF_clean_sbu_0, # of connection points: 6
#     Node 11, Type 1, BuildingBlock: MIDCAF_clean_sbu_0, # of connection points: 6
#     Edge 12, Type (0, 1), BuildingBlock: CIFDUS_clean_linker_0, # of connection points: 2
#     Edge 13, Type (0, 1), BuildingBlock: CIFDUS_clean_linker_0, # of connection points: 2
#     Edge 14, Type (0, 1), BuildingBlock: CIFDUS_clean_linker_0, # of connection points: 2
#     Edge 15, Type (0, 1), BuildingBlock: CIFDUS_clean_linker_0, # of connection points: 2
#     Edge 16, Type (0, 1), BuildingBlock: CIFDUS_clean_linker_0, # of connection points: 2
#     Edge 17, Type (0, 1), BuildingBlock: CIFDUS_clean_linker_0, # of connection points: 2
#     Edge 18, Type (0, 1), BuildingBlock: CIFDUS_clean_linker_0, # of connection points: 2
#     Edge 19, Type (0, 1), BuildingBlock: CIFDUS_clean_linker_0, # of connection points: 2
#     Edge 20, Type (0, 1), BuildingBlock: CIFDUS_clean_linker_0, # of connection points: 2
#     Edge 21, Type (0, 1), BuildingBlock: CIFDUS_clean_linker_0, # of connection points: 2
#     Edge 22, Type (0, 1), BuildingBlock: CIFDUS_clean_linker_0, # of connection points: 2
#     Edge 23, Type (0, 1), BuildingBlock: CIFDUS_clean_linker_0, # of connection points: 2
#     Edge 24, Type (0, 1), BuildingBlock: CIFDUS_clean_linker_0, # of connection points: 2
#     Edge 25, Type (0, 1), BuildingBlock: CIFDUS_clean_linker_0, # of connection points: 2
#     Edge 26, Type (0, 1), BuildingBlock: CIFDUS_clean_linker_0, # of connection points: 2
#     Edge 27, Type (0, 1), BuildingBlock: CIFDUS_clean_linker_0, # of connection points: 2
#     Edge 28, Type (0, 1), BuildingBlock: CIFDUS_clean_linker_0, # of connection points: 2
#     Edge 29, Type (0, 1), BuildingBlock: CIFDUS_clean_linker_0, # of connection points: 2
#     Edge 30, Type (0, 1), BuildingBlock: CIFDUS_clean_linker_0, # of connection points: 2
#     Edge 31, Type (0, 1), BuildingBlock: CIFDUS_clean_linker_0, # of connection points: 2
#     Edge 32, Type (0, 1), BuildingBlock: CIFDUS_clean_linker_0, # of connection points: 2
#     Edge 33, Type (0, 1), BuildingBlock: CIFDUS_clean_linker_0, # of connection points: 2
#     Edge 34, Type (0, 1), BuildingBlock: CIFDUS_clean_linker_0, # of connection points: 2
#     Edge 35, Type (0, 1), BuildingBlock: CIFDUS_clean_linker_0, # of connection points: 2
# Relax obj value: 0.086
# Max RMSD: 0.099
# Mean RMSD: 0.090
data_MOF--net-apo--node1-MIDCAF_clean_sbu_0--node2-ESEHIV_clean_linker_0--edge1-CIFDUS_clean_linker_0
_symmetry_space_group_name_H-M    P1
_symmetry_Int_Tables_number       1
_symmetry_cell_setting            triclinic
loop_
_symmetry_equiv_pos_as_xyz
'x, y, z'
_cell_length_a     28.388252
_cell_length_b     34.681829
_cell_length_c     28.876357
_cell_angle_alpha  90.655707
_cell_angle_beta   91.176159
_cell_angle_gamma 90.800162
loop_
_atom_site_label
_atom_site_type_symbol
_atom_site_fract_x
_atom_site_fract_y
_atom_site_fract_z
_atom_type_partial_charge
H0 H 0.33779 0.43373 0.47655 0.0
H1 H 0.24548 0.41491 0.35875 0.0
H2 H 0.23055 0.34375 0.47784 0.0
C3 C 0.30808 0.41829 0.46075 0.0
C4 C 0.28605 0.38759 0.48413 0.0
C5 C 0.29255 0.4288 0.41617 0.0
C6 C 0.25595 0.40793 0.394 0.0
C7 C 0.2342 0.37701 0.41596 0.0
C8 C 0.24815 0.36767 0.46136 0.0
H9 H 0.10762 0.05274 0.92866 0.0
H10 H 0.19564 0.09896 0.82267 0.0
H11 H 0.19567 0.15207 0.95836 0.0
C12 C 0.13372 0.07374 0.91789 0.0
C13 C 0.14979 0.10248 0.94928 0.0
C14 C 0.15033 0.07226 0.87231 0.0
C15 C 0.18368 0.09966 0.85807 0.0
C16 C 0.19958 0.12911 0.88861 0.0
C17 C 0.1828 0.12997 0.93427 0.0
H18 H 0.8784 0.06665 0.63442 0.0
H19 H 0.78297 0.081 0.74705 0.0
H20 H 0.77927 0.1594 0.63255 0.0
C21 C 0.85011 0.08223 0.65057 0.0
C22 C 0.83061 0.11414 0.62806 0.0
C23 C 0.83364 0.07046 0.69388 0.0
C24 C 0.79636 0.09025 0.714 0.0
C25 C 0.77687 0.12249 0.69226 0.0
C26 C 0.79459 0.13474 0.64964 0.0
H27 H 0.64347 0.3964 0.09016 0.0
H28 H 0.71996 0.4035 0.2209 0.0
H29 H 0.77227 0.33595 0.10794 0.0
C30 C 0.67362 0.39031 0.11217 0.0
C31 C 0.709 0.36751 0.09336 0.0
C32 C 0.67654 0.40422 0.15822 0.0
C33 C 0.71543 0.39288 0.18573 0.0
C34 C 0.74931 0.36746 0.16855 0.0
C35 C 0.74642 0.35542 0.1218 0.0
H36 H 0.66201 0.53594 0.57615 0.0
H37 H 0.7762 0.61737 0.56323 0.0
H38 H 0.7701 0.54366 0.68246 0.0
C39 C 0.69426 0.5492 0.58987 0.0
C40 C 0.71292 0.53677 0.63244 0.0
C41 C 0.71724 0.57783 0.56432 0.0
C42 C 0.75884 0.59487 0.58258 0.0
C43 C 0.77842 0.58283 0.62528 0.0
C44 C 0.7552 0.55357 0.64993 0.0
H45 H 0.90469 0.89552 0.12394 0.0
H46 H 0.83206 0.8593 0.24598 0.0
H47 H 0.83213 0.78642 0.12408 0.0
C48 C 0.8832 0.87453 0.14173 0.0
C49 C 0.87039 0.83994 0.11896 0.0
C50 C 0.86963 0.88171 0.18767 0.0
C51 C 0.84193 0.85416 0.21041 0.0
C52 C 0.82851 0.81941 0.18796 0.0
C53 C 0.84284 0.81275 0.14218 0.0
H54 H 0.11374 0.90063 0.41194 0.0
H55 H 0.23179 0.82696 0.43461 0.0
H56 H 0.21922 0.88972 0.30725 0.0
C57 C 0.14618 0.88835 0.39967 0.0
C58 C 0.1631 0.89812 0.35572 0.0
C59 C 0.17059 0.86259 0.42802 0.0
C60 C 0.21288 0.84705 0.4128 0.0
C61 C 0.23074 0.85711 0.36946 0.0
C62 C 0.20553 0.88225 0.3408 0.0
H63 H 0.36484 0.59765 0.98304 0.0
H64 H 0.28476 0.5774 0.85635 0.0
H65 H 0.24201 0.6642 0.95429 0.0
C66 C 0.33507 0.60361 0.96029 0.0
C67 C 0.30354 0.63208 0.97393 0.0
C68 C 0.32853 0.58284 0.91838 0.0
C69 C 0.2908 0.59291 0.88875 0.0
C70 C 0.25966 0.62238 0.90118 0.0
C71 C 0.26581 0.64154 0.94429 0.0
Zn72 Zn 0.03952 0.15001 0.34613 0.0
Zn73 Zn 0.92931 0.15939 0.22753 0.0
Zn74 Zn 0.98824 0.15439 0.28488 0.0
C75 C 0.0139 0.14959 0.18216 0.0
C76 C 0.90534 0.09457 0.27285 0.0
O77 O 0.94856 0.12882 0.34367 0.0
O78 O 0.99341 0.15787 0.3967 0.0
C79 C 0.05585 0.22082 0.31826 0.0
O80 O 0.02345 0.13414 0.22153 0.0
O81 O 0.97641 0.16854 0.1773 0.0
O82 O 0.90096 0.1077 0.23251 0.0
O83 O 0.93176 0.11277 0.30297 0.0
O84 O 0.08165 0.19317 0.33002 0.0
O85 O 0.01284 0.2138 0.30544 0.0
O86 O 0.04397 0.1161 0.25954 0.0
O87 O 0.05993 0.09739 0.33079 0.0
C88 C 0.06329 0.0922 0.28769 0.0
O89 O 0.9707 0.21631 0.27558 0.0
O90 O 0.89692 0.20339 0.25589 0.0
C91 C 0.95555 0.14013 0.38603 0.0
C92 C 0.92826 0.2277 0.26818 0.0
Zn93 Zn 0.51063 0.29379 0.72614 0.0
Zn94 Zn 0.47181 0.31901 0.86903 0.0
Zn95 Zn 0.49717 0.31866 0.79475 0.0
C96 C 0.46254 0.39547 0.83311 0.0
C97 C 0.41146 0.26769 0.82541 0.0
O98 O 0.56704 0.29091 0.79065 0.0
O99 O 0.53585 0.24363 0.74872 0.0
C100 C 0.54533 0.37089 0.72959 0.0
O101 O 0.47482 0.37971 0.79463 0.0
O102 O 0.46117 0.3752 0.86917 0.0
O103 O 0.41535 0.28587 0.86339 0.0
O104 O 0.4415 0.27383 0.79382 0.0
O105 O 0.55917 0.33837 0.7152 0.0
O106 O 0.50838 0.37167 0.75493 0.0
O107 O 0.45775 0.3561 0.74438 0.0
O108 O 0.44386 0.30252 0.70486 0.0
C109 C 0.43341 0.33732 0.71292 0.0
O110 O 0.56237 0.31319 0.83868 0.0
O111 O 0.52732 0.30038 0.90421 0.0
C112 C 0.57032 0.25696 0.77264 0.0
C113 C 0.56474 0.30428 0.88183 0.0
Zn114 Zn 0.06086 0.813 0.82054 0.0
Zn115 Zn 0.94766 0.81054 0.69852 0.0
Zn116 Zn 0.00276 0.81292 0.76438 0.0
C117 C 0.91479 0.86639 0.7595 0.0
C118 C 0.9453 0.73734 0.7298 0.0
O119 O 0.02452 0.75227 0.78031 0.0
O120 O 0.09763 0.76962 0.79713 0.0
C121 C 0.08657 0.87412 0.77325 0.0
O122 O 0.94486 0.85018 0.78673 0.0
O123 O 0.91139 0.85612 0.71749 0.0
O124 O 0.91935 0.75967 0.70693 0.0
O125 O 0.98243 0.75066 0.75138 0.0
O126 O 0.08976 0.86392 0.81486 0.0
O127 O 0.05982 0.85464 0.74452 0.0
O128 O 0.96834 0.83656 0.82637 0.0
O129 O 0.01635 0.80508 0.87264 0.0
C130 C 0.97876 0.8237 0.86693 0.0
O131 O 0.04105 0.83807 0.70497 0.0
O132 O 0.99475 0.81507 0.64861 0.0
C133 C 0.06786 0.74321 0.78825 0.0
C134 C 0.03298 0.8312 0.66152 0.0
Zn135 Zn 0.54275 0.66688 0.19022 0.0
Zn136 Zn 0.47524 0.66502 0.33845 0.0
Zn137 Zn 0.5072 0.6593 0.26724 0.0
C138 C 0.56537 0.66131 0.36151 0.0
C139 C 0.44319 0.59656 0.30688 0.0
O140 O 0.45646 0.68936 0.2185 0.0
O141 O 0.49681 0.69682 0.15462 0.0
C142 C 0.6101 0.69765 0.24806 0.0
O143 O 0.5647 0.67362 0.31949 0.0
O144 O 0.5277 0.64946 0.37905 0.0
O145 O 0.4252 0.62546 0.32634 0.0
O146 O 0.48205 0.60094 0.28521 0.0
O147 O 0.60379 0.69103 0.2054 0.0
O148 O 0.57833 0.6877 0.27714 0.0
O149 O 0.51055 0.59888 0.24403 0.0
O150 O 0.5421 0.61106 0.17644 0.0
C151 C 0.52668 0.58708 0.20521 0.0
O152 O 0.4477 0.70059 0.26558 0.0
O153 O 0.45849 0.71988 0.33768 0.0
C154 C 0.45876 0.70025 0.17589 0.0
C155 C 0.43933 0.7248 0.29847 0.0
H156 H 0.19907 0.95846 0.30702 0.0
H157 H 0.0684 0.90062 0.33946 0.0
H158 H 0.02399 0.95447 0.30851 0.0
H159 H 0.02416 0.02283 0.29105 0.0
H160 H 0.1529 0.08213 0.25844 0.0
H161 H 0.19686 0.02247 0.27011 0.0
C162 C 0.16088 0.95708 0.30587 0.0
C163 C 0.13703 0.92619 0.3269 0.0
C164 C 0.13548 -0.01158 0.28832 0.0
C165 C 0.08754 0.9247 0.32491 0.0
C166 C 0.06212 0.95536 0.30702 0.0
C167 C 0.06108 0.02197 0.28273 0.0
C168 C 0.08503 0.05633 0.27244 0.0
C169 C 0.08583 -0.01188 0.29098 0.0
C170 C 0.13369 0.05564 0.2652 0.0
C171 C 0.15883 0.0217 0.27271 0.0
H172 H 0.35733 0.55524 0.83272 0.0
H173 H 0.36885 0.53341 0.9799 0.0
H174 H 0.41869 0.47924 0.96521 0.0
H175 H 0.45344 0.43474 0.91245 0.0
H176 H 0.43409 0.44697 0.76492 0.0
H177 H 0.39345 0.50836 0.77789 0.0
C178 C 0.37043 0.53855 0.86162 0.0
C179 C 0.35957 0.54946 0.9076 0.0
C180 C 0.39773 0.50558 0.8529 0.0
C181 C 0.37754 0.52724 0.9443 0.0
C182 C 0.40582 0.49569 0.93597 0.0
C183 C 0.44061 0.4507 0.88275 0.0
C184 C 0.44621 0.43584 0.83768 0.0
C185 C 0.41549 0.48435 0.89061 0.0
C186 C 0.43018 0.45761 0.79993 0.0
C187 C 0.40655 0.49251 0.80748 0.0
H188 H 0.62118 0.53148 0.65795 0.0
H189 H 0.75166 0.46937 0.65999 0.0
H190 H 0.71125 0.41264 0.69069 0.0
H191 H 0.638 0.37954 0.71266 0.0
H192 H 0.50807 0.44227 0.71524 0.0
H193 H 0.54885 0.49999 0.68709 0.0
C194 C 0.64072 0.50559 0.66564 0.0
C195 C 0.68928 0.50447 0.6566 0.0
C196 C 0.61726 0.4732 0.68368 0.0
C197 C 0.71438 0.47095 0.66698 0.0
C198 C 0.69121 0.43846 0.6842 0.0
C199 C 0.61867 0.40591 0.70712 0.0
C200 C 0.56998 0.40657 0.7153 0.0
C201 C 0.64256 0.43906 0.69194 0.0
C202 C 0.5455 0.44107 0.70898 0.0
C203 C 0.56882 0.47401 0.69282 0.0
H204 H 0.81789 0.93078 0.24067 0.0
H205 H 0.95784 0.91304 0.18943 0.0
H206 H 0.98306 0.97594 0.21987 0.0
H207 H 0.96166 0.03944 0.24894 0.0
H208 H 0.82303 0.05951 0.29972 0.0
H209 H 0.80033 -0.00787 0.28168 0.0
C210 C 0.85413 0.94041 0.23712 0.0
C211 C 0.8857 0.91768 0.21189 0.0
C212 C 0.8684 0.97692 0.25455 0.0
C213 C 0.93257 0.93046 0.20755 0.0
C214 C 0.94711 0.9663 0.2252 0.0
C215 C 0.92771 0.02812 0.25916 0.0
C216 C 0.89486 0.0534 0.27774 0.0
C217 C 0.91497 -0.00985 0.2474 0.0
C218 C 0.84927 0.03991 0.28693 0.0
C219 C 0.83625 0.00163 0.27598 0.0
H220 H 0.78961 0.00792 0.73058 0.0
H221 H 0.92688 0.05916 0.71066 0.0
H222 H 0.96431 0.00199 0.74245 0.0
H223 H 0.95802 0.93432 0.76447 0.0
H224 H 0.82196 0.87972 0.77451 0.0
H225 H 0.78359 0.94159 0.76058 0.0
C226 C 0.82766 0.00678 0.73421 0.0
C227 C 0.85555 0.03742 0.71785 0.0
C228 C 0.84898 0.97337 0.75152 0.0
C229 C 0.90481 0.03561 0.72236 0.0
C230 C 0.92619 0.00309 0.74086 0.0
C231 C 0.92011 0.93657 0.76601 0.0
C232 C 0.89283 0.90303 0.77173 0.0
C233 C 0.89868 0.9714 0.75426 0.0
C234 C 0.84355 0.90554 0.77146 0.0
C235 C 0.82172 0.94074 0.76256 0.0
H236 H 0.61492 0.45013 0.10915 0.0
H237 H 0.65309 0.41997 0.2501 0.0
H238 H 0.60347 0.47104 0.27867 0.0
H239 H 0.55762 0.53026 0.26264 0.0
H240 H 0.51348 0.55307 0.12193 0.0
H241 H 0.55408 0.4961 0.09486 0.0
C242 C 0.61165 0.45283 0.14625 0.0
C243 C 0.64005 0.4312 0.17676 0.0
C244 C 0.58096 0.48078 0.16285 0.0
C245 C 0.63437 0.43706 0.22487 0.0
C246 C 0.60505 0.466 0.24162 0.0
C247 C 0.55511 0.52164 0.22644 0.0
C248 C 0.53339 0.54606 0.19414 0.0
C249 C 0.57937 0.48895 0.21081 0.0
C250 C 0.53049 0.5348 0.14728 0.0
C251 C 0.55419 0.50251 0.1317 0.0
H252 H 0.38356 0.43687 0.38908 0.0
H253 H 0.24904 0.49304 0.38776 0.0
H254 H 0.28284 0.5479 0.34706 0.0
H255 H 0.35133 0.58163 0.31714 0.0
H256 H 0.48672 0.52697 0.31752 0.0
H257 H 0.45175 0.46896 0.35166 0.0
C258 C 0.36196 0.46127 0.37983 0.0
C259 C 0.31422 0.46155 0.39193 0.0
C260 C 0.38155 0.49247 0.35573 0.0
C261 C 0.28599 0.49267 0.37909 0.0
C262 C 0.30521 0.52384 0.3557 0.0
C263 C 0.373 0.55668 0.32384 0.0
C264 C 0.42147 0.55849 0.31518 0.0
C265 C 0.35298 0.52422 0.34439 0.0
C266 C 0.4492 0.52601 0.32356 0.0
C267 C 0.42933 0.49314 0.34371 0.0
H268 H 0.19975 0.01972 0.8232 0.0
H269 H 0.05878 0.05803 0.84879 0.0
H270 H 0.0261 0.00294 0.80492 0.0
H271 H 0.03769 0.93838 0.77303 0.0
H272 H 0.17755 0.89512 0.75774 0.0
H273 H 0.21107 0.95806 0.78113 0.0
C274 C 0.16196 0.01637 0.818 0.0
C275 C 0.13157 0.04242 0.83955 0.0
C276 C 0.14341 0.98385 0.79398 0.0
C277 C 0.08267 0.03791 0.83297 0.0
C278 C 0.06403 0.00656 0.8077 0.0
C279 C 0.07534 0.94357 0.77228 0.0
C280 C 0.10509 0.91266 0.76288 0.0
C281 C 0.094 0.97859 0.78967 0.0
C282 C 0.15404 0.91891 0.7638 0.0
C283 C 0.17312 0.95464 0.77819 0.0
H284 H 0.11979 0.16646 0.99432 0.0
H285 H 0.13533 0.04391 1.01091 0.0
H286 H 0.09917 0.04781 0.08715 0.0
H287 H 0.05835 0.08597 0.14749 0.0
H288 H 0.03932 0.20772 0.12686 0.0
H289 H 0.08251 0.20447 0.05482 0.0
C290 C 0.11597 0.14067 1.0149 0.0
C291 C 0.1303 0.10497 0.99686 0.0
C292 C 0.09453 0.14305 0.05828 0.0
C293 C 0.12423 0.07173 1.02375 0.0
C294 C 0.1037 0.07397 0.06747 0.0
C295 C 0.06453 0.11178 0.1275 0.0
C296 C 0.04589 0.14708 0.14246 0.0
C297 C 0.0881 0.10944 0.08492 0.0
C298 C 0.05336 0.18025 0.11596 0.0
C299 C 0.07791 0.1784 0.07467 0.0
H300 H 0.3291 0.43043 0.55541 0.0
H301 H 0.28774 0.31362 0.51677 0.0
H302 H 0.32173 0.2902 0.58822 0.0
H303 H 0.3699 0.30071 0.65741 0.0
H304 H 0.42265 0.41464 0.69271 0.0
H305 H 0.37739 0.44121 0.62732 0.0
C306 C 0.32762 0.39981 0.56232 0.0
C307 C 0.3051 0.37415 0.53005 0.0
C308 C 0.34945 0.38587 0.60312 0.0
C309 C 0.30322 0.33462 0.54075 0.0
C310 C 0.32331 0.32091 0.58167 0.0
C311 C 0.3712 0.33152 0.6513 0.0
C312 C 0.39972 0.35565 0.68009 0.0
C313 C 0.34724 0.34607 0.61253 0.0
C314 C 0.40053 0.39547 0.67167 0.0
C315 C 0.37512 0.41054 0.63381 0.0
H316 H 0.68767 0.2965 0.05808 0.0
H317 H 0.71631 0.41377 1.01907 0.0
H318 H 0.68394 0.40071 0.94124 0.0
H319 H 0.63095 0.36043 0.89182 0.0
H320 H 0.59525 0.24533 0.93436 0.0
H321 H 0.64796 0.25215 1.00201 0.0
C322 C 0.68856 0.31858 0.03179 0.0
C323 C 0.70422 0.35596 0.04397 0.0
C324 C 0.66801 0.31123 0.98771 0.0
C325 C 0.70452 0.38473 1.01012 0.0
C326 C 0.68567 0.37733 0.96578 0.0
C327 C 0.63672 0.33626 0.91469 0.0
C328 C 0.60954 0.30243 0.90826 0.0
C329 C 0.66497 0.3413 0.95503 0.0
C330 C 0.61622 0.27153 0.93863 0.0
C331 C 0.64585 0.27564 0.97766 0.0
H332 H 0.83554 0.07166 0.54818 0.0
H333 H 0.86741 0.18415 0.60671 0.0
H334 H 0.90574 0.20309 0.53515 0.0
H335 H 0.93577 0.18586 0.45871 0.0
H336 H 0.90127 0.07489 0.39746 0.0
H337 H 0.85761 0.05719 0.4669 0.0
C338 C 0.85053 0.10041 0.5449 0.0
C339 C 0.84918 0.12643 0.58274 0.0
C340 C 0.87196 0.11126 0.5033 0.0
C341 C 0.8681 0.16373 0.57806 0.0
C342 C 0.89011 0.17448 0.53724 0.0
C343 C 0.91808 0.15799 0.46032 0.0
C344 C 0.9221 0.13151 0.42334 0.0
C345 C 0.89302 0.14826 0.50004 0.0
C346 C 0.89857 0.09573 0.42548 0.0
C347 C 0.87396 0.08555 0.46532 0.0
H348 H 0.86669 0.88357 0.04023 0.0
H349 H 0.91572 0.77526 0.09363 0.0
H350 H 0.95043 0.75979 1.01928 0.0
H351 H 0.97076 0.77825 0.941 0.0
H352 H 0.92104 0.88515 0.88463 0.0
H353 H 0.88197 0.8998 0.95788 0.0
C354 C 0.88485 0.85657 0.03533 0.0
C355 C 0.88884 0.83063 0.07242 0.0
C356 C 0.90444 0.84762 0.99205 0.0
C357 C 0.91198 0.79555 0.06558 0.0
C358 C 0.93195 0.78674 1.02313 0.0
C359 C 0.95103 0.80466 0.94455 0.0
C360 C 0.94919 0.8308 0.90772 0.0
C361 C 0.92888 0.81271 0.98641 0.0
C362 C 0.9229 0.86457 0.91252 0.0
C363 C 0.90089 0.87303 0.9545 0.0
H364 H 0.70396 0.65044 0.53003 0.0
H365 H 0.68755 0.52975 0.49447 0.0
H366 H 0.64704 0.54622 0.42228 0.0
H367 H 0.60657 0.59406 0.37504 0.0
H368 H 0.61787 0.7145 0.41138 0.0
H369 H 0.67144 0.69941 0.47646 0.0
C370 C 0.6923 0.62785 0.506 0.0
C371 C 0.69794 0.58887 0.51806 0.0
C372 C 0.66836 0.63758 0.46454 0.0
C373 C 0.68264 0.5599 0.48655 0.0
C374 C 0.65973 0.5693 0.44511 0.0
C375 C 0.62242 0.61708 0.39617 0.0
C376 C 0.60921 0.65531 0.38823 0.0
C377 C 0.65112 0.60791 0.43448 0.0
C378 C 0.6286 0.68495 0.41636 0.0
C379 C 0.65853 0.6762 0.45397 0.0
H380 H 0.34591 0.70115 0.99318 0.0
H381 H 0.28148 0.60275 0.05718 0.0
H382 H 0.31513 0.62261 0.13258 0.0
H383 H 0.37717 0.65929 0.17529 0.0
H384 H 0.44736 0.75402 0.10908 0.0
H385 H 0.39608 0.74569 0.04062 0.0
C386 C 0.33776 0.6851 1.0241 0.0
C387 C 0.31119 0.65071 1.01995 0.0
C388 C 0.35873 0.696 0.06704 0.0
C389 C 0.30155 0.62952 0.05987 0.0
C390 C 0.3211 0.64073 0.10288 0.0
C391 C 0.37951 0.67934 0.14683 0.0
C392 C 0.41606 0.70717 0.14716 0.0
C393 C 0.35174 0.6728 0.10641 0.0
C394 C 0.41934 0.73251 0.10967 0.0
C395 C 0.39049 0.72732 0.07017 0.0
H396 H 0.16026 0.90432 0.50773 0.0
H397 H 0.13402 0.79233 0.44558 0.0
H398 H 0.09138 0.7719 0.51409 0.0
H399 H 0.05659 0.78756 0.58873 0.0
H400 H 0.08564 0.89777 0.65428 0.0
H401 H 0.13291 0.91731 0.58785 0.0
C402 C 0.14563 0.87535 0.50973 0.0
C403 C 0.14979 0.84979 0.47185 0.0
C404 C 0.12174 0.86366 0.54962 0.0
C405 C 0.13111 0.81228 0.4745 0.0
C406 C 0.10668 0.8007 0.51352 0.0
C407 C 0.0738 0.81569 0.58866 0.0
C408 C 0.06737 0.84142 0.62586 0.0
C409 C 0.10106 0.82636 0.55083 0.0
C410 C 0.09026 0.87755 0.62592 0.0
C411 C 0.11695 0.88875 0.58785 0.0
H412 H 0.13823 0.36717 0.41938 0.0
H413 H 0.2622 0.32812 0.35014 0.0
H414 H 0.21506 0.28062 0.30586 0.0
H415 H 0.14097 0.24539 0.29378 0.0
H416 H 0.016 0.2821 0.36269 0.0
H417 H 0.06028 0.33643 0.3987 0.0
C418 C 0.15449 0.34838 0.39425 0.0
C419 C 0.20352 0.35048 0.38824 0.0
C420 C 0.12693 0.32121 0.36854 0.0
C421 C 0.22452 0.32655 0.35534 0.0
C422 C 0.19762 0.29957 0.32998 0.0
C423 C 0.12311 0.26612 0.31546 0.0
C424 C 0.07552 0.25995 0.32571 0.0
C425 C 0.14909 0.2961 0.33704 0.0
C426 C 0.05255 0.28669 0.35391 0.0
C427 C 0.07811 0.31728 0.37512 0.0
H428 H 0.27775 0.12237 0.83451 0.0
H429 H 0.19338 0.20597 0.90596 0.0
H430 H 0.24885 0.25701 0.88643 0.0
H431 H 0.32449 0.27694 0.85613 0.0
H432 H 0.41115 0.19514 0.78533 0.0
H433 H 0.35076 0.14451 0.79585 0.0
C434 C 0.27122 0.15185 0.84518 0.0
C435 C 0.23197 0.16014 0.87268 0.0
C436 C 0.30346 0.18135 0.8337 0.0
C437 C 0.22395 0.19855 0.88605 0.0
C438 C 0.25544 0.22785 0.87454 0.0
C439 C 0.32976 0.24816 0.84218 0.0
C440 C 0.37216 0.23955 0.82034 0.0
C441 C 0.29578 0.21941 0.84946 0.0
C442 C 0.37855 0.2024 0.802 0.0
C443 C 0.3443 0.17343 0.80856 0.0
H444 H 0.77075 0.19717 0.72191 0.0
H445 H 0.69202 0.09028 0.70935 0.0
H446 H 0.62212 0.12157 0.73942 0.0
H447 H 0.58178 0.18035 0.7626 0.0
H448 H 0.65975 0.28748 0.77743 0.0
H449 H 0.73201 0.25498 0.75469 0.0
C450 C 0.73825 0.18089 0.72611 0.0
C451 C 0.73602 0.14172 0.71293 0.0
C452 C 0.69837 0.19899 0.74417 0.0
C453 C 0.6942 0.12053 0.71909 0.0
C454 C 0.65436 0.13837 0.7363 0.0
C455 C 0.61484 0.19641 0.76183 0.0
C456 C 0.61543 0.23626 0.77125 0.0
C457 C 0.65583 0.17769 0.74816 0.0
C458 C 0.65848 0.25671 0.77054 0.0
C459 C 0.69966 0.23822 0.75697 0.0
H460 H 0.84416 0.35798 0.15645 0.0
H461 H 0.73297 0.33862 0.25359 0.0
H462 H 0.78594 0.30171 0.30261 0.0
H463 H 0.85776 0.26411 0.30918 0.0
H464 H 0.96827 0.27987 0.21116 0.0
H465 H 0.92289 0.33016 0.17239 0.0
C466 C 0.83192 0.34618 0.18874 0.0
C467 C 0.7845 0.35053 0.20095 0.0
C468 C 0.86262 0.3245 0.2168 0.0
C469 C 0.76925 0.3357 0.24331 0.0
C470 C 0.7995 0.31446 0.27139 0.0
C471 C 0.87288 0.28011 0.28085 0.0
C472 C 0.91595 0.26838 0.26281 0.0
C473 C 0.84555 0.30735 0.25749 0.0
C474 C 0.93531 0.28883 0.22591 0.0
C475 C 0.90883 0.31692 0.20309 0.0
H476 H 0.79929 0.60691 0.71423 0.0
H477 H 0.85777 0.60039 0.57764 0.0
H478 H 0.92424 0.64108 0.60314 0.0
H479 H 0.95699 0.68813 0.65945 0.0
H480 H 0.89706 0.69784 0.79457 0.0
H481 H 0.84147 0.64504 0.77551 0.0
C482 C 0.82723 0.61352 0.69041 0.0
C483 C 0.8228 0.60144 0.6437 0.0
C484 C 0.86538 0.6374 0.70525 0.0
C485 C 0.85948 0.61025 0.61337 0.0
C486 C 0.89773 0.63333 0.62801 0.0
C487 C 0.93343 0.67716 0.68552 0.0
C488 C 0.93144 0.69635 0.72851 0.0
C489 C 0.89998 0.64839 0.67325 0.0
C490 C 0.89992 0.68283 0.76165 0.0
C491 C 0.86744 0.65321 0.75031 0.0
H492 H 0.75354 0.83131 0.24438 0.0
H493 H 0.83729 0.7411 0.18481 0.0
H494 H 0.77975 0.69284 0.20832 0.0
H495 H 0.69912 0.67821 0.23187 0.0
H496 H 0.61496 0.76737 0.29177 0.0
H497 H 0.68006 0.81394 0.28411 0.0
C498 C 0.75996 0.80102 0.23776 0.0
C499 C 0.79884 0.79003 0.2113 0.0
C500 C 0.72666 0.77323 0.25154 0.0
C501 C 0.80671 0.75055 0.20345 0.0
C502 C 0.77402 0.72284 0.21719 0.0
C503 C 0.69597 0.70746 0.24513 0.0
C504 C 0.65265 0.71962 0.26213 0.0
C505 C 0.73286 0.73408 0.23923 0.0
C506 C 0.64837 0.75746 0.279 0.0
C507 C 0.6853 0.78418 0.27386 0.0
H508 H 0.24869 0.81363 0.29288 0.0
H509 H 0.31445 0.86625 0.41425 0.0
H510 H 0.38879 0.83523 0.39668 0.0
H511 H 0.43133 0.78715 0.35328 0.0
H512 H 0.36486 0.7287 0.23608 0.0
H513 H 0.29508 0.76897 0.24422 0.0
C514 C 0.27968 0.81865 0.31484 0.0
C515 C 0.27639 0.84173 0.35501 0.0
C516 C 0.32196 0.79975 0.3052 0.0
C517 C 0.31637 0.84818 0.38349 0.0
C518 C 0.35875 0.83055 0.37341 0.0
C519 C 0.40191 0.78363 0.32892 0.0
C520 C 0.40293 0.75467 0.29453 0.0
C521 C 0.36144 0.80538 0.33528 0.0
C522 C 0.36495 0.75086 0.26279 0.0
C523 C 0.32483 0.77356 0.26785 0.0
H524 H 0.1653 0.63008 0.91549 0.0
H525 H 0.27144 0.64241 0.81179 0.0
H526 H 0.21438 0.67224 0.75947 0.0
H527 H 0.13961 0.70597 0.75001 0.0
H528 H 0.03357 0.69554 0.85363 0.0
H529 H 0.08408 0.65223 0.89819 0.0
C530 C 0.17551 0.63873 0.8811 0.0
C531 C 0.22265 0.6348 0.86775 0.0
C532 C 0.14236 0.65584 0.85106 0.0
C533 C 0.23543 0.64541 0.82288 0.0
C534 C 0.20283 0.66247 0.79296 0.0
C535 C 0.12662 0.69243 0.78106 0.0
C536 C 0.08316 0.70389 0.79867 0.0
C537 C 0.15678 0.66918 0.8074 0.0
C538 C 0.06668 0.68667 0.83912 0.0
C539 C 0.0961 0.66268 0.86518 0.0
loop_
_geom_bond_atom_site_label_1
_geom_bond_atom_site_label_2
_geom_bond_distance
_geom_bond_site_symmetry_2
_ccdc_geom_bond_type
H0 C3 0.931 . S
H1 C6 0.928 . S
H2 C8 0.930 . S
C3 H0 0.931 . S
C3 C4 1.413 . S
C3 C5 1.360 . S
C4 C3 1.413 . S
C4 C8 1.429 . S
C5 C3 1.360 . S
C5 C6 1.372 . S
C6 H1 0.928 . S
C6 C5 1.372 . S
C6 C7 1.404 . S
C7 C6 1.404 . S
C7 C8 1.391 . S
C8 H2 0.930 . S
C8 C4 1.429 . S
C8 C7 1.391 . S
H9 C12 0.931 . S
H10 C15 0.928 . S
H11 C17 0.930 . S
C12 H9 0.931 . S
C12 C13 1.413 . S
C12 C14 1.360 . S
C13 C12 1.413 . S
C13 C17 1.429 . S
C14 C12 1.360 . S
C14 C15 1.372 . S
C15 H10 0.928 . S
C15 C14 1.372 . S
C15 C16 1.404 . S
C16 C15 1.404 . S
C16 C17 1.391 . S
C17 H11 0.930 . S
C17 C13 1.429 . S
C17 C16 1.391 . S
H18 C21 0.931 . S
H19 C24 0.928 . S
H20 C26 0.930 . S
C21 H18 0.931 . S
C21 C22 1.413 . S
C21 C23 1.360 . S
C22 C21 1.413 . S
C22 C26 1.429 . S
C23 C21 1.360 . S
C23 C24 1.372 . S
C24 H19 0.928 . S
C24 C23 1.372 . S
C24 C25 1.404 . S
C25 C24 1.404 . S
C25 C26 1.391 . S
C26 H20 0.930 . S
C26 C22 1.429 . S
C26 C25 1.391 . S
H27 C30 0.931 . S
H28 C33 0.928 . S
H29 C35 0.930 . S
C30 H27 0.931 . S
C30 C31 1.413 . S
C30 C32 1.360 . S
C31 C30 1.413 . S
C31 C35 1.429 . S
C32 C30 1.360 . S
C32 C33 1.372 . S
C33 H28 0.928 . S
C33 C32 1.372 . S
C33 C34 1.404 . S
C34 C33 1.404 . S
C34 C35 1.391 . S
C35 H29 0.930 . S
C35 C31 1.429 . S
C35 C34 1.391 . S
H36 C39 0.931 . S
H37 C42 0.928 . S
H38 C44 0.930 . S
C39 H36 0.931 . S
C39 C40 1.413 . S
C39 C41 1.360 . S
C40 C39 1.413 . S
C40 C44 1.429 . S
C41 C39 1.360 . S
C41 C42 1.372 . S
C42 H37 0.928 . S
C42 C41 1.372 . S
C42 C43 1.404 . S
C43 C42 1.404 . S
C43 C44 1.391 . S
C44 H38 0.930 . S
C44 C40 1.429 . S
C44 C43 1.391 . S
H45 C48 0.931 . S
H46 C51 0.928 . S
H47 C53 0.930 . S
C48 H45 0.931 . S
C48 C49 1.413 . S
C48 C50 1.360 . S
C49 C48 1.413 . S
C49 C53 1.429 . S
C50 C48 1.360 . S
C50 C51 1.372 . S
C51 H46 0.928 . S
C51 C50 1.372 . S
C51 C52 1.404 . S
C52 C51 1.404 . S
C52 C53 1.391 . S
C53 H47 0.930 . S
C53 C49 1.429 . S
C53 C52 1.391 . S
H54 C57 0.931 . S
H55 C60 0.928 . S
H56 C62 0.930 . S
C57 H54 0.931 . S
C57 C58 1.413 . S
C57 C59 1.360 . S
C58 C57 1.413 . S
C58 C62 1.429 . S
C59 C57 1.360 . S
C59 C60 1.372 . S
C60 H55 0.928 . S
C60 C59 1.372 . S
C60 C61 1.404 . S
C61 C60 1.404 . S
C61 C62 1.391 . S
C62 H56 0.930 . S
C62 C58 1.429 . S
C62 C61 1.391 . S
H63 C66 0.931 . S
H64 C69 0.928 . S
H65 C71 0.930 . S
C66 H63 0.931 . S
C66 C67 1.413 . S
C66 C68 1.360 . S
C67 C66 1.413 . S
C67 C71 1.429 . S
C68 C66 1.360 . S
C68 C69 1.372 . S
C69 H64 0.928 . S
C69 C68 1.372 . S
C69 C70 1.404 . S
C70 C69 1.404 . S
C70 C71 1.391 . S
C71 H65 0.930 . S
C71 C67 1.429 . S
C71 C70 1.391 . S
Zn72 O78 1.920 1_455 S
Zn72 O84 1.898 . S
Zn72 O87 1.905 . S
Zn73 O81 1.905 1_655 S
Zn73 O82 1.898 . S
Zn73 O90 1.920 . S
Zn74 O77 2.080 1_455 S
Zn74 O80 2.114 . S
Zn74 O83 2.120 1_455 S
Zn74 O85 2.120 . S
Zn74 O86 2.114 . S
Zn74 O89 2.080 1_455 S
C75 O80 1.166 . S
C75 O81 1.182 . S
C76 O82 1.167 . S
C76 O83 1.299 . S
O77 Zn74 2.080 1_655 S
O77 C91 1.305 . S
O78 Zn72 1.920 1_655 S
O78 C91 1.234 . S
C79 O84 1.167 . S
C79 O85 1.299 . S
O80 Zn74 2.114 . S
O80 C75 1.166 . S
O81 Zn73 1.905 1_455 S
O81 C75 1.182 . S
O82 Zn73 1.898 . S
O82 C76 1.167 . S
O83 Zn74 2.120 1_655 S
O83 C76 1.299 . S
O84 Zn72 1.898 . S
O84 C79 1.167 . S
O85 Zn74 2.120 . S
O85 C79 1.299 . S
O86 Zn74 2.114 . S
O86 C88 1.166 . S
O87 Zn72 1.905 . S
O87 C88 1.182 . S
C88 O86 1.166 . S
C88 O87 1.182 . S
O89 Zn74 2.080 1_655 S
O89 C92 1.305 . S
O90 Zn73 1.920 . S
O90 C92 1.234 . S
C91 O77 1.305 . S
C91 O78 1.234 . S
C92 O89 1.305 . S
C92 O90 1.234 . S
Zn93 O99 1.920 . S
Zn93 O105 1.898 . S
Zn93 O108 1.905 . S
Zn94 O102 1.905 . S
Zn94 O103 1.898 . S
Zn94 O111 1.920 . S
Zn95 O98 2.080 . S
Zn95 O101 2.114 . S
Zn95 O104 2.120 . S
Zn95 O106 2.120 . S
Zn95 O107 2.114 . S
Zn95 O110 2.080 . S
C96 O101 1.166 . S
C96 O102 1.182 . S
C97 O103 1.167 . S
C97 O104 1.299 . S
O98 Zn95 2.080 . S
O98 C112 1.305 . S
O99 Zn93 1.920 . S
O99 C112 1.234 . S
C100 O105 1.167 . S
C100 O106 1.299 . S
O101 Zn95 2.114 . S
O101 C96 1.166 . S
O102 Zn94 1.905 . S
O102 C96 1.182 . S
O103 Zn94 1.898 . S
O103 C97 1.167 . S
O104 Zn95 2.120 . S
O104 C97 1.299 . S
O105 Zn93 1.898 . S
O105 C100 1.167 . S
O106 Zn95 2.120 . S
O106 C100 1.299 . S
O107 Zn95 2.114 . S
O107 C109 1.166 . S
O108 Zn93 1.905 . S
O108 C109 1.182 . S
C109 O107 1.166 . S
C109 O108 1.182 . S
O110 Zn95 2.080 . S
O110 C113 1.305 . S
O111 Zn94 1.920 . S
O111 C113 1.234 . S
C112 O98 1.305 . S
C112 O99 1.234 . S
C113 O110 1.305 . S
C113 O111 1.234 . S
Zn114 O120 1.920 . S
Zn114 O126 1.898 . S
Zn114 O129 1.905 1_455 S
Zn115 O123 1.905 . S
Zn115 O124 1.898 . S
Zn115 O132 1.920 1_655 S
Zn116 O119 2.080 . S
Zn116 O122 2.114 1_455 S
Zn116 O125 2.120 1_455 S
Zn116 O127 2.120 . S
Zn116 O128 2.114 1_455 S
Zn116 O131 2.080 . S
C117 O122 1.166 . S
C117 O123 1.182 . S
C118 O124 1.167 . S
C118 O125 1.299 . S
O119 Zn116 2.080 . S
O119 C133 1.305 . S
O120 Zn114 1.920 . S
O120 C133 1.234 . S
C121 O126 1.167 . S
C121 O127 1.299 . S
O122 Zn116 2.114 1_655 S
O122 C117 1.166 . S
O123 Zn115 1.905 . S
O123 C117 1.182 . S
O124 Zn115 1.898 . S
O124 C118 1.167 . S
O125 Zn116 2.120 1_655 S
O125 C118 1.299 . S
O126 Zn114 1.898 . S
O126 C121 1.167 . S
O127 Zn116 2.120 . S
O127 C121 1.299 . S
O128 Zn116 2.114 1_655 S
O128 C130 1.166 . S
O129 Zn114 1.905 1_655 S
O129 C130 1.182 . S
C130 O128 1.166 . S
C130 O129 1.182 . S
O131 Zn116 2.080 . S
O131 C134 1.305 . S
O132 Zn115 1.920 1_455 S
O132 C134 1.234 . S
C133 O119 1.305 . S
C133 O120 1.234 . S
C134 O131 1.305 . S
C134 O132 1.234 . S
Zn135 O141 1.920 . S
Zn135 O147 1.898 . S
Zn135 O150 1.905 . S
Zn136 O144 1.905 . S
Zn136 O145 1.898 . S
Zn136 O153 1.920 . S
Zn137 O140 2.080 . S
Zn137 O143 2.114 . S
Zn137 O146 2.120 . S
Zn137 O148 2.120 . S
Zn137 O149 2.114 . S
Zn137 O152 2.080 . S
C138 O143 1.166 . S
C138 O144 1.182 . S
C139 O145 1.167 . S
C139 O146 1.299 . S
O140 Zn137 2.080 . S
O140 C154 1.305 . S
O141 Zn135 1.920 . S
O141 C154 1.234 . S
C142 O147 1.167 . S
C142 O148 1.299 . S
O143 Zn137 2.114 . S
O143 C138 1.166 . S
O144 Zn136 1.905 . S
O144 C138 1.182 . S
O145 Zn136 1.898 . S
O145 C139 1.167 . S
O146 Zn137 2.120 . S
O146 C139 1.299 . S
O147 Zn135 1.898 . S
O147 C142 1.167 . S
O148 Zn137 2.120 . S
O148 C142 1.299 . S
O149 Zn137 2.114 . S
O149 C151 1.166 . S
O150 Zn135 1.905 . S
O150 C151 1.182 . S
C151 O149 1.166 . S
C151 O150 1.182 . S
O152 Zn137 2.080 . S
O152 C155 1.305 . S
O153 Zn136 1.920 . S
O153 C155 1.234 . S
C154 O140 1.305 . S
C154 O141 1.234 . S
C155 O152 1.305 . S
C155 O153 1.234 . S
H156 C162 0.930 . S
H157 C165 0.930 . S
H158 C166 0.930 . S
H159 C167 0.930 . S
H160 C170 0.930 . S
H161 C171 0.937 . S
C162 H156 0.930 . S
C162 C163 1.355 . S
C162 C164 1.415 . S
C163 C162 1.355 . S
C163 C165 1.419 . S
C164 C162 1.415 . S
C164 C169 1.425 . S
C164 C171 1.423 . S
C165 H157 0.930 . S
C165 C163 1.419 . S
C165 C166 1.362 . S
C166 H158 0.930 . S
C166 C165 1.362 . S
C166 C169 1.409 . S
C167 H159 0.930 . S
C167 C168 1.355 . S
C167 C169 1.415 1_545 S
C168 C167 1.355 . S
C168 C170 1.419 . S
C169 C164 1.425 . S
C169 C166 1.409 . S
C169 C167 1.415 1_565 S
C170 H160 0.930 . S
C170 C168 1.419 . S
C170 C171 1.343 1_545 S
C171 H161 0.937 . S
C171 C164 1.423 . S
C171 C170 1.343 1_565 S
H172 C178 0.930 . S
H173 C181 0.930 . S
H174 C182 0.930 . S
H175 C183 0.930 . S
H176 C186 0.930 . S
H177 C187 0.930 . S
C178 H172 0.930 . S
C178 C179 1.355 . S
C178 C180 1.415 . S
C179 C178 1.355 . S
C179 C181 1.419 . S
C180 C178 1.415 . S
C180 C185 1.425 . S
C180 C187 1.409 . S
C181 H173 0.930 . S
C181 C179 1.419 . S
C181 C182 1.362 . S
C182 H174 0.930 . S
C182 C181 1.362 . S
C182 C185 1.409 . S
C183 H175 0.930 . S
C183 C184 1.355 . S
C183 C185 1.415 . S
C184 C183 1.355 . S
C184 C186 1.419 . S
C185 C180 1.425 . S
C185 C182 1.409 . S
C185 C183 1.415 . S
C186 H176 0.930 . S
C186 C184 1.419 . S
C186 C187 1.362 . S
C187 H177 0.930 . S
C187 C180 1.409 . S
C187 C186 1.362 . S
H188 C194 0.930 . S
H189 C197 0.930 . S
H190 C198 0.930 . S
H191 C199 0.930 . S
H192 C202 0.930 . S
H193 C203 0.930 . S
C194 H188 0.930 . S
C194 C195 1.355 . S
C194 C196 1.415 . S
C195 C194 1.355 . S
C195 C197 1.419 . S
C196 C194 1.415 . S
C196 C201 1.425 . S
C196 C203 1.409 . S
C197 H189 0.930 . S
C197 C195 1.419 . S
C197 C198 1.362 . S
C198 H190 0.930 . S
C198 C197 1.362 . S
C198 C201 1.409 . S
C199 H191 0.930 . S
C199 C200 1.355 . S
C199 C201 1.415 . S
C200 C199 1.355 . S
C200 C202 1.419 . S
C201 C196 1.425 . S
C201 C198 1.409 . S
C201 C199 1.415 . S
C202 H192 0.930 . S
C202 C200 1.419 . S
C202 C203 1.362 . S
C203 H193 0.930 . S
C203 C196 1.409 . S
C203 C202 1.362 . S
H204 C210 0.930 . S
H205 C213 0.930 . S
H206 C214 0.930 . S
H207 C215 0.930 . S
H208 C218 0.930 . S
H209 C219 0.930 . S
C210 H204 0.930 . S
C210 C211 1.355 . S
C210 C212 1.415 . S
C211 C210 1.355 . S
C211 C213 1.419 . S
C212 C210 1.415 . S
C212 C217 1.425 . S
C212 C219 1.409 1_565 S
C213 H205 0.930 . S
C213 C211 1.419 . S
C213 C214 1.362 . S
C214 H206 0.930 . S
C214 C213 1.362 . S
C214 C217 1.409 . S
C215 H207 0.930 . S
C215 C216 1.355 . S
C215 C217 1.415 1_545 S
C216 C215 1.355 . S
C216 C218 1.419 . S
C217 C212 1.425 . S
C217 C214 1.409 . S
C217 C215 1.415 1_565 S
C218 H208 0.930 . S
C218 C216 1.419 . S
C218 C219 1.362 . S
C219 H209 0.930 . S
C219 C212 1.409 1_545 S
C219 C218 1.362 . S
H220 C226 0.930 . S
H221 C229 0.930 . S
H222 C230 0.930 . S
H223 C231 0.930 . S
H224 C234 0.930 . S
H225 C235 0.928 1_545 S
C226 H220 0.930 . S
C226 C227 1.355 . S
C226 C228 1.415 . S
C227 C226 1.355 . S
C227 C229 1.419 . S
C228 C226 1.415 . S
C228 C233 1.425 . S
C228 C235 1.409 1_545 S
C229 H221 0.930 . S
C229 C227 1.419 . S
C229 C230 1.362 . S
C230 H222 0.930 . S
C230 C229 1.362 . S
C230 C233 1.409 . S
C231 H223 0.930 . S
C231 C232 1.355 . S
C231 C233 1.415 1_565 S
C232 C231 1.355 . S
C232 C234 1.419 . S
C233 C228 1.425 . S
C233 C230 1.409 . S
C233 C231 1.415 1_545 S
C234 H224 0.930 . S
C234 C232 1.419 . S
C234 C235 1.362 . S
C235 H225 0.928 1_565 S
C235 C228 1.409 1_565 S
C235 C234 1.362 . S
H236 C242 0.930 . S
H237 C245 0.930 . S
H238 C246 0.930 . S
H239 C247 0.930 . S
H240 C250 0.930 . S
H241 C251 0.930 . S
C242 H236 0.930 . S
C242 C243 1.355 . S
C242 C244 1.415 . S
C243 C242 1.355 . S
C243 C245 1.419 . S
C244 C242 1.415 . S
C244 C249 1.425 . S
C244 C251 1.409 . S
C245 H237 0.930 . S
C245 C243 1.419 . S
C245 C246 1.362 . S
C246 H238 0.930 . S
C246 C245 1.362 . S
C246 C249 1.409 . S
C247 H239 0.930 . S
C247 C248 1.355 . S
C247 C249 1.415 . S
C248 C247 1.355 . S
C248 C250 1.419 . S
C249 C244 1.425 . S
C249 C246 1.409 . S
C249 C247 1.415 . S
C250 H240 0.930 . S
C250 C248 1.419 . S
C250 C251 1.362 . S
C251 H241 0.930 . S
C251 C244 1.409 . S
C251 C250 1.362 . S
H252 C258 0.930 . S
H253 C261 0.930 . S
H254 C262 0.930 . S
H255 C263 0.930 . S
H256 C266 0.930 . S
H257 C267 0.930 . S
C258 H252 0.930 . S
C258 C259 1.355 . S
C258 C260 1.415 . S
C259 C258 1.355 . S
C259 C261 1.419 . S
C260 C258 1.415 . S
C260 C265 1.425 . S
C260 C267 1.409 . S
C261 H253 0.930 . S
C261 C259 1.419 . S
C261 C262 1.362 . S
C262 H254 0.930 . S
C262 C261 1.362 . S
C262 C265 1.409 . S
C263 H255 0.930 . S
C263 C264 1.355 . S
C263 C265 1.415 . S
C264 C263 1.355 . S
C264 C266 1.419 . S
C265 C260 1.425 . S
C265 C262 1.409 . S
C265 C263 1.415 . S
C266 H256 0.930 . S
C266 C264 1.419 . S
C266 C267 1.362 . S
C267 H257 0.930 . S
C267 C260 1.409 . S
C267 C266 1.362 . S
H268 C274 0.930 . S
H269 C277 0.930 . S
H270 C278 0.930 . S
H271 C279 0.930 . S
H272 C282 0.930 . S
H273 C283 0.930 . S
C274 H268 0.930 . S
C274 C275 1.355 . S
C274 C276 1.415 . S
C275 C274 1.355 . S
C275 C277 1.419 . S
C276 C274 1.415 . S
C276 C281 1.425 . S
C276 C283 1.409 . S
C277 H269 0.930 . S
C277 C275 1.419 . S
C277 C278 1.362 . S
C278 H270 0.930 . S
C278 C277 1.362 . S
C278 C281 1.409 . S
C279 H271 0.930 . S
C279 C280 1.355 . S
C279 C281 1.415 1_565 S
C280 C279 1.355 . S
C280 C282 1.419 . S
C281 C276 1.425 . S
C281 C278 1.409 . S
C281 C279 1.415 1_545 S
C282 H272 0.930 . S
C282 C280 1.419 . S
C282 C283 1.362 1_565 S
C283 H273 0.930 . S
C283 C276 1.409 . S
C283 C282 1.362 1_545 S
H284 C290 0.919 1_556 S
H285 C293 0.930 . S
H286 C294 0.930 . S
H287 C295 0.930 . S
H288 C298 0.930 . S
H289 C299 0.930 . S
C290 H284 0.919 1_554 S
C290 C291 1.342 1_554 S
C290 C292 1.439 . S
C291 C290 1.342 1_556 S
C291 C293 1.419 . S
C292 C290 1.439 . S
C292 C297 1.425 . S
C292 C299 1.409 . S
C293 H285 0.930 . S
C293 C291 1.419 . S
C293 C294 1.362 1_556 S
C294 H286 0.930 . S
C294 C293 1.362 1_554 S
C294 C297 1.409 . S
C295 H287 0.930 . S
C295 C296 1.355 . S
C295 C297 1.415 . S
C296 C295 1.355 . S
C296 C298 1.419 . S
C297 C292 1.425 . S
C297 C294 1.409 . S
C297 C295 1.415 . S
C298 H288 0.930 . S
C298 C296 1.419 . S
C298 C299 1.362 . S
C299 H289 0.930 . S
C299 C292 1.409 . S
C299 C298 1.362 . S
H300 C306 0.930 . S
H301 C309 0.930 . S
H302 C310 0.930 . S
H303 C311 0.930 . S
H304 C314 0.930 . S
H305 C315 0.930 . S
C306 H300 0.930 . S
C306 C307 1.355 . S
C306 C308 1.415 . S
C307 C306 1.355 . S
C307 C309 1.419 . S
C308 C306 1.415 . S
C308 C313 1.425 . S
C308 C315 1.409 . S
C309 H301 0.930 . S
C309 C307 1.419 . S
C309 C310 1.362 . S
C310 H302 0.930 . S
C310 C309 1.362 . S
C310 C313 1.409 . S
C311 H303 0.930 . S
C311 C312 1.355 . S
C311 C313 1.415 . S
C312 C311 1.355 . S
C312 C314 1.419 . S
C313 C308 1.425 . S
C313 C310 1.409 . S
C313 C311 1.415 . S
C314 H304 0.930 . S
C314 C312 1.419 . S
C314 C315 1.362 . S
C315 H305 0.930 . S
C315 C308 1.409 . S
C315 C314 1.362 . S
H316 C322 0.930 . S
H317 C325 0.930 . S
H318 C326 0.930 . S
H319 C327 0.930 . S
H320 C330 0.930 . S
H321 C331 0.930 . S
C322 H316 0.930 . S
C322 C323 1.355 1_556 S
C322 C324 1.415 . S
C323 C322 1.355 1_554 S
C323 C325 1.419 . S
C324 C322 1.415 . S
C324 C329 1.425 . S
C324 C331 1.409 . S
C325 H317 0.930 . S
C325 C323 1.419 . S
C325 C326 1.362 1_554 S
C326 H318 0.930 . S
C326 C325 1.362 1_556 S
C326 C329 1.409 . S
C327 H319 0.930 . S
C327 C328 1.355 . S
C327 C329 1.415 . S
C328 C327 1.355 . S
C328 C330 1.419 . S
C329 C324 1.425 . S
C329 C326 1.409 . S
C329 C327 1.415 . S
C330 H320 0.930 . S
C330 C328 1.419 . S
C330 C331 1.362 . S
C331 H321 0.930 . S
C331 C324 1.409 . S
C331 C330 1.362 . S
H332 C338 0.930 . S
H333 C341 0.930 . S
H334 C342 0.930 . S
H335 C343 0.930 . S
H336 C346 0.930 . S
H337 C347 0.930 . S
C338 H332 0.930 . S
C338 C339 1.355 . S
C338 C340 1.415 . S
C339 C338 1.355 . S
C339 C341 1.419 . S
C340 C338 1.415 . S
C340 C345 1.425 . S
C340 C347 1.409 . S
C341 H333 0.930 . S
C341 C339 1.419 . S
C341 C342 1.362 . S
C342 H334 0.930 . S
C342 C341 1.362 . S
C342 C345 1.409 . S
C343 H335 0.930 . S
C343 C344 1.355 . S
C343 C345 1.415 . S
C344 C343 1.355 . S
C344 C346 1.419 . S
C345 C340 1.425 . S
C345 C342 1.409 . S
C345 C343 1.415 . S
C346 H336 0.930 . S
C346 C344 1.419 . S
C346 C347 1.362 . S
C347 H337 0.930 . S
C347 C340 1.409 . S
C347 C346 1.362 . S
H348 C354 0.930 . S
H349 C357 0.930 . S
H350 C358 0.930 . S
H351 C359 0.930 . S
H352 C362 0.930 . S
H353 C363 0.930 . S
C354 H348 0.930 . S
C354 C355 1.355 1_556 S
C354 C356 1.415 . S
C355 C354 1.355 1_554 S
C355 C357 1.419 . S
C356 C354 1.415 . S
C356 C361 1.425 . S
C356 C363 1.409 . S
C357 H349 0.930 . S
C357 C355 1.419 . S
C357 C358 1.362 1_554 S
C358 H350 0.930 . S
C358 C357 1.362 1_556 S
C358 C361 1.409 . S
C359 H351 0.930 . S
C359 C360 1.355 . S
C359 C361 1.415 . S
C360 C359 1.355 . S
C360 C362 1.419 . S
C361 C356 1.425 . S
C361 C358 1.409 . S
C361 C359 1.415 . S
C362 H352 0.930 . S
C362 C360 1.419 . S
C362 C363 1.362 . S
C363 H353 0.930 . S
C363 C356 1.409 . S
C363 C362 1.362 . S
H364 C370 0.930 . S
H365 C373 0.930 . S
H366 C374 0.930 . S
H367 C375 0.930 . S
H368 C378 0.930 . S
H369 C379 0.930 . S
C370 H364 0.930 . S
C370 C371 1.355 . S
C370 C372 1.415 . S
C371 C370 1.355 . S
C371 C373 1.419 . S
C372 C370 1.415 . S
C372 C377 1.425 . S
C372 C379 1.409 . S
C373 H365 0.930 . S
C373 C371 1.419 . S
C373 C374 1.362 . S
C374 H366 0.930 . S
C374 C373 1.362 . S
C374 C377 1.409 . S
C375 H367 0.930 . S
C375 C376 1.355 . S
C375 C377 1.415 . S
C376 C375 1.355 . S
C376 C378 1.419 . S
C377 C372 1.425 . S
C377 C374 1.409 . S
C377 C375 1.415 . S
C378 H368 0.930 . S
C378 C376 1.419 . S
C378 C379 1.362 . S
C379 H369 0.930 . S
C379 C372 1.409 . S
C379 C378 1.362 . S
H380 C386 0.930 . S
H381 C389 0.930 1_556 S
H382 C390 0.930 . S
H383 C391 0.930 . S
H384 C394 0.930 . S
H385 C395 0.930 . S
C386 H380 0.930 . S
C386 C387 1.355 . S
C386 C388 1.415 1_556 S
C387 C386 1.355 . S
C387 C389 1.419 1_556 S
C388 C386 1.415 1_554 S
C388 C393 1.425 . S
C388 C395 1.409 . S
C389 H381 0.930 1_554 S
C389 C387 1.419 1_554 S
C389 C390 1.362 . S
C390 H382 0.930 . S
C390 C389 1.362 . S
C390 C393 1.409 . S
C391 H383 0.930 . S
C391 C392 1.355 . S
C391 C393 1.415 . S
C392 C391 1.355 . S
C392 C394 1.419 . S
C393 C388 1.425 . S
C393 C390 1.409 . S
C393 C391 1.415 . S
C394 H384 0.930 . S
C394 C392 1.419 . S
C394 C395 1.362 . S
C395 H385 0.930 . S
C395 C388 1.409 . S
C395 C394 1.362 . S
H396 C402 0.930 . S
H397 C405 0.930 . S
H398 C406 0.930 . S
H399 C407 0.930 . S
H400 C410 0.930 . S
H401 C411 0.930 . S
C402 H396 0.930 . S
C402 C403 1.355 . S
C402 C404 1.415 . S
C403 C402 1.355 . S
C403 C405 1.419 . S
C404 C402 1.415 . S
C404 C409 1.425 . S
C404 C411 1.409 . S
C405 H397 0.930 . S
C405 C403 1.419 . S
C405 C406 1.362 . S
C406 H398 0.930 . S
C406 C405 1.362 . S
C406 C409 1.409 . S
C407 H399 0.930 . S
C407 C408 1.355 . S
C407 C409 1.415 . S
C408 C407 1.355 . S
C408 C410 1.419 . S
C409 C404 1.425 . S
C409 C406 1.409 . S
C409 C407 1.415 . S
C410 H400 0.930 . S
C410 C408 1.419 . S
C410 C411 1.362 . S
C411 H401 0.930 . S
C411 C404 1.409 . S
C411 C410 1.362 . S
H412 C418 0.930 . S
H413 C421 0.930 . S
H414 C422 0.930 . S
H415 C423 0.930 . S
H416 C426 0.930 . S
H417 C427 0.930 . S
C418 H412 0.930 . S
C418 C419 1.355 . S
C418 C420 1.415 . S
C419 C418 1.355 . S
C419 C421 1.419 . S
C420 C418 1.415 . S
C420 C425 1.425 . S
C420 C427 1.409 . S
C421 H413 0.930 . S
C421 C419 1.419 . S
C421 C422 1.362 . S
C422 H414 0.930 . S
C422 C421 1.362 . S
C422 C425 1.409 . S
C423 H415 0.930 . S
C423 C424 1.355 . S
C423 C425 1.415 . S
C424 C423 1.355 . S
C424 C426 1.419 . S
C425 C420 1.425 . S
C425 C422 1.409 . S
C425 C423 1.415 . S
C426 H416 0.930 . S
C426 C424 1.419 . S
C426 C427 1.362 . S
C427 H417 0.930 . S
C427 C420 1.409 . S
C427 C426 1.362 . S
H428 C434 0.930 . S
H429 C437 0.930 . S
H430 C438 0.930 . S
H431 C439 0.930 . S
H432 C442 0.930 . S
H433 C443 0.930 . S
C434 H428 0.930 . S
C434 C435 1.355 . S
C434 C436 1.415 . S
C435 C434 1.355 . S
C435 C437 1.419 . S
C436 C434 1.415 . S
C436 C441 1.425 . S
C436 C443 1.409 . S
C437 H429 0.930 . S
C437 C435 1.419 . S
C437 C438 1.362 . S
C438 H430 0.930 . S
C438 C437 1.362 . S
C438 C441 1.409 . S
C439 H431 0.930 . S
C439 C440 1.355 . S
C439 C441 1.415 . S
C440 C439 1.355 . S
C440 C442 1.419 . S
C441 C436 1.425 . S
C441 C438 1.409 . S
C441 C439 1.415 . S
C442 H432 0.930 . S
C442 C440 1.419 . S
C442 C443 1.362 . S
C443 H433 0.930 . S
C443 C436 1.409 . S
C443 C442 1.362 . S
H444 C450 0.930 . S
H445 C453 0.930 . S
H446 C454 0.930 . S
H447 C455 0.930 . S
H448 C458 0.930 . S
H449 C459 0.930 . S
C450 H444 0.930 . S
C450 C451 1.355 . S
C450 C452 1.415 . S
C451 C450 1.355 . S
C451 C453 1.419 . S
C452 C450 1.415 . S
C452 C457 1.425 . S
C452 C459 1.409 . S
C453 H445 0.930 . S
C453 C451 1.419 . S
C453 C454 1.362 . S
C454 H446 0.930 . S
C454 C453 1.362 . S
C454 C457 1.409 . S
C455 H447 0.930 . S
C455 C456 1.355 . S
C455 C457 1.415 . S
C456 C455 1.355 . S
C456 C458 1.419 . S
C457 C452 1.425 . S
C457 C454 1.409 . S
C457 C455 1.415 . S
C458 H448 0.930 . S
C458 C456 1.419 . S
C458 C459 1.362 . S
C459 H449 0.930 . S
C459 C452 1.409 . S
C459 C458 1.362 . S
H460 C466 0.930 . S
H461 C469 0.930 . S
H462 C470 0.930 . S
H463 C471 0.930 . S
H464 C474 0.930 . S
H465 C475 0.930 . S
C466 H460 0.930 . S
C466 C467 1.355 . S
C466 C468 1.415 . S
C467 C466 1.355 . S
C467 C469 1.419 . S
C468 C466 1.415 . S
C468 C473 1.425 . S
C468 C475 1.409 . S
C469 H461 0.930 . S
C469 C467 1.419 . S
C469 C470 1.362 . S
C470 H462 0.930 . S
C470 C469 1.362 . S
C470 C473 1.409 . S
C471 H463 0.930 . S
C471 C472 1.355 . S
C471 C473 1.415 . S
C472 C471 1.355 . S
C472 C474 1.419 . S
C473 C468 1.425 . S
C473 C470 1.409 . S
C473 C471 1.415 . S
C474 H464 0.930 . S
C474 C472 1.419 . S
C474 C475 1.362 . S
C475 H465 0.930 . S
C475 C468 1.409 . S
C475 C474 1.362 . S
H476 C482 0.930 . S
H477 C485 0.930 . S
H478 C486 0.930 . S
H479 C487 0.930 . S
H480 C490 0.930 . S
H481 C491 0.930 . S
C482 H476 0.930 . S
C482 C483 1.355 . S
C482 C484 1.415 . S
C483 C482 1.355 . S
C483 C485 1.419 . S
C484 C482 1.415 . S
C484 C489 1.425 . S
C484 C491 1.409 . S
C485 H477 0.930 . S
C485 C483 1.419 . S
C485 C486 1.362 . S
C486 H478 0.930 . S
C486 C485 1.362 . S
C486 C489 1.409 . S
C487 H479 0.930 . S
C487 C488 1.355 . S
C487 C489 1.415 . S
C488 C487 1.355 . S
C488 C490 1.419 . S
C489 C484 1.425 . S
C489 C486 1.409 . S
C489 C487 1.415 . S
C490 H480 0.930 . S
C490 C488 1.419 . S
C490 C491 1.362 . S
C491 H481 0.930 . S
C491 C484 1.409 . S
C491 C490 1.362 . S
H492 C498 0.930 . S
H493 C501 0.930 . S
H494 C502 0.930 . S
H495 C503 0.930 . S
H496 C506 0.930 . S
H497 C507 0.930 . S
C498 H492 0.930 . S
C498 C499 1.355 . S
C498 C500 1.415 . S
C499 C498 1.355 . S
C499 C501 1.419 . S
C500 C498 1.415 . S
C500 C505 1.425 . S
C500 C507 1.409 . S
C501 H493 0.930 . S
C501 C499 1.419 . S
C501 C502 1.362 . S
C502 H494 0.930 . S
C502 C501 1.362 . S
C502 C505 1.409 . S
C503 H495 0.930 . S
C503 C504 1.355 . S
C503 C505 1.415 . S
C504 C503 1.355 . S
C504 C506 1.419 . S
C505 C500 1.425 . S
C505 C502 1.409 . S
C505 C503 1.415 . S
C506 H496 0.930 . S
C506 C504 1.419 . S
C506 C507 1.362 . S
C507 H497 0.930 . S
C507 C500 1.409 . S
C507 C506 1.362 . S
H508 C514 0.930 . S
H509 C517 0.930 . S
H510 C518 0.930 . S
H511 C519 0.930 . S
H512 C522 0.930 . S
H513 C523 0.930 . S
C514 H508 0.930 . S
C514 C515 1.355 . S
C514 C516 1.415 . S
C515 C514 1.355 . S
C515 C517 1.419 . S
C516 C514 1.415 . S
C516 C521 1.425 . S
C516 C523 1.409 . S
C517 H509 0.930 . S
C517 C515 1.419 . S
C517 C518 1.362 . S
C518 H510 0.930 . S
C518 C517 1.362 . S
C518 C521 1.409 . S
C519 H511 0.930 . S
C519 C520 1.355 . S
C519 C521 1.415 . S
C520 C519 1.355 . S
C520 C522 1.419 . S
C521 C516 1.425 . S
C521 C518 1.409 . S
C521 C519 1.415 . S
C522 H512 0.930 . S
C522 C520 1.419 . S
C522 C523 1.362 . S
C523 H513 0.930 . S
C523 C516 1.409 . S
C523 C522 1.362 . S
H524 C530 0.930 . S
H525 C533 0.930 . S
H526 C534 0.930 . S
H527 C535 0.930 . S
H528 C538 0.930 . S
H529 C539 0.930 . S
C530 H524 0.930 . S
C530 C531 1.355 . S
C530 C532 1.415 . S
C531 C530 1.355 . S
C531 C533 1.419 . S
C532 C530 1.415 . S
C532 C537 1.425 . S
C532 C539 1.409 . S
C533 H525 0.930 . S
C533 C531 1.419 . S
C533 C534 1.362 . S
C534 H526 0.930 . S
C534 C533 1.362 . S
C534 C537 1.409 . S
C535 H527 0.930 . S
C535 C536 1.355 . S
C535 C537 1.415 . S
C536 C535 1.355 . S
C536 C538 1.419 . S
C537 C532 1.425 . S
C537 C534 1.409 . S
C537 C535 1.415 . S
C538 H528 0.930 . S
C538 C536 1.419 . S
C538 C539 1.362 . S
C539 H529 0.930 . S
C539 C532 1.409 . S
C539 C538 1.362 . S
C163 C58 1.374 . S
C168 C88 1.362 . S
C184 C96 1.371 . S
C179 C68 1.379 . S
C200 C100 1.347 . S
C195 C40 1.387 . S
C211 C50 1.402 . S
C216 C76 1.281 . S
C232 C117 1.329 . S
C227 C23 1.386 . S
C248 C151 1.284 . S
C243 C32 1.416 . S
C259 C5 1.376 . S
C264 C139 1.368 . S
C275 C14 1.380 . S
C280 C121 1.335 . S
C296 C75 1.260 . S
C291 C13 1.444 . S
C312 C109 1.215 . S
C307 C4 1.459 . S
C328 C113 1.320 . S
C323 C31 1.449 . S
C344 C91 1.306 . S
C339 C22 1.465 . S
C360 C130 1.281 . S
C355 C49 1.463 . S
C371 C41 1.446 . S
C376 C138 1.338 . S
C392 C154 1.217 . S
C387 C67 1.463 . S
C403 C59 1.461 . S
C408 C134 1.217 . S
C424 C79 1.300 . S
C419 C7 1.506 . S
C440 C97 1.300 . S
C435 C16 1.504 . S
C451 C25 1.484 . S
C456 C112 1.297 . S
C472 C92 1.358 . S
C467 C34 1.496 . S
C488 C118 1.370 . S
C483 C43 1.502 . S
C499 C52 1.503 . S
C504 C142 1.275 . S
C515 C61 1.494 . S
C520 C155 1.367 . S
C531 C70 1.494 . S
C536 C133 1.272 . S
