# Generated by pormake.
# Topology apo, (3,6)-cn, num edge types: 1
# Building blocks:
#     Node 0, Type 0, BuildingBlock: VETTIZ_charged_linker_0, # of connection points: 3
#     Node 1, Type 0, BuildingBlock: VETTIZ_charged_linker_0, # of connection points: 3
#     Node 2, Type 0, BuildingBlock: VETTIZ_charged_linker_0, # of connection points: 3
#     Node 3, Type 0, BuildingBlock: VETTIZ_charged_linker_0, # of connection points: 3
#     Node 4, Type 0, BuildingBlock: VETTIZ_charged_linker_0, # of connection points: 3
#     Node 5, Type 0, BuildingBlock: VETTIZ_charged_linker_0, # of connection points: 3
#     Node 6, Type 0, BuildingBlock: VETTIZ_charged_linker_0, # of connection points: 3
#     Node 7, Type 0, BuildingBlock: VETTIZ_charged_linker_0, # of connection points: 3
#     Node 8, Type 1, BuildingBlock: KUMJIN_clean_sbu_1, # of connection points: 6
#     Node 9, Type 1, BuildingBlock: KUMJIN_clean_sbu_1, # of connection points: 6
#     Node 10, Type 1, BuildingBlock: KUMJIN_clean_sbu_1, # of connection points: 6
#     Node 11, Type 1, BuildingBlock: KUMJIN_clean_sbu_1, # of connection points: 6
#     Edge 12, Type (0, 1), None
#     Edge 13, Type (0, 1), None
#     Edge 14, Type (0, 1), None
#     Edge 15, Type (0, 1), None
#     Edge 16, Type (0, 1), None
#     Edge 17, Type (0, 1), None
#     Edge 18, Type (0, 1), None
#     Edge 19, Type (0, 1), None
#     Edge 20, Type (0, 1), None
#     Edge 21, Type (0, 1), None
#     Edge 22, Type (0, 1), None
#     Edge 23, Type (0, 1), None
#     Edge 24, Type (0, 1), None
#     Edge 25, Type (0, 1), None
#     Edge 26, Type (0, 1), None
#     Edge 27, Type (0, 1), None
#     Edge 28, Type (0, 1), None
#     Edge 29, Type (0, 1), None
#     Edge 30, Type (0, 1), None
#     Edge 31, Type (0, 1), None
#     Edge 32, Type (0, 1), None
#     Edge 33, Type (0, 1), None
#     Edge 34, Type (0, 1), None
#     Edge 35, Type (0, 1), None
# Relax obj value: 0.007
# Max RMSD: 0.140
# Mean RMSD: 0.106
data_MOF--net-apo--node1-KUMJIN_clean_sbu_1--node2-VETTIZ_charged_linker_0--edge1-none
_symmetry_space_group_name_H-M    P1
_symmetry_Int_Tables_number       1
_symmetry_cell_setting            triclinic
loop_
_symmetry_equiv_pos_as_xyz
'x, y, z'
_cell_length_a     16.134434
_cell_length_b     28.156246
_cell_length_c     38.516602
_cell_angle_alpha  90.132605
_cell_angle_beta   89.872067
_cell_angle_gamma 90.866369
loop_
_atom_site_label
_atom_site_type_symbol
_atom_site_fract_x
_atom_site_fract_y
_atom_site_fract_z
_atom_type_partial_charge
C0 C 0.26449 0.34813 0.51875 0.0
C1 C 0.30443 0.38296 0.53934 0.0
C2 C 0.35958 0.41552 0.52361 0.0
C3 C 0.32161 0.38507 0.46695 0.0
C4 C 0.27482 0.34942 0.48247 0.0
C5 C 0.23285 0.31765 0.45584 0.0
H6 H 0.13345 0.28524 0.28437 0.0
C7 C 0.30651 0.38321 0.42925 0.0
C8 C 0.2545 0.34347 0.42228 0.0
H9 H 0.07992 0.18725 0.36743 0.0
H10 H 0.1432 0.24204 0.40934 0.0
H11 H 0.08672 0.38017 0.32614 0.0
H12 H 0.30382 0.30285 0.30215 0.0
H13 H 0.34311 0.36077 0.30588 0.0
H14 H 0.26564 0.34788 0.27355 0.0
H15 H 0.13788 0.38265 0.28481 0.0
H16 H 0.1625 0.42437 0.31908 0.0
C17 C 0.13854 0.31618 0.4628 0.0
C18 C 0.27356 0.26844 0.45747 0.0
C19 C 0.41216 0.51766 0.35038 0.0
C20 C 0.40026 0.52532 0.31461 0.0
C21 C 0.35547 0.49184 0.29529 0.0
C22 C 0.31794 0.45289 0.31071 0.0
C23 C 0.3281 0.44559 0.34628 0.0
C24 C 0.37502 0.47718 0.36573 0.0
C25 C 0.37908 0.46195 0.40323 0.0
C26 C 0.32771 0.41579 0.40238 0.0
C27 C 0.29816 0.40726 0.36891 0.0
C28 C 0.33746 0.50106 0.42522 0.0
C29 C 0.471 0.45318 0.41248 0.0
C30 C 0.13439 0.27588 0.31165 0.0
C31 C 0.10218 0.23244 0.32282 0.0
C32 C 0.1049 0.22098 0.35845 0.0
C33 C 0.14214 0.25256 0.38258 0.0
C34 C 0.17703 0.29577 0.37072 0.0
C35 C 0.17146 0.30654 0.33574 0.0
C36 C 0.21433 0.35197 0.32661 0.0
C37 C 0.24832 0.36691 0.36145 0.0
C38 C 0.22653 0.33457 0.38766 0.0
C39 C 0.14758 0.38673 0.31321 0.0
C40 C 0.28505 0.3406 0.30054 0.0
H41 H 0.40823 0.4439 0.47691 0.0
H42 H 0.22169 0.32283 0.53044 0.0
H43 H 0.34225 0.27226 0.45861 0.0
H44 H 0.26047 0.24649 0.43434 0.0
H45 H 0.25275 0.24871 0.48095 0.0
H46 H 0.11534 0.35263 0.46755 0.0
H47 H 0.12369 0.29419 0.48596 0.0
H48 H 0.10288 0.3019 0.44064 0.0
H49 H 0.44864 0.54242 0.36581 0.0
H50 H 0.3519 0.4947 0.26785 0.0
H51 H 0.28371 0.42982 0.29381 0.0
H52 H 0.27859 0.51228 0.41291 0.0
H53 H 0.37857 0.53294 0.42738 0.0
H54 H 0.32012 0.4894 0.45154 0.0
H55 H 0.50621 0.44052 0.38946 0.0
H56 H 0.47824 0.42483 0.43201 0.0
H57 H 0.50201 0.48624 0.42192 0.0
H58 H 0.39053 0.44263 0.5391 0.0
C59 C 0.36844 0.41675 0.48749 0.0
C60 C 0.35754 0.21833 0.81271 0.0
C61 C 0.38812 0.26174 0.82524 0.0
C62 C 0.38487 0.27098 0.86124 0.0
C63 C 0.31605 0.19443 0.8712 0.0
C64 C 0.32213 0.18556 0.83591 0.0
C65 C 0.28294 0.13914 0.82579 0.0
H66 H 0.05687 0.94309 0.86193 0.0
C67 C 0.2693 0.15374 0.88721 0.0
C68 C 0.24962 0.12187 0.86029 0.0
H69 H 0.15392 0.99383 0.76396 0.0
H70 H 0.21824 0.05924 0.79144 0.0
H71 H 0.22612 0.9735 0.90894 0.0
H72 H 0.99723 0.04527 0.8877 0.0
H73 H 0.02361 0.05627 0.93122 0.0
H74 H 0.00119 -0.00385 0.91725 0.0
H75 H 0.12699 0.95173 0.92374 0.0
H76 H 0.18482 0.99552 0.94803 0.0
C77 C 0.35253 0.10668 0.81179 0.0
C78 C 0.21191 0.14915 0.79983 0.0
C79 C 0.22972 0.13759 0.01824 0.0
C80 C 0.1917 0.10194 0.03872 0.0
C81 C 0.14022 0.06779 0.02251 0.0
C82 C 0.13286 0.06624 0.98626 0.0
C83 C 0.17748 0.09921 0.9659 0.0
C84 C 0.22095 0.13593 0.98185 0.0
C85 C 0.26141 0.16881 0.95559 0.0
C86 C 0.24204 0.14309 0.92169 0.0
C87 C 0.19284 0.10203 0.92805 0.0
C88 C 0.35555 0.17186 0.96272 0.0
C89 C 0.21774 0.2172 0.95763 0.0
C90 C 0.09229 0.9684 0.84657 0.0
C91 C 0.10205 0.96192 0.81037 0.0
C92 C 0.14751 -0.0037 0.79162 0.0
C93 C 0.18426 0.03528 0.80783 0.0
C94 C 0.17395 0.04169 0.84358 0.0
C95 C 0.12859 0.00884 0.86256 0.0
C96 C 0.12409 0.02303 0.90041 0.0
C97 C 0.17346 0.06992 0.90043 0.0
C98 C 0.20238 0.08004 0.86697 0.0
C99 C 0.1672 0.984 0.92169 0.0
C100 C 0.03188 0.03031 0.91 0.0
H101 H 0.34758 0.24657 0.91142 0.0
H102 H 0.35931 0.2104 0.78517 0.0
H103 H 0.19003 0.18626 0.80211 0.0
H104 H 0.15555 0.12724 0.8047 0.0
H105 H 0.23251 0.14312 0.77277 0.0
H106 H 0.41155 0.11303 0.8261 0.0
H107 H 0.36497 0.11355 0.78386 0.0
H108 H 0.33878 0.06843 0.81546 0.0
H109 H 0.27005 0.16403 0.03013 0.0
H110 H 0.11095 0.03991 0.03778 0.0
H111 H 0.0957 0.03804 0.97542 0.0
H112 H 0.3803 0.13594 0.968 0.0
H113 H 0.36895 0.19472 0.98564 0.0
H114 H 0.39124 0.1858 0.94043 0.0
H115 H 0.14941 0.21204 0.95982 0.0
H116 H 0.22747 0.23898 0.93419 0.0
H117 H 0.239 0.23775 0.98069 0.0
H118 H 0.40882 0.30438 0.87136 0.0
C119 C 0.34891 0.23755 0.88433 0.0
C120 C 0.78346 0.17079 0.51235 0.0
C121 C 0.80342 0.13714 0.4872 0.0
C122 C 0.837 0.09344 0.49762 0.0
C123 C 0.81747 0.11541 0.55821 0.0
C124 C 0.78856 0.15893 0.54723 0.0
C125 C 0.75314 0.18807 0.57581 0.0
H126 H 0.6458 0.21268 0.74302 0.0
C127 C 0.8051 0.11301 0.59639 0.0
C128 C 0.76646 0.15564 0.60623 0.0
H129 H 0.59492 0.30672 0.65752 0.0
H130 H 0.67085 0.25642 0.61855 0.0
H131 H 0.60202 0.11963 0.70283 0.0
H132 H 0.8279 0.19403 0.72502 0.0
H133 H 0.8596 0.13502 0.72167 0.0
H134 H 0.7852 0.15124 0.75466 0.0
H135 H 0.65245 0.11843 0.74426 0.0
H136 H 0.67366 0.0749 0.71109 0.0
C137 C 0.65946 0.1955 0.56813 0.0
C138 C 0.80554 0.2345 0.57887 0.0
C139 C 0.89683 0.97262 0.67207 0.0
C140 C 0.89281 0.96608 0.70849 0.0
C141 C 0.85786 0.00174 0.72924 0.0
C142 C 0.82531 0.04214 0.71456 0.0
C143 C 0.82928 0.04847 0.67862 0.0
C144 C 0.86521 0.01469 0.65766 0.0
C145 C 0.86403 0.02965 0.61981 0.0
C146 C 0.82297 0.07829 0.62228 0.0
C147 C 0.80226 0.08793 0.65701 0.0
C148 C 0.81053 0.99324 0.59948 0.0
C149 C 0.95421 0.03338 0.60661 0.0
C150 C 0.65153 0.22224 0.71587 0.0
C151 C 0.61445 0.26303 0.70296 0.0
C152 C 0.62239 0.27471 0.66763 0.0
C153 C 0.66634 0.24539 0.64511 0.0
C154 C 0.70077 0.20343 0.65801 0.0
C155 C 0.69327 0.19269 0.69282 0.0
C156 C 0.73178 0.14634 0.70179 0.0
C157 C 0.76228 0.13042 0.66642 0.0
C158 C 0.74449 0.164 0.64113 0.0
C159 C 0.66207 0.11292 0.71599 0.0
C160 C 0.8045 0.15679 0.72726 0.0
H161 H 0.86803 0.04826 0.53993 0.0
H162 H 0.75811 0.20477 0.505 0.0
H163 H 0.87265 0.22719 0.5754 0.0
H164 H 0.80078 0.2515 0.60465 0.0
H165 H 0.78754 0.26052 0.55871 0.0
H166 H 0.63362 0.16726 0.55083 0.0
H167 H 0.64914 0.23011 0.55518 0.0
H168 H 0.62025 0.19317 0.59168 0.0
H169 H 0.92396 0.946 0.65539 0.0
H170 H 0.85471 -0.00143 0.75723 0.0
H171 H 0.79809 0.06678 0.73217 0.0
H172 H 0.75166 0.9855 0.6136 0.0
H173 H 0.84388 0.95926 0.59622 0.0
H174 H 0.79244 0.00617 0.57365 0.0
H175 H 0.9924 0.05556 0.62459 0.0
H176 H 0.95898 0.0501 0.58082 0.0
H177 H 0.98243 -0.00233 0.60504 0.0
H178 H 0.85343 0.06711 0.47837 0.0
C179 C 0.8445 0.08243 0.53322 0.0
C180 C 0.84895 0.26561 0.21331 0.0
C181 C 0.88324 0.22379 0.20019 0.0
C182 C 0.87482 0.21279 0.16473 0.0
C183 C 0.8005 0.28585 0.15579 0.0
C184 C 0.80864 0.29617 0.19065 0.0
C185 C 0.77192 0.34306 0.20014 0.0
H186 H 0.57201 0.54196 0.15565 0.0
C187 C 0.75796 0.32607 0.13942 0.0
C188 C 0.74125 0.35963 0.16507 0.0
H189 H 0.64812 0.49227 0.257 0.0
H190 H 0.7088 0.42464 0.23142 0.0
H191 H 0.74795 0.50641 0.11401 0.0
H192 H 0.50933 0.43413 0.12484 0.0
H193 H 0.54254 0.43858 0.08102 0.0
H194 H 0.5186 0.49155 0.10473 0.0
H195 H 0.65526 0.5309 0.09599 0.0
H196 H 0.71043 0.48469 0.07391 0.0
C197 C 0.8429 0.37564 0.21413 0.0
C198 C 0.69946 0.3336 0.22599 0.0
C199 C 0.72 0.32229 1.01046 0.0
C200 C 0.69918 0.35646 0.98595 0.0
C201 C 0.665 0.3997 0.9972 0.0
C202 C 0.65768 0.4098 0.03295 0.0
C203 C 0.68522 0.37632 0.05729 0.0
C204 C 0.71452 0.33317 0.04556 0.0
C205 C 0.74894 0.30315 0.07374 0.0
C206 C 0.73583 0.33499 0.10466 0.0
C207 C 0.69739 0.37781 0.09544 0.0
C208 C 0.84251 0.29523 0.06605 0.0
C209 C 0.69551 0.25703 0.07611 0.0
C210 C 0.60157 0.51619 0.17217 0.0
C211 C 0.60562 0.52301 0.20854 0.0
C212 C 0.64455 0.48863 0.22904 0.0
C213 C 0.67946 0.44874 0.2141 0.0
C214 C 0.67425 0.44187 0.17817 0.0
C215 C 0.63604 0.475 0.15752 0.0
C216 C 0.63749 0.4604 0.11963 0.0
C217 C 0.67986 0.4122 0.12167 0.0
C218 C 0.70162 0.40248 0.15621 0.0
C219 C 0.69014 0.49753 0.09954 0.0
C220 C 0.54728 0.45601 0.1066 0.0
H221 H 0.82791 0.23281 0.11581 0.0
H222 H 0.85532 0.2751 0.24046 0.0
H223 H 0.67395 0.29686 0.22338 0.0
H224 H 0.64553 0.35649 0.22112 0.0
H225 H 0.71986 0.33828 0.25332 0.0
H226 H 0.90201 0.36888 0.20012 0.0
H227 H 0.85394 0.36925 0.24217 0.0
H228 H 0.8316 0.41384 0.21008 0.0
H229 H 0.74534 0.28852 1.00246 0.0
H230 H 0.64768 0.42637 0.97845 0.0
H231 H 0.63349 0.44366 0.04023 0.0
H232 H 0.86946 0.32419 0.04974 0.0
H233 H 0.85214 0.26126 0.052 0.0
H234 H 0.88118 0.29587 0.08971 0.0
H235 H 0.62873 0.26477 0.07221 0.0
H236 H 0.69858 0.23988 0.10182 0.0
H237 H 0.71402 0.23103 0.05591 0.0
H238 H 0.9002 0.18031 0.15427 0.0
C239 C 0.83283 0.24336 0.14249 0.0
C240 C 0.63491 0.4928 0.71419 0.0
C241 C 0.58655 0.45423 0.70217 0.0
C242 C 0.56656 0.45189 0.66651 0.0
C243 C 0.64222 0.5256 0.65586 0.0
C244 C 0.6621 0.52771 0.69073 0.0
C245 C 0.71349 0.57102 0.69949 0.0
H246 H 0.87864 0.78333 0.65495 0.0
C247 C 0.67837 0.56833 0.63879 0.0
C248 C 0.71951 0.59508 0.66432 0.0
H249 H 0.89174 0.70984 0.75286 0.0
H250 H 0.81889 0.64255 0.72868 0.0
H251 H 0.92947 0.68176 0.61138 0.0
H252 H 0.69447 0.75045 0.62872 0.0
H253 H 0.70582 0.7349 0.5845 0.0
H254 H 0.77601 0.7778 0.60353 0.0
H255 H 0.90682 0.7384 0.59259 0.0
H256 H 0.87306 0.68366 0.57243 0.0
C257 C 0.79974 0.55474 0.71236 0.0
C258 C 0.66428 0.60108 0.72606 0.0
C259 C 0.65865 0.58637 0.50832 0.0
C260 C 0.69439 0.61866 0.48472 0.0
C261 C 0.73094 0.66094 0.49751 0.0
C262 C 0.73711 0.66916 0.53354 0.0
C263 C 0.7074 0.63439 0.55691 0.0
C264 C 0.6665 0.59455 0.54403 0.0
C265 C 0.64152 0.56025 0.57215 0.0
C266 C 0.67745 0.58471 0.60391 0.0
C267 C 0.71576 0.62841 0.59508 0.0
C268 C 0.68331 0.51195 0.56487 0.0
C269 C 0.5456 0.55785 0.57341 0.0
C270 C 0.86495 0.75258 0.67094 0.0
C271 C 0.88701 0.75218 0.70628 0.0
C272 C 0.87197 0.71127 0.7261 0.0
C273 C 0.83017 0.67216 0.71186 0.0
C274 C 0.80485 0.67345 0.67703 0.0
C275 C 0.82496 0.71228 0.65665 0.0
C276 C 0.80061 0.70422 0.61918 0.0
C277 C 0.75677 0.65586 0.62129 0.0
C278 C 0.75954 0.63856 0.65545 0.0
C279 C 0.88128 0.70215 0.59746 0.0
C280 C 0.74136 0.74398 0.60809 0.0
H281 H 0.57664 0.48326 0.61665 0.0
H282 H 0.65109 0.49608 0.7413 0.0
H283 H 0.59698 0.60049 0.71979 0.0
H284 H 0.68245 0.63901 0.72598 0.0
H285 H 0.67135 0.58706 0.7528 0.0
H286 H 0.81266 0.51736 0.70491 0.0
H287 H 0.80453 0.55726 0.74098 0.0
H288 H 0.85124 0.57595 0.70078 0.0
H289 H 0.63152 0.55323 0.49912 0.0
H290 H 0.75995 0.68593 0.47975 0.0
H291 H 0.76782 0.70128 0.54181 0.0
H292 H 0.74644 0.51745 0.55374 0.0
H293 H 0.64665 0.49035 0.54606 0.0
H294 H 0.69304 0.49075 0.58853 0.0
H295 H 0.51885 0.59333 0.56821 0.0
H296 H 0.52115 0.54773 0.59919 0.0
H297 H 0.52067 0.53277 0.55358 0.0
H298 H 0.52927 0.42273 0.65637 0.0
C299 C 0.59395 0.48727 0.6434 0.0
C300 C 0.64286 0.77164 0.20784 0.0
C301 C 0.60811 0.72985 0.19424 0.0
C302 C 0.60761 0.72286 0.15799 0.0
C303 C 0.68126 0.79808 0.14968 0.0
C304 C 0.67826 0.80513 0.18524 0.0
C305 C 0.71723 0.85137 0.19598 0.0
H306 H 0.93979 0.04881 0.16103 0.0
C307 C 0.72672 0.83935 0.13418 0.0
C308 C 0.74765 0.87025 0.16148 0.0
H309 H 0.85156 0.99427 0.2593 0.0
H310 H 0.78371 0.93012 0.23123 0.0
H311 H -0.00131 0.94778 0.13358 0.0
H312 H 0.76924 0.02017 0.11486 0.0
H313 H 0.8086 -0.00118 0.07518 0.0
H314 H 0.86785 0.04201 0.09951 0.0
H315 H 0.99349 -0.00269 0.10445 0.0
H316 H 0.97056 0.93737 0.09021 0.0
C317 C 0.7904 0.84098 0.22079 0.0
C318 C 0.64802 0.88282 0.21152 0.0
C319 C 0.76841 0.85573 1.00352 0.0
C320 C 0.80652 0.89137 0.98317 0.0
C321 C 0.85584 0.92643 0.9995 0.0
C322 C 0.86153 0.92851 0.03577 0.0
C323 C 0.81743 0.89513 0.05595 0.0
C324 C 0.7753 0.858 0.03988 0.0
C325 C 0.73374 0.82528 0.06585 0.0
C326 C 0.75282 0.85082 0.09978 0.0
C327 C 0.80159 0.89205 0.0937 0.0
C328 C 0.77658 0.77663 0.06382 0.0
C329 C 0.6396 0.82303 0.05833 0.0
C330 C 0.90553 0.02294 0.17635 0.0
C331 C 0.89838 0.02801 0.21275 0.0
C332 C 0.85491 0.99291 0.2315 0.0
C333 C 0.81646 0.95472 0.21494 0.0
C334 C 0.82393 0.94979 0.17891 0.0
C335 C 0.86819 0.9832 0.16004 0.0
C336 C 0.87124 0.97019 0.12197 0.0
C337 C 0.8217 0.92345 0.12161 0.0
C338 C 0.79423 0.91234 0.15512 0.0
C339 C 0.96309 0.96305 0.11167 0.0
C340 C 0.82749 0.0098 0.10151 0.0
H341 H 0.643 0.74925 0.10824 0.0
H342 H 0.64167 0.7785 0.2355 0.0
H343 H 0.58839 0.87703 0.19755 0.0
H344 H 0.66128 0.92129 0.20889 0.0
H345 H 0.63701 0.87438 0.23933 0.0
H346 H 0.81065 0.80353 0.21875 0.0
H347 H 0.77316 0.84814 0.24809 0.0
H348 H 0.84692 0.86217 0.21462 0.0
H349 H 0.7292 0.82883 0.99151 0.0
H350 H 0.88476 0.95444 0.98425 0.0
H351 H 0.89706 0.95731 0.04671 0.0
H352 H 0.84505 0.78142 0.06209 0.0
H353 H 0.75581 0.75646 0.04051 0.0
H354 H 0.76565 0.75458 0.08705 0.0
H355 H 0.61646 0.85882 0.05149 0.0
H356 H 0.60255 0.81159 0.081 0.0
H357 H 0.62571 0.79869 0.03629 0.0
H358 H 0.57911 0.6911 0.14708 0.0
C359 C 0.64467 0.75659 0.13559 0.0
C360 C 0.14404 0.99453 0.31051 0.0
C361 C 0.10304 0.0339 0.32393 0.0
C362 C 0.0899 0.03665 0.36028 0.0
C363 C 0.15594 0.96058 0.36841 0.0
C364 C 0.1709 0.95919 0.33302 0.0
C365 C 0.21854 0.91663 0.32223 0.0
H366 H 0.38116 0.70429 0.35717 0.0
C367 C 0.18847 0.91614 0.38367 0.0
C368 C 0.22441 0.89049 0.35631 0.0
H369 H 0.38487 0.78326 0.26092 0.0
H370 H 0.31216 0.84673 0.28798 0.0
H371 H 0.42472 0.80037 0.40695 0.0
H372 H 0.20308 0.72324 0.37833 0.0
H373 H 0.18354 0.74646 0.41983 0.0
H374 H 0.266 0.7044 0.4139 0.0
H375 H 0.40256 0.73979 0.41865 0.0
H376 H 0.36632 0.78818 0.44464 0.0
C377 C 0.30512 0.93426 0.30939 0.0
C378 C 0.16634 0.88855 0.295 0.0
C379 C 0.17926 0.88037 0.51387 0.0
C380 C 0.20602 0.84063 0.53274 0.0
C381 C 0.22767 0.79902 0.51496 0.0
C382 C 0.22948 0.79789 0.47878 0.0
C383 C 0.21056 0.83903 0.46015 0.0
C384 C 0.18145 0.87864 0.47733 0.0
C385 C 0.15946 0.91773 0.45221 0.0
C386 C 0.18695 0.89621 0.41773 0.0
C387 C 0.21794 0.85025 0.423 0.0
C388 C 0.20996 0.96302 0.46154 0.0
C389 C 0.06468 0.92446 0.45379 0.0
C390 C 0.36656 0.73552 0.34214 0.0
C391 C 0.38769 0.73856 0.30674 0.0
C392 C 0.36818 0.77977 0.28807 0.0
C393 C 0.32616 0.81683 0.30394 0.0
C394 C 0.30365 0.81309 0.33904 0.0
C395 C 0.32462 0.77331 0.35774 0.0
C396 C 0.29723 0.77669 0.39506 0.0
C397 C 0.2558 0.82507 0.39532 0.0
C398 C 0.25972 0.84565 0.36239 0.0
C399 C 0.37631 0.77603 0.4178 0.0
C400 C 0.23464 0.73553 0.40246 0.0
H401 H 0.10334 0.00406 0.40975 0.0
H402 H 0.15512 0.99087 0.28292 0.0
H403 H 0.09877 0.89221 0.30005 0.0
H404 H 0.17668 0.84987 0.29572 0.0
H405 H 0.17884 0.90169 0.26831 0.0
H406 H 0.32409 0.96823 0.32216 0.0
H407 H 0.30531 0.94057 0.28094 0.0
H408 H 0.35531 0.9095 0.31598 0.0
H409 H 0.16157 0.91258 0.5272 0.0
H410 H 0.24722 0.768 0.52921 0.0
H411 H 0.24857 0.76549 0.46679 0.0
H412 H 0.27572 0.95413 0.46672 0.0
H413 H 0.18455 0.98029 0.48516 0.0
H414 H 0.21139 0.98928 0.44035 0.0
H415 H 0.03176 0.88945 0.45378 0.0
H416 H 0.04049 0.94374 0.43121 0.0
H417 H 0.0468 0.94366 0.47785 0.0
H418 H 0.05897 0.06686 0.37159 0.0
C419 C 0.11545 5e-05 0.38251 0.0
C420 C 0.15156 0.72472 0.80655 0.0
C421 C 0.11296 0.76492 0.81977 0.0
C422 C 0.10759 0.77208 0.85583 0.0
C423 C 0.18074 0.69911 0.86522 0.0
C424 C 0.18421 0.69214 0.82978 0.0
C425 C 0.22307 0.64607 0.8202 0.0
H426 H 0.42108 0.44722 0.86429 0.0
C427 C 0.22192 0.65876 0.88177 0.0
C428 C 0.24733 0.62785 0.8557 0.0
H429 H 0.34706 0.49864 0.7631 0.0
H430 H 0.28831 0.56637 0.78887 0.0
H431 H 0.48443 0.55895 0.89097 0.0
H432 H 0.25239 0.48324 0.91137 0.0
H433 H 0.30354 0.50371 0.94956 0.0
H434 H 0.35045 0.4586 0.92344 0.0
H435 H 0.48273 0.50358 0.91414 0.0
H436 H 0.45749 0.55836 0.93546 0.0
C437 C 0.29964 0.65722 0.79684 0.0
C438 C 0.15471 0.61417 0.8033 0.0
C439 C 0.26726 0.66693 1.00998 0.0
C440 C 0.32115 0.64401 0.03246 0.0
C441 C 0.35882 0.60155 0.02141 0.0
C442 C 0.34759 0.5847 0.98713 0.0
C443 C 0.29926 0.61104 0.96389 0.0
C444 C 0.25938 0.65108 0.97597 0.0
C445 C 0.21898 0.67875 0.94796 0.0
C446 C 0.24071 0.64914 0.91674 0.0
C447 C 0.28632 0.60864 0.92573 0.0
C448 C 0.26035 0.7291 0.94682 0.0
C449 C 0.12426 0.67836 0.95493 0.0
C450 C 0.39171 0.47324 0.84793 0.0
C451 C 0.38727 0.46672 0.81149 0.0
C452 C 0.35036 0.50187 0.7911 0.0
C453 C 0.31611 0.54173 0.80622 0.0
C454 C 0.32027 0.54788 0.84223 0.0
C455 C 0.35798 0.51452 0.86279 0.0
C456 C 0.35934 0.52991 0.9006 0.0
C457 C 0.31158 0.57646 0.89904 0.0
C458 C 0.29066 0.58633 0.86443 0.0
C459 C 0.45074 0.53801 0.91116 0.0
C460 C 0.31424 0.49185 0.92264 0.0
H461 H 0.13506 0.74663 0.90591 0.0
H462 H 0.15304 0.71766 0.7789 0.0
H463 H 0.09254 0.62162 0.81449 0.0
H464 H 0.16337 0.57588 0.80818 0.0
H465 H 0.15099 0.62032 0.77488 0.0
H466 H 0.32539 0.69345 0.80193 0.0
H467 H 0.28333 0.6553 0.76888 0.0
H468 H 0.35226 0.63347 0.80191 0.0
H469 H 0.23621 0.69908 0.01793 0.0
H470 H 0.39987 0.58278 0.03865 0.0
H471 H 0.37903 0.55297 0.97966 0.0
H472 H 0.32479 0.72877 0.95706 0.0
H473 H 0.22507 0.75492 0.96266 0.0
H474 H 0.2678 0.74312 0.92022 0.0
H475 H 0.10307 0.64333 0.96524 0.0
H476 H 0.08731 0.6836 0.93116 0.0
H477 H 0.10752 0.70587 0.97434 0.0
H478 H 0.0764 0.80284 0.86626 0.0
C479 C 0.14141 0.73935 0.87871 0.0
Eu480 Eu 0.1067 0.13168 0.22899 0.0
C481 C 0.72375 0.10417 0.28037 0.0
N482 N 0.77074 0.14454 0.28136 0.0
C483 C 0.65651 0.18892 0.25925 0.0
C484 C 0.64244 0.10414 0.26698 0.0
C485 C 0.73639 0.18716 0.27319 0.0
C486 C 0.61034 0.14699 0.2551 0.0
C487 C 0.70628 0.0216 0.29685 0.0
C488 C 0.75523 0.06347 0.29484 0.0
C489 C 0.62683 0.02064 0.28198 0.0
C490 C 0.59509 0.06182 0.26692 0.0
Eu491 Eu 0.9103 0.13663 0.30018 0.0
N492 N 0.83286 0.06536 0.30822 0.0
C493 C 0.73838 0.98225 0.31417 0.0
C494 C 0.86316 0.02795 0.32648 0.0
C495 C 0.81672 0.98571 0.32952 0.0
H496 H 0.77079 0.21995 0.27707 0.0
H497 H 0.84176 0.95571 0.34329 0.0
H498 H 0.23887 0.05435 0.26514 0.0
H499 H 0.15766 0.31693 0.19124 0.0
H500 H 0.92395 0.03045 0.33795 0.0
H501 H 0.7029 0.94938 0.31619 0.0
H502 H 0.07675 0.24262 0.19811 0.0
H503 H 0.63047 0.22257 0.25183 0.0
H504 H 0.58883 0.98859 0.28266 0.0
H505 H 0.53299 0.06094 0.25627 0.0
H506 H 0.37569 0.05627 0.29341 0.0
H507 H 0.54899 0.14835 0.24387 0.0
H508 H 0.30083 0.32277 0.21367 0.0
N509 N 0.23958 0.12818 0.25402 0.0
C510 C 0.28537 0.16914 0.25282 0.0
C511 C 0.35063 0.08838 0.28246 0.0
C512 C 0.36541 0.17142 0.26745 0.0
C513 C 0.27233 0.08758 0.26703 0.0
C514 C 0.39672 0.13071 0.28328 0.0
N515 N 0.17231 0.20697 0.22513 0.0
C516 C 0.13839 0.24492 0.20877 0.0
C517 C 0.2996 0.25124 0.2342 0.0
C518 C 0.25171 0.20916 0.23722 0.0
C519 C 0.26542 0.29009 0.21708 0.0
C520 C 0.18443 0.287 0.20449 0.0
H521 H 0.45711 0.13127 0.2955 0.0
H522 H 0.47305 0.21649 0.27697 0.0
H523 H 0.417 0.28561 0.24667 0.0
O524 O 0.14112 0.14648 0.17476 0.0
O525 O 0.12504 0.17256 0.27972 0.0
O526 O 0.99415 0.19845 0.28753 0.0
O527 O 0.17029 0.07773 0.19794 0.0
O528 O 0.99394 0.17099 0.21032 0.0
O529 O 0.9015 0.18848 0.25557 0.0
O530 O 0.92384 0.12806 0.35655 0.0
O531 O 0.9228 0.07172 0.26557 0.0
O532 O 0.98106 0.09995 0.21477 0.0
O533 O 0.85995 0.18838 0.33581 0.0
O534 O 0.03616 0.10794 0.31432 0.0
O535 O 0.09014 0.06943 0.26659 0.0
C536 C 0.07166 0.19845 0.29669 0.0
C537 C 0.21218 0.08987 0.13744 0.0
C538 C 0.22351 0.09163 0.07395 0.0
C539 C 0.29498 0.06406 0.0762 0.0
C540 C 0.2831 0.06175 0.13873 0.0
C541 C 0.32436 0.0492 0.10831 0.0
C542 C 0.18196 0.10486 0.10476 0.0
C543 C 0.92827 0.19203 0.2233 0.0
C544 C 0.17399 0.10501 0.17056 0.0
C545 C 0.41181 0.21392 0.26559 0.0
C546 C 0.37977 0.25334 0.24837 0.0
C547 C 0.93598 0.06868 0.23187 0.0
C548 C 0.81555 0.16058 0.39048 0.0
C549 C 0.77943 0.14691 0.45097 0.0
C550 C 0.69862 0.16259 0.44413 0.0
C551 C 0.73425 0.17573 0.3841 0.0
C552 C 0.83755 0.14544 0.42392 0.0
C553 C 0.67629 0.17672 0.41088 0.0
C554 C 0.07371 0.07162 0.30031 0.0
C555 C 0.87978 0.16516 0.36358 0.0
H556 H 0.32734 0.05322 0.05286 0.0
H557 H 0.30769 0.05021 0.16341 0.0
H558 H 0.37933 0.02773 0.10962 0.0
H559 H 0.12662 0.1261 0.10329 0.0
H560 H 0.65296 0.16457 0.46474 0.0
H561 H 0.71579 0.18789 0.35864 0.0
H562 H 0.90065 0.13494 0.42925 0.0
H563 H 0.61433 0.1893 0.40601 0.0
Eu564 Eu 0.38671 0.3532 0.7283 0.0
C565 C 0.7713 0.38966 0.77974 0.0
N566 N 0.72443 0.34937 0.78237 0.0
C567 C 0.83995 0.30309 0.76342 0.0
C568 C 0.85362 0.3884 0.76738 0.0
C569 C 0.75952 0.30608 0.77673 0.0
C570 C 0.88627 0.34458 0.75769 0.0
C571 C 0.78691 0.47395 0.79144 0.0
C572 C 0.73824 0.43191 0.79118 0.0
C573 C 0.86821 0.47317 0.7783 0.0
C574 C 0.90123 0.43056 0.76596 0.0
Eu575 Eu 0.58336 0.35918 0.79892 0.0
N576 N 0.65915 0.43157 0.80319 0.0
C577 C 0.75265 0.5153 0.80534 0.0
C578 C 0.6263 0.4713 0.81783 0.0
C579 C 0.67215 0.51387 0.8188 0.0
H580 H 0.72486 0.27365 0.78176 0.0
H581 H 0.64537 0.54553 0.82984 0.0
H582 H 0.25531 0.42784 0.76723 0.0
H583 H 0.33582 0.1692 0.68585 0.0
H584 H 0.56419 0.47018 0.82823 0.0
H585 H 0.78801 0.54831 0.80612 0.0
H586 H 0.41559 0.24337 0.69337 0.0
H587 H 0.86615 0.26882 0.75761 0.0
H588 H 0.90635 0.50518 0.77794 0.0
H589 H 0.96439 0.43032 0.75634 0.0
H590 H 0.11899 0.42474 0.79606 0.0
H591 H 0.94794 0.34224 0.74679 0.0
H592 H 0.19405 0.16168 0.70972 0.0
N593 N 0.25493 0.35451 0.75454 0.0
C594 C 0.2095 0.31353 0.75267 0.0
C595 C 0.1441 0.39307 0.78432 0.0
C596 C 0.12961 0.3106 0.76752 0.0
C597 C 0.22211 0.39456 0.76855 0.0
C598 C 0.09837 0.35063 0.78446 0.0
N599 N 0.32204 0.27746 0.72321 0.0
C600 C 0.35514 0.24042 0.70518 0.0
C601 C 0.1954 0.23234 0.73204 0.0
C602 C 0.24331 0.27431 0.73603 0.0
C603 C 0.22926 0.19433 0.71366 0.0
C604 C 0.30948 0.19834 0.70032 0.0
H605 H 0.03831 0.3495 0.79705 0.0
H606 H 0.0218 0.26528 0.77595 0.0
H607 H 0.07796 0.19744 0.74378 0.0
O608 O 0.35302 0.33929 0.67398 0.0
O609 O 0.36563 0.32092 0.78191 0.0
O610 O 0.49663 0.29678 0.7904 0.0
O611 O 0.32456 0.40787 0.69789 0.0
O612 O 0.49633 0.30907 0.71329 0.0
O613 O 0.60014 0.30551 0.75577 0.0
O614 O 0.57801 0.37453 0.85482 0.0
O615 O 0.57575 0.4193 0.75952 0.0
O616 O 0.5154 0.3802 0.71357 0.0
O617 O 0.6266 0.30806 0.83643 0.0
O618 O 0.45947 0.39227 0.812 0.0
O619 O 0.40715 0.4199 0.76013 0.0
C620 C 0.41947 0.29765 0.80041 0.0
C621 C 0.28349 0.39671 0.63747 0.0
C622 C 0.27234 0.39436 0.57425 0.0
C623 C 0.2033 0.42394 0.57634 0.0
C624 C 0.21513 0.42684 0.6388 0.0
C625 C 0.1751 0.44012 0.60839 0.0
C626 C 0.31259 0.38052 0.60494 0.0
C627 C 0.56658 0.29336 0.72585 0.0
C628 C 0.32081 0.38097 0.67028 0.0
C629 C 0.08315 0.26825 0.76462 0.0
C630 C 0.11522 0.2296 0.74632 0.0
C631 C 0.5563 0.4168 0.72638 0.0
C632 C 0.68065 0.33756 0.88899 0.0
C633 C 0.72086 0.34749 0.94931 0.0
C634 C 0.8004 0.33089 0.94101 0.0
C635 C 0.76064 0.32145 0.88105 0.0
C636 C 0.66144 0.35132 0.92306 0.0
C637 C 0.8201 0.31817 0.90705 0.0
C638 C 0.42025 0.42429 0.79382 0.0
C639 C 0.61415 0.33521 0.86315 0.0
H640 H 0.17223 0.43535 0.55294 0.0
H641 H 0.19166 0.43945 0.66348 0.0
H642 H 0.12214 0.46319 0.60966 0.0
H643 H 0.36629 0.3579 0.60348 0.0
H644 H 0.84713 0.32726 0.96096 0.0
H645 H 0.77672 0.31029 0.855 0.0
H646 H 0.59924 0.36258 0.92946 0.0
H647 H 0.88111 0.30492 0.901 0.0
Eu648 Eu 0.08634 0.85642 0.72085 0.0
C649 C 0.71627 0.81521 0.76735 0.0
N650 N 0.76023 0.85679 0.76737 0.0
C651 C 0.65018 0.89564 0.73765 0.0
C652 C 0.63823 0.81195 0.75104 0.0
C653 C 0.72712 0.89714 0.75418 0.0
C654 C 0.60632 0.85264 0.73542 0.0
C655 C 0.70422 0.73256 0.78467 0.0
C656 C 0.74963 0.7758 0.78364 0.0
C657 C 0.62714 0.72898 0.7679 0.0
C658 C 0.59442 0.76849 0.75102 0.0
Eu659 Eu 0.8923 0.85542 0.79314 0.0
N660 N 0.82535 0.78 0.79906 0.0
C661 C 0.73689 0.69437 0.80304 0.0
C662 C 0.85485 0.7437 0.81886 0.0
C663 C 0.8117 0.70028 0.82075 0.0
H664 H 0.75951 0.93061 0.75667 0.0
H665 H 0.83609 0.67143 0.83597 0.0
H666 H 0.22454 0.76998 0.73917 0.0
H667 H 0.15744 0.03798 0.68047 0.0
H668 H 0.91116 0.7478 0.83367 0.0
H669 H 0.70391 0.6606 0.80441 0.0
H670 H 0.07271 0.96409 0.6856 0.0
H671 H 0.62471 0.92763 0.72671 0.0
H672 H 0.59183 0.69594 0.76819 0.0
H673 H 0.53457 0.76526 0.73846 0.0
H674 H 0.36667 0.76452 0.76249 0.0
H675 H 0.54727 0.85148 0.72212 0.0
H676 H 0.29898 0.04138 0.70528 0.0
N677 N 0.22744 0.8455 0.7365 0.0
C678 C 0.27577 0.88529 0.73778 0.0
C679 C 0.34162 0.79879 0.75593 0.0
C680 C 0.35808 0.88378 0.74992 0.0
C681 C 0.26104 0.80207 0.74296 0.0
C682 C 0.38949 0.84004 0.76043 0.0
N683 N 0.1655 0.92676 0.71275 0.0
C684 C 0.13478 0.96533 0.69599 0.0
C685 C 0.29465 0.96838 0.723 0.0
C686 C 0.2444 0.92705 0.72482 0.0
C687 C 0.26246 0.00887 0.70716 0.0
C688 C 0.18257 0.00708 0.6931 0.0
H689 H 0.45139 0.83749 0.77095 0.0
H690 H 0.46976 0.92529 0.76003 0.0
H691 H 0.41443 -0.00063 0.7361 0.0
O692 O 0.07242 0.86736 0.66481 0.0
O693 O 0.07734 0.91933 0.75727 0.0
O694 O 0.017 0.89017 0.80782 0.0
O695 O 0.13433 0.80528 0.68369 0.0
O696 O 0.96291 0.89067 0.70798 0.0
O697 O 0.9132 0.92036 0.75997 0.0
O698 O 0.87058 0.84413 0.84921 0.0
O699 O 0.87345 0.82262 0.73953 0.0
O700 O 0.00226 0.79359 0.73138 0.0
O701 O 0.82137 0.90657 0.82304 0.0
O702 O 0.99394 0.80627 0.80583 0.0
O703 O 0.10908 0.81243 0.76887 0.0
C704 C 0.06475 0.92103 0.79111 0.0
C705 C 0.18172 0.83745 0.63064 0.0
C706 C 0.22436 0.84365 0.57013 0.0
C707 C 0.30765 0.84434 0.58064 0.0
C708 C 0.26545 0.83882 0.6407 0.0
C709 C 0.32796 0.84223 0.61575 0.0
C710 C 0.16128 0.84049 0.59523 0.0
C711 C 0.92407 0.92329 0.72606 0.0
C712 C 0.11569 0.83041 0.6566 0.0
C713 C 0.40685 0.92556 0.75026 0.0
C714 C 0.37537 0.96773 0.73661 0.0
C715 C 0.9239 0.79407 0.72325 0.0
C716 C 0.78858 0.8989 0.88438 0.0
C717 C 0.7762 0.90055 0.94767 0.0
C718 C 0.70463 0.92784 0.94447 0.0
C719 C 0.71731 0.92665 0.88206 0.0
C720 C 0.81847 0.88578 0.91748 0.0
C721 C 0.67559 0.94083 0.91191 0.0
C722 C 0.06989 0.79669 0.79664 0.0
C723 C 0.82761 0.88265 0.85183 0.0
H724 H 0.35703 0.84572 0.56153 0.0
H725 H 0.28273 0.8364 0.66775 0.0
H726 H 0.39234 0.84243 0.6236 0.0
H727 H 0.09694 0.83861 0.58718 0.0
H728 H 0.67174 0.93972 0.96739 0.0
H729 H 0.69287 0.93682 0.85702 0.0
H730 H 0.87389 0.86473 0.91976 0.0
H731 H 0.62048 0.96205 0.90979 0.0
Eu732 Eu 0.40369 0.62977 0.2236 0.0
C733 C 0.77355 0.67865 0.27223 0.0
N734 N 0.73114 0.63677 0.26935 0.0
C735 C 0.84967 0.59989 0.24396 0.0
C736 C 0.85649 0.68264 0.26084 0.0
C737 C 0.76826 0.59734 0.2563 0.0
C738 C 0.89368 0.64286 0.24586 0.0
C739 C 0.77781 0.76086 0.29137 0.0
C740 C 0.73383 0.7177 0.28664 0.0
C741 C 0.86112 0.76453 0.28082 0.0
C742 C 0.89991 0.7258 0.26511 0.0
Eu743 Eu 0.59613 0.63608 0.29244 0.0
N744 N 0.65291 0.71331 0.29653 0.0
C745 C 0.73693 0.79901 0.30686 0.0
C746 C 0.61359 0.74995 0.31242 0.0
C747 C 0.65439 0.79359 0.31723 0.0
H748 H 0.73603 0.56365 0.25614 0.0
H749 H 0.62278 0.82269 0.32969 0.0
H750 H 0.27223 0.71233 0.25479 0.0
H751 H 0.34271 0.44596 0.18701 0.0
H752 H 0.55206 0.74524 0.32268 0.0
H753 H 0.7687 0.83269 0.31115 0.0
H754 H 0.42608 0.52014 0.19234 0.0
H755 H 0.87873 0.5686 0.23338 0.0
H756 H 0.89578 0.79747 0.28424 0.0
H757 H 0.96385 0.72943 0.25673 0.0
H758 H 0.13378 0.71453 0.28189 0.0
H759 H 0.95658 0.64477 0.23607 0.0
H760 H 0.20141 0.44157 0.21218 0.0
N761 N 0.26968 0.63758 0.24734 0.0
C762 C 0.22224 0.5972 0.24739 0.0
C763 C 0.15832 0.68119 0.27269 0.0
C764 C 0.14108 0.5972 0.26106 0.0
C765 C 0.23767 0.67968 0.25813 0.0
C766 C 0.11041 0.63959 0.27478 0.0
N767 N 0.33378 0.55632 0.22099 0.0
C768 C 0.36488 0.51826 0.20361 0.0
C769 C 0.20479 0.51425 0.23086 0.0
C770 C 0.25431 0.55586 0.233 0.0
C771 C 0.23753 0.47419 0.2144 0.0
C772 C 0.31746 0.47645 0.20027 0.0
H773 H 0.04912 0.64086 0.28623 0.0
H774 H 0.03037 0.55463 0.2706 0.0
H775 H 0.08576 0.48223 0.24386 0.0
O776 O 0.40791 0.61238 0.16848 0.0
O777 O 0.3879 0.58893 0.2745 0.0
O778 O 0.51717 0.57019 0.29589 0.0
O779 O 0.31597 0.66141 0.18788 0.0
O780 O 0.52275 0.59346 0.20808 0.0
O781 O 0.58241 0.56978 0.25958 0.0
O782 O 0.59769 0.64562 0.35016 0.0
O783 O 0.61649 0.67163 0.23946 0.0
O784 O 0.48766 0.69414 0.21931 0.0
O785 O 0.68339 0.59819 0.32375 0.0
O786 O 0.4731 0.66929 0.30684 0.0
O787 O 0.42282 0.69684 0.25475 0.0
C788 C 0.43637 0.5662 0.29618 0.0
C789 C 0.35372 0.66662 0.12862 0.0
C790 C 0.3421 0.66773 0.06575 0.0
C791 C 0.35866 0.71705 0.06639 0.0
C792 C 0.37015 0.71566 0.12889 0.0
C793 C 0.37263 0.74072 0.09775 0.0
C794 C 0.34073 0.64262 0.09706 0.0
C795 C 0.56931 0.56474 0.22601 0.0
C796 C 0.34622 0.63973 0.16082 0.0
C797 C 0.0928 0.55527 0.26016 0.0
C798 C 0.12434 0.51404 0.2449 0.0
C799 C 0.56891 0.695 0.21774 0.0
C800 C 0.69704 0.60001 0.38606 0.0
C801 C 0.7138 0.60151 0.44928 0.0
C802 C 0.77037 0.56428 0.44655 0.0
C803 C 0.7542 0.56274 0.38445 0.0
C804 C 0.67709 0.61978 0.41885 0.0
C805 C 0.79046 0.5452 0.41441 0.0
C806 C 0.42899 0.69922 0.28872 0.0
C807 C 0.65795 0.61545 0.35314 0.0
H808 H 0.36043 0.73742 0.04256 0.0
H809 H 0.38029 0.73453 0.15309 0.0
H810 H 0.38467 0.77865 0.09791 0.0
H811 H 0.32667 0.60482 0.09702 0.0
H812 H 0.79911 0.54982 0.46956 0.0
H813 H 0.77069 0.54652 0.35991 0.0
H814 H 0.63272 0.64817 0.42078 0.0
H815 H 0.83399 0.5164 0.41272 0.0
loop_
_geom_bond_atom_site_label_1
_geom_bond_atom_site_label_2
_geom_bond_distance
_geom_bond_site_symmetry_2
_ccdc_geom_bond_type
C0 C1 1.391 . S
C0 C4 1.391 . S
C0 H42 0.948 . S
C1 C0 1.391 . S
C1 C2 1.391 . S
C2 C1 1.391 . S
C2 H58 0.947 . S
C2 C59 1.392 . S
C3 C4 1.391 . S
C3 C7 1.397 . S
C3 C59 1.419 . S
C4 C0 1.391 . S
C4 C3 1.391 . S
C4 C5 1.399 . S
C5 C4 1.399 . S
C5 C8 1.396 . S
C5 C17 1.453 . S
C5 C18 1.684 . S
H6 C30 0.948 . S
C7 C3 1.397 . S
C7 C8 1.394 . S
C7 C26 1.723 . S
C8 C5 1.396 . S
C8 C7 1.394 . S
C8 C38 1.723 . S
H9 C32 0.947 . S
H10 C33 0.948 . S
H11 C39 0.982 . S
H12 C40 0.979 . S
H13 C40 0.980 . S
H14 C40 0.983 . S
H15 C39 0.979 . S
H16 C39 0.977 . S
C17 C5 1.453 . S
C17 H46 0.982 . S
C17 H47 0.979 . S
C17 H48 0.977 . S
C18 C5 1.684 . S
C18 H43 0.979 . S
C18 H44 0.980 . S
C18 H45 0.983 . S
C19 C20 1.391 . S
C19 C24 1.391 . S
C19 H49 0.948 . S
C20 C19 1.391 . S
C20 C21 1.391 . S
C21 C20 1.391 . S
C21 C22 1.392 . S
C21 H50 0.947 . S
C22 C21 1.392 . S
C22 C23 1.419 . S
C22 H51 0.948 . S
C23 C22 1.419 . S
C23 C24 1.391 . S
C23 C27 1.397 . S
C24 C19 1.391 . S
C24 C23 1.391 . S
C24 C25 1.399 . S
C25 C24 1.399 . S
C25 C26 1.396 . S
C25 C28 1.453 . S
C25 C29 1.684 . S
C26 C7 1.723 . S
C26 C25 1.396 . S
C26 C27 1.394 . S
C27 C23 1.397 . S
C27 C26 1.394 . S
C27 C37 1.723 . S
C28 C25 1.453 . S
C28 H52 0.982 . S
C28 H53 0.979 . S
C28 H54 0.977 . S
C29 C25 1.684 . S
C29 H55 0.979 . S
C29 H56 0.980 . S
C29 H57 0.983 . S
C30 H6 0.948 . S
C30 C31 1.391 . S
C30 C35 1.391 . S
C31 C30 1.391 . S
C31 C32 1.391 . S
C32 H9 0.947 . S
C32 C31 1.391 . S
C32 C33 1.392 . S
C33 H10 0.948 . S
C33 C32 1.392 . S
C33 C34 1.419 . S
C34 C33 1.419 . S
C34 C35 1.391 . S
C34 C38 1.397 . S
C35 C30 1.391 . S
C35 C34 1.391 . S
C35 C36 1.399 . S
C36 C35 1.399 . S
C36 C37 1.396 . S
C36 C39 1.453 . S
C36 C40 1.684 . S
C37 C27 1.723 . S
C37 C36 1.396 . S
C37 C38 1.394 . S
C38 C8 1.723 . S
C38 C34 1.397 . S
C38 C37 1.394 . S
C39 H11 0.982 . S
C39 H15 0.979 . S
C39 H16 0.977 . S
C39 C36 1.453 . S
C40 H12 0.979 . S
C40 H13 0.980 . S
C40 H14 0.983 . S
C40 C36 1.684 . S
H41 C59 0.948 . S
H42 C0 0.948 . S
H43 C18 0.979 . S
H44 C18 0.980 . S
H45 C18 0.983 . S
H46 C17 0.982 . S
H47 C17 0.979 . S
H48 C17 0.977 . S
H49 C19 0.948 . S
H50 C21 0.947 . S
H51 C22 0.948 . S
H52 C28 0.982 . S
H53 C28 0.979 . S
H54 C28 0.977 . S
H55 C29 0.979 . S
H56 C29 0.980 . S
H57 C29 0.983 . S
H58 C2 0.947 . S
C59 C2 1.392 . S
C59 C3 1.419 . S
C59 H41 0.948 . S
C60 C61 1.391 . S
C60 C64 1.391 . S
C60 H102 0.948 . S
C61 C60 1.391 . S
C61 C62 1.391 . S
C62 C61 1.391 . S
C62 H118 0.947 . S
C62 C119 1.392 . S
C63 C64 1.391 . S
C63 C67 1.397 . S
C63 C119 1.419 . S
C64 C60 1.391 . S
C64 C63 1.391 . S
C64 C65 1.399 . S
C65 C64 1.399 . S
C65 C68 1.396 . S
C65 C77 1.453 . S
C65 C78 1.684 . S
H66 C90 0.948 . S
C67 C63 1.397 . S
C67 C68 1.394 . S
C67 C86 1.723 . S
C68 C65 1.396 . S
C68 C67 1.394 . S
C68 C98 1.723 . S
H69 C92 0.947 . S
H70 C93 0.948 . S
H71 C99 0.982 . S
H72 C100 0.979 . S
H73 C100 0.980 . S
H74 C100 0.983 1_565 S
H75 C99 0.979 . S
H76 C99 0.977 1_545 S
C77 C65 1.453 . S
C77 H106 0.982 . S
C77 H107 0.979 . S
C77 H108 0.977 . S
C78 C65 1.684 . S
C78 H103 0.979 . S
C78 H104 0.980 . S
C78 H105 0.983 . S
C79 C80 1.391 . S
C79 C84 1.391 1_554 S
C79 H109 0.948 . S
C80 C79 1.391 . S
C80 C81 1.391 . S
C81 C80 1.391 . S
C81 C82 1.392 1_554 S
C81 H110 0.947 . S
C82 C81 1.392 1_556 S
C82 C83 1.419 . S
C82 H111 0.948 . S
C83 C82 1.419 . S
C83 C84 1.391 . S
C83 C87 1.397 . S
C84 C79 1.391 1_556 S
C84 C83 1.391 . S
C84 C85 1.399 . S
C85 C84 1.399 . S
C85 C86 1.396 . S
C85 C88 1.453 . S
C85 C89 1.684 . S
C86 C67 1.723 . S
C86 C85 1.396 . S
C86 C87 1.394 . S
C87 C83 1.397 . S
C87 C86 1.394 . S
C87 C97 1.723 . S
C88 C85 1.453 . S
C88 H112 0.982 . S
C88 H113 0.979 . S
C88 H114 0.977 . S
C89 C85 1.684 . S
C89 H115 0.979 . S
C89 H116 0.980 . S
C89 H117 0.983 . S
C90 H66 0.948 . S
C90 C91 1.391 . S
C90 C95 1.391 1_565 S
C91 C90 1.391 . S
C91 C92 1.391 . S
C92 H69 0.947 . S
C92 C91 1.391 . S
C92 C93 1.392 1_565 S
C93 H70 0.948 . S
C93 C92 1.392 1_545 S
C93 C94 1.419 . S
C94 C93 1.419 . S
C94 C95 1.391 . S
C94 C98 1.397 . S
C95 C90 1.391 1_545 S
C95 C94 1.391 . S
C95 C96 1.399 . S
C96 C95 1.399 . S
C96 C97 1.396 . S
C96 C99 1.453 1_545 S
C96 C100 1.684 . S
C97 C87 1.723 . S
C97 C96 1.396 . S
C97 C98 1.394 . S
C98 C68 1.723 . S
C98 C94 1.397 . S
C98 C97 1.394 . S
C99 H71 0.982 . S
C99 H75 0.979 . S
C99 H76 0.977 1_565 S
C99 C96 1.453 1_565 S
C100 H72 0.979 . S
C100 H73 0.980 . S
C100 H74 0.983 1_545 S
C100 C96 1.684 . S
H101 C119 0.948 . S
H102 C60 0.948 . S
H103 C78 0.979 . S
H104 C78 0.980 . S
H105 C78 0.983 . S
H106 C77 0.982 . S
H107 C77 0.979 . S
H108 C77 0.977 . S
H109 C79 0.948 . S
H110 C81 0.947 . S
H111 C82 0.948 . S
H112 C88 0.982 . S
H113 C88 0.979 . S
H114 C88 0.977 . S
H115 C89 0.979 . S
H116 C89 0.980 . S
H117 C89 0.983 . S
H118 C62 0.947 . S
C119 C62 1.392 . S
C119 C63 1.419 . S
C119 H101 0.948 . S
C120 C121 1.391 . S
C120 C124 1.391 . S
C120 H162 0.948 . S
C121 C120 1.391 . S
C121 C122 1.391 . S
C122 C121 1.391 . S
C122 H178 0.947 . S
C122 C179 1.392 . S
C123 C124 1.391 . S
C123 C127 1.397 . S
C123 C179 1.419 . S
C124 C120 1.391 . S
C124 C123 1.391 . S
C124 C125 1.399 . S
C125 C124 1.399 . S
C125 C128 1.396 . S
C125 C137 1.453 . S
C125 C138 1.684 . S
H126 C150 0.948 . S
C127 C123 1.397 . S
C127 C128 1.394 . S
C127 C146 1.723 . S
C128 C125 1.396 . S
C128 C127 1.394 . S
C128 C158 1.723 . S
H129 C152 0.947 . S
H130 C153 0.948 . S
H131 C159 0.982 . S
H132 C160 0.979 . S
H133 C160 0.980 . S
H134 C160 0.983 . S
H135 C159 0.979 . S
H136 C159 0.977 . S
C137 C125 1.453 . S
C137 H166 0.982 . S
C137 H167 0.979 . S
C137 H168 0.977 . S
C138 C125 1.684 . S
C138 H163 0.979 . S
C138 H164 0.980 . S
C138 H165 0.983 . S
C139 C140 1.391 . S
C139 C144 1.391 1_565 S
C139 H169 0.948 . S
C140 C139 1.391 . S
C140 C141 1.391 . S
C141 C140 1.391 . S
C141 C142 1.392 1_565 S
C141 H170 0.947 . S
C142 C141 1.392 1_545 S
C142 C143 1.419 . S
C142 H171 0.948 . S
C143 C142 1.419 . S
C143 C144 1.391 . S
C143 C147 1.397 . S
C144 C139 1.391 1_545 S
C144 C143 1.391 . S
C144 C145 1.399 . S
C145 C144 1.399 . S
C145 C146 1.396 . S
C145 C148 1.453 1_545 S
C145 C149 1.684 . S
C146 C127 1.723 . S
C146 C145 1.396 . S
C146 C147 1.394 . S
C147 C143 1.397 . S
C147 C146 1.394 . S
C147 C157 1.723 . S
C148 C145 1.453 1_565 S
C148 H172 0.982 . S
C148 H173 0.979 . S
C148 H174 0.977 1_565 S
C149 C145 1.684 . S
C149 H175 0.979 1_655 S
C149 H176 0.980 . S
C149 H177 0.983 1_545 S
C150 H126 0.948 . S
C150 C151 1.391 . S
C150 C155 1.391 . S
C151 C150 1.391 . S
C151 C152 1.391 . S
C152 H129 0.947 . S
C152 C151 1.391 . S
C152 C153 1.392 . S
C153 H130 0.948 . S
C153 C152 1.392 . S
C153 C154 1.419 . S
C154 C153 1.419 . S
C154 C155 1.391 . S
C154 C158 1.397 . S
C155 C150 1.391 . S
C155 C154 1.391 . S
C155 C156 1.399 . S
C156 C155 1.399 . S
C156 C157 1.396 . S
C156 C159 1.453 . S
C156 C160 1.684 . S
C157 C147 1.723 . S
C157 C156 1.396 . S
C157 C158 1.394 . S
C158 C128 1.723 . S
C158 C154 1.397 . S
C158 C157 1.394 . S
C159 H131 0.982 . S
C159 H135 0.979 . S
C159 H136 0.977 . S
C159 C156 1.453 . S
C160 H132 0.979 . S
C160 H133 0.980 . S
C160 H134 0.983 . S
C160 C156 1.684 . S
H161 C179 0.948 . S
H162 C120 0.948 . S
H163 C138 0.979 . S
H164 C138 0.980 . S
H165 C138 0.983 . S
H166 C137 0.982 . S
H167 C137 0.979 . S
H168 C137 0.977 . S
H169 C139 0.948 . S
H170 C141 0.947 . S
H171 C142 0.948 . S
H172 C148 0.982 . S
H173 C148 0.979 . S
H174 C148 0.977 1_545 S
H175 C149 0.979 1_455 S
H176 C149 0.980 . S
H177 C149 0.983 1_565 S
H178 C122 0.947 . S
C179 C122 1.392 . S
C179 C123 1.419 . S
C179 H161 0.948 . S
C180 C181 1.391 . S
C180 C184 1.391 . S
C180 H222 0.948 . S
C181 C180 1.391 . S
C181 C182 1.391 . S
C182 C181 1.391 . S
C182 H238 0.947 . S
C182 C239 1.392 . S
C183 C184 1.391 . S
C183 C187 1.397 . S
C183 C239 1.419 . S
C184 C180 1.391 . S
C184 C183 1.391 . S
C184 C185 1.399 . S
C185 C184 1.399 . S
C185 C188 1.396 . S
C185 C197 1.453 . S
C185 C198 1.684 . S
H186 C210 0.948 . S
C187 C183 1.397 . S
C187 C188 1.394 . S
C187 C206 1.723 . S
C188 C185 1.396 . S
C188 C187 1.394 . S
C188 C218 1.723 . S
H189 C212 0.947 . S
H190 C213 0.948 . S
H191 C219 0.982 . S
H192 C220 0.979 . S
H193 C220 0.980 . S
H194 C220 0.983 . S
H195 C219 0.979 . S
H196 C219 0.977 . S
C197 C185 1.453 . S
C197 H226 0.982 . S
C197 H227 0.979 . S
C197 H228 0.977 . S
C198 C185 1.684 . S
C198 H223 0.979 . S
C198 H224 0.980 . S
C198 H225 0.983 . S
C199 C200 1.391 . S
C199 C204 1.391 1_556 S
C199 H229 0.948 . S
C200 C199 1.391 . S
C200 C201 1.391 . S
C201 C200 1.391 . S
C201 C202 1.392 1_556 S
C201 H230 0.947 . S
C202 C201 1.392 1_554 S
C202 C203 1.419 . S
C202 H231 0.948 . S
C203 C202 1.419 . S
C203 C204 1.391 . S
C203 C207 1.397 . S
C204 C199 1.391 1_554 S
C204 C203 1.391 . S
C204 C205 1.399 . S
C205 C204 1.399 . S
C205 C206 1.396 . S
C205 C208 1.453 . S
C205 C209 1.684 . S
C206 C187 1.723 . S
C206 C205 1.396 . S
C206 C207 1.394 . S
C207 C203 1.397 . S
C207 C206 1.394 . S
C207 C217 1.723 . S
C208 C205 1.453 . S
C208 H232 0.982 . S
C208 H233 0.979 . S
C208 H234 0.977 . S
C209 C205 1.684 . S
C209 H235 0.979 . S
C209 H236 0.980 . S
C209 H237 0.983 . S
C210 H186 0.948 . S
C210 C211 1.391 . S
C210 C215 1.391 . S
C211 C210 1.391 . S
C211 C212 1.391 . S
C212 H189 0.947 . S
C212 C211 1.391 . S
C212 C213 1.392 . S
C213 H190 0.948 . S
C213 C212 1.392 . S
C213 C214 1.419 . S
C214 C213 1.419 . S
C214 C215 1.391 . S
C214 C218 1.397 . S
C215 C210 1.391 . S
C215 C214 1.391 . S
C215 C216 1.399 . S
C216 C215 1.399 . S
C216 C217 1.396 . S
C216 C219 1.453 . S
C216 C220 1.684 . S
C217 C207 1.723 . S
C217 C216 1.396 . S
C217 C218 1.394 . S
C218 C188 1.723 . S
C218 C214 1.397 . S
C218 C217 1.394 . S
C219 H191 0.982 . S
C219 H195 0.979 . S
C219 H196 0.977 . S
C219 C216 1.453 . S
C220 H192 0.979 . S
C220 H193 0.980 . S
C220 H194 0.983 . S
C220 C216 1.684 . S
H221 C239 0.948 . S
H222 C180 0.948 . S
H223 C198 0.979 . S
H224 C198 0.980 . S
H225 C198 0.983 . S
H226 C197 0.982 . S
H227 C197 0.979 . S
H228 C197 0.977 . S
H229 C199 0.948 . S
H230 C201 0.947 . S
H231 C202 0.948 . S
H232 C208 0.982 . S
H233 C208 0.979 . S
H234 C208 0.977 . S
H235 C209 0.979 . S
H236 C209 0.980 . S
H237 C209 0.983 . S
H238 C182 0.947 . S
C239 C182 1.392 . S
C239 C183 1.419 . S
C239 H221 0.948 . S
C240 C241 1.391 . S
C240 C244 1.391 . S
C240 H282 0.948 . S
C241 C240 1.391 . S
C241 C242 1.391 . S
C242 C241 1.391 . S
C242 H298 0.947 . S
C242 C299 1.392 . S
C243 C244 1.391 . S
C243 C247 1.397 . S
C243 C299 1.419 . S
C244 C240 1.391 . S
C244 C243 1.391 . S
C244 C245 1.399 . S
C245 C244 1.399 . S
C245 C248 1.396 . S
C245 C257 1.453 . S
C245 C258 1.684 . S
H246 C270 0.948 . S
C247 C243 1.397 . S
C247 C248 1.394 . S
C247 C266 1.723 . S
C248 C245 1.396 . S
C248 C247 1.394 . S
C248 C278 1.723 . S
H249 C272 0.947 . S
H250 C273 0.948 . S
H251 C279 0.982 . S
H252 C280 0.979 . S
H253 C280 0.980 . S
H254 C280 0.983 . S
H255 C279 0.979 . S
H256 C279 0.977 . S
C257 C245 1.453 . S
C257 H286 0.982 . S
C257 H287 0.979 . S
C257 H288 0.977 . S
C258 C245 1.684 . S
C258 H283 0.979 . S
C258 H284 0.980 . S
C258 H285 0.983 . S
C259 C260 1.391 . S
C259 C264 1.391 . S
C259 H289 0.948 . S
C260 C259 1.391 . S
C260 C261 1.391 . S
C261 C260 1.391 . S
C261 C262 1.392 . S
C261 H290 0.947 . S
C262 C261 1.392 . S
C262 C263 1.419 . S
C262 H291 0.948 . S
C263 C262 1.419 . S
C263 C264 1.391 . S
C263 C267 1.397 . S
C264 C259 1.391 . S
C264 C263 1.391 . S
C264 C265 1.399 . S
C265 C264 1.399 . S
C265 C266 1.396 . S
C265 C268 1.453 . S
C265 C269 1.684 . S
C266 C247 1.723 . S
C266 C265 1.396 . S
C266 C267 1.394 . S
C267 C263 1.397 . S
C267 C266 1.394 . S
C267 C277 1.723 . S
C268 C265 1.453 . S
C268 H292 0.982 . S
C268 H293 0.979 . S
C268 H294 0.977 . S
C269 C265 1.684 . S
C269 H295 0.979 . S
C269 H296 0.980 . S
C269 H297 0.983 . S
C270 H246 0.948 . S
C270 C271 1.391 . S
C270 C275 1.391 . S
C271 C270 1.391 . S
C271 C272 1.391 . S
C272 H249 0.947 . S
C272 C271 1.391 . S
C272 C273 1.392 . S
C273 H250 0.948 . S
C273 C272 1.392 . S
C273 C274 1.419 . S
C274 C273 1.419 . S
C274 C275 1.391 . S
C274 C278 1.397 . S
C275 C270 1.391 . S
C275 C274 1.391 . S
C275 C276 1.399 . S
C276 C275 1.399 . S
C276 C277 1.396 . S
C276 C279 1.453 . S
C276 C280 1.684 . S
C277 C267 1.723 . S
C277 C276 1.396 . S
C277 C278 1.394 . S
C278 C248 1.723 . S
C278 C274 1.397 . S
C278 C277 1.394 . S
C279 H251 0.982 . S
C279 H255 0.979 . S
C279 H256 0.977 . S
C279 C276 1.453 . S
C280 H252 0.979 . S
C280 H253 0.980 . S
C280 H254 0.983 . S
C280 C276 1.684 . S
H281 C299 0.948 . S
H282 C240 0.948 . S
H283 C258 0.979 . S
H284 C258 0.980 . S
H285 C258 0.983 . S
H286 C257 0.982 . S
H287 C257 0.979 . S
H288 C257 0.977 . S
H289 C259 0.948 . S
H290 C261 0.947 . S
H291 C262 0.948 . S
H292 C268 0.982 . S
H293 C268 0.979 . S
H294 C268 0.977 . S
H295 C269 0.979 . S
H296 C269 0.980 . S
H297 C269 0.983 . S
H298 C242 0.947 . S
C299 C242 1.392 . S
C299 C243 1.419 . S
C299 H281 0.948 . S
C300 C301 1.391 . S
C300 C304 1.391 . S
C300 H342 0.948 . S
C301 C300 1.391 . S
C301 C302 1.391 . S
C302 C301 1.391 . S
C302 H358 0.947 . S
C302 C359 1.392 . S
C303 C304 1.391 . S
C303 C307 1.397 . S
C303 C359 1.419 . S
C304 C300 1.391 . S
C304 C303 1.391 . S
C304 C305 1.399 . S
C305 C304 1.399 . S
C305 C308 1.396 . S
C305 C317 1.453 . S
C305 C318 1.684 . S
H306 C330 0.948 . S
C307 C303 1.397 . S
C307 C308 1.394 . S
C307 C326 1.723 . S
C308 C305 1.396 . S
C308 C307 1.394 . S
C308 C338 1.723 . S
H309 C332 0.947 . S
H310 C333 0.948 . S
H311 C339 0.982 . S
H312 C340 0.979 . S
H313 C340 0.980 . S
H314 C340 0.983 . S
H315 C339 0.979 1_545 S
H316 C339 0.977 . S
C317 C305 1.453 . S
C317 H346 0.982 . S
C317 H347 0.979 . S
C317 H348 0.977 . S
C318 C305 1.684 . S
C318 H343 0.979 . S
C318 H344 0.980 . S
C318 H345 0.983 . S
C319 C320 1.391 . S
C319 C324 1.391 1_556 S
C319 H349 0.948 . S
C320 C319 1.391 . S
C320 C321 1.391 . S
C321 C320 1.391 . S
C321 C322 1.392 1_556 S
C321 H350 0.947 . S
C322 C321 1.392 1_554 S
C322 C323 1.419 . S
C322 H351 0.948 . S
C323 C322 1.419 . S
C323 C324 1.391 . S
C323 C327 1.397 . S
C324 C319 1.391 1_554 S
C324 C323 1.391 . S
C324 C325 1.399 . S
C325 C324 1.399 . S
C325 C326 1.396 . S
C325 C328 1.453 . S
C325 C329 1.684 . S
C326 C307 1.723 . S
C326 C325 1.396 . S
C326 C327 1.394 . S
C327 C323 1.397 . S
C327 C326 1.394 . S
C327 C337 1.723 . S
C328 C325 1.453 . S
C328 H352 0.982 . S
C328 H353 0.979 . S
C328 H354 0.977 . S
C329 C325 1.684 . S
C329 H355 0.979 . S
C329 H356 0.980 . S
C329 H357 0.983 . S
C330 H306 0.948 . S
C330 C331 1.391 . S
C330 C335 1.374 1_545 S
C331 C330 1.391 . S
C331 C332 1.391 . S
C332 H309 0.947 . S
C332 C331 1.391 . S
C332 C333 1.392 1_545 S
C333 H310 0.948 . S
C333 C332 1.392 1_565 S
C333 C334 1.419 . S
C334 C333 1.419 . S
C334 C335 1.407 . S
C334 C338 1.397 . S
C335 C330 1.374 1_565 S
C335 C334 1.407 . S
C335 C336 1.406 . S
C336 C335 1.406 . S
C336 C337 1.396 . S
C336 C339 1.453 . S
C336 C340 1.684 1_565 S
C337 C327 1.723 . S
C337 C336 1.396 . S
C337 C338 1.394 . S
C338 C308 1.723 . S
C338 C334 1.397 . S
C338 C337 1.394 . S
C339 H311 0.982 . S
C339 H315 0.979 1_565 S
C339 H316 0.977 . S
C339 C336 1.453 . S
C340 H312 0.979 . S
C340 H313 0.980 . S
C340 H314 0.983 . S
C340 C336 1.684 1_545 S
H341 C359 0.948 . S
H342 C300 0.948 . S
H343 C318 0.979 . S
H344 C318 0.980 . S
H345 C318 0.983 . S
H346 C317 0.982 . S
H347 C317 0.979 . S
H348 C317 0.977 . S
H349 C319 0.948 . S
H350 C321 0.947 . S
H351 C322 0.948 . S
H352 C328 0.982 . S
H353 C328 0.979 . S
H354 C328 0.977 . S
H355 C329 0.979 . S
H356 C329 0.980 . S
H357 C329 0.983 . S
H358 C302 0.947 . S
C359 C302 1.392 . S
C359 C303 1.419 . S
C359 H341 0.948 . S
C360 C361 1.391 . S
C360 C364 1.391 1_545 S
C360 H402 0.948 . S
C361 C360 1.391 . S
C361 C362 1.391 . S
C362 C361 1.391 . S
C362 H418 0.947 . S
C362 C419 1.392 . S
C363 C364 1.391 . S
C363 C367 1.397 . S
C363 C419 1.419 1_565 S
C364 C360 1.391 1_565 S
C364 C363 1.391 . S
C364 C365 1.399 . S
C365 C364 1.399 . S
C365 C368 1.396 . S
C365 C377 1.453 . S
C365 C378 1.684 . S
H366 C390 0.948 . S
C367 C363 1.397 . S
C367 C368 1.394 . S
C367 C386 1.723 . S
C368 C365 1.396 . S
C368 C367 1.394 . S
C368 C398 1.723 . S
H369 C392 0.947 . S
H370 C393 0.948 . S
H371 C399 0.982 . S
H372 C400 0.979 . S
H373 C400 0.980 . S
H374 C400 0.983 . S
H375 C399 0.979 . S
H376 C399 0.977 . S
C377 C365 1.453 . S
C377 H406 0.982 . S
C377 H407 0.979 . S
C377 H408 0.977 . S
C378 C365 1.684 . S
C378 H403 0.979 . S
C378 H404 0.980 . S
C378 H405 0.983 . S
C379 C380 1.391 . S
C379 C384 1.391 . S
C379 H409 0.948 . S
C380 C379 1.391 . S
C380 C381 1.391 . S
C381 C380 1.391 . S
C381 C382 1.392 . S
C381 H410 0.947 . S
C382 C381 1.392 . S
C382 C383 1.419 . S
C382 H411 0.948 . S
C383 C382 1.419 . S
C383 C384 1.391 . S
C383 C387 1.397 . S
C384 C379 1.391 . S
C384 C383 1.391 . S
C384 C385 1.399 . S
C385 C384 1.399 . S
C385 C386 1.396 . S
C385 C388 1.453 . S
C385 C389 1.684 . S
C386 C367 1.723 . S
C386 C385 1.396 . S
C386 C387 1.394 . S
C387 C383 1.397 . S
C387 C386 1.394 . S
C387 C397 1.723 . S
C388 C385 1.453 . S
C388 H412 0.982 . S
C388 H413 0.979 . S
C388 H414 0.967 1_565 S
C389 C385 1.684 . S
C389 H415 0.979 . S
C389 H416 0.980 . S
C389 H417 0.983 . S
C390 H366 0.948 . S
C390 C391 1.391 . S
C390 C395 1.391 . S
C391 C390 1.391 . S
C391 C392 1.391 . S
C392 H369 0.947 . S
C392 C391 1.391 . S
C392 C393 1.392 . S
C393 H370 0.948 . S
C393 C392 1.392 . S
C393 C394 1.419 . S
C394 C393 1.419 . S
C394 C395 1.391 . S
C394 C398 1.397 . S
C395 C390 1.391 . S
C395 C394 1.391 . S
C395 C396 1.399 . S
C396 C395 1.399 . S
C396 C397 1.396 . S
C396 C399 1.453 . S
C396 C400 1.684 . S
C397 C387 1.723 . S
C397 C396 1.396 . S
C397 C398 1.394 . S
C398 C368 1.723 . S
C398 C394 1.397 . S
C398 C397 1.394 . S
C399 H371 0.982 . S
C399 H375 0.979 . S
C399 H376 0.977 . S
C399 C396 1.453 . S
C400 H372 0.979 . S
C400 H373 0.980 . S
C400 H374 0.983 . S
C400 C396 1.684 . S
H401 C419 0.948 . S
H402 C360 0.948 . S
H403 C378 0.979 . S
H404 C378 0.980 . S
H405 C378 0.983 . S
H406 C377 0.982 . S
H407 C377 0.979 . S
H408 C377 0.977 . S
H409 C379 0.948 . S
H410 C381 0.947 . S
H411 C382 0.948 . S
H412 C388 0.982 . S
H413 C388 0.979 . S
H414 C388 0.967 1_545 S
H415 C389 0.979 . S
H416 C389 0.980 . S
H417 C389 0.983 . S
H418 C362 0.947 . S
C419 C362 1.392 . S
C419 C363 1.419 1_545 S
C419 H401 0.948 . S
C420 C421 1.391 . S
C420 C424 1.391 . S
C420 H462 0.948 . S
C421 C420 1.391 . S
C421 C422 1.391 . S
C422 C421 1.391 . S
C422 H478 0.947 . S
C422 C479 1.392 . S
C423 C424 1.391 . S
C423 C427 1.397 . S
C423 C479 1.419 . S
C424 C420 1.391 . S
C424 C423 1.391 . S
C424 C425 1.399 . S
C425 C424 1.399 . S
C425 C428 1.396 . S
C425 C437 1.453 . S
C425 C438 1.684 . S
H426 C450 0.948 . S
C427 C423 1.397 . S
C427 C428 1.394 . S
C427 C446 1.723 . S
C428 C425 1.396 . S
C428 C427 1.394 . S
C428 C458 1.723 . S
H429 C452 0.947 . S
H430 C453 0.948 . S
H431 C459 0.982 . S
H432 C460 0.979 . S
H433 C460 0.980 . S
H434 C460 0.983 . S
H435 C459 0.979 . S
H436 C459 0.977 . S
C437 C425 1.453 . S
C437 H466 0.982 . S
C437 H467 0.979 . S
C437 H468 0.977 . S
C438 C425 1.684 . S
C438 H463 0.979 . S
C438 H464 0.980 . S
C438 H465 0.983 . S
C439 C440 1.391 . S
C439 C444 1.391 1_554 S
C439 H469 0.948 . S
C440 C439 1.391 . S
C440 C441 1.391 . S
C441 C440 1.391 . S
C441 C442 1.392 1_554 S
C441 H470 0.947 . S
C442 C441 1.392 1_556 S
C442 C443 1.419 . S
C442 H471 0.948 . S
C443 C442 1.419 . S
C443 C444 1.391 . S
C443 C447 1.397 . S
C444 C439 1.391 1_556 S
C444 C443 1.391 . S
C444 C445 1.399 . S
C445 C444 1.399 . S
C445 C446 1.396 . S
C445 C448 1.453 . S
C445 C449 1.684 . S
C446 C427 1.723 . S
C446 C445 1.396 . S
C446 C447 1.394 . S
C447 C443 1.397 . S
C447 C446 1.394 . S
C447 C457 1.723 . S
C448 C445 1.453 . S
C448 H472 0.982 . S
C448 H473 0.979 . S
C448 H474 0.977 . S
C449 C445 1.684 . S
C449 H475 0.979 . S
C449 H476 0.980 . S
C449 H477 0.983 . S
C450 H426 0.948 . S
C450 C451 1.391 . S
C450 C455 1.391 . S
C451 C450 1.391 . S
C451 C452 1.391 . S
C452 H429 0.947 . S
C452 C451 1.391 . S
C452 C453 1.392 . S
C453 H430 0.948 . S
C453 C452 1.392 . S
C453 C454 1.419 . S
C454 C453 1.419 . S
C454 C455 1.391 . S
C454 C458 1.397 . S
C455 C450 1.391 . S
C455 C454 1.391 . S
C455 C456 1.399 . S
C456 C455 1.399 . S
C456 C457 1.396 . S
C456 C459 1.453 . S
C456 C460 1.684 . S
C457 C447 1.723 . S
C457 C456 1.396 . S
C457 C458 1.394 . S
C458 C428 1.723 . S
C458 C454 1.397 . S
C458 C457 1.394 . S
C459 H431 0.982 . S
C459 H435 0.979 . S
C459 H436 0.977 . S
C459 C456 1.453 . S
C460 H432 0.979 . S
C460 H433 0.980 . S
C460 H434 0.983 . S
C460 C456 1.684 . S
H461 C479 0.948 . S
H462 C420 0.948 . S
H463 C438 0.979 . S
H464 C438 0.980 . S
H465 C438 0.983 . S
H466 C437 0.982 . S
H467 C437 0.979 . S
H468 C437 0.977 . S
H469 C439 0.948 . S
H470 C441 0.947 . S
H471 C442 0.948 . S
H472 C448 0.982 . S
H473 C448 0.979 . S
H474 C448 0.977 . S
H475 C449 0.979 . S
H476 C449 0.980 . S
H477 C449 0.983 . S
H478 C422 0.947 . S
C479 C422 1.392 . S
C479 C423 1.419 . S
C479 H461 0.948 . S
Eu480 N509 2.600 . S
Eu480 N515 2.562 . S
Eu480 O524 2.462 . S
Eu480 O525 2.373 . S
Eu480 O527 2.432 . S
Eu480 O528 2.291 1_455 S
Eu480 O532 2.334 1_455 S
Eu480 O535 2.372 . S
Eu480 C544 2.787 . S
C481 N482 1.365 . S
C481 C484 1.405 . S
C481 C488 1.448 . S
N482 C481 1.365 . S
N482 C485 1.319 . S
N482 Eu491 2.600 . S
C483 C485 1.397 . S
C483 C486 1.367 . S
C483 H503 0.931 . S
C484 C481 1.405 . S
C484 C486 1.403 . S
C484 C490 1.439 . S
C485 N482 1.319 . S
C485 C483 1.397 . S
C485 H496 0.930 . S
C486 C483 1.367 . S
C486 C484 1.403 . S
C486 H507 0.929 . S
C487 C488 1.430 . S
C487 C489 1.387 . S
C487 C493 1.404 1_545 S
C488 C481 1.448 . S
C488 C487 1.430 . S
C488 N492 1.351 . S
C489 C487 1.387 . S
C489 C490 1.374 . S
C489 H504 0.931 1_545 S
C490 C484 1.439 . S
C490 C489 1.374 . S
C490 H505 0.931 . S
Eu491 N482 2.600 . S
Eu491 N492 2.562 . S
Eu491 O526 2.335 1_655 S
Eu491 O529 2.372 . S
Eu491 O530 2.462 . S
Eu491 O531 2.373 . S
Eu491 O533 2.432 . S
Eu491 O534 2.291 1_655 S
Eu491 C555 2.787 . S
N492 C488 1.351 . S
N492 Eu491 2.562 . S
N492 C494 1.325 . S
C493 C487 1.404 1_565 S
C493 C495 1.366 . S
C493 H501 0.930 . S
C494 N492 1.325 . S
C494 C495 1.416 1_545 S
C494 H500 0.929 . S
C495 C493 1.366 . S
C495 C494 1.416 1_565 S
C495 H497 0.930 . S
H496 C485 0.930 . S
H497 C495 0.930 . S
H498 C513 0.930 . S
H499 C520 0.930 . S
H500 C494 0.929 . S
H501 C493 0.930 . S
H502 C516 0.929 . S
H503 C483 0.931 . S
H504 C489 0.931 1_565 S
H505 C490 0.931 . S
H506 C511 0.931 . S
H507 C486 0.929 . S
H508 C519 0.930 . S
N509 Eu480 2.600 . S
N509 C510 1.365 . S
N509 C513 1.319 . S
C510 N509 1.365 . S
C510 C512 1.405 . S
C510 C518 1.448 . S
C511 H506 0.931 . S
C511 C513 1.397 . S
C511 C514 1.367 . S
C512 C510 1.405 . S
C512 C514 1.403 . S
C512 C545 1.439 . S
C513 H498 0.930 . S
C513 N509 1.319 . S
C513 C511 1.397 . S
C514 C511 1.367 . S
C514 C512 1.403 . S
C514 H521 0.929 . S
N515 Eu480 2.562 . S
N515 C516 1.325 . S
N515 C518 1.351 . S
C516 H502 0.929 . S
C516 N515 1.325 . S
C516 C520 1.416 . S
C517 C518 1.430 . S
C517 C519 1.404 . S
C517 C546 1.387 . S
C518 C510 1.448 . S
C518 N515 1.351 . S
C518 C517 1.430 . S
C519 H508 0.930 . S
C519 C517 1.404 . S
C519 C520 1.366 . S
C520 H499 0.930 . S
C520 C516 1.416 . S
C520 C519 1.366 . S
H521 C514 0.929 . S
H522 C545 0.931 . S
H523 C546 0.931 . S
O524 Eu480 2.462 . S
O524 C544 1.252 . S
O525 Eu480 2.373 . S
O525 C536 1.249 . S
O526 Eu491 2.335 1_455 S
O526 C536 1.264 . S
O527 Eu480 2.432 . S
O527 C544 1.268 . S
O528 Eu480 2.291 1_655 S
O528 C543 1.255 . S
O529 Eu491 2.372 . S
O529 C543 1.257 . S
O530 Eu491 2.462 . S
O530 C555 1.252 . S
O531 Eu491 2.373 . S
O531 C547 1.249 . S
O532 Eu480 2.334 1_655 S
O532 C547 1.266 . S
O533 Eu491 2.432 . S
O533 C555 1.268 . S
O534 Eu491 2.291 1_455 S
O534 C554 1.255 . S
O535 Eu480 2.372 . S
O535 C554 1.257 . S
C536 O525 1.249 . S
C536 O526 1.264 . S
C537 C540 1.382 . S
C537 C542 1.390 . S
C537 C544 1.506 . S
C538 C539 1.398 . S
C538 C542 1.392 . S
C539 C538 1.398 . S
C539 C541 1.372 . S
C539 H556 0.931 . S
C540 C537 1.382 . S
C540 C541 1.390 . S
C540 H557 0.931 . S
C541 C539 1.372 . S
C541 C540 1.390 . S
C541 H558 0.929 . S
C542 C537 1.390 . S
C542 C538 1.392 . S
C542 H559 0.930 . S
C543 O528 1.255 . S
C543 O529 1.257 . S
C544 Eu480 2.787 . S
C544 O524 1.252 . S
C544 O527 1.268 . S
C544 C537 1.506 . S
C545 C512 1.439 . S
C545 H522 0.931 . S
C545 C546 1.374 . S
C546 C517 1.387 . S
C546 H523 0.931 . S
C546 C545 1.374 . S
C547 O531 1.249 . S
C547 O532 1.266 . S
C548 C551 1.382 . S
C548 C552 1.390 . S
C548 C555 1.506 . S
C549 C550 1.398 . S
C549 C552 1.392 . S
C550 C549 1.398 . S
C550 C553 1.372 . S
C550 H560 0.931 . S
C551 C548 1.382 . S
C551 C553 1.390 . S
C551 H561 0.931 . S
C552 C548 1.390 . S
C552 C549 1.392 . S
C552 H562 0.930 . S
C553 C550 1.372 . S
C553 C551 1.390 . S
C553 H563 0.929 . S
C554 O534 1.255 . S
C554 O535 1.257 . S
C555 Eu491 2.787 . S
C555 O530 1.252 . S
C555 O533 1.268 . S
C555 C548 1.506 . S
H556 C539 0.931 . S
H557 C540 0.931 . S
H558 C541 0.929 . S
H559 C542 0.930 . S
H560 C550 0.931 . S
H561 C551 0.931 . S
H562 C552 0.930 . S
H563 C553 0.929 . S
Eu564 N593 2.600 . S
Eu564 N599 2.562 . S
Eu564 O608 2.462 . S
Eu564 O609 2.373 . S
Eu564 O611 2.432 . S
Eu564 O612 2.291 . S
Eu564 O616 2.335 . S
Eu564 O619 2.372 . S
Eu564 C628 2.787 . S
C565 N566 1.365 . S
C565 C568 1.405 . S
C565 C572 1.448 . S
N566 C565 1.365 . S
N566 C569 1.319 . S
N566 Eu575 2.600 . S
C567 C569 1.397 . S
C567 C570 1.367 . S
C567 H587 0.931 . S
C568 C565 1.405 . S
C568 C570 1.403 . S
C568 C574 1.439 . S
C569 N566 1.319 . S
C569 C567 1.397 . S
C569 H580 0.930 . S
C570 C567 1.367 . S
C570 C568 1.403 . S
C570 H591 0.929 . S
C571 C572 1.430 . S
C571 C573 1.387 . S
C571 C577 1.404 . S
C572 C565 1.448 . S
C572 C571 1.430 . S
C572 N576 1.351 . S
C573 C571 1.387 . S
C573 C574 1.374 . S
C573 H588 0.931 . S
C574 C568 1.439 . S
C574 C573 1.374 . S
C574 H589 0.931 . S
Eu575 N566 2.600 . S
Eu575 N576 2.562 . S
Eu575 O610 2.335 . S
Eu575 O613 2.372 . S
Eu575 O614 2.462 . S
Eu575 O615 2.373 . S
Eu575 O617 2.432 . S
Eu575 O618 2.291 . S
Eu575 C639 2.787 . S
N576 C572 1.351 . S
N576 Eu575 2.562 . S
N576 C578 1.325 . S
C577 C571 1.404 . S
C577 C579 1.366 . S
C577 H585 0.930 . S
C578 N576 1.325 . S
C578 C579 1.416 . S
C578 H584 0.929 . S
C579 C577 1.366 . S
C579 C578 1.416 . S
C579 H581 0.930 . S
H580 C569 0.930 . S
H581 C579 0.930 . S
H582 C597 0.930 . S
H583 C604 0.930 . S
H584 C578 0.929 . S
H585 C577 0.930 . S
H586 C600 0.929 . S
H587 C567 0.931 . S
H588 C573 0.931 . S
H589 C574 0.931 . S
H590 C595 0.931 . S
H591 C570 0.929 . S
H592 C603 0.930 . S
N593 Eu564 2.600 . S
N593 C594 1.365 . S
N593 C597 1.319 . S
C594 N593 1.365 . S
C594 C596 1.405 . S
C594 C602 1.448 . S
C595 H590 0.931 . S
C595 C597 1.397 . S
C595 C598 1.367 . S
C596 C594 1.405 . S
C596 C598 1.403 . S
C596 C629 1.439 . S
C597 H582 0.930 . S
C597 N593 1.319 . S
C597 C595 1.397 . S
C598 C595 1.367 . S
C598 C596 1.403 . S
C598 H605 0.929 . S
N599 Eu564 2.562 . S
N599 C600 1.325 . S
N599 C602 1.351 . S
C600 H586 0.929 . S
C600 N599 1.325 . S
C600 C604 1.416 . S
C601 C602 1.430 . S
C601 C603 1.404 . S
C601 C630 1.387 . S
C602 C594 1.448 . S
C602 N599 1.351 . S
C602 C601 1.430 . S
C603 H592 0.930 . S
C603 C601 1.404 . S
C603 C604 1.366 . S
C604 H583 0.930 . S
C604 C600 1.416 . S
C604 C603 1.366 . S
H605 C598 0.929 . S
H606 C629 0.931 . S
H607 C630 0.931 . S
O608 Eu564 2.462 . S
O608 C628 1.252 . S
O609 Eu564 2.373 . S
O609 C620 1.249 . S
O610 Eu575 2.335 . S
O610 C620 1.264 . S
O611 Eu564 2.432 . S
O611 C628 1.268 . S
O612 Eu564 2.291 . S
O612 C627 1.255 . S
O613 Eu575 2.372 . S
O613 C627 1.257 . S
O614 Eu575 2.462 . S
O614 C639 1.252 . S
O615 Eu575 2.373 . S
O615 C631 1.249 . S
O616 Eu564 2.335 . S
O616 C631 1.264 . S
O617 Eu575 2.432 . S
O617 C639 1.268 . S
O618 Eu575 2.291 . S
O618 C638 1.255 . S
O619 Eu564 2.372 . S
O619 C638 1.257 . S
C620 O609 1.249 . S
C620 O610 1.264 . S
C621 C624 1.382 . S
C621 C626 1.390 . S
C621 C628 1.506 . S
C622 C623 1.398 . S
C622 C626 1.392 . S
C623 C622 1.398 . S
C623 C625 1.372 . S
C623 H640 0.931 . S
C624 C621 1.382 . S
C624 C625 1.390 . S
C624 H641 0.931 . S
C625 C623 1.372 . S
C625 C624 1.390 . S
C625 H642 0.929 . S
C626 C621 1.390 . S
C626 C622 1.392 . S
C626 H643 0.930 . S
C627 O612 1.255 . S
C627 O613 1.257 . S
C628 Eu564 2.787 . S
C628 O608 1.252 . S
C628 O611 1.268 . S
C628 C621 1.506 . S
C629 C596 1.439 . S
C629 H606 0.931 . S
C629 C630 1.374 . S
C630 C601 1.387 . S
C630 H607 0.931 . S
C630 C629 1.374 . S
C631 O615 1.249 . S
C631 O616 1.264 . S
C632 C635 1.382 . S
C632 C636 1.390 . S
C632 C639 1.506 . S
C633 C634 1.398 . S
C633 C636 1.392 . S
C634 C633 1.398 . S
C634 C637 1.372 . S
C634 H644 0.931 . S
C635 C632 1.382 . S
C635 C637 1.390 . S
C635 H645 0.931 . S
C636 C632 1.390 . S
C636 C633 1.392 . S
C636 H646 0.930 . S
C637 C634 1.372 . S
C637 C635 1.390 . S
C637 H647 0.929 . S
C638 O618 1.255 . S
C638 O619 1.257 . S
C639 Eu575 2.787 . S
C639 O614 1.252 . S
C639 O617 1.268 . S
C639 C632 1.506 . S
H640 C623 0.931 . S
H641 C624 0.931 . S
H642 C625 0.929 . S
H643 C626 0.930 . S
H644 C634 0.931 . S
H645 C635 0.931 . S
H646 C636 0.930 . S
H647 C637 0.929 . S
Eu648 N677 2.600 . S
Eu648 N683 2.562 . S
Eu648 O692 2.462 . S
Eu648 O693 2.373 . S
Eu648 O695 2.432 . S
Eu648 O696 2.291 . S
Eu648 O700 2.335 . S
Eu648 O703 2.372 . S
Eu648 C712 2.787 . S
C649 N650 1.365 . S
C649 C652 1.405 . S
C649 C656 1.448 . S
N650 C649 1.365 . S
N650 C653 1.319 . S
N650 Eu659 2.600 . S
C651 C653 1.397 . S
C651 C654 1.367 . S
C651 H671 0.931 . S
C652 C649 1.405 . S
C652 C654 1.403 . S
C652 C658 1.439 . S
C653 N650 1.319 . S
C653 C651 1.397 . S
C653 H664 0.930 . S
C654 C651 1.367 . S
C654 C652 1.403 . S
C654 H675 0.929 . S
C655 C656 1.430 . S
C655 C657 1.387 . S
C655 C661 1.404 . S
C656 C649 1.448 . S
C656 C655 1.430 . S
C656 N660 1.351 . S
C657 C655 1.387 . S
C657 C658 1.374 . S
C657 H672 0.931 . S
C658 C652 1.439 . S
C658 C657 1.374 . S
C658 H673 0.931 . S
Eu659 N650 2.600 . S
Eu659 N660 2.562 . S
Eu659 O694 2.335 1_655 S
Eu659 O697 2.372 . S
Eu659 O698 2.462 . S
Eu659 O699 2.373 . S
Eu659 O701 2.432 . S
Eu659 O702 2.291 1_655 S
Eu659 C723 2.787 . S
N660 C656 1.351 . S
N660 Eu659 2.562 . S
N660 C662 1.325 . S
C661 C655 1.404 . S
C661 C663 1.366 . S
C661 H669 0.930 . S
C662 N660 1.325 . S
C662 C663 1.416 . S
C662 H668 0.929 . S
C663 C661 1.366 . S
C663 C662 1.416 . S
C663 H665 0.930 . S
H664 C653 0.930 . S
H665 C663 0.930 . S
H666 C681 0.930 . S
H667 C688 0.930 . S
H668 C662 0.929 . S
H669 C661 0.930 . S
H670 C684 0.929 . S
H671 C651 0.931 . S
H672 C657 0.931 . S
H673 C658 0.931 . S
H674 C679 0.931 . S
H675 C654 0.929 . S
H676 C687 0.930 . S
N677 Eu648 2.600 . S
N677 C678 1.365 . S
N677 C681 1.319 . S
C678 N677 1.365 . S
C678 C680 1.405 . S
C678 C686 1.448 . S
C679 H674 0.931 . S
C679 C681 1.397 . S
C679 C682 1.367 . S
C680 C678 1.405 . S
C680 C682 1.403 . S
C680 C713 1.439 . S
C681 H666 0.930 . S
C681 N677 1.319 . S
C681 C679 1.397 . S
C682 C679 1.367 . S
C682 C680 1.403 . S
C682 H689 0.929 . S
N683 Eu648 2.562 . S
N683 C684 1.325 . S
N683 C686 1.351 . S
C684 H670 0.929 . S
C684 N683 1.325 . S
C684 C688 1.416 1_565 S
C685 C686 1.430 . S
C685 C687 1.404 1_565 S
C685 C714 1.387 . S
C686 C678 1.448 . S
C686 N683 1.351 . S
C686 C685 1.430 . S
C687 H676 0.930 . S
C687 C685 1.404 1_545 S
C687 C688 1.366 . S
C688 H667 0.930 . S
C688 C684 1.416 1_545 S
C688 C687 1.366 . S
H689 C682 0.929 . S
H690 C713 0.931 . S
H691 C714 0.931 1_545 S
O692 Eu648 2.462 . S
O692 C712 1.252 . S
O693 Eu648 2.373 . S
O693 C704 1.249 . S
O694 Eu659 2.335 1_455 S
O694 C704 1.264 . S
O695 Eu648 2.432 . S
O695 C712 1.268 . S
O696 Eu648 2.291 . S
O696 C711 1.255 1_455 S
O697 Eu659 2.372 . S
O697 C711 1.257 . S
O698 Eu659 2.462 . S
O698 C723 1.252 . S
O699 Eu659 2.373 . S
O699 C715 1.249 . S
O700 Eu648 2.335 . S
O700 C715 1.264 1_455 S
O701 Eu659 2.432 . S
O701 C723 1.268 . S
O702 Eu659 2.291 1_455 S
O702 C722 1.255 . S
O703 Eu648 2.372 . S
O703 C722 1.257 . S
C704 O693 1.249 . S
C704 O694 1.264 . S
C705 C708 1.382 . S
C705 C710 1.390 . S
C705 C712 1.506 . S
C706 C707 1.398 . S
C706 C710 1.392 . S
C707 C706 1.398 . S
C707 C709 1.372 . S
C707 H724 0.931 . S
C708 C705 1.382 . S
C708 C709 1.390 . S
C708 H725 0.931 . S
C709 C707 1.372 . S
C709 C708 1.390 . S
C709 H726 0.929 . S
C710 C705 1.390 . S
C710 C706 1.392 . S
C710 H727 0.930 . S
C711 O696 1.255 1_655 S
C711 O697 1.257 . S
C712 Eu648 2.787 . S
C712 O692 1.252 . S
C712 O695 1.268 . S
C712 C705 1.506 . S
C713 C680 1.439 . S
C713 H690 0.931 . S
C713 C714 1.374 . S
C714 C685 1.387 . S
C714 H691 0.931 1_565 S
C714 C713 1.374 . S
C715 O699 1.249 . S
C715 O700 1.264 1_655 S
C716 C719 1.382 . S
C716 C720 1.390 . S
C716 C723 1.506 . S
C717 C718 1.398 . S
C717 C720 1.392 . S
C718 C717 1.398 . S
C718 C721 1.372 . S
C718 H728 0.931 . S
C719 C716 1.382 . S
C719 C721 1.390 . S
C719 H729 0.931 . S
C720 C716 1.390 . S
C720 C717 1.392 . S
C720 H730 0.930 . S
C721 C718 1.372 . S
C721 C719 1.390 . S
C721 H731 0.929 . S
C722 O702 1.255 . S
C722 O703 1.257 . S
C723 Eu659 2.787 . S
C723 O698 1.252 . S
C723 O701 1.268 . S
C723 C716 1.506 . S
H724 C707 0.931 . S
H725 C708 0.931 . S
H726 C709 0.929 . S
H727 C710 0.930 . S
H728 C718 0.931 . S
H729 C719 0.931 . S
H730 C720 0.930 . S
H731 C721 0.929 . S
Eu732 N761 2.600 . S
Eu732 N767 2.562 . S
Eu732 O776 2.462 . S
Eu732 O777 2.373 . S
Eu732 O779 2.432 . S
Eu732 O780 2.291 . S
Eu732 O784 2.335 . S
Eu732 O787 2.372 . S
Eu732 C796 2.787 . S
C733 N734 1.365 . S
C733 C736 1.405 . S
C733 C740 1.448 . S
N734 C733 1.365 . S
N734 C737 1.319 . S
N734 Eu743 2.600 . S
C735 C737 1.397 . S
C735 C738 1.367 . S
C735 H755 0.931 . S
C736 C733 1.405 . S
C736 C738 1.403 . S
C736 C742 1.439 . S
C737 N734 1.319 . S
C737 C735 1.397 . S
C737 H748 0.930 . S
C738 C735 1.367 . S
C738 C736 1.403 . S
C738 H759 0.929 . S
C739 C740 1.430 . S
C739 C741 1.387 . S
C739 C745 1.404 . S
C740 C733 1.448 . S
C740 C739 1.430 . S
C740 N744 1.351 . S
C741 C739 1.387 . S
C741 C742 1.374 . S
C741 H756 0.931 . S
C742 C736 1.439 . S
C742 C741 1.374 . S
C742 H757 0.931 . S
Eu743 N734 2.600 . S
Eu743 N744 2.562 . S
Eu743 O778 2.335 . S
Eu743 O781 2.372 . S
Eu743 O782 2.462 . S
Eu743 O783 2.373 . S
Eu743 O785 2.432 . S
Eu743 O786 2.291 . S
Eu743 C807 2.787 . S
N744 C740 1.351 . S
N744 Eu743 2.562 . S
N744 C746 1.325 . S
C745 C739 1.404 . S
C745 C747 1.366 . S
C745 H753 0.930 . S
C746 N744 1.325 . S
C746 C747 1.416 . S
C746 H752 0.929 . S
C747 C745 1.366 . S
C747 C746 1.416 . S
C747 H749 0.930 . S
H748 C737 0.930 . S
H749 C747 0.930 . S
H750 C765 0.930 . S
H751 C772 0.930 . S
H752 C746 0.929 . S
H753 C745 0.930 . S
H754 C768 0.929 . S
H755 C735 0.931 . S
H756 C741 0.931 . S
H757 C742 0.931 . S
H758 C763 0.931 . S
H759 C738 0.929 . S
H760 C771 0.930 . S
N761 Eu732 2.600 . S
N761 C762 1.365 . S
N761 C765 1.319 . S
C762 N761 1.365 . S
C762 C764 1.405 . S
C762 C770 1.448 . S
C763 H758 0.931 . S
C763 C765 1.397 . S
C763 C766 1.367 . S
C764 C762 1.405 . S
C764 C766 1.403 . S
C764 C797 1.439 . S
C765 H750 0.930 . S
C765 N761 1.319 . S
C765 C763 1.397 . S
C766 C763 1.367 . S
C766 C764 1.403 . S
C766 H773 0.929 . S
N767 Eu732 2.562 . S
N767 C768 1.325 . S
N767 C770 1.351 . S
C768 H754 0.929 . S
C768 N767 1.325 . S
C768 C772 1.416 . S
C769 C770 1.430 . S
C769 C771 1.404 . S
C769 C798 1.387 . S
C770 C762 1.448 . S
C770 N767 1.351 . S
C770 C769 1.430 . S
C771 H760 0.930 . S
C771 C769 1.404 . S
C771 C772 1.366 . S
C772 H751 0.930 . S
C772 C768 1.416 . S
C772 C771 1.366 . S
H773 C766 0.929 . S
H774 C797 0.931 . S
H775 C798 0.931 . S
O776 Eu732 2.462 . S
O776 C796 1.252 . S
O777 Eu732 2.373 . S
O777 C788 1.249 . S
O778 Eu743 2.335 . S
O778 C788 1.264 . S
O779 Eu732 2.432 . S
O779 C796 1.268 . S
O780 Eu732 2.291 . S
O780 C795 1.255 . S
O781 Eu743 2.372 . S
O781 C795 1.257 . S
O782 Eu743 2.462 . S
O782 C807 1.252 . S
O783 Eu743 2.373 . S
O783 C799 1.249 . S
O784 Eu732 2.335 . S
O784 C799 1.264 . S
O785 Eu743 2.432 . S
O785 C807 1.268 . S
O786 Eu743 2.291 . S
O786 C806 1.255 . S
O787 Eu732 2.372 . S
O787 C806 1.257 . S
C788 O777 1.249 . S
C788 O778 1.264 . S
C789 C792 1.382 . S
C789 C794 1.390 . S
C789 C796 1.506 . S
C790 C791 1.398 . S
C790 C794 1.392 . S
C791 C790 1.398 . S
C791 C793 1.372 . S
C791 H808 0.931 . S
C792 C789 1.382 . S
C792 C793 1.390 . S
C792 H809 0.931 . S
C793 C791 1.372 . S
C793 C792 1.390 . S
C793 H810 0.929 . S
C794 C789 1.390 . S
C794 C790 1.392 . S
C794 H811 0.930 . S
C795 O780 1.255 . S
C795 O781 1.257 . S
C796 Eu732 2.787 . S
C796 O776 1.252 . S
C796 O779 1.268 . S
C796 C789 1.506 . S
C797 C764 1.439 . S
C797 H774 0.931 . S
C797 C798 1.374 . S
C798 C769 1.387 . S
C798 H775 0.931 . S
C798 C797 1.374 . S
C799 O783 1.249 . S
C799 O784 1.264 . S
C800 C803 1.382 . S
C800 C804 1.390 . S
C800 C807 1.506 . S
C801 C802 1.398 . S
C801 C804 1.392 . S
C802 C801 1.398 . S
C802 C805 1.372 . S
C802 H812 0.931 . S
C803 C800 1.382 . S
C803 C805 1.390 . S
C803 H813 0.931 . S
C804 C800 1.390 . S
C804 C801 1.392 . S
C804 H814 0.930 . S
C805 C802 1.372 . S
C805 C803 1.390 . S
C805 H815 0.929 . S
C806 O786 1.255 . S
C806 O787 1.257 . S
C807 Eu743 2.787 . S
C807 O782 1.252 . S
C807 O785 1.268 . S
C807 C800 1.506 . S
H808 C791 0.931 . S
H809 C792 0.931 . S
H810 C793 0.929 . S
H811 C794 0.930 . S
H812 C802 0.931 . S
H813 C803 0.931 . S
H814 C804 0.930 . S
H815 C805 0.929 . S
C361 C554 1.461 . S
C638 C451 1.454 . S
C631 C241 1.418 . S
C331 C547 1.475 . S
C711 C140 1.370 . S
C795 C211 1.370 . S
C20 C788 1.399 . S
C91 C704 1.399 . S
C538 C80 1.183 . S
C622 C1 1.183 . S
C633 C200 1.542 . S
C549 C121 1.542 . S
C717 C320 1.186 . S
C260 C801 1.224 . S
C790 C440 1.589 . S
C380 C706 1.340 . S
C536 C31 1.681 . S
C620 C61 1.681 . S
C151 C627 1.757 . S
C543 C181 1.757 . S
C715 C271 1.548 . S
C301 C799 1.794 . S
C391 C806 1.537 . S
C421 C722 1.841 . S
