# Generated by pormake.
# Topology rtl, (3,6)-cn, num edge types: 1
# Building blocks:
#     Node 0, Type 0, BuildingBlock: MIDCAF_clean_linker_0, # of connection points: 3
#     Node 1, Type 0, BuildingBlock: MIDCAF_clean_linker_0, # of connection points: 3
#     Node 2, Type 0, BuildingBlock: MIDCAF_clean_linker_0, # of connection points: 3
#     Node 3, Type 0, BuildingBlock: MIDCAF_clean_linker_0, # of connection points: 3
#     Node 4, Type 1, BuildingBlock: KUMBUR_clean_sbu_1, # of connection points: 6
#     Node 5, Type 1, BuildingBlock: KUMBUR_clean_sbu_1, # of connection points: 6
#     Edge 6, Type (0, 1), BuildingBlock: XUDNAN_clean_linker_2, # of connection points: 2
#     Edge 7, Type (0, 1), BuildingBlock: XUDNAN_clean_linker_2, # of connection points: 2
#     Edge 8, Type (0, 1), BuildingBlock: XUDNAN_clean_linker_2, # of connection points: 2
#     Edge 9, Type (0, 1), BuildingBlock: XUDNAN_clean_linker_2, # of connection points: 2
#     Edge 10, Type (0, 1), BuildingBlock: XUDNAN_clean_linker_2, # of connection points: 2
#     Edge 11, Type (0, 1), BuildingBlock: XUDNAN_clean_linker_2, # of connection points: 2
#     Edge 12, Type (0, 1), BuildingBlock: XUDNAN_clean_linker_2, # of connection points: 2
#     Edge 13, Type (0, 1), BuildingBlock: XUDNAN_clean_linker_2, # of connection points: 2
#     Edge 14, Type (0, 1), BuildingBlock: XUDNAN_clean_linker_2, # of connection points: 2
#     Edge 15, Type (0, 1), BuildingBlock: XUDNAN_clean_linker_2, # of connection points: 2
#     Edge 16, Type (0, 1), BuildingBlock: XUDNAN_clean_linker_2, # of connection points: 2
#     Edge 17, Type (0, 1), BuildingBlock: XUDNAN_clean_linker_2, # of connection points: 2
# Relax obj value: 0.018
# Max RMSD: 0.096
# Mean RMSD: 0.057
data_MOF--net-rtl--node1-KUMBUR_clean_sbu_1--node2-MIDCAF_clean_linker_0--edge1-XUDNAN_clean_linker_2
_symmetry_space_group_name_H-M    P1
_symmetry_Int_Tables_number       1
_symmetry_cell_setting            triclinic
loop_
_symmetry_equiv_pos_as_xyz
'x, y, z'
_cell_length_a     39.52481
_cell_length_b     40.197676
_cell_length_c     34.957544
_cell_angle_alpha  79.976663
_cell_angle_beta   99.393942
_cell_angle_gamma 90.282153
loop_
_atom_site_label
_atom_site_type_symbol
_atom_site_fract_x
_atom_site_fract_y
_atom_site_fract_z
_atom_type_partial_charge
C0 C 0.15481 0.88049 0.12461 0.0
C1 C 0.17401 0.86799 0.16187 0.0
C2 C 0.20579 0.85155 0.16374 0.0
C3 C 0.21786 0.84754 0.12926 0.0
H4 H 0.27024 0.77442 0.07973 0.0
H5 H 0.30694 0.72716 0.07413 0.0
H6 H 0.31559 0.77442 0.95547 0.0
H7 H 0.27891 0.82104 0.96064 0.0
H8 H 0.20698 0.85731 0.91246 0.0
H9 H 0.17506 0.88628 0.85048 0.0
H10 H 0.13555 0.95868 0.91123 0.0
H11 H 0.16644 0.92871 0.97365 0.0
H12 H 0.15131 0.88669 0.0622 0.0
H13 H 0.12989 0.89257 0.12181 0.0
H14 H 0.22156 0.842 0.19184 0.0
H15 H 0.24239 0.83478 0.13174 0.0
N16 N 0.23557 0.83243 0.05556 0.0
N17 N 0.23084 0.84741 0.98693 0.0
N18 N 0.19642 0.87517 0.02049 0.0
C19 C 0.24574 0.82809 0.02132 0.0
C20 C 0.20629 0.87102 0.9862 0.0
C21 C 0.21091 0.85608 0.05529 0.0
C22 C 0.27115 0.8013 0.02043 0.0
C23 C 0.28032 0.77489 0.05263 0.0
C24 C 0.3014 0.74786 0.04948 0.0
C25 C 0.31365 0.74681 0.01411 0.0
C26 C 0.30587 0.77407 0.98277 0.0
C27 C 0.28489 0.8009 0.98585 0.0
C28 C 0.18906 0.89051 0.94813 0.0
C29 C 0.19172 0.87957 0.91263 0.0
C30 C 0.17355 0.89639 0.87693 0.0
C31 C 0.15257 0.92484 0.87572 0.0
C32 C 0.15091 0.93648 0.9111 0.0
C33 C 0.16876 0.91939 0.94691 0.0
C34 C 0.19863 0.86025 0.09211 0.0
C35 C 0.16704 0.87689 0.09027 0.0
C36 C 0.60001 0.64931 0.50549 0.0
C37 C 0.61874 0.64974 0.47454 0.0
C38 C 0.65206 0.66236 0.47833 0.0
C39 C 0.6664 0.67447 0.51237 0.0
H40 H 0.71912 0.7616 0.54828 0.0
H41 H 0.76193 0.80523 0.5459 0.0
H42 H 0.79718 0.77447 0.67084 0.0
H43 H 0.75333 0.73183 0.67346 0.0
H44 H 0.70959 0.67312 0.72197 0.0
H45 H 0.69432 0.64508 0.7846 0.0
H46 H 0.59216 0.62983 0.72591 0.0
H47 H 0.60751 0.65706 0.66292 0.0
H48 H 0.59976 0.6598 0.56354 0.0
H49 H 0.5743 0.63956 0.50327 0.0
H50 H 0.66694 0.66308 0.45477 0.0
H51 H 0.69221 0.68398 0.5144 0.0
N52 N 0.68952 0.70787 0.57929 0.0
N53 N 0.69558 0.70452 0.64772 0.0
N54 N 0.65386 0.6727 0.61527 0.0
C55 C 0.70535 0.71782 0.6128 0.0
C56 C 0.66975 0.6821 0.64916 0.0
C57 C 0.66387 0.68527 0.58027 0.0
C58 C 0.73261 0.7433 0.61112 0.0
C59 C 0.73607 0.76406 0.57525 0.0
C60 C 0.76084 0.78903 0.57384 0.0
C61 C 0.78308 0.79362 0.60819 0.0
C62 C 0.78007 0.77228 0.6439 0.0
C63 C 0.75501 0.74762 0.6454 0.0
C64 C 0.6598 0.66714 0.68745 0.0
C65 C 0.68378 0.66404 0.72242 0.0
C66 C 0.67513 0.64797 0.75823 0.0
C67 C 0.64209 0.63544 0.75993 0.0
C68 C 0.61773 0.63951 0.72531 0.0
C69 C 0.62661 0.65488 0.68931 0.0
C70 C 0.64797 0.67355 0.54371 0.0
C71 C 0.61464 0.66075 0.53996 0.0
C72 C 0.86854 0.12895 0.9417 0.0
C73 C 0.85133 0.14566 0.90504 0.0
C74 C 0.82441 0.16862 0.90437 0.0
C75 C 0.81505 0.17485 0.93948 0.0
H76 H 0.73864 0.22564 0.98854 0.0
H77 H 0.69473 0.26666 0.9942 0.0
H78 H 0.74239 0.26789 0.11432 0.0
H79 H 0.78504 0.22668 0.1091 0.0
H80 H 0.79408 0.13308 0.1453 0.0
H81 H 0.81664 0.10055 0.20993 0.0
H82 H 0.91387 0.08799 0.17258 0.0
H83 H 0.89093 0.12018 0.1069 0.0
H84 H 0.87295 0.12157 1.0044 0.0
H85 H 0.88916 0.11085 0.94329 0.0
H86 H 0.81087 0.18222 0.87666 0.0
H87 H 0.79427 0.19279 0.93773 0.0
N88 N 0.79882 0.18945 0.01327 0.0
N89 N 0.80385 0.17548 0.08191 0.0
N90 N 0.8364 0.14526 0.04865 0.0
C91 C 0.78981 0.19522 0.04755 0.0
C92 C 0.82698 0.15052 0.08285 0.0
C93 C 0.82228 0.16451 0.01362 0.0
C94 C 0.76499 0.22248 0.04854 0.0
C95 C 0.73975 0.23493 0.01598 0.0
C96 C 0.71466 0.25846 0.01924 0.0
C97 C 0.71459 0.27009 0.05501 0.0
C98 C 0.74091 0.25874 0.08675 0.0
C99 C 0.76557 0.23516 0.08364 0.0
C100 C 0.84078 0.12917 0.12107 0.0
C101 C 0.82022 0.12324 0.15068 0.0
C102 C 0.83303 0.10451 0.18762 0.0
C103 C 0.86692 0.09182 0.19611 0.0
C104 C 0.88764 0.09762 0.16663 0.0
C105 C 0.8745 0.1158 0.12914 0.0
C106 C 0.83225 0.15812 0.9762 0.0
C107 C 0.85907 0.13501 0.97679 0.0
C108 C 0.4025 0.35813 0.56669 0.0
C109 C 0.39163 0.34295 0.60188 0.0
C110 C 0.36832 0.31651 0.60079 0.0
C111 C 0.35574 0.30583 0.5654 0.0
H112 H 0.28726 0.24353 0.5223 0.0
H113 H 0.24322 0.20136 0.52443 0.0
H114 H 0.22544 0.21518 0.39734 0.0
H115 H 0.27035 0.257 0.39511 0.0
H116 H 0.31344 0.31587 0.34793 0.0
H117 H 0.33051 0.344 0.28655 0.0
H118 H 0.4221 0.37856 0.352 0.0
H119 H 0.40514 0.35058 0.41353 0.0
H120 H 0.39852 0.35985 0.50449 0.0
H121 H 0.42066 0.3784 0.5666 0.0
H122 H 0.35892 0.30463 0.62717 0.0
H123 H 0.33744 0.28568 0.56587 0.0
N124 N 0.32552 0.2881 0.49179 0.0
N125 N 0.32091 0.29273 0.42341 0.0
N126 N 0.3614 0.3245 0.45789 0.0
C127 C 0.31035 0.2788 0.4577 0.0
C128 C 0.34657 0.31552 0.4233 0.0
C129 C 0.35094 0.31089 0.49229 0.0
C130 C 0.28262 0.25368 0.45848 0.0
C131 C 0.27399 0.23776 0.49467 0.0
C132 C 0.24844 0.21366 0.49595 0.0
C133 C 0.23069 0.20482 0.46109 0.0
C134 C 0.23893 0.22103 0.42482 0.0
C135 C 0.26462 0.24514 0.42352 0.0
C136 C 0.35777 0.33111 0.38579 0.0
C137 C 0.33735 0.32924 0.34933 0.0
C138 C 0.34703 0.34546 0.31413 0.0
C139 C 0.37758 0.36356 0.3145 0.0
C140 C 0.39854 0.36461 0.35079 0.0
C141 C 0.38865 0.34876 0.38605 0.0
C142 C 0.36607 0.32132 0.53001 0.0
C143 C 0.38992 0.34738 0.53112 0.0
Tb144 Tb 0.02884 0.96119 0.52344 0.0
C145 C 0.93802 0.08949 0.47713 0.0
N146 N 0.97089 0.0857 0.49618 0.0
C147 C 0.98695 0.13394 0.45276 0.0
C148 C 0.92853 0.1148 0.4438 0.0
C149 C 0.99513 0.10816 0.48551 0.0
C150 C 0.95357 0.13708 0.43157 0.0
C151 C 0.87937 0.07124 0.47322 0.0
C152 C 0.91395 0.06802 0.49167 0.0
C153 C 0.86985 0.09547 0.43893 0.0
C154 C 0.89438 0.1173 0.42432 0.0
Tb155 Tb 0.9821 0.04267 0.54866 0.0
N156 N 0.92421 0.04523 0.52512 0.0
C157 C 0.85527 0.05078 0.49052 0.0
C158 C 0.90027 0.02734 0.5438 0.0
C159 C 0.8657 0.02919 0.52636 0.0
H160 H 0.02076 0.10605 0.50212 0.0
H161 H 0.84703 0.01437 0.54093 0.0
H162 H 0.97585 0.89628 0.53477 0.0
H163 H 0.16413 0.96728 0.57532 0.0
H164 H 0.90741 0.0121 0.57257 0.0
H165 H 0.82843 0.05242 0.47729 0.0
H166 H 0.10841 0.98651 0.53405 0.0
H167 H 0.00635 0.1514 0.44396 0.0
H168 H 0.84345 0.09812 0.42411 0.0
H169 H 0.88656 0.13637 0.39839 0.0
H170 H 0.97356 0.84326 0.58136 0.0
H171 H 0.94728 0.15707 0.40624 0.0
H172 H 0.16763 0.91514 0.62542 0.0
N173 N 0.02426 0.91021 0.56336 0.0
C174 C 0.05281 0.8989 0.58965 0.0
C175 C 0.99577 0.859 0.58459 0.0
C176 C 0.05358 0.86762 0.6154 0.0
C177 C 0.9967 0.88971 0.55892 0.0
C178 C 0.02413 0.84815 0.61345 0.0
N179 N 0.08054 0.9469 0.56237 0.0
C180 C 0.10965 0.96418 0.55646 0.0
C181 C 0.11341 0.90527 0.61228 0.0
C182 C 0.08223 0.91747 0.58843 0.0
C183 C 0.14309 0.92373 0.60777 0.0
C184 C 0.14122 0.95321 0.57956 0.0
H185 H 0.02363 0.82399 0.63274 0.0
H186 H 0.08519 0.83221 0.66095 0.0
H187 H 0.13773 0.86503 0.65789 0.0
O188 O 0.05479 0.96804 0.47494 0.0
O189 O 0.04922 0.97981 0.57862 0.0
O190 O 0.9998 0.99918 0.5933 0.0
O191 O 0.03359 0.92015 0.49418 0.0
O192 O 0.04621 0.0115 0.50148 0.0
O193 O 0.03709 0.0469 0.54483 0.0
O194 O 0.95563 0.06928 0.58265 0.0
O195 O 0.98574 0.03841 0.48767 0.0
O196 O 0.98047 0.98171 0.48739 0.0
O197 O 0.01056 0.07465 0.58289 0.0
O198 O 0.96347 0.992 0.57067 0.0
O199 O 0.97364 0.95636 0.52781 0.0
C200 C 0.03182 0.98919 0.60406 0.0
C201 C 0.03625 0.93562 0.42638 0.0
C202 C 0.0475 0.92353 0.36351 0.0
C203 C 0.01436 0.9359 0.34587 0.0
C204 C 1.0031 0.94729 0.40846 0.0
C205 C 0.99229 0.94756 0.36833 0.0
C206 C 0.05826 0.92355 0.40392 0.0
C207 C 0.05442 0.03755 0.51905 0.0
C208 C 0.0491 0.93775 0.46773 0.0
C209 C 0.08414 0.85608 0.64081 0.0
C210 C 0.11408 0.87473 0.63901 0.0
C211 C 0.97403 0.0133 0.47039 0.0
C212 C 0.98537 0.10696 0.62435 0.0
C213 C 0.96564 0.12669 0.67962 0.0
C214 C 0.99208 0.15025 0.67993 0.0
C215 C 0.01164 0.13056 0.62554 0.0
C216 C 0.96213 0.10533 0.65121 0.0
C217 C 0.01477 0.15219 0.653 0.0
C218 C 0.95622 0.96508 0.55393 0.0
C219 C 0.98375 0.083 0.59658 0.0
H220 H 0.00535 0.93605 0.31486 0.0
H221 H 0.98574 0.95635 0.4254 0.0
H222 H 0.96675 0.95686 0.35461 0.0
H223 H 0.08401 0.91484 0.41773 0.0
H224 H 0.9951 0.16744 0.70086 0.0
H225 H 0.02984 0.13225 0.60525 0.0
H226 H 0.94222 0.0867 0.65093 0.0
H227 H 0.03503 0.17041 0.65359 0.0
Tb228 Tb 0.47429 0.4774 0.9952 0.0
C229 C 0.60978 0.53549 0.04295 0.0
N230 N 0.59431 0.51099 0.06553 0.0
C231 C 0.64591 0.47671 0.07895 0.0
C232 C 0.64324 0.53069 0.0355 0.0
C233 C 0.61288 0.48301 0.08593 0.0
C234 C 0.66088 0.50032 0.05288 0.0
C235 C 0.60833 0.59311 0.00744 0.0
C236 C 0.59276 0.56632 0.02929 0.0
C237 C 0.64091 0.5879 0.99809 0.0
C238 C 0.65833 0.55672 0.01207 0.0
Tb239 Tb 0.53875 0.52323 0.07084 0.0
N240 N 0.56087 0.57008 0.03786 0.0
C241 C 0.5908 0.62437 0.99617 0.0
C242 C 0.54444 0.60097 0.029 0.0
C243 C 0.55893 0.62844 0.00747 0.0
H244 H 0.60246 0.46544 0.10784 0.0
H245 H 0.54552 0.65269 0.99956 0.0
H246 H 0.39793 0.51014 0.99304 0.0
H247 H 0.5153 0.34583 0.0188 0.0
H248 H 0.51981 0.60411 0.0377 0.0
H249 H 0.60194 0.64567 0.97949 0.0
H250 H 0.51564 0.40614 0.98931 0.0
H251 H 0.65999 0.45389 0.09412 0.0
H252 H 0.65313 0.60799 0.98076 0.0
H253 H 0.68382 0.55333 0.00551 0.0
H254 H 0.34451 0.49253 0.01884 0.0
H255 H 0.6866 0.49554 0.04781 0.0
H256 H 0.47042 0.32465 0.05811 0.0
N257 N 0.42373 0.46292 0.01623 0.0
C258 C 0.4212 0.43049 0.03401 0.0
C259 C 0.36602 0.4749 0.0236 0.0
C260 C 0.3916 0.41929 0.04947 0.0
C261 C 0.39617 0.48481 0.00904 0.0
C262 C 0.36397 0.44218 0.04463 0.0
N263 N 0.47405 0.41992 0.01574 0.0
C264 C 0.49687 0.39758 0.00789 0.0
C265 C 0.44554 0.37379 0.05047 0.0
C266 C 0.44771 0.40825 0.03442 0.0
C267 C 0.47104 0.35134 0.04615 0.0
C268 C 0.49639 0.3632 0.02398 0.0
H269 H 0.34067 0.43458 0.056 0.0
H270 H 0.36792 0.37638 0.08063 0.0
H271 H 0.41528 0.33642 0.08154 0.0
O272 O 0.45412 0.45279 0.94703 0.0
O273 O 0.46074 0.48638 0.05112 0.0
O274 O 0.51083 0.47946 0.09533 0.0
O275 O 0.45436 0.50764 0.94158 0.0
O276 O 0.52777 0.45872 0.01277 0.0
O277 O 0.54367 0.46789 0.07659 0.0
O278 O 0.52088 0.54577 0.11423 0.0
O279 O 0.52894 0.54043 0.00644 0.0
O280 O 0.52419 0.49237 0.97997 0.0
O281 O 0.57433 0.53483 0.11789 0.0
O282 O 0.48778 0.54785 0.05283 0.0
O283 O 0.4626 0.53107 0.99387 0.0
C284 C 0.47752 0.4761 0.08681 0.0
C285 C 0.42764 0.48693 0.88376 0.0
C286 C 0.41346 0.46848 0.8201 0.0
C287 C 0.3909 0.49666 0.80685 0.0
C288 C 0.40533 0.51502 0.86966 0.0
C289 C 0.38706 0.51976 0.83143 0.0
C290 C 0.43172 0.46378 0.85893 0.0
C291 C 0.54515 0.45007 0.04859 0.0
C292 C 0.44612 0.48187 0.92452 0.0
C293 C 0.3902 0.38545 0.06793 0.0
C294 C 0.4172 0.36272 0.0685 0.0
C295 C 0.53645 0.5226 0.98084 0.0
C296 C 0.55349 0.52937 0.17749 0.0
C297 C 0.56028 0.53556 0.2465 0.0
C298 C 0.56378 0.50026 0.25756 0.0
C299 C 0.55659 0.49413 0.18904 0.0
C300 C 0.55488 0.54999 0.20626 0.0
C301 C 0.56178 0.47973 0.22893 0.0
C302 C 0.46496 0.55152 0.02006 0.0
C303 C 0.55103 0.54481 0.13579 0.0
H304 H 0.3757 0.50068 0.77766 0.0
H305 H 0.40169 0.5331 0.88837 0.0
H306 H 0.36961 0.54128 0.82091 0.0
H307 H 0.44947 0.44248 0.86975 0.0
H308 H 0.56795 0.48858 0.28836 0.0
H309 H 0.55571 0.47785 0.16726 0.0
H310 H 0.55285 0.57723 0.1974 0.0
H311 H 0.56476 0.4526 0.23772 0.0
H312 H 0.1825 0.19299 0.51064 0.0
H313 H 0.22028 0.15521 0.41598 0.0
H314 H 0.17893 0.10917 0.42029 0.0
H315 H 0.17154 0.11197 0.56819 0.0
H316 H 0.13298 0.12421 0.58402 0.0
H317 H 0.16441 0.15534 0.57249 0.0
H318 H 0.11785 0.19183 0.52196 0.0
H319 H 0.08629 0.16081 0.53348 0.0
H320 H 0.09307 0.17333 0.48329 0.0
H321 H 0.13502 0.06651 0.43576 0.0
H322 H 0.09024 0.03027 0.46026 0.0
H323 H 0.08146 0.09428 0.54659 0.0
C324 C 0.18216 0.17501 0.49085 0.0
C325 C 0.20465 0.17791 0.4628 0.0
C326 C 0.203 0.15398 0.43722 0.0
C327 C 0.17975 0.12756 0.43964 0.0
C328 C 0.15827 0.12531 0.4678 0.0
C329 C 0.15913 0.14839 0.49291 0.0
C330 C 0.13348 0.13983 0.52089 0.0
C331 C 0.1517 0.13239 0.56395 0.0
C332 C 0.10605 0.16814 0.51451 0.0
C333 C 0.11831 0.10816 0.50774 0.0
C334 C 0.13297 0.10036 0.47702 0.0
C335 C 0.1233 0.07237 0.45977 0.0
C336 C 0.09779 0.05187 0.47406 0.0
C337 C 0.08211 0.05932 0.50544 0.0
C338 C 0.09279 0.08784 0.52257 0.0
H339 H 0.36617 0.71003 0.06577 0.0
H340 H 0.30416 0.7155 0.95015 0.0
H341 H 0.33641 0.66668 0.93924 0.0
H342 H 0.44569 0.6872 0.03892 0.0
H343 H 0.45985 0.65846 0.08437 0.0
H344 H 0.43173 0.69377 0.08369 0.0
H345 H 0.38814 0.653 0.11373 0.0
H346 H 0.41623 0.61761 0.11465 0.0
H347 H 0.37251 0.61844 0.08962 0.0
H348 H 0.37504 0.61789 0.94026 0.0
H349 H 0.41771 0.57128 0.95339 0.0
H350 H 0.45507 0.59661 0.06861 0.0
C351 C 0.35926 0.70076 0.03831 0.0
C352 C 0.33285 0.71678 0.00866 0.0
C353 C 0.3247 0.70404 0.973 0.0
C354 C 0.34272 0.6762 0.96659 0.0
C355 C 0.36882 0.66125 0.99615 0.0
C356 C 0.3771 0.67294 0.03134 0.0
C357 C 0.40651 0.65221 0.05804 0.0
C358 C 0.43779 0.67423 0.06675 0.0
C359 C 0.39516 0.63425 0.09627 0.0
C360 C 0.4134 0.62718 0.03224 0.0
C361 C 0.39129 0.63288 0.99672 0.0
C362 C 0.39251 0.61311 0.96799 0.0
C363 C 0.41691 0.58665 0.97579 0.0
C364 C 0.43987 0.58015 0.01207 0.0
C365 C 0.43803 0.60088 0.04054 0.0
H366 H 0.82063 0.81695 0.54911 0.0
H367 H 0.80344 0.83302 0.66428 0.0
H368 H 0.84586 0.87806 0.66279 0.0
H369 H 0.91033 0.83177 0.56229 0.0
H370 H 0.91038 0.8543 0.51298 0.0
H371 H 0.87882 0.82272 0.52225 0.0
H372 H 0.82959 0.86597 0.49115 0.0
H373 H 0.86068 0.89775 0.48066 0.0
H374 H 0.82802 0.90542 0.50876 0.0
H375 H 0.89058 0.92083 0.64949 0.0
H376 H 0.93378 0.95942 0.62448 0.0
H377 H 0.91862 0.91911 0.51566 0.0
C378 C 0.82544 0.83009 0.5739 0.0
C379 C 0.80872 0.82102 0.607 0.0
C380 C 0.81633 0.83877 0.63896 0.0
C381 C 0.84022 0.86466 0.63827 0.0
C382 C 0.85613 0.87286 0.60527 0.0
C383 C 0.84894 0.8563 0.57354 0.0
C384 C 0.86937 0.87041 0.54146 0.0
C385 C 0.89367 0.84318 0.53433 0.0
C386 C 0.84548 0.88581 0.50325 0.0
C387 C 0.88915 0.89747 0.56018 0.0
C388 C 0.88126 0.89829 0.59708 0.0
C389 C 0.89681 0.92057 0.62053 0.0
C390 C 0.92122 0.9425 0.60596 0.0
C391 C 0.92969 0.94223 0.56815 0.0
C392 C 0.91305 0.91962 0.54488 0.0
H393 H 0.68276 0.32457 1.00202 0.0
H394 H 0.68339 0.26766 0.11978 0.0
H395 H 0.64039 0.30744 0.13088 0.0
H396 H 0.67324 0.40664 0.02522 0.0
H397 H 0.64457 0.4229 0.98029 0.0
H398 H 0.67539 0.38983 0.98107 0.0
H399 H 0.62636 0.35222 0.95504 0.0
H400 H 0.59553 0.38536 0.95403 0.0
H401 H 0.5907 0.3437 0.98126 0.0
H402 H 0.59947 0.35487 0.13081 0.0
H403 H 0.56015 0.40489 0.11719 0.0
H404 H 0.58347 0.4291 0.99866 0.0
C405 C 0.67355 0.3202 0.02995 0.0
C406 C 0.68693 0.29317 0.0602 0.0
C407 C 0.67425 0.28859 0.09643 0.0
C408 C 0.64961 0.31093 0.10299 0.0
C409 C 0.63748 0.33761 0.07291 0.0
C410 C 0.6487 0.34218 0.03694 0.0
C411 C 0.63134 0.37296 0.00959 0.0
C412 C 0.65771 0.39965 0.99839 0.0
C413 C 0.6097 0.36295 0.97281 0.0
C414 C 0.60883 0.38494 0.0359 0.0
C415 C 0.61293 0.36434 0.07241 0.0
C416 C 0.59578 0.37103 0.10219 0.0
C417 C 0.57367 0.39946 0.09431 0.0
C418 C 0.56873 0.42049 0.05688 0.0
C419 C 0.58653 0.41309 0.02738 0.0
H420 H 0.13651 0.92138 0.1749 0.0
H421 H 0.18007 0.82258 0.23154 0.0
H422 H 0.1553 0.82758 0.29069 0.0
H423 H 0.14596 0.96031 0.26212 0.0
H424 H 0.10548 0.98312 0.24701 0.0
H425 H 0.12921 0.97308 0.21049 0.0
H426 H 0.07628 0.94317 0.17902 0.0
H427 H 0.05242 0.95306 0.21544 0.0
H428 H 0.05692 0.90983 0.20913 0.0
H429 H 0.12363 0.8423 0.34279 0.0
H430 H 0.08623 0.86499 0.38289 0.0
H431 H 0.06105 0.95263 0.29073 0.0
C432 C 0.14086 0.90067 0.19961 0.0
C433 C 0.16045 0.8716 0.19838 0.0
C434 C 0.16578 0.84541 0.23183 0.0
C435 C 0.15161 0.84791 0.26554 0.0
C436 C 0.13204 0.87668 0.2654 0.0
C437 C 0.12661 0.90257 0.23327 0.0
C438 C 0.10325 0.93008 0.23982 0.0
C439 C 0.12211 0.96363 0.23987 0.0
C440 C 0.07027 0.93426 0.20903 0.0
C441 C 0.09593 0.91537 0.28045 0.0
C442 C 0.1131 0.88475 0.29491 0.0
C443 C 0.11016 0.86631 0.33181 0.0
C444 C 0.08897 0.87942 0.35442 0.0
C445 C 0.07073 0.9105 0.33987 0.0
C446 C 0.07445 0.92866 0.30244 0.0
H447 H 0.58964 0.648 0.79859 0.0
H448 H 0.67544 0.57945 0.8047 0.0
H449 H 0.65954 0.54452 0.86443 0.0
H450 H 0.59739 0.64291 0.90597 0.0
H451 H 0.5517 0.64519 0.905 0.0
H452 H 0.57 0.66584 0.86334 0.0
H453 H 0.53054 0.63307 0.81707 0.0
H454 H 0.51149 0.6126 0.85813 0.0
H455 H 0.53019 0.58758 0.82851 0.0
H456 H 0.63039 0.51373 0.91833 0.0
H457 H 0.59312 0.49209 0.96717 0.0
H458 H 0.52957 0.58319 0.93062 0.0
C459 C 0.6052 0.62581 0.81286 0.0
C460 C 0.63371 0.61624 0.79721 0.0
C461 C 0.65364 0.58718 0.81653 0.0
C462 C 0.64476 0.56722 0.85034 0.0
C463 C 0.6163 0.57708 0.86487 0.0
C464 C 0.59715 0.606 0.8472 0.0
C465 C 0.5677 0.61081 0.86878 0.0
C466 C 0.57195 0.64311 0.88685 0.0
C467 C 0.53294 0.61102 0.84149 0.0
C468 C 0.57258 0.57948 0.90043 0.0
C469 C 0.6007 0.56029 0.89754 0.0
C470 C 0.60872 0.52883 0.92136 0.0
C471 C 0.58737 0.51665 0.94876 0.0
C472 C 0.55892 0.53623 0.9526 0.0
C473 C 0.55164 0.56815 0.92852 0.0
H474 H 0.92385 0.10563 0.24649 0.0
H475 H 0.83919 0.03704 0.23604 0.0
H476 H 0.85802 0.0089 0.30502 0.0
H477 H 0.98635 0.04471 0.31152 0.0
H478 H 0.00481 0.07577 0.33972 0.0
H479 H 0.98637 0.08852 0.2886 0.0
H480 H 0.94605 0.13177 0.30753 0.0
H481 H 0.96524 0.11907 0.35828 0.0
H482 H 0.91937 0.11733 0.34401 0.0
H483 H 0.88537 0.98888 0.37502 0.0
H484 H 0.91887 0.979 0.4424 0.0
H485 H 0.98352 0.06296 0.40904 0.0
C486 C 0.90976 0.08426 0.25862 0.0
C487 C 0.8803 0.07318 0.23605 0.0
C488 C 0.86191 0.04571 0.25298 0.0
C489 C 0.87241 0.02962 0.29203 0.0
C490 C 0.90117 0.04154 0.31381 0.0
C491 C 0.91962 0.06822 0.2978 0.0
C492 C 0.94864 0.07701 0.3282 0.0
C493 C 0.98361 0.07114 0.31629 0.0
C494 C 0.94453 0.11346 0.33491 0.0
C495 C 0.94321 0.05154 0.36395 0.0
C496 C 0.91602 0.03097 0.35479 0.0
C497 C 0.90664 0.00487 0.38259 0.0
C498 C 0.92573 0.99945 0.42068 0.0
C499 C 0.9535 0.02034 0.43068 0.0
C500 C 0.96212 0.04691 0.40209 0.0
H501 H 0.39854 0.40882 0.6127 0.0
H502 H 0.40937 0.30551 0.67602 0.0
H503 H 0.42092 0.3265 0.73905 0.0
H504 H 0.46583 0.44433 0.68106 0.0
H505 H 0.44163 0.48326 0.67546 0.0
H506 H 0.43793 0.46004 0.63533 0.0
H507 H 0.37204 0.45855 0.63263 0.0
H508 H 0.37553 0.48139 0.67294 0.0
H509 H 0.35487 0.44116 0.67639 0.0
H510 H 0.42447 0.35856 0.79508 0.0
H511 H 0.42197 0.3993 0.83978 0.0
H512 H 0.41259 0.4818 0.73993 0.0
C513 C 0.40436 0.3906 0.63973 0.0
C514 C 0.40298 0.35551 0.63938 0.0
C515 C 0.4099 0.33251 0.67555 0.0
C516 C 0.41672 0.34418 0.7115 0.0
C517 C 0.41695 0.37893 0.71082 0.0
C518 C 0.41138 0.40181 0.67586 0.0
C519 C 0.41101 0.43779 0.6833 0.0
C520 C 0.44089 0.45752 0.66788 0.0
C521 C 0.3763 0.45576 0.66525 0.0
C522 C 0.41612 0.4315 0.72786 0.0
C523 C 0.41973 0.39742 0.7432 0.0
C524 C 0.4224 0.38538 0.78347 0.0
C525 C 0.42112 0.40879 0.80869 0.0
C526 C 0.41723 0.44391 0.79359 0.0
C527 C 0.41528 0.4552 0.75259 0.0
H528 H 0.64647 0.602 0.4412 0.0
H529 H 0.55732 0.6681 0.42701 0.0
H530 H 0.53292 0.64715 0.3659 0.0
H531 H 0.65302 0.60911 0.33869 0.0
H532 H 0.6651 0.56529 0.34279 0.0
H533 H 0.67576 0.58623 0.38457 0.0
H534 H 0.64442 0.54031 0.42649 0.0
H535 H 0.63372 0.51919 0.38486 0.0
H536 H 0.60027 0.53173 0.40921 0.0
H537 H 0.51937 0.61998 0.30508 0.0
H538 H 0.51533 0.58515 0.25259 0.0
H539 H 0.61185 0.5347 0.30909 0.0
C540 C 0.62188 0.61212 0.42505 0.0
C541 C 0.60379 0.63678 0.43847 0.0
C542 C 0.57146 0.64914 0.41708 0.0
C543 C 0.55753 0.6375 0.38235 0.0
C544 C 0.57609 0.6132 0.3698 0.0
C545 C 0.60738 0.60038 0.39077 0.0
C546 C 0.62157 0.57351 0.37188 0.0
C547 C 0.65589 0.58419 0.3587 0.0
C548 C 0.62519 0.53915 0.39977 0.0
C549 C 0.59347 0.57329 0.33688 0.0
C550 C 0.56763 0.59661 0.3359 0.0
C551 C 0.53935 0.60149 0.30572 0.0
C552 C 0.53731 0.58175 0.27601 0.0
C553 C 0.56314 0.55718 0.27708 0.0
C554 C 0.59156 0.55305 0.30789 0.0
H555 H 0.91665 0.14025 0.88899 0.0
H556 H 0.80959 0.13748 0.83646 0.0
H557 H 0.82698 0.12891 0.77397 0.0
H558 H 0.94543 0.18609 0.80537 0.0
H559 H 0.98594 0.16344 0.81347 0.0
H560 H 0.965 0.16719 0.85458 0.0
H561 H 0.9666 0.102 0.87504 0.0
H562 H 0.98761 0.09804 0.83397 0.0
H563 H 0.94828 0.07632 0.83982 0.0
H564 H 0.85649 0.12235 0.71621 0.0
H565 H 0.89547 0.12115 0.66768 0.0
H566 H 0.98288 0.12796 0.75859 0.0
C567 C 0.89683 0.1373 0.86457 0.0
C568 C 0.86172 0.13947 0.86771 0.0
C569 C 0.83663 0.1362 0.83469 0.0
C570 C 0.84627 0.13107 0.79915 0.0
C571 C 0.88112 0.12924 0.79703 0.0
C572 C 0.90599 0.13229 0.8289 0.0
C573 C 0.94165 0.13093 0.81856 0.0
C574 C 0.9606 0.16387 0.82327 0.0
C575 C 0.96224 0.09998 0.84332 0.0
C576 C 0.93299 0.12727 0.77569 0.0
C577 C 0.89798 0.12592 0.76387 0.0
C578 C 0.88396 0.12321 0.72524 0.0
C579 C 0.90628 0.12239 0.69791 0.0
C580 C 0.9422 0.12461 0.70924 0.0
C581 C 0.95553 0.12658 0.74886 0.0
H582 H 0.43997 0.36513 0.28867 0.0
H583 H 0.33558 0.40544 0.25661 0.0
H584 H 0.35029 0.43894 0.19561 0.0
H585 H 0.48273 0.44068 0.25229 0.0
H586 H 0.51424 0.41804 0.23417 0.0
H587 H 0.49521 0.39784 0.27536 0.0
H588 H 0.47688 0.34879 0.23722 0.0
H589 H 0.49553 0.36979 0.19603 0.0
H590 H 0.4511 0.35832 0.18892 0.0
H591 H 0.37649 0.46962 0.13977 0.0
H592 H 0.41173 0.4931 0.08999 0.0
H593 H 0.49892 0.43158 0.15593 0.0
C594 C 0.42028 0.38108 0.26879 0.0
C595 C 0.3866 0.38272 0.27734 0.0
C596 C 0.36142 0.40356 0.25044 0.0
C597 C 0.36958 0.42281 0.21585 0.0
C598 C 0.40299 0.42076 0.20838 0.0
C599 C 0.4279 0.40022 0.23381 0.0
C600 C 0.46164 0.40221 0.21818 0.0
C601 C 0.49012 0.41551 0.24673 0.0
C602 C 0.47188 0.36772 0.20958 0.0
C603 C 0.45195 0.42758 0.18041 0.0
C604 C 0.41796 0.43788 0.17542 0.0
C605 C 0.40301 0.46142 0.14312 0.0
C606 C 0.42316 0.47442 0.11482 0.0
C607 C 0.45775 0.46356 0.11861 0.0
C608 C 0.47247 0.44021 0.1522 0.0
H609 H 0.16884 0.93459 0.80073 0.0
H610 H 0.0869 0.95053 0.86518 0.0
H611 H 0.0494 0.97299 0.80273 0.0
H612 H 0.1481 0.00782 0.72055 0.0
H613 H 0.15794 0.98483 0.68368 0.0
H614 H 0.1801 0.97418 0.73369 0.0
H615 H 0.16065 0.9116 0.73752 0.0
H616 H 0.14085 0.92305 0.68706 0.0
H617 H 0.11579 0.90362 0.72322 0.0
H618 H 0.01951 0.98976 0.73411 0.0
H619 H 0.99803 0.99891 0.66318 0.0
H620 H 0.09798 0.96949 0.64163 0.0
C621 C 0.1431 0.94301 0.80181 0.0
C622 C 0.13103 0.94096 0.83811 0.0
C623 C 0.09716 0.95248 0.83801 0.0
C624 C 0.07553 0.96513 0.80261 0.0
C625 C 0.08805 0.96609 0.76746 0.0
C626 C 0.12102 0.95545 0.7667 0.0
C627 C 0.12722 0.9569 0.72477 0.0
C628 C 0.15499 0.98246 0.71512 0.0
C629 C 0.13662 0.92165 0.71779 0.0
C630 C 0.09221 0.96916 0.70204 0.0
C631 C 0.07028 0.97476 0.72741 0.0
C632 C 0.03644 0.9856 0.71391 0.0
C633 C 0.02451 0.99065 0.6734 0.0
C634 C 0.0462 0.9846 0.6466 0.0
C635 C 0.08066 0.97401 0.66123 0.0
loop_
_geom_bond_atom_site_label_1
_geom_bond_atom_site_label_2
_geom_bond_distance
_geom_bond_site_symmetry_2
_ccdc_geom_bond_type
C0 C1 1.384 . S
C0 H13 0.947 . S
C0 C35 1.382 . S
C1 C0 1.384 . S
C1 C2 1.378 . S
C2 C1 1.378 . S
C2 C3 1.378 . S
C2 H14 0.952 . S
C3 C2 1.378 . S
C3 H15 0.950 . S
C3 C34 1.383 . S
H4 C23 0.947 . S
H5 C24 0.946 . S
H6 C26 0.953 . S
H7 C27 0.945 . S
H8 C29 0.952 . S
H9 C30 0.949 . S
H10 C32 0.950 . S
H11 C33 0.948 . S
H12 C35 0.951 . S
H13 C0 0.947 . S
H14 C2 0.952 . S
H15 C3 0.950 . S
N16 C19 1.382 . S
N16 C21 1.363 . S
N17 C19 1.371 1_556 S
N17 C20 1.372 . S
N18 C20 1.361 1_554 S
N18 C21 1.377 . S
C19 N16 1.382 . S
C19 N17 1.371 1_554 S
C19 C22 1.480 . S
C20 N17 1.372 . S
C20 N18 1.361 1_556 S
C20 C28 1.457 . S
C21 N16 1.363 . S
C21 N18 1.377 . S
C21 C34 1.479 . S
C22 C19 1.480 . S
C22 C23 1.383 . S
C22 C27 1.385 1_554 S
C23 H4 0.947 . S
C23 C22 1.383 . S
C23 C24 1.388 . S
C24 H5 0.946 . S
C24 C23 1.388 . S
C24 C25 1.384 . S
C25 C24 1.384 . S
C25 C26 1.377 1_554 S
C26 H6 0.953 . S
C26 C25 1.377 1_556 S
C26 C27 1.369 . S
C27 H7 0.945 . S
C27 C22 1.385 1_556 S
C27 C26 1.369 . S
C28 C20 1.457 . S
C28 C29 1.372 . S
C28 C33 1.364 . S
C29 H8 0.952 . S
C29 C28 1.372 . S
C29 C30 1.389 . S
C30 H9 0.949 . S
C30 C29 1.389 . S
C30 C31 1.387 . S
C31 C30 1.387 . S
C31 C32 1.372 . S
C32 H10 0.950 . S
C32 C31 1.372 . S
C32 C33 1.379 . S
C33 H11 0.948 . S
C33 C28 1.364 . S
C33 C32 1.379 . S
C34 C3 1.383 . S
C34 C21 1.479 . S
C34 C35 1.398 . S
C35 C0 1.382 . S
C35 H12 0.951 . S
C35 C34 1.398 . S
C36 C37 1.384 . S
C36 H49 0.947 . S
C36 C71 1.382 . S
C37 C36 1.384 . S
C37 C38 1.378 . S
C38 C37 1.378 . S
C38 C39 1.378 . S
C38 H50 0.952 . S
C39 C38 1.378 . S
C39 H51 0.950 . S
C39 C70 1.383 . S
H40 C59 0.947 . S
H41 C60 0.946 . S
H42 C62 0.953 . S
H43 C63 0.945 . S
H44 C65 0.952 . S
H45 C66 0.949 . S
H46 C68 0.950 . S
H47 C69 0.948 . S
H48 C71 0.951 . S
H49 C36 0.947 . S
H50 C38 0.952 . S
H51 C39 0.950 . S
N52 C55 1.382 . S
N52 C57 1.363 . S
N53 C55 1.371 . S
N53 C56 1.372 . S
N54 C56 1.361 . S
N54 C57 1.377 . S
C55 N52 1.382 . S
C55 N53 1.371 . S
C55 C58 1.480 . S
C56 N53 1.372 . S
C56 N54 1.361 . S
C56 C64 1.457 . S
C57 N52 1.363 . S
C57 N54 1.377 . S
C57 C70 1.479 . S
C58 C55 1.480 . S
C58 C59 1.383 . S
C58 C63 1.385 . S
C59 H40 0.947 . S
C59 C58 1.383 . S
C59 C60 1.388 . S
C60 H41 0.946 . S
C60 C59 1.388 . S
C60 C61 1.384 . S
C61 C60 1.384 . S
C61 C62 1.377 . S
C62 H42 0.953 . S
C62 C61 1.377 . S
C62 C63 1.369 . S
C63 H43 0.945 . S
C63 C58 1.385 . S
C63 C62 1.369 . S
C64 C56 1.457 . S
C64 C65 1.372 . S
C64 C69 1.364 . S
C65 H44 0.952 . S
C65 C64 1.372 . S
C65 C66 1.389 . S
C66 H45 0.949 . S
C66 C65 1.389 . S
C66 C67 1.387 . S
C67 C66 1.387 . S
C67 C68 1.372 . S
C68 H46 0.950 . S
C68 C67 1.372 . S
C68 C69 1.379 . S
C69 H47 0.948 . S
C69 C64 1.364 . S
C69 C68 1.379 . S
C70 C39 1.383 . S
C70 C57 1.479 . S
C70 C71 1.398 . S
C71 C36 1.382 . S
C71 H48 0.951 . S
C71 C70 1.398 . S
C72 C73 1.384 . S
C72 H85 0.947 . S
C72 C107 1.382 . S
C73 C72 1.384 . S
C73 C74 1.378 . S
C74 C73 1.378 . S
C74 C75 1.378 . S
C74 H86 0.952 . S
C75 C74 1.378 . S
C75 H87 0.950 . S
C75 C106 1.383 . S
H76 C95 0.947 . S
H77 C96 0.946 . S
H78 C98 0.953 . S
H79 C99 0.945 . S
H80 C101 0.952 . S
H81 C102 0.949 . S
H82 C104 0.950 . S
H83 C105 0.948 . S
H84 C107 0.951 1_554 S
H85 C72 0.947 . S
H86 C74 0.952 . S
H87 C75 0.950 . S
N88 C91 1.382 . S
N88 C93 1.363 . S
N89 C91 1.371 . S
N89 C92 1.372 . S
N90 C92 1.361 . S
N90 C93 1.377 . S
C91 N88 1.382 . S
C91 N89 1.371 . S
C91 C94 1.480 . S
C92 N89 1.372 . S
C92 N90 1.361 . S
C92 C100 1.457 . S
C93 N88 1.363 . S
C93 N90 1.377 . S
C93 C106 1.479 1_554 S
C94 C91 1.480 . S
C94 C95 1.383 1_554 S
C94 C99 1.385 . S
C95 H76 0.947 . S
C95 C94 1.383 1_556 S
C95 C96 1.388 . S
C96 H77 0.946 . S
C96 C95 1.388 . S
C96 C97 1.384 1_556 S
C97 C96 1.384 1_554 S
C97 C98 1.377 . S
C98 H78 0.953 . S
C98 C97 1.377 . S
C98 C99 1.369 . S
C99 H79 0.945 . S
C99 C94 1.385 . S
C99 C98 1.369 . S
C100 C92 1.457 . S
C100 C101 1.372 . S
C100 C105 1.364 . S
C101 H80 0.952 . S
C101 C100 1.372 . S
C101 C102 1.389 . S
C102 H81 0.949 . S
C102 C101 1.389 . S
C102 C103 1.387 . S
C103 C102 1.387 . S
C103 C104 1.372 . S
C104 H82 0.950 . S
C104 C103 1.372 . S
C104 C105 1.379 . S
C105 H83 0.948 . S
C105 C100 1.364 . S
C105 C104 1.379 . S
C106 C75 1.383 . S
C106 C93 1.479 1_556 S
C106 C107 1.398 . S
C107 C72 1.382 . S
C107 H84 0.951 1_556 S
C107 C106 1.398 . S
C108 C109 1.384 . S
C108 H121 0.947 . S
C108 C143 1.382 . S
C109 C108 1.384 . S
C109 C110 1.378 . S
C110 C109 1.378 . S
C110 C111 1.378 . S
C110 H122 0.952 . S
C111 C110 1.378 . S
C111 H123 0.950 . S
C111 C142 1.383 . S
H112 C131 0.947 . S
H113 C132 0.946 . S
H114 C134 0.953 . S
H115 C135 0.945 . S
H116 C137 0.952 . S
H117 C138 0.949 . S
H118 C140 0.950 . S
H119 C141 0.948 . S
H120 C143 0.951 . S
H121 C108 0.947 . S
H122 C110 0.952 . S
H123 C111 0.950 . S
N124 C127 1.382 . S
N124 C129 1.363 . S
N125 C127 1.371 . S
N125 C128 1.372 . S
N126 C128 1.361 . S
N126 C129 1.377 . S
C127 N124 1.382 . S
C127 N125 1.371 . S
C127 C130 1.480 . S
C128 N125 1.372 . S
C128 N126 1.361 . S
C128 C136 1.457 . S
C129 N124 1.363 . S
C129 N126 1.377 . S
C129 C142 1.479 . S
C130 C127 1.480 . S
C130 C131 1.383 . S
C130 C135 1.385 . S
C131 H112 0.947 . S
C131 C130 1.383 . S
C131 C132 1.388 . S
C132 H113 0.946 . S
C132 C131 1.388 . S
C132 C133 1.384 . S
C133 C132 1.384 . S
C133 C134 1.377 . S
C134 H114 0.953 . S
C134 C133 1.377 . S
C134 C135 1.369 . S
C135 H115 0.945 . S
C135 C130 1.385 . S
C135 C134 1.369 . S
C136 C128 1.457 . S
C136 C137 1.372 . S
C136 C141 1.364 . S
C137 H116 0.952 . S
C137 C136 1.372 . S
C137 C138 1.389 . S
C138 H117 0.949 . S
C138 C137 1.389 . S
C138 C139 1.387 . S
C139 C138 1.387 . S
C139 C140 1.372 . S
C140 H118 0.950 . S
C140 C139 1.372 . S
C140 C141 1.379 . S
C141 H119 0.948 . S
C141 C136 1.364 . S
C141 C140 1.379 . S
C142 C111 1.383 . S
C142 C129 1.479 . S
C142 C143 1.398 . S
C143 C108 1.382 . S
C143 H120 0.951 . S
C143 C142 1.398 . S
Tb144 N173 2.617 . S
Tb144 N179 2.572 . S
Tb144 O188 2.465 . S
Tb144 O189 2.387 . S
Tb144 O191 2.428 . S
Tb144 O192 2.308 1_565 S
Tb144 O196 2.349 1_455 S
Tb144 O199 2.393 1_455 S
Tb144 C208 2.802 . S
C145 N146 1.379 . S
C145 C148 1.416 . S
C145 C152 1.424 . S
N146 C145 1.379 . S
N146 C149 1.334 1_655 S
N146 Tb155 2.617 . S
C147 C149 1.390 1_655 S
C147 C150 1.339 . S
C147 H167 0.930 1_655 S
C148 C145 1.416 . S
C148 C150 1.416 . S
C148 C154 1.448 . S
C149 N146 1.334 1_455 S
C149 C147 1.390 1_455 S
C149 H160 0.930 . S
C150 C147 1.339 . S
C150 C148 1.416 . S
C150 H171 0.930 . S
C151 C152 1.413 . S
C151 C153 1.427 . S
C151 C157 1.416 . S
C152 C145 1.424 . S
C152 C151 1.413 . S
C152 N156 1.361 . S
C153 C151 1.427 . S
C153 C154 1.328 . S
C153 H168 0.929 . S
C154 C148 1.448 . S
C154 C153 1.328 . S
C154 H169 0.930 . S
Tb155 N146 2.617 . S
Tb155 N156 2.572 . S
Tb155 O190 2.349 1_655 S
Tb155 O193 2.393 1_655 S
Tb155 O194 2.465 . S
Tb155 O195 2.387 . S
Tb155 O197 2.428 . S
Tb155 O198 2.308 1_545 S
Tb155 C219 2.802 . S
N156 C152 1.361 . S
N156 Tb155 2.572 . S
N156 C158 1.340 . S
C157 C151 1.416 . S
C157 C159 1.332 . S
C157 H165 0.931 . S
C158 N156 1.340 . S
C158 C159 1.407 . S
C158 H164 0.930 . S
C159 C157 1.332 . S
C159 C158 1.407 . S
C159 H161 0.929 . S
H160 C149 0.930 . S
H161 C159 0.929 . S
H162 C177 0.930 1_655 S
H163 C184 0.929 . S
H164 C158 0.930 . S
H165 C157 0.931 . S
H166 C180 0.930 . S
H167 C147 0.930 1_455 S
H168 C153 0.929 . S
H169 C154 0.930 . S
H170 C175 0.930 1_655 S
H171 C150 0.930 . S
H172 C183 0.931 . S
N173 Tb144 2.617 . S
N173 C174 1.379 . S
N173 C177 1.334 . S
C174 N173 1.379 . S
C174 C176 1.416 . S
C174 C182 1.424 . S
C175 H170 0.930 1_455 S
C175 C177 1.390 . S
C175 C178 1.339 . S
C176 C174 1.416 . S
C176 C178 1.416 . S
C176 C209 1.448 . S
C177 H162 0.930 1_455 S
C177 N173 1.334 . S
C177 C175 1.390 . S
C178 C175 1.339 . S
C178 C176 1.416 . S
C178 H185 0.930 . S
N179 Tb144 2.572 . S
N179 C180 1.340 . S
N179 C182 1.361 . S
C180 H166 0.930 . S
C180 N179 1.340 . S
C180 C184 1.407 . S
C181 C182 1.413 . S
C181 C183 1.416 . S
C181 C210 1.427 . S
C182 C174 1.424 . S
C182 N179 1.361 . S
C182 C181 1.413 . S
C183 H172 0.931 . S
C183 C181 1.416 . S
C183 C184 1.332 . S
C184 H163 0.929 . S
C184 C180 1.407 . S
C184 C183 1.332 . S
H185 C178 0.930 . S
H186 C209 0.930 . S
H187 C210 0.929 . S
O188 Tb144 2.465 . S
O188 C208 1.264 . S
O189 Tb144 2.387 . S
O189 C200 1.264 . S
O190 Tb155 2.349 1_455 S
O190 C200 1.243 1_545 S
O191 Tb144 2.428 . S
O191 C208 1.256 . S
O192 Tb144 2.308 1_545 S
O192 C207 1.266 . S
O193 Tb155 2.393 1_455 S
O193 C207 1.248 . S
O194 Tb155 2.465 . S
O194 C219 1.264 . S
O195 Tb155 2.387 . S
O195 C211 1.264 . S
O196 Tb144 2.349 1_655 S
O196 C211 1.243 1_565 S
O197 Tb155 2.428 . S
O197 C219 1.256 . S
O198 Tb155 2.308 1_565 S
O198 C218 1.266 . S
O199 Tb144 2.393 1_655 S
O199 C218 1.248 . S
C200 O189 1.264 . S
C200 O190 1.243 1_565 S
C201 C204 1.399 . S
C201 C206 1.383 . S
C201 C208 1.496 . S
C202 C203 1.399 . S
C202 C206 1.389 . S
C203 C202 1.399 . S
C203 C205 1.380 . S
C203 H220 0.929 . S
C204 C201 1.399 . S
C204 C205 1.392 . S
C204 H221 0.929 . S
C205 C203 1.380 . S
C205 C204 1.392 . S
C205 H222 0.929 . S
C206 C201 1.383 . S
C206 C202 1.389 . S
C206 H223 0.931 . S
C207 O192 1.266 . S
C207 O193 1.248 . S
C208 Tb144 2.802 . S
C208 O188 1.264 . S
C208 O191 1.256 . S
C208 C201 1.496 . S
C209 C176 1.448 . S
C209 H186 0.930 . S
C209 C210 1.328 . S
C210 C181 1.427 . S
C210 H187 0.929 . S
C210 C209 1.328 . S
C211 O195 1.264 . S
C211 O196 1.243 1_545 S
C212 C215 1.399 . S
C212 C216 1.383 . S
C212 C219 1.496 . S
C213 C214 1.399 . S
C213 C216 1.389 . S
C214 C213 1.399 . S
C214 C217 1.380 . S
C214 H224 0.929 . S
C215 C212 1.399 . S
C215 C217 1.392 . S
C215 H225 0.929 . S
C216 C212 1.383 . S
C216 C213 1.389 . S
C216 H226 0.931 . S
C217 C214 1.380 . S
C217 C215 1.392 . S
C217 H227 0.929 . S
C218 O198 1.266 . S
C218 O199 1.248 . S
C219 Tb155 2.802 . S
C219 O194 1.264 . S
C219 O197 1.256 . S
C219 C212 1.496 . S
H220 C203 0.929 . S
H221 C204 0.929 . S
H222 C205 0.929 . S
H223 C206 0.931 . S
H224 C214 0.929 . S
H225 C215 0.929 . S
H226 C216 0.931 . S
H227 C217 0.929 . S
Tb228 N257 2.617 . S
Tb228 N263 2.572 1_556 S
Tb228 O272 2.465 . S
Tb228 O273 2.387 1_556 S
Tb228 O275 2.428 . S
Tb228 O276 2.308 1_556 S
Tb228 O280 2.349 . S
Tb228 O283 2.401 . S
Tb228 C292 2.802 . S
C229 N230 1.379 . S
C229 C232 1.416 . S
C229 C236 1.424 . S
N230 C229 1.379 . S
N230 C233 1.334 . S
N230 Tb239 2.617 . S
C231 C233 1.390 . S
C231 C234 1.339 . S
C231 H251 0.930 . S
C232 C229 1.416 . S
C232 C234 1.416 . S
C232 C238 1.448 . S
C233 N230 1.334 . S
C233 C231 1.390 . S
C233 H244 0.930 . S
C234 C231 1.339 . S
C234 C232 1.416 . S
C234 H255 0.930 . S
C235 C236 1.413 . S
C235 C237 1.427 . S
C235 C241 1.416 . S
C236 C229 1.424 . S
C236 C235 1.413 . S
C236 N240 1.361 . S
C237 C235 1.427 . S
C237 C238 1.328 . S
C237 H252 0.929 . S
C238 C232 1.448 . S
C238 C237 1.328 . S
C238 H253 0.930 . S
Tb239 N230 2.617 . S
Tb239 N240 2.572 . S
Tb239 O274 2.349 . S
Tb239 O277 2.393 . S
Tb239 O278 2.465 . S
Tb239 O279 2.387 1_554 S
Tb239 O281 2.428 . S
Tb239 O282 2.308 . S
Tb239 C303 2.802 . S
N240 C236 1.361 . S
N240 Tb239 2.572 . S
N240 C242 1.340 . S
C241 C235 1.416 . S
C241 C243 1.332 . S
C241 H249 0.931 . S
C242 N240 1.340 . S
C242 C243 1.407 . S
C242 H248 0.930 . S
C243 C241 1.332 . S
C243 C242 1.407 . S
C243 H245 0.929 . S
H244 C233 0.930 . S
H245 C243 0.929 . S
H246 C261 0.930 . S
H247 C268 0.929 . S
H248 C242 0.930 . S
H249 C241 0.931 . S
H250 C264 0.930 . S
H251 C231 0.930 . S
H252 C237 0.929 . S
H253 C238 0.930 . S
H254 C259 0.930 . S
H255 C234 0.930 . S
H256 C267 0.931 . S
N257 Tb228 2.617 . S
N257 C258 1.379 1_556 S
N257 C261 1.334 . S
C258 N257 1.379 1_554 S
C258 C260 1.416 . S
C258 C266 1.424 . S
C259 H254 0.930 . S
C259 C261 1.390 . S
C259 C262 1.339 1_556 S
C260 C258 1.416 . S
C260 C262 1.416 . S
C260 C293 1.448 . S
C261 H246 0.930 . S
C261 N257 1.334 . S
C261 C259 1.390 . S
C262 C259 1.339 1_554 S
C262 C260 1.416 . S
C262 H269 0.930 . S
N263 Tb228 2.572 1_554 S
N263 C264 1.340 . S
N263 C266 1.361 . S
C264 H250 0.930 . S
C264 N263 1.340 . S
C264 C268 1.407 . S
C265 C266 1.413 . S
C265 C267 1.416 . S
C265 C294 1.427 . S
C266 C258 1.424 . S
C266 N263 1.361 . S
C266 C265 1.413 . S
C267 H256 0.931 . S
C267 C265 1.416 . S
C267 C268 1.332 . S
C268 H247 0.929 . S
C268 C264 1.407 . S
C268 C267 1.332 . S
H269 C262 0.930 . S
H270 C293 0.930 . S
H271 C294 0.929 . S
O272 Tb228 2.465 . S
O272 C292 1.264 . S
O273 Tb228 2.387 1_554 S
O273 C284 1.264 . S
O274 Tb239 2.349 . S
O274 C284 1.243 . S
O275 Tb228 2.428 . S
O275 C292 1.256 . S
O276 Tb228 2.308 1_554 S
O276 C291 1.266 . S
O277 Tb239 2.393 . S
O277 C291 1.248 . S
O278 Tb239 2.465 . S
O278 C303 1.264 . S
O279 Tb239 2.387 1_556 S
O279 C295 1.264 . S
O280 Tb228 2.349 . S
O280 C295 1.243 . S
O281 Tb239 2.428 . S
O281 C303 1.256 . S
O282 Tb239 2.308 . S
O282 C302 1.266 . S
O283 Tb228 2.401 . S
O283 C302 1.230 1_556 S
C284 O273 1.264 . S
C284 O274 1.243 . S
C285 C288 1.399 . S
C285 C290 1.383 . S
C285 C292 1.496 . S
C286 C287 1.399 . S
C286 C290 1.389 . S
C287 C286 1.399 . S
C287 C289 1.380 . S
C287 H304 0.929 . S
C288 C285 1.399 . S
C288 C289 1.392 . S
C288 H305 0.929 . S
C289 C287 1.380 . S
C289 C288 1.392 . S
C289 H306 0.929 . S
C290 C285 1.383 . S
C290 C286 1.389 . S
C290 H307 0.931 . S
C291 O276 1.266 . S
C291 O277 1.248 . S
C292 Tb228 2.802 . S
C292 O272 1.264 . S
C292 O275 1.256 . S
C292 C285 1.496 . S
C293 C260 1.448 . S
C293 H270 0.930 . S
C293 C294 1.328 . S
C294 C265 1.427 . S
C294 H271 0.929 . S
C294 C293 1.328 . S
C295 O279 1.264 . S
C295 O280 1.243 . S
C296 C299 1.399 . S
C296 C300 1.383 . S
C296 C303 1.496 . S
C297 C298 1.399 . S
C297 C300 1.389 . S
C298 C297 1.399 . S
C298 C301 1.380 . S
C298 H308 0.929 . S
C299 C296 1.399 . S
C299 C301 1.392 . S
C299 H309 0.929 . S
C300 C296 1.383 . S
C300 C297 1.389 . S
C300 H310 0.931 . S
C301 C298 1.380 . S
C301 C299 1.392 . S
C301 H311 0.929 . S
C302 O282 1.266 . S
C302 O283 1.230 1_554 S
C303 Tb239 2.802 . S
C303 O278 1.264 . S
C303 O281 1.256 . S
C303 C296 1.496 . S
H304 C287 0.929 . S
H305 C288 0.929 . S
H306 C289 0.929 . S
H307 C290 0.931 . S
H308 C298 0.929 . S
H309 C299 0.929 . S
H310 C300 0.931 . S
H311 C301 0.929 . S
H312 C324 0.930 . S
H313 C326 0.930 . S
H314 C327 0.930 . S
H315 C331 0.959 . S
H316 C331 0.959 . S
H317 C331 0.961 . S
H318 C332 0.960 . S
H319 C332 0.961 . S
H320 C332 0.959 . S
H321 C335 0.929 . S
H322 C336 0.931 . S
H323 C338 0.930 . S
C324 H312 0.930 . S
C324 C325 1.399 . S
C324 C329 1.399 . S
C325 C324 1.399 . S
C325 C326 1.376 . S
C326 H313 0.930 . S
C326 C325 1.376 . S
C326 C327 1.388 . S
C327 H314 0.930 . S
C327 C326 1.388 . S
C327 C328 1.390 . S
C328 C327 1.390 . S
C328 C329 1.394 . S
C328 C334 1.465 . S
C329 C324 1.399 . S
C329 C328 1.394 . S
C329 C330 1.516 . S
C330 C329 1.516 . S
C330 C331 1.502 . S
C330 C332 1.561 . S
C330 C333 1.526 . S
C331 H315 0.959 . S
C331 H316 0.959 . S
C331 H317 0.961 . S
C331 C330 1.502 . S
C332 H318 0.960 . S
C332 H319 0.961 . S
C332 H320 0.959 . S
C332 C330 1.561 . S
C333 C330 1.526 . S
C333 C334 1.396 . S
C333 C338 1.390 . S
C334 C328 1.465 . S
C334 C333 1.396 . S
C334 C335 1.399 . S
C335 H321 0.929 . S
C335 C334 1.399 . S
C335 C336 1.385 . S
C336 H322 0.931 . S
C336 C335 1.385 . S
C336 C337 1.389 . S
C337 C336 1.389 . S
C337 C338 1.387 . S
C338 H323 0.930 . S
C338 C333 1.390 . S
C338 C337 1.387 . S
H339 C351 0.930 . S
H340 C353 0.930 . S
H341 C354 0.930 . S
H342 C358 0.959 . S
H343 C358 0.959 . S
H344 C358 0.961 . S
H345 C359 0.960 . S
H346 C359 0.961 . S
H347 C359 0.959 . S
H348 C362 0.929 . S
H349 C363 0.931 . S
H350 C365 0.930 . S
C351 H339 0.930 . S
C351 C352 1.399 . S
C351 C356 1.399 . S
C352 C351 1.399 . S
C352 C353 1.376 1_554 S
C353 H340 0.930 . S
C353 C352 1.376 1_556 S
C353 C354 1.388 . S
C354 H341 0.930 . S
C354 C353 1.388 . S
C354 C355 1.390 1_556 S
C355 C354 1.390 1_554 S
C355 C356 1.394 . S
C355 C361 1.465 . S
C356 C351 1.399 . S
C356 C355 1.394 . S
C356 C357 1.516 . S
C357 C356 1.516 . S
C357 C358 1.502 . S
C357 C359 1.561 . S
C357 C360 1.526 . S
C358 H342 0.959 . S
C358 H343 0.959 . S
C358 H344 0.961 . S
C358 C357 1.502 . S
C359 H345 0.960 . S
C359 H346 0.961 . S
C359 H347 0.959 . S
C359 C357 1.561 . S
C360 C357 1.526 . S
C360 C361 1.396 . S
C360 C365 1.390 . S
C361 C355 1.465 . S
C361 C360 1.396 . S
C361 C362 1.399 1_554 S
C362 H348 0.929 . S
C362 C361 1.399 1_556 S
C362 C363 1.385 . S
C363 H349 0.931 . S
C363 C362 1.385 . S
C363 C364 1.389 1_556 S
C364 C363 1.389 1_554 S
C364 C365 1.387 . S
C365 H350 0.930 . S
C365 C360 1.390 . S
C365 C364 1.387 . S
H366 C378 0.930 . S
H367 C380 0.930 . S
H368 C381 0.930 . S
H369 C385 0.959 . S
H370 C385 0.959 . S
H371 C385 0.961 . S
H372 C386 0.960 . S
H373 C386 0.961 . S
H374 C386 0.959 . S
H375 C389 0.929 . S
H376 C390 0.931 . S
H377 C392 0.930 . S
C378 H366 0.930 . S
C378 C379 1.399 . S
C378 C383 1.399 . S
C379 C378 1.399 . S
C379 C380 1.376 . S
C380 H367 0.930 . S
C380 C379 1.376 . S
C380 C381 1.388 . S
C381 H368 0.930 . S
C381 C380 1.388 . S
C381 C382 1.390 . S
C382 C381 1.390 . S
C382 C383 1.394 . S
C382 C388 1.465 . S
C383 C378 1.399 . S
C383 C382 1.394 . S
C383 C384 1.516 . S
C384 C383 1.516 . S
C384 C385 1.502 . S
C384 C386 1.561 . S
C384 C387 1.526 . S
C385 H369 0.959 . S
C385 H370 0.959 . S
C385 H371 0.961 . S
C385 C384 1.502 . S
C386 H372 0.960 . S
C386 H373 0.961 . S
C386 H374 0.959 . S
C386 C384 1.561 . S
C387 C384 1.526 . S
C387 C388 1.396 . S
C387 C392 1.390 . S
C388 C382 1.465 . S
C388 C387 1.396 . S
C388 C389 1.399 . S
C389 H375 0.929 . S
C389 C388 1.399 . S
C389 C390 1.385 . S
C390 H376 0.931 . S
C390 C389 1.385 . S
C390 C391 1.389 . S
C391 C390 1.389 . S
C391 C392 1.387 . S
C392 H377 0.930 . S
C392 C387 1.390 . S
C392 C391 1.387 . S
H393 C405 0.930 . S
H394 C407 0.930 . S
H395 C408 0.930 . S
H396 C412 0.959 . S
H397 C412 0.959 . S
H398 C412 0.961 . S
H399 C413 0.960 . S
H400 C413 0.961 . S
H401 C413 0.959 . S
H402 C416 0.929 . S
H403 C417 0.931 . S
H404 C419 0.909 1_556 S
C405 H393 0.930 . S
C405 C406 1.399 1_556 S
C405 C410 1.399 1_556 S
C406 C405 1.399 1_554 S
C406 C407 1.376 . S
C407 H394 0.930 . S
C407 C406 1.376 . S
C407 C408 1.388 . S
C408 H395 0.930 . S
C408 C407 1.388 . S
C408 C409 1.390 . S
C409 C408 1.390 . S
C409 C410 1.394 . S
C409 C415 1.465 . S
C410 C405 1.399 1_554 S
C410 C409 1.394 . S
C410 C411 1.516 1_554 S
C411 C410 1.516 1_556 S
C411 C412 1.502 . S
C411 C413 1.561 . S
C411 C414 1.526 1_556 S
C412 H396 0.959 . S
C412 H397 0.959 . S
C412 H398 0.961 . S
C412 C411 1.502 . S
C413 H399 0.960 . S
C413 H400 0.961 . S
C413 H401 0.959 . S
C413 C411 1.561 . S
C414 C411 1.526 1_554 S
C414 C415 1.396 . S
C414 C419 1.387 . S
C415 C409 1.465 . S
C415 C414 1.396 . S
C415 C416 1.399 . S
C416 H402 0.929 . S
C416 C415 1.399 . S
C416 C417 1.385 . S
C417 H403 0.931 . S
C417 C416 1.385 . S
C417 C418 1.389 . S
C418 C417 1.389 . S
C418 C419 1.411 . S
C419 H404 0.909 1_554 S
C419 C414 1.387 . S
C419 C418 1.411 . S
H420 C432 0.930 . S
H421 C434 0.930 . S
H422 C435 0.930 . S
H423 C439 0.959 1_565 S
H424 C439 0.959 . S
H425 C439 0.961 . S
H426 C440 0.961 . S
H427 C440 0.962 . S
H428 C440 0.958 1_565 S
H429 C443 0.929 . S
H430 C444 0.931 . S
H431 C446 0.930 . S
C432 H420 0.930 . S
C432 C433 1.399 . S
C432 C437 1.399 . S
C433 C432 1.399 . S
C433 C434 1.376 . S
C434 H421 0.930 . S
C434 C433 1.376 . S
C434 C435 1.388 . S
C435 H422 0.930 . S
C435 C434 1.388 . S
C435 C436 1.390 . S
C436 C435 1.390 . S
C436 C437 1.394 . S
C436 C442 1.465 . S
C437 C432 1.399 . S
C437 C436 1.394 . S
C437 C438 1.516 . S
C438 C437 1.516 . S
C438 C439 1.502 1_565 S
C438 C440 1.560 1_565 S
C438 C441 1.526 . S
C439 H423 0.959 1_545 S
C439 H424 0.959 . S
C439 H425 0.961 . S
C439 C438 1.502 1_545 S
C440 H426 0.961 . S
C440 H427 0.962 . S
C440 H428 0.958 1_545 S
C440 C438 1.560 1_545 S
C441 C438 1.526 . S
C441 C442 1.396 . S
C441 C446 1.390 . S
C442 C436 1.465 . S
C442 C441 1.396 . S
C442 C443 1.399 . S
C443 H429 0.929 . S
C443 C442 1.399 . S
C443 C444 1.385 . S
C444 H430 0.931 . S
C444 C443 1.385 . S
C444 C445 1.389 . S
C445 C444 1.389 . S
C445 C446 1.387 . S
C446 H431 0.930 . S
C446 C441 1.390 . S
C446 C445 1.387 . S
H447 C459 0.930 . S
H448 C461 0.930 . S
H449 C462 0.930 . S
H450 C466 0.959 . S
H451 C466 0.959 . S
H452 C466 0.961 . S
H453 C467 0.960 . S
H454 C467 0.961 . S
H455 C467 0.959 . S
H456 C470 0.929 . S
H457 C471 0.931 . S
H458 C473 0.930 . S
C459 H447 0.930 . S
C459 C460 1.399 . S
C459 C464 1.399 . S
C460 C459 1.399 . S
C460 C461 1.376 . S
C461 H448 0.930 . S
C461 C460 1.376 . S
C461 C462 1.388 . S
C462 H449 0.930 . S
C462 C461 1.388 . S
C462 C463 1.390 . S
C463 C462 1.390 . S
C463 C464 1.394 . S
C463 C469 1.465 . S
C464 C459 1.399 . S
C464 C463 1.394 . S
C464 C465 1.516 . S
C465 C464 1.516 . S
C465 C466 1.502 . S
C465 C467 1.561 . S
C465 C468 1.526 . S
C466 H450 0.959 . S
C466 H451 0.959 . S
C466 H452 0.961 . S
C466 C465 1.502 . S
C467 H453 0.960 . S
C467 H454 0.961 . S
C467 H455 0.959 . S
C467 C465 1.561 . S
C468 C465 1.526 . S
C468 C469 1.396 . S
C468 C473 1.390 . S
C469 C463 1.465 . S
C469 C468 1.396 . S
C469 C470 1.399 . S
C470 H456 0.929 . S
C470 C469 1.399 . S
C470 C471 1.385 . S
C471 H457 0.931 . S
C471 C470 1.385 . S
C471 C472 1.389 . S
C472 C471 1.389 . S
C472 C473 1.387 . S
C473 H458 0.930 . S
C473 C468 1.390 . S
C473 C472 1.387 . S
H474 C486 0.930 . S
H475 C488 0.930 . S
H476 C489 0.930 . S
H477 C493 0.959 . S
H478 C493 0.959 . S
H479 C493 0.961 . S
H480 C494 0.960 . S
H481 C494 0.961 . S
H482 C494 0.959 . S
H483 C497 0.929 . S
H484 C498 0.931 . S
H485 C500 0.930 . S
C486 H474 0.930 . S
C486 C487 1.399 . S
C486 C491 1.399 . S
C487 C486 1.399 . S
C487 C488 1.376 . S
C488 H475 0.930 . S
C488 C487 1.376 . S
C488 C489 1.388 . S
C489 H476 0.930 . S
C489 C488 1.388 . S
C489 C490 1.390 . S
C490 C489 1.390 . S
C490 C491 1.394 . S
C490 C496 1.465 . S
C491 C486 1.399 . S
C491 C490 1.394 . S
C491 C492 1.516 . S
C492 C491 1.516 . S
C492 C493 1.502 . S
C492 C494 1.561 . S
C492 C495 1.526 . S
C493 H477 0.959 . S
C493 H478 0.959 . S
C493 H479 0.961 . S
C493 C492 1.502 . S
C494 H480 0.960 . S
C494 H481 0.961 . S
C494 H482 0.959 . S
C494 C492 1.561 . S
C495 C492 1.526 . S
C495 C496 1.396 . S
C495 C500 1.390 . S
C496 C490 1.465 . S
C496 C495 1.396 . S
C496 C497 1.399 . S
C497 H483 0.929 . S
C497 C496 1.399 . S
C497 C498 1.385 . S
C498 H484 0.931 . S
C498 C497 1.385 . S
C498 C499 1.389 . S
C499 C498 1.389 . S
C499 C500 1.387 . S
C500 H485 0.930 . S
C500 C495 1.390 . S
C500 C499 1.387 . S
H501 C513 0.930 . S
H502 C515 0.930 . S
H503 C516 0.930 . S
H504 C520 0.959 . S
H505 C520 0.959 . S
H506 C520 0.961 . S
H507 C521 0.960 . S
H508 C521 0.961 . S
H509 C521 0.959 . S
H510 C524 0.929 . S
H511 C525 0.931 . S
H512 C527 0.930 . S
C513 H501 0.930 . S
C513 C514 1.399 . S
C513 C518 1.399 . S
C514 C513 1.399 . S
C514 C515 1.376 . S
C515 H502 0.930 . S
C515 C514 1.376 . S
C515 C516 1.388 . S
C516 H503 0.930 . S
C516 C515 1.388 . S
C516 C517 1.390 . S
C517 C516 1.390 . S
C517 C518 1.394 . S
C517 C523 1.465 . S
C518 C513 1.399 . S
C518 C517 1.394 . S
C518 C519 1.516 . S
C519 C518 1.516 . S
C519 C520 1.502 . S
C519 C521 1.561 . S
C519 C522 1.526 . S
C520 H504 0.959 . S
C520 H505 0.959 . S
C520 H506 0.961 . S
C520 C519 1.502 . S
C521 H507 0.960 . S
C521 H508 0.961 . S
C521 H509 0.959 . S
C521 C519 1.561 . S
C522 C519 1.526 . S
C522 C523 1.396 . S
C522 C527 1.390 . S
C523 C517 1.465 . S
C523 C522 1.396 . S
C523 C524 1.399 . S
C524 H510 0.929 . S
C524 C523 1.399 . S
C524 C525 1.385 . S
C525 H511 0.931 . S
C525 C524 1.385 . S
C525 C526 1.389 . S
C526 C525 1.389 . S
C526 C527 1.387 . S
C527 H512 0.930 . S
C527 C522 1.390 . S
C527 C526 1.387 . S
H528 C540 0.930 . S
H529 C542 0.930 . S
H530 C543 0.930 . S
H531 C547 0.959 . S
H532 C547 0.959 . S
H533 C547 0.961 . S
H534 C548 0.960 . S
H535 C548 0.961 . S
H536 C548 0.959 . S
H537 C551 0.929 . S
H538 C552 0.931 . S
H539 C554 0.930 . S
C540 H528 0.930 . S
C540 C541 1.399 . S
C540 C545 1.399 . S
C541 C540 1.399 . S
C541 C542 1.376 . S
C542 H529 0.930 . S
C542 C541 1.376 . S
C542 C543 1.388 . S
C543 H530 0.930 . S
C543 C542 1.388 . S
C543 C544 1.390 . S
C544 C543 1.390 . S
C544 C545 1.394 . S
C544 C550 1.465 . S
C545 C540 1.399 . S
C545 C544 1.394 . S
C545 C546 1.516 . S
C546 C545 1.516 . S
C546 C547 1.502 . S
C546 C548 1.561 . S
C546 C549 1.526 . S
C547 H531 0.959 . S
C547 H532 0.959 . S
C547 H533 0.961 . S
C547 C546 1.502 . S
C548 H534 0.960 . S
C548 H535 0.961 . S
C548 H536 0.959 . S
C548 C546 1.561 . S
C549 C546 1.526 . S
C549 C550 1.396 . S
C549 C554 1.390 . S
C550 C544 1.465 . S
C550 C549 1.396 . S
C550 C551 1.399 . S
C551 H537 0.929 . S
C551 C550 1.399 . S
C551 C552 1.385 . S
C552 H538 0.931 . S
C552 C551 1.385 . S
C552 C553 1.389 . S
C553 C552 1.389 . S
C553 C554 1.387 . S
C554 H539 0.930 . S
C554 C549 1.390 . S
C554 C553 1.387 . S
H555 C567 0.930 . S
H556 C569 0.930 . S
H557 C570 0.930 . S
H558 C574 0.959 . S
H559 C574 0.959 . S
H560 C574 0.961 . S
H561 C575 0.960 1_565 S
H562 C575 0.961 1_565 S
H563 C575 0.959 1_565 S
H564 C578 0.929 . S
H565 C579 0.931 . S
H566 C581 0.930 . S
C567 H555 0.930 . S
C567 C568 1.399 . S
C567 C572 1.399 . S
C568 C567 1.399 . S
C568 C569 1.376 . S
C569 H556 0.930 . S
C569 C568 1.376 . S
C569 C570 1.388 . S
C570 H557 0.930 . S
C570 C569 1.388 . S
C570 C571 1.390 . S
C571 C570 1.390 . S
C571 C572 1.394 . S
C571 C577 1.465 . S
C572 C567 1.399 . S
C572 C571 1.394 . S
C572 C573 1.516 . S
C573 C572 1.516 . S
C573 C574 1.502 . S
C573 C575 1.561 . S
C573 C576 1.526 . S
C574 H558 0.959 . S
C574 H559 0.959 . S
C574 H560 0.961 . S
C574 C573 1.502 . S
C575 H561 0.960 1_545 S
C575 H562 0.961 1_545 S
C575 H563 0.959 1_545 S
C575 C573 1.561 . S
C576 C573 1.526 . S
C576 C577 1.396 . S
C576 C581 1.390 . S
C577 C571 1.465 . S
C577 C576 1.396 . S
C577 C578 1.399 . S
C578 H564 0.929 . S
C578 C577 1.399 . S
C578 C579 1.385 . S
C579 H565 0.931 . S
C579 C578 1.385 . S
C579 C580 1.389 . S
C580 C579 1.389 . S
C580 C581 1.387 . S
C581 H566 0.930 . S
C581 C576 1.390 . S
C581 C580 1.387 . S
H582 C594 0.930 . S
H583 C596 0.930 . S
H584 C597 0.930 . S
H585 C601 0.959 . S
H586 C601 0.959 . S
H587 C601 0.961 . S
H588 C602 0.960 . S
H589 C602 0.961 . S
H590 C602 0.959 . S
H591 C605 0.929 . S
H592 C606 0.931 . S
H593 C608 0.930 . S
C594 H582 0.930 . S
C594 C595 1.399 . S
C594 C599 1.399 . S
C595 C594 1.399 . S
C595 C596 1.376 . S
C596 H583 0.930 . S
C596 C595 1.376 . S
C596 C597 1.388 . S
C597 H584 0.930 . S
C597 C596 1.388 . S
C597 C598 1.390 . S
C598 C597 1.390 . S
C598 C599 1.394 . S
C598 C604 1.465 . S
C599 C594 1.399 . S
C599 C598 1.394 . S
C599 C600 1.516 . S
C600 C599 1.516 . S
C600 C601 1.502 . S
C600 C602 1.561 . S
C600 C603 1.526 . S
C601 H585 0.959 . S
C601 H586 0.959 . S
C601 H587 0.961 . S
C601 C600 1.502 . S
C602 H588 0.960 . S
C602 H589 0.961 . S
C602 H590 0.959 . S
C602 C600 1.561 . S
C603 C600 1.526 . S
C603 C604 1.396 . S
C603 C608 1.390 . S
C604 C598 1.465 . S
C604 C603 1.396 . S
C604 C605 1.399 . S
C605 H591 0.929 . S
C605 C604 1.399 . S
C605 C606 1.385 . S
C606 H592 0.931 . S
C606 C605 1.385 . S
C606 C607 1.389 . S
C607 C606 1.389 . S
C607 C608 1.387 . S
C608 H593 0.930 . S
C608 C603 1.390 . S
C608 C607 1.387 . S
H609 C621 0.930 . S
H610 C623 0.930 . S
H611 C624 0.930 . S
H612 C628 0.959 . S
H613 C628 0.959 . S
H614 C628 0.961 . S
H615 C629 0.960 . S
H616 C629 0.961 . S
H617 C629 0.959 . S
H618 C632 0.929 . S
H619 C633 0.931 . S
H620 C635 0.930 . S
C621 H609 0.930 . S
C621 C622 1.399 . S
C621 C626 1.399 . S
C622 C621 1.399 . S
C622 C623 1.376 . S
C623 H610 0.930 . S
C623 C622 1.376 . S
C623 C624 1.388 . S
C624 H611 0.930 . S
C624 C623 1.388 . S
C624 C625 1.390 . S
C625 C624 1.390 . S
C625 C626 1.394 . S
C625 C631 1.465 . S
C626 C621 1.399 . S
C626 C625 1.394 . S
C626 C627 1.516 . S
C627 C626 1.516 . S
C627 C628 1.502 . S
C627 C629 1.561 . S
C627 C630 1.526 . S
C628 H612 0.959 . S
C628 H613 0.959 . S
C628 H614 0.961 . S
C628 C627 1.502 . S
C629 H615 0.960 . S
C629 H616 0.961 . S
C629 H617 0.959 . S
C629 C627 1.561 . S
C630 C627 1.526 . S
C630 C631 1.396 . S
C630 C635 1.390 . S
C631 C625 1.465 . S
C631 C630 1.396 . S
C631 C632 1.399 . S
C632 H618 0.929 . S
C632 C631 1.399 . S
C632 C633 1.385 . S
C633 H619 0.931 . S
C633 C632 1.385 . S
C633 C634 1.389 . S
C634 C633 1.389 . S
C634 C635 1.387 . S
C635 H620 0.930 . S
C635 C630 1.390 . S
C635 C634 1.387 . S
C337 C207 1.644 . S
C325 C133 1.646 . S
C352 C25 1.598 . S
C364 C302 1.593 . S
C379 C61 1.633 . S
C391 C218 1.626 . S
C406 C97 1.593 . S
C418 C291 1.592 . S
C445 C202 1.353 . S
C433 C1 1.546 . S
C472 C295 1.602 . S
C460 C67 1.563 . S
C487 C103 1.589 . S
C499 C211 1.612 . S
C514 C109 1.517 . S
C526 C286 1.402 . S
C553 C297 1.451 . S
C541 C37 1.541 . S
C580 C213 1.418 . S
C568 C73 1.549 . S
C607 C284 1.602 . S
C595 C139 1.594 . S
C622 C31 1.596 . S
C634 C200 1.610 . S
