# Generated by pormake.
# Topology pth, (4,4)-cn, num edge types: 1
# Building blocks:
#     Node 0, Type 0, BuildingBlock: QUQFOY_clean_sbu_1, # of connection points: 4
#     Node 1, Type 0, BuildingBlock: QUQFOY_clean_sbu_1, # of connection points: 4
#     Node 2, Type 0, BuildingBlock: QUQFOY_clean_sbu_1, # of connection points: 4
#     Node 3, Type 1, BuildingBlock: AZAVOO_clean_linker_0, # of connection points: 4
#     Node 4, Type 1, BuildingBlock: AZAVOO_clean_linker_0, # of connection points: 4
#     Node 5, Type 1, BuildingBlock: AZAVOO_clean_linker_0, # of connection points: 4
#     Edge 6, Type (0, 1), BuildingBlock: KIFKEQ_clean_linker_1, # of connection points: 2
#     Edge 7, Type (0, 1), BuildingBlock: KIFKEQ_clean_linker_1, # of connection points: 2
#     Edge 8, Type (0, 1), BuildingBlock: KIFKEQ_clean_linker_1, # of connection points: 2
#     Edge 9, Type (0, 1), BuildingBlock: KIFKEQ_clean_linker_1, # of connection points: 2
#     Edge 10, Type (0, 1), BuildingBlock: KIFKEQ_clean_linker_1, # of connection points: 2
#     Edge 11, Type (0, 1), BuildingBlock: KIFKEQ_clean_linker_1, # of connection points: 2
#     Edge 12, Type (0, 1), BuildingBlock: KIFKEQ_clean_linker_1, # of connection points: 2
#     Edge 13, Type (0, 1), BuildingBlock: KIFKEQ_clean_linker_1, # of connection points: 2
#     Edge 14, Type (0, 1), BuildingBlock: KIFKEQ_clean_linker_1, # of connection points: 2
#     Edge 15, Type (0, 1), BuildingBlock: KIFKEQ_clean_linker_1, # of connection points: 2
#     Edge 16, Type (0, 1), BuildingBlock: KIFKEQ_clean_linker_1, # of connection points: 2
#     Edge 17, Type (0, 1), BuildingBlock: KIFKEQ_clean_linker_1, # of connection points: 2
# Relax obj value: 0.115
# Max RMSD: 0.231
# Mean RMSD: 0.168
data_MOF--net-pth--node1-QUQFOY_clean_sbu_1--node2-AZAVOO_clean_linker_0--edge1-KIFKEQ_clean_linker_1
_symmetry_space_group_name_H-M    P1
_symmetry_Int_Tables_number       1
_symmetry_cell_setting            triclinic
loop_
_symmetry_equiv_pos_as_xyz
'x, y, z'
_cell_length_a     25.570706
_cell_length_b     28.341172
_cell_length_c     74.301808
_cell_angle_alpha  92.511333
_cell_angle_beta   88.824486
_cell_angle_gamma 120.45538
loop_
_atom_site_label
_atom_site_type_symbol
_atom_site_fract_x
_atom_site_fract_y
_atom_site_fract_z
_atom_type_partial_charge
O0 O 0.12612 0.14683 0.07899 0.0
Cd1 Cd 0.04928 0.085 0.09051 0.0
Cd2 Cd 0.11457 0.03639 0.08805 0.0
O3 O 0.18525 0.11159 0.08087 0.0
O4 O 0.00623 0.12208 0.10076 0.0
O5 O 0.04379 0.08364 0.11753 0.0
C6 C 0.01707 0.11178 0.11655 0.0
C7 C 0.12154 0.98807 0.11147 0.0
C8 C 0.17757 0.15075 0.07678 0.0
C9 C 0.00334 0.98964 0.06468 0.0
O10 O 0.05228 0.99052 0.06818 0.0
O11 O 0.99002 0.022 0.07323 0.0
O12 O 0.14747 0.99047 0.09617 0.0
O13 O 0.09355 0.01515 0.11368 0.0
O14 O 0.006 0.0938 0.43188 0.0
Cd15 Cd 0.06805 0.10705 0.41176 0.0
Cd16 Cd 0.0177 0.99601 0.41379 0.0
O17 O 0.95577 0.00343 0.43011 0.0
O18 O 0.09309 0.18052 0.40259 0.0
O19 O 0.04299 0.10372 0.38599 0.0
C20 C 0.0673 0.15633 0.38753 0.0
C21 C 0.98661 0.91879 0.39451 0.0
C22 C 0.9626 0.04816 0.43694 0.0
C23 C 0.14841 0.07023 0.42575 0.0
O24 O 0.10139 0.02283 0.42502 0.0
O25 O 0.14692 0.11087 0.41978 0.0
O26 O 0.98523 0.91556 0.41175 0.0
O27 O 0.0028 0.96587 0.38806 0.0
O28 O 0.96738 0.0208 0.7359 0.0
Cd29 Cd 0.02353 0.01278 0.75352 0.0
Cd30 Cd 0.08439 0.12272 0.7529 0.0
O31 O 0.00734 0.11005 0.73997 0.0
O32 O 0.97568 0.93709 0.76241 0.0
O33 O 0.00465 0.0114 0.77996 0.0
C34 C 0.97568 0.95859 0.77807 0.0
C35 C 0.12945 0.18705 0.77655 0.0
C36 C 0.9668 0.06443 0.73303 0.0
C37 C 0.14641 0.06489 0.73695 0.0
O38 O 0.14485 0.10901 0.73819 0.0
O39 O 0.10376 0.02135 0.7435 0.0
O40 O 0.13105 0.2019 0.7603 0.0
O41 O 0.0992 0.1353 0.77957 0.0
H42 H 0.01306 0.44576 0.13387 0.0
H43 H 0.05272 0.8471 0.30078 0.0
H44 H 0.91957 0.39496 0.24013 0.0
H45 H 0.90981 0.31353 0.22437 0.0
H46 H 0.10373 0.39973 0.2155 0.0
H47 H 0.11313 0.47959 0.23239 0.0
H48 H 0.94254 0.46192 0.20824 0.0
H49 H 0.95424 0.44352 0.17638 0.0
H50 H 0.14486 0.56636 0.17962 0.0
H51 H 0.13262 0.58381 0.21155 0.0
H52 H 0.95831 0.57773 0.21072 0.0
H53 H 0.97688 0.64876 0.18962 0.0
H54 H 0.15146 0.75607 0.21446 0.0
H55 H 0.13291 0.68458 0.23531 0.0
H56 H 0.93016 0.61004 0.25307 0.0
H57 H 0.92261 0.68763 0.26574 0.0
H58 H 0.10677 0.76268 0.28547 0.0
H59 H 0.11378 0.68509 0.27259 0.0
H60 H 0.9054 0.52481 0.28213 0.0
H61 H 0.88711 0.57189 0.30766 0.0
H62 H 0.077 0.65268 0.32185 0.0
H63 H 0.09472 0.60517 0.29631 0.0
H64 H 0.92357 0.40431 0.27268 0.0
H65 H 0.93083 0.34077 0.29228 0.0
H66 H 0.1178 0.4631 0.30397 0.0
H67 H 0.11103 0.52417 0.28326 0.0
O68 O 0.00945 0.45374 0.14648 0.0
O69 O 0.10702 0.51772 0.1488 0.0
O70 O 0.96232 0.77873 0.28354 0.0
O71 O 0.05534 0.8171 0.295 0.0
C72 C 0.02106 0.49474 0.24424 0.0
C73 C 0.02975 0.53413 0.23162 0.0
C74 C 0.03283 0.5835 0.23753 0.0
C75 C 0.02447 0.59231 0.2559 0.0
C76 C 0.01552 0.5529 0.26852 0.0
C77 C 0.01578 0.50489 0.26282 0.0
C78 C 0.01715 0.44284 0.23767 0.0
C79 C 0.96018 0.39535 0.23546 0.0
C80 C 0.95463 0.34919 0.22613 0.0
C81 C 0.00586 0.35009 0.21842 0.0
C82 C 0.06333 0.39706 0.22142 0.0
C83 C 0.06889 0.44292 0.23103 0.0
C84 C 0.03677 0.52403 0.21218 0.0
C85 C 0.9868 0.48466 0.20204 0.0
C86 C 0.99361 0.47433 0.18385 0.0
C87 C 0.05051 0.50344 0.17545 0.0
C88 C 0.10042 0.5432 0.18567 0.0
C89 C 0.09356 0.55334 0.20388 0.0
C90 C 0.04428 0.62603 0.22453 0.0
C91 C 0.00071 0.61642 0.21149 0.0
C92 C 0.0114 0.65696 0.19948 0.0
C93 C 0.06557 0.70797 0.20045 0.0
C94 C 0.10904 0.71741 0.21355 0.0
C95 C 0.0986 0.67666 0.22541 0.0
C96 C 0.02241 0.642 0.26198 0.0
C97 C 0.96904 0.64368 0.25992 0.0
C98 C 0.9648 0.6879 0.26724 0.0
C99 C 0.014 0.73121 0.27673 0.0
C100 C 0.06798 0.72995 0.27831 0.0
C101 C 0.07219 0.68579 0.27094 0.0
C102 C 0.00137 0.56162 0.28737 0.0
C103 C 0.94238 0.55041 0.29131 0.0
C104 C 0.93223 0.57806 0.30572 0.0
C105 C 0.9809 0.61693 0.31647 0.0
C106 C 0.03858 0.62294 0.31381 0.0
C107 C 0.04875 0.59541 0.29932 0.0
C108 C 0.01707 0.46843 0.2763 0.0
C109 C 0.96615 0.41702 0.27937 0.0
C110 C 0.97031 0.38101 0.29077 0.0
C111 C 0.02523 0.39627 0.29962 0.0
C112 C 0.07527 0.44903 0.29704 0.0
C113 C 0.07132 0.48445 0.2854 0.0
C114 C 0.05761 0.49225 0.15612 0.0
C115 C 0.00883 0.77708 0.28521 0.0
H116 H 0.65378 0.01543 0.47091 0.0
H117 H 0.25963 0.155 0.6039 0.0
H118 H 0.59987 0.97523 0.57008 0.0
H119 H 0.67047 0.96394 0.55023 0.0
H120 H 0.78981 0.13964 0.55145 0.0
H121 H 0.71971 0.15018 0.57166 0.0
H122 H 0.53371 0.98744 0.54072 0.0
H123 H 0.5711 0.98281 0.51048 0.0
H124 H 0.68802 0.15896 0.51274 0.0
H125 H 0.6502 0.16287 0.543 0.0
H126 H 0.42612 0.00162 0.54883 0.0
H127 H 0.37567 0.00735 0.52201 0.0
H128 H 0.49217 0.18339 0.52407 0.0
H129 H 0.54259 0.17712 0.5509 0.0
H130 H 0.39165 0.00363 0.59504 0.0
H131 H 0.30222 0.01083 0.60256 0.0
H132 H 0.40299 0.1829 0.59092 0.0
H133 H 0.49225 0.17521 0.58366 0.0
H134 H 0.48037 0.99055 0.6201 0.0
H135 H 0.42924 0.9838 0.64893 0.0
H136 H 0.48833 0.15618 0.64815 0.0
H137 H 0.5404 0.16265 0.61961 0.0
H138 H 0.589 0.98291 0.60537 0.0
H139 H 0.64762 0.97785 0.63011 0.0
H140 H 0.72078 0.15043 0.64278 0.0
H141 H 0.6612 0.15466 0.61821 0.0
O142 O 0.63799 0.01839 0.48259 0.0
O143 O 0.69569 0.10921 0.48414 0.0
O144 O 0.2445 0.06237 0.6068 0.0
O145 O 0.2942 0.15093 0.60092 0.0
C146 C 0.60307 0.07117 0.57708 0.0
C147 C 0.57108 0.0774 0.56297 0.0
C148 C 0.52147 0.08459 0.56685 0.0
C149 C 0.50284 0.08463 0.58482 0.0
C150 C 0.53504 0.07871 0.59899 0.0
C151 C 0.58556 0.0724 0.59512 0.0
C152 C 0.65477 0.06351 0.57227 0.0
C153 C 0.64292 0.01097 0.56689 0.0
C154 C 0.68277 0.00471 0.55528 0.0
C155 C 0.73487 0.05099 0.54889 0.0
C156 C 0.75015 0.10314 0.55612 0.0
C157 C 0.71035 0.10931 0.5678 0.0
C158 C 0.58938 0.07545 0.54398 0.0
C159 C 0.56687 0.02498 0.53454 0.0
C160 C 0.58849 0.02247 0.51732 0.0
C161 C 0.63282 0.07049 0.50923 0.0
C162 C 0.65401 0.1212 0.51859 0.0
C163 C 0.63234 0.12361 0.53583 0.0
C164 C 0.4874 0.08899 0.55181 0.0
C165 C 0.44017 0.04139 0.54358 0.0
C166 C 0.41195 0.04473 0.52821 0.0
C167 C 0.4304 0.09581 0.52092 0.0
C168 C 0.47692 0.14358 0.52948 0.0
C169 C 0.50555 0.14012 0.54477 0.0
C170 C 0.44822 0.08885 0.58876 0.0
C171 C 0.39419 0.04279 0.5941 0.0
C172 C 0.34325 0.04703 0.59838 0.0
C173 C 0.34545 0.09748 0.59733 0.0
C174 C 0.3997 0.14346 0.59185 0.0
C175 C 0.45067 0.13916 0.58762 0.0
C176 C 0.51377 0.07702 0.61779 0.0
C177 C 0.48359 0.02709 0.62644 0.0
C178 C 0.45402 0.02324 0.6428 0.0
C179 C 0.45427 0.06934 0.65074 0.0
C180 C 0.48775 0.12003 0.64251 0.0
C181 C 0.51728 0.12381 0.62617 0.0
C182 C 0.62128 0.06921 0.60997 0.0
C183 C 0.61795 0.01958 0.61347 0.0
C184 C 0.65152 0.01685 0.62758 0.0
C185 C 0.68896 0.06377 0.63843 0.0
C186 C 0.6918 0.11338 0.63486 0.0
C187 C 0.65818 0.11601 0.62077 0.0
C188 C 0.65742 0.06745 0.49122 0.0
C189 C 0.29157 0.1023 0.60197 0.0
H190 H 0.67275 0.7119 0.0403 0.0
H191 H 0.25985 0.21929 0.91094 0.0
H192 H 0.60628 0.70821 0.94469 0.0
H193 H 0.68518 0.78357 0.96289 0.0
H194 H 0.80815 0.72494 0.94944 0.0
H195 H 0.72838 0.64916 0.93133 0.0
H196 H 0.5363 0.62534 0.97289 0.0
H197 H 0.57947 0.66413 0.00273 0.0
H198 H 0.71973 0.62381 0.99256 0.0
H199 H 0.67578 0.58488 0.96283 0.0
H200 H 0.42531 0.51108 0.9609 0.0
H201 H 0.37726 0.45318 0.98671 0.0
H202 H 0.52006 0.41403 0.98714 0.0
H203 H 0.56756 0.47186 0.96128 0.0
H204 H 0.39531 0.49207 0.91629 0.0
H205 H 0.30479 0.40283 0.90983 0.0
H206 H 0.40436 0.32287 0.92292 0.0
H207 H 0.49477 0.41241 0.92907 0.0
H208 H 0.48133 0.58146 0.88926 0.0
H209 H 0.41964 0.53117 0.86279 0.0
H210 H 0.47411 0.41037 0.86746 0.0
H211 H 0.53823 0.46282 0.89295 0.0
H212 H 0.60569 0.7 0.90725 0.0
H213 H 0.67125 0.76162 0.88404 0.0
H214 H 0.71292 0.63869 0.86448 0.0
H215 H 0.64897 0.57795 0.88808 0.0
O216 O 0.65541 0.69499 0.02868 0.0
O217 O 0.72695 0.674 0.02267 0.0
O218 O 0.24579 0.29821 0.90685 0.0
O219 O 0.29484 0.25509 0.91353 0.0
C220 C 0.60899 0.61812 0.93258 0.0
C221 C 0.57997 0.58346 0.94709 0.0
C222 C 0.52925 0.53109 0.94393 0.0
C223 C 0.50702 0.51302 0.92628 0.0
C224 C 0.53737 0.54674 0.91157 0.0
C225 C 0.58859 0.59961 0.91471 0.0
C226 C 0.66166 0.67323 0.93678 0.0
C227 C 0.65123 0.7133 0.94492 0.0
C228 C 0.69631 0.75617 0.9554 0.0
C229 C 0.75238 0.7594 0.95788 0.0
C230 C 0.76493 0.72281 0.94798 0.0
C231 C 0.71981 0.68003 0.93742 0.0
C232 C 0.60308 0.60253 0.96575 0.0
C233 C 0.57592 0.6244 0.97725 0.0
C234 C 0.60086 0.64674 0.99423 0.0
C235 C 0.65331 0.6474 -1e-05 0.0
C236 C 0.67946 0.62414 0.98854 0.0
C237 C 0.65441 0.60177 0.97158 0.0
C238 C 0.49957 0.49527 0.95926 0.0
C239 C 0.44599 0.48986 0.96658 0.0
C240 C 0.41902 0.45724 0.98137 0.0
C241 C 0.44514 0.42932 0.98895 0.0
C242 C 0.4988 0.43479 0.98149 0.0
C243 C 0.52596 0.46776 0.9668 0.0
C244 C 0.45147 0.45864 0.92318 0.0
C245 C 0.39738 0.4552 0.91779 0.0
C246 C 0.34579 0.4042 0.91411 0.0
C247 C 0.34735 0.35568 0.91586 0.0
C248 C 0.40157 0.35938 0.92145 0.0
C249 C 0.45319 0.41043 0.92506 0.0
C250 C 0.51385 0.52553 0.89309 0.0
C251 C 0.48168 0.5453 0.88406 0.0
C252 C 0.44555 0.51586 0.86913 0.0
C253 C 0.44052 0.46581 0.86314 0.0
C254 C 0.47686 0.44875 0.87145 0.0
C255 C 0.51362 0.47866 0.88612 0.0
C256 C 0.62278 0.63455 0.89946 0.0
C257 C 0.62896 0.68635 0.89796 0.0
C258 C 0.66639 0.72149 0.88474 0.0
C259 C 0.69735 0.70497 0.87256 0.0
C260 C 0.68929 0.6523 0.87364 0.0
C261 C 0.65268 0.61755 0.88707 0.0
C262 C 0.68089 0.67279 0.01778 0.0
C263 C 0.29283 0.3014 0.9118 0.0
H264 H 0.0377 0.10143 0.15187 0.0
H265 H 0.96791 0.17747 0.11813 0.0
H266 H 0.02686 0.15027 0.17829 0.0
H267 H 0.95901 0.2273 0.14422 0.0
H268 H 0.91474 0.29026 0.19399 0.0
H269 H 0.9077 0.22275 0.17147 0.0
H270 H 0.07642 0.2426 0.1906 0.0
H271 H 0.08138 0.30759 0.21404 0.0
C272 C 0.01947 0.12809 0.15011 0.0
C273 C 0.00387 0.13571 0.13289 0.0
C274 C 0.01371 0.15641 0.16523 0.0
C275 C 0.99236 0.19301 0.16342 0.0
C276 C 0.97473 0.1989 0.14624 0.0
C277 C 0.9802 0.17049 0.1312 0.0
C278 C 0.94951 0.27916 0.19382 0.0
C279 C 0.99883 0.30474 0.20587 0.0
C280 C 0.9459 0.24092 0.18066 0.0
C281 C 0.99191 0.2277 0.179 0.0
C282 C 0.03993 0.25146 0.19152 0.0
C283 C 0.04324 0.28939 0.20483 0.0
H284 H 0.86653 0.9587 0.45187 0.0
H285 H 0.97158 0.13556 0.45671 0.0
H286 H 0.81099 0.95718 0.47915 0.0
H287 H 0.91566 0.13382 0.48384 0.0
H288 H 0.85763 0.10565 0.54284 0.0
H289 H 0.90987 0.10413 0.51511 0.0
H290 H 0.73837 0.98461 0.49096 0.0
H291 H 0.68621 0.98626 0.51854 0.0
C292 C 0.87727 0.99726 0.45859 0.0
C293 C 0.92374 0.04723 0.45214 0.0
C294 C 0.8454 0.99635 0.47422 0.0
C295 C 0.85956 0.04535 0.48375 0.0
C296 C 0.90459 0.09535 0.47697 0.0
C297 C 0.93621 0.09631 0.46132 0.0
C298 C 0.8312 0.07885 0.53164 0.0
C299 C 0.76787 0.04582 0.53296 0.0
C300 C 0.86101 0.07816 0.51575 0.0
C301 C 0.82812 0.04445 0.50084 0.0
C302 C 0.76501 0.0105 0.50229 0.0
C303 C 0.7352 0.01125 0.51816 0.0
H304 H 0.93547 0.85003 0.78096 0.0
H305 H 0.93593 0.98717 0.8088 0.0
H306 H 0.87133 0.78985 0.8043 0.0
H307 H 0.86907 0.92657 0.83176 0.0
H308 H 0.78734 0.81114 0.87822 0.0
H309 H 0.85861 0.87309 0.85626 0.0
H310 H 0.77113 0.74677 0.81433 0.0
H311 H 0.70193 0.68448 0.83653 0.0
C312 C 0.92173 0.86729 0.7921 0.0
C313 C 0.94063 0.92329 0.79304 0.0
C314 C 0.8844 0.83266 0.80542 0.0
C315 C 0.86406 0.85295 0.81988 0.0
C316 C 0.88422 0.90939 0.82099 0.0
C317 C 0.92244 0.94423 0.80779 0.0
C318 C 0.78342 0.79688 0.86428 0.0
C319 C 0.73923 0.74307 0.85905 0.0
C320 C 0.82412 0.8324 0.85165 0.0
C321 C 0.82103 0.81513 0.83345 0.0
C322 C 0.77606 0.76131 0.82826 0.0
C323 C 0.73601 0.72561 0.84094 0.0
H324 H 0.07568 0.97721 0.14565 0.0
H325 H 0.16422 0.91722 0.10898 0.0
H326 H 0.06521 0.91128 0.16764 0.0
H327 H 0.15383 0.85165 0.13096 0.0
H328 H 0.04771 0.6967 0.16408 0.0
H329 H 0.06547 0.7676 0.14323 0.0
H330 H 0.12725 0.88787 0.18739 0.0
H331 H 0.1087 0.81666 0.20831 0.0
C332 C 0.09351 0.95044 0.14237 0.0
C333 C 0.12052 0.95227 0.12554 0.0
C334 C 0.08768 0.91283 0.15498 0.0
C335 C 0.10825 0.87604 0.15094 0.0
C336 C 0.13679 0.87898 0.13433 0.0
C337 C 0.14308 0.91682 0.1218 0.0
C338 C 0.06481 0.73823 0.16933 0.0
C339 C 0.07677 0.75118 0.18781 0.0
C340 C 0.07553 0.7789 0.15739 0.0
C341 C 0.09797 0.8333 0.16368 0.0
C342 C 0.10968 0.84624 0.18218 0.0
C343 C 0.09951 0.80562 0.19411 0.0
H344 H 0.24953 0.16712 0.43639 0.0
H345 H 0.1687 0.99136 0.43758 0.0
H346 H 0.32903 0.17883 0.45694 0.0
H347 H 0.2465 0.00296 0.45833 0.0
H348 H 0.40688 0.03379 0.48981 0.0
H349 H 0.35082 0.03314 0.46355 0.0
H350 H 0.33068 0.16347 0.48872 0.0
H351 H 0.38797 0.16477 0.51478 0.0
C352 C 0.24928 0.13106 0.44076 0.0
C353 C 0.2024 0.07831 0.4355 0.0
C354 C 0.29452 0.13776 0.45266 0.0
C355 C 0.29379 0.09185 0.45945 0.0
C356 C 0.24895 0.03929 0.45327 0.0
C357 C 0.20393 0.03261 0.44143 0.0
C358 C 0.39075 0.0625 0.48964 0.0
C359 C 0.401 0.09884 0.5044 0.0
C360 C 0.35872 0.0622 0.4746 0.0
C361 C 0.33575 0.0979 0.47408 0.0
C362 C 0.34836 0.1359 0.48855 0.0
C363 C 0.38087 0.13648 0.50354 0.0
H364 H 0.17573 0.1705 0.80676 0.0
H365 H 0.16873 0.29639 0.77799 0.0
H366 H 0.25052 0.24068 0.82758 0.0
H367 H 0.24222 0.36626 0.79921 0.0
H368 H 0.32661 0.45061 0.85802 0.0
H369 H 0.2474 0.38449 0.83753 0.0
H370 H 0.36684 0.32808 0.81791 0.0
H371 H 0.44779 0.39635 0.83743 0.0
C372 C 0.18903 0.21296 0.80515 0.0
C373 C 0.16652 0.22806 0.79076 0.0
C374 C 0.23205 0.253 0.81696 0.0
C375 C 0.2521 0.3086 0.81483 0.0
C376 C 0.22728 0.32355 0.80106 0.0
C377 C 0.18534 0.28364 0.78898 0.0
C378 C 0.33691 0.42535 0.84902 0.0
C379 C 0.39398 0.42904 0.8495 0.0
C380 C 0.29117 0.3871 0.83744 0.0
C381 C 0.30107 0.35099 0.82641 0.0
C382 C 0.35806 0.3551 0.82655 0.0
C383 C 0.40424 0.3941 0.8378 0.0
H384 H 0.87813 0.97524 0.71427 0.0
H385 H 0.95152 0.14918 0.72377 0.0
H386 H 0.80728 0.97313 0.69237 0.0
H387 H 0.88111 0.14703 0.70167 0.0
H388 H 0.70936 0.11293 0.67218 0.0
H389 H 0.7726 0.11148 0.69605 0.0
H390 H 0.81452 0.00744 0.66207 0.0
H391 H 0.7518 0.00921 0.63817 0.0
C392 C 0.87898 0.01299 0.71178 0.0
C393 C 0.92076 0.06245 0.72073 0.0
C394 C 0.83858 0.0118 0.69914 0.0
C395 C 0.83885 0.05996 0.6952 0.0
C396 C 0.87941 0.10912 0.70452 0.0
C397 C 0.91997 0.11038 0.71713 0.0
C398 C 0.73234 0.08999 0.66977 0.0
C399 C 0.72563 0.0613 0.65324 0.0
C400 C 0.76848 0.08911 0.68346 0.0
C401 C 0.79855 0.05935 0.68096 0.0
C402 C 0.79119 0.03006 0.66453 0.0
C403 C 0.75521 0.03107 0.65083 0.0
H404 H 0.89843 0.98014 0.05182 0.0
H405 H 0.02061 0.91779 0.04339 0.0
H406 H 0.83871 0.92484 0.02578 0.0
H407 H 0.96193 0.86382 0.01724 0.0
H408 H 0.80642 0.7313 0.98301 0.0
H409 H 0.86481 0.78535 0.00923 0.0
H410 H 0.84718 0.92121 0.99297 0.0
H411 H 0.78777 0.86649 0.96673 0.0
C412 C 0.91242 0.95453 0.04448 0.0
C413 C 0.96429 0.9534 0.04972 0.0
C414 C 0.87853 0.92325 0.02946 0.0
C415 C 0.89576 0.89017 0.01937 0.0
C416 C 0.94701 0.88839 0.02481 0.0
C417 C 0.9808 0.91954 0.0398 0.0
C418 C 0.81605 0.7731 0.98481 0.0
C419 C 0.7932 0.79494 0.97268 0.0
C420 C 0.8493 0.80401 -0.0001 0.0
C421 C 0.86068 0.85761 0.0032 0.0
C422 C 0.83844 0.87975 0.99095 0.0
C423 C 0.80488 0.84866 0.97586 0.0
H424 H 0.95363 0.81631 0.40484 0.0
H425 H 0.99458 0.91304 0.35767 0.0
H426 H 0.94633 0.7404 0.38621 0.0
H427 H 0.98777 0.83688 0.339 0.0
H428 H 0.02464 0.65228 0.35079 0.0
H429 H 0.01982 0.72323 0.36943 0.0
H430 H 0.91669 0.74192 0.32788 0.0
H431 H 0.9223 0.67172 0.30919 0.0
C432 C 0.96049 0.82123 0.39045 0.0
C433 C 0.97498 0.87088 0.38274 0.0
C434 C 0.95671 0.77779 0.3798 0.0
C435 C 0.96709 0.78281 0.36117 0.0
C436 C 0.97917 0.83164 0.35332 0.0
C437 C 0.98318 0.8753 0.36401 0.0
C438 C 0.00057 0.67129 0.34574 0.0
C439 C 0.97344 0.6561 0.32862 0.0
C440 C 0.99748 0.71167 0.35643 0.0
C441 C 0.96774 0.73811 0.35013 0.0
C442 C 0.94015 0.72253 0.33307 0.0
C443 C 0.94276 0.68183 0.32247 0.0
H444 H 0.24565 0.15102 0.72213 0.0
H445 H 0.16185 0.97702 0.72957 0.0
H446 H 0.32436 0.1489 0.70387 0.0
H447 H 0.24169 0.97521 0.71149 0.0
H448 H 0.48111 0.13883 0.68041 0.0
H449 H 0.41121 0.13562 0.70389 0.0
H450 H 0.26818 0.98467 0.6796 0.0
H451 H 0.33779 0.98783 0.65625 0.0
C452 C 0.2444 0.11239 0.72007 0.0
C453 C 0.19704 0.06407 0.72718 0.0
C454 C 0.28993 0.11129 0.70971 0.0
C455 C 0.28927 0.06187 0.7062 0.0
C456 C 0.24306 0.01383 0.71379 0.0
C457 C 0.19746 0.01492 0.7242 0.0
C458 C 0.43489 0.1047 0.68022 0.0
C459 C 0.41492 0.06374 0.66643 0.0
C460 C 0.39486 0.10288 0.69364 0.0
C461 C 0.33402 0.06011 0.69353 0.0
C462 C 0.31492 0.01781 0.68023 0.0
C463 C 0.3549 0.01961 0.66683 0.0
H464 H 0.17428 0.23963 0.06571 0.0
H465 H 0.29084 0.17044 0.06704 0.0
H466 H 0.24669 0.31107 0.04668 0.0
H467 H 0.36463 0.24342 0.04832 0.0
H468 H 0.42386 0.32591 0.99302 0.0
H469 H 0.36779 0.26418 0.01706 0.0
H470 H 0.34452 0.39088 0.04382 0.0
H471 H 0.39965 0.45219 0.0195 0.0
C472 C 0.216 0.24028 0.06225 0.0
C473 C 0.22637 0.19885 0.06772 0.0
C474 C 0.25785 0.28162 0.05141 0.0
C475 C 0.31132 0.28278 0.04583 0.0
C476 C 0.32335 0.24311 0.05212 0.0
C477 C 0.28127 0.20153 0.06296 0.0
C478 C 0.40753 0.34077 0.00419 0.0
C479 C 0.41555 0.3936 0.00433 0.0
C480 C 0.37564 0.30551 0.01802 0.0
C481 C 0.35141 0.32248 0.03235 0.0
C482 C 0.36166 0.37619 0.03282 0.0
C483 C 0.39318 0.4113 0.01892 0.0
H484 H 0.98429 0.12006 0.36012 0.0
H485 H 0.14139 0.26502 0.38219 0.0
H486 H 0.97326 0.17559 0.33772 0.0
H487 H 0.13105 0.31996 0.35963 0.0
H488 H 0.12444 0.3845 0.30403 0.0
H489 H 0.13547 0.32457 0.32419 0.0
H490 H 0.94951 0.25727 0.34106 0.0
H491 H 0.93878 0.31917 0.32164 0.0
C492 C 0.01693 0.16354 0.36 0.0
C493 C 0.06366 0.18827 0.37289 0.0
C494 C 0.01036 0.19527 0.34729 0.0
C495 C 0.05127 0.25197 0.347 0.0
C496 C 0.09912 0.27628 0.35951 0.0
C497 C 0.1049 0.24486 0.37243 0.0
C498 C 0.08596 0.35763 0.31219 0.0
C499 C 0.03085 0.35744 0.31129 0.0
C500 C 0.09228 0.32294 0.32361 0.0
C501 C 0.04335 0.28637 0.33413 0.0
C502 C 0.98774 0.28475 0.33292 0.0
C503 C 0.98166 0.32017 0.32173 0.0
loop_
_geom_bond_atom_site_label_1
_geom_bond_atom_site_label_2
_geom_bond_distance
_geom_bond_site_symmetry_2
_ccdc_geom_bond_type
O0 Cd1 2.223 . S
O0 C8 1.315 . S
Cd1 O0 2.223 . S
Cd1 O4 2.297 . S
Cd1 O5 2.439 . S
Cd1 O11 2.240 . S
Cd2 O3 2.240 . S
Cd2 O10 2.223 1_545 S
Cd2 O12 2.297 1_545 S
Cd2 O13 2.439 1_545 S
O3 Cd2 2.240 . S
O3 C8 1.279 . S
O4 Cd1 2.297 . S
O4 C6 1.247 . S
O5 Cd1 2.439 . S
O5 C6 1.208 . S
C6 O4 1.247 . S
C6 O5 1.208 . S
C7 O12 1.247 . S
C7 O13 1.208 . S
C8 O0 1.315 . S
C8 O3 1.279 . S
C9 O10 1.315 . S
C9 O11 1.279 1_565 S
O10 Cd2 2.223 1_565 S
O10 C9 1.315 . S
O11 Cd1 2.240 . S
O11 C9 1.279 1_545 S
O12 Cd2 2.297 1_565 S
O12 C7 1.247 . S
O13 Cd2 2.439 1_565 S
O13 C7 1.208 . S
O14 Cd15 2.223 . S
O14 C22 1.315 1_455 S
Cd15 O14 2.223 . S
Cd15 O18 2.297 . S
Cd15 O19 2.439 . S
Cd15 O25 2.240 . S
Cd16 O17 2.240 1_565 S
Cd16 O24 2.223 1_655 S
Cd16 O26 2.297 1_655 S
Cd16 O27 2.439 1_655 S
O17 Cd16 2.240 1_545 S
O17 C22 1.279 . S
O18 Cd15 2.297 . S
O18 C20 1.247 . S
O19 Cd15 2.439 . S
O19 C20 1.208 . S
C20 O18 1.247 . S
C20 O19 1.208 . S
C21 O26 1.247 . S
C21 O27 1.208 . S
C22 O14 1.315 1_655 S
C22 O17 1.279 . S
C23 O24 1.315 1_545 S
C23 O25 1.279 . S
O24 Cd16 2.223 1_455 S
O24 C23 1.315 1_565 S
O25 Cd15 2.240 . S
O25 C23 1.279 . S
O26 Cd16 2.297 1_455 S
O26 C21 1.247 . S
O27 Cd16 2.439 1_455 S
O27 C21 1.208 . S
O28 Cd29 2.223 . S
O28 C36 1.315 . S
Cd29 O28 2.223 . S
Cd29 O32 2.297 1_445 S
Cd29 O33 2.439 . S
Cd29 O39 2.240 . S
Cd30 O31 2.240 . S
Cd30 O38 2.223 . S
Cd30 O40 2.297 . S
Cd30 O41 2.439 . S
O31 Cd30 2.240 . S
O31 C36 1.279 . S
O32 Cd29 2.297 1_665 S
O32 C34 1.247 . S
O33 Cd29 2.439 . S
O33 C34 1.208 1_445 S
C34 O32 1.247 . S
C34 O33 1.208 1_665 S
C35 O40 1.247 . S
C35 O41 1.208 . S
C36 O28 1.315 . S
C36 O31 1.279 . S
C37 O38 1.315 . S
C37 O39 1.279 . S
O38 Cd30 2.223 . S
O38 C37 1.315 . S
O39 Cd29 2.240 . S
O39 C37 1.279 . S
O40 Cd30 2.297 . S
O40 C35 1.247 . S
O41 Cd30 2.439 . S
O41 C35 1.208 . S
H42 O68 0.856 . S
H43 O71 0.854 . S
H44 C79 0.930 . S
H45 C80 0.930 . S
H46 C82 0.930 . S
H47 C83 0.930 . S
H48 C85 0.931 1_655 S
H49 C86 0.930 1_655 S
H50 C88 0.930 . S
H51 C89 0.929 . S
H52 C91 0.930 1_655 S
H53 C92 0.931 1_655 S
H54 C94 0.930 . S
H55 C95 0.929 . S
H56 C97 0.931 . S
H57 C98 0.930 . S
H58 C100 0.930 . S
H59 C101 0.932 . S
H60 C103 0.930 . S
H61 C104 0.929 . S
H62 C106 0.931 . S
H63 C107 0.930 . S
H64 C109 0.929 . S
H65 C110 0.931 . S
H66 C112 0.930 . S
H67 C113 0.929 . S
O68 H42 0.856 . S
O68 C114 1.300 . S
O69 C114 1.209 . S
O70 C115 1.199 . S
O71 H43 0.854 . S
O71 C115 1.297 . S
C72 C73 1.404 . S
C72 C77 1.397 . S
C72 C78 1.492 . S
C73 C72 1.404 . S
C73 C74 1.396 . S
C73 C84 1.492 . S
C74 C73 1.396 . S
C74 C75 1.397 . S
C74 C90 1.509 . S
C75 C74 1.397 . S
C75 C76 1.412 . S
C75 C96 1.485 . S
C76 C75 1.412 . S
C76 C77 1.388 . S
C76 C102 1.490 . S
C77 C72 1.397 . S
C77 C76 1.388 . S
C77 C108 1.519 . S
C78 C72 1.492 . S
C78 C79 1.363 1_455 S
C78 C83 1.390 . S
C79 H44 0.930 . S
C79 C78 1.363 1_655 S
C79 C80 1.372 . S
C80 H45 0.930 . S
C80 C79 1.372 . S
C80 C81 1.383 1_655 S
C81 C80 1.383 1_455 S
C81 C82 1.395 . S
C82 H46 0.930 . S
C82 C81 1.395 . S
C82 C83 1.362 . S
C83 H47 0.930 . S
C83 C78 1.390 . S
C83 C82 1.362 . S
C84 C73 1.492 . S
C84 C85 1.377 . S
C84 C89 1.397 . S
C85 H48 0.931 1_455 S
C85 C84 1.377 . S
C85 C86 1.376 . S
C86 H49 0.930 1_455 S
C86 C85 1.376 . S
C86 C87 1.376 . S
C87 C86 1.376 . S
C87 C88 1.378 . S
C87 C114 1.486 . S
C88 H50 0.930 . S
C88 C87 1.378 . S
C88 C89 1.376 . S
C89 H51 0.929 . S
C89 C84 1.397 . S
C89 C88 1.376 . S
C90 C74 1.509 . S
C90 C91 1.391 . S
C90 C95 1.386 . S
C91 H52 0.930 1_455 S
C91 C90 1.391 . S
C91 C92 1.375 . S
C92 H53 0.931 1_455 S
C92 C91 1.375 . S
C92 C93 1.375 . S
C93 C92 1.375 . S
C93 C94 1.361 . S
C94 H54 0.930 . S
C94 C93 1.361 . S
C94 C95 1.399 . S
C95 H55 0.929 . S
C95 C90 1.386 . S
C95 C94 1.399 . S
C96 C75 1.485 . S
C96 C97 1.394 1_455 S
C96 C101 1.360 . S
C97 H56 0.931 . S
C97 C96 1.394 1_655 S
C97 C98 1.372 . S
C98 H57 0.930 . S
C98 C97 1.372 . S
C98 C99 1.397 1_655 S
C99 C98 1.397 1_455 S
C99 C100 1.390 . S
C99 C115 1.476 . S
C100 H58 0.930 . S
C100 C99 1.390 . S
C100 C101 1.366 . S
C101 H59 0.932 . S
C101 C96 1.360 . S
C101 C100 1.366 . S
C102 C76 1.490 . S
C102 C103 1.380 1_455 S
C102 C107 1.386 . S
C103 H60 0.930 . S
C103 C102 1.380 1_655 S
C103 C104 1.381 . S
C104 H61 0.929 . S
C104 C103 1.381 . S
C104 C105 1.371 1_655 S
C105 C104 1.371 1_455 S
C105 C106 1.380 . S
C106 H62 0.931 . S
C106 C105 1.380 . S
C106 C107 1.387 . S
C107 H63 0.930 . S
C107 C102 1.386 . S
C107 C106 1.387 . S
C108 C77 1.519 . S
C108 C109 1.377 1_455 S
C108 C113 1.361 . S
C109 H64 0.929 . S
C109 C108 1.377 1_655 S
C109 C110 1.386 . S
C110 H65 0.931 . S
C110 C109 1.386 . S
C110 C111 1.363 1_655 S
C111 C110 1.363 1_455 S
C111 C112 1.385 . S
C112 H66 0.930 . S
C112 C111 1.385 . S
C112 C113 1.396 . S
C113 H67 0.929 . S
C113 C108 1.361 . S
C113 C112 1.396 . S
C114 O68 1.300 . S
C114 O69 1.209 . S
C114 C87 1.486 . S
C115 O70 1.199 . S
C115 O71 1.297 . S
C115 C99 1.476 . S
H116 O142 0.856 . S
H117 O145 0.854 . S
H118 C153 0.930 1_565 S
H119 C154 0.930 1_565 S
H120 C156 0.930 . S
H121 C157 0.930 . S
H122 C159 0.930 1_565 S
H123 C160 0.930 1_565 S
H124 C162 0.930 . S
H125 C163 0.929 . S
H126 C165 0.931 . S
H127 C166 0.931 . S
H128 C168 0.930 . S
H129 C169 0.929 . S
H130 C171 0.931 . S
H131 C172 0.930 . S
H132 C174 0.930 . S
H133 C175 0.932 . S
H134 C177 0.930 1_565 S
H135 C178 0.929 1_565 S
H136 C180 0.931 . S
H137 C181 0.930 . S
H138 C183 0.929 1_565 S
H139 C184 0.931 . S
H140 C186 0.930 . S
H141 C187 0.929 . S
O142 H116 0.856 . S
O142 C188 1.300 . S
O143 C188 1.209 . S
O144 C189 1.199 . S
O145 H117 0.854 . S
O145 C189 1.297 . S
C146 C147 1.404 . S
C146 C151 1.397 . S
C146 C152 1.492 . S
C147 C146 1.404 . S
C147 C148 1.396 . S
C147 C158 1.492 . S
C148 C147 1.396 . S
C148 C149 1.397 . S
C148 C164 1.509 . S
C149 C148 1.397 . S
C149 C150 1.412 . S
C149 C170 1.485 . S
C150 C149 1.412 . S
C150 C151 1.388 . S
C150 C176 1.490 . S
C151 C146 1.397 . S
C151 C150 1.388 . S
C151 C182 1.519 . S
C152 C146 1.492 . S
C152 C153 1.363 . S
C152 C157 1.390 . S
C153 H118 0.930 1_545 S
C153 C152 1.363 . S
C153 C154 1.372 . S
C154 H119 0.930 1_545 S
C154 C153 1.372 . S
C154 C155 1.383 . S
C155 C154 1.383 . S
C155 C156 1.395 . S
C156 H120 0.930 . S
C156 C155 1.395 . S
C156 C157 1.362 . S
C157 H121 0.930 . S
C157 C152 1.390 . S
C157 C156 1.362 . S
C158 C147 1.492 . S
C158 C159 1.377 . S
C158 C163 1.397 . S
C159 H122 0.930 1_545 S
C159 C158 1.377 . S
C159 C160 1.376 . S
C160 H123 0.930 1_545 S
C160 C159 1.376 . S
C160 C161 1.376 . S
C161 C160 1.376 . S
C161 C162 1.378 . S
C161 C188 1.486 . S
C162 H124 0.930 . S
C162 C161 1.378 . S
C162 C163 1.376 . S
C163 H125 0.929 . S
C163 C158 1.397 . S
C163 C162 1.376 . S
C164 C148 1.509 . S
C164 C165 1.391 . S
C164 C169 1.386 . S
C165 H126 0.931 . S
C165 C164 1.391 . S
C165 C166 1.375 . S
C166 H127 0.931 . S
C166 C165 1.375 . S
C166 C167 1.375 . S
C167 C166 1.375 . S
C167 C168 1.361 . S
C168 H128 0.930 . S
C168 C167 1.361 . S
C168 C169 1.399 . S
C169 H129 0.929 . S
C169 C164 1.386 . S
C169 C168 1.399 . S
C170 C149 1.485 . S
C170 C171 1.394 . S
C170 C175 1.360 . S
C171 H130 0.931 . S
C171 C170 1.394 . S
C171 C172 1.372 . S
C172 H131 0.930 . S
C172 C171 1.372 . S
C172 C173 1.397 . S
C173 C172 1.397 . S
C173 C174 1.390 . S
C173 C189 1.476 . S
C174 H132 0.930 . S
C174 C173 1.390 . S
C174 C175 1.366 . S
C175 H133 0.932 . S
C175 C170 1.360 . S
C175 C174 1.366 . S
C176 C150 1.490 . S
C176 C177 1.380 . S
C176 C181 1.386 . S
C177 H134 0.930 1_545 S
C177 C176 1.380 . S
C177 C178 1.381 . S
C178 H135 0.929 1_545 S
C178 C177 1.381 . S
C178 C179 1.371 . S
C179 C178 1.371 . S
C179 C180 1.380 . S
C180 H136 0.931 . S
C180 C179 1.380 . S
C180 C181 1.387 . S
C181 H137 0.930 . S
C181 C176 1.386 . S
C181 C180 1.387 . S
C182 C151 1.519 . S
C182 C183 1.377 . S
C182 C187 1.361 . S
C183 H138 0.929 1_545 S
C183 C182 1.377 . S
C183 C184 1.386 . S
C184 H139 0.931 . S
C184 C183 1.386 . S
C184 C185 1.363 . S
C185 C184 1.363 . S
C185 C186 1.385 . S
C186 H140 0.930 . S
C186 C185 1.385 . S
C186 C187 1.396 . S
C187 H141 0.929 . S
C187 C182 1.361 . S
C187 C186 1.396 . S
C188 O142 1.300 . S
C188 O143 1.209 . S
C188 C161 1.486 . S
C189 O144 1.199 . S
C189 O145 1.297 . S
C189 C173 1.476 . S
H190 O216 0.856 . S
H191 O219 0.854 . S
H192 C227 0.930 . S
H193 C228 0.930 . S
H194 C230 0.930 . S
H195 C231 0.930 . S
H196 C233 0.931 . S
H197 C234 0.930 . S
H198 C236 0.930 1_554 S
H199 C237 0.929 . S
H200 C239 0.930 . S
H201 C240 0.931 . S
H202 C242 0.930 . S
H203 C243 0.929 . S
H204 C245 0.931 . S
H205 C246 0.930 . S
H206 C248 0.930 . S
H207 C249 0.932 . S
H208 C251 0.930 . S
H209 C252 0.929 . S
H210 C254 0.931 . S
H211 C255 0.930 . S
H212 C257 0.929 . S
H213 C258 0.931 . S
H214 C260 0.930 . S
H215 C261 0.929 . S
O216 H190 0.856 . S
O216 C262 1.300 . S
O217 C262 1.209 . S
O218 C263 1.199 . S
O219 H191 0.854 . S
O219 C263 1.297 . S
C220 C221 1.404 . S
C220 C225 1.397 . S
C220 C226 1.492 . S
C221 C220 1.404 . S
C221 C222 1.396 . S
C221 C232 1.492 . S
C222 C221 1.396 . S
C222 C223 1.397 . S
C222 C238 1.509 . S
C223 C222 1.397 . S
C223 C224 1.412 . S
C223 C244 1.485 . S
C224 C223 1.412 . S
C224 C225 1.388 . S
C224 C250 1.490 . S
C225 C220 1.397 . S
C225 C224 1.388 . S
C225 C256 1.519 . S
C226 C220 1.492 . S
C226 C227 1.363 . S
C226 C231 1.390 . S
C227 H192 0.930 . S
C227 C226 1.363 . S
C227 C228 1.372 . S
C228 H193 0.930 . S
C228 C227 1.372 . S
C228 C229 1.383 . S
C229 C228 1.383 . S
C229 C230 1.395 . S
C230 H194 0.930 . S
C230 C229 1.395 . S
C230 C231 1.362 . S
C231 H195 0.930 . S
C231 C226 1.390 . S
C231 C230 1.362 . S
C232 C221 1.492 . S
C232 C233 1.377 . S
C232 C237 1.397 . S
C233 H196 0.931 . S
C233 C232 1.377 . S
C233 C234 1.376 1_556 S
C234 H197 0.930 . S
C234 C233 1.376 1_554 S
C234 C235 1.376 . S
C235 C234 1.376 . S
C235 C236 1.378 1_554 S
C235 C262 1.486 . S
C236 H198 0.930 1_556 S
C236 C235 1.378 1_556 S
C236 C237 1.376 . S
C237 H199 0.929 . S
C237 C232 1.397 . S
C237 C236 1.376 . S
C238 C222 1.509 . S
C238 C239 1.391 . S
C238 C243 1.386 . S
C239 H200 0.930 . S
C239 C238 1.391 . S
C239 C240 1.375 . S
C240 H201 0.931 . S
C240 C239 1.375 . S
C240 C241 1.375 . S
C241 C240 1.375 . S
C241 C242 1.361 . S
C242 H202 0.930 . S
C242 C241 1.361 . S
C242 C243 1.399 . S
C243 H203 0.929 . S
C243 C238 1.386 . S
C243 C242 1.399 . S
C244 C223 1.485 . S
C244 C245 1.394 . S
C244 C249 1.360 . S
C245 H204 0.931 . S
C245 C244 1.394 . S
C245 C246 1.372 . S
C246 H205 0.930 . S
C246 C245 1.372 . S
C246 C247 1.397 . S
C247 C246 1.397 . S
C247 C248 1.390 . S
C247 C263 1.476 . S
C248 H206 0.930 . S
C248 C247 1.390 . S
C248 C249 1.366 . S
C249 H207 0.932 . S
C249 C244 1.360 . S
C249 C248 1.366 . S
C250 C224 1.490 . S
C250 C251 1.380 . S
C250 C255 1.386 . S
C251 H208 0.930 . S
C251 C250 1.380 . S
C251 C252 1.381 . S
C252 H209 0.929 . S
C252 C251 1.381 . S
C252 C253 1.371 . S
C253 C252 1.371 . S
C253 C254 1.380 . S
C254 H210 0.931 . S
C254 C253 1.380 . S
C254 C255 1.387 . S
C255 H211 0.930 . S
C255 C250 1.386 . S
C255 C254 1.387 . S
C256 C225 1.519 . S
C256 C257 1.377 . S
C256 C261 1.361 . S
C257 H212 0.929 . S
C257 C256 1.377 . S
C257 C258 1.386 . S
C258 H213 0.931 . S
C258 C257 1.386 . S
C258 C259 1.363 . S
C259 C258 1.363 . S
C259 C260 1.385 . S
C260 H214 0.930 . S
C260 C259 1.385 . S
C260 C261 1.396 . S
C261 H215 0.929 . S
C261 C256 1.361 . S
C261 C260 1.396 . S
C262 O216 1.300 . S
C262 O217 1.209 . S
C262 C235 1.486 . S
C263 O218 1.199 . S
C263 O219 1.297 . S
C263 C247 1.476 . S
H264 C272 0.950 . S
H265 C277 0.950 . S
H266 C274 0.950 . S
H267 C276 0.950 . S
H268 C278 0.950 1_655 S
H269 C280 0.950 . S
H270 C282 0.950 . S
H271 C283 0.950 . S
C272 H264 0.950 . S
C272 C273 1.386 . S
C272 C274 1.391 . S
C273 C272 1.386 . S
C273 C277 1.393 . S
C274 H266 0.950 . S
C274 C272 1.391 . S
C274 C275 1.400 . S
C275 C274 1.400 . S
C275 C276 1.398 . S
C275 C281 1.491 . S
C276 H267 0.950 . S
C276 C275 1.398 . S
C276 C277 1.391 . S
C277 H265 0.950 . S
C277 C273 1.393 . S
C277 C276 1.391 . S
C278 H268 0.950 1_455 S
C278 C279 1.386 . S
C278 C280 1.391 . S
C279 C278 1.386 . S
C279 C283 1.393 . S
C280 H269 0.950 . S
C280 C278 1.391 . S
C280 C281 1.400 . S
C281 C275 1.491 . S
C281 C280 1.400 . S
C281 C282 1.398 . S
C282 H270 0.950 . S
C282 C281 1.398 . S
C282 C283 1.391 . S
C283 H271 0.950 . S
C283 C279 1.393 . S
C283 C282 1.391 . S
H284 C292 0.950 1_565 S
H285 C297 0.950 1_455 S
H286 C294 0.950 1_565 S
H287 C296 0.950 . S
H288 C298 0.950 . S
H289 C300 0.950 . S
H290 C302 0.950 . S
H291 C303 0.950 . S
C292 H284 0.950 1_545 S
C292 C293 1.386 . S
C292 C294 1.391 . S
C293 C292 1.386 . S
C293 C297 1.393 . S
C294 H286 0.950 1_545 S
C294 C292 1.391 . S
C294 C295 1.400 . S
C295 C294 1.400 . S
C295 C296 1.398 . S
C295 C301 1.491 . S
C296 H287 0.950 . S
C296 C295 1.398 . S
C296 C297 1.391 . S
C297 H285 0.950 1_655 S
C297 C293 1.393 . S
C297 C296 1.391 . S
C298 H288 0.950 . S
C298 C299 1.386 . S
C298 C300 1.391 . S
C299 C298 1.386 . S
C299 C303 1.393 . S
C300 H289 0.950 . S
C300 C298 1.391 . S
C300 C301 1.400 . S
C301 C295 1.491 . S
C301 C300 1.400 . S
C301 C302 1.398 . S
C302 H290 0.950 . S
C302 C301 1.398 . S
C302 C303 1.391 . S
C303 H291 0.950 . S
C303 C299 1.393 . S
C303 C302 1.391 . S
H304 C312 0.950 . S
H305 C317 0.950 . S
H306 C314 0.950 . S
H307 C316 0.950 . S
H308 C318 0.950 . S
H309 C320 0.950 . S
H310 C322 0.950 . S
H311 C323 0.950 . S
C312 H304 0.950 . S
C312 C313 1.386 . S
C312 C314 1.391 . S
C313 C312 1.386 . S
C313 C317 1.393 . S
C314 H306 0.950 . S
C314 C312 1.391 . S
C314 C315 1.400 . S
C315 C314 1.400 . S
C315 C316 1.398 . S
C315 C321 1.491 . S
C316 H307 0.950 . S
C316 C315 1.398 . S
C316 C317 1.391 . S
C317 H305 0.950 . S
C317 C313 1.393 . S
C317 C316 1.391 . S
C318 H308 0.950 . S
C318 C319 1.386 . S
C318 C320 1.391 . S
C319 C318 1.386 . S
C319 C323 1.393 . S
C320 H309 0.950 . S
C320 C318 1.391 . S
C320 C321 1.400 . S
C321 C315 1.491 . S
C321 C320 1.400 . S
C321 C322 1.398 . S
C322 H310 0.950 . S
C322 C321 1.398 . S
C322 C323 1.391 . S
C323 H311 0.950 . S
C323 C319 1.393 . S
C323 C322 1.391 . S
H324 C332 0.950 . S
H325 C337 0.950 . S
H326 C334 0.950 . S
H327 C336 0.950 . S
H328 C338 0.950 . S
H329 C340 0.950 . S
H330 C342 0.950 . S
H331 C343 0.950 . S
C332 H324 0.950 . S
C332 C333 1.386 . S
C332 C334 1.391 . S
C333 C332 1.386 . S
C333 C337 1.393 . S
C334 H326 0.950 . S
C334 C332 1.391 . S
C334 C335 1.400 . S
C335 C334 1.400 . S
C335 C336 1.398 . S
C335 C341 1.491 . S
C336 H327 0.950 . S
C336 C335 1.398 . S
C336 C337 1.391 . S
C337 H325 0.950 . S
C337 C333 1.393 . S
C337 C336 1.391 . S
C338 H328 0.950 . S
C338 C339 1.386 . S
C338 C340 1.391 . S
C339 C338 1.386 . S
C339 C343 1.393 . S
C340 H329 0.950 . S
C340 C338 1.391 . S
C340 C341 1.400 . S
C341 C335 1.491 . S
C341 C340 1.400 . S
C341 C342 1.398 . S
C342 H330 0.950 . S
C342 C341 1.398 . S
C342 C343 1.391 . S
C343 H331 0.950 . S
C343 C339 1.393 . S
C343 C342 1.391 . S
H344 C352 0.950 . S
H345 C357 0.950 . S
H346 C354 0.950 . S
H347 C356 0.950 1_565 S
H348 C358 0.950 . S
H349 C360 0.950 1_565 S
H350 C362 0.950 . S
H351 C363 0.950 . S
C352 H344 0.950 . S
C352 C353 1.386 . S
C352 C354 1.391 . S
C353 C352 1.386 . S
C353 C357 1.393 1_545 S
C354 H346 0.950 . S
C354 C352 1.391 . S
C354 C355 1.400 . S
C355 C354 1.400 . S
C355 C356 1.398 . S
C355 C361 1.491 . S
C356 H347 0.950 1_545 S
C356 C355 1.398 . S
C356 C357 1.391 1_545 S
C357 H345 0.950 . S
C357 C353 1.393 1_565 S
C357 C356 1.391 1_565 S
C358 H348 0.950 . S
C358 C359 1.386 . S
C358 C360 1.391 . S
C359 C358 1.386 . S
C359 C363 1.393 . S
C360 H349 0.950 1_545 S
C360 C358 1.391 . S
C360 C361 1.400 . S
C361 C355 1.491 . S
C361 C360 1.400 . S
C361 C362 1.398 . S
C362 H350 0.950 . S
C362 C361 1.398 . S
C362 C363 1.391 . S
C363 H351 0.950 . S
C363 C359 1.393 . S
C363 C362 1.391 . S
H364 C372 0.950 . S
H365 C377 0.950 . S
H366 C374 0.950 . S
H367 C376 0.950 . S
H368 C378 0.950 . S
H369 C380 0.950 . S
H370 C382 0.950 . S
H371 C383 0.950 . S
C372 H364 0.950 . S
C372 C373 1.386 . S
C372 C374 1.391 . S
C373 C372 1.386 . S
C373 C377 1.393 . S
C374 H366 0.950 . S
C374 C372 1.391 . S
C374 C375 1.400 . S
C375 C374 1.400 . S
C375 C376 1.398 . S
C375 C381 1.491 . S
C376 H367 0.950 . S
C376 C375 1.398 . S
C376 C377 1.391 . S
C377 H365 0.950 . S
C377 C373 1.393 . S
C377 C376 1.391 . S
C378 H368 0.950 . S
C378 C379 1.386 . S
C378 C380 1.391 . S
C379 C378 1.386 . S
C379 C383 1.393 . S
C380 H369 0.950 . S
C380 C378 1.391 . S
C380 C381 1.400 . S
C381 C375 1.491 . S
C381 C380 1.400 . S
C381 C382 1.398 . S
C382 H370 0.950 . S
C382 C381 1.398 . S
C382 C383 1.391 . S
C383 H371 0.950 . S
C383 C379 1.393 . S
C383 C382 1.391 . S
H384 C392 0.950 . S
H385 C397 0.950 . S
H386 C394 0.950 . S
H387 C396 0.950 . S
H388 C398 0.950 . S
H389 C400 0.950 . S
H390 C402 0.950 . S
H391 C403 0.950 . S
C392 H384 0.950 . S
C392 C393 1.386 . S
C392 C394 1.391 . S
C393 C392 1.386 . S
C393 C397 1.393 . S
C394 H386 0.950 . S
C394 C392 1.391 . S
C394 C395 1.400 . S
C395 C394 1.400 . S
C395 C396 1.398 . S
C395 C401 1.491 . S
C396 H387 0.950 . S
C396 C395 1.398 . S
C396 C397 1.391 . S
C397 H385 0.950 . S
C397 C393 1.393 . S
C397 C396 1.391 . S
C398 H388 0.950 . S
C398 C399 1.386 . S
C398 C400 1.391 . S
C399 C398 1.386 . S
C399 C403 1.393 . S
C400 H389 0.950 . S
C400 C398 1.391 . S
C400 C401 1.400 . S
C401 C395 1.491 . S
C401 C400 1.400 . S
C401 C402 1.398 . S
C402 H390 0.950 . S
C402 C401 1.398 . S
C402 C403 1.391 . S
C403 H391 0.950 . S
C403 C399 1.393 . S
C403 C402 1.391 . S
H404 C412 0.950 1_545 S
H405 C417 0.950 . S
H406 C414 0.950 . S
H407 C416 0.950 . S
H408 C418 0.950 . S
H409 C420 0.939 1_554 S
H410 C422 0.957 . S
H411 C423 0.950 . S
C412 H404 0.950 1_565 S
C412 C413 1.386 . S
C412 C414 1.391 . S
C413 C412 1.386 . S
C413 C417 1.393 . S
C414 H406 0.950 . S
C414 C412 1.391 . S
C414 C415 1.400 . S
C415 C414 1.400 . S
C415 C416 1.398 . S
C415 C421 1.491 . S
C416 H407 0.950 . S
C416 C415 1.398 . S
C416 C417 1.391 . S
C417 H405 0.950 . S
C417 C413 1.393 . S
C417 C416 1.391 . S
C418 H408 0.950 . S
C418 C419 1.386 . S
C418 C420 1.391 . S
C419 C418 1.386 . S
C419 C423 1.393 . S
C420 H409 0.939 1_556 S
C420 C418 1.391 . S
C420 C421 1.400 1_556 S
C421 C415 1.491 . S
C421 C420 1.400 1_554 S
C421 C422 1.398 1_554 S
C422 H410 0.957 . S
C422 C421 1.398 1_556 S
C422 C423 1.391 . S
C423 H411 0.950 . S
C423 C419 1.393 . S
C423 C422 1.391 . S
H424 C432 0.950 . S
H425 C437 0.950 . S
H426 C434 0.950 . S
H427 C436 0.950 . S
H428 C438 0.950 . S
H429 C440 0.950 . S
H430 C442 0.950 . S
H431 C443 0.950 . S
C432 H424 0.950 . S
C432 C433 1.386 1_655 S
C432 C434 1.391 . S
C433 C432 1.386 1_455 S
C433 C437 1.393 . S
C434 H426 0.950 . S
C434 C432 1.391 . S
C434 C435 1.400 1_655 S
C435 C434 1.400 1_455 S
C435 C436 1.398 . S
C435 C441 1.491 . S
C436 H427 0.950 . S
C436 C435 1.398 . S
C436 C437 1.391 . S
C437 H425 0.950 . S
C437 C433 1.393 . S
C437 C436 1.391 . S
C438 H428 0.950 . S
C438 C439 1.386 . S
C438 C440 1.391 . S
C439 C438 1.386 . S
C439 C443 1.393 1_455 S
C440 H429 0.950 . S
C440 C438 1.391 . S
C440 C441 1.400 . S
C441 C435 1.491 . S
C441 C440 1.400 . S
C441 C442 1.398 1_455 S
C442 H430 0.950 . S
C442 C441 1.398 1_655 S
C442 C443 1.391 . S
C443 H431 0.950 . S
C443 C439 1.393 1_655 S
C443 C442 1.391 . S
H444 C452 0.950 . S
H445 C457 0.950 . S
H446 C454 0.950 . S
H447 C456 0.950 . S
H448 C458 0.950 . S
H449 C460 0.950 . S
H450 C462 0.950 . S
H451 C463 0.950 . S
C452 H444 0.950 . S
C452 C453 1.386 . S
C452 C454 1.391 . S
C453 C452 1.386 . S
C453 C457 1.393 . S
C454 H446 0.950 . S
C454 C452 1.391 . S
C454 C455 1.400 . S
C455 C454 1.400 . S
C455 C456 1.398 . S
C455 C461 1.491 . S
C456 H447 0.950 . S
C456 C455 1.398 . S
C456 C457 1.391 . S
C457 H445 0.950 . S
C457 C453 1.393 . S
C457 C456 1.391 . S
C458 H448 0.950 . S
C458 C459 1.386 . S
C458 C460 1.391 . S
C459 C458 1.386 . S
C459 C463 1.393 . S
C460 H449 0.950 . S
C460 C458 1.391 . S
C460 C461 1.400 . S
C461 C455 1.491 . S
C461 C460 1.400 . S
C461 C462 1.398 . S
C462 H450 0.950 . S
C462 C461 1.398 . S
C462 C463 1.391 . S
C463 H451 0.950 . S
C463 C459 1.393 . S
C463 C462 1.391 . S
H464 C472 0.950 . S
H465 C477 0.950 . S
H466 C474 0.950 . S
H467 C476 0.950 . S
H468 C478 0.950 . S
H469 C480 0.950 . S
H470 C482 0.950 . S
H471 C483 0.939 1_556 S
C472 H464 0.950 . S
C472 C473 1.386 . S
C472 C474 1.391 . S
C473 C472 1.386 . S
C473 C477 1.393 . S
C474 H466 0.950 . S
C474 C472 1.391 . S
C474 C475 1.400 . S
C475 C474 1.400 . S
C475 C476 1.398 . S
C475 C481 1.491 . S
C476 H467 0.950 . S
C476 C475 1.398 . S
C476 C477 1.391 . S
C477 H465 0.950 . S
C477 C473 1.393 . S
C477 C476 1.391 . S
C478 H468 0.950 . S
C478 C479 1.363 1_554 S
C478 C480 1.391 . S
C479 C478 1.363 1_556 S
C479 C483 1.379 1_556 S
C480 H469 0.950 . S
C480 C478 1.391 . S
C480 C481 1.400 . S
C481 C475 1.491 . S
C481 C480 1.400 . S
C481 C482 1.398 . S
C482 H470 0.950 . S
C482 C481 1.398 . S
C482 C483 1.391 . S
C483 H471 0.939 1_554 S
C483 C479 1.379 1_554 S
C483 C482 1.391 . S
H484 C492 0.950 . S
H485 C497 0.950 . S
H486 C494 0.950 . S
H487 C496 0.950 . S
H488 C498 0.950 . S
H489 C500 0.950 . S
H490 C502 0.950 . S
H491 C503 0.950 . S
C492 H484 0.950 . S
C492 C493 1.386 1_655 S
C492 C494 1.391 . S
C493 C492 1.386 1_455 S
C493 C497 1.393 . S
C494 H486 0.950 . S
C494 C492 1.391 . S
C494 C495 1.400 1_655 S
C495 C494 1.400 1_455 S
C495 C496 1.398 . S
C495 C501 1.491 . S
C496 H487 0.950 . S
C496 C495 1.398 . S
C496 C497 1.391 . S
C497 H485 0.950 . S
C497 C493 1.393 . S
C497 C496 1.391 . S
C498 H488 0.950 . S
C498 C499 1.386 . S
C498 C500 1.391 . S
C499 C498 1.386 . S
C499 C503 1.393 1_455 S
C500 H489 0.950 . S
C500 C498 1.391 . S
C500 C501 1.400 . S
C501 C495 1.491 . S
C501 C500 1.400 . S
C501 C502 1.398 1_455 S
C502 H490 0.950 . S
C502 C501 1.398 1_655 S
C502 C503 1.391 . S
C503 H491 0.950 . S
C503 C499 1.393 1_655 S
C503 C502 1.391 . S
C279 C81 1.442 . S
C273 C6 1.511 . S
C293 C22 1.563 . S
C299 C155 1.463 . S
C313 C34 1.899 . S
C319 C259 1.926 . S
C333 C7 0.838 . S
C339 C93 0.835 . S
C359 C167 0.936 . S
C353 C23 0.930 . S
C373 C35 1.275 . S
C379 C253 1.219 . S
C399 C185 2.182 . S
C393 C36 2.171 1_655 S
C413 C9 1.805 1_655 S
C419 C229 1.708 . S
C439 C105 1.501 . S
C433 C21 1.569 . S
C459 C179 1.482 . S
C453 C37 1.567 . S
C479 C241 1.150 . S
C473 C8 1.099 . S
C493 C20 2.178 . S
C499 C111 2.209 . S
