# Generated by pormake.
# Topology eea, (3,6)-cn, num edge types: 1
# Building blocks:
#     Node 0, Type 0, BuildingBlock: ESEHIV_clean_linker_0, # of connection points: 3
#     Node 1, Type 0, BuildingBlock: ESEHIV_clean_linker_0, # of connection points: 3
#     Node 2, Type 0, BuildingBlock: ESEHIV_clean_linker_0, # of connection points: 3
#     Node 3, Type 0, BuildingBlock: ESEHIV_clean_linker_0, # of connection points: 3
#     Node 4, Type 0, BuildingBlock: ESEHIV_clean_linker_0, # of connection points: 3
#     Node 5, Type 0, BuildingBlock: ESEHIV_clean_linker_0, # of connection points: 3
#     Node 6, Type 0, BuildingBlock: ESEHIV_clean_linker_0, # of connection points: 3
#     Node 7, Type 0, BuildingBlock: ESEHIV_clean_linker_0, # of connection points: 3
#     Node 8, Type 0, BuildingBlock: ESEHIV_clean_linker_0, # of connection points: 3
#     Node 9, Type 0, BuildingBlock: ESEHIV_clean_linker_0, # of connection points: 3
#     Node 10, Type 0, BuildingBlock: ESEHIV_clean_linker_0, # of connection points: 3
#     Node 11, Type 0, BuildingBlock: ESEHIV_clean_linker_0, # of connection points: 3
#     Node 12, Type 0, BuildingBlock: ESEHIV_clean_linker_0, # of connection points: 3
#     Node 13, Type 0, BuildingBlock: ESEHIV_clean_linker_0, # of connection points: 3
#     Node 14, Type 0, BuildingBlock: ESEHIV_clean_linker_0, # of connection points: 3
#     Node 15, Type 0, BuildingBlock: ESEHIV_clean_linker_0, # of connection points: 3
#     Node 16, Type 0, BuildingBlock: ESEHIV_clean_linker_0, # of connection points: 3
#     Node 17, Type 0, BuildingBlock: ESEHIV_clean_linker_0, # of connection points: 3
#     Node 18, Type 1, BuildingBlock: KUMBUR_clean_sbu_0, # of connection points: 6
#     Node 19, Type 1, BuildingBlock: KUMBUR_clean_sbu_0, # of connection points: 6
#     Node 20, Type 1, BuildingBlock: KUMBUR_clean_sbu_0, # of connection points: 6
#     Node 21, Type 1, BuildingBlock: KUMBUR_clean_sbu_0, # of connection points: 6
#     Node 22, Type 1, BuildingBlock: KUMBUR_clean_sbu_0, # of connection points: 6
#     Node 23, Type 1, BuildingBlock: KUMBUR_clean_sbu_0, # of connection points: 6
#     Node 24, Type 1, BuildingBlock: KUMBUR_clean_sbu_0, # of connection points: 6
#     Node 25, Type 1, BuildingBlock: KUMBUR_clean_sbu_0, # of connection points: 6
#     Node 26, Type 1, BuildingBlock: KUMBUR_clean_sbu_0, # of connection points: 6
#     Edge 27, Type (0, 1), BuildingBlock: TEMPAE_clean_linker_10, # of connection points: 2
#     Edge 28, Type (0, 1), BuildingBlock: TEMPAE_clean_linker_10, # of connection points: 2
#     Edge 29, Type (0, 1), BuildingBlock: TEMPAE_clean_linker_10, # of connection points: 2
#     Edge 30, Type (0, 1), BuildingBlock: TEMPAE_clean_linker_10, # of connection points: 2
#     Edge 31, Type (0, 1), BuildingBlock: TEMPAE_clean_linker_10, # of connection points: 2
#     Edge 32, Type (0, 1), BuildingBlock: TEMPAE_clean_linker_10, # of connection points: 2
#     Edge 33, Type (0, 1), BuildingBlock: TEMPAE_clean_linker_10, # of connection points: 2
#     Edge 34, Type (0, 1), BuildingBlock: TEMPAE_clean_linker_10, # of connection points: 2
#     Edge 35, Type (0, 1), BuildingBlock: TEMPAE_clean_linker_10, # of connection points: 2
#     Edge 36, Type (0, 1), BuildingBlock: TEMPAE_clean_linker_10, # of connection points: 2
#     Edge 37, Type (0, 1), BuildingBlock: TEMPAE_clean_linker_10, # of connection points: 2
#     Edge 38, Type (0, 1), BuildingBlock: TEMPAE_clean_linker_10, # of connection points: 2
#     Edge 39, Type (0, 1), BuildingBlock: TEMPAE_clean_linker_10, # of connection points: 2
#     Edge 40, Type (0, 1), BuildingBlock: TEMPAE_clean_linker_10, # of connection points: 2
#     Edge 41, Type (0, 1), BuildingBlock: TEMPAE_clean_linker_10, # of connection points: 2
#     Edge 42, Type (0, 1), BuildingBlock: TEMPAE_clean_linker_10, # of connection points: 2
#     Edge 43, Type (0, 1), BuildingBlock: TEMPAE_clean_linker_10, # of connection points: 2
#     Edge 44, Type (0, 1), BuildingBlock: TEMPAE_clean_linker_10, # of connection points: 2
#     Edge 45, Type (0, 1), BuildingBlock: TEMPAE_clean_linker_10, # of connection points: 2
#     Edge 46, Type (0, 1), BuildingBlock: TEMPAE_clean_linker_10, # of connection points: 2
#     Edge 47, Type (0, 1), BuildingBlock: TEMPAE_clean_linker_10, # of connection points: 2
#     Edge 48, Type (0, 1), BuildingBlock: TEMPAE_clean_linker_10, # of connection points: 2
#     Edge 49, Type (0, 1), BuildingBlock: TEMPAE_clean_linker_10, # of connection points: 2
#     Edge 50, Type (0, 1), BuildingBlock: TEMPAE_clean_linker_10, # of connection points: 2
#     Edge 51, Type (0, 1), BuildingBlock: TEMPAE_clean_linker_10, # of connection points: 2
#     Edge 52, Type (0, 1), BuildingBlock: TEMPAE_clean_linker_10, # of connection points: 2
#     Edge 53, Type (0, 1), BuildingBlock: TEMPAE_clean_linker_10, # of connection points: 2
#     Edge 54, Type (0, 1), BuildingBlock: TEMPAE_clean_linker_10, # of connection points: 2
#     Edge 55, Type (0, 1), BuildingBlock: TEMPAE_clean_linker_10, # of connection points: 2
#     Edge 56, Type (0, 1), BuildingBlock: TEMPAE_clean_linker_10, # of connection points: 2
#     Edge 57, Type (0, 1), BuildingBlock: TEMPAE_clean_linker_10, # of connection points: 2
#     Edge 58, Type (0, 1), BuildingBlock: TEMPAE_clean_linker_10, # of connection points: 2
#     Edge 59, Type (0, 1), BuildingBlock: TEMPAE_clean_linker_10, # of connection points: 2
#     Edge 60, Type (0, 1), BuildingBlock: TEMPAE_clean_linker_10, # of connection points: 2
#     Edge 61, Type (0, 1), BuildingBlock: TEMPAE_clean_linker_10, # of connection points: 2
#     Edge 62, Type (0, 1), BuildingBlock: TEMPAE_clean_linker_10, # of connection points: 2
#     Edge 63, Type (0, 1), BuildingBlock: TEMPAE_clean_linker_10, # of connection points: 2
#     Edge 64, Type (0, 1), BuildingBlock: TEMPAE_clean_linker_10, # of connection points: 2
#     Edge 65, Type (0, 1), BuildingBlock: TEMPAE_clean_linker_10, # of connection points: 2
#     Edge 66, Type (0, 1), BuildingBlock: TEMPAE_clean_linker_10, # of connection points: 2
#     Edge 67, Type (0, 1), BuildingBlock: TEMPAE_clean_linker_10, # of connection points: 2
#     Edge 68, Type (0, 1), BuildingBlock: TEMPAE_clean_linker_10, # of connection points: 2
#     Edge 69, Type (0, 1), BuildingBlock: TEMPAE_clean_linker_10, # of connection points: 2
#     Edge 70, Type (0, 1), BuildingBlock: TEMPAE_clean_linker_10, # of connection points: 2
#     Edge 71, Type (0, 1), BuildingBlock: TEMPAE_clean_linker_10, # of connection points: 2
#     Edge 72, Type (0, 1), BuildingBlock: TEMPAE_clean_linker_10, # of connection points: 2
#     Edge 73, Type (0, 1), BuildingBlock: TEMPAE_clean_linker_10, # of connection points: 2
#     Edge 74, Type (0, 1), BuildingBlock: TEMPAE_clean_linker_10, # of connection points: 2
#     Edge 75, Type (0, 1), BuildingBlock: TEMPAE_clean_linker_10, # of connection points: 2
#     Edge 76, Type (0, 1), BuildingBlock: TEMPAE_clean_linker_10, # of connection points: 2
#     Edge 77, Type (0, 1), BuildingBlock: TEMPAE_clean_linker_10, # of connection points: 2
#     Edge 78, Type (0, 1), BuildingBlock: TEMPAE_clean_linker_10, # of connection points: 2
#     Edge 79, Type (0, 1), BuildingBlock: TEMPAE_clean_linker_10, # of connection points: 2
#     Edge 80, Type (0, 1), BuildingBlock: TEMPAE_clean_linker_10, # of connection points: 2
# Relax obj value: 0.008
# Max RMSD: 0.089
# Mean RMSD: 0.073
data_MOF--net-eea--node1-KUMBUR_clean_sbu_0--node2-ESEHIV_clean_linker_0--edge1-TEMPAE_clean_linker_10
_symmetry_space_group_name_H-M    P1
_symmetry_Int_Tables_number       1
_symmetry_cell_setting            triclinic
loop_
_symmetry_equiv_pos_as_xyz
'x, y, z'
_cell_length_a     48.106226
_cell_length_b     49.324819
_cell_length_c     71.910352
_cell_angle_alpha  90.026361
_cell_angle_beta   90.016829
_cell_angle_gamma 120.00089
loop_
_atom_site_label
_atom_site_type_symbol
_atom_site_fract_x
_atom_site_fract_y
_atom_site_fract_z
_atom_type_partial_charge
H0 H 0.24368 0.16412 0.44816 0.0
H1 H 0.24484 0.07741 0.45009 0.0
H2 H 0.20402 0.09841 0.40295 0.0
C3 C 0.23782 0.14184 0.44197 0.0
C4 C 0.22288 0.13365 0.42445 0.0
C5 C 0.24571 0.1216 0.45139 0.0
C6 C 0.23841 0.09298 0.4431 0.0
C7 C 0.22327 0.0845 0.42569 0.0
C8 C 0.21546 0.10483 0.41649 0.0
H9 H 0.84811 0.08485 0.44661 0.0
H10 H 0.93553 0.17375 0.4441 0.0
H11 H 0.90896 0.10821 0.39868 0.0
C12 C 0.86993 0.10119 0.43938 0.0
C13 C 0.87605 0.09334 0.42169 0.0
C14 C 0.8915 0.12994 0.44776 0.0
C15 C 0.91922 0.15128 0.43789 0.0
C16 C 0.92585 0.14388 0.42005 0.0
C17 C 0.9042 0.11453 0.41225 0.0
H18 H 0.84105 0.76536 0.44264 0.0
H19 H 0.92881 0.76244 0.44204 0.0
H20 H 0.90504 0.80266 0.39591 0.0
C21 C 0.86321 0.77059 0.43578 0.0
C22 C 0.86994 0.78435 0.41795 0.0
C23 C 0.88457 0.76317 0.44483 0.0
C24 C 0.91302 0.76941 0.43557 0.0
C25 C 0.92059 0.78331 0.41776 0.0
C26 C 0.89899 0.79101 0.40927 0.0
H27 H 0.07339 0.22579 0.57982 0.0
H28 H 0.16156 0.22563 0.57893 0.0
H29 H 0.11385 0.21631 0.63116 0.0
C30 C 0.09195 0.22466 0.58763 0.0
C31 C 0.08883 0.21896 0.607 0.0
C32 C 0.11907 0.22892 0.57777 0.0
C33 C 0.14199 0.22415 0.58704 0.0
C34 C 0.14019 0.2185 0.60641 0.0
C35 C 0.11409 0.21746 0.61621 0.0
H36 H 0.76413 0.92601 0.57614 0.0
H37 H 0.76089 0.83709 0.57693 0.0
H38 H 0.79948 0.8996 0.62357 0.0
C39 C 0.7689 0.90922 0.58304 0.0
C40 C 0.78253 0.91598 0.60088 0.0
C41 C 0.76076 0.88071 0.57427 0.0
C42 C 0.7675 0.8594 0.58336 0.0
C43 C 0.78133 0.86608 0.60117 0.0
C44 C 0.7886 0.89429 0.60986 0.0
H45 H 0.07453 0.82884 0.58178 0.0
H46 H 0.16069 0.91859 0.57811 0.0
H47 H 0.09946 0.89667 0.62572 0.0
C48 C 0.09019 0.85194 0.58746 0.0
C49 C 0.08311 0.86016 0.60491 0.0
C50 C 0.11816 0.8728 0.57764 0.0
C51 C 0.13925 0.90211 0.58556 0.0
C52 C 0.13278 0.91069 0.60294 0.0
C53 C 0.10449 0.88985 0.61237 0.0
H54 H 0.91715 0.50137 0.78099 0.0
H55 H 0.91602 0.41345 0.78221 0.0
H56 H 0.87966 0.43822 0.73456 0.0
C57 C 0.91102 0.47913 0.77464 0.0
C58 C 0.89721 0.47204 0.75682 0.0
C59 C 0.91835 0.45832 0.78386 0.0
C60 C 0.91081 0.42987 0.77521 0.0
C61 C 0.89719 0.4227 0.75738 0.0
C62 C 0.89055 0.44389 0.74826 0.0
H63 H 0.52137 0.41168 0.7811 0.0
H64 H 0.59913 0.50678 0.77484 0.0
H65 H 0.57649 0.43995 0.73099 0.0
C66 C 0.54072 0.42998 0.77317 0.0
C67 C 0.54573 0.42311 0.75493 0.0
C68 C 0.55982 0.46016 0.78086 0.0
C69 C 0.58503 0.483 0.76986 0.0
C70 C 0.59183 0.47587 0.75204 0.0
C71 C 0.57174 0.44589 0.74469 0.0
H72 H 0.50674 0.09548 0.7752 0.0
H73 H 0.59561 0.09472 0.7746 0.0
H74 H 0.57054 0.13396 0.7285 0.0
C75 C 0.52902 0.10117 0.76834 0.0
C76 C 0.53547 0.11487 0.75049 0.0
C77 C 0.55088 0.09445 0.77741 0.0
C78 C 0.57947 0.10123 0.76812 0.0
C79 C 0.58676 0.11511 0.7503 0.0
C80 C 0.56472 0.12222 0.74183 0.0
H81 H 0.74309 0.5657 0.915 0.0
H82 H 0.82397 0.55187 0.91295 0.0
H83 H 0.7807 0.55042 0.96536 0.0
C84 C 0.76024 0.56145 0.92202 0.0
C85 C 0.75657 0.55487 0.94133 0.0
C86 C 0.78598 0.56286 0.91169 0.0
C87 C 0.80673 0.55482 0.92098 0.0
C88 C 0.80545 0.55037 0.94044 0.0
C89 C 0.78075 0.55153 0.95039 0.0
H90 H 0.42655 0.25711 0.91017 0.0
H91 H 0.42475 0.16894 0.91192 0.0
H92 H 0.46347 0.23302 0.95788 0.0
C93 C 0.43167 0.24072 0.91728 0.0
C94 C 0.44572 0.24829 0.935 0.0
C95 C 0.42372 0.21203 0.90884 0.0
C96 C 0.43108 0.19132 0.91814 0.0
C97 C 0.44534 0.19875 0.93584 0.0
C98 C 0.45228 0.22711 0.94427 0.0
H99 H 0.74425 0.16134 0.91558 0.0
H100 H 0.82927 0.25197 0.91183 0.0
H101 H 0.76912 0.22818 0.96008 0.0
C102 C 0.75977 0.18439 0.92136 0.0
C103 C 0.75291 0.19204 0.93906 0.0
C104 C 0.78728 0.20583 0.91138 0.0
C105 C 0.80801 0.23525 0.91933 0.0
C106 C 0.8019 0.24319 0.937 0.0
C107 C 0.77424 0.2216 0.94668 0.0
H108 H 0.57843 0.83357 0.11498 0.0
H109 H 0.58059 0.74752 0.11814 0.0
H110 H 0.53965 0.76676 0.0703 0.0
C111 C 0.57282 0.81119 0.10904 0.0
C112 C 0.55785 0.80236 0.09157 0.0
C113 C 0.5811 0.7915 0.11872 0.0
C114 C 0.57401 0.76271 0.11083 0.0
C115 C 0.55899 0.7536 0.09341 0.0
C116 C 0.55094 0.77351 0.08387 0.0
H117 H 0.18185 0.74883 0.11356 0.0
H118 H 0.27205 0.83402 0.1134 0.0
H119 H 0.23784 0.77608 0.06396 0.0
C120 C 0.20333 0.7656 0.10622 0.0
C121 C 0.20818 0.75923 0.08794 0.0
C122 C 0.22592 0.79307 0.11523 0.0
C123 C 0.25458 0.8137 0.10588 0.0
C124 C 0.26002 0.80847 0.08714 0.0
C125 C 0.23599 0.7809 0.0784 0.0
H126 H 0.18161 0.44379 0.11314 0.0
H127 H 0.27033 0.44456 0.11249 0.0
H128 H 0.23096 0.45576 0.0612 0.0
C129 C 0.20151 0.44581 0.10513 0.0
C130 C 0.2038 0.45224 0.08584 0.0
C131 C 0.22437 0.44094 0.11441 0.0
C132 C 0.25184 0.44583 0.10468 0.0
C133 C 0.25543 0.45235 0.0854 0.0
C134 C 0.2303 0.45397 0.07614 0.0
H135 H 0.4116 0.9037 0.24837 0.0
H136 H 0.5008 0.90362 0.24783 0.0
H137 H 0.43769 0.86622 0.29497 0.0
C138 C 0.42814 0.89794 0.25507 0.0
C139 C 0.42119 0.88465 0.27307 0.0
C140 C 0.45641 0.9041 0.24563 0.0
C141 C 0.47834 0.89747 0.25466 0.0
C142 C 0.47224 0.8843 0.27265 0.0
C143 C 0.44328 0.87752 0.2815 0.0
H144 H 0.08789 0.58592 0.24348 0.0
H145 H 0.08715 0.49822 0.24539 0.0
H146 H 0.13408 0.56665 0.28851 0.0
C147 C 0.09423 0.57016 0.25029 0.0
C148 C 0.11185 0.57956 0.26692 0.0
C149 C 0.08546 0.54097 0.24222 0.0
C150 C 0.09423 0.52103 0.25123 0.0
C151 C 0.11203 0.53031 0.26783 0.0
C152 C 0.121 0.55971 0.27547 0.0
H153 H 0.40822 0.49655 0.2476 0.0
H154 H 0.49605 0.58509 0.24484 0.0
H155 H 0.43491 0.56282 0.29258 0.0
C156 C 0.42464 0.51908 0.2537 0.0
C157 C 0.418 0.52686 0.27141 0.0
C158 C 0.45251 0.54009 0.24383 0.0
C159 C 0.47414 0.56897 0.25206 0.0
C160 C 0.46795 0.57721 0.26963 0.0
C161 C 0.4397 0.55627 0.27908 0.0
Tb162 Tb 0.4921 0.97922 0.98986 0.0
C163 C 0.55685 0.09545 0.03994 0.0
C164 C 0.61321 0.11158 0.03866 0.0
C165 C 0.59688 0.15055 0.04282 0.0
C166 C 0.58065 0.08801 0.03787 0.0
C167 C 0.56454 0.1267 0.04281 0.0
C168 C 0.62121 0.14299 0.04075 0.0
C169 C 0.50793 0.10802 0.04675 0.0
N170 N 0.52603 0.0717 0.03984 0.0
C171 C 0.50159 0.07737 0.04392 0.0
C172 C 0.53952 0.13286 0.04596 0.0
Tb173 Tb 0.51772 0.0226 0.03351 0.0
N174 N 0.57179 0.05742 0.03583 0.0
C175 C 0.5946 0.04859 0.0359 0.0
C176 C 0.63664 0.10276 0.03775 0.0
C177 C 0.62727 0.07108 0.0366 0.0
H178 H 0.47707 0.0584 0.04437 0.0
H179 H 0.64519 0.06394 0.03617 0.0
H180 H 0.64609 0.1615 0.04117 0.0
H181 H 0.48844 0.11247 0.04948 0.0
H182 H 0.58797 0.0243 0.03487 0.0
H183 H 0.36484 0.93816 0.98514 0.0
H184 H 0.66194 0.12011 0.03836 0.0
H185 H 0.53249 0.94273 0.97969 0.0
H186 H 0.4221 0.97769 0.98676 0.0
H187 H 0.52094 0.88843 0.97572 0.0
H188 H 0.60333 0.17478 0.04481 0.0
H189 H 0.34781 0.88181 0.98499 0.0
H190 H 0.36347 0.84013 0.98392 0.0
H191 H 0.54437 0.15657 0.04818 0.0
H192 H 0.40611 0.82653 0.9811 0.0
N193 N 0.43802 0.94439 0.98751 0.0
C194 C 0.41535 0.95333 0.98645 0.0
C195 C 0.37313 0.89913 0.98555 0.0
C196 C 0.39647 0.89015 0.98556 0.0
C197 C 0.38266 0.9309 0.98555 0.0
C198 C 0.42905 0.91367 0.98626 0.0
H199 H 0.46501 0.84448 0.97769 0.0
N200 N 0.48361 0.92981 0.98422 0.0
C201 C 0.50152 0.89306 0.97824 0.0
C202 C 0.45277 0.90607 0.98449 0.0
C203 C 0.50795 0.92386 0.98042 0.0
C204 C 0.46993 0.8683 0.9794 0.0
C205 C 0.44499 0.87467 0.98227 0.0
O206 O 0.51747 0.98778 0.96463 0.0
O207 O 0.52921 0.01844 1.00501 0.0
O208 O 0.51308 0.05277 0.01307 0.0
O209 O 0.47775 0.01524 0.99196 0.0
O210 O 0.5435 0.99572 0.9873 0.0
O211 O 0.47551 0.99248 0.96633 0.0
O212 O 0.49219 0.01304 0.05874 0.0
O213 O 0.48091 0.98405 0.0181 0.0
O214 O 0.49537 0.94894 0.01081 0.0
O215 O 0.53215 0.98672 0.03115 0.0
O216 O 0.4659 0.00506 0.03628 0.0
O217 O 0.53466 0.00929 0.05687 0.0
C218 C 0.55385 0.0192 0.9984 0.0
C219 C 0.48789 0.97948 0.93693 0.0
C220 C 0.49119 0.98435 0.90289 0.0
C221 C 0.49976 0.99808 0.92076 0.0
C222 C 0.47024 0.95181 0.90159 0.0
C223 C 0.46707 0.94717 0.93517 0.0
C224 C 0.45829 0.93349 0.91759 0.0
C225 C 0.49236 0.04394 0.99911 0.0
C226 C 0.49792 0.99393 0.9555 0.0
C227 C 0.41263 0.85087 0.98258 0.0
C228 C 0.38837 0.85861 0.98421 0.0
C229 C 0.45583 0.98224 0.02469 0.0
C230 C 0.52179 0.02127 0.08646 0.0
C231 C 0.51158 0.00219 0.10254 0.0
C232 C 0.52054 0.0156 0.12051 0.0
C233 C 0.53951 0.04842 0.12193 0.0
C234 C 0.5409 0.05377 0.08841 0.0
C235 C 0.5496 0.06721 0.10604 0.0
C236 C 0.51659 0.95775 0.02448 0.0
C237 C 0.51201 0.00713 0.06777 0.0
H238 H 0.51607 0.02305 0.9221 0.0
H239 H 0.46274 0.94051 0.88815 0.0
H240 H 0.45768 0.93255 0.94739 0.0
H241 H 0.44214 0.90851 0.91635 0.0
H242 H 0.49704 0.97702 0.101 0.0
H243 H 0.54629 0.05976 0.13538 0.0
H244 H 0.54896 0.06877 0.07631 0.0
H245 H 0.56417 0.09237 0.10742 0.0
Tb246 Tb 0.02944 0.51334 0.99233 0.0
C247 C 0.9037 0.45313 0.03502 0.0
C248 C 0.88739 0.49218 0.03542 0.0
C249 C 0.84698 0.43691 0.03518 0.0
C250 C 0.91162 0.48408 0.03478 0.0
C251 C 0.87134 0.4291 0.03556 0.0
C252 C 0.855 0.46843 0.03517 0.0
C253 C 0.88976 0.39181 0.03842 0.0
N254 N 0.92797 0.44669 0.03559 0.0
C255 C 0.9215 0.41654 0.03804 0.0
C256 C 0.86455 0.39807 0.03694 0.0
Tb257 Tb 0.97911 0.48856 0.03343 0.0
N258 N 0.94317 0.50621 0.03514 0.0
C259 C 0.95208 0.53701 0.03758 0.0
C260 C 0.89645 0.5238 0.03699 0.0
C261 C 0.92893 0.54625 0.0384 0.0
H262 H 0.94084 0.41147 0.039 0.0
H263 H 0.93619 0.57074 0.03996 0.0
H264 H 0.83601 0.47418 0.03545 0.0
H265 H 0.88476 0.36794 0.03981 0.0
H266 H 0.97703 0.5548 0.0385 0.0
H267 H 0.07355 0.43178 0.98786 0.0
H268 H 0.8786 0.53103 0.03766 0.0
H269 H 0.06673 0.58851 0.98136 0.0
H270 H 0.03244 0.44736 0.98847 0.0
H271 H 0.12248 0.63236 0.97899 0.0
H272 H 0.82193 0.4188 0.03541 0.0
H273 H 0.13101 0.47185 0.99006 0.0
H274 H 0.17329 0.52895 0.99111 0.0
H275 H 0.83999 0.37889 0.03731 0.0
H276 H 0.18678 0.58404 0.98874 0.0
N277 N 0.06594 0.49614 0.99142 0.0
C278 C 0.05731 0.46533 0.98939 0.0
C279 C 0.11303 0.47892 0.99044 0.0
C280 C 0.12184 0.51053 0.99134 0.0
C281 C 0.08063 0.45627 0.98904 0.0
C282 C 0.09741 0.5184 0.99155 0.0
H283 H 0.1679 0.62292 0.98381 0.0
N284 N 0.0804 0.55489 0.98843 0.0
C285 C 0.11791 0.60905 0.98222 0.0
C286 C 0.10497 0.54907 0.99003 0.0
C287 C 0.08635 0.58414 0.98356 0.0
C288 C 0.14348 0.60366 0.98503 0.0
C289 C 0.13718 0.57319 0.98851 0.0
O290 O 0.02328 0.53144 0.96718 0.0
O291 O 0.98721 0.50784 1.00598 0.0
O292 O 0.95135 0.45833 0.01046 0.0
O293 O 0.9928 0.46283 0.99167 0.0
O294 O 0.01064 0.54575 0.98954 0.0
O295 O 0.01991 0.48627 0.96808 0.0
O296 O 0.98163 0.4674 0.05826 0.0
O297 O 0.02217 0.49505 0.02018 0.0
O298 O 0.05658 0.54801 0.01366 0.0
O299 O 0.01627 0.53863 0.03537 0.0
O300 O 0.99752 0.45584 0.03563 0.0
O301 O 0.98852 0.51414 0.05828 0.0
C302 C 0.9858 0.53108 0.99998 0.0
C303 C 0.0377 0.51468 0.94013 0.0
C304 C 0.03732 0.51458 0.90624 0.0
C305 C 0.0209 0.50779 0.92328 0.0
C306 C 0.07096 0.52858 0.90631 0.0
C307 C 0.0712 0.52838 0.94001 0.0
C308 C 0.08773 0.53535 0.92313 0.0
C309 C 0.96224 0.44803 0.99692 0.0
C310 C 0.01961 0.50756 0.95755 0.0
C311 C 0.16182 0.56583 0.98966 0.0
C312 C 0.15415 0.53448 0.99102 0.0
C313 C 0.02317 0.47147 0.02597 0.0
C314 C 0.96772 0.48426 0.08558 0.0
C315 C 0.98387 0.49145 0.10269 0.0
C316 C 0.96675 0.48471 0.11951 0.0
C317 C 0.9331 0.4706 0.11892 0.0
C318 C 0.93421 0.47036 0.08523 0.0
C319 C 0.91702 0.46357 0.10186 0.0
C320 C 0.04551 0.55596 0.02829 0.0
C321 C 0.98647 0.49129 0.06838 0.0
H322 H 0.995 0.49744 0.92347 0.0
H323 H 0.08423 0.53383 0.89339 0.0
H324 H 0.08452 0.53368 0.95287 0.0
H325 H 0.1136 0.54593 0.92308 0.0
H326 H 0.00977 0.50192 0.10288 0.0
H327 H 0.91929 0.4654 0.13163 0.0
H328 H 0.92138 0.46474 0.07219 0.0
H329 H 0.89114 0.45286 0.10153 0.0
Tb330 Tb 0.5155 0.48958 0.03349 0.0
C331 C 0.46014 0.55541 0.98719 0.0
C332 C 0.40306 0.51909 0.98811 0.0
C333 C 0.42277 0.57494 0.98567 0.0
C334 C 0.43501 0.52526 0.98875 0.0
C335 C 0.45444 0.58061 0.98507 0.0
C336 C 0.39708 0.54417 0.9872 0.0
C337 C 0.51124 0.61426 0.97979 0.0
N338 N 0.49025 0.55973 0.98651 0.0
C339 C 0.51561 0.58843 0.98194 0.0
C340 C 0.4806 0.61047 0.98172 0.0
Tb341 Tb 0.49527 0.51638 0.99129 0.0
N342 N 0.44193 0.50182 0.98931 0.0
C343 C 0.41785 0.47143 0.98736 0.0
C344 C 0.37824 0.48793 0.98748 0.0
C345 C 0.38572 0.46403 0.98664 0.0
H346 H 0.5394 0.59169 0.9804 0.0
H347 H 0.36676 0.43985 0.98561 0.0
H348 H 0.3727 0.53995 0.98697 0.0
H349 H 0.53153 0.63708 0.97668 0.0
H350 H 0.42314 0.45261 0.98685 0.0
H351 H 0.64217 0.57072 0.04361 0.0
H352 H 0.35337 0.48215 0.98689 0.0
H353 H 0.47377 0.41237 0.03833 0.0
H354 H 0.5852 0.55521 0.04084 0.0
H355 H 0.48465 0.36851 0.03956 0.0
H356 H 0.41785 0.59402 0.9843 0.0
H357 H 0.65886 0.53084 0.04143 0.0
H358 H 0.64286 0.47392 0.03887 0.0
H359 H 0.47728 0.63048 0.98 0.0
H360 H 0.59984 0.41865 0.03799 0.0
N361 N 0.5692 0.50671 0.03701 0.0
C362 C 0.59181 0.53734 0.04006 0.0
C363 C 0.63367 0.52379 0.04031 0.0
C364 C 0.61027 0.49228 0.03824 0.0
C365 C 0.62432 0.54633 0.04163 0.0
C366 C 0.57785 0.48444 0.03691 0.0
H367 H 0.54063 0.37904 0.03856 0.0
N368 N 0.5231 0.44742 0.03636 0.0
C369 C 0.50437 0.39235 0.0387 0.0
C370 C 0.55388 0.45359 0.03662 0.0
C371 C 0.4983 0.41729 0.0381 0.0
C372 C 0.53599 0.39838 0.03808 0.0
C373 C 0.56128 0.42936 0.03733 0.0
O374 O 0.48903 0.468 0.0577 0.0
O375 O 0.48059 0.49665 0.01879 0.0
O376 O 0.50211 0.55064 0.01256 0.0
O377 O 0.52977 0.53949 0.03552 0.0
O378 O 0.46351 0.45693 0.03394 0.0
O379 O 0.52957 0.51489 0.05857 0.0
O380 O 0.52437 0.52989 0.9674 0.0
O381 O 0.53012 0.50984 1.00636 0.0
O382 O 0.51395 0.46015 0.01051 0.0
O383 O 0.47876 0.46571 0.99081 0.0
O384 O 0.54741 0.54885 0.99064 0.0
O385 O 0.47534 0.49318 0.96584 0.0
C386 C 0.45482 0.47298 0.02395 0.0
C387 C 0.5169 0.48534 0.08623 0.0
C388 C 0.51605 0.48742 0.12025 0.0
C389 C 0.50697 0.49334 0.10274 0.0
C390 C 0.53516 0.4732 0.12087 0.0
C391 C 0.53602 0.47135 0.0872 0.0
C392 C 0.54504 0.46529 0.10447 0.0
C393 C 0.51916 0.55727 0.02807 0.0
C394 C 0.5072 0.492 0.06819 0.0
C395 C 0.59358 0.43691 0.03764 0.0
C396 C 0.61807 0.46837 0.03812 0.0
C397 C 0.55602 0.5335 1.00138 0.0
C398 C 0.49905 0.52271 0.93844 0.0
C399 C 0.50552 0.51135 0.922 0.0
C400 C 0.50789 0.52592 0.90462 0.0
C401 C 0.50335 0.55211 0.9044 0.0
C402 C 0.49299 0.54761 0.93748 0.0
C403 C 0.4953 0.56228 0.92057 0.0
C404 C 0.49349 0.45051 0.99646 0.0
C405 C 0.50164 0.51019 0.95657 0.0
H406 H 0.49256 0.50458 0.1019 0.0
H407 H 0.54219 0.46783 0.13405 0.0
H408 H 0.54393 0.46511 0.07466 0.0
H409 H 0.5597 0.45435 0.10515 0.0
H410 H 0.50886 0.49129 0.92303 0.0
H411 H 0.5064 0.56539 0.89187 0.0
H412 H 0.48718 0.55619 0.94981 0.0
H413 H 0.49147 0.58211 0.92004 0.0
Tb414 Tb 0.15841 0.31391 0.32413 0.0
C415 C 0.2281 0.42844 0.37578 0.0
C416 C 0.28384 0.44315 0.37246 0.0
C417 C 0.26959 0.48289 0.37945 0.0
C418 C 0.25097 0.42032 0.3721 0.0
C419 C 0.23702 0.45965 0.38001 0.0
C420 C 0.293 0.47464 0.37565 0.0
C421 C 0.18136 0.44189 0.38679 0.0
N422 N 0.19705 0.40524 0.37628 0.0
C423 C 0.1738 0.41126 0.3825 0.0
C424 C 0.21305 0.4663 0.38525 0.0
Tb425 Tb 0.1864 0.35608 0.36794 0.0
N426 N 0.24099 0.38964 0.36924 0.0
C427 C 0.26308 0.37992 0.36815 0.0
C428 C 0.30644 0.43348 0.37021 0.0
C429 C 0.29599 0.40166 0.36831 0.0
H430 H 0.14919 0.39265 0.38363 0.0
H431 H 0.31327 0.39383 0.36692 0.0
H432 H 0.31811 0.49261 0.37574 0.0
H433 H 0.16271 0.44664 0.39123 0.0
H434 H 0.25569 0.35553 0.36656 0.0
H435 H 0.03238 0.27915 0.32359 0.0
H436 H 0.33192 0.45024 0.37048 0.0
H437 H 0.19505 0.27483 0.31189 0.0
H438 H 0.09031 0.31653 0.32427 0.0
H439 H 0.18036 0.21989 0.3062 0.0
H440 H 0.27697 0.5071 0.38244 0.0
H441 H 0.01253 0.22238 0.32092 0.0
H442 H 0.02511 0.17886 0.31718 0.0
H443 H 0.21886 0.48997 0.38862 0.0
H444 H 0.06545 0.16265 0.31243 0.0
N445 N 0.1038 0.28145 0.32244 0.0
C446 C 0.0823 0.29192 0.32301 0.0
C447 C 0.03812 0.23871 0.32124 0.0
C448 C 0.06019 0.22824 0.31968 0.0
C449 C 0.04925 0.27074 0.32267 0.0
C450 C 0.09322 0.25053 0.32011 0.0
H451 H 0.12349 0.17787 0.30806 0.0
N452 N 0.14704 0.264 0.31728 0.0
C453 C 0.16192 0.22562 0.30942 0.0
C454 C 0.11569 0.24144 0.31744 0.0
C455 C 0.17014 0.25675 0.31258 0.0
C456 C 0.1298 0.20195 0.31052 0.0
C457 C 0.10613 0.20978 0.31429 0.0
O458 O 0.18314 0.32254 0.29867 0.0
O459 O 0.19648 0.35255 0.33907 0.0
O460 O 0.18037 0.3876 0.34911 0.0
O461 O 0.14695 0.35178 0.32646 0.0
O462 O 0.20942 0.32919 0.32092 0.0
O463 O 0.14151 0.32775 0.30103 0.0
O464 O 0.16117 0.34445 0.39335 0.0
O465 O 0.14821 0.31792 0.35279 0.0
O466 O 0.16241 0.28258 0.34398 0.0
O467 O 0.19964 0.31953 0.36449 0.0
O468 O 0.13535 0.34082 0.37119 0.0
O469 O 0.20417 0.34192 0.39051 0.0
C470 C 0.22059 0.35288 0.33193 0.0
C471 C 0.15389 0.3166 0.27111 0.0
C472 C 0.15578 0.32494 0.23734 0.0
C473 C 0.16451 0.33686 0.2556 0.0
C474 C 0.13636 0.2923 0.23503 0.0
C475 C 0.13439 0.28432 0.26837 0.0
C476 C 0.12573 0.2723 0.2504 0.0
C477 C 0.16122 0.37985 0.33441 0.0
C478 C 0.16383 0.32953 0.28998 0.0
C479 C 0.07333 0.18718 0.31463 0.0
C480 C 0.05037 0.19641 0.31732 0.0
C481 C 0.12405 0.31759 0.35984 0.0
C482 C 0.19108 0.35128 0.42068 0.0
C483 C 0.1799 0.33104 0.43618 0.0
C484 C 0.1885 0.34294 0.45446 0.0
C485 C 0.20825 0.37553 0.45679 0.0
C486 C 0.21095 0.38351 0.42346 0.0
C487 C 0.21939 0.39552 0.44143 0.0
C488 C 0.18363 0.29075 0.3576 0.0
C489 C 0.18143 0.33849 0.40174 0.0
H490 H 0.17929 0.36187 0.25783 0.0
H491 H 0.12969 0.28206 0.22129 0.0
H492 H 0.12601 0.26844 0.28008 0.0
H493 H 0.11086 0.2473 0.24836 0.0
H494 H 0.16483 0.30607 0.43395 0.0
H495 H 0.21481 0.38575 0.47055 0.0
H496 H 0.21981 0.39939 0.41176 0.0
H497 H 0.23454 0.42048 0.44349 0.0
Tb498 Tb 0.69633 0.84536 0.32473 0.0
C499 C 0.57252 0.79497 0.37012 0.0
C500 C 0.55944 0.83619 0.36792 0.0
C501 C 0.51685 0.78228 0.37199 0.0
C502 C 0.58216 0.82608 0.36767 0.0
C503 C 0.53988 0.77274 0.37286 0.0
C504 C 0.52664 0.81401 0.36956 0.0
C505 C 0.55578 0.73445 0.37962 0.0
N506 N 0.59559 0.78697 0.37134 0.0
C507 C 0.58788 0.75755 0.37704 0.0
C508 C 0.53159 0.74195 0.37721 0.0
Tb509 Tb 0.64745 0.82583 0.36622 0.0
N510 N 0.61406 0.84668 0.36627 0.0
C511 C 0.62494 0.87819 0.36628 0.0
C512 C 0.57046 0.8683 0.36721 0.0
C513 C 0.60336 0.88939 0.3665 0.0
H514 H 0.60647 0.7516 0.37895 0.0
H515 H 0.61216 0.91432 0.36619 0.0
H516 H 0.50877 0.82126 0.36952 0.0
H517 H 0.54974 0.71094 0.38351 0.0
H518 H 0.65022 0.89502 0.36574 0.0
H519 H 0.73091 0.75637 0.32433 0.0
H520 H 0.55386 0.87708 0.36776 0.0
H521 H 0.73779 0.91973 0.31234 0.0
H522 H 0.69309 0.77597 0.32489 0.0
H523 H 0.79468 0.96027 0.30811 0.0
H524 H 0.49158 0.76551 0.37384 0.0
H525 H 0.78928 0.7934 0.323 0.0
H526 H 0.83462 0.84914 0.32169 0.0
H527 H 0.50677 0.72412 0.37939 0.0
H528 H 0.85217 0.90504 0.31774 0.0
N529 N 0.72946 0.82423 0.32468 0.0
C530 C 0.71841 0.79269 0.32447 0.0
C531 C 0.77279 0.8023 0.32363 0.0
C532 C 0.784 0.83446 0.32315 0.0
C533 C 0.73985 0.78133 0.32419 0.0
C534 C 0.76142 0.84474 0.32345 0.0
H535 H 0.83738 0.94675 0.31235 0.0
N536 N 0.74834 0.88414 0.31993 0.0
C537 C 0.78846 0.93667 0.31192 0.0
C538 C 0.77126 0.87594 0.32119 0.0
C539 C 0.75628 0.91366 0.31431 0.0
C540 C 0.81249 0.92898 0.3144 0.0
C541 C 0.80398 0.89809 0.31861 0.0
O542 O 0.69163 0.86334 0.29914 0.0
O543 O 0.65392 0.84116 0.3377 0.0
O544 O 0.61839 0.7893 0.34612 0.0
O545 O 0.65733 0.79596 0.32417 0.0
O546 O 0.67948 0.87892 0.32101 0.0
O547 O 0.68675 0.81753 0.30083 0.0
O548 O 0.65275 0.80828 0.39182 0.0
O549 O 0.68973 0.82989 0.3532 0.0
O550 O 0.72535 0.88166 0.34496 0.0
O551 O 0.68617 0.87532 0.36663 0.0
O552 O 0.66421 0.79219 0.3699 0.0
O553 O 0.65743 0.85399 0.39001 0.0
C554 C 0.65373 0.86458 0.33079 0.0
C555 C 0.70568 0.84502 0.27259 0.0
C556 C 0.70602 0.84616 0.23868 0.0
C557 C 0.68947 0.84014 0.25566 0.0
C558 C 0.73924 0.85716 0.23895 0.0
C559 C 0.73871 0.85573 0.27262 0.0
C560 C 0.75539 0.86183 0.25585 0.0
C561 C 0.62823 0.77987 0.33158 0.0
C562 C 0.68743 0.83889 0.28991 0.0
C563 C 0.82686 0.88835 0.31946 0.0
C564 C 0.81686 0.85653 0.32168 0.0
C565 C 0.6899 0.80644 0.36006 0.0
C566 C 0.63961 0.82711 0.4185 0.0
C567 C 0.65667 0.83343 0.43522 0.0
C568 C 0.64073 0.82774 0.45238 0.0
C569 C 0.60731 0.81545 0.45255 0.0
C570 C 0.60636 0.81519 0.41887 0.0
C571 C 0.5903 0.80932 0.43586 0.0
C572 C 0.7154 0.89124 0.35938 0.0
C573 C 0.65721 0.83289 0.40097 0.0
H574 H 0.66378 0.8312 0.25577 0.0
H575 H 0.75277 0.86238 0.22613 0.0
H576 H 0.75156 0.85931 0.2855 0.0
H577 H 0.78093 0.87024 0.25594 0.0
H578 H 0.68237 0.84246 0.43486 0.0
H579 H 0.59445 0.81106 0.46558 0.0
H580 H 0.59285 0.81045 0.40613 0.0
H581 H 0.56461 0.80009 0.43609 0.0
Tb582 Tb 0.18436 0.82348 0.36765 0.0
C583 C 0.11552 0.87422 0.31924 0.0
C584 C 0.05994 0.83349 0.32124 0.0
C585 C 0.07337 0.88747 0.31643 0.0
C586 C 0.09293 0.84325 0.3218 0.0
C587 C 0.10611 0.89665 0.31597 0.0
C588 C 0.05028 0.85588 0.31907 0.0
C589 C 0.1617 0.93448 0.30993 0.0
N590 N 0.14676 0.88193 0.31867 0.0
C591 C 0.16973 0.91126 0.31317 0.0
C592 C 0.12981 0.92729 0.31165 0.0
Tb593 Tb 0.15805 0.84294 0.32499 0.0
N594 N 0.10336 0.82245 0.32371 0.0
C595 C 0.08169 0.79101 0.32371 0.0
C596 C 0.03774 0.80147 0.32225 0.0
C597 C 0.04868 0.78012 0.32328 0.0
H598 H 0.19447 0.91705 0.31189 0.0
H599 H 0.03171 0.75525 0.32373 0.0
H600 H 0.02505 0.84891 0.31887 0.0
H601 H 0.18013 0.95791 0.30613 0.0
H602 H 0.08948 0.77402 0.32455 0.0
H603 H 0.31058 0.9115 0.36854 0.0
H604 H 0.01218 0.79294 0.32168 0.0
H605 H 0.14837 0.74944 0.38081 0.0
H606 H 0.25273 0.89253 0.36813 0.0
H607 H 0.16298 0.70871 0.38638 0.0
H608 H 0.06562 0.9044 0.31418 0.0
H609 H 0.33034 0.87394 0.37011 0.0
H610 H 0.31771 0.81802 0.3728 0.0
H611 H 0.12362 0.94526 0.30904 0.0
H612 H 0.27736 0.76249 0.37759 0.0
N613 N 0.23908 0.84415 0.36874 0.0
C614 C 0.26064 0.87561 0.36879 0.0
C615 C 0.30476 0.86534 0.36975 0.0
C616 C 0.28266 0.8333 0.37078 0.0
C617 C 0.29368 0.88661 0.36898 0.0
C618 C 0.24964 0.82343 0.37044 0.0
H619 H 0.21949 0.7215 0.38307 0.0
N620 N 0.19592 0.78462 0.3738 0.0
C621 C 0.18129 0.73214 0.38252 0.0
C622 C 0.22717 0.79243 0.37303 0.0
C623 C 0.17311 0.75529 0.37939 0.0
C624 C 0.21318 0.73942 0.38056 0.0
C625 C 0.23673 0.77008 0.37615 0.0
O626 O 0.15907 0.80649 0.39281 0.0
O627 O 0.14693 0.82722 0.35341 0.0
O628 O 0.16431 0.87884 0.34497 0.0
O629 O 0.19631 0.87283 0.36733 0.0
O630 O 0.13301 0.78944 0.37018 0.0
O631 O 0.20196 0.85158 0.3916 0.0
O632 O 0.18392 0.85961 0.3 0.0
O633 O 0.19549 0.83919 0.33922 0.0
O634 O 0.17785 0.78746 0.34764 0.0
O635 O 0.14573 0.79352 0.32541 0.0
O636 O 0.20932 0.87719 0.32266 0.0
O637 O 0.14036 0.81503 0.30096 0.0
C638 C 0.12239 0.80363 0.35991 0.0
C639 C 0.18924 0.82492 0.42039 0.0
C640 C 0.18478 0.82373 0.4543 0.0
C641 C 0.17632 0.82994 0.4367 0.0
C642 C 0.20648 0.81249 0.45526 0.0
C643 C 0.21095 0.81389 0.42167 0.0
C644 C 0.21947 0.80769 0.43905 0.0
C645 C 0.18313 0.88829 0.35982 0.0
C646 C 0.17937 0.83096 0.40223 0.0
C647 C 0.26949 0.77936 0.37547 0.0
C648 C 0.29246 0.81097 0.37277 0.0
C649 C 0.22002 0.86294 0.33281 0.0
C650 C 0.1545 0.84177 0.27219 0.0
C651 C 0.16744 0.83606 0.25614 0.0
C652 C 0.16025 0.84297 0.23839 0.0
C653 C 0.13977 0.85558 0.23699 0.0
C654 C 0.13396 0.85411 0.2705 0.0
C655 C 0.12668 0.86099 0.25296 0.0
C656 C 0.15893 0.77802 0.33283 0.0
C657 C 0.16348 0.83535 0.29049 0.0
H658 H 0.15937 0.83829 0.43565 0.0
H659 H 0.21383 0.80787 0.46856 0.0
H660 H 0.22131 0.81012 0.4093 0.0
H661 H 0.23628 0.7992 0.43996 0.0
H662 H 0.18349 0.8267 0.2575 0.0
H663 H 0.13349 0.86082 0.22353 0.0
H664 H 0.12363 0.85847 0.28269 0.0
H665 H 0.1108 0.87053 0.25171 0.0
Tb666 Tb 0.82431 0.64549 0.65675 0.0
C667 C 0.88813 0.76191 0.70677 0.0
C668 C 0.94479 0.77921 0.70498 0.0
C669 C 0.9274 0.81728 0.7096 0.0
C670 C 0.91241 0.75513 0.70438 0.0
C671 C 0.89526 0.79298 0.70974 0.0
C672 C 0.95215 0.8104 0.70723 0.0
C673 C 0.83855 0.77341 0.71392 0.0
N674 N 0.85742 0.73778 0.70668 0.0
C675 C 0.8327 0.74297 0.71095 0.0
C676 C 0.86992 0.79859 0.71307 0.0
Tb677 Tb 0.85043 0.68911 0.70031 0.0
N678 N 0.90428 0.72476 0.70211 0.0
C679 C 0.92764 0.71664 0.70177 0.0
C680 C 0.96875 0.77113 0.7037 0.0
C681 C 0.96011 0.73966 0.70231 0.0
H682 H 0.80831 0.72384 0.71161 0.0
H683 H 0.97845 0.7331 0.70157 0.0
H684 H 0.97687 0.82927 0.70751 0.0
H685 H 0.81884 0.77744 0.71684 0.0
H686 H 0.92151 0.69249 0.70059 0.0
H687 H 0.69714 0.60566 0.65402 0.0
H688 H 0.99391 0.78889 0.70419 0.0
H689 H 0.86403 0.60862 0.64619 0.0
H690 H 0.75451 0.64476 0.65522 0.0
H691 H 0.85187 0.55424 0.64142 0.0
H692 H 0.93339 0.84137 0.71167 0.0
H693 H 0.67964 0.54929 0.65221 0.0
H694 H 0.69471 0.50732 0.64974 0.0
H695 H 0.87437 0.82214 0.71538 0.0
H696 H 0.73692 0.49325 0.64629 0.0
N697 N 0.77008 0.61116 0.65451 0.0
C698 C 0.74757 0.62038 0.65431 0.0
C699 C 0.70501 0.5664 0.65274 0.0
C700 C 0.72813 0.55716 0.65195 0.0
C701 C 0.71481 0.5982 0.65368 0.0
C702 C 0.76081 0.58044 0.65266 0.0
H703 H 0.79569 0.51067 0.64292 0.0
N704 N 0.81525 0.59604 0.6507 0.0
C705 C 0.83261 0.55905 0.64408 0.0
C706 C 0.7843 0.57256 0.6507 0.0
C707 C 0.83939 0.58988 0.64671 0.0
C708 C 0.80089 0.53451 0.64498 0.0
C709 C 0.77617 0.54115 0.64803 0.0
O710 O 0.84926 0.65385 0.63138 0.0
O711 O 0.86157 0.68454 0.67182 0.0
O712 O 0.84534 0.7193 0.68014 0.0
O713 O 0.81044 0.68181 0.65884 0.0
O714 O 0.87574 0.6623 0.65369 0.0
O715 O 0.80767 0.65912 0.63342 0.0
O716 O 0.82247 0.67226 0.72458 0.0
O717 O 0.81326 0.64993 0.68519 0.0
O718 O 0.82908 0.61563 0.67741 0.0
O719 O 0.86556 0.65386 0.69768 0.0
O720 O 0.7991 0.67291 0.70287 0.0
O721 O 0.87148 0.68344 0.72486 0.0
C722 C 0.88619 0.68569 0.66488 0.0
C723 C 0.81947 0.6462 0.60382 0.0
C724 C 0.82264 0.65144 0.5698 0.0
C725 C 0.83155 0.66493 0.58771 0.0
C726 C 0.80115 0.61902 0.56839 0.0
C727 C 0.79812 0.61401 0.60196 0.0
C728 C 0.789 0.60057 0.58433 0.0
C729 C 0.82496 0.71047 0.66602 0.0
C730 C 0.82982 0.66038 0.62243 0.0
C731 C 0.74371 0.51759 0.64812 0.0
C732 C 0.71969 0.5256 0.65008 0.0
C733 C 0.78866 0.64944 0.69169 0.0
C734 C 0.84836 0.68691 0.75353 0.0
C735 C 0.84188 0.66778 0.76944 0.0
C736 C 0.83962 0.67858 0.78741 0.0
C737 C 0.84399 0.70911 0.78866 0.0
C738 C 0.85409 0.71747 0.75563 0.0
C739 C 0.8518 0.72839 0.77307 0.0
C740 C 0.85037 0.62485 0.69108 0.0
C741 C 0.84549 0.67369 0.73469 0.0
H742 H 0.84826 0.68979 0.58914 0.0
H743 H 0.79339 0.60792 0.55492 0.0
H744 H 0.78856 0.59929 0.61412 0.0
H745 H 0.77244 0.57569 0.58301 0.0
H746 H 0.83834 0.64451 0.76755 0.0
H747 H 0.84085 0.7184 0.80159 0.0
H748 H 0.85937 0.7326 0.74373 0.0
H749 H 0.85534 0.75177 0.77446 0.0
Tb750 Tb 0.3621 0.17738 0.65867 0.0
C751 C 0.23783 0.12423 0.70323 0.0
C752 C 0.22347 0.16456 0.7014 0.0
C753 C 0.18167 0.11005 0.70427 0.0
C754 C 0.24679 0.15522 0.70116 0.0
C755 C 0.20527 0.10128 0.70536 0.0
C756 C 0.19078 0.14171 0.70235 0.0
C757 C 0.22228 0.06384 0.71218 0.0
N758 N 0.26145 0.11703 0.7048 0.0
C759 C 0.25426 0.08762 0.71021 0.0
C760 C 0.19762 0.07057 0.70942 0.0
Tb761 Tb 0.31312 0.15684 0.70022 0.0
N762 N 0.27861 0.17642 0.70076 0.0
C763 C 0.28872 0.20768 0.70219 0.0
C764 C 0.23376 0.19654 0.70172 0.0
C765 C 0.26654 0.21817 0.70251 0.0
H766 H 0.27317 0.0822 0.71233 0.0
H767 H 0.27479 0.24297 0.70323 0.0
H768 H 0.17246 0.14838 0.70231 0.0
H769 H 0.2167 0.04037 0.71585 0.0
H770 H 0.3139 0.22488 0.70266 0.0
H771 H 0.39888 0.09016 0.6558 0.0
H772 H 0.21667 0.20474 0.7021 0.0
H773 H 0.40293 0.25375 0.65057 0.0
H774 H 0.3602 0.10876 0.65712 0.0
H775 H 0.45966 0.29524 0.6475 0.0
H776 H 0.15647 0.09275 0.70566 0.0
H777 H 0.45709 0.12808 0.65475 0.0
H778 H 0.50167 0.18424 0.6542 0.0
H779 H 0.17289 0.0522 0.71114 0.0
H780 H 0.51832 0.2402 0.65219 0.0
N781 N 0.39593 0.1572 0.6574 0.0
C782 C 0.38544 0.1258 0.65672 0.0
C783 C 0.44021 0.1365 0.65555 0.0
C784 C 0.45082 0.16856 0.65559 0.0
C785 C 0.40736 0.11504 0.65601 0.0
C786 C 0.42777 0.17822 0.65629 0.0
H787 H 0.50277 0.28186 0.64949 0.0
N788 N 0.41386 0.21734 0.6548 0.0
C789 C 0.45365 0.2712 0.64968 0.0
C790 C 0.43711 0.20948 0.65506 0.0
C791 C 0.42154 0.24762 0.65136 0.0
C792 C 0.47793 0.26357 0.65086 0.0
C793 C 0.46977 0.23229 0.65325 0.0
O794 O 0.35865 0.19682 0.63336 0.0
O795 O 0.32025 0.17353 0.67205 0.0
O796 O 0.28409 0.12167 0.67946 0.0
O797 O 0.32344 0.12789 0.65791 0.0
O798 O 0.34551 0.21142 0.65565 0.0
O799 O 0.35096 0.14983 0.63454 0.0
O800 O 0.31863 0.13921 0.72573 0.0
O801 O 0.35471 0.16022 0.68674 0.0
O802 O 0.3914 0.20981 0.68042 0.0
O803 O 0.35142 0.20674 0.70007 0.0
O804 O 0.3298 0.12298 0.70367 0.0
O805 O 0.32383 0.18509 0.72404 0.0
C806 C 0.32013 0.19725 0.66571 0.0
C807 C 0.3702 0.1773 0.60632 0.0
C808 C 0.36892 0.17565 0.57237 0.0
C809 C 0.35308 0.17055 0.58956 0.0
C810 C 0.4023 0.18751 0.57228 0.0
C811 C 0.4034 0.18899 0.60596 0.0
C812 C 0.41934 0.19406 0.58899 0.0
C813 C 0.29407 0.11221 0.665 0.0
C814 C 0.35273 0.17199 0.62388 0.0
C815 C 0.49304 0.22302 0.65339 0.0
C816 C 0.48357 0.19117 0.65452 0.0
C817 C 0.35498 0.13672 0.6934 0.0
C818 C 0.30535 0.15794 0.75236 0.0
C819 C 0.32203 0.16421 0.76922 0.0
C820 C 0.30568 0.15838 0.78624 0.0
C821 C 0.27224 0.14602 0.78614 0.0
C822 C 0.27208 0.14592 0.75246 0.0
C823 C 0.25562 0.13993 0.76931 0.0
C824 C 0.38164 0.22079 0.69419 0.0
C825 C 0.32328 0.1638 0.73495 0.0
H826 H 0.3273 0.16099 0.58998 0.0
H827 H 0.41532 0.19209 0.55931 0.0
H828 H 0.41695 0.19421 0.61872 0.0
H829 H 0.44501 0.20321 0.58878 0.0
H830 H 0.34775 0.1733 0.76908 0.0
H831 H 0.25907 0.14152 0.79906 0.0
H832 H 0.25886 0.14117 0.73959 0.0
H833 H 0.22992 0.13063 0.76933 0.0
Tb834 Tb 0.85178 0.15787 0.70067 0.0
C835 C 0.78746 0.21468 0.65354 0.0
C836 C 0.73104 0.17587 0.65409 0.0
C837 C 0.74758 0.23104 0.6514 0.0
C838 C 0.76356 0.18392 0.65492 0.0
C839 C 0.7799 0.23866 0.65143 0.0
C840 C 0.72316 0.19965 0.6527 0.0
C841 C 0.83661 0.27539 0.64822 0.0
N842 N 0.81827 0.22093 0.65358 0.0
C843 C 0.84283 0.2507 0.65024 0.0
C844 C 0.80502 0.26941 0.64904 0.0
Tb845 Tb 0.82631 0.17937 0.65837 0.0
N846 N 0.77228 0.16178 0.65632 0.0
C847 C 0.74938 0.13074 0.6557 0.0
C848 C 0.70753 0.14419 0.65427 0.0
C849 C 0.71677 0.12152 0.65491 0.0
H850 H 0.86735 0.25564 0.64975 0.0
H851 H 0.69878 0.09692 0.65482 0.0
H852 H 0.69831 0.19398 0.65227 0.0
H853 H 0.85618 0.29901 0.64607 0.0
H854 H 0.75589 0.1128 0.65628 0.0
H855 H 0.97909 0.24012 0.70654 0.0
H856 H 0.68228 0.13698 0.6535 0.0
H857 H 0.81086 0.08123 0.70851 0.0
H858 H 0.92196 0.22421 0.70487 0.0
H859 H 0.82211 0.03779 0.71107 0.0
H860 H 0.74122 0.24913 0.64997 0.0
H861 H 0.99581 0.20018 0.70567 0.0
H862 H 0.97989 0.14317 0.70518 0.0
H863 H 0.80026 0.28855 0.64743 0.0
H864 H 0.93703 0.08789 0.70658 0.0
N865 N 0.9058 0.1754 0.70291 0.0
C866 C 0.92857 0.20633 0.70465 0.0
C867 C 0.97055 0.19297 0.70498 0.0
C868 C 0.9471 0.1613 0.7042 0.0
C869 C 0.96119 0.21555 0.70557 0.0
C870 C 0.91458 0.15324 0.70345 0.0
H871 H 0.87802 0.04833 0.70909 0.0
N872 N 0.8599 0.11617 0.70475 0.0
C873 C 0.84165 0.0615 0.70917 0.0
C874 C 0.89072 0.12242 0.70446 0.0
C875 C 0.83539 0.08625 0.70779 0.0
C876 C 0.87323 0.06753 0.70799 0.0
C877 C 0.89831 0.09838 0.70592 0.0
O878 O 0.82663 0.13966 0.72571 0.0
O879 O 0.81463 0.1623 0.68653 0.0
O880 O 0.83082 0.21238 0.67988 0.0
O881 O 0.86642 0.20806 0.7001 0.0
O882 O 0.80017 0.12443 0.70314 0.0
O883 O 0.8686 0.18556 0.72484 0.0
O884 O 0.85127 0.1966 0.63316 0.0
O885 O 0.86328 0.17547 0.67281 0.0
O886 O 0.84867 0.12611 0.67868 0.0
O887 O 0.81162 0.12923 0.65926 0.0
O888 O 0.87825 0.21236 0.65559 0.0
O889 O 0.80906 0.15096 0.63449 0.0
C890 C 0.78984 0.1388 0.69285 0.0
C891 C 0.8565 0.15821 0.75339 0.0
C892 C 0.85276 0.15724 0.78736 0.0
C893 C 0.8441 0.16354 0.76983 0.0
C894 C 0.87419 0.14565 0.78808 0.0
C895 C 0.87782 0.1467 0.75445 0.0
C896 C 0.8866 0.14048 0.77174 0.0
C897 C 0.85169 0.2229 0.69377 0.0
C898 C 0.84633 0.16422 0.73532 0.0
C899 C 0.93064 0.10603 0.70566 0.0
C900 C 0.95503 0.13748 0.70484 0.0
C901 C 0.88836 0.19858 0.66654 0.0
C902 C 0.82093 0.17746 0.60564 0.0
C903 C 0.83203 0.17054 0.58918 0.0
C904 C 0.82273 0.17603 0.5716 0.0
C905 C 0.80225 0.18875 0.57089 0.0
C906 C 0.80043 0.18991 0.60453 0.0
C907 C 0.7912 0.19554 0.58722 0.0
C908 C 0.82726 0.11504 0.6651 0.0
C909 C 0.8313 0.17185 0.62379 0.0
H910 H 0.82734 0.17213 0.76894 0.0
H911 H 0.88172 0.14096 0.80131 0.0
H912 H 0.88759 0.14248 0.74195 0.0
H913 H 0.90314 0.13165 0.7725 0.0
H914 H 0.84759 0.16056 0.59012 0.0
H915 H 0.79504 0.19383 0.55768 0.0
H916 H 0.79166 0.19535 0.617 0.0
H917 H 0.77551 0.20534 0.58646 0.0
C918 C 0.30951 0.86272 0.08331 0.0
C919 C 0.28984 0.83194 0.07662 0.0
C920 C 0.33722 0.88461 0.0738 0.0
C921 C 0.34458 0.87685 0.05626 0.0
C922 C 0.32492 0.84645 0.04903 0.0
C923 C 0.29875 0.82415 0.05955 0.0
C924 C 0.35849 0.91631 0.08254 0.0
C925 C 0.33102 0.83772 0.02992 0.0
C926 C 0.39666 0.95052 0.02846 0.0
C927 C 0.42668 0.95257 0.02938 0.0
C928 C 0.36916 0.9243 0.03552 0.0
C929 C 0.37231 0.90109 0.04537 0.0
C930 C 0.40275 0.90314 0.04638 0.0
C931 C 0.42943 0.92857 0.03802 0.0
C932 C 0.33693 0.92205 0.03296 0.0
C933 C 0.40794 0.88026 0.05769 0.0
H934 H 0.30358 0.87052 0.09592 0.0
H935 H 0.28547 0.8007 0.05403 0.0
H936 H 0.38411 0.92278 0.08156 0.0
H937 H 0.35568 0.93441 0.07503 0.0
H938 H 0.35255 0.9169 0.09741 0.0
H939 H 0.31297 0.81336 0.02599 0.0
H940 H 0.33046 0.85393 0.01941 0.0
H941 H 0.35521 0.84022 0.02927 0.0
H942 H 0.39471 0.96949 0.02218 0.0
H943 H 0.45291 0.93087 0.03954 0.0
H944 H 0.32945 0.9282 0.04614 0.0
H945 H 0.31837 0.89777 0.02925 0.0
H946 H 0.33765 0.93816 0.02193 0.0
H947 H 0.40751 0.8854 0.07269 0.0
H948 H 0.43138 0.88197 0.05455 0.0
H949 H 0.38857 0.85583 0.05529 0.0
C950 C 0.14762 0.44548 0.08345 0.0
C951 C 0.17851 0.45668 0.07583 0.0
C952 C 0.12449 0.45064 0.07472 0.0
C953 C 0.13098 0.46527 0.05708 0.0
C954 C 0.16153 0.47601 0.04896 0.0
C955 C 0.18504 0.47247 0.05861 0.0
C956 C 0.09293 0.4403 0.08449 0.0
C957 C 0.16915 0.48996 0.02968 0.0
C958 C 0.05377 0.44357 0.03086 0.0
C959 C 0.05279 0.47144 0.03156 0.0
C960 C 0.08041 0.44213 0.03768 0.0
C961 C 0.1053 0.46831 0.04707 0.0
C962 C 0.10412 0.49647 0.04807 0.0
C963 C 0.07829 0.49792 0.03986 0.0
C964 C 0.0817 0.41245 0.03494 0.0
C965 C 0.12919 0.52452 0.05865 0.0
H966 H 0.14086 0.4323 0.09626 0.0
H967 H 0.20857 0.48225 0.0524 0.0
H968 H 0.08658 0.45905 0.08391 0.0
H969 H 0.0735 0.41939 0.07746 0.0
H970 H 0.09364 0.43426 0.0993 0.0
H971 H 0.1954 0.50332 0.02701 0.0
H972 H 0.15802 0.47067 0.01938 0.0
H973 H 0.15915 0.50559 0.02725 0.0
H974 H 0.03387 0.42299 0.02462 0.0
H975 H 0.07713 0.51925 0.04092 0.0
H976 H 0.07686 0.39968 0.0483 0.0
H977 H 0.10597 0.41803 0.03021 0.0
H978 H 0.06375 0.39664 0.02457 0.0
H979 H 0.12979 0.5179 0.07334 0.0
H980 H 0.12449 0.54441 0.05843 0.0
H981 H 0.15331 0.53254 0.05268 0.0
C982 C 0.52271 0.70341 0.07697 0.0
C983 C 0.5527 0.72375 0.08487 0.0
C984 C 0.5168 0.67552 0.06835 0.0
C985 C 0.54161 0.66806 0.0675 0.0
C986 C 0.57185 0.68836 0.07563 0.0
C987 C 0.577 0.71596 0.08429 0.0
C988 C 0.48418 0.65424 0.05994 0.0
C989 C 0.59895 0.68128 0.07481 0.0
C990 C 0.51998 0.58428 0.05734 0.0
C991 C 0.52587 0.58571 0.03821 0.0
C992 C 0.52492 0.61094 0.06712 0.0
C993 C 0.53633 0.6396 0.05747 0.0
C994 C 0.5428 0.64115 0.03818 0.0
C995 C 0.53749 0.6141 0.02879 0.0
C996 C 0.51755 0.60836 0.08766 0.0
C997 C 0.55534 0.67136 0.02745 0.0
H998 H 0.50383 0.70931 0.07758 0.0
H999 H 0.60032 0.73187 0.09022 0.0
H1000 H 0.48652 0.65238 0.04471 0.0
H1001 H 0.47389 0.63032 0.06579 0.0
H1002 H 0.46709 0.6628 0.06247 0.0
H1003 H 0.62069 0.69905 0.0823 0.0
H1004 H 0.59123 0.65796 0.08096 0.0
H1005 H 0.60546 0.68045 0.06011 0.0
H1006 H 0.51082 0.56213 0.06456 0.0
H1007 H 0.54309 0.61533 0.01417 0.0
H1008 H 0.49875 0.61463 0.09037 0.0
H1009 H 0.53924 0.62513 0.09554 0.0
H1010 H 0.50913 0.5844 0.09309 0.0
H1011 H 0.53819 0.68013 0.02852 0.0
H1012 H 0.55914 0.66852 0.0125 0.0
H1013 H 0.57843 0.68952 0.03352 0.0
C1014 C 0.83525 0.27505 0.96397 0.0
C1015 C 0.82496 0.27378 0.94557 0.0
C1016 C 0.8578 0.30359 0.97211 0.0
C1017 C 0.87015 0.33159 0.96166 0.0
C1018 C 0.85961 0.3305 0.94313 0.0
C1019 C 0.83727 0.30158 0.93528 0.0
C1020 C 0.86863 0.30374 0.99184 0.0
C1021 C 0.87187 0.3599 0.93164 0.0
C1022 C 0.90597 0.40784 0.98877 0.0
C1023 C 0.939 0.41877 0.98735 0.0
C1024 C 0.88336 0.37975 0.98031 0.0
C1025 C 0.89398 0.36201 0.97018 0.0
C1026 C 0.92731 0.3731 0.96847 0.0
C1027 C 0.94946 0.40146 0.977 0.0
C1028 C 0.84809 0.36897 0.98234 0.0
C1029 C 0.93956 0.35475 0.95789 0.0
H1030 H 0.8261 0.25358 0.9719 0.0
H1031 H 0.82915 0.30073 0.92112 0.0
H1032 H 0.89499 0.31343 0.99218 0.0
H1033 H 0.86335 0.3191 1.00064 0.0
H1034 H 0.85676 0.27995 0.99807 0.0
H1035 H 0.86106 0.35511 0.91752 0.0
H1036 H 0.86648 0.37671 0.93875 0.0
H1037 H 0.89834 0.37146 0.93021 0.0
H1038 H 0.89768 0.42134 0.99647 0.0
H1039 H 0.97493 0.40975 0.97584 0.0
H1040 H 0.83578 0.34616 0.98969 0.0
H1041 H 0.83681 0.36537 0.96843 0.0
H1042 H 0.84389 0.38599 0.99021 0.0
H1043 H 0.93018 0.3313 0.96428 0.0
H1044 H 0.9662 0.36673 0.95769 0.0
H1045 H 0.93074 0.35103 0.94334 0.0
C1046 C 0.70884 0.56382 0.94526 0.0
C1047 C 0.72766 0.55135 0.95204 0.0
C1048 C 0.68065 0.55856 0.95436 0.0
C1049 C 0.67183 0.54242 0.97154 0.0
C1050 C 0.69113 0.53091 0.97901 0.0
C1051 C 0.71795 0.53453 0.96895 0.0
C1052 C 0.66014 0.5702 0.9454 0.0
C1053 C 0.68377 0.51521 0.99783 0.0
C1054 C 0.61565 0.56088 0.99906 0.0
C1055 C 0.58603 0.53338 0.99697 0.0
C1056 C 0.64413 0.56304 0.99231 0.0
C1057 C 0.64264 0.53811 0.9817 0.0
C1058 C 0.61264 0.51019 0.97952 0.0
C1059 C 0.58484 0.50797 0.98751 0.0
C1060 C 0.67565 0.59243 0.99611 0.0
C1061 C 0.60931 0.48361 0.96752 0.0
H1062 H 0.71577 0.57787 0.93279 0.0
H1063 H 0.73098 0.52375 0.97449 0.0
H1064 H 0.63458 0.55138 0.94522 0.0
H1065 H 0.66169 0.58998 0.95357 0.0
H1066 H 0.66772 0.57833 0.93091 0.0
H1067 H 0.7014 0.50801 1.00193 0.0
H1068 H 0.68391 0.53152 0.00852 0.0
H1069 H 0.65944 0.49425 0.9979 0.0
H1070 H 0.61651 0.58079 1.00604 0.0
H1071 H 0.56181 0.48714 0.98516 0.0
H1072 H 0.68373 0.60722 0.98346 0.0
H1073 H 0.69446 0.5866 0.99981 0.0
H1074 H 0.67357 0.60639 0.00759 0.0
H1075 H 0.61338 0.49123 0.95277 0.0
H1076 H 0.58514 0.46245 0.96873 0.0
H1077 H 0.62761 0.47715 0.97123 0.0
C1078 C 0.44256 0.16795 0.96405 0.0
C1079 C 0.45273 0.17676 0.94567 0.0
C1080 C 0.44915 0.14691 0.97349 0.0
C1081 C 0.46674 0.13483 0.96439 0.0
C1082 C 0.47751 0.14407 0.94591 0.0
C1083 C 0.47011 0.16474 0.93671 0.0
C1084 C 0.43678 0.13715 0.99306 0.0
C1085 C 0.49673 0.13201 0.93585 0.0
C1086 C 0.50644 0.09935 0.99347 0.0
C1087 C 0.48524 0.06724 0.99092 0.0
C1088 C 0.50068 0.1217 0.985 0.0
C1089 C 0.47288 0.11162 0.97392 0.0
C1090 C 0.45108 0.07924 0.97162 0.0
C1091 C 0.45766 0.05745 0.98003 0.0
C1092 C 0.52467 0.15602 0.9876 0.0
C1093 C 0.42091 0.06759 0.96015 0.0
H1094 H 0.42891 0.17711 0.97092 0.0
H1095 H 0.47824 0.17184 0.92255 0.0
H1096 H 0.42009 0.11149 0.99353 0.0
H1097 H 0.45695 0.14238 1.00263 0.0
H1098 H 0.42399 0.14915 0.99828 0.0
H1099 H 0.50449 0.14255 0.92182 0.0
H1100 H 0.51833 0.13716 0.94409 0.0
H1101 H 0.48218 0.10621 0.93431 0.0
H1102 H 0.52797 0.10708 1.00173 0.0
H1103 H 0.44108 0.03269 0.97809 0.0
H1104 H 0.51261 0.16836 0.99335 0.0
H1105 H 0.53494 0.16682 0.97393 0.0
H1106 H 0.54462 0.15994 0.99705 0.0
H1107 H 0.40647 0.07784 0.96539 0.0
H1108 H 0.40578 0.04167 0.9604 0.0
H1109 H 0.42726 0.07523 0.9455 0.0
C1110 C 0.725 0.16655 0.96915 0.0
C1111 C 0.72384 0.16907 0.94971 0.0
C1112 C 0.69801 0.1447 0.97927 0.0
C1113 C 0.66918 0.12448 0.96976 0.0
C1114 C 0.66763 0.12717 0.95022 0.0
C1115 C 0.69483 0.14951 0.94048 0.0
C1116 C 0.7004 0.14308 1.00013 0.0
C1117 C 0.63739 0.10594 0.93951 0.0
C1118 C 0.61083 0.04398 0.98891 0.0
C1119 C 0.58497 0.0476 0.99444 0.0
C1120 C 0.63892 0.06919 0.98162 0.0
C1121 C 0.64133 0.09889 0.9799 0.0
C1122 C 0.61595 0.10311 0.98646 0.0
C1123 C 0.58781 0.07725 0.99335 0.0
C1124 C 0.66531 0.06356 0.97482 0.0
C1125 C 0.61776 0.1345 0.98538 0.0
H1126 H 0.74726 0.18122 0.97649 0.0
H1127 H 0.69331 0.15162 0.92556 0.0
H1128 H 0.68288 0.14834 1.00686 0.0
H1129 H 0.69417 0.1191 1.00444 0.0
H1130 H 0.72477 0.15987 1.00543 0.0
H1131 H 0.63979 0.11153 0.92443 0.0
H1132 H 0.63136 0.08122 0.94121 0.0
H1133 H 0.61696 0.10787 0.9451 0.0
H1134 H 0.60853 0.02098 0.98959 0.0
H1135 H 0.5677 0.0801 0.99718 0.0
H1136 H 0.68862 0.08085 0.98108 0.0
H1137 H 0.66775 0.06672 0.95951 0.0
H1138 H 0.66058 0.03964 0.9782 0.0
H1139 H 0.64144 0.15336 0.99035 0.0
H1140 H 0.59862 0.13505 0.99375 0.0
H1141 H 0.61508 0.13969 0.9707 0.0
C1142 C 0.86091 0.55589 0.94265 0.0
C1143 C 0.83021 0.54519 0.95036 0.0
C1144 C 0.88406 0.551 0.95158 0.0
C1145 C 0.87758 0.53685 0.96937 0.0
C1146 C 0.84711 0.52645 0.9775 0.0
C1147 C 0.82364 0.52992 0.96775 0.0
C1148 C 0.91566 0.56119 0.94191 0.0
C1149 C 0.8396 0.51276 0.99685 0.0
C1150 C 0.93053 0.50448 0.98635 0.0
C1151 C 0.95583 0.53083 0.99489 0.0
C1152 C 0.9045 0.50577 0.97835 0.0
C1153 C 0.90315 0.53381 0.9795 0.0
C1154 C 0.92787 0.55991 0.98904 0.0
C1155 C 0.95452 0.55851 0.99591 0.0
C1156 C 0.87961 0.47777 0.96764 0.0
C1157 C 0.92657 0.5896 0.9917 0.0
H1158 H 0.86739 0.56858 0.92964 0.0
H1159 H 0.80015 0.52061 0.97396 0.0
H1160 H 0.93521 0.58165 0.94921 0.0
H1161 H 0.92154 0.54212 0.94228 0.0
H1162 H 0.91534 0.5678 0.92717 0.0
H1163 H 0.81374 0.5022 1.00033 0.0
H1164 H 0.84671 0.49473 0.99856 0.0
H1165 H 0.85368 0.53165 1.00703 0.0
H1166 H 0.93207 0.48345 0.98481 0.0
H1167 H 0.97433 0.57906 1.00223 0.0
H1168 H 0.88102 0.48395 0.9527 0.0
H1169 H 0.85511 0.47101 0.97248 0.0
H1170 H 0.88303 0.45718 0.969 0.0
H1171 H 0.93135 0.60224 0.97829 0.0
H1172 H 0.94454 0.6055 1.00202 0.0
H1173 H 0.90231 0.58405 0.99642 0.0
C1174 C 0.44302 0.27848 0.96213 0.0
C1175 C 0.45316 0.27821 0.94391 0.0
C1176 C 0.44934 0.30659 0.97063 0.0
C1177 C 0.46654 0.33505 0.96071 0.0
C1178 C 0.47711 0.33493 0.94236 0.0
C1179 C 0.47009 0.30642 0.93412 0.0
C1180 C 0.43742 0.30583 0.99016 0.0
C1181 C 0.49595 0.3649 0.93148 0.0
C1182 C 0.45903 0.40471 0.97611 0.0
C1183 C 0.48674 0.42137 0.98694 0.0
C1184 C 0.45212 0.37651 0.96747 0.0
C1185 C 0.47365 0.365 0.96959 0.0
C1186 C 0.50189 0.38199 0.9803 0.0
C1187 C 0.50807 0.40996 0.98885 0.0
C1188 C 0.42162 0.35883 0.95628 0.0
C1189 C 0.52558 0.37063 0.98275 0.0
H1190 H 0.42964 0.25659 0.96962 0.0
H1191 H 0.47818 0.30619 0.92008 0.0
H1192 H 0.45791 0.32049 0.99948 0.0
H1193 H 0.42125 0.31583 0.99031 0.0
H1194 H 0.42421 0.28171 0.99591 0.0
H1195 H 0.50266 0.36078 0.91741 0.0
H1196 H 0.48167 0.37678 0.92994 0.0
H1197 H 0.51819 0.38115 0.93913 0.0
H1198 H 0.44245 0.41343 0.97462 0.0
H1199 H 0.5298 0.42299 0.99698 0.0
H1200 H 0.4065 0.33509 0.96221 0.0
H1201 H 0.42741 0.35581 0.94177 0.0
H1202 H 0.40741 0.37096 0.95602 0.0
H1203 H 0.51365 0.34731 0.98953 0.0
H1204 H 0.54662 0.3869 0.99132 0.0
H1205 H 0.53425 0.36787 0.96898 0.0
C1206 C 0.15117 0.72071 0.07961 0.0
C1207 C 0.18382 0.72984 0.0788 0.0
C1208 C 0.12775 0.69248 0.07159 0.0
C1209 C 0.1372 0.67272 0.06273 0.0
C1210 C 0.17016 0.68183 0.06185 0.0
C1211 C 0.19311 0.71041 0.06979 0.0
C1212 C 0.09292 0.68384 0.07254 0.0
C1213 C 0.18114 0.66126 0.05267 0.0
C1214 C 0.07493 0.58664 0.05625 0.0
C1215 C 0.06739 0.58587 0.0374 0.0
C1216 C 0.09763 0.6148 0.06474 0.0
C1217 C 0.11266 0.64274 0.05411 0.0
C1218 C 0.10436 0.64203 0.03515 0.0
C1219 C 0.08181 0.61354 0.02704 0.0
C1220 C 0.10601 0.61453 0.08494 0.0
C1221 C 0.11943 0.6713 0.02338 0.0
H1222 H 0.14396 0.73584 0.08643 0.0
H1223 H 0.21832 0.71728 0.06932 0.0
H1224 H 0.08291 0.6807 0.05829 0.0
H1225 H 0.07878 0.66121 0.0799 0.0
H1226 H 0.08958 0.70188 0.07982 0.0
H1227 H 0.2076 0.67152 0.05338 0.0
H1228 H 0.16953 0.63794 0.05945 0.0
H1229 H 0.17373 0.65748 0.03785 0.0
H1230 H 0.06371 0.56507 0.0642 0.0
H1231 H 0.07512 0.61298 0.01263 0.0
H1232 H 0.10175 0.63133 0.09296 0.0
H1233 H 0.1319 0.6222 0.08625 0.0
H1234 H 0.09181 0.59096 0.09131 0.0
H1235 H 0.11506 0.68932 0.02977 0.0
H1236 H 0.10988 0.66681 0.00895 0.0
H1237 H 0.1458 0.6812 0.02276 0.0
C1238 C 0.29419 0.47324 0.05783 0.0
C1239 C 0.285 0.45708 0.07496 0.0
C1240 C 0.32116 0.47708 0.04783 0.0
C1241 C 0.34099 0.46634 0.05553 0.0
C1242 C 0.33285 0.45119 0.07303 0.0
C1243 C 0.30461 0.44576 0.08211 0.0
C1244 C 0.32769 0.49159 0.02869 0.0
C1245 C 0.35398 0.44051 0.08225 0.0
C1246 C 0.39553 0.44569 0.02806 0.0
C1247 C 0.42525 0.47332 0.02923 0.0
C1248 C 0.3675 0.44409 0.03514 0.0
C1249 C 0.36965 0.46983 0.04515 0.0
C1250 C 0.3998 0.49782 0.04649 0.0
C1251 C 0.42708 0.49946 0.03811 0.0
C1252 C 0.33573 0.4145 0.03224 0.0
C1253 C 0.40376 0.52529 0.05784 0.0
H1254 H 0.28047 0.48308 0.052 0.0
H1255 H 0.29812 0.43228 0.0948 0.0
H1256 H 0.35305 0.51047 0.02733 0.0
H1257 H 0.3236 0.47345 0.01821 0.0
H1258 H 0.31189 0.50134 0.02531 0.0
H1259 H 0.34713 0.4336 0.09697 0.0
H1260 H 0.35215 0.42011 0.07467 0.0
H1261 H 0.37949 0.45942 0.08183 0.0
H1262 H 0.39419 0.42532 0.02142 0.0
H1263 H 0.45024 0.52053 0.03959 0.0
H1264 H 0.31693 0.42018 0.02825 0.0
H1265 H 0.32802 0.40095 0.04537 0.0
H1266 H 0.33723 0.39939 0.02129 0.0
H1267 H 0.38655 0.53264 0.0532 0.0
H1268 H 0.42846 0.54573 0.05691 0.0
H1269 H 0.39838 0.51822 0.07265 0.0
C1270 C 0.56028 0.83116 0.06254 0.0
C1271 C 0.55037 0.8237 0.08107 0.0
C1272 C 0.55428 0.85211 0.05254 0.0
C1273 C 0.53764 0.86554 0.06126 0.0
C1274 C 0.52699 0.85755 0.07986 0.0
C1275 C 0.53373 0.83688 0.08961 0.0
C1276 C 0.5664 0.86043 0.03283 0.0
C1277 C 0.5088 0.87112 0.08952 0.0
C1278 C 0.55016 0.94339 0.04396 0.0
C1279 C 0.5226 0.93406 0.03314 0.0
C1280 C 0.55557 0.92124 0.05293 0.0
C1281 C 0.53264 0.88903 0.05122 0.0
C1282 C 0.50487 0.87944 0.04019 0.0
C1283 C 0.50026 0.9021 0.03119 0.0
C1284 C 0.58571 0.93235 0.06436 0.0
C1285 C 0.47972 0.84532 0.03822 0.0
H1286 H 0.57341 0.82116 0.056 0.0
H1287 H 0.52582 0.83084 0.10389 0.0
H1288 H 0.54631 0.85565 0.0233 0.0
H1289 H 0.58405 0.88583 0.0319 0.0
H1290 H 0.57805 0.84717 0.02789 0.0
H1291 H 0.50074 0.86125 0.10366 0.0
H1292 H 0.52424 0.89689 0.09072 0.0
H1293 H 0.48746 0.86653 0.08118 0.0
H1294 H 0.56759 0.96805 0.04544 0.0
H1295 H 0.47872 0.89477 0.02301 0.0
H1296 H 0.59928 0.92101 0.0594 0.0
H1297 H 0.57931 0.9255 0.07911 0.0
H1298 H 0.60167 0.95815 0.0637 0.0
H1299 H 0.4908 0.83173 0.03303 0.0
H1300 H 0.4601 0.84173 0.02858 0.0
H1301 H 0.46913 0.83563 0.05203 0.0
C1302 C 0.98413 0.18611 0.41855 0.0
C1303 C 0.9549 0.16696 0.40941 0.0
C1304 C 0.01119 0.20876 0.40883 0.0
C1305 C 0.00926 0.21224 0.38939 0.0
C1306 C 0.9802 0.19242 0.37995 0.0
C1307 C 0.95338 0.17023 0.39005 0.0
C1308 C 0.04169 0.22947 0.41946 0.0
C1309 C 0.97737 0.19491 0.35919 0.0
C1310 C 0.06761 0.29312 0.37054 0.0
C1311 C 0.09297 0.28931 0.36422 0.0
C1312 C 0.03972 0.26794 0.37807 0.0
C1313 C 0.03702 0.23804 0.37927 0.0
C1314 C 0.06191 0.23368 0.37203 0.0
C1315 C 0.08983 0.25949 0.3649 0.0
C1316 C 0.01385 0.27373 0.38559 0.0
C1317 C 0.05985 0.20214 0.3726 0.0
H1318 H 0.98593 0.18345 0.43339 0.0
H1319 H 0.93095 0.15591 0.38279 0.0
H1320 H 0.06192 0.22763 0.41345 0.0
H1321 H 0.04784 0.25429 0.41821 0.0
H1322 H 0.03959 0.22332 0.43445 0.0
H1323 H 0.95304 0.17797 0.3539 0.0
H1324 H 0.98292 0.21892 0.35543 0.0
H1325 H 0.99515 0.19053 0.35199 0.0
H1326 H 0.07013 0.31623 0.37022 0.0
H1327 H 0.10955 0.25642 0.36051 0.0
H1328 H 0.01192 0.27011 0.40088 0.0
H1329 H 0.99024 0.25682 0.37949 0.0
H1330 H 0.01876 0.29784 0.38264 0.0
H1331 H 0.06313 0.19668 0.38712 0.0
H1332 H 0.07851 0.20155 0.36378 0.0
H1333 H 0.03589 0.18348 0.36787 0.0
C1334 C 0.82733 0.80029 0.4182 0.0
C1335 C 0.8462 0.79086 0.4082 0.0
C1336 C 0.80357 0.80444 0.40937 0.0
C1337 C 0.79871 0.79967 0.38993 0.0
C1338 C 0.81836 0.79123 0.37964 0.0
C1339 C 0.84158 0.78673 0.38886 0.0
C1340 C 0.78304 0.81314 0.42097 0.0
C1341 C 0.81478 0.78679 0.35887 0.0
C1342 C 0.71512 0.77625 0.37178 0.0
C1343 C 0.71886 0.80487 0.36568 0.0
C1344 C 0.741 0.7742 0.37929 0.0
C1345 C 0.77167 0.80144 0.38067 0.0
C1346 C 0.77582 0.83032 0.37402 0.0
C1347 C 0.74924 0.83181 0.367 0.0
C1348 C 0.73525 0.74294 0.38627 0.0
C1349 C 0.80815 0.85982 0.3747 0.0
H1350 H 0.83098 0.80433 0.43303 0.0
H1351 H 0.85558 0.77916 0.38089 0.0
H1352 H 0.78463 0.83494 0.41557 0.0
H1353 H 0.75751 0.7944 0.41999 0.0
H1354 H 0.79021 0.81668 0.43585 0.0
H1355 H 0.83048 0.77839 0.35299 0.0
H1356 H 0.78952 0.76982 0.35518 0.0
H1357 H 0.82112 0.80945 0.35223 0.0
H1358 H 0.69159 0.75543 0.37102 0.0
H1359 H 0.7522 0.85417 0.36281 0.0
H1360 H 0.74045 0.74445 0.40139 0.0
H1361 H 0.75172 0.73661 0.37921 0.0
H1362 H 0.71016 0.72388 0.38391 0.0
H1363 H 0.81497 0.86701 0.38937 0.0
H1364 H 0.80818 0.87944 0.36709 0.0
H1365 H 0.8268 0.85557 0.36858 0.0
C1366 C 0.24145 0.04819 0.41425 0.0
C1367 C 0.21665 0.05491 0.41671 0.0
C1368 C 0.23594 0.02096 0.40494 0.0
C1369 C 0.20475 -0.00022 0.39826 0.0
C1370 C 0.17947 0.00621 0.40103 0.0
C1371 C 0.18582 0.03393 0.41008 0.0
C1372 C 0.26358 0.0151 0.40199 0.0
C1373 C 0.14579 0.98386 0.3944 0.0
C1374 C 0.19609 0.94394 0.35945 0.0
C1375 C 0.18848 0.91679 0.36942 0.0
C1376 C 0.20143 0.9712 0.36866 0.0
C1377 C 0.19866 0.97098 0.38828 0.0
C1378 C 0.19058 0.94339 0.39839 0.0
C1379 C 0.18589 0.91667 0.38882 0.0
C1380 C 0.21056 0.00034 0.35744 0.0
C1381 C 0.18678 0.94205 0.41927 0.0
H1382 H 0.26535 0.06466 0.41923 0.0
H1383 H 0.16665 0.03915 0.4121 0.0
H1384 H 0.25814 0.99258 0.40849 0.0
H1385 H 0.26705 0.01315 0.38689 0.0
H1386 H 0.28641 0.03403 0.40793 0.0
H1387 H 0.12867 0.99188 0.39815 0.0
H1388 H 0.14561 0.98124 0.37907 0.0
H1389 H 0.13718 0.96034 0.40052 0.0
H1390 H 0.19879 0.94416 0.34453 0.0
H1391 H 0.17966 0.89546 0.39649 0.0
H1392 H 0.23451 0.01942 0.3619 0.0
H1393 H 0.19317 0.00848 0.35998 0.0
H1394 H 0.21128 0.99644 0.34227 0.0
H1395 H 0.20969 0.9594 0.4259 0.0
H1396 H 0.17958 0.9185 0.42496 0.0
H1397 H 0.16841 0.9483 0.42326 0.0
C1398 C 0.48169 0.62786 0.2853 0.0
C1399 C 0.4915 0.6074 0.27836 0.0
C1400 C 0.5038 0.65641 0.29366 0.0
C1401 C 0.53634 0.66435 0.29548 0.0
C1402 C 0.54629 0.64364 0.28859 0.0
C1403 C 0.5238 0.61556 0.27996 0.0
C1404 C 0.49236 0.67811 0.30052 0.0
C1405 C 0.5806 0.65092 0.29056 0.0
C1406 C 0.60114 0.74929 0.3031 0.0
C1407 C 0.60504 0.75031 0.32243 0.0
C1408 C 0.57853 0.7216 0.29415 0.0
C1409 C 0.55994 0.69414 0.30479 0.0
C1410 C 0.5642 0.69506 0.32432 0.0
C1411 C 0.58659 0.72321 0.33291 0.0
C1412 C 0.57435 0.7218 0.27335 0.0
C1413 C 0.54541 0.66621 0.33614 0.0
H1414 H 0.45674 0.62166 0.28395 0.0
H1415 H 0.53135 0.59961 0.27476 0.0
H1416 H 0.49625 0.68165 0.31574 0.0
H1417 H 0.5065 0.7014 0.29386 0.0
H1418 H 0.46651 0.66894 0.29756 0.0
H1419 H 0.58439 0.63223 0.28462 0.0
H1420 H 0.59699 0.6733 0.28347 0.0
H1421 H 0.58746 0.6539 0.30547 0.0
H1422 H 0.61535 0.77036 0.29501 0.0
H1423 H 0.59027 0.72378 0.34776 0.0
H1424 H 0.54903 0.71452 0.27002 0.0
H1425 H 0.57973 0.70468 0.26666 0.0
H1426 H 0.59017 0.74524 0.26717 0.0
H1427 H 0.5193 0.65711 0.33444 0.0
H1428 H 0.5515 0.67089 0.35114 0.0
H1429 H 0.55025 0.64751 0.33151 0.0
C1430 C 0.39155 0.88291 0.3026 0.0
C1431 C 0.39127 0.87875 0.28321 0.0
C1432 C 0.36401 0.87837 0.31223 0.0
C1433 C 0.33536 0.86989 0.30232 0.0
C1434 C 0.33468 0.8652 0.28283 0.0
C1435 C 0.36241 0.86942 0.27358 0.0
C1436 C 0.36567 0.88285 0.33304 0.0
C1437 C 0.30478 0.85638 0.27163 0.0
C1438 C 0.25365 0.83774 0.32619 0.0
C1439 C 0.25074 0.8646 0.32745 0.0
C1440 C 0.28163 0.83927 0.31889 0.0
C1441 C 0.30683 0.86812 0.31201 0.0
C1442 C 0.30408 0.89534 0.31353 0.0
C1443 C 0.27623 0.89324 0.32127 0.0
C1444 C 0.28372 0.80979 0.31805 0.0
C1445 C 0.33012 0.92658 0.30637 0.0
H1446 H 0.41356 0.89045 0.31031 0.0
H1447 H 0.36139 0.86538 0.25873 0.0
H1448 H 0.35881 0.90051 0.33688 0.0
H1449 H 0.34828 0.86051 0.33982 0.0
H1450 H 0.38997 0.89045 0.33869 0.0
H1451 H 0.30779 0.85282 0.25667 0.0
H1452 H 0.28428 0.83456 0.2772 0.0
H1453 H 0.29843 0.87507 0.27284 0.0
H1454 H 0.23383 0.81538 0.33049 0.0
H1455 H 0.27397 0.91401 0.32202 0.0
H1456 H 0.30717 0.8142 0.32355 0.0
H1457 H 0.28203 0.8022 0.30337 0.0
H1458 H 0.26422 0.79039 0.32612 0.0
H1459 H 0.3534 0.93285 0.313 0.0
H1460 H 0.32476 0.94568 0.30906 0.0
H1461 H 0.33304 0.92508 0.29116 0.0
C1462 C 0.09667 0.47819 0.28159 0.0
C1463 C 0.12045 0.509 0.27763 0.0
C1464 C 0.10403 0.4581 0.2915 0.0
C1465 C 0.13604 0.46899 0.2973 0.0
C1466 C 0.16021 0.50004 0.29321 0.0
C1467 C 0.15205 0.51978 0.28353 0.0
C1468 C 0.07756 0.42524 0.29579 0.0
C1469 C 0.19469 0.51226 0.29887 0.0
C1470 C 0.14984 0.42404 0.3357 0.0
C1471 C 0.15649 0.40396 0.32534 0.0
C1472 C 0.14349 0.4457 0.32678 0.0
C1473 C 0.14434 0.44746 0.30709 0.0
C1474 C 0.15208 0.42782 0.29664 0.0
C1475 C 0.1578 0.40613 0.30591 0.0
C1476 C 0.13492 0.46599 0.33837 0.0
C1477 C 0.1539 0.42939 0.27567 0.0
H1478 H 0.07216 0.47001 0.27723 0.0
H1479 H 0.17046 0.5436 0.28038 0.0
H1480 H 0.08279 0.40802 0.28909 0.0
H1481 H 0.07628 0.42103 0.31101 0.0
H1482 H 0.05373 0.42079 0.29089 0.0
H1483 H 0.21054 0.53707 0.29474 0.0
H1484 H 0.19633 0.51037 0.31415 0.0
H1485 H 0.20383 0.49783 0.29236 0.0
H1486 H 0.14839 0.42202 0.35068 0.0
H1487 H 0.16347 0.39089 0.29792 0.0
H1488 H 0.11 0.46026 0.33517 0.0
H1489 H 0.15092 0.49103 0.33489 0.0
H1490 H 0.13676 0.46277 0.35352 0.0
H1491 H 0.13002 0.42282 0.2698 0.0
H1492 H 0.16181 0.41355 0.26971 0.0
H1493 H 0.17085 0.45368 0.27111 0.0
C1494 C 0.39052 0.50069 0.30142 0.0
C1495 C 0.38891 0.50401 0.28208 0.0
C1496 C 0.36373 0.47847 0.31153 0.0
C1497 C 0.33461 0.45877 0.30211 0.0
C1498 C 0.33257 0.46241 0.2827 0.0
C1499 C 0.35962 0.48502 0.27296 0.0
C1500 C 0.36669 0.4758 0.33226 0.0
C1501 C 0.30198 0.44184 0.2721 0.0
C1502 C 0.27671 0.37759 0.32066 0.0
C1503 C 0.25138 0.38123 0.32726 0.0
C1504 C 0.30443 0.40293 0.31312 0.0
C1505 C 0.30698 0.43278 0.31218 0.0
C1506 C 0.2821 0.43693 0.31967 0.0
C1507 C 0.25435 0.41098 0.32686 0.0
C1508 C 0.33034 0.39739 0.30536 0.0
C1509 C 0.28405 0.46842 0.31937 0.0
H1510 H 0.41301 0.51493 0.30865 0.0
H1511 H 0.35781 0.48775 0.25814 0.0
H1512 H 0.34937 0.48072 0.33955 0.0
H1513 H 0.36058 0.45161 0.33597 0.0
H1514 H 0.39121 0.49232 0.33747 0.0
H1515 H 0.30392 0.4483 0.25716 0.0
H1516 H 0.29595 0.41703 0.2731 0.0
H1517 H 0.28175 0.44346 0.27831 0.0
H1518 H 0.27433 0.35453 0.32082 0.0
H1519 H 0.23463 0.41386 0.33156 0.0
H1520 H 0.35394 0.41421 0.31152 0.0
H1521 H 0.33224 0.40136 0.29011 0.0
H1522 H 0.3255 0.37324 0.30808 0.0
H1523 H 0.30804 0.48708 0.32406 0.0
H1524 H 0.26547 0.46883 0.32835 0.0
H1525 H 0.28056 0.47404 0.30492 0.0
C1526 C 0.51555 0.86927 0.27241 0.0
C1527 C 0.49652 0.87854 0.28239 0.0
C1528 C 0.53957 0.86551 0.28125 0.0
C1529 C 0.54459 0.87059 0.30067 0.0
C1530 C 0.5249 0.87902 0.31091 0.0
C1531 C 0.50139 0.88308 0.30169 0.0
C1532 C 0.56013 0.8568 0.26968 0.0
C1533 C 0.52868 0.88384 0.33166 0.0
C1534 C 0.59433 0.83901 0.32392 0.0
C1535 C 0.62471 0.866 0.32508 0.0
C1536 C 0.56769 0.84031 0.3168 0.0
C1537 C 0.57175 0.86904 0.30994 0.0
C1538 C 0.6024 0.89634 0.31119 0.0
C1539 C 0.62836 0.89448 0.31877 0.0
C1540 C 0.5354 0.81077 0.31627 0.0
C1541 C 0.60804 0.92746 0.30402 0.0
H1542 H 0.51177 0.86498 0.2576 0.0
H1543 H 0.48731 0.89058 0.30965 0.0
H1544 H 0.58563 0.87564 0.27057 0.0
H1545 H 0.55868 0.83512 0.27518 0.0
H1546 H 0.55285 0.85305 0.25482 0.0
H1547 H 0.51316 0.89252 0.33747 0.0
H1548 H 0.52221 0.86126 0.33845 0.0
H1549 H 0.55401 0.90074 0.33527 0.0
H1550 H 0.59142 0.81675 0.32829 0.0
H1551 H 0.65186 0.91534 0.31942 0.0
H1552 H 0.52838 0.80347 0.30163 0.0
H1553 H 0.5168 0.81503 0.32247 0.0
H1554 H 0.5355 0.79122 0.32389 0.0
H1555 H 0.60273 0.92569 0.2889 0.0
H1556 H 0.63313 0.94659 0.30628 0.0
H1557 H 0.59157 0.93385 0.31102 0.0
C1558 C 0.09556 0.61698 0.27901 0.0
C1559 C 0.11977 0.60965 0.27579 0.0
C1560 C 0.10226 0.64458 0.28832 0.0
C1561 C 0.13403 0.6655 0.29426 0.0
C1562 C 0.15869 0.65847 0.29072 0.0
C1563 C 0.15119 0.63044 0.28165 0.0
C1564 C 0.07526 0.65109 0.29208 0.0
C1565 C 0.19294 0.68051 0.29656 0.0
C1566 C 0.15467 0.74914 0.30377 0.0
C1567 C 0.1532 0.74937 0.32322 0.0
C1568 C 0.14912 0.72216 0.29416 0.0
C1569 C 0.14135 0.69466 0.30428 0.0
C1570 C 0.13986 0.69483 0.32396 0.0
C1571 C 0.146 0.72234 0.3332 0.0
C1572 C 0.15152 0.72308 0.2732 0.0
C1573 C 0.13114 0.66582 0.33521 0.0
H1574 H 0.07119 0.60069 0.27465 0.0
H1575 H 0.16992 0.62479 0.27904 0.0
H1576 H 0.07292 0.65335 0.30728 0.0
H1577 H 0.08066 0.67363 0.28563 0.0
H1578 H 0.05188 0.63234 0.28662 0.0
H1579 H 0.20944 0.672 0.29229 0.0
H1580 H 0.20149 0.70398 0.29037 0.0
H1581 H 0.19427 0.68346 0.31189 0.0
H1582 H 0.16058 0.77024 0.29607 0.0
H1583 H 0.14415 0.72235 0.34817 0.0
H1584 H 0.12802 0.70598 0.26706 0.0
H1585 H 0.16919 0.71621 0.26869 0.0
H1586 H 0.15886 0.74665 0.26749 0.0
H1587 H 0.10669 0.64694 0.33136 0.0
H1588 H 0.13173 0.6701 0.35042 0.0
H1589 H 0.14793 0.65718 0.33207 0.0
C1590 C 0.86223 0.04291 0.4057 0.0
C1591 C 0.85247 0.06328 0.41283 0.0
C1592 C 0.84004 0.01442 0.3973 0.0
C1593 C 0.80746 0.00646 0.39566 0.0
C1594 C 0.79758 0.02711 0.40274 0.0
C1595 C 0.82014 0.05512 0.4114 0.0
C1596 C 0.85141 0.99279 0.39024 0.0
C1597 C 0.76324 0.01982 0.40095 0.0
C1598 C 0.7569 0.94794 0.35817 0.0
C1599 C 0.73859 0.92073 0.36858 0.0
C1600 C 0.77933 0.97602 0.3668 0.0
C1601 C 0.78378 0.97675 0.38632 0.0
C1602 C 0.76529 0.94919 0.39689 0.0
C1603 C 0.74264 0.92157 0.3879 0.0
C1604 C 0.798 0.00498 0.35505 0.0
C1605 C 0.76964 0.94879 0.41766 0.0
H1606 H 0.88719 0.04912 0.40692 0.0
H1607 H 0.81263 0.07101 0.41675 0.0
H1608 H 0.83736 0.96945 0.39686 0.0
H1609 H 0.84735 0.98935 0.37503 0.0
H1610 H 0.8773 0.00195 0.39308 0.0
H1611 H 0.7595 0.03846 0.40703 0.0
H1612 H 0.75621 0.01695 0.38607 0.0
H1613 H 0.74693 0.99739 0.40801 0.0
H1614 H 0.75308 0.9475 0.34334 0.0
H1615 H 0.72852 0.90041 0.39593 0.0
H1616 H 0.82413 0.01407 0.35663 0.0
H1617 H 0.7932 0.02364 0.35985 0.0
H1618 H 0.79174 0.00045 0.34006 0.0
H1619 H 0.79494 0.9559 0.42088 0.0
H1620 H 0.75375 0.92533 0.42381 0.0
H1621 H 0.76446 0.96596 0.42449 0.0
C1622 C 0.95072 0.78501 0.38847 0.0
C1623 C 0.95061 0.78902 0.40784 0.0
C1624 C 0.97833 0.78921 0.37909 0.0
C1625 C 0.00667 0.79729 0.38924 0.0
C1626 C 0.00696 0.8019 0.40872 0.0
C1627 C 0.97915 0.79793 0.41772 0.0
C1628 C 0.97709 0.7848 0.35828 0.0
C1629 C 0.03653 0.81036 0.42017 0.0
C1630 C 0.06589 0.77349 0.37106 0.0
C1631 C 0.09163 0.80208 0.36501 0.0
C1632 C 0.03789 0.77154 0.37846 0.0
C1633 C 0.03529 0.79886 0.37982 0.0
C1634 C 0.06078 0.82766 0.37309 0.0
C1635 C 0.08884 0.82903 0.3661 0.0
C1636 C 0.01149 0.74033 0.38543 0.0
C1637 C 0.0589 0.85726 0.3738 0.0
H1638 H 0.92893 0.77783 0.38059 0.0
H1639 H 0.97981 0.8018 0.43259 0.0
H1640 H 0.99454 0.8072 0.35159 0.0
H1641 H 0.9841 0.76721 0.35454 0.0
H1642 H 0.95288 0.77716 0.35247 0.0
H1643 H 0.03324 0.81394 0.43508 0.0
H1644 H 0.04261 0.79147 0.41909 0.0
H1645 H 0.05731 0.83207 0.41471 0.0
H1646 H 0.06805 0.75265 0.37044 0.0
H1647 H 0.10884 0.85134 0.36189 0.0
H1648 H 0.98843 0.73432 0.3786 0.0
H1649 H 0.00823 0.74174 0.40061 0.0
H1650 H 0.0167 0.72111 0.38282 0.0
H1651 H 0.0357 0.85306 0.36801 0.0
H1652 H 0.07874 0.87667 0.36593 0.0
H1653 H 0.06013 0.86474 0.38847 0.0
C1654 C 0.22564 0.16273 0.39547 0.0
C1655 C 0.216 0.15555 0.41407 0.0
C1656 C 0.21979 0.18375 0.38544 0.0
C1657 C 0.20359 0.1976 0.39418 0.0
C1658 C 0.19331 0.19002 0.41288 0.0
C1659 C 0.19989 0.16924 0.42266 0.0
C1660 C 0.23159 0.19167 0.36564 0.0
C1661 C 0.17564 0.20409 0.42258 0.0
C1662 C 0.21711 0.27569 0.37663 0.0
C1663 C 0.18948 0.26669 0.36592 0.0
C1664 C 0.2222 0.25336 0.38561 0.0
C1665 C 0.19886 0.22126 0.38409 0.0
C1666 C 0.17106 0.21195 0.37312 0.0
C1667 C 0.1668 0.23481 0.36404 0.0
C1668 C 0.25243 0.26419 0.39692 0.0
C1669 C 0.14548 0.17796 0.37133 0.0
H1670 H 0.23839 0.15237 0.38888 0.0
H1671 H 0.19218 0.16344 0.43699 0.0
H1672 H 0.21141 0.18696 0.35622 0.0
H1673 H 0.24945 0.21699 0.36456 0.0
H1674 H 0.2429 0.1781 0.3607 0.0
H1675 H 0.16783 0.19453 0.43681 0.0
H1676 H 0.19135 0.22985 0.4236 0.0
H1677 H 0.1542 0.19958 0.41438 0.0
H1678 H 0.23483 0.30028 0.37806 0.0
H1679 H 0.14527 0.22773 0.3559 0.0
H1680 H 0.26555 0.25237 0.392 0.0
H1681 H 0.24618 0.25769 0.41172 0.0
H1682 H 0.26877 0.28992 0.39608 0.0
H1683 H 0.15609 0.16407 0.36593 0.0
H1684 H 0.12565 0.17459 0.36193 0.0
H1685 H 0.13527 0.16843 0.38523 0.0
C1686 C 0.64896 0.51998 0.75013 0.0
C1687 C 0.61993 0.49971 0.74113 0.0
C1688 C 0.67562 0.5426 0.74017 0.0
C1689 C 0.6735 0.54484 0.72064 0.0
C1690 C 0.64457 0.52411 0.71137 0.0
C1691 C 0.61809 0.50198 0.72172 0.0
C1692 C 0.70597 0.56441 0.75063 0.0
C1693 C 0.64161 0.52533 0.69053 0.0
C1694 C 0.73165 0.62492 0.70102 0.0
C1695 C 0.75749 0.62117 0.69564 0.0
C1696 C 0.7035 0.59983 0.70833 0.0
C1697 C 0.70108 0.57014 0.71023 0.0
C1698 C 0.72642 0.56578 0.7038 0.0
C1699 C 0.7546 0.59152 0.6969 0.0
C1700 C 0.67716 0.6056 0.71504 0.0
C1701 C 0.72456 0.53438 0.70508 0.0
H1702 H 0.65098 0.51807 0.76502 0.0
H1703 H 0.59578 0.48671 0.71458 0.0
H1704 H 0.7264 0.56239 0.74511 0.0
H1705 H 0.71183 0.58901 0.74857 0.0
H1706 H 0.70385 0.55943 0.76579 0.0
H1707 H 0.61708 0.50849 0.68548 0.0
H1708 H 0.64781 0.54924 0.68608 0.0
H1709 H 0.65889 0.51984 0.68369 0.0
H1710 H 0.73402 0.64795 0.70022 0.0
H1711 H 0.77471 0.58858 0.69321 0.0
H1712 H 0.67506 0.60305 0.73039 0.0
H1713 H 0.65375 0.588 0.70904 0.0
H1714 H 0.68175 0.62935 0.71133 0.0
H1715 H 0.72708 0.52932 0.71981 0.0
H1716 H 0.74376 0.53372 0.69684 0.0
H1717 H 0.70091 0.5155 0.70008 0.0
C1718 C 0.50683 0.11657 0.72136 0.0
C1719 C 0.5113 0.1207 0.74071 0.0
C1720 C 0.48341 0.1207 0.71209 0.0
C1721 C 0.46343 0.12872 0.72236 0.0
C1722 C 0.46803 0.13335 0.74182 0.0
C1723 C 0.492 0.1296 0.75069 0.0
C1724 C 0.48013 0.11652 0.69128 0.0
C1725 C 0.44713 0.14163 0.75338 0.0
C1726 C 0.41443 0.16148 0.69982 0.0
C1727 C 0.38393 0.13471 0.6984 0.0
C1728 C 0.44091 0.1597 0.70665 0.0
C1729 C 0.43658 0.13064 0.71302 0.0
C1730 C 0.40588 0.10349 0.71145 0.0
C1731 C 0.38006 0.10586 0.70411 0.0
C1732 C 0.47329 0.18914 0.70751 0.0
C1733 C 0.4 0.07204 0.71813 0.0
H1734 H 0.52118 0.1094 0.7134 0.0
H1735 H 0.49553 0.13364 0.76553 0.0
H1736 H 0.45481 0.10014 0.68736 0.0
H1737 H 0.48723 0.13942 0.6847 0.0
H1738 H 0.49545 0.1076 0.6855 0.0
H1739 H 0.45391 0.14476 0.76832 0.0
H1740 H 0.44883 0.16357 0.74816 0.0
H1741 H 0.42165 0.12289 0.75213 0.0
H1742 H 0.41761 0.18402 0.69603 0.0
H1743 H 0.35646 0.08515 0.7033 0.0
H1744 H 0.49192 0.18498 0.70128 0.0
H1745 H 0.48007 0.19596 0.72224 0.0
H1746 H 0.47343 0.209 0.70012 0.0
H1747 H 0.41671 0.06597 0.71112 0.0
H1748 H 0.37499 0.05304 0.71548 0.0
H1749 H 0.40478 0.07311 0.73329 0.0
C1750 C 0.90146 0.39419 0.7299 0.0
C1751 C 0.89045 0.39334 0.74805 0.0
C1752 C 0.89533 0.36661 0.7208 0.0
C1753 C 0.87743 0.33757 0.73003 0.0
C1754 C 0.86606 0.33657 0.74832 0.0
C1755 C 0.87294 0.36458 0.75719 0.0
C1756 C 0.90823 0.36858 0.7014 0.0
C1757 C 0.84653 0.30593 0.75847 0.0
C1758 C 0.83755 0.26414 0.70046 0.0
C1759 C 0.85857 0.25246 0.7028 0.0
C1760 C 0.84333 0.2918 0.70929 0.0
C1761 C 0.87091 0.30823 0.7206 0.0
C1762 C 0.89236 0.29669 0.7229 0.0
C1763 C 0.88581 0.2688 0.71405 0.0
C1764 C 0.81975 0.30324 0.70666 0.0
C1765 C 0.92225 0.31385 0.73466 0.0
H1766 H 0.91528 0.41653 0.72293 0.0
H1767 H 0.86423 0.36399 0.77117 0.0
H1768 H 0.92435 0.35853 0.7012 0.0
H1769 H 0.88821 0.35456 0.69165 0.0
H1770 H 0.92177 0.39305 0.69621 0.0
H1771 H 0.83898 0.30917 0.7725 0.0
H1772 H 0.82478 0.2902 0.75028 0.0
H1773 H 0.8607 0.29393 0.76001 0.0
H1774 H 0.81624 0.25142 0.69195 0.0
H1775 H 0.90219 0.25994 0.71587 0.0
H1776 H 0.83211 0.32714 0.70063 0.0
H1777 H 0.80989 0.30472 0.72033 0.0
H1778 H 0.79948 0.28768 0.69739 0.0
H1779 H 0.93741 0.33806 0.7294 0.0
H1780 H 0.93675 0.30201 0.73474 0.0
H1781 H 0.91563 0.31565 0.7492 0.0
C1782 C 0.18885 0.94964 0.61245 0.0
C1783 C 0.15633 0.941 0.61152 0.0
C1784 C 0.21145 0.97778 0.62091 0.0
C1785 C 0.20138 0.998 0.62842 0.0
C1786 C 0.16863 0.98961 0.62731 0.0
C1787 C 0.14643 0.96106 0.61899 0.0
C1788 C 0.24604 0.98564 0.62207 0.0
C1789 C 0.15706 0.01076 0.63495 0.0
C1790 C 0.25315 0.05549 0.6659 0.0
C1791 C 0.27075 0.08303 0.65568 0.0
C1792 C 0.23037 0.02768 0.65723 0.0
C1793 C 0.22503 0.02754 0.63784 0.0
C1794 C 0.24285 0.05544 0.62744 0.0
C1795 C 0.26575 0.08285 0.63649 0.0
C1796 C 0.21231 0.99836 0.66877 0.0
C1797 C 0.2376 0.05638 0.60681 0.0
H1798 H 0.1965 0.93399 0.60687 0.0
H1799 H 0.12134 0.95453 0.61816 0.0
H1800 H 0.26181 0.00842 0.6152 0.0
H1801 H 0.25358 0.98806 0.63684 0.0
H1802 H 0.25 0.9675 0.61543 0.0
H1803 H 0.13104 0.00134 0.63242 0.0
H1804 H 0.16155 0.01387 0.65014 0.0
H1805 H 0.17066 0.03428 0.62849 0.0
H1806 H 0.25779 0.05548 0.6806 0.0
H1807 H 0.27936 0.10431 0.62863 0.0
H1808 H 0.21727 0.98004 0.66354 0.0
H1809 H 0.18609 0.98902 0.6675 0.0
H1810 H 0.21896 0.00256 0.68372 0.0
H1811 H 0.24288 0.03969 0.59947 0.0
H1812 H 0.25293 0.0801 0.60084 0.0
H1813 H 0.21208 0.04896 0.60405 0.0
C1814 C 0.05091 0.1998 0.63502 0.0
C1815 C 0.05959 0.2149 0.61754 0.0
C1816 C 0.02407 0.19634 0.645 0.0
C1817 C 0.00383 0.20631 0.63697 0.0
C1818 C 0.01155 0.22051 0.6192 0.0
C1819 C 0.0397 0.22568 0.61013 0.0
C1820 C 0.01804 0.18295 0.66443 0.0
C1821 C 0.98997 0.23029 0.60961 0.0
C1822 C 0.91744 0.17248 0.65384 0.0
C1823 C 0.91847 0.19877 0.662 0.0
C1824 C 0.94515 0.17424 0.64604 0.0
C1825 C 0.97493 0.20266 0.64713 0.0
C1826 C 0.9763 0.22864 0.65646 0.0
C1827 C 0.94784 0.22679 0.663 0.0
C1828 C 0.94196 0.14639 0.63545 0.0
C1829 C 0.00768 0.25871 0.65916 0.0
H1830 H 0.06487 0.19044 0.64113 0.0
H1831 H 0.04581 0.23846 0.59718 0.0
H1832 H 0.02237 0.2017 0.67451 0.0
H1833 H 0.99274 0.16414 0.66615 0.0
H1834 H 0.03397 0.17346 0.66806 0.0
H1835 H 0.99661 0.23654 0.5948 0.0
H1836 H 0.96457 0.21114 0.61025 0.0
H1837 H 0.99151 0.2509 0.61677 0.0
H1838 H 0.89456 0.15113 0.65237 0.0
H1839 H 0.94857 0.24728 0.66905 0.0
H1840 H 0.96018 0.1404 0.64015 0.0
H1841 H 0.94632 0.15234 0.62045 0.0
H1842 H 0.91777 0.12538 0.63704 0.0
H1843 H 0.02683 0.25372 0.66346 0.0
H1844 H 0.00568 0.27397 0.66981 0.0
H1845 H 0.01521 0.27182 0.64587 0.0
C1846 C 0.777 0.83462 0.62929 0.0
C1847 C 0.78769 0.84341 0.61098 0.0
C1848 C 0.78313 0.81345 0.6389 0.0
C1849 C 0.80072 0.80117 0.63004 0.0
C1850 C 0.81182 0.8102 0.61159 0.0
C1851 C 0.80492 0.83106 0.6022 0.0
C1852 C 0.77042 0.80391 0.65843 0.0
C1853 C 0.83099 0.79783 0.6018 0.0
C1854 C 0.83947 0.76586 0.66 0.0
C1855 C 0.81811 0.73376 0.6576 0.0
C1856 C 0.83412 0.78816 0.65114 0.0
C1857 C 0.80655 0.77803 0.63983 0.0
C1858 C 0.78457 0.74567 0.6377 0.0
C1859 C 0.79075 0.72392 0.64651 0.0
C1860 C 0.85827 0.82249 0.65356 0.0
C1861 C 0.75463 0.734 0.62601 0.0
H1862 H 0.76344 0.84402 0.63599 0.0
H1863 H 0.81343 0.83815 0.5881 0.0
H1864 H 0.75376 0.77826 0.65899 0.0
H1865 H 0.79044 0.80932 0.66816 0.0
H1866 H 0.7575 0.81594 0.6634 0.0
H1867 H 0.83883 0.80805 0.5877 0.0
H1868 H 0.85254 0.80309 0.61013 0.0
H1869 H 0.81639 0.772 0.60045 0.0
H1870 H 0.86082 0.77359 0.66843 0.0
H1871 H 0.77405 0.69915 0.64468 0.0
H1872 H 0.84631 0.83504 0.65912 0.0
H1873 H 0.86867 0.83302 0.63986 0.0
H1874 H 0.87812 0.82644 0.66312 0.0
H1875 H 0.74018 0.74441 0.631 0.0
H1876 H 0.7394 0.70809 0.62635 0.0
H1877 H 0.76128 0.74146 0.61136 0.0
C1878 C 0.05538 0.83493 0.63504 0.0
C1879 C 0.05406 0.83739 0.61561 0.0
C1880 C 0.02861 0.81279 0.64518 0.0
C1881 C 0.99986 0.79226 0.6357 0.0
C1882 C 0.9981 0.795 0.61618 0.0
C1883 C 0.02509 0.81759 0.60641 0.0
C1884 C 0.03119 0.81114 0.66603 0.0
C1885 C 0.96792 0.77346 0.60551 0.0
C1886 C 0.94296 0.71134 0.65484 0.0
C1887 C 0.91688 0.71439 0.66064 0.0
C1888 C 0.97065 0.73687 0.64744 0.0
C1889 C 0.97239 0.7663 0.64585 0.0
C1890 C 0.94676 0.76993 0.65261 0.0
C1891 C 0.91905 0.74376 0.65962 0.0
C1892 C 0.99737 0.73191 0.64044 0.0
C1893 C 0.94783 0.80099 0.65164 0.0
H1894 H 0.07762 0.84979 0.64235 0.0
H1895 H 0.02349 0.81965 0.5915 0.0
H1896 H 0.01371 0.8164 0.67282 0.0
H1897 H 0.02503 0.78717 0.67031 0.0
H1898 H 0.0556 0.82795 0.67127 0.0
H1899 H 0.97007 0.77924 0.59046 0.0
H1900 H 0.96245 0.74889 0.60704 0.0
H1901 H 0.94725 0.7748 0.61126 0.0
H1902 H 0.94116 0.68854 0.65545 0.0
H1903 H 0.89876 0.74618 0.66364 0.0
H1904 H 0.02059 0.7494 0.6467 0.0
H1905 H 0.99967 0.73529 0.62514 0.0
H1906 H 0.99311 0.7081 0.64366 0.0
H1907 H 0.97141 0.82017 0.65651 0.0
H1908 H 0.9286 0.80112 0.66014 0.0
H1909 H 0.94477 0.80606 0.63699 0.0
C1910 C 0.19609 0.22449 0.60841 0.0
C1911 C 0.16557 0.21413 0.61636 0.0
C1912 C 0.21919 0.21918 0.61705 0.0
C1913 C 0.21313 0.20536 0.63492 0.0
C1914 C 0.18302 0.19557 0.64338 0.0
C1915 C 0.15945 0.19916 0.63383 0.0
C1916 C 0.25019 0.22843 0.60691 0.0
C1917 C 0.17595 0.18254 0.66288 0.0
C1918 C 0.26472 0.17157 0.65225 0.0
C1919 C 0.29091 0.19805 0.66009 0.0
C1920 C 0.23908 0.17344 0.64412 0.0
C1921 C 0.23879 0.20207 0.64476 0.0
C1922 C 0.26447 0.22835 0.65363 0.0
C1923 C 0.29089 0.22642 0.66033 0.0
C1924 C 0.2132 0.14524 0.63403 0.0
C1925 C 0.26419 0.25862 0.65597 0.0
H1926 H 0.20259 0.23709 0.5954 0.0
H1927 H 0.13621 0.19003 0.64032 0.0
H1928 H 0.27016 0.24953 0.61347 0.0
H1929 H 0.25611 0.2094 0.60775 0.0
H1930 H 0.24897 0.23372 0.59202 0.0
H1931 H 0.14983 0.16995 0.66597 0.0
H1932 H 0.18536 0.16645 0.66538 0.0
H1933 H 0.18804 0.20226 0.67284 0.0
H1934 H 0.26515 0.14985 0.6515 0.0
H1935 H 0.31135 0.247 0.66618 0.0
H1936 H 0.21215 0.15138 0.6193 0.0
H1937 H 0.18943 0.13791 0.6403 0.0
H1938 H 0.21737 0.12502 0.63439 0.0
H1939 H 0.26883 0.2708 0.64241 0.0
H1940 H 0.28273 0.2746 0.66601 0.0
H1941 H 0.2403 0.25387 0.66091 0.0
C1942 C 0.77912 0.94449 0.62863 0.0
C1943 C 0.7897 0.94535 0.61037 0.0
C1944 C 0.78537 0.97203 0.6378 0.0
C1945 C 0.80287 0.00107 0.62852 0.0
C1946 C 0.81389 0.00211 0.61013 0.0
C1947 C 0.80697 0.97414 0.60122 0.0
C1948 C 0.77292 0.97003 0.65733 0.0
C1949 C 0.83295 0.03275 0.59991 0.0
C1950 C 0.7934 0.06903 0.64485 0.0
C1951 C 0.82083 0.08576 0.6559 0.0
C1952 C 0.7872 0.04132 0.6359 0.0
C1953 C 0.80915 0.03032 0.63794 0.0
C1954 C 0.83695 0.04718 0.64902 0.0
C1955 C 0.84244 0.0747 0.6579 0.0
C1956 C 0.75713 0.02376 0.62433 0.0
C1957 C 0.86102 0.03628 0.6514 0.0
H1958 H 0.76548 0.92214 0.63563 0.0
H1959 H 0.81538 0.97477 0.58715 0.0
H1960 H 0.7931 0.98447 0.6669 0.0
H1961 H 0.75638 0.97958 0.65769 0.0
H1962 H 0.75996 0.94561 0.66264 0.0
H1963 H 0.84041 0.02956 0.58584 0.0
H1964 H 0.81845 0.04443 0.59846 0.0
H1965 H 0.85474 0.04874 0.608 0.0
H1966 H 0.77659 0.07744 0.64328 0.0
H1967 H 0.86393 0.08777 0.66621 0.0
H1968 H 0.7423 0.99958 0.62971 0.0
H1969 H 0.76354 0.02189 0.60976 0.0
H1970 H 0.74236 0.03532 0.62433 0.0
H1971 H 0.84912 0.01238 0.65742 0.0
H1972 H 0.88134 0.05206 0.66058 0.0
H1973 H 0.87075 0.03502 0.63764 0.0
C1974 C 0.51086 0.39219 0.72826 0.0
C1975 C 0.52276 0.39268 0.74615 0.0
C1976 C 0.48809 0.36399 0.71994 0.0
C1977 C 0.47703 0.33549 0.72968 0.0
C1978 C 0.48923 0.33574 0.74765 0.0
C1979 C 0.51186 0.36436 0.75572 0.0
C1980 C 0.47551 0.36476 0.70081 0.0
C1981 C 0.47828 0.30577 0.75838 0.0
C1982 C 0.39644 0.26663 0.71521 0.0
C1983 C 0.40585 0.24989 0.70353 0.0
C1984 C 0.41936 0.29438 0.72395 0.0
C1985 C 0.45248 0.30551 0.72106 0.0
C1986 C 0.4621 0.28844 0.7095 0.0
C1987 C 0.43871 0.26089 0.70088 0.0
C1988 C 0.40814 0.31204 0.73607 0.0
C1989 C 0.49713 0.29935 0.70613 0.0
H1990 H 0.51885 0.41405 0.72092 0.0
H1991 H 0.52119 0.3646 0.76947 0.0
H1992 H 0.47995 0.34985 0.69111 0.0
H1993 H 0.44916 0.35507 0.70141 0.0
H1994 H 0.48682 0.38884 0.69502 0.0
H1995 H 0.49055 0.30989 0.77203 0.0
H1996 H 0.45201 0.29403 0.76079 0.0
H1997 H 0.48295 0.28942 0.75016 0.0
H1998 H 0.37114 0.25827 0.71737 0.0
H1999 H 0.44626 0.24786 0.69214 0.0
H2000 H 0.41697 0.33586 0.73035 0.0
H2001 H 0.41827 0.31487 0.75027 0.0
H2002 H 0.38156 0.30002 0.73713 0.0
H2003 H 0.50886 0.32265 0.69933 0.0
H2004 H 0.50057 0.28287 0.6972 0.0
H2005 H 0.50957 0.30201 0.71957 0.0
C2006 C 0.61718 0.11799 0.7209 0.0
C2007 C 0.61694 0.12144 0.74032 0.0
C2008 C 0.64495 0.12285 0.71144 0.0
C2009 C 0.6733 0.13093 0.72157 0.0
C2010 C 0.67346 0.13493 0.74111 0.0
C2011 C 0.64551 0.13043 0.75018 0.0
C2012 C 0.64391 0.11925 0.69057 0.0
C2013 C 0.70301 0.14325 0.75253 0.0
C2014 C 0.73293 0.10806 0.703 0.0
C2015 C 0.7588 0.13694 0.69746 0.0
C2016 C 0.70473 0.10572 0.71032 0.0
C2017 C 0.70204 0.13294 0.71207 0.0
C2018 C 0.72758 0.16203 0.70575 0.0
C2019 C 0.75588 0.16377 0.69887 0.0
C2020 C 0.67827 0.07422 0.71688 0.0
C2021 C 0.72553 0.19152 0.70679 0.0
H2022 H 0.59539 0.11075 0.71301 0.0
H2023 H 0.64611 0.13393 0.76508 0.0
H2024 H 0.66044 0.14226 0.68417 0.0
H2025 H 0.65224 0.10283 0.68639 0.0
H2026 H 0.61947 0.11066 0.68483 0.0
H2027 H 0.69959 0.14628 0.76751 0.0
H2028 H 0.70931 0.12455 0.75116 0.0
H2029 H 0.72372 0.16523 0.74729 0.0
H2030 H 0.7352 0.0873 0.70213 0.0
H2031 H 0.77594 0.1863 0.69511 0.0
H2032 H 0.65532 0.06839 0.70997 0.0
H2033 H 0.67471 0.07505 0.73208 0.0
H2034 H 0.68362 0.05516 0.71402 0.0
H2035 H 0.70258 0.18749 0.7007 0.0
H2036 H 0.7457 0.21136 0.69936 0.0
H2037 H 0.72599 0.19827 0.72155 0.0
C2038 C 0.87285 0.5064 0.75558 0.0
C2039 C 0.89023 0.49418 0.74686 0.0
C2040 C 0.86539 0.52678 0.74606 0.0
C2041 C 0.87606 0.53541 0.72751 0.0
C2042 C 0.89375 0.52321 0.71868 0.0
C2043 C 0.90047 0.50257 0.72844 0.0
C2044 C 0.84617 0.5391 0.75583 0.0
C2045 C 0.90597 0.53231 0.69903 0.0
C2046 C 0.83624 0.56964 0.6975 0.0
C2047 C 0.85754 0.60183 0.69958 0.0
C2048 C 0.84197 0.54766 0.70647 0.0
C2049 C 0.8698 0.55819 0.71759 0.0
C2050 C 0.89169 0.59062 0.71941 0.0
C2051 C 0.88519 0.61206 0.71048 0.0
C2052 C 0.81794 0.51323 0.70434 0.0
C2053 C 0.92189 0.60273 0.73092 0.0
H2054 H 0.86466 0.49962 0.76976 0.0
H2055 H 0.91417 0.49329 0.72176 0.0
H2056 H 0.86059 0.56497 0.75697 0.0
H2057 H 0.82441 0.53345 0.74761 0.0
H2058 H 0.83866 0.52917 0.77002 0.0
H2059 H 0.91887 0.52026 0.69406 0.0
H2060 H 0.8857 0.52659 0.68943 0.0
H2061 H 0.92253 0.55797 0.69824 0.0
H2062 H 0.81468 0.56161 0.68922 0.0
H2063 H 0.90184 0.63689 0.71206 0.0
H2064 H 0.80782 0.50299 0.71814 0.0
H2065 H 0.82995 0.50068 0.69885 0.0
H2066 H 0.79789 0.50893 0.69486 0.0
H2067 H 0.91556 0.59555 0.74563 0.0
H2068 H 0.93695 0.62864 0.73039 0.0
H2069 H 0.93639 0.59239 0.72593 0.0
C2070 C 0.4582 0.9428 0.2219 0.0
C2071 C 0.46354 0.91808 0.22647 0.0
C2072 C 0.46602 0.9569 0.20418 0.0
C2073 C 0.47943 0.94605 0.19052 0.0
C2074 C 0.48418 0.92064 0.19489 0.0
C2075 C 0.47631 0.90709 0.21276 0.0
C2076 C 0.46073 0.98404 0.20024 0.0
C2077 C 0.4981 0.90805 0.18078 0.0
C2078 C 0.47917 0.97028 0.13984 0.0
C2079 C 0.51033 0.99603 0.13789 0.0
C2080 C 0.46891 0.95343 0.15671 0.0
C2081 C 0.49021 0.9625 0.1721 0.0
C2082 C 0.52189 0.98793 0.17004 0.0
C2083 C 0.53154 0.00416 0.15303 0.0
C2084 C 0.43503 0.92633 0.15819 0.0
C2085 C 0.54553 0.99845 0.18595 0.0
H2086 H 0.44869 0.95175 0.23238 0.0
H2087 H 0.48012 0.88772 0.21599 0.0
H2088 H 0.48412 0.00546 0.19755 0.0
H2089 H 0.44585 0.9793 0.18756 0.0
H2090 H 0.44873 0.98878 0.21197 0.0
H2091 H 0.49867 0.88711 0.18595 0.0
H2092 H 0.48385 0.90175 0.16775 0.0
H2093 H 0.52294 0.92639 0.17724 0.0
H2094 H 0.46243 0.96382 0.12836 0.0
H2095 H 0.55588 0.0235 0.15165 0.0
H2096 H 0.42157 0.93175 0.16867 0.0
H2097 H 0.43521 0.90506 0.16302 0.0
H2098 H 0.42199 0.92103 0.14473 0.0
H2099 H 0.53616 0.00573 0.19789 0.0
H2100 H 0.56942 0.01833 0.18206 0.0
H2101 H 0.54864 0.97875 0.19074 0.0
C2102 C 0.07531 0.51664 0.21046 0.0
C2103 C 0.06731 0.53149 0.22439 0.0
C2104 C 0.05891 0.50829 0.19339 0.0
C2105 C 0.03402 0.51511 0.19012 0.0
C2106 C 0.02568 0.5299 0.20416 0.0
C2107 C 0.04233 0.5378 0.22113 0.0
C2108 C 0.06846 0.4925 0.17877 0.0
C2109 C 0.99929 0.53757 0.2012 0.0
C2110 C 0.01206 0.52138 0.14017 0.0
C2111 C 0.98401 0.49241 0.1376 0.0
C2112 C 0.02863 0.52903 0.15717 0.0
C2113 C 0.01693 0.50713 0.17194 0.0
C2114 C 0.98872 0.47779 0.16941 0.0
C2115 C 0.97255 0.47082 0.15228 0.0
C2116 C 0.0585 0.56064 0.15937 0.0
C2117 C 0.97566 0.45374 0.18478 0.0
H2118 H 0.09484 0.51204 0.21276 0.0
H2119 H 0.03566 0.54882 0.23192 0.0
H2120 H 0.04734 0.46989 0.17464 0.0
H2121 H 0.07707 0.50734 0.16614 0.0
H2122 H 0.08769 0.48801 0.18369 0.0
H2123 H 0.9957 0.54907 0.21352 0.0
H2124 H 0.00504 0.55333 0.18904 0.0
H2125 H 0.97636 0.51588 0.19808 0.0
H2126 H 0.02082 0.5383 0.12894 0.0
H2127 H 0.95112 0.44824 0.15028 0.0
H2128 H 0.07915 0.55767 0.16323 0.0
H2129 H 0.0551 0.57384 0.17079 0.0
H2130 H 0.06465 0.57486 0.14646 0.0
H2131 H 0.99407 0.44773 0.1891 0.0
H2132 H 0.95364 0.43192 0.18052 0.0
H2133 H 0.96998 0.46355 0.19714 0.0
C2134 C 0.47155 0.55429 0.21079 0.0
C2135 C 0.45948 0.53187 0.22507 0.0
C2136 C 0.47959 0.54741 0.1933 0.0
C2137 C 0.47552 0.51734 0.18992 0.0
C2138 C 0.46273 0.49439 0.20413 0.0
C2139 C 0.45488 0.50191 0.2215 0.0
C2140 C 0.49294 0.57251 0.17853 0.0
C2141 C 0.45806 0.46208 0.20114 0.0
C2142 C 0.47437 0.49061 0.13995 0.0
C2143 C 0.50575 0.49594 0.13787 0.0
C2144 C 0.46423 0.49763 0.15672 0.0
C2145 C 0.48595 0.51032 0.17183 0.0
C2146 C 0.51774 0.51613 0.16974 0.0
C2147 C 0.52723 0.50893 0.15283 0.0
C2148 C 0.43014 0.49111 0.15836 0.0
C2149 C 0.54175 0.52984 0.18542 0.0
H2150 H 0.47472 0.57734 0.21331 0.0
H2151 H 0.4459 0.48453 0.23247 0.0
H2152 H 0.51775 0.57832 0.17493 0.0
H2153 H 0.47835 0.56387 0.16566 0.0
H2154 H 0.49343 0.59427 0.18309 0.0
H2155 H 0.44648 0.44644 0.21324 0.0
H2156 H 0.44306 0.45118 0.18862 0.0
H2157 H 0.48163 0.46376 0.19863 0.0
H2158 H 0.45748 0.4803 0.12857 0.0
H2159 H 0.55167 0.51367 0.15129 0.0
H2160 H 0.43003 0.5128 0.16232 0.0
H2161 H 0.4175 0.47369 0.16953 0.0
H2162 H 0.41648 0.48201 0.14519 0.0
H2163 H 0.54481 0.55281 0.18963 0.0
H2164 H 0.56561 0.53314 0.18154 0.0
H2165 H 0.53276 0.51425 0.19774 0.0
C2166 C 0.92636 0.48112 0.81599 0.0
C2167 C 0.93509 0.46678 0.80212 0.0
C2168 C 0.94238 0.48946 0.83317 0.0
C2169 C 0.96764 0.48321 0.83656 0.0
C2170 C 0.97652 0.46871 0.82264 0.0
C2171 C 0.96024 0.4608 0.80557 0.0
C2172 C 0.93227 0.50491 0.84771 0.0
C2173 C 1.00332 0.46165 0.82573 0.0
C2174 C 0.02985 0.52843 0.87381 0.0
C2175 C 0.01923 0.50681 0.88847 0.0
C2176 C 0.01294 0.52128 0.85694 0.0
C2177 C 0.98486 0.49175 0.85467 0.0
C2178 C 0.9739 0.46992 0.86946 0.0
C2179 C 0.9912 0.47773 0.88619 0.0
C2180 C 0.02522 0.54523 0.84151 0.0
C2181 C 0.9442 0.4381 0.86752 0.0
H2182 H 0.90676 0.48553 0.81347 0.0
H2183 H 0.96754 0.45027 0.79481 0.0
H2184 H 0.92434 0.49037 0.86048 0.0
H2185 H 0.95298 0.52796 0.85161 0.0
H2186 H 0.91243 0.50848 0.84281 0.0
H2187 H 0.00699 0.44991 0.81356 0.0
H2188 H 0.02608 0.48365 0.82859 0.0
H2189 H 0.99799 0.44634 0.83808 0.0
H2190 H 0.05126 0.55108 0.8756 0.0
H2191 H 0.98309 0.46082 0.89742 0.0
H2192 H 0.00624 0.55044 0.83717 0.0
H2193 H 0.03134 0.53572 0.82918 0.0
H2194 H 0.04684 0.56747 0.8457 0.0
H2195 H 0.92336 0.44069 0.86354 0.0
H2196 H 0.93826 0.42425 0.88056 0.0
H2197 H 0.94774 0.42473 0.85626 0.0
C2198 C 0.57706 0.49287 0.81043 0.0
C2199 C 0.55293 0.46804 0.79999 0.0
C2200 C 0.57036 0.50193 0.82764 0.0
C2201 C 0.5393 0.48451 0.83543 0.0
C2202 C 0.51536 0.45828 0.82569 0.0
C2203 C 0.52205 0.45111 0.80791 0.0
C2204 C 0.59647 0.53062 0.83728 0.0
C2205 C 0.48246 0.43778 0.83397 0.0
C2206 C 0.53151 0.49709 0.88716 0.0
C2207 C 0.51558 0.51454 0.88689 0.0
C2208 C 0.53836 0.48621 0.87064 0.0
C2209 C 0.53121 0.49468 0.85323 0.0
C2210 C 0.51599 0.51287 0.85273 0.0
C2211 C 0.5073 0.52144 0.86943 0.0
C2212 C 0.55342 0.46577 0.872 0.0
C2213 C 0.50921 0.52375 0.83452 0.0
H2214 H 0.60138 0.50565 0.80521 0.0
H2215 H 0.50258 0.43237 0.80026 0.0
H2216 H 0.58738 0.54643 0.84149 0.0
H2217 H 0.60409 0.52359 0.85007 0.0
H2218 H 0.6179 0.54392 0.8283 0.0
H2219 H 0.4684 0.41561 0.82609 0.0
H2220 H 0.48458 0.43199 0.84863 0.0
H2221 H 0.46882 0.45042 0.83397 0.0
H2222 H 0.53903 0.4919 0.9002 0.0
H2223 H 0.49392 0.53364 0.86854 0.0
H2224 H 0.57974 0.48034 0.87007 0.0
H2225 H 0.54398 0.44736 0.8611 0.0
H2226 H 0.54906 0.45428 0.88582 0.0
H2227 H 0.53118 0.53486 0.82579 0.0
H2228 H 0.50082 0.54082 0.83657 0.0
H2229 H 0.49053 0.50346 0.82667 0.0
C2230 C 0.56782 0.08905 0.80991 0.0
C2231 C 0.54354 0.07985 0.79643 0.0
C2232 C 0.56124 0.07545 0.82778 0.0
C2233 C 0.52953 0.0521 0.83246 0.0
C2234 C 0.50488 0.04292 0.81901 0.0
C2235 C 0.51217 0.05672 0.80122 0.0
C2236 C 0.5883 0.0859 0.84161 0.0
C2237 C 0.47075 0.01816 0.82332 0.0
C2238 C 0.5141 0.99233 0.87057 0.0
C2239 C 0.50368 0.0034 0.88549 0.0
C2240 C 0.52343 0.0084 0.85351 0.0
C2241 C 0.52221 0.0363 0.85111 0.0
C2242 C 0.51261 0.04814 0.86629 0.0
C2243 C 0.50361 0.03166 0.88329 0.0
C2244 C 0.5339 0.99507 0.83788 0.0
C2245 C 0.51083 0.0777 0.86437 0.0
H2246 H 0.59205 0.10717 0.80656 0.0
H2247 H 0.49324 0.04892 0.79093 0.0
H2248 H 0.58262 0.09466 0.85444 0.0
H2249 H 0.59115 0.06572 0.84567 0.0
H2250 H 0.61152 0.10465 0.83598 0.0
H2251 H 0.45407 0.01455 0.81167 0.0
H2252 H 0.46966 0.99559 0.82632 0.0
H2253 H 0.46222 0.02479 0.83593 0.0
H2254 H 0.51475 0.97081 0.87221 0.0
H2255 H 0.49542 0.04032 0.89466 0.0
H2256 H 0.55782 0.01301 0.83265 0.0
H2257 H 0.51679 0.98838 0.82611 0.0
H2258 H 0.5352 0.97413 0.84226 0.0
H2259 H 0.53405 0.09713 0.85927 0.0
H2260 H 0.50481 0.08489 0.87773 0.0
H2261 H 0.49228 0.07406 0.85393 0.0
C2262 C 0.12005 0.26579 0.55333 0.0
C2263 C 0.1247 0.24074 0.55814 0.0
C2264 C 0.12846 0.27978 0.53564 0.0
C2265 C 0.14178 0.26845 0.52225 0.0
C2266 C 0.14534 0.24235 0.52673 0.0
C2267 C 0.13692 0.22892 0.54461 0.0
C2268 C 0.12441 0.30764 0.53159 0.0
C2269 C 0.15901 0.22923 0.51282 0.0
C2270 C 0.14543 0.29653 0.4722 0.0
C2271 C 0.17697 0.32193 0.47117 0.0
C2272 C 0.13389 0.27824 0.48848 0.0
C2273 C 0.15423 0.28556 0.5042 0.0
C2274 C 0.18633 0.31054 0.50303 0.0
C2275 C 0.19729 0.32819 0.48658 0.0
C2276 C 0.09963 0.25165 0.48902 0.0
C2277 C 0.20894 0.31925 0.51938 0.0
H2278 H 0.11104 0.27541 0.56371 0.0
H2279 H 0.14025 0.20936 0.54807 0.0
H2280 H 0.14832 0.32878 0.5296 0.0
H2281 H 0.11069 0.30385 0.51852 0.0
H2282 H 0.1118 0.31234 0.543 0.0
H2283 H 0.15751 0.2072 0.51777 0.0
H2284 H 0.14609 0.22459 0.49937 0.0
H2285 H 0.18457 0.24663 0.51014 0.0
H2286 H 0.12938 0.2915 0.4605 0.0
H2287 H 0.22191 0.3472 0.48586 0.0
H2288 H 0.08566 0.25722 0.49905 0.0
H2289 H 0.09873 0.2299 0.49392 0.0
H2290 H 0.08779 0.24712 0.4752 0.0
H2291 H 0.19948 0.32656 0.53126 0.0
H2292 H 0.23345 0.33864 0.51606 0.0
H2293 H 0.21066 0.29868 0.52397 0.0
C2294 C 0.71947 0.87968 0.55262 0.0
C2295 C 0.74395 0.87271 0.55603 0.0
C2296 C 0.70315 0.87223 0.53558 0.0
C2297 C 0.71123 0.85711 0.52165 0.0
C2298 C 0.73577 0.84982 0.52498 0.0
C2299 C 0.75192 0.8578 0.54213 0.0
C2300 C 0.67717 0.88046 0.53253 0.0
C2301 C 0.74494 0.83361 0.51044 0.0
C2302 C 0.64794 0.81336 0.48469 0.0
C2303 C 0.6591 0.83491 0.47 0.0
C2304 C 0.66506 0.82 0.50146 0.0
C2305 C 0.69386 0.84897 0.5036 0.0
C2306 C 0.70538 0.8707 0.48875 0.0
C2307 C 0.68788 0.86337 0.4721 0.0
C2308 C 0.65222 0.79613 0.51693 0.0
C2309 C 0.73583 0.90195 0.49057 0.0
H2310 H 0.71271 0.89063 0.56341 0.0
H2311 H 0.77101 0.85262 0.54459 0.0
H2312 H 0.68288 0.89571 0.52012 0.0
H2313 H 0.65393 0.85889 0.52979 0.0
H2314 H 0.6742 0.89271 0.54467 0.0
H2315 H 0.76427 0.82924 0.5153 0.0
H2316 H 0.72369 0.81089 0.5066 0.0
H2317 H 0.75321 0.84805 0.49764 0.0
H2318 H 0.62592 0.79117 0.483 0.0
H2319 H 0.69641 0.8802 0.46083 0.0
H2320 H 0.64662 0.80609 0.52925 0.0
H2321 H 0.67068 0.7902 0.52126 0.0
H2322 H 0.63016 0.77424 0.51278 0.0
H2323 H 0.73303 0.91585 0.50179 0.0
H2324 H 0.74213 0.91572 0.47747 0.0
H2325 H 0.75613 0.89849 0.49453 0.0
C2326 C 0.10195 0.84824 0.54582 0.0
C2327 C 0.12591 0.864 0.55928 0.0
C2328 C 0.10933 0.84069 0.52831 0.0
C2329 C 0.14145 0.84917 0.52411 0.0
C2330 C 0.16567 0.86489 0.53767 0.0
C2331 C 0.1576 0.87195 0.55507 0.0
C2332 C 0.0828 0.82382 0.51426 0.0
C2333 C 0.20021 0.87432 0.53381 0.0
C2334 C 0.16113 0.80748 0.48626 0.0
C2335 C 0.17146 0.82928 0.47168 0.0
C2336 C 0.15031 0.81319 0.50316 0.0
C2337 C 0.14994 0.8415 0.50564 0.0
C2338 C 0.15952 0.86324 0.49079 0.0
C2339 C 0.17008 0.85684 0.47399 0.0
C2340 C 0.13999 0.78924 0.51854 0.0
C2341 C 0.15964 0.89375 0.49287 0.0
H2342 H 0.07747 0.84228 0.54885 0.0
H2343 H 0.17621 0.88359 0.56546 0.0
H2344 H 0.08795 0.83836 0.50157 0.0
H2345 H 0.08156 0.80162 0.51001 0.0
H2346 H 0.05899 0.81839 0.51977 0.0
H2347 H 0.21625 0.88679 0.54574 0.0
H2348 H 0.20206 0.85328 0.53062 0.0
H2349 H 0.20897 0.8898 0.52143 0.0
H2350 H 0.16163 0.78591 0.48447 0.0
H2351 H 0.17825 0.87391 0.46285 0.0
H2352 H 0.11562 0.78284 0.52348 0.0
H2353 H 0.15654 0.79936 0.53055 0.0
H2354 H 0.13981 0.76761 0.51403 0.0
H2355 H 0.13577 0.88932 0.4976 0.0
H2356 H 0.16582 0.90724 0.47968 0.0
H2357 H 0.17735 0.90837 0.50365 0.0
C2358 C 0.62525 0.83124 0.13871 0.0
C2359 C 0.59826 0.80135 0.13673 0.0
C2360 C 0.64305 0.84008 0.15528 0.0
C2361 C 0.63345 0.81856 0.17021 0.0
C2362 C 0.60573 0.78864 0.16844 0.0
C2363 C 0.58852 0.78035 0.15168 0.0
C2364 C 0.6726 0.87211 0.15663 0.0
C2365 C 0.59455 0.76519 0.18414 0.0
C2366 C 0.69511 0.82629 0.20588 0.0
C2367 C 0.68843 0.84043 0.22081 0.0
C2368 C 0.67775 0.81954 0.18921 0.0
C2369 C 0.65294 0.8269 0.18748 0.0
C2370 C 0.6463 0.84151 0.2024 0.0
C2371 C 0.66424 0.84825 0.21885 0.0
C2372 C 0.68557 0.80403 0.17356 0.0
C2373 C 0.61996 0.84961 0.20107 0.0
H2374 H 0.63301 0.84737 0.12709 0.0
H2375 H 0.56745 0.75735 0.15023 0.0
H2376 H 0.67094 0.88479 0.16894 0.0
H2377 H 0.69415 0.8697 0.15854 0.0
H2378 H 0.67609 0.88651 0.14404 0.0
H2379 H 0.5718 0.74341 0.18079 0.0
H2380 H 0.61321 0.75892 0.1873 0.0
H2381 H 0.59091 0.77562 0.19694 0.0
H2382 H 0.71345 0.8198 0.20737 0.0
H2383 H 0.65929 0.85966 0.23021 0.0
H2384 H 0.69095 0.81815 0.16067 0.0
H2385 H 0.6645 0.78068 0.17059 0.0
H2386 H 0.70641 0.80099 0.17685 0.0
H2387 H 0.62437 0.86536 0.18906 0.0
H2388 H 0.61807 0.86123 0.21386 0.0
H2389 H 0.59657 0.82805 0.19864 0.0
C2390 C 0.24225 0.814 0.14793 0.0
C2391 C 0.21858 0.80068 0.13407 0.0
C2392 C 0.23521 0.82152 0.16555 0.0
C2393 C 0.2037 0.81537 0.16946 0.0
C2394 C 0.17971 0.80176 0.15558 0.0
C2395 C 0.18748 0.79483 0.13808 0.0
C2396 C 0.26148 0.83619 0.17995 0.0
C2397 C 0.14579 0.79473 0.15914 0.0
C2398 C 0.17309 0.80824 0.21904 0.0
C2399 C 0.17374 0.8368 0.22133 0.0
C2400 C 0.18378 0.80133 0.20246 0.0
C2401 C 0.19564 0.8236 0.18787 0.0
C2402 C 0.19745 0.85293 0.1904 0.0
C2403 C 0.18635 0.8591 0.20704 0.0
C2404 C 0.18117 0.76969 0.20029 0.0
C2405 C 0.21029 0.87748 0.1753 0.0
H2406 H 0.26625 0.81833 0.14507 0.0
H2407 H 0.16915 0.78517 0.12739 0.0
H2408 H 0.26489 0.85928 0.18422 0.0
H2409 H 0.25455 0.82129 0.19257 0.0
H2410 H 0.28473 0.83951 0.17476 0.0
H2411 H 0.12969 0.78315 0.14709 0.0
H2412 H 0.13577 0.77929 0.17146 0.0
H2413 H 0.14575 0.81674 0.16225 0.0
H2414 H 0.16318 0.79083 0.22998 0.0
H2415 H 0.18738 0.88141 0.20885 0.0
H2416 H 0.20448 0.77244 0.19576 0.0
H2417 H 0.16328 0.75614 0.18933 0.0
H2418 H 0.17374 0.75594 0.21339 0.0
H2419 H 0.23421 0.88198 0.17063 0.0
H2420 H 0.21246 0.89993 0.17997 0.0
H2421 H 0.19407 0.8689 0.16307 0.0
C2422 C 0.22341 0.4036 0.13854 0.0
C2423 C 0.21842 0.42851 0.13392 0.0
C2424 C 0.21496 0.3892 0.15612 0.0
C2425 C 0.20124 0.39996 0.16962 0.0
C2426 C 0.19722 0.42585 0.16531 0.0
C2427 C 0.2057 0.4397 0.14753 0.0
C2428 C 0.21951 0.36158 0.15998 0.0
C2429 C 0.18309 0.43837 0.17932 0.0
C2430 C 0.1465 0.33948 0.20524 0.0
C2431 C 0.16694 0.34598 0.22062 0.0
C2432 C 0.15716 0.35725 0.18881 0.0
C2433 C 0.18906 0.3826 0.18763 0.0
C2434 C 0.20951 0.39013 0.20332 0.0
C2435 C 0.19828 0.37173 0.21956 0.0
C2436 C 0.13444 0.3483 0.17251 0.0
C2437 C 0.24358 0.4171 0.20276 0.0
H2438 H 0.23279 0.39444 0.1281 0.0
H2439 H 0.20208 0.45915 0.14422 0.0
H2440 H 0.23335 0.36543 0.173 0.0
H2441 H 0.19577 0.34023 0.16197 0.0
H2442 H 0.23222 0.35723 0.14848 0.0
H2443 H 0.184 0.46018 0.17446 0.0
H2444 H 0.15769 0.42054 0.18204 0.0
H2445 H 0.19613 0.4432 0.19274 0.0
H2446 H 0.12203 0.32019 0.20597 0.0
H2447 H 0.21445 0.37696 0.23123 0.0
H2448 H 0.1441 0.34134 0.16056 0.0
H2449 H 0.13227 0.36867 0.168 0.0
H2450 H 0.1101 0.32861 0.17582 0.0
H2451 H 0.25772 0.41195 0.19263 0.0
H2452 H 0.25553 0.42167 0.21655 0.0
H2453 H 0.24404 0.43871 0.19799 0.0
C2454 C 0.82322 0.58704 0.88379 0.0
C2455 C 0.79223 0.57419 0.89162 0.0
C2456 C 0.83017 0.59986 0.86574 0.0
C2457 C 0.80644 0.60231 0.85546 0.0
C2458 C 0.77505 0.58897 0.86288 0.0
C2459 C 0.76811 0.57422 0.88043 0.0
C2460 C 0.86333 0.61142 0.85786 0.0
C2461 C 0.74889 0.59111 0.85256 0.0
C2462 C 0.8397 0.67229 0.82256 0.0
C2463 C 0.83199 0.65846 0.80473 0.0
C2464 C 0.83045 0.65428 0.83892 0.0
C2465 C 0.81531 0.62126 0.83784 0.0
C2466 C 0.80899 0.60693 0.82004 0.0
C2467 C 0.81643 0.6255 0.80383 0.0
C2468 C 0.83643 0.67083 0.85744 0.0
C2469 C 0.79401 0.57195 0.81785 0.0
H2470 H 0.84275 0.58811 0.8918 0.0
H2471 H 0.74364 0.56329 0.88534 0.0
H2472 H 0.86188 0.60476 0.84299 0.0
H2473 H 0.87747 0.63731 0.8587 0.0
H2474 H 0.87653 0.60185 0.86559 0.0
H2475 H 0.7268 0.58273 0.86105 0.0
H2476 H 0.7574 0.61568 0.84833 0.0
H2477 H 0.7426 0.57677 0.83973 0.0
H2478 H 0.85302 0.69746 0.82403 0.0
H2479 H 0.80961 0.61375 0.79052 0.0
H2480 H 0.85539 0.66906 0.86517 0.0
H2481 H 0.81433 0.65962 0.86606 0.0
H2482 H 0.84416 0.69602 0.85584 0.0
H2483 H 0.79951 0.56111 0.82976 0.0
H2484 H 0.80241 0.56611 0.80486 0.0
H2485 H 0.76758 0.56128 0.81678 0.0
C2486 C 0.38213 0.21002 0.88705 0.0
C2487 C 0.40681 0.20341 0.89063 0.0
C2488 C 0.366 0.20237 0.86995 0.0
C2489 C 0.37447 0.1874 0.85612 0.0
C2490 C 0.39912 0.18034 0.85966 0.0
C2491 C 0.41508 0.18853 0.87686 0.0
C2492 C 0.3399 0.21036 0.86667 0.0
C2493 C 0.40871 0.16428 0.84524 0.0
C2494 C 0.31217 0.14377 0.81864 0.0
C2495 C 0.32361 0.16545 0.80402 0.0
C2496 C 0.32889 0.15032 0.83556 0.0
C2497 C 0.35754 0.17934 0.83792 0.0
C2498 C 0.36934 0.20122 0.82315 0.0
C2499 C 0.35226 0.19397 0.80636 0.0
C2500 C 0.31576 0.1263 0.85094 0.0
C2501 C 0.39964 0.23253 0.82521 0.0
H2502 H 0.37513 0.22095 0.89773 0.0
H2503 H 0.43433 0.18363 0.87945 0.0
H2504 H 0.34584 0.22579 0.85433 0.0
H2505 H 0.31684 0.18873 0.8637 0.0
H2506 H 0.33646 0.22234 0.8788 0.0
H2507 H 0.42787 0.15982 0.85032 0.0
H2508 H 0.38756 0.14163 0.84119 0.0
H2509 H 0.4174 0.17889 0.83252 0.0
H2510 H 0.29026 0.12155 0.81679 0.0
H2511 H 0.361 0.21091 0.79513 0.0
H2512 H 0.30977 0.13608 0.8632 0.0
H2513 H 0.3342 0.12045 0.85544 0.0
H2514 H 0.29387 0.1044 0.84663 0.0
H2515 H 0.3965 0.24623 0.83642 0.0
H2516 H 0.40617 0.24646 0.81217 0.0
H2517 H 0.41994 0.22916 0.82931 0.0
C2518 C 0.7709 0.18151 0.8795 0.0
C2519 C 0.79498 0.19744 0.89287 0.0
C2520 C 0.7782 0.17414 0.8619 0.0
C2521 C 0.81035 0.18292 0.85754 0.0
C2522 C 0.83469 0.19886 0.871 0.0
C2523 C 0.82672 0.20579 0.88847 0.0
C2524 C 0.75154 0.15709 0.84795 0.0
C2525 C 0.86925 0.20857 0.86698 0.0
C2526 C 0.82981 0.14124 0.81952 0.0
C2527 C 0.83982 0.16293 0.80488 0.0
C2528 C 0.81923 0.14701 0.8365 0.0
C2529 C 0.81872 0.17524 0.839 0.0
C2530 C 0.82798 0.19687 0.82412 0.0
C2531 C 0.83835 0.19044 0.80724 0.0
C2532 C 0.80929 0.12317 0.85192 0.0
C2533 C 0.8279 0.22729 0.82621 0.0
H2534 H 0.74638 0.17523 0.88268 0.0
H2535 H 0.84542 0.21758 0.89879 0.0
H2536 H 0.75651 0.1715 0.83522 0.0
H2537 H 0.75033 0.13488 0.84374 0.0
H2538 H 0.72776 0.15163 0.85354 0.0
H2539 H 0.8854 0.22121 0.87884 0.0
H2540 H 0.8713 0.18764 0.86377 0.0
H2541 H 0.87773 0.22398 0.85457 0.0
H2542 H 0.83034 0.11968 0.81771 0.0
H2543 H 0.84627 0.20745 0.79608 0.0
H2544 H 0.7849 0.11656 0.85694 0.0
H2545 H 0.82592 0.13349 0.86388 0.0
H2546 H 0.80932 0.10164 0.84743 0.0
H2547 H 0.80404 0.22272 0.83102 0.0
H2548 H 0.83386 0.24071 0.81299 0.0
H2549 H 0.84569 0.24203 0.83692 0.0
C2550 C 0.28952 0.16033 0.47206 0.0
C2551 C 0.26251 0.1306 0.46958 0.0
C2552 C 0.30674 0.16849 0.48885 0.0
C2553 C 0.29651 0.14646 0.50354 0.0
C2554 C 0.26881 0.11665 0.50125 0.0
C2555 C 0.25223 0.10903 0.48426 0.0
C2556 C 0.3363 0.20041 0.49072 0.0
C2557 C 0.25693 0.09266 0.51667 0.0
C2558 C 0.35746 0.15422 0.53986 0.0
C2559 C 0.35059 0.16852 0.55464 0.0
C2560 C 0.34017 0.14711 0.52312 0.0
C2561 C 0.31526 0.15427 0.52114 0.0
C2562 C 0.30818 0.16869 0.53598 0.0
C2563 C 0.326 0.17575 0.55251 0.0
C2564 C 0.34845 0.13175 0.50759 0.0
C2565 C 0.28172 0.17659 0.53441 0.0
H2566 H 0.29773 0.17693 0.46066 0.0
H2567 H 0.23114 0.08614 0.48244 0.0
H2568 H 0.33404 0.2128 0.50299 0.0
H2569 H 0.35768 0.19785 0.49301 0.0
H2570 H 0.34051 0.21516 0.4782 0.0
H2571 H 0.23434 0.071 0.51289 0.0
H2572 H 0.27545 0.0863 0.52004 0.0
H2573 H 0.25267 0.10264 0.52946 0.0
H2574 H 0.37607 0.14813 0.54146 0.0
H2575 H 0.32085 0.18722 0.56375 0.0
H2576 H 0.35465 0.14626 0.49482 0.0
H2577 H 0.32734 0.10863 0.50424 0.0
H2578 H 0.36892 0.12829 0.51121 0.0
H2579 H 0.2867 0.19293 0.52264 0.0
H2580 H 0.27904 0.18751 0.54729 0.0
H2581 H 0.25856 0.15508 0.53142 0.0
C2582 C 0.88839 0.1672 0.47052 0.0
C2583 C 0.88452 0.13761 0.46667 0.0
C2584 C 0.88002 0.17397 0.48797 0.0
C2585 C 0.86755 0.15064 0.50198 0.0
C2586 C 0.86444 0.12102 0.49834 0.0
C2587 C 0.87291 0.11487 0.48078 0.0
C2588 C 0.88364 0.20581 0.49123 0.0
C2589 C 0.85151 0.09555 0.5129 0.0
C2590 C 0.86607 0.17529 0.55217 0.0
C2591 C 0.8342 0.16866 0.55401 0.0
C2592 C 0.87725 0.1694 0.5354 0.0
C2593 C 0.85612 0.15662 0.52004 0.0
C2594 C 0.82387 0.14955 0.52188 0.0
C2595 C 0.81332 0.15555 0.53879 0.0
C2596 C 0.91177 0.17716 0.53406 0.0
C2597 C 0.80046 0.13576 0.50591 0.0
H2598 H 0.89705 0.18482 0.45969 0.0
H2599 H 0.87033 0.09211 0.47804 0.0
H2600 H 0.85968 0.20336 0.49351 0.0
H2601 H 0.89807 0.21659 0.50394 0.0
H2602 H 0.89533 0.22193 0.47933 0.0
H2603 H 0.85216 0.07439 0.50825 0.0
H2604 H 0.86559 0.1043 0.52593 0.0
H2605 H 0.82632 0.08868 0.51624 0.0
H2606 H 0.88252 0.18572 0.56373 0.0
H2607 H 0.78851 0.14978 0.54013 0.0
H2608 H 0.9243 0.19505 0.52311 0.0
H2609 H 0.91289 0.15604 0.52994 0.0
H2610 H 0.92492 0.18617 0.54738 0.0
H2611 H 0.80947 0.15173 0.49376 0.0
H2612 H 0.77621 0.13162 0.50957 0.0
H2613 H 0.79828 0.1132 0.50155 0.0
C2614 C 0.84525 0.72564 0.46849 0.0
C2615 C 0.87684 0.74836 0.4638 0.0
C2616 C 0.83761 0.71158 0.48621 0.0
C2617 C 0.86211 0.72006 0.49968 0.0
C2618 C 0.89403 0.743 0.49509 0.0
C2619 C 0.90097 0.75688 0.4773 0.0
C2620 C 0.80325 0.68728 0.49042 0.0
C2621 C 0.92096 0.7527 0.50895 0.0
C2622 C 0.83595 0.69923 0.55045 0.0
C2623 C 0.83535 0.67062 0.55247 0.0
C2624 C 0.84521 0.71592 0.53352 0.0
C2625 C 0.85441 0.70394 0.51824 0.0
C2626 C 0.85492 0.67565 0.52044 0.0
C2627 C 0.84534 0.65937 0.53743 0.0
C2628 C 0.84416 0.74589 0.53181 0.0
C2629 C 0.86494 0.66214 0.50469 0.0
H2630 H 0.82641 0.71835 0.45819 0.0
H2631 H 0.92538 0.77467 0.47403 0.0
H2632 H 0.80158 0.6644 0.49325 0.0
H2633 H 0.79496 0.69398 0.5031 0.0
H2634 H 0.78674 0.68425 0.47878 0.0
H2635 H 0.94438 0.77122 0.50341 0.0
H2636 H 0.9155 0.76148 0.52185 0.0
H2637 H 0.92325 0.73214 0.51286 0.0
H2638 H 0.82809 0.70803 0.56191 0.0
H2639 H 0.84547 0.63757 0.53892 0.0
H2640 H 0.82579 0.7428 0.52138 0.0
H2641 H 0.86759 0.76509 0.52679 0.0
H2642 H 0.83833 0.75308 0.54522 0.0
H2643 H 0.8479 0.65598 0.49292 0.0
H2644 H 0.86565 0.64083 0.50891 0.0
H2645 H 0.88903 0.67979 0.49952 0.0
loop_
_geom_bond_atom_site_label_1
_geom_bond_atom_site_label_2
_geom_bond_distance
_geom_bond_site_symmetry_2
_ccdc_geom_bond_type
H0 C3 0.931 . S
H1 C6 0.928 . S
H2 C8 0.930 . S
C3 H0 0.931 . S
C3 C4 1.413 . S
C3 C5 1.360 . S
C4 C3 1.413 . S
C4 C8 1.429 . S
C5 C3 1.360 . S
C5 C6 1.372 . S
C6 H1 0.928 . S
C6 C5 1.372 . S
C6 C7 1.404 . S
C7 C6 1.404 . S
C7 C8 1.391 . S
C8 H2 0.930 . S
C8 C4 1.429 . S
C8 C7 1.391 . S
H9 C12 0.931 . S
H10 C15 0.928 . S
H11 C17 0.930 . S
C12 H9 0.931 . S
C12 C13 1.413 . S
C12 C14 1.360 . S
C13 C12 1.413 . S
C13 C17 1.429 . S
C14 C12 1.360 . S
C14 C15 1.372 . S
C15 H10 0.928 . S
C15 C14 1.372 . S
C15 C16 1.404 . S
C16 C15 1.404 . S
C16 C17 1.391 . S
C17 H11 0.930 . S
C17 C13 1.429 . S
C17 C16 1.391 . S
H18 C21 0.931 . S
H19 C24 0.928 . S
H20 C26 0.930 . S
C21 H18 0.931 . S
C21 C22 1.413 . S
C21 C23 1.360 . S
C22 C21 1.413 . S
C22 C26 1.429 . S
C23 C21 1.360 . S
C23 C24 1.372 . S
C24 H19 0.928 . S
C24 C23 1.372 . S
C24 C25 1.404 . S
C25 C24 1.404 . S
C25 C26 1.391 . S
C26 H20 0.930 . S
C26 C22 1.429 . S
C26 C25 1.391 . S
H27 C30 0.931 . S
H28 C33 0.928 . S
H29 C35 0.930 . S
C30 H27 0.931 . S
C30 C31 1.413 . S
C30 C32 1.360 . S
C31 C30 1.413 . S
C31 C35 1.429 . S
C32 C30 1.360 . S
C32 C33 1.372 . S
C33 H28 0.928 . S
C33 C32 1.372 . S
C33 C34 1.404 . S
C34 C33 1.404 . S
C34 C35 1.391 . S
C35 H29 0.930 . S
C35 C31 1.429 . S
C35 C34 1.391 . S
H36 C39 0.931 . S
H37 C42 0.928 . S
H38 C44 0.930 . S
C39 H36 0.931 . S
C39 C40 1.413 . S
C39 C41 1.360 . S
C40 C39 1.413 . S
C40 C44 1.429 . S
C41 C39 1.360 . S
C41 C42 1.372 . S
C42 H37 0.928 . S
C42 C41 1.372 . S
C42 C43 1.404 . S
C43 C42 1.404 . S
C43 C44 1.391 . S
C44 H38 0.930 . S
C44 C40 1.429 . S
C44 C43 1.391 . S
H45 C48 0.931 . S
H46 C51 0.928 . S
H47 C53 0.930 . S
C48 H45 0.931 . S
C48 C49 1.413 . S
C48 C50 1.360 . S
C49 C48 1.413 . S
C49 C53 1.429 . S
C50 C48 1.360 . S
C50 C51 1.372 . S
C51 H46 0.928 . S
C51 C50 1.372 . S
C51 C52 1.404 . S
C52 C51 1.404 . S
C52 C53 1.391 . S
C53 H47 0.930 . S
C53 C49 1.429 . S
C53 C52 1.391 . S
H54 C57 0.931 . S
H55 C60 0.928 . S
H56 C62 0.930 . S
C57 H54 0.931 . S
C57 C58 1.413 . S
C57 C59 1.360 . S
C58 C57 1.413 . S
C58 C62 1.429 . S
C59 C57 1.360 . S
C59 C60 1.372 . S
C60 H55 0.928 . S
C60 C59 1.372 . S
C60 C61 1.404 . S
C61 C60 1.404 . S
C61 C62 1.391 . S
C62 H56 0.930 . S
C62 C58 1.429 . S
C62 C61 1.391 . S
H63 C66 0.931 . S
H64 C69 0.928 . S
H65 C71 0.930 . S
C66 H63 0.931 . S
C66 C67 1.413 . S
C66 C68 1.360 . S
C67 C66 1.413 . S
C67 C71 1.429 . S
C68 C66 1.360 . S
C68 C69 1.372 . S
C69 H64 0.928 . S
C69 C68 1.372 . S
C69 C70 1.404 . S
C70 C69 1.404 . S
C70 C71 1.391 . S
C71 H65 0.930 . S
C71 C67 1.429 . S
C71 C70 1.391 . S
H72 C75 0.931 . S
H73 C78 0.928 . S
H74 C80 0.930 . S
C75 H72 0.931 . S
C75 C76 1.413 . S
C75 C77 1.360 . S
C76 C75 1.413 . S
C76 C80 1.429 . S
C77 C75 1.360 . S
C77 C78 1.372 . S
C78 H73 0.928 . S
C78 C77 1.372 . S
C78 C79 1.404 . S
C79 C78 1.404 . S
C79 C80 1.391 . S
C80 H74 0.930 . S
C80 C76 1.429 . S
C80 C79 1.391 . S
H81 C84 0.931 . S
H82 C87 0.928 . S
H83 C89 0.930 . S
C84 H81 0.931 . S
C84 C85 1.413 . S
C84 C86 1.360 . S
C85 C84 1.413 . S
C85 C89 1.429 . S
C86 C84 1.360 . S
C86 C87 1.372 . S
C87 H82 0.928 . S
C87 C86 1.372 . S
C87 C88 1.404 . S
C88 C87 1.404 . S
C88 C89 1.391 . S
C89 H83 0.930 . S
C89 C85 1.429 . S
C89 C88 1.391 . S
H90 C93 0.931 . S
H91 C96 0.928 . S
H92 C98 0.930 . S
C93 H90 0.931 . S
C93 C94 1.413 . S
C93 C95 1.360 . S
C94 C93 1.413 . S
C94 C98 1.429 . S
C95 C93 1.360 . S
C95 C96 1.372 . S
C96 H91 0.928 . S
C96 C95 1.372 . S
C96 C97 1.404 . S
C97 C96 1.404 . S
C97 C98 1.391 . S
C98 H92 0.930 . S
C98 C94 1.429 . S
C98 C97 1.391 . S
H99 C102 0.931 . S
H100 C105 0.928 . S
H101 C107 0.930 . S
C102 H99 0.931 . S
C102 C103 1.413 . S
C102 C104 1.360 . S
C103 C102 1.413 . S
C103 C107 1.429 . S
C104 C102 1.360 . S
C104 C105 1.372 . S
C105 H100 0.928 . S
C105 C104 1.372 . S
C105 C106 1.404 . S
C106 C105 1.404 . S
C106 C107 1.391 . S
C107 H101 0.930 . S
C107 C103 1.429 . S
C107 C106 1.391 . S
H108 C111 0.931 . S
H109 C114 0.928 . S
H110 C116 0.930 . S
C111 H108 0.931 . S
C111 C112 1.413 . S
C111 C113 1.360 . S
C112 C111 1.413 . S
C112 C116 1.429 . S
C113 C111 1.360 . S
C113 C114 1.372 . S
C114 H109 0.928 . S
C114 C113 1.372 . S
C114 C115 1.404 . S
C115 C114 1.404 . S
C115 C116 1.391 . S
C116 H110 0.930 . S
C116 C112 1.429 . S
C116 C115 1.391 . S
H117 C120 0.931 . S
H118 C123 0.928 . S
H119 C125 0.930 . S
C120 H117 0.931 . S
C120 C121 1.413 . S
C120 C122 1.360 . S
C121 C120 1.413 . S
C121 C125 1.429 . S
C122 C120 1.360 . S
C122 C123 1.372 . S
C123 H118 0.928 . S
C123 C122 1.372 . S
C123 C124 1.404 . S
C124 C123 1.404 . S
C124 C125 1.391 . S
C125 H119 0.930 . S
C125 C121 1.429 . S
C125 C124 1.391 . S
H126 C129 0.931 . S
H127 C132 0.928 . S
H128 C134 0.930 . S
C129 H126 0.931 . S
C129 C130 1.413 . S
C129 C131 1.360 . S
C130 C129 1.413 . S
C130 C134 1.429 . S
C131 C129 1.360 . S
C131 C132 1.372 . S
C132 H127 0.928 . S
C132 C131 1.372 . S
C132 C133 1.404 . S
C133 C132 1.404 . S
C133 C134 1.391 . S
C134 H128 0.930 . S
C134 C130 1.429 . S
C134 C133 1.391 . S
H135 C138 0.931 . S
H136 C141 0.928 . S
H137 C143 0.930 . S
C138 H135 0.931 . S
C138 C139 1.413 . S
C138 C140 1.360 . S
C139 C138 1.413 . S
C139 C143 1.429 . S
C140 C138 1.360 . S
C140 C141 1.372 . S
C141 H136 0.928 . S
C141 C140 1.372 . S
C141 C142 1.404 . S
C142 C141 1.404 . S
C142 C143 1.391 . S
C143 H137 0.930 . S
C143 C139 1.429 . S
C143 C142 1.391 . S
H144 C147 0.931 . S
H145 C150 0.928 . S
H146 C152 0.930 . S
C147 H144 0.931 . S
C147 C148 1.413 . S
C147 C149 1.360 . S
C148 C147 1.413 . S
C148 C152 1.429 . S
C149 C147 1.360 . S
C149 C150 1.372 . S
C150 H145 0.928 . S
C150 C149 1.372 . S
C150 C151 1.404 . S
C151 C150 1.404 . S
C151 C152 1.391 . S
C152 H146 0.930 . S
C152 C148 1.429 . S
C152 C151 1.391 . S
H153 C156 0.931 . S
H154 C159 0.928 . S
H155 C161 0.930 . S
C156 H153 0.931 . S
C156 C157 1.413 . S
C156 C158 1.360 . S
C157 C156 1.413 . S
C157 C161 1.429 . S
C158 C156 1.360 . S
C158 C159 1.372 . S
C159 H154 0.928 . S
C159 C158 1.372 . S
C159 C160 1.404 . S
C160 C159 1.404 . S
C160 C161 1.391 . S
C161 H155 0.930 . S
C161 C157 1.429 . S
C161 C160 1.391 . S
Tb162 N193 2.660 . S
Tb162 N200 2.600 . S
Tb162 O206 2.546 . S
Tb162 O207 2.608 1_566 S
Tb162 O209 2.320 1_565 S
Tb162 O210 2.552 1_565 S
Tb162 O211 2.413 . S
Tb162 O213 2.362 1_556 S
Tb162 O214 2.457 . S
Tb162 C226 2.833 . S
C163 C166 1.432 . S
C163 C167 1.414 . S
C163 N170 1.359 . S
C164 C166 1.417 . S
C164 C168 1.432 . S
C164 C176 1.410 . S
C165 C167 1.444 . S
C165 C168 1.317 . S
C165 H188 0.929 . S
C166 C163 1.432 . S
C166 C164 1.417 . S
C166 N174 1.360 . S
C167 C163 1.414 . S
C167 C165 1.444 . S
C167 C172 1.385 . S
C168 C164 1.432 . S
C168 C165 1.317 . S
C168 H180 0.930 . S
C169 C171 1.392 . S
C169 C172 1.370 . S
C169 H181 0.931 . S
N170 C163 1.359 . S
N170 C171 1.327 . S
N170 Tb173 2.600 . S
C171 C169 1.392 . S
C171 N170 1.327 . S
C171 H178 0.930 . S
C172 C167 1.385 . S
C172 C169 1.370 . S
C172 H191 0.930 . S
Tb173 N170 2.600 . S
Tb173 N174 2.660 . S
Tb173 O207 2.365 . S
Tb173 O208 2.421 . S
Tb173 O212 2.546 . S
Tb173 O213 2.610 1_545 S
Tb173 O215 2.320 1_545 S
Tb173 O216 2.552 1_545 S
Tb173 O217 2.413 . S
Tb173 C237 2.833 . S
N174 C166 1.360 . S
N174 Tb173 2.660 . S
N174 C175 1.305 . S
C175 N174 1.305 . S
C175 C177 1.407 . S
C175 H182 0.930 . S
C176 C164 1.410 . S
C176 C177 1.345 . S
C176 H184 0.930 . S
C177 C175 1.407 . S
C177 C176 1.345 . S
C177 H179 0.930 . S
H178 C171 0.930 . S
H179 C177 0.930 . S
H180 C168 0.930 . S
H181 C169 0.931 . S
H182 C175 0.930 . S
H183 C197 0.930 . S
H184 C176 0.930 . S
H185 C203 0.930 . S
H186 C194 0.930 . S
H187 C201 0.931 . S
H188 C165 0.929 . S
H189 C195 0.930 . S
H190 C228 0.930 . S
H191 C172 0.930 . S
H192 C227 0.929 . S
N193 Tb162 2.660 . S
N193 C194 1.305 . S
N193 C198 1.360 . S
C194 H186 0.930 . S
C194 N193 1.305 . S
C194 C197 1.407 . S
C195 H189 0.930 . S
C195 C196 1.410 . S
C195 C197 1.345 . S
C196 C195 1.410 . S
C196 C198 1.417 . S
C196 C228 1.432 . S
C197 H183 0.930 . S
C197 C194 1.407 . S
C197 C195 1.345 . S
C198 N193 1.360 . S
C198 C196 1.417 . S
C198 C202 1.432 . S
H199 C204 0.930 . S
N200 Tb162 2.600 . S
N200 C202 1.359 . S
N200 C203 1.327 . S
C201 H187 0.931 . S
C201 C203 1.392 . S
C201 C204 1.370 . S
C202 C198 1.432 . S
C202 N200 1.359 . S
C202 C205 1.414 . S
C203 H185 0.930 . S
C203 N200 1.327 . S
C203 C201 1.392 . S
C204 H199 0.930 . S
C204 C201 1.370 . S
C204 C205 1.385 . S
C205 C202 1.414 . S
C205 C204 1.385 . S
C205 C227 1.444 . S
O206 Tb162 2.546 . S
O206 C226 1.251 . S
O207 Tb162 2.608 1_544 S
O207 Tb173 2.365 . S
O207 C218 1.280 1_554 S
O208 Tb173 2.421 . S
O208 C225 1.262 1_554 S
O209 Tb162 2.320 1_545 S
O209 C225 1.260 . S
O210 Tb162 2.552 1_545 S
O210 C218 1.243 . S
O211 Tb162 2.413 . S
O211 C226 1.256 . S
O212 Tb173 2.546 . S
O212 C237 1.251 . S
O213 Tb162 2.362 1_554 S
O213 Tb173 2.610 1_565 S
O213 C229 1.283 . S
O214 Tb162 2.457 . S
O214 C236 1.199 1_556 S
O215 Tb173 2.320 1_565 S
O215 C236 1.260 . S
O216 Tb173 2.552 1_565 S
O216 C229 1.243 . S
O217 Tb173 2.413 . S
O217 C237 1.256 . S
C218 O207 1.280 1_556 S
C218 O210 1.243 . S
C219 C221 1.382 1_565 S
C219 C223 1.393 . S
C219 C226 1.500 . S
C220 C221 1.400 . S
C220 C222 1.384 1_545 S
C221 C219 1.382 1_545 S
C221 C220 1.400 . S
C221 H238 0.930 . S
C222 C220 1.384 1_565 S
C222 C224 1.392 . S
C222 H239 0.931 . S
C223 C219 1.393 . S
C223 C224 1.401 . S
C223 H240 0.930 . S
C224 C222 1.392 . S
C224 C223 1.401 . S
C224 H241 0.930 . S
C225 O208 1.262 1_556 S
C225 O209 1.260 . S
C226 Tb162 2.833 . S
C226 O206 1.251 . S
C226 O211 1.256 . S
C226 C219 1.500 . S
C227 H192 0.929 . S
C227 C205 1.444 . S
C227 C228 1.317 . S
C228 H190 0.930 . S
C228 C196 1.432 . S
C228 C227 1.317 . S
C229 O213 1.283 . S
C229 O216 1.243 . S
C230 C231 1.382 1_545 S
C230 C234 1.393 . S
C230 C237 1.500 . S
C231 C230 1.382 1_565 S
C231 C232 1.400 . S
C231 H242 0.930 . S
C232 C231 1.400 . S
C232 C233 1.384 1_565 S
C233 C232 1.384 1_545 S
C233 C235 1.392 . S
C233 H243 0.931 . S
C234 C230 1.393 . S
C234 C235 1.401 . S
C234 H244 0.930 . S
C235 C233 1.392 . S
C235 C234 1.401 . S
C235 H245 0.930 . S
C236 O214 1.199 1_554 S
C236 O215 1.260 . S
C237 Tb173 2.833 . S
C237 O212 1.251 . S
C237 O217 1.256 . S
C237 C230 1.500 . S
H238 C221 0.930 . S
H239 C222 0.931 . S
H240 C223 0.930 . S
H241 C224 0.930 . S
H242 C231 0.930 . S
H243 C233 0.931 . S
H244 C234 0.930 . S
H245 C235 0.930 . S
Tb246 N277 2.660 . S
Tb246 N284 2.600 . S
Tb246 O290 2.546 . S
Tb246 O291 2.609 1_455 S
Tb246 O293 2.320 1_455 S
Tb246 O294 2.552 1_455 S
Tb246 O295 2.413 . S
Tb246 O297 2.362 1_556 S
Tb246 O298 2.415 1_556 S
Tb246 C310 2.833 . S
C247 C250 1.432 . S
C247 C251 1.414 . S
C247 N254 1.359 . S
C248 C250 1.417 . S
C248 C252 1.432 . S
C248 C260 1.410 . S
C249 C251 1.444 . S
C249 C252 1.317 . S
C249 H272 0.929 . S
C250 C247 1.432 . S
C250 C248 1.417 . S
C250 N258 1.360 . S
C251 C247 1.414 . S
C251 C249 1.444 . S
C251 C256 1.385 . S
C252 C248 1.432 . S
C252 C249 1.317 . S
C252 H264 0.930 . S
C253 C255 1.392 . S
C253 C256 1.370 . S
C253 H265 0.931 . S
N254 C247 1.359 . S
N254 C255 1.327 . S
N254 Tb257 2.600 . S
C255 C253 1.392 . S
C255 N254 1.327 . S
C255 H262 0.930 . S
C256 C251 1.385 . S
C256 C253 1.370 . S
C256 H275 0.930 . S
Tb257 N254 2.600 . S
Tb257 N258 2.660 . S
Tb257 O291 2.363 1_554 S
Tb257 O292 2.421 . S
Tb257 O296 2.546 . S
Tb257 O297 2.610 1_655 S
Tb257 O299 2.320 1_655 S
Tb257 O300 2.552 1_655 S
Tb257 O301 2.413 . S
Tb257 C321 2.833 . S
N258 C250 1.360 . S
N258 Tb257 2.660 . S
N258 C259 1.305 . S
C259 N258 1.305 . S
C259 C261 1.407 . S
C259 H266 0.930 . S
C260 C248 1.410 . S
C260 C261 1.345 . S
C260 H268 0.930 . S
C261 C259 1.407 . S
C261 C260 1.345 . S
C261 H263 0.930 . S
H262 C255 0.930 . S
H263 C261 0.930 . S
H264 C252 0.930 . S
H265 C253 0.931 . S
H266 C259 0.930 . S
H267 C281 0.930 . S
H268 C260 0.930 . S
H269 C287 0.930 . S
H270 C278 0.930 . S
H271 C285 0.931 . S
H272 C249 0.929 . S
H273 C279 0.930 . S
H274 C312 0.930 . S
H275 C256 0.930 . S
H276 C311 0.929 . S
N277 Tb246 2.660 . S
N277 C278 1.305 . S
N277 C282 1.360 . S
C278 H270 0.930 . S
C278 N277 1.305 . S
C278 C281 1.407 . S
C279 H273 0.930 . S
C279 C280 1.410 . S
C279 C281 1.345 . S
C280 C279 1.410 . S
C280 C282 1.417 . S
C280 C312 1.432 . S
C281 H267 0.930 . S
C281 C278 1.407 . S
C281 C279 1.345 . S
C282 N277 1.360 . S
C282 C280 1.417 . S
C282 C286 1.432 . S
H283 C288 0.930 . S
N284 Tb246 2.600 . S
N284 C286 1.359 . S
N284 C287 1.327 . S
C285 H271 0.931 . S
C285 C287 1.392 . S
C285 C288 1.370 . S
C286 C282 1.432 . S
C286 N284 1.359 . S
C286 C289 1.414 . S
C287 H269 0.930 . S
C287 N284 1.327 . S
C287 C285 1.392 . S
C288 H283 0.930 . S
C288 C285 1.370 . S
C288 C289 1.385 . S
C289 C286 1.414 . S
C289 C288 1.385 . S
C289 C311 1.444 . S
O290 Tb246 2.546 . S
O290 C310 1.251 . S
O291 Tb246 2.609 1_655 S
O291 Tb257 2.363 1_556 S
O291 C302 1.282 . S
O292 Tb257 2.421 . S
O292 C309 1.262 1_554 S
O293 Tb246 2.320 1_655 S
O293 C309 1.260 . S
O294 Tb246 2.552 1_655 S
O294 C302 1.243 . S
O295 Tb246 2.413 . S
O295 C310 1.256 . S
O296 Tb257 2.546 . S
O296 C321 1.251 . S
O297 Tb246 2.362 1_554 S
O297 Tb257 2.610 1_455 S
O297 C313 1.283 . S
O298 Tb246 2.415 1_554 S
O298 C320 1.273 . S
O299 Tb257 2.320 1_455 S
O299 C320 1.260 . S
O300 Tb257 2.552 1_455 S
O300 C313 1.243 . S
O301 Tb257 2.413 . S
O301 C321 1.256 . S
C302 O291 1.282 . S
C302 O294 1.243 . S
C303 C305 1.382 1_455 S
C303 C307 1.393 . S
C303 C310 1.500 . S
C304 C305 1.400 . S
C304 C306 1.384 1_655 S
C305 C303 1.382 1_655 S
C305 C304 1.400 . S
C305 H322 0.930 . S
C306 C304 1.384 1_455 S
C306 C308 1.392 . S
C306 H323 0.931 . S
C307 C303 1.393 . S
C307 C308 1.401 . S
C307 H324 0.930 . S
C308 C306 1.392 . S
C308 C307 1.401 . S
C308 H325 0.930 . S
C309 O292 1.262 1_556 S
C309 O293 1.260 . S
C310 Tb246 2.833 . S
C310 O290 1.251 . S
C310 O295 1.256 . S
C310 C303 1.500 . S
C311 H276 0.929 . S
C311 C289 1.444 . S
C311 C312 1.317 . S
C312 H274 0.930 . S
C312 C280 1.432 . S
C312 C311 1.317 . S
C313 O297 1.283 . S
C313 O300 1.243 . S
C314 C315 1.382 1_655 S
C314 C318 1.393 . S
C314 C321 1.500 . S
C315 C314 1.382 1_455 S
C315 C316 1.400 . S
C315 H326 0.930 . S
C316 C315 1.400 . S
C316 C317 1.384 1_455 S
C317 C316 1.384 1_655 S
C317 C319 1.392 . S
C317 H327 0.931 . S
C318 C314 1.393 . S
C318 C319 1.401 . S
C318 H328 0.930 . S
C319 C317 1.392 . S
C319 C318 1.401 . S
C319 H329 0.930 . S
C320 O298 1.273 . S
C320 O299 1.260 . S
C321 Tb257 2.833 . S
C321 O296 1.251 . S
C321 O301 1.256 . S
C321 C314 1.500 . S
H322 C305 0.930 . S
H323 C306 0.931 . S
H324 C307 0.930 . S
H325 C308 0.930 . S
H326 C315 0.930 . S
H327 C317 0.931 . S
H328 C318 0.930 . S
H329 C319 0.930 . S
Tb330 N361 2.660 . S
Tb330 N368 2.600 . S
Tb330 O374 2.546 . S
Tb330 O375 2.610 . S
Tb330 O377 2.320 . S
Tb330 O378 2.552 . S
Tb330 O379 2.413 . S
Tb330 O381 2.331 1_554 S
Tb330 O382 2.421 . S
Tb330 C394 2.833 . S
C331 C334 1.432 . S
C331 C335 1.414 . S
C331 N338 1.359 . S
C332 C334 1.417 . S
C332 C336 1.432 . S
C332 C344 1.410 . S
C333 C335 1.444 . S
C333 C336 1.317 . S
C333 H356 0.929 . S
C334 C331 1.432 . S
C334 C332 1.417 . S
C334 N342 1.360 . S
C335 C331 1.414 . S
C335 C333 1.444 . S
C335 C340 1.385 . S
C336 C332 1.432 . S
C336 C333 1.317 . S
C336 H348 0.930 . S
C337 C339 1.392 . S
C337 C340 1.370 . S
C337 H349 0.931 . S
N338 C331 1.359 . S
N338 C339 1.327 . S
N338 Tb341 2.600 . S
C339 C337 1.392 . S
C339 N338 1.327 . S
C339 H346 0.930 . S
C340 C335 1.385 . S
C340 C337 1.370 . S
C340 H359 0.930 . S
Tb341 N338 2.600 . S
Tb341 N342 2.660 . S
Tb341 O375 2.362 1_556 S
Tb341 O376 2.456 . S
Tb341 O380 2.546 . S
Tb341 O381 2.627 . S
Tb341 O383 2.320 . S
Tb341 O384 2.552 . S
Tb341 O385 2.413 . S
Tb341 C405 2.833 . S
N342 C334 1.360 . S
N342 Tb341 2.660 . S
N342 C343 1.305 . S
C343 N342 1.305 . S
C343 C345 1.407 . S
C343 H350 0.930 . S
C344 C332 1.410 . S
C344 C345 1.345 . S
C344 H352 0.930 . S
C345 C343 1.407 . S
C345 C344 1.345 . S
C345 H347 0.930 . S
H346 C339 0.930 . S
H347 C345 0.930 . S
H348 C336 0.930 . S
H349 C337 0.931 . S
H350 C343 0.930 . S
H351 C365 0.930 . S
H352 C344 0.930 . S
H353 C371 0.930 . S
H354 C362 0.930 . S
H355 C369 0.931 . S
H356 C333 0.929 . S
H357 C363 0.930 . S
H358 C396 0.930 . S
H359 C340 0.930 . S
H360 C395 0.929 . S
N361 Tb330 2.660 . S
N361 C362 1.305 . S
N361 C366 1.360 . S
C362 H354 0.930 . S
C362 N361 1.305 . S
C362 C365 1.407 . S
C363 H357 0.930 . S
C363 C364 1.410 . S
C363 C365 1.345 . S
C364 C363 1.410 . S
C364 C366 1.417 . S
C364 C396 1.432 . S
C365 H351 0.930 . S
C365 C362 1.407 . S
C365 C363 1.345 . S
C366 N361 1.360 . S
C366 C364 1.417 . S
C366 C370 1.432 . S
H367 C372 0.930 . S
N368 Tb330 2.600 . S
N368 C370 1.359 . S
N368 C371 1.327 . S
C369 H355 0.931 . S
C369 C371 1.392 . S
C369 C372 1.370 . S
C370 C366 1.432 . S
C370 N368 1.359 . S
C370 C373 1.414 . S
C371 H353 0.930 . S
C371 N368 1.327 . S
C371 C369 1.392 . S
C372 H367 0.930 . S
C372 C369 1.370 . S
C372 C373 1.385 . S
C373 C370 1.414 . S
C373 C372 1.385 . S
C373 C395 1.444 . S
O374 Tb330 2.546 . S
O374 C394 1.251 . S
O375 Tb330 2.610 . S
O375 Tb341 2.362 1_554 S
O375 C386 1.283 . S
O376 Tb341 2.456 . S
O376 C393 1.201 1_556 S
O377 Tb330 2.320 . S
O377 C393 1.260 . S
O378 Tb330 2.552 . S
O378 C386 1.243 . S
O379 Tb330 2.413 . S
O379 C394 1.256 . S
O380 Tb341 2.546 . S
O380 C405 1.251 . S
O381 Tb330 2.331 1_556 S
O381 Tb341 2.627 . S
O381 C397 1.308 . S
O382 Tb330 2.421 . S
O382 C404 1.262 1_554 S
O383 Tb341 2.320 . S
O383 C404 1.260 . S
O384 Tb341 2.552 . S
O384 C397 1.243 . S
O385 Tb341 2.413 . S
O385 C405 1.256 . S
C386 O375 1.283 . S
C386 O378 1.243 . S
C387 C389 1.382 . S
C387 C391 1.393 . S
C387 C394 1.500 . S
C388 C389 1.400 . S
C388 C390 1.384 . S
C389 C387 1.382 . S
C389 C388 1.400 . S
C389 H406 0.930 . S
C390 C388 1.384 . S
C390 C392 1.392 . S
C390 H407 0.931 . S
C391 C387 1.393 . S
C391 C392 1.401 . S
C391 H408 0.930 . S
C392 C390 1.392 . S
C392 C391 1.401 . S
C392 H409 0.930 . S
C393 O376 1.201 1_554 S
C393 O377 1.260 . S
C394 Tb330 2.833 . S
C394 O374 1.251 . S
C394 O379 1.256 . S
C394 C387 1.500 . S
C395 H360 0.929 . S
C395 C373 1.444 . S
C395 C396 1.317 . S
C396 H358 0.930 . S
C396 C364 1.432 . S
C396 C395 1.317 . S
C397 O381 1.308 . S
C397 O384 1.243 . S
C398 C399 1.382 . S
C398 C402 1.393 . S
C398 C405 1.500 . S
C399 C398 1.382 . S
C399 C400 1.400 . S
C399 H410 0.930 . S
C400 C399 1.400 . S
C400 C401 1.384 . S
C401 C400 1.384 . S
C401 C403 1.392 . S
C401 H411 0.931 . S
C402 C398 1.393 . S
C402 C403 1.401 . S
C402 H412 0.930 . S
C403 C401 1.392 . S
C403 C402 1.401 . S
C403 H413 0.930 . S
C404 O382 1.262 1_556 S
C404 O383 1.260 . S
C405 Tb341 2.833 . S
C405 O380 1.251 . S
C405 O385 1.256 . S
C405 C398 1.500 . S
H406 C389 0.930 . S
H407 C390 0.931 . S
H408 C391 0.930 . S
H409 C392 0.930 . S
H410 C399 0.930 . S
H411 C401 0.931 . S
H412 C402 0.930 . S
H413 C403 0.930 . S
Tb414 N445 2.660 . S
Tb414 N452 2.600 . S
Tb414 O458 2.546 . S
Tb414 O459 2.610 . S
Tb414 O461 2.320 . S
Tb414 O462 2.552 . S
Tb414 O463 2.413 . S
Tb414 O465 2.362 . S
Tb414 O466 2.421 . S
Tb414 C478 2.833 . S
C415 C418 1.432 . S
C415 C419 1.414 . S
C415 N422 1.359 . S
C416 C418 1.417 . S
C416 C420 1.432 . S
C416 C428 1.410 . S
C417 C419 1.444 . S
C417 C420 1.317 . S
C417 H440 0.929 . S
C418 C415 1.432 . S
C418 C416 1.417 . S
C418 N426 1.360 . S
C419 C415 1.414 . S
C419 C417 1.444 . S
C419 C424 1.385 . S
C420 C416 1.432 . S
C420 C417 1.317 . S
C420 H432 0.930 . S
C421 C423 1.392 . S
C421 C424 1.370 . S
C421 H433 0.931 . S
N422 C415 1.359 . S
N422 C423 1.327 . S
N422 Tb425 2.600 . S
C423 C421 1.392 . S
C423 N422 1.327 . S
C423 H430 0.930 . S
C424 C419 1.385 . S
C424 C421 1.370 . S
C424 H443 0.930 . S
Tb425 N422 2.600 . S
Tb425 N426 2.660 . S
Tb425 O459 2.362 . S
Tb425 O460 2.421 . S
Tb425 O464 2.546 . S
Tb425 O465 2.610 . S
Tb425 O467 2.320 . S
Tb425 O468 2.552 . S
Tb425 O469 2.413 . S
Tb425 C489 2.833 . S
N426 C418 1.360 . S
N426 Tb425 2.660 . S
N426 C427 1.305 . S
C427 N426 1.305 . S
C427 C429 1.407 . S
C427 H434 0.930 . S
C428 C416 1.410 . S
C428 C429 1.345 . S
C428 H436 0.930 . S
C429 C427 1.407 . S
C429 C428 1.345 . S
C429 H431 0.930 . S
H430 C423 0.930 . S
H431 C429 0.930 . S
H432 C420 0.930 . S
H433 C421 0.931 . S
H434 C427 0.930 . S
H435 C449 0.930 . S
H436 C428 0.930 . S
H437 C455 0.930 . S
H438 C446 0.930 . S
H439 C453 0.931 . S
H440 C417 0.929 . S
H441 C447 0.930 . S
H442 C480 0.930 . S
H443 C424 0.930 . S
H444 C479 0.929 . S
N445 Tb414 2.660 . S
N445 C446 1.305 . S
N445 C450 1.360 . S
C446 H438 0.930 . S
C446 N445 1.305 . S
C446 C449 1.407 . S
C447 H441 0.930 . S
C447 C448 1.410 . S
C447 C449 1.345 . S
C448 C447 1.410 . S
C448 C450 1.417 . S
C448 C480 1.432 . S
C449 H435 0.930 . S
C449 C446 1.407 . S
C449 C447 1.345 . S
C450 N445 1.360 . S
C450 C448 1.417 . S
C450 C454 1.432 . S
H451 C456 0.930 . S
N452 Tb414 2.600 . S
N452 C454 1.359 . S
N452 C455 1.327 . S
C453 H439 0.931 . S
C453 C455 1.392 . S
C453 C456 1.370 . S
C454 C450 1.432 . S
C454 N452 1.359 . S
C454 C457 1.414 . S
C455 H437 0.930 . S
C455 N452 1.327 . S
C455 C453 1.392 . S
C456 H451 0.930 . S
C456 C453 1.370 . S
C456 C457 1.385 . S
C457 C454 1.414 . S
C457 C456 1.385 . S
C457 C479 1.444 . S
O458 Tb414 2.546 . S
O458 C478 1.251 . S
O459 Tb414 2.610 . S
O459 Tb425 2.362 . S
O459 C470 1.283 . S
O460 Tb425 2.421 . S
O460 C477 1.262 . S
O461 Tb414 2.320 . S
O461 C477 1.260 . S
O462 Tb414 2.552 . S
O462 C470 1.243 . S
O463 Tb414 2.413 . S
O463 C478 1.256 . S
O464 Tb425 2.546 . S
O464 C489 1.251 . S
O465 Tb414 2.362 . S
O465 Tb425 2.610 . S
O465 C481 1.283 . S
O466 Tb414 2.421 . S
O466 C488 1.262 . S
O467 Tb425 2.320 . S
O467 C488 1.260 . S
O468 Tb425 2.552 . S
O468 C481 1.243 . S
O469 Tb425 2.413 . S
O469 C489 1.256 . S
C470 O459 1.283 . S
C470 O462 1.243 . S
C471 C473 1.382 . S
C471 C475 1.393 . S
C471 C478 1.500 . S
C472 C473 1.400 . S
C472 C474 1.384 . S
C473 C471 1.382 . S
C473 C472 1.400 . S
C473 H490 0.930 . S
C474 C472 1.384 . S
C474 C476 1.392 . S
C474 H491 0.931 . S
C475 C471 1.393 . S
C475 C476 1.401 . S
C475 H492 0.930 . S
C476 C474 1.392 . S
C476 C475 1.401 . S
C476 H493 0.930 . S
C477 O460 1.262 . S
C477 O461 1.260 . S
C478 Tb414 2.833 . S
C478 O458 1.251 . S
C478 O463 1.256 . S
C478 C471 1.500 . S
C479 H444 0.929 . S
C479 C457 1.444 . S
C479 C480 1.317 . S
C480 H442 0.930 . S
C480 C448 1.432 . S
C480 C479 1.317 . S
C481 O465 1.283 . S
C481 O468 1.243 . S
C482 C483 1.382 . S
C482 C486 1.393 . S
C482 C489 1.500 . S
C483 C482 1.382 . S
C483 C484 1.400 . S
C483 H494 0.930 . S
C484 C483 1.400 . S
C484 C485 1.384 . S
C485 C484 1.384 . S
C485 C487 1.392 . S
C485 H495 0.931 . S
C486 C482 1.393 . S
C486 C487 1.401 . S
C486 H496 0.930 . S
C487 C485 1.392 . S
C487 C486 1.401 . S
C487 H497 0.930 . S
C488 O466 1.262 . S
C488 O467 1.260 . S
C489 Tb425 2.833 . S
C489 O464 1.251 . S
C489 O469 1.256 . S
C489 C482 1.500 . S
H490 C473 0.930 . S
H491 C474 0.931 . S
H492 C475 0.930 . S
H493 C476 0.930 . S
H494 C483 0.930 . S
H495 C485 0.931 . S
H496 C486 0.930 . S
H497 C487 0.930 . S
Tb498 N529 2.660 . S
Tb498 N536 2.600 . S
Tb498 O542 2.546 . S
Tb498 O543 2.610 . S
Tb498 O545 2.320 . S
Tb498 O546 2.552 . S
Tb498 O547 2.413 . S
Tb498 O549 2.362 . S
Tb498 O550 2.421 . S
Tb498 C562 2.833 . S
C499 C502 1.432 . S
C499 C503 1.414 . S
C499 N506 1.359 . S
C500 C502 1.417 . S
C500 C504 1.432 . S
C500 C512 1.410 . S
C501 C503 1.444 . S
C501 C504 1.317 . S
C501 H524 0.929 . S
C502 C499 1.432 . S
C502 C500 1.417 . S
C502 N510 1.360 . S
C503 C499 1.414 . S
C503 C501 1.444 . S
C503 C508 1.385 . S
C504 C500 1.432 . S
C504 C501 1.317 . S
C504 H516 0.930 . S
C505 C507 1.392 . S
C505 C508 1.370 . S
C505 H517 0.931 . S
N506 C499 1.359 . S
N506 C507 1.327 . S
N506 Tb509 2.600 . S
C507 C505 1.392 . S
C507 N506 1.327 . S
C507 H514 0.930 . S
C508 C503 1.385 . S
C508 C505 1.370 . S
C508 H527 0.930 . S
Tb509 N506 2.600 . S
Tb509 N510 2.660 . S
Tb509 O543 2.362 . S
Tb509 O544 2.421 . S
Tb509 O548 2.546 . S
Tb509 O549 2.610 . S
Tb509 O551 2.320 . S
Tb509 O552 2.552 . S
Tb509 O553 2.413 . S
Tb509 C573 2.833 . S
N510 C502 1.360 . S
N510 Tb509 2.660 . S
N510 C511 1.305 . S
C511 N510 1.305 . S
C511 C513 1.407 . S
C511 H518 0.930 . S
C512 C500 1.410 . S
C512 C513 1.345 . S
C512 H520 0.930 . S
C513 C511 1.407 . S
C513 C512 1.345 . S
C513 H515 0.930 . S
H514 C507 0.930 . S
H515 C513 0.930 . S
H516 C504 0.930 . S
H517 C505 0.931 . S
H518 C511 0.930 . S
H519 C533 0.930 . S
H520 C512 0.930 . S
H521 C539 0.930 . S
H522 C530 0.930 . S
H523 C537 0.931 . S
H524 C501 0.929 . S
H525 C531 0.930 . S
H526 C564 0.930 . S
H527 C508 0.930 . S
H528 C563 0.929 . S
N529 Tb498 2.660 . S
N529 C530 1.305 . S
N529 C534 1.360 . S
C530 H522 0.930 . S
C530 N529 1.305 . S
C530 C533 1.407 . S
C531 H525 0.930 . S
C531 C532 1.410 . S
C531 C533 1.345 . S
C532 C531 1.410 . S
C532 C534 1.417 . S
C532 C564 1.432 . S
C533 H519 0.930 . S
C533 C530 1.407 . S
C533 C531 1.345 . S
C534 N529 1.360 . S
C534 C532 1.417 . S
C534 C538 1.432 . S
H535 C540 0.930 . S
N536 Tb498 2.600 . S
N536 C538 1.359 . S
N536 C539 1.327 . S
C537 H523 0.931 . S
C537 C539 1.392 . S
C537 C540 1.370 . S
C538 C534 1.432 . S
C538 N536 1.359 . S
C538 C541 1.414 . S
C539 H521 0.930 . S
C539 N536 1.327 . S
C539 C537 1.392 . S
C540 H535 0.930 . S
C540 C537 1.370 . S
C540 C541 1.385 . S
C541 C538 1.414 . S
C541 C540 1.385 . S
C541 C563 1.444 . S
O542 Tb498 2.546 . S
O542 C562 1.251 . S
O543 Tb498 2.610 . S
O543 Tb509 2.362 . S
O543 C554 1.283 . S
O544 Tb509 2.421 . S
O544 C561 1.262 . S
O545 Tb498 2.320 . S
O545 C561 1.260 . S
O546 Tb498 2.552 . S
O546 C554 1.243 . S
O547 Tb498 2.413 . S
O547 C562 1.256 . S
O548 Tb509 2.546 . S
O548 C573 1.251 . S
O549 Tb498 2.362 . S
O549 Tb509 2.610 . S
O549 C565 1.283 . S
O550 Tb498 2.421 . S
O550 C572 1.262 . S
O551 Tb509 2.320 . S
O551 C572 1.260 . S
O552 Tb509 2.552 . S
O552 C565 1.243 . S
O553 Tb509 2.413 . S
O553 C573 1.256 . S
C554 O543 1.283 . S
C554 O546 1.243 . S
C555 C557 1.382 . S
C555 C559 1.393 . S
C555 C562 1.500 . S
C556 C557 1.400 . S
C556 C558 1.384 . S
C557 C555 1.382 . S
C557 C556 1.400 . S
C557 H574 0.930 . S
C558 C556 1.384 . S
C558 C560 1.392 . S
C558 H575 0.931 . S
C559 C555 1.393 . S
C559 C560 1.401 . S
C559 H576 0.930 . S
C560 C558 1.392 . S
C560 C559 1.401 . S
C560 H577 0.930 . S
C561 O544 1.262 . S
C561 O545 1.260 . S
C562 Tb498 2.833 . S
C562 O542 1.251 . S
C562 O547 1.256 . S
C562 C555 1.500 . S
C563 H528 0.929 . S
C563 C541 1.444 . S
C563 C564 1.317 . S
C564 H526 0.930 . S
C564 C532 1.432 . S
C564 C563 1.317 . S
C565 O549 1.283 . S
C565 O552 1.243 . S
C566 C567 1.382 . S
C566 C570 1.393 . S
C566 C573 1.500 . S
C567 C566 1.382 . S
C567 C568 1.400 . S
C567 H578 0.930 . S
C568 C567 1.400 . S
C568 C569 1.384 . S
C569 C568 1.384 . S
C569 C571 1.392 . S
C569 H579 0.931 . S
C570 C566 1.393 . S
C570 C571 1.401 . S
C570 H580 0.930 . S
C571 C569 1.392 . S
C571 C570 1.401 . S
C571 H581 0.930 . S
C572 O550 1.262 . S
C572 O551 1.260 . S
C573 Tb509 2.833 . S
C573 O548 1.251 . S
C573 O553 1.256 . S
C573 C566 1.500 . S
H574 C557 0.930 . S
H575 C558 0.931 . S
H576 C559 0.930 . S
H577 C560 0.930 . S
H578 C567 0.930 . S
H579 C569 0.931 . S
H580 C570 0.930 . S
H581 C571 0.930 . S
Tb582 N613 2.660 . S
Tb582 N620 2.600 . S
Tb582 O626 2.546 . S
Tb582 O627 2.610 . S
Tb582 O629 2.320 . S
Tb582 O630 2.552 . S
Tb582 O631 2.413 . S
Tb582 O633 2.362 . S
Tb582 O634 2.421 . S
Tb582 C646 2.833 . S
C583 C586 1.432 . S
C583 C587 1.414 . S
C583 N590 1.359 . S
C584 C586 1.417 . S
C584 C588 1.432 . S
C584 C596 1.410 . S
C585 C587 1.444 . S
C585 C588 1.317 . S
C585 H608 0.929 . S
C586 C583 1.432 . S
C586 C584 1.417 . S
C586 N594 1.360 . S
C587 C583 1.414 . S
C587 C585 1.444 . S
C587 C592 1.385 . S
C588 C584 1.432 . S
C588 C585 1.317 . S
C588 H600 0.930 . S
C589 C591 1.392 . S
C589 C592 1.370 . S
C589 H601 0.931 . S
N590 C583 1.359 . S
N590 C591 1.327 . S
N590 Tb593 2.600 . S
C591 C589 1.392 . S
C591 N590 1.327 . S
C591 H598 0.930 . S
C592 C587 1.385 . S
C592 C589 1.370 . S
C592 H611 0.930 . S
Tb593 N590 2.600 . S
Tb593 N594 2.660 . S
Tb593 O627 2.362 . S
Tb593 O628 2.421 . S
Tb593 O632 2.546 . S
Tb593 O633 2.610 . S
Tb593 O635 2.320 . S
Tb593 O636 2.552 . S
Tb593 O637 2.413 . S
Tb593 C657 2.833 . S
N594 C586 1.360 . S
N594 Tb593 2.660 . S
N594 C595 1.305 . S
C595 N594 1.305 . S
C595 C597 1.407 . S
C595 H602 0.930 . S
C596 C584 1.410 . S
C596 C597 1.345 . S
C596 H604 0.930 . S
C597 C595 1.407 . S
C597 C596 1.345 . S
C597 H599 0.930 . S
H598 C591 0.930 . S
H599 C597 0.930 . S
H600 C588 0.930 . S
H601 C589 0.931 . S
H602 C595 0.930 . S
H603 C617 0.930 . S
H604 C596 0.930 . S
H605 C623 0.930 . S
H606 C614 0.930 . S
H607 C621 0.931 . S
H608 C585 0.929 . S
H609 C615 0.930 . S
H610 C648 0.930 . S
H611 C592 0.930 . S
H612 C647 0.929 . S
N613 Tb582 2.660 . S
N613 C614 1.305 . S
N613 C618 1.360 . S
C614 H606 0.930 . S
C614 N613 1.305 . S
C614 C617 1.407 . S
C615 H609 0.930 . S
C615 C616 1.410 . S
C615 C617 1.345 . S
C616 C615 1.410 . S
C616 C618 1.417 . S
C616 C648 1.432 . S
C617 H603 0.930 . S
C617 C614 1.407 . S
C617 C615 1.345 . S
C618 N613 1.360 . S
C618 C616 1.417 . S
C618 C622 1.432 . S
H619 C624 0.930 . S
N620 Tb582 2.600 . S
N620 C622 1.359 . S
N620 C623 1.327 . S
C621 H607 0.931 . S
C621 C623 1.392 . S
C621 C624 1.370 . S
C622 C618 1.432 . S
C622 N620 1.359 . S
C622 C625 1.414 . S
C623 H605 0.930 . S
C623 N620 1.327 . S
C623 C621 1.392 . S
C624 H619 0.930 . S
C624 C621 1.370 . S
C624 C625 1.385 . S
C625 C622 1.414 . S
C625 C624 1.385 . S
C625 C647 1.444 . S
O626 Tb582 2.546 . S
O626 C646 1.251 . S
O627 Tb582 2.610 . S
O627 Tb593 2.362 . S
O627 C638 1.283 . S
O628 Tb593 2.421 . S
O628 C645 1.262 . S
O629 Tb582 2.320 . S
O629 C645 1.260 . S
O630 Tb582 2.552 . S
O630 C638 1.243 . S
O631 Tb582 2.413 . S
O631 C646 1.256 . S
O632 Tb593 2.546 . S
O632 C657 1.251 . S
O633 Tb582 2.362 . S
O633 Tb593 2.610 . S
O633 C649 1.283 . S
O634 Tb582 2.421 . S
O634 C656 1.262 . S
O635 Tb593 2.320 . S
O635 C656 1.260 . S
O636 Tb593 2.552 . S
O636 C649 1.243 . S
O637 Tb593 2.413 . S
O637 C657 1.256 . S
C638 O627 1.283 . S
C638 O630 1.243 . S
C639 C641 1.382 . S
C639 C643 1.393 . S
C639 C646 1.500 . S
C640 C641 1.400 . S
C640 C642 1.384 . S
C641 C639 1.382 . S
C641 C640 1.400 . S
C641 H658 0.930 . S
C642 C640 1.384 . S
C642 C644 1.392 . S
C642 H659 0.931 . S
C643 C639 1.393 . S
C643 C644 1.401 . S
C643 H660 0.930 . S
C644 C642 1.392 . S
C644 C643 1.401 . S
C644 H661 0.930 . S
C645 O628 1.262 . S
C645 O629 1.260 . S
C646 Tb582 2.833 . S
C646 O626 1.251 . S
C646 O631 1.256 . S
C646 C639 1.500 . S
C647 H612 0.929 . S
C647 C625 1.444 . S
C647 C648 1.317 . S
C648 H610 0.930 . S
C648 C616 1.432 . S
C648 C647 1.317 . S
C649 O633 1.283 . S
C649 O636 1.243 . S
C650 C651 1.382 . S
C650 C654 1.393 . S
C650 C657 1.500 . S
C651 C650 1.382 . S
C651 C652 1.400 . S
C651 H662 0.930 . S
C652 C651 1.400 . S
C652 C653 1.384 . S
C653 C652 1.384 . S
C653 C655 1.392 . S
C653 H663 0.931 . S
C654 C650 1.393 . S
C654 C655 1.401 . S
C654 H664 0.930 . S
C655 C653 1.392 . S
C655 C654 1.401 . S
C655 H665 0.930 . S
C656 O634 1.262 . S
C656 O635 1.260 . S
C657 Tb593 2.833 . S
C657 O632 1.251 . S
C657 O637 1.256 . S
C657 C650 1.500 . S
H658 C641 0.930 . S
H659 C642 0.931 . S
H660 C643 0.930 . S
H661 C644 0.930 . S
H662 C651 0.930 . S
H663 C653 0.931 . S
H664 C654 0.930 . S
H665 C655 0.930 . S
Tb666 N697 2.660 . S
Tb666 N704 2.600 . S
Tb666 O710 2.546 . S
Tb666 O711 2.610 . S
Tb666 O713 2.320 . S
Tb666 O714 2.552 . S
Tb666 O715 2.413 . S
Tb666 O717 2.362 . S
Tb666 O718 2.421 . S
Tb666 C730 2.833 . S
C667 C670 1.432 . S
C667 C671 1.414 . S
C667 N674 1.359 . S
C668 C670 1.417 . S
C668 C672 1.432 . S
C668 C680 1.410 . S
C669 C671 1.444 . S
C669 C672 1.317 . S
C669 H692 0.929 . S
C670 C667 1.432 . S
C670 C668 1.417 . S
C670 N678 1.360 . S
C671 C667 1.414 . S
C671 C669 1.444 . S
C671 C676 1.385 . S
C672 C668 1.432 . S
C672 C669 1.317 . S
C672 H684 0.930 . S
C673 C675 1.392 . S
C673 C676 1.370 . S
C673 H685 0.931 . S
N674 C667 1.359 . S
N674 C675 1.327 . S
N674 Tb677 2.600 . S
C675 C673 1.392 . S
C675 N674 1.327 . S
C675 H682 0.930 . S
C676 C671 1.385 . S
C676 C673 1.370 . S
C676 H695 0.930 . S
Tb677 N674 2.600 . S
Tb677 N678 2.660 . S
Tb677 O711 2.362 . S
Tb677 O712 2.421 . S
Tb677 O716 2.546 . S
Tb677 O717 2.610 . S
Tb677 O719 2.320 . S
Tb677 O720 2.552 . S
Tb677 O721 2.413 . S
Tb677 C741 2.833 . S
N678 C670 1.360 . S
N678 Tb677 2.660 . S
N678 C679 1.305 . S
C679 N678 1.305 . S
C679 C681 1.407 . S
C679 H686 0.930 . S
C680 C668 1.410 . S
C680 C681 1.345 . S
C680 H688 0.930 . S
C681 C679 1.407 . S
C681 C680 1.345 . S
C681 H683 0.930 . S
H682 C675 0.930 . S
H683 C681 0.930 . S
H684 C672 0.930 . S
H685 C673 0.931 . S
H686 C679 0.930 . S
H687 C701 0.930 . S
H688 C680 0.930 . S
H689 C707 0.930 . S
H690 C698 0.930 . S
H691 C705 0.931 . S
H692 C669 0.929 . S
H693 C699 0.930 . S
H694 C732 0.930 . S
H695 C676 0.930 . S
H696 C731 0.929 . S
N697 Tb666 2.660 . S
N697 C698 1.305 . S
N697 C702 1.360 . S
C698 H690 0.930 . S
C698 N697 1.305 . S
C698 C701 1.407 . S
C699 H693 0.930 . S
C699 C700 1.410 . S
C699 C701 1.345 . S
C700 C699 1.410 . S
C700 C702 1.417 . S
C700 C732 1.432 . S
C701 H687 0.930 . S
C701 C698 1.407 . S
C701 C699 1.345 . S
C702 N697 1.360 . S
C702 C700 1.417 . S
C702 C706 1.432 . S
H703 C708 0.930 . S
N704 Tb666 2.600 . S
N704 C706 1.359 . S
N704 C707 1.327 . S
C705 H691 0.931 . S
C705 C707 1.392 . S
C705 C708 1.370 . S
C706 C702 1.432 . S
C706 N704 1.359 . S
C706 C709 1.414 . S
C707 H689 0.930 . S
C707 N704 1.327 . S
C707 C705 1.392 . S
C708 H703 0.930 . S
C708 C705 1.370 . S
C708 C709 1.385 . S
C709 C706 1.414 . S
C709 C708 1.385 . S
C709 C731 1.444 . S
O710 Tb666 2.546 . S
O710 C730 1.251 . S
O711 Tb666 2.610 . S
O711 Tb677 2.362 . S
O711 C722 1.283 . S
O712 Tb677 2.421 . S
O712 C729 1.262 . S
O713 Tb666 2.320 . S
O713 C729 1.260 . S
O714 Tb666 2.552 . S
O714 C722 1.243 . S
O715 Tb666 2.413 . S
O715 C730 1.256 . S
O716 Tb677 2.546 . S
O716 C741 1.251 . S
O717 Tb666 2.362 . S
O717 Tb677 2.610 . S
O717 C733 1.283 . S
O718 Tb666 2.421 . S
O718 C740 1.262 . S
O719 Tb677 2.320 . S
O719 C740 1.260 . S
O720 Tb677 2.552 . S
O720 C733 1.243 . S
O721 Tb677 2.413 . S
O721 C741 1.256 . S
C722 O711 1.283 . S
C722 O714 1.243 . S
C723 C725 1.382 . S
C723 C727 1.393 . S
C723 C730 1.500 . S
C724 C725 1.400 . S
C724 C726 1.384 . S
C725 C723 1.382 . S
C725 C724 1.400 . S
C725 H742 0.930 . S
C726 C724 1.384 . S
C726 C728 1.392 . S
C726 H743 0.931 . S
C727 C723 1.393 . S
C727 C728 1.401 . S
C727 H744 0.930 . S
C728 C726 1.392 . S
C728 C727 1.401 . S
C728 H745 0.930 . S
C729 O712 1.262 . S
C729 O713 1.260 . S
C730 Tb666 2.833 . S
C730 O710 1.251 . S
C730 O715 1.256 . S
C730 C723 1.500 . S
C731 H696 0.929 . S
C731 C709 1.444 . S
C731 C732 1.317 . S
C732 H694 0.930 . S
C732 C700 1.432 . S
C732 C731 1.317 . S
C733 O717 1.283 . S
C733 O720 1.243 . S
C734 C735 1.382 . S
C734 C738 1.393 . S
C734 C741 1.500 . S
C735 C734 1.382 . S
C735 C736 1.400 . S
C735 H746 0.930 . S
C736 C735 1.400 . S
C736 C737 1.384 . S
C737 C736 1.384 . S
C737 C739 1.392 . S
C737 H747 0.931 . S
C738 C734 1.393 . S
C738 C739 1.401 . S
C738 H748 0.930 . S
C739 C737 1.392 . S
C739 C738 1.401 . S
C739 H749 0.930 . S
C740 O718 1.262 . S
C740 O719 1.260 . S
C741 Tb677 2.833 . S
C741 O716 1.251 . S
C741 O721 1.256 . S
C741 C734 1.500 . S
H742 C725 0.930 . S
H743 C726 0.931 . S
H744 C727 0.930 . S
H745 C728 0.930 . S
H746 C735 0.930 . S
H747 C737 0.931 . S
H748 C738 0.930 . S
H749 C739 0.930 . S
Tb750 N781 2.660 . S
Tb750 N788 2.600 . S
Tb750 O794 2.546 . S
Tb750 O795 2.610 . S
Tb750 O797 2.320 . S
Tb750 O798 2.552 . S
Tb750 O799 2.413 . S
Tb750 O801 2.362 . S
Tb750 O802 2.421 . S
Tb750 C814 2.833 . S
C751 C754 1.432 . S
C751 C755 1.414 . S
C751 N758 1.359 . S
C752 C754 1.417 . S
C752 C756 1.432 . S
C752 C764 1.410 . S
C753 C755 1.444 . S
C753 C756 1.317 . S
C753 H776 0.929 . S
C754 C751 1.432 . S
C754 C752 1.417 . S
C754 N762 1.360 . S
C755 C751 1.414 . S
C755 C753 1.444 . S
C755 C760 1.385 . S
C756 C752 1.432 . S
C756 C753 1.317 . S
C756 H768 0.930 . S
C757 C759 1.392 . S
C757 C760 1.370 . S
C757 H769 0.931 . S
N758 C751 1.359 . S
N758 C759 1.327 . S
N758 Tb761 2.600 . S
C759 C757 1.392 . S
C759 N758 1.327 . S
C759 H766 0.930 . S
C760 C755 1.385 . S
C760 C757 1.370 . S
C760 H779 0.930 . S
Tb761 N758 2.600 . S
Tb761 N762 2.660 . S
Tb761 O795 2.362 . S
Tb761 O796 2.421 . S
Tb761 O800 2.546 . S
Tb761 O801 2.610 . S
Tb761 O803 2.320 . S
Tb761 O804 2.552 . S
Tb761 O805 2.413 . S
Tb761 C825 2.833 . S
N762 C754 1.360 . S
N762 Tb761 2.660 . S
N762 C763 1.305 . S
C763 N762 1.305 . S
C763 C765 1.407 . S
C763 H770 0.930 . S
C764 C752 1.410 . S
C764 C765 1.345 . S
C764 H772 0.930 . S
C765 C763 1.407 . S
C765 C764 1.345 . S
C765 H767 0.930 . S
H766 C759 0.930 . S
H767 C765 0.930 . S
H768 C756 0.930 . S
H769 C757 0.931 . S
H770 C763 0.930 . S
H771 C785 0.930 . S
H772 C764 0.930 . S
H773 C791 0.930 . S
H774 C782 0.930 . S
H775 C789 0.931 . S
H776 C753 0.929 . S
H777 C783 0.930 . S
H778 C816 0.930 . S
H779 C760 0.930 . S
H780 C815 0.929 . S
N781 Tb750 2.660 . S
N781 C782 1.305 . S
N781 C786 1.360 . S
C782 H774 0.930 . S
C782 N781 1.305 . S
C782 C785 1.407 . S
C783 H777 0.930 . S
C783 C784 1.410 . S
C783 C785 1.345 . S
C784 C783 1.410 . S
C784 C786 1.417 . S
C784 C816 1.432 . S
C785 H771 0.930 . S
C785 C782 1.407 . S
C785 C783 1.345 . S
C786 N781 1.360 . S
C786 C784 1.417 . S
C786 C790 1.432 . S
H787 C792 0.930 . S
N788 Tb750 2.600 . S
N788 C790 1.359 . S
N788 C791 1.327 . S
C789 H775 0.931 . S
C789 C791 1.392 . S
C789 C792 1.370 . S
C790 C786 1.432 . S
C790 N788 1.359 . S
C790 C793 1.414 . S
C791 H773 0.930 . S
C791 N788 1.327 . S
C791 C789 1.392 . S
C792 H787 0.930 . S
C792 C789 1.370 . S
C792 C793 1.385 . S
C793 C790 1.414 . S
C793 C792 1.385 . S
C793 C815 1.444 . S
O794 Tb750 2.546 . S
O794 C814 1.251 . S
O795 Tb750 2.610 . S
O795 Tb761 2.362 . S
O795 C806 1.283 . S
O796 Tb761 2.421 . S
O796 C813 1.262 . S
O797 Tb750 2.320 . S
O797 C813 1.260 . S
O798 Tb750 2.552 . S
O798 C806 1.243 . S
O799 Tb750 2.413 . S
O799 C814 1.256 . S
O800 Tb761 2.546 . S
O800 C825 1.251 . S
O801 Tb750 2.362 . S
O801 Tb761 2.610 . S
O801 C817 1.283 . S
O802 Tb750 2.421 . S
O802 C824 1.262 . S
O803 Tb761 2.320 . S
O803 C824 1.260 . S
O804 Tb761 2.552 . S
O804 C817 1.243 . S
O805 Tb761 2.413 . S
O805 C825 1.256 . S
C806 O795 1.283 . S
C806 O798 1.243 . S
C807 C809 1.382 . S
C807 C811 1.393 . S
C807 C814 1.500 . S
C808 C809 1.400 . S
C808 C810 1.384 . S
C809 C807 1.382 . S
C809 C808 1.400 . S
C809 H826 0.930 . S
C810 C808 1.384 . S
C810 C812 1.392 . S
C810 H827 0.931 . S
C811 C807 1.393 . S
C811 C812 1.401 . S
C811 H828 0.930 . S
C812 C810 1.392 . S
C812 C811 1.401 . S
C812 H829 0.930 . S
C813 O796 1.262 . S
C813 O797 1.260 . S
C814 Tb750 2.833 . S
C814 O794 1.251 . S
C814 O799 1.256 . S
C814 C807 1.500 . S
C815 H780 0.929 . S
C815 C793 1.444 . S
C815 C816 1.317 . S
C816 H778 0.930 . S
C816 C784 1.432 . S
C816 C815 1.317 . S
C817 O801 1.283 . S
C817 O804 1.243 . S
C818 C819 1.382 . S
C818 C822 1.393 . S
C818 C825 1.500 . S
C819 C818 1.382 . S
C819 C820 1.400 . S
C819 H830 0.930 . S
C820 C819 1.400 . S
C820 C821 1.384 . S
C821 C820 1.384 . S
C821 C823 1.392 . S
C821 H831 0.931 . S
C822 C818 1.393 . S
C822 C823 1.401 . S
C822 H832 0.930 . S
C823 C821 1.392 . S
C823 C822 1.401 . S
C823 H833 0.930 . S
C824 O802 1.262 . S
C824 O803 1.260 . S
C825 Tb761 2.833 . S
C825 O800 1.251 . S
C825 O805 1.256 . S
C825 C818 1.500 . S
H826 C809 0.930 . S
H827 C810 0.931 . S
H828 C811 0.930 . S
H829 C812 0.930 . S
H830 C819 0.930 . S
H831 C821 0.931 . S
H832 C822 0.930 . S
H833 C823 0.930 . S
Tb834 N865 2.660 . S
Tb834 N872 2.600 . S
Tb834 O878 2.546 . S
Tb834 O879 2.610 . S
Tb834 O881 2.320 . S
Tb834 O882 2.552 . S
Tb834 O883 2.413 . S
Tb834 O885 2.362 . S
Tb834 O886 2.421 . S
Tb834 C898 2.833 . S
C835 C838 1.432 . S
C835 C839 1.414 . S
C835 N842 1.359 . S
C836 C838 1.417 . S
C836 C840 1.432 . S
C836 C848 1.410 . S
C837 C839 1.444 . S
C837 C840 1.317 . S
C837 H860 0.929 . S
C838 C835 1.432 . S
C838 C836 1.417 . S
C838 N846 1.360 . S
C839 C835 1.414 . S
C839 C837 1.444 . S
C839 C844 1.385 . S
C840 C836 1.432 . S
C840 C837 1.317 . S
C840 H852 0.930 . S
C841 C843 1.392 . S
C841 C844 1.370 . S
C841 H853 0.931 . S
N842 C835 1.359 . S
N842 C843 1.327 . S
N842 Tb845 2.600 . S
C843 C841 1.392 . S
C843 N842 1.327 . S
C843 H850 0.930 . S
C844 C839 1.385 . S
C844 C841 1.370 . S
C844 H863 0.930 . S
Tb845 N842 2.600 . S
Tb845 N846 2.660 . S
Tb845 O879 2.362 . S
Tb845 O880 2.421 . S
Tb845 O884 2.546 . S
Tb845 O885 2.610 . S
Tb845 O887 2.320 . S
Tb845 O888 2.552 . S
Tb845 O889 2.413 . S
Tb845 C909 2.833 . S
N846 C838 1.360 . S
N846 Tb845 2.660 . S
N846 C847 1.305 . S
C847 N846 1.305 . S
C847 C849 1.407 . S
C847 H854 0.930 . S
C848 C836 1.410 . S
C848 C849 1.345 . S
C848 H856 0.930 . S
C849 C847 1.407 . S
C849 C848 1.345 . S
C849 H851 0.930 . S
H850 C843 0.930 . S
H851 C849 0.930 . S
H852 C840 0.930 . S
H853 C841 0.931 . S
H854 C847 0.930 . S
H855 C869 0.930 . S
H856 C848 0.930 . S
H857 C875 0.930 . S
H858 C866 0.930 . S
H859 C873 0.931 . S
H860 C837 0.929 . S
H861 C867 0.930 . S
H862 C900 0.930 . S
H863 C844 0.930 . S
H864 C899 0.929 . S
N865 Tb834 2.660 . S
N865 C866 1.305 . S
N865 C870 1.360 . S
C866 H858 0.930 . S
C866 N865 1.305 . S
C866 C869 1.407 . S
C867 H861 0.930 . S
C867 C868 1.410 . S
C867 C869 1.345 . S
C868 C867 1.410 . S
C868 C870 1.417 . S
C868 C900 1.432 . S
C869 H855 0.930 . S
C869 C866 1.407 . S
C869 C867 1.345 . S
C870 N865 1.360 . S
C870 C868 1.417 . S
C870 C874 1.432 . S
H871 C876 0.930 . S
N872 Tb834 2.600 . S
N872 C874 1.359 . S
N872 C875 1.327 . S
C873 H859 0.931 . S
C873 C875 1.392 . S
C873 C876 1.370 . S
C874 C870 1.432 . S
C874 N872 1.359 . S
C874 C877 1.414 . S
C875 H857 0.930 . S
C875 N872 1.327 . S
C875 C873 1.392 . S
C876 H871 0.930 . S
C876 C873 1.370 . S
C876 C877 1.385 . S
C877 C874 1.414 . S
C877 C876 1.385 . S
C877 C899 1.444 . S
O878 Tb834 2.546 . S
O878 C898 1.251 . S
O879 Tb834 2.610 . S
O879 Tb845 2.362 . S
O879 C890 1.283 . S
O880 Tb845 2.421 . S
O880 C897 1.262 . S
O881 Tb834 2.320 . S
O881 C897 1.260 . S
O882 Tb834 2.552 . S
O882 C890 1.243 . S
O883 Tb834 2.413 . S
O883 C898 1.256 . S
O884 Tb845 2.546 . S
O884 C909 1.251 . S
O885 Tb834 2.362 . S
O885 Tb845 2.610 . S
O885 C901 1.283 . S
O886 Tb834 2.421 . S
O886 C908 1.262 . S
O887 Tb845 2.320 . S
O887 C908 1.260 . S
O888 Tb845 2.552 . S
O888 C901 1.243 . S
O889 Tb845 2.413 . S
O889 C909 1.256 . S
C890 O879 1.283 . S
C890 O882 1.243 . S
C891 C893 1.382 . S
C891 C895 1.393 . S
C891 C898 1.500 . S
C892 C893 1.400 . S
C892 C894 1.384 . S
C893 C891 1.382 . S
C893 C892 1.400 . S
C893 H910 0.930 . S
C894 C892 1.384 . S
C894 C896 1.392 . S
C894 H911 0.931 . S
C895 C891 1.393 . S
C895 C896 1.401 . S
C895 H912 0.930 . S
C896 C894 1.392 . S
C896 C895 1.401 . S
C896 H913 0.930 . S
C897 O880 1.262 . S
C897 O881 1.260 . S
C898 Tb834 2.833 . S
C898 O878 1.251 . S
C898 O883 1.256 . S
C898 C891 1.500 . S
C899 H864 0.929 . S
C899 C877 1.444 . S
C899 C900 1.317 . S
C900 H862 0.930 . S
C900 C868 1.432 . S
C900 C899 1.317 . S
C901 O885 1.283 . S
C901 O888 1.243 . S
C902 C903 1.382 . S
C902 C906 1.393 . S
C902 C909 1.500 . S
C903 C902 1.382 . S
C903 C904 1.400 . S
C903 H914 0.930 . S
C904 C903 1.400 . S
C904 C905 1.384 . S
C905 C904 1.384 . S
C905 C907 1.392 . S
C905 H915 0.931 . S
C906 C902 1.393 . S
C906 C907 1.401 . S
C906 H916 0.930 . S
C907 C905 1.392 . S
C907 C906 1.401 . S
C907 H917 0.930 . S
C908 O886 1.262 . S
C908 O887 1.260 . S
C909 Tb845 2.833 . S
C909 O884 1.251 . S
C909 O889 1.256 . S
C909 C902 1.500 . S
H910 C893 0.930 . S
H911 C894 0.931 . S
H912 C895 0.930 . S
H913 C896 0.930 . S
H914 C903 0.930 . S
H915 C905 0.931 . S
H916 C906 0.930 . S
H917 C907 0.930 . S
C918 C919 1.391 . S
C918 C920 1.394 . S
C918 H934 0.931 . S
C919 C918 1.391 . S
C919 C923 1.376 . S
C920 C918 1.394 . S
C920 C921 1.369 . S
C920 C924 1.531 . S
C921 C920 1.369 . S
C921 C922 1.410 . S
C921 C929 1.503 . S
C922 C921 1.410 . S
C922 C923 1.392 . S
C922 C925 1.511 . S
C923 C919 1.376 . S
C923 C922 1.392 . S
C923 H935 0.929 . S
C924 C920 1.531 . S
C924 H936 0.960 . S
C924 H937 0.962 . S
C924 H938 0.960 . S
C925 C922 1.511 . S
C925 H939 0.961 . S
C925 H940 0.961 . S
C925 H941 0.961 . S
C926 C927 1.370 . S
C926 C928 1.363 . S
C926 H942 0.931 . S
C927 C926 1.370 . S
C927 C931 1.408 . S
C928 C926 1.363 . S
C928 C929 1.370 . S
C928 C932 1.524 . S
C929 C921 1.503 . S
C929 C928 1.370 . S
C929 C930 1.403 . S
C930 C929 1.403 . S
C930 C931 1.404 . S
C930 C933 1.539 . S
C931 C927 1.408 . S
C931 C930 1.404 . S
C931 H943 0.930 . S
C932 C928 1.524 . S
C932 H944 0.956 . S
C932 H945 0.961 . S
C932 H946 0.961 . S
C933 C930 1.539 . S
C933 H947 0.958 . S
C933 H948 0.961 . S
C933 H949 0.960 . S
H934 C918 0.931 . S
H935 C923 0.929 . S
H936 C924 0.960 . S
H937 C924 0.962 . S
H938 C924 0.960 . S
H939 C925 0.961 . S
H940 C925 0.961 . S
H941 C925 0.961 . S
H942 C926 0.931 . S
H943 C931 0.930 . S
H944 C932 0.956 . S
H945 C932 0.961 . S
H946 C932 0.961 . S
H947 C933 0.958 . S
H948 C933 0.961 . S
H949 C933 0.960 . S
C950 C951 1.391 . S
C950 C952 1.394 . S
C950 H966 0.931 . S
C951 C950 1.391 . S
C951 C955 1.376 . S
C952 C950 1.394 . S
C952 C953 1.369 . S
C952 C956 1.531 . S
C953 C952 1.369 . S
C953 C954 1.410 . S
C953 C961 1.503 . S
C954 C953 1.410 . S
C954 C955 1.392 . S
C954 C957 1.511 . S
C955 C951 1.376 . S
C955 C954 1.392 . S
C955 H967 0.929 . S
C956 C952 1.531 . S
C956 H968 0.960 . S
C956 H969 0.962 . S
C956 H970 0.960 . S
C957 C954 1.511 . S
C957 H971 0.961 . S
C957 H972 0.961 . S
C957 H973 0.961 . S
C958 C959 1.370 . S
C958 C960 1.363 . S
C958 H974 0.931 . S
C959 C958 1.370 . S
C959 C963 1.408 . S
C960 C958 1.363 . S
C960 C961 1.370 . S
C960 C964 1.524 . S
C961 C953 1.503 . S
C961 C960 1.370 . S
C961 C962 1.403 . S
C962 C961 1.403 . S
C962 C963 1.404 . S
C962 C965 1.539 . S
C963 C959 1.408 . S
C963 C962 1.404 . S
C963 H975 0.930 . S
C964 C960 1.524 . S
C964 H976 0.956 . S
C964 H977 0.961 . S
C964 H978 0.961 . S
C965 C962 1.539 . S
C965 H979 0.958 . S
C965 H980 0.961 . S
C965 H981 0.960 . S
H966 C950 0.931 . S
H967 C955 0.929 . S
H968 C956 0.960 . S
H969 C956 0.962 . S
H970 C956 0.960 . S
H971 C957 0.961 . S
H972 C957 0.961 . S
H973 C957 0.961 . S
H974 C958 0.931 . S
H975 C963 0.930 . S
H976 C964 0.956 . S
H977 C964 0.961 . S
H978 C964 0.961 . S
H979 C965 0.958 . S
H980 C965 0.961 . S
H981 C965 0.960 . S
C982 C983 1.391 . S
C982 C984 1.394 . S
C982 H998 0.931 . S
C983 C982 1.391 . S
C983 C987 1.376 . S
C984 C982 1.394 . S
C984 C985 1.369 . S
C984 C988 1.531 . S
C985 C984 1.369 . S
C985 C986 1.410 . S
C985 C993 1.503 . S
C986 C985 1.410 . S
C986 C987 1.392 . S
C986 C989 1.511 . S
C987 C983 1.376 . S
C987 C986 1.392 . S
C987 H999 0.929 . S
C988 C984 1.531 . S
C988 H1000 0.960 . S
C988 H1001 0.962 . S
C988 H1002 0.960 . S
C989 C986 1.511 . S
C989 H1003 0.961 . S
C989 H1004 0.961 . S
C989 H1005 0.961 . S
C990 C991 1.370 . S
C990 C992 1.363 . S
C990 H1006 0.931 . S
C991 C990 1.370 . S
C991 C995 1.408 . S
C992 C990 1.363 . S
C992 C993 1.370 . S
C992 C996 1.524 . S
C993 C985 1.503 . S
C993 C992 1.370 . S
C993 C994 1.403 . S
C994 C993 1.403 . S
C994 C995 1.404 . S
C994 C997 1.539 . S
C995 C991 1.408 . S
C995 C994 1.404 . S
C995 H1007 0.888 1_554 S
C996 C992 1.524 . S
C996 H1008 0.956 . S
C996 H1009 0.961 . S
C996 H1010 0.961 . S
C997 C994 1.539 . S
C997 H1011 0.958 . S
C997 H1012 0.961 1_554 S
C997 H1013 0.960 . S
H998 C982 0.931 . S
H999 C987 0.929 . S
H1000 C988 0.960 . S
H1001 C988 0.962 . S
H1002 C988 0.960 . S
H1003 C989 0.961 . S
H1004 C989 0.961 . S
H1005 C989 0.961 . S
H1006 C990 0.931 . S
H1007 C995 0.888 1_556 S
H1008 C996 0.956 . S
H1009 C996 0.961 . S
H1010 C996 0.961 . S
H1011 C997 0.958 . S
H1012 C997 0.961 1_556 S
H1013 C997 0.960 . S
C1014 C1015 1.391 . S
C1014 C1016 1.394 . S
C1014 H1030 0.931 . S
C1015 C1014 1.391 . S
C1015 C1019 1.376 . S
C1016 C1014 1.394 . S
C1016 C1017 1.369 . S
C1016 C1020 1.531 . S
C1017 C1016 1.369 . S
C1017 C1018 1.410 . S
C1017 C1025 1.503 . S
C1018 C1017 1.410 . S
C1018 C1019 1.392 . S
C1018 C1021 1.511 . S
C1019 C1015 1.376 . S
C1019 C1018 1.392 . S
C1019 H1031 0.929 . S
C1020 C1016 1.531 . S
C1020 H1032 0.960 . S
C1020 H1033 0.962 . S
C1020 H1034 0.960 . S
C1021 C1018 1.511 . S
C1021 H1035 0.961 . S
C1021 H1036 0.961 . S
C1021 H1037 0.961 . S
C1022 C1023 1.370 . S
C1022 C1024 1.363 . S
C1022 H1038 0.931 1_556 S
C1023 C1022 1.370 . S
C1023 C1027 1.408 . S
C1024 C1022 1.363 . S
C1024 C1025 1.370 . S
C1024 C1028 1.524 . S
C1025 C1017 1.503 . S
C1025 C1024 1.370 . S
C1025 C1026 1.403 . S
C1026 C1025 1.403 . S
C1026 C1027 1.404 . S
C1026 C1029 1.539 . S
C1027 C1023 1.408 . S
C1027 C1026 1.404 . S
C1027 H1039 0.930 . S
C1028 C1024 1.524 . S
C1028 H1040 0.956 . S
C1028 H1041 0.961 . S
C1028 H1042 0.949 1_556 S
C1029 C1026 1.539 . S
C1029 H1043 0.958 . S
C1029 H1044 0.961 . S
C1029 H1045 0.960 . S
H1030 C1014 0.931 . S
H1031 C1019 0.929 . S
H1032 C1020 0.960 . S
H1033 C1020 0.962 . S
H1034 C1020 0.960 . S
H1035 C1021 0.961 . S
H1036 C1021 0.961 . S
H1037 C1021 0.961 . S
H1038 C1022 0.931 1_554 S
H1039 C1027 0.930 . S
H1040 C1028 0.956 . S
H1041 C1028 0.961 . S
H1042 C1028 0.949 1_554 S
H1043 C1029 0.958 . S
H1044 C1029 0.961 . S
H1045 C1029 0.960 . S
C1046 C1047 1.391 . S
C1046 C1048 1.394 . S
C1046 H1062 0.931 . S
C1047 C1046 1.391 . S
C1047 C1051 1.376 . S
C1048 C1046 1.394 . S
C1048 C1049 1.369 . S
C1048 C1052 1.531 . S
C1049 C1048 1.369 . S
C1049 C1050 1.410 . S
C1049 C1057 1.503 . S
C1050 C1049 1.410 . S
C1050 C1051 1.392 . S
C1050 C1053 1.511 . S
C1051 C1047 1.376 . S
C1051 C1050 1.392 . S
C1051 H1063 0.929 . S
C1052 C1048 1.531 . S
C1052 H1064 0.960 . S
C1052 H1065 0.962 . S
C1052 H1066 0.960 . S
C1053 C1050 1.511 . S
C1053 H1067 0.961 . S
C1053 H1068 0.961 . S
C1053 H1069 0.961 . S
C1054 C1055 1.370 . S
C1054 C1056 1.363 . S
C1054 H1070 0.931 . S
C1055 C1054 1.370 . S
C1055 C1059 1.408 . S
C1056 C1054 1.363 . S
C1056 C1057 1.370 . S
C1056 C1060 1.524 . S
C1057 C1049 1.503 . S
C1057 C1056 1.370 . S
C1057 C1058 1.403 . S
C1058 C1057 1.403 . S
C1058 C1059 1.404 . S
C1058 C1061 1.539 . S
C1059 C1055 1.408 . S
C1059 C1058 1.404 . S
C1059 H1071 0.930 . S
C1060 C1056 1.524 . S
C1060 H1072 0.956 . S
C1060 H1073 0.961 . S
C1060 H1074 0.961 . S
C1061 C1058 1.539 . S
C1061 H1075 0.958 . S
C1061 H1076 0.961 . S
C1061 H1077 0.960 . S
H1062 C1046 0.931 . S
H1063 C1051 0.929 . S
H1064 C1052 0.960 . S
H1065 C1052 0.962 . S
H1066 C1052 0.960 . S
H1067 C1053 0.961 . S
H1068 C1053 0.961 . S
H1069 C1053 0.961 . S
H1070 C1054 0.931 . S
H1071 C1059 0.930 . S
H1072 C1060 0.956 . S
H1073 C1060 0.961 . S
H1074 C1060 0.961 . S
H1075 C1061 0.958 . S
H1076 C1061 0.961 . S
H1077 C1061 0.960 . S
C1078 C1079 1.391 . S
C1078 C1080 1.394 . S
C1078 H1094 0.931 . S
C1079 C1078 1.391 . S
C1079 C1083 1.376 . S
C1080 C1078 1.394 . S
C1080 C1081 1.369 . S
C1080 C1084 1.531 . S
C1081 C1080 1.369 . S
C1081 C1082 1.410 . S
C1081 C1089 1.503 . S
C1082 C1081 1.410 . S
C1082 C1083 1.392 . S
C1082 C1085 1.511 . S
C1083 C1079 1.376 . S
C1083 C1082 1.392 . S
C1083 H1095 0.929 . S
C1084 C1080 1.531 . S
C1084 H1096 0.960 . S
C1084 H1097 0.962 . S
C1084 H1098 0.960 . S
C1085 C1082 1.511 . S
C1085 H1099 0.961 . S
C1085 H1100 0.961 . S
C1085 H1101 0.961 . S
C1086 C1087 1.370 . S
C1086 C1088 1.363 . S
C1086 H1102 0.931 . S
C1087 C1086 1.370 . S
C1087 C1091 1.408 . S
C1088 C1086 1.363 . S
C1088 C1089 1.370 . S
C1088 C1092 1.524 . S
C1089 C1081 1.503 . S
C1089 C1088 1.370 . S
C1089 C1090 1.403 . S
C1090 C1089 1.403 . S
C1090 C1091 1.404 . S
C1090 C1093 1.539 . S
C1091 C1087 1.408 . S
C1091 C1090 1.404 . S
C1091 H1103 0.930 . S
C1092 C1088 1.524 . S
C1092 H1104 0.956 . S
C1092 H1105 0.961 . S
C1092 H1106 0.961 . S
C1093 C1090 1.539 . S
C1093 H1107 0.958 . S
C1093 H1108 0.961 . S
C1093 H1109 0.960 . S
H1094 C1078 0.931 . S
H1095 C1083 0.929 . S
H1096 C1084 0.960 . S
H1097 C1084 0.962 . S
H1098 C1084 0.960 . S
H1099 C1085 0.961 . S
H1100 C1085 0.961 . S
H1101 C1085 0.961 . S
H1102 C1086 0.931 . S
H1103 C1091 0.930 . S
H1104 C1092 0.956 . S
H1105 C1092 0.961 . S
H1106 C1092 0.961 . S
H1107 C1093 0.958 . S
H1108 C1093 0.961 . S
H1109 C1093 0.960 . S
C1110 C1111 1.391 . S
C1110 C1112 1.394 . S
C1110 H1126 0.931 . S
C1111 C1110 1.391 . S
C1111 C1115 1.376 . S
C1112 C1110 1.394 . S
C1112 C1113 1.369 . S
C1112 C1116 1.531 . S
C1113 C1112 1.369 . S
C1113 C1114 1.410 . S
C1113 C1121 1.503 . S
C1114 C1113 1.410 . S
C1114 C1115 1.392 . S
C1114 C1117 1.511 . S
C1115 C1111 1.376 . S
C1115 C1114 1.392 . S
C1115 H1127 0.929 . S
C1116 C1112 1.531 . S
C1116 H1128 0.960 . S
C1116 H1129 0.962 . S
C1116 H1130 0.960 . S
C1117 C1114 1.511 . S
C1117 H1131 0.961 . S
C1117 H1132 0.961 . S
C1117 H1133 0.961 . S
C1118 C1119 1.370 . S
C1118 C1120 1.363 . S
C1118 H1134 0.931 . S
C1119 C1118 1.370 . S
C1119 C1123 1.408 . S
C1120 C1118 1.363 . S
C1120 C1121 1.370 . S
C1120 C1124 1.524 . S
C1121 C1113 1.503 . S
C1121 C1120 1.370 . S
C1121 C1122 1.403 . S
C1122 C1121 1.403 . S
C1122 C1123 1.404 . S
C1122 C1125 1.539 . S
C1123 C1119 1.408 . S
C1123 C1122 1.404 . S
C1123 H1135 0.896 1_556 S
C1124 C1120 1.524 . S
C1124 H1136 0.956 . S
C1124 H1137 0.961 . S
C1124 H1138 0.961 . S
C1125 C1122 1.539 . S
C1125 H1139 0.958 1_556 S
C1125 H1140 0.961 . S
C1125 H1141 0.960 . S
H1126 C1110 0.931 . S
H1127 C1115 0.929 . S
H1128 C1116 0.960 . S
H1129 C1116 0.962 . S
H1130 C1116 0.960 . S
H1131 C1117 0.961 . S
H1132 C1117 0.961 . S
H1133 C1117 0.961 . S
H1134 C1118 0.931 . S
H1135 C1123 0.896 1_554 S
H1136 C1124 0.956 . S
H1137 C1124 0.961 . S
H1138 C1124 0.961 . S
H1139 C1125 0.958 1_554 S
H1140 C1125 0.961 . S
H1141 C1125 0.960 . S
C1142 C1143 1.391 . S
C1142 C1144 1.394 . S
C1142 H1158 0.931 . S
C1143 C1142 1.391 . S
C1143 C1147 1.376 . S
C1144 C1142 1.394 . S
C1144 C1145 1.369 . S
C1144 C1148 1.531 . S
C1145 C1144 1.369 . S
C1145 C1146 1.410 . S
C1145 C1153 1.503 . S
C1146 C1145 1.410 . S
C1146 C1147 1.392 . S
C1146 C1149 1.511 . S
C1147 C1143 1.376 . S
C1147 C1146 1.392 . S
C1147 H1159 0.929 . S
C1148 C1144 1.531 . S
C1148 H1160 0.960 . S
C1148 H1161 0.962 . S
C1148 H1162 0.960 . S
C1149 C1146 1.511 . S
C1149 H1163 0.961 . S
C1149 H1164 0.961 . S
C1149 H1165 0.961 . S
C1150 C1151 1.370 . S
C1150 C1152 1.363 . S
C1150 H1166 0.931 . S
C1151 C1150 1.370 . S
C1151 C1155 1.408 . S
C1152 C1150 1.363 . S
C1152 C1153 1.370 . S
C1152 C1156 1.524 . S
C1153 C1145 1.503 . S
C1153 C1152 1.370 . S
C1153 C1154 1.403 . S
C1154 C1153 1.403 . S
C1154 C1155 1.404 . S
C1154 C1157 1.539 1_556 S
C1155 C1151 1.408 . S
C1155 C1154 1.404 . S
C1155 H1167 0.930 1_556 S
C1156 C1152 1.524 . S
C1156 H1168 0.956 . S
C1156 H1169 0.961 . S
C1156 H1170 0.961 . S
C1157 C1154 1.539 1_554 S
C1157 H1171 0.958 . S
C1157 H1172 0.961 . S
C1157 H1173 0.960 1_554 S
H1158 C1142 0.931 . S
H1159 C1147 0.929 . S
H1160 C1148 0.960 . S
H1161 C1148 0.962 . S
H1162 C1148 0.960 . S
H1163 C1149 0.961 . S
H1164 C1149 0.961 . S
H1165 C1149 0.961 . S
H1166 C1150 0.931 . S
H1167 C1155 0.930 1_554 S
H1168 C1156 0.956 . S
H1169 C1156 0.961 . S
H1170 C1156 0.961 . S
H1171 C1157 0.958 . S
H1172 C1157 0.961 . S
H1173 C1157 0.960 1_556 S
C1174 C1175 1.391 . S
C1174 C1176 1.394 . S
C1174 H1190 0.931 . S
C1175 C1174 1.391 . S
C1175 C1179 1.376 . S
C1176 C1174 1.394 . S
C1176 C1177 1.369 . S
C1176 C1180 1.531 . S
C1177 C1176 1.369 . S
C1177 C1178 1.410 . S
C1177 C1185 1.503 . S
C1178 C1177 1.410 . S
C1178 C1179 1.392 . S
C1178 C1181 1.511 . S
C1179 C1175 1.376 . S
C1179 C1178 1.392 . S
C1179 H1191 0.929 . S
C1180 C1176 1.531 . S
C1180 H1192 0.960 . S
C1180 H1193 0.962 . S
C1180 H1194 0.960 . S
C1181 C1178 1.511 . S
C1181 H1195 0.961 . S
C1181 H1196 0.961 . S
C1181 H1197 0.961 . S
C1182 C1183 1.370 . S
C1182 C1184 1.363 . S
C1182 H1198 0.931 . S
C1183 C1182 1.370 . S
C1183 C1187 1.408 . S
C1184 C1182 1.363 . S
C1184 C1185 1.370 . S
C1184 C1188 1.524 . S
C1185 C1177 1.503 . S
C1185 C1184 1.370 . S
C1185 C1186 1.403 . S
C1186 C1185 1.403 . S
C1186 C1187 1.404 . S
C1186 C1189 1.563 . S
C1187 C1183 1.408 . S
C1187 C1186 1.404 . S
C1187 H1199 0.930 1_556 S
C1188 C1184 1.524 . S
C1188 H1200 0.956 . S
C1188 H1201 0.961 . S
C1188 H1202 0.961 . S
C1189 C1186 1.563 . S
C1189 H1203 0.925 1_556 S
C1189 H1204 0.943 1_556 S
C1189 H1205 0.989 . S
H1190 C1174 0.931 . S
H1191 C1179 0.929 . S
H1192 C1180 0.960 . S
H1193 C1180 0.962 . S
H1194 C1180 0.960 . S
H1195 C1181 0.961 . S
H1196 C1181 0.961 . S
H1197 C1181 0.961 . S
H1198 C1182 0.931 . S
H1199 C1187 0.930 1_554 S
H1200 C1188 0.956 . S
H1201 C1188 0.961 . S
H1202 C1188 0.961 . S
H1203 C1189 0.925 1_554 S
H1204 C1189 0.943 1_554 S
H1205 C1189 0.989 . S
C1206 C1207 1.391 . S
C1206 C1208 1.394 . S
C1206 H1222 0.931 . S
C1207 C1206 1.391 . S
C1207 C1211 1.376 . S
C1208 C1206 1.394 . S
C1208 C1209 1.369 . S
C1208 C1212 1.531 . S
C1209 C1208 1.369 . S
C1209 C1210 1.410 . S
C1209 C1217 1.503 . S
C1210 C1209 1.410 . S
C1210 C1211 1.392 . S
C1210 C1213 1.511 . S
C1211 C1207 1.376 . S
C1211 C1210 1.392 . S
C1211 H1223 0.929 . S
C1212 C1208 1.531 . S
C1212 H1224 0.960 . S
C1212 H1225 0.962 . S
C1212 H1226 0.960 . S
C1213 C1210 1.511 . S
C1213 H1227 0.961 . S
C1213 H1228 0.961 . S
C1213 H1229 0.961 . S
C1214 C1215 1.370 . S
C1214 C1216 1.363 . S
C1214 H1230 0.931 . S
C1215 C1214 1.370 . S
C1215 C1219 1.408 . S
C1216 C1214 1.363 . S
C1216 C1217 1.370 . S
C1216 C1220 1.524 . S
C1217 C1209 1.503 . S
C1217 C1216 1.370 . S
C1217 C1218 1.403 . S
C1218 C1217 1.403 . S
C1218 C1219 1.404 . S
C1218 C1221 1.539 . S
C1219 C1215 1.408 . S
C1219 C1218 1.404 . S
C1219 H1231 0.930 . S
C1220 C1216 1.524 . S
C1220 H1232 0.956 . S
C1220 H1233 0.961 . S
C1220 H1234 0.961 . S
C1221 C1218 1.539 . S
C1221 H1235 0.958 . S
C1221 H1236 0.900 1_554 S
C1221 H1237 0.960 . S
H1222 C1206 0.931 . S
H1223 C1211 0.929 . S
H1224 C1212 0.960 . S
H1225 C1212 0.962 . S
H1226 C1212 0.960 . S
H1227 C1213 0.961 . S
H1228 C1213 0.961 . S
H1229 C1213 0.961 . S
H1230 C1214 0.931 . S
H1231 C1219 0.930 . S
H1232 C1220 0.956 . S
H1233 C1220 0.961 . S
H1234 C1220 0.961 . S
H1235 C1221 0.958 . S
H1236 C1221 0.900 1_556 S
H1237 C1221 0.960 . S
C1238 C1239 1.391 . S
C1238 C1240 1.394 . S
C1238 H1254 0.931 . S
C1239 C1238 1.391 . S
C1239 C1243 1.376 . S
C1240 C1238 1.394 . S
C1240 C1241 1.369 . S
C1240 C1244 1.531 . S
C1241 C1240 1.369 . S
C1241 C1242 1.410 . S
C1241 C1249 1.503 . S
C1242 C1241 1.410 . S
C1242 C1243 1.392 . S
C1242 C1245 1.511 . S
C1243 C1239 1.376 . S
C1243 C1242 1.392 . S
C1243 H1255 0.929 . S
C1244 C1240 1.531 . S
C1244 H1256 0.960 . S
C1244 H1257 0.962 . S
C1244 H1258 0.960 . S
C1245 C1242 1.511 . S
C1245 H1259 0.961 . S
C1245 H1260 0.961 . S
C1245 H1261 0.961 . S
C1246 C1247 1.370 . S
C1246 C1248 1.363 . S
C1246 H1262 0.931 . S
C1247 C1246 1.370 . S
C1247 C1251 1.408 . S
C1248 C1246 1.363 . S
C1248 C1249 1.370 . S
C1248 C1252 1.524 . S
C1249 C1241 1.503 . S
C1249 C1248 1.370 . S
C1249 C1250 1.403 . S
C1250 C1249 1.403 . S
C1250 C1251 1.404 . S
C1250 C1253 1.539 . S
C1251 C1247 1.408 . S
C1251 C1250 1.404 . S
C1251 H1263 0.930 . S
C1252 C1248 1.524 . S
C1252 H1264 0.956 . S
C1252 H1265 0.961 . S
C1252 H1266 0.961 . S
C1253 C1250 1.539 . S
C1253 H1267 0.958 . S
C1253 H1268 0.961 . S
C1253 H1269 0.960 . S
H1254 C1238 0.931 . S
H1255 C1243 0.929 . S
H1256 C1244 0.960 . S
H1257 C1244 0.962 . S
H1258 C1244 0.960 . S
H1259 C1245 0.961 . S
H1260 C1245 0.961 . S
H1261 C1245 0.961 . S
H1262 C1246 0.931 . S
H1263 C1251 0.930 . S
H1264 C1252 0.956 . S
H1265 C1252 0.961 . S
H1266 C1252 0.961 . S
H1267 C1253 0.958 . S
H1268 C1253 0.961 . S
H1269 C1253 0.960 . S
C1270 C1271 1.391 . S
C1270 C1272 1.394 . S
C1270 H1286 0.931 . S
C1271 C1270 1.391 . S
C1271 C1275 1.376 . S
C1272 C1270 1.394 . S
C1272 C1273 1.369 . S
C1272 C1276 1.531 . S
C1273 C1272 1.369 . S
C1273 C1274 1.410 . S
C1273 C1281 1.503 . S
C1274 C1273 1.410 . S
C1274 C1275 1.392 . S
C1274 C1277 1.511 . S
C1275 C1271 1.376 . S
C1275 C1274 1.392 . S
C1275 H1287 0.929 . S
C1276 C1272 1.531 . S
C1276 H1288 0.960 . S
C1276 H1289 0.962 . S
C1276 H1290 0.960 . S
C1277 C1274 1.511 . S
C1277 H1291 0.961 . S
C1277 H1292 0.961 . S
C1277 H1293 0.961 . S
C1278 C1279 1.370 . S
C1278 C1280 1.363 . S
C1278 H1294 0.931 . S
C1279 C1278 1.370 . S
C1279 C1283 1.408 . S
C1280 C1278 1.363 . S
C1280 C1281 1.370 . S
C1280 C1284 1.524 . S
C1281 C1273 1.503 . S
C1281 C1280 1.370 . S
C1281 C1282 1.403 . S
C1282 C1281 1.403 . S
C1282 C1283 1.404 . S
C1282 C1285 1.539 . S
C1283 C1279 1.408 . S
C1283 C1282 1.404 . S
C1283 H1295 0.930 . S
C1284 C1280 1.524 . S
C1284 H1296 0.956 . S
C1284 H1297 0.961 . S
C1284 H1298 0.961 . S
C1285 C1282 1.539 . S
C1285 H1299 0.958 . S
C1285 H1300 0.961 . S
C1285 H1301 0.960 . S
H1286 C1270 0.931 . S
H1287 C1275 0.929 . S
H1288 C1276 0.960 . S
H1289 C1276 0.962 . S
H1290 C1276 0.960 . S
H1291 C1277 0.961 . S
H1292 C1277 0.961 . S
H1293 C1277 0.961 . S
H1294 C1278 0.931 . S
H1295 C1283 0.930 . S
H1296 C1284 0.956 . S
H1297 C1284 0.961 . S
H1298 C1284 0.961 . S
H1299 C1285 0.958 . S
H1300 C1285 0.961 . S
H1301 C1285 0.960 . S
C1302 C1303 1.391 . S
C1302 C1304 1.394 . S
C1302 H1318 0.931 . S
C1303 C1302 1.391 . S
C1303 C1307 1.376 . S
C1304 C1302 1.394 . S
C1304 C1305 1.369 1_655 S
C1304 C1308 1.531 1_655 S
C1305 C1304 1.369 1_455 S
C1305 C1306 1.410 1_455 S
C1305 C1313 1.503 . S
C1306 C1305 1.410 1_655 S
C1306 C1307 1.392 . S
C1306 C1309 1.511 . S
C1307 C1303 1.376 . S
C1307 C1306 1.392 . S
C1307 H1319 0.929 . S
C1308 C1304 1.531 1_455 S
C1308 H1320 0.960 . S
C1308 H1321 0.962 . S
C1308 H1322 0.960 . S
C1309 C1306 1.511 . S
C1309 H1323 0.961 . S
C1309 H1324 0.961 . S
C1309 H1325 0.961 . S
C1310 C1311 1.370 . S
C1310 C1312 1.363 . S
C1310 H1326 0.931 . S
C1311 C1310 1.370 . S
C1311 C1315 1.408 . S
C1312 C1310 1.363 . S
C1312 C1313 1.370 . S
C1312 C1316 1.524 . S
C1313 C1305 1.503 . S
C1313 C1312 1.370 . S
C1313 C1314 1.403 . S
C1314 C1313 1.403 . S
C1314 C1315 1.404 . S
C1314 C1317 1.539 . S
C1315 C1311 1.408 . S
C1315 C1314 1.404 . S
C1315 H1327 0.930 . S
C1316 C1312 1.524 . S
C1316 H1328 0.956 . S
C1316 H1329 0.961 1_455 S
C1316 H1330 0.961 . S
C1317 C1314 1.539 . S
C1317 H1331 0.958 . S
C1317 H1332 0.961 . S
C1317 H1333 0.960 . S
H1318 C1302 0.931 . S
H1319 C1307 0.929 . S
H1320 C1308 0.960 . S
H1321 C1308 0.962 . S
H1322 C1308 0.960 . S
H1323 C1309 0.961 . S
H1324 C1309 0.961 . S
H1325 C1309 0.961 . S
H1326 C1310 0.931 . S
H1327 C1315 0.930 . S
H1328 C1316 0.956 . S
H1329 C1316 0.961 1_655 S
H1330 C1316 0.961 . S
H1331 C1317 0.958 . S
H1332 C1317 0.961 . S
H1333 C1317 0.960 . S
C1334 C1335 1.391 . S
C1334 C1336 1.394 . S
C1334 H1350 0.931 . S
C1335 C1334 1.391 . S
C1335 C1339 1.376 . S
C1336 C1334 1.394 . S
C1336 C1337 1.369 . S
C1336 C1340 1.531 . S
C1337 C1336 1.369 . S
C1337 C1338 1.410 . S
C1337 C1345 1.503 . S
C1338 C1337 1.410 . S
C1338 C1339 1.392 . S
C1338 C1341 1.511 . S
C1339 C1335 1.376 . S
C1339 C1338 1.392 . S
C1339 H1351 0.929 . S
C1340 C1336 1.531 . S
C1340 H1352 0.960 . S
C1340 H1353 0.962 . S
C1340 H1354 0.960 . S
C1341 C1338 1.511 . S
C1341 H1355 0.961 . S
C1341 H1356 0.961 . S
C1341 H1357 0.961 . S
C1342 C1343 1.370 . S
C1342 C1344 1.363 . S
C1342 H1358 0.931 . S
C1343 C1342 1.370 . S
C1343 C1347 1.408 . S
C1344 C1342 1.363 . S
C1344 C1345 1.370 . S
C1344 C1348 1.524 . S
C1345 C1337 1.503 . S
C1345 C1344 1.370 . S
C1345 C1346 1.403 . S
C1346 C1345 1.403 . S
C1346 C1347 1.404 . S
C1346 C1349 1.539 . S
C1347 C1343 1.408 . S
C1347 C1346 1.404 . S
C1347 H1359 0.930 . S
C1348 C1344 1.524 . S
C1348 H1360 0.956 . S
C1348 H1361 0.961 . S
C1348 H1362 0.961 . S
C1349 C1346 1.539 . S
C1349 H1363 0.958 . S
C1349 H1364 0.961 . S
C1349 H1365 0.960 . S
H1350 C1334 0.931 . S
H1351 C1339 0.929 . S
H1352 C1340 0.960 . S
H1353 C1340 0.962 . S
H1354 C1340 0.960 . S
H1355 C1341 0.961 . S
H1356 C1341 0.961 . S
H1357 C1341 0.961 . S
H1358 C1342 0.931 . S
H1359 C1347 0.930 . S
H1360 C1348 0.956 . S
H1361 C1348 0.961 . S
H1362 C1348 0.961 . S
H1363 C1349 0.958 . S
H1364 C1349 0.961 . S
H1365 C1349 0.960 . S
C1366 C1367 1.391 . S
C1366 C1368 1.394 . S
C1366 H1382 0.931 . S
C1367 C1366 1.391 . S
C1367 C1371 1.376 . S
C1368 C1366 1.394 . S
C1368 C1369 1.369 . S
C1368 C1372 1.531 . S
C1369 C1368 1.369 . S
C1369 C1370 1.410 . S
C1369 C1377 1.503 1_545 S
C1370 C1369 1.410 . S
C1370 C1371 1.392 . S
C1370 C1373 1.511 . S
C1371 C1367 1.376 . S
C1371 C1370 1.392 . S
C1371 H1383 0.929 . S
C1372 C1368 1.531 . S
C1372 H1384 0.960 1_545 S
C1372 H1385 0.962 . S
C1372 H1386 0.960 . S
C1373 C1370 1.511 . S
C1373 H1387 0.961 . S
C1373 H1388 0.961 1_545 S
C1373 H1389 0.961 1_545 S
C1374 C1375 1.370 . S
C1374 C1376 1.363 . S
C1374 H1390 0.931 . S
C1375 C1374 1.370 . S
C1375 C1379 1.408 . S
C1376 C1374 1.363 . S
C1376 C1377 1.370 . S
C1376 C1380 1.524 1_565 S
C1377 C1369 1.503 1_565 S
C1377 C1376 1.370 . S
C1377 C1378 1.403 . S
C1378 C1377 1.403 . S
C1378 C1379 1.404 . S
C1378 C1381 1.539 . S
C1379 C1375 1.408 . S
C1379 C1378 1.404 . S
C1379 H1391 0.930 . S
C1380 C1376 1.524 1_545 S
C1380 H1392 0.956 . S
C1380 H1393 0.961 . S
C1380 H1394 0.957 1_545 S
C1381 C1378 1.539 . S
C1381 H1395 0.958 . S
C1381 H1396 0.961 . S
C1381 H1397 0.960 . S
H1382 C1366 0.931 . S
H1383 C1371 0.929 . S
H1384 C1372 0.960 1_565 S
H1385 C1372 0.962 . S
H1386 C1372 0.960 . S
H1387 C1373 0.961 . S
H1388 C1373 0.961 1_565 S
H1389 C1373 0.961 1_565 S
H1390 C1374 0.931 . S
H1391 C1379 0.930 . S
H1392 C1380 0.956 . S
H1393 C1380 0.961 . S
H1394 C1380 0.957 1_565 S
H1395 C1381 0.958 . S
H1396 C1381 0.961 . S
H1397 C1381 0.960 . S
C1398 C1399 1.391 . S
C1398 C1400 1.394 . S
C1398 H1414 0.931 . S
C1399 C1398 1.391 . S
C1399 C1403 1.376 . S
C1400 C1398 1.394 . S
C1400 C1401 1.369 . S
C1400 C1404 1.531 . S
C1401 C1400 1.369 . S
C1401 C1402 1.410 . S
C1401 C1409 1.503 . S
C1402 C1401 1.410 . S
C1402 C1403 1.392 . S
C1402 C1405 1.511 . S
C1403 C1399 1.376 . S
C1403 C1402 1.392 . S
C1403 H1415 0.929 . S
C1404 C1400 1.531 . S
C1404 H1416 0.960 . S
C1404 H1417 0.962 . S
C1404 H1418 0.960 . S
C1405 C1402 1.511 . S
C1405 H1419 0.961 . S
C1405 H1420 0.961 . S
C1405 H1421 0.961 . S
C1406 C1407 1.370 . S
C1406 C1408 1.363 . S
C1406 H1422 0.931 . S
C1407 C1406 1.370 . S
C1407 C1411 1.408 . S
C1408 C1406 1.363 . S
C1408 C1409 1.370 . S
C1408 C1412 1.524 . S
C1409 C1401 1.503 . S
C1409 C1408 1.370 . S
C1409 C1410 1.403 . S
C1410 C1409 1.403 . S
C1410 C1411 1.404 . S
C1410 C1413 1.539 . S
C1411 C1407 1.408 . S
C1411 C1410 1.404 . S
C1411 H1423 0.930 . S
C1412 C1408 1.524 . S
C1412 H1424 0.956 . S
C1412 H1425 0.961 . S
C1412 H1426 0.961 . S
C1413 C1410 1.539 . S
C1413 H1427 0.958 . S
C1413 H1428 0.961 . S
C1413 H1429 0.960 . S
H1414 C1398 0.931 . S
H1415 C1403 0.929 . S
H1416 C1404 0.960 . S
H1417 C1404 0.962 . S
H1418 C1404 0.960 . S
H1419 C1405 0.961 . S
H1420 C1405 0.961 . S
H1421 C1405 0.961 . S
H1422 C1406 0.931 . S
H1423 C1411 0.930 . S
H1424 C1412 0.956 . S
H1425 C1412 0.961 . S
H1426 C1412 0.961 . S
H1427 C1413 0.958 . S
H1428 C1413 0.961 . S
H1429 C1413 0.960 . S
C1430 C1431 1.391 . S
C1430 C1432 1.394 . S
C1430 H1446 0.931 . S
C1431 C1430 1.391 . S
C1431 C1435 1.376 . S
C1432 C1430 1.394 . S
C1432 C1433 1.369 . S
C1432 C1436 1.531 . S
C1433 C1432 1.369 . S
C1433 C1434 1.410 . S
C1433 C1441 1.503 . S
C1434 C1433 1.410 . S
C1434 C1435 1.392 . S
C1434 C1437 1.511 . S
C1435 C1431 1.376 . S
C1435 C1434 1.392 . S
C1435 H1447 0.929 . S
C1436 C1432 1.531 . S
C1436 H1448 0.960 . S
C1436 H1449 0.962 . S
C1436 H1450 0.960 . S
C1437 C1434 1.511 . S
C1437 H1451 0.961 . S
C1437 H1452 0.961 . S
C1437 H1453 0.961 . S
C1438 C1439 1.370 . S
C1438 C1440 1.363 . S
C1438 H1454 0.931 . S
C1439 C1438 1.370 . S
C1439 C1443 1.408 . S
C1440 C1438 1.363 . S
C1440 C1441 1.370 . S
C1440 C1444 1.524 . S
C1441 C1433 1.503 . S
C1441 C1440 1.370 . S
C1441 C1442 1.403 . S
C1442 C1441 1.403 . S
C1442 C1443 1.404 . S
C1442 C1445 1.539 . S
C1443 C1439 1.408 . S
C1443 C1442 1.404 . S
C1443 H1455 0.930 . S
C1444 C1440 1.524 . S
C1444 H1456 0.956 . S
C1444 H1457 0.961 . S
C1444 H1458 0.961 . S
C1445 C1442 1.539 . S
C1445 H1459 0.958 . S
C1445 H1460 0.961 . S
C1445 H1461 0.960 . S
H1446 C1430 0.931 . S
H1447 C1435 0.929 . S
H1448 C1436 0.960 . S
H1449 C1436 0.962 . S
H1450 C1436 0.960 . S
H1451 C1437 0.961 . S
H1452 C1437 0.961 . S
H1453 C1437 0.961 . S
H1454 C1438 0.931 . S
H1455 C1443 0.930 . S
H1456 C1444 0.956 . S
H1457 C1444 0.961 . S
H1458 C1444 0.961 . S
H1459 C1445 0.958 . S
H1460 C1445 0.961 . S
H1461 C1445 0.960 . S
C1462 C1463 1.391 . S
C1462 C1464 1.394 . S
C1462 H1478 0.931 . S
C1463 C1462 1.391 . S
C1463 C1467 1.376 . S
C1464 C1462 1.394 . S
C1464 C1465 1.369 . S
C1464 C1468 1.531 . S
C1465 C1464 1.369 . S
C1465 C1466 1.410 . S
C1465 C1473 1.503 . S
C1466 C1465 1.410 . S
C1466 C1467 1.392 . S
C1466 C1469 1.511 . S
C1467 C1463 1.376 . S
C1467 C1466 1.392 . S
C1467 H1479 0.929 . S
C1468 C1464 1.531 . S
C1468 H1480 0.960 . S
C1468 H1481 0.962 . S
C1468 H1482 0.960 . S
C1469 C1466 1.511 . S
C1469 H1483 0.961 . S
C1469 H1484 0.961 . S
C1469 H1485 0.961 . S
C1470 C1471 1.370 . S
C1470 C1472 1.363 . S
C1470 H1486 0.931 . S
C1471 C1470 1.370 . S
C1471 C1475 1.408 . S
C1472 C1470 1.363 . S
C1472 C1473 1.370 . S
C1472 C1476 1.524 . S
C1473 C1465 1.503 . S
C1473 C1472 1.370 . S
C1473 C1474 1.403 . S
C1474 C1473 1.403 . S
C1474 C1475 1.404 . S
C1474 C1477 1.539 . S
C1475 C1471 1.408 . S
C1475 C1474 1.404 . S
C1475 H1487 0.930 . S
C1476 C1472 1.524 . S
C1476 H1488 0.956 . S
C1476 H1489 0.961 . S
C1476 H1490 0.961 . S
C1477 C1474 1.539 . S
C1477 H1491 0.958 . S
C1477 H1492 0.961 . S
C1477 H1493 0.960 . S
H1478 C1462 0.931 . S
H1479 C1467 0.929 . S
H1480 C1468 0.960 . S
H1481 C1468 0.962 . S
H1482 C1468 0.960 . S
H1483 C1469 0.961 . S
H1484 C1469 0.961 . S
H1485 C1469 0.961 . S
H1486 C1470 0.931 . S
H1487 C1475 0.930 . S
H1488 C1476 0.956 . S
H1489 C1476 0.961 . S
H1490 C1476 0.961 . S
H1491 C1477 0.958 . S
H1492 C1477 0.961 . S
H1493 C1477 0.960 . S
C1494 C1495 1.391 . S
C1494 C1496 1.394 . S
C1494 H1510 0.931 . S
C1495 C1494 1.391 . S
C1495 C1499 1.376 . S
C1496 C1494 1.394 . S
C1496 C1497 1.369 . S
C1496 C1500 1.531 . S
C1497 C1496 1.369 . S
C1497 C1498 1.410 . S
C1497 C1505 1.503 . S
C1498 C1497 1.410 . S
C1498 C1499 1.392 . S
C1498 C1501 1.511 . S
C1499 C1495 1.376 . S
C1499 C1498 1.392 . S
C1499 H1511 0.929 . S
C1500 C1496 1.531 . S
C1500 H1512 0.960 . S
C1500 H1513 0.962 . S
C1500 H1514 0.960 . S
C1501 C1498 1.511 . S
C1501 H1515 0.961 . S
C1501 H1516 0.961 . S
C1501 H1517 0.961 . S
C1502 C1503 1.370 . S
C1502 C1504 1.363 . S
C1502 H1518 0.931 . S
C1503 C1502 1.370 . S
C1503 C1507 1.408 . S
C1504 C1502 1.363 . S
C1504 C1505 1.370 . S
C1504 C1508 1.524 . S
C1505 C1497 1.503 . S
C1505 C1504 1.370 . S
C1505 C1506 1.403 . S
C1506 C1505 1.403 . S
C1506 C1507 1.404 . S
C1506 C1509 1.539 . S
C1507 C1503 1.408 . S
C1507 C1506 1.404 . S
C1507 H1519 0.930 . S
C1508 C1504 1.524 . S
C1508 H1520 0.956 . S
C1508 H1521 0.961 . S
C1508 H1522 0.961 . S
C1509 C1506 1.539 . S
C1509 H1523 0.958 . S
C1509 H1524 0.961 . S
C1509 H1525 0.960 . S
H1510 C1494 0.931 . S
H1511 C1499 0.929 . S
H1512 C1500 0.960 . S
H1513 C1500 0.962 . S
H1514 C1500 0.960 . S
H1515 C1501 0.961 . S
H1516 C1501 0.961 . S
H1517 C1501 0.961 . S
H1518 C1502 0.931 . S
H1519 C1507 0.930 . S
H1520 C1508 0.956 . S
H1521 C1508 0.961 . S
H1522 C1508 0.961 . S
H1523 C1509 0.958 . S
H1524 C1509 0.961 . S
H1525 C1509 0.960 . S
C1526 C1527 1.391 . S
C1526 C1528 1.394 . S
C1526 H1542 0.931 . S
C1527 C1526 1.391 . S
C1527 C1531 1.376 . S
C1528 C1526 1.394 . S
C1528 C1529 1.369 . S
C1528 C1532 1.531 . S
C1529 C1528 1.369 . S
C1529 C1530 1.410 . S
C1529 C1537 1.503 . S
C1530 C1529 1.410 . S
C1530 C1531 1.392 . S
C1530 C1533 1.511 . S
C1531 C1527 1.376 . S
C1531 C1530 1.392 . S
C1531 H1543 0.929 . S
C1532 C1528 1.531 . S
C1532 H1544 0.960 . S
C1532 H1545 0.962 . S
C1532 H1546 0.960 . S
C1533 C1530 1.511 . S
C1533 H1547 0.961 . S
C1533 H1548 0.961 . S
C1533 H1549 0.961 . S
C1534 C1535 1.370 . S
C1534 C1536 1.363 . S
C1534 H1550 0.931 . S
C1535 C1534 1.370 . S
C1535 C1539 1.408 . S
C1536 C1534 1.363 . S
C1536 C1537 1.370 . S
C1536 C1540 1.524 . S
C1537 C1529 1.503 . S
C1537 C1536 1.370 . S
C1537 C1538 1.403 . S
C1538 C1537 1.403 . S
C1538 C1539 1.404 . S
C1538 C1541 1.539 . S
C1539 C1535 1.408 . S
C1539 C1538 1.404 . S
C1539 H1551 0.930 . S
C1540 C1536 1.524 . S
C1540 H1552 0.956 . S
C1540 H1553 0.961 . S
C1540 H1554 0.961 . S
C1541 C1538 1.539 . S
C1541 H1555 0.958 . S
C1541 H1556 0.961 . S
C1541 H1557 0.960 . S
H1542 C1526 0.931 . S
H1543 C1531 0.929 . S
H1544 C1532 0.960 . S
H1545 C1532 0.962 . S
H1546 C1532 0.960 . S
H1547 C1533 0.961 . S
H1548 C1533 0.961 . S
H1549 C1533 0.961 . S
H1550 C1534 0.931 . S
H1551 C1539 0.930 . S
H1552 C1540 0.956 . S
H1553 C1540 0.961 . S
H1554 C1540 0.961 . S
H1555 C1541 0.958 . S
H1556 C1541 0.961 . S
H1557 C1541 0.960 . S
C1558 C1559 1.391 . S
C1558 C1560 1.394 . S
C1558 H1574 0.931 . S
C1559 C1558 1.391 . S
C1559 C1563 1.376 . S
C1560 C1558 1.394 . S
C1560 C1561 1.369 . S
C1560 C1564 1.531 . S
C1561 C1560 1.369 . S
C1561 C1562 1.410 . S
C1561 C1569 1.503 . S
C1562 C1561 1.410 . S
C1562 C1563 1.392 . S
C1562 C1565 1.511 . S
C1563 C1559 1.376 . S
C1563 C1562 1.392 . S
C1563 H1575 0.929 . S
C1564 C1560 1.531 . S
C1564 H1576 0.960 . S
C1564 H1577 0.962 . S
C1564 H1578 0.960 . S
C1565 C1562 1.511 . S
C1565 H1579 0.961 . S
C1565 H1580 0.961 . S
C1565 H1581 0.961 . S
C1566 C1567 1.370 . S
C1566 C1568 1.363 . S
C1566 H1582 0.931 . S
C1567 C1566 1.370 . S
C1567 C1571 1.408 . S
C1568 C1566 1.363 . S
C1568 C1569 1.370 . S
C1568 C1572 1.524 . S
C1569 C1561 1.503 . S
C1569 C1568 1.370 . S
C1569 C1570 1.403 . S
C1570 C1569 1.403 . S
C1570 C1571 1.404 . S
C1570 C1573 1.539 . S
C1571 C1567 1.408 . S
C1571 C1570 1.404 . S
C1571 H1583 0.930 . S
C1572 C1568 1.524 . S
C1572 H1584 0.956 . S
C1572 H1585 0.961 . S
C1572 H1586 0.961 . S
C1573 C1570 1.539 . S
C1573 H1587 0.958 . S
C1573 H1588 0.961 . S
C1573 H1589 0.960 . S
H1574 C1558 0.931 . S
H1575 C1563 0.929 . S
H1576 C1564 0.960 . S
H1577 C1564 0.962 . S
H1578 C1564 0.960 . S
H1579 C1565 0.961 . S
H1580 C1565 0.961 . S
H1581 C1565 0.961 . S
H1582 C1566 0.931 . S
H1583 C1571 0.930 . S
H1584 C1572 0.956 . S
H1585 C1572 0.961 . S
H1586 C1572 0.961 . S
H1587 C1573 0.958 . S
H1588 C1573 0.961 . S
H1589 C1573 0.960 . S
C1590 C1591 1.391 . S
C1590 C1592 1.394 . S
C1590 H1606 0.931 . S
C1591 C1590 1.391 . S
C1591 C1595 1.376 . S
C1592 C1590 1.394 . S
C1592 C1593 1.369 . S
C1592 C1596 1.531 1_545 S
C1593 C1592 1.369 . S
C1593 C1594 1.410 . S
C1593 C1601 1.503 1_545 S
C1594 C1593 1.410 . S
C1594 C1595 1.392 . S
C1594 C1597 1.511 . S
C1595 C1591 1.376 . S
C1595 C1594 1.392 . S
C1595 H1607 0.929 . S
C1596 C1592 1.531 1_565 S
C1596 H1608 0.960 . S
C1596 H1609 0.962 1_565 S
C1596 H1610 0.960 1_565 S
C1597 C1594 1.511 . S
C1597 H1611 0.961 . S
C1597 H1612 0.961 1_545 S
C1597 H1613 0.961 1_545 S
C1598 C1599 1.370 . S
C1598 C1600 1.363 . S
C1598 H1614 0.931 . S
C1599 C1598 1.370 . S
C1599 C1603 1.408 . S
C1600 C1598 1.363 . S
C1600 C1601 1.370 . S
C1600 C1604 1.524 1_565 S
C1601 C1593 1.503 1_565 S
C1601 C1600 1.370 . S
C1601 C1602 1.403 . S
C1602 C1601 1.403 . S
C1602 C1603 1.404 . S
C1602 C1605 1.539 . S
C1603 C1599 1.408 . S
C1603 C1602 1.404 . S
C1603 H1615 0.930 . S
C1604 C1600 1.524 1_545 S
C1604 H1616 0.956 . S
C1604 H1617 0.961 . S
C1604 H1618 0.961 1_545 S
C1605 C1602 1.539 . S
C1605 H1619 0.958 . S
C1605 H1620 0.961 . S
C1605 H1621 0.960 . S
H1606 C1590 0.931 . S
H1607 C1595 0.929 . S
H1608 C1596 0.960 . S
H1609 C1596 0.962 1_545 S
H1610 C1596 0.960 1_545 S
H1611 C1597 0.961 . S
H1612 C1597 0.961 1_565 S
H1613 C1597 0.961 1_565 S
H1614 C1598 0.931 . S
H1615 C1603 0.930 . S
H1616 C1604 0.956 . S
H1617 C1604 0.961 . S
H1618 C1604 0.961 1_565 S
H1619 C1605 0.958 . S
H1620 C1605 0.961 . S
H1621 C1605 0.960 . S
C1622 C1623 1.391 . S
C1622 C1624 1.394 . S
C1622 H1638 0.931 . S
C1623 C1622 1.391 . S
C1623 C1627 1.376 . S
C1624 C1622 1.394 . S
C1624 C1625 1.369 . S
C1624 C1628 1.531 . S
C1625 C1624 1.369 . S
C1625 C1626 1.410 . S
C1625 C1633 1.503 1_655 S
C1626 C1625 1.410 . S
C1626 C1627 1.392 . S
C1626 C1629 1.511 1_655 S
C1627 C1623 1.376 . S
C1627 C1626 1.392 . S
C1627 H1639 0.929 . S
C1628 C1624 1.531 . S
C1628 H1640 0.960 . S
C1628 H1641 0.962 . S
C1628 H1642 0.960 . S
C1629 C1626 1.511 1_455 S
C1629 H1643 0.961 . S
C1629 H1644 0.961 . S
C1629 H1645 0.961 . S
C1630 C1631 1.370 . S
C1630 C1632 1.363 . S
C1630 H1646 0.931 . S
C1631 C1630 1.370 . S
C1631 C1635 1.408 . S
C1632 C1630 1.363 . S
C1632 C1633 1.370 . S
C1632 C1636 1.524 . S
C1633 C1625 1.503 1_455 S
C1633 C1632 1.370 . S
C1633 C1634 1.403 . S
C1634 C1633 1.403 . S
C1634 C1635 1.404 . S
C1634 C1637 1.539 . S
C1635 C1631 1.408 . S
C1635 C1634 1.404 . S
C1635 H1647 0.930 . S
C1636 C1632 1.524 . S
C1636 H1648 0.956 . S
C1636 H1649 0.961 . S
C1636 H1650 0.961 . S
C1637 C1634 1.539 . S
C1637 H1651 0.958 . S
C1637 H1652 0.961 . S
C1637 H1653 0.960 . S
H1638 C1622 0.931 . S
H1639 C1627 0.929 . S
H1640 C1628 0.960 . S
H1641 C1628 0.962 . S
H1642 C1628 0.960 . S
H1643 C1629 0.961 . S
H1644 C1629 0.961 . S
H1645 C1629 0.961 . S
H1646 C1630 0.931 . S
H1647 C1635 0.930 . S
H1648 C1636 0.956 . S
H1649 C1636 0.961 . S
H1650 C1636 0.961 . S
H1651 C1637 0.958 . S
H1652 C1637 0.961 . S
H1653 C1637 0.960 . S
C1654 C1655 1.391 . S
C1654 C1656 1.394 . S
C1654 H1670 0.931 . S
C1655 C1654 1.391 . S
C1655 C1659 1.376 . S
C1656 C1654 1.394 . S
C1656 C1657 1.369 . S
C1656 C1660 1.531 . S
C1657 C1656 1.369 . S
C1657 C1658 1.410 . S
C1657 C1665 1.503 . S
C1658 C1657 1.410 . S
C1658 C1659 1.392 . S
C1658 C1661 1.511 . S
C1659 C1655 1.376 . S
C1659 C1658 1.392 . S
C1659 H1671 0.929 . S
C1660 C1656 1.531 . S
C1660 H1672 0.960 . S
C1660 H1673 0.962 . S
C1660 H1674 0.960 . S
C1661 C1658 1.511 . S
C1661 H1675 0.961 . S
C1661 H1676 0.961 . S
C1661 H1677 0.961 . S
C1662 C1663 1.370 . S
C1662 C1664 1.363 . S
C1662 H1678 0.931 . S
C1663 C1662 1.370 . S
C1663 C1667 1.408 . S
C1664 C1662 1.363 . S
C1664 C1665 1.370 . S
C1664 C1668 1.524 . S
C1665 C1657 1.503 . S
C1665 C1664 1.370 . S
C1665 C1666 1.403 . S
C1666 C1665 1.403 . S
C1666 C1667 1.404 . S
C1666 C1669 1.539 . S
C1667 C1663 1.408 . S
C1667 C1666 1.404 . S
C1667 H1679 0.930 . S
C1668 C1664 1.524 . S
C1668 H1680 0.956 . S
C1668 H1681 0.961 . S
C1668 H1682 0.961 . S
C1669 C1666 1.539 . S
C1669 H1683 0.958 . S
C1669 H1684 0.961 . S
C1669 H1685 0.960 . S
H1670 C1654 0.931 . S
H1671 C1659 0.929 . S
H1672 C1660 0.960 . S
H1673 C1660 0.962 . S
H1674 C1660 0.960 . S
H1675 C1661 0.961 . S
H1676 C1661 0.961 . S
H1677 C1661 0.961 . S
H1678 C1662 0.931 . S
H1679 C1667 0.930 . S
H1680 C1668 0.956 . S
H1681 C1668 0.961 . S
H1682 C1668 0.961 . S
H1683 C1669 0.958 . S
H1684 C1669 0.961 . S
H1685 C1669 0.960 . S
C1686 C1687 1.391 . S
C1686 C1688 1.394 . S
C1686 H1702 0.931 . S
C1687 C1686 1.391 . S
C1687 C1691 1.376 . S
C1688 C1686 1.394 . S
C1688 C1689 1.369 . S
C1688 C1692 1.531 . S
C1689 C1688 1.369 . S
C1689 C1690 1.410 . S
C1689 C1697 1.503 . S
C1690 C1689 1.410 . S
C1690 C1691 1.392 . S
C1690 C1693 1.511 . S
C1691 C1687 1.376 . S
C1691 C1690 1.392 . S
C1691 H1703 0.929 . S
C1692 C1688 1.531 . S
C1692 H1704 0.960 . S
C1692 H1705 0.962 . S
C1692 H1706 0.960 . S
C1693 C1690 1.511 . S
C1693 H1707 0.961 . S
C1693 H1708 0.961 . S
C1693 H1709 0.961 . S
C1694 C1695 1.370 . S
C1694 C1696 1.363 . S
C1694 H1710 0.931 . S
C1695 C1694 1.370 . S
C1695 C1699 1.408 . S
C1696 C1694 1.363 . S
C1696 C1697 1.370 . S
C1696 C1700 1.524 . S
C1697 C1689 1.503 . S
C1697 C1696 1.370 . S
C1697 C1698 1.403 . S
C1698 C1697 1.403 . S
C1698 C1699 1.404 . S
C1698 C1701 1.539 . S
C1699 C1695 1.408 . S
C1699 C1698 1.404 . S
C1699 H1711 0.930 . S
C1700 C1696 1.524 . S
C1700 H1712 0.956 . S
C1700 H1713 0.961 . S
C1700 H1714 0.961 . S
C1701 C1698 1.539 . S
C1701 H1715 0.958 . S
C1701 H1716 0.961 . S
C1701 H1717 0.960 . S
H1702 C1686 0.931 . S
H1703 C1691 0.929 . S
H1704 C1692 0.960 . S
H1705 C1692 0.962 . S
H1706 C1692 0.960 . S
H1707 C1693 0.961 . S
H1708 C1693 0.961 . S
H1709 C1693 0.961 . S
H1710 C1694 0.931 . S
H1711 C1699 0.930 . S
H1712 C1700 0.956 . S
H1713 C1700 0.961 . S
H1714 C1700 0.961 . S
H1715 C1701 0.958 . S
H1716 C1701 0.961 . S
H1717 C1701 0.960 . S
C1718 C1719 1.391 . S
C1718 C1720 1.394 . S
C1718 H1734 0.931 . S
C1719 C1718 1.391 . S
C1719 C1723 1.376 . S
C1720 C1718 1.394 . S
C1720 C1721 1.369 . S
C1720 C1724 1.531 . S
C1721 C1720 1.369 . S
C1721 C1722 1.410 . S
C1721 C1729 1.503 . S
C1722 C1721 1.410 . S
C1722 C1723 1.392 . S
C1722 C1725 1.511 . S
C1723 C1719 1.376 . S
C1723 C1722 1.392 . S
C1723 H1735 0.929 . S
C1724 C1720 1.531 . S
C1724 H1736 0.960 . S
C1724 H1737 0.962 . S
C1724 H1738 0.960 . S
C1725 C1722 1.511 . S
C1725 H1739 0.961 . S
C1725 H1740 0.961 . S
C1725 H1741 0.961 . S
C1726 C1727 1.370 . S
C1726 C1728 1.363 . S
C1726 H1742 0.931 . S
C1727 C1726 1.370 . S
C1727 C1731 1.408 . S
C1728 C1726 1.363 . S
C1728 C1729 1.370 . S
C1728 C1732 1.524 . S
C1729 C1721 1.503 . S
C1729 C1728 1.370 . S
C1729 C1730 1.403 . S
C1730 C1729 1.403 . S
C1730 C1731 1.404 . S
C1730 C1733 1.539 . S
C1731 C1727 1.408 . S
C1731 C1730 1.404 . S
C1731 H1743 0.930 . S
C1732 C1728 1.524 . S
C1732 H1744 0.956 . S
C1732 H1745 0.961 . S
C1732 H1746 0.961 . S
C1733 C1730 1.539 . S
C1733 H1747 0.958 . S
C1733 H1748 0.961 . S
C1733 H1749 0.960 . S
H1734 C1718 0.931 . S
H1735 C1723 0.929 . S
H1736 C1724 0.960 . S
H1737 C1724 0.962 . S
H1738 C1724 0.960 . S
H1739 C1725 0.961 . S
H1740 C1725 0.961 . S
H1741 C1725 0.961 . S
H1742 C1726 0.931 . S
H1743 C1731 0.930 . S
H1744 C1732 0.956 . S
H1745 C1732 0.961 . S
H1746 C1732 0.961 . S
H1747 C1733 0.958 . S
H1748 C1733 0.961 . S
H1749 C1733 0.960 . S
C1750 C1751 1.391 . S
C1750 C1752 1.394 . S
C1750 H1766 0.931 . S
C1751 C1750 1.391 . S
C1751 C1755 1.376 . S
C1752 C1750 1.394 . S
C1752 C1753 1.369 . S
C1752 C1756 1.531 . S
C1753 C1752 1.369 . S
C1753 C1754 1.410 . S
C1753 C1761 1.503 . S
C1754 C1753 1.410 . S
C1754 C1755 1.392 . S
C1754 C1757 1.511 . S
C1755 C1751 1.376 . S
C1755 C1754 1.392 . S
C1755 H1767 0.929 . S
C1756 C1752 1.531 . S
C1756 H1768 0.960 . S
C1756 H1769 0.962 . S
C1756 H1770 0.960 . S
C1757 C1754 1.511 . S
C1757 H1771 0.961 . S
C1757 H1772 0.961 . S
C1757 H1773 0.961 . S
C1758 C1759 1.370 . S
C1758 C1760 1.363 . S
C1758 H1774 0.931 . S
C1759 C1758 1.370 . S
C1759 C1763 1.408 . S
C1760 C1758 1.363 . S
C1760 C1761 1.370 . S
C1760 C1764 1.524 . S
C1761 C1753 1.503 . S
C1761 C1760 1.370 . S
C1761 C1762 1.403 . S
C1762 C1761 1.403 . S
C1762 C1763 1.404 . S
C1762 C1765 1.539 . S
C1763 C1759 1.408 . S
C1763 C1762 1.404 . S
C1763 H1775 0.930 . S
C1764 C1760 1.524 . S
C1764 H1776 0.956 . S
C1764 H1777 0.961 . S
C1764 H1778 0.961 . S
C1765 C1762 1.539 . S
C1765 H1779 0.958 . S
C1765 H1780 0.961 . S
C1765 H1781 0.960 . S
H1766 C1750 0.931 . S
H1767 C1755 0.929 . S
H1768 C1756 0.960 . S
H1769 C1756 0.962 . S
H1770 C1756 0.960 . S
H1771 C1757 0.961 . S
H1772 C1757 0.961 . S
H1773 C1757 0.961 . S
H1774 C1758 0.931 . S
H1775 C1763 0.930 . S
H1776 C1764 0.956 . S
H1777 C1764 0.961 . S
H1778 C1764 0.961 . S
H1779 C1765 0.958 . S
H1780 C1765 0.961 . S
H1781 C1765 0.960 . S
C1782 C1783 1.391 . S
C1782 C1784 1.394 . S
C1782 H1798 0.931 . S
C1783 C1782 1.391 . S
C1783 C1787 1.376 . S
C1784 C1782 1.394 . S
C1784 C1785 1.369 . S
C1784 C1788 1.530 1_565 S
C1785 C1784 1.369 . S
C1785 C1786 1.410 . S
C1785 C1793 1.503 1_565 S
C1786 C1785 1.410 . S
C1786 C1787 1.392 . S
C1786 C1789 1.511 . S
C1787 C1783 1.376 . S
C1787 C1786 1.392 . S
C1787 H1799 0.929 . S
C1788 C1784 1.530 1_545 S
C1788 H1800 0.978 . S
C1788 H1801 0.951 1_545 S
C1788 H1802 0.953 1_545 S
C1789 C1786 1.511 . S
C1789 H1803 0.961 . S
C1789 H1804 0.961 1_565 S
C1789 H1805 0.961 1_565 S
C1790 C1791 1.370 . S
C1790 C1792 1.363 . S
C1790 H1806 0.931 . S
C1791 C1790 1.370 . S
C1791 C1795 1.408 . S
C1792 C1790 1.363 . S
C1792 C1793 1.370 . S
C1792 C1796 1.524 1_545 S
C1793 C1785 1.503 1_545 S
C1793 C1792 1.370 . S
C1793 C1794 1.403 . S
C1794 C1793 1.403 . S
C1794 C1795 1.404 . S
C1794 C1797 1.539 . S
C1795 C1791 1.408 . S
C1795 C1794 1.404 . S
C1795 H1807 0.930 . S
C1796 C1792 1.524 1_565 S
C1796 H1808 0.956 . S
C1796 H1809 0.961 . S
C1796 H1810 0.961 1_565 S
C1797 C1794 1.539 . S
C1797 H1811 0.958 . S
C1797 H1812 0.961 . S
C1797 H1813 0.960 . S
H1798 C1782 0.931 . S
H1799 C1787 0.929 . S
H1800 C1788 0.978 . S
H1801 C1788 0.951 1_565 S
H1802 C1788 0.953 1_565 S
H1803 C1789 0.961 . S
H1804 C1789 0.961 1_545 S
H1805 C1789 0.961 1_545 S
H1806 C1790 0.931 . S
H1807 C1795 0.930 . S
H1808 C1796 0.956 . S
H1809 C1796 0.961 . S
H1810 C1796 0.961 1_545 S
H1811 C1797 0.958 . S
H1812 C1797 0.961 . S
H1813 C1797 0.960 . S
C1814 C1815 1.391 . S
C1814 C1816 1.394 . S
C1814 H1830 0.931 . S
C1815 C1814 1.391 . S
C1815 C1819 1.376 . S
C1816 C1814 1.394 . S
C1816 C1817 1.369 . S
C1816 C1820 1.531 . S
C1817 C1816 1.369 . S
C1817 C1818 1.410 . S
C1817 C1825 1.503 1_455 S
C1818 C1817 1.410 . S
C1818 C1819 1.392 . S
C1818 C1821 1.511 1_455 S
C1819 C1815 1.376 . S
C1819 C1818 1.392 . S
C1819 H1831 0.929 . S
C1820 C1816 1.531 . S
C1820 H1832 0.960 . S
C1820 H1833 0.962 . S
C1820 H1834 0.960 . S
C1821 C1818 1.511 1_655 S
C1821 H1835 0.961 . S
C1821 H1836 0.961 . S
C1821 H1837 0.961 . S
C1822 C1823 1.370 . S
C1822 C1824 1.363 . S
C1822 H1838 0.931 . S
C1823 C1822 1.370 . S
C1823 C1827 1.408 . S
C1824 C1822 1.363 . S
C1824 C1825 1.370 . S
C1824 C1828 1.524 . S
C1825 C1817 1.503 1_655 S
C1825 C1824 1.370 . S
C1825 C1826 1.403 . S
C1826 C1825 1.403 . S
C1826 C1827 1.404 . S
C1826 C1829 1.539 . S
C1827 C1823 1.408 . S
C1827 C1826 1.404 . S
C1827 H1839 0.930 . S
C1828 C1824 1.524 . S
C1828 H1840 0.956 . S
C1828 H1841 0.961 . S
C1828 H1842 0.961 . S
C1829 C1826 1.539 . S
C1829 H1843 0.958 1_655 S
C1829 H1844 0.961 . S
C1829 H1845 0.960 1_655 S
H1830 C1814 0.931 . S
H1831 C1819 0.929 . S
H1832 C1820 0.960 . S
H1833 C1820 0.962 . S
H1834 C1820 0.960 . S
H1835 C1821 0.961 . S
H1836 C1821 0.961 . S
H1837 C1821 0.961 . S
H1838 C1822 0.931 . S
H1839 C1827 0.930 . S
H1840 C1828 0.956 . S
H1841 C1828 0.961 . S
H1842 C1828 0.961 . S
H1843 C1829 0.958 1_455 S
H1844 C1829 0.961 . S
H1845 C1829 0.960 1_455 S
C1846 C1847 1.391 . S
C1846 C1848 1.394 . S
C1846 H1862 0.931 . S
C1847 C1846 1.391 . S
C1847 C1851 1.376 . S
C1848 C1846 1.394 . S
C1848 C1849 1.369 . S
C1848 C1852 1.531 . S
C1849 C1848 1.369 . S
C1849 C1850 1.410 . S
C1849 C1857 1.503 . S
C1850 C1849 1.410 . S
C1850 C1851 1.392 . S
C1850 C1853 1.511 . S
C1851 C1847 1.376 . S
C1851 C1850 1.392 . S
C1851 H1863 0.929 . S
C1852 C1848 1.531 . S
C1852 H1864 0.960 . S
C1852 H1865 0.962 . S
C1852 H1866 0.960 . S
C1853 C1850 1.511 . S
C1853 H1867 0.961 . S
C1853 H1868 0.961 . S
C1853 H1869 0.961 . S
C1854 C1855 1.370 . S
C1854 C1856 1.363 . S
C1854 H1870 0.931 . S
C1855 C1854 1.370 . S
C1855 C1859 1.408 . S
C1856 C1854 1.363 . S
C1856 C1857 1.370 . S
C1856 C1860 1.524 . S
C1857 C1849 1.503 . S
C1857 C1856 1.370 . S
C1857 C1858 1.403 . S
C1858 C1857 1.403 . S
C1858 C1859 1.404 . S
C1858 C1861 1.539 . S
C1859 C1855 1.408 . S
C1859 C1858 1.404 . S
C1859 H1871 0.930 . S
C1860 C1856 1.524 . S
C1860 H1872 0.956 . S
C1860 H1873 0.961 . S
C1860 H1874 0.961 . S
C1861 C1858 1.539 . S
C1861 H1875 0.958 . S
C1861 H1876 0.961 . S
C1861 H1877 0.960 . S
H1862 C1846 0.931 . S
H1863 C1851 0.929 . S
H1864 C1852 0.960 . S
H1865 C1852 0.962 . S
H1866 C1852 0.960 . S
H1867 C1853 0.961 . S
H1868 C1853 0.961 . S
H1869 C1853 0.961 . S
H1870 C1854 0.931 . S
H1871 C1859 0.930 . S
H1872 C1860 0.956 . S
H1873 C1860 0.961 . S
H1874 C1860 0.961 . S
H1875 C1861 0.958 . S
H1876 C1861 0.961 . S
H1877 C1861 0.960 . S
C1878 C1879 1.391 . S
C1878 C1880 1.394 . S
C1878 H1894 0.931 . S
C1879 C1878 1.391 . S
C1879 C1883 1.376 . S
C1880 C1878 1.394 . S
C1880 C1881 1.369 . S
C1880 C1884 1.531 . S
C1881 C1880 1.369 . S
C1881 C1882 1.410 . S
C1881 C1889 1.503 1_455 S
C1882 C1881 1.410 . S
C1882 C1883 1.392 . S
C1882 C1885 1.511 1_455 S
C1883 C1879 1.376 . S
C1883 C1882 1.392 . S
C1883 H1895 0.929 . S
C1884 C1880 1.531 . S
C1884 H1896 0.960 1_455 S
C1884 H1897 0.962 . S
C1884 H1898 0.960 . S
C1885 C1882 1.511 1_655 S
C1885 H1899 0.961 . S
C1885 H1900 0.961 . S
C1885 H1901 0.961 . S
C1886 C1887 1.370 . S
C1886 C1888 1.363 . S
C1886 H1902 0.931 . S
C1887 C1886 1.370 . S
C1887 C1891 1.408 . S
C1888 C1886 1.363 . S
C1888 C1889 1.370 . S
C1888 C1892 1.524 . S
C1889 C1881 1.503 1_655 S
C1889 C1888 1.370 . S
C1889 C1890 1.403 . S
C1890 C1889 1.403 . S
C1890 C1891 1.404 . S
C1890 C1893 1.539 . S
C1891 C1887 1.408 . S
C1891 C1890 1.404 . S
C1891 H1903 0.930 . S
C1892 C1888 1.524 . S
C1892 H1904 0.956 1_655 S
C1892 H1905 0.961 1_655 S
C1892 H1906 0.961 . S
C1893 C1890 1.539 . S
C1893 H1907 0.958 . S
C1893 H1908 0.961 . S
C1893 H1909 0.960 . S
H1894 C1878 0.931 . S
H1895 C1883 0.929 . S
H1896 C1884 0.960 1_655 S
H1897 C1884 0.962 . S
H1898 C1884 0.960 . S
H1899 C1885 0.961 . S
H1900 C1885 0.961 . S
H1901 C1885 0.961 . S
H1902 C1886 0.931 . S
H1903 C1891 0.930 . S
H1904 C1892 0.956 1_455 S
H1905 C1892 0.961 1_455 S
H1906 C1892 0.961 . S
H1907 C1893 0.958 . S
H1908 C1893 0.961 . S
H1909 C1893 0.960 . S
C1910 C1911 1.391 . S
C1910 C1912 1.394 . S
C1910 H1926 0.931 . S
C1911 C1910 1.391 . S
C1911 C1915 1.376 . S
C1912 C1910 1.394 . S
C1912 C1913 1.369 . S
C1912 C1916 1.531 . S
C1913 C1912 1.369 . S
C1913 C1914 1.410 . S
C1913 C1921 1.503 . S
C1914 C1913 1.410 . S
C1914 C1915 1.392 . S
C1914 C1917 1.511 . S
C1915 C1911 1.376 . S
C1915 C1914 1.392 . S
C1915 H1927 0.929 . S
C1916 C1912 1.531 . S
C1916 H1928 0.960 . S
C1916 H1929 0.962 . S
C1916 H1930 0.960 . S
C1917 C1914 1.511 . S
C1917 H1931 0.961 . S
C1917 H1932 0.961 . S
C1917 H1933 0.961 . S
C1918 C1919 1.370 . S
C1918 C1920 1.363 . S
C1918 H1934 0.931 . S
C1919 C1918 1.370 . S
C1919 C1923 1.408 . S
C1920 C1918 1.363 . S
C1920 C1921 1.370 . S
C1920 C1924 1.524 . S
C1921 C1913 1.503 . S
C1921 C1920 1.370 . S
C1921 C1922 1.403 . S
C1922 C1921 1.403 . S
C1922 C1923 1.404 . S
C1922 C1925 1.539 . S
C1923 C1919 1.408 . S
C1923 C1922 1.404 . S
C1923 H1935 0.930 . S
C1924 C1920 1.524 . S
C1924 H1936 0.956 . S
C1924 H1937 0.961 . S
C1924 H1938 0.961 . S
C1925 C1922 1.539 . S
C1925 H1939 0.958 . S
C1925 H1940 0.961 . S
C1925 H1941 0.960 . S
H1926 C1910 0.931 . S
H1927 C1915 0.929 . S
H1928 C1916 0.960 . S
H1929 C1916 0.962 . S
H1930 C1916 0.960 . S
H1931 C1917 0.961 . S
H1932 C1917 0.961 . S
H1933 C1917 0.961 . S
H1934 C1918 0.931 . S
H1935 C1923 0.930 . S
H1936 C1924 0.956 . S
H1937 C1924 0.961 . S
H1938 C1924 0.961 . S
H1939 C1925 0.958 . S
H1940 C1925 0.961 . S
H1941 C1925 0.960 . S
C1942 C1943 1.391 . S
C1942 C1944 1.394 . S
C1942 H1958 0.931 . S
C1943 C1942 1.391 . S
C1943 C1947 1.376 . S
C1944 C1942 1.394 . S
C1944 C1945 1.369 . S
C1944 C1948 1.531 . S
C1945 C1944 1.369 . S
C1945 C1946 1.410 . S
C1945 C1953 1.503 1_565 S
C1946 C1945 1.410 . S
C1946 C1947 1.392 . S
C1946 C1949 1.511 1_565 S
C1947 C1943 1.376 . S
C1947 C1946 1.392 . S
C1947 H1959 0.929 . S
C1948 C1944 1.531 . S
C1948 H1960 0.960 . S
C1948 H1961 0.962 . S
C1948 H1962 0.960 . S
C1949 C1946 1.511 1_545 S
C1949 H1963 0.961 . S
C1949 H1964 0.961 . S
C1949 H1965 0.961 . S
C1950 C1951 1.370 . S
C1950 C1952 1.363 . S
C1950 H1966 0.931 . S
C1951 C1950 1.370 . S
C1951 C1955 1.408 . S
C1952 C1950 1.363 . S
C1952 C1953 1.370 . S
C1952 C1956 1.524 . S
C1953 C1945 1.503 1_545 S
C1953 C1952 1.370 . S
C1953 C1954 1.403 . S
C1954 C1953 1.403 . S
C1954 C1955 1.404 . S
C1954 C1957 1.539 . S
C1955 C1951 1.408 . S
C1955 C1954 1.404 . S
C1955 H1967 0.930 . S
C1956 C1952 1.524 . S
C1956 H1968 0.956 . S
C1956 H1969 0.961 . S
C1956 H1970 0.961 . S
C1957 C1954 1.539 . S
C1957 H1971 0.964 . S
C1957 H1972 0.961 . S
C1957 H1973 0.960 1_545 S
H1958 C1942 0.931 . S
H1959 C1947 0.929 . S
H1960 C1948 0.960 . S
H1961 C1948 0.962 . S
H1962 C1948 0.960 . S
H1963 C1949 0.961 . S
H1964 C1949 0.961 . S
H1965 C1949 0.961 . S
H1966 C1950 0.931 . S
H1967 C1955 0.930 . S
H1968 C1956 0.956 . S
H1969 C1956 0.961 . S
H1970 C1956 0.961 . S
H1971 C1957 0.964 . S
H1972 C1957 0.961 . S
H1973 C1957 0.960 1_565 S
C1974 C1975 1.391 . S
C1974 C1976 1.394 . S
C1974 H1990 0.931 . S
C1975 C1974 1.391 . S
C1975 C1979 1.376 . S
C1976 C1974 1.394 . S
C1976 C1977 1.369 . S
C1976 C1980 1.531 . S
C1977 C1976 1.369 . S
C1977 C1978 1.410 . S
C1977 C1985 1.503 . S
C1978 C1977 1.410 . S
C1978 C1979 1.392 . S
C1978 C1981 1.511 . S
C1979 C1975 1.376 . S
C1979 C1978 1.392 . S
C1979 H1991 0.929 . S
C1980 C1976 1.531 . S
C1980 H1992 0.960 . S
C1980 H1993 0.962 . S
C1980 H1994 0.960 . S
C1981 C1978 1.511 . S
C1981 H1995 0.961 . S
C1981 H1996 0.961 . S
C1981 H1997 0.961 . S
C1982 C1983 1.370 . S
C1982 C1984 1.363 . S
C1982 H1998 0.931 . S
C1983 C1982 1.370 . S
C1983 C1987 1.408 . S
C1984 C1982 1.363 . S
C1984 C1985 1.370 . S
C1984 C1988 1.524 . S
C1985 C1977 1.503 . S
C1985 C1984 1.370 . S
C1985 C1986 1.403 . S
C1986 C1985 1.403 . S
C1986 C1987 1.404 . S
C1986 C1989 1.539 . S
C1987 C1983 1.408 . S
C1987 C1986 1.404 . S
C1987 H1999 0.930 . S
C1988 C1984 1.524 . S
C1988 H2000 0.956 . S
C1988 H2001 0.961 . S
C1988 H2002 0.961 . S
C1989 C1986 1.539 . S
C1989 H2003 0.958 . S
C1989 H2004 0.961 . S
C1989 H2005 0.960 . S
H1990 C1974 0.931 . S
H1991 C1979 0.929 . S
H1992 C1980 0.960 . S
H1993 C1980 0.962 . S
H1994 C1980 0.960 . S
H1995 C1981 0.961 . S
H1996 C1981 0.961 . S
H1997 C1981 0.961 . S
H1998 C1982 0.931 . S
H1999 C1987 0.930 . S
H2000 C1988 0.956 . S
H2001 C1988 0.961 . S
H2002 C1988 0.961 . S
H2003 C1989 0.958 . S
H2004 C1989 0.961 . S
H2005 C1989 0.960 . S
C2006 C2007 1.391 . S
C2006 C2008 1.394 . S
C2006 H2022 0.931 . S
C2007 C2006 1.391 . S
C2007 C2011 1.376 . S
C2008 C2006 1.394 . S
C2008 C2009 1.369 . S
C2008 C2012 1.531 . S
C2009 C2008 1.369 . S
C2009 C2010 1.410 . S
C2009 C2017 1.503 . S
C2010 C2009 1.410 . S
C2010 C2011 1.392 . S
C2010 C2013 1.511 . S
C2011 C2007 1.376 . S
C2011 C2010 1.392 . S
C2011 H2023 0.929 . S
C2012 C2008 1.531 . S
C2012 H2024 0.960 . S
C2012 H2025 0.962 . S
C2012 H2026 0.960 . S
C2013 C2010 1.511 . S
C2013 H2027 0.961 . S
C2013 H2028 0.961 . S
C2013 H2029 0.961 . S
C2014 C2015 1.370 . S
C2014 C2016 1.363 . S
C2014 H2030 0.931 . S
C2015 C2014 1.370 . S
C2015 C2019 1.408 . S
C2016 C2014 1.363 . S
C2016 C2017 1.370 . S
C2016 C2020 1.524 . S
C2017 C2009 1.503 . S
C2017 C2016 1.370 . S
C2017 C2018 1.403 . S
C2018 C2017 1.403 . S
C2018 C2019 1.404 . S
C2018 C2021 1.539 . S
C2019 C2015 1.408 . S
C2019 C2018 1.404 . S
C2019 H2031 0.930 . S
C2020 C2016 1.524 . S
C2020 H2032 0.956 . S
C2020 H2033 0.961 . S
C2020 H2034 0.961 . S
C2021 C2018 1.539 . S
C2021 H2035 0.958 . S
C2021 H2036 0.961 . S
C2021 H2037 0.960 . S
H2022 C2006 0.931 . S
H2023 C2011 0.929 . S
H2024 C2012 0.960 . S
H2025 C2012 0.962 . S
H2026 C2012 0.960 . S
H2027 C2013 0.961 . S
H2028 C2013 0.961 . S
H2029 C2013 0.961 . S
H2030 C2014 0.931 . S
H2031 C2019 0.930 . S
H2032 C2020 0.956 . S
H2033 C2020 0.961 . S
H2034 C2020 0.961 . S
H2035 C2021 0.958 . S
H2036 C2021 0.961 . S
H2037 C2021 0.960 . S
C2038 C2039 1.391 . S
C2038 C2040 1.394 . S
C2038 H2054 0.931 . S
C2039 C2038 1.391 . S
C2039 C2043 1.376 . S
C2040 C2038 1.394 . S
C2040 C2041 1.369 . S
C2040 C2044 1.531 . S
C2041 C2040 1.369 . S
C2041 C2042 1.410 . S
C2041 C2049 1.503 . S
C2042 C2041 1.410 . S
C2042 C2043 1.392 . S
C2042 C2045 1.511 . S
C2043 C2039 1.376 . S
C2043 C2042 1.392 . S
C2043 H2055 0.929 . S
C2044 C2040 1.531 . S
C2044 H2056 0.960 . S
C2044 H2057 0.962 . S
C2044 H2058 0.960 . S
C2045 C2042 1.511 . S
C2045 H2059 0.961 . S
C2045 H2060 0.961 . S
C2045 H2061 0.961 . S
C2046 C2047 1.370 . S
C2046 C2048 1.363 . S
C2046 H2062 0.931 . S
C2047 C2046 1.370 . S
C2047 C2051 1.408 . S
C2048 C2046 1.363 . S
C2048 C2049 1.370 . S
C2048 C2052 1.524 . S
C2049 C2041 1.503 . S
C2049 C2048 1.370 . S
C2049 C2050 1.403 . S
C2050 C2049 1.403 . S
C2050 C2051 1.404 . S
C2050 C2053 1.539 . S
C2051 C2047 1.408 . S
C2051 C2050 1.404 . S
C2051 H2063 0.930 . S
C2052 C2048 1.524 . S
C2052 H2064 0.956 . S
C2052 H2065 0.961 . S
C2052 H2066 0.961 . S
C2053 C2050 1.539 . S
C2053 H2067 0.958 . S
C2053 H2068 0.961 . S
C2053 H2069 0.960 . S
H2054 C2038 0.931 . S
H2055 C2043 0.929 . S
H2056 C2044 0.960 . S
H2057 C2044 0.962 . S
H2058 C2044 0.960 . S
H2059 C2045 0.961 . S
H2060 C2045 0.961 . S
H2061 C2045 0.961 . S
H2062 C2046 0.931 . S
H2063 C2051 0.930 . S
H2064 C2052 0.956 . S
H2065 C2052 0.961 . S
H2066 C2052 0.961 . S
H2067 C2053 0.958 . S
H2068 C2053 0.961 . S
H2069 C2053 0.960 . S
C2070 C2071 1.391 . S
C2070 C2072 1.394 . S
C2070 H2086 0.931 . S
C2071 C2070 1.391 . S
C2071 C2075 1.376 . S
C2072 C2070 1.394 . S
C2072 C2073 1.369 . S
C2072 C2076 1.531 . S
C2073 C2072 1.369 . S
C2073 C2074 1.410 . S
C2073 C2081 1.503 . S
C2074 C2073 1.410 . S
C2074 C2075 1.392 . S
C2074 C2077 1.511 . S
C2075 C2071 1.376 . S
C2075 C2074 1.392 . S
C2075 H2087 0.929 . S
C2076 C2072 1.531 . S
C2076 H2088 0.960 . S
C2076 H2089 0.962 . S
C2076 H2090 0.960 . S
C2077 C2074 1.511 . S
C2077 H2091 0.961 . S
C2077 H2092 0.961 . S
C2077 H2093 0.961 . S
C2078 C2079 1.370 . S
C2078 C2080 1.363 . S
C2078 H2094 0.931 . S
C2079 C2078 1.370 . S
C2079 C2083 1.408 . S
C2080 C2078 1.363 . S
C2080 C2081 1.370 . S
C2080 C2084 1.524 . S
C2081 C2073 1.503 . S
C2081 C2080 1.370 . S
C2081 C2082 1.403 . S
C2082 C2081 1.403 . S
C2082 C2083 1.404 . S
C2082 C2085 1.539 1_565 S
C2083 C2079 1.408 . S
C2083 C2082 1.404 . S
C2083 H2095 0.930 1_565 S
C2084 C2080 1.524 . S
C2084 H2096 0.956 . S
C2084 H2097 0.961 . S
C2084 H2098 0.961 . S
C2085 C2082 1.539 1_545 S
C2085 H2099 0.958 . S
C2085 H2100 0.961 . S
C2085 H2101 0.960 1_545 S
H2086 C2070 0.931 . S
H2087 C2075 0.929 . S
H2088 C2076 0.960 . S
H2089 C2076 0.962 . S
H2090 C2076 0.960 . S
H2091 C2077 0.961 . S
H2092 C2077 0.961 . S
H2093 C2077 0.961 . S
H2094 C2078 0.931 . S
H2095 C2083 0.930 1_545 S
H2096 C2084 0.956 . S
H2097 C2084 0.961 . S
H2098 C2084 0.961 . S
H2099 C2085 0.958 . S
H2100 C2085 0.961 . S
H2101 C2085 0.960 1_565 S
C2102 C2103 1.391 . S
C2102 C2104 1.394 . S
C2102 H2118 0.931 . S
C2103 C2102 1.391 . S
C2103 C2107 1.376 . S
C2104 C2102 1.394 . S
C2104 C2105 1.369 . S
C2104 C2108 1.531 . S
C2105 C2104 1.369 . S
C2105 C2106 1.410 . S
C2105 C2113 1.503 . S
C2106 C2105 1.410 . S
C2106 C2107 1.392 . S
C2106 C2109 1.511 . S
C2107 C2103 1.376 . S
C2107 C2106 1.392 . S
C2107 H2119 0.929 . S
C2108 C2104 1.531 . S
C2108 H2120 0.960 . S
C2108 H2121 0.962 . S
C2108 H2122 0.960 . S
C2109 C2106 1.511 . S
C2109 H2123 0.961 . S
C2109 H2124 0.961 . S
C2109 H2125 0.961 1_455 S
C2110 C2111 1.370 . S
C2110 C2112 1.363 . S
C2110 H2126 0.931 . S
C2111 C2110 1.370 . S
C2111 C2115 1.408 . S
C2112 C2110 1.363 . S
C2112 C2113 1.370 . S
C2112 C2116 1.524 . S
C2113 C2105 1.503 . S
C2113 C2112 1.370 . S
C2113 C2114 1.403 . S
C2114 C2113 1.403 . S
C2114 C2115 1.404 . S
C2114 C2117 1.539 1_455 S
C2115 C2111 1.408 . S
C2115 C2114 1.404 . S
C2115 H2127 0.930 1_455 S
C2116 C2112 1.524 . S
C2116 H2128 0.956 . S
C2116 H2129 0.961 . S
C2116 H2130 0.961 . S
C2117 C2114 1.539 1_655 S
C2117 H2131 0.953 1_655 S
C2117 H2132 0.961 . S
C2117 H2133 0.960 . S
H2118 C2102 0.931 . S
H2119 C2107 0.929 . S
H2120 C2108 0.960 . S
H2121 C2108 0.962 . S
H2122 C2108 0.960 . S
H2123 C2109 0.961 . S
H2124 C2109 0.961 . S
H2125 C2109 0.961 1_655 S
H2126 C2110 0.931 . S
H2127 C2115 0.930 1_655 S
H2128 C2116 0.956 . S
H2129 C2116 0.961 . S
H2130 C2116 0.961 . S
H2131 C2117 0.953 1_455 S
H2132 C2117 0.961 . S
H2133 C2117 0.960 . S
C2134 C2135 1.391 . S
C2134 C2136 1.394 . S
C2134 H2150 0.931 . S
C2135 C2134 1.391 . S
C2135 C2139 1.376 . S
C2136 C2134 1.394 . S
C2136 C2137 1.369 . S
C2136 C2140 1.531 . S
C2137 C2136 1.369 . S
C2137 C2138 1.410 . S
C2137 C2145 1.503 . S
C2138 C2137 1.410 . S
C2138 C2139 1.392 . S
C2138 C2141 1.511 . S
C2139 C2135 1.376 . S
C2139 C2138 1.392 . S
C2139 H2151 0.929 . S
C2140 C2136 1.531 . S
C2140 H2152 0.960 . S
C2140 H2153 0.962 . S
C2140 H2154 0.960 . S
C2141 C2138 1.511 . S
C2141 H2155 0.961 . S
C2141 H2156 0.961 . S
C2141 H2157 0.961 . S
C2142 C2143 1.370 . S
C2142 C2144 1.363 . S
C2142 H2158 0.931 . S
C2143 C2142 1.370 . S
C2143 C2147 1.408 . S
C2144 C2142 1.363 . S
C2144 C2145 1.370 . S
C2144 C2148 1.524 . S
C2145 C2137 1.503 . S
C2145 C2144 1.370 . S
C2145 C2146 1.403 . S
C2146 C2145 1.403 . S
C2146 C2147 1.404 . S
C2146 C2149 1.539 . S
C2147 C2143 1.408 . S
C2147 C2146 1.404 . S
C2147 H2159 0.930 . S
C2148 C2144 1.524 . S
C2148 H2160 0.956 . S
C2148 H2161 0.961 . S
C2148 H2162 0.961 . S
C2149 C2146 1.539 . S
C2149 H2163 0.958 . S
C2149 H2164 0.961 . S
C2149 H2165 0.960 . S
H2150 C2134 0.931 . S
H2151 C2139 0.929 . S
H2152 C2140 0.960 . S
H2153 C2140 0.962 . S
H2154 C2140 0.960 . S
H2155 C2141 0.961 . S
H2156 C2141 0.961 . S
H2157 C2141 0.961 . S
H2158 C2142 0.931 . S
H2159 C2147 0.930 . S
H2160 C2148 0.956 . S
H2161 C2148 0.961 . S
H2162 C2148 0.961 . S
H2163 C2149 0.958 . S
H2164 C2149 0.961 . S
H2165 C2149 0.960 . S
C2166 C2167 1.391 . S
C2166 C2168 1.394 . S
C2166 H2182 0.931 . S
C2167 C2166 1.391 . S
C2167 C2171 1.376 . S
C2168 C2166 1.394 . S
C2168 C2169 1.369 . S
C2168 C2172 1.531 . S
C2169 C2168 1.369 . S
C2169 C2170 1.410 . S
C2169 C2177 1.503 . S
C2170 C2169 1.410 . S
C2170 C2171 1.392 . S
C2170 C2173 1.511 1_655 S
C2171 C2167 1.376 . S
C2171 C2170 1.392 . S
C2171 H2183 0.929 . S
C2172 C2168 1.531 . S
C2172 H2184 0.960 . S
C2172 H2185 0.962 . S
C2172 H2186 0.960 . S
C2173 C2170 1.511 1_455 S
C2173 H2187 0.961 . S
C2173 H2188 0.961 . S
C2173 H2189 0.961 . S
C2174 C2175 1.370 . S
C2174 C2176 1.363 . S
C2174 H2190 0.931 . S
C2175 C2174 1.370 . S
C2175 C2179 1.408 . S
C2176 C2174 1.363 . S
C2176 C2177 1.370 . S
C2176 C2180 1.524 . S
C2177 C2169 1.503 . S
C2177 C2176 1.370 . S
C2177 C2178 1.403 . S
C2178 C2177 1.403 . S
C2178 C2179 1.404 . S
C2178 C2181 1.539 . S
C2179 C2175 1.408 . S
C2179 C2178 1.404 . S
C2179 H2191 0.930 . S
C2180 C2176 1.524 . S
C2180 H2192 0.956 . S
C2180 H2193 0.961 . S
C2180 H2194 0.961 . S
C2181 C2178 1.539 . S
C2181 H2195 0.958 . S
C2181 H2196 0.961 . S
C2181 H2197 0.960 . S
H2182 C2166 0.931 . S
H2183 C2171 0.929 . S
H2184 C2172 0.960 . S
H2185 C2172 0.962 . S
H2186 C2172 0.960 . S
H2187 C2173 0.961 . S
H2188 C2173 0.961 . S
H2189 C2173 0.961 . S
H2190 C2174 0.931 . S
H2191 C2179 0.930 . S
H2192 C2180 0.956 . S
H2193 C2180 0.961 . S
H2194 C2180 0.961 . S
H2195 C2181 0.958 . S
H2196 C2181 0.961 . S
H2197 C2181 0.960 . S
C2198 C2199 1.391 . S
C2198 C2200 1.394 . S
C2198 H2214 0.931 . S
C2199 C2198 1.391 . S
C2199 C2203 1.376 . S
C2200 C2198 1.394 . S
C2200 C2201 1.369 . S
C2200 C2204 1.531 . S
C2201 C2200 1.369 . S
C2201 C2202 1.410 . S
C2201 C2209 1.503 . S
C2202 C2201 1.410 . S
C2202 C2203 1.392 . S
C2202 C2205 1.511 . S
C2203 C2199 1.376 . S
C2203 C2202 1.392 . S
C2203 H2215 0.929 . S
C2204 C2200 1.531 . S
C2204 H2216 0.960 . S
C2204 H2217 0.962 . S
C2204 H2218 0.960 . S
C2205 C2202 1.511 . S
C2205 H2219 0.961 . S
C2205 H2220 0.961 . S
C2205 H2221 0.961 . S
C2206 C2207 1.370 . S
C2206 C2208 1.363 . S
C2206 H2222 0.931 . S
C2207 C2206 1.370 . S
C2207 C2211 1.408 . S
C2208 C2206 1.363 . S
C2208 C2209 1.370 . S
C2208 C2212 1.524 . S
C2209 C2201 1.503 . S
C2209 C2208 1.370 . S
C2209 C2210 1.403 . S
C2210 C2209 1.403 . S
C2210 C2211 1.404 . S
C2210 C2213 1.539 . S
C2211 C2207 1.408 . S
C2211 C2210 1.404 . S
C2211 H2223 0.930 . S
C2212 C2208 1.524 . S
C2212 H2224 0.956 . S
C2212 H2225 0.961 . S
C2212 H2226 0.961 . S
C2213 C2210 1.539 . S
C2213 H2227 0.958 . S
C2213 H2228 0.961 . S
C2213 H2229 0.960 . S
H2214 C2198 0.931 . S
H2215 C2203 0.929 . S
H2216 C2204 0.960 . S
H2217 C2204 0.962 . S
H2218 C2204 0.960 . S
H2219 C2205 0.961 . S
H2220 C2205 0.961 . S
H2221 C2205 0.961 . S
H2222 C2206 0.931 . S
H2223 C2211 0.930 . S
H2224 C2212 0.956 . S
H2225 C2212 0.961 . S
H2226 C2212 0.961 . S
H2227 C2213 0.958 . S
H2228 C2213 0.961 . S
H2229 C2213 0.960 . S
C2230 C2231 1.391 . S
C2230 C2232 1.394 . S
C2230 H2246 0.931 . S
C2231 C2230 1.391 . S
C2231 C2235 1.376 . S
C2232 C2230 1.394 . S
C2232 C2233 1.369 . S
C2232 C2236 1.531 . S
C2233 C2232 1.369 . S
C2233 C2234 1.410 . S
C2233 C2241 1.503 . S
C2234 C2233 1.410 . S
C2234 C2235 1.392 . S
C2234 C2237 1.511 . S
C2235 C2231 1.376 . S
C2235 C2234 1.392 . S
C2235 H2247 0.929 . S
C2236 C2232 1.531 . S
C2236 H2248 0.960 . S
C2236 H2249 0.962 . S
C2236 H2250 0.960 . S
C2237 C2234 1.511 . S
C2237 H2251 0.961 . S
C2237 H2252 0.961 . S
C2237 H2253 0.961 . S
C2238 C2239 1.370 . S
C2238 C2240 1.363 . S
C2238 H2254 0.931 . S
C2239 C2238 1.370 . S
C2239 C2243 1.408 . S
C2240 C2238 1.363 . S
C2240 C2241 1.370 . S
C2240 C2244 1.524 . S
C2241 C2233 1.503 . S
C2241 C2240 1.370 . S
C2241 C2242 1.403 . S
C2242 C2241 1.403 . S
C2242 C2243 1.404 . S
C2242 C2245 1.539 . S
C2243 C2239 1.408 . S
C2243 C2242 1.404 . S
C2243 H2255 0.930 . S
C2244 C2240 1.524 . S
C2244 H2256 0.956 . S
C2244 H2257 0.961 . S
C2244 H2258 0.979 . S
C2245 C2242 1.539 . S
C2245 H2259 0.958 . S
C2245 H2260 0.961 . S
C2245 H2261 0.960 . S
H2246 C2230 0.931 . S
H2247 C2235 0.929 . S
H2248 C2236 0.960 . S
H2249 C2236 0.962 . S
H2250 C2236 0.960 . S
H2251 C2237 0.961 . S
H2252 C2237 0.961 . S
H2253 C2237 0.961 . S
H2254 C2238 0.931 . S
H2255 C2243 0.930 . S
H2256 C2244 0.956 . S
H2257 C2244 0.961 . S
H2258 C2244 0.979 . S
H2259 C2245 0.958 . S
H2260 C2245 0.961 . S
H2261 C2245 0.960 . S
C2262 C2263 1.391 . S
C2262 C2264 1.394 . S
C2262 H2278 0.931 . S
C2263 C2262 1.391 . S
C2263 C2267 1.376 . S
C2264 C2262 1.394 . S
C2264 C2265 1.369 . S
C2264 C2268 1.531 . S
C2265 C2264 1.369 . S
C2265 C2266 1.410 . S
C2265 C2273 1.503 . S
C2266 C2265 1.410 . S
C2266 C2267 1.392 . S
C2266 C2269 1.511 . S
C2267 C2263 1.376 . S
C2267 C2266 1.392 . S
C2267 H2279 0.929 . S
C2268 C2264 1.531 . S
C2268 H2280 0.960 . S
C2268 H2281 0.962 . S
C2268 H2282 0.960 . S
C2269 C2266 1.511 . S
C2269 H2283 0.961 . S
C2269 H2284 0.961 . S
C2269 H2285 0.961 . S
C2270 C2271 1.370 . S
C2270 C2272 1.363 . S
C2270 H2286 0.931 . S
C2271 C2270 1.370 . S
C2271 C2275 1.408 . S
C2272 C2270 1.363 . S
C2272 C2273 1.370 . S
C2272 C2276 1.524 . S
C2273 C2265 1.503 . S
C2273 C2272 1.370 . S
C2273 C2274 1.403 . S
C2274 C2273 1.403 . S
C2274 C2275 1.404 . S
C2274 C2277 1.539 . S
C2275 C2271 1.408 . S
C2275 C2274 1.404 . S
C2275 H2287 0.930 . S
C2276 C2272 1.524 . S
C2276 H2288 0.956 . S
C2276 H2289 0.961 . S
C2276 H2290 0.961 . S
C2277 C2274 1.539 . S
C2277 H2291 0.958 . S
C2277 H2292 0.961 . S
C2277 H2293 0.960 . S
H2278 C2262 0.931 . S
H2279 C2267 0.929 . S
H2280 C2268 0.960 . S
H2281 C2268 0.962 . S
H2282 C2268 0.960 . S
H2283 C2269 0.961 . S
H2284 C2269 0.961 . S
H2285 C2269 0.961 . S
H2286 C2270 0.931 . S
H2287 C2275 0.930 . S
H2288 C2276 0.956 . S
H2289 C2276 0.961 . S
H2290 C2276 0.961 . S
H2291 C2277 0.958 . S
H2292 C2277 0.961 . S
H2293 C2277 0.960 . S
C2294 C2295 1.391 . S
C2294 C2296 1.394 . S
C2294 H2310 0.931 . S
C2295 C2294 1.391 . S
C2295 C2299 1.376 . S
C2296 C2294 1.394 . S
C2296 C2297 1.369 . S
C2296 C2300 1.531 . S
C2297 C2296 1.369 . S
C2297 C2298 1.410 . S
C2297 C2305 1.503 . S
C2298 C2297 1.410 . S
C2298 C2299 1.392 . S
C2298 C2301 1.511 . S
C2299 C2295 1.376 . S
C2299 C2298 1.392 . S
C2299 H2311 0.929 . S
C2300 C2296 1.531 . S
C2300 H2312 0.960 . S
C2300 H2313 0.962 . S
C2300 H2314 0.960 . S
C2301 C2298 1.511 . S
C2301 H2315 0.961 . S
C2301 H2316 0.961 . S
C2301 H2317 0.961 . S
C2302 C2303 1.370 . S
C2302 C2304 1.363 . S
C2302 H2318 0.931 . S
C2303 C2302 1.370 . S
C2303 C2307 1.408 . S
C2304 C2302 1.363 . S
C2304 C2305 1.370 . S
C2304 C2308 1.524 . S
C2305 C2297 1.503 . S
C2305 C2304 1.370 . S
C2305 C2306 1.403 . S
C2306 C2305 1.403 . S
C2306 C2307 1.404 . S
C2306 C2309 1.539 . S
C2307 C2303 1.408 . S
C2307 C2306 1.404 . S
C2307 H2319 0.930 . S
C2308 C2304 1.524 . S
C2308 H2320 0.956 . S
C2308 H2321 0.961 . S
C2308 H2322 0.961 . S
C2309 C2306 1.539 . S
C2309 H2323 0.958 . S
C2309 H2324 0.961 . S
C2309 H2325 0.960 . S
H2310 C2294 0.931 . S
H2311 C2299 0.929 . S
H2312 C2300 0.960 . S
H2313 C2300 0.962 . S
H2314 C2300 0.960 . S
H2315 C2301 0.961 . S
H2316 C2301 0.961 . S
H2317 C2301 0.961 . S
H2318 C2302 0.931 . S
H2319 C2307 0.930 . S
H2320 C2308 0.956 . S
H2321 C2308 0.961 . S
H2322 C2308 0.961 . S
H2323 C2309 0.958 . S
H2324 C2309 0.961 . S
H2325 C2309 0.960 . S
C2326 C2327 1.391 . S
C2326 C2328 1.394 . S
C2326 H2342 0.931 . S
C2327 C2326 1.391 . S
C2327 C2331 1.376 . S
C2328 C2326 1.394 . S
C2328 C2329 1.369 . S
C2328 C2332 1.531 . S
C2329 C2328 1.369 . S
C2329 C2330 1.410 . S
C2329 C2337 1.503 . S
C2330 C2329 1.410 . S
C2330 C2331 1.392 . S
C2330 C2333 1.511 . S
C2331 C2327 1.376 . S
C2331 C2330 1.392 . S
C2331 H2343 0.929 . S
C2332 C2328 1.531 . S
C2332 H2344 0.960 . S
C2332 H2345 0.962 . S
C2332 H2346 0.960 . S
C2333 C2330 1.511 . S
C2333 H2347 0.961 . S
C2333 H2348 0.961 . S
C2333 H2349 0.961 . S
C2334 C2335 1.370 . S
C2334 C2336 1.363 . S
C2334 H2350 0.931 . S
C2335 C2334 1.370 . S
C2335 C2339 1.408 . S
C2336 C2334 1.363 . S
C2336 C2337 1.370 . S
C2336 C2340 1.524 . S
C2337 C2329 1.503 . S
C2337 C2336 1.370 . S
C2337 C2338 1.403 . S
C2338 C2337 1.403 . S
C2338 C2339 1.404 . S
C2338 C2341 1.539 . S
C2339 C2335 1.408 . S
C2339 C2338 1.404 . S
C2339 H2351 0.930 . S
C2340 C2336 1.524 . S
C2340 H2352 0.956 . S
C2340 H2353 0.961 . S
C2340 H2354 0.961 . S
C2341 C2338 1.539 . S
C2341 H2355 0.958 . S
C2341 H2356 0.961 . S
C2341 H2357 0.960 . S
H2342 C2326 0.931 . S
H2343 C2331 0.929 . S
H2344 C2332 0.960 . S
H2345 C2332 0.962 . S
H2346 C2332 0.960 . S
H2347 C2333 0.961 . S
H2348 C2333 0.961 . S
H2349 C2333 0.961 . S
H2350 C2334 0.931 . S
H2351 C2339 0.930 . S
H2352 C2340 0.956 . S
H2353 C2340 0.961 . S
H2354 C2340 0.961 . S
H2355 C2341 0.958 . S
H2356 C2341 0.961 . S
H2357 C2341 0.960 . S
C2358 C2359 1.391 . S
C2358 C2360 1.394 . S
C2358 H2374 0.931 . S
C2359 C2358 1.391 . S
C2359 C2363 1.376 . S
C2360 C2358 1.394 . S
C2360 C2361 1.369 . S
C2360 C2364 1.531 . S
C2361 C2360 1.369 . S
C2361 C2362 1.410 . S
C2361 C2369 1.503 . S
C2362 C2361 1.410 . S
C2362 C2363 1.392 . S
C2362 C2365 1.511 . S
C2363 C2359 1.376 . S
C2363 C2362 1.392 . S
C2363 H2375 0.929 . S
C2364 C2360 1.531 . S
C2364 H2376 0.960 . S
C2364 H2377 0.962 . S
C2364 H2378 0.960 . S
C2365 C2362 1.511 . S
C2365 H2379 0.961 . S
C2365 H2380 0.961 . S
C2365 H2381 0.961 . S
C2366 C2367 1.370 . S
C2366 C2368 1.363 . S
C2366 H2382 0.931 . S
C2367 C2366 1.370 . S
C2367 C2371 1.408 . S
C2368 C2366 1.363 . S
C2368 C2369 1.370 . S
C2368 C2372 1.524 . S
C2369 C2361 1.503 . S
C2369 C2368 1.370 . S
C2369 C2370 1.403 . S
C2370 C2369 1.403 . S
C2370 C2371 1.404 . S
C2370 C2373 1.539 . S
C2371 C2367 1.408 . S
C2371 C2370 1.404 . S
C2371 H2383 0.930 . S
C2372 C2368 1.524 . S
C2372 H2384 0.956 . S
C2372 H2385 0.961 . S
C2372 H2386 0.961 . S
C2373 C2370 1.539 . S
C2373 H2387 0.958 . S
C2373 H2388 0.961 . S
C2373 H2389 0.960 . S
H2374 C2358 0.931 . S
H2375 C2363 0.929 . S
H2376 C2364 0.960 . S
H2377 C2364 0.962 . S
H2378 C2364 0.960 . S
H2379 C2365 0.961 . S
H2380 C2365 0.961 . S
H2381 C2365 0.961 . S
H2382 C2366 0.931 . S
H2383 C2371 0.930 . S
H2384 C2372 0.956 . S
H2385 C2372 0.961 . S
H2386 C2372 0.961 . S
H2387 C2373 0.958 . S
H2388 C2373 0.961 . S
H2389 C2373 0.960 . S
C2390 C2391 1.391 . S
C2390 C2392 1.394 . S
C2390 H2406 0.931 . S
C2391 C2390 1.391 . S
C2391 C2395 1.376 . S
C2392 C2390 1.394 . S
C2392 C2393 1.369 . S
C2392 C2396 1.531 . S
C2393 C2392 1.369 . S
C2393 C2394 1.410 . S
C2393 C2401 1.503 . S
C2394 C2393 1.410 . S
C2394 C2395 1.392 . S
C2394 C2397 1.511 . S
C2395 C2391 1.376 . S
C2395 C2394 1.392 . S
C2395 H2407 0.929 . S
C2396 C2392 1.531 . S
C2396 H2408 0.960 . S
C2396 H2409 0.962 . S
C2396 H2410 0.960 . S
C2397 C2394 1.511 . S
C2397 H2411 0.961 . S
C2397 H2412 0.961 . S
C2397 H2413 0.961 . S
C2398 C2399 1.370 . S
C2398 C2400 1.363 . S
C2398 H2414 0.931 . S
C2399 C2398 1.370 . S
C2399 C2403 1.408 . S
C2400 C2398 1.363 . S
C2400 C2401 1.370 . S
C2400 C2404 1.524 . S
C2401 C2393 1.503 . S
C2401 C2400 1.370 . S
C2401 C2402 1.403 . S
C2402 C2401 1.403 . S
C2402 C2403 1.404 . S
C2402 C2405 1.539 . S
C2403 C2399 1.408 . S
C2403 C2402 1.404 . S
C2403 H2415 0.930 . S
C2404 C2400 1.524 . S
C2404 H2416 0.956 . S
C2404 H2417 0.961 . S
C2404 H2418 0.961 . S
C2405 C2402 1.539 . S
C2405 H2419 0.958 . S
C2405 H2420 0.961 . S
C2405 H2421 0.960 . S
H2406 C2390 0.931 . S
H2407 C2395 0.929 . S
H2408 C2396 0.960 . S
H2409 C2396 0.962 . S
H2410 C2396 0.960 . S
H2411 C2397 0.961 . S
H2412 C2397 0.961 . S
H2413 C2397 0.961 . S
H2414 C2398 0.931 . S
H2415 C2403 0.930 . S
H2416 C2404 0.956 . S
H2417 C2404 0.961 . S
H2418 C2404 0.961 . S
H2419 C2405 0.958 . S
H2420 C2405 0.961 . S
H2421 C2405 0.960 . S
C2422 C2423 1.391 . S
C2422 C2424 1.394 . S
C2422 H2438 0.931 . S
C2423 C2422 1.391 . S
C2423 C2427 1.376 . S
C2424 C2422 1.394 . S
C2424 C2425 1.369 . S
C2424 C2428 1.531 . S
C2425 C2424 1.369 . S
C2425 C2426 1.410 . S
C2425 C2433 1.503 . S
C2426 C2425 1.410 . S
C2426 C2427 1.392 . S
C2426 C2429 1.511 . S
C2427 C2423 1.376 . S
C2427 C2426 1.392 . S
C2427 H2439 0.929 . S
C2428 C2424 1.531 . S
C2428 H2440 0.960 . S
C2428 H2441 0.962 . S
C2428 H2442 0.960 . S
C2429 C2426 1.511 . S
C2429 H2443 0.961 . S
C2429 H2444 0.961 . S
C2429 H2445 0.961 . S
C2430 C2431 1.370 . S
C2430 C2432 1.363 . S
C2430 H2446 0.931 . S
C2431 C2430 1.370 . S
C2431 C2435 1.408 . S
C2432 C2430 1.363 . S
C2432 C2433 1.370 . S
C2432 C2436 1.524 . S
C2433 C2425 1.503 . S
C2433 C2432 1.370 . S
C2433 C2434 1.403 . S
C2434 C2433 1.403 . S
C2434 C2435 1.404 . S
C2434 C2437 1.539 . S
C2435 C2431 1.408 . S
C2435 C2434 1.404 . S
C2435 H2447 0.930 . S
C2436 C2432 1.524 . S
C2436 H2448 0.956 . S
C2436 H2449 0.961 . S
C2436 H2450 0.961 . S
C2437 C2434 1.539 . S
C2437 H2451 0.958 . S
C2437 H2452 0.961 . S
C2437 H2453 0.960 . S
H2438 C2422 0.931 . S
H2439 C2427 0.929 . S
H2440 C2428 0.960 . S
H2441 C2428 0.962 . S
H2442 C2428 0.960 . S
H2443 C2429 0.961 . S
H2444 C2429 0.961 . S
H2445 C2429 0.961 . S
H2446 C2430 0.931 . S
H2447 C2435 0.930 . S
H2448 C2436 0.956 . S
H2449 C2436 0.961 . S
H2450 C2436 0.961 . S
H2451 C2437 0.958 . S
H2452 C2437 0.961 . S
H2453 C2437 0.960 . S
C2454 C2455 1.391 . S
C2454 C2456 1.394 . S
C2454 H2470 0.931 . S
C2455 C2454 1.391 . S
C2455 C2459 1.376 . S
C2456 C2454 1.394 . S
C2456 C2457 1.369 . S
C2456 C2460 1.531 . S
C2457 C2456 1.369 . S
C2457 C2458 1.410 . S
C2457 C2465 1.503 . S
C2458 C2457 1.410 . S
C2458 C2459 1.392 . S
C2458 C2461 1.511 . S
C2459 C2455 1.376 . S
C2459 C2458 1.392 . S
C2459 H2471 0.929 . S
C2460 C2456 1.531 . S
C2460 H2472 0.960 . S
C2460 H2473 0.962 . S
C2460 H2474 0.960 . S
C2461 C2458 1.511 . S
C2461 H2475 0.961 . S
C2461 H2476 0.961 . S
C2461 H2477 0.961 . S
C2462 C2463 1.370 . S
C2462 C2464 1.363 . S
C2462 H2478 0.931 . S
C2463 C2462 1.370 . S
C2463 C2467 1.408 . S
C2464 C2462 1.363 . S
C2464 C2465 1.370 . S
C2464 C2468 1.524 . S
C2465 C2457 1.503 . S
C2465 C2464 1.370 . S
C2465 C2466 1.403 . S
C2466 C2465 1.403 . S
C2466 C2467 1.404 . S
C2466 C2469 1.539 . S
C2467 C2463 1.408 . S
C2467 C2466 1.404 . S
C2467 H2479 0.930 . S
C2468 C2464 1.524 . S
C2468 H2480 0.956 . S
C2468 H2481 0.961 . S
C2468 H2482 0.961 . S
C2469 C2466 1.539 . S
C2469 H2483 0.958 . S
C2469 H2484 0.961 . S
C2469 H2485 0.960 . S
H2470 C2454 0.931 . S
H2471 C2459 0.929 . S
H2472 C2460 0.960 . S
H2473 C2460 0.962 . S
H2474 C2460 0.960 . S
H2475 C2461 0.961 . S
H2476 C2461 0.961 . S
H2477 C2461 0.961 . S
H2478 C2462 0.931 . S
H2479 C2467 0.930 . S
H2480 C2468 0.956 . S
H2481 C2468 0.961 . S
H2482 C2468 0.961 . S
H2483 C2469 0.958 . S
H2484 C2469 0.961 . S
H2485 C2469 0.960 . S
C2486 C2487 1.391 . S
C2486 C2488 1.394 . S
C2486 H2502 0.931 . S
C2487 C2486 1.391 . S
C2487 C2491 1.376 . S
C2488 C2486 1.394 . S
C2488 C2489 1.369 . S
C2488 C2492 1.531 . S
C2489 C2488 1.369 . S
C2489 C2490 1.410 . S
C2489 C2497 1.503 . S
C2490 C2489 1.410 . S
C2490 C2491 1.392 . S
C2490 C2493 1.511 . S
C2491 C2487 1.376 . S
C2491 C2490 1.392 . S
C2491 H2503 0.929 . S
C2492 C2488 1.531 . S
C2492 H2504 0.960 . S
C2492 H2505 0.962 . S
C2492 H2506 0.960 . S
C2493 C2490 1.511 . S
C2493 H2507 0.961 . S
C2493 H2508 0.961 . S
C2493 H2509 0.961 . S
C2494 C2495 1.370 . S
C2494 C2496 1.363 . S
C2494 H2510 0.931 . S
C2495 C2494 1.370 . S
C2495 C2499 1.408 . S
C2496 C2494 1.363 . S
C2496 C2497 1.370 . S
C2496 C2500 1.524 . S
C2497 C2489 1.503 . S
C2497 C2496 1.370 . S
C2497 C2498 1.403 . S
C2498 C2497 1.403 . S
C2498 C2499 1.404 . S
C2498 C2501 1.539 . S
C2499 C2495 1.408 . S
C2499 C2498 1.404 . S
C2499 H2511 0.930 . S
C2500 C2496 1.524 . S
C2500 H2512 0.956 . S
C2500 H2513 0.961 . S
C2500 H2514 0.961 . S
C2501 C2498 1.539 . S
C2501 H2515 0.958 . S
C2501 H2516 0.961 . S
C2501 H2517 0.960 . S
H2502 C2486 0.931 . S
H2503 C2491 0.929 . S
H2504 C2492 0.960 . S
H2505 C2492 0.962 . S
H2506 C2492 0.960 . S
H2507 C2493 0.961 . S
H2508 C2493 0.961 . S
H2509 C2493 0.961 . S
H2510 C2494 0.931 . S
H2511 C2499 0.930 . S
H2512 C2500 0.956 . S
H2513 C2500 0.961 . S
H2514 C2500 0.961 . S
H2515 C2501 0.958 . S
H2516 C2501 0.961 . S
H2517 C2501 0.960 . S
C2518 C2519 1.391 . S
C2518 C2520 1.394 . S
C2518 H2534 0.931 . S
C2519 C2518 1.391 . S
C2519 C2523 1.376 . S
C2520 C2518 1.394 . S
C2520 C2521 1.369 . S
C2520 C2524 1.531 . S
C2521 C2520 1.369 . S
C2521 C2522 1.410 . S
C2521 C2529 1.503 . S
C2522 C2521 1.410 . S
C2522 C2523 1.392 . S
C2522 C2525 1.511 . S
C2523 C2519 1.376 . S
C2523 C2522 1.392 . S
C2523 H2535 0.929 . S
C2524 C2520 1.531 . S
C2524 H2536 0.960 . S
C2524 H2537 0.962 . S
C2524 H2538 0.960 . S
C2525 C2522 1.511 . S
C2525 H2539 0.961 . S
C2525 H2540 0.961 . S
C2525 H2541 0.961 . S
C2526 C2527 1.370 . S
C2526 C2528 1.363 . S
C2526 H2542 0.931 . S
C2527 C2526 1.370 . S
C2527 C2531 1.408 . S
C2528 C2526 1.363 . S
C2528 C2529 1.370 . S
C2528 C2532 1.524 . S
C2529 C2521 1.503 . S
C2529 C2528 1.370 . S
C2529 C2530 1.403 . S
C2530 C2529 1.403 . S
C2530 C2531 1.404 . S
C2530 C2533 1.539 . S
C2531 C2527 1.408 . S
C2531 C2530 1.404 . S
C2531 H2543 0.930 . S
C2532 C2528 1.524 . S
C2532 H2544 0.956 . S
C2532 H2545 0.961 . S
C2532 H2546 0.961 . S
C2533 C2530 1.539 . S
C2533 H2547 0.958 . S
C2533 H2548 0.961 . S
C2533 H2549 0.960 . S
H2534 C2518 0.931 . S
H2535 C2523 0.929 . S
H2536 C2524 0.960 . S
H2537 C2524 0.962 . S
H2538 C2524 0.960 . S
H2539 C2525 0.961 . S
H2540 C2525 0.961 . S
H2541 C2525 0.961 . S
H2542 C2526 0.931 . S
H2543 C2531 0.930 . S
H2544 C2532 0.956 . S
H2545 C2532 0.961 . S
H2546 C2532 0.961 . S
H2547 C2533 0.958 . S
H2548 C2533 0.961 . S
H2549 C2533 0.960 . S
C2550 C2551 1.391 . S
C2550 C2552 1.394 . S
C2550 H2566 0.931 . S
C2551 C2550 1.391 . S
C2551 C2555 1.376 . S
C2552 C2550 1.394 . S
C2552 C2553 1.369 . S
C2552 C2556 1.531 . S
C2553 C2552 1.369 . S
C2553 C2554 1.410 . S
C2553 C2561 1.503 . S
C2554 C2553 1.410 . S
C2554 C2555 1.392 . S
C2554 C2557 1.511 . S
C2555 C2551 1.376 . S
C2555 C2554 1.392 . S
C2555 H2567 0.929 . S
C2556 C2552 1.531 . S
C2556 H2568 0.960 . S
C2556 H2569 0.962 . S
C2556 H2570 0.960 . S
C2557 C2554 1.511 . S
C2557 H2571 0.961 . S
C2557 H2572 0.961 . S
C2557 H2573 0.961 . S
C2558 C2559 1.370 . S
C2558 C2560 1.363 . S
C2558 H2574 0.931 . S
C2559 C2558 1.370 . S
C2559 C2563 1.408 . S
C2560 C2558 1.363 . S
C2560 C2561 1.370 . S
C2560 C2564 1.524 . S
C2561 C2553 1.503 . S
C2561 C2560 1.370 . S
C2561 C2562 1.403 . S
C2562 C2561 1.403 . S
C2562 C2563 1.404 . S
C2562 C2565 1.539 . S
C2563 C2559 1.408 . S
C2563 C2562 1.404 . S
C2563 H2575 0.930 . S
C2564 C2560 1.524 . S
C2564 H2576 0.956 . S
C2564 H2577 0.961 . S
C2564 H2578 0.961 . S
C2565 C2562 1.539 . S
C2565 H2579 0.958 . S
C2565 H2580 0.961 . S
C2565 H2581 0.960 . S
H2566 C2550 0.931 . S
H2567 C2555 0.929 . S
H2568 C2556 0.960 . S
H2569 C2556 0.962 . S
H2570 C2556 0.960 . S
H2571 C2557 0.961 . S
H2572 C2557 0.961 . S
H2573 C2557 0.961 . S
H2574 C2558 0.931 . S
H2575 C2563 0.930 . S
H2576 C2564 0.956 . S
H2577 C2564 0.961 . S
H2578 C2564 0.961 . S
H2579 C2565 0.958 . S
H2580 C2565 0.961 . S
H2581 C2565 0.960 . S
C2582 C2583 1.391 . S
C2582 C2584 1.394 . S
C2582 H2598 0.931 . S
C2583 C2582 1.391 . S
C2583 C2587 1.376 . S
C2584 C2582 1.394 . S
C2584 C2585 1.369 . S
C2584 C2588 1.531 . S
C2585 C2584 1.369 . S
C2585 C2586 1.410 . S
C2585 C2593 1.503 . S
C2586 C2585 1.410 . S
C2586 C2587 1.392 . S
C2586 C2589 1.511 . S
C2587 C2583 1.376 . S
C2587 C2586 1.392 . S
C2587 H2599 0.929 . S
C2588 C2584 1.531 . S
C2588 H2600 0.960 . S
C2588 H2601 0.962 . S
C2588 H2602 0.960 . S
C2589 C2586 1.511 . S
C2589 H2603 0.961 . S
C2589 H2604 0.961 . S
C2589 H2605 0.961 . S
C2590 C2591 1.370 . S
C2590 C2592 1.363 . S
C2590 H2606 0.931 . S
C2591 C2590 1.370 . S
C2591 C2595 1.408 . S
C2592 C2590 1.363 . S
C2592 C2593 1.370 . S
C2592 C2596 1.524 . S
C2593 C2585 1.503 . S
C2593 C2592 1.370 . S
C2593 C2594 1.403 . S
C2594 C2593 1.403 . S
C2594 C2595 1.404 . S
C2594 C2597 1.539 . S
C2595 C2591 1.408 . S
C2595 C2594 1.404 . S
C2595 H2607 0.930 . S
C2596 C2592 1.524 . S
C2596 H2608 0.956 . S
C2596 H2609 0.961 . S
C2596 H2610 0.961 . S
C2597 C2594 1.539 . S
C2597 H2611 0.958 . S
C2597 H2612 0.961 . S
C2597 H2613 0.960 . S
H2598 C2582 0.931 . S
H2599 C2587 0.929 . S
H2600 C2588 0.960 . S
H2601 C2588 0.962 . S
H2602 C2588 0.960 . S
H2603 C2589 0.961 . S
H2604 C2589 0.961 . S
H2605 C2589 0.961 . S
H2606 C2590 0.931 . S
H2607 C2595 0.930 . S
H2608 C2596 0.956 . S
H2609 C2596 0.961 . S
H2610 C2596 0.961 . S
H2611 C2597 0.958 . S
H2612 C2597 0.961 . S
H2613 C2597 0.960 . S
C2614 C2615 1.391 . S
C2614 C2616 1.394 . S
C2614 H2630 0.931 . S
C2615 C2614 1.391 . S
C2615 C2619 1.376 . S
C2616 C2614 1.394 . S
C2616 C2617 1.369 . S
C2616 C2620 1.531 . S
C2617 C2616 1.369 . S
C2617 C2618 1.410 . S
C2617 C2625 1.503 . S
C2618 C2617 1.410 . S
C2618 C2619 1.392 . S
C2618 C2621 1.511 . S
C2619 C2615 1.376 . S
C2619 C2618 1.392 . S
C2619 H2631 0.929 . S
C2620 C2616 1.531 . S
C2620 H2632 0.960 . S
C2620 H2633 0.962 . S
C2620 H2634 0.960 . S
C2621 C2618 1.511 . S
C2621 H2635 0.961 . S
C2621 H2636 0.961 . S
C2621 H2637 0.961 . S
C2622 C2623 1.370 . S
C2622 C2624 1.363 . S
C2622 H2638 0.931 . S
C2623 C2622 1.370 . S
C2623 C2627 1.408 . S
C2624 C2622 1.363 . S
C2624 C2625 1.370 . S
C2624 C2628 1.524 . S
C2625 C2617 1.503 . S
C2625 C2624 1.370 . S
C2625 C2626 1.403 . S
C2626 C2625 1.403 . S
C2626 C2627 1.404 . S
C2626 C2629 1.539 . S
C2627 C2623 1.408 . S
C2627 C2626 1.404 . S
C2627 H2639 0.930 . S
C2628 C2624 1.524 . S
C2628 H2640 0.956 . S
C2628 H2641 0.961 . S
C2628 H2642 0.961 . S
C2629 C2626 1.539 . S
C2629 H2643 0.958 . S
C2629 H2644 0.961 . S
C2629 H2645 0.960 . S
H2630 C2614 0.931 . S
H2631 C2619 0.929 . S
H2632 C2620 0.960 . S
H2633 C2620 0.962 . S
H2634 C2620 0.960 . S
H2635 C2621 0.961 . S
H2636 C2621 0.961 . S
H2637 C2621 0.961 . S
H2638 C2622 0.931 . S
H2639 C2627 0.930 . S
H2640 C2628 0.956 . S
H2641 C2628 0.961 . S
H2642 C2628 0.961 . S
H2643 C2629 0.958 . S
H2644 C2629 0.961 . S
H2645 C2629 0.960 . S
C919 C124 1.420 . S
C927 C229 1.349 . S
C951 C130 1.474 . S
C959 C313 1.405 . S
C983 C115 1.466 . S
C991 C393 1.422 . S
C1015 C106 1.431 . S
C1023 C309 1.401 . S
C1055 C397 1.358 . S
C1047 C85 1.419 . S
C1079 C97 1.398 . S
C1087 C225 1.359 . S
C1119 C218 1.393 . S
C1111 C103 1.449 . S
C1151 C302 1.400 . S
C1143 C88 1.462 . S
C1175 C94 1.458 . S
C1183 C404 1.430 . S
C1207 C121 1.439 . S
C1215 C320 1.392 . S
C1239 C133 1.396 . S
C1247 C386 1.315 . S
C1279 C236 1.393 . S
C1271 C112 1.418 . S
C1311 C481 1.363 . S
C1303 C16 1.421 . S
C1335 C22 1.473 . S
C1343 C565 1.406 . S
C1367 C7 1.450 . S
C1375 C645 1.438 . S
C1399 C160 1.440 . S
C1407 C561 1.395 . S
C1431 C139 1.426 . S
C1439 C649 1.338 . S
C1463 C151 1.389 . S
C1471 C477 1.371 . S
C1495 C157 1.454 . S
C1503 C470 1.394 . S
C1527 C142 1.462 . S
C1535 C554 1.382 . S
C1567 C656 1.416 . S
C1559 C148 1.468 . S
C1591 C13 1.424 . S
C1599 C572 1.406 . S
C1631 C638 1.348 . S
C1623 C25 1.403 . S
C1655 C4 1.409 . S
C1663 C488 1.400 . S
C1695 C733 1.371 . S
C1687 C70 1.427 . S
C1719 C76 1.478 . S
C1727 C817 1.396 . S
C1759 C897 1.425 . S
C1751 C61 1.460 . S
C1791 C813 1.413 . S
C1783 C52 1.424 . S
C1823 C901 1.350 . S
C1815 C31 1.434 . S
C1847 C43 1.402 . S
C1855 C729 1.355 . S
C1879 C49 1.444 . S
C1887 C722 1.380 . S
C1911 C34 1.463 . S
C1919 C806 1.391 . S
C1951 C908 1.430 . S
C1943 C40 1.458 . S
C1975 C67 1.432 . S
C1983 C824 1.403 . S
C2007 C79 1.403 . S
C2015 C890 1.347 . S
C2039 C58 1.429 . S
C2047 C740 1.375 . S
C2071 C140 1.474 . S
C2079 C232 1.349 . S
C2111 C316 1.346 . S
C2103 C149 1.502 . S
C2135 C158 1.497 . S
C2143 C388 1.374 . S
C2167 C59 1.520 . S
C2175 C304 1.390 . S
C2199 C68 1.480 . S
C2207 C400 1.336 . S
C2239 C220 1.378 . S
C2231 C77 1.476 . S
C2263 C32 1.474 . S
C2271 C484 1.349 . S
C2295 C41 1.502 . S
C2303 C568 1.387 . S
C2327 C50 1.499 . S
C2335 C640 1.389 . S
C2359 C113 1.520 . S
C2367 C556 1.380 . S
C2399 C652 1.335 . S
C2391 C122 1.480 . S
C2423 C131 1.474 . S
C2431 C472 1.376 . S
C2455 C86 1.475 . S
C2463 C736 1.379 . S
C2487 C95 1.503 . S
C2495 C820 1.386 . S
C2527 C892 1.387 . S
C2519 C104 1.498 . S
C2551 C5 1.520 . S
C2559 C808 1.378 . S
C2583 C14 1.480 . S
C2591 C904 1.341 . S
C2615 C23 1.473 . S
C2623 C724 1.347 . S
