# Generated by pormake.
# Topology anh, (6,3)-cn, num edge types: 1
# Building blocks:
#     Node 0, Type 0, BuildingBlock: NUHQIS_clean_sbu_0, # of connection points: 6
#     Node 1, Type 0, BuildingBlock: NUHQIS_clean_sbu_0, # of connection points: 6
#     Node 2, Type 0, BuildingBlock: NUHQIS_clean_sbu_0, # of connection points: 6
#     Node 3, Type 1, BuildingBlock: KAKCAD_clean_linker_0, # of connection points: 3
#     Node 4, Type 1, BuildingBlock: KAKCAD_clean_linker_0, # of connection points: 3
#     Node 5, Type 1, BuildingBlock: KAKCAD_clean_linker_0, # of connection points: 3
#     Node 6, Type 1, BuildingBlock: KAKCAD_clean_linker_0, # of connection points: 3
#     Node 7, Type 1, BuildingBlock: KAKCAD_clean_linker_0, # of connection points: 3
#     Node 8, Type 1, BuildingBlock: KAKCAD_clean_linker_0, # of connection points: 3
#     Edge 9, Type (0, 1), BuildingBlock: AJUNOK_clean_linker_0, # of connection points: 2
#     Edge 10, Type (0, 1), BuildingBlock: AJUNOK_clean_linker_0, # of connection points: 2
#     Edge 11, Type (0, 1), BuildingBlock: AJUNOK_clean_linker_0, # of connection points: 2
#     Edge 12, Type (0, 1), BuildingBlock: AJUNOK_clean_linker_0, # of connection points: 2
#     Edge 13, Type (0, 1), BuildingBlock: AJUNOK_clean_linker_0, # of connection points: 2
#     Edge 14, Type (0, 1), BuildingBlock: AJUNOK_clean_linker_0, # of connection points: 2
#     Edge 15, Type (0, 1), BuildingBlock: AJUNOK_clean_linker_0, # of connection points: 2
#     Edge 16, Type (0, 1), BuildingBlock: AJUNOK_clean_linker_0, # of connection points: 2
#     Edge 17, Type (0, 1), BuildingBlock: AJUNOK_clean_linker_0, # of connection points: 2
#     Edge 18, Type (0, 1), BuildingBlock: AJUNOK_clean_linker_0, # of connection points: 2
#     Edge 19, Type (0, 1), BuildingBlock: AJUNOK_clean_linker_0, # of connection points: 2
#     Edge 20, Type (0, 1), BuildingBlock: AJUNOK_clean_linker_0, # of connection points: 2
#     Edge 21, Type (0, 1), BuildingBlock: AJUNOK_clean_linker_0, # of connection points: 2
#     Edge 22, Type (0, 1), BuildingBlock: AJUNOK_clean_linker_0, # of connection points: 2
#     Edge 23, Type (0, 1), BuildingBlock: AJUNOK_clean_linker_0, # of connection points: 2
#     Edge 24, Type (0, 1), BuildingBlock: AJUNOK_clean_linker_0, # of connection points: 2
#     Edge 25, Type (0, 1), BuildingBlock: AJUNOK_clean_linker_0, # of connection points: 2
#     Edge 26, Type (0, 1), BuildingBlock: AJUNOK_clean_linker_0, # of connection points: 2
# Relax obj value: 0.296
# Max RMSD: 0.197
# Mean RMSD: 0.163
data_MOF--net-anh--node1-NUHQIS_clean_sbu_0--node2-KAKCAD_clean_linker_0--edge1-AJUNOK_clean_linker_0
_symmetry_space_group_name_H-M    P1
_symmetry_Int_Tables_number       1
_symmetry_cell_setting            triclinic
loop_
_symmetry_equiv_pos_as_xyz
'x, y, z'
_cell_length_a     28.933531
_cell_length_b     29.025252
_cell_length_c     52.724997
_cell_angle_alpha  90.35593
_cell_angle_beta   92.083869
_cell_angle_gamma 120.04855
loop_
_atom_site_label
_atom_site_type_symbol
_atom_site_fract_x
_atom_site_fract_y
_atom_site_fract_z
_atom_type_partial_charge
Tb0 Tb 0.23301 0.62674 0.17176 0.0
Eu1 Eu 0.16829 0.68914 0.16146 0.0
C2 C 0.19199 0.66447 0.21679 0.0
C3 C 1.10152 0.55828 0.17069 0.0
C4 C 0.27431 0.5258 0.16665 0.0
C5 C 0.29654 0.45561 0.16662 0.0
C6 C 0.29539 0.49753 0.17919 0.0
C7 C 0.25089 0.50938 0.14206 0.0
C8 C 0.25259 0.46794 0.12939 0.0
C9 C 0.27693 0.44188 0.14131 0.0
C10 C 0.28052 0.5746 0.17844 0.0
O11 O 0.21141 0.6141 0.13076 0.0
O12 O 0.19751 0.68375 0.12331 0.0
O13 O 0.25472 0.75744 0.17064 0.0
O14 O 0.30015 0.71144 0.17147 0.0
C15 C 0.20479 0.64544 0.11491 0.0
O16 O 1.11301 0.70397 0.13866 0.0
O17 O 0.14941 0.74951 0.17375 0.0
O18 O 0.15499 0.66218 0.20117 0.0
O19 O 0.23262 0.66149 0.20854 0.0
O20 O 0.1484 0.56138 0.1755 0.0
O21 O 1.10012 0.60119 0.16322 0.0
C22 C 0.30054 0.75743 0.1726 0.0
O23 O 0.29667 0.61504 0.16356 0.0
O24 O 0.24145 0.56895 0.19205 0.0
C25 C 1.05761 0.71749 0.16501 0.0
C26 C 0.94865 0.65783 0.17538 0.0
C27 C 0.96508 0.68811 0.15334 0.0
C28 C 1.01917 0.71787 0.14826 0.0
C29 C 1.04168 0.69062 0.18797 0.0
C30 C 0.98761 0.6612 0.19316 0.0
C31 C 1.11134 0.73509 0.15617 0.0
H32 H 0.31626 0.43658 0.176 0.0
H33 H 0.31334 0.50957 0.19822 0.0
H34 H 0.23388 0.53042 0.13217 0.0
H35 H 0.23759 0.45817 0.10982 0.0
H36 H 0.9361 0.6853 0.13892 0.0
H37 H 1.0306 0.73763 0.13031 0.0
H38 H 1.07058 0.68917 0.2011 0.0
H39 H 0.97608 0.63823 0.21024 0.0
Tb40 Tb 0.71354 0.13443 0.50693 0.0
Eu41 Eu 0.58972 1.07548 0.48992 0.0
C42 C 0.62392 0.09629 0.54652 0.0
C43 C 0.65017 1.00555 0.50314 0.0
C44 C 0.85531 0.23621 0.5225 0.0
C45 C 0.94847 0.2985 0.51513 0.0
C46 C 0.90643 0.24617 0.51683 0.0
C47 C 0.84722 0.27911 0.52759 0.0
C48 C 0.88915 0.33122 0.52598 0.0
C49 C 0.93973 0.34144 0.519 0.0
C50 C 0.8105 0.18123 0.52233 0.0
O51 O 0.71159 0.1506 0.46592 0.0
O52 O 0.63243 1.07665 0.45523 0.0
O53 O 0.61157 0.16421 0.49274 0.0
O54 O 0.69778 0.20249 0.50944 0.0
C55 C 0.67746 0.11679 0.44842 0.0
O56 O 0.50885 1.01081 0.49518 0.0
O57 O 0.52433 1.06549 0.46428 0.0
O58 O 0.59502 0.10365 0.52945 0.0
O59 O 0.66681 0.09528 0.5401 0.0
O60 O 0.69606 1.05073 0.50124 0.0
O61 O 0.60498 1.00702 0.50217 0.0
C62 C 0.65558 0.20679 0.50221 0.0
O63 O 0.77113 0.17272 0.53648 0.0
O64 O 0.79343 0.15739 0.50012 0.0
C65 C 0.43996 1.02782 0.48306 0.0
C66 C 0.34386 1.02621 0.49212 0.0
C67 C 0.34518 0.97854 0.48972 0.0
C68 C 0.39264 0.97941 0.48526 0.0
C69 C 0.43977 1.07586 0.48642 0.0
C70 C 0.39182 1.07504 0.49083 0.0
C71 C 0.48825 1.02621 0.47702 0.0
H72 H 0.98737 0.30539 0.51012 0.0
H73 H 0.91347 0.21349 0.51311 0.0
H74 H 0.80821 0.27245 0.5322 0.0
H75 H 0.88137 0.36357 0.52907 0.0
H76 H 0.30887 0.94018 0.49005 0.0
H77 H 0.39209 0.94201 0.48285 0.0
H78 H 0.47626 0.11379 0.48513 0.0
H79 H 0.39201 0.11231 0.49266 0.0
Tb80 Tb 0.72838 0.65426 0.83676 0.0
Eu81 Eu 0.66444 0.52991 0.82557 0.0
C82 C 0.68527 0.57547 0.88086 0.0
C83 C 0.79589 0.59212 0.83741 0.0
C84 C 0.7482 0.78655 0.83681 0.0
C85 C 0.72059 0.84925 0.84997 0.0
C86 C 0.75282 0.82629 0.85376 0.0
C87 C 0.71289 0.77191 0.81542 0.0
C88 C 0.68081 0.7946 0.8117 0.0
C89 C 0.68304 0.83202 0.82938 0.0
C90 C 0.77155 0.7533 0.84371 0.0
O91 O 0.70009 0.6416 0.79628 0.0
O92 O 0.70595 0.56805 0.79025 0.0
O93 O 0.59764 0.55205 0.82429 0.0
O94 O 0.64456 0.63503 0.84306 0.0
C95 C 0.70294 0.6077 0.78063 0.0
O96 O 0.63776 0.44815 0.83621 0.0
O97 O 0.61499 0.46452 0.79898 0.0
O98 O 0.64756 0.54276 0.86484 0.0
O99 O 0.72856 0.61629 0.87261 0.0
O100 O 0.79577 0.6375 0.83419 0.0
O101 O 0.74958 0.54668 0.83747 0.0
C102 C 0.59811 0.59373 0.83507 0.0
O103 O 0.74615 0.7191 0.8611 0.0
O104 O 0.78237 0.73131 0.82487 0.0
C105 C 0.55158 0.38586 0.81805 0.0
C106 C 0.44764 0.29776 0.82102 0.0
C107 C 0.46829 0.31875 0.7974 0.0
C108 C 0.51961 0.36216 0.79595 0.0
C109 C 0.53019 0.36706 0.84184 0.0
C110 C 0.4786 0.32316 0.8433 0.0
C111 C 0.60747 0.42829 0.81549 0.0
H112 H 0.72301 0.87833 0.86374 0.0
H113 H 0.77922 0.83748 0.87058 0.0
H114 H 0.70794 0.74086 0.80221 0.0
H115 H 0.65275 0.78146 0.79544 0.0
H116 H 0.44644 0.29925 0.7798 0.0
H117 H 0.53517 0.37581 0.77739 0.0
H118 H 0.55384 0.3849 0.85925 0.0
H119 H 0.46392 0.30745 0.86172 0.0
C120 C 0.72275 0.19516 0.32682 0.0
C121 C 0.71183 0.1472 0.3383 0.0
C122 C 0.72467 0.19976 0.30018 0.0
C123 C 0.71553 0.15643 0.2843 0.0
C124 C 0.70713 0.10947 0.29594 0.0
C125 C 0.70571 0.10508 0.32243 0.0
C126 C 0.7122 0.15863 0.25577 0.0
C127 C 0.75052 0.20271 0.24268 0.0
C128 C 0.74933 0.20481 0.21583 0.0
C129 C 0.70557 0.15939 0.202 0.0
C130 C 0.66499 0.11383 0.21506 0.0
C131 C 0.6703 0.1155 0.24181 0.0
C132 C 0.61629 1.06268 0.20294 0.0
C133 C 0.57606 1.06305 0.18694 0.0
C134 C 0.60441 1.01167 0.21141 0.0
C135 C 0.55507 0.96438 0.20513 0.0
C136 C 0.5137 0.96458 0.19001 0.0
C137 C 0.79532 0.25552 0.20411 0.0
C138 C 0.80968 0.30709 0.21369 0.0
C139 C 0.83089 0.25414 0.18674 0.0
C140 C 0.87877 0.30138 0.18007 0.0
C141 C 0.89376 0.35286 0.19025 0.0
C142 C 0.8569 0.35413 0.20681 0.0
C143 C 0.52627 1.01539 0.18061 0.0
H144 H 0.72782 0.22851 0.33837 0.0
H145 H 0.73129 0.23657 0.29197 0.0
H146 H 0.70119 1.07567 0.28448 0.0
H147 H 0.69897 1.06811 0.3305 0.0
H148 H 0.78291 0.23535 0.25365 0.0
H149 H 0.6403 0.08262 0.2522 0.0
H150 H 0.7032 0.1595 0.18148 0.0
H151 H 0.58204 0.10064 0.18007 0.0
H152 H 0.63314 1.0084 0.22389 0.0
H153 H 0.54879 0.9275 0.21309 0.0
H154 H 0.78462 0.3111 0.22726 0.0
H155 H 0.8229 0.21609 0.17899 0.0
H156 H 0.49749 1.01879 0.1683 0.0
H157 H 0.86544 0.39175 0.21536 0.0
H158 H 0.90425 0.29724 0.16683 0.0
C159 C 0.65396 0.63533 0.65673 0.0
C160 C 0.68811 0.61996 0.6689 0.0
C161 C 0.6485 0.63451 0.63001 0.0
C162 C 0.67708 0.61834 0.61465 0.0
C163 C 0.71248 0.6047 0.6269 0.0
C164 C 0.71806 0.60573 0.65351 0.0
C165 C 0.66996 0.61512 0.58605 0.0
C166 C 0.66674 0.65535 0.57267 0.0
C167 C 0.66166 0.65477 0.54585 0.0
C168 C 0.65864 0.60937 0.53224 0.0
C169 C 0.66263 0.56753 0.54553 0.0
C170 C 0.6677 0.57217 0.57232 0.0
C171 C 0.66456 0.51917 0.53361 0.0
C172 C 0.6234 0.4792 0.51751 0.0
C173 C 0.70441 0.50741 0.54241 0.0
C174 C 0.70304 0.45895 0.53611 0.0
C175 C 0.66184 0.41842 0.52031 0.0
C176 C 0.66224 0.70427 0.53413 0.0
C177 C 0.70136 0.75643 0.5428 0.0
C178 C 0.62053 0.70156 0.51805 0.0
C179 C 0.61755 0.74817 0.51175 0.0
C180 C 0.65607 0.80027 0.52117 0.0
C181 C 0.69856 0.80267 0.53647 0.0
C182 C 0.62201 0.43019 0.51111 0.0
H183 H 0.63024 0.64652 0.66789 0.0
H184 H 0.62073 0.6452 0.6214 0.0
H185 H 0.73628 0.59338 0.61589 0.0
H186 H 0.74597 0.59516 0.66206 0.0
H187 H 0.66911 0.68846 0.58343 0.0
H188 H 0.6694 0.54106 0.58285 0.0
H189 H 0.65537 0.60773 0.51171 0.0
H190 H 0.5909 0.48476 0.51059 0.0
H191 H 0.73657 0.53556 0.55518 0.0
H192 H 0.73395 0.45273 0.54467 0.0
H193 H 0.73419 0.76157 0.55534 0.0
H194 H 0.58884 0.66303 0.51103 0.0
H195 H 0.58912 0.40117 0.49897 0.0
H196 H 0.72942 0.84062 0.54449 0.0
H197 H 0.58456 0.74297 0.49937 0.0
C198 C 0.25246 0.63634 0.99167 0.0
C199 C 0.20425 0.61379 0.00432 0.0
C200 C 0.25242 0.63219 0.96503 0.0
C201 C 0.2041 0.60462 0.95022 0.0
C202 C 0.15599 0.58054 0.96318 0.0
C203 C 0.15608 0.58536 0.98972 0.0
C204 C 0.20365 0.60228 0.92151 0.0
C205 C 0.24456 0.59986 0.90887 0.0
C206 C 0.24723 0.60011 0.88205 0.0
C207 C 0.20304 0.59951 0.86762 0.0
C208 C 0.1601 0.60169 0.88011 0.0
C209 C 0.16263 0.60357 0.90688 0.0
C210 C 1.11201 0.60392 0.86736 0.0
C211 C 1.0704 0.56102 0.85284 0.0
C212 C 1.10132 0.64477 0.87457 0.0
C213 C 1.05185 0.64246 0.86833 0.0
C214 C 1.00919 0.59875 0.85467 0.0
C215 C 0.29786 0.6022 0.87118 0.0
C216 C 0.34822 0.6307 0.88469 0.0
C217 C 0.2975 0.57323 0.84934 0.0
C218 C 0.34413 0.5714 0.84222 0.0
C219 C 0.39386 0.59809 0.85662 0.0
C220 C 0.3941 0.62836 0.87785 0.0
C221 C 1.02052 0.5586 0.84658 0.0
H222 H 0.29026 0.6587 0.00233 0.0
H223 H 0.29041 0.65197 0.95605 0.0
H224 H 1.11789 0.55774 0.95284 0.0
H225 H 1.11824 0.56676 0.99889 0.0
H226 H 0.27471 0.59687 0.92032 0.0
H227 H 0.1318 0.60653 0.91658 0.0
H228 H 0.20298 0.59922 0.84709 0.0
H229 H 1.07538 0.5279 0.84718 0.0
H230 H 0.131 0.67826 0.88614 0.0
H231 H 1.04645 0.67456 0.87526 0.0
H232 H 0.35248 0.65501 0.90123 0.0
H233 H 0.2607 0.55068 0.83798 0.0
H234 H 0.99061 0.52459 0.83544 0.0
H235 H 0.42989 0.64992 0.88997 0.0
H236 H 0.34074 0.549 0.82513 0.0
C237 C 1.1172 0.64901 0.33362 0.0
C238 C 0.15493 0.69377 0.321 0.0
C239 C 1.10003 0.65501 0.35719 0.0
C240 C 1.1207 0.70589 0.36865 0.0
C241 C 0.15898 0.75054 0.35599 0.0
C242 C 0.1756 0.74454 0.33231 0.0
C243 C 1.10462 0.71243 0.39427 0.0
C244 C 1.09901 0.67673 0.41326 0.0
C245 C 1.08907 0.68513 0.43819 0.0
C246 C 1.08563 0.73038 0.44429 0.0
C247 C 1.09198 0.76734 0.42559 0.0
C248 C 1.09908 0.75654 0.4004 0.0
C249 C 1.1012 0.82101 0.43318 0.0
C250 C 1.07775 0.8286 0.45459 0.0
C251 C 0.14126 0.86617 0.4216 0.0
C252 C 0.16248 0.91638 0.43303 0.0
C253 C 0.14467 0.92302 0.45655 0.0
C254 C 1.08277 0.64624 0.45766 0.0
C255 C 1.03788 0.62424 0.47263 0.0
C256 C 1.11832 0.62654 0.45937 0.0
C257 C 1.10668 0.58254 0.47406 0.0
C258 C 1.05917 0.55744 0.48713 0.0
C259 C 1.0261 0.58005 0.48724 0.0
C260 C 1.09933 0.87923 0.46618 0.0
H261 H 1.09992 0.60959 0.32491 0.0
H262 H 1.07007 0.61985 0.36628 0.0
H263 H 0.17669 0.79016 0.36449 0.0
H264 H 0.20463 0.77959 0.32278 0.0
H265 H 1.10331 0.64261 0.4088 0.0
H266 H 1.10241 0.78367 0.38564 0.0
H267 H 1.08133 0.73813 0.46393 0.0
H268 H 1.04553 0.79493 0.46355 0.0
H269 H 0.16086 0.86263 0.40522 0.0
H270 H 0.19763 0.94838 0.42492 0.0
H271 H 1.00993 0.63878 0.47164 0.0
H272 H 0.15385 0.64365 0.44839 0.0
H273 H 1.08397 0.88305 0.48403 0.0
H274 H 0.98911 0.56125 0.49712 0.0
H275 H 0.13324 0.56634 0.47408 0.0
C276 C 0.49296 0.98171 0.64911 0.0
C277 C 0.52412 1.03546 0.64303 0.0
C278 C 0.46592 0.96772 0.67168 0.0
C279 C 0.46871 1.00726 0.68818 0.0
C280 C 0.49866 1.06097 0.68172 0.0
C281 C 0.5265 1.07501 0.65935 0.0
C282 C 0.44632 0.99328 0.71353 0.0
C283 C 0.46385 0.96687 0.7298 0.0
C284 C 0.45057 0.96034 0.75528 0.0
C285 C 0.4187 0.97998 0.76446 0.0
C286 C 0.39917 1.00544 0.74819 0.0
C287 C 0.41296 1.01128 0.72252 0.0
C288 C 0.37078 1.03178 0.75883 0.0
C289 C 0.34065 1.01266 0.78069 0.0
C290 C 0.37934 0.08035 0.74912 0.0
C291 C 0.36298 0.11116 0.76215 0.0
C292 C 0.33874 0.09495 0.78552 0.0
C293 C 0.4745 0.93705 0.77238 0.0
C294 C 0.47408 0.89055 0.76463 0.0
C295 C 0.50324 0.9642 0.79485 0.0
C296 C 0.53317 0.94634 0.80867 0.0
C297 C 0.53424 0.90088 0.8003 0.0
C298 C 0.50386 0.87284 0.77834 0.0
C299 C 0.32559 1.04442 0.79417 0.0
H300 H 0.49031 0.95065 0.63659 0.0
H301 H 0.44339 0.92611 0.67644 0.0
H302 H 0.50201 0.09212 0.6944 0.0
H303 H 0.54973 0.11665 0.65473 0.0
H304 H 0.49092 0.95438 0.72298 0.0
H305 H 0.39905 1.03092 0.70951 0.0
H306 H 0.41099 0.97695 0.78449 0.0
H307 H 0.33149 0.97463 0.78833 0.0
H308 H 0.40281 0.09734 0.73267 0.0
H309 H 0.37475 0.15046 0.75525 0.0
H310 H 0.45228 0.86901 0.74735 0.0
H311 H 0.50471 1.0006 0.80102 0.0
H312 H 0.3071 1.03117 0.8122 0.0
H313 H 0.50493 0.83841 0.77107 0.0
H314 H 0.55648 0.96869 0.82549 0.0
C315 C 0.6187 0.42379 0.97797 0.0
C316 C 0.65594 0.47862 0.97833 0.0
C317 C 0.60451 0.39612 1.00057 0.0
C318 C 0.62725 0.42286 0.02395 0.0
C319 C 0.66691 0.47716 0.02403 0.0
C320 C 0.68131 0.50469 0.0014 0.0
C321 C 0.60556 0.39676 0.04831 0.0
C322 C 0.6398 0.40879 0.06982 0.0
C323 C 0.61954 0.39579 0.09412 0.0
C324 C 0.56407 0.3696 0.09669 0.0
C325 C 0.52838 0.35585 0.07529 0.0
C326 C 0.55002 0.3676 0.05104 0.0
C327 C 0.47076 0.33912 0.07873 0.0
C328 C 0.44639 0.3176 0.10174 0.0
C329 C 0.44228 0.35255 0.06082 0.0
C330 C 0.39516 0.35109 0.06703 0.0
C331 C 0.37654 0.33888 0.09169 0.0
C332 C 0.65711 0.41803 0.11664 0.0
C333 C 0.70616 0.41908 0.11688 0.0
C334 C 0.64793 0.44549 0.1361 0.0
C335 C 0.68889 0.4776 0.15387 0.0
C336 C 0.7399 0.48351 0.15216 0.0
C337 C 0.74722 0.45169 0.13437 0.0
C338 C 0.40084 0.31903 0.10847 0.0
H339 H 0.59929 0.40274 0.96023 0.0
H340 H 0.57446 0.35425 0.99982 0.0
H341 H 0.68469 0.49935 0.0417 0.0
H342 H 0.71003 0.54697 0.00209 0.0
H343 H 0.68262 0.43185 0.06778 0.0
H344 H 0.524 0.35788 0.03424 0.0
H345 H 0.54954 0.36325 0.11567 0.0
H346 H 0.46454 0.30341 0.11557 0.0
H347 H 0.45794 0.36877 0.04268 0.0
H348 H 0.37626 0.36467 0.05324 0.0
H349 H 0.71401 0.39749 0.10243 0.0
H350 H 0.61057 0.44556 0.13651 0.0
H351 H 0.38797 0.30898 0.12766 0.0
H352 H 0.78599 0.45509 0.13258 0.0
H353 H 0.68163 0.50044 0.16787 0.0
C354 C 0.32566 0.4331 0.10584 0.0
C355 C 0.2921 0.40919 0.126 0.0
C356 C 0.34987 0.40824 0.09385 0.0
C357 C 0.34091 0.35787 0.10125 0.0
H358 H 0.33622 0.47303 0.10039 0.0
H359 H 0.37866 0.43066 0.07983 0.0
S360 S 0.24815 0.27464 0.15021 0.0
N361 N 0.24613 0.33051 0.15128 0.0
N362 N 0.28958 0.28189 0.12781 0.0
C363 C 0.30386 0.33169 0.12013 0.0
C364 C 0.27999 0.35777 0.13273 0.0
C365 C 0.99007 0.43919 0.52937 0.0
C366 C 0.98051 0.3965 0.51301 0.0
C367 C 1.01892 0.49192 0.52158 0.0
C368 C 1.03948 0.50368 0.49724 0.0
H369 H 0.9728 0.43157 0.54784 0.0
H370 H 1.02308 0.52351 0.53419 0.0
S371 S 1.02761 0.40655 0.44769 0.0
N372 N 0.99578 0.36973 0.4718 0.0
N373 N 1.05044 0.46878 0.45726 0.0
C374 C 1.03302 0.46164 0.4813 0.0
C375 C 1.00346 0.40801 0.48918 0.0
C376 C 0.66149 0.90484 0.8237 0.0
C377 C 0.64406 0.85055 0.82658 0.0
C378 C 0.62503 0.92164 0.81684 0.0
C379 C 0.57018 0.88457 0.81283 0.0
H380 H 0.70374 0.93403 0.82533 0.0
H381 H 0.64029 0.96337 0.81314 0.0
S382 S 0.50387 0.73921 0.82207 0.0
N383 N 0.56809 0.7607 0.82779 0.0
N384 N 0.49963 0.79247 0.81545 0.0
C385 C 0.55204 0.83083 0.81766 0.0
C386 C 0.58899 0.81374 0.82437 0.0
C387 C 0.87994 0.56284 0.18103 0.0
C388 C 0.89199 0.61557 0.17707 0.0
C389 C 0.82859 0.51988 0.17543 0.0
C390 C 0.78757 0.5281 0.16553 0.0
H391 H 0.9113 0.55426 0.1864 0.0
H392 H 0.82204 0.47986 0.17706 0.0
S393 S 0.79637 0.65913 0.1566 0.0
N394 N 0.85693 0.67409 0.16699 0.0
N395 N 0.76078 0.59346 0.15535 0.0
C396 C 0.79776 0.58084 0.16403 0.0
C397 C 0.84997 0.62456 0.17002 0.0
C398 C 0.25081 0.98263 0.50643 0.0
C399 C 0.2908 1.0225 0.49213 0.0
C400 C 0.19751 0.95569 0.49724 0.0
C401 C 0.18308 0.96838 0.47359 0.0
H402 H 0.26182 0.96656 0.52254 0.0
H403 H 0.17014 0.91955 0.50657 0.0
S404 S 0.26783 0.08758 0.4367 0.0
N405 N 0.30919 0.08594 0.45864 0.0
N406 N 0.20806 1.03715 0.44234 0.0
C407 C 0.21992 1.01716 0.46322 0.0
C408 C 0.27453 1.04378 0.47216 0.0
C409 C 0.40653 0.20362 0.83346 0.0
C410 C 0.40035 0.24347 0.82143 0.0
C411 C 0.3776 0.15075 0.82442 0.0
C412 C 0.34217 0.13662 0.80305 0.0
H413 H 0.43901 0.2142 0.84737 0.0
H414 H 0.38919 0.123 0.83173 0.0
S415 S 0.29688 0.22194 0.77189 0.0
N416 N 0.34454 0.26218 0.7927 0.0
N417 N 0.29099 0.16268 0.77525 0.0
C418 C 0.32809 0.17377 0.79439 0.0
C419 C 0.35716 0.22748 0.80374 0.0
C420 C 0.69817 0.95021 0.50864 0.0
C421 C 0.65002 0.95213 0.50697 0.0
C422 C 0.69952 0.90211 0.51285 0.0
C423 C 0.65282 0.85165 0.51562 0.0
H424 H 0.73589 0.98665 0.5068 0.0
H425 H 0.73822 0.90479 0.51375 0.0
S426 S 0.51538 0.83283 0.5137 0.0
N427 N 0.55366 0.89711 0.50894 0.0
N428 N 0.55611 0.80862 0.51686 0.0
C429 C 0.60427 0.85293 0.51393 0.0
C430 C 0.60292 0.90208 0.5097 0.0
C431 C 0.89997 0.64025 0.84098 0.0
C432 C 0.84975 0.59249 0.84134 0.0
C433 C 0.94999 0.64173 0.84498 0.0
C434 C 0.954 0.59554 0.84954 0.0
H435 H 0.90093 0.67747 0.83762 0.0
H436 H 0.98619 0.68001 0.84424 0.0
S437 S 0.83523 0.45961 0.85363 0.0
N438 N 0.80861 0.49725 0.84735 0.0
N439 N 0.9006 0.50003 0.85495 0.0
C440 C 0.904 0.54746 0.85 0.0
C441 C 0.853 0.54597 0.84597 0.0
C442 C 0.40455 0.81298 0.17804 0.0
C443 C 0.35445 0.81098 0.17646 0.0
C444 C 0.4545 0.86162 0.18205 0.0
C445 C 0.45862 0.91243 0.18471 0.0
H446 H 0.40546 0.77627 0.17623 0.0
H447 H 0.49059 0.85909 0.18286 0.0
S448 S 0.34008 0.93112 0.18319 0.0
N449 N 0.31351 0.86629 0.1785 0.0
N450 N 0.40532 0.95566 0.18616 0.0
C451 C 0.40874 0.91098 0.1832 0.0
C452 C 0.35781 0.86137 0.17912 0.0
C453 C 0.6106 0.26495 0.50806 0.0
C454 C 0.65741 0.26116 0.50561 0.0
C455 C 0.61204 0.3147 0.51229 0.0
C456 C 0.66042 0.36467 0.51429 0.0
H457 H 0.57203 0.22877 0.50721 0.0
H458 H 0.57449 0.31361 0.51457 0.0
S459 S 0.79444 0.37928 0.50541 0.0
N460 N 0.7537 0.31424 0.50336 0.0
N461 N 0.75645 0.4056 0.51047 0.0
C462 C 0.7073 0.36141 0.51086 0.0
C463 C 0.70581 0.31082 0.50679 0.0
C464 C 0.54534 0.63751 0.85176 0.0
C465 C 0.54519 0.59382 0.83948 0.0
C466 C 0.49752 0.63824 0.857 0.0
C467 C 0.4452 0.59569 0.85009 0.0
H468 H 0.58322 0.67206 0.85768 0.0
H469 H 0.50227 0.67357 0.86645 0.0
S470 S 0.42055 0.46912 0.81879 0.0
N471 N 0.48639 0.50512 0.82142 0.0
N472 N 0.39812 0.50632 0.83102 0.0
C473 C 0.44449 0.55137 0.8379 0.0
C474 C 0.49344 0.5505 0.83272 0.0
C475 C 0.99843 0.50261 0.17604 0.0
C476 C 1.04861 0.50505 0.17473 0.0
C477 C 0.94974 0.45442 0.18085 0.0
C478 C 0.94707 0.40453 0.1843 0.0
H479 H 0.99662 0.53872 0.1737 0.0
H480 H 0.91346 0.45645 0.18168 0.0
S481 S 1.06625 0.38722 0.18305 0.0
N482 N 1.09111 0.45114 0.17765 0.0
N483 N 1.00156 0.36251 0.18626 0.0
C484 C 0.99691 0.40636 0.18282 0.0
C485 C 1.0466 0.45556 0.17824 0.0
C486 C 0.23192 0.61358 0.07621 0.0
C487 C 0.20391 0.63678 0.08672 0.0
C488 C 0.23248 0.60676 0.04965 0.0
C489 C 0.20393 0.62158 0.03251 0.0
H490 H 0.25433 0.60135 0.08857 0.0
H491 H 0.25494 0.58919 0.04249 0.0
S492 S 0.12311 0.68277 0.04997 0.0
N493 N 0.14641 0.67404 0.07746 0.0
N494 N 0.14681 0.66031 0.02806 0.0
C495 C 0.1753 0.64413 0.04277 0.0
C496 C 0.17546 0.65195 0.06967 0.0
C497 C 0.73177 0.16977 0.41113 0.0
C498 C 0.68739 0.12401 0.42038 0.0
C499 C 0.73953 0.17744 0.38475 0.0
C500 C 0.70355 0.1395 0.36641 0.0
H501 H 0.76056 0.20022 0.42434 0.0
H502 H 0.77428 0.21319 0.37868 0.0
S503 S 0.5797 1.01385 0.38007 0.0
N504 N 0.60634 1.04057 0.40833 0.0
N505 N 0.62067 1.05563 0.35954 0.0
C506 C 0.65899 0.09392 0.37539 0.0
C507 C 0.65102 0.08603 0.40206 0.0
C508 C 0.70126 0.65561 0.74047 0.0
C509 C 0.69907 0.61095 0.75215 0.0
C510 C 0.69732 0.65835 0.71371 0.0
C511 C 0.69117 0.61663 0.69741 0.0
H512 H 0.70633 0.68891 0.75206 0.0
H513 H 0.69987 0.69379 0.70572 0.0
S514 S 0.67788 0.48859 0.71802 0.0
N515 N 0.68706 0.52252 0.74475 0.0
N516 N 0.6792 0.52774 0.69518 0.0
C517 C 0.68773 0.5714 0.70886 0.0
C518 C 0.69178 0.56855 0.73593 0.0
C519 C 0.54547 1.04664 0.57275 0.0
C520 C 0.60124 1.0793 0.57156 0.0
C521 C 0.52118 1.03182 0.596 0.0
C522 C 0.55166 1.04992 0.61891 0.0
H523 H 0.52022 1.03243 0.55552 0.0
H524 H 0.47808 1.00698 0.59608 0.0
S525 S 0.69896 0.13503 0.62628 0.0
N526 N 0.68645 0.12793 0.59522 0.0
N527 N 0.64039 0.10102 0.63928 0.0
C528 C 0.60749 0.08207 0.61811 0.0
C529 C 0.63244 0.09639 0.59431 0.0
C530 C 0.7238 0.56504 0.92227 0.0
C531 C 0.67998 0.5605 0.90768 0.0
C532 C 0.71624 0.53977 0.94567 0.0
C533 C 0.66471 0.50921 0.95494 0.0
H534 H 0.7635 0.58548 0.91494 0.0
H535 H 0.75046 0.54218 0.95602 0.0
S536 S 0.53867 0.49303 0.92588 0.0
N537 N 0.5846 0.52897 0.90561 0.0
N538 N 0.57059 0.48167 0.9494 0.0
C539 C 0.62136 0.50758 0.9413 0.0
C540 C 0.62899 0.53327 0.9177 0.0
C541 C 0.16782 0.70761 0.25023 0.0
C542 C 0.18821 0.67431 0.24381 0.0
C543 C 0.15882 0.71477 0.27539 0.0
C544 C 0.16902 0.68819 0.295 0.0
H545 H 0.15817 0.72795 0.23563 0.0
H546 H 0.1422 0.74007 0.27944 0.0
S547 S 0.22402 0.59784 0.28839 0.0
N548 N 0.22009 0.61589 0.25908 0.0
N549 N 0.202 0.62855 0.30667 0.0
C550 C 0.19028 0.65547 0.289 0.0
C551 C 0.20037 0.64887 0.2633 0.0
loop_
_geom_bond_atom_site_label_1
_geom_bond_atom_site_label_2
_geom_bond_distance
_geom_bond_site_symmetry_2
_ccdc_geom_bond_type
Tb0 C10 2.825 . S
Tb0 O11 2.347 . S
Tb0 O14 2.366 . S
Tb0 O19 2.418 . S
Tb0 O20 2.384 1_455 S
Tb0 O23 2.479 . S
Tb0 O24 2.471 . S
Eu1 O12 2.418 . S
Eu1 O13 2.384 1_655 S
Eu1 O16 2.479 . S
Eu1 O17 2.471 . S
Eu1 O18 2.347 1_655 S
Eu1 O21 2.366 . S
Eu1 C31 2.825 . S
C2 O18 1.259 . S
C2 O19 1.265 . S
C3 O20 1.255 . S
C3 O21 1.265 . S
C4 C6 1.380 . S
C4 C7 1.374 . S
C4 C10 1.507 . S
C5 C6 1.384 . S
C5 C9 1.387 . S
C5 H32 0.930 . S
C6 C4 1.380 . S
C6 C5 1.384 . S
C6 H33 0.931 . S
C7 C4 1.374 . S
C7 C8 1.390 . S
C7 H34 0.930 . S
C8 C7 1.390 . S
C8 C9 1.391 . S
C8 H35 0.930 . S
C9 C5 1.387 . S
C9 C8 1.391 . S
C10 Tb0 2.825 . S
C10 C4 1.507 . S
C10 O23 1.238 . S
C10 O24 1.247 . S
O11 Tb0 2.347 . S
O11 C15 1.259 . S
O12 Eu1 2.418 . S
O12 C15 1.265 1_655 S
O13 Eu1 2.384 1_455 S
O13 C22 1.255 . S
O14 Tb0 2.366 . S
O14 C22 1.265 . S
C15 O11 1.259 . S
C15 O12 1.265 1_455 S
O16 Eu1 2.479 . S
O16 C31 1.238 . S
O17 Eu1 2.471 . S
O17 C31 1.247 . S
O18 Eu1 2.347 1_455 S
O18 C2 1.259 . S
O19 Tb0 2.418 . S
O19 C2 1.265 . S
O20 Tb0 2.384 1_655 S
O20 C3 1.255 . S
O21 Eu1 2.366 . S
O21 C3 1.265 . S
C22 O13 1.255 . S
C22 O14 1.265 . S
O23 Tb0 2.479 . S
O23 C10 1.238 . S
O24 Tb0 2.471 . S
O24 C10 1.247 . S
C25 C28 1.380 . S
C25 C29 1.374 . S
C25 C31 1.507 . S
C26 C27 1.387 . S
C26 C30 1.391 . S
C27 C26 1.387 . S
C27 C28 1.384 . S
C27 H36 0.930 . S
C28 C25 1.380 . S
C28 C27 1.384 . S
C28 H37 0.931 . S
C29 C25 1.374 . S
C29 C30 1.390 . S
C29 H38 0.930 . S
C30 C26 1.391 . S
C30 C29 1.390 . S
C30 H39 0.930 . S
C31 Eu1 2.825 . S
C31 O16 1.238 . S
C31 O17 1.247 . S
C31 C25 1.507 . S
H32 C5 0.930 . S
H33 C6 0.931 . S
H34 C7 0.930 . S
H35 C8 0.930 . S
H36 C27 0.930 . S
H37 C28 0.931 . S
H38 C29 0.930 . S
H39 C30 0.930 . S
Tb40 C50 2.825 . S
Tb40 O51 2.347 . S
Tb40 O54 2.366 . S
Tb40 O59 2.418 . S
Tb40 O60 2.384 1_545 S
Tb40 O63 2.479 . S
Tb40 O64 2.471 . S
Eu41 O52 2.418 . S
Eu41 O53 2.384 . S
Eu41 O56 2.479 1_545 S
Eu41 O57 2.471 1_545 S
Eu41 O58 2.347 . S
Eu41 O61 2.366 1_545 S
Eu41 C71 2.825 1_545 S
C42 O58 1.259 . S
C42 O59 1.265 . S
C43 O60 1.255 . S
C43 O61 1.265 . S
C44 C46 1.380 . S
C44 C47 1.374 . S
C44 C50 1.507 . S
C45 C46 1.384 . S
C45 C49 1.387 . S
C45 H72 0.930 . S
C46 C44 1.380 . S
C46 C45 1.384 . S
C46 H73 0.931 . S
C47 C44 1.374 . S
C47 C48 1.390 . S
C47 H74 0.930 . S
C48 C47 1.390 . S
C48 C49 1.391 . S
C48 H75 0.930 . S
C49 C45 1.387 . S
C49 C48 1.391 . S
C50 Tb40 2.825 . S
C50 C44 1.507 . S
C50 O63 1.238 . S
C50 O64 1.247 . S
O51 Tb40 2.347 . S
O51 C55 1.259 . S
O52 Eu41 2.418 . S
O52 C55 1.265 . S
O53 Eu41 2.384 . S
O53 C62 1.255 . S
O54 Tb40 2.366 . S
O54 C62 1.265 . S
C55 O51 1.259 . S
C55 O52 1.265 . S
O56 Eu41 2.479 1_565 S
O56 C71 1.238 . S
O57 Eu41 2.471 1_565 S
O57 C71 1.247 . S
O58 Eu41 2.347 . S
O58 C42 1.259 . S
O59 Tb40 2.418 . S
O59 C42 1.265 . S
O60 Tb40 2.384 1_565 S
O60 C43 1.255 . S
O61 Eu41 2.366 1_565 S
O61 C43 1.265 . S
C62 O53 1.255 . S
C62 O54 1.265 . S
O63 Tb40 2.479 . S
O63 C50 1.238 . S
O64 Tb40 2.471 . S
O64 C50 1.247 . S
C65 C68 1.380 . S
C65 C69 1.374 . S
C65 C71 1.507 . S
C66 C67 1.387 . S
C66 C70 1.391 . S
C67 C66 1.387 . S
C67 C68 1.384 . S
C67 H76 0.930 . S
C68 C65 1.380 . S
C68 C67 1.384 . S
C68 H77 0.931 . S
C69 C65 1.374 . S
C69 C70 1.390 . S
C69 H78 0.930 . S
C70 C66 1.391 . S
C70 C69 1.390 . S
C70 H79 0.930 . S
C71 Eu41 2.825 1_565 S
C71 O56 1.238 . S
C71 O57 1.247 . S
C71 C65 1.507 . S
H72 C45 0.930 . S
H73 C46 0.931 . S
H74 C47 0.930 . S
H75 C48 0.930 . S
H76 C67 0.930 . S
H77 C68 0.931 . S
H78 C69 0.930 . S
H79 C70 0.930 . S
Tb80 C90 2.825 . S
Tb80 O91 2.347 . S
Tb80 O94 2.366 . S
Tb80 O99 2.418 . S
Tb80 O100 2.384 . S
Tb80 O103 2.479 . S
Tb80 O104 2.471 . S
Eu81 O92 2.418 . S
Eu81 O93 2.384 . S
Eu81 O96 2.479 . S
Eu81 O97 2.471 . S
Eu81 O98 2.347 . S
Eu81 O101 2.366 . S
Eu81 C111 2.825 . S
C82 O98 1.259 . S
C82 O99 1.265 . S
C83 O100 1.255 . S
C83 O101 1.265 . S
C84 C86 1.380 . S
C84 C87 1.374 . S
C84 C90 1.507 . S
C85 C86 1.384 . S
C85 C89 1.387 . S
C85 H112 0.930 . S
C86 C84 1.380 . S
C86 C85 1.384 . S
C86 H113 0.931 . S
C87 C84 1.374 . S
C87 C88 1.390 . S
C87 H114 0.930 . S
C88 C87 1.390 . S
C88 C89 1.391 . S
C88 H115 0.930 . S
C89 C85 1.387 . S
C89 C88 1.391 . S
C90 Tb80 2.825 . S
C90 C84 1.507 . S
C90 O103 1.238 . S
C90 O104 1.247 . S
O91 Tb80 2.347 . S
O91 C95 1.259 . S
O92 Eu81 2.418 . S
O92 C95 1.265 . S
O93 Eu81 2.384 . S
O93 C102 1.255 . S
O94 Tb80 2.366 . S
O94 C102 1.265 . S
C95 O91 1.259 . S
C95 O92 1.265 . S
O96 Eu81 2.479 . S
O96 C111 1.238 . S
O97 Eu81 2.471 . S
O97 C111 1.247 . S
O98 Eu81 2.347 . S
O98 C82 1.259 . S
O99 Tb80 2.418 . S
O99 C82 1.265 . S
O100 Tb80 2.384 . S
O100 C83 1.255 . S
O101 Eu81 2.366 . S
O101 C83 1.265 . S
C102 O93 1.255 . S
C102 O94 1.265 . S
O103 Tb80 2.479 . S
O103 C90 1.238 . S
O104 Tb80 2.471 . S
O104 C90 1.247 . S
C105 C108 1.380 . S
C105 C109 1.374 . S
C105 C111 1.507 . S
C106 C107 1.387 . S
C106 C110 1.391 . S
C107 C106 1.387 . S
C107 C108 1.384 . S
C107 H116 0.930 . S
C108 C105 1.380 . S
C108 C107 1.384 . S
C108 H117 0.931 . S
C109 C105 1.374 . S
C109 C110 1.390 . S
C109 H118 0.930 . S
C110 C106 1.391 . S
C110 C109 1.390 . S
C110 H119 0.930 . S
C111 Eu81 2.825 . S
C111 O96 1.238 . S
C111 O97 1.247 . S
C111 C105 1.507 . S
H112 C85 0.930 . S
H113 C86 0.931 . S
H114 C87 0.930 . S
H115 C88 0.930 . S
H116 C107 0.930 . S
H117 C108 0.931 . S
H118 C109 0.930 . S
H119 C110 0.930 . S
C120 C121 1.386 . S
C120 C122 1.397 . S
C120 H144 0.931 . S
C121 C120 1.386 . S
C121 C125 1.397 1_545 S
C122 C120 1.397 . S
C122 C123 1.384 . S
C122 H145 0.930 . S
C123 C122 1.384 . S
C123 C124 1.377 1_545 S
C123 C126 1.481 . S
C124 C123 1.377 1_565 S
C124 C125 1.389 . S
C124 H146 0.929 . S
C125 C121 1.397 1_565 S
C125 C124 1.389 . S
C125 H147 0.931 . S
C126 C123 1.481 . S
C126 C127 1.387 . S
C126 C131 1.390 1_545 S
C127 C126 1.387 . S
C127 C128 1.401 . S
C127 H148 0.930 . S
C128 C127 1.401 . S
C128 C129 1.376 . S
C128 C137 1.511 . S
C129 C128 1.376 . S
C129 C130 1.392 1_545 S
C129 H150 0.931 . S
C130 C129 1.392 1_565 S
C130 C131 1.361 . S
C130 C132 1.500 . S
C131 C126 1.390 1_565 S
C131 C130 1.361 . S
C131 H149 0.931 . S
C132 C130 1.500 . S
C132 C133 1.371 . S
C132 C134 1.365 . S
C133 C132 1.371 . S
C133 C143 1.386 . S
C133 H151 0.931 . S
C134 C132 1.365 . S
C134 C135 1.409 . S
C134 H152 0.929 . S
C135 C134 1.409 . S
C135 C136 1.380 . S
C135 H153 0.930 . S
C136 C135 1.380 . S
C136 C143 1.357 . S
C137 C128 1.511 . S
C137 C138 1.341 . S
C137 C139 1.371 . S
C138 C137 1.341 . S
C138 C142 1.394 . S
C138 H154 0.930 . S
C139 C137 1.371 . S
C139 C140 1.392 . S
C139 H155 0.931 . S
C140 C139 1.392 . S
C140 C141 1.331 . S
C140 H158 0.932 . S
C141 C140 1.331 . S
C141 C142 1.336 . S
C142 C138 1.394 . S
C142 C141 1.336 . S
C142 H157 0.929 . S
C143 C133 1.386 . S
C143 C136 1.357 . S
C143 H156 0.928 . S
H144 C120 0.931 . S
H145 C122 0.930 . S
H146 C124 0.929 . S
H147 C125 0.931 . S
H148 C127 0.930 . S
H149 C131 0.931 . S
H150 C129 0.931 . S
H151 C133 0.931 . S
H152 C134 0.929 . S
H153 C135 0.930 . S
H154 C138 0.930 . S
H155 C139 0.931 . S
H156 C143 0.928 . S
H157 C142 0.929 . S
H158 C140 0.932 . S
C159 C160 1.386 . S
C159 C161 1.397 . S
C159 H183 0.931 . S
C160 C159 1.386 . S
C160 C164 1.397 . S
C161 C159 1.397 . S
C161 C162 1.384 . S
C161 H184 0.930 . S
C162 C161 1.384 . S
C162 C163 1.377 . S
C162 C165 1.481 . S
C163 C162 1.377 . S
C163 C164 1.389 . S
C163 H185 0.929 . S
C164 C160 1.397 . S
C164 C163 1.389 . S
C164 H186 0.931 . S
C165 C162 1.481 . S
C165 C166 1.387 . S
C165 C170 1.390 . S
C166 C165 1.387 . S
C166 C167 1.401 . S
C166 H187 0.930 . S
C167 C166 1.401 . S
C167 C168 1.376 . S
C167 C176 1.511 . S
C168 C167 1.376 . S
C168 C169 1.392 . S
C168 H189 0.931 . S
C169 C168 1.392 . S
C169 C170 1.361 . S
C169 C171 1.500 . S
C170 C165 1.390 . S
C170 C169 1.361 . S
C170 H188 0.931 . S
C171 C169 1.500 . S
C171 C172 1.371 . S
C171 C173 1.365 . S
C172 C171 1.371 . S
C172 C182 1.386 . S
C172 H190 0.931 . S
C173 C171 1.365 . S
C173 C174 1.409 . S
C173 H191 0.929 . S
C174 C173 1.409 . S
C174 C175 1.380 . S
C174 H192 0.930 . S
C175 C174 1.380 . S
C175 C182 1.357 . S
C176 C167 1.511 . S
C176 C177 1.341 . S
C176 C178 1.371 . S
C177 C176 1.341 . S
C177 C181 1.394 . S
C177 H193 0.930 . S
C178 C176 1.371 . S
C178 C179 1.392 . S
C178 H194 0.931 . S
C179 C178 1.392 . S
C179 C180 1.331 . S
C179 H197 0.932 . S
C180 C179 1.331 . S
C180 C181 1.336 . S
C181 C177 1.394 . S
C181 C180 1.336 . S
C181 H196 0.929 . S
C182 C172 1.386 . S
C182 C175 1.357 . S
C182 H195 0.928 . S
H183 C159 0.931 . S
H184 C161 0.930 . S
H185 C163 0.929 . S
H186 C164 0.931 . S
H187 C166 0.930 . S
H188 C170 0.931 . S
H189 C168 0.931 . S
H190 C172 0.931 . S
H191 C173 0.929 . S
H192 C174 0.930 . S
H193 C177 0.930 . S
H194 C178 0.931 . S
H195 C182 0.928 . S
H196 C181 0.929 . S
H197 C179 0.932 . S
C198 C199 1.386 . S
C198 C200 1.397 . S
C198 H222 0.931 . S
C199 C198 1.386 . S
C199 C203 1.397 1_455 S
C200 C198 1.397 . S
C200 C201 1.384 . S
C200 H223 0.930 . S
C201 C200 1.384 . S
C201 C202 1.377 1_455 S
C201 C204 1.481 . S
C202 C201 1.377 1_655 S
C202 C203 1.389 . S
C202 H224 0.929 . S
C203 C199 1.397 1_655 S
C203 C202 1.389 . S
C203 H225 0.931 . S
C204 C201 1.481 . S
C204 C205 1.387 . S
C204 C209 1.390 1_455 S
C205 C204 1.387 . S
C205 C206 1.401 . S
C205 H226 0.930 . S
C206 C205 1.401 . S
C206 C207 1.376 . S
C206 C215 1.511 . S
C207 C206 1.376 . S
C207 C208 1.392 1_455 S
C207 H228 0.931 . S
C208 C207 1.392 1_655 S
C208 C209 1.361 . S
C208 C210 1.500 . S
C209 C204 1.390 1_655 S
C209 C208 1.361 . S
C209 H227 0.931 . S
C210 C208 1.500 . S
C210 C211 1.371 . S
C210 C212 1.365 . S
C211 C210 1.371 . S
C211 C221 1.386 . S
C211 H229 0.931 . S
C212 C210 1.365 . S
C212 C213 1.409 . S
C212 H230 0.929 . S
C213 C212 1.409 . S
C213 C214 1.380 . S
C213 H231 0.930 . S
C214 C213 1.380 . S
C214 C221 1.357 . S
C215 C206 1.511 . S
C215 C216 1.341 . S
C215 C217 1.371 . S
C216 C215 1.341 . S
C216 C220 1.394 . S
C216 H232 0.930 . S
C217 C215 1.371 . S
C217 C218 1.392 . S
C217 H233 0.931 . S
C218 C217 1.392 . S
C218 C219 1.331 . S
C218 H236 0.932 . S
C219 C218 1.331 . S
C219 C220 1.336 . S
C220 C216 1.394 . S
C220 C219 1.336 . S
C220 H235 0.929 . S
C221 C211 1.386 . S
C221 C214 1.357 . S
C221 H234 0.928 . S
H222 C198 0.931 . S
H223 C200 0.930 . S
H224 C202 0.929 . S
H225 C203 0.931 . S
H226 C205 0.930 . S
H227 C209 0.931 . S
H228 C207 0.931 . S
H229 C211 0.931 . S
H230 C212 0.929 . S
H231 C213 0.930 . S
H232 C216 0.930 . S
H233 C217 0.931 . S
H234 C221 0.928 . S
H235 C220 0.929 . S
H236 C218 0.932 . S
C237 C238 1.386 1_655 S
C237 C239 1.397 . S
C237 H261 0.931 . S
C238 C237 1.386 1_455 S
C238 C242 1.397 . S
C239 C237 1.397 . S
C239 C240 1.384 1_655 S
C239 H262 0.930 . S
C240 C239 1.384 1_455 S
C240 C241 1.377 . S
C240 C243 1.481 . S
C241 C240 1.377 . S
C241 C242 1.389 . S
C241 H263 0.929 . S
C242 C238 1.397 . S
C242 C241 1.389 . S
C242 H264 0.931 . S
C243 C240 1.481 . S
C243 C244 1.387 1_455 S
C243 C248 1.390 . S
C244 C243 1.387 1_655 S
C244 C245 1.401 . S
C244 H265 0.930 . S
C245 C244 1.401 . S
C245 C246 1.376 1_655 S
C245 C254 1.511 . S
C246 C245 1.376 1_455 S
C246 C247 1.392 . S
C246 H267 0.931 . S
C247 C246 1.392 . S
C247 C248 1.361 . S
C247 C249 1.500 . S
C248 C243 1.390 . S
C248 C247 1.361 . S
C248 H266 0.931 . S
C249 C247 1.500 . S
C249 C250 1.371 . S
C249 C251 1.365 . S
C250 C249 1.371 . S
C250 C260 1.386 . S
C250 H268 0.931 . S
C251 C249 1.365 . S
C251 C252 1.409 . S
C251 H269 0.929 . S
C252 C251 1.409 . S
C252 C253 1.380 . S
C252 H270 0.930 . S
C253 C252 1.380 . S
C253 C260 1.357 . S
C254 C245 1.511 . S
C254 C255 1.341 . S
C254 C256 1.371 . S
C255 C254 1.341 . S
C255 C259 1.394 . S
C255 H271 0.930 . S
C256 C254 1.371 . S
C256 C257 1.392 . S
C256 H272 0.931 . S
C257 C256 1.392 . S
C257 C258 1.331 . S
C257 H275 0.932 . S
C258 C257 1.331 . S
C258 C259 1.336 . S
C259 C255 1.394 . S
C259 C258 1.336 . S
C259 H274 0.929 . S
C260 C250 1.386 . S
C260 C253 1.357 . S
C260 H273 0.928 . S
H261 C237 0.931 . S
H262 C239 0.930 . S
H263 C241 0.929 . S
H264 C242 0.931 . S
H265 C244 0.930 . S
H266 C248 0.931 . S
H267 C246 0.931 . S
H268 C250 0.931 . S
H269 C251 0.929 . S
H270 C252 0.930 . S
H271 C255 0.930 . S
H272 C256 0.931 . S
H273 C260 0.928 . S
H274 C259 0.929 . S
H275 C257 0.932 . S
C276 C277 1.386 1_565 S
C276 C278 1.397 . S
C276 H300 0.931 . S
C277 C276 1.386 1_545 S
C277 C281 1.397 . S
C278 C276 1.397 . S
C278 C279 1.383 1_565 S
C278 H301 0.930 . S
C279 C278 1.383 1_545 S
C279 C280 1.378 . S
C279 C282 1.480 1_545 S
C280 C279 1.378 . S
C280 C281 1.389 . S
C280 H302 0.929 . S
C281 C277 1.397 . S
C281 C280 1.389 . S
C281 H303 0.931 . S
C282 C279 1.480 1_565 S
C282 C283 1.410 . S
C282 C287 1.368 1_565 S
C283 C282 1.410 . S
C283 C284 1.401 . S
C283 H304 0.930 . S
C284 C283 1.401 . S
C284 C285 1.376 . S
C284 C293 1.511 . S
C285 C284 1.376 . S
C285 C286 1.392 1_565 S
C285 H306 0.931 . S
C286 C285 1.392 1_545 S
C286 C287 1.361 . S
C286 C288 1.500 . S
C287 C282 1.368 1_545 S
C287 C286 1.361 . S
C287 H305 0.931 . S
C288 C286 1.500 . S
C288 C289 1.371 . S
C288 C290 1.365 . S
C289 C288 1.371 . S
C289 C299 1.386 . S
C289 H307 0.931 . S
C290 C288 1.365 . S
C290 C291 1.409 . S
C290 H308 0.929 . S
C291 C290 1.409 . S
C291 C292 1.380 . S
C291 H309 0.930 . S
C292 C291 1.380 . S
C292 C299 1.357 . S
C293 C284 1.511 . S
C293 C294 1.341 . S
C293 C295 1.371 . S
C294 C293 1.341 . S
C294 C298 1.394 . S
C294 H310 0.930 . S
C295 C293 1.371 . S
C295 C296 1.392 . S
C295 H311 0.931 . S
C296 C295 1.392 . S
C296 C297 1.331 . S
C296 H314 0.932 . S
C297 C296 1.331 . S
C297 C298 1.336 . S
C298 C294 1.394 . S
C298 C297 1.336 . S
C298 H313 0.929 . S
C299 C289 1.386 . S
C299 C292 1.357 . S
C299 H312 0.928 . S
H300 C276 0.931 . S
H301 C278 0.930 . S
H302 C280 0.929 . S
H303 C281 0.931 . S
H304 C283 0.930 . S
H305 C287 0.931 . S
H306 C285 0.931 . S
H307 C289 0.931 . S
H308 C290 0.929 . S
H309 C291 0.930 . S
H310 C294 0.930 . S
H311 C295 0.931 . S
H312 C299 0.928 . S
H313 C298 0.929 . S
H314 C296 0.932 . S
C315 C316 1.386 . S
C315 C317 1.397 1_556 S
C315 H339 0.931 . S
C316 C315 1.386 . S
C316 C320 1.397 . S
C317 C315 1.397 1_554 S
C317 C318 1.384 . S
C317 H340 0.930 . S
C318 C317 1.384 . S
C318 C319 1.377 . S
C318 C321 1.481 . S
C319 C318 1.377 . S
C319 C320 1.389 1_554 S
C319 H341 0.929 . S
C320 C316 1.397 . S
C320 C319 1.389 1_556 S
C320 H342 0.931 . S
C321 C318 1.481 . S
C321 C322 1.387 . S
C321 C326 1.390 . S
C322 C321 1.387 . S
C322 C323 1.401 . S
C322 H343 0.930 . S
C323 C322 1.401 . S
C323 C324 1.376 . S
C323 C332 1.511 . S
C324 C323 1.376 . S
C324 C325 1.392 . S
C324 H345 0.931 . S
C325 C324 1.392 . S
C325 C326 1.361 . S
C325 C327 1.500 . S
C326 C321 1.390 . S
C326 C325 1.361 . S
C326 H344 0.931 . S
C327 C325 1.500 . S
C327 C328 1.371 . S
C327 C329 1.365 . S
C328 C327 1.371 . S
C328 C338 1.386 . S
C328 H346 0.931 . S
C329 C327 1.365 . S
C329 C330 1.409 . S
C329 H347 0.929 . S
C330 C329 1.409 . S
C330 C331 1.380 . S
C330 H348 0.930 . S
C331 C330 1.380 . S
C331 C338 1.357 . S
C332 C323 1.511 . S
C332 C333 1.341 . S
C332 C334 1.371 . S
C333 C332 1.341 . S
C333 C337 1.394 . S
C333 H349 0.930 . S
C334 C332 1.371 . S
C334 C335 1.392 . S
C334 H350 0.931 . S
C335 C334 1.392 . S
C335 C336 1.331 . S
C335 H353 0.932 . S
C336 C335 1.331 . S
C336 C337 1.336 . S
C337 C333 1.394 . S
C337 C336 1.336 . S
C337 H352 0.929 . S
C338 C328 1.386 . S
C338 C331 1.357 . S
C338 H351 0.928 . S
H339 C315 0.931 . S
H340 C317 0.930 . S
H341 C319 0.929 . S
H342 C320 0.931 . S
H343 C322 0.930 . S
H344 C326 0.931 . S
H345 C324 0.931 . S
H346 C328 0.931 . S
H347 C329 0.929 . S
H348 C330 0.930 . S
H349 C333 0.930 . S
H350 C334 0.931 . S
H351 C338 0.928 . S
H352 C337 0.929 . S
H353 C335 0.932 . S
C354 C355 1.369 . S
C354 C356 1.419 . S
C354 H358 0.930 . S
C355 C354 1.369 . S
C355 C364 1.429 . S
C356 C354 1.419 . S
C356 C357 1.363 . S
C356 H359 0.929 . S
C357 C356 1.363 . S
C357 C363 1.428 . S
H358 C354 0.930 . S
H359 C356 0.929 . S
S360 N361 1.613 . S
S360 N362 1.610 . S
N361 S360 1.613 . S
N361 C364 1.350 . S
N362 S360 1.610 . S
N362 C363 1.351 . S
C363 C357 1.428 . S
C363 N362 1.351 . S
C363 C364 1.434 . S
C364 C355 1.429 . S
C364 N361 1.350 . S
C364 C363 1.434 . S
C365 C366 1.369 . S
C365 C367 1.419 . S
C365 H369 0.930 . S
C366 C365 1.369 . S
C366 C375 1.429 . S
C367 C365 1.419 . S
C367 C368 1.363 . S
C367 H370 0.929 . S
C368 C367 1.363 . S
C368 C374 1.428 . S
H369 C365 0.930 . S
H370 C367 0.929 . S
S371 N372 1.613 . S
S371 N373 1.610 . S
N372 S371 1.613 . S
N372 C375 1.350 . S
N373 S371 1.610 . S
N373 C374 1.351 . S
C374 C368 1.428 . S
C374 N373 1.351 . S
C374 C375 1.434 . S
C375 C366 1.429 . S
C375 N372 1.350 . S
C375 C374 1.434 . S
C376 C377 1.369 . S
C376 C378 1.419 . S
C376 H380 0.930 . S
C377 C376 1.369 . S
C377 C386 1.429 . S
C378 C376 1.419 . S
C378 C379 1.363 . S
C378 H381 0.929 . S
C379 C378 1.363 . S
C379 C385 1.428 . S
H380 C376 0.930 . S
H381 C378 0.929 . S
S382 N383 1.613 . S
S382 N384 1.610 . S
N383 S382 1.613 . S
N383 C386 1.350 . S
N384 S382 1.610 . S
N384 C385 1.351 . S
C385 C379 1.428 . S
C385 N384 1.351 . S
C385 C386 1.434 . S
C386 C377 1.429 . S
C386 N383 1.350 . S
C386 C385 1.434 . S
C387 C388 1.369 . S
C387 C389 1.419 . S
C387 H391 0.930 . S
C388 C387 1.369 . S
C388 C397 1.429 . S
C389 C387 1.419 . S
C389 C390 1.363 . S
C389 H392 0.929 . S
C390 C389 1.363 . S
C390 C396 1.428 . S
H391 C387 0.930 . S
H392 C389 0.929 . S
S393 N394 1.613 . S
S393 N395 1.610 . S
N394 S393 1.613 . S
N394 C397 1.350 . S
N395 S393 1.610 . S
N395 C396 1.351 . S
C396 C390 1.428 . S
C396 N395 1.351 . S
C396 C397 1.434 . S
C397 C388 1.429 . S
C397 N394 1.350 . S
C397 C396 1.434 . S
C398 C399 1.369 . S
C398 C400 1.419 . S
C398 H402 0.930 . S
C399 C398 1.369 . S
C399 C408 1.429 . S
C400 C398 1.419 . S
C400 C401 1.363 . S
C400 H403 0.929 . S
C401 C400 1.363 . S
C401 C407 1.428 . S
H402 C398 0.930 . S
H403 C400 0.929 . S
S404 N405 1.613 . S
S404 N406 1.610 . S
N405 S404 1.613 . S
N405 C408 1.350 . S
N406 S404 1.610 . S
N406 C407 1.351 . S
C407 C401 1.428 . S
C407 N406 1.351 . S
C407 C408 1.434 . S
C408 C399 1.429 . S
C408 N405 1.350 . S
C408 C407 1.434 . S
C409 C410 1.369 . S
C409 C411 1.419 . S
C409 H413 0.930 . S
C410 C409 1.369 . S
C410 C419 1.429 . S
C411 C409 1.419 . S
C411 C412 1.363 . S
C411 H414 0.929 . S
C412 C411 1.363 . S
C412 C418 1.428 . S
H413 C409 0.930 . S
H414 C411 0.929 . S
S415 N416 1.613 . S
S415 N417 1.610 . S
N416 S415 1.613 . S
N416 C419 1.350 . S
N417 S415 1.610 . S
N417 C418 1.351 . S
C418 C412 1.428 . S
C418 N417 1.351 . S
C418 C419 1.434 . S
C419 C410 1.429 . S
C419 N416 1.350 . S
C419 C418 1.434 . S
C420 C421 1.369 . S
C420 C422 1.419 . S
C420 H424 0.930 . S
C421 C420 1.369 . S
C421 C430 1.429 . S
C422 C420 1.419 . S
C422 C423 1.363 . S
C422 H425 0.929 . S
C423 C422 1.363 . S
C423 C429 1.428 . S
H424 C420 0.930 . S
H425 C422 0.929 . S
S426 N427 1.613 . S
S426 N428 1.610 . S
N427 S426 1.613 . S
N427 C430 1.350 . S
N428 S426 1.610 . S
N428 C429 1.351 . S
C429 C423 1.428 . S
C429 N428 1.351 . S
C429 C430 1.434 . S
C430 C421 1.429 . S
C430 N427 1.350 . S
C430 C429 1.434 . S
C431 C432 1.369 . S
C431 C433 1.419 . S
C431 H435 0.930 . S
C432 C431 1.369 . S
C432 C441 1.429 . S
C433 C431 1.419 . S
C433 C434 1.363 . S
C433 H436 0.929 . S
C434 C433 1.363 . S
C434 C440 1.428 . S
H435 C431 0.930 . S
H436 C433 0.929 . S
S437 N438 1.613 . S
S437 N439 1.610 . S
N438 S437 1.613 . S
N438 C441 1.350 . S
N439 S437 1.610 . S
N439 C440 1.351 . S
C440 C434 1.428 . S
C440 N439 1.351 . S
C440 C441 1.434 . S
C441 C432 1.429 . S
C441 N438 1.350 . S
C441 C440 1.434 . S
C442 C443 1.369 . S
C442 C444 1.419 . S
C442 H446 0.930 . S
C443 C442 1.369 . S
C443 C452 1.429 . S
C444 C442 1.419 . S
C444 C445 1.363 . S
C444 H447 0.929 . S
C445 C444 1.363 . S
C445 C451 1.428 . S
H446 C442 0.930 . S
H447 C444 0.929 . S
S448 N449 1.613 . S
S448 N450 1.610 . S
N449 S448 1.613 . S
N449 C452 1.350 . S
N450 S448 1.610 . S
N450 C451 1.351 . S
C451 C445 1.428 . S
C451 N450 1.351 . S
C451 C452 1.434 . S
C452 C443 1.429 . S
C452 N449 1.350 . S
C452 C451 1.434 . S
C453 C454 1.369 . S
C453 C455 1.419 . S
C453 H457 0.930 . S
C454 C453 1.369 . S
C454 C463 1.429 . S
C455 C453 1.419 . S
C455 C456 1.363 . S
C455 H458 0.929 . S
C456 C455 1.363 . S
C456 C462 1.428 . S
H457 C453 0.930 . S
H458 C455 0.929 . S
S459 N460 1.613 . S
S459 N461 1.610 . S
N460 S459 1.613 . S
N460 C463 1.350 . S
N461 S459 1.610 . S
N461 C462 1.351 . S
C462 C456 1.428 . S
C462 N461 1.351 . S
C462 C463 1.434 . S
C463 C454 1.429 . S
C463 N460 1.350 . S
C463 C462 1.434 . S
C464 C465 1.369 . S
C464 C466 1.419 . S
C464 H468 0.930 . S
C465 C464 1.369 . S
C465 C474 1.429 . S
C466 C464 1.419 . S
C466 C467 1.363 . S
C466 H469 0.929 . S
C467 C466 1.363 . S
C467 C473 1.428 . S
H468 C464 0.930 . S
H469 C466 0.929 . S
S470 N471 1.613 . S
S470 N472 1.610 . S
N471 S470 1.613 . S
N471 C474 1.350 . S
N472 S470 1.610 . S
N472 C473 1.351 . S
C473 C467 1.428 . S
C473 N472 1.351 . S
C473 C474 1.434 . S
C474 C465 1.429 . S
C474 N471 1.350 . S
C474 C473 1.434 . S
C475 C476 1.369 . S
C475 C477 1.419 . S
C475 H479 0.930 . S
C476 C475 1.369 . S
C476 C485 1.429 . S
C477 C475 1.419 . S
C477 C478 1.363 . S
C477 H480 0.929 . S
C478 C477 1.363 . S
C478 C484 1.428 . S
H479 C475 0.930 . S
H480 C477 0.929 . S
S481 N482 1.613 . S
S481 N483 1.610 . S
N482 S481 1.613 . S
N482 C485 1.350 . S
N483 S481 1.610 . S
N483 C484 1.351 . S
C484 C478 1.428 . S
C484 N483 1.351 . S
C484 C485 1.434 . S
C485 C476 1.429 . S
C485 N482 1.350 . S
C485 C484 1.434 . S
C486 C487 1.369 . S
C486 C488 1.419 . S
C486 H490 0.930 . S
C487 C486 1.369 . S
C487 C496 1.429 1_455 S
C488 C486 1.419 . S
C488 C489 1.363 . S
C488 H491 0.929 . S
C489 C488 1.363 . S
C489 C495 1.428 1_455 S
H490 C486 0.930 . S
H491 C488 0.929 . S
S492 N493 1.613 . S
S492 N494 1.610 . S
N493 S492 1.613 . S
N493 C496 1.350 . S
N494 S492 1.610 . S
N494 C495 1.351 . S
C495 C489 1.428 1_655 S
C495 N494 1.351 . S
C495 C496 1.434 . S
C496 C487 1.429 1_655 S
C496 N493 1.350 . S
C496 C495 1.434 . S
C497 C498 1.369 . S
C497 C499 1.419 . S
C497 H501 0.930 . S
C498 C497 1.369 . S
C498 C507 1.429 1_545 S
C499 C497 1.419 . S
C499 C500 1.363 . S
C499 H502 0.929 . S
C500 C499 1.363 . S
C500 C506 1.428 1_545 S
H501 C497 0.930 . S
H502 C499 0.929 . S
S503 N504 1.613 . S
S503 N505 1.610 . S
N504 S503 1.613 . S
N504 C507 1.350 . S
N505 S503 1.610 . S
N505 C506 1.351 . S
C506 C500 1.428 1_565 S
C506 N505 1.351 . S
C506 C507 1.434 . S
C507 C498 1.429 1_565 S
C507 N504 1.350 . S
C507 C506 1.434 . S
C508 C509 1.369 . S
C508 C510 1.419 . S
C508 H512 0.930 . S
C509 C508 1.369 . S
C509 C518 1.429 . S
C510 C508 1.419 . S
C510 C511 1.363 . S
C510 H513 0.929 . S
C511 C510 1.363 . S
C511 C517 1.428 . S
H512 C508 0.930 . S
H513 C510 0.929 . S
S514 N515 1.613 . S
S514 N516 1.610 . S
N515 S514 1.613 . S
N515 C518 1.350 . S
N516 S514 1.610 . S
N516 C517 1.351 . S
C517 C511 1.428 . S
C517 N516 1.351 . S
C517 C518 1.434 . S
C518 C509 1.429 . S
C518 N515 1.350 . S
C518 C517 1.434 . S
C519 C520 1.369 . S
C519 C521 1.419 . S
C519 H523 0.930 . S
C520 C519 1.369 . S
C520 C529 1.429 . S
C521 C519 1.419 . S
C521 C522 1.363 . S
C521 H524 0.929 1_545 S
C522 C521 1.363 . S
C522 C528 1.428 . S
H523 C519 0.930 . S
H524 C521 0.929 1_565 S
S525 N526 1.613 . S
S525 N527 1.610 . S
N526 S525 1.613 . S
N526 C529 1.350 . S
N527 S525 1.610 . S
N527 C528 1.351 . S
C528 C522 1.428 . S
C528 N527 1.351 . S
C528 C529 1.434 . S
C529 C520 1.429 . S
C529 N526 1.350 . S
C529 C528 1.434 . S
C530 C531 1.369 . S
C530 C532 1.419 . S
C530 H534 0.930 . S
C531 C530 1.369 . S
C531 C540 1.429 . S
C532 C530 1.419 . S
C532 C533 1.363 . S
C532 H535 0.929 . S
C533 C532 1.363 . S
C533 C539 1.428 . S
H534 C530 0.930 . S
H535 C532 0.929 . S
S536 N537 1.613 . S
S536 N538 1.610 . S
N537 S536 1.613 . S
N537 C540 1.350 . S
N538 S536 1.610 . S
N538 C539 1.351 . S
C539 C533 1.428 . S
C539 N538 1.351 . S
C539 C540 1.434 . S
C540 C531 1.429 . S
C540 N537 1.350 . S
C540 C539 1.434 . S
C541 C542 1.369 . S
C541 C543 1.419 . S
C541 H545 0.930 . S
C542 C541 1.369 . S
C542 C551 1.429 1_455 S
C543 C541 1.419 . S
C543 C544 1.363 . S
C543 H546 0.929 . S
C544 C543 1.363 . S
C544 C550 1.428 1_455 S
H545 C541 0.930 . S
H546 C543 0.929 . S
S547 N548 1.613 . S
S547 N549 1.610 . S
N548 S547 1.613 . S
N548 C551 1.350 . S
N549 S547 1.610 . S
N549 C550 1.351 . S
C550 C544 1.428 1_655 S
C550 N549 1.351 . S
C550 C551 1.434 . S
C551 C542 1.429 1_655 S
C551 N548 1.350 . S
C551 C550 1.434 . S
C355 C9 0.728 . S
C357 C331 0.738 . S
C366 C49 0.509 . S
C368 C258 0.432 . S
C377 C89 0.495 . S
C379 C297 0.475 . S
C388 C26 0.647 . S
C390 C336 0.571 . S
C401 C253 0.686 . S
C399 C66 0.697 . S
C412 C292 0.751 . S
C410 C106 0.760 . S
C421 C43 3.063 . S
C423 C180 2.997 . S
C432 C83 3.191 . S
C434 C214 3.109 . S
C443 C22 3.230 . S
C445 C136 3.142 . S
C456 C175 3.141 . S
C454 C62 3.230 . S
C467 C219 3.029 . S
C465 C102 3.098 . S
C476 C3 3.062 . S
C478 C141 3.002 . S
C489 C199 1.811 1_554 S
C487 C15 1.742 . S
C498 C55 1.762 . S
C500 C121 1.810 . S
C509 C95 1.754 . S
C511 C160 1.805 . S
C522 C277 1.053 . S
C520 C42 1.054 . S
C533 C316 1.066 . S
C531 C82 1.071 . S
C542 C2 1.043 . S
C544 C238 1.043 . S
