# Generated by pormake.
# Topology rtl, (3,6)-cn, num edge types: 1
# Building blocks:
#     Node 0, Type 0, BuildingBlock: BELTOD_clean_linker_0, # of connection points: 3
#     Node 1, Type 0, BuildingBlock: BELTOD_clean_linker_0, # of connection points: 3
#     Node 2, Type 0, BuildingBlock: BELTOD_clean_linker_0, # of connection points: 3
#     Node 3, Type 0, BuildingBlock: BELTOD_clean_linker_0, # of connection points: 3
#     Node 4, Type 1, BuildingBlock: CIFDUS_clean_sbu_1, # of connection points: 6
#     Node 5, Type 1, BuildingBlock: CIFDUS_clean_sbu_1, # of connection points: 6
#     Edge 6, Type (0, 1), BuildingBlock: FUNLAD_clean_linker_1, # of connection points: 2
#     Edge 7, Type (0, 1), BuildingBlock: FUNLAD_clean_linker_1, # of connection points: 2
#     Edge 8, Type (0, 1), BuildingBlock: FUNLAD_clean_linker_1, # of connection points: 2
#     Edge 9, Type (0, 1), BuildingBlock: FUNLAD_clean_linker_1, # of connection points: 2
#     Edge 10, Type (0, 1), BuildingBlock: FUNLAD_clean_linker_1, # of connection points: 2
#     Edge 11, Type (0, 1), BuildingBlock: FUNLAD_clean_linker_1, # of connection points: 2
#     Edge 12, Type (0, 1), BuildingBlock: FUNLAD_clean_linker_1, # of connection points: 2
#     Edge 13, Type (0, 1), BuildingBlock: FUNLAD_clean_linker_1, # of connection points: 2
#     Edge 14, Type (0, 1), BuildingBlock: FUNLAD_clean_linker_1, # of connection points: 2
#     Edge 15, Type (0, 1), BuildingBlock: FUNLAD_clean_linker_1, # of connection points: 2
#     Edge 16, Type (0, 1), BuildingBlock: FUNLAD_clean_linker_1, # of connection points: 2
#     Edge 17, Type (0, 1), BuildingBlock: FUNLAD_clean_linker_1, # of connection points: 2
# Relax obj value: 0.026
# Max RMSD: 0.063
# Mean RMSD: 0.044
data_MOF--net-rtl--node1-CIFDUS_clean_sbu_1--node2-BELTOD_clean_linker_0--edge1-FUNLAD_clean_linker_1
_symmetry_space_group_name_H-M    P1
_symmetry_Int_Tables_number       1
_symmetry_cell_setting            triclinic
loop_
_symmetry_equiv_pos_as_xyz
'x, y, z'
_cell_length_a     36.157304
_cell_length_b     41.012156
_cell_length_c     27.893085
_cell_angle_alpha  89.202909
_cell_angle_beta   98.64955
_cell_angle_gamma 89.79928
loop_
_atom_site_label
_atom_site_type_symbol
_atom_site_fract_x
_atom_site_fract_y
_atom_site_fract_z
_atom_type_partial_charge
P0 P 0.23607 0.85408 0.08792 0.0
H1 H 0.26036 0.9017 0.16311 0.0
H2 H 0.23184 0.9227 0.23015 0.0
H3 H 0.13798 0.8581 0.19289 0.0
H4 H 0.16693 0.83727 0.12524 0.0
H5 H 0.31178 0.83677 0.13286 0.0
H6 H 0.3441 0.78489 0.15087 0.0
H7 H 0.24178 0.73385 0.09893 0.0
H8 H 0.20953 0.78633 0.08094 0.0
H9 H 0.16667 0.89038 0.05426 0.0
H10 H 0.23313 0.81629 0.99888 0.0
O11 O 0.26881 0.88054 0.07682 0.0
H12 H 0.12553 0.89314 0.97679 0.0
H13 H 0.19231 0.81932 0.92052 0.0
C14 C 0.21541 0.86835 0.13871 0.0
C15 C 0.23372 0.89193 0.16946 0.0
C16 C 0.21747 0.90369 0.20831 0.0
C17 C 0.18267 0.89177 0.21736 0.0
C18 C 0.16482 0.86768 0.18689 0.0
C19 C 0.18124 0.85581 0.14821 0.0
C20 C 0.25856 0.81536 0.10431 0.0
C21 C 0.29621 0.81442 0.12569 0.0
C22 C 0.31458 0.78456 0.13665 0.0
C23 C 0.29539 0.75501 0.1268 0.0
C24 C 0.25725 0.75618 0.10701 0.0
C25 C 0.23885 0.7861 0.09644 0.0
C26 C 0.20247 0.85248 0.033 0.0
C27 C 0.17206 0.87424 0.02569 0.0
C28 C 0.1488 0.87618 0.98081 0.0
C29 C 0.15604 0.85684 0.94185 0.0
C30 C 0.18597 0.8345 0.94976 0.0
C31 C 0.20924 0.83264 0.99465 0.0
P32 P 0.76256 0.67819 0.59101 0.0
H33 H 0.75188 0.62265 0.52745 0.0
H34 H 0.71082 0.61228 0.45157 0.0
H35 H 0.66245 0.70849 0.45598 0.0
H36 H 0.7036 0.71853 0.53253 0.0
H37 H 0.78369 0.71547 0.67984 0.0
H38 H 0.80945 0.76991 0.69458 0.0
H39 H 0.80099 0.78661 0.53995 0.0
H40 H 0.77526 0.73204 0.52559 0.0
H41 H 0.77599 0.61896 0.65088 0.0
H42 H 0.70078 0.70141 0.63842 0.0
O43 O 0.80195 0.65732 0.58874 0.0
H44 H 0.74696 0.59698 0.71784 0.0
H45 H 0.6718 0.68009 0.70557 0.0
C46 C 0.73172 0.67176 0.53478 0.0
C47 C 0.73272 0.64167 0.51189 0.0
C48 C 0.70912 0.63573 0.46855 0.0
C49 C 0.68399 0.65976 0.44693 0.0
C50 C 0.68221 0.68973 0.47067 0.0
C51 C 0.70569 0.69551 0.51458 0.0
C52 C 0.77631 0.72003 0.60152 0.0
C53 C 0.78668 0.73108 0.64906 0.0
C54 C 0.80202 0.76217 0.65749 0.0
C55 C 0.80773 0.78259 0.61833 0.0
C56 C 0.79683 0.7715 0.57084 0.0
C57 C 0.78179 0.74039 0.56253 0.0
C58 C 0.74071 0.66198 0.64005 0.0
C59 C 0.75323 0.63241 0.66263 0.0
C60 C 0.73657 0.61985 0.70095 0.0
C61 C 0.70684 0.63641 0.71727 0.0
C62 C 0.69418 0.66609 0.69412 0.0
C63 C 0.71089 0.67859 0.65565 0.0
P64 P 0.82219 0.22514 0.99451 0.0
H65 H 0.82537 0.23025 0.89146 0.0
H66 H 0.82659 0.18999 0.8282 0.0
H67 H 0.81452 0.11274 0.93153 0.0
H68 H 0.81266 0.15349 0.99482 0.0
H69 H 0.80493 0.28567 0.03883 0.0
H70 H 0.74987 0.32077 0.02948 0.0
H71 H 0.69087 0.25282 0.92859 0.0
H72 H 0.74629 0.21728 0.93911 0.0
H73 H 0.89365 0.20779 0.05189 0.0
H74 H 0.77713 0.20208 0.06781 0.0
O75 O 0.85651 0.25068 0.98595 0.0
H76 H 0.91117 0.18336 0.13205 0.0
H77 H 0.79446 0.17775 0.14907 0.0
C78 C 0.81992 0.19482 0.94803 0.0
C79 C 0.82303 0.20464 0.90054 0.0
C80 C 0.82403 0.18152 0.86447 0.0
C81 C 0.822 0.148 0.87534 0.0
C82 C 0.81671 0.13835 0.92237 0.0
C83 C 0.81578 0.1616 0.95856 0.0
C84 C 0.77993 0.24918 0.98915 0.0
C85 C 0.78017 0.27837 0.01459 0.0
C86 C 0.74868 0.29869 1.00858 0.0
C87 C 0.71624 0.29023 0.97663 0.0
C88 C 0.71566 0.26028 0.95264 0.0
C89 C 0.7473 0.23993 0.95871 0.0
C90 C 0.83418 0.20744 0.05438 0.0
C91 C 0.87184 0.20173 0.07314 0.0
C92 C 0.88183 0.18799 0.11943 0.0
C93 C 0.85419 0.17954 0.14793 0.0
C94 C 0.81638 0.18455 0.12838 0.0
C95 C 0.80643 0.19843 0.082 0.0
P96 P 0.36105 0.30233 0.50791 0.0
H97 H 0.39626 0.27869 0.60313 0.0
H98 H 0.40979 0.30419 0.68218 0.0
H99 H 0.35698 0.39328 0.6211 0.0
H100 H 0.34307 0.36719 0.54202 0.0
H101 H 0.33739 0.24682 0.4472 0.0
H102 H 0.28168 0.21302 0.43758 0.0
H103 H 0.23516 0.27244 0.54101 0.0
H104 H 0.29153 0.30602 0.55063 0.0
H105 H 0.41814 0.34566 0.48172 0.0
H106 H 0.30286 0.32432 0.42766 0.0
O107 O 0.39677 0.27704 0.50441 0.0
H108 H 0.4211 0.38168 0.41264 0.0
H109 H 0.3053 0.36084 0.35816 0.0
C110 C 0.36949 0.32129 0.56649 0.0
C111 C 0.3878 0.30379 0.60674 0.0
C112 C 0.39581 0.31859 0.65201 0.0
C113 C 0.38547 0.35129 0.65783 0.0
C114 C 0.36581 0.36826 0.61766 0.0
C115 C 0.35788 0.35341 0.57241 0.0
C116 C 0.31891 0.27845 0.50037 0.0
C117 C 0.31512 0.25257 0.46772 0.0
C118 C 0.28285 0.23343 0.46184 0.0
C119 C 0.25352 0.24013 0.48831 0.0
C120 C 0.25721 0.26666 0.52011 0.0
C121 C 0.28948 0.2858 0.52585 0.0
C122 C 0.36047 0.33216 0.45975 0.0
C123 C 0.39321 0.34929 0.45531 0.0
C124 C 0.39466 0.37026 0.41572 0.0
C125 C 0.36308 0.37469 0.3798 0.0
C126 C 0.32997 0.35812 0.38528 0.0
C127 C 0.32859 0.33715 0.425 0.0
O128 O 0.98577 0.05655 0.50424 0.0
Mn129 Mn 0.00968 0.02583 0.56184 0.0
O130 O 0.94817 0.02572 0.45161 0.0
Mn131 Mn 0.96674 0.98608 0.47727 0.0
O132 O 0.0338 0.99538 0.61962 0.0
O133 O 0.04643 0.06119 0.58284 0.0
Mn134 Mn 0.05044 0.06747 0.6456 0.0
O135 O 0.97159 0.04436 0.60476 0.0
O136 O 0.06761 0.02808 0.6739 0.0
O137 O 0.04724 0.00708 0.51854 0.0
O138 O 0.01365 0.97512 0.46306 0.0
O139 O 0.08248 0.09671 0.62242 0.0
O140 O 1.0032 0.08032 0.65569 0.0
C141 C 0.9499 0.96723 0.54326 0.0
C142 C 0.96159 0.05328 0.46572 0.0
C143 C 0.05634 0.99999 0.65933 0.0
C144 C 0.07057 0.08399 0.58075 0.0
C145 C 0.97305 0.06631 0.63753 0.0
C146 C 0.04462 0.9874 0.48261 0.0
O147 O 0.97312 0.99063 0.54057 0.0
O148 O 0.9365 0.9555 0.50141 0.0
O149 O 0.5351 0.5645 0.09804 0.0
Mn150 Mn 0.51672 0.52734 0.04853 0.0
O151 O 0.58597 0.5451 0.1467 0.0
Mn152 Mn 0.57924 0.502 0.12942 0.0
O153 O 0.49823 0.49041 0.99923 0.0
O154 O 0.46882 0.55187 0.0302 0.0
Mn155 Mn 0.45442 0.55298 0.9671 0.0
O156 O 0.5405 0.55207 0.99468 0.0
O157 O 0.44807 0.50984 0.94913 0.0
O158 O 0.49297 0.50244 0.10224 0.0
O159 O 0.54086 0.48096 0.1546 0.0
O160 O 0.41931 0.5765 0.99478 0.0
O161 O 0.49298 0.57423 0.94249 0.0
C162 C 0.59345 0.48495 0.06202 0.0
C163 C 0.56288 0.56804 0.13235 0.0
C164 C 0.47106 0.48692 0.96415 0.0
C165 C 0.44074 0.57009 0.03533 0.0
C166 C 0.52779 0.56963 0.95716 0.0
C167 C 0.50597 0.48508 0.13986 0.0
O168 O 0.56467 0.50259 0.06645 0.0
O169 O 0.61495 0.47885 0.10253 0.0
H170 H 0.20347 0.22157 0.516 0.0
C171 C 0.21995 0.21899 0.48666 0.0
H172 H 0.22447 0.19278 0.42259 0.0
H173 H 0.14977 0.07149 0.51624 0.0
H174 H 0.20939 0.04886 0.50221 0.0
H175 H 0.25513 0.08303 0.46758 0.0
H176 H 0.24161 0.14001 0.44685 0.0
C177 C 0.20925 0.1964 0.45273 0.0
C178 C 0.17818 0.17363 0.45895 0.0
C179 C 0.18604 0.14011 0.46888 0.0
C180 C 0.1597 0.12037 0.48889 0.0
C181 C 0.16887 0.08745 0.50105 0.0
C182 C 0.20292 0.07419 0.49306 0.0
C183 C 0.22867 0.09344 0.47353 0.0
C184 C 0.22058 0.12609 0.46179 0.0
H185 H 0.07638 0.08271 0.5022 0.0
C186 C 0.08441 0.09527 0.53617 0.0
H187 H 0.11455 0.1337 0.573 0.0
H188 H 0.15003 0.23357 0.42878 0.0
H189 H 0.08819 0.25469 0.43673 0.0
H190 H 0.043 0.22061 0.4727 0.0
H191 H 0.05932 0.16502 0.5006 0.0
C192 C 0.10781 0.12086 0.53899 0.0
C193 C 0.12578 0.1343 0.49863 0.0
C194 C 0.1157 0.1662 0.48153 0.0
C195 C 0.14185 0.18591 0.4614 0.0
C196 C 0.13128 0.2179 0.44525 0.0
C197 C 0.0959 0.23018 0.44937 0.0
C198 C 0.07045 0.21097 0.46961 0.0
C199 C 0.08013 0.17931 0.48568 0.0
H200 H 0.3027 0.7034 0.10858 0.0
C201 C 0.31502 0.72288 0.13173 0.0
H202 H 0.36082 0.73573 0.18459 0.0
H203 H 0.36586 0.57465 0.13746 0.0
H204 H 0.31224 0.56995 0.18074 0.0
H205 H 0.28508 0.61881 0.21315 0.0
H206 H 0.31125 0.67266 0.20249 0.0
C207 C 0.34792 0.71711 0.16046 0.0
C208 C 0.36974 0.68686 0.15441 0.0
C209 C 0.3547 0.65569 0.16208 0.0
C210 C 0.37045 0.62753 0.14371 0.0
C211 C 0.35445 0.59673 0.15049 0.0
C212 C 0.32394 0.59375 0.17538 0.0
C213 C 0.30866 0.62127 0.19367 0.0
C214 C 0.32374 0.65198 0.18712 0.0
H215 H 0.45778 0.58569 0.1116 0.0
C216 C 0.43558 0.58652 0.08068 0.0
H217 H 0.38315 0.60579 0.04986 0.0
H218 H 0.41113 0.74184 0.14511 0.0
H219 H 0.46806 0.74538 0.10925 0.0
H220 H 0.49526 0.69647 0.07733 0.0
H221 H 0.46579 0.64379 0.0812 0.0
C222 C 0.40552 0.60596 0.08063 0.0
C223 C 0.40111 0.63058 0.11797 0.0
C224 C 0.41962 0.66097 0.11702 0.0
C225 C 0.4039 0.68921 0.13543 0.0
C226 C 0.42187 0.7196 0.13192 0.0
C227 C 0.45459 0.72199 0.11138 0.0
C228 C 0.46989 0.69445 0.09338 0.0
C229 C 0.4526 0.6643 0.09575 0.0
H230 H 0.82213 0.83144 0.59314 0.0
C231 C 0.82531 0.8153 0.62482 0.0
H232 H 0.85361 0.80921 0.69679 0.0
H233 H 0.97822 0.90234 0.63032 0.0
H234 H 0.01464 0.85463 0.66149 0.0
H235 H 0.98419 0.80736 0.69465 0.0
H236 H 0.91716 0.80759 0.69682 0.0
C237 C 0.84742 0.82519 0.66529 0.0
C238 C 0.86792 0.85666 0.66421 0.0
C239 C 0.90723 0.85649 0.66527 0.0
C240 C 0.92486 0.8838 0.64642 0.0
C241 C 0.96367 0.88234 0.64461 0.0
C242 C 0.98481 0.85511 0.66238 0.0
C243 C 0.96766 0.82851 0.68109 0.0
C244 C 0.92922 0.82891 0.68213 0.0
H245 H 0.95442 0.96128 0.62366 0.0
C246 C 0.93997 0.95338 0.5888 0.0
H247 H 0.89903 0.92312 0.55074 0.0
H248 H 0.79535 0.86873 0.67442 0.0
H249 H 0.76078 0.91939 0.65301 0.0
H250 H 0.79155 0.96674 0.62046 0.0
H251 H 0.85721 0.96374 0.60923 0.0
C252 C 0.91399 0.92981 0.58597 0.0
C253 C 0.90306 0.91107 0.62745 0.0
C254 C 0.86547 0.91347 0.63534 0.0
C255 C 0.84776 0.8862 0.65375 0.0
C256 C 0.80977 0.8888 0.65983 0.0
C257 C 0.78981 0.91769 0.64793 0.0
C258 C 0.80715 0.94437 0.6296 0.0
C259 C 0.84458 0.94236 0.62311 0.0
H260 H 0.65532 0.30033 0.95724 0.0
C261 C 0.68228 0.3115 0.96931 0.0
H262 H 0.71033 0.35599 0.98568 0.0
H263 H 0.59393 0.46166 0.91236 0.0
H264 H 0.63297 0.46411 0.84838 0.0
H265 H 0.679 0.42069 0.84086 0.0
H266 H 0.68677 0.37466 0.89749 0.0
C267 C 0.68358 0.34377 0.97768 0.0
C268 C 0.64956 0.36485 0.97468 0.0
C269 C 0.64466 0.39107 0.94061 0.0
C270 C 0.61805 0.41611 0.94478 0.0
C271 C 0.61422 0.44235 0.91095 0.0
C272 C 0.63619 0.4439 0.87401 0.0
C273 C 0.66215 0.41943 0.86979 0.0
C274 C 0.66646 0.39325 0.9026 0.0
H275 H 0.6301 0.46874 0.01257 0.0
C276 C 0.60082 0.46928 0.01746 0.0
H277 H 0.55012 0.444 1.00624 0.0
H278 H 0.64947 0.31682 0.04467 0.0
H279 H 0.60794 0.31297 0.10456 0.0
H280 H 0.55971 0.355 0.10896 0.0
H281 H 0.55314 0.40125 0.05377 0.0
C282 C 0.57849 0.44525 0.99813 0.0
C283 C 0.59642 0.41494 0.98303 0.0
C284 C 0.59806 0.38675 0.01349 0.0
C285 C 0.62525 0.36198 1.01006 0.0
C286 C 0.62864 0.33576 0.04412 0.0
C287 C 0.60506 0.33332 0.07912 0.0
C288 C 0.57797 0.35701 0.08166 0.0
C289 C 0.57457 0.38355 0.04964 0.0
H290 H 0.13303 0.90158 0.2527 0.0
C291 C 0.16312 0.90514 0.25617 0.0
H292 H 0.21045 0.92349 0.30208 0.0
H293 H 0.06623 0.00825 0.35964 0.0
H294 H 0.06856 0.03701 0.2834 0.0
H295 H 0.11214 0.01954 0.22856 0.0
H296 H 0.15386 0.97332 0.24966 0.0
C297 C 0.18026 0.92113 0.29514 0.0
C298 C 0.15808 0.93473 0.33117 0.0
C299 C 0.13437 0.96211 0.31862 0.0
C300 C 0.10941 0.9723 0.35035 0.0
C301 C 0.08558 0.9994 0.33665 0.0
C302 C 0.08669 0.01615 0.2931 0.0
C303 C 0.11127 0.00634 0.26224 0.0
C304 C 0.13492 0.97967 0.27467 0.0
H305 H 0.10519 0.9902 0.4765 0.0
C306 C 0.07861 0.97958 0.46114 0.0
H307 H 0.04979 0.95108 0.40498 0.0
H308 H 0.20381 0.88461 0.3692 0.0
H309 H 0.20402 0.85792 0.44758 0.0
H310 H 0.16051 0.87552 0.5025 0.0
H311 H 0.1166 0.92002 0.47951 0.0
C312 C 0.07649 0.96093 0.42144 0.0
C313 C 0.10845 0.95531 0.39471 0.0
C314 C 0.13429 0.92969 0.40906 0.0
C315 C 0.1593 0.91947 0.3773 0.0
C316 C 0.18428 0.89333 0.392 0.0
C317 C 0.18466 0.87781 0.43684 0.0
C318 C 0.16015 0.88772 0.46777 0.0
C319 C 0.13508 0.91327 0.45415 0.0
H320 H 0.70484 0.60091 0.77742 0.0
C321 C 0.69043 0.62178 0.75852 0.0
H322 H 0.64285 0.65264 0.75593 0.0
H323 H 0.58361 0.52636 0.87075 0.0
H324 H 0.58222 0.49806 0.79464 0.0
H325 H 0.60891 0.52319 0.72677 0.0
H326 H 0.63683 0.57685 0.73427 0.0
C327 C 0.65848 0.63191 0.77296 0.0
C328 C 0.64376 0.61578 0.81435 0.0
C329 C 0.62773 0.58423 0.80928 0.0
C330 C 0.61184 0.56988 0.84817 0.0
C331 C 0.59575 0.53848 0.84216 0.0
C332 C 0.59485 0.52193 0.79875 0.0
C333 C 0.6099 0.53608 0.76054 0.0
C334 C 0.62607 0.56688 0.76546 0.0
H335 H 0.54248 0.60316 0.90097 0.0
C336 C 0.55382 0.58471 0.92765 0.0
H337 H 0.60081 0.5548 0.95264 0.0
H338 H 0.67372 0.67584 0.8368 0.0
H339 H 0.6739 0.7044 0.91252 0.0
H340 H 0.64574 0.6796 0.97951 0.0
H341 H 0.61723 0.626 0.9712 0.0
C342 C 0.58924 0.57457 0.92858 0.0
C343 C 0.61118 0.5874 0.89147 0.0
C344 C 0.62802 0.6185 0.89702 0.0
C345 C 0.64427 0.63275 0.85839 0.0
C346 C 0.66077 0.66395 0.86488 0.0
C347 C 0.66114 0.68058 0.90818 0.0
C348 C 0.64527 0.66662 0.9459 0.0
C349 C 0.62889 0.63593 0.94061 0.0
H350 H 0.8423 0.14898 0.20996 0.0
C351 C 0.8637 0.16367 0.19666 0.0
H352 H 0.91931 0.18095 0.2131 0.0
H353 H 0.88815 0.12368 0.42763 0.0
H354 H 0.84799 0.17124 0.42853 0.0
H355 H 0.83517 0.20801 0.35712 0.0
H356 H 0.86216 0.19733 0.28415 0.0
C357 C 0.89735 0.16616 0.22461 0.0
C358 C 0.9072 0.14587 0.2695 0.0
C359 C 0.89182 0.15283 0.31215 0.0
C360 C 0.89974 0.13193 0.35369 0.0
C361 C 0.88328 0.13894 0.39532 0.0
C362 C 0.86022 0.16614 0.3963 0.0
C363 C 0.85297 0.18683 0.35605 0.0
C364 C 0.86851 0.18038 0.31436 0.0
H365 H 0.96629 0.10477 0.44147 0.0
C366 C 0.95142 0.08203 0.43353 0.0
H367 H 0.91297 0.05634 0.38338 0.0
H368 H 0.94349 0.12693 0.19495 0.0
H369 H 0.98501 0.08035 0.19504 0.0
H370 H 0.99891 0.04435 0.26714 0.0
H371 H 0.9718 0.05494 0.33981 0.0
C372 C 0.92706 0.07933 0.39217 0.0
C373 C 0.92326 0.10434 0.35257 0.0
C374 C 0.94 0.09828 0.31071 0.0
C375 C 0.93206 0.11909 0.26921 0.0
C376 C 0.9487 0.11205 0.22763 0.0
C377 C 0.97258 0.08536 0.22715 0.0
C378 C 0.98043 0.06511 0.26774 0.0
C379 C 0.9645 0.07139 0.30914 0.0
H380 H 0.37912 0.39118 0.70869 0.0
C381 C 0.39407 0.36851 0.70492 0.0
H382 H 0.43776 0.33759 0.73885 0.0
H383 H 0.51088 0.45334 0.86933 0.0
H384 H 0.55811 0.44266 0.81863 0.0
H385 H 0.54742 0.40243 0.75327 0.0
H386 H 0.48897 0.37289 0.73772 0.0
C387 C 0.42035 0.3588 0.74197 0.0
C388 C 0.42904 0.37898 0.7864 0.0
C389 C 0.46392 0.39517 0.79624 0.0
C390 C 0.47032 0.4181 0.8345 0.0
C391 C 0.50462 0.43523 0.84158 0.0
C392 C 0.53207 0.4294 0.81261 0.0
C393 C 0.52601 0.40677 0.77574 0.0
C394 C 0.49233 0.38994 0.76728 0.0
H395 H 0.48675 0.43584 0.94976 0.0
C396 C 0.46786 0.45588 0.9372 0.0
H397 H 0.42491 0.47315 0.88284 0.0
H398 H 0.36248 0.34703 0.78386 0.0
H399 H 0.31591 0.35602 0.83662 0.0
H400 H 0.3266 0.39615 0.90229 0.0
H401 H 0.38411 0.42738 0.91582 0.0
C402 C 0.44417 0.45333 0.89521 0.0
C403 C 0.44195 0.42433 0.86335 0.0
C404 C 0.40833 0.40619 0.85588 0.0
C405 C 0.40195 0.38335 0.81763 0.0
C406 C 0.36831 0.36529 0.81156 0.0
C407 C 0.34147 0.37004 0.84181 0.0
C408 C 0.3475 0.39262 0.8788 0.0
C409 C 0.38051 0.4105 0.88599 0.0
H410 H 0.65755 0.62629 0.39073 0.0
C411 C 0.65997 0.65191 0.40035 0.0
H412 H 0.64713 0.70001 0.374 0.0
H413 H 0.63669 0.64446 0.15918 0.0
H414 H 0.68897 0.68209 0.1625 0.0
H415 H 0.71174 0.71157 0.23765 0.0
H416 H 0.68252 0.70373 0.30989 0.0
C417 C 0.64351 0.67408 0.36778 0.0
C418 C 0.62421 0.66302 0.3196 0.0
C419 C 0.64089 0.66872 0.27743 0.0
C420 C 0.62799 0.65154 0.23418 0.0
C421 C 0.64586 0.65673 0.19299 0.0
C422 C 0.67569 0.67829 0.1944 0.0
C423 C 0.68848 0.69492 0.23672 0.0
C424 C 0.67149 0.6902 0.27793 0.0
H425 H 0.54465 0.61707 0.15376 0.0
C426 C 0.56673 0.59879 0.16018 0.0
H427 H 0.61791 0.58448 0.20226 0.0
H428 H 0.58008 0.65353 0.38965 0.0
H429 H 0.52602 0.61791 0.38502 0.0
H430 H 0.50474 0.58685 0.3109 0.0
H431 H 0.53695 0.59145 0.24088 0.0
C432 C 0.59542 0.60242 0.19667 0.0
C433 C 0.59849 0.62883 0.2331 0.0
C434 C 0.57894 0.62615 0.2734 0.0
C435 C 0.59168 0.64349 0.31658 0.0
C436 C 0.57194 0.64027 0.35647 0.0
C437 C 0.54084 0.62007 0.35418 0.0
C438 C 0.52883 0.60261 0.31242 0.0
C439 C 0.54763 0.60543 0.27246 0.0
H440 H 0.8129 0.09932 0.84134 0.0
C441 C 0.82635 0.12281 0.83867 0.0
H442 H 0.8634 0.15036 0.80279 0.0
H443 H 0.92562 0.01307 0.73468 0.0
H444 H 0.94026 0.99761 0.81992 0.0
H445 H 0.91688 0.03038 0.8827 0.0
H446 H 0.8785 0.07836 0.86086 0.0
C447 C 0.84902 0.12733 0.80508 0.0
C448 C 0.85544 0.10252 0.76865 0.0
C449 C 0.87757 0.07427 0.78247 0.0
C450 C 0.89188 0.05576 0.74642 0.0
C451 C 0.91449 0.02807 0.76083 0.0
C452 C 0.92302 0.01894 0.80952 0.0
C453 C 0.90979 0.03736 0.84485 0.0
C454 C 0.88756 0.06484 0.83175 0.0
H455 H 0.93973 0.10032 0.67302 0.0
C456 C 0.93923 0.07621 0.65706 0.0
H457 H 0.91187 0.0306 0.65243 0.0
H458 H 0.80762 0.15083 0.72927 0.0
H459 H 0.79141 0.16452 0.64348 0.0
H460 H 0.81761 0.13295 0.58162 0.0
H461 H 0.8602 0.08733 0.60528 0.0
C462 C 0.91156 0.05576 0.66406 0.0
C463 C 0.88527 0.06626 0.69729 0.0
C464 C 0.85977 0.09206 0.68307 0.0
C465 C 0.8448 0.11021 0.71876 0.0
C466 C 0.82008 0.13645 0.70355 0.0
C467 C 0.81047 0.14445 0.65451 0.0
C468 C 0.82522 0.12667 0.61966 0.0
C469 C 0.84967 0.10075 0.6336 0.0
H470 H 0.34388 0.38855 0.30289 0.0
C471 C 0.36477 0.39362 0.33417 0.0
H472 H 0.41196 0.4224 0.35958 0.0
H473 H 0.43906 0.41389 0.13319 0.0
H474 H 0.44267 0.35504 0.145 0.0
H475 H 0.42694 0.32951 0.21991 0.0
H476 H 0.40684 0.36227 0.28268 0.0
C477 C 0.39219 0.41483 0.32865 0.0
C478 C 0.3971 0.42906 0.28056 0.0
C479 C 0.40961 0.40922 0.24475 0.0
C480 C 0.42048 0.42395 0.20261 0.0
C481 C 0.43183 0.40381 0.16662 0.0
C482 C 0.43382 0.37008 0.17282 0.0
C483 C 0.42483 0.35571 0.21492 0.0
C484 C 0.41304 0.3749 0.25065 0.0
H485 H 0.49301 0.45337 0.1988 0.0
C486 C 0.48032 0.46912 0.16904 0.0
H487 H 0.42965 0.49058 0.13474 0.0
H488 H 0.36882 0.47335 0.33789 0.0
H489 H 0.36429 0.53205 0.32444 0.0
H490 H 0.38544 0.55755 0.25269 0.0
H491 H 0.41106 0.52455 0.19377 0.0
C492 C 0.4431 0.47387 0.16263 0.0
C493 C 0.42085 0.45837 0.19759 0.0
C494 C 0.40527 0.47792 0.23099 0.0
C495 C 0.39341 0.46323 0.2726 0.0
C496 C 0.37862 0.48336 0.30598 0.0
C497 C 0.37577 0.51702 0.2986 0.0
C498 C 0.38766 0.53139 0.25818 0.0
C499 C 0.40238 0.51219 0.22471 0.0
H500 H 0.13522 0.84033 0.8671 0.0
C501 C 0.13425 0.8603 0.89213 0.0
H502 H 0.11645 0.90902 0.89874 0.0
H503 H 0.1178 0.92059 0.6667 0.0
H504 H 0.18414 0.907 0.68356 0.0
H505 H 0.21278 0.8881 0.76515 0.0
H506 H 0.17555 0.88204 0.82984 0.0
C507 C 0.11725 0.88832 0.87514 0.0
C508 C 0.09981 0.89339 0.82352 0.0
C509 C 0.12247 0.89709 0.78637 0.0
C510 C 0.10639 0.90927 0.73982 0.0
C511 C 0.12916 0.91234 0.70299 0.0
C512 C 0.16709 0.9045 0.71214 0.0
C513 C 0.18318 0.89377 0.75804 0.0
C514 C 0.16135 0.89024 0.79491 0.0
H515 H 0.09272 0.97798 0.72098 0.0
C516 C 0.07029 0.97245 0.69165 0.0
H517 H 0.03132 0.93667 0.66355 0.0
H518 H 0.04745 0.88316 0.88303 0.0
H519 H 0.98081 0.89502 0.86429 0.0
H520 H 0.95367 0.91796 0.78437 0.0
H521 H 0.9929 0.92915 0.7227 0.0
C522 C 0.05522 0.94253 0.69041 0.0
C523 C 0.06837 0.91921 0.73114 0.0
C524 C 0.04498 0.91221 0.76631 0.0
C525 C 0.06074 0.89929 0.81257 0.0
C526 C 0.03691 0.89328 0.84754 0.0
C527 C 0.99867 0.89989 0.83718 0.0
C528 C 0.98337 0.91279 0.79217 0.0
C529 C 0.00617 0.91911 0.7571 0.0
loop_
_geom_bond_atom_site_label_1
_geom_bond_atom_site_label_2
_geom_bond_distance
_geom_bond_site_symmetry_2
_ccdc_geom_bond_type
P0 O11 1.490 . S
P0 C14 1.812 . S
P0 C20 1.803 . S
P0 C26 1.819 . S
H1 C15 0.941 . S
H2 C16 0.939 . S
H3 C18 0.940 . S
H4 C19 0.940 . S
H5 C21 0.939 . S
H6 C22 0.942 . S
H7 C24 0.940 . S
H8 C25 0.939 . S
H9 C27 0.941 . S
H10 C31 0.939 . S
O11 P0 1.490 . S
H12 C28 0.939 . S
H13 C30 0.940 . S
C14 P0 1.812 . S
C14 C15 1.389 . S
C14 C19 1.391 . S
C15 H1 0.941 . S
C15 C14 1.389 . S
C15 C16 1.397 . S
C16 H2 0.939 . S
C16 C15 1.397 . S
C16 C17 1.378 . S
C17 C16 1.378 . S
C17 C18 1.378 . S
C18 H3 0.940 . S
C18 C17 1.378 . S
C18 C19 1.396 . S
C19 H4 0.940 . S
C19 C14 1.391 . S
C19 C18 1.396 . S
C20 P0 1.803 . S
C20 C21 1.378 . S
C20 C25 1.400 . S
C21 H5 0.939 . S
C21 C20 1.378 . S
C21 C22 1.361 . S
C22 H6 0.942 . S
C22 C21 1.361 . S
C22 C23 1.369 . S
C23 C22 1.369 . S
C23 C24 1.404 . S
C24 H7 0.940 . S
C24 C23 1.404 . S
C24 C25 1.389 . S
C25 H8 0.939 . S
C25 C20 1.400 . S
C25 C24 1.389 . S
C26 P0 1.819 . S
C26 C27 1.391 . S
C26 C31 1.391 . S
C27 H9 0.941 . S
C27 C26 1.391 . S
C27 C28 1.396 1_554 S
C28 H12 0.939 . S
C28 C27 1.396 1_556 S
C28 C29 1.397 . S
C29 C28 1.397 . S
C29 C30 1.385 . S
C30 H13 0.940 . S
C30 C29 1.385 . S
C30 C31 1.388 1_556 S
C31 H10 0.939 . S
C31 C26 1.391 . S
C31 C30 1.388 1_554 S
P32 O43 1.490 . S
P32 C46 1.812 . S
P32 C52 1.803 . S
P32 C58 1.819 . S
H33 C47 0.941 . S
H34 C48 0.939 . S
H35 C50 0.940 . S
H36 C51 0.940 . S
H37 C53 0.939 . S
H38 C54 0.942 . S
H39 C56 0.940 . S
H40 C57 0.939 . S
H41 C59 0.941 . S
H42 C63 0.939 . S
O43 P32 1.490 . S
H44 C60 0.939 . S
H45 C62 0.940 . S
C46 P32 1.812 . S
C46 C47 1.389 . S
C46 C51 1.391 . S
C47 H33 0.941 . S
C47 C46 1.389 . S
C47 C48 1.397 . S
C48 H34 0.939 . S
C48 C47 1.397 . S
C48 C49 1.378 . S
C49 C48 1.378 . S
C49 C50 1.378 . S
C50 H35 0.940 . S
C50 C49 1.378 . S
C50 C51 1.396 . S
C51 H36 0.940 . S
C51 C46 1.391 . S
C51 C50 1.396 . S
C52 P32 1.803 . S
C52 C53 1.378 . S
C52 C57 1.400 . S
C53 H37 0.939 . S
C53 C52 1.378 . S
C53 C54 1.361 . S
C54 H38 0.942 . S
C54 C53 1.361 . S
C54 C55 1.369 . S
C55 C54 1.369 . S
C55 C56 1.404 . S
C56 H39 0.940 . S
C56 C55 1.404 . S
C56 C57 1.389 . S
C57 H40 0.939 . S
C57 C52 1.400 . S
C57 C56 1.389 . S
C58 P32 1.819 . S
C58 C59 1.391 . S
C58 C63 1.391 . S
C59 H41 0.941 . S
C59 C58 1.391 . S
C59 C60 1.396 . S
C60 H44 0.939 . S
C60 C59 1.396 . S
C60 C61 1.397 . S
C61 C60 1.397 . S
C61 C62 1.385 . S
C62 H45 0.940 . S
C62 C61 1.385 . S
C62 C63 1.388 . S
C63 H42 0.939 . S
C63 C58 1.391 . S
C63 C62 1.388 . S
P64 O75 1.490 . S
P64 C78 1.812 1_554 S
P64 C84 1.803 1_554 S
P64 C90 1.819 . S
H65 C79 0.941 . S
H66 C80 0.939 . S
H67 C82 0.940 . S
H68 C83 0.940 . S
H69 C85 0.939 . S
H70 C86 0.942 . S
H71 C88 0.940 . S
H72 C89 0.939 . S
H73 C91 0.941 . S
H74 C95 0.939 . S
O75 P64 1.490 . S
H76 C92 0.939 . S
H77 C94 0.940 . S
C78 P64 1.812 1_556 S
C78 C79 1.389 . S
C78 C83 1.391 . S
C79 H65 0.941 . S
C79 C78 1.389 . S
C79 C80 1.397 . S
C80 H66 0.939 . S
C80 C79 1.397 . S
C80 C81 1.378 . S
C81 C80 1.378 . S
C81 C82 1.378 . S
C82 H67 0.940 . S
C82 C81 1.378 . S
C82 C83 1.396 . S
C83 H68 0.940 . S
C83 C78 1.391 . S
C83 C82 1.396 . S
C84 P64 1.803 1_556 S
C84 C85 1.378 1_556 S
C84 C89 1.400 . S
C85 H69 0.939 . S
C85 C84 1.378 1_554 S
C85 C86 1.361 . S
C86 H70 0.942 . S
C86 C85 1.361 . S
C86 C87 1.369 1_554 S
C87 C86 1.369 1_556 S
C87 C88 1.404 . S
C88 H71 0.940 . S
C88 C87 1.404 . S
C88 C89 1.389 . S
C89 H72 0.939 . S
C89 C84 1.400 . S
C89 C88 1.389 . S
C90 P64 1.819 . S
C90 C91 1.391 . S
C90 C95 1.391 . S
C91 H73 0.941 . S
C91 C90 1.391 . S
C91 C92 1.396 . S
C92 H76 0.939 . S
C92 C91 1.396 . S
C92 C93 1.397 . S
C93 C92 1.397 . S
C93 C94 1.385 . S
C94 H77 0.940 . S
C94 C93 1.385 . S
C94 C95 1.388 . S
C95 H74 0.939 . S
C95 C90 1.391 . S
C95 C94 1.388 . S
P96 O107 1.490 . S
P96 C110 1.812 . S
P96 C116 1.803 . S
P96 C122 1.819 . S
H97 C111 0.941 . S
H98 C112 0.939 . S
H99 C114 0.940 . S
H100 C115 0.940 . S
H101 C117 0.939 . S
H102 C118 0.942 . S
H103 C120 0.940 . S
H104 C121 0.939 . S
H105 C123 0.941 . S
H106 C127 0.939 . S
O107 P96 1.490 . S
H108 C124 0.939 . S
H109 C126 0.940 . S
C110 P96 1.812 . S
C110 C111 1.389 . S
C110 C115 1.391 . S
C111 H97 0.941 . S
C111 C110 1.389 . S
C111 C112 1.397 . S
C112 H98 0.939 . S
C112 C111 1.397 . S
C112 C113 1.378 . S
C113 C112 1.378 . S
C113 C114 1.378 . S
C114 H99 0.940 . S
C114 C113 1.378 . S
C114 C115 1.396 . S
C115 H100 0.940 . S
C115 C110 1.391 . S
C115 C114 1.396 . S
C116 P96 1.803 . S
C116 C117 1.378 . S
C116 C121 1.400 . S
C117 H101 0.939 . S
C117 C116 1.378 . S
C117 C118 1.361 . S
C118 H102 0.942 . S
C118 C117 1.361 . S
C118 C119 1.369 . S
C119 C118 1.369 . S
C119 C120 1.404 . S
C120 H103 0.940 . S
C120 C119 1.404 . S
C120 C121 1.389 . S
C121 H104 0.939 . S
C121 C116 1.400 . S
C121 C120 1.389 . S
C122 P96 1.819 . S
C122 C123 1.391 . S
C122 C127 1.391 . S
C123 H105 0.941 . S
C123 C122 1.391 . S
C123 C124 1.396 . S
C124 H108 0.939 . S
C124 C123 1.396 . S
C124 C125 1.397 . S
C125 C124 1.397 . S
C125 C126 1.385 . S
C126 H109 0.940 . S
C126 C125 1.385 . S
C126 C127 1.388 . S
C127 H106 0.939 . S
C127 C122 1.391 . S
C127 C126 1.388 . S
O128 Mn129 2.163 1_655 S
O128 C142 1.244 . S
Mn129 O128 2.163 1_455 S
Mn129 O132 2.160 1_545 S
Mn129 O133 2.221 . S
Mn129 O135 2.163 1_455 S
Mn129 O137 2.160 1_545 S
Mn129 O147 2.221 1_445 S
O130 Mn131 2.087 1_545 S
O130 C142 1.256 . S
Mn131 O130 2.087 1_565 S
Mn131 O138 2.089 1_655 S
Mn131 O147 2.290 . S
Mn131 O148 2.251 . S
O132 Mn129 2.160 1_565 S
O132 C143 1.239 . S
O133 Mn129 2.221 . S
O133 Mn134 2.290 . S
O133 C144 1.278 . S
Mn134 O133 2.290 . S
Mn134 O136 2.089 . S
Mn134 O139 2.251 . S
Mn134 O140 2.087 1_455 S
O135 Mn129 2.163 1_655 S
O135 C145 1.244 . S
O136 Mn134 2.089 . S
O136 C143 1.256 1_545 S
O137 Mn129 2.160 1_565 S
O137 C146 1.239 . S
O138 Mn131 2.089 1_455 S
O138 C146 1.256 . S
O139 Mn134 2.251 . S
O139 C144 1.241 . S
O140 Mn134 2.087 1_655 S
O140 C145 1.256 . S
C141 O147 1.278 . S
C141 O148 1.241 . S
C142 O128 1.244 . S
C142 O130 1.256 . S
C143 O132 1.239 . S
C143 O136 1.256 1_565 S
C144 O133 1.278 . S
C144 O139 1.241 . S
C145 O135 1.244 . S
C145 O140 1.256 . S
C146 O137 1.239 . S
C146 O138 1.256 . S
O147 Mn129 2.221 1_665 S
O147 Mn131 2.290 . S
O147 C141 1.278 . S
O148 Mn131 2.251 . S
O148 C141 1.241 . S
O149 Mn150 2.163 . S
O149 C163 1.244 . S
Mn150 O149 2.163 . S
Mn150 O153 2.160 1_554 S
Mn150 O154 2.221 . S
Mn150 O156 2.163 1_554 S
Mn150 O158 2.160 . S
Mn150 O168 2.221 . S
O151 Mn152 2.087 . S
O151 C163 1.256 . S
Mn152 O151 2.087 . S
Mn152 O159 2.089 . S
Mn152 O168 2.290 . S
Mn152 O169 2.251 . S
O153 Mn150 2.160 1_556 S
O153 C164 1.239 . S
O154 Mn150 2.221 . S
O154 Mn155 2.290 1_554 S
O154 C165 1.278 . S
Mn155 O154 2.290 1_556 S
Mn155 O157 2.089 . S
Mn155 O160 2.251 . S
Mn155 O161 2.087 . S
O156 Mn150 2.163 1_556 S
O156 C166 1.244 . S
O157 Mn155 2.089 . S
O157 C164 1.256 . S
O158 Mn150 2.160 . S
O158 C167 1.239 . S
O159 Mn152 2.089 . S
O159 C167 1.256 . S
O160 Mn155 2.251 . S
O160 C165 1.241 1_556 S
O161 Mn155 2.087 . S
O161 C166 1.256 . S
C162 O168 1.278 . S
C162 O169 1.241 . S
C163 O149 1.244 . S
C163 O151 1.256 . S
C164 O153 1.239 . S
C164 O157 1.256 . S
C165 O154 1.278 . S
C165 O160 1.241 1_554 S
C166 O156 1.244 . S
C166 O161 1.256 . S
C167 O158 1.239 . S
C167 O159 1.256 . S
O168 Mn150 2.221 . S
O168 Mn152 2.290 . S
O168 C162 1.278 . S
O169 Mn152 2.251 . S
O169 C162 1.241 . S
H170 C171 0.951 . S
C171 H170 0.951 . S
C171 C177 1.265 . S
H172 C177 0.950 . S
H173 C181 0.949 . S
H174 C182 0.950 . S
H175 C183 0.951 . S
H176 C184 0.951 . S
C177 C171 1.265 . S
C177 H172 0.950 . S
C177 C178 1.478 . S
C178 C177 1.478 . S
C178 C179 1.397 . S
C178 C195 1.394 . S
C179 C178 1.397 . S
C179 C180 1.438 . S
C179 C184 1.429 . S
C180 C179 1.438 . S
C180 C181 1.428 . S
C180 C193 1.394 . S
C181 H173 0.949 . S
C181 C180 1.428 . S
C181 C182 1.345 . S
C182 H174 0.950 . S
C182 C181 1.345 . S
C182 C183 1.424 . S
C183 H175 0.951 . S
C183 C182 1.424 . S
C183 C184 1.347 . S
C184 H176 0.951 . S
C184 C179 1.429 . S
C184 C183 1.347 . S
H185 C186 0.951 . S
C186 H185 0.951 . S
C186 C192 1.265 . S
H187 C192 0.950 . S
H188 C196 0.949 . S
H189 C197 0.950 . S
H190 C198 0.951 . S
H191 C199 0.951 . S
C192 C186 1.265 . S
C192 H187 0.950 . S
C192 C193 1.478 . S
C193 C180 1.394 . S
C193 C192 1.478 . S
C193 C194 1.397 . S
C194 C193 1.397 . S
C194 C195 1.438 . S
C194 C199 1.429 . S
C195 C178 1.394 . S
C195 C194 1.438 . S
C195 C196 1.428 . S
C196 H188 0.949 . S
C196 C195 1.428 . S
C196 C197 1.345 . S
C197 H189 0.950 . S
C197 C196 1.345 . S
C197 C198 1.424 . S
C198 H190 0.951 . S
C198 C197 1.424 . S
C198 C199 1.347 . S
C199 H191 0.951 . S
C199 C194 1.429 . S
C199 C198 1.347 . S
H200 C201 0.951 . S
C201 H200 0.951 . S
C201 C207 1.265 . S
H202 C207 0.950 . S
H203 C211 0.949 . S
H204 C212 0.950 . S
H205 C213 0.951 . S
H206 C214 0.951 . S
C207 C201 1.265 . S
C207 H202 0.950 . S
C207 C208 1.478 . S
C208 C207 1.478 . S
C208 C209 1.397 . S
C208 C225 1.394 . S
C209 C208 1.397 . S
C209 C210 1.438 . S
C209 C214 1.429 . S
C210 C209 1.438 . S
C210 C211 1.428 . S
C210 C223 1.394 . S
C211 H203 0.949 . S
C211 C210 1.428 . S
C211 C212 1.345 . S
C212 H204 0.950 . S
C212 C211 1.345 . S
C212 C213 1.424 . S
C213 H205 0.951 . S
C213 C212 1.424 . S
C213 C214 1.347 . S
C214 H206 0.951 . S
C214 C209 1.429 . S
C214 C213 1.347 . S
H215 C216 0.951 . S
C216 H215 0.951 . S
C216 C222 1.265 . S
H217 C222 0.950 . S
H218 C226 0.949 1_554 S
H219 C227 0.950 . S
H220 C228 0.951 . S
H221 C229 0.951 . S
C222 C216 1.265 . S
C222 H217 0.950 . S
C222 C223 1.478 . S
C223 C210 1.394 . S
C223 C222 1.478 . S
C223 C224 1.397 . S
C224 C223 1.397 . S
C224 C225 1.438 . S
C224 C229 1.429 1_554 S
C225 C208 1.394 . S
C225 C224 1.438 . S
C225 C226 1.428 1_554 S
C226 H218 0.949 1_556 S
C226 C225 1.428 1_556 S
C226 C227 1.345 . S
C227 H219 0.950 . S
C227 C226 1.345 . S
C227 C228 1.424 . S
C228 H220 0.951 . S
C228 C227 1.424 . S
C228 C229 1.347 . S
C229 H221 0.951 . S
C229 C224 1.429 1_556 S
C229 C228 1.347 . S
H230 C231 0.951 . S
C231 H230 0.951 . S
C231 C237 1.265 . S
H232 C237 0.950 . S
H233 C241 0.949 . S
H234 C242 0.950 . S
H235 C243 0.951 . S
H236 C244 0.951 . S
C237 C231 1.265 . S
C237 H232 0.950 . S
C237 C238 1.478 . S
C238 C237 1.478 . S
C238 C239 1.397 . S
C238 C255 1.394 . S
C239 C238 1.397 . S
C239 C240 1.438 . S
C239 C244 1.429 . S
C240 C239 1.438 . S
C240 C241 1.428 . S
C240 C253 1.394 . S
C241 H233 0.949 . S
C241 C240 1.428 . S
C241 C242 1.345 . S
C242 H234 0.950 . S
C242 C241 1.345 . S
C242 C243 1.424 . S
C243 H235 0.951 . S
C243 C242 1.424 . S
C243 C244 1.347 . S
C244 H236 0.951 . S
C244 C239 1.429 . S
C244 C243 1.347 . S
H245 C246 0.951 . S
C246 H245 0.951 . S
C246 C252 1.265 . S
H247 C252 0.950 . S
H248 C256 0.949 . S
H249 C257 0.950 . S
H250 C258 0.951 . S
H251 C259 0.951 . S
C252 C246 1.265 . S
C252 H247 0.950 . S
C252 C253 1.478 . S
C253 C240 1.394 . S
C253 C252 1.478 . S
C253 C254 1.397 . S
C254 C253 1.397 . S
C254 C255 1.438 . S
C254 C259 1.429 . S
C255 C238 1.394 . S
C255 C254 1.438 . S
C255 C256 1.428 . S
C256 H248 0.949 . S
C256 C255 1.428 . S
C256 C257 1.345 . S
C257 H249 0.950 . S
C257 C256 1.345 . S
C257 C258 1.424 . S
C258 H250 0.951 . S
C258 C257 1.424 . S
C258 C259 1.347 . S
C259 H251 0.951 . S
C259 C254 1.429 . S
C259 C258 1.347 . S
H260 C261 0.950 . S
C261 H260 0.950 . S
C261 C267 1.265 1_554 S
H262 C267 0.950 . S
H263 C271 0.949 . S
H264 C272 0.950 . S
H265 C273 0.951 . S
H266 C274 0.951 . S
C267 C261 1.265 1_556 S
C267 H262 0.950 . S
C267 C268 1.478 1_556 S
C268 C267 1.478 1_554 S
C268 C269 1.397 1_554 S
C268 C285 1.394 . S
C269 C268 1.397 1_556 S
C269 C270 1.438 . S
C269 C274 1.429 . S
C270 C269 1.438 . S
C270 C271 1.428 . S
C270 C283 1.394 1_556 S
C271 H263 0.949 . S
C271 C270 1.428 . S
C271 C272 1.345 . S
C272 H264 0.950 . S
C272 C271 1.345 . S
C272 C273 1.424 . S
C273 H265 0.951 . S
C273 C272 1.424 . S
C273 C274 1.347 . S
C274 H266 0.951 . S
C274 C269 1.429 . S
C274 C273 1.347 . S
H275 C276 0.951 . S
C276 H275 0.951 . S
C276 C282 1.265 . S
H277 C282 0.950 . S
H278 C286 0.949 . S
H279 C287 0.950 . S
H280 C288 0.951 . S
H281 C289 0.951 . S
C282 C276 1.265 . S
C282 H277 0.950 . S
C282 C283 1.478 . S
C283 C270 1.394 1_554 S
C283 C282 1.478 . S
C283 C284 1.397 . S
C284 C283 1.397 . S
C284 C285 1.438 . S
C284 C289 1.429 . S
C285 C268 1.394 . S
C285 C284 1.438 . S
C285 C286 1.428 . S
C286 H278 0.949 . S
C286 C285 1.428 . S
C286 C287 1.345 . S
C287 H279 0.950 . S
C287 C286 1.345 . S
C287 C288 1.424 . S
C288 H280 0.951 . S
C288 C287 1.424 . S
C288 C289 1.347 . S
C289 H281 0.951 . S
C289 C284 1.429 . S
C289 C288 1.347 . S
H290 C291 0.951 . S
C291 H290 0.951 . S
C291 C297 1.265 . S
H292 C297 0.950 . S
H293 C301 0.949 . S
H294 C302 0.950 1_545 S
H295 C303 0.951 1_545 S
H296 C304 0.951 . S
C297 C291 1.265 . S
C297 H292 0.950 . S
C297 C298 1.478 . S
C298 C297 1.478 . S
C298 C299 1.397 . S
C298 C315 1.394 . S
C299 C298 1.397 . S
C299 C300 1.438 . S
C299 C304 1.429 . S
C300 C299 1.438 . S
C300 C301 1.428 . S
C300 C313 1.394 . S
C301 H293 0.949 . S
C301 C300 1.428 . S
C301 C302 1.345 . S
C302 H294 0.950 1_565 S
C302 C301 1.345 . S
C302 C303 1.424 . S
C303 H295 0.951 1_565 S
C303 C302 1.424 . S
C303 C304 1.347 . S
C304 H296 0.951 . S
C304 C299 1.429 . S
C304 C303 1.347 . S
H305 C306 0.951 1_545 S
C306 H305 0.951 1_565 S
C306 C312 1.265 . S
H307 C312 0.950 . S
H308 C316 0.949 . S
H309 C317 0.950 . S
H310 C318 0.951 . S
H311 C319 0.951 . S
C312 C306 1.265 . S
C312 H307 0.950 . S
C312 C313 1.478 . S
C313 C300 1.394 . S
C313 C312 1.478 . S
C313 C314 1.397 . S
C314 C313 1.397 . S
C314 C315 1.438 . S
C314 C319 1.429 . S
C315 C298 1.394 . S
C315 C314 1.438 . S
C315 C316 1.428 . S
C316 H308 0.949 . S
C316 C315 1.428 . S
C316 C317 1.345 . S
C317 H309 0.950 . S
C317 C316 1.345 . S
C317 C318 1.424 . S
C318 H310 0.951 . S
C318 C317 1.424 . S
C318 C319 1.347 . S
C319 H311 0.951 . S
C319 C314 1.429 . S
C319 C318 1.347 . S
H320 C321 0.951 . S
C321 H320 0.951 . S
C321 C327 1.265 . S
H322 C327 0.950 . S
H323 C331 0.949 . S
H324 C332 0.950 . S
H325 C333 0.951 . S
H326 C334 0.951 . S
C327 C321 1.265 . S
C327 H322 0.950 . S
C327 C328 1.478 . S
C328 C327 1.478 . S
C328 C329 1.397 . S
C328 C345 1.394 . S
C329 C328 1.397 . S
C329 C330 1.438 . S
C329 C334 1.429 . S
C330 C329 1.438 . S
C330 C331 1.428 . S
C330 C343 1.394 . S
C331 H323 0.949 . S
C331 C330 1.428 . S
C331 C332 1.345 . S
C332 H324 0.950 . S
C332 C331 1.345 . S
C332 C333 1.424 . S
C333 H325 0.951 . S
C333 C332 1.424 . S
C333 C334 1.347 . S
C334 H326 0.951 . S
C334 C329 1.429 . S
C334 C333 1.347 . S
H335 C336 0.951 . S
C336 H335 0.951 . S
C336 C342 1.265 . S
H337 C342 0.950 . S
H338 C346 0.949 . S
H339 C347 0.950 . S
H340 C348 0.951 . S
H341 C349 0.951 . S
C342 C336 1.265 . S
C342 H337 0.950 . S
C342 C343 1.478 . S
C343 C330 1.394 . S
C343 C342 1.478 . S
C343 C344 1.397 . S
C344 C343 1.397 . S
C344 C345 1.438 . S
C344 C349 1.429 . S
C345 C328 1.394 . S
C345 C344 1.438 . S
C345 C346 1.428 . S
C346 H338 0.949 . S
C346 C345 1.428 . S
C346 C347 1.345 . S
C347 H339 0.950 . S
C347 C346 1.345 . S
C347 C348 1.424 . S
C348 H340 0.951 . S
C348 C347 1.424 . S
C348 C349 1.347 . S
C349 H341 0.951 . S
C349 C344 1.429 . S
C349 C348 1.347 . S
H350 C351 0.951 . S
C351 H350 0.951 . S
C351 C357 1.265 . S
H352 C357 0.950 . S
H353 C361 0.949 . S
H354 C362 0.950 . S
H355 C363 0.951 . S
H356 C364 0.951 . S
C357 C351 1.265 . S
C357 H352 0.950 . S
C357 C358 1.478 . S
C358 C357 1.478 . S
C358 C359 1.397 . S
C358 C375 1.394 . S
C359 C358 1.397 . S
C359 C360 1.438 . S
C359 C364 1.429 . S
C360 C359 1.438 . S
C360 C361 1.428 . S
C360 C373 1.394 . S
C361 H353 0.949 . S
C361 C360 1.428 . S
C361 C362 1.345 . S
C362 H354 0.950 . S
C362 C361 1.345 . S
C362 C363 1.424 . S
C363 H355 0.951 . S
C363 C362 1.424 . S
C363 C364 1.347 . S
C364 H356 0.951 . S
C364 C359 1.429 . S
C364 C363 1.347 . S
H365 C366 0.951 . S
C366 H365 0.951 . S
C366 C372 1.265 . S
H367 C372 0.950 . S
H368 C376 0.949 . S
H369 C377 0.957 . S
H370 C378 0.951 . S
H371 C379 0.951 . S
C372 C366 1.265 . S
C372 H367 0.950 . S
C372 C373 1.478 . S
C373 C360 1.394 . S
C373 C372 1.478 . S
C373 C374 1.397 . S
C374 C373 1.397 . S
C374 C375 1.438 . S
C374 C379 1.429 . S
C375 C358 1.394 . S
C375 C374 1.438 . S
C375 C376 1.428 . S
C376 H368 0.949 . S
C376 C375 1.428 . S
C376 C377 1.334 1_545 S
C377 H369 0.957 . S
C377 C376 1.334 1_565 S
C377 C378 1.428 . S
C378 H370 0.951 . S
C378 C377 1.428 . S
C378 C379 1.347 1_565 S
C379 H371 0.951 . S
C379 C374 1.429 . S
C379 C378 1.347 1_545 S
H380 C381 0.951 . S
C381 H380 0.951 . S
C381 C387 1.265 . S
H382 C387 0.950 . S
H383 C391 0.949 . S
H384 C392 0.950 . S
H385 C393 0.951 . S
H386 C394 0.951 . S
C387 C381 1.265 . S
C387 H382 0.950 . S
C387 C388 1.478 . S
C388 C387 1.478 . S
C388 C389 1.397 . S
C388 C405 1.394 . S
C389 C388 1.397 . S
C389 C390 1.438 . S
C389 C394 1.429 . S
C390 C389 1.438 . S
C390 C391 1.428 . S
C390 C403 1.394 . S
C391 H383 0.949 . S
C391 C390 1.428 . S
C391 C392 1.345 . S
C392 H384 0.950 . S
C392 C391 1.345 . S
C392 C393 1.424 . S
C393 H385 0.951 . S
C393 C392 1.424 . S
C393 C394 1.347 . S
C394 H386 0.951 . S
C394 C389 1.429 . S
C394 C393 1.347 . S
H395 C396 0.951 . S
C396 H395 0.951 . S
C396 C402 1.265 . S
H397 C402 0.950 . S
H398 C406 0.949 . S
H399 C407 0.950 . S
H400 C408 0.951 . S
H401 C409 0.951 . S
C402 C396 1.265 . S
C402 H397 0.950 . S
C402 C403 1.478 . S
C403 C390 1.394 . S
C403 C402 1.478 . S
C403 C404 1.397 . S
C404 C403 1.397 . S
C404 C405 1.438 . S
C404 C409 1.429 . S
C405 C388 1.394 . S
C405 C404 1.438 . S
C405 C406 1.428 . S
C406 H398 0.949 . S
C406 C405 1.428 . S
C406 C407 1.345 . S
C407 H399 0.950 . S
C407 C406 1.345 . S
C407 C408 1.424 . S
C408 H400 0.951 . S
C408 C407 1.424 . S
C408 C409 1.347 . S
C409 H401 0.951 . S
C409 C404 1.429 . S
C409 C408 1.347 . S
H410 C411 0.951 . S
C411 H410 0.951 . S
C411 C417 1.265 . S
H412 C417 0.950 . S
H413 C421 0.949 . S
H414 C422 0.950 . S
H415 C423 0.951 . S
H416 C424 0.951 . S
C417 C411 1.265 . S
C417 H412 0.950 . S
C417 C418 1.478 . S
C418 C417 1.478 . S
C418 C419 1.397 . S
C418 C435 1.394 . S
C419 C418 1.397 . S
C419 C420 1.438 . S
C419 C424 1.429 . S
C420 C419 1.438 . S
C420 C421 1.428 . S
C420 C433 1.394 . S
C421 H413 0.949 . S
C421 C420 1.428 . S
C421 C422 1.345 . S
C422 H414 0.950 . S
C422 C421 1.345 . S
C422 C423 1.424 . S
C423 H415 0.951 . S
C423 C422 1.424 . S
C423 C424 1.347 . S
C424 H416 0.951 . S
C424 C419 1.429 . S
C424 C423 1.347 . S
H425 C426 0.951 . S
C426 H425 0.951 . S
C426 C432 1.265 . S
H427 C432 0.950 . S
H428 C436 0.949 . S
H429 C437 0.950 . S
H430 C438 0.951 . S
H431 C439 0.951 . S
C432 C426 1.265 . S
C432 H427 0.950 . S
C432 C433 1.478 . S
C433 C420 1.394 . S
C433 C432 1.478 . S
C433 C434 1.397 . S
C434 C433 1.397 . S
C434 C435 1.438 . S
C434 C439 1.429 . S
C435 C418 1.394 . S
C435 C434 1.438 . S
C435 C436 1.428 . S
C436 H428 0.949 . S
C436 C435 1.428 . S
C436 C437 1.345 . S
C437 H429 0.950 . S
C437 C436 1.345 . S
C437 C438 1.424 . S
C438 H430 0.951 . S
C438 C437 1.424 . S
C438 C439 1.347 . S
C439 H431 0.951 . S
C439 C434 1.429 . S
C439 C438 1.347 . S
H440 C441 0.951 . S
C441 H440 0.951 . S
C441 C447 1.265 . S
H442 C447 0.950 . S
H443 C451 0.949 . S
H444 C452 0.950 1_565 S
H445 C453 0.951 . S
H446 C454 0.951 . S
C447 C441 1.265 . S
C447 H442 0.950 . S
C447 C448 1.478 . S
C448 C447 1.478 . S
C448 C449 1.397 . S
C448 C465 1.394 . S
C449 C448 1.397 . S
C449 C450 1.438 . S
C449 C454 1.429 . S
C450 C449 1.438 . S
C450 C451 1.428 . S
C450 C463 1.394 . S
C451 H443 0.949 . S
C451 C450 1.428 . S
C451 C452 1.345 . S
C452 H444 0.950 1_545 S
C452 C451 1.345 . S
C452 C453 1.424 . S
C453 H445 0.951 . S
C453 C452 1.424 . S
C453 C454 1.347 . S
C454 H446 0.951 . S
C454 C449 1.429 . S
C454 C453 1.347 . S
H455 C456 0.951 . S
C456 H455 0.951 . S
C456 C462 1.265 . S
H457 C462 0.950 . S
H458 C466 0.949 . S
H459 C467 0.950 . S
H460 C468 0.951 . S
H461 C469 0.951 . S
C462 C456 1.265 . S
C462 H457 0.950 . S
C462 C463 1.478 . S
C463 C450 1.394 . S
C463 C462 1.478 . S
C463 C464 1.397 . S
C464 C463 1.397 . S
C464 C465 1.438 . S
C464 C469 1.429 . S
C465 C448 1.394 . S
C465 C464 1.438 . S
C465 C466 1.428 . S
C466 H458 0.949 . S
C466 C465 1.428 . S
C466 C467 1.345 . S
C467 H459 0.950 . S
C467 C466 1.345 . S
C467 C468 1.424 . S
C468 H460 0.951 . S
C468 C467 1.424 . S
C468 C469 1.347 . S
C469 H461 0.951 . S
C469 C464 1.429 . S
C469 C468 1.347 . S
H470 C471 0.951 . S
C471 H470 0.951 . S
C471 C477 1.265 . S
H472 C477 0.950 . S
H473 C481 0.949 . S
H474 C482 0.950 . S
H475 C483 0.951 . S
H476 C484 0.951 . S
C477 C471 1.265 . S
C477 H472 0.950 . S
C477 C478 1.478 . S
C478 C477 1.478 . S
C478 C479 1.397 . S
C478 C495 1.394 . S
C479 C478 1.397 . S
C479 C480 1.438 . S
C479 C484 1.429 . S
C480 C479 1.438 . S
C480 C481 1.428 . S
C480 C493 1.394 . S
C481 H473 0.949 . S
C481 C480 1.428 . S
C481 C482 1.345 . S
C482 H474 0.950 . S
C482 C481 1.345 . S
C482 C483 1.424 . S
C483 H475 0.951 . S
C483 C482 1.424 . S
C483 C484 1.347 . S
C484 H476 0.951 . S
C484 C479 1.429 . S
C484 C483 1.347 . S
H485 C486 0.951 . S
C486 H485 0.951 . S
C486 C492 1.265 . S
H487 C492 0.950 . S
H488 C496 0.949 . S
H489 C497 0.950 . S
H490 C498 0.951 . S
H491 C499 0.951 . S
C492 C486 1.265 . S
C492 H487 0.950 . S
C492 C493 1.478 . S
C493 C480 1.394 . S
C493 C492 1.478 . S
C493 C494 1.397 . S
C494 C493 1.397 . S
C494 C495 1.438 . S
C494 C499 1.429 . S
C495 C478 1.394 . S
C495 C494 1.438 . S
C495 C496 1.428 . S
C496 H488 0.949 . S
C496 C495 1.428 . S
C496 C497 1.345 . S
C497 H489 0.950 . S
C497 C496 1.345 . S
C497 C498 1.424 . S
C498 H490 0.951 . S
C498 C497 1.424 . S
C498 C499 1.347 . S
C499 H491 0.951 . S
C499 C494 1.429 . S
C499 C498 1.347 . S
H500 C501 0.951 . S
C501 H500 0.951 . S
C501 C507 1.265 . S
H502 C507 0.950 . S
H503 C511 0.949 . S
H504 C512 0.950 . S
H505 C513 0.951 . S
H506 C514 0.951 . S
C507 C501 1.265 . S
C507 H502 0.950 . S
C507 C508 1.478 . S
C508 C507 1.478 . S
C508 C509 1.397 . S
C508 C525 1.394 . S
C509 C508 1.397 . S
C509 C510 1.438 . S
C509 C514 1.429 . S
C510 C509 1.438 . S
C510 C511 1.428 . S
C510 C523 1.394 . S
C511 H503 0.949 . S
C511 C510 1.428 . S
C511 C512 1.345 . S
C512 H504 0.950 . S
C512 C511 1.345 . S
C512 C513 1.424 . S
C513 H505 0.951 . S
C513 C512 1.424 . S
C513 C514 1.347 . S
C514 H506 0.951 . S
C514 C509 1.429 . S
C514 C513 1.347 . S
H515 C516 0.951 . S
C516 H515 0.951 . S
C516 C522 1.265 . S
H517 C522 0.950 . S
H518 C526 0.949 . S
H519 C527 0.950 . S
H520 C528 0.951 . S
H521 C529 0.951 . S
C522 C516 1.265 . S
C522 H517 0.950 . S
C522 C523 1.478 . S
C523 C510 1.394 . S
C523 C522 1.478 . S
C523 C524 1.397 . S
C524 C523 1.397 . S
C524 C525 1.438 . S
C524 C529 1.429 . S
C525 C508 1.394 . S
C525 C524 1.438 . S
C525 C526 1.428 . S
C526 H518 0.949 . S
C526 C525 1.428 . S
C526 C527 1.345 . S
C527 H519 0.950 . S
C527 C526 1.345 . S
C527 C528 1.424 . S
C528 H520 0.951 . S
C528 C527 1.424 . S
C528 C529 1.347 . S
C529 H521 0.951 . S
C529 C524 1.429 . S
C529 C528 1.347 . S
C186 C144 1.316 . S
C171 C119 1.455 . S
C201 C23 1.485 . S
C216 C165 1.328 . S
C231 C55 1.652 . S
C246 C141 1.424 . S
C261 C87 1.608 1_554 S
C276 C162 1.467 . S
C306 C146 1.569 . S
C291 C17 1.590 . S
C336 C166 1.486 . S
C321 C61 1.553 . S
C351 C93 1.508 . S
C366 C142 1.502 . S
C381 C113 1.522 . S
C396 C164 1.549 . S
C426 C163 1.487 . S
C411 C49 1.541 . S
C456 C145 1.486 . S
C441 C81 1.554 . S
C486 C167 1.529 . S
C471 C125 1.526 . S
C501 C29 1.586 . S
C516 C143 1.456 . S
