# Generated by pormake.
# Topology apo, (3,6)-cn, num edge types: 1
# Building blocks:
#     Node 0, Type 0, BuildingBlock: QEWDON_clean_linker_0, # of connection points: 3
#     Node 1, Type 0, BuildingBlock: QEWDON_clean_linker_0, # of connection points: 3
#     Node 2, Type 0, BuildingBlock: QEWDON_clean_linker_0, # of connection points: 3
#     Node 3, Type 0, BuildingBlock: QEWDON_clean_linker_0, # of connection points: 3
#     Node 4, Type 0, BuildingBlock: QEWDON_clean_linker_0, # of connection points: 3
#     Node 5, Type 0, BuildingBlock: QEWDON_clean_linker_0, # of connection points: 3
#     Node 6, Type 0, BuildingBlock: QEWDON_clean_linker_0, # of connection points: 3
#     Node 7, Type 0, BuildingBlock: QEWDON_clean_linker_0, # of connection points: 3
#     Node 8, Type 1, BuildingBlock: KUMBUR_clean_sbu_1, # of connection points: 6
#     Node 9, Type 1, BuildingBlock: KUMBUR_clean_sbu_1, # of connection points: 6
#     Node 10, Type 1, BuildingBlock: KUMBUR_clean_sbu_1, # of connection points: 6
#     Node 11, Type 1, BuildingBlock: KUMBUR_clean_sbu_1, # of connection points: 6
#     Edge 12, Type (0, 1), BuildingBlock: KIFKEQ_clean_linker_1, # of connection points: 2
#     Edge 13, Type (0, 1), BuildingBlock: KIFKEQ_clean_linker_1, # of connection points: 2
#     Edge 14, Type (0, 1), BuildingBlock: KIFKEQ_clean_linker_1, # of connection points: 2
#     Edge 15, Type (0, 1), BuildingBlock: KIFKEQ_clean_linker_1, # of connection points: 2
#     Edge 16, Type (0, 1), BuildingBlock: KIFKEQ_clean_linker_1, # of connection points: 2
#     Edge 17, Type (0, 1), BuildingBlock: KIFKEQ_clean_linker_1, # of connection points: 2
#     Edge 18, Type (0, 1), BuildingBlock: KIFKEQ_clean_linker_1, # of connection points: 2
#     Edge 19, Type (0, 1), BuildingBlock: KIFKEQ_clean_linker_1, # of connection points: 2
#     Edge 20, Type (0, 1), BuildingBlock: KIFKEQ_clean_linker_1, # of connection points: 2
#     Edge 21, Type (0, 1), BuildingBlock: KIFKEQ_clean_linker_1, # of connection points: 2
#     Edge 22, Type (0, 1), BuildingBlock: KIFKEQ_clean_linker_1, # of connection points: 2
#     Edge 23, Type (0, 1), BuildingBlock: KIFKEQ_clean_linker_1, # of connection points: 2
#     Edge 24, Type (0, 1), BuildingBlock: KIFKEQ_clean_linker_1, # of connection points: 2
#     Edge 25, Type (0, 1), BuildingBlock: KIFKEQ_clean_linker_1, # of connection points: 2
#     Edge 26, Type (0, 1), BuildingBlock: KIFKEQ_clean_linker_1, # of connection points: 2
#     Edge 27, Type (0, 1), BuildingBlock: KIFKEQ_clean_linker_1, # of connection points: 2
#     Edge 28, Type (0, 1), BuildingBlock: KIFKEQ_clean_linker_1, # of connection points: 2
#     Edge 29, Type (0, 1), BuildingBlock: KIFKEQ_clean_linker_1, # of connection points: 2
#     Edge 30, Type (0, 1), BuildingBlock: KIFKEQ_clean_linker_1, # of connection points: 2
#     Edge 31, Type (0, 1), BuildingBlock: KIFKEQ_clean_linker_1, # of connection points: 2
#     Edge 32, Type (0, 1), BuildingBlock: KIFKEQ_clean_linker_1, # of connection points: 2
#     Edge 33, Type (0, 1), BuildingBlock: KIFKEQ_clean_linker_1, # of connection points: 2
#     Edge 34, Type (0, 1), BuildingBlock: KIFKEQ_clean_linker_1, # of connection points: 2
#     Edge 35, Type (0, 1), BuildingBlock: KIFKEQ_clean_linker_1, # of connection points: 2
# Relax obj value: 0.074
# Max RMSD: 0.259
# Mean RMSD: 0.206
data_MOF--net-apo--node1-KUMBUR_clean_sbu_1--node2-QEWDON_clean_linker_0--edge1-KIFKEQ_clean_linker_1
_symmetry_space_group_name_H-M    P1
_symmetry_Int_Tables_number       1
_symmetry_cell_setting            triclinic
loop_
_symmetry_equiv_pos_as_xyz
'x, y, z'
_cell_length_a     30.487186
_cell_length_b     43.975613
_cell_length_c     52.219619
_cell_angle_alpha  89.956571
_cell_angle_beta   89.906148
_cell_angle_gamma 90.253573
loop_
_atom_site_label
_atom_site_type_symbol
_atom_site_fract_x
_atom_site_fract_y
_atom_site_fract_z
_atom_type_partial_charge
H0 H 0.27913 0.41137 0.38321 0.0
C1 C 0.29192 0.41007 0.40254 0.0
C2 C 0.32762 0.42862 0.40973 0.0
C3 C 0.27005 0.39205 0.42082 0.0
H4 H 0.36895 0.44286 0.44097 0.0
C5 C 0.34213 0.42809 0.43534 0.0
C6 C 0.32126 0.40971 0.45387 0.0
C7 C 0.28531 0.39167 0.44624 0.0
C8 C 0.22655 0.37851 0.41491 0.0
H9 H 0.26808 0.37783 0.46022 0.0
C10 C 0.22088 0.35495 0.39678 0.0
C11 C 0.17838 0.34354 0.39152 0.0
C12 C 0.18968 0.39018 0.42766 0.0
H13 H 0.19326 0.4083 0.44157 0.0
C14 C 0.14785 0.37905 0.42237 0.0
H15 H 0.24908 0.34566 0.38691 0.0
C16 C 0.14217 0.356 0.40441 0.0
H17 H 0.10932 0.34752 0.40081 0.0
H18 H 0.1197 0.38833 0.43225 0.0
H19 H 0.23332 0.118 0.87878 0.0
C20 C 0.21887 0.1187 0.89775 0.0
C21 C 0.18279 0.09986 0.90355 0.0
C22 C 0.23892 0.13615 0.91708 0.0
H23 H 0.1372 0.08563 0.93261 0.0
C24 C 0.16551 0.09981 0.92851 0.0
C25 C 0.1848 0.11718 0.94815 0.0
C26 C 0.22157 0.13534 0.94212 0.0
C27 C 0.28224 0.1508 0.9125 0.0
H28 H 0.23823 0.14781 0.95715 0.0
C29 C 0.28861 0.1736 0.89373 0.0
C30 C 0.33081 0.18618 0.88973 0.0
C31 C 0.31823 0.14102 0.92709 0.0
H32 H 0.31421 0.12345 0.94148 0.0
C33 C 0.35983 0.15331 0.92301 0.0
H34 H 0.26113 0.18145 0.88241 0.0
C35 C 0.36617 0.17564 0.90444 0.0
H36 H 0.39877 0.18504 0.90172 0.0
H37 H 0.38731 0.14548 0.9343 0.0
H38 H 0.77035 0.1208 0.65941 0.0
C39 C 0.78586 0.12448 0.64096 0.0
C40 C 0.82345 0.10785 0.63431 0.0
C41 C 0.76597 0.14371 0.62296 0.0
H42 H 0.87012 0.09792 0.60453 0.0
C43 C 0.84185 0.11143 0.60974 0.0
C44 C 0.82316 0.13132 0.59169 0.0
C45 C 0.78513 0.1474 0.59865 0.0
C46 C 0.72147 0.15585 0.62769 0.0
H47 H 0.76959 0.16249 0.58503 0.0
C48 C 0.71305 0.17761 0.6469 0.0
C49 C 0.66993 0.18827 0.65088 0.0
C50 C 0.68672 0.14499 0.6126 0.0
H51 H 0.69254 0.12823 0.59778 0.0
C52 C 0.64414 0.15529 0.61663 0.0
H53 H 0.73976 0.18619 0.65853 0.0
C54 C 0.63572 0.17673 0.63562 0.0
H55 H 0.60243 0.18476 0.63805 0.0
H56 H 0.61758 0.14673 0.60491 0.0
H57 H 0.74283 0.40182 0.15806 0.0
C58 C 0.72631 0.39702 0.14013 0.0
C59 C 0.688 0.41292 0.13374 0.0
C60 C 0.7451 0.37665 0.12261 0.0
H61 H 0.6389 0.42067 0.10482 0.0
C62 C 0.66808 0.408 0.10985 0.0
C63 C 0.686 0.38716 0.09233 0.0
C64 C 0.72454 0.37157 0.09892 0.0
C65 C 0.78989 0.36497 0.12696 0.0
H66 H 0.73984 0.35656 0.0851 0.0
C67 C 0.79881 0.34243 0.14544 0.0
C68 C 0.84231 0.33264 0.14943 0.0
C69 C 0.82446 0.37731 0.11247 0.0
H70 H 0.81819 0.39466 0.0982 0.0
C71 C 0.86742 0.36776 0.11648 0.0
H72 H 0.77224 0.33272 0.15662 0.0
C73 C 0.87637 0.34568 0.13488 0.0
H74 H 0.90998 0.33839 0.13747 0.0
H75 H 0.89388 0.3775 0.10528 0.0
H76 H 0.68688 0.64105 0.66221 0.0
C77 C 0.68415 0.63535 0.64208 0.0
C78 C 0.66961 0.60618 0.63477 0.0
C79 C 0.69297 0.65766 0.62346 0.0
H80 H 0.65019 0.57778 0.60324 0.0
C81 C 0.66388 0.59963 0.6086 0.0
C82 C 0.67255 0.62161 0.5896 0.0
C83 C 0.68805 0.65037 0.59738 0.0
C84 C 0.70011 0.68991 0.63091 0.0
H85 H 0.69521 0.6677 0.58321 0.0
C86 C 0.73493 0.69926 0.64699 0.0
C87 C 0.7396 0.73026 0.65369 0.0
C88 C 0.67053 0.71175 0.62169 0.0
H89 H 0.64342 0.70512 0.60947 0.0
C90 C 0.67509 0.74223 0.62833 0.0
H91 H 0.75804 0.68267 0.65418 0.0
C92 C 0.70925 0.75144 0.64421 0.0
H93 H 0.7123 0.77537 0.64887 0.0
H94 H 0.65204 0.7588 0.62113 0.0
H95 H 0.82738 0.88364 0.16129 0.0
C96 C 0.83167 0.88926 0.14123 0.0
C97 C 0.84874 0.91799 0.13417 0.0
C98 C 0.82229 0.86716 0.12247 0.0
H99 H 0.87079 0.94571 0.10236 0.0
C100 C 0.85611 0.92424 0.10804 0.0
C101 C 0.84637 0.9026 0.08914 0.0
C102 C 0.82888 0.87436 0.09646 0.0
C103 C 0.81285 0.83508 0.1298 0.0
H104 H 0.82271 0.85725 0.08193 0.0
C105 C 0.77737 0.82676 0.14591 0.0
C106 C 0.7705 0.79586 0.15237 0.0
C107 C 0.84086 0.8123 0.12045 0.0
H108 H 0.8685 0.81808 0.10828 0.0
C109 C 0.83411 0.78194 0.12694 0.0
H110 H 0.75544 0.84401 0.15325 0.0
C111 C 0.79928 0.77375 0.1428 0.0
H112 H 0.79455 0.74995 0.14751 0.0
H113 H 0.85602 0.76466 0.11967 0.0
H114 H 0.19243 0.87432 0.36848 0.0
C115 C 0.18742 0.87711 0.3889 0.0
C116 C 0.1748 0.90557 0.3988 0.0
C117 C 0.1912 0.85175 0.40506 0.0
H118 H 0.15671 0.93007 0.43304 0.0
C119 C 0.16715 0.90841 0.42533 0.0
C120 C 0.17073 0.88316 0.4418 0.0
C121 C 0.18298 0.85496 0.43139 0.0
C122 C 0.1959 0.8209 0.39412 0.0
H123 H 0.18389 0.83495 0.44352 0.0
C124 C 0.23591 0.81047 0.3838 0.0
C125 C 0.23942 0.78026 0.37477 0.0
C126 C 0.1594 0.80137 0.39472 0.0
H127 H 0.12841 0.80904 0.40253 0.0
C128 C 0.16242 0.77189 0.38522 0.0
H129 H 0.26432 0.82537 0.38362 0.0
C130 C 0.20204 0.76135 0.37538 0.0
H131 H 0.20337 0.73831 0.36811 0.0
H132 H 0.13399 0.75706 0.38562 0.0
H133 H 0.32356 0.64757 0.87302 0.0
C134 C 0.32637 0.64389 0.89347 0.0
C135 C 0.33943 0.61534 0.90293 0.0
C136 C 0.31869 0.6682 0.91024 0.0
H137 H 0.35626 0.58999 0.93681 0.0
C138 C 0.34413 0.61145 0.92961 0.0
C139 C 0.33575 0.63543 0.94686 0.0
C140 C 0.32275 0.66372 0.93676 0.0
C141 C 0.3129 0.69938 0.90009 0.0
H142 H 0.31614 0.68268 0.94939 0.0
C143 C 0.27521 0.70796 0.88626 0.0
C144 C 0.27173 0.73774 0.87641 0.0
C145 C 0.34654 0.72076 0.90409 0.0
H146 H 0.37575 0.71458 0.91466 0.0
C147 C 0.34321 0.75009 0.89417 0.0
H148 H 0.24892 0.69169 0.88322 0.0
C149 C 0.30616 0.75853 0.88033 0.0
H150 H 0.30404 0.78151 0.87294 0.0
H151 H 0.36944 0.76634 0.89723 0.0
Tb152 Tb 0.065 0.12392 0.24539 0.0
C153 C 0.87885 0.0917 0.28456 0.0
N154 N 0.89902 0.1193 0.2858 0.0
C155 C 0.83315 0.1436 0.2715 0.0
C156 C 0.83512 0.08892 0.27614 0.0
C157 C 0.87667 0.1452 0.27983 0.0
C158 C 0.81233 0.11534 0.26952 0.0
C159 C 0.88335 0.03695 0.28953 0.0
C160 C 0.90278 0.06604 0.29103 0.0
C161 C 0.83982 0.03403 0.28106 0.0
C162 C 0.81578 0.05995 0.27438 0.0
Tb163 Tb 0.97039 0.11885 0.29899 0.0
N164 N 0.9454 0.06965 0.29828 0.0
C165 C 0.90822 0.0117 0.29671 0.0
C166 C 0.96853 0.04532 0.30708 0.0
C167 C 0.95075 0.01598 0.30591 0.0
H168 H 0.89197 0.1672 0.282 0.0
H169 H 0.96964 0.99673 0.31253 0.0
H170 H 0.14154 0.0726 0.25886 0.0
H171 H 0.07189 0.24645 0.23578 0.0
H172 H 0.99997 0.04832 0.31586 0.0
H173 H 0.89453 0.98894 0.29585 0.0
H174 H 0.03748 0.19608 0.23278 0.0
H175 H 0.81562 0.16418 0.26673 0.0
H176 H 0.82442 0.01185 0.27966 0.0
H177 H 0.78225 0.05733 0.26786 0.0
H178 H 0.21939 0.07275 0.27151 0.0
H179 H 0.77866 0.11418 0.26297 0.0
H180 H 0.14951 0.2512 0.24897 0.0
N181 N 0.13734 0.12079 0.25627 0.0
C182 C 0.1594 0.14768 0.2574 0.0
C183 C 0.20281 0.09401 0.26778 0.0
C184 C 0.20407 0.14882 0.26425 0.0
C185 C 0.15847 0.09403 0.26097 0.0
C186 C 0.22569 0.12151 0.26955 0.0
N187 N 0.09319 0.17224 0.24655 0.0
C188 C 0.07048 0.19765 0.2397 0.0
C189 C 0.15821 0.20266 0.25355 0.0
C190 C 0.13672 0.17426 0.25218 0.0
C191 C 0.13425 0.22892 0.24808 0.0
C192 C 0.09035 0.22635 0.24082 0.0
H193 H 0.26003 0.12141 0.27487 0.0
H194 H 0.25988 0.17842 0.27105 0.0
H195 H 0.21973 0.22556 0.26168 0.0
O196 O 0.05331 0.13476 0.20666 0.0
O197 O 0.07783 0.14482 0.28314 0.0
O198 O 0.01097 0.16022 0.29931 0.0
O199 O 0.10691 0.10602 0.21717 0.0
O200 O 1.0007 0.14529 0.23785 0.0
O201 O 0.97211 0.16094 0.27683 0.0
O202 O 0.97791 0.10856 0.33819 0.0
O203 O 0.95868 0.09945 0.2605 0.0
O204 O 0.02533 0.08226 0.24592 0.0
O205 O 0.92625 0.13774 0.32551 0.0
O206 O 0.03527 0.09901 0.30704 0.0
O207 O 0.06376 0.08226 0.26844 0.0
C208 C 0.05388 0.16309 0.29731 0.0
C209 C 0.07528 0.09767 0.17664 0.0
C210 C 0.07881 0.08652 0.13068 0.0
C211 C 0.05814 0.05835 0.13558 0.0
C212 C 0.05474 0.06956 0.18089 0.0
C213 C 0.04607 0.0501 0.16044 0.0
C214 C 0.08712 0.10615 0.15155 0.0
C215 C 0.97485 0.16288 0.2517 0.0
C216 C 0.08534 0.11798 0.1983 0.0
C217 C 0.22558 0.17708 0.26575 0.0
C218 C 0.20271 0.20393 0.26042 0.0
C219 C 0.98233 0.08032 0.24703 0.0
C220 C 0.9546 0.14692 0.3667 0.0
C221 C 0.94691 0.1599 0.41215 0.0
C222 C 0.96883 0.18759 0.40722 0.0
C223 C 0.97645 0.17456 0.36244 0.0
C224 C 0.94013 0.13956 0.39156 0.0
C225 C 0.98364 0.19469 0.38261 0.0
C226 C 0.06101 0.08093 0.29363 0.0
C227 C 0.94575 0.12604 0.34524 0.0
H228 H 0.05203 0.0423 0.12028 0.0
H229 H 0.04596 0.06256 0.20004 0.0
H230 H 0.03041 0.02834 0.16392 0.0
H231 H 0.10264 0.12805 0.14836 0.0
H232 H 0.97383 0.20418 0.42225 0.0
H233 H 0.9874 0.18071 0.34347 0.0
H234 H 0.92372 0.11798 0.39477 0.0
H235 H 1.00026 0.2161 0.37909 0.0
Tb236 Tb 0.45924 0.40232 0.74346 0.0
C237 C 0.63935 0.42942 0.78327 0.0
N238 N 0.61701 0.40258 0.78442 0.0
C239 C 0.68016 0.37662 0.76778 0.0
C240 C 0.68218 0.4311 0.77311 0.0
C241 C 0.63809 0.37608 0.77851 0.0
C242 C 0.70198 0.40433 0.76457 0.0
C243 C 0.64325 0.48282 0.79486 0.0
C244 C 0.62035 0.45496 0.79398 0.0
C245 C 0.68509 0.48495 0.7837 0.0
C246 C 0.70447 0.45915 0.77278 0.0
Tb247 Tb 0.54739 0.40551 0.80124 0.0
N248 N 0.57935 0.45227 0.80394 0.0
C249 C 0.62359 0.5075 0.80728 0.0
C250 C 0.5609 0.47569 0.81726 0.0
C251 C 0.58248 0.50378 0.81883 0.0
H252 H 0.62332 0.35427 0.78256 0.0
H253 H 0.56744 0.52252 0.82894 0.0
H254 H 0.371 0.4314 0.77015 0.0
H255 H 0.48262 0.29732 0.69098 0.0
H256 H 0.52935 0.47271 0.82637 0.0
H257 H 0.64016 0.5293 0.80843 0.0
H258 H 0.49912 0.35034 0.7027 0.0
H259 H 0.69611 0.35558 0.76253 0.0
H260 H 0.70308 0.50625 0.78388 0.0
H261 H 0.73723 0.46093 0.76483 0.0
H262 H 0.29691 0.41374 0.78289 0.0
H263 H 0.73483 0.40463 0.75662 0.0
H264 H 0.41531 0.27237 0.70742 0.0
N265 N 0.39027 0.38832 0.75563 0.0
C266 C 0.37764 0.35957 0.74967 0.0
C267 C 0.31945 0.39819 0.77375 0.0
C268 C 0.33587 0.34845 0.75655 0.0
C269 C 0.36143 0.4081 0.76663 0.0
C270 C 0.30678 0.36812 0.76898 0.0
N271 N 0.44532 0.35417 0.72856 0.0
C272 C 0.47121 0.33919 0.71135 0.0
C273 C 0.39462 0.31185 0.72897 0.0
C274 C 0.40662 0.34164 0.73614 0.0
C275 C 0.42323 0.29535 0.71335 0.0
C276 C 0.46131 0.30932 0.70409 0.0
H277 H 0.27431 0.36048 0.77457 0.0
H278 H 0.2927 0.30915 0.75591 0.0
H279 H 0.3442 0.27705 0.73171 0.0
O280 O 0.43599 0.40232 0.70505 0.0
O281 O 0.44203 0.38319 0.78132 0.0
O282 O 0.50648 0.36447 0.79787 0.0
O283 O 0.43896 0.44389 0.72756 0.0
O284 O 0.52437 0.38137 0.73754 0.0
O285 O 0.5479 0.36431 0.77718 0.0
O286 O 0.53027 0.4085 0.84029 0.0
O287 O 0.54029 0.4434 0.77367 0.0
O288 O 0.52626 0.41776 0.73687 0.0
O289 O 0.59295 0.39145 0.82902 0.0
O290 O 0.48247 0.42441 0.80898 0.0
O291 O 0.45369 0.4412 0.77019 0.0
C292 C 0.46376 0.3625 0.79429 0.0
C293 C 0.41186 0.44928 0.68387 0.0
C294 C 0.39343 0.45475 0.63838 0.0
C295 C 0.38371 0.48553 0.64275 0.0
C296 C 0.40168 0.4801 0.68757 0.0
C297 C 0.38756 0.49799 0.66717 0.0
C298 C 0.40707 0.4365 0.65917 0.0
C299 C 0.54553 0.36166 0.75204 0.0
C300 C 0.42944 0.43146 0.70565 0.0
C301 C 0.32445 0.31831 0.75051 0.0
C302 C 0.35383 0.30001 0.7368 0.0
C303 C 0.54282 0.44137 0.74864 0.0
C304 C 0.56328 0.3724 0.86744 0.0
C305 C 0.5739 0.35528 0.91168 0.0
C306 C 0.55979 0.32602 0.90424 0.0
C307 C 0.54916 0.34317 0.8606 0.0
C308 C 0.57523 0.37845 0.89294 0.0
C309 C 0.54731 0.32015 0.87897 0.0
C310 C 0.4581 0.44313 0.79539 0.0
C311 C 0.56679 0.39665 0.84811 0.0
H312 H 0.37275 0.49996 0.62722 0.0
H313 H 0.40496 0.49055 0.70626 0.0
H314 H 0.37988 0.52171 0.67027 0.0
H315 H 0.41511 0.41283 0.65594 0.0
H316 H 0.55913 0.30739 0.9178 0.0
H317 H 0.54005 0.33812 0.84103 0.0
H318 H 0.58543 0.40128 0.89807 0.0
H319 H 0.53665 0.29755 0.87353 0.0
Tb320 Tb 0.05011 0.90113 0.7394 0.0
C321 C 0.86481 0.87012 0.77712 0.0
N322 N 0.88336 0.89826 0.77753 0.0
C323 C 0.81754 0.91976 0.76028 0.0
C324 C 0.82195 0.8656 0.76773 0.0
C325 C 0.8603 0.92306 0.76956 0.0
C326 C 0.79833 0.89089 0.75925 0.0
C327 C 0.87196 0.816 0.78466 0.0
C328 C 0.88978 0.84565 0.7852 0.0
C329 C 0.82941 0.8113 0.7751 0.0
C330 C 0.80445 0.83604 0.76669 0.0
Tb331 Tb 0.95364 0.90099 0.79232 0.0
N332 N 0.93134 0.85099 0.79373 0.0
C333 C 0.89713 0.79206 0.79421 0.0
C334 C 0.95392 0.82812 0.80545 0.0
C335 C 0.93789 0.79827 0.80517 0.0
H336 H 0.87459 0.94547 0.77072 0.0
H337 H 0.95655 0.78018 0.81396 0.0
H338 H 0.11789 0.84346 0.74916 0.0
H339 H 0.07774 0.02265 0.73472 0.0
H340 H 0.98338 0.83264 0.81606 0.0
H341 H 0.88467 0.76895 0.79416 0.0
H342 H 0.03515 0.97549 0.72968 0.0
H343 H 0.79943 0.93949 0.75394 0.0
H344 H 0.81538 0.78864 0.77432 0.0
H345 H 0.77169 0.83206 0.75937 0.0
H346 H 0.19447 0.83634 0.76329 0.0
H347 H 0.76531 0.88838 0.75188 0.0
H348 H 0.15506 0.02047 0.7489 0.0
N349 N 0.12127 0.89163 0.75032 0.0
C350 C 0.14749 0.91647 0.75316 0.0
C351 C 0.18155 0.85903 0.76075 0.0
C352 C 0.19169 0.91358 0.76058 0.0
C353 C 0.13793 0.86309 0.75327 0.0
C354 C 0.20849 0.8844 0.76463 0.0
N355 N 0.08651 0.94667 0.74239 0.0
C356 C 0.06826 0.97408 0.73649 0.0
C357 C 0.15559 0.97133 0.7516 0.0
C358 C 0.12973 0.94493 0.7487 0.0
C359 C 0.13635 0.99961 0.74686 0.0
C360 C 0.09264 1.00094 0.739 0.0
H361 H 0.24228 0.88119 0.77038 0.0
H362 H 0.2516 0.93811 0.76949 0.0
H363 H 0.21995 0.98868 0.76165 0.0
O364 O 0.04089 0.91475 0.70114 0.0
O365 O 0.06288 0.92279 0.77696 0.0
O366 O 0.99705 0.94065 0.79305 0.0
O367 O 0.08838 0.88077 0.71053 0.0
O368 O 0.99018 0.92715 0.73152 0.0
O369 O 0.95684 0.94304 0.76944 0.0
O370 O 0.9571 0.89321 0.83215 0.0
O371 O 0.94099 0.88551 0.75299 0.0
O372 O 1.00403 0.86239 0.73913 0.0
O373 O 0.9083 0.92268 0.81652 0.0
O374 O 0.01733 0.87929 0.80083 0.0
O375 O 0.04164 0.85999 0.76229 0.0
C376 C 0.03999 0.94188 0.79104 0.0
C377 C 0.05526 0.8775 0.66984 0.0
C378 C 0.05868 0.86721 0.62379 0.0
C379 C 0.02744 0.84387 0.62719 0.0
C380 C 0.02427 0.85411 0.67268 0.0
C381 C 0.01047 0.83741 0.65146 0.0
C382 C 0.07257 0.88393 0.6454 0.0
C383 C 0.96477 0.94588 0.74459 0.0
C384 C 0.06938 0.89555 0.69214 0.0
C385 C 0.21759 0.93984 0.76369 0.0
C386 C 0.19958 0.96864 0.7592 0.0
C387 C 0.96097 0.86417 0.73996 0.0
C388 C 0.93348 0.93385 0.8582 0.0
C389 C 0.9292 0.94687 0.90386 0.0
C390 C 0.94528 0.97614 0.89779 0.0
C391 C 0.94995 0.96297 0.85287 0.0
C392 C 0.9236 0.92577 0.88369 0.0
C393 C 0.95588 0.98393 0.87259 0.0
C394 C 0.04121 0.85993 0.78747 0.0
C395 C 0.92545 0.91192 0.83735 0.0
H396 H 0.01651 0.83028 0.61112 0.0
H397 H 0.01081 0.84871 0.69128 0.0
H398 H 0.98657 0.81934 0.65383 0.0
H399 H 0.09627 0.90219 0.64318 0.0
H400 H 0.94904 0.99338 0.91241 0.0
H401 H 0.95764 0.96964 0.83342 0.0
H402 H 0.91175 0.90299 0.88766 0.0
H403 H 0.96824 1.00648 0.86828 0.0
Tb404 Tb 0.4673 0.61882 0.24071 0.0
C405 C 0.66178 0.63313 0.28158 0.0
N406 N 0.63522 0.60826 0.28296 0.0
C407 C 0.6956 0.57606 0.27176 0.0
C408 C 0.70632 0.63045 0.27474 0.0
C409 C 0.65158 0.57986 0.27856 0.0
C410 C 0.72306 0.60147 0.26971 0.0
C411 C 0.67007 0.6879 0.28485 0.0
C412 C 0.64387 0.66148 0.28657 0.0
C413 C 0.71448 0.68537 0.27799 0.0
C414 C 0.73255 0.65673 0.27295 0.0
Tb415 Tb 0.56377 0.61754 0.29331 0.0
N416 N 0.60021 0.66318 0.29199 0.0
C417 C 0.65072 0.71606 0.28984 0.0
C418 C 0.58177 0.69047 0.29812 0.0
C419 C 0.60652 0.7173 0.29677 0.0
H420 H 0.63098 0.56005 0.28091 0.0
H421 H 0.59151 0.73892 0.30124 0.0
H422 H 0.38785 0.65832 0.26777 0.0
H423 H 0.4733 0.5016 0.20846 0.0
H424 H 0.54826 0.69191 0.30432 0.0
H425 H 0.66969 0.73691 0.28867 0.0
H426 H 0.49652 0.55505 0.20954 0.0
H427 H 0.70838 0.55352 0.26824 0.0
H428 H 0.73507 0.70543 0.27644 0.0
H429 H 0.76683 0.65515 0.26763 0.0
H430 H 0.31544 0.64821 0.28738 0.0
H431 H 0.75713 0.59845 0.26439 0.0
H432 H 0.40576 0.48555 0.23114 0.0
N433 N 0.39949 0.61212 0.25847 0.0
C434 C 0.38283 0.58339 0.25771 0.0
C435 C 0.33423 0.62972 0.27929 0.0
C436 C 0.34162 0.57651 0.26853 0.0
C437 C 0.37545 0.63538 0.26845 0.0
C438 C 0.31736 0.60012 0.27952 0.0
N439 N 0.44767 0.56856 0.23632 0.0
C440 C 0.46936 0.54808 0.22132 0.0
C441 C 0.39207 0.53071 0.24547 0.0
C442 C 0.40807 0.56081 0.24661 0.0
C443 C 0.41689 0.50893 0.2325 0.0
C444 C 0.45521 0.51784 0.21987 0.0
H445 H 0.28551 0.59578 0.28804 0.0
H446 H 0.29475 0.54055 0.27658 0.0
H447 H 0.33876 0.50046 0.2562 0.0
O448 O 0.46225 0.61266 0.20065 0.0
O449 O 0.45621 0.60218 0.28033 0.0
O450 O 0.51985 0.57828 0.29138 0.0
O451 O 0.42293 0.64571 0.21993 0.0
O452 O 0.53092 0.59804 0.23085 0.0
O453 O 0.55656 0.57744 0.2687 0.0
O454 O 0.54882 0.62617 0.33209 0.0
O455 O 0.57834 0.63995 0.25672 0.0
O456 O 0.5142 0.65699 0.23768 0.0
O457 O 0.60427 0.59892 0.32176 0.0
O458 O 0.50463 0.64477 0.30135 0.0
O459 O 0.4729 0.66057 0.26312 0.0
C460 C 0.47694 0.57999 0.29197 0.0
C461 C 0.3921 0.62265 0.18302 0.0
C462 C 0.35746 0.61521 0.14097 0.0
C463 C 0.31773 0.60844 0.15367 0.0
C464 C 0.35211 0.61544 0.19496 0.0
C465 C 0.31533 0.60828 0.18034 0.0
C466 C 0.39473 0.62219 0.15605 0.0
C467 C 0.55504 0.57816 0.24347 0.0
C468 C 0.43062 0.63214 0.19833 0.0
C469 C 0.32621 0.54637 0.26818 0.0
C470 C 0.35138 0.52352 0.25668 0.0
C471 C 0.557 0.65819 0.24122 0.0
C472 C 0.57163 0.58857 0.36165 0.0
C473 C 0.57939 0.57524 0.40681 0.0
C474 C 0.5602 0.54679 0.40177 0.0
C475 C 0.55218 0.56016 0.35698 0.0
C476 C 0.58464 0.59621 0.38667 0.0
C477 C 0.54627 0.53946 0.37702 0.0
C478 C 0.47887 0.66303 0.28803 0.0
C479 C 0.58118 0.60974 0.34051 0.0
H480 H 0.28794 0.60389 0.14308 0.0
H481 H 0.34889 0.61589 0.21555 0.0
H482 H 0.28451 0.60311 0.18974 0.0
H483 H 0.42583 0.62739 0.14695 0.0
H484 H 0.55582 0.53033 0.41702 0.0
H485 H 0.54236 0.55382 0.33781 0.0
H486 H 0.60004 0.61805 0.39033 0.0
H487 H 0.53136 0.51752 0.37329 0.0
H488 H 0.13024 0.90446 0.35336 0.0
H489 H 0.19717 0.96565 0.40493 0.0
H490 H 0.10833 0.94737 0.32691 0.0
H491 H 0.1758 1.00871 0.37824 0.0
H492 H 0.07851 0.07811 0.34482 0.0
H493 H 0.11063 0.03631 0.36869 0.0
H494 H 0.13057 0.98697 0.29813 0.0
H495 H 0.09671 0.02846 0.27431 0.0
C496 C 0.14113 0.92704 0.35876 0.0
C497 C 0.16541 0.93159 0.38133 0.0
C498 C 0.12856 0.95172 0.34354 0.0
C499 C 0.14005 0.98165 0.35042 0.0
C500 C 0.16562 0.98608 0.37256 0.0
C501 C 0.17801 0.96139 0.38784 0.0
C502 C 0.09007 0.05847 0.33433 0.0
C503 C 0.08506 0.05672 0.30761 0.0
C504 C 0.10886 0.03451 0.34804 0.0
C505 C 0.12328 1.00812 0.33542 0.0
C506 C 0.11939 1.00674 0.30856 0.0
C507 C 0.10045 0.03072 0.29484 0.0
H508 H 0.38508 0.61861 0.85755 0.0
H509 H 0.31998 0.55468 0.90781 0.0
H510 H 0.40845 0.57679 0.83012 0.0
H511 H 0.34347 0.51289 0.88043 0.0
H512 H 0.44536 0.44718 0.84698 0.0
H513 H 0.41275 0.48843 0.87107 0.0
H514 H 0.38491 0.53602 0.80061 0.0
H515 H 0.41847 0.49456 0.77623 0.0
C516 C 0.37506 0.5957 0.86253 0.0
C517 C 0.35085 0.59006 0.88504 0.0
C518 C 0.38848 0.57169 0.84677 0.0
C519 C 0.37814 0.5414 0.85313 0.0
C520 C 0.35271 0.53587 0.87518 0.0
C521 C 0.33926 0.55985 0.89091 0.0
C522 C 0.4321 0.46629 0.83648 0.0
C523 C 0.43477 0.46752 0.80959 0.0
C524 C 0.41303 0.48993 0.85037 0.0
C525 C 0.39608 0.51559 0.83784 0.0
C526 C 0.39798 0.51669 0.81089 0.0
C527 C 0.41694 0.49283 0.7969 0.0
H528 H 0.69275 0.54635 0.63655 0.0
H529 H 0.61617 0.61363 0.67646 0.0
H530 H 0.66542 0.50708 0.66551 0.0
H531 H 0.58736 0.57427 0.70496 0.0
H532 H 0.56349 0.49953 0.76359 0.0
H533 H 0.59944 0.53922 0.73846 0.0
H534 H 0.60073 0.47937 0.67281 0.0
H535 H 0.56775 0.43926 0.6985 0.0
C536 C 0.67012 0.55272 0.65162 0.0
C537 C 0.65656 0.58305 0.6542 0.0
C538 C 0.65412 0.53017 0.66813 0.0
C539 C 0.62357 0.53725 0.68747 0.0
C540 C 0.61115 0.56787 0.69055 0.0
C541 C 0.62762 0.5905 0.67419 0.0
C542 C 0.57246 0.49465 0.74399 0.0
C543 C 0.5636 0.46598 0.73329 0.0
C544 C 0.59246 0.51761 0.72939 0.0
C545 C 0.60343 0.51263 0.70351 0.0
C546 C 0.59387 0.48399 0.69278 0.0
C547 C 0.5744 0.461 0.70747 0.0
H548 H 0.83526 0.97947 0.13351 0.0
H549 H 0.89378 0.90841 0.17897 0.0
H550 H 0.86511 0.01764 0.16253 0.0
H551 H 0.92264 0.94662 0.20854 0.0
H552 H 0.01563 0.02525 0.23278 0.0
H553 H 0.97977 0.98546 0.20776 0.0
H554 H 0.86127 0.03889 0.20533 0.0
H555 H 0.89783 0.07918 0.22948 0.0
C556 C 0.85409 0.97197 0.14989 0.0
C557 C 0.8623 0.94085 0.15379 0.0
C558 C 0.87092 0.99387 0.16669 0.0
C559 C 0.89655 0.9853 0.18786 0.0
C560 C 0.90353 0.95409 0.19226 0.0
C561 C 0.88652 0.93214 0.17548 0.0
C562 C 0.98198 0.02855 0.22679 0.0
C563 C 0.95977 0.05554 0.23285 0.0
C564 C 0.9612 1.00555 0.21272 0.0
C565 C 0.91758 1.00891 0.20441 0.0
C566 C 0.89504 0.03565 0.21107 0.0
C567 C 0.91589 0.05867 0.22511 0.0
H568 H 0.8508 0.11504 0.68399 0.0
H569 H 0.83553 0.048 0.62444 0.0
H570 H 0.88418 0.07663 0.71181 0.0
H571 H 0.86648 1.00935 0.65229 0.0
H572 H 0.9684 0.95548 0.69305 0.0
H573 H 0.93413 0.99494 0.6682 0.0
H574 H 0.87569 0.03177 0.73691 0.0
H575 H 0.9128 0.9929 0.76234 0.0
C576 C 0.85417 0.09197 0.67703 0.0
C577 C 0.84131 0.08453 0.65197 0.0
C578 C 0.87303 0.06989 0.69297 0.0
C579 C 0.87877 0.03982 0.68427 0.0
C580 C 0.86404 0.03236 0.65949 0.0
C581 C 0.84601 0.05446 0.6435 0.0
C582 C 0.94838 0.97192 0.70307 0.0
C583 C 0.94298 0.97055 0.72981 0.0
C584 C 0.92819 0.99455 0.68864 0.0
C585 C 0.90124 0.0164 0.70033 0.0
C586 C 0.89623 0.01542 0.72717 0.0
C587 C 0.91711 0.99287 0.74175 0.0
H588 H 0.63277 0.40617 0.17447 0.0
H589 H 0.70533 0.47323 0.13147 0.0
H590 H 0.60264 0.44631 0.2018 0.0
H591 H 0.67691 0.51341 0.15914 0.0
H592 H 0.57893 0.5803 0.19315 0.0
H593 H 0.61178 0.54028 0.16748 0.0
H594 H 0.61828 0.48254 0.23438 0.0
H595 H 0.58318 0.52219 0.25976 0.0
C596 C 0.64249 0.42957 0.17112 0.0
C597 C 0.67107 0.43683 0.15095 0.0
C598 C 0.62558 0.45256 0.18683 0.0
C599 C 0.63718 0.48327 0.18273 0.0
C600 C 0.66653 0.49021 0.16266 0.0
C601 C 0.6831 0.46725 0.1469 0.0
C602 C 0.58754 0.5591 0.20241 0.0
C603 C 0.57861 0.55453 0.22855 0.0
C604 C 0.60673 0.53616 0.18771 0.0
C605 C 0.6179 0.50803 0.19877 0.0
C606 C 0.60968 0.50369 0.22508 0.0
C607 C 0.59013 0.52662 0.23975 0.0
H608 H 0.34454 0.48903 0.41695 0.0
H609 H 0.35507 0.41784 0.36046 0.0
H610 H 0.37795 0.52508 0.38704 0.0
H611 H 0.38864 0.45406 0.3304 0.0
H612 H 0.49867 0.52095 0.30089 0.0
H613 H 0.46033 0.48397 0.32797 0.0
H614 H 0.36087 0.55069 0.34466 0.0
H615 H 0.39947 0.58775 0.31764 0.0
C616 C 0.35414 0.48106 0.39814 0.0
C617 C 0.34749 0.4505 0.39115 0.0
C618 C 0.37287 0.5018 0.38091 0.0
C619 C 0.38591 0.49246 0.35633 0.0
C620 C 0.37915 0.46191 0.34926 0.0
C621 C 0.35977 0.44122 0.3664 0.0
C622 C 0.46851 0.52765 0.31028 0.0
C623 C 0.45216 0.55727 0.30727 0.0
C624 C 0.44639 0.50641 0.32562 0.0
C625 C 0.40763 0.51441 0.33854 0.0
C626 C 0.39087 0.54392 0.33515 0.0
C627 C 0.41278 0.56507 0.31956 0.0
H628 H 0.14913 0.11073 0.85565 0.0
H629 H 0.17794 0.0387 0.90907 0.0
H630 H 0.11672 0.07327 0.82609 0.0
H631 H 0.14651 1.00142 0.87958 0.0
H632 H 0.12396 0.94066 0.80928 0.0
H633 H 0.16182 0.97996 0.83415 0.0
H634 H 0.04769 0.03735 0.82908 0.0
H635 H 0.00979 0.99809 0.80424 0.0
C636 C 0.14893 0.08689 0.86089 0.0
C637 C 0.16574 0.07757 0.88464 0.0
C638 C 0.1303 0.06553 0.84409 0.0
C639 C 0.12918 0.03444 0.85055 0.0
C640 C 0.14724 0.02515 0.87399 0.0
C641 C 0.16497 0.04649 0.89091 0.0
C642 C 0.10707 0.96174 0.81334 0.0
C643 C 0.06369 0.96613 0.80513 0.0
C644 C 0.1287 0.98419 0.82761 0.0
C645 C 0.10765 0.01168 0.8336 0.0
C646 C 0.06481 0.01647 0.82463 0.0
C647 C 0.04296 0.99386 0.81068 0.0
H648 H 0.15234 0.06647 0.97262 0.0
H649 H 0.18082 0.16168 0.98543 0.0
H650 H 0.12489 0.06202 1.01615 0.0
H651 H 0.15488 0.1566 0.02962 0.0
H652 H 0.15283 0.11759 0.11472 0.0
H653 H 0.17705 0.12738 0.07082 0.0
H654 H 0.06075 0.08293 0.04208 0.0
H655 H 0.03556 0.07411 0.08573 0.0
C656 C 0.15233 0.08662 0.98452 0.0
C657 C 0.16841 0.11459 0.97514 0.0
C658 C 0.13678 0.08395 1.00961 0.0
C659 C 0.13747 0.10899 0.02628 0.0
C660 C 0.15414 0.13686 1.01724 0.0
C661 C 0.16915 0.13969 0.99192 0.0
C662 C 0.13188 0.11045 0.09911 0.0
C663 C 0.09237 0.0947 0.10396 0.0
C664 C 0.14592 0.11599 0.07392 0.0
C665 C 0.12104 0.10563 0.05301 0.0
C666 C 0.08101 0.09073 0.05781 0.0
C667 C 0.06672 0.08554 0.0829 0.0
H668 H 0.40465 0.41513 0.47371 0.0
H669 H 0.26879 0.40811 0.49685 0.0
H670 H 0.42596 0.42174 0.51841 0.0
H671 H 0.2904 0.4138 0.54144 0.0
H672 H 0.34692 0.40483 0.6221 0.0
H673 H 0.33211 0.38966 0.57766 0.0
H674 H 0.41523 0.46275 0.55069 0.0
H675 H 0.42981 0.47775 0.59486 0.0
C676 C 0.37928 0.41487 0.48824 0.0
C677 C 0.33489 0.4112 0.48142 0.0
C678 C 0.39158 0.41852 0.51392 0.0
C679 C 0.3599 0.4183 0.53354 0.0
C680 C 0.31573 0.41363 0.52687 0.0
C681 C 0.30336 0.41029 0.50119 0.0
C682 C 0.36263 0.4172 0.60663 0.0
C683 C 0.38937 0.44252 0.61191 0.0
C684 C 0.35388 0.40872 0.58121 0.0
C685 C 0.37231 0.4251 0.5606 0.0
C686 C 0.40076 0.44949 0.56604 0.0
C687 C 0.40896 0.45818 0.59135 0.0
H688 H 0.66634 0.33382 0.06803 0.0
H689 H 0.662 0.43121 0.05821 0.0
H690 H 0.63716 0.32698 0.02472 0.0
H691 H 0.63314 0.42438 1.01482 0.0
H692 H 0.63956 0.39348 0.92876 0.0
H693 H 0.66351 0.40215 0.97268 0.0
H694 H 0.56603 0.3385 0.99995 0.0
H695 H 0.54046 0.33071 0.95623 0.0
C696 C 0.659 0.35374 0.05662 0.0
C697 C 0.66634 0.38304 0.0665 0.0
C698 C 0.64211 0.34984 0.03191 0.0
C699 C 0.63293 0.37515 1.01638 0.0
C700 C 0.64014 0.40446 0.0263 0.0
C701 C 0.65632 0.40836 0.05117 0.0
C702 C 0.62248 0.38174 0.94406 0.0
C703 C 0.58798 0.3613 0.93869 0.0
C704 C 0.63645 0.38664 0.96927 0.0
C705 C 0.61677 0.37091 0.98974 0.0
C706 C 0.58219 0.35066 0.98452 0.0
C707 C 0.56773 0.3461 0.95937 0.0
H708 H 0.90998 0.13 0.57708 0.0
H709 H 0.77928 0.13868 0.54605 0.0
H710 H 0.94037 0.13343 0.53414 0.0
H711 H 0.80984 0.1447 0.50346 0.0
H712 H 0.87113 0.12972 0.42614 0.0
H713 H 0.84308 0.12035 0.46903 0.0
H714 H 0.95533 0.16711 0.50099 0.0
H715 H 0.98506 0.1742 0.45833 0.0
C716 C 0.88762 0.1327 0.56117 0.0
C717 C 0.84203 0.13414 0.56529 0.0
C718 C 0.90518 0.13514 0.53644 0.0
C719 C 0.87776 0.13951 0.51508 0.0
C720 C 0.83217 0.14093 0.51922 0.0
C721 C 0.81458 0.13806 0.54389 0.0
C722 C 0.89038 0.13744 0.4423 0.0
C723 C 0.93038 0.15291 0.43854 0.0
C724 C 0.87384 0.13251 0.46702 0.0
C725 C 0.89653 0.14322 0.48872 0.0
C726 C 0.93693 0.15819 0.48494 0.0
C727 C 0.95373 0.16274 0.46028 0.0
H728 H 0.79258 0.90218 0.04729 0.0
H729 H 0.92708 0.91566 0.06991 0.0
H730 H 0.81234 0.91255 1.00277 0.0
H731 H 0.94794 0.92396 0.02545 0.0
H732 H 0.96866 0.96692 0.94823 0.0
H733 H 0.94735 0.95713 0.99202 0.0
H734 H 0.84538 0.89609 0.9657 0.0
H735 H 0.86386 0.90844 0.92168 0.0
C736 C 0.8265 0.90711 0.04259 0.0
C737 C 0.85823 0.90847 0.06199 0.0
C738 C 0.83807 0.91278 1.01701 0.0
C739 C 0.88193 0.91926 1.01013 0.0
C740 C 0.91367 0.91994 0.02975 0.0
C741 C 0.90187 0.91496 0.05532 0.0
C742 C 0.9411 0.95184 0.95161 0.0
C743 C 0.91784 0.93883 0.93104 0.0
C744 C 0.92932 0.94568 0.97699 0.0
C745 C 0.89451 0.92566 0.98282 0.0
C746 C 0.87185 0.91206 0.96226 0.0
C747 C 0.88308 0.91873 0.9368 0.0
H748 H 0.67787 0.5672 0.56337 0.0
H749 H 0.64289 0.66155 0.55274 0.0
H750 H 0.65487 0.55626 0.51998 0.0
H751 H 0.62466 0.65131 0.50858 0.0
H752 H 0.55009 0.62017 0.43823 0.0
H753 H 0.57311 0.63115 0.48197 0.0
H754 H 0.66895 0.55898 0.47715 0.0
H755 H 0.64316 0.54694 0.43414 0.0
C756 C 0.66566 0.58576 0.55182 0.0
C757 C 0.66221 0.6153 0.562 0.0
C758 C 0.65312 0.57955 0.52655 0.0
C759 C 0.63763 0.6028 0.51037 0.0
C760 C 0.63542 0.63251 0.52034 0.0
C761 C 0.64696 0.63857 0.54577 0.0
C762 C 0.57602 0.60675 0.44669 0.0
C763 C 0.59479 0.5827 0.43298 0.0
C764 C 0.58964 0.61314 0.47173 0.0
C765 C 0.62321 0.59607 0.48347 0.0
C766 C 0.64242 0.57229 0.46928 0.0
C767 C 0.62799 0.56548 0.44449 0.0
H768 H 0.32344 0.58358 0.97596 0.0
H769 H 0.363 0.67779 0.98263 0.0
H770 H 0.33472 0.57681 0.02146 0.0
H771 H 0.36925 0.67194 0.02846 0.0
H772 H 0.40778 0.65188 0.10929 0.0
H773 H 0.40713 0.6545 0.06292 0.0
H774 H 0.30639 0.58497 0.06092 0.0
H775 H 0.31071 0.57999 0.10684 0.0
C776 C 0.33443 0.60297 0.98701 0.0
C777 C 0.34201 0.63131 0.9752 0.0
C778 C 0.34013 0.59921 1.01345 0.0
C779 C 0.35258 0.62384 0.02915 0.0
C780 C 0.36029 0.65215 1.0173 0.0
C781 C 0.35565 0.65572 0.99079 0.0
C782 C 0.38629 0.63655 0.099 0.0
C783 C 0.359 0.61592 0.11223 0.0
C784 C 0.38523 0.63849 0.07219 0.0
C785 C 0.3562 0.6203 0.05772 0.0
C786 C 0.32965 0.59924 0.07097 0.0
C787 C 0.33147 0.5968 0.09766 0.0
H788 H 0.10072 0.91348 0.46251 0.0
H789 H 0.21077 0.85726 0.48349 0.0
H790 H 0.07592 0.91354 0.50689 0.0
H791 H 0.18505 0.85642 0.52779 0.0
H792 H 0.1441 0.8789 0.60981 0.0
H793 H 0.17334 0.88651 0.56659 0.0
H794 H 0.04275 0.87684 0.5356 0.0
H795 H 0.01356 0.87016 0.57865 0.0
C796 C 0.12002 0.90147 0.47663 0.0
C797 C 0.15777 0.88533 0.46934 0.0
C798 C 0.10545 0.90118 0.50207 0.0
C799 C 0.12823 0.88477 0.52095 0.0
C800 C 0.16682 0.86948 0.51384 0.0
C801 C 0.18135 0.86971 0.48837 0.0
C802 C 0.1216 0.87887 0.59378 0.0
C803 C 0.0765 0.87375 0.59771 0.0
C804 C 0.13841 0.88292 0.56898 0.0
C805 C 0.11046 0.8822 0.54754 0.0
C806 C 0.06525 0.87785 0.55161 0.0
C807 C 0.04853 0.87367 0.57632 0.0
H808 H 0.12663 0.34448 0.3493 0.0
H809 H 0.20986 0.28538 0.39343 0.0
H810 H 0.10062 0.30114 0.3244 0.0
H811 H 0.18273 0.24149 0.36918 0.0
H812 H 0.14046 0.16927 0.3108 0.0
H813 H 0.17655 0.21348 0.3299 0.0
H814 H 0.05216 0.2602 0.33211 0.0
H815 H 0.01698 0.21689 0.31171 0.0
C816 C 0.13989 0.32216 0.35334 0.0
C817 C 0.17027 0.31826 0.37324 0.0
C818 C 0.12458 0.29722 0.33931 0.0
C819 C 0.13871 0.26756 0.34509 0.0
C820 C 0.17115 0.26392 0.36406 0.0
C821 C 0.18685 0.28905 0.37795 0.0
C822 C 0.12096 0.18913 0.31518 0.0
C823 C 0.07576 0.18947 0.3098 0.0
C824 C 0.14161 0.21442 0.32634 0.0
C825 C 0.11748 0.24064 0.33254 0.0
C826 C 0.07218 0.24077 0.32721 0.0
C827 C 0.05171 0.21565 0.31588 0.0
H828 H 0.38168 0.18299 0.84719 0.0
H829 H 0.30176 0.24481 0.89077 0.0
H830 H 0.40913 0.2252 0.8213 0.0
H831 H 0.33048 0.28758 0.86568 0.0
H832 H 0.37678 0.35866 0.80784 0.0
H833 H 0.33801 0.31522 0.82657 0.0
H834 H 0.45952 0.26495 0.82798 0.0
H835 H 0.49709 0.30744 0.80776 0.0
C836 C 0.36938 0.20566 0.85084 0.0
C837 C 0.33944 0.21068 0.87082 0.0
C838 C 0.38555 0.22997 0.83628 0.0
C839 C 0.37287 0.26006 0.84165 0.0
C840 C 0.3409 0.26481 0.86079 0.0
C841 C 0.32429 0.24033 0.87518 0.0
C842 C 0.39484 0.33803 0.8116 0.0
C843 C 0.43986 0.3364 0.80594 0.0
C844 C 0.37277 0.31323 0.82271 0.0
C845 C 0.39537 0.28628 0.82872 0.0
C846 C 0.44056 0.28489 0.82315 0.0
C847 C 0.46239 0.30952 0.81185 0.0
H848 H 0.7107 0.24328 0.65763 0.0
H849 H 0.60518 0.18745 0.68686 0.0
H850 H 0.68588 0.2856 0.68449 0.0
H851 H 0.58012 0.22956 0.7134 0.0
H852 H 0.56178 0.3052 0.7713 0.0
H853 H 0.59849 0.2628 0.74997 0.0
H854 H 0.62021 0.31911 0.6833 0.0
H855 H 0.58401 0.36153 0.70479 0.0
C856 C 0.68281 0.23988 0.6702 0.0
C857 C 0.65976 0.21215 0.67009 0.0
C858 C 0.66831 0.26416 0.68536 0.0
C859 C 0.63081 0.26102 0.70094 0.0
C860 C 0.60927 0.23271 0.70179 0.0
C861 C 0.62348 0.20863 0.68649 0.0
C862 C 0.57479 0.30854 0.75218 0.0
C863 C 0.56963 0.33652 0.73957 0.0
C864 C 0.59564 0.28426 0.73993 0.0
C865 C 0.6122 0.28754 0.71491 0.0
C866 C 0.60824 0.31589 0.70266 0.0
C867 C 0.58711 0.34009 0.71484 0.0
H868 H 0.80914 0.27484 0.152 0.0
H869 H 0.90137 0.33564 0.18828 0.0
H870 H 0.83631 0.23272 0.17843 0.0
H871 H 0.92827 0.29386 0.21474 0.0
H872 H 0.94425 0.21613 0.27176 0.0
H873 H 0.90567 0.25691 0.24944 0.0
H874 H 0.90976 0.2049 0.17941 0.0
H875 H 0.94842 0.16409 0.2017 0.0
C876 C 0.83447 0.27929 0.16605 0.0
C877 C 0.85318 0.30843 0.16815 0.0
C878 C 0.8503 0.25519 0.18097 0.0
C879 C 0.88458 0.25996 0.19857 0.0
C880 C 0.90165 0.28949 0.20151 0.0
C881 C 0.88635 0.31338 0.18634 0.0
C882 C 0.93649 0.21325 0.25167 0.0
C883 C 0.94941 0.18689 0.23848 0.0
C884 C 0.91456 0.23666 0.23888 0.0
C885 C 0.9046 0.2341 0.21269 0.0
C886 C 0.91653 0.20739 0.19966 0.0
C887 C 0.93899 0.18415 0.21237 0.0
H888 H 0.73215 0.76294 0.69744 0.0
H889 H 0.82847 0.72475 0.64631 0.0
H890 H 0.78932 0.79234 0.71879 0.0
H891 H 0.88623 0.75462 0.66765 0.0
H892 H 0.97867 0.80425 0.7286 0.0
H893 H 0.92792 0.76677 0.70969 0.0
H894 H 0.83031 0.83692 0.70141 0.0
H895 H 0.88061 0.8739 0.71974 0.0
C896 C 0.76582 0.76035 0.69116 0.0
C897 C 0.77584 0.74174 0.67012 0.0
C898 C 0.79853 0.77736 0.70324 0.0
C899 C 0.84216 0.77636 0.69453 0.0
C900 C 0.85291 0.75592 0.67477 0.0
C901 C 0.81994 0.73874 0.66263 0.0
C902 C 0.94655 0.81159 0.72237 0.0
C903 C 0.93333 0.84189 0.72599 0.0
C904 C 0.9175 0.79017 0.71165 0.0
C905 C 0.87475 0.79873 0.70457 0.0
C906 C 0.86255 0.82935 0.70726 0.0
C907 C 0.89146 0.8506 0.71769 0.0
H908 H 0.7765 0.77199 0.19996 0.0
H909 H 0.6829 0.7939 0.1411 0.0
H910 H 0.7209 0.74201 0.22243 0.0
H911 H 0.62696 0.76323 0.16331 0.0
H912 H 0.53205 0.71407 0.2219 0.0
H913 H 0.57999 0.75306 0.20258 0.0
H914 H 0.69048 0.69264 0.2102 0.0
H915 H 0.6432 0.65414 0.22882 0.0
C916 C 0.74352 0.77109 0.19227 0.0
C917 C 0.73385 0.78537 0.16893 0.0
C918 C 0.71179 0.75362 0.20493 0.0
C919 C 0.66969 0.74965 0.19438 0.0
C920 C 0.65899 0.76584 0.17198 0.0
C921 C 0.6909 0.78352 0.15932 0.0
C922 C 0.56651 0.70913 0.21914 0.0
C923 C 0.58389 0.68116 0.22727 0.0
C924 C 0.59398 0.73148 0.2082 0.0
C925 C 0.63931 0.72627 0.20536 0.0
C926 C 0.65606 0.69787 0.21276 0.0
C927 C 0.6288 0.67567 0.2234 0.0
H928 H 0.27538 0.72541 0.38625 0.0
H929 H 0.29853 0.80625 0.34121 0.0
H930 H 0.33828 0.70117 0.36655 0.0
H931 H 0.36308 0.78223 0.3219 0.0
H932 H 0.43017 0.71016 0.2686 0.0
H933 H 0.37786 0.74197 0.29147 0.0
H934 H 0.41599 0.70001 0.36282 0.0
H935 H 0.46691 0.66742 0.33989 0.0
C936 C 0.29434 0.73817 0.37231 0.0
C937 C 0.28157 0.76763 0.36506 0.0
C938 C 0.33084 0.72437 0.36119 0.0
C939 C 0.35592 0.73964 0.34252 0.0
C940 C 0.34425 0.76964 0.33598 0.0
C941 C 0.30755 0.78354 0.34722 0.0
C942 C 0.42767 0.70788 0.28921 0.0
C943 C 0.45211 0.68568 0.30227 0.0
C944 C 0.39787 0.72635 0.30238 0.0
C945 C 0.39209 0.72331 0.32901 0.0
C946 C 0.41875 0.70252 0.34225 0.0
C947 C 0.44829 0.68394 0.32908 0.0
H948 H 0.18957 0.74657 0.89553 0.0
H949 H 0.2664 0.75421 0.82644 0.0
H950 H 0.12862 0.77307 0.87446 0.0
H951 H 0.20551 0.78012 0.8052 0.0
H952 H 0.07159 0.86341 0.83667 0.0
H953 H 0.12226 0.82882 0.85818 0.0
H954 H 0.12495 0.77178 0.79101 0.0
H955 H 0.07299 0.80569 0.76982 0.0
C956 C 0.19283 0.75317 0.87563 0.0
C957 C 0.23233 0.74817 0.86246 0.0
C958 C 0.15824 0.76854 0.86366 0.0
C959 C 0.16237 0.7787 0.83821 0.0
C960 C 0.20121 0.77231 0.82473 0.0
C961 C 0.23599 0.75748 0.83683 0.0
C962 C 0.08249 0.84326 0.82662 0.0
C963 C 0.06919 0.83773 0.80127 0.0
C964 C 0.11141 0.82342 0.83897 0.0
C965 C 0.12786 0.79775 0.82618 0.0
C966 C 0.11325 0.7916 0.8012 0.0
C967 C 0.08375 0.81113 0.78904 0.0
loop_
_geom_bond_atom_site_label_1
_geom_bond_atom_site_label_2
_geom_bond_distance
_geom_bond_site_symmetry_2
_ccdc_geom_bond_type
H0 C1 0.949 . S
C1 H0 0.949 . S
C1 C2 1.395 . S
C1 C3 1.391 . S
C2 C1 1.395 . S
C2 C5 1.390 . S
C3 C1 1.391 . S
C3 C7 1.387 . S
C3 C8 1.491 . S
H4 C5 0.950 . S
C5 C2 1.390 . S
C5 H4 0.950 . S
C5 C6 1.378 . S
C6 C5 1.378 . S
C6 C7 1.409 . S
C7 C3 1.387 . S
C7 C6 1.409 . S
C7 H9 0.951 . S
C8 C3 1.491 . S
C8 C10 1.382 . S
C8 C12 1.404 . S
H9 C7 0.951 . S
C10 C8 1.382 . S
C10 C11 1.390 . S
C10 H15 0.949 . S
C11 C10 1.390 . S
C11 C16 1.399 . S
C12 C8 1.404 . S
C12 H13 0.950 . S
C12 C14 1.375 . S
H13 C12 0.950 . S
C14 C12 1.375 . S
C14 C16 1.382 . S
C14 H18 0.950 . S
H15 C10 0.949 . S
C16 C11 1.399 . S
C16 C14 1.382 . S
C16 H17 0.952 . S
H17 C16 0.952 . S
H18 C14 0.950 . S
H19 C20 0.949 . S
C20 H19 0.949 . S
C20 C21 1.395 . S
C20 C22 1.391 . S
C21 C20 1.395 . S
C21 C24 1.390 . S
C22 C20 1.391 . S
C22 C26 1.387 . S
C22 C27 1.491 . S
H23 C24 0.950 . S
C24 C21 1.390 . S
C24 H23 0.950 . S
C24 C25 1.378 . S
C25 C24 1.378 . S
C25 C26 1.409 . S
C26 C22 1.387 . S
C26 C25 1.409 . S
C26 H28 0.951 . S
C27 C22 1.491 . S
C27 C29 1.382 . S
C27 C31 1.404 . S
H28 C26 0.951 . S
C29 C27 1.382 . S
C29 C30 1.390 . S
C29 H34 0.949 . S
C30 C29 1.390 . S
C30 C35 1.399 . S
C31 C27 1.404 . S
C31 H32 0.950 . S
C31 C33 1.375 . S
H32 C31 0.950 . S
C33 C31 1.375 . S
C33 C35 1.382 . S
C33 H37 0.950 . S
H34 C29 0.949 . S
C35 C30 1.399 . S
C35 C33 1.382 . S
C35 H36 0.952 . S
H36 C35 0.952 . S
H37 C33 0.950 . S
H38 C39 0.949 . S
C39 H38 0.949 . S
C39 C40 1.395 . S
C39 C41 1.391 . S
C40 C39 1.395 . S
C40 C43 1.390 . S
C41 C39 1.391 . S
C41 C45 1.387 . S
C41 C46 1.491 . S
H42 C43 0.950 . S
C43 C40 1.390 . S
C43 H42 0.950 . S
C43 C44 1.378 . S
C44 C43 1.378 . S
C44 C45 1.409 . S
C45 C41 1.387 . S
C45 C44 1.409 . S
C45 H47 0.951 . S
C46 C41 1.491 . S
C46 C48 1.382 . S
C46 C50 1.404 . S
H47 C45 0.951 . S
C48 C46 1.382 . S
C48 C49 1.390 . S
C48 H53 0.949 . S
C49 C48 1.390 . S
C49 C54 1.399 . S
C50 C46 1.404 . S
C50 H51 0.950 . S
C50 C52 1.375 . S
H51 C50 0.950 . S
C52 C50 1.375 . S
C52 C54 1.382 . S
C52 H56 0.950 . S
H53 C48 0.949 . S
C54 C49 1.399 . S
C54 C52 1.382 . S
C54 H55 0.952 . S
H55 C54 0.952 . S
H56 C52 0.950 . S
H57 C58 0.949 . S
C58 H57 0.949 . S
C58 C59 1.395 . S
C58 C60 1.391 . S
C59 C58 1.395 . S
C59 C62 1.390 . S
C60 C58 1.391 . S
C60 C64 1.387 . S
C60 C65 1.491 . S
H61 C62 0.950 . S
C62 C59 1.390 . S
C62 H61 0.950 . S
C62 C63 1.378 . S
C63 C62 1.378 . S
C63 C64 1.409 . S
C64 C60 1.387 . S
C64 C63 1.409 . S
C64 H66 0.951 . S
C65 C60 1.491 . S
C65 C67 1.382 . S
C65 C69 1.404 . S
H66 C64 0.951 . S
C67 C65 1.382 . S
C67 C68 1.390 . S
C67 H72 0.949 . S
C68 C67 1.390 . S
C68 C73 1.399 . S
C69 C65 1.404 . S
C69 H70 0.950 . S
C69 C71 1.375 . S
H70 C69 0.950 . S
C71 C69 1.375 . S
C71 C73 1.382 . S
C71 H75 0.950 . S
H72 C67 0.949 . S
C73 C68 1.399 . S
C73 C71 1.382 . S
C73 H74 0.952 . S
H74 C73 0.952 . S
H75 C71 0.950 . S
H76 C77 0.949 . S
C77 H76 0.949 . S
C77 C78 1.395 . S
C77 C79 1.391 . S
C78 C77 1.395 . S
C78 C81 1.390 . S
C79 C77 1.391 . S
C79 C83 1.387 . S
C79 C84 1.491 . S
H80 C81 0.950 . S
C81 C78 1.390 . S
C81 H80 0.950 . S
C81 C82 1.378 . S
C82 C81 1.378 . S
C82 C83 1.409 . S
C83 C79 1.387 . S
C83 C82 1.409 . S
C83 H85 0.951 . S
C84 C79 1.491 . S
C84 C86 1.382 . S
C84 C88 1.404 . S
H85 C83 0.951 . S
C86 C84 1.382 . S
C86 C87 1.390 . S
C86 H91 0.949 . S
C87 C86 1.390 . S
C87 C92 1.399 . S
C88 C84 1.404 . S
C88 H89 0.950 . S
C88 C90 1.375 . S
H89 C88 0.950 . S
C90 C88 1.375 . S
C90 C92 1.382 . S
C90 H94 0.950 . S
H91 C86 0.949 . S
C92 C87 1.399 . S
C92 C90 1.382 . S
C92 H93 0.952 . S
H93 C92 0.952 . S
H94 C90 0.950 . S
H95 C96 0.949 . S
C96 H95 0.949 . S
C96 C97 1.395 . S
C96 C98 1.391 . S
C97 C96 1.395 . S
C97 C100 1.390 . S
C98 C96 1.391 . S
C98 C102 1.387 . S
C98 C103 1.491 . S
H99 C100 0.950 . S
C100 C97 1.390 . S
C100 H99 0.950 . S
C100 C101 1.378 . S
C101 C100 1.378 . S
C101 C102 1.409 . S
C102 C98 1.387 . S
C102 C101 1.409 . S
C102 H104 0.951 . S
C103 C98 1.491 . S
C103 C105 1.382 . S
C103 C107 1.404 . S
H104 C102 0.951 . S
C105 C103 1.382 . S
C105 C106 1.390 . S
C105 H110 0.949 . S
C106 C105 1.390 . S
C106 C111 1.399 . S
C107 C103 1.404 . S
C107 H108 0.950 . S
C107 C109 1.375 . S
H108 C107 0.950 . S
C109 C107 1.375 . S
C109 C111 1.382 . S
C109 H113 0.950 . S
H110 C105 0.949 . S
C111 C106 1.399 . S
C111 C109 1.382 . S
C111 H112 0.952 . S
H112 C111 0.952 . S
H113 C109 0.950 . S
H114 C115 0.949 . S
C115 H114 0.949 . S
C115 C116 1.395 . S
C115 C117 1.391 . S
C116 C115 1.395 . S
C116 C119 1.390 . S
C117 C115 1.391 . S
C117 C121 1.387 . S
C117 C122 1.491 . S
H118 C119 0.950 . S
C119 C116 1.390 . S
C119 H118 0.950 . S
C119 C120 1.378 . S
C120 C119 1.378 . S
C120 C121 1.409 . S
C121 C117 1.387 . S
C121 C120 1.409 . S
C121 H123 0.951 . S
C122 C117 1.491 . S
C122 C124 1.382 . S
C122 C126 1.404 . S
H123 C121 0.951 . S
C124 C122 1.382 . S
C124 C125 1.390 . S
C124 H129 0.949 . S
C125 C124 1.390 . S
C125 C130 1.399 . S
C126 C122 1.404 . S
C126 H127 0.950 . S
C126 C128 1.375 . S
H127 C126 0.950 . S
C128 C126 1.375 . S
C128 C130 1.382 . S
C128 H132 0.950 . S
H129 C124 0.949 . S
C130 C125 1.399 . S
C130 C128 1.382 . S
C130 H131 0.952 . S
H131 C130 0.952 . S
H132 C128 0.950 . S
H133 C134 0.949 . S
C134 H133 0.949 . S
C134 C135 1.395 . S
C134 C136 1.391 . S
C135 C134 1.395 . S
C135 C138 1.390 . S
C136 C134 1.391 . S
C136 C140 1.387 . S
C136 C141 1.491 . S
H137 C138 0.950 . S
C138 C135 1.390 . S
C138 H137 0.950 . S
C138 C139 1.378 . S
C139 C138 1.378 . S
C139 C140 1.409 . S
C140 C136 1.387 . S
C140 C139 1.409 . S
C140 H142 0.951 . S
C141 C136 1.491 . S
C141 C143 1.382 . S
C141 C145 1.404 . S
H142 C140 0.951 . S
C143 C141 1.382 . S
C143 C144 1.390 . S
C143 H148 0.949 . S
C144 C143 1.390 . S
C144 C149 1.399 . S
C145 C141 1.404 . S
C145 H146 0.950 . S
C145 C147 1.375 . S
H146 C145 0.950 . S
C147 C145 1.375 . S
C147 C149 1.382 . S
C147 H151 0.950 . S
H148 C143 0.949 . S
C149 C144 1.399 . S
C149 C147 1.382 . S
C149 H150 0.952 . S
H150 C149 0.952 . S
H151 C147 0.950 . S
Tb152 N181 2.617 . S
Tb152 N187 2.572 . S
Tb152 O196 2.465 . S
Tb152 O197 2.387 . S
Tb152 O199 2.428 . S
Tb152 O200 2.308 1_455 S
Tb152 O204 2.333 1_455 S
Tb152 O207 2.393 . S
Tb152 C216 2.802 . S
C153 N154 1.379 . S
C153 C156 1.416 . S
C153 C160 1.424 . S
N154 C153 1.379 . S
N154 C157 1.334 . S
N154 Tb163 2.617 . S
C155 C157 1.390 . S
C155 C158 1.339 . S
C155 H175 0.930 . S
C156 C153 1.416 . S
C156 C158 1.416 . S
C156 C162 1.448 . S
C157 N154 1.334 . S
C157 C155 1.390 . S
C157 H168 0.930 . S
C158 C155 1.339 . S
C158 C156 1.416 . S
C158 H179 0.930 . S
C159 C160 1.413 . S
C159 C161 1.427 . S
C159 C165 1.416 1_545 S
C160 C153 1.424 . S
C160 C159 1.413 . S
C160 N164 1.361 . S
C161 C159 1.427 . S
C161 C162 1.328 . S
C161 H176 0.929 1_545 S
C162 C156 1.448 . S
C162 C161 1.328 . S
C162 H177 0.930 . S
Tb163 N154 2.617 . S
Tb163 N164 2.572 . S
Tb163 O198 2.349 1_655 S
Tb163 O201 2.393 . S
Tb163 O202 2.465 . S
Tb163 O203 2.387 . S
Tb163 O205 2.428 . S
Tb163 O206 2.308 1_655 S
Tb163 C227 2.802 . S
N164 C160 1.361 . S
N164 Tb163 2.572 . S
N164 C166 1.340 . S
C165 C159 1.416 1_565 S
C165 C167 1.332 . S
C165 H173 0.931 . S
C166 N164 1.340 . S
C166 C167 1.407 1_545 S
C166 H172 0.930 . S
C167 C165 1.332 . S
C167 C166 1.407 1_565 S
C167 H169 0.929 . S
H168 C157 0.930 . S
H169 C167 0.929 . S
H170 C185 0.930 . S
H171 C192 0.929 . S
H172 C166 0.930 . S
H173 C165 0.931 . S
H174 C188 0.930 . S
H175 C155 0.930 . S
H176 C161 0.929 1_565 S
H177 C162 0.930 . S
H178 C183 0.930 . S
H179 C158 0.930 . S
H180 C191 0.931 . S
N181 Tb152 2.617 . S
N181 C182 1.379 . S
N181 C185 1.334 . S
C182 N181 1.379 . S
C182 C184 1.416 . S
C182 C190 1.424 . S
C183 H178 0.930 . S
C183 C185 1.390 . S
C183 C186 1.339 . S
C184 C182 1.416 . S
C184 C186 1.416 . S
C184 C217 1.448 . S
C185 H170 0.930 . S
C185 N181 1.334 . S
C185 C183 1.390 . S
C186 C183 1.339 . S
C186 C184 1.416 . S
C186 H193 0.930 . S
N187 Tb152 2.572 . S
N187 C188 1.340 . S
N187 C190 1.361 . S
C188 H174 0.930 . S
C188 N187 1.340 . S
C188 C192 1.407 . S
C189 C190 1.413 . S
C189 C191 1.416 . S
C189 C218 1.427 . S
C190 C182 1.424 . S
C190 N187 1.361 . S
C190 C189 1.413 . S
C191 H180 0.931 . S
C191 C189 1.416 . S
C191 C192 1.332 . S
C192 H171 0.929 . S
C192 C188 1.407 . S
C192 C191 1.332 . S
H193 C186 0.930 . S
H194 C217 0.930 . S
H195 C218 0.929 . S
O196 Tb152 2.465 . S
O196 C216 1.264 . S
O197 Tb152 2.387 . S
O197 C208 1.264 . S
O198 Tb163 2.349 1_455 S
O198 C208 1.243 . S
O199 Tb152 2.428 . S
O199 C216 1.256 . S
O200 Tb152 2.308 1_655 S
O200 C215 1.266 . S
O201 Tb163 2.393 . S
O201 C215 1.248 . S
O202 Tb163 2.465 . S
O202 C227 1.264 . S
O203 Tb163 2.387 . S
O203 C219 1.264 . S
O204 Tb152 2.333 1_655 S
O204 C219 1.263 . S
O205 Tb163 2.428 . S
O205 C227 1.256 . S
O206 Tb163 2.308 1_455 S
O206 C226 1.266 . S
O207 Tb152 2.393 . S
O207 C226 1.248 . S
C208 O197 1.264 . S
C208 O198 1.243 . S
C209 C212 1.399 . S
C209 C214 1.383 . S
C209 C216 1.496 . S
C210 C211 1.399 . S
C210 C214 1.389 . S
C211 C210 1.399 . S
C211 C213 1.380 . S
C211 H228 0.929 . S
C212 C209 1.399 . S
C212 C213 1.392 . S
C212 H229 0.929 . S
C213 C211 1.380 . S
C213 C212 1.392 . S
C213 H230 0.929 . S
C214 C209 1.383 . S
C214 C210 1.389 . S
C214 H231 0.931 . S
C215 O200 1.266 . S
C215 O201 1.248 . S
C216 Tb152 2.802 . S
C216 O196 1.264 . S
C216 O199 1.256 . S
C216 C209 1.496 . S
C217 C184 1.448 . S
C217 H194 0.930 . S
C217 C218 1.328 . S
C218 C189 1.427 . S
C218 H195 0.929 . S
C218 C217 1.328 . S
C219 O203 1.264 . S
C219 O204 1.263 . S
C220 C223 1.399 . S
C220 C224 1.383 . S
C220 C227 1.496 . S
C221 C222 1.399 . S
C221 C224 1.389 . S
C222 C221 1.399 . S
C222 C225 1.380 . S
C222 H232 0.929 . S
C223 C220 1.399 . S
C223 C225 1.392 . S
C223 H233 0.929 . S
C224 C220 1.383 . S
C224 C221 1.389 . S
C224 H234 0.931 . S
C225 C222 1.380 . S
C225 C223 1.392 . S
C225 H235 0.929 . S
C226 O206 1.266 . S
C226 O207 1.248 . S
C227 Tb163 2.802 . S
C227 O202 1.264 . S
C227 O205 1.256 . S
C227 C220 1.496 . S
H228 C211 0.929 . S
H229 C212 0.929 . S
H230 C213 0.929 . S
H231 C214 0.931 . S
H232 C222 0.929 . S
H233 C223 0.929 . S
H234 C224 0.931 . S
H235 C225 0.929 . S
Tb236 N265 2.617 . S
Tb236 N271 2.572 . S
Tb236 O280 2.465 . S
Tb236 O281 2.387 . S
Tb236 O283 2.428 . S
Tb236 O284 2.308 . S
Tb236 O288 2.349 . S
Tb236 O291 2.393 . S
Tb236 C300 2.802 . S
C237 N238 1.379 . S
C237 C240 1.416 . S
C237 C244 1.424 . S
N238 C237 1.379 . S
N238 C241 1.334 . S
N238 Tb247 2.617 . S
C239 C241 1.390 . S
C239 C242 1.339 . S
C239 H259 0.930 . S
C240 C237 1.416 . S
C240 C242 1.416 . S
C240 C246 1.448 . S
C241 N238 1.334 . S
C241 C239 1.390 . S
C241 H252 0.930 . S
C242 C239 1.339 . S
C242 C240 1.416 . S
C242 H263 0.930 . S
C243 C244 1.413 . S
C243 C245 1.427 . S
C243 C249 1.416 . S
C244 C237 1.424 . S
C244 C243 1.413 . S
C244 N248 1.361 . S
C245 C243 1.427 . S
C245 C246 1.328 . S
C245 H260 0.929 . S
C246 C240 1.448 . S
C246 C245 1.328 . S
C246 H261 0.930 . S
Tb247 N238 2.617 . S
Tb247 N248 2.572 . S
Tb247 O282 2.349 . S
Tb247 O285 2.393 . S
Tb247 O286 2.465 . S
Tb247 O287 2.387 . S
Tb247 O289 2.428 . S
Tb247 O290 2.308 . S
Tb247 C311 2.802 . S
N248 C244 1.361 . S
N248 Tb247 2.572 . S
N248 C250 1.340 . S
C249 C243 1.416 . S
C249 C251 1.332 . S
C249 H257 0.931 . S
C250 N248 1.340 . S
C250 C251 1.407 . S
C250 H256 0.930 . S
C251 C249 1.332 . S
C251 C250 1.407 . S
C251 H253 0.929 . S
H252 C241 0.930 . S
H253 C251 0.929 . S
H254 C269 0.930 . S
H255 C276 0.929 . S
H256 C250 0.930 . S
H257 C249 0.931 . S
H258 C272 0.930 . S
H259 C239 0.930 . S
H260 C245 0.929 . S
H261 C246 0.930 . S
H262 C267 0.930 . S
H263 C242 0.930 . S
H264 C275 0.931 . S
N265 Tb236 2.617 . S
N265 C266 1.379 . S
N265 C269 1.334 . S
C266 N265 1.379 . S
C266 C268 1.416 . S
C266 C274 1.424 . S
C267 H262 0.930 . S
C267 C269 1.390 . S
C267 C270 1.339 . S
C268 C266 1.416 . S
C268 C270 1.416 . S
C268 C301 1.448 . S
C269 H254 0.930 . S
C269 N265 1.334 . S
C269 C267 1.390 . S
C270 C267 1.339 . S
C270 C268 1.416 . S
C270 H277 0.930 . S
N271 Tb236 2.572 . S
N271 C272 1.340 . S
N271 C274 1.361 . S
C272 H258 0.930 . S
C272 N271 1.340 . S
C272 C276 1.407 . S
C273 C274 1.413 . S
C273 C275 1.416 . S
C273 C302 1.427 . S
C274 C266 1.424 . S
C274 N271 1.361 . S
C274 C273 1.413 . S
C275 H264 0.931 . S
C275 C273 1.416 . S
C275 C276 1.332 . S
C276 H255 0.929 . S
C276 C272 1.407 . S
C276 C275 1.332 . S
H277 C270 0.930 . S
H278 C301 0.930 . S
H279 C302 0.929 . S
O280 Tb236 2.465 . S
O280 C300 1.264 . S
O281 Tb236 2.387 . S
O281 C292 1.264 . S
O282 Tb247 2.349 . S
O282 C292 1.243 . S
O283 Tb236 2.428 . S
O283 C300 1.256 . S
O284 Tb236 2.308 . S
O284 C299 1.266 . S
O285 Tb247 2.393 . S
O285 C299 1.248 . S
O286 Tb247 2.465 . S
O286 C311 1.264 . S
O287 Tb247 2.387 . S
O287 C303 1.264 . S
O288 Tb236 2.349 . S
O288 C303 1.243 . S
O289 Tb247 2.428 . S
O289 C311 1.256 . S
O290 Tb247 2.308 . S
O290 C310 1.266 . S
O291 Tb236 2.393 . S
O291 C310 1.248 . S
C292 O281 1.264 . S
C292 O282 1.243 . S
C293 C296 1.399 . S
C293 C298 1.383 . S
C293 C300 1.496 . S
C294 C295 1.399 . S
C294 C298 1.389 . S
C295 C294 1.399 . S
C295 C297 1.380 . S
C295 H312 0.929 . S
C296 C293 1.399 . S
C296 C297 1.392 . S
C296 H313 0.929 . S
C297 C295 1.380 . S
C297 C296 1.392 . S
C297 H314 0.929 . S
C298 C293 1.383 . S
C298 C294 1.389 . S
C298 H315 0.931 . S
C299 O284 1.266 . S
C299 O285 1.248 . S
C300 Tb236 2.802 . S
C300 O280 1.264 . S
C300 O283 1.256 . S
C300 C293 1.496 . S
C301 C268 1.448 . S
C301 H278 0.930 . S
C301 C302 1.328 . S
C302 C273 1.427 . S
C302 H279 0.929 . S
C302 C301 1.328 . S
C303 O287 1.264 . S
C303 O288 1.243 . S
C304 C307 1.399 . S
C304 C308 1.383 . S
C304 C311 1.496 . S
C305 C306 1.399 . S
C305 C308 1.389 . S
C306 C305 1.399 . S
C306 C309 1.380 . S
C306 H316 0.929 . S
C307 C304 1.399 . S
C307 C309 1.392 . S
C307 H317 0.929 . S
C308 C304 1.383 . S
C308 C305 1.389 . S
C308 H318 0.931 . S
C309 C306 1.380 . S
C309 C307 1.392 . S
C309 H319 0.929 . S
C310 O290 1.266 . S
C310 O291 1.248 . S
C311 Tb247 2.802 . S
C311 O286 1.264 . S
C311 O289 1.256 . S
C311 C304 1.496 . S
H312 C295 0.929 . S
H313 C296 0.929 . S
H314 C297 0.929 . S
H315 C298 0.931 . S
H316 C306 0.929 . S
H317 C307 0.929 . S
H318 C308 0.931 . S
H319 C309 0.929 . S
Tb320 N349 2.617 . S
Tb320 N355 2.572 . S
Tb320 O364 2.465 . S
Tb320 O365 2.387 . S
Tb320 O367 2.428 . S
Tb320 O368 2.322 . S
Tb320 O372 2.349 . S
Tb320 O375 2.393 . S
Tb320 C384 2.802 . S
C321 N322 1.379 . S
C321 C324 1.416 . S
C321 C328 1.424 . S
N322 C321 1.379 . S
N322 C325 1.334 . S
N322 Tb331 2.617 . S
C323 C325 1.390 . S
C323 C326 1.339 . S
C323 H343 0.930 . S
C324 C321 1.416 . S
C324 C326 1.416 . S
C324 C330 1.448 . S
C325 N322 1.334 . S
C325 C323 1.390 . S
C325 H336 0.930 . S
C326 C323 1.339 . S
C326 C324 1.416 . S
C326 H347 0.930 . S
C327 C328 1.413 . S
C327 C329 1.427 . S
C327 C333 1.416 . S
C328 C321 1.424 . S
C328 C327 1.413 . S
C328 N332 1.361 . S
C329 C327 1.427 . S
C329 C330 1.328 . S
C329 H344 0.929 . S
C330 C324 1.448 . S
C330 C329 1.328 . S
C330 H345 0.930 . S
Tb331 N322 2.617 . S
Tb331 N332 2.572 . S
Tb331 O366 2.349 1_655 S
Tb331 O369 2.393 . S
Tb331 O370 2.465 . S
Tb331 O371 2.387 . S
Tb331 O373 2.428 . S
Tb331 O374 2.308 1_655 S
Tb331 C395 2.802 . S
N332 C328 1.361 . S
N332 Tb331 2.572 . S
N332 C334 1.340 . S
C333 C327 1.416 . S
C333 C335 1.332 . S
C333 H341 0.931 . S
C334 N332 1.340 . S
C334 C335 1.407 . S
C334 H340 0.930 . S
C335 C333 1.332 . S
C335 C334 1.407 . S
C335 H337 0.929 . S
H336 C325 0.930 . S
H337 C335 0.929 . S
H338 C353 0.930 . S
H339 C360 0.929 . S
H340 C334 0.930 . S
H341 C333 0.931 . S
H342 C356 0.930 . S
H343 C323 0.930 . S
H344 C329 0.929 . S
H345 C330 0.930 . S
H346 C351 0.930 . S
H347 C326 0.930 . S
H348 C359 0.931 . S
N349 Tb320 2.617 . S
N349 C350 1.379 . S
N349 C353 1.334 . S
C350 N349 1.379 . S
C350 C352 1.416 . S
C350 C358 1.424 . S
C351 H346 0.930 . S
C351 C353 1.390 . S
C351 C354 1.339 . S
C352 C350 1.416 . S
C352 C354 1.416 . S
C352 C385 1.448 . S
C353 H338 0.930 . S
C353 N349 1.334 . S
C353 C351 1.390 . S
C354 C351 1.339 . S
C354 C352 1.416 . S
C354 H361 0.930 . S
N355 Tb320 2.572 . S
N355 C356 1.340 . S
N355 C358 1.361 . S
C356 H342 0.930 . S
C356 N355 1.340 . S
C356 C360 1.407 1_565 S
C357 C358 1.413 . S
C357 C359 1.416 1_565 S
C357 C386 1.427 . S
C358 C350 1.424 . S
C358 N355 1.361 . S
C358 C357 1.413 . S
C359 H348 0.931 . S
C359 C357 1.416 1_545 S
C359 C360 1.332 . S
C360 H339 0.929 . S
C360 C356 1.407 1_545 S
C360 C359 1.332 . S
H361 C354 0.930 . S
H362 C385 0.930 . S
H363 C386 0.929 1_545 S
O364 Tb320 2.465 . S
O364 C384 1.264 . S
O365 Tb320 2.387 . S
O365 C376 1.264 . S
O366 Tb331 2.349 1_455 S
O366 C376 1.243 . S
O367 Tb320 2.428 . S
O367 C384 1.256 . S
O368 Tb320 2.322 . S
O368 C383 1.249 1_455 S
O369 Tb331 2.393 . S
O369 C383 1.248 . S
O370 Tb331 2.465 . S
O370 C395 1.264 . S
O371 Tb331 2.387 . S
O371 C387 1.264 . S
O372 Tb320 2.349 . S
O372 C387 1.243 1_455 S
O373 Tb331 2.428 . S
O373 C395 1.256 . S
O374 Tb331 2.308 1_455 S
O374 C394 1.266 . S
O375 Tb320 2.393 . S
O375 C394 1.248 . S
C376 O365 1.264 . S
C376 O366 1.243 . S
C377 C380 1.399 . S
C377 C382 1.383 . S
C377 C384 1.496 . S
C378 C379 1.399 . S
C378 C382 1.389 . S
C379 C378 1.399 . S
C379 C381 1.380 . S
C379 H396 0.929 . S
C380 C377 1.399 . S
C380 C381 1.392 . S
C380 H397 0.929 . S
C381 C379 1.380 . S
C381 C380 1.392 . S
C381 H398 0.929 . S
C382 C377 1.383 . S
C382 C378 1.389 . S
C382 H399 0.931 . S
C383 O368 1.249 1_655 S
C383 O369 1.248 . S
C384 Tb320 2.802 . S
C384 O364 1.264 . S
C384 O367 1.256 . S
C384 C377 1.496 . S
C385 C352 1.448 . S
C385 H362 0.930 . S
C385 C386 1.328 . S
C386 C357 1.427 . S
C386 H363 0.929 1_565 S
C386 C385 1.328 . S
C387 O371 1.264 . S
C387 O372 1.243 1_655 S
C388 C391 1.399 . S
C388 C392 1.383 . S
C388 C395 1.496 . S
C389 C390 1.399 . S
C389 C392 1.389 . S
C390 C389 1.399 . S
C390 C393 1.380 . S
C390 H400 0.929 . S
C391 C388 1.399 . S
C391 C393 1.392 . S
C391 H401 0.929 . S
C392 C388 1.383 . S
C392 C389 1.389 . S
C392 H402 0.931 . S
C393 C390 1.380 . S
C393 C391 1.392 . S
C393 H403 0.929 . S
C394 O374 1.266 . S
C394 O375 1.248 . S
C395 Tb331 2.802 . S
C395 O370 1.264 . S
C395 O373 1.256 . S
C395 C388 1.496 . S
H396 C379 0.929 . S
H397 C380 0.929 . S
H398 C381 0.929 . S
H399 C382 0.931 . S
H400 C390 0.929 . S
H401 C391 0.929 . S
H402 C392 0.931 . S
H403 C393 0.929 . S
Tb404 N433 2.617 . S
Tb404 N439 2.572 . S
Tb404 O448 2.465 . S
Tb404 O449 2.387 . S
Tb404 O451 2.428 . S
Tb404 O452 2.308 . S
Tb404 O456 2.349 . S
Tb404 O459 2.393 . S
Tb404 C468 2.802 . S
C405 N406 1.379 . S
C405 C408 1.416 . S
C405 C412 1.424 . S
N406 C405 1.379 . S
N406 C409 1.334 . S
N406 Tb415 2.617 . S
C407 C409 1.390 . S
C407 C410 1.339 . S
C407 H427 0.930 . S
C408 C405 1.416 . S
C408 C410 1.416 . S
C408 C414 1.448 . S
C409 N406 1.334 . S
C409 C407 1.390 . S
C409 H420 0.930 . S
C410 C407 1.339 . S
C410 C408 1.416 . S
C410 H431 0.930 . S
C411 C412 1.413 . S
C411 C413 1.427 . S
C411 C417 1.416 . S
C412 C405 1.424 . S
C412 C411 1.413 . S
C412 N416 1.361 . S
C413 C411 1.427 . S
C413 C414 1.328 . S
C413 H428 0.929 . S
C414 C408 1.448 . S
C414 C413 1.328 . S
C414 H429 0.930 . S
Tb415 N406 2.617 . S
Tb415 N416 2.572 . S
Tb415 O450 2.349 . S
Tb415 O453 2.393 . S
Tb415 O454 2.465 . S
Tb415 O455 2.387 . S
Tb415 O457 2.428 . S
Tb415 O458 2.308 . S
Tb415 C479 2.802 . S
N416 C412 1.361 . S
N416 Tb415 2.572 . S
N416 C418 1.340 . S
C417 C411 1.416 . S
C417 C419 1.332 . S
C417 H425 0.931 . S
C418 N416 1.340 . S
C418 C419 1.407 . S
C418 H424 0.930 . S
C419 C417 1.332 . S
C419 C418 1.407 . S
C419 H421 0.929 . S
H420 C409 0.930 . S
H421 C419 0.929 . S
H422 C437 0.930 . S
H423 C444 0.929 . S
H424 C418 0.930 . S
H425 C417 0.931 . S
H426 C440 0.930 . S
H427 C407 0.930 . S
H428 C413 0.929 . S
H429 C414 0.930 . S
H430 C435 0.930 . S
H431 C410 0.930 . S
H432 C443 0.931 . S
N433 Tb404 2.617 . S
N433 C434 1.379 . S
N433 C437 1.334 . S
C434 N433 1.379 . S
C434 C436 1.416 . S
C434 C442 1.424 . S
C435 H430 0.930 . S
C435 C437 1.390 . S
C435 C438 1.339 . S
C436 C434 1.416 . S
C436 C438 1.416 . S
C436 C469 1.448 . S
C437 H422 0.930 . S
C437 N433 1.334 . S
C437 C435 1.390 . S
C438 C435 1.339 . S
C438 C436 1.416 . S
C438 H445 0.930 . S
N439 Tb404 2.572 . S
N439 C440 1.340 . S
N439 C442 1.361 . S
C440 H426 0.930 . S
C440 N439 1.340 . S
C440 C444 1.407 . S
C441 C442 1.413 . S
C441 C443 1.416 . S
C441 C470 1.427 . S
C442 C434 1.424 . S
C442 N439 1.361 . S
C442 C441 1.413 . S
C443 H432 0.931 . S
C443 C441 1.416 . S
C443 C444 1.332 . S
C444 H423 0.929 . S
C444 C440 1.407 . S
C444 C443 1.332 . S
H445 C438 0.930 . S
H446 C469 0.930 . S
H447 C470 0.929 . S
O448 Tb404 2.465 . S
O448 C468 1.264 . S
O449 Tb404 2.387 . S
O449 C460 1.264 . S
O450 Tb415 2.349 . S
O450 C460 1.243 . S
O451 Tb404 2.428 . S
O451 C468 1.256 . S
O452 Tb404 2.308 . S
O452 C467 1.266 . S
O453 Tb415 2.393 . S
O453 C467 1.248 . S
O454 Tb415 2.465 . S
O454 C479 1.264 . S
O455 Tb415 2.387 . S
O455 C471 1.264 . S
O456 Tb404 2.349 . S
O456 C471 1.243 . S
O457 Tb415 2.428 . S
O457 C479 1.256 . S
O458 Tb415 2.308 . S
O458 C478 1.266 . S
O459 Tb404 2.393 . S
O459 C478 1.248 . S
C460 O449 1.264 . S
C460 O450 1.243 . S
C461 C464 1.399 . S
C461 C466 1.383 . S
C461 C468 1.496 . S
C462 C463 1.399 . S
C462 C466 1.389 . S
C463 C462 1.399 . S
C463 C465 1.380 . S
C463 H480 0.929 . S
C464 C461 1.399 . S
C464 C465 1.392 . S
C464 H481 0.929 . S
C465 C463 1.380 . S
C465 C464 1.392 . S
C465 H482 0.929 . S
C466 C461 1.383 . S
C466 C462 1.389 . S
C466 H483 0.931 . S
C467 O452 1.266 . S
C467 O453 1.248 . S
C468 Tb404 2.802 . S
C468 O448 1.264 . S
C468 O451 1.256 . S
C468 C461 1.496 . S
C469 C436 1.448 . S
C469 H446 0.930 . S
C469 C470 1.328 . S
C470 C441 1.427 . S
C470 H447 0.929 . S
C470 C469 1.328 . S
C471 O455 1.264 . S
C471 O456 1.243 . S
C472 C475 1.399 . S
C472 C476 1.383 . S
C472 C479 1.496 . S
C473 C474 1.399 . S
C473 C476 1.389 . S
C474 C473 1.399 . S
C474 C477 1.380 . S
C474 H484 0.929 . S
C475 C472 1.399 . S
C475 C477 1.392 . S
C475 H485 0.929 . S
C476 C472 1.383 . S
C476 C473 1.389 . S
C476 H486 0.931 . S
C477 C474 1.380 . S
C477 C475 1.392 . S
C477 H487 0.929 . S
C478 O458 1.266 . S
C478 O459 1.248 . S
C479 Tb415 2.802 . S
C479 O454 1.264 . S
C479 O457 1.256 . S
C479 C472 1.496 . S
H480 C463 0.929 . S
H481 C464 0.929 . S
H482 C465 0.929 . S
H483 C466 0.931 . S
H484 C474 0.929 . S
H485 C475 0.929 . S
H486 C476 0.931 . S
H487 C477 0.929 . S
H488 C496 0.950 . S
H489 C501 0.950 . S
H490 C498 0.950 . S
H491 C500 0.950 . S
H492 C502 0.950 . S
H493 C504 0.946 1_545 S
H494 C506 0.950 . S
H495 C507 0.950 . S
C496 H488 0.950 . S
C496 C497 1.386 . S
C496 C498 1.391 . S
C497 C496 1.386 . S
C497 C501 1.393 . S
C498 H490 0.950 . S
C498 C496 1.391 . S
C498 C499 1.400 . S
C499 C498 1.400 . S
C499 C500 1.398 . S
C499 C505 1.491 . S
C500 H491 0.950 . S
C500 C499 1.398 . S
C500 C501 1.391 . S
C501 H489 0.950 . S
C501 C497 1.393 . S
C501 C500 1.391 . S
C502 H492 0.950 . S
C502 C503 1.386 . S
C502 C504 1.378 1_545 S
C503 C502 1.386 . S
C503 C507 1.393 1_545 S
C504 H493 0.946 1_565 S
C504 C502 1.378 1_565 S
C504 C505 1.418 . S
C505 C499 1.491 . S
C505 C504 1.418 . S
C505 C506 1.398 . S
C506 H494 0.950 . S
C506 C505 1.398 . S
C506 C507 1.391 . S
C507 H495 0.950 . S
C507 C503 1.393 1_565 S
C507 C506 1.391 . S
H508 C516 0.950 . S
H509 C521 0.950 . S
H510 C518 0.950 . S
H511 C520 0.950 . S
H512 C522 0.950 . S
H513 C524 0.950 . S
H514 C526 0.950 . S
H515 C527 0.950 . S
C516 H508 0.950 . S
C516 C517 1.386 . S
C516 C518 1.391 . S
C517 C516 1.386 . S
C517 C521 1.393 . S
C518 H510 0.950 . S
C518 C516 1.391 . S
C518 C519 1.400 . S
C519 C518 1.400 . S
C519 C520 1.398 . S
C519 C525 1.491 . S
C520 H511 0.950 . S
C520 C519 1.398 . S
C520 C521 1.391 . S
C521 H509 0.950 . S
C521 C517 1.393 . S
C521 C520 1.391 . S
C522 H512 0.950 . S
C522 C523 1.386 . S
C522 C524 1.391 . S
C523 C522 1.386 . S
C523 C527 1.393 . S
C524 H513 0.950 . S
C524 C522 1.391 . S
C524 C525 1.400 . S
C525 C519 1.491 . S
C525 C524 1.400 . S
C525 C526 1.398 . S
C526 H514 0.950 . S
C526 C525 1.398 . S
C526 C527 1.391 . S
C527 H515 0.950 . S
C527 C523 1.393 . S
C527 C526 1.391 . S
H528 C536 0.950 . S
H529 C541 0.950 . S
H530 C538 0.950 . S
H531 C540 0.950 . S
H532 C542 0.950 . S
H533 C544 0.950 . S
H534 C546 0.950 . S
H535 C547 0.950 . S
C536 H528 0.950 . S
C536 C537 1.386 . S
C536 C538 1.391 . S
C537 C536 1.386 . S
C537 C541 1.393 . S
C538 H530 0.950 . S
C538 C536 1.391 . S
C538 C539 1.400 . S
C539 C538 1.400 . S
C539 C540 1.398 . S
C539 C545 1.491 . S
C540 H531 0.950 . S
C540 C539 1.398 . S
C540 C541 1.391 . S
C541 H529 0.950 . S
C541 C537 1.393 . S
C541 C540 1.391 . S
C542 H532 0.950 . S
C542 C543 1.386 . S
C542 C544 1.391 . S
C543 C542 1.386 . S
C543 C547 1.393 . S
C544 H533 0.950 . S
C544 C542 1.391 . S
C544 C545 1.400 . S
C545 C539 1.491 . S
C545 C544 1.400 . S
C545 C546 1.398 . S
C546 H534 0.950 . S
C546 C545 1.398 . S
C546 C547 1.391 . S
C547 H535 0.950 . S
C547 C543 1.393 . S
C547 C546 1.391 . S
H548 C556 0.950 . S
H549 C561 0.950 . S
H550 C558 0.950 . S
H551 C560 0.950 . S
H552 C562 0.950 . S
H553 C564 0.950 . S
H554 C566 0.950 1_545 S
H555 C567 0.950 . S
C556 H548 0.950 . S
C556 C557 1.386 . S
C556 C558 1.391 . S
C557 C556 1.386 . S
C557 C561 1.393 . S
C558 H550 0.950 . S
C558 C556 1.391 . S
C558 C559 1.400 . S
C559 C558 1.400 . S
C559 C560 1.398 . S
C559 C565 1.491 . S
C560 H551 0.950 . S
C560 C559 1.398 . S
C560 C561 1.391 . S
C561 H549 0.950 . S
C561 C557 1.393 . S
C561 C560 1.391 . S
C562 H552 0.950 . S
C562 C563 1.386 1_565 S
C562 C564 1.391 . S
C563 C562 1.386 1_545 S
C563 C567 1.393 . S
C564 H553 0.950 . S
C564 C562 1.391 . S
C564 C565 1.400 . S
C565 C559 1.491 . S
C565 C564 1.400 . S
C565 C566 1.398 . S
C566 H554 0.950 1_565 S
C566 C565 1.398 . S
C566 C567 1.391 1_565 S
C567 H555 0.950 . S
C567 C563 1.393 . S
C567 C566 1.391 1_545 S
H568 C576 0.950 . S
H569 C581 0.950 . S
H570 C578 0.950 . S
H571 C580 0.950 . S
H572 C582 0.950 . S
H573 C584 0.950 . S
H574 C586 0.950 . S
H575 C587 0.950 . S
C576 H568 0.950 . S
C576 C577 1.386 . S
C576 C578 1.391 . S
C577 C576 1.386 . S
C577 C581 1.393 . S
C578 H570 0.950 . S
C578 C576 1.391 . S
C578 C579 1.400 . S
C579 C578 1.400 . S
C579 C580 1.398 . S
C579 C585 1.491 . S
C580 H571 0.950 . S
C580 C579 1.398 . S
C580 C581 1.391 . S
C581 H569 0.950 . S
C581 C577 1.393 . S
C581 C580 1.391 . S
C582 H572 0.950 . S
C582 C583 1.386 . S
C582 C584 1.391 . S
C583 C582 1.386 . S
C583 C587 1.393 1_565 S
C584 H573 0.950 . S
C584 C582 1.391 . S
C584 C585 1.400 1_565 S
C585 C579 1.491 . S
C585 C584 1.400 1_545 S
C585 C586 1.398 . S
C586 H574 0.950 . S
C586 C585 1.398 . S
C586 C587 1.391 . S
C587 H575 0.950 . S
C587 C583 1.393 1_545 S
C587 C586 1.391 . S
H588 C596 0.950 . S
H589 C601 0.950 . S
H590 C598 0.950 . S
H591 C600 0.950 . S
H592 C602 0.950 . S
H593 C604 0.950 . S
H594 C606 0.950 . S
H595 C607 0.950 . S
C596 H588 0.950 . S
C596 C597 1.386 . S
C596 C598 1.391 . S
C597 C596 1.386 . S
C597 C601 1.393 . S
C598 H590 0.950 . S
C598 C596 1.391 . S
C598 C599 1.400 . S
C599 C598 1.400 . S
C599 C600 1.398 . S
C599 C605 1.491 . S
C600 H591 0.950 . S
C600 C599 1.398 . S
C600 C601 1.391 . S
C601 H589 0.950 . S
C601 C597 1.393 . S
C601 C600 1.391 . S
C602 H592 0.950 . S
C602 C603 1.386 . S
C602 C604 1.391 . S
C603 C602 1.386 . S
C603 C607 1.393 . S
C604 H593 0.950 . S
C604 C602 1.391 . S
C604 C605 1.400 . S
C605 C599 1.491 . S
C605 C604 1.400 . S
C605 C606 1.398 . S
C606 H594 0.950 . S
C606 C605 1.398 . S
C606 C607 1.391 . S
C607 H595 0.950 . S
C607 C603 1.393 . S
C607 C606 1.391 . S
H608 C616 0.950 . S
H609 C621 0.950 . S
H610 C618 0.950 . S
H611 C620 0.950 . S
H612 C622 0.950 . S
H613 C624 0.950 . S
H614 C626 0.950 . S
H615 C627 0.950 . S
C616 H608 0.950 . S
C616 C617 1.386 . S
C616 C618 1.391 . S
C617 C616 1.386 . S
C617 C621 1.393 . S
C618 H610 0.950 . S
C618 C616 1.391 . S
C618 C619 1.400 . S
C619 C618 1.400 . S
C619 C620 1.398 . S
C619 C625 1.491 . S
C620 H611 0.950 . S
C620 C619 1.398 . S
C620 C621 1.391 . S
C621 H609 0.950 . S
C621 C617 1.393 . S
C621 C620 1.391 . S
C622 H612 0.950 . S
C622 C623 1.386 . S
C622 C624 1.391 . S
C623 C622 1.386 . S
C623 C627 1.393 . S
C624 H613 0.950 . S
C624 C622 1.391 . S
C624 C625 1.400 . S
C625 C619 1.491 . S
C625 C624 1.400 . S
C625 C626 1.398 . S
C626 H614 0.950 . S
C626 C625 1.398 . S
C626 C627 1.391 . S
C627 H615 0.950 . S
C627 C623 1.393 . S
C627 C626 1.391 . S
H628 C636 0.950 . S
H629 C641 0.950 . S
H630 C638 0.950 . S
H631 C640 0.950 . S
H632 C642 0.950 . S
H633 C644 0.950 . S
H634 C646 0.950 . S
H635 C647 0.950 . S
C636 H628 0.950 . S
C636 C637 1.386 . S
C636 C638 1.391 . S
C637 C636 1.386 . S
C637 C641 1.393 . S
C638 H630 0.950 . S
C638 C636 1.391 . S
C638 C639 1.400 . S
C639 C638 1.400 . S
C639 C640 1.398 . S
C639 C645 1.491 . S
C640 H631 0.950 . S
C640 C639 1.398 . S
C640 C641 1.391 . S
C641 H629 0.950 . S
C641 C637 1.393 . S
C641 C640 1.391 . S
C642 H632 0.950 . S
C642 C643 1.386 . S
C642 C644 1.391 . S
C643 C642 1.386 . S
C643 C647 1.393 1_565 S
C644 H633 0.950 . S
C644 C642 1.391 . S
C644 C645 1.400 1_565 S
C645 C639 1.491 . S
C645 C644 1.400 1_545 S
C645 C646 1.398 . S
C646 H634 0.950 . S
C646 C645 1.398 . S
C646 C647 1.391 . S
C647 H635 0.950 . S
C647 C643 1.393 1_545 S
C647 C646 1.391 . S
H648 C656 0.950 . S
H649 C661 0.950 . S
H650 C658 0.950 . S
H651 C660 0.950 . S
H652 C662 0.950 . S
H653 C664 0.950 . S
H654 C666 0.950 . S
H655 C667 0.950 . S
C656 H648 0.950 . S
C656 C657 1.386 . S
C656 C658 1.391 . S
C657 C656 1.386 . S
C657 C661 1.393 . S
C658 H650 0.950 . S
C658 C656 1.391 . S
C658 C659 1.400 1_556 S
C659 C658 1.400 1_554 S
C659 C660 1.398 . S
C659 C665 1.491 . S
C660 H651 0.950 . S
C660 C659 1.398 . S
C660 C661 1.391 1_554 S
C661 H649 0.950 . S
C661 C657 1.393 . S
C661 C660 1.391 1_556 S
C662 H652 0.950 . S
C662 C663 1.386 . S
C662 C664 1.391 . S
C663 C662 1.386 . S
C663 C667 1.393 . S
C664 H653 0.950 . S
C664 C662 1.391 . S
C664 C665 1.400 . S
C665 C659 1.491 . S
C665 C664 1.400 . S
C665 C666 1.398 . S
C666 H654 0.950 . S
C666 C665 1.398 . S
C666 C667 1.391 . S
C667 H655 0.950 . S
C667 C663 1.393 . S
C667 C666 1.391 . S
H668 C676 0.950 . S
H669 C681 0.950 . S
H670 C678 0.950 . S
H671 C680 0.950 . S
H672 C682 0.950 . S
H673 C684 0.950 . S
H674 C686 0.950 . S
H675 C687 0.950 . S
C676 H668 0.950 . S
C676 C677 1.386 . S
C676 C678 1.391 . S
C677 C676 1.386 . S
C677 C681 1.393 . S
C678 H670 0.950 . S
C678 C676 1.391 . S
C678 C679 1.400 . S
C679 C678 1.400 . S
C679 C680 1.398 . S
C679 C685 1.491 . S
C680 H671 0.950 . S
C680 C679 1.398 . S
C680 C681 1.391 . S
C681 H669 0.950 . S
C681 C677 1.393 . S
C681 C680 1.391 . S
C682 H672 0.950 . S
C682 C683 1.386 . S
C682 C684 1.391 . S
C683 C682 1.386 . S
C683 C687 1.393 . S
C684 H673 0.950 . S
C684 C682 1.391 . S
C684 C685 1.400 . S
C685 C679 1.491 . S
C685 C684 1.400 . S
C685 C686 1.398 . S
C686 H674 0.950 . S
C686 C685 1.398 . S
C686 C687 1.391 . S
C687 H675 0.950 . S
C687 C683 1.393 . S
C687 C686 1.391 . S
H688 C696 0.950 . S
H689 C701 0.950 . S
H690 C698 0.958 . S
H691 C700 0.950 . S
H692 C702 0.950 . S
H693 C704 0.950 . S
H694 C706 0.950 . S
H695 C707 0.950 . S
C696 H688 0.950 . S
C696 C697 1.386 . S
C696 C698 1.378 1_554 S
C697 C696 1.386 . S
C697 C701 1.393 . S
C698 H690 0.958 . S
C698 C696 1.378 1_556 S
C698 C699 1.406 . S
C699 C698 1.406 . S
C699 C700 1.398 1_556 S
C699 C705 1.491 . S
C700 H691 0.950 . S
C700 C699 1.398 1_554 S
C700 C701 1.391 . S
C701 H689 0.950 . S
C701 C697 1.393 . S
C701 C700 1.391 . S
C702 H692 0.950 . S
C702 C703 1.386 . S
C702 C704 1.391 . S
C703 C702 1.386 . S
C703 C707 1.393 . S
C704 H693 0.950 . S
C704 C702 1.391 . S
C704 C705 1.400 . S
C705 C699 1.491 . S
C705 C704 1.400 . S
C705 C706 1.398 . S
C706 H694 0.950 . S
C706 C705 1.398 . S
C706 C707 1.391 . S
C707 H695 0.950 . S
C707 C703 1.393 . S
C707 C706 1.391 . S
H708 C716 0.950 . S
H709 C721 0.950 . S
H710 C718 0.950 . S
H711 C720 0.950 . S
H712 C722 0.950 . S
H713 C724 0.950 . S
H714 C726 0.950 . S
H715 C727 0.950 . S
C716 H708 0.950 . S
C716 C717 1.386 . S
C716 C718 1.391 . S
C717 C716 1.386 . S
C717 C721 1.393 . S
C718 H710 0.950 . S
C718 C716 1.391 . S
C718 C719 1.400 . S
C719 C718 1.400 . S
C719 C720 1.398 . S
C719 C725 1.491 . S
C720 H711 0.950 . S
C720 C719 1.398 . S
C720 C721 1.391 . S
C721 H709 0.950 . S
C721 C717 1.393 . S
C721 C720 1.391 . S
C722 H712 0.950 . S
C722 C723 1.386 . S
C722 C724 1.391 . S
C723 C722 1.386 . S
C723 C727 1.393 . S
C724 H713 0.950 . S
C724 C722 1.391 . S
C724 C725 1.400 . S
C725 C719 1.491 . S
C725 C724 1.400 . S
C725 C726 1.398 . S
C726 H714 0.950 . S
C726 C725 1.398 . S
C726 C727 1.391 . S
C727 H715 0.950 . S
C727 C723 1.393 . S
C727 C726 1.391 . S
H728 C736 0.950 . S
H729 C741 0.950 . S
H730 C738 0.950 . S
H731 C740 0.950 . S
H732 C742 0.950 . S
H733 C744 0.950 . S
H734 C746 0.950 . S
H735 C747 0.950 . S
C736 H728 0.950 . S
C736 C737 1.386 . S
C736 C738 1.391 1_554 S
C737 C736 1.386 . S
C737 C741 1.393 . S
C738 H730 0.950 . S
C738 C736 1.391 1_556 S
C738 C739 1.400 . S
C739 C738 1.400 . S
C739 C740 1.398 1_556 S
C739 C745 1.491 . S
C740 H731 0.950 . S
C740 C739 1.398 1_554 S
C740 C741 1.391 . S
C741 H729 0.950 . S
C741 C737 1.393 . S
C741 C740 1.391 . S
C742 H732 0.950 . S
C742 C743 1.386 . S
C742 C744 1.391 . S
C743 C742 1.386 . S
C743 C747 1.393 . S
C744 H733 0.950 . S
C744 C742 1.391 . S
C744 C745 1.400 . S
C745 C739 1.491 . S
C745 C744 1.400 . S
C745 C746 1.398 . S
C746 H734 0.950 . S
C746 C745 1.398 . S
C746 C747 1.391 . S
C747 H735 0.950 . S
C747 C743 1.393 . S
C747 C746 1.391 . S
H748 C756 0.950 . S
H749 C761 0.950 . S
H750 C758 0.950 . S
H751 C760 0.950 . S
H752 C762 0.950 . S
H753 C764 0.950 . S
H754 C766 0.950 . S
H755 C767 0.950 . S
C756 H748 0.950 . S
C756 C757 1.386 . S
C756 C758 1.391 . S
C757 C756 1.386 . S
C757 C761 1.393 . S
C758 H750 0.950 . S
C758 C756 1.391 . S
C758 C759 1.400 . S
C759 C758 1.400 . S
C759 C760 1.398 . S
C759 C765 1.491 . S
C760 H751 0.950 . S
C760 C759 1.398 . S
C760 C761 1.391 . S
C761 H749 0.950 . S
C761 C757 1.393 . S
C761 C760 1.391 . S
C762 H752 0.950 . S
C762 C763 1.386 . S
C762 C764 1.391 . S
C763 C762 1.386 . S
C763 C767 1.393 . S
C764 H753 0.950 . S
C764 C762 1.391 . S
C764 C765 1.400 . S
C765 C759 1.491 . S
C765 C764 1.400 . S
C765 C766 1.398 . S
C766 H754 0.950 . S
C766 C765 1.398 . S
C766 C767 1.391 . S
C767 H755 0.950 . S
C767 C763 1.393 . S
C767 C766 1.391 . S
H768 C776 0.950 . S
H769 C781 0.950 . S
H770 C778 0.950 . S
H771 C780 0.950 . S
H772 C782 0.950 . S
H773 C784 0.950 . S
H774 C786 0.950 . S
H775 C787 0.950 . S
C776 H768 0.950 . S
C776 C777 1.386 . S
C776 C778 1.391 . S
C777 C776 1.386 . S
C777 C781 1.393 . S
C778 H770 0.950 . S
C778 C776 1.391 . S
C778 C779 1.400 1_556 S
C779 C778 1.400 1_554 S
C779 C780 1.398 . S
C779 C785 1.491 . S
C780 H771 0.950 . S
C780 C779 1.398 . S
C780 C781 1.391 1_554 S
C781 H769 0.950 . S
C781 C777 1.393 . S
C781 C780 1.391 1_556 S
C782 H772 0.950 . S
C782 C783 1.386 . S
C782 C784 1.391 . S
C783 C782 1.386 . S
C783 C787 1.393 . S
C784 H773 0.950 . S
C784 C782 1.391 . S
C784 C785 1.400 . S
C785 C779 1.491 . S
C785 C784 1.400 . S
C785 C786 1.398 . S
C786 H774 0.950 . S
C786 C785 1.398 . S
C786 C787 1.391 . S
C787 H775 0.950 . S
C787 C783 1.393 . S
C787 C786 1.391 . S
H788 C796 0.950 . S
H789 C801 0.950 . S
H790 C798 0.950 . S
H791 C800 0.950 . S
H792 C802 0.950 . S
H793 C804 0.950 . S
H794 C806 0.950 . S
H795 C807 0.950 . S
C796 H788 0.950 . S
C796 C797 1.386 . S
C796 C798 1.391 . S
C797 C796 1.386 . S
C797 C801 1.393 . S
C798 H790 0.950 . S
C798 C796 1.391 . S
C798 C799 1.400 . S
C799 C798 1.400 . S
C799 C800 1.398 . S
C799 C805 1.491 . S
C800 H791 0.950 . S
C800 C799 1.398 . S
C800 C801 1.391 . S
C801 H789 0.950 . S
C801 C797 1.393 . S
C801 C800 1.391 . S
C802 H792 0.950 . S
C802 C803 1.386 . S
C802 C804 1.391 . S
C803 C802 1.386 . S
C803 C807 1.393 . S
C804 H793 0.950 . S
C804 C802 1.391 . S
C804 C805 1.400 . S
C805 C799 1.491 . S
C805 C804 1.400 . S
C805 C806 1.398 . S
C806 H794 0.950 . S
C806 C805 1.398 . S
C806 C807 1.391 . S
C807 H795 0.950 . S
C807 C803 1.393 . S
C807 C806 1.391 . S
H808 C816 0.950 . S
H809 C821 0.950 . S
H810 C818 0.950 . S
H811 C820 0.950 . S
H812 C822 0.950 . S
H813 C824 0.950 . S
H814 C826 0.950 . S
H815 C827 0.950 . S
C816 H808 0.950 . S
C816 C817 1.386 . S
C816 C818 1.391 . S
C817 C816 1.386 . S
C817 C821 1.393 . S
C818 H810 0.950 . S
C818 C816 1.391 . S
C818 C819 1.400 . S
C819 C818 1.400 . S
C819 C820 1.398 . S
C819 C825 1.491 . S
C820 H811 0.950 . S
C820 C819 1.398 . S
C820 C821 1.391 . S
C821 H809 0.950 . S
C821 C817 1.393 . S
C821 C820 1.391 . S
C822 H812 0.950 . S
C822 C823 1.386 . S
C822 C824 1.391 . S
C823 C822 1.386 . S
C823 C827 1.393 . S
C824 H813 0.950 . S
C824 C822 1.391 . S
C824 C825 1.400 . S
C825 C819 1.491 . S
C825 C824 1.400 . S
C825 C826 1.398 . S
C826 H814 0.950 . S
C826 C825 1.398 . S
C826 C827 1.391 . S
C827 H815 0.950 . S
C827 C823 1.393 . S
C827 C826 1.391 . S
H828 C836 0.950 . S
H829 C841 0.950 . S
H830 C838 0.950 . S
H831 C840 0.950 . S
H832 C842 0.950 . S
H833 C844 0.950 . S
H834 C846 0.950 . S
H835 C847 0.950 . S
C836 H828 0.950 . S
C836 C837 1.386 . S
C836 C838 1.391 . S
C837 C836 1.386 . S
C837 C841 1.393 . S
C838 H830 0.950 . S
C838 C836 1.391 . S
C838 C839 1.400 . S
C839 C838 1.400 . S
C839 C840 1.398 . S
C839 C845 1.491 . S
C840 H831 0.950 . S
C840 C839 1.398 . S
C840 C841 1.391 . S
C841 H829 0.950 . S
C841 C837 1.393 . S
C841 C840 1.391 . S
C842 H832 0.950 . S
C842 C843 1.386 . S
C842 C844 1.391 . S
C843 C842 1.386 . S
C843 C847 1.393 . S
C844 H833 0.950 . S
C844 C842 1.391 . S
C844 C845 1.400 . S
C845 C839 1.491 . S
C845 C844 1.400 . S
C845 C846 1.398 . S
C846 H834 0.950 . S
C846 C845 1.398 . S
C846 C847 1.391 . S
C847 H835 0.950 . S
C847 C843 1.393 . S
C847 C846 1.391 . S
H848 C856 0.950 . S
H849 C861 0.950 . S
H850 C858 0.950 . S
H851 C860 0.950 . S
H852 C862 0.950 . S
H853 C864 0.950 . S
H854 C866 0.950 . S
H855 C867 0.950 . S
C856 H848 0.950 . S
C856 C857 1.386 . S
C856 C858 1.391 . S
C857 C856 1.386 . S
C857 C861 1.393 . S
C858 H850 0.950 . S
C858 C856 1.391 . S
C858 C859 1.400 . S
C859 C858 1.400 . S
C859 C860 1.398 . S
C859 C865 1.491 . S
C860 H851 0.950 . S
C860 C859 1.398 . S
C860 C861 1.391 . S
C861 H849 0.950 . S
C861 C857 1.393 . S
C861 C860 1.391 . S
C862 H852 0.950 . S
C862 C863 1.386 . S
C862 C864 1.391 . S
C863 C862 1.386 . S
C863 C867 1.393 . S
C864 H853 0.950 . S
C864 C862 1.391 . S
C864 C865 1.400 . S
C865 C859 1.491 . S
C865 C864 1.400 . S
C865 C866 1.398 . S
C866 H854 0.950 . S
C866 C865 1.398 . S
C866 C867 1.391 . S
C867 H855 0.950 . S
C867 C863 1.393 . S
C867 C866 1.391 . S
H868 C876 0.950 . S
H869 C881 0.950 . S
H870 C878 0.950 . S
H871 C880 0.950 . S
H872 C882 0.950 . S
H873 C884 0.950 . S
H874 C886 0.950 . S
H875 C887 0.950 . S
C876 H868 0.950 . S
C876 C877 1.386 . S
C876 C878 1.391 . S
C877 C876 1.386 . S
C877 C881 1.393 . S
C878 H870 0.950 . S
C878 C876 1.391 . S
C878 C879 1.400 . S
C879 C878 1.400 . S
C879 C880 1.398 . S
C879 C885 1.491 . S
C880 H871 0.950 . S
C880 C879 1.398 . S
C880 C881 1.391 . S
C881 H869 0.950 . S
C881 C877 1.393 . S
C881 C880 1.391 . S
C882 H872 0.950 . S
C882 C883 1.386 . S
C882 C884 1.391 . S
C883 C882 1.386 . S
C883 C887 1.393 . S
C884 H873 0.950 . S
C884 C882 1.391 . S
C884 C885 1.400 . S
C885 C879 1.491 . S
C885 C884 1.400 . S
C885 C886 1.398 . S
C886 H874 0.950 . S
C886 C885 1.398 . S
C886 C887 1.391 . S
C887 H875 0.950 . S
C887 C883 1.393 . S
C887 C886 1.391 . S
H888 C896 0.950 . S
H889 C901 0.950 . S
H890 C898 0.950 . S
H891 C900 0.950 . S
H892 C902 0.950 . S
H893 C904 0.950 . S
H894 C906 0.950 . S
H895 C907 0.950 . S
C896 H888 0.950 . S
C896 C897 1.386 . S
C896 C898 1.391 . S
C897 C896 1.386 . S
C897 C901 1.393 . S
C898 H890 0.950 . S
C898 C896 1.391 . S
C898 C899 1.400 . S
C899 C898 1.400 . S
C899 C900 1.398 . S
C899 C905 1.491 . S
C900 H891 0.950 . S
C900 C899 1.398 . S
C900 C901 1.391 . S
C901 H889 0.950 . S
C901 C897 1.393 . S
C901 C900 1.391 . S
C902 H892 0.950 . S
C902 C903 1.386 . S
C902 C904 1.391 . S
C903 C902 1.386 . S
C903 C907 1.393 . S
C904 H893 0.950 . S
C904 C902 1.391 . S
C904 C905 1.400 . S
C905 C899 1.491 . S
C905 C904 1.400 . S
C905 C906 1.398 . S
C906 H894 0.950 . S
C906 C905 1.398 . S
C906 C907 1.391 . S
C907 H895 0.950 . S
C907 C903 1.393 . S
C907 C906 1.391 . S
H908 C916 0.950 . S
H909 C921 0.950 . S
H910 C918 0.950 . S
H911 C920 0.950 . S
H912 C922 0.950 . S
H913 C924 0.950 . S
H914 C926 0.950 . S
H915 C927 0.950 . S
C916 H908 0.950 . S
C916 C917 1.386 . S
C916 C918 1.391 . S
C917 C916 1.386 . S
C917 C921 1.393 . S
C918 H910 0.950 . S
C918 C916 1.391 . S
C918 C919 1.400 . S
C919 C918 1.400 . S
C919 C920 1.398 . S
C919 C925 1.491 . S
C920 H911 0.950 . S
C920 C919 1.398 . S
C920 C921 1.391 . S
C921 H909 0.950 . S
C921 C917 1.393 . S
C921 C920 1.391 . S
C922 H912 0.950 . S
C922 C923 1.386 . S
C922 C924 1.391 . S
C923 C922 1.386 . S
C923 C927 1.393 . S
C924 H913 0.950 . S
C924 C922 1.391 . S
C924 C925 1.400 . S
C925 C919 1.491 . S
C925 C924 1.400 . S
C925 C926 1.398 . S
C926 H914 0.950 . S
C926 C925 1.398 . S
C926 C927 1.391 . S
C927 H915 0.950 . S
C927 C923 1.393 . S
C927 C926 1.391 . S
H928 C936 0.950 . S
H929 C941 0.950 . S
H930 C938 0.950 . S
H931 C940 0.950 . S
H932 C942 0.950 . S
H933 C944 0.950 . S
H934 C946 0.950 . S
H935 C947 0.950 . S
C936 H928 0.950 . S
C936 C937 1.386 . S
C936 C938 1.391 . S
C937 C936 1.386 . S
C937 C941 1.393 . S
C938 H930 0.950 . S
C938 C936 1.391 . S
C938 C939 1.400 . S
C939 C938 1.400 . S
C939 C940 1.398 . S
C939 C945 1.491 . S
C940 H931 0.950 . S
C940 C939 1.398 . S
C940 C941 1.391 . S
C941 H929 0.950 . S
C941 C937 1.393 . S
C941 C940 1.391 . S
C942 H932 0.950 . S
C942 C943 1.386 . S
C942 C944 1.391 . S
C943 C942 1.386 . S
C943 C947 1.393 . S
C944 H933 0.950 . S
C944 C942 1.391 . S
C944 C945 1.400 . S
C945 C939 1.491 . S
C945 C944 1.400 . S
C945 C946 1.398 . S
C946 H934 0.950 . S
C946 C945 1.398 . S
C946 C947 1.391 . S
C947 H935 0.950 . S
C947 C943 1.393 . S
C947 C946 1.391 . S
H948 C956 0.950 . S
H949 C961 0.950 . S
H950 C958 0.950 . S
H951 C960 0.950 . S
H952 C962 0.950 . S
H953 C964 0.950 . S
H954 C966 0.950 . S
H955 C967 0.950 . S
C956 H948 0.950 . S
C956 C957 1.386 . S
C956 C958 1.391 . S
C957 C956 1.386 . S
C957 C961 1.393 . S
C958 H950 0.950 . S
C958 C956 1.391 . S
C958 C959 1.400 . S
C959 C958 1.400 . S
C959 C960 1.398 . S
C959 C965 1.491 . S
C960 H951 0.950 . S
C960 C959 1.398 . S
C960 C961 1.391 . S
C961 H949 0.950 . S
C961 C957 1.393 . S
C961 C960 1.391 . S
C962 H952 0.950 . S
C962 C963 1.386 . S
C962 C964 1.391 . S
C963 C962 1.386 . S
C963 C967 1.393 . S
C964 H953 0.950 . S
C964 C962 1.391 . S
C964 C965 1.400 . S
C965 C959 1.491 . S
C965 C964 1.400 . S
C965 C966 1.398 . S
C966 H954 0.950 . S
C966 C965 1.398 . S
C966 C967 1.391 . S
C967 H955 0.950 . S
C967 C963 1.393 . S
C967 C966 1.391 . S
C497 C116 1.812 . S
C503 C226 1.802 . S
C523 C310 1.802 . S
C517 C135 1.811 . S
C543 C303 1.819 . S
C537 C78 1.816 . S
C557 C97 1.814 . S
C563 C219 1.811 . S
C583 C383 1.814 . S
C577 C40 1.822 . S
C603 C467 1.814 . S
C597 C59 1.822 . S
C617 C2 1.808 . S
C623 C460 1.816 . S
C637 C21 1.818 . S
C643 C376 1.814 . S
C663 C210 1.587 . S
C657 C25 1.744 . S
C683 C294 1.589 . S
C677 C6 1.742 . S
C703 C305 1.455 . S
C697 C63 1.739 . S
C723 C221 1.460 . S
C717 C44 1.741 . S
C743 C389 1.568 . S
C737 C101 1.736 . S
C757 C82 1.735 . S
C763 C473 1.564 . S
C783 C462 1.466 . S
C777 C139 1.737 . S
C797 C120 1.741 . S
C803 C378 1.491 . S
C823 C208 1.524 . S
C817 C11 1.465 . S
C843 C292 1.523 . S
C837 C30 1.465 . S
C857 C49 1.437 . S
C863 C299 1.491 . S
C883 C215 1.490 . S
C877 C68 1.436 . S
C903 C387 1.523 . S
C897 C87 1.413 . S
C917 C106 1.420 . S
C923 C471 1.521 . S
C937 C125 1.382 . S
C943 C478 1.480 . S
C957 C144 1.383 . S
C963 C394 1.479 . S
