# Generated by pormake.
# Topology anh, (6,3)-cn, num edge types: 1
# Building blocks:
#     Node 0, Type 0, BuildingBlock: PAMTUU_clean_sbu_0, # of connection points: 6
#     Node 1, Type 0, BuildingBlock: PAMTUU_clean_sbu_0, # of connection points: 6
#     Node 2, Type 0, BuildingBlock: PAMTUU_clean_sbu_0, # of connection points: 6
#     Node 3, Type 1, BuildingBlock: BETDAH_clean_linker_0, # of connection points: 3
#     Node 4, Type 1, BuildingBlock: BETDAH_clean_linker_0, # of connection points: 3
#     Node 5, Type 1, BuildingBlock: BETDAH_clean_linker_0, # of connection points: 3
#     Node 6, Type 1, BuildingBlock: BETDAH_clean_linker_0, # of connection points: 3
#     Node 7, Type 1, BuildingBlock: BETDAH_clean_linker_0, # of connection points: 3
#     Node 8, Type 1, BuildingBlock: BETDAH_clean_linker_0, # of connection points: 3
#     Edge 9, Type (0, 1), BuildingBlock: OJICUG_clean_linker_0, # of connection points: 2
#     Edge 10, Type (0, 1), BuildingBlock: OJICUG_clean_linker_0, # of connection points: 2
#     Edge 11, Type (0, 1), BuildingBlock: OJICUG_clean_linker_0, # of connection points: 2
#     Edge 12, Type (0, 1), BuildingBlock: OJICUG_clean_linker_0, # of connection points: 2
#     Edge 13, Type (0, 1), BuildingBlock: OJICUG_clean_linker_0, # of connection points: 2
#     Edge 14, Type (0, 1), BuildingBlock: OJICUG_clean_linker_0, # of connection points: 2
#     Edge 15, Type (0, 1), BuildingBlock: OJICUG_clean_linker_0, # of connection points: 2
#     Edge 16, Type (0, 1), BuildingBlock: OJICUG_clean_linker_0, # of connection points: 2
#     Edge 17, Type (0, 1), BuildingBlock: OJICUG_clean_linker_0, # of connection points: 2
#     Edge 18, Type (0, 1), BuildingBlock: OJICUG_clean_linker_0, # of connection points: 2
#     Edge 19, Type (0, 1), BuildingBlock: OJICUG_clean_linker_0, # of connection points: 2
#     Edge 20, Type (0, 1), BuildingBlock: OJICUG_clean_linker_0, # of connection points: 2
#     Edge 21, Type (0, 1), BuildingBlock: OJICUG_clean_linker_0, # of connection points: 2
#     Edge 22, Type (0, 1), BuildingBlock: OJICUG_clean_linker_0, # of connection points: 2
#     Edge 23, Type (0, 1), BuildingBlock: OJICUG_clean_linker_0, # of connection points: 2
#     Edge 24, Type (0, 1), BuildingBlock: OJICUG_clean_linker_0, # of connection points: 2
#     Edge 25, Type (0, 1), BuildingBlock: OJICUG_clean_linker_0, # of connection points: 2
#     Edge 26, Type (0, 1), BuildingBlock: OJICUG_clean_linker_0, # of connection points: 2
# Relax obj value: 0.379
# Max RMSD: 0.162
# Mean RMSD: 0.112
data_MOF--net-anh--node1-PAMTUU_clean_sbu_0--node2-BETDAH_clean_linker_0--edge1-OJICUG_clean_linker_0
_symmetry_space_group_name_H-M    P1
_symmetry_Int_Tables_number       1
_symmetry_cell_setting            triclinic
loop_
_symmetry_equiv_pos_as_xyz
'x, y, z'
_cell_length_a     22.548058
_cell_length_b     22.513822
_cell_length_c     36.848419
_cell_angle_alpha  92.851275
_cell_angle_beta   94.400346
_cell_angle_gamma 120.17295
loop_
_atom_site_label
_atom_site_type_symbol
_atom_site_fract_x
_atom_site_fract_y
_atom_site_fract_z
_atom_type_partial_charge
Tb0 Tb 0.22771 0.7502 0.17872 0.0
Tb1 Tb 0.29238 0.6574 0.15744 0.0
C2 C 0.23927 0.71377 0.09549 0.0
C3 C 1.09782 0.78661 0.20643 0.0
C4 C 0.95361 0.70181 0.19904 0.0
C5 C 0.98455 0.76484 0.18333 0.0
C6 C 1.0563 0.80693 0.18699 0.0
C7 C 1.06664 0.72887 0.22641 0.0
C8 C 0.99492 0.68701 0.22291 0.0
C9 C 0.16988 0.81521 0.19898 0.0
O10 O 1.14315 0.64508 0.18706 0.0
O11 O 0.17967 0.5812 0.1561 0.0
O12 O 0.26934 0.6408 0.2126 0.0
O13 O 0.28894 0.74819 0.22732 0.0
O14 O 0.27929 0.57183 0.12585 0.0
O15 O 0.36856 0.62929 0.16683 0.0
O16 O 0.38436 0.76426 0.17445 0.0
O17 O 0.33248 0.82938 0.16871 0.0
O18 O 0.20196 0.72308 0.11863 0.0
O19 O 0.2877 0.70126 0.10726 0.0
C20 C 1.13176 0.58433 0.17342 0.0
O21 O 0.20822 0.80164 0.22113 0.0
O22 O 0.17755 0.80493 0.16499 0.0
C23 C 0.28576 0.69161 0.23714 0.0
C24 C 0.37277 0.55345 0.11984 0.0
C25 C 0.41624 0.47319 0.08203 0.0
C26 C 0.43811 0.4949 0.11952 0.0
C27 C 0.41638 0.53447 0.13824 0.0
C28 C 0.35469 0.53601 0.08181 0.0
C29 C 0.37648 0.49626 0.06301 0.0
C30 C 0.33521 0.57655 0.1419 0.0
C31 C 0.38926 0.82585 0.17364 0.0
H32 H 0.95422 0.7778 0.16469 0.0
H33 H 1.07928 0.85134 0.17152 0.0
H34 H 1.09738 0.71215 0.24197 0.0
H35 H 0.97224 0.63941 0.23583 0.0
H36 H 0.47064 0.47973 0.13465 0.0
H37 H 0.43043 0.54679 0.16757 0.0
H38 H 0.32062 0.54966 0.06696 0.0
H39 H 0.35949 0.48084 0.03405 0.0
Tb40 Tb 0.60517 0.20164 0.48685 0.0
Tb41 Tb 0.76731 0.27607 0.50966 0.0
C42 C 0.7047 0.23746 0.42469 0.0
C43 C 0.43133 1.06198 0.49085 0.0
C44 C 0.37213 0.92381 0.50659 0.0
C45 C 0.34574 0.94109 0.47549 0.0
C46 C 0.37522 1.00962 0.4677 0.0
C47 C 0.45294 1.046 0.5239 0.0
C48 C 0.42314 0.97749 0.53187 0.0
C49 C 0.47535 0.12886 0.47713 0.0
O50 O 0.62776 0.11795 0.5019 0.0
O51 O 0.74375 0.16907 0.49753 0.0
O52 O 0.7161 0.22554 0.55654 0.0
O53 O 0.62739 0.24239 0.5433 0.0
O54 O 0.85131 0.29143 0.54607 0.0
O55 O 0.86525 0.36034 0.50466 0.0
O56 O 0.73766 0.35632 0.51981 0.0
O57 O 0.6351 0.3114 0.48315 0.0
O58 O 0.64353 0.22092 0.43394 0.0
O59 O 0.75822 0.25692 0.44955 0.0
C60 C 0.68434 0.11316 0.50117 0.0
O61 O 0.50913 0.18163 0.50174 0.0
O62 O 0.51505 0.12779 0.45355 0.0
C63 C 0.66198 0.22619 0.5663 0.0
C64 C 0.95882 0.34586 0.52303 0.0
C65 C 1.08422 0.36117 0.50461 0.0
C66 C 1.08352 0.40348 0.5338 0.0
C67 C 1.02135 0.39578 0.5429 0.0
C68 C 0.95846 0.30125 0.49496 0.0
C69 C 1.02083 0.30878 0.48583 0.0
C70 C 0.89546 0.3444 0.53076 0.0
C71 C 0.68791 0.36455 0.50359 0.0
H72 H 0.30707 0.90145 0.45509 0.0
H73 H 0.35816 1.02091 0.44202 0.0
H74 H 0.49643 1.08569 0.54224 0.0
H75 H 0.44393 0.96622 0.55633 0.0
H76 H 1.13117 0.44519 0.54842 0.0
H77 H 1.0223 0.43062 0.56463 0.0
H78 H 0.91026 0.26217 0.47948 0.0
H79 H 1.01958 0.27501 0.46343 0.0
Tb80 Tb 0.68422 0.62751 0.82631 0.0
Tb81 Tb 0.7684 0.79136 0.84125 0.0
C82 C 0.71346 0.71694 0.76017 0.0
C83 C 0.60287 0.43281 0.82754 0.0
C84 C 0.55887 0.29234 0.83023 0.0
C85 C 0.61896 0.33573 0.81427 0.0
C86 C 0.64061 0.40542 0.81278 0.0
C87 C 0.54821 0.39157 0.84746 0.0
C88 C 0.5265 0.32186 0.84891 0.0
C89 C 0.61013 0.49797 0.81667 0.0
O90 O 0.79485 0.65359 0.82647 0.0
O91 O 0.85135 0.76647 0.85216 0.0
O92 O 0.73951 0.74969 0.89376 0.0
O93 O 0.73503 0.64763 0.88061 0.0
O94 O 0.83557 0.88943 0.8251 0.0
O95 O 0.79593 0.87953 0.87681 0.0
O96 O 0.65918 0.76637 0.83019 0.0
O97 O 0.60889 0.65601 0.84524 0.0
O98 O 0.66897 0.66162 0.77417 0.0
O99 O 0.76347 0.76976 0.78161 0.0
C100 C 0.85289 0.71014 0.84151 0.0
O101 O 0.60301 0.53645 0.84147 0.0
O102 O 0.65776 0.5343 0.79596 0.0
C103 C 0.74011 0.6952 0.90421 0.0
C104 C 0.7859 0.95658 0.8395 0.0
C105 C 0.67125 0.9538 0.80238 0.0
C106 C 0.73067 0.97275 0.7849 0.0
C107 C 0.78794 0.97457 0.80345 0.0
C108 C 0.73246 0.95182 0.85887 0.0
C109 C 0.67512 0.94978 0.84031 0.0
C110 C 0.82225 0.92025 0.8514 0.0
C111 C 0.60441 0.71132 0.83964 0.0
H112 H 0.64494 0.31461 0.7994 0.0
H113 H 0.68316 0.43604 0.79742 0.0
H114 H 0.51838 0.41161 0.85923 0.0
H115 H 0.48054 0.28977 0.86169 0.0
H116 H 0.73048 0.97973 0.75604 0.0
H117 H 0.82956 0.98095 0.78811 0.0
H118 H 0.73031 0.94023 0.88708 0.0
H119 H 0.63095 0.93697 0.85491 0.0
H120 H 0.62221 1.08395 0.26865 0.0
H121 H 0.80679 0.27854 0.25901 0.0
H122 H 0.69613 0.13131 0.16372 0.0
C123 C 0.6598 0.11876 0.25187 0.0
C124 C 0.65131 1.09794 0.21427 0.0
C125 C 0.71457 0.18373 0.26831 0.0
C126 C 0.76485 0.22891 0.24659 0.0
C127 C 0.75945 0.21112 0.20861 0.0
C128 C 0.70156 0.1455 0.19281 0.0
N129 N 0.80898 0.25688 0.1852 0.0
C130 C 0.87126 0.32288 0.19253 0.0
H131 H 0.69984 0.60776 0.60099 0.0
H132 H 0.69229 0.79372 0.58963 0.0
H133 H 0.67979 0.66725 0.49356 0.0
C134 C 0.69608 0.6432 0.5834 0.0
C135 C 0.69067 0.62882 0.54519 0.0
C136 C 0.69606 0.70149 0.59978 0.0
C137 C 0.69221 0.74906 0.5772 0.0
C138 C 0.68591 0.73775 0.53862 0.0
C139 C 0.68445 0.67665 0.52303 0.0
N140 N 0.68021 0.78488 0.5146 0.0
C141 C 0.68179 0.84902 0.52167 0.0
H142 H 1.09667 0.71318 0.93719 0.0
H143 H 0.28744 0.71647 0.9243 0.0
H144 H 1.15592 0.70561 0.82964 0.0
C145 C 1.13346 0.71371 0.91979 0.0
C146 C 1.11806 0.71075 0.88161 0.0
C147 C 0.19343 0.71495 0.93586 0.0
C148 C 0.24058 0.71384 0.91258 0.0
C149 C 0.2283 0.71008 0.87417 0.0
C150 C 0.16608 0.70799 0.85903 0.0
N151 N 0.27631 0.70862 0.85005 0.0
C152 C 0.34102 0.71072 0.85713 0.0
H153 H 0.32872 0.73141 0.40803 0.0
H154 H 0.38613 0.58366 0.37329 0.0
H155 H 0.38317 0.62869 0.4877 0.0
C156 C 0.3455 0.69524 0.4144 0.0
C157 C 0.35546 0.68492 0.45102 0.0
C158 C 0.35687 0.65975 0.38605 0.0
C159 C 0.37831 0.61278 0.39479 0.0
C160 C 0.3867 0.60067 0.43125 0.0
C161 C 0.37622 0.63762 0.45947 0.0
N162 N 0.39741 0.5456 0.43891 0.0
C163 C 0.34546 0.49003 0.45353 0.0
H164 H 0.52788 0.1546 0.71146 0.0
H165 H 0.44637 0.9666 0.64032 0.0
H166 H 0.38107 0.96185 0.74745 0.0
C167 C 0.49255 1.09937 0.7056 0.0
C168 C 0.45375 1.06213 0.73276 0.0
C169 C 0.4894 1.06588 0.6719 0.0
C170 C 0.44628 0.99379 0.66541 0.0
C171 C 0.40673 0.95611 0.69255 0.0
C172 C 0.40922 0.99097 0.72589 0.0
N173 N 0.38081 0.88428 0.69062 0.0
C174 C 0.41774 0.8648 0.71386 0.0
H175 H 0.77654 0.63245 0.07125 0.0
H176 H 0.65018 0.46059 -0.00947 0.0
H177 H 0.69926 0.42418 0.09903 0.0
C178 C 0.7467 0.57711 0.06375 0.0
C179 C 0.74152 0.53149 0.08965 0.0
C180 C 0.71426 0.55211 0.02805 0.0
C181 C 0.67669 0.48068 0.01799 0.0
C182 C 0.67178 0.43446 0.04338 0.0
C183 C 0.70482 0.45998 0.07913 0.0
N184 N 0.62323 0.36325 0.03498 0.0
C185 C 0.55463 0.34555 0.03169 0.0
C186 C 0.46166 0.44017 0.0295 0.0
C187 C 0.43527 0.42652 0.06334 0.0
H188 H 0.51915 0.42108 -0.00835 0.0
C189 C 0.43364 0.37192 0.08113 0.0
H190 H 0.46349 0.48181 0.01516 0.0
C191 C 0.46526 0.33721 0.06758 0.0
C192 C 0.49796 0.35615 0.03592 0.0
H193 H 0.41201 0.35918 0.10682 0.0
H194 H 0.46984 0.30043 0.08371 0.0
C195 C 0.49289 0.40501 0.01586 0.0
C196 C 0.21136 0.40353 0.51584 0.0
C197 C 1.15092 0.37824 0.49118 0.0
H198 H 0.32234 0.45944 0.52282 0.0
C199 C 1.15652 0.3795 0.45343 0.0
H200 H 0.20871 0.40234 0.54504 0.0
C201 C 0.22133 0.41096 0.4409 0.0
C202 C 0.28127 0.44132 0.46584 0.0
H203 H 1.11136 0.36138 0.43367 0.0
H204 H 0.22461 0.41617 0.41192 0.0
C205 C 0.27626 0.43547 0.50323 0.0
C206 C 0.55304 0.93971 0.79337 0.0
C207 C 0.60341 0.92758 0.78043 0.0
H208 H 0.45187 0.92547 0.78254 0.0
C209 C 0.58684 0.88558 0.74726 0.0
H210 H 0.5639 0.97144 0.81882 0.0
C211 C 0.52282 0.85951 0.72656 0.0
C212 C 0.47396 0.8738 0.73906 0.0
H213 H 0.62354 0.87316 0.73708 0.0
H214 H 0.51271 0.83078 0.70012 0.0
C215 C 0.48871 0.91279 0.77283 0.0
C216 C 0.83246 0.66036 0.17205 0.0
C217 C 0.88455 0.64576 0.18257 0.0
H218 H 0.74376 0.63337 0.13428 0.0
C219 C 0.87718 0.5826 0.16883 0.0
H220 H 0.83621 0.70801 0.18269 0.0
C221 C 0.82476 0.54026 0.14099 0.0
C222 C 0.77904 0.56051 0.12666 0.0
H223 H 0.91647 0.56978 0.17627 0.0
H224 H 0.82499 0.49609 0.12806 0.0
C225 C 0.77987 0.61784 0.14428 0.0
C226 C 0.41421 0.84117 0.51493 0.0
C227 C 0.3583 0.85198 0.50743 0.0
H228 H 0.45613 0.77654 0.50296 0.0
C229 C 0.29439 0.79582 0.49175 0.0
H230 H 0.46403 0.8827 0.52739 0.0
C231 C 0.29026 0.73502 0.47758 0.0
C232 C 0.34967 0.72941 0.47953 0.0
H233 H 0.24969 0.80161 0.48669 0.0
H234 H 0.24294 0.69584 0.46145 0.0
C235 C 0.40984 0.78009 0.50102 0.0
C236 C 0.55819 0.18266 0.81455 0.0
C237 C 0.52143 0.21723 0.81867 0.0
H238 H 0.5632 1.10265 0.7835 0.0
C239 C 0.45259 0.18558 0.80222 0.0
H240 H 0.6109 0.20541 0.82729 0.0
C241 C 0.42544 0.12691 0.77727 0.0
C242 C 0.46656 1.09908 0.76901 0.0
H243 H 0.42283 0.21092 0.80475 0.0
H244 H 0.37594 1.10861 0.76132 0.0
C245 C 0.53086 0.12381 0.7897 0.0
C246 C 0.62256 0.98372 0.51412 0.0
C247 C 0.68282 1.04464 0.50696 0.0
H248 H 0.57474 0.87619 0.52474 0.0
C249 C 0.743 1.03953 0.50635 0.0
H250 H 0.57493 0.98414 0.51517 0.0
C251 C 0.74284 0.97722 0.51208 0.0
C252 C 0.6827 0.91646 0.51904 0.0
H253 H 0.79096 1.08407 0.50117 0.0
H254 H 0.79028 0.97652 0.51057 0.0
C255 C 0.62251 0.92126 0.51991 0.0
C256 C 0.93396 0.65917 0.83356 0.0
C257 C 0.9218 0.71055 0.84917 0.0
H258 H 1.00359 0.6192 0.82998 0.0
C259 C 0.9772 0.76323 0.87358 0.0
H260 H 0.89377 0.61732 0.8147 0.0
C261 C 1.03997 0.76377 0.88267 0.0
C262 C 1.05237 0.71257 0.86739 0.0
H263 H 0.97163 0.80401 0.88666 0.0
H264 H 1.07919 0.80468 0.90236 0.0
C265 C 0.99788 0.66052 0.84218 0.0
C266 C 0.46736 0.95695 0.16933 0.0
C267 C 0.45958 0.89416 0.18048 0.0
H268 H 0.53212 1.06784 0.16963 0.0
C269 C 0.51856 0.89954 0.20046 0.0
H270 H 0.42407 0.95651 0.15413 0.0
C271 C 0.58084 0.96445 0.20994 0.0
C272 C 0.5883 1.02717 0.19898 0.0
H273 H 0.51581 0.85372 0.2102 0.0
H274 H 0.62314 0.96576 0.22672 0.0
C275 C 0.53015 1.02154 0.17804 0.0
C276 C 0.64164 0.44944 0.49391 0.0
C277 C 0.68999 0.43397 0.51143 0.0
H278 H 0.60402 0.52109 0.48942 0.0
C279 C 0.74046 0.48604 0.53804 0.0
H280 H 0.6016 0.41186 0.47328 0.0
C281 C 0.74152 0.54864 0.54744 0.0
C282 C 0.69277 0.564 0.53059 0.0
H283 H 0.77906 0.47797 0.55251 0.0
H284 H 0.78088 0.5853 0.56865 0.0
C285 C 0.6433 0.51304 0.50306 0.0
C286 C 0.48063 0.65702 0.8596 0.0
C287 C 0.53683 0.71169 0.84487 0.0
H288 H 0.37712 0.61359 0.87536 0.0
C289 C 0.52696 0.76665 0.83538 0.0
H290 H 0.48449 0.61327 0.86743 0.0
C291 C 0.46479 0.76697 0.84022 0.0
C292 C 0.40885 0.7124 0.85495 0.0
H293 H 0.56727 0.80947 0.82358 0.0
H294 H 0.46023 0.81006 0.83185 0.0
C295 C 0.41838 0.65733 0.86445 0.0
C296 C 1.05132 0.45119 0.16516 0.0
C297 C 1.06432 0.51719 0.17871 0.0
H298 H 0.98272 0.34034 0.15902 0.0
C299 C 1.01235 0.51728 0.19815 0.0
H300 H 1.08887 0.44721 0.15019 0.0
C301 C 0.95061 0.45498 0.20333 0.0
C302 C 0.93802 0.38928 0.18969 0.0
H303 H 1.01928 0.56592 0.20946 0.0
H304 H 0.91236 0.45849 0.21788 0.0
C305 C 0.98989 0.38908 0.17046 0.0
C306 C 0.19178 0.74665 0.03986 0.0
C307 C 0.22633 0.71453 0.0549 0.0
H308 H 1.15701 0.77501 -0.00848 0.0
C309 C 0.25022 0.68317 0.03051 0.0
H310 H 0.17314 0.77187 0.05764 0.0
C311 C 0.23966 0.6834 -0.00756 0.0
C312 C 0.20568 0.71601 0.97708 0.0
H313 H 0.27655 0.65722 0.0408 0.0
H314 H 0.25733 0.65666 0.9751 0.0
C315 C 0.18222 0.74798 0.00164 0.0
C316 C 0.77322 0.24361 0.37119 0.0
C317 C 0.71095 0.2301 0.38448 0.0
H318 H 0.82385 0.24047 0.3243 0.0
C319 C 0.65204 0.20556 0.3587 0.0
H320 H 0.81976 0.26252 0.39 0.0
C321 C 0.65438 0.19271 0.32139 0.0
C322 C 0.71574 0.20408 0.3081 0.0
H323 H 0.60303 0.19471 0.36734 0.0
H324 H 0.6074 0.17297 0.3028 0.0
C325 C 0.77566 0.23115 0.33345 0.0
C326 C 0.7504 0.77492 0.70128 0.0
C327 C 0.70734 0.7168 0.71913 0.0
H328 H 0.7803 0.81647 0.64979 0.0
C329 C 0.65823 0.65602 0.69707 0.0
H330 H 0.78865 0.82277 0.71716 0.0
C331 C 0.65373 0.65244 0.65878 0.0
C332 C 0.69776 0.70957 0.64081 0.0
H333 H 0.62368 0.61005 0.70935 0.0
H334 H 0.61589 0.60415 0.64309 0.0
C335 C 0.74537 0.77146 0.6626 0.0
C336 C 0.58407 0.21015 0.61324 0.0
C337 C 0.62713 0.19077 0.59728 0.0
H338 H 0.50579 0.18488 0.64871 0.0
C339 C 0.62517 0.12983 0.60603 0.0
H340 H 0.58378 0.25627 0.60637 0.0
C341 C 0.57923 1.08799 0.62972 0.0
C342 C 0.5354 1.1071 0.6452 0.0
H343 H 0.65655 0.11285 0.59324 0.0
H344 H 0.57811 1.04098 0.63604 0.0
C345 C 0.53894 0.16896 0.63707 0.0
C346 C 0.66802 0.6297 0.95043 0.0
C347 C 0.7337 0.67822 0.94187 0.0
H348 H 0.61039 0.55111 0.98481 0.0
C349 C 0.79263 0.69147 0.96458 0.0
H350 H 0.62211 0.61758 0.93251 0.0
C351 C 0.78605 0.65329 -0.00568 0.0
C352 C 0.72052 0.60056 0.00102 0.0
H353 H 0.84373 0.72715 0.95759 0.0
H354 H 0.83232 0.66139 0.01034 0.0
C355 C 0.66142 0.59094 0.9798 0.0
C356 C 0.28795 0.61939 0.28564 0.0
C357 C 0.30411 0.68478 0.27538 0.0
H358 H 0.29136 0.56025 0.32845 0.0
C359 C 0.3397 0.74249 0.30147 0.0
H360 H 0.26024 0.57372 0.26619 0.0
C361 C 0.35875 0.7348 0.33718 0.0
C362 C 0.34189 0.66914 0.34752 0.0
H363 H 0.35351 0.79355 0.29422 0.0
H364 H 0.38676 0.78031 0.35671 0.0
C365 C 0.30644 0.61165 0.32128 0.0
loop_
_geom_bond_atom_site_label_1
_geom_bond_atom_site_label_2
_geom_bond_distance
_geom_bond_site_symmetry_2
_ccdc_geom_bond_type
Tb0 C9 2.764 . S
Tb0 O10 2.325 . S
Tb0 O13 2.303 1_655 S
Tb0 O17 2.322 1_655 S
Tb0 O18 2.349 1_655 S
Tb0 O21 2.415 . S
Tb0 O22 2.399 . S
Tb1 O11 2.322 1_455 S
Tb1 O12 2.349 . S
Tb1 O14 2.415 . S
Tb1 O15 2.399 . S
Tb1 O16 2.325 . S
Tb1 O19 2.303 . S
Tb1 C30 2.764 . S
C2 O18 1.261 . S
C2 O19 1.257 . S
C3 C6 1.358 . S
C3 C7 1.332 . S
C3 C9 1.504 . S
C4 C5 1.373 . S
C4 C8 1.308 . S
C5 C4 1.373 . S
C5 C6 1.429 . S
C5 H32 0.932 . S
C6 C3 1.358 . S
C6 C5 1.429 . S
C6 H33 0.930 . S
C7 C3 1.332 . S
C7 C8 1.394 . S
C7 H34 0.932 . S
C8 C4 1.308 . S
C8 C7 1.394 . S
C8 H35 0.929 . S
C9 Tb0 2.764 . S
C9 C3 1.504 . S
C9 O21 1.239 . S
C9 O22 1.263 . S
O10 Tb0 2.325 . S
O10 C20 1.236 . S
O11 Tb1 2.322 1_655 S
O11 C20 1.257 . S
O12 Tb1 2.349 . S
O12 C23 1.261 . S
O13 Tb0 2.303 1_455 S
O13 C23 1.257 . S
O14 Tb1 2.415 . S
O14 C30 1.239 . S
O15 Tb1 2.399 . S
O15 C30 1.263 . S
O16 Tb1 2.325 . S
O16 C31 1.236 . S
O17 Tb0 2.322 1_455 S
O17 C31 1.257 . S
O18 Tb0 2.349 1_455 S
O18 C2 1.261 . S
O19 Tb1 2.303 . S
O19 C2 1.257 . S
C20 O10 1.236 . S
C20 O11 1.257 . S
O21 Tb0 2.415 . S
O21 C9 1.239 . S
O22 Tb0 2.399 . S
O22 C9 1.263 . S
C23 O12 1.261 . S
C23 O13 1.257 . S
C24 C27 1.358 . S
C24 C28 1.332 . S
C24 C30 1.504 . S
C25 C26 1.373 . S
C25 C29 1.308 . S
C26 C25 1.373 . S
C26 C27 1.429 . S
C26 H36 0.932 . S
C27 C24 1.358 . S
C27 C26 1.429 . S
C27 H37 0.930 . S
C28 C24 1.332 . S
C28 C29 1.394 . S
C28 H38 0.932 . S
C29 C25 1.308 . S
C29 C28 1.394 . S
C29 H39 0.929 . S
C30 Tb1 2.764 . S
C30 O14 1.239 . S
C30 O15 1.263 . S
C30 C24 1.504 . S
C31 O16 1.236 . S
C31 O17 1.257 . S
H32 C5 0.932 . S
H33 C6 0.930 . S
H34 C7 0.932 . S
H35 C8 0.929 . S
H36 C26 0.932 . S
H37 C27 0.930 . S
H38 C28 0.932 . S
H39 C29 0.929 . S
Tb40 C49 2.764 1_545 S
Tb40 O50 2.325 1_545 S
Tb40 O53 2.303 . S
Tb40 O57 2.322 . S
Tb40 O58 2.349 . S
Tb40 O61 2.415 1_545 S
Tb40 O62 2.399 1_545 S
Tb41 O51 2.322 . S
Tb41 O52 2.349 . S
Tb41 O54 2.415 . S
Tb41 O55 2.399 . S
Tb41 O56 2.325 . S
Tb41 O59 2.303 . S
Tb41 C70 2.764 . S
C42 O58 1.261 . S
C42 O59 1.257 . S
C43 C46 1.358 . S
C43 C47 1.332 . S
C43 C49 1.504 . S
C44 C45 1.373 . S
C44 C48 1.308 . S
C45 C44 1.373 . S
C45 C46 1.429 . S
C45 H72 0.932 . S
C46 C43 1.358 . S
C46 C45 1.429 . S
C46 H73 0.930 . S
C47 C43 1.332 . S
C47 C48 1.394 . S
C47 H74 0.932 . S
C48 C44 1.308 . S
C48 C47 1.394 . S
C48 H75 0.929 . S
C49 Tb40 2.764 1_565 S
C49 C43 1.504 . S
C49 O61 1.239 . S
C49 O62 1.263 . S
O50 Tb40 2.325 1_565 S
O50 C60 1.236 . S
O51 Tb41 2.322 . S
O51 C60 1.257 1_545 S
O52 Tb41 2.349 . S
O52 C63 1.261 . S
O53 Tb40 2.303 . S
O53 C63 1.257 . S
O54 Tb41 2.415 . S
O54 C70 1.239 . S
O55 Tb41 2.399 . S
O55 C70 1.263 . S
O56 Tb41 2.325 . S
O56 C71 1.236 . S
O57 Tb40 2.322 . S
O57 C71 1.257 . S
O58 Tb40 2.349 . S
O58 C42 1.261 . S
O59 Tb41 2.303 . S
O59 C42 1.257 . S
C60 O50 1.236 . S
C60 O51 1.257 1_565 S
O61 Tb40 2.415 1_565 S
O61 C49 1.239 . S
O62 Tb40 2.399 1_565 S
O62 C49 1.263 . S
C63 O52 1.261 . S
C63 O53 1.257 . S
C64 C67 1.358 . S
C64 C68 1.332 . S
C64 C70 1.504 . S
C65 C66 1.373 . S
C65 C69 1.308 . S
C66 C65 1.373 . S
C66 C67 1.429 . S
C66 H76 0.932 . S
C67 C64 1.358 . S
C67 C66 1.429 . S
C67 H77 0.930 . S
C68 C64 1.332 . S
C68 C69 1.394 . S
C68 H78 0.932 . S
C69 C65 1.308 . S
C69 C68 1.394 . S
C69 H79 0.929 . S
C70 Tb41 2.764 . S
C70 O54 1.239 . S
C70 O55 1.263 . S
C70 C64 1.504 . S
C71 O56 1.236 . S
C71 O57 1.257 . S
H72 C45 0.932 . S
H73 C46 0.930 . S
H74 C47 0.932 . S
H75 C48 0.929 . S
H76 C66 0.932 . S
H77 C67 0.930 . S
H78 C68 0.932 . S
H79 C69 0.929 . S
Tb80 C89 2.764 . S
Tb80 O90 2.325 . S
Tb80 O93 2.303 . S
Tb80 O97 2.322 . S
Tb80 O98 2.349 . S
Tb80 O101 2.415 . S
Tb80 O102 2.399 . S
Tb81 O91 2.322 . S
Tb81 O92 2.349 . S
Tb81 O94 2.415 . S
Tb81 O95 2.399 . S
Tb81 O96 2.325 . S
Tb81 O99 2.303 . S
Tb81 C110 2.764 . S
C82 O98 1.261 . S
C82 O99 1.257 . S
C83 C86 1.358 . S
C83 C87 1.332 . S
C83 C89 1.504 . S
C84 C85 1.373 . S
C84 C88 1.308 . S
C85 C84 1.373 . S
C85 C86 1.429 . S
C85 H112 0.932 . S
C86 C83 1.358 . S
C86 C85 1.429 . S
C86 H113 0.930 . S
C87 C83 1.332 . S
C87 C88 1.394 . S
C87 H114 0.932 . S
C88 C84 1.308 . S
C88 C87 1.394 . S
C88 H115 0.929 . S
C89 Tb80 2.764 . S
C89 C83 1.504 . S
C89 O101 1.239 . S
C89 O102 1.263 . S
O90 Tb80 2.325 . S
O90 C100 1.236 . S
O91 Tb81 2.322 . S
O91 C100 1.257 . S
O92 Tb81 2.349 . S
O92 C103 1.261 . S
O93 Tb80 2.303 . S
O93 C103 1.257 . S
O94 Tb81 2.415 . S
O94 C110 1.239 . S
O95 Tb81 2.399 . S
O95 C110 1.263 . S
O96 Tb81 2.325 . S
O96 C111 1.236 . S
O97 Tb80 2.322 . S
O97 C111 1.257 . S
O98 Tb80 2.349 . S
O98 C82 1.261 . S
O99 Tb81 2.303 . S
O99 C82 1.257 . S
C100 O90 1.236 . S
C100 O91 1.257 . S
O101 Tb80 2.415 . S
O101 C89 1.239 . S
O102 Tb80 2.399 . S
O102 C89 1.263 . S
C103 O92 1.261 . S
C103 O93 1.257 . S
C104 C107 1.358 . S
C104 C108 1.332 . S
C104 C110 1.504 . S
C105 C106 1.373 . S
C105 C109 1.308 . S
C106 C105 1.373 . S
C106 C107 1.429 . S
C106 H116 0.932 . S
C107 C104 1.358 . S
C107 C106 1.429 . S
C107 H117 0.930 . S
C108 C104 1.332 . S
C108 C109 1.394 . S
C108 H118 0.932 . S
C109 C105 1.308 . S
C109 C108 1.394 . S
C109 H119 0.929 . S
C110 Tb81 2.764 . S
C110 O94 1.239 . S
C110 O95 1.263 . S
C110 C104 1.504 . S
C111 O96 1.236 . S
C111 O97 1.257 . S
H112 C85 0.932 . S
H113 C86 0.930 . S
H114 C87 0.932 . S
H115 C88 0.929 . S
H116 C106 0.932 . S
H117 C107 0.930 . S
H118 C108 0.932 . S
H119 C109 0.929 . S
H120 C123 0.929 1_565 S
H121 C126 0.929 . S
H122 C128 0.930 . S
C123 H120 0.929 1_545 S
C123 C124 1.398 1_545 S
C123 C125 1.396 . S
C124 C123 1.398 1_565 S
C124 C128 1.407 1_565 S
C125 C123 1.396 . S
C125 C126 1.394 . S
C126 H121 0.929 . S
C126 C125 1.394 . S
C126 C127 1.382 . S
C127 C126 1.382 . S
C127 C128 1.392 . S
C127 N129 1.420 . S
C128 H122 0.930 . S
C128 C124 1.407 1_545 S
C128 C127 1.392 . S
N129 C127 1.420 . S
N129 C130 1.244 . S
C130 N129 1.244 . S
H131 C134 0.929 . S
H132 C137 0.929 . S
H133 C139 0.930 . S
C134 H131 0.929 . S
C134 C135 1.398 . S
C134 C136 1.396 . S
C135 C134 1.398 . S
C135 C139 1.407 . S
C136 C134 1.396 . S
C136 C137 1.394 . S
C137 H132 0.929 . S
C137 C136 1.394 . S
C137 C138 1.382 . S
C138 C137 1.382 . S
C138 C139 1.392 . S
C138 N140 1.420 . S
C139 H133 0.930 . S
C139 C135 1.407 . S
C139 C138 1.392 . S
N140 C138 1.420 . S
N140 C141 1.244 . S
C141 N140 1.244 . S
H142 C145 0.929 1_655 S
H143 C148 0.929 . S
H144 C150 0.930 . S
C145 H142 0.929 1_455 S
C145 C146 1.398 1_455 S
C145 C147 1.396 . S
C146 C145 1.398 1_655 S
C146 C150 1.407 1_655 S
C147 C145 1.396 . S
C147 C148 1.394 . S
C148 H143 0.929 . S
C148 C147 1.394 . S
C148 C149 1.382 . S
C149 C148 1.382 . S
C149 C150 1.392 . S
C149 N151 1.420 . S
C150 H144 0.930 . S
C150 C146 1.407 1_455 S
C150 C149 1.392 . S
N151 C149 1.420 . S
N151 C152 1.244 . S
C152 N151 1.244 . S
H153 C156 0.929 . S
H154 C159 0.929 . S
H155 C161 0.930 . S
C156 H153 0.929 . S
C156 C157 1.398 . S
C156 C158 1.396 . S
C157 C156 1.398 . S
C157 C161 1.407 . S
C158 C156 1.396 . S
C158 C159 1.394 1_455 S
C159 H154 0.929 . S
C159 C158 1.394 1_655 S
C159 C160 1.382 . S
C160 C159 1.382 . S
C160 C161 1.392 1_655 S
C160 N162 1.420 . S
C161 H155 0.930 . S
C161 C157 1.407 . S
C161 C160 1.392 1_455 S
N162 C160 1.420 . S
N162 C163 1.244 . S
C163 N162 1.244 . S
H164 C167 0.929 . S
H165 C170 0.929 . S
H166 C172 0.930 . S
C167 H164 0.929 . S
C167 C168 1.398 . S
C167 C169 1.396 . S
C168 C167 1.398 . S
C168 C172 1.407 . S
C169 C167 1.396 . S
C169 C170 1.394 1_545 S
C170 H165 0.929 . S
C170 C169 1.394 1_565 S
C170 C171 1.382 1_565 S
C171 C170 1.382 1_545 S
C171 C172 1.392 . S
C171 N173 1.420 1_545 S
C172 H166 0.930 . S
C172 C168 1.407 . S
C172 C171 1.392 . S
N173 C171 1.420 1_565 S
N173 C174 1.244 . S
C174 N173 1.244 . S
H175 C178 0.929 . S
H176 C181 0.929 . S
H177 C183 0.930 . S
C178 H175 0.929 . S
C178 C179 1.398 . S
C178 C180 1.396 . S
C179 C178 1.398 . S
C179 C183 1.407 . S
C180 C178 1.396 . S
C180 C181 1.394 . S
C181 H176 0.929 . S
C181 C180 1.394 . S
C181 C182 1.382 . S
C182 C181 1.382 . S
C182 C183 1.392 . S
C182 N184 1.420 . S
C183 H177 0.930 . S
C183 C179 1.407 . S
C183 C182 1.392 . S
N184 C182 1.420 . S
N184 C185 1.244 . S
C185 N184 1.244 . S
C186 C187 1.387 . S
C186 H190 0.950 . S
C186 C195 1.390 . S
C187 C186 1.387 . S
C187 C189 1.387 . S
H188 C195 0.950 . S
C189 C187 1.387 . S
C189 C191 1.390 . S
C189 H193 0.950 . S
H190 C186 0.950 . S
C191 C189 1.390 . S
C191 C192 1.387 . S
C191 H194 0.950 . S
C192 C191 1.387 . S
C192 C195 1.387 . S
H193 C189 0.950 . S
H194 C191 0.950 . S
C195 C186 1.390 . S
C195 H188 0.950 . S
C195 C192 1.387 . S
C196 C197 1.387 . S
C196 H200 0.950 . S
C196 C205 1.390 . S
C197 C196 1.387 . S
C197 C199 1.387 . S
H198 C205 0.950 . S
C199 C197 1.387 . S
C199 C201 1.390 . S
C199 H203 0.950 . S
H200 C196 0.950 . S
C201 C199 1.390 . S
C201 C202 1.387 . S
C201 H204 0.950 . S
C202 C201 1.387 . S
C202 C205 1.387 . S
H203 C199 0.950 . S
H204 C201 0.950 . S
C205 C196 1.390 . S
C205 H198 0.950 . S
C205 C202 1.387 . S
C206 C207 1.387 . S
C206 H210 0.950 . S
C206 C215 1.390 . S
C207 C206 1.387 . S
C207 C209 1.387 . S
H208 C215 0.950 . S
C209 C207 1.387 . S
C209 C211 1.390 . S
C209 H213 0.950 . S
H210 C206 0.950 . S
C211 C209 1.390 . S
C211 C212 1.387 . S
C211 H214 0.950 . S
C212 C211 1.387 . S
C212 C215 1.387 . S
H213 C209 0.950 . S
H214 C211 0.950 . S
C215 C206 1.390 . S
C215 H208 0.950 . S
C215 C212 1.387 . S
C216 C217 1.387 . S
C216 H220 0.950 . S
C216 C225 1.390 . S
C217 C216 1.387 . S
C217 C219 1.387 . S
H218 C225 0.950 . S
C219 C217 1.387 . S
C219 C221 1.390 . S
C219 H223 0.950 . S
H220 C216 0.950 . S
C221 C219 1.390 . S
C221 C222 1.387 . S
C221 H224 0.950 . S
C222 C221 1.387 . S
C222 C225 1.387 . S
H223 C219 0.950 . S
H224 C221 0.950 . S
C225 C216 1.390 . S
C225 H218 0.950 . S
C225 C222 1.387 . S
C226 C227 1.387 . S
C226 H230 0.950 . S
C226 C235 1.390 . S
C227 C226 1.387 . S
C227 C229 1.387 . S
H228 C235 0.950 . S
C229 C227 1.387 . S
C229 C231 1.390 . S
C229 H233 0.950 . S
H230 C226 0.950 . S
C231 C229 1.390 . S
C231 C232 1.387 . S
C231 H234 0.950 . S
C232 C231 1.387 . S
C232 C235 1.387 . S
H233 C229 0.950 . S
H234 C231 0.950 . S
C235 C226 1.390 . S
C235 H228 0.950 . S
C235 C232 1.387 . S
C236 C237 1.387 . S
C236 H240 0.950 . S
C236 C245 1.390 . S
C237 C236 1.387 . S
C237 C239 1.387 . S
H238 C245 0.950 . S
C239 C237 1.387 . S
C239 C241 1.390 . S
C239 H243 0.950 . S
H240 C236 0.950 . S
C241 C239 1.390 . S
C241 C242 1.387 . S
C241 H244 0.950 . S
C242 C241 1.387 . S
C242 C245 1.387 . S
H243 C239 0.950 . S
H244 C241 0.950 . S
C245 C236 1.390 . S
C245 H238 0.950 . S
C245 C242 1.387 . S
C246 C247 1.387 . S
C246 H250 0.950 . S
C246 C255 1.390 . S
C247 C246 1.387 . S
C247 C249 1.387 . S
H248 C255 0.950 . S
C249 C247 1.387 . S
C249 C251 1.390 . S
C249 H253 0.950 . S
H250 C246 0.950 . S
C251 C249 1.390 . S
C251 C252 1.387 . S
C251 H254 0.950 . S
C252 C251 1.387 . S
C252 C255 1.387 . S
H253 C249 0.950 . S
H254 C251 0.950 . S
C255 C246 1.390 . S
C255 H248 0.950 . S
C255 C252 1.387 . S
C256 C257 1.387 . S
C256 H260 0.950 . S
C256 C265 1.390 . S
C257 C256 1.387 . S
C257 C259 1.387 . S
H258 C265 0.950 . S
C259 C257 1.387 . S
C259 C261 1.390 . S
C259 H263 0.950 . S
H260 C256 0.950 . S
C261 C259 1.390 . S
C261 C262 1.387 . S
C261 H264 0.950 . S
C262 C261 1.387 . S
C262 C265 1.387 . S
H263 C259 0.950 . S
H264 C261 0.950 . S
C265 C256 1.390 . S
C265 H258 0.950 . S
C265 C262 1.387 . S
C266 C267 1.387 . S
C266 H270 0.950 . S
C266 C275 1.390 . S
C267 C266 1.387 . S
C267 C269 1.387 . S
H268 C275 0.950 . S
C269 C267 1.387 . S
C269 C271 1.390 . S
C269 H273 0.950 . S
H270 C266 0.950 . S
C271 C269 1.390 . S
C271 C272 1.387 . S
C271 H274 0.950 . S
C272 C271 1.387 . S
C272 C275 1.387 . S
H273 C269 0.950 . S
H274 C271 0.950 . S
C275 C266 1.390 . S
C275 H268 0.950 . S
C275 C272 1.387 . S
C276 C277 1.387 . S
C276 H280 0.950 . S
C276 C285 1.390 . S
C277 C276 1.387 . S
C277 C279 1.387 . S
H278 C285 0.950 . S
C279 C277 1.387 . S
C279 C281 1.390 . S
C279 H283 0.950 . S
H280 C276 0.950 . S
C281 C279 1.390 . S
C281 C282 1.387 . S
C281 H284 0.950 . S
C282 C281 1.387 . S
C282 C285 1.387 . S
H283 C279 0.950 . S
H284 C281 0.950 . S
C285 C276 1.390 . S
C285 H278 0.950 . S
C285 C282 1.387 . S
C286 C287 1.387 . S
C286 H290 0.950 . S
C286 C295 1.390 . S
C287 C286 1.387 . S
C287 C289 1.387 . S
H288 C295 0.950 . S
C289 C287 1.387 . S
C289 C291 1.390 . S
C289 H293 0.950 . S
H290 C286 0.950 . S
C291 C289 1.390 . S
C291 C292 1.387 . S
C291 H294 0.950 . S
C292 C291 1.387 . S
C292 C295 1.387 . S
H293 C289 0.950 . S
H294 C291 0.950 . S
C295 C286 1.390 . S
C295 H288 0.950 . S
C295 C292 1.387 . S
C296 C297 1.387 . S
C296 H300 0.950 . S
C296 C305 1.390 . S
C297 C296 1.387 . S
C297 C299 1.387 . S
H298 C305 0.950 . S
C299 C297 1.387 . S
C299 C301 1.390 . S
C299 H303 0.950 . S
H300 C296 0.950 . S
C301 C299 1.390 . S
C301 C302 1.387 . S
C301 H304 0.950 . S
C302 C301 1.387 . S
C302 C305 1.387 . S
H303 C299 0.950 . S
H304 C301 0.950 . S
C305 C296 1.390 . S
C305 H298 0.950 . S
C305 C302 1.387 . S
C306 C307 1.387 . S
C306 H310 0.950 . S
C306 C315 1.390 . S
C307 C306 1.387 . S
C307 C309 1.387 . S
H308 C315 0.950 1_556 S
C309 C307 1.387 . S
C309 C311 1.390 . S
C309 H313 0.950 . S
H310 C306 0.950 . S
C311 C309 1.390 . S
C311 C312 1.387 1_554 S
C311 H314 0.950 1_554 S
C312 C311 1.387 1_556 S
C312 C315 1.387 1_556 S
H313 C309 0.950 . S
H314 C311 0.950 1_556 S
C315 C306 1.390 . S
C315 H308 0.950 1_554 S
C315 C312 1.387 1_554 S
C316 C317 1.387 . S
C316 H320 0.950 . S
C316 C325 1.390 . S
C317 C316 1.387 . S
C317 C319 1.387 . S
H318 C325 0.950 . S
C319 C317 1.387 . S
C319 C321 1.390 . S
C319 H323 0.950 . S
H320 C316 0.950 . S
C321 C319 1.390 . S
C321 C322 1.387 . S
C321 H324 0.950 . S
C322 C321 1.387 . S
C322 C325 1.387 . S
H323 C319 0.950 . S
H324 C321 0.950 . S
C325 C316 1.390 . S
C325 H318 0.950 . S
C325 C322 1.387 . S
C326 C327 1.387 . S
C326 H330 0.950 . S
C326 C335 1.390 . S
C327 C326 1.387 . S
C327 C329 1.387 . S
H328 C335 0.950 . S
C329 C327 1.387 . S
C329 C331 1.390 . S
C329 H333 0.950 . S
H330 C326 0.950 . S
C331 C329 1.390 . S
C331 C332 1.387 . S
C331 H334 0.950 . S
C332 C331 1.387 . S
C332 C335 1.387 . S
H333 C329 0.950 . S
H334 C331 0.950 . S
C335 C326 1.390 . S
C335 H328 0.950 . S
C335 C332 1.387 . S
C336 C337 1.387 . S
C336 H340 0.950 . S
C336 C345 1.390 . S
C337 C336 1.387 . S
C337 C339 1.387 . S
H338 C345 0.950 . S
C339 C337 1.387 . S
C339 C341 1.390 . S
C339 H343 0.950 . S
H340 C336 0.950 . S
C341 C339 1.390 . S
C341 C342 1.387 . S
C341 H344 0.950 . S
C342 C341 1.387 . S
C342 C345 1.387 . S
H343 C339 0.950 . S
H344 C341 0.950 . S
C345 C336 1.390 . S
C345 H338 0.950 . S
C345 C342 1.387 . S
C346 C347 1.387 . S
C346 H350 0.950 . S
C346 C355 1.390 1_556 S
C347 C346 1.387 . S
C347 C349 1.387 . S
H348 C355 0.950 . S
C349 C347 1.387 . S
C349 C351 1.390 . S
C349 H353 0.950 . S
H350 C346 0.950 . S
C351 C349 1.390 . S
C351 C352 1.387 1_556 S
C351 H354 0.943 1_556 S
C352 C351 1.387 1_554 S
C352 C355 1.387 . S
H353 C349 0.950 . S
H354 C351 0.943 1_554 S
C355 C346 1.390 1_554 S
C355 H348 0.950 . S
C355 C352 1.387 . S
C356 C357 1.387 1_655 S
C356 H360 0.950 . S
C356 C365 1.390 . S
C357 C356 1.387 1_455 S
C357 C359 1.387 . S
H358 C365 0.950 . S
C359 C357 1.387 . S
C359 C361 1.390 . S
C359 H363 0.950 . S
H360 C356 0.950 . S
C361 C359 1.390 . S
C361 C362 1.387 . S
C361 H364 0.950 . S
C362 C361 1.387 . S
C362 C365 1.387 1_455 S
H363 C359 0.950 . S
H364 C361 0.950 . S
C365 C356 1.390 . S
C365 H358 0.950 . S
C365 C362 1.387 1_655 S
C187 C25 0.832 . S
C192 C185 0.855 . S
C197 C65 0.708 . S
C202 C163 0.660 . S
C207 C105 0.755 . S
C212 C174 0.762 . S
C217 C4 0.813 . S
C222 C179 0.860 . S
C232 C157 0.538 . S
C227 C44 0.624 . S
C242 C168 0.580 . S
C237 C84 0.634 . S
C247 C60 3.074 . S
C252 C141 3.003 . S
C257 C100 3.072 . S
C262 C146 3.017 . S
C267 C31 3.063 . S
C272 C124 3.005 . S
C282 C135 3.019 . S
C277 C71 3.064 . S
C292 C152 3.007 . S
C287 C111 3.059 . S
C297 C20 3.083 . S
C302 C130 3.015 . S
C312 C147 1.778 . S
C307 C2 1.740 . S
C317 C42 1.780 . S
C322 C125 1.798 . S
C327 C82 1.759 . S
C332 C136 1.793 . S
C342 C169 1.046 . S
C337 C63 1.039 . S
C352 C180 1.166 . S
C347 C103 1.173 . S
C357 C23 1.026 . S
C362 C158 1.035 . S
