# Generated by pormake.
# Topology anh, (6,3)-cn, num edge types: 1
# Building blocks:
#     Node 0, Type 0, BuildingBlock: BETDIP_clean_sbu_0, # of connection points: 6
#     Node 1, Type 0, BuildingBlock: BETDIP_clean_sbu_0, # of connection points: 6
#     Node 2, Type 0, BuildingBlock: BETDIP_clean_sbu_0, # of connection points: 6
#     Node 3, Type 1, BuildingBlock: CUQRIR_clean_linker_1, # of connection points: 3
#     Node 4, Type 1, BuildingBlock: CUQRIR_clean_linker_1, # of connection points: 3
#     Node 5, Type 1, BuildingBlock: CUQRIR_clean_linker_1, # of connection points: 3
#     Node 6, Type 1, BuildingBlock: CUQRIR_clean_linker_1, # of connection points: 3
#     Node 7, Type 1, BuildingBlock: CUQRIR_clean_linker_1, # of connection points: 3
#     Node 8, Type 1, BuildingBlock: CUQRIR_clean_linker_1, # of connection points: 3
#     Edge 9, Type (0, 1), BuildingBlock: EZIPEK_clean_linker_0, # of connection points: 2
#     Edge 10, Type (0, 1), BuildingBlock: EZIPEK_clean_linker_0, # of connection points: 2
#     Edge 11, Type (0, 1), BuildingBlock: EZIPEK_clean_linker_0, # of connection points: 2
#     Edge 12, Type (0, 1), BuildingBlock: EZIPEK_clean_linker_0, # of connection points: 2
#     Edge 13, Type (0, 1), BuildingBlock: EZIPEK_clean_linker_0, # of connection points: 2
#     Edge 14, Type (0, 1), BuildingBlock: EZIPEK_clean_linker_0, # of connection points: 2
#     Edge 15, Type (0, 1), BuildingBlock: EZIPEK_clean_linker_0, # of connection points: 2
#     Edge 16, Type (0, 1), BuildingBlock: EZIPEK_clean_linker_0, # of connection points: 2
#     Edge 17, Type (0, 1), BuildingBlock: EZIPEK_clean_linker_0, # of connection points: 2
#     Edge 18, Type (0, 1), BuildingBlock: EZIPEK_clean_linker_0, # of connection points: 2
#     Edge 19, Type (0, 1), BuildingBlock: EZIPEK_clean_linker_0, # of connection points: 2
#     Edge 20, Type (0, 1), BuildingBlock: EZIPEK_clean_linker_0, # of connection points: 2
#     Edge 21, Type (0, 1), BuildingBlock: EZIPEK_clean_linker_0, # of connection points: 2
#     Edge 22, Type (0, 1), BuildingBlock: EZIPEK_clean_linker_0, # of connection points: 2
#     Edge 23, Type (0, 1), BuildingBlock: EZIPEK_clean_linker_0, # of connection points: 2
#     Edge 24, Type (0, 1), BuildingBlock: EZIPEK_clean_linker_0, # of connection points: 2
#     Edge 25, Type (0, 1), BuildingBlock: EZIPEK_clean_linker_0, # of connection points: 2
#     Edge 26, Type (0, 1), BuildingBlock: EZIPEK_clean_linker_0, # of connection points: 2
# Relax obj value: 0.459
# Max RMSD: 0.214
# Mean RMSD: 0.164
data_MOF--net-anh--node1-BETDIP_clean_sbu_0--node2-CUQRIR_clean_linker_1--edge1-EZIPEK_clean_linker_0
_symmetry_space_group_name_H-M    P1
_symmetry_Int_Tables_number       1
_symmetry_cell_setting            triclinic
loop_
_symmetry_equiv_pos_as_xyz
'x, y, z'
_cell_length_a     21.913096
_cell_length_b     22.061114
_cell_length_c     33.908922
_cell_angle_alpha  85.135958
_cell_angle_beta   90.820745
_cell_angle_gamma 120.1465
loop_
_atom_site_label
_atom_site_type_symbol
_atom_site_fract_x
_atom_site_fract_y
_atom_site_fract_z
_atom_type_partial_charge
Tb0 Tb 0.14237 0.6387 0.13879 0.0
Tb1 Tb 1.086 0.51262 0.14604 0.0
C2 C 0.22582 0.76762 0.14245 0.0
C3 C 0.29887 0.81088 0.12646 0.0
C4 C 0.35405 0.80822 0.14626 0.0
C5 C 0.42237 0.84604 0.13026 0.0
C6 C 0.43818 0.88948 0.09446 0.0
C7 C 0.3822 0.88934 0.07367 0.0
C8 C 0.31327 0.8507 0.08962 0.0
C9 C 1.11091 0.59334 0.06787 0.0
C10 C 0.25852 0.57696 0.12859 0.0
C11 C 1.00615 0.38233 0.1529 0.0
C12 C 0.96217 0.34266 0.18838 0.0
C13 C 0.88999 0.31856 0.18732 0.0
C14 C 0.84866 0.29217 0.22182 0.0
C15 C 0.8777 0.28627 0.25852 0.0
C16 C 0.95055 0.3116 0.25965 0.0
C17 C 0.9925 0.33974 0.22494 0.0
C18 C 1.1144 0.55307 0.22122 0.0
C19 C 0.97047 0.57683 0.13047 0.0
O20 O 0.21446 0.7202 0.17169 0.0
O21 O 0.17791 0.74264 0.11601 0.0
O22 O 0.14067 0.5741 0.0938 0.0
O23 O 1.09671 0.63772 0.08137 0.0
O24 O 0.24955 0.63269 0.13468 0.0
O25 O 0.19343 0.51903 0.12826 0.0
O26 O 0.98881 0.42517 0.13409 0.0
O27 O 1.07391 0.41201 0.15697 0.0
O28 O 1.08797 0.57591 0.19399 0.0
O29 O 0.12906 0.51154 0.20484 0.0
O30 O 0.98234 0.52146 0.12946 0.0
O31 O 1.03224 0.63379 0.13886 0.0
H32 H 0.34484 0.77746 0.17445 0.0
H33 H 0.46325 0.8438 0.14742 0.0
H34 H 0.39146 0.92016 0.04562 0.0
H35 H 0.27127 0.85237 0.0732 0.0
H36 H 0.86557 0.32177 0.15978 0.0
H37 H 0.79323 0.27428 0.2188 0.0
H38 H 0.97502 0.30887 0.28716 0.0
H39 H 1.04873 0.35991 0.22693 0.0
Tb40 Tb 0.69805 1.04932 0.47703 0.0
Tb41 Tb 0.62198 0.10865 0.48345 0.0
C42 C 0.7541 0.97647 0.49534 0.0
C43 C 0.80625 0.98076 0.52413 0.0
C44 C 0.80832 1.0054 0.5613 0.0
C45 C 0.835 0.98308 0.59345 0.0
C46 C 0.85619 0.93352 0.58861 0.0
C47 C 0.87098 0.92522 0.54958 0.0
C48 C 0.84416 0.94713 0.51754 0.0
C49 C 0.66186 1.07323 0.40591 0.0
C50 C 0.51537 0.93476 0.47294 0.0
C51 C 0.56384 0.18245 0.47356 0.0
C52 C 0.58687 0.25638 0.46087 0.0
C53 C 0.62641 0.2904 0.42534 0.0
C54 C 0.6498 0.36163 0.41506 0.0
C55 C 0.63558 0.39986 0.44073 0.0
C56 C 0.59334 0.36484 0.47511 0.0
C57 C 0.56911 0.29379 0.48505 0.0
C58 C 0.64802 1.0689 0.55717 0.0
C59 C 0.8028 0.22534 0.46502 0.0
O60 O 0.77656 1.02426 0.46538 0.0
O61 O 0.69404 0.96386 0.51068 0.0
O62 O 0.62393 1.05113 0.43702 0.0
O63 O 0.72412 0.08439 0.41447 0.0
O64 O 0.58283 0.94469 0.47256 0.0
O65 O 0.51913 0.99728 0.47774 0.0
O66 O 0.56781 0.14551 0.44688 0.0
O67 O 0.58552 0.17002 0.50768 0.0
O68 O 0.69151 0.09967 0.52754 0.0
O69 O 0.58745 1.05787 0.54446 0.0
O70 O 0.73507 0.2142 0.46656 0.0
O71 O 0.80025 0.16249 0.47146 0.0
H72 H 0.78216 1.03476 0.56647 0.0
H73 H 0.82862 0.99576 0.62266 0.0
H74 H 0.89176 0.89138 0.54388 0.0
H75 H 0.84572 0.93038 0.48862 0.0
H76 H 0.64048 0.26267 0.40589 0.0
H77 H 0.681 0.38731 0.38797 0.0
H78 H 0.58068 0.39304 0.49497 0.0
H79 H 0.53786 0.26844 0.5122 0.0
Tb80 Tb 0.60801 0.56629 0.81758 0.0
Tb81 Tb 0.74921 0.64027 0.80697 0.0
C82 C 0.49034 0.50476 0.85268 0.0
C83 C 0.45667 0.51939 0.88473 0.0
C84 C 0.44509 0.48246 0.92234 0.0
C85 C 0.40596 0.48985 0.95174 0.0
C86 C 0.377 0.53342 0.94369 0.0
C87 C 0.39452 0.57503 0.90705 0.0
C88 C 0.43367 0.56793 0.87794 0.0
C89 C 0.64351 0.56577 0.74414 0.0
C90 C 0.67359 0.74563 0.79971 0.0
C91 C 0.87312 0.71473 0.77857 0.0
C92 C 0.9236 0.69366 0.76767 0.0
C93 C 0.96908 0.72723 0.73431 0.0
C94 C 1.01304 0.70275 0.72209 0.0
C95 C 1.01219 0.64482 0.74342 0.0
C96 C 0.96219 0.60855 0.77483 0.0
C97 C 0.91887 0.63289 0.78698 0.0
C98 C 0.71085 0.60059 0.88513 0.0
C99 C 0.68101 0.46141 0.80508 0.0
O100 O 0.543 0.49582 0.86365 0.0
O101 O 0.50255 0.5421 0.81833 0.0
O102 O 0.66997 0.61697 0.76499 0.0
O103 O 0.59004 0.51365 0.76341 0.0
O104 O 0.61484 0.67913 0.80524 0.0
O105 O 0.73377 0.74094 0.80176 0.0
O106 O 0.81725 0.6886 0.75733 0.0
O107 O 0.85706 0.70851 0.81628 0.0
O108 O 0.68531 0.62595 0.85922 0.0
O109 O 0.76109 0.59807 0.867 0.0
O110 O 0.738 0.528 0.79877 0.0
O111 O 0.62376 0.46596 0.81647 0.0
H112 H 0.46393 0.44577 0.92854 0.0
H113 H 0.39569 0.45897 0.97991 0.0
H114 H 0.37389 0.6097 0.89933 0.0
H115 H 0.44296 0.5982 0.84955 0.0
H116 H 0.9703 0.77201 0.71767 0.0
H117 H 1.04764 0.72938 0.69632 0.0
H118 H 0.95806 0.56235 0.79114 0.0
H119 H 0.88164 0.60408 0.81159 0.0
C120 C 0.67094 0.07922 0.20022 0.0
N121 N 0.66513 0.07786 0.2398 0.0
N122 N 0.6126 1.02468 0.18684 0.0
C123 C 0.73218 0.13466 0.17467 0.0
C124 C 0.57128 0.98998 0.21978 0.0
N125 N 0.60375 1.02248 0.25207 0.0
C126 C 0.49964 0.9254 0.22014 0.0
H127 H 0.72685 0.18214 0.16991 0.0
H128 H 0.73353 0.11615 0.14545 0.0
H129 H 0.78252 0.14964 0.18966 0.0
H130 H 0.50558 0.88061 0.21267 0.0
H131 H 0.46718 0.93368 0.19728 0.0
H132 H 0.47241 0.91218 0.24958 0.0
C133 C 0.73211 0.68604 0.52378 0.0
N134 N 0.72281 0.68477 0.56324 0.0
N135 N 0.69384 0.62033 0.51196 0.0
C136 C 0.77983 0.75074 0.49728 0.0
C137 C 0.65968 0.57966 0.54546 0.0
N138 N 0.67709 0.61885 0.57651 0.0
C139 C 0.61546 0.50078 0.54847 0.0
H140 H 0.76673 0.7923 0.50146 0.0
H141 H 0.77451 0.73965 0.46572 0.0
H142 H 0.83539 0.77094 0.50577 0.0
H143 H 0.64944 0.47863 0.54194 0.0
H144 H 0.57395 0.4847 0.52611 0.0
H145 H 0.59011 0.47885 0.57831 0.0
C146 C 0.17404 0.54384 0.85813 0.0
N147 N 0.16845 0.54304 0.89778 0.0
N148 N 0.1241 0.55446 0.84038 0.0
C149 C 0.23192 0.54085 0.83686 0.0
C150 C 1.08753 0.55895 0.87082 0.0
N151 N 1.11533 0.5531 0.90564 0.0
C152 C 1.02608 0.57092 0.8663 0.0
H153 H 0.23819 0.49701 0.85079 0.0
H154 H 0.28245 0.59046 0.83974 0.0
H155 H 0.22091 0.53394 0.80501 0.0
H156 H 0.98266 0.52571 0.85258 0.0
H157 H 1.04173 0.61931 0.84638 0.0
H158 H 1.00663 0.57581 0.8952 0.0
C159 C 0.15588 0.57978 0.45749 0.0
N160 N 1.10415 0.53152 0.43142 0.0
N161 N 0.21654 0.64356 0.43956 0.0
C162 C 0.14794 0.56365 0.50139 0.0
C163 C 0.19634 0.63127 0.40115 0.0
N164 N 0.13461 0.56755 0.39571 0.0
C165 C 0.23819 0.68531 0.36728 0.0
H166 H 1.11525 0.5838 0.51323 0.0
H167 H 0.20032 0.58999 0.51511 0.0
H168 H 0.12076 0.50592 0.50917 0.0
H169 H 0.27869 0.67449 0.35595 0.0
H170 H 0.26573 0.73924 0.37709 0.0
H171 H 0.20375 0.68387 0.34266 0.0
C172 C 0.67575 0.10111 0.79175 0.0
N173 N 0.67521 1.05106 0.76603 0.0
N174 N 0.6762 0.16364 0.77351 0.0
C175 C 0.6773 0.08956 0.83568 0.0
C176 C 0.67409 0.14659 0.73521 0.0
N177 N 0.67518 0.08462 0.7302 0.0
C178 C 0.66809 0.19167 0.70101 0.0
H179 H 0.62224 1.05892 0.84786 0.0
H180 H 0.70414 0.14073 0.84888 0.0
H181 H 0.70414 1.05913 0.8437 0.0
H182 H 0.72165 0.22995 0.68841 0.0
H183 H 0.64361 0.22161 0.71068 0.0
H184 H 0.63582 0.15935 0.67729 0.0
C185 C 0.61797 0.57857 0.11754 0.0
N186 N 0.67237 0.57949 0.09298 0.0
N187 N 0.55972 0.58105 0.09794 0.0
C188 C 0.62052 0.57313 0.16166 0.0
C189 C 0.58408 0.58524 0.05997 0.0
N190 N 0.64644 0.58277 0.05656 0.0
C191 C 0.54599 0.59365 0.02437 0.0
H192 H 0.56623 0.54494 0.17502 0.0
H193 H 0.64849 0.62692 0.17166 0.0
H194 H 0.64968 0.54589 0.17176 0.0
H195 H 0.51331 0.6168 0.03168 0.0
H196 H 0.51085 0.54122 0.01378 0.0
H197 H 0.58368 0.62768 -0.00018 0.0
C198 C 0.40867 0.62931 0.1362 0.0
C199 C 0.33872 0.57857 0.1216 0.0
C200 C 0.41607 0.52481 0.09728 0.0
C201 C 0.48624 0.57807 0.10936 0.0
N202 N 0.5406 0.69029 0.13563 0.0
N203 N 0.29226 0.48452 0.07886 0.0
C204 C 0.47884 0.63229 0.12751 0.0
C205 C 0.3483 0.52843 0.09997 0.0
N206 N 0.40886 0.67523 0.16069 0.0
N207 N 0.41258 0.46675 0.08374 0.0
H208 H 0.24535 0.48568 0.07807 0.0
H209 H 0.29489 0.45293 0.05865 0.0
H210 H 0.45715 0.46152 0.08157 0.0
H211 H 0.36539 0.42139 0.07875 0.0
H212 H 0.45253 0.70836 0.17642 0.0
H213 H 0.36287 0.67505 0.16824 0.0
H214 H 0.54389 0.73634 0.14366 0.0
H215 H 0.58929 0.69381 0.13086 0.0
C216 C 0.89717 0.37557 0.46883 0.0
C217 C 0.8816 0.30686 0.45593 0.0
C218 C 1.01652 0.38765 0.42962 0.0
C219 C 1.03026 0.45675 0.43993 0.0
N220 N 0.96871 0.50699 0.46856 0.0
N221 N 0.93764 0.26324 0.41542 0.0
C222 C 0.96572 0.44662 0.4594 0.0
C223 C 0.94532 0.3187 0.43428 0.0
N224 N 0.84599 0.37331 0.49232 0.0
N225 N 1.07416 0.38591 0.41686 0.0
H226 H 0.89041 0.2153 0.41671 0.0
H227 H 0.97497 0.26692 0.39526 0.0
H228 H 0.12392 0.43092 0.41471 0.0
H229 H 1.07441 0.33971 0.41307 0.0
H230 H 0.85219 0.41512 0.50734 0.0
H231 H 0.79847 0.32683 0.49941 0.0
H232 H 0.92592 0.50964 0.47908 0.0
H233 H 1.01425 0.55605 0.46288 0.0
C234 C 0.61966 0.84192 0.80546 0.0
C235 C 0.67317 0.8259 0.79098 0.0
C236 C 0.73066 0.96235 0.76313 0.0
C237 C 0.67468 0.97638 0.77482 0.0
N238 N 0.55915 0.91272 0.80562 0.0
N239 N 0.77617 0.88371 0.74738 0.0
C240 C 0.61811 0.91082 0.79563 0.0
C241 C 0.72715 0.89062 0.76774 0.0
N242 N 0.56937 0.79099 0.8312 0.0
N243 N 0.79185 1.02013 0.74902 0.0
H244 H 0.77616 0.83638 0.74842 0.0
H245 H 0.8118 0.92202 0.72636 0.0
H246 H 0.7976 1.07009 0.74713 0.0
H247 H 0.83851 1.01998 0.74398 0.0
H248 H 0.53398 0.79811 0.84754 0.0
H249 H 0.56751 0.74336 0.83901 0.0
H250 H 0.51176 0.86845 0.8156 0.0
H251 H 0.55634 0.95857 0.80045 0.0
C252 C 0.8321 0.52718 0.09789 0.0
C253 C 0.8911 0.57655 0.12121 0.0
C254 C 0.80532 0.63064 0.12349 0.0
C255 C 0.74464 0.57798 0.10304 0.0
N256 N 0.70608 0.46561 0.07921 0.0
N257 N 0.91472 0.67032 0.1616 0.0
C258 C 0.76107 0.52423 0.09261 0.0
C259 C 0.87129 0.62657 0.13493 0.0
N260 N 0.84415 0.48252 0.07836 0.0
N261 N 0.80198 0.68847 0.13132 0.0
H262 H 0.95951 0.66945 0.17144 0.0
H263 H 0.90244 0.7017 0.17717 0.0
H264 H 0.75799 0.69334 0.12442 0.0
H265 H 0.84464 0.73371 0.14086 0.0
H266 H 0.81082 0.45162 0.05714 0.0
H267 H 0.89128 0.48189 0.08037 0.0
H268 H 0.70774 0.42025 0.075 0.0
H269 H 0.65602 0.45985 0.07712 0.0
C270 C 0.42894 0.7976 0.44428 0.0
C271 C 0.43649 0.85592 0.46629 0.0
C272 C 0.29537 0.77089 0.47161 0.0
C273 C 0.28924 0.71105 0.45238 0.0
N274 N 0.36433 0.67404 0.42557 0.0
N275 N 0.36228 0.87949 0.50648 0.0
C276 C 0.36057 0.72769 0.44032 0.0
C277 C 0.36492 0.8363 0.48098 0.0
N278 N 0.48812 0.80977 0.42436 0.0
N279 N 0.23301 0.76713 0.48029 0.0
H280 H 0.40748 0.92388 0.5148 0.0
H281 H 0.31686 0.86754 0.52251 0.0
H282 H 0.1846 0.72278 0.47535 0.0
H283 H 0.2293 0.80926 0.4891 0.0
H284 H 0.48819 0.77781 0.40351 0.0
H285 H 0.53626 0.85593 0.42585 0.0
H286 H 0.41147 0.67484 0.4205 0.0
H287 H 0.31922 0.62552 0.42223 0.0
C288 C 0.73548 0.37559 0.77716 0.0
C289 C 0.68102 0.38234 0.79882 0.0
C290 C 0.62305 0.24088 0.80474 0.0
C291 C 0.67983 0.23542 0.78587 0.0
N292 N 0.79726 0.3118 0.75959 0.0
N293 N 0.57643 0.30493 0.83942 0.0
C294 C 0.73711 0.30735 0.77377 0.0
C295 C 0.62632 0.30971 0.81383 0.0
N296 N 0.78698 0.43568 0.75719 0.0
N297 N 0.56228 0.17855 0.81341 0.0
H298 H 0.57596 0.34905 0.84768 0.0
H299 H 0.54046 0.25838 0.85568 0.0
H300 H 0.55847 0.13058 0.80874 0.0
H301 H 0.51491 0.17478 0.82185 0.0
H302 H 0.82215 0.43663 0.7365 0.0
H303 H 0.79063 0.48422 0.75842 0.0
H304 H 0.84512 0.35875 0.75498 0.0
H305 H 0.80078 0.26696 0.75644 0.0
C306 C 0.75845 0.83263 0.624 0.0
C307 C 0.83248 0.87175 0.61878 0.0
C308 C 0.83027 0.7682 0.5975 0.0
C309 C 0.75845 0.74255 0.58759 0.0
N310 N 0.6529 0.75111 0.59449 0.0
N311 N 0.93541 0.86216 0.62597 0.0
C312 C 0.72143 0.77336 0.60266 0.0
C313 C 0.86659 0.83257 0.6159 0.0
N314 N 0.72377 0.85698 0.64471 0.0
N315 N 0.86403 0.73412 0.58689 0.0
H316 H 0.96091 0.91144 0.6372 0.0
H317 H 0.96503 0.83733 0.62519 0.0
H318 H 0.83855 0.6887 0.57214 0.0
H319 H 0.91709 0.75151 0.59165 0.0
H320 H 0.6687 0.83056 0.64739 0.0
H321 H 0.75105 0.90032 0.66113 0.0
H322 H 0.62386 0.71176 0.57585 0.0
H323 H 0.62386 0.71176 0.57585 0.0
C324 C 0.13422 0.67412 0.7545 0.0
C325 C 1.06884 0.62718 0.73882 0.0
C326 C 1.07077 0.52812 0.77527 0.0
C327 C 0.12179 0.57658 0.79964 0.0
N328 N 0.21412 0.69659 0.80699 0.0
N329 N 0.9956 0.51186 0.71854 0.0
C330 C 0.15873 0.6493 0.78695 0.0
C331 C 1.04645 0.55462 0.74276 0.0
N332 N 0.16975 0.74343 0.74084 0.0
N333 N 1.04211 0.45783 0.7856 0.0
H334 H 0.97639 0.53294 0.69625 0.0
H335 H 0.97565 0.45789 0.7192 0.0
H336 H 1.06043 0.43911 0.80954 0.0
H337 H 1.00105 0.41879 0.77088 0.0
H338 H 0.21658 0.77999 0.75313 0.0
H339 H 0.15492 0.76236 0.71553 0.0
H340 H 0.23459 0.68267 0.83181 0.0
H341 H 0.23459 0.68267 0.83181 0.0
C342 C 0.56382 0.92612 0.09706 0.0
C343 C 0.51308 0.94438 0.08445 0.0
C344 C 0.56241 1.04249 0.1246 0.0
C345 C 0.59517 1.00995 0.14661 0.0
N346 N 0.64451 0.93408 0.14935 0.0
N347 N 0.50795 1.04777 0.0625 0.0
C348 C 0.60357 0.95721 0.1306 0.0
C349 C 0.52822 1.01304 0.08978 0.0
N350 N 0.56478 0.87236 0.0807 0.0
N351 N 0.55999 0.0976 0.13829 0.0
H352 H 0.48591 1.02642 0.03607 0.0
H353 H 0.52032 0.09965 0.06421 0.0
H354 H 0.58483 0.11982 0.16401 0.0
H355 H 0.53062 0.11862 0.12509 0.0
H356 H 0.59942 0.85437 0.08849 0.0
H357 H 0.53125 0.84805 0.05772 0.0
H358 H 0.65022 0.89309 0.14058 0.0
H359 H 0.67322 0.95707 0.17404 0.0
C360 C 0.62324 0.50566 0.43192 0.0
C361 C 0.66852 0.47741 0.43513 0.0
C362 C 0.75163 0.57483 0.47176 0.0
C363 C 0.69919 0.59374 0.4757 0.0
N364 N 0.59363 0.58971 0.45129 0.0
N365 N 0.78774 0.50115 0.44185 0.0
C366 C 0.63946 0.56518 0.45188 0.0
C367 C 0.7374 0.51825 0.44905 0.0
N368 N 0.56183 0.47215 0.41236 0.0
N369 N 0.81125 0.6058 0.49314 0.0
H370 H 0.77797 0.45931 0.42565 0.0
H371 H 0.84066 0.53276 0.44811 0.0
H372 H 0.82386 0.64883 0.50889 0.0
H373 H 0.84702 0.58788 0.49621 0.0
H374 H 0.52576 0.48999 0.41045 0.0
H375 H 0.54905 0.42787 0.39748 0.0
H376 H 0.60235 0.63276 0.46622 0.0
H377 H 0.60235 0.63276 0.46622 0.0
C378 C 0.31396 0.58663 0.96953 0.0
C379 C 0.31708 0.52485 0.96826 0.0
C380 C 0.20271 0.46772 0.93849 0.0
C381 C 0.21297 0.53548 0.92689 0.0
N382 N 0.27816 0.66084 0.93169 0.0
N383 N 0.24366 0.39985 0.9793 0.0
C384 C 0.26664 0.59544 0.944 0.0
C385 C 0.25333 0.46261 0.96281 0.0
N386 N 0.36337 0.63926 -0.01012 0.0
N387 N 0.14785 0.40981 0.92415 0.0
H388 H 0.28116 0.39737 -0.00241 0.0
H389 H 0.1967 0.35228 0.978 0.0
H390 H 1.11091 0.41309 0.90572 0.0
H391 H 0.14115 0.35954 0.92879 0.0
H392 H 0.3632 0.68574 -0.00693 0.0
H393 H 0.40074 0.63229 0.00604 0.0
H394 H 0.31976 0.70691 0.94119 0.0
H395 H 0.24959 0.66883 0.90908 0.0
C396 C 0.76501 0.23956 0.29385 0.0
C397 C 0.82996 0.24141 0.29276 0.0
C398 C 0.77185 0.11975 0.27934 0.0
C399 C 0.71506 0.12767 0.26488 0.0
N400 N 0.65323 0.19272 0.26109 0.0
N401 N 0.87688 0.16979 0.31891 0.0
C402 C 0.7082 0.18539 0.27468 0.0
C403 C 0.82635 0.17591 0.29826 0.0
N404 N 0.76247 0.29486 0.30686 0.0
N405 N 0.77606 1.06208 0.27229 0.0
H406 H 0.91643 0.21243 0.33245 0.0
H407 H 0.87529 0.12196 0.32531 0.0
H408 H 0.7376 1.02185 0.25683 0.0
H409 H 0.81952 1.05666 0.27962 0.0
H410 H 0.71583 0.29621 0.30932 0.0
H411 H 0.80749 0.33655 0.31781 0.0
H412 H 0.64868 0.23665 0.26487 0.0
H413 H 0.6148 0.15654 0.24363 0.0
C414 C 1.07423 0.51257 0.01338 0.0
C415 C 1.10881 0.58204 0.02551 0.0
C416 C 0.12727 0.63113 0.95642 0.0
C417 C 1.0981 0.56243 0.94453 0.0
N418 N 1.02751 0.43824 0.95883 0.0
N419 N 0.18208 0.70732 0.00869 0.0
C420 C 1.0664 0.50319 0.97236 0.0
C421 C 0.13797 0.64149 -0.00289 0.0
N422 N 1.05155 0.45605 0.04088 0.0
N423 N 0.14577 0.68654 0.92864 0.0
H424 H 0.19699 0.71676 0.03786 0.0
H425 H 0.21074 0.75172 0.98898 0.0
H426 H 0.14224 0.68112 0.89836 0.0
H427 H 0.15967 0.73686 0.93563 0.0
H428 H 1.03139 0.40448 0.03402 0.0
H429 H 1.0574 0.46103 0.07105 0.0
H430 H 0.99842 0.39171 0.97685 0.0
H431 H 1.01963 0.43207 0.92865 0.0
C432 C 0.59257 1.07347 0.34663 0.0
C433 C 0.63 1.04533 0.36818 0.0
C434 C 0.61159 0.9685 0.31587 0.0
C435 C 0.58209 1.0031 0.2931 0.0
N436 N 0.51457 1.06047 0.29229 0.0
N437 N 0.65242 0.94832 0.37969 0.0
C438 C 0.5607 1.04458 0.31114 0.0
C439 C 0.63192 0.98662 0.355 0.0
N440 N 0.59325 0.13169 0.35789 0.0
N441 N 0.62455 0.92231 0.2986 0.0
H442 H 0.66561 0.95858 0.40896 0.0
H443 H 0.64973 0.90211 0.37251 0.0
H444 H 0.60763 0.90776 0.27021 0.0
H445 H 0.65397 0.90109 0.3114 0.0
H446 H 0.57144 0.15773 0.34139 0.0
H447 H 0.62263 0.15826 0.38146 0.0
H448 H 0.4934 0.0877 0.30483 0.0
H449 H 0.49377 1.04077 0.26528 0.0
C450 C 0.70671 0.57522 0.68077 0.0
C451 C 0.64922 0.57413 0.70044 0.0
C452 C 0.60134 0.58615 0.63646 0.0
C453 C 0.66193 0.59363 0.61761 0.0
N454 N 0.75761 0.57059 0.61891 0.0
N455 N 0.54538 0.58612 0.6975 0.0
C456 C 0.71043 0.5809 0.63896 0.0
C457 C 0.59678 0.58067 0.67843 0.0
N458 N 0.75938 0.57386 0.70194 0.0
N459 N 0.54714 0.58121 0.61397 0.0
H460 H 0.54094 0.5839 0.72822 0.0
H461 H 0.51048 0.59863 0.68293 0.0
H462 H 0.5493 0.58306 0.58314 0.0
H463 H 0.4982 0.569 0.62564 0.0
H464 H 0.80696 0.5835 0.68954 0.0
H465 H 0.75785 0.5686 0.73249 0.0
H466 H 0.79037 0.5541 0.63246 0.0
H467 H 0.75893 0.57155 0.58814 0.0
C468 C 0.61083 1.00966 0.62926 0.0
C469 C 0.6635 1.06452 0.60239 0.0
C470 C 0.73464 0.11215 0.66257 0.0
C471 C 0.67693 1.06498 0.68923 0.0
N472 N 0.55636 0.97235 0.69583 0.0
N473 N 0.77648 0.17271 0.59677 0.0
C474 C 0.61445 1.01417 0.67182 0.0
C475 C 0.72632 0.1161 0.61997 0.0
N476 N 0.55757 0.95134 0.61421 0.0
N477 N 0.79758 0.15638 0.67847 0.0
H478 H 0.77425 0.17953 0.56624 0.0
H479 H 0.81824 0.21655 0.60805 0.0
H480 H 0.80335 0.1597 0.70892 0.0
H481 H 0.84468 0.18583 0.66192 0.0
H482 H 0.52136 0.90681 0.63189 0.0
H483 H 0.55449 0.94419 0.58408 0.0
H484 H 0.50637 0.94015 0.68521 0.0
H485 H 0.55768 0.97388 0.72649 0.0
C486 C 0.73632 0.65503 0.95319 0.0
C487 C 0.70057 0.595 0.93085 0.0
C488 C 0.63813 0.52427 -0.00605 0.0
C489 C 0.67528 0.58342 0.01678 0.0
N490 N 0.7652 0.70405 0.01774 0.0
N491 N 0.62941 0.46898 0.93318 0.0
C492 C 0.72658 0.64824 -0.00391 0.0
C493 C 0.65551 0.5287 0.95238 0.0
N494 N 0.77852 0.7193 0.93314 0.0
N495 N 0.58236 0.46426 0.01152 0.0
H496 H 0.64011 0.4699 0.90318 0.0
H497 H 0.60254 0.41849 0.94764 0.0
H498 H 0.56784 0.45886 0.04132 0.0
H499 H 0.54701 0.42239 -0.00405 0.0
H500 H 0.80124 0.76668 0.94606 0.0
H501 H 0.7881 0.72566 0.90259 0.0
H502 H 0.80764 0.75179 0.00633 0.0
H503 H 0.7573 0.70051 0.0483 0.0
C504 C 0.16974 0.55213 0.28873 0.0
C505 C 1.11409 0.55456 0.26729 0.0
C506 C 1.06265 0.55334 0.3336 0.0
C507 C 0.11564 0.54561 0.35469 0.0
N508 N 0.21273 0.52495 0.35048 0.0
N509 N 0.99878 0.54268 0.27242 0.0
C510 C 0.1657 0.53948 0.33138 0.0
C511 C 1.05798 0.5509 0.29068 0.0
N512 N 0.23027 0.56777 0.26859 0.0
N513 N 1.01828 0.56622 0.35442 0.0
H514 H 0.99283 0.53999 0.24199 0.0
H515 H 0.95336 0.53246 0.28785 0.0
H516 H 1.01981 0.56684 0.38516 0.0
H517 H 0.98359 0.58043 0.34112 0.0
H518 H 0.27566 0.57443 0.28249 0.0
H519 H 0.23871 0.58283 0.23828 0.0
H520 H 0.24517 0.51134 0.33602 0.0
H521 H 0.21539 0.52144 0.38124 0.0
loop_
_geom_bond_atom_site_label_1
_geom_bond_atom_site_label_2
_geom_bond_distance
_geom_bond_site_symmetry_2
_ccdc_geom_bond_type
Tb0 C2 2.809 . S
Tb0 O20 2.484 . S
Tb0 O21 2.440 . S
Tb0 O22 2.658 . S
Tb0 O23 2.409 . S
Tb0 O24 2.378 . S
Tb0 O28 2.325 . S
Tb0 O31 2.341 1_455 S
Tb1 C11 2.809 . S
Tb1 O22 2.325 1_655 S
Tb1 O25 2.341 1_655 S
Tb1 O26 2.484 . S
Tb1 O27 2.440 . S
Tb1 O28 2.658 1_655 S
Tb1 O29 2.409 . S
Tb1 O30 2.378 . S
C2 Tb0 2.809 . S
C2 C3 1.514 . S
C2 O20 1.248 . S
C2 O21 1.266 . S
C3 C2 1.514 . S
C3 C4 1.359 . S
C3 C8 1.348 . S
C4 C3 1.359 . S
C4 C5 1.380 . S
C4 H32 0.929 . S
C5 C4 1.380 . S
C5 C6 1.347 . S
C5 H33 0.931 . S
C6 C5 1.347 . S
C6 C7 1.369 . S
C7 C6 1.369 . S
C7 C8 1.408 . S
C7 H34 0.930 . S
C8 C3 1.348 . S
C8 C7 1.408 . S
C8 H35 0.930 . S
C9 O22 1.281 . S
C9 O23 1.254 . S
C10 O24 1.236 . S
C10 O25 1.266 . S
C11 Tb1 2.809 . S
C11 C12 1.514 . S
C11 O26 1.248 . S
C11 O27 1.266 . S
C12 C11 1.514 . S
C12 C13 1.359 . S
C12 C17 1.348 . S
C13 C12 1.359 . S
C13 C14 1.380 . S
C13 H36 0.929 . S
C14 C13 1.380 . S
C14 C15 1.347 . S
C14 H37 0.931 . S
C15 C14 1.347 . S
C15 C16 1.369 . S
C16 C15 1.369 . S
C16 C17 1.408 . S
C16 H38 0.930 . S
C17 C12 1.348 . S
C17 C16 1.408 . S
C17 H39 0.930 . S
C18 O28 1.281 . S
C18 O29 1.254 1_455 S
C19 O30 1.236 . S
C19 O31 1.266 . S
O20 Tb0 2.484 . S
O20 C2 1.248 . S
O21 Tb0 2.440 . S
O21 C2 1.266 . S
O22 Tb0 2.658 . S
O22 Tb1 2.325 1_455 S
O22 C9 1.281 . S
O23 Tb0 2.409 . S
O23 C9 1.254 . S
O24 Tb0 2.378 . S
O24 C10 1.236 . S
O25 Tb1 2.341 1_455 S
O25 C10 1.266 . S
O26 Tb1 2.484 . S
O26 C11 1.248 . S
O27 Tb1 2.440 . S
O27 C11 1.266 . S
O28 Tb0 2.325 . S
O28 Tb1 2.658 1_455 S
O28 C18 1.281 . S
O29 Tb1 2.409 . S
O29 C18 1.254 1_655 S
O30 Tb1 2.378 . S
O30 C19 1.236 . S
O31 Tb0 2.341 1_655 S
O31 C19 1.266 . S
H32 C4 0.929 . S
H33 C5 0.931 . S
H34 C7 0.930 . S
H35 C8 0.930 . S
H36 C13 0.929 . S
H37 C14 0.931 . S
H38 C16 0.930 . S
H39 C17 0.930 . S
Tb40 C42 2.809 . S
Tb40 O60 2.484 . S
Tb40 O61 2.440 . S
Tb40 O62 2.658 1_565 S
Tb40 O63 2.409 . S
Tb40 O64 2.378 . S
Tb40 O68 2.318 1_565 S
Tb40 O71 2.341 1_565 S
Tb41 C51 2.809 . S
Tb41 O62 2.325 . S
Tb41 O65 2.341 1_545 S
Tb41 O66 2.484 . S
Tb41 O67 2.440 . S
Tb41 O68 2.669 . S
Tb41 O69 2.409 . S
Tb41 O70 2.378 . S
C42 Tb40 2.809 . S
C42 C43 1.514 . S
C42 O60 1.248 . S
C42 O61 1.266 . S
C43 C42 1.514 . S
C43 C44 1.359 . S
C43 C48 1.348 . S
C44 C43 1.359 . S
C44 C45 1.380 . S
C44 H72 0.929 . S
C45 C44 1.380 . S
C45 C46 1.347 . S
C45 H73 0.931 . S
C46 C45 1.347 . S
C46 C47 1.369 . S
C47 C46 1.369 . S
C47 C48 1.408 . S
C47 H74 0.930 . S
C48 C43 1.348 . S
C48 C47 1.408 . S
C48 H75 0.930 . S
C49 O62 1.281 . S
C49 O63 1.254 1_545 S
C50 O64 1.236 . S
C50 O65 1.266 . S
C51 Tb41 2.809 . S
C51 C52 1.514 . S
C51 O66 1.248 . S
C51 O67 1.266 . S
C52 C51 1.514 . S
C52 C53 1.359 . S
C52 C57 1.348 . S
C53 C52 1.359 . S
C53 C54 1.380 . S
C53 H76 0.929 . S
C54 C53 1.380 . S
C54 C55 1.347 . S
C54 H77 0.931 . S
C55 C54 1.347 . S
C55 C56 1.369 . S
C56 C55 1.369 . S
C56 C57 1.408 . S
C56 H78 0.930 . S
C57 C52 1.348 . S
C57 C56 1.408 . S
C57 H79 0.930 . S
C58 O68 1.287 . S
C58 O69 1.254 . S
C59 O70 1.236 . S
C59 O71 1.266 . S
O60 Tb40 2.484 . S
O60 C42 1.248 . S
O61 Tb40 2.440 . S
O61 C42 1.266 . S
O62 Tb40 2.658 1_545 S
O62 Tb41 2.325 . S
O62 C49 1.281 . S
O63 Tb40 2.409 . S
O63 C49 1.254 1_565 S
O64 Tb40 2.378 . S
O64 C50 1.236 . S
O65 Tb41 2.341 1_565 S
O65 C50 1.266 . S
O66 Tb41 2.484 . S
O66 C51 1.248 . S
O67 Tb41 2.440 . S
O67 C51 1.266 . S
O68 Tb40 2.318 1_545 S
O68 Tb41 2.669 . S
O68 C58 1.287 . S
O69 Tb41 2.409 . S
O69 C58 1.254 . S
O70 Tb41 2.378 . S
O70 C59 1.236 . S
O71 Tb40 2.341 1_545 S
O71 C59 1.266 . S
H72 C44 0.929 . S
H73 C45 0.931 . S
H74 C47 0.930 . S
H75 C48 0.930 . S
H76 C53 0.929 . S
H77 C54 0.931 . S
H78 C56 0.930 . S
H79 C57 0.930 . S
Tb80 C82 2.809 . S
Tb80 O100 2.484 . S
Tb80 O101 2.440 . S
Tb80 O102 2.658 . S
Tb80 O103 2.409 . S
Tb80 O104 2.378 . S
Tb80 O108 2.325 . S
Tb80 O111 2.341 . S
Tb81 C91 2.809 . S
Tb81 O102 2.325 . S
Tb81 O105 2.341 . S
Tb81 O106 2.484 . S
Tb81 O107 2.440 . S
Tb81 O108 2.658 . S
Tb81 O109 2.409 . S
Tb81 O110 2.378 . S
C82 Tb80 2.809 . S
C82 C83 1.514 . S
C82 O100 1.248 . S
C82 O101 1.266 . S
C83 C82 1.514 . S
C83 C84 1.359 . S
C83 C88 1.348 . S
C84 C83 1.359 . S
C84 C85 1.380 . S
C84 H112 0.929 . S
C85 C84 1.380 . S
C85 C86 1.347 . S
C85 H113 0.931 . S
C86 C85 1.347 . S
C86 C87 1.369 . S
C87 C86 1.369 . S
C87 C88 1.408 . S
C87 H114 0.930 . S
C88 C83 1.348 . S
C88 C87 1.408 . S
C88 H115 0.930 . S
C89 O102 1.281 . S
C89 O103 1.254 . S
C90 O104 1.236 . S
C90 O105 1.266 . S
C91 Tb81 2.809 . S
C91 C92 1.514 . S
C91 O106 1.248 . S
C91 O107 1.266 . S
C92 C91 1.514 . S
C92 C93 1.359 . S
C92 C97 1.348 . S
C93 C92 1.359 . S
C93 C94 1.380 . S
C93 H116 0.929 . S
C94 C93 1.380 . S
C94 C95 1.347 . S
C94 H117 0.931 . S
C95 C94 1.347 . S
C95 C96 1.369 . S
C96 C95 1.369 . S
C96 C97 1.408 . S
C96 H118 0.930 . S
C97 C92 1.348 . S
C97 C96 1.408 . S
C97 H119 0.930 . S
C98 O108 1.281 . S
C98 O109 1.254 . S
C99 O110 1.236 . S
C99 O111 1.266 . S
O100 Tb80 2.484 . S
O100 C82 1.248 . S
O101 Tb80 2.440 . S
O101 C82 1.266 . S
O102 Tb80 2.658 . S
O102 Tb81 2.325 . S
O102 C89 1.281 . S
O103 Tb80 2.409 . S
O103 C89 1.254 . S
O104 Tb80 2.378 . S
O104 C90 1.236 . S
O105 Tb81 2.341 . S
O105 C90 1.266 . S
O106 Tb81 2.484 . S
O106 C91 1.248 . S
O107 Tb81 2.440 . S
O107 C91 1.266 . S
O108 Tb80 2.325 . S
O108 Tb81 2.658 . S
O108 C98 1.281 . S
O109 Tb81 2.409 . S
O109 C98 1.254 . S
O110 Tb81 2.378 . S
O110 C99 1.236 . S
O111 Tb80 2.341 . S
O111 C99 1.266 . S
H112 C84 0.929 . S
H113 C85 0.931 . S
H114 C87 0.930 . S
H115 C88 0.930 . S
H116 C93 0.929 . S
H117 C94 0.931 . S
H118 C96 0.930 . S
H119 C97 0.930 . S
C120 N121 1.317 . S
C120 N122 1.348 1_545 S
C120 C123 1.485 . S
N121 C120 1.317 . S
N121 N125 1.370 . S
N122 C120 1.348 1_565 S
N122 C124 1.346 . S
C123 C120 1.485 . S
C123 H127 0.960 . S
C123 H128 0.961 1_545 S
C123 H129 0.960 . S
C124 N122 1.346 . S
C124 N125 1.307 1_565 S
C124 C126 1.486 . S
N125 N121 1.370 . S
N125 C124 1.307 1_545 S
C126 C124 1.486 . S
C126 H130 0.960 . S
C126 H131 0.960 . S
C126 H132 0.959 . S
H127 C123 0.960 . S
H128 C123 0.961 1_565 S
H129 C123 0.960 . S
H130 C126 0.960 . S
H131 C126 0.960 . S
H132 C126 0.959 . S
C133 N134 1.317 . S
C133 N135 1.348 . S
C133 C136 1.485 . S
N134 C133 1.317 . S
N134 N138 1.370 . S
N135 C133 1.348 . S
N135 C137 1.346 . S
C136 C133 1.485 . S
C136 H140 0.960 . S
C136 H141 0.961 . S
C136 H142 0.960 . S
C137 N135 1.346 . S
C137 N138 1.307 . S
C137 C139 1.486 . S
N138 N134 1.370 . S
N138 C137 1.307 . S
C139 C137 1.486 . S
C139 H143 0.960 . S
C139 H144 0.960 . S
C139 H145 0.959 . S
H140 C136 0.960 . S
H141 C136 0.961 . S
H142 C136 0.960 . S
H143 C139 0.960 . S
H144 C139 0.960 . S
H145 C139 0.959 . S
C146 N147 1.313 1_655 S
C146 N148 1.355 . S
C146 C149 1.483 1_655 S
N147 C146 1.313 1_455 S
N147 N151 1.370 . S
N148 C146 1.355 . S
N148 C150 1.346 . S
C149 C146 1.483 1_455 S
C149 H153 0.960 . S
C149 H154 0.961 1_455 S
C149 H155 0.960 . S
C150 N148 1.346 . S
C150 N151 1.307 1_655 S
C150 C152 1.486 . S
N151 N147 1.370 . S
N151 C150 1.307 1_455 S
C152 C150 1.486 . S
C152 H156 0.960 . S
C152 H157 0.960 . S
C152 H158 0.959 . S
H153 C149 0.960 . S
H154 C149 0.961 1_655 S
H155 C149 0.960 . S
H156 C152 0.960 . S
H157 C152 0.960 . S
H158 C152 0.959 . S
C159 N160 1.317 . S
C159 N161 1.348 . S
C159 C162 1.485 . S
N160 C159 1.317 . S
N160 N164 1.370 . S
N161 C159 1.348 . S
N161 C163 1.346 . S
C162 C159 1.485 . S
C162 H166 0.960 . S
C162 H167 0.961 . S
C162 H168 0.960 . S
C163 N161 1.346 . S
C163 N164 1.307 . S
C163 C165 1.486 . S
N164 N160 1.370 . S
N164 C163 1.307 . S
C165 C163 1.486 . S
C165 H169 0.960 . S
C165 H170 0.960 . S
C165 H171 0.959 . S
H166 C162 0.960 . S
H167 C162 0.961 . S
H168 C162 0.960 . S
H169 C165 0.960 . S
H170 C165 0.960 . S
H171 C165 0.959 . S
C172 N173 1.317 1_545 S
C172 N174 1.348 . S
C172 C175 1.485 . S
N173 C172 1.317 1_565 S
N173 N177 1.370 1_565 S
N174 C172 1.348 . S
N174 C176 1.346 . S
C175 C172 1.485 . S
C175 H179 0.960 1_545 S
C175 H180 0.961 . S
C175 H181 0.960 1_545 S
C176 N174 1.346 . S
C176 N177 1.307 . S
C176 C178 1.486 . S
N177 N173 1.370 1_545 S
N177 C176 1.307 . S
C178 C176 1.486 . S
C178 H182 0.960 . S
C178 H183 0.960 . S
C178 H184 0.959 . S
H179 C175 0.960 1_565 S
H180 C175 0.961 . S
H181 C175 0.960 1_565 S
H182 C178 0.960 . S
H183 C178 0.960 . S
H184 C178 0.959 . S
C185 N186 1.317 . S
C185 N187 1.348 . S
C185 C188 1.485 . S
N186 C185 1.317 . S
N186 N190 1.370 . S
N187 C185 1.348 . S
N187 C189 1.346 . S
C188 C185 1.485 . S
C188 H192 0.960 . S
C188 H193 0.961 . S
C188 H194 0.960 . S
C189 N187 1.346 . S
C189 N190 1.307 . S
C189 C191 1.486 . S
N190 N186 1.370 . S
N190 C189 1.307 . S
C191 C189 1.486 . S
C191 H195 0.960 . S
C191 H196 0.960 . S
C191 H197 0.959 . S
H192 C188 0.960 . S
H193 C188 0.961 . S
H194 C188 0.960 . S
H195 C191 0.960 . S
H196 C191 0.960 . S
H197 C191 0.959 . S
C198 C199 1.363 . S
C198 C204 1.379 . S
C198 N206 1.356 . S
C199 C198 1.363 . S
C199 C205 1.363 . S
C200 C201 1.363 . S
C200 C205 1.379 . S
C200 N207 1.356 . S
C201 C200 1.363 . S
C201 C204 1.363 . S
N202 C204 1.356 . S
N202 H214 0.984 . S
N202 H215 0.985 . S
N203 C205 1.356 . S
N203 H208 0.984 . S
N203 H209 0.985 . S
C204 C198 1.379 . S
C204 C201 1.363 . S
C204 N202 1.356 . S
C205 C199 1.363 . S
C205 C200 1.379 . S
C205 N203 1.356 . S
N206 C198 1.356 . S
N206 H212 0.984 . S
N206 H213 0.984 . S
N207 C200 1.356 . S
N207 H210 0.984 . S
N207 H211 0.985 . S
H208 N203 0.984 . S
H209 N203 0.985 . S
H210 N207 0.984 . S
H211 N207 0.985 . S
H212 N206 0.984 . S
H213 N206 0.984 . S
H214 N202 0.984 . S
H215 N202 0.985 . S
C216 C217 1.363 . S
C216 C222 1.379 . S
C216 N224 1.356 . S
C217 C216 1.363 . S
C217 C223 1.363 . S
C218 C219 1.363 . S
C218 C223 1.379 . S
C218 N225 1.356 . S
C219 C218 1.363 . S
C219 C222 1.363 . S
N220 C222 1.356 . S
N220 H232 0.984 . S
N220 H233 0.985 . S
N221 C223 1.356 . S
N221 H226 0.984 . S
N221 H227 0.985 . S
C222 C216 1.379 . S
C222 C219 1.363 . S
C222 N220 1.356 . S
C223 C217 1.363 . S
C223 C218 1.379 . S
C223 N221 1.356 . S
N224 C216 1.356 . S
N224 H230 0.984 . S
N224 H231 0.984 . S
N225 C218 1.356 . S
N225 H228 0.984 1_655 S
N225 H229 0.985 . S
H226 N221 0.984 . S
H227 N221 0.985 . S
H228 N225 0.984 1_455 S
H229 N225 0.985 . S
H230 N224 0.984 . S
H231 N224 0.984 . S
H232 N220 0.984 . S
H233 N220 0.985 . S
C234 C235 1.363 . S
C234 C240 1.379 . S
C234 N242 1.356 . S
C235 C234 1.363 . S
C235 C241 1.363 . S
C236 C237 1.363 . S
C236 C241 1.379 . S
C236 N243 1.356 . S
C237 C236 1.363 . S
C237 C240 1.363 . S
N238 C240 1.356 . S
N238 H250 0.984 . S
N238 H251 0.985 . S
N239 C241 1.356 . S
N239 H244 0.984 . S
N239 H245 0.985 . S
C240 C234 1.379 . S
C240 C237 1.363 . S
C240 N238 1.356 . S
C241 C235 1.363 . S
C241 C236 1.379 . S
C241 N239 1.356 . S
N242 C234 1.356 . S
N242 H248 0.984 . S
N242 H249 0.984 . S
N243 C236 1.356 . S
N243 H246 0.984 . S
N243 H247 0.985 . S
H244 N239 0.984 . S
H245 N239 0.985 . S
H246 N243 0.984 . S
H247 N243 0.985 . S
H248 N242 0.984 . S
H249 N242 0.984 . S
H250 N238 0.984 . S
H251 N238 0.985 . S
C252 C253 1.363 . S
C252 C258 1.379 . S
C252 N260 1.356 . S
C253 C252 1.363 . S
C253 C259 1.363 . S
C254 C255 1.363 . S
C254 C259 1.379 . S
C254 N261 1.356 . S
C255 C254 1.363 . S
C255 C258 1.363 . S
N256 C258 1.356 . S
N256 H268 0.984 . S
N256 H269 0.985 . S
N257 C259 1.356 . S
N257 H262 0.984 . S
N257 H263 0.985 . S
C258 C252 1.379 . S
C258 C255 1.363 . S
C258 N256 1.356 . S
C259 C253 1.363 . S
C259 C254 1.379 . S
C259 N257 1.356 . S
N260 C252 1.356 . S
N260 H266 0.984 . S
N260 H267 0.984 . S
N261 C254 1.356 . S
N261 H264 0.984 . S
N261 H265 0.985 . S
H262 N257 0.984 . S
H263 N257 0.985 . S
H264 N261 0.984 . S
H265 N261 0.985 . S
H266 N260 0.984 . S
H267 N260 0.984 . S
H268 N256 0.984 . S
H269 N256 0.985 . S
C270 C271 1.363 . S
C270 C276 1.379 . S
C270 N278 1.356 . S
C271 C270 1.363 . S
C271 C277 1.363 . S
C272 C273 1.363 . S
C272 C277 1.379 . S
C272 N279 1.356 . S
C273 C272 1.363 . S
C273 C276 1.363 . S
N274 C276 1.356 . S
N274 H286 0.984 . S
N274 H287 0.985 . S
N275 C277 1.356 . S
N275 H280 0.984 . S
N275 H281 0.985 . S
C276 C270 1.379 . S
C276 C273 1.363 . S
C276 N274 1.356 . S
C277 C271 1.363 . S
C277 C272 1.379 . S
C277 N275 1.356 . S
N278 C270 1.356 . S
N278 H284 0.984 . S
N278 H285 0.984 . S
N279 C272 1.356 . S
N279 H282 0.984 . S
N279 H283 0.985 . S
H280 N275 0.984 . S
H281 N275 0.985 . S
H282 N279 0.984 . S
H283 N279 0.985 . S
H284 N278 0.984 . S
H285 N278 0.984 . S
H286 N274 0.984 . S
H287 N274 0.985 . S
C288 C289 1.363 . S
C288 C294 1.379 . S
C288 N296 1.356 . S
C289 C288 1.363 . S
C289 C295 1.363 . S
C290 C291 1.363 . S
C290 C295 1.379 . S
C290 N297 1.356 . S
C291 C290 1.363 . S
C291 C294 1.363 . S
N292 C294 1.356 . S
N292 H304 0.984 . S
N292 H305 0.985 . S
N293 C295 1.356 . S
N293 H298 0.984 . S
N293 H299 0.985 . S
C294 C288 1.379 . S
C294 C291 1.363 . S
C294 N292 1.356 . S
C295 C289 1.363 . S
C295 C290 1.379 . S
C295 N293 1.356 . S
N296 C288 1.356 . S
N296 H302 0.984 . S
N296 H303 0.984 . S
N297 C290 1.356 . S
N297 H300 0.984 . S
N297 H301 0.985 . S
H298 N293 0.984 . S
H299 N293 0.985 . S
H300 N297 0.984 . S
H301 N297 0.985 . S
H302 N296 0.984 . S
H303 N296 0.984 . S
H304 N292 0.984 . S
H305 N292 0.985 . S
C306 C307 1.363 . S
C306 C312 1.379 . S
C306 N314 1.356 . S
C307 C306 1.363 . S
C307 C313 1.363 . S
C308 C309 1.363 . S
C308 C313 1.379 . S
C308 N315 1.356 . S
C309 C308 1.363 . S
C309 C312 1.363 . S
N310 C312 1.356 . S
N310 H322 0.984 . S
N310 H323 0.985 . S
N311 C313 1.356 . S
N311 H316 0.984 . S
N311 H317 0.985 . S
C312 C306 1.379 . S
C312 C309 1.363 . S
C312 N310 1.356 . S
C313 C307 1.363 . S
C313 C308 1.379 . S
C313 N311 1.356 . S
N314 C306 1.356 . S
N314 H320 0.984 . S
N314 H321 0.984 . S
N315 C308 1.356 . S
N315 H318 0.984 . S
N315 H319 0.985 . S
H316 N311 0.984 . S
H317 N311 0.985 . S
H318 N315 0.984 . S
H319 N315 0.985 . S
H320 N314 0.984 . S
H321 N314 0.984 . S
H322 N310 0.984 . S
H323 N310 0.985 . S
C324 C325 1.363 . S
C324 C330 1.379 . S
C324 N332 1.356 . S
C325 C324 1.363 . S
C325 C331 1.363 . S
C326 C327 1.363 . S
C326 C331 1.379 . S
C326 N333 1.356 . S
C327 C326 1.363 . S
C327 C330 1.363 . S
N328 C330 1.356 . S
N328 H340 0.984 . S
N328 H341 0.985 . S
N329 C331 1.356 . S
N329 H334 0.984 . S
N329 H335 0.985 . S
C330 C324 1.379 . S
C330 C327 1.363 . S
C330 N328 1.356 . S
C331 C325 1.363 . S
C331 C326 1.379 . S
C331 N329 1.356 . S
N332 C324 1.356 . S
N332 H338 0.984 . S
N332 H339 0.984 . S
N333 C326 1.356 . S
N333 H336 0.984 . S
N333 H337 0.985 . S
H334 N329 0.984 . S
H335 N329 0.985 . S
H336 N333 0.984 . S
H337 N333 0.985 . S
H338 N332 0.984 . S
H339 N332 0.984 . S
H340 N328 0.984 . S
H341 N328 0.985 . S
C342 C343 1.363 . S
C342 C348 1.379 . S
C342 N350 1.356 . S
C343 C342 1.363 . S
C343 C349 1.363 . S
C344 C345 1.363 . S
C344 C349 1.379 . S
C344 N351 1.356 . S
C345 C344 1.363 . S
C345 C348 1.363 . S
N346 C348 1.356 . S
N346 H358 0.984 . S
N346 H359 0.985 . S
N347 C349 1.356 . S
N347 H352 0.984 . S
N347 H353 0.985 . S
C348 C342 1.379 . S
C348 C345 1.363 . S
C348 N346 1.356 . S
C349 C343 1.363 . S
C349 C344 1.379 . S
C349 N347 1.356 . S
N350 C342 1.356 . S
N350 H356 0.984 . S
N350 H357 0.984 . S
N351 C344 1.356 . S
N351 H354 0.979 1_565 S
N351 H355 0.985 . S
H352 N347 0.984 . S
H353 N347 0.985 . S
H354 N351 0.979 1_545 S
H355 N351 0.985 . S
H356 N350 0.984 . S
H357 N350 0.984 . S
H358 N346 0.984 . S
H359 N346 0.985 . S
C360 C361 1.363 . S
C360 C366 1.379 . S
C360 N368 1.356 . S
C361 C360 1.363 . S
C361 C367 1.363 . S
C362 C363 1.363 . S
C362 C367 1.379 . S
C362 N369 1.356 . S
C363 C362 1.363 . S
C363 C366 1.363 . S
N364 C366 1.356 . S
N364 H376 0.984 . S
N364 H377 0.985 . S
N365 C367 1.356 . S
N365 H370 0.984 . S
N365 H371 0.985 . S
C366 C360 1.379 . S
C366 C363 1.363 . S
C366 N364 1.356 . S
C367 C361 1.363 . S
C367 C362 1.379 . S
C367 N365 1.356 . S
N368 C360 1.356 . S
N368 H374 0.984 . S
N368 H375 0.984 . S
N369 C362 1.356 . S
N369 H372 0.984 . S
N369 H373 0.985 . S
H370 N365 0.984 . S
H371 N365 0.985 . S
H372 N369 0.984 . S
H373 N369 0.985 . S
H374 N368 0.984 . S
H375 N368 0.984 . S
H376 N364 0.984 . S
H377 N364 0.985 . S
C378 C379 1.363 . S
C378 C384 1.379 . S
C378 N386 1.356 . S
C379 C378 1.363 . S
C379 C385 1.363 . S
C380 C381 1.363 . S
C380 C385 1.379 . S
C380 N387 1.356 . S
C381 C380 1.363 . S
C381 C384 1.363 . S
N382 C384 1.356 . S
N382 H394 0.984 . S
N382 H395 0.985 . S
N383 C385 1.356 . S
N383 H388 0.984 . S
N383 H389 0.985 . S
C384 C378 1.379 . S
C384 C381 1.363 . S
C384 N382 1.356 . S
C385 C379 1.363 . S
C385 C380 1.379 . S
C385 N383 1.356 . S
N386 C378 1.356 . S
N386 H392 0.984 . S
N386 H393 0.984 . S
N387 C380 1.356 . S
N387 H390 0.984 1_455 S
N387 H391 0.985 1_455 S
H388 N383 0.984 . S
H389 N383 0.985 . S
H390 N387 0.984 1_655 S
H391 N387 0.985 1_655 S
H392 N386 0.984 . S
H393 N386 0.984 . S
H394 N382 0.984 . S
H395 N382 0.985 . S
C396 C397 1.363 . S
C396 C402 1.379 . S
C396 N404 1.356 . S
C397 C396 1.363 . S
C397 C403 1.363 . S
C398 C399 1.363 . S
C398 C403 1.379 . S
C398 N405 1.356 . S
C399 C398 1.363 . S
C399 C402 1.363 . S
N400 C402 1.356 . S
N400 H412 0.984 1_545 S
N400 H413 0.985 . S
N401 C403 1.356 . S
N401 H406 0.984 . S
N401 H407 0.985 . S
C402 C396 1.379 . S
C402 C399 1.363 . S
C402 N400 1.356 . S
C403 C397 1.363 . S
C403 C398 1.379 . S
C403 N401 1.356 . S
N404 C396 1.356 . S
N404 H410 0.984 . S
N404 H411 0.984 . S
N405 C398 1.356 . S
N405 H408 0.984 . S
N405 H409 0.985 . S
H406 N401 0.984 . S
H407 N401 0.985 . S
H408 N405 0.984 . S
H409 N405 0.985 . S
H410 N404 0.984 . S
H411 N404 0.984 . S
H412 N400 0.984 1_565 S
H413 N400 0.985 . S
C414 C415 1.363 . S
C414 C420 1.379 1_554 S
C414 N422 1.356 . S
C415 C414 1.363 . S
C415 C421 1.363 1_455 S
C416 C417 1.363 1_655 S
C416 C421 1.379 1_556 S
C416 N423 1.356 . S
C417 C416 1.363 1_455 S
C417 C420 1.363 . S
N418 C420 1.356 . S
N418 H430 0.984 . S
N418 H431 0.985 . S
N419 C421 1.356 . S
N419 H424 0.984 . S
N419 H425 0.985 . S
C420 C414 1.379 1_556 S
C420 C417 1.363 . S
C420 N418 1.356 . S
C421 C415 1.363 1_655 S
C421 C416 1.379 1_554 S
C421 N419 1.356 . S
N422 C414 1.356 . S
N422 H428 0.984 . S
N422 H429 0.984 . S
N423 C416 1.356 . S
N423 H426 0.984 . S
N423 H427 0.985 . S
H424 N419 0.984 . S
H425 N419 0.985 . S
H426 N423 0.984 . S
H427 N423 0.985 . S
H428 N422 0.984 . S
H429 N422 0.984 . S
H430 N418 0.984 . S
H431 N418 0.985 . S
C432 C433 1.363 . S
C432 C438 1.379 . S
C432 N440 1.356 . S
C433 C432 1.363 . S
C433 C439 1.363 1_545 S
C434 C435 1.363 1_565 S
C434 C439 1.379 . S
C434 N441 1.356 . S
C435 C434 1.363 1_545 S
C435 C438 1.363 . S
N436 C438 1.356 . S
N436 H448 0.984 . S
N436 H449 0.985 . S
N437 C439 1.356 . S
N437 H442 0.984 . S
N437 H443 0.985 . S
C438 C432 1.379 . S
C438 C435 1.363 . S
C438 N436 1.356 . S
C439 C433 1.363 1_565 S
C439 C434 1.379 . S
C439 N437 1.356 . S
N440 C432 1.356 . S
N440 H446 0.984 . S
N440 H447 0.984 . S
N441 C434 1.356 . S
N441 H444 0.984 . S
N441 H445 0.985 . S
H442 N437 0.984 . S
H443 N437 0.985 . S
H444 N441 0.984 . S
H445 N441 0.985 . S
H446 N440 0.984 . S
H447 N440 0.984 . S
H448 N436 0.984 . S
H449 N436 0.985 . S
C450 C451 1.363 . S
C450 C456 1.379 . S
C450 N458 1.356 . S
C451 C450 1.363 . S
C451 C457 1.363 . S
C452 C453 1.363 . S
C452 C457 1.379 . S
C452 N459 1.356 . S
C453 C452 1.363 . S
C453 C456 1.363 . S
N454 C456 1.356 . S
N454 H466 0.984 . S
N454 H467 0.985 . S
N455 C457 1.356 . S
N455 H460 0.984 . S
N455 H461 0.985 . S
C456 C450 1.379 . S
C456 C453 1.363 . S
C456 N454 1.356 . S
C457 C451 1.363 . S
C457 C452 1.379 . S
C457 N455 1.356 . S
N458 C450 1.356 . S
N458 H464 0.984 . S
N458 H465 0.984 . S
N459 C452 1.356 . S
N459 H462 0.984 . S
N459 H463 0.985 . S
H460 N455 0.984 . S
H461 N455 0.985 . S
H462 N459 0.984 . S
H463 N459 0.985 . S
H464 N458 0.984 . S
H465 N458 0.984 . S
H466 N454 0.984 . S
H467 N454 0.985 . S
C468 C469 1.363 1_565 S
C468 C474 1.379 . S
C468 N476 1.356 . S
C469 C468 1.363 1_545 S
C469 C475 1.363 . S
C470 C471 1.363 . S
C470 C475 1.379 . S
C470 N477 1.356 . S
C471 C470 1.363 . S
C471 C474 1.363 1_545 S
N472 C474 1.356 . S
N472 H484 0.984 . S
N472 H485 0.985 . S
N473 C475 1.356 . S
N473 H478 0.984 . S
N473 H479 0.985 . S
C474 C468 1.379 . S
C474 C471 1.363 1_565 S
C474 N472 1.356 . S
C475 C469 1.363 . S
C475 C470 1.379 . S
C475 N473 1.356 . S
N476 C468 1.356 . S
N476 H482 0.984 . S
N476 H483 0.984 . S
N477 C470 1.356 . S
N477 H480 0.984 . S
N477 H481 0.985 . S
H478 N473 0.984 . S
H479 N473 0.985 . S
H480 N477 0.984 . S
H481 N477 0.985 . S
H482 N476 0.984 . S
H483 N476 0.984 . S
H484 N472 0.984 . S
H485 N472 0.985 . S
C486 C487 1.363 . S
C486 C492 1.379 1_556 S
C486 N494 1.356 . S
C487 C486 1.363 . S
C487 C493 1.363 . S
C488 C489 1.363 . S
C488 C493 1.379 1_554 S
C488 N495 1.356 . S
C489 C488 1.363 . S
C489 C492 1.363 . S
N490 C492 1.356 . S
N490 H502 0.984 . S
N490 H503 0.985 . S
N491 C493 1.356 . S
N491 H496 0.984 . S
N491 H497 0.985 . S
C492 C486 1.379 1_554 S
C492 C489 1.363 . S
C492 N490 1.356 . S
C493 C487 1.363 . S
C493 C488 1.379 1_556 S
C493 N491 1.356 . S
N494 C486 1.356 . S
N494 H500 0.984 . S
N494 H501 0.984 . S
N495 C488 1.356 . S
N495 H498 0.984 . S
N495 H499 0.985 . S
H496 N491 0.984 . S
H497 N491 0.985 . S
H498 N495 0.984 . S
H499 N495 0.985 . S
H500 N494 0.984 . S
H501 N494 0.984 . S
H502 N490 0.984 . S
H503 N490 0.985 . S
C504 C505 1.363 . S
C504 C510 1.379 . S
C504 N512 1.356 . S
C505 C504 1.363 . S
C505 C511 1.363 1_455 S
C506 C507 1.364 . S
C506 C511 1.378 1_455 S
C506 N513 1.356 1_455 S
C507 C506 1.364 . S
C507 C510 1.363 . S
N508 C510 1.356 . S
N508 H520 0.984 . S
N508 H521 0.985 . S
N509 C511 1.356 . S
N509 H514 0.984 . S
N509 H515 0.985 . S
C510 C504 1.379 . S
C510 C507 1.363 . S
C510 N508 1.356 . S
C511 C505 1.363 1_655 S
C511 C506 1.378 1_655 S
C511 N509 1.356 . S
N512 C504 1.356 . S
N512 H518 0.984 . S
N512 H519 0.984 . S
N513 C506 1.356 1_655 S
N513 H516 0.984 . S
N513 H517 0.985 . S
H514 N509 0.984 . S
H515 N509 0.985 . S
H516 N513 0.984 . S
H517 N513 0.985 . S
H518 N512 0.984 . S
H519 N512 0.984 . S
H520 N508 0.984 . S
H521 N508 0.985 . S
C199 C10 2.863 . S
C201 N187 2.818 . S
C217 C59 3.024 . S
C219 N160 3.030 1_655 S
C235 C90 2.973 . S
C237 N173 2.997 . S
C253 C19 3.308 . S
C255 N186 3.319 . S
C273 N161 3.082 . S
C271 C50 3.077 . S
C291 N174 3.123 . S
C289 C99 3.152 . S
C307 C46 0.618 . S
C309 N134 0.598 . S
C325 C95 0.707 . S
C327 N148 0.662 . S
C343 C6 0.901 . S
C345 N122 0.954 . S
C363 N135 0.922 . S
C361 C55 0.852 . S
C381 N147 0.984 . S
C379 C86 0.947 . S
C397 C15 0.720 . S
C399 N121 0.715 . S
C417 N151 1.065 . S
C415 C9 1.069 . S
C433 C49 1.194 . S
C435 N125 1.181 . S
C451 C89 1.032 . S
C453 N138 1.062 . S
C471 N177 1.853 . S
C469 C58 1.717 . S
C489 N190 1.766 . S
C487 C98 1.728 . S
C505 C18 1.731 . S
C507 N164 1.769 . S
