# Generated by pormake.
# Topology hwx, (6,3)-cn, num edge types: 1
# Building blocks:
#     Node 0, Type 0, BuildingBlock: IZENUY_clean_sbu_0, # of connection points: 6
#     Node 1, Type 0, BuildingBlock: IZENUY_clean_sbu_0, # of connection points: 6
#     Node 2, Type 0, BuildingBlock: IZENUY_clean_sbu_0, # of connection points: 6
#     Node 3, Type 0, BuildingBlock: IZENUY_clean_sbu_0, # of connection points: 6
#     Node 4, Type 1, BuildingBlock: BETDIP_clean_linker_0, # of connection points: 3
#     Node 5, Type 1, BuildingBlock: BETDIP_clean_linker_0, # of connection points: 3
#     Node 6, Type 1, BuildingBlock: BETDIP_clean_linker_0, # of connection points: 3
#     Node 7, Type 1, BuildingBlock: BETDIP_clean_linker_0, # of connection points: 3
#     Node 8, Type 1, BuildingBlock: BETDIP_clean_linker_0, # of connection points: 3
#     Node 9, Type 1, BuildingBlock: BETDIP_clean_linker_0, # of connection points: 3
#     Node 10, Type 1, BuildingBlock: BETDIP_clean_linker_0, # of connection points: 3
#     Node 11, Type 1, BuildingBlock: BETDIP_clean_linker_0, # of connection points: 3
#     Edge 12, Type (0, 1), BuildingBlock: UVAHIK_clean_linker_0, # of connection points: 2
#     Edge 13, Type (0, 1), BuildingBlock: UVAHIK_clean_linker_0, # of connection points: 2
#     Edge 14, Type (0, 1), BuildingBlock: UVAHIK_clean_linker_0, # of connection points: 2
#     Edge 15, Type (0, 1), BuildingBlock: UVAHIK_clean_linker_0, # of connection points: 2
#     Edge 16, Type (0, 1), BuildingBlock: UVAHIK_clean_linker_0, # of connection points: 2
#     Edge 17, Type (0, 1), BuildingBlock: UVAHIK_clean_linker_0, # of connection points: 2
#     Edge 18, Type (0, 1), BuildingBlock: UVAHIK_clean_linker_0, # of connection points: 2
#     Edge 19, Type (0, 1), BuildingBlock: UVAHIK_clean_linker_0, # of connection points: 2
#     Edge 20, Type (0, 1), BuildingBlock: UVAHIK_clean_linker_0, # of connection points: 2
#     Edge 21, Type (0, 1), BuildingBlock: UVAHIK_clean_linker_0, # of connection points: 2
#     Edge 22, Type (0, 1), BuildingBlock: UVAHIK_clean_linker_0, # of connection points: 2
#     Edge 23, Type (0, 1), BuildingBlock: UVAHIK_clean_linker_0, # of connection points: 2
#     Edge 24, Type (0, 1), BuildingBlock: UVAHIK_clean_linker_0, # of connection points: 2
#     Edge 25, Type (0, 1), BuildingBlock: UVAHIK_clean_linker_0, # of connection points: 2
#     Edge 26, Type (0, 1), BuildingBlock: UVAHIK_clean_linker_0, # of connection points: 2
#     Edge 27, Type (0, 1), BuildingBlock: UVAHIK_clean_linker_0, # of connection points: 2
#     Edge 28, Type (0, 1), BuildingBlock: UVAHIK_clean_linker_0, # of connection points: 2
#     Edge 29, Type (0, 1), BuildingBlock: UVAHIK_clean_linker_0, # of connection points: 2
#     Edge 30, Type (0, 1), BuildingBlock: UVAHIK_clean_linker_0, # of connection points: 2
#     Edge 31, Type (0, 1), BuildingBlock: UVAHIK_clean_linker_0, # of connection points: 2
#     Edge 32, Type (0, 1), BuildingBlock: UVAHIK_clean_linker_0, # of connection points: 2
#     Edge 33, Type (0, 1), BuildingBlock: UVAHIK_clean_linker_0, # of connection points: 2
#     Edge 34, Type (0, 1), BuildingBlock: UVAHIK_clean_linker_0, # of connection points: 2
#     Edge 35, Type (0, 1), BuildingBlock: UVAHIK_clean_linker_0, # of connection points: 2
# Relax obj value: 0.002
# Max RMSD: 0.065
# Mean RMSD: 0.050
data_MOF--net-hwx--node1-IZENUY_clean_sbu_0--node2-BETDIP_clean_linker_0--edge1-UVAHIK_clean_linker_0
_symmetry_space_group_name_H-M    P1
_symmetry_Int_Tables_number       1
_symmetry_cell_setting            triclinic
loop_
_symmetry_equiv_pos_as_xyz
'x, y, z'
_cell_length_a     66.705183
_cell_length_b     66.646979
_cell_length_c     26.84476
_cell_angle_alpha  91.304286
_cell_angle_beta   91.348102
_cell_angle_gamma 90.006808
loop_
_atom_site_label
_atom_site_type_symbol
_atom_site_fract_x
_atom_site_fract_y
_atom_site_fract_z
_atom_type_partial_charge
Fe0 Fe 0.2245 0.22144 0.05604 0.0
Fe1 Fe 0.22605 0.22189 0.94181 0.0
O2 O 0.21676 0.21146 0.99689 0.0
Fe3 Fe 0.19968 0.19107 0.99285 0.0
O4 O 0.1807 0.20541 0.02499 0.0
O5 O 0.20053 0.21654 0.086 0.0
O6 O 0.21468 0.24606 0.04148 0.0
C7 C 0.21957 0.25608 0.00435 0.0
C8 C 0.22514 0.18123 0.07457 0.0
O9 O 0.2279 0.24765 0.96748 0.0
C10 C 0.22577 0.18 0.92034 0.0
O11 O 0.24984 0.22824 0.03679 0.0
O12 O 0.25173 0.2163 0.96008 0.0
O13 O 0.20863 0.17949 0.0506 0.0
O14 O 0.23485 0.19748 0.07462 0.0
C15 C 0.18669 0.2159 0.91441 0.0
O16 O 0.22594 0.19801 0.90623 0.0
O17 O 0.21748 0.17536 0.96021 0.0
C18 C 0.26015 0.22229 0.00025 0.0
O19 O 0.20097 0.22822 0.91971 0.0
O20 O 0.18756 0.19891 0.93448 0.0
C21 C 0.1831 0.21367 0.06738 0.0
Fe22 Fe 0.27275 0.72231 0.56498 0.0
Fe23 Fe 0.29862 0.69167 0.50869 0.0
O24 O 0.28096 0.71153 0.50805 0.0
Fe25 Fe 0.27155 0.72059 0.45049 0.0
O26 O 0.26887 0.74674 0.47302 0.0
O27 O 0.28196 0.74684 0.54891 0.0
O28 O 0.29672 0.71866 0.5989 0.0
C29 C 0.3143 0.71579 0.58332 0.0
C30 C 0.23727 0.72092 0.50434 0.0
O31 O 0.31709 0.70705 0.54196 0.0
C32 C 0.27319 0.6784 0.43388 0.0
O33 O 0.26297 0.69846 0.58489 0.0
O34 O 0.28971 0.68082 0.56637 0.0
O35 O 0.24599 0.7145 0.46598 0.0
O36 O 0.24729 0.72797 0.54146 0.0
C37 C 0.31115 0.71545 0.42909 0.0
O38 O 0.28137 0.67494 0.47557 0.0
O39 O 0.27249 0.69609 0.4175 0.0
C40 C 0.27306 0.68251 0.58778 0.0
O41 O 0.31078 0.69885 0.45107 0.0
O42 O 0.29648 0.72734 0.43114 0.0
C43 C 0.2769 0.75604 0.51008 0.0
Fe44 Fe 0.77403 0.79069 0.95746 0.0
Fe45 Fe 0.77282 0.79063 0.07166 0.0
O46 O 0.78156 0.80115 0.0162 0.0
Fe47 Fe 0.79791 0.82217 0.01953 0.0
O48 O 0.78853 0.83315 0.96134 0.0
O49 O 0.76285 0.81421 0.93845 0.0
O50 O 0.74896 0.78315 0.9772 0.0
C51 C 0.73856 0.78887 0.0138 0.0
C52 C 0.81515 0.79989 0.94537 0.0
O53 O 0.74689 0.79524 0.05375 0.0
C54 C 0.81183 0.7983 0.0991 0.0
O55 O 0.78465 0.76642 0.97239 0.0
O56 O 0.77177 0.76473 0.04672 0.0
O57 O 0.81738 0.80837 0.98762 0.0
O58 O 0.79778 0.79627 0.92717 0.0
C59 C 0.77158 0.83261 0.09193 0.0
O60 O 0.79822 0.78526 0.0933 0.0
O61 O 0.81029 0.81513 0.0784 0.0
C62 C 0.78013 0.75638 0.00979 0.0
O63 O 0.77216 0.81466 0.10663 0.0
O64 O 0.77955 0.83735 0.05172 0.0
C65 C 0.77204 0.83074 0.93761 0.0
Fe66 Fe 0.69923 0.32129 0.50676 0.0
Fe67 Fe 0.72591 0.2912 0.56232 0.0
O68 O 0.71704 0.30151 0.50568 0.0
Fe69 Fe 0.72596 0.29206 0.44804 0.0
O70 O 0.72462 0.31629 0.41665 0.0
O71 O 0.71599 0.33792 0.47535 0.0
O72 O 0.70875 0.33265 0.56561 0.0
C73 C 0.72566 0.33119 0.58771 0.0
C74 C 0.68608 0.29686 0.42469 0.0
O75 O 0.7358 0.31527 0.58418 0.0
C76 C 0.72147 0.25697 0.5051 0.0
O77 O 0.68116 0.30606 0.53832 0.0
O78 O 0.70237 0.29501 0.59521 0.0
O79 O 0.70086 0.28508 0.42679 0.0
O80 O 0.6865 0.31357 0.44807 0.0
C81 C 0.76077 0.29215 0.50379 0.0
O82 O 0.71666 0.26643 0.54426 0.0
O83 O 0.72894 0.2661 0.46899 0.0
C84 C 0.68458 0.29748 0.57901 0.0
O85 O 0.75107 0.28544 0.53982 0.0
O86 O 0.75172 0.29832 0.4653 0.0
C87 C 0.72388 0.33412 0.43399 0.0
H88 H 0.22802 0.50847 0.91577 0.0
H89 H 0.22648 0.50562 0.07595 0.0
H90 H 0.24234 0.56059 0.00753 0.0
H91 H 0.2057 0.47959 0.05915 0.0
C92 C 0.2121 0.47232 0.0266 0.0
C93 C 0.22966 0.51575 0.95216 0.0
C94 C 0.23576 0.53593 0.95622 0.0
C95 C 0.22592 0.5047 0.99493 0.0
C96 C 0.22853 0.51399 0.0424 0.0
C97 C 0.23475 0.53406 0.04684 0.0
C98 C 0.23813 0.5449 0.00379 0.0
N99 N 0.22069 0.48407 0.989 0.0
H100 H 0.99051 0.76153 0.60907 0.0
H101 H 0.98757 0.7598 0.44833 0.0
H102 H 0.93694 0.7802 0.53058 0.0
H103 H 0.0142 0.73995 0.45531 0.0
C104 C 0.02225 0.74453 0.48929 0.0
C105 C 0.98225 0.7639 0.57445 0.0
C106 C 0.9626 0.77145 0.57546 0.0
C107 C 0.99148 0.75955 0.52901 0.0
C108 C 0.98076 0.76268 0.48394 0.0
C109 C 0.96116 0.7703 0.48463 0.0
C110 C 0.95226 0.77474 0.5303 0.0
N111 N 0.01176 0.75288 0.53035 0.0
H112 H 0.77448 0.50536 0.10063 0.0
H113 H 0.7789 0.50373 0.94056 0.0
H114 H 0.76597 0.44986 0.0182 0.0
H115 H 0.79451 0.53292 0.95189 0.0
C116 C 0.78843 0.54003 0.98501 0.0
C117 C 0.77421 0.497 0.0655 0.0
C118 C 0.76982 0.4764 0.06457 0.0
C119 C 0.7777 0.50708 0.02116 0.0
C120 C 0.77678 0.49625 0.97535 0.0
C121 C 0.77289 0.47551 0.9742 0.0
C122 C 0.76938 0.46578 0.01893 0.0
N123 N 0.78111 0.52817 0.02407 0.0
H124 H 0.00782 0.25257 0.40392 0.0
H125 H 0.01184 0.25276 0.56443 0.0
H126 H 0.06319 0.23715 0.47853 0.0
H127 H 0.97915 0.24971 0.55951 0.0
C128 C 0.97368 0.25642 0.52537 0.0
C129 C 0.01646 0.25039 0.43808 0.0
C130 C 0.03655 0.24429 0.43589 0.0
C131 C 0.00718 0.25303 0.48411 0.0
C132 C 0.01851 0.25032 0.52852 0.0
C133 C 0.03869 0.24432 0.52679 0.0
C134 C 0.04751 0.24133 0.48029 0.0
N135 N 0.9865 0.25828 0.48412 0.0
H136 H 0.72431 0.0046 0.60374 0.0
H137 H 0.72258 0.00355 0.44303 0.0
H138 H 0.72379 0.94838 0.52219 0.0
H139 H 0.73564 0.03401 0.45243 0.0
C140 C 0.72934 0.04057 0.48596 0.0
C141 C 0.72395 0.99627 0.56858 0.0
C142 C 0.72355 0.9752 0.5682 0.0
C143 C 0.72393 0.00673 0.52374 0.0
C144 C 0.72329 0.99583 0.478 0.0
C145 C 0.72308 0.97474 0.47714 0.0
C146 C 0.72322 0.96464 0.52243 0.0
N147 N 0.72417 0.02811 0.52606 0.0
H148 H 0.50939 0.2606 0.91187 0.0
H149 H 0.50907 0.26098 0.07248 0.0
H150 H 0.56482 0.26369 0.99692 0.0
H151 H 0.47756 0.27138 0.06167 0.0
C152 C 0.47207 0.2639 0.02767 0.0
C153 C 0.51742 0.26125 0.94744 0.0
C154 C 0.53847 0.26191 0.94897 0.0
C155 C 0.50659 0.2612 0.99163 0.0
C156 C 0.51704 0.26169 0.03795 0.0
C157 C 0.53808 0.26234 0.03992 0.0
C158 C 0.5486 0.26254 0.99537 0.0
N159 N 0.48531 0.25979 0.98797 0.0
H160 H 0.27551 0.00764 0.40903 0.0
H161 H 0.27654 0.00917 0.56965 0.0
H162 H 0.27243 0.064 0.48948 0.0
H163 H 0.29111 0.9793 0.56083 0.0
C164 C 0.28462 0.97239 0.52718 0.0
C165 C 0.27536 0.01609 0.44399 0.0
C166 C 0.27424 0.03714 0.44387 0.0
C167 C 0.2767 0.00583 0.48902 0.0
C168 C 0.27619 0.01681 0.53455 0.0
C169 C 0.27498 0.03786 0.53495 0.0
C170 C 0.27408 0.04782 0.48946 0.0
N171 N 0.27803 0.9845 0.48702 0.0
H172 H 0.48876 0.75186 0.10163 0.0
H173 H 0.48894 0.7484 0.94099 0.0
H174 H 0.43377 0.74205 0.01768 0.0
H175 H 0.52085 0.74022 0.95261 0.0
C176 C 0.52615 0.74828 0.98595 0.0
C177 C 0.48082 0.74982 0.06619 0.0
C178 C 0.45992 0.74718 0.06493 0.0
C179 C 0.49157 0.75001 0.02186 0.0
C180 C 0.48112 0.74778 0.97574 0.0
C181 C 0.46032 0.74461 0.97421 0.0
C182 C 0.44987 0.74439 0.01884 0.0
N183 N 0.51273 0.75283 0.02505 0.0
C184 C 0.14605 0.21225 0.0815 0.0
C185 C 0.16534 0.21847 0.09756 0.0
C186 C 0.12943 0.21619 0.11096 0.0
C187 C 0.11171 0.24827 0.21499 0.0
H188 H 0.07623 0.2037 0.2401 0.0
C189 C 0.05749 0.22326 0.37931 0.0
C190 C 0.04645 0.24091 0.38764 0.0
C191 C 0.06889 0.22089 0.3367 0.0
C192 C 0.08593 0.21632 0.23318 0.0
H193 H 0.18217 0.23424 0.15651 0.0
H194 H 0.15321 0.24105 0.20781 0.0
H195 H 0.10277 0.19955 0.17958 0.0
H196 H 0.038 0.26959 0.35725 0.0
H197 H 0.05814 0.26551 0.28238 0.0
H198 H 0.09534 0.2648 0.26995 0.0
C199 C 0.15093 0.2332 0.17236 0.0
C200 C 0.10103 0.214 0.19829 0.0
C201 C 0.16756 0.22914 0.14313 0.0
C202 C 0.04635 0.25582 0.35153 0.0
C203 C 0.05796 0.25354 0.309 0.0
C204 C 0.09652 0.25064 0.24963 0.0
C205 C 0.13172 0.2266 0.15684 0.0
C206 C 0.11437 0.2298 0.18969 0.0
C207 C 0.06962 0.23619 0.30163 0.0
C208 C 0.08378 0.23454 0.25993 0.0
H209 H 0.14379 0.20408 0.04647 0.0
H210 H 0.11478 0.21107 0.09787 0.0
H211 H 0.12163 0.26079 0.20871 0.0
H212 H 0.05771 0.21149 0.4065 0.0
H213 H 0.07785 0.20743 0.33236 0.0
C214 C 0.27544 0.64718 0.61702 0.0
C215 C 0.26643 0.66623 0.62024 0.0
C216 C 0.26997 0.63201 0.64911 0.0
C217 C 0.25103 0.62536 0.7735 0.0
H218 H 0.24363 0.5697 0.73133 0.0
C219 C 0.25574 0.56161 0.91214 0.0
C220 C 0.2396 0.54803 0.91154 0.0
C221 C 0.25803 0.57497 0.87349 0.0
C222 C 0.24555 0.58521 0.7435 0.0
H223 H 0.24419 0.6841 0.6588 0.0
H224 H 0.23488 0.65762 0.71544 0.0
H225 H 0.24829 0.59547 0.66876 0.0
H226 H 0.21384 0.53708 0.86824 0.0
H227 H 0.21817 0.56029 0.79968 0.0
H228 H 0.24872 0.61514 0.84813 0.0
C229 C 0.24618 0.65449 0.68799 0.0
C230 C 0.24831 0.59991 0.70783 0.0
C231 C 0.25147 0.66962 0.65548 0.0
C232 C 0.22646 0.54731 0.86974 0.0
C233 C 0.22888 0.56062 0.83064 0.0
C234 C 0.24854 0.61068 0.80906 0.0
C235 C 0.25553 0.63561 0.68546 0.0
C236 C 0.25122 0.62011 0.72256 0.0
C237 C 0.24438 0.57493 0.83291 0.0
C238 C 0.24599 0.59044 0.79449 0.0
H239 H 0.28689 0.64402 0.59001 0.0
H240 H 0.27755 0.61766 0.64657 0.0
H241 H 0.25341 0.64077 0.78599 0.0
H242 H 0.26644 0.56222 0.94314 0.0
H243 H 0.27036 0.58556 0.87563 0.0
C244 C 0.83363 0.77541 0.15008 0.0
C245 C 0.8287 0.79487 0.13469 0.0
C246 C 0.84941 0.77242 0.18445 0.0
C247 C 0.87604 0.79751 0.28761 0.0
H248 H 0.91873 0.75911 0.26524 0.0
C249 C 0.94194 0.79253 0.42742 0.0
C250 C 0.94949 0.77343 0.43801 0.0
C251 C 0.92879 0.79518 0.3869 0.0
C252 C 0.9068 0.76971 0.27244 0.0
H253 H 0.83655 0.8264 0.14309 0.0
H254 H 0.86371 0.82116 0.20376 0.0
H255 H 0.89213 0.76301 0.20193 0.0
H256 H 0.94972 0.74219 0.4145 0.0
H257 H 0.92609 0.74655 0.34459 0.0
H258 H 0.88995 0.8038 0.35855 0.0
C259 C 0.85545 0.80825 0.18899 0.0
C260 C 0.89162 0.77197 0.23606 0.0
C261 C 0.83995 0.81122 0.15412 0.0
C262 C 0.94419 0.75709 0.4066 0.0
C263 C 0.93069 0.75965 0.36651 0.0
C264 C 0.89097 0.79505 0.32424 0.0
C265 C 0.86028 0.78886 0.20465 0.0
C266 C 0.8762 0.786 0.24323 0.0
C267 C 0.92248 0.77869 0.35674 0.0
C268 C 0.90668 0.78124 0.3171 0.0
H269 H 0.82531 0.76251 0.13556 0.0
H270 H 0.85281 0.75732 0.19615 0.0
H271 H 0.86414 0.80823 0.29435 0.0
H272 H 0.94595 0.80535 0.45114 0.0
H273 H 0.9233 0.81016 0.37983 0.0
C274 C 0.74875 0.34508 0.65535 0.0
C275 C 0.73269 0.34781 0.62134 0.0
C276 C 0.75473 0.36063 0.68832 0.0
C277 C 0.73559 0.40756 0.74639 0.0
H278 H 0.79124 0.41511 0.78759 0.0
C279 C 0.7596 0.47035 0.88659 0.0
C280 C 0.77171 0.46382 0.92654 0.0
C281 C 0.7565 0.458 0.84424 0.0
C282 C 0.77563 0.41316 0.77643 0.0
H283 H 0.71088 0.36931 0.59392 0.0
H284 H 0.72157 0.39647 0.6505 0.0
H285 H 0.78254 0.38995 0.72312 0.0
H286 H 0.79097 0.43986 0.95246 0.0
H287 H 0.78561 0.41833 0.87862 0.0
H288 H 0.72869 0.43066 0.79995 0.0
C289 C 0.72921 0.38217 0.65274 0.0
C290 C 0.77063 0.39869 0.73966 0.0
C291 C 0.72313 0.3666 0.62011 0.0
C292 C 0.78144 0.44518 0.92232 0.0
C293 C 0.77849 0.43294 0.87989 0.0
C294 C 0.74062 0.42211 0.78286 0.0
C295 C 0.74491 0.37932 0.68774 0.0
C296 C 0.7505 0.39552 0.72464 0.0
C297 C 0.76562 0.439 0.84088 0.0
C298 C 0.76065 0.42489 0.79877 0.0
H299 H 0.75643 0.3308 0.65728 0.0
H300 H 0.76671 0.35779 0.71515 0.0
H301 H 0.71991 0.40534 0.73648 0.0
H302 H 0.75185 0.48461 0.889 0.0
H303 H 0.74665 0.46315 0.81453 0.0
C304 C 0.669 0.27505 0.35899 0.0
C305 C 0.66864 0.29188 0.39147 0.0
C306 C 0.65273 0.2708 0.32669 0.0
C307 C 0.60914 0.29522 0.266 0.0
H308 H 0.59343 0.24042 0.23289 0.0
C309 C 0.54447 0.27725 0.12553 0.0
C310 C 0.54939 0.26314 0.08814 0.0
C311 C 0.55678 0.27966 0.1682 0.0
C312 C 0.59766 0.2558 0.24177 0.0
H313 H 0.65056 0.31707 0.41656 0.0
H314 H 0.62213 0.30947 0.36086 0.0
H315 H 0.61944 0.24687 0.29674 0.0
H316 H 0.57029 0.2397 0.06724 0.0
H317 H 0.59174 0.24388 0.1415 0.0
H318 H 0.58755 0.30413 0.21059 0.0
C319 C 0.63515 0.29979 0.35955 0.0
C320 C 0.61261 0.2595 0.27819 0.0
C321 C 0.65145 0.3041 0.39165 0.0
C322 C 0.56625 0.25081 0.09533 0.0
C323 C 0.57843 0.2531 0.13805 0.0
C324 C 0.59413 0.29152 0.22978 0.0
C325 C 0.63565 0.2832 0.32631 0.0
C326 C 0.61877 0.27925 0.29019 0.0
C327 C 0.5741 0.26785 0.17444 0.0
C328 C 0.58845 0.27176 0.21668 0.0
H329 H 0.68199 0.26532 0.35787 0.0
H330 H 0.65375 0.25805 0.30114 0.0
H331 H 0.61368 0.3106 0.27373 0.0
H332 H 0.53159 0.28699 0.12081 0.0
H333 H 0.55296 0.29102 0.19588 0.0
C334 C 0.22762 0.14392 0.8916 0.0
C335 C 0.23354 0.16402 0.88684 0.0
C336 C 0.23395 0.12918 0.85749 0.0
C337 C 0.25328 0.12436 0.72946 0.0
H338 H 0.26423 0.06937 0.76579 0.0
C339 C 0.28447 0.06791 0.58799 0.0
C340 C 0.27386 0.04975 0.58231 0.0
C341 C 0.28136 0.08065 0.62901 0.0
C342 C 0.26114 0.08467 0.7552 0.0
H343 H 0.25161 0.18422 0.84434 0.0
H344 H 0.26312 0.15852 0.78601 0.0
H345 H 0.25557 0.09419 0.8304 0.0
H346 H 0.2525 0.03018 0.61676 0.0
H347 H 0.24723 0.05245 0.68908 0.0
H348 H 0.25897 0.11493 0.65451 0.0
C349 C 0.25304 0.15418 0.8149 0.0
C350 C 0.25611 0.09888 0.7921 0.0
C351 C 0.24652 0.16892 0.84853 0.0
C352 C 0.26098 0.04403 0.62022 0.0
C353 C 0.25793 0.05678 0.66155 0.0
C354 C 0.25847 0.11026 0.69286 0.0
C355 C 0.24651 0.13419 0.81824 0.0
C356 C 0.25214 0.11893 0.77964 0.0
C357 C 0.26766 0.07548 0.66552 0.0
C358 C 0.26249 0.09028 0.70527 0.0
H359 H 0.2176 0.13967 0.92074 0.0
H360 H 0.22846 0.114 0.86101 0.0
H361 H 0.2498 0.13948 0.71813 0.0
H362 H 0.29482 0.07255 0.55995 0.0
H363 H 0.28935 0.0948 0.63162 0.0
C364 C 0.32767 0.73639 0.3651 0.0
C365 C 0.32843 0.72018 0.39766 0.0
C366 C 0.34385 0.74048 0.33471 0.0
C367 C 0.38857 0.7163 0.28031 0.0
H368 H 0.40225 0.77095 0.24797 0.0
C369 C 0.45365 0.73418 0.15019 0.0
C370 C 0.44827 0.74697 0.11124 0.0
C371 C 0.44108 0.73214 0.19083 0.0
C372 C 0.39859 0.75561 0.25669 0.0
H373 H 0.3471 0.69594 0.42495 0.0
H374 H 0.3754 0.70329 0.37278 0.0
H375 H 0.37619 0.76486 0.30813 0.0
H376 H 0.42625 0.76849 0.08539 0.0
H377 H 0.40441 0.76506 0.15631 0.0
H378 H 0.41089 0.70708 0.22855 0.0
C379 C 0.36213 0.71257 0.36976 0.0
C380 C 0.38359 0.7521 0.29096 0.0
C381 C 0.34591 0.7084 0.39985 0.0
C382 C 0.43066 0.75842 0.11482 0.0
C383 C 0.41825 0.75656 0.15558 0.0
C384 C 0.40366 0.71982 0.24633 0.0
C385 C 0.36126 0.72855 0.33646 0.0
C386 C 0.37815 0.73238 0.3026 0.0
C387 C 0.42308 0.74308 0.19349 0.0
C388 C 0.40861 0.7395 0.23355 0.0
H389 H 0.31444 0.74576 0.36243 0.0
H390 H 0.3425 0.75272 0.30902 0.0
H391 H 0.38461 0.70091 0.28774 0.0
H392 H 0.4671 0.72513 0.14817 0.0
H393 H 0.44526 0.72176 0.21974 0.0
C394 C 0.77498 0.86517 0.90262 0.0
C395 C 0.7645 0.84691 0.90502 0.0
C396 C 0.76832 0.88022 0.87081 0.0
C397 C 0.73818 0.88727 0.75606 0.0
H398 H 0.74154 0.94373 0.79373 0.0
C399 C 0.71144 0.94737 0.62066 0.0
C400 C 0.72436 0.96376 0.61497 0.0
C401 C 0.71411 0.93449 0.66055 0.0
C402 C 0.74062 0.92803 0.78257 0.0
H403 H 0.73842 0.83043 0.87671 0.0
H404 H 0.72677 0.85674 0.82135 0.0
H405 H 0.75044 0.91835 0.85471 0.0
H406 H 0.74958 0.98014 0.64785 0.0
H407 H 0.75445 0.9575 0.71758 0.0
H408 H 0.72877 0.89682 0.6838 0.0
C409 C 0.74032 0.85929 0.84365 0.0
C410 C 0.74572 0.91349 0.81749 0.0
C411 C 0.74696 0.84423 0.87554 0.0
C412 C 0.73933 0.96769 0.65156 0.0
C413 C 0.7421 0.9547 0.69145 0.0
C414 C 0.73311 0.90177 0.72122 0.0
C415 C 0.75102 0.87739 0.84057 0.0
C416 C 0.74468 0.89293 0.80452 0.0
C417 C 0.72987 0.93762 0.69558 0.0
C418 C 0.73436 0.92234 0.73389 0.0
H419 H 0.78852 0.8678 0.92489 0.0
H420 H 0.77706 0.89387 0.86896 0.0
H421 H 0.73755 0.8716 0.7445 0.0
H422 H 0.6996 0.94416 0.5933 0.0
H423 H 0.70412 0.92178 0.66325 0.0
C424 C 0.83091 0.78473 0.86959 0.0
C425 C 0.83292 0.79582 0.9146 0.0
C426 C 0.84746 0.78135 0.83961 0.0
C427 C 0.89629 0.80256 0.81021 0.0
H428 H 0.90377 0.75131 0.74183 0.0
C429 C 0.94103 0.79282 0.63033 0.0
C430 C 0.95236 0.77526 0.62323 0.0
C431 C 0.92932 0.79538 0.67244 0.0
C432 C 0.90209 0.76564 0.76115 0.0
H433 H 0.85407 0.81178 0.96379 0.0
H434 H 0.88297 0.80596 0.9111 0.0
H435 H 0.87761 0.75492 0.8034 0.0
H436 H 0.96094 0.74695 0.65559 0.0
H437 H 0.94047 0.75144 0.72951 0.0
H438 H 0.92054 0.81337 0.76725 0.0
C439 C 0.86851 0.79997 0.89903 0.0
C440 C 0.88696 0.76776 0.79601 0.0
C441 C 0.85197 0.80322 0.92927 0.0
C442 C 0.95243 0.76068 0.66021 0.0
C443 C 0.94058 0.76317 0.70225 0.0
C444 C 0.91134 0.80048 0.77509 0.0
C445 C 0.86641 0.78907 0.85376 0.0
C446 C 0.88366 0.78633 0.82028 0.0
C447 C 0.92859 0.78037 0.7083 0.0
C448 C 0.91419 0.78208 0.74957 0.0
H449 H 0.81649 0.77874 0.85722 0.0
H450 H 0.84529 0.7731 0.80467 0.0
H451 H 0.89405 0.8171 0.82809 0.0
H452 H 0.94083 0.80439 0.60261 0.0
H453 H 0.92015 0.80873 0.67575 0.0
C454 C 0.72539 0.37085 0.41551 0.0
C455 C 0.73054 0.35092 0.4031 0.0
C456 C 0.7308 0.38656 0.38489 0.0
C457 C 0.76551 0.40071 0.28675 0.0
H458 H 0.72325 0.43723 0.24601 0.0
C459 C 0.74749 0.45435 0.11263 0.0
C460 C 0.76513 0.46577 0.11069 0.0
C461 C 0.74368 0.44279 0.15405 0.0
C462 C 0.73522 0.42723 0.25733 0.0
H463 H 0.74607 0.33199 0.3497 0.0
H464 H 0.75562 0.35944 0.29651 0.0
H465 H 0.71651 0.41191 0.30789 0.0
H466 H 0.79243 0.47448 0.15068 0.0
H467 H 0.78591 0.45388 0.22334 0.0
H468 H 0.78408 0.41576 0.23524 0.0
C469 C 0.74736 0.36288 0.3299 0.0
C470 C 0.73141 0.41283 0.29295 0.0
C471 C 0.74175 0.34714 0.36019 0.0
C472 C 0.77869 0.46584 0.1515 0.0
C473 C 0.77502 0.454 0.19277 0.0
C474 C 0.76939 0.41528 0.25154 0.0
C475 C 0.74172 0.38272 0.34158 0.0
C476 C 0.7464 0.39916 0.30732 0.0
C477 C 0.75756 0.44221 0.19417 0.0
C478 C 0.75416 0.42842 0.23576 0.0
H479 H 0.71681 0.37431 0.44837 0.0
H480 H 0.72639 0.40173 0.395 0.0
H481 H 0.77738 0.39047 0.29745 0.0
H482 H 0.73678 0.45411 0.08164 0.0
H483 H 0.7302 0.43372 0.15387 0.0
C484 C 0.17043 0.23587 0.84627 0.0
C485 C 0.16942 0.22046 0.88098 0.0
C486 C 0.15439 0.23925 0.81299 0.0
C487 C 0.11027 0.21314 0.75592 0.0
H488 H 0.09711 0.26617 0.70863 0.0
C489 C 0.06395 0.22472 0.57607 0.0
C490 C 0.0508 0.24114 0.57311 0.0
C491 C 0.07656 0.22241 0.61771 0.0
C492 C 0.10037 0.25128 0.72194 0.0
H493 H 0.15038 0.19723 0.9098 0.0
H494 H 0.12231 0.20345 0.85287 0.0
H495 H 0.12235 0.26249 0.77495 0.0
H496 H 0.04018 0.26773 0.61232 0.0
H497 H 0.06191 0.2634 0.68591 0.0
H498 H 0.08811 0.20194 0.70365 0.0
C499 C 0.13569 0.21253 0.85011 0.0
C500 C 0.11507 0.24914 0.7595 0.0
C501 C 0.15177 0.20901 0.88293 0.0
C502 C 0.05008 0.25486 0.61359 0.0
C503 C 0.0627 0.25251 0.65547 0.0
C504 C 0.09552 0.21529 0.71869 0.0
C505 C 0.1369 0.22745 0.8141 0.0
C506 C 0.1204 0.23001 0.77647 0.0
C507 C 0.07626 0.23637 0.65774 0.0
C508 C 0.09062 0.23434 0.70059 0.0
H509 H 0.18382 0.24495 0.84385 0.0
H510 H 0.15597 0.25072 0.78542 0.0
H511 H 0.11409 0.19814 0.76755 0.0
H512 H 0.06468 0.21373 0.54582 0.0
H513 H 0.08696 0.20993 0.6178 0.0
C514 C 0.27015 0.64142 0.41579 0.0
C515 C 0.26638 0.66128 0.40157 0.0
C516 C 0.26485 0.62529 0.38402 0.0
C517 C 0.2332 0.61063 0.2744 0.0
H518 H 0.27492 0.57133 0.24979 0.0
C519 C 0.25623 0.55406 0.10673 0.0
C520 C 0.23808 0.54402 0.09614 0.0
C521 C 0.25876 0.56553 0.15051 0.0
C522 C 0.26308 0.5821 0.25656 0.0
H523 H 0.25335 0.67969 0.34357 0.0
H524 H 0.24412 0.65151 0.28814 0.0
H525 H 0.28028 0.59748 0.31385 0.0
H526 H 0.20855 0.5375 0.12338 0.0
H527 H 0.21288 0.55789 0.20028 0.0
H528 H 0.21628 0.5956 0.21587 0.0
C529 C 0.25114 0.64844 0.32396 0.0
C530 C 0.26608 0.59699 0.29343 0.0
C531 C 0.25657 0.6646 0.35557 0.0
C532 C 0.22271 0.54506 0.13095 0.0
C533 C 0.22514 0.5568 0.17461 0.0
C534 C 0.23013 0.59561 0.23778 0.0
C535 C 0.2555 0.62864 0.33753 0.0
C536 C 0.25136 0.61167 0.30201 0.0
C537 C 0.24311 0.56738 0.1844 0.0
C538 C 0.24522 0.58148 0.22774 0.0
H539 H 0.27757 0.63829 0.45109 0.0
H540 H 0.2682 0.61018 0.39568 0.0
H541 H 0.22152 0.62163 0.28055 0.0
H542 H 0.26831 0.55342 0.08044 0.0
H543 H 0.27269 0.57366 0.15677 0.0
C544 C 0.35098 0.71338 0.60536 0.0
C545 C 0.33178 0.72073 0.61641 0.0
C546 C 0.36722 0.71701 0.63821 0.0
C547 C 0.38512 0.74971 0.74264 0.0
H548 H 0.41659 0.70342 0.78137 0.0
C549 C 0.45069 0.75516 0.88773 0.0
C550 C 0.44922 0.74138 0.92628 0.0
C551 C 0.43865 0.75297 0.84452 0.0
C552 C 0.408 0.7165 0.77068 0.0
H553 H 0.31478 0.73831 0.66972 0.0
H554 H 0.34315 0.74471 0.72685 0.0
H555 H 0.3908 0.6998 0.71565 0.0
H556 H 0.43481 0.71408 0.94924 0.0
H557 H 0.41397 0.71011 0.8737 0.0
H558 H 0.402 0.76627 0.79866 0.0
C559 C 0.34562 0.73614 0.69278 0.0
C560 C 0.39335 0.71447 0.73286 0.0
C561 C 0.32934 0.73234 0.66022 0.0
C562 C 0.43613 0.72497 0.92011 0.0
C563 C 0.42433 0.72263 0.87678 0.0
C564 C 0.39993 0.75179 0.78013 0.0
C565 C 0.36466 0.72827 0.68247 0.0
C566 C 0.38149 0.73096 0.71913 0.0
C567 C 0.42521 0.73677 0.83889 0.0
C568 C 0.41124 0.73511 0.79521 0.0
H569 H 0.35342 0.70443 0.57186 0.0
H570 H 0.38177 0.71091 0.62912 0.0
H571 H 0.37631 0.76271 0.7325 0.0
H572 H 0.46063 0.76798 0.89177 0.0
H573 H 0.43969 0.76402 0.81574 0.0
C574 C 0.75044 0.84342 0.16332 0.0
C575 C 0.76347 0.84847 0.12522 0.0
C576 C 0.74364 0.8581 0.19677 0.0
C577 C 0.74029 0.91352 0.21949 0.0
H578 H 0.73676 0.89749 0.35694 0.0
C579 C 0.7367 0.96827 0.39159 0.0
C580 C 0.72363 0.96294 0.42949 0.0
C581 C 0.73931 0.95549 0.35012 0.0
C582 C 0.73743 0.90215 0.31862 0.0
H583 H 0.77921 0.873 0.09157 0.0
H584 H 0.76792 0.89854 0.15101 0.0
H585 H 0.74589 0.87284 0.29352 0.0
H586 H 0.70185 0.94084 0.45148 0.0
H587 H 0.70665 0.91849 0.37962 0.0
H588 H 0.73251 0.94313 0.24571 0.0
C589 C 0.76257 0.88331 0.15447 0.0
C590 C 0.74261 0.88799 0.2821 0.0
C591 C 0.76915 0.86864 0.12051 0.0
C592 C 0.71238 0.94517 0.42352 0.0
C593 C 0.71509 0.93237 0.38238 0.0
C594 C 0.73533 0.92778 0.2563 0.0
C595 C 0.74994 0.87818 0.1935 0.0
C596 C 0.74405 0.89342 0.23197 0.0
C597 C 0.72898 0.93712 0.34596 0.0
C598 C 0.73379 0.92219 0.3062 0.0
H599 H 0.74555 0.82806 0.16745 0.0
H600 H 0.73351 0.85364 0.22545 0.0
H601 H 0.74103 0.91822 0.18124 0.0
H602 H 0.74568 0.98179 0.3952 0.0
H603 H 0.75018 0.95948 0.32266 0.0
C604 C 0.67105 0.27897 0.65067 0.0
C605 C 0.66773 0.29196 0.61086 0.0
C606 C 0.65562 0.27449 0.68276 0.0
C607 C 0.60044 0.27681 0.69831 0.0
H608 H 0.61587 0.27411 0.83817 0.0
C609 C 0.5451 0.27546 0.86414 0.0
C610 C 0.55024 0.26236 0.90274 0.0
C611 C 0.55796 0.27787 0.82416 0.0
C612 C 0.61134 0.27461 0.79919 0.0
H613 H 0.64538 0.30999 0.5726 0.0
H614 H 0.61848 0.30256 0.62963 0.0
H615 H 0.64114 0.28102 0.77728 0.0
H616 H 0.57195 0.24032 0.92765 0.0
H617 H 0.59434 0.24462 0.85832 0.0
H618 H 0.5704 0.27082 0.72117 0.0
C619 C 0.63298 0.2956 0.63555 0.0
C620 C 0.62585 0.27852 0.76419 0.0
C621 C 0.64842 0.29994 0.60301 0.0
C622 C 0.56781 0.25086 0.89903 0.0
C623 C 0.58063 0.25331 0.85937 0.0
C624 C 0.58582 0.27305 0.7336 0.0
C625 C 0.6365 0.28306 0.67631 0.0
C626 C 0.62067 0.27942 0.71322 0.0
C627 C 0.57615 0.26726 0.82232 0.0
C628 C 0.59122 0.27166 0.78432 0.0
H629 H 0.68566 0.27231 0.65727 0.0
H630 H 0.65876 0.26434 0.71291 0.0
H631 H 0.59594 0.2773 0.65933 0.0
H632 H 0.53168 0.28457 0.86612 0.0
H633 H 0.55416 0.28876 0.7961 0.0
C634 C 0.22184 0.14607 0.10438 0.0
C635 C 0.23208 0.16453 0.10622 0.0
C636 C 0.22784 0.13044 0.13514 0.0
C637 C 0.27006 0.11235 0.21466 0.0
H638 H 0.22813 0.08318 0.27971 0.0
C639 C 0.28374 0.06589 0.39082 0.0
C640 C 0.27252 0.04828 0.3967 0.0
C641 C 0.28031 0.07799 0.34972 0.0
C642 C 0.24003 0.0909 0.2612 0.0
H643 H 0.25699 0.18084 0.14124 0.0
H644 H 0.26726 0.15366 0.19559 0.0
H645 H 0.21916 0.10861 0.21959 0.0
H646 H 0.24954 0.02906 0.36296 0.0
H647 H 0.24364 0.05014 0.2906 0.0
H648 H 0.29092 0.0949 0.25738 0.0
C649 C 0.25472 0.15119 0.16983 0.0
C650 C 0.23489 0.10553 0.22673 0.0
C651 C 0.24874 0.16684 0.1389 0.0
C652 C 0.25846 0.0425 0.35931 0.0
C653 C 0.25495 0.05468 0.3182 0.0
C654 C 0.27521 0.09772 0.24926 0.0
C655 C 0.24421 0.13287 0.16865 0.0
C656 C 0.24983 0.1166 0.20341 0.0
C657 C 0.26553 0.07279 0.31353 0.0
C658 C 0.26024 0.08699 0.27335 0.0
H659 H 0.20907 0.14366 0.07927 0.0
H660 H 0.21962 0.11643 0.13261 0.0
H661 H 0.28194 0.12036 0.19677 0.0
H662 H 0.29483 0.07061 0.41883 0.0
H663 H 0.28863 0.09188 0.34752 0.0
C664 C 0.20858 0.28814 0.04671 0.0
C665 C 0.21726 0.27823 0.00573 0.0
C666 C 0.20694 0.30907 0.04837 0.0
C667 C 0.20767 0.35379 0.96854 0.0
H668 H 0.22017 0.38224 0.093 0.0
C669 C 0.21943 0.43983 0.98095 0.0
C670 C 0.21149 0.45014 0.02224 0.0
C671 C 0.21924 0.41884 0.97841 0.0
C672 C 0.21639 0.37452 0.05809 0.0
H673 H 0.23079 0.28267 0.93404 0.0
H674 H 0.22814 0.31907 0.93726 0.0
H675 H 0.22128 0.34569 0.08966 0.0
H676 H 0.19698 0.4467 0.09282 0.0
H677 H 0.19651 0.41005 0.08832 0.0
H678 H 0.20295 0.38267 0.9369 0.0
C679 C 0.22238 0.31067 0.96788 0.0
C680 C 0.21701 0.35355 0.05619 0.0
C681 C 0.22401 0.28976 0.9662 0.0
C682 C 0.20323 0.4391 0.06063 0.0
C683 C 0.20308 0.41813 0.05817 0.0
C684 C 0.20708 0.37477 0.97043 0.0
C685 C 0.21392 0.3206 0.00908 0.0
C686 C 0.21272 0.34292 0.01135 0.0
C687 C 0.21117 0.40773 0.01715 0.0
C688 C 0.21148 0.3854 0.0152 0.0
H689 H 0.2031 0.27974 0.07769 0.0
H690 H 0.20008 0.31622 0.08034 0.0
H691 H 0.20398 0.34608 0.93358 0.0
H692 H 0.22596 0.44793 0.9508 0.0
H693 H 0.2258 0.4113 0.94656 0.0
C694 C 0.20507 0.72999 0.54576 0.0
C695 C 0.21505 0.72209 0.50412 0.0
C696 C 0.18418 0.73173 0.54508 0.0
C697 C 0.13805 0.71304 0.48005 0.0
H698 H 0.11457 0.76163 0.53538 0.0
C699 C 0.05414 0.73272 0.45183 0.0
C700 C 0.0442 0.74128 0.49261 0.0
C701 C 0.07491 0.72987 0.45389 0.0
C702 C 0.12086 0.74786 0.52032 0.0
H703 H 0.21076 0.70952 0.42933 0.0
H704 H 0.17435 0.71275 0.42803 0.0
H705 H 0.15086 0.75745 0.53783 0.0
H706 H 0.04818 0.75348 0.56783 0.0
H707 H 0.08438 0.74836 0.57162 0.0
H708 H 0.10801 0.70349 0.46234 0.0
C709 C 0.18268 0.71743 0.46141 0.0
C710 C 0.14168 0.74546 0.52173 0.0
C711 C 0.20359 0.71568 0.46207 0.0
C712 C 0.0554 0.74687 0.53569 0.0
C713 C 0.07618 0.74405 0.53775 0.0
C714 C 0.11721 0.71544 0.47862 0.0
C715 C 0.17273 0.72561 0.50278 0.0
C716 C 0.15054 0.72803 0.5016 0.0
C717 C 0.0862 0.73557 0.49682 0.0
C718 C 0.10836 0.73289 0.49871 0.0
H719 H 0.21338 0.73496 0.57892 0.0
H720 H 0.17698 0.7378 0.57788 0.0
H721 H 0.14435 0.6993 0.46484 0.0
H722 H 0.04584 0.72835 0.41813 0.0
H723 H 0.08217 0.72354 0.42148 0.0
C724 C 0.79053 0.72425 0.9666 0.0
C725 C 0.78265 0.73424 0.00851 0.0
C726 C 0.79202 0.70329 0.96485 0.0
C727 C 0.77052 0.65806 0.02027 0.0
H728 H 0.81676 0.63119 0.96484 0.0
C729 C 0.78129 0.57231 0.03173 0.0
C730 C 0.78854 0.56223 0.98929 0.0
C731 C 0.78116 0.59329 0.03464 0.0
C732 C 0.80364 0.63846 0.97997 0.0
H733 H 0.77066 0.72995 0.082 0.0
H734 H 0.77341 0.69355 0.07903 0.0
H735 H 0.81563 0.6678 0.96876 0.0
H736 H 0.80139 0.56612 0.91685 0.0
H737 H 0.80099 0.60277 0.92159 0.0
H738 H 0.75846 0.62879 0.03124 0.0
C739 C 0.77813 0.70187 0.04716 0.0
C740 C 0.803 0.65945 0.98221 0.0
C741 C 0.77667 0.72279 0.04896 0.0
C742 C 0.79577 0.57353 0.95005 0.0
C743 C 0.79565 0.59451 0.95292 0.0
C744 C 0.77115 0.6371 0.01798 0.0
C745 C 0.78564 0.69184 0.00492 0.0
C746 C 0.78644 0.66951 0.00246 0.0
C747 C 0.78827 0.60467 0.99519 0.0
C748 C 0.78772 0.62702 0.99784 0.0
H749 H 0.79531 0.73258 0.93479 0.0
H750 H 0.79773 0.69603 0.93158 0.0
H751 H 0.75737 0.66531 0.03528 0.0
H752 H 0.77566 0.56403 0.06272 0.0
H753 H 0.77564 0.60061 0.06804 0.0
C754 C 0.793 0.28354 0.54778 0.0
C755 C 0.78294 0.2905 0.50492 0.0
C756 C 0.81373 0.28077 0.54843 0.0
C757 C 0.86036 0.29443 0.48585 0.0
H758 H 0.88054 0.24609 0.54725 0.0
C759 C 0.94365 0.26928 0.47729 0.0
C760 C 0.95213 0.2615 0.5212 0.0
C761 C 0.92309 0.2734 0.47391 0.0
C762 C 0.87518 0.25977 0.53043 0.0
H763 H 0.78698 0.30057 0.4295 0.0
H764 H 0.8233 0.29557 0.43059 0.0
H765 H 0.84462 0.25242 0.54381 0.0
H766 H 0.94597 0.25227 0.5961 0.0
H767 H 0.91017 0.2596 0.59049 0.0
H768 H 0.89104 0.30172 0.47255 0.0
C769 C 0.81506 0.29236 0.46378 0.0
C770 C 0.85458 0.2634 0.52846 0.0
C771 C 0.79424 0.29515 0.4631 0.0
C772 C 0.93978 0.25817 0.56175 0.0
C773 C 0.91927 0.26225 0.55839 0.0
C774 C 0.88103 0.29078 0.48782 0.0
C775 C 0.82499 0.28487 0.50625 0.0
C776 C 0.84692 0.28086 0.50662 0.0
C777 C 0.91064 0.26977 0.51431 0.0
C778 C 0.88868 0.27349 0.51058 0.0
H779 H 0.78484 0.28 0.58086 0.0
H780 H 0.82096 0.27537 0.58211 0.0
H781 H 0.85494 0.30809 0.46912 0.0
H782 H 0.95281 0.27202 0.44537 0.0
H783 H 0.91687 0.27904 0.43931 0.0
C784 C 0.71401 0.22395 0.54453 0.0
C785 C 0.72054 0.2347 0.50339 0.0
C786 C 0.71418 0.20294 0.54356 0.0
C787 C 0.73854 0.15993 0.48022 0.0
H788 H 0.6954 0.12882 0.5345 0.0
C789 C 0.73343 0.07431 0.44973 0.0
C790 C 0.72765 0.06271 0.4899 0.0
C791 C 0.73216 0.09523 0.45242 0.0
C792 C 0.70768 0.1373 0.51972 0.0
H793 H 0.73177 0.23164 0.42835 0.0
H794 H 0.73188 0.19513 0.42658 0.0
H795 H 0.69361 0.16545 0.53691 0.0
H796 H 0.71583 0.06387 0.5645 0.0
H797 H 0.71379 0.10049 0.56949 0.0
H798 H 0.75264 0.13189 0.46307 0.0
C799 C 0.72697 0.20294 0.45996 0.0
C800 C 0.70665 0.15829 0.52107 0.0
C801 C 0.72679 0.2239 0.46089 0.0
C802 C 0.72041 0.07242 0.53288 0.0
C803 C 0.71913 0.0934 0.53562 0.0
C804 C 0.73958 0.13899 0.47891 0.0
C805 C 0.7209 0.19218 0.50147 0.0
C806 C 0.72201 0.16986 0.501 0.0
C807 C 0.72509 0.10506 0.49547 0.0
C808 C 0.72411 0.12739 0.4983 0.0
H809 H 0.70906 0.23176 0.57786 0.0
H810 H 0.70953 0.19513 0.5763 0.0
H811 H 0.75084 0.16836 0.46539 0.0
H812 H 0.73895 0.06719 0.41606 0.0
H813 H 0.73655 0.1037 0.42049 0.0
C814 C 0.29406 0.21922 0.96189 0.0
C815 C 0.28228 0.22448 0.00296 0.0
C816 C 0.31483 0.22217 0.96389 0.0
C817 C 0.35777 0.23057 0.05209 0.0
H818 H 0.38315 0.25329 0.93773 0.0
C819 C 0.43795 0.2629 0.06318 0.0
C820 C 0.45052 0.25875 0.02307 0.0
C821 C 0.41762 0.25788 0.06004 0.0
C822 C 0.37634 0.24671 0.96976 0.0
H823 H 0.28324 0.23663 0.07871 0.0
H824 H 0.31932 0.24194 0.08192 0.0
H825 H 0.34739 0.2456 0.93368 0.0
H826 H 0.45171 0.24609 0.94801 0.0
H827 H 0.41618 0.23726 0.94254 0.0
H828 H 0.38668 0.23187 0.08834 0.0
C829 C 0.31256 0.23534 0.04833 0.0
C830 C 0.35584 0.24228 0.96742 0.0
C831 C 0.29182 0.2324 0.04635 0.0
C832 C 0.44238 0.24954 0.97954 0.0
C833 C 0.422 0.24456 0.97632 0.0
C834 C 0.37825 0.23502 0.05444 0.0
C835 C 0.32431 0.23041 0.00702 0.0
C836 C 0.34628 0.23429 0.0087 0.0
C837 C 0.4094 0.24861 0.01661 0.0
C838 C 0.38775 0.24329 0.01345 0.0
H839 H 0.28724 0.21297 0.92796 0.0
H840 H 0.32348 0.21795 0.93165 0.0
H841 H 0.35095 0.22411 0.08426 0.0
H842 H 0.44387 0.27002 0.0971 0.0
H843 H 0.40827 0.26148 0.09146 0.0
C844 C 0.28682 0.78893 0.55105 0.0
C845 C 0.27866 0.77824 0.50959 0.0
C846 C 0.28801 0.80988 0.55109 0.0
C847 C 0.2658 0.85425 0.49099 0.0
H848 H 0.3125 0.8816 0.54817 0.0
C849 C 0.27646 0.94025 0.47987 0.0
C850 C 0.28412 0.95021 0.52292 0.0
C851 C 0.27613 0.91926 0.47679 0.0
C852 C 0.29926 0.87421 0.53251 0.0
H853 H 0.26567 0.78127 0.43524 0.0
H854 H 0.2679 0.81777 0.43524 0.0
H855 H 0.3115 0.84503 0.54528 0.0
H856 H 0.29734 0.94614 0.5964 0.0
H857 H 0.29661 0.90952 0.59134 0.0
H858 H 0.25352 0.88343 0.47847 0.0
C859 C 0.27312 0.80996 0.46802 0.0
C860 C 0.29869 0.85323 0.53084 0.0
C861 C 0.27195 0.789 0.46794 0.0
C862 C 0.29143 0.93882 0.56272 0.0
C863 C 0.29112 0.91785 0.55966 0.0
C864 C 0.26637 0.87523 0.49266 0.0
C865 C 0.28108 0.82066 0.50968 0.0
C866 C 0.28191 0.84299 0.51029 0.0
C867 C 0.28348 0.9078 0.51666 0.0
C868 C 0.28307 0.88547 0.51368 0.0
H869 H 0.29215 0.78116 0.58378 0.0
H870 H 0.29402 0.81765 0.58402 0.0
H871 H 0.25252 0.84685 0.47555 0.0
H872 H 0.27074 0.94863 0.4485 0.0
H873 H 0.27035 0.91201 0.44292 0.0
C874 C 0.70458 0.7914 0.05216 0.0
C875 C 0.71649 0.78604 0.01137 0.0
C876 C 0.68388 0.7879 0.05037 0.0
C877 C 0.64559 0.75624 0.9856 0.0
H878 H 0.608 0.79546 0.0372 0.0
C879 C 0.56043 0.74809 0.95142 0.0
C880 C 0.54777 0.75311 0.99079 0.0
C881 C 0.58092 0.75237 0.95499 0.0
C882 C 0.61832 0.78425 0.02318 0.0
H883 H 0.71579 0.77325 0.93624 0.0
H884 H 0.67978 0.76732 0.93312 0.0
H885 H 0.64391 0.80269 0.04125 0.0
H886 H 0.54659 0.76666 0.06489 0.0
H887 H 0.58247 0.77396 0.07144 0.0
H888 H 0.62011 0.73777 0.96763 0.0
C889 C 0.68649 0.77393 0.96678 0.0
C890 C 0.63889 0.7884 0.02547 0.0
C891 C 0.70714 0.77745 0.96849 0.0
C892 C 0.55597 0.76262 0.03387 0.0
C893 C 0.57652 0.7669 0.03749 0.0
C894 C 0.62506 0.75208 0.9834 0.0
C895 C 0.67463 0.77894 0.00784 0.0
C896 C 0.65276 0.7745 0.00638 0.0
C897 C 0.58925 0.76176 0.99812 0.0
C898 C 0.61114 0.76607 0.00184 0.0
H899 H 0.71126 0.79807 0.08576 0.0
H900 H 0.6752 0.79181 0.08277 0.0
H901 H 0.65588 0.74503 0.97146 0.0
H902 H 0.55445 0.74085 0.9177 0.0
H903 H 0.5902 0.7485 0.92363 0.0
loop_
_geom_bond_atom_site_label_1
_geom_bond_atom_site_label_2
_geom_bond_distance
_geom_bond_site_symmetry_2
_ccdc_geom_bond_type
Fe0 O2 1.918 . S
Fe0 O5 1.997 . S
Fe0 O6 2.002 . S
Fe0 O11 1.976 . S
Fe0 O14 1.996 . S
Fe1 O2 1.918 1_556 S
Fe1 O9 1.997 . S
Fe1 O12 1.996 . S
Fe1 O16 1.976 . S
Fe1 O19 2.002 . S
O2 Fe0 1.918 . S
O2 Fe1 1.918 1_554 S
O2 Fe3 1.918 . S
Fe3 O2 1.918 . S
Fe3 O4 2.002 . S
Fe3 O13 1.976 . S
Fe3 O17 1.996 1_554 S
Fe3 O20 1.997 1_554 S
O4 Fe3 2.002 . S
O4 C21 1.295 . S
O5 Fe0 1.997 . S
O5 C21 1.235 . S
O6 Fe0 2.002 . S
O6 C7 1.295 . S
C7 O6 1.295 . S
C7 O9 1.235 1_554 S
C8 O13 1.287 . S
C8 O14 1.255 . S
O9 Fe1 1.997 . S
O9 C7 1.235 1_556 S
C10 O16 1.287 . S
C10 O17 1.255 . S
O11 Fe0 1.976 . S
O11 C18 1.287 . S
O12 Fe1 1.996 . S
O12 C18 1.255 1_556 S
O13 Fe3 1.976 . S
O13 C8 1.287 . S
O14 Fe0 1.996 . S
O14 C8 1.255 . S
C15 O19 1.295 . S
C15 O20 1.235 . S
O16 Fe1 1.976 . S
O16 C10 1.287 . S
O17 Fe3 1.996 1_556 S
O17 C10 1.255 . S
C18 O11 1.287 . S
C18 O12 1.255 1_554 S
O19 Fe1 2.002 . S
O19 C15 1.295 . S
O20 Fe3 1.997 1_556 S
O20 C15 1.235 . S
C21 O4 1.295 . S
C21 O5 1.235 . S
Fe22 O24 1.918 . S
Fe22 O27 1.997 . S
Fe22 O28 2.002 . S
Fe22 O33 1.976 . S
Fe22 O36 1.996 . S
Fe23 O24 1.918 . S
Fe23 O31 1.997 . S
Fe23 O34 1.996 . S
Fe23 O38 1.976 . S
Fe23 O41 2.002 . S
O24 Fe22 1.918 . S
O24 Fe23 1.918 . S
O24 Fe25 1.918 . S
Fe25 O24 1.918 . S
Fe25 O26 2.002 . S
Fe25 O35 1.976 . S
Fe25 O39 1.996 . S
Fe25 O42 1.997 . S
O26 Fe25 2.002 . S
O26 C43 1.295 . S
O27 Fe22 1.997 . S
O27 C43 1.235 . S
O28 Fe22 2.002 . S
O28 C29 1.295 . S
C29 O28 1.295 . S
C29 O31 1.235 . S
C30 O35 1.287 . S
C30 O36 1.255 . S
O31 Fe23 1.997 . S
O31 C29 1.235 . S
C32 O38 1.287 . S
C32 O39 1.255 . S
O33 Fe22 1.976 . S
O33 C40 1.287 . S
O34 Fe23 1.996 . S
O34 C40 1.255 . S
O35 Fe25 1.976 . S
O35 C30 1.287 . S
O36 Fe22 1.996 . S
O36 C30 1.255 . S
C37 O41 1.295 . S
C37 O42 1.235 . S
O38 Fe23 1.976 . S
O38 C32 1.287 . S
O39 Fe25 1.996 . S
O39 C32 1.255 . S
C40 O33 1.287 . S
C40 O34 1.255 . S
O41 Fe23 2.002 . S
O41 C37 1.295 . S
O42 Fe25 1.997 . S
O42 C37 1.235 . S
C43 O26 1.295 . S
C43 O27 1.235 . S
Fe44 O46 1.918 1_556 S
Fe44 O49 1.997 . S
Fe44 O50 2.002 . S
Fe44 O55 1.976 . S
Fe44 O58 1.996 . S
Fe45 O46 1.918 . S
Fe45 O53 1.997 . S
Fe45 O56 1.996 . S
Fe45 O60 1.976 . S
Fe45 O63 2.002 . S
O46 Fe44 1.918 1_554 S
O46 Fe45 1.918 . S
O46 Fe47 1.918 . S
Fe47 O46 1.918 . S
Fe47 O48 2.002 1_554 S
Fe47 O57 1.976 1_554 S
Fe47 O61 1.996 . S
Fe47 O64 1.997 . S
O48 Fe47 2.002 1_556 S
O48 C65 1.295 . S
O49 Fe44 1.997 . S
O49 C65 1.235 . S
O50 Fe44 2.002 . S
O50 C51 1.295 1_556 S
C51 O50 1.295 1_554 S
C51 O53 1.235 . S
C52 O57 1.287 . S
C52 O58 1.255 . S
O53 Fe45 1.997 . S
O53 C51 1.235 . S
C54 O60 1.287 . S
C54 O61 1.255 . S
O55 Fe44 1.976 . S
O55 C62 1.287 1_556 S
O56 Fe45 1.996 . S
O56 C62 1.255 . S
O57 Fe47 1.976 1_556 S
O57 C52 1.287 . S
O58 Fe44 1.996 . S
O58 C52 1.255 . S
C59 O63 1.295 . S
C59 O64 1.235 . S
O60 Fe45 1.976 . S
O60 C54 1.287 . S
O61 Fe47 1.996 . S
O61 C54 1.255 . S
C62 O55 1.287 1_554 S
C62 O56 1.255 . S
O63 Fe45 2.002 . S
O63 C59 1.295 . S
O64 Fe47 1.997 . S
O64 C59 1.235 . S
C65 O48 1.295 . S
C65 O49 1.235 . S
Fe66 O68 1.918 . S
Fe66 O71 1.997 . S
Fe66 O72 2.002 . S
Fe66 O77 1.976 . S
Fe66 O80 1.996 . S
Fe67 O68 1.918 . S
Fe67 O75 1.997 . S
Fe67 O78 1.996 . S
Fe67 O82 1.976 . S
Fe67 O85 2.002 . S
O68 Fe66 1.918 . S
O68 Fe67 1.918 . S
O68 Fe69 1.918 . S
Fe69 O68 1.918 . S
Fe69 O70 2.002 . S
Fe69 O79 1.976 . S
Fe69 O83 1.996 . S
Fe69 O86 1.997 . S
O70 Fe69 2.002 . S
O70 C87 1.295 . S
O71 Fe66 1.997 . S
O71 C87 1.235 . S
O72 Fe66 2.002 . S
O72 C73 1.295 . S
C73 O72 1.295 . S
C73 O75 1.235 . S
C74 O79 1.287 . S
C74 O80 1.255 . S
O75 Fe67 1.997 . S
O75 C73 1.235 . S
C76 O82 1.287 . S
C76 O83 1.255 . S
O77 Fe66 1.976 . S
O77 C84 1.287 . S
O78 Fe67 1.996 . S
O78 C84 1.255 . S
O79 Fe69 1.976 . S
O79 C74 1.287 . S
O80 Fe66 1.996 . S
O80 C74 1.255 . S
C81 O85 1.295 . S
C81 O86 1.235 . S
O82 Fe67 1.976 . S
O82 C76 1.287 . S
O83 Fe69 1.996 . S
O83 C76 1.255 . S
C84 O77 1.287 . S
C84 O78 1.255 . S
O85 Fe67 2.002 . S
O85 C81 1.295 . S
O86 Fe69 1.997 . S
O86 C81 1.235 . S
C87 O70 1.295 . S
C87 O71 1.235 . S
H88 C93 0.930 . S
H89 C96 0.930 . S
H90 C98 0.929 1_554 S
H91 C92 1.016 . S
C92 H91 1.016 . S
C92 N99 1.286 1_554 S
C93 H88 0.930 . S
C93 C94 1.397 . S
C93 C95 1.361 . S
C94 C93 1.397 . S
C94 C98 1.408 . S
C95 C93 1.361 . S
C95 C96 1.393 1_556 S
C95 N99 1.413 . S
C96 H89 0.930 . S
C96 C95 1.393 1_554 S
C96 C97 1.399 . S
C97 C96 1.399 . S
C97 C98 1.364 1_554 S
C98 H90 0.929 1_556 S
C98 C94 1.408 . S
C98 C97 1.364 1_556 S
N99 C92 1.286 1_556 S
N99 C95 1.413 . S
H100 C105 0.930 . S
H101 C108 0.930 . S
H102 C110 0.930 . S
H103 C104 1.016 . S
C104 H103 1.016 . S
C104 N111 1.286 . S
C105 H100 0.930 . S
C105 C106 1.397 . S
C105 C107 1.359 1_655 S
C106 C105 1.397 . S
C106 C110 1.390 . S
C107 C105 1.359 1_455 S
C107 C108 1.391 1_455 S
C107 N111 1.417 . S
C108 H101 0.930 . S
C108 C107 1.391 1_655 S
C108 C109 1.399 . S
C109 C108 1.399 . S
C109 C110 1.381 . S
C110 H102 0.930 . S
C110 C106 1.390 . S
C110 C109 1.381 . S
N111 C104 1.286 . S
N111 C107 1.417 . S
H112 C117 0.930 . S
H113 C120 0.930 . S
H114 C122 0.930 . S
H115 C116 1.016 1_556 S
C116 H115 1.016 1_554 S
C116 N123 1.286 . S
C117 H112 0.930 . S
C117 C118 1.397 . S
C117 C119 1.361 . S
C118 C117 1.397 . S
C118 C122 1.390 . S
C119 C117 1.361 . S
C119 C120 1.393 1_554 S
C119 N123 1.413 . S
C120 H113 0.930 . S
C120 C119 1.393 1_556 S
C120 C121 1.399 . S
C121 C120 1.399 . S
C121 C122 1.381 1_556 S
C122 H114 0.930 . S
C122 C118 1.390 . S
C122 C121 1.381 1_554 S
N123 C116 1.286 . S
N123 C119 1.413 . S
H124 C129 0.930 . S
H125 C132 0.963 . S
H126 C134 0.930 . S
H127 C128 1.016 . S
C128 H127 1.016 . S
C128 N135 1.286 . S
C129 H124 0.930 . S
C129 C130 1.397 . S
C129 C131 1.363 1_455 S
C130 C129 1.397 . S
C130 C134 1.390 . S
C131 C129 1.363 1_655 S
C131 C132 1.394 1_655 S
C131 N135 1.410 . S
C132 H125 0.963 . S
C132 C131 1.394 1_455 S
C132 C133 1.399 . S
C133 C132 1.399 . S
C133 C134 1.381 . S
C134 H126 0.930 . S
C134 C130 1.390 . S
C134 C133 1.381 . S
N135 C128 1.286 . S
N135 C131 1.410 . S
H136 C141 0.930 . S
H137 C144 0.930 1_545 S
H138 C146 0.930 . S
H139 C140 1.016 . S
C140 H139 1.016 . S
C140 N147 1.286 . S
C141 H136 0.930 . S
C141 C142 1.397 . S
C141 C143 1.361 1_565 S
C142 C141 1.397 . S
C142 C146 1.390 . S
C143 C141 1.361 1_545 S
C143 C144 1.393 1_545 S
C143 N147 1.413 . S
C144 H137 0.930 1_565 S
C144 C143 1.393 1_565 S
C144 C145 1.399 . S
C145 C144 1.399 . S
C145 C146 1.381 . S
C146 H138 0.930 . S
C146 C142 1.390 . S
C146 C145 1.381 . S
N147 C140 1.286 . S
N147 C143 1.413 . S
H148 C153 0.930 . S
H149 C156 0.930 . S
H150 C158 0.930 . S
H151 C152 1.016 . S
C152 H151 1.016 . S
C152 N159 1.286 1_554 S
C153 H148 0.930 . S
C153 C154 1.397 . S
C153 C155 1.361 . S
C154 C153 1.397 . S
C154 C158 1.390 1_556 S
C155 C153 1.361 . S
C155 C156 1.393 1_556 S
C155 N159 1.413 . S
C156 H149 0.930 . S
C156 C155 1.393 1_554 S
C156 C157 1.399 . S
C157 C156 1.399 . S
C157 C158 1.381 . S
C158 H150 0.930 . S
C158 C154 1.390 1_554 S
C158 C157 1.381 . S
N159 C152 1.286 1_556 S
N159 C155 1.413 . S
H160 C165 0.930 . S
H161 C168 0.930 . S
H162 C170 0.930 . S
H163 C164 1.016 . S
C164 H163 1.016 . S
C164 N171 1.286 . S
C165 H160 0.930 . S
C165 C166 1.397 . S
C165 C167 1.374 . S
C166 C165 1.397 . S
C166 C170 1.390 . S
C167 C165 1.374 . S
C167 C168 1.403 . S
C167 N171 1.391 1_545 S
C168 H161 0.930 . S
C168 C167 1.403 . S
C168 C169 1.399 . S
C169 C168 1.399 . S
C169 C170 1.381 . S
C170 H162 0.930 . S
C170 C166 1.390 . S
C170 C169 1.381 . S
N171 C164 1.286 . S
N171 C167 1.391 1_565 S
H172 C177 0.930 . S
H173 C180 0.930 . S
H174 C182 0.930 . S
H175 C176 1.016 1_556 S
C176 H175 1.016 1_554 S
C176 N183 1.286 . S
C177 H172 0.930 . S
C177 C178 1.397 . S
C177 C179 1.361 . S
C178 C177 1.397 . S
C178 C182 1.390 . S
C179 C177 1.361 . S
C179 C180 1.393 1_554 S
C179 N183 1.413 . S
C180 H173 0.930 . S
C180 C179 1.393 1_556 S
C180 C181 1.399 . S
C181 C180 1.399 . S
C181 C182 1.381 1_556 S
C182 H174 0.930 . S
C182 C178 1.390 . S
C182 C181 1.381 1_554 S
N183 C176 1.286 . S
N183 C179 1.413 . S
C184 C185 1.349 . S
C184 C186 1.327 . S
C184 H209 0.950 . S
C185 C184 1.349 . S
C185 C201 1.349 . S
C186 C184 1.327 . S
C186 C205 1.429 . S
C186 H210 0.950 . S
C187 C204 1.574 . S
C187 C206 1.368 . S
C187 H211 0.949 . S
H188 C192 0.949 . S
C189 C190 1.349 . S
C189 C191 1.327 . S
C189 H212 0.950 . S
C190 C189 1.349 . S
C190 C202 1.349 . S
C191 C189 1.327 . S
C191 C207 1.429 . S
C191 H213 0.950 . S
C192 H188 0.949 . S
C192 C200 1.574 . S
C192 C208 1.368 . S
H193 C201 0.950 . S
H194 C199 0.950 . S
H195 C200 0.949 . S
H196 C202 0.950 . S
H197 C203 0.950 . S
H198 C204 0.949 . S
C199 H194 0.950 . S
C199 C201 1.327 . S
C199 C205 1.429 . S
C200 C192 1.574 . S
C200 H195 0.949 . S
C200 C206 1.368 . S
C201 C185 1.349 . S
C201 H193 0.950 . S
C201 C199 1.327 . S
C202 C190 1.349 . S
C202 H196 0.950 . S
C202 C203 1.327 . S
C203 H197 0.950 . S
C203 C202 1.327 . S
C203 C207 1.429 . S
C204 C187 1.574 . S
C204 H198 0.949 . S
C204 C208 1.368 . S
C205 C186 1.429 . S
C205 C199 1.429 . S
C205 C206 1.523 . S
C206 C187 1.368 . S
C206 C200 1.368 . S
C206 C205 1.523 . S
C207 C191 1.429 . S
C207 C203 1.429 . S
C207 C208 1.523 . S
C208 C192 1.368 . S
C208 C204 1.368 . S
C208 C207 1.523 . S
H209 C184 0.950 . S
H210 C186 0.950 . S
H211 C187 0.949 . S
H212 C189 0.950 . S
H213 C191 0.950 . S
C214 C215 1.349 . S
C214 C216 1.327 . S
C214 H239 0.950 . S
C215 C214 1.349 . S
C215 C231 1.349 . S
C216 C214 1.327 . S
C216 C235 1.429 . S
C216 H240 0.950 . S
C217 C234 1.574 . S
C217 C236 1.368 . S
C217 H241 0.949 . S
H218 C222 0.949 . S
C219 C220 1.349 . S
C219 C221 1.327 . S
C219 H242 0.950 . S
C220 C219 1.349 . S
C220 C232 1.349 . S
C221 C219 1.327 . S
C221 C237 1.429 . S
C221 H243 0.950 . S
C222 H218 0.949 . S
C222 C230 1.574 . S
C222 C238 1.368 . S
H223 C231 0.950 . S
H224 C229 0.950 . S
H225 C230 0.949 . S
H226 C232 0.950 . S
H227 C233 0.950 . S
H228 C234 0.949 . S
C229 H224 0.950 . S
C229 C231 1.327 . S
C229 C235 1.429 . S
C230 C222 1.574 . S
C230 H225 0.949 . S
C230 C236 1.368 . S
C231 C215 1.349 . S
C231 H223 0.950 . S
C231 C229 1.327 . S
C232 C220 1.349 . S
C232 H226 0.950 . S
C232 C233 1.327 . S
C233 H227 0.950 . S
C233 C232 1.327 . S
C233 C237 1.429 . S
C234 C217 1.574 . S
C234 H228 0.949 . S
C234 C238 1.368 . S
C235 C216 1.429 . S
C235 C229 1.429 . S
C235 C236 1.523 . S
C236 C217 1.368 . S
C236 C230 1.368 . S
C236 C235 1.523 . S
C237 C221 1.429 . S
C237 C233 1.429 . S
C237 C238 1.523 . S
C238 C222 1.368 . S
C238 C234 1.368 . S
C238 C237 1.523 . S
H239 C214 0.950 . S
H240 C216 0.950 . S
H241 C217 0.949 . S
H242 C219 0.950 . S
H243 C221 0.950 . S
C244 C245 1.349 . S
C244 C246 1.327 . S
C244 H269 0.950 . S
C245 C244 1.349 . S
C245 C261 1.349 . S
C246 C244 1.327 . S
C246 C265 1.429 . S
C246 H270 0.950 . S
C247 C264 1.574 . S
C247 C266 1.368 . S
C247 H271 0.949 . S
H248 C252 0.949 . S
C249 C250 1.349 . S
C249 C251 1.327 . S
C249 H272 0.950 . S
C250 C249 1.349 . S
C250 C262 1.349 . S
C251 C249 1.327 . S
C251 C267 1.429 . S
C251 H273 0.950 . S
C252 H248 0.949 . S
C252 C260 1.574 . S
C252 C268 1.368 . S
H253 C261 0.950 . S
H254 C259 0.950 . S
H255 C260 0.949 . S
H256 C262 0.950 . S
H257 C263 0.950 . S
H258 C264 0.949 . S
C259 H254 0.950 . S
C259 C261 1.327 . S
C259 C265 1.429 . S
C260 C252 1.574 . S
C260 H255 0.949 . S
C260 C266 1.368 . S
C261 C245 1.349 . S
C261 H253 0.950 . S
C261 C259 1.327 . S
C262 C250 1.349 . S
C262 H256 0.950 . S
C262 C263 1.327 . S
C263 H257 0.950 . S
C263 C262 1.327 . S
C263 C267 1.429 . S
C264 C247 1.574 . S
C264 H258 0.949 . S
C264 C268 1.368 . S
C265 C246 1.429 . S
C265 C259 1.429 . S
C265 C266 1.523 . S
C266 C247 1.368 . S
C266 C260 1.368 . S
C266 C265 1.523 . S
C267 C251 1.429 . S
C267 C263 1.429 . S
C267 C268 1.523 . S
C268 C252 1.368 . S
C268 C264 1.368 . S
C268 C267 1.523 . S
H269 C244 0.950 . S
H270 C246 0.950 . S
H271 C247 0.949 . S
H272 C249 0.950 . S
H273 C251 0.950 . S
C274 C275 1.349 . S
C274 C276 1.327 . S
C274 H299 0.950 . S
C275 C274 1.349 . S
C275 C291 1.349 . S
C276 C274 1.327 . S
C276 C295 1.429 . S
C276 H300 0.950 . S
C277 C294 1.574 . S
C277 C296 1.368 . S
C277 H301 0.949 . S
H278 C282 0.949 . S
C279 C280 1.349 . S
C279 C281 1.327 . S
C279 H302 0.950 . S
C280 C279 1.349 . S
C280 C292 1.349 . S
C281 C279 1.327 . S
C281 C297 1.429 . S
C281 H303 0.950 . S
C282 H278 0.949 . S
C282 C290 1.574 . S
C282 C298 1.368 . S
H283 C291 0.950 . S
H284 C289 0.950 . S
H285 C290 0.949 . S
H286 C292 0.950 . S
H287 C293 0.950 . S
H288 C294 0.949 . S
C289 H284 0.950 . S
C289 C291 1.327 . S
C289 C295 1.429 . S
C290 C282 1.574 . S
C290 H285 0.949 . S
C290 C296 1.368 . S
C291 C275 1.349 . S
C291 H283 0.950 . S
C291 C289 1.327 . S
C292 C280 1.349 . S
C292 H286 0.950 . S
C292 C293 1.327 . S
C293 H287 0.950 . S
C293 C292 1.327 . S
C293 C297 1.429 . S
C294 C277 1.574 . S
C294 H288 0.949 . S
C294 C298 1.368 . S
C295 C276 1.429 . S
C295 C289 1.429 . S
C295 C296 1.523 . S
C296 C277 1.368 . S
C296 C290 1.368 . S
C296 C295 1.523 . S
C297 C281 1.429 . S
C297 C293 1.429 . S
C297 C298 1.523 . S
C298 C282 1.368 . S
C298 C294 1.368 . S
C298 C297 1.523 . S
H299 C274 0.950 . S
H300 C276 0.950 . S
H301 C277 0.949 . S
H302 C279 0.950 . S
H303 C281 0.950 . S
C304 C305 1.349 . S
C304 C306 1.327 . S
C304 H329 0.950 . S
C305 C304 1.349 . S
C305 C321 1.349 . S
C306 C304 1.327 . S
C306 C325 1.429 . S
C306 H330 0.950 . S
C307 C324 1.574 . S
C307 C326 1.368 . S
C307 H331 0.949 . S
H308 C312 0.949 . S
C309 C310 1.349 . S
C309 C311 1.327 . S
C309 H332 0.950 . S
C310 C309 1.349 . S
C310 C322 1.349 . S
C311 C309 1.327 . S
C311 C327 1.429 . S
C311 H333 0.950 . S
C312 H308 0.949 . S
C312 C320 1.574 . S
C312 C328 1.368 . S
H313 C321 0.950 . S
H314 C319 0.950 . S
H315 C320 0.949 . S
H316 C322 0.950 . S
H317 C323 0.950 . S
H318 C324 0.949 . S
C319 H314 0.950 . S
C319 C321 1.327 . S
C319 C325 1.429 . S
C320 C312 1.574 . S
C320 H315 0.949 . S
C320 C326 1.368 . S
C321 C305 1.349 . S
C321 H313 0.950 . S
C321 C319 1.327 . S
C322 C310 1.349 . S
C322 H316 0.950 . S
C322 C323 1.327 . S
C323 H317 0.950 . S
C323 C322 1.327 . S
C323 C327 1.429 . S
C324 C307 1.574 . S
C324 H318 0.949 . S
C324 C328 1.368 . S
C325 C306 1.429 . S
C325 C319 1.429 . S
C325 C326 1.523 . S
C326 C307 1.368 . S
C326 C320 1.368 . S
C326 C325 1.523 . S
C327 C311 1.429 . S
C327 C323 1.429 . S
C327 C328 1.523 . S
C328 C312 1.368 . S
C328 C324 1.368 . S
C328 C327 1.523 . S
H329 C304 0.950 . S
H330 C306 0.950 . S
H331 C307 0.949 . S
H332 C309 0.950 . S
H333 C311 0.950 . S
C334 C335 1.349 . S
C334 C336 1.327 . S
C334 H359 0.950 . S
C335 C334 1.349 . S
C335 C351 1.349 . S
C336 C334 1.327 . S
C336 C355 1.429 . S
C336 H360 0.950 . S
C337 C354 1.574 . S
C337 C356 1.368 . S
C337 H361 0.949 . S
H338 C342 0.949 . S
C339 C340 1.349 . S
C339 C341 1.327 . S
C339 H362 0.950 . S
C340 C339 1.349 . S
C340 C352 1.349 . S
C341 C339 1.327 . S
C341 C357 1.429 . S
C341 H363 0.950 . S
C342 H338 0.949 . S
C342 C350 1.574 . S
C342 C358 1.368 . S
H343 C351 0.950 . S
H344 C349 0.950 . S
H345 C350 0.949 . S
H346 C352 0.950 . S
H347 C353 0.950 . S
H348 C354 0.949 . S
C349 H344 0.950 . S
C349 C351 1.327 . S
C349 C355 1.429 . S
C350 C342 1.574 . S
C350 H345 0.949 . S
C350 C356 1.368 . S
C351 C335 1.349 . S
C351 H343 0.950 . S
C351 C349 1.327 . S
C352 C340 1.349 . S
C352 H346 0.950 . S
C352 C353 1.327 . S
C353 H347 0.950 . S
C353 C352 1.327 . S
C353 C357 1.429 . S
C354 C337 1.574 . S
C354 H348 0.949 . S
C354 C358 1.368 . S
C355 C336 1.429 . S
C355 C349 1.429 . S
C355 C356 1.523 . S
C356 C337 1.368 . S
C356 C350 1.368 . S
C356 C355 1.523 . S
C357 C341 1.429 . S
C357 C353 1.429 . S
C357 C358 1.523 . S
C358 C342 1.368 . S
C358 C354 1.368 . S
C358 C357 1.523 . S
H359 C334 0.950 . S
H360 C336 0.950 . S
H361 C337 0.949 . S
H362 C339 0.950 . S
H363 C341 0.950 . S
C364 C365 1.349 . S
C364 C366 1.327 . S
C364 H389 0.950 . S
C365 C364 1.349 . S
C365 C381 1.349 . S
C366 C364 1.327 . S
C366 C385 1.429 . S
C366 H390 0.950 . S
C367 C384 1.574 . S
C367 C386 1.368 . S
C367 H391 0.949 . S
H368 C372 0.949 . S
C369 C370 1.349 . S
C369 C371 1.327 . S
C369 H392 0.950 . S
C370 C369 1.349 . S
C370 C382 1.349 . S
C371 C369 1.327 . S
C371 C387 1.429 . S
C371 H393 0.950 . S
C372 H368 0.949 . S
C372 C380 1.574 . S
C372 C388 1.368 . S
H373 C381 0.950 . S
H374 C379 0.950 . S
H375 C380 0.949 . S
H376 C382 0.950 . S
H377 C383 0.950 . S
H378 C384 0.949 . S
C379 H374 0.950 . S
C379 C381 1.327 . S
C379 C385 1.429 . S
C380 C372 1.574 . S
C380 H375 0.949 . S
C380 C386 1.368 . S
C381 C365 1.349 . S
C381 H373 0.950 . S
C381 C379 1.327 . S
C382 C370 1.349 . S
C382 H376 0.950 . S
C382 C383 1.327 . S
C383 H377 0.950 . S
C383 C382 1.327 . S
C383 C387 1.429 . S
C384 C367 1.574 . S
C384 H378 0.949 . S
C384 C388 1.368 . S
C385 C366 1.429 . S
C385 C379 1.429 . S
C385 C386 1.523 . S
C386 C367 1.368 . S
C386 C380 1.368 . S
C386 C385 1.523 . S
C387 C371 1.429 . S
C387 C383 1.429 . S
C387 C388 1.523 . S
C388 C372 1.368 . S
C388 C384 1.368 . S
C388 C387 1.523 . S
H389 C364 0.950 . S
H390 C366 0.950 . S
H391 C367 0.949 . S
H392 C369 0.950 . S
H393 C371 0.950 . S
C394 C395 1.349 . S
C394 C396 1.327 . S
C394 H419 0.950 . S
C395 C394 1.349 . S
C395 C411 1.349 . S
C396 C394 1.327 . S
C396 C415 1.429 . S
C396 H420 0.950 . S
C397 C414 1.574 . S
C397 C416 1.368 . S
C397 H421 0.949 . S
H398 C402 0.949 . S
C399 C400 1.349 . S
C399 C401 1.327 . S
C399 H422 0.950 . S
C400 C399 1.349 . S
C400 C412 1.349 . S
C401 C399 1.327 . S
C401 C417 1.429 . S
C401 H423 0.950 . S
C402 H398 0.949 . S
C402 C410 1.574 . S
C402 C418 1.368 . S
H403 C411 0.950 . S
H404 C409 0.950 . S
H405 C410 0.949 . S
H406 C412 0.950 . S
H407 C413 0.950 . S
H408 C414 0.949 . S
C409 H404 0.950 . S
C409 C411 1.327 . S
C409 C415 1.429 . S
C410 C402 1.574 . S
C410 H405 0.949 . S
C410 C416 1.368 . S
C411 C395 1.349 . S
C411 H403 0.950 . S
C411 C409 1.327 . S
C412 C400 1.349 . S
C412 H406 0.950 . S
C412 C413 1.327 . S
C413 H407 0.950 . S
C413 C412 1.327 . S
C413 C417 1.429 . S
C414 C397 1.574 . S
C414 H408 0.949 . S
C414 C418 1.368 . S
C415 C396 1.429 . S
C415 C409 1.429 . S
C415 C416 1.523 . S
C416 C397 1.368 . S
C416 C410 1.368 . S
C416 C415 1.523 . S
C417 C401 1.429 . S
C417 C413 1.429 . S
C417 C418 1.523 . S
C418 C402 1.368 . S
C418 C414 1.368 . S
C418 C417 1.523 . S
H419 C394 0.950 . S
H420 C396 0.950 . S
H421 C397 0.949 . S
H422 C399 0.950 . S
H423 C401 0.950 . S
C424 C425 1.349 . S
C424 C426 1.327 . S
C424 H449 0.950 . S
C425 C424 1.349 . S
C425 C441 1.349 . S
C426 C424 1.327 . S
C426 C445 1.429 . S
C426 H450 0.950 . S
C427 C444 1.574 . S
C427 C446 1.368 . S
C427 H451 0.949 . S
H428 C432 0.949 . S
C429 C430 1.349 . S
C429 C431 1.327 . S
C429 H452 0.950 . S
C430 C429 1.349 . S
C430 C442 1.349 . S
C431 C429 1.327 . S
C431 C447 1.429 . S
C431 H453 0.950 . S
C432 H428 0.949 . S
C432 C440 1.574 . S
C432 C448 1.368 . S
H433 C441 0.950 . S
H434 C439 0.950 . S
H435 C440 0.949 . S
H436 C442 0.950 . S
H437 C443 0.950 . S
H438 C444 0.949 . S
C439 H434 0.950 . S
C439 C441 1.327 . S
C439 C445 1.429 . S
C440 C432 1.574 . S
C440 H435 0.949 . S
C440 C446 1.368 . S
C441 C425 1.349 . S
C441 H433 0.950 . S
C441 C439 1.327 . S
C442 C430 1.349 . S
C442 H436 0.950 . S
C442 C443 1.327 . S
C443 H437 0.950 . S
C443 C442 1.327 . S
C443 C447 1.429 . S
C444 C427 1.574 . S
C444 H438 0.949 . S
C444 C448 1.368 . S
C445 C426 1.429 . S
C445 C439 1.429 . S
C445 C446 1.523 . S
C446 C427 1.368 . S
C446 C440 1.368 . S
C446 C445 1.523 . S
C447 C431 1.429 . S
C447 C443 1.429 . S
C447 C448 1.523 . S
C448 C432 1.368 . S
C448 C444 1.368 . S
C448 C447 1.523 . S
H449 C424 0.950 . S
H450 C426 0.950 . S
H451 C427 0.949 . S
H452 C429 0.950 . S
H453 C431 0.950 . S
C454 C455 1.349 . S
C454 C456 1.327 . S
C454 H479 0.950 . S
C455 C454 1.349 . S
C455 C471 1.349 . S
C456 C454 1.327 . S
C456 C475 1.429 . S
C456 H480 0.950 . S
C457 C474 1.574 . S
C457 C476 1.368 . S
C457 H481 0.949 . S
H458 C462 0.949 . S
C459 C460 1.349 . S
C459 C461 1.327 . S
C459 H482 0.950 . S
C460 C459 1.349 . S
C460 C472 1.349 . S
C461 C459 1.327 . S
C461 C477 1.429 . S
C461 H483 0.950 . S
C462 H458 0.949 . S
C462 C470 1.574 . S
C462 C478 1.368 . S
H463 C471 0.950 . S
H464 C469 0.950 . S
H465 C470 0.949 . S
H466 C472 0.950 . S
H467 C473 0.950 . S
H468 C474 0.949 . S
C469 H464 0.950 . S
C469 C471 1.327 . S
C469 C475 1.429 . S
C470 C462 1.574 . S
C470 H465 0.949 . S
C470 C476 1.368 . S
C471 C455 1.349 . S
C471 H463 0.950 . S
C471 C469 1.327 . S
C472 C460 1.349 . S
C472 H466 0.950 . S
C472 C473 1.327 . S
C473 H467 0.950 . S
C473 C472 1.327 . S
C473 C477 1.429 . S
C474 C457 1.574 . S
C474 H468 0.949 . S
C474 C478 1.368 . S
C475 C456 1.429 . S
C475 C469 1.429 . S
C475 C476 1.523 . S
C476 C457 1.368 . S
C476 C470 1.368 . S
C476 C475 1.523 . S
C477 C461 1.429 . S
C477 C473 1.429 . S
C477 C478 1.523 . S
C478 C462 1.368 . S
C478 C474 1.368 . S
C478 C477 1.523 . S
H479 C454 0.950 . S
H480 C456 0.950 . S
H481 C457 0.949 . S
H482 C459 0.950 . S
H483 C461 0.950 . S
C484 C485 1.349 . S
C484 C486 1.327 . S
C484 H509 0.950 . S
C485 C484 1.349 . S
C485 C501 1.349 . S
C486 C484 1.327 . S
C486 C505 1.429 . S
C486 H510 0.950 . S
C487 C504 1.574 . S
C487 C506 1.368 . S
C487 H511 0.949 . S
H488 C492 0.949 . S
C489 C490 1.349 . S
C489 C491 1.327 . S
C489 H512 0.950 . S
C490 C489 1.349 . S
C490 C502 1.349 . S
C491 C489 1.327 . S
C491 C507 1.429 . S
C491 H513 0.950 . S
C492 H488 0.949 . S
C492 C500 1.574 . S
C492 C508 1.368 . S
H493 C501 0.950 . S
H494 C499 0.950 . S
H495 C500 0.949 . S
H496 C502 0.950 . S
H497 C503 0.950 . S
H498 C504 0.949 . S
C499 H494 0.950 . S
C499 C501 1.327 . S
C499 C505 1.429 . S
C500 C492 1.574 . S
C500 H495 0.949 . S
C500 C506 1.368 . S
C501 C485 1.349 . S
C501 H493 0.950 . S
C501 C499 1.327 . S
C502 C490 1.349 . S
C502 H496 0.950 . S
C502 C503 1.327 . S
C503 H497 0.950 . S
C503 C502 1.327 . S
C503 C507 1.429 . S
C504 C487 1.574 . S
C504 H498 0.949 . S
C504 C508 1.368 . S
C505 C486 1.429 . S
C505 C499 1.429 . S
C505 C506 1.523 . S
C506 C487 1.368 . S
C506 C500 1.368 . S
C506 C505 1.523 . S
C507 C491 1.429 . S
C507 C503 1.429 . S
C507 C508 1.523 . S
C508 C492 1.368 . S
C508 C504 1.368 . S
C508 C507 1.523 . S
H509 C484 0.950 . S
H510 C486 0.950 . S
H511 C487 0.949 . S
H512 C489 0.950 . S
H513 C491 0.950 . S
C514 C515 1.349 . S
C514 C516 1.327 . S
C514 H539 0.950 . S
C515 C514 1.349 . S
C515 C531 1.349 . S
C516 C514 1.327 . S
C516 C535 1.429 . S
C516 H540 0.950 . S
C517 C534 1.574 . S
C517 C536 1.368 . S
C517 H541 0.949 . S
H518 C522 0.949 . S
C519 C520 1.349 . S
C519 C521 1.327 . S
C519 H542 0.950 . S
C520 C519 1.349 . S
C520 C532 1.349 . S
C521 C519 1.327 . S
C521 C537 1.429 . S
C521 H543 0.950 . S
C522 H518 0.949 . S
C522 C530 1.574 . S
C522 C538 1.368 . S
H523 C531 0.950 . S
H524 C529 0.950 . S
H525 C530 0.949 . S
H526 C532 0.950 . S
H527 C533 0.950 . S
H528 C534 0.949 . S
C529 H524 0.950 . S
C529 C531 1.327 . S
C529 C535 1.429 . S
C530 C522 1.574 . S
C530 H525 0.949 . S
C530 C536 1.368 . S
C531 C515 1.349 . S
C531 H523 0.950 . S
C531 C529 1.327 . S
C532 C520 1.349 . S
C532 H526 0.950 . S
C532 C533 1.327 . S
C533 H527 0.950 . S
C533 C532 1.327 . S
C533 C537 1.429 . S
C534 C517 1.574 . S
C534 H528 0.949 . S
C534 C538 1.368 . S
C535 C516 1.429 . S
C535 C529 1.429 . S
C535 C536 1.523 . S
C536 C517 1.368 . S
C536 C530 1.368 . S
C536 C535 1.523 . S
C537 C521 1.429 . S
C537 C533 1.429 . S
C537 C538 1.523 . S
C538 C522 1.368 . S
C538 C534 1.368 . S
C538 C537 1.523 . S
H539 C514 0.950 . S
H540 C516 0.950 . S
H541 C517 0.949 . S
H542 C519 0.950 . S
H543 C521 0.950 . S
C544 C545 1.349 . S
C544 C546 1.327 . S
C544 H569 0.950 . S
C545 C544 1.349 . S
C545 C561 1.349 . S
C546 C544 1.327 . S
C546 C565 1.429 . S
C546 H570 0.950 . S
C547 C564 1.574 . S
C547 C566 1.368 . S
C547 H571 0.949 . S
H548 C552 0.949 . S
C549 C550 1.349 . S
C549 C551 1.327 . S
C549 H572 0.950 . S
C550 C549 1.349 . S
C550 C562 1.349 . S
C551 C549 1.327 . S
C551 C567 1.429 . S
C551 H573 0.950 . S
C552 H548 0.949 . S
C552 C560 1.574 . S
C552 C568 1.368 . S
H553 C561 0.950 . S
H554 C559 0.950 . S
H555 C560 0.949 . S
H556 C562 0.950 . S
H557 C563 0.950 . S
H558 C564 0.949 . S
C559 H554 0.950 . S
C559 C561 1.327 . S
C559 C565 1.429 . S
C560 C552 1.574 . S
C560 H555 0.949 . S
C560 C566 1.368 . S
C561 C545 1.349 . S
C561 H553 0.950 . S
C561 C559 1.327 . S
C562 C550 1.349 . S
C562 H556 0.950 . S
C562 C563 1.327 . S
C563 H557 0.950 . S
C563 C562 1.327 . S
C563 C567 1.429 . S
C564 C547 1.574 . S
C564 H558 0.949 . S
C564 C568 1.368 . S
C565 C546 1.429 . S
C565 C559 1.429 . S
C565 C566 1.523 . S
C566 C547 1.368 . S
C566 C560 1.368 . S
C566 C565 1.523 . S
C567 C551 1.429 . S
C567 C563 1.429 . S
C567 C568 1.523 . S
C568 C552 1.368 . S
C568 C564 1.368 . S
C568 C567 1.523 . S
H569 C544 0.950 . S
H570 C546 0.950 . S
H571 C547 0.949 . S
H572 C549 0.950 . S
H573 C551 0.950 . S
C574 C575 1.349 . S
C574 C576 1.327 . S
C574 H599 0.950 . S
C575 C574 1.349 . S
C575 C591 1.349 . S
C576 C574 1.327 . S
C576 C595 1.429 . S
C576 H600 0.950 . S
C577 C594 1.574 . S
C577 C596 1.368 . S
C577 H601 0.949 . S
H578 C582 0.949 . S
C579 C580 1.349 . S
C579 C581 1.327 . S
C579 H602 0.950 . S
C580 C579 1.349 . S
C580 C592 1.349 . S
C581 C579 1.327 . S
C581 C597 1.429 . S
C581 H603 0.950 . S
C582 H578 0.949 . S
C582 C590 1.574 . S
C582 C598 1.368 . S
H583 C591 0.950 . S
H584 C589 0.950 . S
H585 C590 0.949 . S
H586 C592 0.950 . S
H587 C593 0.950 . S
H588 C594 0.949 . S
C589 H584 0.950 . S
C589 C591 1.327 . S
C589 C595 1.429 . S
C590 C582 1.574 . S
C590 H585 0.949 . S
C590 C596 1.368 . S
C591 C575 1.349 . S
C591 H583 0.950 . S
C591 C589 1.327 . S
C592 C580 1.349 . S
C592 H586 0.950 . S
C592 C593 1.327 . S
C593 H587 0.950 . S
C593 C592 1.327 . S
C593 C597 1.429 . S
C594 C577 1.574 . S
C594 H588 0.949 . S
C594 C598 1.368 . S
C595 C576 1.429 . S
C595 C589 1.429 . S
C595 C596 1.523 . S
C596 C577 1.368 . S
C596 C590 1.368 . S
C596 C595 1.523 . S
C597 C581 1.429 . S
C597 C593 1.429 . S
C597 C598 1.523 . S
C598 C582 1.368 . S
C598 C594 1.368 . S
C598 C597 1.523 . S
H599 C574 0.950 . S
H600 C576 0.950 . S
H601 C577 0.949 . S
H602 C579 0.950 . S
H603 C581 0.950 . S
C604 C605 1.349 . S
C604 C606 1.327 . S
C604 H629 0.950 . S
C605 C604 1.349 . S
C605 C621 1.349 . S
C606 C604 1.327 . S
C606 C625 1.429 . S
C606 H630 0.950 . S
C607 C624 1.574 . S
C607 C626 1.368 . S
C607 H631 0.949 . S
H608 C612 0.949 . S
C609 C610 1.349 . S
C609 C611 1.327 . S
C609 H632 0.950 . S
C610 C609 1.349 . S
C610 C622 1.349 . S
C611 C609 1.327 . S
C611 C627 1.429 . S
C611 H633 0.950 . S
C612 H608 0.949 . S
C612 C620 1.574 . S
C612 C628 1.368 . S
H613 C621 0.950 . S
H614 C619 0.950 . S
H615 C620 0.949 . S
H616 C622 0.950 . S
H617 C623 0.950 . S
H618 C624 0.949 . S
C619 H614 0.950 . S
C619 C621 1.327 . S
C619 C625 1.429 . S
C620 C612 1.574 . S
C620 H615 0.949 . S
C620 C626 1.368 . S
C621 C605 1.349 . S
C621 H613 0.950 . S
C621 C619 1.327 . S
C622 C610 1.349 . S
C622 H616 0.950 . S
C622 C623 1.327 . S
C623 H617 0.950 . S
C623 C622 1.327 . S
C623 C627 1.429 . S
C624 C607 1.574 . S
C624 H618 0.949 . S
C624 C628 1.368 . S
C625 C606 1.429 . S
C625 C619 1.429 . S
C625 C626 1.523 . S
C626 C607 1.368 . S
C626 C620 1.368 . S
C626 C625 1.523 . S
C627 C611 1.429 . S
C627 C623 1.429 . S
C627 C628 1.523 . S
C628 C612 1.368 . S
C628 C624 1.368 . S
C628 C627 1.523 . S
H629 C604 0.950 . S
H630 C606 0.950 . S
H631 C607 0.949 . S
H632 C609 0.950 . S
H633 C611 0.950 . S
C634 C635 1.349 . S
C634 C636 1.327 . S
C634 H659 0.950 . S
C635 C634 1.349 . S
C635 C651 1.349 . S
C636 C634 1.327 . S
C636 C655 1.429 . S
C636 H660 0.950 . S
C637 C654 1.574 . S
C637 C656 1.368 . S
C637 H661 0.949 . S
H638 C642 0.949 . S
C639 C640 1.349 . S
C639 C641 1.327 . S
C639 H662 0.950 . S
C640 C639 1.349 . S
C640 C652 1.349 . S
C641 C639 1.327 . S
C641 C657 1.429 . S
C641 H663 0.950 . S
C642 H638 0.949 . S
C642 C650 1.574 . S
C642 C658 1.368 . S
H643 C651 0.950 . S
H644 C649 0.950 . S
H645 C650 0.949 . S
H646 C652 0.950 . S
H647 C653 0.950 . S
H648 C654 0.949 . S
C649 H644 0.950 . S
C649 C651 1.327 . S
C649 C655 1.429 . S
C650 C642 1.574 . S
C650 H645 0.949 . S
C650 C656 1.368 . S
C651 C635 1.349 . S
C651 H643 0.950 . S
C651 C649 1.327 . S
C652 C640 1.349 . S
C652 H646 0.950 . S
C652 C653 1.327 . S
C653 H647 0.950 . S
C653 C652 1.327 . S
C653 C657 1.429 . S
C654 C637 1.574 . S
C654 H648 0.949 . S
C654 C658 1.368 . S
C655 C636 1.429 . S
C655 C649 1.429 . S
C655 C656 1.523 . S
C656 C637 1.368 . S
C656 C650 1.368 . S
C656 C655 1.523 . S
C657 C641 1.429 . S
C657 C653 1.429 . S
C657 C658 1.523 . S
C658 C642 1.368 . S
C658 C654 1.368 . S
C658 C657 1.523 . S
H659 C634 0.950 . S
H660 C636 0.950 . S
H661 C637 0.949 . S
H662 C639 0.950 . S
H663 C641 0.950 . S
C664 C665 1.349 . S
C664 C666 1.327 . S
C664 H689 0.950 . S
C665 C664 1.349 . S
C665 C681 1.349 1_554 S
C666 C664 1.327 . S
C666 C685 1.429 . S
C666 H690 0.950 . S
C667 C684 1.574 . S
C667 C686 1.368 1_556 S
C667 H691 0.949 . S
H668 C672 0.949 . S
C669 C670 1.349 1_556 S
C669 C671 1.327 . S
C669 H692 0.950 . S
C670 C669 1.349 1_554 S
C670 C682 1.349 . S
C671 C669 1.327 . S
C671 C687 1.429 1_556 S
C671 H693 0.950 . S
C672 H668 0.949 . S
C672 C680 1.574 . S
C672 C688 1.368 . S
H673 C681 0.950 . S
H674 C679 0.950 . S
H675 C680 0.949 . S
H676 C682 0.950 . S
H677 C683 0.950 . S
H678 C684 0.949 . S
C679 H674 0.950 . S
C679 C681 1.327 . S
C679 C685 1.429 1_556 S
C680 C672 1.574 . S
C680 H675 0.949 . S
C680 C686 1.368 . S
C681 C665 1.349 1_556 S
C681 H673 0.950 . S
C681 C679 1.327 . S
C682 C670 1.349 . S
C682 H676 0.950 . S
C682 C683 1.327 . S
C683 H677 0.950 . S
C683 C682 1.327 . S
C683 C687 1.429 . S
C684 C667 1.574 . S
C684 H678 0.949 . S
C684 C688 1.368 1_556 S
C685 C666 1.429 . S
C685 C679 1.429 1_554 S
C685 C686 1.523 . S
C686 C667 1.368 1_554 S
C686 C680 1.368 . S
C686 C685 1.523 . S
C687 C671 1.429 1_554 S
C687 C683 1.429 . S
C687 C688 1.523 . S
C688 C672 1.368 . S
C688 C684 1.368 1_554 S
C688 C687 1.523 . S
H689 C664 0.950 . S
H690 C666 0.950 . S
H691 C667 0.949 . S
H692 C669 0.950 . S
H693 C671 0.950 . S
C694 C695 1.349 . S
C694 C696 1.327 . S
C694 H719 0.950 . S
C695 C694 1.349 . S
C695 C711 1.349 . S
C696 C694 1.327 . S
C696 C715 1.429 . S
C696 H720 0.950 . S
C697 C714 1.574 . S
C697 C716 1.368 . S
C697 H721 0.949 . S
H698 C702 0.949 . S
C699 C700 1.349 . S
C699 C701 1.327 . S
C699 H722 0.950 . S
C700 C699 1.349 . S
C700 C712 1.349 . S
C701 C699 1.327 . S
C701 C717 1.429 . S
C701 H723 0.950 . S
C702 H698 0.949 . S
C702 C710 1.574 . S
C702 C718 1.368 . S
H703 C711 0.950 . S
H704 C709 0.950 . S
H705 C710 0.949 . S
H706 C712 0.950 . S
H707 C713 0.950 . S
H708 C714 0.949 . S
C709 H704 0.950 . S
C709 C711 1.327 . S
C709 C715 1.429 . S
C710 C702 1.574 . S
C710 H705 0.949 . S
C710 C716 1.368 . S
C711 C695 1.349 . S
C711 H703 0.950 . S
C711 C709 1.327 . S
C712 C700 1.349 . S
C712 H706 0.950 . S
C712 C713 1.327 . S
C713 H707 0.950 . S
C713 C712 1.327 . S
C713 C717 1.429 . S
C714 C697 1.574 . S
C714 H708 0.949 . S
C714 C718 1.368 . S
C715 C696 1.429 . S
C715 C709 1.429 . S
C715 C716 1.523 . S
C716 C697 1.368 . S
C716 C710 1.368 . S
C716 C715 1.523 . S
C717 C701 1.429 . S
C717 C713 1.429 . S
C717 C718 1.523 . S
C718 C702 1.368 . S
C718 C714 1.368 . S
C718 C717 1.523 . S
H719 C694 0.950 . S
H720 C696 0.950 . S
H721 C697 0.949 . S
H722 C699 0.950 . S
H723 C701 0.950 . S
C724 C725 1.349 1_556 S
C724 C726 1.327 . S
C724 H749 0.950 . S
C725 C724 1.349 1_554 S
C725 C741 1.349 . S
C726 C724 1.327 . S
C726 C745 1.429 1_556 S
C726 H750 0.950 . S
C727 C744 1.574 . S
C727 C746 1.368 . S
C727 H751 0.949 . S
H728 C732 0.949 . S
C729 C730 1.349 . S
C729 C731 1.327 . S
C729 H752 0.950 . S
C730 C729 1.349 . S
C730 C742 1.349 1_554 S
C731 C729 1.327 . S
C731 C747 1.429 . S
C731 H753 0.950 . S
C732 H728 0.949 . S
C732 C740 1.574 . S
C732 C748 1.368 1_556 S
H733 C741 0.950 . S
H734 C739 0.950 . S
H735 C740 0.949 . S
H736 C742 0.950 . S
H737 C743 0.950 . S
H738 C744 0.949 . S
C739 H734 0.950 . S
C739 C741 1.327 . S
C739 C745 1.429 . S
C740 C732 1.574 . S
C740 H735 0.949 . S
C740 C746 1.368 1_556 S
C741 C725 1.349 . S
C741 H733 0.950 . S
C741 C739 1.327 . S
C742 C730 1.349 1_556 S
C742 H736 0.950 . S
C742 C743 1.327 . S
C743 H737 0.950 . S
C743 C742 1.327 . S
C743 C747 1.429 1_556 S
C744 C727 1.574 . S
C744 H738 0.949 . S
C744 C748 1.368 . S
C745 C726 1.429 1_554 S
C745 C739 1.429 . S
C745 C746 1.523 . S
C746 C727 1.368 . S
C746 C740 1.368 1_554 S
C746 C745 1.523 . S
C747 C731 1.429 . S
C747 C743 1.429 1_554 S
C747 C748 1.523 . S
C748 C732 1.368 1_554 S
C748 C744 1.368 . S
C748 C747 1.523 . S
H749 C724 0.950 . S
H750 C726 0.950 . S
H751 C727 0.949 . S
H752 C729 0.950 . S
H753 C731 0.950 . S
C754 C755 1.349 . S
C754 C756 1.327 . S
C754 H779 0.950 . S
C755 C754 1.349 . S
C755 C771 1.349 . S
C756 C754 1.327 . S
C756 C775 1.429 . S
C756 H780 0.950 . S
C757 C774 1.574 . S
C757 C776 1.368 . S
C757 H781 0.949 . S
H758 C762 0.949 . S
C759 C760 1.349 . S
C759 C761 1.327 . S
C759 H782 0.950 . S
C760 C759 1.349 . S
C760 C772 1.349 . S
C761 C759 1.327 . S
C761 C777 1.429 . S
C761 H783 0.950 . S
C762 H758 0.949 . S
C762 C770 1.574 . S
C762 C778 1.368 . S
H763 C771 0.950 . S
H764 C769 0.950 . S
H765 C770 0.949 . S
H766 C772 0.950 . S
H767 C773 0.950 . S
H768 C774 0.949 . S
C769 H764 0.950 . S
C769 C771 1.327 . S
C769 C775 1.429 . S
C770 C762 1.574 . S
C770 H765 0.949 . S
C770 C776 1.368 . S
C771 C755 1.349 . S
C771 H763 0.950 . S
C771 C769 1.327 . S
C772 C760 1.349 . S
C772 H766 0.950 . S
C772 C773 1.327 . S
C773 H767 0.950 . S
C773 C772 1.327 . S
C773 C777 1.429 . S
C774 C757 1.574 . S
C774 H768 0.949 . S
C774 C778 1.368 . S
C775 C756 1.429 . S
C775 C769 1.429 . S
C775 C776 1.523 . S
C776 C757 1.368 . S
C776 C770 1.368 . S
C776 C775 1.523 . S
C777 C761 1.429 . S
C777 C773 1.429 . S
C777 C778 1.523 . S
C778 C762 1.368 . S
C778 C774 1.368 . S
C778 C777 1.523 . S
H779 C754 0.950 . S
H780 C756 0.950 . S
H781 C757 0.949 . S
H782 C759 0.950 . S
H783 C761 0.950 . S
C784 C785 1.349 . S
C784 C786 1.327 . S
C784 H809 0.950 . S
C785 C784 1.349 . S
C785 C801 1.349 . S
C786 C784 1.327 . S
C786 C805 1.429 . S
C786 H810 0.950 . S
C787 C804 1.574 . S
C787 C806 1.368 . S
C787 H811 0.949 . S
H788 C792 0.949 . S
C789 C790 1.349 . S
C789 C791 1.327 . S
C789 H812 0.950 . S
C790 C789 1.349 . S
C790 C802 1.349 . S
C791 C789 1.327 . S
C791 C807 1.429 . S
C791 H813 0.950 . S
C792 H788 0.949 . S
C792 C800 1.574 . S
C792 C808 1.368 . S
H793 C801 0.950 . S
H794 C799 0.950 . S
H795 C800 0.949 . S
H796 C802 0.950 . S
H797 C803 0.950 . S
H798 C804 0.949 . S
C799 H794 0.950 . S
C799 C801 1.327 . S
C799 C805 1.429 . S
C800 C792 1.574 . S
C800 H795 0.949 . S
C800 C806 1.368 . S
C801 C785 1.349 . S
C801 H793 0.950 . S
C801 C799 1.327 . S
C802 C790 1.349 . S
C802 H796 0.950 . S
C802 C803 1.327 . S
C803 H797 0.950 . S
C803 C802 1.327 . S
C803 C807 1.429 . S
C804 C787 1.574 . S
C804 H798 0.949 . S
C804 C808 1.368 . S
C805 C786 1.429 . S
C805 C799 1.429 . S
C805 C806 1.523 . S
C806 C787 1.368 . S
C806 C800 1.368 . S
C806 C805 1.523 . S
C807 C791 1.429 . S
C807 C803 1.429 . S
C807 C808 1.523 . S
C808 C792 1.368 . S
C808 C804 1.368 . S
C808 C807 1.523 . S
H809 C784 0.950 . S
H810 C786 0.950 . S
H811 C787 0.949 . S
H812 C789 0.950 . S
H813 C791 0.950 . S
C814 C815 1.349 1_556 S
C814 C816 1.327 . S
C814 H839 0.950 . S
C815 C814 1.349 1_554 S
C815 C831 1.349 . S
C816 C814 1.327 . S
C816 C835 1.429 1_556 S
C816 H840 0.950 . S
C817 C834 1.574 . S
C817 C836 1.368 . S
C817 H841 0.949 . S
H818 C822 0.949 . S
C819 C820 1.349 . S
C819 C821 1.327 . S
C819 H842 0.950 . S
C820 C819 1.349 . S
C820 C832 1.349 1_554 S
C821 C819 1.327 . S
C821 C837 1.429 . S
C821 H843 0.950 . S
C822 H818 0.949 . S
C822 C830 1.574 . S
C822 C838 1.368 1_556 S
H823 C831 0.950 . S
H824 C829 0.950 . S
H825 C830 0.949 . S
H826 C832 0.950 . S
H827 C833 0.950 . S
H828 C834 0.949 . S
C829 H824 0.950 . S
C829 C831 1.327 . S
C829 C835 1.429 . S
C830 C822 1.574 . S
C830 H825 0.949 . S
C830 C836 1.368 1_556 S
C831 C815 1.349 . S
C831 H823 0.950 . S
C831 C829 1.327 . S
C832 C820 1.349 1_556 S
C832 H826 0.950 . S
C832 C833 1.327 . S
C833 H827 0.950 . S
C833 C832 1.327 . S
C833 C837 1.429 1_556 S
C834 C817 1.574 . S
C834 H828 0.949 . S
C834 C838 1.368 . S
C835 C816 1.429 1_554 S
C835 C829 1.429 . S
C835 C836 1.523 . S
C836 C817 1.368 . S
C836 C830 1.368 1_554 S
C836 C835 1.523 . S
C837 C821 1.429 . S
C837 C833 1.429 1_554 S
C837 C838 1.523 . S
C838 C822 1.368 1_554 S
C838 C834 1.368 . S
C838 C837 1.523 . S
H839 C814 0.950 . S
H840 C816 0.950 . S
H841 C817 0.949 . S
H842 C819 0.950 . S
H843 C821 0.950 . S
C844 C845 1.349 . S
C844 C846 1.327 . S
C844 H869 0.950 . S
C845 C844 1.349 . S
C845 C861 1.349 . S
C846 C844 1.327 . S
C846 C865 1.429 . S
C846 H870 0.950 . S
C847 C864 1.574 . S
C847 C866 1.368 . S
C847 H871 0.949 . S
H848 C852 0.949 . S
C849 C850 1.349 . S
C849 C851 1.327 . S
C849 H872 0.950 . S
C850 C849 1.349 . S
C850 C862 1.349 . S
C851 C849 1.327 . S
C851 C867 1.429 . S
C851 H873 0.950 . S
C852 H848 0.949 . S
C852 C860 1.574 . S
C852 C868 1.368 . S
H853 C861 0.950 . S
H854 C859 0.950 . S
H855 C860 0.949 . S
H856 C862 0.950 . S
H857 C863 0.950 . S
H858 C864 0.949 . S
C859 H854 0.950 . S
C859 C861 1.327 . S
C859 C865 1.429 . S
C860 C852 1.574 . S
C860 H855 0.949 . S
C860 C866 1.368 . S
C861 C845 1.349 . S
C861 H853 0.950 . S
C861 C859 1.327 . S
C862 C850 1.349 . S
C862 H856 0.950 . S
C862 C863 1.327 . S
C863 H857 0.950 . S
C863 C862 1.327 . S
C863 C867 1.429 . S
C864 C847 1.574 . S
C864 H858 0.949 . S
C864 C868 1.368 . S
C865 C846 1.429 . S
C865 C859 1.429 . S
C865 C866 1.523 . S
C866 C847 1.368 . S
C866 C860 1.368 . S
C866 C865 1.523 . S
C867 C851 1.429 . S
C867 C863 1.429 . S
C867 C868 1.523 . S
C868 C852 1.368 . S
C868 C864 1.368 . S
C868 C867 1.523 . S
H869 C844 0.950 . S
H870 C846 0.950 . S
H871 C847 0.949 . S
H872 C849 0.950 . S
H873 C851 0.950 . S
C874 C875 1.349 . S
C874 C876 1.327 . S
C874 H899 0.950 . S
C875 C874 1.349 . S
C875 C891 1.349 1_554 S
C876 C874 1.327 . S
C876 C895 1.429 . S
C876 H900 0.950 . S
C877 C894 1.574 . S
C877 C896 1.368 1_556 S
C877 H901 0.949 . S
H878 C882 0.949 . S
C879 C880 1.349 1_556 S
C879 C881 1.327 . S
C879 H902 0.950 . S
C880 C879 1.349 1_554 S
C880 C892 1.349 . S
C881 C879 1.327 . S
C881 C897 1.429 1_556 S
C881 H903 0.950 . S
C882 H878 0.949 . S
C882 C890 1.574 . S
C882 C898 1.368 . S
H883 C891 0.950 . S
H884 C889 0.950 . S
H885 C890 0.949 . S
H886 C892 0.950 . S
H887 C893 0.950 . S
H888 C894 0.949 . S
C889 H884 0.950 . S
C889 C891 1.327 . S
C889 C895 1.429 1_556 S
C890 C882 1.574 . S
C890 H885 0.949 . S
C890 C896 1.368 . S
C891 C875 1.349 1_556 S
C891 H883 0.950 . S
C891 C889 1.327 . S
C892 C880 1.349 . S
C892 H886 0.950 . S
C892 C893 1.327 . S
C893 H887 0.950 . S
C893 C892 1.327 . S
C893 C897 1.429 . S
C894 C877 1.574 . S
C894 H888 0.949 . S
C894 C898 1.368 1_556 S
C895 C876 1.429 . S
C895 C889 1.429 1_554 S
C895 C896 1.523 . S
C896 C877 1.368 1_554 S
C896 C890 1.368 . S
C896 C895 1.523 . S
C897 C881 1.429 1_554 S
C897 C893 1.429 . S
C897 C898 1.523 . S
C898 C882 1.368 . S
C898 C894 1.368 1_554 S
C898 C897 1.523 . S
H899 C874 0.950 . S
H900 C876 0.950 . S
H901 C877 0.949 . S
H902 C879 0.950 . S
H903 C881 0.950 . S
C185 C21 1.488 . S
C190 C130 1.493 . S
C215 C40 1.487 . S
C220 C94 1.482 . S
C250 C109 1.441 . S
C245 C54 1.462 . S
C275 C73 1.524 . S
C280 C121 1.507 . S
C310 C157 1.435 . S
C305 C74 1.454 . S
C340 C169 1.476 . S
C335 C10 1.504 . S
C370 C178 1.502 . S
C365 C37 1.498 . S
C400 C142 1.513 . S
C395 C65 1.507 . S
C425 C52 1.435 . S
C430 C106 1.432 . S
C455 C87 1.514 . S
C460 C118 1.509 . S
C485 C15 1.515 . S
C490 C133 1.503 . S
C520 C97 1.471 . S
C515 C32 1.493 . S
C545 C29 1.507 . S
C550 C181 1.496 . S
C580 C145 1.519 . S
C575 C59 1.532 . S
C610 C154 1.439 . S
C605 C84 1.443 . S
C635 C8 1.477 . S
C640 C166 1.464 . S
C670 C92 1.530 . S
C665 C7 1.533 . S
C700 C104 1.477 . S
C695 C30 1.483 . S
C725 C62 1.535 . S
C730 C116 1.528 . S
C755 C81 1.506 . S
C760 C128 1.511 . S
C790 C140 1.522 . S
C785 C76 1.535 . S
C815 C18 1.482 . S
C820 C152 1.477 . S
C845 C43 1.533 . S
C850 C164 1.535 . S
C875 C51 1.506 . S
C880 C176 1.512 . S
