# Generated by pormake.
# Topology pto, (3,4)-cn, num edge types: 1
# Building blocks:
#     Node 0, Type 0, BuildingBlock: BELTOD_clean_linker_0, # of connection points: 3
#     Node 1, Type 0, BuildingBlock: BELTOD_clean_linker_0, # of connection points: 3
#     Node 2, Type 0, BuildingBlock: BELTOD_clean_linker_0, # of connection points: 3
#     Node 3, Type 0, BuildingBlock: BELTOD_clean_linker_0, # of connection points: 3
#     Node 4, Type 0, BuildingBlock: BELTOD_clean_linker_0, # of connection points: 3
#     Node 5, Type 0, BuildingBlock: BELTOD_clean_linker_0, # of connection points: 3
#     Node 6, Type 0, BuildingBlock: BELTOD_clean_linker_0, # of connection points: 3
#     Node 7, Type 0, BuildingBlock: BELTOD_clean_linker_0, # of connection points: 3
#     Node 8, Type 1, BuildingBlock: KOZSID_clean_sbu_0, # of connection points: 4
#     Node 9, Type 1, BuildingBlock: KOZSID_clean_sbu_0, # of connection points: 4
#     Node 10, Type 1, BuildingBlock: KOZSID_clean_sbu_0, # of connection points: 4
#     Node 11, Type 1, BuildingBlock: KOZSID_clean_sbu_0, # of connection points: 4
#     Node 12, Type 1, BuildingBlock: KOZSID_clean_sbu_0, # of connection points: 4
#     Node 13, Type 1, BuildingBlock: KOZSID_clean_sbu_0, # of connection points: 4
#     Edge 14, Type (0, 1), BuildingBlock: UVAHIK_clean_linker_0, # of connection points: 2
#     Edge 15, Type (0, 1), BuildingBlock: UVAHIK_clean_linker_0, # of connection points: 2
#     Edge 16, Type (0, 1), BuildingBlock: UVAHIK_clean_linker_0, # of connection points: 2
#     Edge 17, Type (0, 1), BuildingBlock: UVAHIK_clean_linker_0, # of connection points: 2
#     Edge 18, Type (0, 1), BuildingBlock: UVAHIK_clean_linker_0, # of connection points: 2
#     Edge 19, Type (0, 1), BuildingBlock: UVAHIK_clean_linker_0, # of connection points: 2
#     Edge 20, Type (0, 1), BuildingBlock: UVAHIK_clean_linker_0, # of connection points: 2
#     Edge 21, Type (0, 1), BuildingBlock: UVAHIK_clean_linker_0, # of connection points: 2
#     Edge 22, Type (0, 1), BuildingBlock: UVAHIK_clean_linker_0, # of connection points: 2
#     Edge 23, Type (0, 1), BuildingBlock: UVAHIK_clean_linker_0, # of connection points: 2
#     Edge 24, Type (0, 1), BuildingBlock: UVAHIK_clean_linker_0, # of connection points: 2
#     Edge 25, Type (0, 1), BuildingBlock: UVAHIK_clean_linker_0, # of connection points: 2
#     Edge 26, Type (0, 1), BuildingBlock: UVAHIK_clean_linker_0, # of connection points: 2
#     Edge 27, Type (0, 1), BuildingBlock: UVAHIK_clean_linker_0, # of connection points: 2
#     Edge 28, Type (0, 1), BuildingBlock: UVAHIK_clean_linker_0, # of connection points: 2
#     Edge 29, Type (0, 1), BuildingBlock: UVAHIK_clean_linker_0, # of connection points: 2
#     Edge 30, Type (0, 1), BuildingBlock: UVAHIK_clean_linker_0, # of connection points: 2
#     Edge 31, Type (0, 1), BuildingBlock: UVAHIK_clean_linker_0, # of connection points: 2
#     Edge 32, Type (0, 1), BuildingBlock: UVAHIK_clean_linker_0, # of connection points: 2
#     Edge 33, Type (0, 1), BuildingBlock: UVAHIK_clean_linker_0, # of connection points: 2
#     Edge 34, Type (0, 1), BuildingBlock: UVAHIK_clean_linker_0, # of connection points: 2
#     Edge 35, Type (0, 1), BuildingBlock: UVAHIK_clean_linker_0, # of connection points: 2
#     Edge 36, Type (0, 1), BuildingBlock: UVAHIK_clean_linker_0, # of connection points: 2
#     Edge 37, Type (0, 1), BuildingBlock: UVAHIK_clean_linker_0, # of connection points: 2
# Relax obj value: 0.000
# Max RMSD: 0.024
# Mean RMSD: 0.009
data_MOF--net-pto--node1-KOZSID_clean_sbu_0--node2-BELTOD_clean_linker_0--edge1-UVAHIK_clean_linker_0
_symmetry_space_group_name_H-M    P1
_symmetry_Int_Tables_number       1
_symmetry_cell_setting            triclinic
loop_
_symmetry_equiv_pos_as_xyz
'x, y, z'
_cell_length_a     53.787894
_cell_length_b     72.990339
_cell_length_c     63.346056
_cell_angle_alpha  87.390817
_cell_angle_beta   89.725724
_cell_angle_gamma 94.569315
loop_
_atom_site_label
_atom_site_type_symbol
_atom_site_fract_x
_atom_site_fract_y
_atom_site_fract_z
_atom_type_partial_charge
P0 P 0.31449 0.27926 0.33835 0.0
H1 H 0.36401 0.28714 0.31909 0.0
H2 H 0.38008 0.28366 0.28354 0.0
H3 H 0.30649 0.26342 0.26385 0.0
H4 H 0.29046 0.2673 0.29949 0.0
H5 H 0.31933 0.31837 0.34677 0.0
H6 H 0.2893 0.34176 0.34722 0.0
H7 H 0.23082 0.30132 0.32969 0.0
H8 H 0.26117 0.27815 0.32874 0.0
H9 H 0.32105 0.24109 0.3281 0.0
H10 H 0.27861 0.26936 0.37253 0.0
O11 O 0.33808 0.28561 0.35414 0.0
H12 H 0.304 0.21154 0.34371 0.0
H13 H 0.26109 0.23982 0.38799 0.0
C14 C 0.32606 0.27741 0.31191 0.0
C15 C 0.3513 0.28202 0.30713 0.0
C16 C 0.3605 0.27991 0.2868 0.0
C17 C 0.34461 0.27314 0.27087 0.0
C18 C 0.31918 0.26883 0.27568 0.0
C19 C 0.31 0.27097 0.29604 0.0
C20 C 0.29233 0.29647 0.33817 0.0
C21 C 0.30003 0.31455 0.34306 0.0
C22 C 0.28281 0.32789 0.3434 0.0
C23 C 0.25757 0.32339 0.33873 0.0
C24 C 0.25011 0.3053 0.33325 0.0
C25 C 0.2674 0.292 0.33285 0.0
C26 C 0.30056 0.25744 0.34877 0.0
C27 C 0.30767 0.24096 0.34093 0.0
C28 C 0.29786 0.22404 0.34987 0.0
C29 C 0.28103 0.2233 0.36701 0.0
C30 C 0.2741 0.23989 0.37488 0.0
C31 C 0.28393 0.2568 0.36593 0.0
P32 P 0.29005 0.75231 0.69264 0.0
H33 H 0.27782 0.72427 0.66212 0.0
H34 H 0.24387 0.70012 0.66017 0.0
H35 H 0.21161 0.71853 0.71735 0.0
H36 H 0.24538 0.74293 0.71887 0.0
H37 H 0.30997 0.77463 0.65598 0.0
H38 H 0.29868 0.8035 0.63928 0.0
H39 H 0.23943 0.80558 0.68525 0.0
H40 H 0.25127 0.77671 0.7022 0.0
H41 H 0.29389 0.72584 0.72803 0.0
H42 H 0.30768 0.78447 0.71643 0.0
O43 O 0.31455 0.7453 0.6799 0.0
H44 H 0.30899 0.72872 0.7641 0.0
H45 H 0.3233 0.78743 0.75238 0.0
C46 C 0.26438 0.73509 0.69089 0.0
C47 C 0.26343 0.7231 0.67423 0.0
C48 C 0.24405 0.70925 0.67318 0.0
C49 C 0.22516 0.70723 0.68875 0.0
C50 C 0.22576 0.71974 0.70505 0.0
C51 C 0.24515 0.73361 0.70603 0.0
C52 C 0.28143 0.77355 0.68031 0.0
C53 C 0.29454 0.78126 0.66249 0.0
C54 C 0.28794 0.79774 0.65285 0.0
C55 C 0.26805 0.80682 0.66086 0.0
C56 C 0.25497 0.79902 0.6788 0.0
C57 C 0.26159 0.78248 0.68842 0.0
C58 C 0.29906 0.75498 0.71972 0.0
C59 C 0.29986 0.73938 0.73335 0.0
C60 C 0.30873 0.74103 0.7539 0.0
C61 C 0.31735 0.75831 0.76114 0.0
C62 C 0.31642 0.77396 0.74743 0.0
C63 C 0.30751 0.77228 0.72684 0.0
P64 P 0.81287 0.77583 0.28383 0.0
H65 H 0.84621 0.79679 0.31151 0.0
H66 H 0.8389 0.81744 0.3398 0.0
H67 H 0.75937 0.80573 0.33308 0.0
H68 H 0.76688 0.78518 0.30464 0.0
H69 H 0.82462 0.7444 0.26039 0.0
H70 H 0.83653 0.71376 0.2711 0.0
H71 H 0.82761 0.72605 0.33667 0.0
H72 H 0.81581 0.75674 0.32582 0.0
H73 H 0.79647 0.80416 0.25476 0.0
H74 H 0.77211 0.74812 0.2738 0.0
O75 O 0.83815 0.78531 0.27093 0.0
H76 H 0.76205 0.805 0.22985 0.0
H77 H 0.73828 0.74851 0.24828 0.0
C78 C 0.8071 0.78983 0.3057 0.0
C79 C 0.82721 0.79864 0.31618 0.0
C80 C 0.823 0.81032 0.33246 0.0
C81 C 0.79854 0.81334 0.33857 0.0
C82 C 0.77841 0.80393 0.32849 0.0
C83 C 0.78268 0.79216 0.31226 0.0
C84 C 0.81926 0.75281 0.29227 0.0
C85 C 0.82495 0.74041 0.27706 0.0
C86 C 0.83163 0.72287 0.28321 0.0
C87 C 0.83297 0.71746 0.30475 0.0
C88 C 0.82692 0.72987 0.31997 0.0
C89 C 0.82007 0.7474 0.31377 0.0
C90 C 0.78718 0.77597 0.26574 0.0
C91 C 0.78383 0.79197 0.25339 0.0
C92 C 0.7642 0.79238 0.23907 0.0
C93 C 0.74752 0.77674 0.23681 0.0
C94 C 0.75065 0.76084 0.24965 0.0
C95 C 0.7702 0.76052 0.26411 0.0
P96 P 0.80285 0.2393 0.78564 0.0
H97 H 0.77244 0.21192 0.81074 0.0
H98 H 0.73439 0.21311 0.83155 0.0
H99 H 0.72948 0.26963 0.80942 0.0
H100 H 0.76803 0.26844 0.78914 0.0
H101 H 0.83374 0.21044 0.77334 0.0
H102 H 0.83044 0.18859 0.74551 0.0
H103 H 0.76377 0.2123 0.7228 0.0
H104 H 0.7664 0.23334 0.7518 0.0
H105 H 0.83962 0.26596 0.8029 0.0
H106 H 0.79382 0.26219 0.74732 0.0
O107 O 0.82228 0.23132 0.8037 0.0
H108 H 0.85798 0.296 0.78985 0.0
H109 H 0.81235 0.29223 0.73402 0.0
C110 C 0.77317 0.24011 0.7986 0.0
C111 C 0.76302 0.22452 0.81025 0.0
C112 C 0.74114 0.22519 0.82203 0.0
C113 C 0.72886 0.2415 0.82227 0.0
C114 C 0.73866 0.25694 0.80988 0.0
C115 C 0.76066 0.25625 0.79815 0.0
C116 C 0.80024 0.22343 0.7647 0.0
C117 C 0.81831 0.21086 0.76247 0.0
C118 C 0.81654 0.19848 0.7463 0.0
C119 C 0.79692 0.19867 0.73166 0.0
C120 C 0.77894 0.2115 0.73388 0.0
C121 C 0.78052 0.22368 0.75035 0.0
C122 C 0.81575 0.26163 0.77587 0.0
C123 C 0.83363 0.27152 0.7878 0.0
C124 C 0.84417 0.28868 0.78029 0.0
C125 C 0.83684 0.29639 0.76077 0.0
C126 C 0.81837 0.28666 0.74912 0.0
C127 C 0.8079 0.26941 0.75663 0.0
P128 P 0.79927 0.7758 0.77161 0.0
H129 H 0.79332 0.7601 0.81449 0.0
H130 H 0.75823 0.75689 0.83938 0.0
H131 H 0.71162 0.7811 0.79206 0.0
H132 H 0.74696 0.7845 0.76737 0.0
H133 H 0.84275 0.76322 0.75116 0.0
H134 H 0.85118 0.73412 0.73608 0.0
H135 H 0.77494 0.71313 0.74902 0.0
H136 H 0.7668 0.74224 0.7644 0.0
H137 H 0.80861 0.8155 0.77263 0.0
H138 H 0.78078 0.77613 0.728 0.0
O139 O 0.82448 0.78169 0.7858 0.0
H140 H 0.80409 0.84056 0.7464 0.0
H141 H 0.77574 0.80115 0.70171 0.0
C142 C 0.77287 0.77291 0.78931 0.0
C143 C 0.77554 0.76473 0.80951 0.0
C144 C 0.7554 0.76277 0.82365 0.0
C145 C 0.73215 0.76885 0.81775 0.0
C146 C 0.72939 0.77657 0.79721 0.0
C147 C 0.74957 0.7785 0.78307 0.0
C148 C 0.80437 0.7547 0.75931 0.0
C149 C 0.82785 0.75236 0.75069 0.0
C150 C 0.83256 0.73577 0.74189 0.0
C151 C 0.81375 0.72125 0.74145 0.0
C152 C 0.78992 0.72393 0.74943 0.0
C153 C 0.78524 0.74057 0.75821 0.0
C154 C 0.79556 0.79399 0.75208 0.0
C155 C 0.80155 0.81227 0.75715 0.0
C156 C 0.79873 0.82658 0.74219 0.0
C157 C 0.78964 0.82285 0.72191 0.0
C158 C 0.78319 0.80446 0.71705 0.0
C159 C 0.78602 0.79015 0.73207 0.0
P160 P 0.82088 0.2403 0.28049 0.0
H161 H 0.87005 0.26009 0.28222 0.0
H162 H 0.88482 0.28946 0.29638 0.0
H163 H 0.81008 0.29692 0.31795 0.0
H164 H 0.79534 0.26751 0.30332 0.0
H165 H 0.85044 0.2099 0.29356 0.0
H166 H 0.84512 0.18597 0.32173 0.0
H167 H 0.77843 0.20928 0.3429 0.0
H168 H 0.78364 0.233 0.31424 0.0
H169 H 0.79948 0.27062 0.25681 0.0
H170 H 0.7802 0.21292 0.27137 0.0
O171 O 0.84217 0.23442 0.26334 0.0
H172 H 0.7626 0.27188 0.23457 0.0
H173 H 0.74317 0.21412 0.24933 0.0
C174 C 0.83153 0.26183 0.29136 0.0
C175 C 0.85681 0.26805 0.28994 0.0
C176 C 0.86528 0.28479 0.29824 0.0
C177 C 0.84862 0.29556 0.30828 0.0
C178 C 0.82331 0.28906 0.31006 0.0
C179 C 0.81488 0.27226 0.30178 0.0
C180 C 0.81724 0.22304 0.30168 0.0
C181 C 0.83465 0.20986 0.30423 0.0
C182 C 0.83169 0.19626 0.32047 0.0
C183 C 0.81131 0.19568 0.33456 0.0
C184 C 0.79412 0.20917 0.33214 0.0
C185 C 0.79714 0.22279 0.31586 0.0
C186 C 0.7922 0.2418 0.26624 0.0
C187 C 0.787 0.25832 0.25564 0.0
C188 C 0.7659 0.25903 0.24291 0.0
C189 C 0.74991 0.24311 0.24026 0.0
C190 C 0.75519 0.22659 0.25098 0.0
C191 C 0.77622 0.22593 0.26375 0.0
P192 P 0.29266 0.29011 0.70099 0.0
H193 H 0.31436 0.27043 0.66724 0.0
H194 H 0.30279 0.24087 0.65202 0.0
H195 H 0.239 0.23268 0.69402 0.0
H196 H 0.25094 0.26235 0.70951 0.0
H197 H 0.28997 0.32488 0.72084 0.0
H198 H 0.25875 0.34732 0.72079 0.0
H199 H 0.21044 0.31185 0.68306 0.0
H200 H 0.2424 0.29009 0.68216 0.0
H201 H 0.34103 0.28064 0.71643 0.0
H202 H 0.26818 0.28665 0.74268 0.0
O203 O 0.31618 0.30096 0.68693 0.0
H204 H 0.35647 0.27289 0.75167 0.0
H205 H 0.28345 0.27879 0.77806 0.0
C206 C 0.2832 0.26873 0.68919 0.0
C207 C 0.2978 0.26238 0.67312 0.0
C208 C 0.29127 0.24541 0.66453 0.0
C209 C 0.26998 0.23452 0.67183 0.0
C210 C 0.25536 0.24091 0.68797 0.0
C211 C 0.26214 0.2578 0.69679 0.0
C212 C 0.26834 0.30564 0.70191 0.0
C213 C 0.27256 0.32191 0.71268 0.0
C214 C 0.25457 0.33469 0.71274 0.0
C215 C 0.23188 0.3314 0.70205 0.0
C216 C 0.22774 0.31498 0.69128 0.0
C217 C 0.24593 0.30233 0.69102 0.0
C218 C 0.30369 0.28468 0.72707 0.0
C219 C 0.3284 0.28038 0.72982 0.0
C220 C 0.33713 0.27579 0.74995 0.0
C221 C 0.3212 0.27531 0.76767 0.0
C222 C 0.29626 0.27933 0.76476 0.0
C223 C 0.28752 0.28382 0.74457 0.0
P224 P 0.30348 0.75203 0.32958 0.0
H225 H 0.35371 0.75872 0.31162 0.0
H226 H 0.36918 0.76555 0.27571 0.0
H227 H 0.2933 0.76682 0.25367 0.0
H228 H 0.27802 0.75909 0.28967 0.0
H229 H 0.2947 0.75801 0.37383 0.0
H230 H 0.28041 0.78382 0.39248 0.0
H231 H 0.27576 0.81475 0.33298 0.0
H232 H 0.2894 0.78869 0.31443 0.0
H233 H 0.30206 0.71564 0.31289 0.0
H234 H 0.2508 0.74847 0.34383 0.0
O235 O 0.3266 0.74372 0.3436 0.0
H236 H 0.26997 0.68993 0.31287 0.0
H237 H 0.21868 0.72289 0.3438 0.0
C238 C 0.31474 0.75819 0.30322 0.0
C239 C 0.3404 0.76044 0.29906 0.0
C240 C 0.34923 0.76454 0.27848 0.0
C241 C 0.33252 0.76675 0.26168 0.0
C242 C 0.30673 0.7649 0.26609 0.0
C243 C 0.29794 0.7606 0.28668 0.0
C244 C 0.29346 0.77151 0.34281 0.0
C245 C 0.2907 0.77039 0.36483 0.0
C246 C 0.2826 0.78519 0.37547 0.0
C247 C 0.27711 0.80143 0.36425 0.0
C248 C 0.27961 0.8024 0.34209 0.0
C249 C 0.28763 0.78752 0.33145 0.0
C250 C 0.2789 0.7339 0.32846 0.0
C251 C 0.28384 0.71735 0.31953 0.0
C252 C 0.26546 0.70271 0.31944 0.0
C253 C 0.24182 0.70437 0.32841 0.0
C254 C 0.23682 0.72112 0.33703 0.0
C255 C 0.25519 0.73579 0.33699 0.0
C256 C 0.05875 0.53546 0.36043 0.0
C257 C 0.067 0.5418 0.37973 0.0
C258 C 0.05354 0.53157 0.39499 0.0
C259 C 0.03784 0.51967 0.38422 0.0
N260 N 0.04053 0.52157 0.36296 0.0
Co261 Co 0.02092 0.5074 0.34131 0.0
N262 N 0.00015 0.49312 0.36381 0.0
C263 C 0.00142 0.49508 0.38492 0.0
C264 C 0.98487 0.48327 0.39639 0.0
C265 C 0.97239 0.47301 0.38176 0.0
C266 C 0.98218 0.47916 0.36215 0.0
N267 N 0.00154 0.49305 0.31965 0.0
C268 C 0.98358 0.47899 0.32222 0.0
C269 C 0.97573 0.47233 0.30295 0.0
C270 C 0.98923 0.4825 0.28767 0.0
C271 C 0.00457 0.49467 0.2984 0.0
N272 N 0.04147 0.52184 0.31877 0.0
C273 C 0.03975 0.52021 0.29761 0.0
C274 C 0.05611 0.53213 0.28613 0.0
C275 C 0.06889 0.54216 0.30077 0.0
C276 C 0.05945 0.53579 0.32044 0.0
N277 N 0.04543 0.4884 0.34267 0.0
C278 C 0.07939 0.46083 0.34435 0.0
C279 C 0.0721 0.46863 0.32504 0.0
C280 C 0.05528 0.48222 0.32457 0.0
C281 C 0.06957 0.46723 0.36285 0.0
C282 C 0.05278 0.48092 0.36165 0.0
N283 N 0.99647 0.52643 0.33991 0.0
C284 C 0.97214 0.54703 0.3192 0.0
C285 C 0.96456 0.5553 0.33734 0.0
C286 C 0.97255 0.54844 0.3569 0.0
C287 C 0.98834 0.53409 0.35781 0.0
C288 C 0.98789 0.53277 0.32083 0.0
H289 H 0.99402 0.52965 0.37315 0.0
H290 H 0.99309 0.52726 0.30637 0.0
H291 H 0.05052 0.48748 0.30934 0.0
H292 H 0.04586 0.48512 0.3763 0.0
C293 C 0.01934 0.50739 0.39356 0.0
C294 C 0.06798 0.54363 0.34015 0.0
C295 C 0.97419 0.47097 0.34251 0.0
C296 C 0.02243 0.50744 0.28898 0.0
H297 H 0.08093 0.55293 0.38252 0.0
H298 H 0.05461 0.53297 0.41191 0.0
H299 H 0.98254 0.48201 0.41339 0.0
H300 H 0.95795 0.46206 0.38514 0.0
H301 H 0.96198 0.46107 0.30019 0.0
H302 H 0.98831 0.48097 0.27077 0.0
H303 H 0.05834 0.53347 0.26912 0.0
H304 H 0.08342 0.55304 0.29735 0.0
H305 H 0.0795 0.4644 0.31026 0.0
H306 H 0.07446 0.46152 0.37821 0.0
H307 H 0.966 0.55156 0.3037 0.0
H308 H 0.96723 0.55441 0.37143 0.0
C309 C 0.03317 0.54481 0.71609 0.0
C310 C 0.04341 0.55129 0.73468 0.0
C311 C 0.03172 0.54102 0.75088 0.0
C312 C 0.01518 0.52884 0.74132 0.0
N313 N 0.01562 0.53065 0.71995 0.0
Co314 Co 0.99499 0.51552 0.69979 0.0
N315 N 0.9776 0.50061 0.72371 0.0
C316 C 0.98049 0.50297 0.74465 0.0
C317 C 0.96616 0.49046 0.75722 0.0
C318 C 0.95363 0.47925 0.74352 0.0
C319 C 0.96121 0.48556 0.72331 0.0
N320 N 0.97462 0.50014 0.67967 0.0
C321 C 0.95892 0.48486 0.68354 0.0
C322 C 0.94959 0.4777 0.66499 0.0
C323 C 0.95993 0.48875 0.64878 0.0
C324 C 0.97498 0.50192 0.65832 0.0
N325 N 0.01218 0.53059 0.67587 0.0
C326 C 0.00798 0.52899 0.65496 0.0
C327 C 0.02218 0.54153 0.64233 0.0
C328 C 0.03625 0.55184 0.65597 0.0
C329 C 0.02984 0.54491 0.67621 0.0
N330 N 0.02105 0.49779 0.6993 0.0
C331 C 0.05665 0.47142 0.69873 0.0
C332 C 0.04784 0.47927 0.67994 0.0
C333 C 0.03011 0.49223 0.68058 0.0
C334 C 0.04749 0.47723 0.7178 0.0
C335 C 0.03005 0.4904 0.71771 0.0
N336 N 0.9688 0.53329 0.7003 0.0
C337 C 0.94007 0.5524 0.68215 0.0
C338 C 0.93284 0.55933 0.70121 0.0
C339 C 0.9437 0.5529 0.71978 0.0
C340 C 0.96152 0.54008 0.71896 0.0
C341 C 0.9578 0.53938 0.68207 0.0
H342 H 0.9693 0.5361 0.73366 0.0
H343 H 0.96236 0.53458 0.66707 0.0
H344 H 0.0239 0.49749 0.66573 0.0
H345 H 0.02391 0.49422 0.73277 0.0
C346 C 0.99843 0.51599 0.75201 0.0
C347 C 0.04065 0.55267 0.69523 0.0
C348 C 0.95339 0.47617 0.70437 0.0
C349 C 0.99071 0.51547 0.64767 0.0
H350 H 0.05775 0.56238 0.73638 0.0
H351 H 0.03475 0.54238 0.76763 0.0
H352 H 0.96557 0.48924 0.77431 0.0
H353 H 0.9409 0.46744 0.74789 0.0
H354 H 0.93707 0.4655 0.66331 0.0
H355 H 0.95736 0.48706 0.63202 0.0
H356 H 0.02223 0.54304 0.62525 0.0
H357 H 0.04958 0.56327 0.6515 0.0
H358 H 0.05461 0.47554 0.66472 0.0
H359 H 0.05333 0.47144 0.73283 0.0
H360 H 0.932 0.55691 0.66736 0.0
H361 H 0.93896 0.55809 0.73492 0.0
C362 C 0.2528 0.99262 0.55166 0.0
C363 C 0.27583 0.98926 0.56011 0.0
C364 C 0.29324 0.00011 0.54853 0.0
C365 C 0.27987 0.00945 0.53379 0.0
N366 N 0.25492 0.00546 0.53552 0.0
Co367 Co 0.22844 0.0154 0.51713 0.0
N368 N 0.25413 0.02896 0.49796 0.0
C369 C 0.27922 0.02865 0.49917 0.0
C370 C 0.29194 0.03958 0.48387 0.0
C371 C 0.27394 0.04757 0.47242 0.0
C372 C 0.25122 0.04106 0.4815 0.0
N373 N 0.20197 0.02584 0.49909 0.0
C374 C 0.20416 0.03876 0.48299 0.0
C375 C 0.18107 0.04322 0.4756 0.0
C376 C 0.16359 0.03295 0.48772 0.0
C377 C 0.17698 0.02291 0.50178 0.0
N378 N 0.2028 0.00129 0.53594 0.0
C379 C 0.17771 0.00089 0.53417 0.0
C380 C 0.16505 0.98886 0.54845 0.0
C381 C 0.18314 0.98076 0.5597 0.0
C382 C 0.20583 0.98841 0.55161 0.0
N383 N 0.22819 0.03712 0.53495 0.0
C384 C 0.22792 0.06923 0.55795 0.0
C385 C 0.206 0.05804 0.55528 0.0
C386 C 0.20651 0.04222 0.54365 0.0
C387 C 0.25 0.06389 0.54942 0.0
C388 C 0.24977 0.04786 0.53827 0.0
N389 N 0.22872 0.99372 0.49936 0.0
C390 C 0.20694 0.96908 0.48079 0.0
C391 C 0.22936 0.9614 0.47675 0.0
C392 C 0.25145 0.97047 0.48366 0.0
C393 C 0.25071 0.98646 0.49476 0.0
C394 C 0.20704 0.98513 0.49207 0.0
H395 H 0.26821 0.99255 0.49969 0.0
H396 H 0.18935 0.99017 0.495 0.0
H397 H 0.1891 0.03449 0.54171 0.0
H398 H 0.2673 0.0446 0.53233 0.0
C399 C 0.29026 0.01986 0.51638 0.0
C400 C 0.22971 0.98216 0.55826 0.0
C401 C 0.22761 0.04794 0.4751 0.0
C402 C 0.16671 0.01121 0.51818 0.0
H403 H 0.27966 0.97943 0.57275 0.0
H404 H 0.31332 0.00037 0.54994 0.0
H405 H 0.31194 0.04213 0.48192 0.0
H406 H 0.27716 0.0576 0.45938 0.0
H407 H 0.1773 0.05319 0.46309 0.0
H408 H 0.14353 0.03318 0.48679 0.0
H409 H 0.14507 0.98587 0.55 0.0
H410 H 0.18002 0.97005 0.57203 0.0
H411 H 0.18845 0.06171 0.56167 0.0
H412 H 0.26752 0.07201 0.55144 0.0
H413 H 0.18933 0.9625 0.47576 0.0
H414 H 0.26935 0.96527 0.48051 0.0
C415 C 0.46421 0.79346 0.04761 0.0
C416 C 0.45731 0.81085 0.05187 0.0
C417 C 0.47155 0.82306 0.03905 0.0
C418 C 0.48616 0.81247 0.02767 0.0
N419 N 0.48192 0.79419 0.03222 0.0
Co420 Co 0.49918 0.77387 0.01955 0.0
N421 N 0.52163 0.79196 0.002 0.0
C422 C 0.52173 0.81053 0.00136 0.0
C423 C 0.53892 0.81928 0.98755 0.0
C424 C 0.55047 0.8055 0.97872 0.0
C425 C 0.53964 0.78906 0.98776 0.0
N426 N 0.51643 0.75354 0.00686 0.0
C427 C 0.53483 0.75429 0.99207 0.0
C428 C 0.54143 0.73687 0.98758 0.0
C429 C 0.52646 0.72464 0.99977 0.0
C430 C 0.51171 0.73523 0.011 0.0
N431 N 0.47678 0.7558 0.03717 0.0
C432 C 0.47646 0.73721 0.03759 0.0
C433 C 0.45995 0.72848 0.05197 0.0
C434 C 0.44922 0.74227 0.06151 0.0
C435 C 0.45974 0.75873 0.05225 0.0
N436 N 0.47461 0.77286 0.99618 0.0
C437 C 0.44297 0.771 0.96079 0.0
C438 C 0.4481 0.75511 0.97256 0.0
C439 C 0.46377 0.75635 0.99001 0.0
C440 C 0.45321 0.78791 0.96754 0.0
C441 C 0.46875 0.78852 0.98516 0.0
N442 N 0.5238 0.77487 0.04281 0.0
C443 C 0.54721 0.75949 0.06984 0.0
C444 C 0.55863 0.77626 0.07591 0.0
C445 C 0.55231 0.79234 0.06515 0.0
C446 C 0.5349 0.79135 0.04886 0.0
C447 C 0.5301 0.75911 0.05334 0.0
H448 H 0.53066 0.80409 0.04144 0.0
H449 H 0.52226 0.74588 0.04938 0.0
H450 H 0.46708 0.74369 0.99806 0.0
H451 H 0.47612 0.8018 0.98928 0.0
C452 C 0.50489 0.81933 0.01344 0.0
C453 C 0.45393 0.77676 0.05906 0.0
C454 C 0.54649 0.77108 0.98172 0.0
C455 C 0.49302 0.72839 0.02526 0.0
H456 H 0.44368 0.81436 0.06332 0.0
H457 H 0.47162 0.83791 0.03843 0.0
H458 H 0.54237 0.83392 0.98408 0.0
H459 H 0.56497 0.80735 0.96674 0.0
H460 H 0.55553 0.73335 0.97655 0.0
H461 H 0.52623 0.70978 0.00027 0.0
H462 H 0.45668 0.71384 0.05555 0.0
H463 H 0.43566 0.74033 0.07424 0.0
H464 H 0.44015 0.74169 0.9683 0.0
H465 H 0.4499 0.80064 0.95893 0.0
H466 H 0.55174 0.74665 0.07757 0.0
H467 H 0.56051 0.80568 0.06946 0.0
C468 C 0.80839 0.98447 0.5624 0.0
C469 C 0.8312 0.98034 0.57078 0.0
C470 C 0.84909 0.99097 0.55955 0.0
C471 C 0.83626 0.00103 0.54512 0.0
N472 N 0.81121 0.99753 0.54649 0.0
Co473 Co 0.78552 0.00954 0.529 0.0
N474 N 0.81197 0.02376 0.51106 0.0
C475 C 0.83694 0.02283 0.51251 0.0
C476 C 0.85041 0.03413 0.49804 0.0
C477 C 0.83305 0.04285 0.48664 0.0
C478 C 0.80986 0.03631 0.49486 0.0
N479 N 0.75985 0.02209 0.51204 0.0
C480 C 0.76272 0.03534 0.49631 0.0
C481 C 0.73992 0.04079 0.4893 0.0
C482 C 0.72199 0.03081 0.50119 0.0
C483 C 0.73481 0.01987 0.51471 0.0
N484 N 0.75907 0.9947 0.54635 0.0
C485 C 0.73407 0.99483 0.54411 0.0
C486 C 0.72061 0.98245 0.55745 0.0
C487 C 0.73801 0.9737 0.56876 0.0
C488 C 0.7612 0.9814 0.56174 0.0
N489 N 0.78611 0.02969 0.54915 0.0
C490 C 0.78697 0.05834 0.57779 0.0
C491 C 0.76487 0.04772 0.57368 0.0
C492 C 0.76481 0.03375 0.55932 0.0
C493 C 0.8086 0.05435 0.56714 0.0
C494 C 0.80781 0.04002 0.55324 0.0
N495 N 0.78494 0.98941 0.50894 0.0
C496 C 0.76213 0.9677 0.48703 0.0
C497 C 0.78405 0.95982 0.48176 0.0
C498 C 0.80645 0.96721 0.49011 0.0
C499 C 0.80648 0.98186 0.50354 0.0
C500 C 0.763 0.98238 0.50048 0.0
H501 H 0.82416 0.98679 0.50942 0.0
H502 H 0.74565 0.98769 0.50396 0.0
H503 H 0.74726 0.02642 0.55677 0.0
H504 H 0.82505 0.03766 0.54597 0.0
C505 C 0.84722 0.01252 0.52888 0.0
C506 C 0.78466 0.97531 0.5698 0.0
C507 C 0.78653 0.04316 0.4875 0.0
C508 C 0.72384 0.00696 0.52955 0.0
H509 H 0.83457 0.97045 0.58349 0.0
H510 H 0.8691 0.991 0.56132 0.0
H511 H 0.87049 0.03621 0.49641 0.0
H512 H 0.83708 0.05319 0.47405 0.0
H513 H 0.73659 0.05094 0.47685 0.0
H514 H 0.702 0.0314 0.50007 0.0
H515 H 0.70053 0.97999 0.55868 0.0
H516 H 0.73404 0.96277 0.5807 0.0
H517 H 0.7476 0.04994 0.58168 0.0
H518 H 0.82617 0.06232 0.5693 0.0
H519 H 0.74424 0.96238 0.48112 0.0
H520 H 0.82402 0.96184 0.48621 0.0
C521 C 0.46692 0.27032 0.05583 0.0
C522 C 0.46209 0.28783 0.0616 0.0
C523 C 0.47653 0.29996 0.04887 0.0
C524 C 0.48938 0.28925 0.03616 0.0
N525 N 0.48377 0.27096 0.03976 0.0
Co526 Co 0.49924 0.25044 0.02576 0.0
N527 N 0.52212 0.26831 0.00836 0.0
C528 C 0.52342 0.2869 0.00853 0.0
C529 C 0.54084 0.2955 0.99482 0.0
C530 C 0.55116 0.28161 0.98511 0.0
C531 C 0.53926 0.26525 0.99343 0.0
N532 N 0.5149 0.2299 0.01195 0.0
C533 C 0.53276 0.23048 0.99668 0.0
C534 C 0.53773 0.21294 0.99112 0.0
C535 C 0.52254 0.20085 0.00331 0.0
C536 C 0.50913 0.21162 0.01551 0.0
N537 N 0.47623 0.23258 0.04304 0.0
C538 C 0.47422 0.21402 0.04234 0.0
C539 C 0.45711 0.20547 0.05638 0.0
C540 C 0.44785 0.21936 0.06691 0.0
C541 C 0.46 0.23564 0.05868 0.0
N542 N 0.47411 0.25099 0.00286 0.0
C543 C 0.44185 0.25174 0.96791 0.0
C544 C 0.4471 0.2351 0.97799 0.0
C545 C 0.46304 0.23505 0.99533 0.0
C546 C 0.45228 0.26802 0.97611 0.0
C547 C 0.46817 0.26733 0.99345 0.0
N548 N 0.52439 0.24988 0.04857 0.0
C549 C 0.54656 0.23295 0.07516 0.0
C550 C 0.55938 0.24914 0.08151 0.0
C551 C 0.55445 0.2657 0.07104 0.0
C552 C 0.53699 0.26575 0.05481 0.0
C553 C 0.52937 0.23362 0.05874 0.0
H554 H 0.53391 0.27884 0.04764 0.0
H555 H 0.52031 0.2208 0.05459 0.0
H556 H 0.46636 0.22191 0.00214 0.0
H557 H 0.47578 0.28023 0.99864 0.0
C558 C 0.50788 0.29591 0.02162 0.0
C559 C 0.45622 0.25354 0.06686 0.0
C560 C 0.54472 0.24723 0.98639 0.0
C561 C 0.49006 0.20499 0.02955 0.0
H562 H 0.4499 0.29149 0.0741 0.0
H563 H 0.47807 0.31482 0.04928 0.0
H564 H 0.54539 0.31014 0.99211 0.0
H565 H 0.5657 0.28334 0.97316 0.0
H566 H 0.55062 0.20921 0.97919 0.0
H567 H 0.52103 0.18599 0.00295 0.0
H568 H 0.45249 0.19084 0.0591 0.0
H569 H 0.43414 0.21771 0.07955 0.0
H570 H 0.43907 0.22211 0.97248 0.0
H571 H 0.4489 0.28128 0.96879 0.0
H572 H 0.55 0.21975 0.08263 0.0
H573 H 0.56372 0.27863 0.07556 0.0
C574 C 0.24021 0.34998 0.35607 0.0
C575 C 0.23908 0.33744 0.33982 0.0
C576 C 0.22277 0.36311 0.35722 0.0
C577 C 0.15976 0.37312 0.33984 0.0
H578 H 0.18182 0.42338 0.35204 0.0
C579 C 0.09542 0.43241 0.33012 0.0
C580 C 0.09705 0.44613 0.34504 0.0
C581 C 0.11242 0.4189 0.33028 0.0
C582 C 0.17528 0.40935 0.34891 0.0
H583 H 0.21885 0.3291 0.31184 0.0
H584 H 0.18833 0.35195 0.31393 0.0
H585 H 0.21218 0.40037 0.35066 0.0
H586 H 0.11782 0.45631 0.37194 0.0
H587 H 0.14716 0.43246 0.37253 0.0
H588 H 0.12287 0.38205 0.33812 0.0
C589 C 0.20256 0.35145 0.32594 0.0
C590 C 0.1927 0.39617 0.34809 0.0
C591 C 0.22005 0.33835 0.32475 0.0
C592 C 0.1159 0.44586 0.36033 0.0
C593 C 0.13291 0.43232 0.3605 0.0
C594 C 0.14233 0.38627 0.34074 0.0
C595 C 0.20373 0.36398 0.34219 0.0
C596 C 0.18516 0.37793 0.34342 0.0
C597 C 0.13145 0.41873 0.34541 0.0
C598 C 0.14989 0.40458 0.34516 0.0
H599 H 0.25434 0.34946 0.36816 0.0
H600 H 0.22397 0.3724 0.3701 0.0
H601 H 0.1533 0.35911 0.33655 0.0
H602 H 0.08093 0.43205 0.3183 0.0
H603 H 0.11088 0.40878 0.31828 0.0
C604 C 0.18048 0.69453 0.6935 0.0
C605 C 0.20533 0.69184 0.68828 0.0
C606 C 0.16203 0.6799 0.69346 0.0
C607 C 0.14791 0.63373 0.67263 0.0
H608 H 0.09997 0.62741 0.71881 0.0
C609 C 0.08353 0.56712 0.68701 0.0
C610 C 0.05893 0.56899 0.69342 0.0
C611 C 0.10089 0.58245 0.68572 0.0
C612 C 0.113 0.6291 0.70565 0.0
H613 H 0.23027 0.67156 0.6792 0.0
H614 H 0.19812 0.64613 0.67906 0.0
H615 H 0.13103 0.65365 0.71763 0.0
H616 H 0.03281 0.58797 0.70336 0.0
H617 H 0.06304 0.61494 0.70093 0.0
H618 H 0.12995 0.60915 0.66068 0.0
C619 C 0.19281 0.65961 0.68286 0.0
C620 C 0.13081 0.64415 0.70498 0.0
C621 C 0.21125 0.67421 0.68292 0.0
C622 C 0.05179 0.58633 0.69843 0.0
C623 C 0.06911 0.60167 0.69714 0.0
C624 C 0.13008 0.6187 0.67328 0.0
C625 C 0.168 0.66226 0.68818 0.0
C626 C 0.14856 0.64659 0.68853 0.0
C627 C 0.0939 0.5999 0.69084 0.0
C628 C 0.11249 0.61614 0.68985 0.0
H629 H 0.17523 0.708 0.69742 0.0
H630 H 0.14303 0.68246 0.69737 0.0
H631 H 0.16108 0.63537 0.65956 0.0
H632 H 0.08932 0.55378 0.68319 0.0
H633 H 0.11988 0.58055 0.68109 0.0
C634 C 0.834 0.68353 0.30028 0.0
C635 C 0.8419 0.6993 0.31113 0.0
C636 C 0.84427 0.66683 0.30487 0.0
C637 C 0.88235 0.642 0.34393 0.0
H638 H 0.90112 0.61608 0.29495 0.0
C639 C 0.92933 0.5729 0.35 0.0
C640 C 0.94899 0.57124 0.33568 0.0
C641 C 0.91453 0.58782 0.348 0.0
C642 C 0.89608 0.62318 0.3088 0.0
H643 H 0.86627 0.70976 0.33575 0.0
H644 H 0.88433 0.68065 0.34367 0.0
H645 H 0.87793 0.64321 0.29019 0.0
H646 H 0.9691 0.58432 0.30853 0.0
H647 H 0.94339 0.61019 0.30503 0.0
H648 H 0.90134 0.62222 0.36245 0.0
C649 C 0.86993 0.68111 0.33181 0.0
C650 C 0.88248 0.63861 0.3061 0.0
C651 C 0.8596 0.69781 0.32726 0.0
C652 C 0.95375 0.58494 0.31953 0.0
C653 C 0.939 0.59979 0.31753 0.0
C654 C 0.89597 0.62651 0.34664 0.0
C655 C 0.86275 0.66552 0.32037 0.0
C656 C 0.87567 0.64834 0.32359 0.0
C657 C 0.9191 0.60135 0.33162 0.0
C658 C 0.9033 0.6171 0.32906 0.0
H659 H 0.82008 0.68417 0.28802 0.0
H660 H 0.83795 0.65499 0.29605 0.0
H661 H 0.87718 0.64908 0.35776 0.0
H662 H 0.92505 0.5625 0.36251 0.0
H663 H 0.89922 0.58857 0.35901 0.0
C664 C 0.87457 0.3184 0.75435 0.0
C665 C 0.84868 0.31443 0.75265 0.0
C666 C 0.88576 0.33555 0.74748 0.0
C667 C 0.87612 0.3773 0.71399 0.0
H668 H 0.92741 0.39959 0.74965 0.0
C669 C 0.91583 0.45357 0.70354 0.0
C670 C 0.94153 0.45714 0.70657 0.0
C671 C 0.90444 0.43584 0.70759 0.0
C672 C 0.91335 0.39347 0.73936 0.0
H673 H 0.81427 0.32531 0.74212 0.0
H674 H 0.83382 0.35541 0.73023 0.0
H675 H 0.90751 0.36936 0.75974 0.0
H676 H 0.97568 0.44534 0.71576 0.0
H677 H 0.95594 0.41426 0.72269 0.0
H678 H 0.88189 0.40163 0.69373 0.0
C679 C 0.8455 0.34513 0.73666 0.0
C680 C 0.90194 0.37612 0.74515 0.0
C681 C 0.83429 0.32791 0.74349 0.0
C682 C 0.95581 0.44277 0.71329 0.0
C683 C 0.94447 0.42508 0.71739 0.0
C684 C 0.88754 0.39473 0.70821 0.0
C685 C 0.87135 0.34922 0.73878 0.0
C686 C 0.88326 0.36777 0.7325 0.0
C687 C 0.91859 0.42147 0.7149 0.0
C688 C 0.90637 0.40296 0.7208 0.0
H689 H 0.88624 0.30818 0.76094 0.0
H690 H 0.90578 0.33808 0.74893 0.0
H691 H 0.86198 0.37118 0.70378 0.0
H692 H 0.90453 0.4646 0.69855 0.0
H693 H 0.88445 0.43354 0.70572 0.0
C694 C 0.26456 0.19023 0.36474 0.0
C695 C 0.27146 0.20531 0.37708 0.0
C696 C 0.25648 0.17314 0.37431 0.0
C697 C 0.23248 0.15078 0.42493 0.0
H698 H 0.25919 0.10738 0.40351 0.0
C699 C 0.23226 0.08216 0.47361 0.0
C700 C 0.22784 0.06579 0.46305 0.0
C701 C 0.23447 0.09907 0.46226 0.0
C702 C 0.25123 0.11931 0.40949 0.0
H703 H 0.27532 0.21421 0.40919 0.0
H704 H 0.26129 0.18446 0.42586 0.0
H705 H 0.26884 0.1372 0.38519 0.0
H706 H 0.22191 0.05387 0.4327 0.0
H707 H 0.22561 0.08355 0.41261 0.0
H708 H 0.21528 0.13291 0.44948 0.0
C709 C 0.2617 0.1859 0.40877 0.0
C710 C 0.25676 0.13641 0.39899 0.0
C711 C 0.26976 0.20297 0.39921 0.0
C712 C 0.22524 0.06645 0.44104 0.0
C713 C 0.22751 0.08338 0.42963 0.0
C714 C 0.22697 0.13368 0.43544 0.0
C715 C 0.25512 0.17074 0.39645 0.0
C716 C 0.24774 0.15239 0.40675 0.0
C717 C 0.23241 0.09987 0.4401 0.0
C718 C 0.23656 0.11778 0.42801 0.0
H719 H 0.26531 0.19165 0.34765 0.0
H720 H 0.25122 0.16181 0.36436 0.0
H721 H 0.22487 0.16276 0.43111 0.0
H722 H 0.23451 0.08181 0.49062 0.0
H723 H 0.2386 0.11147 0.47078 0.0
C724 C 0.34405 0.7468 0.79042 0.0
C725 C 0.32818 0.75986 0.78259 0.0
C726 C 0.35454 0.74824 0.81045 0.0
C727 C 0.37062 0.78145 0.85134 0.0
H728 H 0.37666 0.73724 0.88666 0.0
C729 C 0.41075 0.78299 0.93613 0.0
C730 C 0.42777 0.76984 0.94126 0.0
C731 C 0.39694 0.78199 0.91749 0.0
C732 C 0.37526 0.7497 0.87692 0.0
H733 H 0.31071 0.78463 0.78979 0.0
H734 H 0.32905 0.78716 0.82487 0.0
H735 H 0.35543 0.73514 0.85286 0.0
H736 H 0.44388 0.74552 0.93056 0.0
H737 H 0.41973 0.74372 0.89826 0.0
H738 H 0.39067 0.79597 0.8754 0.0
C739 C 0.33357 0.7759 0.81536 0.0
C740 C 0.36312 0.7485 0.85755 0.0
C741 C 0.32307 0.77445 0.79528 0.0
C742 C 0.43058 0.75566 0.92735 0.0
C743 C 0.41674 0.75463 0.9088 0.0
C744 C 0.38275 0.78266 0.87077 0.0
C745 C 0.34942 0.76279 0.82318 0.0
C746 C 0.36095 0.76431 0.84438 0.0
C747 C 0.39979 0.76779 0.90363 0.0
C748 C 0.38551 0.76675 0.88364 0.0
H749 H 0.34879 0.7356 0.7809 0.0
H750 H 0.36706 0.73812 0.81579 0.0
H751 H 0.36951 0.79387 0.84148 0.0
H752 H 0.40791 0.79396 0.94661 0.0
H753 H 0.38383 0.79222 0.91405 0.0
C754 C 0.80883 0.82785 0.37301 0.0
C755 C 0.79414 0.82687 0.35473 0.0
C756 C 0.80578 0.84142 0.38747 0.0
C757 C 0.78368 0.88757 0.3906 0.0
H758 H 0.78614 0.87743 0.45114 0.0
C759 C 0.76788 0.94321 0.45006 0.0
C760 C 0.78359 0.94399 0.46773 0.0
C761 C 0.76773 0.92844 0.43675 0.0
C762 C 0.78566 0.88053 0.43427 0.0
H763 H 0.76452 0.83923 0.33747 0.0
H764 H 0.75901 0.86277 0.36284 0.0
H765 H 0.78825 0.85231 0.42721 0.0
H766 H 0.81106 0.92959 0.48549 0.0
H767 H 0.81129 0.90413 0.46198 0.0
H768 H 0.78152 0.91579 0.39755 0.0
C769 C 0.77301 0.85312 0.36589 0.0
C770 C 0.78682 0.86612 0.42057 0.0
C771 C 0.77597 0.83951 0.35148 0.0
C772 C 0.79897 0.92957 0.47186 0.0
C773 C 0.79886 0.91482 0.45853 0.0
C774 C 0.7826 0.90197 0.40427 0.0
C775 C 0.78807 0.85436 0.38393 0.0
C776 C 0.78595 0.8695 0.39858 0.0
C777 C 0.7833 0.91411 0.44077 0.0
C778 C 0.78369 0.89865 0.42628 0.0
H779 H 0.82282 0.8182 0.37605 0.0
H780 H 0.81779 0.84208 0.40114 0.0
H781 H 0.78337 0.89067 0.37372 0.0
H782 H 0.75595 0.95415 0.4463 0.0
H783 H 0.7553 0.92823 0.42335 0.0
C784 C 0.70412 0.25844 0.84772 0.0
C785 C 0.70682 0.2426 0.83633 0.0
C786 C 0.68467 0.25891 0.86234 0.0
C787 C 0.64381 0.22823 0.89705 0.0
H788 H 0.60713 0.27134 0.90324 0.0
C789 C 0.58554 0.23934 0.9715 0.0
C790 C 0.56206 0.24602 0.9683 0.0
C791 C 0.60201 0.23851 0.9545 0.0
C792 C 0.61709 0.25915 0.90161 0.0
H793 H 0.69034 0.21516 0.83072 0.0
H794 H 0.6566 0.21592 0.85648 0.0
H795 H 0.63735 0.27085 0.87437 0.0
H796 H 0.53718 0.25711 0.94517 0.0
H797 H 0.56608 0.25583 0.91531 0.0
H798 H 0.6237 0.21658 0.92436 0.0
C799 C 0.66976 0.22788 0.85422 0.0
C800 C 0.63452 0.25893 0.88519 0.0
C801 C 0.68912 0.22745 0.8395 0.0
C802 C 0.55526 0.25192 0.9479 0.0
C803 C 0.5718 0.25125 0.93092 0.0
C804 C 0.62655 0.22851 0.91356 0.0
C805 C 0.66754 0.24352 0.86602 0.0
C806 C 0.64815 0.2435 0.88279 0.0
C807 C 0.59536 0.24453 0.93404 0.0
C808 C 0.6131 0.24401 0.91609 0.0
H809 H 0.71759 0.27026 0.84595 0.0
H810 H 0.6836 0.27109 0.87135 0.0
H811 H 0.6542 0.21621 0.89574 0.0
H812 H 0.59115 0.23487 0.98719 0.0
H813 H 0.62015 0.23349 0.95744 0.0
C814 C 0.25532 0.83915 0.66264 0.0
C815 C 0.26126 0.8244 0.65052 0.0
C816 C 0.25021 0.85598 0.65282 0.0
C817 C 0.26212 0.88349 0.6031 0.0
H818 H 0.20925 0.91182 0.62266 0.0
C819 C 0.23567 0.94877 0.55715 0.0
C820 C 0.23082 0.96383 0.56901 0.0
C821 C 0.23805 0.93157 0.56718 0.0
C822 C 0.22425 0.90416 0.61715 0.0
H823 H 0.26537 0.81554 0.61855 0.0
H824 H 0.25653 0.84486 0.60147 0.0
H825 H 0.2157 0.88205 0.64012 0.0
H826 H 0.22449 0.97312 0.60034 0.0
H827 H 0.2289 0.94301 0.61814 0.0
H828 H 0.27088 0.90557 0.58029 0.0
C829 C 0.25629 0.84354 0.61857 0.0
C830 C 0.22793 0.8871 0.62715 0.0
C831 C 0.26137 0.82674 0.62837 0.0
C832 C 0.22809 0.96154 0.591 0.0
C833 C 0.2305 0.94433 0.60109 0.0
C834 C 0.25849 0.90052 0.59316 0.0
C835 C 0.25094 0.85843 0.63068 0.0
C836 C 0.24687 0.87655 0.62018 0.0
C837 C 0.23574 0.92917 0.5893 0.0
C838 C 0.23946 0.91105 0.6 0.0
H839 H 0.25533 0.83786 0.67974 0.0
H840 H 0.24639 0.86724 0.6626 0.0
H841 H 0.27719 0.87588 0.59761 0.0
H842 H 0.23782 0.95037 0.54013 0.0
H843 H 0.24168 0.92015 0.5576 0.0
C844 C 0.70356 0.76792 0.22529 0.0
C845 C 0.72723 0.77699 0.22091 0.0
C846 C 0.68467 0.76806 0.21021 0.0
C847 C 0.66452 0.79387 0.16295 0.0
H848 H 0.62608 0.74836 0.15105 0.0
C849 C 0.59956 0.7881 0.09095 0.0
C850 C 0.57713 0.77691 0.09322 0.0
C851 C 0.61727 0.78835 0.10702 0.0
C852 C 0.63635 0.76125 0.15438 0.0
H853 H 0.74955 0.79305 0.19696 0.0
H854 H 0.71646 0.79357 0.17089 0.0
H855 H 0.65782 0.74838 0.1784 0.0
H856 H 0.55538 0.75759 0.11433 0.0
H857 H 0.58604 0.75827 0.14257 0.0
H858 H 0.64298 0.80683 0.13915 0.0
C859 C 0.71251 0.7865 0.18609 0.0
C860 C 0.65458 0.76124 0.17003 0.0
C861 C 0.73145 0.78624 0.20108 0.0
C862 C 0.57265 0.76616 0.11201 0.0
C863 C 0.59027 0.76652 0.12817 0.0
C864 C 0.64616 0.79393 0.14743 0.0
C865 C 0.68893 0.77739 0.19047 0.0
C866 C 0.66899 0.77752 0.17437 0.0
C867 C 0.61288 0.77754 0.12584 0.0
C868 C 0.63195 0.77759 0.14282 0.0
H869 H 0.6995 0.7609 0.24049 0.0
H870 H 0.66659 0.76108 0.2141 0.0
H871 H 0.67511 0.80668 0.16617 0.0
H872 H 0.60366 0.79635 0.07652 0.0
H873 H 0.63463 0.79676 0.1045 0.0
C874 C 0.77192 0.17789 0.70739 0.0
C875 C 0.79523 0.18539 0.7144 0.0
C876 C 0.77051 0.16485 0.69183 0.0
C877 C 0.80372 0.12833 0.67164 0.0
H878 H 0.76637 0.13432 0.61994 0.0
C879 C 0.80883 0.07733 0.60544 0.0
C880 C 0.78755 0.07331 0.59312 0.0
C881 C 0.80947 0.09135 0.61975 0.0
C882 C 0.77654 0.13222 0.63444 0.0
H883 H 0.83529 0.18546 0.70961 0.0
H884 H 0.83267 0.1621 0.68328 0.0
H885 H 0.7674 0.15813 0.64585 0.0
H886 H 0.75026 0.08128 0.58629 0.0
H887 H 0.7508 0.10483 0.61212 0.0
H888 H 0.81216 0.10221 0.66097 0.0
C889 C 0.81558 0.16641 0.68992 0.0
C890 C 0.77722 0.14595 0.64919 0.0
C891 C 0.81702 0.17969 0.70513 0.0
C892 C 0.76687 0.08369 0.59567 0.0
C893 C 0.76734 0.0975 0.6103 0.0
C894 C 0.80265 0.11444 0.65715 0.0
C895 C 0.79234 0.1588 0.68324 0.0
C896 C 0.79101 0.14417 0.6678 0.0
C897 C 0.78867 0.10155 0.62254 0.0
C898 C 0.78925 0.11624 0.63822 0.0
H899 H 0.75473 0.18168 0.7143 0.0
H900 H 0.75237 0.15906 0.68698 0.0
H901 H 0.81423 0.12657 0.68604 0.0
H902 H 0.82502 0.06952 0.60426 0.0
H903 H 0.82644 0.09422 0.62853 0.0
C904 C 0.34128 0.27495 0.23123 0.0
C905 C 0.35467 0.27033 0.24945 0.0
C906 C 0.35096 0.27243 0.21112 0.0
C907 C 0.39734 0.24706 0.18341 0.0
H908 H 0.39254 0.28515 0.13924 0.0
C909 C 0.45495 0.24945 0.10618 0.0
C910 C 0.44317 0.25458 0.08739 0.0
C911 C 0.443 0.25065 0.12564 0.0
C912 C 0.39375 0.27427 0.15132 0.0
H913 H 0.38853 0.25906 0.2608 0.0
H914 H 0.40561 0.25504 0.22582 0.0
H915 H 0.37373 0.28861 0.17379 0.0
H916 H 0.40973 0.26454 0.07379 0.0
H917 H 0.38859 0.26665 0.10789 0.0
H918 H 0.41758 0.23282 0.161 0.0
C919 C 0.38752 0.26046 0.22703 0.0
C920 C 0.38296 0.27625 0.17112 0.0
C921 C 0.37786 0.26299 0.2471 0.0
C922 C 0.41914 0.26067 0.08821 0.0
C923 C 0.40717 0.26194 0.10768 0.0
C924 C 0.40814 0.2451 0.16362 0.0
C925 C 0.37422 0.26517 0.20879 0.0
C926 C 0.3848 0.26274 0.18746 0.0
C927 C 0.41901 0.257 0.12663 0.0
C928 C 0.40665 0.25874 0.14739 0.0
H929 H 0.32345 0.28076 0.23248 0.0
H930 H 0.34013 0.27604 0.1974 0.0
H931 H 0.39871 0.23624 0.19552 0.0
H932 H 0.47352 0.2447 0.10578 0.0
H933 H 0.45276 0.24695 0.13993 0.0
C934 C 0.81094 0.68678 0.74515 0.0
C935 C 0.81955 0.70309 0.73384 0.0
C936 C 0.81868 0.66985 0.73948 0.0
C937 C 0.84942 0.64597 0.69721 0.0
H938 H 0.87248 0.6162 0.74429 0.0
C939 C 0.91724 0.58915 0.68781 0.0
C940 C 0.91483 0.57365 0.70188 0.0
C941 C 0.90199 0.60361 0.68999 0.0
C942 C 0.86571 0.62411 0.73094 0.0
H943 H 0.84184 0.71425 0.70694 0.0
H944 H 0.8557 0.68472 0.69728 0.0
H945 H 0.85193 0.64379 0.75105 0.0
H946 H 0.89353 0.56057 0.72834 0.0
H947 H 0.86665 0.58563 0.73196 0.0
H948 H 0.8637 0.62637 0.67709 0.0
C949 C 0.84287 0.68501 0.71047 0.0
C950 C 0.85391 0.63997 0.73484 0.0
C951 C 0.83515 0.70197 0.71615 0.0
C952 C 0.89608 0.5725 0.7175 0.0
C953 C 0.88074 0.58687 0.7196 0.0
C954 C 0.86119 0.63002 0.6933 0.0
C955 C 0.83519 0.66882 0.72239 0.0
C956 C 0.84587 0.65121 0.71803 0.0
C957 C 0.88392 0.60281 0.70621 0.0
C958 C 0.86972 0.61901 0.71014 0.0
H959 H 0.79905 0.68717 0.75894 0.0
H960 H 0.81216 0.65758 0.74881 0.0
H961 H 0.84319 0.65425 0.68393 0.0
H962 H 0.93166 0.59047 0.67572 0.0
H963 H 0.90513 0.61574 0.67955 0.0
C964 C 0.88079 0.31596 0.32645 0.0
C965 C 0.85765 0.31371 0.31628 0.0
C966 C 0.89032 0.33332 0.33238 0.0
C967 C 0.88627 0.38232 0.31806 0.0
H968 H 0.92542 0.38947 0.3687 0.0
C969 C 0.93296 0.45349 0.33697 0.0
C970 C 0.95793 0.45357 0.3432 0.0
C971 C 0.91821 0.43687 0.33624 0.0
C972 C 0.91461 0.38767 0.35445 0.0
H973 H 0.82602 0.32787 0.30495 0.0
H974 H 0.84245 0.35815 0.31565 0.0
H975 H 0.90373 0.35945 0.36304 0.0
H976 H 0.9871 0.43685 0.35416 0.0
H977 H 0.96144 0.40769 0.35282 0.0
H978 H 0.89754 0.41039 0.30924 0.0
C979 C 0.85338 0.3465 0.31879 0.0
C980 C 0.90219 0.37048 0.35121 0.0
C981 C 0.84384 0.32912 0.31286 0.0
C982 C 0.96781 0.43698 0.34934 0.0
C983 C 0.95308 0.42037 0.34867 0.0
C984 C 0.89866 0.3995 0.32131 0.0
C985 C 0.87692 0.34885 0.3283 0.0
C986 C 0.8882 0.36752 0.33281 0.0
C987 C 0.92821 0.4201 0.34182 0.0
C988 C 0.9133 0.4023 0.33938 0.0
H989 H 0.89174 0.30433 0.32958 0.0
H990 H 0.9086 0.33465 0.33951 0.0
H991 H 0.87598 0.38045 0.30356 0.0
H992 H 0.92506 0.46624 0.33229 0.0
H993 H 0.89904 0.43714 0.33115 0.0
C994 C 0.20924 0.35561 0.71954 0.0
C995 C 0.21291 0.34523 0.70177 0.0
C996 C 0.1921 0.36903 0.71904 0.0
C997 C 0.15638 0.39743 0.68154 0.0
H998 H 0.11932 0.40646 0.73219 0.0
C999 C 0.07408 0.44409 0.68277 0.0
C1000 C 0.07496 0.45712 0.69853 0.0
C1001 C 0.09093 0.43046 0.68286 0.0
C1002 C 0.12967 0.40414 0.71797 0.0
H1003 H 0.20114 0.34092 0.66951 0.0
H1004 H 0.17043 0.36357 0.66903 0.0
H1005 H 0.14789 0.38214 0.73299 0.0
H1006 H 0.09486 0.46616 0.72645 0.0
H1007 H 0.12363 0.44199 0.72691 0.0
H1008 H 0.13748 0.41919 0.66647 0.0
C1009 C 0.18127 0.3617 0.68321 0.0
C1010 C 0.14614 0.39026 0.71842 0.0
C1011 C 0.19865 0.34844 0.68361 0.0
C1012 C 0.09321 0.45617 0.71431 0.0
C1013 C 0.10979 0.44237 0.71456 0.0
C1014 C 0.13962 0.41112 0.68103 0.0
C1015 C 0.17789 0.37229 0.70086 0.0
C1016 C 0.15986 0.38679 0.70025 0.0
C1017 C 0.10879 0.42939 0.69885 0.0
C1018 C 0.12624 0.41468 0.69927 0.0
H1019 H 0.21956 0.35337 0.73393 0.0
H1020 H 0.19031 0.37704 0.73286 0.0
H1021 H 0.16691 0.39543 0.66734 0.0
H1022 H 0.06005 0.44414 0.67057 0.0
H1023 H 0.08963 0.42049 0.67067 0.0
C1024 C 0.20889 0.68391 0.34796 0.0
C1025 C 0.22276 0.68848 0.32933 0.0
C1026 C 0.19166 0.66853 0.34916 0.0
C1027 C 0.15349 0.63682 0.31654 0.0
H1028 H 0.15264 0.6041 0.36658 0.0
C1029 C 0.07728 0.57731 0.33201 0.0
C1030 C 0.08544 0.56044 0.33944 0.0
C1031 C 0.09378 0.5931 0.33084 0.0
C1032 C 0.15274 0.61306 0.35247 0.0
H1033 H 0.22904 0.68074 0.29722 0.0
H1034 H 0.19898 0.65379 0.29935 0.0
H1035 H 0.18193 0.63146 0.36418 0.0
H1036 H 0.11688 0.54655 0.35137 0.0
H1037 H 0.14592 0.57424 0.34947 0.0
H1038 H 0.12448 0.61832 0.30473 0.0
C1039 C 0.20141 0.66216 0.313 0.0
C1040 C 0.16933 0.62882 0.35118 0.0
C1041 C 0.21877 0.67748 0.31184 0.0
C1042 C 0.11027 0.55952 0.34575 0.0
C1043 C 0.12676 0.57534 0.34472 0.0
C1044 C 0.13679 0.62113 0.31788 0.0
C1045 C 0.1878 0.65744 0.33173 0.0
C1046 C 0.16993 0.64085 0.33318 0.0
C1047 C 0.11871 0.59229 0.33718 0.0
C1048 C 0.13629 0.60905 0.33584 0.0
H1049 H 0.21173 0.69202 0.36177 0.0
H1050 H 0.18128 0.66535 0.36374 0.0
H1051 H 0.15339 0.64591 0.30254 0.0
H1052 H 0.05814 0.57821 0.32707 0.0
H1053 H 0.08697 0.60599 0.32519 0.0
C1054 C 0.77847 0.8548 0.71171 0.0
C1055 C 0.78727 0.83811 0.70588 0.0
C1056 C 0.77728 0.86944 0.69686 0.0
C1057 C 0.7762 0.88088 0.63948 0.0
H1058 H 0.79917 0.9298 0.65614 0.0
C1059 C 0.79199 0.94259 0.57926 0.0
C1060 C 0.78447 0.95952 0.58538 0.0
C1061 C 0.79187 0.92767 0.5939 0.0
C1062 C 0.7924 0.91627 0.65131 0.0
H1063 H 0.80161 0.8237 0.67981 0.0
H1064 H 0.79945 0.84925 0.65386 0.0
H1065 H 0.79934 0.90386 0.68173 0.0
H1066 H 0.77108 0.97446 0.61126 0.0
H1067 H 0.77049 0.94832 0.63696 0.0
H1068 H 0.76929 0.89331 0.60904 0.0
C1069 C 0.79321 0.85093 0.66989 0.0
C1070 C 0.7925 0.9014 0.66598 0.0
C1071 C 0.79443 0.83628 0.68475 0.0
C1072 C 0.77691 0.96144 0.60631 0.0
C1073 C 0.77675 0.94653 0.62097 0.0
C1074 C 0.77607 0.89577 0.62481 0.0
C1075 C 0.78483 0.86773 0.67582 0.0
C1076 C 0.78442 0.88353 0.66024 0.0
C1077 C 0.78423 0.92947 0.61493 0.0
C1078 C 0.7842 0.91364 0.63055 0.0
H1079 H 0.77239 0.85654 0.72777 0.0
H1080 H 0.77031 0.88209 0.70185 0.0
H1081 H 0.76955 0.86733 0.63465 0.0
H1082 H 0.79798 0.94094 0.56314 0.0
H1083 H 0.79807 0.91481 0.58881 0.0
C1084 C 0.72364 0.22935 0.21152 0.0
C1085 C 0.7285 0.24353 0.22557 0.0
C1086 C 0.70414 0.23002 0.1971 0.0
C1087 C 0.66443 0.26258 0.16996 0.0
H1088 H 0.62541 0.2179 0.15583 0.0
C1089 C 0.60069 0.25947 0.09705 0.0
C1090 C 0.57781 0.24878 0.09887 0.0
C1091 C 0.61813 0.25903 0.11331 0.0
C1092 C 0.63593 0.23055 0.15974 0.0
H1093 H 0.71635 0.26933 0.23584 0.0
H1094 H 0.68209 0.27042 0.21077 0.0
H1095 H 0.65676 0.21669 0.18335 0.0
H1096 H 0.55507 0.22953 0.11936 0.0
H1097 H 0.5854 0.22888 0.14784 0.0
H1098 H 0.64328 0.2765 0.14661 0.0
C1099 C 0.69365 0.25893 0.21065 0.0
C1100 C 0.65413 0.22981 0.17535 0.0
C1101 C 0.71324 0.2583 0.22504 0.0
C1102 C 0.57269 0.23772 0.11737 0.0
C1103 C 0.59009 0.23735 0.13367 0.0
C1104 C 0.64616 0.26333 0.15439 0.0
C1105 C 0.68896 0.24485 0.19641 0.0
C1106 C 0.66877 0.24579 0.18052 0.0
C1107 C 0.61306 0.24796 0.13182 0.0
C1108 C 0.63184 0.2473 0.14895 0.0
H1109 H 0.73532 0.21794 0.21129 0.0
H1110 H 0.70138 0.2191 0.18612 0.0
H1111 H 0.6755 0.27513 0.17338 0.0
H1112 H 0.60533 0.26793 0.08287 0.0
H1113 H 0.6358 0.26713 0.11117 0.0
C1114 C 0.23901 0.21197 0.65544 0.0
C1115 C 0.26331 0.21655 0.66254 0.0
C1116 C 0.23341 0.19563 0.64508 0.0
C1117 C 0.26491 0.16145 0.61537 0.0
H1118 H 0.20102 0.13297 0.62065 0.0
C1119 C 0.24019 0.10274 0.56045 0.0
C1120 C 0.22809 0.08647 0.5694 0.0
C1121 C 0.24233 0.11873 0.57178 0.0
C1122 C 0.21903 0.14069 0.61912 0.0
H1123 H 0.30042 0.20723 0.66554 0.0
H1124 H 0.29059 0.17855 0.64806 0.0
H1125 H 0.20938 0.15987 0.64184 0.0
H1126 H 0.20806 0.07419 0.59691 0.0
H1127 H 0.21234 0.10207 0.61708 0.0
H1128 H 0.275 0.14206 0.5933 0.0
C1129 C 0.276 0.18779 0.64977 0.0
C1130 C 0.22372 0.15624 0.63109 0.0
C1131 C 0.28163 0.20417 0.65988 0.0
C1132 C 0.2174 0.08662 0.58965 0.0
C1133 C 0.2198 0.1026 0.60114 0.0
C1134 C 0.2603 0.1459 0.60356 0.0
C1135 C 0.25197 0.18348 0.64181 0.0
C1136 C 0.24675 0.1668 0.62936 0.0
C1137 C 0.23272 0.11876 0.59247 0.0
C1138 C 0.23728 0.13535 0.60518 0.0
H1139 H 0.22458 0.22134 0.65721 0.0
H1140 H 0.21477 0.19286 0.639 0.0
H1141 H 0.2827 0.16939 0.61331 0.0
H1142 H 0.24821 0.10306 0.5447 0.0
H1143 H 0.25178 0.13103 0.56435 0.0
C1144 C 0.36428 0.78148 0.23552 0.0
C1145 C 0.34204 0.77038 0.23964 0.0
C1146 C 0.37416 0.78382 0.21505 0.0
C1147 C 0.37169 0.76162 0.16354 0.0
H1148 H 0.4093 0.80684 0.1441 0.0
C1149 C 0.41355 0.7721 0.0793 0.0
C1150 C 0.43895 0.7782 0.07857 0.0
C1151 C 0.39992 0.77254 0.09809 0.0
C1152 C 0.39886 0.79413 0.14936 0.0
H1153 H 0.31246 0.75341 0.22512 0.0
H1154 H 0.32906 0.75817 0.18937 0.0
H1155 H 0.3881 0.80527 0.17837 0.0
H1156 H 0.46991 0.79024 0.09627 0.0
H1157 H 0.44599 0.79133 0.12917 0.0
H1158 H 0.38238 0.75058 0.1344 0.0
C1159 C 0.33925 0.7647 0.20208 0.0
C1160 C 0.3868 0.79317 0.16903 0.0
C1161 C 0.3295 0.76219 0.22259 0.0
C1162 C 0.45032 0.78542 0.0966 0.0
C1163 C 0.43664 0.7861 0.11531 0.0
C1164 C 0.38349 0.76266 0.14378 0.0
C1165 C 0.36193 0.7753 0.19808 0.0
C1166 C 0.37333 0.77682 0.17652 0.0
C1167 C 0.4114 0.77941 0.11633 0.0
C1168 C 0.39747 0.77884 0.13662 0.0
H1169 H 0.37424 0.78828 0.24816 0.0
H1170 H 0.39178 0.79193 0.21269 0.0
H1171 H 0.36192 0.74869 0.16887 0.0
H1172 H 0.40443 0.76667 0.06544 0.0
H1173 H 0.38043 0.76747 0.0984 0.0
C1174 C 0.82847 0.17489 0.36262 0.0
C1175 C 0.80786 0.18084 0.35142 0.0
C1176 C 0.82544 0.16033 0.37773 0.0
C1177 C 0.77865 0.13349 0.41191 0.0
H1178 H 0.82678 0.09664 0.41204 0.0
C1179 C 0.78253 0.07638 0.47797 0.0
C1180 C 0.78715 0.0588 0.47169 0.0
C1181 C 0.78409 0.09131 0.46327 0.0
C1182 C 0.81307 0.10673 0.41211 0.0
H1183 H 0.76785 0.17621 0.34748 0.0
H1184 H 0.76255 0.15083 0.37394 0.0
H1185 H 0.83137 0.1228 0.38663 0.0
H1186 H 0.79647 0.04266 0.44542 0.0
H1187 H 0.79914 0.06875 0.41952 0.0
H1188 H 0.76019 0.11726 0.43723 0.0
C1189 C 0.78103 0.15757 0.37116 0.0
C1190 C 0.81587 0.12184 0.39772 0.0
C1191 C 0.78406 0.17213 0.35601 0.0
C1192 C 0.79296 0.0562 0.4505 0.0
C1193 C 0.79461 0.07112 0.4358 0.0
C1194 C 0.7759 0.1184 0.42637 0.0
C1195 C 0.80172 0.15138 0.38203 0.0
C1196 C 0.79871 0.1354 0.39746 0.0
C1197 C 0.79038 0.08887 0.44206 0.0
C1198 C 0.79307 0.10484 0.42661 0.0
H1199 H 0.84698 0.18153 0.35975 0.0
H1200 H 0.84169 0.15611 0.38611 0.0
H1201 H 0.76523 0.14378 0.4122 0.0
H1202 H 0.77808 0.07859 0.49432 0.0
H1203 H 0.78098 0.10483 0.46863 0.0
C1204 C 0.3466 0.25661 0.79233 0.0
C1205 C 0.33077 0.27087 0.78909 0.0
C1206 C 0.35672 0.25307 0.81223 0.0
C1207 C 0.35004 0.26192 0.86913 0.0
H1208 H 0.41991 0.25236 0.87082 0.0
C1209 C 0.40921 0.2654 0.94517 0.0
C1210 C 0.42653 0.25213 0.94846 0.0
C1211 C 0.39596 0.26642 0.92628 0.0
C1212 C 0.40029 0.25475 0.87064 0.0
H1213 H 0.3129 0.29246 0.80425 0.0
H1214 H 0.33073 0.28639 0.83896 0.0
H1215 H 0.39961 0.25641 0.83688 0.0
H1216 H 0.44329 0.22939 0.93456 0.0
H1217 H 0.41992 0.23102 0.90175 0.0
H1218 H 0.35095 0.26056 0.90298 0.0
C1219 C 0.33503 0.27775 0.8262 0.0
C1220 C 0.38863 0.25706 0.85117 0.0
C1221 C 0.32483 0.28125 0.8063 0.0
C1222 C 0.42991 0.23967 0.93262 0.0
C1223 C 0.41673 0.24073 0.91371 0.0
C1224 C 0.36174 0.25965 0.88864 0.0
C1225 C 0.35133 0.26375 0.82934 0.0
C1226 C 0.36339 0.26073 0.85015 0.0
C1227 C 0.39982 0.25425 0.91023 0.0
C1228 C 0.38703 0.2561 0.8896 0.0
H1229 H 0.35118 0.24817 0.77946 0.0
H1230 H 0.36881 0.24195 0.81419 0.0
H1231 H 0.33048 0.26449 0.86891 0.0
H1232 H 0.40599 0.27508 0.95717 0.0
H1233 H 0.38319 0.27708 0.92402 0.0
C1234 C 0.25037 0.82798 0.36758 0.0
C1235 C 0.26914 0.81735 0.3757 0.0
C1236 C 0.24301 0.84294 0.37845 0.0
C1237 C 0.24405 0.86222 0.43139 0.0
H1238 H 0.23664 0.90871 0.40086 0.0
C1239 C 0.24573 0.93056 0.47292 0.0
C1240 C 0.22997 0.94393 0.4657 0.0
C1241 C 0.24742 0.91449 0.46209 0.0
C1242 C 0.23821 0.89575 0.40959 0.0
H1243 H 0.29522 0.81439 0.40143 0.0
H1244 H 0.28229 0.84032 0.42039 0.0
H1245 H 0.2455 0.88181 0.38144 0.0
H1246 H 0.20323 0.95074 0.44167 0.0
H1247 H 0.20597 0.92244 0.4228 0.0
H1248 H 0.23711 0.87616 0.45954 0.0
C1249 C 0.27296 0.83692 0.4058 0.0
C1250 C 0.24332 0.88035 0.39846 0.0
C1251 C 0.28037 0.82204 0.39492 0.0
C1252 C 0.21547 0.94065 0.44766 0.0
C1253 C 0.21721 0.92454 0.43675 0.0
C1254 C 0.2389 0.87759 0.44249 0.0
C1255 C 0.25419 0.84753 0.39772 0.0
C1256 C 0.24675 0.8635 0.40928 0.0
C1257 C 0.23336 0.91134 0.44378 0.0
C1258 C 0.23639 0.89462 0.43177 0.0
H1259 H 0.24111 0.82459 0.35296 0.0
H1260 H 0.22834 0.85076 0.37192 0.0
H1261 H 0.2461 0.84934 0.44014 0.0
H1262 H 0.25689 0.93256 0.48694 0.0
H1263 H 0.26025 0.90472 0.46781 0.0
C1264 C 0.7066 0.75207 0.84697 0.0
C1265 C 0.71116 0.76766 0.83322 0.0
C1266 C 0.68777 0.75142 0.86232 0.0
C1267 C 0.63067 0.77307 0.87736 0.0
H1268 H 0.6459 0.75429 0.93368 0.0
C1269 C 0.55696 0.76437 0.94453 0.0
C1270 C 0.56492 0.76983 0.96448 0.0
C1271 C 0.57427 0.76332 0.92819 0.0
C1272 C 0.6414 0.75967 0.91806 0.0
H1273 H 0.69935 0.79473 0.82473 0.0
H1274 H 0.66651 0.79361 0.8515 0.0
H1275 H 0.67681 0.754 0.90547 0.0
H1276 H 0.59676 0.77838 0.98337 0.0
H1277 H 0.62721 0.77677 0.95476 0.0
H1278 H 0.5955 0.77918 0.89011 0.0
C1279 C 0.67727 0.78177 0.85023 0.0
C1280 C 0.659 0.75929 0.90183 0.0
C1281 C 0.6961 0.78242 0.83488 0.0
C1282 C 0.59036 0.77413 0.96802 0.0
C1283 C 0.6077 0.77308 0.95171 0.0
C1284 C 0.61305 0.77342 0.8936 0.0
C1285 C 0.67305 0.76635 0.86428 0.0
C1286 C 0.6539 0.76609 0.88131 0.0
C1287 C 0.59985 0.7677 0.93158 0.0
C1288 C 0.61828 0.76683 0.91417 0.0
H1289 H 0.71761 0.74035 0.84587 0.0
H1290 H 0.68471 0.73921 0.87266 0.0
H1291 H 0.62608 0.77826 0.86168 0.0
H1292 H 0.53734 0.76095 0.94161 0.0
H1293 H 0.56766 0.75892 0.91297 0.0
loop_
_geom_bond_atom_site_label_1
_geom_bond_atom_site_label_2
_geom_bond_distance
_geom_bond_site_symmetry_2
_ccdc_geom_bond_type
P0 O11 1.490 . S
P0 C14 1.812 . S
P0 C20 1.803 . S
P0 C26 1.819 . S
H1 C15 0.941 . S
H2 C16 0.939 . S
H3 C18 0.940 . S
H4 C19 0.940 . S
H5 C21 0.939 . S
H6 C22 0.942 . S
H7 C24 0.940 . S
H8 C25 0.939 . S
H9 C27 0.941 . S
H10 C31 0.939 . S
O11 P0 1.490 . S
H12 C28 0.939 . S
H13 C30 0.940 . S
C14 P0 1.812 . S
C14 C15 1.389 . S
C14 C19 1.391 . S
C15 H1 0.941 . S
C15 C14 1.389 . S
C15 C16 1.397 . S
C16 H2 0.939 . S
C16 C15 1.397 . S
C16 C17 1.378 . S
C17 C16 1.378 . S
C17 C18 1.378 . S
C18 H3 0.940 . S
C18 C17 1.378 . S
C18 C19 1.396 . S
C19 H4 0.940 . S
C19 C14 1.391 . S
C19 C18 1.396 . S
C20 P0 1.803 . S
C20 C21 1.378 . S
C20 C25 1.400 . S
C21 H5 0.939 . S
C21 C20 1.378 . S
C21 C22 1.361 . S
C22 H6 0.942 . S
C22 C21 1.361 . S
C22 C23 1.369 . S
C23 C22 1.369 . S
C23 C24 1.404 . S
C24 H7 0.940 . S
C24 C23 1.404 . S
C24 C25 1.389 . S
C25 H8 0.939 . S
C25 C20 1.400 . S
C25 C24 1.389 . S
C26 P0 1.819 . S
C26 C27 1.391 . S
C26 C31 1.391 . S
C27 H9 0.941 . S
C27 C26 1.391 . S
C27 C28 1.396 . S
C28 H12 0.939 . S
C28 C27 1.396 . S
C28 C29 1.397 . S
C29 C28 1.397 . S
C29 C30 1.385 . S
C30 H13 0.940 . S
C30 C29 1.385 . S
C30 C31 1.388 . S
C31 H10 0.939 . S
C31 C26 1.391 . S
C31 C30 1.388 . S
P32 O43 1.490 . S
P32 C46 1.812 . S
P32 C52 1.803 . S
P32 C58 1.819 . S
H33 C47 0.941 . S
H34 C48 0.939 . S
H35 C50 0.940 . S
H36 C51 0.940 . S
H37 C53 0.939 . S
H38 C54 0.942 . S
H39 C56 0.940 . S
H40 C57 0.939 . S
H41 C59 0.941 . S
H42 C63 0.939 . S
O43 P32 1.490 . S
H44 C60 0.939 . S
H45 C62 0.940 . S
C46 P32 1.812 . S
C46 C47 1.389 . S
C46 C51 1.391 . S
C47 H33 0.941 . S
C47 C46 1.389 . S
C47 C48 1.397 . S
C48 H34 0.939 . S
C48 C47 1.397 . S
C48 C49 1.378 . S
C49 C48 1.378 . S
C49 C50 1.378 . S
C50 H35 0.940 . S
C50 C49 1.378 . S
C50 C51 1.396 . S
C51 H36 0.940 . S
C51 C46 1.391 . S
C51 C50 1.396 . S
C52 P32 1.803 . S
C52 C53 1.378 . S
C52 C57 1.400 . S
C53 H37 0.939 . S
C53 C52 1.378 . S
C53 C54 1.361 . S
C54 H38 0.942 . S
C54 C53 1.361 . S
C54 C55 1.369 . S
C55 C54 1.369 . S
C55 C56 1.404 . S
C56 H39 0.940 . S
C56 C55 1.404 . S
C56 C57 1.389 . S
C57 H40 0.939 . S
C57 C52 1.400 . S
C57 C56 1.389 . S
C58 P32 1.819 . S
C58 C59 1.391 . S
C58 C63 1.391 . S
C59 H41 0.941 . S
C59 C58 1.391 . S
C59 C60 1.396 . S
C60 H44 0.939 . S
C60 C59 1.396 . S
C60 C61 1.397 . S
C61 C60 1.397 . S
C61 C62 1.385 . S
C62 H45 0.940 . S
C62 C61 1.385 . S
C62 C63 1.388 . S
C63 H42 0.939 . S
C63 C58 1.391 . S
C63 C62 1.388 . S
P64 O75 1.490 . S
P64 C78 1.812 . S
P64 C84 1.803 . S
P64 C90 1.819 . S
H65 C79 0.941 . S
H66 C80 0.939 . S
H67 C82 0.940 . S
H68 C83 0.940 . S
H69 C85 0.939 . S
H70 C86 0.942 . S
H71 C88 0.940 . S
H72 C89 0.939 . S
H73 C91 0.941 . S
H74 C95 0.939 . S
O75 P64 1.490 . S
H76 C92 0.939 . S
H77 C94 0.940 . S
C78 P64 1.812 . S
C78 C79 1.389 . S
C78 C83 1.391 . S
C79 H65 0.941 . S
C79 C78 1.389 . S
C79 C80 1.397 . S
C80 H66 0.939 . S
C80 C79 1.397 . S
C80 C81 1.378 . S
C81 C80 1.378 . S
C81 C82 1.378 . S
C82 H67 0.940 . S
C82 C81 1.378 . S
C82 C83 1.396 . S
C83 H68 0.940 . S
C83 C78 1.391 . S
C83 C82 1.396 . S
C84 P64 1.803 . S
C84 C85 1.378 . S
C84 C89 1.400 . S
C85 H69 0.939 . S
C85 C84 1.378 . S
C85 C86 1.361 . S
C86 H70 0.942 . S
C86 C85 1.361 . S
C86 C87 1.369 . S
C87 C86 1.369 . S
C87 C88 1.404 . S
C88 H71 0.940 . S
C88 C87 1.404 . S
C88 C89 1.389 . S
C89 H72 0.939 . S
C89 C84 1.400 . S
C89 C88 1.389 . S
C90 P64 1.819 . S
C90 C91 1.391 . S
C90 C95 1.391 . S
C91 H73 0.941 . S
C91 C90 1.391 . S
C91 C92 1.396 . S
C92 H76 0.939 . S
C92 C91 1.396 . S
C92 C93 1.397 . S
C93 C92 1.397 . S
C93 C94 1.385 . S
C94 H77 0.940 . S
C94 C93 1.385 . S
C94 C95 1.388 . S
C95 H74 0.939 . S
C95 C90 1.391 . S
C95 C94 1.388 . S
P96 O107 1.490 . S
P96 C110 1.812 . S
P96 C116 1.803 . S
P96 C122 1.819 . S
H97 C111 0.941 . S
H98 C112 0.939 . S
H99 C114 0.940 . S
H100 C115 0.940 . S
H101 C117 0.939 . S
H102 C118 0.942 . S
H103 C120 0.940 . S
H104 C121 0.939 . S
H105 C123 0.941 . S
H106 C127 0.939 . S
O107 P96 1.490 . S
H108 C124 0.939 . S
H109 C126 0.940 . S
C110 P96 1.812 . S
C110 C111 1.389 . S
C110 C115 1.391 . S
C111 H97 0.941 . S
C111 C110 1.389 . S
C111 C112 1.397 . S
C112 H98 0.939 . S
C112 C111 1.397 . S
C112 C113 1.378 . S
C113 C112 1.378 . S
C113 C114 1.378 . S
C114 H99 0.940 . S
C114 C113 1.378 . S
C114 C115 1.396 . S
C115 H100 0.940 . S
C115 C110 1.391 . S
C115 C114 1.396 . S
C116 P96 1.803 . S
C116 C117 1.378 . S
C116 C121 1.400 . S
C117 H101 0.939 . S
C117 C116 1.378 . S
C117 C118 1.361 . S
C118 H102 0.942 . S
C118 C117 1.361 . S
C118 C119 1.369 . S
C119 C118 1.369 . S
C119 C120 1.404 . S
C120 H103 0.940 . S
C120 C119 1.404 . S
C120 C121 1.389 . S
C121 H104 0.939 . S
C121 C116 1.400 . S
C121 C120 1.389 . S
C122 P96 1.819 . S
C122 C123 1.391 . S
C122 C127 1.391 . S
C123 H105 0.941 . S
C123 C122 1.391 . S
C123 C124 1.396 . S
C124 H108 0.939 . S
C124 C123 1.396 . S
C124 C125 1.397 . S
C125 C124 1.397 . S
C125 C126 1.385 . S
C126 H109 0.940 . S
C126 C125 1.385 . S
C126 C127 1.388 . S
C127 H106 0.939 . S
C127 C122 1.391 . S
C127 C126 1.388 . S
P128 O139 1.490 . S
P128 C142 1.812 . S
P128 C148 1.803 . S
P128 C154 1.819 . S
H129 C143 0.941 . S
H130 C144 0.939 . S
H131 C146 0.940 . S
H132 C147 0.940 . S
H133 C149 0.939 . S
H134 C150 0.942 . S
H135 C152 0.940 . S
H136 C153 0.939 . S
H137 C155 0.941 . S
H138 C159 0.939 . S
O139 P128 1.490 . S
H140 C156 0.939 . S
H141 C158 0.940 . S
C142 P128 1.812 . S
C142 C143 1.389 . S
C142 C147 1.391 . S
C143 H129 0.941 . S
C143 C142 1.389 . S
C143 C144 1.397 . S
C144 H130 0.939 . S
C144 C143 1.397 . S
C144 C145 1.378 . S
C145 C144 1.378 . S
C145 C146 1.378 . S
C146 H131 0.940 . S
C146 C145 1.378 . S
C146 C147 1.396 . S
C147 H132 0.940 . S
C147 C142 1.391 . S
C147 C146 1.396 . S
C148 P128 1.803 . S
C148 C149 1.378 . S
C148 C153 1.400 . S
C149 H133 0.939 . S
C149 C148 1.378 . S
C149 C150 1.361 . S
C150 H134 0.942 . S
C150 C149 1.361 . S
C150 C151 1.369 . S
C151 C150 1.369 . S
C151 C152 1.404 . S
C152 H135 0.940 . S
C152 C151 1.404 . S
C152 C153 1.389 . S
C153 H136 0.939 . S
C153 C148 1.400 . S
C153 C152 1.389 . S
C154 P128 1.819 . S
C154 C155 1.391 . S
C154 C159 1.391 . S
C155 H137 0.941 . S
C155 C154 1.391 . S
C155 C156 1.396 . S
C156 H140 0.939 . S
C156 C155 1.396 . S
C156 C157 1.397 . S
C157 C156 1.397 . S
C157 C158 1.385 . S
C158 H141 0.940 . S
C158 C157 1.385 . S
C158 C159 1.388 . S
C159 H138 0.939 . S
C159 C154 1.391 . S
C159 C158 1.388 . S
P160 O171 1.490 . S
P160 C174 1.812 . S
P160 C180 1.803 . S
P160 C186 1.819 . S
H161 C175 0.941 . S
H162 C176 0.939 . S
H163 C178 0.940 . S
H164 C179 0.940 . S
H165 C181 0.939 . S
H166 C182 0.942 . S
H167 C184 0.940 . S
H168 C185 0.939 . S
H169 C187 0.941 . S
H170 C191 0.939 . S
O171 P160 1.490 . S
H172 C188 0.939 . S
H173 C190 0.940 . S
C174 P160 1.812 . S
C174 C175 1.389 . S
C174 C179 1.391 . S
C175 H161 0.941 . S
C175 C174 1.389 . S
C175 C176 1.397 . S
C176 H162 0.939 . S
C176 C175 1.397 . S
C176 C177 1.378 . S
C177 C176 1.378 . S
C177 C178 1.378 . S
C178 H163 0.940 . S
C178 C177 1.378 . S
C178 C179 1.396 . S
C179 H164 0.940 . S
C179 C174 1.391 . S
C179 C178 1.396 . S
C180 P160 1.803 . S
C180 C181 1.378 . S
C180 C185 1.400 . S
C181 H165 0.939 . S
C181 C180 1.378 . S
C181 C182 1.361 . S
C182 H166 0.942 . S
C182 C181 1.361 . S
C182 C183 1.369 . S
C183 C182 1.369 . S
C183 C184 1.404 . S
C184 H167 0.940 . S
C184 C183 1.404 . S
C184 C185 1.389 . S
C185 H168 0.939 . S
C185 C180 1.400 . S
C185 C184 1.389 . S
C186 P160 1.819 . S
C186 C187 1.391 . S
C186 C191 1.391 . S
C187 H169 0.941 . S
C187 C186 1.391 . S
C187 C188 1.396 . S
C188 H172 0.939 . S
C188 C187 1.396 . S
C188 C189 1.397 . S
C189 C188 1.397 . S
C189 C190 1.385 . S
C190 H173 0.940 . S
C190 C189 1.385 . S
C190 C191 1.388 . S
C191 H170 0.939 . S
C191 C186 1.391 . S
C191 C190 1.388 . S
P192 O203 1.490 . S
P192 C206 1.812 . S
P192 C212 1.803 . S
P192 C218 1.819 . S
H193 C207 0.941 . S
H194 C208 0.939 . S
H195 C210 0.940 . S
H196 C211 0.940 . S
H197 C213 0.939 . S
H198 C214 0.942 . S
H199 C216 0.940 . S
H200 C217 0.939 . S
H201 C219 0.941 . S
H202 C223 0.939 . S
O203 P192 1.490 . S
H204 C220 0.939 . S
H205 C222 0.940 . S
C206 P192 1.812 . S
C206 C207 1.389 . S
C206 C211 1.391 . S
C207 H193 0.941 . S
C207 C206 1.389 . S
C207 C208 1.397 . S
C208 H194 0.939 . S
C208 C207 1.397 . S
C208 C209 1.378 . S
C209 C208 1.378 . S
C209 C210 1.378 . S
C210 H195 0.940 . S
C210 C209 1.378 . S
C210 C211 1.396 . S
C211 H196 0.940 . S
C211 C206 1.391 . S
C211 C210 1.396 . S
C212 P192 1.803 . S
C212 C213 1.378 . S
C212 C217 1.400 . S
C213 H197 0.939 . S
C213 C212 1.378 . S
C213 C214 1.361 . S
C214 H198 0.942 . S
C214 C213 1.361 . S
C214 C215 1.369 . S
C215 C214 1.369 . S
C215 C216 1.404 . S
C216 H199 0.940 . S
C216 C215 1.404 . S
C216 C217 1.389 . S
C217 H200 0.939 . S
C217 C212 1.400 . S
C217 C216 1.389 . S
C218 P192 1.819 . S
C218 C219 1.391 . S
C218 C223 1.391 . S
C219 H201 0.941 . S
C219 C218 1.391 . S
C219 C220 1.396 . S
C220 H204 0.939 . S
C220 C219 1.396 . S
C220 C221 1.397 . S
C221 C220 1.397 . S
C221 C222 1.385 . S
C222 H205 0.940 . S
C222 C221 1.385 . S
C222 C223 1.388 . S
C223 H202 0.939 . S
C223 C218 1.391 . S
C223 C222 1.388 . S
P224 O235 1.490 . S
P224 C238 1.812 . S
P224 C244 1.803 . S
P224 C250 1.819 . S
H225 C239 0.941 . S
H226 C240 0.939 . S
H227 C242 0.940 . S
H228 C243 0.940 . S
H229 C245 0.939 . S
H230 C246 0.942 . S
H231 C248 0.940 . S
H232 C249 0.939 . S
H233 C251 0.941 . S
H234 C255 0.939 . S
O235 P224 1.490 . S
H236 C252 0.939 . S
H237 C254 0.940 . S
C238 P224 1.812 . S
C238 C239 1.389 . S
C238 C243 1.391 . S
C239 H225 0.941 . S
C239 C238 1.389 . S
C239 C240 1.397 . S
C240 H226 0.939 . S
C240 C239 1.397 . S
C240 C241 1.378 . S
C241 C240 1.378 . S
C241 C242 1.378 . S
C242 H227 0.940 . S
C242 C241 1.378 . S
C242 C243 1.396 . S
C243 H228 0.940 . S
C243 C238 1.391 . S
C243 C242 1.396 . S
C244 P224 1.803 . S
C244 C245 1.378 . S
C244 C249 1.400 . S
C245 H229 0.939 . S
C245 C244 1.378 . S
C245 C246 1.361 . S
C246 H230 0.942 . S
C246 C245 1.361 . S
C246 C247 1.369 . S
C247 C246 1.369 . S
C247 C248 1.404 . S
C248 H231 0.940 . S
C248 C247 1.404 . S
C248 C249 1.389 . S
C249 H232 0.939 . S
C249 C244 1.400 . S
C249 C248 1.389 . S
C250 P224 1.819 . S
C250 C251 1.391 . S
C250 C255 1.391 . S
C251 H233 0.941 . S
C251 C250 1.391 . S
C251 C252 1.396 . S
C252 H236 0.939 . S
C252 C251 1.396 . S
C252 C253 1.397 . S
C253 C252 1.397 . S
C253 C254 1.385 . S
C254 H237 0.940 . S
C254 C253 1.385 . S
C254 C255 1.388 . S
C255 H234 0.939 . S
C255 C250 1.391 . S
C255 C254 1.388 . S
C256 C257 1.443 . S
C256 N260 1.376 . S
C256 C294 1.389 . S
C257 C256 1.443 . S
C257 C258 1.340 . S
C257 H297 0.951 . S
C258 C257 1.340 . S
C258 C259 1.439 . S
C258 H298 0.950 . S
C259 C258 1.439 . S
C259 N260 1.374 . S
C259 C293 1.395 . S
N260 C256 1.376 . S
N260 C259 1.374 . S
N260 Co261 2.008 . S
Co261 N260 2.008 . S
Co261 N262 1.995 . S
Co261 N267 2.008 . S
Co261 N272 1.995 . S
Co261 N277 2.282 . S
Co261 N283 2.292 . S
N262 Co261 1.995 . S
N262 C263 1.376 . S
N262 C266 1.383 1_455 S
C263 N262 1.376 . S
C263 C264 1.446 1_455 S
C263 C293 1.391 . S
C264 C263 1.446 1_655 S
C264 C265 1.339 . S
C264 H299 0.949 . S
C265 C264 1.339 . S
C265 C266 1.439 . S
C265 H300 0.950 . S
C266 N262 1.383 1_655 S
C266 C265 1.439 . S
C266 C295 1.392 . S
N267 Co261 2.008 . S
N267 C268 1.376 1_455 S
N267 C271 1.374 . S
C268 N267 1.376 1_655 S
C268 C269 1.443 . S
C268 C295 1.389 . S
C269 C268 1.443 . S
C269 C270 1.340 1_655 S
C269 H301 0.951 . S
C270 C269 1.340 1_455 S
C270 C271 1.439 . S
C270 H302 0.950 . S
C271 N267 1.374 . S
C271 C270 1.439 . S
C271 C296 1.395 . S
N272 Co261 1.995 . S
N272 C273 1.376 . S
N272 C276 1.383 . S
C273 N272 1.376 . S
C273 C274 1.446 . S
C273 C296 1.391 . S
C274 C273 1.446 . S
C274 C275 1.339 . S
C274 H303 0.949 . S
C275 C274 1.339 . S
C275 C276 1.439 . S
C275 H304 0.950 . S
C276 N272 1.383 . S
C276 C275 1.439 . S
C276 C294 1.392 . S
N277 Co261 2.282 . S
N277 C280 1.332 . S
N277 C282 1.332 . S
C278 C279 1.386 . S
C278 C281 1.388 . S
C279 C278 1.386 . S
C279 C280 1.382 . S
C279 H305 0.950 . S
C280 N277 1.332 . S
C280 C279 1.382 . S
C280 H291 0.952 . S
C281 C278 1.388 . S
C281 C282 1.382 . S
C281 H306 0.950 . S
C282 N277 1.332 . S
C282 C281 1.382 . S
C282 H292 0.948 . S
N283 Co261 2.292 . S
N283 C287 1.326 1_455 S
N283 C288 1.330 1_455 S
C284 C285 1.388 . S
C284 C288 1.382 . S
C284 H307 0.950 . S
C285 C284 1.388 . S
C285 C286 1.386 . S
C286 C285 1.386 . S
C286 C287 1.382 . S
C286 H308 0.950 . S
C287 N283 1.326 1_655 S
C287 C286 1.382 . S
C287 H289 0.952 . S
C288 N283 1.330 1_655 S
C288 C284 1.382 . S
C288 H290 0.948 1_655 S
H289 C287 0.952 . S
H290 C288 0.948 1_455 S
H291 C280 0.952 . S
H292 C282 0.948 . S
C293 C259 1.395 . S
C293 C263 1.391 . S
C294 C256 1.389 . S
C294 C276 1.392 . S
C295 C266 1.392 . S
C295 C268 1.389 . S
C296 C271 1.395 . S
C296 C273 1.391 . S
H297 C257 0.951 . S
H298 C258 0.950 . S
H299 C264 0.949 . S
H300 C265 0.950 . S
H301 C269 0.951 . S
H302 C270 0.950 . S
H303 C274 0.949 . S
H304 C275 0.950 . S
H305 C279 0.950 . S
H306 C281 0.950 . S
H307 C284 0.950 . S
H308 C286 0.950 . S
C309 C310 1.443 . S
C309 N313 1.376 . S
C309 C347 1.389 . S
C310 C309 1.443 . S
C310 C311 1.340 . S
C310 H350 0.951 . S
C311 C310 1.340 . S
C311 C312 1.439 . S
C311 H351 0.950 . S
C312 C311 1.439 . S
C312 N313 1.374 . S
C312 C346 1.395 . S
N313 C309 1.376 . S
N313 C312 1.374 . S
N313 Co314 2.008 . S
Co314 N313 2.008 . S
Co314 N315 1.995 1_455 S
Co314 N320 2.008 1_455 S
Co314 N325 1.995 . S
Co314 N330 2.282 . S
Co314 N336 2.282 1_455 S
N315 Co314 1.995 1_655 S
N315 C316 1.376 . S
N315 C319 1.383 . S
C316 N315 1.376 . S
C316 C317 1.446 . S
C316 C346 1.391 1_655 S
C317 C316 1.446 . S
C317 C318 1.339 . S
C317 H352 0.949 . S
C318 C317 1.339 . S
C318 C319 1.439 . S
C318 H353 0.950 . S
C319 N315 1.383 . S
C319 C318 1.439 . S
C319 C348 1.392 . S
N320 Co314 2.008 1_655 S
N320 C321 1.376 . S
N320 C324 1.374 . S
C321 N320 1.376 . S
C321 C322 1.443 . S
C321 C348 1.389 . S
C322 C321 1.443 . S
C322 C323 1.340 . S
C322 H354 0.951 . S
C323 C322 1.340 . S
C323 C324 1.439 . S
C323 H355 0.950 . S
C324 N320 1.374 . S
C324 C323 1.439 . S
C324 C349 1.395 1_655 S
N325 Co314 1.995 . S
N325 C326 1.376 . S
N325 C329 1.383 . S
C326 N325 1.376 . S
C326 C327 1.446 . S
C326 C349 1.391 . S
C327 C326 1.446 . S
C327 C328 1.339 . S
C327 H356 0.949 . S
C328 C327 1.339 . S
C328 C329 1.439 . S
C328 H357 0.950 . S
C329 N325 1.383 . S
C329 C328 1.439 . S
C329 C347 1.392 . S
N330 Co314 2.282 . S
N330 C333 1.332 . S
N330 C335 1.332 . S
C331 C332 1.386 . S
C331 C334 1.388 . S
C332 C331 1.386 . S
C332 C333 1.382 . S
C332 H358 0.950 . S
C333 N330 1.332 . S
C333 C332 1.382 . S
C333 H344 0.952 . S
C334 C331 1.388 . S
C334 C335 1.382 . S
C334 H359 0.950 . S
C335 N330 1.332 . S
C335 C334 1.382 . S
C335 H345 0.948 . S
N336 Co314 2.282 1_655 S
N336 C340 1.332 . S
N336 C341 1.332 . S
C337 C338 1.388 . S
C337 C341 1.382 . S
C337 H360 0.950 . S
C338 C337 1.388 . S
C338 C339 1.386 . S
C339 C338 1.386 . S
C339 C340 1.382 . S
C339 H361 0.950 . S
C340 N336 1.332 . S
C340 C339 1.382 . S
C340 H342 0.952 . S
C341 N336 1.332 . S
C341 C337 1.382 . S
C341 H343 0.948 . S
H342 C340 0.952 . S
H343 C341 0.948 . S
H344 C333 0.952 . S
H345 C335 0.948 . S
C346 C312 1.395 . S
C346 C316 1.391 1_455 S
C347 C309 1.389 . S
C347 C329 1.392 . S
C348 C319 1.392 . S
C348 C321 1.389 . S
C349 C324 1.395 1_455 S
C349 C326 1.391 . S
H350 C310 0.951 . S
H351 C311 0.950 . S
H352 C317 0.949 . S
H353 C318 0.950 . S
H354 C322 0.951 . S
H355 C323 0.950 . S
H356 C327 0.949 . S
H357 C328 0.950 . S
H358 C332 0.950 . S
H359 C334 0.950 . S
H360 C337 0.950 . S
H361 C339 0.950 . S
C362 C363 1.443 . S
C362 N366 1.420 . S
C362 C400 1.389 . S
C363 C362 1.443 . S
C363 C364 1.340 . S
C363 H403 0.951 . S
C364 C363 1.340 . S
C364 C365 1.399 1_565 S
C364 H404 0.950 . S
C365 C364 1.399 1_545 S
C365 N366 1.378 1_545 S
C365 C399 1.429 . S
N366 C362 1.420 . S
N366 C365 1.378 1_565 S
N366 Co367 1.978 1_565 S
Co367 N366 1.978 1_545 S
Co367 N368 1.995 . S
Co367 N373 2.008 . S
Co367 N378 1.995 1_545 S
Co367 N383 2.282 . S
Co367 N389 2.282 1_545 S
N368 Co367 1.995 . S
N368 C369 1.376 . S
N368 C372 1.383 . S
C369 N368 1.376 . S
C369 C370 1.446 . S
C369 C399 1.391 . S
C370 C369 1.446 . S
C370 C371 1.339 . S
C370 H405 0.949 . S
C371 C370 1.339 . S
C371 C372 1.439 . S
C371 H406 0.950 . S
C372 N368 1.383 . S
C372 C371 1.439 . S
C372 C401 1.392 . S
N373 Co367 2.008 . S
N373 C374 1.376 . S
N373 C377 1.374 . S
C374 N373 1.376 . S
C374 C375 1.443 . S
C374 C401 1.389 . S
C375 C374 1.443 . S
C375 C376 1.340 . S
C375 H407 0.951 . S
C376 C375 1.340 . S
C376 C377 1.439 . S
C376 H408 0.950 . S
C377 N373 1.374 . S
C377 C376 1.439 . S
C377 C402 1.395 . S
N378 Co367 1.995 1_565 S
N378 C379 1.375 1_565 S
N378 C382 1.383 . S
C379 N378 1.375 1_545 S
C379 C380 1.441 1_545 S
C379 C402 1.396 . S
C380 C379 1.441 1_565 S
C380 C381 1.339 . S
C380 H409 0.949 . S
C381 C380 1.339 . S
C381 C382 1.439 . S
C381 H410 0.950 . S
C382 N378 1.383 . S
C382 C381 1.439 . S
C382 C400 1.392 . S
N383 Co367 2.282 . S
N383 C386 1.332 . S
N383 C388 1.332 . S
C384 C385 1.386 . S
C384 C387 1.388 . S
C385 C384 1.386 . S
C385 C386 1.382 . S
C385 H411 0.950 . S
C386 N383 1.332 . S
C386 C385 1.382 . S
C386 H397 0.952 . S
C387 C384 1.388 . S
C387 C388 1.382 . S
C387 H412 0.950 . S
C388 N383 1.332 . S
C388 C387 1.382 . S
C388 H398 0.948 . S
N389 Co367 2.282 1_565 S
N389 C393 1.332 . S
N389 C394 1.332 . S
C390 C391 1.388 . S
C390 C394 1.382 . S
C390 H413 0.950 . S
C391 C390 1.388 . S
C391 C392 1.386 . S
C392 C391 1.386 . S
C392 C393 1.382 . S
C392 H414 0.950 . S
C393 N389 1.332 . S
C393 C392 1.382 . S
C393 H395 0.952 . S
C394 N389 1.332 . S
C394 C390 1.382 . S
C394 H396 0.948 . S
H395 C393 0.952 . S
H396 C394 0.948 . S
H397 C386 0.952 . S
H398 C388 0.948 . S
C399 C365 1.429 . S
C399 C369 1.391 . S
C400 C362 1.389 . S
C400 C382 1.392 . S
C401 C372 1.392 . S
C401 C374 1.389 . S
C402 C377 1.395 . S
C402 C379 1.396 . S
H403 C363 0.951 . S
H404 C364 0.950 . S
H405 C370 0.949 . S
H406 C371 0.950 . S
H407 C375 0.951 . S
H408 C376 0.950 . S
H409 C380 0.949 . S
H410 C381 0.950 . S
H411 C385 0.950 . S
H412 C387 0.950 . S
H413 C390 0.950 . S
H414 C392 0.950 . S
C415 C416 1.443 . S
C415 N419 1.376 . S
C415 C453 1.389 . S
C416 C415 1.443 . S
C416 C417 1.340 . S
C416 H456 0.951 . S
C417 C416 1.340 . S
C417 C418 1.439 . S
C417 H457 0.950 . S
C418 C417 1.439 . S
C418 N419 1.374 . S
C418 C452 1.395 . S
N419 C415 1.376 . S
N419 C418 1.374 . S
N419 Co420 2.008 . S
Co420 N419 2.008 . S
Co420 N421 1.995 . S
Co420 N426 2.014 . S
Co420 N431 1.995 . S
Co420 N436 2.282 1_554 S
Co420 N442 2.282 . S
N421 Co420 1.995 . S
N421 C422 1.376 . S
N421 C425 1.383 1_554 S
C422 N421 1.376 . S
C422 C423 1.446 1_554 S
C422 C452 1.391 . S
C423 C422 1.446 1_556 S
C423 C424 1.339 . S
C423 H458 0.949 . S
C424 C423 1.339 . S
C424 C425 1.439 . S
C424 H459 0.950 . S
C425 N421 1.383 1_556 S
C425 C424 1.439 . S
C425 C454 1.392 . S
N426 Co420 2.014 . S
N426 C427 1.368 1_554 S
N426 C430 1.374 . S
C427 N426 1.368 1_556 S
C427 C428 1.443 . S
C427 C454 1.389 . S
C428 C427 1.443 . S
C428 C429 1.340 . S
C428 H460 0.951 . S
C429 C428 1.340 . S
C429 C430 1.439 1_556 S
C429 H461 0.950 . S
C430 N426 1.374 . S
C430 C429 1.439 1_554 S
C430 C455 1.395 . S
N431 Co420 1.995 . S
N431 C432 1.376 . S
N431 C435 1.383 . S
C432 N431 1.376 . S
C432 C433 1.446 . S
C432 C455 1.391 . S
C433 C432 1.446 . S
C433 C434 1.339 . S
C433 H462 0.949 . S
C434 C433 1.339 . S
C434 C435 1.439 . S
C434 H463 0.950 . S
C435 N431 1.383 . S
C435 C434 1.439 . S
C435 C453 1.392 . S
N436 Co420 2.282 1_556 S
N436 C439 1.332 . S
N436 C441 1.332 . S
C437 C438 1.386 . S
C437 C440 1.388 . S
C438 C437 1.386 . S
C438 C439 1.382 . S
C438 H464 0.950 . S
C439 N436 1.332 . S
C439 C438 1.382 . S
C439 H450 0.952 . S
C440 C437 1.388 . S
C440 C441 1.382 . S
C440 H465 0.950 . S
C441 N436 1.332 . S
C441 C440 1.382 . S
C441 H451 0.948 . S
N442 Co420 2.282 . S
N442 C446 1.332 . S
N442 C447 1.332 . S
C443 C444 1.388 . S
C443 C447 1.382 . S
C443 H466 0.950 . S
C444 C443 1.388 . S
C444 C445 1.386 . S
C445 C444 1.386 . S
C445 C446 1.382 . S
C445 H467 0.950 . S
C446 N442 1.332 . S
C446 C445 1.382 . S
C446 H448 0.952 . S
C447 N442 1.332 . S
C447 C443 1.382 . S
C447 H449 0.948 . S
H448 C446 0.952 . S
H449 C447 0.948 . S
H450 C439 0.952 . S
H451 C441 0.948 . S
C452 C418 1.395 . S
C452 C422 1.391 . S
C453 C415 1.389 . S
C453 C435 1.392 . S
C454 C425 1.392 . S
C454 C427 1.389 . S
C455 C430 1.395 . S
C455 C432 1.391 . S
H456 C416 0.951 . S
H457 C417 0.950 . S
H458 C423 0.949 . S
H459 C424 0.950 . S
H460 C428 0.951 . S
H461 C429 0.950 . S
H462 C433 0.949 . S
H463 C434 0.950 . S
H464 C438 0.950 . S
H465 C440 0.950 . S
H466 C443 0.950 . S
H467 C445 0.950 . S
C468 C469 1.443 . S
C468 N472 1.376 . S
C468 C506 1.389 . S
C469 C468 1.443 . S
C469 C470 1.340 . S
C469 H509 0.951 . S
C470 C469 1.340 . S
C470 C471 1.439 . S
C470 H510 0.950 . S
C471 C470 1.439 . S
C471 N472 1.374 . S
C471 C505 1.395 1_565 S
N472 C468 1.376 . S
N472 C471 1.374 . S
N472 Co473 2.008 1_565 S
Co473 N472 2.008 1_545 S
Co473 N474 1.995 . S
Co473 N479 2.008 . S
Co473 N484 1.995 1_545 S
Co473 N489 2.282 . S
Co473 N495 2.282 1_545 S
N474 Co473 1.995 . S
N474 C475 1.376 . S
N474 C478 1.383 . S
C475 N474 1.376 . S
C475 C476 1.446 . S
C475 C505 1.391 . S
C476 C475 1.446 . S
C476 C477 1.339 . S
C476 H511 0.949 . S
C477 C476 1.339 . S
C477 C478 1.439 . S
C477 H512 0.950 . S
C478 N474 1.383 . S
C478 C477 1.439 . S
C478 C507 1.392 . S
N479 Co473 2.008 . S
N479 C480 1.376 . S
N479 C483 1.374 . S
C480 N479 1.376 . S
C480 C481 1.443 . S
C480 C507 1.389 . S
C481 C480 1.443 . S
C481 C482 1.340 . S
C481 H513 0.951 . S
C482 C481 1.340 . S
C482 C483 1.439 . S
C482 H514 0.950 . S
C483 N479 1.374 . S
C483 C482 1.439 . S
C483 C508 1.395 . S
N484 Co473 1.995 1_565 S
N484 C485 1.376 . S
N484 C488 1.383 . S
C485 N484 1.376 . S
C485 C486 1.446 . S
C485 C508 1.391 1_565 S
C486 C485 1.446 . S
C486 C487 1.339 . S
C486 H515 0.949 . S
C487 C486 1.339 . S
C487 C488 1.439 . S
C487 H516 0.950 . S
C488 N484 1.383 . S
C488 C487 1.439 . S
C488 C506 1.392 . S
N489 Co473 2.282 . S
N489 C492 1.332 . S
N489 C494 1.332 . S
C490 C491 1.386 . S
C490 C493 1.388 . S
C491 C490 1.386 . S
C491 C492 1.382 . S
C491 H517 0.950 . S
C492 N489 1.332 . S
C492 C491 1.382 . S
C492 H503 0.952 . S
C493 C490 1.388 . S
C493 C494 1.382 . S
C493 H518 0.950 . S
C494 N489 1.332 . S
C494 C493 1.382 . S
C494 H504 0.948 . S
N495 Co473 2.282 1_565 S
N495 C499 1.332 . S
N495 C500 1.332 . S
C496 C497 1.388 . S
C496 C500 1.382 . S
C496 H519 0.950 . S
C497 C496 1.388 . S
C497 C498 1.386 . S
C498 C497 1.386 . S
C498 C499 1.382 . S
C498 H520 0.950 . S
C499 N495 1.332 . S
C499 C498 1.382 . S
C499 H501 0.952 . S
C500 N495 1.332 . S
C500 C496 1.382 . S
C500 H502 0.948 . S
H501 C499 0.952 . S
H502 C500 0.948 . S
H503 C492 0.952 . S
H504 C494 0.948 . S
C505 C471 1.395 1_545 S
C505 C475 1.391 . S
C506 C468 1.389 . S
C506 C488 1.392 . S
C507 C478 1.392 . S
C507 C480 1.389 . S
C508 C483 1.395 . S
C508 C485 1.391 1_545 S
H509 C469 0.951 . S
H510 C470 0.950 . S
H511 C476 0.949 . S
H512 C477 0.950 . S
H513 C481 0.951 . S
H514 C482 0.950 . S
H515 C486 0.949 . S
H516 C487 0.950 . S
H517 C491 0.950 . S
H518 C493 0.950 . S
H519 C496 0.950 . S
H520 C498 0.950 . S
C521 C522 1.443 . S
C521 N525 1.376 . S
C521 C559 1.389 . S
C522 C521 1.443 . S
C522 C523 1.340 . S
C522 H562 0.951 . S
C523 C522 1.340 . S
C523 C524 1.439 . S
C523 H563 0.950 . S
C524 C523 1.439 . S
C524 N525 1.374 . S
C524 C558 1.395 . S
N525 C521 1.376 . S
N525 C524 1.374 . S
N525 Co526 2.008 . S
Co526 N525 2.008 . S
Co526 N527 1.995 . S
Co526 N532 2.008 . S
Co526 N537 1.995 . S
Co526 N542 2.282 . S
Co526 N548 2.282 . S
N527 Co526 1.995 . S
N527 C528 1.376 . S
N527 C531 1.383 1_554 S
C528 N527 1.376 . S
C528 C529 1.446 1_554 S
C528 C558 1.391 . S
C529 C528 1.446 1_556 S
C529 C530 1.339 . S
C529 H564 0.949 . S
C530 C529 1.339 . S
C530 C531 1.439 . S
C530 H565 0.950 . S
C531 N527 1.383 1_556 S
C531 C530 1.439 . S
C531 C560 1.392 . S
N532 Co526 2.008 . S
N532 C533 1.376 1_554 S
N532 C536 1.374 . S
C533 N532 1.376 1_556 S
C533 C534 1.443 . S
C533 C560 1.389 . S
C534 C533 1.443 . S
C534 C535 1.340 . S
C534 H566 0.951 . S
C535 C534 1.340 . S
C535 C536 1.439 1_556 S
C535 H567 0.950 . S
C536 N532 1.374 . S
C536 C535 1.439 1_554 S
C536 C561 1.395 . S
N537 Co526 1.995 . S
N537 C538 1.376 . S
N537 C541 1.383 . S
C538 N537 1.376 . S
C538 C539 1.446 . S
C538 C561 1.391 . S
C539 C538 1.446 . S
C539 C540 1.339 . S
C539 H568 0.949 . S
C540 C539 1.339 . S
C540 C541 1.439 . S
C540 H569 0.950 . S
C541 N537 1.383 . S
C541 C540 1.439 . S
C541 C559 1.392 . S
N542 Co526 2.282 . S
N542 C545 1.332 1_554 S
N542 C547 1.332 1_554 S
C543 C544 1.386 . S
C543 C546 1.388 . S
C544 C543 1.386 . S
C544 C545 1.382 . S
C544 H570 0.950 . S
C545 N542 1.332 1_556 S
C545 C544 1.382 . S
C545 H556 0.952 1_556 S
C546 C543 1.388 . S
C546 C547 1.382 . S
C546 H571 0.950 . S
C547 N542 1.332 1_556 S
C547 C546 1.382 . S
C547 H557 0.948 . S
N548 Co526 2.282 . S
N548 C552 1.332 . S
N548 C553 1.332 . S
C549 C550 1.388 . S
C549 C553 1.382 . S
C549 H572 0.950 . S
C550 C549 1.388 . S
C550 C551 1.386 . S
C551 C550 1.386 . S
C551 C552 1.382 . S
C551 H573 0.950 . S
C552 N548 1.332 . S
C552 C551 1.382 . S
C552 H554 0.952 . S
C553 N548 1.332 . S
C553 C549 1.382 . S
C553 H555 0.948 . S
H554 C552 0.952 . S
H555 C553 0.948 . S
H556 C545 0.952 1_554 S
H557 C547 0.948 . S
C558 C524 1.395 . S
C558 C528 1.391 . S
C559 C521 1.389 . S
C559 C541 1.392 . S
C560 C531 1.392 . S
C560 C533 1.389 . S
C561 C536 1.395 . S
C561 C538 1.391 . S
H562 C522 0.951 . S
H563 C523 0.950 . S
H564 C529 0.949 . S
H565 C530 0.950 . S
H566 C534 0.951 . S
H567 C535 0.950 . S
H568 C539 0.949 . S
H569 C540 0.950 . S
H570 C544 0.950 . S
H571 C546 0.950 . S
H572 C549 0.950 . S
H573 C551 0.950 . S
C574 C575 1.349 . S
C574 C576 1.327 . S
C574 H599 0.950 . S
C575 C574 1.349 . S
C575 C591 1.349 . S
C576 C574 1.327 . S
C576 C595 1.429 . S
C576 H600 0.950 . S
C577 C594 1.574 . S
C577 C596 1.368 . S
C577 H601 0.949 . S
H578 C582 0.949 . S
C579 C580 1.349 . S
C579 C581 1.327 . S
C579 H602 0.950 . S
C580 C579 1.349 . S
C580 C592 1.349 . S
C581 C579 1.327 . S
C581 C597 1.429 . S
C581 H603 0.950 . S
C582 H578 0.949 . S
C582 C590 1.574 . S
C582 C598 1.368 . S
H583 C591 0.950 . S
H584 C589 0.950 . S
H585 C590 0.949 . S
H586 C592 0.950 . S
H587 C593 0.950 . S
H588 C594 0.949 . S
C589 H584 0.950 . S
C589 C591 1.327 . S
C589 C595 1.429 . S
C590 C582 1.574 . S
C590 H585 0.949 . S
C590 C596 1.368 . S
C591 C575 1.349 . S
C591 H583 0.950 . S
C591 C589 1.327 . S
C592 C580 1.349 . S
C592 H586 0.950 . S
C592 C593 1.327 . S
C593 H587 0.950 . S
C593 C592 1.327 . S
C593 C597 1.429 . S
C594 C577 1.574 . S
C594 H588 0.949 . S
C594 C598 1.368 . S
C595 C576 1.429 . S
C595 C589 1.429 . S
C595 C596 1.523 . S
C596 C577 1.368 . S
C596 C590 1.368 . S
C596 C595 1.523 . S
C597 C581 1.429 . S
C597 C593 1.429 . S
C597 C598 1.523 . S
C598 C582 1.368 . S
C598 C594 1.368 . S
C598 C597 1.523 . S
H599 C574 0.950 . S
H600 C576 0.950 . S
H601 C577 0.949 . S
H602 C579 0.950 . S
H603 C581 0.950 . S
C604 C605 1.349 . S
C604 C606 1.327 . S
C604 H629 0.950 . S
C605 C604 1.349 . S
C605 C621 1.349 . S
C606 C604 1.327 . S
C606 C625 1.429 . S
C606 H630 0.950 . S
C607 C624 1.574 . S
C607 C626 1.368 . S
C607 H631 0.949 . S
H608 C612 0.949 . S
C609 C610 1.349 . S
C609 C611 1.327 . S
C609 H632 0.950 . S
C610 C609 1.349 . S
C610 C622 1.349 . S
C611 C609 1.327 . S
C611 C627 1.429 . S
C611 H633 0.950 . S
C612 H608 0.949 . S
C612 C620 1.574 . S
C612 C628 1.368 . S
H613 C621 0.950 . S
H614 C619 0.950 . S
H615 C620 0.949 . S
H616 C622 0.950 . S
H617 C623 0.950 . S
H618 C624 0.949 . S
C619 H614 0.950 . S
C619 C621 1.327 . S
C619 C625 1.429 . S
C620 C612 1.574 . S
C620 H615 0.949 . S
C620 C626 1.368 . S
C621 C605 1.349 . S
C621 H613 0.950 . S
C621 C619 1.327 . S
C622 C610 1.349 . S
C622 H616 0.950 . S
C622 C623 1.327 . S
C623 H617 0.950 . S
C623 C622 1.327 . S
C623 C627 1.429 . S
C624 C607 1.574 . S
C624 H618 0.949 . S
C624 C628 1.368 . S
C625 C606 1.429 . S
C625 C619 1.429 . S
C625 C626 1.523 . S
C626 C607 1.368 . S
C626 C620 1.368 . S
C626 C625 1.523 . S
C627 C611 1.429 . S
C627 C623 1.429 . S
C627 C628 1.523 . S
C628 C612 1.368 . S
C628 C624 1.368 . S
C628 C627 1.523 . S
H629 C604 0.950 . S
H630 C606 0.950 . S
H631 C607 0.949 . S
H632 C609 0.950 . S
H633 C611 0.950 . S
C634 C635 1.349 . S
C634 C636 1.327 . S
C634 H659 0.950 . S
C635 C634 1.349 . S
C635 C651 1.349 . S
C636 C634 1.327 . S
C636 C655 1.429 . S
C636 H660 0.950 . S
C637 C654 1.574 . S
C637 C656 1.368 . S
C637 H661 0.949 . S
H638 C642 0.949 . S
C639 C640 1.349 . S
C639 C641 1.327 . S
C639 H662 0.950 . S
C640 C639 1.349 . S
C640 C652 1.349 . S
C641 C639 1.327 . S
C641 C657 1.429 . S
C641 H663 0.950 . S
C642 H638 0.949 . S
C642 C650 1.574 . S
C642 C658 1.368 . S
H643 C651 0.950 . S
H644 C649 0.950 . S
H645 C650 0.949 . S
H646 C652 0.950 . S
H647 C653 0.950 . S
H648 C654 0.949 . S
C649 H644 0.950 . S
C649 C651 1.327 . S
C649 C655 1.429 . S
C650 C642 1.574 . S
C650 H645 0.949 . S
C650 C656 1.368 . S
C651 C635 1.349 . S
C651 H643 0.950 . S
C651 C649 1.327 . S
C652 C640 1.349 . S
C652 H646 0.950 . S
C652 C653 1.327 . S
C653 H647 0.950 . S
C653 C652 1.327 . S
C653 C657 1.429 . S
C654 C637 1.574 . S
C654 H648 0.949 . S
C654 C658 1.368 . S
C655 C636 1.429 . S
C655 C649 1.429 . S
C655 C656 1.523 . S
C656 C637 1.368 . S
C656 C650 1.368 . S
C656 C655 1.523 . S
C657 C641 1.429 . S
C657 C653 1.429 . S
C657 C658 1.523 . S
C658 C642 1.368 . S
C658 C654 1.368 . S
C658 C657 1.523 . S
H659 C634 0.950 . S
H660 C636 0.950 . S
H661 C637 0.949 . S
H662 C639 0.950 . S
H663 C641 0.950 . S
C664 C665 1.349 . S
C664 C666 1.327 . S
C664 H689 0.950 . S
C665 C664 1.349 . S
C665 C681 1.349 . S
C666 C664 1.327 . S
C666 C685 1.429 . S
C666 H690 0.950 . S
C667 C684 1.574 . S
C667 C686 1.368 . S
C667 H691 0.949 . S
H668 C672 0.949 . S
C669 C670 1.349 . S
C669 C671 1.327 . S
C669 H692 0.950 . S
C670 C669 1.349 . S
C670 C682 1.349 . S
C671 C669 1.327 . S
C671 C687 1.429 . S
C671 H693 0.950 . S
C672 H668 0.949 . S
C672 C680 1.574 . S
C672 C688 1.368 . S
H673 C681 0.950 . S
H674 C679 0.950 . S
H675 C680 0.949 . S
H676 C682 0.950 . S
H677 C683 0.950 . S
H678 C684 0.949 . S
C679 H674 0.950 . S
C679 C681 1.327 . S
C679 C685 1.429 . S
C680 C672 1.574 . S
C680 H675 0.949 . S
C680 C686 1.368 . S
C681 C665 1.349 . S
C681 H673 0.950 . S
C681 C679 1.327 . S
C682 C670 1.349 . S
C682 H676 0.950 . S
C682 C683 1.327 . S
C683 H677 0.950 . S
C683 C682 1.327 . S
C683 C687 1.429 . S
C684 C667 1.574 . S
C684 H678 0.949 . S
C684 C688 1.368 . S
C685 C666 1.429 . S
C685 C679 1.429 . S
C685 C686 1.523 . S
C686 C667 1.368 . S
C686 C680 1.368 . S
C686 C685 1.523 . S
C687 C671 1.429 . S
C687 C683 1.429 . S
C687 C688 1.523 . S
C688 C672 1.368 . S
C688 C684 1.368 . S
C688 C687 1.523 . S
H689 C664 0.950 . S
H690 C666 0.950 . S
H691 C667 0.949 . S
H692 C669 0.950 . S
H693 C671 0.950 . S
C694 C695 1.349 . S
C694 C696 1.327 . S
C694 H719 0.950 . S
C695 C694 1.349 . S
C695 C711 1.349 . S
C696 C694 1.327 . S
C696 C715 1.429 . S
C696 H720 0.950 . S
C697 C714 1.574 . S
C697 C716 1.368 . S
C697 H721 0.949 . S
H698 C702 0.949 . S
C699 C700 1.349 . S
C699 C701 1.327 . S
C699 H722 0.950 . S
C700 C699 1.349 . S
C700 C712 1.349 . S
C701 C699 1.327 . S
C701 C717 1.429 . S
C701 H723 0.950 . S
C702 H698 0.949 . S
C702 C710 1.574 . S
C702 C718 1.368 . S
H703 C711 0.950 . S
H704 C709 0.950 . S
H705 C710 0.949 . S
H706 C712 0.950 . S
H707 C713 0.950 . S
H708 C714 0.949 . S
C709 H704 0.950 . S
C709 C711 1.327 . S
C709 C715 1.429 . S
C710 C702 1.574 . S
C710 H705 0.949 . S
C710 C716 1.368 . S
C711 C695 1.349 . S
C711 H703 0.950 . S
C711 C709 1.327 . S
C712 C700 1.349 . S
C712 H706 0.950 . S
C712 C713 1.327 . S
C713 H707 0.950 . S
C713 C712 1.327 . S
C713 C717 1.429 . S
C714 C697 1.574 . S
C714 H708 0.949 . S
C714 C718 1.368 . S
C715 C696 1.429 . S
C715 C709 1.429 . S
C715 C716 1.523 . S
C716 C697 1.368 . S
C716 C710 1.368 . S
C716 C715 1.523 . S
C717 C701 1.429 . S
C717 C713 1.429 . S
C717 C718 1.523 . S
C718 C702 1.368 . S
C718 C714 1.368 . S
C718 C717 1.523 . S
H719 C694 0.950 . S
H720 C696 0.950 . S
H721 C697 0.949 . S
H722 C699 0.950 . S
H723 C701 0.950 . S
C724 C725 1.349 . S
C724 C726 1.327 . S
C724 H749 0.950 . S
C725 C724 1.349 . S
C725 C741 1.349 . S
C726 C724 1.327 . S
C726 C745 1.429 . S
C726 H750 0.950 . S
C727 C744 1.574 . S
C727 C746 1.368 . S
C727 H751 0.949 . S
H728 C732 0.949 . S
C729 C730 1.349 . S
C729 C731 1.327 . S
C729 H752 0.950 . S
C730 C729 1.349 . S
C730 C742 1.349 . S
C731 C729 1.327 . S
C731 C747 1.429 . S
C731 H753 0.950 . S
C732 H728 0.949 . S
C732 C740 1.574 . S
C732 C748 1.368 . S
H733 C741 0.950 . S
H734 C739 0.950 . S
H735 C740 0.949 . S
H736 C742 0.950 . S
H737 C743 0.950 . S
H738 C744 0.949 . S
C739 H734 0.950 . S
C739 C741 1.327 . S
C739 C745 1.429 . S
C740 C732 1.574 . S
C740 H735 0.949 . S
C740 C746 1.368 . S
C741 C725 1.349 . S
C741 H733 0.950 . S
C741 C739 1.327 . S
C742 C730 1.349 . S
C742 H736 0.950 . S
C742 C743 1.327 . S
C743 H737 0.950 . S
C743 C742 1.327 . S
C743 C747 1.429 . S
C744 C727 1.574 . S
C744 H738 0.949 . S
C744 C748 1.368 . S
C745 C726 1.429 . S
C745 C739 1.429 . S
C745 C746 1.523 . S
C746 C727 1.368 . S
C746 C740 1.368 . S
C746 C745 1.523 . S
C747 C731 1.429 . S
C747 C743 1.429 . S
C747 C748 1.523 . S
C748 C732 1.368 . S
C748 C744 1.368 . S
C748 C747 1.523 . S
H749 C724 0.950 . S
H750 C726 0.950 . S
H751 C727 0.949 . S
H752 C729 0.950 . S
H753 C731 0.950 . S
C754 C755 1.349 . S
C754 C756 1.327 . S
C754 H779 0.950 . S
C755 C754 1.349 . S
C755 C771 1.349 . S
C756 C754 1.327 . S
C756 C775 1.429 . S
C756 H780 0.950 . S
C757 C774 1.574 . S
C757 C776 1.368 . S
C757 H781 0.949 . S
H758 C762 0.949 . S
C759 C760 1.349 . S
C759 C761 1.327 . S
C759 H782 0.950 . S
C760 C759 1.349 . S
C760 C772 1.349 . S
C761 C759 1.327 . S
C761 C777 1.429 . S
C761 H783 0.950 . S
C762 H758 0.949 . S
C762 C770 1.574 . S
C762 C778 1.368 . S
H763 C771 0.950 . S
H764 C769 0.950 . S
H765 C770 0.949 . S
H766 C772 0.950 . S
H767 C773 0.950 . S
H768 C774 0.949 . S
C769 H764 0.950 . S
C769 C771 1.327 . S
C769 C775 1.429 . S
C770 C762 1.574 . S
C770 H765 0.949 . S
C770 C776 1.368 . S
C771 C755 1.349 . S
C771 H763 0.950 . S
C771 C769 1.327 . S
C772 C760 1.349 . S
C772 H766 0.950 . S
C772 C773 1.327 . S
C773 H767 0.950 . S
C773 C772 1.327 . S
C773 C777 1.429 . S
C774 C757 1.574 . S
C774 H768 0.949 . S
C774 C778 1.368 . S
C775 C756 1.429 . S
C775 C769 1.429 . S
C775 C776 1.523 . S
C776 C757 1.368 . S
C776 C770 1.368 . S
C776 C775 1.523 . S
C777 C761 1.429 . S
C777 C773 1.429 . S
C777 C778 1.523 . S
C778 C762 1.368 . S
C778 C774 1.368 . S
C778 C777 1.523 . S
H779 C754 0.950 . S
H780 C756 0.950 . S
H781 C757 0.949 . S
H782 C759 0.950 . S
H783 C761 0.950 . S
C784 C785 1.349 . S
C784 C786 1.327 . S
C784 H809 0.950 . S
C785 C784 1.349 . S
C785 C801 1.349 . S
C786 C784 1.327 . S
C786 C805 1.429 . S
C786 H810 0.950 . S
C787 C804 1.574 . S
C787 C806 1.368 . S
C787 H811 0.949 . S
H788 C792 0.949 . S
C789 C790 1.349 . S
C789 C791 1.327 . S
C789 H812 0.950 . S
C790 C789 1.349 . S
C790 C802 1.349 . S
C791 C789 1.327 . S
C791 C807 1.429 . S
C791 H813 0.950 . S
C792 H788 0.949 . S
C792 C800 1.574 . S
C792 C808 1.368 . S
H793 C801 0.950 . S
H794 C799 0.950 . S
H795 C800 0.949 . S
H796 C802 0.950 . S
H797 C803 0.950 . S
H798 C804 0.949 . S
C799 H794 0.950 . S
C799 C801 1.327 . S
C799 C805 1.429 . S
C800 C792 1.574 . S
C800 H795 0.949 . S
C800 C806 1.368 . S
C801 C785 1.349 . S
C801 H793 0.950 . S
C801 C799 1.327 . S
C802 C790 1.349 . S
C802 H796 0.950 . S
C802 C803 1.327 . S
C803 H797 0.950 . S
C803 C802 1.327 . S
C803 C807 1.429 . S
C804 C787 1.574 . S
C804 H798 0.949 . S
C804 C808 1.368 . S
C805 C786 1.429 . S
C805 C799 1.429 . S
C805 C806 1.523 . S
C806 C787 1.368 . S
C806 C800 1.368 . S
C806 C805 1.523 . S
C807 C791 1.429 . S
C807 C803 1.429 . S
C807 C808 1.523 . S
C808 C792 1.368 . S
C808 C804 1.368 . S
C808 C807 1.523 . S
H809 C784 0.950 . S
H810 C786 0.950 . S
H811 C787 0.949 . S
H812 C789 0.950 . S
H813 C791 0.950 . S
C814 C815 1.349 . S
C814 C816 1.327 . S
C814 H839 0.950 . S
C815 C814 1.349 . S
C815 C831 1.349 . S
C816 C814 1.327 . S
C816 C835 1.429 . S
C816 H840 0.950 . S
C817 C834 1.574 . S
C817 C836 1.368 . S
C817 H841 0.949 . S
H818 C822 0.949 . S
C819 C820 1.349 . S
C819 C821 1.327 . S
C819 H842 0.950 . S
C820 C819 1.349 . S
C820 C832 1.349 . S
C821 C819 1.327 . S
C821 C837 1.429 . S
C821 H843 0.950 . S
C822 H818 0.949 . S
C822 C830 1.574 . S
C822 C838 1.368 . S
H823 C831 0.950 . S
H824 C829 0.950 . S
H825 C830 0.949 . S
H826 C832 0.950 . S
H827 C833 0.950 . S
H828 C834 0.949 . S
C829 H824 0.950 . S
C829 C831 1.327 . S
C829 C835 1.429 . S
C830 C822 1.574 . S
C830 H825 0.949 . S
C830 C836 1.368 . S
C831 C815 1.349 . S
C831 H823 0.950 . S
C831 C829 1.327 . S
C832 C820 1.349 . S
C832 H826 0.950 . S
C832 C833 1.327 . S
C833 H827 0.950 . S
C833 C832 1.327 . S
C833 C837 1.429 . S
C834 C817 1.574 . S
C834 H828 0.949 . S
C834 C838 1.368 . S
C835 C816 1.429 . S
C835 C829 1.429 . S
C835 C836 1.523 . S
C836 C817 1.368 . S
C836 C830 1.368 . S
C836 C835 1.523 . S
C837 C821 1.429 . S
C837 C833 1.429 . S
C837 C838 1.523 . S
C838 C822 1.368 . S
C838 C834 1.368 . S
C838 C837 1.523 . S
H839 C814 0.950 . S
H840 C816 0.950 . S
H841 C817 0.949 . S
H842 C819 0.950 . S
H843 C821 0.950 . S
C844 C845 1.349 . S
C844 C846 1.327 . S
C844 H869 0.950 . S
C845 C844 1.349 . S
C845 C861 1.349 . S
C846 C844 1.327 . S
C846 C865 1.429 . S
C846 H870 0.950 . S
C847 C864 1.574 . S
C847 C866 1.368 . S
C847 H871 0.949 . S
H848 C852 0.949 . S
C849 C850 1.349 . S
C849 C851 1.327 . S
C849 H872 0.950 . S
C850 C849 1.349 . S
C850 C862 1.349 . S
C851 C849 1.327 . S
C851 C867 1.429 . S
C851 H873 0.950 . S
C852 H848 0.949 . S
C852 C860 1.574 . S
C852 C868 1.368 . S
H853 C861 0.950 . S
H854 C859 0.950 . S
H855 C860 0.949 . S
H856 C862 0.950 . S
H857 C863 0.950 . S
H858 C864 0.949 . S
C859 H854 0.950 . S
C859 C861 1.327 . S
C859 C865 1.429 . S
C860 C852 1.574 . S
C860 H855 0.949 . S
C860 C866 1.368 . S
C861 C845 1.349 . S
C861 H853 0.950 . S
C861 C859 1.327 . S
C862 C850 1.349 . S
C862 H856 0.950 . S
C862 C863 1.327 . S
C863 H857 0.950 . S
C863 C862 1.327 . S
C863 C867 1.429 . S
C864 C847 1.574 . S
C864 H858 0.949 . S
C864 C868 1.368 . S
C865 C846 1.429 . S
C865 C859 1.429 . S
C865 C866 1.523 . S
C866 C847 1.368 . S
C866 C860 1.368 . S
C866 C865 1.523 . S
C867 C851 1.429 . S
C867 C863 1.429 . S
C867 C868 1.523 . S
C868 C852 1.368 . S
C868 C864 1.368 . S
C868 C867 1.523 . S
H869 C844 0.950 . S
H870 C846 0.950 . S
H871 C847 0.949 . S
H872 C849 0.950 . S
H873 C851 0.950 . S
C874 C875 1.349 . S
C874 C876 1.327 . S
C874 H899 0.950 . S
C875 C874 1.349 . S
C875 C891 1.349 . S
C876 C874 1.327 . S
C876 C895 1.429 . S
C876 H900 0.950 . S
C877 C894 1.574 . S
C877 C896 1.368 . S
C877 H901 0.949 . S
H878 C882 0.949 . S
C879 C880 1.349 . S
C879 C881 1.327 . S
C879 H902 0.950 . S
C880 C879 1.349 . S
C880 C892 1.349 . S
C881 C879 1.327 . S
C881 C897 1.429 . S
C881 H903 0.950 . S
C882 H878 0.949 . S
C882 C890 1.574 . S
C882 C898 1.368 . S
H883 C891 0.950 . S
H884 C889 0.950 . S
H885 C890 0.949 . S
H886 C892 0.950 . S
H887 C893 0.950 . S
H888 C894 0.949 . S
C889 H884 0.950 . S
C889 C891 1.327 . S
C889 C895 1.429 . S
C890 C882 1.574 . S
C890 H885 0.949 . S
C890 C896 1.368 . S
C891 C875 1.349 . S
C891 H883 0.950 . S
C891 C889 1.327 . S
C892 C880 1.349 . S
C892 H886 0.950 . S
C892 C893 1.327 . S
C893 H887 0.950 . S
C893 C892 1.327 . S
C893 C897 1.429 . S
C894 C877 1.574 . S
C894 H888 0.949 . S
C894 C898 1.368 . S
C895 C876 1.429 . S
C895 C889 1.429 . S
C895 C896 1.523 . S
C896 C877 1.368 . S
C896 C890 1.368 . S
C896 C895 1.523 . S
C897 C881 1.429 . S
C897 C893 1.429 . S
C897 C898 1.523 . S
C898 C882 1.368 . S
C898 C894 1.368 . S
C898 C897 1.523 . S
H899 C874 0.950 . S
H900 C876 0.950 . S
H901 C877 0.949 . S
H902 C879 0.950 . S
H903 C881 0.950 . S
C904 C905 1.349 . S
C904 C906 1.327 . S
C904 H929 0.950 . S
C905 C904 1.349 . S
C905 C921 1.349 . S
C906 C904 1.327 . S
C906 C925 1.429 . S
C906 H930 0.950 . S
C907 C924 1.574 . S
C907 C926 1.368 . S
C907 H931 0.949 . S
H908 C912 0.949 . S
C909 C910 1.349 . S
C909 C911 1.327 . S
C909 H932 0.950 . S
C910 C909 1.349 . S
C910 C922 1.349 . S
C911 C909 1.327 . S
C911 C927 1.429 . S
C911 H933 0.950 . S
C912 H908 0.949 . S
C912 C920 1.574 . S
C912 C928 1.368 . S
H913 C921 0.950 . S
H914 C919 0.950 . S
H915 C920 0.949 . S
H916 C922 0.950 . S
H917 C923 0.950 . S
H918 C924 0.949 . S
C919 H914 0.950 . S
C919 C921 1.327 . S
C919 C925 1.429 . S
C920 C912 1.574 . S
C920 H915 0.949 . S
C920 C926 1.368 . S
C921 C905 1.349 . S
C921 H913 0.950 . S
C921 C919 1.327 . S
C922 C910 1.349 . S
C922 H916 0.950 . S
C922 C923 1.327 . S
C923 H917 0.950 . S
C923 C922 1.327 . S
C923 C927 1.429 . S
C924 C907 1.574 . S
C924 H918 0.949 . S
C924 C928 1.368 . S
C925 C906 1.429 . S
C925 C919 1.429 . S
C925 C926 1.523 . S
C926 C907 1.368 . S
C926 C920 1.368 . S
C926 C925 1.523 . S
C927 C911 1.429 . S
C927 C923 1.429 . S
C927 C928 1.523 . S
C928 C912 1.368 . S
C928 C924 1.368 . S
C928 C927 1.523 . S
H929 C904 0.950 . S
H930 C906 0.950 . S
H931 C907 0.949 . S
H932 C909 0.950 . S
H933 C911 0.950 . S
C934 C935 1.349 . S
C934 C936 1.327 . S
C934 H959 0.950 . S
C935 C934 1.349 . S
C935 C951 1.349 . S
C936 C934 1.327 . S
C936 C955 1.429 . S
C936 H960 0.950 . S
C937 C954 1.574 . S
C937 C956 1.368 . S
C937 H961 0.949 . S
H938 C942 0.949 . S
C939 C940 1.349 . S
C939 C941 1.327 . S
C939 H962 0.950 . S
C940 C939 1.349 . S
C940 C952 1.349 . S
C941 C939 1.327 . S
C941 C957 1.429 . S
C941 H963 0.950 . S
C942 H938 0.949 . S
C942 C950 1.574 . S
C942 C958 1.368 . S
H943 C951 0.950 . S
H944 C949 0.950 . S
H945 C950 0.949 . S
H946 C952 0.950 . S
H947 C953 0.950 . S
H948 C954 0.949 . S
C949 H944 0.950 . S
C949 C951 1.327 . S
C949 C955 1.429 . S
C950 C942 1.574 . S
C950 H945 0.949 . S
C950 C956 1.368 . S
C951 C935 1.349 . S
C951 H943 0.950 . S
C951 C949 1.327 . S
C952 C940 1.349 . S
C952 H946 0.950 . S
C952 C953 1.327 . S
C953 H947 0.950 . S
C953 C952 1.327 . S
C953 C957 1.429 . S
C954 C937 1.574 . S
C954 H948 0.949 . S
C954 C958 1.368 . S
C955 C936 1.429 . S
C955 C949 1.429 . S
C955 C956 1.523 . S
C956 C937 1.368 . S
C956 C950 1.368 . S
C956 C955 1.523 . S
C957 C941 1.429 . S
C957 C953 1.429 . S
C957 C958 1.523 . S
C958 C942 1.368 . S
C958 C954 1.368 . S
C958 C957 1.523 . S
H959 C934 0.950 . S
H960 C936 0.950 . S
H961 C937 0.949 . S
H962 C939 0.950 . S
H963 C941 0.950 . S
C964 C965 1.349 . S
C964 C966 1.327 . S
C964 H989 0.950 . S
C965 C964 1.349 . S
C965 C981 1.349 . S
C966 C964 1.327 . S
C966 C985 1.429 . S
C966 H990 0.950 . S
C967 C984 1.574 . S
C967 C986 1.368 . S
C967 H991 0.949 . S
H968 C972 0.949 . S
C969 C970 1.349 . S
C969 C971 1.327 . S
C969 H992 0.950 . S
C970 C969 1.349 . S
C970 C982 1.349 . S
C971 C969 1.327 . S
C971 C987 1.429 . S
C971 H993 0.950 . S
C972 H968 0.949 . S
C972 C980 1.574 . S
C972 C988 1.368 . S
H973 C981 0.950 . S
H974 C979 0.950 . S
H975 C980 0.949 . S
H976 C982 0.950 . S
H977 C983 0.950 . S
H978 C984 0.949 . S
C979 H974 0.950 . S
C979 C981 1.327 . S
C979 C985 1.429 . S
C980 C972 1.574 . S
C980 H975 0.949 . S
C980 C986 1.368 . S
C981 C965 1.349 . S
C981 H973 0.950 . S
C981 C979 1.327 . S
C982 C970 1.349 . S
C982 H976 0.950 . S
C982 C983 1.327 . S
C983 H977 0.950 . S
C983 C982 1.327 . S
C983 C987 1.429 . S
C984 C967 1.574 . S
C984 H978 0.949 . S
C984 C988 1.368 . S
C985 C966 1.429 . S
C985 C979 1.429 . S
C985 C986 1.523 . S
C986 C967 1.368 . S
C986 C980 1.368 . S
C986 C985 1.523 . S
C987 C971 1.429 . S
C987 C983 1.429 . S
C987 C988 1.523 . S
C988 C972 1.368 . S
C988 C984 1.368 . S
C988 C987 1.523 . S
H989 C964 0.950 . S
H990 C966 0.950 . S
H991 C967 0.949 . S
H992 C969 0.950 . S
H993 C971 0.950 . S
C994 C995 1.349 . S
C994 C996 1.327 . S
C994 H1019 0.950 . S
C995 C994 1.349 . S
C995 C1011 1.349 . S
C996 C994 1.327 . S
C996 C1015 1.429 . S
C996 H1020 0.950 . S
C997 C1014 1.574 . S
C997 C1016 1.368 . S
C997 H1021 0.949 . S
H998 C1002 0.949 . S
C999 C1000 1.349 . S
C999 C1001 1.327 . S
C999 H1022 0.950 . S
C1000 C999 1.349 . S
C1000 C1012 1.349 . S
C1001 C999 1.327 . S
C1001 C1017 1.429 . S
C1001 H1023 0.950 . S
C1002 H998 0.949 . S
C1002 C1010 1.574 . S
C1002 C1018 1.368 . S
H1003 C1011 0.950 . S
H1004 C1009 0.950 . S
H1005 C1010 0.949 . S
H1006 C1012 0.950 . S
H1007 C1013 0.950 . S
H1008 C1014 0.949 . S
C1009 H1004 0.950 . S
C1009 C1011 1.327 . S
C1009 C1015 1.429 . S
C1010 C1002 1.574 . S
C1010 H1005 0.949 . S
C1010 C1016 1.368 . S
C1011 C995 1.349 . S
C1011 H1003 0.950 . S
C1011 C1009 1.327 . S
C1012 C1000 1.349 . S
C1012 H1006 0.950 . S
C1012 C1013 1.327 . S
C1013 H1007 0.950 . S
C1013 C1012 1.327 . S
C1013 C1017 1.429 . S
C1014 C997 1.574 . S
C1014 H1008 0.949 . S
C1014 C1018 1.368 . S
C1015 C996 1.429 . S
C1015 C1009 1.429 . S
C1015 C1016 1.523 . S
C1016 C997 1.368 . S
C1016 C1010 1.368 . S
C1016 C1015 1.523 . S
C1017 C1001 1.429 . S
C1017 C1013 1.429 . S
C1017 C1018 1.523 . S
C1018 C1002 1.368 . S
C1018 C1014 1.368 . S
C1018 C1017 1.523 . S
H1019 C994 0.950 . S
H1020 C996 0.950 . S
H1021 C997 0.949 . S
H1022 C999 0.950 . S
H1023 C1001 0.950 . S
C1024 C1025 1.349 . S
C1024 C1026 1.327 . S
C1024 H1049 0.950 . S
C1025 C1024 1.349 . S
C1025 C1041 1.349 . S
C1026 C1024 1.327 . S
C1026 C1045 1.429 . S
C1026 H1050 0.950 . S
C1027 C1044 1.574 . S
C1027 C1046 1.368 . S
C1027 H1051 0.949 . S
H1028 C1032 0.949 . S
C1029 C1030 1.349 . S
C1029 C1031 1.327 . S
C1029 H1052 0.950 . S
C1030 C1029 1.349 . S
C1030 C1042 1.349 . S
C1031 C1029 1.327 . S
C1031 C1047 1.429 . S
C1031 H1053 0.950 . S
C1032 H1028 0.949 . S
C1032 C1040 1.574 . S
C1032 C1048 1.368 . S
H1033 C1041 0.950 . S
H1034 C1039 0.950 . S
H1035 C1040 0.949 . S
H1036 C1042 0.950 . S
H1037 C1043 0.950 . S
H1038 C1044 0.949 . S
C1039 H1034 0.950 . S
C1039 C1041 1.327 . S
C1039 C1045 1.429 . S
C1040 C1032 1.574 . S
C1040 H1035 0.949 . S
C1040 C1046 1.368 . S
C1041 C1025 1.349 . S
C1041 H1033 0.950 . S
C1041 C1039 1.327 . S
C1042 C1030 1.349 . S
C1042 H1036 0.950 . S
C1042 C1043 1.327 . S
C1043 H1037 0.950 . S
C1043 C1042 1.327 . S
C1043 C1047 1.429 . S
C1044 C1027 1.574 . S
C1044 H1038 0.949 . S
C1044 C1048 1.368 . S
C1045 C1026 1.429 . S
C1045 C1039 1.429 . S
C1045 C1046 1.523 . S
C1046 C1027 1.368 . S
C1046 C1040 1.368 . S
C1046 C1045 1.523 . S
C1047 C1031 1.429 . S
C1047 C1043 1.429 . S
C1047 C1048 1.523 . S
C1048 C1032 1.368 . S
C1048 C1044 1.368 . S
C1048 C1047 1.523 . S
H1049 C1024 0.950 . S
H1050 C1026 0.950 . S
H1051 C1027 0.949 . S
H1052 C1029 0.950 . S
H1053 C1031 0.950 . S
C1054 C1055 1.349 . S
C1054 C1056 1.327 . S
C1054 H1079 0.950 . S
C1055 C1054 1.349 . S
C1055 C1071 1.349 . S
C1056 C1054 1.327 . S
C1056 C1075 1.429 . S
C1056 H1080 0.950 . S
C1057 C1074 1.574 . S
C1057 C1076 1.368 . S
C1057 H1081 0.949 . S
H1058 C1062 0.949 . S
C1059 C1060 1.349 . S
C1059 C1061 1.327 . S
C1059 H1082 0.950 . S
C1060 C1059 1.349 . S
C1060 C1072 1.349 . S
C1061 C1059 1.327 . S
C1061 C1077 1.429 . S
C1061 H1083 0.950 . S
C1062 H1058 0.949 . S
C1062 C1070 1.574 . S
C1062 C1078 1.368 . S
H1063 C1071 0.950 . S
H1064 C1069 0.950 . S
H1065 C1070 0.949 . S
H1066 C1072 0.950 . S
H1067 C1073 0.950 . S
H1068 C1074 0.949 . S
C1069 H1064 0.950 . S
C1069 C1071 1.327 . S
C1069 C1075 1.429 . S
C1070 C1062 1.574 . S
C1070 H1065 0.949 . S
C1070 C1076 1.368 . S
C1071 C1055 1.349 . S
C1071 H1063 0.950 . S
C1071 C1069 1.327 . S
C1072 C1060 1.349 . S
C1072 H1066 0.950 . S
C1072 C1073 1.327 . S
C1073 H1067 0.950 . S
C1073 C1072 1.327 . S
C1073 C1077 1.429 . S
C1074 C1057 1.574 . S
C1074 H1068 0.949 . S
C1074 C1078 1.368 . S
C1075 C1056 1.429 . S
C1075 C1069 1.429 . S
C1075 C1076 1.523 . S
C1076 C1057 1.368 . S
C1076 C1070 1.368 . S
C1076 C1075 1.523 . S
C1077 C1061 1.429 . S
C1077 C1073 1.429 . S
C1077 C1078 1.523 . S
C1078 C1062 1.368 . S
C1078 C1074 1.368 . S
C1078 C1077 1.523 . S
H1079 C1054 0.950 . S
H1080 C1056 0.950 . S
H1081 C1057 0.949 . S
H1082 C1059 0.950 . S
H1083 C1061 0.950 . S
C1084 C1085 1.349 . S
C1084 C1086 1.327 . S
C1084 H1109 0.950 . S
C1085 C1084 1.349 . S
C1085 C1101 1.349 . S
C1086 C1084 1.327 . S
C1086 C1105 1.429 . S
C1086 H1110 0.950 . S
C1087 C1104 1.574 . S
C1087 C1106 1.368 . S
C1087 H1111 0.949 . S
H1088 C1092 0.949 . S
C1089 C1090 1.349 . S
C1089 C1091 1.327 . S
C1089 H1112 0.950 . S
C1090 C1089 1.349 . S
C1090 C1102 1.349 . S
C1091 C1089 1.327 . S
C1091 C1107 1.429 . S
C1091 H1113 0.950 . S
C1092 H1088 0.949 . S
C1092 C1100 1.574 . S
C1092 C1108 1.368 . S
H1093 C1101 0.950 . S
H1094 C1099 0.950 . S
H1095 C1100 0.949 . S
H1096 C1102 0.950 . S
H1097 C1103 0.950 . S
H1098 C1104 0.949 . S
C1099 H1094 0.950 . S
C1099 C1101 1.327 . S
C1099 C1105 1.429 . S
C1100 C1092 1.574 . S
C1100 H1095 0.949 . S
C1100 C1106 1.368 . S
C1101 C1085 1.349 . S
C1101 H1093 0.950 . S
C1101 C1099 1.327 . S
C1102 C1090 1.349 . S
C1102 H1096 0.950 . S
C1102 C1103 1.327 . S
C1103 H1097 0.950 . S
C1103 C1102 1.327 . S
C1103 C1107 1.429 . S
C1104 C1087 1.574 . S
C1104 H1098 0.949 . S
C1104 C1108 1.368 . S
C1105 C1086 1.429 . S
C1105 C1099 1.429 . S
C1105 C1106 1.523 . S
C1106 C1087 1.368 . S
C1106 C1100 1.368 . S
C1106 C1105 1.523 . S
C1107 C1091 1.429 . S
C1107 C1103 1.429 . S
C1107 C1108 1.523 . S
C1108 C1092 1.368 . S
C1108 C1104 1.368 . S
C1108 C1107 1.523 . S
H1109 C1084 0.950 . S
H1110 C1086 0.950 . S
H1111 C1087 0.949 . S
H1112 C1089 0.950 . S
H1113 C1091 0.950 . S
C1114 C1115 1.349 . S
C1114 C1116 1.327 . S
C1114 H1139 0.950 . S
C1115 C1114 1.349 . S
C1115 C1131 1.349 . S
C1116 C1114 1.327 . S
C1116 C1135 1.429 . S
C1116 H1140 0.950 . S
C1117 C1134 1.574 . S
C1117 C1136 1.368 . S
C1117 H1141 0.949 . S
H1118 C1122 0.949 . S
C1119 C1120 1.349 . S
C1119 C1121 1.327 . S
C1119 H1142 0.950 . S
C1120 C1119 1.349 . S
C1120 C1132 1.349 . S
C1121 C1119 1.327 . S
C1121 C1137 1.429 . S
C1121 H1143 0.950 . S
C1122 H1118 0.949 . S
C1122 C1130 1.574 . S
C1122 C1138 1.368 . S
H1123 C1131 0.950 . S
H1124 C1129 0.950 . S
H1125 C1130 0.949 . S
H1126 C1132 0.950 . S
H1127 C1133 0.950 . S
H1128 C1134 0.949 . S
C1129 H1124 0.950 . S
C1129 C1131 1.327 . S
C1129 C1135 1.429 . S
C1130 C1122 1.574 . S
C1130 H1125 0.949 . S
C1130 C1136 1.368 . S
C1131 C1115 1.349 . S
C1131 H1123 0.950 . S
C1131 C1129 1.327 . S
C1132 C1120 1.349 . S
C1132 H1126 0.950 . S
C1132 C1133 1.327 . S
C1133 H1127 0.950 . S
C1133 C1132 1.327 . S
C1133 C1137 1.429 . S
C1134 C1117 1.574 . S
C1134 H1128 0.949 . S
C1134 C1138 1.368 . S
C1135 C1116 1.429 . S
C1135 C1129 1.429 . S
C1135 C1136 1.523 . S
C1136 C1117 1.368 . S
C1136 C1130 1.368 . S
C1136 C1135 1.523 . S
C1137 C1121 1.429 . S
C1137 C1133 1.429 . S
C1137 C1138 1.523 . S
C1138 C1122 1.368 . S
C1138 C1134 1.368 . S
C1138 C1137 1.523 . S
H1139 C1114 0.950 . S
H1140 C1116 0.950 . S
H1141 C1117 0.949 . S
H1142 C1119 0.950 . S
H1143 C1121 0.950 . S
C1144 C1145 1.349 . S
C1144 C1146 1.327 . S
C1144 H1169 0.950 . S
C1145 C1144 1.349 . S
C1145 C1161 1.349 . S
C1146 C1144 1.327 . S
C1146 C1165 1.429 . S
C1146 H1170 0.950 . S
C1147 C1164 1.574 . S
C1147 C1166 1.368 . S
C1147 H1171 0.949 . S
H1148 C1152 0.949 . S
C1149 C1150 1.349 . S
C1149 C1151 1.327 . S
C1149 H1172 0.950 . S
C1150 C1149 1.349 . S
C1150 C1162 1.349 . S
C1151 C1149 1.327 . S
C1151 C1167 1.429 . S
C1151 H1173 0.950 . S
C1152 H1148 0.949 . S
C1152 C1160 1.574 . S
C1152 C1168 1.368 . S
H1153 C1161 0.950 . S
H1154 C1159 0.950 . S
H1155 C1160 0.949 . S
H1156 C1162 0.950 . S
H1157 C1163 0.950 . S
H1158 C1164 0.949 . S
C1159 H1154 0.950 . S
C1159 C1161 1.327 . S
C1159 C1165 1.429 . S
C1160 C1152 1.574 . S
C1160 H1155 0.949 . S
C1160 C1166 1.368 . S
C1161 C1145 1.349 . S
C1161 H1153 0.950 . S
C1161 C1159 1.327 . S
C1162 C1150 1.349 . S
C1162 H1156 0.950 . S
C1162 C1163 1.327 . S
C1163 H1157 0.950 . S
C1163 C1162 1.327 . S
C1163 C1167 1.429 . S
C1164 C1147 1.574 . S
C1164 H1158 0.949 . S
C1164 C1168 1.368 . S
C1165 C1146 1.429 . S
C1165 C1159 1.429 . S
C1165 C1166 1.523 . S
C1166 C1147 1.368 . S
C1166 C1160 1.368 . S
C1166 C1165 1.523 . S
C1167 C1151 1.429 . S
C1167 C1163 1.429 . S
C1167 C1168 1.523 . S
C1168 C1152 1.368 . S
C1168 C1164 1.368 . S
C1168 C1167 1.523 . S
H1169 C1144 0.950 . S
H1170 C1146 0.950 . S
H1171 C1147 0.949 . S
H1172 C1149 0.950 . S
H1173 C1151 0.950 . S
C1174 C1175 1.349 . S
C1174 C1176 1.327 . S
C1174 H1199 0.950 . S
C1175 C1174 1.349 . S
C1175 C1191 1.349 . S
C1176 C1174 1.327 . S
C1176 C1195 1.429 . S
C1176 H1200 0.950 . S
C1177 C1194 1.574 . S
C1177 C1196 1.368 . S
C1177 H1201 0.949 . S
H1178 C1182 0.949 . S
C1179 C1180 1.349 . S
C1179 C1181 1.327 . S
C1179 H1202 0.950 . S
C1180 C1179 1.349 . S
C1180 C1192 1.349 . S
C1181 C1179 1.327 . S
C1181 C1197 1.429 . S
C1181 H1203 0.950 . S
C1182 H1178 0.949 . S
C1182 C1190 1.574 . S
C1182 C1198 1.368 . S
H1183 C1191 0.950 . S
H1184 C1189 0.950 . S
H1185 C1190 0.949 . S
H1186 C1192 0.950 . S
H1187 C1193 0.950 . S
H1188 C1194 0.949 . S
C1189 H1184 0.950 . S
C1189 C1191 1.327 . S
C1189 C1195 1.429 . S
C1190 C1182 1.574 . S
C1190 H1185 0.949 . S
C1190 C1196 1.368 . S
C1191 C1175 1.349 . S
C1191 H1183 0.950 . S
C1191 C1189 1.327 . S
C1192 C1180 1.349 . S
C1192 H1186 0.950 . S
C1192 C1193 1.327 . S
C1193 H1187 0.950 . S
C1193 C1192 1.327 . S
C1193 C1197 1.429 . S
C1194 C1177 1.574 . S
C1194 H1188 0.949 . S
C1194 C1198 1.368 . S
C1195 C1176 1.429 . S
C1195 C1189 1.429 . S
C1195 C1196 1.523 . S
C1196 C1177 1.368 . S
C1196 C1190 1.368 . S
C1196 C1195 1.523 . S
C1197 C1181 1.429 . S
C1197 C1193 1.429 . S
C1197 C1198 1.523 . S
C1198 C1182 1.368 . S
C1198 C1194 1.368 . S
C1198 C1197 1.523 . S
H1199 C1174 0.950 . S
H1200 C1176 0.950 . S
H1201 C1177 0.949 . S
H1202 C1179 0.950 . S
H1203 C1181 0.950 . S
C1204 C1205 1.349 . S
C1204 C1206 1.327 . S
C1204 H1229 0.950 . S
C1205 C1204 1.349 . S
C1205 C1221 1.349 . S
C1206 C1204 1.327 . S
C1206 C1225 1.429 . S
C1206 H1230 0.950 . S
C1207 C1224 1.574 . S
C1207 C1226 1.368 . S
C1207 H1231 0.949 . S
H1208 C1212 0.949 . S
C1209 C1210 1.349 . S
C1209 C1211 1.327 . S
C1209 H1232 0.950 . S
C1210 C1209 1.349 . S
C1210 C1222 1.349 . S
C1211 C1209 1.327 . S
C1211 C1227 1.429 . S
C1211 H1233 0.950 . S
C1212 H1208 0.949 . S
C1212 C1220 1.574 . S
C1212 C1228 1.368 . S
H1213 C1221 0.950 . S
H1214 C1219 0.950 . S
H1215 C1220 0.949 . S
H1216 C1222 0.950 . S
H1217 C1223 0.950 . S
H1218 C1224 0.949 . S
C1219 H1214 0.950 . S
C1219 C1221 1.327 . S
C1219 C1225 1.429 . S
C1220 C1212 1.574 . S
C1220 H1215 0.949 . S
C1220 C1226 1.368 . S
C1221 C1205 1.349 . S
C1221 H1213 0.950 . S
C1221 C1219 1.327 . S
C1222 C1210 1.349 . S
C1222 H1216 0.950 . S
C1222 C1223 1.327 . S
C1223 H1217 0.950 . S
C1223 C1222 1.327 . S
C1223 C1227 1.429 . S
C1224 C1207 1.574 . S
C1224 H1218 0.949 . S
C1224 C1228 1.368 . S
C1225 C1206 1.429 . S
C1225 C1219 1.429 . S
C1225 C1226 1.523 . S
C1226 C1207 1.368 . S
C1226 C1220 1.368 . S
C1226 C1225 1.523 . S
C1227 C1211 1.429 . S
C1227 C1223 1.429 . S
C1227 C1228 1.523 . S
C1228 C1212 1.368 . S
C1228 C1224 1.368 . S
C1228 C1227 1.523 . S
H1229 C1204 0.950 . S
H1230 C1206 0.950 . S
H1231 C1207 0.949 . S
H1232 C1209 0.950 . S
H1233 C1211 0.950 . S
C1234 C1235 1.349 . S
C1234 C1236 1.327 . S
C1234 H1259 0.950 . S
C1235 C1234 1.349 . S
C1235 C1251 1.349 . S
C1236 C1234 1.327 . S
C1236 C1255 1.429 . S
C1236 H1260 0.950 . S
C1237 C1254 1.574 . S
C1237 C1256 1.368 . S
C1237 H1261 0.949 . S
H1238 C1242 0.949 . S
C1239 C1240 1.349 . S
C1239 C1241 1.327 . S
C1239 H1262 0.950 . S
C1240 C1239 1.349 . S
C1240 C1252 1.349 . S
C1241 C1239 1.327 . S
C1241 C1257 1.429 . S
C1241 H1263 0.950 . S
C1242 H1238 0.949 . S
C1242 C1250 1.574 . S
C1242 C1258 1.368 . S
H1243 C1251 0.950 . S
H1244 C1249 0.950 . S
H1245 C1250 0.949 . S
H1246 C1252 0.950 . S
H1247 C1253 0.950 . S
H1248 C1254 0.949 . S
C1249 H1244 0.950 . S
C1249 C1251 1.327 . S
C1249 C1255 1.429 . S
C1250 C1242 1.574 . S
C1250 H1245 0.949 . S
C1250 C1256 1.368 . S
C1251 C1235 1.349 . S
C1251 H1243 0.950 . S
C1251 C1249 1.327 . S
C1252 C1240 1.349 . S
C1252 H1246 0.950 . S
C1252 C1253 1.327 . S
C1253 H1247 0.950 . S
C1253 C1252 1.327 . S
C1253 C1257 1.429 . S
C1254 C1237 1.574 . S
C1254 H1248 0.949 . S
C1254 C1258 1.368 . S
C1255 C1236 1.429 . S
C1255 C1249 1.429 . S
C1255 C1256 1.523 . S
C1256 C1237 1.368 . S
C1256 C1250 1.368 . S
C1256 C1255 1.523 . S
C1257 C1241 1.429 . S
C1257 C1253 1.429 . S
C1257 C1258 1.523 . S
C1258 C1242 1.368 . S
C1258 C1254 1.368 . S
C1258 C1257 1.523 . S
H1259 C1234 0.950 . S
H1260 C1236 0.950 . S
H1261 C1237 0.949 . S
H1262 C1239 0.950 . S
H1263 C1241 0.950 . S
C1264 C1265 1.349 . S
C1264 C1266 1.327 . S
C1264 H1289 0.950 . S
C1265 C1264 1.349 . S
C1265 C1281 1.349 . S
C1266 C1264 1.327 . S
C1266 C1285 1.429 . S
C1266 H1290 0.950 . S
C1267 C1284 1.574 . S
C1267 C1286 1.368 . S
C1267 H1291 0.949 . S
H1268 C1272 0.949 . S
C1269 C1270 1.349 . S
C1269 C1271 1.327 . S
C1269 H1292 0.950 . S
C1270 C1269 1.349 . S
C1270 C1282 1.349 . S
C1271 C1269 1.327 . S
C1271 C1287 1.429 . S
C1271 H1293 0.950 . S
C1272 H1268 0.949 . S
C1272 C1280 1.574 . S
C1272 C1288 1.368 . S
H1273 C1281 0.950 . S
H1274 C1279 0.950 . S
H1275 C1280 0.949 . S
H1276 C1282 0.950 . S
H1277 C1283 0.950 . S
H1278 C1284 0.949 . S
C1279 H1274 0.950 . S
C1279 C1281 1.327 . S
C1279 C1285 1.429 . S
C1280 C1272 1.574 . S
C1280 H1275 0.949 . S
C1280 C1286 1.368 . S
C1281 C1265 1.349 . S
C1281 H1273 0.950 . S
C1281 C1279 1.327 . S
C1282 C1270 1.349 . S
C1282 H1276 0.950 . S
C1282 C1283 1.327 . S
C1283 H1277 0.950 . S
C1283 C1282 1.327 . S
C1283 C1287 1.429 . S
C1284 C1267 1.574 . S
C1284 H1278 0.949 . S
C1284 C1288 1.368 . S
C1285 C1266 1.429 . S
C1285 C1279 1.429 . S
C1285 C1286 1.523 . S
C1286 C1267 1.368 . S
C1286 C1280 1.368 . S
C1286 C1285 1.523 . S
C1287 C1271 1.429 . S
C1287 C1283 1.429 . S
C1287 C1288 1.523 . S
C1288 C1272 1.368 . S
C1288 C1284 1.368 . S
C1288 C1287 1.523 . S
H1289 C1264 0.950 . S
H1290 C1266 0.950 . S
H1291 C1267 0.949 . S
H1292 C1269 0.950 . S
H1293 C1271 0.950 . S
C580 C278 1.553 . S
C575 C23 1.538 . S
C610 C347 1.533 . S
C605 C49 1.518 . S
C640 C285 1.542 . S
C635 C87 1.511 . S
C670 C348 1.550 . S
C665 C125 1.513 . S
C700 C401 1.557 . S
C695 C29 1.542 . S
C730 C437 1.516 . S
C725 C61 1.492 . S
C755 C81 1.505 . S
C760 C497 1.540 . S
C790 C560 1.518 . S
C785 C113 1.484 . S
C820 C400 1.523 . S
C815 C55 1.511 . S
C845 C93 1.483 . S
C850 C444 1.528 . S
C880 C490 1.539 . S
C875 C119 1.502 . S
C910 C559 1.531 . S
C905 C17 1.522 . S
C935 C151 1.520 . S
C940 C338 1.553 . S
C970 C295 1.533 . S
C965 C177 1.508 . S
C995 C215 1.525 . S
C1000 C331 1.542 . S
C1025 C253 1.524 . S
C1030 C294 1.550 . S
C1060 C506 1.557 . S
C1055 C157 1.505 . S
C1090 C550 1.516 . S
C1085 C189 1.473 . S
C1120 C384 1.540 . S
C1115 C209 1.531 . S
C1145 C241 1.502 . S
C1150 C453 1.518 . S
C1180 C507 1.523 . S
C1175 C183 1.489 . S
C1210 C543 1.528 . S
C1205 C221 1.509 . S
C1240 C391 1.539 . S
C1235 C247 1.527 . S
C1265 C145 1.494 . S
C1270 C454 1.532 . S
