# Generated by pormake.
# Topology zzz, (3,6)-cn, num edge types: 1
# Building blocks:
#     Node 0, Type 0, BuildingBlock: QEWDON_clean_linker_0, # of connection points: 3
#     Node 1, Type 0, BuildingBlock: QEWDON_clean_linker_0, # of connection points: 3
#     Node 2, Type 0, BuildingBlock: QEWDON_clean_linker_0, # of connection points: 3
#     Node 3, Type 0, BuildingBlock: QEWDON_clean_linker_0, # of connection points: 3
#     Node 4, Type 0, BuildingBlock: QEWDON_clean_linker_0, # of connection points: 3
#     Node 5, Type 0, BuildingBlock: QEWDON_clean_linker_0, # of connection points: 3
#     Node 6, Type 0, BuildingBlock: QEWDON_clean_linker_0, # of connection points: 3
#     Node 7, Type 0, BuildingBlock: QEWDON_clean_linker_0, # of connection points: 3
#     Node 8, Type 1, BuildingBlock: VOLQOD_clean_sbu_1, # of connection points: 6
#     Node 9, Type 1, BuildingBlock: VOLQOD_clean_sbu_1, # of connection points: 6
#     Node 10, Type 1, BuildingBlock: VOLQOD_clean_sbu_1, # of connection points: 6
#     Node 11, Type 1, BuildingBlock: VOLQOD_clean_sbu_1, # of connection points: 6
#     Edge 12, Type (0, 1), BuildingBlock: UVAHIK_clean_linker_0, # of connection points: 2
#     Edge 13, Type (0, 1), BuildingBlock: UVAHIK_clean_linker_0, # of connection points: 2
#     Edge 14, Type (0, 1), BuildingBlock: UVAHIK_clean_linker_0, # of connection points: 2
#     Edge 15, Type (0, 1), BuildingBlock: UVAHIK_clean_linker_0, # of connection points: 2
#     Edge 16, Type (0, 1), BuildingBlock: UVAHIK_clean_linker_0, # of connection points: 2
#     Edge 17, Type (0, 1), BuildingBlock: UVAHIK_clean_linker_0, # of connection points: 2
#     Edge 18, Type (0, 1), BuildingBlock: UVAHIK_clean_linker_0, # of connection points: 2
#     Edge 19, Type (0, 1), BuildingBlock: UVAHIK_clean_linker_0, # of connection points: 2
#     Edge 20, Type (0, 1), BuildingBlock: UVAHIK_clean_linker_0, # of connection points: 2
#     Edge 21, Type (0, 1), BuildingBlock: UVAHIK_clean_linker_0, # of connection points: 2
#     Edge 22, Type (0, 1), BuildingBlock: UVAHIK_clean_linker_0, # of connection points: 2
#     Edge 23, Type (0, 1), BuildingBlock: UVAHIK_clean_linker_0, # of connection points: 2
#     Edge 24, Type (0, 1), BuildingBlock: UVAHIK_clean_linker_0, # of connection points: 2
#     Edge 25, Type (0, 1), BuildingBlock: UVAHIK_clean_linker_0, # of connection points: 2
#     Edge 26, Type (0, 1), BuildingBlock: UVAHIK_clean_linker_0, # of connection points: 2
#     Edge 27, Type (0, 1), BuildingBlock: UVAHIK_clean_linker_0, # of connection points: 2
#     Edge 28, Type (0, 1), BuildingBlock: UVAHIK_clean_linker_0, # of connection points: 2
#     Edge 29, Type (0, 1), BuildingBlock: UVAHIK_clean_linker_0, # of connection points: 2
#     Edge 30, Type (0, 1), BuildingBlock: UVAHIK_clean_linker_0, # of connection points: 2
#     Edge 31, Type (0, 1), BuildingBlock: UVAHIK_clean_linker_0, # of connection points: 2
#     Edge 32, Type (0, 1), BuildingBlock: UVAHIK_clean_linker_0, # of connection points: 2
#     Edge 33, Type (0, 1), BuildingBlock: UVAHIK_clean_linker_0, # of connection points: 2
#     Edge 34, Type (0, 1), BuildingBlock: UVAHIK_clean_linker_0, # of connection points: 2
#     Edge 35, Type (0, 1), BuildingBlock: UVAHIK_clean_linker_0, # of connection points: 2
# Relax obj value: 0.154
# Max RMSD: 0.240
# Mean RMSD: 0.103
data_MOF--net-zzz--node1-VOLQOD_clean_sbu_1--node2-QEWDON_clean_linker_0--edge1-UVAHIK_clean_linker_0
_symmetry_space_group_name_H-M    P1
_symmetry_Int_Tables_number       1
_symmetry_cell_setting            triclinic
loop_
_symmetry_equiv_pos_as_xyz
'x, y, z'
_cell_length_a     69.610567
_cell_length_b     69.293818
_cell_length_c     21.79584
_cell_angle_alpha  90.136613
_cell_angle_beta   89.803897
_cell_angle_gamma 90.637555
loop_
_atom_site_label
_atom_site_type_symbol
_atom_site_fract_x
_atom_site_fract_y
_atom_site_fract_z
_atom_type_partial_charge
H0 H 0.77373 0.52745 0.03288 0.0
C1 C 0.78149 0.52683 0.07583 0.0
C2 C 0.79862 0.51639 0.0785 0.0
C3 C 0.77482 0.53702 0.12774 0.0
H4 H 0.82291 0.50909 0.13405 0.0
C5 C 0.80915 0.51628 0.13305 0.0
C6 C 0.80317 0.52677 0.18446 0.0
C7 C 0.78592 0.53699 0.18189 0.0
C8 C 0.7568 0.54839 0.12454 0.0
H9 H 0.78125 0.5449 0.22209 0.0
C10 C 0.74074 0.54146 0.09149 0.0
C11 C 0.72385 0.55241 0.08754 0.0
C12 C 0.75565 0.56646 0.15389 0.0
H13 H 0.76781 0.57246 0.17852 0.0
C14 C 0.73888 0.57721 0.15089 0.0
H15 H 0.74142 0.52762 0.06844 0.0
C16 C 0.72309 0.57029 0.11808 0.0
H17 H 0.71021 0.57891 0.1169 0.0
H18 H 0.73816 0.59106 0.17384 0.0
H19 H 0.99955 0.77041 0.05492 0.0
C20 C 0.99806 0.77722 0.09945 0.0
C21 C 0.00983 0.79318 0.11426 0.0
C22 C 0.98381 0.77068 0.14086 0.0
H23 H 0.01567 0.81537 0.18131 0.0
C24 C 0.00736 0.80243 0.17098 0.0
C25 C 0.99302 0.79648 0.21204 0.0
C26 C 0.98139 0.78052 0.19712 0.0
C27 C 0.97071 0.75433 0.1243 0.0
H28 H 0.97038 0.7759 0.22932 0.0
C29 C 0.97762 0.73779 0.09378 0.0
C30 C 0.96517 0.72217 0.08052 0.0
C31 C 0.95107 0.75517 0.13959 0.0
H32 H 0.94515 0.76783 0.16152 0.0
C33 C 0.93872 0.73977 0.12616 0.0
H34 H 0.99271 0.73679 0.08201 0.0
C35 C 0.94571 0.72333 0.09719 0.0
H36 H 0.93582 0.71157 0.08702 0.0
H37 H 0.92366 0.7406 0.1382 0.0
H38 H 0.73586 0.00939 0.04245 0.0
C39 C 0.72843 0.01066 0.08602 0.0
C40 C 0.71165 0.02172 0.08956 0.0
C41 C 0.7349 1.00036 0.1376 0.0
H42 H 0.68755 0.02948 0.14565 0.0
C43 C 0.70128 0.02224 0.14471 0.0
C44 C 0.70716 0.01182 0.19618 0.0
C45 C 0.7243 0.0014 0.19282 0.0
C46 C 0.7515 0.98702 0.13259 0.0
H47 H 0.72906 0.99359 0.23288 0.0
C48 C 0.76793 0.99181 0.09739 0.0
C49 C 0.78324 0.97875 0.09181 0.0
C50 C 0.75067 0.96895 0.16202 0.0
H51 H 0.7381 0.9645 0.18798 0.0
C52 C 0.7659 0.95616 0.15745 0.0
H53 H 0.76874 0.00558 0.07401 0.0
C54 C 0.78207 0.96099 0.12278 0.0
H55 H 0.79374 0.9508 0.12048 0.0
H56 H 0.7651 0.94237 0.1806 0.0
H57 H 0.5084 0.72593 0.03012 0.0
C58 C 0.50995 0.72001 0.07579 0.0
C59 C 0.49776 0.70483 0.09481 0.0
C60 C 0.52482 0.72676 0.11425 0.0
H61 H 0.49183 0.68426 0.16664 0.0
C62 C 0.50039 0.69672 0.15308 0.0
C63 C 0.51527 0.70303 0.19147 0.0
C64 C 0.5273 0.71818 0.17215 0.0
C65 C 0.53873 0.74168 0.09246 0.0
H66 H 0.53883 0.72303 0.20192 0.0
C67 C 0.5325 0.75819 0.06093 0.0
C68 C 0.54582 0.77232 0.04092 0.0
C69 C 0.55849 0.73936 0.10308 0.0
H70 H 0.56379 0.72665 0.12607 0.0
C71 C 0.57171 0.75329 0.08354 0.0
H72 H 0.51732 0.76003 0.05215 0.0
C73 C 0.56547 0.76969 0.05295 0.0
H74 H 0.57606 0.78044 0.03938 0.0
H75 H 0.58687 0.7514 0.09227 0.0
H76 H 0.23897 0.52939 0.26687 0.0
C77 C 0.22901 0.52111 0.23891 0.0
C78 C 0.2092 0.5233 0.24784 0.0
C79 C 0.23581 0.50872 0.19231 0.0
H80 H 0.18093 0.51502 0.21811 0.0
C81 C 0.19622 0.51294 0.21129 0.0
C82 C 0.2026 0.50034 0.16557 0.0
C83 C 0.22243 0.49831 0.15611 0.0
C84 C 0.25677 0.50687 0.17999 0.0
H85 H 0.2274 0.48844 0.121 0.0
C86 C 0.27015 0.50601 0.22836 0.0
C87 C 0.28982 0.50341 0.21596 0.0
C88 C 0.26349 0.50564 0.11912 0.0
H89 H 0.25369 0.50671 0.08082 0.0
C90 C 0.28297 0.50317 0.10679 0.0
H91 H 0.26525 0.50675 0.27555 0.0
C92 C 0.29606 0.50193 0.1548 0.0
H93 H 0.31115 0.50011 0.14411 0.0
H94 H 0.28795 0.50222 0.05978 0.0
H95 H 0.01973 0.22893 0.28139 0.0
C96 C 0.02899 0.22086 0.25083 0.0
C97 C 0.03382 0.20189 0.26597 0.0
C98 C 0.0354 0.22907 0.19521 0.0
H99 H 0.0478 0.17608 0.23619 0.0
C100 C 0.04505 0.19108 0.22551 0.0
C101 C 0.05108 0.19867 0.16902 0.0
C102 C 0.04639 0.21778 0.15436 0.0
C103 C 0.0294 0.24887 0.17795 0.0
H104 H 0.05107 0.22373 0.1108 0.0
C105 C 0.02916 0.26391 0.22169 0.0
C106 C 0.02251 0.28236 0.20588 0.0
C107 C 0.02318 0.25267 0.11788 0.0
H108 H 0.02288 0.24139 0.08343 0.0
C109 C 0.01676 0.27098 0.10194 0.0
H110 H 0.03393 0.26123 0.26815 0.0
C111 C 0.01633 0.28572 0.14559 0.0
H112 H 0.0113 0.29982 0.13207 0.0
H113 H 0.01194 0.27372 0.05563 0.0
H114 H 0.27207 1.00066 0.26577 0.0
C115 C 0.2809 0.00997 0.23714 0.0
C116 C 0.30023 0.01291 0.2526 0.0
C117 C 0.27321 0.0186 0.18418 0.0
H118 H 0.32727 0.02545 0.22542 0.0
C119 C 0.3121 0.02411 0.21464 0.0
C120 C 0.30507 0.03215 0.16049 0.0
C121 C 0.28554 0.02967 0.14602 0.0
C122 C 0.25261 0.01549 0.16744 0.0
H123 H 0.2801 0.0363 0.10473 0.0
C124 C 0.23821 0.01395 0.21308 0.0
C125 C 0.21876 0.01097 0.1972 0.0
C126 C 0.2472 0.01389 0.10546 0.0
H127 H 0.25781 0.0144 0.06907 0.0
C128 C 0.22798 0.0113 0.0894 0.0
H129 H 0.24215 0.01498 0.26097 0.0
C130 C 0.21386 0.00994 0.13468 0.0
H131 H 0.19905 0.0082 0.12049 0.0
H132 H 0.22401 0.01026 0.04152 0.0
H133 H 0.50343 0.27085 0.27329 0.0
C134 C 0.49501 0.27777 0.23804 0.0
C135 C 0.48882 0.29675 0.24701 0.0
C136 C 0.49091 0.26802 0.18274 0.0
H137 H 0.47447 0.32093 0.20701 0.0
C138 C 0.47844 0.30594 0.20088 0.0
C139 C 0.47481 0.29677 0.14478 0.0
C140 C 0.48099 0.27775 0.13594 0.0
C141 C 0.49773 0.24802 0.17275 0.0
H142 H 0.47817 0.27063 0.09251 0.0
C143 C 0.49562 0.23397 0.21897 0.0
C144 C 0.50171 0.2149 0.20899 0.0
C145 C 0.50631 0.24285 0.11668 0.0
H146 H 0.5084 0.25342 0.08065 0.0
C147 C 0.51255 0.22404 0.10681 0.0
H148 H 0.4887 0.23772 0.26193 0.0
C149 C 0.51025 0.21013 0.15247 0.0
H150 H 0.51531 0.19565 0.14376 0.0
H151 H 0.51922 0.22022 0.06359 0.0
O152 O 0.05967 0.99786 0.67249 0.0
Zn153 Zn 0.0402 0.99678 0.7413 0.0
O154 O 0.01377 0.99741 0.70931 0.0
Zn155 Zn 1.00057 0.01986 0.74183 0.0
Zn156 Zn 0.0143 0.99803 0.61909 0.0
Zn157 Zn 0.99934 0.97487 0.73659 0.0
O158 O 0.97506 0.01343 0.78158 0.0
O159 O 0.97416 0.98151 0.77692 0.0
O160 O 0.04553 0.01989 0.79661 0.0
O161 O 0.01702 0.03394 0.80284 0.0
O162 O 0.99567 0.03846 0.674 0.0
O163 O 0.00315 0.02316 0.5876 0.0
O164 O 1.00112 0.97431 0.58223 0.0
O165 O 0.04451 0.97199 0.78912 0.0
O166 O 0.99332 0.95754 0.66548 0.0
O167 O 0.01498 0.95938 0.7948 0.0
C168 C 0.05811 0.99777 0.61428 0.0
C169 C 0.96649 0.99744 0.79184 0.0
C170 C 0.99698 0.03805 0.61576 0.0
C171 C 0.03463 0.03297 0.81798 0.0
C172 C 0.99428 0.95909 0.60738 0.0
C173 C 0.03272 0.95917 0.80869 0.0
O174 O 0.04172 0.99748 0.58843 0.0
O175 O 0.50188 0.04985 0.66021 0.0
Zn176 Zn 0.50469 0.02774 0.72081 0.0
O177 O 0.50266 0.0026 0.67735 0.0
Zn178 Zn 0.48177 0.987 0.71119 0.0
Zn179 Zn 0.49855 0.00665 0.58958 0.0
Zn180 Zn 0.52592 0.98792 0.68713 0.0
O181 O 0.49064 0.96246 0.7524 0.0
O182 O 0.52152 0.96234 0.72744 0.0
O183 O 0.4826 0.03062 0.78234 0.0
O184 O 0.46682 0.00279 0.77062 0.0
O185 O 0.46308 0.97953 0.64546 0.0
O186 O 0.47461 0.99268 0.55998 0.0
O187 O 0.52182 0.99898 0.5395 0.0
O188 O 0.53096 0.03087 0.76213 0.0
O189 O 0.5397 0.98382 0.60779 0.0
O190 O 0.54439 0.00295 0.73774 0.0
C191 C 0.49744 0.05027 0.60349 0.0
C192 C 0.50697 0.95435 0.75256 0.0
C193 C 0.46184 0.98274 0.58816 0.0
C194 C 0.46838 0.01947 0.79475 0.0
C195 C 0.53689 0.98971 0.55343 0.0
C196 C 0.54521 0.01941 0.76352 0.0
O197 O 0.49511 0.03478 0.57275 0.0
O198 O 0.45414 0.50003 0.66572 0.0
Zn199 Zn 0.47463 0.5009 0.73114 0.0
O200 O 0.50043 0.50363 0.69402 0.0
Zn201 Zn 0.51668 0.4822 0.71836 0.0
Zn202 Zn 0.49831 0.50446 0.60429 0.0
Zn203 Zn 0.51275 0.52719 0.72272 0.0
O204 O 0.54131 0.49062 0.76088 0.0
O205 O 0.53814 0.52239 0.76252 0.0
O206 O 0.47242 0.47602 0.78032 0.0
O207 O 0.50189 0.46422 0.77275 0.0
O208 O 0.5233 0.46598 0.64543 0.0
O209 O 0.51017 0.48074 0.56591 0.0
O210 O 0.51017 0.5289 0.56925 0.0
O211 O 0.46853 0.52404 0.78509 0.0
O212 O 0.51773 0.54542 0.65324 0.0
O213 O 0.49597 0.54082 0.78277 0.0
C214 C 0.4546 0.50212 0.60768 0.0
C215 C 0.54773 0.50736 0.77465 0.0
C216 C 0.51953 0.46673 0.58841 0.0
C217 C 0.48466 0.46299 0.79223 0.0
C218 C 0.51658 0.54417 0.59512 0.0
C219 C 0.47883 0.53842 0.8018 0.0
O220 O 0.47044 0.50438 0.579 0.0
O221 O 0.98382 0.52927 0.56207 0.0
Zn222 Zn 0.00655 0.52719 0.62091 0.0
O223 O 0.00745 0.50125 0.65834 0.0
Zn224 Zn 0.00524 0.50346 0.74778 0.0
Zn225 Zn 0.98653 0.48512 0.62776 0.0
Zn226 Zn 0.03129 0.48841 0.63655 0.0
O227 O 0.02814 0.49162 0.79041 0.0
O228 O 0.04692 0.48363 0.71191 0.0
O229 O 0.00388 0.54792 0.68593 0.0
O230 O 0.00422 0.53147 0.7732 0.0
O231 O 0.98018 0.49182 0.778 0.0
O232 O 0.96709 0.47961 0.69359 0.0
O233 O 0.99535 0.46009 0.59055 0.0
O234 O 0.03145 0.53301 0.57518 0.0
O235 O 0.02707 0.46268 0.59424 0.0
O236 O 0.0472 0.50531 0.58151 0.0
C237 C 0.97192 0.51643 0.54328 0.0
C238 C 0.04391 0.48505 0.76938 0.0
C239 C 0.96633 0.48324 0.75078 0.0
C240 C 0.00343 0.54742 0.74437 0.0
C241 C 0.01192 0.4533 0.57958 0.0
C242 C 0.04595 0.52262 0.56264 0.0
O243 O 0.97227 0.49925 0.56357 0.0
C244 C 0.18799 0.99594 0.23612 0.0
C245 C 0.20356 0.00873 0.24529 0.0
C246 C 0.17335 0.99421 0.27978 0.0
C247 C 0.15204 0.01956 0.41429 0.0
H248 H 0.1248 0.9708 0.43365 0.0
C249 C 0.09315 0.00538 0.59932 0.0
C250 C 0.07568 0.9982 0.57576 0.0
C251 C 0.10958 0.00629 0.56222 0.0
C252 C 0.13229 0.9845 0.4286 0.0
H253 H 0.21591 0.02956 0.30887 0.0
H254 H 0.19094 0.02578 0.3864 0.0
H255 H 0.15247 0.97278 0.36504 0.0
H256 H 0.06187 0.98599 0.49527 0.0
H257 H 0.09073 0.98713 0.43108 0.0
H258 H 0.13195 0.03103 0.47937 0.0
C259 C 0.18975 0.01746 0.34446 0.0
C260 C 0.14808 0.98571 0.38897 0.0
C261 C 0.20428 0.01941 0.30025 0.0
C262 C 0.07509 0.99166 0.51469 0.0
C263 C 0.0916 0.99221 0.47804 0.0
C264 C 0.13644 0.01823 0.45479 0.0
C265 C 0.17397 0.00495 0.33462 0.0
C266 C 0.15799 0.00335 0.38035 0.0
C267 C 0.10896 0.99967 0.5013 0.0
C268 C 0.12625 0.00077 0.46155 0.0
H269 H 0.18705 0.98717 0.19506 0.0
H270 H 0.16137 0.98464 0.26976 0.0
H271 H 0.15904 0.03346 0.40839 0.0
H272 H 0.09404 0.01059 0.64613 0.0
H273 H 0.12282 0.01204 0.58123 0.0
C274 C 0.50334 0.20372 0.31864 0.0
C275 C 0.49896 0.19987 0.25683 0.0
C276 C 0.50137 0.18923 0.36298 0.0
C277 C 0.47761 0.14202 0.39174 0.0
H278 H 0.51967 0.13355 0.50442 0.0
C279 C 0.48882 0.06939 0.51056 0.0
C280 C 0.49537 0.06901 0.5715 0.0
C281 C 0.48756 0.08677 0.47879 0.0
C282 C 0.50764 0.13592 0.47406 0.0
H283 H 0.48852 0.17803 0.19346 0.0
H284 H 0.48526 0.15278 0.2704 0.0
H285 H 0.52051 0.16156 0.43655 0.0
H286 H 0.50548 0.0868 0.6471 0.0
H287 H 0.50325 0.1173 0.59125 0.0
H288 H 0.46492 0.11623 0.42819 0.0
C289 C 0.49014 0.16697 0.28481 0.0
C290 C 0.50813 0.15196 0.43513 0.0
C291 C 0.49222 0.18138 0.24056 0.0
C292 C 0.50038 0.08656 0.60021 0.0
C293 C 0.4992 0.10402 0.56815 0.0
C294 C 0.47711 0.12604 0.43062 0.0
C295 C 0.4948 0.17067 0.34647 0.0
C296 C 0.49333 0.15493 0.39253 0.0
C297 C 0.49284 0.10429 0.50696 0.0
C298 C 0.49233 0.12253 0.47121 0.0
H299 H 0.50867 0.21781 0.33249 0.0
H300 H 0.50497 0.19255 0.41017 0.0
H301 H 0.4658 0.14413 0.36032 0.0
H302 H 0.48482 0.05619 0.48686 0.0
H303 H 0.4829 0.0864 0.43144 0.0
C304 C 0.31744 0.48727 0.26708 0.0
C305 C 0.30403 0.50228 0.26623 0.0
C306 C 0.33194 0.48701 0.31117 0.0
C307 C 0.36116 0.51942 0.40372 0.0
H308 H 0.37606 0.47297 0.48963 0.0
C309 C 0.43584 0.50962 0.51287 0.0
C310 C 0.43634 0.50222 0.57284 0.0
C311 C 0.41862 0.51001 0.48019 0.0
C312 C 0.37197 0.48608 0.46629 0.0
H313 H 0.29499 0.52854 0.31138 0.0
H314 H 0.32067 0.52827 0.38822 0.0
H315 H 0.34717 0.47262 0.42573 0.0
H316 H 0.41912 0.48922 0.64526 0.0
H317 H 0.38906 0.48955 0.58741 0.0
H318 H 0.38623 0.53273 0.44285 0.0
C319 C 0.31984 0.51668 0.35487 0.0
C320 C 0.35553 0.48585 0.42955 0.0
C321 C 0.30511 0.51677 0.31128 0.0
C322 C 0.41922 0.49506 0.5992 0.0
C323 C 0.40203 0.49518 0.56608 0.0
C324 C 0.37775 0.51956 0.4397 0.0
C325 C 0.33351 0.50189 0.35478 0.0
C326 C 0.35005 0.50248 0.39753 0.0
C327 C 0.40155 0.50274 0.50638 0.0
C328 C 0.38341 0.50285 0.47091 0.0
H329 H 0.31684 0.47588 0.23299 0.0
H330 H 0.34236 0.47552 0.30973 0.0
H331 H 0.35737 0.53239 0.37914 0.0
H332 H 0.44875 0.5153 0.49126 0.0
H333 H 0.41869 0.51575 0.434 0.0
C334 C 0.00515 0.30932 0.25799 0.0
C335 C 0.02177 0.29813 0.25201 0.0
C336 C 0.0046 0.32473 0.29937 0.0
C337 C 0.03553 0.36 0.37657 0.0
H338 H 0.99087 0.36856 0.47946 0.0
C339 C 0.03137 0.42514 0.54283 0.0
C340 C 0.01356 0.43439 0.54791 0.0
C341 C 0.03289 0.40752 0.51167 0.0
C342 C 0.00337 0.36653 0.45057 0.0
H343 H 0.05078 0.29419 0.28496 0.0
H344 H 0.04989 0.32138 0.35713 0.0
H345 H 0.9925 0.33956 0.41617 0.0
H346 H 0.98337 0.43234 0.52402 0.0
H347 H 0.98609 0.40204 0.46853 0.0
H348 H 0.04615 0.38722 0.4091 0.0
C349 C 0.0373 0.31814 0.32977 0.0
C350 C 0.00432 0.34985 0.41451 0.0
C351 C 0.03776 0.30253 0.28887 0.0
C352 C 0.9973 0.42557 0.52139 0.0
C353 C 0.99885 0.40807 0.48983 0.0
C354 C 0.03449 0.37679 0.41216 0.0
C355 C 0.02072 0.32945 0.33525 0.0
C356 C 0.02032 0.3465 0.37667 0.0
C357 C 0.01666 0.39881 0.48439 0.0
C358 C 0.0183 0.3804 0.44915 0.0
H359 H 0.99257 0.30617 0.23048 0.0
H360 H 0.99168 0.33327 0.30219 0.0
H361 H 0.04795 0.3579 0.34733 0.0
H362 H 0.04417 0.43147 0.56302 0.0
H363 H 0.04679 0.4007 0.50929 0.0
C364 C 0.8093 0.00163 0.05561 0.0
C365 C 0.80046 0.9833 0.05365 0.0
C366 C 0.82633 0.00524 0.0229 0.0
C367 C 0.85703 0.98547 0.89773 0.0
H368 H 0.89801 0.01342 0.98052 0.0
C369 C 0.93613 0.98019 0.82277 0.0
C370 C 0.9471 0.99733 0.82036 0.0
C371 C 0.9177 0.98009 0.8483 0.0
C372 C 0.88663 0.00579 0.9565 0.0
H373 H 0.80208 0.95469 0.01347 0.0
H374 H 0.83183 0.96077 0.95809 0.0
H375 H 0.86642 0.01071 0.02898 0.0
H376 H 0.94729 0.02781 0.84361 0.0
H377 H 0.9151 0.02754 0.88879 0.0
H378 H 0.87743 0.98008 0.82613 0.0
C379 C 0.82564 0.97247 0.98428 0.0
C380 C 0.86849 0.00428 0.98415 0.0
C381 C 0.80867 0.96889 0.01677 0.0
C382 C 0.93924 0.01435 0.84467 0.0
C383 C 0.92083 0.0142 0.87077 0.0
C384 C 0.87517 0.98686 0.87037 0.0
C385 C 0.83482 0.99062 0.98738 0.0
C386 C 0.85355 0.99383 0.95555 0.0
C387 C 0.90983 0.99708 0.87251 0.0
C388 C 0.89025 0.99678 0.89985 0.0
H389 H 0.80338 0.01302 0.08379 0.0
H390 H 0.83289 0.01946 0.02575 0.0
H391 H 0.84577 0.97767 0.87374 0.0
H392 H 0.94171 0.96682 0.8045 0.0
H393 H 0.90967 0.96661 0.84974 0.0
C394 C 0.55049 0.79757 0.95978 0.0
C395 C 0.53944 0.78997 0.00834 0.0
C396 C 0.54558 0.81499 0.93237 0.0
C397 C 0.50656 0.84904 0.90669 0.0
H398 H 0.54824 0.88622 0.88873 0.0
C399 C 0.49498 0.92747 0.82068 0.0
C400 C 0.5093 0.93528 0.78211 0.0
C401 C 0.49767 0.90965 0.84949 0.0
C402 C 0.53646 0.87594 0.89258 0.0
H403 H 0.51409 0.79448 0.0646 0.0
H404 H 0.5053 0.82485 0.01556 0.0
H405 H 0.55442 0.85498 0.93475 0.0
H406 H 0.5374 0.93019 0.74208 0.0
H407 H 0.54183 0.89914 0.79066 0.0
H408 H 0.48866 0.8699 0.86324 0.0
C409 C 0.51782 0.81724 -0.0009 0.0
C410 C 0.54002 0.85806 0.91916 0.0
C411 C 0.52284 0.79984 0.02701 0.0
C412 C 0.52616 0.92474 0.77209 0.0
C413 C 0.52876 0.90693 0.80033 0.0
C414 C 0.50302 0.86693 0.87943 0.0
C415 C 0.52938 0.82517 0.95238 0.0
C416 C 0.52517 0.84435 0.92594 0.0
C417 C 0.51468 0.89924 0.83998 0.0
C418 C 0.518 0.88052 0.87143 0.0
H419 H 0.56309 0.79012 0.94317 0.0
H420 H 0.55454 0.82058 0.89561 0.0
H421 H 0.49487 0.83868 0.91123 0.0
H422 H 0.48184 0.93524 0.82941 0.0
H423 H 0.48659 0.90423 0.88012 0.0
C424 C 0.69681 0.55845 0.01458 0.0
C425 C 0.70711 0.54547 0.05098 0.0
C426 C 0.68076 0.55226 0.98141 0.0
C427 C 0.64366 0.5138 0.97575 0.0
H428 H 0.6334 0.53624 0.81651 0.0
C429 C 0.5767 0.49374 0.82763 0.0
C430 C 0.5668 0.50968 0.80413 0.0
C431 C 0.59471 0.49625 0.85535 0.0
C432 C 0.63605 0.52988 0.86101 0.0
H433 H 0.70866 0.51567 0.08055 0.0
H434 H 0.68079 0.50472 0.02145 0.0
H435 H 0.66352 0.54377 0.86836 0.0
H436 H 0.56816 0.54073 0.7911 0.0
H437 H 0.5994 0.54501 0.83886 0.0
H438 H 0.61602 0.5 0.96814 0.0
C439 C 0.68503 0.51979 0.01927 0.0
C440 C 0.65328 0.53423 0.89084 0.0
C441 C 0.70112 0.52602 0.05262 0.0
C442 C 0.57533 0.52811 0.8087 0.0
C443 C 0.59333 0.53057 0.8357 0.0
C444 C 0.62643 0.50935 0.94563 0.0
C445 C 0.67462 0.53287 0.9834 0.0
C446 C 0.65713 0.52661 0.94922 0.0
C447 C 0.60324 0.5147 0.85931 0.0
C448 C 0.62228 0.51769 0.88856 0.0
H449 H 0.70116 0.57348 0.01156 0.0
H450 H 0.67296 0.56281 0.95504 0.0
H451 H 0.64607 0.5078 0.02087 0.0
H452 H 0.57053 0.47935 0.82491 0.0
H453 H 0.60206 0.48375 0.87301 0.0
C454 C 0.98226 0.70571 0.9936 0.0
C455 C 0.9722 0.70453 0.04943 0.0
C456 C 0.98703 0.6889 0.96133 0.0
C457 C 0.97266 0.63707 0.95029 0.0
H458 H 0.01889 0.63289 0.85162 0.0
C459 C 0.99637 0.56516 0.84216 0.0
C460 C 0.00143 0.56564 0.77964 0.0
C461 C 0.99373 0.58227 0.87507 0.0
C462 C 0.00587 0.63393 0.87874 0.0
H463 H 0.96022 0.68497 0.11713 0.0
H464 H 0.96913 0.65571 0.06249 0.0
H465 H 0.01313 0.66234 0.91058 0.0
H466 H 0.00813 0.58457 0.70316 0.0
H467 H 0.00373 0.61449 0.76113 0.0
H468 H 0.96561 0.60853 0.9193 0.0
C469 C 0.97274 0.66951 0.04205 0.0
C470 C 0.00251 0.65082 0.91241 0.0
C471 C 0.96775 0.68627 0.07372 0.0
C472 C 0.00417 0.58368 0.75118 0.0
C473 C 0.00176 0.60081 0.7844 0.0
C474 C 0.97613 0.62015 0.91732 0.0
C475 C 0.98205 0.67056 0.98469 0.0
C476 C 0.98586 0.65261 0.94879 0.0
C477 C 0.9963 0.60027 0.84652 0.0
C478 C 0.99276 0.61837 0.88124 0.0
H479 H 0.98574 0.71963 0.97372 0.0
H480 H 0.99403 0.69035 0.91713 0.0
H481 H 0.95943 0.63802 0.97632 0.0
H482 H 0.99414 0.55155 0.86559 0.0
H483 H 0.9897 0.58141 0.92304 0.0
C484 C 0.00552 0.18819 0.3215 0.0
C485 C 0.02536 0.19195 0.31958 0.0
C486 C 0.99804 0.17429 0.36172 0.0
C487 C 0.99257 0.13255 0.4046 0.0
H488 H 0.00994 0.12403 0.57104 0.0
C489 C 0.99755 0.05754 0.51855 0.0
C490 C 0.99331 0.0561 0.5815 0.0
C491 C 0.99706 0.07544 0.48905 0.0
C492 C 0.00471 0.12631 0.5249 0.0
H493 H 0.05279 0.18535 0.36038 0.0
H494 H 0.03973 0.16145 0.43186 0.0
H495 H 0.01724 0.15466 0.5205 0.0
H496 H 0.98388 0.07219 0.66165 0.0
H497 H 0.9831 0.10327 0.61013 0.0
H498 H 0.98069 0.10389 0.4082 0.0
C499 C 0.02992 0.16912 0.40243 0.0
C500 C 0.00899 0.1438 0.49593 0.0
C501 C 0.03741 0.18279 0.36169 0.0
C502 C 0.98744 0.07275 0.61326 0.0
C503 C 0.98705 0.09061 0.58388 0.0
C504 C 0.98846 0.11497 0.43337 0.0
C505 C 0.01029 0.16416 0.40107 0.0
C506 C 0.00328 0.14696 0.43511 0.0
C507 C 0.99239 0.09224 0.52197 0.0
C508 C 0.99479 0.11154 0.49344 0.0
H509 H 0.99602 0.1949 0.28876 0.0
H510 H 0.98284 0.17081 0.3601 0.0
H511 H 0.98818 0.1345 0.3574 0.0
H512 H 0.0021 0.04502 0.49268 0.0
H513 H 0.00135 0.07628 0.4413 0.0
C514 C 0.31281 0.98318 0.30107 0.0
C515 C 0.30909 0.00301 0.30486 0.0
C516 C 0.326 0.97478 0.34093 0.0
C517 C 0.3554 0.98314 0.48043 0.0
H518 H 0.39626 0.95971 0.38549 0.0
C519 C 0.44146 0.98119 0.49347 0.0
C520 C 0.44407 0.97671 0.55572 0.0
C521 C 0.42355 0.97843 0.46583 0.0
C522 C 0.3849 0.96603 0.41274 0.0
H523 H 0.31496 0.02937 0.35497 0.0
H524 H 0.33765 0.01471 0.42557 0.0
H525 H 0.36539 0.96601 0.33713 0.0
H526 H 0.43022 0.96445 0.63644 0.0
H527 H 0.39903 0.95975 0.58809 0.0
H528 H 0.37525 0.98416 0.55504 0.0
C529 C 0.33043 0.00557 0.39226 0.0
C530 C 0.36716 0.96946 0.3853 0.0
C531 C 0.31747 0.01399 0.35197 0.0
C532 C 0.42871 0.96823 0.58852 0.0
C533 C 0.41079 0.96559 0.56097 0.0
C534 C 0.37308 0.97958 0.508 0.0
C535 C 0.33547 0.98609 0.3854 0.0
C536 C 0.35246 0.97867 0.41827 0.0
C537 C 0.40787 0.9712 0.49991 0.0
C538 C 0.38823 0.9716 0.47381 0.0
H539 H 0.30667 0.97456 0.26438 0.0
H540 H 0.32956 0.95971 0.3349 0.0
H541 H 0.34429 0.99018 0.50694 0.0
H542 H 0.45298 0.98767 0.46678 0.0
H543 H 0.42171 0.98303 0.41877 0.0
C544 C 0.4812 0.31769 0.33627 0.0
C545 C 0.49502 0.30839 0.3002 0.0
C546 C 0.4865 0.33312 0.37399 0.0
C547 C 0.52766 0.36167 0.43652 0.0
H548 H 0.49205 0.40381 0.41623 0.0
C549 C 0.53035 0.43257 0.5772 0.0
C550 C 0.52347 0.44954 0.54998 0.0
C551 C 0.53012 0.41513 0.54495 0.0
C552 C 0.50232 0.39232 0.42167 0.0
H553 H 0.52528 0.30686 0.27795 0.0
H554 H 0.53461 0.33407 0.34339 0.0
H555 H 0.48477 0.37268 0.37071 0.0
H556 H 0.51278 0.46182 0.46542 0.0
H557 H 0.51285 0.43149 0.40867 0.0
H558 H 0.54541 0.38166 0.48655 0.0
C559 C 0.51974 0.32932 0.34342 0.0
C560 C 0.49794 0.3743 0.39661 0.0
C561 C 0.51444 0.31369 0.30614 0.0
C562 C 0.51795 0.449 0.48806 0.0
C563 C 0.51784 0.43156 0.45568 0.0
C564 C 0.53208 0.3798 0.46165 0.0
C565 C 0.50567 0.33977 0.37543 0.0
C566 C 0.51044 0.3587 0.40412 0.0
C567 C 0.52313 0.41429 0.48462 0.0
C568 C 0.51941 0.39533 0.45461 0.0
H569 H 0.46614 0.31382 0.33214 0.0
H570 H 0.47539 0.34054 0.39939 0.0
H571 H 0.53761 0.34995 0.44302 0.0
H572 H 0.53483 0.43244 0.62474 0.0
H573 H 0.53426 0.40213 0.56875 0.0
C574 C 0.19799 0.52899 0.35419 0.0
C575 C 0.20107 0.53617 0.29487 0.0
C576 C 0.1833 0.5365 0.39082 0.0
C577 C 0.1359 0.55301 0.35772 0.0
H578 H 0.12944 0.5528 0.53449 0.0
C579 C 0.06877 0.54985 0.539 0.0
C580 C 0.06233 0.53084 0.52813 0.0
C581 C 0.08589 0.55659 0.51214 0.0
C582 C 0.13108 0.55329 0.48507 0.0
H583 H 0.19299 0.55806 0.22961 0.0
H584 H 0.16756 0.57145 0.29389 0.0
H585 H 0.16184 0.55559 0.49005 0.0
H586 H 0.06811 0.5043 0.47904 0.0
H587 H 0.09749 0.51638 0.43007 0.0
H588 H 0.10536 0.54912 0.35282 0.0
C589 C 0.17629 0.55997 0.3121 0.0
C590 C 0.14956 0.5548 0.45971 0.0
C591 C 0.19096 0.55247 0.2756 0.0
C592 C 0.07276 0.51901 0.48805 0.0
C593 C 0.08951 0.5259 0.46008 0.0
C594 C 0.11754 0.5512 0.38304 0.0
C595 C 0.17147 0.55119 0.36822 0.0
C596 C 0.15218 0.5541 0.39575 0.0
C597 C 0.0964 0.54458 0.4728 0.0
C598 C 0.11506 0.55076 0.44681 0.0
H599 H 0.20541 0.5162 0.36941 0.0
H600 H 0.1799 0.52936 0.43372 0.0
H601 H 0.1374 0.55209 0.30832 0.0
H602 H 0.06105 0.55916 0.5703 0.0
H603 H 0.09104 0.57104 0.52253 0.0
C604 C 0.01532 0.80779 0.01094 0.0
C605 C 0.02266 0.8025 0.06834 0.0
C606 C 0.02463 0.822 0.97597 0.0
C607 C 0.05026 0.86585 0.01123 0.0
H608 H 0.04941 0.87369 0.83519 0.0
C609 C 0.02833 0.93552 0.89301 0.0
C610 C 0.03963 0.9427 0.84462 0.0
C611 C 0.03288 0.9181 0.921 0.0
C612 C 0.05012 0.87161 0.88438 0.0
H613 H 0.04676 0.80587 0.13026 0.0
H614 H 0.063 0.83071 0.06924 0.0
H615 H 0.04621 0.84093 0.87668 0.0
H616 H 0.06475 0.93768 0.78814 0.0
H617 H 0.07237 0.90657 0.83608 0.0
H618 H 0.05267 0.89661 0.01907 0.0
C619 C 0.04992 0.82415 0.05174 0.0
C620 C 0.04819 0.85293 0.90806 0.0
C621 C 0.04066 0.80991 0.08652 0.0
C622 C 0.05598 0.9325 0.82596 0.0
C623 C 0.06026 0.91473 0.85296 0.0
C624 C 0.05189 0.88449 0.98762 0.0
C625 C 0.0414 0.83112 -0.00203 0.0
C626 C 0.04764 0.84994 0.97181 0.0
C627 C 0.04855 0.90729 0.9001 0.0
C628 C 0.05122 0.88758 0.92412 0.0
H629 H 0.00143 0.80241 0.99591 0.0
H630 H 0.01768 0.82711 0.93479 0.0
H631 H 0.04964 0.86408 0.06057 0.0
H632 H 0.01559 0.9431 0.9079 0.0
H633 H 0.02353 0.91257 0.95687 0.0
C634 C 0.69833 0.01812 0.98407 0.0
C635 C 0.70259 0.03007 0.03437 0.0
C636 C 0.68435 0.02351 0.94176 0.0
C637 C 0.63972 0.05028 0.94688 0.0
H638 H 0.63525 0.03196 0.77942 0.0
C639 C 0.56651 0.04367 0.8185 0.0
C640 C 0.56381 0.02544 0.79105 0.0
C641 C 0.58466 0.04925 0.84072 0.0
C642 C 0.63631 0.03728 0.82607 0.0
H643 H 0.69744 0.05798 0.07582 0.0
H644 H 0.6732 0.06755 0.00139 0.0
H645 H 0.66684 0.03378 0.82757 0.0
H646 H 0.57814 0.99878 0.76621 0.0
H647 H 0.60926 0.00843 0.80473 0.0
H648 H 0.60907 0.05286 0.94629 0.0
C649 C 0.68029 0.05384 0.99536 0.0
C650 C 0.65439 0.03833 0.85358 0.0
C651 C 0.69427 0.04844 0.03764 0.0
C652 C 0.57957 0.01296 0.78681 0.0
C653 C 0.59757 0.01856 0.80832 0.0
C654 C 0.62163 0.04925 0.91929 0.0
C655 C 0.67441 0.04097 0.94901 0.0
C656 C 0.65621 0.04409 0.91512 0.0
C657 C 0.60041 0.03679 0.83508 0.0
C658 C 0.61967 0.04195 0.85952 0.0
H659 H 0.70439 0.00381 0.98073 0.0
H660 H 0.68014 0.01319 0.90679 0.0
H661 H 0.64054 0.0546 0.99459 0.0
H662 H 0.5547 0.05365 0.82234 0.0
H663 H 0.58645 0.06336 0.86154 0.0
C664 C 0.49121 0.68898 0.99377 0.0
C665 C 0.48448 0.69488 0.0516 0.0
C666 C 0.48154 0.67444 0.96128 0.0
C667 C 0.45672 0.6309 0.00362 0.0
H668 H 0.45638 0.62129 0.82832 0.0
C669 C 0.48142 0.56175 0.88778 0.0
C670 C 0.47055 0.55382 0.83972 0.0
C671 C 0.47571 0.57881 0.91617 0.0
C672 C 0.45596 0.62384 0.87737 0.0
H673 H 0.46098 0.69221 0.11666 0.0
H674 H 0.4442 0.66667 0.06013 0.0
H675 H 0.45895 0.65451 0.86661 0.0
H676 H 0.44502 0.557 0.78437 0.0
H677 H 0.43534 0.5875 0.83291 0.0
H678 H 0.45534 0.60018 0.01433 0.0
C679 C 0.45708 0.67307 0.0404 0.0
C680 C 0.45753 0.6428 0.89921 0.0
C681 C 0.46667 0.68768 0.07266 0.0
C682 C 0.45343 0.56275 0.82207 0.0
C683 C 0.44798 0.58019 0.84941 0.0
C684 C 0.45544 0.61198 0.98179 0.0
C685 C 0.46502 0.66555 0.9862 0.0
C686 C 0.45863 0.64644 0.96257 0.0
C687 C 0.45932 0.58851 0.89586 0.0
C688 C 0.45575 0.60827 0.91854 0.0
H689 H 0.50492 0.69416 0.97641 0.0
H690 H 0.48806 0.66891 0.91971 0.0
H691 H 0.45775 0.63319 0.05269 0.0
H692 H 0.49476 0.55516 0.90165 0.0
H693 H 0.48481 0.58506 0.95141 0.0
C694 C 0.81554 0.48927 0.02674 0.0
C695 C 0.8075 0.50775 0.02325 0.0
C696 C 0.82941 0.48351 0.98425 0.0
C697 C 0.86762 0.50748 0.90061 0.0
H698 H 0.88044 0.45601 0.8447 0.0
C699 C 0.94498 0.48845 0.84184 0.0
C700 C 0.94786 0.4802 0.78362 0.0
C701 C 0.92656 0.48925 0.86725 0.0
C702 C 0.87697 0.47046 0.85985 0.0
H703 H 0.80593 0.53379 0.96895 0.0
H704 H 0.82997 0.52362 0.89392 0.0
H705 H 0.84827 0.46228 0.88616 0.0
H706 H 0.93385 0.46483 0.70888 0.0
H707 H 0.90172 0.46611 0.75382 0.0
H708 H 0.89628 0.51565 0.87569 0.0
C709 C 0.8258 0.51372 0.9301 0.0
C710 C 0.85861 0.47405 0.88351 0.0
C711 C 0.81188 0.51946 0.97257 0.0
C712 C 0.93214 0.4714 0.75366 0.0
C713 C 0.91372 0.4721 0.77937 0.0
C714 C 0.88593 0.50387 0.87764 0.0
C715 C 0.83549 0.49617 0.93765 0.0
C716 C 0.85382 0.49258 0.90471 0.0
C717 C 0.91067 0.48169 0.83528 0.0
C718 C 0.89092 0.48527 0.85795 0.0
H719 H 0.81232 0.47997 0.06541 0.0
H720 H 0.83658 0.46991 0.99139 0.0
H721 H 0.86454 0.52184 0.9175 0.0
H722 H 0.95674 0.49527 0.86641 0.0
H723 H 0.92465 0.49641 0.91107 0.0
C724 C 0.07307 0.17151 0.14214 0.0
C725 C 0.05974 0.18539 0.12325 0.0
C726 C 0.07694 0.15551 0.10525 0.0
C727 C 0.06358 0.11737 0.05062 0.0
H728 H 0.06821 0.11446 0.87347 0.0
C729 C 0.03076 0.05712 0.90186 0.0
C730 C 0.0426 0.04827 0.85804 0.0
C731 C 0.03741 0.07301 0.93536 0.0
C732 C 0.0672 0.11506 0.92305 0.0
H733 H 0.04165 0.19442 0.04808 0.0
H734 H 0.0487 0.16662 0.98315 0.0
H735 H 0.07315 0.14554 0.92585 0.0
H736 H 0.07075 0.04892 0.81522 0.0
H737 H 0.08222 0.07729 0.87293 0.0
H738 H 0.05647 0.08722 0.04757 0.0
C739 C 0.05605 0.16807 0.02667 0.0
C740 C 0.06992 0.1328 0.95288 0.0
C741 C 0.05205 0.18404 0.06382 0.0
C742 C 0.0614 0.05538 0.84919 0.0
C743 C 0.06791 0.07163 0.88175 0.0
C744 C 0.06053 0.09977 0.02076 0.0
C745 C 0.06774 0.15317 0.04845 0.0
C746 C 0.06781 0.13418 0.0169 0.0
C747 C 0.05589 0.08063 0.92477 0.0
C748 C 0.06194 0.09854 0.95668 0.0
H749 H 0.07947 0.17234 0.18733 0.0
H750 H 0.08626 0.14438 0.1227 0.0
H751 H 0.06159 0.11802 0.09989 0.0
H752 H 0.0162 0.05195 0.90953 0.0
H753 H 0.02783 0.07979 0.96802 0.0
C754 C 0.33362 0.05326 0.13641 0.0
C755 C 0.31893 0.04073 0.11614 0.0
C756 C 0.34928 0.05766 0.09835 0.0
C757 C 0.36852 0.05118 0.93882 0.0
H758 H 0.41713 0.0453 0.02302 0.0
C759 C 0.43417 0.01712 0.82799 0.0
C760 C 0.45217 0.02641 0.83289 0.0
C761 C 0.41833 0.02385 0.86045 0.0
C762 C 0.40372 0.04736 -0.00103 0.0
H763 H 0.30848 0.024 0.03891 0.0
H764 H 0.33575 0.03136 0.97288 0.0
H765 H 0.38767 0.049 0.08251 0.0
H766 H 0.46766 0.05001 0.87655 0.0
H767 H 0.43978 0.06143 0.93571 0.0
H768 H 0.38458 0.04813 0.85536 0.0
C769 C 0.33518 0.03813 0.01766 0.0
C770 C 0.38678 0.04955 0.03297 0.0
C771 C 0.31947 0.03387 0.05554 0.0
C772 C 0.45399 0.04253 0.87191 0.0
C773 C 0.43809 0.04907 0.90558 0.0
C774 C 0.3854 0.04875 0.90496 0.0
C775 C 0.35065 0.04949 0.03936 0.0
C776 C 0.36887 0.05084 0.00333 0.0
C777 C 0.42008 0.03988 0.89944 0.0
C778 C 0.40305 0.04621 0.93478 0.0
H779 H 0.33346 0.05889 0.18282 0.0
H780 H 0.36068 0.06683 0.11611 0.0
H781 H 0.3551 0.05259 0.91437 0.0
H782 H 0.43214 0.00476 0.7981 0.0
H783 H 0.40469 0.01632 0.85562 0.0
C784 C 0.45126 0.32043 0.10353 0.0
C785 C 0.4671 0.3084 0.09373 0.0
C786 C 0.44713 0.33516 0.06208 0.0
C787 C 0.46169 0.35657 0.91096 0.0
H788 H 0.45426 0.40497 0.99731 0.0
C789 C 0.49043 0.42881 0.82207 0.0
C790 C 0.47861 0.44513 0.82458 0.0
C791 C 0.48463 0.4115 0.8491 0.0
C792 C 0.45597 0.39156 0.97233 0.0
H793 H 0.49013 0.30134 0.03089 0.0
H794 H 0.48321 0.32712 0.95908 0.0
H795 H 0.45103 0.37464 0.05267 0.0
H796 H 0.45144 0.45605 0.85815 0.0
H797 H 0.44152 0.42566 0.90734 0.0
H798 H 0.46782 0.37375 0.83151 0.0
C799 C 0.47371 0.32513 -0.00195 0.0
C800 C 0.45404 0.37411 0.00393 0.0
C801 C 0.47771 0.31029 0.03922 0.0
C802 C 0.46088 0.44375 0.85553 0.0
C803 C 0.45519 0.4264 0.88355 0.0
C804 C 0.4638 0.37403 0.87957 0.0
C805 C 0.45889 0.33828 0.01036 0.0
C806 C 0.45746 0.35641 0.97409 0.0
C807 C 0.46697 0.41007 0.88 0.0
C808 C 0.46153 0.39169 0.91043 0.0
H809 H 0.44277 0.31916 0.14511 0.0
H810 H 0.43531 0.3447 0.07223 0.0
H811 H 0.46402 0.34323 0.88619 0.0
H812 H 0.50413 0.42926 0.79836 0.0
H813 H 0.49415 0.39925 0.84658 0.0
C814 C 0.17134 0.48261 0.15278 0.0
C815 C 0.1882 0.49033 0.12633 0.0
C816 C 0.15597 0.47679 0.11598 0.0
C817 C 0.14034 0.46513 0.95878 0.0
H818 H 0.09398 0.49196 0.00624 0.0
C819 C 0.07855 0.47851 0.78981 0.0
C820 C 0.05966 0.48025 0.81203 0.0
C821 C 0.09383 0.47586 0.8301 0.0
C822 C 0.10657 0.48394 0.99281 0.0
H823 H 0.20275 0.49651 0.04041 0.0
H824 H 0.17588 0.48602 0.97582 0.0
H825 H 0.12186 0.49324 0.07266 0.0
H826 H 0.04189 0.47949 0.89386 0.0
H827 H 0.06847 0.47415 0.96419 0.0
H828 H 0.12506 0.45581 0.87882 0.0
C829 C 0.17459 0.48459 0.02515 0.0
C830 C 0.12262 0.48476 0.03092 0.0
C831 C 0.18998 0.49056 0.06209 0.0
C832 C 0.0563 0.47841 0.87534 0.0
C833 C 0.07158 0.47547 0.91566 0.0
C834 C 0.12415 0.46407 0.92094 0.0
C835 C 0.15719 0.47837 0.05191 0.0
C836 C 0.13976 0.47565 0.01385 0.0
C837 C 0.09062 0.4746 0.89371 0.0
C838 C 0.10717 0.4738 0.93686 0.0
H839 H 0.16971 0.48188 0.20218 0.0
H840 H 0.14284 0.47173 0.13774 0.0
H841 H 0.15334 0.45786 0.94481 0.0
H842 H 0.0817 0.47994 0.74131 0.0
H843 H 0.10824 0.4756 0.81133 0.0
C844 C 0.00425 0.81459 0.30479 0.0
C845 C 0.98909 0.80862 0.26662 0.0
C846 C 0.0015 0.82911 0.34841 0.0
C847 C 0.98981 0.85592 0.45277 0.0
H848 H 0.96623 0.90191 0.38698 0.0
C849 C 0.98233 0.92499 0.59748 0.0
C850 C 0.98881 0.94213 0.56923 0.0
C851 C 0.97935 0.9082 0.56309 0.0
C852 C 0.9728 0.88916 0.406 0.0
H853 H 0.95897 0.81247 0.24582 0.0
H854 H 0.95413 0.83794 0.32233 0.0
H855 H 0.96656 0.87225 0.32596 0.0
H856 H 0.99634 0.95519 0.48192 0.0
H857 H 0.99107 0.92581 0.42179 0.0
H858 H 0.99656 0.87293 0.53202 0.0
C859 C 0.96814 0.8314 0.31835 0.0
C860 C 0.97281 0.87213 0.3714 0.0
C861 C 0.97084 0.81669 0.27513 0.0
C862 C 0.99136 0.94227 0.5052 0.0
C863 C 0.98828 0.92545 0.47069 0.0
C864 C 0.98965 0.87288 0.48757 0.0
C865 C 0.98358 0.8381 0.35429 0.0
C866 C 0.9816 0.85542 0.394 0.0
C867 C 0.98266 0.90812 0.49952 0.0
C868 C 0.98142 0.88978 0.46419 0.0
H869 H 0.01846 0.80862 0.29893 0.0
H870 H 0.01371 0.83403 0.37511 0.0
H871 H 0.99662 0.84325 0.47147 0.0
H872 H 0.98007 0.92432 0.64662 0.0
H873 H 0.97473 0.89517 0.58647 0.0
C874 C 0.6902 0.9914 0.275 0.0
C875 C 0.6937 0.00966 0.24901 0.0
C876 C 0.67457 0.9884 0.31445 0.0
C877 C 0.63526 0.01402 0.39896 0.0
H878 H 0.60761 0.96584 0.37154 0.0
C879 C 0.55587 0.00317 0.46581 0.0
C880 C 0.55295 0.98846 0.50922 0.0
C881 C 0.57323 0.00456 0.43366 0.0
C882 C 0.61525 0.97931 0.37961 0.0
H883 H 0.68461 0.03949 0.249 0.0
H884 H 0.65697 0.03416 0.31484 0.0
H885 H 0.63882 0.9711 0.32276 0.0
H886 H 0.56527 0.96288 0.54975 0.0
H887 H 0.59535 0.96492 0.49145 0.0
H888 H 0.61107 0.02245 0.45349 0.0
C889 C 0.66631 0.0221 0.30574 0.0
C890 C 0.63324 0.9823 0.35234 0.0
C891 C 0.68211 0.02515 0.26724 0.0
C892 C 0.56713 0.97436 0.51652 0.0
C893 C 0.58433 0.97552 0.48335 0.0
C894 C 0.6171 0.01117 0.4251 0.0
C895 C 0.66191 0.00353 0.32816 0.0
C896 C 0.64347 0.99976 0.36131 0.0
C897 C 0.58775 0.99102 0.44335 0.0
C898 C 0.60692 0.99386 0.41529 0.0
H899 H 0.69878 0.9791 0.26196 0.0
H900 H 0.67203 0.97403 0.33226 0.0
H901 H 0.64279 0.02746 0.4082 0.0
H902 H 0.54528 0.01434 0.4596 0.0
H903 H 0.57556 0.01655 0.4026 0.0
C904 C 0.538 0.6844 0.25656 0.0
C905 C 0.51953 0.69183 0.24751 0.0
C906 C 0.54115 0.67055 0.30183 0.0
C907 C 0.51992 0.64699 0.43901 0.0
H908 H 0.54492 0.60114 0.37663 0.0
C909 C 0.52742 0.57865 0.58629 0.0
C910 C 0.52162 0.56133 0.55764 0.0
C911 C 0.53036 0.59542 0.55197 0.0
C912 C 0.53796 0.61386 0.39473 0.0
H913 H 0.49023 0.69172 0.28123 0.0
H914 H 0.49572 0.66762 0.36052 0.0
H915 H 0.54414 0.63024 0.31381 0.0
H916 H 0.51516 0.54792 0.46992 0.0
H917 H 0.52028 0.57724 0.41004 0.0
H918 H 0.51309 0.63039 0.51894 0.0
C919 C 0.50777 0.67244 0.33276 0.0
C920 C 0.5377 0.63059 0.3591 0.0
C921 C 0.50459 0.68617 0.28725 0.0
C922 C 0.51959 0.561 0.49349 0.0
C923 C 0.52262 0.57778 0.45912 0.0
C924 C 0.52028 0.6303 0.47479 0.0
C925 C 0.52593 0.66401 0.33915 0.0
C926 C 0.52835 0.64721 0.38037 0.0
C927 C 0.52767 0.59525 0.48817 0.0
C928 C 0.52897 0.61344 0.45253 0.0
H929 H 0.54974 0.6884 0.2262 0.0
H930 H 0.55534 0.66444 0.3062 0.0
H931 H 0.5127 0.65962 0.4567 0.0
H932 H 0.52924 0.57944 0.63557 0.0
H933 H 0.53451 0.6086 0.57551 0.0
C934 C 0.82526 0.51169 0.25967 0.0
C935 C 0.81642 0.52836 0.23734 0.0
C936 C 0.84157 0.51316 0.29635 0.0
C937 C 0.87225 0.54354 0.39256 0.0
H938 H 0.91299 0.51348 0.31863 0.0
C939 C 0.94952 0.54024 0.4945 0.0
C940 C 0.95641 0.52132 0.49994 0.0
C941 C 0.93304 0.54391 0.4596 0.0
C942 C 0.90179 0.52191 0.34003 0.0
H943 H 0.81658 0.55961 0.24038 0.0
H944 H 0.8451 0.56218 0.306 0.0
H945 H 0.88148 0.51401 0.27084 0.0
H946 H 0.95198 0.49162 0.47088 0.0
H947 H 0.92361 0.49794 0.41084 0.0
H948 H 0.89251 0.55085 0.46318 0.0
C949 C 0.83942 0.54802 0.29452 0.0
C950 C 0.88374 0.52219 0.3127 0.0
C951 C 0.82306 0.54654 0.25736 0.0
C952 C 0.94705 0.50636 0.46782 0.0
C953 C 0.9308 0.51002 0.43294 0.0
C954 C 0.89038 0.54311 0.42048 0.0
C955 C 0.8493 0.53133 0.31176 0.0
C956 C 0.86867 0.53257 0.33947 0.0
C957 C 0.9234 0.52875 0.42904 0.0
C958 C 0.90518 0.53185 0.39528 0.0
H959 H 0.82031 0.4975 0.24532 0.0
H960 H 0.84874 0.50007 0.31009 0.0
H961 H 0.86086 0.55176 0.41375 0.0
H962 H 0.95638 0.55203 0.51904 0.0
H963 H 0.92774 0.55851 0.45709 0.0
loop_
_geom_bond_atom_site_label_1
_geom_bond_atom_site_label_2
_geom_bond_distance
_geom_bond_site_symmetry_2
_ccdc_geom_bond_type
H0 C1 0.949 . S
C1 H0 0.949 . S
C1 C2 1.395 . S
C1 C3 1.391 1_556 S
C2 C1 1.395 . S
C2 C5 1.390 1_556 S
C3 C1 1.391 1_554 S
C3 C7 1.387 . S
C3 C8 1.491 . S
H4 C5 0.950 . S
C5 C2 1.390 1_554 S
C5 H4 0.950 . S
C5 C6 1.378 . S
C6 C5 1.378 . S
C6 C7 1.409 . S
C7 C3 1.387 . S
C7 C6 1.409 . S
C7 H9 0.951 . S
C8 C3 1.491 . S
C8 C10 1.382 1_554 S
C8 C12 1.404 . S
H9 C7 0.951 . S
C10 C8 1.382 1_556 S
C10 C11 1.390 . S
C10 H15 0.949 . S
C11 C10 1.390 . S
C11 C16 1.399 1_556 S
C12 C8 1.404 . S
C12 H13 0.950 . S
C12 C14 1.375 . S
H13 C12 0.950 . S
C14 C12 1.375 . S
C14 C16 1.382 . S
C14 H18 0.950 . S
H15 C10 0.949 . S
C16 C11 1.399 1_554 S
C16 C14 1.382 . S
C16 H17 0.952 . S
H17 C16 0.952 . S
H18 C14 0.950 . S
H19 C20 0.949 . S
C20 H19 0.949 . S
C20 C21 1.390 1_655 S
C20 C22 1.391 . S
C21 C20 1.390 1_455 S
C21 C24 1.393 . S
C22 C20 1.391 . S
C22 C26 1.387 . S
C22 C27 1.491 . S
H23 C24 0.950 . S
C24 C21 1.393 . S
C24 H23 0.950 . S
C24 C25 1.379 . S
C25 C24 1.379 . S
C25 C26 1.408 1_455 S
C26 C22 1.387 . S
C26 C25 1.408 1_655 S
C26 H28 0.951 . S
C27 C22 1.491 . S
C27 C29 1.382 . S
C27 C31 1.404 . S
H28 C26 0.951 . S
C29 C27 1.382 . S
C29 C30 1.390 . S
C29 H34 0.949 1_655 S
C30 C29 1.390 . S
C30 C35 1.399 . S
C31 C27 1.404 . S
C31 H32 0.950 . S
C31 C33 1.375 . S
H32 C31 0.950 . S
C33 C31 1.375 . S
C33 C35 1.382 . S
C33 H37 0.950 . S
H34 C29 0.949 1_455 S
C35 C30 1.399 . S
C35 C33 1.382 . S
C35 H36 0.952 . S
H36 C35 0.952 . S
H37 C33 0.950 . S
H38 C39 0.949 1_556 S
C39 H38 0.949 1_554 S
C39 C40 1.394 1_565 S
C39 C41 1.391 . S
C40 C39 1.394 1_545 S
C40 C43 1.391 . S
C41 C39 1.391 . S
C41 C45 1.387 . S
C41 C46 1.491 . S
H42 C43 0.950 . S
C43 C40 1.391 . S
C43 H42 0.950 . S
C43 C44 1.378 1_545 S
C44 C43 1.378 1_565 S
C44 C45 1.409 . S
C45 C41 1.387 . S
C45 C44 1.409 . S
C45 H47 0.951 . S
C46 C41 1.491 . S
C46 C48 1.382 . S
C46 C50 1.404 . S
H47 C45 0.951 . S
C48 C46 1.382 . S
C48 C49 1.390 . S
C48 H53 0.949 1_565 S
C49 C48 1.390 . S
C49 C54 1.399 . S
C50 C46 1.404 . S
C50 H51 0.950 . S
C50 C52 1.375 . S
H51 C50 0.950 . S
C52 C50 1.375 . S
C52 C54 1.382 . S
C52 H56 0.950 . S
H53 C48 0.949 1_545 S
C54 C49 1.399 . S
C54 C52 1.382 . S
C54 H55 0.952 . S
H55 C54 0.952 . S
H56 C52 0.950 . S
H57 C58 0.949 . S
C58 H57 0.949 . S
C58 C59 1.395 . S
C58 C60 1.391 1_556 S
C59 C58 1.395 . S
C59 C62 1.390 1_556 S
C60 C58 1.391 1_554 S
C60 C64 1.387 . S
C60 C65 1.491 . S
H61 C62 0.950 . S
C62 C59 1.390 1_554 S
C62 H61 0.950 . S
C62 C63 1.378 . S
C63 C62 1.378 . S
C63 C64 1.409 . S
C64 C60 1.387 . S
C64 C63 1.409 . S
C64 H66 0.951 . S
C65 C60 1.491 . S
C65 C67 1.382 . S
C65 C69 1.404 . S
H66 C64 0.951 . S
C67 C65 1.382 . S
C67 C68 1.390 1_554 S
C67 H72 0.949 1_554 S
C68 C67 1.390 1_556 S
C68 C73 1.399 1_556 S
C69 C65 1.404 . S
C69 H70 0.950 . S
C69 C71 1.375 . S
H70 C69 0.950 . S
C71 C69 1.375 . S
C71 C73 1.382 . S
C71 H75 0.950 . S
H72 C67 0.949 1_556 S
C73 C68 1.399 1_554 S
C73 C71 1.382 . S
C73 H74 0.952 . S
H74 C73 0.952 . S
H75 C71 0.950 . S
H76 C77 0.949 . S
C77 H76 0.949 . S
C77 C78 1.395 . S
C77 C79 1.391 . S
C78 C77 1.395 . S
C78 C81 1.390 . S
C79 C77 1.391 . S
C79 C83 1.387 . S
C79 C84 1.491 . S
H80 C81 0.950 . S
C81 C78 1.390 . S
C81 H80 0.950 . S
C81 C82 1.378 . S
C82 C81 1.378 . S
C82 C83 1.409 . S
C83 C79 1.387 . S
C83 C82 1.409 . S
C83 H85 0.951 . S
C84 C79 1.491 . S
C84 C86 1.382 . S
C84 C88 1.404 . S
H85 C83 0.951 . S
C86 C84 1.382 . S
C86 C87 1.390 . S
C86 H91 0.949 . S
C87 C86 1.390 . S
C87 C92 1.399 . S
C88 C84 1.404 . S
C88 H89 0.950 . S
C88 C90 1.375 . S
H89 C88 0.950 . S
C90 C88 1.375 . S
C90 C92 1.382 . S
C90 H94 0.950 . S
H91 C86 0.949 . S
C92 C87 1.399 . S
C92 C90 1.382 . S
C92 H93 0.952 . S
H93 C92 0.952 . S
H94 C90 0.950 . S
H95 C96 0.949 . S
C96 H95 0.949 . S
C96 C97 1.395 . S
C96 C98 1.391 . S
C97 C96 1.395 . S
C97 C100 1.390 . S
C98 C96 1.391 . S
C98 C102 1.387 . S
C98 C103 1.491 . S
H99 C100 0.950 . S
C100 C97 1.390 . S
C100 H99 0.950 . S
C100 C101 1.378 . S
C101 C100 1.378 . S
C101 C102 1.409 . S
C102 C98 1.387 . S
C102 C101 1.409 . S
C102 H104 0.951 . S
C103 C98 1.491 . S
C103 C105 1.382 . S
C103 C107 1.404 . S
H104 C102 0.951 . S
C105 C103 1.382 . S
C105 C106 1.390 . S
C105 H110 0.949 . S
C106 C105 1.390 . S
C106 C111 1.399 . S
C107 C103 1.404 . S
C107 H108 0.950 . S
C107 C109 1.375 . S
H108 C107 0.950 . S
C109 C107 1.375 . S
C109 C111 1.382 . S
C109 H113 0.950 1_455 S
H110 C105 0.949 . S
C111 C106 1.399 . S
C111 C109 1.382 . S
C111 H112 0.952 . S
H112 C111 0.952 . S
H113 C109 0.950 1_655 S
H114 C115 0.949 . S
C115 H114 0.949 . S
C115 C116 1.395 . S
C115 C117 1.391 . S
C116 C115 1.395 . S
C116 C119 1.390 . S
C117 C115 1.391 . S
C117 C121 1.387 . S
C117 C122 1.500 . S
H118 C119 0.950 . S
C119 C116 1.390 . S
C119 H118 0.950 . S
C119 C120 1.378 . S
C120 C119 1.378 . S
C120 C121 1.409 . S
C121 C117 1.387 . S
C121 C120 1.409 . S
C121 H123 0.951 . S
C122 C117 1.500 . S
C122 C124 1.400 . S
C122 C126 1.377 1_545 S
H123 C121 0.951 . S
C124 C122 1.400 . S
C124 C125 1.390 . S
C124 H129 0.949 . S
C125 C124 1.390 . S
C125 C130 1.399 1_545 S
C126 C122 1.377 1_565 S
C126 H127 0.950 . S
C126 C128 1.375 . S
H127 C126 0.950 . S
C128 C126 1.375 . S
C128 C130 1.382 . S
C128 H132 0.950 . S
H129 C124 0.949 . S
C130 C125 1.399 1_565 S
C130 C128 1.382 . S
C130 H131 0.952 . S
H131 C130 0.952 . S
H132 C128 0.950 . S
H133 C134 0.949 . S
C134 H133 0.949 . S
C134 C135 1.395 . S
C134 C136 1.391 . S
C135 C134 1.395 . S
C135 C138 1.390 . S
C136 C134 1.391 . S
C136 C140 1.387 . S
C136 C141 1.491 . S
H137 C138 0.950 . S
C138 C135 1.390 . S
C138 H137 0.950 . S
C138 C139 1.378 . S
C139 C138 1.378 . S
C139 C140 1.409 . S
C140 C136 1.387 . S
C140 C139 1.409 . S
C140 H142 0.951 . S
C141 C136 1.491 . S
C141 C143 1.382 . S
C141 C145 1.404 . S
H142 C140 0.951 . S
C143 C141 1.382 . S
C143 C144 1.390 . S
C143 H148 0.949 . S
C144 C143 1.390 . S
C144 C149 1.399 . S
C145 C141 1.404 . S
C145 H146 0.950 . S
C145 C147 1.375 . S
H146 C145 0.950 . S
C147 C145 1.375 . S
C147 C149 1.382 . S
C147 H151 0.950 . S
H148 C143 0.949 . S
C149 C144 1.399 . S
C149 C147 1.382 . S
C149 H150 0.952 . S
H150 C149 0.952 . S
H151 C147 0.950 . S
O152 Zn153 1.957 . S
O152 C168 1.216 1_545 S
Zn153 O152 1.957 . S
Zn153 O154 1.948 1_545 S
Zn153 O160 1.952 . S
Zn153 O165 1.885 1_545 S
O154 Zn153 1.948 1_565 S
O154 Zn155 1.904 1_465 S
O154 Zn156 1.952 . S
O154 Zn157 1.963 1_455 S
Zn155 O154 1.904 1_645 S
Zn155 O158 1.933 . S
Zn155 O161 1.941 1_655 S
Zn155 O162 1.965 . S
Zn156 O154 1.952 . S
Zn156 O163 1.938 1_565 S
Zn156 O164 1.906 . S
Zn156 O174 1.953 . S
Zn157 O154 1.963 1_655 S
Zn157 O159 1.932 . S
Zn157 O166 1.977 . S
Zn157 O167 1.910 1_655 S
O158 Zn155 1.933 . S
O158 C169 1.226 . S
O159 Zn157 1.932 . S
O159 C169 1.307 1_565 S
O160 Zn153 1.952 . S
O160 C171 1.253 . S
O161 Zn155 1.941 1_455 S
O161 C171 1.283 . S
O162 Zn155 1.965 . S
O162 C170 1.308 1_655 S
O163 Zn156 1.938 1_545 S
O163 C170 1.247 . S
O164 Zn156 1.906 . S
O164 C172 1.304 1_455 S
O165 Zn153 1.885 1_565 S
O165 C173 1.311 . S
O166 Zn157 1.977 . S
O166 C172 1.272 . S
O167 Zn157 1.910 1_455 S
O167 C173 1.231 . S
C168 O152 1.216 1_565 S
C168 O174 1.309 . S
C169 O158 1.226 . S
C169 O159 1.307 1_545 S
C170 O162 1.308 1_455 S
C170 O163 1.247 . S
C171 O160 1.253 . S
C171 O161 1.283 . S
C172 O164 1.304 1_655 S
C172 O166 1.272 . S
C173 O165 1.311 . S
C173 O167 1.231 . S
O174 Zn156 1.953 . S
O174 C168 1.309 . S
O175 Zn176 1.953 . S
O175 C191 1.225 . S
Zn176 O175 1.953 . S
Zn176 O177 1.949 . S
Zn176 O183 1.919 . S
Zn176 O188 1.924 . S
O177 Zn176 1.949 . S
O177 Zn178 1.923 1_545 S
O177 Zn179 1.950 . S
O177 Zn180 1.945 1_545 S
Zn178 O177 1.923 1_565 S
Zn178 O181 1.933 . S
Zn178 O184 1.941 . S
Zn178 O185 1.965 . S
Zn179 O177 1.950 . S
Zn179 O186 1.938 . S
Zn179 O187 1.906 . S
Zn179 O197 1.953 . S
Zn180 O177 1.945 1_565 S
Zn180 O182 1.932 . S
Zn180 O189 1.977 . S
Zn180 O190 1.910 1_565 S
O181 Zn178 1.933 . S
O181 C192 1.226 . S
O182 Zn180 1.932 . S
O182 C192 1.307 . S
O183 Zn176 1.919 . S
O183 C194 1.253 . S
O184 Zn178 1.941 . S
O184 C194 1.283 1_565 S
O185 Zn178 1.965 . S
O185 C193 1.303 1_565 S
O186 Zn179 1.938 . S
O186 C193 1.247 . S
O187 Zn179 1.906 . S
O187 C195 1.304 1_545 S
O188 Zn176 1.924 . S
O188 C196 1.311 . S
O189 Zn180 1.977 . S
O189 C195 1.272 . S
O190 Zn180 1.910 1_545 S
O190 C196 1.231 . S
C191 O175 1.225 . S
C191 O197 1.298 . S
C192 O181 1.226 . S
C192 O182 1.307 . S
C193 O185 1.303 1_545 S
C193 O186 1.247 . S
C194 O183 1.253 . S
C194 O184 1.283 1_545 S
C195 O187 1.304 1_565 S
C195 O189 1.272 . S
C196 O188 1.311 . S
C196 O190 1.231 . S
O197 Zn179 1.953 . S
O197 C191 1.298 . S
O198 Zn199 1.953 . S
O198 C214 1.225 . S
Zn199 O198 1.953 . S
Zn199 O200 1.949 . S
Zn199 O206 1.919 . S
Zn199 O211 1.924 . S
O200 Zn199 1.949 . S
O200 Zn201 1.923 . S
O200 Zn202 1.950 . S
O200 Zn203 1.945 . S
Zn201 O200 1.923 . S
Zn201 O204 1.933 . S
Zn201 O207 1.941 . S
Zn201 O208 1.965 . S
Zn202 O200 1.950 . S
Zn202 O209 1.938 . S
Zn202 O210 1.906 . S
Zn202 O220 1.953 . S
Zn203 O200 1.945 . S
Zn203 O205 1.932 . S
Zn203 O212 1.977 . S
Zn203 O213 1.910 . S
O204 Zn201 1.933 . S
O204 C215 1.226 . S
O205 Zn203 1.932 . S
O205 C215 1.307 . S
O206 Zn199 1.919 . S
O206 C217 1.253 . S
O207 Zn201 1.941 . S
O207 C217 1.283 . S
O208 Zn201 1.965 . S
O208 C216 1.303 . S
O209 Zn202 1.938 . S
O209 C216 1.247 . S
O210 Zn202 1.906 . S
O210 C218 1.304 . S
O211 Zn199 1.924 . S
O211 C219 1.311 . S
O212 Zn203 1.977 . S
O212 C218 1.272 . S
O213 Zn203 1.910 . S
O213 C219 1.231 . S
C214 O198 1.225 . S
C214 O220 1.298 . S
C215 O204 1.226 . S
C215 O205 1.307 . S
C216 O208 1.303 . S
C216 O209 1.247 . S
C217 O206 1.253 . S
C217 O207 1.283 . S
C218 O210 1.304 . S
C218 O212 1.272 . S
C219 O211 1.311 . S
C219 O213 1.231 . S
O220 Zn202 1.953 . S
O220 C214 1.298 . S
O221 Zn222 1.910 1_655 S
O221 C237 1.225 . S
Zn222 O221 1.910 1_455 S
Zn222 O223 1.949 . S
Zn222 O229 1.920 . S
Zn222 O234 1.970 . S
O223 Zn222 1.949 . S
O223 Zn224 1.918 1_455 S
O223 Zn225 1.929 1_455 S
O223 Zn226 1.973 . S
Zn224 O223 1.918 1_655 S
Zn224 O227 1.933 1_655 S
Zn224 O230 1.941 . S
Zn224 O231 1.965 . S
Zn225 O223 1.929 1_655 S
Zn225 O232 1.938 . S
Zn225 O233 1.906 . S
Zn225 O243 1.953 . S
Zn226 O223 1.973 . S
Zn226 O228 1.932 . S
Zn226 O235 1.977 . S
Zn226 O236 1.910 . S
O227 Zn224 1.933 1_455 S
O227 C238 1.226 . S
O228 Zn226 1.932 . S
O228 C238 1.307 . S
O229 Zn222 1.920 . S
O229 C240 1.254 . S
O230 Zn224 1.941 . S
O230 C240 1.279 1_655 S
O231 Zn224 1.965 . S
O231 C239 1.303 . S
O232 Zn225 1.938 . S
O232 C239 1.247 . S
O233 Zn225 1.906 . S
O233 C241 1.304 1_655 S
O234 Zn222 1.970 . S
O234 C242 1.311 . S
O235 Zn226 1.977 . S
O235 C241 1.272 . S
O236 Zn226 1.910 . S
O236 C242 1.231 . S
C237 O221 1.225 . S
C237 O243 1.298 . S
C238 O227 1.226 . S
C238 O228 1.307 . S
C239 O231 1.303 . S
C239 O232 1.247 . S
C240 O229 1.254 . S
C240 O230 1.279 1_455 S
C241 O233 1.304 1_455 S
C241 O235 1.272 . S
C242 O234 1.311 . S
C242 O236 1.231 . S
O243 Zn225 1.953 . S
O243 C237 1.298 . S
C244 C245 1.349 1_565 S
C244 C246 1.327 . S
C244 H269 0.950 . S
C245 C244 1.349 1_545 S
C245 C261 1.349 . S
C246 C244 1.327 . S
C246 C265 1.429 1_565 S
C246 H270 0.950 . S
C247 C264 1.574 . S
C247 C266 1.368 . S
C247 H271 0.949 . S
H248 C252 0.949 . S
C249 C250 1.325 1_545 S
C249 C251 1.327 . S
C249 H272 0.950 . S
C250 C249 1.325 1_565 S
C250 C262 1.371 . S
C251 C249 1.327 . S
C251 C267 1.429 . S
C251 H273 0.950 . S
C252 H248 0.949 . S
C252 C260 1.574 . S
C252 C268 1.368 1_565 S
H253 C261 0.950 . S
H254 C259 0.950 . S
H255 C260 0.949 . S
H256 C262 0.950 . S
H257 C263 0.950 . S
H258 C264 0.949 . S
C259 H254 0.950 . S
C259 C261 1.327 . S
C259 C265 1.429 . S
C260 C252 1.574 . S
C260 H255 0.949 . S
C260 C266 1.368 1_565 S
C261 C245 1.349 . S
C261 H253 0.950 . S
C261 C259 1.327 . S
C262 C250 1.371 . S
C262 H256 0.950 . S
C262 C263 1.327 . S
C263 H257 0.950 . S
C263 C262 1.327 . S
C263 C267 1.429 1_565 S
C264 C247 1.574 . S
C264 H258 0.949 . S
C264 C268 1.368 . S
C265 C246 1.429 1_545 S
C265 C259 1.429 . S
C265 C266 1.523 . S
C266 C247 1.368 . S
C266 C260 1.368 1_545 S
C266 C265 1.523 . S
C267 C251 1.429 . S
C267 C263 1.429 1_545 S
C267 C268 1.523 . S
C268 C252 1.368 1_545 S
C268 C264 1.368 . S
C268 C267 1.523 . S
H269 C244 0.950 . S
H270 C246 0.950 . S
H271 C247 0.949 . S
H272 C249 0.950 . S
H273 C251 0.950 . S
C274 C275 1.349 . S
C274 C276 1.327 . S
C274 H299 0.950 . S
C275 C274 1.349 . S
C275 C291 1.349 . S
C276 C274 1.327 . S
C276 C295 1.429 . S
C276 H300 0.950 . S
C277 C294 1.574 . S
C277 C296 1.368 . S
C277 H301 0.949 . S
H278 C282 0.949 . S
C279 C280 1.349 . S
C279 C281 1.327 . S
C279 H302 0.950 . S
C280 C279 1.349 . S
C280 C292 1.349 . S
C281 C279 1.327 . S
C281 C297 1.429 . S
C281 H303 0.950 . S
C282 H278 0.949 . S
C282 C290 1.574 . S
C282 C298 1.368 . S
H283 C291 0.950 . S
H284 C289 0.950 . S
H285 C290 0.949 . S
H286 C292 0.950 . S
H287 C293 0.950 . S
H288 C294 0.949 . S
C289 H284 0.950 . S
C289 C291 1.327 . S
C289 C295 1.429 . S
C290 C282 1.574 . S
C290 H285 0.949 . S
C290 C296 1.368 . S
C291 C275 1.349 . S
C291 H283 0.950 . S
C291 C289 1.327 . S
C292 C280 1.349 . S
C292 H286 0.950 . S
C292 C293 1.327 . S
C293 H287 0.950 . S
C293 C292 1.327 . S
C293 C297 1.429 . S
C294 C277 1.574 . S
C294 H288 0.949 . S
C294 C298 1.368 . S
C295 C276 1.429 . S
C295 C289 1.429 . S
C295 C296 1.523 . S
C296 C277 1.368 . S
C296 C290 1.368 . S
C296 C295 1.523 . S
C297 C281 1.429 . S
C297 C293 1.429 . S
C297 C298 1.523 . S
C298 C282 1.368 . S
C298 C294 1.368 . S
C298 C297 1.523 . S
H299 C274 0.950 . S
H300 C276 0.950 . S
H301 C277 0.949 . S
H302 C279 0.950 . S
H303 C281 0.950 . S
C304 C305 1.349 . S
C304 C306 1.327 . S
C304 H329 0.950 . S
C305 C304 1.349 . S
C305 C321 1.349 . S
C306 C304 1.327 . S
C306 C325 1.429 . S
C306 H330 0.950 . S
C307 C324 1.574 . S
C307 C326 1.368 . S
C307 H331 0.949 . S
H308 C312 0.949 . S
C309 C310 1.349 . S
C309 C311 1.327 . S
C309 H332 0.950 . S
C310 C309 1.349 . S
C310 C322 1.349 . S
C311 C309 1.327 . S
C311 C327 1.429 . S
C311 H333 0.950 . S
C312 H308 0.949 . S
C312 C320 1.574 . S
C312 C328 1.368 . S
H313 C321 0.950 . S
H314 C319 0.950 . S
H315 C320 0.949 . S
H316 C322 0.950 . S
H317 C323 0.950 . S
H318 C324 0.949 . S
C319 H314 0.950 . S
C319 C321 1.327 . S
C319 C325 1.429 . S
C320 C312 1.574 . S
C320 H315 0.949 . S
C320 C326 1.368 . S
C321 C305 1.349 . S
C321 H313 0.950 . S
C321 C319 1.327 . S
C322 C310 1.349 . S
C322 H316 0.950 . S
C322 C323 1.327 . S
C323 H317 0.950 . S
C323 C322 1.327 . S
C323 C327 1.429 . S
C324 C307 1.574 . S
C324 H318 0.949 . S
C324 C328 1.368 . S
C325 C306 1.429 . S
C325 C319 1.429 . S
C325 C326 1.523 . S
C326 C307 1.368 . S
C326 C320 1.368 . S
C326 C325 1.523 . S
C327 C311 1.429 . S
C327 C323 1.429 . S
C327 C328 1.523 . S
C328 C312 1.368 . S
C328 C324 1.368 . S
C328 C327 1.523 . S
H329 C304 0.950 . S
H330 C306 0.950 . S
H331 C307 0.949 . S
H332 C309 0.950 . S
H333 C311 0.950 . S
C334 C335 1.349 . S
C334 C336 1.327 . S
C334 H359 0.950 . S
C335 C334 1.349 . S
C335 C351 1.349 . S
C336 C334 1.327 . S
C336 C355 1.429 . S
C336 H360 0.950 . S
C337 C354 1.574 . S
C337 C356 1.368 . S
C337 H361 0.949 . S
H338 C342 0.949 . S
C339 C340 1.349 . S
C339 C341 1.327 . S
C339 H362 0.950 . S
C340 C339 1.349 . S
C340 C352 1.349 . S
C341 C339 1.327 . S
C341 C357 1.429 . S
C341 H363 0.950 . S
C342 H338 0.949 . S
C342 C350 1.574 . S
C342 C358 1.368 . S
H343 C351 0.950 . S
H344 C349 0.950 . S
H345 C350 0.949 . S
H346 C352 0.950 . S
H347 C353 0.950 . S
H348 C354 0.949 . S
C349 H344 0.950 . S
C349 C351 1.327 . S
C349 C355 1.429 . S
C350 C342 1.574 . S
C350 H345 0.949 . S
C350 C356 1.368 . S
C351 C335 1.349 . S
C351 H343 0.950 . S
C351 C349 1.327 . S
C352 C340 1.349 . S
C352 H346 0.950 . S
C352 C353 1.327 . S
C353 H347 0.950 . S
C353 C352 1.327 . S
C353 C357 1.429 . S
C354 C337 1.574 . S
C354 H348 0.949 . S
C354 C358 1.368 . S
C355 C336 1.429 . S
C355 C349 1.429 . S
C355 C356 1.523 . S
C356 C337 1.368 . S
C356 C350 1.368 . S
C356 C355 1.523 . S
C357 C341 1.429 . S
C357 C353 1.429 . S
C357 C358 1.523 . S
C358 C342 1.368 . S
C358 C354 1.368 . S
C358 C357 1.523 . S
H359 C334 0.950 . S
H360 C336 0.950 . S
H361 C337 0.949 . S
H362 C339 0.950 . S
H363 C341 0.950 . S
C364 C365 1.325 1_544 S
C364 C366 1.327 1_554 S
C364 H389 0.950 . S
C365 C364 1.325 1_566 S
C365 C381 1.374 . S
C366 C364 1.327 1_556 S
C366 C385 1.425 1_545 S
C366 H390 0.950 . S
C367 C384 1.574 . S
C367 C386 1.370 1_565 S
C367 H391 0.949 . S
H368 C372 0.949 . S
C369 C370 1.349 1_565 S
C369 C371 1.327 . S
C369 H392 0.950 . S
C370 C369 1.349 1_545 S
C370 C382 1.349 . S
C371 C369 1.327 . S
C371 C387 1.400 1_565 S
C371 H393 0.950 . S
C372 H368 0.949 . S
C372 C380 1.574 . S
C372 C388 1.388 . S
H373 C381 0.950 . S
H374 C379 0.950 . S
H375 C380 0.949 . S
H376 C382 0.950 . S
H377 C383 0.950 . S
H378 C384 0.949 . S
C379 H374 0.950 . S
C379 C381 1.327 . S
C379 C385 1.432 . S
C380 C372 1.574 . S
C380 H375 0.949 . S
C380 C386 1.366 . S
C381 C365 1.374 . S
C381 H373 0.950 . S
C381 C379 1.327 . S
C382 C370 1.349 . S
C382 H376 0.950 . S
C382 C383 1.327 . S
C383 H377 0.950 . S
C383 C382 1.327 . S
C383 C387 1.458 . S
C384 C367 1.574 . S
C384 H378 0.949 . S
C384 C388 1.349 1_565 S
C385 C366 1.425 1_565 S
C385 C379 1.432 . S
C385 C386 1.523 1_565 S
C386 C367 1.370 1_545 S
C386 C380 1.366 . S
C386 C385 1.523 1_545 S
C387 C371 1.400 1_545 S
C387 C383 1.458 . S
C387 C388 1.523 . S
C388 C372 1.388 . S
C388 C384 1.349 1_545 S
C388 C387 1.523 . S
H389 C364 0.950 . S
H390 C366 0.950 . S
H391 C367 0.949 . S
H392 C369 0.950 . S
H393 C371 0.950 . S
C394 C395 1.349 . S
C394 C396 1.327 . S
C394 H419 0.950 1_556 S
C395 C394 1.349 . S
C395 C411 1.349 . S
C396 C394 1.327 . S
C396 C415 1.429 . S
C396 H420 0.950 . S
C397 C414 1.574 . S
C397 C416 1.368 . S
C397 H421 0.949 . S
H398 C402 0.949 . S
C399 C400 1.349 . S
C399 C401 1.327 . S
C399 H422 0.950 . S
C400 C399 1.349 . S
C400 C412 1.349 . S
C401 C399 1.327 . S
C401 C417 1.429 . S
C401 H423 0.950 . S
C402 H398 0.949 . S
C402 C410 1.574 . S
C402 C418 1.368 . S
H403 C411 0.950 . S
H404 C409 0.950 . S
H405 C410 0.949 . S
H406 C412 0.950 . S
H407 C413 0.950 . S
H408 C414 0.949 . S
C409 H404 0.950 . S
C409 C411 1.327 . S
C409 C415 1.429 . S
C410 C402 1.574 . S
C410 H405 0.949 . S
C410 C416 1.368 . S
C411 C395 1.349 . S
C411 H403 0.950 . S
C411 C409 1.327 . S
C412 C400 1.349 . S
C412 H406 0.950 . S
C412 C413 1.327 . S
C413 H407 0.950 . S
C413 C412 1.327 . S
C413 C417 1.429 . S
C414 C397 1.574 . S
C414 H408 0.949 . S
C414 C418 1.368 . S
C415 C396 1.429 . S
C415 C409 1.429 . S
C415 C416 1.523 . S
C416 C397 1.368 . S
C416 C410 1.368 . S
C416 C415 1.523 . S
C417 C401 1.429 . S
C417 C413 1.429 . S
C417 C418 1.523 . S
C418 C402 1.368 . S
C418 C414 1.368 . S
C418 C417 1.523 . S
H419 C394 0.950 1_554 S
H420 C396 0.950 . S
H421 C397 0.949 . S
H422 C399 0.950 . S
H423 C401 0.950 . S
C424 C425 1.349 . S
C424 C426 1.327 . S
C424 H449 0.950 . S
C425 C424 1.349 . S
C425 C441 1.349 . S
C426 C424 1.327 . S
C426 C445 1.429 . S
C426 H450 0.950 . S
C427 C444 1.574 . S
C427 C446 1.368 . S
C427 H451 0.949 . S
H428 C432 0.949 . S
C429 C430 1.349 . S
C429 C431 1.327 . S
C429 H452 0.950 . S
C430 C429 1.349 . S
C430 C442 1.349 . S
C431 C429 1.327 . S
C431 C447 1.429 . S
C431 H453 0.950 . S
C432 H428 0.949 . S
C432 C440 1.574 . S
C432 C448 1.368 . S
H433 C441 0.950 . S
H434 C439 0.950 . S
H435 C440 0.949 . S
H436 C442 0.950 . S
H437 C443 0.950 . S
H438 C444 0.949 . S
C439 H434 0.950 . S
C439 C441 1.327 . S
C439 C445 1.429 . S
C440 C432 1.574 . S
C440 H435 0.949 . S
C440 C446 1.368 . S
C441 C425 1.349 . S
C441 H433 0.950 . S
C441 C439 1.327 . S
C442 C430 1.349 . S
C442 H436 0.950 . S
C442 C443 1.327 . S
C443 H437 0.950 . S
C443 C442 1.327 . S
C443 C447 1.429 . S
C444 C427 1.574 . S
C444 H438 0.949 . S
C444 C448 1.368 . S
C445 C426 1.429 . S
C445 C439 1.429 . S
C445 C446 1.523 . S
C446 C427 1.368 . S
C446 C440 1.368 . S
C446 C445 1.523 . S
C447 C431 1.429 . S
C447 C443 1.429 . S
C447 C448 1.523 . S
C448 C432 1.368 . S
C448 C444 1.368 . S
C448 C447 1.523 . S
H449 C424 0.950 . S
H450 C426 0.950 . S
H451 C427 0.949 . S
H452 C429 0.950 . S
H453 C431 0.950 . S
C454 C455 1.349 1_556 S
C454 C456 1.327 . S
C454 H479 0.950 . S
C455 C454 1.349 1_554 S
C455 C471 1.349 1_655 S
C456 C454 1.327 . S
C456 C475 1.428 . S
C456 H480 0.950 . S
C457 C474 1.574 . S
C457 C476 1.376 . S
C457 H481 0.949 . S
H458 C462 0.949 . S
C459 C460 1.349 . S
C459 C461 1.327 . S
C459 H482 0.950 . S
C460 C459 1.349 . S
C460 C472 1.348 1_455 S
C461 C459 1.327 . S
C461 C477 1.429 . S
C461 H483 0.950 . S
C462 H458 0.949 . S
C462 C470 1.574 . S
C462 C478 1.368 1_655 S
H463 C471 0.950 . S
H464 C469 0.950 . S
H465 C470 0.949 . S
H466 C472 0.951 . S
H467 C473 0.962 . S
H468 C474 0.949 . S
C469 H464 0.950 . S
C469 C471 1.327 . S
C469 C475 1.429 1_454 S
C470 C462 1.574 . S
C470 H465 0.949 . S
C470 C476 1.362 1_655 S
C471 C455 1.349 1_455 S
C471 H463 0.950 . S
C471 C469 1.327 . S
C472 C460 1.348 1_655 S
C472 H466 0.951 . S
C472 C473 1.326 . S
C473 H467 0.962 . S
C473 C472 1.326 . S
C473 C477 1.421 1_655 S
C474 C457 1.574 . S
C474 H468 0.949 . S
C474 C478 1.368 . S
C475 C456 1.428 . S
C475 C469 1.429 1_656 S
C475 C476 1.522 1_655 S
C476 C457 1.376 . S
C476 C470 1.362 1_455 S
C476 C475 1.522 1_455 S
C477 C461 1.429 . S
C477 C473 1.421 1_455 S
C477 C478 1.523 . S
C478 C462 1.368 1_455 S
C478 C474 1.368 . S
C478 C477 1.523 . S
H479 C454 0.950 . S
H480 C456 0.950 . S
H481 C457 0.949 . S
H482 C459 0.950 . S
H483 C461 0.950 . S
C484 C485 1.349 . S
C484 C486 1.327 . S
C484 H509 0.950 . S
C485 C484 1.349 . S
C485 C501 1.349 . S
C486 C484 1.327 . S
C486 C505 1.429 . S
C486 H510 0.950 . S
C487 C504 1.574 . S
C487 C506 1.368 . S
C487 H511 0.949 . S
H488 C492 0.949 . S
C489 C490 1.349 . S
C489 C491 1.327 . S
C489 H512 0.950 . S
C490 C489 1.349 . S
C490 C502 1.349 . S
C491 C489 1.327 . S
C491 C507 1.429 . S
C491 H513 0.950 . S
C492 H488 0.949 . S
C492 C500 1.574 . S
C492 C508 1.368 . S
H493 C501 0.950 . S
H494 C499 0.950 . S
H495 C500 0.949 . S
H496 C502 0.950 . S
H497 C503 0.950 . S
H498 C504 0.949 . S
C499 H494 0.950 . S
C499 C501 1.327 . S
C499 C505 1.429 . S
C500 C492 1.574 . S
C500 H495 0.949 . S
C500 C506 1.368 . S
C501 C485 1.349 . S
C501 H493 0.950 . S
C501 C499 1.327 . S
C502 C490 1.349 . S
C502 H496 0.950 . S
C502 C503 1.327 . S
C503 H497 0.950 . S
C503 C502 1.327 . S
C503 C507 1.429 . S
C504 C487 1.574 . S
C504 H498 0.949 . S
C504 C508 1.368 . S
C505 C486 1.429 . S
C505 C499 1.429 . S
C505 C506 1.523 . S
C506 C487 1.368 . S
C506 C500 1.368 . S
C506 C505 1.523 . S
C507 C491 1.429 . S
C507 C503 1.429 . S
C507 C508 1.523 . S
C508 C492 1.368 . S
C508 C504 1.368 . S
C508 C507 1.523 . S
H509 C484 0.950 . S
H510 C486 0.950 . S
H511 C487 0.949 . S
H512 C489 0.950 . S
H513 C491 0.950 . S
C514 C515 1.349 1_565 S
C514 C516 1.327 . S
C514 H539 0.950 . S
C515 C514 1.349 1_545 S
C515 C531 1.349 . S
C516 C514 1.327 . S
C516 C535 1.429 1_565 S
C516 H540 0.950 . S
C517 C534 1.574 . S
C517 C536 1.368 . S
C517 H541 0.949 . S
H518 C522 0.949 . S
C519 C520 1.349 . S
C519 C521 1.327 . S
C519 H542 0.950 . S
C520 C519 1.349 . S
C520 C532 1.349 1_545 S
C521 C519 1.327 . S
C521 C537 1.429 . S
C521 H543 0.950 . S
C522 H518 0.949 . S
C522 C530 1.574 . S
C522 C538 1.368 1_565 S
H523 C531 0.950 . S
H524 C529 0.950 . S
H525 C530 0.949 . S
H526 C532 0.950 . S
H527 C533 0.950 . S
H528 C534 0.949 . S
C529 H524 0.950 . S
C529 C531 1.327 . S
C529 C535 1.429 . S
C530 C522 1.574 . S
C530 H525 0.949 . S
C530 C536 1.368 1_565 S
C531 C515 1.349 . S
C531 H523 0.950 . S
C531 C529 1.327 . S
C532 C520 1.349 1_565 S
C532 H526 0.950 . S
C532 C533 1.327 . S
C533 H527 0.950 . S
C533 C532 1.327 . S
C533 C537 1.429 1_565 S
C534 C517 1.574 . S
C534 H528 0.949 . S
C534 C538 1.368 . S
C535 C516 1.429 1_545 S
C535 C529 1.429 . S
C535 C536 1.523 . S
C536 C517 1.368 . S
C536 C530 1.368 1_545 S
C536 C535 1.523 . S
C537 C521 1.429 . S
C537 C533 1.429 1_545 S
C537 C538 1.523 . S
C538 C522 1.368 1_545 S
C538 C534 1.368 . S
C538 C537 1.523 . S
H539 C514 0.950 . S
H540 C516 0.950 . S
H541 C517 0.949 . S
H542 C519 0.950 . S
H543 C521 0.950 . S
C544 C545 1.349 . S
C544 C546 1.327 . S
C544 H569 0.950 . S
C545 C544 1.349 . S
C545 C561 1.349 . S
C546 C544 1.327 . S
C546 C565 1.429 . S
C546 H570 0.950 . S
C547 C564 1.574 . S
C547 C566 1.368 . S
C547 H571 0.949 . S
H548 C552 0.949 . S
C549 C550 1.349 . S
C549 C551 1.327 . S
C549 H572 0.950 . S
C550 C549 1.349 . S
C550 C562 1.349 . S
C551 C549 1.327 . S
C551 C567 1.429 . S
C551 H573 0.950 . S
C552 H548 0.949 . S
C552 C560 1.574 . S
C552 C568 1.368 . S
H553 C561 0.950 . S
H554 C559 0.950 . S
H555 C560 0.949 . S
H556 C562 0.950 . S
H557 C563 0.950 . S
H558 C564 0.949 . S
C559 H554 0.950 . S
C559 C561 1.327 . S
C559 C565 1.429 . S
C560 C552 1.574 . S
C560 H555 0.949 . S
C560 C566 1.368 . S
C561 C545 1.349 . S
C561 H553 0.950 . S
C561 C559 1.327 . S
C562 C550 1.349 . S
C562 H556 0.950 . S
C562 C563 1.327 . S
C563 H557 0.950 . S
C563 C562 1.327 . S
C563 C567 1.429 . S
C564 C547 1.574 . S
C564 H558 0.949 . S
C564 C568 1.368 . S
C565 C546 1.429 . S
C565 C559 1.429 . S
C565 C566 1.523 . S
C566 C547 1.368 . S
C566 C560 1.368 . S
C566 C565 1.523 . S
C567 C551 1.429 . S
C567 C563 1.429 . S
C567 C568 1.523 . S
C568 C552 1.368 . S
C568 C564 1.368 . S
C568 C567 1.523 . S
H569 C544 0.950 . S
H570 C546 0.950 . S
H571 C547 0.949 . S
H572 C549 0.950 . S
H573 C551 0.950 . S
C574 C575 1.349 . S
C574 C576 1.327 . S
C574 H599 0.950 . S
C575 C574 1.349 . S
C575 C591 1.349 . S
C576 C574 1.327 . S
C576 C595 1.429 . S
C576 H600 0.950 . S
C577 C594 1.574 . S
C577 C596 1.368 . S
C577 H601 0.949 . S
H578 C582 0.949 . S
C579 C580 1.349 . S
C579 C581 1.327 . S
C579 H602 0.950 . S
C580 C579 1.349 . S
C580 C592 1.349 . S
C581 C579 1.327 . S
C581 C597 1.429 . S
C581 H603 0.950 . S
C582 H578 0.949 . S
C582 C590 1.574 . S
C582 C598 1.368 . S
H583 C591 0.950 . S
H584 C589 0.950 . S
H585 C590 0.949 . S
H586 C592 0.950 . S
H587 C593 0.950 . S
H588 C594 0.949 . S
C589 H584 0.950 . S
C589 C591 1.327 . S
C589 C595 1.429 . S
C590 C582 1.574 . S
C590 H585 0.949 . S
C590 C596 1.368 . S
C591 C575 1.349 . S
C591 H583 0.950 . S
C591 C589 1.327 . S
C592 C580 1.349 . S
C592 H586 0.950 . S
C592 C593 1.327 . S
C593 H587 0.950 . S
C593 C592 1.327 . S
C593 C597 1.429 . S
C594 C577 1.574 . S
C594 H588 0.949 . S
C594 C598 1.368 . S
C595 C576 1.429 . S
C595 C589 1.429 . S
C595 C596 1.523 . S
C596 C577 1.368 . S
C596 C590 1.368 . S
C596 C595 1.523 . S
C597 C581 1.429 . S
C597 C593 1.429 . S
C597 C598 1.523 . S
C598 C582 1.368 . S
C598 C594 1.368 . S
C598 C597 1.523 . S
H599 C574 0.950 . S
H600 C576 0.950 . S
H601 C577 0.949 . S
H602 C579 0.950 . S
H603 C581 0.950 . S
C604 C605 1.350 1_655 S
C604 C606 1.327 1_554 S
C604 H629 0.950 1_554 S
C605 C604 1.350 1_455 S
C605 C621 1.347 . S
C606 C604 1.327 1_556 S
C606 C625 1.429 1_655 S
C606 H630 0.950 . S
C607 C624 1.574 . S
C607 C626 1.368 . S
C607 H631 0.949 1_556 S
H608 C612 0.949 1_655 S
C609 C610 1.349 . S
C609 C611 1.327 . S
C609 H632 0.950 . S
C610 C609 1.349 . S
C610 C622 1.349 . S
C611 C609 1.327 . S
C611 C627 1.429 . S
C611 H633 0.950 . S
C612 H608 0.949 1_455 S
C612 C620 1.569 1_455 S
C612 C628 1.368 . S
H613 C621 0.950 . S
H614 C619 0.950 . S
H615 C620 0.969 . S
H616 C622 0.950 . S
H617 C623 0.950 . S
H618 C624 0.949 . S
C619 H614 0.950 . S
C619 C621 1.327 . S
C619 C625 1.429 1_554 S
C620 C612 1.569 1_655 S
C620 H615 0.969 . S
C620 C626 1.351 1_655 S
C621 C605 1.347 . S
C621 H613 0.950 . S
C621 C619 1.327 . S
C622 C610 1.349 . S
C622 H616 0.950 . S
C622 C623 1.327 . S
C623 H617 0.950 . S
C623 C622 1.327 . S
C623 C627 1.429 . S
C624 C607 1.574 . S
C624 H618 0.949 . S
C624 C628 1.368 . S
C625 C606 1.429 1_455 S
C625 C619 1.429 1_556 S
C625 C626 1.523 . S
C626 C607 1.368 . S
C626 C620 1.351 1_455 S
C626 C625 1.523 . S
C627 C611 1.429 . S
C627 C623 1.429 . S
C627 C628 1.523 . S
C628 C612 1.368 . S
C628 C624 1.368 . S
C628 C627 1.523 . S
H629 C604 0.950 1_556 S
H630 C606 0.950 . S
H631 C607 0.949 1_554 S
H632 C609 0.950 . S
H633 C611 0.950 . S
C634 C635 1.358 1_556 S
C634 C636 1.327 . S
C634 H659 0.950 1_556 S
C635 C634 1.358 1_554 S
C635 C651 1.338 1_564 S
C636 C634 1.327 . S
C636 C655 1.429 1_565 S
C636 H660 0.950 . S
C637 C654 1.574 . S
C637 C656 1.368 . S
C637 H661 0.949 . S
H638 C642 0.949 . S
C639 C640 1.349 . S
C639 C641 1.327 . S
C639 H662 0.950 . S
C640 C639 1.349 . S
C640 C652 1.349 . S
C641 C639 1.327 . S
C641 C657 1.429 . S
C641 H663 0.950 . S
C642 H638 0.949 . S
C642 C650 1.574 . S
C642 C658 1.368 1_565 S
H643 C651 0.950 . S
H644 C649 0.950 . S
H645 C650 0.949 . S
H646 C652 0.950 1_565 S
H647 C653 0.950 1_565 S
H648 C654 0.949 . S
C649 H644 0.950 . S
C649 C651 1.327 . S
C649 C655 1.429 . S
C650 C642 1.574 . S
C650 H645 0.949 . S
C650 C656 1.368 1_565 S
C651 C635 1.338 1_546 S
C651 H643 0.950 . S
C651 C649 1.327 . S
C652 C640 1.349 . S
C652 H646 0.950 1_545 S
C652 C653 1.327 . S
C653 H647 0.950 1_545 S
C653 C652 1.327 . S
C653 C657 1.429 . S
C654 C637 1.574 . S
C654 H648 0.949 . S
C654 C658 1.368 . S
C655 C636 1.429 1_545 S
C655 C649 1.429 . S
C655 C656 1.523 . S
C656 C637 1.368 . S
C656 C650 1.368 1_545 S
C656 C655 1.523 . S
C657 C641 1.429 . S
C657 C653 1.429 . S
C657 C658 1.523 . S
C658 C642 1.368 1_545 S
C658 C654 1.368 . S
C658 C657 1.523 . S
H659 C634 0.950 1_554 S
H660 C636 0.950 . S
H661 C637 0.949 . S
H662 C639 0.950 . S
H663 C641 0.950 . S
C664 C665 1.349 . S
C664 C666 1.327 . S
C664 H689 0.950 . S
C665 C664 1.349 . S
C665 C681 1.349 1_556 S
C666 C664 1.327 . S
C666 C685 1.429 . S
C666 H690 0.950 . S
C667 C684 1.574 . S
C667 C686 1.368 . S
C667 H691 0.949 . S
H668 C672 0.949 . S
C669 C670 1.349 . S
C669 C671 1.327 . S
C669 H692 0.950 . S
C670 C669 1.349 . S
C670 C682 1.349 . S
C671 C669 1.327 . S
C671 C687 1.429 . S
C671 H693 0.950 . S
C672 H668 0.949 . S
C672 C680 1.574 . S
C672 C688 1.368 . S
H673 C681 0.950 . S
H674 C679 0.950 . S
H675 C680 0.949 . S
H676 C682 0.950 . S
H677 C683 0.950 . S
H678 C684 0.949 . S
C679 H674 0.950 . S
C679 C681 1.327 1_556 S
C679 C685 1.429 . S
C680 C672 1.574 . S
C680 H675 0.949 . S
C680 C686 1.368 . S
C681 C665 1.349 1_554 S
C681 H673 0.950 . S
C681 C679 1.327 1_554 S
C682 C670 1.349 . S
C682 H676 0.950 . S
C682 C683 1.327 . S
C683 H677 0.950 . S
C683 C682 1.327 . S
C683 C687 1.429 . S
C684 C667 1.574 . S
C684 H678 0.949 . S
C684 C688 1.368 . S
C685 C666 1.429 . S
C685 C679 1.429 . S
C685 C686 1.523 . S
C686 C667 1.368 . S
C686 C680 1.368 . S
C686 C685 1.523 . S
C687 C671 1.429 . S
C687 C683 1.429 . S
C687 C688 1.523 . S
C688 C672 1.368 . S
C688 C684 1.368 . S
C688 C687 1.523 . S
H689 C664 0.950 . S
H690 C666 0.950 . S
H691 C667 0.949 . S
H692 C669 0.950 . S
H693 C671 0.950 . S
C694 C695 1.349 . S
C694 C696 1.327 . S
C694 H719 0.950 . S
C695 C694 1.349 . S
C695 C711 1.349 . S
C696 C694 1.327 . S
C696 C715 1.429 . S
C696 H720 0.950 . S
C697 C714 1.574 . S
C697 C716 1.368 . S
C697 H721 0.949 . S
H698 C702 0.949 . S
C699 C700 1.349 . S
C699 C701 1.327 . S
C699 H722 0.950 . S
C700 C699 1.349 . S
C700 C712 1.349 . S
C701 C699 1.327 . S
C701 C717 1.429 . S
C701 H723 0.950 . S
C702 H698 0.949 . S
C702 C710 1.574 . S
C702 C718 1.368 . S
H703 C711 0.950 1_554 S
H704 C709 0.950 . S
H705 C710 0.949 . S
H706 C712 0.950 . S
H707 C713 0.950 . S
H708 C714 0.949 . S
C709 H704 0.950 . S
C709 C711 1.327 . S
C709 C715 1.429 . S
C710 C702 1.574 . S
C710 H705 0.949 . S
C710 C716 1.368 . S
C711 C695 1.349 . S
C711 H703 0.950 1_556 S
C711 C709 1.327 . S
C712 C700 1.349 . S
C712 H706 0.950 . S
C712 C713 1.327 . S
C713 H707 0.950 . S
C713 C712 1.327 . S
C713 C717 1.429 . S
C714 C697 1.574 . S
C714 H708 0.949 . S
C714 C718 1.368 . S
C715 C696 1.429 . S
C715 C709 1.429 . S
C715 C716 1.523 . S
C716 C697 1.368 . S
C716 C710 1.368 . S
C716 C715 1.523 . S
C717 C701 1.429 . S
C717 C713 1.429 . S
C717 C718 1.523 . S
C718 C702 1.368 . S
C718 C714 1.368 . S
C718 C717 1.523 . S
H719 C694 0.950 . S
H720 C696 0.950 . S
H721 C697 0.949 . S
H722 C699 0.950 . S
H723 C701 0.950 . S
C724 C725 1.349 . S
C724 C726 1.327 . S
C724 H749 0.950 . S
C725 C724 1.349 . S
C725 C741 1.349 . S
C726 C724 1.327 . S
C726 C745 1.429 . S
C726 H750 0.950 . S
C727 C744 1.574 . S
C727 C746 1.368 . S
C727 H751 0.949 . S
H728 C732 0.949 . S
C729 C730 1.349 . S
C729 C731 1.327 . S
C729 H752 0.950 1_455 S
C730 C729 1.349 . S
C730 C742 1.349 . S
C731 C729 1.327 . S
C731 C747 1.429 . S
C731 H753 0.950 1_556 S
C732 H728 0.949 . S
C732 C740 1.574 1_556 S
C732 C748 1.368 1_556 S
H733 C741 0.950 . S
H734 C739 0.950 . S
H735 C740 0.949 . S
H736 C742 0.950 . S
H737 C743 0.950 . S
H738 C744 0.949 . S
C739 H734 0.950 . S
C739 C741 1.327 . S
C739 C745 1.429 . S
C740 C732 1.574 1_554 S
C740 H735 0.949 . S
C740 C746 1.368 . S
C741 C725 1.349 . S
C741 H733 0.950 . S
C741 C739 1.327 . S
C742 C730 1.349 . S
C742 H736 0.950 . S
C742 C743 1.327 . S
C743 H737 0.950 . S
C743 C742 1.327 . S
C743 C747 1.429 . S
C744 C727 1.574 . S
C744 H738 0.949 . S
C744 C748 1.368 . S
C745 C726 1.429 . S
C745 C739 1.429 . S
C745 C746 1.523 . S
C746 C727 1.368 . S
C746 C740 1.368 . S
C746 C745 1.523 . S
C747 C731 1.429 . S
C747 C743 1.429 . S
C747 C748 1.523 1_556 S
C748 C732 1.368 1_554 S
C748 C744 1.368 . S
C748 C747 1.523 1_554 S
H749 C724 0.950 . S
H750 C726 0.950 . S
H751 C727 0.949 . S
H752 C729 0.950 1_655 S
H753 C731 0.950 1_554 S
C754 C755 1.349 . S
C754 C756 1.327 . S
C754 H779 0.950 . S
C755 C754 1.349 . S
C755 C771 1.349 1_545 S
C756 C754 1.327 . S
C756 C775 1.429 . S
C756 H780 0.950 . S
C757 C774 1.574 1_554 S
C757 C776 1.368 1_565 S
C757 H781 0.949 . S
H758 C762 0.949 . S
C759 C760 1.349 1_565 S
C759 C761 1.327 . S
C759 H782 0.950 . S
C760 C759 1.349 1_545 S
C760 C772 1.349 . S
C761 C759 1.327 . S
C761 C777 1.429 1_565 S
C761 H783 0.950 . S
C762 H758 0.949 . S
C762 C770 1.574 . S
C762 C778 1.368 1_554 S
H763 C771 0.950 . S
H764 C769 0.950 . S
H765 C770 0.949 . S
H766 C772 0.950 . S
H767 C773 0.950 . S
H768 C774 0.949 . S
C769 H764 0.950 . S
C769 C771 1.327 . S
C769 C775 1.429 1_565 S
C770 C762 1.574 . S
C770 H765 0.949 . S
C770 C776 1.368 . S
C771 C755 1.349 1_565 S
C771 H763 0.950 . S
C771 C769 1.327 . S
C772 C760 1.349 . S
C772 H766 0.950 . S
C772 C773 1.327 . S
C773 H767 0.950 . S
C773 C772 1.327 . S
C773 C777 1.429 . S
C774 C757 1.574 1_556 S
C774 H768 0.949 . S
C774 C778 1.368 1_565 S
C775 C756 1.429 . S
C775 C769 1.429 1_545 S
C775 C776 1.523 . S
C776 C757 1.368 1_545 S
C776 C770 1.368 . S
C776 C775 1.523 . S
C777 C761 1.429 1_545 S
C777 C773 1.429 . S
C777 C778 1.523 . S
C778 C762 1.368 1_556 S
C778 C774 1.368 1_545 S
C778 C777 1.523 . S
H779 C754 0.950 . S
H780 C756 0.950 . S
H781 C757 0.949 . S
H782 C759 0.950 . S
H783 C761 0.950 . S
C784 C785 1.349 . S
C784 C786 1.327 . S
C784 H809 0.950 . S
C785 C784 1.349 . S
C785 C801 1.349 . S
C786 C784 1.327 . S
C786 C805 1.429 . S
C786 H810 0.950 . S
C787 C804 1.574 . S
C787 C806 1.368 1_556 S
C787 H811 0.949 . S
H788 C792 0.949 . S
C789 C790 1.349 . S
C789 C791 1.327 . S
C789 H812 0.950 . S
C790 C789 1.349 . S
C790 C802 1.349 . S
C791 C789 1.327 . S
C791 C807 1.429 . S
C791 H813 0.950 . S
C792 H788 0.949 . S
C792 C800 1.574 . S
C792 C808 1.368 1_554 S
H793 C801 0.950 . S
H794 C799 0.950 . S
H795 C800 0.949 . S
H796 C802 0.950 . S
H797 C803 0.950 . S
H798 C804 0.949 . S
C799 H794 0.950 . S
C799 C801 1.327 . S
C799 C805 1.429 . S
C800 C792 1.574 . S
C800 H795 0.949 . S
C800 C806 1.368 . S
C801 C785 1.349 . S
C801 H793 0.950 . S
C801 C799 1.327 . S
C802 C790 1.349 . S
C802 H796 0.950 . S
C802 C803 1.327 . S
C803 H797 0.950 . S
C803 C802 1.327 . S
C803 C807 1.429 . S
C804 C787 1.574 . S
C804 H798 0.949 . S
C804 C808 1.368 . S
C805 C786 1.429 . S
C805 C799 1.429 . S
C805 C806 1.523 . S
C806 C787 1.368 1_554 S
C806 C800 1.368 . S
C806 C805 1.523 . S
C807 C791 1.429 . S
C807 C803 1.429 . S
C807 C808 1.523 . S
C808 C792 1.368 1_556 S
C808 C804 1.368 . S
C808 C807 1.523 . S
H809 C784 0.950 . S
H810 C786 0.950 . S
H811 C787 0.949 . S
H812 C789 0.950 . S
H813 C791 0.950 . S
C814 C815 1.349 . S
C814 C816 1.327 . S
C814 H839 0.950 . S
C815 C814 1.349 . S
C815 C831 1.349 . S
C816 C814 1.327 . S
C816 C835 1.429 . S
C816 H840 0.950 . S
C817 C834 1.574 . S
C817 C836 1.368 1_556 S
C817 H841 0.949 . S
H818 C822 0.949 . S
C819 C820 1.349 . S
C819 C821 1.327 . S
C819 H842 0.950 . S
C820 C819 1.349 . S
C820 C832 1.349 . S
C821 C819 1.327 . S
C821 C837 1.429 . S
C821 H843 0.950 . S
C822 H818 0.949 . S
C822 C830 1.574 1_556 S
C822 C838 1.368 . S
H823 C831 0.950 . S
H824 C829 0.950 . S
H825 C830 0.949 . S
H826 C832 0.950 . S
H827 C833 0.950 . S
H828 C834 0.949 . S
C829 H824 0.950 . S
C829 C831 1.327 . S
C829 C835 1.429 . S
C830 C822 1.574 1_554 S
C830 H825 0.949 . S
C830 C836 1.368 . S
C831 C815 1.349 . S
C831 H823 0.950 . S
C831 C829 1.327 . S
C832 C820 1.349 . S
C832 H826 0.950 . S
C832 C833 1.327 . S
C833 H827 0.950 . S
C833 C832 1.327 . S
C833 C837 1.429 . S
C834 C817 1.574 . S
C834 H828 0.949 . S
C834 C838 1.368 . S
C835 C816 1.429 . S
C835 C829 1.429 . S
C835 C836 1.523 . S
C836 C817 1.368 1_554 S
C836 C830 1.368 . S
C836 C835 1.523 . S
C837 C821 1.429 . S
C837 C833 1.429 . S
C837 C838 1.523 . S
C838 C822 1.368 . S
C838 C834 1.368 . S
C838 C837 1.523 . S
H839 C814 0.950 . S
H840 C816 0.950 . S
H841 C817 0.949 . S
H842 C819 0.950 . S
H843 C821 0.950 . S
C844 C845 1.350 1_455 S
C844 C846 1.327 . S
C844 H869 0.950 . S
C845 C844 1.350 1_655 S
C845 C861 1.348 . S
C846 C844 1.327 . S
C846 C865 1.429 1_455 S
C846 H870 0.950 . S
C847 C864 1.574 . S
C847 C866 1.368 . S
C847 H871 0.949 . S
H848 C852 0.949 1_455 S
C849 C850 1.349 . S
C849 C851 1.327 . S
C849 H872 0.950 . S
C850 C849 1.349 . S
C850 C862 1.349 . S
C851 C849 1.327 . S
C851 C867 1.429 . S
C851 H873 0.950 . S
C852 H848 0.949 1_655 S
C852 C860 1.574 1_655 S
C852 C868 1.368 . S
H853 C861 0.950 . S
H854 C859 0.950 . S
H855 C860 0.949 . S
H856 C862 0.961 . S
H857 C863 0.950 1_455 S
H858 C864 0.949 . S
C859 H854 0.950 . S
C859 C861 1.327 . S
C859 C865 1.429 . S
C860 C852 1.574 1_455 S
C860 H855 0.949 . S
C860 C866 1.368 1_455 S
C861 C845 1.348 . S
C861 H853 0.950 . S
C861 C859 1.327 . S
C862 C850 1.349 . S
C862 H856 0.961 . S
C862 C863 1.327 . S
C863 H857 0.950 1_655 S
C863 C862 1.327 . S
C863 C867 1.429 . S
C864 C847 1.574 . S
C864 H858 0.949 . S
C864 C868 1.368 . S
C865 C846 1.429 1_655 S
C865 C859 1.429 . S
C865 C866 1.523 . S
C866 C847 1.368 . S
C866 C860 1.368 1_655 S
C866 C865 1.523 . S
C867 C851 1.429 . S
C867 C863 1.429 . S
C867 C868 1.523 . S
C868 C852 1.368 . S
C868 C864 1.368 . S
C868 C867 1.523 . S
H869 C844 0.950 . S
H870 C846 0.950 . S
H871 C847 0.949 . S
H872 C849 0.950 . S
H873 C851 0.950 . S
C874 C875 1.370 . S
C874 C876 1.327 . S
C874 H899 0.950 . S
C875 C874 1.370 . S
C875 C891 1.330 1_565 S
C876 C874 1.327 . S
C876 C895 1.429 . S
C876 H900 0.950 . S
C877 C894 1.574 . S
C877 C896 1.368 1_545 S
C877 H901 0.949 . S
H878 C882 0.949 . S
C879 C880 1.349 1_545 S
C879 C881 1.327 . S
C879 H902 0.950 . S
C880 C879 1.349 1_565 S
C880 C892 1.349 . S
C881 C879 1.327 . S
C881 C897 1.429 1_545 S
C881 H903 0.950 . S
C882 H878 0.949 . S
C882 C890 1.574 . S
C882 C898 1.368 . S
H883 C891 0.950 . S
H884 C889 0.950 . S
H885 C890 0.949 . S
H886 C892 0.950 . S
H887 C893 0.950 . S
H888 C894 0.949 . S
C889 H884 0.950 . S
C889 C891 1.327 . S
C889 C895 1.429 1_545 S
C890 C882 1.574 . S
C890 H885 0.949 . S
C890 C896 1.368 . S
C891 C875 1.330 1_545 S
C891 H883 0.950 . S
C891 C889 1.327 . S
C892 C880 1.349 . S
C892 H886 0.950 . S
C892 C893 1.327 . S
C893 H887 0.950 . S
C893 C892 1.327 . S
C893 C897 1.429 . S
C894 C877 1.574 . S
C894 H888 0.949 . S
C894 C898 1.368 1_545 S
C895 C876 1.429 . S
C895 C889 1.429 1_565 S
C895 C896 1.523 . S
C896 C877 1.368 1_565 S
C896 C890 1.368 . S
C896 C895 1.523 . S
C897 C881 1.429 1_565 S
C897 C893 1.429 . S
C897 C898 1.523 . S
C898 C882 1.368 . S
C898 C894 1.368 1_565 S
C898 C897 1.523 . S
H899 C874 0.950 . S
H900 C876 0.950 . S
H901 C877 0.949 . S
H902 C879 0.950 . S
H903 C881 0.950 . S
C904 C905 1.349 . S
C904 C906 1.327 . S
C904 H929 0.950 . S
C905 C904 1.349 . S
C905 C921 1.349 . S
C906 C904 1.327 . S
C906 C925 1.429 . S
C906 H930 0.950 . S
C907 C924 1.574 . S
C907 C926 1.368 . S
C907 H931 0.949 . S
H908 C912 0.949 . S
C909 C910 1.349 . S
C909 C911 1.327 . S
C909 H932 0.950 . S
C910 C909 1.349 . S
C910 C922 1.349 . S
C911 C909 1.327 . S
C911 C927 1.429 . S
C911 H933 0.950 . S
C912 H908 0.949 . S
C912 C920 1.574 . S
C912 C928 1.368 . S
H913 C921 0.950 . S
H914 C919 0.950 . S
H915 C920 0.949 . S
H916 C922 0.950 . S
H917 C923 0.950 . S
H918 C924 0.949 . S
C919 H914 0.950 . S
C919 C921 1.327 . S
C919 C925 1.429 . S
C920 C912 1.574 . S
C920 H915 0.949 . S
C920 C926 1.368 . S
C921 C905 1.349 . S
C921 H913 0.950 . S
C921 C919 1.327 . S
C922 C910 1.349 . S
C922 H916 0.950 . S
C922 C923 1.327 . S
C923 H917 0.950 . S
C923 C922 1.327 . S
C923 C927 1.429 . S
C924 C907 1.574 . S
C924 H918 0.949 . S
C924 C928 1.368 . S
C925 C906 1.429 . S
C925 C919 1.429 . S
C925 C926 1.523 . S
C926 C907 1.368 . S
C926 C920 1.368 . S
C926 C925 1.523 . S
C927 C911 1.429 . S
C927 C923 1.429 . S
C927 C928 1.523 . S
C928 C912 1.368 . S
C928 C924 1.368 . S
C928 C927 1.523 . S
H929 C904 0.950 . S
H930 C906 0.950 . S
H931 C907 0.949 . S
H932 C909 0.950 . S
H933 C911 0.950 . S
C934 C935 1.349 . S
C934 C936 1.327 . S
C934 H959 0.950 . S
C935 C934 1.349 . S
C935 C951 1.349 . S
C936 C934 1.327 . S
C936 C955 1.429 . S
C936 H960 0.950 . S
C937 C954 1.574 . S
C937 C956 1.368 . S
C937 H961 0.949 . S
H938 C942 0.949 . S
C939 C940 1.349 . S
C939 C941 1.327 . S
C939 H962 0.950 . S
C940 C939 1.349 . S
C940 C952 1.349 . S
C941 C939 1.327 . S
C941 C957 1.429 . S
C941 H963 0.950 . S
C942 H938 0.949 . S
C942 C950 1.574 . S
C942 C958 1.368 . S
H943 C951 0.950 . S
H944 C949 0.950 . S
H945 C950 0.949 . S
H946 C952 0.950 . S
H947 C953 0.950 . S
H948 C954 0.949 . S
C949 H944 0.950 . S
C949 C951 1.327 . S
C949 C955 1.429 . S
C950 C942 1.574 . S
C950 H945 0.949 . S
C950 C956 1.368 . S
C951 C935 1.349 . S
C951 H943 0.950 . S
C951 C949 1.327 . S
C952 C940 1.349 . S
C952 H946 0.950 . S
C952 C953 1.327 . S
C953 H947 0.950 . S
C953 C952 1.327 . S
C953 C957 1.429 . S
C954 C937 1.574 . S
C954 H948 0.949 . S
C954 C958 1.368 . S
C955 C936 1.429 . S
C955 C949 1.429 . S
C955 C956 1.523 . S
C956 C937 1.368 . S
C956 C950 1.368 . S
C956 C955 1.523 . S
C957 C941 1.429 . S
C957 C953 1.429 . S
C957 C958 1.523 . S
C958 C942 1.368 . S
C958 C954 1.368 . S
C958 C957 1.523 . S
H959 C934 0.950 . S
H960 C936 0.950 . S
H961 C937 0.949 . S
H962 C939 0.950 . S
H963 C941 0.950 . S
C245 C125 1.542 . S
C250 C168 1.606 . S
C280 C191 1.642 . S
C275 C144 1.565 . S
C310 C214 1.675 . S
C305 C87 1.605 . S
C340 C241 1.531 . S
C335 C106 1.488 . S
C370 C169 1.603 . S
C365 C49 1.537 1_556 S
C395 C68 1.461 . S
C400 C192 1.523 . S
C425 C11 1.449 . S
C430 C215 1.511 . S
C455 C30 1.601 . S
C460 C240 1.629 . S
C490 C170 0.231 . S
C485 C97 0.446 . S
C520 C193 0.258 . S
C515 C116 0.398 . S
C550 C216 0.285 . S
C545 C135 0.411 . S
C575 C78 0.470 . S
C580 C242 0.509 . S
C605 C21 0.537 . S
C610 C173 0.569 . S
C640 C196 0.559 . S
C635 C40 0.525 1_565 S
C670 C219 0.528 . S
C665 C59 0.481 . S
C695 C2 0.393 . S
C700 C239 0.217 . S
C725 C101 1.611 . S
C730 C171 1.582 . S
C755 C120 1.564 . S
C760 C194 1.551 . S
C790 C217 1.563 . S
C785 C139 1.577 . S
C820 C238 1.349 . S
C815 C82 1.320 . S
C845 C25 1.591 1_655 S
C850 C172 1.536 . S
C880 C195 1.483 . S
C875 C44 1.546 . S
C910 C218 1.467 . S
C905 C63 1.526 . S
C935 C6 1.771 . S
C940 C237 1.803 . S
