# Generated by pormake.
# Topology zzz, (3,6)-cn, num edge types: 1
# Building blocks:
#     Node 0, Type 0, BuildingBlock: ESEHIV_clean_linker_0, # of connection points: 3
#     Node 1, Type 0, BuildingBlock: ESEHIV_clean_linker_0, # of connection points: 3
#     Node 2, Type 0, BuildingBlock: ESEHIV_clean_linker_0, # of connection points: 3
#     Node 3, Type 0, BuildingBlock: ESEHIV_clean_linker_0, # of connection points: 3
#     Node 4, Type 0, BuildingBlock: ESEHIV_clean_linker_0, # of connection points: 3
#     Node 5, Type 0, BuildingBlock: ESEHIV_clean_linker_0, # of connection points: 3
#     Node 6, Type 0, BuildingBlock: ESEHIV_clean_linker_0, # of connection points: 3
#     Node 7, Type 0, BuildingBlock: ESEHIV_clean_linker_0, # of connection points: 3
#     Node 8, Type 1, BuildingBlock: BETFAJ_clean_sbu_0, # of connection points: 6
#     Node 9, Type 1, BuildingBlock: BETFAJ_clean_sbu_0, # of connection points: 6
#     Node 10, Type 1, BuildingBlock: BETFAJ_clean_sbu_0, # of connection points: 6
#     Node 11, Type 1, BuildingBlock: BETFAJ_clean_sbu_0, # of connection points: 6
#     Edge 12, Type (0, 1), BuildingBlock: AJUNOK_clean_linker_0, # of connection points: 2
#     Edge 13, Type (0, 1), BuildingBlock: AJUNOK_clean_linker_0, # of connection points: 2
#     Edge 14, Type (0, 1), BuildingBlock: AJUNOK_clean_linker_0, # of connection points: 2
#     Edge 15, Type (0, 1), BuildingBlock: AJUNOK_clean_linker_0, # of connection points: 2
#     Edge 16, Type (0, 1), BuildingBlock: AJUNOK_clean_linker_0, # of connection points: 2
#     Edge 17, Type (0, 1), BuildingBlock: AJUNOK_clean_linker_0, # of connection points: 2
#     Edge 18, Type (0, 1), BuildingBlock: AJUNOK_clean_linker_0, # of connection points: 2
#     Edge 19, Type (0, 1), BuildingBlock: AJUNOK_clean_linker_0, # of connection points: 2
#     Edge 20, Type (0, 1), BuildingBlock: AJUNOK_clean_linker_0, # of connection points: 2
#     Edge 21, Type (0, 1), BuildingBlock: AJUNOK_clean_linker_0, # of connection points: 2
#     Edge 22, Type (0, 1), BuildingBlock: AJUNOK_clean_linker_0, # of connection points: 2
#     Edge 23, Type (0, 1), BuildingBlock: AJUNOK_clean_linker_0, # of connection points: 2
#     Edge 24, Type (0, 1), BuildingBlock: AJUNOK_clean_linker_0, # of connection points: 2
#     Edge 25, Type (0, 1), BuildingBlock: AJUNOK_clean_linker_0, # of connection points: 2
#     Edge 26, Type (0, 1), BuildingBlock: AJUNOK_clean_linker_0, # of connection points: 2
#     Edge 27, Type (0, 1), BuildingBlock: AJUNOK_clean_linker_0, # of connection points: 2
#     Edge 28, Type (0, 1), BuildingBlock: AJUNOK_clean_linker_0, # of connection points: 2
#     Edge 29, Type (0, 1), BuildingBlock: AJUNOK_clean_linker_0, # of connection points: 2
#     Edge 30, Type (0, 1), BuildingBlock: AJUNOK_clean_linker_0, # of connection points: 2
#     Edge 31, Type (0, 1), BuildingBlock: AJUNOK_clean_linker_0, # of connection points: 2
#     Edge 32, Type (0, 1), BuildingBlock: AJUNOK_clean_linker_0, # of connection points: 2
#     Edge 33, Type (0, 1), BuildingBlock: AJUNOK_clean_linker_0, # of connection points: 2
#     Edge 34, Type (0, 1), BuildingBlock: AJUNOK_clean_linker_0, # of connection points: 2
#     Edge 35, Type (0, 1), BuildingBlock: AJUNOK_clean_linker_0, # of connection points: 2
# Relax obj value: 0.631
# Max RMSD: 0.270
# Mean RMSD: 0.253
data_MOF--net-zzz--node1-BETFAJ_clean_sbu_0--node2-ESEHIV_clean_linker_0--edge1-AJUNOK_clean_linker_0
_symmetry_space_group_name_H-M    P1
_symmetry_Int_Tables_number       1
_symmetry_cell_setting            triclinic
loop_
_symmetry_equiv_pos_as_xyz
'x, y, z'
_cell_length_a     32.571489
_cell_length_b     32.520197
_cell_length_c     10.48814
_cell_angle_alpha  89.634191
_cell_angle_beta   89.956641
_cell_angle_gamma 89.930377
loop_
_atom_site_label
_atom_site_type_symbol
_atom_site_fract_x
_atom_site_fract_y
_atom_site_fract_z
_atom_type_partial_charge
H0 H 0.80839 0.44877 0.41657 0.0
H1 H 0.69645 0.4537 0.20472 0.0
H2 H 0.73485 0.55908 0.42425 0.0
C3 C 0.7804 0.46512 0.3917 0.0
C4 C 0.77497 0.50533 0.43487 0.0
C5 C 0.75255 0.44689 0.30832 0.0
C6 C 0.71727 0.46812 0.27165 0.0
C7 C 0.70957 0.50831 0.31352 0.0
C8 C 0.73933 0.52763 0.39408 0.0
H9 H 0.09801 0.82445 0.35357 0.0
H10 H 0.09986 0.70751 0.16723 0.0
H11 H 0.99291 0.74513 0.38161 0.0
C12 C 0.08373 0.79505 0.33425 0.0
C13 C 0.04427 0.78799 0.38223 0.0
C14 C 0.10422 0.76605 0.25834 0.0
C15 C 0.0843 0.72942 0.22796 0.0
C16 C 0.0442 0.72108 0.27051 0.0
C17 C 0.02382 0.75088 0.34797 0.0
H18 H 0.74336 0.09149 0.43781 0.0
H19 H 0.8557 0.08217 0.22709 0.0
H20 H 0.80252 0.97403 0.40116 0.0
C21 C 0.76994 0.07375 0.40878 0.0
C22 C 0.77049 0.03175 0.43851 0.0
C23 C 0.79981 0.09189 0.33015 0.0
C24 C 0.83297 0.06816 0.28929 0.0
C25 C 0.83471 0.02573 0.31237 0.0
C26 C 0.80265 1.00698 0.38613 0.0
H27 H 0.44811 0.72359 0.36171 0.0
H28 H 0.55112 0.80479 0.41575 0.0
H29 H 0.45467 0.83635 0.14986 0.0
C30 C 0.46357 0.75245 0.34156 0.0
C31 C 0.44714 0.77928 0.24997 0.0
C32 C 0.50063 0.76096 0.40356 0.0
C33 C 0.52217 0.79776 0.3702 0.0
C34 C 0.50474 0.82606 0.28033 0.0
C35 C 0.46765 0.81573 0.22087 0.0
H36 H 0.2118 0.60212 0.2315 0.0
H37 H 0.32917 0.60666 0.41754 0.0
H38 H 0.29167 0.49725 0.21865 0.0
C39 C 0.24131 0.58844 0.25391 0.0
C40 C 0.24933 0.54894 0.20798 0.0
C41 C 0.26903 0.60921 0.33354 0.0
C42 C 0.30653 0.5902 0.36254 0.0
C43 C 0.3149 0.54945 0.32625 0.0
C44 C 0.28581 0.52853 0.2484 0.0
H45 H 0.95923 0.23834 0.1314 0.0
H46 H 0.96305 0.34656 0.36068 0.0
H47 H 0.07507 0.29699 0.20311 0.0
C48 C 0.97624 0.2644 0.16791 0.0
C49 C 1.01872 0.26492 0.15035 0.0
C50 C 0.9562 0.29311 0.24492 0.0
C51 C 0.97862 0.32519 0.29794 0.0
C52 C 1.02125 0.32801 0.28231 0.0
C53 C 0.04193 0.29675 0.21064 0.0
H54 H 0.33149 0.9613 0.23308 0.0
H55 H 0.21461 0.95213 0.41807 0.0
H56 H 0.24312 0.05813 0.18269 0.0
C57 C 0.30072 0.97305 0.24844 0.0
C58 C 0.29025 1.01052 0.19161 0.0
C59 C 0.27338 0.95135 0.3271 0.0
C60 C 0.23517 0.96852 0.35433 0.0
C61 C 0.22357 1.00711 0.305 0.0
C62 C 0.25145 0.02844 0.22221 0.0
H63 H 0.58617 0.31535 0.17185 0.0
H64 H 0.47757 0.24149 0.18843 0.0
H65 H 0.59191 0.19592 0.34526 0.0
C66 C 0.57224 0.28583 0.19256 0.0
C67 C 0.59436 0.25559 0.2597 0.0
C68 C 0.53081 0.28115 0.16215 0.0
C69 C 0.51021 0.24483 0.20471 0.0
C70 C 0.53257 0.21311 0.27011 0.0
C71 C 0.57474 0.21888 0.29207 0.0
Sm72 Sm 0.05635 1.01174 0.85701 0.0
Sm73 Sm 0.9915 0.0336 0.71664 0.0
C74 C 0.11897 0.98001 0.98599 0.0
C75 C 0.14792 0.94614 0.96295 0.0
C76 C 0.18619 0.94491 1.02371 0.0
C77 C 0.20745 0.90756 0.03438 0.0
C78 C 0.1897 0.8711 0.98738 0.0
C79 C 0.15653 0.87536 0.9013 0.0
C80 C 0.13561 0.91248 0.89056 0.0
C81 C 0.083 0.04282 0.62256 0.0
C82 C 1.01816 0.93979 0.67007 0.0
C83 C 0.93337 0.06467 0.56672 0.0
C84 C 0.91131 0.10171 0.52339 0.0
C85 C 0.9178 0.11539 0.39828 0.0
C86 C 0.8992 0.15114 0.35432 0.0
C87 C 0.87384 0.17452 0.43493 0.0
C88 C 0.86513 0.15944 0.55798 0.0
C89 C 0.88355 0.12304 0.60178 0.0
C90 C 0.96255 0.99738 0.93988 0.0
C91 C 0.03097 0.10411 0.90614 0.0
O92 O 0.0807 0.96939 1.00514 0.0
O93 O 0.12245 1.01196 0.91176 0.0
O94 O 0.05454 1.01698 0.63974 0.0
O95 O 0.09378 0.05729 0.73195 0.0
O96 O 0.03835 0.94651 0.77733 0.0
O97 O 0.99982 0.97125 0.61495 0.0
O98 O 0.97178 0.06113 0.5329 0.0
O99 O 0.92617 0.05024 0.68063 0.0
O100 O 0.99133 0.02395 0.93465 0.0
O101 O 0.95317 0.98593 0.82569 0.0
O102 O 1.01341 0.09825 0.79367 0.0
O103 O 0.04514 0.07166 0.96676 0.0
H104 H 0.19791 0.97181 0.07144 0.0
H105 H 0.23544 0.90684 0.08959 0.0
H106 H 0.14278 0.84924 0.85488 0.0
H107 H 0.10767 0.91364 0.83527 0.0
H108 H 0.93847 0.09915 0.3351 0.0
H109 H 0.90759 0.16206 0.26008 0.0
H110 H 0.84615 0.17709 0.62254 0.0
H111 H 0.87737 0.11262 0.69816 0.0
Sm112 Sm 0.53606 0.0585 0.86358 0.0
Sm113 Sm 0.51809 0.99078 0.73657 0.0
C114 C 0.56703 0.12128 0.99235 0.0
C115 C 0.60854 0.13563 1.02116 0.0
C116 C 0.63978 0.10682 0.04132 0.0
C117 C 0.67912 0.11985 0.06986 0.0
C118 C 0.68846 0.162 0.07637 0.0
C119 C 0.65737 0.19108 0.0552 0.0
C120 C 0.61745 0.17787 1.0268 0.0
C121 C 0.50198 0.08136 0.63071 0.0
C122 C 0.61012 1.01785 0.69135 0.0
C123 C 0.48967 0.92523 0.61682 0.0
C124 C 0.45595 0.89663 0.64294 0.0
C125 C 0.45304 0.85958 0.57693 0.0
C126 C 0.4149 0.84025 0.56518 0.0
C127 C 0.37945 0.85983 0.61266 0.0
C128 C 0.38527 0.89011 0.70698 0.0
C129 C 0.42332 0.90886 0.72042 0.0
C130 C 0.5473 0.96822 0.97627 0.0
C131 C 0.44294 0.03208 0.90868 0.0
O132 O 0.55621 0.08644 0.04501 0.0
O133 O 0.55625 0.12379 0.87324 0.0
O134 O 0.52944 0.0539 0.64584 0.0
O135 O 0.48839 0.09274 0.74095 0.0
O136 O 0.60219 0.03599 0.80143 0.0
O137 O 0.57886 1.00229 0.62922 0.0
O138 O 0.47866 0.96289 0.58858 0.0
O139 O 0.52044 0.92374 0.69546 0.0
O140 O 0.52104 0.99608 0.95345 0.0
O141 O 0.56367 0.95702 0.86973 0.0
O142 O 0.45159 1.0089 0.80868 0.0
O143 O 0.47299 0.0529 0.96084 0.0
H144 H 0.63372 0.0741 0.03677 0.0
H145 H 0.70224 0.09672 0.09012 0.0
H146 H 0.6639 0.22359 0.06158 0.0
H147 H 0.59353 0.20047 1.01046 0.0
H148 H 0.47917 0.84789 0.5255 0.0
H149 H 0.41271 0.81332 0.5058 0.0
H150 H 0.35983 0.9041 0.75649 0.0
H151 H 0.4259 0.93562 0.78045 0.0
Sm152 Sm 0.4808 0.5361 0.88488 0.0
Sm153 Sm 0.54467 0.5166 0.74848 0.0
C154 C 0.41871 0.568 1.01358 0.0
C155 C 0.39026 0.60145 0.98204 0.0
C156 C 0.35487 0.60763 0.05404 0.0
C157 C 0.33502 0.64573 0.05044 0.0
C158 C 0.35232 0.67871 0.98037 0.0
C159 C 0.38111 0.66818 0.88454 0.0
C160 C 0.40031 0.62993 0.8869 0.0
C161 C 0.45309 0.50768 0.6504 0.0
C162 C 0.52058 0.60964 0.70116 0.0
C163 C 0.60352 0.484 0.60778 0.0
C164 C 0.6229 0.44366 0.60109 0.0
C165 C 0.59965 0.40812 0.62227 0.0
C166 C 0.61631 0.3698 0.59643 0.0
C167 C 0.6565 0.36639 0.54825 0.0
C168 C 0.68094 0.40184 0.54014 0.0
C169 C 0.66423 0.44035 0.56656 0.0
C170 C 0.57268 0.54685 0.98079 0.0
C171 C 0.50642 0.44317 0.9293 0.0
O172 O 0.45691 0.57904 0.03063 0.0
O173 O 0.4153 0.53505 0.94489 0.0
O174 O 0.48176 0.53343 0.66663 0.0
O175 O 0.44314 0.49199 0.75952 0.0
O176 O 0.49972 0.60212 0.80727 0.0
O177 O 0.53861 0.57855 0.64577 0.0
O178 O 0.56513 0.48568 0.57238 0.0
O179 O 0.6108 0.50486 0.7106 0.0
O180 O 0.54402 0.52074 0.96737 0.0
O181 O 0.58257 0.56161 0.87004 0.0
O182 O 0.52365 0.45082 0.81756 0.0
O183 O 0.49161 0.47472 0.99202 0.0
H184 H 0.34437 0.58405 0.11852 0.0
H185 H 0.30881 0.64981 0.11179 0.0
H186 H 0.39309 0.69043 0.81743 0.0
H187 H 0.42535 0.62413 0.82184 0.0
H188 H 0.56777 0.41002 0.65061 0.0
H189 H 0.59627 0.34331 0.60305 0.0
H190 H 0.71188 0.4003 0.50551 0.0
H191 H 0.68285 0.46762 0.55332 0.0
Sm192 Sm 1.00653 0.48698 0.87834 0.0
Sm193 Sm 0.02509 0.55055 0.73433 0.0
C194 C 0.97702 0.42914 0.03148 0.0
C195 C 0.9413 0.40286 0.05303 0.0
C196 C 0.92596 0.40042 0.17685 0.0
C197 C 0.88929 0.38035 0.2011 0.0
C198 C 0.86644 0.36289 0.10095 0.0
C199 C 0.88354 0.36265 0.97763 0.0
C200 C 0.92087 0.38262 0.95365 0.0
C201 C 0.04141 0.45686 0.65551 0.0
C202 C 0.93297 0.5227 0.69261 0.0
C203 C 0.05478 0.61293 0.59979 0.0
C204 C 0.08744 0.64285 0.62499 0.0
C205 C 0.12142 0.63098 0.69737 0.0
C206 C 0.15753 0.65341 0.69015 0.0
C207 C 0.1603 0.68821 0.60919 0.0
C208 C 0.12344 0.70473 0.56044 0.0
C209 C 0.08712 0.68177 0.56723 0.0
C210 C 0.99772 0.57911 0.96982 0.0
C211 C 0.09849 0.51568 0.9243 0.0
O212 O 0.97173 0.4684 0.05093 0.0
O213 O 1.00039 0.42131 0.93389 0.0
O214 O 1.01417 0.48509 0.65924 0.0
O215 O 0.0538 0.4485 0.76977 0.0
O216 O 0.94069 0.50506 0.80391 0.0
O217 O 0.96411 0.53847 0.62984 0.0
O218 O 0.0667 0.57482 0.58461 0.0
O219 O 0.02221 0.61595 0.6707 0.0
O220 O 0.02325 0.55044 0.95188 0.0
O221 O 0.98103 0.58852 0.86174 0.0
O222 O 0.09119 0.53401 0.81346 0.0
O223 O 0.06734 0.4984 0.98283 0.0
H224 H 0.94131 0.41592 0.25458 0.0
H225 H 0.87728 0.38223 0.29714 0.0
H226 H 0.86657 0.34984 0.89852 0.0
H227 H 0.93245 0.38417 0.85691 0.0
H228 H 0.12151 0.6022 0.74912 0.0
H229 H 0.18419 0.63941 0.73371 0.0
H230 H 0.12377 0.73269 0.50414 0.0
H231 H 0.05997 0.69261 0.51834 0.0
C232 C 0.18184 0.05863 0.43005 0.0
C233 C 0.18305 0.02371 0.35135 0.0
C234 C 0.14789 0.06648 0.51073 0.0
C235 C 0.11354 0.03997 0.51539 0.0
H236 H 0.20872 0.07804 0.43768 0.0
H237 H 0.14973 0.09216 0.57573 0.0
S238 S 0.09954 0.94648 0.31902 0.0
N239 N 0.14518 0.96405 0.27766 0.0
N240 N 0.08155 0.97952 0.42395 0.0
C241 C 0.1129 1.00703 0.42904 0.0
C242 C 0.14752 0.99876 0.3486 0.0
C243 C 0.53446 0.1375 0.32608 0.0
C244 C 0.51384 0.17577 0.3336 0.0
C245 C 0.52809 0.10572 0.41602 0.0
C246 C 0.50074 0.11058 0.51869 0.0
H247 H 0.55863 0.13343 0.2567 0.0
H248 H 0.54698 0.07836 0.40998 0.0
S249 S 0.43416 0.20191 0.57239 0.0
N250 N 0.46144 0.21446 0.4452 0.0
N251 N 0.44864 0.15488 0.61241 0.0
C252 C 0.47699 0.14707 0.52057 0.0
C253 C 0.48364 0.17951 0.42871 0.0
C254 C 0.39101 0.55212 0.37261 0.0
C255 C 0.3535 0.53029 0.37925 0.0
C256 C 0.42441 0.54261 0.45327 0.0
C257 C 0.42191 0.51085 0.54487 0.0
H258 H 0.39359 0.57875 0.31059 0.0
H259 H 0.45132 0.56213 0.4494 0.0
S260 S 0.33314 0.44036 0.58866 0.0
N261 N 0.31787 0.47259 0.47593 0.0
N262 N 0.38042 0.45419 0.62558 0.0
C263 C 0.38599 0.48647 0.54456 0.0
C264 C 0.35195 0.49624 0.46232 0.0
C265 C 0.03104 0.40303 0.33143 0.0
C266 C 0.04127 0.36161 0.35843 0.0
C267 C 0.03274 0.43412 0.42509 0.0
C268 C 0.04558 0.42543 0.55052 0.0
H269 H 1.01859 0.41083 0.23934 0.0
H270 H 0.02226 0.46477 0.40033 0.0
S271 S 0.07999 0.32267 0.66847 0.0
N272 N 0.06726 0.31448 0.51844 0.0
N273 N 0.07258 0.37226 0.69268 0.0
C274 C 0.05923 0.38474 0.57593 0.0
C275 C 0.05672 0.35311 0.48071 0.0
C276 C 0.90926 1.01216 0.26392 0.0
C277 C 0.86757 1.00346 0.23863 0.0
C278 C 0.94024 1.00831 0.17 0.0
C279 C 0.93112 0.99475 0.04599 0.0
H280 H 0.91749 0.02506 0.3545 0.0
H281 H 0.97118 1.01787 0.19316 0.0
S282 S 0.82726 0.96373 0.93311 0.0
N283 N 0.81957 0.97809 0.08193 0.0
N284 N 0.87703 0.96877 0.90745 0.0
C285 C 0.89 0.98257 1.02262 0.0
C286 C 0.85853 0.98727 0.11806 0.0
C287 C 0.55886 0.86754 0.16447 0.0
C288 C 0.52322 0.86655 0.24038 0.0
C289 C 0.5684 0.90213 0.08741 0.0
C290 C 0.54273 0.93726 0.08278 0.0
H291 H 0.57758 0.84014 0.15594 0.0
H292 H 0.59465 0.90014 1.02432 0.0
S293 S 0.44792 0.95186 0.27416 0.0
N294 N 0.46403 0.90535 0.31369 0.0
N295 N 0.48215 0.96995 0.17213 0.0
C296 C 0.50896 0.93794 0.16671 0.0
C297 C 0.4992 0.90277 0.24439 0.0
C298 C 0.63353 0.50715 0.2688 0.0
C299 C 0.6714 0.52831 0.25997 0.0
C300 C 0.60051 0.51548 0.18525 0.0
C301 C 0.60372 0.54529 0.08771 0.0
H302 H 0.63055 0.48147 0.33427 0.0
H303 H 0.57337 0.49635 0.19174 0.0
S304 S 0.69386 0.6134 0.03392 0.0
N305 N 0.70822 0.58334 0.15339 0.0
N306 N 0.64649 0.59958 0.99797 0.0
C307 C 0.64006 0.56913 0.08494 0.0
C308 C 0.6737 0.56057 0.17041 0.0
C309 C 0.99049 0.68218 0.14492 0.0
C310 C 0.02525 0.68153 0.22478 0.0
C311 C 0.97989 0.64782 0.06945 0.0
C312 C 1.00339 0.6112 0.0712 0.0
H313 H 0.97325 0.71044 0.13297 0.0
H314 H 0.95444 0.65089 1.00364 0.0
S315 S 0.09495 0.59208 0.27406 0.0
N316 N 0.08132 0.63973 0.30716 0.0
N317 N 0.0608 0.57553 0.17026 0.0
C318 C 0.03618 0.60913 0.15845 0.0
C319 C 0.04723 0.6441 0.2337 0.0
C320 C 0.91144 0.27813 0.42979 0.0
C321 C 0.91539 0.28212 0.29651 0.0
C322 C 0.88732 0.24676 0.4822 0.0
C323 C 0.86772 0.21844 0.4019 0.0
H324 H 0.93196 0.29434 0.49322 0.0
H325 H 0.89086 0.24018 0.583 0.0
S326 S 0.85066 0.23121 0.05493 0.0
N327 N 0.88455 0.26695 0.09133 0.0
N328 N 0.83926 0.2079 0.19069 0.0
C329 C 0.86244 0.22973 0.27337 0.0
C330 C 0.88701 0.26144 0.21966 0.0
C331 C 0.28045 0.90639 0.52177 0.0
C332 C 0.28737 0.9129 0.39081 0.0
C333 C 0.30531 0.87923 0.59151 0.0
C334 C 0.34067 0.86175 0.53552 0.0
H335 H 0.25841 0.92487 0.57338 0.0
H336 H 0.30046 0.87726 0.69351 0.0
S337 S 0.35916 0.85592 0.1849 0.0
N338 N 0.31898 0.88616 0.1995 0.0
N339 N 0.37174 0.84241 0.33165 0.0
C340 C 0.34237 0.86186 0.40049 0.0
C341 C 0.31448 0.88635 0.32845 0.0
C342 C 0.63678 0.26071 0.45567 0.0
C343 C 0.63354 0.26721 0.32294 0.0
C344 C 0.65467 0.29057 0.53314 0.0
C345 C 0.66733 0.32825 0.47981 0.0
H346 H 0.61997 0.23626 0.5027 0.0
H347 H 0.65114 0.28753 0.63554 0.0
S348 S 0.68278 0.34959 0.13513 0.0
N349 N 0.66163 0.3036 0.14031 0.0
N350 N 0.68757 0.36388 0.28512 0.0
C351 C 0.67311 0.33014 0.34697 0.0
C352 C 0.6581 0.29805 0.26846 0.0
C353 C 0.22663 0.67368 0.33677 0.0
C354 C 0.25542 0.64787 0.39801 0.0
C355 C 0.19909 0.69727 0.408 0.0
C356 C 0.20013 0.69606 0.54233 0.0
H357 H 0.22185 0.67178 0.23478 0.0
H358 H 0.1731 0.71018 0.35775 0.0
S359 S 0.28506 0.6559 0.73965 0.0
N360 N 0.29329 0.63664 0.59676 0.0
N361 N 0.24475 0.68628 0.72486 0.0
C362 C 0.23666 0.68195 0.59854 0.0
C363 C 0.26317 0.65544 0.52842 0.0
C364 C 0.15084 0.77016 0.06762 0.0
C365 C 0.14422 0.77701 0.19846 0.0
C366 C 0.17798 0.79526 0.99851 0.0
C367 C 0.19486 0.83064 0.05567 0.0
H368 H 0.13176 0.749 1.01494 0.0
H369 H 0.17897 0.79168 0.89594 0.0
S370 S 0.2069 0.84331 0.40602 0.0
N371 N 0.17355 0.80562 0.39081 0.0
N372 N 0.21975 0.85694 0.25943 0.0
C373 C 0.19728 0.83 0.19024 0.0
C374 C 0.17204 0.80256 0.26172 0.0
C375 C 0.79119 0.13082 0.12763 0.0
C376 C 0.78955 0.13075 0.26215 0.0
C377 C 0.76252 0.15325 0.05656 0.0
C378 C 0.73003 0.17322 0.11907 0.0
H379 H 0.81019 0.10908 0.07667 0.0
H380 H 0.76039 0.14718 0.95527 0.0
S381 S 0.72708 0.20063 0.4605 0.0
N382 N 0.76566 0.16787 0.44863 0.0
N383 N 0.70874 0.2065 0.31462 0.0
C384 C 0.73503 0.18224 0.24859 0.0
C385 C 0.76537 0.161 0.32101 0.0
C386 C 0.4086 0.77145 0.04444 0.0
C387 C 0.41006 0.76721 0.17788 0.0
C388 C 0.37848 0.75098 0.97392 0.0
C389 C 0.35276 0.72168 0.03396 0.0
H390 H 0.43239 0.78796 0.99334 0.0
H391 H 0.38021 0.75316 0.8711 0.0
S392 S 0.32675 0.72513 0.37924 0.0
N393 N 0.37034 0.75051 0.3669 0.0
N394 N 0.31476 0.71113 0.23287 0.0
C395 C 0.34665 0.72731 0.16619 0.0
C396 C 0.37639 0.74893 0.23883 0.0
C397 C 0.76949 0.41061 0.10814 0.0
C398 C 0.76511 0.40925 0.24143 0.0
C399 C 0.79679 0.38392 0.04729 0.0
C400 C 0.82164 0.3574 0.12053 0.0
H401 H 0.75602 0.43549 0.05316 0.0
H402 H 0.80422 0.39026 0.94849 0.0
S403 S 0.80438 0.32752 0.4569 0.0
N404 N 0.77584 0.36884 0.43459 0.0
N405 N 0.82491 0.31756 0.31664 0.0
C406 C 0.80787 0.34767 0.24401 0.0
C407 C 0.78139 0.37538 0.30774 0.0
C408 C 0.02388 0.22182 0.95201 0.0
C409 C 0.03547 0.22798 0.08052 0.0
C410 C 0.02365 0.18232 0.89558 0.0
C411 C 0.03478 0.14661 0.96474 0.0
H412 H 1.01201 0.24752 0.897 0.0
H413 H 1.01312 0.17966 0.79807 0.0
S414 S 0.0688 0.14558 0.30384 0.0
N415 N 0.05927 0.19459 0.27382 0.0
N416 N 0.05968 0.12102 0.16946 0.0
C417 C 0.04829 0.15262 0.09177 0.0
C418 C 0.04845 0.19292 0.14889 0.0
C419 C 0.35751 0.04695 0.15874 0.0
C420 C 0.32259 0.02838 0.10455 0.0
C421 C 0.39528 0.0496 0.09246 0.0
C422 C 0.40054 0.03314 0.96889 0.0
H423 H 0.35649 0.05688 0.25711 0.0
H424 H 0.42125 0.06276 0.14202 0.0
S425 S 0.31755 0.98459 0.77903 0.0
N426 N 0.29517 0.99559 0.91608 0.0
N427 N 0.36548 1.00072 0.79126 0.0
C428 C 0.3652 1.01643 0.9109 0.0
C429 C 0.32662 1.01401 0.97852 0.0
C430 C 0.52212 0.32598 0.96744 0.0
C431 C 0.51152 0.31768 0.09569 0.0
C432 C 0.51885 0.3659 0.91346 0.0
C433 C 0.50526 0.39995 0.98521 0.0
H434 H 0.53575 0.30186 0.9105 0.0
H435 H 0.52872 0.37028 0.81577 0.0
S436 S 0.47291 0.39495 0.32545 0.0
N437 N 0.48609 0.34714 0.29208 0.0
N438 N 0.47945 0.42153 0.19224 0.0
C439 C 0.49289 0.39168 0.11227 0.0
C440 C 0.49619 0.35094 0.16687 0.0
C441 C 0.21015 0.54617 1.00094 0.0
C442 C 0.21658 0.53041 0.12516 0.0
C443 C 0.173 0.53962 0.93411 0.0
C444 C 0.14 0.51767 0.98922 0.0
H445 H 0.23327 0.56572 0.95766 0.0
H446 H 0.16961 0.55342 0.84056 0.0
S447 S 0.14155 0.46917 0.31207 0.0
N448 N 0.18712 0.49102 0.29901 0.0
N449 N 0.11777 0.47849 0.17589 0.0
C450 C 0.14682 0.50037 0.11183 0.0
C451 C 0.18478 0.50687 0.17905 0.0
C452 C 1.01114 0.85766 0.40723 0.0
C453 C 0.02673 0.82157 0.46473 0.0
C454 C 1.00677 0.89479 0.47578 0.0
C455 C 1.01858 0.89817 0.60514 0.0
H456 H 1.00451 0.85788 0.30602 0.0
H457 H 0.99592 0.92168 0.42444 0.0
S458 S 0.05887 0.81179 0.80294 0.0
N459 N 0.05233 0.79122 0.66077 0.0
N460 N 0.04396 0.86023 0.78967 0.0
C461 C 0.03262 0.86173 0.66517 0.0
C462 C 0.0368 0.82385 0.59519 0.0
C463 C 0.69856 1.0025 0.44942 0.0
C464 C 0.73386 1.01645 0.51377 0.0
C465 C 0.65941 1.00168 0.50889 0.0
C466 C 0.65321 1.01544 0.63543 0.0
H467 H 0.70069 0.99464 0.34942 0.0
H468 H 0.6334 0.99184 0.45257 0.0
S469 S 0.73622 0.05271 0.84861 0.0
N470 N 0.76016 0.04256 0.71354 0.0
N471 N 0.68747 0.04102 0.82493 0.0
C472 C 0.68869 0.02782 0.70242 0.0
C473 C 0.72853 0.02836 0.64191 0.0
C474 C 0.49179 0.72104 0.60894 0.0
C475 C 0.51507 0.72882 0.49751 0.0
C476 C 0.4953 0.68369 0.67839 0.0
C477 C 0.52165 0.65177 0.63829 0.0
H478 H 0.46879 0.74313 0.63849 0.0
H479 H 0.47561 0.67909 0.7604 0.0
S480 S 0.591 0.65742 0.35593 0.0
N481 N 0.56673 0.70204 0.35424 0.0
N482 N 0.57361 0.63235 0.48228 0.0
C483 C 0.54653 0.6601 0.53017 0.0
C484 C 0.54315 0.6983 0.46058 0.0
C485 C 0.84428 0.53911 0.45314 0.0
C486 C 0.80977 0.52177 0.51434 0.0
C487 C 0.88325 0.54064 0.51294 0.0
C488 C 0.89 0.52432 0.63664 0.0
H489 H 0.84183 0.54904 0.35465 0.0
H490 H 0.90874 0.55312 0.45889 0.0
S491 S 0.8091 0.47775 0.84151 0.0
N492 N 0.7847 0.48968 0.70832 0.0
N493 N 0.85711 0.49264 0.82081 0.0
C494 C 0.8552 0.50866 0.70106 0.0
C495 C 0.81553 0.50732 0.6401 0.0
loop_
_geom_bond_atom_site_label_1
_geom_bond_atom_site_label_2
_geom_bond_distance
_geom_bond_site_symmetry_2
_ccdc_geom_bond_type
H0 C3 0.931 . S
H1 C6 0.928 . S
H2 C8 0.930 . S
C3 H0 0.931 . S
C3 C4 1.413 . S
C3 C5 1.360 . S
C4 C3 1.413 . S
C4 C8 1.429 . S
C5 C3 1.360 . S
C5 C6 1.372 . S
C6 H1 0.928 . S
C6 C5 1.372 . S
C6 C7 1.404 . S
C7 C6 1.404 . S
C7 C8 1.391 . S
C8 H2 0.930 . S
C8 C4 1.429 . S
C8 C7 1.391 . S
H9 C12 0.931 . S
H10 C15 0.928 . S
H11 C17 0.930 . S
C12 H9 0.931 . S
C12 C13 1.413 . S
C12 C14 1.360 . S
C13 C12 1.413 . S
C13 C17 1.429 1_655 S
C14 C12 1.360 . S
C14 C15 1.372 . S
C15 H10 0.928 . S
C15 C14 1.372 . S
C15 C16 1.404 . S
C16 C15 1.404 . S
C16 C17 1.390 1_655 S
C17 H11 0.930 . S
C17 C13 1.429 1_455 S
C17 C16 1.390 1_455 S
H18 C21 0.931 . S
H19 C24 0.928 . S
H20 C26 0.930 . S
C21 H18 0.931 . S
C21 C22 1.413 . S
C21 C23 1.360 . S
C22 C21 1.413 . S
C22 C26 1.429 1_565 S
C23 C21 1.360 . S
C23 C24 1.372 . S
C24 H19 0.928 . S
C24 C23 1.372 . S
C24 C25 1.404 . S
C25 C24 1.404 . S
C25 C26 1.390 1_565 S
C26 H20 0.930 . S
C26 C22 1.429 1_545 S
C26 C25 1.390 1_545 S
H27 C30 0.931 . S
H28 C33 0.928 . S
H29 C35 0.930 . S
C30 H27 0.931 . S
C30 C31 1.413 . S
C30 C32 1.360 . S
C31 C30 1.413 . S
C31 C35 1.429 . S
C32 C30 1.360 . S
C32 C33 1.372 . S
C33 H28 0.928 . S
C33 C32 1.372 . S
C33 C34 1.404 . S
C34 C33 1.404 . S
C34 C35 1.391 . S
C35 H29 0.930 . S
C35 C31 1.429 . S
C35 C34 1.391 . S
H36 C39 0.931 1_556 S
H37 C42 0.928 . S
H38 C44 0.930 . S
C39 H36 0.931 1_554 S
C39 C40 1.413 1_554 S
C39 C41 1.360 . S
C40 C39 1.413 1_556 S
C40 C44 1.429 . S
C41 C39 1.360 . S
C41 C42 1.372 . S
C42 H37 0.928 . S
C42 C41 1.372 . S
C42 C43 1.404 . S
C43 C42 1.404 . S
C43 C44 1.391 1_554 S
C44 H38 0.930 . S
C44 C40 1.429 . S
C44 C43 1.391 1_556 S
H45 C48 0.933 . S
H46 C51 0.928 . S
H47 C53 0.930 . S
C48 H45 0.933 . S
C48 C49 1.413 1_554 S
C48 C50 1.360 . S
C49 C48 1.413 1_556 S
C49 C53 1.429 1_655 S
C50 C48 1.360 . S
C50 C51 1.372 . S
C51 H46 0.928 . S
C51 C50 1.372 . S
C51 C52 1.404 . S
C52 C51 1.404 . S
C52 C53 1.391 1_654 S
C53 H47 0.930 . S
C53 C49 1.429 1_455 S
C53 C52 1.391 1_456 S
H54 C57 0.931 1_556 S
H55 C60 0.928 . S
H56 C62 0.930 . S
C57 H54 0.931 1_554 S
C57 C58 1.413 1_554 S
C57 C59 1.360 . S
C58 C57 1.413 1_556 S
C58 C62 1.429 1_565 S
C59 C57 1.360 . S
C59 C60 1.372 . S
C60 H55 0.928 . S
C60 C59 1.372 . S
C60 C61 1.404 . S
C61 C60 1.404 . S
C61 C62 1.391 1_564 S
C62 H56 0.930 . S
C62 C58 1.429 1_545 S
C62 C61 1.391 1_546 S
H63 C66 0.931 1_556 S
H64 C69 0.928 . S
H65 C71 0.930 . S
C66 H63 0.931 1_554 S
C66 C67 1.413 . S
C66 C68 1.360 1_554 S
C67 C66 1.413 . S
C67 C71 1.429 . S
C68 C66 1.360 1_556 S
C68 C69 1.372 . S
C69 H64 0.928 . S
C69 C68 1.372 . S
C69 C70 1.404 1_556 S
C70 C69 1.404 1_554 S
C70 C71 1.391 . S
C71 H65 0.930 . S
C71 C67 1.429 . S
C71 C70 1.391 . S
Sm72 C74 2.846 1_556 S
Sm72 O92 2.543 1_556 S
Sm72 O93 2.450 . S
Sm72 O94 2.681 1_565 S
Sm72 O95 2.464 . S
Sm72 O96 2.396 . S
Sm72 O100 2.386 1_455 S
Sm72 O103 2.408 1_565 S
Sm73 C83 2.846 . S
Sm73 O94 2.386 1_655 S
Sm73 O97 2.408 1_545 S
Sm73 O98 2.543 . S
Sm73 O99 2.450 . S
Sm73 O100 2.681 1_545 S
Sm73 O101 2.464 . S
Sm73 O102 2.396 . S
C74 Sm72 2.846 1_554 S
C74 C75 1.506 . S
C74 O92 1.261 . S
C74 O93 1.242 1_554 S
C75 C74 1.506 . S
C75 C76 1.358 . S
C75 C80 1.382 . S
C76 C75 1.358 . S
C76 C77 1.385 . S
C76 H104 0.930 . S
C77 C76 1.385 . S
C77 C78 1.395 . S
C77 H105 0.929 . S
C78 C77 1.395 . S
C78 C79 1.335 . S
C79 C78 1.335 . S
C79 C80 1.398 . S
C79 H106 0.930 . S
C80 C75 1.382 . S
C80 C79 1.398 . S
C80 H107 0.929 . S
C81 O94 1.271 1_565 S
C81 O95 1.251 . S
C82 O96 1.252 1_655 S
C82 O97 1.272 . S
C83 Sm73 2.846 . S
C83 C84 1.506 . S
C83 O98 1.261 . S
C83 O99 1.242 . S
C84 C83 1.506 . S
C84 C85 1.358 . S
C84 C89 1.382 . S
C85 C84 1.358 . S
C85 C86 1.385 . S
C85 H108 0.930 . S
C86 C85 1.385 . S
C86 C87 1.395 . S
C86 H109 0.929 . S
C87 C86 1.395 . S
C87 C88 1.335 . S
C88 C87 1.335 . S
C88 C89 1.398 . S
C88 H110 0.930 . S
C89 C84 1.382 . S
C89 C88 1.398 . S
C89 H111 0.929 . S
C90 O100 1.271 1_545 S
C90 O101 1.251 . S
C91 O102 1.252 1_455 S
C91 O103 1.272 . S
O92 Sm72 2.543 1_554 S
O92 C74 1.261 . S
O93 Sm72 2.450 . S
O93 C74 1.242 1_556 S
O94 Sm72 2.681 1_545 S
O94 Sm73 2.386 1_455 S
O94 C81 1.271 1_545 S
O95 Sm72 2.464 . S
O95 C81 1.251 . S
O96 Sm72 2.396 . S
O96 C82 1.252 1_455 S
O97 Sm73 2.408 1_565 S
O97 C82 1.272 . S
O98 Sm73 2.543 . S
O98 C83 1.261 . S
O99 Sm73 2.450 . S
O99 C83 1.242 . S
O100 Sm72 2.386 1_655 S
O100 Sm73 2.681 1_565 S
O100 C90 1.271 1_565 S
O101 Sm73 2.464 . S
O101 C90 1.251 . S
O102 Sm73 2.396 . S
O102 C91 1.252 1_655 S
O103 Sm72 2.408 1_545 S
O103 C91 1.272 . S
H104 C76 0.930 . S
H105 C77 0.929 . S
H106 C79 0.930 . S
H107 C80 0.929 . S
H108 C85 0.930 . S
H109 C86 0.929 . S
H110 C88 0.930 . S
H111 C89 0.929 . S
Sm112 C114 2.846 1_556 S
Sm112 O132 2.543 1_556 S
Sm112 O133 2.450 . S
Sm112 O134 2.681 . S
Sm112 O135 2.464 . S
Sm112 O136 2.396 . S
Sm112 O140 2.386 1_545 S
Sm112 O143 2.408 . S
Sm113 C123 2.846 . S
Sm113 O134 2.386 1_565 S
Sm113 O137 2.408 . S
Sm113 O138 2.543 . S
Sm113 O139 2.450 . S
Sm113 O140 2.681 . S
Sm113 O141 2.464 . S
Sm113 O142 2.396 . S
C114 Sm112 2.846 1_554 S
C114 C115 1.506 . S
C114 O132 1.261 . S
C114 O133 1.242 1_554 S
C115 C114 1.506 . S
C115 C116 1.358 . S
C115 C120 1.382 . S
C116 C115 1.358 . S
C116 C117 1.385 . S
C116 H144 0.917 1_545 S
C117 C116 1.385 . S
C117 C118 1.395 . S
C117 H145 0.929 . S
C118 C117 1.395 . S
C118 C119 1.335 . S
C119 C118 1.335 . S
C119 C120 1.398 . S
C119 H146 0.930 . S
C120 C115 1.382 . S
C120 C119 1.398 . S
C120 H147 0.929 . S
C121 O134 1.271 . S
C121 O135 1.251 . S
C122 O136 1.252 1_565 S
C122 O137 1.272 . S
C123 Sm113 2.846 . S
C123 C124 1.506 . S
C123 O138 1.261 . S
C123 O139 1.242 . S
C124 C123 1.506 . S
C124 C125 1.358 . S
C124 C129 1.382 . S
C125 C124 1.358 . S
C125 C126 1.385 . S
C125 H148 0.911 1_565 S
C126 C125 1.385 . S
C126 C127 1.395 . S
C126 H149 0.929 . S
C127 C126 1.395 . S
C127 C128 1.335 . S
C128 C127 1.335 . S
C128 C129 1.398 . S
C128 H150 0.930 . S
C129 C124 1.382 . S
C129 C128 1.398 . S
C129 H151 0.929 . S
C130 O140 1.271 . S
C130 O141 1.251 . S
C131 O142 1.252 1_545 S
C131 O143 1.272 . S
O132 Sm112 2.543 1_554 S
O132 C114 1.261 . S
O133 Sm112 2.450 . S
O133 C114 1.242 1_556 S
O134 Sm112 2.681 . S
O134 Sm113 2.386 1_545 S
O134 C121 1.271 . S
O135 Sm112 2.464 . S
O135 C121 1.251 . S
O136 Sm112 2.396 . S
O136 C122 1.252 1_545 S
O137 Sm113 2.408 . S
O137 C122 1.272 . S
O138 Sm113 2.543 . S
O138 C123 1.261 . S
O139 Sm113 2.450 . S
O139 C123 1.242 . S
O140 Sm112 2.386 1_565 S
O140 Sm113 2.681 . S
O140 C130 1.271 . S
O141 Sm113 2.464 . S
O141 C130 1.251 . S
O142 Sm113 2.396 . S
O142 C131 1.252 1_565 S
O143 Sm112 2.408 . S
O143 C131 1.272 . S
H144 C116 0.917 1_565 S
H145 C117 0.929 . S
H146 C119 0.930 . S
H147 C120 0.929 . S
H148 C125 0.911 1_545 S
H149 C126 0.929 . S
H150 C128 0.930 . S
H151 C129 0.929 . S
Sm152 C154 2.846 1_556 S
Sm152 O172 2.543 1_556 S
Sm152 O173 2.450 . S
Sm152 O174 2.681 . S
Sm152 O175 2.464 . S
Sm152 O176 2.396 . S
Sm152 O180 2.386 . S
Sm152 O183 2.408 . S
Sm153 C163 2.846 . S
Sm153 O174 2.386 . S
Sm153 O177 2.408 . S
Sm153 O178 2.543 . S
Sm153 O179 2.450 . S
Sm153 O180 2.681 . S
Sm153 O181 2.464 . S
Sm153 O182 2.396 . S
C154 Sm152 2.846 1_554 S
C154 C155 1.506 . S
C154 O172 1.261 . S
C154 O173 1.242 1_554 S
C155 C154 1.506 . S
C155 C156 1.358 . S
C155 C160 1.382 . S
C156 C155 1.358 . S
C156 C157 1.385 . S
C156 H184 0.930 . S
C157 C156 1.385 . S
C157 C158 1.395 . S
C157 H185 0.929 . S
C158 C157 1.395 . S
C158 C159 1.335 . S
C159 C158 1.335 . S
C159 C160 1.398 . S
C159 H186 0.930 . S
C160 C155 1.382 . S
C160 C159 1.398 . S
C160 H187 0.929 . S
C161 O174 1.271 . S
C161 O175 1.251 . S
C162 O176 1.252 . S
C162 O177 1.272 . S
C163 Sm153 2.846 . S
C163 C164 1.506 . S
C163 O178 1.261 . S
C163 O179 1.242 . S
C164 C163 1.506 . S
C164 C165 1.358 . S
C164 C169 1.382 . S
C165 C164 1.358 . S
C165 C166 1.385 . S
C165 H188 0.930 . S
C166 C165 1.385 . S
C166 C167 1.395 . S
C166 H189 0.929 . S
C167 C166 1.395 . S
C167 C168 1.335 . S
C168 C167 1.335 . S
C168 C169 1.398 . S
C168 H190 0.930 . S
C169 C164 1.382 . S
C169 C168 1.398 . S
C169 H191 0.929 . S
C170 O180 1.271 . S
C170 O181 1.251 . S
C171 O182 1.252 . S
C171 O183 1.272 . S
O172 Sm152 2.543 1_554 S
O172 C154 1.261 . S
O173 Sm152 2.450 . S
O173 C154 1.242 1_556 S
O174 Sm152 2.681 . S
O174 Sm153 2.386 . S
O174 C161 1.271 . S
O175 Sm152 2.464 . S
O175 C161 1.251 . S
O176 Sm152 2.396 . S
O176 C162 1.252 . S
O177 Sm153 2.408 . S
O177 C162 1.272 . S
O178 Sm153 2.543 . S
O178 C163 1.261 . S
O179 Sm153 2.450 . S
O179 C163 1.242 . S
O180 Sm152 2.386 . S
O180 Sm153 2.681 . S
O180 C170 1.271 . S
O181 Sm153 2.464 . S
O181 C170 1.251 . S
O182 Sm153 2.396 . S
O182 C171 1.252 . S
O183 Sm152 2.408 . S
O183 C171 1.272 . S
H184 C156 0.930 . S
H185 C157 0.929 . S
H186 C159 0.930 . S
H187 C160 0.929 . S
H188 C165 0.930 . S
H189 C166 0.929 . S
H190 C168 0.930 . S
H191 C169 0.929 . S
Sm192 C194 2.846 1_556 S
Sm192 O212 2.543 1_556 S
Sm192 O213 2.450 . S
Sm192 O214 2.681 1_655 S
Sm192 O215 2.464 . S
Sm192 O216 2.396 . S
Sm192 O220 2.386 . S
Sm192 O223 2.408 1_655 S
Sm193 C203 2.846 . S
Sm193 O214 2.386 . S
Sm193 O217 2.408 1_455 S
Sm193 O218 2.543 . S
Sm193 O219 2.450 . S
Sm193 O220 2.681 1_455 S
Sm193 O221 2.464 . S
Sm193 O222 2.396 . S
C194 Sm192 2.846 1_554 S
C194 C195 1.506 . S
C194 O212 1.261 . S
C194 O213 1.242 1_554 S
C195 C194 1.506 . S
C195 C196 1.358 . S
C195 C200 1.382 . S
C196 C195 1.358 . S
C196 C197 1.385 . S
C196 H224 0.930 . S
C197 C196 1.385 . S
C197 C198 1.395 . S
C197 H225 0.929 . S
C198 C197 1.395 . S
C198 C199 1.335 . S
C199 C198 1.335 . S
C199 C200 1.398 . S
C199 H226 0.930 . S
C200 C195 1.382 . S
C200 C199 1.398 . S
C200 H227 0.929 . S
C201 O214 1.271 1_655 S
C201 O215 1.252 . S
C202 O216 1.252 . S
C202 O217 1.272 . S
C203 Sm193 2.846 . S
C203 C204 1.506 . S
C203 O218 1.261 . S
C203 O219 1.242 . S
C204 C203 1.506 . S
C204 C205 1.358 . S
C204 C209 1.382 . S
C205 C204 1.358 . S
C205 C206 1.385 . S
C205 H228 0.930 . S
C206 C205 1.385 . S
C206 C207 1.395 . S
C206 H229 0.929 . S
C207 C206 1.395 . S
C207 C208 1.335 . S
C208 C207 1.335 . S
C208 C209 1.398 . S
C208 H230 0.930 . S
C209 C204 1.382 . S
C209 C208 1.398 . S
C209 H231 0.929 . S
C210 O220 1.269 1_455 S
C210 O221 1.255 . S
C211 O222 1.252 . S
C211 O223 1.272 . S
O212 Sm192 2.543 1_554 S
O212 C194 1.261 . S
O213 Sm192 2.450 . S
O213 C194 1.242 1_556 S
O214 Sm192 2.681 1_455 S
O214 Sm193 2.386 . S
O214 C201 1.271 1_455 S
O215 Sm192 2.464 . S
O215 C201 1.252 . S
O216 Sm192 2.396 . S
O216 C202 1.252 . S
O217 Sm193 2.408 1_655 S
O217 C202 1.272 . S
O218 Sm193 2.543 . S
O218 C203 1.261 . S
O219 Sm193 2.450 . S
O219 C203 1.242 . S
O220 Sm192 2.386 . S
O220 Sm193 2.681 1_655 S
O220 C210 1.269 1_655 S
O221 Sm193 2.464 . S
O221 C210 1.255 . S
O222 Sm193 2.396 . S
O222 C211 1.252 . S
O223 Sm192 2.408 1_455 S
O223 C211 1.272 . S
H224 C196 0.930 . S
H225 C197 0.929 . S
H226 C199 0.930 . S
H227 C200 0.929 . S
H228 C205 0.930 . S
H229 C206 0.929 . S
H230 C208 0.930 . S
H231 C209 0.929 . S
C232 C233 1.368 1_545 S
C232 C234 1.419 . S
C232 H236 0.930 . S
C233 C232 1.368 1_565 S
C233 C242 1.429 . S
C234 C232 1.419 . S
C234 C235 1.362 . S
C234 H237 0.929 . S
C235 C234 1.362 . S
C235 C241 1.429 1_545 S
H236 C232 0.930 . S
H237 C234 0.929 . S
S238 N239 1.613 . S
S238 N240 1.610 . S
N239 S238 1.613 . S
N239 C242 1.350 . S
N240 S238 1.610 . S
N240 C241 1.351 . S
C241 C235 1.429 1_565 S
C241 N240 1.351 . S
C241 C242 1.434 . S
C242 C233 1.429 . S
C242 N239 1.350 . S
C242 C241 1.434 . S
C243 C244 1.369 . S
C243 C245 1.419 . S
C243 H247 0.930 . S
C244 C243 1.369 . S
C244 C253 1.429 . S
C245 C243 1.419 . S
C245 C246 1.363 . S
C245 H248 0.929 . S
C246 C245 1.363 . S
C246 C252 1.428 . S
H247 C243 0.930 . S
H248 C245 0.929 . S
S249 N250 1.613 . S
S249 N251 1.610 . S
N250 S249 1.613 . S
N250 C253 1.350 . S
N251 S249 1.610 . S
N251 C252 1.351 . S
C252 C246 1.428 . S
C252 N251 1.351 . S
C252 C253 1.434 . S
C253 C244 1.429 . S
C253 N250 1.350 . S
C253 C252 1.434 . S
C254 C255 1.369 . S
C254 C256 1.419 . S
C254 H258 0.930 . S
C255 C254 1.369 . S
C255 C264 1.429 . S
C256 C254 1.419 . S
C256 C257 1.363 . S
C256 H259 0.929 . S
C257 C256 1.363 . S
C257 C263 1.428 . S
H258 C254 0.930 . S
H259 C256 0.929 . S
S260 N261 1.613 . S
S260 N262 1.610 . S
N261 S260 1.613 . S
N261 C264 1.350 . S
N262 S260 1.610 . S
N262 C263 1.351 . S
C263 C257 1.428 . S
C263 N262 1.351 . S
C263 C264 1.434 . S
C264 C255 1.429 . S
C264 N261 1.350 . S
C264 C263 1.434 . S
C265 C266 1.369 1_655 S
C265 C267 1.419 . S
C265 H269 0.930 . S
C266 C265 1.369 1_455 S
C266 C275 1.429 . S
C267 C265 1.419 . S
C267 C268 1.363 1_655 S
C267 H270 0.929 . S
C268 C267 1.363 1_455 S
C268 C274 1.428 . S
H269 C265 0.930 . S
H270 C267 0.929 . S
S271 N272 1.613 . S
S271 N273 1.610 . S
N272 S271 1.613 . S
N272 C275 1.350 . S
N273 S271 1.610 . S
N273 C274 1.351 . S
C274 C268 1.428 . S
C274 N273 1.351 . S
C274 C275 1.434 . S
C275 C266 1.429 . S
C275 N272 1.350 . S
C275 C274 1.434 . S
C276 C277 1.365 1_545 S
C276 C278 1.419 . S
C276 H280 0.930 . S
C277 C276 1.365 1_565 S
C277 C286 1.433 . S
C278 C276 1.419 . S
C278 C279 1.359 1_545 S
C278 H281 0.929 . S
C279 C278 1.359 1_565 S
C279 C285 1.432 . S
H280 C276 0.930 . S
H281 C278 0.929 . S
S282 N283 1.613 . S
S282 N284 1.610 . S
N283 S282 1.613 . S
N283 C286 1.350 . S
N284 S282 1.610 . S
N284 C285 1.351 . S
C285 C279 1.432 . S
C285 N284 1.351 . S
C285 C286 1.434 . S
C286 C277 1.433 . S
C286 N283 1.350 . S
C286 C285 1.434 . S
C287 C288 1.369 . S
C287 C289 1.419 . S
C287 H291 0.930 . S
C288 C287 1.369 . S
C288 C297 1.429 . S
C289 C287 1.419 . S
C289 C290 1.363 . S
C289 H292 0.929 . S
C290 C289 1.363 . S
C290 C296 1.428 . S
H291 C287 0.930 . S
H292 C289 0.929 . S
S293 N294 1.613 . S
S293 N295 1.610 . S
N294 S293 1.613 . S
N294 C297 1.350 . S
N295 S293 1.610 . S
N295 C296 1.351 . S
C296 C290 1.428 . S
C296 N295 1.351 . S
C296 C297 1.434 . S
C297 C288 1.429 . S
C297 N294 1.350 . S
C297 C296 1.434 . S
C298 C299 1.369 . S
C298 C300 1.419 . S
C298 H302 0.930 . S
C299 C298 1.369 . S
C299 C308 1.429 . S
C300 C298 1.419 . S
C300 C301 1.363 . S
C300 H303 0.929 . S
C301 C300 1.363 . S
C301 C307 1.428 . S
H302 C298 0.930 . S
H303 C300 0.929 . S
S304 N305 1.613 . S
S304 N306 1.610 . S
N305 S304 1.613 . S
N305 C308 1.350 . S
N306 S304 1.610 . S
N306 C307 1.351 . S
C307 C301 1.428 . S
C307 N306 1.351 . S
C307 C308 1.434 . S
C308 C299 1.429 . S
C308 N305 1.350 . S
C308 C307 1.434 . S
C309 C310 1.383 . S
C309 C311 1.419 . S
C309 H313 0.930 . S
C310 C309 1.383 . S
C310 C319 1.415 1_655 S
C311 C309 1.419 . S
C311 C312 1.363 . S
C311 H314 0.929 . S
C312 C311 1.363 . S
C312 C318 1.428 1_655 S
H313 C309 0.930 . S
H314 C311 0.929 . S
S315 N316 1.613 . S
S315 N317 1.610 . S
N316 S315 1.613 . S
N316 C319 1.350 . S
N317 S315 1.610 . S
N317 C318 1.351 . S
C318 C312 1.428 1_455 S
C318 N317 1.351 . S
C318 C319 1.434 . S
C319 C310 1.415 1_455 S
C319 N316 1.350 . S
C319 C318 1.434 . S
C320 C321 1.369 . S
C320 C322 1.419 . S
C320 H324 0.930 1_655 S
C321 C320 1.369 . S
C321 C330 1.429 . S
C322 C320 1.419 . S
C322 C323 1.363 . S
C322 H325 0.929 . S
C323 C322 1.363 . S
C323 C329 1.428 . S
H324 C320 0.930 1_455 S
H325 C322 0.929 . S
S326 N327 1.613 . S
S326 N328 1.610 . S
N327 S326 1.613 . S
N327 C330 1.350 . S
N328 S326 1.610 . S
N328 C329 1.351 . S
C329 C323 1.428 . S
C329 N328 1.351 . S
C329 C330 1.434 . S
C330 C321 1.429 . S
C330 N327 1.350 . S
C330 C329 1.434 . S
C331 C332 1.369 . S
C331 C333 1.419 . S
C331 H335 0.930 1_565 S
C332 C331 1.369 . S
C332 C341 1.429 . S
C333 C331 1.419 . S
C333 C334 1.363 . S
C333 H336 0.929 . S
C334 C333 1.363 . S
C334 C340 1.428 . S
H335 C331 0.930 1_545 S
H336 C333 0.929 . S
S337 N338 1.613 1_556 S
S337 N339 1.610 1_556 S
N338 S337 1.613 1_554 S
N338 C341 1.350 . S
N339 S337 1.610 1_554 S
N339 C340 1.351 . S
C340 C334 1.428 . S
C340 N339 1.351 . S
C340 C341 1.434 . S
C341 C332 1.429 . S
C341 N338 1.350 . S
C341 C340 1.434 . S
C342 C343 1.369 . S
C342 C344 1.419 . S
C342 H346 0.930 . S
C343 C342 1.369 . S
C343 C352 1.429 . S
C344 C342 1.419 . S
C344 C345 1.363 . S
C344 H347 0.929 . S
C345 C344 1.363 . S
C345 C351 1.428 . S
H346 C342 0.930 . S
H347 C344 0.929 . S
S348 N349 1.613 . S
S348 N350 1.610 . S
N349 S348 1.613 . S
N349 C352 1.350 . S
N350 S348 1.610 . S
N350 C351 1.351 . S
C351 C345 1.428 . S
C351 N350 1.351 . S
C351 C352 1.434 . S
C352 C343 1.429 . S
C352 N349 1.350 . S
C352 C351 1.434 . S
C353 C354 1.369 . S
C353 C355 1.419 . S
C353 H357 0.930 . S
C354 C353 1.369 . S
C354 C363 1.429 . S
C355 C353 1.419 . S
C355 C356 1.363 . S
C355 H358 0.929 . S
C356 C355 1.363 . S
C356 C362 1.428 . S
H357 C353 0.930 . S
H358 C355 0.929 . S
S359 N360 1.613 . S
S359 N361 1.610 . S
N360 S359 1.613 . S
N360 C363 1.350 . S
N361 S359 1.610 . S
N361 C362 1.351 . S
C362 C356 1.428 . S
C362 N361 1.351 . S
C362 C363 1.434 . S
C363 C354 1.429 . S
C363 N360 1.350 . S
C363 C362 1.434 . S
C364 C365 1.369 . S
C364 C366 1.419 . S
C364 H368 0.930 1_455 S
C365 C364 1.369 . S
C365 C374 1.429 . S
C366 C364 1.419 . S
C366 C367 1.363 . S
C366 H369 0.929 . S
C367 C366 1.363 . S
C367 C373 1.428 . S
H368 C364 0.930 1_655 S
H369 C366 0.929 . S
S370 N371 1.613 . S
S370 N372 1.610 . S
N371 S370 1.613 . S
N371 C374 1.350 . S
N372 S370 1.610 . S
N372 C373 1.351 . S
C373 C367 1.428 . S
C373 N372 1.351 . S
C373 C374 1.434 . S
C374 C365 1.429 . S
C374 N371 1.350 . S
C374 C373 1.434 . S
C375 C376 1.369 . S
C375 C377 1.419 . S
C375 H379 0.930 . S
C376 C375 1.369 . S
C376 C385 1.429 . S
C377 C375 1.419 . S
C377 C378 1.363 . S
C377 H380 0.929 . S
C378 C377 1.363 . S
C378 C384 1.428 . S
H379 C375 0.930 . S
H380 C377 0.929 . S
S381 N382 1.613 . S
S381 N383 1.610 1_565 S
N382 S381 1.613 . S
N382 C385 1.350 1_565 S
N383 S381 1.610 1_545 S
N383 C384 1.351 . S
C384 C378 1.428 . S
C384 N383 1.351 . S
C384 C385 1.434 . S
C385 C376 1.429 . S
C385 N382 1.350 1_545 S
C385 C384 1.434 . S
C386 C387 1.369 . S
C386 C388 1.419 . S
C386 H390 0.930 . S
C387 C386 1.369 . S
C387 C396 1.429 . S
C388 C386 1.419 . S
C388 C389 1.363 . S
C388 H391 0.929 . S
C389 C388 1.363 . S
C389 C395 1.428 . S
H390 C386 0.930 . S
H391 C388 0.929 . S
S392 N393 1.613 . S
S392 N394 1.610 . S
N393 S392 1.613 . S
N393 C396 1.350 . S
N394 S392 1.610 . S
N394 C395 1.351 . S
C395 C389 1.428 . S
C395 N394 1.351 . S
C395 C396 1.434 . S
C396 C387 1.429 . S
C396 N393 1.350 . S
C396 C395 1.434 . S
C397 C398 1.369 . S
C397 C399 1.419 . S
C397 H401 0.930 . S
C398 C397 1.369 . S
C398 C407 1.429 . S
C399 C397 1.419 . S
C399 C400 1.363 . S
C399 H402 0.929 . S
C400 C399 1.363 . S
C400 C406 1.428 . S
H401 C397 0.930 . S
H402 C399 0.929 . S
S403 N404 1.613 . S
S403 N405 1.610 . S
N404 S403 1.613 . S
N404 C407 1.350 . S
N405 S403 1.610 . S
N405 C406 1.351 . S
C406 C400 1.428 . S
C406 N405 1.351 . S
C406 C407 1.434 . S
C407 C398 1.429 . S
C407 N404 1.350 . S
C407 C406 1.434 . S
C408 C409 1.369 1_655 S
C408 C410 1.419 1_655 S
C408 H412 0.930 . S
C409 C408 1.369 1_455 S
C409 C418 1.429 . S
C410 C408 1.419 1_455 S
C410 C411 1.363 . S
C410 H413 0.929 1_455 S
C411 C410 1.363 . S
C411 C417 1.428 . S
H412 C408 0.930 . S
H413 C410 0.929 1_655 S
S414 N415 1.613 . S
S414 N416 1.610 . S
N415 S414 1.613 . S
N415 C418 1.350 1_554 S
N416 S414 1.610 . S
N416 C417 1.351 1_554 S
C417 C411 1.428 . S
C417 N416 1.351 1_556 S
C417 C418 1.434 . S
C418 C409 1.429 . S
C418 N415 1.350 1_556 S
C418 C417 1.434 . S
C419 C420 1.369 . S
C419 C421 1.419 . S
C419 H423 0.930 . S
C420 C419 1.369 . S
C420 C429 1.429 1_545 S
C421 C419 1.419 . S
C421 C422 1.363 . S
C421 H424 0.929 . S
C422 C421 1.363 . S
C422 C428 1.428 1_545 S
H423 C419 0.930 . S
H424 C421 0.929 . S
S425 N426 1.613 . S
S425 N427 1.610 . S
N426 S425 1.613 . S
N426 C429 1.350 1_554 S
N427 S425 1.610 . S
N427 C428 1.351 1_554 S
C428 C422 1.428 1_565 S
C428 N427 1.351 1_556 S
C428 C429 1.434 . S
C429 C420 1.429 1_565 S
C429 N426 1.350 1_556 S
C429 C428 1.434 . S
C430 C431 1.369 . S
C430 C432 1.419 . S
C430 H434 0.930 . S
C431 C430 1.369 . S
C431 C440 1.429 . S
C432 C430 1.419 . S
C432 C433 1.363 . S
C432 H435 0.929 . S
C433 C432 1.363 . S
C433 C439 1.428 . S
H434 C430 0.930 . S
H435 C432 0.929 . S
S436 N437 1.613 . S
S436 N438 1.610 . S
N437 S436 1.613 . S
N437 C440 1.350 . S
N438 S436 1.610 . S
N438 C439 1.351 . S
C439 C433 1.428 . S
C439 N438 1.351 . S
C439 C440 1.434 . S
C440 C431 1.429 . S
C440 N437 1.350 . S
C440 C439 1.434 . S
C441 C442 1.369 . S
C441 C443 1.419 . S
C441 H445 0.930 . S
C442 C441 1.369 . S
C442 C451 1.429 . S
C443 C441 1.419 . S
C443 C444 1.363 . S
C443 H446 0.929 . S
C444 C443 1.363 . S
C444 C450 1.428 . S
H445 C441 0.930 . S
H446 C443 0.929 . S
S447 N448 1.613 . S
S447 N449 1.610 . S
N448 S447 1.613 . S
N448 C451 1.350 . S
N449 S447 1.610 . S
N449 C450 1.351 . S
C450 C444 1.428 . S
C450 N449 1.351 . S
C450 C451 1.434 . S
C451 C442 1.429 . S
C451 N448 1.350 . S
C451 C450 1.434 . S
C452 C453 1.369 . S
C452 C454 1.419 . S
C452 H456 0.930 . S
C453 C452 1.369 . S
C453 C462 1.429 1_655 S
C454 C452 1.419 . S
C454 C455 1.363 . S
C454 H457 0.929 . S
C455 C454 1.363 . S
C455 C461 1.428 1_655 S
H456 C452 0.930 . S
H457 C454 0.929 . S
S458 N459 1.613 . S
S458 N460 1.610 . S
N459 S458 1.613 . S
N459 C462 1.350 . S
N460 S458 1.610 . S
N460 C461 1.351 . S
C461 C455 1.428 1_455 S
C461 N460 1.351 . S
C461 C462 1.434 . S
C462 C453 1.429 1_455 S
C462 N459 1.350 . S
C462 C461 1.434 . S
C463 C464 1.369 . S
C463 C465 1.419 . S
C463 H467 0.930 . S
C464 C463 1.369 . S
C464 C473 1.429 1_565 S
C465 C463 1.419 . S
C465 C466 1.363 . S
C465 H468 0.929 . S
C466 C465 1.363 . S
C466 C472 1.428 1_565 S
H467 C463 0.930 . S
H468 C465 0.929 . S
S469 N470 1.613 . S
S469 N471 1.610 . S
N470 S469 1.613 . S
N470 C473 1.350 . S
N471 S469 1.610 . S
N471 C472 1.351 . S
C472 C466 1.428 1_545 S
C472 N471 1.351 . S
C472 C473 1.434 . S
C473 C464 1.429 1_545 S
C473 N470 1.350 . S
C473 C472 1.434 . S
C474 C475 1.369 . S
C474 C476 1.419 . S
C474 H478 0.930 . S
C475 C474 1.369 . S
C475 C484 1.429 . S
C476 C474 1.419 . S
C476 C477 1.363 . S
C476 H479 0.929 . S
C477 C476 1.363 . S
C477 C483 1.428 . S
H478 C474 0.930 . S
H479 C476 0.929 . S
S480 N481 1.613 1_554 S
S480 N482 1.610 1_554 S
N481 S480 1.613 1_556 S
N481 C484 1.350 . S
N482 S480 1.610 1_556 S
N482 C483 1.351 . S
C483 C477 1.428 . S
C483 N482 1.351 . S
C483 C484 1.434 . S
C484 C475 1.429 . S
C484 N481 1.350 . S
C484 C483 1.434 . S
C485 C486 1.369 . S
C485 C487 1.419 . S
C485 H489 0.930 . S
C486 C485 1.369 . S
C486 C495 1.429 . S
C487 C485 1.419 . S
C487 C488 1.363 . S
C487 H490 0.929 . S
C488 C487 1.363 . S
C488 C494 1.428 . S
H489 C485 0.930 . S
H490 C487 0.929 . S
S491 N492 1.613 . S
S491 N493 1.610 . S
N492 S491 1.613 . S
N492 C495 1.350 . S
N493 S491 1.610 . S
N493 C494 1.351 . S
C494 C488 1.428 . S
C494 N493 1.351 . S
C494 C495 1.434 . S
C495 C486 1.429 . S
C495 N492 1.350 . S
C495 C494 1.434 . S
C233 C61 1.973 . S
C235 C81 2.242 1_545 S
C246 C121 2.268 . S
C244 C70 2.017 . S
C257 C161 2.279 . S
C255 C43 2.024 . S
C268 C201 2.259 1_455 S
C266 C52 2.000 1_455 S
C279 C90 2.243 1_564 S
C277 C25 1.976 . S
C288 C34 2.020 . S
C290 C130 2.269 1_554 S
C299 C7 2.024 . S
C301 C170 2.278 1_554 S
C310 C16 1.994 . S
C312 C210 2.258 1_654 S
C323 C87 0.907 . S
C321 C50 0.928 . S
C334 C127 0.890 . S
C332 C59 0.904 . S
C345 C167 0.866 . S
C343 C67 0.896 . S
C354 C41 0.923 . S
C356 C207 0.865 . S
C365 C14 0.938 1_455 S
C367 C78 0.901 . S
C378 C118 0.872 . S
C376 C23 0.927 1_545 S
C389 C158 0.869 . S
C387 C31 0.891 . S
C398 C5 0.920 . S
C400 C198 0.881 . S
C409 C49 2.292 1_455 S
C411 C91 2.597 . S
C420 C58 2.237 1_545 S
C422 C131 2.540 . S
C433 C171 2.527 . S
C431 C68 2.231 . S
C444 C211 2.583 . S
C442 C40 2.282 . S
C453 C13 2.299 . S
C455 C82 2.602 . S
C466 C122 2.540 . S
C464 C22 2.245 . S
C477 C162 2.528 . S
C475 C32 2.238 . S
C486 C4 2.277 . S
C488 C202 2.583 . S
