# Generated by pormake.
# Topology tsx, (6,3)-cn, num edge types: 1
# Building blocks:
#     Node 0, Type 0, BuildingBlock: MIDCAF_clean_sbu_0, # of connection points: 6
#     Node 1, Type 0, BuildingBlock: MIDCAF_clean_sbu_0, # of connection points: 6
#     Node 2, Type 1, BuildingBlock: CUQRIR_clean_linker_1, # of connection points: 3
#     Node 3, Type 1, BuildingBlock: CUQRIR_clean_linker_1, # of connection points: 3
#     Node 4, Type 1, BuildingBlock: CUQRIR_clean_linker_1, # of connection points: 3
#     Node 5, Type 1, BuildingBlock: CUQRIR_clean_linker_1, # of connection points: 3
#     Edge 6, Type (0, 1), BuildingBlock: ZUJKAS_clean_linker_0, # of connection points: 2
#     Edge 7, Type (0, 1), BuildingBlock: ZUJKAS_clean_linker_0, # of connection points: 2
#     Edge 8, Type (0, 1), BuildingBlock: ZUJKAS_clean_linker_0, # of connection points: 2
#     Edge 9, Type (0, 1), BuildingBlock: ZUJKAS_clean_linker_0, # of connection points: 2
#     Edge 10, Type (0, 1), BuildingBlock: ZUJKAS_clean_linker_0, # of connection points: 2
#     Edge 11, Type (0, 1), BuildingBlock: ZUJKAS_clean_linker_0, # of connection points: 2
#     Edge 12, Type (0, 1), BuildingBlock: ZUJKAS_clean_linker_0, # of connection points: 2
#     Edge 13, Type (0, 1), BuildingBlock: ZUJKAS_clean_linker_0, # of connection points: 2
#     Edge 14, Type (0, 1), BuildingBlock: ZUJKAS_clean_linker_0, # of connection points: 2
#     Edge 15, Type (0, 1), BuildingBlock: ZUJKAS_clean_linker_0, # of connection points: 2
#     Edge 16, Type (0, 1), BuildingBlock: ZUJKAS_clean_linker_0, # of connection points: 2
#     Edge 17, Type (0, 1), BuildingBlock: ZUJKAS_clean_linker_0, # of connection points: 2
# Relax obj value: 0.117
# Max RMSD: 0.170
# Mean RMSD: 0.152
data_MOF--net-tsx--node1-MIDCAF_clean_sbu_0--node2-CUQRIR_clean_linker_1--edge1-ZUJKAS_clean_linker_0
_symmetry_space_group_name_H-M    P1
_symmetry_Int_Tables_number       1
_symmetry_cell_setting            triclinic
loop_
_symmetry_equiv_pos_as_xyz
'x, y, z'
_cell_length_a     24.287267
_cell_length_b     25.237163
_cell_length_c     43.978676
_cell_angle_alpha  80.039177
_cell_angle_beta   94.876578
_cell_angle_gamma 90.485513
loop_
_atom_site_label
_atom_site_type_symbol
_atom_site_fract_x
_atom_site_fract_y
_atom_site_fract_z
_atom_type_partial_charge
Zn0 Zn 0.96794 0.00348 0.98216 0.0
Zn1 Zn 0.16459 0.00311 0.0437 0.0
Zn2 Zn 0.06596 0.00762 0.01365 0.0
C3 C 0.13222 0.11211 0.02922 0.0
C4 C 0.17796 0.95496 0.9937 0.0
O5 O 0.01003 0.95451 0.0431 0.0
O6 O 0.93199 0.95241 0.01332 0.0
C7 C 0.98831 0.11132 0.9887 0.0
O8 O 0.08876 0.09239 0.01649 0.0
O9 O 0.17094 0.08144 0.04272 0.0
O10 O 0.2073 0.9688 0.01605 0.0
O11 O 0.12596 0.96681 0.98956 0.0
O12 O 0.95184 0.08115 0.97878 0.0
O13 O 0.03496 0.09184 1.00189 0.0
O14 O 0.07722 0.97804 0.96992 0.0
O15 O 0.99355 0.97718 0.94579 0.0
C16 C 0.045 0.96984 0.94635 0.0
O17 O 0.05905 0.96238 0.06127 0.0
O18 O 0.1448 0.95891 0.08291 0.0
C19 C 0.96032 0.93732 0.03868 0.0
C20 C 0.09428 0.94792 0.08487 0.0
Zn21 Zn 0.65615 0.50683 0.54036 0.0
Zn22 Zn 0.47042 0.50733 0.47159 0.0
Zn23 Zn 0.56165 0.51095 0.5068 0.0
C24 C 0.54862 0.46729 0.4405 0.0
C25 C 0.49188 0.6161 0.47385 0.0
O26 O 0.54918 0.46532 0.55373 0.0
O27 O 0.63354 0.45835 0.57741 0.0
C28 C 0.67756 0.45956 0.49134 0.0
O29 O 0.57826 0.47969 0.464 0.0
O30 O 0.4967 0.47151 0.43894 0.0
O31 O 0.45944 0.58597 0.46079 0.0
O32 O 0.5328 0.59568 0.49271 0.0
O33 O 0.70411 0.47589 0.51381 0.0
O34 O 0.62526 0.46927 0.48571 0.0
O35 O 0.58393 0.59545 0.51023 0.0
O36 O 0.66038 0.58464 0.54189 0.0
C37 C 0.62399 0.61519 0.5258 0.0
O38 O 0.50064 0.46143 0.53441 0.0
O39 O 0.42465 0.46683 0.50254 0.0
C40 C 0.58262 0.44823 0.57776 0.0
C41 C 0.44942 0.44972 0.52876 0.0
C42 C 0.0464 0.01775 0.43292 0.0
N43 N 0.06949 0.98423 0.41652 0.0
N44 N 0.99646 0.03542 0.41913 0.0
C45 C 0.07241 0.03388 0.46217 0.0
C46 C 0.98982 0.01162 0.3938 0.0
N47 N 0.03379 0.97976 0.39243 0.0
C48 C 0.94262 0.023 0.36903 0.0
H49 H 0.04032 0.04519 0.4764 0.0
H50 H 0.09906 0.06938 0.45604 0.0
H51 H 0.09825 0.0007 0.47595 0.0
H52 H 0.95887 0.03309 0.3459 0.0
H53 H 0.91574 0.05628 0.37261 0.0
H54 H 0.91705 0.98635 0.3692 0.0
C55 C 0.03116 0.0346 0.57901 0.0
N56 N 0.06669 0.04191 0.60346 0.0
N57 N 0.99569 0.99417 0.58757 0.0
C58 C 0.03059 0.06712 0.54691 0.0
C59 C 0.01124 0.97669 0.61795 0.0
N60 N 0.05474 0.00536 0.62757 0.0
C61 C 0.98317 0.9325 0.63855 0.0
H62 H 0.01153 0.04451 0.52931 0.0
H63 H 0.07315 0.07897 0.54129 0.0
H64 H 1.00574 0.10419 0.54577 0.0
H65 H 0.01066 0.89666 0.64399 0.0
H66 H 0.9435 0.92027 0.62756 0.0
H67 H 0.97582 0.94554 0.66072 0.0
C68 C 0.54318 0.51558 0.92871 0.0
N69 N 0.56761 0.48769 0.90969 0.0
N70 N 0.49681 0.54074 0.91402 0.0
C71 C 0.56568 0.52009 0.96111 0.0
C72 C 0.49423 0.52788 0.88535 0.0
N73 N 0.53731 0.49593 0.88264 0.0
C74 C 0.45106 0.54875 0.85952 0.0
H75 H 0.55365 0.48386 0.97723 0.0
H76 H 0.54893 0.55591 0.96872 0.0
H77 H 0.61147 0.52201 0.96264 0.0
H78 H 0.46537 0.58745 0.84665 0.0
H79 H 0.41119 0.55618 0.8686 0.0
H80 H 0.44442 0.52001 0.84312 0.0
C81 C 0.52324 0.53846 0.07544 0.0
N82 N 0.55456 0.5489 0.10075 0.0
N83 N 0.48074 0.50574 0.08405 0.0
C84 C 0.53386 0.56027 0.04246 0.0
C85 C 0.4872 0.49677 0.11541 0.0
N86 N 0.53175 0.52335 0.12554 0.0
C87 C 0.45023 0.4619 0.13623 0.0
H88 H 0.49594 0.55944 0.0266 0.0
H89 H 0.5659 0.53505 0.03526 0.0
H90 H 0.54957 0.60205 0.04039 0.0
H91 H 0.47526 0.4379 0.15609 0.0
H92 H 0.42481 0.4345 0.12375 0.0
H93 H 0.42194 0.48808 0.14563 0.0
H94 H 0.10882 0.19422 0.97987 0.0
H95 H 0.14644 0.28611 0.97513 0.0
H96 H 0.21375 0.25115 0.07049 0.0
H97 H 0.17616 0.16076 0.07527 0.0
H98 H 0.17598 0.35671 0.05301 0.0
H99 H 0.31443 0.29834 0.96927 0.0
H100 H 0.24095 0.29722 0.9598 0.0
H101 H 0.27226 0.24951 0.99145 0.0
C102 C 0.12992 0.2071 1.00001 0.0
C103 C 0.14007 0.17048 0.02786 0.0
C104 C 0.15194 0.25926 0.99721 0.0
C105 C 0.18397 0.2751 0.02229 0.0
C106 C 0.18946 0.23991 0.05079 0.0
H107 H 0.47752 0.40396 0.07457 0.0
H108 H 0.39931 0.35953 0.0506 0.0
C109 C 0.16798 0.18817 0.0535 0.0
C110 C 0.21781 0.3248 0.01892 0.0
H111 H 0.34086 0.37149 0.99295 0.0
C112 C 0.2112 0.36113 0.0392 0.0
C113 C 0.26396 0.33013 1.001 0.0
C114 C 0.27385 0.29176 0.9792 0.0
C115 C 0.25177 0.39952 0.04408 0.0
C116 C 0.29977 0.40239 0.02769 0.0
C117 C 0.30405 0.36919 0.00545 0.0
C118 C 0.34964 0.43206 0.03724 0.0
C119 C 0.24517 0.4333 0.06873 0.0
C120 C 0.34873 0.48796 0.03662 0.0
C121 C 0.39345 0.51309 0.05056 0.0
C122 C 0.43963 0.48272 0.06487 0.0
C123 C 0.44215 0.42779 0.06352 0.0
C124 C 0.39755 0.40263 0.04985 0.0
H125 H 0.20932 0.42062 0.0823 0.0
H126 H 0.283 0.43086 0.08499 0.0
H127 H 0.23874 0.47599 0.05765 0.0
H128 H 0.31272 0.51168 0.02648 0.0
H129 H 0.39108 0.55562 0.05144 0.0
H130 H 0.28427 0.95498 0.97899 0.0
H131 H 0.3309 0.88414 0.95917 0.0
H132 H 0.17586 0.80208 0.94864 0.0
H133 H 0.12871 0.87325 0.96829 0.0
H134 H 0.26986 0.74346 0.98988 0.0
H135 H 0.32522 0.83284 0.87196 0.0
H136 H 0.33694 0.87468 0.9011 0.0
H137 H 0.26765 0.85677 0.88945 0.0
C138 C 0.25984 0.92269 0.97155 0.0
C139 C 0.20289 0.91963 0.97509 0.0
C140 C 0.2865 0.88233 0.96021 0.0
C141 C 0.25676 0.83801 0.95247 0.0
C142 C 0.19936 0.83621 0.95437 0.0
H143 H 0.39145 0.52824 0.92795 0.0
H144 H 0.32951 0.59878 0.93787 0.0
C145 C 0.17246 0.87705 0.96535 0.0
C146 C 0.28705 0.79101 0.94622 0.0
H147 H 0.37157 0.75174 0.89605 0.0
C148 C 0.29152 0.74476 0.96919 0.0
C149 C 0.3156 0.7934 0.91939 0.0
C150 C 0.31098 0.84188 0.89387 0.0
C151 C 0.32561 0.70138 0.96656 0.0
C152 C 0.35492 0.70403 0.93988 0.0
C153 C 0.34927 0.74987 0.91656 0.0
C154 C 0.39256 0.66025 0.93586 0.0
C155 C 0.33177 0.65423 0.99295 0.0
C156 C 0.44834 0.67139 0.93132 0.0
C157 C 0.48326 0.6313 0.92545 0.0
C158 C 0.46296 0.57957 0.92408 0.0
C159 C 0.40769 0.56792 0.92935 0.0
C160 C 0.37258 0.60806 0.93505 0.0
H161 H 0.31861 0.6647 0.01477 0.0
H162 H 0.30541 0.62073 0.98702 0.0
H163 H 0.37521 0.6396 0.99717 0.0
H164 H 0.46458 0.71138 0.93178 0.0
H165 H 0.5257 0.6409 0.92101 0.0
H166 H 0.97991 0.83051 0.04767 0.0
H167 H 0.91617 0.76083 0.06909 0.0
H168 H 0.82107 0.88116 0.10071 0.0
H169 H 0.8834 0.95111 0.07786 0.0
H170 H 0.86946 0.71902 0.12246 0.0
H171 H 0.71299 0.83221 0.03664 0.0
H172 H 0.78523 0.84921 0.03791 0.0
H173 H 0.7419 0.87028 0.06491 0.0
C174 C 0.94666 0.84159 0.06033 0.0
C175 C 0.93644 0.89584 0.06133 0.0
C176 C 0.91005 0.80187 0.07239 0.0
C177 C 0.86287 0.81602 0.08566 0.0
C178 C 0.85634 0.86953 0.0898 0.0
H179 H 0.56261 0.63594 0.12832 0.0
H180 H 0.64019 0.69923 0.1283 0.0
C181 C 0.89233 0.90936 0.07719 0.0
C182 C 0.81743 0.77657 0.09121 0.0
H183 H 0.68239 0.75446 0.06817 0.0
C184 C 0.82851 0.72686 0.11072 0.0
C185 C 0.7641 0.78643 0.07544 0.0
C186 C 0.75034 0.83714 0.05232 0.0
C187 C 0.78757 0.68709 0.11502 0.0
C188 C 0.73445 0.69736 0.09943 0.0
C189 C 0.72316 0.74706 0.08025 0.0
C190 C 0.69008 0.65663 0.10179 0.0
C191 C 0.80111 0.63431 0.13614 0.0
C192 C 0.69253 0.61202 0.08678 0.0
C193 C 0.64812 0.57633 0.08655 0.0
C194 C 0.60088 0.58475 0.10141 0.0
C195 C 0.5989 0.62881 0.11686 0.0
C196 C 0.64302 0.66473 0.11687 0.0
H197 H 0.84105 0.63573 0.1503 0.0
H198 H 0.76783 0.62318 0.15186 0.0
H199 H 0.80379 0.60219 0.12198 0.0
H200 H 0.72823 0.60554 0.07467 0.0
H201 H 0.65043 0.54226 0.07475 0.0
H202 H 0.00921 0.19388 0.94281 0.0
H203 H 0.95534 0.2778 0.9292 0.0
H204 H 0.87359 0.23624 0.01339 0.0
H205 H 0.92835 0.15372 0.02717 0.0
H206 H 0.84766 0.27269 0.91694 0.0
H207 H 0.88328 0.39506 0.00902 0.0
H208 H 0.93032 0.34215 0.00501 0.0
H209 H 0.8694 0.32681 0.02556 0.0
C210 C 0.982 0.20446 0.95914 0.0
C211 C 0.9736 0.16824 0.98632 0.0
C212 C 0.95078 0.25204 0.95124 0.0
C213 C 0.9105 0.26375 0.97033 0.0
C214 C 0.90527 0.2292 0.99863 0.0
H215 H 0.59248 0.4066 0.95718 0.0
H216 H 0.68085 0.358 0.97017 0.0
C217 C 0.93665 0.18195 0.00657 0.0
C218 C 0.86756 0.30576 0.95854 0.0
H219 H 0.79247 0.40476 0.98028 0.0
C220 C 0.83652 0.30249 0.93043 0.0
C221 C 0.85264 0.34454 0.97614 0.0
C222 C 0.88613 0.35269 0.00543 0.0
C223 C 0.78929 0.33459 0.92043 0.0
C224 C 0.77277 0.37118 0.93891 0.0
C225 C 0.80501 0.37627 0.96629 0.0
C226 C 0.72016 0.40185 0.93118 0.0
C227 C 0.75568 0.3272 0.89099 0.0
C228 C 0.71311 0.44261 0.905 0.0
C229 C 0.66279 0.47049 0.89773 0.0
C230 C 0.61886 0.45795 0.91649 0.0
C231 C 0.62601 0.41715 0.9426 0.0
C232 C 0.67631 0.38949 0.94997 0.0
H233 H 0.76956 0.29173 0.88176 0.0
H234 H 0.71126 0.32237 0.89506 0.0
H235 H 0.7596 0.36351 0.87307 0.0
H236 H 0.74663 0.45306 0.89037 0.0
H237 H 0.65842 0.50244 0.87779 0.0
H238 H 0.63225 0.68967 0.47355 0.0
H239 H 0.68292 0.77483 0.47203 0.0
H240 H 0.68841 0.75525 0.57157 0.0
H241 H 0.63942 0.67 0.57318 0.0
H242 H 0.68138 0.87912 0.50657 0.0
H243 H 0.85024 0.72769 0.54072 0.0
H244 H 0.78448 0.71218 0.52199 0.0
H245 H 0.79057 0.7163 0.5625 0.0
C246 C 0.64185 0.70509 0.49489 0.0
C247 C 0.63232 0.67348 0.52351 0.0
C248 C 0.67094 0.75356 0.49401 0.0
C249 C 0.68984 0.77085 0.52174 0.0
C250 C 0.67417 0.7425 0.54996 0.0
H251 H 0.88777 0.00488 0.59432 0.0
H252 H 0.81138 0.95822 0.57028 0.0
C253 C 0.64605 0.69393 0.55086 0.0
C254 C 0.73492 0.81062 0.52232 0.0
H255 H 0.87162 0.81728 0.54618 0.0
C256 C 0.72322 0.86588 0.51477 0.0
C257 C 0.78962 0.79311 0.5324 0.0
C258 C 0.80486 0.7341 0.53965 0.0
C259 C 0.76466 0.9042 0.51861 0.0
C260 C 0.81856 0.88647 0.53089 0.0
C261 C 0.83047 0.83114 0.53682 0.0
C262 C 0.86222 0.92335 0.54056 0.0
C263 C 0.75019 0.96312 0.50964 0.0
C264 C 0.91636 0.91972 0.53189 0.0
C265 C 0.96003 0.94537 0.54623 0.0
C266 C 0.95021 0.97531 0.56927 0.0
C267 C 0.89584 0.98197 0.57649 0.0
C268 C 0.85224 0.95579 0.5625 0.0
H269 H 0.71643 0.96983 0.49066 0.0
H270 H 0.73533 0.97777 0.52989 0.0
H271 H 0.7865 0.98738 0.50208 0.0
H272 H 0.92523 0.89478 0.51516 0.0
H273 H 1.00184 0.93978 0.54049 0.0
H274 H 0.63331 0.37751 0.46407 0.0
H275 H 0.68455 0.30617 0.44713 0.0
H276 H 0.83756 0.38755 0.46518 0.0
H277 H 0.78673 0.4589 0.48209 0.0
H278 H 0.76548 0.3014 0.40299 0.0
H279 H 0.85034 0.24125 0.52529 0.0
H280 H 0.7926 0.28705 0.51407 0.0
H281 H 0.86196 0.31045 0.50923 0.0
C282 C 0.67765 0.38115 0.46341 0.0
C283 C 0.70608 0.42368 0.47447 0.0
C284 C 0.70689 0.34015 0.45396 0.0
C285 C 0.76484 0.34111 0.45562 0.0
C286 C 0.79288 0.38564 0.46433 0.0
H287 H 0.99881 0.13839 0.39165 0.0
H288 H 0.93954 0.2119 0.40032 0.0
C289 C 0.76379 0.42645 0.47384 0.0
C290 C 0.7964 0.29372 0.45088 0.0
H291 H 0.88871 0.19789 0.48815 0.0
C292 C 0.79229 0.27858 0.42157 0.0
C293 C 0.83036 0.26339 0.47541 0.0
C294 C 0.83382 0.27591 0.50787 0.0
C295 C 0.82283 0.23481 0.41588 0.0
C296 C 0.85885 0.20612 0.44006 0.0
C297 C 0.86152 0.22028 0.46959 0.0
C298 C 0.895 0.16194 0.43511 0.0
C299 C 0.81588 0.2194 0.38412 0.0
C300 C 0.89108 0.1101 0.45265 0.0
C301 C 0.92533 0.06851 0.4479 0.0
C302 C 0.96398 0.07849 0.42574 0.0
C303 C 0.96891 0.13041 0.40877 0.0
C304 C 0.93482 0.17195 0.4135 0.0
H305 H 0.77607 0.23456 0.37139 0.0
H306 H 0.84979 0.2374 0.37042 0.0
H307 H 0.81768 0.17506 0.38565 0.0
H308 H 0.86103 0.1017 0.46968 0.0
H309 H 0.92128 0.02846 0.4611 0.0
H310 H 0.48863 0.35804 0.56704 0.0
H311 H 0.43149 0.28397 0.59105 0.0
H312 H 0.28545 0.38219 0.56335 0.0
H313 H 0.34184 0.4556 0.53918 0.0
H314 H 0.32819 0.27649 0.63453 0.0
H315 H 0.28792 0.24942 0.51172 0.0
H316 H 0.34826 0.28369 0.52533 0.0
H317 H 0.28229 0.31714 0.51888 0.0
C318 C 0.44464 0.36447 0.56727 0.0
C319 C 0.41946 0.41226 0.55109 0.0
C320 C 0.41207 0.32214 0.58087 0.0
C321 C 0.3543 0.32763 0.57862 0.0
C322 C 0.32996 0.37724 0.56522 0.0
H323 H 0.05619 0.14919 0.58502 0.0
H324 H 0.13064 0.21573 0.58233 0.0
C325 C 0.3622 0.41909 0.55143 0.0
C326 C 0.31839 0.28008 0.58512 0.0
H327 H 0.23071 0.20129 0.54777 0.0
C328 C 0.30743 0.25934 0.61571 0.0
C329 C 0.2916 0.2579 0.56042 0.0
C330 C 0.30324 0.27775 0.52721 0.0
C331 C 0.26834 0.2182 0.62204 0.0
C332 C 0.23997 0.19775 0.59716 0.0
C333 C 0.25241 0.21735 0.56675 0.0
C334 C 0.19503 0.15795 0.6017 0.0
C335 C 0.25585 0.19816 0.65503 0.0
C336 C 0.20674 0.10358 0.61354 0.0
C337 C 0.16434 0.06552 0.61459 0.0
C338 C 0.10988 0.08137 0.60373 0.0
C339 C 0.0981 0.13599 0.5928 0.0
C340 C 0.14039 0.17393 0.59159 0.0
H341 H 0.27793 0.22143 0.67152 0.0
H342 H 0.21071 0.20061 0.65708 0.0
H343 H 0.26832 0.15524 0.66176 0.0
H344 H 0.24878 0.09045 0.62111 0.0
H345 H 0.17415 0.02351 0.62309 0.0
H346 H 0.45015 0.67629 0.42036 0.0
H347 H 0.39933 0.7603 0.41481 0.0
H348 H 0.4479 0.7702 0.51035 0.0
H349 H 0.49886 0.68475 0.51606 0.0
H350 H 0.33813 0.76981 0.49913 0.0
H351 H 0.41886 0.91927 0.40759 0.0
H352 H 0.41048 0.85631 0.39426 0.0
H353 H 0.45908 0.86143 0.427 0.0
C354 C 0.45189 0.69744 0.43986 0.0
C355 C 0.47803 0.67393 0.46869 0.0
C356 C 0.42306 0.74583 0.43661 0.0
C357 C 0.41987 0.77194 0.46209 0.0
C358 C 0.45004 0.7509 0.49031 0.0
H359 H 0.16839 0.03071 0.42712 0.0
H360 H 0.25794 0.98473 0.44195 0.0
C361 C 0.47943 0.70232 0.49353 0.0
C362 C 0.37692 0.81422 0.46033 0.0
H363 H 0.31845 0.92272 0.4113 0.0
C364 C 0.33463 0.80411 0.48042 0.0
C365 C 0.37229 0.8594 0.43617 0.0
C366 C 0.41804 0.87498 0.41529 0.0
C367 C 0.28607 0.83525 0.4755 0.0
C368 C 0.2791 0.8769 0.44942 0.0
C369 C 0.32319 0.88991 0.43085 0.0
C370 C 0.22534 0.90515 0.44017 0.0
C371 C 0.24208 0.82227 0.49785 0.0
C372 C 0.17765 0.87589 0.43348 0.0
C373 C 0.12668 0.90202 0.42531 0.0
C374 C 0.12256 0.95785 0.42352 0.0
C375 C 0.17052 0.98741 0.42912 0.0
C376 C 0.22156 0.96128 0.43737 0.0
H377 H 0.26013 0.80255 0.52108 0.0
H378 H 0.21939 0.85905 0.50041 0.0
H379 H 0.21203 0.79396 0.48905 0.0
H380 H 0.17984 0.83272 0.43466 0.0
H381 H 0.0902 0.87864 0.42088 0.0
H382 H 0.99317 0.9581 0.10674 0.0
H383 H 0.97339 0.94224 0.16124 0.0
H384 H 0.13659 0.87488 0.18755 0.0
H385 H 0.15589 0.88883 0.13323 0.0
H386 H 0.05681 0.82731 0.22682 0.0
H387 H 0.05308 0.05109 0.20895 0.0
H388 H 1.00244 0.02113 0.18507 0.0
H389 H 0.07465 0.01461 0.18017 0.0
C390 C 0.02386 0.93767 0.12396 0.0
C391 C 0.07627 0.9252 0.11572 0.0
C392 C 0.01277 0.92922 0.15516 0.0
C393 C 0.05409 0.90868 0.17846 0.0
C394 C 0.10427 0.89114 0.16998 0.0
H395 H 0.11806 0.0026 0.35661 0.0
H396 H 0.12572 0.97662 0.30587 0.0
C397 C 0.11528 0.89934 0.1389 0.0
C398 C 0.04897 0.91284 0.21132 0.0
H399 H 0.0437 0.00519 0.25928 0.0
C400 C 0.05343 0.86609 0.23399 0.0
C401 C 0.04592 0.96365 0.2206 0.0
C402 C 0.04422 0.01559 0.19754 0.0
C403 C 0.05495 0.8689 0.26573 0.0
C404 C 0.05147 0.91972 0.27489 0.0
C405 C 0.04653 0.96627 0.25219 0.0
C406 C 0.05289 0.92642 0.30779 0.0
C407 C 0.06191 0.81774 0.28921 0.0
C408 C 0.01061 0.90537 0.32612 0.0
C409 C 1.00678 0.91974 0.35519 0.0
C410 C 0.04474 0.95575 0.36615 0.0
C411 C 0.08884 0.97427 0.34868 0.0
C412 C 0.09287 0.95976 0.31969 0.0
H413 H 0.07797 0.78424 0.27901 0.0
H414 H 0.09046 0.82382 0.30939 0.0
H415 H 0.02119 0.80556 0.29773 0.0
H416 H 0.97881 0.88034 0.31727 0.0
H417 H 0.97256 0.90505 0.36847 0.0
H418 H 0.99924 0.90583 0.9077 0.0
H419 H 0.02236 0.90333 0.85503 0.0
H420 H 0.16149 0.00708 0.86774 0.0
H421 H 0.13959 0.00781 0.92105 0.0
H422 H 0.01373 0.99414 0.81474 0.0
H423 H 0.22376 0.90957 0.81482 0.0
H424 H 0.1854 0.89932 0.84877 0.0
H425 H 0.22087 0.9616 0.83781 0.0
C426 C 0.03593 0.92647 0.89961 0.0
C427 C 0.06742 0.9573 0.91827 0.0
C428 C 0.04911 0.9251 0.86951 0.0
C429 C 0.09349 0.95525 0.85728 0.0
C430 C 0.1276 0.9828 0.87672 0.0
H431 H 0.0596 0.08655 0.6602 0.0
H432 H 0.08088 0.0786 0.71634 0.0
C433 C 0.11495 0.98335 0.90718 0.0
C434 C 0.09763 0.9648 0.82326 0.0
H435 H 0.1828 0.95617 0.76626 0.0
C436 C 0.05071 0.98556 0.80421 0.0
C437 C 0.14585 0.9537 0.80949 0.0
C438 C 0.1967 0.92935 0.82873 0.0
C439 C 0.0502 0.99492 0.77188 0.0
C440 C 0.09878 0.98523 0.758 0.0
C441 C 0.14593 0.96447 0.77696 0.0
C442 C 0.09933 0.9933 0.72378 0.0
C443 C 0.99682 0.01342 0.75295 0.0
C444 C 0.10685 0.94905 0.70912 0.0
C445 C 0.09608 0.95401 0.67701 0.0
C446 C 0.07709 0.00305 0.6592 0.0
C447 C 0.0741 0.04835 0.67352 0.0
C448 C 0.08573 0.04365 0.70556 0.0
H449 H 0.96054 0.00556 0.76683 0.0
H450 H 0.99862 0.05741 0.74455 0.0
H451 H 0.9901 0.99298 0.73253 0.0
H452 H 0.11784 0.90995 0.72266 0.0
H453 H 0.09989 0.91893 0.66622 0.0
H454 H 0.49197 0.47757 0.60353 0.0
H455 H 0.48077 0.46227 0.65924 0.0
H456 H 0.61717 0.34979 0.67536 0.0
H457 H 0.6299 0.36671 0.61996 0.0
H458 H 0.47099 0.37997 0.71092 0.0
H459 H 0.67766 0.47654 0.71402 0.0
H460 H 0.6371 0.47252 0.67825 0.0
H461 H 0.67501 0.41467 0.69908 0.0
C462 C 0.51805 0.44797 0.61883 0.0
C463 C 0.5624 0.42402 0.60766 0.0
C464 C 0.5118 0.43939 0.65068 0.0
C465 C 0.54939 0.40626 0.6715 0.0
C466 C 0.58871 0.37662 0.65977 0.0
H467 H 0.53995 0.39275 0.87395 0.0
H468 H 0.54656 0.36194 0.82405 0.0
C469 C 0.59566 0.38598 0.62811 0.0
C470 C 0.55332 0.40974 0.70496 0.0
H471 H 0.63733 0.45552 0.76108 0.0
C472 C 0.50753 0.39584 0.72206 0.0
C473 C 0.60086 0.43135 0.71928 0.0
C474 C 0.6503 0.45012 0.70173 0.0
C475 C 0.50765 0.40388 0.75295 0.0
C476 C 0.55512 0.42569 0.76711 0.0
C477 C 0.6013 0.43824 0.75024 0.0
C478 C 0.55548 0.44211 0.79791 0.0
C479 C 0.45613 0.39151 0.76969 0.0
C480 C 0.56089 0.49684 0.79993 0.0
C481 C 0.55775 0.51402 0.82819 0.0
C482 C 0.54924 0.47685 0.85494 0.0
C483 C 0.54658 0.42182 0.85342 0.0
C484 C 0.54968 0.40446 0.825 0.0
H485 H 0.42014 0.3835 0.75382 0.0
H486 H 0.46357 0.35532 0.78786 0.0
H487 H 0.44556 0.42544 0.78123 0.0
H488 H 0.56582 0.52653 0.77939 0.0
H489 H 0.56012 0.55659 0.82911 0.0
H490 H 0.50498 0.4093 0.39783 0.0
H491 H 0.5335 0.41161 0.34588 0.0
H492 H 0.67722 0.50381 0.36794 0.0
H493 H 0.64816 0.50235 0.42009 0.0
H494 H 0.61321 0.55522 0.3186 0.0
H495 H 0.64756 0.34744 0.30107 0.0
H496 H 0.58411 0.35214 0.31851 0.0
H497 H 0.64869 0.36518 0.33921 0.0
C498 C 0.54369 0.42845 0.392 0.0
C499 C 0.57424 0.45575 0.41301 0.0
C500 C 0.56023 0.42942 0.3623 0.0
C501 C 0.60774 0.45758 0.35299 0.0
C502 C 0.64061 0.48153 0.37469 0.0
H503 H 0.63167 0.48637 0.15139 0.0
H504 H 0.66441 0.47427 0.2068 0.0
C505 C 0.62415 0.48036 0.40456 0.0
C506 C 0.61673 0.4696 0.31952 0.0
H507 H 0.61262 0.41093 0.25502 0.0
C508 C 0.61463 0.52366 0.30478 0.0
C509 C 0.61931 0.42865 0.3014 0.0
C510 C 0.62566 0.37015 0.31597 0.0
C511 C 0.61028 0.53757 0.27236 0.0
C512 C 0.60713 0.49636 0.25424 0.0
C513 C 0.61408 0.44254 0.26893 0.0
C514 C 0.59053 0.50783 0.2205 0.0
C515 C 0.60702 0.59626 0.2578 0.0
C516 C 0.53845 0.53085 0.20991 0.0
C517 C 0.51999 0.53758 0.17854 0.0
C518 C 0.55313 0.52121 0.15726 0.0
C519 C 0.6058 0.49949 0.16758 0.0
C520 C 0.62427 0.49245 0.19908 0.0
H521 H 0.62804 0.62183 0.27339 0.0
H522 H 0.62594 0.60359 0.23534 0.0
H523 H 0.56301 0.60894 0.25352 0.0
H524 H 0.51131 0.54212 0.22607 0.0
H525 H 0.47938 0.55462 0.17088 0.0
loop_
_geom_bond_atom_site_label_1
_geom_bond_atom_site_label_2
_geom_bond_distance
_geom_bond_site_symmetry_2
_ccdc_geom_bond_type
Zn0 O6 1.920 1_545 S
Zn0 O12 1.898 . S
Zn0 O15 1.905 1_545 S
Zn1 O9 1.905 1_565 S
Zn1 O10 1.898 . S
Zn1 O18 1.920 . S
Zn2 O5 2.080 1_545 S
Zn2 O8 2.115 . S
Zn2 O11 2.120 1_545 S
Zn2 O13 2.120 1_455 S
Zn2 O14 2.114 1_554 S
Zn2 O17 2.080 . S
C3 O8 1.183 . S
C3 O9 1.182 . S
C4 O10 1.167 . S
C4 O11 1.299 . S
O5 Zn2 2.080 1_565 S
O5 C19 1.305 1_455 S
O6 Zn0 1.920 1_565 S
O6 C19 1.234 1_556 S
C7 O12 1.167 . S
C7 O13 1.299 1_556 S
O8 Zn2 2.115 . S
O8 C3 1.183 . S
O9 Zn1 1.905 1_545 S
O9 C3 1.182 . S
O10 Zn1 1.898 . S
O10 C4 1.167 . S
O11 Zn2 2.120 1_565 S
O11 C4 1.299 . S
O12 Zn0 1.898 . S
O12 C7 1.167 . S
O13 Zn2 2.120 1_655 S
O13 C7 1.299 1_554 S
O14 Zn2 2.114 1_556 S
O14 C16 1.166 1_545 S
O15 Zn0 1.905 1_565 S
O15 C16 1.182 1_655 S
C16 O14 1.166 1_565 S
C16 O15 1.182 1_455 S
O17 Zn2 2.080 . S
O17 C20 1.305 1_545 S
O18 Zn1 1.920 . S
O18 C20 1.234 . S
C19 O5 1.305 1_655 S
C19 O6 1.234 1_554 S
C20 O17 1.305 1_565 S
C20 O18 1.234 . S
Zn21 O27 1.920 . S
Zn21 O33 1.898 . S
Zn21 O36 1.905 . S
Zn22 O30 1.905 . S
Zn22 O31 1.898 . S
Zn22 O39 1.920 . S
Zn23 O26 2.080 . S
Zn23 O29 2.114 . S
Zn23 O32 2.120 . S
Zn23 O34 2.120 . S
Zn23 O35 2.114 . S
Zn23 O38 2.080 . S
C24 O29 1.166 . S
C24 O30 1.182 . S
C25 O31 1.167 . S
C25 O32 1.299 . S
O26 Zn23 2.080 . S
O26 C40 1.305 . S
O27 Zn21 1.920 . S
O27 C40 1.234 . S
C28 O33 1.167 . S
C28 O34 1.299 . S
O29 Zn23 2.114 . S
O29 C24 1.166 . S
O30 Zn22 1.905 . S
O30 C24 1.182 . S
O31 Zn22 1.898 . S
O31 C25 1.167 . S
O32 Zn23 2.120 . S
O32 C25 1.299 . S
O33 Zn21 1.898 . S
O33 C28 1.167 . S
O34 Zn23 2.120 . S
O34 C28 1.299 . S
O35 Zn23 2.114 . S
O35 C37 1.166 . S
O36 Zn21 1.905 . S
O36 C37 1.182 . S
C37 O35 1.166 . S
C37 O36 1.182 . S
O38 Zn23 2.080 . S
O38 C41 1.305 . S
O39 Zn22 1.920 . S
O39 C41 1.234 . S
C40 O26 1.305 . S
C40 O27 1.234 . S
C41 O38 1.305 . S
C41 O39 1.234 . S
C42 N43 1.317 . S
C42 N44 1.348 . S
C42 C45 1.485 . S
N43 C42 1.317 . S
N43 N47 1.370 . S
N44 C42 1.348 . S
N44 C46 1.346 . S
C45 C42 1.485 . S
C45 H49 0.960 1_545 S
C45 H50 0.961 . S
C45 H51 0.963 . S
C46 N44 1.346 . S
C46 N47 1.307 . S
C46 C48 1.486 . S
N47 N43 1.370 . S
N47 C46 1.307 . S
C48 C46 1.486 . S
C48 H52 0.960 . S
C48 H53 0.960 1_455 S
C48 H54 0.959 . S
H49 C45 0.960 1_565 S
H50 C45 0.961 . S
H51 C45 0.963 . S
H52 C48 0.960 . S
H53 C48 0.960 1_655 S
H54 C48 0.959 . S
C55 N56 1.317 . S
C55 N57 1.348 1_445 S
C55 C58 1.485 . S
N56 C55 1.317 . S
N56 N60 1.370 . S
N57 C55 1.348 1_665 S
N57 C59 1.346 . S
C58 C55 1.485 . S
C58 H62 0.960 1_455 S
C58 H63 0.961 1_545 S
C58 H64 0.960 . S
C59 N57 1.346 . S
C59 N60 1.307 1_665 S
C59 C61 1.486 . S
N60 N56 1.370 . S
N60 C59 1.307 1_445 S
C61 C59 1.486 . S
C61 H65 0.960 . S
C61 H66 0.960 . S
C61 H67 0.959 . S
H62 C58 0.960 1_655 S
H63 C58 0.961 1_565 S
H64 C58 0.960 . S
H65 C61 0.960 . S
H66 C61 0.960 . S
H67 C61 0.959 . S
C68 N69 1.317 . S
C68 N70 1.348 . S
C68 C71 1.485 . S
N69 C68 1.317 . S
N69 N73 1.370 . S
N70 C68 1.348 . S
N70 C72 1.346 . S
C71 C68 1.485 . S
C71 H75 0.960 . S
C71 H76 0.961 . S
C71 H77 0.960 . S
C72 N70 1.346 . S
C72 N73 1.307 . S
C72 C74 1.486 . S
N73 N69 1.370 . S
N73 C72 1.307 . S
C74 C72 1.486 . S
C74 H78 0.960 . S
C74 H79 0.960 . S
C74 H80 0.959 . S
H75 C71 0.960 . S
H76 C71 0.961 . S
H77 C71 0.960 . S
H78 C74 0.960 . S
H79 C74 0.960 . S
H80 C74 0.959 . S
C81 N82 1.317 . S
C81 N83 1.348 . S
C81 C84 1.485 . S
N82 C81 1.317 . S
N82 N86 1.370 . S
N83 C81 1.348 . S
N83 C85 1.346 . S
C84 C81 1.485 . S
C84 H88 0.960 . S
C84 H89 0.961 . S
C84 H90 0.960 . S
C85 N83 1.346 . S
C85 N86 1.307 . S
C85 C87 1.486 . S
N86 N82 1.370 . S
N86 C85 1.307 . S
C87 C85 1.486 . S
C87 H91 0.960 . S
C87 H92 0.960 . S
C87 H93 0.959 . S
H88 C84 0.960 . S
H89 C84 0.961 . S
H90 C84 0.960 . S
H91 C87 0.960 . S
H92 C87 0.960 . S
H93 C87 0.959 . S
H94 C102 0.929 . S
H95 C104 0.930 1_556 S
H96 C106 0.930 . S
H97 C109 0.929 . S
H98 C112 0.930 . S
H99 C114 0.960 . S
H100 C114 0.960 1_556 S
H101 C114 0.960 . S
C102 H94 0.929 . S
C102 C103 1.377 1_556 S
C102 C104 1.384 1_556 S
C103 C102 1.377 1_554 S
C103 C109 1.390 . S
C104 H95 0.930 1_554 S
C104 C102 1.384 1_554 S
C104 C105 1.372 . S
C105 C104 1.372 . S
C105 C106 1.400 . S
C105 C110 1.490 . S
C106 H96 0.930 . S
C106 C105 1.400 . S
C106 C109 1.386 . S
H107 C123 0.930 . S
H108 C124 0.931 . S
C109 H97 0.929 . S
C109 C103 1.390 . S
C109 C106 1.386 . S
C110 C105 1.490 . S
C110 C112 1.395 . S
C110 C113 1.403 . S
H111 C117 0.930 . S
C112 H98 0.930 . S
C112 C110 1.395 . S
C112 C115 1.403 . S
C113 C110 1.403 . S
C113 C114 1.524 . S
C113 C117 1.400 . S
C114 H99 0.960 . S
C114 H100 0.960 1_554 S
C114 H101 0.960 . S
C114 C113 1.524 . S
C115 C112 1.403 . S
C115 C116 1.392 . S
C115 C119 1.495 . S
C116 C115 1.392 . S
C116 C117 1.385 . S
C116 C118 1.478 . S
C117 H111 0.930 . S
C117 C113 1.400 . S
C117 C116 1.385 . S
C118 C116 1.478 . S
C118 C120 1.381 . S
C118 C124 1.383 . S
C119 C115 1.495 . S
C119 H125 0.959 . S
C119 H126 0.961 . S
C119 H127 0.960 . S
C120 C118 1.381 . S
C120 C121 1.394 . S
C120 H128 0.930 . S
C121 C120 1.394 . S
C121 C122 1.383 . S
C121 H129 0.929 . S
C122 C121 1.383 . S
C122 C123 1.377 . S
C123 H107 0.930 . S
C123 C122 1.377 . S
C123 C124 1.379 . S
C124 H108 0.931 . S
C124 C118 1.383 . S
C124 C123 1.379 . S
H125 C119 0.959 . S
H126 C119 0.961 . S
H127 C119 0.960 . S
H128 C120 0.930 . S
H129 C121 0.929 . S
H130 C138 0.929 . S
H131 C140 0.930 . S
H132 C142 0.930 . S
H133 C145 0.929 . S
H134 C148 0.930 1_554 S
H135 C150 0.960 . S
H136 C150 0.960 . S
H137 C150 0.960 . S
C138 H130 0.929 . S
C138 C139 1.377 1_554 S
C138 C140 1.384 . S
C139 C138 1.377 1_556 S
C139 C145 1.390 . S
C140 H131 0.930 . S
C140 C138 1.384 . S
C140 C141 1.372 1_554 S
C141 C140 1.372 1_556 S
C141 C142 1.400 . S
C141 C146 1.490 . S
C142 H132 0.930 . S
C142 C141 1.400 . S
C142 C145 1.386 . S
H143 C159 0.930 . S
H144 C160 0.931 . S
C145 H133 0.929 . S
C145 C139 1.390 . S
C145 C142 1.386 . S
C146 C141 1.490 . S
C146 C148 1.395 . S
C146 C149 1.403 . S
H147 C153 0.930 . S
C148 H134 0.930 1_556 S
C148 C146 1.395 . S
C148 C151 1.403 . S
C149 C146 1.403 . S
C149 C150 1.524 . S
C149 C153 1.400 . S
C150 H135 0.960 . S
C150 H136 0.960 . S
C150 H137 0.960 . S
C150 C149 1.524 . S
C151 C148 1.403 . S
C151 C152 1.392 . S
C151 C155 1.495 1_556 S
C152 C151 1.392 . S
C152 C153 1.385 . S
C152 C154 1.478 . S
C153 H147 0.930 . S
C153 C149 1.400 . S
C153 C152 1.385 . S
C154 C152 1.478 . S
C154 C156 1.381 . S
C154 C160 1.383 . S
C155 C151 1.495 1_554 S
C155 H161 0.959 . S
C155 H162 0.961 . S
C155 H163 0.960 . S
C156 C154 1.381 . S
C156 C157 1.394 . S
C156 H164 0.930 . S
C157 C156 1.394 . S
C157 C158 1.383 . S
C157 H165 0.929 . S
C158 C157 1.383 . S
C158 C159 1.377 . S
C159 H143 0.930 . S
C159 C158 1.377 . S
C159 C160 1.379 . S
C160 H144 0.931 . S
C160 C154 1.383 . S
C160 C159 1.379 . S
H161 C155 0.959 . S
H162 C155 0.961 . S
H163 C155 0.960 . S
H164 C156 0.930 . S
H165 C157 0.929 . S
H166 C174 0.929 . S
H167 C176 0.930 . S
H168 C178 0.930 . S
H169 C181 0.929 . S
H170 C184 0.930 . S
H171 C186 0.970 . S
H172 C186 0.960 1_556 S
H173 C186 0.960 . S
C174 H166 0.929 . S
C174 C175 1.377 . S
C174 C176 1.384 . S
C175 C174 1.377 . S
C175 C181 1.390 . S
C176 H167 0.930 . S
C176 C174 1.384 . S
C176 C177 1.372 . S
C177 C176 1.372 . S
C177 C178 1.400 . S
C177 C182 1.490 . S
C178 H168 0.930 . S
C178 C177 1.400 . S
C178 C181 1.386 . S
H179 C195 0.930 . S
H180 C196 0.931 . S
C181 H169 0.929 . S
C181 C175 1.390 . S
C181 C178 1.386 . S
C182 C177 1.490 . S
C182 C184 1.395 . S
C182 C185 1.403 . S
H183 C189 0.930 . S
C184 H170 0.930 . S
C184 C182 1.395 . S
C184 C187 1.403 . S
C185 C182 1.403 . S
C185 C186 1.524 . S
C185 C189 1.400 . S
C186 H171 0.970 . S
C186 H172 0.960 1_554 S
C186 H173 0.960 . S
C186 C185 1.524 . S
C187 C184 1.403 . S
C187 C188 1.392 . S
C187 C191 1.495 . S
C188 C187 1.392 . S
C188 C189 1.385 . S
C188 C190 1.478 . S
C189 H183 0.930 . S
C189 C185 1.400 . S
C189 C188 1.385 . S
C190 C188 1.478 . S
C190 C192 1.381 . S
C190 C196 1.383 . S
C191 C187 1.495 . S
C191 H197 0.959 . S
C191 H198 0.961 . S
C191 H199 0.960 . S
C192 C190 1.381 . S
C192 C193 1.394 . S
C192 H200 0.930 . S
C193 C192 1.394 . S
C193 C194 1.383 . S
C193 H201 0.929 . S
C194 C193 1.383 . S
C194 C195 1.377 . S
C195 H179 0.930 . S
C195 C194 1.377 . S
C195 C196 1.379 . S
C196 H180 0.931 . S
C196 C190 1.383 . S
C196 C195 1.379 . S
H197 C191 0.959 . S
H198 C191 0.961 . S
H199 C191 0.960 . S
H200 C192 0.930 . S
H201 C193 0.929 . S
H202 C210 0.929 . S
H203 C212 0.930 . S
H204 C214 0.930 1_554 S
H205 C217 0.929 . S
H206 C220 0.930 . S
H207 C222 0.960 . S
H208 C222 0.960 . S
H209 C222 0.960 . S
C210 H202 0.929 . S
C210 C211 1.377 . S
C210 C212 1.384 . S
C211 C210 1.377 . S
C211 C217 1.390 1_556 S
C212 H203 0.930 . S
C212 C210 1.384 . S
C212 C213 1.372 . S
C213 C212 1.372 . S
C213 C214 1.400 . S
C213 C218 1.490 . S
C214 H204 0.930 1_556 S
C214 C213 1.400 . S
C214 C217 1.386 1_556 S
H215 C231 0.930 . S
H216 C232 0.931 . S
C217 H205 0.929 . S
C217 C211 1.390 1_554 S
C217 C214 1.386 1_554 S
C218 C213 1.490 . S
C218 C220 1.395 . S
C218 C221 1.403 . S
H219 C225 0.930 . S
C220 H206 0.930 . S
C220 C218 1.395 . S
C220 C223 1.403 . S
C221 C218 1.403 . S
C221 C222 1.524 1_556 S
C221 C225 1.400 . S
C222 H207 0.960 . S
C222 H208 0.960 . S
C222 H209 0.960 . S
C222 C221 1.524 1_554 S
C223 C220 1.403 . S
C223 C224 1.392 . S
C223 C227 1.495 . S
C224 C223 1.392 . S
C224 C225 1.385 . S
C224 C226 1.478 . S
C225 H219 0.930 . S
C225 C221 1.400 . S
C225 C224 1.385 . S
C226 C224 1.478 . S
C226 C228 1.381 . S
C226 C232 1.383 . S
C227 C223 1.495 . S
C227 H233 0.959 . S
C227 H234 0.961 . S
C227 H235 0.960 . S
C228 C226 1.381 . S
C228 C229 1.394 . S
C228 H236 0.930 . S
C229 C228 1.394 . S
C229 C230 1.383 . S
C229 H237 0.929 . S
C230 C229 1.383 . S
C230 C231 1.377 . S
C231 H215 0.930 . S
C231 C230 1.377 . S
C231 C232 1.379 . S
C232 H216 0.931 . S
C232 C226 1.383 . S
C232 C231 1.379 . S
H233 C227 0.959 . S
H234 C227 0.961 . S
H235 C227 0.960 . S
H236 C228 0.930 . S
H237 C229 0.929 . S
H238 C246 0.929 . S
H239 C248 0.930 . S
H240 C250 0.930 . S
H241 C253 0.929 . S
H242 C256 0.930 . S
H243 C258 0.960 . S
H244 C258 0.960 . S
H245 C258 0.960 . S
C246 H238 0.929 . S
C246 C247 1.377 . S
C246 C248 1.384 . S
C247 C246 1.377 . S
C247 C253 1.390 . S
C248 H239 0.930 . S
C248 C246 1.384 . S
C248 C249 1.372 . S
C249 C248 1.372 . S
C249 C250 1.400 . S
C249 C254 1.490 . S
C250 H240 0.930 . S
C250 C249 1.400 . S
C250 C253 1.386 . S
H251 C267 0.930 . S
H252 C268 0.931 . S
C253 H241 0.929 . S
C253 C247 1.390 . S
C253 C250 1.386 . S
C254 C249 1.490 . S
C254 C256 1.395 . S
C254 C257 1.403 . S
H255 C261 0.930 . S
C256 H242 0.930 . S
C256 C254 1.395 . S
C256 C259 1.403 . S
C257 C254 1.403 . S
C257 C258 1.524 . S
C257 C261 1.400 . S
C258 H243 0.960 . S
C258 H244 0.960 . S
C258 H245 0.960 . S
C258 C257 1.524 . S
C259 C256 1.403 . S
C259 C260 1.392 . S
C259 C263 1.495 . S
C260 C259 1.392 . S
C260 C261 1.385 . S
C260 C262 1.478 . S
C261 H255 0.930 . S
C261 C257 1.400 . S
C261 C260 1.385 . S
C262 C260 1.478 . S
C262 C264 1.381 . S
C262 C268 1.383 . S
C263 C259 1.495 . S
C263 H269 0.959 . S
C263 H270 0.961 . S
C263 H271 0.960 . S
C264 C262 1.381 . S
C264 C265 1.394 . S
C264 H272 0.930 . S
C265 C264 1.394 . S
C265 C266 1.383 . S
C265 H273 0.929 . S
C266 C265 1.383 . S
C266 C267 1.377 . S
C267 H251 0.930 . S
C267 C266 1.377 . S
C267 C268 1.379 . S
C268 H252 0.931 . S
C268 C262 1.383 . S
C268 C267 1.379 . S
H269 C263 0.959 . S
H270 C263 0.961 . S
H271 C263 0.960 . S
H272 C264 0.930 . S
H273 C265 0.929 . S
H274 C282 0.929 . S
H275 C284 0.930 . S
H276 C286 0.930 . S
H277 C289 0.929 . S
H278 C292 0.930 . S
H279 C294 0.960 . S
H280 C294 0.960 . S
H281 C294 0.960 . S
C282 H274 0.929 . S
C282 C283 1.377 . S
C282 C284 1.384 . S
C283 C282 1.377 . S
C283 C289 1.390 . S
C284 H275 0.930 . S
C284 C282 1.384 . S
C284 C285 1.372 . S
C285 C284 1.372 . S
C285 C286 1.400 . S
C285 C290 1.490 . S
C286 H276 0.930 . S
C286 C285 1.400 . S
C286 C289 1.386 . S
H287 C303 0.930 1_455 S
H288 C304 0.931 . S
C289 H277 0.929 . S
C289 C283 1.390 . S
C289 C286 1.386 . S
C290 C285 1.490 . S
C290 C292 1.395 . S
C290 C293 1.403 . S
H291 C297 0.930 . S
C292 H278 0.930 . S
C292 C290 1.395 . S
C292 C295 1.403 . S
C293 C290 1.403 . S
C293 C294 1.524 . S
C293 C297 1.400 . S
C294 H279 0.960 . S
C294 H280 0.960 . S
C294 H281 0.960 . S
C294 C293 1.524 . S
C295 C292 1.403 . S
C295 C296 1.392 . S
C295 C299 1.495 . S
C296 C295 1.392 . S
C296 C297 1.385 . S
C296 C298 1.478 . S
C297 H291 0.930 . S
C297 C293 1.400 . S
C297 C296 1.385 . S
C298 C296 1.478 . S
C298 C300 1.381 . S
C298 C304 1.383 . S
C299 C295 1.495 . S
C299 H305 0.959 . S
C299 H306 0.961 . S
C299 H307 0.960 . S
C300 C298 1.381 . S
C300 C301 1.394 . S
C300 H308 0.930 . S
C301 C300 1.394 . S
C301 C302 1.383 . S
C301 H309 0.929 . S
C302 C301 1.383 . S
C302 C303 1.377 . S
C303 H287 0.930 1_655 S
C303 C302 1.377 . S
C303 C304 1.379 . S
C304 H288 0.931 . S
C304 C298 1.383 . S
C304 C303 1.379 . S
H305 C299 0.959 . S
H306 C299 0.961 . S
H307 C299 0.960 . S
H308 C300 0.930 . S
H309 C301 0.929 . S
H310 C318 0.929 . S
H311 C320 0.930 . S
H312 C322 0.930 . S
H313 C325 0.929 . S
H314 C328 0.930 . S
H315 C330 0.960 . S
H316 C330 0.960 . S
H317 C330 0.960 . S
C318 H310 0.929 . S
C318 C319 1.377 . S
C318 C320 1.384 . S
C319 C318 1.377 . S
C319 C325 1.390 . S
C320 H311 0.930 . S
C320 C318 1.384 . S
C320 C321 1.372 . S
C321 C320 1.372 . S
C321 C322 1.400 . S
C321 C326 1.490 . S
C322 H312 0.930 . S
C322 C321 1.400 . S
C322 C325 1.386 . S
H323 C339 0.930 . S
H324 C340 0.931 . S
C325 H313 0.929 . S
C325 C319 1.390 . S
C325 C322 1.386 . S
C326 C321 1.490 . S
C326 C328 1.395 . S
C326 C329 1.403 . S
H327 C333 0.930 . S
C328 H314 0.930 . S
C328 C326 1.395 . S
C328 C331 1.403 . S
C329 C326 1.403 . S
C329 C330 1.524 . S
C329 C333 1.400 . S
C330 H315 0.960 . S
C330 H316 0.960 . S
C330 H317 0.960 . S
C330 C329 1.524 . S
C331 C328 1.403 . S
C331 C332 1.392 . S
C331 C335 1.495 . S
C332 C331 1.392 . S
C332 C333 1.385 . S
C332 C334 1.478 . S
C333 H327 0.930 . S
C333 C329 1.400 . S
C333 C332 1.385 . S
C334 C332 1.478 . S
C334 C336 1.381 . S
C334 C340 1.383 . S
C335 C331 1.495 . S
C335 H341 0.959 . S
C335 H342 0.961 . S
C335 H343 0.960 . S
C336 C334 1.381 . S
C336 C337 1.394 . S
C336 H344 0.930 . S
C337 C336 1.394 . S
C337 C338 1.383 . S
C337 H345 0.929 . S
C338 C337 1.383 . S
C338 C339 1.377 . S
C339 H323 0.930 . S
C339 C338 1.377 . S
C339 C340 1.379 . S
C340 H324 0.931 . S
C340 C334 1.383 . S
C340 C339 1.379 . S
H341 C335 0.959 . S
H342 C335 0.961 . S
H343 C335 0.960 . S
H344 C336 0.930 . S
H345 C337 0.929 . S
H346 C354 0.929 . S
H347 C356 0.930 . S
H348 C358 0.930 . S
H349 C361 0.929 . S
H350 C364 0.930 . S
H351 C366 0.960 . S
H352 C366 0.960 . S
H353 C366 0.960 . S
C354 H346 0.929 . S
C354 C355 1.377 . S
C354 C356 1.384 . S
C355 C354 1.377 . S
C355 C361 1.390 . S
C356 H347 0.930 . S
C356 C354 1.384 . S
C356 C357 1.372 . S
C357 C356 1.372 . S
C357 C358 1.400 . S
C357 C362 1.490 . S
C358 H348 0.930 . S
C358 C357 1.400 . S
C358 C361 1.386 . S
H359 C375 0.917 1_545 S
H360 C376 0.931 . S
C361 H349 0.929 . S
C361 C355 1.390 . S
C361 C358 1.386 . S
C362 C357 1.490 . S
C362 C364 1.395 . S
C362 C365 1.403 . S
H363 C369 0.930 . S
C364 H350 0.930 . S
C364 C362 1.395 . S
C364 C367 1.403 . S
C365 C362 1.403 . S
C365 C366 1.524 . S
C365 C369 1.400 . S
C366 H351 0.960 . S
C366 H352 0.960 . S
C366 H353 0.960 . S
C366 C365 1.524 . S
C367 C364 1.403 . S
C367 C368 1.392 . S
C367 C371 1.495 . S
C368 C367 1.392 . S
C368 C369 1.385 . S
C368 C370 1.478 . S
C369 H363 0.930 . S
C369 C365 1.400 . S
C369 C368 1.385 . S
C370 C368 1.478 . S
C370 C372 1.381 . S
C370 C376 1.383 . S
C371 C367 1.495 . S
C371 H377 0.959 . S
C371 H378 0.961 . S
C371 H379 0.960 . S
C372 C370 1.381 . S
C372 C373 1.394 . S
C372 H380 0.930 . S
C373 C372 1.394 . S
C373 C374 1.383 . S
C373 H381 0.929 . S
C374 C373 1.383 . S
C374 C375 1.377 . S
C375 H359 0.917 1_565 S
C375 C374 1.377 . S
C375 C376 1.379 . S
C376 H360 0.931 . S
C376 C370 1.383 . S
C376 C375 1.379 . S
H377 C371 0.959 . S
H378 C371 0.961 . S
H379 C371 0.960 . S
H380 C372 0.930 . S
H381 C373 0.929 . S
H382 C390 0.929 . S
H383 C392 0.930 . S
H384 C394 0.930 . S
H385 C397 0.930 . S
H386 C400 0.930 . S
H387 C402 0.960 . S
H388 C402 0.960 . S
H389 C402 0.960 . S
C390 H382 0.929 . S
C390 C391 1.377 . S
C390 C392 1.384 . S
C391 C390 1.377 . S
C391 C397 1.388 1_565 S
C392 H383 0.930 . S
C392 C390 1.384 . S
C392 C393 1.372 . S
C393 C392 1.372 . S
C393 C394 1.400 1_565 S
C393 C398 1.490 . S
C394 H384 0.930 . S
C394 C393 1.400 1_545 S
C394 C397 1.386 . S
H395 C411 0.930 . S
H396 C412 0.931 . S
C397 H385 0.930 . S
C397 C391 1.388 1_545 S
C397 C394 1.386 . S
C398 C393 1.490 . S
C398 C400 1.395 . S
C398 C401 1.403 1_565 S
H399 C405 0.930 . S
C400 H386 0.930 . S
C400 C398 1.395 . S
C400 C403 1.403 . S
C401 C398 1.403 1_545 S
C401 C402 1.524 . S
C401 C405 1.400 . S
C402 H387 0.960 . S
C402 H388 0.960 . S
C402 H389 0.960 . S
C402 C401 1.524 . S
C403 C400 1.403 . S
C403 C404 1.392 . S
C403 C407 1.495 . S
C404 C403 1.392 . S
C404 C405 1.385 1_565 S
C404 C406 1.478 . S
C405 H399 0.930 . S
C405 C401 1.400 . S
C405 C404 1.385 1_545 S
C406 C404 1.478 . S
C406 C408 1.381 . S
C406 C412 1.383 1_565 S
C407 C403 1.495 . S
C407 H413 0.959 . S
C407 H414 0.961 . S
C407 H415 0.960 . S
C408 C406 1.381 . S
C408 C409 1.394 . S
C408 H416 0.930 . S
C409 C408 1.394 . S
C409 C410 1.383 1_565 S
C409 H417 0.929 . S
C410 C409 1.383 1_545 S
C410 C411 1.377 . S
C411 H395 0.930 . S
C411 C410 1.377 . S
C411 C412 1.379 . S
C412 H396 0.931 . S
C412 C406 1.383 1_545 S
C412 C411 1.379 . S
H413 C407 0.959 . S
H414 C407 0.961 . S
H415 C407 0.960 . S
H416 C408 0.930 . S
H417 C409 0.929 . S
H418 C426 0.929 1_655 S
H419 C428 0.930 1_655 S
H420 C430 0.930 . S
H421 C433 0.929 . S
H422 C436 0.930 . S
H423 C438 0.960 . S
H424 C438 0.960 . S
H425 C438 0.960 . S
C426 H418 0.929 1_455 S
C426 C427 1.377 . S
C426 C428 1.384 . S
C427 C426 1.377 . S
C427 C433 1.390 1_565 S
C428 H419 0.930 1_455 S
C428 C426 1.384 . S
C428 C429 1.372 . S
C429 C428 1.372 . S
C429 C430 1.400 1_565 S
C429 C434 1.490 1_565 S
C430 H420 0.930 . S
C430 C429 1.400 1_545 S
C430 C433 1.386 . S
H431 C447 0.930 . S
H432 C448 0.931 . S
C433 H421 0.929 . S
C433 C427 1.390 1_545 S
C433 C430 1.386 . S
C434 C429 1.490 1_545 S
C434 C436 1.395 1_455 S
C434 C437 1.403 1_545 S
H435 C441 0.930 . S
C436 H422 0.930 . S
C436 C434 1.395 1_655 S
C436 C439 1.403 . S
C437 C434 1.403 1_565 S
C437 C438 1.524 . S
C437 C441 1.400 . S
C438 H423 0.960 . S
C438 H424 0.960 . S
C438 H425 0.960 . S
C438 C437 1.524 . S
C439 C436 1.403 . S
C439 C440 1.392 1_655 S
C439 C443 1.495 . S
C440 C439 1.392 1_455 S
C440 C441 1.385 1_545 S
C440 C442 1.478 . S
C441 H435 0.930 . S
C441 C437 1.400 . S
C441 C440 1.385 1_565 S
C442 C440 1.478 . S
C442 C444 1.381 1_445 S
C442 C448 1.383 . S
C443 C439 1.495 . S
C443 H449 0.959 . S
C443 H450 0.961 . S
C443 H451 0.960 . S
C444 C442 1.381 1_665 S
C444 C445 1.394 . S
C444 H452 0.930 . S
C445 C444 1.394 . S
C445 C446 1.383 1_665 S
C445 H453 0.929 . S
C446 C445 1.383 1_445 S
C446 C447 1.377 . S
C447 H431 0.930 . S
C447 C446 1.377 . S
C447 C448 1.379 . S
C448 H432 0.931 . S
C448 C442 1.383 . S
C448 C447 1.379 . S
H449 C443 0.959 . S
H450 C443 0.961 . S
H451 C443 0.960 . S
H452 C444 0.930 . S
H453 C445 0.929 . S
H454 C462 0.929 . S
H455 C464 0.930 . S
H456 C466 0.930 . S
H457 C469 0.929 . S
H458 C472 0.930 . S
H459 C474 0.960 . S
H460 C474 0.960 . S
H461 C474 0.960 . S
C462 H454 0.929 . S
C462 C463 1.377 . S
C462 C464 1.384 . S
C463 C462 1.377 . S
C463 C469 1.390 . S
C464 H455 0.930 . S
C464 C462 1.384 . S
C464 C465 1.372 . S
C465 C464 1.372 . S
C465 C466 1.400 . S
C465 C470 1.490 . S
C466 H456 0.930 . S
C466 C465 1.400 . S
C466 C469 1.386 . S
H467 C483 0.930 . S
H468 C484 0.931 . S
C469 H457 0.929 . S
C469 C463 1.390 . S
C469 C466 1.386 . S
C470 C465 1.490 . S
C470 C472 1.395 . S
C470 C473 1.403 . S
H471 C477 0.930 . S
C472 H458 0.930 . S
C472 C470 1.395 . S
C472 C475 1.403 . S
C473 C470 1.403 . S
C473 C474 1.524 . S
C473 C477 1.400 . S
C474 H459 0.960 . S
C474 H460 0.960 . S
C474 H461 0.960 . S
C474 C473 1.524 . S
C475 C472 1.403 . S
C475 C476 1.392 . S
C475 C479 1.495 . S
C476 C475 1.392 . S
C476 C477 1.385 . S
C476 C478 1.478 . S
C477 H471 0.930 . S
C477 C473 1.400 . S
C477 C476 1.385 . S
C478 C476 1.478 . S
C478 C480 1.381 . S
C478 C484 1.383 . S
C479 C475 1.495 . S
C479 H485 0.959 . S
C479 H486 0.961 . S
C479 H487 0.960 . S
C480 C478 1.381 . S
C480 C481 1.394 . S
C480 H488 0.930 . S
C481 C480 1.394 . S
C481 C482 1.383 . S
C481 H489 0.929 . S
C482 C481 1.383 . S
C482 C483 1.377 . S
C483 H467 0.930 . S
C483 C482 1.377 . S
C483 C484 1.379 . S
C484 H468 0.931 . S
C484 C478 1.383 . S
C484 C483 1.379 . S
H485 C479 0.959 . S
H486 C479 0.961 . S
H487 C479 0.960 . S
H488 C480 0.930 . S
H489 C481 0.929 . S
H490 C498 0.929 . S
H491 C500 0.930 . S
H492 C502 0.930 . S
H493 C505 0.929 . S
H494 C508 0.930 . S
H495 C510 0.960 . S
H496 C510 0.960 . S
H497 C510 0.960 . S
C498 H490 0.929 . S
C498 C499 1.377 . S
C498 C500 1.384 . S
C499 C498 1.377 . S
C499 C505 1.390 . S
C500 H491 0.930 . S
C500 C498 1.384 . S
C500 C501 1.372 . S
C501 C500 1.372 . S
C501 C502 1.400 . S
C501 C506 1.490 . S
C502 H492 0.930 . S
C502 C501 1.400 . S
C502 C505 1.386 . S
H503 C519 0.930 . S
H504 C520 0.931 . S
C505 H493 0.929 . S
C505 C499 1.390 . S
C505 C502 1.386 . S
C506 C501 1.490 . S
C506 C508 1.395 . S
C506 C509 1.403 . S
H507 C513 0.930 . S
C508 H494 0.930 . S
C508 C506 1.395 . S
C508 C511 1.403 . S
C509 C506 1.403 . S
C509 C510 1.524 . S
C509 C513 1.400 . S
C510 H495 0.960 . S
C510 H496 0.960 . S
C510 H497 0.960 . S
C510 C509 1.524 . S
C511 C508 1.403 . S
C511 C512 1.392 . S
C511 C515 1.495 . S
C512 C511 1.392 . S
C512 C513 1.385 . S
C512 C514 1.478 . S
C513 H507 0.930 . S
C513 C509 1.400 . S
C513 C512 1.385 . S
C514 C512 1.478 . S
C514 C516 1.381 . S
C514 C520 1.383 . S
C515 C511 1.495 . S
C515 H521 0.959 . S
C515 H522 0.961 . S
C515 H523 0.960 . S
C516 C514 1.381 . S
C516 C517 1.394 . S
C516 H524 0.930 . S
C517 C516 1.394 . S
C517 C518 1.383 . S
C517 H525 0.929 . S
C518 C517 1.383 . S
C518 C519 1.377 . S
C519 H503 0.930 . S
C519 C518 1.377 . S
C519 C520 1.379 . S
C520 H504 0.931 . S
C520 C514 1.383 . S
C520 C519 1.379 . S
H521 C515 0.959 . S
H522 C515 0.961 . S
H523 C515 0.960 . S
H524 C516 0.930 . S
H525 C517 0.929 . S
C122 N83 1.141 . S
C103 C3 1.045 . S
C139 C4 1.428 1_556 S
C158 N70 1.515 . S
C175 C19 1.577 . S
C194 N82 1.705 . S
C211 C7 1.163 . S
C230 N69 1.307 . S
C247 C37 1.030 . S
C266 N57 1.159 . S
C283 C28 1.425 . S
C302 N44 1.503 1_655 S
C338 N56 1.710 . S
C319 C41 1.581 . S
C374 N43 1.304 1_565 S
C355 C25 1.146 . S
C391 C20 1.345 . S
C410 N47 1.495 . S
C427 C16 1.357 . S
C446 N60 1.471 . S
C482 N73 1.473 . S
C463 C40 1.329 . S
C499 C24 1.345 . S
C518 N86 1.490 . S
