# Generated by pormake.
# Topology tsx, (6,3)-cn, num edge types: 1
# Building blocks:
#     Node 0, Type 0, BuildingBlock: CIFDUS_clean_sbu_1, # of connection points: 6
#     Node 1, Type 0, BuildingBlock: CIFDUS_clean_sbu_1, # of connection points: 6
#     Node 2, Type 1, BuildingBlock: VETTIZ_charged_linker_0, # of connection points: 3
#     Node 3, Type 1, BuildingBlock: VETTIZ_charged_linker_0, # of connection points: 3
#     Node 4, Type 1, BuildingBlock: VETTIZ_charged_linker_0, # of connection points: 3
#     Node 5, Type 1, BuildingBlock: VETTIZ_charged_linker_0, # of connection points: 3
#     Edge 6, Type (0, 1), BuildingBlock: UVAHIK_clean_linker_0, # of connection points: 2
#     Edge 7, Type (0, 1), BuildingBlock: UVAHIK_clean_linker_0, # of connection points: 2
#     Edge 8, Type (0, 1), BuildingBlock: UVAHIK_clean_linker_0, # of connection points: 2
#     Edge 9, Type (0, 1), BuildingBlock: UVAHIK_clean_linker_0, # of connection points: 2
#     Edge 10, Type (0, 1), BuildingBlock: UVAHIK_clean_linker_0, # of connection points: 2
#     Edge 11, Type (0, 1), BuildingBlock: UVAHIK_clean_linker_0, # of connection points: 2
#     Edge 12, Type (0, 1), BuildingBlock: UVAHIK_clean_linker_0, # of connection points: 2
#     Edge 13, Type (0, 1), BuildingBlock: UVAHIK_clean_linker_0, # of connection points: 2
#     Edge 14, Type (0, 1), BuildingBlock: UVAHIK_clean_linker_0, # of connection points: 2
#     Edge 15, Type (0, 1), BuildingBlock: UVAHIK_clean_linker_0, # of connection points: 2
#     Edge 16, Type (0, 1), BuildingBlock: UVAHIK_clean_linker_0, # of connection points: 2
#     Edge 17, Type (0, 1), BuildingBlock: UVAHIK_clean_linker_0, # of connection points: 2
# Relax obj value: 0.132
# Max RMSD: 0.158
# Mean RMSD: 0.122
data_MOF--net-tsx--node1-CIFDUS_clean_sbu_1--node2-VETTIZ_charged_linker_0--edge1-UVAHIK_clean_linker_0
_symmetry_space_group_name_H-M    P1
_symmetry_Int_Tables_number       1
_symmetry_cell_setting            triclinic
loop_
_symmetry_equiv_pos_as_xyz
'x, y, z'
_cell_length_a     26.977489
_cell_length_b     32.993605
_cell_length_c     55.722385
_cell_angle_alpha  96.97553
_cell_angle_beta   91.354355
_cell_angle_gamma 91.017547
loop_
_atom_site_label
_atom_site_type_symbol
_atom_site_fract_x
_atom_site_fract_y
_atom_site_fract_z
_atom_type_partial_charge
O0 O 0.01706 0.1038 0.00817 0.0
Mn1 Mn 0.05974 0.05087 0.0083 0.0
O2 O 0.94498 0.0848 0.98852 0.0
Mn3 Mn 0.9687 0.03655 0.97309 0.0
O4 O 0.10287 0.99846 0.00885 0.0
O5 O 0.11778 0.08715 0.02053 0.0
Mn6 Mn 0.14719 0.0686 0.04539 0.0
O7 O 0.037 0.04585 0.0436 0.0
O8 O 0.16831 0.01691 0.03391 0.0
O9 O 0.08204 0.05495 0.9729 0.0
O10 O 0.01351 0.04173 0.94892 0.0
O11 O 0.18285 0.1148 0.03996 0.0
O12 O 0.09973 0.07046 0.06893 0.0
C13 C 0.97113 0.98405 0.99219 0.0
C14 C 0.97242 0.1111 0.00146 0.0
C15 C 0.14425 0.99057 0.0192 0.0
C16 C 0.15047 0.11647 0.02264 0.0
C17 C 0.05546 0.05675 0.06495 0.0
C18 C 0.05972 0.05004 0.95206 0.0
O19 O 1.00197 0.01462 0.99566 0.0
O20 O 0.93744 0.98708 0.97564 0.0
O21 O 0.5189 0.60388 0.50906 0.0
Mn22 Mn 0.56228 0.55174 0.51032 0.0
O23 O 0.45145 0.58438 0.48556 0.0
Mn24 Mn 0.47672 0.53532 0.47197 0.0
O25 O 0.60583 0.49993 0.51189 0.0
O26 O 0.61875 0.58841 0.52423 0.0
Mn27 Mn 0.64471 0.57012 0.55001 0.0
O28 O 0.53548 0.54591 0.54484 0.0
O29 O 0.66716 0.51839 0.5394 0.0
O30 O 0.58891 0.55684 0.47568 0.0
O31 O 0.52514 0.53865 0.44936 0.0
O32 O 0.68169 0.61608 0.54545 0.0
O33 O 0.59429 0.57202 0.572 0.0
C34 C 0.47484 0.48461 0.49252 0.0
C35 C 0.47594 0.61074 0.5 0.0
C36 C 0.64554 0.49216 0.52367 0.0
C37 C 0.65188 0.6174 0.52706 0.0
C38 C 0.5509 0.55731 0.56668 0.0
C39 C 0.57024 0.54942 0.4541 0.0
O40 O 0.50611 0.51489 0.49619 0.0
O41 O 0.44404 0.4865 0.47456 0.0
C42 C 0.12554 0.94093 0.45511 0.0
C43 C 0.15914 0.91562 0.44158 0.0
C44 C 0.15758 0.9142 0.41613 0.0
C45 C 0.0885 0.9601 0.41801 0.0
C46 C 0.09084 0.96302 0.44298 0.0
C47 C 0.05309 0.99213 0.45435 0.0
H48 H 0.86263 0.11907 0.4383 0.0
C49 C 0.04767 0.98563 0.41081 0.0
C50 C 0.02661 0.00461 0.43205 0.0
H51 H 0.93209 0.09775 0.50618 0.0
H52 H 0.98662 0.04853 0.48475 0.0
H53 H 0.95749 0.12791 0.41188 0.0
H54 H 0.85971 0.02434 0.41359 0.0
H55 H 0.87755 0.02364 0.38344 0.0
H56 H 0.84465 0.06686 0.39773 0.0
H57 H 0.90043 0.12198 0.39453 0.0
H58 H 0.95772 0.10163 0.38263 0.0
C59 C 0.08139 0.02858 0.46903 0.0
C60 C 0.0181 0.96855 0.46961 0.0
C61 C 1.00722 0.99172 0.3214 0.0
C62 C 0.97199 0.01374 0.3095 0.0
C63 C 0.93757 0.0375 0.32333 0.0
C64 C 0.9388 0.04018 0.34857 0.0
C65 C 0.97509 0.01911 0.3603 0.0
C66 C 1.00823 0.99505 0.34678 0.0
C67 C 0.04459 0.97547 0.36256 0.0
C68 C 0.02799 0.99217 0.38772 0.0
C69 C 0.98731 0.01758 0.38616 0.0
C70 C 0.09757 0.99083 0.3575 0.0
C71 C 0.03662 0.92859 0.35743 0.0
C72 C 0.88877 0.10323 0.44871 0.0
C73 C 0.89256 0.11192 0.47396 0.0
C74 C 0.92843 0.09156 0.48667 0.0
C75 C 0.96016 0.06323 0.47421 0.0
C76 C 0.95652 0.05579 0.44879 0.0
C77 C 0.92096 0.07563 0.43661 0.0
C78 C 0.92325 0.06598 0.40969 0.0
C79 C 0.96623 0.03708 0.40749 0.0
C80 C 0.98565 0.03083 0.43037 0.0
C81 C 0.93496 0.10627 0.39892 0.0
C82 C 0.87374 0.04432 0.40041 0.0
H83 H 0.12324 0.9331 0.385 0.0
H84 H 0.12559 0.94309 0.47466 0.0
H85 H 1.00935 0.93742 0.46027 0.0
H86 H 0.98198 0.9833 0.47234 0.0
H87 H 0.03534 0.9652 0.48755 0.0
H88 H 0.11505 0.03703 0.45944 0.0
H89 H 0.0936 0.02082 0.48706 0.0
H90 H 0.05947 0.05662 0.47143 0.0
H91 H 0.0344 0.97345 0.31125 0.0
H92 H 0.90971 0.05429 0.31455 0.0
H93 H 0.91177 0.05909 0.35794 0.0
H94 H 0.09699 0.02227 0.35221 0.0
H95 H 0.1145 0.97077 0.34257 0.0
H96 H 0.12257 0.99335 0.37364 0.0
H97 H 0.99641 0.92054 0.35515 0.0
H98 H 0.04987 0.9122 0.37239 0.0
H99 H 0.05503 0.91615 0.34057 0.0
H100 H 0.18387 0.89635 0.40515 0.0
C101 C 0.12245 0.93593 0.40436 0.0
C102 C 0.13271 0.15945 0.56028 0.0
C103 C 0.16535 0.18692 0.57459 0.0
C104 C 0.17069 0.18392 0.59948 0.0
C105 C 0.11211 0.1272 0.59583 0.0
C106 C 0.10608 0.12995 0.57138 0.0
C107 C 0.06849 0.09863 0.55961 0.0
H108 H 0.91498 0.93602 0.57131 0.0
C109 C 0.08075 0.09319 0.60199 0.0
C110 C 0.05482 0.07605 0.58096 0.0
H111 H 0.93302 0.99739 0.50797 0.0
H112 H 0.99363 0.04463 0.52979 0.0
H113 H 0.03053 0.93785 0.58829 0.0
H114 H 0.91044 0.01851 0.60856 0.0
H115 H 0.94377 0.01045 0.635 0.0
H116 H 0.91328 0.96776 0.617 0.0
H117 H 0.98095 0.92357 0.6067 0.0
H118 H 0.03503 0.9517 0.61974 0.0
C119 C 0.0945 0.07055 0.53972 0.0
C120 C 0.02385 0.12151 0.55012 0.0
C121 C 0.08621 0.06014 0.68838 0.0
C122 C 0.064 0.02956 0.70017 0.0
C123 C 0.03343 0.99958 0.68661 0.0
C124 C 0.02427 1.00078 0.66175 0.0
C125 C 0.04619 0.03216 0.65031 0.0
C126 C 0.07702 0.06075 0.66366 0.0
C127 C 0.0987 0.09108 0.64868 0.0
C128 C 0.07516 0.07659 0.6241 0.0
C129 C 0.04416 0.04234 0.62508 0.0
C130 C 0.15591 0.08623 0.64895 0.0
C131 C 0.08076 0.13409 0.65885 0.0
C132 C 0.93223 0.95963 0.56221 0.0
C133 C 0.92015 0.96305 0.53796 0.0
C134 C 0.94262 0.99421 0.5266 0.0
C135 C 0.97744 0.02154 0.53932 0.0
C136 C 0.98929 0.01778 0.5637 0.0
C137 C 0.96642 0.98731 0.57474 0.0
C138 C 0.98175 0.9886 0.60092 0.0
C139 C 0.01745 0.02492 0.60394 0.0
C140 C 0.02228 0.04182 0.58202 0.0
C141 C 1.0082 0.94832 0.60432 0.0
C142 C 0.93507 0.99647 0.61634 0.0
H143 H 0.1506 0.15403 0.62913 0.0
H144 H 0.12768 0.16124 0.5411 0.0
H145 H 0.01757 0.15052 0.56196 0.0
H146 H 0.98857 0.10402 0.55017 0.0
H147 H 0.03013 0.12925 0.53156 0.0
H148 H 0.13107 0.06107 0.54654 0.0
H149 H 0.10106 0.08663 0.52364 0.0
H150 H 0.07335 0.04203 0.53382 0.0
H151 H 0.11071 0.08312 0.69818 0.0
H152 H 0.01588 0.97569 0.69535 0.0
H153 H 1.0003 0.97739 0.65243 0.0
H154 H 0.1664 0.05462 0.65172 0.0
H155 H 0.17415 0.10731 0.66373 0.0
H156 H 0.17263 0.09108 0.63157 0.0
H157 H 0.04249 0.13239 0.66576 0.0
H158 H 0.0782 0.1553 0.645 0.0
H159 H 0.1052 0.14801 0.67407 0.0
H160 H 0.19607 0.20419 0.6108 0.0
C161 C 0.1444 0.15443 0.61011 0.0
C162 C 0.62234 0.4391 0.95532 0.0
C163 C 0.6565 0.41428 0.94184 0.0
C164 C 0.65489 0.41271 0.91639 0.0
C165 C 0.58473 0.4575 0.91814 0.0
C166 C 0.58704 0.46054 0.94312 0.0
C167 C 0.5486 0.48907 0.95442 0.0
H168 H 0.35561 0.6134 0.93783 0.0
C169 C 0.54324 0.48232 0.91088 0.0
C170 C 0.5217 0.501 0.93208 0.0
H171 H 0.4256 0.5939 0.00591 0.0
H172 H 0.48039 0.54452 0.9848 0.0
H173 H 0.45037 0.62286 0.9115 0.0
H174 H 0.35384 0.51867 0.91358 0.0
H175 H 0.37222 0.51718 0.88348 0.0
H176 H 0.3385 0.56044 0.89715 0.0
H177 H 0.39311 0.61639 0.89433 0.0
H178 H 0.45049 0.59653 0.88226 0.0
C179 C 0.57611 0.52597 0.96901 0.0
C180 C 0.51426 0.46507 0.96975 0.0
C181 C 0.50275 0.48786 0.8214 0.0
C182 C 0.46678 0.50913 0.80946 0.0
C183 C 0.43159 0.53206 0.82325 0.0
C184 C 0.43279 0.53473 0.84848 0.0
C185 C 0.46979 0.51447 0.86026 0.0
C186 C 0.50366 0.49114 0.84678 0.0
C187 C 0.54053 0.4722 0.86262 0.0
C188 C 0.52339 0.48849 0.88775 0.0
C189 C 0.48204 0.51315 0.88613 0.0
C190 C 0.59309 0.48858 0.85768 0.0
C191 C 0.53387 0.4252 0.85743 0.0
C192 C 0.38196 0.59793 0.94834 0.0
C193 C 0.38584 0.60717 0.97355 0.0
C194 C 0.4219 0.58726 0.98642 0.0
C195 C 0.45385 0.55891 0.97412 0.0
C196 C 0.4504 0.55117 0.94869 0.0
C197 C 0.4145 0.57049 0.93639 0.0
C198 C 0.41697 0.56067 0.9095 0.0
C199 C 0.4605 0.53234 0.90742 0.0
C200 C 0.48006 0.5265 0.93034 0.0
C201 C 0.42794 0.601 0.89863 0.0
C202 C 0.36785 0.53832 0.90023 0.0
H203 H 0.62002 0.43094 0.8852 0.0
H204 H 0.62243 0.44134 0.97486 0.0
H205 H 0.50609 0.43382 0.96044 0.0
H206 H 0.47784 0.47933 0.97252 0.0
H207 H 0.53177 0.462 0.98767 0.0
H208 H 0.60901 0.53536 0.95918 0.0
H209 H 0.58939 0.51815 0.98685 0.0
H210 H 0.55325 0.55344 0.9718 0.0
H211 H 0.53049 0.47019 0.81128 0.0
H212 H 0.40312 0.54821 0.81446 0.0
H213 H 0.40515 0.55303 0.85782 0.0
H214 H 0.59166 0.5202 0.85269 0.0
H215 H 0.61039 0.46919 0.84258 0.0
H216 H 0.61818 0.49107 0.87378 0.0
H217 H 0.49392 0.4164 0.85484 0.0
H218 H 0.5471 0.40905 0.8725 0.0
H219 H 0.55307 0.41312 0.84072 0.0
H220 H 0.68155 0.3952 0.90545 0.0
C221 C 0.61922 0.43384 0.90455 0.0
C222 C 0.65429 0.64122 0.05528 0.0
C223 C 0.6928 0.66506 0.06787 0.0
C224 C 0.69715 0.66657 0.09315 0.0
C225 C 0.62707 0.62002 0.09321 0.0
C226 C 0.62203 0.61853 0.06836 0.0
C227 C 0.58028 0.5896 0.05836 0.0
H228 H 0.4012 0.45208 0.08163 0.0
C229 C 0.58937 0.59257 0.10159 0.0
C230 C 0.56144 0.57442 0.08138 0.0
H231 H 0.43869 0.48608 0.01171 0.0
H232 H 0.49985 0.53533 0.03085 0.0
H233 H 0.50821 0.44449 0.09998 0.0
H234 H 0.40702 0.54397 0.11096 0.0
H235 H 0.43599 0.53882 0.13903 0.0
H236 H 0.39895 0.49702 0.1238 0.0
H237 H 0.45894 0.44465 0.12104 0.0
H238 H 0.51905 0.46738 0.12974 0.0
C239 C 0.60277 0.5549 0.04111 0.0
C240 C 0.54084 0.61423 0.04611 0.0
C241 C 0.58751 0.57613 0.19096 0.0
C242 C 0.56025 0.55063 0.20443 0.0
C243 C 0.52281 0.52466 0.19262 0.0
C244 C 0.51295 0.52395 0.16773 0.0
C245 C 0.54124 0.54912 0.15438 0.0
C246 C 0.57768 0.57464 0.16609 0.0
C247 C 0.60549 0.59799 0.14903 0.0
C248 C 0.57966 0.58244 0.12508 0.0
C249 C 0.54197 0.55408 0.1283 0.0
C250 C 0.66071 0.58537 0.1498 0.0
C251 C 0.59665 0.64412 0.15638 0.0
C252 C 0.42278 0.46971 0.07026 0.0
C253 C 0.41574 0.4643 0.045 0.0
C254 C 0.44362 0.48924 0.03117 0.0
C255 C 0.47937 0.51762 0.04233 0.0
C256 C 0.48735 0.52111 0.0676 0.0
C257 C 0.45861 0.49758 0.08104 0.0
C258 C 0.47189 0.50417 0.10752 0.0
C259 C 0.51346 0.53562 0.10803 0.0
C260 C 0.52273 0.5457 0.08463 0.0
C261 C 0.4902 0.46317 0.1152 0.0
C262 C 0.42619 0.52167 0.12124 0.0
H263 H 0.67017 0.6472 0.12504 0.0
H264 H 0.65013 0.63968 0.03581 0.0
H265 H 0.53537 0.6443 0.05699 0.0
H266 H 0.50399 0.59896 0.04457 0.0
H267 H 0.5524 0.62001 0.0278 0.0
H268 H 0.63688 0.5435 0.04942 0.0
H269 H 0.61309 0.56598 0.02382 0.0
H270 H 0.57771 0.52809 0.03705 0.0
H271 H 0.61703 0.59595 0.19944 0.0
H272 H 0.50107 0.50494 0.20271 0.0
H273 H 0.48402 0.50351 0.15981 0.0
H274 H 0.66462 0.55415 0.15516 0.0
H275 H 0.683 0.60663 0.163 0.0
H276 H 0.67804 0.58354 0.13192 0.0
H277 H 0.5582 0.64923 0.16274 0.0
H278 H 0.59999 0.66246 0.14115 0.0
H279 H 0.62252 0.65688 0.17131 0.0
H280 H 0.72587 0.6853 0.10321 0.0
C281 C 0.66453 0.64447 0.10583 0.0
C282 C 0.19518 0.15596 0.99492 0.0
C283 C 0.15229 0.15059 0.00802 0.0
C284 C 0.2096 0.1948 0.98973 0.0
C285 C 0.23654 0.28219 0.98178 0.0
H286 H 0.23469 0.34865 0.0441 0.0
C287 C 0.34887 0.43747 0.01394 0.0
C288 C 0.38056 0.43164 0.03366 0.0
C289 C 0.31301 0.40747 0.00519 0.0
C290 C 0.23474 0.33087 0.02642 0.0
H291 H 0.08873 0.1806 0.02435 0.0
H292 H 0.11305 0.24858 0.01483 0.0
H293 H 0.18072 0.28843 0.0364 0.0
H294 H 0.4018 0.38811 0.05816 0.0
H295 H 0.33859 0.33719 0.04355 0.0
H296 H 0.29325 0.32399 0.97263 0.0
C297 C 0.13575 0.22286 0.00857 0.0
C298 C 0.20352 0.29646 0.02188 0.0
C299 C 0.12128 0.18385 0.01368 0.0
C300 C 0.37704 0.39443 0.04355 0.0
C301 C 0.34104 0.36504 0.0351 0.0
C302 C 0.26755 0.31706 0.98629 0.0
C303 C 0.1817 0.22914 0.9979 0.0
C304 C 0.20539 0.27068 -0.00012 0.0
C305 C 0.30812 0.3715 0.01618 0.0
C306 C 0.2682 0.34069 0.00901 0.0
H307 H 0.22019 0.13085 0.99086 0.0
H308 H 0.2453 0.19833 0.98165 0.0
H309 H 0.23871 0.26314 0.9646 0.0
H310 H 0.3506 0.46568 0.00586 0.0
H311 H 0.28807 0.41293 0.99045 0.0
C312 C 0.13902 0.91586 0.00202 0.0
C313 C 0.16565 0.94919 0.01465 0.0
C314 C 0.15982 0.87687 -0.00109 0.0
C315 C 0.28159 0.82643 -9e-05 0.0
H316 H 0.2049 0.72918 0.00887 0.0
C317 C 0.37752 0.6731 0.00053 0.0
C318 C 0.35514 0.64041 0.9854 0.0
C319 C 0.35141 0.70896 0.00689 0.0
C320 C 0.22675 0.75607 0.00623 0.0
H321 H 0.23522 0.9673 0.03383 0.0
H322 H 0.27057 0.90021 0.02862 0.0
H323 H 0.1647 0.79554 0.01231 0.0
H324 H 0.28659 0.61809 0.96694 0.0
H325 H 0.24118 0.68056 0.97791 0.0
H326 H 0.34346 0.78736 0.99371 0.0
C327 C 0.23403 0.90397 0.02081 0.0
C328 C 0.20364 0.79403 0.00806 0.0
C329 C 0.21343 0.94259 0.02393 0.0
C330 C 0.30492 0.643 0.97845 0.0
C331 C 0.27882 0.67875 0.98484 0.0
C332 C 0.3046 0.78867 0.99814 0.0
C333 C 0.20771 0.87059 0.00825 0.0
C334 C 0.23093 0.82971 0.00507 0.0
C335 C 0.30237 0.71276 0.99831 0.0
C336 C 0.27763 0.75301 0.00139 0.0
H337 H 0.10206 0.91977 0.99474 0.0
H338 H 0.13867 0.85178 0.98901 0.0
H339 H 0.30354 0.85313 0.99701 0.0
H340 H 0.41618 0.67208 0.00609 0.0
H341 H 0.37031 0.73434 0.01772 0.0
C342 C 0.97386 0.90959 0.99206 0.0
C343 C 0.97124 0.9483 0.00542 0.0
C344 C 0.95438 0.8752 0.00112 0.0
C345 C 0.85108 0.85355 0.03859 0.0
H346 H 0.89226 0.74125 0.02519 0.0
C347 C 0.71241 0.72008 0.04207 0.0
C348 C 0.72871 0.68941 0.05555 0.0
C349 C 0.7463 0.74893 0.03518 0.0
C350 C 0.88031 0.77247 0.02911 0.0
H351 H 0.94949 0.98153 0.03921 0.0
H352 H 0.91626 0.92119 0.05551 0.0
H353 H 0.94987 0.79686 0.01889 0.0
H354 H 0.79317 0.66289 0.07095 0.0
H355 H 0.85227 0.71283 0.05878 0.0
H356 H 0.7816 0.82936 0.04874 0.0
C357 C 0.93318 0.91733 0.03797 0.0
C358 C 0.91329 0.8043 0.02549 0.0
C359 C 0.95303 0.95175 0.0289 0.0
C360 C 0.77973 0.68634 0.06055 0.0
C361 C 0.81356 0.7149 0.05355 0.0
C362 C 0.8181 0.8218 0.04207 0.0
C363 C 0.93122 0.8791 0.02359 0.0
C364 C 0.89894 0.84523 0.03006 0.0
C365 C 0.79706 0.74735 0.0415 0.0
C366 C 0.83212 0.78087 0.03719 0.0
H367 H 0.98689 0.90649 0.97369 0.0
H368 H 0.95333 0.84636 0.98952 0.0
H369 H 0.83842 0.88465 0.04188 0.0
H370 H 0.67324 0.72322 0.03815 0.0
H371 H 0.73257 0.77322 0.02555 0.0
C372 C 0.90243 0.15623 0.01375 0.0
C373 C 0.95205 0.15228 0.00693 0.0
C374 C 0.87846 0.19333 0.0134 0.0
C375 C 0.87932 0.27665 0.97722 0.0
H376 H 0.77467 0.3187 0.01932 0.0
C377 C 0.70695 0.35109 0.9423 0.0
C378 C 0.69354 0.38959 0.95377 0.0
C379 C 0.74379 0.3287 0.9523 0.0
C380 C 0.80423 0.30769 0.00758 0.0
H381 H 0.01625 0.18426 0.99541 0.0
H382 H 0.97422 0.24943 0.99461 0.0
H383 H 0.83275 0.26922 0.0329 0.0
H384 H 0.70768 0.43378 0.98549 0.0
H385 H 0.77104 0.39342 0.00348 0.0
H386 H 0.8492 0.31323 0.9514 0.0
C387 C 0.95405 0.22387 0.00049 0.0
C388 C 0.83731 0.27932 0.01528 0.0
C389 C 0.9783 0.18678 0.0012 0.0
C390 C 0.71675 0.40423 0.97616 0.0
C391 C 0.75323 0.38131 0.98642 0.0
C392 C 0.84592 0.30446 0.96942 0.0
C393 C 0.90337 0.22708 0.00578 0.0
C394 C 0.87444 0.26272 -8e-05 0.0
C395 C 0.76767 0.34369 0.9743 0.0
C396 C 0.80725 0.31939 0.98425 0.0
H397 H 0.88135 0.12993 0.01808 0.0
H398 H 0.83935 0.1946 0.01734 0.0
H399 H 0.90708 0.26415 0.96483 0.0
H400 H 0.68894 0.33801 0.9255 0.0
H401 H 0.7534 0.29933 0.94286 0.0
C402 C 0.62753 0.68325 0.51339 0.0
C403 C 0.65852 0.64943 0.51122 0.0
C404 C 0.6442 0.72061 0.50657 0.0
C405 C 0.7523 0.77206 0.47999 0.0
H406 H 0.73273 0.85538 0.53403 0.0
C407 C 0.83301 0.942 0.5258 0.0
C408 C 0.88381 0.93385 0.52495 0.0
C409 C 0.79794 0.91153 0.51725 0.0
C410 C 0.73795 0.83296 0.51846 0.0
H411 H 0.72923 0.62678 0.49876 0.0
H412 H 0.75838 0.69121 0.4868 0.0
H413 H 0.6816 0.79364 0.52967 0.0
H414 H 0.93834 0.88857 0.51399 0.0
H415 H 0.87733 0.83513 0.49904 0.0
H416 H 0.81082 0.81076 0.46969 0.0
C417 C 0.72101 0.68946 0.49332 0.0
C418 C 0.70834 0.7974 0.51588 0.0
C419 C 0.70431 0.65232 0.50012 0.0
C420 C 0.89924 0.89552 0.5145 0.0
C421 C 0.86425 0.86506 0.50589 0.0
C422 C 0.78214 0.8076 0.48266 0.0
C423 C 0.69238 0.72471 0.49773 0.0
C424 C 0.7162 0.76581 0.49709 0.0
C425 C 0.81311 0.87231 0.50778 0.0
C426 C 0.77637 0.8379 0.50238 0.0
H427 H 0.59265 0.68195 0.52253 0.0
H428 H 0.62078 0.74692 0.50984 0.0
H429 H 0.75887 0.74876 0.46504 0.0
H430 H 0.82046 0.97137 0.534 0.0
H431 H 0.75891 0.91827 0.51876 0.0
C432 C 0.64341 0.4181 0.50532 0.0
C433 C 0.66785 0.4511 0.51942 0.0
C434 C 0.66501 0.37945 0.50219 0.0
C435 C 0.78689 0.33039 0.50558 0.0
H436 H 0.71005 0.23123 0.5098 0.0
C437 C 0.88351 0.17649 0.50219 0.0
C438 C 0.86166 0.14476 0.48611 0.0
C439 C 0.85715 0.21194 0.50929 0.0
C440 C 0.73198 0.25863 0.50846 0.0
H441 H 0.73431 0.469 0.54127 0.0
H442 H 0.7712 0.40236 0.53591 0.0
H443 H 0.66904 0.29719 0.51424 0.0
H444 H 0.79368 0.12364 0.46668 0.0
H445 H 0.74801 0.18545 0.47876 0.0
H446 H 0.84961 0.29223 0.49949 0.0
C447 C 0.73572 0.4062 0.52704 0.0
C448 C 0.70842 0.29639 0.5109 0.0
C449 C 0.71425 0.4445 0.53022 0.0
C450 C 0.8117 0.14784 0.47886 0.0
C451 C 0.78539 0.18321 0.48593 0.0
C452 C 0.81035 0.29279 0.50312 0.0
C453 C 0.71158 0.37319 0.51295 0.0
C454 C 0.73568 0.33272 0.50956 0.0
C455 C 0.80839 0.21635 0.50048 0.0
C456 C 0.7833 0.25639 0.50457 0.0
H457 H 0.60755 0.42201 0.49683 0.0
H458 H 0.64561 0.35465 0.49109 0.0
H459 H 0.80887 0.35769 0.50401 0.0
H460 H 0.92195 0.17507 0.50806 0.0
H461 H 0.87563 0.23656 0.52096 0.0
C462 C 0.44981 0.4604 0.5308 0.0
C463 C 0.46954 0.45168 0.50776 0.0
C464 C 0.42473 0.42979 0.54134 0.0
C465 C 0.39088 0.3188 0.53476 0.0
H466 H 0.26032 0.35853 0.55171 0.0
C467 C 0.22549 0.20814 0.54443 0.0
C468 C 0.1953 0.2185 0.56434 0.0
C469 C 0.26058 0.23641 0.53787 0.0
C470 C 0.29672 0.34688 0.54736 0.0
H471 H 0.48253 0.40414 0.47846 0.0
H472 H 0.43991 0.35052 0.49694 0.0
H473 H 0.32539 0.40655 0.5437 0.0
H474 H 0.1758 0.26717 0.59198 0.0
H475 H 0.23687 0.31601 0.58085 0.0
H476 H 0.36195 0.25899 0.53831 0.0
C477 C 0.4437 0.38064 0.50705 0.0
C478 C 0.3342 0.37452 0.54291 0.0
C479 C 0.46836 0.41128 0.4965 0.0
C480 C 0.19884 0.25827 0.57664 0.0
C481 C 0.23376 0.28636 0.57016 0.0
C482 C 0.35339 0.29109 0.53939 0.0
C483 C 0.41908 0.39012 0.5289 0.0
C484 C 0.38165 0.36084 0.53641 0.0
C485 C 0.26591 0.27557 0.55105 0.0
C486 C 0.30571 0.30477 0.5456 0.0
H487 H 0.44913 0.4916 0.53948 0.0
H488 H 0.4067 0.43787 0.55837 0.0
H489 H 0.42707 0.30734 0.52979 0.0
H490 H 0.22369 0.17763 0.53472 0.0
H491 H 0.2841 0.22734 0.52276 0.0
C492 C 0.40327 0.65378 0.51063 0.0
C493 C 0.45373 0.65126 0.50517 0.0
C494 C 0.37853 0.69056 0.51045 0.0
C495 C 0.38057 0.77663 0.47664 0.0
H496 H 0.27339 0.81546 0.51809 0.0
C497 C 0.20848 0.85178 0.44184 0.0
C498 C 0.19559 0.89033 0.45345 0.0
C499 C 0.24488 0.82889 0.45177 0.0
C500 C 0.30365 0.80533 0.50656 0.0
H501 H 0.51847 0.68525 0.49605 0.0
H502 H 0.47501 0.74987 0.49541 0.0
H503 H 0.33103 0.76522 0.5312 0.0
H504 H 0.21014 0.93402 0.48537 0.0
H505 H 0.27259 0.89269 0.50325 0.0
H506 H 0.35149 0.81476 0.45139 0.0
C507 C 0.45481 0.72346 0.50019 0.0
C508 C 0.33647 0.77656 0.51399 0.0
C509 C 0.47981 0.68668 0.50079 0.0
C510 C 0.21879 0.90445 0.47592 0.0
C511 C 0.25477 0.881 0.48612 0.0
C512 C 0.34738 0.80481 0.46908 0.0
C513 C 0.40356 0.72541 0.50431 0.0
C514 C 0.37456 0.7612 0.49883 0.0
C515 C 0.26872 0.84337 0.47385 0.0
C516 C 0.30789 0.81862 0.48368 0.0
H517 H 0.38235 0.62673 0.51389 0.0
H518 H 0.339 0.6909 0.51342 0.0
H519 H 0.40912 0.76507 0.46443 0.0
H520 H 0.19043 0.83907 0.42497 0.0
H521 H 0.25421 0.79953 0.44222 0.0
C522 C 1.00784 0.01149 0.08923 0.0
C523 C 0.02649 0.0505 0.08627 0.0
C524 C 0.99027 0.0035 0.11168 0.0
C525 C 0.94771 0.05094 0.17062 0.0
H526 H 0.02152 0.96694 0.19794 0.0
C527 C 0.96923 0.05092 0.27306 0.0
C528 C 0.97205 0.01379 0.28289 0.0
C529 C 0.96852 0.05161 0.24808 0.0
C530 C 0.99967 0.98991 0.19054 0.0
H531 H 0.03947 0.11214 0.10369 0.0
H532 H 1.00715 0.0987 0.14263 0.0
H533 H 0.0287 0.97463 0.15517 0.0
H534 H 0.97622 0.94818 0.27431 0.0
H535 H 0.97389 0.94913 0.23043 0.0
H536 H 0.91873 0.06651 0.20581 0.0
C537 C 1.0062 0.07424 0.12776 0.0
C538 C 1.00385 0.99429 0.166 0.0
C539 C 0.02469 0.08196 0.10554 0.0
C540 C 0.97435 0.97725 0.26718 0.0
C541 C 0.97307 0.97787 0.24207 0.0
C542 C 0.94294 0.0462 0.19504 0.0
C543 C 0.99032 0.03467 0.13128 0.0
C544 C 0.97901 0.0256 0.15599 0.0
C545 C 0.97004 0.01512 0.23219 0.0
C546 C 0.97011 0.01649 0.20553 0.0
H547 H 1.01002 0.98657 0.07476 0.0
H548 H 0.97827 0.97274 0.11398 0.0
H549 H 0.92783 0.07508 0.16326 0.0
H550 H 0.96829 0.07963 0.28475 0.0
H551 H 0.96767 0.08097 0.24128 0.0
C552 C 0.08061 0.08571 0.91703 0.0
C553 C 0.08775 0.05247 0.93007 0.0
C554 C 0.09323 0.08302 0.89273 0.0
C555 C 0.09325 0.0052 0.84107 0.0
H556 H 0.14173 0.09305 0.80707 0.0
C557 C 0.08559 0.99406 0.73639 0.0
C558 C 0.07262 0.02978 0.72658 0.0
C559 C 0.0963 0.99526 0.76119 0.0
C560 C 0.12775 0.06829 0.81628 0.0
H561 H 0.11544 0.99116 0.92871 0.0
H562 H 0.13777 0.98628 0.88606 0.0
H563 H 0.14953 0.09925 0.85111 0.0
H564 H 0.05903 0.09441 0.73508 0.0
H565 H 0.07626 0.09639 0.77823 0.0
H566 H 0.06914 0.97505 0.80653 0.0
C567 C 0.12277 0.01452 0.89461 0.0
C568 C 0.1326 0.07177 0.84149 0.0
C569 C 0.11062 0.01744 0.91903 0.0
C570 C 0.06967 0.0665 0.74208 0.0
C571 C 0.07993 0.06766 0.76682 0.0
C572 C 0.08799 0.00186 0.81589 0.0
C573 C 0.11232 0.04668 0.88098 0.0
C574 C 0.1145 0.04062 0.85419 0.0
C575 C 0.09382 0.03217 0.77671 0.0
C576 C 0.10413 0.03378 0.8032 0.0
H577 H 0.06196 0.11262 0.92514 0.0
H578 H 0.08427 0.10815 0.88267 0.0
H579 H 0.07821 0.98093 0.85037 0.0
H580 H 0.08862 0.96542 0.7248 0.0
H581 H 0.10726 0.9674 0.76812 0.0
C582 C 0.5141 0.58094 0.60617 0.0
C583 C 0.51988 0.54971 0.58707 0.0
C584 C 0.49498 0.57213 0.62805 0.0
C585 C 0.49836 0.49157 0.66602 0.0
H586 H 0.40896 0.55971 0.70581 0.0
C587 C 0.47061 0.47284 0.76712 0.0
C588 C 0.4667 0.50923 0.78284 0.0
C589 C 0.46897 0.47346 0.74201 0.0
C590 C 0.43432 0.54053 0.69502 0.0
H591 H 0.50965 0.48504 0.57548 0.0
H592 H 0.47648 0.46937 0.61401 0.0
H593 H 0.41713 0.56891 0.66329 0.0
H594 H 0.45978 0.57485 0.78469 0.0
H595 H 0.45833 0.5762 0.74122 0.0
H596 H 0.51794 0.46478 0.69792 0.0
C597 C 0.48592 0.50075 0.61187 0.0
C598 C 0.4386 0.54562 0.67062 0.0
C599 C 0.50423 0.50976 0.58977 0.0
C600 C 0.46195 0.54622 0.77301 0.0
C601 C 0.46079 0.54692 0.74803 0.0
C602 C 0.49458 0.48681 0.69052 0.0
C603 C 0.4824 0.53173 0.63141 0.0
C604 C 0.47149 0.52183 0.65602 0.0
C605 C 0.46388 0.51056 0.73214 0.0
C606 C 0.46348 0.51199 0.70549 0.0
H607 H 0.52665 0.61185 0.60454 0.0
H608 H 0.49319 0.59653 0.64287 0.0
H609 H 0.52448 0.47314 0.65523 0.0
H610 H 0.47399 0.44386 0.77424 0.0
H611 H 0.4711 0.44482 0.73036 0.0
C612 C 0.61595 0.51675 0.41947 0.0
C613 C 0.60095 0.55277 0.43308 0.0
C614 C 0.62707 0.51658 0.39511 0.0
C615 C 0.6433 0.58003 0.34501 0.0
H616 H 0.55979 0.49547 0.30926 0.0
C617 C 0.57834 0.58711 0.24596 0.0
C618 C 0.57197 0.55033 0.23054 0.0
C619 C 0.5899 0.58678 0.27054 0.0
C620 C 0.58419 0.5188 0.31876 0.0
H621 H 0.58897 0.61731 0.43277 0.0
H622 H 0.60889 0.61731 0.39015 0.0
H623 H 0.57242 0.49613 0.3525 0.0
H624 H 0.57423 0.48444 0.22849 0.0
H625 H 0.5955 0.48368 0.27118 0.0
H626 H 0.65461 0.60292 0.31115 0.0
C627 C 0.61274 0.58928 0.39827 0.0
C628 C 0.59147 0.51915 0.34365 0.0
C629 C 0.60161 0.5894 0.42268 0.0
C630 C 0.57806 0.51322 0.24007 0.0
C631 C 0.59023 0.51287 0.26456 0.0
C632 C 0.63642 0.57945 0.31997 0.0
C633 C 0.62282 0.55239 0.38393 0.0
C634 C 0.62061 0.54999 0.35713 0.0
C635 C 0.59592 0.54963 0.28019 0.0
C636 C 0.60617 0.54911 0.30657 0.0
H637 H 0.61476 0.48804 0.42708 0.0
H638 H 0.63543 0.48782 0.38459 0.0
H639 H 0.66601 0.60413 0.35493 0.0
H640 H 0.57355 0.61617 0.23909 0.0
H641 H 0.59305 0.61567 0.28203 0.0
loop_
_geom_bond_atom_site_label_1
_geom_bond_atom_site_label_2
_geom_bond_distance
_geom_bond_site_symmetry_2
_ccdc_geom_bond_type
O0 Mn1 2.163 . S
O0 C14 1.244 1_455 S
Mn1 O0 2.163 . S
Mn1 O4 2.160 1_545 S
Mn1 O5 2.221 . S
Mn1 O7 2.163 . S
Mn1 O9 2.160 1_554 S
Mn1 O19 2.221 1_444 S
O2 Mn3 2.087 . S
O2 C14 1.256 1_556 S
Mn3 O2 2.087 . S
Mn3 O10 2.089 . S
Mn3 O19 2.290 1_545 S
Mn3 O20 2.251 1_546 S
O4 Mn1 2.160 1_565 S
O4 C15 1.245 . S
O5 Mn1 2.221 . S
O5 Mn6 2.290 . S
O5 C16 1.278 . S
Mn6 O5 2.290 . S
Mn6 O8 2.089 1_545 S
Mn6 O11 2.251 . S
Mn6 O12 2.087 . S
O7 Mn1 2.163 . S
O7 C17 1.244 . S
O8 Mn6 2.089 1_565 S
O8 C15 1.256 . S
O9 Mn1 2.160 1_556 S
O9 C18 1.239 . S
O10 Mn3 2.089 . S
O10 C18 1.256 1_655 S
O11 Mn6 2.251 . S
O11 C16 1.241 . S
O12 Mn6 2.087 . S
O12 C17 1.256 . S
C13 O19 1.278 1_554 S
C13 O20 1.241 . S
C14 O0 1.244 1_655 S
C14 O2 1.256 1_554 S
C15 O4 1.245 . S
C15 O8 1.256 . S
C16 O5 1.278 . S
C16 O11 1.241 . S
C17 O7 1.244 . S
C17 O12 1.256 . S
C18 O9 1.239 . S
C18 O10 1.256 1_455 S
O19 Mn1 2.221 1_666 S
O19 Mn3 2.290 1_565 S
O19 C13 1.278 1_556 S
O20 Mn3 2.251 1_564 S
O20 C13 1.241 . S
O21 Mn22 2.163 . S
O21 C35 1.244 . S
Mn22 O21 2.163 . S
Mn22 O25 2.160 . S
Mn22 O26 2.221 . S
Mn22 O28 2.163 . S
Mn22 O30 2.160 . S
Mn22 O40 2.221 . S
O23 Mn24 2.087 . S
O23 C35 1.256 . S
Mn24 O23 2.087 . S
Mn24 O31 2.089 . S
Mn24 O40 2.290 . S
Mn24 O41 2.251 . S
O25 Mn22 2.160 . S
O25 C36 1.239 . S
O26 Mn22 2.221 . S
O26 Mn27 2.290 . S
O26 C37 1.278 . S
Mn27 O26 2.290 . S
Mn27 O29 2.089 . S
Mn27 O32 2.251 . S
Mn27 O33 2.087 . S
O28 Mn22 2.163 . S
O28 C38 1.244 . S
O29 Mn27 2.089 . S
O29 C36 1.256 . S
O30 Mn22 2.160 . S
O30 C39 1.239 . S
O31 Mn24 2.089 . S
O31 C39 1.256 . S
O32 Mn27 2.251 . S
O32 C37 1.241 . S
O33 Mn27 2.087 . S
O33 C38 1.256 . S
C34 O40 1.278 . S
C34 O41 1.241 . S
C35 O21 1.244 . S
C35 O23 1.256 . S
C36 O25 1.239 . S
C36 O29 1.256 . S
C37 O26 1.278 . S
C37 O32 1.241 . S
C38 O28 1.244 . S
C38 O33 1.256 . S
C39 O30 1.239 . S
C39 O31 1.256 . S
O40 Mn22 2.221 . S
O40 Mn24 2.290 . S
O40 C34 1.278 . S
O41 Mn24 2.251 . S
O41 C34 1.241 . S
C42 C43 1.391 . S
C42 C46 1.391 . S
C42 H84 0.948 . S
C43 C42 1.391 . S
C43 C44 1.391 . S
C44 C43 1.391 . S
C44 H100 0.947 . S
C44 C101 1.392 . S
C45 C46 1.391 . S
C45 C49 1.397 . S
C45 C101 1.419 . S
C46 C42 1.391 . S
C46 C45 1.391 . S
C46 C47 1.399 . S
C47 C46 1.399 . S
C47 C50 1.396 . S
C47 C59 1.453 1_565 S
C47 C60 1.684 . S
H48 C72 0.948 . S
C49 C45 1.397 . S
C49 C50 1.394 . S
C49 C68 1.723 . S
C50 C47 1.396 . S
C50 C49 1.394 . S
C50 C80 1.723 1_565 S
H51 C74 0.947 . S
H52 C75 0.948 . S
H53 C81 0.982 1_455 S
H54 C82 0.979 . S
H55 C82 0.980 . S
H56 C82 0.983 . S
H57 C81 0.979 . S
H58 C81 0.977 . S
C59 C47 1.453 1_545 S
C59 H88 0.982 . S
C59 H89 0.979 1_545 S
C59 H90 0.977 . S
C60 C47 1.684 . S
C60 H85 0.979 1_455 S
C60 H86 0.980 . S
C60 H87 0.983 . S
C61 C62 1.391 1_565 S
C61 C66 1.391 . S
C61 H91 0.948 . S
C62 C61 1.391 1_545 S
C62 C63 1.391 . S
C63 C62 1.391 . S
C63 C64 1.392 . S
C63 H92 0.947 1_455 S
C64 C63 1.392 . S
C64 C65 1.419 . S
C64 H93 0.948 1_455 S
C65 C64 1.419 . S
C65 C66 1.391 1_545 S
C65 C69 1.397 . S
C66 C61 1.391 . S
C66 C65 1.391 1_565 S
C66 C67 1.399 . S
C67 C66 1.399 . S
C67 C68 1.396 . S
C67 C70 1.453 . S
C67 C71 1.684 . S
C68 C49 1.723 . S
C68 C67 1.396 . S
C68 C69 1.394 1_565 S
C69 C65 1.397 . S
C69 C68 1.394 1_545 S
C69 C79 1.723 . S
C70 C67 1.453 . S
C70 H94 0.982 . S
C70 H95 0.979 . S
C70 H96 0.977 . S
C71 C67 1.684 . S
C71 H97 0.979 . S
C71 H98 0.980 . S
C71 H99 0.983 . S
C72 H48 0.948 . S
C72 C73 1.391 . S
C72 C77 1.391 . S
C73 C72 1.391 . S
C73 C74 1.391 . S
C74 H51 0.947 . S
C74 C73 1.391 . S
C74 C75 1.392 . S
C75 H52 0.948 . S
C75 C74 1.392 . S
C75 C76 1.419 . S
C76 C75 1.419 . S
C76 C77 1.391 . S
C76 C80 1.397 1_655 S
C77 C72 1.391 . S
C77 C76 1.391 . S
C77 C78 1.399 . S
C78 C77 1.399 . S
C78 C79 1.396 1_655 S
C78 C81 1.453 . S
C78 C82 1.684 . S
C79 C69 1.723 . S
C79 C78 1.396 1_455 S
C79 C80 1.394 . S
C80 C50 1.723 1_545 S
C80 C76 1.397 1_455 S
C80 C79 1.394 . S
C81 H53 0.982 1_655 S
C81 H57 0.979 . S
C81 H58 0.977 . S
C81 C78 1.453 . S
C82 H54 0.979 . S
C82 H55 0.980 . S
C82 H56 0.983 . S
C82 C78 1.684 . S
H83 C101 0.948 . S
H84 C42 0.948 . S
H85 C60 0.979 1_655 S
H86 C60 0.980 . S
H87 C60 0.983 . S
H88 C59 0.982 . S
H89 C59 0.979 1_565 S
H90 C59 0.977 . S
H91 C61 0.948 . S
H92 C63 0.947 1_655 S
H93 C64 0.948 1_655 S
H94 C70 0.982 . S
H95 C70 0.979 . S
H96 C70 0.977 . S
H97 C71 0.979 . S
H98 C71 0.980 . S
H99 C71 0.983 . S
H100 C44 0.947 . S
C101 C44 1.392 . S
C101 C45 1.419 . S
C101 H83 0.948 . S
C102 C103 1.391 . S
C102 C106 1.391 . S
C102 H144 0.948 . S
C103 C102 1.391 . S
C103 C104 1.391 . S
C104 C103 1.391 . S
C104 H160 0.947 . S
C104 C161 1.392 . S
C105 C106 1.391 . S
C105 C109 1.397 . S
C105 C161 1.419 . S
C106 C102 1.391 . S
C106 C105 1.391 . S
C106 C107 1.399 . S
C107 C106 1.399 . S
C107 C110 1.396 . S
C107 C119 1.453 . S
C107 C120 1.684 1_455 S
H108 C132 0.948 . S
C109 C105 1.397 . S
C109 C110 1.394 . S
C109 C128 1.723 . S
C110 C107 1.396 . S
C110 C109 1.394 . S
C110 C140 1.723 1_455 S
H111 C134 0.947 . S
H112 C135 0.948 . S
H113 C141 0.982 . S
H114 C142 0.979 . S
H115 C142 0.980 . S
H116 C142 0.983 1_565 S
H117 C141 0.979 . S
H118 C141 0.977 . S
C119 C107 1.453 . S
C119 H148 0.982 . S
C119 H149 0.979 . S
C119 H150 0.977 . S
C120 C107 1.684 1_655 S
C120 H145 0.979 . S
C120 H146 0.980 . S
C120 H147 0.983 . S
C121 C122 1.391 1_455 S
C121 C126 1.391 . S
C121 H151 0.948 . S
C122 C121 1.391 1_655 S
C122 C123 1.391 . S
C123 C122 1.391 . S
C123 C124 1.392 . S
C123 H152 0.947 . S
C124 C123 1.392 . S
C124 C125 1.419 . S
C124 H153 0.948 . S
C125 C124 1.419 . S
C125 C126 1.391 1_655 S
C125 C129 1.397 . S
C126 C121 1.391 . S
C126 C125 1.391 1_455 S
C126 C127 1.399 . S
C127 C126 1.399 . S
C127 C128 1.396 . S
C127 C130 1.453 . S
C127 C131 1.684 . S
C128 C109 1.723 . S
C128 C127 1.396 . S
C128 C129 1.394 1_455 S
C129 C125 1.397 . S
C129 C128 1.394 1_655 S
C129 C139 1.723 . S
C130 C127 1.453 . S
C130 H154 0.982 . S
C130 H155 0.979 . S
C130 H156 0.977 . S
C131 C127 1.684 . S
C131 H157 0.979 . S
C131 H158 0.980 . S
C131 H159 0.983 . S
C132 H108 0.948 . S
C132 C133 1.391 . S
C132 C137 1.391 1_565 S
C133 C132 1.391 . S
C133 C134 1.391 . S
C134 H111 0.947 . S
C134 C133 1.391 . S
C134 C135 1.392 1_565 S
C135 H112 0.948 . S
C135 C134 1.392 1_545 S
C135 C136 1.419 . S
C136 C135 1.419 . S
C136 C137 1.391 . S
C136 C140 1.397 . S
C137 C132 1.391 1_545 S
C137 C136 1.391 . S
C137 C138 1.399 . S
C138 C137 1.399 . S
C138 C139 1.396 . S
C138 C141 1.453 1_545 S
C138 C142 1.684 . S
C139 C129 1.723 . S
C139 C138 1.396 . S
C139 C140 1.394 . S
C140 C110 1.723 1_655 S
C140 C136 1.397 . S
C140 C139 1.394 . S
C141 H113 0.982 . S
C141 H117 0.979 . S
C141 H118 0.977 . S
C141 C138 1.453 1_565 S
C142 H114 0.979 . S
C142 H115 0.980 . S
C142 H116 0.983 1_545 S
C142 C138 1.684 . S
H143 C161 0.948 . S
H144 C102 0.948 . S
H145 C120 0.979 . S
H146 C120 0.980 . S
H147 C120 0.983 . S
H148 C119 0.982 . S
H149 C119 0.979 . S
H150 C119 0.977 . S
H151 C121 0.948 . S
H152 C123 0.947 . S
H153 C124 0.948 . S
H154 C130 0.982 . S
H155 C130 0.979 . S
H156 C130 0.977 . S
H157 C131 0.979 . S
H158 C131 0.980 . S
H159 C131 0.983 . S
H160 C104 0.947 . S
C161 C104 1.392 . S
C161 C105 1.419 . S
C161 H143 0.948 . S
C162 C163 1.391 . S
C162 C166 1.391 . S
C162 H204 0.948 . S
C163 C162 1.391 . S
C163 C164 1.391 . S
C164 C163 1.391 . S
C164 H220 0.947 . S
C164 C221 1.392 . S
C165 C166 1.391 . S
C165 C169 1.397 . S
C165 C221 1.419 . S
C166 C162 1.391 . S
C166 C165 1.391 . S
C166 C167 1.399 . S
C167 C166 1.399 . S
C167 C170 1.396 . S
C167 C179 1.453 . S
C167 C180 1.684 . S
H168 C192 0.948 . S
C169 C165 1.397 . S
C169 C170 1.394 . S
C169 C188 1.723 . S
C170 C167 1.396 . S
C170 C169 1.394 . S
C170 C200 1.723 . S
H171 C194 0.947 1_554 S
H172 C195 0.948 . S
H173 C201 0.982 . S
H174 C202 0.979 . S
H175 C202 0.980 . S
H176 C202 0.983 . S
H177 C201 0.979 . S
H178 C201 0.977 . S
C179 C167 1.453 . S
C179 H208 0.982 . S
C179 H209 0.979 . S
C179 H210 0.977 . S
C180 C167 1.684 . S
C180 H205 0.979 . S
C180 H206 0.980 . S
C180 H207 0.975 1_556 S
C181 C182 1.391 . S
C181 C186 1.391 . S
C181 H211 0.948 . S
C182 C181 1.391 . S
C182 C183 1.391 . S
C183 C182 1.391 . S
C183 C184 1.392 . S
C183 H212 0.947 . S
C184 C183 1.392 . S
C184 C185 1.419 . S
C184 H213 0.948 . S
C185 C184 1.419 . S
C185 C186 1.391 . S
C185 C189 1.397 . S
C186 C181 1.391 . S
C186 C185 1.391 . S
C186 C187 1.399 . S
C187 C186 1.399 . S
C187 C188 1.396 . S
C187 C190 1.453 . S
C187 C191 1.684 . S
C188 C169 1.723 . S
C188 C187 1.396 . S
C188 C189 1.394 . S
C189 C185 1.397 . S
C189 C188 1.394 . S
C189 C199 1.723 . S
C190 C187 1.453 . S
C190 H214 0.982 . S
C190 H215 0.979 . S
C190 H216 0.977 . S
C191 C187 1.684 . S
C191 H217 0.979 . S
C191 H218 0.980 . S
C191 H219 0.983 . S
C192 H168 0.948 . S
C192 C193 1.391 . S
C192 C197 1.391 . S
C193 C192 1.391 . S
C193 C194 1.391 . S
C194 H171 0.947 1_556 S
C194 C193 1.391 . S
C194 C195 1.392 . S
C195 H172 0.948 . S
C195 C194 1.392 . S
C195 C196 1.419 . S
C196 C195 1.419 . S
C196 C197 1.391 . S
C196 C200 1.397 . S
C197 C192 1.391 . S
C197 C196 1.391 . S
C197 C198 1.399 . S
C198 C197 1.399 . S
C198 C199 1.396 . S
C198 C201 1.453 . S
C198 C202 1.684 . S
C199 C189 1.723 . S
C199 C198 1.396 . S
C199 C200 1.394 . S
C200 C170 1.723 . S
C200 C196 1.397 . S
C200 C199 1.394 . S
C201 H173 0.982 . S
C201 H177 0.979 . S
C201 H178 0.977 . S
C201 C198 1.453 . S
C202 H174 0.979 . S
C202 H175 0.980 . S
C202 H176 0.983 . S
C202 C198 1.684 . S
H203 C221 0.948 . S
H204 C162 0.948 . S
H205 C180 0.979 . S
H206 C180 0.980 . S
H207 C180 0.975 1_554 S
H208 C179 0.982 . S
H209 C179 0.979 . S
H210 C179 0.977 . S
H211 C181 0.948 . S
H212 C183 0.947 . S
H213 C184 0.948 . S
H214 C190 0.982 . S
H215 C190 0.979 . S
H216 C190 0.977 . S
H217 C191 0.979 . S
H218 C191 0.980 . S
H219 C191 0.983 . S
H220 C164 0.947 . S
C221 C164 1.392 . S
C221 C165 1.419 . S
C221 H203 0.948 . S
C222 C223 1.391 . S
C222 C226 1.391 . S
C222 H264 0.948 . S
C223 C222 1.391 . S
C223 C224 1.391 . S
C224 C223 1.391 . S
C224 H280 0.947 . S
C224 C281 1.392 . S
C225 C226 1.391 . S
C225 C229 1.397 . S
C225 C281 1.419 . S
C226 C222 1.391 . S
C226 C225 1.391 . S
C226 C227 1.399 . S
C227 C226 1.399 . S
C227 C230 1.396 . S
C227 C239 1.453 . S
C227 C240 1.684 . S
H228 C252 0.948 . S
C229 C225 1.397 . S
C229 C230 1.394 . S
C229 C248 1.723 . S
C230 C227 1.396 . S
C230 C229 1.394 . S
C230 C260 1.723 . S
H231 C254 0.947 . S
H232 C255 0.948 . S
H233 C261 0.982 . S
H234 C262 0.979 . S
H235 C262 0.980 . S
H236 C262 0.983 . S
H237 C261 0.979 . S
H238 C261 0.977 . S
C239 C227 1.453 . S
C239 H268 0.982 . S
C239 H269 0.979 . S
C239 H270 0.977 . S
C240 C227 1.684 . S
C240 H265 0.979 . S
C240 H266 0.980 . S
C240 H267 0.983 . S
C241 C242 1.391 . S
C241 C246 1.391 . S
C241 H271 0.948 . S
C242 C241 1.391 . S
C242 C243 1.391 . S
C243 C242 1.391 . S
C243 C244 1.392 . S
C243 H272 0.947 . S
C244 C243 1.392 . S
C244 C245 1.419 . S
C244 H273 0.948 . S
C245 C244 1.419 . S
C245 C246 1.391 . S
C245 C249 1.397 . S
C246 C241 1.391 . S
C246 C245 1.391 . S
C246 C247 1.399 . S
C247 C246 1.399 . S
C247 C248 1.396 . S
C247 C250 1.453 . S
C247 C251 1.684 . S
C248 C229 1.723 . S
C248 C247 1.396 . S
C248 C249 1.394 . S
C249 C245 1.397 . S
C249 C248 1.394 . S
C249 C259 1.723 . S
C250 C247 1.453 . S
C250 H274 0.982 . S
C250 H275 0.979 . S
C250 H276 0.977 . S
C251 C247 1.684 . S
C251 H277 0.979 . S
C251 H278 0.980 . S
C251 H279 0.983 . S
C252 H228 0.948 . S
C252 C253 1.391 . S
C252 C257 1.391 . S
C253 C252 1.391 . S
C253 C254 1.391 . S
C254 H231 0.947 . S
C254 C253 1.391 . S
C254 C255 1.392 . S
C255 H232 0.948 . S
C255 C254 1.392 . S
C255 C256 1.419 . S
C256 C255 1.419 . S
C256 C257 1.391 . S
C256 C260 1.397 . S
C257 C252 1.391 . S
C257 C256 1.391 . S
C257 C258 1.399 . S
C258 C257 1.399 . S
C258 C259 1.396 . S
C258 C261 1.453 . S
C258 C262 1.684 . S
C259 C249 1.723 . S
C259 C258 1.396 . S
C259 C260 1.394 . S
C260 C230 1.723 . S
C260 C256 1.397 . S
C260 C259 1.394 . S
C261 H233 0.982 . S
C261 H237 0.979 . S
C261 H238 0.977 . S
C261 C258 1.453 . S
C262 H234 0.979 . S
C262 H235 0.980 . S
C262 H236 0.983 . S
C262 C258 1.684 . S
H263 C281 0.948 . S
H264 C222 0.948 . S
H265 C240 0.979 . S
H266 C240 0.980 . S
H267 C240 0.983 . S
H268 C239 0.982 . S
H269 C239 0.979 . S
H270 C239 0.977 . S
H271 C241 0.948 . S
H272 C243 0.947 . S
H273 C244 0.948 . S
H274 C250 0.982 . S
H275 C250 0.979 . S
H276 C250 0.977 . S
H277 C251 0.979 . S
H278 C251 0.980 . S
H279 C251 0.983 . S
H280 C224 0.947 . S
C281 C224 1.392 . S
C281 C225 1.419 . S
C281 H263 0.948 . S
C282 C283 1.349 . S
C282 C284 1.327 . S
C282 H307 0.950 . S
C283 C282 1.349 . S
C283 C299 1.349 1_554 S
C284 C282 1.327 . S
C284 C303 1.429 . S
C284 H308 0.950 . S
C285 C302 1.574 . S
C285 C304 1.368 . S
C285 H309 0.949 1_554 S
H286 C290 0.949 . S
C287 C288 1.349 . S
C287 C289 1.327 . S
C287 H310 0.950 . S
C288 C287 1.349 . S
C288 C300 1.349 . S
C289 C287 1.327 . S
C289 C305 1.429 . S
C289 H311 0.950 . S
C290 H286 0.949 . S
C290 C298 1.574 . S
C290 C306 1.368 . S
H291 C299 0.950 . S
H292 C297 0.950 1_556 S
H293 C298 0.949 . S
H294 C300 0.950 . S
H295 C301 0.950 . S
H296 C302 0.949 . S
C297 H292 0.950 1_554 S
C297 C299 1.327 1_554 S
C297 C303 1.429 . S
C298 C290 1.574 . S
C298 H293 0.949 . S
C298 C304 1.368 . S
C299 C283 1.349 1_556 S
C299 H291 0.950 . S
C299 C297 1.327 1_556 S
C300 C288 1.349 . S
C300 H294 0.950 . S
C300 C301 1.327 . S
C301 H295 0.950 . S
C301 C300 1.327 . S
C301 C305 1.429 . S
C302 C285 1.574 . S
C302 H296 0.949 . S
C302 C306 1.368 . S
C303 C284 1.429 . S
C303 C297 1.429 . S
C303 C304 1.523 . S
C304 C285 1.368 . S
C304 C298 1.368 . S
C304 C303 1.523 . S
C305 C289 1.429 . S
C305 C301 1.429 . S
C305 C306 1.523 . S
C306 C290 1.368 . S
C306 C302 1.368 . S
C306 C305 1.523 . S
H307 C282 0.950 . S
H308 C284 0.950 . S
H309 C285 0.949 1_556 S
H310 C287 0.950 . S
H311 C289 0.950 . S
C312 C313 1.349 . S
C312 C314 1.327 . S
C312 H337 0.950 . S
C313 C312 1.349 . S
C313 C329 1.349 1_554 S
C314 C312 1.327 . S
C314 C333 1.398 1_554 S
C314 H338 0.950 . S
C315 C332 1.574 . S
C315 C334 1.368 . S
C315 H339 0.949 . S
H316 C320 0.949 . S
C317 C318 1.349 . S
C317 C319 1.327 . S
C317 H340 0.950 . S
C318 C317 1.349 . S
C318 C330 1.349 . S
C319 C317 1.327 . S
C319 C335 1.429 . S
C319 H341 0.950 . S
C320 H316 0.949 . S
C320 C328 1.574 . S
C320 C336 1.368 1_554 S
H321 C329 0.950 . S
H322 C327 0.950 . S
H323 C328 0.949 . S
H324 C330 0.950 1_554 S
H325 C331 0.956 . S
H326 C332 0.949 . S
C327 H322 0.950 . S
C327 C329 1.327 . S
C327 C333 1.457 . S
C328 C320 1.574 . S
C328 H323 0.949 . S
C328 C334 1.368 1_554 S
C329 C313 1.349 1_556 S
C329 H321 0.950 . S
C329 C327 1.327 . S
C330 C318 1.349 . S
C330 H324 0.950 1_556 S
C330 C331 1.327 1_556 S
C331 H325 0.956 . S
C331 C330 1.327 1_554 S
C331 C335 1.422 1_554 S
C332 C315 1.574 . S
C332 H326 0.949 . S
C332 C336 1.368 . S
C333 C314 1.398 1_556 S
C333 C327 1.457 . S
C333 C334 1.525 . S
C334 C315 1.368 . S
C334 C328 1.368 1_556 S
C334 C333 1.525 . S
C335 C319 1.429 . S
C335 C331 1.422 1_556 S
C335 C336 1.523 . S
C336 C320 1.368 1_556 S
C336 C332 1.368 . S
C336 C335 1.523 . S
H337 C312 0.950 . S
H338 C314 0.950 . S
H339 C315 0.949 . S
H340 C317 0.950 . S
H341 C319 0.950 . S
C342 C343 1.349 . S
C342 C344 1.327 . S
C342 H367 0.950 1_554 S
C343 C342 1.349 . S
C343 C359 1.349 . S
C344 C342 1.327 . S
C344 C363 1.429 . S
C344 H368 0.950 . S
C345 C362 1.574 . S
C345 C364 1.368 . S
C345 H369 0.949 . S
H346 C350 0.949 . S
C347 C348 1.349 . S
C347 C349 1.327 . S
C347 H370 0.950 . S
C348 C347 1.349 . S
C348 C360 1.349 . S
C349 C347 1.327 . S
C349 C365 1.429 . S
C349 H371 0.950 . S
C350 H346 0.949 . S
C350 C358 1.574 . S
C350 C366 1.368 . S
H351 C359 0.950 . S
H352 C357 0.950 . S
H353 C358 0.949 . S
H354 C360 0.950 . S
H355 C361 0.950 . S
H356 C362 0.949 . S
C357 H352 0.950 . S
C357 C359 1.327 . S
C357 C363 1.429 . S
C358 C350 1.574 . S
C358 H353 0.949 . S
C358 C364 1.368 . S
C359 C343 1.349 . S
C359 H351 0.950 . S
C359 C357 1.327 . S
C360 C348 1.349 . S
C360 H354 0.950 . S
C360 C361 1.327 . S
C361 H355 0.950 . S
C361 C360 1.327 . S
C361 C365 1.429 . S
C362 C345 1.574 . S
C362 H356 0.949 . S
C362 C366 1.368 . S
C363 C344 1.429 . S
C363 C357 1.429 . S
C363 C364 1.523 . S
C364 C345 1.368 . S
C364 C358 1.368 . S
C364 C363 1.523 . S
C365 C349 1.429 . S
C365 C361 1.429 . S
C365 C366 1.523 . S
C366 C350 1.368 . S
C366 C362 1.368 . S
C366 C365 1.523 . S
H367 C342 0.950 1_556 S
H368 C344 0.950 . S
H369 C345 0.949 . S
H370 C347 0.950 . S
H371 C349 0.950 . S
C372 C373 1.349 . S
C372 C374 1.327 . S
C372 H397 0.950 . S
C373 C372 1.349 . S
C373 C389 1.349 1_554 S
C374 C372 1.327 . S
C374 C393 1.429 1_554 S
C374 H398 0.950 . S
C375 C392 1.574 . S
C375 C394 1.368 . S
C375 H399 0.949 . S
H376 C380 0.949 . S
C377 C378 1.349 . S
C377 C379 1.327 . S
C377 H400 0.950 . S
C378 C377 1.349 . S
C378 C390 1.349 . S
C379 C377 1.327 . S
C379 C395 1.429 . S
C379 H401 0.950 . S
C380 H376 0.949 . S
C380 C388 1.574 . S
C380 C396 1.368 1_554 S
H381 C389 0.950 . S
H382 C387 0.950 . S
H383 C388 0.949 . S
H384 C390 0.950 1_554 S
H385 C391 0.950 1_554 S
H386 C392 0.949 . S
C387 H382 0.950 . S
C387 C389 1.327 . S
C387 C393 1.429 . S
C388 C380 1.574 . S
C388 H383 0.949 . S
C388 C394 1.368 1_554 S
C389 C373 1.349 1_556 S
C389 H381 0.950 . S
C389 C387 1.327 . S
C390 C378 1.349 . S
C390 H384 0.950 1_556 S
C390 C391 1.327 . S
C391 H385 0.950 1_556 S
C391 C390 1.327 . S
C391 C395 1.429 . S
C392 C375 1.574 . S
C392 H386 0.949 . S
C392 C396 1.368 . S
C393 C374 1.429 1_556 S
C393 C387 1.429 . S
C393 C394 1.523 . S
C394 C375 1.368 . S
C394 C388 1.368 1_556 S
C394 C393 1.523 . S
C395 C379 1.429 . S
C395 C391 1.429 . S
C395 C396 1.523 . S
C396 C380 1.368 1_556 S
C396 C392 1.368 . S
C396 C395 1.523 . S
H397 C372 0.950 . S
H398 C374 0.950 . S
H399 C375 0.949 . S
H400 C377 0.950 . S
H401 C379 0.950 . S
C402 C403 1.349 . S
C402 C404 1.327 . S
C402 H427 0.950 . S
C403 C402 1.349 . S
C403 C419 1.349 . S
C404 C402 1.327 . S
C404 C423 1.429 . S
C404 H428 0.950 . S
C405 C422 1.574 . S
C405 C424 1.368 . S
C405 H429 0.949 . S
H406 C410 0.949 . S
C407 C408 1.349 . S
C407 C409 1.327 . S
C407 H430 0.950 . S
C408 C407 1.349 . S
C408 C420 1.349 . S
C409 C407 1.327 . S
C409 C425 1.429 . S
C409 H431 0.950 . S
C410 H406 0.949 . S
C410 C418 1.574 . S
C410 C426 1.368 . S
H411 C419 0.950 . S
H412 C417 0.950 . S
H413 C418 0.949 . S
H414 C420 0.950 . S
H415 C421 0.950 . S
H416 C422 0.949 . S
C417 H412 0.950 . S
C417 C419 1.327 . S
C417 C423 1.429 . S
C418 C410 1.574 . S
C418 H413 0.949 . S
C418 C424 1.368 . S
C419 C403 1.349 . S
C419 H411 0.950 . S
C419 C417 1.327 . S
C420 C408 1.349 . S
C420 H414 0.950 . S
C420 C421 1.327 . S
C421 H415 0.950 . S
C421 C420 1.327 . S
C421 C425 1.429 . S
C422 C405 1.574 . S
C422 H416 0.949 . S
C422 C426 1.368 . S
C423 C404 1.429 . S
C423 C417 1.429 . S
C423 C424 1.523 . S
C424 C405 1.368 . S
C424 C418 1.368 . S
C424 C423 1.523 . S
C425 C409 1.429 . S
C425 C421 1.429 . S
C425 C426 1.523 . S
C426 C410 1.368 . S
C426 C422 1.368 . S
C426 C425 1.523 . S
H427 C402 0.950 . S
H428 C404 0.950 . S
H429 C405 0.949 . S
H430 C407 0.950 . S
H431 C409 0.950 . S
C432 C433 1.349 . S
C432 C434 1.327 . S
C432 H457 0.950 . S
C433 C432 1.349 . S
C433 C449 1.349 . S
C434 C432 1.327 . S
C434 C453 1.429 . S
C434 H458 0.950 . S
C435 C452 1.574 . S
C435 C454 1.368 . S
C435 H459 0.949 . S
H436 C440 0.949 . S
C437 C438 1.349 . S
C437 C439 1.327 . S
C437 H460 0.950 . S
C438 C437 1.349 . S
C438 C450 1.349 . S
C439 C437 1.327 . S
C439 C455 1.429 . S
C439 H461 0.950 . S
C440 H436 0.949 . S
C440 C448 1.574 . S
C440 C456 1.368 . S
H441 C449 0.950 . S
H442 C447 0.950 . S
H443 C448 0.949 . S
H444 C450 0.950 . S
H445 C451 0.950 . S
H446 C452 0.949 . S
C447 H442 0.950 . S
C447 C449 1.327 . S
C447 C453 1.429 . S
C448 C440 1.574 . S
C448 H443 0.949 . S
C448 C454 1.368 . S
C449 C433 1.349 . S
C449 H441 0.950 . S
C449 C447 1.327 . S
C450 C438 1.349 . S
C450 H444 0.950 . S
C450 C451 1.327 . S
C451 H445 0.950 . S
C451 C450 1.327 . S
C451 C455 1.429 . S
C452 C435 1.574 . S
C452 H446 0.949 . S
C452 C456 1.368 . S
C453 C434 1.429 . S
C453 C447 1.429 . S
C453 C454 1.523 . S
C454 C435 1.368 . S
C454 C448 1.368 . S
C454 C453 1.523 . S
C455 C439 1.429 . S
C455 C451 1.429 . S
C455 C456 1.523 . S
C456 C440 1.368 . S
C456 C452 1.368 . S
C456 C455 1.523 . S
H457 C432 0.950 . S
H458 C434 0.950 . S
H459 C435 0.949 . S
H460 C437 0.950 . S
H461 C439 0.950 . S
C462 C463 1.349 . S
C462 C464 1.327 . S
C462 H487 0.950 . S
C463 C462 1.349 . S
C463 C479 1.349 . S
C464 C462 1.327 . S
C464 C483 1.429 . S
C464 H488 0.950 . S
C465 C482 1.574 . S
C465 C484 1.368 . S
C465 H489 0.949 . S
H466 C470 0.949 . S
C467 C468 1.349 . S
C467 C469 1.327 . S
C467 H490 0.950 . S
C468 C467 1.349 . S
C468 C480 1.349 . S
C469 C467 1.327 . S
C469 C485 1.429 . S
C469 H491 0.950 . S
C470 H466 0.949 . S
C470 C478 1.574 . S
C470 C486 1.368 . S
H471 C479 0.950 . S
H472 C477 0.950 . S
H473 C478 0.949 . S
H474 C480 0.950 . S
H475 C481 0.950 . S
H476 C482 0.949 . S
C477 H472 0.950 . S
C477 C479 1.327 . S
C477 C483 1.429 . S
C478 C470 1.574 . S
C478 H473 0.949 . S
C478 C484 1.368 . S
C479 C463 1.349 . S
C479 H471 0.950 . S
C479 C477 1.327 . S
C480 C468 1.349 . S
C480 H474 0.950 . S
C480 C481 1.327 . S
C481 H475 0.950 . S
C481 C480 1.327 . S
C481 C485 1.429 . S
C482 C465 1.574 . S
C482 H476 0.949 . S
C482 C486 1.368 . S
C483 C464 1.429 . S
C483 C477 1.429 . S
C483 C484 1.523 . S
C484 C465 1.368 . S
C484 C478 1.368 . S
C484 C483 1.523 . S
C485 C469 1.429 . S
C485 C481 1.429 . S
C485 C486 1.523 . S
C486 C470 1.368 . S
C486 C482 1.368 . S
C486 C485 1.523 . S
H487 C462 0.950 . S
H488 C464 0.950 . S
H489 C465 0.949 . S
H490 C467 0.950 . S
H491 C469 0.950 . S
C492 C493 1.349 . S
C492 C494 1.327 . S
C492 H517 0.950 . S
C493 C492 1.349 . S
C493 C509 1.349 . S
C494 C492 1.327 . S
C494 C513 1.429 . S
C494 H518 0.950 . S
C495 C512 1.574 . S
C495 C514 1.368 . S
C495 H519 0.949 . S
H496 C500 0.949 . S
C497 C498 1.349 . S
C497 C499 1.327 . S
C497 H520 0.950 . S
C498 C497 1.349 . S
C498 C510 1.349 . S
C499 C497 1.327 . S
C499 C515 1.429 . S
C499 H521 0.950 . S
C500 H496 0.949 . S
C500 C508 1.574 . S
C500 C516 1.368 . S
H501 C509 0.950 . S
H502 C507 0.950 . S
H503 C508 0.949 . S
H504 C510 0.950 . S
H505 C511 0.950 . S
H506 C512 0.949 . S
C507 H502 0.950 . S
C507 C509 1.327 . S
C507 C513 1.429 . S
C508 C500 1.574 . S
C508 H503 0.949 . S
C508 C514 1.368 . S
C509 C493 1.349 . S
C509 H501 0.950 . S
C509 C507 1.327 . S
C510 C498 1.349 . S
C510 H504 0.950 . S
C510 C511 1.327 . S
C511 H505 0.950 . S
C511 C510 1.327 . S
C511 C515 1.429 . S
C512 C495 1.574 . S
C512 H506 0.949 . S
C512 C516 1.368 . S
C513 C494 1.429 . S
C513 C507 1.429 . S
C513 C514 1.523 . S
C514 C495 1.368 . S
C514 C508 1.368 . S
C514 C513 1.523 . S
C515 C499 1.429 . S
C515 C511 1.429 . S
C515 C516 1.523 . S
C516 C500 1.368 . S
C516 C512 1.368 . S
C516 C515 1.523 . S
H517 C492 0.950 . S
H518 C494 0.950 . S
H519 C495 0.949 . S
H520 C497 0.950 . S
H521 C499 0.950 . S
C522 C523 1.349 1_565 S
C522 C524 1.327 . S
C522 H547 0.950 . S
C523 C522 1.349 1_545 S
C523 C539 1.349 . S
C524 C522 1.327 . S
C524 C543 1.429 1_565 S
C524 H548 0.950 . S
C525 C542 1.574 . S
C525 C544 1.368 . S
C525 H549 0.949 . S
H526 C530 0.949 . S
C527 C528 1.349 1_545 S
C527 C529 1.327 . S
C527 H550 0.950 . S
C528 C527 1.349 1_565 S
C528 C540 1.349 . S
C529 C527 1.327 . S
C529 C545 1.429 . S
C529 H551 0.950 . S
C530 H526 0.949 . S
C530 C538 1.574 . S
C530 C546 1.368 1_565 S
H531 C539 0.950 . S
H532 C537 0.950 . S
H533 C538 0.949 . S
H534 C540 0.950 . S
H535 C541 0.950 . S
H536 C542 0.949 . S
C537 H532 0.950 . S
C537 C539 1.327 . S
C537 C543 1.429 . S
C538 C530 1.574 . S
C538 H533 0.949 . S
C538 C544 1.368 1_565 S
C539 C523 1.349 . S
C539 H531 0.950 . S
C539 C537 1.327 . S
C540 C528 1.349 . S
C540 H534 0.950 . S
C540 C541 1.327 . S
C541 H535 0.950 . S
C541 C540 1.327 . S
C541 C545 1.429 1_565 S
C542 C525 1.574 . S
C542 H536 0.949 . S
C542 C546 1.368 . S
C543 C524 1.429 1_545 S
C543 C537 1.429 . S
C543 C544 1.523 . S
C544 C525 1.368 . S
C544 C538 1.368 1_545 S
C544 C543 1.523 . S
C545 C529 1.429 . S
C545 C541 1.429 1_545 S
C545 C546 1.523 . S
C546 C530 1.368 1_545 S
C546 C542 1.368 . S
C546 C545 1.523 . S
H547 C522 0.950 . S
H548 C524 0.950 . S
H549 C525 0.949 . S
H550 C527 0.950 . S
H551 C529 0.950 . S
C552 C553 1.349 . S
C552 C554 1.327 . S
C552 H577 0.950 . S
C553 C552 1.349 . S
C553 C569 1.349 . S
C554 C552 1.327 . S
C554 C573 1.429 . S
C554 H578 0.950 . S
C555 C572 1.574 1_455 S
C555 C574 1.368 . S
C555 H579 0.949 1_455 S
H556 C560 0.949 . S
C557 C558 1.349 1_655 S
C557 C559 1.327 . S
C557 H580 0.950 . S
C558 C557 1.349 1_455 S
C558 C570 1.349 . S
C559 C557 1.327 . S
C559 C575 1.429 1_655 S
C559 H581 0.950 . S
C560 H556 0.949 . S
C560 C568 1.574 . S
C560 C576 1.368 . S
H561 C569 0.940 1_665 S
H562 C567 0.950 1_655 S
H563 C568 0.949 . S
H564 C570 0.950 . S
H565 C571 0.950 . S
H566 C572 0.949 . S
C567 H562 0.950 1_455 S
C567 C569 1.327 . S
C567 C573 1.429 . S
C568 C560 1.574 . S
C568 H563 0.949 . S
C568 C574 1.368 . S
C569 C553 1.349 . S
C569 H561 0.940 1_445 S
C569 C567 1.327 . S
C570 C558 1.349 . S
C570 H564 0.950 . S
C570 C571 1.327 . S
C571 H565 0.950 . S
C571 C570 1.327 . S
C571 C575 1.429 . S
C572 C555 1.574 1_655 S
C572 H566 0.949 . S
C572 C576 1.368 1_655 S
C573 C554 1.429 . S
C573 C567 1.429 . S
C573 C574 1.523 . S
C574 C555 1.368 . S
C574 C568 1.368 . S
C574 C573 1.523 . S
C575 C559 1.429 1_455 S
C575 C571 1.429 . S
C575 C576 1.523 . S
C576 C560 1.368 . S
C576 C572 1.368 1_455 S
C576 C575 1.523 . S
H577 C552 0.950 . S
H578 C554 0.950 . S
H579 C555 0.949 1_655 S
H580 C557 0.950 . S
H581 C559 0.950 . S
C582 C583 1.349 . S
C582 C584 1.327 . S
C582 H607 0.950 . S
C583 C582 1.349 . S
C583 C599 1.349 . S
C584 C582 1.327 . S
C584 C603 1.429 . S
C584 H608 0.950 . S
C585 C602 1.574 . S
C585 C604 1.368 . S
C585 H609 0.949 . S
H586 C590 0.949 . S
C587 C588 1.349 . S
C587 C589 1.327 . S
C587 H610 0.950 . S
C588 C587 1.349 . S
C588 C600 1.349 . S
C589 C587 1.327 . S
C589 C605 1.429 . S
C589 H611 0.950 . S
C590 H586 0.949 . S
C590 C598 1.574 . S
C590 C606 1.368 . S
H591 C599 0.950 . S
H592 C597 0.950 . S
H593 C598 0.949 . S
H594 C600 0.950 . S
H595 C601 0.950 . S
H596 C602 0.949 . S
C597 H592 0.950 . S
C597 C599 1.327 . S
C597 C603 1.429 . S
C598 C590 1.574 . S
C598 H593 0.949 . S
C598 C604 1.368 . S
C599 C583 1.349 . S
C599 H591 0.950 . S
C599 C597 1.327 . S
C600 C588 1.349 . S
C600 H594 0.950 . S
C600 C601 1.327 . S
C601 H595 0.950 . S
C601 C600 1.327 . S
C601 C605 1.429 . S
C602 C585 1.574 . S
C602 H596 0.949 . S
C602 C606 1.368 . S
C603 C584 1.429 . S
C603 C597 1.429 . S
C603 C604 1.523 . S
C604 C585 1.368 . S
C604 C598 1.368 . S
C604 C603 1.523 . S
C605 C589 1.429 . S
C605 C601 1.429 . S
C605 C606 1.523 . S
C606 C590 1.368 . S
C606 C602 1.368 . S
C606 C605 1.523 . S
H607 C582 0.950 . S
H608 C584 0.950 . S
H609 C585 0.949 . S
H610 C587 0.950 . S
H611 C589 0.950 . S
C612 C613 1.349 . S
C612 C614 1.327 . S
C612 H637 0.950 . S
C613 C612 1.349 . S
C613 C629 1.349 . S
C614 C612 1.327 . S
C614 C633 1.429 . S
C614 H638 0.950 . S
C615 C632 1.574 . S
C615 C634 1.368 . S
C615 H639 0.949 . S
H616 C620 0.949 . S
C617 C618 1.349 . S
C617 C619 1.327 . S
C617 H640 0.950 . S
C618 C617 1.349 . S
C618 C630 1.349 . S
C619 C617 1.327 . S
C619 C635 1.429 . S
C619 H641 0.950 . S
C620 H616 0.949 . S
C620 C628 1.574 . S
C620 C636 1.368 . S
H621 C629 0.950 . S
H622 C627 0.950 . S
H623 C628 0.949 . S
H624 C630 0.950 . S
H625 C631 0.950 . S
H626 C632 0.949 . S
C627 H622 0.950 . S
C627 C629 1.327 . S
C627 C633 1.429 . S
C628 C620 1.574 . S
C628 H623 0.949 . S
C628 C634 1.368 . S
C629 C613 1.349 . S
C629 H621 0.950 . S
C629 C627 1.327 . S
C630 C618 1.349 . S
C630 H624 0.950 . S
C630 C631 1.327 . S
C631 H625 0.950 . S
C631 C630 1.327 . S
C631 C635 1.429 . S
C632 C615 1.574 . S
C632 H626 0.949 . S
C632 C636 1.368 . S
C633 C614 1.429 . S
C633 C627 1.429 . S
C633 C634 1.523 . S
C634 C615 1.368 . S
C634 C628 1.368 . S
C634 C633 1.523 . S
C635 C619 1.429 . S
C635 C631 1.429 . S
C635 C636 1.523 . S
C636 C620 1.368 . S
C636 C632 1.368 . S
C636 C635 1.523 . S
H637 C612 0.950 . S
H638 C614 0.950 . S
H639 C615 0.949 . S
H640 C617 0.950 . S
H641 C619 0.950 . S
C288 C253 1.427 . S
C283 C16 1.244 . S
C313 C15 1.476 . S
C318 C193 1.495 . S
C343 C13 1.265 . S
C348 C223 1.383 . S
C373 C14 1.269 . S
C378 C163 1.260 . S
C403 C37 1.244 . S
C408 C133 1.428 . S
C433 C36 1.476 . S
C438 C73 1.495 . S
C468 C103 1.383 . S
C463 C34 1.264 . S
C498 C43 1.260 . S
C493 C35 1.269 . S
C523 C17 1.519 . S
C528 C62 1.530 1_565 S
C553 C18 1.368 . S
C558 C122 1.392 1_455 S
C588 C182 1.530 . S
C583 C38 1.519 . S
C613 C39 1.368 . S
C618 C242 1.393 . S
