# Generated by pormake.
# Topology anh, (6,3)-cn, num edge types: 1
# Building blocks:
#     Node 0, Type 0, BuildingBlock: BETDIP_clean_sbu_0, # of connection points: 6
#     Node 1, Type 0, BuildingBlock: BETDIP_clean_sbu_0, # of connection points: 6
#     Node 2, Type 0, BuildingBlock: BETDIP_clean_sbu_0, # of connection points: 6
#     Node 3, Type 1, BuildingBlock: PAMTOO_clean_linker_0, # of connection points: 3
#     Node 4, Type 1, BuildingBlock: PAMTOO_clean_linker_0, # of connection points: 3
#     Node 5, Type 1, BuildingBlock: PAMTOO_clean_linker_0, # of connection points: 3
#     Node 6, Type 1, BuildingBlock: PAMTOO_clean_linker_0, # of connection points: 3
#     Node 7, Type 1, BuildingBlock: PAMTOO_clean_linker_0, # of connection points: 3
#     Node 8, Type 1, BuildingBlock: PAMTOO_clean_linker_0, # of connection points: 3
#     Edge 9, Type (0, 1), BuildingBlock: EZIPEK_clean_linker_0, # of connection points: 2
#     Edge 10, Type (0, 1), BuildingBlock: EZIPEK_clean_linker_0, # of connection points: 2
#     Edge 11, Type (0, 1), BuildingBlock: EZIPEK_clean_linker_0, # of connection points: 2
#     Edge 12, Type (0, 1), BuildingBlock: EZIPEK_clean_linker_0, # of connection points: 2
#     Edge 13, Type (0, 1), BuildingBlock: EZIPEK_clean_linker_0, # of connection points: 2
#     Edge 14, Type (0, 1), BuildingBlock: EZIPEK_clean_linker_0, # of connection points: 2
#     Edge 15, Type (0, 1), BuildingBlock: EZIPEK_clean_linker_0, # of connection points: 2
#     Edge 16, Type (0, 1), BuildingBlock: EZIPEK_clean_linker_0, # of connection points: 2
#     Edge 17, Type (0, 1), BuildingBlock: EZIPEK_clean_linker_0, # of connection points: 2
#     Edge 18, Type (0, 1), BuildingBlock: EZIPEK_clean_linker_0, # of connection points: 2
#     Edge 19, Type (0, 1), BuildingBlock: EZIPEK_clean_linker_0, # of connection points: 2
#     Edge 20, Type (0, 1), BuildingBlock: EZIPEK_clean_linker_0, # of connection points: 2
#     Edge 21, Type (0, 1), BuildingBlock: EZIPEK_clean_linker_0, # of connection points: 2
#     Edge 22, Type (0, 1), BuildingBlock: EZIPEK_clean_linker_0, # of connection points: 2
#     Edge 23, Type (0, 1), BuildingBlock: EZIPEK_clean_linker_0, # of connection points: 2
#     Edge 24, Type (0, 1), BuildingBlock: EZIPEK_clean_linker_0, # of connection points: 2
#     Edge 25, Type (0, 1), BuildingBlock: EZIPEK_clean_linker_0, # of connection points: 2
#     Edge 26, Type (0, 1), BuildingBlock: EZIPEK_clean_linker_0, # of connection points: 2
# Relax obj value: 0.382
# Max RMSD: 0.159
# Mean RMSD: 0.122
data_MOF--net-anh--node1-BETDIP_clean_sbu_0--node2-PAMTOO_clean_linker_0--edge1-EZIPEK_clean_linker_0
_symmetry_space_group_name_H-M    P1
_symmetry_Int_Tables_number       1
_symmetry_cell_setting            triclinic
loop_
_symmetry_equiv_pos_as_xyz
'x, y, z'
_cell_length_a     21.497194
_cell_length_b     21.67679
_cell_length_c     36.802075
_cell_angle_alpha  85.276934
_cell_angle_beta   93.078491
_cell_angle_gamma 120.04579
loop_
_atom_site_label
_atom_site_type_symbol
_atom_site_fract_x
_atom_site_fract_y
_atom_site_fract_z
_atom_type_partial_charge
Tb0 Tb 0.29542 0.67632 0.11988 0.0
Tb1 Tb 1.20972 0.51953 0.12907 0.0
C2 C 0.38443 0.80198 0.13488 0.0
C3 C 0.38527 0.86265 0.15016 0.0
C4 C 0.33089 0.85299 0.1734 0.0
C5 C 0.33563 0.91166 0.1893 0.0
C6 C 0.39457 0.98017 0.18196 0.0
C7 C 0.44767 0.98981 0.15797 0.0
C8 C 0.4431 0.93132 0.14224 0.0
C9 C 0.24914 0.6154 0.0582 0.0
C10 C 0.37626 0.58293 0.12017 0.0
C11 C 1.1114 0.39492 0.11829 0.0
C12 C 1.0331 0.36199 0.12301 0.0
C13 C 0.98472 0.32186 0.09565 0.0
C14 C 0.91089 0.2969 0.09852 0.0
C15 C 0.88489 0.31163 0.12893 0.0
C16 C 0.93324 0.35125 0.15627 0.0
C17 C 1.00654 0.37645 0.15332 0.0
C18 C 0.25118 0.58171 0.19148 0.0
C19 C 1.12857 0.61232 0.11801 0.0
O20 O 0.3538 0.78497 0.10278 0.0
O21 O 0.36774 0.74601 0.1574 0.0
O22 O 0.27103 0.59237 0.08574 0.0
O23 O 0.26214 0.67944 0.06309 0.0
O24 O 0.38069 0.6466 0.11877 0.0
O25 O 0.31273 0.52364 0.12281 0.0
O26 O 1.13839 0.4458 0.09233 0.0
O27 O 1.15111 0.41193 0.14809 0.0
O28 O 0.2302 0.60382 0.16309 0.0
O29 O 0.24535 0.52078 0.1857 0.0
O30 O 1.12517 0.5495 0.12373 0.0
O31 O 1.19136 0.67234 0.1189 0.0
H32 H 0.28569 0.80018 0.17966 0.0
H33 H 0.29423 0.90362 0.20775 0.0
H34 H 0.49329 1.04245 0.15201 0.0
H35 H 0.48534 0.93954 0.12432 0.0
H36 H 1.00426 0.31132 0.07171 0.0
H37 H 0.87436 0.26716 0.07695 0.0
H38 H 0.91419 0.36381 0.17972 0.0
H39 H 1.04257 0.4087 0.17441 0.0
Tb40 Tb 0.83384 0.15532 0.45701 0.0
Tb41 Tb 0.76397 0.23168 0.47168 0.0
C42 C 0.88615 1.07443 0.46164 0.0
C43 C 0.88186 1.00614 0.45556 0.0
C44 C 0.8717 0.95864 0.48585 0.0
C45 C 0.89332 0.90821 0.4848 0.0
C46 C 0.92525 0.90414 0.45343 0.0
C47 C 0.92666 0.94494 0.42157 0.0
C48 C 0.90574 0.9964 0.42272 0.0
C49 C 0.80289 0.21248 0.39758 0.0
C50 C 0.6601 1.07013 0.45533 0.0
C51 C 0.73241 0.32507 0.48284 0.0
C52 C 0.77283 0.37836 0.50978 0.0
C53 C 0.77451 0.44399 0.50888 0.0
C54 C 0.824 0.49758 0.53112 0.0
C55 C 0.87374 0.48648 0.55308 0.0
C56 C 0.86832 0.41934 0.55554 0.0
C57 C 0.81817 0.36583 0.53432 0.0
C58 C 0.79952 0.17993 0.53242 0.0
C59 C 0.93506 0.31769 0.45575 0.0
O60 O 0.84726 1.07646 0.48729 0.0
O61 O 0.89491 1.11888 0.43356 0.0
O62 O 0.76384 0.18278 0.42479 0.0
O63 O 0.85764 0.20297 0.40093 0.0
O64 O 0.71981 1.06569 0.45879 0.0
O65 O 0.66571 1.13427 0.45499 0.0
O66 O 0.77012 0.32986 0.45498 0.0
O67 O 0.69644 0.25944 0.49665 0.0
O68 O 0.83812 0.20974 0.50458 0.0
O69 O 0.7387 0.17626 0.52532 0.0
O70 O 0.87384 0.31914 0.45465 0.0
O71 O 0.93262 0.25641 0.46421 0.0
H72 H 0.85379 0.96495 0.51154 0.0
H73 H 0.89121 0.87683 0.50971 0.0
H74 H 0.94922 0.94114 0.3968 0.0
H75 H 0.91401 1.03225 0.39886 0.0
H76 H 0.73997 0.45471 0.49013 0.0
H77 H 0.82665 0.54892 0.52945 0.0
H78 H 0.90537 0.40944 0.57268 0.0
H79 H 0.81811 0.31592 0.53542 0.0
Tb80 Tb 0.75871 0.7055 0.80223 0.0
Tb81 Tb 0.9188 0.76792 0.79373 0.0
C82 C 0.63927 0.67103 0.82829 0.0
C83 C 0.56981 0.607 0.83556 0.0
C84 C 0.55683 0.53932 0.82751 0.0
C85 C 0.49095 0.47864 0.83639 0.0
C86 C 0.438 0.4855 0.85339 0.0
C87 C 0.45108 0.55323 0.86118 0.0
C88 C 0.51666 0.61368 0.85226 0.0
C89 C 0.80191 0.71706 0.73562 0.0
C90 C 0.85829 0.87729 0.79278 0.0
C91 C 1.04431 0.81648 0.7728 0.0
C92 C 1.08799 0.781 0.77673 0.0
C93 C 1.11677 0.7709 0.74577 0.0
C94 C 1.1432 0.72317 0.7479 0.0
C95 C 1.14066 0.68497 0.78102 0.0
C96 C 1.11625 0.69853 0.81231 0.0
C97 C 1.09004 0.74588 0.81024 0.0
C98 C 0.86935 0.71672 0.86035 0.0
C99 C 0.81688 0.59847 0.79285 0.0
O100 O 0.6554 0.6917 0.79396 0.0
O101 O 0.69346 0.67431 0.84788 0.0
O102 O 0.83314 0.75943 0.7602 0.0
O103 O 0.73948 0.66633 0.74706 0.0
O104 O 0.79245 0.82054 0.79527 0.0
O105 O 0.91594 0.86911 0.79348 0.0
O106 O 0.98792 0.78526 0.75121 0.0
O107 O 1.02927 0.83452 0.80302 0.0
O108 O 0.8498 0.75056 0.83768 0.0
O109 O 0.9226 0.71498 0.84671 0.0
O110 O 0.87686 0.65555 0.78061 0.0
O111 O 0.7663 0.60657 0.80772 0.0
H112 H 0.59775 0.53353 0.81477 0.0
H113 H 0.48138 0.4265 0.83032 0.0
H114 H 0.41067 0.55912 0.8744 0.0
H115 H 0.52623 0.66562 0.85878 0.0
H116 H 1.11515 0.79689 0.71961 0.0
H117 H 1.16195 0.71326 0.7235 0.0
H118 H 1.11394 0.66944 0.83809 0.0
H119 H 1.06761 0.75165 0.83453 0.0
H120 H 0.73889 0.2601 0.23621 0.0
H121 H 0.58719 0.279 0.29884 0.0
H122 H 0.56919 0.28361 0.18162 0.0
H123 H 0.40582 0.25324 0.23688 0.0
C124 C 0.44411 0.23641 0.24848 0.0
O125 O 0.51367 0.29162 0.24203 0.0
H126 H 0.43256 0.23026 0.27784 0.0
C127 C 0.69202 0.26645 0.23722 0.0
C128 C 0.65781 0.27258 0.20487 0.0
C129 C 0.66628 0.26751 0.27094 0.0
C130 C 0.60689 0.27734 0.27267 0.0
C131 C 0.5716 0.28291 0.24045 0.0
C132 C 0.59645 0.27944 0.20651 0.0
H133 H 0.94014 0.80976 0.57194 0.0
H134 H 1.0529 0.76335 0.65982 0.0
H135 H 1.12871 0.79814 0.55024 0.0
H136 H 1.13828 0.68338 0.65537 0.0
C137 C 1.13552 0.69432 0.62569 0.0
O138 O 1.14872 0.7639 0.61868 0.0
H139 H 1.18175 0.69074 0.61648 0.0
C140 C 0.98534 0.80342 0.5816 0.0
C141 C 1.03483 0.80794 0.55674 0.0
C142 C 0.99106 0.78618 0.61851 0.0
C143 C 1.04884 0.77741 0.63123 0.0
C144 C 1.09827 0.78117 0.6067 0.0
C145 C 1.09122 0.79636 0.56937 0.0
H146 H 1.1836 0.55834 0.89145 0.0
H147 H 1.13756 0.3628 0.95224 0.0
H148 H 1.12915 0.37091 0.83509 0.0
H149 H 1.13034 0.2119 0.88059 0.0
C150 C 1.15297 0.25904 0.89714 0.0
O151 O 1.10758 0.28761 0.89459 0.0
H152 H 1.14979 0.23347 0.92473 0.0
C153 C 1.16835 0.50241 0.89187 0.0
C154 C 1.15384 0.46867 0.85896 0.0
C155 C 1.1649 0.46538 0.92537 0.0
C156 C 1.14262 0.39241 0.92634 0.0
C157 C 1.12898 0.35818 0.89374 0.0
C158 C 1.13706 0.397 0.86013 0.0
H159 H 1.15985 0.53808 0.34967 0.0
H160 H 0.35876 0.73786 0.34864 0.0
H161 H 0.25359 0.63689 0.45067 0.0
H162 H 0.33566 0.80602 0.44808 0.0
C163 C 0.37141 0.81517 0.42511 0.0
O164 O 0.3687 0.75093 0.41923 0.0
H165 H 0.34844 0.82845 0.40004 0.0
C166 C 1.20153 0.58187 0.36435 0.0
C167 C 1.19796 0.57978 0.40261 0.0
C168 C 0.25932 0.63783 0.34475 0.0
C169 C 0.31392 0.69483 0.36359 0.0
C170 C 0.31229 0.69596 0.40173 0.0
C171 C 0.25426 0.63766 0.42124 0.0
H172 H 0.84991 1.10289 0.69653 0.0
H173 H 0.83776 0.29535 0.69116 0.0
H174 H 0.85911 0.20078 0.79571 0.0
H175 H 0.75966 0.27375 0.79417 0.0
C176 C 0.7853 0.31168 0.77024 0.0
O177 O 0.8477 0.31073 0.76184 0.0
H178 H 0.74857 0.29132 0.74631 0.0
C179 C 0.84945 0.14489 0.71044 0.0
C180 C 0.85504 0.14379 0.74869 0.0
C181 C 0.8434 0.19879 0.68952 0.0
C182 C 0.84243 0.25365 0.70724 0.0
C183 C 0.84699 0.25497 0.74563 0.0
C184 C 0.85392 0.19974 0.76631 0.0
H185 H 0.92619 0.67223 0.01965 0.0
H186 H 0.71918 0.65677 0.02215 0.0
H187 H 0.81083 0.61129 0.12067 0.0
H188 H 0.64656 0.53064 0.12159 0.0
C189 C 0.63803 0.56164 0.09826 0.0
O190 O 0.7011 0.62677 0.0925 0.0
H191 H 0.62842 0.53227 0.07334 0.0
C192 C 0.8802 0.66261 0.03506 0.0
C193 C 0.87625 0.64083 0.07236 0.0
C194 C 0.82326 0.66646 0.01664 0.0
C195 C 0.76302 0.65333 0.03624 0.0
C196 C 0.75866 0.63517 0.07392 0.0
C197 C 0.81498 0.62766 0.09188 0.0
C198 C 0.44267 0.52849 0.09209 0.0
C199 C 0.44375 0.57832 0.11542 0.0
C200 C 0.57302 0.6188 0.12886 0.0
C201 C 0.57056 0.56751 0.10593 0.0
N202 N 0.4915 0.45318 0.08086 0.0
N203 N 0.50817 0.6615 0.16181 0.0
C204 C 0.50207 0.51642 0.09202 0.0
C205 C 0.50876 0.62145 0.13514 0.0
N206 N 0.38601 0.49369 0.06871 0.0
N207 N 0.63608 0.66352 0.14592 0.0
H208 H 0.46302 0.6642 0.16799 0.0
H209 H 0.55045 0.68758 0.18012 0.0
H210 H 0.67944 0.65457 0.14855 0.0
H211 H 0.64564 0.70981 0.15745 0.0
H212 H 0.3869 0.46336 0.04838 0.0
H213 H 0.34166 0.50098 0.06665 0.0
H214 H 0.44099 0.41182 0.07364 0.0
H215 H 0.53009 0.4374 0.08387 0.0
C216 C 1.02415 0.45253 0.4573 0.0
C217 C 1.00661 0.38469 0.44546 0.0
C218 C 1.12602 0.44487 0.41604 0.0
C219 C 1.13646 0.51357 0.42179 0.0
N220 N 1.08695 0.58091 0.4444 0.0
N221 N 1.04063 0.3211 0.40688 0.0
C222 C 1.08339 0.51688 0.44167 0.0
C223 C 1.05781 0.38204 0.42326 0.0
N224 N 0.98704 0.45578 0.48519 0.0
N225 N 1.18192 0.43926 0.40405 0.0
H226 H 0.99113 0.27469 0.40935 0.0
H227 H 1.07298 0.3191 0.38744 0.0
H228 H 0.23283 0.48356 0.39945 0.0
H229 H 1.17995 0.39046 0.40272 0.0
H230 H 1.00398 0.50263 0.49807 0.0
H231 H 0.94651 0.41027 0.49865 0.0
H232 H 1.04469 0.58462 0.45448 0.0
H233 H 1.12864 0.62907 0.43351 0.0
C234 C 0.91755 1.00624 0.76246 0.0
C235 C 0.86583 0.9517 0.78675 0.0
C236 C 0.81063 1.02824 0.79067 0.0
C237 C 0.86449 1.08365 0.76801 0.0
N238 N 0.98218 1.13244 0.74295 0.0
N239 N 0.7789 0.9253 0.8331 0.0
C240 C 0.92231 1.07483 0.7577 0.0
C241 C 0.81719 0.96722 0.80363 0.0
N242 N 0.95895 0.99211 0.7415 0.0
N243 N 0.75129 1.03174 0.7987 0.0
H244 H 0.78589 0.88384 0.84509 0.0
H245 H 0.74727 0.93735 0.8483 0.0
H246 H 0.74442 1.07497 0.79003 0.0
H247 H 0.70661 0.98922 0.81155 0.0
H248 H 0.99143 1.0278 0.72079 0.0
H249 H 0.9552 0.94247 0.74137 0.0
H250 H 1.02887 1.13131 0.73797 0.0
H251 H 0.98769 0.18324 0.73961 0.0
C252 C 1.04542 0.66301 0.12641 0.0
C253 C 1.05965 0.61462 0.10934 0.0
C254 C 0.94541 0.5741 0.07397 0.0
C255 C 0.93465 0.62666 0.08884 0.0
N256 N 0.98017 0.72797 0.12547 0.0
N257 N 1.01615 0.51642 0.0697 0.0
C258 C 0.98584 0.67239 0.11435 0.0
C259 C 1.00747 0.56789 0.08404 0.0
N260 N 1.08648 0.69727 0.15574 0.0
N261 N 0.8975 0.53225 0.04836 0.0
H262 H 1.06362 0.51481 0.07096 0.0
H263 H 0.97602 0.47377 0.05612 0.0
H264 H 0.84691 0.5273 0.0442 0.0
H265 H 0.90733 0.50297 0.03079 0.0
H266 H 1.07435 0.72681 0.17201 0.0
H267 H 1.12854 0.69021 0.16637 0.0
H268 H 1.02037 0.76895 0.14005 0.0
H269 H 0.93753 0.73642 0.1177 0.0
C270 C 0.56435 0.93703 0.46815 0.0
C271 C 0.58744 1.0038 0.44771 0.0
C272 C 0.46686 0.95012 0.41828 0.0
C273 C 0.4478 0.88002 0.43346 0.0
N274 N 0.47992 0.80938 0.47616 0.0
N275 N 0.56218 1.06552 0.39636 0.0
C276 C 0.49739 0.87426 0.45913 0.0
C277 C 0.53923 1.00763 0.42073 0.0
N278 N 0.60363 0.93441 0.49808 0.0
N279 N 0.41516 0.96443 0.40375 0.0
H280 H 0.61438 1.10845 0.39611 0.0
H281 H 0.53128 1.06699 0.37382 0.0
H282 H 0.36027 0.92827 0.40527 0.0
H283 H 0.42606 1.0159 0.39519 0.0
H284 H 0.58655 0.89029 0.51663 0.0
H285 H 0.65036 0.9788 0.50666 0.0
H286 H 0.51721 0.79888 0.49032 0.0
H287 H 0.42841 0.76521 0.47557 0.0
C288 C 0.86251 0.50776 0.8017 0.0
C289 C 0.80696 0.52349 0.7899 0.0
C290 C 0.73461 0.39812 0.77149 0.0
C291 C 0.79404 0.386 0.77827 0.0
N292 N 0.89695 0.41754 0.81761 0.0
N293 N 0.68934 0.48059 0.76173 0.0
C294 C 0.85353 0.43781 0.79817 0.0
C295 C 0.74271 0.46754 0.77467 0.0
N296 N 0.92419 0.55937 0.81702 0.0
N297 N 0.66759 0.34132 0.76546 0.0
H298 H 0.68932 0.52776 0.76484 0.0
H299 H 0.64734 0.44667 0.745 0.0
H300 H 0.65641 0.28862 0.76613 0.0
H301 H 0.62077 0.34445 0.7648 0.0
H302 H 0.9705 0.55563 0.8212 0.0
H303 H 0.93017 0.60724 0.82462 0.0
H304 H 0.93631 0.44924 0.83609 0.0
H305 H 0.88788 0.36549 0.81886 0.0
C306 C 1.04062 0.90885 0.46725 0.0
C307 C 0.96723 0.86672 0.45774 0.0
C308 C 0.95691 0.77112 0.50068 0.0
C309 C 1.02274 0.8206 0.51743 0.0
N310 N 1.13155 0.93576 0.51466 0.0
N311 N 0.86372 0.7503 0.4558 0.0
C312 C 1.06736 0.88845 0.49938 0.0
C313 C 0.92954 0.79455 0.47041 0.0
N314 N 1.08313 0.96955 0.44643 0.0
N315 N 0.91595 0.70317 0.51507 0.0
H316 H 0.84263 0.76786 0.43372 0.0
H317 H 0.83235 0.69692 0.46518 0.0
H318 H 0.9309 0.68214 0.53817 0.0
H319 H 0.9309 0.68214 0.53817 0.0
H320 H 1.13845 1.00054 0.45033 0.0
H321 H 1.06378 0.98426 0.4227 0.0
H322 H 1.16195 0.98898 0.50516 0.0
H323 H 1.15318 0.923 0.53811 0.0
C324 C 1.0979 0.55505 0.78041 0.0
C325 C 1.15627 0.6253 0.78369 0.0
C326 C 0.22478 0.57797 0.81846 0.0
C327 C 1.16005 0.5122 0.82421 0.0
N328 N 1.042 0.42954 0.80093 0.0
N329 N 0.27971 0.70414 0.79933 0.0
C330 C 1.099 0.49741 0.80156 0.0
C331 C 0.22202 0.63656 0.79979 0.0
N332 N 1.03942 0.54532 0.75958 0.0
N333 N 0.28791 0.58381 0.83178 0.0
H334 H 0.2788 0.74693 0.78455 0.0
H335 H 0.32717 0.71804 0.814 0.0
H336 H 0.28994 0.5403 0.84501 0.0
H337 H 0.33808 0.62874 0.82699 0.0
H338 H 0.99208 0.49691 0.75743 0.0
H339 H 1.03876 0.58705 0.74365 0.0
H340 H 1.00063 0.41333 0.78164 0.0
H341 H 1.037 0.38739 0.81851 0.0
C342 C 0.42791 1.05284 0.23687 0.0
C343 C 0.40303 1.04228 0.2003 0.0
C344 C 0.4112 0.15917 0.19424 0.0
C345 C 0.42888 0.16743 0.23211 0.0
N346 N 0.4521 1.11975 0.29023 0.0
N347 N 0.3596 1.07542 0.14614 0.0
C348 C 0.43643 1.11348 0.25373 0.0
C349 C 0.39123 1.09301 0.17966 0.0
N350 N 0.44666 1.0066 0.25488 0.0
N351 N 0.41771 0.21559 0.17177 0.0
H352 H 0.34307 1.10608 0.12955 0.0
H353 H 0.34307 1.10608 0.12955 0.0
H354 H 0.43495 0.26618 0.1806 0.0
H355 H 0.41411 0.21502 0.14347 0.0
H356 H 0.47255 1.01492 0.28019 0.0
H357 H 0.4409 0.96159 0.24338 0.0
H358 H 0.447 1.07765 0.30804 0.0
H359 H 0.46819 0.16584 0.30365 0.0
C360 C 0.93919 0.54355 0.61034 0.0
C361 C 0.93577 0.54488 0.57173 0.0
C362 C 1.06322 0.63564 0.56897 0.0
C363 C 1.06573 0.63912 0.60755 0.0
N364 N 0.99797 0.60844 0.66354 0.0
N365 N 0.9899 0.60609 0.51434 0.0
C366 C 1.00152 0.59653 0.62797 0.0
C367 C 0.99628 0.59502 0.55109 0.0
N368 N 0.88255 0.49198 0.63029 0.0
N369 N 1.12468 0.67075 0.54896 0.0
H370 H 0.9433 0.57575 0.49931 0.0
H371 H 1.02919 0.65015 0.49931 0.0
H372 H 1.17502 0.70625 0.55944 0.0
H373 H 1.12623 0.6614 0.52177 0.0
H374 H 0.88564 0.48244 0.65837 0.0
H375 H 0.83354 0.4562 0.61849 0.0
H376 H 0.95017 0.58382 0.67797 0.0
H377 H 1.03986 0.64813 0.67791 0.0
C378 C 0.35569 0.39757 0.90077 0.0
C379 C 0.36847 0.42199 0.86366 0.0
C380 C 0.24547 0.33237 0.84767 0.0
C381 C 0.22977 0.3135 0.88553 0.0
N382 N 0.26821 0.34209 0.94838 0.0
N383 N 0.32403 0.42085 0.80211 0.0
C384 C 0.28437 0.34962 0.91224 0.0
C385 C 0.31318 0.39125 0.83711 0.0
N386 N 0.41198 0.42029 0.92514 0.0
N387 N 1.19565 0.29512 0.82159 0.0
H388 H 0.37325 0.46326 0.79311 0.0
H389 H 0.28293 0.40721 0.78269 0.0
H390 H 1.14246 0.25688 0.82699 0.0
H391 H 1.20812 0.30005 0.79416 0.0
H392 H 0.40712 0.3984 0.95183 0.0
H393 H 0.46499 0.45606 0.91767 0.0
H394 H 0.30504 0.37309 0.96799 0.0
H395 H 0.21678 0.31154 0.95882 0.0
C396 C 0.7894 0.34412 0.12883 0.0
C397 C 0.80797 0.28991 0.13254 0.0
C398 C 0.69604 0.21175 0.1648 0.0
C399 C 0.68988 0.27244 0.17021 0.0
N400 N 0.7264 0.39617 0.15462 0.0
N401 N 0.77556 0.16824 0.15014 0.0
C402 C 0.73367 0.33808 0.15037 0.0
C403 C 0.75907 0.2216 0.14841 0.0
N404 N 0.82675 0.40206 0.1054 0.0
N405 N 0.64324 0.14592 0.17732 0.0
H406 H 0.82065 0.17397 0.13755 0.0
H407 H 0.7462 1.11959 0.16495 0.0
H408 H 0.59751 1.1391 0.18983 0.0
H409 H 0.64171 1.09849 0.17255 0.0
H410 H 0.81189 0.44065 0.0992 0.0
H411 H 0.86753 0.40645 0.08938 0.0
H412 H 0.76315 0.44778 0.14483 0.0
H413 H 0.68497 0.3934 0.16934 0.0
C414 C 0.27959 0.5684 0.00566 0.0
C415 C 0.23095 0.58349 0.02219 0.0
C416 C 1.14093 0.52454 0.9743 0.0
C417 C 1.18734 0.50499 0.95914 0.0
N418 N 0.30128 0.50865 0.95892 0.0
N419 N 1.1285 0.60089 0.01414 0.0
C420 C 0.25701 0.52725 0.97437 0.0
C421 C 1.16549 0.56908 0.00413 0.0
N422 N 0.34938 0.59944 0.01784 0.0
N423 N 1.07206 0.4979 0.96121 0.0
H424 H 1.14421 0.63381 0.03581 0.0
H425 H 1.08531 0.59939 -0.00085 0.0
H426 H 1.05203 0.46519 0.93932 0.0
H427 H 1.03295 0.50306 0.97397 0.0
H428 H 0.39003 0.5967 0.00527 0.0
H429 H 0.3686 0.63355 0.03916 0.0
H430 H 0.34888 0.51494 0.9709 0.0
H431 H 0.28895 0.48375 0.9344 0.0
C432 C 0.72049 0.16907 0.34392 0.0
C433 C 0.775 0.22708 0.3625 0.0
C434 C 0.7586 0.31241 0.32111 0.0
C435 C 0.70074 0.25404 0.30406 0.0
N436 N 0.62203 1.12739 0.29986 0.0
N437 N 0.85823 0.35279 0.36479 0.0
C438 C 0.68065 0.18242 0.31552 0.0
C439 C 0.79768 0.29864 0.34995 0.0
N440 N 0.70903 1.1016 0.35269 0.0
N441 N 0.77496 0.38063 0.30999 0.0
H442 H 0.88981 0.3433 0.38435 0.0
H443 H 0.88103 0.40637 0.35594 0.0
H444 H 0.74796 0.39224 0.28854 0.0
H445 H 0.81245 0.42584 0.3229 0.0
H446 H 0.67479 1.05735 0.33818 0.0
H447 H 0.73821 1.09046 0.37312 0.0
H448 H 0.5995 1.07417 0.30944 0.0
H449 H 0.59236 1.1352 0.27847 0.0
C450 C 0.83538 0.67567 0.6814 0.0
C451 C 0.8322 0.73002 0.69878 0.0
C452 C 0.92617 0.82193 0.6592 0.0
C453 C 0.93143 0.76781 0.64309 0.0
N454 N 0.87393 0.64454 0.62874 0.0
N455 N 0.8521 0.85006 0.69391 0.0
C456 C 0.88038 0.69498 0.65091 0.0
C457 C 0.87048 0.80182 0.68428 0.0
N458 N 0.799 0.60641 0.69493 0.0
N459 N 0.97554 0.89215 0.65157 0.0
H460 H 0.80917 0.83561 0.71109 0.0
H461 H 0.8738 0.90162 0.68173 0.0
H462 H 1.01626 0.90871 0.63267 0.0
H463 H 0.97872 0.93338 0.66571 0.0
H464 H 0.80801 0.56677 0.68657 0.0
H465 H 0.76192 0.5892 0.71556 0.0
H466 H 0.83233 0.59169 0.63086 0.0
H467 H 0.90585 0.65724 0.60592 0.0
C468 C 0.88482 0.23987 0.58673 0.0
C469 C 0.8232 0.18054 0.57176 0.0
C470 C 0.77424 1.13749 0.63354 0.0
C471 C 0.8362 0.19497 0.64874 0.0
N472 N 0.95774 0.29151 0.64069 0.0
N473 N 0.72243 1.06225 0.58271 0.0
C474 C 0.89367 0.24345 0.62557 0.0
C475 C 0.77233 1.12604 0.59589 0.0
N476 N 0.9339 0.29411 0.56439 0.0
N477 N 0.71568 1.09515 0.65479 0.0
H478 H 0.72132 1.05131 0.55552 0.0
H479 H 0.68798 1.01793 0.59934 0.0
H480 H 0.71408 1.1027 0.68228 0.0
H481 H 0.66633 1.05715 0.64433 0.0
H482 H 0.97357 0.34279 0.57366 0.0
H483 H 0.93409 0.29238 0.53633 0.0
H484 H 1.00439 0.32269 0.62575 0.0
H485 H 0.96603 0.29605 0.66876 0.0
C486 C 0.86667 0.76078 0.92151 0.0
C487 C 0.85246 0.70323 0.90004 0.0
C488 C 0.81153 0.62024 0.95475 0.0
C489 C 0.82518 0.6777 0.97599 0.0
N490 N 0.85325 0.79932 0.97938 0.0
N491 N 0.80734 0.57752 0.89522 0.0
C492 C 0.8485 0.74687 0.9592 0.0
C493 C 0.82385 0.63275 0.91646 0.0
N494 N 0.90235 0.82945 0.90659 0.0
N495 N 0.7878 0.55374 0.97159 0.0
H496 H 0.82013 0.58504 0.86778 0.0
H497 H 0.77869 0.52384 0.90404 0.0
H498 H 0.77122 0.54122 -0.00138 0.0
H499 H 0.78571 0.5111 0.95943 0.0
H500 H 0.92129 0.87428 0.92157 0.0
H501 H 0.91925 0.8426 0.87964 0.0
H502 H 0.86186 0.8486 0.96819 0.0
H503 H 0.84282 0.79158 0.00723 0.0
C504 C 1.20487 0.61793 0.24382 0.0
C505 C 0.25782 0.60585 0.22939 0.0
C506 C 0.31317 0.61631 0.29078 0.0
C507 C 0.26353 0.63355 0.30442 0.0
N508 N 1.17288 0.66689 0.29187 0.0
N509 N 0.37074 0.60771 0.23809 0.0
C510 C 1.21306 0.6398 0.28017 0.0
C511 C 0.3146 0.60962 0.25261 0.0
N512 N 1.14366 0.603 0.22423 0.0
N513 N 0.35658 0.60251 0.31446 0.0
H514 H 0.37339 0.60195 0.21048 0.0
H515 H 0.41752 0.61824 0.2527 0.0
H516 H 0.35725 0.60641 0.34254 0.0
H517 H 0.38761 0.58138 0.30667 0.0
H518 H 1.10028 0.6039 0.23495 0.0
H519 H 1.13231 0.58203 0.19873 0.0
H520 H 1.14054 0.67965 0.27446 0.0
H521 H 1.17744 0.6832 0.31826 0.0
loop_
_geom_bond_atom_site_label_1
_geom_bond_atom_site_label_2
_geom_bond_distance
_geom_bond_site_symmetry_2
_ccdc_geom_bond_type
Tb0 C2 2.809 . S
Tb0 O20 2.484 . S
Tb0 O21 2.440 . S
Tb0 O22 2.658 . S
Tb0 O23 2.409 . S
Tb0 O24 2.378 . S
Tb0 O28 2.325 . S
Tb0 O31 2.341 1_455 S
Tb1 C11 2.809 . S
Tb1 O22 2.325 1_655 S
Tb1 O25 2.341 1_655 S
Tb1 O26 2.484 . S
Tb1 O27 2.440 . S
Tb1 O28 2.658 1_655 S
Tb1 O29 2.409 . S
Tb1 O30 2.378 . S
C2 Tb0 2.809 . S
C2 C3 1.514 . S
C2 O20 1.248 . S
C2 O21 1.266 . S
C3 C2 1.514 . S
C3 C4 1.359 . S
C3 C8 1.348 . S
C4 C3 1.359 . S
C4 C5 1.380 . S
C4 H32 0.929 . S
C5 C4 1.380 . S
C5 C6 1.347 . S
C5 H33 0.931 . S
C6 C5 1.347 . S
C6 C7 1.369 . S
C7 C6 1.369 . S
C7 C8 1.408 . S
C7 H34 0.930 . S
C8 C3 1.348 . S
C8 C7 1.408 . S
C8 H35 0.930 . S
C9 O22 1.281 . S
C9 O23 1.254 . S
C10 O24 1.236 . S
C10 O25 1.266 . S
C11 Tb1 2.809 . S
C11 C12 1.514 . S
C11 O26 1.248 . S
C11 O27 1.266 . S
C12 C11 1.514 . S
C12 C13 1.359 . S
C12 C17 1.348 . S
C13 C12 1.359 . S
C13 C14 1.380 . S
C13 H36 0.929 . S
C14 C13 1.380 . S
C14 C15 1.347 . S
C14 H37 0.931 . S
C15 C14 1.347 . S
C15 C16 1.369 . S
C16 C15 1.369 . S
C16 C17 1.408 . S
C16 H38 0.930 . S
C17 C12 1.348 . S
C17 C16 1.408 . S
C17 H39 0.930 . S
C18 O28 1.281 . S
C18 O29 1.254 1_455 S
C19 O30 1.236 . S
C19 O31 1.266 . S
O20 Tb0 2.484 . S
O20 C2 1.248 . S
O21 Tb0 2.440 . S
O21 C2 1.266 . S
O22 Tb0 2.658 . S
O22 Tb1 2.325 1_455 S
O22 C9 1.281 . S
O23 Tb0 2.409 . S
O23 C9 1.254 . S
O24 Tb0 2.378 . S
O24 C10 1.236 . S
O25 Tb1 2.341 1_455 S
O25 C10 1.266 . S
O26 Tb1 2.484 . S
O26 C11 1.248 . S
O27 Tb1 2.440 . S
O27 C11 1.266 . S
O28 Tb0 2.325 . S
O28 Tb1 2.658 1_455 S
O28 C18 1.281 . S
O29 Tb1 2.409 . S
O29 C18 1.254 1_655 S
O30 Tb1 2.378 . S
O30 C19 1.236 . S
O31 Tb0 2.341 1_655 S
O31 C19 1.266 . S
H32 C4 0.929 . S
H33 C5 0.931 . S
H34 C7 0.930 . S
H35 C8 0.930 . S
H36 C13 0.929 . S
H37 C14 0.931 . S
H38 C16 0.930 . S
H39 C17 0.930 . S
Tb40 C42 2.809 . S
Tb40 O60 2.484 . S
Tb40 O61 2.440 . S
Tb40 O62 2.658 1_565 S
Tb40 O63 2.409 1_565 S
Tb40 O64 2.378 . S
Tb40 O68 2.325 1_565 S
Tb40 O71 2.341 1_565 S
Tb41 C51 2.809 . S
Tb41 O62 2.325 . S
Tb41 O65 2.341 1_545 S
Tb41 O66 2.484 . S
Tb41 O67 2.440 . S
Tb41 O68 2.658 . S
Tb41 O69 2.409 . S
Tb41 O70 2.378 . S
C42 Tb40 2.809 . S
C42 C43 1.514 . S
C42 O60 1.248 . S
C42 O61 1.266 . S
C43 C42 1.514 . S
C43 C44 1.359 . S
C43 C48 1.348 . S
C44 C43 1.359 . S
C44 C45 1.380 . S
C44 H72 0.929 . S
C45 C44 1.380 . S
C45 C46 1.347 . S
C45 H73 0.931 . S
C46 C45 1.347 . S
C46 C47 1.369 . S
C47 C46 1.369 . S
C47 C48 1.408 . S
C47 H74 0.930 . S
C48 C43 1.348 . S
C48 C47 1.408 . S
C48 H75 0.930 . S
C49 O62 1.281 . S
C49 O63 1.254 . S
C50 O64 1.236 . S
C50 O65 1.266 . S
C51 Tb41 2.809 . S
C51 C52 1.514 . S
C51 O66 1.248 . S
C51 O67 1.266 . S
C52 C51 1.514 . S
C52 C53 1.359 . S
C52 C57 1.348 . S
C53 C52 1.359 . S
C53 C54 1.380 . S
C53 H76 0.929 . S
C54 C53 1.380 . S
C54 C55 1.347 . S
C54 H77 0.931 . S
C55 C54 1.347 . S
C55 C56 1.369 . S
C56 C55 1.369 . S
C56 C57 1.408 . S
C56 H78 0.930 . S
C57 C52 1.348 . S
C57 C56 1.408 . S
C57 H79 0.930 . S
C58 O68 1.281 . S
C58 O69 1.254 . S
C59 O70 1.236 . S
C59 O71 1.266 . S
O60 Tb40 2.484 . S
O60 C42 1.248 . S
O61 Tb40 2.440 . S
O61 C42 1.266 . S
O62 Tb40 2.658 1_545 S
O62 Tb41 2.325 . S
O62 C49 1.281 . S
O63 Tb40 2.409 1_545 S
O63 C49 1.254 . S
O64 Tb40 2.378 . S
O64 C50 1.236 . S
O65 Tb41 2.341 1_565 S
O65 C50 1.266 . S
O66 Tb41 2.484 . S
O66 C51 1.248 . S
O67 Tb41 2.440 . S
O67 C51 1.266 . S
O68 Tb40 2.325 1_545 S
O68 Tb41 2.658 . S
O68 C58 1.281 . S
O69 Tb41 2.409 . S
O69 C58 1.254 . S
O70 Tb41 2.378 . S
O70 C59 1.236 . S
O71 Tb40 2.341 1_545 S
O71 C59 1.266 . S
H72 C44 0.929 . S
H73 C45 0.931 . S
H74 C47 0.930 . S
H75 C48 0.930 . S
H76 C53 0.929 . S
H77 C54 0.931 . S
H78 C56 0.930 . S
H79 C57 0.930 . S
Tb80 C82 2.809 . S
Tb80 O100 2.484 . S
Tb80 O101 2.440 . S
Tb80 O102 2.658 . S
Tb80 O103 2.409 . S
Tb80 O104 2.378 . S
Tb80 O108 2.325 . S
Tb80 O111 2.341 . S
Tb81 C91 2.809 . S
Tb81 O102 2.325 . S
Tb81 O105 2.341 . S
Tb81 O106 2.484 . S
Tb81 O107 2.440 . S
Tb81 O108 2.658 . S
Tb81 O109 2.409 . S
Tb81 O110 2.378 . S
C82 Tb80 2.809 . S
C82 C83 1.514 . S
C82 O100 1.248 . S
C82 O101 1.266 . S
C83 C82 1.514 . S
C83 C84 1.359 . S
C83 C88 1.348 . S
C84 C83 1.359 . S
C84 C85 1.380 . S
C84 H112 0.929 . S
C85 C84 1.380 . S
C85 C86 1.347 . S
C85 H113 0.931 . S
C86 C85 1.347 . S
C86 C87 1.369 . S
C87 C86 1.369 . S
C87 C88 1.408 . S
C87 H114 0.930 . S
C88 C83 1.348 . S
C88 C87 1.408 . S
C88 H115 0.930 . S
C89 O102 1.281 . S
C89 O103 1.254 . S
C90 O104 1.236 . S
C90 O105 1.266 . S
C91 Tb81 2.809 . S
C91 C92 1.514 . S
C91 O106 1.248 . S
C91 O107 1.266 . S
C92 C91 1.514 . S
C92 C93 1.359 . S
C92 C97 1.348 . S
C93 C92 1.359 . S
C93 C94 1.380 . S
C93 H116 0.929 . S
C94 C93 1.380 . S
C94 C95 1.347 . S
C94 H117 0.931 . S
C95 C94 1.347 . S
C95 C96 1.369 . S
C96 C95 1.369 . S
C96 C97 1.408 . S
C96 H118 0.930 . S
C97 C92 1.348 . S
C97 C96 1.408 . S
C97 H119 0.930 . S
C98 O108 1.281 . S
C98 O109 1.254 . S
C99 O110 1.236 . S
C99 O111 1.266 . S
O100 Tb80 2.484 . S
O100 C82 1.248 . S
O101 Tb80 2.440 . S
O101 C82 1.266 . S
O102 Tb80 2.658 . S
O102 Tb81 2.325 . S
O102 C89 1.281 . S
O103 Tb80 2.409 . S
O103 C89 1.254 . S
O104 Tb80 2.378 . S
O104 C90 1.236 . S
O105 Tb81 2.341 . S
O105 C90 1.266 . S
O106 Tb81 2.484 . S
O106 C91 1.248 . S
O107 Tb81 2.440 . S
O107 C91 1.266 . S
O108 Tb80 2.325 . S
O108 Tb81 2.658 . S
O108 C98 1.281 . S
O109 Tb81 2.409 . S
O109 C98 1.254 . S
O110 Tb81 2.378 . S
O110 C99 1.236 . S
O111 Tb80 2.341 . S
O111 C99 1.266 . S
H112 C84 0.929 . S
H113 C85 0.931 . S
H114 C87 0.930 . S
H115 C88 0.930 . S
H116 C93 0.929 . S
H117 C94 0.931 . S
H118 C96 0.930 . S
H119 C97 0.930 . S
H120 C127 0.929 . S
H121 C130 0.930 1_565 S
H122 C132 0.929 . S
H123 C124 0.969 . S
C124 H123 0.969 . S
C124 O125 1.550 . S
C124 H126 0.973 . S
O125 C124 1.550 . S
O125 C131 1.412 1_565 S
H126 C124 0.973 . S
C127 H120 0.929 . S
C127 C128 1.400 . S
C127 C129 1.364 . S
C128 C127 1.400 . S
C128 C132 1.377 . S
C129 C127 1.364 . S
C129 C130 1.374 . S
C130 H121 0.930 1_545 S
C130 C129 1.374 . S
C130 C131 1.383 . S
C131 O125 1.412 1_545 S
C131 C130 1.383 . S
C131 C132 1.394 . S
C132 H122 0.929 . S
C132 C128 1.377 . S
C132 C131 1.394 . S
H133 C140 0.929 . S
H134 C143 0.930 . S
H135 C145 0.929 . S
H136 C137 0.969 . S
C137 H136 0.969 . S
C137 O138 1.550 . S
C137 H139 0.973 . S
O138 C137 1.550 . S
O138 C144 1.412 . S
H139 C137 0.973 . S
C140 H133 0.929 . S
C140 C141 1.400 . S
C140 C142 1.364 . S
C141 C140 1.400 . S
C141 C145 1.377 . S
C142 C140 1.364 . S
C142 C143 1.374 . S
C143 H134 0.930 . S
C143 C142 1.374 . S
C143 C144 1.383 . S
C144 O138 1.412 . S
C144 C143 1.383 . S
C144 C145 1.394 . S
C145 H135 0.929 . S
C145 C141 1.377 . S
C145 C144 1.394 . S
H146 C153 0.929 . S
H147 C156 0.930 . S
H148 C158 0.929 . S
H149 C150 0.969 . S
C150 H149 0.969 . S
C150 O151 1.550 . S
C150 H152 0.973 . S
O151 C150 1.550 . S
O151 C157 1.412 . S
H152 C150 0.973 . S
C153 H146 0.929 . S
C153 C154 1.400 . S
C153 C155 1.364 1_655 S
C154 C153 1.400 . S
C154 C158 1.377 1_655 S
C155 C153 1.364 1_455 S
C155 C156 1.374 . S
C156 H147 0.930 . S
C156 C155 1.374 . S
C156 C157 1.383 . S
C157 O151 1.412 . S
C157 C156 1.383 . S
C157 C158 1.394 . S
C158 H148 0.929 . S
C158 C154 1.377 1_455 S
C158 C157 1.394 . S
H159 C166 0.929 1_655 S
H160 C169 0.930 . S
H161 C171 0.929 . S
H162 C163 0.969 . S
C163 H162 0.969 . S
C163 O164 1.550 . S
C163 H165 0.973 . S
O164 C163 1.550 . S
O164 C170 1.412 . S
H165 C163 0.973 . S
C166 H159 0.929 1_455 S
C166 C167 1.400 . S
C166 C168 1.364 . S
C167 C166 1.400 . S
C167 C171 1.377 . S
C168 C166 1.364 . S
C168 C169 1.374 . S
C169 H160 0.930 . S
C169 C168 1.374 . S
C169 C170 1.383 . S
C170 O164 1.412 . S
C170 C169 1.383 . S
C170 C171 1.394 . S
C171 H161 0.929 . S
C171 C167 1.377 . S
C171 C170 1.394 . S
H172 C179 0.929 . S
H173 C182 0.930 . S
H174 C184 0.929 . S
H175 C176 0.969 . S
C176 H175 0.969 . S
C176 O177 1.550 . S
C176 H178 0.973 . S
O177 C176 1.550 . S
O177 C183 1.412 . S
H178 C176 0.973 . S
C179 H172 0.929 . S
C179 C180 1.400 . S
C179 C181 1.364 1_565 S
C180 C179 1.400 . S
C180 C184 1.377 . S
C181 C179 1.364 1_545 S
C181 C182 1.374 . S
C182 H173 0.930 . S
C182 C181 1.374 . S
C182 C183 1.383 . S
C183 O177 1.412 . S
C183 C182 1.383 . S
C183 C184 1.394 1_545 S
C184 H174 0.929 . S
C184 C180 1.377 . S
C184 C183 1.394 1_565 S
H185 C192 0.929 . S
H186 C195 0.930 . S
H187 C197 0.929 . S
H188 C189 0.969 . S
C189 H188 0.969 . S
C189 O190 1.550 . S
C189 H191 0.973 . S
O190 C189 1.550 . S
O190 C196 1.412 . S
H191 C189 0.973 . S
C192 H185 0.929 . S
C192 C193 1.400 . S
C192 C194 1.364 . S
C193 C192 1.400 . S
C193 C197 1.377 . S
C194 C192 1.364 . S
C194 C195 1.374 . S
C195 H186 0.930 . S
C195 C194 1.374 . S
C195 C196 1.383 . S
C196 O190 1.412 . S
C196 C195 1.383 . S
C196 C197 1.394 . S
C197 H187 0.929 . S
C197 C193 1.377 . S
C197 C196 1.394 . S
C198 C199 1.363 . S
C198 C204 1.379 . S
C198 N206 1.356 . S
C199 C198 1.363 . S
C199 C205 1.363 . S
C200 C201 1.363 . S
C200 C205 1.379 . S
C200 N207 1.356 . S
C201 C200 1.363 . S
C201 C204 1.363 . S
N202 C204 1.356 . S
N202 H214 0.984 . S
N202 H215 0.985 . S
N203 C205 1.356 . S
N203 H208 0.984 . S
N203 H209 0.985 . S
C204 C198 1.379 . S
C204 C201 1.363 . S
C204 N202 1.356 . S
C205 C199 1.363 . S
C205 C200 1.379 . S
C205 N203 1.356 . S
N206 C198 1.356 . S
N206 H212 0.984 . S
N206 H213 0.984 . S
N207 C200 1.356 . S
N207 H210 0.984 . S
N207 H211 0.985 . S
H208 N203 0.984 . S
H209 N203 0.985 . S
H210 N207 0.984 . S
H211 N207 0.985 . S
H212 N206 0.984 . S
H213 N206 0.984 . S
H214 N202 0.984 . S
H215 N202 0.985 . S
C216 C217 1.363 . S
C216 C222 1.379 . S
C216 N224 1.356 . S
C217 C216 1.363 . S
C217 C223 1.363 . S
C218 C219 1.363 . S
C218 C223 1.379 . S
C218 N225 1.356 . S
C219 C218 1.363 . S
C219 C222 1.363 . S
N220 C222 1.356 . S
N220 H232 0.984 . S
N220 H233 0.985 . S
N221 C223 1.356 . S
N221 H226 0.984 . S
N221 H227 0.985 . S
C222 C216 1.379 . S
C222 C219 1.363 . S
C222 N220 1.356 . S
C223 C217 1.363 . S
C223 C218 1.379 . S
C223 N221 1.356 . S
N224 C216 1.356 . S
N224 H230 0.984 . S
N224 H231 0.984 . S
N225 C218 1.356 . S
N225 H228 0.984 . S
N225 H229 0.985 . S
H226 N221 0.984 . S
H227 N221 0.985 . S
H228 N225 0.984 . S
H229 N225 0.985 . S
H230 N224 0.984 . S
H231 N224 0.984 . S
H232 N220 0.984 . S
H233 N220 0.985 . S
C234 C235 1.363 . S
C234 C240 1.379 . S
C234 N242 1.356 . S
C235 C234 1.363 . S
C235 C241 1.363 . S
C236 C237 1.363 . S
C236 C241 1.379 . S
C236 N243 1.356 . S
C237 C236 1.363 . S
C237 C240 1.363 . S
N238 C240 1.356 . S
N238 H250 0.984 . S
N238 H251 0.985 . S
N239 C241 1.356 . S
N239 H244 0.984 . S
N239 H245 0.985 . S
C240 C234 1.379 . S
C240 C237 1.363 . S
C240 N238 1.356 . S
C241 C235 1.363 . S
C241 C236 1.379 . S
C241 N239 1.356 . S
N242 C234 1.356 . S
N242 H248 0.984 . S
N242 H249 0.984 . S
N243 C236 1.356 . S
N243 H246 0.984 . S
N243 H247 0.985 . S
H244 N239 0.984 . S
H245 N239 0.985 . S
H246 N243 0.984 . S
H247 N243 0.985 . S
H248 N242 0.984 . S
H249 N242 0.984 . S
H250 N238 0.984 . S
H251 N238 0.985 . S
C252 C253 1.363 . S
C252 C258 1.379 . S
C252 N260 1.356 . S
C253 C252 1.363 . S
C253 C259 1.363 . S
C254 C255 1.363 . S
C254 C259 1.379 . S
C254 N261 1.356 . S
C255 C254 1.363 . S
C255 C258 1.363 . S
N256 C258 1.356 . S
N256 H268 0.984 . S
N256 H269 0.985 . S
N257 C259 1.356 . S
N257 H262 0.984 . S
N257 H263 0.985 . S
C258 C252 1.379 . S
C258 C255 1.363 . S
C258 N256 1.356 . S
C259 C253 1.363 . S
C259 C254 1.379 . S
C259 N257 1.356 . S
N260 C252 1.356 . S
N260 H266 0.984 . S
N260 H267 0.984 . S
N261 C254 1.356 . S
N261 H264 0.984 . S
N261 H265 0.985 . S
H262 N257 0.984 . S
H263 N257 0.985 . S
H264 N261 0.984 . S
H265 N261 0.985 . S
H266 N260 0.984 . S
H267 N260 0.984 . S
H268 N256 0.984 . S
H269 N256 0.985 . S
C270 C271 1.363 . S
C270 C276 1.379 . S
C270 N278 1.356 . S
C271 C270 1.363 . S
C271 C277 1.363 . S
C272 C273 1.363 . S
C272 C277 1.379 . S
C272 N279 1.356 . S
C273 C272 1.363 . S
C273 C276 1.363 . S
N274 C276 1.356 . S
N274 H286 0.984 . S
N274 H287 0.985 . S
N275 C277 1.356 . S
N275 H280 0.984 . S
N275 H281 0.985 . S
C276 C270 1.379 . S
C276 C273 1.363 . S
C276 N274 1.356 . S
C277 C271 1.363 . S
C277 C272 1.379 . S
C277 N275 1.356 . S
N278 C270 1.356 . S
N278 H284 0.984 . S
N278 H285 0.984 . S
N279 C272 1.356 . S
N279 H282 0.984 . S
N279 H283 0.985 . S
H280 N275 0.984 . S
H281 N275 0.985 . S
H282 N279 0.984 . S
H283 N279 0.985 . S
H284 N278 0.984 . S
H285 N278 0.984 . S
H286 N274 0.984 . S
H287 N274 0.985 . S
C288 C289 1.363 . S
C288 C294 1.379 . S
C288 N296 1.356 . S
C289 C288 1.363 . S
C289 C295 1.363 . S
C290 C291 1.363 . S
C290 C295 1.379 . S
C290 N297 1.356 . S
C291 C290 1.363 . S
C291 C294 1.363 . S
N292 C294 1.356 . S
N292 H304 0.984 . S
N292 H305 0.985 . S
N293 C295 1.356 . S
N293 H298 0.984 . S
N293 H299 0.985 . S
C294 C288 1.379 . S
C294 C291 1.363 . S
C294 N292 1.356 . S
C295 C289 1.363 . S
C295 C290 1.379 . S
C295 N293 1.356 . S
N296 C288 1.356 . S
N296 H302 0.984 . S
N296 H303 0.984 . S
N297 C290 1.356 . S
N297 H300 0.984 . S
N297 H301 0.985 . S
H298 N293 0.984 . S
H299 N293 0.985 . S
H300 N297 0.984 . S
H301 N297 0.985 . S
H302 N296 0.984 . S
H303 N296 0.984 . S
H304 N292 0.984 . S
H305 N292 0.985 . S
C306 C307 1.363 . S
C306 C312 1.379 . S
C306 N314 1.356 . S
C307 C306 1.363 . S
C307 C313 1.363 . S
C308 C309 1.363 . S
C308 C313 1.379 . S
C308 N315 1.356 . S
C309 C308 1.363 . S
C309 C312 1.363 . S
N310 C312 1.356 . S
N310 H322 0.984 . S
N310 H323 0.985 . S
N311 C313 1.356 . S
N311 H316 0.984 . S
N311 H317 0.985 . S
C312 C306 1.379 . S
C312 C309 1.363 . S
C312 N310 1.356 . S
C313 C307 1.363 . S
C313 C308 1.379 . S
C313 N311 1.356 . S
N314 C306 1.356 . S
N314 H320 0.984 . S
N314 H321 0.984 . S
N315 C308 1.356 . S
N315 H318 0.984 . S
N315 H319 0.985 . S
H316 N311 0.984 . S
H317 N311 0.985 . S
H318 N315 0.984 . S
H319 N315 0.985 . S
H320 N314 0.984 . S
H321 N314 0.984 . S
H322 N310 0.984 . S
H323 N310 0.985 . S
C324 C325 1.363 . S
C324 C330 1.379 . S
C324 N332 1.356 . S
C325 C324 1.363 . S
C325 C331 1.363 . S
C326 C327 1.363 . S
C326 C331 1.379 . S
C326 N333 1.356 . S
C327 C326 1.363 . S
C327 C330 1.363 . S
N328 C330 1.356 . S
N328 H340 0.984 . S
N328 H341 0.985 . S
N329 C331 1.356 . S
N329 H334 0.984 . S
N329 H335 0.985 . S
C330 C324 1.379 . S
C330 C327 1.363 . S
C330 N328 1.356 . S
C331 C325 1.363 . S
C331 C326 1.379 . S
C331 N329 1.356 . S
N332 C324 1.356 . S
N332 H338 0.984 . S
N332 H339 0.984 . S
N333 C326 1.356 . S
N333 H336 0.984 . S
N333 H337 0.985 . S
H334 N329 0.984 . S
H335 N329 0.985 . S
H336 N333 0.984 . S
H337 N333 0.985 . S
H338 N332 0.984 . S
H339 N332 0.984 . S
H340 N328 0.984 . S
H341 N328 0.985 . S
C342 C343 1.363 . S
C342 C348 1.379 . S
C342 N350 1.356 . S
C343 C342 1.363 . S
C343 C349 1.363 . S
C344 C345 1.363 . S
C344 C349 1.379 . S
C344 N351 1.356 . S
C345 C344 1.363 . S
C345 C348 1.363 . S
N346 C348 1.356 . S
N346 H358 0.984 . S
N346 H359 0.985 . S
N347 C349 1.356 . S
N347 H352 0.984 . S
N347 H353 0.985 . S
C348 C342 1.379 . S
C348 C345 1.363 . S
C348 N346 1.356 . S
C349 C343 1.363 . S
C349 C344 1.379 . S
C349 N347 1.356 . S
N350 C342 1.356 . S
N350 H356 0.984 . S
N350 H357 0.984 . S
N351 C344 1.356 . S
N351 H354 0.984 . S
N351 H355 0.985 . S
H352 N347 0.984 . S
H353 N347 0.985 . S
H354 N351 0.984 . S
H355 N351 0.985 . S
H356 N350 0.984 . S
H357 N350 0.984 . S
H358 N346 0.984 . S
H359 N346 0.985 . S
C360 C361 1.363 . S
C360 C366 1.379 . S
C360 N368 1.356 . S
C361 C360 1.363 . S
C361 C367 1.363 . S
C362 C363 1.363 . S
C362 C367 1.379 . S
C362 N369 1.356 . S
C363 C362 1.363 . S
C363 C366 1.363 . S
N364 C366 1.356 . S
N364 H376 0.984 . S
N364 H377 0.985 . S
N365 C367 1.356 . S
N365 H370 0.984 . S
N365 H371 0.985 . S
C366 C360 1.379 . S
C366 C363 1.363 . S
C366 N364 1.356 . S
C367 C361 1.363 . S
C367 C362 1.379 . S
C367 N365 1.356 . S
N368 C360 1.356 . S
N368 H374 0.984 . S
N368 H375 0.984 . S
N369 C362 1.356 . S
N369 H372 0.984 . S
N369 H373 0.985 . S
H370 N365 0.984 . S
H371 N365 0.985 . S
H372 N369 0.984 . S
H373 N369 0.985 . S
H374 N368 0.984 . S
H375 N368 0.984 . S
H376 N364 0.984 . S
H377 N364 0.985 . S
C378 C379 1.363 . S
C378 C384 1.379 . S
C378 N386 1.356 . S
C379 C378 1.363 . S
C379 C385 1.363 . S
C380 C381 1.363 . S
C380 C385 1.379 . S
C380 N387 1.356 . S
C381 C380 1.363 . S
C381 C384 1.363 . S
N382 C384 1.356 . S
N382 H394 0.984 . S
N382 H395 0.985 . S
N383 C385 1.356 . S
N383 H388 0.984 . S
N383 H389 0.985 . S
C384 C378 1.379 . S
C384 C381 1.363 . S
C384 N382 1.356 . S
C385 C379 1.363 . S
C385 C380 1.379 . S
C385 N383 1.356 . S
N386 C378 1.356 . S
N386 H392 0.984 . S
N386 H393 0.984 . S
N387 C380 1.356 . S
N387 H390 0.984 . S
N387 H391 0.985 . S
H388 N383 0.984 . S
H389 N383 0.985 . S
H390 N387 0.984 . S
H391 N387 0.985 . S
H392 N386 0.984 . S
H393 N386 0.984 . S
H394 N382 0.984 . S
H395 N382 0.985 . S
C396 C397 1.363 . S
C396 C402 1.379 . S
C396 N404 1.356 . S
C397 C396 1.363 . S
C397 C403 1.363 . S
C398 C399 1.363 . S
C398 C403 1.379 . S
C398 N405 1.356 . S
C399 C398 1.363 . S
C399 C402 1.363 . S
N400 C402 1.356 . S
N400 H412 0.984 . S
N400 H413 0.985 . S
N401 C403 1.356 . S
N401 H406 0.984 . S
N401 H407 0.985 . S
C402 C396 1.379 . S
C402 C399 1.363 . S
C402 N400 1.356 . S
C403 C397 1.363 . S
C403 C398 1.379 . S
C403 N401 1.356 . S
N404 C396 1.356 . S
N404 H410 0.984 . S
N404 H411 0.984 . S
N405 C398 1.356 . S
N405 H408 0.984 . S
N405 H409 0.985 . S
H406 N401 0.984 . S
H407 N401 0.985 . S
H408 N405 0.984 . S
H409 N405 0.985 . S
H410 N404 0.984 . S
H411 N404 0.984 . S
H412 N400 0.984 . S
H413 N400 0.985 . S
C414 C415 1.363 . S
C414 C420 1.379 1_554 S
C414 N422 1.356 . S
C415 C414 1.363 . S
C415 C421 1.363 1_455 S
C416 C417 1.363 1_655 S
C416 C421 1.379 1_556 S
C416 N423 1.356 . S
C417 C416 1.363 1_455 S
C417 C420 1.363 . S
N418 C420 1.356 . S
N418 H430 0.984 . S
N418 H431 0.985 . S
N419 C421 1.356 . S
N419 H424 0.984 . S
N419 H425 0.985 . S
C420 C414 1.379 1_556 S
C420 C417 1.363 . S
C420 N418 1.356 . S
C421 C415 1.363 1_655 S
C421 C416 1.379 1_554 S
C421 N419 1.356 . S
N422 C414 1.356 . S
N422 H428 0.984 . S
N422 H429 0.984 . S
N423 C416 1.356 . S
N423 H426 0.984 . S
N423 H427 0.985 . S
H424 N419 0.984 . S
H425 N419 0.985 . S
H426 N423 0.984 . S
H427 N423 0.985 . S
H428 N422 0.984 . S
H429 N422 0.984 . S
H430 N418 0.984 . S
H431 N418 0.985 . S
C432 C433 1.363 . S
C432 C438 1.379 . S
C432 N440 1.356 1_545 S
C433 C432 1.363 . S
C433 C439 1.363 . S
C434 C435 1.363 . S
C434 C439 1.379 . S
C434 N441 1.356 . S
C435 C434 1.363 . S
C435 C438 1.363 . S
N436 C438 1.356 1_565 S
N436 H448 0.984 . S
N436 H449 0.985 . S
N437 C439 1.356 . S
N437 H442 0.984 . S
N437 H443 0.985 . S
C438 C432 1.379 . S
C438 C435 1.363 . S
C438 N436 1.356 1_545 S
C439 C433 1.363 . S
C439 C434 1.379 . S
C439 N437 1.356 . S
N440 C432 1.356 1_565 S
N440 H446 0.984 . S
N440 H447 0.984 . S
N441 C434 1.356 . S
N441 H444 0.984 . S
N441 H445 0.985 . S
H442 N437 0.984 . S
H443 N437 0.985 . S
H444 N441 0.984 . S
H445 N441 0.985 . S
H446 N440 0.984 . S
H447 N440 0.984 . S
H448 N436 0.984 . S
H449 N436 0.985 . S
C450 C451 1.363 . S
C450 C456 1.379 . S
C450 N458 1.356 . S
C451 C450 1.363 . S
C451 C457 1.363 . S
C452 C453 1.363 . S
C452 C457 1.379 . S
C452 N459 1.356 . S
C453 C452 1.363 . S
C453 C456 1.363 . S
N454 C456 1.356 . S
N454 H466 0.984 . S
N454 H467 0.985 . S
N455 C457 1.356 . S
N455 H460 0.984 . S
N455 H461 0.985 . S
C456 C450 1.379 . S
C456 C453 1.363 . S
C456 N454 1.356 . S
C457 C451 1.363 . S
C457 C452 1.379 . S
C457 N455 1.356 . S
N458 C450 1.356 . S
N458 H464 0.984 . S
N458 H465 0.984 . S
N459 C452 1.356 . S
N459 H462 0.984 . S
N459 H463 0.985 . S
H460 N455 0.984 . S
H461 N455 0.985 . S
H462 N459 0.984 . S
H463 N459 0.985 . S
H464 N458 0.984 . S
H465 N458 0.984 . S
H466 N454 0.984 . S
H467 N454 0.985 . S
C468 C469 1.363 . S
C468 C474 1.379 . S
C468 N476 1.356 . S
C469 C468 1.363 . S
C469 C475 1.363 1_545 S
C470 C471 1.363 1_565 S
C470 C475 1.379 . S
C470 N477 1.356 . S
C471 C470 1.363 1_545 S
C471 C474 1.363 . S
N472 C474 1.356 . S
N472 H484 0.984 . S
N472 H485 0.985 . S
N473 C475 1.356 . S
N473 H478 0.984 . S
N473 H479 0.985 . S
C474 C468 1.379 . S
C474 C471 1.363 . S
C474 N472 1.356 . S
C475 C469 1.363 1_565 S
C475 C470 1.379 . S
C475 N473 1.356 . S
N476 C468 1.356 . S
N476 H482 0.984 . S
N476 H483 0.984 . S
N477 C470 1.356 . S
N477 H480 0.984 . S
N477 H481 0.985 . S
H478 N473 0.984 . S
H479 N473 0.985 . S
H480 N477 0.984 . S
H481 N477 0.985 . S
H482 N476 0.984 . S
H483 N476 0.984 . S
H484 N472 0.984 . S
H485 N472 0.985 . S
C486 C487 1.363 . S
C486 C492 1.379 1_556 S
C486 N494 1.356 . S
C487 C486 1.363 . S
C487 C493 1.363 . S
C488 C489 1.363 1_556 S
C488 C493 1.379 . S
C488 N495 1.356 1_556 S
C489 C488 1.363 1_554 S
C489 C492 1.363 . S
N490 C492 1.356 . S
N490 H502 0.984 . S
N490 H503 0.985 . S
N491 C493 1.356 . S
N491 H496 0.984 . S
N491 H497 0.985 . S
C492 C486 1.379 1_554 S
C492 C489 1.363 . S
C492 N490 1.356 . S
C493 C487 1.363 . S
C493 C488 1.379 . S
C493 N491 1.356 . S
N494 C486 1.356 . S
N494 H500 0.984 . S
N494 H501 0.984 . S
N495 C488 1.356 1_554 S
N495 H498 0.984 . S
N495 H499 0.985 . S
H496 N491 0.984 . S
H497 N491 0.985 . S
H498 N495 0.984 . S
H499 N495 0.985 . S
H500 N494 0.984 . S
H501 N494 0.984 . S
H502 N490 0.984 . S
H503 N490 0.985 . S
C504 C505 1.363 . S
C504 C510 1.379 . S
C504 N512 1.356 1_455 S
C505 C504 1.363 . S
C505 C511 1.363 . S
C506 C507 1.363 . S
C506 C511 1.379 . S
C506 N513 1.356 . S
C507 C506 1.363 . S
C507 C510 1.363 . S
N508 C510 1.356 1_655 S
N508 H520 0.984 . S
N508 H521 0.985 1_655 S
N509 C511 1.356 . S
N509 H514 0.984 . S
N509 H515 0.985 . S
C510 C504 1.379 . S
C510 C507 1.363 . S
C510 N508 1.356 1_455 S
C511 C505 1.363 . S
C511 C506 1.379 . S
C511 N509 1.356 . S
N512 C504 1.356 1_655 S
N512 H518 0.984 . S
N512 H519 0.984 . S
N513 C506 1.356 . S
N513 H516 0.984 . S
N513 H517 0.985 . S
H514 N509 0.984 . S
H515 N509 0.985 . S
H516 N513 0.984 . S
H517 N513 0.985 . S
H518 N512 0.984 . S
H519 N512 0.984 . S
H520 N508 0.984 . S
H521 N508 0.985 1_455 S
C199 C10 3.090 . S
C201 C189 2.897 . S
C217 C59 3.055 . S
C219 C167 3.017 1_655 S
C235 C90 3.010 . S
C237 C180 2.981 . S
C253 C19 3.064 . S
C255 C193 3.028 . S
C273 C163 2.916 . S
C271 C50 3.100 . S
C291 C176 2.954 . S
C289 C99 3.162 . S
C307 C46 0.535 . S
C309 C141 0.442 . S
C325 C95 0.672 . S
C327 C154 0.618 . S
C343 C6 0.752 . S
C345 C124 0.753 . S
C363 C137 0.744 . S
C361 C55 0.747 . S
C381 C150 0.879 . S
C379 C86 0.833 . S
C397 C15 0.662 . S
C399 C128 0.591 . S
C417 C155 1.150 . S
C415 C9 1.144 . S
C433 C49 1.189 . S
C435 C129 1.182 . S
C451 C89 1.067 . S
C453 C142 1.108 . S
C471 C181 1.832 . S
C469 C58 1.706 . S
C489 C194 1.770 . S
C487 C98 1.723 . S
C505 C18 1.719 . S
C507 C168 1.794 . S
