# Generated by pormake.
# Topology bpr, (3,3)-cn, num edge types: 1
# Building blocks:
#     Node 0, Type 0, BuildingBlock: OLANEW_clean_sbu_2, # of connection points: 3
#     Node 1, Type 0, BuildingBlock: OLANEW_clean_sbu_2, # of connection points: 3
#     Node 2, Type 0, BuildingBlock: OLANEW_clean_sbu_2, # of connection points: 3
#     Node 3, Type 0, BuildingBlock: OLANEW_clean_sbu_2, # of connection points: 3
#     Node 4, Type 0, BuildingBlock: OLANEW_clean_sbu_2, # of connection points: 3
#     Node 5, Type 0, BuildingBlock: OLANEW_clean_sbu_2, # of connection points: 3
#     Node 6, Type 0, BuildingBlock: OLANEW_clean_sbu_2, # of connection points: 3
#     Node 7, Type 0, BuildingBlock: OLANEW_clean_sbu_2, # of connection points: 3
#     Node 8, Type 0, BuildingBlock: OLANEW_clean_sbu_2, # of connection points: 3
#     Node 9, Type 0, BuildingBlock: OLANEW_clean_sbu_2, # of connection points: 3
#     Node 10, Type 0, BuildingBlock: OLANEW_clean_sbu_2, # of connection points: 3
#     Node 11, Type 0, BuildingBlock: OLANEW_clean_sbu_2, # of connection points: 3
#     Node 12, Type 0, BuildingBlock: OLANEW_clean_sbu_2, # of connection points: 3
#     Node 13, Type 0, BuildingBlock: OLANEW_clean_sbu_2, # of connection points: 3
#     Node 14, Type 0, BuildingBlock: OLANEW_clean_sbu_2, # of connection points: 3
#     Node 15, Type 0, BuildingBlock: OLANEW_clean_sbu_2, # of connection points: 3
#     Node 16, Type 0, BuildingBlock: OLANEW_clean_sbu_2, # of connection points: 3
#     Node 17, Type 0, BuildingBlock: OLANEW_clean_sbu_2, # of connection points: 3
#     Node 18, Type 0, BuildingBlock: OLANEW_clean_sbu_2, # of connection points: 3
#     Node 19, Type 0, BuildingBlock: OLANEW_clean_sbu_2, # of connection points: 3
#     Node 20, Type 0, BuildingBlock: OLANEW_clean_sbu_2, # of connection points: 3
#     Node 21, Type 0, BuildingBlock: OLANEW_clean_sbu_2, # of connection points: 3
#     Node 22, Type 0, BuildingBlock: OLANEW_clean_sbu_2, # of connection points: 3
#     Node 23, Type 0, BuildingBlock: OLANEW_clean_sbu_2, # of connection points: 3
#     Node 24, Type 0, BuildingBlock: OLANEW_clean_sbu_2, # of connection points: 3
#     Node 25, Type 0, BuildingBlock: OLANEW_clean_sbu_2, # of connection points: 3
#     Node 26, Type 0, BuildingBlock: OLANEW_clean_sbu_2, # of connection points: 3
#     Node 27, Type 0, BuildingBlock: OLANEW_clean_sbu_2, # of connection points: 3
#     Node 28, Type 0, BuildingBlock: OLANEW_clean_sbu_2, # of connection points: 3
#     Node 29, Type 0, BuildingBlock: OLANEW_clean_sbu_2, # of connection points: 3
#     Node 30, Type 0, BuildingBlock: OLANEW_clean_sbu_2, # of connection points: 3
#     Node 31, Type 0, BuildingBlock: OLANEW_clean_sbu_2, # of connection points: 3
#     Node 32, Type 0, BuildingBlock: OLANEW_clean_sbu_2, # of connection points: 3
#     Node 33, Type 0, BuildingBlock: OLANEW_clean_sbu_2, # of connection points: 3
#     Node 34, Type 0, BuildingBlock: OLANEW_clean_sbu_2, # of connection points: 3
#     Node 35, Type 0, BuildingBlock: OLANEW_clean_sbu_2, # of connection points: 3
#     Node 36, Type 0, BuildingBlock: OLANEW_clean_sbu_2, # of connection points: 3
#     Node 37, Type 0, BuildingBlock: OLANEW_clean_sbu_2, # of connection points: 3
#     Node 38, Type 0, BuildingBlock: OLANEW_clean_sbu_2, # of connection points: 3
#     Node 39, Type 0, BuildingBlock: OLANEW_clean_sbu_2, # of connection points: 3
#     Node 40, Type 0, BuildingBlock: OLANEW_clean_sbu_2, # of connection points: 3
#     Node 41, Type 0, BuildingBlock: OLANEW_clean_sbu_2, # of connection points: 3
#     Node 42, Type 0, BuildingBlock: OLANEW_clean_sbu_2, # of connection points: 3
#     Node 43, Type 0, BuildingBlock: OLANEW_clean_sbu_2, # of connection points: 3
#     Node 44, Type 0, BuildingBlock: OLANEW_clean_sbu_2, # of connection points: 3
#     Node 45, Type 0, BuildingBlock: OLANEW_clean_sbu_2, # of connection points: 3
#     Node 46, Type 0, BuildingBlock: OLANEW_clean_sbu_2, # of connection points: 3
#     Node 47, Type 0, BuildingBlock: OLANEW_clean_sbu_2, # of connection points: 3
#     Node 48, Type 1, BuildingBlock: QEWDON_clean_linker_0, # of connection points: 3
#     Node 49, Type 1, BuildingBlock: QEWDON_clean_linker_0, # of connection points: 3
#     Node 50, Type 1, BuildingBlock: QEWDON_clean_linker_0, # of connection points: 3
#     Node 51, Type 1, BuildingBlock: QEWDON_clean_linker_0, # of connection points: 3
#     Node 52, Type 1, BuildingBlock: QEWDON_clean_linker_0, # of connection points: 3
#     Node 53, Type 1, BuildingBlock: QEWDON_clean_linker_0, # of connection points: 3
#     Node 54, Type 1, BuildingBlock: QEWDON_clean_linker_0, # of connection points: 3
#     Node 55, Type 1, BuildingBlock: QEWDON_clean_linker_0, # of connection points: 3
#     Node 56, Type 1, BuildingBlock: QEWDON_clean_linker_0, # of connection points: 3
#     Node 57, Type 1, BuildingBlock: QEWDON_clean_linker_0, # of connection points: 3
#     Node 58, Type 1, BuildingBlock: QEWDON_clean_linker_0, # of connection points: 3
#     Node 59, Type 1, BuildingBlock: QEWDON_clean_linker_0, # of connection points: 3
#     Node 60, Type 1, BuildingBlock: QEWDON_clean_linker_0, # of connection points: 3
#     Node 61, Type 1, BuildingBlock: QEWDON_clean_linker_0, # of connection points: 3
#     Node 62, Type 1, BuildingBlock: QEWDON_clean_linker_0, # of connection points: 3
#     Node 63, Type 1, BuildingBlock: QEWDON_clean_linker_0, # of connection points: 3
#     Node 64, Type 1, BuildingBlock: QEWDON_clean_linker_0, # of connection points: 3
#     Node 65, Type 1, BuildingBlock: QEWDON_clean_linker_0, # of connection points: 3
#     Node 66, Type 1, BuildingBlock: QEWDON_clean_linker_0, # of connection points: 3
#     Node 67, Type 1, BuildingBlock: QEWDON_clean_linker_0, # of connection points: 3
#     Node 68, Type 1, BuildingBlock: QEWDON_clean_linker_0, # of connection points: 3
#     Node 69, Type 1, BuildingBlock: QEWDON_clean_linker_0, # of connection points: 3
#     Node 70, Type 1, BuildingBlock: QEWDON_clean_linker_0, # of connection points: 3
#     Node 71, Type 1, BuildingBlock: QEWDON_clean_linker_0, # of connection points: 3
#     Node 72, Type 1, BuildingBlock: QEWDON_clean_linker_0, # of connection points: 3
#     Node 73, Type 1, BuildingBlock: QEWDON_clean_linker_0, # of connection points: 3
#     Node 74, Type 1, BuildingBlock: QEWDON_clean_linker_0, # of connection points: 3
#     Node 75, Type 1, BuildingBlock: QEWDON_clean_linker_0, # of connection points: 3
#     Node 76, Type 1, BuildingBlock: QEWDON_clean_linker_0, # of connection points: 3
#     Node 77, Type 1, BuildingBlock: QEWDON_clean_linker_0, # of connection points: 3
#     Node 78, Type 1, BuildingBlock: QEWDON_clean_linker_0, # of connection points: 3
#     Node 79, Type 1, BuildingBlock: QEWDON_clean_linker_0, # of connection points: 3
#     Node 80, Type 1, BuildingBlock: QEWDON_clean_linker_0, # of connection points: 3
#     Node 81, Type 1, BuildingBlock: QEWDON_clean_linker_0, # of connection points: 3
#     Node 82, Type 1, BuildingBlock: QEWDON_clean_linker_0, # of connection points: 3
#     Node 83, Type 1, BuildingBlock: QEWDON_clean_linker_0, # of connection points: 3
#     Node 84, Type 1, BuildingBlock: QEWDON_clean_linker_0, # of connection points: 3
#     Node 85, Type 1, BuildingBlock: QEWDON_clean_linker_0, # of connection points: 3
#     Node 86, Type 1, BuildingBlock: QEWDON_clean_linker_0, # of connection points: 3
#     Node 87, Type 1, BuildingBlock: QEWDON_clean_linker_0, # of connection points: 3
#     Node 88, Type 1, BuildingBlock: QEWDON_clean_linker_0, # of connection points: 3
#     Node 89, Type 1, BuildingBlock: QEWDON_clean_linker_0, # of connection points: 3
#     Node 90, Type 1, BuildingBlock: QEWDON_clean_linker_0, # of connection points: 3
#     Node 91, Type 1, BuildingBlock: QEWDON_clean_linker_0, # of connection points: 3
#     Node 92, Type 1, BuildingBlock: QEWDON_clean_linker_0, # of connection points: 3
#     Node 93, Type 1, BuildingBlock: QEWDON_clean_linker_0, # of connection points: 3
#     Node 94, Type 1, BuildingBlock: QEWDON_clean_linker_0, # of connection points: 3
#     Node 95, Type 1, BuildingBlock: QEWDON_clean_linker_0, # of connection points: 3
#     Edge 96, Type (0, 1), BuildingBlock: KIFKEQ_clean_linker_1, # of connection points: 2
#     Edge 97, Type (0, 1), BuildingBlock: KIFKEQ_clean_linker_1, # of connection points: 2
#     Edge 98, Type (0, 1), BuildingBlock: KIFKEQ_clean_linker_1, # of connection points: 2
#     Edge 99, Type (0, 1), BuildingBlock: KIFKEQ_clean_linker_1, # of connection points: 2
#     Edge 100, Type (0, 1), BuildingBlock: KIFKEQ_clean_linker_1, # of connection points: 2
#     Edge 101, Type (0, 1), BuildingBlock: KIFKEQ_clean_linker_1, # of connection points: 2
#     Edge 102, Type (0, 1), BuildingBlock: KIFKEQ_clean_linker_1, # of connection points: 2
#     Edge 103, Type (0, 1), BuildingBlock: KIFKEQ_clean_linker_1, # of connection points: 2
#     Edge 104, Type (0, 1), BuildingBlock: KIFKEQ_clean_linker_1, # of connection points: 2
#     Edge 105, Type (0, 1), BuildingBlock: KIFKEQ_clean_linker_1, # of connection points: 2
#     Edge 106, Type (0, 1), BuildingBlock: KIFKEQ_clean_linker_1, # of connection points: 2
#     Edge 107, Type (0, 1), BuildingBlock: KIFKEQ_clean_linker_1, # of connection points: 2
#     Edge 108, Type (0, 1), BuildingBlock: KIFKEQ_clean_linker_1, # of connection points: 2
#     Edge 109, Type (0, 1), BuildingBlock: KIFKEQ_clean_linker_1, # of connection points: 2
#     Edge 110, Type (0, 1), BuildingBlock: KIFKEQ_clean_linker_1, # of connection points: 2
#     Edge 111, Type (0, 1), BuildingBlock: KIFKEQ_clean_linker_1, # of connection points: 2
#     Edge 112, Type (0, 1), BuildingBlock: KIFKEQ_clean_linker_1, # of connection points: 2
#     Edge 113, Type (0, 1), BuildingBlock: KIFKEQ_clean_linker_1, # of connection points: 2
#     Edge 114, Type (0, 1), BuildingBlock: KIFKEQ_clean_linker_1, # of connection points: 2
#     Edge 115, Type (0, 1), BuildingBlock: KIFKEQ_clean_linker_1, # of connection points: 2
#     Edge 116, Type (0, 1), BuildingBlock: KIFKEQ_clean_linker_1, # of connection points: 2
#     Edge 117, Type (0, 1), BuildingBlock: KIFKEQ_clean_linker_1, # of connection points: 2
#     Edge 118, Type (0, 1), BuildingBlock: KIFKEQ_clean_linker_1, # of connection points: 2
#     Edge 119, Type (0, 1), BuildingBlock: KIFKEQ_clean_linker_1, # of connection points: 2
#     Edge 120, Type (0, 1), BuildingBlock: KIFKEQ_clean_linker_1, # of connection points: 2
#     Edge 121, Type (0, 1), BuildingBlock: KIFKEQ_clean_linker_1, # of connection points: 2
#     Edge 122, Type (0, 1), BuildingBlock: KIFKEQ_clean_linker_1, # of connection points: 2
#     Edge 123, Type (0, 1), BuildingBlock: KIFKEQ_clean_linker_1, # of connection points: 2
#     Edge 124, Type (0, 1), BuildingBlock: KIFKEQ_clean_linker_1, # of connection points: 2
#     Edge 125, Type (0, 1), BuildingBlock: KIFKEQ_clean_linker_1, # of connection points: 2
#     Edge 126, Type (0, 1), BuildingBlock: KIFKEQ_clean_linker_1, # of connection points: 2
#     Edge 127, Type (0, 1), BuildingBlock: KIFKEQ_clean_linker_1, # of connection points: 2
#     Edge 128, Type (0, 1), BuildingBlock: KIFKEQ_clean_linker_1, # of connection points: 2
#     Edge 129, Type (0, 1), BuildingBlock: KIFKEQ_clean_linker_1, # of connection points: 2
#     Edge 130, Type (0, 1), BuildingBlock: KIFKEQ_clean_linker_1, # of connection points: 2
#     Edge 131, Type (0, 1), BuildingBlock: KIFKEQ_clean_linker_1, # of connection points: 2
#     Edge 132, Type (0, 1), BuildingBlock: KIFKEQ_clean_linker_1, # of connection points: 2
#     Edge 133, Type (0, 1), BuildingBlock: KIFKEQ_clean_linker_1, # of connection points: 2
#     Edge 134, Type (0, 1), BuildingBlock: KIFKEQ_clean_linker_1, # of connection points: 2
#     Edge 135, Type (0, 1), BuildingBlock: KIFKEQ_clean_linker_1, # of connection points: 2
#     Edge 136, Type (0, 1), BuildingBlock: KIFKEQ_clean_linker_1, # of connection points: 2
#     Edge 137, Type (0, 1), BuildingBlock: KIFKEQ_clean_linker_1, # of connection points: 2
#     Edge 138, Type (0, 1), BuildingBlock: KIFKEQ_clean_linker_1, # of connection points: 2
#     Edge 139, Type (0, 1), BuildingBlock: KIFKEQ_clean_linker_1, # of connection points: 2
#     Edge 140, Type (0, 1), BuildingBlock: KIFKEQ_clean_linker_1, # of connection points: 2
#     Edge 141, Type (0, 1), BuildingBlock: KIFKEQ_clean_linker_1, # of connection points: 2
#     Edge 142, Type (0, 1), BuildingBlock: KIFKEQ_clean_linker_1, # of connection points: 2
#     Edge 143, Type (0, 1), BuildingBlock: KIFKEQ_clean_linker_1, # of connection points: 2
#     Edge 144, Type (0, 1), BuildingBlock: KIFKEQ_clean_linker_1, # of connection points: 2
#     Edge 145, Type (0, 1), BuildingBlock: KIFKEQ_clean_linker_1, # of connection points: 2
#     Edge 146, Type (0, 1), BuildingBlock: KIFKEQ_clean_linker_1, # of connection points: 2
#     Edge 147, Type (0, 1), BuildingBlock: KIFKEQ_clean_linker_1, # of connection points: 2
#     Edge 148, Type (0, 1), BuildingBlock: KIFKEQ_clean_linker_1, # of connection points: 2
#     Edge 149, Type (0, 1), BuildingBlock: KIFKEQ_clean_linker_1, # of connection points: 2
#     Edge 150, Type (0, 1), BuildingBlock: KIFKEQ_clean_linker_1, # of connection points: 2
#     Edge 151, Type (0, 1), BuildingBlock: KIFKEQ_clean_linker_1, # of connection points: 2
#     Edge 152, Type (0, 1), BuildingBlock: KIFKEQ_clean_linker_1, # of connection points: 2
#     Edge 153, Type (0, 1), BuildingBlock: KIFKEQ_clean_linker_1, # of connection points: 2
#     Edge 154, Type (0, 1), BuildingBlock: KIFKEQ_clean_linker_1, # of connection points: 2
#     Edge 155, Type (0, 1), BuildingBlock: KIFKEQ_clean_linker_1, # of connection points: 2
#     Edge 156, Type (0, 1), BuildingBlock: KIFKEQ_clean_linker_1, # of connection points: 2
#     Edge 157, Type (0, 1), BuildingBlock: KIFKEQ_clean_linker_1, # of connection points: 2
#     Edge 158, Type (0, 1), BuildingBlock: KIFKEQ_clean_linker_1, # of connection points: 2
#     Edge 159, Type (0, 1), BuildingBlock: KIFKEQ_clean_linker_1, # of connection points: 2
#     Edge 160, Type (0, 1), BuildingBlock: KIFKEQ_clean_linker_1, # of connection points: 2
#     Edge 161, Type (0, 1), BuildingBlock: KIFKEQ_clean_linker_1, # of connection points: 2
#     Edge 162, Type (0, 1), BuildingBlock: KIFKEQ_clean_linker_1, # of connection points: 2
#     Edge 163, Type (0, 1), BuildingBlock: KIFKEQ_clean_linker_1, # of connection points: 2
#     Edge 164, Type (0, 1), BuildingBlock: KIFKEQ_clean_linker_1, # of connection points: 2
#     Edge 165, Type (0, 1), BuildingBlock: KIFKEQ_clean_linker_1, # of connection points: 2
#     Edge 166, Type (0, 1), BuildingBlock: KIFKEQ_clean_linker_1, # of connection points: 2
#     Edge 167, Type (0, 1), BuildingBlock: KIFKEQ_clean_linker_1, # of connection points: 2
#     Edge 168, Type (0, 1), BuildingBlock: KIFKEQ_clean_linker_1, # of connection points: 2
#     Edge 169, Type (0, 1), BuildingBlock: KIFKEQ_clean_linker_1, # of connection points: 2
#     Edge 170, Type (0, 1), BuildingBlock: KIFKEQ_clean_linker_1, # of connection points: 2
#     Edge 171, Type (0, 1), BuildingBlock: KIFKEQ_clean_linker_1, # of connection points: 2
#     Edge 172, Type (0, 1), BuildingBlock: KIFKEQ_clean_linker_1, # of connection points: 2
#     Edge 173, Type (0, 1), BuildingBlock: KIFKEQ_clean_linker_1, # of connection points: 2
#     Edge 174, Type (0, 1), BuildingBlock: KIFKEQ_clean_linker_1, # of connection points: 2
#     Edge 175, Type (0, 1), BuildingBlock: KIFKEQ_clean_linker_1, # of connection points: 2
#     Edge 176, Type (0, 1), BuildingBlock: KIFKEQ_clean_linker_1, # of connection points: 2
#     Edge 177, Type (0, 1), BuildingBlock: KIFKEQ_clean_linker_1, # of connection points: 2
#     Edge 178, Type (0, 1), BuildingBlock: KIFKEQ_clean_linker_1, # of connection points: 2
#     Edge 179, Type (0, 1), BuildingBlock: KIFKEQ_clean_linker_1, # of connection points: 2
#     Edge 180, Type (0, 1), BuildingBlock: KIFKEQ_clean_linker_1, # of connection points: 2
#     Edge 181, Type (0, 1), BuildingBlock: KIFKEQ_clean_linker_1, # of connection points: 2
#     Edge 182, Type (0, 1), BuildingBlock: KIFKEQ_clean_linker_1, # of connection points: 2
#     Edge 183, Type (0, 1), BuildingBlock: KIFKEQ_clean_linker_1, # of connection points: 2
#     Edge 184, Type (0, 1), BuildingBlock: KIFKEQ_clean_linker_1, # of connection points: 2
#     Edge 185, Type (0, 1), BuildingBlock: KIFKEQ_clean_linker_1, # of connection points: 2
#     Edge 186, Type (0, 1), BuildingBlock: KIFKEQ_clean_linker_1, # of connection points: 2
#     Edge 187, Type (0, 1), BuildingBlock: KIFKEQ_clean_linker_1, # of connection points: 2
#     Edge 188, Type (0, 1), BuildingBlock: KIFKEQ_clean_linker_1, # of connection points: 2
#     Edge 189, Type (0, 1), BuildingBlock: KIFKEQ_clean_linker_1, # of connection points: 2
#     Edge 190, Type (0, 1), BuildingBlock: KIFKEQ_clean_linker_1, # of connection points: 2
#     Edge 191, Type (0, 1), BuildingBlock: KIFKEQ_clean_linker_1, # of connection points: 2
#     Edge 192, Type (0, 1), BuildingBlock: KIFKEQ_clean_linker_1, # of connection points: 2
#     Edge 193, Type (0, 1), BuildingBlock: KIFKEQ_clean_linker_1, # of connection points: 2
#     Edge 194, Type (0, 1), BuildingBlock: KIFKEQ_clean_linker_1, # of connection points: 2
#     Edge 195, Type (0, 1), BuildingBlock: KIFKEQ_clean_linker_1, # of connection points: 2
#     Edge 196, Type (0, 1), BuildingBlock: KIFKEQ_clean_linker_1, # of connection points: 2
#     Edge 197, Type (0, 1), BuildingBlock: KIFKEQ_clean_linker_1, # of connection points: 2
#     Edge 198, Type (0, 1), BuildingBlock: KIFKEQ_clean_linker_1, # of connection points: 2
#     Edge 199, Type (0, 1), BuildingBlock: KIFKEQ_clean_linker_1, # of connection points: 2
#     Edge 200, Type (0, 1), BuildingBlock: KIFKEQ_clean_linker_1, # of connection points: 2
#     Edge 201, Type (0, 1), BuildingBlock: KIFKEQ_clean_linker_1, # of connection points: 2
#     Edge 202, Type (0, 1), BuildingBlock: KIFKEQ_clean_linker_1, # of connection points: 2
#     Edge 203, Type (0, 1), BuildingBlock: KIFKEQ_clean_linker_1, # of connection points: 2
#     Edge 204, Type (0, 1), BuildingBlock: KIFKEQ_clean_linker_1, # of connection points: 2
#     Edge 205, Type (0, 1), BuildingBlock: KIFKEQ_clean_linker_1, # of connection points: 2
#     Edge 206, Type (0, 1), BuildingBlock: KIFKEQ_clean_linker_1, # of connection points: 2
#     Edge 207, Type (0, 1), BuildingBlock: KIFKEQ_clean_linker_1, # of connection points: 2
#     Edge 208, Type (0, 1), BuildingBlock: KIFKEQ_clean_linker_1, # of connection points: 2
#     Edge 209, Type (0, 1), BuildingBlock: KIFKEQ_clean_linker_1, # of connection points: 2
#     Edge 210, Type (0, 1), BuildingBlock: KIFKEQ_clean_linker_1, # of connection points: 2
#     Edge 211, Type (0, 1), BuildingBlock: KIFKEQ_clean_linker_1, # of connection points: 2
#     Edge 212, Type (0, 1), BuildingBlock: KIFKEQ_clean_linker_1, # of connection points: 2
#     Edge 213, Type (0, 1), BuildingBlock: KIFKEQ_clean_linker_1, # of connection points: 2
#     Edge 214, Type (0, 1), BuildingBlock: KIFKEQ_clean_linker_1, # of connection points: 2
#     Edge 215, Type (0, 1), BuildingBlock: KIFKEQ_clean_linker_1, # of connection points: 2
#     Edge 216, Type (0, 1), BuildingBlock: KIFKEQ_clean_linker_1, # of connection points: 2
#     Edge 217, Type (0, 1), BuildingBlock: KIFKEQ_clean_linker_1, # of connection points: 2
#     Edge 218, Type (0, 1), BuildingBlock: KIFKEQ_clean_linker_1, # of connection points: 2
#     Edge 219, Type (0, 1), BuildingBlock: KIFKEQ_clean_linker_1, # of connection points: 2
#     Edge 220, Type (0, 1), BuildingBlock: KIFKEQ_clean_linker_1, # of connection points: 2
#     Edge 221, Type (0, 1), BuildingBlock: KIFKEQ_clean_linker_1, # of connection points: 2
#     Edge 222, Type (0, 1), BuildingBlock: KIFKEQ_clean_linker_1, # of connection points: 2
#     Edge 223, Type (0, 1), BuildingBlock: KIFKEQ_clean_linker_1, # of connection points: 2
#     Edge 224, Type (0, 1), BuildingBlock: KIFKEQ_clean_linker_1, # of connection points: 2
#     Edge 225, Type (0, 1), BuildingBlock: KIFKEQ_clean_linker_1, # of connection points: 2
#     Edge 226, Type (0, 1), BuildingBlock: KIFKEQ_clean_linker_1, # of connection points: 2
#     Edge 227, Type (0, 1), BuildingBlock: KIFKEQ_clean_linker_1, # of connection points: 2
#     Edge 228, Type (0, 1), BuildingBlock: KIFKEQ_clean_linker_1, # of connection points: 2
#     Edge 229, Type (0, 1), BuildingBlock: KIFKEQ_clean_linker_1, # of connection points: 2
#     Edge 230, Type (0, 1), BuildingBlock: KIFKEQ_clean_linker_1, # of connection points: 2
#     Edge 231, Type (0, 1), BuildingBlock: KIFKEQ_clean_linker_1, # of connection points: 2
#     Edge 232, Type (0, 1), BuildingBlock: KIFKEQ_clean_linker_1, # of connection points: 2
#     Edge 233, Type (0, 1), BuildingBlock: KIFKEQ_clean_linker_1, # of connection points: 2
#     Edge 234, Type (0, 1), BuildingBlock: KIFKEQ_clean_linker_1, # of connection points: 2
#     Edge 235, Type (0, 1), BuildingBlock: KIFKEQ_clean_linker_1, # of connection points: 2
#     Edge 236, Type (0, 1), BuildingBlock: KIFKEQ_clean_linker_1, # of connection points: 2
#     Edge 237, Type (0, 1), BuildingBlock: KIFKEQ_clean_linker_1, # of connection points: 2
#     Edge 238, Type (0, 1), BuildingBlock: KIFKEQ_clean_linker_1, # of connection points: 2
#     Edge 239, Type (0, 1), BuildingBlock: KIFKEQ_clean_linker_1, # of connection points: 2
# Relax obj value: 0.021
# Max RMSD: 0.198
# Mean RMSD: 0.084
data_MOF--net-bpr--node1-OLANEW_clean_sbu_2--node2-QEWDON_clean_linker_0--edge1-KIFKEQ_clean_linker_1
_symmetry_space_group_name_H-M    P1
_symmetry_Int_Tables_number       1
_symmetry_cell_setting            triclinic
loop_
_symmetry_equiv_pos_as_xyz
'x, y, z'
_cell_length_a     86.836222
_cell_length_b     95.113708
_cell_length_c     93.761153
_cell_angle_alpha  86.708207
_cell_angle_beta   96.717266
_cell_angle_gamma 110.17523
loop_
_atom_site_label
_atom_site_type_symbol
_atom_site_fract_x
_atom_site_fract_y
_atom_site_fract_z
_atom_type_partial_charge
O0 O 0.02936 0.34825 0.27713 0.0
Cd1 Cd 0.016 0.34437 0.25256 0.0
O2 O 0.01538 0.36234 0.2818 0.0
Cd3 Cd 0.00597 0.37714 0.29258 0.0
O4 O 0.98991 0.38864 0.29881 0.0
C5 C 0.99504 0.40047 0.30621 0.0
O6 O 0.01083 0.40628 0.31058 0.0
C7 C 0.02601 0.35611 0.28601 0.0
C8 C 0.03853 0.3448 0.2335 0.0
O9 O 0.03515 0.3566 0.23545 0.0
O10 O 0.03119 0.33283 0.24047 0.0
O11 O 0.85599 0.82638 0.53581 0.0
Cd12 Cd 0.85799 0.80855 0.51898 0.0
O13 O 0.88283 0.83542 0.54142 0.0
Cd14 Cd 0.88575 0.81488 0.53489 0.0
O15 O 0.88501 0.79301 0.54413 0.0
C16 C 0.87254 0.78634 0.55087 0.0
O17 O 0.86109 0.79248 0.55083 0.0
C18 C 0.8686 0.83626 0.54193 0.0
C19 C 0.85283 0.81967 0.49128 0.0
O20 O 0.84081 0.81064 0.49758 0.0
O21 O 0.86737 0.82309 0.49791 0.0
O22 O 0.46761 0.66042 0.82514 0.0
Cd23 Cd 0.47835 0.65616 0.80335 0.0
O24 O 0.44462 0.64135 0.82077 0.0
Cd25 Cd 0.4483 0.63864 0.79859 0.0
O26 O 0.43981 0.63962 0.77581 0.0
C27 C 0.42534 0.63102 0.77157 0.0
O28 O 0.41683 0.62135 0.78078 0.0
C29 C 0.4539 0.65175 0.82901 0.0
C30 C 0.5069 0.64889 0.81041 0.0
O31 O 0.5077 0.66246 0.80765 0.0
O32 O 0.4926 0.63871 0.80968 0.0
O33 O 0.60577 0.2049 0.08159 0.0
Cd34 Cd 0.61242 0.2296 0.06989 0.0
O35 O 0.60549 0.19419 0.06144 0.0
Cd36 Cd 0.60111 0.17584 0.04672 0.0
O37 O 0.5946 0.16275 0.02713 0.0
C38 C 0.59562 0.14981 0.0264 0.0
O39 O 0.60086 0.14364 0.03798 0.0
C40 C 0.60396 0.19312 0.07483 0.0
C41 C 0.62139 0.25232 0.09002 0.0
O42 O 0.60644 0.24677 0.08438 0.0
O43 O 0.63204 0.24717 0.0861 0.0
O44 O 0.08707 0.61887 0.22284 0.0
Cd45 Cd 0.0602 0.6134 0.23165 0.0
O46 O 0.07728 0.60414 0.20424 0.0
Cd47 Cd 0.05132 0.59891 0.20709 0.0
O48 O 0.02677 0.59612 0.19639 0.0
C49 C 0.02649 0.60415 0.18511 0.0
O50 O 0.0405 0.61367 0.18135 0.0
C51 C 0.08947 0.61301 0.21183 0.0
C52 C 0.0633 0.60948 0.26139 0.0
O53 O 0.05915 0.59826 0.25306 0.0
O54 O 0.06571 0.62251 0.25565 0.0
O55 O 0.59156 0.76592 0.48087 0.0
Cd56 Cd 0.59093 0.75268 0.50408 0.0
O57 O 0.61663 0.78124 0.48738 0.0
Cd58 Cd 0.61582 0.77565 0.51026 0.0
O59 O 0.6153 0.78085 0.53256 0.0
C60 C 0.60423 0.78602 0.53508 0.0
O61 O 0.59339 0.78711 0.52445 0.0
C62 C 0.60459 0.77632 0.47774 0.0
C63 C 0.60437 0.73026 0.5017 0.0
O64 O 0.58875 0.72746 0.49963 0.0
O65 O 0.61359 0.74355 0.50534 0.0
O66 O 0.39955 0.36188 0.73652 0.0
Cd67 Cd 0.40571 0.35155 0.76018 0.0
O68 O 0.42385 0.36328 0.73093 0.0
Cd69 Cd 0.44431 0.36958 0.71744 0.0
O70 O 0.46539 0.37676 0.70474 0.0
C71 C 0.46443 0.37153 0.69236 0.0
O72 O 0.45045 0.36161 0.68713 0.0
C73 C 0.41002 0.36505 0.72738 0.0
C74 C 0.38549 0.3533 0.78062 0.0
O75 O 0.39966 0.36339 0.77975 0.0
O76 O 0.38083 0.3425 0.77175 0.0
O77 O 0.91657 0.2294 0.96551 0.0
Cd78 Cd 0.91676 0.24513 0.98543 0.0
O79 O 0.89366 0.21247 0.97167 0.0
Cd80 Cd 0.89109 0.22342 0.99059 0.0
O81 O 0.88387 0.22066 0.01235 0.0
C82 C 0.89314 0.2169 0.02219 0.0
O83 O 0.90716 0.2161 0.01904 0.0
C84 C 0.9051 0.21684 0.96342 0.0
C85 C 0.90769 0.27004 0.97692 0.0
O86 O 0.92285 0.27089 0.97828 0.0
O87 O 0.89677 0.25735 0.97945 0.0
O88 O 0.27333 0.02188 0.38268 0.0
Cd89 Cd 0.24718 0.00105 0.38011 0.0
O90 O 0.26438 0.03976 0.38832 0.0
Cd91 Cd 0.23762 0.0295 0.38395 0.0
O92 O 0.2177 0.03882 0.37889 0.0
C93 C 0.22041 0.05127 0.38481 0.0
O94 O 0.23385 0.05661 0.39371 0.0
C95 C 0.27618 0.03522 0.38654 0.0
C96 C 0.25359 0.97548 0.39134 0.0
O97 O 0.25422 0.97896 0.37796 0.0
O98 O 0.24942 0.98381 0.39929 0.0
O99 O 0.17027 0.01903 0.6972 0.0
Cd100 Cd 0.17961 0.99787 0.70377 0.0
O101 O 0.19204 0.02597 0.68547 0.0
Cd102 Cd 0.21174 0.04152 0.67405 0.0
O103 O 0.23445 0.05477 0.66505 0.0
C104 C 0.24677 0.06226 0.67346 0.0
O105 O 0.24525 0.06211 0.68726 0.0
C106 C 0.17975 0.02864 0.68927 0.0
C107 C 0.15603 0.96958 0.69943 0.0
O108 O 0.1589 0.97585 0.71167 0.0
O109 O 0.16401 0.97688 0.68913 0.0
O110 O 0.2203 0.97447 0.89327 0.0
Cd111 Cd 0.24536 0.99595 0.89071 0.0
O112 O 0.20232 0.98448 0.88281 0.0
Cd113 Cd 0.21817 0.00799 0.88438 0.0
O114 O 0.21599 0.02854 0.89194 0.0
C115 C 0.21493 0.02892 0.90531 0.0
O116 O 0.21677 0.01788 0.91361 0.0
C117 C 0.20564 0.97316 0.88821 0.0
C118 C 0.26652 0.98534 0.87765 0.0
O119 O 0.26724 0.98571 0.89136 0.0
O120 O 0.25624 0.99047 0.87016 0.0
O121 O 0.344 0.99844 0.11654 0.0
Cd122 Cd 0.33865 0.02005 0.10445 0.0
O123 O 0.31727 0.98761 0.11278 0.0
Cd124 Cd 0.29327 0.97013 0.11426 0.0
O125 O 0.26669 0.95894 0.11446 0.0
C126 C 0.26011 0.9562 0.12619 0.0
O127 O 0.26959 0.95963 0.13837 0.0
C128 C 0.3313 0.98684 0.1175 0.0
C129 C 0.35279 0.04716 0.11872 0.0
O130 O 0.33879 0.03781 0.1216 0.0
O131 O 0.36028 0.04352 0.10932 0.0
O132 O 0.34777 0.31782 0.05305 0.0
Cd133 Cd 0.34948 0.29822 0.03821 0.0
O134 O 0.37476 0.32769 0.05693 0.0
Cd135 Cd 0.37778 0.30646 0.05276 0.0
O136 O 0.37861 0.28596 0.06421 0.0
C137 C 0.36863 0.28151 0.07375 0.0
O138 O 0.35857 0.28886 0.07514 0.0
C139 C 0.36057 0.32851 0.05769 0.0
C140 C 0.34617 0.30758 0.00958 0.0
O141 O 0.33358 0.29957 0.01583 0.0
O142 O 0.36042 0.31079 0.01674 0.0
O143 O 0.9132 0.87711 0.23131 0.0
Cd144 Cd 0.92474 0.87408 0.25592 0.0
O145 O 0.93601 0.87773 0.22302 0.0
Cd146 Cd 0.95341 0.88118 0.20688 0.0
O147 O 0.97248 0.88491 0.19236 0.0
C148 C 0.9749 0.89544 0.18298 0.0
O149 O 0.9656 0.90389 0.18202 0.0
C150 C 0.92149 0.8783 0.22071 0.0
C151 C 0.90334 0.87404 0.27599 0.0
O152 O 0.91352 0.88633 0.27148 0.0
O153 O 0.9033 0.86174 0.27103 0.0
O154 O 0.10394 0.70345 0.57214 0.0
Cd155 Cd 0.10884 0.72933 0.56397 0.0
O156 O 0.10894 0.69631 0.55184 0.0
Cd157 Cd 0.10934 0.67973 0.53681 0.0
O158 O 0.10584 0.66436 0.51935 0.0
C159 C 0.09178 0.65433 0.51668 0.0
O160 O 0.08005 0.65332 0.52477 0.0
C161 C 0.10515 0.69323 0.56463 0.0
C162 C 0.10742 0.7464 0.58672 0.0
O163 O 0.09466 0.74056 0.57783 0.0
O164 O 0.12083 0.74435 0.5847 0.0
O165 O 0.01585 0.68998 0.71682 0.0
Cd166 Cd 0.03804 0.6866 0.73374 0.0
O167 O 0.00042 0.68119 0.73422 0.0
Cd168 Cd 0.97962 0.67197 0.7472 0.0
O169 O 0.96817 0.66398 0.76707 0.0
C170 C 0.96486 0.65034 0.77103 0.0
O171 O 0.96748 0.64102 0.76258 0.0
C172 C 0.00168 0.68597 0.72129 0.0
C173 C 0.05306 0.66905 0.72189 0.0
O174 O 0.0398 0.66299 0.72797 0.0
O175 O 0.0593 0.68338 0.72155 0.0
O176 O 0.09993 0.15537 0.47553 0.0
Cd177 Cd 0.0878 0.15615 0.49761 0.0
O178 O 0.10108 0.17827 0.4695 0.0
Cd179 Cd 0.1038 0.19838 0.45586 0.0
O180 O 0.10493 0.22051 0.44698 0.0
C181 C 0.09166 0.2229 0.4424 0.0
O182 O 0.07755 0.21181 0.44263 0.0
C183 C 0.1034 0.16629 0.46658 0.0
C184 C 0.10946 0.15927 0.52258 0.0
O185 O 0.102 0.14641 0.51694 0.0
O186 O 0.10686 0.1707 0.5163 0.0
O187 O 0.51844 0.36314 0.2212 0.0
Cd188 Cd 0.49644 0.36419 0.2347 0.0
O189 O 0.5281 0.38775 0.2195 0.0
Cd190 Cd 0.50578 0.39079 0.22515 0.0
O191 O 0.4825 0.39497 0.22063 0.0
C192 C 0.47004 0.38433 0.21538 0.0
O193 O 0.47152 0.37121 0.21396 0.0
C194 C 0.52962 0.37514 0.21775 0.0
C195 C 0.51068 0.37102 0.2628 0.0
O196 O 0.50344 0.3574 0.25894 0.0
O197 O 0.51059 0.38142 0.25352 0.0
O198 O 0.36158 0.82907 0.95426 0.0
Cd199 Cd 0.36532 0.8147 0.97608 0.0
O200 O 0.36847 0.85043 0.9655 0.0
Cd201 Cd 0.36946 0.84114 0.98734 0.0
O202 O 0.36695 0.83892 0.0104 0.0
C203 C 0.35432 0.84077 0.01446 0.0
O204 O 0.34344 0.8434 0.00469 0.0
C205 C 0.3644 0.84313 0.9539 0.0
C206 C 0.37565 0.79091 0.97047 0.0
O207 O 0.36032 0.78895 0.97076 0.0
O208 O 0.38607 0.8041 0.97278 0.0
O209 O 0.84989 0.32591 0.80893 0.0
Cd210 Cd 0.8478 0.30806 0.79047 0.0
O211 O 0.87658 0.33085 0.81164 0.0
Cd212 Cd 0.90209 0.3393 0.82169 0.0
O213 O 0.92868 0.3447 0.82707 0.0
C214 C 0.93504 0.34264 0.83959 0.0
O215 O 0.9254 0.33745 0.84989 0.0
C216 C 0.86394 0.33296 0.8154 0.0
C217 C 0.84113 0.31801 0.76272 0.0
O218 O 0.82942 0.31087 0.77033 0.0
O219 O 0.85602 0.32056 0.76831 0.0
O220 O 0.37442 0.22874 0.56073 0.0
Cd221 Cd 0.36903 0.24581 0.54193 0.0
O222 O 0.38676 0.22103 0.54541 0.0
Cd223 Cd 0.39709 0.20603 0.53625 0.0
O224 O 0.40299 0.19215 0.52149 0.0
C225 C 0.39091 0.18298 0.51406 0.0
O226 O 0.37586 0.18207 0.51603 0.0
C227 C 0.38177 0.21998 0.55778 0.0
C228 C 0.37685 0.27503 0.55102 0.0
O229 O 0.36293 0.26501 0.55303 0.0
O230 O 0.38717 0.27118 0.54485 0.0
O231 O 0.63033 0.67734 0.32552 0.0
Cd232 Cd 0.63022 0.69103 0.30268 0.0
O233 O 0.60578 0.6781 0.32753 0.0
Cd234 Cd 0.58245 0.67354 0.33681 0.0
O235 O 0.5565 0.67013 0.33865 0.0
C236 C 0.55049 0.66971 0.35047 0.0
O237 O 0.56018 0.67126 0.36256 0.0
C238 C 0.61804 0.67435 0.33272 0.0
C239 C 0.61499 0.67264 0.27935 0.0
O240 O 0.63055 0.67629 0.28294 0.0
O241 O 0.60662 0.67756 0.28691 0.0
O242 O 0.08087 0.76937 0.10295 0.0
Cd243 Cd 0.07559 0.74337 0.09708 0.0
O244 O 0.07414 0.77352 0.08027 0.0
Cd245 Cd 0.07335 0.78779 0.0613 0.0
O246 O 0.07713 0.79759 0.03982 0.0
C247 C 0.09171 0.80504 0.03697 0.0
O248 O 0.10391 0.80721 0.04725 0.0
C249 C 0.079 0.77839 0.09294 0.0
C250 C 0.10314 0.73506 0.10563 0.0
O251 O 0.10111 0.74043 0.09298 0.0
O252 O 0.09213 0.73361 0.11413 0.0
O253 O 0.66216 0.97835 0.60646 0.0
Cd254 Cd 0.67111 0.00076 0.59113 0.0
O255 O 0.68707 0.97737 0.60808 0.0
Cd256 Cd 0.70795 0.96924 0.61252 0.0
O257 O 0.73194 0.96641 0.61761 0.0
C258 C 0.73454 0.9546 0.61465 0.0
O259 O 0.72236 0.94353 0.60842 0.0
C260 C 0.67217 0.97159 0.61098 0.0
C261 C 0.67809 0.02809 0.60435 0.0
O262 O 0.66333 0.02046 0.59939 0.0
O263 O 0.68949 0.02259 0.6034 0.0
O264 O 0.80263 0.99971 0.43582 0.0
Cd265 Cd 0.79391 0.02045 0.44142 0.0
O266 O 0.78099 0.99364 0.41989 0.0
Cd267 Cd 0.76266 0.97822 0.40483 0.0
O268 O 0.74333 0.95899 0.39485 0.0
C269 C 0.74207 0.94617 0.40036 0.0
O270 O 0.75265 0.94521 0.41128 0.0
C271 C 0.79361 0.99102 0.42602 0.0
C272 C 0.8185 0.04836 0.43958 0.0
O273 O 0.81603 0.04147 0.45171 0.0
O274 O 0.80942 0.04201 0.42837 0.0
O275 O 0.7807 0.02036 0.09974 0.0
Cd276 Cd 0.76531 0.99377 0.09563 0.0
O277 O 0.75956 0.02117 0.10986 0.0
Cd278 Cd 0.74466 0.03191 0.11934 0.0
O279 O 0.72521 0.03777 0.12764 0.0
C280 C 0.72269 0.05001 0.12434 0.0
O281 O 0.73234 0.05976 0.11589 0.0
C282 C 0.77393 0.0278 0.10607 0.0
C283 C 0.78523 0.97598 0.09798 0.0
O284 O 0.78166 0.98163 0.08583 0.0
O285 O 0.7795 0.97886 0.10902 0.0
O286 O 0.69707 0.03714 0.91954 0.0
Cd287 Cd 0.71898 0.02622 0.92197 0.0
O288 O 0.69767 0.03985 0.89612 0.0
Cd289 Cd 0.72035 0.03488 0.89584 0.0
O290 O 0.74667 0.04143 0.89367 0.0
C291 C 0.75652 0.04936 0.90359 0.0
O292 O 0.75042 0.05217 0.91485 0.0
C293 C 0.6912 0.04076 0.90737 0.0
C294 C 0.70492 0.99537 0.91817 0.0
O295 O 0.70879 0.00439 0.90745 0.0
O296 O 0.70803 0.00091 0.93076 0.0
O297 O 0.59172 0.64986 0.98184 0.0
Cd298 Cd 0.57611 0.65845 0.99741 0.0
O299 O 0.59938 0.67286 0.97353 0.0
Cd300 Cd 0.60894 0.69232 0.95931 0.0
O301 O 0.61293 0.71512 0.95094 0.0
C302 C 0.60026 0.71865 0.94672 0.0
O303 O 0.5856 0.70831 0.9469 0.0
C304 C 0.59958 0.65959 0.97301 0.0
C305 C 0.57808 0.64897 0.02602 0.0
O306 O 0.56708 0.64094 0.01666 0.0
O307 O 0.58834 0.66135 0.02177 0.0
O308 O 0.12507 0.17767 0.80772 0.0
Cd309 Cd 0.12298 0.19562 0.7885 0.0
O310 O 0.09835 0.1705 0.80826 0.0
Cd311 Cd 0.07445 0.15958 0.81663 0.0
O312 O 0.04862 0.15164 0.82103 0.0
C313 C 0.04435 0.15255 0.83336 0.0
O314 O 0.05581 0.15807 0.84399 0.0
C315 C 0.11219 0.16939 0.81318 0.0
C316 C 0.1337 0.18985 0.76333 0.0
O317 O 0.14387 0.19807 0.77307 0.0
O318 O 0.11843 0.1844 0.76547 0.0
O319 O 0.86273 0.33451 0.44158 0.0
Cd320 Cd 0.86376 0.31765 0.46212 0.0
O321 O 0.86981 0.35425 0.45527 0.0
Cd322 Cd 0.86807 0.34186 0.47566 0.0
O323 O 0.86141 0.33553 0.49743 0.0
C324 C 0.8652 0.34587 0.50656 0.0
O325 O 0.87353 0.35965 0.50268 0.0
C326 C 0.86638 0.34857 0.44286 0.0
C327 C 0.87649 0.29554 0.45625 0.0
O328 O 0.88606 0.30865 0.46012 0.0
O329 O 0.86089 0.2929 0.45504 0.0
O330 O 0.53321 0.87772 0.7963 0.0
Cd331 Cd 0.51506 0.87926 0.77475 0.0
O332 O 0.51391 0.85933 0.80594 0.0
Cd333 Cd 0.49368 0.86359 0.79236 0.0
O334 O 0.47133 0.86947 0.79136 0.0
C335 C 0.47268 0.88235 0.79558 0.0
O336 O 0.48748 0.89192 0.7993 0.0
C337 C 0.52894 0.86766 0.80601 0.0
C338 C 0.52672 0.86944 0.7521 0.0
O339 O 0.53108 0.88344 0.75468 0.0
O340 O 0.51642 0.86019 0.75988 0.0
O341 O 0.96998 0.17843 0.30811 0.0
Cd342 Cd 0.9797 0.17638 0.28511 0.0
O343 O 0.95429 0.15468 0.30776 0.0
Cd344 Cd 0.95481 0.15281 0.28475 0.0
O345 O 0.94204 0.15407 0.26348 0.0
C346 C 0.93338 0.16252 0.26279 0.0
O347 O 0.93349 0.1698 0.27433 0.0
C348 C 0.96061 0.16699 0.31437 0.0
C349 C 0.00864 0.16955 0.29089 0.0
O350 O 0.9945 0.15914 0.2896 0.0
O351 O 0.00909 0.18314 0.28904 0.0
O352 O 0.57919 0.12052 0.7275 0.0
Cd353 Cd 0.55338 0.10787 0.73809 0.0
O354 O 0.57612 0.14257 0.72577 0.0
Cd355 Cd 0.55077 0.13362 0.73118 0.0
O356 O 0.52511 0.12623 0.72185 0.0
C357 C 0.52088 0.11566 0.71292 0.0
O358 O 0.53165 0.10931 0.71077 0.0
C359 C 0.58469 0.13439 0.72424 0.0
C360 C 0.55883 0.10531 0.76784 0.0
O361 O 0.56079 0.09593 0.75957 0.0
O362 O 0.5542 0.11593 0.76206 0.0
O363 O 0.04392 0.23649 0.95907 0.0
Cd364 Cd 0.03588 0.2123 0.97177 0.0
O365 O 0.05587 0.24778 0.97918 0.0
Cd366 Cd 0.06871 0.26692 0.99308 0.0
O367 O 0.08031 0.28397 0.00933 0.0
C368 C 0.07126 0.28848 0.01631 0.0
O369 O 0.05516 0.28295 0.0133 0.0
C370 C 0.0522 0.24848 0.96568 0.0
C371 C 0.05584 0.19626 0.96592 0.0
O372 O 0.04309 0.19606 0.95741 0.0
O373 O 0.05911 0.20392 0.97738 0.0
O374 O 0.37574 0.72613 0.46759 0.0
Cd375 Cd 0.36687 0.73658 0.48715 0.0
O376 O 0.39603 0.72164 0.48118 0.0
Cd377 Cd 0.38968 0.72779 0.50118 0.0
O378 O 0.38335 0.72161 0.52306 0.0
C379 C 0.39292 0.7163 0.53111 0.0
O380 O 0.40625 0.71581 0.52612 0.0
C381 C 0.38791 0.72145 0.46895 0.0
C382 C 0.3584 0.7617 0.47812 0.0
O383 O 0.37312 0.763 0.48339 0.0
O384 O 0.34764 0.7485 0.47714 0.0
O385 O 0.78547 0.51204 0.88911 0.0
Cd386 Cd 0.76182 0.48876 0.88858 0.0
O387 O 0.77488 0.528 0.89673 0.0
Cd388 Cd 0.74831 0.51579 0.89422 0.0
O389 O 0.72606 0.52209 0.89043 0.0
C390 C 0.7276 0.53472 0.89544 0.0
O391 O 0.7416 0.54221 0.90283 0.0
C392 C 0.78718 0.52498 0.89343 0.0
C393 C 0.77418 0.46636 0.89986 0.0
O394 O 0.76929 0.474 0.908 0.0
O395 O 0.77268 0.4689 0.88629 0.0
O396 O 0.69376 0.55031 0.16559 0.0
Cd397 Cd 0.71765 0.54221 0.16549 0.0
O398 O 0.69096 0.55193 0.14199 0.0
Cd399 Cd 0.71361 0.548 0.13905 0.0
O400 O 0.73838 0.55509 0.13242 0.0
C401 C 0.74751 0.54708 0.13312 0.0
O402 O 0.74202 0.53329 0.13823 0.0
C403 C 0.68596 0.55294 0.15398 0.0
C404 C 0.70836 0.5111 0.16444 0.0
O405 O 0.71254 0.51787 0.17647 0.0
O406 O 0.70862 0.51905 0.15291 0.0
O407 O 0.73081 0.48813 0.39472 0.0
Cd408 Cd 0.75754 0.50779 0.40014 0.0
O409 O 0.71579 0.50256 0.3887 0.0
Cd410 Cd 0.73317 0.52363 0.39746 0.0
O411 O 0.73303 0.54244 0.40985 0.0
C412 C 0.72831 0.55265 0.40351 0.0
O413 O 0.72506 0.55235 0.38946 0.0
C414 C 0.71718 0.48965 0.38976 0.0
C415 C 0.78136 0.50028 0.38759 0.0
O416 O 0.77834 0.49625 0.40054 0.0
O417 O 0.77342 0.50812 0.38072 0.0
O418 O 0.83825 0.48383 0.65157 0.0
Cd419 Cd 0.83922 0.50585 0.66432 0.0
O420 O 0.81181 0.47723 0.65292 0.0
Cd421 Cd 0.78559 0.4638 0.65242 0.0
O422 O 0.75871 0.45439 0.64941 0.0
C423 C 0.75023 0.44782 0.65955 0.0
O424 O 0.75784 0.44638 0.67222 0.0
C425 C 0.82394 0.47409 0.64934 0.0
C426 C 0.84992 0.53349 0.65011 0.0
O427 O 0.86013 0.52849 0.65789 0.0
O428 O 0.83469 0.52513 0.64862 0.0
O429 O 0.5339 0.19823 0.23808 0.0
Cd430 Cd 0.55879 0.19736 0.25268 0.0
O431 O 0.52084 0.18659 0.25612 0.0
Cd432 Cd 0.50205 0.17448 0.27035 0.0
O433 O 0.4899 0.16578 0.28972 0.0
C434 C 0.48631 0.15208 0.2935 0.0
O435 O 0.48936 0.14285 0.28523 0.0
C436 C 0.5203 0.19199 0.24339 0.0
C437 C 0.56954 0.17658 0.24088 0.0
O438 O 0.55848 0.17242 0.24967 0.0
O439 O 0.5758 0.19061 0.23796 0.0
O440 O 0.97822 0.80716 0.76438 0.0
Cd441 Cd 0.96548 0.80703 0.78626 0.0
O442 O 0.96931 0.82524 0.75608 0.0
Cd443 Cd 0.96458 0.8417 0.74056 0.0
O444 O 0.95353 0.8554 0.7263 0.0
C445 C 0.94622 0.85008 0.71425 0.0
O446 O 0.94613 0.83688 0.7107 0.0
C447 C 0.97746 0.81669 0.7545 0.0
C448 C 0.99034 0.81779 0.80863 0.0
O449 O 0.98373 0.80371 0.80631 0.0
O450 O 0.98494 0.82677 0.80054 0.0
O451 O 0.40066 0.87179 0.32135 0.0
Cd452 Cd 0.41713 0.86512 0.30519 0.0
O453 O 0.42119 0.88045 0.33824 0.0
Cd454 Cd 0.43944 0.87511 0.32751 0.0
O455 O 0.46104 0.86881 0.32553 0.0
C456 C 0.46838 0.8657 0.33717 0.0
O457 O 0.46255 0.86636 0.34934 0.0
C458 C 0.40611 0.8777 0.33356 0.0
C459 C 0.40576 0.86815 0.27649 0.0
O460 O 0.39886 0.85638 0.2839 0.0
O461 O 0.41813 0.87851 0.2826 0.0
O462 O 0.91386 0.73399 0.06348 0.0
Cd463 Cd 0.9229 0.75862 0.05155 0.0
O464 O 0.92525 0.72779 0.04638 0.0
Cd465 Cd 0.93056 0.71222 0.03306 0.0
O466 O 0.93225 0.69816 0.01613 0.0
C467 C 0.91933 0.68756 0.01159 0.0
O468 O 0.90567 0.68522 0.01755 0.0
C469 C 0.91757 0.72409 0.05752 0.0
C470 C 0.90989 0.77964 0.05963 0.0
O471 O 0.90218 0.77018 0.04979 0.0
O472 O 0.92349 0.77885 0.06594 0.0
O473 O 0.60572 0.28318 0.56525 0.0
Cd474 Cd 0.60996 0.26675 0.54812 0.0
O475 O 0.59579 0.29323 0.54654 0.0
Cd476 Cd 0.58884 0.31042 0.53376 0.0
O477 O 0.58856 0.3221 0.5131 0.0
C478 C 0.60215 0.32685 0.50758 0.0
O479 O 0.61533 0.32534 0.51498 0.0
C480 C 0.59987 0.29311 0.55999 0.0
C481 C 0.62496 0.24724 0.56154 0.0
O482 O 0.63361 0.26066 0.55816 0.0
O483 O 0.60927 0.24307 0.55854 0.0
O484 O 0.17441 0.49507 0.07795 0.0
Cd485 Cd 0.18338 0.51872 0.06439 0.0
O486 O 0.19992 0.49648 0.08468 0.0
Cd487 Cd 0.2198 0.4894 0.09567 0.0
O488 O 0.24093 0.48307 0.10462 0.0
C489 C 0.25004 0.48063 0.09609 0.0
O490 O 0.24634 0.48187 0.08218 0.0
C491 C 0.18452 0.4893 0.08449 0.0
C492 C 0.19195 0.54456 0.08048 0.0
O493 O 0.17688 0.53747 0.07592 0.0
O494 O 0.20295 0.53923 0.07771 0.0
O495 O 0.3092 0.48537 0.95281 0.0
Cd496 Cd 0.30299 0.50498 0.96435 0.0
O497 O 0.2843 0.47819 0.94151 0.0
Cd498 Cd 0.26267 0.46257 0.92943 0.0
O499 O 0.23874 0.44698 0.92098 0.0
C500 C 0.23199 0.43536 0.92845 0.0
O501 O 0.23984 0.43305 0.94072 0.0
C502 C 0.29817 0.47634 0.94437 0.0
C503 C 0.32315 0.53418 0.95848 0.0
O504 O 0.3277 0.5262 0.96844 0.0
O505 O 0.30917 0.52826 0.95112 0.0
O506 O 0.28088 0.5153 0.5935 0.0
Cd507 Cd 0.267 0.48907 0.58709 0.0
O508 O 0.25905 0.51508 0.60322 0.0
Cd509 Cd 0.24384 0.52512 0.61321 0.0
O510 O 0.22494 0.53169 0.62163 0.0
C511 C 0.22213 0.54357 0.61731 0.0
O512 O 0.23107 0.5523 0.60776 0.0
C513 C 0.27369 0.52206 0.6002 0.0
C514 C 0.28857 0.47294 0.59222 0.0
O515 O 0.28673 0.47912 0.57993 0.0
O516 O 0.28012 0.47433 0.60205 0.0
O517 O 0.20742 0.54688 0.39428 0.0
Cd518 Cd 0.22622 0.5326 0.3954 0.0
O519 O 0.20283 0.5422 0.41693 0.0
Cd520 Cd 0.21323 0.52424 0.41871 0.0
O521 O 0.2053 0.49999 0.41642 0.0
C522 C 0.1973 0.49501 0.40447 0.0
O523 O 0.19567 0.50465 0.3943 0.0
C524 C 0.20091 0.54893 0.40509 0.0
C525 C 0.25841 0.55157 0.39241 0.0
O526 O 0.24879 0.5451 0.38149 0.0
O527 O 0.25284 0.54895 0.40473 0.0
H528 H 0.14071 0.38052 0.13495 0.0
C529 C 0.13545 0.37378 0.12549 0.0
C530 C 0.13484 0.38073 0.11189 0.0
C531 C 0.12932 0.35812 0.12688 0.0
H532 H 0.12722 0.37715 0.08925 0.0
C533 C 0.12779 0.37183 0.09975 0.0
C534 C 0.12156 0.35614 0.10103 0.0
C535 C 0.12251 0.34938 0.11466 0.0
C536 C 0.12983 0.35068 0.14108 0.0
H537 H 0.11793 0.33727 0.11582 0.0
C538 C 0.12014 0.35224 0.15146 0.0
C539 C 0.11912 0.34379 0.16435 0.0
C540 C 0.13895 0.34101 0.14383 0.0
H541 H 0.14641 0.33961 0.13589 0.0
C542 C 0.13838 0.33296 0.1568 0.0
H543 H 0.11274 0.35941 0.14918 0.0
C544 C 0.12841 0.33422 0.16697 0.0
H545 H 0.1279 0.32766 0.17685 0.0
H546 H 0.14545 0.32552 0.15887 0.0
H547 H 0.8076 0.90113 0.37671 0.0
C548 C 0.81252 0.89465 0.38468 0.0
C549 C 0.81611 0.89912 0.39905 0.0
C550 C 0.81554 0.88203 0.38039 0.0
H551 H 0.82484 0.89373 0.4204 0.0
C552 C 0.82265 0.89067 0.40919 0.0
C553 C 0.82561 0.87789 0.40511 0.0
C554 C 0.82219 0.87375 0.3906 0.0
C555 C 0.81126 0.87742 0.36524 0.0
H556 H 0.82444 0.86396 0.38728 0.0
C557 C 0.82339 0.87654 0.35696 0.0
C558 C 0.81949 0.87341 0.34221 0.0
C559 C 0.79509 0.87467 0.35879 0.0
H560 H 0.78559 0.87529 0.365 0.0
C561 C 0.79107 0.87114 0.34429 0.0
H562 H 0.83596 0.87898 0.36183 0.0
C563 C 0.80319 0.8706 0.336 0.0
H564 H 0.79983 0.868 0.32472 0.0
H565 H 0.77857 0.869 0.33941 0.0
H566 H 0.33504 0.62724 0.65026 0.0
C567 C 0.34001 0.63472 0.64147 0.0
C568 C 0.33816 0.62906 0.62763 0.0
C569 C 0.34818 0.65004 0.64397 0.0
H570 H 0.34312 0.63451 0.60562 0.0
C571 C 0.34478 0.63883 0.61636 0.0
C572 C 0.35293 0.6542 0.61871 0.0
C573 C 0.35446 0.65973 0.63256 0.0
C574 C 0.35028 0.65605 0.65852 0.0
H575 H 0.36093 0.67154 0.63457 0.0
C576 C 0.35911 0.65091 0.66991 0.0
C577 C 0.36209 0.65734 0.68356 0.0
C578 C 0.34413 0.66745 0.66088 0.0
H579 H 0.33733 0.67157 0.6522 0.0
C580 C 0.34666 0.6736 0.67447 0.0
H581 H 0.36423 0.64237 0.66797 0.0
C582 C 0.35561 0.66864 0.68574 0.0
H583 H 0.35745 0.67363 0.69618 0.0
H584 H 0.34177 0.68233 0.67625 0.0
H585 H 0.58991 0.07958 0.91462 0.0
C586 C 0.58746 0.08263 0.90348 0.0
C587 C 0.59791 0.08195 0.89338 0.0
C588 C 0.57368 0.087 0.89921 0.0
H589 H 0.60203 0.08447 0.87106 0.0
C590 C 0.59443 0.08569 0.87895 0.0
C591 C 0.58091 0.09037 0.8745 0.0
C592 C 0.57059 0.09098 0.88476 0.0
C593 C 0.5622 0.08703 0.90971 0.0
H594 H 0.56022 0.09473 0.88158 0.0
C595 C 0.56815 0.09415 0.92299 0.0
C596 C 0.55714 0.09447 0.93278 0.0
C597 C 0.54513 0.08003 0.90637 0.0
H598 H 0.54026 0.07437 0.89626 0.0
C599 C 0.53419 0.08009 0.91611 0.0
H600 H 0.58128 0.09986 0.92546 0.0
C601 C 0.54011 0.08726 0.92922 0.0
H602 H 0.53135 0.08709 0.93661 0.0
H603 H 0.52107 0.07457 0.91349 0.0
H604 H 0.09921 0.5853 0.40787 0.0
C605 C 0.09622 0.58781 0.39669 0.0
C606 C 0.10735 0.58868 0.38664 0.0
C607 C 0.08104 0.58977 0.39233 0.0
H608 H 0.11154 0.59221 0.36426 0.0
C609 C 0.10328 0.59193 0.37217 0.0
C610 C 0.08819 0.59399 0.36767 0.0
C611 C 0.07712 0.59284 0.3778 0.0
C612 C 0.06909 0.58828 0.40289 0.0
H613 H 0.06551 0.59454 0.37441 0.0
C614 C 0.07427 0.59554 0.41615 0.0
C615 C 0.06293 0.5942 0.42615 0.0
C616 C 0.0524 0.57954 0.39973 0.0
H617 H 0.04812 0.57373 0.38965 0.0
C618 C 0.04113 0.57806 0.40966 0.0
H619 H 0.08712 0.60231 0.41863 0.0
C620 C 0.04631 0.58533 0.42278 0.0
H621 H 0.03725 0.58422 0.43017 0.0
H622 H 0.0283 0.5713 0.40714 0.0
H623 H 0.61917 0.86298 0.66144 0.0
C624 C 0.6176 0.85647 0.65193 0.0
C625 C 0.62437 0.86364 0.63944 0.0
C626 C 0.6093 0.84088 0.65229 0.0
H627 H 0.62778 0.86067 0.61755 0.0
C628 C 0.62263 0.85514 0.62721 0.0
C629 C 0.61414 0.83964 0.62728 0.0
C630 C 0.60756 0.8326 0.63986 0.0
C631 C 0.60248 0.83308 0.66557 0.0
H632 H 0.60068 0.82069 0.63985 0.0
C633 C 0.59431 0.83937 0.67416 0.0
C634 C 0.58738 0.83165 0.68646 0.0
C635 C 0.60389 0.81907 0.6696 0.0
H636 H 0.61036 0.81405 0.66341 0.0
C637 C 0.59703 0.81136 0.6817 0.0
H638 H 0.59329 0.85021 0.6712 0.0
C639 C 0.58875 0.81751 0.69001 0.0
H640 H 0.58324 0.81106 0.69915 0.0
H641 H 0.59807 0.80052 0.68461 0.0
H642 H 0.30506 0.3842 0.89041 0.0
C643 C 0.31092 0.37843 0.89837 0.0
C644 C 0.31578 0.38389 0.91241 0.0
C645 C 0.31309 0.36522 0.89462 0.0
H646 H 0.32636 0.3798 0.93354 0.0
C647 C 0.32277 0.37581 0.92265 0.0
C648 C 0.32462 0.36235 0.91913 0.0
C649 C 0.31996 0.35724 0.90497 0.0
C650 C 0.30684 0.35904 0.88018 0.0
H651 H 0.32125 0.34687 0.90207 0.0
C652 C 0.31775 0.35964 0.87003 0.0
C653 C 0.31168 0.35357 0.85626 0.0
C654 C 0.28981 0.35237 0.87661 0.0
H655 H 0.28126 0.35183 0.88435 0.0
C656 C 0.28371 0.34616 0.86313 0.0
H657 H 0.33088 0.36511 0.8728 0.0
C658 C 0.29451 0.34668 0.85304 0.0
H659 H 0.28938 0.34153 0.84275 0.0
H660 H 0.27055 0.34086 0.86049 0.0
H661 H 0.83122 0.13817 0.14493 0.0
C662 C 0.83596 0.14496 0.13568 0.0
C663 C 0.83438 0.13818 0.12241 0.0
C664 C 0.84355 0.16051 0.13701 0.0
H665 H 0.83957 0.1419 0.1003 0.0
C666 C 0.84068 0.14711 0.11053 0.0
C667 C 0.84829 0.1627 0.11174 0.0
C668 C 0.8496 0.16932 0.12503 0.0
C669 C 0.8451 0.1677 0.15089 0.0
H670 H 0.8553 0.18136 0.12609 0.0
C671 C 0.8545 0.16421 0.1629 0.0
C672 C 0.85666 0.17161 0.17595 0.0
C673 C 0.83766 0.17849 0.152 0.0
H674 H 0.83042 0.18134 0.14282 0.0
C675 C 0.83947 0.18564 0.16498 0.0
H676 H 0.86031 0.15592 0.16199 0.0
C677 C 0.84893 0.18227 0.17688 0.0
H678 H 0.8505 0.18828 0.18672 0.0
H679 H 0.83369 0.19395 0.16578 0.0
H680 H 0.14196 0.14191 0.36814 0.0
C681 C 0.13189 0.14332 0.3609 0.0
C682 C 0.12076 0.14904 0.36615 0.0
C683 C 0.13058 0.14019 0.34621 0.0
H684 H 0.09925 0.1554 0.36068 0.0
C685 C 0.10813 0.15137 0.35662 0.0
C686 C 0.1066 0.14836 0.34196 0.0
C687 C 0.11773 0.14259 0.33686 0.0
C688 C 0.14325 0.13544 0.34042 0.0
H689 H 0.11659 0.14027 0.32553 0.0
C690 C 0.14965 0.12504 0.34795 0.0
C691 C 0.16223 0.12127 0.34267 0.0
C692 C 0.14946 0.14179 0.32744 0.0
H693 H 0.14506 0.15002 0.32152 0.0
C694 C 0.16176 0.13792 0.32211 0.0
H695 H 0.14503 0.12004 0.35797 0.0
C696 C 0.16816 0.12779 0.32968 0.0
H697 H 0.17775 0.12498 0.32534 0.0
H698 H 0.16646 0.14292 0.31214 0.0
H699 H 0.07013 0.81652 0.68957 0.0
C700 C 0.07594 0.82858 0.68888 0.0
C701 C 0.06718 0.838 0.69153 0.0
C702 C 0.09255 0.8347 0.68619 0.0
H703 H 0.0687 0.86102 0.69334 0.0
C704 C 0.07507 0.85363 0.6908 0.0
C705 C 0.09166 0.85982 0.68817 0.0
C706 C 0.10032 0.85029 0.68589 0.0
C707 C 0.10242 0.82496 0.68512 0.0
H708 H 0.11324 0.855 0.68411 0.0
C709 C 0.0988 0.81487 0.6738 0.0
C710 C 0.109 0.80635 0.67242 0.0
C711 C 0.11604 0.82627 0.69527 0.0
H712 H 0.11901 0.83399 0.70406 0.0
C713 C 0.12597 0.81768 0.69414 0.0
H714 H 0.08827 0.8139 0.66598 0.0
C715 C 0.12257 0.80786 0.68278 0.0
H716 H 0.13087 0.80174 0.68193 0.0
H717 H 0.1365 0.8188 0.70197 0.0
H718 H 0.34259 0.90108 0.85602 0.0
C719 C 0.3526 0.90079 0.85029 0.0
C720 C 0.36408 0.89452 0.85709 0.0
C721 C 0.35394 0.90649 0.8361 0.0
H722 H 0.38539 0.88855 0.85472 0.0
C723 C 0.3767 0.89362 0.84954 0.0
C724 C 0.37806 0.8989 0.83531 0.0
C725 C 0.36688 0.90563 0.82877 0.0
C726 C 0.34152 0.9128 0.82869 0.0
H727 H 0.3681 0.90991 0.81785 0.0
C728 C 0.33481 0.92145 0.83613 0.0
C729 C 0.32293 0.92721 0.82905 0.0
C730 C 0.33613 0.90999 0.81405 0.0
H731 H 0.34065 0.90309 0.80805 0.0
C732 C 0.3246 0.91585 0.80695 0.0
H733 H 0.33874 0.92364 0.84742 0.0
C734 C 0.31808 0.92441 0.81434 0.0
H735 H 0.30926 0.92892 0.80848 0.0
H736 H 0.32065 0.91368 0.79566 0.0
H737 H 0.40964 0.18976 0.17905 0.0
C738 C 0.40584 0.179 0.17389 0.0
C739 C 0.41503 0.16944 0.17716 0.0
C740 C 0.39126 0.17441 0.16455 0.0
H741 H 0.41654 0.14781 0.17353 0.0
C742 C 0.40957 0.15528 0.17083 0.0
C743 C 0.39506 0.1506 0.16129 0.0
C744 C 0.38599 0.16032 0.1582 0.0
C745 C 0.38047 0.18354 0.16275 0.0
H746 H 0.37468 0.15692 0.151 0.0
C747 C 0.3821 0.19454 0.1518 0.0
C748 C 0.37161 0.20314 0.15029 0.0
C749 C 0.36832 0.18107 0.17213 0.0
H750 H 0.36692 0.17259 0.18058 0.0
C751 C 0.35787 0.18947 0.17065 0.0
H752 H 0.39159 0.19648 0.14464 0.0
C753 C 0.35946 0.20042 0.15982 0.0
H754 H 0.35101 0.20664 0.1588 0.0
H755 H 0.34845 0.18747 0.17788 0.0
H756 H 0.08912 0.89034 0.11173 0.0
C757 C 0.10219 0.89593 0.11464 0.0
C758 C 0.11316 0.88792 0.11494 0.0
C759 C 0.10808 0.91136 0.11738 0.0
H760 H 0.13871 0.8895 0.11891 0.0
C761 C 0.13011 0.89554 0.11843 0.0
C762 C 0.13623 0.91098 0.12093 0.0
C763 C 0.12514 0.91884 0.12035 0.0
C764 C 0.09647 0.91979 0.11673 0.0
H765 H 0.12977 0.93075 0.12241 0.0
C766 C 0.0822 0.91439 0.124 0.0
C767 C 0.07126 0.92247 0.12352 0.0
C768 C 0.09966 0.93334 0.10887 0.0
H769 H 0.1105 0.93768 0.1031 0.0
C770 C 0.08879 0.94132 0.10823 0.0
H771 H 0.07968 0.90395 0.13011 0.0
C772 C 0.07469 0.93596 0.11549 0.0
H773 H 0.06664 0.94253 0.11505 0.0
H774 H 0.09135 0.95174 0.10213 0.0
H775 H 0.32956 0.88753 0.41364 0.0
C776 C 0.3301 0.87727 0.41897 0.0
C777 C 0.3369 0.86828 0.41226 0.0
C778 C 0.32433 0.87319 0.43258 0.0
H779 H 0.34395 0.84862 0.41436 0.0
C780 C 0.33833 0.85536 0.41938 0.0
C781 C 0.33316 0.85131 0.4331 0.0
C782 C 0.32577 0.86003 0.43947 0.0
C783 C 0.31752 0.88297 0.43989 0.0
H784 H 0.32152 0.85673 0.44997 0.0
C785 C 0.30811 0.89085 0.432 0.0
C786 C 0.30193 0.90023 0.43895 0.0
C787 C 0.32064 0.88469 0.45489 0.0
H788 H 0.3282 0.87922 0.46131 0.0
C789 C 0.31436 0.8938 0.46182 0.0
H790 H 0.30535 0.88955 0.42048 0.0
C791 C 0.30507 0.90151 0.45395 0.0
H792 H 0.30068 0.90879 0.45957 0.0
H793 H 0.31691 0.89504 0.47335 0.0
H794 H 0.39948 0.12718 0.61927 0.0
C795 C 0.38783 0.12282 0.62388 0.0
C796 C 0.3771 0.1311 0.62265 0.0
C797 C 0.38343 0.10877 0.63086 0.0
H798 H 0.35367 0.13155 0.62772 0.0
C799 C 0.36203 0.12524 0.62869 0.0
C800 C 0.35748 0.11115 0.63566 0.0
C801 C 0.36829 0.10296 0.63666 0.0
C802 C 0.39432 0.09977 0.63164 0.0
H803 H 0.36484 0.09194 0.64174 0.0
C804 C 0.4086 0.10337 0.64139 0.0
C805 C 0.41865 0.09439 0.64255 0.0
C806 C 0.39009 0.08721 0.62294 0.0
H807 H 0.37903 0.08426 0.61544 0.0
C808 C 0.40012 0.07839 0.62388 0.0
H809 H 0.41179 0.11307 0.64811 0.0
C810 C 0.4143 0.08192 0.63362 0.0
H811 H 0.42169 0.07472 0.63436 0.0
H812 H 0.39681 0.06871 0.61715 0.0
H813 H 0.13147 0.10814 0.91223 0.0
C814 C 0.12864 0.11628 0.91808 0.0
C815 C 0.12162 0.12606 0.91037 0.0
C816 C 0.1313 0.11664 0.93324 0.0
H817 H 0.11145 0.1435 0.9118 0.0
C818 C 0.11717 0.13618 0.9178 0.0
C819 C 0.11987 0.13695 0.93279 0.0
C820 C 0.12717 0.12733 0.94041 0.0
C821 C 0.13768 0.10557 0.94169 0.0
H822 H 0.12967 0.12829 0.95197 0.0
C823 C 0.14841 0.09945 0.9361 0.0
C824 C 0.15382 0.08864 0.94403 0.0
C825 C 0.13262 0.10068 0.95541 0.0
H826 H 0.12391 0.10453 0.95995 0.0
C827 C 0.13843 0.09046 0.96348 0.0
H828 H 0.15238 0.10288 0.92554 0.0
C829 C 0.14897 0.08452 0.9579 0.0
H830 H 0.15325 0.07658 0.96446 0.0
H831 H 0.13455 0.08696 0.97407 0.0
H832 H 0.86276 0.38846 0.91372 0.0
C833 C 0.86569 0.37956 0.91987 0.0
C834 C 0.87107 0.36976 0.91278 0.0
C835 C 0.86469 0.37817 0.93484 0.0
H836 H 0.87934 0.3508 0.91519 0.0
C837 C 0.87556 0.35859 0.92071 0.0
C838 C 0.87475 0.35697 0.93555 0.0
C839 C 0.86895 0.36656 0.9425 0.0
C840 C 0.85985 0.38908 0.94262 0.0
H841 H 0.86801 0.36503 0.95394 0.0
C842 C 0.84861 0.39588 0.936 0.0
C843 C 0.84449 0.40641 0.94338 0.0
C844 C 0.86685 0.39306 0.95678 0.0
H845 H 0.87597 0.38862 0.96213 0.0
C846 C 0.86243 0.40308 0.96425 0.0
H847 H 0.84318 0.39312 0.92508 0.0
C848 C 0.85132 0.40966 0.95768 0.0
H849 H 0.84809 0.41733 0.96384 0.0
H850 H 0.86779 0.40588 0.97519 0.0
H851 H 0.90693 0.61444 0.09258 0.0
C852 C 0.89449 0.60903 0.09547 0.0
C853 C 0.88335 0.61695 0.09433 0.0
C854 C 0.88948 0.59392 0.09985 0.0
H855 H 0.8587 0.61562 0.09774 0.0
C856 C 0.86721 0.60952 0.098 0.0
C857 C 0.86209 0.59439 0.10244 0.0
C858 C 0.8733 0.58664 0.1032 0.0
C859 C 0.90115 0.58563 0.10106 0.0
H860 H 0.86948 0.57492 0.10647 0.0
C861 C 0.9151 0.58983 0.11119 0.0
C862 C 0.92572 0.58139 0.11305 0.0
C863 C 0.89791 0.57305 0.09259 0.0
H864 H 0.88714 0.56962 0.08478 0.0
C865 C 0.90858 0.56483 0.09413 0.0
H866 H 0.91727 0.59931 0.11799 0.0
C867 C 0.92238 0.56893 0.1043 0.0
H868 H 0.93047 0.56236 0.10527 0.0
H869 H 0.90609 0.5552 0.08749 0.0
H870 H 0.64953 0.62797 0.43426 0.0
C871 C 0.64808 0.63598 0.44129 0.0
C872 C 0.64047 0.64617 0.43547 0.0
C873 C 0.65329 0.63582 0.45611 0.0
H874 H 0.63227 0.66423 0.44001 0.0
C875 C 0.63809 0.65631 0.4445 0.0
C876 C 0.6432 0.6564 0.45923 0.0
C877 C 0.65076 0.64615 0.46499 0.0
C878 C 0.66116 0.6248 0.46232 0.0
H879 H 0.65498 0.64654 0.47635 0.0
C880 C 0.67129 0.62009 0.45436 0.0
C881 C 0.6784 0.60946 0.46012 0.0
C882 C 0.6584 0.61873 0.47623 0.0
H883 H 0.65037 0.62171 0.48257 0.0
C884 C 0.66568 0.60842 0.48208 0.0
H885 H 0.67386 0.6248 0.44375 0.0
C886 C 0.67559 0.60379 0.47411 0.0
H887 H 0.68072 0.59547 0.47878 0.0
H888 H 0.6634 0.60382 0.49277 0.0
H889 H 0.86489 0.42694 0.35535 0.0
C890 C 0.87666 0.42825 0.35163 0.0
C891 C 0.88545 0.419 0.35757 0.0
C892 C 0.88261 0.4386 0.34046 0.0
H893 H 0.90718 0.41311 0.35688 0.0
C894 C 0.90038 0.42026 0.35237 0.0
C895 C 0.90648 0.43034 0.3412 0.0
C896 C 0.89762 0.43955 0.33536 0.0
C897 C 0.87284 0.4479 0.33368 0.0
H898 H 0.90253 0.44751 0.32689 0.0
C899 C 0.8636 0.45349 0.34187 0.0
C900 C 0.85404 0.4619 0.33528 0.0
C901 C 0.87241 0.45098 0.3188 0.0
H902 H 0.87893 0.44658 0.31207 0.0
C903 C 0.86326 0.45954 0.3123 0.0
H904 H 0.8637 0.45119 0.35331 0.0
C905 C 0.85417 0.46498 0.32043 0.0
H906 H 0.84727 0.47167 0.31506 0.0
H907 H 0.86312 0.46188 0.30086 0.0
H908 H 0.64245 0.62019 0.88277 0.0
C909 C 0.63218 0.62169 0.8759 0.0
C910 C 0.62235 0.62878 0.8813 0.0
C911 C 0.6293 0.61739 0.86141 0.0
H912 H 0.60158 0.63629 0.87657 0.0
C913 C 0.60938 0.63114 0.87228 0.0
C914 C 0.60619 0.62682 0.85791 0.0
C915 C 0.61607 0.61979 0.85258 0.0
C916 C 0.64075 0.61148 0.85508 0.0
H917 H 0.61371 0.61651 0.84144 0.0
C918 C 0.64677 0.60073 0.86241 0.0
C919 C 0.65751 0.59523 0.8561 0.0
C920 C 0.64588 0.61684 0.8415 0.0
H921 H 0.64181 0.62534 0.83573 0.0
C922 C 0.65656 0.61153 0.83529 0.0
H923 H 0.64281 0.59642 0.87282 0.0
C924 C 0.66234 0.60083 0.84249 0.0
H925 H 0.67088 0.59714 0.83748 0.0
H926 H 0.66049 0.61582 0.82488 0.0
H927 H 0.91148 0.59986 0.89442 0.0
C928 C 0.91242 0.6074 0.90298 0.0
C929 C 0.89891 0.60511 0.91087 0.0
C930 C 0.92743 0.619 0.9065 0.0
H931 H 0.89013 0.61337 0.9281 0.0
C932 C 0.90051 0.61489 0.92207 0.0
C933 C 0.91542 0.62651 0.92575 0.0
C934 C 0.92888 0.62843 0.91796 0.0
C935 C 0.94178 0.62116 0.89843 0.0
H936 H 0.9404 0.63747 0.92061 0.0
C937 C 0.94023 0.6222 0.88333 0.0
C938 C 0.95402 0.62471 0.8757 0.0
C939 C 0.9572 0.62245 0.90587 0.0
H940 H 0.95867 0.62162 0.91749 0.0
C941 C 0.97084 0.62472 0.89837 0.0
H942 H 0.92835 0.62123 0.87757 0.0
C943 C 0.96931 0.62589 0.88341 0.0
H944 H 0.98021 0.62804 0.8779 0.0
H945 H 0.98269 0.62572 0.90419 0.0
H946 H 0.18249 0.13502 0.6484 0.0
C947 C 0.17869 0.14014 0.65676 0.0
C948 C 0.17395 0.1321 0.66951 0.0
C949 C 0.1793 0.15507 0.65499 0.0
H950 H 0.16545 0.13298 0.69007 0.0
C951 C 0.16953 0.13916 0.68033 0.0
C952 C 0.1701 0.15408 0.67868 0.0
C953 C 0.17498 0.162 0.66594 0.0
C954 C 0.18545 0.16368 0.64204 0.0
H955 H 0.17573 0.17361 0.66463 0.0
C956 C 0.17535 0.16155 0.62896 0.0
C957 C 0.18146 0.16944 0.61651 0.0
C958 C 0.20166 0.17384 0.6427 0.0
H959 H 0.20958 0.17559 0.65274 0.0
C960 C 0.20781 0.18162 0.63034 0.0
H961 H 0.16282 0.15369 0.62847 0.0
C962 C 0.19782 0.1794 0.61729 0.0
H963 H 0.20277 0.18564 0.60784 0.0
H964 H 0.22036 0.18939 0.63088 0.0
H965 H 0.62437 0.38479 0.38176 0.0
C966 C 0.61473 0.38521 0.37346 0.0
C967 C 0.6161 0.39867 0.36586 0.0
C968 C 0.60109 0.37223 0.37028 0.0
H969 H 0.60455 0.40952 0.34928 0.0
C970 C 0.60352 0.39913 0.35515 0.0
C971 C 0.58981 0.38618 0.35179 0.0
C972 C 0.58876 0.37278 0.35941 0.0
C973 C 0.59982 0.358 0.37815 0.0
H974 H 0.5784 0.36265 0.3568 0.0
C975 C 0.60177 0.35756 0.39324 0.0
C976 C 0.60028 0.344 0.40077 0.0
C977 C 0.59645 0.34476 0.37059 0.0
H978 H 0.59497 0.34485 0.35896 0.0
C979 C 0.59514 0.33132 0.378 0.0
H980 H 0.60433 0.36775 0.39911 0.0
C981 C 0.59703 0.3309 0.39299 0.0
H982 H 0.59566 0.32028 0.3985 0.0
H983 H 0.59257 0.32117 0.37211 0.0
H984 H 0.33841 0.87892 0.13552 0.0
C985 C 0.34471 0.87867 0.14617 0.0
C986 C 0.34973 0.89146 0.15471 0.0
C987 C 0.34762 0.86555 0.15139 0.0
H988 H 0.36116 0.90077 0.17536 0.0
C989 C 0.35752 0.89102 0.16863 0.0
C990 C 0.36044 0.878 0.174 0.0
C991 C 0.35567 0.8654 0.16529 0.0
C992 C 0.34174 0.85181 0.14262 0.0
H993 H 0.35796 0.85535 0.16947 0.0
C994 C 0.34402 0.85254 0.12793 0.0
C995 C 0.33831 0.83946 0.11968 0.0
C996 C 0.33368 0.83783 0.14898 0.0
H997 H 0.33156 0.83694 0.1602 0.0
C998 C 0.32802 0.82487 0.14086 0.0
H999 H 0.3502 0.86326 0.12292 0.0
C1000 C 0.3303 0.82563 0.12632 0.0
H1001 H 0.32595 0.81537 0.12031 0.0
H1002 H 0.32184 0.81416 0.14586 0.0
H1003 H 0.80944 0.36096 0.62019 0.0
C1004 C 0.81165 0.3575 0.63124 0.0
C1005 C 0.81382 0.36749 0.64237 0.0
C1006 C 0.81157 0.34284 0.63443 0.0
H1007 H 0.81845 0.37078 0.66522 0.0
C1008 C 0.8164 0.36292 0.65668 0.0
C1009 C 0.81692 0.34852 0.65999 0.0
C1010 C 0.81438 0.33852 0.64881 0.0
C1011 C 0.80809 0.33179 0.62291 0.0
H1012 H 0.8145 0.32728 0.65131 0.0
C1013 C 0.81645 0.33543 0.6105 0.0
C1014 C 0.81361 0.32462 0.59993 0.0
C1015 C 0.7966 0.31733 0.62452 0.0
H1016 H 0.78987 0.3143 0.63391 0.0
C1017 C 0.79356 0.30667 0.61398 0.0
H1018 H 0.82555 0.34648 0.60932 0.0
C1019 C 0.80203 0.31024 0.60179 0.0
H1020 H 0.79938 0.30178 0.59373 0.0
H1021 H 0.78463 0.29558 0.61529 0.0
H1022 H 0.40627 0.09929 0.40221 0.0
C1023 C 0.406 0.10631 0.41082 0.0
C1024 C 0.3908 0.10582 0.41492 0.0
C1025 C 0.42083 0.11591 0.41777 0.0
H1026 H 0.37871 0.1143 0.42936 0.0
C1027 C 0.39049 0.11495 0.42602 0.0
C1028 C 0.40516 0.1245 0.43316 0.0
C1029 C 0.42033 0.12485 0.42903 0.0
C1030 C 0.43688 0.11697 0.41301 0.0
H1031 H 0.43173 0.13242 0.43427 0.0
C1032 C 0.43944 0.11931 0.3984 0.0
C1033 C 0.4549 0.12111 0.39384 0.0
C1034 C 0.44986 0.11616 0.42308 0.0
H1035 H 0.44816 0.11433 0.43438 0.0
C1036 C 0.46513 0.11763 0.41861 0.0
H1037 H 0.42943 0.11997 0.39062 0.0
C1038 C 0.46769 0.12014 0.40412 0.0
H1039 H 0.4798 0.12167 0.40103 0.0
H1040 H 0.47508 0.117 0.42644 0.0
H1041 H 0.59054 0.59792 0.16833 0.0
C1042 C 0.58898 0.60215 0.15746 0.0
C1043 C 0.59941 0.60137 0.14739 0.0
C1044 C 0.57654 0.60839 0.15355 0.0
H1045 H 0.60492 0.6059 0.12542 0.0
C1046 C 0.59727 0.60691 0.13337 0.0
C1047 C 0.58512 0.6134 0.12935 0.0
C1048 C 0.57466 0.61396 0.13947 0.0
C1049 C 0.56568 0.60941 0.16422 0.0
H1050 H 0.56537 0.61913 0.13654 0.0
C1051 C 0.57246 0.6155 0.1778 0.0
C1052 C 0.56226 0.61716 0.18772 0.0
C1053 C 0.54851 0.60474 0.16071 0.0
H1054 H 0.543 0.59995 0.15034 0.0
C1055 C 0.53831 0.60611 0.17059 0.0
H1056 H 0.58573 0.61949 0.18041 0.0
C1057 C 0.5451 0.61233 0.184 0.0
H1058 H 0.53693 0.61331 0.19147 0.0
H1059 H 0.52508 0.60242 0.16782 0.0
H1060 H 0.13095 0.86282 0.90715 0.0
C1061 C 0.11965 0.86025 0.89997 0.0
C1062 C 0.11662 0.87139 0.89071 0.0
C1063 C 0.10846 0.84556 0.89963 0.0
H1064 H 0.0992 0.87622 0.87452 0.0
C1065 C 0.10193 0.86763 0.88135 0.0
C1066 C 0.0906 0.85289 0.88093 0.0
C1067 C 0.09411 0.84189 0.89005 0.0
C1068 C 0.1118 0.83389 0.90921 0.0
H1069 H 0.08571 0.83041 0.88969 0.0
C1070 C 0.11092 0.83418 0.92403 0.0
C1071 C 0.11322 0.82263 0.93316 0.0
C1072 C 0.11524 0.82214 0.90348 0.0
H1073 H 0.11587 0.82174 0.89204 0.0
C1074 C 0.11792 0.81084 0.9125 0.0
H1075 H 0.1082 0.84328 0.92838 0.0
C1076 C 0.11688 0.81103 0.92724 0.0
H1077 H 0.11851 0.80188 0.93393 0.0
H1078 H 0.12058 0.80178 0.90803 0.0
H1079 H 0.86031 0.91805 0.61494 0.0
C1080 C 0.86612 0.91312 0.62374 0.0
C1081 C 0.86887 0.89972 0.62167 0.0
C1082 C 0.87099 0.9202 0.63711 0.0
H1083 H 0.87895 0.88327 0.63127 0.0
C1084 C 0.87646 0.89342 0.63302 0.0
C1085 C 0.88161 0.90043 0.64635 0.0
C1086 C 0.87891 0.91388 0.64831 0.0
C1087 C 0.86773 0.93417 0.63942 0.0
H1088 H 0.88264 0.91925 0.65866 0.0
C1089 C 0.85195 0.93508 0.63557 0.0
C1090 C 0.84862 0.94812 0.63823 0.0
C1091 C 0.88029 0.94651 0.64582 0.0
H1092 H 0.89257 0.94611 0.64881 0.0
C1093 C 0.87714 0.95955 0.64829 0.0
H1094 H 0.84212 0.92543 0.63097 0.0
C1095 C 0.86143 0.96037 0.64456 0.0
H1096 H 0.85934 0.97064 0.64654 0.0
H1097 H 0.88692 0.96905 0.65314 0.0
H1098 H 0.93502 0.18999 0.41893 0.0
C1099 C 0.92614 0.1791 0.4212 0.0
C1100 C 0.92255 0.16736 0.41155 0.0
C1101 C 0.91893 0.17652 0.4342 0.0
H1102 H 0.90781 0.14448 0.4069 0.0
C1103 C 0.9111 0.1533 0.4147 0.0
C1104 C 0.90377 0.15053 0.42762 0.0
C1105 C 0.90789 0.16225 0.43738 0.0
C1106 C 0.9236 0.18838 0.44498 0.0
H1107 H 0.9027 0.16028 0.44758 0.0
C1108 C 0.91907 0.20121 0.44239 0.0
C1109 C 0.92243 0.2119 0.45321 0.0
C1110 C 0.93189 0.18642 0.45828 0.0
H1111 H 0.93542 0.17657 0.46046 0.0
C1112 C 0.9356 0.19708 0.46891 0.0
H1113 H 0.91266 0.20265 0.43208 0.0
C1114 C 0.93083 0.20967 0.46647 0.0
H1115 H 0.93334 0.21743 0.47515 0.0
H1116 H 0.94193 0.19546 0.47918 0.0
H1117 H 0.60391 0.0951 0.14007 0.0
C1118 C 0.60107 0.09971 0.14933 0.0
C1119 C 0.59543 0.11194 0.14748 0.0
C1120 C 0.60242 0.09308 0.16305 0.0
H1121 H 0.58735 0.12728 0.15813 0.0
C1122 C 0.59138 0.11764 0.15943 0.0
C1123 C 0.5932 0.1115 0.17317 0.0
C1124 C 0.59877 0.09928 0.17497 0.0
C1125 C 0.60698 0.07936 0.16498 0.0
H1126 H 0.60012 0.09453 0.18564 0.0
C1127 C 0.62022 0.0781 0.15843 0.0
C1128 C 0.62446 0.06504 0.16043 0.0
C1129 C 0.59794 0.06737 0.17349 0.0
H1130 H 0.58756 0.06795 0.17851 0.0
C1131 C 0.60206 0.05442 0.17548 0.0
H1132 H 0.62724 0.08728 0.15184 0.0
C1133 C 0.61522 0.05324 0.16904 0.0
H1134 H 0.61833 0.04316 0.17099 0.0
H1135 H 0.59504 0.04527 0.18207 0.0
H1136 H 0.59921 0.84774 0.90218 0.0
C1137 C 0.60894 0.85858 0.90293 0.0
C1138 C 0.61084 0.86855 0.89109 0.0
C1139 C 0.61914 0.86275 0.91587 0.0
H1140 H 0.62461 0.89041 0.88312 0.0
C1141 C 0.62323 0.88269 0.89223 0.0
C1142 C 0.63331 0.88723 0.90516 0.0
C1143 C 0.63127 0.87709 0.91689 0.0
C1144 C 0.61644 0.85253 0.92863 0.0
H1145 H 0.63882 0.88049 0.92698 0.0
C1146 C 0.61412 0.83722 0.92745 0.0
C1147 C 0.61129 0.82756 0.93956 0.0
C1148 C 0.61593 0.85808 0.94208 0.0
H1149 H 0.61744 0.86975 0.94328 0.0
C1150 C 0.61315 0.84855 0.9541 0.0
H1151 H 0.61447 0.83283 0.91712 0.0
C1152 C 0.61083 0.8334 0.95288 0.0
H1153 H 0.60888 0.82628 0.96242 0.0
H1154 H 0.61277 0.85293 0.96441 0.0
H1155 H 0.91166 0.14803 0.87662 0.0
C1156 C 0.90036 0.1392 0.87891 0.0
C1157 C 0.8934 0.13958 0.8916 0.0
C1158 C 0.89258 0.12757 0.86908 0.0
H1159 H 0.87314 0.12869 0.90411 0.0
C1160 C 0.87858 0.1283 0.89436 0.0
C1161 C 0.87041 0.11685 0.88455 0.0
C1162 C 0.87761 0.11645 0.87201 0.0
C1163 C 0.89972 0.12725 0.85551 0.0
H1164 H 0.87142 0.10762 0.86437 0.0
C1165 C 0.91669 0.1298 0.8555 0.0
C1166 C 0.92331 0.12901 0.84267 0.0
C1167 C 0.88948 0.12414 0.84248 0.0
H1168 H 0.87642 0.12235 0.84212 0.0
C1169 C 0.89599 0.12347 0.82973 0.0
H1170 H 0.92464 0.13196 0.86552 0.0
C1171 C 0.91277 0.12584 0.8298 0.0
H1172 H 0.91754 0.12538 0.81973 0.0
H1173 H 0.88801 0.12113 0.81975 0.0
H1174 H 0.67934 0.15193 0.65595 0.0
C1175 C 0.67677 0.16003 0.64832 0.0
C1176 C 0.66453 0.16602 0.65043 0.0
C1177 C 0.68559 0.16431 0.63621 0.0
H1178 H 0.6523 0.18144 0.64203 0.0
C1179 C 0.66131 0.17635 0.64026 0.0
C1180 C 0.66933 0.18008 0.62772 0.0
C1181 C 0.68182 0.1743 0.62593 0.0
C1182 C 0.69829 0.15783 0.63395 0.0
H1183 H 0.68812 0.17702 0.61628 0.0
C1184 C 0.6941 0.14226 0.63286 0.0
C1185 C 0.70606 0.13603 0.63036 0.0
C1186 C 0.71457 0.1672 0.63261 0.0
H1187 H 0.718 0.17924 0.63338 0.0
C1188 C 0.72657 0.16107 0.63043 0.0
H1189 H 0.68149 0.13503 0.63378 0.0
C1190 C 0.72238 0.14559 0.62932 0.0
H1191 H 0.7318 0.14112 0.62728 0.0
H1192 H 0.73912 0.16835 0.62947 0.0
H1193 H 0.59668 0.82513 0.37102 0.0
C1194 C 0.60844 0.83417 0.37248 0.0
C1195 C 0.61943 0.8343 0.38475 0.0
C1196 C 0.61287 0.84544 0.36184 0.0
H1197 H 0.64302 0.84621 0.39603 0.0
C1198 C 0.63462 0.84606 0.38649 0.0
C1199 C 0.63894 0.85775 0.37626 0.0
C1200 C 0.62808 0.85718 0.36379 0.0
C1201 C 0.60168 0.84511 0.34862 0.0
H1202 H 0.63115 0.86612 0.35578 0.0
C1203 C 0.58573 0.84541 0.34937 0.0
C1204 C 0.57544 0.84605 0.33673 0.0
C1205 C 0.60722 0.84511 0.33515 0.0
H1206 H 0.61949 0.84491 0.33436 0.0
C1207 C 0.59695 0.84535 0.3226 0.0
H1208 H 0.5815 0.84546 0.35979 0.0
C1209 C 0.5812 0.84588 0.32334 0.0
H1210 H 0.57372 0.84656 0.31342 0.0
H1211 H 0.60131 0.84536 0.31224 0.0
H1212 H 0.88445 0.88605 0.1102 0.0
C1213 C 0.87624 0.8925 0.10917 0.0
C1214 C 0.87224 0.89751 0.12159 0.0
C1215 C 0.8699 0.89592 0.09543 0.0
H1216 H 0.85899 0.91032 0.12965 0.0
C1217 C 0.86173 0.90602 0.12015 0.0
C1218 C 0.85535 0.90964 0.10653 0.0
C1219 C 0.85941 0.90446 0.09425 0.0
C1220 C 0.87459 0.89094 0.08233 0.0
H1221 H 0.85421 0.90694 0.08373 0.0
C1222 C 0.87593 0.87662 0.08185 0.0
C1223 C 0.88088 0.87207 0.06963 0.0
C1224 C 0.87807 0.90061 0.07031 0.0
H1225 H 0.87744 0.91178 0.0704 0.0
C1226 C 0.88281 0.89613 0.05813 0.0
H1227 H 0.87288 0.86894 0.09091 0.0
C1228 C 0.88428 0.88201 0.05777 0.0
H1229 H 0.88841 0.87901 0.0483 0.0
H1230 H 0.88559 0.90372 0.04898 0.0
H1231 H 0.19912 0.65313 0.15578 0.0
C1232 C 0.19536 0.66246 0.15161 0.0
C1233 C 0.18349 0.66606 0.15814 0.0
C1234 C 0.20239 0.6708 0.13967 0.0
H1235 H 0.16895 0.68051 0.15705 0.0
C1236 C 0.17874 0.67813 0.15258 0.0
C1237 C 0.18543 0.68643 0.14056 0.0
C1238 C 0.19735 0.68278 0.13417 0.0
C1239 C 0.21443 0.66653 0.13259 0.0
H1240 H 0.20236 0.68898 0.12471 0.0
C1241 C 0.21062 0.65167 0.12835 0.0
C1242 C 0.22199 0.64744 0.12167 0.0
C1243 C 0.22973 0.67721 0.13004 0.0
H1244 H 0.23291 0.68872 0.13322 0.0
C1245 C 0.24117 0.67302 0.1236 0.0
H1246 H 0.19875 0.64342 0.13018 0.0
C1247 C 0.23738 0.65822 0.11947 0.0
H1248 H 0.24633 0.65526 0.11428 0.0
H1249 H 0.253 0.68128 0.12175 0.0
H1250 H 0.0731 0.33587 0.88821 0.0
C1251 C 0.08505 0.34408 0.89146 0.0
C1252 C 0.09408 0.34177 0.90429 0.0
C1253 C 0.09173 0.35652 0.88243 0.0
H1254 H 0.11675 0.35066 0.91813 0.0
C1255 C 0.10986 0.35217 0.9081 0.0
C1256 C 0.11678 0.36461 0.89921 0.0
C1257 C 0.10757 0.36677 0.88646 0.0
C1258 C 0.08256 0.35848 0.86847 0.0
H1259 H 0.11286 0.37633 0.87954 0.0
C1260 C 0.06546 0.35586 0.86733 0.0
C1261 C 0.05684 0.35764 0.85404 0.0
C1262 C 0.09092 0.36289 0.8561 0.0
H1263 H 0.10399 0.36473 0.85654 0.0
C1264 C 0.08248 0.36474 0.84295 0.0
H1265 H 0.05887 0.3524 0.87677 0.0
C1266 C 0.06559 0.36218 0.8419 0.0
H1267 H 0.0594 0.3639 0.83157 0.0
H1268 H 0.08906 0.36818 0.83352 0.0
H1269 H 0.39714 0.39231 0.61827 0.0
C1270 C 0.38887 0.3987 0.61639 0.0
C1271 C 0.38162 0.40183 0.6279 0.0
C1272 C 0.38599 0.4042 0.60251 0.0
H1273 H 0.36503 0.41231 0.63401 0.0
C1274 C 0.37111 0.41032 0.62528 0.0
C1275 C 0.36795 0.41577 0.61137 0.0
C1276 C 0.37566 0.41281 0.60009 0.0
C1277 C 0.39368 0.40079 0.59051 0.0
H1278 H 0.37354 0.41709 0.58935 0.0
C1279 C 0.39155 0.38586 0.58764 0.0
C1280 C 0.39886 0.38248 0.5763 0.0
C1281 C 0.40317 0.41237 0.58191 0.0
H1282 H 0.40496 0.42395 0.58395 0.0
C1283 C 0.41066 0.40908 0.57076 0.0
H1284 H 0.38412 0.37688 0.59419 0.0
C1285 C 0.40859 0.39422 0.56797 0.0
H1286 H 0.4143 0.39189 0.55915 0.0
H1287 H 0.41805 0.41806 0.56422 0.0
H1288 H 0.1069 0.59277 0.62757 0.0
C1289 C 0.10359 0.59802 0.63613 0.0
C1290 C 0.09859 0.61048 0.63299 0.0
C1291 C 0.10369 0.59204 0.65023 0.0
H1292 H 0.0902 0.62677 0.64139 0.0
C1293 C 0.09413 0.61719 0.64398 0.0
C1294 C 0.09482 0.61182 0.6582 0.0
C1295 C 0.09942 0.59909 0.66121 0.0
C1296 C 0.1079 0.57827 0.65355 0.0
H1297 H 0.10003 0.59484 0.67216 0.0
C1298 C 0.12178 0.57656 0.64847 0.0
C1299 C 0.12594 0.56364 0.65208 0.0
C1300 C 0.09804 0.56678 0.66206 0.0
H1301 H 0.08718 0.56772 0.66596 0.0
C1302 C 0.10199 0.55388 0.66548 0.0
H1303 H 0.12961 0.58548 0.64213 0.0
C1304 C 0.11584 0.55231 0.66058 0.0
H1305 H 0.11858 0.54214 0.66333 0.0
H1306 H 0.09427 0.54507 0.67197 0.0
H1307 H 0.35908 0.42314 0.11735 0.0
C1308 C 0.36565 0.41957 0.12659 0.0
C1309 C 0.36717 0.40535 0.12673 0.0
C1310 C 0.37294 0.42929 0.13816 0.0
H1311 H 0.37726 0.38992 0.13846 0.0
C1312 C 0.37603 0.40088 0.13848 0.0
C1313 C 0.38408 0.41064 0.14981 0.0
C1314 C 0.3822 0.42475 0.1497 0.0
C1315 C 0.37146 0.44442 0.13789 0.0
H1316 H 0.38828 0.43235 0.15841 0.0
C1317 C 0.3563 0.44639 0.13328 0.0
C1318 C 0.35485 0.46071 0.13294 0.0
C1319 C 0.38523 0.457 0.14216 0.0
H1320 H 0.39713 0.4559 0.14553 0.0
C1321 C 0.38387 0.47121 0.14186 0.0
H1322 H 0.34554 0.43672 0.13027 0.0
C1323 C 0.36882 0.47309 0.13728 0.0
H1324 H 0.36819 0.48428 0.13693 0.0
H1325 H 0.39457 0.48083 0.14508 0.0
H1326 H 0.63399 0.35762 0.17871 0.0
C1327 C 0.64057 0.36914 0.17573 0.0
C1328 C 0.63415 0.3804 0.17808 0.0
C1329 C 0.65603 0.37292 0.17043 0.0
H1330 H 0.6379 0.40401 0.17611 0.0
C1331 C 0.64286 0.3953 0.17437 0.0
C1332 C 0.65816 0.39921 0.16892 0.0
C1333 C 0.66479 0.38799 0.16713 0.0
C1334 C 0.66358 0.36134 0.16905 0.0
H1335 H 0.67672 0.39097 0.16306 0.0
C1336 C 0.65502 0.34831 0.16113 0.0
C1337 C 0.66262 0.33768 0.15936 0.0
C1338 C 0.67966 0.36354 0.17545 0.0
H1339 H 0.68644 0.37345 0.18167 0.0
C1340 C 0.68713 0.35296 0.17395 0.0
H1341 H 0.64261 0.34661 0.1562 0.0
C1342 C 0.67875 0.34017 0.16592 0.0
H1343 H 0.68508 0.33239 0.16458 0.0
H1344 H 0.69955 0.35477 0.17889 0.0
H1345 H 0.89647 0.68588 0.6463 0.0
C1346 C 0.89322 0.67437 0.64308 0.0
C1347 C 0.90268 0.66571 0.64908 0.0
C1348 C 0.87872 0.66773 0.63395 0.0
H1349 H 0.9052 0.64392 0.65011 0.0
C1350 C 0.89803 0.65065 0.64528 0.0
C1351 C 0.88374 0.64394 0.63603 0.0
C1352 C 0.8741 0.65255 0.63044 0.0
C1353 C 0.86719 0.67593 0.62953 0.0
H1354 H 0.86278 0.64737 0.62359 0.0
C1355 C 0.87203 0.68942 0.62148 0.0
C1356 C 0.8607 0.6969 0.61731 0.0
C1357 C 0.85102 0.67004 0.63343 0.0
H1358 H 0.84707 0.65971 0.63967 0.0
C1359 C 0.83984 0.67748 0.62944 0.0
H1360 H 0.88448 0.69399 0.61841 0.0
C1361 C 0.8446 0.69079 0.62143 0.0
H1362 H 0.83557 0.69619 0.61823 0.0
H1363 H 0.82741 0.67285 0.6325 0.0
H1364 H 0.58443 0.38253 0.61354 0.0
C1365 C 0.59644 0.38756 0.61944 0.0
C1366 C 0.6088 0.38117 0.6191 0.0
C1367 C 0.59988 0.40101 0.62666 0.0
H1368 H 0.63392 0.38321 0.62666 0.0
C1369 C 0.62435 0.3881 0.62668 0.0
C1370 C 0.62801 0.40165 0.63374 0.0
C1371 C 0.61571 0.4081 0.63361 0.0
C1372 C 0.58733 0.40829 0.62616 0.0
H1373 H 0.6184 0.41864 0.63893 0.0
C1374 C 0.57335 0.40204 0.63365 0.0
C1375 C 0.56187 0.40949 0.63379 0.0
C1376 C 0.58968 0.42188 0.61856 0.0
H1377 H 0.60043 0.42685 0.61277 0.0
C1378 C 0.57816 0.42912 0.61836 0.0
H1379 H 0.57179 0.39171 0.63979 0.0
C1380 C 0.56437 0.42302 0.62593 0.0
H1381 H 0.55563 0.42889 0.62562 0.0
H1382 H 0.57999 0.43956 0.6124 0.0
H1383 H 0.42235 0.68126 0.92948 0.0
C1384 C 0.4142 0.6701 0.93199 0.0
C1385 C 0.41007 0.6587 0.92186 0.0
C1386 C 0.40808 0.66696 0.94549 0.0
H1387 H 0.3968 0.63534 0.91761 0.0
C1388 C 0.39982 0.64421 0.92533 0.0
C1389 C 0.39371 0.64093 0.93876 0.0
C1390 C 0.39778 0.65238 0.94877 0.0
C1391 C 0.41315 0.67856 0.95661 0.0
H1392 H 0.39325 0.64988 0.95925 0.0
C1393 C 0.4095 0.69188 0.95435 0.0
C1394 C 0.41355 0.70243 0.9654 0.0
C1395 C 0.42117 0.67595 0.96985 0.0
H1396 H 0.42409 0.66576 0.97178 0.0
C1397 C 0.42549 0.68644 0.9807 0.0
H1398 H 0.40329 0.69386 0.94413 0.0
C1399 C 0.42164 0.69953 0.97856 0.0
H1400 H 0.42466 0.7072 0.98739 0.0
H1401 H 0.43162 0.68431 0.9909 0.0
H1402 H 0.08223 0.35036 0.39324 0.0
C1403 C 0.09218 0.36106 0.39392 0.0
C1404 C 0.09367 0.37141 0.3824 0.0
C1405 C 0.10288 0.36487 0.40666 0.0
H1406 H 0.10774 0.39322 0.37449 0.0
C1407 C 0.10632 0.3854 0.38353 0.0
C1408 C 0.11723 0.38936 0.3961 0.0
C1409 C 0.11542 0.379 0.40761 0.0
C1410 C 0.10028 0.35461 0.41937 0.0
H1411 H 0.12355 0.38203 0.41748 0.0
C1412 C 0.09815 0.33933 0.41821 0.0
C1413 C 0.09556 0.32973 0.43039 0.0
C1414 C 0.09975 0.36017 0.43281 0.0
H1415 H 0.10117 0.37183 0.43397 0.0
C1416 C 0.09712 0.35069 0.44486 0.0
H1417 H 0.09855 0.33496 0.40789 0.0
C1418 C 0.09505 0.33559 0.4437 0.0
H1419 H 0.09329 0.32853 0.45328 0.0
H1420 H 0.09673 0.35508 0.45516 0.0
H1421 H 0.40853 0.66581 0.37918 0.0
C1422 C 0.39786 0.65579 0.3801 0.0
C1423 C 0.38877 0.65382 0.39195 0.0
C1424 C 0.39301 0.645 0.3693 0.0
H1425 H 0.36758 0.63952 0.40196 0.0
C1426 C 0.37488 0.64088 0.39302 0.0
C1427 C 0.36974 0.63011 0.38225 0.0
C1428 C 0.37884 0.63226 0.37039 0.0
C1429 C 0.40246 0.64717 0.35667 0.0
H1430 H 0.375 0.6239 0.3621 0.0
C1431 C 0.41975 0.65114 0.35842 0.0
C1432 C 0.42865 0.65296 0.34641 0.0
C1433 C 0.39413 0.64515 0.34276 0.0
H1434 H 0.38084 0.6422 0.34111 0.0
C1435 C 0.40288 0.64706 0.33082 0.0
H1436 H 0.42624 0.6527 0.36913 0.0
C1437 C 0.42 0.65091 0.33259 0.0
H1438 H 0.42644 0.65201 0.32315 0.0
H1439 H 0.39636 0.64547 0.32014 0.0
H1440 H 0.15519 0.47653 0.09561 0.0
H1441 H 0.19881 0.46755 0.08747 0.0
H1442 H 0.14313 0.45075 0.10427 0.0
H1443 H 0.18699 0.44199 0.0965 0.0
H1444 H 0.16493 0.39944 0.12309 0.0
H1445 H 0.17738 0.42641 0.11856 0.0
H1446 H 0.13307 0.42606 0.09208 0.0
H1447 H 0.12062 0.39921 0.09672 0.0
C1448 C 0.16234 0.46915 0.09594 0.0
C1449 C 0.17814 0.47422 0.09118 0.0
C1450 C 0.15542 0.45439 0.10086 0.0
C1451 C 0.16415 0.44438 0.10113 0.0
C1452 C 0.18012 0.44954 0.09672 0.0
C1453 C 0.18698 0.46428 0.09168 0.0
C1454 C 0.15779 0.40521 0.11649 0.0
C1455 C 0.14185 0.39725 0.1102 0.0
C1456 C 0.16494 0.42059 0.11382 0.0
C1457 C 0.15621 0.42833 0.10495 0.0
C1458 C 0.14005 0.42044 0.09907 0.0
C1459 C 0.13298 0.40506 0.10161 0.0
H1460 H 0.8073 0.97379 0.44377 0.0
H1461 H 0.78915 0.97877 0.3996 0.0
H1462 H 0.81268 0.95137 0.43765 0.0
H1463 H 0.79434 0.95638 0.39348 0.0
H1464 H 0.78901 0.90721 0.39083 0.0
H1465 H 0.78381 0.9294 0.3976 0.0
H1466 H 0.8305 0.94346 0.42406 0.0
H1467 H 0.83567 0.92121 0.41731 0.0
C1468 C 0.80446 0.97008 0.43276 0.0
C1469 C 0.79736 0.97776 0.42224 0.0
C1470 C 0.80757 0.95727 0.42924 0.0
C1471 C 0.80375 0.95198 0.4151 0.0
C1472 C 0.79702 0.95992 0.40454 0.0
C1473 C 0.79394 0.9727 0.40806 0.0
C1474 C 0.79822 0.91509 0.39802 0.0
C1475 C 0.8128 0.91249 0.40347 0.0
C1476 C 0.79524 0.92781 0.4019 0.0
C1477 C 0.80678 0.93825 0.41131 0.0
C1478 C 0.82127 0.93556 0.41692 0.0
C1479 C 0.82424 0.92281 0.41304 0.0
H1480 H 0.2951 0.54381 0.58513 0.0
H1481 H 0.27236 0.53557 0.62473 0.0
H1482 H 0.31041 0.56957 0.5921 0.0
H1483 H 0.28809 0.56118 0.63205 0.0
H1484 H 0.30741 0.61242 0.63458 0.0
H1485 H 0.29133 0.58664 0.62793 0.0
H1486 H 0.3325 0.5838 0.60781 0.0
H1487 H 0.34816 0.60975 0.61393 0.0
C1488 C 0.2934 0.54755 0.59535 0.0
C1489 C 0.28237 0.5378 0.60429 0.0
C1490 C 0.30228 0.56228 0.59943 0.0
C1491 C 0.30061 0.56751 0.61271 0.0
C1492 C 0.2895 0.55768 0.62164 0.0
C1493 C 0.28043 0.543 0.61744 0.0
C1494 C 0.313 0.60618 0.62884 0.0
C1495 C 0.32897 0.61304 0.62471 0.0
C1496 C 0.30383 0.5914 0.62504 0.0
C1497 C 0.31052 0.5831 0.61721 0.0
C1498 C 0.32674 0.58991 0.6135 0.0
C1499 C 0.33579 0.60474 0.61711 0.0
H1500 H 0.67327 0.04325 0.9288 0.0
H1501 H 0.67758 0.05138 0.88335 0.0
H1502 H 0.65104 0.05378 0.92679 0.0
H1503 H 0.65543 0.06172 0.88139 0.0
H1504 H 0.62894 0.09425 0.8852 0.0
H1505 H 0.65152 0.08437 0.88955 0.0
H1506 H 0.62192 0.04829 0.91535 0.0
H1507 H 0.59919 0.05817 0.91092 0.0
C1508 C 0.66945 0.04721 0.91839 0.0
C1509 C 0.67726 0.04652 0.90625 0.0
C1510 C 0.6567 0.0532 0.91725 0.0
C1511 C 0.65162 0.05871 0.90397 0.0
C1512 C 0.65928 0.05782 0.89183 0.0
C1513 C 0.67191 0.05178 0.89294 0.0
C1514 C 0.62726 0.08423 0.89183 0.0
C1515 C 0.61221 0.07688 0.89756 0.0
C1516 C 0.64018 0.07857 0.89431 0.0
C1517 C 0.6384 0.06543 0.90261 0.0
C1518 C 0.62366 0.05846 0.90894 0.0
C1519 C 0.61067 0.06413 0.90643 0.0
H1520 H 0.1921 0.56312 0.38093 0.0
H1521 H 0.18443 0.55491 0.42582 0.0
H1522 H 0.1709 0.57473 0.37769 0.0
H1523 H 0.16343 0.56676 0.4226 0.0
H1524 H 0.11114 0.56637 0.40487 0.0
H1525 H 0.13551 0.55921 0.41044 0.0
H1526 H 0.16268 0.5957 0.38364 0.0
H1527 H 0.13821 0.60294 0.37809 0.0
C1528 C 0.18613 0.56404 0.39017 0.0
C1529 C 0.18985 0.55792 0.40359 0.0
C1530 C 0.17401 0.57077 0.38833 0.0
C1531 C 0.16536 0.57153 0.39986 0.0
C1532 C 0.16968 0.56611 0.41345 0.0
C1533 C 0.18179 0.55939 0.4153 0.0
C1534 C 0.12239 0.57308 0.4004 0.0
C1535 C 0.1227 0.58521 0.39101 0.0
C1536 C 0.13639 0.56897 0.4036 0.0
C1537 C 0.15105 0.57688 0.39747 0.0
C1538 C 0.15152 0.58927 0.38838 0.0
C1539 C 0.1375 0.59341 0.38521 0.0
H1540 H 0.64029 0.95314 0.61059 0.0
H1541 H 0.68957 0.95653 0.62849 0.0
H1542 H 0.62973 0.9278 0.62038 0.0
H1543 H 0.67902 0.93089 0.63782 0.0
H1544 H 0.65424 0.87876 0.62984 0.0
H1545 H 0.66659 0.90573 0.6257 0.0
H1546 H 0.62602 0.91261 0.64335 0.0
H1547 H 0.61362 0.88555 0.64741 0.0
C1548 C 0.64891 0.94854 0.61667 0.0
C1549 C 0.66592 0.95675 0.61829 0.0
C1550 C 0.64281 0.93401 0.62234 0.0
C1551 C 0.65357 0.9273 0.62973 0.0
C1552 C 0.67049 0.93569 0.63192 0.0
C1553 C 0.67657 0.95033 0.62638 0.0
C1554 C 0.64809 0.88607 0.633 0.0
C1555 C 0.63291 0.88008 0.63882 0.0
C1556 C 0.65522 0.9015 0.63074 0.0
C1557 C 0.64722 0.91126 0.63413 0.0
C1558 C 0.63238 0.90533 0.64053 0.0
C1559 C 0.62535 0.88988 0.64294 0.0
H1560 H 0.31652 0.46072 0.95819 0.0
H1561 H 0.28687 0.46274 0.91834 0.0
H1562 H 0.32076 0.43853 0.95 0.0
H1563 H 0.29099 0.44039 0.91018 0.0
H1564 H 0.31922 0.40988 0.8966 0.0
H1565 H 0.31485 0.43244 0.90374 0.0
H1566 H 0.30195 0.41171 0.94485 0.0
H1567 H 0.30569 0.38903 0.93764 0.0
C1568 C 0.31093 0.45642 0.94767 0.0
C1569 C 0.30111 0.46327 0.93901 0.0
C1570 C 0.31327 0.44368 0.94302 0.0
C1571 C 0.30608 0.43767 0.92951 0.0
C1572 C 0.29666 0.44478 0.92065 0.0
C1573 C 0.29413 0.45744 0.92539 0.0
C1574 C 0.31525 0.41005 0.90709 0.0
C1575 C 0.31298 0.39764 0.91658 0.0
C1576 C 0.31279 0.42299 0.91118 0.0
C1577 C 0.30819 0.42385 0.92489 0.0
C1578 C 0.30577 0.41144 0.93431 0.0
C1579 C 0.30802 0.39847 0.93018 0.0
H1580 H 0.77347 0.04375 0.12923 0.0
H1581 H 0.7944 0.04804 0.089 0.0
H1582 H 0.78833 0.07023 0.13371 0.0
H1583 H 0.80887 0.07464 0.09314 0.0
H1584 H 0.80429 0.12128 0.13058 0.0
H1585 H 0.7895 0.09466 0.12664 0.0
H1586 H 0.83089 0.09158 0.10704 0.0
H1587 H 0.84526 0.11832 0.11048 0.0
C1588 C 0.78098 0.05046 0.1212 0.0
C1589 C 0.7826 0.04391 0.10867 0.0
C1590 C 0.78955 0.06565 0.12376 0.0
C1591 C 0.79983 0.07467 0.11379 0.0
C1592 C 0.80135 0.06804 0.10121 0.0
C1593 C 0.79296 0.05282 0.09876 0.0
C1594 C 0.81021 0.11484 0.12552 0.0
C1595 C 0.82587 0.12183 0.1208 0.0
C1596 C 0.80178 0.09957 0.12329 0.0
C1597 C 0.80893 0.09089 0.11645 0.0
C1598 C 0.8248 0.09791 0.11203 0.0
C1599 C 0.83311 0.11322 0.11408 0.0
H1600 H 0.12318 0.18777 0.44941 0.0
H1601 H 0.09638 0.14032 0.45255 0.0
H1602 H 0.13049 0.18436 0.42579 0.0
H1603 H 0.1036 0.13687 0.42903 0.0
H1604 H 0.12641 0.13256 0.38987 0.0
H1605 H 0.12533 0.13746 0.41499 0.0
H1606 H 0.11642 0.17857 0.40204 0.0
H1607 H 0.11819 0.17397 0.37715 0.0
C1608 C 0.11867 0.17666 0.44498 0.0
C1609 C 0.10883 0.16439 0.45266 0.0
C1610 C 0.12297 0.17467 0.4315 0.0
C1611 C 0.11755 0.16035 0.42545 0.0
C1612 C 0.10819 0.14803 0.43341 0.0
C1613 C 0.10395 0.15002 0.44687 0.0
C1614 C 0.12459 0.14279 0.39246 0.0
C1615 C 0.12215 0.15276 0.38153 0.0
C1616 C 0.1238 0.14553 0.40682 0.0
C1617 C 0.12058 0.15832 0.41053 0.0
C1618 C 0.11902 0.16866 0.39963 0.0
C1619 C 0.11983 0.16593 0.38532 0.0
H1620 H 0.98464 0.79473 0.7423 0.0
H1621 H 0.992 0.842 0.73886 0.0
H1622 H 0.00334 0.79764 0.72395 0.0
H1623 H 0.01069 0.84497 0.72065 0.0
H1624 H 0.04014 0.84662 0.68436 0.0
H1625 H 0.01533 0.83972 0.69685 0.0
H1626 H 0.03274 0.80896 0.72412 0.0
H1627 H 0.05732 0.81576 0.71164 0.0
C1628 C 0.99 0.80569 0.73741 0.0
C1629 C 0.98669 0.8181 0.7419 0.0
C1630 C 0.00076 0.80737 0.72695 0.0
C1631 C 0.00859 0.82155 0.72085 0.0
C1632 C 0.00466 0.83383 0.72489 0.0
C1633 C 0.99384 0.83213 0.73531 0.0
C1634 C 0.03849 0.83819 0.69286 0.0
C1635 C 0.05075 0.83181 0.69706 0.0
C1636 C 0.02431 0.83428 0.70005 0.0
C1637 C 0.0221 0.8239 0.7116 0.0
C1638 C 0.03389 0.81685 0.71517 0.0
C1639 C 0.04803 0.82074 0.70798 0.0
H1640 H 0.3747 0.87336 0.94878 0.0
H1641 H 0.35119 0.83096 0.92755 0.0
H1642 H 0.37334 0.88654 0.92583 0.0
H1643 H 0.34982 0.84423 0.90458 0.0
H1644 H 0.33719 0.87422 0.86808 0.0
H1645 H 0.33613 0.8621 0.89194 0.0
H1646 H 0.38721 0.88868 0.90318 0.0
H1647 H 0.38822 0.90073 0.87941 0.0
C1648 C 0.36916 0.86684 0.93924 0.0
C1649 C 0.36312 0.85109 0.93999 0.0
C1650 C 0.36843 0.87441 0.9261 0.0
C1651 C 0.36148 0.86641 0.91343 0.0
C1652 C 0.35511 0.85068 0.9142 0.0
C1653 C 0.35601 0.84309 0.92733 0.0
C1654 C 0.34807 0.8776 0.87577 0.0
C1655 C 0.36279 0.88837 0.87195 0.0
C1656 C 0.34752 0.8706 0.88934 0.0
C1657 C 0.36161 0.87442 0.89937 0.0
C1658 C 0.37613 0.88559 0.8957 0.0
C1659 C 0.37674 0.89243 0.8821 0.0
H1660 H 0.5161 0.19763 0.21467 0.0
H1661 H 0.48867 0.18335 0.25161 0.0
H1662 H 0.4904 0.19343 0.19928 0.0
H1663 H 0.46299 0.17875 0.23612 0.0
H1664 H 0.44101 0.19582 0.17786 0.0
H1665 H 0.46623 0.20274 0.19457 0.0
H1666 H 0.44794 0.16003 0.21661 0.0
H1667 H 0.42278 0.15318 0.19999 0.0
C1668 C 0.50463 0.19365 0.21958 0.0
C1669 C 0.50454 0.19046 0.23443 0.0
C1670 C 0.4899 0.19129 0.21072 0.0
C1671 C 0.47469 0.18562 0.21648 0.0
C1672 C 0.47455 0.18288 0.23135 0.0
C1673 C 0.48932 0.1854 0.24024 0.0
C1674 C 0.44236 0.188 0.18636 0.0
C1675 C 0.43002 0.17393 0.18758 0.0
C1676 C 0.4568 0.19191 0.19586 0.0
C1677 C 0.45904 0.18191 0.20688 0.0
C1678 C 0.4465 0.16801 0.2083 0.0
C1679 C 0.43218 0.16403 0.19871 0.0
H1680 H 0.10432 0.79525 0.11125 0.0
H1681 H 0.06315 0.79746 0.08168 0.0
H1682 H 0.11184 0.82194 0.11619 0.0
H1683 H 0.07053 0.82415 0.08691 0.0
H1684 H 0.08422 0.86579 0.12095 0.0
H1685 H 0.07499 0.83921 0.115 0.0
H1686 H 0.11948 0.84674 0.09504 0.0
H1687 H 0.12835 0.87335 0.10004 0.0
C1688 C 0.09686 0.80144 0.10587 0.0
C1689 C 0.0833 0.7944 0.09595 0.0
C1690 C 0.10117 0.81665 0.10868 0.0
C1691 C 0.09172 0.82495 0.10191 0.0
C1692 C 0.07794 0.81788 0.09224 0.0
C1693 C 0.07384 0.80272 0.08917 0.0
C1694 C 0.09192 0.86188 0.11506 0.0
C1695 C 0.10716 0.87177 0.11115 0.0
C1696 C 0.08665 0.84667 0.11174 0.0
C1697 C 0.09664 0.84107 0.10469 0.0
C1698 C 0.1117 0.85087 0.10062 0.0
C1699 C 0.11681 0.86607 0.10365 0.0
H1700 H 0.41386 0.89097 0.35977 0.0
H1701 H 0.37248 0.86988 0.32868 0.0
H1702 H 0.39497 0.89145 0.37678 0.0
H1703 H 0.35354 0.87059 0.3457 0.0
H1704 H 0.33109 0.85089 0.38885 0.0
H1705 H 0.34647 0.85617 0.3679 0.0
H1706 H 0.3737 0.90086 0.38315 0.0
H1707 H 0.35843 0.89538 0.40433 0.0
C1708 C 0.40074 0.88671 0.35645 0.0
C1709 C 0.39469 0.88018 0.34293 0.0
C1710 C 0.38989 0.88711 0.36617 0.0
C1711 C 0.37274 0.88096 0.36263 0.0
C1712 C 0.3667 0.87524 0.3488 0.0
C1713 C 0.37756 0.87489 0.33904 0.0
C1714 C 0.34013 0.86194 0.38755 0.0
C1715 C 0.34371 0.87267 0.39826 0.0
C1716 C 0.34886 0.86502 0.3755 0.0
C1717 C 0.36142 0.8789 0.37392 0.0
C1718 C 0.36423 0.89 0.38416 0.0
C1719 C 0.3554 0.88693 0.39621 0.0
H1720 H 0.36121 0.20663 0.57802 0.0
H1721 H 0.40561 0.20678 0.56144 0.0
H1722 H 0.36221 0.1862 0.5945 0.0
H1723 H 0.40666 0.18626 0.57799 0.0
H1724 H 0.37411 0.15726 0.63027 0.0
H1725 H 0.37731 0.17985 0.61549 0.0
H1726 H 0.39158 0.15975 0.58139 0.0
H1727 H 0.38862 0.13726 0.5963 0.0
C1728 C 0.37127 0.20235 0.57797 0.0
C1729 C 0.38312 0.20808 0.56819 0.0
C1730 C 0.3719 0.19068 0.58748 0.0
C1731 C 0.3845 0.18454 0.58755 0.0
C1732 C 0.39661 0.19054 0.57802 0.0
C1733 C 0.39595 0.20222 0.56846 0.0
C1734 C 0.37807 0.15775 0.61966 0.0
C1735 C 0.38099 0.14546 0.61439 0.0
C1736 C 0.37985 0.17065 0.61117 0.0
C1737 C 0.3845 0.17155 0.59718 0.0
C1738 C 0.38813 0.1595 0.59216 0.0
C1739 C 0.38643 0.14661 0.60069 0.0
H1740 H 0.13859 0.17353 0.83311 0.0
H1741 H 0.08951 0.14276 0.82124 0.0
H1742 H 0.14058 0.15888 0.85492 0.0
H1743 H 0.09145 0.128 0.84313 0.0
H1744 H 0.09349 0.12456 0.89342 0.0
H1745 H 0.09127 0.13195 0.86822 0.0
H1746 H 0.14205 0.13584 0.8661 0.0
H1747 H 0.14433 0.12884 0.8916 0.0
C1748 C 0.12827 0.16352 0.83509 0.0
C1749 C 0.11367 0.15958 0.82571 0.0
C1750 C 0.12947 0.15502 0.84755 0.0
C1751 C 0.11613 0.14229 0.85086 0.0
C1752 C 0.10183 0.13791 0.84106 0.0
C1753 C 0.10063 0.14645 0.82859 0.0
C1754 C 0.10405 0.12664 0.88745 0.0
C1755 C 0.11915 0.12637 0.89447 0.0
C1756 C 0.10277 0.13079 0.87297 0.0
C1757 C 0.11657 0.13474 0.86518 0.0
C1758 C 0.13128 0.13314 0.87189 0.0
C1759 C 0.13255 0.12897 0.88643 0.0
H1760 H 0.88992 0.35744 0.82571 0.0
H1761 H 0.84019 0.32993 0.8329 0.0
H1762 H 0.89233 0.37089 0.84774 0.0
H1763 H 0.84251 0.34327 0.8548 0.0
H1764 H 0.8468 0.37103 0.89191 0.0
H1765 H 0.84533 0.36614 0.86636 0.0
H1766 H 0.8947 0.36427 0.87288 0.0
H1767 H 0.89628 0.36964 0.89815 0.0
C1768 C 0.87957 0.35418 0.83205 0.0
C1769 C 0.86508 0.34229 0.82784 0.0
C1770 C 0.88087 0.36199 0.84459 0.0
C1771 C 0.86766 0.3581 0.85313 0.0
C1772 C 0.85287 0.34674 0.84843 0.0
C1773 C 0.85158 0.33898 0.83591 0.0
C1774 C 0.85751 0.37009 0.88773 0.0
C1775 C 0.87155 0.37048 0.89701 0.0
C1776 C 0.85662 0.36712 0.87315 0.0
C1777 C 0.86978 0.36452 0.86762 0.0
C1778 C 0.88435 0.36625 0.87671 0.0
C1779 C 0.88523 0.36922 0.89123 0.0
H1780 H 0.93459 0.7047 0.05818 0.0
H1781 H 0.88972 0.7086 0.0701 0.0
H1782 H 0.92625 0.67883 0.0672 0.0
H1783 H 0.88142 0.68271 0.07929 0.0
H1784 H 0.86498 0.63076 0.07692 0.0
H1785 H 0.87323 0.65679 0.06858 0.0
H1786 H 0.92165 0.66521 0.09128 0.0
H1787 H 0.9133 0.63929 0.10007 0.0
C1788 C 0.92285 0.69995 0.06257 0.0
C1789 C 0.91264 0.70854 0.06319 0.0
C1790 C 0.91818 0.68522 0.06791 0.0
C1791 C 0.90316 0.67875 0.07389 0.0
C1792 C 0.89299 0.68738 0.0746 0.0
C1793 C 0.89777 0.70218 0.06942 0.0
C1794 C 0.87731 0.63818 0.08035 0.0
C1795 C 0.88845 0.63287 0.08922 0.0
C1796 C 0.88204 0.65309 0.07552 0.0
C1797 C 0.89807 0.66301 0.07928 0.0
C1798 C 0.90925 0.65775 0.08808 0.0
C1799 C 0.90447 0.64288 0.09306 0.0
H1800 H 0.63306 0.65413 0.34166 0.0
H1801 H 0.60491 0.67901 0.35631 0.0
H1802 H 0.63656 0.6443 0.36597 0.0
H1803 H 0.60876 0.66965 0.38065 0.0
H1804 H 0.61043 0.64542 0.42256 0.0
H1805 H 0.60289 0.6494 0.39715 0.0
H1806 H 0.65184 0.65304 0.38805 0.0
H1807 H 0.659 0.64841 0.41338 0.0
C1808 C 0.62748 0.65736 0.35008 0.0
C1809 C 0.61854 0.66718 0.34707 0.0
C1810 C 0.62957 0.65182 0.36403 0.0
C1811 C 0.62302 0.65621 0.37536 0.0
C1812 C 0.6137 0.66574 0.37221 0.0
C1813 C 0.61144 0.67112 0.35821 0.0
C1814 C 0.61945 0.64685 0.41504 0.0
C1815 C 0.63531 0.64669 0.41989 0.0
C1816 C 0.61519 0.64924 0.4005 0.0
C1817 C 0.6268 0.65175 0.39051 0.0
C1818 C 0.64248 0.65096 0.39534 0.0
C1819 C 0.64664 0.64836 0.40987 0.0
H1820 H 0.87745 0.37913 0.44176 0.0
H1821 H 0.8562 0.34034 0.41483 0.0
H1822 H 0.87937 0.39545 0.42066 0.0
H1823 H 0.8576 0.35672 0.39367 0.0
H1824 H 0.8848 0.39007 0.35962 0.0
H1825 H 0.87829 0.37279 0.37991 0.0
H1826 H 0.8645 0.40486 0.40164 0.0
H1827 H 0.8719 0.42253 0.38152 0.0
C1828 C 0.873 0.37407 0.43134 0.0
C1829 C 0.86681 0.35842 0.42998 0.0
C1830 C 0.87396 0.38346 0.41922 0.0
C1831 C 0.86863 0.37743 0.40543 0.0
C1832 C 0.86204 0.36175 0.40411 0.0
C1833 C 0.86119 0.35235 0.41624 0.0
C1834 C 0.88038 0.39345 0.36874 0.0
C1835 C 0.87917 0.40778 0.36909 0.0
C1836 C 0.87642 0.38344 0.38031 0.0
C1837 C 0.871 0.38746 0.3925 0.0
C1838 C 0.86894 0.40151 0.39253 0.0
C1839 C 0.87299 0.41158 0.38094 0.0
H1840 H 0.62567 0.67693 0.95864 0.0
H1841 H 0.5914 0.63181 0.96206 0.0
H1842 H 0.63607 0.66981 0.93811 0.0
H1843 H 0.60162 0.6247 0.94154 0.0
H1844 H 0.62458 0.6129 0.90631 0.0
H1845 H 0.62342 0.62055 0.93059 0.0
H1846 H 0.62477 0.6642 0.91376 0.0
H1847 H 0.6264 0.65666 0.88983 0.0
C1848 C 0.62029 0.66553 0.95496 0.0
C1849 C 0.60735 0.65507 0.96167 0.0
C1850 C 0.62634 0.6614 0.94327 0.0
C1851 C 0.61956 0.64672 0.93803 0.0
C1852 C 0.60729 0.63606 0.94533 0.0
C1853 C 0.60132 0.64017 0.95705 0.0
C1854 C 0.62516 0.62426 0.90797 0.0
C1855 C 0.62538 0.63415 0.89623 0.0
C1856 C 0.62432 0.62861 0.92181 0.0
C1857 C 0.62375 0.64293 0.92412 0.0
C1858 C 0.6253 0.65314 0.91247 0.0
C1859 C 0.62611 0.6488 0.89871 0.0
H1860 H 0.79685 0.55051 0.90891 0.0
H1861 H 0.81505 0.52575 0.88182 0.0
H1862 H 0.82433 0.56928 0.91255 0.0
H1863 H 0.84262 0.54479 0.88537 0.0
H1864 H 0.88317 0.59403 0.88454 0.0
H1865 H 0.85646 0.57408 0.87969 0.0
H1866 H 0.85225 0.56788 0.9252 0.0
H1867 H 0.87907 0.58724 0.93014 0.0
C1868 C 0.80668 0.54911 0.90365 0.0
C1869 C 0.80378 0.5366 0.89511 0.0
C1870 C 0.82242 0.55983 0.90579 0.0
C1871 C 0.83555 0.55841 0.89928 0.0
C1872 C 0.83265 0.54613 0.89046 0.0
C1873 C 0.81692 0.53523 0.8885 0.0
C1874 C 0.87669 0.58824 0.89352 0.0
C1875 C 0.88318 0.59243 0.90773 0.0
C1876 C 0.8614 0.57686 0.89073 0.0
C1877 C 0.85227 0.56962 0.90208 0.0
C1878 C 0.85894 0.57349 0.91625 0.0
C1879 C 0.87426 0.58466 0.91905 0.0
H1880 H 0.16675 0.04396 0.70515 0.0
H1881 H 0.18656 0.04558 0.66471 0.0
H1882 H 0.16434 0.06861 0.69983 0.0
H1883 H 0.18463 0.07042 0.65957 0.0
H1884 H 0.164 0.10921 0.6502 0.0
H1885 H 0.16424 0.08365 0.65438 0.0
H1886 H 0.18449 0.09438 0.69831 0.0
H1887 H 0.18452 0.11985 0.69413 0.0
C1888 C 0.17056 0.04958 0.69511 0.0
C1889 C 0.17725 0.04304 0.68551 0.0
C1890 C 0.1693 0.06372 0.69212 0.0
C1891 C 0.17451 0.07153 0.67937 0.0
C1892 C 0.18054 0.0647 0.66948 0.0
C1893 C 0.1819 0.05058 0.67253 0.0
C1894 C 0.16862 0.10613 0.66071 0.0
C1895 C 0.17413 0.11656 0.67186 0.0
C1896 C 0.16872 0.0915 0.66311 0.0
C1897 C 0.17425 0.08698 0.6767 0.0
C1898 C 0.17983 0.09743 0.6878 0.0
C1899 C 0.17983 0.11203 0.68539 0.0
H1900 H 0.71276 0.46032 0.39677 0.0
H1901 H 0.68871 0.48881 0.37338 0.0
H1902 H 0.68835 0.43852 0.39094 0.0
H1903 H 0.66456 0.46695 0.36697 0.0
H1904 H 0.61738 0.42704 0.371 0.0
H1905 H 0.64188 0.44898 0.37658 0.0
H1906 H 0.67278 0.4225 0.37242 0.0
H1907 H 0.64823 0.40053 0.36744 0.0
C1908 C 0.70233 0.4619 0.39021 0.0
C1909 C 0.70267 0.4763 0.38557 0.0
C1910 C 0.68833 0.44938 0.38679 0.0
C1911 C 0.67439 0.45091 0.37847 0.0
C1912 C 0.67489 0.46533 0.37363 0.0
C1913 C 0.6888 0.47787 0.37722 0.0
C1914 C 0.62944 0.42599 0.37126 0.0
C1915 C 0.63094 0.41211 0.36887 0.0
C1916 C 0.6435 0.43856 0.37438 0.0
C1917 C 0.65939 0.43757 0.37499 0.0
C1918 C 0.6608 0.42366 0.37237 0.0
C1919 C 0.64674 0.41107 0.36944 0.0
H1920 H 0.35312 0.98366 0.13965 0.0
H1921 H 0.31369 0.95836 0.10896 0.0
H1922 H 0.3569 0.96057 0.14919 0.0
H1923 H 0.31793 0.93529 0.11787 0.0
H1924 H 0.32038 0.89443 0.14417 0.0
H1925 H 0.31517 0.91738 0.13609 0.0
H1926 H 0.36737 0.94237 0.14422 0.0
H1927 H 0.3722 0.91951 0.15307 0.0
C1928 C 0.34527 0.97311 0.13496 0.0
C1929 C 0.33298 0.97276 0.12371 0.0
C1930 C 0.34752 0.95986 0.14031 0.0
C1931 C 0.33781 0.94594 0.13428 0.0
C1932 C 0.32544 0.94567 0.12303 0.0
C1933 C 0.32299 0.95891 0.11789 0.0
C1934 C 0.33067 0.90488 0.14419 0.0
C1935 C 0.34667 0.90527 0.14924 0.0
C1936 C 0.32775 0.91805 0.13949 0.0
C1937 C 0.34082 0.93187 0.13948 0.0
C1938 C 0.35688 0.93209 0.14437 0.0
C1939 C 0.35973 0.91898 0.14933 0.0
H1940 H 0.84774 0.46147 0.64965 0.0
H1941 H 0.79597 0.45277 0.63662 0.0
H1942 H 0.84421 0.4357 0.64438 0.0
H1943 H 0.79232 0.42676 0.63203 0.0
H1944 H 0.79325 0.37979 0.6521 0.0
H1945 H 0.79494 0.406 0.65018 0.0
H1946 H 0.83568 0.41602 0.62445 0.0
H1947 H 0.83377 0.38959 0.62624 0.0
C1948 C 0.83561 0.45413 0.64555 0.0
C1949 C 0.82198 0.45906 0.64415 0.0
C1950 C 0.83363 0.43936 0.64248 0.0
C1951 C 0.81795 0.42919 0.638 0.0
C1952 C 0.80449 0.43432 0.63575 0.0
C1953 C 0.80653 0.44917 0.63862 0.0
C1954 C 0.80231 0.38756 0.64579 0.0
C1955 C 0.8134 0.38278 0.63934 0.0
C1956 C 0.80324 0.40251 0.64462 0.0
C1957 C 0.81546 0.41303 0.63718 0.0
C1958 C 0.82617 0.40812 0.63027 0.0
C1959 C 0.82504 0.39306 0.63123 0.0
H1960 H 0.28678 0.06239 0.39933 0.0
H1961 H 0.30454 0.03155 0.37996 0.0
H1962 H 0.31487 0.07927 0.40445 0.0
H1963 H 0.33282 0.04881 0.38461 0.0
H1964 H 0.38146 0.07558 0.41195 0.0
H1965 H 0.35396 0.05841 0.40379 0.0
H1966 H 0.33744 0.09619 0.39375 0.0
H1967 H 0.3647 0.11316 0.4025 0.0
C1968 C 0.29669 0.05928 0.396 0.0
C1969 C 0.29339 0.0456 0.38924 0.0
C1970 C 0.31284 0.06905 0.39884 0.0
C1971 C 0.32617 0.0655 0.39484 0.0
C1972 C 0.32288 0.05185 0.38797 0.0
C1973 C 0.30667 0.04197 0.38525 0.0
C1974 C 0.37196 0.08014 0.40777 0.0
C1975 C 0.37506 0.09562 0.40795 0.0
C1976 C 0.35622 0.07034 0.40306 0.0
C1977 C 0.34337 0.07588 0.3983 0.0
C1978 C 0.34688 0.09148 0.39771 0.0
C1979 C 0.3625 0.10123 0.4026 0.0
H1980 H 0.66955 0.56263 0.13124 0.0
H1981 H 0.67075 0.55579 0.1773 0.0
H1982 H 0.64869 0.57423 0.13163 0.0
H1983 H 0.64954 0.56741 0.17756 0.0
H1984 H 0.59752 0.57556 0.16304 0.0
H1985 H 0.61816 0.56303 0.16618 0.0
H1986 H 0.6512 0.59939 0.14312 0.0
H1987 H 0.63095 0.61205 0.14028 0.0
C1988 C 0.66525 0.56343 0.14145 0.0
C1989 C 0.67195 0.55839 0.15426 0.0
C1990 C 0.65335 0.57016 0.14165 0.0
C1991 C 0.64772 0.57188 0.15465 0.0
C1992 C 0.65375 0.56622 0.16742 0.0
C1993 C 0.66588 0.55961 0.16725 0.0
C1994 C 0.60934 0.58102 0.15894 0.0
C1995 C 0.61251 0.59466 0.15117 0.0
C1996 C 0.6211 0.57383 0.16071 0.0
C1997 C 0.63609 0.58015 0.15466 0.0
C1998 C 0.63959 0.59416 0.14763 0.0
C1999 C 0.62798 0.60137 0.14598 0.0
H2000 H 0.17428 0.96514 0.87464 0.0
H2001 H 0.20686 0.94776 0.90281 0.0
H2002 H 0.15235 0.94082 0.87545 0.0
H2003 H 0.18489 0.92346 0.90359 0.0
H2004 H 0.13563 0.88779 0.9136 0.0
H2005 H 0.15702 0.91244 0.91305 0.0
H2006 H 0.1469 0.91468 0.86696 0.0
H2007 H 0.12584 0.88988 0.86738 0.0
C2008 C 0.17677 0.95614 0.88101 0.0
C2009 C 0.19234 0.95839 0.88865 0.0
C2010 C 0.16422 0.94221 0.88142 0.0
C2011 C 0.16691 0.93027 0.8896 0.0
C2012 C 0.18242 0.93252 0.89731 0.0
C2013 C 0.19503 0.94641 0.89678 0.0
C2014 C 0.13804 0.89347 0.90332 0.0
C2015 C 0.12902 0.88679 0.89053 0.0
C2016 C 0.15027 0.9076 0.90303 0.0
C2017 C 0.15364 0.91545 0.88996 0.0
C2018 C 0.14444 0.90895 0.8772 0.0
C2019 C 0.13232 0.89475 0.87747 0.0
H2020 H 0.84007 0.83771 0.55034 0.0
H2021 H 0.89271 0.86114 0.55332 0.0
H2022 H 0.83738 0.85501 0.56737 0.0
H2023 H 0.88996 0.87839 0.57029 0.0
H2024 H 0.8796 0.91189 0.59609 0.0
H2025 H 0.8775 0.89832 0.57406 0.0
H2026 H 0.84734 0.85752 0.59384 0.0
H2027 H 0.84954 0.87106 0.61576 0.0
C2028 C 0.85102 0.84671 0.55441 0.0
C2029 C 0.86664 0.84794 0.55061 0.0
C2030 C 0.84947 0.85658 0.56417 0.0
C2031 C 0.86346 0.868 0.57019 0.0
C2032 C 0.87893 0.86979 0.56573 0.0
C2033 C 0.88052 0.85982 0.55609 0.0
C2034 C 0.87214 0.90012 0.59551 0.0
C2035 C 0.86476 0.89246 0.60755 0.0
C2036 C 0.87104 0.89235 0.58299 0.0
C2037 C 0.86233 0.87686 0.58228 0.0
C2038 C 0.854 0.86947 0.59402 0.0
C2039 C 0.8553 0.87718 0.60657 0.0
H2040 H 0.96974 0.19189 0.33116 0.0
H2041 H 0.94241 0.14434 0.33104 0.0
H2042 H 0.96249 0.1933 0.35537 0.0
H2043 H 0.93506 0.14581 0.35496 0.0
H2044 H 0.93734 0.14915 0.40241 0.0
H2045 H 0.94826 0.1501 0.37949 0.0
H2046 H 0.93768 0.19068 0.36779 0.0
H2047 H 0.92685 0.18977 0.39099 0.0
C2048 C 0.96223 0.18174 0.33629 0.0
C2049 C 0.95669 0.16798 0.32917 0.0
C2050 C 0.95802 0.18258 0.35011 0.0
C2051 C 0.94829 0.16966 0.35711 0.0
C2052 C 0.94282 0.15593 0.34998 0.0
C2053 C 0.94695 0.1551 0.3362 0.0
C2054 C 0.93745 0.15833 0.39497 0.0
C2055 C 0.93101 0.16926 0.39835 0.0
C2056 C 0.94366 0.15886 0.38184 0.0
C2057 C 0.94356 0.1703 0.37172 0.0
C2058 C 0.93795 0.18173 0.37539 0.0
C2059 C 0.93175 0.18122 0.38863 0.0
H2060 H 0.61286 0.16891 0.06977 0.0
H2061 H 0.58694 0.18487 0.09809 0.0
H2062 H 0.60846 0.14603 0.08451 0.0
H2063 H 0.58294 0.16237 0.11294 0.0
H2064 H 0.56902 0.11831 0.13417 0.0
H2065 H 0.56887 0.13544 0.11381 0.0
H2066 H 0.61931 0.14024 0.10891 0.0
H2067 H 0.61927 0.12281 0.12916 0.0
C2068 C 0.60586 0.16737 0.0789 0.0
C2069 C 0.60006 0.1786 0.08268 0.0
C2070 C 0.60354 0.15436 0.08745 0.0
C2071 C 0.59527 0.15233 0.09986 0.0
C2072 C 0.58908 0.16341 0.10333 0.0
C2073 C 0.5915 0.17639 0.09488 0.0
C2074 C 0.57992 0.12276 0.12849 0.0
C2075 C 0.59423 0.11942 0.13331 0.0
C2076 C 0.57988 0.13261 0.11689 0.0
C2077 C 0.59418 0.13944 0.10993 0.0
C2078 C 0.60807 0.13513 0.11401 0.0
C2079 C 0.60807 0.12516 0.1256 0.0
H2080 H 0.52479 0.84554 0.82671 0.0
H2081 H 0.56109 0.88573 0.81157 0.0
H2082 H 0.54479 0.84326 0.84641 0.0
H2083 H 0.58088 0.88374 0.83149 0.0
H2084 H 0.61754 0.87214 0.86308 0.0
H2085 H 0.59794 0.86994 0.8417 0.0
H2086 H 0.5577 0.85557 0.86838 0.0
H2087 H 0.57729 0.85746 0.88962 0.0
C2088 C 0.53704 0.85389 0.82757 0.0
C2089 C 0.54131 0.86587 0.8176 0.0
C2090 C 0.54849 0.85261 0.83891 0.0
C2091 C 0.56445 0.86333 0.8406 0.0
C2092 C 0.5688 0.87513 0.83043 0.0
C2093 C 0.5574 0.87635 0.81904 0.0
C2094 C 0.60448 0.8683 0.8643 0.0
C2095 C 0.59893 0.86502 0.878 0.0
C2096 C 0.59325 0.86712 0.85209 0.0
C2097 C 0.57624 0.86276 0.85331 0.0
C2098 C 0.57068 0.8588 0.86698 0.0
C2099 C 0.5819 0.85987 0.87918 0.0
H2100 H 0.92632 0.2223 0.94239 0.0
H2101 H 0.88443 0.18827 0.95884 0.0
H2102 H 0.9271 0.20452 0.9247 0.0
H2103 H 0.88533 0.1708 0.94141 0.0
H2104 H 0.89991 0.13772 0.92056 0.0
H2105 H 0.90531 0.1576 0.93772 0.0
H2106 H 0.90807 0.18968 0.90277 0.0
H2107 H 0.90264 0.16966 0.88551 0.0
C2108 C 0.91728 0.2111 0.94222 0.0
C2109 C 0.90536 0.2067 0.95208 0.0
C2110 C 0.91775 0.20096 0.93211 0.0
C2111 C 0.90646 0.18623 0.93187 0.0
C2112 C 0.89441 0.18198 0.94155 0.0
C2113 C 0.89383 0.19208 0.95147 0.0
C2114 C 0.90204 0.14908 0.91656 0.0
C2115 C 0.90063 0.15213 0.90173 0.0
C2116 C 0.90507 0.16043 0.92636 0.0
C2117 C 0.90676 0.1751 0.92155 0.0
C2118 C 0.9068 0.17846 0.90675 0.0
C2119 C 0.90374 0.16703 0.89689 0.0
H2120 H 0.59655 0.16186 0.71124 0.0
H2121 H 0.60704 0.12078 0.72028 0.0
H2122 H 0.618 0.16995 0.69495 0.0
H2123 H 0.62872 0.12913 0.70402 0.0
H2124 H 0.67443 0.15992 0.6785 0.0
H2125 H 0.65751 0.15302 0.69876 0.0
H2126 H 0.61524 0.15478 0.67054 0.0
H2127 H 0.6316 0.16082 0.65032 0.0
C2128 C 0.60369 0.15472 0.71007 0.0
C2129 C 0.5999 0.14056 0.7169 0.0
C2130 C 0.61595 0.15937 0.70072 0.0
C2131 C 0.62482 0.15007 0.69818 0.0
C2132 C 0.62203 0.13648 0.70586 0.0
C2133 C 0.60959 0.13171 0.71511 0.0
C2134 C 0.66148 0.15864 0.67659 0.0
C2135 C 0.65447 0.1612 0.6628 0.0
C2136 C 0.65187 0.15479 0.68819 0.0
C2137 C 0.63523 0.1537 0.68618 0.0
C2138 C 0.62817 0.15592 0.6724 0.0
C2139 C 0.6376 0.15946 0.66084 0.0
H2140 H 0.58046 0.77089 0.45492 0.0
H2141 H 0.63155 0.79684 0.46728 0.0
H2142 H 0.58271 0.78257 0.43093 0.0
H2143 H 0.63369 0.80851 0.44356 0.0
H2144 H 0.6384 0.81852 0.39724 0.0
H2145 H 0.63375 0.80245 0.41866 0.0
H2146 H 0.58646 0.80778 0.41969 0.0
H2147 H 0.59109 0.82378 0.39807 0.0
C2148 C 0.59217 0.77902 0.45252 0.0
C2149 C 0.60582 0.78293 0.46303 0.0
C2150 C 0.59342 0.78574 0.4388 0.0
C2151 C 0.6084 0.79639 0.43531 0.0
C2152 C 0.62205 0.80015 0.4458 0.0
C2153 C 0.62078 0.79353 0.45947 0.0
C2154 C 0.62691 0.81607 0.40194 0.0
C2155 C 0.6152 0.82254 0.39614 0.0
C2156 C 0.62427 0.80693 0.41422 0.0
C2157 C 0.60988 0.80408 0.42103 0.0
C2158 C 0.59765 0.80973 0.41468 0.0
C2159 C 0.60029 0.81888 0.40231 0.0
H2160 H 0.89954 0.89272 0.21339 0.0
H2161 H 0.92671 0.86906 0.19507 0.0
H2162 H 0.88763 0.89713 0.18941 0.0
H2163 H 0.91493 0.87356 0.17106 0.0
H2164 H 0.90401 0.8989 0.12993 0.0
H2165 H 0.91584 0.89395 0.15377 0.0
H2166 H 0.86843 0.8837 0.16979 0.0
H2167 H 0.85662 0.88868 0.14595 0.0
C2168 C 0.90299 0.88849 0.20422 0.0
C2169 C 0.91438 0.88087 0.20609 0.0
C2170 C 0.89612 0.89096 0.19049 0.0
C2171 C 0.90038 0.88576 0.1783 0.0
C2172 C 0.91165 0.87799 0.1802 0.0
C2173 C 0.91852 0.87551 0.19395 0.0
C2174 C 0.89607 0.89543 0.1385 0.0
C2175 C 0.87937 0.89418 0.13605 0.0
C2176 C 0.90285 0.89259 0.15217 0.0
C2177 C 0.89309 0.88846 0.1637 0.0
C2178 C 0.87635 0.8871 0.1612 0.0
C2179 C 0.86958 0.88994 0.14754 0.0
H2180 H 0.098 0.60558 0.18697 0.0
H2181 H 0.11872 0.63094 0.22562 0.0
H2182 H 0.1241 0.61649 0.17696 0.0
H2183 H 0.14522 0.6415 0.21578 0.0
H2184 H 0.17487 0.6751 0.18222 0.0
H2185 H 0.1547 0.65991 0.19776 0.0
H2186 H 0.15233 0.62002 0.17638 0.0
H2187 H 0.17184 0.63541 0.16023 0.0
C2188 C 0.10826 0.6132 0.1935 0.0
C2189 C 0.10617 0.6176 0.20699 0.0
C2190 C 0.12335 0.61939 0.1878 0.0
C2191 C 0.1368 0.63003 0.19549 0.0
C2192 C 0.13504 0.63357 0.20944 0.0
C2193 C 0.11987 0.62747 0.21511 0.0
C2194 C 0.17021 0.66306 0.18097 0.0
C2195 C 0.17464 0.6565 0.16977 0.0
C2196 C 0.15876 0.65429 0.19001 0.0
C2197 C 0.15161 0.63872 0.18817 0.0
C2198 C 0.1573 0.63201 0.17787 0.0
C2199 C 0.16865 0.64082 0.16872 0.0
H2200 H 0.08063 0.2724 0.97089 0.0
H2201 H 0.03626 0.25658 0.94163 0.0
H2202 H 0.09001 0.29546 0.95667 0.0
H2203 H 0.04593 0.27943 0.92704 0.0
H2204 H 0.06251 0.32884 0.91173 0.0
H2205 H 0.05184 0.30676 0.92714 0.0
H2206 H 0.09996 0.30213 0.93303 0.0
H2207 H 0.11055 0.32403 0.91763 0.0
C2208 C 0.07269 0.274 0.96162 0.0
C2209 C 0.05753 0.26284 0.95757 0.0
C2210 C 0.07821 0.2871 0.95331 0.0
C2211 C 0.06872 0.28928 0.94071 0.0
C2212 C 0.05343 0.27818 0.93677 0.0
C2213 C 0.04795 0.26506 0.94507 0.0
C2214 C 0.07076 0.32303 0.91625 0.0
C2215 C 0.0874 0.32826 0.91352 0.0
C2216 C 0.06466 0.31041 0.92509 0.0
C2217 C 0.07509 0.30277 0.93141 0.0
C2218 C 0.09169 0.30794 0.92859 0.0
C2219 C 0.09776 0.32051 0.91975 0.0
H2220 H 0.3905 0.38196 0.72004 0.0
H2221 H 0.41966 0.36016 0.70193 0.0
H2222 H 0.3831 0.39069 0.69606 0.0
H2223 H 0.41303 0.36948 0.67812 0.0
H2224 H 0.383 0.37416 0.63604 0.0
H2225 H 0.38973 0.36537 0.6601 0.0
H2226 H 0.3951 0.40825 0.67715 0.0
H2227 H 0.38828 0.41701 0.65307 0.0
C2228 C 0.39551 0.37921 0.71095 0.0
C2229 C 0.40604 0.37073 0.71291 0.0
C2230 C 0.39137 0.38429 0.69724 0.0
C2231 C 0.39755 0.38087 0.68517 0.0
C2232 C 0.40799 0.37227 0.68716 0.0
C2233 C 0.4121 0.3672 0.70087 0.0
C2234 C 0.38569 0.38173 0.64492 0.0
C2235 C 0.38515 0.3963 0.64264 0.0
C2236 C 0.38958 0.37671 0.65871 0.0
C2237 C 0.39305 0.38613 0.67055 0.0
C2238 C 0.3923 0.40064 0.6683 0.0
C2239 C 0.38839 0.40566 0.6545 0.0
H2240 H 0.0836 0.67947 0.58391 0.0
H2241 H 0.1204 0.67314 0.56026 0.0
H2242 H 0.08074 0.65601 0.5969 0.0
H2243 H 0.11721 0.64927 0.57302 0.0
H2244 H 0.12472 0.62506 0.61806 0.0
H2245 H 0.12485 0.64271 0.59799 0.0
H2246 H 0.07171 0.62898 0.5955 0.0
H2247 H 0.07177 0.61173 0.61581 0.0
C2248 C 0.09081 0.67286 0.58126 0.0
C2249 C 0.10208 0.67805 0.57096 0.0
C2250 C 0.08906 0.65932 0.5886 0.0
C2251 C 0.09865 0.65067 0.58592 0.0
C2252 C 0.10962 0.65566 0.5753 0.0
C2253 C 0.1113 0.66922 0.56787 0.0
C2254 C 0.11307 0.62545 0.6128 0.0
C2255 C 0.09825 0.61716 0.61842 0.0
C2256 C 0.11311 0.63555 0.60133 0.0
C2257 C 0.0983 0.63746 0.59534 0.0
C2258 C 0.08334 0.628 0.60008 0.0
C2259 C 0.08333 0.61802 0.61159 0.0
H2260 H 0.33285 0.33088 0.067 0.0
H2261 H 0.38475 0.35514 0.06472 0.0
H2262 H 0.33108 0.35082 0.08135 0.0
H2263 H 0.38293 0.37501 0.079 0.0
H2264 H 0.37421 0.41257 0.09917 0.0
H2265 H 0.37005 0.39508 0.07973 0.0
H2266 H 0.34337 0.35854 0.1067 0.0
H2267 H 0.34755 0.37602 0.12606 0.0
C2268 C 0.34381 0.34057 0.06934 0.0
C2269 C 0.35899 0.34136 0.06484 0.0
C2270 C 0.34279 0.35196 0.07758 0.0
C2271 C 0.35686 0.36445 0.0813 0.0
C2272 C 0.37183 0.3656 0.07617 0.0
C2273 C 0.3729 0.35415 0.06809 0.0
C2274 C 0.36699 0.40088 0.10073 0.0
C2275 C 0.36124 0.39559 0.11408 0.0
C2276 C 0.36475 0.39086 0.08968 0.0
C2277 C 0.35653 0.37544 0.09176 0.0
C2278 C 0.34966 0.37036 0.10474 0.0
C2279 C 0.35208 0.38034 0.11583 0.0
H2280 H 0.55584 0.39877 0.21014 0.0
H2281 H 0.53723 0.35035 0.21212 0.0
H2282 H 0.58074 0.39828 0.20117 0.0
H2283 H 0.56249 0.34992 0.20321 0.0
H2284 H 0.60372 0.35918 0.17111 0.0
H2285 H 0.5779 0.35657 0.18108 0.0
H2286 H 0.6048 0.39163 0.2111 0.0
H2287 H 0.6303 0.39428 0.20111 0.0
C2288 C 0.55705 0.388 0.20868 0.0
C2289 C 0.54456 0.3746 0.21193 0.0
C2290 C 0.5714 0.38773 0.20361 0.0
C2291 C 0.57367 0.37406 0.20165 0.0
C2292 C 0.56106 0.36061 0.2046 0.0
C2293 C 0.54665 0.36088 0.20975 0.0
C2294 C 0.60406 0.36611 0.17999 0.0
C2295 C 0.61889 0.37711 0.18518 0.0
C2296 C 0.58933 0.36464 0.18569 0.0
C2297 C 0.5893 0.37412 0.19667 0.0
C2298 C 0.60436 0.38444 0.2024 0.0
C2299 C 0.61896 0.38593 0.19671 0.0
H2300 H 0.97076 0.68421 0.72753 0.0
H2301 H 0.99984 0.6885 0.69212 0.0
H2302 H 0.9465 0.6818 0.7106 0.0
H2303 H 0.97566 0.68639 0.67523 0.0
H2304 H 0.90583 0.6541 0.67581 0.0
H2305 H 0.92966 0.66164 0.69377 0.0
H2306 H 0.95461 0.69818 0.66595 0.0
H2307 H 0.93053 0.69049 0.64785 0.0
C2308 C 0.97201 0.68453 0.71619 0.0
C2309 C 0.98717 0.68605 0.71124 0.0
C2310 C 0.95812 0.68332 0.70647 0.0
C2311 C 0.95914 0.68378 0.69158 0.0
C2312 C 0.97449 0.68611 0.68663 0.0
C2313 C 0.98833 0.68722 0.69634 0.0
C2314 C 0.91634 0.66386 0.67363 0.0
C2315 C 0.91646 0.67165 0.66043 0.0
C2316 C 0.92993 0.66825 0.68395 0.0
C2317 C 0.94404 0.68048 0.68127 0.0
C2318 C 0.94394 0.68864 0.66826 0.0
C2319 C 0.93019 0.68432 0.65795 0.0
H2320 H 0.62077 0.30466 0.58355 0.0
H2321 H 0.5779 0.30827 0.55736 0.0
H2322 H 0.62159 0.32555 0.59795 0.0
H2323 H 0.57871 0.32923 0.57191 0.0
H2324 H 0.58072 0.35624 0.61455 0.0
H2325 H 0.57705 0.33429 0.60023 0.0
H2326 H 0.62707 0.35405 0.58945 0.0
H2327 H 0.63058 0.37615 0.60298 0.0
C2328 C 0.61143 0.30984 0.58096 0.0
C2329 C 0.59945 0.30504 0.56918 0.0
C2330 C 0.61194 0.3218 0.58916 0.0
C2331 C 0.60028 0.329 0.58595 0.0
C2332 C 0.58783 0.32382 0.57457 0.0
C2333 C 0.5875 0.31199 0.56617 0.0
C2334 C 0.59086 0.35599 0.60897 0.0
C2335 C 0.60606 0.36788 0.61017 0.0
C2336 C 0.58875 0.34342 0.60083 0.0
C2337 C 0.60187 0.34246 0.59395 0.0
C2338 C 0.61688 0.35442 0.5949 0.0
C2339 C 0.6189 0.36703 0.60276 0.0
H2340 H 0.42713 0.63346 0.84151 0.0
H2341 H 0.46797 0.67506 0.84771 0.0
H2342 H 0.41714 0.63726 0.86356 0.0
H2343 H 0.45763 0.67911 0.86974 0.0
H2344 H 0.44246 0.67006 0.91682 0.0
H2345 H 0.45374 0.66962 0.89417 0.0
H2346 H 0.40422 0.65277 0.87275 0.0
H2347 H 0.3931 0.6528 0.89544 0.0
C2348 C 0.43396 0.64347 0.84755 0.0
C2349 C 0.44833 0.65397 0.8428 0.0
C2350 C 0.42813 0.64573 0.86016 0.0
C2351 C 0.43642 0.65862 0.86833 0.0
C2352 C 0.45097 0.66904 0.86373 0.0
C2353 C 0.45688 0.66673 0.85109 0.0
C2354 C 0.43407 0.6666 0.90717 0.0
C2355 C 0.41694 0.66136 0.90784 0.0
C2356 C 0.4405 0.66632 0.8942 0.0
C2357 C 0.42987 0.66087 0.88168 0.0
C2358 C 0.41275 0.65663 0.88225 0.0
C2359 C 0.40636 0.65677 0.89519 0.0
H2360 H 0.01739 0.365 0.31061 0.0
H2361 H 0.05424 0.35049 0.29498 0.0
H2362 H 0.03244 0.3679 0.33453 0.0
H2363 H 0.06896 0.353 0.31892 0.0
H2364 H 0.0774 0.38908 0.36883 0.0
H2365 H 0.05981 0.3846 0.34608 0.0
H2366 H 0.06553 0.3415 0.34357 0.0
H2367 H 0.08331 0.34607 0.36634 0.0
C2368 C 0.02879 0.36268 0.31215 0.0
C2369 C 0.03477 0.35788 0.30073 0.0
C2370 C 0.03732 0.36417 0.32592 0.0
C2371 C 0.05187 0.36065 0.3286 0.0
C2372 C 0.05768 0.35561 0.31725 0.0
C2373 C 0.04926 0.35426 0.3035 0.0
C2374 C 0.07483 0.37862 0.36344 0.0
C2375 C 0.08184 0.36798 0.36926 0.0
C2376 C 0.06465 0.37601 0.35049 0.0
C2377 C 0.06137 0.36274 0.34301 0.0
C2378 C 0.06799 0.35189 0.34904 0.0
C2379 C 0.07806 0.35445 0.36209 0.0
H2380 H 0.3738 0.71958 0.44107 0.0
H2381 H 0.41051 0.70731 0.46912 0.0
H2382 H 0.37737 0.70498 0.42193 0.0
H2383 H 0.41406 0.69278 0.44996 0.0
H2384 H 0.39213 0.65032 0.42103 0.0
H2385 H 0.39495 0.66885 0.43901 0.0
H2386 H 0.39719 0.70235 0.40545 0.0
H2387 H 0.39427 0.6837 0.38741 0.0
C2388 C 0.38283 0.71399 0.44309 0.0
C2389 C 0.39173 0.71448 0.45669 0.0
C2390 C 0.38494 0.7057 0.43209 0.0
C2391 C 0.3959 0.69764 0.4345 0.0
C2392 C 0.40538 0.69874 0.44785 0.0
C2393 C 0.40338 0.70711 0.45881 0.0
C2394 C 0.39349 0.66171 0.41753 0.0
C2395 C 0.39293 0.66559 0.40286 0.0
C2396 C 0.39521 0.67234 0.42782 0.0
C2397 C 0.39624 0.68704 0.42363 0.0
C2398 C 0.39631 0.69107 0.40897 0.0
C2399 C 0.39478 0.68046 0.39867 0.0
H2400 H 0.05528 0.29966 0.03371 0.0
H2401 H 0.10398 0.30169 0.02556 0.0
H2402 H 0.06735 0.31666 0.05369 0.0
H2403 H 0.11601 0.31849 0.04571 0.0
H2404 H 0.13281 0.35939 0.07452 0.0
H2405 H 0.12048 0.34385 0.0535 0.0
H2406 H 0.0813 0.31591 0.07772 0.0
H2407 H 0.09331 0.33173 0.09854 0.0
C2408 C 0.06856 0.30374 0.03616 0.0
C2409 C 0.07866 0.29927 0.02807 0.0
C2410 C 0.07547 0.31342 0.04767 0.0
C2411 C 0.09264 0.31887 0.05133 0.0
C2412 C 0.10276 0.31461 0.04307 0.0
C2413 C 0.09585 0.30491 0.03158 0.0
C2414 C 0.12147 0.35003 0.07529 0.0
C2415 C 0.11404 0.34678 0.08819 0.0
C2416 C 0.11449 0.34104 0.0633 0.0
C2417 C 0.09992 0.32864 0.06394 0.0
C2418 C 0.09244 0.32547 0.07682 0.0
C2419 C 0.09942 0.33443 0.0888 0.0
H2420 H 0.88379 0.85012 0.29071 0.0
H2421 H 0.89686 0.89808 0.2849 0.0
H2422 H 0.86419 0.85019 0.30741 0.0
H2423 H 0.87725 0.89809 0.30155 0.0
H2424 H 0.82534 0.88764 0.31636 0.0
H2425 H 0.84622 0.88789 0.30095 0.0
H2426 H 0.86394 0.86024 0.33205 0.0
H2427 H 0.8429 0.85995 0.34751 0.0
C2428 C 0.88252 0.86068 0.29303 0.0
C2429 C 0.89183 0.87409 0.28644 0.0
C2430 C 0.87138 0.86072 0.30266 0.0
C2431 C 0.86918 0.87414 0.30575 0.0
C2432 C 0.87859 0.88756 0.29926 0.0
C2433 C 0.88987 0.88755 0.28978 0.0
C2434 C 0.83366 0.88158 0.31988 0.0
C2435 C 0.83246 0.87371 0.33309 0.0
C2436 C 0.8457 0.88183 0.31113 0.0
C2437 C 0.8567 0.8741 0.31531 0.0
C2438 C 0.85554 0.86623 0.32853 0.0
C2439 C 0.8436 0.86614 0.3374 0.0
H2440 H 0.41036 0.70337 0.55033 0.0
H2441 H 0.36496 0.71315 0.54372 0.0
H2442 H 0.40163 0.68955 0.57234 0.0
H2443 H 0.35613 0.69909 0.56566 0.0
H2444 H 0.35108 0.68204 0.61211 0.0
H2445 H 0.36193 0.69857 0.59198 0.0
H2446 H 0.38064 0.66569 0.57781 0.0
H2447 H 0.37026 0.64942 0.59811 0.0
C2448 C 0.39857 0.70267 0.55362 0.0
C2449 C 0.3883 0.70926 0.5452 0.0
C2450 C 0.39353 0.69467 0.5662 0.0
C2451 C 0.37812 0.69309 0.57067 0.0
C2452 C 0.36812 0.70019 0.56256 0.0
C2453 C 0.37316 0.70819 0.54995 0.0
C2454 C 0.35769 0.67844 0.60478 0.0
C2455 C 0.35979 0.66442 0.60667 0.0
C2456 C 0.36377 0.68784 0.59319 0.0
C2457 C 0.37215 0.68344 0.58331 0.0
C2458 C 0.37441 0.6695 0.58532 0.0
C2459 C 0.36829 0.66009 0.59686 0.0
H2460 H 0.57774 0.09066 0.78273 0.0
H2461 H 0.547 0.11681 0.78848 0.0
H2462 H 0.58309 0.08835 0.80879 0.0
H2463 H 0.55208 0.11412 0.81463 0.0
H2464 H 0.55077 0.08487 0.85855 0.0
H2465 H 0.54541 0.08976 0.83292 0.0
H2466 H 0.59772 0.10859 0.82962 0.0
H2467 H 0.60323 0.10455 0.85534 0.0
C2468 C 0.57209 0.09586 0.78956 0.0
C2469 C 0.56196 0.10392 0.78359 0.0
C2470 C 0.57521 0.09459 0.80444 0.0
C2471 C 0.568 0.10108 0.81363 0.0
C2472 C 0.55773 0.10901 0.80771 0.0
C2473 C 0.55489 0.11057 0.7928 0.0
C2474 C 0.56116 0.09038 0.85249 0.0
C2475 C 0.57746 0.09417 0.85907 0.0
C2476 C 0.55805 0.0931 0.8378 0.0
C2477 C 0.57117 0.09942 0.82936 0.0
C2478 C 0.58742 0.10353 0.83591 0.0
C2479 C 0.59053 0.1011 0.85063 0.0
H2480 H 0.06269 0.6328 0.50734 0.0
H2481 H 0.1131 0.65375 0.49757 0.0
H2482 H 0.05653 0.61779 0.48588 0.0
H2483 H 0.107 0.63848 0.47624 0.0
H2484 H 0.08358 0.62305 0.43047 0.0
H2485 H 0.09128 0.63683 0.45281 0.0
H2486 H 0.06203 0.59754 0.47532 0.0
H2487 H 0.05427 0.58378 0.45292 0.0
C2488 C 0.07251 0.6341 0.5007 0.0
C2489 C 0.08836 0.64454 0.50414 0.0
C2490 C 0.069 0.62542 0.48843 0.0
C2491 C 0.08126 0.62696 0.47931 0.0
C2492 C 0.09721 0.63717 0.48292 0.0
C2493 C 0.10073 0.64587 0.49519 0.0
C2494 C 0.07898 0.61729 0.44022 0.0
C2495 C 0.06827 0.60234 0.43991 0.0
C2496 C 0.08341 0.62519 0.45304 0.0
C2497 C 0.07724 0.6183 0.46586 0.0
C2498 C 0.06678 0.60325 0.46559 0.0
C2499 C 0.06234 0.59536 0.45277 0.0
H2500 H 0.5258 0.84089 0.74866 0.0
H2501 H 0.54473 0.88576 0.73088 0.0
H2502 H 0.5403 0.83228 0.73218 0.0
H2503 H 0.55909 0.877 0.71423 0.0
H2504 H 0.56729 0.84825 0.67789 0.0
H2505 H 0.5521 0.85785 0.69297 0.0
H2506 H 0.57178 0.8388 0.73054 0.0
H2507 H 0.58753 0.8298 0.71574 0.0
C2508 C 0.53287 0.84888 0.74111 0.0
C2509 C 0.53418 0.86402 0.74112 0.0
C2510 C 0.54124 0.84396 0.73174 0.0
C2511 C 0.55088 0.85401 0.72203 0.0
C2512 C 0.55168 0.86903 0.7216 0.0
C2513 C 0.54351 0.87403 0.73115 0.0
C2514 C 0.56864 0.84633 0.68939 0.0
C2515 C 0.57857 0.83811 0.69555 0.0
C2516 C 0.55985 0.85176 0.69799 0.0
C2517 C 0.56063 0.84889 0.71287 0.0
C2518 C 0.57073 0.84092 0.71905 0.0
C2519 C 0.57969 0.83571 0.71053 0.0
H2520 H 0.37027 0.32577 0.99377 0.0
H2521 H 0.31754 0.3034 0.99213 0.0
H2522 H 0.36664 0.3377 0.97048 0.0
H2523 H 0.31389 0.31554 0.96906 0.0
H2524 H 0.31174 0.33203 0.92352 0.0
H2525 H 0.31835 0.31733 0.94396 0.0
H2526 H 0.35582 0.35724 0.96159 0.0
H2527 H 0.34967 0.37179 0.94086 0.0
C2528 C 0.35792 0.32329 0.98839 0.0
C2529 C 0.34418 0.31369 0.99485 0.0
C2530 C 0.35583 0.3302 0.97507 0.0
C2531 C 0.33997 0.32765 0.96792 0.0
C2532 C 0.3263 0.31762 0.97416 0.0
C2533 C 0.32839 0.31072 0.98746 0.0
C2534 C 0.32168 0.3376 0.93157 0.0
C2535 C 0.3301 0.35311 0.9306 0.0
C2536 C 0.32533 0.3292 0.94338 0.0
C2537 C 0.33749 0.33612 0.95451 0.0
C2538 C 0.34645 0.35151 0.95319 0.0
C2539 C 0.34281 0.3599 0.94138 0.0
H2540 H 0.9139 0.1798 0.25835 0.0
H2541 H 0.92839 0.14767 0.23746 0.0
H2542 H 0.89533 0.18108 0.23722 0.0
H2543 H 0.90947 0.14877 0.21629 0.0
H2544 H 0.88691 0.1686 0.17592 0.0
H2545 H 0.90555 0.16584 0.19664 0.0
H2546 H 0.86946 0.16539 0.22487 0.0
H2547 H 0.85088 0.1682 0.20419 0.0
C2548 C 0.91312 0.17298 0.24925 0.0
C2549 C 0.92261 0.1636 0.24962 0.0
C2550 C 0.90235 0.17364 0.23716 0.0
C2551 C 0.90078 0.16491 0.22512 0.0
C2552 C 0.91047 0.15569 0.22537 0.0
C2553 C 0.92127 0.15503 0.23751 0.0
C2554 C 0.88286 0.16768 0.18654 0.0
C2555 C 0.86746 0.16872 0.18843 0.0
C2556 C 0.89355 0.16611 0.19841 0.0
C2557 C 0.88906 0.16555 0.21241 0.0
C2558 C 0.87344 0.16611 0.21424 0.0
C2559 C 0.86278 0.1677 0.2024 0.0
H2560 H 0.01137 0.14233 0.29898 0.0
H2561 H 0.04043 0.18894 0.293 0.0
H2562 H 0.0361 0.13728 0.30925 0.0
H2563 H 0.06521 0.18382 0.30292 0.0
H2564 H 0.09816 0.17343 0.34116 0.0
H2565 H 0.07532 0.17826 0.32676 0.0
H2566 H 0.06294 0.136 0.30562 0.0
H2567 H 0.08563 0.13093 0.32052 0.0
C2568 C 0.02308 0.15144 0.2996 0.0
C2569 C 0.0239 0.16608 0.29533 0.0
C2570 C 0.03729 0.14853 0.30542 0.0
C2571 C 0.05262 0.16017 0.30706 0.0
C2572 C 0.05354 0.17465 0.30207 0.0
C2573 C 0.03934 0.17757 0.29632 0.0
C2574 C 0.09057 0.16516 0.33344 0.0
C2575 C 0.09357 0.15172 0.3321 0.0
C2576 C 0.07759 0.16802 0.32503 0.0
C2577 C 0.06727 0.15752 0.31501 0.0
C2578 C 0.07056 0.14425 0.31334 0.0
C2579 C 0.08363 0.1414 0.32177 0.0
H2580 H 0.13026 0.7553 0.60993 0.0
H2581 H 0.08285 0.7569 0.59158 0.0
H2582 H 0.12892 0.76904 0.63064 0.0
H2583 H 0.0816 0.77079 0.61237 0.0
H2584 H 0.0993 0.81156 0.64425 0.0
H2585 H 0.0976 0.79653 0.62347 0.0
H2586 H 0.1112 0.76409 0.65137 0.0
H2587 H 0.11244 0.7788 0.67219 0.0
C2588 C 0.11957 0.75861 0.6103 0.0
C2589 C 0.10666 0.75501 0.59912 0.0
C2590 C 0.11875 0.76639 0.62221 0.0
C2591 C 0.10511 0.7709 0.62314 0.0
C2592 C 0.09228 0.76748 0.61189 0.0
C2593 C 0.09299 0.7595 0.60004 0.0
C2594 C 0.10155 0.80106 0.64601 0.0
C2595 C 0.10618 0.79648 0.65991 0.0
C2596 C 0.10064 0.79249 0.63409 0.0
C2597 C 0.10448 0.77926 0.63581 0.0
C2598 C 0.10848 0.77439 0.64972 0.0
C2599 C 0.10922 0.78285 0.66163 0.0
H2600 H 0.44033 0.86416 0.79149 0.0
H2601 H 0.47145 0.90827 0.80578 0.0
H2602 H 0.41641 0.86865 0.79882 0.0
H2603 H 0.44759 0.91263 0.81332 0.0
H2604 H 0.38584 0.87365 0.83416 0.0
H2605 H 0.40778 0.87032 0.82231 0.0
H2606 H 0.42084 0.91588 0.80594 0.0
H2607 H 0.399 0.91932 0.81819 0.0
C2608 C 0.44205 0.87488 0.79603 0.0
C2609 C 0.45785 0.88578 0.7982 0.0
C2610 C 0.42835 0.87742 0.80031 0.0
C2611 C 0.43013 0.89093 0.80682 0.0
C2612 C 0.44577 0.90214 0.80826 0.0
C2613 C 0.45948 0.89959 0.80401 0.0
C2614 C 0.3934 0.88297 0.82804 0.0
C2615 C 0.39082 0.8968 0.82724 0.0
C2616 C 0.40585 0.881 0.82109 0.0
C2617 C 0.41606 0.89283 0.81315 0.0
C2618 C 0.41325 0.90659 0.81206 0.0
C2619 C 0.40069 0.90853 0.81898 0.0
H2620 H 0.34883 0.26992 0.09506 0.0
H2621 H 0.38952 0.26516 0.0757 0.0
H2622 H 0.35058 0.25098 0.11307 0.0
H2623 H 0.39138 0.24619 0.09399 0.0
H2624 H 0.37625 0.20174 0.12198 0.0
H2625 H 0.37604 0.22036 0.10285 0.0
H2626 H 0.37005 0.24958 0.13373 0.0
H2627 H 0.3703 0.23112 0.15273 0.0
C2628 C 0.35814 0.26481 0.09461 0.0
C2629 C 0.36911 0.26914 0.08398 0.0
C2630 C 0.35921 0.25401 0.10501 0.0
C2631 C 0.37127 0.24723 0.10509 0.0
C2632 C 0.38193 0.25119 0.0942 0.0
C2633 C 0.38089 0.26207 0.08375 0.0
C2634 C 0.37513 0.21224 0.12469 0.0
C2635 C 0.37306 0.21487 0.13884 0.0
C2636 C 0.37499 0.22289 0.11373 0.0
C2637 C 0.37276 0.23634 0.11673 0.0
C2638 C 0.37137 0.23917 0.13099 0.0
C2639 C 0.37153 0.22859 0.14189 0.0
H2640 H 0.98438 0.91798 0.16298 0.0
H2641 H 0.99595 0.87981 0.18184 0.0
H2642 H 0.00722 0.92363 0.14832 0.0
H2643 H 0.01857 0.88527 0.1669 0.0
H2644 H 0.06929 0.91095 0.15094 0.0
H2645 H 0.04559 0.90367 0.1648 0.0
H2646 H 0.01621 0.91468 0.12837 0.0
H2647 H 0.03997 0.92207 0.11456 0.0
C2648 C 0.99171 0.91071 0.16392 0.0
C2649 C 0.98836 0.89848 0.17363 0.0
C2650 C 0.00475 0.9139 0.15543 0.0
C2651 C 0.01476 0.90491 0.15642 0.0
C2652 C 0.01127 0.89255 0.16601 0.0
C2653 C 0.99823 0.88937 0.17452 0.0
C2654 C 0.05771 0.91162 0.14583 0.0
C2655 C 0.05653 0.91715 0.13166 0.0
C2656 C 0.04411 0.90744 0.15378 0.0
C2657 C 0.02899 0.90865 0.14773 0.0
C2658 C 0.02774 0.91387 0.13345 0.0
C2659 C 0.04134 0.91808 0.12552 0.0
H2660 H 0.3289 0.76252 0.46482 0.0
H2661 H 0.37813 0.79109 0.4799 0.0
H2662 H 0.32244 0.78443 0.4551 0.0
H2663 H 0.37155 0.81297 0.47049 0.0
H2664 H 0.36152 0.84482 0.43524 0.0
H2665 H 0.367 0.82337 0.447 0.0
H2666 H 0.31819 0.80749 0.46115 0.0
H2667 H 0.31248 0.82886 0.44883 0.0
C2668 C 0.33828 0.77348 0.46619 0.0
C2669 C 0.35408 0.77504 0.47301 0.0
C2670 C 0.33454 0.78606 0.4607 0.0
C2671 C 0.34651 0.80046 0.46193 0.0
C2672 C 0.36214 0.80202 0.46914 0.0
C2673 C 0.36589 0.78947 0.47459 0.0
C2674 C 0.35189 0.83671 0.44077 0.0
C2675 C 0.33649 0.83846 0.44096 0.0
C2676 C 0.35512 0.8245 0.44769 0.0
C2677 C 0.34306 0.81371 0.45506 0.0
C2678 C 0.3277 0.81553 0.45545 0.0
C2679 C 0.32447 0.82783 0.44852 0.0
H2680 H 0.50773 0.09276 0.69405 0.0
H2681 H 0.49791 0.12966 0.71122 0.0
H2682 H 0.48265 0.08747 0.6776 0.0
H2683 H 0.47299 0.12459 0.69448 0.0
H2684 H 0.42149 0.10234 0.67059 0.0
H2685 H 0.44551 0.10693 0.68836 0.0
H2686 H 0.47321 0.09876 0.6563 0.0
H2687 H 0.44918 0.09403 0.63863 0.0
C2688 C 0.50019 0.09972 0.69435 0.0
C2689 C 0.50487 0.11168 0.7039 0.0
C2690 C 0.48587 0.09675 0.68484 0.0
C2691 C 0.47591 0.10572 0.68458 0.0
C2692 C 0.48031 0.1174 0.69445 0.0
C2693 C 0.49463 0.12033 0.70403 0.0
C2694 C 0.43277 0.10166 0.66732 0.0
C2695 C 0.43343 0.09778 0.65322 0.0
C2696 C 0.44653 0.10428 0.67751 0.0
C2697 C 0.46126 0.1031 0.67379 0.0
C2698 C 0.46196 0.09943 0.65962 0.0
C2699 C 0.44821 0.09677 0.64947 0.0
H2700 H 0.07829 0.18769 0.98406 0.0
H2701 H 0.05776 0.18657 0.9397 0.0
H2702 H 0.09611 0.17426 0.9778 0.0
H2703 H 0.07573 0.17351 0.9335 0.0
H2704 H 0.12252 0.16584 0.92519 0.0
H2705 H 0.10824 0.18086 0.93442 0.0
H2706 H 0.09013 0.14687 0.96676 0.0
H2707 H 0.10393 0.13145 0.95721 0.0
C2708 C 0.07763 0.18464 0.97299 0.0
C2709 C 0.06662 0.18815 0.96236 0.0
C2710 C 0.08779 0.17695 0.96945 0.0
C2711 C 0.08734 0.173 0.95517 0.0
C2712 C 0.07642 0.1766 0.94456 0.0
C2713 C 0.06607 0.18398 0.94813 0.0
C2714 C 0.11559 0.16157 0.93432 0.0
C2715 C 0.11409 0.1473 0.94027 0.0
C2716 C 0.10748 0.17021 0.93962 0.0
C2717 C 0.09795 0.1649 0.95115 0.0
C2718 C 0.09745 0.15119 0.95786 0.0
C2719 C 0.1054 0.14241 0.95242 0.0
H2720 H 0.34214 0.05669 0.14142 0.0
H2721 H 0.37909 0.07114 0.11152 0.0
H2722 H 0.3528 0.08141 0.15205 0.0
H2723 H 0.38937 0.09603 0.12176 0.0
H2724 H 0.41341 0.13545 0.15153 0.0
H2725 H 0.40379 0.11019 0.1422 0.0
H2726 H 0.35352 0.1063 0.14679 0.0
H2727 H 0.36324 0.13114 0.15699 0.0
C2728 C 0.35253 0.06516 0.1371 0.0
C2729 C 0.35976 0.06196 0.12562 0.0
C2730 C 0.35857 0.07939 0.14312 0.0
C2731 C 0.37188 0.0908 0.13771 0.0
C2732 C 0.37925 0.0875 0.12635 0.0
C2733 C 0.3733 0.07322 0.12042 0.0
C2734 C 0.40032 0.12914 0.15072 0.0
C2735 C 0.38912 0.13537 0.15504 0.0
C2736 C 0.39477 0.1147 0.14518 0.0
C2737 C 0.37786 0.10615 0.14372 0.0
C2738 C 0.36665 0.11243 0.14795 0.0
C2739 C 0.37222 0.12682 0.15359 0.0
H2740 H 0.78351 0.46206 0.92812 0.0
H2741 H 0.78362 0.44673 0.88564 0.0
H2742 H 0.79958 0.44663 0.9382 0.0
H2743 H 0.79971 0.43118 0.89584 0.0
H2744 H 0.81656 0.39537 0.92425 0.0
H2745 H 0.79834 0.4087 0.91337 0.0
H2746 H 0.82914 0.44871 0.93574 0.0
H2747 H 0.84758 0.43574 0.94616 0.0
C2748 C 0.78678 0.45526 0.92094 0.0
C2749 C 0.78237 0.45571 0.90605 0.0
C2750 C 0.79606 0.44648 0.92672 0.0
C2751 C 0.80102 0.43781 0.91778 0.0
C2752 C 0.79601 0.43771 0.90298 0.0
C2753 C 0.78685 0.44665 0.89715 0.0
C2754 C 0.81957 0.40706 0.9267 0.0
C2755 C 0.83348 0.4144 0.93625 0.0
C2756 C 0.80909 0.41466 0.92052 0.0
C2757 C 0.8122 0.42967 0.92388 0.0
C2758 C 0.82622 0.43704 0.9332 0.0
C2759 C 0.83676 0.42956 0.93921 0.0
H2760 H 0.76206 0.57509 0.12209 0.0
H2761 H 0.77071 0.53348 0.13313 0.0
H2762 H 0.78954 0.58586 0.11439 0.0
H2763 H 0.79825 0.54426 0.12511 0.0
H2764 H 0.85265 0.57558 0.12543 0.0
H2765 H 0.82483 0.56349 0.13239 0.0
H2766 H 0.80538 0.58374 0.09544 0.0
H2767 H 0.83321 0.59586 0.08852 0.0
C2768 C 0.76979 0.56819 0.12281 0.0
C2769 C 0.76418 0.55341 0.12825 0.0
C2770 C 0.78553 0.57436 0.11829 0.0
C2771 C 0.79606 0.56591 0.11908 0.0
C2772 C 0.79047 0.55111 0.12449 0.0
C2773 C 0.77467 0.54491 0.12902 0.0
C2774 C 0.84241 0.57731 0.11871 0.0
C2775 C 0.84512 0.58672 0.10646 0.0
C2776 C 0.82647 0.57037 0.12269 0.0
C2777 C 0.8129 0.57269 0.1145 0.0
C2778 C 0.8156 0.58192 0.10212 0.0
C2779 C 0.83154 0.58888 0.09815 0.0
H2780 H 0.72811 0.55318 0.43265 0.0
H2781 H 0.71913 0.57644 0.39335 0.0
H2782 H 0.71787 0.5687 0.44602 0.0
H2783 H 0.70934 0.5923 0.40678 0.0
H2784 H 0.67106 0.6011 0.43206 0.0
H2785 H 0.68531 0.58931 0.41839 0.0
H2786 H 0.72197 0.59298 0.45471 0.0
H2787 H 0.70748 0.60457 0.46846 0.0
C2788 C 0.72426 0.56181 0.42689 0.0
C2789 C 0.72429 0.56345 0.4119 0.0
C2790 C 0.71844 0.57078 0.43458 0.0
C2791 C 0.71261 0.58169 0.42748 0.0
C2792 C 0.71341 0.58381 0.41257 0.0
C2793 C 0.71914 0.57478 0.40487 0.0
C2794 C 0.68232 0.59963 0.43704 0.0
C2795 C 0.68808 0.60369 0.45137 0.0
C2796 C 0.69054 0.59289 0.42919 0.0
C2797 C 0.70479 0.59011 0.43545 0.0
C2798 C 0.71087 0.59468 0.44963 0.0
C2799 C 0.7026 0.60135 0.4575 0.0
H2800 H 0.24209 0.94697 0.1492 0.0
H2801 H 0.23698 0.95119 0.10289 0.0
H2802 H 0.21209 0.93706 0.14893 0.0
H2803 H 0.20706 0.94121 0.10265 0.0
H2804 H 0.15439 0.93697 0.10814 0.0
H2805 H 0.1844 0.94857 0.11016 0.0
H2806 H 0.18888 0.91411 0.14074 0.0
H2807 H 0.15886 0.90268 0.13891 0.0
C2808 C 0.23459 0.94577 0.13897 0.0
C2809 C 0.24193 0.94986 0.12606 0.0
C2810 C 0.21741 0.94005 0.13882 0.0
C2811 C 0.20723 0.93844 0.12578 0.0
C2812 C 0.21458 0.94254 0.11289 0.0
C2813 C 0.23173 0.94814 0.11302 0.0
C2814 C 0.16178 0.93205 0.11549 0.0
C2815 C 0.1543 0.91889 0.12333 0.0
C2816 C 0.17896 0.93859 0.11653 0.0
C2817 C 0.189 0.93217 0.12551 0.0
C2818 C 0.18148 0.91935 0.13378 0.0
C2819 C 0.16431 0.91275 0.13266 0.0
H2820 H 0.14296 0.95492 0.67421 0.0
H2821 H 0.14351 0.949 0.7203 0.0
H2822 H 0.12622 0.92844 0.67123 0.0
H2823 H 0.12699 0.92256 0.71726 0.0
H2824 H 0.12019 0.87397 0.7046 0.0
H2825 H 0.13438 0.90092 0.70719 0.0
H2826 H 0.09701 0.90949 0.67696 0.0
H2827 H 0.08264 0.88238 0.67447 0.0
C2828 C 0.13938 0.94801 0.68368 0.0
C2829 C 0.14461 0.95401 0.69749 0.0
C2830 C 0.12976 0.9329 0.68196 0.0
C2831 C 0.12545 0.9235 0.69402 0.0
C2832 C 0.13029 0.92958 0.7078 0.0
C2833 C 0.13967 0.94471 0.70952 0.0
C2834 C 0.11507 0.88162 0.69845 0.0
C2835 C 0.1004 0.87616 0.68928 0.0
C2836 C 0.12309 0.897 0.70003 0.0
C2837 C 0.11672 0.90722 0.69232 0.0
C2838 C 0.10216 0.9018 0.68299 0.0
C2839 C 0.09395 0.88636 0.6816 0.0
H2840 H 0.80068 0.48419 0.3994 0.0
H2841 H 0.78868 0.5055 0.3598 0.0
H2842 H 0.81868 0.475 0.38726 0.0
H2843 H 0.80675 0.49645 0.34776 0.0
H2844 H 0.82285 0.46214 0.32724 0.0
H2845 H 0.80622 0.47194 0.34023 0.0
H2846 H 0.84478 0.48347 0.3755 0.0
H2847 H 0.86164 0.47379 0.36237 0.0
C2848 C 0.80198 0.48702 0.38814 0.0
C2849 C 0.79316 0.49552 0.38055 0.0
C2850 C 0.81236 0.4818 0.38121 0.0
C2851 C 0.81405 0.48489 0.36652 0.0
C2852 C 0.80551 0.49367 0.35903 0.0
C2853 C 0.79523 0.49894 0.36596 0.0
C2854 C 0.8279 0.46689 0.3377 0.0
C2855 C 0.84369 0.46731 0.34367 0.0
C2856 C 0.81834 0.47251 0.34516 0.0
C2857 C 0.82424 0.47864 0.35884 0.0
C2858 C 0.83985 0.47875 0.36501 0.0
C2859 C 0.84949 0.47318 0.35749 0.0
H2860 H 0.72877 0.56239 0.90287 0.0
H2861 H 0.6973 0.52294 0.8799 0.0
H2862 H 0.70935 0.57515 0.89493 0.0
H2863 H 0.67747 0.5356 0.87229 0.0
H2864 H 0.66132 0.57104 0.84457 0.0
H2865 H 0.67614 0.55507 0.85565 0.0
H2866 H 0.68305 0.57743 0.89597 0.0
H2867 H 0.66888 0.59398 0.88459 0.0
C2868 C 0.71754 0.55632 0.89632 0.0
C2869 C 0.7147 0.54168 0.89189 0.0
C2870 C 0.70629 0.56363 0.89185 0.0
C2871 C 0.69182 0.55647 0.88289 0.0
C2872 C 0.68861 0.54156 0.87899 0.0
C2873 C 0.69994 0.53426 0.88341 0.0
C2874 C 0.66596 0.57253 0.85582 0.0
C2875 C 0.66418 0.58398 0.86361 0.0
C2876 C 0.67429 0.56321 0.86225 0.0
C2877 C 0.68097 0.56501 0.87671 0.0
C2878 C 0.67833 0.57589 0.88475 0.0
C2879 C 0.67003 0.58528 0.87827 0.0
H2880 H 0.89367 0.66448 0.99919 0.0
H2881 H 0.94509 0.69016 0.99611 0.0
H2882 H 0.89337 0.65014 0.9784 0.0
H2883 H 0.94468 0.67595 0.97512 0.0
H2884 H 0.89329 0.63932 0.93185 0.0
H2885 H 0.89472 0.65413 0.95263 0.0
H2886 H 0.94223 0.65078 0.96803 0.0
H2887 H 0.9408 0.63595 0.94717 0.0
C2888 C 0.90492 0.66707 0.99408 0.0
C2889 C 0.91939 0.6785 0.99929 0.0
C2890 C 0.90471 0.65892 0.9821 0.0
C2891 C 0.91896 0.66198 0.97503 0.0
C2892 C 0.93353 0.67324 0.98038 0.0
C2893 C 0.93374 0.68142 0.99238 0.0
C2894 C 0.90402 0.64171 0.93969 0.0
C2895 C 0.91688 0.63638 0.93792 0.0
C2896 C 0.90483 0.65017 0.95161 0.0
C2897 C 0.91852 0.65351 0.96206 0.0
C2898 C 0.93158 0.64851 0.96011 0.0
C2899 C 0.93077 0.64003 0.94816 0.0
H2900 H 0.11499 0.17574 0.73937 0.0
H2901 H 0.16552 0.19624 0.75751 0.0
H2902 H 0.12459 0.16886 0.71824 0.0
H2903 H 0.17507 0.18934 0.73636 0.0
H2904 H 0.18161 0.15436 0.70692 0.0
H2905 H 0.17327 0.16459 0.7268 0.0
H2906 H 0.14069 0.18036 0.697 0.0
H2907 H 0.14904 0.17 0.67704 0.0
C2908 C 0.12814 0.17887 0.7388 0.0
C2909 C 0.13949 0.18645 0.75015 0.0
C2910 C 0.13363 0.17502 0.72666 0.0
C2911 C 0.15057 0.17854 0.72569 0.0
C2912 C 0.16193 0.18639 0.73689 0.0
C2913 C 0.15645 0.19037 0.74897 0.0
C2914 C 0.17273 0.16008 0.70463 0.0
C2915 C 0.16588 0.16133 0.69049 0.0
C2916 C 0.16806 0.16603 0.71598 0.0
C2917 C 0.15632 0.17325 0.71344 0.0
C2918 C 0.14969 0.17476 0.69925 0.0
C2919 C 0.15453 0.16894 0.68785 0.0
H2920 H 0.62892 0.33615 0.49231 0.0
H2921 H 0.5768 0.32952 0.48857 0.0
H2922 H 0.62941 0.34218 0.46673 0.0
H2923 H 0.57729 0.33538 0.46291 0.0
H2924 H 0.58667 0.35711 0.41865 0.0
H2925 H 0.58815 0.35524 0.44485 0.0
H2926 H 0.61823 0.3273 0.44495 0.0
H2927 H 0.61711 0.3295 0.41885 0.0
C2928 C 0.61759 0.33611 0.48607 0.0
C2929 C 0.60278 0.33222 0.49246 0.0
C2930 C 0.61787 0.33949 0.47139 0.0
C2931 C 0.60336 0.3391 0.46278 0.0
C2932 C 0.5887 0.33587 0.46928 0.0
C2933 C 0.58841 0.33245 0.48397 0.0
C2934 C 0.59379 0.35076 0.42431 0.0
C2935 C 0.60175 0.34342 0.4167 0.0
C2936 C 0.59452 0.34958 0.43928 0.0
C2937 C 0.6033 0.34112 0.44696 0.0
C2938 C 0.61152 0.33404 0.43936 0.0
C2939 C 0.61073 0.33516 0.4244 0.0
H2940 H 0.375 0.85378 0.26335 0.0
H2941 H 0.42235 0.88623 0.25551 0.0
H2942 H 0.36441 0.85677 0.23842 0.0
H2943 H 0.4118 0.88888 0.23044 0.0
H2944 H 0.38796 0.87104 0.18325 0.0
H2945 H 0.39949 0.86909 0.2082 0.0
H2946 H 0.36049 0.88086 0.22324 0.0
H2947 H 0.34922 0.88318 0.19833 0.0
C2948 C 0.38316 0.86148 0.25628 0.0
C2949 C 0.39949 0.86979 0.26136 0.0
C2950 C 0.37708 0.86322 0.24207 0.0
C2951 C 0.38732 0.87305 0.23259 0.0
C2952 C 0.40371 0.8812 0.23757 0.0
C2953 C 0.4097 0.87972 0.25189 0.0
C2954 C 0.38197 0.8733 0.19192 0.0
C2955 C 0.36777 0.8773 0.18896 0.0
C2956 C 0.38856 0.87224 0.20613 0.0
C2957 C 0.38082 0.8748 0.21756 0.0
C2958 C 0.36662 0.87878 0.21458 0.0
C2959 C 0.36025 0.88018 0.20039 0.0
H2960 H 0.84563 0.31913 0.51723 0.0
H2961 H 0.87125 0.36543 0.52848 0.0
H2962 H 0.83425 0.31434 0.54027 0.0
H2963 H 0.86016 0.36054 0.55168 0.0
H2964 H 0.8201 0.34997 0.58298 0.0
H2965 H 0.83378 0.35519 0.56099 0.0
H2966 H 0.84154 0.31259 0.56581 0.0
H2967 H 0.82774 0.30735 0.58769 0.0
C2968 C 0.84899 0.32825 0.52468 0.0
C2969 C 0.85928 0.34267 0.52098 0.0
C2970 C 0.84253 0.32549 0.53794 0.0
C2971 C 0.84625 0.33708 0.54781 0.0
C2972 C 0.85685 0.35143 0.54423 0.0
C2973 C 0.86329 0.35419 0.53096 0.0
C2974 C 0.8249 0.34181 0.57941 0.0
C2975 C 0.82273 0.32821 0.587 0.0
C2976 C 0.83277 0.3448 0.56683 0.0
C2977 C 0.83869 0.33427 0.5616 0.0
C2978 C 0.83685 0.32082 0.56939 0.0
C2979 C 0.82895 0.31782 0.58193 0.0
H2980 H 0.48141 0.16882 0.31412 0.0
H2981 H 0.47683 0.12351 0.30471 0.0
H2982 H 0.47277 0.16062 0.33785 0.0
H2983 H 0.46773 0.11521 0.32838 0.0
H2984 H 0.47271 0.1104 0.37773 0.0
H2985 H 0.47917 0.11744 0.35316 0.0
H2986 H 0.44977 0.14623 0.35048 0.0
H2987 H 0.44402 0.13979 0.37526 0.0
C2988 C 0.47836 0.15706 0.31704 0.0
C2989 C 0.47989 0.14684 0.30753 0.0
C2990 C 0.4733 0.15234 0.33065 0.0
C2991 C 0.46957 0.13725 0.33506 0.0
C2992 C 0.47074 0.12695 0.32541 0.0
C2993 C 0.47586 0.1317 0.31181 0.0
C2994 C 0.4677 0.11829 0.37192 0.0
C2995 C 0.45791 0.12457 0.37852 0.0
C2996 C 0.47123 0.12219 0.35776 0.0
C2997 C 0.46502 0.13243 0.34983 0.0
C2998 C 0.45493 0.13845 0.35632 0.0
C2999 C 0.45145 0.1346 0.37049 0.0
H3000 H 0.55915 0.62276 0.03808 0.0
H3001 H 0.59849 0.66444 0.04858 0.0
H3002 H 0.56044 0.61487 0.06326 0.0
H3003 H 0.59949 0.65672 0.0738 0.0
H3004 H 0.61 0.63019 0.11377 0.0
H3005 H 0.60793 0.63892 0.08898 0.0
H3006 H 0.55477 0.62007 0.08676 0.0
H3007 H 0.5569 0.61074 0.11149 0.0
C3008 C 0.56802 0.63027 0.04577 0.0
C3009 C 0.57879 0.64419 0.04131 0.0
C3010 C 0.56866 0.6258 0.06023 0.0
C3011 C 0.58006 0.63516 0.07056 0.0
C3012 C 0.59072 0.64914 0.0661 0.0
C3013 C 0.59011 0.65359 0.05164 0.0
C3014 C 0.59786 0.62783 0.10798 0.0
C3015 C 0.58362 0.61964 0.11456 0.0
C3016 C 0.59667 0.633 0.0938 0.0
C3017 C 0.58118 0.63017 0.08585 0.0
C3018 C 0.5669 0.62227 0.09253 0.0
C3019 C 0.5681 0.61707 0.10674 0.0
H3020 H 0.00974 0.84691 0.8137 0.0
H3021 H 0.00231 0.8016 0.82917 0.0
H3022 H 0.03345 0.85618 0.83169 0.0
H3023 H 0.02603 0.81088 0.84707 0.0
H3024 H 0.05969 0.83426 0.88606 0.0
H3025 H 0.03491 0.82631 0.8691 0.0
H3026 H 0.0618 0.85454 0.83611 0.0
H3027 H 0.08671 0.86232 0.85297 0.0
C3028 C 0.0131 0.83894 0.82099 0.0
C3029 C 0.00416 0.82352 0.81999 0.0
C3030 C 0.02673 0.84425 0.83122 0.0
C3031 C 0.0316 0.83426 0.84076 0.0
C3032 C 0.02247 0.81887 0.83996 0.0
C3033 C 0.00893 0.81355 0.82965 0.0
C3034 C 0.06036 0.83872 0.87517 0.0
C3035 C 0.07524 0.84884 0.87085 0.0
C3036 C 0.04615 0.83418 0.86548 0.0
C3037 C 0.04644 0.83975 0.85127 0.0
C3038 C 0.06116 0.85019 0.84704 0.0
C3039 C 0.07542 0.85465 0.85671 0.0
H3040 H 0.94218 0.87672 0.71901 0.0
H3041 H 0.9297 0.84174 0.68782 0.0
H3042 H 0.92602 0.8893 0.70362 0.0
H3043 H 0.91389 0.85443 0.67239 0.0
H3044 H 0.87275 0.87117 0.65509 0.0
H3045 H 0.88836 0.8595 0.67208 0.0
H3046 H 0.92572 0.9028 0.68055 0.0
H3047 H 0.90993 0.9145 0.66359 0.0
C3048 C 0.93609 0.87177 0.70884 0.0
C3049 C 0.93716 0.85818 0.70467 0.0
C3050 C 0.92688 0.87901 0.7 0.0
C3051 C 0.91854 0.8728 0.68684 0.0
C3052 C 0.91988 0.85936 0.68259 0.0
C3053 C 0.92905 0.85214 0.6914 0.0
C3054 C 0.88426 0.8782 0.66064 0.0
C3055 C 0.89021 0.89372 0.65792 0.0
C3056 C 0.89324 0.87151 0.67032 0.0
C3057 C 0.90841 0.88018 0.67749 0.0
C3058 C 0.91404 0.89581 0.67524 0.0
C3059 C 0.905 0.90252 0.66556 0.0
H3060 H 0.86005 0.2654 0.45457 0.0
H3061 H 0.90822 0.29891 0.45216 0.0
H3062 H 0.87153 0.24576 0.45216 0.0
H3063 H 0.91962 0.27934 0.44903 0.0
H3064 H 0.93804 0.24053 0.4629 0.0
H3065 H 0.92693 0.26072 0.46236 0.0
H3066 H 0.88266 0.2335 0.43738 0.0
H3067 H 0.89329 0.21285 0.4389 0.0
C3068 C 0.87306 0.26858 0.45328 0.0
C3069 C 0.88325 0.2837 0.45368 0.0
C3070 C 0.87965 0.25731 0.45179 0.0
C3071 C 0.89657 0.26088 0.45044 0.0
C3072 C 0.90663 0.27609 0.45034 0.0
C3073 C 0.90007 0.28734 0.45206 0.0
C3074 C 0.92589 0.23879 0.45736 0.0
C3075 C 0.9165 0.22493 0.45113 0.0
C3076 C 0.91959 0.2505 0.45685 0.0
C3077 C 0.9038 0.24879 0.4499 0.0
C3078 C 0.89472 0.23517 0.44308 0.0
C3079 C 0.90095 0.22337 0.44375 0.0
H3080 H 0.59678 0.18153 0.2268 0.0
H3081 H 0.55268 0.1466 0.23842 0.0
H3082 H 0.60289 0.16367 0.21262 0.0
H3083 H 0.55871 0.12883 0.22404 0.0
H3084 H 0.61423 0.12394 0.19655 0.0
H3085 H 0.60926 0.13843 0.21529 0.0
H3086 H 0.55912 0.12891 0.19612 0.0
H3087 H 0.56422 0.11473 0.17732 0.0
C3088 C 0.58851 0.17 0.22647 0.0
C3089 C 0.57421 0.16547 0.23364 0.0
C3090 C 0.59206 0.15978 0.21844 0.0
C3091 C 0.58124 0.14491 0.21724 0.0
C3092 C 0.56721 0.14026 0.22477 0.0
C3093 C 0.56381 0.15041 0.23302 0.0
C3094 C 0.60209 0.12475 0.19657 0.0
C3095 C 0.58958 0.11829 0.18558 0.0
C3096 C 0.59928 0.13306 0.20719 0.0
C3097 C 0.58382 0.13476 0.20711 0.0
C3098 C 0.5711 0.12765 0.1965 0.0
C3099 C 0.57401 0.11961 0.18574 0.0
H3100 H 0.57547 0.72987 0.93868 0.0
H3101 H 0.62854 0.74316 0.94658 0.0
H3102 H 0.57771 0.75603 0.93496 0.0
H3103 H 0.63075 0.76939 0.94303 0.0
H3104 H 0.62927 0.81491 0.92574 0.0
H3105 H 0.62631 0.78838 0.92535 0.0
H3106 H 0.58531 0.77741 0.95092 0.0
H3107 H 0.58803 0.80376 0.95103 0.0
C3108 C 0.58763 0.73835 0.93951 0.0
C3109 C 0.60182 0.73442 0.94306 0.0
C3110 C 0.5889 0.75336 0.93744 0.0
C3111 C 0.60439 0.7648 0.93883 0.0
C3112 C 0.61864 0.76084 0.94178 0.0
C3113 C 0.61736 0.74581 0.94389 0.0
C3114 C 0.61948 0.80678 0.93108 0.0
C3115 C 0.60893 0.81141 0.93847 0.0
C3116 C 0.61788 0.79162 0.93097 0.0
C3117 C 0.6056 0.78079 0.93812 0.0
C3118 C 0.59479 0.78543 0.94518 0.0
C3119 C 0.59646 0.80055 0.94537 0.0
H3120 H 0.03078 0.15302 0.85822 0.0
H3121 H 0.01781 0.14203 0.81331 0.0
H3122 H 0.0016 0.1464 0.86143 0.0
H3123 H 0.98879 0.13578 0.81644 0.0
H3124 H 0.93727 0.1127 0.82884 0.0
H3125 H 0.96649 0.11747 0.82745 0.0
H3126 H 0.97891 0.15568 0.85482 0.0
H3127 H 0.94962 0.15077 0.85633 0.0
C3128 C 0.02172 0.14919 0.84904 0.0
C3129 C 0.02664 0.14807 0.8355 0.0
C3130 C 0.005 0.14547 0.85086 0.0
C3131 C 0.99283 0.14055 0.8392 0.0
C3132 C 0.99779 0.1393 0.82571 0.0
C3133 C 0.01446 0.14298 0.82389 0.0
C3134 C 0.94625 0.12213 0.83455 0.0
C3135 C 0.94114 0.13144 0.84259 0.0
C3136 C 0.963 0.12488 0.83374 0.0
C3137 C 0.97506 0.13704 0.84091 0.0
C3138 C 0.96996 0.14612 0.84928 0.0
C3139 C 0.95318 0.14333 0.85014 0.0
H3140 H 0.6121 0.21682 0.56344 0.0
H3141 H 0.65543 0.25447 0.57667 0.0
H3142 H 0.62398 0.19994 0.57729 0.0
H3143 H 0.66703 0.2377 0.59118 0.0
H3144 H 0.68814 0.2026 0.61068 0.0
H3145 H 0.6784 0.2181 0.59263 0.0
H3146 H 0.62819 0.19406 0.60159 0.0
H3147 H 0.63775 0.17815 0.6187 0.0
C3148 C 0.62417 0.22148 0.56934 0.0
C3149 C 0.63276 0.23697 0.56911 0.0
C3150 C 0.63097 0.21182 0.57735 0.0
C3151 C 0.64637 0.21745 0.58558 0.0
C3152 C 0.65523 0.23292 0.58489 0.0
C3153 C 0.64853 0.24256 0.57666 0.0
C3154 C 0.67502 0.20051 0.60858 0.0
C3155 C 0.66376 0.18928 0.61629 0.0
C3156 C 0.66944 0.20949 0.59835 0.0
C3157 C 0.65249 0.20739 0.59564 0.0
C3158 C 0.64129 0.19591 0.60316 0.0
C3159 C 0.64682 0.18692 0.61322 0.0
H3160 H 0.48747 0.85985 0.36039 0.0
H3161 H 0.48348 0.86267 0.31401 0.0
H3162 H 0.51271 0.85404 0.3606 0.0
H3163 H 0.50889 0.85703 0.31426 0.0
H3164 H 0.54647 0.83261 0.31994 0.0
H3165 H 0.52019 0.8366 0.32011 0.0
H3166 H 0.5412 0.86718 0.35521 0.0
H3167 H 0.56747 0.86334 0.35496 0.0
C3168 C 0.49196 0.85922 0.35023 0.0
C3169 C 0.48348 0.86178 0.33718 0.0
C3170 C 0.50648 0.85596 0.35037 0.0
C3171 C 0.51283 0.85512 0.33745 0.0
C3172 C 0.50422 0.85744 0.32438 0.0
C3173 C 0.48971 0.86076 0.32425 0.0
C3174 C 0.54549 0.84022 0.32767 0.0
C3175 C 0.5591 0.84766 0.33743 0.0
C3176 C 0.53043 0.8425 0.32776 0.0
C3177 C 0.52862 0.85223 0.33765 0.0
C3178 C 0.54212 0.85945 0.34758 0.0
C3179 C 0.55718 0.85721 0.34746 0.0
H3180 H 0.92565 0.80363 0.07691 0.0
H3181 H 0.88045 0.78307 0.04974 0.0
H3182 H 0.9171 0.82491 0.08027 0.0
H3183 H 0.87159 0.80415 0.05349 0.0
H3184 H 0.8729 0.85286 0.0471 0.0
H3185 H 0.87868 0.82972 0.04592 0.0
H3186 H 0.89858 0.83397 0.09055 0.0
H3187 H 0.89367 0.8576 0.09148 0.0
C3188 C 0.91374 0.80352 0.07186 0.0
C3189 C 0.9038 0.79171 0.06297 0.0
C3190 C 0.90878 0.81571 0.07385 0.0
C3191 C 0.89368 0.81633 0.06708 0.0
C3192 C 0.88343 0.8042 0.05865 0.0
C3193 C 0.88846 0.79205 0.05658 0.0
C3194 C 0.87859 0.84891 0.05665 0.0
C3195 C 0.88298 0.8572 0.06933 0.0
C3196 C 0.88168 0.83549 0.05604 0.0
C3197 C 0.88915 0.82996 0.06813 0.0
C3198 C 0.89303 0.838 0.08097 0.0
C3199 C 0.89002 0.85147 0.08155 0.0
H3200 H 0.69859 0.97293 0.9386 0.0
H3201 H 0.69185 0.98108 0.89286 0.0
H3202 H 0.68251 0.9464 0.9351 0.0
H3203 H 0.67575 0.95462 0.88943 0.0
H3204 H 0.6288 0.91297 0.89412 0.0
H3205 H 0.64764 0.93858 0.89678 0.0
H3206 H 0.68301 0.92297 0.92296 0.0
H3207 H 0.66436 0.89708 0.91988 0.0
C3208 C 0.69381 0.96904 0.9278 0.0
C3209 C 0.6964 0.97912 0.91602 0.0
C3210 C 0.68469 0.95385 0.9258 0.0
C3211 C 0.67783 0.9485 0.91201 0.0
C3212 C 0.68078 0.95849 0.9002 0.0
C3213 C 0.69005 0.97362 0.90217 0.0
C3214 C 0.64073 0.91488 0.90018 0.0
C3215 C 0.64509 0.90288 0.90667 0.0
C3216 C 0.65149 0.9296 0.90175 0.0
C3217 C 0.66681 0.93275 0.91001 0.0
C3218 C 0.67122 0.92084 0.91659 0.0
C3219 C 0.66051 0.90604 0.91486 0.0
H3220 H 0.17163 0.55599 0.09235 0.0
H3221 H 0.22265 0.56548 0.08573 0.0
H3222 H 0.17892 0.5802 0.10358 0.0
H3223 H 0.22989 0.58998 0.09634 0.0
H3224 H 0.24037 0.62902 0.1259 0.0
H3225 H 0.2331 0.60352 0.1174 0.0
H3226 H 0.18661 0.60572 0.09709 0.0
H3227 H 0.1937 0.63092 0.10606 0.0
C3228 C 0.18441 0.56327 0.09329 0.0
C3229 C 0.19655 0.55885 0.08811 0.0
C3230 C 0.1886 0.57722 0.09963 0.0
C3231 C 0.20499 0.58718 0.10076 0.0
C3232 C 0.21718 0.58258 0.09585 0.0
C3233 C 0.21302 0.56854 0.08968 0.0
C3234 C 0.2286 0.62399 0.11963 0.0
C3235 C 0.21758 0.63191 0.11666 0.0
C3236 C 0.22444 0.6094 0.11471 0.0
C3237 C 0.20924 0.60249 0.10654 0.0
C3238 C 0.19825 0.6105 0.1036 0.0
C3239 C 0.20233 0.62498 0.10867 0.0
H3240 H 0.2119 0.43729 0.90416 0.0
H3241 H 0.21432 0.40969 0.94204 0.0
H3242 H 0.18421 0.42017 0.89669 0.0
H3243 H 0.1866 0.39278 0.9347 0.0
H3244 H 0.14391 0.35751 0.90972 0.0
H3245 H 0.17182 0.3745 0.91635 0.0
H3246 H 0.15621 0.41234 0.90394 0.0
H3247 H 0.12822 0.3953 0.89731 0.0
C3248 C 0.20654 0.42758 0.91089 0.0
C3249 C 0.21533 0.42485 0.92369 0.0
C3250 C 0.19063 0.41782 0.90665 0.0
C3251 C 0.18319 0.40511 0.9151 0.0
C3252 C 0.19205 0.40236 0.92785 0.0
C3253 C 0.20792 0.41211 0.93209 0.0
C3254 C 0.14639 0.36946 0.90852 0.0
C3255 C 0.13382 0.37506 0.90307 0.0
C3256 C 0.1624 0.3792 0.91231 0.0
C3257 C 0.16623 0.39478 0.91072 0.0
C3258 C 0.1537 0.40039 0.90513 0.0
C3259 C 0.13767 0.39063 0.90134 0.0
H3260 H 0.30678 0.46668 0.57318 0.0
H3261 H 0.29663 0.46022 0.61758 0.0
H3262 H 0.32609 0.45304 0.57786 0.0
H3263 H 0.31581 0.44645 0.6222 0.0
H3264 H 0.36497 0.43734 0.62795 0.0
H3265 H 0.34575 0.45111 0.62335 0.0
H3266 H 0.32558 0.42728 0.58382 0.0
H3267 H 0.34463 0.41341 0.58846 0.0
C3268 C 0.30863 0.46232 0.58393 0.0
C3269 C 0.30016 0.46454 0.59501 0.0
C3270 C 0.31964 0.45444 0.58658 0.0
C3271 C 0.32248 0.44867 0.6004 0.0
C3272 C 0.31403 0.45091 0.61148 0.0
C3273 C 0.30296 0.45872 0.60881 0.0
C3274 C 0.35634 0.43495 0.61834 0.0
C3275 C 0.35637 0.42429 0.60856 0.0
C3276 C 0.34534 0.44284 0.6157 0.0
C3277 C 0.33417 0.4403 0.60321 0.0
C3278 C 0.33421 0.42966 0.59343 0.0
C3279 C 0.34515 0.42173 0.59609 0.0
H3280 H 0.78006 0.06852 0.92195 0.0
H3281 H 0.77293 0.04762 0.88081 0.0
H3282 H 0.80812 0.08363 0.91755 0.0
H3283 H 0.8011 0.06291 0.87639 0.0
H3284 H 0.85841 0.08643 0.88003 0.0
H3285 H 0.83146 0.06857 0.88509 0.0
H3286 H 0.81853 0.10469 0.90014 0.0
H3287 H 0.84506 0.12245 0.89487 0.0
C3288 C 0.78452 0.06701 0.91203 0.0
C3289 C 0.77418 0.05699 0.90166 0.0
C3290 C 0.80058 0.07573 0.90949 0.0
C3291 C 0.80671 0.0746 0.89654 0.0
C3292 C 0.79671 0.06399 0.88648 0.0
C3293 C 0.78057 0.05529 0.889 0.0
C3294 C 0.84974 0.09054 0.88431 0.0
C3295 C 0.85399 0.10585 0.88722 0.0
C3296 C 0.83436 0.08032 0.88724 0.0
C3297 C 0.82301 0.08521 0.89322 0.0
C3298 C 0.82717 0.10052 0.89588 0.0
C3299 C 0.84241 0.1107 0.89287 0.0
H3300 H 0.83246 0.06208 0.41564 0.0
H3301 H 0.83357 0.06825 0.4611 0.0
H3302 H 0.85366 0.08674 0.41377 0.0
H3303 H 0.85462 0.09309 0.45912 0.0
H3304 H 0.87555 0.14341 0.44121 0.0
H3305 H 0.85546 0.11852 0.44508 0.0
H3306 H 0.88467 0.09856 0.42461 0.0
H3307 H 0.90516 0.12322 0.42131 0.0
C3308 C 0.83721 0.06871 0.42522 0.0
C3309 C 0.83139 0.06324 0.43852 0.0
C3310 C 0.84937 0.08278 0.42416 0.0
C3311 C 0.85574 0.09175 0.43631 0.0
C3312 C 0.84984 0.08637 0.44959 0.0
C3313 C 0.83788 0.07216 0.45072 0.0
C3314 C 0.87789 0.13371 0.43779 0.0
C3315 C 0.89193 0.13539 0.43079 0.0
C3316 C 0.86634 0.11949 0.43996 0.0
C3317 C 0.86848 0.1067 0.43501 0.0
C3318 C 0.88263 0.10829 0.42833 0.0
C3319 C 0.8943 0.12245 0.42637 0.0
H3320 H 0.20041 0.52709 0.63589 0.0
H3321 H 0.2131 0.56828 0.61077 0.0
H3322 H 0.17769 0.53267 0.6442 0.0
H3323 H 0.19051 0.57404 0.61939 0.0
H3324 H 0.13685 0.56981 0.62537 0.0
H3325 H 0.16054 0.5656 0.61709 0.0
H3326 H 0.17246 0.54957 0.65956 0.0
H3327 H 0.14875 0.55364 0.66774 0.0
C3328 C 0.19844 0.53741 0.63222 0.0
C3329 C 0.20859 0.54724 0.62266 0.0
C3330 C 0.18545 0.54065 0.63706 0.0
C3331 C 0.18229 0.55384 0.63251 0.0
C3332 C 0.19248 0.56371 0.62298 0.0
C3333 C 0.20549 0.56045 0.61811 0.0
C3334 C 0.14465 0.56554 0.63295 0.0
C3335 C 0.14085 0.56193 0.64717 0.0
C3336 C 0.15823 0.56314 0.62822 0.0
C3337 C 0.16833 0.55713 0.63763 0.0
C3338 C 0.16474 0.55391 0.65194 0.0
C3339 C 0.15116 0.55625 0.65664 0.0
H3340 H 0.27265 0.476 0.08071 0.0
H3341 H 0.26093 0.47674 0.12414 0.0
H3342 H 0.29749 0.47063 0.08988 0.0
H3343 H 0.28562 0.47103 0.1333 0.0
H3344 H 0.34086 0.47873 0.14431 0.0
H3345 H 0.31531 0.48304 0.13547 0.0
H3346 H 0.30674 0.45126 0.10177 0.0
H3347 H 0.33267 0.44743 0.11024 0.0
C3348 C 0.2753 0.47491 0.09221 0.0
C3349 C 0.26483 0.47685 0.10169 0.0
C3350 C 0.28951 0.47173 0.09747 0.0
C3351 C 0.29357 0.4704 0.11233 0.0
C3352 C 0.28298 0.47218 0.1218 0.0
C3353 C 0.26878 0.47538 0.11655 0.0
C3354 C 0.33359 0.47274 0.13495 0.0
C3355 C 0.33886 0.4628 0.12794 0.0
C3356 C 0.31883 0.47507 0.12999 0.0
C3357 C 0.30897 0.4675 0.1179 0.0
C3358 C 0.31413 0.4574 0.11101 0.0
C3359 C 0.3289 0.45508 0.11597 0.0
H3360 H 0.62624 0.78749 0.55892 0.0
H3361 H 0.58276 0.79841 0.54348 0.0
H3362 H 0.62794 0.79965 0.58157 0.0
H3363 H 0.58434 0.81032 0.56616 0.0
H3364 H 0.60561 0.84715 0.59969 0.0
H3365 H 0.6026 0.83315 0.57797 0.0
H3366 H 0.61411 0.79803 0.60338 0.0
H3367 H 0.61763 0.8123 0.62512 0.0
C3368 C 0.61693 0.79231 0.56042 0.0
C3369 C 0.60444 0.79208 0.54934 0.0
C3370 C 0.61787 0.79923 0.57342 0.0
C3371 C 0.60636 0.80607 0.57561 0.0
C3372 C 0.59357 0.80539 0.56471 0.0
C3373 C 0.59261 0.79847 0.55174 0.0
C3374 C 0.60761 0.83649 0.60064 0.0
C3375 C 0.61193 0.83087 0.61412 0.0
C3376 C 0.60569 0.82838 0.58821 0.0
C3377 C 0.60805 0.81444 0.58895 0.0
C3378 C 0.61232 0.80878 0.60244 0.0
C3379 C 0.61419 0.81688 0.6149 0.0
H3380 H 0.35271 0.33761 0.78151 0.0
H3381 H 0.39431 0.37038 0.80471 0.0
H3382 H 0.33525 0.33835 0.79989 0.0
H3383 H 0.37682 0.37095 0.82319 0.0
H3384 H 0.34267 0.35127 0.8603 0.0
H3385 H 0.36086 0.35205 0.84205 0.0
H3386 H 0.32457 0.35801 0.80898 0.0
H3387 H 0.30665 0.35789 0.82714 0.0
C3388 C 0.35812 0.34497 0.79053 0.0
C3389 C 0.37488 0.35395 0.79165 0.0
C3390 C 0.34812 0.34543 0.801 0.0
C3391 C 0.35471 0.35471 0.81294 0.0
C3392 C 0.37147 0.36364 0.81413 0.0
C3393 C 0.38143 0.36336 0.80352 0.0
C3394 C 0.33865 0.35301 0.84918 0.0
C3395 C 0.32308 0.35441 0.84525 0.0
C3396 C 0.34906 0.35339 0.83873 0.0
C3397 C 0.34405 0.35499 0.82411 0.0
C3398 C 0.32863 0.35654 0.82016 0.0
C3399 C 0.31833 0.35639 0.8306 0.0
H3400 H 0.90981 0.20797 0.04542 0.0
H3401 H 0.86304 0.21343 0.03097 0.0
H3402 H 0.89896 0.19613 0.0676 0.0
H3403 H 0.85228 0.20174 0.05326 0.0
H3404 H 0.8335 0.16119 0.08423 0.0
H3405 H 0.84469 0.17598 0.06333 0.0
H3406 H 0.88894 0.20045 0.08994 0.0
H3407 H 0.87791 0.18537 0.1108 0.0
C3408 C 0.8973 0.20685 0.04706 0.0
C3409 C 0.88725 0.21153 0.03637 0.0
C3410 C 0.89111 0.20012 0.05981 0.0
C3411 C 0.87472 0.19789 0.06212 0.0
C3412 C 0.86488 0.2031 0.05168 0.0
C3413 C 0.87109 0.20989 0.03895 0.0
C3414 C 0.84564 0.16969 0.0856 0.0
C3415 C 0.85486 0.17207 0.09914 0.0
C3416 C 0.85196 0.17829 0.07367 0.0
C3417 C 0.86768 0.1894 0.075 0.0
C3418 C 0.87684 0.19189 0.08857 0.0
C3419 C 0.87047 0.18335 0.10052 0.0
H3420 H 0.05593 0.58319 0.27689 0.0
H3421 H 0.07635 0.63125 0.28154 0.0
H3422 H 0.0613 0.57989 0.30278 0.0
H3423 H 0.08167 0.6279 0.30744 0.0
H3424 H 0.05904 0.58061 0.35136 0.0
H3425 H 0.05212 0.58477 0.32581 0.0
H3426 H 0.10065 0.61776 0.32365 0.0
H3427 H 0.10749 0.61376 0.34925 0.0
C3428 C 0.06146 0.59305 0.28344 0.0
C3429 C 0.06575 0.60748 0.27716 0.0
C3430 C 0.06446 0.59115 0.29827 0.0
C3431 C 0.07193 0.60364 0.30711 0.0
C3432 C 0.07604 0.61807 0.30086 0.0
C3433 C 0.0729 0.61998 0.28605 0.0
C3434 C 0.06815 0.58886 0.34545 0.0
C3435 C 0.08381 0.59686 0.35228 0.0
C3436 C 0.06424 0.59115 0.33082 0.0
C3437 C 0.07585 0.60157 0.32275 0.0
C3438 C 0.09141 0.60975 0.32963 0.0
C3439 C 0.09537 0.60737 0.34423 0.0
H3440 H 0.58491 0.15979 0.00056 0.0
H3441 H 0.59524 0.12165 0.02099 0.0
H3442 H 0.57637 0.14657 0.97796 0.0
H3443 H 0.58634 0.10828 0.99835 0.0
H3444 H 0.58411 0.09491 0.95146 0.0
H3445 H 0.59409 0.10847 0.97396 0.0
H3446 H 0.55364 0.12556 0.96777 0.0
H3447 H 0.54406 0.11251 0.94513 0.0
C3448 C 0.58533 0.14857 0.00025 0.0
C3449 C 0.59071 0.14176 0.01262 0.0
C3450 C 0.58034 0.14095 0.98729 0.0
C3451 C 0.58057 0.12633 0.98637 0.0
C3452 C 0.58616 0.11958 0.99868 0.0
C3453 C 0.59117 0.12721 0.01167 0.0
C3454 C 0.57746 0.10168 0.95486 0.0
C3455 C 0.56328 0.10261 0.94651 0.0
C3456 C 0.58307 0.10932 0.96782 0.0
C3457 C 0.57467 0.11811 0.97266 0.0
C3458 C 0.56052 0.11903 0.96428 0.0
C3459 C 0.55491 0.1114 0.95138 0.0
H3460 H 0.05426 0.32464 0.23233 0.0
H3461 H 0.05013 0.36537 0.21226 0.0
H3462 H 0.07428 0.32488 0.21615 0.0
H3463 H 0.06952 0.36525 0.1955 0.0
H3464 H 0.11615 0.36843 0.17577 0.0
H3465 H 0.09719 0.36899 0.19285 0.0
H3466 H 0.07659 0.32059 0.19244 0.0
H3467 H 0.09607 0.32014 0.17597 0.0
C3468 C 0.05752 0.33358 0.22434 0.0
C3469 C 0.0506 0.34497 0.22355 0.0
C3470 C 0.06894 0.33368 0.21498 0.0
C3471 C 0.07351 0.34503 0.20439 0.0
C3472 C 0.06655 0.35645 0.20363 0.0
C3473 C 0.05532 0.35647 0.21318 0.0
C3474 C 0.10757 0.35795 0.17941 0.0
C3475 C 0.10764 0.34425 0.17467 0.0
C3476 C 0.09662 0.35824 0.18913 0.0
C3477 C 0.08532 0.34483 0.19412 0.0
C3478 C 0.08533 0.33114 0.18916 0.0
C3479 C 0.09644 0.33086 0.17965 0.0
H3480 H 0.87547 0.84037 0.4759 0.0
H3481 H 0.82344 0.81485 0.47477 0.0
H3482 H 0.87017 0.8535 0.45376 0.0
H3483 H 0.81813 0.82813 0.4528 0.0
H3484 H 0.84968 0.88732 0.42752 0.0
H3485 H 0.85706 0.8722 0.44721 0.0
H3486 H 0.82229 0.83212 0.42738 0.0
H3487 H 0.81452 0.84732 0.40791 0.0
C3488 C 0.86292 0.83747 0.47087 0.0
C3489 C 0.84986 0.82662 0.47715 0.0
C3490 C 0.85988 0.84505 0.45822 0.0
C3491 C 0.84372 0.84193 0.45155 0.0
C3492 C 0.83075 0.8307 0.45757 0.0
C3493 C 0.83378 0.82314 0.47022 0.0
C3494 C 0.84365 0.87528 0.42734 0.0
C3495 C 0.83143 0.86854 0.41621 0.0
C3496 C 0.84801 0.86659 0.43855 0.0
C3497 C 0.84021 0.85095 0.4389 0.0
C3498 C 0.82839 0.84415 0.42751 0.0
C3499 C 0.82407 0.85285 0.41627 0.0
H3500 H 0.3942 0.61532 0.75982 0.0
H3501 H 0.43837 0.6517 0.75075 0.0
H3502 H 0.37984 0.62093 0.73753 0.0
H3503 H 0.42405 0.65713 0.72829 0.0
H3504 H 0.38614 0.67531 0.70246 0.0
H3505 H 0.40227 0.66785 0.72252 0.0
H3506 H 0.37795 0.62141 0.71125 0.0
H3507 H 0.36136 0.62889 0.69137 0.0
C3508 C 0.40094 0.62436 0.75296 0.0
C3509 C 0.41738 0.63317 0.75715 0.0
C3510 C 0.39271 0.62752 0.74013 0.0
C3511 C 0.40075 0.63957 0.7312 0.0
C3512 C 0.41743 0.64793 0.73506 0.0
C3513 C 0.42567 0.64476 0.74789 0.0
C3514 C 0.38416 0.6635 0.7043 0.0
C3515 C 0.37235 0.65269 0.69541 0.0
C3516 C 0.39358 0.65923 0.71568 0.0
C3517 C 0.39143 0.64403 0.71847 0.0
C3518 C 0.37981 0.6332 0.70944 0.0
C3519 C 0.3704 0.63749 0.698 0.0
H3520 H 0.50908 0.62193 0.82031 0.0
H3521 H 0.53894 0.66749 0.81068 0.0
H3522 H 0.53384 0.61653 0.82981 0.0
H3523 H 0.56373 0.66198 0.81977 0.0
H3524 H 0.59944 0.65281 0.85618 0.0
H3525 H 0.57599 0.65772 0.84301 0.0
H3526 H 0.55933 0.61358 0.82482 0.0
H3527 H 0.58265 0.60845 0.83857 0.0
C3528 C 0.52095 0.63073 0.82002 0.0
C3529 C 0.52202 0.64519 0.81489 0.0
C3530 C 0.53517 0.6276 0.82537 0.0
C3531 C 0.5508 0.63885 0.82567 0.0
C3532 C 0.55188 0.65313 0.81996 0.0
C3533 C 0.53766 0.65628 0.81469 0.0
C3534 C 0.59078 0.64413 0.84937 0.0
C3535 C 0.59278 0.63016 0.84857 0.0
C3536 C 0.57742 0.64702 0.84166 0.0
C3537 C 0.56572 0.63604 0.83285 0.0
C3538 C 0.56801 0.62222 0.83164 0.0
C3539 C 0.58144 0.61933 0.83939 0.0
H3540 H 0.60311 0.26858 0.09763 0.0
H3541 H 0.65076 0.26325 0.10664 0.0
H3542 H 0.6115 0.28865 0.11514 0.0
H3543 H 0.65908 0.28323 0.12407 0.0
H3544 H 0.66278 0.30906 0.16425 0.0
H3545 H 0.65179 0.28801 0.14797 0.0
H3546 H 0.63222 0.31492 0.11747 0.0
H3547 H 0.64352 0.33613 0.13361 0.0
C3548 C 0.61534 0.27165 0.10337 0.0
C3549 C 0.62628 0.26433 0.10074 0.0
C3550 C 0.62015 0.28317 0.11334 0.0
C3551 C 0.63591 0.28746 0.121 0.0
C3552 C 0.64677 0.28004 0.11846 0.0
C3553 C 0.64204 0.26866 0.1084 0.0
C3554 C 0.65616 0.31052 0.15407 0.0
C3555 C 0.65421 0.32436 0.15019 0.0
C3556 C 0.64984 0.29844 0.14476 0.0
C3557 C 0.64129 0.29987 0.1314 0.0
C3558 C 0.63867 0.31346 0.12776 0.0
C3559 C 0.6451 0.3256 0.13703 0.0
H3560 H 0.96208 0.39228 0.29739 0.0
H3561 H 0.00112 0.42417 0.32391 0.0
H3562 H 0.94223 0.4025 0.30483 0.0
H3563 H 0.98119 0.43454 0.33123 0.0
H3564 H 0.93575 0.43073 0.35579 0.0
H3565 H 0.95825 0.4257 0.34627 0.0
H3566 H 0.93363 0.42461 0.30334 0.0
H3567 H 0.9109 0.4293 0.31296 0.0
C3568 C 0.96647 0.40157 0.30471 0.0
C3569 C 0.98318 0.40732 0.31014 0.0
C3570 C 0.95509 0.40753 0.30887 0.0
C3571 C 0.96012 0.41936 0.31861 0.0
C3572 C 0.9769 0.42535 0.3238 0.0
C3573 C 0.98832 0.41943 0.31958 0.0
C3574 C 0.93528 0.42964 0.3443 0.0
C3575 C 0.92149 0.43025 0.33513 0.0
C3576 C 0.94822 0.42686 0.33882 0.0
C3577 C 0.94765 0.42459 0.32406 0.0
C3578 C 0.93431 0.4261 0.31479 0.0
C3579 C 0.92139 0.42895 0.32027 0.0
H3580 H 0.89578 0.77255 0.55656 0.0
H3581 H 0.84693 0.76931 0.56543 0.0
H3582 H 0.89461 0.75134 0.57301 0.0
H3583 H 0.84567 0.74811 0.58154 0.0
H3584 H 0.85464 0.72256 0.62131 0.0
H3585 H 0.85852 0.7441 0.60503 0.0
H3586 H 0.88042 0.72415 0.57645 0.0
H3587 H 0.87666 0.70256 0.59293 0.0
C3588 C 0.88474 0.76723 0.56189 0.0
C3589 C 0.8715 0.7727 0.55976 0.0
C3590 C 0.88406 0.75507 0.57129 0.0
C3591 C 0.87015 0.74818 0.57876 0.0
C3592 C 0.85674 0.75338 0.57624 0.0
C3593 C 0.85742 0.76549 0.56689 0.0
C3594 C 0.86039 0.72282 0.61159 0.0
C3595 C 0.86517 0.7108 0.60831 0.0
C3596 C 0.86254 0.73512 0.60223 0.0
C3597 C 0.86948 0.73572 0.58929 0.0
C3598 C 0.87505 0.72405 0.58633 0.0
C3599 C 0.87293 0.7117 0.59577 0.0
H3600 H 0.46661 0.36262 0.66563 0.0
H3601 H 0.49493 0.39198 0.70001 0.0
H3602 H 0.49022 0.37146 0.65159 0.0
H3603 H 0.51856 0.4006 0.68608 0.0
H3604 H 0.55016 0.42518 0.65065 0.0
H3605 H 0.52664 0.41571 0.66463 0.0
H3606 H 0.51817 0.37075 0.65112 0.0
H3607 H 0.54146 0.38034 0.63669 0.0
C3608 C 0.47788 0.3709 0.67023 0.0
C3609 C 0.47885 0.37663 0.68393 0.0
C3610 C 0.49145 0.3759 0.66221 0.0
C3611 C 0.50627 0.38676 0.6677 0.0
C3612 C 0.50726 0.39238 0.68145 0.0
C3613 C 0.49373 0.38738 0.68947 0.0
C3614 C 0.54319 0.41329 0.65054 0.0
C3615 C 0.54764 0.40353 0.64248 0.0
C3616 C 0.52982 0.40783 0.6587 0.0
C3617 C 0.52054 0.39246 0.65903 0.0
C3618 C 0.52498 0.38267 0.65099 0.0
C3619 C 0.53842 0.38814 0.64284 0.0
H3620 H 0.87661 0.27123 0.97019 0.0
H3621 H 0.92809 0.29893 0.97368 0.0
H3622 H 0.869 0.29292 0.96176 0.0
H3623 H 0.92049 0.32068 0.96569 0.0
H3624 H 0.90224 0.35026 0.93269 0.0
H3625 H 0.91009 0.32969 0.94377 0.0
H3626 H 0.86789 0.31687 0.96812 0.0
H3627 H 0.85962 0.33724 0.95645 0.0
C3628 C 0.8863 0.28198 0.9693 0.0
C3629 C 0.90297 0.28332 0.97247 0.0
C3630 C 0.88193 0.29445 0.96458 0.0
C3631 C 0.89413 0.30856 0.96298 0.0
C3632 C 0.91078 0.30994 0.96655 0.0
C3633 C 0.91514 0.29747 0.97118 0.0
C3634 C 0.89461 0.34304 0.9404 0.0
C3635 C 0.88021 0.34528 0.94357 0.0
C3636 C 0.89922 0.33134 0.9469 0.0
C3637 C 0.88962 0.32158 0.95684 0.0
C3638 C 0.87545 0.32407 0.96037 0.0
C3639 C 0.87081 0.33583 0.95382 0.0
H3640 H 0.02247 0.61858 0.15971 0.0
H3641 H 0.99548 0.58474 0.18899 0.0
H3642 H 0.99766 0.61357 0.143 0.0
H3643 H 0.97048 0.57996 0.17237 0.0
H3644 H 0.93644 0.56231 0.13112 0.0
H3645 H 0.9602 0.56856 0.14916 0.0
H3646 H 0.97052 0.61562 0.13913 0.0
H3647 H 0.94715 0.60932 0.12061 0.0
C3648 C 0.01118 0.6102 0.16268 0.0
C3649 C 0.01099 0.60198 0.17565 0.0
C3650 C 0.99691 0.60739 0.15312 0.0
C3651 C 0.98209 0.59631 0.1563 0.0
C3652 C 0.98177 0.58841 0.16948 0.0
C3653 C 0.99607 0.59121 0.17905 0.0
C3654 C 0.94387 0.57399 0.13267 0.0
C3655 C 0.93997 0.5853 0.12433 0.0
C3656 C 0.95735 0.57758 0.14317 0.0
C3657 C 0.96726 0.59259 0.14562 0.0
C3658 C 0.96324 0.60394 0.13742 0.0
C3659 C 0.94975 0.60033 0.1269 0.0
H3660 H 0.58825 0.70043 0.49684 0.0
H3661 H 0.63683 0.73421 0.50011 0.0
H3662 H 0.59972 0.68233 0.48924 0.0
H3663 H 0.64826 0.71607 0.49248 0.0
H3664 H 0.65227 0.68657 0.45532 0.0
H3665 H 0.64443 0.7041 0.4684 0.0
H3666 H 0.61949 0.66812 0.49675 0.0
H3667 H 0.62744 0.65053 0.48359 0.0
C3668 C 0.60141 0.70393 0.49616 0.0
C3669 C 0.6116 0.7188 0.49895 0.0
C3670 C 0.60799 0.69353 0.4919 0.0
C3671 C 0.62487 0.69782 0.4902 0.0
C3672 C 0.63518 0.7125 0.49359 0.0
C3673 C 0.62863 0.72286 0.49801 0.0
C3674 C 0.64534 0.68248 0.4645 0.0
C3675 C 0.64038 0.66723 0.46843 0.0
C3676 C 0.64094 0.69251 0.47204 0.0
C3677 C 0.63131 0.68746 0.48357 0.0
C3678 C 0.62685 0.67228 0.48785 0.0
C3679 C 0.63147 0.66227 0.4804 0.0
H3680 H 0.88053 0.55477 0.65393 0.0
H3681 H 0.83146 0.54723 0.63283 0.0
H3682 H 0.88837 0.58115 0.64721 0.0
H3683 H 0.83947 0.57364 0.62568 0.0
H3684 H 0.85299 0.62355 0.63805 0.0
H3685 H 0.8449 0.59638 0.63819 0.0
H3686 H 0.89377 0.60015 0.62883 0.0
H3687 H 0.90192 0.62741 0.62902 0.0
C3688 C 0.87151 0.55868 0.64757 0.0
C3689 C 0.85532 0.54893 0.64407 0.0
C3690 C 0.87604 0.57383 0.64362 0.0
C3691 C 0.86451 0.57958 0.63598 0.0
C3692 C 0.84857 0.56964 0.63178 0.0
C3693 C 0.84401 0.55448 0.6358 0.0
C3694 C 0.86187 0.61857 0.63567 0.0
C3695 C 0.87812 0.62759 0.63363 0.0
C3696 C 0.85724 0.60297 0.63572 0.0
C3697 C 0.86873 0.59604 0.63366 0.0
C3698 C 0.88471 0.6051 0.63075 0.0
C3699 C 0.88937 0.62071 0.6308 0.0
H3700 H 0.25584 0.9668 0.41956 0.0
H3701 H 0.26241 0.95539 0.37729 0.0
H3702 H 0.26604 0.94732 0.43013 0.0
H3703 H 0.27222 0.93557 0.38784 0.0
H3704 H 0.27372 0.90427 0.44506 0.0
H3705 H 0.26022 0.92089 0.43279 0.0
H3706 H 0.29624 0.93334 0.40201 0.0
H3707 H 0.30953 0.91653 0.41416 0.0
C3708 C 0.25923 0.95998 0.41249 0.0
C3709 C 0.25837 0.96271 0.39758 0.0
C3710 C 0.265 0.94873 0.41855 0.0
C3711 C 0.27 0.93986 0.40985 0.0
C3712 C 0.26871 0.94232 0.39489 0.0
C3713 C 0.26298 0.95363 0.38882 0.0
C3714 C 0.27869 0.91051 0.43562 0.0
C3715 C 0.29276 0.90917 0.43063 0.0
C3716 C 0.27098 0.92007 0.42861 0.0
C3717 C 0.27722 0.92859 0.41648 0.0
C3718 C 0.29096 0.92683 0.4112 0.0
C3719 C 0.29861 0.9172 0.41818 0.0
H3720 H 0.25433 0.06384 0.64579 0.0
H3721 H 0.27552 0.07904 0.68859 0.0
H3722 H 0.28107 0.07617 0.63687 0.0
H3723 H 0.30221 0.09164 0.67959 0.0
H3724 H 0.35064 0.09623 0.66125 0.0
H3725 H 0.32379 0.08495 0.67035 0.0
H3726 H 0.30084 0.10083 0.63247 0.0
H3727 H 0.32757 0.11157 0.62312 0.0
C3728 C 0.26466 0.06992 0.65328 0.0
C3729 C 0.2628 0.07041 0.66791 0.0
C3730 C 0.27997 0.07706 0.64815 0.0
C3731 C 0.29378 0.08486 0.65753 0.0
C3732 C 0.29186 0.08554 0.67213 0.0
C3733 C 0.27654 0.07839 0.67726 0.0
C3734 C 0.33984 0.09723 0.65484 0.0
C3735 C 0.34123 0.10477 0.64146 0.0
C3736 C 0.32448 0.09092 0.66012 0.0
C3737 C 0.31017 0.092 0.65213 0.0
C3738 C 0.3116 0.09967 0.63882 0.0
C3739 C 0.32695 0.10598 0.63354 0.0
H3740 H 0.2103 0.03175 0.9331 0.0
H3741 H 0.20633 0.05152 0.89076 0.0
H3742 H 0.197 0.04758 0.94226 0.0
H3743 H 0.19288 0.06739 0.90003 0.0
H3744 H 0.17953 0.10093 0.92724 0.0
H3745 H 0.1963 0.08817 0.91779 0.0
H3746 H 0.16769 0.04667 0.93747 0.0
H3747 H 0.1508 0.05914 0.94652 0.0
C3748 C 0.20679 0.03961 0.92577 0.0
C3749 C 0.20919 0.04021 0.91115 0.0
C3750 C 0.1991 0.04864 0.93102 0.0
C3751 C 0.19367 0.05855 0.92181 0.0
C3752 C 0.19696 0.05986 0.90738 0.0
C3753 C 0.20461 0.05074 0.90208 0.0
C3754 C 0.17674 0.08906 0.92942 0.0
C3755 C 0.16394 0.08112 0.93782 0.0
C3756 C 0.18638 0.08178 0.92406 0.0
C3757 C 0.18348 0.06649 0.92711 0.0
C3758 C 0.1705 0.05855 0.93525 0.0
C3759 C 0.16083 0.06573 0.94047 0.0
H3760 H 0.73084 0.45097 0.63534 0.0
H3761 H 0.72834 0.43133 0.67811 0.0
H3762 H 0.70092 0.44079 0.63092 0.0
H3763 H 0.69827 0.42125 0.67369 0.0
H3764 H 0.64827 0.38977 0.65094 0.0
H3765 H 0.67763 0.40179 0.65838 0.0
H3766 H 0.67576 0.44333 0.63844 0.0
H3767 H 0.64648 0.43119 0.6307 0.0
C3768 C 0.72391 0.44455 0.64384 0.0
C3769 C 0.73199 0.44191 0.65706 0.0
C3770 C 0.70673 0.43882 0.64134 0.0
C3771 C 0.69722 0.43027 0.65198 0.0
C3772 C 0.70528 0.42772 0.66525 0.0
C3773 C 0.72249 0.43353 0.66779 0.0
C3774 C 0.65412 0.40151 0.64828 0.0
C3775 C 0.64512 0.40951 0.64015 0.0
C3776 C 0.67089 0.40842 0.65263 0.0
C3777 C 0.67904 0.42347 0.64888 0.0
C3778 C 0.66986 0.43166 0.64132 0.0
C3779 C 0.65306 0.42476 0.63703 0.0
H3780 H 0.70994 0.4915 0.18657 0.0
H3781 H 0.69462 0.49332 0.14116 0.0
H3782 H 0.69955 0.46419 0.18602 0.0
H3783 H 0.68425 0.46597 0.14065 0.0
H3784 H 0.64677 0.41929 0.15333 0.0
H3785 H 0.66063 0.44631 0.15111 0.0
H3786 H 0.70419 0.44226 0.17576 0.0
H3787 H 0.6902 0.41515 0.17806 0.0
C3788 C 0.70448 0.48608 0.17645 0.0
C3789 C 0.703 0.49457 0.16393 0.0
C3790 C 0.69865 0.47044 0.17612 0.0
C3791 C 0.69109 0.46296 0.16329 0.0
C3792 C 0.68992 0.47145 0.1507 0.0
C3793 C 0.6959 0.4871 0.151 0.0
C3794 C 0.65938 0.42417 0.1581 0.0
C3795 C 0.6674 0.41518 0.16592 0.0
C3796 C 0.66735 0.43961 0.15676 0.0
C3797 C 0.68346 0.44639 0.16332 0.0
C3798 C 0.69172 0.43732 0.1707 0.0
C3799 C 0.68379 0.42183 0.1719 0.0
H3800 H 0.28997 0.97405 0.89043 0.0
H3801 H 0.26552 0.98067 0.84904 0.0
H3802 H 0.3044 0.96045 0.87901 0.0
H3803 H 0.28 0.9672 0.83769 0.0
H3804 H 0.2907 0.92563 0.82623 0.0
H3805 H 0.27835 0.94065 0.83794 0.0
H3806 H 0.32538 0.96347 0.86163 0.0
H3807 H 0.33792 0.94856 0.84966 0.0
C3808 C 0.28781 0.97276 0.87889 0.0
C3809 C 0.27651 0.97837 0.87066 0.0
C3810 C 0.29613 0.96501 0.87235 0.0
C3811 C 0.29321 0.96262 0.85747 0.0
C3812 C 0.2823 0.96865 0.84921 0.0
C3813 C 0.27408 0.97645 0.85571 0.0
C3814 C 0.2985 0.93395 0.83381 0.0
C3815 C 0.31537 0.93598 0.83686 0.0
C3816 C 0.2914 0.94256 0.84053 0.0
C3817 C 0.30092 0.95337 0.85059 0.0
C3818 C 0.31771 0.95518 0.85396 0.0
C3819 C 0.32487 0.94661 0.84714 0.0
H3820 H 0.22481 0.07913 0.39414 0.0
H3821 H 0.19212 0.04442 0.36605 0.0
H3822 H 0.2095 0.09561 0.38553 0.0
H3823 H 0.17674 0.06106 0.35741 0.0
H3824 H 0.14632 0.0932 0.3534 0.0
H3825 H 0.15895 0.07545 0.36513 0.0
H3826 H 0.20731 0.10822 0.36152 0.0
H3827 H 0.19476 0.1258 0.34989 0.0
C3828 C 0.21424 0.07493 0.38624 0.0
C3829 C 0.20981 0.06049 0.38067 0.0
C3830 C 0.2055 0.08442 0.38128 0.0
C3831 C 0.19203 0.07968 0.3707 0.0
C3832 C 0.18704 0.06499 0.36562 0.0
C3833 C 0.19589 0.05549 0.37052 0.0
C3834 C 0.15964 0.0966 0.35529 0.0
C3835 C 0.16958 0.11083 0.35071 0.0
C3836 C 0.16685 0.08644 0.36189 0.0
C3837 C 0.18411 0.09046 0.36425 0.0
C3838 C 0.19398 0.10484 0.35998 0.0
C3839 C 0.18681 0.11487 0.35324 0.0
H3840 H 0.42042 0.18304 0.50626 0.0
H3841 H 0.36766 0.1629 0.49626 0.0
H3842 H 0.42474 0.16941 0.48665 0.0
H3843 H 0.37199 0.14916 0.4769 0.0
H3844 H 0.42377 0.12963 0.45929 0.0
H3845 H 0.42097 0.14382 0.47919 0.0
H3846 H 0.38211 0.15501 0.45332 0.0
H3847 H 0.3849 0.14087 0.43352 0.0
C3848 C 0.40975 0.17563 0.49996 0.0
C3849 C 0.39369 0.17412 0.50277 0.0
C3850 C 0.41223 0.16778 0.48877 0.0
C3851 C 0.39871 0.15831 0.48015 0.0
C3852 C 0.38267 0.15659 0.48317 0.0
C3853 C 0.38019 0.16439 0.49434 0.0
C3854 C 0.41479 0.13529 0.45782 0.0
C3855 C 0.40444 0.13401 0.4449 0.0
C3856 C 0.41317 0.1434 0.46921 0.0
C3857 C 0.40117 0.15038 0.46788 0.0
C3858 C 0.39121 0.14947 0.4548 0.0
C3859 C 0.39282 0.14139 0.44345 0.0
H3860 H 0.62981 0.66306 0.25961 0.0
H3861 H 0.58209 0.66135 0.27021 0.0
H3862 H 0.6168 0.64906 0.23789 0.0
H3863 H 0.56901 0.64698 0.2487 0.0
H3864 H 0.5542 0.6383 0.20064 0.0
H3865 H 0.56668 0.65088 0.22316 0.0
H3866 H 0.59926 0.62495 0.22902 0.0
H3867 H 0.58687 0.61251 0.20632 0.0
C3868 C 0.61652 0.65955 0.25739 0.0
C3869 C 0.607 0.66339 0.2666 0.0
C3870 C 0.60904 0.65144 0.24496 0.0
C3871 C 0.59185 0.64693 0.2415 0.0
C3872 C 0.58231 0.6505 0.2509 0.0
C3873 C 0.58979 0.65866 0.26329 0.0
C3874 C 0.5639 0.63517 0.20682 0.0
C3875 C 0.56954 0.62441 0.20171 0.0
C3876 C 0.57105 0.64236 0.21975 0.0
C3877 C 0.58397 0.63892 0.22794 0.0
C3878 C 0.5895 0.62803 0.22289 0.0
C3879 C 0.58239 0.62089 0.2099 0.0
H3880 H 0.06954 0.80085 0.01299 0.0
H3881 H 0.12154 0.82024 0.02711 0.0
H3882 H 0.0754 0.80679 0.98816 0.0
H3883 H 0.12735 0.82645 0.00225 0.0
H3884 H 0.13193 0.8152 0.9559 0.0
H3885 H 0.12695 0.81258 0.98113 0.0
H3886 H 0.08488 0.82706 0.97081 0.0
H3887 H 0.08948 0.82911 0.94551 0.0
C3888 C 0.0822 0.80656 0.01082 0.0
C3889 C 0.09508 0.80996 0.02203 0.0
C3890 C 0.08555 0.81005 0.99658 0.0
C3891 C 0.10186 0.81703 0.99321 0.0
C3892 C 0.11468 0.82087 0.00447 0.0
C3893 C 0.11133 0.81738 0.01872 0.0
C3894 C 0.12162 0.81781 0.95902 0.0
C3895 C 0.11105 0.82228 0.94868 0.0
C3896 C 0.11887 0.81648 0.9735 0.0
C3897 C 0.10549 0.81958 0.97799 0.0
C3898 C 0.09519 0.82443 0.96769 0.0
C3899 C 0.09794 0.82577 0.95321 0.0
H3900 H 0.86312 0.33123 0.74321 0.0
H3901 H 0.81109 0.3158 0.74849 0.0
H3902 H 0.85717 0.33873 0.71845 0.0
H3903 H 0.80516 0.32319 0.72368 0.0
H3904 H 0.80358 0.35316 0.68355 0.0
H3905 H 0.80959 0.3462 0.70852 0.0
H3906 H 0.84357 0.32644 0.69549 0.0
H3907 H 0.83785 0.33371 0.67058 0.0
C3908 C 0.85042 0.32945 0.7391 0.0
C3909 C 0.83757 0.3229 0.74781 0.0
C3910 C 0.84701 0.33367 0.72489 0.0
C3911 C 0.83069 0.33151 0.71911 0.0
C3912 C 0.81787 0.32512 0.72787 0.0
C3913 C 0.82126 0.32082 0.74206 0.0
C3914 C 0.8124 0.34741 0.68605 0.0
C3915 C 0.82025 0.34399 0.67512 0.0
C3916 C 0.81573 0.34331 0.70031 0.0
C3917 C 0.82706 0.33579 0.70396 0.0
C3918 C 0.8349 0.33236 0.69303 0.0
C3919 C 0.8315 0.33638 0.67875 0.0
H3920 H 0.37569 0.83831 0.03766 0.0
H3921 H 0.32785 0.84269 0.02624 0.0
H3922 H 0.37192 0.83827 0.06309 0.0
H3923 H 0.32421 0.84281 0.05159 0.0
H3924 H 0.3159 0.82526 0.09763 0.0
H3925 H 0.31999 0.82543 0.07233 0.0
H3926 H 0.37011 0.85548 0.0813 0.0
H3927 H 0.36612 0.85502 0.10674 0.0
C3928 C 0.36438 0.83926 0.04056 0.0
C3929 C 0.35206 0.84047 0.02991 0.0
C3930 C 0.36228 0.83934 0.05513 0.0
C3931 C 0.34777 0.84054 0.05935 0.0
C3932 C 0.33545 0.8417 0.04869 0.0
C3933 C 0.33758 0.8417 0.03416 0.0
C3934 C 0.32782 0.83185 0.09421 0.0
C3935 C 0.3407 0.84011 0.10419 0.0
C3936 C 0.33012 0.83205 0.0797 0.0
C3937 C 0.34538 0.84046 0.0748 0.0
C3938 C 0.35826 0.84877 0.08476 0.0
C3939 C 0.35592 0.84865 0.09929 0.0
H3940 H 0.95732 0.62216 0.78297 0.0
H3941 H 0.96144 0.66739 0.79218 0.0
H3942 H 0.95203 0.61461 0.80772 0.0
H3943 H 0.95656 0.65992 0.81698 0.0
H3944 H 0.93726 0.64044 0.85899 0.0
H3945 H 0.93698 0.64526 0.83313 0.0
H3946 H 0.9683 0.61885 0.83076 0.0
H3947 H 0.968 0.61354 0.85645 0.0
C3948 C 0.95698 0.63047 0.79024 0.0
C3949 C 0.95994 0.64541 0.78561 0.0
C3950 C 0.95404 0.62616 0.80446 0.0
C3951 C 0.95402 0.63668 0.81439 0.0
C3952 C 0.95632 0.65148 0.8096 0.0
C3953 C 0.95922 0.65579 0.79538 0.0
C3954 C 0.9438 0.63541 0.85289 0.0
C3955 C 0.95273 0.62667 0.8598 0.0
C3956 C 0.94379 0.63831 0.83809 0.0
C3957 C 0.9527 0.63252 0.82986 0.0
C3958 C 0.96117 0.62338 0.83672 0.0
C3959 C 0.96117 0.62048 0.85149 0.0
H3960 H 0.11965 0.18251 0.54119 0.0
H3961 H 0.12389 0.13945 0.53464 0.0
H3962 H 0.13697 0.18464 0.56406 0.0
H3963 H 0.14147 0.14176 0.5574 0.0
H3964 H 0.18814 0.1629 0.59049 0.0
H3965 H 0.17073 0.16028 0.56755 0.0
H3966 H 0.13354 0.16925 0.58859 0.0
H3967 H 0.15084 0.17165 0.61156 0.0
C3968 C 0.12437 0.17356 0.54459 0.0
C3969 C 0.12042 0.16081 0.53614 0.0
C3970 C 0.13419 0.17475 0.55769 0.0
C3971 C 0.14049 0.16334 0.56246 0.0
C3972 C 0.13679 0.15072 0.55391 0.0
C3973 C 0.12671 0.14939 0.54094 0.0
C3974 C 0.17622 0.16427 0.59018 0.0
C3975 C 0.17079 0.16746 0.60274 0.0
C3976 C 0.16627 0.16271 0.57711 0.0
C3977 C 0.15085 0.16461 0.57635 0.0
C3978 C 0.14543 0.16783 0.58891 0.0
C3979 C 0.15525 0.1691 0.60203 0.0
H3980 H 0.53075 0.39843 0.27279 0.0
H3981 H 0.51182 0.35164 0.28523 0.0
H3982 H 0.54864 0.4038 0.29536 0.0
H3983 H 0.52978 0.357 0.30769 0.0
H3984 H 0.55633 0.37265 0.35123 0.0
H3985 H 0.53559 0.37028 0.3307 0.0
H3986 H 0.57345 0.39757 0.3049 0.0
H3987 H 0.5942 0.3998 0.32533 0.0
C3988 C 0.53023 0.38933 0.28041 0.0
C3989 C 0.51994 0.37459 0.27718 0.0
C3990 C 0.54055 0.3924 0.2933 0.0
C3991 C 0.54069 0.38081 0.30325 0.0
C3992 C 0.52985 0.36619 0.3003 0.0
C3993 C 0.51961 0.36311 0.28739 0.0
C3994 C 0.56021 0.37819 0.34119 0.0
C3995 C 0.57695 0.38629 0.33988 0.0
C3996 C 0.54833 0.37685 0.32945 0.0
C3997 C 0.5529 0.38366 0.31617 0.0
C3998 C 0.56951 0.39234 0.31504 0.0
C3999 C 0.58141 0.39362 0.32676 0.0
H4000 H 0.46315 0.4104 0.21553 0.0
H4001 H 0.44309 0.36497 0.20024 0.0
H4002 H 0.44059 0.41625 0.20127 0.0
H4003 H 0.4207 0.37089 0.18604 0.0
H4004 H 0.40512 0.3958 0.14608 0.0
H4005 H 0.42352 0.3885 0.16402 0.0
H4006 H 0.4084 0.40938 0.1969 0.0
H4007 H 0.38921 0.41627 0.1789 0.0
C4008 C 0.45378 0.40159 0.20936 0.0
C4009 C 0.45506 0.38728 0.20883 0.0
C4010 C 0.44084 0.40494 0.20126 0.0
C4011 C 0.42906 0.39407 0.19244 0.0
C4012 C 0.42976 0.37953 0.19263 0.0
C4013 C 0.44258 0.37614 0.20079 0.0
C4014 C 0.40532 0.39856 0.15716 0.0
C4015 C 0.3954 0.40641 0.16104 0.0
C4016 C 0.41596 0.39441 0.16744 0.0
C4017 C 0.41721 0.3982 0.18187 0.0
C4018 C 0.40761 0.4063 0.18583 0.0
C4019 C 0.3967 0.41029 0.17551 0.0
H4020 H 0.35744 0.76104 0.9699 0.0
H4021 H 0.40637 0.79219 0.96506 0.0
H4022 H 0.36691 0.74018 0.967 0.0
H4023 H 0.41573 0.77137 0.96157 0.0
H4024 H 0.38481 0.70511 0.95193 0.0
H4025 H 0.37595 0.72685 0.95113 0.0
H4026 H 0.42202 0.75204 0.97506 0.0
H4027 H 0.43124 0.73069 0.97505 0.0
C4028 C 0.37018 0.76344 0.96802 0.0
C4029 C 0.38118 0.77827 0.96783 0.0
C4030 C 0.3756 0.75147 0.96624 0.0
C4031 C 0.39213 0.75403 0.96408 0.0
C4032 C 0.403 0.76892 0.96348 0.0
C4033 C 0.39762 0.78088 0.96541 0.0
C4034 C 0.39321 0.7154 0.95672 0.0
C4035 C 0.40871 0.71608 0.96366 0.0
C4036 C 0.38802 0.72782 0.95645 0.0
C4037 C 0.39816 0.74121 0.96318 0.0
C4038 C 0.41389 0.74202 0.96966 0.0
C4039 C 0.41911 0.72966 0.96982 0.0
H4040 H 0.08451 0.67727 0.71462 0.0
H4041 H 0.03866 0.64 0.71352 0.0
H4042 H 0.09639 0.66274 0.70165 0.0
H4043 H 0.05017 0.62569 0.69986 0.0
H4044 H 0.07709 0.59957 0.68107 0.0
H4045 H 0.06878 0.61275 0.6987 0.0
H4046 H 0.09423 0.655 0.6782 0.0
H4047 H 0.10341 0.64197 0.6614 0.0
C4048 C 0.07697 0.66596 0.71158 0.0
C4049 C 0.06062 0.65982 0.71497 0.0
C4050 C 0.08373 0.65763 0.70406 0.0
C4051 C 0.0742 0.64307 0.69948 0.0
C4052 C 0.05799 0.63677 0.70332 0.0
C4053 C 0.05132 0.64502 0.71108 0.0
C4054 C 0.0812 0.61169 0.68056 0.0
C4055 C 0.09074 0.61969 0.6697 0.0
C4056 C 0.07626 0.61925 0.69055 0.0
C4057 C 0.08068 0.63497 0.68985 0.0
C4058 C 0.0907 0.64293 0.67926 0.0
C4059 C 0.09576 0.63542 0.66943 0.0
H4060 H 0.06536 0.23199 0.43368 0.0
H4061 H 0.11857 0.24853 0.44126 0.0
H4062 H 0.06559 0.25745 0.42845 0.0
H4063 H 0.11875 0.27403 0.43621 0.0
H4064 H 0.11429 0.31762 0.41691 0.0
H4065 H 0.11287 0.29143 0.41756 0.0
H4066 H 0.07166 0.27962 0.44298 0.0
H4067 H 0.07287 0.30562 0.44205 0.0
C4068 C 0.07712 0.24103 0.43413 0.0
C4069 C 0.09194 0.23822 0.43801 0.0
C4070 C 0.07724 0.25564 0.43119 0.0
C4071 C 0.09218 0.26779 0.43201 0.0
C4072 C 0.10704 0.26492 0.43535 0.0
C4073 C 0.10693 0.2503 0.43834 0.0
C4074 C 0.10475 0.30936 0.4224 0.0
C4075 C 0.09375 0.31368 0.4295 0.0
C4076 C 0.10403 0.2944 0.42289 0.0
C4077 C 0.0922 0.28345 0.43038 0.0
C4078 C 0.08083 0.28773 0.43701 0.0
C4079 C 0.08162 0.30265 0.43659 0.0
H4080 H 0.53327 0.66789 0.37365 0.0
H4081 H 0.52755 0.66687 0.32727 0.0
H4082 H 0.5041 0.66474 0.37345 0.0
H4083 H 0.49847 0.6635 0.3271 0.0
H4084 H 0.45142 0.67281 0.33055 0.0
H4085 H 0.48095 0.67739 0.33214 0.0
H4086 H 0.47667 0.64588 0.36778 0.0
H4087 H 0.44706 0.64129 0.36618 0.0
C4088 C 0.52581 0.66697 0.36342 0.0
C4089 C 0.53277 0.66766 0.35048 0.0
C4090 C 0.50907 0.6651 0.36332 0.0
C4091 C 0.49897 0.66394 0.35026 0.0
C4092 C 0.50596 0.66461 0.33734 0.0
C4093 C 0.52263 0.66644 0.33745 0.0
C4094 C 0.45677 0.66684 0.33871 0.0
C4095 C 0.44686 0.65659 0.34816 0.0
C4096 C 0.4737 0.66946 0.33962 0.0
C4097 C 0.48115 0.66189 0.35 0.0
C4098 C 0.47134 0.65199 0.35975 0.0
C4099 C 0.45437 0.64937 0.35884 0.0
H4100 H 0.11111 0.72434 0.13198 0.0
H4101 H 0.1279 0.73532 0.08981 0.0
H4102 H 0.13404 0.71561 0.13949 0.0
H4103 H 0.15116 0.72675 0.09746 0.0
H4104 H 0.17301 0.68847 0.11273 0.0
H4105 H 0.1552 0.70274 0.10364 0.0
H4106 H 0.16373 0.72384 0.14482 0.0
H4107 H 0.18125 0.70933 0.15392 0.0
C4108 C 0.1198 0.72504 0.12435 0.0
C4109 C 0.11762 0.73046 0.11028 0.0
C4110 C 0.13306 0.72016 0.12869 0.0
C4111 C 0.14452 0.72057 0.1191 0.0
C4112 C 0.1425 0.72621 0.10507 0.0
C4113 C 0.12921 0.73115 0.10072 0.0
C4114 C 0.17148 0.69652 0.11966 0.0
C4115 C 0.17834 0.69771 0.13406 0.0
C4116 C 0.16125 0.70468 0.11448 0.0
C4117 C 0.15778 0.71421 0.1236 0.0
C4118 C 0.16584 0.71632 0.13763 0.0
C4119 C 0.17596 0.70812 0.14281 0.0
H4120 H 0.95797 0.35209 0.8203 0.0
H4121 H 0.95277 0.33929 0.86494 0.0
H4122 H 0.98724 0.35561 0.82439 0.0
H4123 H 0.98213 0.34264 0.86897 0.0
H4124 H 0.03917 0.36573 0.87253 0.0
H4125 H 0.00974 0.36224 0.86953 0.0
H4126 H 0.00438 0.33985 0.82952 0.0
H4127 H 0.03366 0.34324 0.83253 0.0
C4128 C 0.96306 0.35004 0.831 0.0
C4129 C 0.95299 0.34535 0.84228 0.0
C4130 C 0.97984 0.35197 0.83332 0.0
C4131 C 0.98699 0.34929 0.84698 0.0
C4132 C 0.97701 0.34489 0.85834 0.0
C4133 C 0.96018 0.34291 0.85601 0.0
C4134 C 0.03166 0.3599 0.86319 0.0
C4135 C 0.0388 0.35487 0.85271 0.0
C4136 C 0.0148 0.35792 0.86146 0.0
C4137 C 0.00475 0.3509 0.84921 0.0
C4138 C 0.01184 0.34559 0.83892 0.0
C4139 C 0.02863 0.34753 0.84066 0.0
H4140 H 0.40114 0.29998 0.54247 0.0
H4141 H 0.36123 0.28536 0.56941 0.0
H4142 H 0.40656 0.32588 0.54866 0.0
H4143 H 0.36711 0.31115 0.5762 0.0
H4144 H 0.36947 0.35965 0.57293 0.0
H4145 H 0.36449 0.33374 0.56704 0.0
H4146 H 0.41699 0.34373 0.56684 0.0
H4147 H 0.42178 0.36982 0.57214 0.0
C4148 C 0.39367 0.3023 0.54988 0.0
C4149 C 0.38071 0.29065 0.5554 0.0
C4150 C 0.39683 0.31715 0.55351 0.0
C4151 C 0.38726 0.32068 0.56292 0.0
C4152 C 0.37453 0.30894 0.56869 0.0
C4153 C 0.37121 0.29411 0.56488 0.0
C4154 C 0.37992 0.35624 0.57167 0.0
C4155 C 0.396 0.36669 0.57299 0.0
C4156 C 0.3771 0.34137 0.56837 0.0
C4157 C 0.39033 0.33655 0.56651 0.0
C4158 C 0.40646 0.34705 0.56795 0.0
C4159 C 0.40924 0.36199 0.57105 0.0
H4160 H 0.19467 0.47219 0.42436 0.0
H4161 H 0.1787 0.48119 0.38046 0.0
H4162 H 0.17628 0.44617 0.42212 0.0
H4163 H 0.16056 0.45524 0.3782 0.0
H4164 H 0.11397 0.41606 0.38697 0.0
H4165 H 0.13482 0.44088 0.38848 0.0
H4166 H 0.17034 0.42207 0.40974 0.0
H4167 H 0.14942 0.39703 0.40808 0.0
C4168 C 0.18746 0.46857 0.41417 0.0
C4169 C 0.18801 0.47881 0.40264 0.0
C4170 C 0.17696 0.45366 0.41288 0.0
C4171 C 0.1668 0.44872 0.40005 0.0
C4172 C 0.16799 0.45878 0.38832 0.0
C4173 C 0.17847 0.47365 0.3896 0.0
C4174 C 0.12627 0.41714 0.3918 0.0
C4175 C 0.13005 0.40452 0.39729 0.0
C4176 C 0.13823 0.43139 0.39266 0.0
C4177 C 0.15428 0.43343 0.3991 0.0
C4178 C 0.15806 0.42086 0.40478 0.0
C4179 C 0.14607 0.40654 0.40385 0.0
H4180 H 0.65646 0.04136 0.61077 0.0
H4181 H 0.70851 0.04896 0.61117 0.0
H4182 H 0.66282 0.06687 0.61874 0.0
H4183 H 0.71488 0.07462 0.61862 0.0
H4184 H 0.72224 0.11723 0.64184 0.0
H4185 H 0.71511 0.09059 0.63733 0.0
H4186 H 0.67246 0.09157 0.60899 0.0
H4187 H 0.6794 0.11802 0.61381 0.0
C4188 C 0.66927 0.04847 0.61259 0.0
C4189 C 0.68198 0.04316 0.61028 0.0
C4190 C 0.67292 0.06314 0.61707 0.0
C4191 C 0.68936 0.07289 0.61921 0.0
C4192 C 0.70208 0.06741 0.61727 0.0
C4193 C 0.69843 0.0527 0.61291 0.0
C4194 C 0.71132 0.11169 0.63469 0.0
C4195 C 0.70137 0.1197 0.62819 0.0
C4196 C 0.70725 0.09644 0.63207 0.0
C4197 C 0.69321 0.08889 0.62277 0.0
C4198 C 0.68317 0.0969 0.61642 0.0
C4199 C 0.68717 0.1121 0.61915 0.0
H4200 H 0.7193 0.94363 0.37692 0.0
H4201 H 0.73311 0.91828 0.41279 0.0
H4202 H 0.69483 0.92191 0.37022 0.0
H4203 H 0.70869 0.89669 0.40609 0.0
H4204 H 0.65246 0.87167 0.40172 0.0
H4205 H 0.67818 0.89237 0.40653 0.0
H4206 H 0.68622 0.89461 0.36177 0.0
H4207 H 0.6606 0.87341 0.35692 0.0
C4208 C 0.7172 0.9334 0.38329 0.0
C4209 C 0.72807 0.93272 0.39546 0.0
C4210 C 0.70325 0.92096 0.3794 0.0
C4211 C 0.69982 0.90769 0.38771 0.0
C4212 C 0.71095 0.90686 0.3996 0.0
C4213 C 0.72496 0.91921 0.40339 0.0
C4214 C 0.6598 0.87635 0.3929 0.0
C4215 C 0.65452 0.8707 0.37895 0.0
C4216 C 0.67452 0.88826 0.39567 0.0
C4217 C 0.68425 0.89499 0.38455 0.0
C4218 C 0.6789 0.88963 0.37053 0.0
C4219 C 0.66421 0.87754 0.36777 0.0
H4220 H 0.79703 0.96433 0.12242 0.0
H4221 H 0.79666 0.96566 0.07625 0.0
H4222 H 0.81393 0.94836 0.12441 0.0
H4223 H 0.81315 0.94933 0.07819 0.0
H4224 H 0.85726 0.93328 0.08801 0.0
H4225 H 0.8404 0.94929 0.08596 0.0
H4226 H 0.81263 0.92343 0.11972 0.0
H4227 H 0.82971 0.90757 0.12189 0.0
C4228 C 0.80049 0.96115 0.11269 0.0
C4229 C 0.79553 0.96629 0.09918 0.0
C4230 C 0.81009 0.9519 0.11382 0.0
C4231 C 0.81489 0.94751 0.10146 0.0
C4232 C 0.80989 0.95265 0.08795 0.0
C4233 C 0.80036 0.96196 0.08683 0.0
C4234 C 0.84745 0.93095 0.0949 0.0
C4235 C 0.8448 0.91916 0.10511 0.0
C4236 C 0.83777 0.94011 0.09372 0.0
C4237 C 0.82513 0.93767 0.10267 0.0
C4238 C 0.82242 0.9258 0.11282 0.0
C4239 C 0.83218 0.91668 0.11405 0.0
H4240 H 0.27962 0.57041 0.41248 0.0
H4241 H 0.27543 0.55634 0.36878 0.0
H4242 H 0.30691 0.58838 0.40966 0.0
H4243 H 0.30307 0.57393 0.36609 0.0
H4244 H 0.34402 0.61973 0.36146 0.0
H4245 H 0.31757 0.59996 0.36378 0.0
H4246 H 0.33458 0.59112 0.40745 0.0
H4247 H 0.36078 0.61125 0.40519 0.0
C4248 C 0.28462 0.57102 0.40231 0.0
C4249 C 0.27533 0.56198 0.39084 0.0
C4250 C 0.30036 0.58127 0.40072 0.0
C4251 C 0.30729 0.58263 0.38765 0.0
C4252 C 0.29806 0.57338 0.37624 0.0
C4253 C 0.28224 0.56322 0.3778 0.0
C4254 C 0.34214 0.6134 0.37147 0.0
C4255 C 0.35439 0.61706 0.38317 0.0
C4256 C 0.32699 0.60204 0.37282 0.0
C4257 C 0.32383 0.59398 0.38585 0.0
C4258 C 0.3364 0.5973 0.39736 0.0
C4259 C 0.35146 0.60877 0.39606 0.0
H4260 H 0.35565 0.54793 0.9679 0.0
H4261 H 0.31421 0.55587 0.943 0.0
H4262 H 0.3728 0.57393 0.96363 0.0
H4263 H 0.33137 0.58191 0.93889 0.0
H4264 H 0.36373 0.63134 0.94938 0.0
H4265 H 0.34654 0.60541 0.95441 0.0
H4266 H 0.38377 0.58973 0.94137 0.0
H4267 H 0.40085 0.61556 0.93626 0.0
C4268 C 0.3502 0.55522 0.96153 0.0
C4269 C 0.33359 0.54985 0.95575 0.0
C4270 C 0.36003 0.57007 0.95907 0.0
C4271 C 0.35338 0.57991 0.95097 0.0
C4272 C 0.33675 0.57458 0.94528 0.0
C4273 C 0.32698 0.55967 0.94755 0.0
C4274 C 0.36823 0.62232 0.94768 0.0
C4275 C 0.38355 0.62539 0.94239 0.0
C4276 C 0.35838 0.60753 0.95046 0.0
C4277 C 0.36384 0.5956 0.94825 0.0
C4278 C 0.37932 0.59872 0.94324 0.0
C4279 C 0.38902 0.61346 0.94024 0.0
H4280 H 0.69978 0.03156 0.14092 0.0
H4281 H 0.71363 0.07493 0.1195 0.0
H4282 H 0.67615 0.03584 0.14894 0.0
H4283 H 0.68974 0.07911 0.12741 0.0
H4284 H 0.65506 0.08626 0.15868 0.0
H4285 H 0.67894 0.08317 0.14957 0.0
H4286 H 0.64972 0.03758 0.13834 0.0
H4287 H 0.62592 0.04067 0.14736 0.0
C4288 C 0.69779 0.04202 0.13791 0.0
C4289 C 0.70859 0.05289 0.12953 0.0
C4290 C 0.68416 0.04442 0.14243 0.0
C4291 C 0.68099 0.05776 0.13871 0.0
C4292 C 0.69191 0.06875 0.13052 0.0
C4293 C 0.70555 0.06632 0.12594 0.0
C4294 C 0.65369 0.07566 0.15406 0.0
C4295 C 0.63864 0.06366 0.15386 0.0
C4296 C 0.66736 0.07388 0.14886 0.0
C4297 C 0.66627 0.06007 0.14339 0.0
C4298 C 0.65107 0.04826 0.14278 0.0
C4299 C 0.63743 0.05003 0.14794 0.0
H4300 H 0.76238 0.9757 0.62695 0.0
H4301 H 0.74439 0.93094 0.61008 0.0
H4302 H 0.78978 0.974 0.6324 0.0
H4303 H 0.7718 0.92913 0.61582 0.0
H4304 H 0.8272 0.93806 0.61412 0.0
H4305 H 0.79959 0.93943 0.6084 0.0
H4306 H 0.80428 0.96103 0.64876 0.0
H4307 H 0.83184 0.95971 0.65445 0.0
C4308 C 0.76424 0.96546 0.62446 0.0
C4309 C 0.75117 0.95345 0.61809 0.0
C4310 C 0.77995 0.96446 0.62767 0.0
C4311 C 0.78299 0.95142 0.62459 0.0
C4312 C 0.76993 0.93941 0.61818 0.0
C4313 C 0.75419 0.94041 0.61497 0.0
C4314 C 0.82228 0.943 0.62181 0.0
C4315 C 0.83176 0.94884 0.63471 0.0
C4316 C 0.80645 0.94377 0.61854 0.0
C4317 C 0.79973 0.95038 0.6281 0.0
C4318 C 0.80918 0.95611 0.64104 0.0
C4319 C 0.82499 0.95536 0.6443 0.0
loop_
_geom_bond_atom_site_label_1
_geom_bond_atom_site_label_2
_geom_bond_distance
_geom_bond_site_symmetry_2
_ccdc_geom_bond_type
O0 Cd1 2.309 . S
O0 C7 1.275 . S
Cd1 O0 2.309 . S
Cd1 O9 2.392 . S
Cd1 O10 2.378 1_455 S
O2 Cd3 2.385 . S
O2 C7 1.255 1_655 S
Cd3 O2 2.385 . S
Cd3 O4 2.317 . S
O4 Cd3 2.317 . S
O4 C5 1.232 . S
C5 O4 1.232 . S
C5 O6 1.218 . S
O6 C5 1.218 . S
C7 O0 1.275 . S
C7 O2 1.255 1_455 S
C8 O9 1.258 . S
C8 O10 1.256 1_455 S
O9 Cd1 2.392 . S
O9 C8 1.258 . S
O10 Cd1 2.378 1_655 S
O10 C8 1.256 1_655 S
O11 Cd12 2.300 . S
O11 C18 1.275 . S
Cd12 O11 2.300 . S
Cd12 O20 2.381 . S
Cd12 O21 2.378 . S
O13 Cd14 2.385 . S
O13 C18 1.255 . S
Cd14 O13 2.385 . S
Cd14 O15 2.317 . S
O15 Cd14 2.317 . S
O15 C16 1.232 . S
C16 O15 1.232 . S
C16 O17 1.218 . S
O17 C16 1.218 . S
C18 O11 1.275 . S
C18 O13 1.255 . S
C19 O20 1.258 . S
C19 O21 1.256 . S
O20 Cd12 2.381 . S
O20 C19 1.258 . S
O21 Cd12 2.378 . S
O21 C19 1.256 . S
O22 Cd23 2.300 . S
O22 C29 1.275 . S
Cd23 O22 2.300 . S
Cd23 O31 2.381 . S
Cd23 O32 2.378 . S
O24 Cd25 2.385 . S
O24 C29 1.255 . S
Cd25 O24 2.385 . S
Cd25 O26 2.317 . S
O26 Cd25 2.317 . S
O26 C27 1.232 . S
C27 O26 1.232 . S
C27 O28 1.218 . S
O28 C27 1.218 . S
C29 O22 1.275 . S
C29 O24 1.255 . S
C30 O31 1.258 . S
C30 O32 1.256 . S
O31 Cd23 2.381 . S
O31 C30 1.258 . S
O32 Cd23 2.378 . S
O32 C30 1.256 . S
O33 Cd34 2.300 . S
O33 C40 1.275 . S
Cd34 O33 2.300 . S
Cd34 O42 2.381 . S
Cd34 O43 2.378 . S
O35 Cd36 2.385 . S
O35 C40 1.255 . S
Cd36 O35 2.385 . S
Cd36 O37 2.317 . S
O37 Cd36 2.317 . S
O37 C38 1.232 . S
C38 O37 1.232 . S
C38 O39 1.218 . S
O39 C38 1.218 . S
C40 O33 1.275 . S
C40 O35 1.255 . S
C41 O42 1.258 . S
C41 O43 1.256 . S
O42 Cd34 2.381 . S
O42 C41 1.258 . S
O43 Cd34 2.378 . S
O43 C41 1.256 . S
O44 Cd45 2.300 . S
O44 C51 1.275 . S
Cd45 O44 2.300 . S
Cd45 O53 2.381 . S
Cd45 O54 2.378 . S
O46 Cd47 2.385 . S
O46 C51 1.255 . S
Cd47 O46 2.385 . S
Cd47 O48 2.317 . S
O48 Cd47 2.317 . S
O48 C49 1.232 . S
C49 O48 1.232 . S
C49 O50 1.218 . S
O50 C49 1.218 . S
C51 O44 1.275 . S
C51 O46 1.255 . S
C52 O53 1.258 . S
C52 O54 1.256 . S
O53 Cd45 2.381 . S
O53 C52 1.258 . S
O54 Cd45 2.378 . S
O54 C52 1.256 . S
O55 Cd56 2.300 . S
O55 C62 1.275 . S
Cd56 O55 2.300 . S
Cd56 O64 2.381 . S
Cd56 O65 2.378 . S
O57 Cd58 2.385 . S
O57 C62 1.255 . S
Cd58 O57 2.385 . S
Cd58 O59 2.317 . S
O59 Cd58 2.317 . S
O59 C60 1.232 . S
C60 O59 1.232 . S
C60 O61 1.218 . S
O61 C60 1.218 . S
C62 O55 1.275 . S
C62 O57 1.255 . S
C63 O64 1.258 . S
C63 O65 1.256 . S
O64 Cd56 2.381 . S
O64 C63 1.258 . S
O65 Cd56 2.378 . S
O65 C63 1.256 . S
O66 Cd67 2.300 . S
O66 C73 1.275 . S
Cd67 O66 2.300 . S
Cd67 O75 2.381 . S
Cd67 O76 2.378 . S
O68 Cd69 2.385 . S
O68 C73 1.255 . S
Cd69 O68 2.385 . S
Cd69 O70 2.317 . S
O70 Cd69 2.317 . S
O70 C71 1.232 . S
C71 O70 1.232 . S
C71 O72 1.218 . S
O72 C71 1.218 . S
C73 O66 1.275 . S
C73 O68 1.255 . S
C74 O75 1.258 . S
C74 O76 1.256 . S
O75 Cd67 2.381 . S
O75 C74 1.258 . S
O76 Cd67 2.378 . S
O76 C74 1.256 . S
O77 Cd78 2.300 . S
O77 C84 1.275 . S
Cd78 O77 2.300 . S
Cd78 O86 2.381 . S
Cd78 O87 2.378 . S
O79 Cd80 2.385 . S
O79 C84 1.255 . S
Cd80 O79 2.385 . S
Cd80 O81 2.317 1_556 S
O81 Cd80 2.317 1_554 S
O81 C82 1.232 . S
C82 O81 1.232 . S
C82 O83 1.218 . S
O83 C82 1.218 . S
C84 O77 1.275 . S
C84 O79 1.255 . S
C85 O86 1.258 . S
C85 O87 1.256 . S
O86 Cd78 2.381 . S
O86 C85 1.258 . S
O87 Cd78 2.378 . S
O87 C85 1.256 . S
O88 Cd89 2.300 . S
O88 C95 1.275 . S
Cd89 O88 2.300 . S
Cd89 O97 2.381 1_545 S
Cd89 O98 2.378 1_545 S
O90 Cd91 2.385 . S
O90 C95 1.255 . S
Cd91 O90 2.385 . S
Cd91 O92 2.317 . S
O92 Cd91 2.317 . S
O92 C93 1.232 . S
C93 O92 1.232 . S
C93 O94 1.218 . S
O94 C93 1.218 . S
C95 O88 1.275 . S
C95 O90 1.255 . S
C96 O97 1.258 . S
C96 O98 1.256 . S
O97 Cd89 2.381 1_565 S
O97 C96 1.258 . S
O98 Cd89 2.378 1_565 S
O98 C96 1.256 . S
O99 Cd100 2.300 . S
O99 C106 1.275 . S
Cd100 O99 2.300 . S
Cd100 O108 2.381 1_545 S
Cd100 O109 2.378 1_545 S
O101 Cd102 2.385 . S
O101 C106 1.255 . S
Cd102 O101 2.385 . S
Cd102 O103 2.317 . S
O103 Cd102 2.317 . S
O103 C104 1.232 . S
C104 O103 1.232 . S
C104 O105 1.218 . S
O105 C104 1.218 . S
C106 O99 1.275 . S
C106 O101 1.255 . S
C107 O108 1.258 . S
C107 O109 1.256 . S
O108 Cd100 2.381 1_565 S
O108 C107 1.258 . S
O109 Cd100 2.378 1_565 S
O109 C107 1.256 . S
O110 Cd111 2.300 . S
O110 C117 1.275 . S
Cd111 O110 2.300 . S
Cd111 O119 2.381 . S
Cd111 O120 2.378 . S
O112 Cd113 2.385 1_565 S
O112 C117 1.255 . S
Cd113 O112 2.385 1_545 S
Cd113 O114 2.317 . S
O114 Cd113 2.317 . S
O114 C115 1.232 . S
C115 O114 1.232 . S
C115 O116 1.218 . S
O116 C115 1.218 . S
C117 O110 1.275 . S
C117 O112 1.255 . S
C118 O119 1.258 . S
C118 O120 1.256 . S
O119 Cd111 2.381 . S
O119 C118 1.258 . S
O120 Cd111 2.378 . S
O120 C118 1.256 . S
O121 Cd122 2.299 . S
O121 C128 1.275 . S
Cd122 O121 2.299 . S
Cd122 O130 2.382 1_565 S
Cd122 O131 2.380 1_565 S
O123 Cd124 2.385 . S
O123 C128 1.255 . S
Cd124 O123 2.385 . S
Cd124 O125 2.317 . S
O125 Cd124 2.317 . S
O125 C126 1.232 . S
C126 O125 1.232 . S
C126 O127 1.218 . S
O127 C126 1.218 . S
C128 O121 1.275 . S
C128 O123 1.255 . S
C129 O130 1.258 . S
C129 O131 1.256 . S
O130 Cd122 2.382 1_545 S
O130 C129 1.258 . S
O131 Cd122 2.380 1_545 S
O131 C129 1.256 . S
O132 Cd133 2.300 . S
O132 C139 1.275 . S
Cd133 O132 2.300 . S
Cd133 O141 2.381 . S
Cd133 O142 2.378 . S
O134 Cd135 2.385 . S
O134 C139 1.255 . S
Cd135 O134 2.385 . S
Cd135 O136 2.317 . S
O136 Cd135 2.317 . S
O136 C137 1.232 . S
C137 O136 1.232 . S
C137 O138 1.218 . S
O138 C137 1.218 . S
C139 O132 1.275 . S
C139 O134 1.255 . S
C140 O141 1.258 . S
C140 O142 1.256 . S
O141 Cd133 2.381 . S
O141 C140 1.258 . S
O142 Cd133 2.378 . S
O142 C140 1.256 . S
O143 Cd144 2.300 . S
O143 C150 1.275 . S
Cd144 O143 2.300 . S
Cd144 O152 2.381 . S
Cd144 O153 2.378 . S
O145 Cd146 2.385 . S
O145 C150 1.255 . S
Cd146 O145 2.385 . S
Cd146 O147 2.317 . S
O147 Cd146 2.317 . S
O147 C148 1.232 . S
C148 O147 1.232 . S
C148 O149 1.218 . S
O149 C148 1.218 . S
C150 O143 1.275 . S
C150 O145 1.255 . S
C151 O152 1.258 . S
C151 O153 1.256 . S
O152 Cd144 2.381 . S
O152 C151 1.258 . S
O153 Cd144 2.378 . S
O153 C151 1.256 . S
O154 Cd155 2.300 . S
O154 C161 1.275 . S
Cd155 O154 2.300 . S
Cd155 O163 2.381 . S
Cd155 O164 2.378 . S
O156 Cd157 2.385 . S
O156 C161 1.255 . S
Cd157 O156 2.385 . S
Cd157 O158 2.317 . S
O158 Cd157 2.317 . S
O158 C159 1.232 . S
C159 O158 1.232 . S
C159 O160 1.218 . S
O160 C159 1.218 . S
C161 O154 1.275 . S
C161 O156 1.255 . S
C162 O163 1.258 . S
C162 O164 1.256 . S
O163 Cd155 2.381 . S
O163 C162 1.258 . S
O164 Cd155 2.378 . S
O164 C162 1.256 . S
O165 Cd166 2.300 1_655 S
O165 C172 1.275 . S
Cd166 O165 2.300 1_455 S
Cd166 O174 2.381 . S
Cd166 O175 2.378 . S
O167 Cd168 2.385 1_655 S
O167 C172 1.255 . S
Cd168 O167 2.385 1_455 S
Cd168 O169 2.317 . S
O169 Cd168 2.317 . S
O169 C170 1.232 1_455 S
C170 O169 1.232 1_655 S
C170 O171 1.218 . S
O171 C170 1.218 . S
C172 O165 1.275 . S
C172 O167 1.255 . S
C173 O174 1.258 . S
C173 O175 1.256 . S
O174 Cd166 2.381 . S
O174 C173 1.258 . S
O175 Cd166 2.378 . S
O175 C173 1.256 . S
O176 Cd177 2.300 . S
O176 C183 1.275 . S
Cd177 O176 2.300 . S
Cd177 O185 2.381 . S
Cd177 O186 2.378 . S
O178 Cd179 2.385 . S
O178 C183 1.255 . S
Cd179 O178 2.385 . S
Cd179 O180 2.317 . S
O180 Cd179 2.317 . S
O180 C181 1.232 . S
C181 O180 1.232 . S
C181 O182 1.218 . S
O182 C181 1.218 . S
C183 O176 1.275 . S
C183 O178 1.255 . S
C184 O185 1.258 . S
C184 O186 1.256 . S
O185 Cd177 2.381 . S
O185 C184 1.258 . S
O186 Cd177 2.378 . S
O186 C184 1.256 . S
O187 Cd188 2.300 . S
O187 C194 1.275 . S
Cd188 O187 2.300 . S
Cd188 O196 2.381 . S
Cd188 O197 2.378 . S
O189 Cd190 2.385 . S
O189 C194 1.255 . S
Cd190 O189 2.385 . S
Cd190 O191 2.317 . S
O191 Cd190 2.317 . S
O191 C192 1.232 . S
C192 O191 1.232 . S
C192 O193 1.218 . S
O193 C192 1.218 . S
C194 O187 1.275 . S
C194 O189 1.255 . S
C195 O196 1.258 . S
C195 O197 1.256 . S
O196 Cd188 2.381 . S
O196 C195 1.258 . S
O197 Cd188 2.378 . S
O197 C195 1.256 . S
O198 Cd199 2.300 . S
O198 C205 1.275 . S
Cd199 O198 2.300 . S
Cd199 O207 2.381 . S
Cd199 O208 2.378 . S
O200 Cd201 2.385 . S
O200 C205 1.255 . S
Cd201 O200 2.385 . S
Cd201 O202 2.317 1_556 S
O202 Cd201 2.317 1_554 S
O202 C203 1.232 . S
C203 O202 1.232 . S
C203 O204 1.218 . S
O204 C203 1.218 . S
C205 O198 1.275 . S
C205 O200 1.255 . S
C206 O207 1.258 . S
C206 O208 1.256 . S
O207 Cd199 2.381 . S
O207 C206 1.258 . S
O208 Cd199 2.378 . S
O208 C206 1.256 . S
O209 Cd210 2.300 . S
O209 C216 1.275 . S
Cd210 O209 2.300 . S
Cd210 O218 2.381 . S
Cd210 O219 2.378 . S
O211 Cd212 2.385 . S
O211 C216 1.255 . S
Cd212 O211 2.385 . S
Cd212 O213 2.317 . S
O213 Cd212 2.317 . S
O213 C214 1.232 . S
C214 O213 1.232 . S
C214 O215 1.218 . S
O215 C214 1.218 . S
C216 O209 1.275 . S
C216 O211 1.255 . S
C217 O218 1.258 . S
C217 O219 1.256 . S
O218 Cd210 2.381 . S
O218 C217 1.258 . S
O219 Cd210 2.378 . S
O219 C217 1.256 . S
O220 Cd221 2.300 . S
O220 C227 1.275 . S
Cd221 O220 2.300 . S
Cd221 O229 2.381 . S
Cd221 O230 2.378 . S
O222 Cd223 2.385 . S
O222 C227 1.255 . S
Cd223 O222 2.385 . S
Cd223 O224 2.317 . S
O224 Cd223 2.317 . S
O224 C225 1.232 . S
C225 O224 1.232 . S
C225 O226 1.218 . S
O226 C225 1.218 . S
C227 O220 1.275 . S
C227 O222 1.255 . S
C228 O229 1.258 . S
C228 O230 1.256 . S
O229 Cd221 2.381 . S
O229 C228 1.258 . S
O230 Cd221 2.378 . S
O230 C228 1.256 . S
O231 Cd232 2.300 . S
O231 C238 1.275 . S
Cd232 O231 2.300 . S
Cd232 O240 2.381 . S
Cd232 O241 2.378 . S
O233 Cd234 2.385 . S
O233 C238 1.255 . S
Cd234 O233 2.385 . S
Cd234 O235 2.317 . S
O235 Cd234 2.317 . S
O235 C236 1.232 . S
C236 O235 1.232 . S
C236 O237 1.218 . S
O237 C236 1.218 . S
C238 O231 1.275 . S
C238 O233 1.255 . S
C239 O240 1.258 . S
C239 O241 1.256 . S
O240 Cd232 2.381 . S
O240 C239 1.258 . S
O241 Cd232 2.378 . S
O241 C239 1.256 . S
O242 Cd243 2.300 . S
O242 C249 1.275 . S
Cd243 O242 2.300 . S
Cd243 O251 2.381 . S
Cd243 O252 2.378 . S
O244 Cd245 2.385 . S
O244 C249 1.255 . S
Cd245 O244 2.385 . S
Cd245 O246 2.317 . S
O246 Cd245 2.317 . S
O246 C247 1.232 . S
C247 O246 1.232 . S
C247 O248 1.218 . S
O248 C247 1.218 . S
C249 O242 1.275 . S
C249 O244 1.255 . S
C250 O251 1.258 . S
C250 O252 1.256 . S
O251 Cd243 2.381 . S
O251 C250 1.258 . S
O252 Cd243 2.378 . S
O252 C250 1.256 . S
O253 Cd254 2.300 . S
O253 C260 1.275 . S
Cd254 O253 2.300 . S
Cd254 O262 2.381 1_565 S
Cd254 O263 2.378 1_565 S
O255 Cd256 2.385 . S
O255 C260 1.255 . S
Cd256 O255 2.385 . S
Cd256 O257 2.317 . S
O257 Cd256 2.317 . S
O257 C258 1.232 . S
C258 O257 1.232 . S
C258 O259 1.218 . S
O259 C258 1.218 . S
C260 O253 1.275 . S
C260 O255 1.255 . S
C261 O262 1.258 . S
C261 O263 1.256 . S
O262 Cd254 2.381 1_545 S
O262 C261 1.258 . S
O263 Cd254 2.378 1_545 S
O263 C261 1.256 . S
O264 Cd265 2.300 . S
O264 C271 1.275 . S
Cd265 O264 2.300 . S
Cd265 O273 2.381 1_565 S
Cd265 O274 2.378 1_565 S
O266 Cd267 2.385 . S
O266 C271 1.255 . S
Cd267 O266 2.385 . S
Cd267 O268 2.317 . S
O268 Cd267 2.317 . S
O268 C269 1.232 . S
C269 O268 1.232 . S
C269 O270 1.218 . S
O270 C269 1.218 . S
C271 O264 1.275 . S
C271 O266 1.255 . S
C272 O273 1.258 . S
C272 O274 1.256 . S
O273 Cd265 2.381 1_545 S
O273 C272 1.258 . S
O274 Cd265 2.378 1_545 S
O274 C272 1.256 . S
O275 Cd276 2.300 1_545 S
O275 C282 1.275 . S
Cd276 O275 2.300 1_565 S
Cd276 O284 2.381 . S
Cd276 O285 2.378 . S
O277 Cd278 2.385 . S
O277 C282 1.255 . S
Cd278 O277 2.385 . S
Cd278 O279 2.317 . S
O279 Cd278 2.317 . S
O279 C280 1.232 . S
C280 O279 1.232 . S
C280 O281 1.218 . S
O281 C280 1.218 . S
C282 O275 1.275 . S
C282 O277 1.255 . S
C283 O284 1.258 . S
C283 O285 1.256 . S
O284 Cd276 2.381 . S
O284 C283 1.258 . S
O285 Cd276 2.378 . S
O285 C283 1.256 . S
O286 Cd287 2.300 . S
O286 C293 1.275 . S
Cd287 O286 2.300 . S
Cd287 O295 2.381 1_545 S
Cd287 O296 2.378 1_545 S
O288 Cd289 2.385 . S
O288 C293 1.255 . S
Cd289 O288 2.385 . S
Cd289 O290 2.317 . S
O290 Cd289 2.317 . S
O290 C291 1.232 . S
C291 O290 1.232 . S
C291 O292 1.218 . S
O292 C291 1.218 . S
C293 O286 1.275 . S
C293 O288 1.255 . S
C294 O295 1.258 . S
C294 O296 1.256 . S
O295 Cd287 2.381 1_565 S
O295 C294 1.258 . S
O296 Cd287 2.378 1_565 S
O296 C294 1.256 . S
O297 Cd298 2.300 1_556 S
O297 C304 1.275 . S
Cd298 O297 2.300 1_554 S
Cd298 O306 2.381 . S
Cd298 O307 2.378 . S
O299 Cd300 2.385 . S
O299 C304 1.255 . S
Cd300 O299 2.385 . S
Cd300 O301 2.317 . S
O301 Cd300 2.317 . S
O301 C302 1.232 . S
C302 O301 1.232 . S
C302 O303 1.218 . S
O303 C302 1.218 . S
C304 O297 1.275 . S
C304 O299 1.255 . S
C305 O306 1.258 . S
C305 O307 1.256 . S
O306 Cd298 2.381 . S
O306 C305 1.258 . S
O307 Cd298 2.378 . S
O307 C305 1.256 . S
O308 Cd309 2.300 . S
O308 C315 1.275 . S
Cd309 O308 2.300 . S
Cd309 O317 2.381 . S
Cd309 O318 2.378 . S
O310 Cd311 2.385 . S
O310 C315 1.255 . S
Cd311 O310 2.385 . S
Cd311 O312 2.317 . S
O312 Cd311 2.317 . S
O312 C313 1.232 . S
C313 O312 1.232 . S
C313 O314 1.218 . S
O314 C313 1.218 . S
C315 O308 1.275 . S
C315 O310 1.255 . S
C316 O317 1.258 . S
C316 O318 1.256 . S
O317 Cd309 2.381 . S
O317 C316 1.258 . S
O318 Cd309 2.378 . S
O318 C316 1.256 . S
O319 Cd320 2.300 . S
O319 C326 1.275 . S
Cd320 O319 2.300 . S
Cd320 O328 2.381 . S
Cd320 O329 2.378 . S
O321 Cd322 2.385 . S
O321 C326 1.255 . S
Cd322 O321 2.385 . S
Cd322 O323 2.317 . S
O323 Cd322 2.317 . S
O323 C324 1.232 . S
C324 O323 1.232 . S
C324 O325 1.218 . S
O325 C324 1.218 . S
C326 O319 1.275 . S
C326 O321 1.255 . S
C327 O328 1.258 . S
C327 O329 1.256 . S
O328 Cd320 2.381 . S
O328 C327 1.258 . S
O329 Cd320 2.378 . S
O329 C327 1.256 . S
O330 Cd331 2.300 . S
O330 C337 1.275 . S
Cd331 O330 2.300 . S
Cd331 O339 2.381 . S
Cd331 O340 2.378 . S
O332 Cd333 2.385 . S
O332 C337 1.255 . S
Cd333 O332 2.385 . S
Cd333 O334 2.317 . S
O334 Cd333 2.317 . S
O334 C335 1.232 . S
C335 O334 1.232 . S
C335 O336 1.218 . S
O336 C335 1.218 . S
C337 O330 1.275 . S
C337 O332 1.255 . S
C338 O339 1.258 . S
C338 O340 1.256 . S
O339 Cd331 2.381 . S
O339 C338 1.258 . S
O340 Cd331 2.378 . S
O340 C338 1.256 . S
O341 Cd342 2.300 . S
O341 C348 1.275 . S
Cd342 O341 2.300 . S
Cd342 O350 2.381 1_655 S
Cd342 O351 2.378 1_655 S
O343 Cd344 2.385 . S
O343 C348 1.255 . S
Cd344 O343 2.385 . S
Cd344 O345 2.317 . S
O345 Cd344 2.317 . S
O345 C346 1.232 . S
C346 O345 1.232 . S
C346 O347 1.218 . S
O347 C346 1.218 . S
C348 O341 1.275 . S
C348 O343 1.255 . S
C349 O350 1.258 . S
C349 O351 1.256 . S
O350 Cd342 2.381 1_455 S
O350 C349 1.258 . S
O351 Cd342 2.378 1_455 S
O351 C349 1.256 . S
O352 Cd353 2.300 . S
O352 C359 1.275 . S
Cd353 O352 2.300 . S
Cd353 O361 2.381 . S
Cd353 O362 2.378 . S
O354 Cd355 2.385 . S
O354 C359 1.255 . S
Cd355 O354 2.385 . S
Cd355 O356 2.317 . S
O356 Cd355 2.317 . S
O356 C357 1.232 . S
C357 O356 1.232 . S
C357 O358 1.218 . S
O358 C357 1.218 . S
C359 O352 1.275 . S
C359 O354 1.255 . S
C360 O361 1.258 . S
C360 O362 1.256 . S
O361 Cd353 2.381 . S
O361 C360 1.258 . S
O362 Cd353 2.378 . S
O362 C360 1.256 . S
O363 Cd364 2.300 . S
O363 C370 1.275 . S
Cd364 O363 2.300 . S
Cd364 O372 2.381 . S
Cd364 O373 2.378 . S
O365 Cd366 2.385 1_556 S
O365 C370 1.255 . S
Cd366 O365 2.385 1_554 S
Cd366 O367 2.317 . S
O367 Cd366 2.317 . S
O367 C368 1.232 . S
C368 O367 1.232 . S
C368 O369 1.218 . S
O369 C368 1.218 . S
C370 O363 1.275 . S
C370 O365 1.255 . S
C371 O372 1.258 . S
C371 O373 1.256 . S
O372 Cd364 2.381 . S
O372 C371 1.258 . S
O373 Cd364 2.378 . S
O373 C371 1.256 . S
O374 Cd375 2.300 . S
O374 C381 1.275 . S
Cd375 O374 2.300 . S
Cd375 O383 2.381 . S
Cd375 O384 2.378 . S
O376 Cd377 2.385 . S
O376 C381 1.255 . S
Cd377 O376 2.385 . S
Cd377 O378 2.317 . S
O378 Cd377 2.317 . S
O378 C379 1.232 . S
C379 O378 1.232 . S
C379 O380 1.218 . S
O380 C379 1.218 . S
C381 O374 1.275 . S
C381 O376 1.255 . S
C382 O383 1.258 . S
C382 O384 1.256 . S
O383 Cd375 2.381 . S
O383 C382 1.258 . S
O384 Cd375 2.378 . S
O384 C382 1.256 . S
O385 Cd386 2.300 . S
O385 C392 1.275 . S
Cd386 O385 2.300 . S
Cd386 O394 2.381 . S
Cd386 O395 2.378 . S
O387 Cd388 2.385 . S
O387 C392 1.255 . S
Cd388 O387 2.385 . S
Cd388 O389 2.317 . S
O389 Cd388 2.317 . S
O389 C390 1.232 . S
C390 O389 1.232 . S
C390 O391 1.218 . S
O391 C390 1.218 . S
C392 O385 1.275 . S
C392 O387 1.255 . S
C393 O394 1.258 . S
C393 O395 1.256 . S
O394 Cd386 2.381 . S
O394 C393 1.258 . S
O395 Cd386 2.378 . S
O395 C393 1.256 . S
O396 Cd397 2.300 . S
O396 C403 1.275 . S
Cd397 O396 2.300 . S
Cd397 O405 2.381 . S
Cd397 O406 2.378 . S
O398 Cd399 2.385 . S
O398 C403 1.255 . S
Cd399 O398 2.385 . S
Cd399 O400 2.317 . S
O400 Cd399 2.317 . S
O400 C401 1.232 . S
C401 O400 1.232 . S
C401 O402 1.218 . S
O402 C401 1.218 . S
C403 O396 1.275 . S
C403 O398 1.255 . S
C404 O405 1.258 . S
C404 O406 1.256 . S
O405 Cd397 2.381 . S
O405 C404 1.258 . S
O406 Cd397 2.378 . S
O406 C404 1.256 . S
O407 Cd408 2.300 . S
O407 C414 1.275 . S
Cd408 O407 2.300 . S
Cd408 O416 2.381 . S
Cd408 O417 2.378 . S
O409 Cd410 2.385 . S
O409 C414 1.255 . S
Cd410 O409 2.385 . S
Cd410 O411 2.317 . S
O411 Cd410 2.317 . S
O411 C412 1.232 . S
C412 O411 1.232 . S
C412 O413 1.218 . S
O413 C412 1.218 . S
C414 O407 1.275 . S
C414 O409 1.255 . S
C415 O416 1.258 . S
C415 O417 1.256 . S
O416 Cd408 2.381 . S
O416 C415 1.258 . S
O417 Cd408 2.378 . S
O417 C415 1.256 . S
O418 Cd419 2.300 . S
O418 C425 1.275 . S
Cd419 O418 2.300 . S
Cd419 O427 2.381 . S
Cd419 O428 2.378 . S
O420 Cd421 2.385 . S
O420 C425 1.255 . S
Cd421 O420 2.385 . S
Cd421 O422 2.317 . S
O422 Cd421 2.317 . S
O422 C423 1.232 . S
C423 O422 1.232 . S
C423 O424 1.218 . S
O424 C423 1.218 . S
C425 O418 1.275 . S
C425 O420 1.255 . S
C426 O427 1.258 . S
C426 O428 1.256 . S
O427 Cd419 2.381 . S
O427 C426 1.258 . S
O428 Cd419 2.378 . S
O428 C426 1.256 . S
O429 Cd430 2.300 . S
O429 C436 1.275 . S
Cd430 O429 2.300 . S
Cd430 O438 2.381 . S
Cd430 O439 2.378 . S
O431 Cd432 2.385 . S
O431 C436 1.255 . S
Cd432 O431 2.385 . S
Cd432 O433 2.317 . S
O433 Cd432 2.317 . S
O433 C434 1.232 . S
C434 O433 1.232 . S
C434 O435 1.218 . S
O435 C434 1.218 . S
C436 O429 1.275 . S
C436 O431 1.255 . S
C437 O438 1.258 . S
C437 O439 1.256 . S
O438 Cd430 2.381 . S
O438 C437 1.258 . S
O439 Cd430 2.378 . S
O439 C437 1.256 . S
O440 Cd441 2.300 . S
O440 C447 1.275 . S
Cd441 O440 2.300 . S
Cd441 O449 2.381 . S
Cd441 O450 2.378 . S
O442 Cd443 2.385 . S
O442 C447 1.255 . S
Cd443 O442 2.385 . S
Cd443 O444 2.317 1_455 S
O444 Cd443 2.317 1_655 S
O444 C445 1.232 . S
C445 O444 1.232 . S
C445 O446 1.218 . S
O446 C445 1.218 . S
C447 O440 1.275 . S
C447 O442 1.255 . S
C448 O449 1.258 . S
C448 O450 1.256 . S
O449 Cd441 2.381 . S
O449 C448 1.258 . S
O450 Cd441 2.378 . S
O450 C448 1.256 . S
O451 Cd452 2.300 . S
O451 C458 1.275 . S
Cd452 O451 2.300 . S
Cd452 O460 2.381 . S
Cd452 O461 2.378 . S
O453 Cd454 2.385 . S
O453 C458 1.255 . S
Cd454 O453 2.385 . S
Cd454 O455 2.317 . S
O455 Cd454 2.317 . S
O455 C456 1.232 . S
C456 O455 1.232 . S
C456 O457 1.218 . S
O457 C456 1.218 . S
C458 O451 1.275 . S
C458 O453 1.255 . S
C459 O460 1.258 . S
C459 O461 1.256 . S
O460 Cd452 2.381 . S
O460 C459 1.258 . S
O461 Cd452 2.378 . S
O461 C459 1.256 . S
O462 Cd463 2.300 . S
O462 C469 1.275 . S
Cd463 O462 2.300 . S
Cd463 O471 2.381 . S
Cd463 O472 2.378 . S
O464 Cd465 2.385 1_554 S
O464 C469 1.255 . S
Cd465 O464 2.385 1_556 S
Cd465 O466 2.317 . S
O466 Cd465 2.317 . S
O466 C467 1.232 . S
C467 O466 1.232 . S
C467 O468 1.218 . S
O468 C467 1.218 . S
C469 O462 1.275 . S
C469 O464 1.255 . S
C470 O471 1.258 . S
C470 O472 1.256 . S
O471 Cd463 2.381 . S
O471 C470 1.258 . S
O472 Cd463 2.378 . S
O472 C470 1.256 . S
O473 Cd474 2.300 . S
O473 C480 1.275 . S
Cd474 O473 2.300 . S
Cd474 O482 2.381 . S
Cd474 O483 2.378 . S
O475 Cd476 2.385 . S
O475 C480 1.255 . S
Cd476 O475 2.385 . S
Cd476 O477 2.317 . S
O477 Cd476 2.317 . S
O477 C478 1.232 . S
C478 O477 1.232 . S
C478 O479 1.218 . S
O479 C478 1.218 . S
C480 O473 1.275 . S
C480 O475 1.255 . S
C481 O482 1.258 . S
C481 O483 1.256 . S
O482 Cd474 2.381 . S
O482 C481 1.258 . S
O483 Cd474 2.378 . S
O483 C481 1.256 . S
O484 Cd485 2.300 . S
O484 C491 1.275 . S
Cd485 O484 2.300 . S
Cd485 O493 2.381 . S
Cd485 O494 2.378 . S
O486 Cd487 2.385 . S
O486 C491 1.255 . S
Cd487 O486 2.385 . S
Cd487 O488 2.317 . S
O488 Cd487 2.317 . S
O488 C489 1.232 . S
C489 O488 1.232 . S
C489 O490 1.218 . S
O490 C489 1.218 . S
C491 O484 1.275 . S
C491 O486 1.255 . S
C492 O493 1.258 . S
C492 O494 1.256 . S
O493 Cd485 2.381 . S
O493 C492 1.258 . S
O494 Cd485 2.378 . S
O494 C492 1.256 . S
O495 Cd496 2.300 . S
O495 C502 1.275 . S
Cd496 O495 2.300 . S
Cd496 O504 2.381 . S
Cd496 O505 2.378 . S
O497 Cd498 2.385 . S
O497 C502 1.255 . S
Cd498 O497 2.385 . S
Cd498 O499 2.317 . S
O499 Cd498 2.317 . S
O499 C500 1.232 . S
C500 O499 1.232 . S
C500 O501 1.218 . S
O501 C500 1.218 . S
C502 O495 1.275 . S
C502 O497 1.255 . S
C503 O504 1.258 . S
C503 O505 1.256 . S
O504 Cd496 2.381 . S
O504 C503 1.258 . S
O505 Cd496 2.378 . S
O505 C503 1.256 . S
O506 Cd507 2.300 . S
O506 C513 1.275 . S
Cd507 O506 2.300 . S
Cd507 O515 2.381 . S
Cd507 O516 2.378 . S
O508 Cd509 2.385 . S
O508 C513 1.255 . S
Cd509 O508 2.385 . S
Cd509 O510 2.317 . S
O510 Cd509 2.317 . S
O510 C511 1.232 . S
C511 O510 1.232 . S
C511 O512 1.218 . S
O512 C511 1.218 . S
C513 O506 1.275 . S
C513 O508 1.255 . S
C514 O515 1.258 . S
C514 O516 1.256 . S
O515 Cd507 2.381 . S
O515 C514 1.258 . S
O516 Cd507 2.378 . S
O516 C514 1.256 . S
O517 Cd518 2.300 . S
O517 C524 1.275 . S
Cd518 O517 2.300 . S
Cd518 O526 2.381 . S
Cd518 O527 2.378 . S
O519 Cd520 2.385 . S
O519 C524 1.255 . S
Cd520 O519 2.385 . S
Cd520 O521 2.317 . S
O521 Cd520 2.317 . S
O521 C522 1.232 . S
C522 O521 1.232 . S
C522 O523 1.218 . S
O523 C522 1.218 . S
C524 O517 1.275 . S
C524 O519 1.255 . S
C525 O526 1.258 . S
C525 O527 1.256 . S
O526 Cd518 2.381 . S
O526 C525 1.258 . S
O527 Cd518 2.378 . S
O527 C525 1.256 . S
H528 C529 0.949 . S
C529 H528 0.949 . S
C529 C530 1.395 . S
C529 C531 1.391 . S
C530 C529 1.395 . S
C530 C533 1.390 . S
C531 C529 1.391 . S
C531 C535 1.387 . S
C531 C536 1.491 . S
H532 C533 0.950 . S
C533 C530 1.390 . S
C533 H532 0.950 . S
C533 C534 1.378 . S
C534 C533 1.378 . S
C534 C535 1.409 . S
C535 C531 1.387 . S
C535 C534 1.409 . S
C535 H537 0.951 . S
C536 C531 1.491 . S
C536 C538 1.382 . S
C536 C540 1.404 . S
H537 C535 0.951 . S
C538 C536 1.382 . S
C538 C539 1.390 . S
C538 H543 0.949 . S
C539 C538 1.390 . S
C539 C544 1.399 . S
C540 C536 1.404 . S
C540 H541 0.950 . S
C540 C542 1.375 . S
H541 C540 0.950 . S
C542 C540 1.375 . S
C542 C544 1.382 . S
C542 H546 0.950 . S
H543 C538 0.949 . S
C544 C539 1.399 . S
C544 C542 1.382 . S
C544 H545 0.952 . S
H545 C544 0.952 . S
H546 C542 0.950 . S
H547 C548 0.949 . S
C548 H547 0.949 . S
C548 C549 1.395 . S
C548 C550 1.391 . S
C549 C548 1.395 . S
C549 C552 1.390 . S
C550 C548 1.391 . S
C550 C554 1.387 . S
C550 C555 1.491 . S
H551 C552 0.950 . S
C552 C549 1.390 . S
C552 H551 0.950 . S
C552 C553 1.378 . S
C553 C552 1.378 . S
C553 C554 1.409 . S
C554 C550 1.387 . S
C554 C553 1.409 . S
C554 H556 0.951 . S
C555 C550 1.491 . S
C555 C557 1.382 . S
C555 C559 1.404 . S
H556 C554 0.951 . S
C557 C555 1.382 . S
C557 C558 1.390 . S
C557 H562 0.949 . S
C558 C557 1.390 . S
C558 C563 1.399 . S
C559 C555 1.404 . S
C559 H560 0.950 . S
C559 C561 1.375 . S
H560 C559 0.950 . S
C561 C559 1.375 . S
C561 C563 1.382 . S
C561 H565 0.950 . S
H562 C557 0.949 . S
C563 C558 1.399 . S
C563 C561 1.382 . S
C563 H564 0.952 . S
H564 C563 0.952 . S
H565 C561 0.950 . S
H566 C567 0.949 . S
C567 H566 0.949 . S
C567 C568 1.395 . S
C567 C569 1.391 . S
C568 C567 1.395 . S
C568 C571 1.390 . S
C569 C567 1.391 . S
C569 C573 1.387 . S
C569 C574 1.491 . S
H570 C571 0.950 . S
C571 C568 1.390 . S
C571 H570 0.950 . S
C571 C572 1.378 . S
C572 C571 1.378 . S
C572 C573 1.409 . S
C573 C569 1.387 . S
C573 C572 1.409 . S
C573 H575 0.951 . S
C574 C569 1.491 . S
C574 C576 1.382 . S
C574 C578 1.404 . S
H575 C573 0.951 . S
C576 C574 1.382 . S
C576 C577 1.390 . S
C576 H581 0.949 . S
C577 C576 1.390 . S
C577 C582 1.399 . S
C578 C574 1.404 . S
C578 H579 0.950 . S
C578 C580 1.375 . S
H579 C578 0.950 . S
C580 C578 1.375 . S
C580 C582 1.382 . S
C580 H584 0.950 . S
H581 C576 0.949 . S
C582 C577 1.399 . S
C582 C580 1.382 . S
C582 H583 0.952 . S
H583 C582 0.952 . S
H584 C580 0.950 . S
H585 C586 0.949 . S
C586 H585 0.949 . S
C586 C587 1.395 . S
C586 C588 1.391 . S
C587 C586 1.395 . S
C587 C590 1.390 . S
C588 C586 1.391 . S
C588 C592 1.387 . S
C588 C593 1.491 . S
H589 C590 0.950 . S
C590 C587 1.390 . S
C590 H589 0.950 . S
C590 C591 1.378 . S
C591 C590 1.378 . S
C591 C592 1.409 . S
C592 C588 1.387 . S
C592 C591 1.409 . S
C592 H594 0.951 . S
C593 C588 1.491 . S
C593 C595 1.382 . S
C593 C597 1.404 . S
H594 C592 0.951 . S
C595 C593 1.382 . S
C595 C596 1.390 . S
C595 H600 0.949 . S
C596 C595 1.390 . S
C596 C601 1.399 . S
C597 C593 1.404 . S
C597 H598 0.950 . S
C597 C599 1.375 . S
H598 C597 0.950 . S
C599 C597 1.375 . S
C599 C601 1.382 . S
C599 H603 0.950 . S
H600 C595 0.949 . S
C601 C596 1.399 . S
C601 C599 1.382 . S
C601 H602 0.952 . S
H602 C601 0.952 . S
H603 C599 0.950 . S
H604 C605 0.949 . S
C605 H604 0.949 . S
C605 C606 1.395 . S
C605 C607 1.391 . S
C606 C605 1.395 . S
C606 C609 1.390 . S
C607 C605 1.391 . S
C607 C611 1.387 . S
C607 C612 1.491 . S
H608 C609 0.950 . S
C609 C606 1.390 . S
C609 H608 0.950 . S
C609 C610 1.378 . S
C610 C609 1.378 . S
C610 C611 1.409 . S
C611 C607 1.387 . S
C611 C610 1.409 . S
C611 H613 0.951 . S
C612 C607 1.491 . S
C612 C614 1.382 . S
C612 C616 1.404 . S
H613 C611 0.951 . S
C614 C612 1.382 . S
C614 C615 1.390 . S
C614 H619 0.949 . S
C615 C614 1.390 . S
C615 C620 1.399 . S
C616 C612 1.404 . S
C616 H617 0.950 . S
C616 C618 1.375 . S
H617 C616 0.950 . S
C618 C616 1.375 . S
C618 C620 1.382 . S
C618 H622 0.950 . S
H619 C614 0.949 . S
C620 C615 1.399 . S
C620 C618 1.382 . S
C620 H621 0.952 . S
H621 C620 0.952 . S
H622 C618 0.950 . S
H623 C624 0.949 . S
C624 H623 0.949 . S
C624 C625 1.395 . S
C624 C626 1.391 . S
C625 C624 1.395 . S
C625 C628 1.390 . S
C626 C624 1.391 . S
C626 C630 1.387 . S
C626 C631 1.491 . S
H627 C628 0.950 . S
C628 C625 1.390 . S
C628 H627 0.950 . S
C628 C629 1.378 . S
C629 C628 1.378 . S
C629 C630 1.409 . S
C630 C626 1.387 . S
C630 C629 1.409 . S
C630 H632 0.951 . S
C631 C626 1.491 . S
C631 C633 1.382 . S
C631 C635 1.404 . S
H632 C630 0.951 . S
C633 C631 1.382 . S
C633 C634 1.390 . S
C633 H638 0.949 . S
C634 C633 1.390 . S
C634 C639 1.399 . S
C635 C631 1.404 . S
C635 H636 0.950 . S
C635 C637 1.375 . S
H636 C635 0.950 . S
C637 C635 1.375 . S
C637 C639 1.382 . S
C637 H641 0.950 . S
H638 C633 0.949 . S
C639 C634 1.399 . S
C639 C637 1.382 . S
C639 H640 0.952 . S
H640 C639 0.952 . S
H641 C637 0.950 . S
H642 C643 0.949 . S
C643 H642 0.949 . S
C643 C644 1.395 . S
C643 C645 1.391 . S
C644 C643 1.395 . S
C644 C647 1.390 . S
C645 C643 1.391 . S
C645 C649 1.387 . S
C645 C650 1.491 . S
H646 C647 0.950 . S
C647 C644 1.390 . S
C647 H646 0.950 . S
C647 C648 1.378 . S
C648 C647 1.378 . S
C648 C649 1.409 . S
C649 C645 1.387 . S
C649 C648 1.409 . S
C649 H651 0.951 . S
C650 C645 1.491 . S
C650 C652 1.382 . S
C650 C654 1.404 . S
H651 C649 0.951 . S
C652 C650 1.382 . S
C652 C653 1.390 . S
C652 H657 0.949 . S
C653 C652 1.390 . S
C653 C658 1.399 . S
C654 C650 1.404 . S
C654 H655 0.950 . S
C654 C656 1.375 . S
H655 C654 0.950 . S
C656 C654 1.375 . S
C656 C658 1.382 . S
C656 H660 0.950 . S
H657 C652 0.949 . S
C658 C653 1.399 . S
C658 C656 1.382 . S
C658 H659 0.952 . S
H659 C658 0.952 . S
H660 C656 0.950 . S
H661 C662 0.949 . S
C662 H661 0.949 . S
C662 C663 1.395 . S
C662 C664 1.391 . S
C663 C662 1.395 . S
C663 C666 1.390 . S
C664 C662 1.391 . S
C664 C668 1.387 . S
C664 C669 1.491 . S
H665 C666 0.950 . S
C666 C663 1.390 . S
C666 H665 0.950 . S
C666 C667 1.378 . S
C667 C666 1.378 . S
C667 C668 1.409 . S
C668 C664 1.387 . S
C668 C667 1.409 . S
C668 H670 0.951 . S
C669 C664 1.491 . S
C669 C671 1.382 . S
C669 C673 1.404 . S
H670 C668 0.951 . S
C671 C669 1.382 . S
C671 C672 1.390 . S
C671 H676 0.949 . S
C672 C671 1.390 . S
C672 C677 1.399 . S
C673 C669 1.404 . S
C673 H674 0.950 . S
C673 C675 1.375 . S
H674 C673 0.950 . S
C675 C673 1.375 . S
C675 C677 1.382 . S
C675 H679 0.950 . S
H676 C671 0.949 . S
C677 C672 1.399 . S
C677 C675 1.382 . S
C677 H678 0.952 . S
H678 C677 0.952 . S
H679 C675 0.950 . S
H680 C681 0.949 . S
C681 H680 0.949 . S
C681 C682 1.395 . S
C681 C683 1.391 . S
C682 C681 1.395 . S
C682 C685 1.390 . S
C683 C681 1.391 . S
C683 C687 1.387 . S
C683 C688 1.491 . S
H684 C685 0.950 . S
C685 C682 1.390 . S
C685 H684 0.950 . S
C685 C686 1.378 . S
C686 C685 1.378 . S
C686 C687 1.409 . S
C687 C683 1.387 . S
C687 C686 1.409 . S
C687 H689 0.951 . S
C688 C683 1.491 . S
C688 C690 1.382 . S
C688 C692 1.404 . S
H689 C687 0.951 . S
C690 C688 1.382 . S
C690 C691 1.390 . S
C690 H695 0.949 . S
C691 C690 1.390 . S
C691 C696 1.399 . S
C692 C688 1.404 . S
C692 H693 0.950 . S
C692 C694 1.375 . S
H693 C692 0.950 . S
C694 C692 1.375 . S
C694 C696 1.382 . S
C694 H698 0.950 . S
H695 C690 0.949 . S
C696 C691 1.399 . S
C696 C694 1.382 . S
C696 H697 0.952 . S
H697 C696 0.952 . S
H698 C694 0.950 . S
H699 C700 0.949 . S
C700 H699 0.949 . S
C700 C701 1.395 . S
C700 C702 1.391 . S
C701 C700 1.395 . S
C701 C704 1.390 . S
C702 C700 1.391 . S
C702 C706 1.387 . S
C702 C707 1.491 . S
H703 C704 0.950 . S
C704 C701 1.390 . S
C704 H703 0.950 . S
C704 C705 1.378 . S
C705 C704 1.378 . S
C705 C706 1.409 . S
C706 C702 1.387 . S
C706 C705 1.409 . S
C706 H708 0.951 . S
C707 C702 1.491 . S
C707 C709 1.382 . S
C707 C711 1.404 . S
H708 C706 0.951 . S
C709 C707 1.382 . S
C709 C710 1.390 . S
C709 H714 0.949 . S
C710 C709 1.390 . S
C710 C715 1.399 . S
C711 C707 1.404 . S
C711 H712 0.950 . S
C711 C713 1.375 . S
H712 C711 0.950 . S
C713 C711 1.375 . S
C713 C715 1.382 . S
C713 H717 0.950 . S
H714 C709 0.949 . S
C715 C710 1.399 . S
C715 C713 1.382 . S
C715 H716 0.952 . S
H716 C715 0.952 . S
H717 C713 0.950 . S
H718 C719 0.949 . S
C719 H718 0.949 . S
C719 C720 1.395 . S
C719 C721 1.391 . S
C720 C719 1.395 . S
C720 C723 1.390 . S
C721 C719 1.391 . S
C721 C725 1.387 . S
C721 C726 1.491 . S
H722 C723 0.950 . S
C723 C720 1.390 . S
C723 H722 0.950 . S
C723 C724 1.378 . S
C724 C723 1.378 . S
C724 C725 1.409 . S
C725 C721 1.387 . S
C725 C724 1.409 . S
C725 H727 0.951 . S
C726 C721 1.491 . S
C726 C728 1.382 . S
C726 C730 1.404 . S
H727 C725 0.951 . S
C728 C726 1.382 . S
C728 C729 1.390 . S
C728 H733 0.949 . S
C729 C728 1.390 . S
C729 C734 1.399 . S
C730 C726 1.404 . S
C730 H731 0.950 . S
C730 C732 1.375 . S
H731 C730 0.950 . S
C732 C730 1.375 . S
C732 C734 1.382 . S
C732 H736 0.950 . S
H733 C728 0.949 . S
C734 C729 1.399 . S
C734 C732 1.382 . S
C734 H735 0.952 . S
H735 C734 0.952 . S
H736 C732 0.950 . S
H737 C738 0.949 . S
C738 H737 0.949 . S
C738 C739 1.395 . S
C738 C740 1.391 . S
C739 C738 1.395 . S
C739 C742 1.390 . S
C740 C738 1.391 . S
C740 C744 1.387 . S
C740 C745 1.491 . S
H741 C742 0.950 . S
C742 C739 1.390 . S
C742 H741 0.950 . S
C742 C743 1.378 . S
C743 C742 1.378 . S
C743 C744 1.409 . S
C744 C740 1.387 . S
C744 C743 1.409 . S
C744 H746 0.951 . S
C745 C740 1.491 . S
C745 C747 1.382 . S
C745 C749 1.404 . S
H746 C744 0.951 . S
C747 C745 1.382 . S
C747 C748 1.390 . S
C747 H752 0.949 . S
C748 C747 1.390 . S
C748 C753 1.399 . S
C749 C745 1.404 . S
C749 H750 0.950 . S
C749 C751 1.375 . S
H750 C749 0.950 . S
C751 C749 1.375 . S
C751 C753 1.382 . S
C751 H755 0.950 . S
H752 C747 0.949 . S
C753 C748 1.399 . S
C753 C751 1.382 . S
C753 H754 0.952 . S
H754 C753 0.952 . S
H755 C751 0.950 . S
H756 C757 0.949 . S
C757 H756 0.949 . S
C757 C758 1.395 . S
C757 C759 1.391 . S
C758 C757 1.395 . S
C758 C761 1.390 . S
C759 C757 1.391 . S
C759 C763 1.387 . S
C759 C764 1.491 . S
H760 C761 0.950 . S
C761 C758 1.390 . S
C761 H760 0.950 . S
C761 C762 1.378 . S
C762 C761 1.378 . S
C762 C763 1.409 . S
C763 C759 1.387 . S
C763 C762 1.409 . S
C763 H765 0.951 . S
C764 C759 1.491 . S
C764 C766 1.382 . S
C764 C768 1.404 . S
H765 C763 0.951 . S
C766 C764 1.382 . S
C766 C767 1.390 . S
C766 H771 0.949 . S
C767 C766 1.390 . S
C767 C772 1.399 . S
C768 C764 1.404 . S
C768 H769 0.950 . S
C768 C770 1.375 . S
H769 C768 0.950 . S
C770 C768 1.375 . S
C770 C772 1.382 . S
C770 H774 0.950 . S
H771 C766 0.949 . S
C772 C767 1.399 . S
C772 C770 1.382 . S
C772 H773 0.952 . S
H773 C772 0.952 . S
H774 C770 0.950 . S
H775 C776 0.949 . S
C776 H775 0.949 . S
C776 C777 1.395 . S
C776 C778 1.391 . S
C777 C776 1.395 . S
C777 C780 1.390 . S
C778 C776 1.391 . S
C778 C782 1.387 . S
C778 C783 1.491 . S
H779 C780 0.950 . S
C780 C777 1.390 . S
C780 H779 0.950 . S
C780 C781 1.378 . S
C781 C780 1.378 . S
C781 C782 1.409 . S
C782 C778 1.387 . S
C782 C781 1.409 . S
C782 H784 0.951 . S
C783 C778 1.491 . S
C783 C785 1.382 . S
C783 C787 1.404 . S
H784 C782 0.951 . S
C785 C783 1.382 . S
C785 C786 1.390 . S
C785 H790 0.949 . S
C786 C785 1.390 . S
C786 C791 1.399 . S
C787 C783 1.404 . S
C787 H788 0.950 . S
C787 C789 1.375 . S
H788 C787 0.950 . S
C789 C787 1.375 . S
C789 C791 1.382 . S
C789 H793 0.950 . S
H790 C785 0.949 . S
C791 C786 1.399 . S
C791 C789 1.382 . S
C791 H792 0.952 . S
H792 C791 0.952 . S
H793 C789 0.950 . S
H794 C795 0.949 . S
C795 H794 0.949 . S
C795 C796 1.395 . S
C795 C797 1.391 . S
C796 C795 1.395 . S
C796 C799 1.390 . S
C797 C795 1.391 . S
C797 C801 1.387 . S
C797 C802 1.491 . S
H798 C799 0.950 . S
C799 C796 1.390 . S
C799 H798 0.950 . S
C799 C800 1.378 . S
C800 C799 1.378 . S
C800 C801 1.409 . S
C801 C797 1.387 . S
C801 C800 1.409 . S
C801 H803 0.951 . S
C802 C797 1.491 . S
C802 C804 1.382 . S
C802 C806 1.404 . S
H803 C801 0.951 . S
C804 C802 1.382 . S
C804 C805 1.390 . S
C804 H809 0.949 . S
C805 C804 1.390 . S
C805 C810 1.399 . S
C806 C802 1.404 . S
C806 H807 0.950 . S
C806 C808 1.375 . S
H807 C806 0.950 . S
C808 C806 1.375 . S
C808 C810 1.382 . S
C808 H812 0.950 . S
H809 C804 0.949 . S
C810 C805 1.399 . S
C810 C808 1.382 . S
C810 H811 0.952 . S
H811 C810 0.952 . S
H812 C808 0.950 . S
H813 C814 0.949 . S
C814 H813 0.949 . S
C814 C815 1.395 . S
C814 C816 1.391 . S
C815 C814 1.395 . S
C815 C818 1.390 . S
C816 C814 1.391 . S
C816 C820 1.387 . S
C816 C821 1.491 . S
H817 C818 0.950 . S
C818 C815 1.390 . S
C818 H817 0.950 . S
C818 C819 1.378 . S
C819 C818 1.378 . S
C819 C820 1.409 . S
C820 C816 1.387 . S
C820 C819 1.409 . S
C820 H822 0.951 . S
C821 C816 1.491 . S
C821 C823 1.382 . S
C821 C825 1.404 . S
H822 C820 0.951 . S
C823 C821 1.382 . S
C823 C824 1.390 . S
C823 H828 0.949 . S
C824 C823 1.390 . S
C824 C829 1.399 . S
C825 C821 1.404 . S
C825 H826 0.950 . S
C825 C827 1.375 . S
H826 C825 0.950 . S
C827 C825 1.375 . S
C827 C829 1.382 . S
C827 H831 0.950 . S
H828 C823 0.949 . S
C829 C824 1.399 . S
C829 C827 1.382 . S
C829 H830 0.952 . S
H830 C829 0.952 . S
H831 C827 0.950 . S
H832 C833 0.949 . S
C833 H832 0.949 . S
C833 C834 1.395 . S
C833 C835 1.391 . S
C834 C833 1.395 . S
C834 C837 1.390 . S
C835 C833 1.391 . S
C835 C839 1.387 . S
C835 C840 1.491 . S
H836 C837 0.950 . S
C837 C834 1.390 . S
C837 H836 0.950 . S
C837 C838 1.378 . S
C838 C837 1.378 . S
C838 C839 1.409 . S
C839 C835 1.387 . S
C839 C838 1.409 . S
C839 H841 0.951 . S
C840 C835 1.491 . S
C840 C842 1.382 . S
C840 C844 1.404 . S
H841 C839 0.951 . S
C842 C840 1.382 . S
C842 C843 1.390 . S
C842 H847 0.949 . S
C843 C842 1.390 . S
C843 C848 1.399 . S
C844 C840 1.404 . S
C844 H845 0.950 . S
C844 C846 1.375 . S
H845 C844 0.950 . S
C846 C844 1.375 . S
C846 C848 1.382 . S
C846 H850 0.950 . S
H847 C842 0.949 . S
C848 C843 1.399 . S
C848 C846 1.382 . S
C848 H849 0.952 . S
H849 C848 0.952 . S
H850 C846 0.950 . S
H851 C852 0.949 . S
C852 H851 0.949 . S
C852 C853 1.395 . S
C852 C854 1.391 . S
C853 C852 1.395 . S
C853 C856 1.390 . S
C854 C852 1.391 . S
C854 C858 1.387 . S
C854 C859 1.491 . S
H855 C856 0.950 . S
C856 C853 1.390 . S
C856 H855 0.950 . S
C856 C857 1.378 . S
C857 C856 1.378 . S
C857 C858 1.409 . S
C858 C854 1.387 . S
C858 C857 1.409 . S
C858 H860 0.951 . S
C859 C854 1.491 . S
C859 C861 1.382 . S
C859 C863 1.404 . S
H860 C858 0.951 . S
C861 C859 1.382 . S
C861 C862 1.390 . S
C861 H866 0.949 . S
C862 C861 1.390 . S
C862 C867 1.399 . S
C863 C859 1.404 . S
C863 H864 0.950 . S
C863 C865 1.375 . S
H864 C863 0.950 . S
C865 C863 1.375 . S
C865 C867 1.382 . S
C865 H869 0.950 . S
H866 C861 0.949 . S
C867 C862 1.399 . S
C867 C865 1.382 . S
C867 H868 0.952 . S
H868 C867 0.952 . S
H869 C865 0.950 . S
H870 C871 0.949 . S
C871 H870 0.949 . S
C871 C872 1.395 . S
C871 C873 1.391 . S
C872 C871 1.395 . S
C872 C875 1.390 . S
C873 C871 1.391 . S
C873 C877 1.387 . S
C873 C878 1.491 . S
H874 C875 0.950 . S
C875 C872 1.390 . S
C875 H874 0.950 . S
C875 C876 1.378 . S
C876 C875 1.378 . S
C876 C877 1.409 . S
C877 C873 1.387 . S
C877 C876 1.409 . S
C877 H879 0.951 . S
C878 C873 1.491 . S
C878 C880 1.382 . S
C878 C882 1.404 . S
H879 C877 0.951 . S
C880 C878 1.382 . S
C880 C881 1.390 . S
C880 H885 0.949 . S
C881 C880 1.390 . S
C881 C886 1.399 . S
C882 C878 1.404 . S
C882 H883 0.950 . S
C882 C884 1.375 . S
H883 C882 0.950 . S
C884 C882 1.375 . S
C884 C886 1.382 . S
C884 H888 0.950 . S
H885 C880 0.949 . S
C886 C881 1.399 . S
C886 C884 1.382 . S
C886 H887 0.952 . S
H887 C886 0.952 . S
H888 C884 0.950 . S
H889 C890 0.949 . S
C890 H889 0.949 . S
C890 C891 1.395 . S
C890 C892 1.391 . S
C891 C890 1.395 . S
C891 C894 1.390 . S
C892 C890 1.391 . S
C892 C896 1.387 . S
C892 C897 1.491 . S
H893 C894 0.950 . S
C894 C891 1.390 . S
C894 H893 0.950 . S
C894 C895 1.378 . S
C895 C894 1.378 . S
C895 C896 1.409 . S
C896 C892 1.387 . S
C896 C895 1.409 . S
C896 H898 0.951 . S
C897 C892 1.491 . S
C897 C899 1.382 . S
C897 C901 1.404 . S
H898 C896 0.951 . S
C899 C897 1.382 . S
C899 C900 1.390 . S
C899 H904 0.949 . S
C900 C899 1.390 . S
C900 C905 1.399 . S
C901 C897 1.404 . S
C901 H902 0.950 . S
C901 C903 1.375 . S
H902 C901 0.950 . S
C903 C901 1.375 . S
C903 C905 1.382 . S
C903 H907 0.950 . S
H904 C899 0.949 . S
C905 C900 1.399 . S
C905 C903 1.382 . S
C905 H906 0.952 . S
H906 C905 0.952 . S
H907 C903 0.950 . S
H908 C909 0.949 . S
C909 H908 0.949 . S
C909 C910 1.395 . S
C909 C911 1.391 . S
C910 C909 1.395 . S
C910 C913 1.390 . S
C911 C909 1.391 . S
C911 C915 1.387 . S
C911 C916 1.491 . S
H912 C913 0.950 . S
C913 C910 1.390 . S
C913 H912 0.950 . S
C913 C914 1.378 . S
C914 C913 1.378 . S
C914 C915 1.409 . S
C915 C911 1.387 . S
C915 C914 1.409 . S
C915 H917 0.951 . S
C916 C911 1.491 . S
C916 C918 1.382 . S
C916 C920 1.404 . S
H917 C915 0.951 . S
C918 C916 1.382 . S
C918 C919 1.390 . S
C918 H923 0.949 . S
C919 C918 1.390 . S
C919 C924 1.399 . S
C920 C916 1.404 . S
C920 H921 0.950 . S
C920 C922 1.375 . S
H921 C920 0.950 . S
C922 C920 1.375 . S
C922 C924 1.382 . S
C922 H926 0.950 . S
H923 C918 0.949 . S
C924 C919 1.399 . S
C924 C922 1.382 . S
C924 H925 0.952 . S
H925 C924 0.952 . S
H926 C922 0.950 . S
H927 C928 0.949 . S
C928 H927 0.949 . S
C928 C929 1.395 . S
C928 C930 1.391 . S
C929 C928 1.395 . S
C929 C932 1.390 . S
C930 C928 1.391 . S
C930 C934 1.387 . S
C930 C935 1.491 . S
H931 C932 0.950 . S
C932 C929 1.390 . S
C932 H931 0.950 . S
C932 C933 1.378 . S
C933 C932 1.378 . S
C933 C934 1.409 . S
C934 C930 1.387 . S
C934 C933 1.409 . S
C934 H936 0.951 . S
C935 C930 1.491 . S
C935 C937 1.382 . S
C935 C939 1.404 . S
H936 C934 0.951 . S
C937 C935 1.382 . S
C937 C938 1.390 . S
C937 H942 0.949 . S
C938 C937 1.390 . S
C938 C943 1.399 . S
C939 C935 1.404 . S
C939 H940 0.950 . S
C939 C941 1.375 . S
H940 C939 0.950 . S
C941 C939 1.375 . S
C941 C943 1.382 . S
C941 H945 0.950 . S
H942 C937 0.949 . S
C943 C938 1.399 . S
C943 C941 1.382 . S
C943 H944 0.952 . S
H944 C943 0.952 . S
H945 C941 0.950 . S
H946 C947 0.949 . S
C947 H946 0.949 . S
C947 C948 1.395 . S
C947 C949 1.391 . S
C948 C947 1.395 . S
C948 C951 1.390 . S
C949 C947 1.391 . S
C949 C953 1.387 . S
C949 C954 1.491 . S
H950 C951 0.950 . S
C951 C948 1.390 . S
C951 H950 0.950 . S
C951 C952 1.378 . S
C952 C951 1.378 . S
C952 C953 1.409 . S
C953 C949 1.387 . S
C953 C952 1.409 . S
C953 H955 0.951 . S
C954 C949 1.491 . S
C954 C956 1.382 . S
C954 C958 1.404 . S
H955 C953 0.951 . S
C956 C954 1.382 . S
C956 C957 1.390 . S
C956 H961 0.949 . S
C957 C956 1.390 . S
C957 C962 1.399 . S
C958 C954 1.404 . S
C958 H959 0.950 . S
C958 C960 1.375 . S
H959 C958 0.950 . S
C960 C958 1.375 . S
C960 C962 1.382 . S
C960 H964 0.950 . S
H961 C956 0.949 . S
C962 C957 1.399 . S
C962 C960 1.382 . S
C962 H963 0.952 . S
H963 C962 0.952 . S
H964 C960 0.950 . S
H965 C966 0.949 . S
C966 H965 0.949 . S
C966 C967 1.395 . S
C966 C968 1.391 . S
C967 C966 1.395 . S
C967 C970 1.390 . S
C968 C966 1.391 . S
C968 C972 1.387 . S
C968 C973 1.491 . S
H969 C970 0.950 . S
C970 C967 1.390 . S
C970 H969 0.950 . S
C970 C971 1.378 . S
C971 C970 1.378 . S
C971 C972 1.409 . S
C972 C968 1.387 . S
C972 C971 1.409 . S
C972 H974 0.951 . S
C973 C968 1.491 . S
C973 C975 1.382 . S
C973 C977 1.404 . S
H974 C972 0.951 . S
C975 C973 1.382 . S
C975 C976 1.390 . S
C975 H980 0.949 . S
C976 C975 1.390 . S
C976 C981 1.399 . S
C977 C973 1.404 . S
C977 H978 0.950 . S
C977 C979 1.375 . S
H978 C977 0.950 . S
C979 C977 1.375 . S
C979 C981 1.382 . S
C979 H983 0.950 . S
H980 C975 0.949 . S
C981 C976 1.399 . S
C981 C979 1.382 . S
C981 H982 0.952 . S
H982 C981 0.952 . S
H983 C979 0.950 . S
H984 C985 0.949 . S
C985 H984 0.949 . S
C985 C986 1.395 . S
C985 C987 1.391 . S
C986 C985 1.395 . S
C986 C989 1.390 . S
C987 C985 1.391 . S
C987 C991 1.387 . S
C987 C992 1.491 . S
H988 C989 0.950 . S
C989 C986 1.390 . S
C989 H988 0.950 . S
C989 C990 1.378 . S
C990 C989 1.378 . S
C990 C991 1.409 . S
C991 C987 1.387 . S
C991 C990 1.409 . S
C991 H993 0.951 . S
C992 C987 1.491 . S
C992 C994 1.382 . S
C992 C996 1.404 . S
H993 C991 0.951 . S
C994 C992 1.382 . S
C994 C995 1.390 . S
C994 H999 0.949 . S
C995 C994 1.390 . S
C995 C1000 1.399 . S
C996 C992 1.404 . S
C996 H997 0.950 . S
C996 C998 1.375 . S
H997 C996 0.950 . S
C998 C996 1.375 . S
C998 C1000 1.382 . S
C998 H1002 0.950 . S
H999 C994 0.949 . S
C1000 C995 1.399 . S
C1000 C998 1.382 . S
C1000 H1001 0.952 . S
H1001 C1000 0.952 . S
H1002 C998 0.950 . S
H1003 C1004 0.949 . S
C1004 H1003 0.949 . S
C1004 C1005 1.395 . S
C1004 C1006 1.391 . S
C1005 C1004 1.395 . S
C1005 C1008 1.390 . S
C1006 C1004 1.391 . S
C1006 C1010 1.387 . S
C1006 C1011 1.491 . S
H1007 C1008 0.950 . S
C1008 C1005 1.390 . S
C1008 H1007 0.950 . S
C1008 C1009 1.378 . S
C1009 C1008 1.378 . S
C1009 C1010 1.409 . S
C1010 C1006 1.387 . S
C1010 C1009 1.409 . S
C1010 H1012 0.951 . S
C1011 C1006 1.491 . S
C1011 C1013 1.382 . S
C1011 C1015 1.404 . S
H1012 C1010 0.951 . S
C1013 C1011 1.382 . S
C1013 C1014 1.390 . S
C1013 H1018 0.949 . S
C1014 C1013 1.390 . S
C1014 C1019 1.399 . S
C1015 C1011 1.404 . S
C1015 H1016 0.950 . S
C1015 C1017 1.375 . S
H1016 C1015 0.950 . S
C1017 C1015 1.375 . S
C1017 C1019 1.382 . S
C1017 H1021 0.950 . S
H1018 C1013 0.949 . S
C1019 C1014 1.399 . S
C1019 C1017 1.382 . S
C1019 H1020 0.952 . S
H1020 C1019 0.952 . S
H1021 C1017 0.950 . S
H1022 C1023 0.949 . S
C1023 H1022 0.949 . S
C1023 C1024 1.395 . S
C1023 C1025 1.391 . S
C1024 C1023 1.395 . S
C1024 C1027 1.390 . S
C1025 C1023 1.391 . S
C1025 C1029 1.387 . S
C1025 C1030 1.491 . S
H1026 C1027 0.950 . S
C1027 C1024 1.390 . S
C1027 H1026 0.950 . S
C1027 C1028 1.378 . S
C1028 C1027 1.378 . S
C1028 C1029 1.409 . S
C1029 C1025 1.387 . S
C1029 C1028 1.409 . S
C1029 H1031 0.951 . S
C1030 C1025 1.491 . S
C1030 C1032 1.382 . S
C1030 C1034 1.404 . S
H1031 C1029 0.951 . S
C1032 C1030 1.382 . S
C1032 C1033 1.390 . S
C1032 H1037 0.949 . S
C1033 C1032 1.390 . S
C1033 C1038 1.399 . S
C1034 C1030 1.404 . S
C1034 H1035 0.950 . S
C1034 C1036 1.375 . S
H1035 C1034 0.950 . S
C1036 C1034 1.375 . S
C1036 C1038 1.382 . S
C1036 H1040 0.950 . S
H1037 C1032 0.949 . S
C1038 C1033 1.399 . S
C1038 C1036 1.382 . S
C1038 H1039 0.952 . S
H1039 C1038 0.952 . S
H1040 C1036 0.950 . S
H1041 C1042 0.949 . S
C1042 H1041 0.949 . S
C1042 C1043 1.395 . S
C1042 C1044 1.391 . S
C1043 C1042 1.395 . S
C1043 C1046 1.390 . S
C1044 C1042 1.391 . S
C1044 C1048 1.387 . S
C1044 C1049 1.491 . S
H1045 C1046 0.950 . S
C1046 C1043 1.390 . S
C1046 H1045 0.950 . S
C1046 C1047 1.378 . S
C1047 C1046 1.378 . S
C1047 C1048 1.409 . S
C1048 C1044 1.387 . S
C1048 C1047 1.409 . S
C1048 H1050 0.951 . S
C1049 C1044 1.491 . S
C1049 C1051 1.382 . S
C1049 C1053 1.404 . S
H1050 C1048 0.951 . S
C1051 C1049 1.382 . S
C1051 C1052 1.390 . S
C1051 H1056 0.949 . S
C1052 C1051 1.390 . S
C1052 C1057 1.399 . S
C1053 C1049 1.404 . S
C1053 H1054 0.950 . S
C1053 C1055 1.375 . S
H1054 C1053 0.950 . S
C1055 C1053 1.375 . S
C1055 C1057 1.382 . S
C1055 H1059 0.950 . S
H1056 C1051 0.949 . S
C1057 C1052 1.399 . S
C1057 C1055 1.382 . S
C1057 H1058 0.952 . S
H1058 C1057 0.952 . S
H1059 C1055 0.950 . S
H1060 C1061 0.949 . S
C1061 H1060 0.949 . S
C1061 C1062 1.395 . S
C1061 C1063 1.391 . S
C1062 C1061 1.395 . S
C1062 C1065 1.390 . S
C1063 C1061 1.391 . S
C1063 C1067 1.387 . S
C1063 C1068 1.491 . S
H1064 C1065 0.950 . S
C1065 C1062 1.390 . S
C1065 H1064 0.950 . S
C1065 C1066 1.378 . S
C1066 C1065 1.378 . S
C1066 C1067 1.409 . S
C1067 C1063 1.387 . S
C1067 C1066 1.409 . S
C1067 H1069 0.951 . S
C1068 C1063 1.491 . S
C1068 C1070 1.382 . S
C1068 C1072 1.404 . S
H1069 C1067 0.951 . S
C1070 C1068 1.382 . S
C1070 C1071 1.390 . S
C1070 H1075 0.949 . S
C1071 C1070 1.390 . S
C1071 C1076 1.399 . S
C1072 C1068 1.404 . S
C1072 H1073 0.950 . S
C1072 C1074 1.375 . S
H1073 C1072 0.950 . S
C1074 C1072 1.375 . S
C1074 C1076 1.382 . S
C1074 H1078 0.950 . S
H1075 C1070 0.949 . S
C1076 C1071 1.399 . S
C1076 C1074 1.382 . S
C1076 H1077 0.952 . S
H1077 C1076 0.952 . S
H1078 C1074 0.950 . S
H1079 C1080 0.949 . S
C1080 H1079 0.949 . S
C1080 C1081 1.395 . S
C1080 C1082 1.391 . S
C1081 C1080 1.395 . S
C1081 C1084 1.390 . S
C1082 C1080 1.391 . S
C1082 C1086 1.387 . S
C1082 C1087 1.491 . S
H1083 C1084 0.950 . S
C1084 C1081 1.390 . S
C1084 H1083 0.950 . S
C1084 C1085 1.378 . S
C1085 C1084 1.378 . S
C1085 C1086 1.409 . S
C1086 C1082 1.387 . S
C1086 C1085 1.409 . S
C1086 H1088 0.951 . S
C1087 C1082 1.491 . S
C1087 C1089 1.382 . S
C1087 C1091 1.404 . S
H1088 C1086 0.951 . S
C1089 C1087 1.382 . S
C1089 C1090 1.390 . S
C1089 H1094 0.949 . S
C1090 C1089 1.390 . S
C1090 C1095 1.399 . S
C1091 C1087 1.404 . S
C1091 H1092 0.950 . S
C1091 C1093 1.375 . S
H1092 C1091 0.950 . S
C1093 C1091 1.375 . S
C1093 C1095 1.382 . S
C1093 H1097 0.950 . S
H1094 C1089 0.949 . S
C1095 C1090 1.399 . S
C1095 C1093 1.382 . S
C1095 H1096 0.952 . S
H1096 C1095 0.952 . S
H1097 C1093 0.950 . S
H1098 C1099 0.949 . S
C1099 H1098 0.949 . S
C1099 C1100 1.395 . S
C1099 C1101 1.391 . S
C1100 C1099 1.395 . S
C1100 C1103 1.390 . S
C1101 C1099 1.391 . S
C1101 C1105 1.387 . S
C1101 C1106 1.491 . S
H1102 C1103 0.950 . S
C1103 C1100 1.390 . S
C1103 H1102 0.950 . S
C1103 C1104 1.378 . S
C1104 C1103 1.378 . S
C1104 C1105 1.409 . S
C1105 C1101 1.387 . S
C1105 C1104 1.409 . S
C1105 H1107 0.951 . S
C1106 C1101 1.491 . S
C1106 C1108 1.382 . S
C1106 C1110 1.404 . S
H1107 C1105 0.951 . S
C1108 C1106 1.382 . S
C1108 C1109 1.390 . S
C1108 H1113 0.949 . S
C1109 C1108 1.390 . S
C1109 C1114 1.399 . S
C1110 C1106 1.404 . S
C1110 H1111 0.950 . S
C1110 C1112 1.375 . S
H1111 C1110 0.950 . S
C1112 C1110 1.375 . S
C1112 C1114 1.382 . S
C1112 H1116 0.950 . S
H1113 C1108 0.949 . S
C1114 C1109 1.399 . S
C1114 C1112 1.382 . S
C1114 H1115 0.952 . S
H1115 C1114 0.952 . S
H1116 C1112 0.950 . S
H1117 C1118 0.949 . S
C1118 H1117 0.949 . S
C1118 C1119 1.395 . S
C1118 C1120 1.391 . S
C1119 C1118 1.395 . S
C1119 C1122 1.390 . S
C1120 C1118 1.391 . S
C1120 C1124 1.387 . S
C1120 C1125 1.491 . S
H1121 C1122 0.950 . S
C1122 C1119 1.390 . S
C1122 H1121 0.950 . S
C1122 C1123 1.378 . S
C1123 C1122 1.378 . S
C1123 C1124 1.409 . S
C1124 C1120 1.387 . S
C1124 C1123 1.409 . S
C1124 H1126 0.951 . S
C1125 C1120 1.491 . S
C1125 C1127 1.382 . S
C1125 C1129 1.404 . S
H1126 C1124 0.951 . S
C1127 C1125 1.382 . S
C1127 C1128 1.390 . S
C1127 H1132 0.949 . S
C1128 C1127 1.390 . S
C1128 C1133 1.399 . S
C1129 C1125 1.404 . S
C1129 H1130 0.950 . S
C1129 C1131 1.375 . S
H1130 C1129 0.950 . S
C1131 C1129 1.375 . S
C1131 C1133 1.382 . S
C1131 H1135 0.950 . S
H1132 C1127 0.949 . S
C1133 C1128 1.399 . S
C1133 C1131 1.382 . S
C1133 H1134 0.952 . S
H1134 C1133 0.952 . S
H1135 C1131 0.950 . S
H1136 C1137 0.949 . S
C1137 H1136 0.949 . S
C1137 C1138 1.395 . S
C1137 C1139 1.391 . S
C1138 C1137 1.395 . S
C1138 C1141 1.390 . S
C1139 C1137 1.391 . S
C1139 C1143 1.387 . S
C1139 C1144 1.491 . S
H1140 C1141 0.950 . S
C1141 C1138 1.390 . S
C1141 H1140 0.950 . S
C1141 C1142 1.378 . S
C1142 C1141 1.378 . S
C1142 C1143 1.409 . S
C1143 C1139 1.387 . S
C1143 C1142 1.409 . S
C1143 H1145 0.951 . S
C1144 C1139 1.491 . S
C1144 C1146 1.382 . S
C1144 C1148 1.404 . S
H1145 C1143 0.951 . S
C1146 C1144 1.382 . S
C1146 C1147 1.390 . S
C1146 H1151 0.949 . S
C1147 C1146 1.390 . S
C1147 C1152 1.399 . S
C1148 C1144 1.404 . S
C1148 H1149 0.950 . S
C1148 C1150 1.375 . S
H1149 C1148 0.950 . S
C1150 C1148 1.375 . S
C1150 C1152 1.382 . S
C1150 H1154 0.950 . S
H1151 C1146 0.949 . S
C1152 C1147 1.399 . S
C1152 C1150 1.382 . S
C1152 H1153 0.952 . S
H1153 C1152 0.952 . S
H1154 C1150 0.950 . S
H1155 C1156 0.949 . S
C1156 H1155 0.949 . S
C1156 C1157 1.395 . S
C1156 C1158 1.391 . S
C1157 C1156 1.395 . S
C1157 C1160 1.390 . S
C1158 C1156 1.391 . S
C1158 C1162 1.387 . S
C1158 C1163 1.491 . S
H1159 C1160 0.950 . S
C1160 C1157 1.390 . S
C1160 H1159 0.950 . S
C1160 C1161 1.378 . S
C1161 C1160 1.378 . S
C1161 C1162 1.409 . S
C1162 C1158 1.387 . S
C1162 C1161 1.409 . S
C1162 H1164 0.951 . S
C1163 C1158 1.491 . S
C1163 C1165 1.382 . S
C1163 C1167 1.404 . S
H1164 C1162 0.951 . S
C1165 C1163 1.382 . S
C1165 C1166 1.390 . S
C1165 H1170 0.949 . S
C1166 C1165 1.390 . S
C1166 C1171 1.399 . S
C1167 C1163 1.404 . S
C1167 H1168 0.950 . S
C1167 C1169 1.375 . S
H1168 C1167 0.950 . S
C1169 C1167 1.375 . S
C1169 C1171 1.382 . S
C1169 H1173 0.950 . S
H1170 C1165 0.949 . S
C1171 C1166 1.399 . S
C1171 C1169 1.382 . S
C1171 H1172 0.952 . S
H1172 C1171 0.952 . S
H1173 C1169 0.950 . S
H1174 C1175 0.949 . S
C1175 H1174 0.949 . S
C1175 C1176 1.395 . S
C1175 C1177 1.391 . S
C1176 C1175 1.395 . S
C1176 C1179 1.390 . S
C1177 C1175 1.391 . S
C1177 C1181 1.387 . S
C1177 C1182 1.491 . S
H1178 C1179 0.950 . S
C1179 C1176 1.390 . S
C1179 H1178 0.950 . S
C1179 C1180 1.378 . S
C1180 C1179 1.378 . S
C1180 C1181 1.409 . S
C1181 C1177 1.387 . S
C1181 C1180 1.409 . S
C1181 H1183 0.951 . S
C1182 C1177 1.491 . S
C1182 C1184 1.382 . S
C1182 C1186 1.404 . S
H1183 C1181 0.951 . S
C1184 C1182 1.382 . S
C1184 C1185 1.390 . S
C1184 H1189 0.949 . S
C1185 C1184 1.390 . S
C1185 C1190 1.399 . S
C1186 C1182 1.404 . S
C1186 H1187 0.950 . S
C1186 C1188 1.375 . S
H1187 C1186 0.950 . S
C1188 C1186 1.375 . S
C1188 C1190 1.382 . S
C1188 H1192 0.950 . S
H1189 C1184 0.949 . S
C1190 C1185 1.399 . S
C1190 C1188 1.382 . S
C1190 H1191 0.952 . S
H1191 C1190 0.952 . S
H1192 C1188 0.950 . S
H1193 C1194 0.949 . S
C1194 H1193 0.949 . S
C1194 C1195 1.395 . S
C1194 C1196 1.391 . S
C1195 C1194 1.395 . S
C1195 C1198 1.390 . S
C1196 C1194 1.391 . S
C1196 C1200 1.387 . S
C1196 C1201 1.491 . S
H1197 C1198 0.950 . S
C1198 C1195 1.390 . S
C1198 H1197 0.950 . S
C1198 C1199 1.378 . S
C1199 C1198 1.378 . S
C1199 C1200 1.409 . S
C1200 C1196 1.387 . S
C1200 C1199 1.409 . S
C1200 H1202 0.951 . S
C1201 C1196 1.491 . S
C1201 C1203 1.382 . S
C1201 C1205 1.404 . S
H1202 C1200 0.951 . S
C1203 C1201 1.382 . S
C1203 C1204 1.390 . S
C1203 H1208 0.949 . S
C1204 C1203 1.390 . S
C1204 C1209 1.399 . S
C1205 C1201 1.404 . S
C1205 H1206 0.950 . S
C1205 C1207 1.375 . S
H1206 C1205 0.950 . S
C1207 C1205 1.375 . S
C1207 C1209 1.382 . S
C1207 H1211 0.950 . S
H1208 C1203 0.949 . S
C1209 C1204 1.399 . S
C1209 C1207 1.382 . S
C1209 H1210 0.952 . S
H1210 C1209 0.952 . S
H1211 C1207 0.950 . S
H1212 C1213 0.949 . S
C1213 H1212 0.949 . S
C1213 C1214 1.395 . S
C1213 C1215 1.391 . S
C1214 C1213 1.395 . S
C1214 C1217 1.390 . S
C1215 C1213 1.391 . S
C1215 C1219 1.387 . S
C1215 C1220 1.491 . S
H1216 C1217 0.950 . S
C1217 C1214 1.390 . S
C1217 H1216 0.950 . S
C1217 C1218 1.378 . S
C1218 C1217 1.378 . S
C1218 C1219 1.409 . S
C1219 C1215 1.387 . S
C1219 C1218 1.409 . S
C1219 H1221 0.951 . S
C1220 C1215 1.491 . S
C1220 C1222 1.382 . S
C1220 C1224 1.404 . S
H1221 C1219 0.951 . S
C1222 C1220 1.382 . S
C1222 C1223 1.390 . S
C1222 H1227 0.949 . S
C1223 C1222 1.390 . S
C1223 C1228 1.399 . S
C1224 C1220 1.404 . S
C1224 H1225 0.950 . S
C1224 C1226 1.375 . S
H1225 C1224 0.950 . S
C1226 C1224 1.375 . S
C1226 C1228 1.382 . S
C1226 H1230 0.950 . S
H1227 C1222 0.949 . S
C1228 C1223 1.399 . S
C1228 C1226 1.382 . S
C1228 H1229 0.952 . S
H1229 C1228 0.952 . S
H1230 C1226 0.950 . S
H1231 C1232 0.949 . S
C1232 H1231 0.949 . S
C1232 C1233 1.395 . S
C1232 C1234 1.391 . S
C1233 C1232 1.395 . S
C1233 C1236 1.390 . S
C1234 C1232 1.391 . S
C1234 C1238 1.387 . S
C1234 C1239 1.491 . S
H1235 C1236 0.950 . S
C1236 C1233 1.390 . S
C1236 H1235 0.950 . S
C1236 C1237 1.378 . S
C1237 C1236 1.378 . S
C1237 C1238 1.409 . S
C1238 C1234 1.387 . S
C1238 C1237 1.409 . S
C1238 H1240 0.951 . S
C1239 C1234 1.491 . S
C1239 C1241 1.382 . S
C1239 C1243 1.404 . S
H1240 C1238 0.951 . S
C1241 C1239 1.382 . S
C1241 C1242 1.390 . S
C1241 H1246 0.949 . S
C1242 C1241 1.390 . S
C1242 C1247 1.399 . S
C1243 C1239 1.404 . S
C1243 H1244 0.950 . S
C1243 C1245 1.375 . S
H1244 C1243 0.950 . S
C1245 C1243 1.375 . S
C1245 C1247 1.382 . S
C1245 H1249 0.950 . S
H1246 C1241 0.949 . S
C1247 C1242 1.399 . S
C1247 C1245 1.382 . S
C1247 H1248 0.952 . S
H1248 C1247 0.952 . S
H1249 C1245 0.950 . S
H1250 C1251 0.949 . S
C1251 H1250 0.949 . S
C1251 C1252 1.395 . S
C1251 C1253 1.391 . S
C1252 C1251 1.395 . S
C1252 C1255 1.390 . S
C1253 C1251 1.391 . S
C1253 C1257 1.387 . S
C1253 C1258 1.491 . S
H1254 C1255 0.950 . S
C1255 C1252 1.390 . S
C1255 H1254 0.950 . S
C1255 C1256 1.378 . S
C1256 C1255 1.378 . S
C1256 C1257 1.409 . S
C1257 C1253 1.387 . S
C1257 C1256 1.409 . S
C1257 H1259 0.951 . S
C1258 C1253 1.491 . S
C1258 C1260 1.382 . S
C1258 C1262 1.404 . S
H1259 C1257 0.951 . S
C1260 C1258 1.382 . S
C1260 C1261 1.390 . S
C1260 H1265 0.949 . S
C1261 C1260 1.390 . S
C1261 C1266 1.399 . S
C1262 C1258 1.404 . S
C1262 H1263 0.950 . S
C1262 C1264 1.375 . S
H1263 C1262 0.950 . S
C1264 C1262 1.375 . S
C1264 C1266 1.382 . S
C1264 H1268 0.950 . S
H1265 C1260 0.949 . S
C1266 C1261 1.399 . S
C1266 C1264 1.382 . S
C1266 H1267 0.952 . S
H1267 C1266 0.952 . S
H1268 C1264 0.950 . S
H1269 C1270 0.949 . S
C1270 H1269 0.949 . S
C1270 C1271 1.395 . S
C1270 C1272 1.391 . S
C1271 C1270 1.395 . S
C1271 C1274 1.390 . S
C1272 C1270 1.391 . S
C1272 C1276 1.387 . S
C1272 C1277 1.491 . S
H1273 C1274 0.950 . S
C1274 C1271 1.390 . S
C1274 H1273 0.950 . S
C1274 C1275 1.378 . S
C1275 C1274 1.378 . S
C1275 C1276 1.409 . S
C1276 C1272 1.387 . S
C1276 C1275 1.409 . S
C1276 H1278 0.951 . S
C1277 C1272 1.491 . S
C1277 C1279 1.382 . S
C1277 C1281 1.404 . S
H1278 C1276 0.951 . S
C1279 C1277 1.382 . S
C1279 C1280 1.390 . S
C1279 H1284 0.949 . S
C1280 C1279 1.390 . S
C1280 C1285 1.399 . S
C1281 C1277 1.404 . S
C1281 H1282 0.950 . S
C1281 C1283 1.375 . S
H1282 C1281 0.950 . S
C1283 C1281 1.375 . S
C1283 C1285 1.382 . S
C1283 H1287 0.950 . S
H1284 C1279 0.949 . S
C1285 C1280 1.399 . S
C1285 C1283 1.382 . S
C1285 H1286 0.952 . S
H1286 C1285 0.952 . S
H1287 C1283 0.950 . S
H1288 C1289 0.949 . S
C1289 H1288 0.949 . S
C1289 C1290 1.395 . S
C1289 C1291 1.391 . S
C1290 C1289 1.395 . S
C1290 C1293 1.390 . S
C1291 C1289 1.391 . S
C1291 C1295 1.387 . S
C1291 C1296 1.491 . S
H1292 C1293 0.950 . S
C1293 C1290 1.390 . S
C1293 H1292 0.950 . S
C1293 C1294 1.378 . S
C1294 C1293 1.378 . S
C1294 C1295 1.409 . S
C1295 C1291 1.387 . S
C1295 C1294 1.409 . S
C1295 H1297 0.951 . S
C1296 C1291 1.491 . S
C1296 C1298 1.382 . S
C1296 C1300 1.404 . S
H1297 C1295 0.951 . S
C1298 C1296 1.382 . S
C1298 C1299 1.390 . S
C1298 H1303 0.949 . S
C1299 C1298 1.390 . S
C1299 C1304 1.399 . S
C1300 C1296 1.404 . S
C1300 H1301 0.950 . S
C1300 C1302 1.375 . S
H1301 C1300 0.950 . S
C1302 C1300 1.375 . S
C1302 C1304 1.382 . S
C1302 H1306 0.950 . S
H1303 C1298 0.949 . S
C1304 C1299 1.399 . S
C1304 C1302 1.382 . S
C1304 H1305 0.952 . S
H1305 C1304 0.952 . S
H1306 C1302 0.950 . S
H1307 C1308 0.949 . S
C1308 H1307 0.949 . S
C1308 C1309 1.395 . S
C1308 C1310 1.391 . S
C1309 C1308 1.395 . S
C1309 C1312 1.390 . S
C1310 C1308 1.391 . S
C1310 C1314 1.387 . S
C1310 C1315 1.491 . S
H1311 C1312 0.950 . S
C1312 C1309 1.390 . S
C1312 H1311 0.950 . S
C1312 C1313 1.378 . S
C1313 C1312 1.378 . S
C1313 C1314 1.409 . S
C1314 C1310 1.387 . S
C1314 C1313 1.409 . S
C1314 H1316 0.951 . S
C1315 C1310 1.491 . S
C1315 C1317 1.382 . S
C1315 C1319 1.404 . S
H1316 C1314 0.951 . S
C1317 C1315 1.382 . S
C1317 C1318 1.390 . S
C1317 H1322 0.949 . S
C1318 C1317 1.390 . S
C1318 C1323 1.399 . S
C1319 C1315 1.404 . S
C1319 H1320 0.950 . S
C1319 C1321 1.375 . S
H1320 C1319 0.950 . S
C1321 C1319 1.375 . S
C1321 C1323 1.382 . S
C1321 H1325 0.950 . S
H1322 C1317 0.949 . S
C1323 C1318 1.399 . S
C1323 C1321 1.382 . S
C1323 H1324 0.952 . S
H1324 C1323 0.952 . S
H1325 C1321 0.950 . S
H1326 C1327 0.949 . S
C1327 H1326 0.949 . S
C1327 C1328 1.395 . S
C1327 C1329 1.391 . S
C1328 C1327 1.395 . S
C1328 C1331 1.390 . S
C1329 C1327 1.391 . S
C1329 C1333 1.387 . S
C1329 C1334 1.491 . S
H1330 C1331 0.950 . S
C1331 C1328 1.390 . S
C1331 H1330 0.950 . S
C1331 C1332 1.378 . S
C1332 C1331 1.378 . S
C1332 C1333 1.409 . S
C1333 C1329 1.387 . S
C1333 C1332 1.409 . S
C1333 H1335 0.951 . S
C1334 C1329 1.491 . S
C1334 C1336 1.382 . S
C1334 C1338 1.404 . S
H1335 C1333 0.951 . S
C1336 C1334 1.382 . S
C1336 C1337 1.390 . S
C1336 H1341 0.949 . S
C1337 C1336 1.390 . S
C1337 C1342 1.399 . S
C1338 C1334 1.404 . S
C1338 H1339 0.950 . S
C1338 C1340 1.375 . S
H1339 C1338 0.950 . S
C1340 C1338 1.375 . S
C1340 C1342 1.382 . S
C1340 H1344 0.950 . S
H1341 C1336 0.949 . S
C1342 C1337 1.399 . S
C1342 C1340 1.382 . S
C1342 H1343 0.952 . S
H1343 C1342 0.952 . S
H1344 C1340 0.950 . S
H1345 C1346 0.949 . S
C1346 H1345 0.949 . S
C1346 C1347 1.395 . S
C1346 C1348 1.391 . S
C1347 C1346 1.395 . S
C1347 C1350 1.390 . S
C1348 C1346 1.391 . S
C1348 C1352 1.387 . S
C1348 C1353 1.491 . S
H1349 C1350 0.950 . S
C1350 C1347 1.390 . S
C1350 H1349 0.950 . S
C1350 C1351 1.378 . S
C1351 C1350 1.378 . S
C1351 C1352 1.409 . S
C1352 C1348 1.387 . S
C1352 C1351 1.409 . S
C1352 H1354 0.951 . S
C1353 C1348 1.491 . S
C1353 C1355 1.382 . S
C1353 C1357 1.404 . S
H1354 C1352 0.951 . S
C1355 C1353 1.382 . S
C1355 C1356 1.390 . S
C1355 H1360 0.949 . S
C1356 C1355 1.390 . S
C1356 C1361 1.399 . S
C1357 C1353 1.404 . S
C1357 H1358 0.950 . S
C1357 C1359 1.375 . S
H1358 C1357 0.950 . S
C1359 C1357 1.375 . S
C1359 C1361 1.382 . S
C1359 H1363 0.950 . S
H1360 C1355 0.949 . S
C1361 C1356 1.399 . S
C1361 C1359 1.382 . S
C1361 H1362 0.952 . S
H1362 C1361 0.952 . S
H1363 C1359 0.950 . S
H1364 C1365 0.949 . S
C1365 H1364 0.949 . S
C1365 C1366 1.395 . S
C1365 C1367 1.391 . S
C1366 C1365 1.395 . S
C1366 C1369 1.390 . S
C1367 C1365 1.391 . S
C1367 C1371 1.387 . S
C1367 C1372 1.491 . S
H1368 C1369 0.950 . S
C1369 C1366 1.390 . S
C1369 H1368 0.950 . S
C1369 C1370 1.378 . S
C1370 C1369 1.378 . S
C1370 C1371 1.409 . S
C1371 C1367 1.387 . S
C1371 C1370 1.409 . S
C1371 H1373 0.951 . S
C1372 C1367 1.491 . S
C1372 C1374 1.382 . S
C1372 C1376 1.404 . S
H1373 C1371 0.951 . S
C1374 C1372 1.382 . S
C1374 C1375 1.390 . S
C1374 H1379 0.949 . S
C1375 C1374 1.390 . S
C1375 C1380 1.399 . S
C1376 C1372 1.404 . S
C1376 H1377 0.950 . S
C1376 C1378 1.375 . S
H1377 C1376 0.950 . S
C1378 C1376 1.375 . S
C1378 C1380 1.382 . S
C1378 H1382 0.950 . S
H1379 C1374 0.949 . S
C1380 C1375 1.399 . S
C1380 C1378 1.382 . S
C1380 H1381 0.952 . S
H1381 C1380 0.952 . S
H1382 C1378 0.950 . S
H1383 C1384 0.949 . S
C1384 H1383 0.949 . S
C1384 C1385 1.395 . S
C1384 C1386 1.391 . S
C1385 C1384 1.395 . S
C1385 C1388 1.390 . S
C1386 C1384 1.391 . S
C1386 C1390 1.387 . S
C1386 C1391 1.491 . S
H1387 C1388 0.950 . S
C1388 C1385 1.390 . S
C1388 H1387 0.950 . S
C1388 C1389 1.378 . S
C1389 C1388 1.378 . S
C1389 C1390 1.409 . S
C1390 C1386 1.387 . S
C1390 C1389 1.409 . S
C1390 H1392 0.951 . S
C1391 C1386 1.491 . S
C1391 C1393 1.382 . S
C1391 C1395 1.404 . S
H1392 C1390 0.951 . S
C1393 C1391 1.382 . S
C1393 C1394 1.390 . S
C1393 H1398 0.949 . S
C1394 C1393 1.390 . S
C1394 C1399 1.399 . S
C1395 C1391 1.404 . S
C1395 H1396 0.950 . S
C1395 C1397 1.375 . S
H1396 C1395 0.950 . S
C1397 C1395 1.375 . S
C1397 C1399 1.382 . S
C1397 H1401 0.950 . S
H1398 C1393 0.949 . S
C1399 C1394 1.399 . S
C1399 C1397 1.382 . S
C1399 H1400 0.952 . S
H1400 C1399 0.952 . S
H1401 C1397 0.950 . S
H1402 C1403 0.949 . S
C1403 H1402 0.949 . S
C1403 C1404 1.395 . S
C1403 C1405 1.391 . S
C1404 C1403 1.395 . S
C1404 C1407 1.390 . S
C1405 C1403 1.391 . S
C1405 C1409 1.387 . S
C1405 C1410 1.491 . S
H1406 C1407 0.950 . S
C1407 C1404 1.390 . S
C1407 H1406 0.950 . S
C1407 C1408 1.378 . S
C1408 C1407 1.378 . S
C1408 C1409 1.409 . S
C1409 C1405 1.387 . S
C1409 C1408 1.409 . S
C1409 H1411 0.951 . S
C1410 C1405 1.491 . S
C1410 C1412 1.382 . S
C1410 C1414 1.404 . S
H1411 C1409 0.951 . S
C1412 C1410 1.382 . S
C1412 C1413 1.390 . S
C1412 H1417 0.949 . S
C1413 C1412 1.390 . S
C1413 C1418 1.399 . S
C1414 C1410 1.404 . S
C1414 H1415 0.950 . S
C1414 C1416 1.375 . S
H1415 C1414 0.950 . S
C1416 C1414 1.375 . S
C1416 C1418 1.382 . S
C1416 H1420 0.950 . S
H1417 C1412 0.949 . S
C1418 C1413 1.399 . S
C1418 C1416 1.382 . S
C1418 H1419 0.952 . S
H1419 C1418 0.952 . S
H1420 C1416 0.950 . S
H1421 C1422 0.949 . S
C1422 H1421 0.949 . S
C1422 C1423 1.395 . S
C1422 C1424 1.391 . S
C1423 C1422 1.395 . S
C1423 C1426 1.390 . S
C1424 C1422 1.391 . S
C1424 C1428 1.387 . S
C1424 C1429 1.491 . S
H1425 C1426 0.950 . S
C1426 C1423 1.390 . S
C1426 H1425 0.950 . S
C1426 C1427 1.378 . S
C1427 C1426 1.378 . S
C1427 C1428 1.409 . S
C1428 C1424 1.387 . S
C1428 C1427 1.409 . S
C1428 H1430 0.951 . S
C1429 C1424 1.491 . S
C1429 C1431 1.382 . S
C1429 C1433 1.404 . S
H1430 C1428 0.951 . S
C1431 C1429 1.382 . S
C1431 C1432 1.390 . S
C1431 H1436 0.949 . S
C1432 C1431 1.390 . S
C1432 C1437 1.399 . S
C1433 C1429 1.404 . S
C1433 H1434 0.950 . S
C1433 C1435 1.375 . S
H1434 C1433 0.950 . S
C1435 C1433 1.375 . S
C1435 C1437 1.382 . S
C1435 H1439 0.950 . S
H1436 C1431 0.949 . S
C1437 C1432 1.399 . S
C1437 C1435 1.382 . S
C1437 H1438 0.952 . S
H1438 C1437 0.952 . S
H1439 C1435 0.950 . S
H1440 C1448 0.950 . S
H1441 C1453 0.950 . S
H1442 C1450 0.950 . S
H1443 C1452 0.950 . S
H1444 C1454 0.950 . S
H1445 C1456 0.950 . S
H1446 C1458 0.950 . S
H1447 C1459 0.950 . S
C1448 H1440 0.950 . S
C1448 C1449 1.386 . S
C1448 C1450 1.391 . S
C1449 C1448 1.386 . S
C1449 C1453 1.393 . S
C1450 H1442 0.950 . S
C1450 C1448 1.391 . S
C1450 C1451 1.400 . S
C1451 C1450 1.400 . S
C1451 C1452 1.398 . S
C1451 C1457 1.491 . S
C1452 H1443 0.950 . S
C1452 C1451 1.398 . S
C1452 C1453 1.391 . S
C1453 H1441 0.950 . S
C1453 C1449 1.393 . S
C1453 C1452 1.391 . S
C1454 H1444 0.950 . S
C1454 C1455 1.386 . S
C1454 C1456 1.391 . S
C1455 C1454 1.386 . S
C1455 C1459 1.393 . S
C1456 H1445 0.950 . S
C1456 C1454 1.391 . S
C1456 C1457 1.400 . S
C1457 C1451 1.491 . S
C1457 C1456 1.400 . S
C1457 C1458 1.398 . S
C1458 H1446 0.950 . S
C1458 C1457 1.398 . S
C1458 C1459 1.391 . S
C1459 H1447 0.950 . S
C1459 C1455 1.393 . S
C1459 C1458 1.391 . S
H1460 C1468 0.950 . S
H1461 C1473 0.950 . S
H1462 C1470 0.950 . S
H1463 C1472 0.950 . S
H1464 C1474 0.950 . S
H1465 C1476 0.950 . S
H1466 C1478 0.950 . S
H1467 C1479 0.950 . S
C1468 H1460 0.950 . S
C1468 C1469 1.386 . S
C1468 C1470 1.391 . S
C1469 C1468 1.386 . S
C1469 C1473 1.393 . S
C1470 H1462 0.950 . S
C1470 C1468 1.391 . S
C1470 C1471 1.400 . S
C1471 C1470 1.400 . S
C1471 C1472 1.398 . S
C1471 C1477 1.491 . S
C1472 H1463 0.950 . S
C1472 C1471 1.398 . S
C1472 C1473 1.391 . S
C1473 H1461 0.950 . S
C1473 C1469 1.393 . S
C1473 C1472 1.391 . S
C1474 H1464 0.950 . S
C1474 C1475 1.386 . S
C1474 C1476 1.391 . S
C1475 C1474 1.386 . S
C1475 C1479 1.393 . S
C1476 H1465 0.950 . S
C1476 C1474 1.391 . S
C1476 C1477 1.400 . S
C1477 C1471 1.491 . S
C1477 C1476 1.400 . S
C1477 C1478 1.398 . S
C1478 H1466 0.950 . S
C1478 C1477 1.398 . S
C1478 C1479 1.391 . S
C1479 H1467 0.950 . S
C1479 C1475 1.393 . S
C1479 C1478 1.391 . S
H1480 C1488 0.950 . S
H1481 C1493 0.950 . S
H1482 C1490 0.950 . S
H1483 C1492 0.950 . S
H1484 C1494 0.950 . S
H1485 C1496 0.950 . S
H1486 C1498 0.950 . S
H1487 C1499 0.950 . S
C1488 H1480 0.950 . S
C1488 C1489 1.386 . S
C1488 C1490 1.391 . S
C1489 C1488 1.386 . S
C1489 C1493 1.393 . S
C1490 H1482 0.950 . S
C1490 C1488 1.391 . S
C1490 C1491 1.400 . S
C1491 C1490 1.400 . S
C1491 C1492 1.398 . S
C1491 C1497 1.491 . S
C1492 H1483 0.950 . S
C1492 C1491 1.398 . S
C1492 C1493 1.391 . S
C1493 H1481 0.950 . S
C1493 C1489 1.393 . S
C1493 C1492 1.391 . S
C1494 H1484 0.950 . S
C1494 C1495 1.386 . S
C1494 C1496 1.391 . S
C1495 C1494 1.386 . S
C1495 C1499 1.393 . S
C1496 H1485 0.950 . S
C1496 C1494 1.391 . S
C1496 C1497 1.400 . S
C1497 C1491 1.491 . S
C1497 C1496 1.400 . S
C1497 C1498 1.398 . S
C1498 H1486 0.950 . S
C1498 C1497 1.398 . S
C1498 C1499 1.391 . S
C1499 H1487 0.950 . S
C1499 C1495 1.393 . S
C1499 C1498 1.391 . S
H1500 C1508 0.950 . S
H1501 C1513 0.950 . S
H1502 C1510 0.950 . S
H1503 C1512 0.950 . S
H1504 C1514 0.950 . S
H1505 C1516 0.950 . S
H1506 C1518 0.950 . S
H1507 C1519 0.950 . S
C1508 H1500 0.950 . S
C1508 C1509 1.386 . S
C1508 C1510 1.391 . S
C1509 C1508 1.386 . S
C1509 C1513 1.393 . S
C1510 H1502 0.950 . S
C1510 C1508 1.391 . S
C1510 C1511 1.400 . S
C1511 C1510 1.400 . S
C1511 C1512 1.398 . S
C1511 C1517 1.491 . S
C1512 H1503 0.950 . S
C1512 C1511 1.398 . S
C1512 C1513 1.391 . S
C1513 H1501 0.950 . S
C1513 C1509 1.393 . S
C1513 C1512 1.391 . S
C1514 H1504 0.950 . S
C1514 C1515 1.386 . S
C1514 C1516 1.391 . S
C1515 C1514 1.386 . S
C1515 C1519 1.393 . S
C1516 H1505 0.950 . S
C1516 C1514 1.391 . S
C1516 C1517 1.400 . S
C1517 C1511 1.491 . S
C1517 C1516 1.400 . S
C1517 C1518 1.398 . S
C1518 H1506 0.950 . S
C1518 C1517 1.398 . S
C1518 C1519 1.391 . S
C1519 H1507 0.950 . S
C1519 C1515 1.393 . S
C1519 C1518 1.391 . S
H1520 C1528 0.950 . S
H1521 C1533 0.950 . S
H1522 C1530 0.950 . S
H1523 C1532 0.950 . S
H1524 C1534 0.950 . S
H1525 C1536 0.950 . S
H1526 C1538 0.950 . S
H1527 C1539 0.950 . S
C1528 H1520 0.950 . S
C1528 C1529 1.386 . S
C1528 C1530 1.391 . S
C1529 C1528 1.386 . S
C1529 C1533 1.393 . S
C1530 H1522 0.950 . S
C1530 C1528 1.391 . S
C1530 C1531 1.400 . S
C1531 C1530 1.400 . S
C1531 C1532 1.398 . S
C1531 C1537 1.491 . S
C1532 H1523 0.950 . S
C1532 C1531 1.398 . S
C1532 C1533 1.391 . S
C1533 H1521 0.950 . S
C1533 C1529 1.393 . S
C1533 C1532 1.391 . S
C1534 H1524 0.950 . S
C1534 C1535 1.386 . S
C1534 C1536 1.391 . S
C1535 C1534 1.386 . S
C1535 C1539 1.393 . S
C1536 H1525 0.950 . S
C1536 C1534 1.391 . S
C1536 C1537 1.400 . S
C1537 C1531 1.491 . S
C1537 C1536 1.400 . S
C1537 C1538 1.398 . S
C1538 H1526 0.950 . S
C1538 C1537 1.398 . S
C1538 C1539 1.391 . S
C1539 H1527 0.950 . S
C1539 C1535 1.393 . S
C1539 C1538 1.391 . S
H1540 C1548 0.950 . S
H1541 C1553 0.950 . S
H1542 C1550 0.950 . S
H1543 C1552 0.950 . S
H1544 C1554 0.950 . S
H1545 C1556 0.950 . S
H1546 C1558 0.950 . S
H1547 C1559 0.950 . S
C1548 H1540 0.950 . S
C1548 C1549 1.386 . S
C1548 C1550 1.391 . S
C1549 C1548 1.386 . S
C1549 C1553 1.393 . S
C1550 H1542 0.950 . S
C1550 C1548 1.391 . S
C1550 C1551 1.400 . S
C1551 C1550 1.400 . S
C1551 C1552 1.398 . S
C1551 C1557 1.491 . S
C1552 H1543 0.950 . S
C1552 C1551 1.398 . S
C1552 C1553 1.391 . S
C1553 H1541 0.950 . S
C1553 C1549 1.393 . S
C1553 C1552 1.391 . S
C1554 H1544 0.950 . S
C1554 C1555 1.386 . S
C1554 C1556 1.391 . S
C1555 C1554 1.386 . S
C1555 C1559 1.393 . S
C1556 H1545 0.950 . S
C1556 C1554 1.391 . S
C1556 C1557 1.400 . S
C1557 C1551 1.491 . S
C1557 C1556 1.400 . S
C1557 C1558 1.398 . S
C1558 H1546 0.950 . S
C1558 C1557 1.398 . S
C1558 C1559 1.391 . S
C1559 H1547 0.950 . S
C1559 C1555 1.393 . S
C1559 C1558 1.391 . S
H1560 C1568 0.950 . S
H1561 C1573 0.950 . S
H1562 C1570 0.950 . S
H1563 C1572 0.950 . S
H1564 C1574 0.950 . S
H1565 C1576 0.950 . S
H1566 C1578 0.950 . S
H1567 C1579 0.950 . S
C1568 H1560 0.950 . S
C1568 C1569 1.386 . S
C1568 C1570 1.391 . S
C1569 C1568 1.386 . S
C1569 C1573 1.393 . S
C1570 H1562 0.950 . S
C1570 C1568 1.391 . S
C1570 C1571 1.400 . S
C1571 C1570 1.400 . S
C1571 C1572 1.398 . S
C1571 C1577 1.491 . S
C1572 H1563 0.950 . S
C1572 C1571 1.398 . S
C1572 C1573 1.391 . S
C1573 H1561 0.950 . S
C1573 C1569 1.393 . S
C1573 C1572 1.391 . S
C1574 H1564 0.950 . S
C1574 C1575 1.386 . S
C1574 C1576 1.391 . S
C1575 C1574 1.386 . S
C1575 C1579 1.393 . S
C1576 H1565 0.950 . S
C1576 C1574 1.391 . S
C1576 C1577 1.400 . S
C1577 C1571 1.491 . S
C1577 C1576 1.400 . S
C1577 C1578 1.398 . S
C1578 H1566 0.950 . S
C1578 C1577 1.398 . S
C1578 C1579 1.391 . S
C1579 H1567 0.950 . S
C1579 C1575 1.393 . S
C1579 C1578 1.391 . S
H1580 C1588 0.950 . S
H1581 C1593 0.950 . S
H1582 C1590 0.950 . S
H1583 C1592 0.950 . S
H1584 C1594 0.950 . S
H1585 C1596 0.950 . S
H1586 C1598 0.950 . S
H1587 C1599 0.950 . S
C1588 H1580 0.950 . S
C1588 C1589 1.386 . S
C1588 C1590 1.391 . S
C1589 C1588 1.386 . S
C1589 C1593 1.393 . S
C1590 H1582 0.950 . S
C1590 C1588 1.391 . S
C1590 C1591 1.400 . S
C1591 C1590 1.400 . S
C1591 C1592 1.398 . S
C1591 C1597 1.491 . S
C1592 H1583 0.950 . S
C1592 C1591 1.398 . S
C1592 C1593 1.391 . S
C1593 H1581 0.950 . S
C1593 C1589 1.393 . S
C1593 C1592 1.391 . S
C1594 H1584 0.950 . S
C1594 C1595 1.386 . S
C1594 C1596 1.391 . S
C1595 C1594 1.386 . S
C1595 C1599 1.393 . S
C1596 H1585 0.950 . S
C1596 C1594 1.391 . S
C1596 C1597 1.400 . S
C1597 C1591 1.491 . S
C1597 C1596 1.400 . S
C1597 C1598 1.398 . S
C1598 H1586 0.950 . S
C1598 C1597 1.398 . S
C1598 C1599 1.391 . S
C1599 H1587 0.950 . S
C1599 C1595 1.393 . S
C1599 C1598 1.391 . S
H1600 C1608 0.950 . S
H1601 C1613 0.950 . S
H1602 C1610 0.950 . S
H1603 C1612 0.950 . S
H1604 C1614 0.950 . S
H1605 C1616 0.950 . S
H1606 C1618 0.950 . S
H1607 C1619 0.950 . S
C1608 H1600 0.950 . S
C1608 C1609 1.386 . S
C1608 C1610 1.391 . S
C1609 C1608 1.386 . S
C1609 C1613 1.393 . S
C1610 H1602 0.950 . S
C1610 C1608 1.391 . S
C1610 C1611 1.400 . S
C1611 C1610 1.400 . S
C1611 C1612 1.398 . S
C1611 C1617 1.491 . S
C1612 H1603 0.950 . S
C1612 C1611 1.398 . S
C1612 C1613 1.391 . S
C1613 H1601 0.950 . S
C1613 C1609 1.393 . S
C1613 C1612 1.391 . S
C1614 H1604 0.950 . S
C1614 C1615 1.386 . S
C1614 C1616 1.391 . S
C1615 C1614 1.386 . S
C1615 C1619 1.393 . S
C1616 H1605 0.950 . S
C1616 C1614 1.391 . S
C1616 C1617 1.400 . S
C1617 C1611 1.491 . S
C1617 C1616 1.400 . S
C1617 C1618 1.398 . S
C1618 H1606 0.950 . S
C1618 C1617 1.398 . S
C1618 C1619 1.391 . S
C1619 H1607 0.950 . S
C1619 C1615 1.393 . S
C1619 C1618 1.391 . S
H1620 C1628 0.950 . S
H1621 C1633 0.950 . S
H1622 C1630 0.950 . S
H1623 C1632 0.950 . S
H1624 C1634 0.950 . S
H1625 C1636 0.950 . S
H1626 C1638 0.950 . S
H1627 C1639 0.950 . S
C1628 H1620 0.950 . S
C1628 C1629 1.386 . S
C1628 C1630 1.391 . S
C1629 C1628 1.386 . S
C1629 C1633 1.393 . S
C1630 H1622 0.950 . S
C1630 C1628 1.391 . S
C1630 C1631 1.400 . S
C1631 C1630 1.400 . S
C1631 C1632 1.398 . S
C1631 C1637 1.491 . S
C1632 H1623 0.950 . S
C1632 C1631 1.398 . S
C1632 C1633 1.391 . S
C1633 H1621 0.950 . S
C1633 C1629 1.393 . S
C1633 C1632 1.391 . S
C1634 H1624 0.950 . S
C1634 C1635 1.386 . S
C1634 C1636 1.391 . S
C1635 C1634 1.386 . S
C1635 C1639 1.393 . S
C1636 H1625 0.950 . S
C1636 C1634 1.391 . S
C1636 C1637 1.400 . S
C1637 C1631 1.491 . S
C1637 C1636 1.400 . S
C1637 C1638 1.398 . S
C1638 H1626 0.950 . S
C1638 C1637 1.398 . S
C1638 C1639 1.391 . S
C1639 H1627 0.950 . S
C1639 C1635 1.393 . S
C1639 C1638 1.391 . S
H1640 C1648 0.950 . S
H1641 C1653 0.950 . S
H1642 C1650 0.950 . S
H1643 C1652 0.950 . S
H1644 C1654 0.950 . S
H1645 C1656 0.950 . S
H1646 C1658 0.950 . S
H1647 C1659 0.950 . S
C1648 H1640 0.950 . S
C1648 C1649 1.386 . S
C1648 C1650 1.391 . S
C1649 C1648 1.386 . S
C1649 C1653 1.393 . S
C1650 H1642 0.950 . S
C1650 C1648 1.391 . S
C1650 C1651 1.400 . S
C1651 C1650 1.400 . S
C1651 C1652 1.398 . S
C1651 C1657 1.491 . S
C1652 H1643 0.950 . S
C1652 C1651 1.398 . S
C1652 C1653 1.391 . S
C1653 H1641 0.950 . S
C1653 C1649 1.393 . S
C1653 C1652 1.391 . S
C1654 H1644 0.950 . S
C1654 C1655 1.386 . S
C1654 C1656 1.391 . S
C1655 C1654 1.386 . S
C1655 C1659 1.393 . S
C1656 H1645 0.950 . S
C1656 C1654 1.391 . S
C1656 C1657 1.400 . S
C1657 C1651 1.491 . S
C1657 C1656 1.400 . S
C1657 C1658 1.398 . S
C1658 H1646 0.950 . S
C1658 C1657 1.398 . S
C1658 C1659 1.391 . S
C1659 H1647 0.950 . S
C1659 C1655 1.393 . S
C1659 C1658 1.391 . S
H1660 C1668 0.950 . S
H1661 C1673 0.950 . S
H1662 C1670 0.950 . S
H1663 C1672 0.950 . S
H1664 C1674 0.950 . S
H1665 C1676 0.950 . S
H1666 C1678 0.950 . S
H1667 C1679 0.950 . S
C1668 H1660 0.950 . S
C1668 C1669 1.386 . S
C1668 C1670 1.391 . S
C1669 C1668 1.386 . S
C1669 C1673 1.393 . S
C1670 H1662 0.950 . S
C1670 C1668 1.391 . S
C1670 C1671 1.400 . S
C1671 C1670 1.400 . S
C1671 C1672 1.398 . S
C1671 C1677 1.491 . S
C1672 H1663 0.950 . S
C1672 C1671 1.398 . S
C1672 C1673 1.391 . S
C1673 H1661 0.950 . S
C1673 C1669 1.393 . S
C1673 C1672 1.391 . S
C1674 H1664 0.950 . S
C1674 C1675 1.386 . S
C1674 C1676 1.391 . S
C1675 C1674 1.386 . S
C1675 C1679 1.393 . S
C1676 H1665 0.950 . S
C1676 C1674 1.391 . S
C1676 C1677 1.400 . S
C1677 C1671 1.491 . S
C1677 C1676 1.400 . S
C1677 C1678 1.398 . S
C1678 H1666 0.950 . S
C1678 C1677 1.398 . S
C1678 C1679 1.391 . S
C1679 H1667 0.950 . S
C1679 C1675 1.393 . S
C1679 C1678 1.391 . S
H1680 C1688 0.950 . S
H1681 C1693 0.950 . S
H1682 C1690 0.950 . S
H1683 C1692 0.950 . S
H1684 C1694 0.950 . S
H1685 C1696 0.950 . S
H1686 C1698 0.950 . S
H1687 C1699 0.950 . S
C1688 H1680 0.950 . S
C1688 C1689 1.386 . S
C1688 C1690 1.391 . S
C1689 C1688 1.386 . S
C1689 C1693 1.393 . S
C1690 H1682 0.950 . S
C1690 C1688 1.391 . S
C1690 C1691 1.400 . S
C1691 C1690 1.400 . S
C1691 C1692 1.398 . S
C1691 C1697 1.491 . S
C1692 H1683 0.950 . S
C1692 C1691 1.398 . S
C1692 C1693 1.391 . S
C1693 H1681 0.950 . S
C1693 C1689 1.393 . S
C1693 C1692 1.391 . S
C1694 H1684 0.950 . S
C1694 C1695 1.386 . S
C1694 C1696 1.391 . S
C1695 C1694 1.386 . S
C1695 C1699 1.393 . S
C1696 H1685 0.950 . S
C1696 C1694 1.391 . S
C1696 C1697 1.400 . S
C1697 C1691 1.491 . S
C1697 C1696 1.400 . S
C1697 C1698 1.398 . S
C1698 H1686 0.950 . S
C1698 C1697 1.398 . S
C1698 C1699 1.391 . S
C1699 H1687 0.950 . S
C1699 C1695 1.393 . S
C1699 C1698 1.391 . S
H1700 C1708 0.950 . S
H1701 C1713 0.950 . S
H1702 C1710 0.950 . S
H1703 C1712 0.950 . S
H1704 C1714 0.950 . S
H1705 C1716 0.950 . S
H1706 C1718 0.950 . S
H1707 C1719 0.950 . S
C1708 H1700 0.950 . S
C1708 C1709 1.386 . S
C1708 C1710 1.391 . S
C1709 C1708 1.386 . S
C1709 C1713 1.393 . S
C1710 H1702 0.950 . S
C1710 C1708 1.391 . S
C1710 C1711 1.400 . S
C1711 C1710 1.400 . S
C1711 C1712 1.398 . S
C1711 C1717 1.491 . S
C1712 H1703 0.950 . S
C1712 C1711 1.398 . S
C1712 C1713 1.391 . S
C1713 H1701 0.950 . S
C1713 C1709 1.393 . S
C1713 C1712 1.391 . S
C1714 H1704 0.950 . S
C1714 C1715 1.386 . S
C1714 C1716 1.391 . S
C1715 C1714 1.386 . S
C1715 C1719 1.393 . S
C1716 H1705 0.950 . S
C1716 C1714 1.391 . S
C1716 C1717 1.400 . S
C1717 C1711 1.491 . S
C1717 C1716 1.400 . S
C1717 C1718 1.398 . S
C1718 H1706 0.950 . S
C1718 C1717 1.398 . S
C1718 C1719 1.391 . S
C1719 H1707 0.950 . S
C1719 C1715 1.393 . S
C1719 C1718 1.391 . S
H1720 C1728 0.950 . S
H1721 C1733 0.950 . S
H1722 C1730 0.950 . S
H1723 C1732 0.950 . S
H1724 C1734 0.950 . S
H1725 C1736 0.950 . S
H1726 C1738 0.950 . S
H1727 C1739 0.950 . S
C1728 H1720 0.950 . S
C1728 C1729 1.386 . S
C1728 C1730 1.391 . S
C1729 C1728 1.386 . S
C1729 C1733 1.393 . S
C1730 H1722 0.950 . S
C1730 C1728 1.391 . S
C1730 C1731 1.400 . S
C1731 C1730 1.400 . S
C1731 C1732 1.398 . S
C1731 C1737 1.491 . S
C1732 H1723 0.950 . S
C1732 C1731 1.398 . S
C1732 C1733 1.391 . S
C1733 H1721 0.950 . S
C1733 C1729 1.393 . S
C1733 C1732 1.391 . S
C1734 H1724 0.950 . S
C1734 C1735 1.386 . S
C1734 C1736 1.391 . S
C1735 C1734 1.386 . S
C1735 C1739 1.393 . S
C1736 H1725 0.950 . S
C1736 C1734 1.391 . S
C1736 C1737 1.400 . S
C1737 C1731 1.491 . S
C1737 C1736 1.400 . S
C1737 C1738 1.398 . S
C1738 H1726 0.950 . S
C1738 C1737 1.398 . S
C1738 C1739 1.391 . S
C1739 H1727 0.950 . S
C1739 C1735 1.393 . S
C1739 C1738 1.391 . S
H1740 C1748 0.950 . S
H1741 C1753 0.950 . S
H1742 C1750 0.950 . S
H1743 C1752 0.950 . S
H1744 C1754 0.950 . S
H1745 C1756 0.950 . S
H1746 C1758 0.950 . S
H1747 C1759 0.950 . S
C1748 H1740 0.950 . S
C1748 C1749 1.386 . S
C1748 C1750 1.391 . S
C1749 C1748 1.386 . S
C1749 C1753 1.393 . S
C1750 H1742 0.950 . S
C1750 C1748 1.391 . S
C1750 C1751 1.400 . S
C1751 C1750 1.400 . S
C1751 C1752 1.398 . S
C1751 C1757 1.491 . S
C1752 H1743 0.950 . S
C1752 C1751 1.398 . S
C1752 C1753 1.391 . S
C1753 H1741 0.950 . S
C1753 C1749 1.393 . S
C1753 C1752 1.391 . S
C1754 H1744 0.950 . S
C1754 C1755 1.386 . S
C1754 C1756 1.391 . S
C1755 C1754 1.386 . S
C1755 C1759 1.393 . S
C1756 H1745 0.950 . S
C1756 C1754 1.391 . S
C1756 C1757 1.400 . S
C1757 C1751 1.491 . S
C1757 C1756 1.400 . S
C1757 C1758 1.398 . S
C1758 H1746 0.950 . S
C1758 C1757 1.398 . S
C1758 C1759 1.391 . S
C1759 H1747 0.950 . S
C1759 C1755 1.393 . S
C1759 C1758 1.391 . S
H1760 C1768 0.950 . S
H1761 C1773 0.950 . S
H1762 C1770 0.950 . S
H1763 C1772 0.950 . S
H1764 C1774 0.950 . S
H1765 C1776 0.950 . S
H1766 C1778 0.950 . S
H1767 C1779 0.950 . S
C1768 H1760 0.950 . S
C1768 C1769 1.386 . S
C1768 C1770 1.391 . S
C1769 C1768 1.386 . S
C1769 C1773 1.393 . S
C1770 H1762 0.950 . S
C1770 C1768 1.391 . S
C1770 C1771 1.400 . S
C1771 C1770 1.400 . S
C1771 C1772 1.398 . S
C1771 C1777 1.491 . S
C1772 H1763 0.950 . S
C1772 C1771 1.398 . S
C1772 C1773 1.391 . S
C1773 H1761 0.950 . S
C1773 C1769 1.393 . S
C1773 C1772 1.391 . S
C1774 H1764 0.950 . S
C1774 C1775 1.386 . S
C1774 C1776 1.391 . S
C1775 C1774 1.386 . S
C1775 C1779 1.393 . S
C1776 H1765 0.950 . S
C1776 C1774 1.391 . S
C1776 C1777 1.400 . S
C1777 C1771 1.491 . S
C1777 C1776 1.400 . S
C1777 C1778 1.398 . S
C1778 H1766 0.950 . S
C1778 C1777 1.398 . S
C1778 C1779 1.391 . S
C1779 H1767 0.950 . S
C1779 C1775 1.393 . S
C1779 C1778 1.391 . S
H1780 C1788 0.950 . S
H1781 C1793 0.950 . S
H1782 C1790 0.950 . S
H1783 C1792 0.950 . S
H1784 C1794 0.950 . S
H1785 C1796 0.950 . S
H1786 C1798 0.950 . S
H1787 C1799 0.950 . S
C1788 H1780 0.950 . S
C1788 C1789 1.386 . S
C1788 C1790 1.391 . S
C1789 C1788 1.386 . S
C1789 C1793 1.393 . S
C1790 H1782 0.950 . S
C1790 C1788 1.391 . S
C1790 C1791 1.400 . S
C1791 C1790 1.400 . S
C1791 C1792 1.398 . S
C1791 C1797 1.491 . S
C1792 H1783 0.950 . S
C1792 C1791 1.398 . S
C1792 C1793 1.391 . S
C1793 H1781 0.950 . S
C1793 C1789 1.393 . S
C1793 C1792 1.391 . S
C1794 H1784 0.950 . S
C1794 C1795 1.386 . S
C1794 C1796 1.391 . S
C1795 C1794 1.386 . S
C1795 C1799 1.393 . S
C1796 H1785 0.950 . S
C1796 C1794 1.391 . S
C1796 C1797 1.400 . S
C1797 C1791 1.491 . S
C1797 C1796 1.400 . S
C1797 C1798 1.398 . S
C1798 H1786 0.950 . S
C1798 C1797 1.398 . S
C1798 C1799 1.391 . S
C1799 H1787 0.950 . S
C1799 C1795 1.393 . S
C1799 C1798 1.391 . S
H1800 C1808 0.950 . S
H1801 C1813 0.950 . S
H1802 C1810 0.950 . S
H1803 C1812 0.950 . S
H1804 C1814 0.950 . S
H1805 C1816 0.950 . S
H1806 C1818 0.950 . S
H1807 C1819 0.950 . S
C1808 H1800 0.950 . S
C1808 C1809 1.386 . S
C1808 C1810 1.391 . S
C1809 C1808 1.386 . S
C1809 C1813 1.393 . S
C1810 H1802 0.950 . S
C1810 C1808 1.391 . S
C1810 C1811 1.400 . S
C1811 C1810 1.400 . S
C1811 C1812 1.398 . S
C1811 C1817 1.491 . S
C1812 H1803 0.950 . S
C1812 C1811 1.398 . S
C1812 C1813 1.391 . S
C1813 H1801 0.950 . S
C1813 C1809 1.393 . S
C1813 C1812 1.391 . S
C1814 H1804 0.950 . S
C1814 C1815 1.386 . S
C1814 C1816 1.391 . S
C1815 C1814 1.386 . S
C1815 C1819 1.393 . S
C1816 H1805 0.950 . S
C1816 C1814 1.391 . S
C1816 C1817 1.400 . S
C1817 C1811 1.491 . S
C1817 C1816 1.400 . S
C1817 C1818 1.398 . S
C1818 H1806 0.950 . S
C1818 C1817 1.398 . S
C1818 C1819 1.391 . S
C1819 H1807 0.950 . S
C1819 C1815 1.393 . S
C1819 C1818 1.391 . S
H1820 C1828 0.950 . S
H1821 C1833 0.950 . S
H1822 C1830 0.950 . S
H1823 C1832 0.950 . S
H1824 C1834 0.950 . S
H1825 C1836 0.950 . S
H1826 C1838 0.950 . S
H1827 C1839 0.950 . S
C1828 H1820 0.950 . S
C1828 C1829 1.386 . S
C1828 C1830 1.391 . S
C1829 C1828 1.386 . S
C1829 C1833 1.393 . S
C1830 H1822 0.950 . S
C1830 C1828 1.391 . S
C1830 C1831 1.400 . S
C1831 C1830 1.400 . S
C1831 C1832 1.398 . S
C1831 C1837 1.491 . S
C1832 H1823 0.950 . S
C1832 C1831 1.398 . S
C1832 C1833 1.391 . S
C1833 H1821 0.950 . S
C1833 C1829 1.393 . S
C1833 C1832 1.391 . S
C1834 H1824 0.950 . S
C1834 C1835 1.386 . S
C1834 C1836 1.391 . S
C1835 C1834 1.386 . S
C1835 C1839 1.393 . S
C1836 H1825 0.950 . S
C1836 C1834 1.391 . S
C1836 C1837 1.400 . S
C1837 C1831 1.491 . S
C1837 C1836 1.400 . S
C1837 C1838 1.398 . S
C1838 H1826 0.950 . S
C1838 C1837 1.398 . S
C1838 C1839 1.391 . S
C1839 H1827 0.950 . S
C1839 C1835 1.393 . S
C1839 C1838 1.391 . S
H1840 C1848 0.950 . S
H1841 C1853 0.950 . S
H1842 C1850 0.950 . S
H1843 C1852 0.950 . S
H1844 C1854 0.950 . S
H1845 C1856 0.950 . S
H1846 C1858 0.950 . S
H1847 C1859 0.950 . S
C1848 H1840 0.950 . S
C1848 C1849 1.386 . S
C1848 C1850 1.391 . S
C1849 C1848 1.386 . S
C1849 C1853 1.393 . S
C1850 H1842 0.950 . S
C1850 C1848 1.391 . S
C1850 C1851 1.400 . S
C1851 C1850 1.400 . S
C1851 C1852 1.398 . S
C1851 C1857 1.491 . S
C1852 H1843 0.950 . S
C1852 C1851 1.398 . S
C1852 C1853 1.391 . S
C1853 H1841 0.950 . S
C1853 C1849 1.393 . S
C1853 C1852 1.391 . S
C1854 H1844 0.950 . S
C1854 C1855 1.386 . S
C1854 C1856 1.391 . S
C1855 C1854 1.386 . S
C1855 C1859 1.393 . S
C1856 H1845 0.950 . S
C1856 C1854 1.391 . S
C1856 C1857 1.400 . S
C1857 C1851 1.491 . S
C1857 C1856 1.400 . S
C1857 C1858 1.398 . S
C1858 H1846 0.950 . S
C1858 C1857 1.398 . S
C1858 C1859 1.391 . S
C1859 H1847 0.950 . S
C1859 C1855 1.393 . S
C1859 C1858 1.391 . S
H1860 C1868 0.950 . S
H1861 C1873 0.950 . S
H1862 C1870 0.950 . S
H1863 C1872 0.950 . S
H1864 C1874 0.950 . S
H1865 C1876 0.950 . S
H1866 C1878 0.950 . S
H1867 C1879 0.950 . S
C1868 H1860 0.950 . S
C1868 C1869 1.386 . S
C1868 C1870 1.391 . S
C1869 C1868 1.386 . S
C1869 C1873 1.393 . S
C1870 H1862 0.950 . S
C1870 C1868 1.391 . S
C1870 C1871 1.400 . S
C1871 C1870 1.400 . S
C1871 C1872 1.398 . S
C1871 C1877 1.491 . S
C1872 H1863 0.950 . S
C1872 C1871 1.398 . S
C1872 C1873 1.391 . S
C1873 H1861 0.950 . S
C1873 C1869 1.393 . S
C1873 C1872 1.391 . S
C1874 H1864 0.950 . S
C1874 C1875 1.386 . S
C1874 C1876 1.391 . S
C1875 C1874 1.386 . S
C1875 C1879 1.393 . S
C1876 H1865 0.950 . S
C1876 C1874 1.391 . S
C1876 C1877 1.400 . S
C1877 C1871 1.491 . S
C1877 C1876 1.400 . S
C1877 C1878 1.398 . S
C1878 H1866 0.950 . S
C1878 C1877 1.398 . S
C1878 C1879 1.391 . S
C1879 H1867 0.950 . S
C1879 C1875 1.393 . S
C1879 C1878 1.391 . S
H1880 C1888 0.950 . S
H1881 C1893 0.950 . S
H1882 C1890 0.950 . S
H1883 C1892 0.950 . S
H1884 C1894 0.950 . S
H1885 C1896 0.950 . S
H1886 C1898 0.950 . S
H1887 C1899 0.950 . S
C1888 H1880 0.950 . S
C1888 C1889 1.386 . S
C1888 C1890 1.391 . S
C1889 C1888 1.386 . S
C1889 C1893 1.393 . S
C1890 H1882 0.950 . S
C1890 C1888 1.391 . S
C1890 C1891 1.400 . S
C1891 C1890 1.400 . S
C1891 C1892 1.398 . S
C1891 C1897 1.491 . S
C1892 H1883 0.950 . S
C1892 C1891 1.398 . S
C1892 C1893 1.391 . S
C1893 H1881 0.950 . S
C1893 C1889 1.393 . S
C1893 C1892 1.391 . S
C1894 H1884 0.950 . S
C1894 C1895 1.386 . S
C1894 C1896 1.391 . S
C1895 C1894 1.386 . S
C1895 C1899 1.393 . S
C1896 H1885 0.950 . S
C1896 C1894 1.391 . S
C1896 C1897 1.400 . S
C1897 C1891 1.491 . S
C1897 C1896 1.400 . S
C1897 C1898 1.398 . S
C1898 H1886 0.950 . S
C1898 C1897 1.398 . S
C1898 C1899 1.391 . S
C1899 H1887 0.950 . S
C1899 C1895 1.393 . S
C1899 C1898 1.391 . S
H1900 C1908 0.950 . S
H1901 C1913 0.950 . S
H1902 C1910 0.950 . S
H1903 C1912 0.950 . S
H1904 C1914 0.950 . S
H1905 C1916 0.950 . S
H1906 C1918 0.950 . S
H1907 C1919 0.950 . S
C1908 H1900 0.950 . S
C1908 C1909 1.386 . S
C1908 C1910 1.391 . S
C1909 C1908 1.386 . S
C1909 C1913 1.393 . S
C1910 H1902 0.950 . S
C1910 C1908 1.391 . S
C1910 C1911 1.400 . S
C1911 C1910 1.400 . S
C1911 C1912 1.398 . S
C1911 C1917 1.491 . S
C1912 H1903 0.950 . S
C1912 C1911 1.398 . S
C1912 C1913 1.391 . S
C1913 H1901 0.950 . S
C1913 C1909 1.393 . S
C1913 C1912 1.391 . S
C1914 H1904 0.950 . S
C1914 C1915 1.386 . S
C1914 C1916 1.391 . S
C1915 C1914 1.386 . S
C1915 C1919 1.393 . S
C1916 H1905 0.950 . S
C1916 C1914 1.391 . S
C1916 C1917 1.400 . S
C1917 C1911 1.491 . S
C1917 C1916 1.400 . S
C1917 C1918 1.398 . S
C1918 H1906 0.950 . S
C1918 C1917 1.398 . S
C1918 C1919 1.391 . S
C1919 H1907 0.950 . S
C1919 C1915 1.393 . S
C1919 C1918 1.391 . S
H1920 C1928 0.950 . S
H1921 C1933 0.950 . S
H1922 C1930 0.950 . S
H1923 C1932 0.950 . S
H1924 C1934 0.950 . S
H1925 C1936 0.950 . S
H1926 C1938 0.950 . S
H1927 C1939 0.950 . S
C1928 H1920 0.950 . S
C1928 C1929 1.386 . S
C1928 C1930 1.391 . S
C1929 C1928 1.386 . S
C1929 C1933 1.393 . S
C1930 H1922 0.950 . S
C1930 C1928 1.391 . S
C1930 C1931 1.400 . S
C1931 C1930 1.400 . S
C1931 C1932 1.398 . S
C1931 C1937 1.491 . S
C1932 H1923 0.950 . S
C1932 C1931 1.398 . S
C1932 C1933 1.391 . S
C1933 H1921 0.950 . S
C1933 C1929 1.393 . S
C1933 C1932 1.391 . S
C1934 H1924 0.950 . S
C1934 C1935 1.386 . S
C1934 C1936 1.391 . S
C1935 C1934 1.386 . S
C1935 C1939 1.393 . S
C1936 H1925 0.950 . S
C1936 C1934 1.391 . S
C1936 C1937 1.400 . S
C1937 C1931 1.491 . S
C1937 C1936 1.400 . S
C1937 C1938 1.398 . S
C1938 H1926 0.950 . S
C1938 C1937 1.398 . S
C1938 C1939 1.391 . S
C1939 H1927 0.950 . S
C1939 C1935 1.393 . S
C1939 C1938 1.391 . S
H1940 C1948 0.950 . S
H1941 C1953 0.950 . S
H1942 C1950 0.950 . S
H1943 C1952 0.950 . S
H1944 C1954 0.950 . S
H1945 C1956 0.950 . S
H1946 C1958 0.950 . S
H1947 C1959 0.950 . S
C1948 H1940 0.950 . S
C1948 C1949 1.386 . S
C1948 C1950 1.391 . S
C1949 C1948 1.386 . S
C1949 C1953 1.393 . S
C1950 H1942 0.950 . S
C1950 C1948 1.391 . S
C1950 C1951 1.400 . S
C1951 C1950 1.400 . S
C1951 C1952 1.398 . S
C1951 C1957 1.491 . S
C1952 H1943 0.950 . S
C1952 C1951 1.398 . S
C1952 C1953 1.391 . S
C1953 H1941 0.950 . S
C1953 C1949 1.393 . S
C1953 C1952 1.391 . S
C1954 H1944 0.950 . S
C1954 C1955 1.386 . S
C1954 C1956 1.391 . S
C1955 C1954 1.386 . S
C1955 C1959 1.393 . S
C1956 H1945 0.950 . S
C1956 C1954 1.391 . S
C1956 C1957 1.400 . S
C1957 C1951 1.491 . S
C1957 C1956 1.400 . S
C1957 C1958 1.398 . S
C1958 H1946 0.950 . S
C1958 C1957 1.398 . S
C1958 C1959 1.391 . S
C1959 H1947 0.950 . S
C1959 C1955 1.393 . S
C1959 C1958 1.391 . S
H1960 C1968 0.950 . S
H1961 C1973 0.950 . S
H1962 C1970 0.950 . S
H1963 C1972 0.950 . S
H1964 C1974 0.950 . S
H1965 C1976 0.950 . S
H1966 C1978 0.950 . S
H1967 C1979 0.950 . S
C1968 H1960 0.950 . S
C1968 C1969 1.386 . S
C1968 C1970 1.391 . S
C1969 C1968 1.386 . S
C1969 C1973 1.393 . S
C1970 H1962 0.950 . S
C1970 C1968 1.391 . S
C1970 C1971 1.400 . S
C1971 C1970 1.400 . S
C1971 C1972 1.398 . S
C1971 C1977 1.491 . S
C1972 H1963 0.950 . S
C1972 C1971 1.398 . S
C1972 C1973 1.391 . S
C1973 H1961 0.950 . S
C1973 C1969 1.393 . S
C1973 C1972 1.391 . S
C1974 H1964 0.950 . S
C1974 C1975 1.386 . S
C1974 C1976 1.391 . S
C1975 C1974 1.386 . S
C1975 C1979 1.393 . S
C1976 H1965 0.950 . S
C1976 C1974 1.391 . S
C1976 C1977 1.400 . S
C1977 C1971 1.491 . S
C1977 C1976 1.400 . S
C1977 C1978 1.398 . S
C1978 H1966 0.950 . S
C1978 C1977 1.398 . S
C1978 C1979 1.391 . S
C1979 H1967 0.950 . S
C1979 C1975 1.393 . S
C1979 C1978 1.391 . S
H1980 C1988 0.950 . S
H1981 C1993 0.950 . S
H1982 C1990 0.950 . S
H1983 C1992 0.950 . S
H1984 C1994 0.950 . S
H1985 C1996 0.950 . S
H1986 C1998 0.950 . S
H1987 C1999 0.950 . S
C1988 H1980 0.950 . S
C1988 C1989 1.386 . S
C1988 C1990 1.391 . S
C1989 C1988 1.386 . S
C1989 C1993 1.393 . S
C1990 H1982 0.950 . S
C1990 C1988 1.391 . S
C1990 C1991 1.400 . S
C1991 C1990 1.400 . S
C1991 C1992 1.398 . S
C1991 C1997 1.491 . S
C1992 H1983 0.950 . S
C1992 C1991 1.398 . S
C1992 C1993 1.391 . S
C1993 H1981 0.950 . S
C1993 C1989 1.393 . S
C1993 C1992 1.391 . S
C1994 H1984 0.950 . S
C1994 C1995 1.386 . S
C1994 C1996 1.391 . S
C1995 C1994 1.386 . S
C1995 C1999 1.393 . S
C1996 H1985 0.950 . S
C1996 C1994 1.391 . S
C1996 C1997 1.400 . S
C1997 C1991 1.491 . S
C1997 C1996 1.400 . S
C1997 C1998 1.398 . S
C1998 H1986 0.950 . S
C1998 C1997 1.398 . S
C1998 C1999 1.391 . S
C1999 H1987 0.950 . S
C1999 C1995 1.393 . S
C1999 C1998 1.391 . S
H2000 C2008 0.950 . S
H2001 C2013 0.950 . S
H2002 C2010 0.950 . S
H2003 C2012 0.950 . S
H2004 C2014 0.950 . S
H2005 C2016 0.950 . S
H2006 C2018 0.950 . S
H2007 C2019 0.950 . S
C2008 H2000 0.950 . S
C2008 C2009 1.386 . S
C2008 C2010 1.391 . S
C2009 C2008 1.386 . S
C2009 C2013 1.393 . S
C2010 H2002 0.950 . S
C2010 C2008 1.391 . S
C2010 C2011 1.400 . S
C2011 C2010 1.400 . S
C2011 C2012 1.398 . S
C2011 C2017 1.491 . S
C2012 H2003 0.950 . S
C2012 C2011 1.398 . S
C2012 C2013 1.391 . S
C2013 H2001 0.950 . S
C2013 C2009 1.393 . S
C2013 C2012 1.391 . S
C2014 H2004 0.950 . S
C2014 C2015 1.386 . S
C2014 C2016 1.391 . S
C2015 C2014 1.386 . S
C2015 C2019 1.393 . S
C2016 H2005 0.950 . S
C2016 C2014 1.391 . S
C2016 C2017 1.400 . S
C2017 C2011 1.491 . S
C2017 C2016 1.400 . S
C2017 C2018 1.398 . S
C2018 H2006 0.950 . S
C2018 C2017 1.398 . S
C2018 C2019 1.391 . S
C2019 H2007 0.950 . S
C2019 C2015 1.393 . S
C2019 C2018 1.391 . S
H2020 C2028 0.950 . S
H2021 C2033 0.950 . S
H2022 C2030 0.950 . S
H2023 C2032 0.950 . S
H2024 C2034 0.950 . S
H2025 C2036 0.950 . S
H2026 C2038 0.950 . S
H2027 C2039 0.950 . S
C2028 H2020 0.950 . S
C2028 C2029 1.386 . S
C2028 C2030 1.391 . S
C2029 C2028 1.386 . S
C2029 C2033 1.393 . S
C2030 H2022 0.950 . S
C2030 C2028 1.391 . S
C2030 C2031 1.400 . S
C2031 C2030 1.400 . S
C2031 C2032 1.398 . S
C2031 C2037 1.491 . S
C2032 H2023 0.950 . S
C2032 C2031 1.398 . S
C2032 C2033 1.391 . S
C2033 H2021 0.950 . S
C2033 C2029 1.393 . S
C2033 C2032 1.391 . S
C2034 H2024 0.950 . S
C2034 C2035 1.386 . S
C2034 C2036 1.391 . S
C2035 C2034 1.386 . S
C2035 C2039 1.393 . S
C2036 H2025 0.950 . S
C2036 C2034 1.391 . S
C2036 C2037 1.400 . S
C2037 C2031 1.491 . S
C2037 C2036 1.400 . S
C2037 C2038 1.398 . S
C2038 H2026 0.950 . S
C2038 C2037 1.398 . S
C2038 C2039 1.391 . S
C2039 H2027 0.950 . S
C2039 C2035 1.393 . S
C2039 C2038 1.391 . S
H2040 C2048 0.950 . S
H2041 C2053 0.950 . S
H2042 C2050 0.950 . S
H2043 C2052 0.950 . S
H2044 C2054 0.950 . S
H2045 C2056 0.950 . S
H2046 C2058 0.950 . S
H2047 C2059 0.950 . S
C2048 H2040 0.950 . S
C2048 C2049 1.386 . S
C2048 C2050 1.391 . S
C2049 C2048 1.386 . S
C2049 C2053 1.393 . S
C2050 H2042 0.950 . S
C2050 C2048 1.391 . S
C2050 C2051 1.400 . S
C2051 C2050 1.400 . S
C2051 C2052 1.398 . S
C2051 C2057 1.491 . S
C2052 H2043 0.950 . S
C2052 C2051 1.398 . S
C2052 C2053 1.391 . S
C2053 H2041 0.950 . S
C2053 C2049 1.393 . S
C2053 C2052 1.391 . S
C2054 H2044 0.950 . S
C2054 C2055 1.386 . S
C2054 C2056 1.391 . S
C2055 C2054 1.386 . S
C2055 C2059 1.393 . S
C2056 H2045 0.950 . S
C2056 C2054 1.391 . S
C2056 C2057 1.400 . S
C2057 C2051 1.491 . S
C2057 C2056 1.400 . S
C2057 C2058 1.398 . S
C2058 H2046 0.950 . S
C2058 C2057 1.398 . S
C2058 C2059 1.391 . S
C2059 H2047 0.950 . S
C2059 C2055 1.393 . S
C2059 C2058 1.391 . S
H2060 C2068 0.950 . S
H2061 C2073 0.950 . S
H2062 C2070 0.950 . S
H2063 C2072 0.950 . S
H2064 C2074 0.950 . S
H2065 C2076 0.950 . S
H2066 C2078 0.950 . S
H2067 C2079 0.950 . S
C2068 H2060 0.950 . S
C2068 C2069 1.386 . S
C2068 C2070 1.391 . S
C2069 C2068 1.386 . S
C2069 C2073 1.393 . S
C2070 H2062 0.950 . S
C2070 C2068 1.391 . S
C2070 C2071 1.400 . S
C2071 C2070 1.400 . S
C2071 C2072 1.398 . S
C2071 C2077 1.491 . S
C2072 H2063 0.950 . S
C2072 C2071 1.398 . S
C2072 C2073 1.391 . S
C2073 H2061 0.950 . S
C2073 C2069 1.393 . S
C2073 C2072 1.391 . S
C2074 H2064 0.950 . S
C2074 C2075 1.386 . S
C2074 C2076 1.391 . S
C2075 C2074 1.386 . S
C2075 C2079 1.393 . S
C2076 H2065 0.950 . S
C2076 C2074 1.391 . S
C2076 C2077 1.400 . S
C2077 C2071 1.491 . S
C2077 C2076 1.400 . S
C2077 C2078 1.398 . S
C2078 H2066 0.950 . S
C2078 C2077 1.398 . S
C2078 C2079 1.391 . S
C2079 H2067 0.950 . S
C2079 C2075 1.393 . S
C2079 C2078 1.391 . S
H2080 C2088 0.950 . S
H2081 C2093 0.950 . S
H2082 C2090 0.950 . S
H2083 C2092 0.950 . S
H2084 C2094 0.950 . S
H2085 C2096 0.950 . S
H2086 C2098 0.950 . S
H2087 C2099 0.950 . S
C2088 H2080 0.950 . S
C2088 C2089 1.386 . S
C2088 C2090 1.391 . S
C2089 C2088 1.386 . S
C2089 C2093 1.393 . S
C2090 H2082 0.950 . S
C2090 C2088 1.391 . S
C2090 C2091 1.400 . S
C2091 C2090 1.400 . S
C2091 C2092 1.398 . S
C2091 C2097 1.491 . S
C2092 H2083 0.950 . S
C2092 C2091 1.398 . S
C2092 C2093 1.391 . S
C2093 H2081 0.950 . S
C2093 C2089 1.393 . S
C2093 C2092 1.391 . S
C2094 H2084 0.950 . S
C2094 C2095 1.386 . S
C2094 C2096 1.391 . S
C2095 C2094 1.386 . S
C2095 C2099 1.393 . S
C2096 H2085 0.950 . S
C2096 C2094 1.391 . S
C2096 C2097 1.400 . S
C2097 C2091 1.491 . S
C2097 C2096 1.400 . S
C2097 C2098 1.398 . S
C2098 H2086 0.950 . S
C2098 C2097 1.398 . S
C2098 C2099 1.391 . S
C2099 H2087 0.950 . S
C2099 C2095 1.393 . S
C2099 C2098 1.391 . S
H2100 C2108 0.950 . S
H2101 C2113 0.950 . S
H2102 C2110 0.950 . S
H2103 C2112 0.950 . S
H2104 C2114 0.950 . S
H2105 C2116 0.950 . S
H2106 C2118 0.950 . S
H2107 C2119 0.950 . S
C2108 H2100 0.950 . S
C2108 C2109 1.386 . S
C2108 C2110 1.391 . S
C2109 C2108 1.386 . S
C2109 C2113 1.393 . S
C2110 H2102 0.950 . S
C2110 C2108 1.391 . S
C2110 C2111 1.400 . S
C2111 C2110 1.400 . S
C2111 C2112 1.398 . S
C2111 C2117 1.491 . S
C2112 H2103 0.950 . S
C2112 C2111 1.398 . S
C2112 C2113 1.391 . S
C2113 H2101 0.950 . S
C2113 C2109 1.393 . S
C2113 C2112 1.391 . S
C2114 H2104 0.950 . S
C2114 C2115 1.386 . S
C2114 C2116 1.391 . S
C2115 C2114 1.386 . S
C2115 C2119 1.393 . S
C2116 H2105 0.950 . S
C2116 C2114 1.391 . S
C2116 C2117 1.400 . S
C2117 C2111 1.491 . S
C2117 C2116 1.400 . S
C2117 C2118 1.398 . S
C2118 H2106 0.950 . S
C2118 C2117 1.398 . S
C2118 C2119 1.391 . S
C2119 H2107 0.950 . S
C2119 C2115 1.393 . S
C2119 C2118 1.391 . S
H2120 C2128 0.950 . S
H2121 C2133 0.950 . S
H2122 C2130 0.950 . S
H2123 C2132 0.950 . S
H2124 C2134 0.950 . S
H2125 C2136 0.950 . S
H2126 C2138 0.950 . S
H2127 C2139 0.950 . S
C2128 H2120 0.950 . S
C2128 C2129 1.386 . S
C2128 C2130 1.391 . S
C2129 C2128 1.386 . S
C2129 C2133 1.393 . S
C2130 H2122 0.950 . S
C2130 C2128 1.391 . S
C2130 C2131 1.400 . S
C2131 C2130 1.400 . S
C2131 C2132 1.398 . S
C2131 C2137 1.491 . S
C2132 H2123 0.950 . S
C2132 C2131 1.398 . S
C2132 C2133 1.391 . S
C2133 H2121 0.950 . S
C2133 C2129 1.393 . S
C2133 C2132 1.391 . S
C2134 H2124 0.950 . S
C2134 C2135 1.386 . S
C2134 C2136 1.391 . S
C2135 C2134 1.386 . S
C2135 C2139 1.393 . S
C2136 H2125 0.950 . S
C2136 C2134 1.391 . S
C2136 C2137 1.400 . S
C2137 C2131 1.491 . S
C2137 C2136 1.400 . S
C2137 C2138 1.398 . S
C2138 H2126 0.950 . S
C2138 C2137 1.398 . S
C2138 C2139 1.391 . S
C2139 H2127 0.950 . S
C2139 C2135 1.393 . S
C2139 C2138 1.391 . S
H2140 C2148 0.950 . S
H2141 C2153 0.950 . S
H2142 C2150 0.950 . S
H2143 C2152 0.950 . S
H2144 C2154 0.950 . S
H2145 C2156 0.950 . S
H2146 C2158 0.950 . S
H2147 C2159 0.950 . S
C2148 H2140 0.950 . S
C2148 C2149 1.386 . S
C2148 C2150 1.391 . S
C2149 C2148 1.386 . S
C2149 C2153 1.393 . S
C2150 H2142 0.950 . S
C2150 C2148 1.391 . S
C2150 C2151 1.400 . S
C2151 C2150 1.400 . S
C2151 C2152 1.398 . S
C2151 C2157 1.491 . S
C2152 H2143 0.950 . S
C2152 C2151 1.398 . S
C2152 C2153 1.391 . S
C2153 H2141 0.950 . S
C2153 C2149 1.393 . S
C2153 C2152 1.391 . S
C2154 H2144 0.950 . S
C2154 C2155 1.386 . S
C2154 C2156 1.391 . S
C2155 C2154 1.386 . S
C2155 C2159 1.393 . S
C2156 H2145 0.950 . S
C2156 C2154 1.391 . S
C2156 C2157 1.400 . S
C2157 C2151 1.491 . S
C2157 C2156 1.400 . S
C2157 C2158 1.398 . S
C2158 H2146 0.950 . S
C2158 C2157 1.398 . S
C2158 C2159 1.391 . S
C2159 H2147 0.950 . S
C2159 C2155 1.393 . S
C2159 C2158 1.391 . S
H2160 C2168 0.950 . S
H2161 C2173 0.950 . S
H2162 C2170 0.950 . S
H2163 C2172 0.950 . S
H2164 C2174 0.950 . S
H2165 C2176 0.950 . S
H2166 C2178 0.950 . S
H2167 C2179 0.950 . S
C2168 H2160 0.950 . S
C2168 C2169 1.386 . S
C2168 C2170 1.391 . S
C2169 C2168 1.386 . S
C2169 C2173 1.393 . S
C2170 H2162 0.950 . S
C2170 C2168 1.391 . S
C2170 C2171 1.400 . S
C2171 C2170 1.400 . S
C2171 C2172 1.398 . S
C2171 C2177 1.491 . S
C2172 H2163 0.950 . S
C2172 C2171 1.398 . S
C2172 C2173 1.391 . S
C2173 H2161 0.950 . S
C2173 C2169 1.393 . S
C2173 C2172 1.391 . S
C2174 H2164 0.950 . S
C2174 C2175 1.386 . S
C2174 C2176 1.391 . S
C2175 C2174 1.386 . S
C2175 C2179 1.393 . S
C2176 H2165 0.950 . S
C2176 C2174 1.391 . S
C2176 C2177 1.400 . S
C2177 C2171 1.491 . S
C2177 C2176 1.400 . S
C2177 C2178 1.398 . S
C2178 H2166 0.950 . S
C2178 C2177 1.398 . S
C2178 C2179 1.391 . S
C2179 H2167 0.950 . S
C2179 C2175 1.393 . S
C2179 C2178 1.391 . S
H2180 C2188 0.950 . S
H2181 C2193 0.950 . S
H2182 C2190 0.950 . S
H2183 C2192 0.950 . S
H2184 C2194 0.950 . S
H2185 C2196 0.950 . S
H2186 C2198 0.950 . S
H2187 C2199 0.950 . S
C2188 H2180 0.950 . S
C2188 C2189 1.386 . S
C2188 C2190 1.391 . S
C2189 C2188 1.386 . S
C2189 C2193 1.393 . S
C2190 H2182 0.950 . S
C2190 C2188 1.391 . S
C2190 C2191 1.400 . S
C2191 C2190 1.400 . S
C2191 C2192 1.398 . S
C2191 C2197 1.491 . S
C2192 H2183 0.950 . S
C2192 C2191 1.398 . S
C2192 C2193 1.391 . S
C2193 H2181 0.950 . S
C2193 C2189 1.393 . S
C2193 C2192 1.391 . S
C2194 H2184 0.950 . S
C2194 C2195 1.386 . S
C2194 C2196 1.391 . S
C2195 C2194 1.386 . S
C2195 C2199 1.393 . S
C2196 H2185 0.950 . S
C2196 C2194 1.391 . S
C2196 C2197 1.400 . S
C2197 C2191 1.491 . S
C2197 C2196 1.400 . S
C2197 C2198 1.398 . S
C2198 H2186 0.950 . S
C2198 C2197 1.398 . S
C2198 C2199 1.391 . S
C2199 H2187 0.950 . S
C2199 C2195 1.393 . S
C2199 C2198 1.391 . S
H2200 C2208 0.950 . S
H2201 C2213 0.950 . S
H2202 C2210 0.950 . S
H2203 C2212 0.950 . S
H2204 C2214 0.950 . S
H2205 C2216 0.950 . S
H2206 C2218 0.950 . S
H2207 C2219 0.950 . S
C2208 H2200 0.950 . S
C2208 C2209 1.386 . S
C2208 C2210 1.391 . S
C2209 C2208 1.386 . S
C2209 C2213 1.393 . S
C2210 H2202 0.950 . S
C2210 C2208 1.391 . S
C2210 C2211 1.400 . S
C2211 C2210 1.400 . S
C2211 C2212 1.398 . S
C2211 C2217 1.491 . S
C2212 H2203 0.950 . S
C2212 C2211 1.398 . S
C2212 C2213 1.391 . S
C2213 H2201 0.950 . S
C2213 C2209 1.393 . S
C2213 C2212 1.391 . S
C2214 H2204 0.950 . S
C2214 C2215 1.386 . S
C2214 C2216 1.391 . S
C2215 C2214 1.386 . S
C2215 C2219 1.393 . S
C2216 H2205 0.950 . S
C2216 C2214 1.391 . S
C2216 C2217 1.400 . S
C2217 C2211 1.491 . S
C2217 C2216 1.400 . S
C2217 C2218 1.398 . S
C2218 H2206 0.950 . S
C2218 C2217 1.398 . S
C2218 C2219 1.391 . S
C2219 H2207 0.950 . S
C2219 C2215 1.393 . S
C2219 C2218 1.391 . S
H2220 C2228 0.950 . S
H2221 C2233 0.950 . S
H2222 C2230 0.950 . S
H2223 C2232 0.950 . S
H2224 C2234 0.950 . S
H2225 C2236 0.950 . S
H2226 C2238 0.950 . S
H2227 C2239 0.950 . S
C2228 H2220 0.950 . S
C2228 C2229 1.386 . S
C2228 C2230 1.391 . S
C2229 C2228 1.386 . S
C2229 C2233 1.393 . S
C2230 H2222 0.950 . S
C2230 C2228 1.391 . S
C2230 C2231 1.400 . S
C2231 C2230 1.400 . S
C2231 C2232 1.398 . S
C2231 C2237 1.491 . S
C2232 H2223 0.950 . S
C2232 C2231 1.398 . S
C2232 C2233 1.391 . S
C2233 H2221 0.950 . S
C2233 C2229 1.393 . S
C2233 C2232 1.391 . S
C2234 H2224 0.950 . S
C2234 C2235 1.386 . S
C2234 C2236 1.391 . S
C2235 C2234 1.386 . S
C2235 C2239 1.393 . S
C2236 H2225 0.950 . S
C2236 C2234 1.391 . S
C2236 C2237 1.400 . S
C2237 C2231 1.491 . S
C2237 C2236 1.400 . S
C2237 C2238 1.398 . S
C2238 H2226 0.950 . S
C2238 C2237 1.398 . S
C2238 C2239 1.391 . S
C2239 H2227 0.950 . S
C2239 C2235 1.393 . S
C2239 C2238 1.391 . S
H2240 C2248 0.950 . S
H2241 C2253 0.950 . S
H2242 C2250 0.950 . S
H2243 C2252 0.950 . S
H2244 C2254 0.950 . S
H2245 C2256 0.950 . S
H2246 C2258 0.950 . S
H2247 C2259 0.950 . S
C2248 H2240 0.950 . S
C2248 C2249 1.386 . S
C2248 C2250 1.391 . S
C2249 C2248 1.386 . S
C2249 C2253 1.393 . S
C2250 H2242 0.950 . S
C2250 C2248 1.391 . S
C2250 C2251 1.400 . S
C2251 C2250 1.400 . S
C2251 C2252 1.398 . S
C2251 C2257 1.491 . S
C2252 H2243 0.950 . S
C2252 C2251 1.398 . S
C2252 C2253 1.391 . S
C2253 H2241 0.950 . S
C2253 C2249 1.393 . S
C2253 C2252 1.391 . S
C2254 H2244 0.950 . S
C2254 C2255 1.386 . S
C2254 C2256 1.391 . S
C2255 C2254 1.386 . S
C2255 C2259 1.393 . S
C2256 H2245 0.950 . S
C2256 C2254 1.391 . S
C2256 C2257 1.400 . S
C2257 C2251 1.491 . S
C2257 C2256 1.400 . S
C2257 C2258 1.398 . S
C2258 H2246 0.950 . S
C2258 C2257 1.398 . S
C2258 C2259 1.391 . S
C2259 H2247 0.950 . S
C2259 C2255 1.393 . S
C2259 C2258 1.391 . S
H2260 C2268 0.950 . S
H2261 C2273 0.950 . S
H2262 C2270 0.950 . S
H2263 C2272 0.950 . S
H2264 C2274 0.950 . S
H2265 C2276 0.950 . S
H2266 C2278 0.950 . S
H2267 C2279 0.950 . S
C2268 H2260 0.950 . S
C2268 C2269 1.386 . S
C2268 C2270 1.391 . S
C2269 C2268 1.386 . S
C2269 C2273 1.393 . S
C2270 H2262 0.950 . S
C2270 C2268 1.391 . S
C2270 C2271 1.400 . S
C2271 C2270 1.400 . S
C2271 C2272 1.398 . S
C2271 C2277 1.491 . S
C2272 H2263 0.950 . S
C2272 C2271 1.398 . S
C2272 C2273 1.391 . S
C2273 H2261 0.950 . S
C2273 C2269 1.393 . S
C2273 C2272 1.391 . S
C2274 H2264 0.950 . S
C2274 C2275 1.386 . S
C2274 C2276 1.391 . S
C2275 C2274 1.386 . S
C2275 C2279 1.393 . S
C2276 H2265 0.950 . S
C2276 C2274 1.391 . S
C2276 C2277 1.400 . S
C2277 C2271 1.491 . S
C2277 C2276 1.400 . S
C2277 C2278 1.398 . S
C2278 H2266 0.950 . S
C2278 C2277 1.398 . S
C2278 C2279 1.391 . S
C2279 H2267 0.950 . S
C2279 C2275 1.393 . S
C2279 C2278 1.391 . S
H2280 C2288 0.950 . S
H2281 C2293 0.950 . S
H2282 C2290 0.950 . S
H2283 C2292 0.950 . S
H2284 C2294 0.950 . S
H2285 C2296 0.950 . S
H2286 C2298 0.950 . S
H2287 C2299 0.950 . S
C2288 H2280 0.950 . S
C2288 C2289 1.386 . S
C2288 C2290 1.391 . S
C2289 C2288 1.386 . S
C2289 C2293 1.393 . S
C2290 H2282 0.950 . S
C2290 C2288 1.391 . S
C2290 C2291 1.400 . S
C2291 C2290 1.400 . S
C2291 C2292 1.398 . S
C2291 C2297 1.491 . S
C2292 H2283 0.950 . S
C2292 C2291 1.398 . S
C2292 C2293 1.391 . S
C2293 H2281 0.950 . S
C2293 C2289 1.393 . S
C2293 C2292 1.391 . S
C2294 H2284 0.950 . S
C2294 C2295 1.386 . S
C2294 C2296 1.391 . S
C2295 C2294 1.386 . S
C2295 C2299 1.393 . S
C2296 H2285 0.950 . S
C2296 C2294 1.391 . S
C2296 C2297 1.400 . S
C2297 C2291 1.491 . S
C2297 C2296 1.400 . S
C2297 C2298 1.398 . S
C2298 H2286 0.950 . S
C2298 C2297 1.398 . S
C2298 C2299 1.391 . S
C2299 H2287 0.950 . S
C2299 C2295 1.393 . S
C2299 C2298 1.391 . S
H2300 C2308 0.950 . S
H2301 C2313 0.950 . S
H2302 C2310 0.950 . S
H2303 C2312 0.950 . S
H2304 C2314 0.950 . S
H2305 C2316 0.950 . S
H2306 C2318 0.950 . S
H2307 C2319 0.950 . S
C2308 H2300 0.950 . S
C2308 C2309 1.386 . S
C2308 C2310 1.391 . S
C2309 C2308 1.386 . S
C2309 C2313 1.393 . S
C2310 H2302 0.950 . S
C2310 C2308 1.391 . S
C2310 C2311 1.400 . S
C2311 C2310 1.400 . S
C2311 C2312 1.398 . S
C2311 C2317 1.491 . S
C2312 H2303 0.950 . S
C2312 C2311 1.398 . S
C2312 C2313 1.391 . S
C2313 H2301 0.950 . S
C2313 C2309 1.393 . S
C2313 C2312 1.391 . S
C2314 H2304 0.950 . S
C2314 C2315 1.386 . S
C2314 C2316 1.391 . S
C2315 C2314 1.386 . S
C2315 C2319 1.393 . S
C2316 H2305 0.950 . S
C2316 C2314 1.391 . S
C2316 C2317 1.400 . S
C2317 C2311 1.491 . S
C2317 C2316 1.400 . S
C2317 C2318 1.398 . S
C2318 H2306 0.950 . S
C2318 C2317 1.398 . S
C2318 C2319 1.391 . S
C2319 H2307 0.950 . S
C2319 C2315 1.393 . S
C2319 C2318 1.391 . S
H2320 C2328 0.950 . S
H2321 C2333 0.950 . S
H2322 C2330 0.950 . S
H2323 C2332 0.950 . S
H2324 C2334 0.950 . S
H2325 C2336 0.950 . S
H2326 C2338 0.950 . S
H2327 C2339 0.950 . S
C2328 H2320 0.950 . S
C2328 C2329 1.386 . S
C2328 C2330 1.391 . S
C2329 C2328 1.386 . S
C2329 C2333 1.393 . S
C2330 H2322 0.950 . S
C2330 C2328 1.391 . S
C2330 C2331 1.400 . S
C2331 C2330 1.400 . S
C2331 C2332 1.398 . S
C2331 C2337 1.491 . S
C2332 H2323 0.950 . S
C2332 C2331 1.398 . S
C2332 C2333 1.391 . S
C2333 H2321 0.950 . S
C2333 C2329 1.393 . S
C2333 C2332 1.391 . S
C2334 H2324 0.950 . S
C2334 C2335 1.386 . S
C2334 C2336 1.391 . S
C2335 C2334 1.386 . S
C2335 C2339 1.393 . S
C2336 H2325 0.950 . S
C2336 C2334 1.391 . S
C2336 C2337 1.400 . S
C2337 C2331 1.491 . S
C2337 C2336 1.400 . S
C2337 C2338 1.398 . S
C2338 H2326 0.950 . S
C2338 C2337 1.398 . S
C2338 C2339 1.391 . S
C2339 H2327 0.950 . S
C2339 C2335 1.393 . S
C2339 C2338 1.391 . S
H2340 C2348 0.950 . S
H2341 C2353 0.950 . S
H2342 C2350 0.950 . S
H2343 C2352 0.950 . S
H2344 C2354 0.950 . S
H2345 C2356 0.950 . S
H2346 C2358 0.950 . S
H2347 C2359 0.950 . S
C2348 H2340 0.950 . S
C2348 C2349 1.386 . S
C2348 C2350 1.391 . S
C2349 C2348 1.386 . S
C2349 C2353 1.393 . S
C2350 H2342 0.950 . S
C2350 C2348 1.391 . S
C2350 C2351 1.400 . S
C2351 C2350 1.400 . S
C2351 C2352 1.398 . S
C2351 C2357 1.491 . S
C2352 H2343 0.950 . S
C2352 C2351 1.398 . S
C2352 C2353 1.391 . S
C2353 H2341 0.950 . S
C2353 C2349 1.393 . S
C2353 C2352 1.391 . S
C2354 H2344 0.950 . S
C2354 C2355 1.386 . S
C2354 C2356 1.391 . S
C2355 C2354 1.386 . S
C2355 C2359 1.393 . S
C2356 H2345 0.950 . S
C2356 C2354 1.391 . S
C2356 C2357 1.400 . S
C2357 C2351 1.491 . S
C2357 C2356 1.400 . S
C2357 C2358 1.398 . S
C2358 H2346 0.950 . S
C2358 C2357 1.398 . S
C2358 C2359 1.391 . S
C2359 H2347 0.950 . S
C2359 C2355 1.393 . S
C2359 C2358 1.391 . S
H2360 C2368 0.950 . S
H2361 C2373 0.950 . S
H2362 C2370 0.950 . S
H2363 C2372 0.950 . S
H2364 C2374 0.950 . S
H2365 C2376 0.950 . S
H2366 C2378 0.950 . S
H2367 C2379 0.950 . S
C2368 H2360 0.950 . S
C2368 C2369 1.386 . S
C2368 C2370 1.391 . S
C2369 C2368 1.386 . S
C2369 C2373 1.393 . S
C2370 H2362 0.950 . S
C2370 C2368 1.391 . S
C2370 C2371 1.400 . S
C2371 C2370 1.400 . S
C2371 C2372 1.398 . S
C2371 C2377 1.491 . S
C2372 H2363 0.950 . S
C2372 C2371 1.398 . S
C2372 C2373 1.391 . S
C2373 H2361 0.950 . S
C2373 C2369 1.393 . S
C2373 C2372 1.391 . S
C2374 H2364 0.950 . S
C2374 C2375 1.386 . S
C2374 C2376 1.391 . S
C2375 C2374 1.386 . S
C2375 C2379 1.393 . S
C2376 H2365 0.950 . S
C2376 C2374 1.391 . S
C2376 C2377 1.400 . S
C2377 C2371 1.491 . S
C2377 C2376 1.400 . S
C2377 C2378 1.398 . S
C2378 H2366 0.950 . S
C2378 C2377 1.398 . S
C2378 C2379 1.391 . S
C2379 H2367 0.950 . S
C2379 C2375 1.393 . S
C2379 C2378 1.391 . S
H2380 C2388 0.950 . S
H2381 C2393 0.950 . S
H2382 C2390 0.950 . S
H2383 C2392 0.950 . S
H2384 C2394 0.950 . S
H2385 C2396 0.950 . S
H2386 C2398 0.950 . S
H2387 C2399 0.950 . S
C2388 H2380 0.950 . S
C2388 C2389 1.386 . S
C2388 C2390 1.391 . S
C2389 C2388 1.386 . S
C2389 C2393 1.393 . S
C2390 H2382 0.950 . S
C2390 C2388 1.391 . S
C2390 C2391 1.400 . S
C2391 C2390 1.400 . S
C2391 C2392 1.398 . S
C2391 C2397 1.491 . S
C2392 H2383 0.950 . S
C2392 C2391 1.398 . S
C2392 C2393 1.391 . S
C2393 H2381 0.950 . S
C2393 C2389 1.393 . S
C2393 C2392 1.391 . S
C2394 H2384 0.950 . S
C2394 C2395 1.386 . S
C2394 C2396 1.391 . S
C2395 C2394 1.386 . S
C2395 C2399 1.393 . S
C2396 H2385 0.950 . S
C2396 C2394 1.391 . S
C2396 C2397 1.400 . S
C2397 C2391 1.491 . S
C2397 C2396 1.400 . S
C2397 C2398 1.398 . S
C2398 H2386 0.950 . S
C2398 C2397 1.398 . S
C2398 C2399 1.391 . S
C2399 H2387 0.950 . S
C2399 C2395 1.393 . S
C2399 C2398 1.391 . S
H2400 C2408 0.950 . S
H2401 C2413 0.950 . S
H2402 C2410 0.950 . S
H2403 C2412 0.950 . S
H2404 C2414 0.950 . S
H2405 C2416 0.950 . S
H2406 C2418 0.950 . S
H2407 C2419 0.950 . S
C2408 H2400 0.950 . S
C2408 C2409 1.386 . S
C2408 C2410 1.391 . S
C2409 C2408 1.386 . S
C2409 C2413 1.393 . S
C2410 H2402 0.950 . S
C2410 C2408 1.391 . S
C2410 C2411 1.400 . S
C2411 C2410 1.400 . S
C2411 C2412 1.398 . S
C2411 C2417 1.491 . S
C2412 H2403 0.950 . S
C2412 C2411 1.398 . S
C2412 C2413 1.391 . S
C2413 H2401 0.950 . S
C2413 C2409 1.393 . S
C2413 C2412 1.391 . S
C2414 H2404 0.950 . S
C2414 C2415 1.386 . S
C2414 C2416 1.391 . S
C2415 C2414 1.386 . S
C2415 C2419 1.393 . S
C2416 H2405 0.950 . S
C2416 C2414 1.391 . S
C2416 C2417 1.400 . S
C2417 C2411 1.491 . S
C2417 C2416 1.400 . S
C2417 C2418 1.398 . S
C2418 H2406 0.950 . S
C2418 C2417 1.398 . S
C2418 C2419 1.391 . S
C2419 H2407 0.950 . S
C2419 C2415 1.393 . S
C2419 C2418 1.391 . S
H2420 C2428 0.950 . S
H2421 C2433 0.950 . S
H2422 C2430 0.950 . S
H2423 C2432 0.950 . S
H2424 C2434 0.950 . S
H2425 C2436 0.950 . S
H2426 C2438 0.950 . S
H2427 C2439 0.950 . S
C2428 H2420 0.950 . S
C2428 C2429 1.386 . S
C2428 C2430 1.391 . S
C2429 C2428 1.386 . S
C2429 C2433 1.393 . S
C2430 H2422 0.950 . S
C2430 C2428 1.391 . S
C2430 C2431 1.400 . S
C2431 C2430 1.400 . S
C2431 C2432 1.398 . S
C2431 C2437 1.491 . S
C2432 H2423 0.950 . S
C2432 C2431 1.398 . S
C2432 C2433 1.391 . S
C2433 H2421 0.950 . S
C2433 C2429 1.393 . S
C2433 C2432 1.391 . S
C2434 H2424 0.950 . S
C2434 C2435 1.386 . S
C2434 C2436 1.391 . S
C2435 C2434 1.386 . S
C2435 C2439 1.393 . S
C2436 H2425 0.950 . S
C2436 C2434 1.391 . S
C2436 C2437 1.400 . S
C2437 C2431 1.491 . S
C2437 C2436 1.400 . S
C2437 C2438 1.398 . S
C2438 H2426 0.950 . S
C2438 C2437 1.398 . S
C2438 C2439 1.391 . S
C2439 H2427 0.950 . S
C2439 C2435 1.393 . S
C2439 C2438 1.391 . S
H2440 C2448 0.950 . S
H2441 C2453 0.950 . S
H2442 C2450 0.950 . S
H2443 C2452 0.950 . S
H2444 C2454 0.950 . S
H2445 C2456 0.950 . S
H2446 C2458 0.950 . S
H2447 C2459 0.950 . S
C2448 H2440 0.950 . S
C2448 C2449 1.386 . S
C2448 C2450 1.391 . S
C2449 C2448 1.386 . S
C2449 C2453 1.393 . S
C2450 H2442 0.950 . S
C2450 C2448 1.391 . S
C2450 C2451 1.400 . S
C2451 C2450 1.400 . S
C2451 C2452 1.398 . S
C2451 C2457 1.491 . S
C2452 H2443 0.950 . S
C2452 C2451 1.398 . S
C2452 C2453 1.391 . S
C2453 H2441 0.950 . S
C2453 C2449 1.393 . S
C2453 C2452 1.391 . S
C2454 H2444 0.950 . S
C2454 C2455 1.386 . S
C2454 C2456 1.391 . S
C2455 C2454 1.386 . S
C2455 C2459 1.393 . S
C2456 H2445 0.950 . S
C2456 C2454 1.391 . S
C2456 C2457 1.400 . S
C2457 C2451 1.491 . S
C2457 C2456 1.400 . S
C2457 C2458 1.398 . S
C2458 H2446 0.950 . S
C2458 C2457 1.398 . S
C2458 C2459 1.391 . S
C2459 H2447 0.950 . S
C2459 C2455 1.393 . S
C2459 C2458 1.391 . S
H2460 C2468 0.950 . S
H2461 C2473 0.950 . S
H2462 C2470 0.950 . S
H2463 C2472 0.950 . S
H2464 C2474 0.950 . S
H2465 C2476 0.950 . S
H2466 C2478 0.950 . S
H2467 C2479 0.950 . S
C2468 H2460 0.950 . S
C2468 C2469 1.386 . S
C2468 C2470 1.391 . S
C2469 C2468 1.386 . S
C2469 C2473 1.393 . S
C2470 H2462 0.950 . S
C2470 C2468 1.391 . S
C2470 C2471 1.400 . S
C2471 C2470 1.400 . S
C2471 C2472 1.398 . S
C2471 C2477 1.491 . S
C2472 H2463 0.950 . S
C2472 C2471 1.398 . S
C2472 C2473 1.391 . S
C2473 H2461 0.950 . S
C2473 C2469 1.393 . S
C2473 C2472 1.391 . S
C2474 H2464 0.950 . S
C2474 C2475 1.386 . S
C2474 C2476 1.391 . S
C2475 C2474 1.386 . S
C2475 C2479 1.393 . S
C2476 H2465 0.950 . S
C2476 C2474 1.391 . S
C2476 C2477 1.400 . S
C2477 C2471 1.491 . S
C2477 C2476 1.400 . S
C2477 C2478 1.398 . S
C2478 H2466 0.950 . S
C2478 C2477 1.398 . S
C2478 C2479 1.391 . S
C2479 H2467 0.950 . S
C2479 C2475 1.393 . S
C2479 C2478 1.391 . S
H2480 C2488 0.950 . S
H2481 C2493 0.950 . S
H2482 C2490 0.950 . S
H2483 C2492 0.950 . S
H2484 C2494 0.950 . S
H2485 C2496 0.950 . S
H2486 C2498 0.950 . S
H2487 C2499 0.950 . S
C2488 H2480 0.950 . S
C2488 C2489 1.386 . S
C2488 C2490 1.391 . S
C2489 C2488 1.386 . S
C2489 C2493 1.393 . S
C2490 H2482 0.950 . S
C2490 C2488 1.391 . S
C2490 C2491 1.400 . S
C2491 C2490 1.400 . S
C2491 C2492 1.398 . S
C2491 C2497 1.491 . S
C2492 H2483 0.950 . S
C2492 C2491 1.398 . S
C2492 C2493 1.391 . S
C2493 H2481 0.950 . S
C2493 C2489 1.393 . S
C2493 C2492 1.391 . S
C2494 H2484 0.950 . S
C2494 C2495 1.386 . S
C2494 C2496 1.391 . S
C2495 C2494 1.386 . S
C2495 C2499 1.393 . S
C2496 H2485 0.950 . S
C2496 C2494 1.391 . S
C2496 C2497 1.400 . S
C2497 C2491 1.491 . S
C2497 C2496 1.400 . S
C2497 C2498 1.398 . S
C2498 H2486 0.950 . S
C2498 C2497 1.398 . S
C2498 C2499 1.391 . S
C2499 H2487 0.950 . S
C2499 C2495 1.393 . S
C2499 C2498 1.391 . S
H2500 C2508 0.950 . S
H2501 C2513 0.950 . S
H2502 C2510 0.950 . S
H2503 C2512 0.950 . S
H2504 C2514 0.950 . S
H2505 C2516 0.950 . S
H2506 C2518 0.950 . S
H2507 C2519 0.950 . S
C2508 H2500 0.950 . S
C2508 C2509 1.386 . S
C2508 C2510 1.391 . S
C2509 C2508 1.386 . S
C2509 C2513 1.393 . S
C2510 H2502 0.950 . S
C2510 C2508 1.391 . S
C2510 C2511 1.400 . S
C2511 C2510 1.400 . S
C2511 C2512 1.398 . S
C2511 C2517 1.491 . S
C2512 H2503 0.950 . S
C2512 C2511 1.398 . S
C2512 C2513 1.391 . S
C2513 H2501 0.950 . S
C2513 C2509 1.393 . S
C2513 C2512 1.391 . S
C2514 H2504 0.950 . S
C2514 C2515 1.386 . S
C2514 C2516 1.391 . S
C2515 C2514 1.386 . S
C2515 C2519 1.393 . S
C2516 H2505 0.950 . S
C2516 C2514 1.391 . S
C2516 C2517 1.400 . S
C2517 C2511 1.491 . S
C2517 C2516 1.400 . S
C2517 C2518 1.398 . S
C2518 H2506 0.950 . S
C2518 C2517 1.398 . S
C2518 C2519 1.391 . S
C2519 H2507 0.950 . S
C2519 C2515 1.393 . S
C2519 C2518 1.391 . S
H2520 C2528 0.950 . S
H2521 C2533 0.950 . S
H2522 C2530 0.950 . S
H2523 C2532 0.950 . S
H2524 C2534 0.950 . S
H2525 C2536 0.950 . S
H2526 C2538 0.950 . S
H2527 C2539 0.950 . S
C2528 H2520 0.950 . S
C2528 C2529 1.386 . S
C2528 C2530 1.391 . S
C2529 C2528 1.386 . S
C2529 C2533 1.393 . S
C2530 H2522 0.950 . S
C2530 C2528 1.391 . S
C2530 C2531 1.400 . S
C2531 C2530 1.400 . S
C2531 C2532 1.398 . S
C2531 C2537 1.491 . S
C2532 H2523 0.950 . S
C2532 C2531 1.398 . S
C2532 C2533 1.391 . S
C2533 H2521 0.950 . S
C2533 C2529 1.393 . S
C2533 C2532 1.391 . S
C2534 H2524 0.950 . S
C2534 C2535 1.386 . S
C2534 C2536 1.391 . S
C2535 C2534 1.386 . S
C2535 C2539 1.393 . S
C2536 H2525 0.950 . S
C2536 C2534 1.391 . S
C2536 C2537 1.400 . S
C2537 C2531 1.491 . S
C2537 C2536 1.400 . S
C2537 C2538 1.398 . S
C2538 H2526 0.950 . S
C2538 C2537 1.398 . S
C2538 C2539 1.391 . S
C2539 H2527 0.950 . S
C2539 C2535 1.393 . S
C2539 C2538 1.391 . S
H2540 C2548 0.950 . S
H2541 C2553 0.950 . S
H2542 C2550 0.950 . S
H2543 C2552 0.950 . S
H2544 C2554 0.950 . S
H2545 C2556 0.950 . S
H2546 C2558 0.950 . S
H2547 C2559 0.950 . S
C2548 H2540 0.950 . S
C2548 C2549 1.386 . S
C2548 C2550 1.391 . S
C2549 C2548 1.386 . S
C2549 C2553 1.393 . S
C2550 H2542 0.950 . S
C2550 C2548 1.391 . S
C2550 C2551 1.400 . S
C2551 C2550 1.400 . S
C2551 C2552 1.398 . S
C2551 C2557 1.491 . S
C2552 H2543 0.950 . S
C2552 C2551 1.398 . S
C2552 C2553 1.391 . S
C2553 H2541 0.950 . S
C2553 C2549 1.393 . S
C2553 C2552 1.391 . S
C2554 H2544 0.950 . S
C2554 C2555 1.386 . S
C2554 C2556 1.391 . S
C2555 C2554 1.386 . S
C2555 C2559 1.393 . S
C2556 H2545 0.950 . S
C2556 C2554 1.391 . S
C2556 C2557 1.400 . S
C2557 C2551 1.491 . S
C2557 C2556 1.400 . S
C2557 C2558 1.398 . S
C2558 H2546 0.950 . S
C2558 C2557 1.398 . S
C2558 C2559 1.391 . S
C2559 H2547 0.950 . S
C2559 C2555 1.393 . S
C2559 C2558 1.391 . S
H2560 C2568 0.950 . S
H2561 C2573 0.950 . S
H2562 C2570 0.950 . S
H2563 C2572 0.950 . S
H2564 C2574 0.950 . S
H2565 C2576 0.950 . S
H2566 C2578 0.950 . S
H2567 C2579 0.950 . S
C2568 H2560 0.950 . S
C2568 C2569 1.386 . S
C2568 C2570 1.391 . S
C2569 C2568 1.386 . S
C2569 C2573 1.393 . S
C2570 H2562 0.950 . S
C2570 C2568 1.391 . S
C2570 C2571 1.400 . S
C2571 C2570 1.400 . S
C2571 C2572 1.398 . S
C2571 C2577 1.491 . S
C2572 H2563 0.950 . S
C2572 C2571 1.398 . S
C2572 C2573 1.391 . S
C2573 H2561 0.950 . S
C2573 C2569 1.393 . S
C2573 C2572 1.391 . S
C2574 H2564 0.950 . S
C2574 C2575 1.386 . S
C2574 C2576 1.391 . S
C2575 C2574 1.386 . S
C2575 C2579 1.393 . S
C2576 H2565 0.950 . S
C2576 C2574 1.391 . S
C2576 C2577 1.400 . S
C2577 C2571 1.491 . S
C2577 C2576 1.400 . S
C2577 C2578 1.398 . S
C2578 H2566 0.950 . S
C2578 C2577 1.398 . S
C2578 C2579 1.391 . S
C2579 H2567 0.950 . S
C2579 C2575 1.393 . S
C2579 C2578 1.391 . S
H2580 C2588 0.950 . S
H2581 C2593 0.950 . S
H2582 C2590 0.950 . S
H2583 C2592 0.950 . S
H2584 C2594 0.950 . S
H2585 C2596 0.950 . S
H2586 C2598 0.950 . S
H2587 C2599 0.950 . S
C2588 H2580 0.950 . S
C2588 C2589 1.386 . S
C2588 C2590 1.391 . S
C2589 C2588 1.386 . S
C2589 C2593 1.393 . S
C2590 H2582 0.950 . S
C2590 C2588 1.391 . S
C2590 C2591 1.400 . S
C2591 C2590 1.400 . S
C2591 C2592 1.398 . S
C2591 C2597 1.491 . S
C2592 H2583 0.950 . S
C2592 C2591 1.398 . S
C2592 C2593 1.391 . S
C2593 H2581 0.950 . S
C2593 C2589 1.393 . S
C2593 C2592 1.391 . S
C2594 H2584 0.950 . S
C2594 C2595 1.386 . S
C2594 C2596 1.391 . S
C2595 C2594 1.386 . S
C2595 C2599 1.393 . S
C2596 H2585 0.950 . S
C2596 C2594 1.391 . S
C2596 C2597 1.400 . S
C2597 C2591 1.491 . S
C2597 C2596 1.400 . S
C2597 C2598 1.398 . S
C2598 H2586 0.950 . S
C2598 C2597 1.398 . S
C2598 C2599 1.391 . S
C2599 H2587 0.950 . S
C2599 C2595 1.393 . S
C2599 C2598 1.391 . S
H2600 C2608 0.950 . S
H2601 C2613 0.950 . S
H2602 C2610 0.950 . S
H2603 C2612 0.950 . S
H2604 C2614 0.950 . S
H2605 C2616 0.950 . S
H2606 C2618 0.950 . S
H2607 C2619 0.950 . S
C2608 H2600 0.950 . S
C2608 C2609 1.386 . S
C2608 C2610 1.391 . S
C2609 C2608 1.386 . S
C2609 C2613 1.393 . S
C2610 H2602 0.950 . S
C2610 C2608 1.391 . S
C2610 C2611 1.400 . S
C2611 C2610 1.400 . S
C2611 C2612 1.398 . S
C2611 C2617 1.491 . S
C2612 H2603 0.950 . S
C2612 C2611 1.398 . S
C2612 C2613 1.391 . S
C2613 H2601 0.950 . S
C2613 C2609 1.393 . S
C2613 C2612 1.391 . S
C2614 H2604 0.950 . S
C2614 C2615 1.386 . S
C2614 C2616 1.391 . S
C2615 C2614 1.386 . S
C2615 C2619 1.393 . S
C2616 H2605 0.950 . S
C2616 C2614 1.391 . S
C2616 C2617 1.400 . S
C2617 C2611 1.491 . S
C2617 C2616 1.400 . S
C2617 C2618 1.398 . S
C2618 H2606 0.950 . S
C2618 C2617 1.398 . S
C2618 C2619 1.391 . S
C2619 H2607 0.950 . S
C2619 C2615 1.393 . S
C2619 C2618 1.391 . S
H2620 C2628 0.950 . S
H2621 C2633 0.950 . S
H2622 C2630 0.950 . S
H2623 C2632 0.950 . S
H2624 C2634 0.950 . S
H2625 C2636 0.950 . S
H2626 C2638 0.950 . S
H2627 C2639 0.950 . S
C2628 H2620 0.950 . S
C2628 C2629 1.386 . S
C2628 C2630 1.391 . S
C2629 C2628 1.386 . S
C2629 C2633 1.393 . S
C2630 H2622 0.950 . S
C2630 C2628 1.391 . S
C2630 C2631 1.400 . S
C2631 C2630 1.400 . S
C2631 C2632 1.398 . S
C2631 C2637 1.491 . S
C2632 H2623 0.950 . S
C2632 C2631 1.398 . S
C2632 C2633 1.391 . S
C2633 H2621 0.950 . S
C2633 C2629 1.393 . S
C2633 C2632 1.391 . S
C2634 H2624 0.950 . S
C2634 C2635 1.386 . S
C2634 C2636 1.391 . S
C2635 C2634 1.386 . S
C2635 C2639 1.393 . S
C2636 H2625 0.950 . S
C2636 C2634 1.391 . S
C2636 C2637 1.400 . S
C2637 C2631 1.491 . S
C2637 C2636 1.400 . S
C2637 C2638 1.398 . S
C2638 H2626 0.950 . S
C2638 C2637 1.398 . S
C2638 C2639 1.391 . S
C2639 H2627 0.950 . S
C2639 C2635 1.393 . S
C2639 C2638 1.391 . S
H2640 C2648 0.950 . S
H2641 C2653 0.950 . S
H2642 C2650 0.950 1_455 S
H2643 C2652 0.950 . S
H2644 C2654 0.950 . S
H2645 C2656 0.950 . S
H2646 C2658 0.950 . S
H2647 C2659 0.950 . S
C2648 H2640 0.950 . S
C2648 C2649 1.386 . S
C2648 C2650 1.391 . S
C2649 C2648 1.386 . S
C2649 C2653 1.393 . S
C2650 H2642 0.950 1_655 S
C2650 C2648 1.391 . S
C2650 C2651 1.400 1_655 S
C2651 C2650 1.400 1_455 S
C2651 C2652 1.398 1_455 S
C2651 C2657 1.491 . S
C2652 H2643 0.950 . S
C2652 C2651 1.398 1_655 S
C2652 C2653 1.391 . S
C2653 H2641 0.950 . S
C2653 C2649 1.393 . S
C2653 C2652 1.391 . S
C2654 H2644 0.950 . S
C2654 C2655 1.386 . S
C2654 C2656 1.391 . S
C2655 C2654 1.386 . S
C2655 C2659 1.393 . S
C2656 H2645 0.950 . S
C2656 C2654 1.391 . S
C2656 C2657 1.400 . S
C2657 C2651 1.491 . S
C2657 C2656 1.400 . S
C2657 C2658 1.398 . S
C2658 H2646 0.950 . S
C2658 C2657 1.398 . S
C2658 C2659 1.391 . S
C2659 H2647 0.950 . S
C2659 C2655 1.393 . S
C2659 C2658 1.391 . S
H2660 C2668 0.950 . S
H2661 C2673 0.950 . S
H2662 C2670 0.950 . S
H2663 C2672 0.950 . S
H2664 C2674 0.950 . S
H2665 C2676 0.950 . S
H2666 C2678 0.950 . S
H2667 C2679 0.950 . S
C2668 H2660 0.950 . S
C2668 C2669 1.386 . S
C2668 C2670 1.391 . S
C2669 C2668 1.386 . S
C2669 C2673 1.393 . S
C2670 H2662 0.950 . S
C2670 C2668 1.391 . S
C2670 C2671 1.400 . S
C2671 C2670 1.400 . S
C2671 C2672 1.398 . S
C2671 C2677 1.491 . S
C2672 H2663 0.950 . S
C2672 C2671 1.398 . S
C2672 C2673 1.391 . S
C2673 H2661 0.950 . S
C2673 C2669 1.393 . S
C2673 C2672 1.391 . S
C2674 H2664 0.950 . S
C2674 C2675 1.386 . S
C2674 C2676 1.391 . S
C2675 C2674 1.386 . S
C2675 C2679 1.393 . S
C2676 H2665 0.950 . S
C2676 C2674 1.391 . S
C2676 C2677 1.400 . S
C2677 C2671 1.491 . S
C2677 C2676 1.400 . S
C2677 C2678 1.398 . S
C2678 H2666 0.950 . S
C2678 C2677 1.398 . S
C2678 C2679 1.391 . S
C2679 H2667 0.950 . S
C2679 C2675 1.393 . S
C2679 C2678 1.391 . S
H2680 C2688 0.950 . S
H2681 C2693 0.950 . S
H2682 C2690 0.950 . S
H2683 C2692 0.950 . S
H2684 C2694 0.950 . S
H2685 C2696 0.950 . S
H2686 C2698 0.950 . S
H2687 C2699 0.950 . S
C2688 H2680 0.950 . S
C2688 C2689 1.386 . S
C2688 C2690 1.391 . S
C2689 C2688 1.386 . S
C2689 C2693 1.393 . S
C2690 H2682 0.950 . S
C2690 C2688 1.391 . S
C2690 C2691 1.400 . S
C2691 C2690 1.400 . S
C2691 C2692 1.398 . S
C2691 C2697 1.491 . S
C2692 H2683 0.950 . S
C2692 C2691 1.398 . S
C2692 C2693 1.391 . S
C2693 H2681 0.950 . S
C2693 C2689 1.393 . S
C2693 C2692 1.391 . S
C2694 H2684 0.950 . S
C2694 C2695 1.386 . S
C2694 C2696 1.391 . S
C2695 C2694 1.386 . S
C2695 C2699 1.393 . S
C2696 H2685 0.950 . S
C2696 C2694 1.391 . S
C2696 C2697 1.400 . S
C2697 C2691 1.491 . S
C2697 C2696 1.400 . S
C2697 C2698 1.398 . S
C2698 H2686 0.950 . S
C2698 C2697 1.398 . S
C2698 C2699 1.391 . S
C2699 H2687 0.950 . S
C2699 C2695 1.393 . S
C2699 C2698 1.391 . S
H2700 C2708 0.950 1_554 S
H2701 C2713 0.950 . S
H2702 C2710 0.950 . S
H2703 C2712 0.950 . S
H2704 C2714 0.950 . S
H2705 C2716 0.950 . S
H2706 C2718 0.950 . S
H2707 C2719 0.950 . S
C2708 H2700 0.950 1_556 S
C2708 C2709 1.386 . S
C2708 C2710 1.391 . S
C2709 C2708 1.386 . S
C2709 C2713 1.393 . S
C2710 H2702 0.950 . S
C2710 C2708 1.391 . S
C2710 C2711 1.400 . S
C2711 C2710 1.400 . S
C2711 C2712 1.398 . S
C2711 C2717 1.491 . S
C2712 H2703 0.950 . S
C2712 C2711 1.398 . S
C2712 C2713 1.391 . S
C2713 H2701 0.950 . S
C2713 C2709 1.393 . S
C2713 C2712 1.391 . S
C2714 H2704 0.950 . S
C2714 C2715 1.386 . S
C2714 C2716 1.391 . S
C2715 C2714 1.386 . S
C2715 C2719 1.393 . S
C2716 H2705 0.950 . S
C2716 C2714 1.391 . S
C2716 C2717 1.400 . S
C2717 C2711 1.491 . S
C2717 C2716 1.400 . S
C2717 C2718 1.398 . S
C2718 H2706 0.950 . S
C2718 C2717 1.398 . S
C2718 C2719 1.391 . S
C2719 H2707 0.950 . S
C2719 C2715 1.393 . S
C2719 C2718 1.391 . S
H2720 C2728 0.950 . S
H2721 C2733 0.950 . S
H2722 C2730 0.950 . S
H2723 C2732 0.950 . S
H2724 C2734 0.950 . S
H2725 C2736 0.950 . S
H2726 C2738 0.950 . S
H2727 C2739 0.950 . S
C2728 H2720 0.950 . S
C2728 C2729 1.386 . S
C2728 C2730 1.391 . S
C2729 C2728 1.386 . S
C2729 C2733 1.393 . S
C2730 H2722 0.950 . S
C2730 C2728 1.391 . S
C2730 C2731 1.400 . S
C2731 C2730 1.400 . S
C2731 C2732 1.398 . S
C2731 C2737 1.491 . S
C2732 H2723 0.950 . S
C2732 C2731 1.398 . S
C2732 C2733 1.391 . S
C2733 H2721 0.950 . S
C2733 C2729 1.393 . S
C2733 C2732 1.391 . S
C2734 H2724 0.950 . S
C2734 C2735 1.386 . S
C2734 C2736 1.391 . S
C2735 C2734 1.386 . S
C2735 C2739 1.393 . S
C2736 H2725 0.950 . S
C2736 C2734 1.391 . S
C2736 C2737 1.400 . S
C2737 C2731 1.491 . S
C2737 C2736 1.400 . S
C2737 C2738 1.398 . S
C2738 H2726 0.950 . S
C2738 C2737 1.398 . S
C2738 C2739 1.391 . S
C2739 H2727 0.950 . S
C2739 C2735 1.393 . S
C2739 C2738 1.391 . S
H2740 C2748 0.950 . S
H2741 C2753 0.950 . S
H2742 C2750 0.950 . S
H2743 C2752 0.950 . S
H2744 C2754 0.950 . S
H2745 C2756 0.950 . S
H2746 C2758 0.950 . S
H2747 C2759 0.950 . S
C2748 H2740 0.950 . S
C2748 C2749 1.386 . S
C2748 C2750 1.391 . S
C2749 C2748 1.386 . S
C2749 C2753 1.393 . S
C2750 H2742 0.950 . S
C2750 C2748 1.391 . S
C2750 C2751 1.400 . S
C2751 C2750 1.400 . S
C2751 C2752 1.398 . S
C2751 C2757 1.491 . S
C2752 H2743 0.950 . S
C2752 C2751 1.398 . S
C2752 C2753 1.391 . S
C2753 H2741 0.950 . S
C2753 C2749 1.393 . S
C2753 C2752 1.391 . S
C2754 H2744 0.950 . S
C2754 C2755 1.386 . S
C2754 C2756 1.391 . S
C2755 C2754 1.386 . S
C2755 C2759 1.393 . S
C2756 H2745 0.950 . S
C2756 C2754 1.391 . S
C2756 C2757 1.400 . S
C2757 C2751 1.491 . S
C2757 C2756 1.400 . S
C2757 C2758 1.398 . S
C2758 H2746 0.950 . S
C2758 C2757 1.398 . S
C2758 C2759 1.391 . S
C2759 H2747 0.950 . S
C2759 C2755 1.393 . S
C2759 C2758 1.391 . S
H2760 C2768 0.950 . S
H2761 C2773 0.950 . S
H2762 C2770 0.950 . S
H2763 C2772 0.950 . S
H2764 C2774 0.950 . S
H2765 C2776 0.950 . S
H2766 C2778 0.950 . S
H2767 C2779 0.950 . S
C2768 H2760 0.950 . S
C2768 C2769 1.386 . S
C2768 C2770 1.391 . S
C2769 C2768 1.386 . S
C2769 C2773 1.393 . S
C2770 H2762 0.950 . S
C2770 C2768 1.391 . S
C2770 C2771 1.400 . S
C2771 C2770 1.400 . S
C2771 C2772 1.398 . S
C2771 C2777 1.491 . S
C2772 H2763 0.950 . S
C2772 C2771 1.398 . S
C2772 C2773 1.391 . S
C2773 H2761 0.950 . S
C2773 C2769 1.393 . S
C2773 C2772 1.391 . S
C2774 H2764 0.950 . S
C2774 C2775 1.386 . S
C2774 C2776 1.391 . S
C2775 C2774 1.386 . S
C2775 C2779 1.393 . S
C2776 H2765 0.950 . S
C2776 C2774 1.391 . S
C2776 C2777 1.400 . S
C2777 C2771 1.491 . S
C2777 C2776 1.400 . S
C2777 C2778 1.398 . S
C2778 H2766 0.950 . S
C2778 C2777 1.398 . S
C2778 C2779 1.391 . S
C2779 H2767 0.950 . S
C2779 C2775 1.393 . S
C2779 C2778 1.391 . S
H2780 C2788 0.950 . S
H2781 C2793 0.950 . S
H2782 C2790 0.950 . S
H2783 C2792 0.950 . S
H2784 C2794 0.950 . S
H2785 C2796 0.950 . S
H2786 C2798 0.950 . S
H2787 C2799 0.950 . S
C2788 H2780 0.950 . S
C2788 C2789 1.386 . S
C2788 C2790 1.391 . S
C2789 C2788 1.386 . S
C2789 C2793 1.393 . S
C2790 H2782 0.950 . S
C2790 C2788 1.391 . S
C2790 C2791 1.400 . S
C2791 C2790 1.400 . S
C2791 C2792 1.398 . S
C2791 C2797 1.491 . S
C2792 H2783 0.950 . S
C2792 C2791 1.398 . S
C2792 C2793 1.391 . S
C2793 H2781 0.950 . S
C2793 C2789 1.393 . S
C2793 C2792 1.391 . S
C2794 H2784 0.950 . S
C2794 C2795 1.386 . S
C2794 C2796 1.391 . S
C2795 C2794 1.386 . S
C2795 C2799 1.393 . S
C2796 H2785 0.950 . S
C2796 C2794 1.391 . S
C2796 C2797 1.400 . S
C2797 C2791 1.491 . S
C2797 C2796 1.400 . S
C2797 C2798 1.398 . S
C2798 H2786 0.950 . S
C2798 C2797 1.398 . S
C2798 C2799 1.391 . S
C2799 H2787 0.950 . S
C2799 C2795 1.393 . S
C2799 C2798 1.391 . S
H2800 C2808 0.950 . S
H2801 C2813 0.950 . S
H2802 C2810 0.950 . S
H2803 C2812 0.950 . S
H2804 C2814 0.950 . S
H2805 C2816 0.950 . S
H2806 C2818 0.950 . S
H2807 C2819 0.950 . S
C2808 H2800 0.950 . S
C2808 C2809 1.386 . S
C2808 C2810 1.391 . S
C2809 C2808 1.386 . S
C2809 C2813 1.393 . S
C2810 H2802 0.950 . S
C2810 C2808 1.391 . S
C2810 C2811 1.400 . S
C2811 C2810 1.400 . S
C2811 C2812 1.398 . S
C2811 C2817 1.491 . S
C2812 H2803 0.950 . S
C2812 C2811 1.398 . S
C2812 C2813 1.391 . S
C2813 H2801 0.950 . S
C2813 C2809 1.393 . S
C2813 C2812 1.391 . S
C2814 H2804 0.950 . S
C2814 C2815 1.386 . S
C2814 C2816 1.391 . S
C2815 C2814 1.386 . S
C2815 C2819 1.393 . S
C2816 H2805 0.950 . S
C2816 C2814 1.391 . S
C2816 C2817 1.400 . S
C2817 C2811 1.491 . S
C2817 C2816 1.400 . S
C2817 C2818 1.398 . S
C2818 H2806 0.950 . S
C2818 C2817 1.398 . S
C2818 C2819 1.391 . S
C2819 H2807 0.950 . S
C2819 C2815 1.393 . S
C2819 C2818 1.391 . S
H2820 C2828 0.950 . S
H2821 C2833 0.950 . S
H2822 C2830 0.950 . S
H2823 C2832 0.950 . S
H2824 C2834 0.950 . S
H2825 C2836 0.950 . S
H2826 C2838 0.950 . S
H2827 C2839 0.950 . S
C2828 H2820 0.950 . S
C2828 C2829 1.386 . S
C2828 C2830 1.391 . S
C2829 C2828 1.386 . S
C2829 C2833 1.393 . S
C2830 H2822 0.950 . S
C2830 C2828 1.391 . S
C2830 C2831 1.400 . S
C2831 C2830 1.400 . S
C2831 C2832 1.398 . S
C2831 C2837 1.491 . S
C2832 H2823 0.950 . S
C2832 C2831 1.398 . S
C2832 C2833 1.391 . S
C2833 H2821 0.950 . S
C2833 C2829 1.393 . S
C2833 C2832 1.391 . S
C2834 H2824 0.950 . S
C2834 C2835 1.386 . S
C2834 C2836 1.391 . S
C2835 C2834 1.386 . S
C2835 C2839 1.393 . S
C2836 H2825 0.950 . S
C2836 C2834 1.391 . S
C2836 C2837 1.400 . S
C2837 C2831 1.491 . S
C2837 C2836 1.400 . S
C2837 C2838 1.398 . S
C2838 H2826 0.950 . S
C2838 C2837 1.398 . S
C2838 C2839 1.391 . S
C2839 H2827 0.950 . S
C2839 C2835 1.393 . S
C2839 C2838 1.391 . S
H2840 C2848 0.950 . S
H2841 C2853 0.950 . S
H2842 C2850 0.950 . S
H2843 C2852 0.950 . S
H2844 C2854 0.950 . S
H2845 C2856 0.950 . S
H2846 C2858 0.950 . S
H2847 C2859 0.950 . S
C2848 H2840 0.950 . S
C2848 C2849 1.386 . S
C2848 C2850 1.391 . S
C2849 C2848 1.386 . S
C2849 C2853 1.393 . S
C2850 H2842 0.950 . S
C2850 C2848 1.391 . S
C2850 C2851 1.400 . S
C2851 C2850 1.400 . S
C2851 C2852 1.398 . S
C2851 C2857 1.491 . S
C2852 H2843 0.950 . S
C2852 C2851 1.398 . S
C2852 C2853 1.391 . S
C2853 H2841 0.950 . S
C2853 C2849 1.393 . S
C2853 C2852 1.391 . S
C2854 H2844 0.950 . S
C2854 C2855 1.386 . S
C2854 C2856 1.391 . S
C2855 C2854 1.386 . S
C2855 C2859 1.393 . S
C2856 H2845 0.950 . S
C2856 C2854 1.391 . S
C2856 C2857 1.400 . S
C2857 C2851 1.491 . S
C2857 C2856 1.400 . S
C2857 C2858 1.398 . S
C2858 H2846 0.950 . S
C2858 C2857 1.398 . S
C2858 C2859 1.391 . S
C2859 H2847 0.950 . S
C2859 C2855 1.393 . S
C2859 C2858 1.391 . S
H2860 C2868 0.950 . S
H2861 C2873 0.950 . S
H2862 C2870 0.950 . S
H2863 C2872 0.950 . S
H2864 C2874 0.950 . S
H2865 C2876 0.950 . S
H2866 C2878 0.950 . S
H2867 C2879 0.950 . S
C2868 H2860 0.950 . S
C2868 C2869 1.386 . S
C2868 C2870 1.391 . S
C2869 C2868 1.386 . S
C2869 C2873 1.393 . S
C2870 H2862 0.950 . S
C2870 C2868 1.391 . S
C2870 C2871 1.400 . S
C2871 C2870 1.400 . S
C2871 C2872 1.398 . S
C2871 C2877 1.491 . S
C2872 H2863 0.950 . S
C2872 C2871 1.398 . S
C2872 C2873 1.391 . S
C2873 H2861 0.950 . S
C2873 C2869 1.393 . S
C2873 C2872 1.391 . S
C2874 H2864 0.950 . S
C2874 C2875 1.386 . S
C2874 C2876 1.391 . S
C2875 C2874 1.386 . S
C2875 C2879 1.393 . S
C2876 H2865 0.950 . S
C2876 C2874 1.391 . S
C2876 C2877 1.400 . S
C2877 C2871 1.491 . S
C2877 C2876 1.400 . S
C2877 C2878 1.398 . S
C2878 H2866 0.950 . S
C2878 C2877 1.398 . S
C2878 C2879 1.391 . S
C2879 H2867 0.950 . S
C2879 C2875 1.393 . S
C2879 C2878 1.391 . S
H2880 C2888 0.950 . S
H2881 C2893 0.950 . S
H2882 C2890 0.950 . S
H2883 C2892 0.950 . S
H2884 C2894 0.950 . S
H2885 C2896 0.950 . S
H2886 C2898 0.950 . S
H2887 C2899 0.950 . S
C2888 H2880 0.950 . S
C2888 C2889 1.386 . S
C2888 C2890 1.391 . S
C2889 C2888 1.386 . S
C2889 C2893 1.393 . S
C2890 H2882 0.950 . S
C2890 C2888 1.391 . S
C2890 C2891 1.400 . S
C2891 C2890 1.400 . S
C2891 C2892 1.398 . S
C2891 C2897 1.491 . S
C2892 H2883 0.950 . S
C2892 C2891 1.398 . S
C2892 C2893 1.391 . S
C2893 H2881 0.950 . S
C2893 C2889 1.393 . S
C2893 C2892 1.391 . S
C2894 H2884 0.950 . S
C2894 C2895 1.386 . S
C2894 C2896 1.391 . S
C2895 C2894 1.386 . S
C2895 C2899 1.393 . S
C2896 H2885 0.950 . S
C2896 C2894 1.391 . S
C2896 C2897 1.400 . S
C2897 C2891 1.491 . S
C2897 C2896 1.400 . S
C2897 C2898 1.398 . S
C2898 H2886 0.950 . S
C2898 C2897 1.398 . S
C2898 C2899 1.391 . S
C2899 H2887 0.950 . S
C2899 C2895 1.393 . S
C2899 C2898 1.391 . S
H2900 C2908 0.950 . S
H2901 C2913 0.950 . S
H2902 C2910 0.950 . S
H2903 C2912 0.950 . S
H2904 C2914 0.950 . S
H2905 C2916 0.950 . S
H2906 C2918 0.950 . S
H2907 C2919 0.950 . S
C2908 H2900 0.950 . S
C2908 C2909 1.386 . S
C2908 C2910 1.391 . S
C2909 C2908 1.386 . S
C2909 C2913 1.393 . S
C2910 H2902 0.950 . S
C2910 C2908 1.391 . S
C2910 C2911 1.400 . S
C2911 C2910 1.400 . S
C2911 C2912 1.398 . S
C2911 C2917 1.491 . S
C2912 H2903 0.950 . S
C2912 C2911 1.398 . S
C2912 C2913 1.391 . S
C2913 H2901 0.950 . S
C2913 C2909 1.393 . S
C2913 C2912 1.391 . S
C2914 H2904 0.950 . S
C2914 C2915 1.386 . S
C2914 C2916 1.391 . S
C2915 C2914 1.386 . S
C2915 C2919 1.393 . S
C2916 H2905 0.950 . S
C2916 C2914 1.391 . S
C2916 C2917 1.400 . S
C2917 C2911 1.491 . S
C2917 C2916 1.400 . S
C2917 C2918 1.398 . S
C2918 H2906 0.950 . S
C2918 C2917 1.398 . S
C2918 C2919 1.391 . S
C2919 H2907 0.950 . S
C2919 C2915 1.393 . S
C2919 C2918 1.391 . S
H2920 C2928 0.950 . S
H2921 C2933 0.950 . S
H2922 C2930 0.950 . S
H2923 C2932 0.950 . S
H2924 C2934 0.950 . S
H2925 C2936 0.950 . S
H2926 C2938 0.950 . S
H2927 C2939 0.950 . S
C2928 H2920 0.950 . S
C2928 C2929 1.386 . S
C2928 C2930 1.391 . S
C2929 C2928 1.386 . S
C2929 C2933 1.393 . S
C2930 H2922 0.950 . S
C2930 C2928 1.391 . S
C2930 C2931 1.400 . S
C2931 C2930 1.400 . S
C2931 C2932 1.398 . S
C2931 C2937 1.491 . S
C2932 H2923 0.950 . S
C2932 C2931 1.398 . S
C2932 C2933 1.391 . S
C2933 H2921 0.950 . S
C2933 C2929 1.393 . S
C2933 C2932 1.391 . S
C2934 H2924 0.950 . S
C2934 C2935 1.386 . S
C2934 C2936 1.391 . S
C2935 C2934 1.386 . S
C2935 C2939 1.393 . S
C2936 H2925 0.950 . S
C2936 C2934 1.391 . S
C2936 C2937 1.400 . S
C2937 C2931 1.491 . S
C2937 C2936 1.400 . S
C2937 C2938 1.398 . S
C2938 H2926 0.950 . S
C2938 C2937 1.398 . S
C2938 C2939 1.391 . S
C2939 H2927 0.950 . S
C2939 C2935 1.393 . S
C2939 C2938 1.391 . S
H2940 C2948 0.950 . S
H2941 C2953 0.950 . S
H2942 C2950 0.950 . S
H2943 C2952 0.950 . S
H2944 C2954 0.950 . S
H2945 C2956 0.950 . S
H2946 C2958 0.950 . S
H2947 C2959 0.950 . S
C2948 H2940 0.950 . S
C2948 C2949 1.386 . S
C2948 C2950 1.391 . S
C2949 C2948 1.386 . S
C2949 C2953 1.393 . S
C2950 H2942 0.950 . S
C2950 C2948 1.391 . S
C2950 C2951 1.400 . S
C2951 C2950 1.400 . S
C2951 C2952 1.398 . S
C2951 C2957 1.491 . S
C2952 H2943 0.950 . S
C2952 C2951 1.398 . S
C2952 C2953 1.391 . S
C2953 H2941 0.950 . S
C2953 C2949 1.393 . S
C2953 C2952 1.391 . S
C2954 H2944 0.950 . S
C2954 C2955 1.386 . S
C2954 C2956 1.391 . S
C2955 C2954 1.386 . S
C2955 C2959 1.393 . S
C2956 H2945 0.950 . S
C2956 C2954 1.391 . S
C2956 C2957 1.400 . S
C2957 C2951 1.491 . S
C2957 C2956 1.400 . S
C2957 C2958 1.398 . S
C2958 H2946 0.950 . S
C2958 C2957 1.398 . S
C2958 C2959 1.391 . S
C2959 H2947 0.950 . S
C2959 C2955 1.393 . S
C2959 C2958 1.391 . S
H2960 C2968 0.950 . S
H2961 C2973 0.950 . S
H2962 C2970 0.950 . S
H2963 C2972 0.950 . S
H2964 C2974 0.950 . S
H2965 C2976 0.950 . S
H2966 C2978 0.950 . S
H2967 C2979 0.950 . S
C2968 H2960 0.950 . S
C2968 C2969 1.386 . S
C2968 C2970 1.391 . S
C2969 C2968 1.386 . S
C2969 C2973 1.393 . S
C2970 H2962 0.950 . S
C2970 C2968 1.391 . S
C2970 C2971 1.400 . S
C2971 C2970 1.400 . S
C2971 C2972 1.398 . S
C2971 C2977 1.491 . S
C2972 H2963 0.950 . S
C2972 C2971 1.398 . S
C2972 C2973 1.391 . S
C2973 H2961 0.950 . S
C2973 C2969 1.393 . S
C2973 C2972 1.391 . S
C2974 H2964 0.950 . S
C2974 C2975 1.386 . S
C2974 C2976 1.391 . S
C2975 C2974 1.386 . S
C2975 C2979 1.393 . S
C2976 H2965 0.950 . S
C2976 C2974 1.391 . S
C2976 C2977 1.400 . S
C2977 C2971 1.491 . S
C2977 C2976 1.400 . S
C2977 C2978 1.398 . S
C2978 H2966 0.950 . S
C2978 C2977 1.398 . S
C2978 C2979 1.391 . S
C2979 H2967 0.950 . S
C2979 C2975 1.393 . S
C2979 C2978 1.391 . S
H2980 C2988 0.950 . S
H2981 C2993 0.950 . S
H2982 C2990 0.950 . S
H2983 C2992 0.950 . S
H2984 C2994 0.950 . S
H2985 C2996 0.950 . S
H2986 C2998 0.950 . S
H2987 C2999 0.950 . S
C2988 H2980 0.950 . S
C2988 C2989 1.386 . S
C2988 C2990 1.391 . S
C2989 C2988 1.386 . S
C2989 C2993 1.393 . S
C2990 H2982 0.950 . S
C2990 C2988 1.391 . S
C2990 C2991 1.400 . S
C2991 C2990 1.400 . S
C2991 C2992 1.398 . S
C2991 C2997 1.491 . S
C2992 H2983 0.950 . S
C2992 C2991 1.398 . S
C2992 C2993 1.391 . S
C2993 H2981 0.950 . S
C2993 C2989 1.393 . S
C2993 C2992 1.391 . S
C2994 H2984 0.950 . S
C2994 C2995 1.386 . S
C2994 C2996 1.391 . S
C2995 C2994 1.386 . S
C2995 C2999 1.393 . S
C2996 H2985 0.950 . S
C2996 C2994 1.391 . S
C2996 C2997 1.400 . S
C2997 C2991 1.491 . S
C2997 C2996 1.400 . S
C2997 C2998 1.398 . S
C2998 H2986 0.950 . S
C2998 C2997 1.398 . S
C2998 C2999 1.391 . S
C2999 H2987 0.950 . S
C2999 C2995 1.393 . S
C2999 C2998 1.391 . S
H3000 C3008 0.950 . S
H3001 C3013 0.950 . S
H3002 C3010 0.950 . S
H3003 C3012 0.950 . S
H3004 C3014 0.950 . S
H3005 C3016 0.950 . S
H3006 C3018 0.950 . S
H3007 C3019 0.950 . S
C3008 H3000 0.950 . S
C3008 C3009 1.386 . S
C3008 C3010 1.391 . S
C3009 C3008 1.386 . S
C3009 C3013 1.393 . S
C3010 H3002 0.950 . S
C3010 C3008 1.391 . S
C3010 C3011 1.400 . S
C3011 C3010 1.400 . S
C3011 C3012 1.398 . S
C3011 C3017 1.491 . S
C3012 H3003 0.950 . S
C3012 C3011 1.398 . S
C3012 C3013 1.391 . S
C3013 H3001 0.950 . S
C3013 C3009 1.393 . S
C3013 C3012 1.391 . S
C3014 H3004 0.950 . S
C3014 C3015 1.386 . S
C3014 C3016 1.391 . S
C3015 C3014 1.386 . S
C3015 C3019 1.393 . S
C3016 H3005 0.950 . S
C3016 C3014 1.391 . S
C3016 C3017 1.400 . S
C3017 C3011 1.491 . S
C3017 C3016 1.400 . S
C3017 C3018 1.398 . S
C3018 H3006 0.950 . S
C3018 C3017 1.398 . S
C3018 C3019 1.391 . S
C3019 H3007 0.950 . S
C3019 C3015 1.393 . S
C3019 C3018 1.391 . S
H3020 C3028 0.950 . S
H3021 C3033 0.950 . S
H3022 C3030 0.950 . S
H3023 C3032 0.950 . S
H3024 C3034 0.950 . S
H3025 C3036 0.950 . S
H3026 C3038 0.950 . S
H3027 C3039 0.950 . S
C3028 H3020 0.950 . S
C3028 C3029 1.386 . S
C3028 C3030 1.391 . S
C3029 C3028 1.386 . S
C3029 C3033 1.393 . S
C3030 H3022 0.950 . S
C3030 C3028 1.391 . S
C3030 C3031 1.400 . S
C3031 C3030 1.400 . S
C3031 C3032 1.398 . S
C3031 C3037 1.491 . S
C3032 H3023 0.950 . S
C3032 C3031 1.398 . S
C3032 C3033 1.391 . S
C3033 H3021 0.950 . S
C3033 C3029 1.393 . S
C3033 C3032 1.391 . S
C3034 H3024 0.950 . S
C3034 C3035 1.386 . S
C3034 C3036 1.391 . S
C3035 C3034 1.386 . S
C3035 C3039 1.393 . S
C3036 H3025 0.950 . S
C3036 C3034 1.391 . S
C3036 C3037 1.400 . S
C3037 C3031 1.491 . S
C3037 C3036 1.400 . S
C3037 C3038 1.398 . S
C3038 H3026 0.950 . S
C3038 C3037 1.398 . S
C3038 C3039 1.391 . S
C3039 H3027 0.950 . S
C3039 C3035 1.393 . S
C3039 C3038 1.391 . S
H3040 C3048 0.950 . S
H3041 C3053 0.950 . S
H3042 C3050 0.950 . S
H3043 C3052 0.950 . S
H3044 C3054 0.950 . S
H3045 C3056 0.950 . S
H3046 C3058 0.950 . S
H3047 C3059 0.950 . S
C3048 H3040 0.950 . S
C3048 C3049 1.386 . S
C3048 C3050 1.391 . S
C3049 C3048 1.386 . S
C3049 C3053 1.393 . S
C3050 H3042 0.950 . S
C3050 C3048 1.391 . S
C3050 C3051 1.400 . S
C3051 C3050 1.400 . S
C3051 C3052 1.398 . S
C3051 C3057 1.491 . S
C3052 H3043 0.950 . S
C3052 C3051 1.398 . S
C3052 C3053 1.391 . S
C3053 H3041 0.950 . S
C3053 C3049 1.393 . S
C3053 C3052 1.391 . S
C3054 H3044 0.950 . S
C3054 C3055 1.386 . S
C3054 C3056 1.391 . S
C3055 C3054 1.386 . S
C3055 C3059 1.393 . S
C3056 H3045 0.950 . S
C3056 C3054 1.391 . S
C3056 C3057 1.400 . S
C3057 C3051 1.491 . S
C3057 C3056 1.400 . S
C3057 C3058 1.398 . S
C3058 H3046 0.950 . S
C3058 C3057 1.398 . S
C3058 C3059 1.391 . S
C3059 H3047 0.950 . S
C3059 C3055 1.393 . S
C3059 C3058 1.391 . S
H3060 C3068 0.950 . S
H3061 C3073 0.950 . S
H3062 C3070 0.950 . S
H3063 C3072 0.950 . S
H3064 C3074 0.950 . S
H3065 C3076 0.950 . S
H3066 C3078 0.950 . S
H3067 C3079 0.950 . S
C3068 H3060 0.950 . S
C3068 C3069 1.386 . S
C3068 C3070 1.391 . S
C3069 C3068 1.386 . S
C3069 C3073 1.393 . S
C3070 H3062 0.950 . S
C3070 C3068 1.391 . S
C3070 C3071 1.400 . S
C3071 C3070 1.400 . S
C3071 C3072 1.398 . S
C3071 C3077 1.491 . S
C3072 H3063 0.950 . S
C3072 C3071 1.398 . S
C3072 C3073 1.391 . S
C3073 H3061 0.950 . S
C3073 C3069 1.393 . S
C3073 C3072 1.391 . S
C3074 H3064 0.950 . S
C3074 C3075 1.386 . S
C3074 C3076 1.391 . S
C3075 C3074 1.386 . S
C3075 C3079 1.393 . S
C3076 H3065 0.950 . S
C3076 C3074 1.391 . S
C3076 C3077 1.400 . S
C3077 C3071 1.491 . S
C3077 C3076 1.400 . S
C3077 C3078 1.398 . S
C3078 H3066 0.950 . S
C3078 C3077 1.398 . S
C3078 C3079 1.391 . S
C3079 H3067 0.950 . S
C3079 C3075 1.393 . S
C3079 C3078 1.391 . S
H3080 C3088 0.950 . S
H3081 C3093 0.950 . S
H3082 C3090 0.950 . S
H3083 C3092 0.950 . S
H3084 C3094 0.950 . S
H3085 C3096 0.950 . S
H3086 C3098 0.950 . S
H3087 C3099 0.950 . S
C3088 H3080 0.950 . S
C3088 C3089 1.386 . S
C3088 C3090 1.391 . S
C3089 C3088 1.386 . S
C3089 C3093 1.393 . S
C3090 H3082 0.950 . S
C3090 C3088 1.391 . S
C3090 C3091 1.400 . S
C3091 C3090 1.400 . S
C3091 C3092 1.398 . S
C3091 C3097 1.491 . S
C3092 H3083 0.950 . S
C3092 C3091 1.398 . S
C3092 C3093 1.391 . S
C3093 H3081 0.950 . S
C3093 C3089 1.393 . S
C3093 C3092 1.391 . S
C3094 H3084 0.950 . S
C3094 C3095 1.386 . S
C3094 C3096 1.391 . S
C3095 C3094 1.386 . S
C3095 C3099 1.393 . S
C3096 H3085 0.950 . S
C3096 C3094 1.391 . S
C3096 C3097 1.400 . S
C3097 C3091 1.491 . S
C3097 C3096 1.400 . S
C3097 C3098 1.398 . S
C3098 H3086 0.950 . S
C3098 C3097 1.398 . S
C3098 C3099 1.391 . S
C3099 H3087 0.950 . S
C3099 C3095 1.393 . S
C3099 C3098 1.391 . S
H3100 C3108 0.950 . S
H3101 C3113 0.950 . S
H3102 C3110 0.950 . S
H3103 C3112 0.950 . S
H3104 C3114 0.950 . S
H3105 C3116 0.950 . S
H3106 C3118 0.950 . S
H3107 C3119 0.950 . S
C3108 H3100 0.950 . S
C3108 C3109 1.386 . S
C3108 C3110 1.391 . S
C3109 C3108 1.386 . S
C3109 C3113 1.393 . S
C3110 H3102 0.950 . S
C3110 C3108 1.391 . S
C3110 C3111 1.400 . S
C3111 C3110 1.400 . S
C3111 C3112 1.398 . S
C3111 C3117 1.491 . S
C3112 H3103 0.950 . S
C3112 C3111 1.398 . S
C3112 C3113 1.391 . S
C3113 H3101 0.950 . S
C3113 C3109 1.393 . S
C3113 C3112 1.391 . S
C3114 H3104 0.950 . S
C3114 C3115 1.386 . S
C3114 C3116 1.391 . S
C3115 C3114 1.386 . S
C3115 C3119 1.393 . S
C3116 H3105 0.950 . S
C3116 C3114 1.391 . S
C3116 C3117 1.400 . S
C3117 C3111 1.491 . S
C3117 C3116 1.400 . S
C3117 C3118 1.398 . S
C3118 H3106 0.950 . S
C3118 C3117 1.398 . S
C3118 C3119 1.391 . S
C3119 H3107 0.950 . S
C3119 C3115 1.393 . S
C3119 C3118 1.391 . S
H3120 C3128 0.950 . S
H3121 C3133 0.950 . S
H3122 C3130 0.950 . S
H3123 C3132 0.950 . S
H3124 C3134 0.950 . S
H3125 C3136 0.950 . S
H3126 C3138 0.950 . S
H3127 C3139 0.950 . S
C3128 H3120 0.950 . S
C3128 C3129 1.386 . S
C3128 C3130 1.391 . S
C3129 C3128 1.386 . S
C3129 C3133 1.393 . S
C3130 H3122 0.950 . S
C3130 C3128 1.391 . S
C3130 C3131 1.400 1_455 S
C3131 C3130 1.400 1_655 S
C3131 C3132 1.398 . S
C3131 C3137 1.491 . S
C3132 H3123 0.950 . S
C3132 C3131 1.398 . S
C3132 C3133 1.391 1_655 S
C3133 H3121 0.950 . S
C3133 C3129 1.393 . S
C3133 C3132 1.391 1_455 S
C3134 H3124 0.950 . S
C3134 C3135 1.386 . S
C3134 C3136 1.391 . S
C3135 C3134 1.386 . S
C3135 C3139 1.393 . S
C3136 H3125 0.950 . S
C3136 C3134 1.391 . S
C3136 C3137 1.400 . S
C3137 C3131 1.491 . S
C3137 C3136 1.400 . S
C3137 C3138 1.398 . S
C3138 H3126 0.950 . S
C3138 C3137 1.398 . S
C3138 C3139 1.391 . S
C3139 H3127 0.950 . S
C3139 C3135 1.393 . S
C3139 C3138 1.391 . S
H3140 C3148 0.950 . S
H3141 C3153 0.950 . S
H3142 C3150 0.950 . S
H3143 C3152 0.950 . S
H3144 C3154 0.950 . S
H3145 C3156 0.950 . S
H3146 C3158 0.950 . S
H3147 C3159 0.950 . S
C3148 H3140 0.950 . S
C3148 C3149 1.386 . S
C3148 C3150 1.391 . S
C3149 C3148 1.386 . S
C3149 C3153 1.393 . S
C3150 H3142 0.950 . S
C3150 C3148 1.391 . S
C3150 C3151 1.400 . S
C3151 C3150 1.400 . S
C3151 C3152 1.398 . S
C3151 C3157 1.491 . S
C3152 H3143 0.950 . S
C3152 C3151 1.398 . S
C3152 C3153 1.391 . S
C3153 H3141 0.950 . S
C3153 C3149 1.393 . S
C3153 C3152 1.391 . S
C3154 H3144 0.950 . S
C3154 C3155 1.386 . S
C3154 C3156 1.391 . S
C3155 C3154 1.386 . S
C3155 C3159 1.393 . S
C3156 H3145 0.950 . S
C3156 C3154 1.391 . S
C3156 C3157 1.400 . S
C3157 C3151 1.491 . S
C3157 C3156 1.400 . S
C3157 C3158 1.398 . S
C3158 H3146 0.950 . S
C3158 C3157 1.398 . S
C3158 C3159 1.391 . S
C3159 H3147 0.950 . S
C3159 C3155 1.393 . S
C3159 C3158 1.391 . S
H3160 C3168 0.950 . S
H3161 C3173 0.950 . S
H3162 C3170 0.950 . S
H3163 C3172 0.950 . S
H3164 C3174 0.950 . S
H3165 C3176 0.950 . S
H3166 C3178 0.950 . S
H3167 C3179 0.950 . S
C3168 H3160 0.950 . S
C3168 C3169 1.386 . S
C3168 C3170 1.391 . S
C3169 C3168 1.386 . S
C3169 C3173 1.393 . S
C3170 H3162 0.950 . S
C3170 C3168 1.391 . S
C3170 C3171 1.400 . S
C3171 C3170 1.400 . S
C3171 C3172 1.398 . S
C3171 C3177 1.491 . S
C3172 H3163 0.950 . S
C3172 C3171 1.398 . S
C3172 C3173 1.391 . S
C3173 H3161 0.950 . S
C3173 C3169 1.393 . S
C3173 C3172 1.391 . S
C3174 H3164 0.950 . S
C3174 C3175 1.386 . S
C3174 C3176 1.391 . S
C3175 C3174 1.386 . S
C3175 C3179 1.393 . S
C3176 H3165 0.950 . S
C3176 C3174 1.391 . S
C3176 C3177 1.400 . S
C3177 C3171 1.491 . S
C3177 C3176 1.400 . S
C3177 C3178 1.398 . S
C3178 H3166 0.950 . S
C3178 C3177 1.398 . S
C3178 C3179 1.391 . S
C3179 H3167 0.950 . S
C3179 C3175 1.393 . S
C3179 C3178 1.391 . S
H3180 C3188 0.950 . S
H3181 C3193 0.950 . S
H3182 C3190 0.950 . S
H3183 C3192 0.950 . S
H3184 C3194 0.950 . S
H3185 C3196 0.950 . S
H3186 C3198 0.950 . S
H3187 C3199 0.950 . S
C3188 H3180 0.950 . S
C3188 C3189 1.386 . S
C3188 C3190 1.391 . S
C3189 C3188 1.386 . S
C3189 C3193 1.393 . S
C3190 H3182 0.950 . S
C3190 C3188 1.391 . S
C3190 C3191 1.400 . S
C3191 C3190 1.400 . S
C3191 C3192 1.398 . S
C3191 C3197 1.491 . S
C3192 H3183 0.950 . S
C3192 C3191 1.398 . S
C3192 C3193 1.391 . S
C3193 H3181 0.950 . S
C3193 C3189 1.393 . S
C3193 C3192 1.391 . S
C3194 H3184 0.950 . S
C3194 C3195 1.386 . S
C3194 C3196 1.391 . S
C3195 C3194 1.386 . S
C3195 C3199 1.393 . S
C3196 H3185 0.950 . S
C3196 C3194 1.391 . S
C3196 C3197 1.400 . S
C3197 C3191 1.491 . S
C3197 C3196 1.400 . S
C3197 C3198 1.398 . S
C3198 H3186 0.950 . S
C3198 C3197 1.398 . S
C3198 C3199 1.391 . S
C3199 H3187 0.950 . S
C3199 C3195 1.393 . S
C3199 C3198 1.391 . S
H3200 C3208 0.950 . S
H3201 C3213 0.950 . S
H3202 C3210 0.950 . S
H3203 C3212 0.950 . S
H3204 C3214 0.950 . S
H3205 C3216 0.950 . S
H3206 C3218 0.950 . S
H3207 C3219 0.950 . S
C3208 H3200 0.950 . S
C3208 C3209 1.386 . S
C3208 C3210 1.391 . S
C3209 C3208 1.386 . S
C3209 C3213 1.393 . S
C3210 H3202 0.950 . S
C3210 C3208 1.391 . S
C3210 C3211 1.400 . S
C3211 C3210 1.400 . S
C3211 C3212 1.398 . S
C3211 C3217 1.491 . S
C3212 H3203 0.950 . S
C3212 C3211 1.398 . S
C3212 C3213 1.391 . S
C3213 H3201 0.950 . S
C3213 C3209 1.393 . S
C3213 C3212 1.391 . S
C3214 H3204 0.950 . S
C3214 C3215 1.386 . S
C3214 C3216 1.391 . S
C3215 C3214 1.386 . S
C3215 C3219 1.393 . S
C3216 H3205 0.950 . S
C3216 C3214 1.391 . S
C3216 C3217 1.400 . S
C3217 C3211 1.491 . S
C3217 C3216 1.400 . S
C3217 C3218 1.398 . S
C3218 H3206 0.950 . S
C3218 C3217 1.398 . S
C3218 C3219 1.391 . S
C3219 H3207 0.950 . S
C3219 C3215 1.393 . S
C3219 C3218 1.391 . S
H3220 C3228 0.950 . S
H3221 C3233 0.950 . S
H3222 C3230 0.950 . S
H3223 C3232 0.950 . S
H3224 C3234 0.950 . S
H3225 C3236 0.950 . S
H3226 C3238 0.950 . S
H3227 C3239 0.950 . S
C3228 H3220 0.950 . S
C3228 C3229 1.386 . S
C3228 C3230 1.391 . S
C3229 C3228 1.386 . S
C3229 C3233 1.393 . S
C3230 H3222 0.950 . S
C3230 C3228 1.391 . S
C3230 C3231 1.400 . S
C3231 C3230 1.400 . S
C3231 C3232 1.398 . S
C3231 C3237 1.491 . S
C3232 H3223 0.950 . S
C3232 C3231 1.398 . S
C3232 C3233 1.391 . S
C3233 H3221 0.950 . S
C3233 C3229 1.393 . S
C3233 C3232 1.391 . S
C3234 H3224 0.950 . S
C3234 C3235 1.386 . S
C3234 C3236 1.391 . S
C3235 C3234 1.386 . S
C3235 C3239 1.393 . S
C3236 H3225 0.950 . S
C3236 C3234 1.391 . S
C3236 C3237 1.400 . S
C3237 C3231 1.491 . S
C3237 C3236 1.400 . S
C3237 C3238 1.398 . S
C3238 H3226 0.950 . S
C3238 C3237 1.398 . S
C3238 C3239 1.391 . S
C3239 H3227 0.950 . S
C3239 C3235 1.393 . S
C3239 C3238 1.391 . S
H3240 C3248 0.950 . S
H3241 C3253 0.950 . S
H3242 C3250 0.950 . S
H3243 C3252 0.950 . S
H3244 C3254 0.950 . S
H3245 C3256 0.950 . S
H3246 C3258 0.950 . S
H3247 C3259 0.950 . S
C3248 H3240 0.950 . S
C3248 C3249 1.386 . S
C3248 C3250 1.391 . S
C3249 C3248 1.386 . S
C3249 C3253 1.393 . S
C3250 H3242 0.950 . S
C3250 C3248 1.391 . S
C3250 C3251 1.400 . S
C3251 C3250 1.400 . S
C3251 C3252 1.398 . S
C3251 C3257 1.491 . S
C3252 H3243 0.950 . S
C3252 C3251 1.398 . S
C3252 C3253 1.391 . S
C3253 H3241 0.950 . S
C3253 C3249 1.393 . S
C3253 C3252 1.391 . S
C3254 H3244 0.950 . S
C3254 C3255 1.386 . S
C3254 C3256 1.391 . S
C3255 C3254 1.386 . S
C3255 C3259 1.393 . S
C3256 H3245 0.950 . S
C3256 C3254 1.391 . S
C3256 C3257 1.400 . S
C3257 C3251 1.491 . S
C3257 C3256 1.400 . S
C3257 C3258 1.398 . S
C3258 H3246 0.950 . S
C3258 C3257 1.398 . S
C3258 C3259 1.391 . S
C3259 H3247 0.950 . S
C3259 C3255 1.393 . S
C3259 C3258 1.391 . S
H3260 C3268 0.950 . S
H3261 C3273 0.950 . S
H3262 C3270 0.950 . S
H3263 C3272 0.950 . S
H3264 C3274 0.950 . S
H3265 C3276 0.950 . S
H3266 C3278 0.950 . S
H3267 C3279 0.950 . S
C3268 H3260 0.950 . S
C3268 C3269 1.386 . S
C3268 C3270 1.391 . S
C3269 C3268 1.386 . S
C3269 C3273 1.393 . S
C3270 H3262 0.950 . S
C3270 C3268 1.391 . S
C3270 C3271 1.400 . S
C3271 C3270 1.400 . S
C3271 C3272 1.398 . S
C3271 C3277 1.491 . S
C3272 H3263 0.950 . S
C3272 C3271 1.398 . S
C3272 C3273 1.391 . S
C3273 H3261 0.950 . S
C3273 C3269 1.393 . S
C3273 C3272 1.391 . S
C3274 H3264 0.950 . S
C3274 C3275 1.386 . S
C3274 C3276 1.391 . S
C3275 C3274 1.386 . S
C3275 C3279 1.393 . S
C3276 H3265 0.950 . S
C3276 C3274 1.391 . S
C3276 C3277 1.400 . S
C3277 C3271 1.491 . S
C3277 C3276 1.400 . S
C3277 C3278 1.398 . S
C3278 H3266 0.950 . S
C3278 C3277 1.398 . S
C3278 C3279 1.391 . S
C3279 H3267 0.950 . S
C3279 C3275 1.393 . S
C3279 C3278 1.391 . S
H3280 C3288 0.950 . S
H3281 C3293 0.950 . S
H3282 C3290 0.950 . S
H3283 C3292 0.950 . S
H3284 C3294 0.950 . S
H3285 C3296 0.950 . S
H3286 C3298 0.950 . S
H3287 C3299 0.950 . S
C3288 H3280 0.950 . S
C3288 C3289 1.386 . S
C3288 C3290 1.391 . S
C3289 C3288 1.386 . S
C3289 C3293 1.393 . S
C3290 H3282 0.950 . S
C3290 C3288 1.391 . S
C3290 C3291 1.400 . S
C3291 C3290 1.400 . S
C3291 C3292 1.398 . S
C3291 C3297 1.491 . S
C3292 H3283 0.950 . S
C3292 C3291 1.398 . S
C3292 C3293 1.391 . S
C3293 H3281 0.950 . S
C3293 C3289 1.393 . S
C3293 C3292 1.391 . S
C3294 H3284 0.950 . S
C3294 C3295 1.386 . S
C3294 C3296 1.391 . S
C3295 C3294 1.386 . S
C3295 C3299 1.393 . S
C3296 H3285 0.950 . S
C3296 C3294 1.391 . S
C3296 C3297 1.400 . S
C3297 C3291 1.491 . S
C3297 C3296 1.400 . S
C3297 C3298 1.398 . S
C3298 H3286 0.950 . S
C3298 C3297 1.398 . S
C3298 C3299 1.391 . S
C3299 H3287 0.950 . S
C3299 C3295 1.393 . S
C3299 C3298 1.391 . S
H3300 C3308 0.950 . S
H3301 C3313 0.950 . S
H3302 C3310 0.950 . S
H3303 C3312 0.950 . S
H3304 C3314 0.950 . S
H3305 C3316 0.950 . S
H3306 C3318 0.950 . S
H3307 C3319 0.950 . S
C3308 H3300 0.950 . S
C3308 C3309 1.386 . S
C3308 C3310 1.391 . S
C3309 C3308 1.386 . S
C3309 C3313 1.393 . S
C3310 H3302 0.950 . S
C3310 C3308 1.391 . S
C3310 C3311 1.400 . S
C3311 C3310 1.400 . S
C3311 C3312 1.398 . S
C3311 C3317 1.491 . S
C3312 H3303 0.950 . S
C3312 C3311 1.398 . S
C3312 C3313 1.391 . S
C3313 H3301 0.950 . S
C3313 C3309 1.393 . S
C3313 C3312 1.391 . S
C3314 H3304 0.950 . S
C3314 C3315 1.386 . S
C3314 C3316 1.391 . S
C3315 C3314 1.386 . S
C3315 C3319 1.393 . S
C3316 H3305 0.950 . S
C3316 C3314 1.391 . S
C3316 C3317 1.400 . S
C3317 C3311 1.491 . S
C3317 C3316 1.400 . S
C3317 C3318 1.398 . S
C3318 H3306 0.950 . S
C3318 C3317 1.398 . S
C3318 C3319 1.391 . S
C3319 H3307 0.950 . S
C3319 C3315 1.393 . S
C3319 C3318 1.391 . S
H3320 C3328 0.950 . S
H3321 C3333 0.950 . S
H3322 C3330 0.950 . S
H3323 C3332 0.950 . S
H3324 C3334 0.950 . S
H3325 C3336 0.950 . S
H3326 C3338 0.950 . S
H3327 C3339 0.950 . S
C3328 H3320 0.950 . S
C3328 C3329 1.386 . S
C3328 C3330 1.391 . S
C3329 C3328 1.386 . S
C3329 C3333 1.393 . S
C3330 H3322 0.950 . S
C3330 C3328 1.391 . S
C3330 C3331 1.400 . S
C3331 C3330 1.400 . S
C3331 C3332 1.398 . S
C3331 C3337 1.491 . S
C3332 H3323 0.950 . S
C3332 C3331 1.398 . S
C3332 C3333 1.391 . S
C3333 H3321 0.950 . S
C3333 C3329 1.393 . S
C3333 C3332 1.391 . S
C3334 H3324 0.950 . S
C3334 C3335 1.386 . S
C3334 C3336 1.391 . S
C3335 C3334 1.386 . S
C3335 C3339 1.393 . S
C3336 H3325 0.950 . S
C3336 C3334 1.391 . S
C3336 C3337 1.400 . S
C3337 C3331 1.491 . S
C3337 C3336 1.400 . S
C3337 C3338 1.398 . S
C3338 H3326 0.950 . S
C3338 C3337 1.398 . S
C3338 C3339 1.391 . S
C3339 H3327 0.950 . S
C3339 C3335 1.393 . S
C3339 C3338 1.391 . S
H3340 C3348 0.950 . S
H3341 C3353 0.950 . S
H3342 C3350 0.950 . S
H3343 C3352 0.950 . S
H3344 C3354 0.950 . S
H3345 C3356 0.950 . S
H3346 C3358 0.950 . S
H3347 C3359 0.950 . S
C3348 H3340 0.950 . S
C3348 C3349 1.386 . S
C3348 C3350 1.391 . S
C3349 C3348 1.386 . S
C3349 C3353 1.393 . S
C3350 H3342 0.950 . S
C3350 C3348 1.391 . S
C3350 C3351 1.400 . S
C3351 C3350 1.400 . S
C3351 C3352 1.398 . S
C3351 C3357 1.491 . S
C3352 H3343 0.950 . S
C3352 C3351 1.398 . S
C3352 C3353 1.391 . S
C3353 H3341 0.950 . S
C3353 C3349 1.393 . S
C3353 C3352 1.391 . S
C3354 H3344 0.950 . S
C3354 C3355 1.386 . S
C3354 C3356 1.391 . S
C3355 C3354 1.386 . S
C3355 C3359 1.393 . S
C3356 H3345 0.950 . S
C3356 C3354 1.391 . S
C3356 C3357 1.400 . S
C3357 C3351 1.491 . S
C3357 C3356 1.400 . S
C3357 C3358 1.398 . S
C3358 H3346 0.950 . S
C3358 C3357 1.398 . S
C3358 C3359 1.391 . S
C3359 H3347 0.950 . S
C3359 C3355 1.393 . S
C3359 C3358 1.391 . S
H3360 C3368 0.950 . S
H3361 C3373 0.950 . S
H3362 C3370 0.950 . S
H3363 C3372 0.950 . S
H3364 C3374 0.950 . S
H3365 C3376 0.950 . S
H3366 C3378 0.950 . S
H3367 C3379 0.950 . S
C3368 H3360 0.950 . S
C3368 C3369 1.386 . S
C3368 C3370 1.391 . S
C3369 C3368 1.386 . S
C3369 C3373 1.393 . S
C3370 H3362 0.950 . S
C3370 C3368 1.391 . S
C3370 C3371 1.400 . S
C3371 C3370 1.400 . S
C3371 C3372 1.398 . S
C3371 C3377 1.491 . S
C3372 H3363 0.950 . S
C3372 C3371 1.398 . S
C3372 C3373 1.391 . S
C3373 H3361 0.950 . S
C3373 C3369 1.393 . S
C3373 C3372 1.391 . S
C3374 H3364 0.950 . S
C3374 C3375 1.386 . S
C3374 C3376 1.391 . S
C3375 C3374 1.386 . S
C3375 C3379 1.393 . S
C3376 H3365 0.950 . S
C3376 C3374 1.391 . S
C3376 C3377 1.400 . S
C3377 C3371 1.491 . S
C3377 C3376 1.400 . S
C3377 C3378 1.398 . S
C3378 H3366 0.950 . S
C3378 C3377 1.398 . S
C3378 C3379 1.391 . S
C3379 H3367 0.950 . S
C3379 C3375 1.393 . S
C3379 C3378 1.391 . S
H3380 C3388 0.950 . S
H3381 C3393 0.950 . S
H3382 C3390 0.950 . S
H3383 C3392 0.950 . S
H3384 C3394 0.950 . S
H3385 C3396 0.950 . S
H3386 C3398 0.950 . S
H3387 C3399 0.950 . S
C3388 H3380 0.950 . S
C3388 C3389 1.386 . S
C3388 C3390 1.391 . S
C3389 C3388 1.386 . S
C3389 C3393 1.393 . S
C3390 H3382 0.950 . S
C3390 C3388 1.391 . S
C3390 C3391 1.400 . S
C3391 C3390 1.400 . S
C3391 C3392 1.398 . S
C3391 C3397 1.491 . S
C3392 H3383 0.950 . S
C3392 C3391 1.398 . S
C3392 C3393 1.391 . S
C3393 H3381 0.950 . S
C3393 C3389 1.393 . S
C3393 C3392 1.391 . S
C3394 H3384 0.950 . S
C3394 C3395 1.386 . S
C3394 C3396 1.391 . S
C3395 C3394 1.386 . S
C3395 C3399 1.393 . S
C3396 H3385 0.950 . S
C3396 C3394 1.391 . S
C3396 C3397 1.400 . S
C3397 C3391 1.491 . S
C3397 C3396 1.400 . S
C3397 C3398 1.398 . S
C3398 H3386 0.950 . S
C3398 C3397 1.398 . S
C3398 C3399 1.391 . S
C3399 H3387 0.950 . S
C3399 C3395 1.393 . S
C3399 C3398 1.391 . S
H3400 C3408 0.950 . S
H3401 C3413 0.950 . S
H3402 C3410 0.950 . S
H3403 C3412 0.950 . S
H3404 C3414 0.950 . S
H3405 C3416 0.950 . S
H3406 C3418 0.950 . S
H3407 C3419 0.950 . S
C3408 H3400 0.950 . S
C3408 C3409 1.386 . S
C3408 C3410 1.391 . S
C3409 C3408 1.386 . S
C3409 C3413 1.393 . S
C3410 H3402 0.950 . S
C3410 C3408 1.391 . S
C3410 C3411 1.400 . S
C3411 C3410 1.400 . S
C3411 C3412 1.398 . S
C3411 C3417 1.491 . S
C3412 H3403 0.950 . S
C3412 C3411 1.398 . S
C3412 C3413 1.391 . S
C3413 H3401 0.950 . S
C3413 C3409 1.393 . S
C3413 C3412 1.391 . S
C3414 H3404 0.950 . S
C3414 C3415 1.386 . S
C3414 C3416 1.391 . S
C3415 C3414 1.386 . S
C3415 C3419 1.393 . S
C3416 H3405 0.950 . S
C3416 C3414 1.391 . S
C3416 C3417 1.400 . S
C3417 C3411 1.491 . S
C3417 C3416 1.400 . S
C3417 C3418 1.398 . S
C3418 H3406 0.950 . S
C3418 C3417 1.398 . S
C3418 C3419 1.391 . S
C3419 H3407 0.950 . S
C3419 C3415 1.393 . S
C3419 C3418 1.391 . S
H3420 C3428 0.950 . S
H3421 C3433 0.950 . S
H3422 C3430 0.950 . S
H3423 C3432 0.950 . S
H3424 C3434 0.950 . S
H3425 C3436 0.950 . S
H3426 C3438 0.950 . S
H3427 C3439 0.950 . S
C3428 H3420 0.950 . S
C3428 C3429 1.386 . S
C3428 C3430 1.391 . S
C3429 C3428 1.386 . S
C3429 C3433 1.393 . S
C3430 H3422 0.950 . S
C3430 C3428 1.391 . S
C3430 C3431 1.400 . S
C3431 C3430 1.400 . S
C3431 C3432 1.398 . S
C3431 C3437 1.491 . S
C3432 H3423 0.950 . S
C3432 C3431 1.398 . S
C3432 C3433 1.391 . S
C3433 H3421 0.950 . S
C3433 C3429 1.393 . S
C3433 C3432 1.391 . S
C3434 H3424 0.950 . S
C3434 C3435 1.386 . S
C3434 C3436 1.391 . S
C3435 C3434 1.386 . S
C3435 C3439 1.393 . S
C3436 H3425 0.950 . S
C3436 C3434 1.391 . S
C3436 C3437 1.400 . S
C3437 C3431 1.491 . S
C3437 C3436 1.400 . S
C3437 C3438 1.398 . S
C3438 H3426 0.950 . S
C3438 C3437 1.398 . S
C3438 C3439 1.391 . S
C3439 H3427 0.950 . S
C3439 C3435 1.393 . S
C3439 C3438 1.391 . S
H3440 C3448 0.950 . S
H3441 C3453 0.950 . S
H3442 C3450 0.950 . S
H3443 C3452 0.950 1_556 S
H3444 C3454 0.950 . S
H3445 C3456 0.950 . S
H3446 C3458 0.950 . S
H3447 C3459 0.950 . S
C3448 H3440 0.950 . S
C3448 C3449 1.386 . S
C3448 C3450 1.391 . S
C3449 C3448 1.386 . S
C3449 C3453 1.393 . S
C3450 H3442 0.950 . S
C3450 C3448 1.391 . S
C3450 C3451 1.384 1_554 S
C3451 C3450 1.384 1_556 S
C3451 C3452 1.394 1_556 S
C3451 C3457 1.510 . S
C3452 H3443 0.950 1_554 S
C3452 C3451 1.394 1_554 S
C3452 C3453 1.391 . S
C3453 H3441 0.950 . S
C3453 C3449 1.393 . S
C3453 C3452 1.391 . S
C3454 H3444 0.950 . S
C3454 C3455 1.386 . S
C3454 C3456 1.391 . S
C3455 C3454 1.386 . S
C3455 C3459 1.393 . S
C3456 H3445 0.950 . S
C3456 C3454 1.391 . S
C3456 C3457 1.400 . S
C3457 C3451 1.510 . S
C3457 C3456 1.400 . S
C3457 C3458 1.398 . S
C3458 H3446 0.950 . S
C3458 C3457 1.398 . S
C3458 C3459 1.391 . S
C3459 H3447 0.950 . S
C3459 C3455 1.393 . S
C3459 C3458 1.391 . S
H3460 C3468 0.950 1_655 S
H3461 C3473 0.950 . S
H3462 C3470 0.950 . S
H3463 C3472 0.950 . S
H3464 C3474 0.950 . S
H3465 C3476 0.950 . S
H3466 C3478 0.950 . S
H3467 C3479 0.950 . S
C3468 H3460 0.950 1_455 S
C3468 C3469 1.386 . S
C3468 C3470 1.391 . S
C3469 C3468 1.386 . S
C3469 C3473 1.393 . S
C3470 H3462 0.950 . S
C3470 C3468 1.391 . S
C3470 C3471 1.400 . S
C3471 C3470 1.400 . S
C3471 C3472 1.398 . S
C3471 C3477 1.491 . S
C3472 H3463 0.950 . S
C3472 C3471 1.398 . S
C3472 C3473 1.391 . S
C3473 H3461 0.950 . S
C3473 C3469 1.393 . S
C3473 C3472 1.391 . S
C3474 H3464 0.950 . S
C3474 C3475 1.386 . S
C3474 C3476 1.391 . S
C3475 C3474 1.386 . S
C3475 C3479 1.393 . S
C3476 H3465 0.950 . S
C3476 C3474 1.391 . S
C3476 C3477 1.400 . S
C3477 C3471 1.491 . S
C3477 C3476 1.400 . S
C3477 C3478 1.398 . S
C3478 H3466 0.950 . S
C3478 C3477 1.398 . S
C3478 C3479 1.391 . S
C3479 H3467 0.950 . S
C3479 C3475 1.393 . S
C3479 C3478 1.391 . S
H3480 C3488 0.950 . S
H3481 C3493 0.950 . S
H3482 C3490 0.950 . S
H3483 C3492 0.950 . S
H3484 C3494 0.950 . S
H3485 C3496 0.950 . S
H3486 C3498 0.950 . S
H3487 C3499 0.950 . S
C3488 H3480 0.950 . S
C3488 C3489 1.386 . S
C3488 C3490 1.391 . S
C3489 C3488 1.386 . S
C3489 C3493 1.393 . S
C3490 H3482 0.950 . S
C3490 C3488 1.391 . S
C3490 C3491 1.400 . S
C3491 C3490 1.400 . S
C3491 C3492 1.398 . S
C3491 C3497 1.491 . S
C3492 H3483 0.950 . S
C3492 C3491 1.398 . S
C3492 C3493 1.391 . S
C3493 H3481 0.950 . S
C3493 C3489 1.393 . S
C3493 C3492 1.391 . S
C3494 H3484 0.950 . S
C3494 C3495 1.386 . S
C3494 C3496 1.391 . S
C3495 C3494 1.386 . S
C3495 C3499 1.393 . S
C3496 H3485 0.950 . S
C3496 C3494 1.391 . S
C3496 C3497 1.400 . S
C3497 C3491 1.491 . S
C3497 C3496 1.400 . S
C3497 C3498 1.398 . S
C3498 H3486 0.950 . S
C3498 C3497 1.398 . S
C3498 C3499 1.391 . S
C3499 H3487 0.950 . S
C3499 C3495 1.393 . S
C3499 C3498 1.391 . S
H3500 C3508 0.950 . S
H3501 C3513 0.950 . S
H3502 C3510 0.950 . S
H3503 C3512 0.950 . S
H3504 C3514 0.950 . S
H3505 C3516 0.950 . S
H3506 C3518 0.950 . S
H3507 C3519 0.950 . S
C3508 H3500 0.950 . S
C3508 C3509 1.386 . S
C3508 C3510 1.391 . S
C3509 C3508 1.386 . S
C3509 C3513 1.393 . S
C3510 H3502 0.950 . S
C3510 C3508 1.391 . S
C3510 C3511 1.400 . S
C3511 C3510 1.400 . S
C3511 C3512 1.398 . S
C3511 C3517 1.491 . S
C3512 H3503 0.950 . S
C3512 C3511 1.398 . S
C3512 C3513 1.391 . S
C3513 H3501 0.950 . S
C3513 C3509 1.393 . S
C3513 C3512 1.391 . S
C3514 H3504 0.950 . S
C3514 C3515 1.386 . S
C3514 C3516 1.391 . S
C3515 C3514 1.386 . S
C3515 C3519 1.393 . S
C3516 H3505 0.950 . S
C3516 C3514 1.391 . S
C3516 C3517 1.400 . S
C3517 C3511 1.491 . S
C3517 C3516 1.400 . S
C3517 C3518 1.398 . S
C3518 H3506 0.950 . S
C3518 C3517 1.398 . S
C3518 C3519 1.391 . S
C3519 H3507 0.950 . S
C3519 C3515 1.393 . S
C3519 C3518 1.391 . S
H3520 C3528 0.950 . S
H3521 C3533 0.950 . S
H3522 C3530 0.950 . S
H3523 C3532 0.950 . S
H3524 C3534 0.950 . S
H3525 C3536 0.950 . S
H3526 C3538 0.950 . S
H3527 C3539 0.950 . S
C3528 H3520 0.950 . S
C3528 C3529 1.386 . S
C3528 C3530 1.391 . S
C3529 C3528 1.386 . S
C3529 C3533 1.393 . S
C3530 H3522 0.950 . S
C3530 C3528 1.391 . S
C3530 C3531 1.400 . S
C3531 C3530 1.400 . S
C3531 C3532 1.398 . S
C3531 C3537 1.491 . S
C3532 H3523 0.950 . S
C3532 C3531 1.398 . S
C3532 C3533 1.391 . S
C3533 H3521 0.950 . S
C3533 C3529 1.393 . S
C3533 C3532 1.391 . S
C3534 H3524 0.950 . S
C3534 C3535 1.386 . S
C3534 C3536 1.391 . S
C3535 C3534 1.386 . S
C3535 C3539 1.393 . S
C3536 H3525 0.950 . S
C3536 C3534 1.391 . S
C3536 C3537 1.400 . S
C3537 C3531 1.491 . S
C3537 C3536 1.400 . S
C3537 C3538 1.398 . S
C3538 H3526 0.950 . S
C3538 C3537 1.398 . S
C3538 C3539 1.391 . S
C3539 H3527 0.950 . S
C3539 C3535 1.393 . S
C3539 C3538 1.391 . S
H3540 C3548 0.950 . S
H3541 C3553 0.950 . S
H3542 C3550 0.950 . S
H3543 C3552 0.950 . S
H3544 C3554 0.950 . S
H3545 C3556 0.950 . S
H3546 C3558 0.950 . S
H3547 C3559 0.950 . S
C3548 H3540 0.950 . S
C3548 C3549 1.386 . S
C3548 C3550 1.391 . S
C3549 C3548 1.386 . S
C3549 C3553 1.393 . S
C3550 H3542 0.950 . S
C3550 C3548 1.391 . S
C3550 C3551 1.400 . S
C3551 C3550 1.400 . S
C3551 C3552 1.398 . S
C3551 C3557 1.491 . S
C3552 H3543 0.950 . S
C3552 C3551 1.398 . S
C3552 C3553 1.391 . S
C3553 H3541 0.950 . S
C3553 C3549 1.393 . S
C3553 C3552 1.391 . S
C3554 H3544 0.950 . S
C3554 C3555 1.386 . S
C3554 C3556 1.391 . S
C3555 C3554 1.386 . S
C3555 C3559 1.393 . S
C3556 H3545 0.950 . S
C3556 C3554 1.391 . S
C3556 C3557 1.400 . S
C3557 C3551 1.491 . S
C3557 C3556 1.400 . S
C3557 C3558 1.398 . S
C3558 H3546 0.950 . S
C3558 C3557 1.398 . S
C3558 C3559 1.391 . S
C3559 H3547 0.950 . S
C3559 C3555 1.393 . S
C3559 C3558 1.391 . S
H3560 C3568 0.950 . S
H3561 C3573 0.950 . S
H3562 C3570 0.950 . S
H3563 C3572 0.950 . S
H3564 C3574 0.950 . S
H3565 C3576 0.950 . S
H3566 C3578 0.950 . S
H3567 C3579 0.950 . S
C3568 H3560 0.950 . S
C3568 C3569 1.386 . S
C3568 C3570 1.391 . S
C3569 C3568 1.386 . S
C3569 C3573 1.393 . S
C3570 H3562 0.950 . S
C3570 C3568 1.391 . S
C3570 C3571 1.400 . S
C3571 C3570 1.400 . S
C3571 C3572 1.398 . S
C3571 C3577 1.491 . S
C3572 H3563 0.950 . S
C3572 C3571 1.398 . S
C3572 C3573 1.391 . S
C3573 H3561 0.950 . S
C3573 C3569 1.393 . S
C3573 C3572 1.391 . S
C3574 H3564 0.950 . S
C3574 C3575 1.386 . S
C3574 C3576 1.391 . S
C3575 C3574 1.386 . S
C3575 C3579 1.393 . S
C3576 H3565 0.950 . S
C3576 C3574 1.391 . S
C3576 C3577 1.400 . S
C3577 C3571 1.491 . S
C3577 C3576 1.400 . S
C3577 C3578 1.398 . S
C3578 H3566 0.950 . S
C3578 C3577 1.398 . S
C3578 C3579 1.391 . S
C3579 H3567 0.950 . S
C3579 C3575 1.393 . S
C3579 C3578 1.391 . S
H3580 C3588 0.950 . S
H3581 C3593 0.950 . S
H3582 C3590 0.950 . S
H3583 C3592 0.950 . S
H3584 C3594 0.950 . S
H3585 C3596 0.950 . S
H3586 C3598 0.950 . S
H3587 C3599 0.950 . S
C3588 H3580 0.950 . S
C3588 C3589 1.386 . S
C3588 C3590 1.391 . S
C3589 C3588 1.386 . S
C3589 C3593 1.393 . S
C3590 H3582 0.950 . S
C3590 C3588 1.391 . S
C3590 C3591 1.400 . S
C3591 C3590 1.400 . S
C3591 C3592 1.398 . S
C3591 C3597 1.491 . S
C3592 H3583 0.950 . S
C3592 C3591 1.398 . S
C3592 C3593 1.391 . S
C3593 H3581 0.950 . S
C3593 C3589 1.393 . S
C3593 C3592 1.391 . S
C3594 H3584 0.950 . S
C3594 C3595 1.386 . S
C3594 C3596 1.391 . S
C3595 C3594 1.386 . S
C3595 C3599 1.393 . S
C3596 H3585 0.950 . S
C3596 C3594 1.391 . S
C3596 C3597 1.400 . S
C3597 C3591 1.491 . S
C3597 C3596 1.400 . S
C3597 C3598 1.398 . S
C3598 H3586 0.950 . S
C3598 C3597 1.398 . S
C3598 C3599 1.391 . S
C3599 H3587 0.950 . S
C3599 C3595 1.393 . S
C3599 C3598 1.391 . S
H3600 C3608 0.950 . S
H3601 C3613 0.950 . S
H3602 C3610 0.950 . S
H3603 C3612 0.950 . S
H3604 C3614 0.950 . S
H3605 C3616 0.950 . S
H3606 C3618 0.950 . S
H3607 C3619 0.950 . S
C3608 H3600 0.950 . S
C3608 C3609 1.386 . S
C3608 C3610 1.391 . S
C3609 C3608 1.386 . S
C3609 C3613 1.393 . S
C3610 H3602 0.950 . S
C3610 C3608 1.391 . S
C3610 C3611 1.400 . S
C3611 C3610 1.400 . S
C3611 C3612 1.398 . S
C3611 C3617 1.491 . S
C3612 H3603 0.950 . S
C3612 C3611 1.398 . S
C3612 C3613 1.391 . S
C3613 H3601 0.950 . S
C3613 C3609 1.393 . S
C3613 C3612 1.391 . S
C3614 H3604 0.950 . S
C3614 C3615 1.386 . S
C3614 C3616 1.391 . S
C3615 C3614 1.386 . S
C3615 C3619 1.393 . S
C3616 H3605 0.950 . S
C3616 C3614 1.391 . S
C3616 C3617 1.400 . S
C3617 C3611 1.491 . S
C3617 C3616 1.400 . S
C3617 C3618 1.398 . S
C3618 H3606 0.950 . S
C3618 C3617 1.398 . S
C3618 C3619 1.391 . S
C3619 H3607 0.950 . S
C3619 C3615 1.393 . S
C3619 C3618 1.391 . S
H3620 C3628 0.950 . S
H3621 C3633 0.950 . S
H3622 C3630 0.950 . S
H3623 C3632 0.950 . S
H3624 C3634 0.950 . S
H3625 C3636 0.950 . S
H3626 C3638 0.950 . S
H3627 C3639 0.950 . S
C3628 H3620 0.950 . S
C3628 C3629 1.386 . S
C3628 C3630 1.391 . S
C3629 C3628 1.386 . S
C3629 C3633 1.393 . S
C3630 H3622 0.950 . S
C3630 C3628 1.391 . S
C3630 C3631 1.400 . S
C3631 C3630 1.400 . S
C3631 C3632 1.398 . S
C3631 C3637 1.491 . S
C3632 H3623 0.950 . S
C3632 C3631 1.398 . S
C3632 C3633 1.391 . S
C3633 H3621 0.950 . S
C3633 C3629 1.393 . S
C3633 C3632 1.391 . S
C3634 H3624 0.950 . S
C3634 C3635 1.386 . S
C3634 C3636 1.391 . S
C3635 C3634 1.386 . S
C3635 C3639 1.393 . S
C3636 H3625 0.950 . S
C3636 C3634 1.391 . S
C3636 C3637 1.400 . S
C3637 C3631 1.491 . S
C3637 C3636 1.400 . S
C3637 C3638 1.398 . S
C3638 H3626 0.950 . S
C3638 C3637 1.398 . S
C3638 C3639 1.391 . S
C3639 H3627 0.950 . S
C3639 C3635 1.393 . S
C3639 C3638 1.391 . S
H3640 C3648 0.950 . S
H3641 C3653 0.950 . S
H3642 C3650 0.950 . S
H3643 C3652 0.950 . S
H3644 C3654 0.950 . S
H3645 C3656 0.950 . S
H3646 C3658 0.950 . S
H3647 C3659 0.950 . S
C3648 H3640 0.950 . S
C3648 C3649 1.386 . S
C3648 C3650 1.391 . S
C3649 C3648 1.386 . S
C3649 C3653 1.393 . S
C3650 H3642 0.950 . S
C3650 C3648 1.391 . S
C3650 C3651 1.400 1_455 S
C3651 C3650 1.400 1_655 S
C3651 C3652 1.398 . S
C3651 C3657 1.491 . S
C3652 H3643 0.950 . S
C3652 C3651 1.398 . S
C3652 C3653 1.391 1_655 S
C3653 H3641 0.950 . S
C3653 C3649 1.393 . S
C3653 C3652 1.391 1_455 S
C3654 H3644 0.950 . S
C3654 C3655 1.386 . S
C3654 C3656 1.391 . S
C3655 C3654 1.386 . S
C3655 C3659 1.393 . S
C3656 H3645 0.950 . S
C3656 C3654 1.391 . S
C3656 C3657 1.400 . S
C3657 C3651 1.491 . S
C3657 C3656 1.400 . S
C3657 C3658 1.398 . S
C3658 H3646 0.950 . S
C3658 C3657 1.398 . S
C3658 C3659 1.391 . S
C3659 H3647 0.950 . S
C3659 C3655 1.393 . S
C3659 C3658 1.391 . S
H3660 C3668 0.950 . S
H3661 C3673 0.950 . S
H3662 C3670 0.950 . S
H3663 C3672 0.950 . S
H3664 C3674 0.950 . S
H3665 C3676 0.950 . S
H3666 C3678 0.950 . S
H3667 C3679 0.950 . S
C3668 H3660 0.950 . S
C3668 C3669 1.386 . S
C3668 C3670 1.391 . S
C3669 C3668 1.386 . S
C3669 C3673 1.393 . S
C3670 H3662 0.950 . S
C3670 C3668 1.391 . S
C3670 C3671 1.400 . S
C3671 C3670 1.400 . S
C3671 C3672 1.398 . S
C3671 C3677 1.491 . S
C3672 H3663 0.950 . S
C3672 C3671 1.398 . S
C3672 C3673 1.391 . S
C3673 H3661 0.950 . S
C3673 C3669 1.393 . S
C3673 C3672 1.391 . S
C3674 H3664 0.950 . S
C3674 C3675 1.386 . S
C3674 C3676 1.391 . S
C3675 C3674 1.386 . S
C3675 C3679 1.393 . S
C3676 H3665 0.950 . S
C3676 C3674 1.391 . S
C3676 C3677 1.400 . S
C3677 C3671 1.491 . S
C3677 C3676 1.400 . S
C3677 C3678 1.398 . S
C3678 H3666 0.950 . S
C3678 C3677 1.398 . S
C3678 C3679 1.391 . S
C3679 H3667 0.950 . S
C3679 C3675 1.393 . S
C3679 C3678 1.391 . S
H3680 C3688 0.950 . S
H3681 C3693 0.950 . S
H3682 C3690 0.950 . S
H3683 C3692 0.950 . S
H3684 C3694 0.950 . S
H3685 C3696 0.950 . S
H3686 C3698 0.950 . S
H3687 C3699 0.950 . S
C3688 H3680 0.950 . S
C3688 C3689 1.386 . S
C3688 C3690 1.391 . S
C3689 C3688 1.386 . S
C3689 C3693 1.393 . S
C3690 H3682 0.950 . S
C3690 C3688 1.391 . S
C3690 C3691 1.400 . S
C3691 C3690 1.400 . S
C3691 C3692 1.398 . S
C3691 C3697 1.491 . S
C3692 H3683 0.950 . S
C3692 C3691 1.398 . S
C3692 C3693 1.391 . S
C3693 H3681 0.950 . S
C3693 C3689 1.393 . S
C3693 C3692 1.391 . S
C3694 H3684 0.950 . S
C3694 C3695 1.386 . S
C3694 C3696 1.391 . S
C3695 C3694 1.386 . S
C3695 C3699 1.393 . S
C3696 H3685 0.950 . S
C3696 C3694 1.391 . S
C3696 C3697 1.400 . S
C3697 C3691 1.491 . S
C3697 C3696 1.400 . S
C3697 C3698 1.398 . S
C3698 H3686 0.950 . S
C3698 C3697 1.398 . S
C3698 C3699 1.391 . S
C3699 H3687 0.950 . S
C3699 C3695 1.393 . S
C3699 C3698 1.391 . S
H3700 C3708 0.950 . S
H3701 C3713 0.950 . S
H3702 C3710 0.950 . S
H3703 C3712 0.950 . S
H3704 C3714 0.950 . S
H3705 C3716 0.950 . S
H3706 C3718 0.950 . S
H3707 C3719 0.950 . S
C3708 H3700 0.950 . S
C3708 C3709 1.386 . S
C3708 C3710 1.391 . S
C3709 C3708 1.386 . S
C3709 C3713 1.393 . S
C3710 H3702 0.950 . S
C3710 C3708 1.391 . S
C3710 C3711 1.400 . S
C3711 C3710 1.400 . S
C3711 C3712 1.398 . S
C3711 C3717 1.491 . S
C3712 H3703 0.950 . S
C3712 C3711 1.398 . S
C3712 C3713 1.391 . S
C3713 H3701 0.950 . S
C3713 C3709 1.393 . S
C3713 C3712 1.391 . S
C3714 H3704 0.950 . S
C3714 C3715 1.386 . S
C3714 C3716 1.391 . S
C3715 C3714 1.386 . S
C3715 C3719 1.393 . S
C3716 H3705 0.950 . S
C3716 C3714 1.391 . S
C3716 C3717 1.400 . S
C3717 C3711 1.491 . S
C3717 C3716 1.400 . S
C3717 C3718 1.398 . S
C3718 H3706 0.950 . S
C3718 C3717 1.398 . S
C3718 C3719 1.391 . S
C3719 H3707 0.950 . S
C3719 C3715 1.393 . S
C3719 C3718 1.391 . S
H3720 C3728 0.950 . S
H3721 C3733 0.950 . S
H3722 C3730 0.950 . S
H3723 C3732 0.950 . S
H3724 C3734 0.950 . S
H3725 C3736 0.950 . S
H3726 C3738 0.950 . S
H3727 C3739 0.950 . S
C3728 H3720 0.950 . S
C3728 C3729 1.386 . S
C3728 C3730 1.391 . S
C3729 C3728 1.386 . S
C3729 C3733 1.393 . S
C3730 H3722 0.950 . S
C3730 C3728 1.391 . S
C3730 C3731 1.400 . S
C3731 C3730 1.400 . S
C3731 C3732 1.398 . S
C3731 C3737 1.491 . S
C3732 H3723 0.950 . S
C3732 C3731 1.398 . S
C3732 C3733 1.391 . S
C3733 H3721 0.950 . S
C3733 C3729 1.393 . S
C3733 C3732 1.391 . S
C3734 H3724 0.950 . S
C3734 C3735 1.386 . S
C3734 C3736 1.391 . S
C3735 C3734 1.386 . S
C3735 C3739 1.393 . S
C3736 H3725 0.950 . S
C3736 C3734 1.391 . S
C3736 C3737 1.400 . S
C3737 C3731 1.491 . S
C3737 C3736 1.400 . S
C3737 C3738 1.398 . S
C3738 H3726 0.950 . S
C3738 C3737 1.398 . S
C3738 C3739 1.391 . S
C3739 H3727 0.950 . S
C3739 C3735 1.393 . S
C3739 C3738 1.391 . S
H3740 C3748 0.950 . S
H3741 C3753 0.950 . S
H3742 C3750 0.950 . S
H3743 C3752 0.950 . S
H3744 C3754 0.950 . S
H3745 C3756 0.950 . S
H3746 C3758 0.950 . S
H3747 C3759 0.950 . S
C3748 H3740 0.950 . S
C3748 C3749 1.386 . S
C3748 C3750 1.391 . S
C3749 C3748 1.386 . S
C3749 C3753 1.393 . S
C3750 H3742 0.950 . S
C3750 C3748 1.391 . S
C3750 C3751 1.400 . S
C3751 C3750 1.400 . S
C3751 C3752 1.398 . S
C3751 C3757 1.491 . S
C3752 H3743 0.950 . S
C3752 C3751 1.398 . S
C3752 C3753 1.391 . S
C3753 H3741 0.950 . S
C3753 C3749 1.393 . S
C3753 C3752 1.391 . S
C3754 H3744 0.950 . S
C3754 C3755 1.386 . S
C3754 C3756 1.391 . S
C3755 C3754 1.386 . S
C3755 C3759 1.393 . S
C3756 H3745 0.950 . S
C3756 C3754 1.391 . S
C3756 C3757 1.400 . S
C3757 C3751 1.491 . S
C3757 C3756 1.400 . S
C3757 C3758 1.398 . S
C3758 H3746 0.950 . S
C3758 C3757 1.398 . S
C3758 C3759 1.391 . S
C3759 H3747 0.950 . S
C3759 C3755 1.393 . S
C3759 C3758 1.391 . S
H3760 C3768 0.950 . S
H3761 C3773 0.950 . S
H3762 C3770 0.950 . S
H3763 C3772 0.950 . S
H3764 C3774 0.950 . S
H3765 C3776 0.950 . S
H3766 C3778 0.950 . S
H3767 C3779 0.950 . S
C3768 H3760 0.950 . S
C3768 C3769 1.386 . S
C3768 C3770 1.391 . S
C3769 C3768 1.386 . S
C3769 C3773 1.393 . S
C3770 H3762 0.950 . S
C3770 C3768 1.391 . S
C3770 C3771 1.400 . S
C3771 C3770 1.400 . S
C3771 C3772 1.398 . S
C3771 C3777 1.491 . S
C3772 H3763 0.950 . S
C3772 C3771 1.398 . S
C3772 C3773 1.391 . S
C3773 H3761 0.950 . S
C3773 C3769 1.393 . S
C3773 C3772 1.391 . S
C3774 H3764 0.950 . S
C3774 C3775 1.386 . S
C3774 C3776 1.391 . S
C3775 C3774 1.386 . S
C3775 C3779 1.393 . S
C3776 H3765 0.950 . S
C3776 C3774 1.391 . S
C3776 C3777 1.400 . S
C3777 C3771 1.491 . S
C3777 C3776 1.400 . S
C3777 C3778 1.398 . S
C3778 H3766 0.950 . S
C3778 C3777 1.398 . S
C3778 C3779 1.391 . S
C3779 H3767 0.950 . S
C3779 C3775 1.393 . S
C3779 C3778 1.391 . S
H3780 C3788 0.950 . S
H3781 C3793 0.950 . S
H3782 C3790 0.950 . S
H3783 C3792 0.950 . S
H3784 C3794 0.950 . S
H3785 C3796 0.950 . S
H3786 C3798 0.950 . S
H3787 C3799 0.950 . S
C3788 H3780 0.950 . S
C3788 C3789 1.386 . S
C3788 C3790 1.391 . S
C3789 C3788 1.386 . S
C3789 C3793 1.393 . S
C3790 H3782 0.950 . S
C3790 C3788 1.391 . S
C3790 C3791 1.400 . S
C3791 C3790 1.400 . S
C3791 C3792 1.398 . S
C3791 C3797 1.491 . S
C3792 H3783 0.950 . S
C3792 C3791 1.398 . S
C3792 C3793 1.391 . S
C3793 H3781 0.950 . S
C3793 C3789 1.393 . S
C3793 C3792 1.391 . S
C3794 H3784 0.950 . S
C3794 C3795 1.386 . S
C3794 C3796 1.391 . S
C3795 C3794 1.386 . S
C3795 C3799 1.393 . S
C3796 H3785 0.950 . S
C3796 C3794 1.391 . S
C3796 C3797 1.400 . S
C3797 C3791 1.491 . S
C3797 C3796 1.400 . S
C3797 C3798 1.398 . S
C3798 H3786 0.950 . S
C3798 C3797 1.398 . S
C3798 C3799 1.391 . S
C3799 H3787 0.950 . S
C3799 C3795 1.393 . S
C3799 C3798 1.391 . S
H3800 C3808 0.950 1_545 S
H3801 C3813 0.950 . S
H3802 C3810 0.954 . S
H3803 C3812 0.950 . S
H3804 C3814 0.950 . S
H3805 C3816 0.950 . S
H3806 C3818 0.950 . S
H3807 C3819 0.950 . S
C3808 H3800 0.950 1_565 S
C3808 C3809 1.386 . S
C3808 C3810 1.391 . S
C3809 C3808 1.386 . S
C3809 C3813 1.393 . S
C3810 H3802 0.954 . S
C3810 C3808 1.391 . S
C3810 C3811 1.400 . S
C3811 C3810 1.400 . S
C3811 C3812 1.398 . S
C3811 C3817 1.491 . S
C3812 H3803 0.950 . S
C3812 C3811 1.398 . S
C3812 C3813 1.391 . S
C3813 H3801 0.950 . S
C3813 C3809 1.393 . S
C3813 C3812 1.391 . S
C3814 H3804 0.950 . S
C3814 C3815 1.386 . S
C3814 C3816 1.391 . S
C3815 C3814 1.386 . S
C3815 C3819 1.393 . S
C3816 H3805 0.950 . S
C3816 C3814 1.391 . S
C3816 C3817 1.400 . S
C3817 C3811 1.491 . S
C3817 C3816 1.400 . S
C3817 C3818 1.398 . S
C3818 H3806 0.950 . S
C3818 C3817 1.398 . S
C3818 C3819 1.391 . S
C3819 H3807 0.950 . S
C3819 C3815 1.393 . S
C3819 C3818 1.391 . S
H3820 C3828 0.950 . S
H3821 C3833 0.950 . S
H3822 C3830 0.950 . S
H3823 C3832 0.950 . S
H3824 C3834 0.950 . S
H3825 C3836 0.950 . S
H3826 C3838 0.950 . S
H3827 C3839 0.950 . S
C3828 H3820 0.950 . S
C3828 C3829 1.386 . S
C3828 C3830 1.391 . S
C3829 C3828 1.386 . S
C3829 C3833 1.393 . S
C3830 H3822 0.950 . S
C3830 C3828 1.391 . S
C3830 C3831 1.400 . S
C3831 C3830 1.400 . S
C3831 C3832 1.398 . S
C3831 C3837 1.491 . S
C3832 H3823 0.950 . S
C3832 C3831 1.398 . S
C3832 C3833 1.391 . S
C3833 H3821 0.950 . S
C3833 C3829 1.393 . S
C3833 C3832 1.391 . S
C3834 H3824 0.950 . S
C3834 C3835 1.386 . S
C3834 C3836 1.391 . S
C3835 C3834 1.386 . S
C3835 C3839 1.393 . S
C3836 H3825 0.950 . S
C3836 C3834 1.391 . S
C3836 C3837 1.400 . S
C3837 C3831 1.491 . S
C3837 C3836 1.400 . S
C3837 C3838 1.398 . S
C3838 H3826 0.950 . S
C3838 C3837 1.398 . S
C3838 C3839 1.391 . S
C3839 H3827 0.950 . S
C3839 C3835 1.393 . S
C3839 C3838 1.391 . S
H3840 C3848 0.950 . S
H3841 C3853 0.950 . S
H3842 C3850 0.950 . S
H3843 C3852 0.950 . S
H3844 C3854 0.950 . S
H3845 C3856 0.950 . S
H3846 C3858 0.950 . S
H3847 C3859 0.950 . S
C3848 H3840 0.950 . S
C3848 C3849 1.386 . S
C3848 C3850 1.391 . S
C3849 C3848 1.386 . S
C3849 C3853 1.393 . S
C3850 H3842 0.950 . S
C3850 C3848 1.391 . S
C3850 C3851 1.400 . S
C3851 C3850 1.400 . S
C3851 C3852 1.398 . S
C3851 C3857 1.491 . S
C3852 H3843 0.950 . S
C3852 C3851 1.398 . S
C3852 C3853 1.391 . S
C3853 H3841 0.950 . S
C3853 C3849 1.393 . S
C3853 C3852 1.391 . S
C3854 H3844 0.950 . S
C3854 C3855 1.386 . S
C3854 C3856 1.391 . S
C3855 C3854 1.386 . S
C3855 C3859 1.393 . S
C3856 H3845 0.950 . S
C3856 C3854 1.391 . S
C3856 C3857 1.400 . S
C3857 C3851 1.491 . S
C3857 C3856 1.400 . S
C3857 C3858 1.398 . S
C3858 H3846 0.950 . S
C3858 C3857 1.398 . S
C3858 C3859 1.391 . S
C3859 H3847 0.950 . S
C3859 C3855 1.393 . S
C3859 C3858 1.391 . S
H3860 C3868 0.950 . S
H3861 C3873 0.950 . S
H3862 C3870 0.950 . S
H3863 C3872 0.950 . S
H3864 C3874 0.950 . S
H3865 C3876 0.950 . S
H3866 C3878 0.950 . S
H3867 C3879 0.950 . S
C3868 H3860 0.950 . S
C3868 C3869 1.386 . S
C3868 C3870 1.391 . S
C3869 C3868 1.386 . S
C3869 C3873 1.393 . S
C3870 H3862 0.950 . S
C3870 C3868 1.391 . S
C3870 C3871 1.400 . S
C3871 C3870 1.400 . S
C3871 C3872 1.398 . S
C3871 C3877 1.491 . S
C3872 H3863 0.950 . S
C3872 C3871 1.398 . S
C3872 C3873 1.391 . S
C3873 H3861 0.950 . S
C3873 C3869 1.393 . S
C3873 C3872 1.391 . S
C3874 H3864 0.950 . S
C3874 C3875 1.386 . S
C3874 C3876 1.391 . S
C3875 C3874 1.386 . S
C3875 C3879 1.393 . S
C3876 H3865 0.950 . S
C3876 C3874 1.391 . S
C3876 C3877 1.400 . S
C3877 C3871 1.491 . S
C3877 C3876 1.400 . S
C3877 C3878 1.398 . S
C3878 H3866 0.950 . S
C3878 C3877 1.398 . S
C3878 C3879 1.391 . S
C3879 H3867 0.950 . S
C3879 C3875 1.393 . S
C3879 C3878 1.391 . S
H3880 C3888 0.950 . S
H3881 C3893 0.950 . S
H3882 C3890 0.950 . S
H3883 C3892 0.950 . S
H3884 C3894 0.950 . S
H3885 C3896 0.950 . S
H3886 C3898 0.950 . S
H3887 C3899 0.950 . S
C3888 H3880 0.950 . S
C3888 C3889 1.386 . S
C3888 C3890 1.391 . S
C3889 C3888 1.386 . S
C3889 C3893 1.393 . S
C3890 H3882 0.950 . S
C3890 C3888 1.391 . S
C3890 C3891 1.400 . S
C3891 C3890 1.400 . S
C3891 C3892 1.398 . S
C3891 C3897 1.491 1_554 S
C3892 H3883 0.950 . S
C3892 C3891 1.398 . S
C3892 C3893 1.391 . S
C3893 H3881 0.950 . S
C3893 C3889 1.393 . S
C3893 C3892 1.391 . S
C3894 H3884 0.950 . S
C3894 C3895 1.386 . S
C3894 C3896 1.391 . S
C3895 C3894 1.386 . S
C3895 C3899 1.393 . S
C3896 H3885 0.950 . S
C3896 C3894 1.391 . S
C3896 C3897 1.400 . S
C3897 C3891 1.491 1_556 S
C3897 C3896 1.400 . S
C3897 C3898 1.398 . S
C3898 H3886 0.950 . S
C3898 C3897 1.398 . S
C3898 C3899 1.391 . S
C3899 H3887 0.950 . S
C3899 C3895 1.393 . S
C3899 C3898 1.391 . S
H3900 C3908 0.950 . S
H3901 C3913 0.950 . S
H3902 C3910 0.950 . S
H3903 C3912 0.950 . S
H3904 C3914 0.950 . S
H3905 C3916 0.950 . S
H3906 C3918 0.950 . S
H3907 C3919 0.950 . S
C3908 H3900 0.950 . S
C3908 C3909 1.386 . S
C3908 C3910 1.391 . S
C3909 C3908 1.386 . S
C3909 C3913 1.393 . S
C3910 H3902 0.950 . S
C3910 C3908 1.391 . S
C3910 C3911 1.400 . S
C3911 C3910 1.400 . S
C3911 C3912 1.398 . S
C3911 C3917 1.491 . S
C3912 H3903 0.950 . S
C3912 C3911 1.398 . S
C3912 C3913 1.391 . S
C3913 H3901 0.950 . S
C3913 C3909 1.393 . S
C3913 C3912 1.391 . S
C3914 H3904 0.950 . S
C3914 C3915 1.386 . S
C3914 C3916 1.391 . S
C3915 C3914 1.386 . S
C3915 C3919 1.393 . S
C3916 H3905 0.950 . S
C3916 C3914 1.391 . S
C3916 C3917 1.400 . S
C3917 C3911 1.491 . S
C3917 C3916 1.400 . S
C3917 C3918 1.398 . S
C3918 H3906 0.950 . S
C3918 C3917 1.398 . S
C3918 C3919 1.391 . S
C3919 H3907 0.950 . S
C3919 C3915 1.393 . S
C3919 C3918 1.391 . S
H3920 C3928 0.950 . S
H3921 C3933 0.950 . S
H3922 C3930 0.950 . S
H3923 C3932 0.950 . S
H3924 C3934 0.950 . S
H3925 C3936 0.950 . S
H3926 C3938 0.950 . S
H3927 C3939 0.950 . S
C3928 H3920 0.950 . S
C3928 C3929 1.386 . S
C3928 C3930 1.391 . S
C3929 C3928 1.386 . S
C3929 C3933 1.393 . S
C3930 H3922 0.950 . S
C3930 C3928 1.391 . S
C3930 C3931 1.400 . S
C3931 C3930 1.400 . S
C3931 C3932 1.398 . S
C3931 C3937 1.491 . S
C3932 H3923 0.950 . S
C3932 C3931 1.398 . S
C3932 C3933 1.391 . S
C3933 H3921 0.950 . S
C3933 C3929 1.393 . S
C3933 C3932 1.391 . S
C3934 H3924 0.950 . S
C3934 C3935 1.386 . S
C3934 C3936 1.391 . S
C3935 C3934 1.386 . S
C3935 C3939 1.393 . S
C3936 H3925 0.950 . S
C3936 C3934 1.391 . S
C3936 C3937 1.400 . S
C3937 C3931 1.491 . S
C3937 C3936 1.400 . S
C3937 C3938 1.398 . S
C3938 H3926 0.950 . S
C3938 C3937 1.398 . S
C3938 C3939 1.391 . S
C3939 H3927 0.950 . S
C3939 C3935 1.393 . S
C3939 C3938 1.391 . S
H3940 C3948 0.950 . S
H3941 C3953 0.950 . S
H3942 C3950 0.950 . S
H3943 C3952 0.950 . S
H3944 C3954 0.950 . S
H3945 C3956 0.950 . S
H3946 C3958 0.950 . S
H3947 C3959 0.950 . S
C3948 H3940 0.950 . S
C3948 C3949 1.386 . S
C3948 C3950 1.391 . S
C3949 C3948 1.386 . S
C3949 C3953 1.393 . S
C3950 H3942 0.950 . S
C3950 C3948 1.391 . S
C3950 C3951 1.400 . S
C3951 C3950 1.400 . S
C3951 C3952 1.398 . S
C3951 C3957 1.491 . S
C3952 H3943 0.950 . S
C3952 C3951 1.398 . S
C3952 C3953 1.391 . S
C3953 H3941 0.950 . S
C3953 C3949 1.393 . S
C3953 C3952 1.391 . S
C3954 H3944 0.950 . S
C3954 C3955 1.386 . S
C3954 C3956 1.391 . S
C3955 C3954 1.386 . S
C3955 C3959 1.393 . S
C3956 H3945 0.950 . S
C3956 C3954 1.391 . S
C3956 C3957 1.400 . S
C3957 C3951 1.491 . S
C3957 C3956 1.400 . S
C3957 C3958 1.398 . S
C3958 H3946 0.950 . S
C3958 C3957 1.398 . S
C3958 C3959 1.391 . S
C3959 H3947 0.950 . S
C3959 C3955 1.393 . S
C3959 C3958 1.391 . S
H3960 C3968 0.950 . S
H3961 C3973 0.950 . S
H3962 C3970 0.950 . S
H3963 C3972 0.950 . S
H3964 C3974 0.950 . S
H3965 C3976 0.950 . S
H3966 C3978 0.950 . S
H3967 C3979 0.950 . S
C3968 H3960 0.950 . S
C3968 C3969 1.386 . S
C3968 C3970 1.391 . S
C3969 C3968 1.386 . S
C3969 C3973 1.393 . S
C3970 H3962 0.950 . S
C3970 C3968 1.391 . S
C3970 C3971 1.400 . S
C3971 C3970 1.400 . S
C3971 C3972 1.398 . S
C3971 C3977 1.491 . S
C3972 H3963 0.950 . S
C3972 C3971 1.398 . S
C3972 C3973 1.391 . S
C3973 H3961 0.950 . S
C3973 C3969 1.393 . S
C3973 C3972 1.391 . S
C3974 H3964 0.950 . S
C3974 C3975 1.386 . S
C3974 C3976 1.391 . S
C3975 C3974 1.386 . S
C3975 C3979 1.393 . S
C3976 H3965 0.950 . S
C3976 C3974 1.391 . S
C3976 C3977 1.400 . S
C3977 C3971 1.491 . S
C3977 C3976 1.400 . S
C3977 C3978 1.398 . S
C3978 H3966 0.950 . S
C3978 C3977 1.398 . S
C3978 C3979 1.391 . S
C3979 H3967 0.950 . S
C3979 C3975 1.393 . S
C3979 C3978 1.391 . S
H3980 C3988 0.950 . S
H3981 C3993 0.950 . S
H3982 C3990 0.950 . S
H3983 C3992 0.950 . S
H3984 C3994 0.950 . S
H3985 C3996 0.950 . S
H3986 C3998 0.950 . S
H3987 C3999 0.950 . S
C3988 H3980 0.950 . S
C3988 C3989 1.386 . S
C3988 C3990 1.391 . S
C3989 C3988 1.386 . S
C3989 C3993 1.393 . S
C3990 H3982 0.950 . S
C3990 C3988 1.391 . S
C3990 C3991 1.400 . S
C3991 C3990 1.400 . S
C3991 C3992 1.398 . S
C3991 C3997 1.491 . S
C3992 H3983 0.950 . S
C3992 C3991 1.398 . S
C3992 C3993 1.391 . S
C3993 H3981 0.950 . S
C3993 C3989 1.393 . S
C3993 C3992 1.391 . S
C3994 H3984 0.950 . S
C3994 C3995 1.386 . S
C3994 C3996 1.391 . S
C3995 C3994 1.386 . S
C3995 C3999 1.393 . S
C3996 H3985 0.950 . S
C3996 C3994 1.391 . S
C3996 C3997 1.400 . S
C3997 C3991 1.491 . S
C3997 C3996 1.400 . S
C3997 C3998 1.398 . S
C3998 H3986 0.950 . S
C3998 C3997 1.398 . S
C3998 C3999 1.391 . S
C3999 H3987 0.950 . S
C3999 C3995 1.393 . S
C3999 C3998 1.391 . S
H4000 C4008 0.950 . S
H4001 C4013 0.950 . S
H4002 C4010 0.950 . S
H4003 C4012 0.950 . S
H4004 C4014 0.950 . S
H4005 C4016 0.950 . S
H4006 C4018 0.950 . S
H4007 C4019 0.950 . S
C4008 H4000 0.950 . S
C4008 C4009 1.386 . S
C4008 C4010 1.391 . S
C4009 C4008 1.386 . S
C4009 C4013 1.393 . S
C4010 H4002 0.950 . S
C4010 C4008 1.391 . S
C4010 C4011 1.400 . S
C4011 C4010 1.400 . S
C4011 C4012 1.398 . S
C4011 C4017 1.491 . S
C4012 H4003 0.950 . S
C4012 C4011 1.398 . S
C4012 C4013 1.391 . S
C4013 H4001 0.950 . S
C4013 C4009 1.393 . S
C4013 C4012 1.391 . S
C4014 H4004 0.950 . S
C4014 C4015 1.386 . S
C4014 C4016 1.391 . S
C4015 C4014 1.386 . S
C4015 C4019 1.393 . S
C4016 H4005 0.950 . S
C4016 C4014 1.391 . S
C4016 C4017 1.400 . S
C4017 C4011 1.491 . S
C4017 C4016 1.400 . S
C4017 C4018 1.398 . S
C4018 H4006 0.950 . S
C4018 C4017 1.398 . S
C4018 C4019 1.391 . S
C4019 H4007 0.950 . S
C4019 C4015 1.393 . S
C4019 C4018 1.391 . S
H4020 C4028 0.950 . S
H4021 C4033 0.950 . S
H4022 C4030 0.950 . S
H4023 C4032 0.950 . S
H4024 C4034 0.950 . S
H4025 C4036 0.950 . S
H4026 C4038 0.950 . S
H4027 C4039 0.950 . S
C4028 H4020 0.950 . S
C4028 C4029 1.386 . S
C4028 C4030 1.391 . S
C4029 C4028 1.386 . S
C4029 C4033 1.393 . S
C4030 H4022 0.950 . S
C4030 C4028 1.391 . S
C4030 C4031 1.400 . S
C4031 C4030 1.400 . S
C4031 C4032 1.398 . S
C4031 C4037 1.491 . S
C4032 H4023 0.950 . S
C4032 C4031 1.398 . S
C4032 C4033 1.391 . S
C4033 H4021 0.950 . S
C4033 C4029 1.393 . S
C4033 C4032 1.391 . S
C4034 H4024 0.950 . S
C4034 C4035 1.386 . S
C4034 C4036 1.391 . S
C4035 C4034 1.386 . S
C4035 C4039 1.393 . S
C4036 H4025 0.950 . S
C4036 C4034 1.391 . S
C4036 C4037 1.400 . S
C4037 C4031 1.491 . S
C4037 C4036 1.400 . S
C4037 C4038 1.398 . S
C4038 H4026 0.950 . S
C4038 C4037 1.398 . S
C4038 C4039 1.391 . S
C4039 H4027 0.950 . S
C4039 C4035 1.393 . S
C4039 C4038 1.391 . S
H4040 C4048 0.950 . S
H4041 C4053 0.950 . S
H4042 C4050 0.950 . S
H4043 C4052 0.950 . S
H4044 C4054 0.950 . S
H4045 C4056 0.950 . S
H4046 C4058 0.950 . S
H4047 C4059 0.950 . S
C4048 H4040 0.950 . S
C4048 C4049 1.386 . S
C4048 C4050 1.391 . S
C4049 C4048 1.386 . S
C4049 C4053 1.393 . S
C4050 H4042 0.950 . S
C4050 C4048 1.391 . S
C4050 C4051 1.400 . S
C4051 C4050 1.400 . S
C4051 C4052 1.398 . S
C4051 C4057 1.491 . S
C4052 H4043 0.950 . S
C4052 C4051 1.398 . S
C4052 C4053 1.391 . S
C4053 H4041 0.950 . S
C4053 C4049 1.393 . S
C4053 C4052 1.391 . S
C4054 H4044 0.950 . S
C4054 C4055 1.386 . S
C4054 C4056 1.391 . S
C4055 C4054 1.386 . S
C4055 C4059 1.393 . S
C4056 H4045 0.950 . S
C4056 C4054 1.391 . S
C4056 C4057 1.400 . S
C4057 C4051 1.491 . S
C4057 C4056 1.400 . S
C4057 C4058 1.398 . S
C4058 H4046 0.950 . S
C4058 C4057 1.398 . S
C4058 C4059 1.391 . S
C4059 H4047 0.950 . S
C4059 C4055 1.393 . S
C4059 C4058 1.391 . S
H4060 C4068 0.950 . S
H4061 C4073 0.950 . S
H4062 C4070 0.950 . S
H4063 C4072 0.950 . S
H4064 C4074 0.950 . S
H4065 C4076 0.950 . S
H4066 C4078 0.950 . S
H4067 C4079 0.950 . S
C4068 H4060 0.950 . S
C4068 C4069 1.386 . S
C4068 C4070 1.391 . S
C4069 C4068 1.386 . S
C4069 C4073 1.393 . S
C4070 H4062 0.950 . S
C4070 C4068 1.391 . S
C4070 C4071 1.400 . S
C4071 C4070 1.400 . S
C4071 C4072 1.398 . S
C4071 C4077 1.491 . S
C4072 H4063 0.950 . S
C4072 C4071 1.398 . S
C4072 C4073 1.391 . S
C4073 H4061 0.950 . S
C4073 C4069 1.393 . S
C4073 C4072 1.391 . S
C4074 H4064 0.950 . S
C4074 C4075 1.386 . S
C4074 C4076 1.391 . S
C4075 C4074 1.386 . S
C4075 C4079 1.393 . S
C4076 H4065 0.950 . S
C4076 C4074 1.391 . S
C4076 C4077 1.400 . S
C4077 C4071 1.491 . S
C4077 C4076 1.400 . S
C4077 C4078 1.398 . S
C4078 H4066 0.950 . S
C4078 C4077 1.398 . S
C4078 C4079 1.391 . S
C4079 H4067 0.950 . S
C4079 C4075 1.393 . S
C4079 C4078 1.391 . S
H4080 C4088 0.950 . S
H4081 C4093 0.950 . S
H4082 C4090 0.950 . S
H4083 C4092 0.950 . S
H4084 C4094 0.950 . S
H4085 C4096 0.950 . S
H4086 C4098 0.950 . S
H4087 C4099 0.950 . S
C4088 H4080 0.950 . S
C4088 C4089 1.386 . S
C4088 C4090 1.391 . S
C4089 C4088 1.386 . S
C4089 C4093 1.393 . S
C4090 H4082 0.950 . S
C4090 C4088 1.391 . S
C4090 C4091 1.400 . S
C4091 C4090 1.400 . S
C4091 C4092 1.398 . S
C4091 C4097 1.491 . S
C4092 H4083 0.950 . S
C4092 C4091 1.398 . S
C4092 C4093 1.391 . S
C4093 H4081 0.950 . S
C4093 C4089 1.393 . S
C4093 C4092 1.391 . S
C4094 H4084 0.950 . S
C4094 C4095 1.386 . S
C4094 C4096 1.391 . S
C4095 C4094 1.386 . S
C4095 C4099 1.393 . S
C4096 H4085 0.950 . S
C4096 C4094 1.391 . S
C4096 C4097 1.400 . S
C4097 C4091 1.491 . S
C4097 C4096 1.400 . S
C4097 C4098 1.398 . S
C4098 H4086 0.950 . S
C4098 C4097 1.398 . S
C4098 C4099 1.391 . S
C4099 H4087 0.950 . S
C4099 C4095 1.393 . S
C4099 C4098 1.391 . S
H4100 C4108 0.950 . S
H4101 C4113 0.950 . S
H4102 C4110 0.950 . S
H4103 C4112 0.950 . S
H4104 C4114 0.950 . S
H4105 C4116 0.950 . S
H4106 C4118 0.950 . S
H4107 C4119 0.950 . S
C4108 H4100 0.950 . S
C4108 C4109 1.386 . S
C4108 C4110 1.391 . S
C4109 C4108 1.386 . S
C4109 C4113 1.393 . S
C4110 H4102 0.950 . S
C4110 C4108 1.391 . S
C4110 C4111 1.400 . S
C4111 C4110 1.400 . S
C4111 C4112 1.398 . S
C4111 C4117 1.491 . S
C4112 H4103 0.950 . S
C4112 C4111 1.398 . S
C4112 C4113 1.391 . S
C4113 H4101 0.950 . S
C4113 C4109 1.393 . S
C4113 C4112 1.391 . S
C4114 H4104 0.950 . S
C4114 C4115 1.386 . S
C4114 C4116 1.391 . S
C4115 C4114 1.386 . S
C4115 C4119 1.393 . S
C4116 H4105 0.950 . S
C4116 C4114 1.391 . S
C4116 C4117 1.400 . S
C4117 C4111 1.491 . S
C4117 C4116 1.400 . S
C4117 C4118 1.398 . S
C4118 H4106 0.950 . S
C4118 C4117 1.398 . S
C4118 C4119 1.391 . S
C4119 H4107 0.950 . S
C4119 C4115 1.393 . S
C4119 C4118 1.391 . S
H4120 C4128 0.950 . S
H4121 C4133 0.950 . S
H4122 C4130 0.950 . S
H4123 C4132 0.950 . S
H4124 C4134 0.950 . S
H4125 C4136 0.950 . S
H4126 C4138 0.950 . S
H4127 C4139 0.950 . S
C4128 H4120 0.950 . S
C4128 C4129 1.386 . S
C4128 C4130 1.391 . S
C4129 C4128 1.386 . S
C4129 C4133 1.393 . S
C4130 H4122 0.950 . S
C4130 C4128 1.391 . S
C4130 C4131 1.400 . S
C4131 C4130 1.400 . S
C4131 C4132 1.398 . S
C4131 C4137 1.491 . S
C4132 H4123 0.950 . S
C4132 C4131 1.398 . S
C4132 C4133 1.391 . S
C4133 H4121 0.950 . S
C4133 C4129 1.393 . S
C4133 C4132 1.391 . S
C4134 H4124 0.950 . S
C4134 C4135 1.386 . S
C4134 C4136 1.391 1_455 S
C4135 C4134 1.386 . S
C4135 C4139 1.393 . S
C4136 H4125 0.950 . S
C4136 C4134 1.391 1_655 S
C4136 C4137 1.400 . S
C4137 C4131 1.491 . S
C4137 C4136 1.400 . S
C4137 C4138 1.398 1_655 S
C4138 H4126 0.950 . S
C4138 C4137 1.398 1_455 S
C4138 C4139 1.391 . S
C4139 H4127 0.950 . S
C4139 C4135 1.393 . S
C4139 C4138 1.391 . S
H4140 C4148 0.950 . S
H4141 C4153 0.950 . S
H4142 C4150 0.950 . S
H4143 C4152 0.950 . S
H4144 C4154 0.950 . S
H4145 C4156 0.950 . S
H4146 C4158 0.950 . S
H4147 C4159 0.950 . S
C4148 H4140 0.950 . S
C4148 C4149 1.386 . S
C4148 C4150 1.391 . S
C4149 C4148 1.386 . S
C4149 C4153 1.393 . S
C4150 H4142 0.950 . S
C4150 C4148 1.391 . S
C4150 C4151 1.400 . S
C4151 C4150 1.400 . S
C4151 C4152 1.398 . S
C4151 C4157 1.491 . S
C4152 H4143 0.950 . S
C4152 C4151 1.398 . S
C4152 C4153 1.391 . S
C4153 H4141 0.950 . S
C4153 C4149 1.393 . S
C4153 C4152 1.391 . S
C4154 H4144 0.950 . S
C4154 C4155 1.386 . S
C4154 C4156 1.391 . S
C4155 C4154 1.386 . S
C4155 C4159 1.393 . S
C4156 H4145 0.950 . S
C4156 C4154 1.391 . S
C4156 C4157 1.400 . S
C4157 C4151 1.491 . S
C4157 C4156 1.400 . S
C4157 C4158 1.398 . S
C4158 H4146 0.950 . S
C4158 C4157 1.398 . S
C4158 C4159 1.391 . S
C4159 H4147 0.950 . S
C4159 C4155 1.393 . S
C4159 C4158 1.391 . S
H4160 C4168 0.950 . S
H4161 C4173 0.950 . S
H4162 C4170 0.950 . S
H4163 C4172 0.950 . S
H4164 C4174 0.950 . S
H4165 C4176 0.950 . S
H4166 C4178 0.950 . S
H4167 C4179 0.950 . S
C4168 H4160 0.950 . S
C4168 C4169 1.386 . S
C4168 C4170 1.391 . S
C4169 C4168 1.386 . S
C4169 C4173 1.393 . S
C4170 H4162 0.950 . S
C4170 C4168 1.391 . S
C4170 C4171 1.400 . S
C4171 C4170 1.400 . S
C4171 C4172 1.398 . S
C4171 C4177 1.491 . S
C4172 H4163 0.950 . S
C4172 C4171 1.398 . S
C4172 C4173 1.391 . S
C4173 H4161 0.950 . S
C4173 C4169 1.393 . S
C4173 C4172 1.391 . S
C4174 H4164 0.950 . S
C4174 C4175 1.386 . S
C4174 C4176 1.391 . S
C4175 C4174 1.386 . S
C4175 C4179 1.393 . S
C4176 H4165 0.950 . S
C4176 C4174 1.391 . S
C4176 C4177 1.400 . S
C4177 C4171 1.491 . S
C4177 C4176 1.400 . S
C4177 C4178 1.398 . S
C4178 H4166 0.950 . S
C4178 C4177 1.398 . S
C4178 C4179 1.391 . S
C4179 H4167 0.950 . S
C4179 C4175 1.393 . S
C4179 C4178 1.391 . S
H4180 C4188 0.950 . S
H4181 C4193 0.950 . S
H4182 C4190 0.950 . S
H4183 C4192 0.950 . S
H4184 C4194 0.950 . S
H4185 C4196 0.950 . S
H4186 C4198 0.950 . S
H4187 C4199 0.950 . S
C4188 H4180 0.950 . S
C4188 C4189 1.386 . S
C4188 C4190 1.391 . S
C4189 C4188 1.386 . S
C4189 C4193 1.393 . S
C4190 H4182 0.950 . S
C4190 C4188 1.391 . S
C4190 C4191 1.400 . S
C4191 C4190 1.400 . S
C4191 C4192 1.398 . S
C4191 C4197 1.491 . S
C4192 H4183 0.950 . S
C4192 C4191 1.398 . S
C4192 C4193 1.391 . S
C4193 H4181 0.950 . S
C4193 C4189 1.393 . S
C4193 C4192 1.391 . S
C4194 H4184 0.950 . S
C4194 C4195 1.386 . S
C4194 C4196 1.391 . S
C4195 C4194 1.386 . S
C4195 C4199 1.393 . S
C4196 H4185 0.950 . S
C4196 C4194 1.391 . S
C4196 C4197 1.400 . S
C4197 C4191 1.491 . S
C4197 C4196 1.400 . S
C4197 C4198 1.398 . S
C4198 H4186 0.950 . S
C4198 C4197 1.398 . S
C4198 C4199 1.391 . S
C4199 H4187 0.950 . S
C4199 C4195 1.393 . S
C4199 C4198 1.391 . S
H4200 C4208 0.950 . S
H4201 C4213 0.950 . S
H4202 C4210 0.950 . S
H4203 C4212 0.950 . S
H4204 C4214 0.950 . S
H4205 C4216 0.950 . S
H4206 C4218 0.950 . S
H4207 C4219 0.950 . S
C4208 H4200 0.950 . S
C4208 C4209 1.386 . S
C4208 C4210 1.391 . S
C4209 C4208 1.386 . S
C4209 C4213 1.393 . S
C4210 H4202 0.950 . S
C4210 C4208 1.391 . S
C4210 C4211 1.400 . S
C4211 C4210 1.400 . S
C4211 C4212 1.398 . S
C4211 C4217 1.491 . S
C4212 H4203 0.950 . S
C4212 C4211 1.398 . S
C4212 C4213 1.391 . S
C4213 H4201 0.950 . S
C4213 C4209 1.393 . S
C4213 C4212 1.391 . S
C4214 H4204 0.950 . S
C4214 C4215 1.386 . S
C4214 C4216 1.391 . S
C4215 C4214 1.386 . S
C4215 C4219 1.393 . S
C4216 H4205 0.950 . S
C4216 C4214 1.391 . S
C4216 C4217 1.400 . S
C4217 C4211 1.491 . S
C4217 C4216 1.400 . S
C4217 C4218 1.398 . S
C4218 H4206 0.950 . S
C4218 C4217 1.398 . S
C4218 C4219 1.391 . S
C4219 H4207 0.950 . S
C4219 C4215 1.393 . S
C4219 C4218 1.391 . S
H4220 C4228 0.950 . S
H4221 C4233 0.950 . S
H4222 C4230 0.950 . S
H4223 C4232 0.950 . S
H4224 C4234 0.950 . S
H4225 C4236 0.950 . S
H4226 C4238 0.950 . S
H4227 C4239 0.950 . S
C4228 H4220 0.950 . S
C4228 C4229 1.386 . S
C4228 C4230 1.391 . S
C4229 C4228 1.386 . S
C4229 C4233 1.393 . S
C4230 H4222 0.950 . S
C4230 C4228 1.391 . S
C4230 C4231 1.400 . S
C4231 C4230 1.400 . S
C4231 C4232 1.398 . S
C4231 C4237 1.491 . S
C4232 H4223 0.950 . S
C4232 C4231 1.398 . S
C4232 C4233 1.391 . S
C4233 H4221 0.950 . S
C4233 C4229 1.393 . S
C4233 C4232 1.391 . S
C4234 H4224 0.950 . S
C4234 C4235 1.386 . S
C4234 C4236 1.391 . S
C4235 C4234 1.386 . S
C4235 C4239 1.393 . S
C4236 H4225 0.950 . S
C4236 C4234 1.391 . S
C4236 C4237 1.400 . S
C4237 C4231 1.491 . S
C4237 C4236 1.400 . S
C4237 C4238 1.398 . S
C4238 H4226 0.950 . S
C4238 C4237 1.398 . S
C4238 C4239 1.391 . S
C4239 H4227 0.950 . S
C4239 C4235 1.393 . S
C4239 C4238 1.391 . S
H4240 C4248 0.950 . S
H4241 C4253 0.950 . S
H4242 C4250 0.950 . S
H4243 C4252 0.950 . S
H4244 C4254 0.950 . S
H4245 C4256 0.950 . S
H4246 C4258 0.950 . S
H4247 C4259 0.950 . S
C4248 H4240 0.950 . S
C4248 C4249 1.386 . S
C4248 C4250 1.391 . S
C4249 C4248 1.386 . S
C4249 C4253 1.393 . S
C4250 H4242 0.950 . S
C4250 C4248 1.391 . S
C4250 C4251 1.400 . S
C4251 C4250 1.400 . S
C4251 C4252 1.398 . S
C4251 C4257 1.491 . S
C4252 H4243 0.950 . S
C4252 C4251 1.398 . S
C4252 C4253 1.391 . S
C4253 H4241 0.950 . S
C4253 C4249 1.393 . S
C4253 C4252 1.391 . S
C4254 H4244 0.950 . S
C4254 C4255 1.386 . S
C4254 C4256 1.391 . S
C4255 C4254 1.386 . S
C4255 C4259 1.393 . S
C4256 H4245 0.950 . S
C4256 C4254 1.391 . S
C4256 C4257 1.400 . S
C4257 C4251 1.491 . S
C4257 C4256 1.400 . S
C4257 C4258 1.398 . S
C4258 H4246 0.950 . S
C4258 C4257 1.398 . S
C4258 C4259 1.391 . S
C4259 H4247 0.950 . S
C4259 C4255 1.393 . S
C4259 C4258 1.391 . S
H4260 C4268 0.950 . S
H4261 C4273 0.950 . S
H4262 C4270 0.950 . S
H4263 C4272 0.950 . S
H4264 C4274 0.950 . S
H4265 C4276 0.950 . S
H4266 C4278 0.950 . S
H4267 C4279 0.950 . S
C4268 H4260 0.950 . S
C4268 C4269 1.386 . S
C4268 C4270 1.391 . S
C4269 C4268 1.386 . S
C4269 C4273 1.393 . S
C4270 H4262 0.950 . S
C4270 C4268 1.391 . S
C4270 C4271 1.400 . S
C4271 C4270 1.400 . S
C4271 C4272 1.398 . S
C4271 C4277 1.491 . S
C4272 H4263 0.950 . S
C4272 C4271 1.398 . S
C4272 C4273 1.391 . S
C4273 H4261 0.950 . S
C4273 C4269 1.393 . S
C4273 C4272 1.391 . S
C4274 H4264 0.950 . S
C4274 C4275 1.386 . S
C4274 C4276 1.391 . S
C4275 C4274 1.386 . S
C4275 C4279 1.393 . S
C4276 H4265 0.950 . S
C4276 C4274 1.391 . S
C4276 C4277 1.400 . S
C4277 C4271 1.491 . S
C4277 C4276 1.400 . S
C4277 C4278 1.398 . S
C4278 H4266 0.950 . S
C4278 C4277 1.398 . S
C4278 C4279 1.391 . S
C4279 H4267 0.950 . S
C4279 C4275 1.393 . S
C4279 C4278 1.391 . S
H4280 C4288 0.950 1_565 S
H4281 C4293 0.950 . S
H4282 C4290 0.950 . S
H4283 C4292 0.950 . S
H4284 C4294 0.950 . S
H4285 C4296 0.950 . S
H4286 C4298 0.950 . S
H4287 C4299 0.950 . S
C4288 H4280 0.950 1_545 S
C4288 C4289 1.386 . S
C4288 C4290 1.391 . S
C4289 C4288 1.386 . S
C4289 C4293 1.393 . S
C4290 H4282 0.950 . S
C4290 C4288 1.391 . S
C4290 C4291 1.400 . S
C4291 C4290 1.400 . S
C4291 C4292 1.398 . S
C4291 C4297 1.491 . S
C4292 H4283 0.950 . S
C4292 C4291 1.398 . S
C4292 C4293 1.391 . S
C4293 H4281 0.950 . S
C4293 C4289 1.393 . S
C4293 C4292 1.391 . S
C4294 H4284 0.950 . S
C4294 C4295 1.386 . S
C4294 C4296 1.391 . S
C4295 C4294 1.386 . S
C4295 C4299 1.393 . S
C4296 H4285 0.950 . S
C4296 C4294 1.391 . S
C4296 C4297 1.400 . S
C4297 C4291 1.491 . S
C4297 C4296 1.400 . S
C4297 C4298 1.398 . S
C4298 H4286 0.950 . S
C4298 C4297 1.398 . S
C4298 C4299 1.391 . S
C4299 H4287 0.950 . S
C4299 C4295 1.393 . S
C4299 C4298 1.391 . S
H4300 C4308 0.950 . S
H4301 C4313 0.950 . S
H4302 C4310 0.950 . S
H4303 C4312 0.950 . S
H4304 C4314 0.950 . S
H4305 C4316 0.950 . S
H4306 C4318 0.950 . S
H4307 C4319 0.950 . S
C4308 H4300 0.950 . S
C4308 C4309 1.386 . S
C4308 C4310 1.391 . S
C4309 C4308 1.386 . S
C4309 C4313 1.393 . S
C4310 H4302 0.950 . S
C4310 C4308 1.391 . S
C4310 C4311 1.400 . S
C4311 C4310 1.400 . S
C4311 C4312 1.398 . S
C4311 C4317 1.491 . S
C4312 H4303 0.950 . S
C4312 C4311 1.398 . S
C4312 C4313 1.391 . S
C4313 H4301 0.950 . S
C4313 C4309 1.393 . S
C4313 C4312 1.391 . S
C4314 H4304 0.950 . S
C4314 C4315 1.386 . S
C4314 C4316 1.391 . S
C4315 C4314 1.386 . S
C4315 C4319 1.393 . S
C4316 H4305 0.950 . S
C4316 C4314 1.391 . S
C4316 C4317 1.400 . S
C4317 C4311 1.491 . S
C4317 C4316 1.400 . S
C4317 C4318 1.398 . S
C4318 H4306 0.950 . S
C4318 C4317 1.398 . S
C4318 C4319 1.391 . S
C4319 H4307 0.950 . S
C4319 C4315 1.393 . S
C4319 C4318 1.391 . S
C1449 C491 1.563 . S
C1455 C530 1.663 . S
C1469 C271 1.575 . S
C1475 C549 1.618 . S
C1495 C568 1.512 . S
C1489 C513 1.469 . S
C1509 C293 1.745 . S
C1515 C587 1.681 . S
C1529 C524 1.659 . S
C1535 C606 1.713 . S
C1549 C260 1.534 . S
C1555 C625 1.611 . S
C1569 C502 1.593 . S
C1575 C644 1.648 . S
C1589 C282 1.375 . S
C1595 C663 1.417 . S
C1609 C183 1.551 . S
C1615 C682 1.586 . S
C1629 C447 1.323 . S
C1635 C701 1.278 . S
C1649 C205 1.608 . S
C1655 C720 1.595 . S
C1669 C436 1.525 . S
C1675 C739 1.506 . S
C1689 C249 1.443 . S
C1695 C758 1.439 . S
C1715 C777 1.747 . S
C1709 C458 1.697 . S
C1735 C796 1.801 . S
C1729 C227 1.726 . S
C1749 C315 1.317 . S
C1755 C815 1.374 . S
C1775 C834 1.691 . S
C1769 C216 1.648 . S
C1795 C853 1.519 . S
C1789 C469 1.465 . S
C1809 C238 1.349 . S
C1815 C872 1.440 . S
C1829 C326 1.647 . S
C1835 C891 1.647 . S
C1855 C910 1.481 . S
C1849 C304 1.437 . S
C1869 C392 1.463 . S
C1875 C929 1.430 . S
C1895 C948 1.819 . S
C1889 C106 1.738 . S
C1915 C967 1.577 . S
C1909 C414 1.609 . S
C1935 C986 1.625 . S
C1929 C128 1.603 . S
C1955 C1005 1.620 . S
C1949 C425 1.597 . S
C1969 C95 1.376 . S
C1975 C1024 1.355 . S
C1995 C1043 1.667 . S
C1989 C403 1.700 . S
C2009 C117 1.589 . S
C2015 C1062 1.564 . S
C2035 C1081 1.565 . S
C2029 C18 1.579 . S
C2055 C1100 1.575 . S
C2049 C348 1.606 . S
C2069 C40 1.461 . S
C2075 C1119 1.520 . S
C2095 C1138 1.376 . S
C2089 C337 1.374 . S
C2115 C1157 1.468 . S
C2109 C84 1.502 . S
C2129 C359 1.524 . S
C2135 C1176 1.517 . S
C2155 C1195 1.384 . S
C2149 C62 1.431 . S
C2175 C1214 1.700 . S
C2169 C150 1.616 . S
C2189 C51 1.566 . S
C2195 C1233 1.548 . S
C2215 C1252 1.298 . S
C2209 C370 1.315 . S
C2229 C73 1.591 . S
C2235 C1271 1.669 . S
C2255 C1290 1.442 . S
C2249 C161 1.447 . S
C2269 C139 1.554 . S
C2275 C1309 1.527 . S
C2289 C194 1.383 . S
C2295 C1328 1.339 . S
C2315 C1347 1.376 . S
C2309 C172 1.367 . S
C2329 C480 1.461 . S
C2335 C1366 1.454 . S
C2349 C29 1.559 . S
C2355 C1385 1.562 . S
C2375 C1404 1.270 . S
C2369 C7 1.255 . S
C2395 C1423 1.408 . S
C2389 C381 1.444 . S
C2409 C368 1.511 . S
C2415 C534 1.672 . S
C2429 C151 1.636 . S
C2435 C558 1.663 . S
C2449 C379 1.527 . S
C2455 C572 1.658 . S
C2475 C591 1.694 . S
C2469 C360 1.698 . S
C2489 C159 1.293 . S
C2495 C615 1.440 . S
C2509 C338 1.548 . S
C2515 C634 1.462 . S
C2535 C648 1.892 . S
C2529 C140 1.908 1_556 S
C2549 C346 1.480 . S
C2555 C672 1.521 . S
C2569 C349 1.587 . S
C2575 C686 1.554 . S
C2595 C710 1.480 . S
C2589 C162 1.564 . S
C2609 C335 1.614 . S
C2615 C724 1.716 . S
C2635 C748 1.612 . S
C2629 C137 1.562 . S
C2649 C148 1.326 . S
C2655 C767 1.498 . S
C2669 C382 1.694 . S
C2675 C781 1.692 . S
C2695 C805 1.608 . S
C2689 C357 1.556 . S
C2715 C819 1.665 . S
C2709 C371 1.674 . S
C2729 C129 1.716 . S
C2735 C743 1.733 . S
C2749 C393 1.566 . S
C2755 C843 1.415 . S
C2769 C401 1.605 . S
C2775 C857 1.738 . S
C2795 C881 1.691 . S
C2789 C412 1.619 . S
C2815 C762 1.762 . S
C2809 C126 1.483 . S
C2829 C107 1.724 . S
C2835 C705 1.763 . S
C2849 C415 1.589 . S
C2855 C900 1.422 . S
C2875 C919 1.627 . S
C2869 C390 1.558 . S
C2895 C933 1.562 . S
C2889 C467 1.257 . S
C2909 C316 1.790 . S
C2915 C952 1.849 . S
C2935 C976 1.422 . S
C2929 C478 1.306 . S
C2955 C990 1.874 . S
C2949 C459 1.812 . S
C2969 C324 1.620 . S
C2975 C1014 1.618 . S
C2989 C434 1.499 . S
C2995 C1033 1.648 . S
C3009 C305 1.517 . S
C3015 C1047 1.564 . S
C3035 C1066 1.603 . S
C3029 C448 1.615 . S
C3055 C1085 1.603 . S
C3049 C445 1.388 . S
C3069 C327 1.600 . S
C3075 C1109 1.437 . S
C3095 C1123 1.540 . S
C3089 C437 1.564 . S
C3109 C302 1.281 . S
C3115 C1147 1.476 . S
C3135 C1166 1.498 . S
C3129 C313 1.302 . S
C3149 C481 1.536 . S
C3155 C1180 1.508 . S
C3175 C1204 1.537 . S
C3169 C456 1.361 . S
C3189 C470 1.476 . S
C3195 C1223 1.442 . S
C3209 C294 1.774 . S
C3215 C1142 1.754 . S
C3229 C492 1.627 . S
C3235 C1242 1.617 . S
C3249 C500 1.322 . S
C3255 C1256 1.700 . S
C3275 C1275 1.626 . S
C3269 C514 1.595 . S
C3289 C291 1.683 . S
C3295 C1161 1.753 . S
C3309 C272 1.844 . S
C3315 C1104 1.910 . S
C3335 C1299 1.589 . S
C3329 C511 1.272 . S
C3349 C489 1.192 . S
C3355 C1318 1.555 . S
C3375 C629 1.575 . S
C3369 C60 1.451 . S
C3395 C653 1.689 . S
C3389 C74 1.630 . S
C3415 C667 1.649 . S
C3409 C82 1.524 . S
C3435 C610 1.644 . S
C3429 C52 1.649 . S
C3455 C596 1.460 . S
C3449 C38 1.316 . S
C3469 C8 1.528 . S
C3475 C539 1.447 . S
C3489 C19 1.928 . S
C3495 C553 1.909 . S
C3509 C27 1.500 . S
C3515 C577 1.566 . S
C3529 C30 1.582 . S
C3535 C914 1.554 . S
C3549 C41 1.567 . S
C3555 C1337 1.473 . S
C3569 C5 1.492 . S
C3575 C895 1.653 . S
C3589 C16 1.491 . S
C3595 C1356 1.556 . S
C3609 C71 1.324 . S
C3615 C1375 1.505 . S
C3635 C838 1.681 . S
C3629 C85 1.686 . S
C3649 C49 1.519 . S
C3655 C862 1.578 . S
C3669 C63 1.602 . S
C3675 C876 1.578 . S
C3695 C1351 1.633 . S
C3689 C426 1.623 . S
C3709 C96 1.551 . S
C3715 C786 1.419 . S
C3729 C104 1.638 . S
C3735 C800 2.072 . S
C3749 C115 1.534 . S
C3755 C824 1.597 . S
C3775 C1370 1.735 . S
C3769 C423 1.421 . S
C3795 C1332 1.693 . S
C3789 C404 1.694 . S
C3815 C729 1.414 . S
C3809 C118 1.598 . S
C3829 C93 1.667 . S
C3835 C691 1.766 . S
C3849 C225 1.337 . S
C3855 C1028 1.714 . S
C3869 C239 1.633 . S
C3875 C1052 1.534 . S
C3889 C247 1.258 . S
C3895 C1071 1.355 . S
C3909 C217 1.825 . S
C3915 C1009 1.866 . S
C3935 C995 1.579 . S
C3929 C203 1.589 . S
C3955 C938 1.540 . S
C3949 C170 1.332 . S
C3975 C957 1.259 . S
C3969 C184 1.316 . S
C3989 C195 1.666 . S
C3995 C971 1.646 . S
C4015 C1313 1.648 . S
C4009 C192 1.496 . S
C4029 C206 1.561 . S
C4035 C1394 1.416 . S
C4049 C173 1.450 . S
C4055 C1294 1.413 . S
C4075 C1413 1.408 . S
C4069 C181 1.191 . S
C4089 C236 1.270 . S
C4095 C1432 1.521 . S
C4115 C1237 1.474 . S
C4109 C250 1.482 . S
C4129 C214 1.277 . S
C4135 C1261 1.504 . S
C4149 C228 1.550 . S
C4155 C1280 1.518 . S
C4169 C522 1.402 . S
C4175 C1408 1.768 . S
C4195 C1185 1.506 . S
C4189 C261 1.520 . S
C4209 C269 1.371 . S
C4215 C1199 1.737 . S
C4229 C283 1.587 . S
C4235 C1218 1.640 . S
C4249 C525 1.703 . S
C4255 C1427 1.740 . S
C4269 C503 1.775 . S
C4275 C1389 1.852 . S
C4295 C1128 1.635 . S
C4289 C280 1.268 . S
C4315 C1090 1.480 . S
C4309 C258 1.154 . S
