# Generated by pormake.
# Topology zzz, (3,6)-cn, num edge types: 1
# Building blocks:
#     Node 0, Type 0, BuildingBlock: MIDCAF_clean_linker_0, # of connection points: 3
#     Node 1, Type 0, BuildingBlock: MIDCAF_clean_linker_0, # of connection points: 3
#     Node 2, Type 0, BuildingBlock: MIDCAF_clean_linker_0, # of connection points: 3
#     Node 3, Type 0, BuildingBlock: MIDCAF_clean_linker_0, # of connection points: 3
#     Node 4, Type 0, BuildingBlock: MIDCAF_clean_linker_0, # of connection points: 3
#     Node 5, Type 0, BuildingBlock: MIDCAF_clean_linker_0, # of connection points: 3
#     Node 6, Type 0, BuildingBlock: MIDCAF_clean_linker_0, # of connection points: 3
#     Node 7, Type 0, BuildingBlock: MIDCAF_clean_linker_0, # of connection points: 3
#     Node 8, Type 1, BuildingBlock: HISSIN_clean_sbu_0, # of connection points: 6
#     Node 9, Type 1, BuildingBlock: HISSIN_clean_sbu_0, # of connection points: 6
#     Node 10, Type 1, BuildingBlock: HISSIN_clean_sbu_0, # of connection points: 6
#     Node 11, Type 1, BuildingBlock: HISSIN_clean_sbu_0, # of connection points: 6
#     Edge 12, Type (0, 1), BuildingBlock: ZUJKAS_clean_linker_0, # of connection points: 2
#     Edge 13, Type (0, 1), BuildingBlock: ZUJKAS_clean_linker_0, # of connection points: 2
#     Edge 14, Type (0, 1), BuildingBlock: ZUJKAS_clean_linker_0, # of connection points: 2
#     Edge 15, Type (0, 1), BuildingBlock: ZUJKAS_clean_linker_0, # of connection points: 2
#     Edge 16, Type (0, 1), BuildingBlock: ZUJKAS_clean_linker_0, # of connection points: 2
#     Edge 17, Type (0, 1), BuildingBlock: ZUJKAS_clean_linker_0, # of connection points: 2
#     Edge 18, Type (0, 1), BuildingBlock: ZUJKAS_clean_linker_0, # of connection points: 2
#     Edge 19, Type (0, 1), BuildingBlock: ZUJKAS_clean_linker_0, # of connection points: 2
#     Edge 20, Type (0, 1), BuildingBlock: ZUJKAS_clean_linker_0, # of connection points: 2
#     Edge 21, Type (0, 1), BuildingBlock: ZUJKAS_clean_linker_0, # of connection points: 2
#     Edge 22, Type (0, 1), BuildingBlock: ZUJKAS_clean_linker_0, # of connection points: 2
#     Edge 23, Type (0, 1), BuildingBlock: ZUJKAS_clean_linker_0, # of connection points: 2
#     Edge 24, Type (0, 1), BuildingBlock: ZUJKAS_clean_linker_0, # of connection points: 2
#     Edge 25, Type (0, 1), BuildingBlock: ZUJKAS_clean_linker_0, # of connection points: 2
#     Edge 26, Type (0, 1), BuildingBlock: ZUJKAS_clean_linker_0, # of connection points: 2
#     Edge 27, Type (0, 1), BuildingBlock: ZUJKAS_clean_linker_0, # of connection points: 2
#     Edge 28, Type (0, 1), BuildingBlock: ZUJKAS_clean_linker_0, # of connection points: 2
#     Edge 29, Type (0, 1), BuildingBlock: ZUJKAS_clean_linker_0, # of connection points: 2
#     Edge 30, Type (0, 1), BuildingBlock: ZUJKAS_clean_linker_0, # of connection points: 2
#     Edge 31, Type (0, 1), BuildingBlock: ZUJKAS_clean_linker_0, # of connection points: 2
#     Edge 32, Type (0, 1), BuildingBlock: ZUJKAS_clean_linker_0, # of connection points: 2
#     Edge 33, Type (0, 1), BuildingBlock: ZUJKAS_clean_linker_0, # of connection points: 2
#     Edge 34, Type (0, 1), BuildingBlock: ZUJKAS_clean_linker_0, # of connection points: 2
#     Edge 35, Type (0, 1), BuildingBlock: ZUJKAS_clean_linker_0, # of connection points: 2
# Relax obj value: 0.359
# Max RMSD: 0.210
# Mean RMSD: 0.189
data_MOF--net-zzz--node1-HISSIN_clean_sbu_0--node2-MIDCAF_clean_linker_0--edge1-ZUJKAS_clean_linker_0
_symmetry_space_group_name_H-M    P1
_symmetry_Int_Tables_number       1
_symmetry_cell_setting            triclinic
loop_
_symmetry_equiv_pos_as_xyz
'x, y, z'
_cell_length_a     69.537413
_cell_length_b     70.17122
_cell_length_c     26.7563
_cell_angle_alpha  89.538006
_cell_angle_beta   91.90421
_cell_angle_gamma 91.877668
loop_
_atom_site_label
_atom_site_type_symbol
_atom_site_fract_x
_atom_site_fract_y
_atom_site_fract_z
_atom_type_partial_charge
C0 C 0.78643 0.57465 0.3537 0.0
C1 C 0.79342 0.55605 0.35601 0.0
C2 C 0.78501 0.54222 0.32336 0.0
C3 C 0.77122 0.54732 0.2866 0.0
H4 H 0.71136 0.54033 0.18393 0.0
H5 H 0.68112 0.5307 0.13937 0.0
H6 H 0.67835 0.58683 0.07275 0.0
H7 H 0.70832 0.59628 0.11646 0.0
H8 H 0.7553 0.59844 0.05952 0.0
H9 H 0.77984 0.60439 0.99793 0.0
H10 H 0.82361 0.60704 0.11629 0.0
H11 H 0.79921 0.6016 0.17779 0.0
H12 H 0.769 0.59455 0.31318 0.0
H13 H 0.79215 0.58558 0.37895 0.0
H14 H 0.79007 0.52779 0.3237 0.0
H15 H 0.76616 0.53681 0.25936 0.0
N16 N 0.73876 0.5678 0.21828 0.0
N17 N 0.74342 0.58523 0.14383 0.0
N18 N 0.76823 0.5841 0.20452 0.0
C19 C 0.73181 0.5743 0.17314 0.0
C20 C 0.76169 0.5901 0.15904 0.0
C21 C 0.75696 0.57313 0.23434 0.0
C22 C 0.7122 0.56903 0.15354 0.0
C23 C 0.70402 0.55067 0.16057 0.0
C24 C 0.68683 0.54513 0.1348 0.0
C25 C 0.67737 0.55801 0.1025 0.0
C26 C 0.68514 0.57663 0.09767 0.0
C27 C 0.70238 0.58202 0.12256 0.0
C28 C 0.77534 0.59892 0.12356 0.0
C29 C 0.77007 0.60089 0.07261 0.0
C30 C 0.78415 0.60424 0.03721 0.0
C31 C 0.80372 0.60571 0.0521 0.0
C32 C 0.80869 0.60597 0.10343 0.0
C33 C 0.79464 0.60265 0.1388 0.0
C34 C 0.76566 0.5663 0.2818 0.0
C35 C 0.77291 0.57976 0.31662 0.0
C36 C 0.96369 0.79125 0.32022 0.0
C37 C 0.98295 0.79671 0.33168 0.0
C38 C 0.99759 0.78665 0.30912 0.0
C39 C 0.99299 0.77216 0.27416 0.0
H40 H 0.95562 0.69526 0.15793 0.0
H41 H 0.9653 0.66866 0.10726 0.0
H42 H 0.01697 0.70055 0.06883 0.0
H43 H 1.00707 0.72722 0.11985 0.0
H44 H 0.94867 0.74933 0.03946 0.0
H45 H 0.93863 0.77243 0.97748 0.0
H46 H 0.91262 0.80514 0.09219 0.0
H47 H 0.92374 0.78233 0.15501 0.0
H48 H 0.94412 0.77396 0.27541 0.0
H49 H 0.95199 0.79873 0.33616 0.0
H50 H 0.01259 0.79033 0.31741 0.0
H51 H 1.0045 0.76538 0.25546 0.0
N52 N 0.97737 0.74002 0.20314 0.0
N53 N 0.95821 0.73809 0.12886 0.0
N54 N 0.95449 0.7632 0.18394 0.0
C55 C 0.97188 0.73069 0.15997 0.0
C56 C 0.94948 0.75436 0.14045 0.0
C57 C 0.96828 0.75625 0.21556 0.0
C58 C 0.98083 0.71308 0.14375 0.0
C59 C 0.96945 0.69621 0.1404 0.0
C60 C 0.97497 0.68101 0.11105 0.0
C61 C 0.99186 0.68247 0.0835 0.0
C62 C 1.00379 0.699 0.08914 0.0
C63 C 0.99832 0.71415 0.11902 0.0
C64 C 0.93762 0.76439 0.10236 0.0
C65 C 0.94027 0.7611 0.0514 0.0
C66 C 0.93433 0.7744 0.01556 0.0
C67 C 0.92535 0.7911 0.02993 0.0
C68 C 0.92014 0.79282 0.08004 0.0
C69 C 0.92643 0.77969 0.11606 0.0
C70 C 0.97368 0.76767 0.26069 0.0
C71 C 0.95914 0.77703 0.28517 0.0
C72 C 0.74088 0.98224 0.32902 0.0
C73 C 0.72763 0.99602 0.31356 0.0
C74 C 0.73048 0.00554 0.26767 0.0
C75 C 0.74533 1.00046 0.23658 0.0
H76 H 0.80802 0.0082 0.13647 0.0
H77 H 0.83578 0.01647 0.08487 0.0
H78 H 0.84854 0.95679 0.07593 0.0
H79 H 0.82124 0.94873 0.12709 0.0
H80 H 0.77803 0.92715 0.07888 0.0
H81 H 0.75697 0.91191 0.01552 0.0
H82 H 0.70745 0.92793 0.09753 0.0
H83 H 0.72832 0.94196 0.16138 0.0
H84 H 0.76452 0.96527 0.30874 0.0
H85 H 0.73907 0.97445 0.36373 0.0
H86 H 0.72068 0.01636 0.25474 0.0
H87 H 0.74624 0.007 0.19987 0.0
N88 N 0.78544 0.9819 0.19463 0.0
N89 N 0.78419 0.95648 0.13748 0.0
N90 N 0.75874 0.96035 0.19067 0.0
C91 C 0.79377 0.9719 0.15773 0.0
C92 C 0.76666 0.95067 0.15338 0.0
C93 C 0.76796 0.97573 0.21181 0.0
C94 C 0.81246 0.97782 0.13596 0.0
C95 C 0.81713 0.99697 0.12457 0.0
C96 C 0.83288 1.00166 0.09448 0.0
C97 C 0.84441 0.98729 0.07589 0.0
C98 C 0.84022 0.96829 0.08981 0.0
C99 C 0.82447 0.96364 0.11913 0.0
C100 C 0.75483 0.93648 0.12416 0.0
C101 C 0.76264 0.92681 0.08412 0.0
C102 C 0.75053 0.91814 0.04759 0.0
C103 C 0.7304 0.91933 0.04993 0.0
C104 C 0.72279 0.92669 0.09367 0.0
C105 C 0.73488 0.93503 0.13049 0.0
C106 C 0.75768 0.98578 0.25068 0.0
C107 C 0.75561 0.97706 0.29771 0.0
C108 C 0.4304 0.72469 0.08598 0.0
C109 C 0.42731 0.72967 0.03543 0.0
C110 C 0.43523 0.74703 0.01779 0.0
C111 C 0.44736 0.75833 0.04889 0.0
H112 H 0.47254 0.81568 0.09564 0.0
H113 H 0.48472 0.84271 0.04791 0.0
H114 H 0.54288 0.82433 0.07469 0.0
H115 H 0.53041 0.79684 0.1231 0.0
H116 H 0.52838 0.75331 0.22164 0.0
H117 H 0.53866 0.73085 0.2877 0.0
H118 H 0.47967 0.72351 0.33187 0.0
H119 H 0.46962 0.74565 0.26666 0.0
H120 H 0.44542 0.73114 0.15504 0.0
H121 H 0.42417 0.71158 0.10089 0.0
H122 H 0.4332 0.75123 0.97898 0.0
H123 H 0.45412 0.77105 0.0332 0.0
N124 N 0.47626 0.77838 0.11036 0.0
N125 N 0.49985 0.77747 0.17552 0.0
N126 N 0.47504 0.75386 0.16959 0.0
C127 C 0.49217 0.78622 0.13397 0.0
C128 C 0.49097 0.76133 0.19385 0.0
C129 C 0.46768 0.76215 0.12763 0.0
C130 C 0.50052 0.80414 0.11305 0.0
C131 C 0.48797 0.81756 0.09222 0.0
C132 C 0.49499 0.83316 0.06503 0.0
C133 C 0.5148 0.83574 0.05738 0.0
C134 C 0.52752 0.82268 0.07973 0.0
C135 C 0.52044 0.80708 0.1078 0.0
C136 C 0.49822 0.7512 0.23908 0.0
C137 C 0.51779 0.74726 0.2465 0.0
C138 C 0.5236 0.73427 0.28393 0.0
C139 C 0.50997 0.72531 0.31502 0.0
C140 C 0.49061 0.73025 0.30916 0.0
C141 C 0.48481 0.7429 0.27157 0.0
C142 C 0.45187 0.75245 0.09817 0.0
C143 C 0.44258 0.73593 0.11701 0.0
C144 C 0.24386 0.47666 0.92498 0.0
C145 C 0.23486 0.46191 0.89631 0.0
C146 C 0.24213 0.44346 0.90089 0.0
C147 C 0.25663 0.43949 0.93655 0.0
H148 H 0.32235 0.48083 0.05423 0.0
H149 H 0.35305 0.49037 0.09654 0.0
H150 H 0.3558 0.43451 0.16497 0.0
H151 H 0.32547 0.42516 0.12303 0.0
H152 H 0.28088 0.43 0.19497 0.0
H153 H 0.25902 0.42919 0.2642 0.0
H154 H 0.21041 0.42726 0.15943 0.0
H155 H 0.23211 0.42779 0.09022 0.0
H156 H 0.2641 0.48395 0.98481 0.0
H157 H 0.2386 0.491 0.92291 0.0
H158 H 0.23593 0.43183 0.87871 0.0
H159 H 0.2608 0.42486 0.94212 0.0
N160 N 0.29328 0.45285 0.0255 0.0
N161 N 0.28998 0.43917 0.10552 0.0
N162 N 0.26335 0.44001 0.05036 0.0
C163 C 0.30125 0.44769 0.07079 0.0
C164 C 0.27101 0.4354 0.09586 0.0
C165 C 0.27429 0.44852 0.01503 0.0
C166 C 0.32156 0.45228 0.08543 0.0
C167 C 0.3299 0.47047 0.07704 0.0
C168 C 0.34734 0.47596 0.10169 0.0
C169 C 0.35683 0.46324 0.13444 0.0
C170 C 0.34905 0.44463 0.13974 0.0
C171 C 0.3316 0.43927 0.1158 0.0
C172 C 0.25825 0.42956 0.13692 0.0
C173 C 0.26554 0.42884 0.18657 0.0
C174 C 0.25303 0.42841 0.22635 0.0
C175 C 0.23303 0.42859 0.21723 0.0
C176 C 0.22576 0.42711 0.16774 0.0
C177 C 0.23825 0.42757 0.12795 0.0
C178 C 0.26454 0.45393 0.96759 0.0
C179 C 0.25857 0.47268 0.96032 0.0
C180 C 0.04862 0.24081 0.91547 0.0
C181 C 0.03057 0.23115 0.91673 0.0
C182 C 0.01759 0.23663 0.95302 0.0
C183 C 0.02312 0.25029 0.9894 0.0
H184 H 0.01834 0.30753 0.10054 0.0
H185 H 0.0102 0.33541 0.15003 0.0
H186 H 0.06893 0.33999 0.20739 0.0
H187 H 0.07695 0.3126 0.15854 0.0
H188 H 0.08635 0.26572 0.20158 0.0
H189 H 0.10015 0.24046 0.25306 0.0
H190 H 0.10031 0.20407 0.12348 0.0
H191 H 0.08731 0.22932 0.07211 0.0
H192 H 0.06872 0.26022 0.9523 0.0
H193 H 0.05914 0.23692 0.88874 0.0
H194 H 1.00348 0.22971 0.95482 0.0
H195 H 0.01346 0.25305 0.01924 0.0
N196 N 0.04457 0.28334 0.05771 0.0
N197 N 0.06699 0.27893 0.12457 0.0
N198 N 0.06408 0.25655 0.06065 0.0
C199 C 0.05331 0.28965 0.10147 0.0
C200 C 0.0724 0.26235 0.10455 0.0
C201 C 0.05031 0.26679 0.03695 0.0
C202 C 0.04827 0.30778 0.12568 0.0
C203 C 0.02952 0.31474 0.1231 0.0
C204 C 0.02484 0.33059 0.15178 0.0
C205 C 0.03891 0.33997 0.18278 0.0
C206 C 0.05776 0.33334 0.18364 0.0
C207 C 0.06233 0.31748 0.15575 0.0
C208 C 0.08514 0.24934 0.133 0.0
C209 C 0.0899 0.25254 0.1838 0.0
C210 C 0.09775 0.23802 0.21339 0.0
C211 C 0.10091 0.22004 0.19276 0.0
C212 C 0.09813 0.21768 0.14087 0.0
C213 C 0.09041 0.23217 0.11134 0.0
C214 C 0.04173 0.2587 0.99016 0.0
C215 C 0.05413 0.2543 0.95184 0.0
C216 C 0.29626 0.02889 0.96725 0.0
C217 C 0.30548 0.04335 0.93889 0.0
C218 C 0.29832 0.06185 0.94043 0.0
C219 C 0.28357 0.06613 0.9723 0.0
H220 H 0.23669 0.02408 0.16466 0.0
H221 H 0.20996 0.01514 0.21846 0.0
H222 H 0.17439 0.05591 0.14071 0.0
H223 H 0.20112 0.0646 0.08707 0.0
H224 H 0.25534 0.0848 0.21182 0.0
H225 H 0.27825 0.09881 0.27143 0.0
H226 H 0.31231 0.12106 0.15042 0.0
H227 H 0.28968 0.10593 0.09038 0.0
H228 H 0.27534 0.02208 0.02292 0.0
H229 H 0.30136 0.01447 0.96713 0.0
H230 H 0.30459 0.07327 0.91818 0.0
H231 H 0.27924 0.08079 0.97451 0.0
N232 N 0.24755 0.04822 0.06077 0.0
N233 N 0.24524 0.06982 0.12717 0.0
N234 N 0.27027 0.0736 0.07169 0.0
C235 C 0.23811 0.05447 0.10134 0.0
C236 C 0.26131 0.07946 0.11272 0.0
C237 C 0.26362 0.05814 0.0454 0.0
C238 C 0.22078 0.04463 0.12083 0.0
C239 C 0.22286 0.03045 0.15773 0.0
C240 C 0.20764 0.02562 0.18912 0.0
C241 C 0.19002 0.03495 0.18443 0.0
C242 C 0.18762 0.04826 0.14523 0.0
C243 C 0.20288 0.05316 0.11413 0.0
C244 C 0.27112 0.09357 0.14644 0.0
C245 C 0.26736 0.09318 0.19768 0.0
C246 C 0.28055 0.10144 0.23213 0.0
C247 C 0.29763 0.11052 0.21594 0.0
C248 C 0.29971 0.11352 0.16429 0.0
C249 C 0.28669 0.10491 0.12981 0.0
C250 C 0.27526 0.05204 1.00315 0.0
C251 C 0.28126 0.03319 0.99905 0.0
C252 C 0.59495 0.2867 0.14589 0.0
C253 C 0.59526 0.28332 0.19777 0.0
C254 C 0.58474 0.26749 0.21632 0.0
C255 C 0.57275 0.25642 0.18429 0.0
H256 H 0.54568 0.19624 0.10601 0.0
H257 H 0.53336 0.16919 0.15418 0.0
H258 H 0.47964 0.19739 0.17011 0.0
H259 H 0.49214 0.2246 0.12089 0.0
H260 H 0.49512 0.26213 0.99936 0.0
H261 H 0.48529 0.28568 0.93564 0.0
H262 H 0.54511 0.30024 0.9112 0.0
H263 H 0.55473 0.27686 0.97323 0.0
H264 H 0.58204 0.27951 0.0746 0.0
H265 H 0.60326 0.29851 0.13027 0.0
H266 H 0.58455 0.26451 0.25608 0.0
H267 H 0.56385 0.24514 0.20031 0.0
N268 N 0.54544 0.23654 0.11659 0.0
N269 N 0.52238 0.24007 0.05082 0.0
N270 N 0.54838 0.26215 0.06097 0.0
C271 C 0.5293 0.23009 0.09126 0.0
C272 C 0.53223 0.25608 0.0351 0.0
C273 C 0.555 0.25262 0.10184 0.0
C274 C 0.51978 0.21237 0.10941 0.0
C275 C 0.531 0.19637 0.11838 0.0
C276 C 0.52392 0.18087 0.14598 0.0
C277 C 0.50552 0.18113 0.16618 0.0
C278 C 0.49389 0.19681 0.15519 0.0
C279 C 0.50092 0.21226 0.12663 0.0
C280 C 0.52569 0.26769 0.99152 0.0
C281 C 0.50609 0.27008 0.97937 0.0
C282 C 0.50049 0.28369 0.94327 0.0
C283 C 0.5144 0.29494 0.91827 0.0
C284 C 0.53396 0.29175 0.92897 0.0
C285 C 0.53949 0.27838 0.965 0.0
C286 C 0.57092 0.26111 0.13321 0.0
C287 C 0.58282 0.27579 0.11397 0.0
Eu288 Eu 0.99791 0.02218 0.57938 0.0
Eu289 Eu 0.02889 0.00617 0.66175 0.0
C290 C 0.02001 0.05098 0.65804 0.0
C291 C 0.98569 0.04551 0.46033 0.0
C292 C 0.9834 0.06518 0.4536 0.0
C293 C 0.01077 0.04665 0.39896 0.0
C294 C 0.99531 0.07562 0.42156 0.0
C295 C 0.99887 0.03622 0.43082 0.0
C296 C 0.0097 0.06654 0.39576 0.0
C297 C 0.97772 0.03579 0.50467 0.0
O298 O 0.99923 0.99772 0.68914 0.0
O299 O 0.98108 0.02039 0.64992 0.0
C300 C 0.98364 0.00788 0.68613 0.0
O301 O 0.99208 0.99026 0.58189 0.0
O302 O 0.03794 1.00139 0.73965 0.0
O303 O 0.05435 0.98977 0.68052 0.0
O304 O 0.02263 0.9827 0.60571 0.0
C305 C 1.00582 0.97787 0.58512 0.0
O306 O 0.02568 0.018 0.54001 0.0
O307 O 0.04742 0.02163 0.60532 0.0
O308 O 0.02502 0.03641 0.68607 0.0
O309 O 0.98121 0.01772 0.50967 0.0
O310 O 0.98059 0.04488 0.54672 0.0
O311 O 0.01298 0.0486 0.61216 0.0
C312 C 0.0463 0.96961 0.74814 0.0
C313 C 0.03774 0.95559 0.71665 0.0
C314 C 0.03817 0.95002 0.8201 0.0
C315 C 0.02885 0.93933 0.73665 0.0
C316 C 0.04701 0.96643 0.79994 0.0
C317 C 0.02831 0.93667 0.78869 0.0
C318 C 0.05037 0.98881 0.72783 0.0
C319 C 0.04338 0.02144 0.55697 0.0
H320 H 0.97342 0.0727 0.47596 0.0
H321 H 0.02149 0.03926 0.37873 0.0
H322 H 0.99417 0.09098 0.41984 0.0
H323 H 1.00101 0.02106 0.43481 0.0
H324 H 0.0367 0.95776 0.67658 0.0
H325 H 0.03832 0.94823 0.86034 0.0
H326 H 0.02124 0.92955 0.71123 0.0
H327 H 0.05335 0.97715 0.82492 0.0
Eu328 Eu 0.52652 0.02738 0.66251 0.0
Eu329 Eu 0.50406 0.99789 0.58576 0.0
C330 C 0.52448 0.98183 0.6848 0.0
C331 C 0.56586 0.04197 0.75002 0.0
C332 C 0.56576 0.03491 0.79932 0.0
C333 C 0.59776 0.02946 0.74112 0.0
C334 C 0.58112 0.02443 0.81843 0.0
C335 C 0.58244 0.03991 0.72201 0.0
C336 C 0.59689 0.02092 0.78866 0.0
C337 C 0.54764 0.04775 0.72505 0.0
O338 O 0.48382 1.00313 0.64839 0.0
O339 O 0.49502 0.03257 0.67401 0.0
C340 C 0.48139 0.01913 0.67226 0.0
O341 O 0.52098 0.04433 0.59186 0.0
O342 O 0.48424 0.97364 0.57046 0.0
O343 O 0.49629 0.98973 0.50901 0.0
O344 O 0.49445 0.02722 0.56351 0.0
C345 C 0.5057 0.04256 0.56199 0.0
O346 O 0.54988 0.0114 0.62566 0.0
O347 O 0.53341 1.00335 0.55323 0.0
O348 O 0.52098 0.97849 0.63705 0.0
O349 O 0.54799 0.05023 0.67668 0.0
O350 O 0.53225 0.03806 0.73817 0.0
O351 O 0.52371 0.99912 0.70296 0.0
C352 C 0.46315 0.98395 0.50558 0.0
C353 C 0.45142 0.99322 0.5389 0.0
C354 C 0.44311 0.99533 0.43627 0.0
C355 C 0.43624 1.00409 0.52105 0.0
C356 C 0.45846 0.98451 0.45424 0.0
C357 C 0.43237 0.00592 0.46941 0.0
C358 C 0.48239 0.97821 0.52315 0.0
C359 C 0.54974 0.00633 0.57851 0.0
H360 H 0.55322 0.03631 0.82182 0.0
H361 H 0.60996 0.02739 0.71782 0.0
H362 H 0.58004 0.01805 0.85527 0.0
H363 H 0.58313 0.04529 0.68403 0.0
H364 H 0.45485 0.99335 0.57866 0.0
H365 H 0.44025 0.99611 0.3963 0.0
H366 H 0.4285 0.01216 0.54775 0.0
H367 H 0.46745 0.97768 0.42785 0.0
Eu368 Eu 0.4957 0.51783 0.65506 0.0
Eu369 Eu 0.5333 0.50511 0.59374 0.0
C370 C 0.53773 0.51988 0.70495 0.0
C371 C 0.45425 0.54582 0.70403 0.0
C372 C 0.46044 0.56275 0.68042 0.0
C373 C 0.42802 0.56252 0.73963 0.0
C374 C 0.45085 0.57963 0.68781 0.0
C375 C 0.4377 0.54567 0.73246 0.0
C376 C 0.43489 0.57979 0.71872 0.0
C377 C 0.46594 0.52883 0.70318 0.0
O378 O 0.52575 0.47952 0.64182 0.0
O379 O 0.49452 0.48572 0.66028 0.0
C380 C 0.50897 0.47412 0.65936 0.0
O381 O 0.48709 0.51698 0.5731 0.0
O382 O 0.56295 0.49599 0.5964 0.0
O383 O 0.54831 0.50044 0.52478 0.0
O384 O 0.50704 0.49361 0.55047 0.0
C385 C 0.49154 0.50352 0.54214 0.0
O386 O 0.50907 0.54568 0.62782 0.0
O387 O 0.52711 0.53458 0.56438 0.0
O388 O 0.54396 0.52269 0.65971 0.0
O389 O 0.46451 0.5185 0.66285 0.0
O390 O 0.48374 0.53133 0.71935 0.0
O391 O 0.52008 0.51344 0.71134 0.0
C392 C 0.57055 0.47595 0.5309 0.0
C393 C 0.5592 0.45921 0.536 0.0
C394 C 0.59533 0.45778 0.4934 0.0
C395 C 0.56581 0.44186 0.51943 0.0
C396 C 0.58868 0.47515 0.5099 0.0
C397 C 0.58389 0.44098 0.49761 0.0
C398 C 0.56366 0.49419 0.54806 0.0
C399 C 0.51896 0.5486 0.58721 0.0
H400 H 0.47317 0.56306 0.65811 0.0
H401 H 0.4159 0.56224 0.76406 0.0
H402 H 0.45635 0.5927 0.67092 0.0
H403 H 0.43277 0.53269 0.75094 0.0
H404 H 0.54522 0.4596 0.55263 0.0
H405 H 0.60922 0.45759 0.47625 0.0
H406 H 0.55677 0.42912 0.52371 0.0
H407 H 0.59762 0.48798 0.50594 0.0
Eu408 Eu 0.02311 0.52671 0.59398 0.0
Eu409 Eu 1.00354 0.49565 0.66955 0.0
C410 C 0.04918 0.50075 0.66782 0.0
C411 C 0.06143 0.54586 0.51475 0.0
C412 C 0.07597 0.53907 0.54737 0.0
C413 C 0.08087 0.53838 0.4442 0.0
C414 C 0.09243 0.53136 0.52857 0.0
C415 C 0.0643 0.54607 0.46311 0.0
C416 C 0.09469 0.53026 0.47677 0.0
C417 C 0.04213 0.54894 0.53362 0.0
O418 O 0.01058 0.52215 0.71483 0.0
O419 O 0.00982 0.54468 0.65272 0.0
C420 C 0.00915 0.53998 0.7003 0.0
O421 O 0.99208 0.52371 0.56709 0.0
O422 O 1.00237 0.48213 0.74323 0.0
O423 O 0.98097 0.4744 0.6859 0.0
O424 O 0.97951 0.51416 0.64136 0.0
C425 C 0.97725 0.52073 0.59555 0.0
O426 O 0.0292 0.49771 0.56277 0.0
O427 O 1.00398 0.48059 0.5953 0.0
O428 O 0.03486 0.48814 0.67036 0.0
O429 O 0.02892 0.53653 0.51815 0.0
O430 O 0.04123 0.55219 0.58145 0.0
O431 O 0.04651 0.51784 0.64903 0.0
C432 C 0.9699 0.48098 0.76646 0.0
C433 C 0.95124 0.4838 0.74641 0.0
C434 C 0.96172 0.4985 0.84054 0.0
C435 C 0.93833 0.49461 0.77205 0.0
C436 C 0.97467 0.48768 0.81484 0.0
C437 C 0.94371 0.50271 0.81851 0.0
C438 C 0.98522 0.47463 0.73381 0.0
C439 C 0.01735 0.48273 0.56199 0.0
H440 H 0.07413 0.53861 0.58737 0.0
H441 H 0.08223 0.53763 0.40406 0.0
H442 H 0.10299 0.52545 0.55451 0.0
H443 H 0.05319 0.55102 0.43728 0.0
H444 H 0.94699 0.47878 0.70936 0.0
H445 H 0.96611 0.50416 0.87684 0.0
H446 H 0.9246 0.4976 0.75388 0.0
H447 H 0.98886 0.48562 0.83154 0.0
H448 H 0.19512 0.03199 0.28628 0.0
H449 H 0.1705 0.0295 0.3495 0.0
H450 H 0.12604 0.03003 0.23347 0.0
H451 H 0.15059 0.03223 0.16982 0.0
H452 H 0.14048 0.05588 0.36541 0.0
H453 H 0.11105 0.9832 0.321 0.0
H454 H 0.13419 0.99188 0.30019 0.0
H455 H 0.11248 0.99937 0.26871 0.0
C456 C 0.18012 0.03121 0.27402 0.0
C457 C 0.1749 0.03215 0.22272 0.0
C458 C 0.16604 0.02997 0.31034 0.0
C459 C 0.14639 0.02941 0.29636 0.0
C460 C 0.14109 0.03019 0.24524 0.0
H461 H 0.03949 0.02176 0.45499 0.0
H462 H 0.06457 0.02467 0.39367 0.0
C463 C 0.15517 0.03157 0.20885 0.0
C464 C 0.13148 0.02854 0.33532 0.0
H465 H 0.09437 1.00083 0.37981 0.0
C466 C 0.13045 0.0438 0.36875 0.0
C467 C 0.11833 0.01284 0.33958 0.0
C468 C 0.11907 0.99579 0.3058 0.0
C469 C 0.11642 0.04394 0.40557 0.0
C470 C 0.10332 0.02817 0.41004 0.0
C471 C 0.1044 0.01291 0.37662 0.0
C472 C 0.08811 0.02733 0.44829 0.0
C473 C 0.11534 0.06125 0.43833 0.0
C474 C 0.09286 0.0279 0.49983 0.0
C475 C 0.07842 0.02633 0.53535 0.0
C476 C 0.05892 0.02403 0.52006 0.0
C477 C 0.05428 0.02358 0.4684 0.0
C478 C 0.06866 0.02517 0.43308 0.0
H479 H 0.12293 0.07389 0.42202 0.0
H480 H 0.10015 0.06483 0.4442 0.0
H481 H 0.12227 0.05821 0.47537 0.0
H482 H 0.10777 0.02918 0.51268 0.0
H483 H 0.08257 0.02662 0.57471 0.0
H484 H 0.48915 0.18561 0.25685 0.0
H485 H 0.48517 0.16154 0.32285 0.0
H486 H 0.50497 0.11848 0.22454 0.0
H487 H 0.50913 0.14249 0.15854 0.0
H488 H 0.4652 0.12613 0.33308 0.0
H489 H 0.54439 0.11798 0.34144 0.0
H490 H 0.53309 0.13705 0.30712 0.0
H491 H 0.53333 0.11355 0.28088 0.0
C492 C 0.49221 0.17093 0.24885 0.0
C493 C 0.49966 0.16601 0.20258 0.0
C494 C 0.49001 0.15719 0.28672 0.0
C495 C 0.49519 0.13829 0.27905 0.0
C496 C 0.50132 0.13307 0.23173 0.0
H497 H 0.47965 0.04102 0.48264 0.0
H498 H 0.47572 0.06442 0.41519 0.0
C499 C 0.50364 0.1468 0.19399 0.0
C500 C 0.49558 0.12442 0.32146 0.0
H501 H 0.52602 0.09699 0.39174 0.0
C502 C 0.47848 0.11974 0.34598 0.0
C503 C 0.51298 0.11633 0.33884 0.0
C504 C 0.53203 0.12159 0.3161 0.0
C505 C 0.47829 0.10701 0.38699 0.0
C506 C 0.49563 0.09855 0.40348 0.0
C507 C 0.51271 0.10338 0.37908 0.0
C508 C 0.49669 0.0849 0.44642 0.0
C509 C 0.45962 0.10309 0.41292 0.0
C510 C 0.50992 0.08843 0.48639 0.0
C511 C 0.51242 0.07494 0.52464 0.0
C512 C 0.50171 0.05759 0.52394 0.0
C513 C 0.48806 0.05429 0.48463 0.0
C514 C 0.48569 0.06774 0.44609 0.0
H515 H 0.44911 0.11439 0.40481 0.0
H516 H 0.4531 0.08936 0.39943 0.0
H517 H 0.46207 0.10198 0.45405 0.0
H518 H 0.51861 0.10153 0.48752 0.0
H519 H 0.52303 0.07799 0.5543 0.0
H520 H 0.38976 0.44408 0.15804 0.0
H521 H 0.41424 0.45219 0.22307 0.0
H522 H 0.38617 0.50477 0.25059 0.0
H523 H 0.36144 0.49662 0.18636 0.0
H524 H 0.44 0.48539 0.23927 0.0
H525 H 0.38598 0.47551 0.38661 0.0
H526 H 0.38179 0.46694 0.32362 0.0
H527 H 0.37961 0.4918 0.33705 0.0
C528 C 0.38891 0.45747 0.17758 0.0
C529 C 0.37353 0.46962 0.16724 0.0
C530 C 0.40295 0.4621 0.21461 0.0
C531 C 0.40183 0.47891 0.24225 0.0
C532 C 0.38714 0.49159 0.23016 0.0
H533 H 0.46034 0.52343 0.50954 0.0
H534 H 0.43966 0.51762 0.43541 0.0
C535 C 0.37313 0.487 0.19302 0.0
C536 C 0.41533 0.48263 0.28556 0.0
H537 H 0.41707 0.48656 0.41281 0.0
C538 C 0.43503 0.48563 0.27725 0.0
C539 C 0.40881 0.48285 0.33508 0.0
C540 C 0.38793 0.47895 0.34645 0.0
C541 C 0.44833 0.4893 0.31712 0.0
C542 C 0.4418 0.48954 0.36671 0.0
C543 C 0.42209 0.48642 0.37487 0.0
C544 C 0.455 0.49325 0.41078 0.0
C545 C 0.46916 0.49338 0.30561 0.0
C546 C 0.47049 0.4814 0.42203 0.0
C547 C 0.48246 0.48473 0.46449 0.0
C548 C 0.47904 0.49988 0.49685 0.0
C549 C 0.46344 0.51163 0.48557 0.0
C550 C 0.45157 0.50833 0.4431 0.0
H551 H 0.47086 0.49781 0.266 0.0
H552 H 0.47558 0.50475 0.33016 0.0
H553 H 0.47739 0.48025 0.31213 0.0
H554 H 0.47318 0.46938 0.3984 0.0
H555 H 0.49427 0.47534 0.47215 0.0
H556 H 0.05975 0.37322 0.2006 0.0
H557 H 0.05417 0.39752 0.26306 0.0
H558 H 1.0017 0.36767 0.30321 0.0
H559 H 0.0074 0.34302 0.24135 0.0
H560 H 0.02318 0.42184 0.27667 0.0
H561 H 0.03247 0.37183 0.43711 0.0
H562 H 0.03946 0.36613 0.37474 0.0
H563 H 0.01455 0.36456 0.39058 0.0
C564 C 0.04698 0.37181 0.22263 0.0
C565 C 0.03413 0.35601 0.21622 0.0
C566 C 0.04378 0.38578 0.25823 0.0
C567 C 0.02771 0.38427 0.2886 0.0
C568 C 0.01439 0.36897 0.28091 0.0
H569 H 0.99412 0.4509 0.54467 0.0
H570 H 0.99608 0.42755 0.47777 0.0
C571 C 0.01755 0.355 0.24508 0.0
C572 C 0.02527 0.39848 0.32895 0.0
H573 H 0.02425 0.40326 0.45598 0.0
C574 C 0.02339 0.41778 0.31588 0.0
C575 C 0.02556 0.39321 0.38018 0.0
C576 C 0.02827 0.37285 0.39677 0.0
C577 C 0.02159 0.43188 0.35247 0.0
C578 C 0.02214 0.42665 0.40378 0.0
C579 C 0.02384 0.40732 0.41678 0.0
C580 C 0.02108 0.44098 0.44456 0.0
C581 C 0.01874 0.45219 0.33567 0.0
C582 C 0.03467 0.45621 0.44897 0.0
C583 C 0.03356 0.46965 0.4872 0.0
C584 C 0.01894 0.46809 0.52232 0.0
C585 C 1.00558 0.45261 0.51838 0.0
C586 C 1.00667 0.43921 0.48005 0.0
H587 H 0.01303 0.45292 0.29644 0.0
H588 H 0.00869 0.45945 0.36009 0.0
H589 H 0.0328 0.46014 0.33754 0.0
H590 H 0.04624 0.45766 0.42297 0.0
H591 H 0.04419 0.48128 0.48913 0.0
H592 H 0.84378 0.01227 0.99604 0.0
H593 H 0.86761 0.01632 0.93096 0.0
H594 H 0.90385 0.97601 1.00748 0.0
H595 H 0.88019 0.97193 0.07262 0.0
H596 H 0.90656 0.02764 0.93281 0.0
H597 H 0.89721 0.95286 0.86843 0.0
H598 H 0.88076 0.9635 0.91001 0.0
H599 H 0.90345 0.95506 0.93381 0.0
C600 C 0.85696 1.00449 0.99951 0.0
C601 C 0.85991 0.99161 0.03949 0.0
C602 C 0.87053 0.00673 0.96202 0.0
C603 C 0.88735 0.99612 0.96351 0.0
C604 C 0.89076 0.98395 1.00459 0.0
H605 H 0.98431 0.98421 0.76852 0.0
H606 H 0.96105 0.98177 0.83512 0.0
C607 C 0.87721 0.98168 0.04197 0.0
C608 C 0.90119 0.99756 0.92195 0.0
H609 H 0.92264 0.9713 0.83339 0.0
C610 C 0.91 0.01534 0.91091 0.0
C611 C 0.90575 0.98152 0.89327 0.0
C612 C 0.89619 0.96218 0.90155 0.0
C613 C 0.92349 0.01742 0.8729 0.0
C614 C 0.92805 1.00137 0.84424 0.0
C615 C 0.91921 0.98361 0.85525 0.0
C616 C 0.94199 1.00267 0.80286 0.0
C617 C 0.93311 0.03673 0.86474 0.0
C618 C 0.9389 0.0149 0.76171 0.0
C619 C 0.9522 0.01633 0.72346 0.0
C620 C 0.96888 0.00545 0.72517 0.0
C621 C 0.97168 0.99284 0.7658 0.0
C622 C 0.95837 0.99143 0.80406 0.0
H623 H 0.93219 0.04599 0.89801 0.0
H624 H 0.94851 0.03538 0.85606 0.0
H625 H 0.9258 0.04395 0.83269 0.0
H626 H 0.92616 0.02336 0.75911 0.0
H627 H 0.94946 0.02613 0.69276 0.0
H628 H 0.50328 0.87264 0.05268 0.0
H629 H 0.50964 0.8962 0.98695 0.0
H630 H 0.54778 0.85776 0.91824 0.0
H631 H 0.54122 0.83385 0.98359 0.0
H632 H 0.55967 0.90092 0.92465 0.0
H633 H 0.48744 0.88328 0.83872 0.0
H634 H 0.48821 0.88752 0.90501 0.0
H635 H 0.49983 0.86722 0.88091 0.0
C636 C 0.51319 0.86924 0.02391 0.0
C637 C 0.52155 0.85125 0.02309 0.0
C638 C 0.51684 0.88274 0.98645 0.0
C639 C 0.52898 0.87862 0.94744 0.0
C640 C 0.53834 0.86119 0.94804 0.0
H641 H 0.52262 0.94331 0.66585 0.0
H642 H 0.52639 0.91717 0.72637 0.0
C643 C 0.53465 0.84759 0.98557 0.0
C644 C 0.53058 0.89198 0.90436 0.0
H645 H 0.50409 0.91049 0.80694 0.0
C646 C 0.54762 0.90293 0.89858 0.0
C647 C 0.51494 0.89434 0.86999 0.0
C648 C 0.49658 0.8824 0.87347 0.0
C649 C 0.54911 0.91676 0.86033 0.0
C650 C 0.53308 0.9198 0.82746 0.0
C651 C 0.51635 0.90826 0.83218 0.0
C652 C 0.53281 0.93553 0.78976 0.0
C653 C 0.56784 0.928 0.85554 0.0
C654 C 0.53522 0.95456 0.80512 0.0
C655 C 0.53306 0.9695 0.7707 0.0
C656 C 0.52829 0.96579 0.72006 0.0
C657 C 0.52631 0.94671 0.70447 0.0
C658 C 0.52845 0.93174 0.73905 0.0
H659 H 0.58015 0.92013 0.872 0.0
H660 H 0.57072 0.93138 0.81581 0.0
H661 H 0.56703 0.94162 0.87605 0.0
H662 H 0.53813 0.95791 0.84413 0.0
H663 H 0.53471 0.984 0.78417 0.0
H664 H 0.64395 0.57693 0.08596 0.0
H665 H 0.61794 0.56927 0.02486 0.0
H666 H 0.64667 0.51837 0.98422 0.0
H667 H 0.67253 0.5258 0.04597 0.0
H668 H 0.62126 0.56756 0.92664 0.0
H669 H 0.59225 0.49781 0.99295 0.0
H670 H 0.60815 0.51286 0.03136 0.0
H671 H 0.61775 0.49776 0.98482 0.0
C672 C 0.64454 0.56393 0.0646 0.0
C673 C 0.66028 0.55195 0.07085 0.0
C674 C 0.62967 0.55956 0.02967 0.0
C675 C 0.63019 0.54314 1.00011 0.0
C676 C 0.64564 0.53087 1.00732 0.0
H677 H 0.5762 0.5295 0.70537 0.0
H678 H 0.59795 0.53517 0.77764 0.0
C679 C 0.66045 0.53514 0.04263 0.0
C680 C 0.61552 0.53982 0.95898 0.0
H681 H 0.58337 0.50675 0.90892 0.0
C682 C 0.61287 0.55431 0.92308 0.0
C683 C 0.60436 0.52263 0.95445 0.0
C684 C 0.6056 0.50696 0.99324 0.0
C685 C 0.59976 0.55195 0.88236 0.0
C686 C 0.5893 0.53442 0.87649 0.0
C687 C 0.59156 0.5201 0.91302 0.0
C688 C 0.57605 0.53067 0.83255 0.0
C689 C 0.59708 0.56841 0.84638 0.0
C690 C 0.55658 0.52567 0.83923 0.0
C691 C 0.5441 0.52222 0.79786 0.0
C692 C 0.55087 0.52366 0.74893 0.0
C693 C 0.57043 0.52847 0.74243 0.0
C694 C 0.58289 0.53181 0.78378 0.0
H695 H 0.60148 0.58224 0.86394 0.0
H696 H 0.60621 0.56648 0.81368 0.0
H697 H 0.58187 0.56914 0.83275 0.0
H698 H 0.55098 0.5246 0.87649 0.0
H699 H 0.52915 0.51848 0.80428 0.0
H700 H 0.98803 0.64343 0.09246 0.0
H701 H 0.99193 0.61951 0.02771 0.0
H702 H 0.00773 0.66401 0.92339 0.0
H703 H 1.0041 0.68792 0.98798 0.0
H704 H 0.97257 0.61491 0.94005 0.0
H705 H 0.04974 0.62745 0.90176 0.0
H706 H 0.03875 0.63736 0.95545 0.0
H707 H 0.03617 0.64866 0.89507 0.0
C708 C 0.99253 0.64812 0.05587 0.0
C709 C 0.99591 0.66764 0.0457 0.0
C710 C 0.99476 0.6344 0.01882 0.0
C711 C 1.00042 0.63984 0.97064 0.0
C712 C 1.0039 0.65931 0.96049 0.0
H713 H 0.01155 0.57903 0.68905 0.0
H714 H 0.00882 0.60324 0.75392 0.0
C715 C 1.00181 0.67301 0.99761 0.0
C716 C 1.00172 0.62527 0.93047 0.0
H717 H 0.03158 0.60798 0.84356 0.0
C718 C 0.98553 0.61334 0.91923 0.0
C719 C 0.0186 0.62316 0.90298 0.0
C720 C 0.03686 0.63471 0.91471 0.0
C721 C 0.98565 0.59966 0.88103 0.0
C722 C 1.00247 0.59766 0.8534 0.0
C723 C 0.01864 0.60958 0.86448 0.0
C724 C 1.00374 0.58295 0.81374 0.0
C725 C 0.96763 0.58765 0.87002 0.0
C726 C 1.00193 0.56347 0.82572 0.0
C727 C 1.00354 0.54963 0.78882 0.0
C728 C 1.00704 0.5549 0.73893 0.0
C729 C 0.00879 0.57443 0.72696 0.0
C730 C 0.00728 0.5883 0.76405 0.0
H731 H 0.95468 0.59416 0.88508 0.0
H732 H 0.96526 0.58555 0.82916 0.0
H733 H 0.96917 0.57343 0.88785 0.0
H734 H 0.99951 0.55894 0.86385 0.0
H735 H 1.00207 0.53475 0.79957 0.0
H736 H 0.0836 0.21225 0.28085 0.0
H737 H 0.07966 0.18132 0.32053 0.0
H738 H 0.11841 0.15737 0.21718 0.0
H739 H 0.12281 0.18868 0.17738 0.0
H740 H 0.08273 0.14072 0.21111 0.0
H741 H 0.10669 0.14308 0.40938 0.0
H742 H 0.09284 0.16352 0.39377 0.0
H743 H 0.11534 0.16022 0.36387 0.0
C744 C 0.09211 0.20073 0.26792 0.0
C745 C 0.10334 0.20296 0.22537 0.0
C746 C 0.08981 0.18294 0.29083 0.0
C747 C 0.09876 0.16701 0.27193 0.0
C748 C 0.11139 0.1695 0.23238 0.0
H749 H 0.04851 0.06216 0.40293 0.0
H750 H 0.07376 0.08298 0.36828 0.0
C751 C 0.11379 0.18738 0.20953 0.0
C752 C 0.09175 0.14772 0.28687 0.0
H753 H 0.0785 0.12212 0.38971 0.0
C754 C 0.08231 0.13635 0.25005 0.0
C755 C 0.09136 0.14186 0.33751 0.0
C756 C 0.1023 0.15275 0.37825 0.0
C757 C 0.07099 0.12029 0.26304 0.0
C758 C 0.06893 0.11567 0.31408 0.0
C759 C 0.07983 0.12592 0.35056 0.0
C760 C 0.05392 0.10185 0.33062 0.0
C761 C 0.06063 0.10893 0.22216 0.0
C762 C 0.03443 0.10555 0.32068 0.0
C763 C 0.02 0.09372 0.34035 0.0
C764 C 0.02482 0.07796 0.37029 0.0
C765 C 0.04437 0.07401 0.3792 0.0
C766 C 0.05881 0.08593 0.35976 0.0
H767 H 0.06826 0.11025 0.18641 0.0
H768 H 0.05919 0.09361 0.23259 0.0
H769 H 0.04598 0.11448 0.21578 0.0
H770 H 0.03038 0.11799 0.29905 0.0
H771 H 1.00508 0.09708 0.33293 0.0
H772 H 0.3353 0.10446 0.1964 0.0
H773 H 0.36009 0.09583 0.2571 0.0
H774 H 0.3236 0.11026 0.37721 0.0
H775 H 0.29863 0.11987 0.31633 0.0
H776 H 0.37945 0.11028 0.35564 0.0
H777 H 0.32604 0.04936 0.36706 0.0
H778 H 0.32498 0.0665 0.31654 0.0
H779 H 0.31815 0.0731 0.37792 0.0
C780 C 0.33273 0.1069 0.23546 0.0
C781 C 0.3146 0.11236 0.25131 0.0
C782 C 0.34703 0.10182 0.27028 0.0
C783 C 0.34345 0.10201 0.32142 0.0
C784 C 0.32647 0.10984 0.3377 0.0
H785 H 0.39798 0.01529 0.50883 0.0
H786 H 0.37716 0.04109 0.48241 0.0
C787 C 0.31218 0.11516 0.3028 0.0
C788 C 0.35538 0.09022 0.35523 0.0
H789 H 0.35678 0.04484 0.40127 0.0
C790 C 0.37445 0.09612 0.36674 0.0
C791 C 0.34875 0.07175 0.36936 0.0
C792 C 0.32841 0.06464 0.35708 0.0
C793 C 0.3873 0.08372 0.3908 0.0
C794 C 0.381 0.06479 0.4019 0.0
C795 C 0.36164 0.0593 0.39259 0.0
C796 C 0.39435 0.04997 0.41983 0.0
C797 C 0.40751 0.09101 0.40338 0.0
C798 C 0.41075 0.0461 0.39291 0.0
C799 C 0.42286 0.03156 0.40841 0.0
C800 C 0.4186 0.02028 0.45057 0.0
C801 C 0.40186 0.02385 0.47664 0.0
C802 C 0.38991 0.03859 0.46153 0.0
H803 H 0.40787 0.1066 0.41048 0.0
H804 H 0.41377 0.08367 0.43674 0.0
H805 H 0.41671 0.08858 0.3711 0.0
H806 H 0.41414 0.05423 0.3596 0.0
H807 H 0.43576 0.02946 0.38784 0.0
H808 H 0.61535 0.2779 0.28719 0.0
H809 H 0.62332 0.30215 0.35092 0.0
H810 H 0.60149 0.34566 0.25153 0.0
H811 H 0.59358 0.32184 0.18834 0.0
H812 H 0.63371 0.3581 0.30698 0.0
H813 H 0.57863 0.32289 0.42674 0.0
H814 H 0.59866 0.30902 0.40988 0.0
H815 H 0.58134 0.3161 0.3626 0.0
C816 C 0.61257 0.2927 0.27873 0.0
C817 C 0.60371 0.2979 0.23277 0.0
C818 C 0.61711 0.3065 0.31515 0.0
C819 C 0.61268 0.32563 0.30622 0.0
C820 C 0.60509 0.33098 0.25919 0.0
H821 H 0.56265 0.41507 0.44222 0.0
H822 H 0.57341 0.38585 0.40492 0.0
C823 C 0.60064 0.31729 0.22289 0.0
C824 C 0.61373 0.33999 0.34656 0.0
H825 H 0.58948 0.35358 0.44851 0.0
C826 C 0.62442 0.35701 0.33872 0.0
C827 C 0.60148 0.33848 0.38771 0.0
C828 C 0.58926 0.32072 0.39737 0.0
C829 C 0.6221 0.37305 0.36865 0.0
C830 C 0.60902 0.37184 0.40801 0.0
C831 C 0.59947 0.3544 0.41822 0.0
C832 C 0.60278 0.38905 0.4338 0.0
C833 C 0.6325 0.39154 0.35551 0.0
C834 C 0.61568 0.40042 0.46299 0.0
C835 C 0.60955 0.41723 0.48434 0.0
C836 C 0.59038 0.42278 0.47719 0.0
C837 C 0.57743 0.41107 0.44895 0.0
C838 C 0.58358 0.39439 0.42751 0.0
H839 H 0.63989 0.39072 0.31945 0.0
H840 H 0.62228 0.40337 0.35305 0.0
H841 H 0.6435 0.39509 0.38527 0.0
H842 H 0.63048 0.39637 0.46898 0.0
H843 H 0.61977 0.42586 0.50649 0.0
H844 H 0.19716 0.41331 0.2371 0.0
H845 H 0.17353 0.42698 0.29145 0.0
H846 H 0.21574 0.46988 0.3401 0.0
H847 H 0.23935 0.45626 0.28682 0.0
H848 H 0.19262 0.45831 0.4158 0.0
H849 H 0.14944 0.47623 0.24417 0.0
H850 H 0.15317 0.45123 0.25341 0.0
H851 H 0.17335 0.46716 0.2419 0.0
C852 C 0.20147 0.42541 0.26023 0.0
C853 C 0.22005 0.43379 0.25741 0.0
C854 C 0.18797 0.43324 0.29102 0.0
C855 C 0.19278 0.44972 0.31875 0.0
C856 C 0.21172 0.45721 0.31885 0.0
H857 H 0.11862 0.53961 0.40048 0.0
H858 H 0.14301 0.51966 0.36511 0.0
C859 C 0.22524 0.44931 0.28852 0.0
C860 C 0.17789 0.46035 0.344 0.0
H861 H 0.13736 0.48555 0.32097 0.0
C862 C 0.18045 0.46418 0.39523 0.0
C863 C 0.16229 0.46832 0.3167 0.0
C864 C 0.15942 0.46572 0.26094 0.0
C865 C 0.16788 0.47589 0.41992 0.0
C866 C 0.1521 0.48358 0.39275 0.0
C867 C 0.14945 0.47959 0.34166 0.0
C868 C 0.13822 0.49601 0.41621 0.0
C869 C 0.172 0.48042 0.47436 0.0
C870 C 0.12748 0.48931 0.45652 0.0
C871 C 0.11373 0.50071 0.47693 0.0
C872 C 0.11027 0.51893 0.45694 0.0
C873 C 0.12101 0.52563 0.41654 0.0
C874 C 0.13492 0.51427 0.39642 0.0
H875 H 0.18729 0.47806 0.48543 0.0
H876 H 0.1687 0.49542 0.48264 0.0
H877 H 0.16288 0.47092 0.49778 0.0
H878 H 0.12938 0.47508 0.47143 0.0
H879 H 0.10534 0.495 0.50736 0.0
H880 H 0.91979 0.79226 0.92715 0.0
H881 H 0.93129 0.818 0.87227 0.0
H882 H 0.94274 0.85399 1.00018 0.0
H883 H 0.93226 0.82843 0.05532 0.0
H884 H 0.92814 0.87178 0.89567 0.0
H885 H 0.99328 0.82727 0.90238 0.0
H886 H 0.97006 0.81619 0.88775 0.0
H887 H 0.97535 0.82503 0.9495 0.0
C888 C 0.92431 0.8058 0.94358 0.0
C889 C 0.92552 0.80801 0.99591 0.0
C890 C 0.93072 0.82052 0.91208 0.0
C891 C 0.93804 0.8377 0.93248 0.0
C892 C 0.93707 0.84078 0.9839 0.0
H893 H 1.00553 0.93827 0.86995 0.0
H894 H 0.98289 0.91386 0.89982 0.0
C895 C 0.93092 0.82607 0.01541 0.0
C896 C 0.95006 0.85091 0.90278 0.0
H897 H 0.99643 0.85777 0.8674 0.0
C898 C 0.94299 0.86868 0.8886 0.0
C899 C 0.96938 0.84672 0.89391 0.0
C900 C 0.97763 0.82782 0.90918 0.0
C901 C 0.95496 0.88262 0.8664 0.0
C902 C 0.97461 0.87879 0.85995 0.0
C903 C 0.98141 0.86072 0.87256 0.0
C904 C 0.98863 0.89348 0.84227 0.0
C905 C 0.94642 0.90126 0.85018 0.0
C906 C 1.00024 0.88973 0.80181 0.0
C907 C 0.01372 0.90342 0.78568 0.0
C908 C 0.0158 0.9212 0.80954 0.0
C909 C 1.00452 0.92468 0.851 0.0
C910 C 0.99121 0.91089 0.86745 0.0
H911 H 0.93072 0.89949 0.84161 0.0
H912 H 0.94838 0.91169 0.88104 0.0
H913 H 0.9535 0.90725 0.81666 0.0
H914 H 0.99873 0.87625 0.78236 0.0
H915 H 0.02237 0.90013 0.75416 0.0
H916 H 0.69208 0.90758 0.04179 0.0
H917 H 0.66977 0.91802 0.97613 0.0
H918 H 0.71747 0.93579 0.88589 0.0
H919 H 0.73979 0.92714 0.95281 0.0
H920 H 0.69802 0.96492 0.90825 0.0
H921 H 0.6456 0.90953 0.84121 0.0
H922 H 0.6469 0.90945 0.90817 0.0
H923 H 0.6678 0.90365 0.87388 0.0
C924 C 0.69789 0.91331 1.00756 0.0
C925 C 0.71778 0.91732 1.00393 0.0
C926 C 0.68504 0.91897 0.96945 0.0
C927 C 0.69192 0.92801 0.92627 0.0
C928 C 0.71182 0.92906 0.91917 0.0
H929 H 0.6124 0.99301 0.7337 0.0
H930 H 0.63614 0.96986 0.7615 0.0
C931 C 0.72465 0.92389 0.95771 0.0
C932 C 0.67906 0.94029 0.8957 0.0
H933 H 0.63421 0.94223 0.84033 0.0
C934 C 0.68428 0.95978 0.89235 0.0
C935 C 0.66111 0.93374 0.87485 0.0
C936 C 0.65515 0.9129 0.87429 0.0
C937 C 0.67172 0.97298 0.87117 0.0
C938 C 0.65322 0.96664 0.85395 0.0
C939 C 0.64831 0.94707 0.85452 0.0
C940 C 0.63862 0.98034 0.83728 0.0
C941 C 0.67824 0.99369 0.86834 0.0
C942 C 0.6321 0.99376 0.87092 0.0
C943 C 0.61872 0.00711 0.85512 0.0
C944 C 0.61157 0.00721 0.8054 0.0
C945 C 0.61796 0.99356 0.77198 0.0
C946 C 0.63134 0.9802 0.78786 0.0
H947 H 0.69419 0.99533 0.86944 0.0
H948 H 0.67251 1.00058 0.83368 0.0
H949 H 0.67284 1.00135 0.9009 0.0
H950 H 0.6374 0.9939 0.90945 0.0
H951 H 0.61407 0.01743 0.88168 0.0
H952 H 0.43385 0.69181 0.03225 0.0
H953 H 0.42399 0.66941 0.96698 0.0
H954 H 0.39129 0.71288 0.89133 0.0
H955 H 0.40148 0.73573 0.95691 0.0
H956 H 0.39018 0.65506 0.92809 0.0
H957 H 0.42859 0.69898 0.78576 0.0
H958 H 0.43086 0.70422 0.85155 0.0
H959 H 0.40922 0.7098 0.81667 0.0
C960 C 0.42416 0.69656 1.00252 0.0
C961 C 0.41849 0.71558 0.99971 0.0
C962 C 0.41857 0.68372 0.96501 0.0
C963 C 0.40715 0.68953 0.92382 0.0
C964 C 0.40046 0.7082 0.92223 0.0
H965 H 0.39701 0.58928 0.72559 0.0
H966 H 0.38485 0.61791 0.76442 0.0
C967 C 0.40622 0.7212 0.95975 0.0
C968 C 0.40393 0.67618 0.88148 0.0
H969 H 0.41953 0.66777 0.76432 0.0
C970 C 0.39617 0.6579 0.89176 0.0
C971 C 0.41176 0.68001 0.83414 0.0
C972 C 0.42069 0.69925 0.82115 0.0
C973 C 0.39771 0.64286 0.85804 0.0
C974 C 0.40666 0.64642 0.81195 0.0
C975 C 0.41272 0.66511 0.79972 0.0
C976 C 0.41313 0.63064 0.78069 0.0
C977 C 0.39132 0.62304 0.87412 0.0
C978 C 0.43294 0.62884 0.77426 0.0
C979 C 0.43984 0.61278 0.75143 0.0
C980 C 0.42708 0.59808 0.73476 0.0
C981 C 0.40716 0.60032 0.73866 0.0
C982 C 0.40022 0.6166 0.761 0.0
H983 H 0.3876 0.62237 0.91418 0.0
H984 H 0.37835 0.61842 0.85155 0.0
H985 H 0.40278 0.61274 0.868 0.0
H986 H 0.4432 0.63946 0.78922 0.0
H987 H 0.45527 0.61139 0.74952 0.0
H988 H 0.80286 0.58107 0.97411 0.0
H989 H 0.83001 0.57109 0.9271 0.0
H990 H 0.8666 0.61393 1.00018 0.0
H991 H 0.83928 0.62407 0.04804 0.0
H992 H 0.85706 0.58708 0.86414 0.0
H993 H 0.89054 0.56419 0.04618 0.0
H994 H 0.86608 0.57192 0.04089 0.0
H995 H 0.88578 0.58911 0.03952 0.0
C996 C 0.81647 0.58889 0.97908 0.0
C997 C 0.81894 0.60325 0.01529 0.0
C998 C 0.83205 0.58306 0.95228 0.0
C999 C 0.8504 0.59145 0.96108 0.0
C1000 C 0.85262 0.60697 0.99379 0.0
H1001 H 0.95465 0.53625 0.86457 0.0
H1002 H 0.93378 0.56024 0.89779 0.0
C1003 C 0.837 0.61278 0.02093 0.0
C1004 C 0.86721 0.58236 0.94001 0.0
H1005 H 0.90513 0.55469 0.97339 0.0
C1006 C 0.86777 0.58026 0.88796 0.0
C1007 C 0.88114 0.57342 0.97127 0.0
C1008 C 0.88089 0.57459 0.02758 0.0
C1009 C 0.8814 0.56883 0.86644 0.0
C1010 C 0.89464 0.55916 0.89787 0.0
C1011 C 0.89484 0.56211 0.9496 0.0
C1012 C 0.9073 0.54469 0.87822 0.0
C1013 C 0.88123 0.56677 0.81036 0.0
C1014 C 0.89924 0.5278 0.85773 0.0
C1015 C 0.91106 0.51391 0.83962 0.0
C1016 C 0.93119 0.51668 0.84164 0.0
C1017 C 0.93922 0.53352 0.86315 0.0
C1018 C 0.92735 0.54734 0.88159 0.0
H1019 H 0.87391 0.57876 0.79117 0.0
H1020 H 0.89611 0.5661 0.79674 0.0
H1021 H 0.87335 0.55332 0.79976 0.0
H1022 H 0.88377 0.52533 0.85595 0.0
H1023 H 0.90443 0.50101 0.82399 0.0
H1024 H 0.01222 0.19719 0.94106 0.0
H1025 H 0.00936 0.16801 0.89168 0.0
H1026 H 0.03725 0.1968 0.76963 0.0
H1027 H 0.03992 0.22619 0.81839 0.0
H1028 H 0.99241 0.1592 0.79561 0.0
H1029 H 0.07166 0.15101 0.80124 0.0
H1030 H 0.05998 0.16724 0.84152 0.0
H1031 H 0.06362 0.17347 0.7772 0.0
C1032 C 0.01737 0.19753 0.9033 0.0
C1033 C 0.02644 0.21414 0.88402 0.0
C1034 C 0.01584 0.18073 0.8752 0.0
C1035 C 0.02343 0.18006 0.82727 0.0
C1036 C 0.03166 0.19682 0.80693 0.0
H1037 H 1.00717 0.08456 0.61707 0.0
H1038 H 0.00794 0.11614 0.65572 0.0
C1039 C 0.03317 0.21364 0.83494 0.0
C1040 C 0.02334 0.16168 0.79952 0.0
H1041 H 0.05303 0.12847 0.75385 0.0
C1042 C 1.00566 0.15252 0.78627 0.0
C1043 C 0.04063 0.1528 0.78788 0.0
C1044 C 0.06008 0.1615 0.80298 0.0
C1045 C 1.0048 0.13484 0.76152 0.0
C1046 C 0.0221 0.1261 0.74928 0.0
C1047 C 0.03977 0.13522 0.76276 0.0
C1048 C 0.02218 0.1071 0.7246 0.0
C1049 C 0.98539 0.12539 0.74985 0.0
C1050 C 0.03044 0.09157 0.7497 0.0
C1051 C 0.03008 0.0735 0.72768 0.0
C1052 C 0.0216 0.07053 0.67971 0.0
C1053 C 0.01381 0.08625 0.65403 0.0
C1054 C 0.0141 0.10433 0.67625 0.0
H1055 H 0.9738 0.13184 0.77106 0.0
H1056 H 0.98182 0.12705 0.70935 0.0
H1057 H 0.98558 0.1099 0.7586 0.0
H1058 H 0.03685 0.09334 0.7869 0.0
H1059 H 0.03626 0.06181 0.74865 0.0
H1060 H 0.33773 0.06656 0.93157 0.0
H1061 H 0.36659 0.06145 0.88491 0.0
H1062 H 0.34343 0.00657 0.8374 0.0
H1063 H 0.31401 0.01186 0.88294 0.0
H1064 H 0.39313 0.03362 0.89577 0.0
H1065 H 0.35916 0.03068 0.7051 0.0
H1066 H 0.34675 0.03918 0.75834 0.0
H1067 H 0.34903 0.01403 0.7491 0.0
C1068 C 0.33852 0.0535 0.91054 0.0
C1069 C 0.32326 0.03977 0.91052 0.0
C1070 C 0.3552 0.05053 0.88415 0.0
C1071 C 0.35716 0.03377 0.85682 0.0
C1072 C 0.34215 0.01982 0.85728 0.0
H1073 H 0.45015 0.99431 0.67571 0.0
H1074 H 0.42046 0.99777 0.72055 0.0
C1075 C 0.32538 0.02278 0.88382 0.0
C1076 C 0.37515 0.03093 0.82898 0.0
H1077 H 0.39237 0.02444 0.71213 0.0
C1078 C 0.39294 0.03163 0.85559 0.0
C1079 C 0.375 0.02831 0.77651 0.0
C1080 C 0.3565 0.02816 0.74538 0.0
C1081 C 0.41045 0.02964 0.83146 0.0
C1082 C 0.41032 0.02725 0.77892 0.0
C1083 C 0.39253 0.02634 0.75233 0.0
C1084 C 0.42846 0.02547 0.75096 0.0
C1085 C 0.42892 0.02973 0.86271 0.0
C1086 C 0.44286 0.04004 0.75219 0.0
C1087 C 0.45998 0.03811 0.72649 0.0
C1088 C 0.46305 0.0216 0.69869 0.0
C1089 C 0.44842 0.00722 0.69679 0.0
C1090 C 0.43134 0.00917 0.72244 0.0
H1091 H 0.42624 0.02644 0.90262 0.0
H1092 H 0.439 0.01923 0.84863 0.0
H1093 H 0.43601 0.04411 0.86082 0.0
H1094 H 0.44085 0.05297 0.77294 0.0
H1095 H 0.47081 0.04954 0.72861 0.0
H1096 H 0.48606 0.32084 0.92902 0.0
H1097 H 0.48052 0.34964 0.87899 0.0
H1098 H 0.52593 0.33478 0.78201 0.0
H1099 H 0.5309 0.30563 0.8302 0.0
H1100 H 0.50557 0.37879 0.86846 0.0
H1101 H 0.48637 0.35102 0.68007 0.0
H1102 H 0.48649 0.33593 0.73502 0.0
H1103 H 0.50855 0.34163 0.70387 0.0
C1104 C 0.49444 0.32338 0.89609 0.0
C1105 C 0.50898 0.31089 0.88383 0.0
C1106 C 0.49137 0.33997 0.86774 0.0
C1107 C 0.50268 0.34438 0.82632 0.0
C1108 C 0.51672 0.33159 0.81302 0.0
H1109 H 0.53343 0.44437 0.65365 0.0
H1110 H 0.53029 0.41287 0.69313 0.0
C1111 C 0.51971 0.31499 0.84111 0.0
C1112 C 0.50111 0.36311 0.79993 0.0
H1113 H 0.49743 0.3839 0.68399 0.0
C1114 C 0.50348 0.37987 0.8282 0.0
C1115 C 0.49844 0.36462 0.7473 0.0
C1116 C 0.49462 0.34733 0.7149 0.0
C1117 C 0.50394 0.39797 0.80527 0.0
C1118 C 0.50188 0.39942 0.75264 0.0
C1119 C 0.49913 0.38274 0.72434 0.0
C1120 C 0.50308 0.41815 0.72643 0.0
C1121 C 0.50726 0.41544 0.83732 0.0
C1122 C 0.48863 0.43146 0.73129 0.0
C1123 C 0.49032 0.44947 0.70857 0.0
C1124 C 0.50655 0.45457 0.68071 0.0
C1125 C 0.52079 0.44101 0.67504 0.0
C1126 C 0.51901 0.42295 0.69747 0.0
H1127 H 0.51171 0.41176 0.87638 0.0
H1128 H 0.5185 0.42507 0.82129 0.0
H1129 H 0.49375 0.42341 0.83822 0.0
H1130 H 0.47613 0.42797 0.7531 0.0
H1131 H 0.47907 0.45951 0.71375 0.0
H1132 H 0.22522 0.49339 0.83917 0.0
H1133 H 0.19413 0.49956 0.79713 0.0
H1134 H 0.17249 0.44405 0.84262 0.0
H1135 H 0.20301 0.43807 0.88621 0.0
H1136 H 0.17281 0.48002 0.72079 0.0
H1137 H 0.13298 0.47948 0.89703 0.0
H1138 H 0.15893 0.48081 0.89621 0.0
H1139 H 0.14617 0.45829 0.8879 0.0
C1140 C 0.21383 0.48251 0.84037 0.0
C1141 C 0.21672 0.46523 0.86632 0.0
C1142 C 0.1961 0.48602 0.81606 0.0
C1143 C 0.18085 0.4724 0.81747 0.0
C1144 C 0.1839 0.45492 0.84177 0.0
H1145 H 0.06078 0.46738 0.71232 0.0
H1146 H 0.09299 0.46012 0.74576 0.0
C1147 C 0.20154 0.45142 0.86612 0.0
C1148 C 0.16163 0.47649 0.79446 0.0
H1149 H 0.11415 0.47987 0.82147 0.0
C1150 C 0.15999 0.48009 0.7428 0.0
C1151 C 0.14489 0.47657 0.82321 0.0
C1152 C 0.14578 0.47376 0.87923 0.0
C1153 C 0.14203 0.48337 0.719 0.0
C1154 C 0.1253 0.48331 0.74777 0.0
C1155 C 0.12695 0.47977 0.7994 0.0
C1156 C 0.10598 0.48741 0.72543 0.0
C1157 C 0.14106 0.48648 0.66312 0.0
C1158 C 0.10252 0.50521 0.70331 0.0
C1159 C 0.08414 0.50943 0.68439 0.0
C1160 C 0.06875 0.49595 0.68723 0.0
C1161 C 0.07227 0.47809 0.70936 0.0
C1162 C 0.09068 0.47391 0.72848 0.0
H1163 H 0.15396 0.48112 0.64502 0.0
H1164 H 0.128 0.47932 0.64599 0.0
H1165 H 0.14035 0.50199 0.65505 0.0
H1166 H 0.11396 0.51602 0.70151 0.0
H1167 H 0.082 0.5234 0.66807 0.0
H1168 H 0.96524 0.80726 0.41715 0.0
H1169 H 0.96936 0.83735 0.46236 0.0
H1170 H 0.01496 0.85501 0.36529 0.0
H1171 H 0.01049 0.82521 0.31874 0.0
H1172 H 0.99961 0.85487 0.51435 0.0
H1173 H 0.97829 0.89887 0.34982 0.0
H1174 H 0.97497 0.87327 0.35097 0.0
H1175 H 0.99825 0.88398 0.3393 0.0
C1176 C 0.97616 0.81753 0.40532 0.0
C1177 C 0.98737 0.81381 0.36378 0.0
C1178 C 0.97856 0.83473 0.43143 0.0
C1179 C 0.99217 0.8487 0.41664 0.0
C1180 C 1.00405 0.84468 0.37679 0.0
H1181 H 0.03164 0.94926 0.58406 0.0
H1182 H 0.02775 0.91801 0.54524 0.0
C1183 C 1.00166 0.82746 0.35059 0.0
C1184 C 0.99359 0.86757 0.44227 0.0
H1185 H 0.99 0.91556 0.42194 0.0
C1186 C 0.9975 0.86813 0.49412 0.0
C1187 C 0.99046 0.88492 0.4162 0.0
C1188 C 0.98507 0.88531 0.36111 0.0
C1189 C 0.99874 0.8855 0.52031 0.0
C1190 C 0.9963 0.90289 0.4939 0.0
C1191 C 0.99202 0.9023 0.44223 0.0
C1192 C 0.99837 0.92185 0.51892 0.0
C1193 C 1.00232 0.885 0.57623 0.0
C1194 C 0.98329 0.93475 0.51639 0.0
C1195 C 0.98551 0.95282 0.53848 0.0
C1196 C 1.00292 0.95844 0.56331 0.0
C1197 C 0.01796 0.94545 0.56573 0.0
C1198 C 0.01573 0.92745 0.5437 0.0
H1199 H 0.99819 0.87087 0.5924 0.0
H1200 H 0.01789 0.88769 0.58475 0.0
H1201 H 0.99419 0.89613 0.59492 0.0
H1202 H 0.96979 0.93084 0.49724 0.0
H1203 H 0.97365 0.96243 0.53564 0.0
H1204 H 0.69055 0.99964 0.27755 0.0
H1205 H 0.66123 1.00196 0.32491 0.0
H1206 H 0.69489 1.00061 0.46295 0.0
H1207 H 0.72441 0.99848 0.41577 0.0
H1208 H 0.64797 0.97441 0.3987 0.0
H1209 H 0.6595 0.04701 0.47815 0.0
H1210 H 0.67209 0.03914 0.42446 0.0
H1211 H 0.67921 0.03116 0.48602 0.0
C1212 C 0.69182 1.00023 0.31797 0.0
C1213 C 0.70995 0.99901 0.34273 0.0
C1214 C 0.67498 1.00139 0.34503 0.0
C1215 C 0.67581 1.00161 0.39753 0.0
C1216 C 0.69387 1.0007 0.42247 0.0
H1217 H 0.5865 0.00918 0.61972 0.0
H1218 H 0.61698 0.00719 0.57708 0.0
C1219 C 0.71074 0.99936 0.39541 0.0
C1220 C 0.65769 1.00195 0.42595 0.0
H1221 H 0.63234 0.02907 0.50475 0.0
C1222 C 0.64453 0.98638 0.42184 0.0
C1223 C 0.65326 0.01747 0.45652 0.0
C1224 C 0.66664 0.03475 0.4615 0.0
C1225 C 0.62719 0.98582 0.44766 0.0
C1226 C 0.62251 1.00153 0.47747 0.0
C1227 C 0.6358 0.01703 0.48194 0.0
C1228 C 0.60384 1.00229 0.50364 0.0
C1229 C 0.61429 0.96815 0.44361 0.0
C1230 C 0.58616 1.00036 0.47679 0.0
C1231 C 0.56867 1.00131 0.50117 0.0
C1232 C 0.56837 1.0045 0.55303 0.0
C1233 C 0.5861 0.00661 0.57983 0.0
C1234 C 0.60359 0.00553 0.55542 0.0
H1235 H 0.62247 0.9555 0.43332 0.0
H1236 H 0.60707 0.96501 0.47929 0.0
H1237 H 0.60306 0.97034 0.41388 0.0
H1238 H 0.58584 0.99838 0.43668 0.0
H1239 H 0.55537 0.99985 0.47911 0.0
H1240 H 0.4979 0.71938 0.41058 0.0
H1241 H 0.50232 0.6911 0.46326 0.0
H1242 H 0.53777 0.6672 0.352 0.0
H1243 H 0.53343 0.69546 0.29916 0.0
H1244 H 0.49026 0.65505 0.43681 0.0
H1245 H 0.5688 0.65639 0.47981 0.0
H1246 H 0.5565 0.67694 0.45559 0.0
H1247 H 0.56283 0.65824 0.41421 0.0
C1248 C 0.50688 0.70823 0.39764 0.0
C1249 C 0.51528 0.70969 0.35054 0.0
C1250 C 0.50942 0.69207 0.42785 0.0
C1251 C 0.52049 0.67703 0.41187 0.0
C1252 C 0.5295 0.67876 0.36573 0.0
H1253 H 0.53748 0.56006 0.5027 0.0
H1254 H 0.53804 0.59159 0.46332 0.0
C1255 C 0.52702 0.69496 0.3355 0.0
C1256 C 0.52111 0.65892 0.44129 0.0
H1257 H 0.55149 0.6273 0.49758 0.0
C1258 C 0.50365 0.64909 0.45056 0.0
C1259 C 0.53857 0.65106 0.45901 0.0
C1260 C 0.55773 0.66127 0.45211 0.0
C1261 C 0.50317 0.63145 0.47582 0.0
C1262 C 0.52063 0.62351 0.4932 0.0
C1263 C 0.5381 0.63339 0.48433 0.0
C1264 C 0.52104 0.60465 0.51912 0.0
C1265 C 0.48398 0.62117 0.48215 0.0
C1266 C 0.51163 0.60154 0.56428 0.0
C1267 C 0.51123 0.58346 0.58696 0.0
C1268 C 0.52034 0.56811 0.56508 0.0
C1269 C 0.53024 0.57147 0.52062 0.0
C1270 C 0.53062 0.58953 0.49801 0.0
H1271 H 0.47266 0.62681 0.45634 0.0
H1272 H 0.48507 0.60565 0.47545 0.0
H1273 H 0.47933 0.62308 0.52101 0.0
H1274 H 0.50446 0.61307 0.58184 0.0
H1275 H 0.50357 0.58149 0.62131 0.0
H1276 H 0.80139 0.52297 0.40846 0.0
H1277 H 0.83102 0.51572 0.45626 0.0
H1278 H 0.85433 0.57195 0.42374 0.0
H1279 H 0.82519 0.57919 0.37538 0.0
H1280 H 0.86875 0.51616 0.42049 0.0
H1281 H 0.86336 0.56729 0.57574 0.0
H1282 H 0.84301 0.56041 0.53538 0.0
H1283 H 0.86043 0.57806 0.51497 0.0
C1284 C 0.81278 0.53383 0.41162 0.0
C1285 C 0.81071 0.55176 0.38838 0.0
C1286 C 0.82968 0.52968 0.43913 0.0
C1287 C 0.84476 0.54342 0.44431 0.0
C1288 C 0.8427 0.5613 0.4214 0.0
H1289 H 0.96659 0.53255 0.50106 0.0
H1290 H 0.93403 0.53711 0.46677 0.0
C1291 C 0.82592 0.56543 0.39382 0.0
C1292 C 0.86314 0.53887 0.4711 0.0
H1293 H 0.89429 0.55418 0.565 0.0
C1294 C 0.87424 0.52433 0.45243 0.0
C1295 C 0.87024 0.54941 0.51307 0.0
C1296 C 0.85857 0.56455 0.53634 0.0
C1297 C 0.89254 0.52055 0.47339 0.0
C1298 C 0.90005 0.53175 0.51372 0.0
C1299 C 0.88864 0.54577 0.53368 0.0
C1300 C 0.91984 0.52933 0.53509 0.0
C1301 C 0.9037 0.50459 0.45213 0.0
C1302 C 0.92276 0.52398 0.58537 0.0
C1303 C 0.9414 0.52142 0.60524 0.0
C1304 C 0.95753 0.52433 0.57528 0.0
C1305 C 0.95454 0.53011 0.52521 0.0
C1306 C 0.93591 0.5326 0.50539 0.0
H1307 H 0.89413 0.49428 0.43105 0.0
H1308 H 0.91437 0.51066 0.42596 0.0
H1309 H 0.91161 0.49679 0.4822 0.0
H1310 H 0.91058 0.52151 0.60907 0.0
H1311 H 0.94312 0.517 0.64396 0.0
loop_
_geom_bond_atom_site_label_1
_geom_bond_atom_site_label_2
_geom_bond_distance
_geom_bond_site_symmetry_2
_ccdc_geom_bond_type
C0 C1 1.384 . S
C0 H13 0.947 . S
C0 C35 1.382 . S
C1 C0 1.384 . S
C1 C2 1.378 . S
C2 C1 1.378 . S
C2 C3 1.378 . S
C2 H14 0.952 . S
C3 C2 1.378 . S
C3 H15 0.950 . S
C3 C34 1.383 . S
H4 C23 0.947 . S
H5 C24 0.946 . S
H6 C26 0.953 . S
H7 C27 0.945 . S
H8 C29 0.952 . S
H9 C30 0.949 . S
H10 C32 0.950 . S
H11 C33 0.948 . S
H12 C35 0.951 . S
H13 C0 0.947 . S
H14 C2 0.952 . S
H15 C3 0.950 . S
N16 C19 1.382 . S
N16 C21 1.363 . S
N17 C19 1.371 . S
N17 C20 1.372 . S
N18 C20 1.361 . S
N18 C21 1.377 . S
C19 N16 1.382 . S
C19 N17 1.371 . S
C19 C22 1.480 . S
C20 N17 1.372 . S
C20 N18 1.361 . S
C20 C28 1.457 . S
C21 N16 1.363 . S
C21 N18 1.377 . S
C21 C34 1.479 . S
C22 C19 1.480 . S
C22 C23 1.383 . S
C22 C27 1.385 . S
C23 H4 0.947 . S
C23 C22 1.383 . S
C23 C24 1.388 . S
C24 H5 0.946 . S
C24 C23 1.388 . S
C24 C25 1.384 . S
C25 C24 1.384 . S
C25 C26 1.377 . S
C26 H6 0.953 . S
C26 C25 1.377 . S
C26 C27 1.369 . S
C27 H7 0.945 . S
C27 C22 1.385 . S
C27 C26 1.369 . S
C28 C20 1.457 . S
C28 C29 1.372 . S
C28 C33 1.364 . S
C29 H8 0.952 . S
C29 C28 1.372 . S
C29 C30 1.389 1_554 S
C30 H9 0.949 . S
C30 C29 1.389 1_556 S
C30 C31 1.387 1_556 S
C31 C30 1.387 1_554 S
C31 C32 1.372 . S
C32 H10 0.950 . S
C32 C31 1.372 . S
C32 C33 1.379 . S
C33 H11 0.948 . S
C33 C28 1.364 . S
C33 C32 1.379 . S
C34 C3 1.383 . S
C34 C21 1.479 . S
C34 C35 1.398 . S
C35 C0 1.382 . S
C35 H12 0.951 . S
C35 C34 1.398 . S
C36 C37 1.384 . S
C36 H49 0.947 . S
C36 C71 1.382 . S
C37 C36 1.384 . S
C37 C38 1.378 . S
C38 C37 1.378 . S
C38 C39 1.378 . S
C38 H50 0.952 . S
C39 C38 1.378 . S
C39 H51 0.950 . S
C39 C70 1.383 . S
H40 C59 0.947 . S
H41 C60 0.946 . S
H42 C62 0.953 . S
H43 C63 0.945 . S
H44 C65 0.952 . S
H45 C66 0.949 . S
H46 C68 0.950 . S
H47 C69 0.948 . S
H48 C71 0.951 . S
H49 C36 0.947 . S
H50 C38 0.952 . S
H51 C39 0.950 . S
N52 C55 1.382 . S
N52 C57 1.363 . S
N53 C55 1.371 . S
N53 C56 1.372 . S
N54 C56 1.361 . S
N54 C57 1.377 . S
C55 N52 1.382 . S
C55 N53 1.371 . S
C55 C58 1.480 . S
C56 N53 1.372 . S
C56 N54 1.361 . S
C56 C64 1.457 . S
C57 N52 1.363 . S
C57 N54 1.377 . S
C57 C70 1.479 . S
C58 C55 1.480 . S
C58 C59 1.383 . S
C58 C63 1.385 . S
C59 H40 0.947 . S
C59 C58 1.383 . S
C59 C60 1.388 . S
C60 H41 0.946 . S
C60 C59 1.388 . S
C60 C61 1.384 . S
C61 C60 1.384 . S
C61 C62 1.377 . S
C62 H42 0.953 . S
C62 C61 1.377 . S
C62 C63 1.369 . S
C63 H43 0.945 . S
C63 C58 1.385 . S
C63 C62 1.369 . S
C64 C56 1.457 . S
C64 C65 1.372 . S
C64 C69 1.364 . S
C65 H44 0.952 . S
C65 C64 1.372 . S
C65 C66 1.389 . S
C66 H45 0.949 . S
C66 C65 1.389 . S
C66 C67 1.387 . S
C67 C66 1.387 . S
C67 C68 1.372 . S
C68 H46 0.950 . S
C68 C67 1.372 . S
C68 C69 1.379 . S
C69 H47 0.948 . S
C69 C64 1.364 . S
C69 C68 1.379 . S
C70 C39 1.383 . S
C70 C57 1.479 . S
C70 C71 1.398 . S
C71 C36 1.382 . S
C71 H48 0.951 . S
C71 C70 1.398 . S
C72 C73 1.384 . S
C72 H85 0.947 . S
C72 C107 1.382 . S
C73 C72 1.384 . S
C73 C74 1.378 . S
C74 C73 1.378 . S
C74 C75 1.378 . S
C74 H86 0.952 . S
C75 C74 1.378 . S
C75 H87 0.950 . S
C75 C106 1.383 . S
H76 C95 0.947 . S
H77 C96 0.946 . S
H78 C98 0.953 . S
H79 C99 0.945 . S
H80 C101 0.952 . S
H81 C102 0.949 . S
H82 C104 0.950 . S
H83 C105 0.948 . S
H84 C107 0.951 . S
H85 C72 0.947 . S
H86 C74 0.952 . S
H87 C75 0.950 . S
N88 C91 1.382 . S
N88 C93 1.363 . S
N89 C91 1.371 . S
N89 C92 1.372 . S
N90 C92 1.361 . S
N90 C93 1.377 . S
C91 N88 1.382 . S
C91 N89 1.371 . S
C91 C94 1.480 . S
C92 N89 1.372 . S
C92 N90 1.361 . S
C92 C100 1.457 . S
C93 N88 1.363 . S
C93 N90 1.377 . S
C93 C106 1.479 . S
C94 C91 1.480 . S
C94 C95 1.383 . S
C94 C99 1.385 . S
C95 H76 0.947 . S
C95 C94 1.383 . S
C95 C96 1.388 . S
C96 H77 0.946 . S
C96 C95 1.388 . S
C96 C97 1.384 . S
C97 C96 1.384 . S
C97 C98 1.377 . S
C98 H78 0.953 . S
C98 C97 1.377 . S
C98 C99 1.369 . S
C99 H79 0.945 . S
C99 C94 1.385 . S
C99 C98 1.369 . S
C100 C92 1.457 . S
C100 C101 1.372 . S
C100 C105 1.364 . S
C101 H80 0.952 . S
C101 C100 1.372 . S
C101 C102 1.389 . S
C102 H81 0.949 . S
C102 C101 1.389 . S
C102 C103 1.387 . S
C103 C102 1.387 . S
C103 C104 1.372 . S
C104 H82 0.950 . S
C104 C103 1.372 . S
C104 C105 1.379 . S
C105 H83 0.948 . S
C105 C100 1.364 . S
C105 C104 1.379 . S
C106 C75 1.383 . S
C106 C93 1.479 . S
C106 C107 1.398 . S
C107 C72 1.382 . S
C107 H84 0.951 . S
C107 C106 1.398 . S
C108 C109 1.384 . S
C108 H121 0.947 . S
C108 C143 1.382 . S
C109 C108 1.384 . S
C109 C110 1.378 . S
C110 C109 1.378 . S
C110 C111 1.378 . S
C110 H122 0.952 1_554 S
C111 C110 1.378 . S
C111 H123 0.950 . S
C111 C142 1.383 . S
H112 C131 0.947 . S
H113 C132 0.946 . S
H114 C134 0.953 . S
H115 C135 0.945 . S
H116 C137 0.952 . S
H117 C138 0.949 . S
H118 C140 0.950 . S
H119 C141 0.948 . S
H120 C143 0.951 . S
H121 C108 0.947 . S
H122 C110 0.952 1_556 S
H123 C111 0.950 . S
N124 C127 1.382 . S
N124 C129 1.363 . S
N125 C127 1.371 . S
N125 C128 1.372 . S
N126 C128 1.361 . S
N126 C129 1.377 . S
C127 N124 1.382 . S
C127 N125 1.371 . S
C127 C130 1.480 . S
C128 N125 1.372 . S
C128 N126 1.361 . S
C128 C136 1.457 . S
C129 N124 1.363 . S
C129 N126 1.377 . S
C129 C142 1.479 . S
C130 C127 1.480 . S
C130 C131 1.383 . S
C130 C135 1.385 . S
C131 H112 0.947 . S
C131 C130 1.383 . S
C131 C132 1.388 . S
C132 H113 0.946 . S
C132 C131 1.388 . S
C132 C133 1.384 . S
C133 C132 1.384 . S
C133 C134 1.377 . S
C134 H114 0.953 . S
C134 C133 1.377 . S
C134 C135 1.369 . S
C135 H115 0.945 . S
C135 C130 1.385 . S
C135 C134 1.369 . S
C136 C128 1.457 . S
C136 C137 1.372 . S
C136 C141 1.364 . S
C137 H116 0.952 . S
C137 C136 1.372 . S
C137 C138 1.389 . S
C138 H117 0.949 . S
C138 C137 1.389 . S
C138 C139 1.387 . S
C139 C138 1.387 . S
C139 C140 1.372 . S
C140 H118 0.950 . S
C140 C139 1.372 . S
C140 C141 1.379 . S
C141 H119 0.948 . S
C141 C136 1.364 . S
C141 C140 1.379 . S
C142 C111 1.383 . S
C142 C129 1.479 . S
C142 C143 1.398 . S
C143 C108 1.382 . S
C143 H120 0.951 . S
C143 C142 1.398 . S
C144 C145 1.384 . S
C144 H157 0.947 . S
C144 C179 1.382 . S
C145 C144 1.384 . S
C145 C146 1.378 . S
C146 C145 1.378 . S
C146 C147 1.378 . S
C146 H158 0.952 . S
C147 C146 1.378 . S
C147 H159 0.950 . S
C147 C178 1.383 . S
H148 C167 0.947 . S
H149 C168 0.946 . S
H150 C170 0.953 . S
H151 C171 0.945 . S
H152 C173 0.952 . S
H153 C174 0.949 . S
H154 C176 0.950 . S
H155 C177 0.948 . S
H156 C179 0.951 . S
H157 C144 0.947 . S
H158 C146 0.952 . S
H159 C147 0.950 . S
N160 C163 1.382 . S
N160 C165 1.363 . S
N161 C163 1.371 . S
N161 C164 1.372 . S
N162 C164 1.361 . S
N162 C165 1.377 . S
C163 N160 1.382 . S
C163 N161 1.371 . S
C163 C166 1.480 . S
C164 N161 1.372 . S
C164 N162 1.361 . S
C164 C172 1.457 . S
C165 N160 1.363 . S
C165 N162 1.377 . S
C165 C178 1.479 1_554 S
C166 C163 1.480 . S
C166 C167 1.383 . S
C166 C171 1.385 . S
C167 H148 0.947 . S
C167 C166 1.383 . S
C167 C168 1.388 . S
C168 H149 0.946 . S
C168 C167 1.388 . S
C168 C169 1.384 . S
C169 C168 1.384 . S
C169 C170 1.377 . S
C170 H150 0.953 . S
C170 C169 1.377 . S
C170 C171 1.369 . S
C171 H151 0.945 . S
C171 C166 1.385 . S
C171 C170 1.369 . S
C172 C164 1.457 . S
C172 C173 1.372 . S
C172 C177 1.364 . S
C173 H152 0.952 . S
C173 C172 1.372 . S
C173 C174 1.389 . S
C174 H153 0.949 . S
C174 C173 1.389 . S
C174 C175 1.387 . S
C175 C174 1.387 . S
C175 C176 1.372 . S
C176 H154 0.950 . S
C176 C175 1.372 . S
C176 C177 1.379 . S
C177 H155 0.948 . S
C177 C172 1.364 . S
C177 C176 1.379 . S
C178 C147 1.383 . S
C178 C165 1.479 1_556 S
C178 C179 1.398 . S
C179 C144 1.382 . S
C179 H156 0.951 . S
C179 C178 1.398 . S
C180 C181 1.384 . S
C180 H193 0.947 . S
C180 C215 1.382 . S
C181 C180 1.384 . S
C181 C182 1.378 . S
C182 C181 1.378 . S
C182 C183 1.378 . S
C182 H194 0.952 . S
C183 C182 1.378 . S
C183 H195 0.950 . S
C183 C214 1.383 . S
H184 C203 0.947 1_556 S
H185 C204 0.946 . S
H186 C206 0.953 . S
H187 C207 0.945 . S
H188 C209 0.952 . S
H189 C210 0.949 . S
H190 C212 0.950 . S
H191 C213 0.948 . S
H192 C215 0.951 . S
H193 C180 0.947 . S
H194 C182 0.952 . S
H195 C183 0.950 . S
N196 C199 1.382 1_556 S
N196 C201 1.363 . S
N197 C199 1.371 . S
N197 C200 1.372 . S
N198 C200 1.361 . S
N198 C201 1.377 1_554 S
C199 N196 1.382 1_554 S
C199 N197 1.371 . S
C199 C202 1.480 . S
C200 N197 1.372 . S
C200 N198 1.361 . S
C200 C208 1.457 . S
C201 N196 1.363 . S
C201 N198 1.377 1_556 S
C201 C214 1.479 . S
C202 C199 1.480 . S
C202 C203 1.383 . S
C202 C207 1.385 . S
C203 H184 0.947 1_554 S
C203 C202 1.383 . S
C203 C204 1.388 . S
C204 H185 0.946 . S
C204 C203 1.388 . S
C204 C205 1.384 . S
C205 C204 1.384 . S
C205 C206 1.377 . S
C206 H186 0.953 . S
C206 C205 1.377 . S
C206 C207 1.369 . S
C207 H187 0.945 . S
C207 C202 1.385 . S
C207 C206 1.369 . S
C208 C200 1.457 . S
C208 C209 1.372 . S
C208 C213 1.364 . S
C209 H188 0.952 . S
C209 C208 1.372 . S
C209 C210 1.389 . S
C210 H189 0.949 . S
C210 C209 1.389 . S
C210 C211 1.387 . S
C211 C210 1.387 . S
C211 C212 1.372 . S
C212 H190 0.950 . S
C212 C211 1.372 . S
C212 C213 1.379 . S
C213 H191 0.948 . S
C213 C208 1.364 . S
C213 C212 1.379 . S
C214 C183 1.383 . S
C214 C201 1.479 . S
C214 C215 1.398 . S
C215 C180 1.382 . S
C215 H192 0.951 . S
C215 C214 1.398 . S
C216 C217 1.384 . S
C216 H229 0.947 . S
C216 C251 1.382 . S
C217 C216 1.384 . S
C217 C218 1.378 . S
C218 C217 1.378 . S
C218 C219 1.378 . S
C218 H230 0.952 . S
C219 C218 1.378 . S
C219 H231 0.950 . S
C219 C250 1.383 . S
H220 C239 0.947 . S
H221 C240 0.946 1_556 S
H222 C242 0.953 . S
H223 C243 0.945 . S
H224 C245 0.952 . S
H225 C246 0.949 . S
H226 C248 0.950 . S
H227 C249 0.948 . S
H228 C251 0.951 . S
H229 C216 0.947 . S
H230 C218 0.952 . S
H231 C219 0.950 . S
N232 C235 1.382 1_556 S
N232 C237 1.363 . S
N233 C235 1.371 . S
N233 C236 1.372 . S
N234 C236 1.361 1_556 S
N234 C237 1.377 . S
C235 N232 1.382 1_554 S
C235 N233 1.371 . S
C235 C238 1.480 . S
C236 N233 1.372 . S
C236 N234 1.361 1_554 S
C236 C244 1.457 . S
C237 N232 1.363 . S
C237 N234 1.377 . S
C237 C250 1.479 . S
C238 C235 1.480 . S
C238 C239 1.383 1_554 S
C238 C243 1.385 . S
C239 H220 0.947 . S
C239 C238 1.383 1_556 S
C239 C240 1.388 1_556 S
C240 H221 0.946 1_554 S
C240 C239 1.388 1_554 S
C240 C241 1.384 . S
C241 C240 1.384 . S
C241 C242 1.377 . S
C242 H222 0.953 . S
C242 C241 1.377 . S
C242 C243 1.369 . S
C243 H223 0.945 . S
C243 C238 1.385 . S
C243 C242 1.369 . S
C244 C236 1.457 . S
C244 C245 1.372 . S
C244 C249 1.364 . S
C245 H224 0.952 . S
C245 C244 1.372 . S
C245 C246 1.389 . S
C246 H225 0.949 . S
C246 C245 1.389 . S
C246 C247 1.387 . S
C247 C246 1.387 . S
C247 C248 1.372 . S
C248 H226 0.950 . S
C248 C247 1.372 . S
C248 C249 1.379 . S
C249 H227 0.948 . S
C249 C244 1.364 . S
C249 C248 1.379 . S
C250 C219 1.383 . S
C250 C237 1.479 . S
C250 C251 1.398 . S
C251 C216 1.382 . S
C251 H228 0.951 . S
C251 C250 1.398 . S
C252 C253 1.384 . S
C252 H265 0.947 . S
C252 C287 1.382 . S
C253 C252 1.384 . S
C253 C254 1.378 . S
C254 C253 1.378 . S
C254 C255 1.378 . S
C254 H266 0.952 . S
C255 C254 1.378 . S
C255 H267 0.950 . S
C255 C286 1.383 . S
H256 C275 0.947 . S
H257 C276 0.946 . S
H258 C278 0.953 . S
H259 C279 0.945 . S
H260 C281 0.952 . S
H261 C282 0.949 . S
H262 C284 0.950 . S
H263 C285 0.948 . S
H264 C287 0.951 . S
H265 C252 0.947 . S
H266 C254 0.952 . S
H267 C255 0.950 . S
N268 C271 1.382 . S
N268 C273 1.363 . S
N269 C271 1.371 . S
N269 C272 1.372 . S
N270 C272 1.361 . S
N270 C273 1.377 . S
C271 N268 1.382 . S
C271 N269 1.371 . S
C271 C274 1.480 . S
C272 N269 1.372 . S
C272 N270 1.361 . S
C272 C280 1.457 1_554 S
C273 N268 1.363 . S
C273 N270 1.377 . S
C273 C286 1.479 . S
C274 C271 1.480 . S
C274 C275 1.383 . S
C274 C279 1.385 . S
C275 H256 0.947 . S
C275 C274 1.383 . S
C275 C276 1.388 . S
C276 H257 0.946 . S
C276 C275 1.388 . S
C276 C277 1.384 . S
C277 C276 1.384 . S
C277 C278 1.377 . S
C278 H258 0.953 . S
C278 C277 1.377 . S
C278 C279 1.369 . S
C279 H259 0.945 . S
C279 C274 1.385 . S
C279 C278 1.369 . S
C280 C272 1.457 1_556 S
C280 C281 1.372 . S
C280 C285 1.364 . S
C281 H260 0.952 . S
C281 C280 1.372 . S
C281 C282 1.389 . S
C282 H261 0.949 . S
C282 C281 1.389 . S
C282 C283 1.387 . S
C283 C282 1.387 . S
C283 C284 1.372 . S
C284 H262 0.950 . S
C284 C283 1.372 . S
C284 C285 1.379 . S
C285 H263 0.948 . S
C285 C280 1.364 . S
C285 C284 1.379 . S
C286 C255 1.383 . S
C286 C273 1.479 . S
C286 C287 1.398 . S
C287 C252 1.382 . S
C287 H264 0.951 . S
C287 C286 1.398 . S
Eu288 C297 2.828 . S
Eu288 O299 2.392 . S
Eu288 O301 2.418 1_545 S
Eu288 O306 2.373 1_655 S
Eu288 O309 2.488 . S
Eu288 O310 2.471 . S
Eu288 O311 2.349 1_655 S
Eu289 O298 2.373 1_455 S
Eu289 O302 2.488 . S
Eu289 O303 2.471 . S
Eu289 O304 2.349 . S
Eu289 O307 2.392 1_565 S
Eu289 O308 2.418 1_565 S
Eu289 C318 2.828 . S
C290 O308 1.244 . S
C290 O311 1.265 . S
C291 C292 1.379 1_655 S
C291 C295 1.373 . S
C291 C297 1.505 . S
C292 C291 1.379 1_455 S
C292 C294 1.369 . S
C292 H320 0.930 . S
C293 C295 1.383 . S
C293 C296 1.382 1_655 S
C293 H321 0.930 . S
C294 C292 1.369 . S
C294 C296 1.392 . S
C294 H322 0.930 . S
C295 C291 1.373 . S
C295 C293 1.383 . S
C295 H323 0.931 . S
C296 C293 1.382 1_455 S
C296 C294 1.392 . S
C297 Eu288 2.828 . S
C297 C291 1.505 . S
C297 O309 1.249 . S
C297 O310 1.244 . S
O298 Eu289 2.373 1_655 S
O298 C300 1.258 . S
O299 Eu288 2.392 . S
O299 C300 1.242 1_545 S
C300 O298 1.258 . S
C300 O299 1.242 1_565 S
O301 Eu288 2.418 1_565 S
O301 C305 1.244 . S
O302 Eu289 2.488 . S
O302 C318 1.249 . S
O303 Eu289 2.471 . S
O303 C318 1.244 . S
O304 Eu289 2.349 . S
O304 C305 1.265 1_455 S
C305 O301 1.244 . S
C305 O304 1.265 1_655 S
O306 Eu288 2.373 1_455 S
O306 C319 1.258 . S
O307 Eu289 2.392 1_545 S
O307 C319 1.242 . S
O308 Eu289 2.418 1_545 S
O308 C290 1.244 . S
O309 Eu288 2.488 . S
O309 C297 1.249 . S
O310 Eu288 2.471 . S
O310 C297 1.244 . S
O311 Eu288 2.349 1_455 S
O311 C290 1.265 . S
C312 C313 1.379 . S
C312 C316 1.373 . S
C312 C318 1.505 . S
C313 C312 1.379 . S
C313 C315 1.369 . S
C313 H324 0.930 1_455 S
C314 C316 1.383 . S
C314 C317 1.382 . S
C314 H325 0.930 . S
C315 C313 1.369 . S
C315 C317 1.392 . S
C315 H326 0.930 1_455 S
C316 C312 1.373 . S
C316 C314 1.383 . S
C316 H327 0.931 . S
C317 C314 1.382 . S
C317 C315 1.392 . S
C318 Eu289 2.828 . S
C318 O302 1.249 . S
C318 O303 1.244 . S
C318 C312 1.505 . S
C319 O306 1.258 . S
C319 O307 1.242 . S
H320 C292 0.930 . S
H321 C293 0.930 . S
H322 C294 0.930 . S
H323 C295 0.931 . S
H324 C313 0.930 1_655 S
H325 C314 0.930 . S
H326 C315 0.930 1_655 S
H327 C316 0.931 . S
Eu328 C337 2.828 . S
Eu328 O339 2.392 . S
Eu328 O341 2.418 . S
Eu328 O346 2.373 . S
Eu328 O349 2.488 . S
Eu328 O350 2.471 . S
Eu328 O351 2.349 1_545 S
Eu329 O338 2.373 1_565 S
Eu329 O342 2.488 . S
Eu329 O343 2.471 1_565 S
Eu329 O344 2.349 1_565 S
Eu329 O347 2.392 . S
Eu329 O348 2.418 . S
Eu329 C358 2.828 . S
C330 O348 1.244 . S
C330 O351 1.265 . S
C331 C332 1.379 1_545 S
C331 C335 1.373 . S
C331 C337 1.505 . S
C332 C331 1.379 1_565 S
C332 C334 1.369 . S
C332 H360 0.930 . S
C333 C335 1.383 . S
C333 C336 1.382 . S
C333 H361 0.930 . S
C334 C332 1.369 . S
C334 C336 1.392 1_565 S
C334 H362 0.930 . S
C335 C331 1.373 . S
C335 C333 1.383 . S
C335 H363 0.931 . S
C336 C333 1.382 . S
C336 C334 1.392 1_545 S
C337 Eu328 2.828 . S
C337 C331 1.505 . S
C337 O349 1.249 . S
C337 O350 1.244 . S
O338 Eu329 2.373 1_545 S
O338 C340 1.258 . S
O339 Eu328 2.392 . S
O339 C340 1.242 . S
C340 O338 1.258 . S
C340 O339 1.242 . S
O341 Eu328 2.418 . S
O341 C345 1.244 . S
O342 Eu329 2.488 . S
O342 C358 1.249 . S
O343 Eu329 2.471 1_545 S
O343 C358 1.244 1_545 S
O344 Eu329 2.349 1_545 S
O344 C345 1.265 . S
C345 O341 1.244 . S
C345 O344 1.265 . S
O346 Eu328 2.373 . S
O346 C359 1.258 1_545 S
O347 Eu329 2.392 . S
O347 C359 1.242 . S
O348 Eu329 2.418 . S
O348 C330 1.244 . S
O349 Eu328 2.488 . S
O349 C337 1.249 . S
O350 Eu328 2.471 . S
O350 C337 1.244 . S
O351 Eu328 2.349 1_565 S
O351 C330 1.265 . S
C352 C353 1.379 . S
C352 C356 1.373 1_545 S
C352 C358 1.505 1_545 S
C353 C352 1.379 . S
C353 C355 1.369 . S
C353 H364 0.930 . S
C354 C356 1.383 . S
C354 C357 1.382 1_565 S
C354 H365 0.930 . S
C355 C353 1.369 . S
C355 C357 1.392 . S
C355 H366 0.930 . S
C356 C352 1.373 1_565 S
C356 C354 1.383 . S
C356 H367 0.931 . S
C357 C354 1.382 1_545 S
C357 C355 1.392 . S
C358 Eu329 2.828 . S
C358 O342 1.249 . S
C358 O343 1.244 1_565 S
C358 C352 1.505 1_565 S
C359 O346 1.258 1_565 S
C359 O347 1.242 . S
H360 C332 0.930 . S
H361 C333 0.930 . S
H362 C334 0.930 . S
H363 C335 0.931 . S
H364 C353 0.930 . S
H365 C354 0.930 . S
H366 C355 0.930 . S
H367 C356 0.931 . S
Eu368 C377 2.828 . S
Eu368 O379 2.392 . S
Eu368 O381 2.418 . S
Eu368 O386 2.373 . S
Eu368 O389 2.488 . S
Eu368 O390 2.471 . S
Eu368 O391 2.349 . S
Eu369 O378 2.373 . S
Eu369 O382 2.488 . S
Eu369 O383 2.471 . S
Eu369 O384 2.349 . S
Eu369 O387 2.392 . S
Eu369 O388 2.418 . S
Eu369 C398 2.828 . S
C370 O388 1.244 . S
C370 O391 1.265 . S
C371 C372 1.379 . S
C371 C375 1.373 . S
C371 C377 1.505 . S
C372 C371 1.379 . S
C372 C374 1.369 . S
C372 H400 0.930 . S
C373 C375 1.383 . S
C373 C376 1.382 . S
C373 H401 0.930 . S
C374 C372 1.369 . S
C374 C376 1.392 . S
C374 H402 0.930 . S
C375 C371 1.373 . S
C375 C373 1.383 . S
C375 H403 0.931 . S
C376 C373 1.382 . S
C376 C374 1.392 . S
C377 Eu368 2.828 . S
C377 C371 1.505 . S
C377 O389 1.249 . S
C377 O390 1.244 . S
O378 Eu369 2.373 . S
O378 C380 1.258 . S
O379 Eu368 2.392 . S
O379 C380 1.242 . S
C380 O378 1.258 . S
C380 O379 1.242 . S
O381 Eu368 2.418 . S
O381 C385 1.244 . S
O382 Eu369 2.488 . S
O382 C398 1.249 . S
O383 Eu369 2.471 . S
O383 C398 1.244 . S
O384 Eu369 2.349 . S
O384 C385 1.265 . S
C385 O381 1.244 . S
C385 O384 1.265 . S
O386 Eu368 2.373 . S
O386 C399 1.258 . S
O387 Eu369 2.392 . S
O387 C399 1.242 . S
O388 Eu369 2.418 . S
O388 C370 1.244 . S
O389 Eu368 2.488 . S
O389 C377 1.249 . S
O390 Eu368 2.471 . S
O390 C377 1.244 . S
O391 Eu368 2.349 . S
O391 C370 1.265 . S
C392 C393 1.379 . S
C392 C396 1.373 . S
C392 C398 1.505 . S
C393 C392 1.379 . S
C393 C395 1.369 . S
C393 H404 0.930 . S
C394 C396 1.383 . S
C394 C397 1.382 . S
C394 H405 0.930 . S
C395 C393 1.369 . S
C395 C397 1.392 . S
C395 H406 0.930 . S
C396 C392 1.373 . S
C396 C394 1.383 . S
C396 H407 0.931 . S
C397 C394 1.382 . S
C397 C395 1.392 . S
C398 Eu369 2.828 . S
C398 O382 1.249 . S
C398 O383 1.244 . S
C398 C392 1.505 . S
C399 O386 1.258 . S
C399 O387 1.242 . S
H400 C372 0.930 . S
H401 C373 0.930 . S
H402 C374 0.930 . S
H403 C375 0.931 . S
H404 C393 0.930 . S
H405 C394 0.930 . S
H406 C395 0.930 . S
H407 C396 0.931 . S
Eu408 C417 2.828 . S
Eu408 O419 2.392 . S
Eu408 O421 2.418 1_455 S
Eu408 O426 2.373 . S
Eu408 O429 2.488 . S
Eu408 O430 2.471 . S
Eu408 O431 2.349 . S
Eu409 O418 2.373 . S
Eu409 O422 2.488 . S
Eu409 O423 2.471 . S
Eu409 O424 2.349 . S
Eu409 O427 2.392 1_655 S
Eu409 O428 2.418 1_655 S
Eu409 C438 2.828 . S
C410 O428 1.244 . S
C410 O431 1.265 . S
C411 C412 1.379 . S
C411 C415 1.373 . S
C411 C417 1.505 . S
C412 C411 1.379 . S
C412 C414 1.369 . S
C412 H440 0.930 . S
C413 C415 1.383 . S
C413 C416 1.382 . S
C413 H441 0.930 . S
C414 C412 1.369 . S
C414 C416 1.392 . S
C414 H442 0.930 . S
C415 C411 1.373 . S
C415 C413 1.383 . S
C415 H443 0.931 . S
C416 C413 1.382 . S
C416 C414 1.392 . S
C417 Eu408 2.828 . S
C417 C411 1.505 . S
C417 O429 1.249 . S
C417 O430 1.244 . S
O418 Eu409 2.373 . S
O418 C420 1.258 1_655 S
O419 Eu408 2.392 . S
O419 C420 1.242 . S
C420 O418 1.258 1_455 S
C420 O419 1.242 . S
O421 Eu408 2.418 1_655 S
O421 C425 1.244 . S
O422 Eu409 2.488 . S
O422 C438 1.249 . S
O423 Eu409 2.471 . S
O423 C438 1.244 . S
O424 Eu409 2.349 . S
O424 C425 1.265 . S
C425 O421 1.244 . S
C425 O424 1.265 . S
O426 Eu408 2.373 . S
O426 C439 1.258 . S
O427 Eu409 2.392 1_455 S
O427 C439 1.242 . S
O428 Eu409 2.418 1_455 S
O428 C410 1.244 . S
O429 Eu408 2.488 . S
O429 C417 1.249 . S
O430 Eu408 2.471 . S
O430 C417 1.244 . S
O431 Eu408 2.349 . S
O431 C410 1.265 . S
C432 C433 1.379 . S
C432 C436 1.373 . S
C432 C438 1.505 . S
C433 C432 1.379 . S
C433 C435 1.369 . S
C433 H444 0.930 . S
C434 C436 1.383 . S
C434 C437 1.382 . S
C434 H445 0.930 . S
C435 C433 1.369 . S
C435 C437 1.392 . S
C435 H446 0.930 . S
C436 C432 1.373 . S
C436 C434 1.383 . S
C436 H447 0.931 . S
C437 C434 1.382 . S
C437 C435 1.392 . S
C438 Eu409 2.828 . S
C438 O422 1.249 . S
C438 O423 1.244 . S
C438 C432 1.505 . S
C439 O426 1.258 . S
C439 O427 1.242 . S
H440 C412 0.930 . S
H441 C413 0.930 . S
H442 C414 0.930 . S
H443 C415 0.931 . S
H444 C433 0.930 . S
H445 C434 0.930 . S
H446 C435 0.930 . S
H447 C436 0.931 . S
H448 C456 0.929 . S
H449 C458 0.930 . S
H450 C460 0.930 . S
H451 C463 0.929 . S
H452 C466 0.930 . S
H453 C468 0.960 . S
H454 C468 0.960 . S
H455 C468 0.960 . S
C456 H448 0.929 . S
C456 C457 1.377 . S
C456 C458 1.384 . S
C457 C456 1.377 . S
C457 C463 1.390 . S
C458 H449 0.930 . S
C458 C456 1.384 . S
C458 C459 1.372 . S
C459 C458 1.372 . S
C459 C460 1.400 . S
C459 C464 1.490 . S
C460 H450 0.930 . S
C460 C459 1.400 . S
C460 C463 1.386 . S
H461 C477 0.930 . S
H462 C478 0.931 . S
C463 H451 0.929 . S
C463 C457 1.390 . S
C463 C460 1.386 . S
C464 C459 1.490 . S
C464 C466 1.395 . S
C464 C467 1.403 . S
H465 C471 0.930 . S
C466 H452 0.930 . S
C466 C464 1.395 . S
C466 C469 1.403 . S
C467 C464 1.403 . S
C467 C468 1.524 . S
C467 C471 1.400 . S
C468 H453 0.960 . S
C468 H454 0.960 . S
C468 H455 0.960 . S
C468 C467 1.524 . S
C469 C466 1.403 . S
C469 C470 1.392 . S
C469 C473 1.495 . S
C470 C469 1.392 . S
C470 C471 1.385 . S
C470 C472 1.478 . S
C471 H465 0.930 . S
C471 C467 1.400 . S
C471 C470 1.385 . S
C472 C470 1.478 . S
C472 C474 1.381 . S
C472 C478 1.383 . S
C473 C469 1.495 . S
C473 H479 0.959 . S
C473 H480 0.961 . S
C473 H481 0.960 . S
C474 C472 1.381 . S
C474 C475 1.394 . S
C474 H482 0.930 . S
C475 C474 1.394 . S
C475 C476 1.383 . S
C475 H483 0.929 . S
C476 C475 1.383 . S
C476 C477 1.377 . S
C477 H461 0.930 . S
C477 C476 1.377 . S
C477 C478 1.379 . S
C478 H462 0.931 . S
C478 C472 1.383 . S
C478 C477 1.379 . S
H479 C473 0.959 . S
H480 C473 0.961 . S
H481 C473 0.960 . S
H482 C474 0.930 . S
H483 C475 0.929 . S
H484 C492 0.929 . S
H485 C494 0.930 . S
H486 C496 0.930 . S
H487 C499 0.929 . S
H488 C502 0.930 . S
H489 C504 0.960 . S
H490 C504 0.960 . S
H491 C504 0.960 . S
C492 H484 0.929 . S
C492 C493 1.377 . S
C492 C494 1.384 . S
C493 C492 1.377 . S
C493 C499 1.390 . S
C494 H485 0.930 . S
C494 C492 1.384 . S
C494 C495 1.372 . S
C495 C494 1.372 . S
C495 C496 1.400 . S
C495 C500 1.490 . S
C496 H486 0.930 . S
C496 C495 1.400 . S
C496 C499 1.386 . S
H497 C513 0.930 . S
H498 C514 0.931 . S
C499 H487 0.929 . S
C499 C493 1.390 . S
C499 C496 1.386 . S
C500 C495 1.490 . S
C500 C502 1.395 . S
C500 C503 1.403 . S
H501 C507 0.930 . S
C502 H488 0.930 . S
C502 C500 1.395 . S
C502 C505 1.403 . S
C503 C500 1.403 . S
C503 C504 1.524 . S
C503 C507 1.400 . S
C504 H489 0.960 . S
C504 H490 0.960 . S
C504 H491 0.960 . S
C504 C503 1.524 . S
C505 C502 1.403 . S
C505 C506 1.392 . S
C505 C509 1.495 . S
C506 C505 1.392 . S
C506 C507 1.385 . S
C506 C508 1.478 . S
C507 H501 0.930 . S
C507 C503 1.400 . S
C507 C506 1.385 . S
C508 C506 1.478 . S
C508 C510 1.381 . S
C508 C514 1.383 . S
C509 C505 1.495 . S
C509 H515 0.959 . S
C509 H516 0.961 . S
C509 H517 0.960 . S
C510 C508 1.381 . S
C510 C511 1.394 . S
C510 H518 0.930 . S
C511 C510 1.394 . S
C511 C512 1.383 . S
C511 H519 0.929 . S
C512 C511 1.383 . S
C512 C513 1.377 . S
C513 H497 0.930 . S
C513 C512 1.377 . S
C513 C514 1.379 . S
C514 H498 0.931 . S
C514 C508 1.383 . S
C514 C513 1.379 . S
H515 C509 0.959 . S
H516 C509 0.961 . S
H517 C509 0.960 . S
H518 C510 0.930 . S
H519 C511 0.929 . S
H520 C528 0.929 . S
H521 C530 0.930 . S
H522 C532 0.930 . S
H523 C535 0.929 . S
H524 C538 0.930 . S
H525 C540 0.960 . S
H526 C540 0.960 . S
H527 C540 0.960 . S
C528 H520 0.929 . S
C528 C529 1.377 . S
C528 C530 1.384 . S
C529 C528 1.377 . S
C529 C535 1.390 . S
C530 H521 0.930 . S
C530 C528 1.384 . S
C530 C531 1.372 . S
C531 C530 1.372 . S
C531 C532 1.400 . S
C531 C536 1.490 . S
C532 H522 0.930 . S
C532 C531 1.400 . S
C532 C535 1.386 . S
H533 C549 0.930 . S
H534 C550 0.931 . S
C535 H523 0.929 . S
C535 C529 1.390 . S
C535 C532 1.386 . S
C536 C531 1.490 . S
C536 C538 1.395 . S
C536 C539 1.403 . S
H537 C543 0.930 . S
C538 H524 0.930 . S
C538 C536 1.395 . S
C538 C541 1.403 . S
C539 C536 1.403 . S
C539 C540 1.524 . S
C539 C543 1.400 . S
C540 H525 0.960 . S
C540 H526 0.960 . S
C540 H527 0.960 . S
C540 C539 1.524 . S
C541 C538 1.403 . S
C541 C542 1.392 . S
C541 C545 1.495 . S
C542 C541 1.392 . S
C542 C543 1.385 . S
C542 C544 1.478 . S
C543 H537 0.930 . S
C543 C539 1.400 . S
C543 C542 1.385 . S
C544 C542 1.478 . S
C544 C546 1.381 . S
C544 C550 1.383 . S
C545 C541 1.495 . S
C545 H551 0.959 . S
C545 H552 0.961 . S
C545 H553 0.960 . S
C546 C544 1.381 . S
C546 C547 1.394 . S
C546 H554 0.930 . S
C547 C546 1.394 . S
C547 C548 1.383 . S
C547 H555 0.929 . S
C548 C547 1.383 . S
C548 C549 1.377 . S
C549 H533 0.930 . S
C549 C548 1.377 . S
C549 C550 1.379 . S
C550 H534 0.931 . S
C550 C544 1.383 . S
C550 C549 1.379 . S
H551 C545 0.959 . S
H552 C545 0.961 . S
H553 C545 0.960 . S
H554 C546 0.930 . S
H555 C547 0.929 . S
H556 C564 0.929 . S
H557 C566 0.930 . S
H558 C568 0.930 . S
H559 C571 0.929 . S
H560 C574 0.930 . S
H561 C576 0.960 . S
H562 C576 0.960 . S
H563 C576 0.960 . S
C564 H556 0.929 . S
C564 C565 1.377 . S
C564 C566 1.384 . S
C565 C564 1.377 . S
C565 C571 1.390 . S
C566 H557 0.930 . S
C566 C564 1.384 . S
C566 C567 1.372 . S
C567 C566 1.372 . S
C567 C568 1.400 . S
C567 C572 1.490 . S
C568 H558 0.930 . S
C568 C567 1.400 . S
C568 C571 1.386 . S
H569 C585 0.930 1_655 S
H570 C586 0.931 1_655 S
C571 H559 0.929 . S
C571 C565 1.390 . S
C571 C568 1.386 . S
C572 C567 1.490 . S
C572 C574 1.395 . S
C572 C575 1.403 . S
H573 C579 0.930 . S
C574 H560 0.930 . S
C574 C572 1.395 . S
C574 C577 1.403 . S
C575 C572 1.403 . S
C575 C576 1.524 . S
C575 C579 1.400 . S
C576 H561 0.960 . S
C576 H562 0.960 . S
C576 H563 0.960 . S
C576 C575 1.524 . S
C577 C574 1.403 . S
C577 C578 1.392 . S
C577 C581 1.495 . S
C578 C577 1.392 . S
C578 C579 1.385 . S
C578 C580 1.478 . S
C579 H573 0.930 . S
C579 C575 1.400 . S
C579 C578 1.385 . S
C580 C578 1.478 . S
C580 C582 1.381 . S
C580 C586 1.383 . S
C581 C577 1.495 . S
C581 H587 0.959 . S
C581 H588 0.961 . S
C581 H589 0.960 . S
C582 C580 1.381 . S
C582 C583 1.394 . S
C582 H590 0.930 . S
C583 C582 1.394 . S
C583 C584 1.383 . S
C583 H591 0.929 . S
C584 C583 1.383 . S
C584 C585 1.377 . S
C585 H569 0.930 1_455 S
C585 C584 1.377 . S
C585 C586 1.379 . S
C586 H570 0.931 1_455 S
C586 C580 1.383 . S
C586 C585 1.379 . S
H587 C581 0.959 . S
H588 C581 0.961 . S
H589 C581 0.960 . S
H590 C582 0.930 . S
H591 C583 0.929 . S
H592 C600 0.929 . S
H593 C602 0.930 . S
H594 C604 0.930 . S
H595 C607 0.929 . S
H596 C610 0.930 1_554 S
H597 C612 0.960 . S
H598 C612 0.960 . S
H599 C612 0.960 . S
C600 H592 0.929 . S
C600 C601 1.377 . S
C600 C602 1.384 . S
C601 C600 1.377 . S
C601 C607 1.390 . S
C602 H593 0.930 . S
C602 C600 1.384 . S
C602 C603 1.372 . S
C603 C602 1.372 . S
C603 C604 1.400 . S
C603 C608 1.490 1_554 S
C604 H594 0.930 . S
C604 C603 1.400 . S
C604 C607 1.386 . S
H605 C621 0.930 . S
H606 C622 0.931 . S
C607 H595 0.929 . S
C607 C601 1.390 . S
C607 C604 1.386 . S
C608 C603 1.490 1_556 S
C608 C610 1.395 . S
C608 C611 1.403 . S
H609 C615 0.930 . S
C610 H596 0.930 1_556 S
C610 C608 1.395 . S
C610 C613 1.403 . S
C611 C608 1.403 . S
C611 C612 1.524 . S
C611 C615 1.400 . S
C612 H597 0.960 . S
C612 H598 0.960 . S
C612 H599 0.960 . S
C612 C611 1.524 . S
C613 C610 1.403 . S
C613 C614 1.392 . S
C613 C617 1.495 1_565 S
C614 C613 1.392 . S
C614 C615 1.385 . S
C614 C616 1.478 . S
C615 H609 0.930 . S
C615 C611 1.400 . S
C615 C614 1.385 . S
C616 C614 1.478 . S
C616 C618 1.381 . S
C616 C622 1.383 . S
C617 C613 1.495 1_545 S
C617 H623 0.959 . S
C617 H624 0.961 . S
C617 H625 0.960 . S
C618 C616 1.381 . S
C618 C619 1.394 1_565 S
C618 H626 0.930 1_565 S
C619 C618 1.394 1_545 S
C619 C620 1.383 1_545 S
C619 H627 0.929 . S
C620 C619 1.383 1_565 S
C620 C621 1.377 . S
C621 H605 0.930 . S
C621 C620 1.377 . S
C621 C622 1.379 . S
C622 H606 0.931 . S
C622 C616 1.383 . S
C622 C621 1.379 . S
H623 C617 0.959 . S
H624 C617 0.961 . S
H625 C617 0.960 . S
H626 C618 0.930 1_545 S
H627 C619 0.929 . S
H628 C636 0.929 . S
H629 C638 0.930 . S
H630 C640 0.930 . S
H631 C643 0.929 . S
H632 C646 0.930 . S
H633 C648 0.960 . S
H634 C648 0.960 . S
H635 C648 0.960 . S
C636 H628 0.929 . S
C636 C637 1.377 . S
C636 C638 1.384 . S
C637 C636 1.377 . S
C637 C643 1.390 . S
C638 H629 0.930 . S
C638 C636 1.384 . S
C638 C639 1.372 1_554 S
C639 C638 1.372 1_556 S
C639 C640 1.400 . S
C639 C644 1.490 . S
C640 H630 0.930 . S
C640 C639 1.400 . S
C640 C643 1.386 1_556 S
H641 C657 0.930 . S
H642 C658 0.931 . S
C643 H631 0.929 . S
C643 C637 1.390 . S
C643 C640 1.386 1_554 S
C644 C639 1.490 . S
C644 C646 1.395 . S
C644 C647 1.403 . S
H645 C651 0.930 . S
C646 H632 0.930 . S
C646 C644 1.395 . S
C646 C649 1.403 . S
C647 C644 1.403 . S
C647 C648 1.524 . S
C647 C651 1.400 . S
C648 H633 0.960 . S
C648 H634 0.960 . S
C648 H635 0.960 . S
C648 C647 1.524 . S
C649 C646 1.403 . S
C649 C650 1.392 . S
C649 C653 1.495 . S
C650 C649 1.392 . S
C650 C651 1.385 . S
C650 C652 1.478 . S
C651 H645 0.930 . S
C651 C647 1.400 . S
C651 C650 1.385 . S
C652 C650 1.478 . S
C652 C654 1.381 . S
C652 C658 1.383 . S
C653 C649 1.495 . S
C653 H659 0.959 . S
C653 H660 0.961 . S
C653 H661 0.960 . S
C654 C652 1.381 . S
C654 C655 1.394 . S
C654 H662 0.930 . S
C655 C654 1.394 . S
C655 C656 1.383 . S
C655 H663 0.929 . S
C656 C655 1.383 . S
C656 C657 1.377 . S
C657 H641 0.930 . S
C657 C656 1.377 . S
C657 C658 1.379 . S
C658 H642 0.931 . S
C658 C652 1.383 . S
C658 C657 1.379 . S
H659 C653 0.959 . S
H660 C653 0.961 . S
H661 C653 0.960 . S
H662 C654 0.930 . S
H663 C655 0.929 . S
H664 C672 0.929 . S
H665 C674 0.930 . S
H666 C676 0.930 . S
H667 C679 0.929 . S
H668 C682 0.930 . S
H669 C684 0.960 . S
H670 C684 0.960 . S
H671 C684 0.960 . S
C672 H664 0.929 . S
C672 C673 1.377 . S
C672 C674 1.384 1_554 S
C673 C672 1.377 . S
C673 C679 1.390 . S
C674 H665 0.930 . S
C674 C672 1.384 1_556 S
C674 C675 1.372 . S
C675 C674 1.372 . S
C675 C676 1.400 . S
C675 C680 1.490 . S
C676 H666 0.930 . S
C676 C675 1.400 . S
C676 C679 1.386 1_556 S
H677 C693 0.930 . S
H678 C694 0.931 . S
C679 H667 0.929 . S
C679 C673 1.390 . S
C679 C676 1.386 1_554 S
C680 C675 1.490 . S
C680 C682 1.395 . S
C680 C683 1.403 . S
H681 C687 0.930 . S
C682 H668 0.930 . S
C682 C680 1.395 . S
C682 C685 1.403 . S
C683 C680 1.403 . S
C683 C684 1.524 . S
C683 C687 1.400 . S
C684 H669 0.960 . S
C684 H670 0.960 . S
C684 H671 0.960 . S
C684 C683 1.524 . S
C685 C682 1.403 . S
C685 C686 1.392 . S
C685 C689 1.495 . S
C686 C685 1.392 . S
C686 C687 1.385 . S
C686 C688 1.478 . S
C687 H681 0.930 . S
C687 C683 1.400 . S
C687 C686 1.385 . S
C688 C686 1.478 . S
C688 C690 1.381 . S
C688 C694 1.383 . S
C689 C685 1.495 . S
C689 H695 0.959 . S
C689 H696 0.961 . S
C689 H697 0.960 . S
C690 C688 1.381 . S
C690 C691 1.394 . S
C690 H698 0.930 . S
C691 C690 1.394 . S
C691 C692 1.383 . S
C691 H699 0.929 . S
C692 C691 1.383 . S
C692 C693 1.377 . S
C693 H677 0.930 . S
C693 C692 1.377 . S
C693 C694 1.379 . S
C694 H678 0.931 . S
C694 C688 1.383 . S
C694 C693 1.379 . S
H695 C689 0.959 . S
H696 C689 0.961 . S
H697 C689 0.960 . S
H698 C690 0.930 . S
H699 C691 0.929 . S
H700 C708 0.929 . S
H701 C710 0.930 . S
H702 C712 0.917 1_556 S
H703 C715 0.929 . S
H704 C718 0.930 . S
H705 C720 0.960 . S
H706 C720 0.960 . S
H707 C720 0.960 . S
C708 H700 0.929 . S
C708 C709 1.377 . S
C708 C710 1.384 . S
C709 C708 1.377 . S
C709 C715 1.390 . S
C710 H701 0.930 . S
C710 C708 1.384 . S
C710 C711 1.372 . S
C711 C710 1.372 . S
C711 C712 1.400 . S
C711 C716 1.490 1_554 S
C712 H702 0.917 1_554 S
C712 C711 1.400 . S
C712 C715 1.398 . S
H713 C729 0.930 . S
H714 C730 0.931 . S
C715 H703 0.929 . S
C715 C709 1.390 . S
C715 C712 1.398 . S
C716 C711 1.490 1_556 S
C716 C718 1.395 . S
C716 C719 1.403 . S
H717 C723 0.930 1_455 S
C718 H704 0.930 . S
C718 C716 1.395 . S
C718 C721 1.403 . S
C719 C716 1.403 . S
C719 C720 1.524 1_655 S
C719 C723 1.400 . S
C720 H705 0.960 . S
C720 H706 0.960 . S
C720 H707 0.960 . S
C720 C719 1.524 1_455 S
C721 C718 1.403 . S
C721 C722 1.392 . S
C721 C725 1.495 . S
C722 C721 1.392 . S
C722 C723 1.385 . S
C722 C724 1.478 . S
C723 H717 0.930 1_655 S
C723 C719 1.400 . S
C723 C722 1.385 . S
C724 C722 1.478 . S
C724 C726 1.381 . S
C724 C730 1.383 . S
C725 C721 1.495 . S
C725 H731 0.959 . S
C725 H732 0.961 . S
C725 H733 0.960 . S
C726 C724 1.381 . S
C726 C727 1.394 . S
C726 H734 0.930 . S
C727 C726 1.394 . S
C727 C728 1.383 . S
C727 H735 0.922 1_655 S
C728 C727 1.383 . S
C728 C729 1.377 . S
C729 H713 0.930 . S
C729 C728 1.377 . S
C729 C730 1.379 . S
C730 H714 0.931 . S
C730 C724 1.383 . S
C730 C729 1.379 . S
H731 C725 0.959 . S
H732 C725 0.961 . S
H733 C725 0.960 . S
H734 C726 0.930 . S
H735 C727 0.922 1_455 S
H736 C744 0.929 . S
H737 C746 0.930 . S
H738 C748 0.930 . S
H739 C751 0.929 . S
H740 C754 0.930 . S
H741 C756 0.960 . S
H742 C756 0.960 . S
H743 C756 0.960 . S
C744 H736 0.929 . S
C744 C745 1.377 . S
C744 C746 1.384 . S
C745 C744 1.377 . S
C745 C751 1.390 . S
C746 H737 0.930 . S
C746 C744 1.384 . S
C746 C747 1.372 . S
C747 C746 1.372 . S
C747 C748 1.400 . S
C747 C752 1.490 . S
C748 H738 0.930 . S
C748 C747 1.400 . S
C748 C751 1.386 . S
H749 C765 0.930 . S
H750 C766 0.931 . S
C751 H739 0.929 . S
C751 C745 1.390 . S
C751 C748 1.386 . S
C752 C747 1.490 . S
C752 C754 1.395 . S
C752 C755 1.403 . S
H753 C759 0.930 . S
C754 H740 0.930 . S
C754 C752 1.395 . S
C754 C757 1.403 . S
C755 C752 1.403 . S
C755 C756 1.524 . S
C755 C759 1.400 . S
C756 H741 0.960 . S
C756 H742 0.960 . S
C756 H743 0.960 . S
C756 C755 1.524 . S
C757 C754 1.403 . S
C757 C758 1.392 . S
C757 C761 1.495 1_455 S
C758 C757 1.392 . S
C758 C759 1.385 . S
C758 C760 1.478 . S
C759 H753 0.930 . S
C759 C755 1.400 . S
C759 C758 1.385 . S
C760 C758 1.478 . S
C760 C762 1.381 1_455 S
C760 C766 1.383 . S
C761 C757 1.495 1_655 S
C761 H767 0.959 . S
C761 H768 0.961 1_655 S
C761 H769 0.960 . S
C762 C760 1.381 1_655 S
C762 C763 1.394 . S
C762 H770 0.930 . S
C763 C762 1.394 . S
C763 C764 1.412 . S
C763 H771 0.929 . S
C764 C763 1.412 . S
C764 C765 1.335 1_655 S
C765 H749 0.930 . S
C765 C764 1.335 1_455 S
C765 C766 1.379 . S
C766 H750 0.931 . S
C766 C760 1.383 . S
C766 C765 1.379 . S
H767 C761 0.959 . S
H768 C761 0.961 1_455 S
H769 C761 0.960 . S
H770 C762 0.930 . S
H771 C763 0.929 . S
H772 C780 0.929 . S
H773 C782 0.930 . S
H774 C784 0.930 . S
H775 C787 0.929 . S
H776 C790 0.930 . S
H777 C792 0.960 . S
H778 C792 0.960 . S
H779 C792 0.960 . S
C780 H772 0.929 . S
C780 C781 1.377 . S
C780 C782 1.384 . S
C781 C780 1.377 . S
C781 C787 1.390 . S
C782 H773 0.930 . S
C782 C780 1.384 . S
C782 C783 1.372 . S
C783 C782 1.372 . S
C783 C784 1.400 . S
C783 C788 1.490 . S
C784 H774 0.930 . S
C784 C783 1.400 . S
C784 C787 1.386 . S
H785 C801 0.930 . S
H786 C802 0.931 . S
C787 H775 0.929 . S
C787 C781 1.390 . S
C787 C784 1.386 . S
C788 C783 1.490 . S
C788 C790 1.395 . S
C788 C791 1.403 . S
H789 C795 0.930 . S
C790 H776 0.930 . S
C790 C788 1.395 . S
C790 C793 1.403 . S
C791 C788 1.403 . S
C791 C792 1.524 . S
C791 C795 1.400 . S
C792 H777 0.960 . S
C792 H778 0.960 . S
C792 H779 0.960 . S
C792 C791 1.524 . S
C793 C790 1.403 . S
C793 C794 1.392 . S
C793 C797 1.495 . S
C794 C793 1.392 . S
C794 C795 1.385 . S
C794 C796 1.478 . S
C795 H789 0.930 . S
C795 C791 1.400 . S
C795 C794 1.385 . S
C796 C794 1.478 . S
C796 C798 1.381 . S
C796 C802 1.383 . S
C797 C793 1.495 . S
C797 H803 0.959 . S
C797 H804 0.961 . S
C797 H805 0.960 . S
C798 C796 1.381 . S
C798 C799 1.394 1_545 S
C798 H806 0.930 1_545 S
C799 C798 1.394 1_565 S
C799 C800 1.383 1_565 S
C799 H807 0.929 . S
C800 C799 1.383 1_545 S
C800 C801 1.377 . S
C801 H785 0.930 . S
C801 C800 1.377 . S
C801 C802 1.379 . S
C802 H786 0.931 . S
C802 C796 1.383 . S
C802 C801 1.379 . S
H803 C797 0.959 . S
H804 C797 0.961 . S
H805 C797 0.960 . S
H806 C798 0.930 1_565 S
H807 C799 0.929 . S
H808 C816 0.929 . S
H809 C818 0.930 . S
H810 C820 0.930 . S
H811 C823 0.929 . S
H812 C826 0.930 . S
H813 C828 0.960 . S
H814 C828 0.960 . S
H815 C828 0.960 . S
C816 H808 0.929 . S
C816 C817 1.377 . S
C816 C818 1.384 . S
C817 C816 1.377 . S
C817 C823 1.390 . S
C818 H809 0.930 . S
C818 C816 1.384 . S
C818 C819 1.372 . S
C819 C818 1.372 . S
C819 C820 1.400 . S
C819 C824 1.490 . S
C820 H810 0.930 . S
C820 C819 1.400 . S
C820 C823 1.386 . S
H821 C837 0.930 . S
H822 C838 0.931 . S
C823 H811 0.929 . S
C823 C817 1.390 . S
C823 C820 1.386 . S
C824 C819 1.490 . S
C824 C826 1.395 . S
C824 C827 1.403 . S
H825 C831 0.930 . S
C826 H812 0.930 . S
C826 C824 1.395 . S
C826 C829 1.403 . S
C827 C824 1.403 . S
C827 C828 1.524 . S
C827 C831 1.400 . S
C828 H813 0.960 . S
C828 H814 0.960 . S
C828 H815 0.960 . S
C828 C827 1.524 . S
C829 C826 1.403 . S
C829 C830 1.392 . S
C829 C833 1.495 . S
C830 C829 1.392 . S
C830 C831 1.385 . S
C830 C832 1.478 . S
C831 H825 0.930 . S
C831 C827 1.400 . S
C831 C830 1.385 . S
C832 C830 1.478 . S
C832 C834 1.381 . S
C832 C838 1.383 . S
C833 C829 1.495 . S
C833 H839 0.959 . S
C833 H840 0.961 . S
C833 H841 0.960 . S
C834 C832 1.381 . S
C834 C835 1.394 . S
C834 H842 0.930 . S
C835 C834 1.394 . S
C835 C836 1.383 . S
C835 H843 0.929 . S
C836 C835 1.383 . S
C836 C837 1.377 . S
C837 H821 0.930 . S
C837 C836 1.377 . S
C837 C838 1.379 . S
C838 H822 0.931 . S
C838 C832 1.383 . S
C838 C837 1.379 . S
H839 C833 0.959 . S
H840 C833 0.961 . S
H841 C833 0.960 . S
H842 C834 0.930 . S
H843 C835 0.929 . S
H844 C852 0.929 . S
H845 C854 0.930 . S
H846 C856 0.930 . S
H847 C859 0.929 . S
H848 C862 0.930 . S
H849 C864 0.960 . S
H850 C864 0.960 . S
H851 C864 0.960 . S
C852 H844 0.929 . S
C852 C853 1.377 . S
C852 C854 1.384 . S
C853 C852 1.377 . S
C853 C859 1.390 . S
C854 H845 0.930 . S
C854 C852 1.384 . S
C854 C855 1.372 . S
C855 C854 1.372 . S
C855 C856 1.400 . S
C855 C860 1.490 . S
C856 H846 0.930 . S
C856 C855 1.400 . S
C856 C859 1.386 . S
H857 C873 0.930 . S
H858 C874 0.931 . S
C859 H847 0.929 . S
C859 C853 1.390 . S
C859 C856 1.386 . S
C860 C855 1.490 . S
C860 C862 1.395 . S
C860 C863 1.403 . S
H861 C867 0.930 . S
C862 H848 0.930 . S
C862 C860 1.395 . S
C862 C865 1.403 . S
C863 C860 1.403 . S
C863 C864 1.524 . S
C863 C867 1.400 . S
C864 H849 0.960 . S
C864 H850 0.960 . S
C864 H851 0.960 . S
C864 C863 1.524 . S
C865 C862 1.403 . S
C865 C866 1.392 . S
C865 C869 1.495 . S
C866 C865 1.392 . S
C866 C867 1.385 . S
C866 C868 1.478 . S
C867 H861 0.930 . S
C867 C863 1.400 . S
C867 C866 1.385 . S
C868 C866 1.478 . S
C868 C870 1.381 . S
C868 C874 1.383 . S
C869 C865 1.495 . S
C869 H875 0.959 . S
C869 H876 0.961 . S
C869 H877 0.960 . S
C870 C868 1.381 . S
C870 C871 1.394 . S
C870 H878 0.930 . S
C871 C870 1.394 . S
C871 C872 1.383 . S
C871 H879 0.929 . S
C872 C871 1.383 . S
C872 C873 1.377 . S
C873 H857 0.930 . S
C873 C872 1.377 . S
C873 C874 1.379 . S
C874 H858 0.931 . S
C874 C868 1.383 . S
C874 C873 1.379 . S
H875 C869 0.959 . S
H876 C869 0.961 . S
H877 C869 0.960 . S
H878 C870 0.930 . S
H879 C871 0.929 . S
H880 C888 0.929 . S
H881 C890 0.930 . S
H882 C892 0.930 . S
H883 C895 0.929 . S
H884 C898 0.930 . S
H885 C900 0.960 1_556 S
H886 C900 0.960 1_556 S
H887 C900 0.960 . S
C888 H880 0.929 . S
C888 C889 1.377 1_556 S
C888 C890 1.384 . S
C889 C888 1.377 1_554 S
C889 C895 1.390 . S
C890 H881 0.930 . S
C890 C888 1.384 . S
C890 C891 1.372 . S
C891 C890 1.372 . S
C891 C892 1.400 1_556 S
C891 C896 1.490 . S
C892 H882 0.930 . S
C892 C891 1.400 1_554 S
C892 C895 1.386 . S
H893 C909 0.930 . S
H894 C910 0.931 . S
C895 H883 0.929 . S
C895 C889 1.390 . S
C895 C892 1.386 . S
C896 C891 1.490 . S
C896 C898 1.395 . S
C896 C899 1.403 . S
H897 C903 0.930 . S
C898 H884 0.930 . S
C898 C896 1.395 . S
C898 C901 1.403 . S
C899 C896 1.403 . S
C899 C900 1.524 1_656 S
C899 C903 1.400 1_655 S
C900 H885 0.960 1_554 S
C900 H886 0.960 1_554 S
C900 H887 0.960 . S
C900 C899 1.524 1_454 S
C901 C898 1.403 . S
C901 C902 1.392 . S
C901 C905 1.495 . S
C902 C901 1.392 . S
C902 C903 1.385 1_655 S
C902 C904 1.478 . S
C903 H897 0.930 . S
C903 C899 1.400 1_455 S
C903 C902 1.385 1_455 S
C904 C902 1.478 . S
C904 C906 1.381 . S
C904 C910 1.383 1_655 S
C905 C901 1.495 . S
C905 H911 0.959 . S
C905 H912 0.961 . S
C905 H913 0.960 . S
C906 C904 1.381 . S
C906 C907 1.394 1_655 S
C906 H914 0.930 . S
C907 C906 1.394 1_455 S
C907 C908 1.383 . S
C907 H915 0.929 . S
C908 C907 1.383 . S
C908 C909 1.377 . S
C909 H893 0.930 . S
C909 C908 1.377 . S
C909 C910 1.379 . S
C910 H894 0.931 . S
C910 C904 1.383 1_455 S
C910 C909 1.379 . S
H911 C905 0.959 . S
H912 C905 0.961 . S
H913 C905 0.960 . S
H914 C906 0.930 . S
H915 C907 0.929 . S
H916 C924 0.929 . S
H917 C926 0.930 . S
H918 C928 0.930 . S
H919 C931 0.929 . S
H920 C934 0.930 1_554 S
H921 C936 0.960 . S
H922 C936 0.960 . S
H923 C936 0.960 . S
C924 H916 0.929 . S
C924 C925 1.377 . S
C924 C926 1.384 . S
C925 C924 1.377 . S
C925 C931 1.390 . S
C926 H917 0.930 . S
C926 C924 1.384 . S
C926 C927 1.372 1_554 S
C927 C926 1.372 1_556 S
C927 C928 1.400 . S
C927 C932 1.490 . S
C928 H918 0.930 . S
C928 C927 1.400 . S
C928 C931 1.386 1_556 S
H929 C945 0.930 . S
H930 C946 0.931 . S
C931 H919 0.929 . S
C931 C925 1.390 . S
C931 C928 1.386 1_554 S
C932 C927 1.490 . S
C932 C934 1.395 . S
C932 C935 1.403 . S
H933 C939 0.930 . S
C934 H920 0.930 1_556 S
C934 C932 1.395 . S
C934 C937 1.403 . S
C935 C932 1.403 . S
C935 C936 1.524 . S
C935 C939 1.400 . S
C936 H921 0.960 . S
C936 H922 0.960 . S
C936 H923 0.960 . S
C936 C935 1.524 . S
C937 C934 1.403 . S
C937 C938 1.392 . S
C937 C941 1.495 1_565 S
C938 C937 1.392 . S
C938 C939 1.385 . S
C938 C940 1.478 . S
C939 H933 0.930 . S
C939 C935 1.400 . S
C939 C938 1.385 . S
C940 C938 1.478 . S
C940 C942 1.381 . S
C940 C946 1.383 . S
C941 C937 1.495 1_545 S
C941 H947 0.959 . S
C941 H948 0.961 . S
C941 H949 0.960 . S
C942 C940 1.381 . S
C942 C943 1.377 1_565 S
C942 H950 0.930 . S
C943 C942 1.377 1_545 S
C943 C944 1.398 . S
C943 H951 0.935 . S
C944 C943 1.398 . S
C944 C945 1.377 . S
C945 H929 0.930 . S
C945 C944 1.377 . S
C945 C946 1.379 1_545 S
C946 H930 0.931 . S
C946 C940 1.383 . S
C946 C945 1.379 1_565 S
H947 C941 0.959 . S
H948 C941 0.961 . S
H949 C941 0.960 . S
H950 C942 0.930 . S
H951 C943 0.935 . S
H952 C960 0.929 . S
H953 C962 0.929 1_554 S
H954 C964 0.930 . S
H955 C967 0.929 . S
H956 C970 0.930 . S
H957 C972 0.960 . S
H958 C972 0.960 . S
H959 C972 0.960 . S
C960 H952 0.929 . S
C960 C961 1.377 . S
C960 C962 1.383 1_554 S
C961 C960 1.377 . S
C961 C967 1.390 1_554 S
C962 H953 0.929 1_556 S
C962 C960 1.383 1_556 S
C962 C963 1.374 . S
C963 C962 1.374 . S
C963 C964 1.400 . S
C963 C968 1.490 . S
C964 H954 0.930 . S
C964 C963 1.400 . S
C964 C967 1.386 . S
H965 C981 0.930 . S
H966 C982 0.931 . S
C967 H955 0.929 . S
C967 C961 1.390 1_556 S
C967 C964 1.386 . S
C968 C963 1.490 . S
C968 C970 1.395 . S
C968 C971 1.403 . S
H969 C975 0.930 . S
C970 H956 0.930 . S
C970 C968 1.395 . S
C970 C973 1.403 . S
C971 C968 1.403 . S
C971 C972 1.524 . S
C971 C975 1.400 . S
C972 H957 0.960 . S
C972 H958 0.960 . S
C972 H959 0.960 . S
C972 C971 1.524 . S
C973 C970 1.403 . S
C973 C974 1.392 . S
C973 C977 1.495 . S
C974 C973 1.392 . S
C974 C975 1.385 . S
C974 C976 1.478 . S
C975 H969 0.930 . S
C975 C971 1.400 . S
C975 C974 1.385 . S
C976 C974 1.478 . S
C976 C978 1.381 . S
C976 C982 1.383 . S
C977 C973 1.495 . S
C977 H983 0.959 . S
C977 H984 0.961 . S
C977 H985 0.960 . S
C978 C976 1.381 . S
C978 C979 1.394 . S
C978 H986 0.930 . S
C979 C978 1.394 . S
C979 C980 1.383 . S
C979 H987 0.929 . S
C980 C979 1.383 . S
C980 C981 1.377 . S
C981 H965 0.930 . S
C981 C980 1.377 . S
C981 C982 1.379 . S
C982 H966 0.931 . S
C982 C976 1.383 . S
C982 C981 1.379 . S
H983 C977 0.959 . S
H984 C977 0.961 . S
H985 C977 0.960 . S
H986 C978 0.930 . S
H987 C979 0.929 . S
H988 C996 0.929 . S
H989 C998 0.930 . S
H990 C1000 0.930 1_554 S
H991 C1003 0.929 . S
H992 C1006 0.930 . S
H993 C1008 0.960 . S
H994 C1008 0.960 . S
H995 C1008 0.960 . S
C996 H988 0.929 . S
C996 C997 1.377 . S
C996 C998 1.384 . S
C997 C996 1.377 . S
C997 C1003 1.390 1_556 S
C998 H989 0.930 . S
C998 C996 1.384 . S
C998 C999 1.372 . S
C999 C998 1.372 . S
C999 C1000 1.400 . S
C999 C1004 1.490 . S
C1000 H990 0.930 1_556 S
C1000 C999 1.400 . S
C1000 C1003 1.386 1_556 S
H1001 C1017 0.930 . S
H1002 C1018 0.931 . S
C1003 H991 0.929 . S
C1003 C997 1.390 1_554 S
C1003 C1000 1.386 1_554 S
C1004 C999 1.490 . S
C1004 C1006 1.395 . S
C1004 C1007 1.403 . S
H1005 C1011 0.930 . S
C1006 H992 0.930 . S
C1006 C1004 1.395 . S
C1006 C1009 1.403 . S
C1007 C1004 1.403 . S
C1007 C1008 1.524 1_556 S
C1007 C1011 1.400 . S
C1008 H993 0.960 . S
C1008 H994 0.960 . S
C1008 H995 0.960 . S
C1008 C1007 1.524 1_554 S
C1009 C1006 1.403 . S
C1009 C1010 1.392 . S
C1009 C1013 1.495 . S
C1010 C1009 1.392 . S
C1010 C1011 1.385 . S
C1010 C1012 1.478 . S
C1011 H1005 0.930 . S
C1011 C1007 1.400 . S
C1011 C1010 1.385 . S
C1012 C1010 1.478 . S
C1012 C1014 1.381 . S
C1012 C1018 1.383 . S
C1013 C1009 1.495 . S
C1013 H1019 0.959 . S
C1013 H1020 0.961 . S
C1013 H1021 0.960 . S
C1014 C1012 1.381 . S
C1014 C1015 1.394 . S
C1014 H1022 0.930 . S
C1015 C1014 1.394 . S
C1015 C1016 1.383 . S
C1015 H1023 0.929 . S
C1016 C1015 1.383 . S
C1016 C1017 1.377 . S
C1017 H1001 0.930 . S
C1017 C1016 1.377 . S
C1017 C1018 1.379 . S
C1018 H1002 0.931 . S
C1018 C1012 1.383 . S
C1018 C1017 1.379 . S
H1019 C1013 0.959 . S
H1020 C1013 0.961 . S
H1021 C1013 0.960 . S
H1022 C1014 0.930 . S
H1023 C1015 0.929 . S
H1024 C1032 0.929 . S
H1025 C1034 0.930 . S
H1026 C1036 0.930 . S
H1027 C1039 0.929 . S
H1028 C1042 0.930 . S
H1029 C1044 0.960 . S
H1030 C1044 0.960 . S
H1031 C1044 0.960 . S
C1032 H1024 0.929 . S
C1032 C1033 1.377 . S
C1032 C1034 1.384 . S
C1033 C1032 1.377 . S
C1033 C1039 1.390 . S
C1034 H1025 0.930 . S
C1034 C1032 1.384 . S
C1034 C1035 1.372 . S
C1035 C1034 1.372 . S
C1035 C1036 1.400 . S
C1035 C1040 1.490 . S
C1036 H1026 0.930 . S
C1036 C1035 1.400 . S
C1036 C1039 1.386 . S
H1037 C1053 0.930 . S
H1038 C1054 0.931 . S
C1039 H1027 0.929 . S
C1039 C1033 1.390 . S
C1039 C1036 1.386 . S
C1040 C1035 1.490 . S
C1040 C1042 1.395 . S
C1040 C1043 1.403 . S
H1041 C1047 0.930 . S
C1042 H1028 0.930 . S
C1042 C1040 1.395 . S
C1042 C1045 1.403 . S
C1043 C1040 1.403 . S
C1043 C1044 1.524 . S
C1043 C1047 1.400 . S
C1044 H1029 0.960 . S
C1044 H1030 0.960 . S
C1044 H1031 0.960 . S
C1044 C1043 1.524 . S
C1045 C1042 1.403 . S
C1045 C1046 1.392 . S
C1045 C1049 1.495 1_455 S
C1046 C1045 1.392 . S
C1046 C1047 1.385 . S
C1046 C1048 1.478 . S
C1047 H1041 0.930 . S
C1047 C1043 1.400 . S
C1047 C1046 1.385 . S
C1048 C1046 1.478 . S
C1048 C1050 1.381 . S
C1048 C1054 1.383 . S
C1049 C1045 1.495 1_655 S
C1049 H1055 0.959 . S
C1049 H1056 0.961 . S
C1049 H1057 0.960 . S
C1050 C1048 1.381 . S
C1050 C1051 1.394 . S
C1050 H1058 0.930 . S
C1051 C1050 1.394 . S
C1051 C1052 1.383 . S
C1051 H1059 0.929 . S
C1052 C1051 1.383 . S
C1052 C1053 1.377 . S
C1053 H1037 0.930 . S
C1053 C1052 1.377 . S
C1053 C1054 1.379 . S
C1054 H1038 0.931 . S
C1054 C1048 1.383 . S
C1054 C1053 1.379 . S
H1055 C1049 0.959 . S
H1056 C1049 0.961 . S
H1057 C1049 0.960 . S
H1058 C1050 0.930 . S
H1059 C1051 0.929 . S
H1060 C1068 0.929 . S
H1061 C1070 0.930 . S
H1062 C1072 0.930 . S
H1063 C1075 0.929 . S
H1064 C1078 0.930 . S
H1065 C1080 0.960 . S
H1066 C1080 0.960 . S
H1067 C1080 0.960 . S
C1068 H1060 0.929 . S
C1068 C1069 1.377 . S
C1068 C1070 1.384 . S
C1069 C1068 1.377 . S
C1069 C1075 1.390 . S
C1070 H1061 0.930 . S
C1070 C1068 1.384 . S
C1070 C1071 1.372 . S
C1071 C1070 1.372 . S
C1071 C1072 1.400 . S
C1071 C1076 1.490 . S
C1072 H1062 0.930 . S
C1072 C1071 1.400 . S
C1072 C1075 1.386 . S
H1073 C1089 0.930 . S
H1074 C1090 0.931 . S
C1075 H1063 0.929 . S
C1075 C1069 1.390 . S
C1075 C1072 1.386 . S
C1076 C1071 1.490 . S
C1076 C1078 1.395 . S
C1076 C1079 1.403 . S
H1077 C1083 0.930 . S
C1078 H1064 0.930 . S
C1078 C1076 1.395 . S
C1078 C1081 1.403 . S
C1079 C1076 1.403 . S
C1079 C1080 1.524 . S
C1079 C1083 1.400 . S
C1080 H1065 0.960 . S
C1080 H1066 0.960 . S
C1080 H1067 0.960 . S
C1080 C1079 1.524 . S
C1081 C1078 1.403 . S
C1081 C1082 1.392 . S
C1081 C1085 1.495 . S
C1082 C1081 1.392 . S
C1082 C1083 1.385 . S
C1082 C1084 1.478 . S
C1083 H1077 0.930 . S
C1083 C1079 1.400 . S
C1083 C1082 1.385 . S
C1084 C1082 1.478 . S
C1084 C1086 1.381 . S
C1084 C1090 1.383 . S
C1085 C1081 1.495 . S
C1085 H1091 0.959 . S
C1085 H1092 0.961 . S
C1085 H1093 0.960 . S
C1086 C1084 1.381 . S
C1086 C1087 1.394 . S
C1086 H1094 0.930 . S
C1087 C1086 1.394 . S
C1087 C1088 1.383 . S
C1087 H1095 0.929 . S
C1088 C1087 1.383 . S
C1088 C1089 1.377 . S
C1089 H1073 0.930 . S
C1089 C1088 1.377 . S
C1089 C1090 1.379 . S
C1090 H1074 0.931 . S
C1090 C1084 1.383 . S
C1090 C1089 1.379 . S
H1091 C1085 0.959 . S
H1092 C1085 0.961 . S
H1093 C1085 0.960 . S
H1094 C1086 0.930 . S
H1095 C1087 0.929 . S
H1096 C1104 0.929 . S
H1097 C1106 0.930 . S
H1098 C1108 0.930 . S
H1099 C1111 0.929 . S
H1100 C1114 0.930 . S
H1101 C1116 0.960 . S
H1102 C1116 0.960 . S
H1103 C1116 0.960 . S
C1104 H1096 0.929 . S
C1104 C1105 1.377 . S
C1104 C1106 1.384 . S
C1105 C1104 1.377 . S
C1105 C1111 1.390 . S
C1106 H1097 0.930 . S
C1106 C1104 1.384 . S
C1106 C1107 1.372 . S
C1107 C1106 1.372 . S
C1107 C1108 1.400 . S
C1107 C1112 1.490 . S
C1108 H1098 0.930 . S
C1108 C1107 1.400 . S
C1108 C1111 1.386 . S
H1109 C1125 0.930 . S
H1110 C1126 0.931 . S
C1111 H1099 0.929 . S
C1111 C1105 1.390 . S
C1111 C1108 1.386 . S
C1112 C1107 1.490 . S
C1112 C1114 1.395 . S
C1112 C1115 1.403 . S
H1113 C1119 0.930 . S
C1114 H1100 0.930 . S
C1114 C1112 1.395 . S
C1114 C1117 1.403 . S
C1115 C1112 1.403 . S
C1115 C1116 1.524 . S
C1115 C1119 1.400 . S
C1116 H1101 0.960 . S
C1116 H1102 0.960 . S
C1116 H1103 0.960 . S
C1116 C1115 1.524 . S
C1117 C1114 1.403 . S
C1117 C1118 1.392 . S
C1117 C1121 1.495 . S
C1118 C1117 1.392 . S
C1118 C1119 1.385 . S
C1118 C1120 1.478 . S
C1119 H1113 0.930 . S
C1119 C1115 1.400 . S
C1119 C1118 1.385 . S
C1120 C1118 1.478 . S
C1120 C1122 1.381 . S
C1120 C1126 1.383 . S
C1121 C1117 1.495 . S
C1121 H1127 0.959 . S
C1121 H1128 0.961 . S
C1121 H1129 0.960 . S
C1122 C1120 1.381 . S
C1122 C1123 1.394 . S
C1122 H1130 0.930 . S
C1123 C1122 1.394 . S
C1123 C1124 1.383 . S
C1123 H1131 0.929 . S
C1124 C1123 1.383 . S
C1124 C1125 1.377 . S
C1125 H1109 0.930 . S
C1125 C1124 1.377 . S
C1125 C1126 1.379 . S
C1126 H1110 0.931 . S
C1126 C1120 1.383 . S
C1126 C1125 1.379 . S
H1127 C1121 0.959 . S
H1128 C1121 0.961 . S
H1129 C1121 0.960 . S
H1130 C1122 0.930 . S
H1131 C1123 0.929 . S
H1132 C1140 0.929 . S
H1133 C1142 0.930 . S
H1134 C1144 0.930 . S
H1135 C1147 0.929 . S
H1136 C1150 0.930 . S
H1137 C1152 0.960 . S
H1138 C1152 0.960 . S
H1139 C1152 0.960 . S
C1140 H1132 0.929 . S
C1140 C1141 1.377 . S
C1140 C1142 1.384 . S
C1141 C1140 1.377 . S
C1141 C1147 1.390 . S
C1142 H1133 0.930 . S
C1142 C1140 1.384 . S
C1142 C1143 1.372 . S
C1143 C1142 1.372 . S
C1143 C1144 1.400 . S
C1143 C1148 1.490 . S
C1144 H1134 0.930 . S
C1144 C1143 1.400 . S
C1144 C1147 1.386 . S
H1145 C1161 0.930 . S
H1146 C1162 0.931 . S
C1147 H1135 0.929 . S
C1147 C1141 1.390 . S
C1147 C1144 1.386 . S
C1148 C1143 1.490 . S
C1148 C1150 1.395 . S
C1148 C1151 1.403 . S
H1149 C1155 0.930 . S
C1150 H1136 0.930 . S
C1150 C1148 1.395 . S
C1150 C1153 1.403 . S
C1151 C1148 1.403 . S
C1151 C1152 1.524 . S
C1151 C1155 1.400 . S
C1152 H1137 0.960 . S
C1152 H1138 0.960 . S
C1152 H1139 0.960 . S
C1152 C1151 1.524 . S
C1153 C1150 1.403 . S
C1153 C1154 1.392 . S
C1153 C1157 1.495 . S
C1154 C1153 1.392 . S
C1154 C1155 1.385 . S
C1154 C1156 1.478 . S
C1155 H1149 0.930 . S
C1155 C1151 1.400 . S
C1155 C1154 1.385 . S
C1156 C1154 1.478 . S
C1156 C1158 1.381 . S
C1156 C1162 1.383 . S
C1157 C1153 1.495 . S
C1157 H1163 0.959 . S
C1157 H1164 0.961 . S
C1157 H1165 0.960 . S
C1158 C1156 1.381 . S
C1158 C1159 1.394 . S
C1158 H1166 0.930 . S
C1159 C1158 1.394 . S
C1159 C1160 1.383 . S
C1159 H1167 0.929 . S
C1160 C1159 1.383 . S
C1160 C1161 1.377 . S
C1161 H1145 0.930 . S
C1161 C1160 1.377 . S
C1161 C1162 1.379 . S
C1162 H1146 0.931 . S
C1162 C1156 1.383 . S
C1162 C1161 1.379 . S
H1163 C1157 0.959 . S
H1164 C1157 0.961 . S
H1165 C1157 0.960 . S
H1166 C1158 0.930 . S
H1167 C1159 0.929 . S
H1168 C1176 0.929 . S
H1169 C1178 0.930 . S
H1170 C1180 0.930 . S
H1171 C1183 0.929 . S
H1172 C1186 0.930 . S
H1173 C1188 0.960 . S
H1174 C1188 0.960 . S
H1175 C1188 0.960 . S
C1176 H1168 0.929 . S
C1176 C1177 1.377 . S
C1176 C1178 1.384 . S
C1177 C1176 1.377 . S
C1177 C1183 1.390 . S
C1178 H1169 0.930 . S
C1178 C1176 1.384 . S
C1178 C1179 1.372 . S
C1179 C1178 1.372 . S
C1179 C1180 1.400 . S
C1179 C1184 1.490 . S
C1180 H1170 0.930 . S
C1180 C1179 1.400 . S
C1180 C1183 1.386 . S
H1181 C1197 0.918 1_455 S
H1182 C1198 0.931 1_455 S
C1183 H1171 0.929 . S
C1183 C1177 1.390 . S
C1183 C1180 1.386 . S
C1184 C1179 1.490 . S
C1184 C1186 1.395 . S
C1184 C1187 1.403 . S
H1185 C1191 0.930 . S
C1186 H1172 0.930 . S
C1186 C1184 1.395 . S
C1186 C1189 1.403 . S
C1187 C1184 1.403 . S
C1187 C1188 1.524 . S
C1187 C1191 1.400 . S
C1188 H1173 0.960 . S
C1188 H1174 0.960 . S
C1188 H1175 0.960 . S
C1188 C1187 1.524 . S
C1189 C1186 1.403 . S
C1189 C1190 1.392 . S
C1189 C1193 1.495 1_655 S
C1190 C1189 1.392 . S
C1190 C1191 1.385 . S
C1190 C1192 1.478 . S
C1191 H1185 0.930 . S
C1191 C1187 1.400 . S
C1191 C1190 1.385 . S
C1192 C1190 1.478 . S
C1192 C1194 1.381 . S
C1192 C1198 1.383 . S
C1193 C1189 1.495 1_455 S
C1193 H1199 0.959 . S
C1193 H1200 0.961 . S
C1193 H1201 0.968 . S
C1194 C1192 1.381 . S
C1194 C1195 1.394 . S
C1194 H1202 0.930 . S
C1195 C1194 1.394 . S
C1195 C1196 1.383 . S
C1195 H1203 0.929 . S
C1196 C1195 1.383 . S
C1196 C1197 1.387 . S
C1197 H1181 0.918 1_655 S
C1197 C1196 1.387 . S
C1197 C1198 1.381 . S
C1198 H1182 0.931 1_655 S
C1198 C1192 1.383 . S
C1198 C1197 1.381 . S
H1199 C1193 0.959 . S
H1200 C1193 0.961 . S
H1201 C1193 0.968 . S
H1202 C1194 0.930 . S
H1203 C1195 0.929 . S
H1204 C1212 0.929 . S
H1205 C1214 0.930 . S
H1206 C1216 0.930 . S
H1207 C1219 0.929 . S
H1208 C1222 0.930 . S
H1209 C1224 0.960 . S
H1210 C1224 0.960 . S
H1211 C1224 0.960 . S
C1212 H1204 0.929 . S
C1212 C1213 1.377 . S
C1212 C1214 1.384 . S
C1213 C1212 1.377 . S
C1213 C1219 1.390 . S
C1214 H1205 0.930 . S
C1214 C1212 1.384 . S
C1214 C1215 1.372 . S
C1215 C1214 1.372 . S
C1215 C1216 1.400 . S
C1215 C1220 1.490 . S
C1216 H1206 0.930 . S
C1216 C1215 1.400 . S
C1216 C1219 1.386 . S
H1217 C1233 0.930 . S
H1218 C1234 0.931 . S
C1219 H1207 0.929 . S
C1219 C1213 1.390 . S
C1219 C1216 1.386 . S
C1220 C1215 1.490 . S
C1220 C1222 1.395 . S
C1220 C1223 1.403 . S
H1221 C1227 0.930 . S
C1222 H1208 0.930 . S
C1222 C1220 1.395 . S
C1222 C1225 1.403 . S
C1223 C1220 1.403 . S
C1223 C1224 1.524 . S
C1223 C1227 1.400 . S
C1224 H1209 0.960 . S
C1224 H1210 0.960 . S
C1224 H1211 0.960 . S
C1224 C1223 1.524 . S
C1225 C1222 1.403 . S
C1225 C1226 1.392 . S
C1225 C1229 1.495 . S
C1226 C1225 1.392 . S
C1226 C1227 1.385 . S
C1226 C1228 1.478 . S
C1227 H1221 0.930 . S
C1227 C1223 1.400 . S
C1227 C1226 1.385 . S
C1228 C1226 1.478 . S
C1228 C1230 1.381 . S
C1228 C1234 1.383 . S
C1229 C1225 1.495 . S
C1229 H1235 0.959 . S
C1229 H1236 0.961 . S
C1229 H1237 0.960 . S
C1230 C1228 1.381 . S
C1230 C1231 1.394 . S
C1230 H1238 0.930 . S
C1231 C1230 1.394 . S
C1231 C1232 1.383 . S
C1231 H1239 0.926 . S
C1232 C1231 1.383 . S
C1232 C1233 1.377 . S
C1233 H1217 0.930 . S
C1233 C1232 1.377 . S
C1233 C1234 1.379 . S
C1234 H1218 0.931 . S
C1234 C1228 1.383 . S
C1234 C1233 1.379 . S
H1235 C1229 0.959 . S
H1236 C1229 0.961 . S
H1237 C1229 0.960 . S
H1238 C1230 0.930 . S
H1239 C1231 0.926 . S
H1240 C1248 0.929 . S
H1241 C1250 0.930 . S
H1242 C1252 0.930 . S
H1243 C1255 0.929 . S
H1244 C1258 0.930 . S
H1245 C1260 0.960 . S
H1246 C1260 0.960 . S
H1247 C1260 0.960 . S
C1248 H1240 0.929 . S
C1248 C1249 1.377 . S
C1248 C1250 1.384 . S
C1249 C1248 1.377 . S
C1249 C1255 1.390 . S
C1250 H1241 0.930 . S
C1250 C1248 1.384 . S
C1250 C1251 1.372 . S
C1251 C1250 1.372 . S
C1251 C1252 1.400 . S
C1251 C1256 1.490 . S
C1252 H1242 0.930 . S
C1252 C1251 1.400 . S
C1252 C1255 1.386 . S
H1253 C1269 0.930 . S
H1254 C1270 0.931 . S
C1255 H1243 0.929 . S
C1255 C1249 1.390 . S
C1255 C1252 1.386 . S
C1256 C1251 1.490 . S
C1256 C1258 1.395 . S
C1256 C1259 1.403 . S
H1257 C1263 0.930 . S
C1258 H1244 0.930 . S
C1258 C1256 1.395 . S
C1258 C1261 1.403 . S
C1259 C1256 1.403 . S
C1259 C1260 1.524 . S
C1259 C1263 1.400 . S
C1260 H1245 0.960 . S
C1260 H1246 0.960 . S
C1260 H1247 0.960 . S
C1260 C1259 1.524 . S
C1261 C1258 1.403 . S
C1261 C1262 1.392 . S
C1261 C1265 1.495 . S
C1262 C1261 1.392 . S
C1262 C1263 1.385 . S
C1262 C1264 1.478 . S
C1263 H1257 0.930 . S
C1263 C1259 1.400 . S
C1263 C1262 1.385 . S
C1264 C1262 1.478 . S
C1264 C1266 1.381 . S
C1264 C1270 1.383 . S
C1265 C1261 1.495 . S
C1265 H1271 0.959 . S
C1265 H1272 0.961 . S
C1265 H1273 0.960 . S
C1266 C1264 1.381 . S
C1266 C1267 1.394 . S
C1266 H1274 0.930 . S
C1267 C1266 1.394 . S
C1267 C1268 1.383 . S
C1267 H1275 0.929 . S
C1268 C1267 1.383 . S
C1268 C1269 1.377 . S
C1269 H1253 0.930 . S
C1269 C1268 1.377 . S
C1269 C1270 1.379 . S
C1270 H1254 0.931 . S
C1270 C1264 1.383 . S
C1270 C1269 1.379 . S
H1271 C1265 0.959 . S
H1272 C1265 0.961 . S
H1273 C1265 0.960 . S
H1274 C1266 0.930 . S
H1275 C1267 0.929 . S
H1276 C1284 0.929 . S
H1277 C1286 0.930 . S
H1278 C1288 0.930 . S
H1279 C1291 0.929 . S
H1280 C1294 0.930 . S
H1281 C1296 0.960 . S
H1282 C1296 0.960 . S
H1283 C1296 0.960 . S
C1284 H1276 0.929 . S
C1284 C1285 1.377 . S
C1284 C1286 1.384 . S
C1285 C1284 1.377 . S
C1285 C1291 1.390 . S
C1286 H1277 0.930 . S
C1286 C1284 1.384 . S
C1286 C1287 1.372 . S
C1287 C1286 1.372 . S
C1287 C1288 1.400 . S
C1287 C1292 1.490 . S
C1288 H1278 0.930 . S
C1288 C1287 1.400 . S
C1288 C1291 1.386 . S
H1289 C1305 0.930 . S
H1290 C1306 0.931 . S
C1291 H1279 0.929 . S
C1291 C1285 1.390 . S
C1291 C1288 1.386 . S
C1292 C1287 1.490 . S
C1292 C1294 1.395 . S
C1292 C1295 1.403 . S
H1293 C1299 0.930 . S
C1294 H1280 0.930 . S
C1294 C1292 1.395 . S
C1294 C1297 1.403 . S
C1295 C1292 1.403 . S
C1295 C1296 1.524 . S
C1295 C1299 1.400 . S
C1296 H1281 0.960 . S
C1296 H1282 0.960 . S
C1296 H1283 0.960 . S
C1296 C1295 1.524 . S
C1297 C1294 1.403 . S
C1297 C1298 1.392 . S
C1297 C1301 1.495 . S
C1298 C1297 1.392 . S
C1298 C1299 1.385 . S
C1298 C1300 1.478 . S
C1299 H1293 0.930 . S
C1299 C1295 1.400 . S
C1299 C1298 1.385 . S
C1300 C1298 1.478 . S
C1300 C1302 1.381 . S
C1300 C1306 1.383 . S
C1301 C1297 1.495 . S
C1301 H1307 0.959 . S
C1301 H1308 0.961 . S
C1301 H1309 0.960 . S
C1302 C1300 1.381 . S
C1302 C1303 1.394 . S
C1302 H1310 0.930 . S
C1303 C1302 1.394 . S
C1303 C1304 1.383 . S
C1303 H1311 0.929 . S
C1304 C1303 1.383 . S
C1304 C1305 1.377 . S
C1305 H1289 0.930 . S
C1305 C1304 1.377 . S
C1305 C1306 1.379 . S
C1306 H1290 0.931 . S
C1306 C1300 1.383 . S
C1306 C1305 1.379 . S
H1307 C1301 0.959 . S
H1308 C1301 0.961 . S
H1309 C1301 0.960 . S
H1310 C1302 0.930 . S
H1311 C1303 0.929 . S
C457 C241 2.558 . S
C476 C319 2.742 . S
C512 C345 1.993 . S
C493 C277 1.881 . S
C548 C385 2.095 . S
C529 C169 1.954 . S
C584 C439 2.670 . S
C565 C205 2.529 . S
C620 C300 2.727 . S
C601 C97 2.513 . S
C637 C133 1.859 . S
C656 C330 1.994 . S
C673 C25 1.924 . S
C692 C370 2.095 . S
C709 C61 2.506 . S
C728 C420 2.674 1_655 S
C764 C296 0.348 1_655 S
C745 C211 0.334 . S
C800 C357 0.417 . S
C781 C247 0.443 . S
C836 C397 0.286 . S
C817 C253 0.175 . S
C853 C175 0.481 . S
C872 C416 0.351 . S
C889 C67 0.476 . S
C908 C317 0.253 . S
C944 C336 0.482 . S
C925 C103 0.517 . S
C980 C376 0.254 . S
C961 C109 0.196 . S
C997 C31 0.626 1_556 S
C1016 C437 0.333 . S
C1033 C181 2.276 . S
C1052 C290 2.513 . S
C1069 C217 3.076 . S
C1088 C340 3.312 . S
C1124 C380 2.985 . S
C1105 C283 2.725 . S
C1160 C410 2.242 . S
C1141 C145 2.056 . S
C1177 C37 2.266 . S
C1196 C305 2.512 . S
C1232 C359 3.311 . S
C1213 C73 3.045 . S
C1268 C399 2.979 . S
C1249 C139 2.688 . S
C1285 C1 2.037 . S
C1304 C425 2.248 . S
