# Generated by pormake.
# Topology pyr, (3,6)-cn, num edge types: 1
# Building blocks:
#     Node 0, Type 0, BuildingBlock: VETTIZ_charged_linker_0, # of connection points: 3
#     Node 1, Type 0, BuildingBlock: VETTIZ_charged_linker_0, # of connection points: 3
#     Node 2, Type 0, BuildingBlock: VETTIZ_charged_linker_0, # of connection points: 3
#     Node 3, Type 0, BuildingBlock: VETTIZ_charged_linker_0, # of connection points: 3
#     Node 4, Type 0, BuildingBlock: VETTIZ_charged_linker_0, # of connection points: 3
#     Node 5, Type 0, BuildingBlock: VETTIZ_charged_linker_0, # of connection points: 3
#     Node 6, Type 0, BuildingBlock: VETTIZ_charged_linker_0, # of connection points: 3
#     Node 7, Type 0, BuildingBlock: VETTIZ_charged_linker_0, # of connection points: 3
#     Node 8, Type 1, BuildingBlock: LEVNOQ01_clean_sbu_1, # of connection points: 6
#     Node 9, Type 1, BuildingBlock: LEVNOQ01_clean_sbu_1, # of connection points: 6
#     Node 10, Type 1, BuildingBlock: LEVNOQ01_clean_sbu_1, # of connection points: 6
#     Node 11, Type 1, BuildingBlock: LEVNOQ01_clean_sbu_1, # of connection points: 6
#     Edge 12, Type (0, 1), BuildingBlock: XIVTED_clean_linker_0, # of connection points: 2
#     Edge 13, Type (0, 1), BuildingBlock: XIVTED_clean_linker_0, # of connection points: 2
#     Edge 14, Type (0, 1), BuildingBlock: XIVTED_clean_linker_0, # of connection points: 2
#     Edge 15, Type (0, 1), BuildingBlock: XIVTED_clean_linker_0, # of connection points: 2
#     Edge 16, Type (0, 1), BuildingBlock: XIVTED_clean_linker_0, # of connection points: 2
#     Edge 17, Type (0, 1), BuildingBlock: XIVTED_clean_linker_0, # of connection points: 2
#     Edge 18, Type (0, 1), BuildingBlock: XIVTED_clean_linker_0, # of connection points: 2
#     Edge 19, Type (0, 1), BuildingBlock: XIVTED_clean_linker_0, # of connection points: 2
#     Edge 20, Type (0, 1), BuildingBlock: XIVTED_clean_linker_0, # of connection points: 2
#     Edge 21, Type (0, 1), BuildingBlock: XIVTED_clean_linker_0, # of connection points: 2
#     Edge 22, Type (0, 1), BuildingBlock: XIVTED_clean_linker_0, # of connection points: 2
#     Edge 23, Type (0, 1), BuildingBlock: XIVTED_clean_linker_0, # of connection points: 2
#     Edge 24, Type (0, 1), BuildingBlock: XIVTED_clean_linker_0, # of connection points: 2
#     Edge 25, Type (0, 1), BuildingBlock: XIVTED_clean_linker_0, # of connection points: 2
#     Edge 26, Type (0, 1), BuildingBlock: XIVTED_clean_linker_0, # of connection points: 2
#     Edge 27, Type (0, 1), BuildingBlock: XIVTED_clean_linker_0, # of connection points: 2
#     Edge 28, Type (0, 1), BuildingBlock: XIVTED_clean_linker_0, # of connection points: 2
#     Edge 29, Type (0, 1), BuildingBlock: XIVTED_clean_linker_0, # of connection points: 2
#     Edge 30, Type (0, 1), BuildingBlock: XIVTED_clean_linker_0, # of connection points: 2
#     Edge 31, Type (0, 1), BuildingBlock: XIVTED_clean_linker_0, # of connection points: 2
#     Edge 32, Type (0, 1), BuildingBlock: XIVTED_clean_linker_0, # of connection points: 2
#     Edge 33, Type (0, 1), BuildingBlock: XIVTED_clean_linker_0, # of connection points: 2
#     Edge 34, Type (0, 1), BuildingBlock: XIVTED_clean_linker_0, # of connection points: 2
#     Edge 35, Type (0, 1), BuildingBlock: XIVTED_clean_linker_0, # of connection points: 2
# Relax obj value: 0.035
# Max RMSD: 0.111
# Mean RMSD: 0.047
data_MOF--net-pry--node1-LEVNOQ01_clean_sbu_1--node2-VETTIZ_charged_linker_0--edge1-XIVTED_clean_linker_0
_symmetry_space_group_name_H-M    P1
_symmetry_Int_Tables_number       1
_symmetry_cell_setting            triclinic
loop_
_symmetry_equiv_pos_as_xyz
'x, y, z'
_cell_length_a     45.914036
_cell_length_b     44.378229
_cell_length_c     44.360867
_cell_angle_alpha  92.185452
_cell_angle_beta   90.924455
_cell_angle_gamma 93.4933
loop_
_atom_site_label
_atom_site_type_symbol
_atom_site_fract_x
_atom_site_fract_y
_atom_site_fract_z
_atom_type_partial_charge
C0 C 0.11607 0.09053 0.22179 0.0
C1 C 0.0933 0.10238 0.23861 0.0
C2 C 0.07789 0.12573 0.22624 0.0
C3 C 0.1084 0.1255 0.18192 0.0
C4 C 0.12312 0.10227 0.19372 0.0
C5 C 0.14696 0.0923 0.1734 0.0
H6 H 0.23252 0.11753 0.05324 0.0
C7 C 0.12197 0.13328 0.15282 0.0
C8 C 0.14453 0.11378 0.14772 0.0
H9 H 0.23746 0.04747 0.11787 0.0
H10 H 0.19356 0.0633 0.14121 0.0
H11 H 0.21519 0.17019 0.09892 0.0
H12 H 0.16096 0.10733 0.04284 0.0
H13 H 0.14602 0.14281 0.04168 0.0
H14 H 0.18217 0.13821 0.02746 0.0
H15 H 0.21389 0.17161 0.05852 0.0
H16 H 0.18796 0.19016 0.08163 0.0
C17 C 0.17636 0.09761 0.191 0.0
C18 C 0.13943 0.05901 0.16276 0.0
C19 C 0.08811 0.22254 0.09561 0.0
C20 C 0.09812 0.23724 0.06973 0.0
C21 C 0.12094 0.22476 0.05341 0.0
C22 C 0.13406 0.1989 0.06317 0.0
C23 C 0.12447 0.18527 0.08971 0.0
C24 C 0.10159 0.19695 0.10521 0.0
C25 C 0.09454 0.18002 0.13324 0.0
C26 C 0.1169 0.15618 0.13205 0.0
C27 C 0.13447 0.15936 0.10652 0.0
C28 C 0.09965 0.20228 0.16087 0.0
C29 C 0.06298 0.16575 0.12985 0.0
C30 C 0.22403 0.10557 0.07236 0.0
C31 C 0.23868 0.08138 0.0839 0.0
C32 C 0.22659 0.06605 0.10845 0.0
C33 C 0.2012 0.07547 0.12216 0.0
C34 C 0.18757 0.10053 0.11128 0.0
C35 C 0.19846 0.11456 0.08619 0.0
C36 C 0.18041 0.14014 0.07718 0.0
C37 C 0.15751 0.13976 0.10159 0.0
C38 C 0.16209 0.11674 0.12174 0.0
C39 C 0.20025 0.16967 0.07889 0.0
C40 C 0.16673 0.13202 0.04556 0.0
H41 H 0.07266 0.15499 0.19002 0.0
H42 H 0.12863 0.07279 0.23049 0.0
H43 H 0.1154 0.05388 0.16143 0.0
H44 H 0.14701 0.05388 0.1397 0.0
H45 H 0.14867 0.04308 0.17853 0.0
H46 H 0.17713 0.11946 0.20425 0.0
H47 H 0.17936 0.07941 0.20707 0.0
H48 H 0.19545 0.09925 0.17628 0.0
H49 H 0.07026 0.23092 0.10848 0.0
H50 H 0.12933 0.23549 0.03355 0.0
H51 H 0.15159 0.19086 0.05 0.0
H52 H 0.11852 0.21861 0.15724 0.0
H53 H 0.08022 0.21551 0.16495 0.0
H54 H 0.10533 0.19102 0.18172 0.0
H55 H 0.05836 0.15727 0.10622 0.0
H56 H 0.05909 0.14585 0.14377 0.0
H57 H 0.04678 0.18255 0.1356 0.0
H58 H 0.05987 0.13494 0.23819 0.0
C59 C 0.08525 0.13725 0.19808 0.0
C60 C 0.27476 0.89125 0.56143 0.0
C61 C 0.25705 0.91305 0.57386 0.0
C62 C 0.26709 0.93059 0.5995 0.0
C63 C 0.31137 0.90366 0.6009 0.0
C64 C 0.30164 0.88673 0.57546 0.0
C65 C 0.32205 0.86271 0.56685 0.0
H66 H 0.4427 0.7892 0.59951 0.0
C67 C 0.3394 0.89234 0.6109 0.0
C68 C 0.34579 0.86832 0.591 0.0
H69 H 0.37834 0.76682 0.52863 0.0
H70 H 0.35363 0.81185 0.54193 0.0
H71 H 0.4481 0.86137 0.59097 0.0
H72 H 0.39754 0.80355 0.64858 0.0
H73 H 0.40979 0.83549 0.67079 0.0
H74 H 0.43606 0.81171 0.65402 0.0
H75 H 0.46375 0.84499 0.62334 0.0
H76 H 0.44709 0.8808 0.62611 0.0
C77 C 0.33365 0.86903 0.535 0.0
C78 C 0.30541 0.83145 0.5694 0.0
C79 C 0.39175 0.93824 0.70565 0.0
C80 C 0.41793 0.93193 0.72047 0.0
C81 C 0.43474 0.90913 0.70802 0.0
C82 C 0.42572 0.89285 0.68154 0.0
C83 C 0.39942 0.89913 0.66721 0.0
C84 C 0.38302 0.92168 0.67907 0.0
C85 C 0.35575 0.92517 0.66051 0.0
C86 C 0.35854 0.90095 0.63569 0.0
C87 C 0.38405 0.88567 0.63994 0.0
C88 C 0.35744 0.95732 0.64798 0.0
C89 C 0.32909 0.91817 0.68064 0.0
C90 C 0.42328 0.79391 0.58678 0.0
C91 C 0.41232 0.77409 0.56321 0.0
C92 C 0.38738 0.78166 0.54681 0.0
C93 C 0.37284 0.80766 0.55483 0.0
C94 C 0.38312 0.82616 0.5797 0.0
C95 C 0.40825 0.81936 0.59485 0.0
C96 C 0.41556 0.84071 0.62136 0.0
C97 C 0.39044 0.86128 0.61997 0.0
C98 C 0.37149 0.85271 0.59555 0.0
C99 C 0.44524 0.85782 0.61547 0.0
C100 C 0.41497 0.82212 0.65031 0.0
H101 H 0.30056 0.94015 0.6325 0.0
H102 H 0.2673 0.8772 0.54198 0.0
H103 H 0.28914 0.83198 0.5877 0.0
H104 H 0.31978 0.81351 0.57558 0.0
H105 H 0.29346 0.82445 0.54806 0.0
H106 H 0.33847 0.89368 0.53251 0.0
H107 H 0.31729 0.86111 0.51727 0.0
H108 H 0.35439 0.85855 0.53038 0.0
H109 H 0.3784 0.95573 0.71444 0.0
H110 H 0.4547 0.90334 0.71914 0.0
H111 H 0.43944 0.87568 0.6735 0.0
H112 H 0.3802 0.96425 0.64178 0.0
H113 H 0.35034 0.9742 0.66501 0.0
H114 H 0.34443 0.95886 0.62701 0.0
H115 H 0.33354 0.90003 0.69642 0.0
H116 H 0.30946 0.90945 0.66765 0.0
H117 H 0.32375 0.93846 0.69442 0.0
H118 H 0.25373 0.94761 0.60927 0.0
C119 C 0.29423 0.92619 0.61293 0.0
C120 C 0.59457 0.28477 0.89541 0.0
C121 C 0.57312 0.26811 0.87779 0.0
C122 C 0.56285 0.27987 0.85092 0.0
C123 C 0.59566 0.32439 0.8593 0.0
C124 C 0.60564 0.31267 0.88567 0.0
C125 C 0.62939 0.33273 0.90108 0.0
H126 H 0.72669 0.45208 0.89477 0.0
C127 C 0.61229 0.35338 0.85516 0.0
C128 C 0.63189 0.35856 0.87964 0.0
H129 H 0.71739 0.38709 0.96476 0.0
H130 H 0.67374 0.36458 0.9401 0.0
H131 H 0.65409 0.46269 0.88826 0.0
H132 H 0.71547 0.40874 0.84196 0.0
H133 H 0.69118 0.42005 0.81437 0.0
H134 H 0.7136 0.44829 0.83576 0.0
H135 H 0.68263 0.47841 0.86534 0.0
H136 H 0.64773 0.46491 0.84916 0.0
C137 C 0.61874 0.34301 0.93261 0.0
C138 C 0.6574 0.31493 0.90171 0.0
C139 C 0.60072 0.40587 0.75701 0.0
C140 C 0.61693 0.42962 0.74379 0.0
C141 C 0.63773 0.44726 0.76162 0.0
C142 C 0.64352 0.44007 0.79157 0.0
C143 C 0.62859 0.4148 0.80365 0.0
C144 C 0.60709 0.39866 0.78662 0.0
C145 C 0.59442 0.37162 0.80231 0.0
C146 C 0.61247 0.37368 0.83128 0.0
C147 C 0.63222 0.39913 0.83213 0.0
C148 C 0.56192 0.37649 0.80848 0.0
C149 C 0.59967 0.34278 0.7826 0.0
C150 C 0.7149 0.43342 0.90517 0.0
C151 C 0.72568 0.42112 0.93158 0.0
C152 C 0.70984 0.39659 0.94411 0.0
C153 C 0.68451 0.38355 0.92976 0.0
C154 C 0.67507 0.39492 0.90239 0.0
C155 C 0.68965 0.42003 0.89101 0.0
C156 C 0.67666 0.42872 0.86147 0.0
C157 C 0.65218 0.40436 0.85681 0.0
C158 C 0.65158 0.3845 0.88071 0.0
C159 C 0.66475 0.46043 0.866 0.0
C160 C 0.70031 0.42662 0.837 0.0
H161 H 0.56493 0.31615 0.82124 0.0
H162 H 0.60273 0.27608 0.91622 0.0
H163 H 0.66003 0.3024 0.87981 0.0
H164 H 0.67761 0.32948 0.90496 0.0
H165 H 0.65642 0.29818 0.9197 0.0
H166 H 0.59454 0.34346 0.93296 0.0
H167 H 0.62535 0.32752 0.95023 0.0
H168 H 0.6268 0.36637 0.93923 0.0
H169 H 0.584 0.39237 0.74424 0.0
H170 H 0.65035 0.46587 0.75209 0.0
H171 H 0.66012 0.4538 0.8038 0.0
H172 H 0.55914 0.40018 0.81655 0.0
H173 H 0.54835 0.37211 0.78762 0.0
H174 H 0.55294 0.3622 0.82638 0.0
H175 H 0.61801 0.34664 0.76684 0.0
H176 H 0.60625 0.3238 0.79608 0.0
H177 H 0.58 0.33529 0.76875 0.0
H178 H 0.54598 0.26742 0.83737 0.0
C179 C 0.57378 0.30815 0.84174 0.0
C180 C 0.93301 0.69384 0.42745 0.0
C181 C 0.92429 0.70997 0.45331 0.0
C182 C 0.90344 0.69621 0.47218 0.0
C183 C 0.89623 0.65376 0.43615 0.0
C184 C 0.91853 0.66608 0.41913 0.0
C185 C 0.92211 0.64851 0.38992 0.0
H186 H 0.86482 0.54897 0.28383 0.0
C187 C 0.88238 0.62747 0.41871 0.0
C188 C 0.89764 0.6241 0.39176 0.0
H189 H 0.94492 0.60544 0.28149 0.0
H190 H 0.93944 0.6208 0.33345 0.0
H191 H 0.87948 0.52346 0.35076 0.0
H192 H 0.82679 0.59492 0.32254 0.0
H193 H 0.80693 0.57204 0.34766 0.0
H194 H 0.81831 0.55572 0.31249 0.0
H195 H 0.84389 0.51561 0.33392 0.0
H196 H 0.84886 0.52362 0.37399 0.0
C197 C 0.95257 0.63521 0.39043 0.0
C198 C 0.91708 0.66998 0.36374 0.0
C199 C 0.78733 0.57824 0.45483 0.0
C200 C 0.76792 0.5551 0.44266 0.0
C201 C 0.77512 0.53979 0.41558 0.0
C202 C 0.80079 0.5481 0.40039 0.0
C203 C 0.81944 0.57205 0.41232 0.0
C204 C 0.81287 0.58619 0.43946 0.0
C205 C 0.83531 0.61084 0.44908 0.0
C206 C 0.85659 0.60908 0.42337 0.0
C207 C 0.84689 0.58678 0.4015 0.0
C208 C 0.84929 0.60259 0.47947 0.0
C209 C 0.81999 0.64105 0.45014 0.0
C210 C 0.88121 0.56455 0.29459 0.0
C211 C 0.90483 0.5768 0.27814 0.0
C212 C 0.92595 0.59656 0.29321 0.0
C213 C 0.92285 0.60532 0.32351 0.0
C214 C 0.8982 0.59458 0.33904 0.0
C215 C 0.87839 0.5737 0.32503 0.0
C216 C 0.85427 0.56388 0.34587 0.0
C217 C 0.86229 0.58343 0.37411 0.0
C218 C 0.88785 0.60161 0.36966 0.0
C219 C 0.85642 0.52983 0.3514 0.0
C220 C 0.8249 0.57183 0.33152 0.0
H221 H 0.87287 0.65931 0.47841 0.0
H222 H 0.94929 0.70372 0.41276 0.0
H223 H 0.89885 0.68465 0.36891 0.0
H224 H 0.91065 0.65815 0.34217 0.0
H225 H 0.93689 0.68494 0.36007 0.0
H226 H 0.96025 0.63177 0.4139 0.0
H227 H 0.96919 0.65045 0.37983 0.0
H228 H 0.95235 0.61251 0.37913 0.0
H229 H 0.78267 0.59009 0.47584 0.0
H230 H 0.76047 0.52194 0.40565 0.0
H231 H 0.80486 0.53596 0.37966 0.0
H232 H 0.84971 0.57768 0.48124 0.0
H233 H 0.83688 0.61129 0.4989 0.0
H234 H 0.8724 0.61104 0.48196 0.0
H235 H 0.80419 0.64183 0.43093 0.0
H236 H 0.83508 0.66107 0.44793 0.0
H237 H 0.80769 0.64378 0.47133 0.0
H238 H 0.89639 0.70817 0.49225 0.0
C239 C 0.88949 0.66805 0.46382 0.0
C240 C 0.88962 0.78227 0.93086 0.0
C241 C 0.91429 0.76793 0.92014 0.0
C242 C 0.92976 0.781 0.89607 0.0
C243 C 0.89476 0.81939 0.89191 0.0
C244 C 0.88046 0.80802 0.91662 0.0
C245 C 0.85523 0.82658 0.92542 0.0
H246 H 0.76563 0.93743 0.89213 0.0
C247 C 0.87907 0.84526 0.88124 0.0
C248 C 0.85606 0.84993 0.90109 0.0
H249 H 0.76467 0.88277 0.97098 0.0
H250 H 0.80675 0.8582 0.95325 0.0
H251 H 0.77957 0.88736 0.84485 0.0
H252 H 0.83627 0.95218 0.89531 0.0
H253 H 0.84944 0.95018 0.85837 0.0
H254 H 0.81317 0.96231 0.86477 0.0
H255 H 0.78348 0.92632 0.83537 0.0
H256 H 0.80729 0.89882 0.82029 0.0
C257 C 0.82692 0.80578 0.92327 0.0
C258 C 0.86185 0.84126 0.95725 0.0
C259 C 0.90689 0.8927 0.78178 0.0
C260 C 0.89496 0.91565 0.76523 0.0
C261 C 0.87098 0.93025 0.77717 0.0
C262 C 0.85909 0.92226 0.80483 0.0
C263 C 0.87106 0.89923 0.82097 0.0
C264 C 0.89465 0.88493 0.80951 0.0
C265 C 0.9044 0.86097 0.82998 0.0
C266 C 0.88245 0.86296 0.85526 0.0
C267 C 0.86302 0.88547 0.84979 0.0
C268 C 0.90109 0.83025 0.81213 0.0
C269 C 0.93594 0.87009 0.84133 0.0
C270 C 0.77459 0.92054 0.90595 0.0
C271 C 0.76109 0.91192 0.93288 0.0
C272 C 0.77378 0.88947 0.94973 0.0
C273 C 0.79853 0.87531 0.93956 0.0
C274 C 0.81125 0.88376 0.91235 0.0
C275 C 0.79959 0.90644 0.89635 0.0
C276 C 0.8165 0.91313 0.86838 0.0
C277 C 0.84009 0.89065 0.87014 0.0
C278 C 0.83679 0.87324 0.89581 0.0
C279 C 0.79579 0.90634 0.84065 0.0
C280 C 0.82945 0.9462 0.87153 0.0
H281 H 0.93276 0.81476 0.8636 0.0
H282 H 0.87728 0.77342 0.94949 0.0
H283 H 0.88576 0.84501 0.9616 0.0
H284 H 0.85337 0.86398 0.95999 0.0
H285 H 0.85288 0.82673 0.97516 0.0
H286 H 0.82622 0.79173 0.90193 0.0
H287 H 0.82572 0.79029 0.94236 0.0
H288 H 0.80697 0.81839 0.92298 0.0
H289 H 0.92553 0.88127 0.77354 0.0
H290 H 0.86102 0.94768 0.76486 0.0
H291 H 0.84082 0.93424 0.81243 0.0
H292 H 0.87998 0.82803 0.79932 0.0
H293 H 0.9189 0.8282 0.79566 0.0
H294 H 0.90082 0.81064 0.82664 0.0
H295 H 0.94014 0.89507 0.84249 0.0
H296 H 0.94011 0.86309 0.86459 0.0
H297 H 0.95232 0.86058 0.82609 0.0
H298 H 0.94957 0.77169 0.888 0.0
C299 C 0.92011 0.80635 0.88193 0.0
C300 C 0.72816 0.11761 0.43552 0.0
C301 C 0.74283 0.09197 0.42664 0.0
C302 C 0.73009 0.07158 0.40441 0.0
C303 C 0.6894 0.10335 0.39886 0.0
C304 C 0.70132 0.1226 0.42168 0.0
C305 C 0.68216 0.14808 0.42914 0.0
H306 H 0.55919 0.21927 0.4001 0.0
C307 C 0.66199 0.11558 0.38829 0.0
C308 C 0.65735 0.14151 0.40633 0.0
H309 H 0.62538 0.24331 0.46888 0.0
H310 H 0.65196 0.20039 0.453 0.0
H311 H 0.55688 0.14641 0.40568 0.0
H312 H 0.60348 0.20906 0.34964 0.0
H313 H 0.59718 0.17585 0.32724 0.0
H314 H 0.56655 0.19571 0.34098 0.0
H315 H 0.53985 0.16744 0.3772 0.0
H316 H 0.55465 0.13161 0.36821 0.0
C317 C 0.67182 0.14489 0.46202 0.0
C318 C 0.69956 0.17825 0.42339 0.0
C319 C 0.61021 0.07017 0.29329 0.0
C320 C 0.58667 0.0794 0.27607 0.0
C321 C 0.57073 0.10349 0.28701 0.0
C322 C 0.57851 0.11869 0.31449 0.0
C323 C 0.60287 0.11012 0.33095 0.0
C324 C 0.61814 0.08604 0.32046 0.0
C325 C 0.64428 0.08118 0.34024 0.0
C326 C 0.64247 0.10668 0.36391 0.0
C327 C 0.6181 0.1234 0.35841 0.0
C328 C 0.63985 0.0497 0.35402 0.0
C329 C 0.67194 0.08526 0.3209 0.0
C330 C 0.57948 0.21556 0.41176 0.0
C331 C 0.59004 0.23494 0.43589 0.0
C332 C 0.61638 0.22863 0.45056 0.0
C333 C 0.63194 0.20377 0.44113 0.0
C334 C 0.62123 0.18502 0.41663 0.0
C335 C 0.59544 0.19118 0.40237 0.0
C336 C 0.58793 0.16985 0.37586 0.0
C337 C 0.61286 0.14902 0.37726 0.0
C338 C 0.63237 0.15805 0.40108 0.0
C339 C 0.55818 0.15294 0.38175 0.0
C340 C 0.58856 0.18837 0.34685 0.0
H341 H 0.6951 0.0611 0.37329 0.0
H342 H 0.73736 0.13334 0.45292 0.0
H343 H 0.71263 0.17619 0.40258 0.0
H344 H 0.68543 0.19703 0.41955 0.0
H345 H 0.7149 0.18483 0.44246 0.0
H346 H 0.66902 0.12071 0.46778 0.0
H347 H 0.6879 0.15622 0.47837 0.0
H348 H 0.65021 0.15385 0.4658 0.0
H349 H 0.62307 0.05204 0.28499 0.0
H350 H 0.55264 0.11098 0.27384 0.0
H351 H 0.56568 0.13703 0.32144 0.0
H352 H 0.61627 0.04305 0.35649 0.0
H353 H 0.64939 0.03197 0.33958 0.0
H354 H 0.64918 0.04926 0.37713 0.0
H355 H 0.6706 0.10519 0.30658 0.0
H356 H 0.6922 0.08954 0.33444 0.0
H357 H 0.67435 0.06511 0.30572 0.0
H358 H 0.74114 0.05169 0.39732 0.0
C359 C 0.70349 0.07718 0.39041 0.0
C360 C 0.39939 0.61744 0.24071 0.0
C361 C 0.38513 0.59334 0.2555 0.0
C362 C 0.3624 0.57594 0.24006 0.0
C363 C 0.36773 0.60722 0.19678 0.0
C364 C 0.39017 0.62413 0.21164 0.0
C365 C 0.4013 0.65049 0.19384 0.0
H366 H 0.38421 0.73589 0.07281 0.0
C367 C 0.36244 0.62091 0.1676 0.0
C368 C 0.38199 0.64633 0.16573 0.0
H369 H 0.44498 0.75359 0.14771 0.0
H370 H 0.4289 0.7058 0.16883 0.0
H371 H 0.33127 0.71263 0.11211 0.0
H372 H 0.39574 0.66756 0.06122 0.0
H373 H 0.36378 0.64376 0.05777 0.0
H374 H 0.36413 0.68133 0.04336 0.0
H375 H 0.33254 0.71171 0.07167 0.0
H376 H 0.31304 0.68246 0.09146 0.0
C377 C 0.39581 0.67998 0.21225 0.0
C378 C 0.43372 0.64652 0.1866 0.0
C379 C 0.27642 0.58166 0.10138 0.0
C380 C 0.2641 0.59227 0.07487 0.0
C381 C 0.27986 0.61444 0.05885 0.0
C382 C 0.3064 0.62762 0.07044 0.0
C383 C 0.317 0.61877 0.09847 0.0
C384 C 0.30269 0.59531 0.11285 0.0
C385 C 0.3169 0.58916 0.14258 0.0
C386 C 0.34168 0.61341 0.14406 0.0
C387 C 0.34131 0.63087 0.11841 0.0
C388 C 0.29441 0.59406 0.16779 0.0
C389 C 0.32824 0.557 0.1404 0.0
C390 C 0.3944 0.72935 0.09357 0.0
C391 C 0.41592 0.74833 0.10861 0.0
C392 C 0.42816 0.73932 0.1359 0.0
C393 C 0.41885 0.71163 0.14801 0.0
C394 C 0.39678 0.6932 0.13285 0.0
C395 C 0.38526 0.70214 0.10593 0.0
C396 C 0.36156 0.68049 0.09306 0.0
C397 C 0.36055 0.65688 0.11677 0.0
C398 C 0.38098 0.66448 0.14016 0.0
C399 C 0.33304 0.6975 0.09172 0.0
C400 C 0.37154 0.66765 0.06215 0.0
H401 H 0.33636 0.56853 0.2004 0.0
H402 H 0.41726 0.63107 0.25147 0.0
H403 H 0.43714 0.62257 0.18002 0.0
H404 H 0.4413 0.65976 0.16734 0.0
H405 H 0.44802 0.65291 0.20655 0.0
H406 H 0.37604 0.67705 0.22627 0.0
H407 H 0.41454 0.68679 0.2277 0.0
H408 H 0.39135 0.699 0.1979 0.0
H409 H 0.26503 0.56419 0.11386 0.0
H410 H 0.27084 0.62288 0.03832 0.0
H411 H 0.31686 0.64524 0.05785 0.0
H412 H 0.28029 0.61271 0.1624 0.0
H413 H 0.27995 0.57338 0.17048 0.0
H414 H 0.30459 0.60107 0.18985 0.0
H415 H 0.33585 0.55154 0.11724 0.0
H416 H 0.34743 0.5545 0.15525 0.0
H417 H 0.3108 0.53965 0.1457 0.0
H418 H 0.3506 0.55755 0.25082 0.0
C419 C 0.3539 0.58252 0.21075 0.0
C420 C 0.05334 0.29748 0.57322 0.0
C421 C 0.05864 0.28671 0.54359 0.0
C422 C 0.07783 0.30412 0.52566 0.0
C423 C 0.08917 0.33932 0.5678 0.0
C424 C 0.06857 0.32394 0.58466 0.0
C425 C 0.06573 0.33865 0.61557 0.0
H426 H 0.11445 0.44423 0.72197 0.0
C427 C 0.10316 0.36414 0.58701 0.0
C428 C 0.08916 0.36438 0.61482 0.0
H429 H 0.03973 0.3803 0.72465 0.0
H430 H 0.04972 0.36124 0.67466 0.0
H431 H 0.10281 0.46397 0.65371 0.0
H432 H 0.15806 0.39697 0.68751 0.0
H433 H 0.17735 0.41813 0.66077 0.0
H434 H 0.16579 0.43674 0.6949 0.0
H435 H 0.13567 0.47418 0.67518 0.0
H436 H 0.13633 0.4667 0.63496 0.0
C437 C 0.03463 0.35034 0.618 0.0
C438 C 0.073 0.31541 0.63933 0.0
C439 C 0.19675 0.4166 0.55207 0.0
C440 C 0.21691 0.43815 0.56564 0.0
C441 C 0.21013 0.45219 0.59351 0.0
C442 C 0.18428 0.44355 0.60836 0.0
C443 C 0.16511 0.42061 0.5952 0.0
C444 C 0.17122 0.40819 0.56712 0.0
C445 C 0.14849 0.38445 0.55612 0.0
C446 C 0.1281 0.38382 0.58267 0.0
C447 C 0.138 0.40479 0.60571 0.0
C448 C 0.13362 0.39552 0.52723 0.0
C449 C 0.16358 0.35433 0.55155 0.0
C450 C 0.10057 0.42587 0.71179 0.0
C451 C 0.07633 0.41362 0.7272 0.0
C452 C 0.05843 0.39011 0.71312 0.0
C453 C 0.06423 0.37911 0.68406 0.0
C454 C 0.08819 0.39172 0.66869 0.0
C455 C 0.10591 0.41475 0.68241 0.0
C456 C 0.12991 0.42573 0.66195 0.0
C457 C 0.12323 0.40581 0.63367 0.0
C458 C 0.09891 0.38575 0.63802 0.0
C459 C 0.1263 0.45948 0.65617 0.0
C460 C 0.15945 0.41933 0.67693 0.0
H461 H 0.108 0.34181 0.52304 0.0
H462 H 0.03861 0.28506 0.58772 0.0
H463 H 0.09255 0.3033 0.63262 0.0
H464 H 0.07842 0.32586 0.66184 0.0
H465 H 0.05457 0.29828 0.64156 0.0
H466 H 0.02484 0.35389 0.5954 0.0
H467 H 0.01965 0.33411 0.62955 0.0
H468 H 0.03467 0.37273 0.62993 0.0
H469 H 0.20112 0.40593 0.53038 0.0
H470 H 0.22536 0.46896 0.60437 0.0
H471 H 0.18053 0.45456 0.62978 0.0
H472 H 0.13668 0.42046 0.5255 0.0
H473 H 0.14268 0.38508 0.50653 0.0
H474 H 0.10963 0.39081 0.52706 0.0
H475 H 0.1781 0.35059 0.57121 0.0
H476 H 0.1482 0.33431 0.54957 0.0
H477 H 0.17715 0.35463 0.53105 0.0
H478 H 0.08158 0.29727 0.50243 0.0
C479 C 0.09312 0.3302 0.5376 0.0
O480 O 0.00536 0.00792 0.58401 0.0
Mg481 Mg 0.03582 0.02819 0.55527 0.0
O482 O 0.98012 0.98237 0.54715 0.0
Mg483 Mg -0.0021 -0.00012 0.50029 0.0
O484 O 0.01453 0.0466 0.52051 0.0
O485 O 0.04026 0.07424 0.55601 0.0
O486 O 0.01855 0.0216 0.45453 0.0
O487 O 0.95319 0.0216 0.49579 0.0
Mg488 Mg 0.97851 0.98228 0.45033 0.0
O489 O 0.97857 0.95048 0.48286 0.0
O490 O 0.01447 0.98294 0.42268 0.0
O491 O 0.9493 0.01737 0.44669 0.0
O492 O 0.95406 0.94476 0.43862 0.0
C493 C 0.06678 0.98202 0.52025 0.0
C494 C 0.98496 0.98894 0.57525 0.0
C495 C 0.02395 0.07279 0.53199 0.0
C496 C 0.02545 0.00899 0.42938 0.0
C497 C 0.94032 0.02779 0.47145 0.0
C498 C 0.96249 0.93374 0.46348 0.0
O499 O 0.07025 0.00297 0.54035 0.0
O500 O 0.04266 0.97706 0.50561 0.0
O501 O 0.46474 0.05327 0.04599 0.0
Mg502 Mg 0.50573 0.0548 0.02418 0.0
O503 O 0.4513 0.0199 0.01045 0.0
Mg504 Mg 0.4991 0.0086 -0.00175 0.0
O505 O 0.51096 0.05809 0.97887 0.0
O506 O 0.5067 0.09737 0.0116 0.0
O507 O 0.55045 -0.00074 0.98644 0.0
O508 O 0.48037 0.00317 0.94849 0.0
Mg509 Mg 0.51092 0.95971 0.97981 0.0
O510 O 0.48053 0.96046 0.0131 0.0
O511 O 0.55103 0.95184 -0.0022 0.0
O512 O 0.51045 0.96997 0.93363 0.0
O513 O 0.4849 0.92165 0.97995 0.0
C514 C 0.53754 0.02835 0.06218 0.0
C515 C 0.44454 0.0377 0.03201 0.0
C516 C 0.51011 0.08701 0.98455 0.0
C517 C 0.56494 0.97621 0.99227 0.0
C518 C 0.49163 0.98823 0.92716 0.0
C519 C 0.47333 0.93292 0.00371 0.0
O520 O 0.54433 0.05199 0.04864 0.0
O521 O 0.51698 0.01058 0.05072 0.0
O522 O 0.46789 0.54917 0.56776 0.0
Mg523 Mg 0.46426 0.50195 0.57351 0.0
O524 O 0.48328 0.54891 0.52033 0.0
Mg525 Mg 0.4925 0.49909 0.50565 0.0
O526 O 0.49978 0.48633 0.55362 0.0
O527 O 0.49225 0.48111 0.60228 0.0
O528 O 0.50129 0.44769 0.49366 0.0
O529 O 0.54277 0.51325 0.50608 0.0
Mg530 Mg 0.51494 0.48596 0.4443 0.0
O531 O 0.48415 0.51459 0.45699 0.0
O532 O 0.4997 0.44095 0.44423 0.0
O533 O 0.55726 0.4968 0.46132 0.0
O534 O 0.50096 0.50999 0.40979 0.0
C535 C 0.42289 0.47642 0.52463 0.0
C536 C 0.47505 0.56299 0.54414 0.0
C537 C 0.50864 0.47746 0.57929 0.0
C538 C 0.50033 0.43011 0.4701 0.0
C539 C 0.56296 0.50861 0.4873 0.0
C540 C 0.48304 0.52112 0.4287 0.0
O541 O 0.42782 0.47838 0.55285 0.0
O542 O 0.44219 0.48463 0.5056 0.0
O543 O 0.98949 0.43884 0.04666 0.0
Mg544 Mg 0.0046 0.48387 0.05123 0.0
O545 O 0.01345 0.45111 0.00705 0.0
Mg546 Mg 0.99447 0.50189 0.00348 0.0
O547 O 0.97463 0.51508 0.05279 0.0
O548 O 0.99309 0.49375 0.09354 0.0
O549 O 0.97594 0.55397 0.0036 0.0
O550 O 0.94911 0.47853 0.99422 0.0
Mg551 Mg 0.98768 0.52222 0.96533 0.0
O552 O 0.01154 0.48792 0.95181 0.0
O553 O 0.00918 0.56563 0.97182 0.0
O554 O 0.94071 0.51765 0.96835 0.0
O555 O 0.98946 0.51782 0.9204 0.0
C556 C 0.05798 0.51697 0.03309 0.0
C557 C 0.00489 0.43073 0.02513 0.0
C558 C 0.97526 0.51138 0.08178 0.0
C559 C 0.99 0.57446 0.98938 0.0
C560 C 0.93108 0.49395 0.98062 0.0
C561 C 0.00558 0.49568 0.92445 0.0
O562 O 0.04949 0.49722 0.0513 0.0
O563 O 0.04049 0.52497 0.01286 0.0
H564 H 0.0756 0.13333 0.28975 0.0
H565 H 0.05745 0.98401 0.38538 0.0
H566 H 0.0934 0.04373 0.25652 0.0
H567 H 0.03028 0.07019 0.41883 0.0
H568 H 0.07645 0.0078 0.34066 0.0
H569 H 0.06297 0.1126 0.33863 0.0
C570 C 0.07679 0.10932 0.29259 0.0
C571 C 0.08564 0.09032 0.26873 0.0
C572 C 0.06662 0.02171 0.3578 0.0
C573 C 0.07167 0.06655 0.32501 0.0
C574 C 0.0559 0.00814 0.38351 0.0
C575 C 0.0421 0.02509 0.40584 0.0
C576 C 0.06339 0.05259 0.35399 0.0
C577 C 0.04086 0.0563 0.40222 0.0
C578 C 0.06978 0.09756 0.32065 0.0
C579 C 0.0872 0.05946 0.27416 0.0
N580 N 0.05104 0.06902 0.37655 0.0
N581 N 0.08027 0.04864 0.30157 0.0
H582 H 0.38471 0.94842 0.76886 0.0
H583 H 0.52328 0.97973 0.87688 0.0
H584 H 0.47338 0.95242 0.73773 0.0
H585 H 0.43668 -0.00183 0.90561 0.0
H586 H 0.50507 0.97281 0.82504 0.0
H587 H 0.4024 0.96966 0.81809 0.0
C588 C 0.40782 0.9542 0.77218 0.0
C589 C 0.42764 0.94815 0.74922 0.0
C590 C 0.49002 0.97879 0.84251 0.0
C591 C 0.44803 0.97209 0.80559 0.0
C592 C 0.50045 0.98276 0.87213 0.0
C593 C 0.48141 0.98937 0.89552 0.0
C594 C 0.46014 0.98077 0.83619 0.0
C595 C 0.45205 0.99317 0.88815 0.0
C596 C 0.41791 0.96623 0.80033 0.0
C597 C 0.45736 0.95595 0.75494 0.0
N598 N 0.44216 0.98827 0.85913 0.0
N599 N 0.46664 0.96716 0.78258 0.0
H600 H 0.60838 0.38748 0.69739 0.0
H601 H 0.55935 0.51102 0.58619 0.0
H602 H 0.61607 0.4839 0.7159 0.0
H603 H 0.52196 0.41973 0.58699 0.0
H604 H 0.59867 0.49725 0.62003 0.0
H605 H 0.59408 0.39631 0.64539 0.0
C606 C 0.60729 0.41054 0.69048 0.0
C607 C 0.61252 0.43501 0.7113 0.0
C608 C 0.58257 0.47991 0.61174 0.0
C609 C 0.59707 0.44513 0.6516 0.0
C610 C 0.56044 0.48764 0.5921 0.0
C611 C 0.53751 0.46643 0.5842 0.0
C612 C 0.58144 0.45086 0.62328 0.0
C613 C 0.53939 0.43662 0.59277 0.0
C614 C 0.5995 0.4155 0.66071 0.0
C615 C 0.61194 0.46437 0.70074 0.0
N616 N 0.56067 0.42979 0.61249 0.0
N617 N 0.60384 0.46862 0.67169 0.0
H618 H 0.9219 0.61514 0.23389 0.0
H619 H 0.93233 0.48126 0.11043 0.0
H620 H 0.89412 0.52205 0.24753 0.0
H621 H 0.97252 0.57051 0.10083 0.0
H622 H 0.90774 0.49918 0.15549 0.0
H623 H 0.93129 0.60204 0.18112 0.0
C624 C 0.91771 0.59192 0.22578 0.0
C625 C 0.90773 0.56952 0.24538 0.0
C626 C 0.92135 0.51512 0.14322 0.0
C627 C 0.91799 0.55454 0.18475 0.0
C628 C 0.93509 0.50497 0.11734 0.0
C629 C 0.95415 0.52459 0.10198 0.0
C630 C 0.92718 0.54501 0.15411 0.0
C631 C 0.95761 0.55489 0.11198 0.0
C632 C 0.92287 0.58455 0.19558 0.0
C633 C 0.90184 0.54005 0.23334 0.0
N634 N 0.94457 0.56414 0.13779 0.0
N635 N 0.90735 0.53337 0.20389 0.0
H636 H 0.25841 0.02512 0.07023 0.0
H637 H 0.42373 0.0867 0.06112 0.0
H638 H 0.28517 0.12004 0.07178 0.0
H639 H 0.39494 0.00079 0.01843 0.0
H640 H 0.37312 0.09675 0.07092 0.0
H641 H 0.30813 0.01333 0.0559 0.0
C642 C 0.27467 0.04346 0.06734 0.0
C643 C 0.26763 0.07363 0.07222 0.0
C644 C 0.37781 0.07568 0.05941 0.0
C645 C 0.32446 0.06027 0.05636 0.0
C646 C 0.40676 0.06978 0.05399 0.0
C647 C 0.41366 0.04279 0.03898 0.0
C648 C 0.35537 0.05426 0.05029 0.0
C649 C 0.39059 0.02189 0.03004 0.0
C650 C 0.30295 0.0367 0.05908 0.0
C651 C 0.2895 0.0965 0.06801 0.0
N652 N 0.36242 0.02795 0.03606 0.0
N653 N 0.31694 0.08934 0.0607 0.0
H654 H 0.20599 0.90868 0.60367 0.0
H655 H 0.11404 0.98776 0.48416 0.0
H656 H 0.24115 0.92516 0.5159 0.0
H657 H 0.07429 0.93233 0.55163 0.0
H658 H 0.16034 0.96401 0.4926 0.0
H659 H 0.15727 0.91725 0.58407 0.0
C660 C 0.20331 0.91399 0.58018 0.0
C661 C 0.22747 0.9165 0.56138 0.0
C662 C 0.14123 0.95632 0.50483 0.0
C663 C 0.17193 0.92651 0.53878 0.0
C664 C 0.11484 0.96966 0.49981 0.0
C665 C 0.09046 0.96155 0.51698 0.0
C666 C 0.14322 0.93557 0.52781 0.0
C667 C 0.09262 0.93876 0.53769 0.0
C668 C 0.17553 0.91862 0.56892 0.0
C669 C 0.22293 0.92313 0.53105 0.0
N670 N 0.11872 0.92695 0.54298 0.0
N671 N 0.19569 0.92844 0.52074 0.0
H672 H 0.76917 0.38769 0.95273 0.0
H673 H 0.88614 0.52789 0.96511 0.0
H674 H 0.74805 0.47971 0.93913 0.0
H675 H 0.905 0.43815 0.99066 0.0
H676 H 0.83491 0.51096 0.9578 0.0
H677 H 0.81828 0.4059 0.96924 0.0
C678 C 0.77469 0.41179 0.95374 0.0
C679 C 0.75448 0.43223 0.94449 0.0
C680 C 0.85017 0.49497 0.96518 0.0
C681 C 0.81085 0.45317 0.96284 0.0
C682 C 0.87945 0.50461 0.96926 0.0
C683 C 0.89984 0.48429 0.97822 0.0
C684 C 0.84126 0.46469 0.96973 0.0
C685 C 0.88995 0.4545 0.98366 0.0
C686 C 0.80281 0.42215 0.96299 0.0
C687 C 0.76306 0.46314 0.94568 0.0
N688 N 0.86136 0.44549 0.97902 0.0
N689 N 0.79066 0.47265 0.95448 0.0
H690 H 0.742 0.49925 0.45272 0.0
H691 H 0.59067 0.56395 0.501 0.0
H692 H 0.72973 0.59439 0.46627 0.0
H693 H 0.60519 0.46935 0.48859 0.0
H694 H 0.64355 0.5757 0.49764 0.0
H695 H 0.6939 0.48785 0.47366 0.0
C696 C 0.7292 0.51773 0.46022 0.0
C697 C 0.73975 0.54779 0.45747 0.0
C698 C 0.63525 0.55231 0.49645 0.0
C699 C 0.68459 0.53499 0.48154 0.0
C700 C 0.60516 0.54565 0.49874 0.0
C701 C 0.59385 0.5157 0.49508 0.0
C702 C 0.65379 0.52878 0.4903 0.0
C703 C 0.61327 0.49275 0.49151 0.0
C704 C 0.7018 0.51125 0.47237 0.0
C705 C 0.72245 0.57088 0.46806 0.0
N706 N 0.64224 0.49977 0.48883 0.0
N707 N 0.69557 0.56401 0.47929 0.0
H708 H 0.08065 0.2831 0.10691 0.0
H709 H 0.04092 0.40128 0.98455 0.0
H710 H 0.08785 0.25817 0.01239 0.0
H711 H -0.00172 0.39138 0.07002 0.0
H712 H 0.06486 0.35361 0.99301 0.0
H713 H 0.05842 0.329 0.0931 0.0
C714 C 0.07732 0.28702 0.0832 0.0
C715 C 0.08562 0.26612 0.06087 0.0
C716 C 0.05005 0.36203 0.00964 0.0
C717 C 0.06057 0.31964 0.04479 0.0
C718 C 0.03635 0.38911 0.0048 0.0
C719 C 0.01748 0.40056 0.02653 0.0
C720 C 0.04533 0.34696 0.03668 0.0
C721 C 0.01251 0.38376 0.05245 0.0
C722 C 0.06476 0.31346 0.07531 0.0
C723 C 0.08177 0.27349 0.03045 0.0
N724 N 0.02653 0.35829 0.05687 0.0
N725 N 0.06944 0.29962 0.02325 0.0
H726 H 0.57053 0.21238 0.8486 0.0
H727 H 0.48156 0.13775 0.98158 0.0
H728 H 0.54728 0.25879 0.93109 0.0
H729 H 0.54456 0.08656 0.93401 0.0
H730 H 0.49299 0.18023 0.94992 0.0
H731 H 0.55057 0.16434 0.86873 0.0
C732 C 0.56099 0.21238 0.87077 0.0
C733 C 0.5605 0.23927 0.88842 0.0
C734 C 0.50404 0.15958 0.94608 0.0
C735 C 0.53744 0.18539 0.91087 0.0
C736 C 0.49752 0.13534 0.96405 0.0
C737 C 0.5127 0.10902 0.96075 0.0
C738 C 0.52603 0.15762 0.92476 0.0
C739 C 0.53267 0.10672 0.93731 0.0
C740 C 0.54978 0.18516 0.88216 0.0
C741 C 0.54814 0.23842 0.91697 0.0
N742 N 0.53926 0.13113 0.92036 0.0
N743 N 0.53699 0.21191 0.92726 0.0
H744 H 0.9243 0.75132 0.41014 0.0
H745 H 0.9853 0.89623 0.50536 0.0
H746 H 0.94212 0.74317 0.50523 0.0
H747 H 0.92306 0.89717 0.43138 0.0
H748 H 0.97689 0.8407 0.50572 0.0
H749 H 0.93346 0.80563 0.41615 0.0
C750 C 0.93067 0.76094 0.43226 0.0
C751 C 0.9327 0.74266 0.45719 0.0
C752 C 0.96495 0.85335 0.48976 0.0
C753 C 0.94262 0.80522 0.46434 0.0
C754 C 0.96964 0.88492 0.48956 0.0
C755 C 0.95522 0.90131 0.46797 0.0
C756 C 0.94606 0.83848 0.468 0.0
C757 C 0.93512 0.88555 0.44807 0.0
C758 C 0.93552 0.79202 0.43574 0.0
C759 C 0.94033 0.75657 0.48548 0.0
N760 N 0.93146 0.8551 0.44834 0.0
N761 N 0.94515 0.7872 0.48835 0.0
H762 H 0.42073 0.74281 0.5091 0.0
H763 H 0.47987 0.60156 0.59294 0.0
H764 H 0.43286 0.73725 0.60543 0.0
H765 H 0.4634 0.59935 0.49682 0.0
H766 H 0.46833 0.65419 0.59592 0.0
H767 H 0.44033 0.6927 0.50234 0.0
C768 C 0.4276 0.7312 0.52878 0.0
C769 C 0.42532 0.74448 0.55788 0.0
C770 C 0.46736 0.64243 0.57406 0.0
C771 C 0.44793 0.68745 0.55026 0.0
C772 C 0.47404 0.61231 0.57235 0.0
C773 C 0.47229 0.59599 0.54465 0.0
C774 C 0.45846 0.65648 0.54793 0.0
C775 C 0.46498 0.61119 0.51864 0.0
C776 C 0.43892 0.70271 0.52487 0.0
C777 C 0.43475 0.72843 0.58251 0.0
N778 N 0.45792 0.64059 0.52095 0.0
N779 N 0.44552 0.7009 0.57811 0.0
H780 H 0.91478 0.87953 0.71869 0.0
H781 H 0.95788 0.02083 0.61779 0.0
H782 H 0.90335 0.97275 0.74451 0.0
H783 H 0.97027 0.92928 0.58719 0.0
H784 H 0.93427 0.00212 0.66268 0.0
H785 H 0.93334 0.89577 0.66985 0.0
C786 C 0.91626 0.90338 0.71419 0.0
C787 C 0.90727 0.92477 0.73578 0.0
C788 C 0.9418 0.98592 0.64615 0.0
C789 C 0.92811 0.94341 0.67981 0.0
C790 C 0.95511 -0.00336 0.62039 0.0
C791 C 0.96586 0.97655 0.59878 0.0
C792 C 0.93959 0.95475 0.65083 0.0
C793 C 0.96192 0.94544 0.60325 0.0
C794 C 0.92663 0.91258 0.6862 0.0
C795 C 0.90946 0.95533 0.7285 0.0
N796 N 0.94937 0.93543 0.62904 0.0
N797 N 0.91961 0.96364 0.70129 0.0
H798 H 0.56579 0.022 0.25796 0.0
H799 H 0.58854 0.05421 0.0846 0.0
H800 H 0.59488 0.10829 0.22425 0.0
H801 H 0.51383 -0.00218 0.11024 0.0
H802 H 0.6026 0.0622 0.13756 0.0
H803 H 0.55628 0.00272 0.20536 0.0
C804 C 0.57024 0.03673 0.23945 0.0
C805 C 0.58095 0.06674 0.24515 0.0
C806 C 0.58341 0.04764 0.13159 0.0
C807 C 0.57102 0.04488 0.18577 0.0
C808 C 0.57542 0.0429 0.10137 0.0
C809 C 0.54966 0.02576 0.09302 0.0
C810 C 0.5657 0.03501 0.15382 0.0
C811 C 0.53376 0.01133 0.11576 0.0
C812 C 0.56481 0.0258 0.20967 0.0
C813 C 0.58648 0.08507 0.22066 0.0
N814 N 0.54182 0.01663 0.14535 0.0
N815 N 0.58164 0.0738 0.19206 0.0
H816 H 0.40523 0.63294 0.30176 0.0
H817 H 0.4273 0.502 0.41629 0.0
H818 H 0.38476 0.53787 0.28121 0.0
H819 H 0.48861 0.57892 0.41099 0.0
H820 H 0.39631 0.52361 0.37815 0.0
H821 H 0.42246 0.62027 0.35191 0.0
C822 C 0.40423 0.60945 0.30765 0.0
C823 C 0.3938 0.58642 0.28683 0.0
C824 C 0.41601 0.53626 0.3862 0.0
C825 C 0.41213 0.57222 0.34469 0.0
C826 C 0.43341 0.52419 0.40816 0.0
C827 C 0.46023 0.53897 0.41668 0.0
C828 C 0.42561 0.56325 0.37302 0.0
C829 C 0.46783 0.56717 0.40502 0.0
C830 C 0.4137 0.6024 0.33642 0.0
C831 C 0.3922 0.55652 0.29636 0.0
N832 N 0.45072 0.57834 0.38338 0.0
N833 N 0.40135 0.55031 0.32455 0.0
H834 H 0.11006 0.42265 0.77918 0.0
H835 H 0.97941 0.49204 0.86978 0.0
H836 H 0.02371 0.43283 0.74287 0.0
H837 H 0.05594 0.46451 0.91655 0.0
H838 H -0.00213 0.47257 0.82279 0.0
H839 H 0.09359 0.44058 0.82912 0.0
C840 C 0.08776 0.42886 0.78173 0.0
C841 C 0.0681 0.42615 0.75704 0.0
C842 C 0.01071 0.47043 0.84321 0.0
C843 C 0.04927 0.44641 0.81354 0.0
C844 C 0.00014 0.48161 0.87019 0.0
C845 C 0.01621 0.48 0.89717 0.0
C846 C 0.03779 0.45748 0.84277 0.0
C847 C 0.04283 0.46603 0.89623 0.0
C848 C 0.07835 0.43881 0.81016 0.0
C849 C 0.03945 0.43428 0.7614 0.0
N850 N 0.053 0.45546 0.86928 0.0
N851 N 0.03098 0.44404 0.78899 0.0
H852 H 0.7431 0.96998 0.92544 0.0
H853 H 0.60036 0.94145 0.02281 0.0
H854 H 0.71541 0.88478 0.96318 0.0
H855 H 0.60212 0.00719 0.95362 0.0
H856 H 0.64952 0.92895 0.0098 0.0
H857 H 0.69727 0.99055 0.94202 0.0
C858 C 0.72756 0.9555 0.9371 0.0
C859 C 0.73357 0.92546 0.94303 0.0
C860 C 0.6394 0.9464 -0.00235 0.0
C861 C 0.68148 0.94941 0.96278 0.0
C862 C 0.61138 0.95377 0.00523 0.0
C863 C 0.59697 0.97522 0.98909 0.0
C864 C 0.65347 0.96055 0.97372 0.0
C865 C 0.61248 0.99057 0.96667 0.0
C866 C 0.70148 0.96742 0.94669 0.0
C867 C 0.71252 0.9082 0.9587 0.0
N868 N 0.63991 0.98268 0.95934 0.0
N869 N 0.68767 0.92044 0.96808 0.0
H870 H 0.79184 0.12958 0.42554 0.0
H871 H 0.89513 0.02064 0.51016 0.0
H872 H 0.75983 0.04285 0.45606 0.0
H873 H 0.92325 0.06954 0.43258 0.0
H874 H 0.84631 0.03992 0.50416 0.0
H875 H 0.84141 0.11851 0.44182 0.0
C876 C 0.79525 0.10847 0.43618 0.0
C877 C 0.77196 0.08697 0.4394 0.0
C878 C 0.86342 0.04683 0.48889 0.0
C879 C 0.82803 0.0745 0.45833 0.0
C880 C 0.89122 0.0361 0.49242 0.0
C881 C 0.91305 0.04356 0.47177 0.0
C882 C 0.85785 0.06571 0.46506 0.0
C883 C 0.90686 0.06326 0.44887 0.0
C884 C 0.8234 0.10216 0.44531 0.0
C885 C 0.77737 0.05985 0.45309 0.0
N886 N 0.87979 0.07371 0.44611 0.0
N887 N 0.80492 0.05435 0.46212 0.0
H888 H 0.24026 0.57725 0.01834 0.0
H889 H 0.08429 0.53315 0.0862 0.0
H890 H 0.21813 0.58764 0.1122 0.0
H891 H 0.09761 0.53464 0.99026 0.0
H892 H 0.13375 0.5544 0.09504 0.0
H893 H 0.18874 0.56242 0.0062 0.0
C894 C 0.22458 0.57641 0.03632 0.0
C895 C 0.23351 0.58302 0.06639 0.0
C896 C 0.12604 0.55024 0.07197 0.0
C897 C 0.175 0.56646 0.05276 0.0
C898 C 0.09781 0.53802 0.06696 0.0
C899 C 0.08717 0.53191 0.03752 0.0
C900 C 0.14412 0.55591 0.04734 0.0
C901 C 0.10525 0.53908 0.01331 0.0
C902 C 0.19528 0.56803 0.02939 0.0
C903 C 0.2124 0.58184 0.08884 0.0
N904 N 0.13318 0.5504 0.01875 0.0
N905 N 0.18426 0.57361 0.08156 0.0
H906 H 0.24636 0.4927 0.55618 0.0
H907 H 0.39561 0.42077 0.52603 0.0
H908 H 0.25311 0.3965 0.54389 0.0
H909 H 0.3819 0.51289 0.50536 0.0
H910 H 0.34279 0.4105 0.52865 0.0
H911 H 0.29541 0.50075 0.53555 0.0
C912 C 0.25812 0.47333 0.54898 0.0
C913 C 0.24577 0.44392 0.5518 0.0
C914 C 0.35119 0.43275 0.5226 0.0
C915 C 0.30167 0.45285 0.52833 0.0
C916 C 0.3813 0.43845 0.52076 0.0
C917 C 0.39285 0.46752 0.51501 0.0
C918 C 0.33269 0.45662 0.5197 0.0
C919 C 0.37361 0.49004 0.50932 0.0
C920 C 0.28595 0.4779 0.53696 0.0
C921 C 0.26178 0.41957 0.54191 0.0
N922 N 0.3444 0.48431 0.51246 0.0
N923 N 0.28901 0.42456 0.53098 0.0
H924 H 0.9398 0.72099 0.89076 0.0
H925 H 0.94241 0.60083 0.01522 0.0
H926 H 0.9102 0.74837 0.97908 0.0
H927 H 0.01501 0.61924 0.95665 0.0
H928 H 0.92281 0.64924 0.00134 0.0
H929 H 0.95882 0.67647 0.91209 0.0
C930 C 0.93747 0.718 0.91471 0.0
C931 C 0.92397 0.73933 0.93316 0.0
C932 C 0.94325 0.64268 0.99203 0.0
C933 C 0.9449 0.68703 0.95754 0.0
C934 C 0.95451 0.61519 1e-05 0.0
C935 C 0.98032 0.60573 0.98694 0.0
C936 C 0.95761 0.66022 0.9704 0.0
C937 C 0.99495 0.62527 0.96718 0.0
C938 C 0.9482 0.69229 0.92681 0.0
C939 C 0.92045 0.73281 0.96385 0.0
N940 N 0.98315 0.65114 0.95913 0.0
N941 N 0.93084 0.7072 0.97511 0.0
H942 H 0.42784 0.75809 0.05006 0.0
H943 H 0.47114 0.93206 0.0654 0.0
H944 H 0.42363 0.80463 0.13697 0.0
H945 H 0.43683 0.88626 0.98372 0.0
H946 H 0.45442 0.88799 0.09394 0.0
H947 H 0.43516 0.80635 0.02658 0.0
C948 C 0.42852 0.77858 0.06421 0.0
C949 C 0.42471 0.77745 0.09541 0.0
C950 C 0.44993 0.88803 0.0699 0.0
C951 C 0.43313 0.83296 0.06865 0.0
C952 C 0.45919 0.91319 0.05369 0.0
C953 C 0.45577 0.91232 0.02218 0.0
C954 C 0.43751 0.8622 0.05418 0.0
C955 C 0.44034 0.88745 0.00795 0.0
C956 C 0.4325 0.80615 0.05079 0.0
C957 C 0.42654 0.80464 0.1128 0.0
N958 N 0.43223 0.86314 0.02399 0.0
N959 N 0.43063 0.8315 0.09914 0.0
H960 H 0.08428 0.24604 0.50589 0.0
H961 H 0.98305 0.10895 0.5528 0.0
H962 H 0.00527 0.25748 0.55562 0.0
H963 H 0.04932 0.10209 0.48579 0.0
H964 H 0.98455 0.16362 0.54713 0.0
H965 H 0.06693 0.19477 0.4919 0.0
C966 C 0.06294 0.23815 0.51338 0.0
C967 C 0.04638 0.25641 0.53224 0.0
C968 C -0.00196 0.15015 0.53282 0.0
C969 C 0.02671 0.19666 0.5169 0.0
C970 C -0.0031 0.11892 0.53581 0.0
C971 C 0.01595 0.10125 0.51955 0.0
C972 C 0.01897 0.16369 0.51402 0.0
C973 C 0.03411 0.11509 0.49846 0.0
C974 C 0.05308 0.20859 0.50544 0.0
C975 C 0.0192 0.24419 0.54168 0.0
N976 N 0.03565 0.14566 0.49676 0.0
N977 N 0.01044 0.21495 0.53432 0.0
H978 H 0.58362 0.2615 0.4928 0.0
H979 H 0.482 0.38546 0.42969 0.0
H980 H 0.56037 0.27108 0.39901 0.0
H981 H 0.53066 0.4012 0.5134 0.0
H982 H 0.50072 0.33542 0.42461 0.0
H983 H 0.55701 0.30649 0.50572 0.0
C984 C 0.57299 0.27291 0.47492 0.0
C985 C 0.5741 0.26212 0.44472 0.0
C986 C 0.50703 0.3496 0.44433 0.0
C987 C 0.54303 0.31292 0.45959 0.0
C988 C 0.49616 0.37808 0.44737 0.0
C989 C 0.50513 0.39763 0.47177 0.0
C990 C 0.52721 0.34054 0.46573 0.0
C991 C 0.52328 0.38679 0.49419 0.0
C992 C 0.55765 0.29842 0.48241 0.0
C993 C 0.55957 0.27779 0.42267 0.0
N994 N 0.53419 0.35902 0.4904 0.0
N995 N 0.54465 0.3022 0.43057 0.0
loop_
_geom_bond_atom_site_label_1
_geom_bond_atom_site_label_2
_geom_bond_distance
_geom_bond_site_symmetry_2
_ccdc_geom_bond_type
C0 C1 1.391 . S
C0 C4 1.391 . S
C0 H42 0.948 . S
C1 C0 1.391 . S
C1 C2 1.391 . S
C2 C1 1.391 . S
C2 H58 0.947 . S
C2 C59 1.392 . S
C3 C4 1.391 . S
C3 C7 1.397 . S
C3 C59 1.419 . S
C4 C0 1.391 . S
C4 C3 1.391 . S
C4 C5 1.399 . S
C5 C4 1.399 . S
C5 C8 1.396 . S
C5 C17 1.453 . S
C5 C18 1.684 . S
H6 C30 0.948 . S
C7 C3 1.397 . S
C7 C8 1.394 . S
C7 C26 1.723 . S
C8 C5 1.396 . S
C8 C7 1.394 . S
C8 C38 1.723 . S
H9 C32 0.947 . S
H10 C33 0.948 . S
H11 C39 0.982 . S
H12 C40 0.979 . S
H13 C40 0.980 . S
H14 C40 0.983 . S
H15 C39 0.979 . S
H16 C39 0.977 . S
C17 C5 1.453 . S
C17 H46 0.982 . S
C17 H47 0.979 . S
C17 H48 0.977 . S
C18 C5 1.684 . S
C18 H43 0.979 . S
C18 H44 0.980 . S
C18 H45 0.983 . S
C19 C20 1.391 . S
C19 C24 1.391 . S
C19 H49 0.948 . S
C20 C19 1.391 . S
C20 C21 1.391 . S
C21 C20 1.391 . S
C21 C22 1.392 . S
C21 H50 0.947 . S
C22 C21 1.392 . S
C22 C23 1.419 . S
C22 H51 0.948 . S
C23 C22 1.419 . S
C23 C24 1.391 . S
C23 C27 1.397 . S
C24 C19 1.391 . S
C24 C23 1.391 . S
C24 C25 1.399 . S
C25 C24 1.399 . S
C25 C26 1.396 . S
C25 C28 1.453 . S
C25 C29 1.684 . S
C26 C7 1.723 . S
C26 C25 1.396 . S
C26 C27 1.394 . S
C27 C23 1.397 . S
C27 C26 1.394 . S
C27 C37 1.723 . S
C28 C25 1.453 . S
C28 H52 0.982 . S
C28 H53 0.979 . S
C28 H54 0.977 . S
C29 C25 1.684 . S
C29 H55 0.979 . S
C29 H56 0.980 . S
C29 H57 0.983 . S
C30 H6 0.948 . S
C30 C31 1.391 . S
C30 C35 1.391 . S
C31 C30 1.391 . S
C31 C32 1.391 . S
C32 H9 0.947 . S
C32 C31 1.391 . S
C32 C33 1.392 . S
C33 H10 0.948 . S
C33 C32 1.392 . S
C33 C34 1.419 . S
C34 C33 1.419 . S
C34 C35 1.391 . S
C34 C38 1.397 . S
C35 C30 1.391 . S
C35 C34 1.391 . S
C35 C36 1.399 . S
C36 C35 1.399 . S
C36 C37 1.396 . S
C36 C39 1.453 . S
C36 C40 1.684 . S
C37 C27 1.723 . S
C37 C36 1.396 . S
C37 C38 1.394 . S
C38 C8 1.723 . S
C38 C34 1.397 . S
C38 C37 1.394 . S
C39 H11 0.982 . S
C39 H15 0.979 . S
C39 H16 0.977 . S
C39 C36 1.453 . S
C40 H12 0.979 . S
C40 H13 0.980 . S
C40 H14 0.983 . S
C40 C36 1.684 . S
H41 C59 0.948 . S
H42 C0 0.948 . S
H43 C18 0.979 . S
H44 C18 0.980 . S
H45 C18 0.983 . S
H46 C17 0.982 . S
H47 C17 0.979 . S
H48 C17 0.977 . S
H49 C19 0.948 . S
H50 C21 0.947 . S
H51 C22 0.948 . S
H52 C28 0.982 . S
H53 C28 0.979 . S
H54 C28 0.977 . S
H55 C29 0.979 . S
H56 C29 0.980 . S
H57 C29 0.983 . S
H58 C2 0.947 . S
C59 C2 1.392 . S
C59 C3 1.419 . S
C59 H41 0.948 . S
C60 C61 1.391 . S
C60 C64 1.391 . S
C60 H102 0.948 . S
C61 C60 1.391 . S
C61 C62 1.391 . S
C62 C61 1.391 . S
C62 H118 0.947 . S
C62 C119 1.392 . S
C63 C64 1.391 . S
C63 C67 1.397 . S
C63 C119 1.419 . S
C64 C60 1.391 . S
C64 C63 1.391 . S
C64 C65 1.399 . S
C65 C64 1.399 . S
C65 C68 1.396 . S
C65 C77 1.453 . S
C65 C78 1.684 . S
H66 C90 0.948 . S
C67 C63 1.397 . S
C67 C68 1.394 . S
C67 C86 1.723 . S
C68 C65 1.396 . S
C68 C67 1.394 . S
C68 C98 1.723 . S
H69 C92 0.947 . S
H70 C93 0.948 . S
H71 C99 0.982 . S
H72 C100 0.979 . S
H73 C100 0.980 . S
H74 C100 0.983 . S
H75 C99 0.979 . S
H76 C99 0.977 . S
C77 C65 1.453 . S
C77 H106 0.982 . S
C77 H107 0.979 . S
C77 H108 0.977 . S
C78 C65 1.684 . S
C78 H103 0.979 . S
C78 H104 0.980 . S
C78 H105 0.983 . S
C79 C80 1.391 . S
C79 C84 1.391 . S
C79 H109 0.948 . S
C80 C79 1.391 . S
C80 C81 1.391 . S
C81 C80 1.391 . S
C81 C82 1.392 . S
C81 H110 0.947 . S
C82 C81 1.392 . S
C82 C83 1.419 . S
C82 H111 0.948 . S
C83 C82 1.419 . S
C83 C84 1.391 . S
C83 C87 1.397 . S
C84 C79 1.391 . S
C84 C83 1.391 . S
C84 C85 1.399 . S
C85 C84 1.399 . S
C85 C86 1.396 . S
C85 C88 1.453 . S
C85 C89 1.684 . S
C86 C67 1.723 . S
C86 C85 1.396 . S
C86 C87 1.394 . S
C87 C83 1.397 . S
C87 C86 1.394 . S
C87 C97 1.723 . S
C88 C85 1.453 . S
C88 H112 0.982 . S
C88 H113 0.979 . S
C88 H114 0.977 . S
C89 C85 1.684 . S
C89 H115 0.979 . S
C89 H116 0.980 . S
C89 H117 0.983 . S
C90 H66 0.948 . S
C90 C91 1.391 . S
C90 C95 1.391 . S
C91 C90 1.391 . S
C91 C92 1.391 . S
C92 H69 0.947 . S
C92 C91 1.391 . S
C92 C93 1.392 . S
C93 H70 0.948 . S
C93 C92 1.392 . S
C93 C94 1.419 . S
C94 C93 1.419 . S
C94 C95 1.391 . S
C94 C98 1.397 . S
C95 C90 1.391 . S
C95 C94 1.391 . S
C95 C96 1.399 . S
C96 C95 1.399 . S
C96 C97 1.396 . S
C96 C99 1.453 . S
C96 C100 1.684 . S
C97 C87 1.723 . S
C97 C96 1.396 . S
C97 C98 1.394 . S
C98 C68 1.723 . S
C98 C94 1.397 . S
C98 C97 1.394 . S
C99 H71 0.982 . S
C99 H75 0.979 . S
C99 H76 0.977 . S
C99 C96 1.453 . S
C100 H72 0.979 . S
C100 H73 0.980 . S
C100 H74 0.983 . S
C100 C96 1.684 . S
H101 C119 0.948 . S
H102 C60 0.948 . S
H103 C78 0.979 . S
H104 C78 0.980 . S
H105 C78 0.983 . S
H106 C77 0.982 . S
H107 C77 0.979 . S
H108 C77 0.977 . S
H109 C79 0.948 . S
H110 C81 0.947 . S
H111 C82 0.948 . S
H112 C88 0.982 . S
H113 C88 0.979 . S
H114 C88 0.977 . S
H115 C89 0.979 . S
H116 C89 0.980 . S
H117 C89 0.983 . S
H118 C62 0.947 . S
C119 C62 1.392 . S
C119 C63 1.419 . S
C119 H101 0.948 . S
C120 C121 1.391 . S
C120 C124 1.391 . S
C120 H162 0.948 . S
C121 C120 1.391 . S
C121 C122 1.391 . S
C122 C121 1.391 . S
C122 H178 0.947 . S
C122 C179 1.392 . S
C123 C124 1.391 . S
C123 C127 1.397 . S
C123 C179 1.419 . S
C124 C120 1.391 . S
C124 C123 1.391 . S
C124 C125 1.399 . S
C125 C124 1.399 . S
C125 C128 1.396 . S
C125 C137 1.453 . S
C125 C138 1.684 . S
H126 C150 0.948 . S
C127 C123 1.397 . S
C127 C128 1.394 . S
C127 C146 1.723 . S
C128 C125 1.396 . S
C128 C127 1.394 . S
C128 C158 1.723 . S
H129 C152 0.947 . S
H130 C153 0.948 . S
H131 C159 0.982 . S
H132 C160 0.979 . S
H133 C160 0.980 . S
H134 C160 0.983 . S
H135 C159 0.979 . S
H136 C159 0.977 . S
C137 C125 1.453 . S
C137 H166 0.982 . S
C137 H167 0.979 . S
C137 H168 0.977 . S
C138 C125 1.684 . S
C138 H163 0.979 . S
C138 H164 0.980 . S
C138 H165 0.983 . S
C139 C140 1.391 . S
C139 C144 1.391 . S
C139 H169 0.948 . S
C140 C139 1.391 . S
C140 C141 1.391 . S
C141 C140 1.391 . S
C141 C142 1.392 . S
C141 H170 0.947 . S
C142 C141 1.392 . S
C142 C143 1.419 . S
C142 H171 0.948 . S
C143 C142 1.419 . S
C143 C144 1.391 . S
C143 C147 1.397 . S
C144 C139 1.391 . S
C144 C143 1.391 . S
C144 C145 1.399 . S
C145 C144 1.399 . S
C145 C146 1.396 . S
C145 C148 1.453 . S
C145 C149 1.684 . S
C146 C127 1.723 . S
C146 C145 1.396 . S
C146 C147 1.394 . S
C147 C143 1.397 . S
C147 C146 1.394 . S
C147 C157 1.723 . S
C148 C145 1.453 . S
C148 H172 0.982 . S
C148 H173 0.979 . S
C148 H174 0.977 . S
C149 C145 1.684 . S
C149 H175 0.979 . S
C149 H176 0.980 . S
C149 H177 0.983 . S
C150 H126 0.948 . S
C150 C151 1.391 . S
C150 C155 1.391 . S
C151 C150 1.391 . S
C151 C152 1.391 . S
C152 H129 0.947 . S
C152 C151 1.391 . S
C152 C153 1.392 . S
C153 H130 0.948 . S
C153 C152 1.392 . S
C153 C154 1.419 . S
C154 C153 1.419 . S
C154 C155 1.391 . S
C154 C158 1.397 . S
C155 C150 1.391 . S
C155 C154 1.391 . S
C155 C156 1.399 . S
C156 C155 1.399 . S
C156 C157 1.396 . S
C156 C159 1.453 . S
C156 C160 1.684 . S
C157 C147 1.723 . S
C157 C156 1.396 . S
C157 C158 1.394 . S
C158 C128 1.723 . S
C158 C154 1.397 . S
C158 C157 1.394 . S
C159 H131 0.982 . S
C159 H135 0.979 . S
C159 H136 0.977 . S
C159 C156 1.453 . S
C160 H132 0.979 . S
C160 H133 0.980 . S
C160 H134 0.983 . S
C160 C156 1.684 . S
H161 C179 0.948 . S
H162 C120 0.948 . S
H163 C138 0.979 . S
H164 C138 0.980 . S
H165 C138 0.983 . S
H166 C137 0.982 . S
H167 C137 0.979 . S
H168 C137 0.977 . S
H169 C139 0.948 . S
H170 C141 0.947 . S
H171 C142 0.948 . S
H172 C148 0.982 . S
H173 C148 0.979 . S
H174 C148 0.977 . S
H175 C149 0.979 . S
H176 C149 0.980 . S
H177 C149 0.983 . S
H178 C122 0.947 . S
C179 C122 1.392 . S
C179 C123 1.419 . S
C179 H161 0.948 . S
C180 C181 1.391 . S
C180 C184 1.391 . S
C180 H222 0.948 . S
C181 C180 1.391 . S
C181 C182 1.391 . S
C182 C181 1.391 . S
C182 H238 0.947 . S
C182 C239 1.392 . S
C183 C184 1.391 . S
C183 C187 1.397 . S
C183 C239 1.419 . S
C184 C180 1.391 . S
C184 C183 1.391 . S
C184 C185 1.399 . S
C185 C184 1.399 . S
C185 C188 1.396 . S
C185 C197 1.453 . S
C185 C198 1.684 . S
H186 C210 0.948 . S
C187 C183 1.397 . S
C187 C188 1.394 . S
C187 C206 1.723 . S
C188 C185 1.396 . S
C188 C187 1.394 . S
C188 C218 1.723 . S
H189 C212 0.947 . S
H190 C213 0.948 . S
H191 C219 0.982 . S
H192 C220 0.979 . S
H193 C220 0.980 . S
H194 C220 0.983 . S
H195 C219 0.979 . S
H196 C219 0.977 . S
C197 C185 1.453 . S
C197 H226 0.982 . S
C197 H227 0.979 . S
C197 H228 0.977 . S
C198 C185 1.684 . S
C198 H223 0.979 . S
C198 H224 0.980 . S
C198 H225 0.983 . S
C199 C200 1.391 . S
C199 C204 1.391 . S
C199 H229 0.948 . S
C200 C199 1.391 . S
C200 C201 1.391 . S
C201 C200 1.391 . S
C201 C202 1.392 . S
C201 H230 0.947 . S
C202 C201 1.392 . S
C202 C203 1.419 . S
C202 H231 0.948 . S
C203 C202 1.419 . S
C203 C204 1.391 . S
C203 C207 1.397 . S
C204 C199 1.391 . S
C204 C203 1.391 . S
C204 C205 1.399 . S
C205 C204 1.399 . S
C205 C206 1.396 . S
C205 C208 1.453 . S
C205 C209 1.684 . S
C206 C187 1.723 . S
C206 C205 1.396 . S
C206 C207 1.394 . S
C207 C203 1.397 . S
C207 C206 1.394 . S
C207 C217 1.723 . S
C208 C205 1.453 . S
C208 H232 0.982 . S
C208 H233 0.979 . S
C208 H234 0.977 . S
C209 C205 1.684 . S
C209 H235 0.979 . S
C209 H236 0.980 . S
C209 H237 0.983 . S
C210 H186 0.948 . S
C210 C211 1.391 . S
C210 C215 1.391 . S
C211 C210 1.391 . S
C211 C212 1.391 . S
C212 H189 0.947 . S
C212 C211 1.391 . S
C212 C213 1.392 . S
C213 H190 0.948 . S
C213 C212 1.392 . S
C213 C214 1.419 . S
C214 C213 1.419 . S
C214 C215 1.391 . S
C214 C218 1.397 . S
C215 C210 1.391 . S
C215 C214 1.391 . S
C215 C216 1.399 . S
C216 C215 1.399 . S
C216 C217 1.396 . S
C216 C219 1.453 . S
C216 C220 1.684 . S
C217 C207 1.723 . S
C217 C216 1.396 . S
C217 C218 1.394 . S
C218 C188 1.723 . S
C218 C214 1.397 . S
C218 C217 1.394 . S
C219 H191 0.982 . S
C219 H195 0.979 . S
C219 H196 0.977 . S
C219 C216 1.453 . S
C220 H192 0.979 . S
C220 H193 0.980 . S
C220 H194 0.983 . S
C220 C216 1.684 . S
H221 C239 0.948 . S
H222 C180 0.948 . S
H223 C198 0.979 . S
H224 C198 0.980 . S
H225 C198 0.983 . S
H226 C197 0.982 . S
H227 C197 0.979 . S
H228 C197 0.977 . S
H229 C199 0.948 . S
H230 C201 0.947 . S
H231 C202 0.948 . S
H232 C208 0.982 . S
H233 C208 0.979 . S
H234 C208 0.977 . S
H235 C209 0.979 . S
H236 C209 0.980 . S
H237 C209 0.983 . S
H238 C182 0.947 . S
C239 C182 1.392 . S
C239 C183 1.419 . S
C239 H221 0.948 . S
C240 C241 1.391 . S
C240 C244 1.391 . S
C240 H282 0.948 . S
C241 C240 1.391 . S
C241 C242 1.391 . S
C242 C241 1.391 . S
C242 H298 0.947 . S
C242 C299 1.392 . S
C243 C244 1.391 . S
C243 C247 1.397 . S
C243 C299 1.419 . S
C244 C240 1.391 . S
C244 C243 1.391 . S
C244 C245 1.399 . S
C245 C244 1.399 . S
C245 C248 1.396 . S
C245 C257 1.453 . S
C245 C258 1.684 . S
H246 C270 0.948 . S
C247 C243 1.397 . S
C247 C248 1.394 . S
C247 C266 1.723 . S
C248 C245 1.396 . S
C248 C247 1.394 . S
C248 C278 1.723 . S
H249 C272 0.947 . S
H250 C273 0.948 . S
H251 C279 0.982 . S
H252 C280 0.979 . S
H253 C280 0.980 . S
H254 C280 0.983 . S
H255 C279 0.979 . S
H256 C279 0.977 . S
C257 C245 1.453 . S
C257 H286 0.982 . S
C257 H287 0.979 . S
C257 H288 0.977 . S
C258 C245 1.684 . S
C258 H283 0.979 . S
C258 H284 0.980 . S
C258 H285 0.983 . S
C259 C260 1.391 . S
C259 C264 1.391 . S
C259 H289 0.948 . S
C260 C259 1.391 . S
C260 C261 1.391 . S
C261 C260 1.391 . S
C261 C262 1.392 . S
C261 H290 0.947 . S
C262 C261 1.392 . S
C262 C263 1.419 . S
C262 H291 0.948 . S
C263 C262 1.419 . S
C263 C264 1.391 . S
C263 C267 1.397 . S
C264 C259 1.391 . S
C264 C263 1.391 . S
C264 C265 1.399 . S
C265 C264 1.399 . S
C265 C266 1.396 . S
C265 C268 1.453 . S
C265 C269 1.684 . S
C266 C247 1.723 . S
C266 C265 1.396 . S
C266 C267 1.394 . S
C267 C263 1.397 . S
C267 C266 1.394 . S
C267 C277 1.723 . S
C268 C265 1.453 . S
C268 H292 0.982 . S
C268 H293 0.979 . S
C268 H294 0.977 . S
C269 C265 1.684 . S
C269 H295 0.979 . S
C269 H296 0.980 . S
C269 H297 0.983 . S
C270 H246 0.948 . S
C270 C271 1.391 . S
C270 C275 1.391 . S
C271 C270 1.391 . S
C271 C272 1.391 . S
C272 H249 0.947 . S
C272 C271 1.391 . S
C272 C273 1.392 . S
C273 H250 0.948 . S
C273 C272 1.392 . S
C273 C274 1.419 . S
C274 C273 1.419 . S
C274 C275 1.391 . S
C274 C278 1.397 . S
C275 C270 1.391 . S
C275 C274 1.391 . S
C275 C276 1.399 . S
C276 C275 1.399 . S
C276 C277 1.396 . S
C276 C279 1.453 . S
C276 C280 1.684 . S
C277 C267 1.723 . S
C277 C276 1.396 . S
C277 C278 1.394 . S
C278 C248 1.723 . S
C278 C274 1.397 . S
C278 C277 1.394 . S
C279 H251 0.982 . S
C279 H255 0.979 . S
C279 H256 0.977 . S
C279 C276 1.453 . S
C280 H252 0.979 . S
C280 H253 0.980 . S
C280 H254 0.983 . S
C280 C276 1.684 . S
H281 C299 0.948 . S
H282 C240 0.948 . S
H283 C258 0.979 . S
H284 C258 0.980 . S
H285 C258 0.983 . S
H286 C257 0.982 . S
H287 C257 0.979 . S
H288 C257 0.977 . S
H289 C259 0.948 . S
H290 C261 0.947 . S
H291 C262 0.948 . S
H292 C268 0.982 . S
H293 C268 0.979 . S
H294 C268 0.977 . S
H295 C269 0.979 . S
H296 C269 0.980 . S
H297 C269 0.983 . S
H298 C242 0.947 . S
C299 C242 1.392 . S
C299 C243 1.419 . S
C299 H281 0.948 . S
C300 C301 1.391 . S
C300 C304 1.391 . S
C300 H342 0.948 . S
C301 C300 1.391 . S
C301 C302 1.391 . S
C302 C301 1.391 . S
C302 H358 0.947 . S
C302 C359 1.392 . S
C303 C304 1.391 . S
C303 C307 1.397 . S
C303 C359 1.419 . S
C304 C300 1.391 . S
C304 C303 1.391 . S
C304 C305 1.399 . S
C305 C304 1.399 . S
C305 C308 1.396 . S
C305 C317 1.453 . S
C305 C318 1.684 . S
H306 C330 0.948 . S
C307 C303 1.397 . S
C307 C308 1.394 . S
C307 C326 1.723 . S
C308 C305 1.396 . S
C308 C307 1.394 . S
C308 C338 1.723 . S
H309 C332 0.947 . S
H310 C333 0.948 . S
H311 C339 0.982 . S
H312 C340 0.979 . S
H313 C340 0.980 . S
H314 C340 0.983 . S
H315 C339 0.979 . S
H316 C339 0.977 . S
C317 C305 1.453 . S
C317 H346 0.982 . S
C317 H347 0.979 . S
C317 H348 0.977 . S
C318 C305 1.684 . S
C318 H343 0.979 . S
C318 H344 0.980 . S
C318 H345 0.983 . S
C319 C320 1.391 . S
C319 C324 1.391 . S
C319 H349 0.948 . S
C320 C319 1.391 . S
C320 C321 1.391 . S
C321 C320 1.391 . S
C321 C322 1.392 . S
C321 H350 0.947 . S
C322 C321 1.392 . S
C322 C323 1.419 . S
C322 H351 0.948 . S
C323 C322 1.419 . S
C323 C324 1.391 . S
C323 C327 1.397 . S
C324 C319 1.391 . S
C324 C323 1.391 . S
C324 C325 1.399 . S
C325 C324 1.399 . S
C325 C326 1.396 . S
C325 C328 1.453 . S
C325 C329 1.684 . S
C326 C307 1.723 . S
C326 C325 1.396 . S
C326 C327 1.394 . S
C327 C323 1.397 . S
C327 C326 1.394 . S
C327 C337 1.723 . S
C328 C325 1.453 . S
C328 H352 0.982 . S
C328 H353 0.979 . S
C328 H354 0.977 . S
C329 C325 1.684 . S
C329 H355 0.979 . S
C329 H356 0.980 . S
C329 H357 0.983 . S
C330 H306 0.948 . S
C330 C331 1.391 . S
C330 C335 1.391 . S
C331 C330 1.391 . S
C331 C332 1.391 . S
C332 H309 0.947 . S
C332 C331 1.391 . S
C332 C333 1.392 . S
C333 H310 0.948 . S
C333 C332 1.392 . S
C333 C334 1.419 . S
C334 C333 1.419 . S
C334 C335 1.391 . S
C334 C338 1.397 . S
C335 C330 1.391 . S
C335 C334 1.391 . S
C335 C336 1.399 . S
C336 C335 1.399 . S
C336 C337 1.396 . S
C336 C339 1.453 . S
C336 C340 1.684 . S
C337 C327 1.723 . S
C337 C336 1.396 . S
C337 C338 1.394 . S
C338 C308 1.723 . S
C338 C334 1.397 . S
C338 C337 1.394 . S
C339 H311 0.982 . S
C339 H315 0.979 . S
C339 H316 0.977 . S
C339 C336 1.453 . S
C340 H312 0.979 . S
C340 H313 0.980 . S
C340 H314 0.983 . S
C340 C336 1.684 . S
H341 C359 0.948 . S
H342 C300 0.948 . S
H343 C318 0.979 . S
H344 C318 0.980 . S
H345 C318 0.983 . S
H346 C317 0.982 . S
H347 C317 0.979 . S
H348 C317 0.977 . S
H349 C319 0.948 . S
H350 C321 0.947 . S
H351 C322 0.948 . S
H352 C328 0.982 . S
H353 C328 0.979 . S
H354 C328 0.977 . S
H355 C329 0.979 . S
H356 C329 0.980 . S
H357 C329 0.983 . S
H358 C302 0.947 . S
C359 C302 1.392 . S
C359 C303 1.419 . S
C359 H341 0.948 . S
C360 C361 1.391 . S
C360 C364 1.391 . S
C360 H402 0.948 . S
C361 C360 1.391 . S
C361 C362 1.391 . S
C362 C361 1.391 . S
C362 H418 0.947 . S
C362 C419 1.392 . S
C363 C364 1.391 . S
C363 C367 1.397 . S
C363 C419 1.419 . S
C364 C360 1.391 . S
C364 C363 1.391 . S
C364 C365 1.399 . S
C365 C364 1.399 . S
C365 C368 1.396 . S
C365 C377 1.453 . S
C365 C378 1.684 . S
H366 C390 0.948 . S
C367 C363 1.397 . S
C367 C368 1.394 . S
C367 C386 1.723 . S
C368 C365 1.396 . S
C368 C367 1.394 . S
C368 C398 1.723 . S
H369 C392 0.947 . S
H370 C393 0.948 . S
H371 C399 0.982 . S
H372 C400 0.979 . S
H373 C400 0.980 . S
H374 C400 0.983 . S
H375 C399 0.979 . S
H376 C399 0.977 . S
C377 C365 1.453 . S
C377 H406 0.982 . S
C377 H407 0.979 . S
C377 H408 0.977 . S
C378 C365 1.684 . S
C378 H403 0.979 . S
C378 H404 0.980 . S
C378 H405 0.983 . S
C379 C380 1.391 . S
C379 C384 1.391 . S
C379 H409 0.948 . S
C380 C379 1.391 . S
C380 C381 1.391 . S
C381 C380 1.391 . S
C381 C382 1.392 . S
C381 H410 0.947 . S
C382 C381 1.392 . S
C382 C383 1.419 . S
C382 H411 0.948 . S
C383 C382 1.419 . S
C383 C384 1.391 . S
C383 C387 1.397 . S
C384 C379 1.391 . S
C384 C383 1.391 . S
C384 C385 1.399 . S
C385 C384 1.399 . S
C385 C386 1.396 . S
C385 C388 1.453 . S
C385 C389 1.684 . S
C386 C367 1.723 . S
C386 C385 1.396 . S
C386 C387 1.394 . S
C387 C383 1.397 . S
C387 C386 1.394 . S
C387 C397 1.723 . S
C388 C385 1.453 . S
C388 H412 0.982 . S
C388 H413 0.979 . S
C388 H414 0.977 . S
C389 C385 1.684 . S
C389 H415 0.979 . S
C389 H416 0.980 . S
C389 H417 0.983 . S
C390 H366 0.948 . S
C390 C391 1.391 . S
C390 C395 1.391 . S
C391 C390 1.391 . S
C391 C392 1.391 . S
C392 H369 0.947 . S
C392 C391 1.391 . S
C392 C393 1.392 . S
C393 H370 0.948 . S
C393 C392 1.392 . S
C393 C394 1.419 . S
C394 C393 1.419 . S
C394 C395 1.391 . S
C394 C398 1.397 . S
C395 C390 1.391 . S
C395 C394 1.391 . S
C395 C396 1.399 . S
C396 C395 1.399 . S
C396 C397 1.396 . S
C396 C399 1.453 . S
C396 C400 1.684 . S
C397 C387 1.723 . S
C397 C396 1.396 . S
C397 C398 1.394 . S
C398 C368 1.723 . S
C398 C394 1.397 . S
C398 C397 1.394 . S
C399 H371 0.982 . S
C399 H375 0.979 . S
C399 H376 0.977 . S
C399 C396 1.453 . S
C400 H372 0.979 . S
C400 H373 0.980 . S
C400 H374 0.983 . S
C400 C396 1.684 . S
H401 C419 0.948 . S
H402 C360 0.948 . S
H403 C378 0.979 . S
H404 C378 0.980 . S
H405 C378 0.983 . S
H406 C377 0.982 . S
H407 C377 0.979 . S
H408 C377 0.977 . S
H409 C379 0.948 . S
H410 C381 0.947 . S
H411 C382 0.948 . S
H412 C388 0.982 . S
H413 C388 0.979 . S
H414 C388 0.977 . S
H415 C389 0.979 . S
H416 C389 0.980 . S
H417 C389 0.983 . S
H418 C362 0.947 . S
C419 C362 1.392 . S
C419 C363 1.419 . S
C419 H401 0.948 . S
C420 C421 1.391 . S
C420 C424 1.391 . S
C420 H462 0.948 . S
C421 C420 1.391 . S
C421 C422 1.391 . S
C422 C421 1.391 . S
C422 H478 0.947 . S
C422 C479 1.392 . S
C423 C424 1.391 . S
C423 C427 1.397 . S
C423 C479 1.419 . S
C424 C420 1.391 . S
C424 C423 1.391 . S
C424 C425 1.399 . S
C425 C424 1.399 . S
C425 C428 1.396 . S
C425 C437 1.453 . S
C425 C438 1.684 . S
H426 C450 0.948 . S
C427 C423 1.397 . S
C427 C428 1.394 . S
C427 C446 1.723 . S
C428 C425 1.396 . S
C428 C427 1.394 . S
C428 C458 1.723 . S
H429 C452 0.947 . S
H430 C453 0.948 . S
H431 C459 0.982 . S
H432 C460 0.979 . S
H433 C460 0.980 . S
H434 C460 0.983 . S
H435 C459 0.979 . S
H436 C459 0.977 . S
C437 C425 1.453 . S
C437 H466 0.982 . S
C437 H467 0.979 . S
C437 H468 0.977 . S
C438 C425 1.684 . S
C438 H463 0.979 . S
C438 H464 0.980 . S
C438 H465 0.983 . S
C439 C440 1.391 . S
C439 C444 1.391 . S
C439 H469 0.948 . S
C440 C439 1.391 . S
C440 C441 1.391 . S
C441 C440 1.391 . S
C441 C442 1.392 . S
C441 H470 0.947 . S
C442 C441 1.392 . S
C442 C443 1.419 . S
C442 H471 0.948 . S
C443 C442 1.419 . S
C443 C444 1.391 . S
C443 C447 1.397 . S
C444 C439 1.391 . S
C444 C443 1.391 . S
C444 C445 1.399 . S
C445 C444 1.399 . S
C445 C446 1.396 . S
C445 C448 1.453 . S
C445 C449 1.684 . S
C446 C427 1.723 . S
C446 C445 1.396 . S
C446 C447 1.394 . S
C447 C443 1.397 . S
C447 C446 1.394 . S
C447 C457 1.723 . S
C448 C445 1.453 . S
C448 H472 0.982 . S
C448 H473 0.979 . S
C448 H474 0.977 . S
C449 C445 1.684 . S
C449 H475 0.979 . S
C449 H476 0.980 . S
C449 H477 0.983 . S
C450 H426 0.948 . S
C450 C451 1.391 . S
C450 C455 1.391 . S
C451 C450 1.391 . S
C451 C452 1.391 . S
C452 H429 0.947 . S
C452 C451 1.391 . S
C452 C453 1.392 . S
C453 H430 0.948 . S
C453 C452 1.392 . S
C453 C454 1.419 . S
C454 C453 1.419 . S
C454 C455 1.391 . S
C454 C458 1.397 . S
C455 C450 1.391 . S
C455 C454 1.391 . S
C455 C456 1.399 . S
C456 C455 1.399 . S
C456 C457 1.396 . S
C456 C459 1.453 . S
C456 C460 1.684 . S
C457 C447 1.723 . S
C457 C456 1.396 . S
C457 C458 1.394 . S
C458 C428 1.723 . S
C458 C454 1.397 . S
C458 C457 1.394 . S
C459 H431 0.982 . S
C459 H435 0.979 . S
C459 H436 0.977 . S
C459 C456 1.453 . S
C460 H432 0.979 . S
C460 H433 0.980 . S
C460 H434 0.983 . S
C460 C456 1.684 . S
H461 C479 0.948 . S
H462 C420 0.948 . S
H463 C438 0.979 . S
H464 C438 0.980 . S
H465 C438 0.983 . S
H466 C437 0.982 . S
H467 C437 0.979 . S
H468 C437 0.977 . S
H469 C439 0.948 . S
H470 C441 0.947 . S
H471 C442 0.948 . S
H472 C448 0.982 . S
H473 C448 0.979 . S
H474 C448 0.977 . S
H475 C449 0.979 . S
H476 C449 0.980 . S
H477 C449 0.983 . S
H478 C422 0.947 . S
C479 C422 1.392 . S
C479 C423 1.419 . S
C479 H461 0.948 . S
O480 Mg481 1.990 . S
O480 C494 1.253 1_445 S
Mg481 O480 1.990 . S
Mg481 O484 2.180 . S
Mg481 O485 2.117 . S
Mg481 O499 2.030 1_545 S
O482 Mg483 2.072 1_665 S
O482 C494 1.260 . S
Mg483 O482 2.072 1_445 S
Mg483 O484 2.099 . S
Mg483 O486 2.079 . S
Mg483 O487 2.072 1_455 S
Mg483 O489 2.099 1_445 S
Mg483 O500 2.079 1_545 S
O484 Mg481 2.180 . S
O484 Mg483 2.099 . S
O484 C495 1.279 . S
O485 Mg481 2.117 . S
O485 C495 1.250 . S
O486 Mg483 2.079 . S
O486 C496 1.264 . S
O487 Mg483 2.072 1_655 S
O487 C497 1.260 . S
Mg488 O489 2.180 . S
Mg488 O490 2.030 1_565 S
Mg488 O491 1.990 1_565 S
Mg488 O492 2.117 . S
O489 Mg483 2.099 1_665 S
O489 Mg488 2.180 . S
O489 C498 1.279 . S
O490 Mg488 2.030 1_545 S
O490 C496 1.248 1_655 S
O491 Mg488 1.990 1_545 S
O491 C497 1.253 . S
O492 Mg488 2.117 . S
O492 C498 1.250 . S
C493 O499 1.248 . S
C493 O500 1.264 . S
C494 O480 1.253 1_665 S
C494 O482 1.260 . S
C495 O484 1.279 . S
C495 O485 1.250 . S
C496 O486 1.264 . S
C496 O490 1.248 1_455 S
C497 O487 1.260 . S
C497 O491 1.253 . S
C498 O489 1.279 . S
C498 O492 1.250 . S
O499 Mg481 2.030 1_565 S
O499 C493 1.248 . S
O500 Mg483 2.079 1_565 S
O500 C493 1.264 . S
O501 Mg502 1.990 . S
O501 C515 1.253 . S
Mg502 O501 1.990 . S
Mg502 O505 2.170 1_554 S
Mg502 O506 2.117 1_554 S
Mg502 O520 2.030 . S
O503 Mg504 2.072 . S
O503 C515 1.260 . S
Mg504 O503 2.072 . S
Mg504 O505 2.096 1_554 S
Mg504 O507 2.090 1_554 S
Mg504 O508 2.072 1_554 S
Mg504 O510 2.099 1_545 S
Mg504 O521 2.079 . S
O505 Mg502 2.170 1_556 S
O505 Mg504 2.096 1_556 S
O505 C516 1.289 . S
O506 Mg502 2.117 1_556 S
O506 C516 1.250 . S
O507 Mg504 2.090 1_556 S
O507 C517 1.239 1_545 S
O508 Mg504 2.072 1_556 S
O508 C518 1.260 1_545 S
Mg509 O510 2.180 1_556 S
Mg509 O511 2.030 . S
Mg509 O512 1.990 . S
Mg509 O513 2.117 1_556 S
O510 Mg504 2.099 1_565 S
O510 Mg509 2.180 1_554 S
O510 C519 1.279 . S
O511 Mg509 2.030 . S
O511 C517 1.248 . S
O512 Mg509 1.990 . S
O512 C518 1.253 . S
O513 Mg509 2.117 1_554 S
O513 C519 1.250 . S
C514 O520 1.248 . S
C514 O521 1.264 . S
C515 O501 1.253 . S
C515 O503 1.260 . S
C516 O505 1.289 . S
C516 O506 1.250 . S
C517 O507 1.239 1_565 S
C517 O511 1.248 . S
C518 O508 1.260 1_565 S
C518 O512 1.253 . S
C519 O510 1.279 . S
C519 O513 1.250 . S
O520 Mg502 2.030 . S
O520 C514 1.248 . S
O521 Mg504 2.079 . S
O521 C514 1.264 . S
O522 Mg523 1.990 . S
O522 C536 1.253 . S
Mg523 O522 1.990 . S
Mg523 O526 2.180 . S
Mg523 O527 2.117 . S
Mg523 O541 2.030 . S
O524 Mg525 2.072 . S
O524 C536 1.260 . S
Mg525 O524 2.072 . S
Mg525 O526 2.099 . S
Mg525 O528 2.079 . S
Mg525 O529 2.072 . S
Mg525 O531 2.099 . S
Mg525 O542 2.079 . S
O526 Mg523 2.180 . S
O526 Mg525 2.099 . S
O526 C537 1.279 . S
O527 Mg523 2.117 . S
O527 C537 1.250 . S
O528 Mg525 2.079 . S
O528 C538 1.264 . S
O529 Mg525 2.072 . S
O529 C539 1.260 . S
Mg530 O531 2.180 . S
Mg530 O532 2.030 . S
Mg530 O533 1.990 . S
Mg530 O534 2.117 . S
O531 Mg525 2.099 . S
O531 Mg530 2.180 . S
O531 C540 1.279 . S
O532 Mg530 2.030 . S
O532 C538 1.248 . S
O533 Mg530 1.990 . S
O533 C539 1.253 . S
O534 Mg530 2.117 . S
O534 C540 1.250 . S
C535 O541 1.248 . S
C535 O542 1.264 . S
C536 O522 1.253 . S
C536 O524 1.260 . S
C537 O526 1.279 . S
C537 O527 1.250 . S
C538 O528 1.264 . S
C538 O532 1.248 . S
C539 O529 1.260 . S
C539 O533 1.253 . S
C540 O531 1.279 . S
C540 O534 1.250 . S
O541 Mg523 2.030 . S
O541 C535 1.248 . S
O542 Mg525 2.079 . S
O542 C535 1.264 . S
O543 Mg544 1.990 . S
O543 C557 1.253 . S
Mg544 O543 1.990 . S
Mg544 O547 2.180 1_455 S
Mg544 O548 2.117 1_455 S
Mg544 O562 2.030 . S
O545 Mg546 2.072 . S
O545 C557 1.260 . S
Mg546 O545 2.072 . S
Mg546 O547 2.099 1_455 S
Mg546 O549 2.079 1_454 S
Mg546 O550 2.072 1_455 S
Mg546 O552 2.099 1_554 S
Mg546 O563 2.079 . S
O547 Mg544 2.180 1_655 S
O547 Mg546 2.099 1_655 S
O547 C558 1.279 . S
O548 Mg544 2.117 1_655 S
O548 C558 1.250 . S
O549 Mg546 2.079 1_656 S
O549 C559 1.264 . S
O550 Mg546 2.072 1_655 S
O550 C560 1.260 1_554 S
Mg551 O552 2.180 1_655 S
Mg551 O553 2.030 . S
Mg551 O554 1.990 . S
Mg551 O555 2.117 . S
O552 Mg546 2.099 1_556 S
O552 Mg551 2.180 1_455 S
O552 C561 1.279 . S
O553 Mg551 2.030 . S
O553 C559 1.248 . S
O554 Mg551 1.990 . S
O554 C560 1.253 . S
O555 Mg551 2.117 . S
O555 C561 1.250 1_655 S
C556 O562 1.248 . S
C556 O563 1.264 . S
C557 O543 1.253 . S
C557 O545 1.260 . S
C558 O547 1.279 . S
C558 O548 1.250 . S
C559 O549 1.264 . S
C559 O553 1.248 . S
C560 O550 1.260 1_556 S
C560 O554 1.253 . S
C561 O552 1.279 . S
C561 O555 1.250 1_455 S
O562 Mg544 2.030 . S
O562 C556 1.248 . S
O563 Mg546 2.079 . S
O563 C556 1.264 . S
H564 C570 0.930 . S
H565 C574 0.930 1_565 S
H566 C579 0.929 . S
H567 C577 0.929 . S
H568 C572 0.929 . S
H569 C578 0.929 . S
C570 H564 0.930 . S
C570 C571 1.367 . S
C570 C578 1.378 . S
C571 C570 1.367 . S
C571 C579 1.433 . S
C572 H568 0.929 . S
C572 C574 1.378 . S
C572 C576 1.350 . S
C573 C576 1.463 . S
C573 C578 1.350 . S
C573 N581 1.427 . S
C574 H565 0.930 1_545 S
C574 C572 1.378 . S
C574 C575 1.367 . S
C575 C574 1.367 . S
C575 C577 1.433 . S
C576 C572 1.350 . S
C576 C573 1.463 . S
C576 N580 1.427 . S
C577 H567 0.929 . S
C577 C575 1.433 . S
C577 N580 1.384 . S
C578 H569 0.929 . S
C578 C570 1.378 . S
C578 C573 1.350 . S
C579 H566 0.929 . S
C579 C571 1.433 . S
C579 N581 1.384 . S
N580 C576 1.427 . S
N580 C577 1.384 . S
N581 C573 1.427 . S
N581 C579 1.384 . S
H582 C588 0.930 . S
H583 C592 0.930 . S
H584 C597 0.929 . S
H585 C595 0.929 . S
H586 C590 0.929 . S
H587 C596 0.929 . S
C588 H582 0.930 . S
C588 C589 1.367 . S
C588 C596 1.378 . S
C589 C588 1.367 . S
C589 C597 1.433 . S
C590 H586 0.929 . S
C590 C592 1.378 . S
C590 C594 1.350 . S
C591 C594 1.463 . S
C591 C596 1.350 . S
C591 N599 1.427 . S
C592 H583 0.930 . S
C592 C590 1.378 . S
C592 C593 1.367 . S
C593 C592 1.367 . S
C593 C595 1.433 . S
C594 C590 1.350 . S
C594 C591 1.463 . S
C594 N598 1.427 . S
C595 H585 0.929 . S
C595 C593 1.433 . S
C595 N598 1.384 . S
C596 H587 0.929 . S
C596 C588 1.378 . S
C596 C591 1.350 . S
C597 H584 0.929 . S
C597 C589 1.433 . S
C597 N599 1.384 . S
N598 C594 1.427 . S
N598 C595 1.384 . S
N599 C591 1.427 . S
N599 C597 1.384 . S
H600 C606 0.930 . S
H601 C610 0.930 . S
H602 C615 0.929 . S
H603 C613 0.929 . S
H604 C608 0.929 . S
H605 C614 0.929 . S
C606 H600 0.930 . S
C606 C607 1.367 . S
C606 C614 1.378 . S
C607 C606 1.367 . S
C607 C615 1.433 . S
C608 H604 0.929 . S
C608 C610 1.378 . S
C608 C612 1.350 . S
C609 C612 1.463 . S
C609 C614 1.350 . S
C609 N617 1.427 . S
C610 H601 0.930 . S
C610 C608 1.378 . S
C610 C611 1.367 . S
C611 C610 1.367 . S
C611 C613 1.433 . S
C612 C608 1.350 . S
C612 C609 1.463 . S
C612 N616 1.427 . S
C613 H603 0.929 . S
C613 C611 1.433 . S
C613 N616 1.384 . S
C614 H605 0.929 . S
C614 C606 1.378 . S
C614 C609 1.350 . S
C615 H602 0.929 . S
C615 C607 1.433 . S
C615 N617 1.384 . S
N616 C612 1.427 . S
N616 C613 1.384 . S
N617 C609 1.427 . S
N617 C615 1.384 . S
H618 C624 0.930 . S
H619 C628 0.930 . S
H620 C633 0.929 . S
H621 C631 0.929 . S
H622 C626 0.929 . S
H623 C632 0.929 . S
C624 H618 0.930 . S
C624 C625 1.367 . S
C624 C632 1.378 . S
C625 C624 1.367 . S
C625 C633 1.433 . S
C626 H622 0.929 . S
C626 C628 1.378 . S
C626 C630 1.350 . S
C627 C630 1.463 . S
C627 C632 1.350 . S
C627 N635 1.427 . S
C628 H619 0.930 . S
C628 C626 1.378 . S
C628 C629 1.367 . S
C629 C628 1.367 . S
C629 C631 1.433 . S
C630 C626 1.350 . S
C630 C627 1.463 . S
C630 N634 1.427 . S
C631 H621 0.929 . S
C631 C629 1.433 . S
C631 N634 1.384 . S
C632 H623 0.929 . S
C632 C624 1.378 . S
C632 C627 1.350 . S
C633 H620 0.929 . S
C633 C625 1.433 . S
C633 N635 1.384 . S
N634 C630 1.427 . S
N634 C631 1.384 . S
N635 C627 1.427 . S
N635 C633 1.384 . S
H636 C642 0.930 . S
H637 C646 0.930 . S
H638 C651 0.929 . S
H639 C649 0.893 1_565 S
H640 C644 0.929 . S
H641 C650 0.929 . S
C642 H636 0.930 . S
C642 C643 1.367 . S
C642 C650 1.378 . S
C643 C642 1.367 . S
C643 C651 1.433 . S
C644 H640 0.929 . S
C644 C646 1.378 . S
C644 C648 1.350 . S
C645 C648 1.463 . S
C645 C650 1.350 . S
C645 N653 1.427 . S
C646 H637 0.930 . S
C646 C644 1.378 . S
C646 C647 1.367 . S
C647 C646 1.367 . S
C647 C649 1.433 . S
C648 C644 1.350 . S
C648 C645 1.463 . S
C648 N652 1.427 . S
C649 H639 0.893 1_545 S
C649 C647 1.433 . S
C649 N652 1.384 . S
C650 H641 0.929 . S
C650 C642 1.378 . S
C650 C645 1.350 . S
C651 H638 0.929 . S
C651 C643 1.433 . S
C651 N653 1.384 . S
N652 C648 1.427 . S
N652 C649 1.384 . S
N653 C645 1.427 . S
N653 C651 1.384 . S
H654 C660 0.930 . S
H655 C664 0.930 . S
H656 C669 0.929 . S
H657 C667 0.929 . S
H658 C662 0.929 . S
H659 C668 0.929 . S
C660 H654 0.930 . S
C660 C661 1.367 . S
C660 C668 1.378 . S
C661 C660 1.367 . S
C661 C669 1.433 . S
C662 H658 0.929 . S
C662 C664 1.378 . S
C662 C666 1.350 . S
C663 C666 1.463 . S
C663 C668 1.350 . S
C663 N671 1.427 . S
C664 H655 0.930 . S
C664 C662 1.378 . S
C664 C665 1.367 . S
C665 C664 1.367 . S
C665 C667 1.433 . S
C666 C662 1.350 . S
C666 C663 1.463 . S
C666 N670 1.427 . S
C667 H657 0.929 . S
C667 C665 1.433 . S
C667 N670 1.384 . S
C668 H659 0.929 . S
C668 C660 1.378 . S
C668 C663 1.350 . S
C669 H656 0.929 . S
C669 C661 1.433 . S
C669 N671 1.384 . S
N670 C666 1.427 . S
N670 C667 1.384 . S
N671 C663 1.427 . S
N671 C669 1.384 . S
H672 C678 0.930 . S
H673 C682 0.930 . S
H674 C687 0.929 . S
H675 C685 0.929 . S
H676 C680 0.929 . S
H677 C686 0.929 . S
C678 H672 0.930 . S
C678 C679 1.367 . S
C678 C686 1.378 . S
C679 C678 1.367 . S
C679 C687 1.433 . S
C680 H676 0.929 . S
C680 C682 1.378 . S
C680 C684 1.350 . S
C681 C684 1.463 . S
C681 C686 1.350 . S
C681 N689 1.427 . S
C682 H673 0.930 . S
C682 C680 1.378 . S
C682 C683 1.367 . S
C683 C682 1.367 . S
C683 C685 1.433 . S
C684 C680 1.350 . S
C684 C681 1.463 . S
C684 N688 1.427 . S
C685 H675 0.929 . S
C685 C683 1.433 . S
C685 N688 1.384 . S
C686 H677 0.929 . S
C686 C678 1.378 . S
C686 C681 1.350 . S
C687 H674 0.929 . S
C687 C679 1.433 . S
C687 N689 1.384 . S
N688 C684 1.427 . S
N688 C685 1.384 . S
N689 C681 1.427 . S
N689 C687 1.384 . S
H690 C696 0.930 . S
H691 C700 0.930 . S
H692 C705 0.929 . S
H693 C703 0.929 . S
H694 C698 0.929 . S
H695 C704 0.929 . S
C696 H690 0.930 . S
C696 C697 1.367 . S
C696 C704 1.378 . S
C697 C696 1.367 . S
C697 C705 1.433 . S
C698 H694 0.929 . S
C698 C700 1.378 . S
C698 C702 1.350 . S
C699 C702 1.463 . S
C699 C704 1.350 . S
C699 N707 1.427 . S
C700 H691 0.930 . S
C700 C698 1.378 . S
C700 C701 1.367 . S
C701 C700 1.367 . S
C701 C703 1.433 . S
C702 C698 1.350 . S
C702 C699 1.463 . S
C702 N706 1.427 . S
C703 H693 0.929 . S
C703 C701 1.433 . S
C703 N706 1.384 . S
C704 H695 0.929 . S
C704 C696 1.378 . S
C704 C699 1.350 . S
C705 H692 0.929 . S
C705 C697 1.433 . S
C705 N707 1.384 . S
N706 C702 1.427 . S
N706 C703 1.384 . S
N707 C699 1.427 . S
N707 C705 1.384 . S
H708 C714 0.930 . S
H709 C718 0.930 1_556 S
H710 C723 0.929 . S
H711 C721 0.929 . S
H712 C716 0.929 . S
H713 C722 0.929 . S
C714 H708 0.930 . S
C714 C715 1.367 . S
C714 C722 1.378 . S
C715 C714 1.367 . S
C715 C723 1.433 . S
C716 H712 0.929 . S
C716 C718 1.378 . S
C716 C720 1.350 . S
C717 C720 1.463 . S
C717 C722 1.350 . S
C717 N725 1.427 . S
C718 H709 0.930 1_554 S
C718 C716 1.378 . S
C718 C719 1.367 . S
C719 C718 1.367 . S
C719 C721 1.433 . S
C720 C716 1.350 . S
C720 C717 1.463 . S
C720 N724 1.427 . S
C721 H711 0.929 . S
C721 C719 1.433 . S
C721 N724 1.384 . S
C722 H713 0.929 . S
C722 C714 1.378 . S
C722 C717 1.350 . S
C723 H710 0.929 . S
C723 C715 1.433 . S
C723 N725 1.384 . S
N724 C720 1.427 . S
N724 C721 1.384 . S
N725 C717 1.427 . S
N725 C723 1.384 . S
H726 C732 0.930 . S
H727 C736 0.930 . S
H728 C741 0.929 . S
H729 C739 0.929 . S
H730 C734 0.929 . S
H731 C740 0.929 . S
C732 H726 0.930 . S
C732 C733 1.367 . S
C732 C740 1.378 . S
C733 C732 1.367 . S
C733 C741 1.433 . S
C734 H730 0.929 . S
C734 C736 1.378 . S
C734 C738 1.350 . S
C735 C738 1.463 . S
C735 C740 1.350 . S
C735 N743 1.427 . S
C736 H727 0.930 . S
C736 C734 1.378 . S
C736 C737 1.367 . S
C737 C736 1.367 . S
C737 C739 1.433 . S
C738 C734 1.350 . S
C738 C735 1.463 . S
C738 N742 1.427 . S
C739 H729 0.929 . S
C739 C737 1.433 . S
C739 N742 1.384 . S
C740 H731 0.929 . S
C740 C732 1.378 . S
C740 C735 1.350 . S
C741 H728 0.929 . S
C741 C733 1.433 . S
C741 N743 1.384 . S
N742 C738 1.427 . S
N742 C739 1.384 . S
N743 C735 1.427 . S
N743 C741 1.384 . S
H744 C750 0.930 . S
H745 C754 0.930 1_455 S
H746 C759 0.929 . S
H747 C757 0.929 . S
H748 C752 0.929 . S
H749 C758 0.929 . S
C750 H744 0.930 . S
C750 C751 1.367 . S
C750 C758 1.378 . S
C751 C750 1.367 . S
C751 C759 1.433 . S
C752 H748 0.929 . S
C752 C754 1.378 . S
C752 C756 1.350 . S
C753 C756 1.463 . S
C753 C758 1.350 . S
C753 N761 1.427 . S
C754 H745 0.930 1_655 S
C754 C752 1.378 . S
C754 C755 1.367 . S
C755 C754 1.367 . S
C755 C757 1.433 . S
C756 C752 1.350 . S
C756 C753 1.463 . S
C756 N760 1.427 . S
C757 H747 0.929 . S
C757 C755 1.433 . S
C757 N760 1.384 . S
C758 H749 0.929 . S
C758 C750 1.378 . S
C758 C753 1.350 . S
C759 H746 0.929 . S
C759 C751 1.433 . S
C759 N761 1.384 . S
N760 C756 1.427 . S
N760 C757 1.384 . S
N761 C753 1.427 . S
N761 C759 1.384 . S
H762 C768 0.930 . S
H763 C772 0.930 . S
H764 C777 0.929 . S
H765 C775 0.929 . S
H766 C770 0.929 . S
H767 C776 0.929 . S
C768 H762 0.930 . S
C768 C769 1.367 . S
C768 C776 1.378 . S
C769 C768 1.367 . S
C769 C777 1.433 . S
C770 H766 0.929 . S
C770 C772 1.378 . S
C770 C774 1.350 . S
C771 C774 1.463 . S
C771 C776 1.350 . S
C771 N779 1.427 . S
C772 H763 0.930 . S
C772 C770 1.378 . S
C772 C773 1.367 . S
C773 C772 1.367 . S
C773 C775 1.433 . S
C774 C770 1.350 . S
C774 C771 1.463 . S
C774 N778 1.427 . S
C775 H765 0.929 . S
C775 C773 1.433 . S
C775 N778 1.384 . S
C776 H767 0.929 . S
C776 C768 1.378 . S
C776 C771 1.350 . S
C777 H764 0.929 . S
C777 C769 1.433 . S
C777 N779 1.384 . S
N778 C774 1.427 . S
N778 C775 1.384 . S
N779 C771 1.427 . S
N779 C777 1.384 . S
H780 C786 0.930 . S
H781 C790 0.930 1_545 S
H782 C795 0.929 . S
H783 C793 0.929 . S
H784 C788 0.929 1_545 S
H785 C794 0.929 . S
C786 H780 0.930 . S
C786 C787 1.367 . S
C786 C794 1.378 . S
C787 C786 1.367 . S
C787 C795 1.433 . S
C788 H784 0.929 1_565 S
C788 C790 1.378 . S
C788 C792 1.350 . S
C789 C792 1.463 . S
C789 C794 1.350 . S
C789 N797 1.427 . S
C790 H781 0.930 1_565 S
C790 C788 1.378 . S
C790 C791 1.367 . S
C791 C790 1.367 . S
C791 C793 1.433 . S
C792 C788 1.350 . S
C792 C789 1.463 . S
C792 N796 1.427 . S
C793 H783 0.929 . S
C793 C791 1.433 . S
C793 N796 1.384 . S
C794 H785 0.929 . S
C794 C786 1.378 . S
C794 C789 1.350 . S
C795 H782 0.929 . S
C795 C787 1.433 . S
C795 N797 1.384 . S
N796 C792 1.427 . S
N796 C793 1.384 . S
N797 C789 1.427 . S
N797 C795 1.384 . S
H798 C804 0.930 . S
H799 C808 0.930 . S
H800 C813 0.929 . S
H801 C811 0.929 1_565 S
H802 C806 0.929 . S
H803 C812 0.929 . S
C804 H798 0.930 . S
C804 C805 1.367 . S
C804 C812 1.378 . S
C805 C804 1.367 . S
C805 C813 1.433 . S
C806 H802 0.929 . S
C806 C808 1.378 . S
C806 C810 1.350 . S
C807 C810 1.463 . S
C807 C812 1.350 . S
C807 N815 1.427 . S
C808 H799 0.930 . S
C808 C806 1.378 . S
C808 C809 1.367 . S
C809 C808 1.367 . S
C809 C811 1.433 . S
C810 C806 1.350 . S
C810 C807 1.463 . S
C810 N814 1.427 . S
C811 H801 0.929 1_545 S
C811 C809 1.433 . S
C811 N814 1.384 . S
C812 H803 0.929 . S
C812 C804 1.378 . S
C812 C807 1.350 . S
C813 H800 0.929 . S
C813 C805 1.433 . S
C813 N815 1.384 . S
N814 C810 1.427 . S
N814 C811 1.384 . S
N815 C807 1.427 . S
N815 C813 1.384 . S
H816 C822 0.930 . S
H817 C826 0.930 . S
H818 C831 0.929 . S
H819 C829 0.929 . S
H820 C824 0.929 . S
H821 C830 0.929 . S
C822 H816 0.930 . S
C822 C823 1.367 . S
C822 C830 1.378 . S
C823 C822 1.367 . S
C823 C831 1.433 . S
C824 H820 0.929 . S
C824 C826 1.378 . S
C824 C828 1.350 . S
C825 C828 1.463 . S
C825 C830 1.350 . S
C825 N833 1.427 . S
C826 H817 0.930 . S
C826 C824 1.378 . S
C826 C827 1.367 . S
C827 C826 1.367 . S
C827 C829 1.433 . S
C828 C824 1.350 . S
C828 C825 1.463 . S
C828 N832 1.427 . S
C829 H819 0.929 . S
C829 C827 1.433 . S
C829 N832 1.384 . S
C830 H821 0.929 . S
C830 C822 1.378 . S
C830 C825 1.350 . S
C831 H818 0.929 . S
C831 C823 1.433 . S
C831 N833 1.384 . S
N832 C828 1.427 . S
N832 C829 1.384 . S
N833 C825 1.427 . S
N833 C831 1.384 . S
H834 C840 0.930 . S
H835 C844 0.930 1_655 S
H836 C849 0.929 . S
H837 C847 0.929 . S
H838 C842 0.929 . S
H839 C848 0.929 . S
C840 H834 0.930 . S
C840 C841 1.367 . S
C840 C848 1.378 . S
C841 C840 1.367 . S
C841 C849 1.433 . S
C842 H838 0.929 . S
C842 C844 1.378 . S
C842 C846 1.350 . S
C843 C846 1.463 . S
C843 C848 1.350 . S
C843 N851 1.427 . S
C844 H835 0.930 1_455 S
C844 C842 1.378 . S
C844 C845 1.367 . S
C845 C844 1.367 . S
C845 C847 1.433 . S
C846 C842 1.350 . S
C846 C843 1.463 . S
C846 N850 1.427 . S
C847 H837 0.929 . S
C847 C845 1.433 . S
C847 N850 1.384 . S
C848 H839 0.929 . S
C848 C840 1.378 . S
C848 C843 1.350 . S
C849 H836 0.929 . S
C849 C841 1.433 . S
C849 N851 1.384 . S
N850 C846 1.427 . S
N850 C847 1.384 . S
N851 C843 1.427 . S
N851 C849 1.384 . S
H852 C858 0.930 . S
H853 C862 0.930 . S
H854 C867 0.929 . S
H855 C865 0.929 . S
H856 C860 0.929 . S
H857 C866 0.929 . S
C858 H852 0.930 . S
C858 C859 1.367 . S
C858 C866 1.378 . S
C859 C858 1.367 . S
C859 C867 1.433 . S
C860 H856 0.929 . S
C860 C862 1.378 . S
C860 C864 1.350 . S
C861 C864 1.463 . S
C861 C866 1.350 . S
C861 N869 1.427 . S
C862 H853 0.930 . S
C862 C860 1.378 . S
C862 C863 1.367 . S
C863 C862 1.367 . S
C863 C865 1.433 1_565 S
C864 C860 1.350 . S
C864 C861 1.463 . S
C864 N868 1.427 . S
C865 H855 0.929 . S
C865 C863 1.433 1_545 S
C865 N868 1.384 1_545 S
C866 H857 0.929 . S
C866 C858 1.378 . S
C866 C861 1.350 . S
C867 H854 0.929 . S
C867 C859 1.433 . S
C867 N869 1.384 . S
N868 C864 1.427 . S
N868 C865 1.384 1_565 S
N869 C861 1.427 . S
N869 C867 1.384 . S
H870 C876 0.930 . S
H871 C880 0.930 . S
H872 C885 0.929 . S
H873 C883 0.929 . S
H874 C878 0.929 . S
H875 C884 0.929 . S
C876 H870 0.930 . S
C876 C877 1.367 . S
C876 C884 1.378 . S
C877 C876 1.367 . S
C877 C885 1.433 . S
C878 H874 0.929 . S
C878 C880 1.378 . S
C878 C882 1.350 . S
C879 C882 1.463 . S
C879 C884 1.350 . S
C879 N887 1.427 . S
C880 H871 0.930 . S
C880 C878 1.378 . S
C880 C881 1.367 . S
C881 C880 1.367 . S
C881 C883 1.433 . S
C882 C878 1.350 . S
C882 C879 1.463 . S
C882 N886 1.427 . S
C883 H873 0.929 . S
C883 C881 1.433 . S
C883 N886 1.384 . S
C884 H875 0.929 . S
C884 C876 1.378 . S
C884 C879 1.350 . S
C885 H872 0.929 . S
C885 C877 1.433 . S
C885 N887 1.384 . S
N886 C882 1.427 . S
N886 C883 1.384 . S
N887 C879 1.427 . S
N887 C885 1.384 . S
H888 C894 0.930 . S
H889 C898 0.930 . S
H890 C903 0.929 . S
H891 C901 0.929 1_556 S
H892 C896 0.929 . S
H893 C902 0.929 . S
C894 H888 0.930 . S
C894 C895 1.367 . S
C894 C902 1.378 . S
C895 C894 1.367 . S
C895 C903 1.433 . S
C896 H892 0.929 . S
C896 C898 1.378 . S
C896 C900 1.350 . S
C897 C900 1.463 . S
C897 C902 1.350 . S
C897 N905 1.427 . S
C898 H889 0.930 . S
C898 C896 1.378 . S
C898 C899 1.367 . S
C899 C898 1.367 . S
C899 C901 1.433 . S
C900 C896 1.350 . S
C900 C897 1.463 . S
C900 N904 1.427 . S
C901 H891 0.929 1_554 S
C901 C899 1.433 . S
C901 N904 1.384 . S
C902 H893 0.929 . S
C902 C894 1.378 . S
C902 C897 1.350 . S
C903 H890 0.929 . S
C903 C895 1.433 . S
C903 N905 1.384 . S
N904 C900 1.427 . S
N904 C901 1.384 . S
N905 C897 1.427 . S
N905 C903 1.384 . S
H906 C912 0.930 . S
H907 C916 0.930 . S
H908 C921 0.929 . S
H909 C919 0.929 . S
H910 C914 0.929 . S
H911 C920 0.929 . S
C912 H906 0.930 . S
C912 C913 1.367 . S
C912 C920 1.378 . S
C913 C912 1.367 . S
C913 C921 1.433 . S
C914 H910 0.929 . S
C914 C916 1.378 . S
C914 C918 1.350 . S
C915 C918 1.463 . S
C915 C920 1.350 . S
C915 N923 1.427 . S
C916 H907 0.930 . S
C916 C914 1.378 . S
C916 C917 1.367 . S
C917 C916 1.367 . S
C917 C919 1.433 . S
C918 C914 1.350 . S
C918 C915 1.463 . S
C918 N922 1.427 . S
C919 H909 0.929 . S
C919 C917 1.433 . S
C919 N922 1.384 . S
C920 H911 0.929 . S
C920 C912 1.378 . S
C920 C915 1.350 . S
C921 H908 0.929 . S
C921 C913 1.433 . S
C921 N923 1.384 . S
N922 C918 1.427 . S
N922 C919 1.384 . S
N923 C915 1.427 . S
N923 C921 1.384 . S
H924 C930 0.930 . S
H925 C934 0.930 1_554 S
H926 C939 0.929 . S
H927 C937 0.929 . S
H928 C932 0.929 1_554 S
H929 C938 0.929 . S
C930 H924 0.930 . S
C930 C931 1.367 . S
C930 C938 1.378 . S
C931 C930 1.367 . S
C931 C939 1.433 . S
C932 H928 0.929 1_556 S
C932 C934 1.378 . S
C932 C936 1.350 . S
C933 C936 1.463 . S
C933 C938 1.350 . S
C933 N941 1.427 . S
C934 H925 0.930 1_556 S
C934 C932 1.378 . S
C934 C935 1.367 . S
C935 C934 1.367 . S
C935 C937 1.433 . S
C936 C932 1.350 . S
C936 C933 1.463 . S
C936 N940 1.427 . S
C937 H927 0.929 . S
C937 C935 1.433 . S
C937 N940 1.384 . S
C938 H929 0.929 . S
C938 C930 1.378 . S
C938 C933 1.350 . S
C939 H926 0.929 . S
C939 C931 1.433 . S
C939 N941 1.384 . S
N940 C936 1.427 . S
N940 C937 1.384 . S
N941 C933 1.427 . S
N941 C939 1.384 . S
H942 C948 0.930 . S
H943 C952 0.930 . S
H944 C957 0.929 . S
H945 C955 0.929 1_556 S
H946 C950 0.929 . S
H947 C956 0.929 . S
C948 H942 0.930 . S
C948 C949 1.367 . S
C948 C956 1.378 . S
C949 C948 1.367 . S
C949 C957 1.433 . S
C950 H946 0.929 . S
C950 C952 1.378 . S
C950 C954 1.350 . S
C951 C954 1.463 . S
C951 C956 1.350 . S
C951 N959 1.427 . S
C952 H943 0.930 . S
C952 C950 1.378 . S
C952 C953 1.367 . S
C953 C952 1.367 . S
C953 C955 1.433 . S
C954 C950 1.350 . S
C954 C951 1.463 . S
C954 N958 1.427 . S
C955 H945 0.929 1_554 S
C955 C953 1.433 . S
C955 N958 1.384 . S
C956 H947 0.929 . S
C956 C948 1.378 . S
C956 C951 1.350 . S
C957 H944 0.929 . S
C957 C949 1.433 . S
C957 N959 1.384 . S
N958 C954 1.427 . S
N958 C955 1.384 . S
N959 C951 1.427 . S
N959 C957 1.384 . S
H960 C966 0.930 . S
H961 C970 0.930 1_655 S
H962 C975 0.929 . S
H963 C973 0.929 . S
H964 C968 0.929 . S
H965 C974 0.929 . S
C966 H960 0.930 . S
C966 C967 1.367 . S
C966 C974 1.378 . S
C967 C966 1.367 . S
C967 C975 1.433 . S
C968 H964 0.929 . S
C968 C970 1.378 . S
C968 C972 1.350 . S
C969 C972 1.463 . S
C969 C974 1.350 . S
C969 N977 1.427 . S
C970 H961 0.930 1_455 S
C970 C968 1.378 . S
C970 C971 1.367 . S
C971 C970 1.367 . S
C971 C973 1.433 . S
C972 C968 1.350 . S
C972 C969 1.463 . S
C972 N976 1.427 . S
C973 H963 0.929 . S
C973 C971 1.433 . S
C973 N976 1.384 . S
C974 H965 0.929 . S
C974 C966 1.378 . S
C974 C969 1.350 . S
C975 H962 0.929 . S
C975 C967 1.433 . S
C975 N977 1.384 . S
N976 C972 1.427 . S
N976 C973 1.384 . S
N977 C969 1.427 . S
N977 C975 1.384 . S
H978 C984 0.930 . S
H979 C988 0.930 . S
H980 C993 0.929 . S
H981 C991 0.929 . S
H982 C986 0.929 . S
H983 C992 0.929 . S
C984 H978 0.930 . S
C984 C985 1.367 . S
C984 C992 1.378 . S
C985 C984 1.367 . S
C985 C993 1.433 . S
C986 H982 0.929 . S
C986 C988 1.378 . S
C986 C990 1.350 . S
C987 C990 1.463 . S
C987 C992 1.350 . S
C987 N995 1.427 . S
C988 H979 0.930 . S
C988 C986 1.378 . S
C988 C989 1.367 . S
C989 C988 1.367 . S
C989 C991 1.433 . S
C990 C986 1.350 . S
C990 C987 1.463 . S
C990 N994 1.427 . S
C991 H981 0.929 . S
C991 C989 1.433 . S
C991 N994 1.384 . S
C992 H983 0.929 . S
C992 C984 1.378 . S
C992 C987 1.350 . S
C993 H980 0.929 . S
C993 C985 1.433 . S
C993 N995 1.384 . S
N994 C990 1.427 . S
N994 C991 1.384 . S
N995 C987 1.427 . S
N995 C993 1.384 . S
C571 C1 1.589 . S
C575 C496 1.558 . S
C589 C80 1.452 . S
C593 C518 1.449 . S
C611 C537 1.211 . S
C607 C140 1.418 . S
C625 C211 1.762 . S
C629 C558 1.494 . S
C647 C515 1.758 . S
C643 C31 1.792 . S
C665 C493 1.678 . S
C661 C61 1.652 . S
C683 C560 1.308 . S
C679 C151 1.313 . S
C701 C539 1.466 . S
C697 C200 1.466 . S
C715 C20 1.743 . S
C719 C557 1.706 . S
C737 C516 1.302 . S
C733 C121 1.568 . S
C751 C181 1.624 . S
C755 C498 1.538 . S
C769 C91 1.492 . S
C773 C536 1.505 . S
C791 C494 1.554 . S
C787 C260 1.629 . S
C805 C320 1.296 . S
C809 C514 1.283 . S
C823 C361 1.502 . S
C827 C540 1.257 . S
C841 C451 1.680 . S
C845 C561 1.397 . S
C859 C271 1.747 . S
C863 C517 1.711 . S
C881 C497 1.720 . S
C877 C301 1.727 . S
C899 C556 1.199 . S
C895 C380 1.240 . S
C917 C535 1.535 . S
C913 C440 1.550 . S
C931 C241 1.545 . S
C935 C559 1.534 . S
C953 C519 1.276 . S
C949 C391 1.519 . S
C971 C495 1.353 . S
C967 C421 1.452 . S
C985 C331 1.433 . S
C989 C538 1.437 . S
