# Generated by pormake.
# Topology rtl, (3,6)-cn, num edge types: 1
# Building blocks:
#     Node 0, Type 0, BuildingBlock: QEWDON_clean_linker_0, # of connection points: 3
#     Node 1, Type 0, BuildingBlock: QEWDON_clean_linker_0, # of connection points: 3
#     Node 2, Type 0, BuildingBlock: QEWDON_clean_linker_0, # of connection points: 3
#     Node 3, Type 0, BuildingBlock: QEWDON_clean_linker_0, # of connection points: 3
#     Node 4, Type 1, BuildingBlock: KUMBOL_clean_sbu_1, # of connection points: 6
#     Node 5, Type 1, BuildingBlock: KUMBOL_clean_sbu_1, # of connection points: 6
#     Edge 6, Type (0, 1), BuildingBlock: EZIPEK_clean_linker_0, # of connection points: 2
#     Edge 7, Type (0, 1), BuildingBlock: EZIPEK_clean_linker_0, # of connection points: 2
#     Edge 8, Type (0, 1), BuildingBlock: EZIPEK_clean_linker_0, # of connection points: 2
#     Edge 9, Type (0, 1), BuildingBlock: EZIPEK_clean_linker_0, # of connection points: 2
#     Edge 10, Type (0, 1), BuildingBlock: EZIPEK_clean_linker_0, # of connection points: 2
#     Edge 11, Type (0, 1), BuildingBlock: EZIPEK_clean_linker_0, # of connection points: 2
#     Edge 12, Type (0, 1), BuildingBlock: EZIPEK_clean_linker_0, # of connection points: 2
#     Edge 13, Type (0, 1), BuildingBlock: EZIPEK_clean_linker_0, # of connection points: 2
#     Edge 14, Type (0, 1), BuildingBlock: EZIPEK_clean_linker_0, # of connection points: 2
#     Edge 15, Type (0, 1), BuildingBlock: EZIPEK_clean_linker_0, # of connection points: 2
#     Edge 16, Type (0, 1), BuildingBlock: EZIPEK_clean_linker_0, # of connection points: 2
#     Edge 17, Type (0, 1), BuildingBlock: EZIPEK_clean_linker_0, # of connection points: 2
# Relax obj value: 0.087
# Max RMSD: 0.289
# Mean RMSD: 0.218
data_MOF--net-rtl--node1-KUMBOL_clean_sbu_1--node2-QEWDON_clean_linker_0--edge1-EZIPEK_clean_linker_0
_symmetry_space_group_name_H-M    P1
_symmetry_Int_Tables_number       1
_symmetry_cell_setting            triclinic
loop_
_symmetry_equiv_pos_as_xyz
'x, y, z'
_cell_length_a     28.189884
_cell_length_b     28.474205
_cell_length_c     20.321732
_cell_angle_alpha  74.988023
_cell_angle_beta   100.11519
_cell_angle_gamma 91.651658
loop_
_atom_site_label
_atom_site_type_symbol
_atom_site_fract_x
_atom_site_fract_y
_atom_site_fract_z
_atom_type_partial_charge
H0 H 0.2621 0.84102 0.12189 0.0
C1 C 0.24026 0.85213 0.07077 0.0
C2 C 0.19541 0.87554 0.06175 0.0
C3 C 0.25771 0.84521 0.01302 0.0
H4 H 0.13499 0.91215 0.98796 0.0
C5 C 0.16879 0.89265 0.9951 0.0
C6 C 0.18592 0.88624 0.93736 0.0
C7 C 0.22995 0.86154 0.94664 0.0
C8 C 0.30811 0.82933 0.01949 0.0
H9 H 0.24389 0.85765 0.90183 0.0
C10 C 0.3205 0.78061 0.02548 0.0
C11 C 0.36873 0.76774 0.02713 0.0
C12 C 0.34398 0.86466 0.01523 0.0
H13 H 0.33492 0.90234 1.00998 0.0
C14 C 0.3916 0.85187 0.01665 0.0
H15 H 0.29305 0.75307 0.02885 0.0
C16 C 0.40396 0.80372 0.02245 0.0
H17 H 0.44122 0.79432 0.02416 0.0
H18 H 0.41902 0.87937 0.01323 0.0
H19 H 0.76714 0.70074 0.65405 0.0
C20 C 0.7407 0.69005 0.68772 0.0
C21 C 0.70203 0.66121 0.66886 0.0
C22 C 0.74708 0.70218 0.75157 0.0
H23 H 0.63969 0.62174 0.69972 0.0
C24 C 0.66873 0.6451 0.71351 0.0
C25 C 0.67447 0.65646 0.7778 0.0
C26 C 0.71325 0.68549 0.79593 0.0
C27 C 0.79124 0.72816 0.77488 0.0
H28 H 0.71757 0.6939 0.84567 0.0
C29 C 0.81171 0.76601 0.72847 0.0
C30 C 0.85339 0.78976 0.75242 0.0
C31 C 0.81413 0.71399 0.84461 0.0
H32 H 0.80064 0.68424 0.88133 0.0
C33 C 0.85544 0.73721 0.86794 0.0
H34 H 0.79493 0.77775 0.67456 0.0
C35 C 0.87486 0.77488 0.82236 0.0
H36 H 0.90686 0.79259 0.84171 0.0
H37 H 0.87256 0.72584 0.9217 0.0
H38 H 0.79802 0.1683 0.21039 0.0
C39 C 0.81253 0.16976 0.16389 0.0
C40 C 0.85817 0.14922 0.16912 0.0
C41 C 0.78511 0.19088 0.09872 0.0
H42 H 0.91185 0.1345 0.11286 0.0
C43 C 0.87669 0.15052 0.10885 0.0
C44 C 0.84963 0.17193 0.04338 0.0
C45 C 0.80376 0.19182 0.0387 0.0
C46 C 0.7356 0.20904 0.09277 0.0
H47 H 0.78243 0.20772 0.98825 0.0
C48 C 0.72713 0.25232 0.11043 0.0
C49 C 0.6797 0.27019 0.10107 0.0
C50 C 0.69645 0.18343 0.06715 0.0
H51 H 0.7024 0.1501 0.05319 0.0
C52 C 0.64938 0.20059 0.05943 0.0
H53 H 0.75721 0.27272 0.12924 0.0
C54 C 0.64097 0.24386 0.07603 0.0
H55 H 0.60429 0.25724 0.06845 0.0
H56 H 0.61936 0.1806 0.03975 0.0
H57 H 0.34133 0.2907 0.57101 0.0
C58 C 0.35279 0.31091 0.5236 0.0
C59 C 0.3763 0.35535 0.52159 0.0
C60 C 0.34811 0.29067 0.46654 0.0
H61 H 0.41258 0.41413 0.46116 0.0
C62 C 0.39341 0.38044 0.46184 0.0
C63 C 0.38855 0.36126 0.40439 0.0
C64 C 0.36571 0.31646 0.40659 0.0
C65 C 0.33207 0.23969 0.47332 0.0
H66 H 0.36358 0.30079 0.36291 0.0
C67 C 0.28747 0.22373 0.49317 0.0
C68 C 0.27391 0.17481 0.49926 0.0
C69 C 0.36288 0.20611 0.46116 0.0
H70 H 0.39753 0.21727 0.44676 0.0
C71 C 0.34983 0.15768 0.46852 0.0
H72 H 0.26302 0.24928 0.50189 0.0
C73 C 0.30562 0.14212 0.48721 0.0
H74 H 0.29569 0.10456 0.49124 0.0
H75 H 0.37395 0.13217 0.45916 0.0
C76 C 0.9354 0.16161 0.48017 0.0
C77 C 0.85466 0.13814 0.43769 0.0
C78 C 0.8999 0.1265 0.48133 0.0
C79 C 0.84546 0.18519 0.39412 0.0
C80 C 0.92623 0.20884 0.43606 0.0
C81 C 0.88111 0.22042 0.39336 0.0
N82 N 0.97933 0.14928 0.52051 0.0
C83 C 1.01491 0.18284 0.52137 0.0
C84 C 0.96291 0.24304 0.43556 0.0
C85 C 1.00734 0.23002 0.47863 0.0
Gd86 Gd 0.04586 0.96832 0.51179 0.0
Gd87 Gd 0.98807 0.06964 0.59095 0.0
N88 N 0.91031 0.08053 0.52219 0.0
C89 C 0.82019 0.10187 0.43789 0.0
C90 C 0.87709 0.04489 0.52065 0.0
C91 C 0.83151 0.05506 0.4795 0.0
H92 H 0.8857 1.00806 0.54835 0.0
H93 H 0.80554 0.02639 0.47861 0.0
H94 H 0.16037 0.94281 0.59369 0.0
H95 H 0.04896 0.17385 0.55591 0.0
H96 H 0.20998 0.8708 0.66248 0.0
H97 H 0.78513 0.10937 0.40506 0.0
H98 H 0.81101 0.19455 0.36019 0.0
H99 H 0.94929 0.92606 0.42607 0.0
H100 H 0.95723 0.27963 0.40235 0.0
H101 H 0.0357 0.25643 0.47929 0.0
H102 H 0.10677 0.73597 0.64429 0.0
H103 H 0.87356 0.25644 0.35901 0.0
H104 H 0.95357 0.77045 0.49401 0.0
H105 H 0.9124 0.8468 0.42152 0.0
N106 N 1.00953 0.89471 0.50192 0.0
C107 C 0.03393 0.85328 0.53913 0.0
C108 C 0.96733 0.89286 0.45791 0.0
C109 C 0.96978 0.80509 0.49622 0.0
C110 C 0.94643 0.8481 0.45523 0.0
C111 C 1.01448 0.80727 0.53802 0.0
H112 H 0.02607 0.72939 0.57788 0.0
N113 N 0.0975 0.90197 0.57386 0.0
C114 C 0.07922 0.85702 0.57669 0.0
C115 C 0.15361 0.82003 0.64683 0.0
C116 C 0.10653 0.81479 0.61393 0.0
C117 C 0.14471 0.90711 0.60101 0.0
C118 C 0.17306 0.8664 0.63933 0.0
O119 O 0.99319 0.08015 0.47858 0.0
O120 O 0.9761 1.0067 0.45838 0.0
O121 O 0.05059 1.00992 0.40718 0.0
O122 O 0.08868 0.94113 0.45003 0.0
O123 O 0.96573 0.99193 0.62971 0.0
O124 O 0.97683 0.94513 0.55504 0.0
O125 O 0.08458 0.97378 0.61591 0.0
O126 O 0.03509 1.01027 0.66979 0.0
O127 O 0.93896 0.08183 0.65623 0.0
O128 O 1.01013 0.11272 0.66518 0.0
O129 O 0.09358 0.03222 0.52654 0.0
O130 O 0.06423 0.08844 0.57677 0.0
C131 C 0.97109 0.05401 0.43847 0.0
C132 C 0.9587 0.95234 0.60756 0.0
C133 C 0.06073 0.96239 0.33027 0.0
C134 C 0.08165 0.93156 0.23751 0.0
C135 C 0.99802 0.9491 0.23883 0.0
C136 C 1.01187 0.96378 0.2998 0.0
C137 C 0.03267 0.93307 0.20774 0.0
C138 C 0.09549 0.94601 0.2991 0.0
C139 C 0.07616 0.97663 0.39527 0.0
C140 C 0.08654 0.76883 0.61539 0.0
C141 C 0.04062 0.76508 0.57747 0.0
H142 H 0.17575 0.78851 0.67607 0.0
C143 C 0.07152 0.98172 0.67106 0.0
C144 C 0.09684 0.07266 0.54794 0.0
C145 C 0.94882 0.15019 0.70267 0.0
C146 C 0.91497 0.18388 0.78381 0.0
C147 C 0.91978 0.23391 0.66858 0.0
C148 C 0.94041 0.19495 0.653 0.0
C149 C 0.907 0.22847 0.73353 0.0
C150 C 0.93619 0.14488 0.76818 0.0
C151 C 0.96913 0.1079 0.68739 0.0
H152 H 0.96032 0.95023 0.21554 0.0
H153 H 0.98447 0.97609 0.3231 0.0
H154 H 0.02137 0.92204 0.16027 0.0
H155 H 0.13327 0.9447 0.32241 0.0
H156 H 0.91337 0.26836 0.62999 0.0
H157 H 0.94943 0.19983 0.60226 0.0
H158 H 0.89068 0.25893 0.74455 0.0
H159 H 0.94225 0.11029 0.80675 0.0
C160 C 0.66028 0.61077 0.08982 0.0
C161 C 0.63338 0.69495 0.05684 0.0
C162 C 0.62581 0.64534 0.08664 0.0
C163 C 0.67472 0.7087 0.02711 0.0
C164 C 0.70259 0.62449 0.06212 0.0
C165 C 0.70918 0.67353 0.02955 0.0
N166 N 0.6525 0.56353 0.12058 0.0
C167 C 0.68738 0.52884 0.13098 0.0
C168 C 0.7373 0.58857 0.06889 0.0
C169 C 0.72997 0.54066 0.10444 0.0
Gd170 Gd 0.48642 0.47873 0.03294 0.0
Gd171 Gd 0.57864 0.54587 0.15913 0.0
N172 N 0.58574 0.6307 0.11466 0.0
C173 C 0.59938 0.72931 0.05834 0.0
C174 C 0.55417 0.6645 0.12017 0.0
C175 C 0.55995 0.71404 0.091 0.0
H176 H 0.52489 0.65377 0.14831 0.0
H177 H 0.53426 0.74045 0.09448 0.0
H178 H 0.53576 0.36728 0.09868 0.0
H179 H 0.68225 0.49194 0.15933 0.0
H180 H 0.51571 0.28789 0.1717 0.0
H181 H 0.60382 0.76773 0.03593 0.0
H182 H 0.68071 0.74653 1.00302 0.0
H183 H 0.38188 0.54495 0.98052 0.0
H184 H 0.77029 0.59763 0.04826 0.0
H185 H 0.7571 0.51283 0.11148 0.0
H186 H 0.35416 0.31126 0.20404 0.0
H187 H 0.74119 0.68473 1.0072 0.0
H188 H 0.27425 0.46313 0.08283 0.0
H189 H 0.29915 0.53793 1.00451 0.0
N190 N 0.40547 0.47616 0.04914 0.0
C191 C 0.39159 0.43353 0.08887 0.0
C192 C 0.37234 0.51271 0.01691 0.0
C193 C 0.31098 0.46617 0.07329 0.0
C194 C 0.32497 0.50856 0.02934 0.0
C195 C 0.34418 0.42772 0.10296 0.0
H196 H 0.2953 0.37896 0.15788 0.0
N197 N 0.46955 0.40122 0.09852 0.0
C198 C 0.4245 0.39499 0.11423 0.0
C199 C 0.44497 0.31173 0.17734 0.0
C200 C 0.41127 0.35024 0.15519 0.0
C201 C 0.50132 0.36282 0.11556 0.0
C202 C 0.48991 0.31783 0.15647 0.0
O203 O 0.592 0.5474 0.051 0.0
O204 O 0.51805 0.54999 0.98076 0.0
O205 O 0.50756 0.44299 0.95981 0.0
O206 O 0.43468 0.46935 0.9449 0.0
O207 O 0.50328 0.57737 0.12613 0.0
O208 O 0.4635 0.55598 0.02778 0.0
O209 O 0.50358 0.44992 0.14835 0.0
O210 O 0.50978 0.5142 0.19561 0.0
O211 O 0.59207 0.58286 0.24131 0.0
O212 O 0.62183 0.51086 0.25921 0.0
O213 O 0.56581 0.45694 0.05718 0.0
O214 O 0.59538 0.46688 0.16662 0.0
C215 C 0.56337 0.56305 0.99091 0.0
C216 C 0.46919 0.58429 0.071 0.0
C217 C 0.46517 0.46819 0.84536 0.0
C218 C 0.44347 0.45706 0.72928 0.0
C219 C 0.47988 0.53225 0.7465 0.0
C220 C 0.48202 0.51477 0.8179 0.0
C221 C 0.46061 0.50358 0.70221 0.0
C222 C 0.44588 0.43947 0.80094 0.0
C223 C 0.46569 0.4495 0.91976 0.0
C224 C 0.36481 0.34516 0.17189 0.0
C225 C 0.3313 0.38374 0.14563 0.0
H226 H 0.43622 0.27683 0.20908 0.0
C227 C 0.49126 0.47197 0.19173 0.0
C228 C 0.5964 0.44544 0.1165 0.0
C229 C 0.66293 0.56358 0.32376 0.0
C230 C 0.70069 0.59558 0.42059 0.0
C231 C 0.74837 0.58103 0.33895 0.0
C232 C 0.70755 0.56477 0.30183 0.0
C233 C 0.74506 0.59635 0.39805 0.0
C234 C 0.65967 0.5791 0.38324 0.0
C235 C 0.61894 0.54815 0.28445 0.0
H236 H 0.49303 0.56813 0.72546 0.0
H237 H 0.49648 0.53761 0.85146 0.0
H238 H 0.45914 0.51753 0.64696 0.0
H239 H 0.43258 0.40354 0.82192 0.0
H240 H 0.7827 0.58184 0.32179 0.0
H241 H 0.71085 0.55333 0.25611 0.0
H242 H 0.77706 0.6088 0.42626 0.0
H243 H 0.62529 0.57852 0.40042 0.0
C244 C 0.19088 0.15081 0.45547 0.0
C245 C 0.22508 0.15729 0.51208 0.0
C246 C 0.17094 0.11713 0.59171 0.0
C247 C 0.14024 0.10362 0.536 0.0
N248 N 0.1231 0.10657 0.41374 0.0
N249 N 0.25002 0.14461 0.63479 0.0
C250 C 0.15081 0.12029 0.4676 0.0
C251 C 0.2155 0.14042 0.58038 0.0
N252 N 0.19636 0.17479 0.38966 0.0
N253 N 0.15807 0.10759 0.6556 0.0
H254 H 0.28214 0.16291 0.62819 0.0
H255 H 0.24825 0.1275 0.68619 0.0
H256 H 0.12806 0.08757 0.66853 0.0
H257 H 0.17585 0.12192 0.69526 0.0
H258 H 0.17004 0.17623 0.34622 0.0
H259 H 0.22531 0.19747 0.37905 0.0
H260 H 0.13307 0.11145 0.36548 0.0
H261 H 0.0913 0.08773 0.41782 0.0
C262 C 0.38973 0.69925 0.98015 0.0
C263 C 0.38428 0.71639 0.03775 0.0
C264 C 0.42202 0.64118 0.11543 0.0
C265 C 0.43562 0.62748 0.05804 0.0
N266 N 0.4372 0.65062 0.93424 0.0
N267 N 0.39868 0.70611 0.16083 0.0
C268 C 0.42009 0.65794 0.98975 0.0
C269 C 0.40102 0.68784 0.10547 0.0
N270 N 0.36636 0.72303 0.9158 0.0
N271 N 0.42806 0.6097 0.17979 0.0
H272 H 0.38131 0.73896 0.15625 0.0
H273 H 0.41678 0.69032 0.21072 0.0
H274 H 0.44441 0.57573 0.1924 0.0
H275 H 0.41276 0.61561 0.22012 0.0
H276 H 0.36455 0.70941 0.87254 0.0
H277 H 0.34466 0.75387 0.90722 0.0
H278 H 0.43146 0.6753 0.88569 0.0
H279 H 0.46139 0.62321 0.93694 0.0
C280 C 0.85706 0.87867 0.69209 0.0
C281 C 0.8758 0.8308 0.70641 0.0
C282 C 0.94992 0.86337 0.66525 0.0
C283 C 0.93057 0.91154 0.64665 0.0
N284 N 0.87321 0.96423 0.67189 0.0
N285 N 0.93574 0.77671 0.69451 0.0
C286 C 0.88602 0.91929 0.66765 0.0
C287 C 0.9209 0.82301 0.68915 0.0
N288 N 0.81115 0.88547 0.70151 0.0
N289 N 0.99814 0.85648 0.66915 0.0
H290 H 0.91517 0.74635 0.71153 0.0
H291 H 0.96585 0.76893 0.67562 0.0
H292 H 0.02172 0.88533 0.65941 0.0
H293 H 1.01569 0.82289 0.69062 0.0
H294 H 0.79264 0.91871 0.68277 0.0
H295 H 0.78966 0.85702 0.72227 0.0
H296 H 0.84418 0.97043 0.69407 0.0
H297 H 0.89425 0.9948 0.66255 0.0
C298 C 0.67159 0.36108 0.05993 0.0
C299 C 0.66994 0.31797 0.11337 0.0
C300 C 0.63985 0.36527 0.18333 0.0
C301 C 0.63296 0.40604 0.12486 0.0
N302 N 0.66368 0.44893 0.02368 0.0
N303 N 0.6533 0.27802 0.22663 0.0
C304 C 0.65536 0.40575 0.06784 0.0
C305 C 0.65486 0.31989 0.17572 0.0
N306 N 0.6857 0.35883 0.99977 0.0
N307 N 0.63583 0.37061 0.2469 0.0
H308 H 0.66635 0.24468 0.22427 0.0
H309 H 0.63662 0.27577 0.26916 0.0
H310 H 0.63261 0.40452 0.25608 0.0
H311 H 0.64321 0.34284 0.29229 0.0
H312 H 0.68166 0.3877 0.95549 0.0
H313 H 0.69898 0.32707 0.99253 0.0
H314 H 0.68466 0.45232 0.98541 0.0
H315 H 0.6538 0.48205 0.03068 0.0
C316 C 0.14825 0.85125 0.15922 0.0
C317 C 0.17637 0.88616 0.12025 0.0
C318 C 0.14676 0.95008 0.16444 0.0
C319 C 0.11824 0.91529 0.20304 0.0
N320 N 0.10056 0.8314 0.25107 0.0
N321 N 0.21231 0.96508 0.09885 0.0
C322 C 0.12192 0.86531 0.20497 0.0
C323 C 0.179 0.93437 0.12759 0.0
N324 N 0.14491 0.80534 0.14992 0.0
N325 N 0.14105 0.99844 0.15978 0.0
H326 H 0.23626 0.95439 0.07146 0.0
H327 H 0.21931 0.99928 0.10749 0.0
H328 H 0.11798 0.01147 0.18613 0.0
H329 H 0.15653 0.02601 0.12602 0.0
H330 H 0.12048 0.7799 0.1701 0.0
H331 H 0.16503 0.79342 0.11869 0.0
H332 H 0.10556 0.79407 0.25975 0.0
H333 H 0.08112 0.84067 0.28524 0.0
C334 C 0.6442 0.58216 0.85568 0.0
C335 C 0.64299 0.63343 0.82937 0.0
C336 C 0.58543 0.6394 0.90563 0.0
C337 C 0.58574 0.58787 0.92952 0.0
N338 N 0.60077 0.51179 0.90551 0.0
N339 N 0.60561 0.71058 0.81946 0.0
C340 C 0.61068 0.55976 0.89795 0.0
C341 C 0.61149 0.66209 0.85149 0.0
N342 N 0.67894 0.55463 0.84338 0.0
N343 N 0.56034 0.6665 0.9348 0.0
H344 H 0.6237 0.7279 0.77945 0.0
H345 H 0.58023 0.73293 0.82841 0.0
H346 H 0.54005 0.65079 0.97286 0.0
H347 H 0.56153 0.70422 0.92433 0.0
H348 H 0.68394 0.51757 0.86713 0.0
H349 H 0.70595 0.56949 0.81563 0.0
H350 H 0.6138 0.49084 0.87717 0.0
H351 H 0.57567 0.49457 0.93491 0.0
C352 C 0.92119 0.15143 0.27192 0.0
C353 C 0.88628 0.12509 0.23809 0.0
C354 C 0.90192 0.05437 0.33821 0.0
C355 C 0.94197 0.07833 0.3687 0.0
N356 N 0.99605 0.14718 0.35062 0.0
N357 N 0.84916 0.04866 0.23281 0.0
C358 C 0.9533 0.12629 0.33193 0.0
C359 C 0.87862 0.07563 0.2692 0.0
N360 N 0.92386 0.20067 0.24683 0.0
N361 N 0.88358 0.01303 0.37559 0.0
H362 H 0.83018 0.06328 0.18299 0.0
H363 H 0.84692 0.01097 0.24978 0.0
H364 H 0.89584 0.99713 0.42766 0.0
H365 H 0.85164 0.99766 0.35723 0.0
H366 H 0.94482 0.22248 0.27421 0.0
H367 H 0.9018 0.22023 0.20186 0.0
H368 H 1.00729 0.17991 0.32128 0.0
H369 H 0.02323 0.12979 0.38986 0.0
C370 C 0.35896 0.41026 0.59346 0.0
C371 C 0.38875 0.37415 0.58394 0.0
C372 C 0.45342 0.39034 0.67261 0.0
C373 C 0.42358 0.42637 0.68238 0.0
N374 N 0.34532 0.4643 0.66347 0.0
N375 N 0.45976 0.32252 0.62265 0.0
C376 C 0.37539 0.43428 0.64635 0.0
C377 C 0.43448 0.36171 0.62656 0.0
N378 N 0.31579 0.42274 0.55013 0.0
N379 N 0.50054 0.38514 0.70491 0.0
H380 H 0.44734 0.30136 0.58845 0.0
H381 H 0.49102 0.30841 0.65693 0.0
H382 H 0.51554 0.40491 0.73985 0.0
H383 H 0.52581 0.36371 0.69383 0.0
H384 H 0.2949 0.45272 0.54842 0.0
H385 H 0.30182 0.40424 0.51306 0.0
H386 H 0.30853 0.46804 0.64411 0.0
H387 H 0.35646 0.48284 0.70143 0.0
C388 C 0.67726 0.67332 0.54008 0.0
C389 C 0.69934 0.6437 0.60522 0.0
C390 C 0.71534 0.57991 0.55007 0.0
C391 C 0.69777 0.61145 0.48421 0.0
N392 N 0.66655 0.69003 0.41488 0.0
N393 N 0.74521 0.57162 0.67198 0.0
C394 C 0.67972 0.65865 0.47874 0.0
C395 C 0.71986 0.59766 0.61018 0.0
N396 N 0.65327 0.71507 0.5371 0.0
N397 N 0.72662 0.53256 0.55523 0.0
H398 H 0.74913 0.58316 0.71728 0.0
H399 H 0.76564 0.54054 0.67736 0.0
H400 H 0.72395 0.51835 0.5123 0.0
H401 H 0.7346 0.50628 0.60213 0.0
H402 H 0.63202 0.7357 0.49235 0.0
H403 H 0.65163 0.72726 0.58086 0.0
H404 H 0.65824 0.72664 0.40723 0.0
H405 H 0.66714 0.68033 0.36892 0.0
C406 C 0.90703 0.20368 0.9603 0.0
C407 C 0.86863 0.17259 0.97911 0.0
C408 C 0.85978 0.1496 0.86921 0.0
C409 C 0.90027 0.17813 0.85249 0.0
N410 N 0.96851 0.22428 0.88817 0.0
N411 N 0.81531 0.10814 0.95876 0.0
C412 C 0.92574 0.20277 0.89995 0.0
C413 C 0.84706 0.14317 0.93568 0.0
N414 N 0.92437 0.23552 0.99852 0.0
N415 N 0.83222 0.13029 0.82059 0.0
H416 H 0.80545 0.10207 1.00738 0.0
H417 H 0.80225 0.08219 0.93254 0.0
H418 H 0.84009 0.13431 0.77119 0.0
H419 H 0.79929 0.11384 0.82709 0.0
H420 H 0.94855 0.26279 0.98311 0.0
H421 H 0.9116 0.23742 0.04293 0.0
H422 H 0.99128 0.23839 0.92429 0.0
H423 H 0.98346 0.22405 0.84479 0.0
C424 C 0.45985 0.37203 0.34378 0.0
C425 C 0.41244 0.38661 0.34536 0.0
C426 C 0.41672 0.45768 0.2474 0.0
C427 C 0.46471 0.44387 0.24669 0.0
N428 N 0.53056 0.38577 0.28921 0.0
N429 N 0.34581 0.4435 0.30278 0.0
C430 C 0.4857 0.40029 0.29341 0.0
C431 C 0.3909 0.42954 0.29814 0.0
N432 N 0.48128 0.33277 0.39354 0.0
N433 N 0.39488 0.49601 0.1967 0.0
H434 H 0.32482 0.42202 0.33614 0.0
H435 H 0.32941 0.47682 0.27591 0.0
H436 H 0.41151 0.51484 0.15609 0.0
H437 H 0.35926 0.50714 0.19075 0.0
H438 H 0.51758 0.32331 0.40139 0.0
H439 H 0.46337 0.31044 0.43036 0.0
H440 H 0.54537 0.35125 0.31315 0.0
H441 H 0.55269 0.40816 0.25921 0.0
C442 C 0.11052 0.89385 0.84888 0.0
C443 C 0.15836 0.90846 0.8671 0.0
C444 C 0.15149 0.96686 0.75359 0.0
C445 C 0.10125 0.95754 0.73944 0.0
N446 N 0.03157 0.91718 0.7823 0.0
N447 N 0.22093 0.96681 0.84236 0.0
C448 C 0.08029 0.92266 0.78972 0.0
C449 C 0.17805 0.94705 0.82095 0.0
N450 N 0.09423 0.85165 0.88715 0.0
N451 N 0.17433 0.99444 0.70331 0.0
H452 H 0.241 0.95465 0.89196 0.0
H453 H 0.23412 0.99854 0.81318 0.0
H454 H 0.15675 0.01133 0.65385 0.0
H455 H 0.2117 0.99733 0.70922 0.0
H456 H 0.0613 0.83655 0.87204 0.0
H457 H 0.1158 0.82906 0.93005 0.0
H458 H 1.01455 0.8959 0.82104 0.0
H459 H 1.00767 0.93716 0.74046 0.0
loop_
_geom_bond_atom_site_label_1
_geom_bond_atom_site_label_2
_geom_bond_distance
_geom_bond_site_symmetry_2
_ccdc_geom_bond_type
H0 C1 0.949 . S
C1 H0 0.949 . S
C1 C2 1.395 . S
C1 C3 1.391 . S
C2 C1 1.395 . S
C2 C5 1.390 . S
C3 C1 1.391 . S
C3 C7 1.387 1_554 S
C3 C8 1.491 . S
H4 C5 0.950 . S
C5 C2 1.390 . S
C5 H4 0.950 . S
C5 C6 1.378 1_554 S
C6 C5 1.378 1_556 S
C6 C7 1.409 . S
C7 C3 1.387 1_556 S
C7 C6 1.409 . S
C7 H9 0.951 . S
C8 C3 1.491 . S
C8 C10 1.382 . S
C8 C12 1.404 1_554 S
H9 C7 0.951 . S
C10 C8 1.382 . S
C10 C11 1.390 . S
C10 H15 0.949 . S
C11 C10 1.390 . S
C11 C16 1.399 . S
C12 C8 1.404 1_556 S
C12 H13 0.950 . S
C12 C14 1.375 . S
H13 C12 0.950 . S
C14 C12 1.375 . S
C14 C16 1.382 1_556 S
C14 H18 0.950 . S
H15 C10 0.949 . S
C16 C11 1.399 . S
C16 C14 1.382 1_554 S
C16 H17 0.952 . S
H17 C16 0.952 . S
H18 C14 0.950 . S
H19 C20 0.949 . S
C20 H19 0.949 . S
C20 C21 1.395 . S
C20 C22 1.391 . S
C21 C20 1.395 . S
C21 C24 1.390 . S
C22 C20 1.391 . S
C22 C26 1.387 . S
C22 C27 1.491 . S
H23 C24 0.950 . S
C24 C21 1.390 . S
C24 H23 0.950 . S
C24 C25 1.378 . S
C25 C24 1.378 . S
C25 C26 1.409 . S
C26 C22 1.387 . S
C26 C25 1.409 . S
C26 H28 0.951 . S
C27 C22 1.491 . S
C27 C29 1.382 . S
C27 C31 1.404 . S
H28 C26 0.951 . S
C29 C27 1.382 . S
C29 C30 1.390 . S
C29 H34 0.949 . S
C30 C29 1.390 . S
C30 C35 1.399 . S
C31 C27 1.404 . S
C31 H32 0.950 . S
C31 C33 1.375 . S
H32 C31 0.950 . S
C33 C31 1.375 . S
C33 C35 1.382 . S
C33 H37 0.950 . S
H34 C29 0.949 . S
C35 C30 1.399 . S
C35 C33 1.382 . S
C35 H36 0.952 . S
H36 C35 0.952 . S
H37 C33 0.950 . S
H38 C39 0.949 . S
C39 H38 0.949 . S
C39 C40 1.395 . S
C39 C41 1.391 . S
C40 C39 1.395 . S
C40 C43 1.390 . S
C41 C39 1.391 . S
C41 C45 1.387 . S
C41 C46 1.491 . S
H42 C43 0.950 . S
C43 C40 1.390 . S
C43 H42 0.950 . S
C43 C44 1.378 . S
C44 C43 1.378 . S
C44 C45 1.409 . S
C45 C41 1.387 . S
C45 C44 1.409 . S
C45 H47 0.951 1_554 S
C46 C41 1.491 . S
C46 C48 1.382 . S
C46 C50 1.404 1_554 S
H47 C45 0.951 1_556 S
C48 C46 1.382 . S
C48 C49 1.390 . S
C48 H53 0.949 . S
C49 C48 1.390 . S
C49 C54 1.399 . S
C50 C46 1.404 1_556 S
C50 H51 0.950 . S
C50 C52 1.375 . S
H51 C50 0.950 . S
C52 C50 1.375 . S
C52 C54 1.382 1_556 S
C52 H56 0.950 . S
H53 C48 0.949 . S
C54 C49 1.399 . S
C54 C52 1.382 1_554 S
C54 H55 0.952 1_554 S
H55 C54 0.952 1_556 S
H56 C52 0.950 . S
H57 C58 0.949 . S
C58 H57 0.949 . S
C58 C59 1.395 . S
C58 C60 1.391 . S
C59 C58 1.395 . S
C59 C62 1.390 . S
C60 C58 1.391 . S
C60 C64 1.387 . S
C60 C65 1.491 . S
H61 C62 0.950 . S
C62 C59 1.390 . S
C62 H61 0.950 . S
C62 C63 1.378 . S
C63 C62 1.378 . S
C63 C64 1.409 . S
C64 C60 1.387 . S
C64 C63 1.409 . S
C64 H66 0.951 . S
C65 C60 1.491 . S
C65 C67 1.382 . S
C65 C69 1.404 . S
H66 C64 0.951 . S
C67 C65 1.382 . S
C67 C68 1.390 . S
C67 H72 0.949 . S
C68 C67 1.390 . S
C68 C73 1.399 . S
C69 C65 1.404 . S
C69 H70 0.950 . S
C69 C71 1.375 . S
H70 C69 0.950 . S
C71 C69 1.375 . S
C71 C73 1.382 . S
C71 H75 0.950 . S
H72 C67 0.949 . S
C73 C68 1.399 . S
C73 C71 1.382 . S
C73 H74 0.952 . S
H74 C73 0.952 . S
H75 C71 0.950 . S
C76 C78 1.422 . S
C76 C80 1.415 . S
C76 N82 1.369 . S
C77 C78 1.421 . S
C77 C79 1.417 . S
C77 C89 1.422 . S
C78 C76 1.422 . S
C78 C77 1.421 . S
C78 N88 1.359 . S
C79 C77 1.417 . S
C79 C81 1.329 . S
C79 H98 0.930 . S
C80 C76 1.415 . S
C80 C81 1.437 . S
C80 C84 1.413 . S
C81 C79 1.329 . S
C81 C80 1.437 . S
C81 H103 0.929 . S
N82 C76 1.369 . S
N82 C83 1.338 1_655 S
N82 Gd87 2.622 . S
C83 N82 1.338 1_455 S
C83 C85 1.378 . S
C83 H95 0.929 . S
C84 C80 1.413 . S
C84 C85 1.348 1_655 S
C84 H100 0.931 . S
C85 C83 1.378 . S
C85 C84 1.348 1_455 S
C85 H101 0.930 . S
Gd86 N106 2.622 . S
Gd86 N113 2.570 . S
Gd86 O120 2.353 1_465 S
Gd86 O121 2.468 . S
Gd86 O122 2.427 . S
Gd86 O124 2.388 1_455 S
Gd86 O125 2.386 . S
Gd86 O129 2.307 1_565 S
Gd86 C139 2.805 . S
Gd87 N82 2.622 . S
Gd87 N88 2.570 . S
Gd87 O119 2.386 . S
Gd87 O123 2.307 1_545 S
Gd87 O126 2.353 1_655 S
Gd87 O127 2.468 . S
Gd87 O128 2.427 . S
Gd87 O130 2.388 1_655 S
Gd87 C151 2.805 . S
N88 C78 1.359 . S
N88 Gd87 2.570 . S
N88 C90 1.343 . S
C89 C77 1.422 . S
C89 C91 1.321 . S
C89 H97 0.931 . S
C90 N88 1.343 . S
C90 C91 1.390 . S
C90 H92 0.931 . S
C91 C89 1.321 . S
C91 C90 1.390 . S
C91 H93 0.930 . S
H92 C90 0.931 . S
H93 C91 0.930 . S
H94 C117 0.931 . S
H95 C83 0.929 . S
H96 C118 0.930 . S
H97 C89 0.931 . S
H98 C79 0.930 . S
H99 C108 0.929 1_655 S
H100 C84 0.931 . S
H101 C85 0.930 . S
H102 C140 0.930 . S
H103 C81 0.929 . S
H104 C109 0.931 . S
H105 C110 0.930 1_655 S
N106 Gd86 2.622 . S
N106 C107 1.369 . S
N106 C108 1.338 . S
C107 N106 1.369 . S
C107 C111 1.415 . S
C107 C114 1.422 . S
C108 H99 0.929 1_455 S
C108 N106 1.338 . S
C108 C110 1.378 . S
C109 H104 0.931 . S
C109 C110 1.348 . S
C109 C111 1.413 . S
C110 H105 0.930 1_455 S
C110 C108 1.378 . S
C110 C109 1.348 . S
C111 C107 1.415 . S
C111 C109 1.413 . S
C111 C141 1.437 . S
H112 C141 0.929 . S
N113 Gd86 2.570 . S
N113 C114 1.359 . S
N113 C117 1.343 . S
C114 C107 1.422 . S
C114 N113 1.359 . S
C114 C116 1.421 . S
C115 C116 1.422 . S
C115 C118 1.321 . S
C115 H142 0.931 . S
C116 C114 1.421 . S
C116 C115 1.422 . S
C116 C140 1.417 . S
C117 H94 0.931 . S
C117 N113 1.343 . S
C117 C118 1.390 . S
C118 H96 0.930 . S
C118 C115 1.321 . S
C118 C117 1.390 . S
O119 Gd87 2.386 . S
O119 C131 1.265 . S
O120 Gd86 2.353 1_645 S
O120 C131 1.242 . S
O121 Gd86 2.468 . S
O121 C139 1.263 . S
O122 Gd86 2.427 . S
O122 C139 1.252 . S
O123 Gd87 2.307 1_565 S
O123 C132 1.261 . S
O124 Gd86 2.388 1_655 S
O124 C132 1.252 . S
O125 Gd86 2.386 . S
O125 C143 1.265 . S
O126 Gd87 2.353 1_455 S
O126 C143 1.242 1_545 S
O127 Gd87 2.468 . S
O127 C151 1.263 . S
O128 Gd87 2.427 . S
O128 C151 1.252 . S
O129 Gd86 2.307 1_545 S
O129 C144 1.261 . S
O130 Gd87 2.388 1_455 S
O130 C144 1.252 . S
C131 O119 1.265 . S
C131 O120 1.242 . S
C132 O123 1.261 . S
C132 O124 1.252 . S
C133 C136 1.394 . S
C133 C138 1.370 . S
C133 C139 1.500 . S
C134 C137 1.383 . S
C134 C138 1.395 . S
C135 C136 1.396 . S
C135 C137 1.365 . S
C135 H152 0.929 . S
C136 C133 1.394 . S
C136 C135 1.396 . S
C136 H153 0.930 . S
C137 C134 1.383 . S
C137 C135 1.365 . S
C137 H154 0.931 . S
C138 C133 1.370 . S
C138 C134 1.395 . S
C138 H155 0.930 . S
C139 Gd86 2.805 . S
C139 O121 1.263 . S
C139 O122 1.252 . S
C139 C133 1.500 . S
C140 H102 0.930 . S
C140 C116 1.417 . S
C140 C141 1.329 . S
C141 C111 1.437 . S
C141 H112 0.929 . S
C141 C140 1.329 . S
H142 C115 0.931 . S
C143 O125 1.265 . S
C143 O126 1.242 1_565 S
C144 O129 1.261 . S
C144 O130 1.252 . S
C145 C148 1.394 . S
C145 C150 1.370 . S
C145 C151 1.500 . S
C146 C149 1.383 . S
C146 C150 1.395 . S
C147 C148 1.396 . S
C147 C149 1.365 . S
C147 H156 0.929 . S
C148 C145 1.394 . S
C148 C147 1.396 . S
C148 H157 0.930 . S
C149 C146 1.383 . S
C149 C147 1.365 . S
C149 H158 0.931 . S
C150 C145 1.370 . S
C150 C146 1.395 . S
C150 H159 0.930 . S
C151 Gd87 2.805 . S
C151 O127 1.263 . S
C151 O128 1.252 . S
C151 C145 1.500 . S
H152 C135 0.929 . S
H153 C136 0.930 . S
H154 C137 0.931 . S
H155 C138 0.930 . S
H156 C147 0.929 . S
H157 C148 0.930 . S
H158 C149 0.931 . S
H159 C150 0.930 . S
C160 C162 1.422 . S
C160 C164 1.415 . S
C160 N166 1.369 . S
C161 C162 1.421 . S
C161 C163 1.417 . S
C161 C173 1.422 . S
C162 C160 1.422 . S
C162 C161 1.421 . S
C162 N172 1.359 . S
C163 C161 1.417 . S
C163 C165 1.329 . S
C163 H182 0.930 . S
C164 C160 1.415 . S
C164 C165 1.437 . S
C164 C168 1.413 . S
C165 C163 1.329 . S
C165 C164 1.437 . S
C165 H187 0.929 . S
N166 C160 1.369 . S
N166 C167 1.338 . S
N166 Gd171 2.622 . S
C167 N166 1.338 . S
C167 C169 1.378 . S
C167 H179 0.929 . S
C168 C164 1.413 . S
C168 C169 1.348 . S
C168 H184 0.931 . S
C169 C167 1.378 . S
C169 C168 1.348 . S
C169 H185 0.930 . S
Gd170 N190 2.622 . S
Gd170 N197 2.570 . S
Gd170 O204 2.353 1_554 S
Gd170 O205 2.468 1_554 S
Gd170 O206 2.427 1_554 S
Gd170 O208 2.388 . S
Gd170 O209 2.386 . S
Gd170 O213 2.307 . S
Gd170 C223 2.805 1_554 S
Gd171 N166 2.622 . S
Gd171 N172 2.570 . S
Gd171 O203 2.386 . S
Gd171 O207 2.307 . S
Gd171 O210 2.353 . S
Gd171 O211 2.468 . S
Gd171 O212 2.427 . S
Gd171 O214 2.388 . S
Gd171 C235 2.805 . S
N172 C162 1.359 . S
N172 Gd171 2.570 . S
N172 C174 1.343 . S
C173 C161 1.422 . S
C173 C175 1.321 . S
C173 H181 0.931 . S
C174 N172 1.343 . S
C174 C175 1.390 . S
C174 H176 0.931 . S
C175 C173 1.321 . S
C175 C174 1.390 . S
C175 H177 0.930 . S
H176 C174 0.931 . S
H177 C175 0.930 . S
H178 C201 0.931 . S
H179 C167 0.929 . S
H180 C202 0.930 . S
H181 C173 0.931 . S
H182 C163 0.930 . S
H183 C192 0.929 . S
H184 C168 0.931 . S
H185 C169 0.930 . S
H186 C224 0.930 . S
H187 C165 0.929 . S
H188 C193 0.931 . S
H189 C194 0.930 . S
N190 Gd170 2.622 . S
N190 C191 1.369 . S
N190 C192 1.338 1_554 S
C191 N190 1.369 . S
C191 C195 1.415 . S
C191 C198 1.422 . S
C192 H183 0.929 . S
C192 N190 1.338 1_556 S
C192 C194 1.378 . S
C193 H188 0.931 . S
C193 C194 1.348 1_554 S
C193 C195 1.413 . S
C194 H189 0.930 . S
C194 C192 1.378 . S
C194 C193 1.348 1_556 S
C195 C191 1.415 . S
C195 C193 1.413 . S
C195 C225 1.437 . S
H196 C225 0.929 . S
N197 Gd170 2.570 . S
N197 C198 1.359 . S
N197 C201 1.343 . S
C198 C191 1.422 . S
C198 N197 1.359 . S
C198 C200 1.421 . S
C199 C200 1.422 . S
C199 C202 1.321 . S
C199 H226 0.931 . S
C200 C198 1.421 . S
C200 C199 1.422 . S
C200 C224 1.417 . S
C201 H178 0.931 . S
C201 N197 1.343 . S
C201 C202 1.390 . S
C202 H180 0.930 . S
C202 C199 1.321 . S
C202 C201 1.390 . S
O203 Gd171 2.386 . S
O203 C215 1.265 1_554 S
O204 Gd170 2.353 1_556 S
O204 C215 1.242 . S
O205 Gd170 2.468 1_556 S
O205 C223 1.263 . S
O206 Gd170 2.427 1_556 S
O206 C223 1.252 . S
O207 Gd171 2.307 . S
O207 C216 1.261 . S
O208 Gd170 2.388 . S
O208 C216 1.252 . S
O209 Gd170 2.386 . S
O209 C227 1.265 . S
O210 Gd171 2.353 . S
O210 C227 1.242 . S
O211 Gd171 2.468 . S
O211 C235 1.263 . S
O212 Gd171 2.427 . S
O212 C235 1.252 . S
O213 Gd170 2.307 . S
O213 C228 1.261 . S
O214 Gd171 2.388 . S
O214 C228 1.252 . S
C215 O203 1.265 1_556 S
C215 O204 1.242 . S
C216 O207 1.261 . S
C216 O208 1.252 . S
C217 C220 1.394 . S
C217 C222 1.370 . S
C217 C223 1.500 . S
C218 C221 1.383 . S
C218 C222 1.395 . S
C219 C220 1.396 . S
C219 C221 1.365 . S
C219 H236 0.929 . S
C220 C217 1.394 . S
C220 C219 1.396 . S
C220 H237 0.930 . S
C221 C218 1.383 . S
C221 C219 1.365 . S
C221 H238 0.931 . S
C222 C217 1.370 . S
C222 C218 1.395 . S
C222 H239 0.930 . S
C223 Gd170 2.805 1_556 S
C223 O205 1.263 . S
C223 O206 1.252 . S
C223 C217 1.500 . S
C224 H186 0.930 . S
C224 C200 1.417 . S
C224 C225 1.329 . S
C225 C195 1.437 . S
C225 H196 0.929 . S
C225 C224 1.329 . S
H226 C199 0.931 . S
C227 O209 1.265 . S
C227 O210 1.242 . S
C228 O213 1.261 . S
C228 O214 1.252 . S
C229 C232 1.394 . S
C229 C234 1.370 . S
C229 C235 1.500 . S
C230 C233 1.383 . S
C230 C234 1.395 . S
C231 C232 1.396 . S
C231 C233 1.365 . S
C231 H240 0.929 . S
C232 C229 1.394 . S
C232 C231 1.396 . S
C232 H241 0.930 . S
C233 C230 1.383 . S
C233 C231 1.365 . S
C233 H242 0.931 . S
C234 C229 1.370 . S
C234 C230 1.395 . S
C234 H243 0.930 . S
C235 Gd171 2.805 . S
C235 O211 1.263 . S
C235 O212 1.252 . S
C235 C229 1.500 . S
H236 C219 0.929 . S
H237 C220 0.930 . S
H238 C221 0.931 . S
H239 C222 0.930 . S
H240 C231 0.929 . S
H241 C232 0.930 . S
H242 C233 0.931 . S
H243 C234 0.930 . S
C244 C245 1.363 . S
C244 C250 1.379 . S
C244 N252 1.356 . S
C245 C244 1.363 . S
C245 C251 1.363 . S
C246 C247 1.363 . S
C246 C251 1.379 . S
C246 N253 1.356 . S
C247 C246 1.363 . S
C247 C250 1.363 . S
N248 C250 1.356 . S
N248 H260 0.984 . S
N248 H261 0.985 . S
N249 C251 1.356 . S
N249 H254 0.984 . S
N249 H255 0.985 . S
C250 C244 1.379 . S
C250 C247 1.363 . S
C250 N248 1.356 . S
C251 C245 1.363 . S
C251 C246 1.379 . S
C251 N249 1.356 . S
N252 C244 1.356 . S
N252 H258 0.984 . S
N252 H259 0.984 . S
N253 C246 1.356 . S
N253 H256 0.984 . S
N253 H257 0.985 . S
H254 N249 0.984 . S
H255 N249 0.985 . S
H256 N253 0.984 . S
H257 N253 0.985 . S
H258 N252 0.984 . S
H259 N252 0.984 . S
H260 N248 0.984 . S
H261 N248 0.985 . S
C262 C263 1.363 . S
C262 C268 1.379 . S
C262 N270 1.356 1_554 S
C263 C262 1.363 . S
C263 C269 1.363 . S
C264 C265 1.363 . S
C264 C269 1.379 . S
C264 N271 1.356 . S
C265 C264 1.363 . S
C265 C268 1.363 . S
N266 C268 1.356 1_556 S
N266 H278 0.984 . S
N266 H279 0.985 . S
N267 C269 1.356 . S
N267 H272 0.984 . S
N267 H273 0.985 . S
C268 C262 1.379 . S
C268 C265 1.363 . S
C268 N266 1.356 1_554 S
C269 C263 1.363 . S
C269 C264 1.379 . S
C269 N267 1.356 . S
N270 C262 1.356 1_556 S
N270 H276 0.984 . S
N270 H277 0.984 1_556 S
N271 C264 1.356 . S
N271 H274 0.984 . S
N271 H275 0.985 . S
H272 N267 0.984 . S
H273 N267 0.985 . S
H274 N271 0.984 . S
H275 N271 0.985 . S
H276 N270 0.984 . S
H277 N270 0.984 1_554 S
H278 N266 0.984 . S
H279 N266 0.985 . S
C280 C281 1.363 . S
C280 C286 1.379 . S
C280 N288 1.356 . S
C281 C280 1.363 . S
C281 C287 1.363 . S
C282 C283 1.363 . S
C282 C287 1.379 . S
C282 N289 1.356 . S
C283 C282 1.363 . S
C283 C286 1.363 . S
N284 C286 1.356 . S
N284 H296 0.984 1_565 S
N284 H297 0.985 . S
N285 C287 1.356 . S
N285 H290 0.984 . S
N285 H291 0.985 . S
C286 C280 1.379 . S
C286 C283 1.363 . S
C286 N284 1.356 . S
C287 C281 1.363 . S
C287 C282 1.379 . S
C287 N285 1.356 . S
N288 C280 1.356 . S
N288 H294 0.984 . S
N288 H295 0.984 . S
N289 C282 1.356 . S
N289 H292 0.984 . S
N289 H293 0.985 . S
H290 N285 0.984 . S
H291 N285 0.985 . S
H292 N289 0.984 . S
H293 N289 0.985 . S
H294 N288 0.984 . S
H295 N288 0.984 . S
H296 N284 0.984 1_545 S
H297 N284 0.985 . S
C298 C299 1.363 . S
C298 C304 1.379 . S
C298 N306 1.356 . S
C299 C298 1.363 . S
C299 C305 1.363 . S
C300 C301 1.363 . S
C300 C305 1.379 . S
C300 N307 1.356 . S
C301 C300 1.363 . S
C301 C304 1.363 . S
N302 C304 1.356 . S
N302 H314 0.984 . S
N302 H315 0.985 . S
N303 C305 1.356 . S
N303 H308 0.984 . S
N303 H309 0.985 . S
C304 C298 1.379 . S
C304 C301 1.363 . S
C304 N302 1.356 . S
C305 C299 1.363 . S
C305 C300 1.379 . S
C305 N303 1.356 . S
N306 C298 1.356 . S
N306 H312 0.984 . S
N306 H313 0.984 . S
N307 C300 1.356 . S
N307 H310 0.984 . S
N307 H311 0.985 . S
H308 N303 0.984 . S
H309 N303 0.985 . S
H310 N307 0.984 . S
H311 N307 0.985 . S
H312 N306 0.984 . S
H313 N306 0.984 . S
H314 N302 0.984 . S
H315 N302 0.985 . S
C316 C317 1.363 . S
C316 C322 1.379 . S
C316 N324 1.356 . S
C317 C316 1.363 . S
C317 C323 1.363 . S
C318 C319 1.363 . S
C318 C323 1.379 . S
C318 N325 1.356 1_565 S
C319 C318 1.363 . S
C319 C322 1.363 . S
N320 C322 1.356 . S
N320 H332 0.984 . S
N320 H333 0.985 . S
N321 C323 1.356 . S
N321 H326 0.984 . S
N321 H327 0.985 . S
C322 C316 1.379 . S
C322 C319 1.363 . S
C322 N320 1.356 . S
C323 C317 1.363 . S
C323 C318 1.379 . S
C323 N321 1.356 . S
N324 C316 1.356 . S
N324 H330 0.984 . S
N324 H331 0.984 . S
N325 C318 1.356 1_545 S
N325 H328 0.984 . S
N325 H329 0.985 . S
H326 N321 0.984 . S
H327 N321 0.985 . S
H328 N325 0.984 . S
H329 N325 0.985 . S
H330 N324 0.984 . S
H331 N324 0.984 . S
H332 N320 0.984 . S
H333 N320 0.985 . S
C334 C335 1.363 . S
C334 C340 1.379 . S
C334 N342 1.356 . S
C335 C334 1.363 . S
C335 C341 1.363 . S
C336 C337 1.363 . S
C336 C341 1.379 . S
C336 N343 1.356 . S
C337 C336 1.363 . S
C337 C340 1.363 . S
N338 C340 1.356 . S
N338 H350 0.984 . S
N338 H351 0.985 . S
N339 C341 1.356 . S
N339 H344 0.984 . S
N339 H345 0.985 . S
C340 C334 1.379 . S
C340 C337 1.363 . S
C340 N338 1.356 . S
C341 C335 1.363 . S
C341 C336 1.379 . S
C341 N339 1.356 . S
N342 C334 1.356 . S
N342 H348 0.984 . S
N342 H349 0.984 . S
N343 C336 1.356 . S
N343 H346 0.984 1_556 S
N343 H347 0.985 1_556 S
H344 N339 0.984 . S
H345 N339 0.985 . S
H346 N343 0.984 1_554 S
H347 N343 0.985 1_554 S
H348 N342 0.984 . S
H349 N342 0.984 . S
H350 N338 0.984 . S
H351 N338 0.985 . S
C352 C353 1.363 . S
C352 C358 1.379 . S
C352 N360 1.356 . S
C353 C352 1.363 . S
C353 C359 1.363 . S
C354 C355 1.363 . S
C354 C359 1.379 . S
C354 N361 1.356 . S
C355 C354 1.363 . S
C355 C358 1.363 . S
N356 C358 1.356 . S
N356 H368 0.984 . S
N356 H369 0.985 . S
N357 C359 1.356 . S
N357 H362 0.984 . S
N357 H363 0.985 . S
C358 C352 1.379 . S
C358 C355 1.363 . S
C358 N356 1.356 . S
C359 C353 1.363 . S
C359 C354 1.379 . S
C359 N357 1.356 . S
N360 C352 1.356 . S
N360 H366 0.984 . S
N360 H367 0.984 . S
N361 C354 1.356 . S
N361 H364 0.983 . S
N361 H365 0.985 1_545 S
H362 N357 0.984 . S
H363 N357 0.985 . S
H364 N361 0.983 . S
H365 N361 0.985 1_565 S
H366 N360 0.984 . S
H367 N360 0.984 . S
H368 N356 0.984 . S
H369 N356 0.985 . S
C370 C371 1.363 . S
C370 C376 1.379 . S
C370 N378 1.356 . S
C371 C370 1.363 . S
C371 C377 1.363 . S
C372 C373 1.363 . S
C372 C377 1.379 . S
C372 N379 1.356 . S
C373 C372 1.363 . S
C373 C376 1.363 . S
N374 C376 1.356 . S
N374 H386 0.984 . S
N374 H387 0.985 . S
N375 C377 1.356 . S
N375 H380 0.984 . S
N375 H381 0.985 . S
C376 C370 1.379 . S
C376 C373 1.363 . S
C376 N374 1.356 . S
C377 C371 1.363 . S
C377 C372 1.379 . S
C377 N375 1.356 . S
N378 C370 1.356 . S
N378 H384 0.984 . S
N378 H385 0.984 . S
N379 C372 1.356 . S
N379 H382 0.984 . S
N379 H383 0.985 . S
H380 N375 0.984 . S
H381 N375 0.985 . S
H382 N379 0.984 . S
H383 N379 0.985 . S
H384 N378 0.984 . S
H385 N378 0.984 . S
H386 N374 0.984 . S
H387 N374 0.985 . S
C388 C389 1.363 . S
C388 C394 1.379 . S
C388 N396 1.356 . S
C389 C388 1.363 . S
C389 C395 1.363 . S
C390 C391 1.363 . S
C390 C395 1.379 . S
C390 N397 1.356 . S
C391 C390 1.363 . S
C391 C394 1.363 . S
N392 C394 1.356 . S
N392 H404 0.984 . S
N392 H405 0.985 . S
N393 C395 1.356 . S
N393 H398 0.984 . S
N393 H399 0.985 . S
C394 C388 1.379 . S
C394 C391 1.363 . S
C394 N392 1.356 . S
C395 C389 1.363 . S
C395 C390 1.379 . S
C395 N393 1.356 . S
N396 C388 1.356 . S
N396 H402 0.984 . S
N396 H403 0.984 . S
N397 C390 1.356 . S
N397 H400 0.984 . S
N397 H401 0.985 . S
H398 N393 0.984 . S
H399 N393 0.985 . S
H400 N397 0.984 . S
H401 N397 0.985 . S
H402 N396 0.984 . S
H403 N396 0.984 . S
H404 N392 0.984 . S
H405 N392 0.985 . S
C406 C407 1.363 1_554 S
C406 C412 1.379 1_554 S
C406 N414 1.356 . S
C407 C406 1.363 1_556 S
C407 C413 1.363 . S
C408 C409 1.363 . S
C408 C413 1.379 . S
C408 N415 1.356 . S
C409 C408 1.363 . S
C409 C412 1.363 . S
N410 C412 1.356 . S
N410 H422 0.984 1_556 S
N410 H423 0.985 . S
N411 C413 1.356 . S
N411 H416 0.984 . S
N411 H417 0.985 . S
C412 C406 1.379 1_556 S
C412 C409 1.363 . S
C412 N410 1.356 . S
C413 C407 1.363 . S
C413 C408 1.379 . S
C413 N411 1.356 . S
N414 C406 1.356 . S
N414 H420 0.984 . S
N414 H421 0.984 . S
N415 C408 1.356 . S
N415 H418 0.984 . S
N415 H419 0.985 . S
H416 N411 0.984 . S
H417 N411 0.985 . S
H418 N415 0.984 . S
H419 N415 0.985 . S
H420 N414 0.984 . S
H421 N414 0.984 . S
H422 N410 0.984 1_554 S
H423 N410 0.985 . S
C424 C425 1.363 . S
C424 C430 1.379 . S
C424 N432 1.356 . S
C425 C424 1.363 . S
C425 C431 1.363 . S
C426 C427 1.363 . S
C426 C431 1.379 . S
C426 N433 1.356 . S
C427 C426 1.363 . S
C427 C430 1.363 . S
N428 C430 1.356 . S
N428 H440 0.984 . S
N428 H441 0.985 . S
N429 C431 1.356 . S
N429 H434 0.984 . S
N429 H435 0.985 . S
C430 C424 1.379 . S
C430 C427 1.363 . S
C430 N428 1.356 . S
C431 C425 1.363 . S
C431 C426 1.379 . S
C431 N429 1.356 . S
N432 C424 1.356 . S
N432 H438 0.984 . S
N432 H439 0.984 . S
N433 C426 1.356 . S
N433 H436 0.984 . S
N433 H437 0.985 . S
H434 N429 0.984 . S
H435 N429 0.985 . S
H436 N433 0.984 . S
H437 N433 0.985 . S
H438 N432 0.984 . S
H439 N432 0.984 . S
H440 N428 0.984 . S
H441 N428 0.985 . S
C442 C443 1.363 . S
C442 C448 1.379 . S
C442 N450 1.356 . S
C443 C442 1.363 . S
C443 C449 1.363 . S
C444 C445 1.363 . S
C444 C449 1.379 . S
C444 N451 1.356 . S
C445 C444 1.363 . S
C445 C448 1.363 . S
N446 C448 1.356 . S
N446 H458 0.984 . S
N446 H459 0.985 . S
N447 C449 1.356 . S
N447 H452 0.984 . S
N447 H453 0.985 . S
C448 C442 1.379 . S
C448 C445 1.363 . S
C448 N446 1.356 . S
C449 C443 1.363 . S
C449 C444 1.379 . S
C449 N447 1.356 . S
N450 C442 1.356 . S
N450 H456 0.984 . S
N450 H457 0.984 . S
N451 C444 1.356 . S
N451 H454 0.984 . S
N451 H455 0.985 . S
H452 N447 0.984 . S
H453 N447 0.985 . S
H454 N451 0.984 . S
H455 N451 0.985 . S
H456 N450 0.984 . S
H457 N450 0.984 . S
H458 N446 0.984 . S
H459 N446 0.985 . S
C247 C144 1.661 . S
C245 C68 1.634 . S
C263 C11 1.534 . S
C265 C216 1.699 . S
C281 C30 1.598 . S
C283 C132 1.693 . S
C299 C49 1.593 . S
C301 C228 1.640 . S
C319 C134 1.472 . S
C317 C2 1.648 . S
C337 C215 1.761 . S
C335 C25 1.755 . S
C353 C40 1.676 . S
C355 C131 1.706 . S
C371 C59 1.651 . S
C373 C218 1.485 . S
C391 C230 1.436 . S
C389 C21 1.600 . S
C409 C146 1.387 . S
C407 C44 1.590 1_556 S
C427 C227 1.661 . S
C425 C63 1.658 . S
C443 C6 1.634 . S
C445 C143 1.648 . S
