# Generated by pormake.
# Topology zzz, (3,6)-cn, num edge types: 1
# Building blocks:
#     Node 0, Type 0, BuildingBlock: VETTIZ_charged_linker_0, # of connection points: 3
#     Node 1, Type 0, BuildingBlock: VETTIZ_charged_linker_0, # of connection points: 3
#     Node 2, Type 0, BuildingBlock: VETTIZ_charged_linker_0, # of connection points: 3
#     Node 3, Type 0, BuildingBlock: VETTIZ_charged_linker_0, # of connection points: 3
#     Node 4, Type 0, BuildingBlock: VETTIZ_charged_linker_0, # of connection points: 3
#     Node 5, Type 0, BuildingBlock: VETTIZ_charged_linker_0, # of connection points: 3
#     Node 6, Type 0, BuildingBlock: VETTIZ_charged_linker_0, # of connection points: 3
#     Node 7, Type 0, BuildingBlock: VETTIZ_charged_linker_0, # of connection points: 3
#     Node 8, Type 1, BuildingBlock: KUMJIN_clean_sbu_1, # of connection points: 6
#     Node 9, Type 1, BuildingBlock: KUMJIN_clean_sbu_1, # of connection points: 6
#     Node 10, Type 1, BuildingBlock: KUMJIN_clean_sbu_1, # of connection points: 6
#     Node 11, Type 1, BuildingBlock: KUMJIN_clean_sbu_1, # of connection points: 6
#     Edge 12, Type (0, 1), BuildingBlock: TEMPAE_clean_linker_10, # of connection points: 2
#     Edge 13, Type (0, 1), BuildingBlock: TEMPAE_clean_linker_10, # of connection points: 2
#     Edge 14, Type (0, 1), BuildingBlock: TEMPAE_clean_linker_10, # of connection points: 2
#     Edge 15, Type (0, 1), BuildingBlock: TEMPAE_clean_linker_10, # of connection points: 2
#     Edge 16, Type (0, 1), BuildingBlock: TEMPAE_clean_linker_10, # of connection points: 2
#     Edge 17, Type (0, 1), BuildingBlock: TEMPAE_clean_linker_10, # of connection points: 2
#     Edge 18, Type (0, 1), BuildingBlock: TEMPAE_clean_linker_10, # of connection points: 2
#     Edge 19, Type (0, 1), BuildingBlock: TEMPAE_clean_linker_10, # of connection points: 2
#     Edge 20, Type (0, 1), BuildingBlock: TEMPAE_clean_linker_10, # of connection points: 2
#     Edge 21, Type (0, 1), BuildingBlock: TEMPAE_clean_linker_10, # of connection points: 2
#     Edge 22, Type (0, 1), BuildingBlock: TEMPAE_clean_linker_10, # of connection points: 2
#     Edge 23, Type (0, 1), BuildingBlock: TEMPAE_clean_linker_10, # of connection points: 2
#     Edge 24, Type (0, 1), BuildingBlock: TEMPAE_clean_linker_10, # of connection points: 2
#     Edge 25, Type (0, 1), BuildingBlock: TEMPAE_clean_linker_10, # of connection points: 2
#     Edge 26, Type (0, 1), BuildingBlock: TEMPAE_clean_linker_10, # of connection points: 2
#     Edge 27, Type (0, 1), BuildingBlock: TEMPAE_clean_linker_10, # of connection points: 2
#     Edge 28, Type (0, 1), BuildingBlock: TEMPAE_clean_linker_10, # of connection points: 2
#     Edge 29, Type (0, 1), BuildingBlock: TEMPAE_clean_linker_10, # of connection points: 2
#     Edge 30, Type (0, 1), BuildingBlock: TEMPAE_clean_linker_10, # of connection points: 2
#     Edge 31, Type (0, 1), BuildingBlock: TEMPAE_clean_linker_10, # of connection points: 2
#     Edge 32, Type (0, 1), BuildingBlock: TEMPAE_clean_linker_10, # of connection points: 2
#     Edge 33, Type (0, 1), BuildingBlock: TEMPAE_clean_linker_10, # of connection points: 2
#     Edge 34, Type (0, 1), BuildingBlock: TEMPAE_clean_linker_10, # of connection points: 2
#     Edge 35, Type (0, 1), BuildingBlock: TEMPAE_clean_linker_10, # of connection points: 2
# Relax obj value: 0.318
# Max RMSD: 0.211
# Mean RMSD: 0.184
data_MOF--net-zzz--node1-KUMJIN_clean_sbu_1--node2-VETTIZ_charged_linker_0--edge1-TEMPAE_clean_linker_10
_symmetry_space_group_name_H-M    P1
_symmetry_Int_Tables_number       1
_symmetry_cell_setting            triclinic
loop_
_symmetry_equiv_pos_as_xyz
'x, y, z'
_cell_length_a     56.628232
_cell_length_b     56.574708
_cell_length_c     21.195888
_cell_angle_alpha  90.036487
_cell_angle_beta   89.920334
_cell_angle_gamma 90.335514
loop_
_atom_site_label
_atom_site_type_symbol
_atom_site_fract_x
_atom_site_fract_y
_atom_site_fract_z
_atom_type_partial_charge
C0 C 0.81062 0.53537 0.30548 0.0
C1 C 0.8349 0.52855 0.30031 0.0
C2 C 0.84283 0.52086 0.24037 0.0
C3 C 0.80754 0.53536 0.19159 0.0
C4 C 0.79682 0.53753 0.24945 0.0
C5 C 0.77078 0.54382 0.2398 0.0
H6 H 0.69008 0.57824 1.0117 0.0
C7 C 0.7921 0.54478 0.14267 0.0
C8 C 0.76914 0.54608 0.16729 0.0
H9 H 0.68059 0.51327 0.11494 0.0
H10 H 0.71915 0.51974 0.16757 0.0
H11 H 0.72334 0.61106 0.11477 0.0
H12 H 0.73817 0.56054 0.96668 0.0
H13 H 0.75455 0.58666 0.95438 0.0
H14 H 0.72339 0.58811 0.95275 0.0
H15 H 0.72086 0.61876 0.0329 0.0
H16 H 0.74878 0.62048 0.07396 0.0
C17 C 0.76519 0.56747 0.27236 0.0
C18 C 0.75483 0.52398 0.2653 0.0
C19 C 0.83337 0.59272 0.97298 0.0
C20 C 0.82528 0.60988 0.93014 0.0
C21 C 0.80307 0.62028 0.94057 0.0
C22 C 0.78825 0.61183 0.9888 0.0
C23 C 0.79536 0.59215 0.0244 0.0
C24 C 0.81817 0.58405 0.01935 0.0
C25 C 0.82299 0.56336 0.06186 0.0
C26 C 0.79899 0.56039 0.09344 0.0
C27 C 0.78274 0.57662 0.0691 0.0
C28 C 0.8431 0.57024 0.10801 0.0
C29 C 0.82905 0.54169 0.02046 0.0
C30 C 0.69567 0.56581 0.04745 0.0
C31 C 0.68213 0.54542 0.05921 0.0
C32 C 0.69034 0.52943 0.10572 0.0
C33 C 0.71232 0.53324 0.13674 0.0
C34 C 0.726 0.55331 0.12165 0.0
C35 C 0.71785 0.56873 0.07582 0.0
C36 C 0.7373 0.58409 0.0496 0.0
C37 C 0.75851 0.57428 0.08442 0.0
C38 C 0.75158 0.55819 0.13144 0.0
C39 C 0.73237 0.61003 0.06819 0.0
C40 C 0.73856 0.57981 0.97719 0.0
H41 H 0.83652 0.51913 0.1415 0.0
H42 H 0.80298 0.53978 0.35075 0.0
H43 H 0.75739 0.50742 0.23792 0.0
H44 H 0.73599 0.52915 0.26273 0.0
H45 H 0.75897 0.52034 0.31559 0.0
H46 H 0.77706 0.58172 0.25457 0.0
H47 H 0.76754 0.56602 0.32426 0.0
H48 H 0.74664 0.57271 0.26294 0.0
H49 H 0.85028 0.58421 0.96651 0.0
H50 H 0.79656 0.63372 0.90878 0.0
H51 H 0.77111 0.6196 0.99334 0.0
H52 H 0.83602 0.57921 0.15066 0.0
H53 H 0.85606 0.58247 0.08568 0.0
H54 H 0.85366 0.55482 0.12253 0.0
H55 H 0.81726 0.54071 0.97858 0.0
H56 H 0.82654 0.52484 0.04588 0.0
H57 H 0.84759 0.54268 1.00341 0.0
H58 H 0.86 0.51283 0.23449 0.0
C59 C 0.82941 0.52448 0.18623 0.0
C60 C 0.91605 0.7961 0.94703 0.0
C61 C 0.91734 0.82048 0.93521 0.0
C62 C 0.91462 0.83628 0.98592 0.0
C63 C 0.92001 0.80391 0.05869 0.0
C64 C 0.91813 0.78806 1.00935 0.0
C65 C 0.92411 0.76327 0.02919 0.0
H66 H 1.00413 0.70183 0.1107 0.0
C67 C 0.93046 0.79149 0.11301 0.0
C68 C 0.93134 0.7674 0.09822 0.0
H69 H 0.93539 0.67738 0.04697 0.0
H70 H 0.91712 0.71195 0.09696 0.0
H71 H 0.9998 0.76219 0.09525 0.0
H72 H 0.97402 0.7314 0.27049 0.0
H73 H 1.00209 0.74685 0.26616 0.0
H74 H 0.99967 0.71766 0.23653 0.0
H75 H 0.01955 0.74357 0.1395 0.0
H76 H 0.01062 0.77173 0.17104 0.0
C77 C 0.94498 0.75428 0.98828 0.0
C78 C 0.90187 0.74756 0.02153 0.0
C79 C 0.96995 0.84209 0.27889 0.0
C80 C 0.9821 0.83736 0.33526 0.0
C81 C 0.9893 0.81362 0.34567 0.0
C82 C 0.98391 0.79533 0.30152 0.0
C83 C 0.97165 0.80075 0.24568 0.0
C84 C 0.96421 0.82379 0.23697 0.0
C85 C 0.94714 0.82613 0.18349 0.0
C86 C 0.94466 0.80058 0.16271 0.0
C87 C 0.96009 0.78566 0.19633 0.0
C88 C 0.9586 0.84227 0.1322 0.0
C89 C 0.92342 0.83549 0.21014 0.0
C90 C 0.98521 0.70392 0.10693 0.0
C91 C 0.97135 0.68766 0.07042 0.0
C92 C 0.94656 0.69021 0.07068 0.0
C93 C 0.93606 0.71012 0.09724 0.0
C94 C 0.95053 0.72779 0.12182 0.0
C95 C 0.97384 0.72384 0.13482 0.0
C96 C 0.98329 0.74427 0.17581 0.0
C97 C 0.96184 0.76124 0.17782 0.0
C98 C 0.9446 0.75201 0.13695 0.0
C99 C 1.00459 0.75612 0.14344 0.0
C100 C 0.99 0.73462 0.24117 0.0
H101 H 0.91534 0.84089 0.085 0.0
H102 H 0.91738 0.78381 0.90805 0.0
H103 H 0.89059 0.75373 0.98198 0.0
H104 H 0.89092 0.74765 0.06509 0.0
H105 H 0.90648 0.72913 1.00918 0.0
H106 H 0.96061 0.76612 0.9934 0.0
H107 H 0.94013 0.75341 0.93765 0.0
H108 H 0.9504 0.73619 1.00077 0.0
H109 H 0.96412 0.8598 0.26786 0.0
H110 H 0.99814 0.80896 0.38912 0.0
H111 H 0.98801 0.77737 0.31351 0.0
H112 H 0.97693 0.84778 0.14442 0.0
H113 H 0.94853 0.85886 0.12551 0.0
H114 H 0.96019 0.83314 0.08606 0.0
H115 H 0.91949 0.82748 0.25697 0.0
H116 H 0.90812 0.83075 0.18021 0.0
H117 H 0.92398 0.85499 0.21629 0.0
H118 H 0.915 0.8552 0.97791 0.0
C119 C 0.91573 0.828 0.04803 0.0
C120 C 0.83218 0.99777 0.10144 0.0
C121 C 0.8501 0.98506 0.06846 0.0
C122 C 0.8494 0.96016 0.06929 0.0
C123 C 0.81062 0.96126 0.11497 0.0
C124 C 0.81272 0.98496 0.12711 0.0
C125 C 0.79212 0.99266 0.16935 0.0
H126 H 0.67827 0.96229 0.2639 0.0
C127 C 0.78684 0.95338 0.13008 0.0
C128 C 0.77575 0.97073 0.16703 0.0
H129 H 0.7196 0.01925 0.34351 0.0
H130 H 0.75222 1.00965 0.27166 0.0
H131 H 0.68755 0.97255 0.13538 0.0
H132 H 0.71738 0.92227 0.25783 0.0
H133 H 0.71274 0.90837 0.18403 0.0
H134 H 0.68835 0.92231 0.2236 0.0
H135 H 0.67998 0.94228 0.1257 0.0
H136 H 0.70354 0.95576 0.08032 0.0
C137 C 0.78014 0.01474 0.14224 0.0
C138 C 0.80208 0.99688 0.23603 0.0
C139 C 0.74777 0.91086 0.95158 0.0
C140 C 0.72354 0.91121 0.93766 0.0
C141 C 0.70741 0.90889 0.98809 0.0
C142 C 0.71505 0.91231 0.05025 0.0
C143 C 0.7386 0.91902 0.06093 0.0
C144 C 0.755 0.9164 0.01313 0.0
C145 C 0.77889 0.92596 0.03131 0.0
C146 C 0.77329 0.93654 0.09633 0.0
C147 C 0.74944 0.93334 0.11161 0.0
C148 C 0.78648 0.94518 0.98293 0.0
C149 C 0.79652 0.90518 0.03351 0.0
C150 C 0.69449 0.97241 0.26788 0.0
C151 C 0.69632 0.99104 0.31144 0.0
C152 C 0.71757 1.00451 0.31134 0.0
C153 C 0.73668 0.99873 0.2705 0.0
C154 C 0.73468 0.97923 0.22935 0.0
C155 C 0.71353 0.96681 0.22835 0.0
C156 C 0.71323 0.9476 0.17981 0.0
C157 C 0.73863 0.94834 0.15702 0.0
C158 C 0.75137 0.9673 0.1845 0.0
C159 C 0.69521 0.95471 0.12764 0.0
C160 C 0.70749 0.92381 0.21271 0.0
H161 H 0.82968 0.92918 0.09527 0.0
H162 H 0.83308 0.01682 0.10546 0.0
H163 H 0.81231 0.98128 0.2521 0.0
H164 H 0.78813 0.9998 0.27132 0.0
H165 H 0.81408 0.01249 0.23629 0.0
H166 H 0.77414 0.01137 0.09311 0.0
H167 H 0.79259 0.02999 0.14171 0.0
H168 H 0.76455 0.01974 0.17074 0.0
H169 H 0.76046 0.91106 0.91337 0.0
H170 H 0.68859 0.90791 0.97947 0.0
H171 H 0.70198 0.91189 0.08681 0.0
H172 H 0.77305 0.95942 0.9804 0.0
H173 H 0.78881 0.93757 0.9351 0.0
H174 H 0.80361 0.95345 0.99444 0.0
H175 H 0.79091 0.89034 1.00236 0.0
H176 H 0.79822 0.89801 0.08209 0.0
H177 H 0.81419 0.91047 0.01573 0.0
H178 H 0.86348 0.95002 0.0479 0.0
C179 C 0.82984 0.94817 0.09381 0.0
C180 C 0.52687 0.72233 0.30752 0.0
C181 C 0.5358 0.69982 0.32588 0.0
C182 C 0.55473 0.69032 0.29173 0.0
C183 C 0.55491 0.72372 0.22018 0.0
C184 C 0.537 0.73419 0.25433 0.0
C185 C 0.53082 0.75823 0.22549 0.0
H186 H 0.5601 0.84093 0.99434 0.0
C187 C 0.5617 0.73926 0.16712 0.0
C188 C 0.54845 0.76028 0.17026 0.0
H189 H 0.50206 0.84732 0.1245 0.0
H190 H 0.51266 0.80923 0.17289 0.0
H191 H 0.59924 0.81692 0.08742 0.0
H192 H 0.54802 0.79646 0.95222 0.0
H193 H 0.56513 0.77087 0.95528 0.0
H194 H 0.57832 0.79845 0.93009 0.0
H195 H 0.60095 0.82096 1.0035 0.0
H196 H 0.61224 0.79468 0.04079 0.0
C197 C 0.53481 0.77775 0.27496 0.0
C198 C 0.50513 0.75724 0.20188 0.0
C199 C 0.60562 0.70439 0.98265 0.0
C200 C 0.61131 0.71395 0.923 0.0
C201 C 0.6141 0.73867 0.918 0.0
C202 C 0.60718 0.7535 0.96761 0.0
C203 C 0.59728 0.74349 0.02239 0.0
C204 C 0.5985 0.71945 0.03137 0.0
C205 C 0.58854 0.71208 0.09426 0.0
C206 C 0.57767 0.73525 0.11659 0.0
C207 C 0.5827 0.7534 0.07388 0.0
C208 C 0.60953 0.70424 0.13641 0.0
C209 C 0.56958 0.69259 0.08337 0.0
C210 C 0.54985 0.83447 0.03405 0.0
C211 C 0.53059 0.84738 0.05612 0.0
C212 C 0.51717 0.83777 0.10663 0.0
C213 C 0.5233 0.8157 0.13454 0.0
C214 C 0.54262 0.80277 0.11055 0.0
C215 C 0.55512 0.81242 0.06032 0.0
C216 C 0.57307 0.79599 0.03391 0.0
C217 C 0.57035 0.77505 0.07766 0.0
C218 C 0.55276 0.77869 0.12412 0.0
C219 C 0.59774 0.80769 0.0412 0.0
C220 C 0.56601 0.79013 0.96444 0.0
H221 H 0.57844 0.69347 0.21607 0.0
H222 H 0.51242 0.73025 0.33328 0.0
H223 H 0.50234 0.74147 0.17137 0.0
H224 H 0.50055 0.77287 0.17342 0.0
H225 H 0.49262 0.75608 0.24222 0.0
H226 H 0.55305 0.7768 0.29413 0.0
H227 H 0.52221 0.77574 0.31485 0.0
H228 H 0.53256 0.79556 0.25462 0.0
H229 H 0.60395 0.68553 0.98953 0.0
H230 H 0.61968 0.74664 0.87396 0.0
H231 H 0.60838 0.77217 0.95979 0.0
H232 H 0.62702 0.70864 0.11528 0.0
H233 H 0.60933 0.68483 0.14433 0.0
H234 H 0.60945 0.71338 0.1828 0.0
H235 H 0.55757 0.69766 0.0442 0.0
H236 H 0.55819 0.68942 0.1247 0.0
H237 H 0.5779 0.67548 0.07089 0.0
H238 H 0.56202 0.67334 0.30489 0.0
C239 C 0.56432 0.70209 0.23991 0.0
C240 C 0.33113 0.50636 0.22005 0.0
C241 C 0.33911 0.50734 0.28382 0.0
C242 C 0.32229 0.50615 0.33255 0.0
C243 C 0.29155 0.4975 0.25745 0.0
C244 C 0.30671 0.502 0.20794 0.0
C245 C 0.29337 0.49997 0.14518 0.0
H246 H 0.18736 0.46317 1.01207 0.0
C247 C 0.26924 0.48817 0.23278 0.0
C248 C 0.26862 0.49172 0.16711 0.0
H249 H 0.22528 0.52548 0.94994 0.0
H250 H 0.25297 0.52051 0.03768 0.0
H251 H 0.23086 0.42963 0.05095 0.0
H252 H 0.18818 0.4537 0.1935 0.0
H253 H 0.17659 0.45192 0.1156 0.0
H254 H 0.18688 0.47952 0.14776 0.0
H255 H 0.20265 0.42118 0.0823 0.0
H256 H 0.22924 0.41943 0.1292 0.0
C257 C 0.30496 0.48117 0.10297 0.0
C258 C 0.29323 0.52425 0.11245 0.0
C259 C 0.22041 0.43631 0.3781 0.0
C260 C 0.20033 0.4223 0.3661 0.0
C261 C 0.19668 0.41368 0.30444 0.0
C262 C 0.20989 0.42281 0.25399 0.0
C263 C 0.22653 0.44079 0.26591 0.0
C264 C 0.233 0.44575 0.32719 0.0
C265 C 0.25126 0.46508 0.33111 0.0
C266 C 0.25404 0.47135 0.26156 0.0
C267 C 0.23868 0.45789 0.22434 0.0
C268 C 0.27402 0.45472 0.36118 0.0
C269 C 0.24062 0.48608 0.36852 0.0
C270 C 0.20234 0.47508 0.01338 0.0
C271 C 0.20398 0.49429 0.97137 0.0
C272 C 0.22329 0.51019 0.98013 0.0
C273 C 0.23992 0.507 0.02967 0.0
C274 C 0.23792 0.48737 0.07006 0.0
C275 C 0.21882 0.47224 0.06208 0.0
C276 C 0.2155 0.45581 0.11696 0.0
C277 C 0.23502 0.46419 0.16048 0.0
C278 C 0.24924 0.48173 0.132 0.0
C279 C 0.21959 0.43013 0.09398 0.0
C280 C 0.19054 0.46024 0.14514 0.0
H281 H 0.28667 0.50076 0.35866 0.0
H282 H 0.34354 0.50805 0.18144 0.0
H283 H 0.27981 0.53605 0.13392 0.0
H284 H 0.28986 0.52243 0.06125 0.0
H285 H 0.31077 0.53304 0.11652 0.0
H286 H 0.30592 0.46393 0.12798 0.0
H287 H 0.32315 0.48666 0.08949 0.0
H288 H 0.29452 0.47858 0.05911 0.0
H289 H 0.22392 0.44302 0.42508 0.0
H290 H 0.18157 0.40247 0.29428 0.0
H291 H 0.20498 0.41739 0.20731 0.0
H292 H 0.28844 0.45291 0.32596 0.0
H293 H 0.2711 0.43677 0.38125 0.0
H294 H 0.28047 0.46561 0.40118 0.0
H295 H 0.22163 0.48845 0.35675 0.0
H296 H 0.24916 0.50316 0.35684 0.0
H297 H 0.24193 0.4831 0.4202 0.0
H298 H 0.32771 0.50787 0.3814 0.0
C299 C 0.29865 0.50146 0.31965 0.0
C300 C 0.1307 0.25673 0.3189 0.0
C301 C 0.13397 0.23218 0.3146 0.0
C302 C 0.13987 0.22277 0.25519 0.0
C303 C 0.12241 0.25703 0.20727 0.0
C304 C 0.12343 0.26877 0.26436 0.0
C305 C 0.11027 0.29181 0.26215 0.0
H306 H 0.01216 0.34255 0.22369 0.0
C307 C 0.10396 0.26817 0.16846 0.0
C308 C 0.09801 0.28949 0.19776 0.0
H309 H 0.07866 0.37605 0.27397 0.0
H310 H 0.09972 0.34453 0.21952 0.0
H311 H 0.04115 0.32716 0.07102 0.0
H312 H 0.02424 0.28215 0.23169 0.0
H313 H 0.01274 0.27308 0.1567 0.0
H314 H 1.00143 0.29917 0.19412 0.0
H315 H 0.01112 0.32439 0.0981 0.0
H316 H 0.0247 0.30107 0.05382 0.0
C317 C 0.12861 0.31213 0.26549 0.0
C318 C 0.09228 0.29312 0.31727 0.0
C319 C 0.06042 0.21257 0.02127 0.0
C320 C 0.03791 0.21165 0.99413 0.0
C321 C 0.02252 0.2309 1.00558 0.0
C322 C 0.02951 0.25022 0.04473 0.0
C323 C 0.05223 0.25052 0.07208 0.0
C324 C 0.06707 0.23167 0.05965 0.0
C325 C 0.09003 0.23334 0.09408 0.0
C326 C 0.0876 0.25721 0.12637 0.0
C327 C 0.06527 0.26752 0.1144 0.0
C328 C 0.11031 0.23375 0.04509 0.0
C329 C 0.09123 0.21217 0.1411 0.0
C330 C 0.03125 0.34258 0.22567 0.0
C331 C 0.04371 0.3612 0.25735 0.0
C332 C 0.06859 0.36161 0.25354 0.0
C333 C 0.0809 0.34315 0.22521 0.0
C334 C 0.06844 0.32357 0.20309 0.0
C335 C 0.04438 0.32412 0.1963 0.0
C336 C 0.03662 0.30379 0.15263 0.0
C337 C 0.05988 0.28999 0.14326 0.0
C338 C 0.07761 0.30158 0.17792 0.0
C339 C 0.02782 0.31458 0.09036 0.0
C340 C 0.01763 0.28866 0.18551 0.0
H341 H 0.13647 0.22699 0.15565 0.0
H342 H 0.12796 0.26456 0.36487 0.0
H343 H 0.08007 0.27766 0.3163 0.0
H344 H 0.08157 0.30937 0.31548 0.0
H345 H 0.10137 0.29361 0.36359 0.0
H346 H 0.14432 0.307 0.29369 0.0
H347 H 0.12145 0.32784 0.29002 0.0
H348 H 0.13489 0.31723 0.21766 0.0
H349 H 0.07276 0.19828 0.01357 0.0
H350 H 1.00494 0.23073 0.98554 0.0
H351 H 0.01697 0.264 0.0535 0.0
H352 H 0.10583 0.2454 1.0046 0.0
H353 H 0.11371 0.21574 0.02634 0.0
H354 H 0.12691 0.24095 0.06492 0.0
H355 H 0.07645 0.19932 0.13542 0.0
H356 H 0.09001 0.21813 0.19076 0.0
H357 H 0.10749 0.2016 0.1346 0.0
H358 H 0.14426 0.20423 0.2507 0.0
C359 C 0.13405 0.23538 0.20053 0.0
C360 C 0.30562 0.04917 1.00945 0.0
C361 C 0.32686 0.05874 0.98332 0.0
C362 C 0.33656 0.07916 1.0111 0.0
C363 C 0.3059 0.07973 0.09056 0.0
C364 C 0.29511 0.0604 0.06289 0.0
C365 C 0.272 0.05453 0.09733 0.0
H366 H 0.19888 0.08377 0.34844 0.0
C367 C 0.29225 0.08706 0.14645 0.0
C368 C 0.27165 0.07301 0.15078 0.0
H369 H 0.18554 0.02755 0.21521 0.0
H370 H 0.22198 0.038 0.15854 0.0
H371 H 0.24723 0.06949 0.37303 0.0
H372 H 0.21919 0.12342 0.25448 0.0
H373 H 0.2434 0.13593 0.295 0.0
H374 H 0.21897 0.1238 0.33921 0.0
H375 H 0.24276 0.09874 0.40239 0.0
H376 H 0.27056 0.08978 0.36829 0.0
C377 C 0.27333 0.02918 0.12333 0.0
C378 C 0.25131 0.05793 0.05126 0.0
C379 C 0.3339 0.13736 0.30896 0.0
C380 C 0.32831 0.14157 0.37257 0.0
C381 C 0.30444 0.14067 0.39124 0.0
C382 C 0.28712 0.13204 0.34979 0.0
C383 C 0.29392 0.12372 0.28986 0.0
C384 C 0.31666 0.12776 0.26904 0.0
C385 C 0.32113 0.117 0.20532 0.0
C386 C 0.298 0.10374 0.19424 0.0
C387 C 0.28221 0.10779 0.24371 0.0
C388 C 0.34246 0.09997 0.21125 0.0
C389 C 0.32479 0.13757 0.15763 0.0
C390 C 0.20353 0.07342 0.30729 0.0
C391 C 0.18916 0.05458 0.28746 0.0
C392 C 0.19612 0.04222 0.23217 0.0
C393 C 0.21733 0.04823 0.19937 0.0
C394 C 0.23183 0.06679 0.22191 0.0
C395 C 0.2245 0.07883 0.27535 0.0
C396 C 0.24214 0.0966 0.29781 0.0
C397 C 0.26089 0.09462 0.24741 0.0
C398 C 0.25529 0.07711 0.20199 0.0
C399 C 0.25113 0.08848 0.36377 0.0
C400 C 0.23041 0.12129 0.29715 0.0
H401 H 0.33494 0.10493 0.08176 0.0
H402 H 0.29741 0.03373 0.98855 0.0
H403 H 0.25237 0.07565 0.02871 0.0
H404 H 0.23404 0.05682 0.07523 0.0
H405 H 0.25174 0.04434 0.01338 0.0
H406 H 0.28968 0.02688 0.1516 0.0
H407 H 0.27356 0.0161 0.08419 0.0
H408 H 0.25826 0.02496 0.1545 0.0
H409 H 0.35208 0.13803 0.29311 0.0
H410 H 0.29962 0.14421 0.4398 0.0
H411 H 0.2695 0.13049 0.36787 0.0
H412 H 0.34104 0.08935 0.25527 0.0
H413 H 0.35941 0.10992 0.21273 0.0
H414 H 0.3437 0.08689 0.17297 0.0
H415 H 0.3188 0.15486 0.17672 0.0
H416 H 0.31428 0.13495 0.114 0.0
H417 H 0.34371 0.13972 0.14478 0.0
H418 H 0.35274 0.08691 0.99285 0.0
C419 C 0.32619 0.08967 0.06339 0.0
C420 C 0.49843 0.30725 0.99907 0.0
C421 C 0.48629 0.32439 0.96199 0.0
C422 C 0.46153 0.32292 0.95796 0.0
C423 C 0.46084 0.29316 0.03922 0.0
C424 C 0.48498 0.29104 0.03631 0.0
C425 C 0.49266 0.26971 0.07581 0.0
H426 H 0.45619 0.19001 0.30711 0.0
C427 C 0.45158 0.27817 0.08984 0.0
C428 C 0.46957 0.26287 0.11022 0.0
H429 H 0.52228 0.18633 0.2067 0.0
H430 H 0.51197 0.22231 0.14764 0.0
H431 H 0.46193 0.24081 0.33487 0.0
H432 H 0.42065 0.20403 0.19869 0.0
H433 H 0.40269 0.22606 0.2331 0.0
H434 H 0.41623 0.20422 0.2827 0.0
H435 H 0.43147 0.235 0.34953 0.0
H436 H 0.4413 0.26236 0.31367 0.0
C437 C 0.51221 0.27701 0.12229 0.0
C438 C 0.50067 0.25018 0.03004 0.0
C439 C 0.38839 0.31567 0.22153 0.0
C440 C 0.38641 0.31325 0.28743 0.0
C441 C 0.38874 0.29033 0.31286 0.0
C442 C 0.39855 0.27218 0.27647 0.0
C443 C 0.40729 0.27749 0.21601 0.0
C444 C 0.40102 0.29853 0.18786 0.0
C445 C 0.4143 0.30284 0.12724 0.0
C446 C 0.43098 0.2816 0.12681 0.0
C447 C 0.42681 0.26705 0.17905 0.0
C448 C 0.4279 0.32667 0.13305 0.0
C449 C 0.39643 0.30258 0.07182 0.0
C450 C 0.46828 0.19641 0.27122 0.0
C451 C 0.48963 0.18471 0.26031 0.0
C452 C 0.50543 0.19467 0.21543 0.0
C453 C 0.49933 0.2153 0.18057 0.0
C454 C 0.47731 0.22621 0.19095 0.0
C455 C 0.46261 0.21677 0.23697 0.0
C456 C 0.44121 0.23144 0.2484 0.0
C457 C 0.44333 0.24931 0.19547 0.0
C458 C 0.46481 0.24696 0.16199 0.0
C459 C 0.44391 0.24296 0.31487 0.0
C460 C 0.41892 0.21568 0.24073 0.0
H461 H 0.43005 0.3061 0.99026 0.0
H462 H 0.51753 0.3069 0.99994 0.0
H463 H 0.48698 0.24692 0.99343 0.0
H464 H 0.50362 0.23321 0.0541 0.0
H465 H 0.51729 0.25545 1.00576 0.0
H466 H 0.50623 0.29198 0.1522 0.0
H467 H 0.52839 0.28264 0.09654 0.0
H468 H 0.51694 0.26222 0.1539 0.0
H469 H 0.38459 0.33247 0.19947 0.0
H470 H 0.38604 0.28701 0.36261 0.0
H471 H 0.40105 0.25545 0.29898 0.0
H472 H 0.43922 0.32676 0.17592 0.0
H473 H 0.41554 0.34178 0.13602 0.0
H474 H 0.43938 0.33051 0.09243 0.0
H475 H 0.37777 0.30236 0.08828 0.0
H476 H 0.3987 0.28671 0.04155 0.0
H477 H 0.39821 0.31864 0.04205 0.0
H478 H 0.4519 0.33485 0.92751 0.0
C479 C 0.44884 0.30695 0.99521 0.0
Eu480 Eu 0.99127 0.03916 0.60878 0.0
C481 C 0.05837 0.04239 0.82922 0.0
N482 N 0.06246 0.03556 0.76881 0.0
C483 C 0.09737 0.05966 0.76487 0.0
C484 C 0.07309 0.0592 0.85891 0.0
C485 C 0.08216 0.04307 0.73724 0.0
C486 C 0.09263 0.06803 0.82563 0.0
C487 C 0.03539 0.03828 0.9251 0.0
C488 C 0.03983 0.03196 0.8618 0.0
C489 C 0.04919 0.05596 0.95387 0.0
C490 C 0.0681 0.06629 0.92097 0.0
Eu491 Eu 0.0357 1.00802 0.72466 0.0
N492 N 0.02715 0.01457 0.83302 0.0
C493 C 0.01781 0.02601 0.95829 0.0
C494 C 0.0116 1.00113 0.86707 0.0
C495 C 1.00618 1.00704 0.9295 0.0
H496 H 0.08571 0.03664 0.69013 0.0
H497 H 0.99328 0.99676 0.95559 0.0
H498 H 0.93829 0.04116 0.68463 0.0
H499 H 1.0076 1.00728 0.36994 0.0
H500 H 1.00338 0.9857 0.84645 0.0
H501 H 0.01379 0.03038 1.0069 0.0
H502 H 0.01471 0.03165 0.46554 0.0
H503 H 0.11266 0.06606 0.73923 0.0
H504 H 0.04588 0.06124 1.00222 0.0
H505 H 0.07906 0.07936 0.94439 0.0
H506 H 0.90066 0.01908 0.68429 0.0
H507 H 0.10435 0.08099 0.8468 0.0
H508 H 0.97269 0.98078 0.36499 0.0
N509 N 0.9528 0.02217 0.60699 0.0
C510 C 0.94822 1.00696 0.55888 0.0
C511 C 0.914 0.01527 0.64917 0.0
C512 C 0.92663 0.99445 0.55559 0.0
C513 C 0.93554 0.02749 0.64976 0.0
C514 C 0.9097 0.99832 0.60257 0.0
N515 N 0.9844 0.01854 0.51354 0.0
C516 C 0.99932 0.02028 0.46301 0.0
C517 C 0.95964 0.99111 0.45702 0.0
C518 C 0.96442 1.00529 0.51023 0.0
C519 C 0.97567 0.9915 0.40663 0.0
C520 C 0.99538 1.00649 0.40917 0.0
H521 H 0.8929 0.98905 0.60184 0.0
H522 H 0.90594 0.96929 0.50139 0.0
H523 H 0.9348 0.96649 0.41485 0.0
O524 O 1.0039 0.07274 0.57517 0.0
O525 O 1.00787 1.0039 0.58098 0.0
O526 O 0.00916 0.98404 0.67402 0.0
O527 O 0.96611 0.06474 0.56697 0.0
O528 O 0.0303 0.04481 0.58303 0.0
O529 O 0.05063 0.01334 0.62591 0.0
O530 O 0.05173 0.98086 0.7838 0.0
O531 O 0.03524 0.04872 0.71334 0.0
O532 O 0.99618 0.05615 0.7048 0.0
O533 O 0.06498 0.98681 0.6897 0.0
O534 O 0.99653 0.99872 0.73989 0.0
O535 O 0.97885 0.03335 0.71046 0.0
C536 C 1.00664 0.98397 0.61242 0.0
C537 C 0.9805 0.1033 0.52859 0.0
C538 C 0.99951 0.13906 0.48937 0.0
C539 C 0.97736 0.14989 0.48434 0.0
C540 C 0.95836 0.11403 0.52236 0.0
C541 C 0.95685 0.13728 0.50018 0.0
C542 C 1.0009 0.11581 0.51102 0.0
C543 C 0.04869 0.03057 0.58454 0.0
C544 C 0.98315 0.07995 0.55786 0.0
C545 C 0.9223 0.97925 0.50438 0.0
C546 C 0.93875 0.97764 0.45509 0.0
C547 C 0.01698 0.06214 0.72668 0.0
C548 C 0.06443 0.94769 0.7249 0.0
C549 C 0.04278 0.91029 0.72231 0.0
C550 C 0.06236 0.89954 0.69353 0.0
C551 C 0.08386 0.93668 0.69656 0.0
C552 C 0.04382 0.93454 0.73657 0.0
C553 C 0.08274 0.91273 0.68061 0.0
C554 C 0.97916 0.01402 0.74506 0.0
C555 C 0.06538 0.97313 0.73886 0.0
H556 H 0.97595 0.16791 0.46757 0.0
H557 H 0.94238 0.10471 0.53595 0.0
H558 H 0.93977 0.14563 0.49594 0.0
H559 H 0.01813 0.10772 0.51571 0.0
H560 H 0.06216 0.88085 0.68244 0.0
H561 H 0.0998 0.94665 0.68634 0.0
H562 H 0.02855 0.9432 0.75681 0.0
H563 H 0.09779 0.90432 0.65873 0.0
Eu564 Eu 0.52483 0.03843 0.7126 0.0
C565 C 0.5099 0.93646 0.62403 0.0
N566 N 0.51705 0.95551 0.58958 0.0
C567 C 0.54672 0.93207 0.53886 0.0
C568 C 0.52137 0.91449 0.61789 0.0
C569 C 0.5348 0.95346 0.54628 0.0
C570 C 0.54007 0.91254 0.57503 0.0
C571 C 0.48369 0.91954 0.70311 0.0
C572 C 0.49126 0.93897 0.66639 0.0
C573 C 0.49507 0.89769 0.69691 0.0
C574 C 0.51387 0.89518 0.65453 0.0
Eu575 Eu 0.49531 0.99062 0.60528 0.0
N576 N 0.4809 0.9605 0.67276 0.0
C577 C 0.46494 0.92267 0.74531 0.0
C578 C 0.4621 0.96337 0.71221 0.0
C579 C 0.45405 0.94466 0.74965 0.0
H580 H 0.53959 0.96804 0.51614 0.0
H581 H 0.43925 0.94714 0.78129 0.0
H582 H 0.49947 0.05086 0.85088 0.0
H583 H 0.56377 0.09867 0.53842 0.0
H584 H 0.45293 0.97986 0.7142 0.0
H585 H 0.45855 0.90817 0.7741 0.0
H586 H 0.5569 0.06025 0.5904 0.0
H587 H 0.56088 0.93061 0.50474 0.0
H588 H 0.48953 0.88262 0.7249 0.0
H589 H 0.52252 0.87821 0.65049 0.0
H590 H 0.48172 0.08546 0.90463 0.0
H591 H 0.54932 0.89597 0.56903 0.0
H592 H 0.54532 0.13481 0.58134 0.0
N593 N 0.51005 0.07054 0.77051 0.0
C594 C 0.51224 0.09214 0.74312 0.0
C595 C 0.4901 0.08755 0.85903 0.0
C596 C 0.50283 0.1124 0.77236 0.0
C597 C 0.49988 0.06801 0.8284 0.0
C598 C 0.49134 0.10981 0.83056 0.0
N599 N 0.53415 0.07433 0.66077 0.0
C600 C 0.54875 0.07584 0.60954 0.0
C601 C 0.52839 0.11649 0.65901 0.0
C602 C 0.52486 0.09416 0.68707 0.0
C603 C 0.54225 0.11798 0.60437 0.0
C604 C 0.55271 0.09762 0.58003 0.0
H605 H 0.48384 0.12494 0.85452 0.0
H606 H 0.49829 0.15031 0.7648 0.0
H607 H 0.52063 0.15388 0.66555 0.0
O608 O 0.55697 0.02099 0.74279 0.0
O609 O 0.50417 0.05374 0.6295 0.0
O610 O 0.50236 0.02506 0.55219 0.0
O611 O 0.54713 0.05444 0.78542 0.0
O612 O 0.54941 0.02052 0.64092 0.0
O613 O 0.52789 1.00566 0.55717 0.0
O614 O 0.45922 0.98388 0.57542 0.0
O615 O 0.51961 0.98023 0.68798 0.0
O616 O 0.51012 1.00649 0.76459 0.0
O617 O 0.48794 0.97519 0.51253 0.0
O618 O 0.46982 0.01586 0.65654 0.0
O619 O 0.48865 0.02682 0.74855 0.0
C620 C 0.50169 0.04733 0.57017 0.0
C621 C 0.58785 0.04674 0.76858 0.0
C622 C 0.62961 0.03685 0.76665 0.0
C623 C 0.63453 0.05812 0.73507 0.0
C624 C 0.59293 0.06815 0.73773 0.0
C625 C 0.61623 0.07382 0.72139 0.0
C626 C 0.60627 0.03141 0.78359 0.0
C627 C 0.54801 0.01239 0.58268 0.0
C628 C 0.56351 0.0385 0.77902 0.0
C629 C 0.50558 0.13456 0.74332 0.0
C630 C 0.51832 0.1366 0.68681 0.0
C631 C 0.51562 0.98488 0.74798 0.0
C632 C 0.45249 0.98865 0.46746 0.0
C633 C 0.4341 0.02414 0.42377 0.0
C634 C 0.42306 1.00951 0.37815 0.0
C635 C 0.44177 0.97477 0.42102 0.0
C636 C 0.44937 0.0133 0.46748 0.0
C637 C 0.42729 0.98524 0.37615 0.0
C638 C 0.46915 0.02347 0.71554 0.0
C639 C 0.46519 0.97709 0.51894 0.0
H640 H 0.65243 0.06254 0.72115 0.0
H641 H 0.57894 0.08021 0.72514 0.0
H642 H 0.62006 0.09022 0.69708 0.0
H643 H 0.60224 0.01461 0.80597 0.0
H644 H 0.41038 0.01637 0.34494 0.0
H645 H 0.44409 0.95577 0.4205 0.0
H646 H 0.45837 0.02366 0.50299 0.0
H647 H 0.41861 0.97438 0.34097 0.0
Eu648 Eu 0.53854 0.50074 0.59849 0.0
C649 C 0.47213 0.49227 0.82449 0.0
N650 N 0.46656 0.50025 0.76607 0.0
C651 C 0.4319 0.47571 0.76469 0.0
C652 C 0.4582 0.47485 0.85444 0.0
C653 C 0.44633 0.49293 0.7368 0.0
C654 C 0.43802 0.46639 0.82343 0.0
C655 C 0.49667 0.49549 0.91761 0.0
C656 C 0.49109 0.50252 0.85555 0.0
C657 C 0.48381 0.47705 0.94613 0.0
C658 C 0.4645 0.46687 0.91476 0.0
Eu659 Eu 0.49213 0.52871 0.72094 0.0
N660 N 0.50264 0.52081 0.82739 0.0
C661 C 0.51413 0.50806 0.95035 0.0
C662 C 0.51747 0.53482 0.86199 0.0
C663 C 0.52414 0.52821 0.92297 0.0
H664 H 0.44149 0.50016 0.69151 0.0
H665 H 0.53663 0.53891 0.94922 0.0
H666 H 0.58296 0.47703 0.68118 0.0
H667 H 0.54572 0.54366 0.36854 0.0
H668 H 0.52401 0.55127 0.84293 0.0
H669 H 0.519 0.50319 0.99799 0.0
H670 H 0.52643 0.52056 0.45333 0.0
H671 H 0.41612 0.4696 0.74085 0.0
H672 H 0.48802 0.47121 0.99346 0.0
H673 H 0.45412 0.45334 0.93827 0.0
H674 H 0.62591 0.48309 0.69608 0.0
H675 H 0.42686 0.453 0.84488 0.0
H676 H 0.58756 0.55593 0.37942 0.0
N677 N 0.58027 0.50272 0.60853 0.0
C678 C 0.59214 0.51694 0.56792 0.0
C679 C 0.61661 0.49292 0.66015 0.0
C680 C 0.61672 0.52047 0.57311 0.0
C681 C 0.59228 0.48969 0.65201 0.0
C682 C 0.62884 0.50873 0.62122 0.0
N683 N 0.55673 0.52058 0.51243 0.0
C684 C 0.54467 0.52589 0.45852 0.0
C685 C 0.59178 0.5391 0.47045 0.0
C686 C 0.57992 0.52611 0.51771 0.0
C687 C 0.57912 0.54592 0.41683 0.0
C688 C 0.55553 0.53896 0.41042 0.0
H689 H 0.64772 0.511 0.62703 0.0
H690 H 0.64731 0.53788 0.53209 0.0
H691 H 0.62539 0.55422 0.44186 0.0
O692 O 0.51677 0.46986 0.57696 0.0
O693 O 0.52648 0.53809 0.57449 0.0
O694 O 0.51475 0.5558 0.6677 0.0
O695 O 0.55341 0.47172 0.54291 0.0
O696 O 0.50334 0.51063 0.55303 0.0
O697 O 0.47463 0.51835 0.62879 0.0
O698 O 0.47341 0.55155 0.78698 0.0
O699 O 0.4939 0.48877 0.70083 0.0
O700 O 0.53324 0.48314 0.69383 0.0
O701 O 0.46465 0.55267 0.68812 0.0
O702 O 0.53098 0.53971 0.73477 0.0
O703 O 0.55074 0.50698 0.69979 0.0
C704 C 0.52059 0.5569 0.60746 0.0
C705 C 0.53085 0.4361 0.51721 0.0
C706 C 0.50523 0.40281 0.48903 0.0
C707 C 0.52426 0.3928 0.45552 0.0
C708 C 0.54956 0.42564 0.48426 0.0
C709 C 0.54627 0.40401 0.45396 0.0
C710 C 0.50894 0.42437 0.52073 0.0
C711 C 0.48121 0.51423 0.57021 0.0
C712 C 0.53384 0.45951 0.54645 0.0
C713 C 0.62847 0.5347 0.52856 0.0
C714 C 0.616 0.544 0.47718 0.0
C715 C 0.51258 0.47604 0.71438 0.0
C716 C 0.4642 0.58848 0.74338 0.0
C717 C 0.48868 0.62392 0.74913 0.0
C718 C 0.4684 0.63784 0.74197 0.0
C719 C 0.44412 0.60252 0.73555 0.0
C720 C 0.48649 0.59924 0.74982 0.0
C721 C 0.44626 0.62714 0.73487 0.0
C722 C 0.54934 0.52551 0.73701 0.0
C723 C 0.46198 0.56264 0.74294 0.0
H724 H 0.5221 0.37663 0.4288 0.0
H725 H 0.56665 0.43428 0.48127 0.0
H726 H 0.56069 0.39614 0.42793 0.0
H727 H 0.49472 0.43223 0.54758 0.0
H728 H 0.46975 0.65695 0.74166 0.0
H729 H 0.42686 0.59445 0.72995 0.0
H730 H 0.50208 0.58845 0.7561 0.0
H731 H 0.43071 0.63795 0.72897 0.0
Eu732 Eu 0.02509 0.54393 0.61183 0.0
C733 C 0.03569 0.46002 0.77997 0.0
N734 N 0.02103 0.46283 0.7298 0.0
C735 C 0.03495 0.42636 0.6856 0.0
C736 C 0.05151 0.44088 0.78312 0.0
C737 C 0.01933 0.44542 0.68527 0.0
C738 C 0.05149 0.42436 0.734 0.0
C739 C 0.04752 0.47235 0.88502 0.0
C740 C 0.03378 0.47548 0.8303 0.0
C741 C 0.06409 0.454 0.88712 0.0
C742 C 0.06615 0.43835 0.83615 0.0
Eu743 Eu 0.99718 0.49743 0.73077 0.0
N744 N 0.01808 0.49341 0.82618 0.0
C745 C 0.04399 0.48763 0.93616 0.0
C746 C 0.01399 0.50794 0.87636 0.0
C747 C 0.02697 0.50536 0.93202 0.0
H748 H 1.00573 0.44579 0.64976 0.0
H749 H 0.02396 0.51713 0.97146 0.0
H750 H 0.99737 0.59398 0.64678 0.0
H751 H 0.03723 0.50254 0.37958 0.0
H752 H 1.00093 0.52174 0.87286 0.0
H753 H 0.05417 0.48578 0.97911 0.0
H754 H 0.0478 0.51188 0.48932 0.0
H755 H 0.03395 0.41302 0.64903 0.0
H756 H 0.0751 0.45152 0.92834 0.0
H757 H 0.07863 0.42395 0.839 0.0
H758 H 0.96966 0.62195 0.59615 0.0
H759 H 0.06339 0.40943 0.73453 0.0
H760 H 1.0041 0.52325 0.32819 0.0
N761 N 0.9979 0.57062 0.56833 0.0
C762 C 0.99145 0.56674 0.50747 0.0
C763 C 0.97549 0.6064 0.57093 0.0
C764 C 0.97568 0.58214 0.47683 0.0
C765 C 0.99105 0.59058 0.5995 0.0
C766 C 0.96754 0.60201 0.5096 0.0
N767 N 0.01875 0.53518 0.50351 0.0
C768 C 0.03244 0.52013 0.46887 0.0
C769 C 0.99588 0.54423 0.41077 0.0
C770 C 1.00168 0.54811 0.47472 0.0
C771 C 1.00813 0.52686 0.37723 0.0
C772 C 0.02684 0.51512 0.40605 0.0
H773 H 0.95545 0.61428 0.48761 0.0
H774 H 0.95666 0.589 0.39022 0.0
H775 H 0.97416 0.55568 0.33255 0.0
O776 O 0.04672 0.56521 0.54838 0.0
O777 O 0.98471 0.54375 0.62721 0.0
O778 O 0.97673 0.50467 0.64091 0.0
O779 O 0.0517 0.56867 0.64841 0.0
O780 O 0.03309 0.50475 0.5928 0.0
O781 O 0.99918 0.48644 0.62686 0.0
O782 O 0.96592 0.50206 0.78891 0.0
O783 O 0.03231 0.51583 0.75331 0.0
O784 O 0.04983 0.51713 0.65709 0.0
O785 O 0.97507 0.46707 0.75737 0.0
O786 O 0.98881 0.536 0.75608 0.0
O787 O 0.01864 0.55859 0.71063 0.0
C788 C 0.97071 0.52537 0.61852 0.0
C789 C 0.08487 0.57305 0.58217 0.0
C790 C 0.11845 0.54754 0.55883 0.0
C791 C 0.13098 0.56772 0.53761 0.0
C792 C 0.09763 0.59281 0.56159 0.0
C793 C 0.1208 0.59015 0.54041 0.0
C794 C 0.09561 0.55089 0.58348 0.0
C795 C 0.01718 0.48777 0.58767 0.0
C796 C 0.05941 0.57463 0.59277 0.0
C797 C 0.96904 0.57758 0.41422 0.0
C798 C 0.97898 0.55857 0.38142 0.0
C799 C 0.05154 0.51507 0.71867 0.0
C800 C 0.9347 0.47771 0.75305 0.0
C801 C 0.89806 0.4956 0.71686 0.0
C802 C 0.88964 0.47336 0.6981 0.0
C803 C 0.92619 0.45548 0.73359 0.0
C804 C 0.9205 0.49767 0.74386 0.0
C805 C 0.90381 0.4534 0.70593 0.0
C806 C 1.00226 0.55523 0.75417 0.0
C807 C 0.95857 0.48043 0.7806 0.0
H808 H 0.1483 0.56639 0.51651 0.0
H809 H 0.08945 0.61005 0.55989 0.0
H810 H 0.13055 0.60539 0.52345 0.0
H811 H 0.08534 0.53627 0.60123 0.0
H812 H 0.87211 0.47145 0.67826 0.0
H813 H 0.93681 0.43979 0.73961 0.0
H814 H 0.92653 0.51497 0.75924 0.0
H815 H 0.89734 0.43622 0.69127 0.0
C816 C 0.14603 0.04156 0.29975 0.0
C817 C 0.16775 0.04814 0.32686 0.0
C818 C 0.12559 0.0379 0.33745 0.0
C819 C 0.12667 0.04113 0.40395 0.0
C820 C 0.14866 0.04719 0.43146 0.0
C821 C 0.16877 0.05021 0.39309 0.0
C822 C 0.10273 0.03087 0.306 0.0
C823 C 0.15094 0.05092 0.50179 0.0
C824 C 0.07155 0.05466 0.50378 0.0
C825 C 0.06772 0.03318 0.53557 0.0
C826 C 0.09018 0.05736 0.45971 0.0
C827 C 0.10515 0.03796 0.44554 0.0
C828 C 0.1007 0.016 0.4757 0.0
C829 C 0.08235 0.01396 0.52056 0.0
C830 C 0.09432 0.08124 0.4299 0.0
C831 C 0.11566 0.99464 0.46152 0.0
H832 H 0.14481 0.03987 0.24894 0.0
H833 H 0.18545 0.05451 0.41541 0.0
H834 H 0.09545 0.01464 0.3283 0.0
H835 H 0.08949 0.04504 0.31254 0.0
H836 H 0.10498 0.02761 0.25466 0.0
H837 H 0.16909 0.05626 0.51583 0.0
H838 H 0.13848 0.06481 0.51754 0.0
H839 H 0.14619 0.03444 0.52723 0.0
H840 H 0.0604 0.06962 0.5147 0.0
H841 H 0.07942 0.99715 0.54387 0.0
H842 H 0.09435 0.07964 0.37775 0.0
H843 H 0.11193 0.08814 0.44401 0.0
H844 H 0.08072 0.09432 0.44392 0.0
H845 H 0.11684 0.9918 0.40981 0.0
H846 H 0.10854 0.97832 0.48379 0.0
H847 H 0.13388 0.99763 0.47908 0.0
C848 C 0.51519 0.15959 0.33262 0.0
C849 C 0.4945 0.16243 0.29693 0.0
C850 C 0.51784 0.14027 0.37465 0.0
C851 C 0.49942 0.12324 0.38125 0.0
C852 C 0.47909 0.12547 0.34288 0.0
C853 C 0.47685 0.14492 0.30178 0.0
C854 C 0.54001 0.1386 0.41369 0.0
C855 C 0.45925 0.10765 0.3468 0.0
C856 C 0.50859 0.06257 0.4594 0.0
C857 C 0.5003 0.06639 0.52109 0.0
C858 C 0.5091 0.08096 0.41421 0.0
C859 C 0.5006 0.10377 0.43014 0.0
C860 C 0.49198 0.1076 0.49226 0.0
C861 C 0.49214 0.08904 0.53681 0.0
C862 C 0.5191 0.07604 0.34955 0.0
C863 C 0.48268 0.13141 0.51208 0.0
H864 H 0.52888 0.17303 0.32982 0.0
H865 H 0.46086 0.14675 0.27417 0.0
H866 H 0.53599 0.14368 0.46307 0.0
H867 H 0.54666 0.12019 0.41444 0.0
H868 H 0.55419 0.15046 0.39573 0.0
H869 H 0.44433 0.11208 0.3151 0.0
H870 H 0.46576 0.08984 0.334 0.0
H871 H 0.45269 0.10659 0.39602 0.0
H872 H 0.51532 0.0453 0.44683 0.0
H873 H 0.4858 0.09231 0.58427 0.0
H874 H 0.53347 0.08885 0.33878 0.0
H875 H 0.50523 0.07839 0.31326 0.0
H876 H 0.52622 0.05784 0.34547 0.0
H877 H 0.49737 0.14445 0.51267 0.0
H878 H 0.47449 0.13095 0.55974 0.0
H879 H 0.46939 0.13775 0.47773 0.0
C880 C 0.37283 0.48781 0.33739 0.0
C881 C 0.36444 0.50746 0.30389 0.0
C882 C 0.39334 0.48914 0.37476 0.0
C883 C 0.40628 0.51061 0.37861 0.0
C884 C 0.39883 0.53008 0.34132 0.0
C885 C 0.37788 0.52837 0.30496 0.0
C886 C 0.40017 0.46795 0.41369 0.0
C887 C 0.41217 0.55322 0.34285 0.0
C888 C 0.43909 0.5208 0.53462 0.0
C889 C 0.46238 0.51416 0.52006 0.0
C890 C 0.42102 0.52037 0.4888 0.0
C891 C 0.42605 0.51309 0.42613 0.0
C892 C 0.44957 0.50672 0.41072 0.0
C893 C 0.46735 0.5073 0.45759 0.0
C894 C 0.39631 0.52724 0.50801 0.0
C895 C 0.45589 0.49883 0.34487 0.0
H896 H 0.36228 0.47175 0.33782 0.0
H897 H 0.37128 0.5438 0.28054 0.0
H898 H 0.41888 0.46331 0.40477 0.0
H899 H 0.39851 0.47221 0.46461 0.0
H900 H 0.38891 0.45228 0.40336 0.0
H901 H 0.4063 0.56543 0.30503 0.0
H902 H 0.40935 0.56195 0.38912 0.0
H903 H 0.43141 0.55016 0.33766 0.0
H904 H 0.43482 0.52627 0.58228 0.0
H905 H 0.48513 0.50204 0.44527 0.0
H906 H 0.3842 0.51189 0.50217 0.0
H907 H 0.38976 0.54157 0.47704 0.0
H908 H 0.39536 0.53333 0.55778 0.0
H909 H 0.44696 0.48178 0.3343 0.0
H910 H 0.47523 0.49648 0.33874 0.0
H911 H 0.4496 0.5119 0.30979 0.0
C912 C 0.0196 0.3747 0.35116 0.0
C913 C 0.03225 0.38029 0.29606 0.0
C914 C 0.01464 0.39214 0.39736 0.0
C915 C 0.02247 0.41585 0.38856 0.0
C916 C 0.03392 0.42179 0.33115 0.0
C917 C 0.03863 0.40408 0.28597 0.0
C918 C 1.00249 0.38481 0.45767 0.0
C919 C 0.04255 0.44667 0.31898 0.0
C920 C 0.99989 0.46637 0.49424 0.0
C921 C 0.01881 0.46979 0.53609 0.0
C922 C 1.00072 0.44898 0.4463 0.0
C923 C 0.02065 0.43397 0.44101 0.0
C924 C 0.03944 0.43692 0.48481 0.0
C925 C 0.03848 0.45503 0.53079 0.0
C926 C 0.98031 0.4468 0.40101 0.0
C927 C 0.0607 0.42097 0.48313 0.0
H928 H 0.01501 0.35639 0.36022 0.0
H929 H 0.04857 0.40861 0.24388 0.0
H930 H 0.01527 0.38571 0.49726 0.0
H931 H 0.98788 0.3971 0.46894 0.0
H932 H 0.99528 0.36653 0.45492 0.0
H933 H 0.04922 0.449 0.27005 0.0
H934 H 0.02813 0.4595 0.32734 0.0
H935 H 0.05704 0.45105 0.3523 0.0
H936 H 0.98455 0.47764 0.49838 0.0
H937 H 0.05279 0.45716 0.56417 0.0
H938 H 0.97323 0.42848 0.40148 0.0
H939 H 0.98649 0.4505 0.3523 0.0
H940 H 0.96576 0.45918 0.41261 0.0
H941 H 0.0555 0.40235 0.474 0.0
H942 H 0.07068 0.42158 0.52816 0.0
H943 H 0.0726 0.42664 0.44427 0.0
C944 C 0.86339 0.99959 0.96311 0.0
C945 C 0.86843 0.9963 0.02732 0.0
C946 C 0.88151 1.00343 0.91839 0.0
C947 C 0.90545 1.00423 0.93807 0.0
C948 C 0.91054 1.00205 1.00342 0.0
C949 C 0.89205 0.99775 0.047 0.0
C950 C 0.87509 1.00532 0.84948 0.0
C951 C 0.93564 1.00323 0.02702 0.0
C952 C 0.95347 0.98876 0.8165 0.0
C953 C 0.96074 1.01115 0.79535 0.0
C954 C 0.93568 0.98624 0.86297 0.0
C955 C 0.92505 1.0066 0.89001 0.0
C956 C 0.93274 0.02923 0.86959 0.0
C957 C 0.95019 0.0312 0.82234 0.0
C958 C 0.92796 0.96173 0.88236 0.0
C959 C 0.92246 0.05146 0.89755 0.0
H960 H 0.84527 0.99766 0.94728 0.0
H961 H 0.89616 0.99449 0.09616 0.0
H962 H 0.88267 0.02172 0.82894 0.0
H963 H 0.88274 0.99022 0.82318 0.0
H964 H 0.85568 1.00534 0.84194 0.0
H965 H 0.93654 1.00367 0.07936 0.0
H966 H 0.94552 0.9876 1.01 0.0
H967 H 0.94472 0.01916 1.00808 0.0
H968 H 0.96141 0.97317 0.79586 0.0
H969 H 0.95577 0.04861 0.80686 0.0
H970 H 0.90887 0.9593 0.8723 0.0
H971 H 0.93038 0.9594 0.93389 0.0
H972 H 0.93797 0.94771 0.85738 0.0
H973 H 0.90336 0.05243 0.88644 0.0
H974 H 0.93128 0.06769 0.87941 0.0
H975 H 0.92414 0.05113 0.9497 0.0
C976 C 0.5417 0.8884 0.02055 0.0
C977 C 0.52484 0.87009 0.02284 0.0
C978 C 0.53927 0.90783 0.97927 0.0
C979 C 0.51969 0.909 0.93765 0.0
C980 C 0.5022 0.8909 0.94119 0.0
C981 C 0.50493 0.87178 0.98373 0.0
C982 C 0.55824 0.92668 0.97845 0.0
C983 C 0.48124 0.89095 0.89741 0.0
C984 C 0.50598 0.9682 0.856 0.0
C985 C 0.51694 0.96562 0.79682 0.0
C986 C 0.50654 0.95 0.90178 0.0
C987 C 0.51829 0.92844 0.8886 0.0
C988 C 0.52938 0.92578 0.82888 0.0
C989 C 0.52875 0.94435 0.78429 0.0
C990 C 0.49457 0.95389 0.96453 0.0
C991 C 0.54192 0.90319 0.81187 0.0
H992 H 0.55734 0.88706 0.04979 0.0
H993 H 0.49213 0.85746 0.98384 0.0
H994 H 0.56776 0.9262 0.93268 0.0
H995 H 0.55022 0.94445 0.98299 0.0
H996 H 0.57128 0.92433 0.01702 0.0
H997 H 0.46765 0.87773 0.91149 0.0
H998 H 0.473 0.90869 0.89597 0.0
H999 H 0.48727 0.88672 0.84891 0.0
H1000 H 0.49672 0.98445 0.86647 0.0
H1001 H 0.53757 0.94215 0.73931 0.0
H1002 H 0.50764 0.9522 1.00322 0.0
H1003 H 0.48083 0.94013 0.9722 0.0
H1004 H 0.48619 0.97155 0.96779 0.0
H1005 H 0.55634 0.89979 0.84598 0.0
H1006 H 0.54955 0.90374 0.76358 0.0
H1007 H 0.5294 0.88807 0.81481 0.0
C1008 C 0.66456 0.54298 0.95035 0.0
C1009 C 0.66169 0.54001 0.01588 0.0
C1010 C 0.64563 0.54012 0.90796 0.0
C1011 C 0.62289 0.534 0.93086 0.0
C1012 C 0.61989 0.53036 0.99681 0.0
C1013 C 0.6393 0.53328 0.03845 0.0
C1014 C 0.64996 0.54398 0.83838 0.0
C1015 C 0.59599 0.52394 0.02349 0.0
C1016 C 0.57205 0.54961 0.81848 0.0
C1017 C 0.56746 0.52793 0.78846 0.0
C1018 C 0.58901 0.55151 0.86723 0.0
C1019 C 0.60252 0.53154 0.88519 0.0
C1020 C 0.59779 0.50959 0.85538 0.0
C1021 C 0.58027 0.50803 0.80829 0.0
C1022 C 0.59286 0.57514 0.89836 0.0
C1023 C 0.61161 0.48776 0.87217 0.0
H1024 H 0.68182 0.54775 0.93197 0.0
H1025 H 0.6368 0.53098 0.08878 0.0
H1026 H 0.64464 0.52802 0.81133 0.0
H1027 H 0.639 0.55885 0.82133 0.0
H1028 H 0.66877 0.54803 0.82777 0.0
H1029 H 0.59655 0.52108 0.07531 0.0
H1030 H 0.58324 0.53825 0.01322 0.0
H1031 H 0.58917 0.50765 1.00056 0.0
H1032 H 0.56243 0.56516 0.80373 0.0
H1033 H 0.57661 0.49102 0.78698 0.0
H1034 H 0.57782 0.58721 0.88972 0.0
H1035 H 0.60921 0.58331 0.87921 0.0
H1036 H 0.59519 0.57318 0.95004 0.0
H1037 H 0.63043 0.49036 0.85911 0.0
H1038 H 0.60487 0.47173 0.84765 0.0
H1039 H 0.61094 0.48466 0.9238 0.0
C1040 C 0.99341 0.6494 0.04739 0.0
C1041 C 0.9813 0.66945 0.02615 0.0
C1042 C 0.99837 0.63028 1.00599 0.0
C1043 C 0.99093 0.6311 0.94186 0.0
C1044 C 0.97949 0.65175 0.92007 0.0
C1045 C 0.97492 0.67049 0.9621 0.0
C1046 C 0.01084 0.60884 0.03142 0.0
C1047 C 0.9712 0.65376 0.8526 0.0
C1048 C 0.01696 0.5916 0.81193 0.0
C1049 C 0.99947 0.57403 0.80402 0.0
C1050 C 0.01486 0.60955 0.85794 0.0
C1051 C 0.9946 0.61048 0.89726 0.0
C1052 C 0.977 0.59263 0.89016 0.0
C1053 C 0.97971 0.57463 0.84423 0.0
C1054 C 0.03424 0.62785 0.86367 0.0
C1055 C 0.95501 0.59284 0.93037 0.0
H1056 H 0.9981 0.6482 0.09684 0.0
H1057 H 0.96543 0.68584 0.94526 0.0
H1058 H 0.99863 0.59344 0.03086 0.0
H1059 H 0.02612 0.60434 1.00095 0.0
H1060 H 0.0172 0.61157 0.08046 0.0
H1061 H 0.96322 0.67123 0.84241 0.0
H1062 H 0.9862 0.651 0.81973 0.0
H1063 H 0.95789 0.63978 0.84265 0.0
H1064 H 0.03249 0.59134 0.78204 0.0
H1065 H 0.96607 0.56125 0.8391 0.0
H1066 H 0.04028 0.62915 0.91334 0.0
H1067 H 0.02738 0.64545 0.85008 0.0
H1068 H 0.04968 0.62373 0.83327 0.0
H1069 H 0.94311 0.57764 0.92007 0.0
H1070 H 0.94517 0.60947 0.92237 0.0
H1071 H 0.95987 0.59235 0.98103 0.0
C1072 C 0.09311 0.2197 0.33394 0.0
C1073 C 0.11691 0.21801 0.35136 0.0
C1074 C 0.07579 0.2059 0.36265 0.0
C1075 C 0.08225 0.19034 0.41168 0.0
C1076 C 0.1062 0.18892 0.43108 0.0
C1077 C 0.12348 0.20266 0.39983 0.0
C1078 C 0.05063 0.20766 0.33923 0.0
C1079 C 0.11349 0.17285 0.48425 0.0
C1080 C 0.02745 0.17297 0.50222 0.0
C1081 C 0.0215 0.15165 0.47263 0.0
C1082 C 0.04856 0.18477 0.4871 0.0
C1083 C 0.06359 0.17526 0.44012 0.0
C1084 C 0.05801 0.15325 0.41189 0.0
C1085 C 0.03708 0.1416 0.42898 0.0
C1086 C 0.05421 0.20796 0.51912 0.0
C1087 C 0.07325 0.14278 0.36058 0.0
H1088 H 0.08807 0.2317 0.2965 0.0
H1089 H 0.14191 0.20144 0.41306 0.0
H1090 H 0.04426 0.19005 0.32333 0.0
H1091 H 0.03887 0.21352 0.378 0.0
H1092 H 0.04884 0.22027 0.29935 0.0
H1093 H 0.13234 0.17534 0.49727 0.0
H1094 H 0.10236 0.17614 0.52645 0.0
H1095 H 0.11071 0.15414 0.47033 0.0
H1096 H 0.01559 0.18037 0.53715 0.0
H1097 H 0.03248 0.12494 0.40669 0.0
H1098 H 0.05103 0.22272 0.48583 0.0
H1099 H 0.07309 0.20869 0.53293 0.0
H1100 H 0.04313 0.21079 0.56174 0.0
H1101 H 0.07243 0.15411 0.31791 0.0
H1102 H 0.06752 0.12462 0.34744 0.0
H1103 H 0.09196 0.1422 0.3758 0.0
C1104 C 0.34497 0.11812 0.45922 0.0
C1105 C 0.34731 0.13779 0.41944 0.0
C1106 C 0.36482 0.10512 0.477 0.0
C1107 C 0.38745 0.11268 0.45647 0.0
C1108 C 0.39007 0.13549 0.42978 0.0
C1109 C 0.36983 0.14765 0.40998 0.0
C1110 C 0.36109 0.08145 0.50857 0.0
C1111 C 0.41403 0.14578 0.41505 0.0
C1112 C 0.42926 0.0622 0.48678 0.0
C1113 C 0.42776 0.04986 0.42899 0.0
C1114 C 0.41898 0.08459 0.49434 0.0
C1115 C 0.40557 0.09424 0.44451 0.0
C1116 C 0.4059 0.08305 0.38461 0.0
C1117 C 0.41791 0.06167 0.37712 0.0
C1118 C 0.42142 0.09694 0.55709 0.0
C1119 C 0.39205 0.09256 0.32923 0.0
H1120 H 0.3276 0.11068 0.46814 0.0
H1121 H 0.37176 0.16336 0.38111 0.0
H1122 H 0.36592 0.06702 0.47553 0.0
H1123 H 0.37255 0.08 0.55066 0.0
H1124 H 0.34249 0.07869 0.52369 0.0
H1125 H 0.41404 0.16519 0.42303 0.0
H1126 H 0.42797 0.1377 0.44456 0.0
H1127 H 0.41828 0.14285 0.36458 0.0
H1128 H 0.43725 0.05416 0.52772 0.0
H1129 H 0.4183 0.05365 0.3308 0.0
H1130 H 0.41043 0.08772 0.5929 0.0
H1131 H 0.4162 0.1158 0.55493 0.0
H1132 H 0.43999 0.09595 0.57356 0.0
H1133 H 0.37311 0.09413 0.34201 0.0
H1134 H 0.39339 0.0811 0.28681 0.0
H1135 H 0.39856 0.11042 0.31641 0.0
C1136 C 0.4071 0.35176 0.3054 0.0
C1137 C 0.39165 0.33419 0.32852 0.0
C1138 C 0.42048 0.36583 0.3461 0.0
C1139 C 0.41793 0.36287 0.412 0.0
C1140 C 0.39967 0.34817 0.43571 0.0
C1141 C 0.38674 0.33385 0.3936 0.0
C1142 C 0.43957 0.38149 0.3181 0.0
C1143 C 0.39515 0.34576 0.50551 0.0
C1144 C 0.47888 0.36711 0.47976 0.0
C1145 C 0.48126 0.3917 0.48636 0.0
C1146 C 0.45731 0.35689 0.46197 0.0
C1147 C 0.43736 0.37151 0.45316 0.0
C1148 C 0.43873 0.39567 0.46957 0.0
C1149 C 0.46078 0.40567 0.48434 0.0
C1150 C 0.45657 0.33086 0.44612 0.0
C1151 C 0.41736 0.41135 0.46574 0.0
H1152 H 0.41114 0.35286 0.25564 0.0
H1153 H 0.37413 0.32119 0.41229 0.0
H1154 H 0.43858 0.39958 0.33787 0.0
H1155 H 0.4572 0.37428 0.33004 0.0
H1156 H 0.43829 0.3828 0.26591 0.0
H1157 H 0.37606 0.34272 0.51477 0.0
H1158 H 0.40482 0.3302 0.52374 0.0
H1159 H 0.40107 0.36163 0.53207 0.0
H1160 H 0.49423 0.35592 0.48465 0.0
H1161 H 0.46201 0.42466 0.49005 0.0
H1162 H 0.45408 0.32857 0.39451 0.0
H1163 H 0.44144 0.32218 0.47011 0.0
H1164 H 0.47303 0.32165 0.46007 0.0
H1165 H 0.41982 0.42781 0.49365 0.0
H1166 H 0.40138 0.40191 0.48302 0.0
H1167 H 0.41419 0.41628 0.41588 0.0
C1168 C 0.16064 0.4381 0.38262 0.0
C1169 C 0.17987 0.42597 0.4083 0.0
C1170 C 0.14758 0.45378 0.41949 0.0
C1171 C 0.15297 0.45605 0.48448 0.0
C1172 C 0.16892 0.44009 0.51284 0.0
C1173 C 0.18271 0.42551 0.47402 0.0
C1174 C 0.13006 0.46975 0.38695 0.0
C1175 C 0.17308 0.43971 0.58307 0.0
C1176 C 0.15239 0.51928 0.54196 0.0
C1177 C 0.12805 0.52306 0.55005 0.0
C1178 C 0.16103 0.49717 0.52319 0.0
C1179 C 0.14528 0.47768 0.51818 0.0
C1180 C 0.12134 0.48063 0.53433 0.0
C1181 C 0.1128 0.50332 0.54632 0.0
C1182 C 0.18683 0.4952 0.50542 0.0
C1183 C 0.10413 0.46026 0.53658 0.0
H1184 H 0.15801 0.43817 0.33196 0.0
H1185 H 0.19719 0.41564 0.49435 0.0
H1186 H 0.11197 0.46557 0.4037 0.0
H1187 H 0.13382 0.48858 0.39809 0.0
H1188 H 0.13028 0.46763 0.33484 0.0
H1189 H 0.17441 0.42115 0.59973 0.0
H1190 H 0.19017 0.44847 0.59392 0.0
H1191 H 0.15879 0.44863 0.60976 0.0
H1192 H 0.1648 0.53371 0.54776 0.0
H1193 H 0.0939 0.50517 0.55087 0.0
H1194 H 0.18892 0.48595 0.45955 0.0
H1195 H 0.19622 0.48482 0.54178 0.0
H1196 H 0.1956 0.51276 0.50182 0.0
H1197 H 0.11247 0.4428 0.52904 0.0
H1198 H 0.09024 0.46305 0.50057 0.0
H1199 H 0.09525 0.46007 0.58333 0.0
C1200 C 0.92387 0.84835 0.8446 0.0
C1201 C 0.93094 0.82873 0.87992 0.0
C1202 C 0.94006 0.86014 0.80513 0.0
C1203 C 0.96393 0.85275 0.804 0.0
C1204 C 0.97063 0.83196 0.83614 0.0
C1205 C 0.95391 0.81997 0.87266 0.0
C1206 C 0.93211 0.88156 0.76868 0.0
C1207 C 0.99604 0.82394 0.83856 0.0
C1208 C 0.01254 0.87854 0.70119 0.0
C1209 C 0.02176 0.89614 0.74091 0.0
C1210 C 0.99293 0.86487 0.71968 0.0
C1211 C 0.98267 0.86872 0.77966 0.0
C1212 C 0.99197 0.88643 0.81998 0.0
C1213 C 0.01126 0.89999 0.7999 0.0
C1214 C 0.98309 0.84648 0.67508 0.0
C1215 C 0.98223 0.89039 0.8856 0.0
H1216 H 0.90614 0.85516 0.85045 0.0
H1217 H 0.95959 0.80507 0.90092 0.0
H1218 H 0.93805 0.89785 0.79325 0.0
H1219 H 0.94008 0.88168 0.7208 0.0
H1220 H 0.91258 0.88213 0.76423 0.0
H1221 H 0.99781 0.80612 0.86001 0.0
H1222 H 1.00396 0.82353 0.79075 0.0
H1223 H 1.0065 0.83667 0.86717 0.0
H1224 H 0.0205 0.8756 0.65541 0.0
H1225 H 0.01867 0.91315 0.83152 0.0
H1226 H 0.9648 0.85133 0.66177 0.0
H1227 H 0.98208 0.82895 0.69829 0.0
H1228 H 0.99386 0.84479 0.63147 0.0
H1229 H 0.96332 0.89525 0.88309 0.0
H1230 H 0.99183 0.90461 0.91133 0.0
H1231 H 0.98343 0.87384 0.91347 0.0
C1232 C 0.72753 0.94472 0.86287 0.0
C1233 C 0.7156 0.92376 0.87986 0.0
C1234 C 0.7161 0.96255 0.82933 0.0
C1235 C 0.69242 0.95903 0.81067 0.0
C1236 C 0.68176 0.93648 0.81793 0.0
C1237 C 0.69339 0.9191 0.85337 0.0
C1238 C 0.7282 0.98629 0.8227 0.0
C1239 C 0.65704 0.93167 0.79474 0.0
C1240 C 0.65022 1.00943 0.83929 0.0
C1241 C 0.64819 0.01928 0.77908 0.0
C1242 C 0.6651 0.99022 0.85013 0.0
C1243 C 0.67747 0.97999 0.79877 0.0
C1244 C 0.67597 0.99029 0.73809 0.0
C1245 C 0.66184 1.01033 0.72952 0.0
C1246 C 0.6672 0.98065 0.91647 0.0
C1247 C 0.68803 0.97949 0.68154 0.0
H1248 H 0.74475 0.9487 0.88252 0.0
H1249 H 0.68426 0.90277 0.86494 0.0
H1250 H 0.7248 0.99416 0.77573 0.0
H1251 H 0.72106 0.99857 0.8588 0.0
H1252 H 0.7476 0.98501 0.82959 0.0
H1253 H 0.65347 0.9124 0.79052 0.0
H1254 H 0.64414 0.93921 0.82858 0.0
H1255 H 0.65411 0.94017 0.74824 0.0
H1256 H 0.63987 0.01662 0.87779 0.0
H1257 H 0.66062 0.01837 0.68343 0.0
H1258 H 0.68606 0.97934 0.9302 0.0
H1259 H 0.65948 0.9626 0.91877 0.0
H1260 H 0.65799 0.9919 0.95161 0.0
H1261 H 0.70585 0.97283 0.69343 0.0
H1262 H 0.6896 0.99228 0.64198 0.0
H1263 H 0.67736 0.96418 0.66496 0.0
C1264 C 0.59474 0.70837 0.81474 0.0
C1265 C 0.6076 0.69905 0.86565 0.0
C1266 C 0.58057 0.69363 0.77719 0.0
C1267 C 0.57885 0.66935 0.7923 0.0
C1268 C 0.59538 0.65941 0.83449 0.0
C1269 C 0.61017 0.67444 0.86945 0.0
C1270 C 0.56448 0.70473 0.72903 0.0
C1271 C 0.59473 0.6336 0.85157 0.0
C1272 C 0.51514 0.65008 0.81116 0.0
C1273 C 0.51194 0.63519 0.7593 0.0
C1274 C 0.53707 0.66069 0.82297 0.0
C1275 C 0.5561 0.6569 0.7805 0.0
C1276 C 0.5529 0.64194 0.7276 0.0
C1277 C 0.53089 0.63086 0.71836 0.0
C1278 C 0.53976 0.67606 0.88098 0.0
C1279 C 0.57251 0.6378 0.68068 0.0
H1280 H 0.59307 0.7273 0.80902 0.0
H1281 H 0.62125 0.66694 0.90589 0.0
H1282 H 0.56108 0.69253 0.68901 0.0
H1283 H 0.54728 0.70884 0.75156 0.0
H1284 H 0.57211 0.72148 0.7105 0.0
H1285 H 0.58247 0.63113 0.89198 0.0
H1286 H 0.58841 0.62244 0.81205 0.0
H1287 H 0.61247 0.62745 0.8664 0.0
H1288 H 0.50049 0.65311 0.84313 0.0
H1289 H 0.5284 0.61915 0.67861 0.0
H1290 H 0.54311 0.69465 0.86671 0.0
H1291 H 0.55506 0.67019 0.90948 0.0
H1292 H 0.52378 0.67566 0.91144 0.0
H1293 H 0.57973 0.65493 0.66373 0.0
H1294 H 0.56646 0.62728 0.63937 0.0
H1295 H 0.5872 0.62823 0.70365 0.0
C1296 C 0.82395 0.60598 0.81392 0.0
C1297 C 0.83723 0.61139 0.86802 0.0
C1298 C 0.83403 0.59272 0.76501 0.0
C1299 C 0.85733 0.58445 0.77227 0.0
C1300 C 0.87208 0.59476 0.81876 0.0
C1301 C 0.86183 0.60885 0.86559 0.0
C1302 C 0.81876 0.58445 0.71108 0.0
C1303 C 0.89762 0.58773 0.8256 0.0
C1304 C 0.86568 0.51841 0.76402 0.0
C1305 C 0.88286 0.51657 0.71712 0.0
C1306 C 0.85622 0.54041 0.77997 0.0
C1307 C 0.86371 0.56093 0.74659 0.0
C1308 C 0.87951 0.55872 0.69528 0.0
C1309 C 0.88912 0.53648 0.68158 0.0
C1310 C 0.83993 0.54185 0.83648 0.0
C1311 C 0.88719 0.57966 0.65622 0.0
H1312 H 0.80503 0.60883 0.81373 0.0
H1313 H 0.87234 0.61421 0.90594 0.0
H1314 H 0.82946 0.58213 0.66756 0.0
H1315 H 0.81062 0.56714 0.72311 0.0
H1316 H 0.80432 0.59718 0.70166 0.0
H1317 H 0.89858 0.56937 0.84388 0.0
H1318 H 0.90671 0.58819 0.77925 0.0
H1319 H 0.90725 0.59956 0.85868 0.0
H1320 H 0.86124 0.50296 0.792 0.0
H1321 H 0.90247 0.53484 0.64539 0.0
H1322 H 0.82277 0.54959 0.8226 0.0
H1323 H 0.84784 0.55349 0.87304 0.0
H1324 H 0.83643 0.52427 0.85801 0.0
H1325 H 0.87745 0.57923 0.61092 0.0
H1326 H 0.90636 0.57862 0.64562 0.0
H1327 H 0.88362 0.59692 0.67898 0.0
C1328 C 0.03549 0.16738 0.9806 0.0
C1329 C 0.03117 0.19008 0.95615 0.0
C1330 C 0.03241 0.14677 0.94386 0.0
C1331 C 0.02514 0.14856 0.88005 0.0
C1332 C 0.02015 0.17138 0.85542 0.0
C1333 C 0.02305 0.19178 0.89373 0.0
C1334 C 0.03776 0.12308 0.97309 0.0
C1335 C 0.01245 0.17433 0.78781 0.0
C1336 C 0.04074 0.09685 0.76917 0.0
C1337 C 0.01937 0.08424 0.76561 0.0
C1338 C 0.04283 0.11779 0.80547 0.0
C1339 C 0.02304 0.12659 0.83934 0.0
C1340 C 1.0014 0.11387 0.83573 0.0
C1341 C 0.99981 0.0931 0.79885 0.0
C1342 C 0.06632 0.13045 0.80776 0.0
C1343 C 0.97993 0.12201 0.87175 0.0
H1344 H 0.04173 0.16576 0.02874 0.0
H1345 H 0.01991 0.20914 0.87399 0.0
H1346 H 0.02371 0.10999 0.96184 0.0
H1347 H 0.05454 0.11633 0.95326 0.0
H1348 H 0.03963 0.12422 0.02517 0.0
H1349 H 1.00861 0.19304 0.77596 0.0
H1350 H 0.02651 0.16785 0.75575 0.0
H1351 H 0.99641 0.16351 0.77859 0.0
H1352 H 0.05583 0.09051 0.74283 0.0
H1353 H 0.98318 0.08358 0.79672 0.0
H1354 H 0.07329 0.13011 0.85662 0.0
H1355 H 0.06412 0.14926 0.79432 0.0
H1356 H 0.07958 0.12228 0.77595 0.0
H1357 H 0.98387 0.12239 0.92302 0.0
H1358 H 0.96436 0.11034 0.86382 0.0
H1359 H 0.9753 0.14027 0.85756 0.0
C1360 C 0.35049 0.02603 0.93182 0.0
C1361 C 0.34028 0.04855 0.92846 0.0
C1362 C 0.36914 0.01948 0.89074 0.0
C1363 C 0.37819 0.03597 0.84602 0.0
C1364 C 0.36663 0.05798 0.83938 0.0
C1365 C 0.34776 0.0638 0.87983 0.0
C1366 C 0.38022 0.99549 0.89826 0.0
C1367 C 0.37559 0.07642 0.7936 0.0
C1368 C 0.44455 0.03496 0.8104 0.0
C1369 C 0.44562 0.02664 0.74797 0.0
C1370 C 0.42292 0.03802 0.84226 0.0
C1371 C 0.40138 0.03175 0.8124 0.0
C1372 C 0.40223 0.02268 0.74992 0.0
C1373 C 0.42418 0.02063 0.7182 0.0
C1374 C 0.42317 0.04835 0.908 0.0
C1375 C 0.37994 0.01502 0.71661 0.0
H1376 H 0.34509 0.01417 0.96937 0.0
H1377 H 0.34004 0.08126 0.87678 0.0
H1378 H 0.3841 0.98755 0.8515 0.0
H1379 H 0.3972 0.99733 0.92386 0.0
H1380 H 0.36864 0.98321 0.9253 0.0
H1381 H 0.36334 0.0916 0.7894 0.0
H1382 H 0.39299 0.08317 0.80992 0.0
H1383 H 0.37824 0.06864 0.74612 0.0
H1384 H 0.4607 0.03919 0.83493 0.0
H1385 H 0.42454 0.0139 0.67033 0.0
H1386 H 0.41557 0.03547 0.94192 0.0
H1387 H 0.41206 0.06443 0.90967 0.0
H1388 H 0.44127 0.05314 0.92387 0.0
H1389 H 0.36987 1.00243 0.7466 0.0
H1390 H 0.38364 1.0065 0.67045 0.0
H1391 H 0.36845 0.03053 0.70845 0.0
C1392 C 0.50389 0.34421 0.86593 0.0
C1393 C 0.49781 0.34512 0.93012 0.0
C1394 C 0.50827 0.36511 0.83084 0.0
C1395 C 0.50602 0.38764 0.85999 0.0
C1396 C 0.50084 0.3885 0.92551 0.0
C1397 C 0.49675 0.36736 0.95941 0.0
C1398 C 0.51416 0.3631 0.76163 0.0
C1399 C 0.49778 0.41174 0.95935 0.0
C1400 C 0.5308 0.44374 0.7804 0.0
C1401 C 0.51076 0.45331 0.75091 0.0
C1402 C 0.52959 0.42246 0.81527 0.0
C1403 C 0.50779 0.41018 0.82152 0.0
C1404 C 0.48752 0.41973 0.79161 0.0
C1405 C 0.48932 0.44089 0.75628 0.0
C1406 C 0.55168 0.41322 0.84611 0.0
C1407 C 0.46375 0.4078 0.79779 0.0
H1408 H 0.50404 0.3272 0.84238 0.0
H1409 H 0.49126 0.36831 1.00839 0.0
H1410 H 0.49933 0.37007 0.73315 0.0
H1411 H 0.53002 0.37393 0.75034 0.0
H1412 H 0.51748 0.34453 0.7472 0.0
H1413 H 0.49969 0.40973 1.01122 0.0
H1414 H 0.51063 0.42523 0.94267 0.0
H1415 H 0.47978 0.41842 0.94971 0.0
H1416 H 0.54753 0.45304 0.77672 0.0
H1417 H 0.47387 0.4477 0.73262 0.0
H1418 H 0.55513 0.3949 0.82999 0.0
H1419 H 0.54921 0.4126 0.89803 0.0
H1420 H 0.56742 0.42435 0.83546 0.0
H1421 H 0.46492 0.38901 0.7832 0.0
H1422 H 0.44998 0.41657 0.76893 0.0
H1423 H 0.4581 0.40809 0.84794 0.0
C1424 C 0.1779 0.52098 0.90288 0.0
C1425 C 0.18428 0.49822 0.92365 0.0
C1426 C 0.15785 0.52464 0.86414 0.0
C1427 C 0.14293 0.50535 0.84765 0.0
C1428 C 0.14965 0.48234 0.8664 0.0
C1429 C 0.17039 0.47903 0.90202 0.0
C1430 C 0.15243 0.54927 0.84138 0.0
C1431 C 0.13461 0.4611 0.84979 0.0
C1432 C 0.07747 0.51784 0.81536 0.0
C1433 C 0.07526 0.51344 0.75038 0.0
C1434 C 0.09919 0.51525 0.84715 0.0
C1435 C 0.11986 0.50908 0.81307 0.0
C1436 C 0.11791 0.50521 0.74696 0.0
C1437 C 0.09569 0.50715 0.71688 0.0
C1438 C 0.09972 0.51812 0.91795 0.0
C1439 C 0.13913 0.49936 0.70683 0.0
H1440 H 0.18814 0.53616 0.91806 0.0
H1441 H 0.17539 0.46114 0.91379 0.0
H1442 H 0.14921 0.54907 0.78971 0.0
H1443 H 0.13611 0.55577 0.8644 0.0
H1444 H 0.16701 0.56191 0.85172 0.0
H1445 H 0.14138 0.44452 0.87099 0.0
H1446 H 0.11623 0.46384 0.86632 0.0
H1447 H 0.134 0.45888 0.7978 0.0
H1448 H 0.06205 0.52311 0.8419 0.0
H1449 H 0.0943 0.50335 0.66711 0.0
H1450 H 0.11392 0.53055 0.93229 0.0
H1451 H 0.10359 0.50077 0.94 0.0
H1452 H 0.08269 0.52467 0.93704 0.0
H1453 H 0.14572 0.51588 0.68454 0.0
H1454 H 0.13421 0.48689 0.66854 0.0
H1455 H 0.15384 0.49157 0.73405 0.0
C1456 C 0.96888 0.87539 0.38838 0.0
C1457 C 0.9857 0.85717 0.38286 0.0
C1458 C 0.9726 0.89534 0.42719 0.0
C1459 C 0.99334 0.89718 0.46415 0.0
C1460 C 0.00992 0.87839 0.46153 0.0
C1461 C 1.00604 0.85883 0.42076 0.0
C1462 C 0.95463 0.91495 0.42654 0.0
C1463 C 0.03224 0.87926 0.50019 0.0
C1464 C 0.01318 0.95943 0.51489 0.0
C1465 C 1.00428 0.96122 0.57662 0.0
C1466 C 0.01016 0.93871 0.47856 0.0
C1467 C 0.99778 0.91902 0.50399 0.0
C1468 C 0.98874 0.92078 0.56645 0.0
C1469 C 0.99238 0.94162 0.60221 0.0
C1470 C 0.01975 0.93815 0.41212 0.0
C1471 C 0.9743 0.90101 0.59469 0.0
H1472 H 0.95262 0.87429 0.36171 0.0
H1473 H 0.0193 0.84516 0.41746 0.0
H1474 H 0.94897 0.91938 0.47519 0.0
H1475 H 0.96278 0.93111 0.40614 0.0
H1476 H 0.93874 0.91034 0.39834 0.0
H1477 H 0.04034 0.86151 0.5049 0.0
H1478 H 0.04521 0.89115 0.47682 0.0
H1479 H 0.02879 0.88646 0.54797 0.0
H1480 H 0.02262 0.97435 0.49479 0.0
H1481 H 0.9852 0.94286 0.64953 0.0
H1482 H 1.00505 0.93547 0.37824 0.0
H1483 H 0.03201 0.92307 0.40652 0.0
H1484 H 0.02925 0.95472 0.39946 0.0
H1485 H 0.95649 0.90079 0.57306 0.0
H1486 H 0.97207 0.90312 0.64644 0.0
H1487 H 0.98256 0.88372 0.58442 0.0
C1488 C 0.66282 0.97665 0.38099 0.0
C1489 C 0.6759 0.99571 0.35581 0.0
C1490 C 0.64241 0.98014 0.41798 0.0
C1491 C 0.63458 1.00335 0.43133 0.0
C1492 C 0.64812 0.02275 0.40829 0.0
C1493 C 0.6685 0.01874 0.37085 0.0
C1494 C 0.62926 0.95888 0.4433 0.0
C1495 C 0.64096 0.04777 0.42304 0.0
C1496 C 0.56921 1.0098 0.47752 0.0
C1497 C 0.57018 1.01111 0.54373 0.0
C1498 C 0.58995 1.00802 0.44057 0.0
C1499 C 0.61242 1.00706 0.47009 0.0
C1500 C 0.61343 1.00835 0.53693 0.0
C1501 C 0.59249 1.0108 0.57261 0.0
C1502 C 0.58776 1.00673 0.36973 0.0
C1503 C 0.63652 1.00709 0.5719 0.0
H1504 H 0.66856 0.95874 0.37171 0.0
H1505 H 0.67829 0.03368 0.35208 0.0
H1506 H 0.62898 0.95951 0.49565 0.0
H1507 H 0.61065 0.95914 0.42699 0.0
H1508 H 0.63738 0.94195 0.42828 0.0
H1509 H 0.65314 0.061 0.40175 0.0
H1510 H 0.62282 0.05102 0.40538 0.0
H1511 H 0.64065 0.05041 0.47494 0.0
H1512 H 0.55217 1.01023 0.45435 0.0
H1513 H 0.59364 0.01187 0.6236 0.0
H1514 H 0.59433 0.9894 0.35277 0.0
H1515 H 0.59887 0.02064 0.34749 0.0
H1516 H 0.56924 1.00891 0.3536 0.0
H1517 H 0.63397 0.99806 0.61793 0.0
H1518 H 0.64288 0.02536 0.58107 0.0
H1519 H 0.65041 0.99756 0.54539 0.0
C1520 C 0.51191 0.66511 0.3632 0.0
C1521 C 0.52616 0.68473 0.37831 0.0
C1522 C 0.50901 0.64593 0.40536 0.0
C1523 C 0.52072 0.64605 0.46459 0.0
C1524 C 0.53386 0.66654 0.4818 0.0
C1525 C 0.53661 0.68543 0.43839 0.0
C1526 C 0.49468 0.62477 0.38453 0.0
C1527 C 0.54653 0.66784 0.54424 0.0
C1528 C 0.50377 0.59746 0.58466 0.0
C1529 C 0.52134 0.58042 0.57456 0.0
C1530 C 0.5036 0.61906 0.55082 0.0
C1531 C 0.52127 0.62384 0.50476 0.0
C1532 C 0.53916 0.60671 0.49501 0.0
C1533 C 0.53895 0.58539 0.52973 0.0
C1534 C 0.48448 0.63678 0.56454 0.0
C1535 C 0.55837 0.61063 0.44664 0.0
H1536 H 0.50434 0.66402 0.31632 0.0
H1537 H 0.54826 0.70007 0.44992 0.0
H1538 H 0.5066 0.60954 0.37656 0.0
H1539 H 0.48193 0.61956 0.42189 0.0
H1540 H 0.4848 0.62821 0.34027 0.0
H1541 H 0.55225 0.68616 0.55569 0.0
H1542 H 0.53511 0.66115 0.58297 0.0
H1543 H 0.56244 0.6565 0.5423 0.0
H1544 H 0.48984 0.59369 0.61821 0.0
H1545 H 0.5527 0.57253 0.52176 0.0
H1546 H 0.47595 0.64261 0.52015 0.0
H1547 H 0.49243 0.65265 0.58704 0.0
H1548 H 0.4707 0.62953 0.59661 0.0
H1549 H 0.55052 0.61063 0.3987 0.0
H1550 H 0.57216 0.59677 0.44858 0.0
H1551 H 0.56695 0.6281 0.45388 0.0
C1552 C 0.84708 0.52703 0.41751 0.0
C1553 C 0.85289 0.53002 0.3534 0.0
C1554 C 0.86479 0.52732 0.46508 0.0
C1555 C 0.88904 0.53008 0.44847 0.0
C1556 C 0.89485 0.53351 0.38417 0.0
C1557 C 0.87687 0.53428 0.33857 0.0
C1558 C 0.85753 0.52508 0.5333 0.0
C1559 C 0.92009 0.53662 0.36222 0.0
C1560 C 0.93864 0.54869 0.56249 0.0
C1561 C 0.94884 0.52694 0.57848 0.0
C1562 C 0.91891 0.55002 0.5217 0.0
C1563 C 0.90848 0.52903 0.49729 0.0
C1564 C 0.91838 0.50699 0.5146 0.0
C1565 C 0.93818 0.50622 0.55491 0.0
C1566 C 0.90978 0.574 0.50293 0.0
C1567 C 0.90891 0.48415 0.48752 0.0
H1568 H 0.8288 0.52418 0.43064 0.0
H1569 H 0.88196 0.53819 0.29041 0.0
H1570 H 0.86746 0.51072 0.55675 0.0
H1571 H 0.86192 0.54175 0.55833 0.0
H1572 H 0.83831 0.52154 0.53869 0.0
H1573 H 0.9224 0.52993 0.31331 0.0
H1574 H 0.9245 0.55573 0.36177 0.0
H1575 H 0.93291 0.52744 0.39305 0.0
H1576 H 0.94605 0.56474 0.58199 0.0
H1577 H 0.94571 0.48922 0.56662 0.0
H1578 H 0.89019 0.5741 0.50199 0.0
H1579 H 0.91606 0.57828 0.45471 0.0
H1580 H 0.91616 0.58816 0.53505 0.0
H1581 H 0.88974 0.48243 0.49735 0.0
H1582 H 0.91803 0.46841 0.5069 0.0
H1583 H 0.91118 0.48427 0.43547 0.0
loop_
_geom_bond_atom_site_label_1
_geom_bond_atom_site_label_2
_geom_bond_distance
_geom_bond_site_symmetry_2
_ccdc_geom_bond_type
C0 C1 1.391 . S
C0 C4 1.391 . S
C0 H42 0.948 . S
C1 C0 1.391 . S
C1 C2 1.391 . S
C2 C1 1.391 . S
C2 H58 0.947 . S
C2 C59 1.392 . S
C3 C4 1.391 . S
C3 C7 1.397 . S
C3 C59 1.419 . S
C4 C0 1.391 . S
C4 C3 1.391 . S
C4 C5 1.399 . S
C5 C4 1.399 . S
C5 C8 1.396 . S
C5 C17 1.453 . S
C5 C18 1.684 . S
H6 C30 0.948 . S
C7 C3 1.397 . S
C7 C8 1.394 . S
C7 C26 1.723 . S
C8 C5 1.396 . S
C8 C7 1.394 . S
C8 C38 1.723 . S
H9 C32 0.947 . S
H10 C33 0.948 . S
H11 C39 0.982 . S
H12 C40 0.979 . S
H13 C40 0.980 . S
H14 C40 0.983 . S
H15 C39 0.979 . S
H16 C39 0.977 . S
C17 C5 1.453 . S
C17 H46 0.982 . S
C17 H47 0.979 . S
C17 H48 0.977 . S
C18 C5 1.684 . S
C18 H43 0.979 . S
C18 H44 0.980 . S
C18 H45 0.983 . S
C19 C20 1.391 . S
C19 C24 1.391 . S
C19 H49 0.948 . S
C20 C19 1.391 . S
C20 C21 1.391 . S
C21 C20 1.391 . S
C21 C22 1.392 . S
C21 H50 0.947 1_554 S
C22 C21 1.392 . S
C22 C23 1.419 . S
C22 H51 0.948 . S
C23 C22 1.419 . S
C23 C24 1.391 . S
C23 C27 1.397 . S
C24 C19 1.391 . S
C24 C23 1.391 . S
C24 C25 1.399 . S
C25 C24 1.399 . S
C25 C26 1.396 . S
C25 C28 1.453 . S
C25 C29 1.684 . S
C26 C7 1.723 . S
C26 C25 1.396 . S
C26 C27 1.394 . S
C27 C23 1.397 . S
C27 C26 1.394 . S
C27 C37 1.723 . S
C28 C25 1.453 . S
C28 H52 0.982 . S
C28 H53 0.979 . S
C28 H54 0.977 . S
C29 C25 1.684 . S
C29 H55 0.979 . S
C29 H56 0.980 . S
C29 H57 0.983 . S
C30 H6 0.948 . S
C30 C31 1.391 . S
C30 C35 1.391 . S
C31 C30 1.391 . S
C31 C32 1.391 . S
C32 H9 0.947 . S
C32 C31 1.391 . S
C32 C33 1.392 . S
C33 H10 0.948 . S
C33 C32 1.392 . S
C33 C34 1.419 . S
C34 C33 1.419 . S
C34 C35 1.391 . S
C34 C38 1.397 . S
C35 C30 1.391 . S
C35 C34 1.391 . S
C35 C36 1.399 . S
C36 C35 1.399 . S
C36 C37 1.396 . S
C36 C39 1.453 . S
C36 C40 1.684 . S
C37 C27 1.723 . S
C37 C36 1.396 . S
C37 C38 1.394 . S
C38 C8 1.723 . S
C38 C34 1.397 . S
C38 C37 1.394 . S
C39 H11 0.982 . S
C39 H15 0.979 . S
C39 H16 0.977 . S
C39 C36 1.453 . S
C40 H12 0.979 . S
C40 H13 0.980 . S
C40 H14 0.983 . S
C40 C36 1.684 . S
H41 C59 0.948 . S
H42 C0 0.948 . S
H43 C18 0.979 . S
H44 C18 0.980 . S
H45 C18 0.983 . S
H46 C17 0.982 . S
H47 C17 0.979 . S
H48 C17 0.977 . S
H49 C19 0.948 . S
H50 C21 0.947 1_556 S
H51 C22 0.948 . S
H52 C28 0.982 . S
H53 C28 0.979 . S
H54 C28 0.977 . S
H55 C29 0.979 . S
H56 C29 0.980 . S
H57 C29 0.983 . S
H58 C2 0.947 . S
C59 C2 1.392 . S
C59 C3 1.419 . S
C59 H41 0.948 . S
C60 C61 1.391 . S
C60 C64 1.391 . S
C60 H102 0.948 . S
C61 C60 1.391 . S
C61 C62 1.391 . S
C62 C61 1.391 . S
C62 H118 0.947 . S
C62 C119 1.392 . S
C63 C64 1.391 . S
C63 C67 1.397 . S
C63 C119 1.419 . S
C64 C60 1.391 . S
C64 C63 1.391 . S
C64 C65 1.399 . S
C65 C64 1.399 . S
C65 C68 1.396 . S
C65 C77 1.453 . S
C65 C78 1.684 . S
H66 C90 0.948 . S
C67 C63 1.397 . S
C67 C68 1.394 . S
C67 C86 1.723 . S
C68 C65 1.396 . S
C68 C67 1.394 . S
C68 C98 1.723 . S
H69 C92 0.947 . S
H70 C93 0.948 . S
H71 C99 0.982 . S
H72 C100 0.979 . S
H73 C100 0.980 . S
H74 C100 0.983 . S
H75 C99 0.979 . S
H76 C99 0.977 . S
C77 C65 1.453 . S
C77 H106 0.982 . S
C77 H107 0.979 . S
C77 H108 0.977 . S
C78 C65 1.684 . S
C78 H103 0.979 . S
C78 H104 0.980 . S
C78 H105 0.983 . S
C79 C80 1.391 . S
C79 C84 1.391 . S
C79 H109 0.948 . S
C80 C79 1.391 . S
C80 C81 1.391 . S
C81 C80 1.391 . S
C81 C82 1.392 . S
C81 H110 0.947 . S
C82 C81 1.392 . S
C82 C83 1.419 . S
C82 H111 0.948 . S
C83 C82 1.419 . S
C83 C84 1.391 . S
C83 C87 1.397 . S
C84 C79 1.391 . S
C84 C83 1.391 . S
C84 C85 1.399 . S
C85 C84 1.399 . S
C85 C86 1.396 . S
C85 C88 1.453 . S
C85 C89 1.684 . S
C86 C67 1.723 . S
C86 C85 1.396 . S
C86 C87 1.394 . S
C87 C83 1.397 . S
C87 C86 1.394 . S
C87 C97 1.723 . S
C88 C85 1.453 . S
C88 H112 0.982 . S
C88 H113 0.979 . S
C88 H114 0.977 . S
C89 C85 1.684 . S
C89 H115 0.979 . S
C89 H116 0.980 . S
C89 H117 0.983 . S
C90 H66 0.948 . S
C90 C91 1.391 . S
C90 C95 1.391 . S
C91 C90 1.391 . S
C91 C92 1.391 . S
C92 H69 0.947 . S
C92 C91 1.391 . S
C92 C93 1.392 . S
C93 H70 0.948 . S
C93 C92 1.392 . S
C93 C94 1.419 . S
C94 C93 1.419 . S
C94 C95 1.391 . S
C94 C98 1.397 . S
C95 C90 1.391 . S
C95 C94 1.391 . S
C95 C96 1.399 . S
C96 C95 1.399 . S
C96 C97 1.396 . S
C96 C99 1.453 . S
C96 C100 1.684 . S
C97 C87 1.723 . S
C97 C96 1.396 . S
C97 C98 1.394 . S
C98 C68 1.723 . S
C98 C94 1.397 . S
C98 C97 1.394 . S
C99 H71 0.982 . S
C99 H75 0.979 . S
C99 H76 0.977 . S
C99 C96 1.453 . S
C100 H72 0.979 . S
C100 H73 0.980 . S
C100 H74 0.983 . S
C100 C96 1.684 . S
H101 C119 0.948 . S
H102 C60 0.948 . S
H103 C78 0.979 . S
H104 C78 0.980 . S
H105 C78 0.983 . S
H106 C77 0.982 . S
H107 C77 0.979 . S
H108 C77 0.977 . S
H109 C79 0.948 . S
H110 C81 0.947 . S
H111 C82 0.948 . S
H112 C88 0.982 . S
H113 C88 0.979 . S
H114 C88 0.977 . S
H115 C89 0.979 . S
H116 C89 0.980 . S
H117 C89 0.983 . S
H118 C62 0.947 . S
C119 C62 1.392 . S
C119 C63 1.419 . S
C119 H101 0.948 . S
C120 C121 1.391 . S
C120 C124 1.391 . S
C120 H162 0.948 . S
C121 C120 1.391 . S
C121 C122 1.391 . S
C122 C121 1.391 . S
C122 H178 0.947 . S
C122 C179 1.392 . S
C123 C124 1.391 . S
C123 C127 1.397 . S
C123 C179 1.419 . S
C124 C120 1.391 . S
C124 C123 1.391 . S
C124 C125 1.399 . S
C125 C124 1.399 . S
C125 C128 1.396 . S
C125 C137 1.453 . S
C125 C138 1.684 . S
H126 C150 0.948 . S
C127 C123 1.397 . S
C127 C128 1.394 . S
C127 C146 1.723 . S
C128 C125 1.396 . S
C128 C127 1.394 . S
C128 C158 1.723 . S
H129 C152 0.947 . S
H130 C153 0.948 . S
H131 C159 0.971 1_545 S
H132 C160 0.979 . S
H133 C160 0.980 . S
H134 C160 0.983 . S
H135 C159 0.979 . S
H136 C159 0.977 . S
C137 C125 1.453 . S
C137 H166 0.971 1_565 S
C137 H167 0.979 . S
C137 H168 0.977 . S
C138 C125 1.684 . S
C138 H163 0.979 . S
C138 H164 0.980 . S
C138 H165 0.983 . S
C139 C140 1.391 . S
C139 C144 1.391 . S
C139 H169 0.948 . S
C140 C139 1.391 . S
C140 C141 1.391 . S
C141 C140 1.391 . S
C141 C142 1.392 . S
C141 H170 0.947 . S
C142 C141 1.392 . S
C142 C143 1.419 . S
C142 H171 0.948 . S
C143 C142 1.419 . S
C143 C144 1.391 . S
C143 C147 1.397 . S
C144 C139 1.391 . S
C144 C143 1.391 . S
C144 C145 1.399 . S
C145 C144 1.399 . S
C145 C146 1.396 . S
C145 C148 1.453 . S
C145 C149 1.684 . S
C146 C127 1.723 . S
C146 C145 1.396 . S
C146 C147 1.394 . S
C147 C143 1.397 . S
C147 C146 1.394 . S
C147 C157 1.723 . S
C148 C145 1.453 . S
C148 H172 0.971 1_565 S
C148 H173 0.979 . S
C148 H174 0.977 . S
C149 C145 1.684 . S
C149 H175 0.979 . S
C149 H176 0.980 . S
C149 H177 0.983 . S
C150 H126 0.948 . S
C150 C151 1.391 . S
C150 C155 1.391 . S
C151 C150 1.391 . S
C151 C152 1.391 . S
C152 H129 0.947 . S
C152 C151 1.391 . S
C152 C153 1.392 . S
C153 H130 0.948 . S
C153 C152 1.392 . S
C153 C154 1.419 . S
C154 C153 1.419 . S
C154 C155 1.391 . S
C154 C158 1.397 . S
C155 C150 1.391 . S
C155 C154 1.391 . S
C155 C156 1.399 . S
C156 C155 1.399 . S
C156 C157 1.396 . S
C156 C159 1.453 . S
C156 C160 1.684 . S
C157 C147 1.723 . S
C157 C156 1.396 . S
C157 C158 1.394 . S
C158 C128 1.723 . S
C158 C154 1.397 . S
C158 C157 1.394 . S
C159 H131 0.971 1_565 S
C159 H135 0.979 . S
C159 H136 0.977 . S
C159 C156 1.453 . S
C160 H132 0.979 . S
C160 H133 0.980 . S
C160 H134 0.983 . S
C160 C156 1.684 . S
H161 C179 0.948 . S
H162 C120 0.948 . S
H163 C138 0.979 . S
H164 C138 0.980 . S
H165 C138 0.983 . S
H166 C137 0.971 1_545 S
H167 C137 0.979 . S
H168 C137 0.977 . S
H169 C139 0.948 . S
H170 C141 0.947 . S
H171 C142 0.948 . S
H172 C148 0.971 1_545 S
H173 C148 0.979 . S
H174 C148 0.977 . S
H175 C149 0.979 . S
H176 C149 0.980 . S
H177 C149 0.983 . S
H178 C122 0.947 . S
C179 C122 1.392 . S
C179 C123 1.419 . S
C179 H161 0.948 . S
C180 C181 1.391 . S
C180 C184 1.391 . S
C180 H222 0.948 . S
C181 C180 1.391 . S
C181 C182 1.391 . S
C182 C181 1.391 . S
C182 H238 0.947 . S
C182 C239 1.392 . S
C183 C184 1.391 . S
C183 C187 1.397 . S
C183 C239 1.419 . S
C184 C180 1.391 . S
C184 C183 1.391 . S
C184 C185 1.399 . S
C185 C184 1.399 . S
C185 C188 1.396 . S
C185 C197 1.453 . S
C185 C198 1.684 . S
H186 C210 0.948 . S
C187 C183 1.397 . S
C187 C188 1.394 . S
C187 C206 1.723 . S
C188 C185 1.396 . S
C188 C187 1.394 . S
C188 C218 1.723 . S
H189 C212 0.947 . S
H190 C213 0.948 . S
H191 C219 0.982 . S
H192 C220 0.979 . S
H193 C220 0.980 . S
H194 C220 0.983 . S
H195 C219 0.979 . S
H196 C219 0.977 . S
C197 C185 1.453 . S
C197 H226 0.982 . S
C197 H227 0.979 . S
C197 H228 0.977 . S
C198 C185 1.684 . S
C198 H223 0.979 . S
C198 H224 0.980 . S
C198 H225 0.983 . S
C199 C200 1.391 . S
C199 C204 1.391 . S
C199 H229 0.948 . S
C200 C199 1.391 . S
C200 C201 1.391 . S
C201 C200 1.391 . S
C201 C202 1.392 . S
C201 H230 0.947 1_554 S
C202 C201 1.392 . S
C202 C203 1.419 . S
C202 H231 0.948 . S
C203 C202 1.419 . S
C203 C204 1.391 . S
C203 C207 1.397 . S
C204 C199 1.391 . S
C204 C203 1.391 . S
C204 C205 1.399 . S
C205 C204 1.399 . S
C205 C206 1.396 . S
C205 C208 1.453 . S
C205 C209 1.684 . S
C206 C187 1.723 . S
C206 C205 1.396 . S
C206 C207 1.394 . S
C207 C203 1.397 . S
C207 C206 1.394 . S
C207 C217 1.723 . S
C208 C205 1.453 . S
C208 H232 0.982 . S
C208 H233 0.979 . S
C208 H234 0.977 . S
C209 C205 1.684 . S
C209 H235 0.979 . S
C209 H236 0.980 . S
C209 H237 0.983 . S
C210 H186 0.948 . S
C210 C211 1.391 . S
C210 C215 1.391 . S
C211 C210 1.391 . S
C211 C212 1.391 . S
C212 H189 0.947 . S
C212 C211 1.391 . S
C212 C213 1.392 . S
C213 H190 0.948 . S
C213 C212 1.392 . S
C213 C214 1.419 . S
C214 C213 1.419 . S
C214 C215 1.391 . S
C214 C218 1.397 . S
C215 C210 1.391 . S
C215 C214 1.391 . S
C215 C216 1.399 . S
C216 C215 1.399 . S
C216 C217 1.396 . S
C216 C219 1.453 . S
C216 C220 1.684 . S
C217 C207 1.723 . S
C217 C216 1.396 . S
C217 C218 1.394 . S
C218 C188 1.723 . S
C218 C214 1.397 . S
C218 C217 1.394 . S
C219 H191 0.982 . S
C219 H195 0.979 . S
C219 H196 0.977 . S
C219 C216 1.453 . S
C220 H192 0.979 . S
C220 H193 0.980 . S
C220 H194 0.983 . S
C220 C216 1.684 . S
H221 C239 0.948 . S
H222 C180 0.948 . S
H223 C198 0.979 . S
H224 C198 0.980 . S
H225 C198 0.983 . S
H226 C197 0.982 . S
H227 C197 0.979 . S
H228 C197 0.977 . S
H229 C199 0.948 . S
H230 C201 0.947 1_556 S
H231 C202 0.948 . S
H232 C208 0.982 . S
H233 C208 0.979 . S
H234 C208 0.977 . S
H235 C209 0.979 . S
H236 C209 0.980 . S
H237 C209 0.983 . S
H238 C182 0.947 . S
C239 C182 1.392 . S
C239 C183 1.419 . S
C239 H221 0.948 . S
C240 C241 1.391 . S
C240 C244 1.391 . S
C240 H282 0.948 . S
C241 C240 1.391 . S
C241 C242 1.391 . S
C242 C241 1.391 . S
C242 H298 0.947 . S
C242 C299 1.392 . S
C243 C244 1.391 . S
C243 C247 1.397 . S
C243 C299 1.419 . S
C244 C240 1.391 . S
C244 C243 1.391 . S
C244 C245 1.399 1_554 S
C245 C244 1.399 1_556 S
C245 C248 1.396 1_556 S
C245 C257 1.453 . S
C245 C258 1.684 . S
H246 C270 0.948 . S
C247 C243 1.397 . S
C247 C248 1.394 . S
C247 C266 1.723 . S
C248 C245 1.396 1_554 S
C248 C247 1.394 . S
C248 C278 1.723 1_554 S
H249 C272 0.947 . S
H250 C273 0.948 . S
H251 C279 0.982 . S
H252 C280 0.979 . S
H253 C280 0.980 1_554 S
H254 C280 0.983 . S
H255 C279 0.979 . S
H256 C279 0.977 1_554 S
C257 C245 1.453 . S
C257 H286 0.982 . S
C257 H287 0.979 . S
C257 H288 0.977 . S
C258 C245 1.684 . S
C258 H283 0.979 . S
C258 H284 0.980 . S
C258 H285 0.983 . S
C259 C260 1.391 . S
C259 C264 1.391 . S
C259 H289 0.948 . S
C260 C259 1.391 . S
C260 C261 1.391 . S
C261 C260 1.391 . S
C261 C262 1.392 . S
C261 H290 0.947 . S
C262 C261 1.392 . S
C262 C263 1.419 . S
C262 H291 0.948 . S
C263 C262 1.419 . S
C263 C264 1.391 . S
C263 C267 1.397 . S
C264 C259 1.391 . S
C264 C263 1.391 . S
C264 C265 1.399 . S
C265 C264 1.399 . S
C265 C266 1.396 . S
C265 C268 1.453 . S
C265 C269 1.684 . S
C266 C247 1.723 . S
C266 C265 1.396 . S
C266 C267 1.394 . S
C267 C263 1.397 . S
C267 C266 1.394 . S
C267 C277 1.723 . S
C268 C265 1.453 . S
C268 H292 0.982 . S
C268 H293 0.979 . S
C268 H294 0.977 . S
C269 C265 1.684 . S
C269 H295 0.979 . S
C269 H296 0.980 . S
C269 H297 0.983 . S
C270 H246 0.948 . S
C270 C271 1.391 . S
C270 C275 1.391 . S
C271 C270 1.391 . S
C271 C272 1.391 . S
C272 H249 0.947 . S
C272 C271 1.391 . S
C272 C273 1.392 . S
C273 H250 0.948 . S
C273 C272 1.392 . S
C273 C274 1.419 . S
C274 C273 1.419 . S
C274 C275 1.391 . S
C274 C278 1.397 . S
C275 C270 1.391 . S
C275 C274 1.391 . S
C275 C276 1.399 . S
C276 C275 1.399 . S
C276 C277 1.396 1_556 S
C276 C279 1.453 . S
C276 C280 1.684 . S
C277 C267 1.723 . S
C277 C276 1.396 1_554 S
C277 C278 1.394 1_554 S
C278 C248 1.723 1_556 S
C278 C274 1.397 . S
C278 C277 1.394 1_556 S
C279 H251 0.982 . S
C279 H255 0.979 . S
C279 H256 0.977 1_556 S
C279 C276 1.453 . S
C280 H252 0.979 . S
C280 H253 0.980 1_556 S
C280 H254 0.983 . S
C280 C276 1.684 . S
H281 C299 0.948 . S
H282 C240 0.948 . S
H283 C258 0.979 . S
H284 C258 0.980 . S
H285 C258 0.983 . S
H286 C257 0.982 . S
H287 C257 0.979 . S
H288 C257 0.977 . S
H289 C259 0.948 . S
H290 C261 0.947 . S
H291 C262 0.948 . S
H292 C268 0.982 . S
H293 C268 0.979 . S
H294 C268 0.977 . S
H295 C269 0.979 . S
H296 C269 0.980 . S
H297 C269 0.983 . S
H298 C242 0.947 . S
C299 C242 1.392 . S
C299 C243 1.419 . S
C299 H281 0.948 . S
C300 C301 1.391 . S
C300 C304 1.391 . S
C300 H342 0.948 . S
C301 C300 1.391 . S
C301 C302 1.391 . S
C302 C301 1.391 . S
C302 H358 0.947 . S
C302 C359 1.392 . S
C303 C304 1.391 . S
C303 C307 1.397 . S
C303 C359 1.419 . S
C304 C300 1.391 . S
C304 C303 1.391 . S
C304 C305 1.399 . S
C305 C304 1.399 . S
C305 C308 1.396 . S
C305 C317 1.453 . S
C305 C318 1.684 . S
H306 C330 0.948 . S
C307 C303 1.397 . S
C307 C308 1.394 . S
C307 C326 1.723 . S
C308 C305 1.396 . S
C308 C307 1.394 . S
C308 C338 1.723 . S
H309 C332 0.947 . S
H310 C333 0.948 . S
H311 C339 0.982 . S
H312 C340 0.979 . S
H313 C340 0.980 . S
H314 C340 0.983 . S
H315 C339 0.979 . S
H316 C339 0.977 . S
C317 C305 1.453 . S
C317 H346 0.982 . S
C317 H347 0.979 . S
C317 H348 0.977 . S
C318 C305 1.684 . S
C318 H343 0.979 . S
C318 H344 0.980 . S
C318 H345 0.983 . S
C319 C320 1.391 . S
C319 C324 1.391 . S
C319 H349 0.948 . S
C320 C319 1.391 . S
C320 C321 1.391 . S
C321 C320 1.391 . S
C321 C322 1.392 . S
C321 H350 0.947 . S
C322 C321 1.392 . S
C322 C323 1.419 . S
C322 H351 0.948 . S
C323 C322 1.419 . S
C323 C324 1.391 . S
C323 C327 1.397 . S
C324 C319 1.391 . S
C324 C323 1.391 . S
C324 C325 1.399 . S
C325 C324 1.399 . S
C325 C326 1.396 1_556 S
C325 C328 1.453 . S
C325 C329 1.684 . S
C326 C307 1.723 . S
C326 C325 1.396 1_554 S
C326 C327 1.394 1_554 S
C327 C323 1.397 . S
C327 C326 1.394 1_556 S
C327 C337 1.723 1_556 S
C328 C325 1.453 . S
C328 H352 0.982 . S
C328 H353 0.979 . S
C328 H354 0.977 1_556 S
C329 C325 1.684 . S
C329 H355 0.979 . S
C329 H356 0.980 1_556 S
C329 H357 0.983 . S
C330 H306 0.948 . S
C330 C331 1.391 . S
C330 C335 1.391 . S
C331 C330 1.391 . S
C331 C332 1.391 . S
C332 H309 0.947 . S
C332 C331 1.391 . S
C332 C333 1.392 . S
C333 H310 0.948 . S
C333 C332 1.392 . S
C333 C334 1.419 . S
C334 C333 1.419 . S
C334 C335 1.391 . S
C334 C338 1.397 . S
C335 C330 1.391 . S
C335 C334 1.391 . S
C335 C336 1.399 1_554 S
C336 C335 1.399 1_556 S
C336 C337 1.396 1_556 S
C336 C339 1.453 . S
C336 C340 1.684 . S
C337 C327 1.723 1_554 S
C337 C336 1.396 1_554 S
C337 C338 1.394 . S
C338 C308 1.723 . S
C338 C334 1.397 . S
C338 C337 1.394 . S
C339 H311 0.982 . S
C339 H315 0.979 . S
C339 H316 0.977 . S
C339 C336 1.453 . S
C340 H312 0.979 . S
C340 H313 0.980 . S
C340 H314 0.983 . S
C340 C336 1.684 . S
H341 C359 0.948 . S
H342 C300 0.948 . S
H343 C318 0.979 . S
H344 C318 0.980 . S
H345 C318 0.983 . S
H346 C317 0.982 . S
H347 C317 0.979 . S
H348 C317 0.977 . S
H349 C319 0.948 . S
H350 C321 0.947 . S
H351 C322 0.948 . S
H352 C328 0.982 . S
H353 C328 0.979 . S
H354 C328 0.977 1_554 S
H355 C329 0.979 . S
H356 C329 0.980 1_554 S
H357 C329 0.983 . S
H358 C302 0.947 . S
C359 C302 1.392 . S
C359 C303 1.419 . S
C359 H341 0.948 . S
C360 C361 1.391 . S
C360 C364 1.391 . S
C360 H402 0.948 . S
C361 C360 1.391 . S
C361 C362 1.391 . S
C362 C361 1.391 . S
C362 H418 0.947 . S
C362 C419 1.392 . S
C363 C364 1.391 . S
C363 C367 1.397 . S
C363 C419 1.419 . S
C364 C360 1.391 . S
C364 C363 1.391 . S
C364 C365 1.399 . S
C365 C364 1.399 . S
C365 C368 1.396 . S
C365 C377 1.453 . S
C365 C378 1.684 . S
H366 C390 0.948 . S
C367 C363 1.397 . S
C367 C368 1.394 . S
C367 C386 1.723 1_556 S
C368 C365 1.396 . S
C368 C367 1.394 . S
C368 C398 1.723 1_556 S
H369 C392 0.947 . S
H370 C393 0.948 1_556 S
H371 C399 0.982 . S
H372 C400 0.979 . S
H373 C400 0.980 . S
H374 C400 0.983 . S
H375 C399 0.979 . S
H376 C399 0.977 . S
C377 C365 1.453 . S
C377 H406 0.982 . S
C377 H407 0.979 . S
C377 H408 0.977 . S
C378 C365 1.684 . S
C378 H403 0.979 . S
C378 H404 0.980 . S
C378 H405 0.983 . S
C379 C380 1.391 . S
C379 C384 1.391 . S
C379 H409 0.948 . S
C380 C379 1.391 . S
C380 C381 1.391 . S
C381 C380 1.391 . S
C381 C382 1.392 . S
C381 H410 0.947 . S
C382 C381 1.392 . S
C382 C383 1.419 . S
C382 H411 0.948 . S
C383 C382 1.419 . S
C383 C384 1.391 . S
C383 C387 1.397 . S
C384 C379 1.391 . S
C384 C383 1.391 . S
C384 C385 1.399 . S
C385 C384 1.399 . S
C385 C386 1.396 . S
C385 C388 1.453 . S
C385 C389 1.684 . S
C386 C367 1.723 1_554 S
C386 C385 1.396 . S
C386 C387 1.394 . S
C387 C383 1.397 . S
C387 C386 1.394 . S
C387 C397 1.723 . S
C388 C385 1.453 . S
C388 H412 0.982 . S
C388 H413 0.979 . S
C388 H414 0.977 1_554 S
C389 C385 1.684 . S
C389 H415 0.979 . S
C389 H416 0.980 1_554 S
C389 H417 0.983 . S
C390 H366 0.948 . S
C390 C391 1.391 . S
C390 C395 1.391 . S
C391 C390 1.391 . S
C391 C392 1.391 . S
C392 H369 0.947 . S
C392 C391 1.391 . S
C392 C393 1.392 . S
C393 H370 0.948 1_554 S
C393 C392 1.392 . S
C393 C394 1.419 . S
C394 C393 1.419 . S
C394 C395 1.391 . S
C394 C398 1.397 . S
C395 C390 1.391 . S
C395 C394 1.391 . S
C395 C396 1.399 . S
C396 C395 1.399 . S
C396 C397 1.396 . S
C396 C399 1.453 . S
C396 C400 1.684 . S
C397 C387 1.723 . S
C397 C396 1.396 . S
C397 C398 1.394 . S
C398 C368 1.723 1_554 S
C398 C394 1.397 . S
C398 C397 1.394 . S
C399 H371 0.982 . S
C399 H375 0.979 . S
C399 H376 0.977 . S
C399 C396 1.453 . S
C400 H372 0.979 . S
C400 H373 0.980 . S
C400 H374 0.983 . S
C400 C396 1.684 . S
H401 C419 0.948 . S
H402 C360 0.948 . S
H403 C378 0.979 . S
H404 C378 0.980 . S
H405 C378 0.983 . S
H406 C377 0.982 . S
H407 C377 0.979 . S
H408 C377 0.977 . S
H409 C379 0.948 . S
H410 C381 0.947 . S
H411 C382 0.948 . S
H412 C388 0.982 . S
H413 C388 0.979 . S
H414 C388 0.977 1_556 S
H415 C389 0.979 . S
H416 C389 0.980 1_556 S
H417 C389 0.983 . S
H418 C362 0.947 . S
C419 C362 1.392 . S
C419 C363 1.419 . S
C419 H401 0.948 . S
C420 C421 1.391 . S
C420 C424 1.391 . S
C420 H462 0.948 . S
C421 C420 1.391 . S
C421 C422 1.391 . S
C422 C421 1.391 . S
C422 H478 0.947 . S
C422 C479 1.392 . S
C423 C424 1.391 . S
C423 C427 1.397 . S
C423 C479 1.419 . S
C424 C420 1.391 . S
C424 C423 1.391 . S
C424 C425 1.399 . S
C425 C424 1.399 . S
C425 C428 1.396 . S
C425 C437 1.453 . S
C425 C438 1.684 . S
H426 C450 0.948 . S
C427 C423 1.397 . S
C427 C428 1.394 . S
C427 C446 1.723 1_556 S
C428 C425 1.396 . S
C428 C427 1.394 . S
C428 C458 1.723 1_556 S
H429 C452 0.947 1_556 S
H430 C453 0.948 1_556 S
H431 C459 0.982 . S
H432 C460 0.979 . S
H433 C460 0.980 . S
H434 C460 0.983 . S
H435 C459 0.979 . S
H436 C459 0.977 . S
C437 C425 1.453 . S
C437 H466 0.982 . S
C437 H467 0.979 . S
C437 H468 0.977 . S
C438 C425 1.684 . S
C438 H463 0.979 . S
C438 H464 0.980 . S
C438 H465 0.983 . S
C439 C440 1.391 . S
C439 C444 1.391 . S
C439 H469 0.948 . S
C440 C439 1.391 . S
C440 C441 1.391 . S
C441 C440 1.391 . S
C441 C442 1.392 . S
C441 H470 0.947 . S
C442 C441 1.392 . S
C442 C443 1.419 . S
C442 H471 0.948 . S
C443 C442 1.419 . S
C443 C444 1.391 . S
C443 C447 1.397 . S
C444 C439 1.391 . S
C444 C443 1.391 . S
C444 C445 1.399 . S
C445 C444 1.399 . S
C445 C446 1.396 . S
C445 C448 1.453 . S
C445 C449 1.684 . S
C446 C427 1.723 1_554 S
C446 C445 1.396 . S
C446 C447 1.394 . S
C447 C443 1.397 . S
C447 C446 1.394 . S
C447 C457 1.723 . S
C448 C445 1.453 . S
C448 H472 0.982 . S
C448 H473 0.979 . S
C448 H474 0.977 1_554 S
C449 C445 1.684 . S
C449 H475 0.979 . S
C449 H476 0.980 1_554 S
C449 H477 0.983 . S
C450 H426 0.948 . S
C450 C451 1.391 . S
C450 C455 1.391 . S
C451 C450 1.391 . S
C451 C452 1.391 . S
C452 H429 0.947 1_554 S
C452 C451 1.391 . S
C452 C453 1.392 . S
C453 H430 0.948 1_554 S
C453 C452 1.392 . S
C453 C454 1.419 . S
C454 C453 1.419 . S
C454 C455 1.391 . S
C454 C458 1.397 . S
C455 C450 1.391 . S
C455 C454 1.391 . S
C455 C456 1.399 . S
C456 C455 1.399 . S
C456 C457 1.396 . S
C456 C459 1.453 . S
C456 C460 1.684 . S
C457 C447 1.723 . S
C457 C456 1.396 . S
C457 C458 1.394 . S
C458 C428 1.723 1_554 S
C458 C454 1.397 . S
C458 C457 1.394 . S
C459 H431 0.982 . S
C459 H435 0.979 . S
C459 H436 0.977 . S
C459 C456 1.453 . S
C460 H432 0.979 . S
C460 H433 0.980 . S
C460 H434 0.983 . S
C460 C456 1.684 . S
H461 C479 0.948 . S
H462 C420 0.948 . S
H463 C438 0.979 . S
H464 C438 0.980 . S
H465 C438 0.983 . S
H466 C437 0.982 . S
H467 C437 0.979 . S
H468 C437 0.977 . S
H469 C439 0.948 . S
H470 C441 0.947 . S
H471 C442 0.948 . S
H472 C448 0.982 . S
H473 C448 0.979 . S
H474 C448 0.977 1_556 S
H475 C449 0.979 . S
H476 C449 0.980 1_556 S
H477 C449 0.983 . S
H478 C422 0.947 . S
C479 C422 1.392 . S
C479 C423 1.419 . S
C479 H461 0.948 . S
Eu480 N509 2.600 . S
Eu480 N515 2.562 . S
Eu480 O524 2.462 . S
Eu480 O525 2.373 1_545 S
Eu480 O527 2.432 . S
Eu480 O528 2.291 1_655 S
Eu480 O532 2.335 1_655 S
Eu480 O535 2.372 . S
Eu480 C544 2.787 . S
C481 N482 1.365 . S
C481 C484 1.405 . S
C481 C488 1.448 . S
N482 C481 1.365 . S
N482 C485 1.314 1_545 S
N482 Eu491 2.600 1_545 S
C483 C485 1.384 1_545 S
C483 C486 1.367 . S
C483 H503 0.931 . S
C484 C481 1.405 . S
C484 C486 1.403 . S
C484 C490 1.439 . S
C485 N482 1.314 1_565 S
C485 C483 1.384 1_565 S
C485 H496 0.951 . S
C486 C483 1.367 . S
C486 C484 1.403 . S
C486 H507 0.929 . S
C487 C488 1.430 . S
C487 C489 1.387 . S
C487 C493 1.404 . S
C488 C481 1.448 . S
C488 C487 1.430 . S
C488 N492 1.351 . S
C489 C487 1.387 . S
C489 C490 1.374 . S
C489 H504 0.931 . S
C490 C484 1.439 . S
C490 C489 1.374 . S
C490 H505 0.931 . S
Eu491 N482 2.600 1_565 S
Eu491 N492 2.562 1_565 S
Eu491 O526 2.335 . S
Eu491 O529 2.372 . S
Eu491 O530 2.462 . S
Eu491 O531 2.373 1_565 S
Eu491 O533 2.432 . S
Eu491 O534 2.291 1_465 S
Eu491 C555 2.787 . S
N492 C488 1.351 . S
N492 Eu491 2.562 1_545 S
N492 C494 1.325 . S
C493 C487 1.404 . S
C493 C495 1.366 . S
C493 H501 0.930 . S
C494 N492 1.325 . S
C494 C495 1.416 . S
C494 H500 0.910 1_455 S
C495 C493 1.366 . S
C495 C494 1.416 . S
C495 H497 0.930 . S
H496 C485 0.951 . S
H497 C495 0.930 . S
H498 C513 0.930 . S
H499 C520 0.930 1_455 S
H500 C494 0.910 1_655 S
H501 C493 0.930 . S
H502 C516 0.929 1_455 S
H503 C483 0.931 . S
H504 C489 0.931 . S
H505 C490 0.931 . S
H506 C511 0.931 . S
H507 C486 0.929 . S
H508 C519 0.930 . S
N509 Eu480 2.600 . S
N509 C510 1.365 . S
N509 C513 1.319 . S
C510 N509 1.365 . S
C510 C512 1.405 1_545 S
C510 C518 1.448 . S
C511 H506 0.931 . S
C511 C513 1.397 . S
C511 C514 1.370 . S
C512 C510 1.405 1_565 S
C512 C514 1.403 1_565 S
C512 C545 1.439 . S
C513 H498 0.930 . S
C513 N509 1.319 . S
C513 C511 1.397 . S
C514 C511 1.370 . S
C514 C512 1.403 1_545 S
C514 H521 0.927 1_545 S
N515 Eu480 2.562 . S
N515 C516 1.325 . S
N515 C518 1.351 . S
C516 H502 0.929 1_655 S
C516 N515 1.325 . S
C516 C520 1.416 1_545 S
C517 C518 1.430 1_565 S
C517 C519 1.404 . S
C517 C546 1.387 . S
C518 C510 1.448 . S
C518 N515 1.351 . S
C518 C517 1.430 1_545 S
C519 H508 0.930 . S
C519 C517 1.404 . S
C519 C520 1.366 . S
C520 H499 0.930 1_655 S
C520 C516 1.416 1_565 S
C520 C519 1.366 . S
H521 C514 0.927 1_565 S
H522 C545 0.931 . S
H523 C546 0.931 . S
O524 Eu480 2.462 . S
O524 C544 1.252 . S
O525 Eu480 2.373 1_565 S
O525 C536 1.249 . S
O526 Eu491 2.335 . S
O526 C536 1.264 1_455 S
O527 Eu480 2.432 . S
O527 C544 1.268 . S
O528 Eu480 2.291 1_455 S
O528 C543 1.255 . S
O529 Eu491 2.372 . S
O529 C543 1.257 1_565 S
O530 Eu491 2.462 . S
O530 C555 1.252 . S
O531 Eu491 2.373 1_545 S
O531 C547 1.249 . S
O532 Eu480 2.335 1_455 S
O532 C547 1.264 . S
O533 Eu491 2.432 . S
O533 C555 1.268 . S
O534 Eu491 2.291 1_645 S
O534 C554 1.255 . S
O535 Eu480 2.372 . S
O535 C554 1.257 . S
C536 O525 1.249 . S
C536 O526 1.264 1_655 S
C537 C540 1.382 . S
C537 C542 1.390 . S
C537 C544 1.506 . S
C538 C539 1.398 . S
C538 C542 1.392 . S
C539 C538 1.398 . S
C539 C541 1.372 . S
C539 H556 0.931 . S
C540 C537 1.382 . S
C540 C541 1.390 . S
C540 H557 0.931 . S
C541 C539 1.372 . S
C541 C540 1.390 . S
C541 H558 0.929 . S
C542 C537 1.390 . S
C542 C538 1.392 . S
C542 H559 0.930 1_655 S
C543 O528 1.255 . S
C543 O529 1.257 1_545 S
C544 Eu480 2.787 . S
C544 O524 1.252 . S
C544 O527 1.268 . S
C544 C537 1.506 . S
C545 C512 1.439 . S
C545 H522 0.931 . S
C545 C546 1.374 . S
C546 C517 1.387 . S
C546 H523 0.931 . S
C546 C545 1.374 . S
C547 O531 1.249 . S
C547 O532 1.264 . S
C548 C551 1.382 . S
C548 C552 1.390 . S
C548 C555 1.506 . S
C549 C550 1.398 . S
C549 C552 1.392 . S
C550 C549 1.398 . S
C550 C553 1.372 . S
C550 H560 0.931 . S
C551 C548 1.382 . S
C551 C553 1.390 . S
C551 H561 0.931 . S
C552 C548 1.390 . S
C552 C549 1.392 . S
C552 H562 0.930 . S
C553 C550 1.372 . S
C553 C551 1.390 . S
C553 H563 0.929 . S
C554 O534 1.255 . S
C554 O535 1.257 . S
C555 Eu491 2.787 . S
C555 O530 1.252 . S
C555 O533 1.268 . S
C555 C548 1.506 . S
H556 C539 0.931 . S
H557 C540 0.931 . S
H558 C541 0.929 . S
H559 C542 0.930 1_455 S
H560 C550 0.931 . S
H561 C551 0.931 . S
H562 C552 0.930 . S
H563 C553 0.929 . S
Eu564 N593 2.600 . S
Eu564 N599 2.562 . S
Eu564 O608 2.462 . S
Eu564 O609 2.373 . S
Eu564 O611 2.432 . S
Eu564 O612 2.291 . S
Eu564 O616 2.335 1_545 S
Eu564 O619 2.372 . S
Eu564 C628 2.787 . S
C565 N566 1.365 . S
C565 C568 1.405 . S
C565 C572 1.448 . S
N566 C565 1.365 . S
N566 C569 1.319 . S
N566 Eu575 2.600 . S
C567 C569 1.397 . S
C567 C570 1.367 . S
C567 H587 0.931 . S
C568 C565 1.405 . S
C568 C570 1.403 . S
C568 C574 1.439 . S
C569 N566 1.319 . S
C569 C567 1.397 . S
C569 H580 0.930 . S
C570 C567 1.367 . S
C570 C568 1.403 . S
C570 H591 0.929 . S
C571 C572 1.430 . S
C571 C573 1.387 . S
C571 C577 1.404 . S
C572 C565 1.448 . S
C572 C571 1.430 . S
C572 N576 1.351 . S
C573 C571 1.387 . S
C573 C574 1.374 . S
C573 H588 0.931 . S
C574 C568 1.439 . S
C574 C573 1.374 . S
C574 H589 0.931 . S
Eu575 N566 2.600 . S
Eu575 N576 2.562 . S
Eu575 O610 2.335 1_565 S
Eu575 O613 2.372 . S
Eu575 O614 2.462 . S
Eu575 O615 2.373 . S
Eu575 O617 2.432 . S
Eu575 O618 2.291 1_565 S
Eu575 C639 2.787 . S
N576 C572 1.351 . S
N576 Eu575 2.562 . S
N576 C578 1.325 . S
C577 C571 1.404 . S
C577 C579 1.366 . S
C577 H585 0.930 . S
C578 N576 1.325 . S
C578 C579 1.416 . S
C578 H584 0.929 . S
C579 C577 1.366 . S
C579 C578 1.416 . S
C579 H581 0.930 . S
H580 C569 0.930 . S
H581 C579 0.930 . S
H582 C597 0.930 . S
H583 C604 0.930 . S
H584 C578 0.929 . S
H585 C577 0.930 . S
H586 C600 0.929 . S
H587 C567 0.931 . S
H588 C573 0.931 . S
H589 C574 0.931 . S
H590 C595 0.931 . S
H591 C570 0.929 . S
H592 C603 0.930 . S
N593 Eu564 2.600 . S
N593 C594 1.365 . S
N593 C597 1.319 . S
C594 N593 1.365 . S
C594 C596 1.405 . S
C594 C602 1.448 . S
C595 H590 0.931 . S
C595 C597 1.397 . S
C595 C598 1.367 . S
C596 C594 1.405 . S
C596 C598 1.403 . S
C596 C629 1.439 . S
C597 H582 0.930 . S
C597 N593 1.319 . S
C597 C595 1.397 . S
C598 C595 1.367 . S
C598 C596 1.403 . S
C598 H605 0.929 . S
N599 Eu564 2.562 . S
N599 C600 1.325 . S
N599 C602 1.351 . S
C600 H586 0.929 . S
C600 N599 1.325 . S
C600 C604 1.416 . S
C601 C602 1.430 . S
C601 C603 1.404 . S
C601 C630 1.387 . S
C602 C594 1.448 . S
C602 N599 1.351 . S
C602 C601 1.430 . S
C603 H592 0.930 . S
C603 C601 1.404 . S
C603 C604 1.366 . S
C604 H583 0.930 . S
C604 C600 1.416 . S
C604 C603 1.366 . S
H605 C598 0.929 . S
H606 C629 0.931 . S
H607 C630 0.931 . S
O608 Eu564 2.462 . S
O608 C628 1.252 . S
O609 Eu564 2.373 . S
O609 C620 1.249 . S
O610 Eu575 2.335 1_545 S
O610 C620 1.264 . S
O611 Eu564 2.432 . S
O611 C628 1.268 . S
O612 Eu564 2.291 . S
O612 C627 1.236 1_545 S
O613 Eu575 2.372 . S
O613 C627 1.269 . S
O614 Eu575 2.462 . S
O614 C639 1.252 . S
O615 Eu575 2.373 . S
O615 C631 1.249 . S
O616 Eu564 2.335 1_565 S
O616 C631 1.264 . S
O617 Eu575 2.432 . S
O617 C639 1.268 . S
O618 Eu575 2.291 1_545 S
O618 C638 1.255 . S
O619 Eu564 2.372 . S
O619 C638 1.257 . S
C620 O609 1.249 . S
C620 O610 1.264 . S
C621 C624 1.382 . S
C621 C626 1.390 . S
C621 C628 1.506 . S
C622 C623 1.398 . S
C622 C626 1.392 . S
C623 C622 1.398 . S
C623 C625 1.372 . S
C623 H640 0.931 . S
C624 C621 1.382 . S
C624 C625 1.390 . S
C624 H641 0.931 . S
C625 C623 1.372 . S
C625 C624 1.390 . S
C625 H642 0.929 . S
C626 C621 1.390 . S
C626 C622 1.392 . S
C626 H643 0.930 . S
C627 O612 1.236 1_565 S
C627 O613 1.269 . S
C628 Eu564 2.787 . S
C628 O608 1.252 . S
C628 O611 1.268 . S
C628 C621 1.506 . S
C629 C596 1.439 . S
C629 H606 0.931 . S
C629 C630 1.374 . S
C630 C601 1.387 . S
C630 H607 0.931 . S
C630 C629 1.374 . S
C631 O615 1.249 . S
C631 O616 1.264 . S
C632 C635 1.382 . S
C632 C636 1.376 1_565 S
C632 C639 1.506 . S
C633 C634 1.398 1_545 S
C633 C636 1.393 . S
C634 C633 1.398 1_565 S
C634 C637 1.372 . S
C634 H644 0.931 . S
C635 C632 1.382 . S
C635 C637 1.390 . S
C635 H645 0.931 . S
C636 C632 1.376 1_545 S
C636 C633 1.393 . S
C636 H646 0.944 . S
C637 C634 1.372 . S
C637 C635 1.390 . S
C637 H647 0.929 . S
C638 O618 1.255 . S
C638 O619 1.257 . S
C639 Eu575 2.787 . S
C639 O614 1.252 . S
C639 O617 1.268 . S
C639 C632 1.506 . S
H640 C623 0.931 . S
H641 C624 0.931 . S
H642 C625 0.929 . S
H643 C626 0.930 . S
H644 C634 0.931 . S
H645 C635 0.931 . S
H646 C636 0.944 . S
H647 C637 0.929 . S
Eu648 N677 2.600 . S
Eu648 N683 2.562 . S
Eu648 O692 2.462 . S
Eu648 O693 2.373 . S
Eu648 O695 2.432 . S
Eu648 O696 2.291 . S
Eu648 O700 2.335 . S
Eu648 O703 2.372 . S
Eu648 C712 2.787 . S
C649 N650 1.365 . S
C649 C652 1.405 . S
C649 C656 1.448 . S
N650 C649 1.365 . S
N650 C653 1.319 . S
N650 Eu659 2.600 . S
C651 C653 1.397 . S
C651 C654 1.367 . S
C651 H671 0.931 . S
C652 C649 1.405 . S
C652 C654 1.403 . S
C652 C658 1.439 . S
C653 N650 1.319 . S
C653 C651 1.397 . S
C653 H664 0.930 . S
C654 C651 1.367 . S
C654 C652 1.403 . S
C654 H675 0.929 . S
C655 C656 1.430 . S
C655 C657 1.387 . S
C655 C661 1.404 . S
C656 C649 1.448 . S
C656 C655 1.430 . S
C656 N660 1.351 . S
C657 C655 1.387 . S
C657 C658 1.374 . S
C657 H672 0.931 . S
C658 C652 1.439 . S
C658 C657 1.374 . S
C658 H673 0.931 . S
Eu659 N650 2.600 . S
Eu659 N660 2.562 . S
Eu659 O694 2.335 . S
Eu659 O697 2.372 . S
Eu659 O698 2.462 . S
Eu659 O699 2.373 . S
Eu659 O701 2.432 . S
Eu659 O702 2.291 . S
Eu659 C723 2.787 . S
N660 C656 1.351 . S
N660 Eu659 2.562 . S
N660 C662 1.325 . S
C661 C655 1.404 . S
C661 C663 1.366 . S
C661 H669 0.930 . S
C662 N660 1.325 . S
C662 C663 1.416 . S
C662 H668 0.929 . S
C663 C661 1.366 . S
C663 C662 1.416 . S
C663 H665 0.930 . S
H664 C653 0.930 . S
H665 C663 0.930 . S
H666 C681 0.930 . S
H667 C688 0.930 . S
H668 C662 0.929 . S
H669 C661 0.930 . S
H670 C684 0.929 . S
H671 C651 0.931 . S
H672 C657 0.931 . S
H673 C658 0.931 . S
H674 C679 0.931 . S
H675 C654 0.929 . S
H676 C687 0.930 . S
N677 Eu648 2.600 . S
N677 C678 1.365 . S
N677 C681 1.319 . S
C678 N677 1.365 . S
C678 C680 1.405 . S
C678 C686 1.448 . S
C679 H674 0.931 . S
C679 C681 1.397 . S
C679 C682 1.367 . S
C680 C678 1.405 . S
C680 C682 1.403 . S
C680 C713 1.439 . S
C681 H666 0.930 . S
C681 N677 1.319 . S
C681 C679 1.397 . S
C682 C679 1.367 . S
C682 C680 1.403 . S
C682 H689 0.929 . S
N683 Eu648 2.562 . S
N683 C684 1.325 . S
N683 C686 1.351 . S
C684 H670 0.929 . S
C684 N683 1.325 . S
C684 C688 1.416 . S
C685 C686 1.430 . S
C685 C687 1.404 . S
C685 C714 1.387 . S
C686 C678 1.448 . S
C686 N683 1.351 . S
C686 C685 1.430 . S
C687 H676 0.930 . S
C687 C685 1.404 . S
C687 C688 1.366 . S
C688 H667 0.930 . S
C688 C684 1.416 . S
C688 C687 1.366 . S
H689 C682 0.929 . S
H690 C713 0.931 . S
H691 C714 0.931 . S
O692 Eu648 2.462 . S
O692 C712 1.252 . S
O693 Eu648 2.373 . S
O693 C704 1.249 . S
O694 Eu659 2.335 . S
O694 C704 1.264 . S
O695 Eu648 2.432 . S
O695 C712 1.268 . S
O696 Eu648 2.291 . S
O696 C711 1.255 . S
O697 Eu659 2.372 . S
O697 C711 1.257 . S
O698 Eu659 2.462 . S
O698 C723 1.252 . S
O699 Eu659 2.373 . S
O699 C715 1.249 . S
O700 Eu648 2.335 . S
O700 C715 1.264 . S
O701 Eu659 2.432 . S
O701 C723 1.268 . S
O702 Eu659 2.291 . S
O702 C722 1.255 . S
O703 Eu648 2.372 . S
O703 C722 1.257 . S
C704 O693 1.249 . S
C704 O694 1.264 . S
C705 C708 1.382 . S
C705 C710 1.390 . S
C705 C712 1.506 . S
C706 C707 1.398 . S
C706 C710 1.392 . S
C707 C706 1.398 . S
C707 C709 1.372 . S
C707 H724 0.931 . S
C708 C705 1.382 . S
C708 C709 1.390 . S
C708 H725 0.931 . S
C709 C707 1.372 . S
C709 C708 1.390 . S
C709 H726 0.929 . S
C710 C705 1.390 . S
C710 C706 1.392 . S
C710 H727 0.930 . S
C711 O696 1.255 . S
C711 O697 1.257 . S
C712 Eu648 2.787 . S
C712 O692 1.252 . S
C712 O695 1.268 . S
C712 C705 1.506 . S
C713 C680 1.439 . S
C713 H690 0.931 . S
C713 C714 1.374 . S
C714 C685 1.387 . S
C714 H691 0.931 . S
C714 C713 1.374 . S
C715 O699 1.249 . S
C715 O700 1.264 . S
C716 C719 1.382 . S
C716 C720 1.390 . S
C716 C723 1.506 . S
C717 C718 1.398 . S
C717 C720 1.392 . S
C718 C717 1.398 . S
C718 C721 1.372 . S
C718 H728 0.931 . S
C719 C716 1.382 . S
C719 C721 1.390 . S
C719 H729 0.931 . S
C720 C716 1.390 . S
C720 C717 1.392 . S
C720 H730 0.930 . S
C721 C718 1.372 . S
C721 C719 1.390 . S
C721 H731 0.929 . S
C722 O702 1.255 . S
C722 O703 1.257 . S
C723 Eu659 2.787 . S
C723 O698 1.252 . S
C723 O701 1.268 . S
C723 C716 1.506 . S
H724 C707 0.931 . S
H725 C708 0.931 . S
H726 C709 0.929 . S
H727 C710 0.930 . S
H728 C718 0.931 . S
H729 C719 0.931 . S
H730 C720 0.930 . S
H731 C721 0.929 . S
Eu732 N761 2.600 . S
Eu732 N767 2.562 . S
Eu732 O776 2.462 . S
Eu732 O777 2.373 1_455 S
Eu732 O779 2.432 . S
Eu732 O780 2.291 . S
Eu732 O784 2.335 . S
Eu732 O787 2.372 . S
Eu732 C796 2.787 . S
C733 N734 1.365 1_455 S
C733 C736 1.405 . S
C733 C740 1.448 . S
N734 C733 1.365 1_655 S
N734 C737 1.319 . S
N734 Eu743 2.600 . S
C735 C737 1.397 1_455 S
C735 C738 1.367 . S
C735 H755 0.931 . S
C736 C733 1.405 . S
C736 C738 1.403 . S
C736 C742 1.439 . S
C737 N734 1.319 . S
C737 C735 1.397 1_655 S
C737 H748 0.930 . S
C738 C735 1.367 . S
C738 C736 1.403 . S
C738 H759 0.929 . S
C739 C740 1.430 . S
C739 C741 1.387 . S
C739 C745 1.404 . S
C740 C733 1.448 . S
C740 C739 1.430 . S
C740 N744 1.351 . S
C741 C739 1.387 . S
C741 C742 1.374 . S
C741 H756 0.931 . S
C742 C736 1.439 . S
C742 C741 1.374 . S
C742 H757 0.931 . S
Eu743 N734 2.600 . S
Eu743 N744 2.562 1_655 S
Eu743 O778 2.335 . S
Eu743 O781 2.372 . S
Eu743 O782 2.462 . S
Eu743 O783 2.373 1_655 S
Eu743 O785 2.432 . S
Eu743 O786 2.306 . S
Eu743 C807 2.787 . S
N744 C740 1.351 . S
N744 Eu743 2.562 1_455 S
N744 C746 1.325 . S
C745 C739 1.404 . S
C745 C747 1.366 . S
C745 H753 0.930 . S
C746 N744 1.325 . S
C746 C747 1.416 . S
C746 H752 0.929 1_455 S
C747 C745 1.366 . S
C747 C746 1.416 . S
C747 H749 0.930 . S
H748 C737 0.930 . S
H749 C747 0.930 . S
H750 C765 0.930 . S
H751 C772 0.930 . S
H752 C746 0.929 1_655 S
H753 C745 0.930 . S
H754 C768 0.929 . S
H755 C735 0.931 . S
H756 C741 0.931 . S
H757 C742 0.931 . S
H758 C763 0.931 . S
H759 C738 0.929 . S
H760 C771 0.930 . S
N761 Eu732 2.600 . S
N761 C762 1.365 . S
N761 C765 1.319 . S
C762 N761 1.365 . S
C762 C764 1.405 1_455 S
C762 C770 1.449 . S
C763 H758 0.931 . S
C763 C765 1.397 . S
C763 C766 1.367 1_455 S
C764 C762 1.405 1_655 S
C764 C766 1.403 . S
C764 C797 1.439 . S
C765 H750 0.930 . S
C765 N761 1.319 . S
C765 C763 1.397 . S
C766 C763 1.367 1_655 S
C766 C764 1.403 . S
C766 H773 0.929 . S
N767 Eu732 2.562 . S
N767 C768 1.325 . S
N767 C770 1.358 . S
C768 H754 0.929 . S
C768 N767 1.325 . S
C768 C772 1.416 1_455 S
C769 C770 1.422 1_655 S
C769 C771 1.404 . S
C769 C798 1.387 . S
C770 C762 1.449 . S
C770 N767 1.358 . S
C770 C769 1.422 1_455 S
C771 H760 0.930 . S
C771 C769 1.404 . S
C771 C772 1.366 . S
C772 H751 0.930 . S
C772 C768 1.416 1_655 S
C772 C771 1.366 . S
H773 C766 0.929 . S
H774 C797 0.931 . S
H775 C798 0.931 . S
O776 Eu732 2.462 . S
O776 C796 1.252 . S
O777 Eu732 2.373 1_655 S
O777 C788 1.249 . S
O778 Eu743 2.335 . S
O778 C788 1.264 . S
O779 Eu732 2.432 . S
O779 C796 1.268 . S
O780 Eu732 2.291 . S
O780 C795 1.255 . S
O781 Eu743 2.372 . S
O781 C795 1.257 1_655 S
O782 Eu743 2.462 . S
O782 C807 1.252 . S
O783 Eu743 2.373 1_455 S
O783 C799 1.249 . S
O784 Eu732 2.335 . S
O784 C799 1.264 . S
O785 Eu743 2.432 . S
O785 C807 1.268 . S
O786 Eu743 2.306 . S
O786 C806 1.245 1_655 S
O787 Eu732 2.372 . S
O787 C806 1.257 . S
C788 O777 1.249 . S
C788 O778 1.264 . S
C789 C792 1.382 . S
C789 C794 1.390 . S
C789 C796 1.506 . S
C790 C791 1.398 . S
C790 C794 1.392 . S
C791 C790 1.398 . S
C791 C793 1.372 . S
C791 H808 0.931 . S
C792 C789 1.382 . S
C792 C793 1.390 . S
C792 H809 0.931 . S
C793 C791 1.372 . S
C793 C792 1.390 . S
C793 H810 0.929 . S
C794 C789 1.390 . S
C794 C790 1.392 . S
C794 H811 0.930 . S
C795 O780 1.255 . S
C795 O781 1.257 1_455 S
C796 Eu732 2.787 . S
C796 O776 1.252 . S
C796 O779 1.268 . S
C796 C789 1.506 . S
C797 C764 1.439 . S
C797 H774 0.931 . S
C797 C798 1.374 . S
C798 C769 1.387 . S
C798 H775 0.931 . S
C798 C797 1.374 . S
C799 O783 1.249 . S
C799 O784 1.264 . S
C800 C803 1.382 . S
C800 C804 1.390 . S
C800 C807 1.506 . S
C801 C802 1.398 . S
C801 C804 1.392 . S
C802 C801 1.398 . S
C802 C805 1.372 . S
C802 H812 0.931 . S
C803 C800 1.382 . S
C803 C805 1.390 . S
C803 H813 0.931 . S
C804 C800 1.390 . S
C804 C801 1.392 . S
C804 H814 0.930 . S
C805 C802 1.372 . S
C805 C803 1.390 . S
C805 H815 0.929 . S
C806 O786 1.245 1_455 S
C806 O787 1.257 . S
C807 Eu743 2.787 . S
C807 O782 1.252 . S
C807 O785 1.268 . S
C807 C800 1.506 . S
H808 C791 0.931 . S
H809 C792 0.931 . S
H810 C793 0.929 . S
H811 C794 0.930 . S
H812 C802 0.931 . S
H813 C803 0.931 . S
H814 C804 0.930 . S
H815 C805 0.929 . S
C816 C817 1.391 . S
C816 C818 1.394 . S
C816 H832 0.931 . S
C817 C816 1.391 . S
C817 C821 1.376 . S
C818 C816 1.394 . S
C818 C819 1.369 . S
C818 C822 1.531 . S
C819 C818 1.369 . S
C819 C820 1.410 . S
C819 C827 1.503 . S
C820 C819 1.410 . S
C820 C821 1.392 . S
C820 C823 1.511 . S
C821 C817 1.376 . S
C821 C820 1.392 . S
C821 H833 0.929 . S
C822 C818 1.531 . S
C822 H834 0.960 . S
C822 H835 0.962 . S
C822 H836 0.960 . S
C823 C820 1.511 . S
C823 H837 0.961 . S
C823 H838 0.961 . S
C823 H839 0.961 1_545 S
C824 C825 1.370 . S
C824 C826 1.363 . S
C824 H840 0.931 . S
C825 C824 1.370 . S
C825 C829 1.408 . S
C826 C824 1.363 . S
C826 C827 1.370 . S
C826 C830 1.524 . S
C827 C819 1.503 . S
C827 C826 1.370 . S
C827 C828 1.403 . S
C828 C827 1.403 . S
C828 C829 1.404 . S
C828 C831 1.539 1_545 S
C829 C825 1.408 . S
C829 C828 1.404 . S
C829 H841 0.930 1_545 S
C830 C826 1.524 . S
C830 H842 0.956 . S
C830 H843 0.961 . S
C830 H844 0.961 . S
C831 C828 1.539 1_565 S
C831 H845 0.958 . S
C831 H846 0.961 . S
C831 H847 0.960 . S
H832 C816 0.931 . S
H833 C821 0.929 . S
H834 C822 0.960 . S
H835 C822 0.962 . S
H836 C822 0.960 . S
H837 C823 0.961 . S
H838 C823 0.961 . S
H839 C823 0.961 1_565 S
H840 C824 0.931 . S
H841 C829 0.930 1_565 S
H842 C830 0.956 . S
H843 C830 0.961 . S
H844 C830 0.961 . S
H845 C831 0.958 . S
H846 C831 0.961 . S
H847 C831 0.960 . S
C848 C849 1.391 . S
C848 C850 1.394 . S
C848 H864 0.931 . S
C849 C848 1.391 . S
C849 C853 1.376 . S
C850 C848 1.394 . S
C850 C851 1.369 . S
C850 C854 1.531 . S
C851 C850 1.369 . S
C851 C852 1.410 . S
C851 C859 1.503 . S
C852 C851 1.410 . S
C852 C853 1.392 . S
C852 C855 1.511 . S
C853 C849 1.376 . S
C853 C852 1.392 . S
C853 H865 0.929 . S
C854 C850 1.531 . S
C854 H866 0.960 . S
C854 H867 0.962 . S
C854 H868 0.960 . S
C855 C852 1.511 . S
C855 H869 0.961 . S
C855 H870 0.961 . S
C855 H871 0.961 . S
C856 C857 1.370 . S
C856 C858 1.363 . S
C856 H872 0.931 . S
C857 C856 1.370 . S
C857 C861 1.408 . S
C858 C856 1.363 . S
C858 C859 1.370 . S
C858 C862 1.524 . S
C859 C851 1.503 . S
C859 C858 1.370 . S
C859 C860 1.403 . S
C860 C859 1.403 . S
C860 C861 1.404 . S
C860 C863 1.539 . S
C861 C857 1.408 . S
C861 C860 1.404 . S
C861 H873 0.930 . S
C862 C858 1.524 . S
C862 H874 0.956 . S
C862 H875 0.961 . S
C862 H876 0.961 . S
C863 C860 1.539 . S
C863 H877 0.958 . S
C863 H878 0.961 . S
C863 H879 0.960 . S
H864 C848 0.931 . S
H865 C853 0.929 . S
H866 C854 0.960 . S
H867 C854 0.962 . S
H868 C854 0.960 . S
H869 C855 0.961 . S
H870 C855 0.961 . S
H871 C855 0.961 . S
H872 C856 0.931 . S
H873 C861 0.930 . S
H874 C862 0.956 . S
H875 C862 0.961 . S
H876 C862 0.961 . S
H877 C863 0.958 . S
H878 C863 0.961 . S
H879 C863 0.960 . S
C880 C881 1.391 . S
C880 C882 1.394 . S
C880 H896 0.931 . S
C881 C880 1.391 . S
C881 C885 1.376 . S
C882 C880 1.394 . S
C882 C883 1.369 . S
C882 C886 1.531 . S
C883 C882 1.369 . S
C883 C884 1.410 . S
C883 C891 1.503 . S
C884 C883 1.410 . S
C884 C885 1.392 . S
C884 C887 1.511 . S
C885 C881 1.376 . S
C885 C884 1.392 . S
C885 H897 0.929 . S
C886 C882 1.531 . S
C886 H898 0.960 . S
C886 H899 0.962 . S
C886 H900 0.960 . S
C887 C884 1.511 . S
C887 H901 0.961 . S
C887 H902 0.961 . S
C887 H903 0.961 . S
C888 C889 1.370 . S
C888 C890 1.363 . S
C888 H904 0.931 . S
C889 C888 1.370 . S
C889 C893 1.408 . S
C890 C888 1.363 . S
C890 C891 1.370 . S
C890 C894 1.524 . S
C891 C883 1.503 . S
C891 C890 1.370 . S
C891 C892 1.403 . S
C892 C891 1.403 . S
C892 C893 1.404 . S
C892 C895 1.539 . S
C893 C889 1.408 . S
C893 C892 1.404 . S
C893 H905 0.930 . S
C894 C890 1.524 . S
C894 H906 0.956 . S
C894 H907 0.961 . S
C894 H908 0.961 . S
C895 C892 1.539 . S
C895 H909 0.958 . S
C895 H910 0.961 . S
C895 H911 0.960 . S
H896 C880 0.931 . S
H897 C885 0.929 . S
H898 C886 0.960 . S
H899 C886 0.962 . S
H900 C886 0.960 . S
H901 C887 0.961 . S
H902 C887 0.961 . S
H903 C887 0.961 . S
H904 C888 0.931 . S
H905 C893 0.930 . S
H906 C894 0.956 . S
H907 C894 0.961 . S
H908 C894 0.961 . S
H909 C895 0.958 . S
H910 C895 0.961 . S
H911 C895 0.960 . S
C912 C913 1.391 . S
C912 C914 1.394 . S
C912 H928 0.931 . S
C913 C912 1.391 . S
C913 C917 1.376 . S
C914 C912 1.394 . S
C914 C915 1.369 . S
C914 C918 1.531 . S
C915 C914 1.369 . S
C915 C916 1.410 . S
C915 C923 1.503 . S
C916 C915 1.410 . S
C916 C917 1.392 . S
C916 C919 1.511 . S
C917 C913 1.376 . S
C917 C916 1.392 . S
C917 H929 0.929 . S
C918 C914 1.531 . S
C918 H930 0.960 . S
C918 H931 0.962 . S
C918 H932 0.960 . S
C919 C916 1.511 . S
C919 H933 0.961 . S
C919 H934 0.961 . S
C919 H935 0.961 . S
C920 C921 1.388 . S
C920 C922 1.369 . S
C920 H936 0.907 1_455 S
C921 C920 1.388 . S
C921 C925 1.408 . S
C922 C920 1.369 . S
C922 C923 1.370 . S
C922 C926 1.524 1_455 S
C923 C915 1.503 . S
C923 C922 1.370 . S
C923 C924 1.403 . S
C924 C923 1.403 . S
C924 C925 1.404 . S
C924 C927 1.539 . S
C925 C921 1.408 . S
C925 C924 1.404 . S
C925 H937 0.930 . S
C926 C922 1.524 1_655 S
C926 H938 0.956 . S
C926 H939 0.961 . S
C926 H940 0.961 . S
C927 C924 1.539 . S
C927 H941 0.958 . S
C927 H942 0.961 . S
C927 H943 0.960 . S
H928 C912 0.931 . S
H929 C917 0.929 . S
H930 C918 0.960 . S
H931 C918 0.962 . S
H932 C918 0.960 . S
H933 C919 0.961 . S
H934 C919 0.961 . S
H935 C919 0.961 . S
H936 C920 0.907 1_655 S
H937 C925 0.930 . S
H938 C926 0.956 . S
H939 C926 0.961 . S
H940 C926 0.961 . S
H941 C927 0.958 . S
H942 C927 0.961 . S
H943 C927 0.960 . S
C944 C945 1.391 . S
C944 C946 1.394 1_554 S
C944 H960 0.931 . S
C945 C944 1.391 . S
C945 C949 1.376 . S
C946 C944 1.394 1_556 S
C946 C947 1.369 . S
C946 C950 1.531 1_565 S
C947 C946 1.369 . S
C947 C948 1.410 1_556 S
C947 C955 1.503 . S
C948 C947 1.410 1_554 S
C948 C949 1.392 . S
C948 C951 1.511 . S
C949 C945 1.376 . S
C949 C948 1.392 . S
C949 H961 0.929 . S
C950 C946 1.531 1_545 S
C950 H962 0.960 . S
C950 H963 0.962 1_545 S
C950 H964 0.960 . S
C951 C948 1.511 . S
C951 H965 0.961 . S
C951 H966 0.961 1_554 S
C951 H967 0.961 . S
C952 C953 1.370 . S
C952 C954 1.363 . S
C952 H968 0.931 . S
C953 C952 1.370 . S
C953 C957 1.408 1_565 S
C954 C952 1.363 . S
C954 C955 1.370 . S
C954 C958 1.524 . S
C955 C947 1.503 . S
C955 C954 1.370 . S
C955 C956 1.403 1_565 S
C956 C955 1.403 1_545 S
C956 C957 1.404 . S
C956 C959 1.539 . S
C957 C953 1.408 1_545 S
C957 C956 1.404 . S
C957 H969 0.930 . S
C958 C954 1.524 . S
C958 H970 0.956 . S
C958 H971 0.961 . S
C958 H972 0.961 . S
C959 C956 1.539 . S
C959 H973 0.958 . S
C959 H974 0.961 . S
C959 H975 0.960 . S
H960 C944 0.931 . S
H961 C949 0.929 . S
H962 C950 0.960 . S
H963 C950 0.962 1_565 S
H964 C950 0.960 . S
H965 C951 0.961 . S
H966 C951 0.961 1_556 S
H967 C951 0.961 . S
H968 C952 0.931 . S
H969 C957 0.930 . S
H970 C958 0.956 . S
H971 C958 0.961 . S
H972 C958 0.961 . S
H973 C959 0.958 . S
H974 C959 0.961 . S
H975 C959 0.960 . S
C976 C977 1.391 . S
C976 C978 1.394 1_554 S
C976 H992 0.931 . S
C977 C976 1.391 . S
C977 C981 1.376 . S
C978 C976 1.394 1_556 S
C978 C979 1.369 . S
C978 C982 1.531 . S
C979 C978 1.369 . S
C979 C980 1.410 1_556 S
C979 C987 1.503 . S
C980 C979 1.410 1_554 S
C980 C981 1.392 . S
C980 C983 1.511 . S
C981 C977 1.376 . S
C981 C980 1.392 . S
C981 H993 0.929 . S
C982 C978 1.531 . S
C982 H994 0.960 . S
C982 H995 0.962 . S
C982 H996 0.960 . S
C983 C980 1.511 . S
C983 H997 0.961 . S
C983 H998 0.961 1_554 S
C983 H999 0.961 1_554 S
C984 C985 1.370 . S
C984 C986 1.363 . S
C984 H1000 0.931 . S
C985 C984 1.370 . S
C985 C989 1.408 . S
C986 C984 1.363 . S
C986 C987 1.370 . S
C986 C990 1.524 . S
C987 C979 1.503 . S
C987 C986 1.370 . S
C987 C988 1.403 . S
C988 C987 1.403 . S
C988 C989 1.404 . S
C988 C991 1.539 . S
C989 C985 1.408 . S
C989 C988 1.404 . S
C989 H1001 0.930 . S
C990 C986 1.524 . S
C990 H1002 0.956 . S
C990 H1003 0.961 . S
C990 H1004 0.961 . S
C991 C988 1.539 . S
C991 H1005 0.958 . S
C991 H1006 0.961 . S
C991 H1007 0.960 . S
H992 C976 0.931 . S
H993 C981 0.929 . S
H994 C982 0.960 . S
H995 C982 0.962 . S
H996 C982 0.960 . S
H997 C983 0.961 . S
H998 C983 0.961 1_556 S
H999 C983 0.961 1_556 S
H1000 C984 0.931 . S
H1001 C989 0.930 . S
H1002 C990 0.956 . S
H1003 C990 0.961 . S
H1004 C990 0.961 . S
H1005 C991 0.958 . S
H1006 C991 0.961 . S
H1007 C991 0.960 . S
C1008 C1009 1.391 . S
C1008 C1010 1.394 1_554 S
C1008 H1024 0.931 . S
C1009 C1008 1.391 . S
C1009 C1013 1.376 . S
C1010 C1008 1.394 1_556 S
C1010 C1011 1.369 . S
C1010 C1014 1.531 . S
C1011 C1010 1.369 . S
C1011 C1012 1.410 1_556 S
C1011 C1019 1.503 . S
C1012 C1011 1.410 1_554 S
C1012 C1013 1.392 . S
C1012 C1015 1.511 . S
C1013 C1009 1.376 . S
C1013 C1012 1.392 . S
C1013 H1025 0.929 . S
C1014 C1010 1.531 . S
C1014 H1026 0.960 . S
C1014 H1027 0.962 . S
C1014 H1028 0.960 . S
C1015 C1012 1.511 . S
C1015 H1029 0.961 . S
C1015 H1030 0.961 1_554 S
C1015 H1031 0.961 . S
C1016 C1017 1.370 . S
C1016 C1018 1.363 . S
C1016 H1032 0.931 . S
C1017 C1016 1.370 . S
C1017 C1021 1.408 . S
C1018 C1016 1.363 . S
C1018 C1019 1.370 . S
C1018 C1022 1.524 . S
C1019 C1011 1.503 . S
C1019 C1018 1.370 . S
C1019 C1020 1.403 . S
C1020 C1019 1.403 . S
C1020 C1021 1.404 . S
C1020 C1023 1.539 . S
C1021 C1017 1.408 . S
C1021 C1020 1.404 . S
C1021 H1033 0.930 . S
C1022 C1018 1.524 . S
C1022 H1034 0.956 . S
C1022 H1035 0.961 . S
C1022 H1036 0.961 . S
C1023 C1020 1.539 . S
C1023 H1037 0.958 . S
C1023 H1038 0.961 . S
C1023 H1039 0.960 . S
H1024 C1008 0.931 . S
H1025 C1013 0.929 . S
H1026 C1014 0.960 . S
H1027 C1014 0.962 . S
H1028 C1014 0.960 . S
H1029 C1015 0.961 . S
H1030 C1015 0.961 1_556 S
H1031 C1015 0.961 . S
H1032 C1016 0.931 . S
H1033 C1021 0.930 . S
H1034 C1022 0.956 . S
H1035 C1022 0.961 . S
H1036 C1022 0.961 . S
H1037 C1023 0.958 . S
H1038 C1023 0.961 . S
H1039 C1023 0.960 . S
C1040 C1041 1.391 . S
C1040 C1042 1.394 . S
C1040 H1056 0.931 . S
C1041 C1040 1.391 . S
C1041 C1045 1.376 . S
C1042 C1040 1.394 . S
C1042 C1043 1.369 1_554 S
C1042 C1046 1.531 1_554 S
C1043 C1042 1.369 1_556 S
C1043 C1044 1.410 . S
C1043 C1051 1.503 . S
C1044 C1043 1.410 . S
C1044 C1045 1.392 1_556 S
C1044 C1047 1.484 1_655 S
C1045 C1041 1.376 . S
C1045 C1044 1.392 1_554 S
C1045 H1057 0.929 . S
C1046 C1042 1.531 1_556 S
C1046 H1058 0.960 . S
C1046 H1059 0.962 1_556 S
C1046 H1060 0.960 1_556 S
C1047 C1044 1.484 1_455 S
C1047 H1061 0.995 . S
C1047 H1062 0.986 . S
C1047 H1063 0.932 1_455 S
C1048 C1049 1.370 1_455 S
C1048 C1050 1.368 . S
C1048 H1064 0.931 . S
C1049 C1048 1.370 1_655 S
C1049 C1053 1.408 . S
C1050 C1048 1.368 . S
C1050 C1051 1.352 1_455 S
C1050 C1054 1.538 . S
C1051 C1043 1.503 . S
C1051 C1050 1.352 1_655 S
C1051 C1052 1.403 . S
C1052 C1051 1.403 . S
C1052 C1053 1.404 . S
C1052 C1055 1.539 . S
C1053 C1049 1.408 . S
C1053 C1052 1.404 . S
C1053 H1065 0.930 . S
C1054 C1050 1.538 . S
C1054 H1066 0.956 . S
C1054 H1067 0.961 . S
C1054 H1068 0.961 . S
C1055 C1052 1.539 . S
C1055 H1069 0.958 . S
C1055 H1070 0.961 . S
C1055 H1071 0.960 . S
H1056 C1040 0.931 . S
H1057 C1045 0.929 . S
H1058 C1046 0.960 . S
H1059 C1046 0.962 1_554 S
H1060 C1046 0.960 1_554 S
H1061 C1047 0.995 . S
H1062 C1047 0.986 . S
H1063 C1047 0.932 1_655 S
H1064 C1048 0.931 . S
H1065 C1053 0.930 . S
H1066 C1054 0.956 . S
H1067 C1054 0.961 . S
H1068 C1054 0.961 . S
H1069 C1055 0.958 . S
H1070 C1055 0.961 . S
H1071 C1055 0.960 . S
C1072 C1073 1.391 . S
C1072 C1074 1.394 . S
C1072 H1088 0.931 . S
C1073 C1072 1.391 . S
C1073 C1077 1.376 . S
C1074 C1072 1.394 . S
C1074 C1075 1.369 . S
C1074 C1078 1.531 1_455 S
C1075 C1074 1.369 . S
C1075 C1076 1.410 . S
C1075 C1083 1.503 . S
C1076 C1075 1.410 . S
C1076 C1077 1.392 . S
C1076 C1079 1.511 . S
C1077 C1073 1.376 . S
C1077 C1076 1.392 . S
C1077 H1089 0.929 . S
C1078 C1074 1.531 1_655 S
C1078 H1090 0.960 . S
C1078 H1091 0.962 . S
C1078 H1092 0.960 . S
C1079 C1076 1.511 . S
C1079 H1093 0.961 . S
C1079 H1094 0.961 . S
C1079 H1095 0.961 . S
C1080 C1081 1.370 . S
C1080 C1082 1.363 1_655 S
C1080 H1096 0.931 . S
C1081 C1080 1.370 . S
C1081 C1085 1.408 1_655 S
C1082 C1080 1.363 1_455 S
C1082 C1083 1.370 . S
C1082 C1086 1.524 1_455 S
C1083 C1075 1.503 . S
C1083 C1082 1.370 . S
C1083 C1084 1.403 . S
C1084 C1083 1.403 . S
C1084 C1085 1.404 . S
C1084 C1087 1.539 . S
C1085 C1081 1.408 1_455 S
C1085 C1084 1.404 . S
C1085 H1097 0.930 . S
C1086 C1082 1.524 1_655 S
C1086 H1098 0.956 . S
C1086 H1099 0.961 1_655 S
C1086 H1100 0.961 . S
C1087 C1084 1.539 . S
C1087 H1101 0.958 . S
C1087 H1102 0.961 . S
C1087 H1103 0.960 . S
H1088 C1072 0.931 . S
H1089 C1077 0.929 . S
H1090 C1078 0.960 . S
H1091 C1078 0.962 . S
H1092 C1078 0.960 . S
H1093 C1079 0.961 . S
H1094 C1079 0.961 . S
H1095 C1079 0.961 . S
H1096 C1080 0.931 . S
H1097 C1085 0.930 . S
H1098 C1086 0.956 . S
H1099 C1086 0.961 1_455 S
H1100 C1086 0.961 . S
H1101 C1087 0.958 . S
H1102 C1087 0.961 . S
H1103 C1087 0.960 . S
C1104 C1105 1.391 . S
C1104 C1106 1.394 . S
C1104 H1120 0.931 . S
C1105 C1104 1.391 . S
C1105 C1109 1.376 . S
C1106 C1104 1.394 . S
C1106 C1107 1.369 . S
C1106 C1110 1.531 1_545 S
C1107 C1106 1.369 . S
C1107 C1108 1.410 . S
C1107 C1115 1.503 . S
C1108 C1107 1.410 . S
C1108 C1109 1.392 . S
C1108 C1111 1.511 . S
C1109 C1105 1.376 . S
C1109 C1108 1.392 . S
C1109 H1121 0.929 . S
C1110 C1106 1.531 1_565 S
C1110 H1122 0.960 . S
C1110 H1123 0.962 . S
C1110 H1124 0.960 . S
C1111 C1108 1.511 . S
C1111 H1125 0.961 . S
C1111 H1126 0.961 . S
C1111 H1127 0.961 . S
C1112 C1113 1.370 . S
C1112 C1114 1.363 . S
C1112 H1128 0.931 1_545 S
C1113 C1112 1.370 . S
C1113 C1117 1.408 . S
C1114 C1112 1.363 . S
C1114 C1115 1.370 . S
C1114 C1118 1.524 . S
C1115 C1107 1.503 . S
C1115 C1114 1.370 . S
C1115 C1116 1.403 . S
C1116 C1115 1.403 . S
C1116 C1117 1.404 . S
C1116 C1119 1.539 . S
C1117 C1113 1.408 . S
C1117 C1116 1.404 . S
C1117 H1129 0.930 . S
C1118 C1114 1.524 . S
C1118 H1130 0.956 . S
C1118 H1131 0.961 . S
C1118 H1132 0.961 . S
C1119 C1116 1.539 . S
C1119 H1133 0.958 . S
C1119 H1134 0.961 . S
C1119 H1135 0.960 . S
H1120 C1104 0.931 . S
H1121 C1109 0.929 . S
H1122 C1110 0.960 . S
H1123 C1110 0.962 . S
H1124 C1110 0.960 . S
H1125 C1111 0.961 . S
H1126 C1111 0.961 . S
H1127 C1111 0.961 . S
H1128 C1112 0.931 1_565 S
H1129 C1117 0.930 . S
H1130 C1118 0.956 . S
H1131 C1118 0.961 . S
H1132 C1118 0.961 . S
H1133 C1119 0.958 . S
H1134 C1119 0.961 . S
H1135 C1119 0.960 . S
C1136 C1137 1.391 . S
C1136 C1138 1.394 . S
C1136 H1152 0.931 . S
C1137 C1136 1.391 . S
C1137 C1141 1.376 . S
C1138 C1136 1.394 . S
C1138 C1139 1.369 . S
C1138 C1142 1.531 . S
C1139 C1138 1.369 . S
C1139 C1140 1.410 . S
C1139 C1147 1.503 . S
C1140 C1139 1.410 . S
C1140 C1141 1.392 . S
C1140 C1143 1.511 . S
C1141 C1137 1.376 . S
C1141 C1140 1.392 . S
C1141 H1153 0.929 . S
C1142 C1138 1.531 . S
C1142 H1154 0.960 . S
C1142 H1155 0.962 . S
C1142 H1156 0.960 . S
C1143 C1140 1.511 . S
C1143 H1157 0.961 . S
C1143 H1158 0.961 . S
C1143 H1159 0.961 . S
C1144 C1145 1.370 . S
C1144 C1146 1.363 . S
C1144 H1160 0.931 . S
C1145 C1144 1.370 . S
C1145 C1149 1.408 . S
C1146 C1144 1.363 . S
C1146 C1147 1.370 . S
C1146 C1150 1.524 . S
C1147 C1139 1.503 . S
C1147 C1146 1.370 . S
C1147 C1148 1.403 . S
C1148 C1147 1.403 . S
C1148 C1149 1.404 . S
C1148 C1151 1.539 . S
C1149 C1145 1.408 . S
C1149 C1148 1.404 . S
C1149 H1161 0.930 . S
C1150 C1146 1.524 . S
C1150 H1162 0.956 . S
C1150 H1163 0.961 . S
C1150 H1164 0.961 . S
C1151 C1148 1.539 . S
C1151 H1165 0.958 . S
C1151 H1166 0.961 . S
C1151 H1167 0.960 . S
H1152 C1136 0.931 . S
H1153 C1141 0.929 . S
H1154 C1142 0.960 . S
H1155 C1142 0.962 . S
H1156 C1142 0.960 . S
H1157 C1143 0.961 . S
H1158 C1143 0.961 . S
H1159 C1143 0.961 . S
H1160 C1144 0.931 . S
H1161 C1149 0.930 . S
H1162 C1150 0.956 . S
H1163 C1150 0.961 . S
H1164 C1150 0.961 . S
H1165 C1151 0.958 . S
H1166 C1151 0.961 . S
H1167 C1151 0.960 . S
C1168 C1169 1.391 . S
C1168 C1170 1.394 . S
C1168 H1184 0.931 . S
C1169 C1168 1.391 . S
C1169 C1173 1.376 . S
C1170 C1168 1.394 . S
C1170 C1171 1.369 . S
C1170 C1174 1.531 . S
C1171 C1170 1.369 . S
C1171 C1172 1.410 . S
C1171 C1179 1.503 . S
C1172 C1171 1.410 . S
C1172 C1173 1.392 . S
C1172 C1175 1.511 . S
C1173 C1169 1.376 . S
C1173 C1172 1.392 . S
C1173 H1185 0.929 . S
C1174 C1170 1.531 . S
C1174 H1186 0.960 . S
C1174 H1187 0.962 . S
C1174 H1188 0.960 . S
C1175 C1172 1.511 . S
C1175 H1189 0.961 . S
C1175 H1190 0.961 . S
C1175 H1191 0.961 . S
C1176 C1177 1.370 . S
C1176 C1178 1.363 . S
C1176 H1192 0.931 . S
C1177 C1176 1.370 . S
C1177 C1181 1.408 . S
C1178 C1176 1.363 . S
C1178 C1179 1.370 . S
C1178 C1182 1.524 . S
C1179 C1171 1.503 . S
C1179 C1178 1.370 . S
C1179 C1180 1.403 . S
C1180 C1179 1.403 . S
C1180 C1181 1.404 . S
C1180 C1183 1.539 . S
C1181 C1177 1.408 . S
C1181 C1180 1.404 . S
C1181 H1193 0.930 . S
C1182 C1178 1.524 . S
C1182 H1194 0.956 . S
C1182 H1195 0.961 . S
C1182 H1196 0.961 . S
C1183 C1180 1.539 . S
C1183 H1197 0.958 . S
C1183 H1198 0.961 . S
C1183 H1199 0.960 . S
H1184 C1168 0.931 . S
H1185 C1173 0.929 . S
H1186 C1174 0.960 . S
H1187 C1174 0.962 . S
H1188 C1174 0.960 . S
H1189 C1175 0.961 . S
H1190 C1175 0.961 . S
H1191 C1175 0.961 . S
H1192 C1176 0.931 . S
H1193 C1181 0.930 . S
H1194 C1182 0.956 . S
H1195 C1182 0.961 . S
H1196 C1182 0.961 . S
H1197 C1183 0.958 . S
H1198 C1183 0.961 . S
H1199 C1183 0.960 . S
C1200 C1201 1.391 . S
C1200 C1202 1.387 1_554 S
C1200 H1216 0.931 . S
C1201 C1200 1.391 . S
C1201 C1205 1.376 . S
C1202 C1200 1.387 1_556 S
C1202 C1203 1.374 . S
C1202 C1206 1.533 . S
C1203 C1202 1.374 . S
C1203 C1204 1.410 . S
C1203 C1211 1.503 . S
C1204 C1203 1.410 . S
C1204 C1205 1.392 1_556 S
C1204 C1207 1.511 1_655 S
C1205 C1201 1.376 . S
C1205 C1204 1.392 1_554 S
C1205 H1217 0.929 . S
C1206 C1202 1.533 . S
C1206 H1218 0.960 . S
C1206 H1219 0.962 . S
C1206 H1220 0.960 1_556 S
C1207 C1204 1.511 1_455 S
C1207 H1221 0.961 . S
C1207 H1222 0.961 . S
C1207 H1223 0.961 1_556 S
C1208 C1209 1.371 1_655 S
C1208 C1210 1.363 . S
C1208 H1224 0.931 . S
C1209 C1208 1.371 1_455 S
C1209 C1213 1.408 . S
C1210 C1208 1.363 . S
C1210 C1211 1.370 . S
C1210 C1214 1.524 . S
C1211 C1203 1.503 . S
C1211 C1210 1.370 . S
C1211 C1212 1.403 1_655 S
C1212 C1211 1.403 1_455 S
C1212 C1213 1.404 . S
C1212 C1215 1.539 1_556 S
C1213 C1209 1.408 . S
C1213 C1212 1.404 . S
C1213 H1225 0.930 . S
C1214 C1210 1.524 . S
C1214 H1226 0.956 . S
C1214 H1227 0.961 . S
C1214 H1228 0.961 . S
C1215 C1212 1.539 1_554 S
C1215 H1229 0.958 1_455 S
C1215 H1230 0.961 . S
C1215 H1231 0.960 . S
H1216 C1200 0.931 . S
H1217 C1205 0.929 . S
H1218 C1206 0.960 . S
H1219 C1206 0.962 . S
H1220 C1206 0.960 1_554 S
H1221 C1207 0.961 . S
H1222 C1207 0.961 . S
H1223 C1207 0.961 1_554 S
H1224 C1208 0.931 . S
H1225 C1213 0.930 . S
H1226 C1214 0.956 . S
H1227 C1214 0.961 . S
H1228 C1214 0.961 . S
H1229 C1215 0.958 1_655 S
H1230 C1215 0.961 . S
H1231 C1215 0.960 . S
C1232 C1233 1.391 . S
C1232 C1234 1.392 1_554 S
C1232 H1248 0.920 1_565 S
C1233 C1232 1.391 . S
C1233 C1237 1.376 . S
C1234 C1232 1.392 1_556 S
C1234 C1235 1.366 . S
C1234 C1238 1.535 1_565 S
C1235 C1234 1.366 . S
C1235 C1236 1.410 . S
C1235 C1243 1.503 . S
C1236 C1235 1.410 . S
C1236 C1237 1.392 1_556 S
C1236 C1239 1.511 . S
C1237 C1233 1.376 . S
C1237 C1236 1.392 1_554 S
C1237 H1249 0.929 . S
C1238 C1234 1.535 1_545 S
C1238 H1250 0.960 . S
C1238 H1251 0.962 1_556 S
C1238 H1252 0.960 . S
C1239 C1236 1.511 . S
C1239 H1253 0.961 . S
C1239 H1254 0.961 . S
C1239 H1255 0.961 . S
C1240 C1241 1.370 . S
C1240 C1242 1.363 . S
C1240 H1256 0.931 . S
C1241 C1240 1.370 . S
C1241 C1245 1.408 . S
C1242 C1240 1.363 . S
C1242 C1243 1.370 1_545 S
C1242 C1246 1.524 1_546 S
C1243 C1235 1.503 . S
C1243 C1242 1.370 1_565 S
C1243 C1244 1.398 1_565 S
C1244 C1243 1.398 1_545 S
C1244 C1245 1.414 . S
C1244 C1247 1.533 1_545 S
C1245 C1241 1.408 . S
C1245 C1244 1.414 . S
C1245 H1257 0.930 . S
C1246 C1242 1.524 1_564 S
C1246 H1258 0.956 1_565 S
C1246 H1259 0.961 . S
C1246 H1260 0.964 . S
C1247 C1244 1.533 1_565 S
C1247 H1261 0.958 1_565 S
C1247 H1262 0.961 . S
C1247 H1263 0.960 . S
H1248 C1232 0.920 1_545 S
H1249 C1237 0.929 . S
H1250 C1238 0.960 . S
H1251 C1238 0.962 1_554 S
H1252 C1238 0.960 . S
H1253 C1239 0.961 . S
H1254 C1239 0.961 . S
H1255 C1239 0.961 . S
H1256 C1240 0.931 . S
H1257 C1245 0.930 . S
H1258 C1246 0.956 1_545 S
H1259 C1246 0.961 . S
H1260 C1246 0.964 . S
H1261 C1247 0.958 1_545 S
H1262 C1247 0.961 . S
H1263 C1247 0.960 . S
C1264 C1265 1.391 1_556 S
C1264 C1266 1.394 . S
C1264 H1280 0.931 . S
C1265 C1264 1.391 1_554 S
C1265 C1269 1.376 . S
C1266 C1264 1.394 . S
C1266 C1267 1.369 . S
C1266 C1270 1.531 . S
C1267 C1266 1.369 . S
C1267 C1268 1.410 1_556 S
C1267 C1275 1.503 . S
C1268 C1267 1.410 1_554 S
C1268 C1269 1.392 . S
C1268 C1271 1.511 . S
C1269 C1265 1.376 . S
C1269 C1268 1.392 . S
C1269 H1281 0.929 . S
C1270 C1266 1.531 . S
C1270 H1282 0.960 . S
C1270 H1283 0.962 . S
C1270 H1284 0.960 . S
C1271 C1268 1.511 . S
C1271 H1285 0.961 . S
C1271 H1286 0.961 . S
C1271 H1287 0.961 . S
C1272 C1273 1.370 . S
C1272 C1274 1.363 . S
C1272 H1288 0.931 . S
C1273 C1272 1.370 . S
C1273 C1277 1.408 . S
C1274 C1272 1.363 . S
C1274 C1275 1.370 . S
C1274 C1278 1.524 . S
C1275 C1267 1.503 . S
C1275 C1274 1.370 . S
C1275 C1276 1.403 . S
C1276 C1275 1.403 . S
C1276 C1277 1.404 . S
C1276 C1279 1.539 . S
C1277 C1273 1.408 . S
C1277 C1276 1.404 . S
C1277 H1289 0.930 . S
C1278 C1274 1.524 . S
C1278 H1290 0.956 . S
C1278 H1291 0.961 1_556 S
C1278 H1292 0.961 . S
C1279 C1276 1.539 . S
C1279 H1293 0.958 . S
C1279 H1294 0.961 . S
C1279 H1295 0.960 . S
H1280 C1264 0.931 . S
H1281 C1269 0.929 . S
H1282 C1270 0.960 . S
H1283 C1270 0.962 . S
H1284 C1270 0.960 . S
H1285 C1271 0.961 . S
H1286 C1271 0.961 . S
H1287 C1271 0.961 . S
H1288 C1272 0.931 . S
H1289 C1277 0.930 . S
H1290 C1278 0.956 . S
H1291 C1278 0.961 1_554 S
H1292 C1278 0.961 . S
H1293 C1279 0.958 . S
H1294 C1279 0.961 . S
H1295 C1279 0.960 . S
C1296 C1297 1.391 1_556 S
C1296 C1298 1.394 . S
C1296 H1312 0.931 . S
C1297 C1296 1.391 1_554 S
C1297 C1301 1.376 . S
C1298 C1296 1.394 . S
C1298 C1299 1.369 . S
C1298 C1302 1.531 . S
C1299 C1298 1.369 . S
C1299 C1300 1.410 1_556 S
C1299 C1307 1.503 . S
C1300 C1299 1.410 1_554 S
C1300 C1301 1.392 . S
C1300 C1303 1.511 . S
C1301 C1297 1.376 . S
C1301 C1300 1.392 . S
C1301 H1313 0.929 . S
C1302 C1298 1.531 . S
C1302 H1314 0.960 . S
C1302 H1315 0.962 . S
C1302 H1316 0.960 . S
C1303 C1300 1.511 . S
C1303 H1317 0.961 . S
C1303 H1318 0.961 . S
C1303 H1319 0.961 . S
C1304 C1305 1.370 . S
C1304 C1306 1.363 . S
C1304 H1320 0.931 . S
C1305 C1304 1.370 . S
C1305 C1309 1.408 . S
C1306 C1304 1.363 . S
C1306 C1307 1.370 . S
C1306 C1310 1.524 . S
C1307 C1299 1.503 . S
C1307 C1306 1.370 . S
C1307 C1308 1.403 . S
C1308 C1307 1.403 . S
C1308 C1309 1.404 . S
C1308 C1311 1.539 . S
C1309 C1305 1.408 . S
C1309 C1308 1.404 . S
C1309 H1321 0.930 . S
C1310 C1306 1.524 . S
C1310 H1322 0.956 . S
C1310 H1323 0.961 . S
C1310 H1324 0.961 . S
C1311 C1308 1.539 . S
C1311 H1325 0.958 . S
C1311 H1326 0.961 . S
C1311 H1327 0.960 . S
H1312 C1296 0.931 . S
H1313 C1301 0.929 . S
H1314 C1302 0.960 . S
H1315 C1302 0.962 . S
H1316 C1302 0.960 . S
H1317 C1303 0.961 . S
H1318 C1303 0.961 . S
H1319 C1303 0.961 . S
H1320 C1304 0.931 . S
H1321 C1309 0.930 . S
H1322 C1310 0.956 . S
H1323 C1310 0.961 . S
H1324 C1310 0.961 . S
H1325 C1311 0.958 . S
H1326 C1311 0.961 . S
H1327 C1311 0.960 . S
C1328 C1329 1.391 . S
C1328 C1330 1.394 . S
C1328 H1344 0.931 . S
C1329 C1328 1.391 . S
C1329 C1333 1.376 . S
C1330 C1328 1.394 . S
C1330 C1331 1.369 . S
C1330 C1334 1.531 . S
C1331 C1330 1.369 . S
C1331 C1332 1.410 . S
C1331 C1339 1.503 . S
C1332 C1331 1.410 . S
C1332 C1333 1.392 . S
C1332 C1335 1.511 . S
C1333 C1329 1.376 . S
C1333 C1332 1.392 . S
C1333 H1345 0.929 . S
C1334 C1330 1.531 . S
C1334 H1346 0.960 . S
C1334 H1347 0.962 . S
C1334 H1348 0.960 . S
C1335 C1332 1.511 . S
C1335 H1349 0.961 . S
C1335 H1350 0.961 . S
C1335 H1351 0.961 . S
C1336 C1337 1.370 . S
C1336 C1338 1.363 . S
C1336 H1352 0.931 . S
C1337 C1336 1.370 . S
C1337 C1341 1.408 . S
C1338 C1336 1.363 . S
C1338 C1339 1.370 . S
C1338 C1342 1.524 . S
C1339 C1331 1.503 . S
C1339 C1338 1.370 . S
C1339 C1340 1.403 . S
C1340 C1339 1.403 . S
C1340 C1341 1.404 . S
C1340 C1343 1.539 1_455 S
C1341 C1337 1.408 . S
C1341 C1340 1.404 . S
C1341 H1353 0.930 1_455 S
C1342 C1338 1.524 . S
C1342 H1354 0.956 . S
C1342 H1355 0.961 . S
C1342 H1356 0.961 . S
C1343 C1340 1.539 1_655 S
C1343 H1357 0.958 . S
C1343 H1358 0.961 . S
C1343 H1359 0.960 . S
H1344 C1328 0.931 . S
H1345 C1333 0.929 . S
H1346 C1334 0.960 . S
H1347 C1334 0.962 . S
H1348 C1334 0.960 . S
H1349 C1335 0.961 . S
H1350 C1335 0.961 . S
H1351 C1335 0.961 . S
H1352 C1336 0.931 . S
H1353 C1341 0.930 1_655 S
H1354 C1342 0.956 . S
H1355 C1342 0.961 . S
H1356 C1342 0.961 . S
H1357 C1343 0.958 . S
H1358 C1343 0.961 . S
H1359 C1343 0.960 . S
C1360 C1361 1.391 . S
C1360 C1362 1.394 . S
C1360 H1376 0.931 . S
C1361 C1360 1.391 . S
C1361 C1365 1.376 . S
C1362 C1360 1.394 . S
C1362 C1363 1.369 . S
C1362 C1366 1.531 . S
C1363 C1362 1.369 . S
C1363 C1364 1.410 . S
C1363 C1371 1.503 . S
C1364 C1363 1.410 . S
C1364 C1365 1.392 . S
C1364 C1367 1.511 . S
C1365 C1361 1.376 . S
C1365 C1364 1.392 . S
C1365 H1377 0.929 . S
C1366 C1362 1.531 . S
C1366 H1378 0.960 1_545 S
C1366 H1379 0.962 . S
C1366 H1380 0.960 1_545 S
C1367 C1364 1.511 . S
C1367 H1381 0.961 . S
C1367 H1382 0.961 . S
C1367 H1383 0.961 . S
C1368 C1369 1.370 . S
C1368 C1370 1.363 . S
C1368 H1384 0.931 . S
C1369 C1368 1.370 . S
C1369 C1373 1.408 . S
C1370 C1368 1.363 . S
C1370 C1371 1.370 . S
C1370 C1374 1.524 . S
C1371 C1363 1.503 . S
C1371 C1370 1.370 . S
C1371 C1372 1.403 . S
C1372 C1371 1.403 . S
C1372 C1373 1.404 . S
C1372 C1375 1.539 1_545 S
C1373 C1369 1.408 . S
C1373 C1372 1.404 . S
C1373 H1385 0.930 1_545 S
C1374 C1370 1.524 . S
C1374 H1386 0.956 . S
C1374 H1387 0.961 . S
C1374 H1388 0.961 . S
C1375 C1372 1.539 1_565 S
C1375 H1389 0.958 . S
C1375 H1390 0.961 . S
C1375 H1391 0.960 1_565 S
H1376 C1360 0.931 . S
H1377 C1365 0.929 . S
H1378 C1366 0.960 1_565 S
H1379 C1366 0.962 . S
H1380 C1366 0.960 1_565 S
H1381 C1367 0.961 . S
H1382 C1367 0.961 . S
H1383 C1367 0.961 . S
H1384 C1368 0.931 . S
H1385 C1373 0.930 1_565 S
H1386 C1374 0.956 . S
H1387 C1374 0.961 . S
H1388 C1374 0.961 . S
H1389 C1375 0.958 . S
H1390 C1375 0.961 . S
H1391 C1375 0.960 1_545 S
C1392 C1393 1.391 . S
C1392 C1394 1.394 . S
C1392 H1408 0.931 . S
C1393 C1392 1.391 . S
C1393 C1397 1.376 . S
C1394 C1392 1.394 . S
C1394 C1395 1.369 . S
C1394 C1398 1.531 . S
C1395 C1394 1.369 . S
C1395 C1396 1.410 . S
C1395 C1403 1.503 . S
C1396 C1395 1.410 . S
C1396 C1397 1.392 . S
C1396 C1399 1.511 . S
C1397 C1393 1.376 . S
C1397 C1396 1.392 . S
C1397 H1409 0.929 . S
C1398 C1394 1.531 . S
C1398 H1410 0.960 . S
C1398 H1411 0.962 . S
C1398 H1412 0.960 . S
C1399 C1396 1.511 . S
C1399 H1413 0.961 . S
C1399 H1414 0.961 . S
C1399 H1415 0.961 . S
C1400 C1401 1.370 . S
C1400 C1402 1.363 . S
C1400 H1416 0.931 . S
C1401 C1400 1.370 . S
C1401 C1405 1.408 . S
C1402 C1400 1.363 . S
C1402 C1403 1.370 . S
C1402 C1406 1.524 . S
C1403 C1395 1.503 . S
C1403 C1402 1.370 . S
C1403 C1404 1.403 . S
C1404 C1403 1.403 . S
C1404 C1405 1.404 . S
C1404 C1407 1.539 . S
C1405 C1401 1.408 . S
C1405 C1404 1.404 . S
C1405 H1417 0.930 . S
C1406 C1402 1.524 . S
C1406 H1418 0.956 . S
C1406 H1419 0.961 . S
C1406 H1420 0.961 . S
C1407 C1404 1.539 . S
C1407 H1421 0.958 . S
C1407 H1422 0.961 . S
C1407 H1423 0.960 . S
H1408 C1392 0.931 . S
H1409 C1397 0.929 . S
H1410 C1398 0.960 . S
H1411 C1398 0.962 . S
H1412 C1398 0.960 . S
H1413 C1399 0.961 . S
H1414 C1399 0.961 . S
H1415 C1399 0.961 . S
H1416 C1400 0.931 . S
H1417 C1405 0.930 . S
H1418 C1406 0.956 . S
H1419 C1406 0.961 . S
H1420 C1406 0.961 . S
H1421 C1407 0.958 . S
H1422 C1407 0.961 . S
H1423 C1407 0.960 . S
C1424 C1425 1.391 . S
C1424 C1426 1.394 . S
C1424 H1440 0.931 . S
C1425 C1424 1.391 . S
C1425 C1429 1.376 . S
C1426 C1424 1.394 . S
C1426 C1427 1.369 . S
C1426 C1430 1.531 . S
C1427 C1426 1.369 . S
C1427 C1428 1.410 . S
C1427 C1435 1.503 . S
C1428 C1427 1.410 . S
C1428 C1429 1.392 . S
C1428 C1431 1.511 . S
C1429 C1425 1.376 . S
C1429 C1428 1.392 . S
C1429 H1441 0.929 . S
C1430 C1426 1.531 . S
C1430 H1442 0.960 . S
C1430 H1443 0.962 . S
C1430 H1444 0.960 . S
C1431 C1428 1.511 . S
C1431 H1445 0.961 . S
C1431 H1446 0.961 . S
C1431 H1447 0.961 . S
C1432 C1433 1.370 . S
C1432 C1434 1.363 . S
C1432 H1448 0.931 . S
C1433 C1432 1.370 . S
C1433 C1437 1.408 . S
C1434 C1432 1.363 . S
C1434 C1435 1.370 . S
C1434 C1438 1.524 . S
C1435 C1427 1.503 . S
C1435 C1434 1.370 . S
C1435 C1436 1.403 . S
C1436 C1435 1.403 . S
C1436 C1437 1.404 . S
C1436 C1439 1.539 . S
C1437 C1433 1.408 . S
C1437 C1436 1.404 . S
C1437 H1449 0.930 . S
C1438 C1434 1.524 . S
C1438 H1450 0.956 . S
C1438 H1451 0.961 . S
C1438 H1452 0.961 . S
C1439 C1436 1.539 . S
C1439 H1453 0.958 . S
C1439 H1454 0.961 . S
C1439 H1455 0.960 . S
H1440 C1424 0.931 . S
H1441 C1429 0.929 . S
H1442 C1430 0.960 . S
H1443 C1430 0.962 . S
H1444 C1430 0.960 . S
H1445 C1431 0.961 . S
H1446 C1431 0.961 . S
H1447 C1431 0.961 . S
H1448 C1432 0.931 . S
H1449 C1437 0.930 . S
H1450 C1438 0.956 . S
H1451 C1438 0.961 . S
H1452 C1438 0.961 . S
H1453 C1439 0.958 . S
H1454 C1439 0.961 . S
H1455 C1439 0.960 . S
C1456 C1457 1.391 . S
C1456 C1458 1.394 . S
C1456 H1472 0.931 . S
C1457 C1456 1.391 . S
C1457 C1461 1.376 . S
C1458 C1456 1.394 . S
C1458 C1459 1.369 . S
C1458 C1462 1.531 . S
C1459 C1458 1.369 . S
C1459 C1460 1.410 . S
C1459 C1467 1.503 . S
C1460 C1459 1.410 . S
C1460 C1461 1.392 . S
C1460 C1463 1.511 1_655 S
C1461 C1457 1.376 . S
C1461 C1460 1.392 . S
C1461 H1473 0.929 1_655 S
C1462 C1458 1.531 . S
C1462 H1474 0.960 . S
C1462 H1475 0.962 . S
C1462 H1476 0.960 . S
C1463 C1460 1.511 1_455 S
C1463 H1477 0.961 . S
C1463 H1478 0.961 . S
C1463 H1479 0.961 . S
C1464 C1465 1.370 . S
C1464 C1466 1.363 . S
C1464 H1480 0.931 . S
C1465 C1464 1.370 . S
C1465 C1469 1.408 . S
C1466 C1464 1.363 . S
C1466 C1467 1.370 . S
C1466 C1470 1.524 . S
C1467 C1459 1.503 . S
C1467 C1466 1.370 . S
C1467 C1468 1.403 . S
C1468 C1467 1.403 . S
C1468 C1469 1.404 . S
C1468 C1471 1.539 . S
C1469 C1465 1.408 . S
C1469 C1468 1.404 . S
C1469 H1481 0.930 . S
C1470 C1466 1.524 . S
C1470 H1482 0.956 . S
C1470 H1483 0.961 1_655 S
C1470 H1484 0.961 . S
C1471 C1468 1.539 . S
C1471 H1485 0.958 . S
C1471 H1486 0.961 . S
C1471 H1487 0.960 . S
H1472 C1456 0.931 . S
H1473 C1461 0.929 1_455 S
H1474 C1462 0.960 . S
H1475 C1462 0.962 . S
H1476 C1462 0.960 . S
H1477 C1463 0.961 . S
H1478 C1463 0.961 . S
H1479 C1463 0.961 . S
H1480 C1464 0.931 . S
H1481 C1469 0.930 . S
H1482 C1470 0.956 . S
H1483 C1470 0.961 1_455 S
H1484 C1470 0.961 . S
H1485 C1471 0.958 . S
H1486 C1471 0.961 . S
H1487 C1471 0.960 . S
C1488 C1489 1.391 . S
C1488 C1490 1.394 . S
C1488 H1504 0.931 . S
C1489 C1488 1.391 . S
C1489 C1493 1.376 . S
C1490 C1488 1.394 . S
C1490 C1491 1.369 . S
C1490 C1494 1.531 . S
C1491 C1490 1.369 . S
C1491 C1492 1.394 1_565 S
C1491 C1499 1.503 . S
C1492 C1491 1.394 1_545 S
C1492 C1493 1.389 1_545 S
C1492 C1495 1.530 . S
C1493 C1489 1.376 . S
C1493 C1492 1.389 1_565 S
C1493 H1505 0.929 1_565 S
C1494 C1490 1.531 . S
C1494 H1506 0.960 . S
C1494 H1507 0.962 . S
C1494 H1508 0.960 . S
C1495 C1492 1.530 . S
C1495 H1509 0.961 . S
C1495 H1510 0.961 . S
C1495 H1511 0.961 . S
C1496 C1497 1.370 . S
C1496 C1498 1.363 . S
C1496 H1512 0.931 . S
C1497 C1496 1.370 . S
C1497 C1501 1.408 . S
C1498 C1496 1.363 . S
C1498 C1499 1.370 . S
C1498 C1502 1.524 . S
C1499 C1491 1.503 . S
C1499 C1498 1.370 . S
C1499 C1500 1.403 . S
C1500 C1499 1.403 . S
C1500 C1501 1.404 . S
C1500 C1503 1.539 1_565 S
C1501 C1497 1.408 . S
C1501 C1500 1.404 . S
C1501 H1513 0.930 1_565 S
C1502 C1498 1.524 . S
C1502 H1514 0.956 . S
C1502 H1515 0.961 . S
C1502 H1516 0.961 . S
C1503 C1500 1.539 1_545 S
C1503 H1517 0.958 1_545 S
C1503 H1518 0.961 . S
C1503 H1519 0.960 . S
H1504 C1488 0.931 . S
H1505 C1493 0.929 1_545 S
H1506 C1494 0.960 . S
H1507 C1494 0.962 . S
H1508 C1494 0.960 . S
H1509 C1495 0.961 . S
H1510 C1495 0.961 . S
H1511 C1495 0.961 . S
H1512 C1496 0.931 . S
H1513 C1501 0.930 1_545 S
H1514 C1502 0.956 . S
H1515 C1502 0.961 . S
H1516 C1502 0.961 . S
H1517 C1503 0.958 1_565 S
H1518 C1503 0.961 . S
H1519 C1503 0.960 . S
C1520 C1521 1.391 . S
C1520 C1522 1.394 . S
C1520 H1536 0.931 . S
C1521 C1520 1.391 . S
C1521 C1525 1.376 . S
C1522 C1520 1.394 . S
C1522 C1523 1.369 . S
C1522 C1526 1.531 . S
C1523 C1522 1.369 . S
C1523 C1524 1.410 . S
C1523 C1531 1.503 . S
C1524 C1523 1.410 . S
C1524 C1525 1.392 . S
C1524 C1527 1.511 . S
C1525 C1521 1.376 . S
C1525 C1524 1.392 . S
C1525 H1537 0.929 . S
C1526 C1522 1.531 . S
C1526 H1538 0.960 . S
C1526 H1539 0.962 . S
C1526 H1540 0.960 . S
C1527 C1524 1.511 . S
C1527 H1541 0.961 . S
C1527 H1542 0.961 . S
C1527 H1543 0.961 . S
C1528 C1529 1.370 . S
C1528 C1530 1.363 . S
C1528 H1544 0.931 . S
C1529 C1528 1.370 . S
C1529 C1533 1.408 . S
C1530 C1528 1.363 . S
C1530 C1531 1.370 . S
C1530 C1534 1.524 . S
C1531 C1523 1.503 . S
C1531 C1530 1.370 . S
C1531 C1532 1.403 . S
C1532 C1531 1.403 . S
C1532 C1533 1.404 . S
C1532 C1535 1.539 . S
C1533 C1529 1.408 . S
C1533 C1532 1.404 . S
C1533 H1545 0.930 . S
C1534 C1530 1.524 . S
C1534 H1546 0.956 . S
C1534 H1547 0.961 . S
C1534 H1548 0.961 . S
C1535 C1532 1.539 . S
C1535 H1549 0.958 . S
C1535 H1550 0.961 . S
C1535 H1551 0.960 . S
H1536 C1520 0.931 . S
H1537 C1525 0.929 . S
H1538 C1526 0.960 . S
H1539 C1526 0.962 . S
H1540 C1526 0.960 . S
H1541 C1527 0.961 . S
H1542 C1527 0.961 . S
H1543 C1527 0.961 . S
H1544 C1528 0.931 . S
H1545 C1533 0.930 . S
H1546 C1534 0.956 . S
H1547 C1534 0.961 . S
H1548 C1534 0.961 . S
H1549 C1535 0.958 . S
H1550 C1535 0.961 . S
H1551 C1535 0.960 . S
C1552 C1553 1.391 . S
C1552 C1554 1.394 . S
C1552 H1568 0.931 . S
C1553 C1552 1.391 . S
C1553 C1557 1.376 . S
C1554 C1552 1.394 . S
C1554 C1555 1.369 . S
C1554 C1558 1.531 . S
C1555 C1554 1.369 . S
C1555 C1556 1.410 . S
C1555 C1563 1.503 . S
C1556 C1555 1.410 . S
C1556 C1557 1.392 . S
C1556 C1559 1.511 . S
C1557 C1553 1.376 . S
C1557 C1556 1.392 . S
C1557 H1569 0.929 . S
C1558 C1554 1.531 . S
C1558 H1570 0.960 . S
C1558 H1571 0.962 . S
C1558 H1572 0.960 . S
C1559 C1556 1.511 . S
C1559 H1573 0.961 . S
C1559 H1574 0.961 . S
C1559 H1575 0.961 . S
C1560 C1561 1.370 . S
C1560 C1562 1.363 . S
C1560 H1576 0.931 . S
C1561 C1560 1.370 . S
C1561 C1565 1.408 . S
C1562 C1560 1.363 . S
C1562 C1563 1.370 . S
C1562 C1566 1.524 . S
C1563 C1555 1.503 . S
C1563 C1562 1.370 . S
C1563 C1564 1.403 . S
C1564 C1563 1.403 . S
C1564 C1565 1.404 . S
C1564 C1567 1.539 . S
C1565 C1561 1.408 . S
C1565 C1564 1.404 . S
C1565 H1577 0.930 . S
C1566 C1562 1.524 . S
C1566 H1578 0.956 . S
C1566 H1579 0.961 . S
C1566 H1580 0.961 . S
C1567 C1564 1.539 . S
C1567 H1581 0.958 . S
C1567 H1582 0.961 . S
C1567 H1583 0.960 . S
H1568 C1552 0.931 . S
H1569 C1557 0.929 . S
H1570 C1558 0.960 . S
H1571 C1558 0.962 . S
H1572 C1558 0.960 . S
H1573 C1559 0.961 . S
H1574 C1559 0.961 . S
H1575 C1559 0.961 . S
H1576 C1560 0.931 . S
H1577 C1565 0.930 . S
H1578 C1566 0.956 . S
H1579 C1566 0.961 . S
H1580 C1566 0.961 . S
H1581 C1567 0.958 . S
H1582 C1567 0.961 . S
H1583 C1567 0.960 . S
C817 C391 2.401 . S
C825 C543 2.426 . S
C857 C620 2.445 . S
C849 C451 2.376 . S
C889 C711 2.433 . S
C881 C241 2.089 . S
C921 C795 2.418 . S
C913 C331 2.065 . S
C953 C554 2.425 1_565 S
C945 C121 2.137 . S
C977 C211 2.336 . S
C985 C631 2.448 . S
C1009 C31 2.328 . S
C1017 C722 2.432 . S
C1041 C91 2.071 . S
C1049 C806 2.421 1_655 S
C1081 C538 0.525 . S
C1073 C301 0.557 . S
C1113 C633 0.492 . S
C1105 C380 0.449 . S
C1145 C706 0.527 . S
C1137 C440 0.497 . S
C1169 C260 0.547 . S
C1177 C790 0.513 . S
C1201 C61 0.407 . S
C1209 C549 0.492 . S
C1241 C622 0.576 . S
C1233 C140 0.580 . S
C1273 C717 0.522 . S
C1265 C200 0.610 . S
C1297 C20 0.597 . S
C1305 C801 0.514 . S
C1329 C320 2.718 . S
C1337 C547 2.903 . S
C1361 C361 2.434 . S
C1369 C638 2.952 . S
C1401 C715 2.926 . S
C1393 C421 2.404 . S
C1433 C799 2.924 . S
C1425 C271 2.773 . S
C1457 C80 2.776 . S
C1465 C536 2.899 . S
C1497 C627 2.957 . S
C1489 C151 2.780 . S
C1529 C704 2.929 . S
C1521 C181 2.351 . S
C1553 C1 2.372 . S
C1561 C788 2.931 . S
