# Generated by pormake.
# Topology hwx, (6,3)-cn, num edge types: 1
# Building blocks:
#     Node 0, Type 0, BuildingBlock: IZENUY_clean_sbu_0, # of connection points: 6
#     Node 1, Type 0, BuildingBlock: IZENUY_clean_sbu_0, # of connection points: 6
#     Node 2, Type 0, BuildingBlock: IZENUY_clean_sbu_0, # of connection points: 6
#     Node 3, Type 0, BuildingBlock: IZENUY_clean_sbu_0, # of connection points: 6
#     Node 4, Type 1, BuildingBlock: KAKCAD_clean_linker_0, # of connection points: 3
#     Node 5, Type 1, BuildingBlock: KAKCAD_clean_linker_0, # of connection points: 3
#     Node 6, Type 1, BuildingBlock: KAKCAD_clean_linker_0, # of connection points: 3
#     Node 7, Type 1, BuildingBlock: KAKCAD_clean_linker_0, # of connection points: 3
#     Node 8, Type 1, BuildingBlock: KAKCAD_clean_linker_0, # of connection points: 3
#     Node 9, Type 1, BuildingBlock: KAKCAD_clean_linker_0, # of connection points: 3
#     Node 10, Type 1, BuildingBlock: KAKCAD_clean_linker_0, # of connection points: 3
#     Node 11, Type 1, BuildingBlock: KAKCAD_clean_linker_0, # of connection points: 3
#     Edge 12, Type (0, 1), BuildingBlock: ZUJKAS_clean_linker_0, # of connection points: 2
#     Edge 13, Type (0, 1), BuildingBlock: ZUJKAS_clean_linker_0, # of connection points: 2
#     Edge 14, Type (0, 1), BuildingBlock: ZUJKAS_clean_linker_0, # of connection points: 2
#     Edge 15, Type (0, 1), BuildingBlock: ZUJKAS_clean_linker_0, # of connection points: 2
#     Edge 16, Type (0, 1), BuildingBlock: ZUJKAS_clean_linker_0, # of connection points: 2
#     Edge 17, Type (0, 1), BuildingBlock: ZUJKAS_clean_linker_0, # of connection points: 2
#     Edge 18, Type (0, 1), BuildingBlock: ZUJKAS_clean_linker_0, # of connection points: 2
#     Edge 19, Type (0, 1), BuildingBlock: ZUJKAS_clean_linker_0, # of connection points: 2
#     Edge 20, Type (0, 1), BuildingBlock: ZUJKAS_clean_linker_0, # of connection points: 2
#     Edge 21, Type (0, 1), BuildingBlock: ZUJKAS_clean_linker_0, # of connection points: 2
#     Edge 22, Type (0, 1), BuildingBlock: ZUJKAS_clean_linker_0, # of connection points: 2
#     Edge 23, Type (0, 1), BuildingBlock: ZUJKAS_clean_linker_0, # of connection points: 2
#     Edge 24, Type (0, 1), BuildingBlock: ZUJKAS_clean_linker_0, # of connection points: 2
#     Edge 25, Type (0, 1), BuildingBlock: ZUJKAS_clean_linker_0, # of connection points: 2
#     Edge 26, Type (0, 1), BuildingBlock: ZUJKAS_clean_linker_0, # of connection points: 2
#     Edge 27, Type (0, 1), BuildingBlock: ZUJKAS_clean_linker_0, # of connection points: 2
#     Edge 28, Type (0, 1), BuildingBlock: ZUJKAS_clean_linker_0, # of connection points: 2
#     Edge 29, Type (0, 1), BuildingBlock: ZUJKAS_clean_linker_0, # of connection points: 2
#     Edge 30, Type (0, 1), BuildingBlock: ZUJKAS_clean_linker_0, # of connection points: 2
#     Edge 31, Type (0, 1), BuildingBlock: ZUJKAS_clean_linker_0, # of connection points: 2
#     Edge 32, Type (0, 1), BuildingBlock: ZUJKAS_clean_linker_0, # of connection points: 2
#     Edge 33, Type (0, 1), BuildingBlock: ZUJKAS_clean_linker_0, # of connection points: 2
#     Edge 34, Type (0, 1), BuildingBlock: ZUJKAS_clean_linker_0, # of connection points: 2
#     Edge 35, Type (0, 1), BuildingBlock: ZUJKAS_clean_linker_0, # of connection points: 2
# Relax obj value: 0.051
# Max RMSD: 0.075
# Mean RMSD: 0.067
data_MOF--net-hwx--node1-IZENUY_clean_sbu_0--node2-KAKCAD_clean_linker_0--edge1-ZUJKAS_clean_linker_0
_symmetry_space_group_name_H-M    P1
_symmetry_Int_Tables_number       1
_symmetry_cell_setting            triclinic
loop_
_symmetry_equiv_pos_as_xyz
'x, y, z'
_cell_length_a     71.945076
_cell_length_b     71.948248
_cell_length_c     34.859269
_cell_angle_alpha  89.913651
_cell_angle_beta   90.078561
_cell_angle_gamma 90.002592
loop_
_atom_site_label
_atom_site_type_symbol
_atom_site_fract_x
_atom_site_fract_y
_atom_site_fract_z
_atom_type_partial_charge
Fe0 Fe 0.23665 0.20589 0.04246 0.0
Fe1 Fe 0.23667 0.20715 0.95445 0.0
O2 O 0.23141 0.19541 0.9978 0.0
Fe3 Fe 0.22081 0.17319 0.99638 0.0
O4 O 0.20075 0.18144 0.02261 0.0
O5 O 0.21656 0.19587 0.06761 0.0
O6 O 0.22208 0.22581 0.03188 0.0
C7 C 0.22376 0.23607 0.00274 0.0
C8 C 0.24647 0.17 0.05798 0.0
O9 O 0.23276 0.23057 0.97372 0.0
C10 C 0.24586 0.16962 0.93822 0.0
O11 O 0.25767 0.21776 0.02529 0.0
O12 O 0.26118 0.20799 0.96596 0.0
O13 O 0.23203 0.16462 0.04038 0.0
O14 O 0.25159 0.18673 0.05626 0.0
C15 C 0.20263 0.19281 0.93668 0.0
O16 O 0.24157 0.18585 0.92717 0.0
O17 O 0.24018 0.16348 0.97002 0.0
C18 C 0.26781 0.21497 0.99617 0.0
O19 O 0.21249 0.20719 0.94013 0.0
O20 O 0.20754 0.17765 0.95218 0.0
C21 C 0.20146 0.18914 0.05503 0.0
Fe22 Fe 0.26388 0.7064 0.54707 0.0
Fe23 Fe 0.27891 0.67276 0.50302 0.0
O24 O 0.26893 0.69526 0.50306 0.0
Fe25 Fe 0.26403 0.70658 0.45906 0.0
O26 O 0.26858 0.7301 0.47727 0.0
O27 O 0.27915 0.72569 0.53573 0.0
O28 O 0.28349 0.69598 0.57315 0.0
C29 C 0.2985 0.68882 0.56122 0.0
C30 C 0.2331 0.71589 0.49999 0.0
O31 O 0.29916 0.68081 0.5291 0.0
C32 C 0.25376 0.66916 0.44489 0.0
O33 O 0.24825 0.68787 0.56138 0.0
O34 O 0.26733 0.66509 0.54721 0.0
O35 O 0.23952 0.7082 0.47035 0.0
O36 O 0.24337 0.71882 0.52891 0.0
C37 C 0.29765 0.69106 0.44232 0.0
O38 O 0.25927 0.66329 0.47704 0.0
O39 O 0.25857 0.68508 0.43284 0.0
C40 C 0.25283 0.67099 0.56376 0.0
O41 O 0.29233 0.67628 0.45876 0.0
O42 O 0.28822 0.70577 0.44491 0.0
C43 C 0.27773 0.73568 0.50612 0.0
Fe44 Fe 0.76441 0.80064 0.95359 0.0
Fe45 Fe 0.76406 0.80048 0.04157 0.0
O46 O 0.76925 0.8118 0.99774 0.0
Fe47 Fe 0.7793 0.8343 0.99807 0.0
O48 O 0.75987 0.84394 0.97171 0.0
O49 O 0.75896 0.82222 0.92752 0.0
O50 O 0.73988 0.79899 0.96467 0.0
C51 C 0.73339 0.7912 0.99416 0.0
C52 C 0.79809 0.81617 0.93715 0.0
O53 O 0.74362 0.7881 0.02307 0.0
C54 C 0.79854 0.81816 0.05679 0.0
O55 O 0.76896 0.77705 0.97161 0.0
O56 O 0.77936 0.78125 0.03025 0.0
O57 O 0.79294 0.83087 0.95405 0.0
O58 O 0.78859 0.8015 0.93956 0.0
C59 C 0.75294 0.83582 0.05844 0.0
O60 O 0.78352 0.81081 0.06811 0.0
O61 O 0.79941 0.82618 0.02465 0.0
C62 C 0.77802 0.77136 0.00054 0.0
O63 O 0.74841 0.81893 0.05588 0.0
O64 O 0.76743 0.84187 0.04201 0.0
C65 C 0.75431 0.83817 0.93957 0.0
Fe66 Fe 0.7209 0.3329 0.50084 0.0
Fe67 Fe 0.73601 0.29918 0.54522 0.0
O68 O 0.73101 0.31043 0.50111 0.0
Fe69 Fe 0.73615 0.29921 0.4572 0.0
O70 O 0.74145 0.32068 0.43099 0.0
O71 O 0.7404 0.34263 0.47461 0.0
O72 O 0.73245 0.34065 0.54503 0.0
C73 C 0.74669 0.33466 0.56253 0.0
C74 C 0.70248 0.31447 0.43969 0.0
O75 O 0.75138 0.31781 0.56015 0.0
C76 C 0.72265 0.26984 0.50388 0.0
O77 O 0.70071 0.32478 0.52698 0.0
O78 O 0.71623 0.30932 0.57099 0.0
O79 O 0.71203 0.29983 0.44235 0.0
O80 O 0.70745 0.32922 0.45667 0.0
C81 C 0.76705 0.29017 0.49873 0.0
O82 O 0.721 0.27973 0.53352 0.0
O83 O 0.73179 0.27563 0.47525 0.0
C84 C 0.70131 0.31667 0.55904 0.0
O85 O 0.75672 0.28702 0.52742 0.0
O86 O 0.76063 0.29787 0.46904 0.0
C87 C 0.74593 0.33674 0.44253 0.0
C88 C 0.18113 0.53655 0.86614 0.0
C89 C 0.19463 0.55068 0.86465 0.0
C90 C 0.17827 0.52645 0.90003 0.0
C91 C 0.18872 0.53045 0.93312 0.0
C92 C 0.20226 0.5445 0.93142 0.0
C93 C 0.20515 0.5545 0.8977 0.0
C94 C 0.18566 0.52021 0.9696 0.0
C95 C 0.18409 0.50074 0.9701 0.0
C96 C 0.18291 0.49101 0.00509 0.0
C97 C 0.18311 0.50107 0.03971 0.0
C98 C 0.18475 0.52052 0.03968 0.0
C99 C 0.18561 0.52994 0.00446 0.0
C100 C 0.18703 0.53093 0.07623 0.0
C101 C 0.17671 0.52627 0.1091 0.0
C102 C 0.20013 0.54539 0.07864 0.0
C103 C 0.20291 0.55489 0.11298 0.0
C104 C 0.19282 0.55009 0.14603 0.0
C105 C 0.18271 0.47031 0.00567 0.0
C106 C 0.17244 0.46019 0.97843 0.0
C107 C 0.19318 0.46051 0.03317 0.0
C108 C 0.19332 0.44112 0.03354 0.0
C109 C 0.18313 0.431 0.00624 0.0
C110 C 0.17269 0.44073 0.97864 0.0
C111 C 0.17956 0.53576 0.14365 0.0
H112 H 0.1729 0.5332 0.84105 0.0
H113 H 0.1677 0.51573 0.90054 0.0
H114 H 0.21075 0.54774 0.95623 0.0
H115 H 0.21548 0.56545 0.89773 0.0
H116 H 0.18476 0.49313 0.94333 0.0
H117 H 0.18647 0.54498 0.00416 0.0
H118 H 0.18251 0.4937 0.0668 0.0
H119 H 0.16642 0.5153 0.10814 0.0
H120 H 0.20854 0.54918 0.05411 0.0
H121 H 0.213 0.56606 0.11355 0.0
H122 H 0.16408 0.46729 0.95709 0.0
H123 H 0.20162 0.46781 0.05401 0.0
H124 H 0.17163 0.53165 0.16865 0.0
H125 H 0.16459 0.4333 0.95742 0.0
H126 H 0.20179 0.43403 0.05471 0.0
C127 C 0.94768 0.81485 0.36185 0.0
C128 C 0.93399 0.82859 0.35707 0.0
C129 C 0.95811 0.81391 0.39559 0.0
C130 C 0.95514 0.82674 0.42536 0.0
C131 C 0.94174 0.84075 0.42027 0.0
C132 C 0.93128 0.84167 0.38648 0.0
C133 C 0.96557 0.82503 0.46202 0.0
C134 C 0.98447 0.82017 0.46189 0.0
C135 C 0.99411 0.8171 0.49635 0.0
C136 C 0.98476 0.81935 0.53137 0.0
C137 C 0.96585 0.82423 0.53215 0.0
C138 C 0.9564 0.82713 0.49731 0.0
C139 C 0.95557 0.82503 0.56906 0.0
C140 C 0.95831 0.81128 0.59719 0.0
C141 C 0.94231 0.839 0.57569 0.0
C142 C 0.93168 0.83893 0.60923 0.0
C143 C 0.93406 0.82487 0.63685 0.0
C144 C 0.01362 0.81046 0.49558 0.0
C145 C 0.01885 0.79625 0.47021 0.0
C146 C 0.02701 0.81789 0.52061 0.0
C147 C 0.04526 0.8112 0.52026 0.0
C148 C 0.05046 0.79689 0.49501 0.0
C149 C 0.03703 0.78952 0.46997 0.0
C150 C 0.94768 0.8112 0.63069 0.0
H151 H 0.95027 0.8047 0.33957 0.0
H152 H 0.96817 0.80282 0.39872 0.0
H153 H 0.93925 0.85094 0.44251 0.0
H154 H 0.92073 0.85233 0.38385 0.0
H155 H 0.99173 0.81873 0.43483 0.0
H156 H 0.94164 0.83011 0.49763 0.0
H157 H 0.9921 0.81682 0.55805 0.0
H158 H 0.96828 0.8002 0.59283 0.0
H159 H 0.93999 0.84989 0.55473 0.0
H160 H 0.92119 0.84958 0.61294 0.0
H161 H 0.00875 0.79001 0.45107 0.0
H162 H 0.0234 0.82897 0.54024 0.0
H163 H 0.95001 0.8003 0.65161 0.0
H164 H 0.04044 0.77823 0.45069 0.0
H165 H 0.05533 0.81736 0.53957 0.0
C166 C 0.80239 0.47233 0.13632 0.0
C167 C 0.81174 0.45535 0.1415 0.0
C168 C 0.80491 0.48274 0.10287 0.0
C169 C 0.81682 0.47641 0.07375 0.0
C170 C 0.82657 0.45969 0.07933 0.0
C171 C 0.82409 0.4493 0.11286 0.0
C172 C 0.81824 0.48674 0.03694 0.0
C173 C 0.81917 0.50623 0.03665 0.0
C174 C 0.81894 0.51622 0.00194 0.0
C175 C 0.81809 0.50637 0.96714 0.0
C176 C 0.81734 0.48684 0.96685 0.0
C177 C 0.8175 0.47717 0.0019 0.0
C178 C 0.81522 0.47646 0.93025 0.0
C179 C 0.80258 0.48255 0.90214 0.0
C180 C 0.82508 0.45986 0.92404 0.0
C181 C 0.82199 0.44933 0.89096 0.0
C182 C 0.80892 0.45512 0.86343 0.0
C183 C 0.8188 0.53691 0.00225 0.0
C184 C 0.80827 0.54658 0.02971 0.0
C185 C 0.82892 0.54717 0.97495 0.0
C186 C 0.82845 0.56661 0.97508 0.0
C187 C 0.81794 0.57622 0.00263 0.0
C188 C 0.8079 0.56598 0.02997 0.0
C189 C 0.79945 0.47199 0.86914 0.0
H190 H 0.79255 0.47727 0.15746 0.0
H191 H 0.79698 0.49542 0.09921 0.0
H192 H 0.83603 0.45458 0.05763 0.0
H193 H 0.83174 0.43644 0.11621 0.0
H194 H 0.82011 0.51364 0.06364 0.0
H195 H 0.81612 0.46217 0.00196 0.0
H196 H 0.81765 0.51391 0.94022 0.0
H197 H 0.79464 0.49518 0.9062 0.0
H198 H 0.83504 0.45489 0.94501 0.0
H199 H 0.82941 0.43634 0.88758 0.0
H200 H 0.79998 0.53916 0.05065 0.0
H201 H 0.83736 0.54018 0.9537 0.0
H202 H 0.78944 0.47694 0.84824 0.0
H203 H 0.79939 0.57297 0.05113 0.0
H204 H 0.83647 0.57414 0.95386 0.0
C205 C 0.05011 0.18212 0.63427 0.0
C206 C 0.06725 0.19147 0.63614 0.0
C207 C 0.04014 0.18142 0.59979 0.0
C208 C 0.04727 0.18985 0.56651 0.0
C209 C 0.06441 0.19916 0.56848 0.0
C210 C 0.07426 0.19998 0.60288 0.0
C211 C 0.03692 0.18926 0.52973 0.0
C212 C 0.01794 0.19367 0.52842 0.0
C213 C 0.00853 0.19485 0.49312 0.0
C214 C 0.01831 0.1913 0.45899 0.0
C215 C 0.0373 0.18679 0.45984 0.0
C216 C 0.04639 0.18555 0.49543 0.0
C217 C 0.04797 0.18443 0.42366 0.0
C218 C 0.04021 0.17521 0.39187 0.0
C219 C 0.06603 0.19176 0.42053 0.0
C220 C 0.07614 0.18978 0.38671 0.0
C221 C 0.06841 0.18057 0.355 0.0
C222 C 0.98885 0.20104 0.49185 0.0
C223 C 0.97592 0.1944 0.51877 0.0
C224 C 0.98304 0.21422 0.46454 0.0
C225 C 0.9648 0.22082 0.46451 0.0
C226 C 0.95194 0.21443 0.49183 0.0
C227 C 0.95765 0.20101 0.51874 0.0
C228 C 0.05031 0.17337 0.3578 0.0
H229 H 0.04435 0.1755 0.65953 0.0
H230 H 0.02697 0.17412 0.59901 0.0
H231 H 0.07014 0.20598 0.54342 0.0
H232 H 0.08753 0.20708 0.6033 0.0
H233 H 0.01074 0.19714 0.55475 0.0
H234 H 0.06097 0.18179 0.49653 0.0
H235 H 0.01121 0.19252 0.43167 0.0
H236 H 0.02641 0.16925 0.39342 0.0
H237 H 0.07228 0.19935 0.44404 0.0
H238 H 0.08992 0.19579 0.38512 0.0
H239 H 0.97995 0.18415 0.53999 0.0
H240 H 0.99271 0.21979 0.4437 0.0
H241 H 0.04407 0.16611 0.33382 0.0
H242 H 0.94812 0.19591 0.54036 0.0
H243 H 0.96078 0.23098 0.4431 0.0
C244 C 0.67486 0.96989 0.63892 0.0
C245 C 0.68666 0.95434 0.64116 0.0
C246 C 0.67316 0.97988 0.60454 0.0
C247 C 0.68327 0.97452 0.57187 0.0
C248 C 0.69528 0.95915 0.57451 0.0
C249 C 0.69691 0.94918 0.60862 0.0
C250 C 0.68164 0.98482 0.53501 0.0
C251 C 0.68145 0.00433 0.53414 0.0
C252 C 0.68178 0.01397 0.499 0.0
C253 C 0.6824 0.00383 0.46449 0.0
C254 C 0.68247 0.98429 0.46484 0.0
C255 C 0.68157 0.97501 0.50026 0.0
C256 C 0.68452 0.9734 0.42874 0.0
C257 C 0.67587 0.97905 0.39436 0.0
C258 C 0.69537 0.95713 0.42854 0.0
C259 C 0.69714 0.94653 0.39534 0.0
C260 C 0.68841 0.95207 0.36121 0.0
C261 C 0.6825 0.03462 0.49853 0.0
C262 C 0.67116 0.04509 0.52318 0.0
C263 C 0.69489 0.04398 0.47409 0.0
C264 C 0.69603 0.06336 0.4745 0.0
C265 C 0.68477 0.07387 0.4993 0.0
C266 C 0.67226 0.0645 0.52353 0.0
C267 C 0.67791 0.96853 0.36082 0.0
H268 H 0.66676 0.97416 0.66354 0.0
H269 H 0.66374 0.99161 0.60338 0.0
H270 H 0.70366 0.95493 0.55025 0.0
H271 H 0.70647 0.93756 0.60968 0.0
H272 H 0.68193 0.01202 0.56082 0.0
H273 H 0.68101 0.95996 0.50089 0.0
H274 H 0.68316 0.0112 0.43741 0.0
H275 H 0.66731 0.99141 0.39347 0.0
H276 H 0.70273 0.95261 0.45401 0.0
H277 H 0.70564 0.9341 0.39619 0.0
H278 H 0.66133 0.03828 0.54205 0.0
H279 H 0.70406 0.03631 0.45525 0.0
H280 H 0.67105 0.97307 0.33476 0.0
H281 H 0.66321 0.07217 0.5426 0.0
H282 H 0.70606 0.07009 0.45597 0.0
C283 C 0.55423 0.3159 0.13201 0.0
C284 C 0.56852 0.32908 0.13544 0.0
C285 C 0.54319 0.3153 0.09905 0.0
C286 C 0.54608 0.32799 0.06888 0.0
C287 C 0.55999 0.34159 0.07296 0.0
C288 C 0.57114 0.34207 0.10581 0.0
C289 C 0.53536 0.32629 0.03252 0.0
C290 C 0.51651 0.3212 0.03308 0.0
C291 C 0.50678 0.31766 0.99883 0.0
C292 C 0.51602 0.31996 0.96362 0.0
C293 C 0.53472 0.32551 0.96245 0.0
C294 C 0.54428 0.32857 0.99701 0.0
C295 C 0.54466 0.32717 0.9253 0.0
C296 C 0.54255 0.31351 0.89685 0.0
C297 C 0.55688 0.34207 0.91862 0.0
C298 C 0.5671 0.34304 0.88465 0.0
C299 C 0.56537 0.32911 0.85661 0.0
C300 C 0.48732 0.3106 -8e-05 0.0
C301 C 0.48181 0.2979 0.02841 0.0
C302 C 0.4743 0.31594 0.97185 0.0
C303 C 0.45637 0.30844 0.9718 0.0
C304 C 0.45094 0.29558 9e-05 0.0
C305 C 0.46384 0.29061 0.02867 0.0
C306 C 0.5528 0.31447 0.86288 0.0
H307 H 0.55204 0.30557 0.15419 0.0
H308 H 0.53283 0.30444 0.09668 0.0
H309 H 0.56239 0.35177 0.05059 0.0
H310 H 0.58191 0.35255 0.10794 0.0
H311 H 0.50941 0.31992 0.06034 0.0
H312 H 0.55897 0.33189 0.9962 0.0
H313 H 0.50879 0.31709 0.93701 0.0
H314 H 0.53344 0.30172 0.90136 0.0
H315 H 0.55858 0.35294 0.93979 0.0
H316 H 0.57645 0.35466 0.88042 0.0
H317 H 0.49149 0.29323 0.0502 0.0
H318 H 0.47795 0.32588 0.94975 0.0
H319 H 0.55133 0.30338 0.84212 0.0
H320 H 0.46009 0.28102 0.05135 0.0
H321 H 0.44692 0.31248 0.94909 0.0
C322 C 0.30436 0.03543 0.36443 0.0
C323 C 0.3133 0.05271 0.36066 0.0
C324 C 0.30678 0.02468 0.39748 0.0
C325 C 0.31825 0.03093 0.4275 0.0
C326 C 0.3277 0.04792 0.42314 0.0
C327 C 0.32522 0.0587 0.39014 0.0
C328 C 0.31948 0.02031 0.46407 0.0
C329 C 0.32024 0.00079 0.46399 0.0
C330 C 0.32014 0.99069 0.49857 0.0
C331 C 0.31952 1.00039 0.53353 0.0
C332 C 0.31881 0.0199 0.5342 0.0
C333 C 0.31885 0.02971 0.49934 0.0
C334 C 0.31695 0.03008 0.57107 0.0
C335 C 0.30467 0.02372 0.59954 0.0
C336 C 0.32679 0.04668 0.57735 0.0
C337 C 0.32407 0.05693 0.61089 0.0
C338 C 0.31144 0.05081 0.63894 0.0
C339 C 0.31975 0.97002 0.49826 0.0
C340 C 0.30834 0.96047 0.47212 0.0
C341 C 0.33019 0.95971 0.52496 0.0
C342 C 0.32897 0.94031 0.52598 0.0
C343 C 0.31725 0.9308 0.50035 0.0
C344 C 0.30712 0.9411 0.47314 0.0
C345 C 0.30195 0.03397 0.6331 0.0
H346 H 0.29489 0.03054 0.34247 0.0
H347 H 0.2991 0.0118 0.4001 0.0
H348 H 0.33687 0.05299 0.44545 0.0
H349 H 0.33253 0.07182 0.38782 0.0
H350 H 0.32097 0.99343 0.43694 0.0
H351 H 0.3175 0.04472 0.49965 0.0
H352 H 0.31921 0.99274 0.56032 0.0
H353 H 0.29666 0.01114 0.59535 0.0
H354 H 0.33656 0.05181 0.5562 0.0
H355 H 0.33181 0.0697 0.6148 0.0
H356 H 0.29997 0.96799 0.45142 0.0
H357 H 0.33926 0.96663 0.54523 0.0
H358 H 0.29192 0.029 0.65387 0.0
H359 H 0.29815 0.93419 0.45265 0.0
H360 H 0.33686 0.93282 0.54748 0.0
C361 C 0.45216 0.67761 0.8617 0.0
C362 C 0.4351 0.68691 0.85726 0.0
C363 C 0.46172 0.6783 0.89666 0.0
C364 C 0.4543 0.68814 0.9279 0.0
C365 C 0.43725 0.69742 0.92337 0.0
C366 C 0.42778 0.69681 0.88848 0.0
C367 C 0.46427 0.68898 0.96513 0.0
C368 C 0.4834 0.69275 0.96636 0.0
C369 C 0.49267 0.69482 0.00164 0.0
C370 C 0.48256 0.69279 0.03592 0.0
C371 C 0.4634 0.68912 0.03516 0.0
C372 C 0.45444 0.68703 0.99963 0.0
C373 C 0.45248 0.68851 0.07126 0.0
C374 C 0.45926 0.67923 0.10393 0.0
C375 C 0.43519 0.69756 0.07335 0.0
C376 C 0.4249 0.69731 0.10721 0.0
C377 C 0.43164 0.68805 0.13992 0.0
C378 C 0.51257 0.70035 0.00252 0.0
C379 C 0.52529 0.69291 0.97607 0.0
C380 C 0.51883 0.71378 0.02882 0.0
C381 C 0.53727 0.71981 0.02833 0.0
C382 C 0.54986 0.71265 0.00137 0.0
C383 C 0.54373 0.69904 0.97542 0.0
C384 C 0.44892 0.67896 0.13789 0.0
H385 H 0.45818 0.66994 0.83806 0.0
H386 H 0.4748 0.67096 0.8994 0.0
H387 H 0.43129 0.70531 0.94676 0.0
H388 H 0.41455 0.70392 0.88613 0.0
H389 H 0.49086 0.695 0.93977 0.0
H390 H 0.4397 0.68389 0.99882 0.0
H391 H 0.48953 0.69454 0.06326 0.0
H392 H 0.47248 0.67205 0.10313 0.0
H393 H 0.42969 0.70505 0.04887 0.0
H394 H 0.41154 0.70424 0.10764 0.0
H395 H 0.52099 0.68236 0.95578 0.0
H396 H 0.50935 0.72009 0.04908 0.0
H397 H 0.45454 0.6718 0.16269 0.0
H398 H 0.5532 0.69312 0.95463 0.0
H399 H 0.54152 0.73052 0.04831 0.0
H400 H 0.16844 0.17098 0.04298 0.0
H401 H 0.14195 0.16888 0.08681 0.0
H402 H 0.17074 0.20361 0.1682 0.0
H403 H 0.19722 0.20587 0.12473 0.0
H404 H 0.14323 0.15459 0.16294 0.0
H405 H 0.11873 0.22763 0.15927 0.0
H406 H 0.13373 0.21796 0.12286 0.0
H407 H 0.14324 0.22539 0.16804 0.0
C408 C 0.16908 0.17832 0.07005 0.0
C409 C 0.18498 0.18857 0.0804 0.0
C410 C 0.15393 0.17709 0.09502 0.0
C411 C 0.15434 0.18626 0.13047 0.0
C412 C 0.17005 0.19669 0.14066 0.0
H413 H 0.10463 0.17017 0.34759 0.0
H414 H 0.1234 0.16994 0.28921 0.0
C415 C 0.18522 0.19786 0.11586 0.0
C416 C 0.13887 0.18411 0.158 0.0
H417 H 0.10805 0.20893 0.21177 0.0
C418 C 0.13533 0.1664 0.17324 0.0
C419 C 0.12845 0.19952 0.17098 0.0
C420 C 0.13107 0.21868 0.1542 0.0
C421 C 0.12228 0.16387 0.20266 0.0
C422 C 0.11271 0.17947 0.2173 0.0
C423 C 0.11553 0.19701 0.20065 0.0
C424 C 0.10083 0.17818 0.25177 0.0
C425 C 0.11908 0.14458 0.21831 0.0
C426 C 0.08195 0.183 0.25004 0.0
C427 C 0.07119 0.18319 0.28343 0.0
C428 C 0.07925 0.17883 0.31909 0.0
C429 C 0.09809 0.17371 0.32054 0.0
C430 C 0.10878 0.17341 0.28719 0.0
H431 H 0.12323 0.13374 0.19733 0.0
H432 H 0.12759 0.14265 0.2446 0.0
H433 H 0.10425 0.14248 0.22604 0.0
H434 H 0.07564 0.18688 0.22295 0.0
H435 H 0.05675 0.18736 0.28156 0.0
H436 H 0.25862 0.63389 0.57522 0.0
H437 H 0.24354 0.61365 0.6219 0.0
H438 H 0.20861 0.65904 0.65812 0.0
H439 H 0.2238 0.67956 0.61164 0.0
H440 H 0.22655 0.64165 0.71798 0.0
H441 H 0.19233 0.58936 0.62542 0.0
H442 H 0.2164 0.59261 0.61373 0.0
H443 H 0.20031 0.61152 0.60739 0.0
C444 C 0.24758 0.63956 0.59275 0.0
C445 C 0.24251 0.6584 0.58983 0.0
C446 C 0.23885 0.6279 0.6192 0.0
C447 C 0.22477 0.63477 0.64309 0.0
C448 C 0.21936 0.65344 0.63972 0.0
H449 H 0.1685 0.56504 0.81533 0.0
H450 H 0.17389 0.58565 0.76025 0.0
C451 C 0.22807 0.66514 0.61317 0.0
C452 C 0.2171 0.62288 0.674 0.0
H453 H 0.19731 0.58053 0.69137 0.0
C454 C 0.21989 0.62842 0.71214 0.0
C455 C 0.20825 0.60571 0.66635 0.0
C456 C 0.20396 0.59952 0.62598 0.0
C457 C 0.21493 0.61684 0.74283 0.0
C458 C 0.20718 0.59918 0.73512 0.0
C459 C 0.20348 0.594 0.6971 0.0
C460 C 0.20381 0.58562 0.76627 0.0
C461 C 0.21832 0.62345 0.7833 0.0
C462 C 0.21889 0.57837 0.78695 0.0
C463 C 0.21589 0.56656 0.81808 0.0
C464 C 0.19772 0.56174 0.82919 0.0
C465 C 0.18265 0.56842 0.80739 0.0
C466 C 0.18568 0.58025 0.77608 0.0
H467 H 0.21981 0.6388 0.78466 0.0
H468 H 0.2068 0.61915 0.80255 0.0
H469 H 0.23137 0.61715 0.79427 0.0
H470 H 0.233 0.58209 0.77931 0.0
H471 H 0.22781 0.56134 0.83374 0.0
H472 H 0.83203 0.83585 0.04637 0.0
H473 H 0.85726 0.83916 0.09319 0.0
H474 H 0.82625 0.80641 0.17464 0.0
H475 H 0.801 0.80311 0.12847 0.0
H476 H 0.83984 0.84069 0.20354 0.0
H477 H 0.89482 0.79925 0.13096 0.0
H478 H 0.88373 0.81702 0.10268 0.0
H479 H 0.87052 0.7973 0.11849 0.0
C480 C 0.83065 0.82922 0.07413 0.0
C481 C 0.81445 0.81927 0.0837 0.0
C482 C 0.8451 0.83107 0.10077 0.0
C483 C 0.84362 0.82294 0.13724 0.0
C484 C 0.82763 0.81279 0.14662 0.0
H485 H 0.91851 0.79881 0.32051 0.0
H486 H 0.8978 0.79903 0.26496 0.0
C487 C 0.81322 0.81092 0.12012 0.0
C488 C 0.8583 0.82551 0.1665 0.0
H489 H 0.90288 0.81363 0.18947 0.0
C490 C 0.85368 0.83491 0.20041 0.0
C491 C 0.87626 0.81783 0.16227 0.0
C492 C 0.8817 0.80715 0.1268 0.0
C493 C 0.86647 0.83657 0.23061 0.0
C494 C 0.88441 0.82882 0.22649 0.0
C495 C 0.88914 0.81966 0.19233 0.0
C496 C 0.89796 0.82893 0.25844 0.0
C497 C 0.86044 0.84597 0.26723 0.0
C498 C 0.90515 0.84568 0.27273 0.0
C499 C 0.91706 0.84561 0.30446 0.0
C500 C 0.92206 0.82877 0.32227 0.0
C501 C 0.91514 0.812 0.3072 0.0
C502 C 0.90326 0.81209 0.27554 0.0
H503 H 0.84513 0.84791 0.26848 0.0
H504 H 0.86489 0.83776 0.29264 0.0
H505 H 0.86707 0.85986 0.26908 0.0
H506 H 0.90143 0.85879 0.2595 0.0
H507 H 0.92238 0.85872 0.31502 0.0
H508 H 0.77406 0.32557 0.61426 0.0
H509 H 0.78787 0.3457 0.66323 0.0
H510 H 0.75508 0.39178 0.62217 0.0
H511 H 0.74127 0.37189 0.57307 0.0
H512 H 0.79351 0.40043 0.6396 0.0
H513 H 0.75694 0.36325 0.75759 0.0
H514 H 0.77058 0.34911 0.72577 0.0
H515 H 0.75029 0.3608 0.7079 0.0
C516 C 0.7699 0.34002 0.61539 0.0
C517 C 0.75639 0.34706 0.58999 0.0
C518 C 0.77776 0.35147 0.64348 0.0
C519 C 0.77229 0.37013 0.64658 0.0
C520 C 0.75943 0.37739 0.6203 0.0
H521 H 0.77467 0.4471 0.83392 0.0
H522 H 0.76717 0.42664 0.7802 0.0
C523 C 0.75151 0.36597 0.59233 0.0
C524 C 0.77924 0.38196 0.67822 0.0
H525 H 0.77647 0.38809 0.77515 0.0
C526 C 0.78993 0.3977 0.66929 0.0
C527 C 0.77432 0.37842 0.71681 0.0
C528 C 0.76229 0.36207 0.7278 0.0
C529 C 0.79578 0.41007 0.69803 0.0
C530 C 0.79086 0.40651 0.7366 0.0
C531 C 0.78029 0.3907 0.74553 0.0
C532 C 0.79575 0.41945 0.76803 0.0
C533 C 0.80668 0.42715 0.68686 0.0
C534 C 0.81433 0.42218 0.77896 0.0
C535 C 0.81868 0.43395 0.80962 0.0
C536 C 0.80451 0.44319 0.82984 0.0
C537 C 0.78593 0.44046 0.81858 0.0
C538 C 0.78161 0.42866 0.78808 0.0
H539 H 0.80631 0.42968 0.65542 0.0
H540 H 0.80117 0.43962 0.70176 0.0
H541 H 0.8214 0.42534 0.69564 0.0
H542 H 0.82543 0.41501 0.76413 0.0
H543 H 0.83313 0.43583 0.81748 0.0
H544 H 0.69372 0.28949 0.38327 0.0
H545 H 0.66952 0.29247 0.33434 0.0
H546 H 0.65112 0.34372 0.38588 0.0
H547 H 0.67562 0.34116 0.43424 0.0
H548 H 0.63202 0.29454 0.33701 0.0
H549 H 0.66087 0.35986 0.27679 0.0
H550 H 0.67338 0.34585 0.31113 0.0
H551 H 0.65535 0.36141 0.32686 0.0
C552 C 0.68447 0.30136 0.38433 0.0
C553 C 0.68676 0.31523 0.41232 0.0
C554 C 0.67065 0.30304 0.35634 0.0
C555 C 0.6588 0.31854 0.35594 0.0
C556 C 0.66045 0.33193 0.38498 0.0
H557 H 0.55944 0.32571 0.21136 0.0
H558 H 0.58073 0.32355 0.26612 0.0
C559 C 0.6744 0.33037 0.41272 0.0
C560 C 0.645 0.32084 0.32467 0.0
H561 H 0.6318 0.34998 0.25221 0.0
C562 C 0.63195 0.30666 0.31845 0.0
C563 C 0.64514 0.33654 0.30013 0.0
C564 C 0.65954 0.3517 0.30374 0.0
C565 C 0.61898 0.30775 0.28839 0.0
C566 C 0.61878 0.3237 0.26455 0.0
C567 C 0.63185 0.33786 0.27078 0.0
C568 C 0.60572 0.32562 0.23184 0.0
C569 C 0.60604 0.29155 0.28176 0.0
C570 C 0.61267 0.32822 0.19461 0.0
C571 C 0.60056 0.32973 0.16345 0.0
C572 C 0.58124 0.32862 0.16891 0.0
C573 C 0.57427 0.32636 0.20629 0.0
C574 C 0.58641 0.32504 0.23753 0.0
H575 H 0.61129 0.27864 0.29552 0.0
H576 H 0.59227 0.29476 0.29441 0.0
H577 H 0.6041 0.2889 0.25064 0.0
H578 H 0.62752 0.32876 0.18957 0.0
H579 H 0.60633 0.33127 0.13494 0.0
H580 H 0.25454 0.13284 0.9489 0.0
H581 H 0.26902 0.11169 0.90284 0.0
H582 H 0.27351 0.15645 0.821 0.0
H583 H 0.25927 0.17773 0.86679 0.0
H584 H 0.25498 0.10303 0.83055 0.0
H585 H 0.32548 0.13352 0.81861 0.0
H586 H 0.3099 0.139 0.85758 0.0
H587 H 0.30718 0.15015 0.8117 0.0
C588 C 0.2588 0.13825 0.92127 0.0
C589 C 0.25569 0.15699 0.91152 0.0
C590 C 0.26707 0.12614 0.89501 0.0
C591 C 0.27255 0.13256 0.85872 0.0
C592 C 0.26974 0.15129 0.84914 0.0
H593 H 0.30701 0.08851 0.64222 0.0
H594 H 0.29874 0.10735 0.69793 0.0
C595 C 0.26146 0.16341 0.8753 0.0
C596 C 0.27998 0.11946 0.8298 0.0
H597 H 0.31663 0.11198 0.76965 0.0
C598 C 0.26856 0.10481 0.81757 0.0
C599 C 0.29767 0.12188 0.8129 0.0
C600 C 0.31086 0.13688 0.82609 0.0
C601 C 0.27405 0.09292 0.78779 0.0
C602 C 0.29158 0.09559 0.77029 0.0
C603 C 0.30319 0.10999 0.78311 0.0
C604 C 0.29772 0.08414 0.73739 0.0
C605 C 0.26074 0.07809 0.77426 0.0
C606 C 0.30027 0.0649 0.74134 0.0
C607 C 0.30505 0.05408 0.70955 0.0
C608 C 0.30749 0.06235 0.6733 0.0
C609 C 0.30545 0.08173 0.66978 0.0
C610 C 0.30064 0.09251 0.70154 0.0
H611 H 0.24639 0.0805 0.78489 0.0
H612 H 0.26039 0.07746 0.74244 0.0
H613 H 0.26545 0.06437 0.7851 0.0
H614 H 0.29844 0.05823 0.76896 0.0
H615 H 0.30683 0.03924 0.71333 0.0
H616 H 0.31984 0.66126 0.42568 0.0
H617 H 0.34553 0.65997 0.37994 0.0
H618 H 0.33774 0.71804 0.35375 0.0
H619 H 0.31217 0.71957 0.39968 0.0
H620 H 0.34276 0.66749 0.30184 0.0
H621 H 0.39392 0.71439 0.37104 0.0
H622 H 0.37437 0.70463 0.39655 0.0
H623 H 0.37122 0.72445 0.36573 0.0
C624 C 0.32369 0.67382 0.41051 0.0
C625 C 0.31389 0.69051 0.41629 0.0
C626 C 0.33839 0.67305 0.38441 0.0
C627 C 0.34367 0.68896 0.36385 0.0
C628 C 0.33412 0.7057 0.36991 0.0
H629 H 0.4125 0.71686 0.17218 0.0
H630 H 0.39219 0.71594 0.22828 0.0
C631 C 0.31942 0.7065 0.39599 0.0
C632 C 0.35827 0.68776 0.33407 0.0
H633 H 0.39957 0.70656 0.30549 0.0
C634 C 0.35531 0.67585 0.30282 0.0
C635 C 0.37457 0.69871 0.33548 0.0
C636 C 0.37885 0.71115 0.36917 0.0
C637 C 0.36789 0.6751 0.27215 0.0
C638 C 0.38402 0.68633 0.2732 0.0
C639 C 0.38718 0.69796 0.30483 0.0
C640 C 0.39724 0.68691 0.24073 0.0
C641 C 0.36344 0.66286 0.23822 0.0
C642 C 0.40711 0.67098 0.22966 0.0
C643 C 0.41862 0.67141 0.19738 0.0
C644 C 0.42049 0.68782 0.17573 0.0
C645 C 0.41108 0.70391 0.1878 0.0
C646 C 0.39959 0.70346 0.22002 0.0
H647 H 0.34868 0.65832 0.23819 0.0
H648 H 0.36634 0.67022 0.21085 0.0
H649 H 0.37231 0.65026 0.23932 0.0
H650 H 0.40571 0.65815 0.24568 0.0
H651 H 0.42563 0.65877 0.18876 0.0
H652 H 0.74147 0.83125 0.86707 0.0
H653 H 0.72603 0.85294 0.82345 0.0
H654 H 0.72789 0.89554 0.91023 0.0
H655 H 0.74351 0.87402 0.95409 0.0
H656 H 0.6922 0.87383 0.83227 0.0
H657 H 0.75465 0.91894 0.81693 0.0
H658 H 0.75587 0.89582 0.83692 0.0
H659 H 0.74683 0.91463 0.86508 0.0
C660 C 0.73856 0.84521 0.877 0.0
C661 C 0.74395 0.85095 0.91394 0.0
C662 C 0.72968 0.85756 0.85205 0.0
C663 C 0.72606 0.87588 0.86348 0.0
C664 C 0.73084 0.88152 0.9007 0.0
H665 H 0.69068 0.96759 0.71439 0.0
H666 H 0.69728 0.94955 0.77261 0.0
C667 C 0.73973 0.86918 0.92572 0.0
C668 C 0.71784 0.88917 0.83581 0.0
H669 H 0.72808 0.92743 0.78188 0.0
C670 C 0.69996 0.88565 0.82144 0.0
C671 C 0.72798 0.90462 0.82196 0.0
C672 C 0.74745 0.90874 0.8357 0.0
C673 C 0.69206 0.897 0.79298 0.0
C674 C 0.70248 0.91203 0.77807 0.0
C675 C 0.7201 0.91593 0.79344 0.0
C676 C 0.69622 0.92284 0.74423 0.0
C677 C 0.67267 0.89273 0.77901 0.0
C678 C 0.69329 0.91379 0.70913 0.0
C679 C 0.68948 0.92402 0.67602 0.0
C680 C 0.68868 0.94353 0.67723 0.0
C681 C 0.69105 0.95257 0.71264 0.0
C682 C 0.6949 0.9423 0.74584 0.0
H683 H 0.6645 0.88525 0.80122 0.0
H684 H 0.66512 0.90561 0.77086 0.0
H685 H 0.67353 0.88363 0.75341 0.0
H686 H 0.69463 0.89883 0.70702 0.0
H687 H 0.68754 0.91665 0.64923 0.0
H688 H 0.813 0.78746 0.89597 0.0
H689 H 0.83805 0.78896 0.84882 0.0
H690 H 0.84421 0.84767 0.86998 0.0
H691 H 0.81936 0.84631 0.91761 0.0
H692 H 0.83759 0.81025 0.78271 0.0
H693 H 0.89786 0.82924 0.87423 0.0
H694 H 0.8764 0.82034 0.89379 0.0
H695 H 0.8781 0.84428 0.87939 0.0
C696 C 0.8198 0.80067 0.89096 0.0
C697 C 0.81412 0.81678 0.91053 0.0
C698 C 0.83413 0.80149 0.864 0.0
C699 C 0.84312 0.81837 0.85621 0.0
C700 C 0.83771 0.83442 0.87611 0.0
H701 H 0.92234 0.85355 0.68263 0.0
H702 H 0.90047 0.85197 0.73642 0.0
C703 C 0.82341 0.83362 0.90317 0.0
C704 C 0.85722 0.81941 0.82537 0.0
H705 H 0.90245 0.83067 0.8067 0.0
C706 C 0.8518 0.8146 0.78799 0.0
C707 C 0.87571 0.82522 0.83234 0.0
C708 C 0.88246 0.82991 0.87216 0.0
C709 C 0.86431 0.81564 0.75726 0.0
C710 C 0.88281 0.82137 0.76423 0.0
C711 C 0.88824 0.82628 0.80154 0.0
C712 C 0.89669 0.8222 0.73301 0.0
C713 C 0.85753 0.81093 0.71744 0.0
C714 C 0.90203 0.80593 0.71386 0.0
C715 C 0.9144 0.80679 0.6831 0.0
C716 C 0.92175 0.82394 0.67099 0.0
C717 C 0.91673 0.84017 0.69093 0.0
C718 C 0.90436 0.83928 0.72179 0.0
H719 H 0.84212 0.8112 0.71553 0.0
H720 H 0.86327 0.82078 0.69594 0.0
H721 H 0.86228 0.79674 0.70982 0.0
H722 H 0.89644 0.79258 0.72245 0.0
H723 H 0.91783 0.79405 0.66816 0.0
H724 H 0.75955 0.32852 0.37159 0.0
H725 H 0.77311 0.34978 0.32488 0.0
H726 H 0.76776 0.39502 0.40508 0.0
H727 H 0.7542 0.37376 0.45243 0.0
H728 H 0.754 0.38159 0.29648 0.0
H729 H 0.82174 0.39998 0.36372 0.0
H730 H 0.80867 0.37959 0.37752 0.0
H731 H 0.80146 0.40216 0.39352 0.0
C732 C 0.76141 0.34294 0.37961 0.0
C733 C 0.75566 0.34945 0.41574 0.0
C734 C 0.76919 0.35506 0.35283 0.0
C735 C 0.77153 0.37392 0.36162 0.0
C736 C 0.76631 0.38044 0.39797 0.0
H737 H 0.80677 0.46634 0.21623 0.0
H738 H 0.79727 0.44703 0.27074 0.0
C739 C 0.75848 0.36829 0.4249 0.0
C740 C 0.7781 0.38685 0.33149 0.0
H741 H 0.81396 0.41538 0.30587 0.0
C742 C 0.76711 0.38898 0.29851 0.0
C743 C 0.79512 0.39657 0.33447 0.0
C744 C 0.80756 0.39444 0.36905 0.0
C745 C 0.77271 0.40053 0.26824 0.0
C746 C 0.78996 0.40989 0.2707 0.0
C747 C 0.8008 0.40808 0.30403 0.0
C748 C 0.79699 0.42136 0.23854 0.0
C749 C 0.75999 0.40275 0.23406 0.0
C750 C 0.80044 0.41322 0.2027 0.0
C751 C 0.80569 0.4242 0.17148 0.0
C752 C 0.80775 0.44354 0.17556 0.0
C753 C 0.80501 0.45154 0.21196 0.0
C754 C 0.79971 0.44052 0.24319 0.0
H755 H 0.74544 0.39884 0.24107 0.0
H756 H 0.76012 0.41729 0.22332 0.0
H757 H 0.76482 0.39354 0.2106 0.0
H758 H 0.7987 0.3984 0.19869 0.0
H759 H 0.80752 0.41759 0.14386 0.0
H760 H 0.18913 0.22234 0.89566 0.0
H761 H 0.16348 0.22235 0.84967 0.0
H762 H 0.15379 0.16421 0.87218 0.0
H763 H 0.17931 0.16405 0.91854 0.0
H764 H 0.16236 0.19989 0.78391 0.0
H765 H 0.10133 0.18697 0.87776 0.0
H766 H 0.12343 0.19489 0.8962 0.0
H767 H 0.12024 0.17089 0.88365 0.0
C768 C 0.18144 0.20958 0.89118 0.0
C769 C 0.18635 0.19316 0.91066 0.0
C770 C 0.16677 0.20964 0.86492 0.0
C771 C 0.15664 0.19334 0.85786 0.0
C772 C 0.16122 0.17702 0.87777 0.0
H773 H 0.07448 0.16299 0.68613 0.0
H774 H 0.09533 0.16359 0.74187 0.0
C775 C 0.17591 0.17693 0.90404 0.0
C776 C 0.14228 0.19312 0.82746 0.0
H777 H 0.0961 0.18573 0.81045 0.0
C778 C 0.14785 0.19691 0.78973 0.0
C779 C 0.12342 0.18904 0.83519 0.0
C780 C 0.11665 0.18536 0.87543 0.0
C781 C 0.1351 0.19657 0.75933 0.0
C782 C 0.11619 0.1927 0.76705 0.0
C783 C 0.1106 0.18876 0.80475 0.0
C784 C 0.10212 0.19276 0.73609 0.0
C785 C 0.14205 0.2 0.71909 0.0
C786 C 0.09861 0.20909 0.71533 0.0
C787 C 0.08678 0.20878 0.6836 0.0
C788 C 0.07813 0.19215 0.67224 0.0
C789 C 0.08091 0.17601 0.69431 0.0
C790 C 0.09283 0.17632 0.72603 0.0
H791 H 0.15734 0.19805 0.71693 0.0
H792 H 0.13516 0.19055 0.69832 0.0
H793 H 0.13883 0.21453 0.71066 0.0
H794 H 0.10536 0.222 0.72318 0.0
H795 H 0.08461 0.22151 0.66756 0.0
H796 H 0.24713 0.67349 0.36823 0.0
H797 H 0.23215 0.65157 0.32483 0.0
H798 H 0.22178 0.61432 0.4195 0.0
H799 H 0.23731 0.63598 0.4631 0.0
H800 H 0.23629 0.59613 0.36136 0.0
H801 H 0.17877 0.63915 0.30567 0.0
H802 H 0.20055 0.65084 0.29945 0.0
H803 H 0.19223 0.64585 0.34713 0.0
C804 C 0.24147 0.66074 0.37997 0.0
C805 C 0.24346 0.65647 0.41913 0.0
C806 C 0.23275 0.64828 0.35512 0.0
C807 C 0.2255 0.63145 0.36899 0.0
C808 C 0.22717 0.62727 0.4082 0.0
H809 H 0.16744 0.5617 0.19979 0.0
H810 H 0.1736 0.57918 0.25875 0.0
C811 C 0.23607 0.63966 0.43306 0.0
C812 C 0.21762 0.61762 0.34192 0.0
H813 H 0.18813 0.61326 0.2657 0.0
C814 C 0.22552 0.59978 0.34089 0.0
C815 C 0.20328 0.62218 0.3157 0.0
C816 C 0.19309 0.64049 0.31733 0.0
C817 C 0.22028 0.58681 0.31292 0.0
C818 C 0.20717 0.59199 0.28456 0.0
C819 C 0.19842 0.60939 0.28703 0.0
C820 C 0.2034 0.5802 0.25056 0.0
C821 C 0.22902 0.56774 0.31384 0.0
C822 C 0.21808 0.57501 0.2264 0.0
C823 C 0.21464 0.56487 0.19308 0.0
C824 C 0.19639 0.55997 0.18275 0.0
C825 C 0.18168 0.56506 0.20713 0.0
C826 C 0.18516 0.57515 0.24069 0.0
H827 H 0.23307 0.56378 0.34352 0.0
H828 H 0.21944 0.557 0.30233 0.0
H829 H 0.24183 0.56785 0.29616 0.0
H830 H 0.23222 0.57912 0.23288 0.0
H831 H 0.22633 0.56097 0.17527 0.0
H832 H 0.3011 0.70257 0.63394 0.0
H833 H 0.32743 0.70048 0.67784 0.0
H834 H 0.35914 0.67142 0.59192 0.0
H835 H 0.33282 0.67349 0.5474 0.0
H836 H 0.3446 0.66646 0.70279 0.0
H837 H 0.39381 0.71441 0.62917 0.0
H838 H 0.36913 0.71462 0.61958 0.0
H839 H 0.38339 0.69637 0.60062 0.0
C840 C 0.31368 0.69581 0.62416 0.0
C841 C 0.31481 0.68815 0.58714 0.0
C842 C 0.3287 0.69462 0.64934 0.0
C843 C 0.34521 0.68589 0.638 0.0
C844 C 0.34656 0.6784 0.601 0.0
H845 H 0.4289 0.65656 0.81165 0.0
H846 H 0.4091 0.65485 0.75446 0.0
C847 C 0.33148 0.67954 0.5757 0.0
C848 C 0.36067 0.68418 0.66575 0.0
H849 H 0.40406 0.70052 0.68672 0.0
C850 C 0.3577 0.67373 0.69917 0.0
C851 C 0.37764 0.69379 0.66084 0.0
C852 C 0.38127 0.70555 0.62578 0.0
C853 C 0.37108 0.67298 0.72838 0.0
C854 C 0.38798 0.68277 0.72373 0.0
C855 C 0.39114 0.69291 0.68993 0.0
C856 C 0.40171 0.68399 0.75522 0.0
C857 C 0.36671 0.66239 0.76469 0.0
C858 C 0.40461 0.70107 0.77359 0.0
C859 C 0.41595 0.70211 0.80601 0.0
C860 C 0.42465 0.68608 0.82059 0.0
C861 C 0.42242 0.66914 0.80103 0.0
C862 C 0.41103 0.66811 0.76857 0.0
H863 H 0.35182 0.65842 0.76641 0.0
H864 H 0.37515 0.64949 0.7656 0.0
H865 H 0.37029 0.6708 0.79035 0.0
H866 H 0.39759 0.71349 0.76358 0.0
H867 H 0.41766 0.71541 0.82008 0.0
H868 H 0.72716 0.82602 0.11262 0.0
H869 H 0.71242 0.84629 0.16005 0.0
H870 H 0.74057 0.8937 0.11164 0.0
H871 H 0.75551 0.87359 0.06426 0.0
H872 H 0.73632 0.87055 0.21159 0.0
H873 H 0.68342 0.9089 0.12576 0.0
H874 H 0.69178 0.88613 0.11225 0.0
H875 H 0.70624 0.90614 0.10532 0.0
C876 C 0.73003 0.84079 0.11169 0.0
C877 C 0.74262 0.84818 0.08483 0.0
C878 C 0.72159 0.85233 0.13878 0.0
C879 C 0.72534 0.87145 0.13905 0.0
C880 C 0.73737 0.87898 0.11154 0.0
H881 H 0.69925 0.96353 0.28987 0.0
H882 H 0.70701 0.94378 0.23477 0.0
C883 C 0.74597 0.86745 0.08468 0.0
C884 C 0.71808 0.88326 0.17027 0.0
H885 H 0.68801 0.91868 0.18988 0.0
C886 C 0.72566 0.88099 0.20701 0.0
C887 C 0.70441 0.89699 0.16383 0.0
C888 C 0.69584 0.89973 0.12474 0.0
C889 C 0.72013 0.89234 0.23759 0.0
C890 C 0.70618 0.90592 0.23145 0.0
C891 C 0.6986 0.90819 0.19457 0.0
C892 C 0.69956 0.91802 0.26301 0.0
C893 C 0.72974 0.89002 0.27584 0.0
C894 C 0.69214 0.91015 0.29652 0.0
C895 C 0.68793 0.92134 0.32799 0.0
C896 C 0.69069 0.94065 0.32625 0.0
C897 C 0.69697 0.94867 0.29187 0.0
C898 C 0.70143 0.93742 0.26048 0.0
H899 H 0.74342 0.88302 0.27279 0.0
H900 H 0.73195 0.90366 0.29002 0.0
H901 H 0.72098 0.88128 0.29485 0.0
H902 H 0.69008 0.89527 0.2987 0.0
H903 H 0.68282 0.91486 0.354 0.0
H904 H 0.66808 0.33462 0.54729 0.0
H905 H 0.64209 0.33731 0.59227 0.0
H906 H 0.67176 0.30355 0.67428 0.0
H907 H 0.69767 0.30062 0.62964 0.0
H908 H 0.63367 0.29397 0.66497 0.0
H909 H 0.6442 0.36959 0.69065 0.0
H910 H 0.64161 0.36257 0.64144 0.0
H911 H 0.66163 0.3552 0.66823 0.0
C912 C 0.66905 0.3277 0.57483 0.0
C913 C 0.68505 0.31755 0.585 0.0
C914 C 0.65422 0.32932 0.60052 0.0
C915 C 0.65516 0.32084 0.63674 0.0
C916 C 0.67083 0.31026 0.64649 0.0
H917 H 0.60225 0.33787 0.85217 0.0
H918 H 0.62237 0.3366 0.79588 0.0
C919 C 0.68564 0.30865 0.62094 0.0
C920 C 0.64005 0.32319 0.66507 0.0
H921 H 0.61975 0.35508 0.72409 0.0
C922 C 0.63046 0.30734 0.67767 0.0
C923 C 0.6361 0.34065 0.68176 0.0
C924 C 0.64648 0.358 0.67016 0.0
C925 C 0.61721 0.30842 0.70709 0.0
C926 C 0.61333 0.32587 0.72392 0.0
C927 C 0.62269 0.34177 0.71086 0.0
C928 C 0.60065 0.32766 0.75709 0.0
C929 C 0.60803 0.2908 0.72098 0.0
C930 C 0.5817 0.3234 0.7537 0.0
C931 C 0.57011 0.32418 0.78584 0.0
C932 C 0.5773 0.32935 0.82186 0.0
C933 C 0.59621 0.33408 0.82481 0.0
C934 C 0.60775 0.33328 0.79271 0.0
H935 H 0.61518 0.27817 0.71017 0.0
H936 H 0.60782 0.2903 0.75282 0.0
H937 H 0.59343 0.29046 0.7107 0.0
H938 H 0.5759 0.31934 0.72627 0.0
H939 H 0.55555 0.32074 0.78252 0.0
H940 H 0.27715 0.17675 0.10274 0.0
H941 H 0.29098 0.15613 0.15083 0.0
H942 H 0.25114 0.11356 0.12232 0.0
H943 H 0.23714 0.13402 0.07438 0.0
H944 H 0.25334 0.12225 0.20133 0.0
H945 H 0.32299 0.10855 0.13868 0.0
H946 H 0.3164 0.13262 0.14129 0.0
H947 H 0.30371 0.11715 0.11052 0.0
C948 C 0.27145 0.16292 0.10635 0.0
C949 C 0.25595 0.15709 0.0848 0.0
C950 C 0.27945 0.15113 0.13371 0.0
C951 C 0.27217 0.13328 0.13987 0.0
C952 C 0.257 0.12727 0.11786 0.0
H953 H 0.31061 0.04279 0.28492 0.0
H954 H 0.30141 0.06257 0.23076 0.0
C955 C 0.24902 0.139 0.09047 0.0
C956 C 0.27941 0.12137 0.17117 0.0
H957 H 0.31792 0.09802 0.20247 0.0
C958 C 0.26744 0.11691 0.20155 0.0
C959 C 0.29778 0.11436 0.17118 0.0
C960 C 0.31097 0.11825 0.13856 0.0
C961 C 0.2734 0.10579 0.23225 0.0
C962 C 0.29188 0.09911 0.23271 0.0
C963 C 0.30381 0.10332 0.20209 0.0
C964 C 0.29886 0.08756 0.26476 0.0
C965 C 0.25984 0.1011 0.26382 0.0
C966 C 0.30082 0.09519 0.30152 0.0
C967 C 0.30601 0.08396 0.33245 0.0
C968 C 0.30934 0.06487 0.32715 0.0
C969 C 0.30792 0.0574 0.28998 0.0
C970 C 0.3028 0.06868 0.25901 0.0
H971 H 0.24526 0.10413 0.25536 0.0
H972 H 0.26093 0.0862 0.27185 0.0
H973 H 0.26319 0.1095 0.2896 0.0
H974 H 0.29796 0.10978 0.30641 0.0
H975 H 0.30681 0.09012 0.36074 0.0
H976 H 0.22327 0.26139 0.94423 0.0
H977 H 0.21337 0.29386 0.94681 0.0
H978 H 0.19843 0.28719 0.06574 0.0
H979 H 0.20835 0.25465 0.06361 0.0
H980 H 0.17736 0.30953 0.96965 0.0
H981 H 0.23634 0.33133 0.06283 0.0
H982 H 0.23649 0.30978 0.03633 0.0
H983 H 0.22287 0.31181 0.07922 0.0
C984 C 0.21784 0.26678 0.97096 0.0
C985 C 0.21679 0.25545 0.00384 0.0
C986 C 0.21214 0.28532 0.97231 0.0
C987 C 0.20539 0.29293 0.00655 0.0
C988 C 0.20383 0.28159 0.03917 0.0
H989 H 0.18069 0.40753 0.06776 0.0
H990 H 0.18416 0.37369 0.06817 0.0
C991 C 0.20946 0.26299 0.03784 0.0
C992 C 0.20049 0.31289 0.00826 0.0
H993 H 0.21448 0.35429 0.04612 0.0
C994 C 0.18541 0.31935 0.98643 0.0
C995 C 0.21103 0.32558 0.03024 0.0
C996 C 0.22768 0.3194 0.05333 0.0
C997 C 0.18052 0.33825 0.98615 0.0
C998 C 0.19129 0.35103 0.00757 0.0
C999 C 0.20623 0.34448 0.02976 0.0
C1000 C 0.18771 0.37134 0.00673 0.0
C1001 C 0.16373 0.3443 0.96335 0.0
C1002 C 0.18851 0.38126 0.97205 0.0
C1003 C 0.18648 0.40059 0.97173 0.0
C1004 C 0.18387 0.41038 0.00617 0.0
C1005 C 0.18286 0.40038 0.04081 0.0
C1006 C 0.18477 0.38106 0.04107 0.0
H1007 H 0.15396 0.33257 0.95858 0.0
H1008 H 0.15617 0.3557 0.97802 0.0
H1009 H 0.16831 0.34941 0.93485 0.0
H1010 H 0.19125 0.37412 0.94532 0.0
H1011 H 0.18761 0.40793 0.94468 0.0
H1012 H 0.20907 0.71815 0.43905 0.0
H1013 H 0.17819 0.7324 0.43798 0.0
H1014 H 0.18283 0.74462 0.5587 0.0
H1015 H 0.21381 0.73079 0.55995 0.0
H1016 H 0.14649 0.72377 0.47803 0.0
H1017 H 0.16996 0.79512 0.51383 0.0
H1018 H 0.18588 0.77699 0.49975 0.0
H1019 H 0.17723 0.77796 0.54811 0.0
C1020 C 0.20353 0.72387 0.4654 0.0
C1021 C 0.214 0.72352 0.4995 0.0
C1022 C 0.18589 0.73201 0.46471 0.0
C1023 C 0.17841 0.73992 0.49806 0.0
C1024 C 0.18856 0.73905 0.5324 0.0
H1025 H 0.07289 0.79004 0.55708 0.0
H1026 H 0.10409 0.77648 0.55715 0.0
C1027 C 0.20623 0.73103 0.53309 0.0
C1028 C 0.15989 0.74888 0.49708 0.0
H1029 H 0.13732 0.78973 0.51489 0.0
C1030 C 0.14449 0.73821 0.48585 0.0
C1031 C 0.15736 0.76776 0.50724 0.0
C1032 C 0.1735 0.78019 0.51755 0.0
C1033 C 0.12654 0.74582 0.48526 0.0
C1034 C 0.12401 0.7646 0.49586 0.0
C1035 C 0.13937 0.7753 0.50696 0.0
C1036 C 0.10545 0.77338 0.49553 0.0
C1037 C 0.11034 0.73367 0.47399 0.0
C1038 C 0.09614 0.77645 0.46076 0.0
C1039 C 0.07842 0.78437 0.46055 0.0
C1040 C 0.06969 0.78934 0.49515 0.0
C1041 C 0.07928 0.78656 0.52991 0.0
C1042 C 0.09704 0.77872 0.53005 0.0
H1043 H 0.11411 0.71869 0.47389 0.0
H1044 H 0.09848 0.73576 0.49387 0.0
H1045 H 0.10564 0.73753 0.4447 0.0
H1046 H 0.10259 0.7727 0.4338 0.0
H1047 H 0.07159 0.78665 0.43324 0.0
H1048 H 0.77879 0.74654 0.94122 0.0
H1049 H 0.78856 0.71401 0.94317 0.0
H1050 H 0.80331 0.7198 0.06244 0.0
H1051 H 0.79352 0.75238 0.06095 0.0
H1052 H 0.8243 0.6977 0.96625 0.0
H1053 H 0.76485 0.67621 0.05821 0.0
H1054 H 0.76507 0.69791 0.03212 0.0
H1055 H 0.77852 0.69544 0.07523 0.0
C1056 C 0.78418 0.74095 0.96788 0.0
C1057 C 0.78518 0.75204 0.00105 0.0
C1058 C 0.78981 0.72237 0.96886 0.0
C1059 C 0.79642 0.71449 0.00305 0.0
C1060 C 0.798 0.72561 0.03591 0.0
H1061 H 0.82019 0.59963 0.06418 0.0
H1062 H 0.81679 0.63347 0.06448 0.0
C1063 C 0.79245 0.74423 0.03495 0.0
C1064 C 0.80107 0.69446 0.00451 0.0
H1065 H 0.78658 0.65309 0.04192 0.0
C1066 C 0.81612 0.68791 0.98284 0.0
C1067 C 0.79034 0.6818 0.02623 0.0
C1068 C 0.7737 0.68808 0.0491 0.0
C1069 C 0.82082 0.66896 0.98252 0.0
C1070 C 0.80989 0.65623 0.00375 0.0
C1071 C 0.79496 0.66286 0.02572 0.0
C1072 C 0.81333 0.63589 0.003 0.0
C1073 C 0.8376 0.66281 0.95994 0.0
C1074 C 0.81253 0.62601 0.96833 0.0
C1075 C 0.81451 0.60668 0.96807 0.0
C1076 C 0.81707 0.59684 0.00256 0.0
C1077 C 0.81805 0.6068 0.03719 0.0
C1078 C 0.81618 0.62613 0.03739 0.0
H1079 H 0.84746 0.67447 0.95522 0.0
H1080 H 0.84505 0.65134 0.97475 0.0
H1081 H 0.83302 0.65773 0.93141 0.0
H1082 H 0.80985 0.63318 0.94155 0.0
H1083 H 0.81341 0.59937 0.94102 0.0
H1084 H 0.79298 0.29302 0.44148 0.0
H1085 H 0.82439 0.28003 0.44079 0.0
H1086 H 0.8161 0.25783 0.55446 0.0
H1087 H 0.78479 0.27094 0.55573 0.0
H1088 H 0.85019 0.27562 0.5452 0.0
H1089 H 0.83721 0.22473 0.42859 0.0
H1090 H 0.83139 0.2483 0.41649 0.0
H1091 H 0.81866 0.23649 0.45355 0.0
C1092 C 0.79782 0.28538 0.46636 0.0
C1093 C 0.7863 0.2829 0.49856 0.0
C1094 C 0.81574 0.27788 0.4658 0.0
C1095 C 0.82241 0.2677 0.4973 0.0
C1096 C 0.81113 0.26555 0.52977 0.0
H1097 H 0.9193 0.19558 0.50305 0.0
H1098 H 0.88783 0.20852 0.50579 0.0
C1099 C 0.79324 0.27304 0.5304 0.0
C1100 C 0.84124 0.25944 0.49666 0.0
H1101 H 0.86851 0.22829 0.44901 0.0
C1102 C 0.85421 0.26524 0.52424 0.0
C1103 C 0.84631 0.24571 0.46962 0.0
C1104 C 0.83263 0.23828 0.44058 0.0
C1105 C 0.87227 0.25791 0.5251 0.0
C1106 C 0.87753 0.24464 0.49725 0.0
C1107 C 0.86446 0.23859 0.47009 0.0
C1108 C 0.89656 0.23689 0.49579 0.0
C1109 C 0.88547 0.26421 0.55614 0.0
C1110 C 0.9118 0.24855 0.48883 0.0
C1111 C 0.92976 0.24124 0.48749 0.0
C1112 C 0.9328 0.22209 0.49281 0.0
C1113 C 0.91744 0.21042 0.49935 0.0
C1114 C 0.89947 0.21775 0.50068 0.0
H1115 H 0.87796 0.27051 0.58073 0.0
H1116 H 0.894 0.25243 0.56689 0.0
H1117 H 0.89501 0.27487 0.54422 0.0
H1118 H 0.9098 0.26332 0.48435 0.0
H1119 H 0.9413 0.25064 0.48276 0.0
H1120 H 0.72113 0.24584 0.44345 0.0
H1121 H 0.71209 0.21316 0.44417 0.0
H1122 H 0.70023 0.21681 0.56517 0.0
H1123 H 0.70893 0.24971 0.56462 0.0
H1124 H 0.72902 0.18577 0.48559 0.0
H1125 H 0.65437 0.19015 0.5248 0.0
H1126 H 0.66749 0.21008 0.50875 0.0
H1127 H 0.66972 0.20194 0.55733 0.0
C1128 C 0.71641 0.23978 0.47019 0.0
C1129 C 0.71582 0.2504 0.50402 0.0
C1130 C 0.71124 0.22109 0.47052 0.0
C1131 C 0.70533 0.21258 0.50461 0.0
C1132 C 0.70439 0.22318 0.53835 0.0
H1133 H 0.68414 0.09669 0.56229 0.0
H1134 H 0.6884 0.13045 0.56398 0.0
C1135 C 0.70947 0.24196 0.53802 0.0
C1136 C 0.7014 0.19233 0.50511 0.0
H1137 H 0.66783 0.15997 0.52387 0.0
C1138 C 0.71561 0.18015 0.4938 0.0
C1139 C 0.68392 0.18502 0.51605 0.0
C1140 C 0.66793 0.19746 0.5271 0.0
C1141 C 0.71287 0.16086 0.49327 0.0
C1142 C 0.69538 0.15356 0.50392 0.0
C1143 C 0.68121 0.16567 0.51568 0.0
C1144 C 0.6916 0.13334 0.50261 0.0
C1145 C 0.72879 0.1484 0.48179 0.0
C1146 C 0.69159 0.12391 0.46743 0.0
C1147 C 0.68904 0.10467 0.4663 0.0
C1148 C 0.68643 0.09448 0.50036 0.0
C1149 C 0.68594 0.1041 0.53549 0.0
C1150 C 0.68845 0.12338 0.53657 0.0
H1151 H 0.74234 0.15578 0.48285 0.0
H1152 H 0.72954 0.136 0.50076 0.0
H1153 H 0.72655 0.14349 0.45197 0.0
H1154 H 0.6937 0.13143 0.44085 0.0
H1155 H 0.68912 0.09777 0.43871 0.0
H1156 H 0.28977 0.22296 0.93434 0.0
H1157 H 0.32108 0.23611 0.9349 0.0
H1158 H 0.32107 0.23528 0.05868 0.0
H1159 H 0.28946 0.22281 0.05833 0.0
H1160 H 0.33341 0.2674 0.03333 0.0
H1161 H 0.36982 0.21137 0.95489 0.0
H1162 H 0.35081 0.2208 0.92786 0.0
H1163 H 0.34637 0.20877 0.97228 0.0
C1164 C 0.29651 0.22542 0.96168 0.0
C1165 C 0.28717 0.22183 0.99631 0.0
C1166 C 0.31446 0.23283 0.96195 0.0
C1167 C 0.32357 0.23638 0.99683 0.0
C1168 C 0.31433 0.23262 0.03142 0.0
H1169 H 0.44123 0.2598 0.01845 0.0
H1170 H 0.41027 0.2461 0.01913 0.0
C1171 C 0.29628 0.22548 0.03119 0.0
C1172 C 0.3424 0.2448 0.99738 0.0
H1173 H 0.38653 0.23972 0.96321 0.0
C1174 C 0.34506 0.26128 0.0182 0.0
C1175 C 0.35765 0.23669 0.97803 0.0
C1176 C 0.35609 0.21833 0.95735 0.0
C1177 C 0.3625 0.26997 0.01997 0.0
C1178 C 0.37755 0.2623 0.99923 0.0
C1179 C 0.37493 0.24572 0.97871 0.0
C1180 C 0.39628 0.27094 0.99924 0.0
C1181 C 0.36466 0.287 0.04483 0.0
C1182 C 0.39877 0.28945 0.98753 0.0
C1183 C 0.41645 0.29751 0.98802 0.0
C1184 C 0.43206 0.2871 0.99952 0.0
C1185 C 0.42952 0.26841 0.01032 0.0
C1186 C 0.41183 0.26046 0.01032 0.0
H1187 H 0.35376 0.28763 0.06733 0.0
H1188 H 0.37848 0.2873 0.05901 0.0
H1189 H 0.36327 0.29962 0.02673 0.0
H1190 H 0.38705 0.29768 0.97791 0.0
H1191 H 0.41781 0.31196 0.97975 0.0
H1192 H 0.27572 0.76158 0.44883 0.0
H1193 H 0.28596 0.79387 0.45073 0.0
H1194 H 0.30656 0.78594 0.56581 0.0
H1195 H 0.29611 0.75356 0.56446 0.0
H1196 H 0.28466 0.81705 0.55858 0.0
H1197 H 0.33793 0.816 0.44413 0.0
H1198 H 0.31602 0.80674 0.42858 0.0
H1199 H 0.3289 0.79504 0.46573 0.0
C1200 C 0.28258 0.7666 0.47448 0.0
C1201 C 0.28504 0.75495 0.50655 0.0
C1202 C 0.28856 0.78506 0.47538 0.0
C1203 C 0.29727 0.79224 0.50819 0.0
C1204 C 0.29996 0.78063 0.54011 0.0
H1205 H 0.34447 0.90463 0.51184 0.0
H1206 H 0.34068 0.87086 0.51685 0.0
C1207 C 0.29398 0.76213 0.53927 0.0
C1208 C 0.30241 0.81218 0.50991 0.0
H1209 H 0.32662 0.84603 0.46279 0.0
C1210 C 0.29401 0.82335 0.53792 0.0
C1211 C 0.3148 0.82034 0.48328 0.0
C1212 C 0.32508 0.80888 0.45397 0.0
C1213 C 0.29706 0.84261 0.53903 0.0
C1214 C 0.30857 0.85092 0.51097 0.0
C1215 C 0.31761 0.83965 0.48397 0.0
C1216 C 0.31089 0.87136 0.50838 0.0
C1217 C 0.28788 0.85387 0.57018 0.0
C1218 C 0.29544 0.88277 0.50146 0.0
C1219 C 0.29753 0.90202 0.49878 0.0
C1220 C 0.31517 0.91026 0.50269 0.0
C1221 C 0.33067 0.89875 0.5092 0.0
C1222 C 0.32856 0.87946 0.51185 0.0
H1223 H 0.2842 0.8451 0.59531 0.0
H1224 H 0.29705 0.86535 0.57997 0.0
H1225 H 0.27485 0.86005 0.55881 0.0
H1226 H 0.28173 0.87678 0.49797 0.0
H1227 H 0.28528 0.91048 0.49414 0.0
H1228 H 0.714 0.7763 0.05404 0.0
H1229 H 0.68271 0.76309 0.05294 0.0
H1230 H 0.67791 0.77618 0.93261 0.0
H1231 H 0.70926 0.78947 0.93328 0.0
H1232 H 0.64827 0.78189 0.02789 0.0
H1233 H 0.66612 0.71898 0.94272 0.0
H1234 H 0.68345 0.73242 0.96798 0.0
H1235 H 0.67373 0.74102 0.92399 0.0
C1236 C 0.70633 0.77639 0.02729 0.0
C1237 C 0.71418 0.78384 0.99368 0.0
C1238 C 0.68845 0.76885 0.02677 0.0
C1239 C 0.67817 0.76849 0.99262 0.0
C1240 C 0.68579 0.77614 0.95912 0.0
H1241 H 0.56958 0.7226 0.93764 0.0
H1242 H 0.60071 0.7363 0.93512 0.0
C1243 C 0.70365 0.78379 0.95964 0.0
C1244 C 0.65939 0.76019 0.99229 0.0
H1245 H 0.63461 0.72305 0.95933 0.0
C1246 C 0.64523 0.76904 0.01292 0.0
C1247 C 0.65557 0.74347 0.97256 0.0
C1248 C 0.67049 0.73327 0.9507 0.0
C1249 C 0.6272 0.76165 0.01416 0.0
C1250 C 0.62342 0.74472 0.99504 0.0
C1251 C 0.63757 0.73598 0.97406 0.0
C1252 C 0.60487 0.73584 0.99661 0.0
C1253 C 0.6123 0.77225 0.03534 0.0
C1254 C 0.59711 0.73062 0.03194 0.0
C1255 C 0.57935 0.72284 0.03346 0.0
C1256 C 0.56913 0.7199 0.99962 0.0
C1257 C 0.57719 0.72457 0.96416 0.0
C1258 C 0.59491 0.73247 0.96269 0.0
H1259 H 0.61602 0.78714 0.03874 0.0
H1260 H 0.59875 0.77134 0.02019 0.0
H1261 H 0.61061 0.7662 0.06443 0.0
H1262 H 0.60477 0.73263 0.05837 0.0
H1263 H 0.57361 0.71909 0.06112 0.0
loop_
_geom_bond_atom_site_label_1
_geom_bond_atom_site_label_2
_geom_bond_distance
_geom_bond_site_symmetry_2
_ccdc_geom_bond_type
Fe0 O2 1.939 . S
Fe0 O5 1.997 . S
Fe0 O6 2.002 . S
Fe0 O11 1.976 . S
Fe0 O14 1.996 . S
Fe1 O2 1.898 1_556 S
Fe1 O9 1.997 . S
Fe1 O12 1.996 . S
Fe1 O16 1.976 . S
Fe1 O19 2.002 . S
O2 Fe0 1.939 . S
O2 Fe1 1.898 1_554 S
O2 Fe3 1.918 . S
Fe3 O2 1.918 . S
Fe3 O4 2.011 . S
Fe3 O13 1.984 . S
Fe3 O17 1.987 1_554 S
Fe3 O20 1.988 1_554 S
O4 Fe3 2.011 . S
O4 C21 1.295 . S
O5 Fe0 1.997 . S
O5 C21 1.235 . S
O6 Fe0 2.002 . S
O6 C7 1.295 . S
C7 O6 1.295 . S
C7 O9 1.235 1_554 S
C8 O13 1.287 . S
C8 O14 1.255 . S
O9 Fe1 1.997 . S
O9 C7 1.235 1_556 S
C10 O16 1.287 . S
C10 O17 1.255 . S
O11 Fe0 1.976 . S
O11 C18 1.280 1_554 S
O12 Fe1 1.996 . S
O12 C18 1.261 . S
O13 Fe3 1.984 . S
O13 C8 1.287 . S
O14 Fe0 1.996 . S
O14 C8 1.255 . S
C15 O19 1.295 . S
C15 O20 1.235 . S
O16 Fe1 1.976 . S
O16 C10 1.287 . S
O17 Fe3 1.987 1_556 S
O17 C10 1.255 . S
C18 O11 1.280 1_556 S
C18 O12 1.261 . S
O19 Fe1 2.002 . S
O19 C15 1.295 . S
O20 Fe3 1.988 1_556 S
O20 C15 1.235 . S
C21 O4 1.295 . S
C21 O5 1.235 . S
Fe22 O24 1.918 . S
Fe22 O27 1.997 . S
Fe22 O28 2.002 . S
Fe22 O33 1.976 . S
Fe22 O36 1.996 . S
Fe23 O24 1.918 . S
Fe23 O31 1.997 . S
Fe23 O34 1.996 . S
Fe23 O38 1.976 . S
Fe23 O41 2.002 . S
O24 Fe22 1.918 . S
O24 Fe23 1.918 . S
O24 Fe25 1.918 . S
Fe25 O24 1.918 . S
Fe25 O26 2.002 . S
Fe25 O35 1.976 . S
Fe25 O39 1.996 . S
Fe25 O42 1.997 . S
O26 Fe25 2.002 . S
O26 C43 1.295 . S
O27 Fe22 1.997 . S
O27 C43 1.235 . S
O28 Fe22 2.002 . S
O28 C29 1.295 . S
C29 O28 1.295 . S
C29 O31 1.235 . S
C30 O35 1.287 . S
C30 O36 1.255 . S
O31 Fe23 1.997 . S
O31 C29 1.235 . S
C32 O38 1.287 . S
C32 O39 1.255 . S
O33 Fe22 1.976 . S
O33 C40 1.287 . S
O34 Fe23 1.996 . S
O34 C40 1.255 . S
O35 Fe25 1.976 . S
O35 C30 1.287 . S
O36 Fe22 1.996 . S
O36 C30 1.255 . S
C37 O41 1.295 . S
C37 O42 1.235 . S
O38 Fe23 1.976 . S
O38 C32 1.287 . S
O39 Fe25 1.996 . S
O39 C32 1.255 . S
C40 O33 1.287 . S
C40 O34 1.255 . S
O41 Fe23 2.002 . S
O41 C37 1.295 . S
O42 Fe25 1.997 . S
O42 C37 1.235 . S
C43 O26 1.295 . S
C43 O27 1.235 . S
Fe44 O46 1.904 1_556 S
Fe44 O49 1.997 . S
Fe44 O50 2.002 . S
Fe44 O55 1.976 . S
Fe44 O58 1.996 . S
Fe45 O46 1.932 . S
Fe45 O53 1.997 . S
Fe45 O56 1.996 . S
Fe45 O60 1.976 . S
Fe45 O63 2.002 . S
O46 Fe44 1.904 1_554 S
O46 Fe45 1.932 . S
O46 Fe47 1.918 . S
Fe47 O46 1.918 . S
Fe47 O48 1.984 1_554 S
Fe47 O57 1.957 1_554 S
Fe47 O61 2.015 . S
Fe47 O64 2.016 . S
O48 Fe47 1.984 1_556 S
O48 C65 1.295 . S
O49 Fe44 1.997 . S
O49 C65 1.235 . S
O50 Fe44 2.002 . S
O50 C51 1.307 . S
C51 O50 1.307 . S
C51 O53 1.224 1_556 S
C52 O57 1.287 . S
C52 O58 1.255 . S
O53 Fe45 1.997 . S
O53 C51 1.224 1_554 S
C54 O60 1.287 . S
C54 O61 1.255 . S
O55 Fe44 1.976 . S
O55 C62 1.287 1_556 S
O56 Fe45 1.996 . S
O56 C62 1.255 . S
O57 Fe47 1.957 1_556 S
O57 C52 1.287 . S
O58 Fe44 1.996 . S
O58 C52 1.255 . S
C59 O63 1.295 . S
C59 O64 1.235 . S
O60 Fe45 1.976 . S
O60 C54 1.287 . S
O61 Fe47 2.015 . S
O61 C54 1.255 . S
C62 O55 1.287 1_554 S
C62 O56 1.255 . S
O63 Fe45 2.002 . S
O63 C59 1.295 . S
O64 Fe47 2.016 . S
O64 C59 1.235 . S
C65 O48 1.295 . S
C65 O49 1.235 . S
Fe66 O68 1.918 . S
Fe66 O71 1.997 . S
Fe66 O72 2.002 . S
Fe66 O77 1.976 . S
Fe66 O80 1.996 . S
Fe67 O68 1.918 . S
Fe67 O75 1.997 . S
Fe67 O78 1.996 . S
Fe67 O82 1.976 . S
Fe67 O85 2.002 . S
O68 Fe66 1.918 . S
O68 Fe67 1.918 . S
O68 Fe69 1.918 . S
Fe69 O68 1.918 . S
Fe69 O70 2.002 . S
Fe69 O79 1.976 . S
Fe69 O83 1.996 . S
Fe69 O86 1.997 . S
O70 Fe69 2.002 . S
O70 C87 1.295 . S
O71 Fe66 1.997 . S
O71 C87 1.235 . S
O72 Fe66 2.002 . S
O72 C73 1.295 . S
C73 O72 1.295 . S
C73 O75 1.235 . S
C74 O79 1.287 . S
C74 O80 1.255 . S
O75 Fe67 1.997 . S
O75 C73 1.235 . S
C76 O82 1.287 . S
C76 O83 1.255 . S
O77 Fe66 1.976 . S
O77 C84 1.287 . S
O78 Fe67 1.996 . S
O78 C84 1.255 . S
O79 Fe69 1.976 . S
O79 C74 1.287 . S
O80 Fe66 1.996 . S
O80 C74 1.255 . S
C81 O85 1.295 . S
C81 O86 1.235 . S
O82 Fe67 1.976 . S
O82 C76 1.287 . S
O83 Fe69 1.996 . S
O83 C76 1.255 . S
C84 O77 1.287 . S
C84 O78 1.255 . S
O85 Fe67 2.002 . S
O85 C81 1.295 . S
O86 Fe69 1.997 . S
O86 C81 1.235 . S
C87 O70 1.295 . S
C87 O71 1.235 . S
C88 C89 1.386 . S
C88 C90 1.397 . S
C88 H112 0.931 . S
C89 C88 1.386 . S
C89 C93 1.397 . S
C90 C88 1.397 . S
C90 C91 1.384 . S
C90 H113 0.930 . S
C91 C90 1.384 . S
C91 C92 1.377 . S
C91 C94 1.481 . S
C92 C91 1.377 . S
C92 C93 1.389 . S
C92 H114 0.929 . S
C93 C89 1.397 . S
C93 C92 1.389 . S
C93 H115 0.931 . S
C94 C91 1.481 . S
C94 C95 1.387 . S
C94 C99 1.390 1_556 S
C95 C94 1.387 . S
C95 C96 1.401 1_556 S
C95 H116 0.930 . S
C96 C95 1.401 1_554 S
C96 C97 1.376 . S
C96 C105 1.511 . S
C97 C96 1.376 . S
C97 C98 1.392 . S
C97 H118 0.931 . S
C98 C97 1.392 . S
C98 C99 1.361 . S
C98 C100 1.500 . S
C99 C94 1.390 1_554 S
C99 C98 1.361 . S
C99 H117 0.931 . S
C100 C98 1.500 . S
C100 C101 1.371 . S
C100 C102 1.365 . S
C101 C100 1.371 . S
C101 C111 1.386 . S
C101 H119 0.931 . S
C102 C100 1.365 . S
C102 C103 1.409 . S
C102 H120 0.929 . S
C103 C102 1.409 . S
C103 C104 1.380 . S
C103 H121 0.930 . S
C104 C103 1.380 . S
C104 C111 1.357 . S
C105 C96 1.511 . S
C105 C106 1.341 1_554 S
C105 C107 1.371 . S
C106 C105 1.341 1_556 S
C106 C110 1.394 . S
C106 H122 0.930 . S
C107 C105 1.371 . S
C107 C108 1.392 . S
C107 H123 0.931 . S
C108 C107 1.392 . S
C108 C109 1.355 . S
C108 H126 0.932 . S
C109 C108 1.355 . S
C109 C110 1.312 1_554 S
C110 C106 1.394 . S
C110 C109 1.312 1_556 S
C110 H125 0.929 . S
C111 C101 1.386 . S
C111 C104 1.357 . S
C111 H124 0.928 . S
H112 C88 0.931 . S
H113 C90 0.930 . S
H114 C92 0.929 . S
H115 C93 0.931 . S
H116 C95 0.930 . S
H117 C99 0.931 . S
H118 C97 0.931 . S
H119 C101 0.931 . S
H120 C102 0.929 . S
H121 C103 0.930 . S
H122 C106 0.930 . S
H123 C107 0.931 . S
H124 C111 0.928 . S
H125 C110 0.929 . S
H126 C108 0.932 . S
C127 C128 1.386 . S
C127 C129 1.397 . S
C127 H151 0.931 . S
C128 C127 1.386 . S
C128 C132 1.397 . S
C129 C127 1.397 . S
C129 C130 1.384 . S
C129 H152 0.930 . S
C130 C129 1.384 . S
C130 C131 1.377 . S
C130 C133 1.481 . S
C131 C130 1.377 . S
C131 C132 1.389 . S
C131 H153 0.929 . S
C132 C128 1.397 . S
C132 C131 1.389 . S
C132 H154 0.931 . S
C133 C130 1.481 . S
C133 C134 1.387 . S
C133 C138 1.390 . S
C134 C133 1.387 . S
C134 C135 1.387 1_655 S
C134 H155 0.930 . S
C135 C134 1.387 1_455 S
C135 C136 1.362 1_455 S
C135 C144 1.538 . S
C136 C135 1.362 1_655 S
C136 C137 1.392 . S
C136 H157 0.931 . S
C137 C136 1.392 . S
C137 C138 1.361 . S
C137 C139 1.500 . S
C138 C133 1.390 . S
C138 C137 1.361 . S
C138 H156 0.931 . S
C139 C137 1.500 . S
C139 C140 1.371 . S
C139 C141 1.365 . S
C140 C139 1.371 . S
C140 C150 1.386 . S
C140 H158 0.931 . S
C141 C139 1.365 . S
C141 C142 1.409 . S
C141 H159 0.929 . S
C142 C141 1.409 . S
C142 C143 1.380 . S
C142 H160 0.930 . S
C143 C142 1.380 . S
C143 C150 1.357 . S
C144 C135 1.538 . S
C144 C145 1.341 . S
C144 C146 1.371 . S
C145 C144 1.341 . S
C145 C149 1.394 . S
C145 H161 0.930 . S
C146 C144 1.371 . S
C146 C147 1.392 . S
C146 H162 0.931 . S
C147 C146 1.392 . S
C147 C148 1.331 . S
C147 H165 0.932 . S
C148 C147 1.331 . S
C148 C149 1.336 . S
C149 C145 1.394 . S
C149 C148 1.336 . S
C149 H164 0.929 . S
C150 C140 1.386 . S
C150 C143 1.357 . S
C150 H163 0.928 . S
H151 C127 0.931 . S
H152 C129 0.930 . S
H153 C131 0.929 . S
H154 C132 0.931 . S
H155 C134 0.930 . S
H156 C138 0.931 . S
H157 C136 0.931 . S
H158 C140 0.931 . S
H159 C141 0.929 . S
H160 C142 0.930 . S
H161 C145 0.930 . S
H162 C146 0.931 . S
H163 C150 0.928 . S
H164 C149 0.929 . S
H165 C147 0.932 . S
C166 C167 1.386 . S
C166 C168 1.397 . S
C166 H190 0.931 . S
C167 C166 1.386 . S
C167 C171 1.397 . S
C168 C166 1.397 . S
C168 C169 1.384 . S
C168 H191 0.930 . S
C169 C168 1.384 . S
C169 C170 1.377 . S
C169 C172 1.481 . S
C170 C169 1.377 . S
C170 C171 1.389 . S
C170 H192 0.929 . S
C171 C167 1.397 . S
C171 C170 1.389 . S
C171 H193 0.931 . S
C172 C169 1.481 . S
C172 C173 1.387 . S
C172 C177 1.393 . S
C173 C172 1.387 . S
C173 C174 1.385 1_554 S
C173 H194 0.930 . S
C174 C173 1.385 1_556 S
C174 C175 1.392 . S
C174 C183 1.511 . S
C175 C174 1.392 . S
C175 C176 1.392 . S
C175 H196 0.931 . S
C176 C175 1.392 . S
C176 C177 1.359 1_556 S
C176 C178 1.500 . S
C177 C172 1.393 . S
C177 C176 1.359 1_554 S
C177 H195 0.931 . S
C178 C176 1.500 . S
C178 C179 1.371 . S
C178 C180 1.365 . S
C179 C178 1.371 . S
C179 C189 1.386 . S
C179 H197 0.931 . S
C180 C178 1.365 . S
C180 C181 1.409 . S
C180 H198 0.929 . S
C181 C180 1.409 . S
C181 C182 1.380 . S
C181 H199 0.930 . S
C182 C181 1.380 . S
C182 C189 1.357 . S
C183 C174 1.511 . S
C183 C184 1.329 1_556 S
C183 C185 1.382 . S
C184 C183 1.329 1_554 S
C184 C188 1.394 . S
C184 H200 0.930 . S
C185 C183 1.382 . S
C185 C186 1.392 . S
C185 H201 0.931 . S
C186 C185 1.392 . S
C186 C187 1.322 1_556 S
C186 H204 0.932 . S
C187 C186 1.322 1_554 S
C187 C188 1.344 . S
C188 C184 1.394 . S
C188 C187 1.344 . S
C188 H203 0.929 . S
C189 C179 1.386 . S
C189 C182 1.357 . S
C189 H202 0.928 . S
H190 C166 0.931 . S
H191 C168 0.930 . S
H192 C170 0.929 . S
H193 C171 0.931 . S
H194 C173 0.930 . S
H195 C177 0.931 . S
H196 C175 0.931 . S
H197 C179 0.931 . S
H198 C180 0.929 . S
H199 C181 0.930 . S
H200 C184 0.930 . S
H201 C185 0.931 . S
H202 C189 0.928 . S
H203 C188 0.929 . S
H204 C186 0.932 . S
C205 C206 1.386 . S
C205 C207 1.397 . S
C205 H229 0.931 . S
C206 C205 1.386 . S
C206 C210 1.397 . S
C207 C205 1.397 . S
C207 C208 1.384 . S
C207 H230 0.930 . S
C208 C207 1.384 . S
C208 C209 1.377 . S
C208 C211 1.481 . S
C209 C208 1.377 . S
C209 C210 1.389 . S
C209 H231 0.929 . S
C210 C206 1.397 . S
C210 C209 1.389 . S
C210 H232 0.931 . S
C211 C208 1.481 . S
C211 C212 1.387 . S
C211 C216 1.390 . S
C212 C211 1.387 . S
C212 C213 1.401 . S
C212 H233 0.930 . S
C213 C212 1.401 . S
C213 C214 1.376 . S
C213 C222 1.511 1_455 S
C214 C213 1.376 . S
C214 C215 1.392 . S
C214 H235 0.931 . S
C215 C214 1.392 . S
C215 C216 1.361 . S
C215 C217 1.500 . S
C216 C211 1.390 . S
C216 C215 1.361 . S
C216 H234 0.931 . S
C217 C215 1.500 . S
C217 C218 1.371 . S
C217 C219 1.365 . S
C218 C217 1.371 . S
C218 C228 1.386 . S
C218 H236 0.931 . S
C219 C217 1.365 . S
C219 C220 1.409 . S
C219 H237 0.929 . S
C220 C219 1.409 . S
C220 C221 1.380 . S
C220 H238 0.930 . S
C221 C220 1.380 . S
C221 C228 1.357 . S
C222 C213 1.511 1_655 S
C222 C223 1.341 . S
C222 C224 1.371 . S
C223 C222 1.341 . S
C223 C227 1.394 . S
C223 H239 0.930 . S
C224 C222 1.371 . S
C224 C225 1.392 . S
C224 H240 0.931 . S
C225 C224 1.392 . S
C225 C226 1.331 . S
C225 H243 0.932 . S
C226 C225 1.331 . S
C226 C227 1.336 . S
C227 C223 1.394 . S
C227 C226 1.336 . S
C227 H242 0.929 . S
C228 C218 1.386 . S
C228 C221 1.357 . S
C228 H241 0.928 . S
H229 C205 0.931 . S
H230 C207 0.930 . S
H231 C209 0.929 . S
H232 C210 0.931 . S
H233 C212 0.930 . S
H234 C216 0.931 . S
H235 C214 0.931 . S
H236 C218 0.931 . S
H237 C219 0.929 . S
H238 C220 0.930 . S
H239 C223 0.930 . S
H240 C224 0.931 . S
H241 C228 0.928 . S
H242 C227 0.929 . S
H243 C225 0.932 . S
C244 C245 1.386 . S
C244 C246 1.397 . S
C244 H268 0.931 . S
C245 C244 1.386 . S
C245 C249 1.397 . S
C246 C244 1.397 . S
C246 C247 1.384 . S
C246 H269 0.930 . S
C247 C246 1.384 . S
C247 C248 1.377 . S
C247 C250 1.481 . S
C248 C247 1.377 . S
C248 C249 1.389 . S
C248 H270 0.929 . S
C249 C245 1.397 . S
C249 C248 1.389 . S
C249 H271 0.931 . S
C250 C247 1.481 . S
C250 C251 1.387 1_565 S
C250 C255 1.390 . S
C251 C250 1.387 1_545 S
C251 C252 1.401 . S
C251 H272 0.930 . S
C252 C251 1.401 . S
C252 C253 1.376 . S
C252 C261 1.511 . S
C253 C252 1.376 . S
C253 C254 1.392 1_545 S
C253 H274 0.931 . S
C254 C253 1.392 1_565 S
C254 C255 1.361 . S
C254 C256 1.500 . S
C255 C250 1.390 . S
C255 C254 1.361 . S
C255 H273 0.931 . S
C256 C254 1.500 . S
C256 C257 1.371 . S
C256 C258 1.365 . S
C257 C256 1.371 . S
C257 C267 1.386 . S
C257 H275 0.931 . S
C258 C256 1.365 . S
C258 C259 1.409 . S
C258 H276 0.929 . S
C259 C258 1.409 . S
C259 C260 1.380 . S
C259 H277 0.930 . S
C260 C259 1.380 . S
C260 C267 1.357 . S
C261 C252 1.511 . S
C261 C262 1.341 . S
C261 C263 1.371 . S
C262 C261 1.341 . S
C262 C266 1.394 . S
C262 H278 0.930 . S
C263 C261 1.371 . S
C263 C264 1.392 . S
C263 H279 0.931 . S
C264 C263 1.392 . S
C264 C265 1.331 . S
C264 H282 0.932 . S
C265 C264 1.331 . S
C265 C266 1.336 . S
C266 C262 1.394 . S
C266 C265 1.336 . S
C266 H281 0.929 . S
C267 C257 1.386 . S
C267 C260 1.357 . S
C267 H280 0.928 . S
H268 C244 0.931 . S
H269 C246 0.930 . S
H270 C248 0.929 . S
H271 C249 0.931 . S
H272 C251 0.930 . S
H273 C255 0.931 . S
H274 C253 0.931 . S
H275 C257 0.931 . S
H276 C258 0.929 . S
H277 C259 0.930 . S
H278 C262 0.930 . S
H279 C263 0.931 . S
H280 C267 0.928 . S
H281 C266 0.929 . S
H282 C264 0.932 . S
C283 C284 1.386 . S
C283 C285 1.397 . S
C283 H307 0.931 . S
C284 C283 1.386 . S
C284 C288 1.397 . S
C285 C283 1.397 . S
C285 C286 1.384 . S
C285 H308 0.930 . S
C286 C285 1.384 . S
C286 C287 1.377 . S
C286 C289 1.481 . S
C287 C286 1.377 . S
C287 C288 1.389 . S
C287 H309 0.929 . S
C288 C284 1.397 . S
C288 C287 1.389 . S
C288 H310 0.931 . S
C289 C286 1.481 . S
C289 C290 1.387 . S
C289 C294 1.382 1_554 S
C290 C289 1.387 . S
C290 C291 1.401 1_554 S
C290 H311 0.930 . S
C291 C290 1.401 1_556 S
C291 C292 1.376 . S
C291 C300 1.511 . S
C292 C291 1.376 . S
C292 C293 1.392 . S
C292 H313 0.931 . S
C293 C292 1.392 . S
C293 C294 1.370 . S
C293 C295 1.500 . S
C294 C289 1.382 1_556 S
C294 C293 1.370 . S
C294 H312 0.931 . S
C295 C293 1.500 . S
C295 C296 1.371 . S
C295 C297 1.365 . S
C296 C295 1.371 . S
C296 C306 1.386 . S
C296 H314 0.931 . S
C297 C295 1.365 . S
C297 C298 1.409 . S
C297 H315 0.929 . S
C298 C297 1.409 . S
C298 C299 1.380 . S
C298 H316 0.930 . S
C299 C298 1.380 . S
C299 C306 1.357 . S
C300 C291 1.511 . S
C300 C301 1.341 1_556 S
C300 C302 1.371 . S
C301 C300 1.341 1_554 S
C301 C305 1.394 . S
C301 H317 0.930 . S
C302 C300 1.371 . S
C302 C303 1.392 . S
C302 H318 0.931 . S
C303 C302 1.392 . S
C303 C304 1.331 . S
C303 H321 0.932 . S
C304 C303 1.331 . S
C304 C305 1.336 1_556 S
C305 C301 1.394 . S
C305 C304 1.336 1_554 S
C305 H320 0.929 . S
C306 C296 1.386 . S
C306 C299 1.357 . S
C306 H319 0.928 . S
H307 C283 0.931 . S
H308 C285 0.930 . S
H309 C287 0.929 . S
H310 C288 0.931 . S
H311 C290 0.930 . S
H312 C294 0.931 . S
H313 C292 0.931 . S
H314 C296 0.931 . S
H315 C297 0.929 . S
H316 C298 0.930 . S
H317 C301 0.930 . S
H318 C302 0.931 . S
H319 C306 0.928 . S
H320 C305 0.929 . S
H321 C303 0.932 . S
C322 C323 1.386 . S
C322 C324 1.397 . S
C322 H346 0.931 . S
C323 C322 1.386 . S
C323 C327 1.397 . S
C324 C322 1.397 . S
C324 C325 1.384 . S
C324 H347 0.930 . S
C325 C324 1.384 . S
C325 C326 1.377 . S
C325 C328 1.481 . S
C326 C325 1.377 . S
C326 C327 1.389 . S
C326 H348 0.929 . S
C327 C323 1.397 . S
C327 C326 1.389 . S
C327 H349 0.931 . S
C328 C325 1.481 . S
C328 C329 1.387 . S
C328 C333 1.390 . S
C329 C328 1.387 . S
C329 C330 1.401 1_545 S
C329 H350 0.930 1_545 S
C330 C329 1.401 1_565 S
C330 C331 1.376 1_565 S
C330 C339 1.511 . S
C331 C330 1.376 1_545 S
C331 C332 1.392 . S
C331 H352 0.931 1_545 S
C332 C331 1.392 . S
C332 C333 1.361 . S
C332 C334 1.500 . S
C333 C328 1.390 . S
C333 C332 1.361 . S
C333 H351 0.931 . S
C334 C332 1.500 . S
C334 C335 1.371 . S
C334 C336 1.365 . S
C335 C334 1.371 . S
C335 C345 1.386 . S
C335 H353 0.931 . S
C336 C334 1.365 . S
C336 C337 1.409 . S
C336 H354 0.929 . S
C337 C336 1.409 . S
C337 C338 1.380 . S
C337 H355 0.930 . S
C338 C337 1.380 . S
C338 C345 1.357 . S
C339 C330 1.511 . S
C339 C340 1.341 . S
C339 C341 1.371 . S
C340 C339 1.341 . S
C340 C344 1.394 . S
C340 H356 0.930 . S
C341 C339 1.371 . S
C341 C342 1.392 . S
C341 H357 0.931 . S
C342 C341 1.392 . S
C342 C343 1.331 . S
C342 H360 0.932 . S
C343 C342 1.331 . S
C343 C344 1.336 . S
C344 C340 1.394 . S
C344 C343 1.336 . S
C344 H359 0.929 . S
C345 C335 1.386 . S
C345 C338 1.357 . S
C345 H358 0.928 . S
H346 C322 0.931 . S
H347 C324 0.930 . S
H348 C326 0.929 . S
H349 C327 0.931 . S
H350 C329 0.930 1_565 S
H351 C333 0.931 . S
H352 C331 0.931 1_565 S
H353 C335 0.931 . S
H354 C336 0.929 . S
H355 C337 0.930 . S
H356 C340 0.930 . S
H357 C341 0.931 . S
H358 C345 0.928 . S
H359 C344 0.929 . S
H360 C342 0.932 . S
C361 C362 1.386 . S
C361 C363 1.397 . S
C361 H385 0.931 . S
C362 C361 1.386 . S
C362 C366 1.397 . S
C363 C361 1.397 . S
C363 C364 1.384 . S
C363 H386 0.930 . S
C364 C363 1.384 . S
C364 C365 1.377 . S
C364 C367 1.481 . S
C365 C364 1.377 . S
C365 C366 1.389 . S
C365 H387 0.929 . S
C366 C362 1.397 . S
C366 C365 1.389 . S
C366 H388 0.931 . S
C367 C364 1.481 . S
C367 C368 1.387 . S
C367 C372 1.390 1_556 S
C368 C367 1.387 . S
C368 C369 1.401 1_556 S
C368 H389 0.930 . S
C369 C368 1.401 1_554 S
C369 C370 1.376 . S
C369 C378 1.511 . S
C370 C369 1.376 . S
C370 C371 1.392 . S
C370 H391 0.931 . S
C371 C370 1.392 . S
C371 C372 1.361 . S
C371 C373 1.500 . S
C372 C367 1.390 1_554 S
C372 C371 1.361 . S
C372 H390 0.931 . S
C373 C371 1.500 . S
C373 C374 1.371 . S
C373 C375 1.365 . S
C374 C373 1.371 . S
C374 C384 1.386 . S
C374 H392 0.931 . S
C375 C373 1.365 . S
C375 C376 1.409 . S
C375 H393 0.929 . S
C376 C375 1.409 . S
C376 C377 1.380 . S
C376 H394 0.930 . S
C377 C376 1.380 . S
C377 C384 1.357 . S
C378 C369 1.511 . S
C378 C379 1.341 1_554 S
C378 C380 1.371 . S
C379 C378 1.341 1_556 S
C379 C383 1.394 . S
C379 H395 0.930 . S
C380 C378 1.371 . S
C380 C381 1.392 . S
C380 H396 0.931 . S
C381 C380 1.392 . S
C381 C382 1.331 . S
C381 H399 0.932 . S
C382 C381 1.331 . S
C382 C383 1.336 1_554 S
C383 C379 1.394 . S
C383 C382 1.336 1_556 S
C383 H398 0.929 . S
C384 C374 1.386 . S
C384 C377 1.357 . S
C384 H397 0.928 . S
H385 C361 0.931 . S
H386 C363 0.930 . S
H387 C365 0.929 . S
H388 C366 0.931 . S
H389 C368 0.930 . S
H390 C372 0.931 . S
H391 C370 0.931 . S
H392 C374 0.931 . S
H393 C375 0.929 . S
H394 C376 0.930 . S
H395 C379 0.930 . S
H396 C380 0.931 . S
H397 C384 0.928 . S
H398 C383 0.929 . S
H399 C381 0.932 . S
H400 C408 0.929 . S
H401 C410 0.930 . S
H402 C412 0.930 . S
H403 C415 0.929 . S
H404 C418 0.930 . S
H405 C420 0.960 . S
H406 C420 0.960 . S
H407 C420 0.960 . S
C408 H400 0.929 . S
C408 C409 1.377 . S
C408 C410 1.384 . S
C409 C408 1.377 . S
C409 C415 1.390 . S
C410 H401 0.930 . S
C410 C408 1.384 . S
C410 C411 1.372 . S
C411 C410 1.372 . S
C411 C412 1.400 . S
C411 C416 1.490 . S
C412 H402 0.930 . S
C412 C411 1.400 . S
C412 C415 1.386 . S
H413 C429 0.930 . S
H414 C430 0.931 . S
C415 H403 0.929 . S
C415 C409 1.390 . S
C415 C412 1.386 . S
C416 C411 1.490 . S
C416 C418 1.395 . S
C416 C419 1.403 . S
H417 C423 0.930 . S
C418 H404 0.930 . S
C418 C416 1.395 . S
C418 C421 1.403 . S
C419 C416 1.403 . S
C419 C420 1.524 . S
C419 C423 1.400 . S
C420 H405 0.960 . S
C420 H406 0.960 . S
C420 H407 0.960 . S
C420 C419 1.524 . S
C421 C418 1.403 . S
C421 C422 1.392 . S
C421 C425 1.495 . S
C422 C421 1.392 . S
C422 C423 1.385 . S
C422 C424 1.478 . S
C423 H417 0.930 . S
C423 C419 1.400 . S
C423 C422 1.385 . S
C424 C422 1.478 . S
C424 C426 1.381 . S
C424 C430 1.383 . S
C425 C421 1.495 . S
C425 H431 0.959 . S
C425 H432 0.961 . S
C425 H433 0.960 . S
C426 C424 1.381 . S
C426 C427 1.394 . S
C426 H434 0.930 . S
C427 C426 1.394 . S
C427 C428 1.383 . S
C427 H435 0.929 . S
C428 C427 1.383 . S
C428 C429 1.377 . S
C429 H413 0.930 . S
C429 C428 1.377 . S
C429 C430 1.379 . S
C430 H414 0.931 . S
C430 C424 1.383 . S
C430 C429 1.379 . S
H431 C425 0.959 . S
H432 C425 0.961 . S
H433 C425 0.960 . S
H434 C426 0.930 . S
H435 C427 0.929 . S
H436 C444 0.929 . S
H437 C446 0.930 . S
H438 C448 0.930 . S
H439 C451 0.929 . S
H440 C454 0.930 . S
H441 C456 0.960 . S
H442 C456 0.960 . S
H443 C456 0.960 . S
C444 H436 0.929 . S
C444 C445 1.377 . S
C444 C446 1.384 . S
C445 C444 1.377 . S
C445 C451 1.390 . S
C446 H437 0.930 . S
C446 C444 1.384 . S
C446 C447 1.372 . S
C447 C446 1.372 . S
C447 C448 1.400 . S
C447 C452 1.490 . S
C448 H438 0.930 . S
C448 C447 1.400 . S
C448 C451 1.386 . S
H449 C465 0.930 . S
H450 C466 0.931 . S
C451 H439 0.929 . S
C451 C445 1.390 . S
C451 C448 1.386 . S
C452 C447 1.490 . S
C452 C454 1.395 . S
C452 C455 1.403 . S
H453 C459 0.930 . S
C454 H440 0.930 . S
C454 C452 1.395 . S
C454 C457 1.403 . S
C455 C452 1.403 . S
C455 C456 1.524 . S
C455 C459 1.400 . S
C456 H441 0.960 . S
C456 H442 0.960 . S
C456 H443 0.960 . S
C456 C455 1.524 . S
C457 C454 1.403 . S
C457 C458 1.392 . S
C457 C461 1.495 . S
C458 C457 1.392 . S
C458 C459 1.385 . S
C458 C460 1.478 . S
C459 H453 0.930 . S
C459 C455 1.400 . S
C459 C458 1.385 . S
C460 C458 1.478 . S
C460 C462 1.381 . S
C460 C466 1.383 . S
C461 C457 1.495 . S
C461 H467 0.959 . S
C461 H468 0.961 . S
C461 H469 0.960 . S
C462 C460 1.381 . S
C462 C463 1.394 . S
C462 H470 0.930 . S
C463 C462 1.394 . S
C463 C464 1.383 . S
C463 H471 0.929 . S
C464 C463 1.383 . S
C464 C465 1.377 . S
C465 H449 0.930 . S
C465 C464 1.377 . S
C465 C466 1.379 . S
C466 H450 0.931 . S
C466 C460 1.383 . S
C466 C465 1.379 . S
H467 C461 0.959 . S
H468 C461 0.961 . S
H469 C461 0.960 . S
H470 C462 0.930 . S
H471 C463 0.929 . S
H472 C480 0.929 . S
H473 C482 0.930 . S
H474 C484 0.930 . S
H475 C487 0.929 . S
H476 C490 0.930 . S
H477 C492 0.960 . S
H478 C492 0.960 . S
H479 C492 0.960 . S
C480 H472 0.929 . S
C480 C481 1.377 . S
C480 C482 1.384 . S
C481 C480 1.377 . S
C481 C487 1.390 . S
C482 H473 0.930 . S
C482 C480 1.384 . S
C482 C483 1.372 . S
C483 C482 1.372 . S
C483 C484 1.400 . S
C483 C488 1.490 . S
C484 H474 0.930 . S
C484 C483 1.400 . S
C484 C487 1.386 . S
H485 C501 0.930 . S
H486 C502 0.931 . S
C487 H475 0.929 . S
C487 C481 1.390 . S
C487 C484 1.386 . S
C488 C483 1.490 . S
C488 C490 1.395 . S
C488 C491 1.403 . S
H489 C495 0.930 . S
C490 H476 0.930 . S
C490 C488 1.395 . S
C490 C493 1.403 . S
C491 C488 1.403 . S
C491 C492 1.524 . S
C491 C495 1.400 . S
C492 H477 0.960 . S
C492 H478 0.960 . S
C492 H479 0.960 . S
C492 C491 1.524 . S
C493 C490 1.403 . S
C493 C494 1.392 . S
C493 C497 1.495 . S
C494 C493 1.392 . S
C494 C495 1.385 . S
C494 C496 1.478 . S
C495 H489 0.930 . S
C495 C491 1.400 . S
C495 C494 1.385 . S
C496 C494 1.478 . S
C496 C498 1.381 . S
C496 C502 1.383 . S
C497 C493 1.495 . S
C497 H503 0.959 . S
C497 H504 0.961 . S
C497 H505 0.960 . S
C498 C496 1.381 . S
C498 C499 1.394 . S
C498 H506 0.930 . S
C499 C498 1.394 . S
C499 C500 1.383 . S
C499 H507 0.929 . S
C500 C499 1.383 . S
C500 C501 1.377 . S
C501 H485 0.930 . S
C501 C500 1.377 . S
C501 C502 1.379 . S
C502 H486 0.931 . S
C502 C496 1.383 . S
C502 C501 1.379 . S
H503 C497 0.959 . S
H504 C497 0.961 . S
H505 C497 0.960 . S
H506 C498 0.930 . S
H507 C499 0.929 . S
H508 C516 0.929 . S
H509 C518 0.930 . S
H510 C520 0.930 . S
H511 C523 0.929 . S
H512 C526 0.930 . S
H513 C528 0.960 . S
H514 C528 0.960 . S
H515 C528 0.960 . S
C516 H508 0.929 . S
C516 C517 1.377 . S
C516 C518 1.384 . S
C517 C516 1.377 . S
C517 C523 1.390 . S
C518 H509 0.930 . S
C518 C516 1.384 . S
C518 C519 1.372 . S
C519 C518 1.372 . S
C519 C520 1.400 . S
C519 C524 1.490 . S
C520 H510 0.930 . S
C520 C519 1.400 . S
C520 C523 1.386 . S
H521 C537 0.930 . S
H522 C538 0.931 . S
C523 H511 0.929 . S
C523 C517 1.390 . S
C523 C520 1.386 . S
C524 C519 1.490 . S
C524 C526 1.395 . S
C524 C527 1.403 . S
H525 C531 0.930 . S
C526 H512 0.930 . S
C526 C524 1.395 . S
C526 C529 1.403 . S
C527 C524 1.403 . S
C527 C528 1.524 . S
C527 C531 1.400 . S
C528 H513 0.960 . S
C528 H514 0.960 . S
C528 H515 0.960 . S
C528 C527 1.524 . S
C529 C526 1.403 . S
C529 C530 1.392 . S
C529 C533 1.495 . S
C530 C529 1.392 . S
C530 C531 1.385 . S
C530 C532 1.478 . S
C531 H525 0.930 . S
C531 C527 1.400 . S
C531 C530 1.385 . S
C532 C530 1.478 . S
C532 C534 1.381 . S
C532 C538 1.383 . S
C533 C529 1.495 . S
C533 H539 0.959 . S
C533 H540 0.961 . S
C533 H541 0.960 . S
C534 C532 1.381 . S
C534 C535 1.394 . S
C534 H542 0.930 . S
C535 C534 1.394 . S
C535 C536 1.383 . S
C535 H543 0.929 . S
C536 C535 1.383 . S
C536 C537 1.377 . S
C537 H521 0.930 . S
C537 C536 1.377 . S
C537 C538 1.379 . S
C538 H522 0.931 . S
C538 C532 1.383 . S
C538 C537 1.379 . S
H539 C533 0.959 . S
H540 C533 0.961 . S
H541 C533 0.960 . S
H542 C534 0.930 . S
H543 C535 0.929 . S
H544 C552 0.929 . S
H545 C554 0.930 . S
H546 C556 0.930 . S
H547 C559 0.929 . S
H548 C562 0.930 . S
H549 C564 0.960 . S
H550 C564 0.960 . S
H551 C564 0.960 . S
C552 H544 0.929 . S
C552 C553 1.377 . S
C552 C554 1.384 . S
C553 C552 1.377 . S
C553 C559 1.390 . S
C554 H545 0.930 . S
C554 C552 1.384 . S
C554 C555 1.372 . S
C555 C554 1.372 . S
C555 C556 1.400 . S
C555 C560 1.490 . S
C556 H546 0.930 . S
C556 C555 1.400 . S
C556 C559 1.386 . S
H557 C573 0.930 . S
H558 C574 0.931 . S
C559 H547 0.929 . S
C559 C553 1.390 . S
C559 C556 1.386 . S
C560 C555 1.490 . S
C560 C562 1.395 . S
C560 C563 1.403 . S
H561 C567 0.930 . S
C562 H548 0.930 . S
C562 C560 1.395 . S
C562 C565 1.403 . S
C563 C560 1.403 . S
C563 C564 1.524 . S
C563 C567 1.400 . S
C564 H549 0.960 . S
C564 H550 0.960 . S
C564 H551 0.960 . S
C564 C563 1.524 . S
C565 C562 1.403 . S
C565 C566 1.392 . S
C565 C569 1.495 . S
C566 C565 1.392 . S
C566 C567 1.385 . S
C566 C568 1.478 . S
C567 H561 0.930 . S
C567 C563 1.400 . S
C567 C566 1.385 . S
C568 C566 1.478 . S
C568 C570 1.381 . S
C568 C574 1.383 . S
C569 C565 1.495 . S
C569 H575 0.959 . S
C569 H576 0.961 . S
C569 H577 0.960 . S
C570 C568 1.381 . S
C570 C571 1.394 . S
C570 H578 0.930 . S
C571 C570 1.394 . S
C571 C572 1.383 . S
C571 H579 0.929 . S
C572 C571 1.383 . S
C572 C573 1.377 . S
C573 H557 0.930 . S
C573 C572 1.377 . S
C573 C574 1.379 . S
C574 H558 0.931 . S
C574 C568 1.383 . S
C574 C573 1.379 . S
H575 C569 0.959 . S
H576 C569 0.961 . S
H577 C569 0.960 . S
H578 C570 0.930 . S
H579 C571 0.929 . S
H580 C588 0.929 . S
H581 C590 0.930 . S
H582 C592 0.930 . S
H583 C595 0.929 . S
H584 C598 0.930 . S
H585 C600 0.960 . S
H586 C600 0.960 . S
H587 C600 0.960 . S
C588 H580 0.929 . S
C588 C589 1.377 . S
C588 C590 1.384 . S
C589 C588 1.377 . S
C589 C595 1.390 . S
C590 H581 0.930 . S
C590 C588 1.384 . S
C590 C591 1.372 . S
C591 C590 1.372 . S
C591 C592 1.400 . S
C591 C596 1.490 . S
C592 H582 0.930 . S
C592 C591 1.400 . S
C592 C595 1.386 . S
H593 C609 0.930 . S
H594 C610 0.931 . S
C595 H583 0.929 . S
C595 C589 1.390 . S
C595 C592 1.386 . S
C596 C591 1.490 . S
C596 C598 1.395 . S
C596 C599 1.403 . S
H597 C603 0.930 . S
C598 H584 0.930 . S
C598 C596 1.395 . S
C598 C601 1.403 . S
C599 C596 1.403 . S
C599 C600 1.524 . S
C599 C603 1.400 . S
C600 H585 0.960 . S
C600 H586 0.960 . S
C600 H587 0.960 . S
C600 C599 1.524 . S
C601 C598 1.403 . S
C601 C602 1.392 . S
C601 C605 1.495 . S
C602 C601 1.392 . S
C602 C603 1.385 . S
C602 C604 1.478 . S
C603 H597 0.930 . S
C603 C599 1.400 . S
C603 C602 1.385 . S
C604 C602 1.478 . S
C604 C606 1.381 . S
C604 C610 1.383 . S
C605 C601 1.495 . S
C605 H611 0.959 . S
C605 H612 0.961 . S
C605 H613 0.960 . S
C606 C604 1.381 . S
C606 C607 1.394 . S
C606 H614 0.930 . S
C607 C606 1.394 . S
C607 C608 1.383 . S
C607 H615 0.929 . S
C608 C607 1.383 . S
C608 C609 1.377 . S
C609 H593 0.930 . S
C609 C608 1.377 . S
C609 C610 1.379 . S
C610 H594 0.931 . S
C610 C604 1.383 . S
C610 C609 1.379 . S
H611 C605 0.959 . S
H612 C605 0.961 . S
H613 C605 0.960 . S
H614 C606 0.930 . S
H615 C607 0.929 . S
H616 C624 0.929 . S
H617 C626 0.930 . S
H618 C628 0.930 . S
H619 C631 0.929 . S
H620 C634 0.930 . S
H621 C636 0.960 . S
H622 C636 0.960 . S
H623 C636 0.960 . S
C624 H616 0.929 . S
C624 C625 1.377 . S
C624 C626 1.384 . S
C625 C624 1.377 . S
C625 C631 1.390 . S
C626 H617 0.930 . S
C626 C624 1.384 . S
C626 C627 1.372 . S
C627 C626 1.372 . S
C627 C628 1.400 . S
C627 C632 1.490 . S
C628 H618 0.930 . S
C628 C627 1.400 . S
C628 C631 1.386 . S
H629 C645 0.930 . S
H630 C646 0.931 . S
C631 H619 0.929 . S
C631 C625 1.390 . S
C631 C628 1.386 . S
C632 C627 1.490 . S
C632 C634 1.395 . S
C632 C635 1.403 . S
H633 C639 0.930 . S
C634 H620 0.930 . S
C634 C632 1.395 . S
C634 C637 1.403 . S
C635 C632 1.403 . S
C635 C636 1.524 . S
C635 C639 1.400 . S
C636 H621 0.960 . S
C636 H622 0.960 . S
C636 H623 0.960 . S
C636 C635 1.524 . S
C637 C634 1.403 . S
C637 C638 1.392 . S
C637 C641 1.495 . S
C638 C637 1.392 . S
C638 C639 1.385 . S
C638 C640 1.478 . S
C639 H633 0.930 . S
C639 C635 1.400 . S
C639 C638 1.385 . S
C640 C638 1.478 . S
C640 C642 1.381 . S
C640 C646 1.383 . S
C641 C637 1.495 . S
C641 H647 0.959 . S
C641 H648 0.961 . S
C641 H649 0.960 . S
C642 C640 1.381 . S
C642 C643 1.394 . S
C642 H650 0.930 . S
C643 C642 1.394 . S
C643 C644 1.383 . S
C643 H651 0.929 . S
C644 C643 1.383 . S
C644 C645 1.377 . S
C645 H629 0.930 . S
C645 C644 1.377 . S
C645 C646 1.379 . S
C646 H630 0.931 . S
C646 C640 1.383 . S
C646 C645 1.379 . S
H647 C641 0.959 . S
H648 C641 0.961 . S
H649 C641 0.960 . S
H650 C642 0.930 . S
H651 C643 0.929 . S
H652 C660 0.929 . S
H653 C662 0.930 . S
H654 C664 0.930 . S
H655 C667 0.929 . S
H656 C670 0.930 . S
H657 C672 0.960 . S
H658 C672 0.960 . S
H659 C672 0.960 . S
C660 H652 0.929 . S
C660 C661 1.377 . S
C660 C662 1.384 . S
C661 C660 1.377 . S
C661 C667 1.390 . S
C662 H653 0.930 . S
C662 C660 1.384 . S
C662 C663 1.372 . S
C663 C662 1.372 . S
C663 C664 1.400 . S
C663 C668 1.490 . S
C664 H654 0.930 . S
C664 C663 1.400 . S
C664 C667 1.386 . S
H665 C681 0.930 . S
H666 C682 0.931 . S
C667 H655 0.929 . S
C667 C661 1.390 . S
C667 C664 1.386 . S
C668 C663 1.490 . S
C668 C670 1.395 . S
C668 C671 1.403 . S
H669 C675 0.930 . S
C670 H656 0.930 . S
C670 C668 1.395 . S
C670 C673 1.403 . S
C671 C668 1.403 . S
C671 C672 1.524 . S
C671 C675 1.400 . S
C672 H657 0.960 . S
C672 H658 0.960 . S
C672 H659 0.960 . S
C672 C671 1.524 . S
C673 C670 1.403 . S
C673 C674 1.392 . S
C673 C677 1.495 . S
C674 C673 1.392 . S
C674 C675 1.385 . S
C674 C676 1.478 . S
C675 H669 0.930 . S
C675 C671 1.400 . S
C675 C674 1.385 . S
C676 C674 1.478 . S
C676 C678 1.381 . S
C676 C682 1.383 . S
C677 C673 1.495 . S
C677 H683 0.959 . S
C677 H684 0.961 . S
C677 H685 0.960 . S
C678 C676 1.381 . S
C678 C679 1.394 . S
C678 H686 0.930 . S
C679 C678 1.394 . S
C679 C680 1.383 . S
C679 H687 0.929 . S
C680 C679 1.383 . S
C680 C681 1.377 . S
C681 H665 0.930 . S
C681 C680 1.377 . S
C681 C682 1.379 . S
C682 H666 0.931 . S
C682 C676 1.383 . S
C682 C681 1.379 . S
H683 C677 0.959 . S
H684 C677 0.961 . S
H685 C677 0.960 . S
H686 C678 0.930 . S
H687 C679 0.929 . S
H688 C696 0.929 . S
H689 C698 0.930 . S
H690 C700 0.930 . S
H691 C703 0.929 . S
H692 C706 0.930 . S
H693 C708 0.960 . S
H694 C708 0.960 . S
H695 C708 0.960 . S
C696 H688 0.929 . S
C696 C697 1.377 . S
C696 C698 1.384 . S
C697 C696 1.377 . S
C697 C703 1.390 . S
C698 H689 0.930 . S
C698 C696 1.384 . S
C698 C699 1.372 . S
C699 C698 1.372 . S
C699 C700 1.400 . S
C699 C704 1.490 . S
C700 H690 0.930 . S
C700 C699 1.400 . S
C700 C703 1.386 . S
H701 C717 0.930 . S
H702 C718 0.931 . S
C703 H691 0.929 . S
C703 C697 1.390 . S
C703 C700 1.386 . S
C704 C699 1.490 . S
C704 C706 1.395 . S
C704 C707 1.403 . S
H705 C711 0.930 . S
C706 H692 0.930 . S
C706 C704 1.395 . S
C706 C709 1.403 . S
C707 C704 1.403 . S
C707 C708 1.524 . S
C707 C711 1.400 . S
C708 H693 0.960 . S
C708 H694 0.960 . S
C708 H695 0.960 . S
C708 C707 1.524 . S
C709 C706 1.403 . S
C709 C710 1.392 . S
C709 C713 1.495 . S
C710 C709 1.392 . S
C710 C711 1.385 . S
C710 C712 1.478 . S
C711 H705 0.930 . S
C711 C707 1.400 . S
C711 C710 1.385 . S
C712 C710 1.478 . S
C712 C714 1.381 . S
C712 C718 1.383 . S
C713 C709 1.495 . S
C713 H719 0.959 . S
C713 H720 0.961 . S
C713 H721 0.960 . S
C714 C712 1.381 . S
C714 C715 1.394 . S
C714 H722 0.930 . S
C715 C714 1.394 . S
C715 C716 1.383 . S
C715 H723 0.929 . S
C716 C715 1.383 . S
C716 C717 1.377 . S
C717 H701 0.930 . S
C717 C716 1.377 . S
C717 C718 1.379 . S
C718 H702 0.931 . S
C718 C712 1.383 . S
C718 C717 1.379 . S
H719 C713 0.959 . S
H720 C713 0.961 . S
H721 C713 0.960 . S
H722 C714 0.930 . S
H723 C715 0.929 . S
H724 C732 0.929 . S
H725 C734 0.930 . S
H726 C736 0.930 . S
H727 C739 0.929 . S
H728 C742 0.930 . S
H729 C744 0.960 . S
H730 C744 0.960 . S
H731 C744 0.960 . S
C732 H724 0.929 . S
C732 C733 1.377 . S
C732 C734 1.384 . S
C733 C732 1.377 . S
C733 C739 1.390 . S
C734 H725 0.930 . S
C734 C732 1.384 . S
C734 C735 1.372 . S
C735 C734 1.372 . S
C735 C736 1.400 . S
C735 C740 1.490 . S
C736 H726 0.930 . S
C736 C735 1.400 . S
C736 C739 1.386 . S
H737 C753 0.930 . S
H738 C754 0.931 . S
C739 H727 0.929 . S
C739 C733 1.390 . S
C739 C736 1.386 . S
C740 C735 1.490 . S
C740 C742 1.395 . S
C740 C743 1.403 . S
H741 C747 0.930 . S
C742 H728 0.930 . S
C742 C740 1.395 . S
C742 C745 1.403 . S
C743 C740 1.403 . S
C743 C744 1.524 . S
C743 C747 1.400 . S
C744 H729 0.960 . S
C744 H730 0.960 . S
C744 H731 0.960 . S
C744 C743 1.524 . S
C745 C742 1.403 . S
C745 C746 1.392 . S
C745 C749 1.495 . S
C746 C745 1.392 . S
C746 C747 1.385 . S
C746 C748 1.478 . S
C747 H741 0.930 . S
C747 C743 1.400 . S
C747 C746 1.385 . S
C748 C746 1.478 . S
C748 C750 1.381 . S
C748 C754 1.383 . S
C749 C745 1.495 . S
C749 H755 0.959 . S
C749 H756 0.961 . S
C749 H757 0.960 . S
C750 C748 1.381 . S
C750 C751 1.394 . S
C750 H758 0.930 . S
C751 C750 1.394 . S
C751 C752 1.383 . S
C751 H759 0.929 . S
C752 C751 1.383 . S
C752 C753 1.377 . S
C753 H737 0.930 . S
C753 C752 1.377 . S
C753 C754 1.379 . S
C754 H738 0.931 . S
C754 C748 1.383 . S
C754 C753 1.379 . S
H755 C749 0.959 . S
H756 C749 0.961 . S
H757 C749 0.960 . S
H758 C750 0.930 . S
H759 C751 0.929 . S
H760 C768 0.929 . S
H761 C770 0.930 . S
H762 C772 0.930 . S
H763 C775 0.929 . S
H764 C778 0.930 . S
H765 C780 0.960 . S
H766 C780 0.960 . S
H767 C780 0.960 . S
C768 H760 0.929 . S
C768 C769 1.377 . S
C768 C770 1.384 . S
C769 C768 1.377 . S
C769 C775 1.390 . S
C770 H761 0.930 . S
C770 C768 1.384 . S
C770 C771 1.372 . S
C771 C770 1.372 . S
C771 C772 1.400 . S
C771 C776 1.490 . S
C772 H762 0.930 . S
C772 C771 1.400 . S
C772 C775 1.386 . S
H773 C789 0.930 . S
H774 C790 0.931 . S
C775 H763 0.929 . S
C775 C769 1.390 . S
C775 C772 1.386 . S
C776 C771 1.490 . S
C776 C778 1.395 . S
C776 C779 1.403 . S
H777 C783 0.930 . S
C778 H764 0.930 . S
C778 C776 1.395 . S
C778 C781 1.403 . S
C779 C776 1.403 . S
C779 C780 1.524 . S
C779 C783 1.400 . S
C780 H765 0.960 . S
C780 H766 0.960 . S
C780 H767 0.960 . S
C780 C779 1.524 . S
C781 C778 1.403 . S
C781 C782 1.392 . S
C781 C785 1.495 . S
C782 C781 1.392 . S
C782 C783 1.385 . S
C782 C784 1.478 . S
C783 H777 0.930 . S
C783 C779 1.400 . S
C783 C782 1.385 . S
C784 C782 1.478 . S
C784 C786 1.381 . S
C784 C790 1.383 . S
C785 C781 1.495 . S
C785 H791 0.959 . S
C785 H792 0.961 . S
C785 H793 0.960 . S
C786 C784 1.381 . S
C786 C787 1.394 . S
C786 H794 0.930 . S
C787 C786 1.394 . S
C787 C788 1.383 . S
C787 H795 0.929 . S
C788 C787 1.383 . S
C788 C789 1.377 . S
C789 H773 0.930 . S
C789 C788 1.377 . S
C789 C790 1.379 . S
C790 H774 0.931 . S
C790 C784 1.383 . S
C790 C789 1.379 . S
H791 C785 0.959 . S
H792 C785 0.961 . S
H793 C785 0.960 . S
H794 C786 0.930 . S
H795 C787 0.929 . S
H796 C804 0.929 . S
H797 C806 0.930 . S
H798 C808 0.930 . S
H799 C811 0.929 . S
H800 C814 0.930 . S
H801 C816 0.960 . S
H802 C816 0.960 . S
H803 C816 0.960 . S
C804 H796 0.929 . S
C804 C805 1.377 . S
C804 C806 1.384 . S
C805 C804 1.377 . S
C805 C811 1.390 . S
C806 H797 0.930 . S
C806 C804 1.384 . S
C806 C807 1.372 . S
C807 C806 1.372 . S
C807 C808 1.400 . S
C807 C812 1.490 . S
C808 H798 0.930 . S
C808 C807 1.400 . S
C808 C811 1.386 . S
H809 C825 0.930 . S
H810 C826 0.931 . S
C811 H799 0.929 . S
C811 C805 1.390 . S
C811 C808 1.386 . S
C812 C807 1.490 . S
C812 C814 1.395 . S
C812 C815 1.403 . S
H813 C819 0.930 . S
C814 H800 0.930 . S
C814 C812 1.395 . S
C814 C817 1.403 . S
C815 C812 1.403 . S
C815 C816 1.524 . S
C815 C819 1.400 . S
C816 H801 0.960 . S
C816 H802 0.960 . S
C816 H803 0.960 . S
C816 C815 1.524 . S
C817 C814 1.403 . S
C817 C818 1.392 . S
C817 C821 1.495 . S
C818 C817 1.392 . S
C818 C819 1.385 . S
C818 C820 1.478 . S
C819 H813 0.930 . S
C819 C815 1.400 . S
C819 C818 1.385 . S
C820 C818 1.478 . S
C820 C822 1.381 . S
C820 C826 1.383 . S
C821 C817 1.495 . S
C821 H827 0.959 . S
C821 H828 0.961 . S
C821 H829 0.960 . S
C822 C820 1.381 . S
C822 C823 1.394 . S
C822 H830 0.930 . S
C823 C822 1.394 . S
C823 C824 1.383 . S
C823 H831 0.929 . S
C824 C823 1.383 . S
C824 C825 1.377 . S
C825 H809 0.930 . S
C825 C824 1.377 . S
C825 C826 1.379 . S
C826 H810 0.931 . S
C826 C820 1.383 . S
C826 C825 1.379 . S
H827 C821 0.959 . S
H828 C821 0.961 . S
H829 C821 0.960 . S
H830 C822 0.930 . S
H831 C823 0.929 . S
H832 C840 0.929 . S
H833 C842 0.930 . S
H834 C844 0.930 . S
H835 C847 0.929 . S
H836 C850 0.930 . S
H837 C852 0.960 . S
H838 C852 0.960 . S
H839 C852 0.960 . S
C840 H832 0.929 . S
C840 C841 1.377 . S
C840 C842 1.384 . S
C841 C840 1.377 . S
C841 C847 1.390 . S
C842 H833 0.930 . S
C842 C840 1.384 . S
C842 C843 1.372 . S
C843 C842 1.372 . S
C843 C844 1.400 . S
C843 C848 1.490 . S
C844 H834 0.930 . S
C844 C843 1.400 . S
C844 C847 1.386 . S
H845 C861 0.930 . S
H846 C862 0.931 . S
C847 H835 0.929 . S
C847 C841 1.390 . S
C847 C844 1.386 . S
C848 C843 1.490 . S
C848 C850 1.395 . S
C848 C851 1.403 . S
H849 C855 0.930 . S
C850 H836 0.930 . S
C850 C848 1.395 . S
C850 C853 1.403 . S
C851 C848 1.403 . S
C851 C852 1.524 . S
C851 C855 1.400 . S
C852 H837 0.960 . S
C852 H838 0.960 . S
C852 H839 0.960 . S
C852 C851 1.524 . S
C853 C850 1.403 . S
C853 C854 1.392 . S
C853 C857 1.495 . S
C854 C853 1.392 . S
C854 C855 1.385 . S
C854 C856 1.478 . S
C855 H849 0.930 . S
C855 C851 1.400 . S
C855 C854 1.385 . S
C856 C854 1.478 . S
C856 C858 1.381 . S
C856 C862 1.383 . S
C857 C853 1.495 . S
C857 H863 0.959 . S
C857 H864 0.961 . S
C857 H865 0.960 . S
C858 C856 1.381 . S
C858 C859 1.394 . S
C858 H866 0.930 . S
C859 C858 1.394 . S
C859 C860 1.383 . S
C859 H867 0.929 . S
C860 C859 1.383 . S
C860 C861 1.377 . S
C861 H845 0.930 . S
C861 C860 1.377 . S
C861 C862 1.379 . S
C862 H846 0.931 . S
C862 C856 1.383 . S
C862 C861 1.379 . S
H863 C857 0.959 . S
H864 C857 0.961 . S
H865 C857 0.960 . S
H866 C858 0.930 . S
H867 C859 0.929 . S
H868 C876 0.929 . S
H869 C878 0.930 . S
H870 C880 0.930 . S
H871 C883 0.929 . S
H872 C886 0.930 . S
H873 C888 0.960 . S
H874 C888 0.960 . S
H875 C888 0.960 . S
C876 H868 0.929 . S
C876 C877 1.377 . S
C876 C878 1.384 . S
C877 C876 1.377 . S
C877 C883 1.390 . S
C878 H869 0.930 . S
C878 C876 1.384 . S
C878 C879 1.372 . S
C879 C878 1.372 . S
C879 C880 1.400 . S
C879 C884 1.490 . S
C880 H870 0.930 . S
C880 C879 1.400 . S
C880 C883 1.386 . S
H881 C897 0.930 . S
H882 C898 0.931 . S
C883 H871 0.929 . S
C883 C877 1.390 . S
C883 C880 1.386 . S
C884 C879 1.490 . S
C884 C886 1.395 . S
C884 C887 1.403 . S
H885 C891 0.930 . S
C886 H872 0.930 . S
C886 C884 1.395 . S
C886 C889 1.403 . S
C887 C884 1.403 . S
C887 C888 1.524 . S
C887 C891 1.400 . S
C888 H873 0.960 . S
C888 H874 0.960 . S
C888 H875 0.960 . S
C888 C887 1.524 . S
C889 C886 1.403 . S
C889 C890 1.392 . S
C889 C893 1.495 . S
C890 C889 1.392 . S
C890 C891 1.385 . S
C890 C892 1.478 . S
C891 H885 0.930 . S
C891 C887 1.400 . S
C891 C890 1.385 . S
C892 C890 1.478 . S
C892 C894 1.381 . S
C892 C898 1.383 . S
C893 C889 1.495 . S
C893 H899 0.959 . S
C893 H900 0.961 . S
C893 H901 0.960 . S
C894 C892 1.381 . S
C894 C895 1.394 . S
C894 H902 0.930 . S
C895 C894 1.394 . S
C895 C896 1.383 . S
C895 H903 0.929 . S
C896 C895 1.383 . S
C896 C897 1.377 . S
C897 H881 0.930 . S
C897 C896 1.377 . S
C897 C898 1.379 . S
C898 H882 0.931 . S
C898 C892 1.383 . S
C898 C897 1.379 . S
H899 C893 0.959 . S
H900 C893 0.961 . S
H901 C893 0.960 . S
H902 C894 0.930 . S
H903 C895 0.929 . S
H904 C912 0.929 . S
H905 C914 0.930 . S
H906 C916 0.930 . S
H907 C919 0.929 . S
H908 C922 0.930 . S
H909 C924 0.960 . S
H910 C924 0.960 . S
H911 C924 0.960 . S
C912 H904 0.929 . S
C912 C913 1.377 . S
C912 C914 1.384 . S
C913 C912 1.377 . S
C913 C919 1.390 . S
C914 H905 0.930 . S
C914 C912 1.384 . S
C914 C915 1.372 . S
C915 C914 1.372 . S
C915 C916 1.400 . S
C915 C920 1.490 . S
C916 H906 0.930 . S
C916 C915 1.400 . S
C916 C919 1.386 . S
H917 C933 0.930 . S
H918 C934 0.931 . S
C919 H907 0.929 . S
C919 C913 1.390 . S
C919 C916 1.386 . S
C920 C915 1.490 . S
C920 C922 1.395 . S
C920 C923 1.403 . S
H921 C927 0.930 . S
C922 H908 0.930 . S
C922 C920 1.395 . S
C922 C925 1.403 . S
C923 C920 1.403 . S
C923 C924 1.524 . S
C923 C927 1.400 . S
C924 H909 0.960 . S
C924 H910 0.960 . S
C924 H911 0.960 . S
C924 C923 1.524 . S
C925 C922 1.403 . S
C925 C926 1.392 . S
C925 C929 1.495 . S
C926 C925 1.392 . S
C926 C927 1.385 . S
C926 C928 1.478 . S
C927 H921 0.930 . S
C927 C923 1.400 . S
C927 C926 1.385 . S
C928 C926 1.478 . S
C928 C930 1.381 . S
C928 C934 1.383 . S
C929 C925 1.495 . S
C929 H935 0.959 . S
C929 H936 0.961 . S
C929 H937 0.960 . S
C930 C928 1.381 . S
C930 C931 1.394 . S
C930 H938 0.930 . S
C931 C930 1.394 . S
C931 C932 1.383 . S
C931 H939 0.929 . S
C932 C931 1.383 . S
C932 C933 1.377 . S
C933 H917 0.930 . S
C933 C932 1.377 . S
C933 C934 1.379 . S
C934 H918 0.931 . S
C934 C928 1.383 . S
C934 C933 1.379 . S
H935 C929 0.959 . S
H936 C929 0.961 . S
H937 C929 0.960 . S
H938 C930 0.930 . S
H939 C931 0.929 . S
H940 C948 0.929 . S
H941 C950 0.930 . S
H942 C952 0.930 . S
H943 C955 0.929 . S
H944 C958 0.930 . S
H945 C960 0.960 . S
H946 C960 0.960 . S
H947 C960 0.960 . S
C948 H940 0.929 . S
C948 C949 1.377 . S
C948 C950 1.384 . S
C949 C948 1.377 . S
C949 C955 1.390 . S
C950 H941 0.930 . S
C950 C948 1.384 . S
C950 C951 1.372 . S
C951 C950 1.372 . S
C951 C952 1.400 . S
C951 C956 1.490 . S
C952 H942 0.930 . S
C952 C951 1.400 . S
C952 C955 1.386 . S
H953 C969 0.930 . S
H954 C970 0.931 . S
C955 H943 0.929 . S
C955 C949 1.390 . S
C955 C952 1.386 . S
C956 C951 1.490 . S
C956 C958 1.395 . S
C956 C959 1.403 . S
H957 C963 0.930 . S
C958 H944 0.930 . S
C958 C956 1.395 . S
C958 C961 1.403 . S
C959 C956 1.403 . S
C959 C960 1.524 . S
C959 C963 1.400 . S
C960 H945 0.960 . S
C960 H946 0.960 . S
C960 H947 0.960 . S
C960 C959 1.524 . S
C961 C958 1.403 . S
C961 C962 1.392 . S
C961 C965 1.495 . S
C962 C961 1.392 . S
C962 C963 1.385 . S
C962 C964 1.478 . S
C963 H957 0.930 . S
C963 C959 1.400 . S
C963 C962 1.385 . S
C964 C962 1.478 . S
C964 C966 1.381 . S
C964 C970 1.383 . S
C965 C961 1.495 . S
C965 H971 0.959 . S
C965 H972 0.961 . S
C965 H973 0.960 . S
C966 C964 1.381 . S
C966 C967 1.394 . S
C966 H974 0.930 . S
C967 C966 1.394 . S
C967 C968 1.383 . S
C967 H975 0.929 . S
C968 C967 1.383 . S
C968 C969 1.377 . S
C969 H953 0.930 . S
C969 C968 1.377 . S
C969 C970 1.379 . S
C970 H954 0.931 . S
C970 C964 1.383 . S
C970 C969 1.379 . S
H971 C965 0.959 . S
H972 C965 0.961 . S
H973 C965 0.960 . S
H974 C966 0.930 . S
H975 C967 0.929 . S
H976 C984 0.929 . S
H977 C986 0.930 . S
H978 C988 0.930 . S
H979 C991 0.929 . S
H980 C994 0.930 . S
H981 C996 0.960 . S
H982 C996 0.960 . S
H983 C996 0.960 . S
C984 H976 0.929 . S
C984 C985 1.357 1_556 S
C984 C986 1.384 . S
C985 C984 1.357 1_554 S
C985 C991 1.410 . S
C986 H977 0.930 . S
C986 C984 1.384 . S
C986 C987 1.391 . S
C987 C986 1.391 . S
C987 C988 1.380 1_556 S
C987 C992 1.491 . S
C988 H978 0.930 . S
C988 C987 1.380 1_554 S
C988 C991 1.386 . S
H989 C1005 0.930 . S
H990 C1006 0.931 . S
C991 H979 0.929 . S
C991 C985 1.410 . S
C991 C988 1.386 . S
C992 C987 1.491 . S
C992 C994 1.395 . S
C992 C995 1.403 1_556 S
H993 C999 0.930 . S
C994 H980 0.930 . S
C994 C992 1.395 . S
C994 C997 1.403 . S
C995 C992 1.403 1_554 S
C995 C996 1.524 . S
C995 C999 1.400 . S
C996 H981 0.960 . S
C996 H982 0.960 . S
C996 H983 0.960 . S
C996 C995 1.524 . S
C997 C994 1.403 . S
C997 C998 1.392 . S
C997 C1001 1.495 . S
C998 C997 1.392 . S
C998 C999 1.385 1_556 S
C998 C1000 1.478 . S
C999 H993 0.930 . S
C999 C995 1.400 . S
C999 C998 1.385 1_554 S
C1000 C998 1.478 . S
C1000 C1002 1.381 . S
C1000 C1006 1.383 1_556 S
C1001 C997 1.495 . S
C1001 H1007 0.959 . S
C1001 H1008 0.961 . S
C1001 H1009 0.960 . S
C1002 C1000 1.381 . S
C1002 C1003 1.394 . S
C1002 H1010 0.930 . S
C1003 C1002 1.394 . S
C1003 C1004 1.383 . S
C1003 H1011 0.929 . S
C1004 C1003 1.383 . S
C1004 C1005 1.377 1_556 S
C1005 H989 0.930 . S
C1005 C1004 1.377 1_554 S
C1005 C1006 1.379 . S
C1006 H990 0.931 . S
C1006 C1000 1.383 1_554 S
C1006 C1005 1.379 . S
H1007 C1001 0.959 . S
H1008 C1001 0.961 . S
H1009 C1001 0.960 . S
H1010 C1002 0.930 . S
H1011 C1003 0.929 . S
H1012 C1020 0.929 . S
H1013 C1022 0.930 . S
H1014 C1024 0.930 . S
H1015 C1027 0.929 . S
H1016 C1030 0.930 . S
H1017 C1032 0.960 . S
H1018 C1032 0.960 . S
H1019 C1032 0.960 . S
C1020 H1012 0.929 . S
C1020 C1021 1.377 . S
C1020 C1022 1.384 . S
C1021 C1020 1.377 . S
C1021 C1027 1.390 . S
C1022 H1013 0.930 . S
C1022 C1020 1.384 . S
C1022 C1023 1.372 . S
C1023 C1022 1.372 . S
C1023 C1024 1.400 . S
C1023 C1028 1.490 . S
C1024 H1014 0.930 . S
C1024 C1023 1.400 . S
C1024 C1027 1.386 . S
H1025 C1041 0.930 . S
H1026 C1042 0.931 . S
C1027 H1015 0.929 . S
C1027 C1021 1.390 . S
C1027 C1024 1.386 . S
C1028 C1023 1.490 . S
C1028 C1030 1.395 . S
C1028 C1031 1.403 . S
H1029 C1035 0.930 . S
C1030 H1016 0.930 . S
C1030 C1028 1.395 . S
C1030 C1033 1.403 . S
C1031 C1028 1.403 . S
C1031 C1032 1.524 . S
C1031 C1035 1.400 . S
C1032 H1017 0.960 . S
C1032 H1018 0.960 . S
C1032 H1019 0.960 . S
C1032 C1031 1.524 . S
C1033 C1030 1.403 . S
C1033 C1034 1.392 . S
C1033 C1037 1.495 . S
C1034 C1033 1.392 . S
C1034 C1035 1.385 . S
C1034 C1036 1.478 . S
C1035 H1029 0.930 . S
C1035 C1031 1.400 . S
C1035 C1034 1.385 . S
C1036 C1034 1.478 . S
C1036 C1038 1.381 . S
C1036 C1042 1.383 . S
C1037 C1033 1.495 . S
C1037 H1043 0.959 . S
C1037 H1044 0.961 . S
C1037 H1045 0.960 . S
C1038 C1036 1.381 . S
C1038 C1039 1.394 . S
C1038 H1046 0.930 . S
C1039 C1038 1.394 . S
C1039 C1040 1.383 . S
C1039 H1047 0.929 . S
C1040 C1039 1.383 . S
C1040 C1041 1.377 . S
C1041 H1025 0.930 . S
C1041 C1040 1.377 . S
C1041 C1042 1.379 . S
C1042 H1026 0.931 . S
C1042 C1036 1.383 . S
C1042 C1041 1.379 . S
H1043 C1037 0.959 . S
H1044 C1037 0.961 . S
H1045 C1037 0.960 . S
H1046 C1038 0.930 . S
H1047 C1039 0.929 . S
H1048 C1056 0.929 . S
H1049 C1058 0.930 . S
H1050 C1060 0.930 . S
H1051 C1063 0.929 . S
H1052 C1066 0.930 . S
H1053 C1068 0.960 . S
H1054 C1068 0.960 . S
H1055 C1068 0.960 . S
C1056 H1048 0.929 . S
C1056 C1057 1.358 1_556 S
C1056 C1058 1.384 . S
C1057 C1056 1.358 1_554 S
C1057 C1063 1.408 . S
C1058 H1049 0.930 . S
C1058 C1056 1.384 . S
C1058 C1059 1.372 . S
C1059 C1058 1.372 . S
C1059 C1060 1.400 1_556 S
C1059 C1064 1.490 . S
C1060 H1050 0.930 . S
C1060 C1059 1.400 1_554 S
C1060 C1063 1.386 . S
H1061 C1077 0.930 . S
H1062 C1078 0.931 . S
C1063 H1051 0.929 . S
C1063 C1057 1.408 . S
C1063 C1060 1.386 . S
C1064 C1059 1.490 . S
C1064 C1066 1.395 . S
C1064 C1067 1.403 1_556 S
H1065 C1071 0.930 . S
C1066 H1052 0.930 . S
C1066 C1064 1.395 . S
C1066 C1069 1.403 . S
C1067 C1064 1.403 1_554 S
C1067 C1068 1.524 . S
C1067 C1071 1.400 . S
C1068 H1053 0.960 . S
C1068 H1054 0.960 . S
C1068 H1055 0.960 . S
C1068 C1067 1.524 . S
C1069 C1066 1.403 . S
C1069 C1070 1.392 . S
C1069 C1073 1.495 . S
C1070 C1069 1.392 . S
C1070 C1071 1.385 1_556 S
C1070 C1072 1.478 . S
C1071 H1065 0.930 . S
C1071 C1067 1.400 . S
C1071 C1070 1.385 1_554 S
C1072 C1070 1.478 . S
C1072 C1074 1.381 . S
C1072 C1078 1.383 1_556 S
C1073 C1069 1.495 . S
C1073 H1079 0.959 . S
C1073 H1080 0.961 . S
C1073 H1081 0.960 . S
C1074 C1072 1.381 . S
C1074 C1075 1.394 . S
C1074 H1082 0.930 . S
C1075 C1074 1.394 . S
C1075 C1076 1.388 . S
C1075 H1083 0.929 . S
C1076 C1075 1.388 . S
C1076 C1077 1.373 1_556 S
C1077 H1061 0.930 . S
C1077 C1076 1.373 1_554 S
C1077 C1078 1.379 . S
C1078 H1062 0.931 . S
C1078 C1072 1.383 1_554 S
C1078 C1077 1.379 . S
H1079 C1073 0.959 . S
H1080 C1073 0.961 . S
H1081 C1073 0.960 . S
H1082 C1074 0.930 . S
H1083 C1075 0.929 . S
H1084 C1092 0.929 . S
H1085 C1094 0.930 . S
H1086 C1096 0.930 . S
H1087 C1099 0.929 . S
H1088 C1102 0.930 . S
H1089 C1104 0.960 . S
H1090 C1104 0.960 . S
H1091 C1104 0.960 . S
C1092 H1084 0.929 . S
C1092 C1093 1.377 . S
C1092 C1094 1.384 . S
C1093 C1092 1.377 . S
C1093 C1099 1.390 . S
C1094 H1085 0.930 . S
C1094 C1092 1.384 . S
C1094 C1095 1.372 . S
C1095 C1094 1.372 . S
C1095 C1096 1.400 . S
C1095 C1100 1.490 . S
C1096 H1086 0.930 . S
C1096 C1095 1.400 . S
C1096 C1099 1.386 . S
H1097 C1113 0.930 . S
H1098 C1114 0.931 . S
C1099 H1087 0.929 . S
C1099 C1093 1.390 . S
C1099 C1096 1.386 . S
C1100 C1095 1.490 . S
C1100 C1102 1.395 . S
C1100 C1103 1.403 . S
H1101 C1107 0.930 . S
C1102 H1088 0.930 . S
C1102 C1100 1.395 . S
C1102 C1105 1.403 . S
C1103 C1100 1.403 . S
C1103 C1104 1.524 . S
C1103 C1107 1.400 . S
C1104 H1089 0.960 . S
C1104 H1090 0.960 . S
C1104 H1091 0.960 . S
C1104 C1103 1.524 . S
C1105 C1102 1.403 . S
C1105 C1106 1.392 . S
C1105 C1109 1.495 . S
C1106 C1105 1.392 . S
C1106 C1107 1.385 . S
C1106 C1108 1.478 . S
C1107 H1101 0.930 . S
C1107 C1103 1.400 . S
C1107 C1106 1.385 . S
C1108 C1106 1.478 . S
C1108 C1110 1.381 . S
C1108 C1114 1.383 . S
C1109 C1105 1.495 . S
C1109 H1115 0.959 . S
C1109 H1116 0.961 . S
C1109 H1117 0.960 . S
C1110 C1108 1.381 . S
C1110 C1111 1.394 . S
C1110 H1118 0.930 . S
C1111 C1110 1.394 . S
C1111 C1112 1.383 . S
C1111 H1119 0.929 . S
C1112 C1111 1.383 . S
C1112 C1113 1.377 . S
C1113 H1097 0.930 . S
C1113 C1112 1.377 . S
C1113 C1114 1.379 . S
C1114 H1098 0.931 . S
C1114 C1108 1.383 . S
C1114 C1113 1.379 . S
H1115 C1109 0.959 . S
H1116 C1109 0.961 . S
H1117 C1109 0.960 . S
H1118 C1110 0.930 . S
H1119 C1111 0.929 . S
H1120 C1128 0.929 . S
H1121 C1130 0.930 . S
H1122 C1132 0.930 . S
H1123 C1135 0.929 . S
H1124 C1138 0.930 . S
H1125 C1140 0.960 . S
H1126 C1140 0.960 . S
H1127 C1140 0.960 . S
C1128 H1120 0.929 . S
C1128 C1129 1.377 . S
C1128 C1130 1.384 . S
C1129 C1128 1.377 . S
C1129 C1135 1.390 . S
C1130 H1121 0.930 . S
C1130 C1128 1.384 . S
C1130 C1131 1.372 . S
C1131 C1130 1.372 . S
C1131 C1132 1.400 . S
C1131 C1136 1.490 . S
C1132 H1122 0.930 . S
C1132 C1131 1.400 . S
C1132 C1135 1.386 . S
H1133 C1149 0.930 . S
H1134 C1150 0.931 . S
C1135 H1123 0.929 . S
C1135 C1129 1.390 . S
C1135 C1132 1.386 . S
C1136 C1131 1.490 . S
C1136 C1138 1.395 . S
C1136 C1139 1.403 . S
H1137 C1143 0.930 . S
C1138 H1124 0.930 . S
C1138 C1136 1.395 . S
C1138 C1141 1.403 . S
C1139 C1136 1.403 . S
C1139 C1140 1.524 . S
C1139 C1143 1.400 . S
C1140 H1125 0.960 . S
C1140 H1126 0.960 . S
C1140 H1127 0.960 . S
C1140 C1139 1.524 . S
C1141 C1138 1.403 . S
C1141 C1142 1.392 . S
C1141 C1145 1.495 . S
C1142 C1141 1.392 . S
C1142 C1143 1.385 . S
C1142 C1144 1.478 . S
C1143 H1137 0.930 . S
C1143 C1139 1.400 . S
C1143 C1142 1.385 . S
C1144 C1142 1.478 . S
C1144 C1146 1.381 . S
C1144 C1150 1.383 . S
C1145 C1141 1.495 . S
C1145 H1151 0.959 . S
C1145 H1152 0.961 . S
C1145 H1153 0.960 . S
C1146 C1144 1.381 . S
C1146 C1147 1.394 . S
C1146 H1154 0.930 . S
C1147 C1146 1.394 . S
C1147 C1148 1.383 . S
C1147 H1155 0.929 . S
C1148 C1147 1.383 . S
C1148 C1149 1.377 . S
C1149 H1133 0.930 . S
C1149 C1148 1.377 . S
C1149 C1150 1.379 . S
C1150 H1134 0.931 . S
C1150 C1144 1.383 . S
C1150 C1149 1.379 . S
H1151 C1145 0.959 . S
H1152 C1145 0.961 . S
H1153 C1145 0.960 . S
H1154 C1146 0.930 . S
H1155 C1147 0.929 . S
H1156 C1164 0.929 . S
H1157 C1166 0.930 . S
H1158 C1168 0.930 . S
H1159 C1171 0.929 . S
H1160 C1174 0.930 . S
H1161 C1176 0.960 . S
H1162 C1176 0.960 . S
H1163 C1176 0.960 . S
C1164 H1156 0.929 . S
C1164 C1165 1.378 . S
C1164 C1166 1.384 . S
C1165 C1164 1.378 . S
C1165 C1171 1.389 1_556 S
C1166 H1157 0.930 . S
C1166 C1164 1.384 . S
C1166 C1167 1.378 . S
C1167 C1166 1.378 . S
C1167 C1168 1.394 1_556 S
C1167 C1172 1.490 1_556 S
C1168 H1158 0.930 . S
C1168 C1167 1.394 1_554 S
C1168 C1171 1.386 . S
H1169 C1185 0.930 . S
H1170 C1186 0.931 . S
C1171 H1159 0.929 . S
C1171 C1165 1.389 1_554 S
C1171 C1168 1.386 . S
C1172 C1167 1.490 1_554 S
C1172 C1174 1.398 . S
C1172 C1175 1.399 1_554 S
H1173 C1179 0.930 . S
C1174 H1160 0.930 . S
C1174 C1172 1.398 . S
C1174 C1177 1.403 . S
C1175 C1172 1.399 1_556 S
C1175 C1176 1.524 . S
C1175 C1179 1.400 . S
C1176 H1161 0.960 . S
C1176 H1162 0.960 . S
C1176 H1163 0.960 . S
C1176 C1175 1.524 . S
C1177 C1174 1.403 . S
C1177 C1178 1.392 . S
C1177 C1181 1.495 . S
C1178 C1177 1.392 . S
C1178 C1179 1.385 1_554 S
C1178 C1180 1.478 . S
C1179 H1173 0.930 . S
C1179 C1175 1.400 . S
C1179 C1178 1.385 1_556 S
C1180 C1178 1.478 . S
C1180 C1182 1.381 1_554 S
C1180 C1186 1.383 . S
C1181 C1177 1.495 . S
C1181 H1187 0.959 . S
C1181 H1188 0.961 . S
C1181 H1189 0.960 . S
C1182 C1180 1.381 1_556 S
C1182 C1183 1.394 . S
C1182 H1190 0.930 . S
C1183 C1182 1.394 . S
C1183 C1184 1.383 1_556 S
C1183 H1191 0.929 . S
C1184 C1183 1.383 1_554 S
C1184 C1185 1.377 . S
C1185 H1169 0.930 . S
C1185 C1184 1.377 . S
C1185 C1186 1.379 . S
C1186 H1170 0.931 . S
C1186 C1180 1.383 . S
C1186 C1185 1.379 . S
H1187 C1181 0.959 . S
H1188 C1181 0.961 . S
H1189 C1181 0.960 . S
H1190 C1182 0.930 . S
H1191 C1183 0.929 . S
H1192 C1200 0.929 . S
H1193 C1202 0.930 . S
H1194 C1204 0.930 . S
H1195 C1207 0.929 . S
H1196 C1210 0.930 . S
H1197 C1212 0.960 . S
H1198 C1212 0.960 . S
H1199 C1212 0.960 . S
C1200 H1192 0.929 . S
C1200 C1201 1.377 . S
C1200 C1202 1.384 . S
C1201 C1200 1.377 . S
C1201 C1207 1.390 . S
C1202 H1193 0.930 . S
C1202 C1200 1.384 . S
C1202 C1203 1.372 . S
C1203 C1202 1.372 . S
C1203 C1204 1.400 . S
C1203 C1208 1.490 . S
C1204 H1194 0.930 . S
C1204 C1203 1.400 . S
C1204 C1207 1.386 . S
H1205 C1221 0.930 . S
H1206 C1222 0.931 . S
C1207 H1195 0.929 . S
C1207 C1201 1.390 . S
C1207 C1204 1.386 . S
C1208 C1203 1.490 . S
C1208 C1210 1.395 . S
C1208 C1211 1.403 . S
H1209 C1215 0.930 . S
C1210 H1196 0.930 . S
C1210 C1208 1.395 . S
C1210 C1213 1.403 . S
C1211 C1208 1.403 . S
C1211 C1212 1.524 . S
C1211 C1215 1.400 . S
C1212 H1197 0.960 . S
C1212 H1198 0.960 . S
C1212 H1199 0.960 . S
C1212 C1211 1.524 . S
C1213 C1210 1.403 . S
C1213 C1214 1.392 . S
C1213 C1217 1.495 . S
C1214 C1213 1.392 . S
C1214 C1215 1.385 . S
C1214 C1216 1.478 . S
C1215 H1209 0.930 . S
C1215 C1211 1.400 . S
C1215 C1214 1.385 . S
C1216 C1214 1.478 . S
C1216 C1218 1.381 . S
C1216 C1222 1.383 . S
C1217 C1213 1.495 . S
C1217 H1223 0.959 . S
C1217 H1224 0.961 . S
C1217 H1225 0.960 . S
C1218 C1216 1.381 . S
C1218 C1219 1.394 . S
C1218 H1226 0.930 . S
C1219 C1218 1.394 . S
C1219 C1220 1.383 . S
C1219 H1227 0.929 . S
C1220 C1219 1.383 . S
C1220 C1221 1.377 . S
C1221 H1205 0.930 . S
C1221 C1220 1.377 . S
C1221 C1222 1.379 . S
C1222 H1206 0.931 . S
C1222 C1216 1.383 . S
C1222 C1221 1.379 . S
H1223 C1217 0.959 . S
H1224 C1217 0.961 . S
H1225 C1217 0.960 . S
H1226 C1218 0.930 . S
H1227 C1219 0.929 . S
H1228 C1236 0.929 . S
H1229 C1238 0.930 . S
H1230 C1240 0.930 . S
H1231 C1243 0.929 . S
H1232 C1246 0.930 . S
H1233 C1248 0.960 . S
H1234 C1248 0.960 1_554 S
H1235 C1248 0.960 . S
C1236 H1228 0.929 . S
C1236 C1237 1.395 . S
C1236 C1238 1.384 . S
C1237 C1236 1.395 . S
C1237 C1243 1.373 1_554 S
C1238 H1229 0.930 . S
C1238 C1236 1.384 . S
C1238 C1239 1.372 . S
C1239 C1238 1.372 . S
C1239 C1240 1.400 1_554 S
C1239 C1244 1.490 . S
C1240 H1230 0.930 . S
C1240 C1239 1.400 1_556 S
C1240 C1243 1.386 . S
H1241 C1257 0.930 . S
H1242 C1258 0.931 . S
C1243 H1231 0.929 . S
C1243 C1237 1.373 1_556 S
C1243 C1240 1.386 . S
C1244 C1239 1.490 . S
C1244 C1246 1.395 . S
C1244 C1247 1.402 1_554 S
H1245 C1251 0.933 . S
C1246 H1232 0.930 . S
C1246 C1244 1.395 . S
C1246 C1249 1.403 . S
C1247 C1244 1.402 1_556 S
C1247 C1248 1.524 . S
C1247 C1251 1.400 . S
C1248 H1233 0.960 . S
C1248 H1234 0.960 1_556 S
C1248 H1235 0.960 . S
C1248 C1247 1.524 . S
C1249 C1246 1.403 . S
C1249 C1250 1.392 . S
C1249 C1253 1.495 . S
C1250 C1249 1.392 . S
C1250 C1251 1.383 1_554 S
C1250 C1252 1.478 . S
C1251 H1245 0.933 . S
C1251 C1247 1.400 . S
C1251 C1250 1.383 1_556 S
C1252 C1250 1.478 . S
C1252 C1254 1.381 . S
C1252 C1258 1.383 1_554 S
C1253 C1249 1.495 . S
C1253 H1259 0.959 . S
C1253 H1260 0.961 1_554 S
C1253 H1261 0.960 . S
C1254 C1252 1.381 . S
C1254 C1255 1.394 . S
C1254 H1262 0.930 . S
C1255 C1254 1.394 . S
C1255 C1256 1.402 . S
C1255 H1263 0.929 . S
C1256 C1255 1.402 . S
C1256 C1257 1.358 1_554 S
C1257 H1241 0.930 . S
C1257 C1256 1.358 1_556 S
C1257 C1258 1.379 . S
C1258 H1242 0.931 . S
C1258 C1252 1.383 1_556 S
C1258 C1257 1.379 . S
H1259 C1253 0.959 . S
H1260 C1253 0.961 1_556 S
H1261 C1253 0.960 . S
H1262 C1254 0.930 . S
H1263 C1255 0.929 . S
C409 C21 1.595 . S
C428 C221 1.599 . S
C445 C40 1.701 . S
C464 C89 1.648 . S
C500 C128 1.525 . S
C481 C54 1.556 . S
C517 C73 1.742 . S
C536 C182 1.717 . S
C572 C284 1.511 . S
C553 C74 1.555 . S
C608 C338 1.635 . S
C589 C10 1.700 . S
C644 C377 1.570 . S
C625 C37 1.591 . S
C680 C245 1.711 . S
C661 C65 1.743 . S
C697 C52 1.559 . S
C716 C143 1.514 . S
C733 C87 1.742 . S
C752 C167 1.681 . S
C769 C15 1.598 . S
C788 C206 1.572 . S
C824 C104 1.634 . S
C805 C32 1.694 . S
C841 C29 1.597 . S
C860 C362 1.586 . S
C896 C260 1.684 . S
C877 C59 1.741 . S
C932 C299 1.534 . S
C913 C84 1.555 . S
C949 C8 1.695 . S
C968 C323 1.627 . S
C1004 C109 1.816 1_556 S
C985 C7 1.842 . S
C1040 C148 1.637 . S
C1021 C30 1.678 . S
C1057 C62 1.865 . S
C1076 C187 1.825 1_556 S
C1093 C81 1.666 . S
C1112 C226 1.660 . S
C1148 C265 1.808 . S
C1129 C76 1.863 . S
C1165 C18 1.678 . S
C1184 C304 1.667 1_554 S
C1201 C43 1.842 . S
C1220 C343 1.776 . S
C1237 C51 1.664 1_554 S
C1256 C382 1.657 . S
