# Generated by pormake.
# Topology ctn, (3,4)-cn, num edge types: 1
# Building blocks:
#     Node 0, Type 0, BuildingBlock: CUQRIR_clean_linker_1, # of connection points: 3
#     Node 1, Type 0, BuildingBlock: CUQRIR_clean_linker_1, # of connection points: 3
#     Node 2, Type 0, BuildingBlock: CUQRIR_clean_linker_1, # of connection points: 3
#     Node 3, Type 0, BuildingBlock: CUQRIR_clean_linker_1, # of connection points: 3
#     Node 4, Type 0, BuildingBlock: CUQRIR_clean_linker_1, # of connection points: 3
#     Node 5, Type 0, BuildingBlock: CUQRIR_clean_linker_1, # of connection points: 3
#     Node 6, Type 0, BuildingBlock: CUQRIR_clean_linker_1, # of connection points: 3
#     Node 7, Type 0, BuildingBlock: CUQRIR_clean_linker_1, # of connection points: 3
#     Node 8, Type 0, BuildingBlock: CUQRIR_clean_linker_1, # of connection points: 3
#     Node 9, Type 0, BuildingBlock: CUQRIR_clean_linker_1, # of connection points: 3
#     Node 10, Type 0, BuildingBlock: CUQRIR_clean_linker_1, # of connection points: 3
#     Node 11, Type 0, BuildingBlock: CUQRIR_clean_linker_1, # of connection points: 3
#     Node 12, Type 0, BuildingBlock: CUQRIR_clean_linker_1, # of connection points: 3
#     Node 13, Type 0, BuildingBlock: CUQRIR_clean_linker_1, # of connection points: 3
#     Node 14, Type 0, BuildingBlock: CUQRIR_clean_linker_1, # of connection points: 3
#     Node 15, Type 0, BuildingBlock: CUQRIR_clean_linker_1, # of connection points: 3
#     Node 16, Type 1, BuildingBlock: AZAVOO_clean_sbu_0, # of connection points: 4
#     Node 17, Type 1, BuildingBlock: AZAVOO_clean_sbu_0, # of connection points: 4
#     Node 18, Type 1, BuildingBlock: AZAVOO_clean_sbu_0, # of connection points: 4
#     Node 19, Type 1, BuildingBlock: AZAVOO_clean_sbu_0, # of connection points: 4
#     Node 20, Type 1, BuildingBlock: AZAVOO_clean_sbu_0, # of connection points: 4
#     Node 21, Type 1, BuildingBlock: AZAVOO_clean_sbu_0, # of connection points: 4
#     Node 22, Type 1, BuildingBlock: AZAVOO_clean_sbu_0, # of connection points: 4
#     Node 23, Type 1, BuildingBlock: AZAVOO_clean_sbu_0, # of connection points: 4
#     Node 24, Type 1, BuildingBlock: AZAVOO_clean_sbu_0, # of connection points: 4
#     Node 25, Type 1, BuildingBlock: AZAVOO_clean_sbu_0, # of connection points: 4
#     Node 26, Type 1, BuildingBlock: AZAVOO_clean_sbu_0, # of connection points: 4
#     Node 27, Type 1, BuildingBlock: AZAVOO_clean_sbu_0, # of connection points: 4
#     Edge 28, Type (0, 1), BuildingBlock: MIFKUJ_clean_linker_0, # of connection points: 2
#     Edge 29, Type (0, 1), BuildingBlock: MIFKUJ_clean_linker_0, # of connection points: 2
#     Edge 30, Type (0, 1), BuildingBlock: MIFKUJ_clean_linker_0, # of connection points: 2
#     Edge 31, Type (0, 1), BuildingBlock: MIFKUJ_clean_linker_0, # of connection points: 2
#     Edge 32, Type (0, 1), BuildingBlock: MIFKUJ_clean_linker_0, # of connection points: 2
#     Edge 33, Type (0, 1), BuildingBlock: MIFKUJ_clean_linker_0, # of connection points: 2
#     Edge 34, Type (0, 1), BuildingBlock: MIFKUJ_clean_linker_0, # of connection points: 2
#     Edge 35, Type (0, 1), BuildingBlock: MIFKUJ_clean_linker_0, # of connection points: 2
#     Edge 36, Type (0, 1), BuildingBlock: MIFKUJ_clean_linker_0, # of connection points: 2
#     Edge 37, Type (0, 1), BuildingBlock: MIFKUJ_clean_linker_0, # of connection points: 2
#     Edge 38, Type (0, 1), BuildingBlock: MIFKUJ_clean_linker_0, # of connection points: 2
#     Edge 39, Type (0, 1), BuildingBlock: MIFKUJ_clean_linker_0, # of connection points: 2
#     Edge 40, Type (0, 1), BuildingBlock: MIFKUJ_clean_linker_0, # of connection points: 2
#     Edge 41, Type (0, 1), BuildingBlock: MIFKUJ_clean_linker_0, # of connection points: 2
#     Edge 42, Type (0, 1), BuildingBlock: MIFKUJ_clean_linker_0, # of connection points: 2
#     Edge 43, Type (0, 1), BuildingBlock: MIFKUJ_clean_linker_0, # of connection points: 2
#     Edge 44, Type (0, 1), BuildingBlock: MIFKUJ_clean_linker_0, # of connection points: 2
#     Edge 45, Type (0, 1), BuildingBlock: MIFKUJ_clean_linker_0, # of connection points: 2
#     Edge 46, Type (0, 1), BuildingBlock: MIFKUJ_clean_linker_0, # of connection points: 2
#     Edge 47, Type (0, 1), BuildingBlock: MIFKUJ_clean_linker_0, # of connection points: 2
#     Edge 48, Type (0, 1), BuildingBlock: MIFKUJ_clean_linker_0, # of connection points: 2
#     Edge 49, Type (0, 1), BuildingBlock: MIFKUJ_clean_linker_0, # of connection points: 2
#     Edge 50, Type (0, 1), BuildingBlock: MIFKUJ_clean_linker_0, # of connection points: 2
#     Edge 51, Type (0, 1), BuildingBlock: MIFKUJ_clean_linker_0, # of connection points: 2
#     Edge 52, Type (0, 1), BuildingBlock: MIFKUJ_clean_linker_0, # of connection points: 2
#     Edge 53, Type (0, 1), BuildingBlock: MIFKUJ_clean_linker_0, # of connection points: 2
#     Edge 54, Type (0, 1), BuildingBlock: MIFKUJ_clean_linker_0, # of connection points: 2
#     Edge 55, Type (0, 1), BuildingBlock: MIFKUJ_clean_linker_0, # of connection points: 2
#     Edge 56, Type (0, 1), BuildingBlock: MIFKUJ_clean_linker_0, # of connection points: 2
#     Edge 57, Type (0, 1), BuildingBlock: MIFKUJ_clean_linker_0, # of connection points: 2
#     Edge 58, Type (0, 1), BuildingBlock: MIFKUJ_clean_linker_0, # of connection points: 2
#     Edge 59, Type (0, 1), BuildingBlock: MIFKUJ_clean_linker_0, # of connection points: 2
#     Edge 60, Type (0, 1), BuildingBlock: MIFKUJ_clean_linker_0, # of connection points: 2
#     Edge 61, Type (0, 1), BuildingBlock: MIFKUJ_clean_linker_0, # of connection points: 2
#     Edge 62, Type (0, 1), BuildingBlock: MIFKUJ_clean_linker_0, # of connection points: 2
#     Edge 63, Type (0, 1), BuildingBlock: MIFKUJ_clean_linker_0, # of connection points: 2
#     Edge 64, Type (0, 1), BuildingBlock: MIFKUJ_clean_linker_0, # of connection points: 2
#     Edge 65, Type (0, 1), BuildingBlock: MIFKUJ_clean_linker_0, # of connection points: 2
#     Edge 66, Type (0, 1), BuildingBlock: MIFKUJ_clean_linker_0, # of connection points: 2
#     Edge 67, Type (0, 1), BuildingBlock: MIFKUJ_clean_linker_0, # of connection points: 2
#     Edge 68, Type (0, 1), BuildingBlock: MIFKUJ_clean_linker_0, # of connection points: 2
#     Edge 69, Type (0, 1), BuildingBlock: MIFKUJ_clean_linker_0, # of connection points: 2
#     Edge 70, Type (0, 1), BuildingBlock: MIFKUJ_clean_linker_0, # of connection points: 2
#     Edge 71, Type (0, 1), BuildingBlock: MIFKUJ_clean_linker_0, # of connection points: 2
#     Edge 72, Type (0, 1), BuildingBlock: MIFKUJ_clean_linker_0, # of connection points: 2
#     Edge 73, Type (0, 1), BuildingBlock: MIFKUJ_clean_linker_0, # of connection points: 2
#     Edge 74, Type (0, 1), BuildingBlock: MIFKUJ_clean_linker_0, # of connection points: 2
#     Edge 75, Type (0, 1), BuildingBlock: MIFKUJ_clean_linker_0, # of connection points: 2
# Relax obj value: 0.078
# Max RMSD: 0.209
# Mean RMSD: 0.134
data_MOF--net-ctn--node1-AZAVOO_clean_sbu_0--node2-CUQRIR_clean_linker_1--edge1-MIFKUJ_clean_linker_0
_symmetry_space_group_name_H-M    P1
_symmetry_Int_Tables_number       1
_symmetry_cell_setting            triclinic
loop_
_symmetry_equiv_pos_as_xyz
'x, y, z'
_cell_length_a     68.235897
_cell_length_b     64.6267
_cell_length_c     66.194865
_cell_angle_alpha  96.604798
_cell_angle_beta   91.36442
_cell_angle_gamma 95.447557
loop_
_atom_site_label
_atom_site_type_symbol
_atom_site_fract_x
_atom_site_fract_y
_atom_site_fract_z
_atom_type_partial_charge
C0 C 0.03526 0.99048 0.05057 0.0
N1 N 0.04364 0.99775 0.0341 0.0
N2 N 0.01857 0.99961 0.05496 0.0
C3 C 0.04293 0.97375 0.06175 0.0
C4 C 0.01713 0.01273 0.04055 0.0
N5 N 0.03219 0.01133 0.02764 0.0
C6 C 1.00231 0.02861 0.04051 0.0
H7 H 0.05026 0.96253 0.05121 0.0
H8 H 0.03087 0.96512 0.06924 0.0
H9 H 0.054 0.9812 0.07358 0.0
H10 H 0.9972 0.033 0.05607 0.0
H11 H 0.98939 0.02179 0.03065 0.0
H12 H 0.00867 0.043 0.03446 0.0
C13 C 0.29955 0.73707 0.23875 0.0
N14 N 0.30571 0.72646 0.25382 0.0
N15 N 0.31395 0.7515 0.2343 0.0
C16 C 0.27963 0.73306 0.22798 0.0
C17 C 0.32919 0.74926 0.24704 0.0
N18 N 0.32425 0.73391 0.25883 0.0
C19 C 0.34874 0.7622 0.24824 0.0
H20 H 0.27997 0.73846 0.21267 0.0
H21 H 0.26895 0.74177 0.23707 0.0
H22 H 0.27438 0.71615 0.22646 0.0
H23 H 0.34956 0.77355 0.26222 0.0
H24 H 0.35076 0.77092 0.23483 0.0
H25 H 0.36083 0.75201 0.2494 0.0
C26 C 0.97415 0.48931 0.08063 0.0
N27 N 0.98481 0.47262 0.08019 0.0
N28 N 0.96052 0.48651 0.06507 0.0
C29 C 0.97711 0.50831 0.0962 0.0
C30 C 0.96328 0.46752 0.0552 0.0
N31 N 0.97804 0.45911 0.06438 0.0
C32 C 0.95205 0.45752 0.03618 0.0
H33 H 0.98041 0.50383 0.11149 0.0
H34 H 0.96394 0.51715 0.09693 0.0
H35 H 0.98991 0.51868 0.09202 0.0
H36 H 0.94712 0.46957 0.02707 0.0
H37 H 0.93885 0.44787 0.04053 0.0
H38 H 0.96117 0.44715 0.0267 0.0
C39 C 0.6922 0.78838 0.23425 0.0
N40 N 0.70767 0.79703 0.22464 0.0
N41 N 0.68696 0.80201 0.24978 0.0
C42 C 0.68268 0.76639 0.22895 0.0
C43 C 0.69976 0.81926 0.24929 0.0
N44 N 0.7122 0.81636 0.23379 0.0
C45 C 0.70077 0.83857 0.26451 0.0
H46 H 0.66719 0.76489 0.23368 0.0
H47 H 0.6909 0.75565 0.23707 0.0
H48 H 0.68314 0.76149 0.21236 0.0
H49 H 0.71631 0.8436 0.26951 0.0
H50 H 0.69191 0.83608 0.27798 0.0
H51 H 0.69501 0.85144 0.25716 0.0
C52 C 0.03427 0.98957 0.49384 0.0
N53 N 0.0512 0.99232 0.50543 0.0
N54 N 0.03544 1.00195 0.47868 0.0
C55 C 0.01668 0.97463 0.49726 0.0
C56 C 0.05373 0.01213 0.48125 0.0
N57 N 0.0634 0.00616 0.49736 0.0
C58 C 0.06241 0.02761 0.46783 0.0
H59 H 0.0064 0.97152 0.48382 0.0
H60 H 0.00855 0.98153 0.51029 0.0
H61 H 0.02152 0.95965 0.50118 0.0
H62 H 0.06277 0.04361 0.47606 0.0
H63 H 0.05374 0.02691 0.45334 0.0
H64 H 0.07779 0.02456 0.46447 0.0
C65 C 0.18314 0.7137 0.78816 0.0
N66 N 0.19856 0.70721 0.79816 0.0
N67 N 0.18068 0.70341 0.76912 0.0
C68 C 0.17191 0.73176 0.79608 0.0
C69 C 0.19539 0.6907 0.76776 0.0
N70 N 0.20631 0.69309 0.78537 0.0
C71 C 0.19858 0.67527 0.74962 0.0
H72 H 0.15907 0.72574 0.80442 0.0
H73 H 0.16641 0.73977 0.78343 0.0
H74 H 0.18129 0.74337 0.80667 0.0
H75 H 0.2096 0.6826 0.73989 0.0
H76 H 0.18469 0.67065 0.74048 0.0
H77 H 0.20438 0.6611 0.75451 0.0
C78 C 0.95079 0.51292 0.45375 0.0
N79 N 0.96577 0.52851 0.45592 0.0
N80 N 0.93925 0.51427 0.47009 0.0
C81 C 0.94834 0.49535 0.4366 0.0
C82 C 0.94773 0.53101 0.48237 0.0
N83 N 0.96398 0.53959 0.47389 0.0
C84 C 0.93939 0.53962 0.50209 0.0
H85 H 0.94022 0.50055 0.42367 0.0
H86 H 0.93983 0.48131 0.4413 0.0
H87 H 0.96289 0.49107 0.43131 0.0
H88 H 0.94638 0.53287 0.5148 0.0
H89 H 0.92325 0.53542 0.50217 0.0
H90 H 0.94248 0.55688 0.50472 0.0
C91 C 0.79817 0.79733 0.81519 0.0
N92 N 0.81401 0.78626 0.81241 0.0
N93 N 0.7964 0.80975 0.80022 0.0
C94 C 0.78347 0.79464 0.83153 0.0
C95 C 0.81167 0.80569 0.78814 0.0
N96 N 0.82224 0.79127 0.79541 0.0
C97 C 0.817 0.81668 0.76989 0.0
H98 H 0.76868 0.7983 0.82655 0.0
H99 H 0.78844 0.80545 0.84533 0.0
H100 H 0.78233 0.77841 0.83563 0.0
H101 H 0.81204 0.83263 0.77141 0.0
H102 H 0.80971 0.80752 0.75609 0.0
H103 H 0.83313 0.81784 0.76784 0.0
C104 C 0.2947 0.29787 0.31504 0.0
N105 N 0.31092 0.28745 0.3121 0.0
N106 N 0.29398 0.31249 0.30198 0.0
C107 C 0.27959 0.29386 0.33069 0.0
C108 C 0.31038 0.31058 0.29104 0.0
N109 N 0.32068 0.29541 0.29721 0.0
C110 C 0.31593 0.3229 0.27373 0.0
H111 H 0.26795 0.2818 0.32377 0.0
H112 H 0.27264 0.30831 0.33579 0.0
H113 H 0.28615 0.28793 0.3441 0.0
H114 H 0.32609 0.33681 0.27969 0.0
H115 H 0.30276 0.32828 0.26657 0.0
H116 H 0.32367 0.31338 0.26201 0.0
C117 C 0.47198 0.99201 0.58069 0.0
N118 N 0.48356 0.97604 0.58032 0.0
N119 N 0.46069 0.99026 0.56335 0.0
C120 C 0.4717 0.00928 0.59795 0.0
C121 C 0.46596 0.97284 0.55232 0.0
N122 N 0.48 0.96433 0.56253 0.0
C123 C 0.45717 0.96377 0.53178 0.0
H124 H 0.46241 0.00352 0.61005 0.0
H125 H 0.4655 0.02319 0.59301 0.0
H126 H 0.4868 0.01392 0.60455 0.0
H127 H 0.44618 0.97346 0.52606 0.0
H128 H 0.45007 0.94777 0.53282 0.0
H129 H 0.46901 0.96235 0.52066 0.0
C130 C 0.19819 0.28864 0.73707 0.0
N131 N 0.21441 0.297 0.72837 0.0
N132 N 0.19505 0.30007 0.75498 0.0
C133 C 0.18652 0.26828 0.72908 0.0
C134 C 0.21001 0.31559 0.7569 0.0
N135 N 0.2218 0.31364 0.74082 0.0
C136 C 0.21293 0.33292 0.77426 0.0
H137 H 0.17452 0.27149 0.71863 0.0
H138 H 0.17983 0.26043 0.74166 0.0
H139 H 0.19597 0.25755 0.72049 0.0
H140 H 0.22305 0.32828 0.78594 0.0
H141 H 0.19875 0.33593 0.78134 0.0
H142 H 0.21975 0.34757 0.76904 0.0
C143 C 0.79512 0.23478 0.73888 0.0
N144 N 0.80272 0.22403 0.75313 0.0
N145 N 0.80898 0.24905 0.73303 0.0
C146 C 0.77458 0.23039 0.72957 0.0
C147 C 0.82537 0.24648 0.74401 0.0
N148 N 0.82161 0.23116 0.75613 0.0
C149 C 0.8449 0.25921 0.74341 0.0
H150 H 0.77378 0.23558 0.7142 0.0
H151 H 0.7644 0.23904 0.73941 0.0
H152 H 0.76958 0.21344 0.72843 0.0
H153 H 0.84957 0.26645 0.75901 0.0
H154 H 0.84428 0.27165 0.73325 0.0
H155 H 0.85614 0.2487 0.73808 0.0
C156 C 0.53252 0.49146 0.55218 0.0
N157 N 0.54107 0.49871 0.5358 0.0
N158 N 0.51502 0.49937 0.55546 0.0
C159 C 0.54102 0.47608 0.56451 0.0
C160 C 0.51326 0.51169 0.54039 0.0
N161 N 0.52896 0.51104 0.52827 0.0
C162 C 0.49729 0.52606 0.53878 0.0
H163 H 0.5493 0.46509 0.55472 0.0
H164 H 0.52927 0.46705 0.57206 0.0
H165 H 0.55145 0.48476 0.57633 0.0
H166 H 0.50268 0.54017 0.53167 0.0
H167 H 0.49169 0.53113 0.55397 0.0
H168 H 0.48489 0.51758 0.52911 0.0
C169 C 0.53416 0.49588 0.99804 0.0
N170 N 0.55168 0.49637 0.00834 0.0
N171 N 0.53576 0.50831 0.9829 0.0
C172 C 0.51604 0.48161 1.00134 0.0
C173 C 0.5549 0.51617 0.9842 0.0
N174 N 0.56466 0.50875 0.99944 0.0
C175 C 0.56384 0.53205 0.97133 0.0
H176 H 0.52011 0.46653 0.00586 0.0
H177 H 0.50633 0.47838 0.98744 0.0
H178 H 0.50768 0.48925 0.01379 0.0
H179 H 0.55241 0.5404 0.96439 0.0
H180 H 0.57212 0.52404 0.95903 0.0
H181 H 0.5743 0.54359 0.98077 0.0
C182 C 0.6892 0.21576 0.28305 0.0
N183 N 0.70428 0.20809 0.29239 0.0
N184 N 0.68269 0.20282 0.26623 0.0
C185 C 0.68072 0.23579 0.29059 0.0
C186 C 0.69442 0.18698 0.26564 0.0
N187 N 0.70743 0.19005 0.28179 0.0
C188 C 0.69322 0.16862 0.24934 0.0
H189 H 0.67227 0.23338 0.30438 0.0
H190 H 0.67089 0.24092 0.27896 0.0
H191 H 0.69273 0.24842 0.29498 0.0
H192 H 0.68562 0.17198 0.23528 0.0
H193 H 0.68479 0.15505 0.25499 0.0
H194 H 0.70819 0.16423 0.24574 0.0
C195 C 0.45417 0.01104 0.95575 0.0
N196 N 0.46807 0.02767 0.95737 0.0
N197 N 0.4429 0.01179 0.97231 0.0
C198 C 0.45244 0.99329 0.93879 0.0
C199 C 0.45043 0.02932 0.98412 0.0
N200 N 0.46582 0.03886 0.97516 0.0
C201 C 0.44237 0.03755 0.0041 0.0
H202 H 0.44395 0.99786 0.92579 0.0
H203 H 0.44464 0.97894 0.94367 0.0
H204 H 0.46722 0.98983 0.93352 0.0
H205 H 0.45238 0.03444 0.01662 0.0
H206 H 0.42741 0.03001 0.00629 0.0
H207 H 0.44188 0.05475 0.00501 0.0
Mg208 Mg 0.23608 0.8544 0.03163 0.0
O209 O 0.26545 0.87386 0.02646 0.0
O210 O 0.28943 0.85288 0.02924 0.0
Mg211 Mg 0.27605 0.82033 0.03418 0.0
C212 C 0.28366 0.87058 0.02646 0.0
C213 C 0.20291 0.87549 0.00979 0.0
O214 O 0.19873 0.856 1.00165 0.0
O215 O 0.23665 0.83756 0.9993 0.0
O216 O 0.26101 0.81708 0.00236 0.0
O217 O 0.24021 0.86213 0.06554 0.0
O218 O 0.25099 0.83463 0.04804 0.0
C219 C 0.24755 0.82378 0.99181 0.0
C220 C 0.24983 0.84578 0.06528 0.0
O221 O 0.21791 0.88003 0.02185 0.0
Mg222 Mg 0.15197 0.51566 0.2843 0.0
O223 O 0.13414 0.50938 0.25364 0.0
O224 O 0.15588 0.50864 0.22894 0.0
Mg225 Mg 0.18708 0.51502 0.2432 0.0
C226 C 0.13815 0.50712 0.23478 0.0
C227 C 0.12659 0.51236 0.32138 0.0
O228 O 0.14444 0.51808 0.32916 0.0
O229 O 0.16046 0.48179 0.28094 0.0
O230 O 0.18297 0.48397 0.25702 0.0
O231 O 0.15362 0.55056 0.28407 0.0
O232 O 0.17578 0.53082 0.27093 0.0
C233 C 0.17345 0.47373 0.26968 0.0
C234 C 0.16999 0.54916 0.27477 0.0
O235 O 0.12427 0.50849 0.30214 0.0
Mg236 Mg 0.79112 0.65706 0.01947 0.0
O237 O 0.76054 0.63761 0.01557 0.0
O238 O 0.73857 0.66086 0.01343 0.0
Mg239 Mg 0.75412 0.69405 0.01604 0.0
C240 C 0.74274 0.64204 0.01371 0.0
C241 C 0.82607 0.63139 0.01368 0.0
O242 O 0.83367 0.65094 0.0144 0.0
O243 O 0.79111 0.66278 0.98575 0.0
O244 O 0.76962 0.68683 0.98582 0.0
O245 O 0.78823 0.66116 0.05323 0.0
O246 O 0.77839 0.68322 0.03298 0.0
C247 C 0.78203 0.67573 0.9767 0.0
C248 C 0.77976 0.6779 0.05108 0.0
O249 O 0.80744 0.62771 0.014 0.0
Mg250 Mg 0.88996 0.02479 0.26685 0.0
O251 O 0.87156 0.99269 0.26021 0.0
O252 O 0.89259 0.96861 0.2529 0.0
Mg253 Mg 0.92395 0.98468 0.25484 0.0
C254 C 0.8751 0.97372 0.25526 0.0
C255 C 0.86583 0.06032 0.28255 0.0
O256 O 0.88356 0.06956 0.28052 0.0
O257 O 0.90005 0.01717 0.2984 0.0
O258 O 0.92108 0.99354 0.28908 0.0
O259 O 0.88907 0.0284 0.23352 0.0
O260 O 0.91237 0.01393 0.24892 0.0
C261 C 0.91253 0.00465 0.30279 0.0
C262 C 0.90495 0.0189 0.23233 0.0
O263 O 0.86313 0.04048 0.27893 0.0
Mg264 Mg 0.28879 0.15715 0.51866 0.0
O265 O 0.25782 0.13854 0.51481 0.0
O266 O 0.23641 0.16265 0.51467 0.0
Mg267 Mg 0.25275 0.19549 0.51744 0.0
C268 C 0.24015 0.14359 0.51401 0.0
C269 C 0.32301 0.131 0.5109 0.0
O270 O 0.33062 0.1505 0.51124 0.0
O271 O 0.28835 0.16384 0.48523 0.0
O272 O 0.26742 0.18851 0.4867 0.0
O273 O 0.28635 0.16028 0.55251 0.0
O274 O 0.277 0.18343 0.53321 0.0
C275 C 0.27936 0.17734 0.47689 0.0
C276 C 0.27835 0.17744 0.55102 0.0
O277 O 0.30444 0.12745 0.51209 0.0
Mg278 Mg 0.39199 0.53034 0.7699 0.0
O279 O 0.37372 0.49811 0.7651 0.0
O280 O 0.39506 0.47413 0.75859 0.0
Mg281 Mg 0.4262 0.49046 0.758 0.0
C282 C 0.37754 0.47909 0.76118 0.0
C283 C 0.36551 0.56481 0.77676 0.0
O284 O 0.38001 0.57152 0.7657 0.0
O285 O 0.40336 0.52406 0.80154 0.0
O286 O 0.42511 0.50134 0.79205 0.0
O287 O 0.38957 0.53252 0.73629 0.0
O288 O 0.41365 0.51887 0.75124 0.0
C289 C 0.41682 0.51258 0.80585 0.0
C290 C 0.40543 0.52305 0.73472 0.0
O291 O 0.36567 0.54668 0.78247 0.0
Mg292 Mg 0.7349 0.35234 0.52805 0.0
O293 O 0.76365 0.37281 0.52298 0.0
O294 O 0.78837 0.35275 0.52568 0.0
Mg295 Mg 0.77602 0.31988 0.53084 0.0
C296 C 0.782 0.37018 0.52289 0.0
C297 C 0.69755 0.37339 0.52124 0.0
O298 O 0.69154 0.35592 0.52858 0.0
O299 O 0.73593 0.33572 0.49565 0.0
O300 O 0.76076 0.316 0.49914 0.0
O301 O 0.73852 0.36013 0.56199 0.0
O302 O 0.75053 0.33328 0.54471 0.0
C303 C 0.74718 0.32218 0.48835 0.0
C304 C 0.74876 0.34426 0.56194 0.0
O305 O 0.71581 0.37707 0.51812 0.0
Mg306 Mg 0.65203 0.01164 0.78387 0.0
O307 O 0.63383 0.00482 0.75345 0.0
O308 O 0.65513 0.00324 0.72836 0.0
Mg309 Mg 0.68647 0.00928 0.74222 0.0
C310 C 0.63751 1.00212 0.73452 0.0
C311 C 0.62684 0.00961 0.82121 0.0
O312 O 0.64472 0.01562 0.8288 0.0
O313 O 0.6603 0.97781 0.78141 0.0
O314 O 0.68205 0.97849 0.75658 0.0
O315 O 0.65379 0.04629 0.78275 0.0
O316 O 0.67583 0.02618 0.76987 0.0
C317 C 0.67266 0.96903 0.76988 0.0
C318 C 0.67008 0.0446 0.77334 0.0
O319 O 0.62444 0.00511 0.80203 0.0
Mg320 Mg 0.02009 0.22839 0.92202 0.0
O321 O 0.99062 0.22323 0.90345 0.0
O322 O 0.96786 0.21018 0.92353 0.0
Mg323 Mg 0.98256 0.20749 0.95455 0.0
C324 C 0.9729 0.21632 0.90657 0.0
C325 C 0.05284 0.25271 0.90255 0.0
O326 O 0.06026 0.24906 0.92015 0.0
O327 O 0.01027 0.25748 0.9402 0.0
O328 O 0.98874 0.24363 0.96106 0.0
O329 O 0.02709 0.19584 0.91233 0.0
O330 O 0.01107 0.20492 0.94001 0.0
C331 C 0.99856 0.25947 0.95492 0.0
C332 C 0.01828 0.1904 0.92828 0.0
O333 O 0.03474 0.24694 0.8983 0.0
Mg334 Mg 0.52046 0.7301 0.42557 0.0
O335 O 0.49057 0.72519 0.40789 0.0
O336 O 0.46812 0.71279 0.42864 0.0
Mg337 Mg 0.48358 0.71025 0.45937 0.0
C338 C 0.47287 0.71864 0.41147 0.0
C339 C 0.55289 0.75312 0.40432 0.0
O340 O 0.56109 0.74902 0.42138 0.0
O341 O 0.51133 0.75963 0.44367 0.0
O342 O 0.49035 0.74635 0.46537 0.0
O343 O 0.52658 0.6972 0.41593 0.0
O344 O 0.51163 0.70709 0.4441 0.0
C345 C 0.50008 0.76197 0.45875 0.0
C346 C 0.51809 0.69221 0.43221 0.0
O347 O 0.53452 0.74809 0.40112 0.0
Mg348 Mg 0.99517 0.77095 0.6138 0.0
O349 O 0.02322 0.76238 0.62978 0.0
O350 O 0.04481 0.75527 0.60565 0.0
Mg351 Mg 0.03133 0.7595 0.57472 0.0
C352 C 0.04001 0.75695 0.62425 0.0
C353 C 0.96362 0.77431 0.64479 0.0
O354 O 0.95531 0.7643 0.62788 0.0
O355 O 0.01038 0.8038 0.6098 0.0
O356 O 0.03098 0.79448 0.58534 0.0
O357 O 0.98418 0.73695 0.6084 0.0
O358 O 1.00205 0.75324 0.58666 0.0
C359 C 0.02373 0.80849 0.59733 0.0
C360 C 0.99348 0.73602 0.59158 0.0
O361 O 0.98177 0.78113 0.64464 0.0
Mg362 Mg 0.49419 0.27296 0.11484 0.0
O363 O 0.52163 0.26445 0.13212 0.0
O364 O 0.54407 0.25766 0.10878 0.0
Mg365 Mg 0.53161 0.26109 0.07722 0.0
C366 C 0.53869 0.2593 0.12719 0.0
C367 C 0.46209 0.27558 0.14558 0.0
O368 O 0.45438 0.26379 0.1293 0.0
O369 O 0.50977 0.30567 0.1108 0.0
O370 O 0.53076 0.29616 0.08683 0.0
O371 O 0.48249 0.23915 0.10944 0.0
O372 O 0.50201 0.25446 0.08841 0.0
C373 C 0.52324 0.31028 0.09843 0.0
C374 C 0.49253 0.2376 0.09312 0.0
O375 O 0.47976 0.28383 0.14498 0.0
H376 H 0.23569 0.72368 0.80926 0.0
H377 H 0.2466 0.74291 0.84252 0.0
H378 H 0.18854 0.72961 0.86509 0.0
H379 H 0.17795 0.70969 0.83222 0.0
H380 H 0.20546 0.7748 0.86699 0.0
H381 H 0.21973 0.70614 0.88353 0.0
H382 H 0.23605 0.67367 0.8773 0.0
H383 H 0.29267 0.70939 0.8832 0.0
H384 H 0.27665 0.74213 0.88912 0.0
H385 H 0.21239 0.81558 0.9706 0.0
H386 H 0.20608 0.79551 0.93712 0.0
H387 H 0.26846 0.79071 0.93136 0.0
H388 H 0.27459 0.80959 0.96543 0.0
H389 H 0.25157 0.75545 0.91912 0.0
H390 H 0.24038 0.82332 0.90329 0.0
H391 H 0.22663 0.85744 0.90662 0.0
H392 H 0.16819 0.82642 0.89608 0.0
H393 H 0.18156 0.79209 0.89295 0.0
C394 C 0.22554 0.72431 0.82158 0.0
C395 C 0.206 0.71534 0.81832 0.0
C396 C 0.23168 0.73542 0.84043 0.0
C397 C 0.21827 0.7378 0.85609 0.0
C398 C 0.19902 0.72804 0.8531 0.0
C399 C 0.19302 0.71668 0.83443 0.0
C400 C 0.22379 0.75156 0.87517 0.0
C401 C 0.21539 0.77057 0.87855 0.0
C402 C 0.23737 0.74631 0.88968 0.0
C403 C 0.24698 0.7266 0.88654 0.0
C404 C 0.23565 0.70709 0.88332 0.0
C405 C 0.24485 0.68863 0.87988 0.0
C406 C 0.26538 0.68947 0.87979 0.0
C407 C 0.27676 0.70877 0.88324 0.0
C408 C 0.26763 0.72727 0.88665 0.0
C409 C 0.22475 0.81048 0.96204 0.0
C410 C 0.24397 0.81415 0.97055 0.0
C411 C 0.22117 0.79906 0.94283 0.0
C412 C 0.23682 0.79176 0.93145 0.0
C413 C 0.2561 0.79603 0.93978 0.0
C414 C 0.25962 0.80693 0.95921 0.0
C415 C 0.23298 0.77885 0.91135 0.0
C416 C 0.24173 0.75995 0.90765 0.0
C417 C 0.2201 0.7845 0.89623 0.0
C418 C 0.21198 0.80512 0.89806 0.0
C419 C 0.22459 0.82377 0.90182 0.0
C420 C 0.21686 0.84315 0.90365 0.0
C421 C 0.19655 0.8441 0.90161 0.0
C422 C 0.18392 0.82566 0.89768 0.0
C423 C 0.19157 0.80624 0.89585 0.0
H424 H 0.1906 0.85911 0.90304 0.0
H425 H 0.27247 0.67516 0.87709 0.0
H426 H 0.00442 0.5305 0.46609 0.0
H427 H 0.03176 0.52973 0.44264 0.0
H428 H 0.99079 0.53042 0.3921 0.0
H429 H 0.96356 0.53142 0.41566 0.0
H430 H 0.01488 0.4992 0.38533 0.0
H431 H 0.02212 0.57276 0.40788 0.0
H432 H 0.0255 0.60384 0.43352 0.0
H433 H 0.07982 0.58531 0.45629 0.0
H434 H 0.07658 0.55388 0.43102 0.0
H435 H 0.08733 0.51022 0.31036 0.0
H436 H 0.05968 0.5144 0.33286 0.0
H437 H 0.09949 0.51969 0.38523 0.0
H438 H 0.12719 0.51608 0.36286 0.0
H439 H 0.07536 0.54882 0.39047 0.0
H440 H 0.06763 0.47471 0.37001 0.0
H441 H 0.06405 0.44246 0.34584 0.0
H442 H 0.0109 0.46107 0.3204 0.0
H443 H 0.0143 0.49357 0.34426 0.0
C444 C 1.00141 0.531 0.45003 0.0
C445 C 0.98199 0.53096 0.44259 0.0
C446 C 0.01697 0.53047 0.43664 0.0
C447 C 0.01332 0.52998 0.41559 0.0
C448 C 0.99394 0.53066 0.40825 0.0
C449 C 0.97843 0.53127 0.42165 0.0
C450 C 0.02953 0.52767 0.40114 0.0
C451 C 0.02797 0.51024 0.38623 0.0
C452 C 0.04683 0.54175 0.40269 0.0
C453 C 0.04902 0.56085 0.41766 0.0
C454 C 0.03472 0.57522 0.41844 0.0
C455 C 0.03662 0.59291 0.43291 0.0
C456 C 0.05285 0.59652 0.44655 0.0
C457 C 0.06725 0.58248 0.44572 0.0
C458 C 0.0654 0.56473 0.43132 0.0
C459 C 0.09016 0.51204 0.32666 0.0
C460 C 0.10948 0.51278 0.3348 0.0
C461 C 0.07432 0.51441 0.33954 0.0
C462 C 0.07744 0.51725 0.3608 0.0
C463 C 0.09668 0.51763 0.36891 0.0
C464 C 0.11251 0.51544 0.35607 0.0
C465 C 0.06077 0.52026 0.37465 0.0
C466 C 0.06224 0.53782 0.38948 0.0
C467 C 0.04342 0.50621 0.37314 0.0
C468 C 0.04134 0.48668 0.35878 0.0
C469 C 0.05527 0.472 0.35915 0.0
C470 C 0.05325 0.45366 0.34553 0.0
C471 C 0.03729 0.44975 0.33155 0.0
C472 C 0.02327 0.46414 0.33121 0.0
C473 C 0.02523 0.48251 0.34479 0.0
H474 H 0.03575 0.43554 0.32102 0.0
H475 H 0.05428 0.61022 0.45775 0.0
H476 H 0.82532 0.79343 0.85176 0.0
H477 H 0.826 0.76718 0.8755 0.0
H478 H 0.81528 0.7181 0.82534 0.0
H479 H 0.81417 0.74474 0.80166 0.0
H480 H 0.78971 0.71202 0.85278 0.0
H481 H 0.85894 0.72412 0.85547 0.0
H482 H 0.89157 0.74436 0.85791 0.0
H483 H 0.87988 0.77161 0.91814 0.0
H484 H 0.84705 0.7518 0.91596 0.0
H485 H 0.81371 0.6637 0.95468 0.0
H486 H 0.82409 0.67482 0.92201 0.0
H487 H 0.77286 0.70878 0.91909 0.0
H488 H 0.76229 0.69758 0.95125 0.0
H489 H 0.83448 0.71323 0.91314 0.0
H490 H 0.75763 0.71163 0.87188 0.0
H491 H 0.72607 0.68934 0.8682 0.0
H492 H 0.75546 0.63661 0.88225 0.0
H493 H 0.78726 0.6585 0.88573 0.0
C494 C 0.82385 0.77701 0.84583 0.0
C495 C 0.81982 0.771 0.825 0.0
C496 C 0.82424 0.76197 0.85935 0.0
C497 C 0.82078 0.74054 0.85229 0.0
C498 C 0.81803 0.7345 0.83121 0.0
C499 C 0.81761 0.74964 0.81765 0.0
C500 C 0.81754 0.72497 0.86718 0.0
C501 C 0.79965 0.71211 0.86583 0.0
C502 C 0.83066 0.72458 0.88402 0.0
C503 C 0.85047 0.73649 0.8855 0.0
C504 C 0.86327 0.73452 0.86919 0.0
C505 C 0.88181 0.74591 0.87054 0.0
C506 C 0.88779 0.75927 0.88816 0.0
C507 C 0.87524 0.76124 0.9045 0.0
C508 C 0.85666 0.7499 0.90323 0.0
C509 C 0.80444 0.67316 0.94685 0.0
C510 C 0.78715 0.67974 0.95567 0.0
C511 C 0.81047 0.67961 0.92822 0.0
C512 C 0.79922 0.69254 0.91795 0.0
C513 C 0.78166 0.69853 0.92645 0.0
C514 C 0.77568 0.69217 0.94499 0.0
C515 C 0.80626 0.70118 0.89916 0.0
C516 C 0.82479 0.71278 0.89983 0.0
C517 C 0.7939 0.70011 0.8815 0.0
C518 C 0.77484 0.68676 0.87916 0.0
C519 C 0.7574 0.69525 0.87405 0.0
C520 C 0.73945 0.68269 0.87204 0.0
C521 C 0.73876 0.66158 0.87503 0.0
C522 C 0.75601 0.65298 0.87999 0.0
C523 C 0.774 0.66547 0.88202 0.0
H524 H 0.72485 0.65189 0.87348 0.0
H525 H 0.90215 0.76808 0.88917 0.0
H526 H 0.01519 0.0346 0.47269 0.0
H527 H 0.99122 0.03645 0.44466 0.0
H528 H 1.00009 0.97321 0.42052 0.0
H529 H 0.02411 0.97163 0.44842 0.0
H530 H 1.00157 0.9991 0.39132 0.0
H531 H 0.95874 0.98411 0.44575 0.0
H532 H 0.94556 0.99035 0.48004 0.0
H533 H 0.92915 0.05009 0.46703 0.0
H534 H 0.9425 0.04433 0.43274 0.0
H535 H 0.92654 0.972 0.31891 0.0
H536 H 0.94421 0.97291 0.35148 0.0
H537 H 0.93213 0.03693 0.36744 0.0
H538 H 0.91397 0.036 0.33475 0.0
H539 H 0.93216 0.01393 0.40123 0.0
H540 H 0.97422 0.02879 0.34677 0.0
H541 H 0.98737 0.02279 0.31244 0.0
H542 H 0.00571 0.96393 0.32578 0.0
H543 H 0.99237 0.96943 0.3601 0.0
C544 C 0.01183 0.02117 0.46136 0.0
C545 C 0.02117 0.00292 0.46259 0.0
C546 C 0.99815 0.02215 0.44548 0.0
C547 C 0.9937 0.00487 0.43061 0.0
C548 C 0.00323 0.98669 0.43184 0.0
C549 C 0.01684 0.98573 0.44772 0.0
C550 C 0.97964 0.00583 0.41335 0.0
C551 C 0.98634 1.00212 0.39352 0.0
C552 C 0.95993 0.01046 0.4162 0.0
C553 C 0.95181 0.01389 0.43676 0.0
C554 C 0.95247 0.99866 0.45026 0.0
C555 C 0.94494 1.00209 0.46969 0.0
C556 C 0.93657 0.02063 0.47573 0.0
C557 C 0.93566 0.03575 0.46234 0.0
C558 C 0.9432 0.0324 0.4429 0.0
C559 C 0.92723 0.98614 0.32952 0.0
C560 C 0.9191 0.00403 0.32417 0.0
C561 C 0.93737 0.98665 0.34812 0.0
C562 C 0.9399 0.00514 0.36165 0.0
C563 C 0.93044 0.02254 0.35714 0.0
C564 C 0.92005 0.02198 0.3385 0.0
C565 C 0.95403 0.0067 0.37929 0.0
C566 C 0.9474 0.011 0.3991 0.0
C567 C 0.9739 0.0027 0.3765 0.0
C568 C 0.98215 0.99945 0.35595 0.0
C569 C 0.98093 0.0145 0.34233 0.0
C570 C 0.98843 0.0112 0.32288 0.0
C571 C 0.99733 0.99297 0.31692 0.0
C572 C 0.99879 0.97804 0.33041 0.0
C573 C 0.99128 0.98124 0.34987 0.0
H574 H 0.00313 0.99044 0.30185 0.0
H575 H 0.93075 0.02326 0.49078 0.0
H576 H 0.19605 0.28957 0.69154 0.0
H577 H 0.20808 0.27042 0.66084 0.0
H578 H 0.26331 0.26643 0.69255 0.0
H579 H 0.25102 0.28515 0.72336 0.0
H580 H 0.26759 0.27448 0.65156 0.0
H581 H 0.23113 0.22665 0.69055 0.0
H582 H 0.2023 0.214 0.70906 0.0
H583 H 0.16624 0.2083 0.65427 0.0
H584 H 0.19481 0.22126 0.6355 0.0
H585 H 0.27436 0.16621 0.58945 0.0
H586 H 0.26431 0.18762 0.6197 0.0
H587 H 0.2562 0.23794 0.58377 0.0
H588 H 0.2662 0.21669 0.55349 0.0
H589 H 0.22993 0.20599 0.62825 0.0
H590 H 0.27285 0.28404 0.61345 0.0
H591 H 0.30276 0.29633 0.59635 0.0
H592 H 0.32829 0.23966 0.60516 0.0
H593 H 0.29867 0.22718 0.62256 0.0
C594 C 0.21085 0.28485 0.69175 0.0
C595 C 0.22267 0.28881 0.70966 0.0
C596 C 0.2177 0.27395 0.6743 0.0
C597 C 0.23651 0.26686 0.67451 0.0
C598 C 0.24877 0.27184 0.69207 0.0
C599 C 0.24184 0.28263 0.70959 0.0
C600 C 0.24275 0.25294 0.65695 0.0
C601 C 0.25935 0.25954 0.64641 0.0
C602 C 0.23219 0.23327 0.65052 0.0
C603 C 0.21507 0.2251 0.66167 0.0
C604 C 0.21703 0.22283 0.68248 0.0
C605 C 0.20074 0.21559 0.69301 0.0
C606 C 0.18244 0.2104 0.68286 0.0
C607 C 0.18042 0.21235 0.66213 0.0
C608 C 0.19666 0.21963 0.65153 0.0
C609 C 0.27031 0.18178 0.58796 0.0
C610 C 0.27109 0.18976 0.56908 0.0
C611 C 0.26454 0.19397 0.60525 0.0
C612 C 0.2597 0.21443 0.60401 0.0
C613 C 0.26008 0.22227 0.5851 0.0
C614 C 0.26569 0.21005 0.56779 0.0
C615 C 0.25454 0.22771 0.62253 0.0
C616 C 0.23815 0.22096 0.63331 0.0
C617 C 0.26544 0.24712 0.62932 0.0
C618 C 0.28344 0.2546 0.61912 0.0
C619 C 0.28488 0.27424 0.6118 0.0
C620 C 0.30178 0.28123 0.60205 0.0
C621 C 0.31739 0.26875 0.5996 0.0
C622 C 0.31616 0.24928 0.60698 0.0
C623 C 0.2993 0.24223 0.61677 0.0
H624 H 0.33045 0.27419 0.59203 0.0
H625 H 0.16984 0.20481 0.69105 0.0
H626 H 0.47556 0.48997 0.55329 0.0
H627 H 0.45336 0.48976 0.58201 0.0
H628 H 0.50346 0.50279 0.62403 0.0
H629 H 0.52551 0.50412 0.59541 0.0
H630 H 0.4714 0.46945 0.63271 0.0
H631 H 0.4833 0.54146 0.61643 0.0
H632 H 0.48322 0.56801 0.59249 0.0
H633 H 0.42103 0.55278 0.58093 0.0
H634 H 0.42084 0.52584 0.60454 0.0
H635 H 0.4419 0.51077 0.72782 0.0
H636 H 0.45683 0.50241 0.69528 0.0
H637 H 0.40313 0.51276 0.66383 0.0
H638 H 0.38825 0.52194 0.69664 0.0
H639 H 0.43253 0.53038 0.64641 0.0
H640 H 0.41828 0.46242 0.66524 0.0
H641 H 0.41666 0.43413 0.68732 0.0
H642 H 0.47983 0.4386 0.69191 0.0
H643 H 0.48184 0.46716 0.67011 0.0
C644 C 0.48175 0.49274 0.56868 0.0
C645 C 0.50219 0.4971 0.5722 0.0
C646 C 0.46913 0.49249 0.585 0.0
C647 C 0.47684 0.49622 0.60507 0.0
C648 C 0.49729 0.4997 0.60862 0.0
C649 C 0.50986 0.50036 0.59231 0.0
C650 C 0.46361 0.49804 0.62241 0.0
C651 C 0.46294 0.48277 0.63585 0.0
C652 C 0.45203 0.51501 0.62591 0.0
C653 C 0.4521 0.53147 0.61204 0.0
C654 C 0.46965 0.54364 0.60864 0.0
C655 C 0.46965 0.55878 0.59516 0.0
C656 C 0.45214 0.56203 0.58515 0.0
C657 C 0.43459 0.55021 0.58866 0.0
C658 C 0.43452 0.53501 0.60209 0.0
C659 C 0.43315 0.51105 0.71401 0.0
C660 C 0.41385 0.5169 0.7148 0.0
C661 C 0.44169 0.50614 0.69536 0.0
C662 C 0.43101 0.50651 0.67703 0.0
C663 C 0.41164 0.51225 0.67775 0.0
C664 C 0.40315 0.51745 0.69649 0.0
C665 C 0.4406 0.502 0.65727 0.0
C666 C 0.44064 0.51679 0.64327 0.0
C667 C 0.45129 0.48431 0.65306 0.0
C668 C 0.4502 0.46705 0.66612 0.0
C669 C 0.43183 0.45748 0.67107 0.0
C670 C 0.43084 0.44138 0.68352 0.0
C671 C 0.44813 0.43459 0.69104 0.0
C672 C 0.46645 0.44388 0.68608 0.0
C673 C 0.46752 0.46 0.67364 0.0
H674 H 0.44733 0.42213 0.70068 0.0
H675 H 0.45217 0.57376 0.57471 0.0
H676 H 0.82495 0.24768 0.69628 0.0
H677 H 0.81728 0.26872 0.66904 0.0
H678 H 0.77964 0.30308 0.70925 0.0
H679 H 0.78681 0.2813 0.73607 0.0
H680 H 0.76117 0.29243 0.67519 0.0
H681 H 0.82564 0.32514 0.69323 0.0
H682 H 0.86135 0.32719 0.70091 0.0
H683 H 0.87053 0.2989 0.64039 0.0
H684 H 0.83483 0.29639 0.63243 0.0
H685 H 0.74451 0.36178 0.60111 0.0
H686 H 0.75738 0.35033 0.63247 0.0
H687 H 0.78648 0.30289 0.597 0.0
H688 H 0.77342 0.3138 0.56581 0.0
H689 H 0.8099 0.32453 0.63068 0.0
H690 H 0.74455 0.28877 0.61496 0.0
H691 H 0.7088 0.28738 0.60773 0.0
H692 H 0.70178 0.32338 0.66534 0.0
H693 H 0.73757 0.32523 0.67277 0.0
C694 C 0.81536 0.26003 0.69925 0.0
C695 C 0.80656 0.26316 0.71812 0.0
C696 C 0.81101 0.2721 0.68379 0.0
C697 C 0.79805 0.28776 0.68712 0.0
C698 C 0.78969 0.29117 0.70628 0.0
C699 C 0.79383 0.27889 0.7216 0.0
C700 C 0.7921 0.29944 0.6702 0.0
C701 C 0.7719 0.29984 0.66579 0.0
C702 C 0.806 0.30887 0.65761 0.0
C703 C 0.82752 0.31044 0.66229 0.0
C704 C 0.83525 0.31922 0.6816 0.0
C705 C 0.8555 0.32048 0.686 0.0
C706 C 0.8682 0.31314 0.67116 0.0
C707 C 0.86067 0.30457 0.65187 0.0
C708 C 0.84043 0.30325 0.6474 0.0
C709 C 0.75384 0.34908 0.59998 0.0
C710 C 0.75796 0.33877 0.58088 0.0
C711 C 0.76116 0.34256 0.61791 0.0
C712 C 0.77286 0.32575 0.61703 0.0
C713 C 0.77759 0.31598 0.59801 0.0
C714 C 0.77008 0.32227 0.58014 0.0
C715 C 0.77912 0.3173 0.63579 0.0
C716 C 0.79931 0.31743 0.64043 0.0
C717 C 0.76525 0.30854 0.64873 0.0
C718 C 0.74375 0.30736 0.6443 0.0
C719 C 0.73541 0.29655 0.626 0.0
C720 C 0.71513 0.29564 0.62188 0.0
C721 C 0.70303 0.30535 0.63603 0.0
C722 C 0.71118 0.31592 0.65437 0.0
C723 C 0.73145 0.31689 0.65854 0.0
H724 H 0.68734 0.30462 0.63282 0.0
H725 H 0.88387 0.31413 0.67459 0.0
H726 H 0.52238 0.97409 0.57519 0.0
H727 H 0.54793 0.97473 0.60209 0.0
H728 H 0.50303 0.97281 0.64687 0.0
H729 H 0.47761 0.9722 0.61987 0.0
H730 H 0.53118 0.00363 0.65824 0.0
H731 H 0.52933 0.93092 0.63384 0.0
H732 H 0.53002 0.90043 0.6079 0.0
H733 H 0.58876 0.92223 0.59314 0.0
H734 H 0.58831 0.95307 0.61876 0.0
H735 H 0.59777 0.99634 0.74095 0.0
H736 H 0.57082 0.98842 0.71535 0.0
H737 H 0.61271 0.98926 0.6676 0.0
H738 H 0.63969 0.9968 0.693 0.0
H739 H 0.58504 0.95725 0.65877 0.0
H740 H 0.58589 0.03099 0.68084 0.0
H741 H 0.58511 0.06225 0.70587 0.0
H742 H 0.52816 0.0387 0.72432 0.0
H743 H 0.52872 0.00716 0.69956 0.0
C744 C 0.51806 0.9733 0.59073 0.0
C745 C 0.49815 0.97319 0.59558 0.0
C746 C 0.5326 0.97371 0.6061 0.0
C747 C 0.52743 0.97382 0.62656 0.0
C748 C 0.50741 0.97286 0.63125 0.0
C749 C 0.49291 0.97248 0.61588 0.0
C750 C 0.54288 0.97634 0.64318 0.0
C751 C 0.54275 0.99323 0.65854 0.0
C752 C 0.55828 0.96312 0.64334 0.0
C753 C 0.55872 0.94442 0.62812 0.0
C754 C 0.54235 0.9293 0.62497 0.0
C755 C 0.5427 0.91194 0.61033 0.0
C756 C 0.55941 0.90942 0.59885 0.0
C757 C 0.57583 0.92422 0.60204 0.0
C758 C 0.57553 0.94164 0.61663 0.0
C759 C 0.60127 0.99484 0.72501 0.0
C760 C 0.62096 0.99734 0.71911 0.0
C761 C 0.58582 0.99034 0.71037 0.0
C762 C 0.58969 0.98843 0.68949 0.0
C763 C 0.60932 0.99062 0.68358 0.0
C764 C 0.62476 0.99505 0.69818 0.0
C765 C 0.57335 0.98458 0.67376 0.0
C766 C 0.57335 0.96749 0.65855 0.0
C767 C 0.55783 0.99765 0.67367 0.0
C768 C 0.55745 0.01662 0.68852 0.0
C769 C 0.57327 0.03241 0.69035 0.0
C770 C 0.57286 0.05018 0.70446 0.0
C771 C 0.55662 0.05243 0.71672 0.0
C772 C 0.54074 0.03692 0.71484 0.0
C773 C 0.54109 0.0191 0.70076 0.0
H774 H 0.55633 0.06621 0.72764 0.0
H775 H 0.55965 0.89598 0.58751 0.0
H776 H 0.84736 0.20204 0.7519 0.0
H777 H 0.87243 0.19583 0.77726 0.0
H778 H 0.85213 0.24471 0.81939 0.0
H779 H 0.82651 0.24985 0.79433 0.0
H780 H 0.90256 0.21793 0.79328 0.0
H781 H 0.86063 0.23826 0.86762 0.0
H782 H 0.82658 0.23445 0.8794 0.0
H783 H 0.81207 0.18257 0.83315 0.0
H784 H 0.846 0.18588 0.82137 0.0
H785 H 0.97206 0.24106 0.87572 0.0
H786 H 0.9459 0.24096 0.84981 0.0
H787 H 0.91338 0.18918 0.87387 0.0
H788 H 0.93896 0.1901 0.90048 0.0
H789 H 0.88891 0.21328 0.86595 0.0
H790 H 0.93965 0.18483 0.82686 0.0
H791 H 0.97295 0.18276 0.81356 0.0
H792 H 0.96891 0.23989 0.78709 0.0
H793 H 0.93567 0.24246 0.80046 0.0
C794 C 0.84802 0.2109 0.76685 0.0
C795 C 0.83483 0.22595 0.77157 0.0
C796 C 0.86244 0.2076 0.78123 0.0
C797 C 0.86411 0.21959 0.80045 0.0
C798 C 0.8509 0.2348 0.80498 0.0
C799 C 0.83629 0.23779 0.79073 0.0
C800 C 0.88003 0.21678 0.8155 0.0
C801 C 0.89954 0.21682 0.80915 0.0
C802 C 0.87619 0.21478 0.83616 0.0
C803 C 0.85582 0.21245 0.8435 0.0
C804 C 0.85018 0.22597 0.86006 0.0
C805 C 0.83088 0.22392 0.86673 0.0
C806 C 0.81712 0.20833 0.85702 0.0
C807 C 0.82266 0.1947 0.84067 0.0
C808 C 0.84193 0.19666 0.83397 0.0
C809 C 0.95937 0.2296 0.87539 0.0
C810 C 0.95759 0.21558 0.89014 0.0
C811 C 0.94443 0.22945 0.86047 0.0
C812 C 0.92767 0.21483 0.85955 0.0
C813 C 0.92605 0.20068 0.87418 0.0
C814 C 0.94074 0.20116 0.88939 0.0
C815 C 0.91154 0.21472 0.84383 0.0
C816 C 0.89196 0.21423 0.85006 0.0
C817 C 0.91526 0.21541 0.82291 0.0
C818 C 0.93524 0.21393 0.81482 0.0
C819 C 0.94592 0.19703 0.81832 0.0
C820 C 0.96477 0.19575 0.81075 0.0
C821 C 0.97306 0.21121 0.79953 0.0
C822 C 0.96248 0.22794 0.79581 0.0
C823 C 0.94363 0.22931 0.80336 0.0
H824 H 0.98766 0.21019 0.79368 0.0
H825 H 0.80219 0.20682 0.8622 0.0
H826 H 0.50512 0.95712 0.53256 0.0
H827 H 0.51228 0.92265 0.51638 0.0
H828 H 0.47811 0.8931 0.56111 0.0
H829 H 0.47143 0.92776 0.57744 0.0
H830 H 0.50907 0.87155 0.55066 0.0
H831 H 0.45699 0.89938 0.5151 0.0
H832 H 0.44179 0.92575 0.49742 0.0
H833 H 0.48629 0.92285 0.45268 0.0
H834 H 0.50178 0.89647 0.47013 0.0
H835 H 0.48087 0.77283 0.49373 0.0
H836 H 0.48058 0.80756 0.51257 0.0
H837 H 0.51668 0.8342 0.46766 0.0
H838 H 0.51701 0.79949 0.44859 0.0
H839 H 0.48636 0.85744 0.47814 0.0
H840 H 0.53684 0.82705 0.51301 0.0
H841 H 0.55093 0.80011 0.53079 0.0
H842 H 0.50844 0.80738 0.57726 0.0
H843 H 0.49391 0.83417 0.55958 0.0
C844 C 0.4997 0.94321 0.53917 0.0
C845 C 0.48776 0.94484 0.5561 0.0
C846 C 0.50361 0.92357 0.5299 0.0
C847 C 0.49532 0.90525 0.53723 0.0
C848 C 0.48458 0.90699 0.55511 0.0
C849 C 0.48081 0.9267 0.56448 0.0
C850 C 0.49643 0.88443 0.52534 0.0
C851 C 0.50395 0.8684 0.53486 0.0
C852 C 0.49001 0.88037 0.50462 0.0
C853 C 0.48064 0.89611 0.49402 0.0
C854 C 0.46359 0.90445 0.50155 0.0
C855 C 0.45491 0.91937 0.49156 0.0
C856 C 0.46313 0.92605 0.474 0.0
C857 C 0.47997 0.9177 0.46631 0.0
C858 C 0.48867 0.90272 0.47621 0.0
C859 C 0.4887 0.78605 0.48776 0.0
C860 C 0.49902 0.78328 0.46962 0.0
C861 C 0.48861 0.8059 0.49865 0.0
C862 C 0.49885 0.82345 0.49169 0.0
C863 C 0.50876 0.82087 0.47337 0.0
C864 C 0.50894 0.80098 0.46249 0.0
C865 C 0.49899 0.84452 0.50344 0.0
C866 C 0.49163 0.8606 0.49389 0.0
C867 C 0.50541 0.84854 0.52416 0.0
C868 C 0.51417 0.83248 0.53486 0.0
C869 C 0.5304 0.82279 0.52693 0.0
C870 C 0.53849 0.80756 0.53701 0.0
C871 C 0.53056 0.802 0.55512 0.0
C872 C 0.51455 0.81169 0.56321 0.0
C873 C 0.5064 0.82691 0.55318 0.0
H874 H 0.53684 0.79021 0.5629 0.0
H875 H 0.45641 0.93764 0.46632 0.0
H876 H 0.2001 0.29636 0.7948 0.0
H877 H 0.17432 0.28957 0.81901 0.0
H878 H 0.12996 0.28721 0.77098 0.0
H879 H 0.15588 0.29478 0.74695 0.0
H880 H 0.11879 0.30859 0.80523 0.0
H881 H 0.14331 0.24249 0.78735 0.0
H882 H 0.16848 0.21765 0.78191 0.0
H883 H 0.18598 0.22912 0.84526 0.0
H884 H 0.16111 0.2543 0.85103 0.0
H885 H 0.04352 0.25828 0.86304 0.0
H886 H 0.06642 0.26783 0.83689 0.0
H887 H 0.11475 0.27468 0.88111 0.0
H888 H 0.09211 0.26511 0.9072 0.0
H889 H 0.1222 0.24977 0.84678 0.0
H890 H 0.09778 0.31708 0.86386 0.0
H891 H 0.07209 0.34141 0.86861 0.0
H892 H 0.0534 0.3264 0.8058 0.0
H893 H 0.07883 0.30176 0.80074 0.0
C894 C 0.18483 0.29459 0.78955 0.0
C895 C 0.17986 0.29608 0.76913 0.0
C896 C 0.17013 0.29054 0.80328 0.0
C897 C 0.15021 0.28761 0.79674 0.0
C898 C 0.14522 0.28936 0.77634 0.0
C899 C 0.15996 0.29352 0.76263 0.0
C900 C 0.13468 0.28256 0.81123 0.0
C901 C 0.11936 0.29554 0.81411 0.0
C902 C 0.13553 0.26566 0.82296 0.0
C903 C 0.15044 0.25042 0.81958 0.0
C904 C 0.15262 0.23984 0.8001 0.0
C905 C 0.16682 0.22568 0.79696 0.0
C906 C 0.17885 0.22184 0.81322 0.0
C907 C 0.17667 0.23213 0.83267 0.0
C908 C 0.1625 0.24633 0.83589 0.0
C909 C 0.05898 0.26211 0.86725 0.0
C910 C 0.066 0.26083 0.88718 0.0
C911 C 0.07204 0.26758 0.8523 0.0
C912 C 0.0923 0.27192 0.85707 0.0
C913 C 0.0992 0.27128 0.87709 0.0
C914 C 0.0862 0.26587 0.892 0.0
C915 C 0.10656 0.27606 0.8411 0.0
C916 C 0.12159 0.26279 0.83787 0.0
C917 C 0.10532 0.29257 0.82896 0.0
C918 C 0.09007 0.30741 0.83198 0.0
C919 C 0.08808 0.31883 0.85111 0.0
C920 C 0.07359 0.33271 0.85385 0.0
C921 C 0.06108 0.3354 0.83753 0.0
C922 C 0.06308 0.32427 0.81843 0.0
C923 C 0.07754 0.31036 0.81562 0.0
H924 H 0.04987 0.34615 0.83969 0.0
H925 H 0.18984 0.21087 0.81076 0.0
H926 H 0.50851 0.50717 0.49284 0.0
H927 H 0.50807 0.53396 0.46946 0.0
H928 H 0.55584 0.57079 0.50478 0.0
H929 H 0.55641 0.54361 0.52777 0.0
H930 H 0.49788 0.57095 0.48043 0.0
H931 H 0.57976 0.60517 0.4772 0.0
H932 H 0.61262 0.59228 0.47471 0.0
H933 H 0.58652 0.53254 0.44652 0.0
H934 H 0.55357 0.54511 0.44867 0.0
H935 H 0.50524 0.67799 0.4674 0.0
H936 H 0.50774 0.64341 0.47811 0.0
H937 H 0.5319 0.62283 0.42043 0.0
H938 H 0.52981 0.65759 0.40976 0.0
H939 H 0.55299 0.61102 0.45006 0.0
H940 H 0.48467 0.60549 0.43202 0.0
H941 H 0.45093 0.61615 0.43147 0.0
H942 H 0.44825 0.61417 0.49597 0.0
H943 H 0.48209 0.60378 0.49696 0.0
C944 C 0.51942 0.52061 0.49495 0.0
C945 C 0.53262 0.52339 0.51182 0.0
C946 C 0.51906 0.53599 0.4818 0.0
C947 C 0.53185 0.55448 0.48537 0.0
C948 C 0.546 0.55657 0.50148 0.0
C949 C 0.54642 0.54105 0.51457 0.0
C950 C 0.52877 0.57253 0.47397 0.0
C951 C 0.50993 0.5796 0.47365 0.0
C952 C 0.54435 0.58366 0.46479 0.0
C953 C 0.56417 0.57606 0.46325 0.0
C954 C 0.58105 0.58932 0.4704 0.0
C955 C 0.59969 0.58205 0.46907 0.0
C956 C 0.60166 0.56158 0.46053 0.0
C957 C 0.58499 0.54835 0.45324 0.0
C958 C 0.56632 0.55553 0.45454 0.0
C959 C 0.5108 0.66603 0.45685 0.0
C960 C 0.51727 0.67055 0.43769 0.0
C961 C 0.51222 0.64623 0.463 0.0
C962 C 0.5199 0.63042 0.45004 0.0
C963 C 0.52597 0.63476 0.43072 0.0
C964 C 0.52464 0.65461 0.42459 0.0
C965 C 0.52222 0.60967 0.45701 0.0
C966 C 0.54091 0.60219 0.4566 0.0
C967 C 0.50639 0.59783 0.46509 0.0
C968 C 0.48598 0.604 0.46458 0.0
C969 C 0.47694 0.60747 0.44611 0.0
C970 C 0.45779 0.61344 0.44572 0.0
C971 C 0.44747 0.61587 0.46368 0.0
C972 C 0.45627 0.61229 0.48207 0.0
C973 C 0.47543 0.60633 0.48255 0.0
H974 H 0.43264 0.6205 0.46334 0.0
H975 H 0.6161 0.55599 0.45952 0.0
H976 H 0.85996 0.80078 0.80882 0.0
H977 H 0.88917 0.79556 0.78834 0.0
H978 H 0.85188 0.76057 0.74015 0.0
H979 H 0.82297 0.76577 0.76073 0.0
H980 H 0.88671 0.74429 0.74262 0.0
H981 H 0.86442 0.81346 0.74084 0.0
H982 H 0.85662 0.84822 0.75618 0.0
H983 H 0.9158 0.86171 0.78092 0.0
H984 H 0.92391 0.82696 0.76581 0.0
H985 H 0.92536 0.75974 0.64866 0.0
H986 H 0.90626 0.76067 0.67921 0.0
H987 H 0.95604 0.79351 0.71441 0.0
H988 H 0.97552 0.79268 0.68353 0.0
H989 H 0.92086 0.81029 0.72387 0.0
H990 H 0.94441 0.7431 0.71931 0.0
H991 H 0.95176 0.70873 0.70264 0.0
H992 H 0.89011 0.6913 0.68941 0.0
H993 H 0.88239 0.72569 0.70573 0.0
C994 C 0.85827 0.79129 0.79418 0.0
C995 C 0.83941 0.78343 0.78632 0.0
C996 C 0.87485 0.78854 0.78238 0.0
C997 C 0.87271 0.77795 0.76253 0.0
C998 C 0.85396 0.76878 0.75538 0.0
C999 C 0.83747 0.77161 0.76713 0.0
C1000 C 0.88939 0.77791 0.74836 0.0
C1001 C 0.89418 0.75871 0.73854 0.0
C1002 C 0.89957 0.7967 0.74335 0.0
C1003 C 0.8947 0.81755 0.75242 0.0
C1004 C 0.87572 0.82379 0.74967 0.0
C1005 C 0.87125 0.84349 0.7583 0.0
C1006 C 0.88567 0.85712 0.7696 0.0
C1007 C 0.90463 0.85111 0.77221 0.0
C1008 C 0.90918 0.83143 0.7636 0.0
C1009 C 0.93237 0.76722 0.66284 0.0
C1010 C 0.95207 0.77607 0.6636 0.0
C1011 C 0.92139 0.76763 0.68037 0.0
C1012 C 0.92978 0.77681 0.69921 0.0
C1013 C 0.9493 0.78618 0.70006 0.0
C1014 C 0.96041 0.78571 0.68241 0.0
C1015 C 0.91777 0.77668 0.71773 0.0
C1016 C 0.91379 0.79583 0.72831 0.0
C1017 C 0.9083 0.75784 0.7234 0.0
C1018 C 0.91283 0.73705 0.71367 0.0
C1019 C 0.93242 0.732 0.71273 0.0
C1020 C 0.93666 0.7125 0.70336 0.0
C1021 C 0.92142 0.69785 0.69495 0.0
C1022 C 0.9019 0.70266 0.69593 0.0
C1023 C 0.89758 0.72215 0.70528 0.0
H1024 H 0.92472 0.68276 0.6877 0.0
H1025 H 0.88218 0.87236 0.77627 0.0
H1026 H 0.07929 0.96588 0.50679 0.0
H1027 H 0.07991 0.9383 0.52923 0.0
H1028 H 0.03175 0.96294 0.56215 0.0
H1029 H 0.03204 0.99119 0.54039 0.0
H1030 H 0.05341 0.94451 0.58716 0.0
H1031 H 0.02322 0.92535 0.52041 0.0
H1032 H 0.02166 0.92184 0.48287 0.0
H1033 H 0.06957 0.88321 0.48097 0.0
H1034 H 0.07153 0.88666 0.51851 0.0
H1035 H 0.00529 0.84407 0.60889 0.0
H1036 H 0.01435 0.87935 0.59942 0.0
H1037 H 0.06633 0.85804 0.5713 0.0
H1038 H 0.05749 0.82312 0.58058 0.0
H1039 H 0.04325 0.8754 0.54521 0.0
H1040 H 0.07034 0.89254 0.6136 0.0
H1041 H 0.06941 0.89575 0.65104 0.0
H1042 H 0.02424 0.93759 0.64989 0.0
H1043 H 0.0247 0.9344 0.6124 0.0
C1044 C 0.06958 0.96599 0.51948 0.0
C1045 C 0.05557 0.98052 0.52188 0.0
C1046 C 0.06968 0.95004 0.53211 0.0
C1047 C 0.05543 0.94811 0.54699 0.0
C1048 C 0.04277 0.96393 0.5507 0.0
C1049 C 0.04291 0.98004 0.53828 0.0
C1050 C 0.05198 0.92843 0.5567 0.0
C1051 C 0.0511 0.9294 0.578 0.0
C1052 C 0.04887 0.90865 0.54481 0.0
C1053 C 0.04766 0.90645 0.52225 0.0
C1054 C 0.0335 0.91622 0.51198 0.0
C1055 C 0.03253 0.91423 0.49071 0.0
C1056 C 0.04555 0.90238 0.47955 0.0
C1057 C 0.05952 0.89242 0.48964 0.0
C1058 C 0.06055 0.89437 0.5109 0.0
C1059 C 0.01888 0.84706 0.60113 0.0
C1060 C 0.0305 0.83068 0.59526 0.0
C1061 C 0.02405 0.86723 0.59573 0.0
C1062 C 0.04097 0.8713 0.58451 0.0
C1063 C 0.05315 0.85526 0.5798 0.0
C1064 C 0.04802 0.83525 0.58513 0.0
C1065 C 0.04506 0.89138 0.5757 0.0
C1066 C 0.0458 0.89047 0.55445 0.0
C1067 C 0.04769 0.91111 0.58765 0.0
C1068 C 0.04741 0.91306 0.61018 0.0
C1069 C 0.06008 0.90227 0.62132 0.0
C1070 C 0.05967 0.90412 0.64255 0.0
C1071 C 0.04674 0.91682 0.65283 0.0
C1072 C 0.03423 0.92774 0.6419 0.0
C1073 C 0.03457 0.92593 0.62066 0.0
H1074 H 0.04645 0.91823 0.66927 0.0
H1075 H 0.04479 0.90087 0.46309 0.0
H1076 H 0.18745 0.71197 0.73081 0.0
H1077 H 0.16302 0.71985 0.70572 0.0
H1078 H 0.11705 0.71039 0.74837 0.0
H1079 H 0.14144 0.70162 0.77303 0.0
H1080 H 0.10408 0.69477 0.71144 0.0
H1081 H 0.13781 0.75968 0.74157 0.0
H1082 H 0.16664 0.78487 0.75222 0.0
H1083 H 0.18268 0.78523 0.68992 0.0
H1084 H 0.1541 0.75978 0.67891 0.0
H1085 H 0.03355 0.75038 0.66391 0.0
H1086 H 0.05723 0.74067 0.68872 0.0
H1087 H 0.1025 0.74254 0.64443 0.0
H1088 H 0.07905 0.75218 0.61958 0.0
H1089 H 0.11528 0.7623 0.6826 0.0
H1090 H 0.08078 0.69675 0.6531 0.0
H1091 H 0.05129 0.67219 0.64334 0.0
H1092 H 0.03577 0.67428 0.70598 0.0
H1093 H 0.06504 0.6991 0.71608 0.0
C1094 C 0.17206 0.71119 0.73457 0.0
C1095 C 0.16623 0.7063 0.75377 0.0
C1096 C 0.15816 0.7159 0.72038 0.0
C1097 C 0.13824 0.71612 0.72531 0.0
C1098 C 0.13233 0.71044 0.74425 0.0
C1099 C 0.14621 0.70555 0.75834 0.0
C1100 C 0.12367 0.72291 0.71103 0.0
C1101 C 0.10643 0.70965 0.70534 0.0
C1102 C 0.12679 0.74224 0.70288 0.0
C1103 C 0.14391 0.75767 0.70944 0.0
C1104 C 0.14756 0.76502 0.73015 0.0
C1105 C 0.16385 0.77936 0.73625 0.0
C1106 C 0.17651 0.78661 0.72176 0.0
C1107 C 0.17288 0.77958 0.70113 0.0
C1108 C 0.15663 0.7652 0.69495 0.0
C1109 C 0.04857 0.74883 0.65948 0.0
C1110 C 0.05437 0.75197 0.63972 0.0
C1111 C 0.06205 0.7432 0.67365 0.0
C1112 C 0.08156 0.74072 0.66833 0.0
C1113 C 0.0875 0.74434 0.64882 0.0
C1114 C 0.07403 0.74978 0.63461 0.0
C1115 C 0.09582 0.73412 0.68298 0.0
C1116 C 0.11296 0.74744 0.68875 0.0
C1117 C 0.09251 0.71497 0.69135 0.0
C1118 C 0.07499 0.69994 0.68532 0.0
C1119 C 0.07099 0.6921 0.66477 0.0
C1120 C 0.05433 0.67811 0.65918 0.0
C1121 C 0.04163 0.67172 0.67402 0.0
C1122 C 0.0456 0.67927 0.69449 0.0
C1123 C 0.06223 0.69328 0.70016 0.0
H1124 H 0.02874 0.66089 0.66967 0.0
H1125 H 0.18911 0.79772 0.72651 0.0
H1126 H 0.98301 0.54716 0.51036 0.0
H1127 H 0.99405 0.58188 0.52811 0.0
H1128 H 0.98209 0.60973 0.47356 0.0
H1129 H 0.97044 0.5749 0.45596 0.0
H1130 H 0.02058 0.62657 0.50722 0.0
H1131 H 0.94816 0.61667 0.49363 0.0
H1132 H 0.91615 0.5952 0.49229 0.0
H1133 H 0.92521 0.58448 0.55451 0.0
H1134 H 0.95738 0.60576 0.55612 0.0
H1135 H 0.00608 0.72983 0.55264 0.0
H1136 H 0.00631 0.69661 0.53092 0.0
H1137 H 0.98451 0.66341 0.58006 0.0
H1138 H 0.98369 0.69663 0.60162 0.0
H1139 H 0.96423 0.64928 0.54734 0.0
H1140 H 0.03326 0.66334 0.56351 0.0
H1141 H 0.06576 0.68389 0.56647 0.0
H1142 H 0.06507 0.68547 0.50178 0.0
H1143 H 0.03242 0.66518 0.49847 0.0
C1144 C 0.98337 0.56066 0.50204 0.0
C1145 C 0.97568 0.55857 0.48198 0.0
C1146 C 0.98969 0.58041 0.51213 0.0
C1147 C 0.98873 0.5983 0.50215 0.0
C1148 C 0.98299 0.59605 0.48144 0.0
C1149 C 0.97642 0.57623 0.4714 0.0
C1150 C 0.99034 0.61909 0.51433 0.0
C1151 C 0.00824 0.63182 0.51577 0.0
C1152 C 0.9744 0.62548 0.5259 0.0
C1153 C 0.95519 0.6126 0.52493 0.0
C1154 C 0.94338 0.60958 0.50696 0.0
C1155 C 0.92518 0.59753 0.50617 0.0
C1156 C 0.91864 0.5885 0.52331 0.0
C1157 C 0.93029 0.5915 0.54126 0.0
C1158 C 0.94848 0.60357 0.54212 0.0
C1159 C 1.00152 0.71543 0.55888 0.0
C1160 C 0.99484 0.71585 0.57884 0.0
C1161 C 1.00175 0.69641 0.54646 0.0
C1162 C 0.99561 0.67742 0.55387 0.0
C1163 C 0.98929 0.67783 0.57396 0.0
C1164 C 0.98885 0.69684 0.58629 0.0
C1165 C 0.99457 0.65721 0.54039 0.0
C1166 C 0.97668 0.64437 0.53875 0.0
C1167 C 0.01064 0.65077 0.52883 0.0
C1168 C 0.03029 0.66293 0.53077 0.0
C1169 C 0.03996 0.66822 0.54993 0.0
C1170 C 0.05842 0.6798 0.55167 0.0
C1171 C 0.06745 0.68604 0.53433 0.0
C1172 C 0.05805 0.68066 0.5152 0.0
C1173 C 0.03957 0.6691 0.51339 0.0
H1174 H 0.08174 0.69499 0.5357 0.0
H1175 H 0.90457 0.57913 0.52266 0.0
H1176 H 0.75018 0.80808 0.23344 0.0
H1177 H 0.77909 0.83366 0.23282 0.0
H1178 H 0.74081 0.8821 0.22612 0.0
H1179 H 0.71205 0.85624 0.22577 0.0
H1180 H 0.77331 0.88885 0.20542 0.0
H1181 H 0.75817 0.87341 0.27289 0.0
H1182 H 0.75177 0.85043 0.29975 0.0
H1183 H 0.80978 0.8303 0.29395 0.0
H1184 H 0.8164 0.85291 0.26679 0.0
H1185 H 0.83564 0.97809 0.25069 0.0
H1186 H 0.80857 0.9502 0.24387 0.0
H1187 H 0.84982 0.90374 0.24506 0.0
H1188 H 0.87693 0.93139 0.2518 0.0
H1189 H 0.81677 0.89532 0.26748 0.0
H1190 H 0.83196 0.91326 0.2007 0.0
H1191 H 0.83747 0.93718 0.17449 0.0
H1192 H 0.77834 0.95414 0.18022 0.0
H1193 H 0.77257 0.93053 0.2067 0.0
C1194 C 0.74807 0.82406 0.23122 0.0
C1195 C 0.72901 0.83038 0.22993 0.0
C1196 C 0.76452 0.8387 0.23108 0.0
C1197 C 0.7621 0.85993 0.22996 0.0
C1198 C 0.74306 0.86588 0.22718 0.0
C1199 C 0.72665 0.8512 0.22713 0.0
C1200 C 0.77915 0.87619 0.23343 0.0
C1201 C 0.78272 0.89035 0.21906 0.0
C1202 C 0.79156 0.87808 0.25115 0.0
C1203 C 0.78771 0.86469 0.26767 0.0
C1204 C 0.76952 0.86398 0.27726 0.0
C1205 C 0.76585 0.85103 0.29254 0.0
C1206 C 0.78034 0.83888 0.29853 0.0
C1207 C 0.79855 0.8397 0.28928 0.0
C1208 C 0.80228 0.85258 0.27394 0.0
C1209 C 0.83896 0.96194 0.24956 0.0
C1210 C 0.85848 0.957 0.25175 0.0
C1211 C 0.82348 0.94603 0.24556 0.0
C1212 C 0.82723 0.92491 0.24379 0.0
C1213 C 0.84662 0.91994 0.24632 0.0
C1214 C 0.8621 0.9358 0.25012 0.0
C1215 C 0.81093 0.90794 0.23948 0.0
C1216 C 0.80745 0.8937 0.25377 0.0
C1217 C 0.7985 0.90616 0.22181 0.0
C1218 C 0.8019 0.92028 0.20583 0.0
C1219 C 0.82018 0.92222 0.1965 0.0
C1220 C 0.82334 0.93569 0.18157 0.0
C1221 C 0.80828 0.94721 0.17573 0.0
C1222 C 0.79001 0.94523 0.18477 0.0
C1223 C 0.78678 0.93179 0.19973 0.0
H1224 H 0.81076 0.95764 0.16417 0.0
H1225 H 0.77748 0.82886 0.31036 0.0
H1226 H 0.70367 0.14878 0.28596 0.0
H1227 H 0.73045 0.1265 0.28951 0.0
H1228 H 0.77296 0.18059 0.29089 0.0
H1229 H 0.74612 0.20264 0.28666 0.0
H1230 H 0.78304 0.14946 0.26475 0.0
H1231 H 0.76298 0.15654 0.3337 0.0
H1232 H 0.73959 0.15522 0.36144 0.0
H1233 H 0.72594 0.08913 0.34474 0.0
H1234 H 0.74904 0.09012 0.31667 0.0
H1235 H 0.86742 0.1028 0.29054 0.0
H1236 H 0.83999 0.12439 0.29379 0.0
H1237 H 0.79888 0.06889 0.28713 0.0
H1238 H 0.8264 0.04701 0.28395 0.0
H1239 H 0.78788 0.10021 0.31649 0.0
H1240 H 0.80739 0.09372 0.24694 0.0
H1241 H 0.83083 0.09534 0.21925 0.0
H1242 H 0.84553 0.16101 0.23752 0.0
H1243 H 0.82238 0.15972 0.26552 0.0
C1244 C 0.71875 0.15582 0.28709 0.0
C1245 C 0.72294 0.17732 0.28594 0.0
C1246 C 0.73402 0.14316 0.2893 0.0
C1247 C 0.75376 0.15187 0.29058 0.0
C1248 C 0.75787 0.17351 0.28995 0.0
C1249 C 0.74259 0.18612 0.2877 0.0
C1250 C 0.77013 0.13829 0.29133 0.0
C1251 C 0.78424 0.13895 0.27628 0.0
C1252 C 0.77144 0.12411 0.30602 0.0
C1253 C 0.75761 0.12344 0.32295 0.0
C1254 C 0.75487 0.14175 0.33583 0.0
C1255 C 0.74169 0.14106 0.35164 0.0
C1256 C 0.73125 0.12211 0.35482 0.0
C1257 C 0.73402 0.10381 0.34224 0.0
C1258 C 0.74717 0.10442 0.32639 0.0
C1259 C 0.85258 0.0951 0.28997 0.0
C1260 C 0.84912 0.07314 0.28677 0.0
C1261 C 0.83689 0.10751 0.2918 0.0
C1262 C 0.81738 0.09827 0.29039 0.0
C1263 C 0.81384 0.07635 0.2882 0.0
C1264 C 0.82958 0.06387 0.28634 0.0
C1265 C 0.8008 0.1116 0.29003 0.0
C1266 C 0.78665 0.1108 0.30505 0.0
C1267 C 0.79943 0.12573 0.27534 0.0
C1268 C 0.8133 0.12658 0.25845 0.0
C1269 C 0.81574 0.10847 0.24515 0.0
C1270 C 0.82895 0.10934 0.22938 0.0
C1271 C 0.8397 0.12826 0.22666 0.0
C1272 C 0.83722 0.14636 0.23966 0.0
C1273 C 0.82404 0.14558 0.25548 0.0
H1274 H 0.84992 0.12889 0.21444 0.0
H1275 H 0.72105 0.12161 0.36707 0.0
H1276 H 0.40738 0.0055 0.95306 0.0
H1277 H 0.37886 0.9822 0.96177 0.0
H1278 H 0.41385 0.96238 0.00983 0.0
H1279 H 0.44211 0.98604 1.00132 0.0
H1280 H 0.39091 0.92907 0.98307 0.0
H1281 H 0.38441 0.99528 0.02345 0.0
H1282 H 0.382 0.03334 0.02807 0.0
H1283 H 0.32967 0.02494 0.9895 0.0
H1284 H 0.33199 0.98683 0.98434 0.0
H1285 H 0.32218 0.87561 0.03906 0.0
H1286 H 0.34809 0.90091 0.02953 0.0
H1287 H 0.30562 0.92833 0.99416 0.0
H1288 H 0.27935 0.90342 0.0044 0.0
H1289 H 0.33138 0.95805 0.0119 0.0
H1290 H 0.33625 0.89291 0.97157 0.0
H1291 H 0.33828 0.85488 0.96459 0.0
H1292 H 0.39273 0.86091 0.9996 0.0
H1293 H 0.39089 0.89896 0.00704 0.0
C1294 C 0.40884 0.99601 0.96537 0.0
C1295 C 0.42669 0.99733 0.97658 0.0
C1296 C 0.39266 0.98284 0.97037 0.0
C1297 C 0.39429 0.97067 0.98648 0.0
C1298 C 0.41234 0.97165 0.99735 0.0
C1299 C 0.42838 0.98507 0.99255 0.0
C1300 C 0.37715 0.95707 0.99223 0.0
C1301 C 0.37796 0.93536 0.98956 0.0
C1302 C 0.36003 0.96535 1.00003 0.0
C1303 C 0.35851 0.98823 0.00332 0.0
C1304 C 0.3725 1.00156 0.0158 0.0
C1305 C 0.37113 0.02314 0.01854 0.0
C1306 C 0.35572 0.03156 0.00904 0.0
C1307 C 0.34162 0.0184 0.99682 0.0
C1308 C 0.34295 0.99681 0.99399 0.0
C1309 C 0.3183 0.88715 0.0294 0.0
C1310 C 0.29877 0.88739 0.02228 0.0
C1311 C 0.33316 0.90154 0.02386 0.0
C1312 C 0.32894 0.91615 0.01063 0.0
C1313 C 0.30928 0.91709 0.00425 0.0
C1314 C 0.29428 0.90287 0.01011 0.0
C1315 C 0.34521 0.9299 0.00308 0.0
C1316 C 0.34424 0.95166 0.00532 0.0
C1317 C 0.36211 0.92164 0.99454 0.0
C1318 C 0.36335 0.89877 0.99 0.0
C1319 C 0.3486 0.88611 0.97789 0.0
C1320 C 0.34972 0.86455 0.97384 0.0
C1321 C 0.3656 0.85548 0.98168 0.0
C1322 C 0.38043 0.86796 0.99355 0.0
C1323 C 0.37936 0.88953 0.99767 0.0
H1324 H 0.36644 0.83879 0.97853 0.0
H1325 H 0.35468 0.04827 0.01119 0.0
H1326 H 0.25468 0.30286 0.29654 0.0
H1327 H 0.22969 0.32731 0.29318 0.0
H1328 H 0.27539 0.37884 0.29923 0.0
H1329 H 0.30016 0.35441 0.30348 0.0
H1330 H 0.24497 0.3899 0.31983 0.0
H1331 H 0.25466 0.35676 0.25236 0.0
H1332 H 0.25577 0.32691 0.22575 0.0
H1333 H 0.19465 0.30803 0.23364 0.0
H1334 H 0.19325 0.33764 0.26052 0.0
H1335 H 0.19448 0.44921 0.24392 0.0
H1336 H 0.21014 0.41847 0.25103 0.0
H1337 H 0.18198 0.41949 0.30875 0.0
H1338 H 0.16648 0.45084 0.3019 0.0
H1339 H 0.20053 0.37998 0.25835 0.0
H1340 H 0.21534 0.40622 0.34372 0.0
H1341 H 0.21768 0.43845 0.36798 0.0
H1342 H 0.23537 0.47506 0.32015 0.0
H1343 H 0.23337 0.44303 0.2957 0.0
C1344 C 0.25925 0.31944 0.2974 0.0
C1345 C 0.27927 0.32683 0.3002 0.0
C1346 C 0.24504 0.33338 0.29533 0.0
C1347 C 0.25065 0.35493 0.29573 0.0
C1348 C 0.27067 0.36231 0.29888 0.0
C1349 C 0.28483 0.34839 0.30111 0.0
C1350 C 0.23588 0.36981 0.2923 0.0
C1351 C 0.23513 0.38761 0.30647 0.0
C1352 C 0.22312 0.367 0.27479 0.0
C1353 C 0.22391 0.34925 0.2586 0.0
C1354 C 0.2415 0.34614 0.24852 0.0
C1355 C 0.24218 0.32929 0.23338 0.0
C1356 C 0.22531 0.31554 0.22805 0.0
C1357 C 0.20771 0.31867 0.23782 0.0
C1358 C 0.20697 0.33548 0.253 0.0
C1359 C 0.19133 0.44277 0.25803 0.0
C1360 C 0.17944 0.45272 0.27249 0.0
C1361 C 0.20025 0.42507 0.26202 0.0
C1362 C 0.19755 0.41684 0.28057 0.0
C1363 C 0.18454 0.42577 0.29446 0.0
C1364 C 0.17557 0.44361 0.29047 0.0
C1365 C 0.20977 0.40017 0.28577 0.0
C1366 C 0.21005 0.38202 0.27194 0.0
C1367 C 0.22251 0.40296 0.30329 0.0
C1368 C 0.22395 0.42228 0.31787 0.0
C1369 C 0.21976 0.42116 0.33842 0.0
C1370 C 0.22103 0.43938 0.35219 0.0
C1371 C 0.22659 0.4588 0.34559 0.0
C1372 C 0.23099 0.46002 0.32522 0.0
C1373 C 0.22977 0.44185 0.3114 0.0
H1374 H 0.22755 0.47289 0.35627 0.0
H1375 H 0.22586 0.3025 0.21632 0.0
H1376 H 0.0717 0.04156 0.52237 0.0
H1377 H 0.10402 0.06205 0.52734 0.0
H1378 H 0.13062 0.01201 0.49281 0.0
H1379 H 0.09809 0.99177 0.48757 0.0
H1380 H 0.15446 0.03506 0.52927 0.0
H1381 H 0.12195 0.04653 0.46579 0.0
H1382 H 0.09407 0.05448 0.44451 0.0
H1383 H 0.09012 0.1119 0.48318 0.0
H1384 H 0.11815 0.10439 0.50454 0.0
H1385 H 0.24007 0.10076 0.50523 0.0
H1386 H 0.2117 0.07425 0.50413 0.0
H1387 H 0.17387 0.12279 0.52098 0.0
H1388 H 0.20176 0.14917 0.52138 0.0
H1389 H 0.15659 0.0977 0.4922 0.0
H1390 H 0.19011 0.08802 0.55478 0.0
H1391 H 0.21812 0.08092 0.57631 0.0
H1392 H 0.21982 0.0208 0.54157 0.0
H1393 H 0.19197 0.02766 0.51966 0.0
C1394 C 0.08464 0.03467 0.51664 0.0
C1395 C 0.08264 0.01497 0.50508 0.0
C1396 C 0.10301 0.0464 0.51929 0.0
C1397 C 0.11971 0.03856 0.5104 0.0
C1398 C 0.11797 0.01825 0.49995 0.0
C1399 C 0.09949 0.00662 0.49713 0.0
C1400 C 0.13826 0.05255 0.51002 0.0
C1401 C 0.15509 0.04864 0.52099 0.0
C1402 C 0.13896 0.07039 0.49946 0.0
C1403 C 0.122 0.07482 0.48682 0.0
C1404 C 0.11506 0.06079 0.46979 0.0
C1405 C 0.09931 0.06527 0.45767 0.0
C1406 C 0.09027 0.08363 0.46255 0.0
C1407 C 0.0971 0.09766 0.47945 0.0
C1408 C 0.11298 0.09336 0.4915 0.0
C1409 C 0.22569 0.10575 0.50868 0.0
C1410 C 0.22323 0.12714 0.51327 0.0
C1411 C 0.20948 0.09055 0.50819 0.0
C1412 C 0.19057 0.09642 0.51267 0.0
C1413 C 0.18821 0.11777 0.51737 0.0
C1414 C 0.20426 0.1329 0.51759 0.0
C1415 C 0.17297 0.08068 0.5119 0.0
C1416 C 0.15619 0.08417 0.50054 0.0
C1417 C 0.17238 0.06261 0.52229 0.0
C1418 C 0.1891 0.05846 0.53544 0.0
C1419 C 0.19656 0.07336 0.55163 0.0
C1420 C 0.21239 0.06936 0.56392 0.0
C1421 C 0.22079 0.05045 0.56027 0.0
C1422 C 0.21333 0.03546 0.54435 0.0
C1423 C 0.19751 0.03939 0.532 0.0
H1424 H 0.23304 0.04738 0.5698 0.0
H1425 H 0.078 0.087 0.4532 0.0
H1426 H 0.76922 0.22424 0.77366 0.0
H1427 H 0.74728 0.19343 0.77934 0.0
H1428 H 0.79135 0.15357 0.75716 0.0
H1429 H 0.8127 0.18451 0.75038 0.0
H1430 H 0.75852 0.14138 0.73756 0.0
H1431 H 0.77466 0.15725 0.80989 0.0
H1432 H 0.77849 0.1789 0.84324 0.0
H1433 H 0.71824 0.19223 0.83897 0.0
H1434 H 0.71388 0.17032 0.8058 0.0
H1435 H 0.70703 0.04591 0.75833 0.0
H1436 H 0.72994 0.07678 0.75603 0.0
H1437 H 0.68513 0.11657 0.77603 0.0
H1438 H 0.66219 0.08561 0.77887 0.0
H1439 H 0.71814 0.12877 0.79702 0.0
H1440 H 0.70109 0.11219 0.72623 0.0
H1441 H 0.6959 0.08981 0.69341 0.0
H1442 H 0.75702 0.07897 0.69396 0.0
H1443 H 0.76252 0.10106 0.72693 0.0
C1444 C 0.77435 0.20888 0.77059 0.0
C1445 C 0.7926 0.20666 0.76166 0.0
C1446 C 0.76188 0.19125 0.77392 0.0
C1447 C 0.76761 0.17105 0.76876 0.0
C1448 C 0.78654 0.16895 0.76125 0.0
C1449 C 0.79889 0.18661 0.75767 0.0
C1450 C 0.7531 0.15228 0.76877 0.0
C1451 C 0.75 0.13842 0.75074 0.0
C1452 C 0.74127 0.14881 0.78558 0.0
C1453 C 0.74401 0.16232 0.8053 0.0
C1454 C 0.76228 0.16493 0.816 0.0
C1455 C 0.76454 0.17721 0.83488 0.0
C1456 C 0.74871 0.18711 0.84311 0.0
C1457 C 0.73051 0.1846 0.83256 0.0
C1458 C 0.7281 0.17217 0.81378 0.0
C1459 C 0.70188 0.06121 0.76186 0.0
C1460 C 0.68275 0.06328 0.76876 0.0
C1461 C 0.71503 0.0789 0.76051 0.0
C1462 C 0.70927 0.09906 0.76575 0.0
C1463 C 0.68994 0.10118 0.77195 0.0
C1464 C 0.6768 0.08347 0.77344 0.0
C1465 C 0.72378 0.1178 0.76593 0.0
C1466 C 0.72678 0.13169 0.78391 0.0
C1467 C 0.73541 0.12139 0.74902 0.0
C1468 C 0.73217 0.10813 0.72915 0.0
C1469 C 0.71339 0.10491 0.71943 0.0
C1470 C 0.7104 0.09229 0.70079 0.0
C1471 C 0.72611 0.08293 0.69163 0.0
C1472 C 0.74486 0.08621 0.70108 0.0
C1473 C 0.74793 0.0988 0.71974 0.0
H1474 H 0.72377 0.07317 0.6772 0.0
H1475 H 0.75053 0.19663 0.85771 0.0
H1476 H 0.42145 0.98087 0.56008 0.0
H1477 H 0.39684 0.00345 0.54975 0.0
H1478 H 0.44336 0.0522 0.54349 0.0
H1479 H 0.46779 0.02955 0.55401 0.0
H1480 H 0.41297 0.06776 0.56299 0.0
H1481 H 0.42138 0.02182 0.50216 0.0
H1482 H 0.42221 0.98754 0.48173 0.0
H1483 H 0.36116 0.97176 0.49277 0.0
H1484 H 0.36006 0.00582 0.5136 0.0
H1485 H 0.36297 0.13416 0.50848 0.0
H1486 H 0.38526 0.10843 0.5158 0.0
H1487 H 0.33564 0.0642 0.5244 0.0
H1488 H 0.31306 0.08995 0.51695 0.0
H1489 H 0.36625 0.04543 0.50419 0.0
H1490 H 0.35794 0.09137 0.56494 0.0
H1491 H 0.35727 0.12547 0.58576 0.0
H1492 H 0.4184 0.14104 0.57491 0.0
H1493 H 0.41935 0.10714 0.55377 0.0
C1494 C 0.42624 0.99645 0.55653 0.0
C1495 C 0.44632 0.00368 0.55785 0.0
C1496 C 0.41229 0.00928 0.55055 0.0
C1497 C 0.41827 0.02946 0.54564 0.0
C1498 C 0.4384 0.03671 0.5472 0.0
C1499 C 0.45231 0.02387 0.55318 0.0
C1500 C 0.4036 0.04314 0.53903 0.0
C1501 C 0.40294 0.06295 0.54998 0.0
C1502 C 0.39013 0.03667 0.52236 0.0
C1503 C 0.39069 0.0163 0.50961 0.0
C1504 C 0.40817 0.01098 0.50036 0.0
C1505 C 0.40869 0.9916 0.4887 0.0
C1506 C 0.39177 0.97746 0.486 0.0
C1507 C 0.37427 0.98272 0.49491 0.0
C1508 C 0.37368 1.00206 0.50664 0.0
C1509 C 0.35672 0.11888 0.51164 0.0
C1510 C 0.3362 0.11421 0.51235 0.0
C1511 C 0.36952 0.1042 0.51588 0.0
C1512 C 0.36212 0.08455 0.52101 0.0
C1513 C 0.34165 0.07933 0.52057 0.0
C1514 C 0.32877 0.09406 0.51632 0.0
C1515 C 0.37585 0.07011 0.52802 0.0
C1516 C 0.37629 0.05017 0.51721 0.0
C1517 C 0.38916 0.07643 0.54483 0.0
C1518 C 0.38866 0.0968 0.55761 0.0
C1519 C 0.37119 0.10213 0.56686 0.0
C1520 C 0.37077 0.12141 0.57874 0.0
C1521 C 0.38777 0.13543 0.58161 0.0
C1522 C 0.40524 0.13017 0.57265 0.0
C1523 C 0.40573 0.11092 0.56073 0.0
H1524 H 0.38741 0.15035 0.59082 0.0
H1525 H 0.3922 0.96246 0.47696 0.0
H1526 H 0.57631 0.51332 0.55292 0.0
H1527 H 0.60749 0.49825 0.546 0.0
H1528 H 0.5787 0.45651 0.4962 0.0
H1529 H 0.54774 0.47218 0.50298 0.0
H1530 H 0.61238 0.46042 0.5514 0.0
H1531 H 0.61173 0.4375 0.46358 0.0
H1532 H 0.60313 0.45263 0.43236 0.0
H1533 H 0.61316 0.51452 0.46445 0.0
H1534 H 0.62195 0.49981 0.49578 0.0
H1535 H 0.65824 0.36983 0.52805 0.0
H1536 H 0.63524 0.39625 0.52657 0.0
H1537 H 0.68127 0.43891 0.50672 0.0
H1538 H 0.70464 0.41235 0.50816 0.0
H1539 H 0.64401 0.44001 0.48633 0.0
H1540 H 0.67143 0.44622 0.55392 0.0
H1541 H 0.68184 0.43377 0.58596 0.0
H1542 H 0.62203 0.41101 0.5957 0.0
H1543 H 0.61131 0.42304 0.56354 0.0
C1544 C 0.57701 0.50155 0.53999 0.0
C1545 C 0.5599 0.49398 0.5283 0.0
C1546 C 0.5947 0.49281 0.53613 0.0
C1547 C 0.59552 0.47617 0.52059 0.0
C1548 C 0.57862 0.46953 0.50805 0.0
C1549 C 0.56095 0.47846 0.51185 0.0
C1550 C 0.613 0.46393 0.51941 0.0
C1551 C 0.61936 0.45618 0.53716 0.0
C1552 C 0.62242 0.45855 0.50095 0.0
C1553 C 0.61736 0.46752 0.48207 0.0
C1554 C 0.61218 0.45434 0.46395 0.0
C1555 C 0.60723 0.46285 0.44623 0.0
C1556 C 0.60751 0.48453 0.44643 0.0
C1557 C 0.61282 0.49774 0.46433 0.0
C1558 C 0.61775 0.48932 0.48208 0.0
C1559 C 0.66354 0.38473 0.52318 0.0
C1560 C 0.68338 0.38901 0.51841 0.0
C1561 C 0.65032 0.39984 0.52234 0.0
C1562 C 0.65658 0.41963 0.51675 0.0
C1563 C 0.67615 0.42373 0.5111 0.0
C1564 C 0.68948 0.40857 0.512 0.0
C1565 C 0.64281 0.4362 0.51818 0.0
C1566 C 0.63713 0.44461 0.50054 0.0
C1567 C 0.63424 0.44262 0.53683 0.0
C1568 C 0.6406 0.43539 0.55623 0.0
C1569 C 0.66052 0.43841 0.56281 0.0
C1570 C 0.66647 0.43145 0.58101 0.0
C1571 C 0.65261 0.42157 0.59284 0.0
C1572 C 0.63276 0.41865 0.58651 0.0
C1573 C 0.62673 0.42556 0.56831 0.0
H1574 H 0.65725 0.4162 0.60693 0.0
H1575 H 0.60367 0.49108 0.43271 0.0
H1576 H 0.69701 0.19406 0.32824 0.0
H1577 H 0.70629 0.21309 0.36196 0.0
H1578 H 0.74062 0.26055 0.33342 0.0
H1579 H 0.73081 0.24164 0.29982 0.0
H1580 H 0.73832 0.22693 0.38466 0.0
H1581 H 0.73353 0.30819 0.35684 0.0
H1582 H 0.71703 0.32341 0.32927 0.0
H1583 H 0.67067 0.27314 0.32484 0.0
H1584 H 0.68678 0.25773 0.35249 0.0
H1585 H 0.7737 0.303 0.46452 0.0
H1586 H 0.76793 0.28368 0.43072 0.0
H1587 H 0.70775 0.299 0.43033 0.0
H1588 H 0.71365 0.31904 0.46402 0.0
H1589 H 0.72134 0.30037 0.39405 0.0
H1590 H 0.72031 0.2507 0.44216 0.0
H1591 H 0.73266 0.23364 0.47072 0.0
H1592 H 0.78308 0.21776 0.4368 0.0
H1593 H 0.77116 0.23499 0.40813 0.0
C1594 C 0.70696 0.20827 0.32939 0.0
C1595 C 0.71326 0.21657 0.31175 0.0
C1596 C 0.71221 0.21916 0.34854 0.0
C1597 C 0.72381 0.23848 0.35019 0.0
C1598 C 0.73134 0.2459 0.3325 0.0
C1599 C 0.72593 0.23509 0.31339 0.0
C1600 C 0.72678 0.25159 0.37016 0.0
C1601 C 0.73471 0.24302 0.3867 0.0
C1602 C 0.72148 0.27237 0.373 0.0
C1603 C 0.71148 0.28173 0.3566 0.0
C1604 C 0.71978 0.30044 0.35003 0.0
C1605 C 0.7105 0.30908 0.33437 0.0
C1606 C 0.69285 0.2992 0.32525 0.0
C1607 C 0.68438 0.28072 0.33185 0.0
C1608 C 0.69359 0.27202 0.34749 0.0
C1609 C 0.75927 0.30242 0.45718 0.0
C1610 C 0.74406 0.31237 0.46704 0.0
C1611 C 0.75597 0.29127 0.43788 0.0
C1612 C 0.73727 0.28942 0.42817 0.0
C1613 C 0.72227 0.3001 0.43758 0.0
C1614 C 0.72565 0.31155 0.45682 0.0
C1615 C 0.7333 0.27588 0.4085 0.0
C1616 C 0.7251 0.28434 0.39202 0.0
C1617 C 0.73776 0.25476 0.4059 0.0
C1618 C 0.74493 0.24431 0.42307 0.0
C1619 C 0.7341 0.2437 0.44085 0.0
C1620 C 0.74101 0.23398 0.45705 0.0
C1621 C 0.75867 0.22467 0.4556 0.0
C1622 C 0.76942 0.22501 0.43792 0.0
C1623 C 0.76259 0.23473 0.42168 0.0
H1624 H 0.76399 0.21715 0.46816 0.0
H1625 H 0.68572 0.30589 0.31311 0.0
H1626 H 0.46475 0.03008 0.91706 0.0
H1627 H 0.49154 0.0293 0.89294 0.0
H1628 H 0.53381 0.03182 0.9429 0.0
H1629 H 0.50693 0.03231 0.96692 0.0
H1630 H 0.54728 0.05577 0.91269 0.0
H1631 H 0.51777 0.98582 0.91788 0.0
H1632 H 0.48997 0.95835 0.9168 0.0
H1633 H 0.47728 0.96523 0.85421 0.0
H1634 H 0.50486 0.99297 0.85501 0.0
H1635 H 0.62767 0.01547 0.8627 0.0
H1636 H 0.6001 0.02022 0.88498 0.0
H1637 H 0.55985 0.01118 0.83278 0.0
H1638 H 0.58743 0.00595 0.81031 0.0
H1639 H 0.54445 0.99181 0.86296 0.0
H1640 H 0.57473 0.06051 0.85691 0.0
H1641 H 0.60198 0.08858 0.85788 0.0
H1642 H 0.61276 0.08489 0.92147 0.0
H1643 H 0.58574 0.05658 0.92083 0.0
C1644 C 0.47981 0.03078 0.92281 0.0
C1645 C 0.48387 0.03112 0.94374 0.0
C1646 C 0.49507 0.03031 0.90909 0.0
C1647 C 0.51464 0.03015 0.91611 0.0
C1648 C 0.51882 0.0319 0.93716 0.0
C1649 C 0.50352 0.0323 0.95086 0.0
C1650 C 0.53053 0.02665 0.90151 0.0
C1651 C 0.54678 0.04172 0.90194 0.0
C1652 C 0.52963 0.00851 0.88717 0.0
C1653 C 0.51325 0.99161 0.88656 0.0
C1654 C 0.50897 0.98157 0.90393 0.0
C1655 C 0.49327 0.96593 0.90336 0.0
C1656 C 0.48183 0.96008 0.88546 0.0
C1657 C 0.48613 0.9698 0.86807 0.0
C1658 C 0.50181 0.98546 0.86857 0.0
C1659 C 0.61295 0.01433 0.85592 0.0
C1660 C 0.60979 0.01047 0.83468 0.0
C1661 C 0.59719 0.01719 0.8687 0.0
C1662 C 0.57792 0.01654 0.86056 0.0
C1663 C 0.5746 0.0119 0.83942 0.0
C1664 C 0.59038 0.00889 0.82658 0.0
C1665 C 0.56136 0.0209 0.87415 0.0
C1666 C 0.54496 0.00596 0.87358 0.0
C1667 C 0.56209 0.03921 0.8883 0.0
C1668 C 0.57832 0.05629 0.88877 0.0
C1669 C 0.583 0.06557 0.87107 0.0
C1670 C 0.59839 0.08155 0.87156 0.0
C1671 C 0.60912 0.08848 0.88971 0.0
C1672 C 0.60445 0.07949 0.90742 0.0
C1673 C 0.58909 0.06349 0.907 0.0
H1674 H 0.62103 0.10085 0.89006 0.0
H1675 H 0.46967 0.948 0.88506 0.0
H1676 H 0.32826 0.29269 0.34922 0.0
H1677 H 0.32815 0.26616 0.37276 0.0
H1678 H 0.30491 0.21894 0.32444 0.0
H1679 H 0.30435 0.24599 0.30123 0.0
H1680 H 0.28298 0.21635 0.35415 0.0
H1681 H 0.35185 0.21815 0.3497 0.0
H1682 H 0.38629 0.23341 0.34887 0.0
H1683 H 0.38334 0.2621 0.41039 0.0
H1684 H 0.34878 0.24729 0.4115 0.0
H1685 H 0.30831 0.16249 0.45228 0.0
H1686 H 0.31782 0.17343 0.41927 0.0
H1687 H 0.2711 0.21407 0.42157 0.0
H1688 H 0.2613 0.20297 0.45396 0.0
H1689 H 0.33148 0.21046 0.40968 0.0
H1690 H 0.25318 0.22 0.37642 0.0
H1691 H 0.21967 0.20183 0.37552 0.0
H1692 H 0.24354 0.14459 0.38552 0.0
H1693 H 0.27721 0.16231 0.38619 0.0
C1694 C 0.32395 0.27646 0.34354 0.0
C1695 C 0.31652 0.2712 0.32351 0.0
C1696 C 0.32385 0.26125 0.35696 0.0
C1697 C 0.31659 0.24037 0.35047 0.0
C1698 C 0.31056 0.23488 0.3299 0.0
C1699 C 0.31045 0.25022 0.31656 0.0
C1700 C 0.31276 0.22524 0.36572 0.0
C1701 C 0.29372 0.21489 0.36611 0.0
C1702 C 0.32682 0.22274 0.38115 0.0
C1703 C 0.34766 0.23165 0.38064 0.0
C1704 C 0.3585 0.22782 0.36301 0.0
C1705 C 0.37805 0.23638 0.3625 0.0
C1706 C 0.38699 0.24873 0.37956 0.0
C1707 C 0.3764 0.25252 0.39718 0.0
C1708 C 0.35683 0.24401 0.39778 0.0
C1709 C 0.29983 0.17344 0.44555 0.0
C1710 C 0.284 0.1818 0.45584 0.0
C1711 C 0.30537 0.17979 0.42672 0.0
C1712 C 0.29509 0.19445 0.41777 0.0
C1713 C 0.27907 0.20243 0.42787 0.0
C1714 C 0.27352 0.19611 0.44655 0.0
C1715 C 0.30151 0.20252 0.39849 0.0
C1716 C 0.32095 0.21157 0.39742 0.0
C1717 C 0.28799 0.20339 0.38212 0.0
C1718 C 0.26774 0.19254 0.38145 0.0
C1719 C 0.2513 0.2035 0.37829 0.0
C1720 C 0.23226 0.19328 0.37786 0.0
C1721 C 0.22947 0.17208 0.3805 0.0
C1722 C 0.24572 0.16103 0.38353 0.0
C1723 C 0.26478 0.17116 0.38396 0.0
H1724 H 0.21472 0.16421 0.38017 0.0
H1725 H 0.40213 0.25535 0.37913 0.0
H1726 H 0.49962 0.5214 0.98836 0.0
H1727 H 0.47514 0.52566 0.96157 0.0
H1728 H 0.51505 0.50428 0.91583 0.0
H1729 H 0.53935 0.50024 0.94256 0.0
H1730 H 0.49947 0.53781 0.90573 0.0
H1731 H 0.47543 0.47262 0.92987 0.0
H1732 H 0.46362 0.45026 0.95573 0.0
H1733 H 0.41543 0.48758 0.96764 0.0
H1734 H 0.42714 0.51036 0.94204 0.0
H1735 H 0.44599 0.49107 0.81926 0.0
H1736 H 0.4614 0.49439 0.85303 0.0
H1737 H 0.4207 0.53809 0.87513 0.0
H1738 H 0.4051 0.53522 0.84084 0.0
H1739 H 0.43254 0.49971 0.90049 0.0
H1740 H 0.45627 0.56289 0.87226 0.0
H1741 H 0.46869 0.58248 0.84458 0.0
H1742 H 0.51823 0.54616 0.83912 0.0
H1743 H 0.50592 0.52612 0.86655 0.0
C1744 C 0.50299 0.51761 0.97254 0.0
C1745 C 0.52127 0.51059 0.96737 0.0
C1746 C 0.48907 0.52 0.95729 0.0
C1747 C 0.49323 0.51524 0.93666 0.0
C1748 C 0.51154 0.5082 0.9316 0.0
C1749 C 0.5254 0.50588 0.9468 0.0
C1750 C 0.4787 0.51747 0.92015 0.0
C1751 C 0.48481 0.52954 0.9047 0.0
C1752 C 0.45938 0.50708 0.91893 0.0
C1753 C 0.4523 0.49335 0.93424 0.0
C1754 C 0.46241 0.47616 0.93813 0.0
C1755 C 0.45572 0.4634 0.95272 0.0
C1756 C 0.43882 0.46754 0.96337 0.0
C1757 C 0.42854 0.48442 0.95941 0.0
C1758 C 0.4352 0.49726 0.94486 0.0
C1759 C 0.44004 0.50128 0.83121 0.0
C1760 C 0.42435 0.51305 0.82718 0.0
C1761 C 0.44891 0.50309 0.85057 0.0
C1762 C 0.44225 0.51653 0.86647 0.0
C1763 C 0.426 0.52761 0.86296 0.0
C1764 C 0.41715 0.52598 0.84338 0.0
C1765 C 0.45353 0.51974 0.88613 0.0
C1766 C 0.44694 0.50854 0.902 0.0
C1767 C 0.47251 0.53076 0.88771 0.0
C1768 C 0.48008 0.54291 0.87135 0.0
C1769 C 0.46972 0.55896 0.86503 0.0
C1770 C 0.47676 0.57017 0.84941 0.0
C1771 C 0.49422 0.56554 0.84007 0.0
C1772 C 0.5047 0.54972 0.84636 0.0
C1773 C 0.49771 0.53845 0.86196 0.0
H1774 H 0.49965 0.57423 0.82798 0.0
H1775 H 0.43366 0.45763 0.97465 0.0
H1776 H 0.72585 0.76179 0.22314 0.0
H1777 H 0.73954 0.74324 0.19306 0.0
H1778 H 0.72477 0.79187 0.15748 0.0
H1779 H 0.71096 0.81031 0.18773 0.0
H1780 H 0.71228 0.75204 0.13887 0.0
H1781 H 0.77124 0.78871 0.17021 0.0
H1782 H 0.79532 0.80064 0.19846 0.0
H1783 H 0.80662 0.73706 0.20298 0.0
H1784 H 0.78227 0.72469 0.17502 0.0
H1785 H 0.76311 0.71482 0.0515 0.0
H1786 H 0.75182 0.73634 0.08088 0.0
H1787 H 0.76791 0.69131 0.12005 0.0
H1788 H 0.77938 0.66971 0.0907 0.0
H1789 H 0.78031 0.73093 0.1363 0.0
H1790 H 0.72013 0.6941 0.10678 0.0
H1791 H 0.69536 0.6817 0.07926 0.0
H1792 H 0.6861 0.74522 0.0718 0.0
H1793 H 0.71105 0.75802 0.09909 0.0
C1794 C 0.72571 0.76848 0.20888 0.0
C1795 C 0.71734 0.78729 0.20751 0.0
C1796 C 0.73356 0.758 0.19178 0.0
C1797 C 0.73319 0.7662 0.17304 0.0
C1798 C 0.72517 0.78527 0.17179 0.0
C1799 C 0.71743 0.79583 0.18898 0.0
C1800 C 0.7405 0.75439 0.15466 0.0
C1801 C 0.72726 0.74773 0.13814 0.0
C1802 C 0.7599 0.74835 0.15397 0.0
C1803 C 0.77478 0.75575 0.17061 0.0
C1804 C 0.77873 0.77724 0.17732 0.0
C1805 C 0.79245 0.78409 0.19328 0.0
C1806 C 0.80247 0.76961 0.20253 0.0
C1807 C 0.79883 0.74826 0.19581 0.0
C1808 C 0.78507 0.74132 0.1799 0.0
C1809 C 0.76408 0.70936 0.06631 0.0
C1810 C 0.77201 0.69045 0.06872 0.0
C1811 C 0.75763 0.72171 0.08312 0.0
C1812 C 0.75889 0.71537 0.10266 0.0
C1813 C 0.76682 0.69652 0.10512 0.0
C1814 C 0.77327 0.68414 0.08831 0.0
C1815 C 0.75204 0.72847 0.12054 0.0
C1816 C 0.76537 0.73535 0.13697 0.0
C1817 C 0.7327 0.73468 0.12118 0.0
C1818 C 0.71761 0.72702 0.10484 0.0
C1819 C 0.71293 0.70543 0.09916 0.0
C1820 C 0.69884 0.69833 0.08362 0.0
C1821 C 0.6892 0.71266 0.07375 0.0
C1822 C 0.6936 0.73414 0.07944 0.0
C1823 C 0.70771 0.74132 0.09495 0.0
H1824 H 0.6783 0.70713 0.06172 0.0
H1825 H 0.81309 0.77494 0.21488 0.0
H1826 H 0.97901 0.99201 0.05286 0.0
H1827 H 0.95692 0.99145 0.08161 0.0
H1828 H 0.00727 1.00036 0.12342 0.0
H1829 H 0.0293 1.0018 0.09472 0.0
H1830 H 0.97492 0.9688 0.13191 0.0
H1831 H 0.98759 0.04075 0.1168 0.0
H1832 H 0.98818 0.06804 0.09362 0.0
H1833 H 0.92586 0.05447 0.08178 0.0
H1834 H 0.92499 0.02679 0.10461 0.0
H1835 H 0.94184 0.00736 0.22675 0.0
H1836 H 0.95826 1.00028 0.19485 0.0
H1837 H 0.90575 0.01101 0.16151 0.0
H1838 H 0.8894 0.01896 0.1937 0.0
H1839 H 0.93584 0.02953 0.14594 0.0
H1840 H 0.92124 0.96061 0.1629 0.0
H1841 H 0.9193 0.93185 0.18443 0.0
H1842 H 0.9824 0.93719 0.19093 0.0
H1843 H 0.98472 0.96621 0.16968 0.0
C1844 C 0.98527 0.99377 0.06821 0.0
C1845 C 0.00578 0.99704 0.07167 0.0
C1846 C 0.97271 0.99334 0.08455 0.0
C1847 C 0.98051 0.99591 0.10458 0.0
C1848 C 1.00101 0.99822 0.10803 0.0
C1849 C 0.01356 0.99898 0.0917 0.0
C1850 C 0.96735 0.99765 0.12199 0.0
C1851 C 0.96644 0.9821 0.13513 0.0
C1852 C 0.9558 0.01464 0.12563 0.0
C1853 C 0.95627 0.03154 0.11222 0.0
C1854 C 0.97405 0.04346 0.10912 0.0
C1855 C 0.97443 0.05902 0.09606 0.0
C1856 C 0.95708 0.06295 0.08619 0.0
C1857 C 0.9393 0.05138 0.08941 0.0
C1858 C 0.93885 0.03576 0.1024 0.0
C1859 C 0.93368 0.00801 0.21264 0.0
C1860 C 0.91428 0.0136 0.21273 0.0
C1861 C 0.94307 0.00384 0.19436 0.0
C1862 C 0.93315 0.00467 0.17568 0.0
C1863 C 0.91369 0.01016 0.17571 0.0
C1864 C 0.90435 0.01466 0.19409 0.0
C1865 C 0.94356 1.00081 0.15632 0.0
C1866 C 0.94402 0.016 0.14272 0.0
C1867 C 0.95443 0.98326 0.15209 0.0
C1868 C 0.95314 0.9657 0.16479 0.0
C1869 C 0.9347 0.95575 0.16902 0.0
C1870 C 0.93353 0.93939 0.18117 0.0
C1871 C 0.95071 0.93272 0.18907 0.0
C1872 C 0.9691 0.94238 0.18481 0.0
C1873 C 0.97035 0.95877 0.17268 0.0
H1874 H 0.94978 0.92005 0.19848 0.0
H1875 H 0.9574 0.075 0.07609 0.0
H1876 H 0.30268 0.79033 0.23966 0.0
H1877 H 0.29578 0.81214 0.2127 0.0
H1878 H 0.31497 0.76507 0.16785 0.0
H1879 H 0.32215 0.74365 0.19499 0.0
H1880 H 0.32598 0.80383 0.15813 0.0
H1881 H 0.26696 0.76603 0.17856 0.0
H1882 H 0.24258 0.75514 0.20313 0.0
H1883 H 0.22981 0.81887 0.21738 0.0
H1884 H 0.25442 0.83021 0.19315 0.0
H1885 H 0.27018 0.81193 0.06894 0.0
H1886 H 0.28487 0.80163 0.09963 0.0
H1887 H 0.26535 0.85568 0.13494 0.0
H1888 H 0.25072 0.86638 0.10401 0.0
H1889 H 0.25616 0.81856 0.15175 0.0
H1890 H 0.31306 0.85496 0.1267 0.0
H1891 H 0.33683 0.86398 0.10086 0.0
H1892 H 0.35277 0.80093 0.09371 0.0
H1893 H 0.32887 0.79142 0.11928 0.0
C1894 C 0.30585 0.78507 0.22406 0.0
C1895 C 0.31298 0.76557 0.21917 0.0
C1896 C 0.30182 0.79737 0.2087 0.0
C1897 C 0.30461 0.7901 0.18821 0.0
C1898 C 0.31274 0.77102 0.18352 0.0
C1899 C 0.31684 0.75881 0.19892 0.0
C1900 C 0.29753 0.80136 0.17154 0.0
C1901 C 0.31071 0.80701 0.15669 0.0
C1902 C 0.27766 0.80582 0.16984 0.0
C1903 C 0.26269 0.799 0.18423 0.0
C1904 C 0.25906 0.77775 0.18705 0.0
C1905 C 0.24519 0.77149 0.2009 0.0
C1906 C 0.23469 0.78631 0.21185 0.0
C1907 C 0.238 0.80742 0.20892 0.0
C1908 C 0.2519 0.81377 0.19513 0.0
C1909 C 0.26929 0.82192 0.0831 0.0
C1910 C 0.25946 0.84015 0.08393 0.0
C1911 C 0.2777 0.81595 0.10068 0.0
C1912 C 0.27642 0.82802 0.11953 0.0
C1913 C 0.2666 0.84622 0.1205 0.0
C1914 C 0.25828 0.85232 0.10282 0.0
C1915 C 0.28455 0.82084 0.13822 0.0
C1916 C 0.27153 0.81582 0.1534 0.0
C1917 C 0.30449 0.81674 0.14007 0.0
C1918 C 0.31907 0.82245 0.12484 0.0
C1919 C 0.32154 0.84297 0.11952 0.0
C1920 C 0.33505 0.84818 0.10493 0.0
C1921 C 0.34628 0.83303 0.09562 0.0
C1922 C 0.34406 0.81265 0.10093 0.0
C1923 C 0.33055 0.80735 0.11549 0.0
H1924 H 0.35672 0.83709 0.08432 0.0
H1925 H 0.22395 0.78144 0.22257 0.0
H1926 H 0.9804 0.46314 0.1183 0.0
H1927 H 0.00654 0.46531 0.14489 0.0
H1928 H 0.0501 0.47911 0.1009 0.0
H1929 H 0.02378 0.47701 0.07442 0.0
H1930 H 0.06263 0.45278 0.12903 0.0
H1931 H 0.0341 0.51823 0.12917 0.0
H1932 H 0.00659 0.54042 0.13016 0.0
H1933 H 0.99107 0.52241 0.1886 0.0
H1934 H 0.01834 0.49986 0.18783 0.0
H1935 H 0.14092 0.5039 0.19335 0.0
H1936 H 0.11456 0.49488 0.16746 0.0
H1937 H 0.07212 0.48945 0.21428 0.0
H1938 H 0.09846 0.49889 0.24043 0.0
H1939 H 0.05823 0.50975 0.18533 0.0
H1940 H 0.08775 0.44574 0.18635 0.0
H1941 H 0.11476 0.4229 0.18528 0.0
H1942 H 0.12805 0.43726 0.12506 0.0
H1943 H 0.10129 0.46044 0.12588 0.0
C1944 C 0.99564 0.4661 0.11435 0.0
C1945 C 1.00026 0.46987 0.09449 0.0
C1946 C 0.01051 0.46745 0.12947 0.0
C1947 C 0.03026 0.47264 0.12494 0.0
C1948 C 0.03498 0.47508 0.10474 0.0
C1949 C 0.02004 0.47382 0.08963 0.0
C1950 C 0.04567 0.47729 0.14153 0.0
C1951 C 0.0618 0.46535 0.14125 0.0
C1952 C 0.04435 0.49341 0.15771 0.0
C1953 C 0.02814 0.5072 0.15835 0.0
C1954 C 0.02474 0.51889 0.14217 0.0
C1955 C 0.00921 0.53156 0.1427 0.0
C1956 C 0.99706 0.53278 0.1594 0.0
C1957 C 1.00047 0.52141 0.17566 0.0
C1958 C 0.01598 0.50871 0.17519 0.0
C1959 C 0.126 0.5008 0.19823 0.0
C1960 C 0.12188 0.50207 0.21906 0.0
C1961 C 0.11092 0.4955 0.18334 0.0
C1962 C 0.09135 0.4911 0.18885 0.0
C1963 C 0.08711 0.49267 0.20962 0.0
C1964 C 0.1022 0.49807 0.22457 0.0
C1965 C 0.07534 0.48526 0.17291 0.0
C1966 C 0.05907 0.49705 0.17325 0.0
C1967 C 0.07654 0.46894 0.15683 0.0
C1968 C 0.09262 0.45498 0.15626 0.0
C1969 C 0.09653 0.44416 0.17294 0.0
C1970 C 0.11178 0.43113 0.17237 0.0
C1971 C 0.12314 0.42867 0.15513 0.0
C1972 C 0.11925 0.4392 0.13841 0.0
C1973 C 0.10403 0.45227 0.13891 0.0
H1974 H 0.13494 0.41857 0.15472 0.0
H1975 H 0.98502 0.54257 0.15977 0.0
H1976 H 0.34804 0.70295 0.25643 0.0
H1977 H 0.37195 0.69625 0.28269 0.0
H1978 H 0.35318 0.74759 0.32284 0.0
H1979 H 0.32874 0.75341 0.2968 0.0
H1980 H 0.40261 0.7182 0.29809 0.0
H1981 H 0.36047 0.74231 0.37143 0.0
H1982 H 0.32643 0.73916 0.38332 0.0
H1983 H 0.31178 0.68553 0.33907 0.0
H1984 H 0.34565 0.68832 0.32705 0.0
H1985 H 0.47215 0.74259 0.38002 0.0
H1986 H 0.4459 0.74236 0.35422 0.0
H1987 H 0.41249 0.69231 0.38007 0.0
H1988 H 0.43822 0.69338 0.40658 0.0
H1989 H 0.38846 0.71664 0.37106 0.0
H1990 H 0.43861 0.68548 0.33326 0.0
H1991 H 0.47185 0.68199 0.32024 0.0
H1992 H 0.46933 0.73803 0.29155 0.0
H1993 H 0.43617 0.74201 0.30462 0.0
C1994 C 0.34866 0.71221 0.27118 0.0
C1995 C 0.33629 0.72822 0.27501 0.0
C1996 C 0.36247 0.70863 0.28606 0.0
C1997 C 0.36432 0.72125 0.30494 0.0
C1998 C 0.35179 0.73725 0.30869 0.0
C1999 C 0.33785 0.74062 0.29388 0.0
C2000 C 0.37999 0.71848 0.32025 0.0
C2001 C 0.39948 0.71777 0.31403 0.0
C2002 C 0.37598 0.71736 0.34101 0.0
C2003 C 0.35555 0.71565 0.34823 0.0
C2004 C 0.34997 0.72983 0.36428 0.0
C2005 C 0.33068 0.72814 0.37102 0.0
C2006 C 0.31689 0.71223 0.36191 0.0
C2007 C 0.32238 0.69796 0.34606 0.0
C2008 C 0.34161 0.69961 0.33924 0.0
C2009 C 0.45923 0.73149 0.38014 0.0
C2010 C 0.45729 0.71797 0.39532 0.0
C2011 C 0.44424 0.73126 0.36528 0.0
C2012 C 0.42723 0.71705 0.36485 0.0
C2013 C 0.42537 0.70347 0.37999 0.0
C2014 C 0.44014 0.70404 0.39513 0.0
C2015 C 0.4112 0.71669 0.34899 0.0
C2016 C 0.39162 0.71692 0.35511 0.0
C2017 C 0.41504 0.71646 0.328 0.0
C2018 C 0.43498 0.71413 0.32008 0.0
C2019 C 0.4452 0.69714 0.32429 0.0
C2020 C 0.46402 0.69506 0.31689 0.0
C2021 C 0.47271 0.7098 0.30512 0.0
C2022 C 0.46259 0.72663 0.30069 0.0
C2023 C 0.44377 0.72879 0.30807 0.0
H2024 H 0.48728 0.70817 0.2994 0.0
H2025 H 0.30199 0.71093 0.36719 0.0
H2026 H 0.96013 0.42188 0.07067 0.0
H2027 H 0.96714 0.38763 0.05382 0.0
H2028 H 0.01716 0.41728 0.02583 0.0
H2029 H 0.00989 0.45153 0.04274 0.0
H2030 H 0.99271 0.39284 0.99811 0.0
H2031 H 0.02397 0.38493 0.06162 0.0
H2032 H 0.02682 0.38535 0.09886 0.0
H2033 H 0.97825 0.33767 0.09672 0.0
H2034 H 0.97489 0.33719 0.05948 0.0
H2035 H 0.02115 0.29607 0.95067 0.0
H2036 H 0.02043 0.33012 0.97076 0.0
H2037 H 0.97229 0.30494 0.00454 0.0
H2038 H 0.9732 0.27071 0.98485 0.0
H2039 H 0.99865 0.32769 0.02976 0.0
H2040 H 0.96557 0.33758 0.9671 0.0
H2041 H 0.96178 0.33753 0.92995 0.0
H2042 H 0.01297 0.38177 0.93067 0.0
H2043 H 0.01721 0.38187 0.96781 0.0
C2044 C 0.97298 0.42082 0.06146 0.0
C2045 C 0.98475 0.43903 0.05822 0.0
C2046 C 0.97696 0.40136 0.05179 0.0
C2047 C 0.99276 0.39984 0.03862 0.0
C2048 C 0.00496 0.41805 0.03597 0.0
C2049 C 1.00099 0.43751 0.04576 0.0
C2050 C 0.99538 0.3796 0.02633 0.0
C2051 C 0.99441 0.37867 0.00503 0.0
C2052 C 0.99704 0.361 0.03535 0.0
C2053 C 0.99908 0.36115 0.05775 0.0
C2054 C 0.01379 0.37465 0.0691 0.0
C2055 C 0.01551 0.37488 0.09021 0.0
C2056 C 1.0027 0.36158 0.10015 0.0
C2057 C 0.98816 0.34798 0.08899 0.0
C2058 C 0.98635 0.3477 0.06788 0.0
C2059 C 0.01028 0.29778 0.96225 0.0
C2060 C 0.9972 0.28059 0.96607 0.0
C2061 C 0.00987 0.31731 0.97373 0.0
C2062 C 0.9962 0.32019 0.9891 0.0
C2063 C 0.98302 0.30312 0.99282 0.0
C2064 C 0.9835 0.28355 0.98145 0.0
C2065 C 0.99578 0.34089 1.00151 0.0
C2066 C 0.99713 0.3419 0.02283 0.0
C2067 C 0.99437 0.35957 0.99252 0.0
C2068 C 0.99183 0.35955 0.9702 0.0
C2069 C 0.97611 0.34717 0.95931 0.0
C2070 C 0.97386 0.34716 0.93826 0.0
C2071 C 0.98716 0.35959 0.92795 0.0
C2072 C 1.0027 0.37211 0.93868 0.0
C2073 C 0.00502 0.37217 0.95973 0.0
H2074 H 0.9854 0.35956 0.91165 0.0
H2075 H 0.00406 0.36178 0.1165 0.0
H2076 H 0.69431 0.79721 0.28884 0.0
H2077 H 0.66996 0.79007 0.31451 0.0
H2078 H 0.62302 0.79026 0.26963 0.0
H2079 H 0.64758 0.79804 0.24419 0.0
H2080 H 0.61402 0.81057 0.30506 0.0
H2081 H 0.63699 0.74441 0.28352 0.0
H2082 H 0.66161 0.71934 0.27574 0.0
H2083 H 0.68244 0.72873 0.33816 0.0
H2084 H 0.65814 0.75413 0.34625 0.0
H2085 H 0.54166 0.75974 0.36561 0.0
H2086 H 0.5632 0.7695 0.33843 0.0
H2087 H 0.61373 0.77412 0.37969 0.0
H2088 H 0.59245 0.76431 0.40679 0.0
H2089 H 0.61915 0.7502 0.34424 0.0
H2090 H 0.59624 0.81762 0.36497 0.0
H2091 H 0.57108 0.84223 0.37205 0.0
H2092 H 0.54906 0.82921 0.31013 0.0
H2093 H 0.57393 0.80429 0.30276 0.0
C2094 C 0.67876 0.7958 0.28465 0.0
C2095 C 0.67263 0.79807 0.26475 0.0
C2096 C 0.66489 0.79163 0.29918 0.0
C2097 C 0.64465 0.78933 0.29391 0.0
C2098 C 0.63853 0.79193 0.27402 0.0
C2099 C 0.65246 0.79625 0.25953 0.0
C2100 C 0.62996 0.78404 0.30918 0.0
C2101 C 0.61496 0.79719 0.31342 0.0
C2102 C 0.63129 0.76671 0.32023 0.0
C2103 C 0.64584 0.75132 0.31545 0.0
C2104 C 0.64691 0.74125 0.29556 0.0
C2105 C 0.6608 0.72696 0.2911 0.0
C2106 C 0.6736 0.72248 0.30644 0.0
C2107 C 0.67252 0.73224 0.32628 0.0
C2108 C 0.65868 0.74657 0.33082 0.0
C2109 C 0.55733 0.7631 0.36896 0.0
C2110 C 0.56534 0.76116 0.38835 0.0
C2111 C 0.56961 0.7687 0.35341 0.0
C2112 C 0.59008 0.77252 0.35704 0.0
C2113 C 0.598 0.77114 0.37653 0.0
C2114 C 0.58577 0.76559 0.39203 0.0
C2115 C 0.60347 0.77696 0.34041 0.0
C2116 C 0.61818 0.76355 0.33583 0.0
C2117 C 0.60173 0.79393 0.32896 0.0
C2118 C 0.58681 0.80893 0.33337 0.0
C2119 C 0.58592 0.81987 0.35291 0.0
C2120 C 0.57174 0.8339 0.35697 0.0
C2121 C 0.55844 0.83724 0.34157 0.0
C2122 C 0.55934 0.82658 0.32206 0.0
C2123 C 0.57349 0.81252 0.31793 0.0
H2124 H 0.54747 0.84811 0.34473 0.0
H2125 H 0.68434 0.71141 0.30295 0.0
H2126 H 0.00767 0.01341 0.9959 0.0
H2127 H 0.00905 0.04127 0.97384 0.0
H2128 H 0.06623 0.06557 1.00039 0.0
H2129 H 0.06423 0.03802 0.02316 0.0
H2130 H 0.04405 0.09525 0.00252 0.0
H2131 H 0.05865 0.04541 0.94839 0.0
H2132 H 0.0555 0.01195 0.92601 0.0
H2133 H 0.9976 0.02343 0.90606 0.0
H2134 H 1.00027 0.05682 0.92855 0.0
H2135 H 0.03803 0.15886 0.9101 0.0
H2136 H 0.04325 0.12576 0.92288 0.0
H2137 H 0.00437 0.13996 0.97194 0.0
H2138 H 0.99965 0.17344 0.95965 0.0
H2139 H 0.02298 0.09126 0.92982 0.0
H2140 H 0.0211 0.12458 0.01501 0.0
H2141 H 0.02801 0.15844 0.03649 0.0
H2142 H 0.06791 0.18029 0.99259 0.0
H2143 H 0.06144 0.14647 0.97099 0.0
C2144 C 0.02076 0.02436 0.99649 0.0
C2145 C 0.03581 0.02373 0.01116 0.0
C2146 C 0.02162 0.04025 0.98385 0.0
C2147 C 0.03776 0.05562 0.98537 0.0
C2148 C 0.05358 0.05396 0.99896 0.0
C2149 C 0.05259 0.03812 0.01178 0.0
C2150 C 0.03682 0.07468 0.97481 0.0
C2151 C 0.03962 0.09431 0.98657 0.0
C2152 C 0.03131 0.07364 0.95391 0.0
C2153 C 0.02963 0.05359 0.94027 0.0
C2154 C 0.04519 0.04074 0.93934 0.0
C2155 C 0.04349 0.02179 0.92661 0.0
C2156 C 0.02635 0.01555 0.91464 0.0
C2157 C 0.01087 0.02828 0.91535 0.0
C2158 C 0.01248 0.04724 0.92806 0.0
C2159 C 0.03035 0.15482 0.92345 0.0
C2160 C 0.01857 0.16891 0.93398 0.0
C2161 C 0.03336 0.13585 0.93074 0.0
C2162 C 0.02458 0.13055 0.94865 0.0
C2163 C 0.01172 0.14394 0.95838 0.0
C2164 C 0.0089 0.16303 0.95124 0.0
C2165 C 0.02966 0.11161 0.95773 0.0
C2166 C 0.0276 0.0921 0.94571 0.0
C2167 C 0.03642 0.11277 0.97826 0.0
C2168 C 0.04064 0.13305 0.99131 0.0
C2169 C 0.03142 0.13658 0.00999 0.0
C2170 C 0.03524 0.15577 0.02218 0.0
C2171 C 0.04835 0.17152 0.01588 0.0
C2172 C 0.05771 0.16809 0.99742 0.0
C2173 C 0.05396 0.14893 0.9852 0.0
H2174 H 0.05127 0.18637 0.02532 0.0
H2175 H 0.02506 1.00087 0.9048 0.0
H2176 H 0.35695 0.31484 0.30537 0.0
H2177 H 0.38582 0.31025 0.2844 0.0
H2178 H 0.35281 0.25876 0.2472 0.0
H2179 H 0.3243 0.26312 0.26872 0.0
H2180 H 0.39013 0.25139 0.24957 0.0
H2181 H 0.35584 0.31028 0.23438 0.0
H2182 H 0.342 0.34408 0.24229 0.0
H2183 H 0.3992 0.3734 0.26293 0.0
H2184 H 0.41337 0.33975 0.25513 0.0
H2185 H 0.42637 0.25526 0.1517 0.0
H2186 H 0.40701 0.25781 0.18209 0.0
H2187 H 0.45151 0.30332 0.21255 0.0
H2188 H 0.47127 0.30081 0.18187 0.0
H2189 H 0.41303 0.31466 0.21742 0.0
H2190 H 0.44769 0.25542 0.2262 0.0
H2191 H 0.46038 0.22144 0.21598 0.0
H2192 H 0.40124 0.19222 0.20576 0.0
H2193 H 0.38819 0.22609 0.21563 0.0
C2194 C 0.35629 0.30205 0.2932 0.0
C2195 C 0.33868 0.2891 0.28873 0.0
C2196 C 0.37261 0.2996 0.28103 0.0
C2197 C 0.37139 0.28447 0.26387 0.0
C2198 C 0.35417 0.27058 0.26029 0.0
C2199 C 0.33793 0.27292 0.27262 0.0
C2200 C 0.38724 0.28416 0.2487 0.0
C2201 C 0.39508 0.26521 0.24251 0.0
C2202 C 0.3941 0.30228 0.2397 0.0
C2203 C 0.38561 0.32249 0.24439 0.0
C2204 C 0.36543 0.32392 0.24072 0.0
C2205 C 0.35754 0.34305 0.24515 0.0
C2206 C 0.36969 0.36085 0.25322 0.0
C2207 C 0.38979 0.35959 0.25674 0.0
C2208 C 0.39777 0.34051 0.25227 0.0
C2209 C 0.43216 0.26586 0.16481 0.0
C2210 C 0.45045 0.27783 0.1643 0.0
C2211 C 0.42106 0.26718 0.18227 0.0
C2212 C 0.4279 0.28052 0.19973 0.0
C2213 C 0.44601 0.29281 0.19928 0.0
C2214 C 0.45728 0.29136 0.18176 0.0
C2215 C 0.41564 0.28182 0.21808 0.0
C2216 C 0.40841 0.30094 0.22479 0.0
C2217 C 0.40918 0.26381 0.22737 0.0
C2218 C 0.41697 0.24335 0.22155 0.0
C2219 C 0.43739 0.24178 0.22164 0.0
C2220 C 0.44465 0.22253 0.21593 0.0
C2221 C 0.43163 0.20469 0.21019 0.0
C2222 C 0.41131 0.20605 0.2102 0.0
C2223 C 0.40397 0.22527 0.21588 0.0
H2224 H 0.43727 0.18979 0.20577 0.0
H2225 H 0.36354 0.37563 0.25667 0.0
H2226 H 0.53464 0.4951 0.04439 0.0
H2227 H 0.53433 0.46624 0.06541 0.0
H2228 H 0.57718 0.43802 0.02703 0.0
H2229 H 0.57704 0.4668 0.00581 0.0
H2230 H 0.54574 0.41144 0.0292 0.0
H2231 H 0.58749 0.45609 0.07807 0.0
H2232 H 0.59825 0.48818 0.10099 0.0
H2233 H 0.5458 0.47989 0.13491 0.0
H2234 H 0.53457 0.4479 0.11201 0.0
H2235 H 0.5562 0.32488 0.08019 0.0
H2236 H 0.56441 0.35971 0.07043 0.0
H2237 H 0.51359 0.38115 0.10072 0.0
H2238 H 0.50506 0.34592 0.11063 0.0
H2239 H 0.54943 0.41157 0.10418 0.0
H2240 H 0.50711 0.3682 0.05384 0.0
H2241 H 0.4966 0.336 0.03095 0.0
H2242 H 0.55085 0.34244 0.99966 0.0
H2243 H 0.56182 0.37452 0.02259 0.0
C2244 C 0.54449 0.48307 0.04098 0.0
C2245 C 0.55589 0.48307 0.0236 0.0
C2246 C 0.54432 0.46658 0.05295 0.0
C2247 C 0.5557 0.44985 0.04783 0.0
C2248 C 0.56824 0.45071 0.0313 0.0
C2249 C 0.56837 0.46722 0.01931 0.0
C2250 C 0.55256 0.43039 0.05792 0.0
C2251 C 0.54695 0.4115 0.04558 0.0
C2252 C 0.55339 0.43046 0.07936 0.0
C2253 C 0.5601 0.44968 0.09319 0.0
C2254 C 0.57816 0.4612 0.09031 0.0
C2255 C 0.58437 0.47936 0.10332 0.0
C2256 C 0.5727 0.4861 0.11937 0.0
C2257 C 0.55482 0.47466 0.12246 0.0
C2258 C 0.54853 0.4565 0.10948 0.0
C2259 C 0.54685 0.337 0.08511 0.0
C2260 C 0.52975 0.33245 0.09595 0.0
C2261 C 0.55164 0.35697 0.07953 0.0
C2262 C 0.53948 0.37294 0.0846 0.0
C2263 C 0.52316 0.369 0.09665 0.0
C2264 C 0.5183 0.34887 0.10228 0.0
C2265 C 0.54288 0.39284 0.07537 0.0
C2266 C 0.54839 0.41168 0.08782 0.0
C2267 C 0.54198 0.39284 0.05399 0.0
C2268 C 0.53537 0.37364 0.04007 0.0
C2269 C 0.51687 0.36265 0.0422 0.0
C2270 C 0.51082 0.34444 0.02919 0.0
C2271 C 0.52307 0.33715 0.0139 0.0
C2272 C 0.54138 0.34809 0.01154 0.0
C2273 C 0.54752 0.36629 0.02452 0.0
H2274 H 0.51836 0.32305 0.00384 0.0
H2275 H 0.57753 0.50016 0.12943 0.0
H2276 H 0.68636 0.21083 0.22752 0.0
H2277 H 0.66027 0.21999 0.20489 0.0
H2278 H 0.61805 0.2118 0.25156 0.0
H2279 H 0.64422 0.20225 0.27394 0.0
H2280 H 0.60223 0.1965 0.21421 0.0
H2281 H 0.63766 0.25972 0.24513 0.0
H2282 H 0.66711 0.28408 0.25555 0.0
H2283 H 0.6805 0.28744 0.19289 0.0
H2284 H 0.65131 0.26277 0.18208 0.0
H2285 H 0.53134 0.25248 0.16671 0.0
H2286 H 0.55463 0.24292 0.19205 0.0
H2287 H 0.60093 0.24586 0.14895 0.0
H2288 H 0.57795 0.25539 0.12367 0.0
H2289 H 0.61308 0.26498 0.18707 0.0
H2290 H 0.57819 0.19957 0.15684 0.0
H2291 H 0.54852 0.17526 0.14716 0.0
H2292 H 0.53345 0.17701 0.20991 0.0
H2293 H 0.56292 0.20158 0.21993 0.0
C2294 C 0.6714 0.2106 0.23264 0.0
C2295 C 0.66708 0.20575 0.25224 0.0
C2296 C 0.65657 0.21598 0.21988 0.0
C2297 C 0.63726 0.21686 0.22666 0.0
C2298 C 0.63282 0.21124 0.24603 0.0
C2299 C 0.64767 0.20581 0.25876 0.0
C2300 C 0.62197 0.22452 0.21387 0.0
C2301 C 0.60448 0.2116 0.20851 0.0
C2302 C 0.62493 0.2442 0.20637 0.0
C2303 C 0.64238 0.25924 0.21279 0.0
C2304 C 0.64696 0.26553 0.23357 0.0
C2305 C 0.6636 0.27941 0.23955 0.0
C2306 C 0.67569 0.28728 0.22489 0.0
C2307 C 0.67113 0.28132 0.20422 0.0
C2308 C 0.65453 0.26739 0.19816 0.0
C2309 C 0.54651 0.25123 0.16268 0.0
C2310 C 0.55273 0.25459 0.1431 0.0
C2311 C 0.55977 0.24568 0.17715 0.0
C2312 C 0.57947 0.24352 0.17231 0.0
C2313 C 0.5858 0.24742 0.153 0.0
C2314 C 0.57258 0.25279 0.13853 0.0
C2315 C 0.59354 0.23679 0.18708 0.0
C2316 C 0.6108 0.24994 0.19288 0.0
C2317 C 0.59028 0.21743 0.19511 0.0
C2318 C 0.57263 0.20259 0.1891 0.0
C2319 C 0.56846 0.1949 0.16855 0.0
C2320 C 0.5517 0.18105 0.16301 0.0
C2321 C 0.53907 0.17464 0.1779 0.0
C2322 C 0.54322 0.18202 0.19839 0.0
C2323 C 0.55996 0.1959 0.20401 0.0
H2324 H 0.5261 0.16392 0.17358 0.0
H2325 H 0.68856 0.29803 0.22955 0.0
H2326 H 0.49494 0.04792 0.00369 0.0
H2327 H 0.50519 0.08273 0.02186 0.0
H2328 H 0.46622 0.10995 0.98226 0.0
H2329 H 0.45702 0.07523 0.96355 0.0
H2330 H 0.49546 0.13722 0.99258 0.0
H2331 H 0.45149 0.09433 0.02987 0.0
H2332 H 0.44014 0.06328 0.04648 0.0
H2333 H 0.49194 0.07308 0.08584 0.0
H2334 H 0.50358 0.10423 0.06946 0.0
H2335 H 0.46543 0.20378 0.09139 0.0
H2336 H 0.46485 0.17065 0.06953 0.0
H2337 H 0.52056 0.19153 0.04538 0.0
H2338 H 0.52063 0.2251 0.06647 0.0
H2339 H 0.48509 0.14022 0.06674 0.0
H2340 H 0.52511 0.1688 0.99735 0.0
H2341 H 0.53005 0.20069 0.98011 0.0
H2342 H 0.47579 0.22071 0.00317 0.0
H2343 H 0.47041 0.18883 0.02034 0.0
C2344 C 0.48932 0.06156 0.99846 0.0
C2345 C 0.47547 0.0592 0.9822 0.0
C2346 C 0.49489 0.08136 0.00897 0.0
C2347 C 0.48608 0.09896 0.00381 0.0
C2348 C 0.47323 0.09669 0.9866 0.0
C2349 C 0.46802 0.07694 0.97585 0.0
C2350 C 0.48866 0.11917 0.01735 0.0
C2351 C 0.49333 0.13786 0.00881 0.0
C2352 C 0.48539 0.12019 0.0385 0.0
C2353 C 0.4785 0.10144 0.04831 0.0
C2354 C 0.46051 0.08978 0.04199 0.0
C2355 C 0.45401 0.0722 0.05138 0.0
C2356 C 0.46537 0.06614 0.06712 0.0
C2357 C 0.48319 0.07775 0.0736 0.0
C2358 C 0.48972 0.0954 0.06431 0.0
C2359 C 0.47756 0.20132 0.08142 0.0
C2360 C 0.49299 0.21717 0.08055 0.0
C2361 C 0.47725 0.18232 0.06893 0.0
C2362 C 0.49252 0.17857 0.05551 0.0
C2363 C 0.50831 0.19416 0.05515 0.0
C2364 C 0.5084 0.21337 0.06733 0.0
C2365 C 0.49173 0.15838 0.04197 0.0
C2366 C 0.48745 0.13964 0.05054 0.0
C2367 C 0.49451 0.15744 0.02073 0.0
C2368 C 0.4975 0.17656 0.01031 0.0
C2369 C 0.51421 0.17999 0.99869 0.0
C2370 C 0.51709 0.19806 0.98894 0.0
C2371 C 0.50328 0.21275 0.99061 0.0
C2372 C 0.48652 0.20936 0.00196 0.0
C2373 C 0.48356 0.19131 0.01172 0.0
H2374 H 0.50554 0.22674 0.98306 0.0
H2375 H 0.46033 0.0525 0.07434 0.0
H2376 H 0.25845 0.31175 0.7553 0.0
H2377 H 0.28601 0.33917 0.75599 0.0
H2378 H 0.24991 0.37548 0.7221 0.0
H2379 H 0.22278 0.34735 0.72063 0.0
H2380 H 0.28653 0.38179 0.71133 0.0
H2381 H 0.25437 0.38325 0.77458 0.0
H2382 H 0.24082 0.36882 0.80478 0.0
H2383 H 0.29858 0.35558 0.82338 0.0
H2384 H 0.31246 0.36966 0.7931 0.0
H2385 H 0.33893 0.48146 0.75015 0.0
H2386 H 0.31255 0.45257 0.74459 0.0
H2387 H 0.35283 0.40969 0.76194 0.0
H2388 H 0.37934 0.43826 0.76706 0.0
H2389 H 0.31365 0.40783 0.78084 0.0
H2390 H 0.34482 0.40729 0.71569 0.0
H2391 H 0.35674 0.42354 0.68577 0.0
H2392 H 0.29817 0.43798 0.67171 0.0
H2393 H 0.28596 0.42209 0.70176 0.0
C2394 C 0.2568 0.3253 0.74742 0.0
C2395 C 0.23883 0.32753 0.73767 0.0
C2396 C 0.27236 0.34106 0.74801 0.0
C2397 C 0.26988 0.35966 0.73952 0.0
C2398 C 0.25218 0.36134 0.7288 0.0
C2399 C 0.23675 0.34534 0.72789 0.0
C2400 C 0.28511 0.37786 0.74318 0.0
C2401 C 0.29228 0.38759 0.72656 0.0
C2402 C 0.29267 0.38553 0.76306 0.0
C2403 C 0.28443 0.37735 0.78147 0.0
C2404 C 0.26418 0.37716 0.78505 0.0
C2405 C 0.25643 0.36904 0.80218 0.0
C2406 C 0.26882 0.36124 0.81597 0.0
C2407 C 0.289 0.3616 0.81268 0.0
C2408 C 0.29682 0.36967 0.79554 0.0
C2409 C 0.34212 0.4659 0.7529 0.0
C2410 C 0.36121 0.46211 0.759 0.0
C2411 C 0.32708 0.44944 0.74964 0.0
C2412 C 0.33083 0.42904 0.75278 0.0
C2413 C 0.3497 0.42533 0.75941 0.0
C2414 C 0.36481 0.44166 0.76227 0.0
C2415 C 0.31515 0.41145 0.749 0.0
C2416 C 0.30785 0.40195 0.76564 0.0
C2417 C 0.30722 0.4043 0.72923 0.0
C2418 C 0.31452 0.41372 0.7111 0.0
C2419 C 0.33452 0.41411 0.70634 0.0
C2420 C 0.34132 0.42322 0.68933 0.0
C2421 C 0.32824 0.43184 0.67688 0.0
C2422 C 0.3083 0.43132 0.68139 0.0
C2423 C 0.30143 0.42226 0.69839 0.0
H2424 H 0.33353 0.43888 0.66372 0.0
H2425 H 0.2628 0.35494 0.82922 0.0
H2426 H 0.2409 0.69672 0.76727 0.0
H2427 H 0.26805 0.67485 0.77016 0.0
H2428 H 0.23628 0.64245 0.8147 0.0
H2429 H 0.20941 0.66511 0.81222 0.0
H2430 H 0.27522 0.646 0.82364 0.0
H2431 H 0.23414 0.62198 0.76476 0.0
H2432 H 0.21565 0.62527 0.73302 0.0
H2433 H 0.26947 0.64473 0.70521 0.0
H2434 H 0.28827 0.64184 0.73689 0.0
H2435 H 0.3336 0.55754 0.80075 0.0
H2436 H 0.3059 0.57905 0.80628 0.0
H2437 H 0.33255 0.62286 0.76811 0.0
H2438 H 0.36007 0.60178 0.76264 0.0
H2439 H 0.29338 0.60991 0.75745 0.0
H2440 H 0.33386 0.63511 0.81813 0.0
H2441 H 0.35143 0.63128 0.85027 0.0
H2442 H 0.29727 0.60749 0.8748 0.0
H2443 H 0.27942 0.61089 0.84267 0.0
C2444 C 0.24002 0.68517 0.77792 0.0
C2445 C 0.22321 0.68233 0.78941 0.0
C2446 C 0.25539 0.67262 0.77952 0.0
C2447 C 0.25398 0.65659 0.79223 0.0
C2448 C 0.23764 0.65459 0.80467 0.0
C2449 C 0.22235 0.66745 0.80328 0.0
C2450 C 0.26889 0.64116 0.7913 0.0
C2451 C 0.27899 0.63785 0.80922 0.0
C2452 C 0.27381 0.63045 0.77249 0.0
C2453 C 0.2626 0.63181 0.75325 0.0
C2454 C 0.24203 0.62705 0.75191 0.0
C2455 C 0.23149 0.62884 0.73393 0.0
C2456 C 0.24138 0.63525 0.71712 0.0
C2457 C 0.26183 0.63979 0.71824 0.0
C2458 C 0.27244 0.63804 0.7362 0.0
C2459 C 0.33359 0.57183 0.79367 0.0
C2460 C 0.34904 0.57789 0.7812 0.0
C2461 C 0.3178 0.58413 0.79688 0.0
C2462 C 0.31718 0.60256 0.78759 0.0
C2463 C 0.33269 0.60868 0.77538 0.0
C2464 C 0.34846 0.59658 0.77231 0.0
C2465 C 0.30014 0.61524 0.78967 0.0
C2466 C 0.2895 0.61791 0.77191 0.0
C2467 C 0.29461 0.62507 0.80863 0.0
C2468 C 0.30536 0.62299 0.8279 0.0
C2469 C 0.32574 0.62885 0.8303 0.0
C2470 C 0.33574 0.62681 0.84853 0.0
C2471 C 0.32549 0.61907 0.86454 0.0
C2472 C 0.3052 0.61343 0.86237 0.0
C2473 C 0.29514 0.61542 0.84415 0.0
H2474 H 0.33326 0.61751 0.87865 0.0
H2475 H 0.23318 0.63666 0.70323 0.0
H2476 H 0.9366 0.49019 0.50044 0.0
H2477 H 0.90795 0.46672 0.50812 0.0
H2478 H 0.87551 0.48425 0.45705 0.0
H2479 H 0.90446 0.50748 0.44921 0.0
H2480 H 0.85483 0.48426 0.49644 0.0
H2481 H 0.89023 0.44073 0.44915 0.0
H2482 H 0.91987 0.42543 0.43614 0.0
H2483 H 0.92653 0.39707 0.49115 0.0
H2484 H 0.89711 0.41252 0.50465 0.0
H2485 H 0.77644 0.40248 0.50056 0.0
H2486 H 0.80174 0.42846 0.49047 0.0
H2487 H 0.84553 0.40299 0.52596 0.0
H2488 H 0.82056 0.37658 0.53527 0.0
H2489 H 0.85935 0.40769 0.49127 0.0
H2490 H 0.82636 0.452 0.54007 0.0
H2491 H 0.79811 0.46838 0.55525 0.0
H2492 H 0.78801 0.49601 0.50042 0.0
H2493 H 0.81606 0.47957 0.48482 0.0
C2494 C 0.92332 0.4889 0.49092 0.0
C2495 C 0.92254 0.50038 0.47425 0.0
C2496 C 0.90703 0.47561 0.49528 0.0
C2497 C 0.88966 0.4738 0.48313 0.0
C2498 C 0.88878 0.48551 0.46659 0.0
C2499 C 0.90523 0.49859 0.46206 0.0
C2500 C 0.87268 0.45925 0.4876 0.0
C2501 C 0.8556 0.46747 0.49503 0.0
C2502 C 0.874 0.43746 0.48617 0.0
C2503 C 0.89156 0.42794 0.47798 0.0
C2504 C 0.89811 0.43138 0.45855 0.0
C2505 C 0.91486 0.42265 0.45107 0.0
C2506 C 0.9251 0.41032 0.46282 0.0
C2507 C 0.91859 0.40664 0.48207 0.0
C2508 C 0.90187 0.41537 0.48963 0.0
C2509 C 0.79143 0.40264 0.50639 0.0
C2510 C 0.79655 0.38746 0.51863 0.0
C2511 C 0.80588 0.41753 0.50066 0.0
C2512 C 0.8256 0.41779 0.5075 0.0
C2513 C 0.8305 0.40305 0.52032 0.0
C2514 C 0.81618 0.38798 0.5257 0.0
C2515 C 0.84142 0.43262 0.50064 0.0
C2516 C 0.85836 0.42444 0.49265 0.0
C2517 C 0.84004 0.45447 0.50185 0.0
C2518 C 0.82317 0.46435 0.5112 0.0
C2519 C 0.81801 0.46143 0.53119 0.0
C2520 C 0.80206 0.47075 0.53988 0.0
C2521 C 0.79123 0.48318 0.52878 0.0
C2522 C 0.79638 0.48635 0.50899 0.0
C2523 C 0.81231 0.47705 0.50022 0.0
H2524 H 0.77888 0.49039 0.53554 0.0
H2525 H 0.93807 0.40358 0.45701 0.0
H2526 H 0.78485 0.8394 0.82836 0.0
H2527 H 0.75978 0.86351 0.82377 0.0
H2528 H 0.74998 0.8364 0.7613 0.0
H2529 H 0.77444 0.81174 0.76615 0.0
H2530 H 0.75708 0.88146 0.76774 0.0
H2531 H 0.71662 0.82489 0.79236 0.0
H2532 H 0.70785 0.79976 0.81679 0.0
H2533 H 0.70331 0.85053 0.86381 0.0
H2534 H 0.71237 0.87598 0.83972 0.0
H2535 H 0.6809 0.93771 0.74132 0.0
H2536 H 0.69781 0.90708 0.74694 0.0
H2537 H 0.69633 0.92392 0.81186 0.0
H2538 H 0.67837 0.95398 0.80622 0.0
H2539 H 0.69468 0.88331 0.80465 0.0
H2540 H 0.73659 0.93967 0.7835 0.0
H2541 H 0.74761 0.96669 0.7617 0.0
H2542 H 0.75243 0.91914 0.71162 0.0
H2543 H 0.74117 0.89183 0.73307 0.0
C2544 C 0.7771 0.83843 0.81378 0.0
C2545 C 0.78156 0.82379 0.79759 0.0
C2546 C 0.76285 0.85219 0.81115 0.0
C2547 C 0.753 0.85166 0.79221 0.0
C2548 C 0.75745 0.83706 0.77602 0.0
C2549 C 0.77147 0.8231 0.77874 0.0
C2550 C 0.73862 0.8669 0.78903 0.0
C2551 C 0.74328 0.88167 0.77553 0.0
C2552 C 0.72101 0.86763 0.79984 0.0
C2553 C 0.71536 0.85234 0.81428 0.0
C2554 C 0.71392 0.8307 0.80795 0.0
C2555 C 0.70886 0.81639 0.82173 0.0
C2556 C 0.70507 0.82354 0.84185 0.0
C2557 C 0.70627 0.84502 0.84822 0.0
C2558 C 0.71135 0.85939 0.8345 0.0
C2559 C 0.68366 0.93449 0.75678 0.0
C2560 C 0.67845 0.94824 0.77334 0.0
C2561 C 0.69349 0.9171 0.76 0.0
C2562 C 0.69899 0.91357 0.77982 0.0
C2563 C 0.69243 0.92638 0.79642 0.0
C2564 C 0.68211 0.94353 0.79319 0.0
C2565 C 0.71299 0.89781 0.78308 0.0
C2566 C 0.70839 0.88305 0.79669 0.0
C2567 C 0.73096 0.89736 0.77274 0.0
C2568 C 0.73785 0.91373 0.75983 0.0
C2569 C 0.73988 0.93499 0.7678 0.0
C2570 C 0.74618 0.95035 0.75551 0.0
C2571 C 0.75066 0.94464 0.73527 0.0
C2572 C 0.74892 0.92354 0.7273 0.0
C2573 C 0.74259 0.90811 0.73951 0.0
H2574 H 0.75554 0.95657 0.72578 0.0
H2575 H 0.70116 0.81244 0.8525 0.0
H2576 H 0.57971 0.53183 0.03374 0.0
H2577 H 0.61312 0.55024 0.038 0.0
H2578 H 0.62876 0.51749 0.98107 0.0
H2579 H 0.59541 0.49936 0.97691 0.0
H2580 H 0.6527 0.54154 0.03845 0.0
H2581 H 0.64987 0.54965 0.95402 0.0
H2582 H 0.6262 0.55158 0.92563 0.0
H2583 H 0.58635 0.57932 0.96752 0.0
H2584 H 0.60961 0.57707 0.99618 0.0
H2585 H 0.74418 0.59973 0.01585 0.0
H2586 H 0.71627 0.57264 0.01501 0.0
H2587 H 0.67594 0.61921 0.00888 0.0
H2588 H 0.70344 0.64608 0.00939 0.0
H2589 H 0.66575 0.58588 0.98288 0.0
H2590 H 0.6842 0.59947 0.05452 0.0
H2591 H 0.70698 0.60156 0.08435 0.0
H2592 H 0.71419 0.53616 0.07103 0.0
H2593 H 0.69165 0.53376 0.04096 0.0
C2594 C 0.59062 0.528 0.02266 0.0
C2595 C 0.58517 0.5142 0.00507 0.0
C2596 C 0.60962 0.5386 0.02497 0.0
C2597 C 0.62335 0.53555 0.00965 0.0
C2598 C 0.61837 0.52033 0.99295 0.0
C2599 C 0.59943 0.50982 0.99067 0.0
C2600 C 0.64188 0.54979 0.00991 0.0
C2601 C 0.65565 0.55113 0.02624 0.0
C2602 C 0.64573 0.5625 0.99413 0.0
C2603 C 0.63135 0.56302 0.97717 0.0
C2604 C 0.63599 0.55602 0.95714 0.0
C2605 C 0.62263 0.55712 0.94103 0.0
C2606 C 0.60474 0.56548 0.94479 0.0
C2607 C 0.60017 0.57274 0.96465 0.0
C2608 C 0.61334 0.57139 0.98085 0.0
C2609 C 0.72936 0.60417 0.01424 0.0
C2610 C 0.72614 0.62515 0.01264 0.0
C2611 C 0.71341 0.58868 0.0139 0.0
C2612 C 0.69395 0.59388 0.01202 0.0
C2613 C 0.69078 0.61475 0.01029 0.0
C2614 C 0.70661 0.63015 0.01061 0.0
C2615 C 0.67668 0.57781 0.01145 0.0
C2616 C 0.66307 0.57608 0.99498 0.0
C2617 C 0.67296 0.56506 0.02727 0.0
C2618 C 0.68642 0.56649 0.04538 0.0
C2619 C 0.69077 0.58558 0.05787 0.0
C2620 C 0.70361 0.58681 0.07483 0.0
C2621 C 0.71207 0.56902 0.07955 0.0
C2622 C 0.70766 0.54994 0.06734 0.0
C2623 C 0.69484 0.54863 0.05035 0.0
H2624 H 0.72201 0.57 0.09269 0.0
H2625 H 0.59445 0.5664 0.9323 0.0
H2626 H 0.27117 0.72833 0.27222 0.0
H2627 H 0.2479 0.69846 0.2777 0.0
H2628 H 0.29139 0.65648 0.2589 0.0
H2629 H 0.31412 0.68646 0.25229 0.0
H2630 H 0.25868 0.64486 0.23829 0.0
H2631 H 0.27381 0.66463 0.31034 0.0
H2632 H 0.2771 0.68851 0.34238 0.0
H2633 H 0.21633 0.69959 0.33676 0.0
H2634 H 0.2126 0.6758 0.30469 0.0
H2635 H 0.20719 0.55074 0.26058 0.0
H2636 H 0.22989 0.58165 0.25813 0.0
H2637 H 0.18454 0.62124 0.27691 0.0
H2638 H 0.16179 0.59015 0.28002 0.0
H2639 H 0.2172 0.63476 0.29752 0.0
H2640 H 0.20098 0.61584 0.22703 0.0
H2641 H 0.19597 0.59257 0.19472 0.0
H2642 H 0.25705 0.58161 0.19622 0.0
H2643 H 0.26237 0.60459 0.22869 0.0
C2644 C 0.27585 0.71271 0.26983 0.0
C2645 C 0.29442 0.70961 0.26202 0.0
C2646 C 0.2626 0.69564 0.27303 0.0
C2647 C 0.26786 0.67512 0.26884 0.0
C2648 C 0.28696 0.67214 0.26227 0.0
C2649 C 0.3001 0.68924 0.25881 0.0
C2650 C 0.25287 0.65683 0.2691 0.0
C2651 C 0.24988 0.64246 0.25142 0.0
C2652 C 0.24065 0.65418 0.2858 0.0
C2653 C 0.24298 0.66856 0.30503 0.0
C2654 C 0.26118 0.67227 0.31586 0.0
C2655 C 0.26312 0.68577 0.33403 0.0
C2656 C 0.247 0.69564 0.34153 0.0
C2657 C 0.22883 0.69196 0.33092 0.0
C2658 C 0.22677 0.67843 0.31278 0.0
C2659 C 0.20187 0.56599 0.26384 0.0
C2660 C 0.18262 0.56796 0.27042 0.0
C2661 C 0.21491 0.58371 0.26239 0.0
C2662 C 0.20893 0.60385 0.26715 0.0
C2663 C 0.18952 0.60588 0.27317 0.0
C2664 C 0.17648 0.5881 0.27481 0.0
C2665 C 0.2233 0.62264 0.26687 0.0
C2666 C 0.22607 0.63714 0.28445 0.0
C2667 C 0.23516 0.62559 0.24998 0.0
C2668 C 0.23203 0.61181 0.2304 0.0
C2669 C 0.21331 0.60835 0.22055 0.0
C2670 C 0.21042 0.59523 0.20219 0.0
C2671 C 0.22617 0.58558 0.19345 0.0
C2672 C 0.24486 0.58908 0.20302 0.0
C2673 C 0.24783 0.60217 0.22139 0.0
H2674 H 0.2239 0.57543 0.17923 0.0
H2675 H 0.24857 0.70609 0.3556 0.0
H2676 H 0.92111 0.47828 0.06103 0.0
H2677 H 0.89739 0.50186 0.05099 0.0
H2678 H 0.94509 0.54994 0.04692 0.0
H2679 H 0.9687 0.52628 0.05709 0.0
H2680 H 0.91485 0.56586 0.06595 0.0
H2681 H 0.923 0.52093 0.00436 0.0
H2682 H 0.92331 0.48703 0.98312 0.0
H2683 H 0.86193 0.47226 0.99339 0.0
H2684 H 0.86134 0.50594 0.01498 0.0
H2685 H 0.86616 0.63471 0.01281 0.0
H2686 H 0.88815 0.60869 0.02011 0.0
H2687 H 0.83808 0.56416 0.02629 0.0
H2688 H 0.81583 0.59017 0.01879 0.0
H2689 H 0.86846 0.54574 0.00651 0.0
H2690 H 0.86035 0.59061 0.06801 0.0
H2691 H 0.8601 0.62435 0.08953 0.0
H2692 H 0.92153 0.63906 0.07949 0.0
H2693 H 0.92208 0.60551 0.05765 0.0
C2694 C 0.92641 0.49389 0.05793 0.0
C2695 C 0.94661 0.50058 0.05977 0.0
C2696 C 0.91293 0.50732 0.05216 0.0
C2697 C 0.91947 0.52761 0.04794 0.0
C2698 C 0.93969 0.53437 0.05008 0.0
C2699 C 0.95314 0.52094 0.0559 0.0
C2700 C 0.90528 0.54187 0.04146 0.0
C2701 C 0.9049 0.56155 0.05278 0.0
C2702 C 0.8919 0.53604 0.02461 0.0
C2703 C 0.89217 0.51588 0.01145 0.0
C2704 C 0.9096 0.51039 0.00221 0.0
C2705 C 0.90983 0.49122 0.99009 0.0
C2706 C 0.89266 0.47748 0.98694 0.0
C2707 C 0.87522 0.48291 0.99586 0.0
C2708 C 0.87493 0.50204 0.00804 0.0
C2709 C 0.85976 0.61932 0.01547 0.0
C2710 C 0.8392 0.61461 0.01542 0.0
C2711 C 0.87238 0.60447 0.01971 0.0
C2712 C 0.86476 0.58462 0.02413 0.0
C2713 C 0.84427 0.57943 0.02303 0.0
C2714 C 0.83158 0.59432 0.01875 0.0
C2715 C 0.87823 0.56978 0.03087 0.0
C2716 C 0.87842 0.55001 0.01966 0.0
C2717 C 0.89147 0.57548 0.04784 0.0
C2718 C 0.89121 0.59563 0.06104 0.0
C2719 C 0.87377 0.60111 0.07026 0.0
C2720 C 0.87358 0.62019 0.08254 0.0
C2721 C 0.89077 0.63387 0.08583 0.0
C2722 C 0.90821 0.62846 0.0769 0.0
C2723 C 0.90848 0.60941 0.06458 0.0
H2724 H 0.8906 0.64863 0.09535 0.0
H2725 H 0.89286 0.46264 0.97756 0.0
H2726 H 0.08026 0.0066 0.05018 0.0
H2727 H 0.10935 0.98921 0.03932 0.0
H2728 H 0.07554 0.95563 0.98784 0.0
H2729 H 0.0465 0.97336 0.99878 0.0
H2730 H 0.09268 0.92979 0.01211 0.0
H2731 H 0.11314 0.98993 0.9796 0.0
H2732 H 0.12049 0.0276 0.97706 0.0
H2733 H 0.16565 0.03175 0.02405 0.0
H2734 H 0.15835 0.99415 0.02713 0.0
H2735 H 0.17165 0.872 0.98259 0.0
H2736 H 0.14627 0.89602 0.98071 0.0
H2737 H 0.17653 0.93833 0.02912 0.0
H2738 H 0.20228 0.91462 0.03071 0.0
H2739 H 0.16083 0.96012 0.00215 0.0
H2740 H 0.13777 0.90285 0.03848 0.0
H2741 H 0.12995 0.86583 0.04368 0.0
H2742 H 0.08927 0.85717 0.99222 0.0
H2743 H 0.09706 0.8941 0.98655 0.0
C2744 C 0.07938 0.99607 0.03616 0.0
C2745 C 0.06141 0.99138 0.02513 0.0
C2746 C 0.09591 0.98611 0.02997 0.0
C2747 C 0.09465 0.97113 0.01272 0.0
C2748 C 0.07687 0.96719 1.00113 0.0
C2749 C 0.06038 0.97738 0.00723 0.0
C2750 C 0.1111 0.95794 0.00837 0.0
C2751 C 0.10749 0.93636 0.00942 0.0
C2752 C 0.13055 0.96661 0.0056 0.0
C2753 C 0.1351 0.98922 0.0037 0.0
C2754 C 0.12454 0.9989 0.98951 0.0
C2755 C 0.12871 0.02024 0.98795 0.0
C2756 C 0.1435 0.03207 1.0004 0.0
C2757 C 0.15418 0.02257 0.01441 0.0
C2758 C 0.15005 1.00123 0.01606 0.0
C2759 C 0.17307 0.88655 0.99266 0.0
C2760 C 0.1889 0.89126 0.00697 0.0
C2761 C 0.15849 0.90025 0.99161 0.0
C2762 C 0.15923 0.91882 0.00506 0.0
C2763 C 0.17557 0.92409 0.01862 0.0
C2764 C 0.19027 0.91047 0.01955 0.0
C2765 C 0.14239 0.93198 0.00595 0.0
C2766 C 0.14595 0.95352 0.00443 0.0
C2767 C 0.12287 0.92336 0.00859 0.0
C2768 C 0.11818 0.90115 0.01194 0.0
C2769 C 0.12728 0.893 0.02817 0.0
C2770 C 0.12284 0.87205 0.03122 0.0
C2771 C 0.10917 0.85914 0.01824 0.0
C2772 C 0.09989 0.86717 0.00222 0.0
C2773 C 0.10431 0.88811 0.99909 0.0
H2774 H 0.10574 0.84292 0.02064 0.0
H2775 H 0.14671 0.0486 0.99917 0.0
loop_
_geom_bond_atom_site_label_1
_geom_bond_atom_site_label_2
_geom_bond_distance
_geom_bond_site_symmetry_2
_ccdc_geom_bond_type
C0 N1 1.318 . S
C0 N2 1.348 1_465 S
C0 C3 1.485 . S
N1 C0 1.318 . S
N1 N5 1.369 1_565 S
N2 C0 1.348 1_645 S
N2 C4 1.346 . S
C3 C0 1.485 . S
C3 H7 0.960 . S
C3 H8 0.961 . S
C3 H9 0.960 . S
C4 N2 1.346 . S
C4 N5 1.307 1_655 S
C4 C6 1.486 . S
N5 N1 1.369 1_545 S
N5 C4 1.307 1_455 S
C6 C4 1.486 . S
C6 H10 0.960 . S
C6 H11 0.960 . S
C6 H12 0.959 . S
H7 C3 0.960 . S
H8 C3 0.961 . S
H9 C3 0.960 . S
H10 C6 0.960 . S
H11 C6 0.960 . S
H12 C6 0.959 . S
C13 N14 1.317 . S
C13 N15 1.348 . S
C13 C16 1.485 . S
N14 C13 1.317 . S
N14 N18 1.370 . S
N15 C13 1.348 . S
N15 C17 1.346 . S
C16 C13 1.485 . S
C16 H20 0.960 . S
C16 H21 0.961 . S
C16 H22 0.960 . S
C17 N15 1.346 . S
C17 N18 1.307 . S
C17 C19 1.486 . S
N18 N14 1.370 . S
N18 C17 1.307 . S
C19 C17 1.486 . S
C19 H23 0.960 . S
C19 H24 0.960 . S
C19 H25 0.959 . S
H20 C16 0.960 . S
H21 C16 0.961 . S
H22 C16 0.960 . S
H23 C19 0.960 . S
H24 C19 0.960 . S
H25 C19 0.959 . S
C26 N27 1.317 . S
C26 N28 1.348 . S
C26 C29 1.485 . S
N27 C26 1.317 . S
N27 N31 1.370 . S
N28 C26 1.348 . S
N28 C30 1.346 . S
C29 C26 1.485 . S
C29 H33 0.960 . S
C29 H34 0.961 . S
C29 H35 0.960 . S
C30 N28 1.346 . S
C30 N31 1.307 . S
C30 C32 1.486 . S
N31 N27 1.370 . S
N31 C30 1.307 . S
C32 C30 1.486 . S
C32 H36 0.960 . S
C32 H37 0.960 . S
C32 H38 0.959 . S
H33 C29 0.960 . S
H34 C29 0.961 . S
H35 C29 0.960 . S
H36 C32 0.960 . S
H37 C32 0.960 . S
H38 C32 0.959 . S
C39 N40 1.317 . S
C39 N41 1.348 . S
C39 C42 1.485 . S
N40 C39 1.317 . S
N40 N44 1.370 . S
N41 C39 1.348 . S
N41 C43 1.346 . S
C42 C39 1.485 . S
C42 H46 0.960 . S
C42 H47 0.961 . S
C42 H48 0.960 . S
C43 N41 1.346 . S
C43 N44 1.307 . S
C43 C45 1.486 . S
N44 N40 1.370 . S
N44 C43 1.307 . S
C45 C43 1.486 . S
C45 H49 0.960 . S
C45 H50 0.960 . S
C45 H51 0.959 . S
H46 C42 0.960 . S
H47 C42 0.961 . S
H48 C42 0.960 . S
H49 C45 0.960 . S
H50 C45 0.960 . S
H51 C45 0.959 . S
C52 N53 1.317 . S
C52 N54 1.348 . S
C52 C55 1.485 . S
N53 C52 1.317 . S
N53 N57 1.370 . S
N54 C52 1.348 . S
N54 C56 1.346 . S
C55 C52 1.485 . S
C55 H59 0.960 . S
C55 H60 0.961 . S
C55 H61 0.960 . S
C56 N54 1.346 . S
C56 N57 1.307 . S
C56 C58 1.486 1_565 S
N57 N53 1.370 . S
N57 C56 1.307 . S
C58 C56 1.486 1_545 S
C58 H62 0.960 . S
C58 H63 0.960 . S
C58 H64 0.959 . S
H59 C55 0.960 . S
H60 C55 0.961 . S
H61 C55 0.960 . S
H62 C58 0.960 . S
H63 C58 0.960 . S
H64 C58 0.959 . S
C65 N66 1.317 . S
C65 N67 1.348 . S
C65 C68 1.485 . S
N66 C65 1.317 . S
N66 N70 1.370 . S
N67 C65 1.348 . S
N67 C69 1.346 . S
C68 C65 1.485 . S
C68 H72 0.960 . S
C68 H73 0.961 . S
C68 H74 0.960 . S
C69 N67 1.346 . S
C69 N70 1.307 . S
C69 C71 1.486 . S
N70 N66 1.370 . S
N70 C69 1.307 . S
C71 C69 1.486 . S
C71 H75 0.960 . S
C71 H76 0.960 . S
C71 H77 0.959 . S
H72 C68 0.960 . S
H73 C68 0.961 . S
H74 C68 0.960 . S
H75 C71 0.960 . S
H76 C71 0.960 . S
H77 C71 0.959 . S
C78 N79 1.317 . S
C78 N80 1.348 . S
C78 C81 1.485 . S
N79 C78 1.317 . S
N79 N83 1.370 . S
N80 C78 1.348 . S
N80 C82 1.346 . S
C81 C78 1.485 . S
C81 H85 0.960 . S
C81 H86 0.961 . S
C81 H87 0.960 . S
C82 N80 1.346 . S
C82 N83 1.307 . S
C82 C84 1.486 . S
N83 N79 1.370 . S
N83 C82 1.307 . S
C84 C82 1.486 . S
C84 H88 0.960 . S
C84 H89 0.960 . S
C84 H90 0.959 . S
H85 C81 0.960 . S
H86 C81 0.961 . S
H87 C81 0.960 . S
H88 C84 0.960 . S
H89 C84 0.960 . S
H90 C84 0.959 . S
C91 N92 1.317 . S
C91 N93 1.348 . S
C91 C94 1.485 . S
N92 C91 1.317 . S
N92 N96 1.370 . S
N93 C91 1.348 . S
N93 C95 1.346 . S
C94 C91 1.485 . S
C94 H98 0.960 . S
C94 H99 0.961 . S
C94 H100 0.960 . S
C95 N93 1.346 . S
C95 N96 1.307 . S
C95 C97 1.486 . S
N96 N92 1.370 . S
N96 C95 1.307 . S
C97 C95 1.486 . S
C97 H101 0.960 . S
C97 H102 0.960 . S
C97 H103 0.959 . S
H98 C94 0.960 . S
H99 C94 0.961 . S
H100 C94 0.960 . S
H101 C97 0.960 . S
H102 C97 0.960 . S
H103 C97 0.959 . S
C104 N105 1.317 . S
C104 N106 1.348 . S
C104 C107 1.485 . S
N105 C104 1.317 . S
N105 N109 1.370 . S
N106 C104 1.348 . S
N106 C108 1.346 . S
C107 C104 1.485 . S
C107 H111 0.960 . S
C107 H112 0.961 . S
C107 H113 0.960 . S
C108 N106 1.346 . S
C108 N109 1.307 . S
C108 C110 1.486 . S
N109 N105 1.370 . S
N109 C108 1.307 . S
C110 C108 1.486 . S
C110 H114 0.960 . S
C110 H115 0.960 . S
C110 H116 0.959 . S
H111 C107 0.960 . S
H112 C107 0.961 . S
H113 C107 0.960 . S
H114 C110 0.960 . S
H115 C110 0.960 . S
H116 C110 0.959 . S
C117 N118 1.317 . S
C117 N119 1.348 . S
C117 C120 1.484 . S
N118 C117 1.317 . S
N118 N122 1.370 . S
N119 C117 1.348 . S
N119 C121 1.346 . S
C120 C117 1.484 . S
C120 H124 0.960 . S
C120 H125 0.962 1_565 S
C120 H126 0.960 1_565 S
C121 N119 1.346 . S
C121 N122 1.307 . S
C121 C123 1.486 . S
N122 N118 1.370 . S
N122 C121 1.307 . S
C123 C121 1.486 . S
C123 H127 0.960 . S
C123 H128 0.960 . S
C123 H129 0.959 . S
H124 C120 0.960 . S
H125 C120 0.962 1_545 S
H126 C120 0.960 1_545 S
H127 C123 0.960 . S
H128 C123 0.960 . S
H129 C123 0.959 . S
C130 N131 1.317 . S
C130 N132 1.348 . S
C130 C133 1.485 . S
N131 C130 1.317 . S
N131 N135 1.370 . S
N132 C130 1.348 . S
N132 C134 1.346 . S
C133 C130 1.485 . S
C133 H137 0.960 . S
C133 H138 0.961 . S
C133 H139 0.960 . S
C134 N132 1.346 . S
C134 N135 1.307 . S
C134 C136 1.486 . S
N135 N131 1.370 . S
N135 C134 1.307 . S
C136 C134 1.486 . S
C136 H140 0.960 . S
C136 H141 0.960 . S
C136 H142 0.959 . S
H137 C133 0.960 . S
H138 C133 0.961 . S
H139 C133 0.960 . S
H140 C136 0.960 . S
H141 C136 0.960 . S
H142 C136 0.959 . S
C143 N144 1.317 . S
C143 N145 1.348 . S
C143 C146 1.485 . S
N144 C143 1.317 . S
N144 N148 1.370 . S
N145 C143 1.348 . S
N145 C147 1.346 . S
C146 C143 1.485 . S
C146 H150 0.960 . S
C146 H151 0.961 . S
C146 H152 0.960 . S
C147 N145 1.346 . S
C147 N148 1.307 . S
C147 C149 1.486 . S
N148 N144 1.370 . S
N148 C147 1.307 . S
C149 C147 1.486 . S
C149 H153 0.960 . S
C149 H154 0.960 . S
C149 H155 0.959 . S
H150 C146 0.960 . S
H151 C146 0.961 . S
H152 C146 0.960 . S
H153 C149 0.960 . S
H154 C149 0.960 . S
H155 C149 0.959 . S
C156 N157 1.317 . S
C156 N158 1.348 . S
C156 C159 1.485 . S
N157 C156 1.317 . S
N157 N161 1.370 . S
N158 C156 1.348 . S
N158 C160 1.346 . S
C159 C156 1.485 . S
C159 H163 0.960 . S
C159 H164 0.961 . S
C159 H165 0.960 . S
C160 N158 1.346 . S
C160 N161 1.307 . S
C160 C162 1.486 . S
N161 N157 1.370 . S
N161 C160 1.307 . S
C162 C160 1.486 . S
C162 H166 0.960 . S
C162 H167 0.960 . S
C162 H168 0.959 . S
H163 C159 0.960 . S
H164 C159 0.961 . S
H165 C159 0.960 . S
H166 C162 0.960 . S
H167 C162 0.960 . S
H168 C162 0.959 . S
C169 N170 1.317 . S
C169 N171 1.348 . S
C169 C172 1.485 . S
N170 C169 1.317 . S
N170 N174 1.370 . S
N171 C169 1.348 . S
N171 C173 1.346 . S
C172 C169 1.485 . S
C172 H176 0.960 . S
C172 H177 0.961 . S
C172 H178 0.960 . S
C173 N171 1.346 . S
C173 N174 1.307 . S
C173 C175 1.486 . S
N174 N170 1.370 . S
N174 C173 1.307 . S
C175 C173 1.486 . S
C175 H179 0.960 . S
C175 H180 0.960 . S
C175 H181 0.959 . S
H176 C172 0.960 . S
H177 C172 0.961 . S
H178 C172 0.960 . S
H179 C175 0.960 . S
H180 C175 0.960 . S
H181 C175 0.959 . S
C182 N183 1.317 . S
C182 N184 1.348 . S
C182 C185 1.485 . S
N183 C182 1.317 . S
N183 N187 1.370 . S
N184 C182 1.348 . S
N184 C186 1.346 . S
C185 C182 1.485 . S
C185 H189 0.960 . S
C185 H190 0.961 . S
C185 H191 0.960 . S
C186 N184 1.346 . S
C186 N187 1.307 . S
C186 C188 1.486 . S
N187 N183 1.370 . S
N187 C186 1.307 . S
C188 C186 1.486 . S
C188 H192 0.960 . S
C188 H193 0.960 . S
C188 H194 0.959 . S
H189 C185 0.960 . S
H190 C185 0.961 . S
H191 C185 0.960 . S
H192 C188 0.960 . S
H193 C188 0.960 . S
H194 C188 0.959 . S
C195 N196 1.317 . S
C195 N197 1.348 . S
C195 C198 1.444 1_545 S
N196 C195 1.317 . S
N196 N200 1.370 . S
N197 C195 1.348 . S
N197 C199 1.346 . S
C198 C195 1.444 1_565 S
C198 H202 0.939 1_565 S
C198 H203 1.012 . S
C198 H204 0.967 . S
C199 N197 1.346 . S
C199 N200 1.307 . S
C199 C201 1.486 1_556 S
N200 N196 1.370 . S
N200 C199 1.307 . S
C201 C199 1.486 1_554 S
C201 H205 0.960 . S
C201 H206 0.960 . S
C201 H207 0.959 . S
H202 C198 0.939 1_545 S
H203 C198 1.012 . S
H204 C198 0.967 . S
H205 C201 0.960 . S
H206 C201 0.960 . S
H207 C201 0.959 . S
Mg208 O209 2.028 . S
Mg208 O215 1.986 1_554 S
Mg208 O217 2.114 . S
Mg208 O218 2.251 . S
Mg208 O221 2.010 . S
O209 Mg208 2.028 . S
O209 C212 1.250 . S
O210 Mg211 2.028 . S
O210 C212 1.248 . S
Mg211 O210 2.028 . S
Mg211 O216 2.032 1_554 S
Mg211 O218 2.079 . S
C212 O209 1.250 . S
C212 O210 1.248 . S
C213 O214 1.264 . S
C213 O221 1.249 . S
O214 C213 1.264 . S
O215 Mg208 1.986 1_556 S
O215 C219 1.246 . S
O216 Mg211 2.032 1_556 S
O216 C219 1.259 . S
O217 Mg208 2.114 . S
O217 C220 1.252 . S
O218 Mg208 2.251 . S
O218 Mg211 2.079 . S
O218 C220 1.273 . S
C219 O215 1.246 . S
C219 O216 1.259 . S
C220 O217 1.252 . S
C220 O218 1.273 . S
O221 Mg208 2.010 . S
O221 C213 1.249 . S
Mg222 O223 2.028 . S
Mg222 O229 1.986 . S
Mg222 O231 2.114 . S
Mg222 O232 2.251 . S
Mg222 O235 2.010 . S
O223 Mg222 2.028 . S
O223 C226 1.250 . S
O224 Mg225 2.028 . S
O224 C226 1.248 . S
Mg225 O224 2.028 . S
Mg225 O230 2.032 . S
Mg225 O232 2.079 . S
C226 O223 1.250 . S
C226 O224 1.248 . S
C227 O228 1.264 . S
C227 O235 1.249 . S
O228 C227 1.264 . S
O229 Mg222 1.986 . S
O229 C233 1.246 . S
O230 Mg225 2.032 . S
O230 C233 1.259 . S
O231 Mg222 2.114 . S
O231 C234 1.252 . S
O232 Mg222 2.251 . S
O232 Mg225 2.079 . S
O232 C234 1.273 . S
C233 O229 1.246 . S
C233 O230 1.259 . S
C234 O231 1.252 . S
C234 O232 1.273 . S
O235 Mg222 2.010 . S
O235 C227 1.249 . S
Mg236 O237 2.028 . S
Mg236 O243 1.986 1_554 S
Mg236 O245 2.114 . S
Mg236 O246 2.251 . S
Mg236 O249 2.010 . S
O237 Mg236 2.028 . S
O237 C240 1.250 . S
O238 Mg239 2.028 . S
O238 C240 1.248 . S
Mg239 O238 2.028 . S
Mg239 O244 2.032 1_554 S
Mg239 O246 2.079 . S
C240 O237 1.250 . S
C240 O238 1.248 . S
C241 O242 1.264 . S
C241 O249 1.249 . S
O242 C241 1.264 . S
O243 Mg236 1.986 1_556 S
O243 C247 1.246 . S
O244 Mg239 2.032 1_556 S
O244 C247 1.259 . S
O245 Mg236 2.114 . S
O245 C248 1.252 . S
O246 Mg236 2.251 . S
O246 Mg239 2.079 . S
O246 C248 1.273 . S
C247 O243 1.246 . S
C247 O244 1.259 . S
C248 O245 1.252 . S
C248 O246 1.273 . S
O249 Mg236 2.010 . S
O249 C241 1.249 . S
Mg250 O251 2.028 1_545 S
Mg250 O257 1.986 . S
Mg250 O259 2.114 . S
Mg250 O260 2.234 1_545 S
Mg250 O263 2.010 . S
O251 Mg250 2.028 1_565 S
O251 C254 1.250 . S
O252 Mg253 2.028 . S
O252 C254 1.248 . S
Mg253 O252 2.028 . S
Mg253 O258 2.032 . S
Mg253 O260 2.106 . S
C254 O251 1.250 . S
C254 O252 1.248 . S
C255 O256 1.264 . S
C255 O263 1.249 . S
O256 C255 1.264 . S
O257 Mg250 1.986 . S
O257 C261 1.246 . S
O258 Mg253 2.032 . S
O258 C261 1.259 1_565 S
O259 Mg250 2.114 . S
O259 C262 1.252 . S
O260 Mg250 2.234 1_565 S
O260 Mg253 2.106 . S
O260 C262 1.256 1_565 S
C261 O257 1.246 . S
C261 O258 1.259 1_545 S
C262 O259 1.252 . S
C262 O260 1.256 1_545 S
O263 Mg250 2.010 . S
O263 C255 1.249 . S
Mg264 O265 2.028 . S
Mg264 O271 1.986 . S
Mg264 O273 2.114 . S
Mg264 O274 2.251 . S
Mg264 O277 2.010 . S
O265 Mg264 2.028 . S
O265 C268 1.250 . S
O266 Mg267 2.028 . S
O266 C268 1.248 . S
Mg267 O266 2.028 . S
Mg267 O272 2.032 . S
Mg267 O274 2.079 . S
C268 O265 1.250 . S
C268 O266 1.248 . S
C269 O270 1.264 . S
C269 O277 1.249 . S
O270 C269 1.264 . S
O271 Mg264 1.986 . S
O271 C275 1.246 . S
O272 Mg267 2.032 . S
O272 C275 1.259 . S
O273 Mg264 2.114 . S
O273 C276 1.252 . S
O274 Mg264 2.251 . S
O274 Mg267 2.079 . S
O274 C276 1.273 . S
C275 O271 1.246 . S
C275 O272 1.259 . S
C276 O273 1.252 . S
C276 O274 1.273 . S
O277 Mg264 2.010 . S
O277 C269 1.249 . S
Mg278 O279 2.028 . S
Mg278 O285 1.986 . S
Mg278 O287 2.114 . S
Mg278 O288 2.251 . S
Mg278 O291 2.010 . S
O279 Mg278 2.028 . S
O279 C282 1.250 . S
O280 Mg281 2.028 . S
O280 C282 1.248 . S
Mg281 O280 2.028 . S
Mg281 O286 2.032 . S
Mg281 O288 2.079 . S
C282 O279 1.250 . S
C282 O280 1.248 . S
C283 O284 1.264 . S
C283 O291 1.249 . S
O284 C283 1.264 . S
O285 Mg278 1.986 . S
O285 C289 1.246 . S
O286 Mg281 2.032 . S
O286 C289 1.259 . S
O287 Mg278 2.114 . S
O287 C290 1.252 . S
O288 Mg278 2.251 . S
O288 Mg281 2.079 . S
O288 C290 1.273 . S
C289 O285 1.246 . S
C289 O286 1.259 . S
C290 O287 1.252 . S
C290 O288 1.273 . S
O291 Mg278 2.010 . S
O291 C283 1.249 . S
Mg292 O293 2.028 . S
Mg292 O299 1.986 . S
Mg292 O301 2.114 . S
Mg292 O302 2.251 . S
Mg292 O305 2.010 . S
O293 Mg292 2.028 . S
O293 C296 1.250 . S
O294 Mg295 2.028 . S
O294 C296 1.248 . S
Mg295 O294 2.028 . S
Mg295 O300 2.032 . S
Mg295 O302 2.079 . S
C296 O293 1.250 . S
C296 O294 1.248 . S
C297 O298 1.264 . S
C297 O305 1.249 . S
O298 C297 1.264 . S
O299 Mg292 1.986 . S
O299 C303 1.246 . S
O300 Mg295 2.032 . S
O300 C303 1.259 . S
O301 Mg292 2.114 . S
O301 C304 1.252 . S
O302 Mg292 2.251 . S
O302 Mg295 2.079 . S
O302 C304 1.273 . S
C303 O299 1.246 . S
C303 O300 1.259 . S
C304 O301 1.252 . S
C304 O302 1.273 . S
O305 Mg292 2.010 . S
O305 C297 1.249 . S
Mg306 O307 2.028 . S
Mg306 O313 1.986 1_545 S
Mg306 O315 2.114 . S
Mg306 O316 2.251 . S
Mg306 O319 2.010 . S
O307 Mg306 2.028 . S
O307 C310 1.250 . S
O308 Mg309 2.028 . S
O308 C310 1.248 . S
Mg309 O308 2.028 . S
Mg309 O314 2.032 1_545 S
Mg309 O316 2.079 . S
C310 O307 1.250 . S
C310 O308 1.248 . S
C311 O312 1.264 . S
C311 O319 1.249 . S
O312 C311 1.264 . S
O313 Mg306 1.986 1_565 S
O313 C317 1.246 . S
O314 Mg309 2.032 1_565 S
O314 C317 1.259 . S
O315 Mg306 2.114 . S
O315 C318 1.252 . S
O316 Mg306 2.251 . S
O316 Mg309 2.079 . S
O316 C318 1.273 . S
C317 O313 1.246 . S
C317 O314 1.259 . S
C318 O315 1.252 . S
C318 O316 1.273 . S
O319 Mg306 2.010 . S
O319 C311 1.249 . S
Mg320 O321 2.028 . S
Mg320 O327 1.986 . S
Mg320 O329 2.114 . S
Mg320 O330 2.251 . S
Mg320 O333 2.010 . S
O321 Mg320 2.028 . S
O321 C324 1.250 1_455 S
O322 Mg323 2.028 . S
O322 C324 1.248 . S
Mg323 O322 2.028 . S
Mg323 O328 2.032 . S
Mg323 O330 2.079 1_655 S
C324 O321 1.250 1_655 S
C324 O322 1.248 . S
C325 O326 1.264 . S
C325 O333 1.249 . S
O326 C325 1.264 . S
O327 Mg320 1.986 . S
O327 C331 1.246 . S
O328 Mg323 2.032 . S
O328 C331 1.259 1_655 S
O329 Mg320 2.114 . S
O329 C332 1.252 . S
O330 Mg320 2.251 . S
O330 Mg323 2.079 1_455 S
O330 C332 1.273 . S
C331 O327 1.246 . S
C331 O328 1.259 1_455 S
C332 O329 1.252 . S
C332 O330 1.273 . S
O333 Mg320 2.010 . S
O333 C325 1.249 . S
Mg334 O335 2.028 . S
Mg334 O341 1.986 . S
Mg334 O343 2.114 . S
Mg334 O344 2.251 . S
Mg334 O347 2.010 . S
O335 Mg334 2.028 . S
O335 C338 1.250 . S
O336 Mg337 2.028 . S
O336 C338 1.248 . S
Mg337 O336 2.028 . S
Mg337 O342 2.032 . S
Mg337 O344 2.079 . S
C338 O335 1.250 . S
C338 O336 1.248 . S
C339 O340 1.264 . S
C339 O347 1.249 . S
O340 C339 1.264 . S
O341 Mg334 1.986 . S
O341 C345 1.246 . S
O342 Mg337 2.032 . S
O342 C345 1.259 . S
O343 Mg334 2.114 . S
O343 C346 1.252 . S
O344 Mg334 2.251 . S
O344 Mg337 2.079 . S
O344 C346 1.273 . S
C345 O341 1.246 . S
C345 O342 1.259 . S
C346 O343 1.252 . S
C346 O344 1.273 . S
O347 Mg334 2.010 . S
O347 C339 1.249 . S
Mg348 O349 2.028 . S
Mg348 O355 1.986 . S
Mg348 O357 2.109 1_455 S
Mg348 O358 2.251 . S
Mg348 O361 2.010 1_455 S
O349 Mg348 2.028 . S
O349 C352 1.250 . S
O350 Mg351 2.028 . S
O350 C352 1.248 . S
Mg351 O350 2.028 . S
Mg351 O356 2.032 . S
Mg351 O358 2.079 . S
C352 O349 1.250 . S
C352 O350 1.248 . S
C353 O354 1.264 . S
C353 O361 1.249 . S
O354 C353 1.264 . S
O355 Mg348 1.986 . S
O355 C359 1.246 . S
O356 Mg351 2.032 . S
O356 C359 1.259 . S
O357 Mg348 2.109 1_655 S
O357 C360 1.234 1_655 S
O358 Mg348 2.251 . S
O358 Mg351 2.079 . S
O358 C360 1.273 . S
C359 O355 1.246 . S
C359 O356 1.259 . S
C360 O357 1.234 1_455 S
C360 O358 1.273 . S
O361 Mg348 2.010 1_655 S
O361 C353 1.249 . S
Mg362 O363 2.028 . S
Mg362 O369 1.986 . S
Mg362 O371 2.114 . S
Mg362 O372 2.251 . S
Mg362 O375 2.010 . S
O363 Mg362 2.028 . S
O363 C366 1.250 . S
O364 Mg365 2.028 . S
O364 C366 1.248 . S
Mg365 O364 2.028 . S
Mg365 O370 2.032 . S
Mg365 O372 2.079 . S
C366 O363 1.250 . S
C366 O364 1.248 . S
C367 O368 1.264 . S
C367 O375 1.249 . S
O368 C367 1.264 . S
O369 Mg362 1.986 . S
O369 C373 1.246 . S
O370 Mg365 2.032 . S
O370 C373 1.259 . S
O371 Mg362 2.114 . S
O371 C374 1.252 . S
O372 Mg362 2.251 . S
O372 Mg365 2.079 . S
O372 C374 1.273 . S
C373 O369 1.246 . S
C373 O370 1.259 . S
C374 O371 1.252 . S
C374 O372 1.273 . S
O375 Mg362 2.010 . S
O375 C367 1.249 . S
H376 C394 0.951 . S
H377 C396 0.951 . S
H378 C398 0.950 . S
H379 C399 0.950 . S
H380 C401 0.950 . S
H381 C404 0.950 . S
H382 C405 0.950 . S
H383 C407 0.950 . S
H384 C408 0.950 . S
H385 C409 0.951 . S
H386 C411 0.951 . S
H387 C413 0.950 . S
H388 C414 0.950 . S
H389 C416 0.950 . S
H390 C419 0.950 . S
H391 C420 0.950 . S
H392 C422 0.950 . S
H393 C423 0.950 . S
C394 H376 0.951 . S
C394 C395 1.366 . S
C394 C396 1.388 . S
C395 C394 1.366 . S
C395 C399 1.385 . S
C396 H377 0.951 . S
C396 C394 1.388 . S
C396 C397 1.366 . S
C397 C396 1.366 . S
C397 C398 1.414 . S
C397 C400 1.499 . S
C398 H378 0.950 . S
C398 C397 1.414 . S
C398 C399 1.374 . S
C399 H379 0.950 . S
C399 C395 1.385 . S
C399 C398 1.374 . S
C400 C397 1.499 . S
C400 C401 1.373 . S
C400 C402 1.389 . S
C401 H380 0.950 . S
C401 C400 1.373 . S
C401 C417 1.377 . S
C402 C400 1.389 . S
C402 C403 1.524 . S
C402 C416 1.377 . S
C403 C402 1.524 . S
C403 C404 1.397 . S
C403 C408 1.363 . S
C404 H381 0.950 . S
C404 C403 1.397 . S
C404 C405 1.334 . S
C405 H382 0.950 . S
C405 C404 1.334 . S
C405 C406 1.287 . S
C406 C405 1.287 . S
C406 C407 1.524 . S
C406 H425 0.913 . S
C407 H383 0.950 . S
C407 C406 1.524 . S
C407 C408 1.415 . S
C408 H384 0.950 . S
C408 C403 1.363 . S
C408 C407 1.415 . S
C409 H385 0.951 . S
C409 C410 1.366 . S
C409 C411 1.388 . S
C410 C409 1.366 . S
C410 C414 1.385 . S
C411 H386 0.951 . S
C411 C409 1.388 . S
C411 C412 1.366 . S
C412 C411 1.366 . S
C412 C413 1.414 . S
C412 C415 1.499 . S
C413 H387 0.950 . S
C413 C412 1.414 . S
C413 C414 1.374 . S
C414 H388 0.950 . S
C414 C410 1.385 . S
C414 C413 1.374 . S
C415 C412 1.499 . S
C415 C416 1.373 . S
C415 C417 1.389 . S
C416 H389 0.950 . S
C416 C402 1.377 . S
C416 C415 1.373 . S
C417 C401 1.377 . S
C417 C415 1.389 . S
C417 C418 1.524 . S
C418 C417 1.524 . S
C418 C419 1.397 . S
C418 C423 1.363 . S
C419 H390 0.950 . S
C419 C418 1.397 . S
C419 C420 1.334 . S
C420 H391 0.950 . S
C420 C419 1.334 . S
C420 C421 1.287 . S
C421 C420 1.287 . S
C421 C422 1.524 . S
C421 H424 0.999 . S
C422 H392 0.950 . S
C422 C421 1.524 . S
C422 C423 1.415 . S
C423 H393 0.950 . S
C423 C418 1.363 . S
C423 C422 1.415 . S
H424 C421 0.999 . S
H425 C406 0.913 . S
H426 C444 0.951 1_455 S
H427 C446 0.951 . S
H428 C448 0.950 . S
H429 C449 0.950 . S
H430 C451 0.950 . S
H431 C454 0.950 . S
H432 C455 0.950 . S
H433 C457 0.950 . S
H434 C458 0.950 . S
H435 C459 0.951 . S
H436 C461 0.951 . S
H437 C463 0.950 . S
H438 C464 0.950 . S
H439 C466 0.950 . S
H440 C469 0.950 . S
H441 C470 0.950 . S
H442 C472 0.950 . S
H443 C473 0.950 . S
C444 H426 0.951 1_655 S
C444 C445 1.366 . S
C444 C446 1.388 1_655 S
C445 C444 1.366 . S
C445 C449 1.385 . S
C446 H427 0.951 . S
C446 C444 1.388 1_455 S
C446 C447 1.366 . S
C447 C446 1.366 . S
C447 C448 1.414 1_455 S
C447 C450 1.499 . S
C448 H428 0.950 . S
C448 C447 1.414 1_655 S
C448 C449 1.374 . S
C449 H429 0.950 . S
C449 C445 1.385 . S
C449 C448 1.374 . S
C450 C447 1.499 . S
C450 C451 1.373 . S
C450 C452 1.389 . S
C451 H430 0.950 . S
C451 C450 1.373 . S
C451 C467 1.377 . S
C452 C450 1.389 . S
C452 C453 1.524 . S
C452 C466 1.377 . S
C453 C452 1.524 . S
C453 C454 1.397 . S
C453 C458 1.363 . S
C454 H431 0.950 . S
C454 C453 1.397 . S
C454 C455 1.334 . S
C455 H432 0.950 . S
C455 C454 1.334 . S
C455 C456 1.287 . S
C456 C455 1.287 . S
C456 C457 1.524 . S
C456 H475 0.913 . S
C457 H433 0.950 . S
C457 C456 1.524 . S
C457 C458 1.415 . S
C458 H434 0.950 . S
C458 C453 1.363 . S
C458 C457 1.415 . S
C459 H435 0.951 . S
C459 C460 1.366 . S
C459 C461 1.388 . S
C460 C459 1.366 . S
C460 C464 1.385 . S
C461 H436 0.951 . S
C461 C459 1.388 . S
C461 C462 1.366 . S
C462 C461 1.366 . S
C462 C463 1.414 . S
C462 C465 1.499 . S
C463 H437 0.950 . S
C463 C462 1.414 . S
C463 C464 1.374 . S
C464 H438 0.950 . S
C464 C460 1.385 . S
C464 C463 1.374 . S
C465 C462 1.499 . S
C465 C466 1.373 . S
C465 C467 1.389 . S
C466 H439 0.950 . S
C466 C452 1.377 . S
C466 C465 1.373 . S
C467 C451 1.377 . S
C467 C465 1.389 . S
C467 C468 1.524 . S
C468 C467 1.524 . S
C468 C469 1.397 . S
C468 C473 1.363 . S
C469 H440 0.950 . S
C469 C468 1.397 . S
C469 C470 1.334 . S
C470 H441 0.950 . S
C470 C469 1.334 . S
C470 C471 1.287 . S
C471 C470 1.287 . S
C471 C472 1.524 . S
C471 H474 0.999 . S
C472 H442 0.950 . S
C472 C471 1.524 . S
C472 C473 1.415 . S
C473 H443 0.950 . S
C473 C468 1.363 . S
C473 C472 1.415 . S
H474 C471 0.999 . S
H475 C456 0.913 . S
H476 C494 0.951 . S
H477 C496 0.951 . S
H478 C498 0.950 . S
H479 C499 0.950 . S
H480 C501 0.950 . S
H481 C504 0.950 . S
H482 C505 0.950 . S
H483 C507 0.950 . S
H484 C508 0.950 . S
H485 C509 0.951 . S
H486 C511 0.951 . S
H487 C513 0.950 . S
H488 C514 0.950 . S
H489 C516 0.950 . S
H490 C519 0.950 . S
H491 C520 0.950 . S
H492 C522 0.950 . S
H493 C523 0.950 . S
C494 H476 0.951 . S
C494 C495 1.366 . S
C494 C496 1.388 . S
C495 C494 1.366 . S
C495 C499 1.385 . S
C496 H477 0.951 . S
C496 C494 1.388 . S
C496 C497 1.366 . S
C497 C496 1.366 . S
C497 C498 1.414 . S
C497 C500 1.499 . S
C498 H478 0.950 . S
C498 C497 1.414 . S
C498 C499 1.374 . S
C499 H479 0.950 . S
C499 C495 1.385 . S
C499 C498 1.374 . S
C500 C497 1.499 . S
C500 C501 1.373 . S
C500 C502 1.389 . S
C501 H480 0.950 . S
C501 C500 1.373 . S
C501 C517 1.377 . S
C502 C500 1.389 . S
C502 C503 1.524 . S
C502 C516 1.377 . S
C503 C502 1.524 . S
C503 C504 1.397 . S
C503 C508 1.363 . S
C504 H481 0.950 . S
C504 C503 1.397 . S
C504 C505 1.334 . S
C505 H482 0.950 . S
C505 C504 1.334 . S
C505 C506 1.287 . S
C506 C505 1.287 . S
C506 C507 1.524 . S
C506 H525 0.913 . S
C507 H483 0.950 . S
C507 C506 1.524 . S
C507 C508 1.415 . S
C508 H484 0.950 . S
C508 C503 1.363 . S
C508 C507 1.415 . S
C509 H485 0.951 . S
C509 C510 1.366 . S
C509 C511 1.388 . S
C510 C509 1.366 . S
C510 C514 1.385 . S
C511 H486 0.951 . S
C511 C509 1.388 . S
C511 C512 1.366 . S
C512 C511 1.366 . S
C512 C513 1.414 . S
C512 C515 1.499 . S
C513 H487 0.950 . S
C513 C512 1.414 . S
C513 C514 1.374 . S
C514 H488 0.950 . S
C514 C510 1.385 . S
C514 C513 1.374 . S
C515 C512 1.499 . S
C515 C516 1.373 . S
C515 C517 1.389 . S
C516 H489 0.950 . S
C516 C502 1.377 . S
C516 C515 1.373 . S
C517 C501 1.377 . S
C517 C515 1.389 . S
C517 C518 1.524 . S
C518 C517 1.524 . S
C518 C519 1.397 . S
C518 C523 1.363 . S
C519 H490 0.950 . S
C519 C518 1.397 . S
C519 C520 1.334 . S
C520 H491 0.950 . S
C520 C519 1.334 . S
C520 C521 1.287 . S
C521 C520 1.287 . S
C521 C522 1.524 . S
C521 H524 0.999 . S
C522 H492 0.950 . S
C522 C521 1.524 . S
C522 C523 1.415 . S
C523 H493 0.950 . S
C523 C518 1.363 . S
C523 C522 1.415 . S
H524 C521 0.999 . S
H525 C506 0.913 . S
H526 C544 0.951 . S
H527 C546 0.949 . S
H528 C548 0.950 1_655 S
H529 C549 0.950 . S
H530 C551 0.950 . S
H531 C554 0.950 . S
H532 C555 0.950 1_565 S
H533 C557 0.950 . S
H534 C558 0.950 . S
H535 C559 0.951 . S
H536 C561 0.951 . S
H537 C563 0.950 . S
H538 C564 0.950 . S
H539 C566 0.950 . S
H540 C569 0.950 1_545 S
H541 C570 0.968 . S
H542 C572 0.950 . S
H543 C573 0.950 . S
C544 H526 0.951 . S
C544 C545 1.366 1_545 S
C544 C546 1.388 . S
C545 C544 1.366 1_565 S
C545 C549 1.385 . S
C546 H527 0.949 . S
C546 C544 1.388 . S
C546 C547 1.366 1_445 S
C547 C546 1.366 1_665 S
C547 C548 1.414 1_655 S
C547 C550 1.499 . S
C548 H528 0.950 1_455 S
C548 C547 1.414 1_455 S
C548 C549 1.374 . S
C549 H529 0.950 . S
C549 C545 1.385 . S
C549 C548 1.374 . S
C550 C547 1.499 . S
C550 C551 1.373 . S
C550 C552 1.389 1_565 S
C551 H530 0.950 . S
C551 C550 1.373 . S
C551 C567 1.377 . S
C552 C550 1.389 1_545 S
C552 C553 1.524 . S
C552 C566 1.377 . S
C553 C552 1.524 . S
C553 C554 1.397 1_545 S
C553 C558 1.363 . S
C554 H531 0.950 . S
C554 C553 1.397 1_565 S
C554 C555 1.334 1_565 S
C555 H532 0.950 1_545 S
C555 C554 1.334 1_545 S
C555 C556 1.287 . S
C556 C555 1.287 . S
C556 C557 1.524 . S
C556 H575 0.913 . S
C557 H533 0.950 . S
C557 C556 1.524 . S
C557 C558 1.415 . S
C558 H534 0.950 . S
C558 C553 1.363 . S
C558 C557 1.415 . S
C559 H535 0.951 . S
C559 C560 1.366 1_565 S
C559 C561 1.388 . S
C560 C559 1.366 1_545 S
C560 C564 1.385 . S
C561 H536 0.951 . S
C561 C559 1.388 . S
C561 C562 1.366 1_565 S
C562 C561 1.366 1_545 S
C562 C563 1.414 . S
C562 C565 1.501 . S
C563 H537 0.950 . S
C563 C562 1.414 . S
C563 C564 1.374 . S
C564 H538 0.950 . S
C564 C560 1.385 . S
C564 C563 1.374 . S
C565 C562 1.501 . S
C565 C566 1.376 . S
C565 C567 1.384 1_545 S
C566 H539 0.950 . S
C566 C552 1.377 . S
C566 C565 1.376 . S
C567 C551 1.377 . S
C567 C565 1.384 1_565 S
C567 C568 1.524 . S
C568 C567 1.524 . S
C568 C569 1.397 . S
C568 C573 1.363 . S
C569 H540 0.950 1_565 S
C569 C568 1.397 . S
C569 C570 1.334 . S
C570 H541 0.968 . S
C570 C569 1.334 . S
C570 C571 1.287 . S
C571 C570 1.287 . S
C571 C572 1.524 . S
C571 H574 0.999 . S
C572 H542 0.950 . S
C572 C571 1.524 . S
C572 C573 1.415 . S
C573 H543 0.950 . S
C573 C568 1.363 . S
C573 C572 1.415 . S
H574 C571 0.999 . S
H575 C556 0.913 . S
H576 C594 0.951 . S
H577 C596 0.951 . S
H578 C598 0.950 . S
H579 C599 0.950 . S
H580 C601 0.950 . S
H581 C604 0.950 . S
H582 C605 0.950 . S
H583 C607 0.950 . S
H584 C608 0.950 . S
H585 C609 0.951 . S
H586 C611 0.951 . S
H587 C613 0.950 . S
H588 C614 0.950 . S
H589 C616 0.950 . S
H590 C619 0.950 . S
H591 C620 0.950 . S
H592 C622 0.950 . S
H593 C623 0.950 . S
C594 H576 0.951 . S
C594 C595 1.366 . S
C594 C596 1.388 . S
C595 C594 1.366 . S
C595 C599 1.385 . S
C596 H577 0.951 . S
C596 C594 1.388 . S
C596 C597 1.366 . S
C597 C596 1.366 . S
C597 C598 1.414 . S
C597 C600 1.499 . S
C598 H578 0.950 . S
C598 C597 1.414 . S
C598 C599 1.374 . S
C599 H579 0.950 . S
C599 C595 1.385 . S
C599 C598 1.374 . S
C600 C597 1.499 . S
C600 C601 1.373 . S
C600 C602 1.389 . S
C601 H580 0.950 . S
C601 C600 1.373 . S
C601 C617 1.377 . S
C602 C600 1.389 . S
C602 C603 1.524 . S
C602 C616 1.377 . S
C603 C602 1.524 . S
C603 C604 1.397 . S
C603 C608 1.363 . S
C604 H581 0.950 . S
C604 C603 1.397 . S
C604 C605 1.334 . S
C605 H582 0.950 . S
C605 C604 1.334 . S
C605 C606 1.287 . S
C606 C605 1.287 . S
C606 C607 1.524 . S
C606 H625 0.913 . S
C607 H583 0.950 . S
C607 C606 1.524 . S
C607 C608 1.415 . S
C608 H584 0.950 . S
C608 C603 1.363 . S
C608 C607 1.415 . S
C609 H585 0.951 . S
C609 C610 1.366 . S
C609 C611 1.388 . S
C610 C609 1.366 . S
C610 C614 1.385 . S
C611 H586 0.951 . S
C611 C609 1.388 . S
C611 C612 1.366 . S
C612 C611 1.366 . S
C612 C613 1.414 . S
C612 C615 1.499 . S
C613 H587 0.950 . S
C613 C612 1.414 . S
C613 C614 1.374 . S
C614 H588 0.950 . S
C614 C610 1.385 . S
C614 C613 1.374 . S
C615 C612 1.499 . S
C615 C616 1.373 . S
C615 C617 1.389 . S
C616 H589 0.950 . S
C616 C602 1.377 . S
C616 C615 1.373 . S
C617 C601 1.377 . S
C617 C615 1.389 . S
C617 C618 1.524 . S
C618 C617 1.524 . S
C618 C619 1.397 . S
C618 C623 1.363 . S
C619 H590 0.950 . S
C619 C618 1.397 . S
C619 C620 1.334 . S
C620 H591 0.950 . S
C620 C619 1.334 . S
C620 C621 1.287 . S
C621 C620 1.287 . S
C621 C622 1.524 . S
C621 H624 0.999 . S
C622 H592 0.950 . S
C622 C621 1.524 . S
C622 C623 1.415 . S
C623 H593 0.950 . S
C623 C618 1.363 . S
C623 C622 1.415 . S
H624 C621 0.999 . S
H625 C606 0.913 . S
H626 C644 0.951 . S
H627 C646 0.951 . S
H628 C648 0.950 . S
H629 C649 0.950 . S
H630 C651 0.950 . S
H631 C654 0.950 . S
H632 C655 0.950 . S
H633 C657 0.950 . S
H634 C658 0.950 . S
H635 C659 0.951 . S
H636 C661 0.951 . S
H637 C663 0.950 . S
H638 C664 0.950 . S
H639 C666 0.950 . S
H640 C669 0.950 . S
H641 C670 0.950 . S
H642 C672 0.950 . S
H643 C673 0.950 . S
C644 H626 0.951 . S
C644 C645 1.366 . S
C644 C646 1.388 . S
C645 C644 1.366 . S
C645 C649 1.385 . S
C646 H627 0.951 . S
C646 C644 1.388 . S
C646 C647 1.366 . S
C647 C646 1.366 . S
C647 C648 1.414 . S
C647 C650 1.499 . S
C648 H628 0.950 . S
C648 C647 1.414 . S
C648 C649 1.374 . S
C649 H629 0.950 . S
C649 C645 1.385 . S
C649 C648 1.374 . S
C650 C647 1.499 . S
C650 C651 1.373 . S
C650 C652 1.389 . S
C651 H630 0.950 . S
C651 C650 1.373 . S
C651 C667 1.377 . S
C652 C650 1.389 . S
C652 C653 1.524 . S
C652 C666 1.377 . S
C653 C652 1.524 . S
C653 C654 1.397 . S
C653 C658 1.363 . S
C654 H631 0.950 . S
C654 C653 1.397 . S
C654 C655 1.334 . S
C655 H632 0.950 . S
C655 C654 1.334 . S
C655 C656 1.287 . S
C656 C655 1.287 . S
C656 C657 1.524 . S
C656 H675 0.913 . S
C657 H633 0.950 . S
C657 C656 1.524 . S
C657 C658 1.415 . S
C658 H634 0.950 . S
C658 C653 1.363 . S
C658 C657 1.415 . S
C659 H635 0.951 . S
C659 C660 1.366 . S
C659 C661 1.388 . S
C660 C659 1.366 . S
C660 C664 1.385 . S
C661 H636 0.951 . S
C661 C659 1.388 . S
C661 C662 1.366 . S
C662 C661 1.366 . S
C662 C663 1.414 . S
C662 C665 1.499 . S
C663 H637 0.950 . S
C663 C662 1.414 . S
C663 C664 1.374 . S
C664 H638 0.950 . S
C664 C660 1.385 . S
C664 C663 1.374 . S
C665 C662 1.499 . S
C665 C666 1.373 . S
C665 C667 1.389 . S
C666 H639 0.950 . S
C666 C652 1.377 . S
C666 C665 1.373 . S
C667 C651 1.377 . S
C667 C665 1.389 . S
C667 C668 1.524 . S
C668 C667 1.524 . S
C668 C669 1.397 . S
C668 C673 1.363 . S
C669 H640 0.950 . S
C669 C668 1.397 . S
C669 C670 1.334 . S
C670 H641 0.950 . S
C670 C669 1.334 . S
C670 C671 1.287 . S
C671 C670 1.287 . S
C671 C672 1.524 . S
C671 H674 0.999 . S
C672 H642 0.950 . S
C672 C671 1.524 . S
C672 C673 1.415 . S
C673 H643 0.950 . S
C673 C668 1.363 . S
C673 C672 1.415 . S
H674 C671 0.999 . S
H675 C656 0.913 . S
H676 C694 0.951 . S
H677 C696 0.951 . S
H678 C698 0.950 . S
H679 C699 0.950 . S
H680 C701 0.950 . S
H681 C704 0.950 . S
H682 C705 0.950 . S
H683 C707 0.950 . S
H684 C708 0.950 . S
H685 C709 0.951 . S
H686 C711 0.951 . S
H687 C713 0.950 . S
H688 C714 0.950 . S
H689 C716 0.950 . S
H690 C719 0.950 . S
H691 C720 0.950 . S
H692 C722 0.950 . S
H693 C723 0.950 . S
C694 H676 0.951 . S
C694 C695 1.366 . S
C694 C696 1.388 . S
C695 C694 1.366 . S
C695 C699 1.385 . S
C696 H677 0.951 . S
C696 C694 1.388 . S
C696 C697 1.366 . S
C697 C696 1.366 . S
C697 C698 1.414 . S
C697 C700 1.499 . S
C698 H678 0.950 . S
C698 C697 1.414 . S
C698 C699 1.374 . S
C699 H679 0.950 . S
C699 C695 1.385 . S
C699 C698 1.374 . S
C700 C697 1.499 . S
C700 C701 1.373 . S
C700 C702 1.389 . S
C701 H680 0.950 . S
C701 C700 1.373 . S
C701 C717 1.377 . S
C702 C700 1.389 . S
C702 C703 1.524 . S
C702 C716 1.377 . S
C703 C702 1.524 . S
C703 C704 1.397 . S
C703 C708 1.363 . S
C704 H681 0.950 . S
C704 C703 1.397 . S
C704 C705 1.334 . S
C705 H682 0.950 . S
C705 C704 1.334 . S
C705 C706 1.287 . S
C706 C705 1.287 . S
C706 C707 1.524 . S
C706 H725 0.913 . S
C707 H683 0.950 . S
C707 C706 1.524 . S
C707 C708 1.415 . S
C708 H684 0.950 . S
C708 C703 1.363 . S
C708 C707 1.415 . S
C709 H685 0.951 . S
C709 C710 1.366 . S
C709 C711 1.388 . S
C710 C709 1.366 . S
C710 C714 1.385 . S
C711 H686 0.951 . S
C711 C709 1.388 . S
C711 C712 1.366 . S
C712 C711 1.366 . S
C712 C713 1.414 . S
C712 C715 1.499 . S
C713 H687 0.950 . S
C713 C712 1.414 . S
C713 C714 1.374 . S
C714 H688 0.950 . S
C714 C710 1.385 . S
C714 C713 1.374 . S
C715 C712 1.499 . S
C715 C716 1.373 . S
C715 C717 1.389 . S
C716 H689 0.950 . S
C716 C702 1.377 . S
C716 C715 1.373 . S
C717 C701 1.377 . S
C717 C715 1.389 . S
C717 C718 1.524 . S
C718 C717 1.524 . S
C718 C719 1.397 . S
C718 C723 1.363 . S
C719 H690 0.950 . S
C719 C718 1.397 . S
C719 C720 1.334 . S
C720 H691 0.950 . S
C720 C719 1.334 . S
C720 C721 1.287 . S
C721 C720 1.287 . S
C721 C722 1.524 . S
C721 H724 0.999 . S
C722 H692 0.950 . S
C722 C721 1.524 . S
C722 C723 1.415 . S
C723 H693 0.950 . S
C723 C718 1.363 . S
C723 C722 1.415 . S
H724 C721 0.999 . S
H725 C706 0.913 . S
H726 C744 0.951 . S
H727 C746 0.951 . S
H728 C748 0.950 . S
H729 C749 0.950 . S
H730 C751 0.950 1_545 S
H731 C754 0.950 . S
H732 C755 0.950 . S
H733 C757 0.950 . S
H734 C758 0.950 . S
H735 C759 0.951 . S
H736 C761 0.969 . S
H737 C763 0.950 . S
H738 C764 0.950 . S
H739 C766 0.950 . S
H740 C769 0.950 . S
H741 C770 0.950 . S
H742 C772 0.950 . S
H743 C773 0.950 . S
C744 H726 0.951 . S
C744 C745 1.366 . S
C744 C746 1.388 . S
C745 C744 1.366 . S
C745 C749 1.385 . S
C746 H727 0.951 . S
C746 C744 1.388 . S
C746 C747 1.366 . S
C747 C746 1.366 . S
C747 C748 1.414 . S
C747 C750 1.499 . S
C748 H728 0.950 . S
C748 C747 1.414 . S
C748 C749 1.374 . S
C749 H729 0.950 . S
C749 C745 1.385 . S
C749 C748 1.374 . S
C750 C747 1.499 . S
C750 C751 1.373 . S
C750 C752 1.389 . S
C751 H730 0.950 1_565 S
C751 C750 1.373 . S
C751 C767 1.377 1_565 S
C752 C750 1.389 . S
C752 C753 1.524 . S
C752 C766 1.377 . S
C753 C752 1.524 . S
C753 C754 1.397 . S
C753 C758 1.363 . S
C754 H731 0.950 . S
C754 C753 1.397 . S
C754 C755 1.334 . S
C755 H732 0.950 . S
C755 C754 1.334 . S
C755 C756 1.287 . S
C756 C755 1.287 . S
C756 C757 1.524 . S
C756 H775 0.913 . S
C757 H733 0.950 . S
C757 C756 1.524 . S
C757 C758 1.415 . S
C758 H734 0.950 . S
C758 C753 1.363 . S
C758 C757 1.415 . S
C759 H735 0.951 . S
C759 C760 1.366 1_545 S
C759 C761 1.388 . S
C760 C759 1.366 1_565 S
C760 C764 1.385 . S
C761 H736 0.969 . S
C761 C759 1.388 . S
C761 C762 1.349 1_545 S
C762 C761 1.349 1_565 S
C762 C763 1.414 . S
C762 C765 1.499 . S
C763 H737 0.950 . S
C763 C762 1.414 . S
C763 C764 1.374 . S
C764 H738 0.950 . S
C764 C760 1.385 . S
C764 C763 1.374 . S
C765 C762 1.499 . S
C765 C766 1.373 . S
C765 C767 1.389 1_565 S
C766 H739 0.950 . S
C766 C752 1.377 . S
C766 C765 1.373 . S
C767 C751 1.377 1_545 S
C767 C765 1.389 1_545 S
C767 C768 1.524 . S
C768 C767 1.524 . S
C768 C769 1.397 . S
C768 C773 1.363 . S
C769 H740 0.950 . S
C769 C768 1.397 . S
C769 C770 1.334 . S
C770 H741 0.950 . S
C770 C769 1.334 . S
C770 C771 1.287 . S
C771 C770 1.287 . S
C771 C772 1.524 . S
C771 H774 0.999 . S
C772 H742 0.950 . S
C772 C771 1.524 . S
C772 C773 1.415 . S
C773 H743 0.950 . S
C773 C768 1.363 . S
C773 C772 1.415 . S
H774 C771 0.999 . S
H775 C756 0.913 . S
H776 C794 0.951 . S
H777 C796 0.951 . S
H778 C798 0.950 . S
H779 C799 0.950 . S
H780 C801 0.950 . S
H781 C804 0.950 . S
H782 C805 0.950 . S
H783 C807 0.950 . S
H784 C808 0.950 . S
H785 C809 0.951 . S
H786 C811 0.951 . S
H787 C813 0.950 . S
H788 C814 0.950 . S
H789 C816 0.950 . S
H790 C819 0.950 . S
H791 C820 0.950 . S
H792 C822 0.950 . S
H793 C823 0.950 . S
C794 H776 0.951 . S
C794 C795 1.366 . S
C794 C796 1.388 . S
C795 C794 1.366 . S
C795 C799 1.385 . S
C796 H777 0.951 . S
C796 C794 1.388 . S
C796 C797 1.366 . S
C797 C796 1.366 . S
C797 C798 1.414 . S
C797 C800 1.499 . S
C798 H778 0.950 . S
C798 C797 1.414 . S
C798 C799 1.374 . S
C799 H779 0.950 . S
C799 C795 1.385 . S
C799 C798 1.374 . S
C800 C797 1.499 . S
C800 C801 1.373 . S
C800 C802 1.389 . S
C801 H780 0.950 . S
C801 C800 1.373 . S
C801 C817 1.377 . S
C802 C800 1.389 . S
C802 C803 1.524 . S
C802 C816 1.377 . S
C803 C802 1.524 . S
C803 C804 1.397 . S
C803 C808 1.363 . S
C804 H781 0.950 . S
C804 C803 1.397 . S
C804 C805 1.334 . S
C805 H782 0.950 . S
C805 C804 1.334 . S
C805 C806 1.287 . S
C806 C805 1.287 . S
C806 C807 1.524 . S
C806 H825 0.913 . S
C807 H783 0.950 . S
C807 C806 1.524 . S
C807 C808 1.415 . S
C808 H784 0.950 . S
C808 C803 1.363 . S
C808 C807 1.415 . S
C809 H785 0.951 . S
C809 C810 1.366 . S
C809 C811 1.388 . S
C810 C809 1.366 . S
C810 C814 1.385 . S
C811 H786 0.951 . S
C811 C809 1.388 . S
C811 C812 1.366 . S
C812 C811 1.366 . S
C812 C813 1.414 . S
C812 C815 1.499 . S
C813 H787 0.950 . S
C813 C812 1.414 . S
C813 C814 1.374 . S
C814 H788 0.950 . S
C814 C810 1.385 . S
C814 C813 1.374 . S
C815 C812 1.499 . S
C815 C816 1.373 . S
C815 C817 1.389 . S
C816 H789 0.950 . S
C816 C802 1.377 . S
C816 C815 1.373 . S
C817 C801 1.377 . S
C817 C815 1.389 . S
C817 C818 1.524 . S
C818 C817 1.524 . S
C818 C819 1.397 . S
C818 C823 1.363 . S
C819 H790 0.950 . S
C819 C818 1.397 . S
C819 C820 1.334 . S
C820 H791 0.950 . S
C820 C819 1.334 . S
C820 C821 1.287 . S
C821 C820 1.287 . S
C821 C822 1.524 . S
C821 H824 0.999 . S
C822 H792 0.950 . S
C822 C821 1.524 . S
C822 C823 1.415 . S
C823 H793 0.950 . S
C823 C818 1.363 . S
C823 C822 1.415 . S
H824 C821 0.999 . S
H825 C806 0.913 . S
H826 C844 0.951 . S
H827 C846 0.951 . S
H828 C848 0.950 . S
H829 C849 0.950 . S
H830 C851 0.950 . S
H831 C854 0.950 . S
H832 C855 0.950 . S
H833 C857 0.950 . S
H834 C858 0.950 . S
H835 C859 0.951 . S
H836 C861 0.951 . S
H837 C863 0.950 . S
H838 C864 0.950 . S
H839 C866 0.950 . S
H840 C869 0.950 . S
H841 C870 0.950 . S
H842 C872 0.950 . S
H843 C873 0.950 . S
C844 H826 0.951 . S
C844 C845 1.366 . S
C844 C846 1.388 . S
C845 C844 1.366 . S
C845 C849 1.385 . S
C846 H827 0.951 . S
C846 C844 1.388 . S
C846 C847 1.366 . S
C847 C846 1.366 . S
C847 C848 1.414 . S
C847 C850 1.499 . S
C848 H828 0.950 . S
C848 C847 1.414 . S
C848 C849 1.374 . S
C849 H829 0.950 . S
C849 C845 1.385 . S
C849 C848 1.374 . S
C850 C847 1.499 . S
C850 C851 1.373 . S
C850 C852 1.389 . S
C851 H830 0.950 . S
C851 C850 1.373 . S
C851 C867 1.377 . S
C852 C850 1.389 . S
C852 C853 1.524 . S
C852 C866 1.377 . S
C853 C852 1.524 . S
C853 C854 1.397 . S
C853 C858 1.363 . S
C854 H831 0.950 . S
C854 C853 1.397 . S
C854 C855 1.334 . S
C855 H832 0.950 . S
C855 C854 1.334 . S
C855 C856 1.287 . S
C856 C855 1.287 . S
C856 C857 1.524 . S
C856 H875 0.913 . S
C857 H833 0.950 . S
C857 C856 1.524 . S
C857 C858 1.415 . S
C858 H834 0.950 . S
C858 C853 1.363 . S
C858 C857 1.415 . S
C859 H835 0.951 . S
C859 C860 1.366 . S
C859 C861 1.388 . S
C860 C859 1.366 . S
C860 C864 1.385 . S
C861 H836 0.951 . S
C861 C859 1.388 . S
C861 C862 1.366 . S
C862 C861 1.366 . S
C862 C863 1.414 . S
C862 C865 1.499 . S
C863 H837 0.950 . S
C863 C862 1.414 . S
C863 C864 1.374 . S
C864 H838 0.950 . S
C864 C860 1.385 . S
C864 C863 1.374 . S
C865 C862 1.499 . S
C865 C866 1.373 . S
C865 C867 1.389 . S
C866 H839 0.950 . S
C866 C852 1.377 . S
C866 C865 1.373 . S
C867 C851 1.377 . S
C867 C865 1.389 . S
C867 C868 1.524 . S
C868 C867 1.524 . S
C868 C869 1.397 . S
C868 C873 1.363 . S
C869 H840 0.950 . S
C869 C868 1.397 . S
C869 C870 1.334 . S
C870 H841 0.950 . S
C870 C869 1.334 . S
C870 C871 1.287 . S
C871 C870 1.287 . S
C871 C872 1.524 . S
C871 H874 0.999 . S
C872 H842 0.950 . S
C872 C871 1.524 . S
C872 C873 1.415 . S
C873 H843 0.950 . S
C873 C868 1.363 . S
C873 C872 1.415 . S
H874 C871 0.999 . S
H875 C856 0.913 . S
H876 C894 0.951 . S
H877 C896 0.951 . S
H878 C898 0.950 . S
H879 C899 0.950 . S
H880 C901 0.950 . S
H881 C904 0.950 . S
H882 C905 0.950 . S
H883 C907 0.950 . S
H884 C908 0.950 . S
H885 C909 0.951 . S
H886 C911 0.951 . S
H887 C913 0.950 . S
H888 C914 0.950 . S
H889 C916 0.950 . S
H890 C919 0.950 . S
H891 C920 0.950 . S
H892 C922 0.950 . S
H893 C923 0.950 . S
C894 H876 0.951 . S
C894 C895 1.366 . S
C894 C896 1.388 . S
C895 C894 1.366 . S
C895 C899 1.385 . S
C896 H877 0.951 . S
C896 C894 1.388 . S
C896 C897 1.366 . S
C897 C896 1.366 . S
C897 C898 1.414 . S
C897 C900 1.499 . S
C898 H878 0.950 . S
C898 C897 1.414 . S
C898 C899 1.374 . S
C899 H879 0.950 . S
C899 C895 1.385 . S
C899 C898 1.374 . S
C900 C897 1.499 . S
C900 C901 1.373 . S
C900 C902 1.389 . S
C901 H880 0.950 . S
C901 C900 1.373 . S
C901 C917 1.377 . S
C902 C900 1.389 . S
C902 C903 1.524 . S
C902 C916 1.377 . S
C903 C902 1.524 . S
C903 C904 1.397 . S
C903 C908 1.363 . S
C904 H881 0.950 . S
C904 C903 1.397 . S
C904 C905 1.334 . S
C905 H882 0.950 . S
C905 C904 1.334 . S
C905 C906 1.287 . S
C906 C905 1.287 . S
C906 C907 1.524 . S
C906 H925 0.913 . S
C907 H883 0.950 . S
C907 C906 1.524 . S
C907 C908 1.415 . S
C908 H884 0.950 . S
C908 C903 1.363 . S
C908 C907 1.415 . S
C909 H885 0.951 . S
C909 C910 1.366 . S
C909 C911 1.388 . S
C910 C909 1.366 . S
C910 C914 1.385 . S
C911 H886 0.951 . S
C911 C909 1.388 . S
C911 C912 1.366 . S
C912 C911 1.366 . S
C912 C913 1.414 . S
C912 C915 1.499 . S
C913 H887 0.950 . S
C913 C912 1.414 . S
C913 C914 1.374 . S
C914 H888 0.950 . S
C914 C910 1.385 . S
C914 C913 1.374 . S
C915 C912 1.499 . S
C915 C916 1.373 . S
C915 C917 1.389 . S
C916 H889 0.950 . S
C916 C902 1.377 . S
C916 C915 1.373 . S
C917 C901 1.377 . S
C917 C915 1.389 . S
C917 C918 1.524 . S
C918 C917 1.524 . S
C918 C919 1.397 . S
C918 C923 1.363 . S
C919 H890 0.950 . S
C919 C918 1.397 . S
C919 C920 1.334 . S
C920 H891 0.950 . S
C920 C919 1.334 . S
C920 C921 1.287 . S
C921 C920 1.287 . S
C921 C922 1.524 . S
C921 H924 0.999 . S
C922 H892 0.950 . S
C922 C921 1.524 . S
C922 C923 1.415 . S
C923 H893 0.950 . S
C923 C918 1.363 . S
C923 C922 1.415 . S
H924 C921 0.999 . S
H925 C906 0.913 . S
H926 C944 0.951 . S
H927 C946 0.951 . S
H928 C948 0.950 . S
H929 C949 0.950 . S
H930 C951 0.950 . S
H931 C954 0.950 . S
H932 C955 0.950 . S
H933 C957 0.950 . S
H934 C958 0.950 . S
H935 C959 0.951 . S
H936 C961 0.951 . S
H937 C963 0.950 . S
H938 C964 0.950 . S
H939 C966 0.950 . S
H940 C969 0.950 . S
H941 C970 0.950 . S
H942 C972 0.950 . S
H943 C973 0.950 . S
C944 H926 0.951 . S
C944 C945 1.366 . S
C944 C946 1.388 . S
C945 C944 1.366 . S
C945 C949 1.385 . S
C946 H927 0.951 . S
C946 C944 1.388 . S
C946 C947 1.366 . S
C947 C946 1.366 . S
C947 C948 1.414 . S
C947 C950 1.499 . S
C948 H928 0.950 . S
C948 C947 1.414 . S
C948 C949 1.374 . S
C949 H929 0.950 . S
C949 C945 1.385 . S
C949 C948 1.374 . S
C950 C947 1.499 . S
C950 C951 1.373 . S
C950 C952 1.389 . S
C951 H930 0.950 . S
C951 C950 1.373 . S
C951 C967 1.377 . S
C952 C950 1.389 . S
C952 C953 1.524 . S
C952 C966 1.377 . S
C953 C952 1.524 . S
C953 C954 1.397 . S
C953 C958 1.363 . S
C954 H931 0.950 . S
C954 C953 1.397 . S
C954 C955 1.334 . S
C955 H932 0.950 . S
C955 C954 1.334 . S
C955 C956 1.287 . S
C956 C955 1.287 . S
C956 C957 1.524 . S
C956 H975 0.913 . S
C957 H933 0.950 . S
C957 C956 1.524 . S
C957 C958 1.415 . S
C958 H934 0.950 . S
C958 C953 1.363 . S
C958 C957 1.415 . S
C959 H935 0.951 . S
C959 C960 1.366 . S
C959 C961 1.388 . S
C960 C959 1.366 . S
C960 C964 1.385 . S
C961 H936 0.951 . S
C961 C959 1.388 . S
C961 C962 1.366 . S
C962 C961 1.366 . S
C962 C963 1.414 . S
C962 C965 1.499 . S
C963 H937 0.950 . S
C963 C962 1.414 . S
C963 C964 1.374 . S
C964 H938 0.950 . S
C964 C960 1.385 . S
C964 C963 1.374 . S
C965 C962 1.499 . S
C965 C966 1.373 . S
C965 C967 1.389 . S
C966 H939 0.950 . S
C966 C952 1.377 . S
C966 C965 1.373 . S
C967 C951 1.377 . S
C967 C965 1.389 . S
C967 C968 1.524 . S
C968 C967 1.524 . S
C968 C969 1.397 . S
C968 C973 1.363 . S
C969 H940 0.950 . S
C969 C968 1.397 . S
C969 C970 1.334 . S
C970 H941 0.950 . S
C970 C969 1.334 . S
C970 C971 1.287 . S
C971 C970 1.287 . S
C971 C972 1.524 . S
C971 H974 0.999 . S
C972 H942 0.950 . S
C972 C971 1.524 . S
C972 C973 1.415 . S
C973 H943 0.950 . S
C973 C968 1.363 . S
C973 C972 1.415 . S
H974 C971 0.999 . S
H975 C956 0.913 . S
H976 C994 0.951 . S
H977 C996 0.951 . S
H978 C998 0.950 . S
H979 C999 0.950 . S
H980 C1001 0.950 . S
H981 C1004 0.950 . S
H982 C1005 0.950 . S
H983 C1007 0.950 . S
H984 C1008 0.950 . S
H985 C1009 0.951 . S
H986 C1011 0.951 . S
H987 C1013 0.950 . S
H988 C1014 0.950 . S
H989 C1016 0.950 . S
H990 C1019 0.950 . S
H991 C1020 0.950 . S
H992 C1022 0.950 . S
H993 C1023 0.950 . S
C994 H976 0.951 . S
C994 C995 1.366 . S
C994 C996 1.388 . S
C995 C994 1.366 . S
C995 C999 1.385 . S
C996 H977 0.951 . S
C996 C994 1.388 . S
C996 C997 1.366 . S
C997 C996 1.366 . S
C997 C998 1.414 . S
C997 C1000 1.499 . S
C998 H978 0.950 . S
C998 C997 1.414 . S
C998 C999 1.374 . S
C999 H979 0.950 . S
C999 C995 1.385 . S
C999 C998 1.374 . S
C1000 C997 1.499 . S
C1000 C1001 1.373 . S
C1000 C1002 1.389 . S
C1001 H980 0.950 . S
C1001 C1000 1.373 . S
C1001 C1017 1.377 . S
C1002 C1000 1.389 . S
C1002 C1003 1.524 . S
C1002 C1016 1.377 . S
C1003 C1002 1.524 . S
C1003 C1004 1.397 . S
C1003 C1008 1.363 . S
C1004 H981 0.950 . S
C1004 C1003 1.397 . S
C1004 C1005 1.334 . S
C1005 H982 0.950 . S
C1005 C1004 1.334 . S
C1005 C1006 1.287 . S
C1006 C1005 1.287 . S
C1006 C1007 1.524 . S
C1006 H1025 0.913 . S
C1007 H983 0.950 . S
C1007 C1006 1.524 . S
C1007 C1008 1.415 . S
C1008 H984 0.950 . S
C1008 C1003 1.363 . S
C1008 C1007 1.415 . S
C1009 H985 0.951 . S
C1009 C1010 1.366 . S
C1009 C1011 1.388 . S
C1010 C1009 1.366 . S
C1010 C1014 1.385 . S
C1011 H986 0.951 . S
C1011 C1009 1.388 . S
C1011 C1012 1.366 . S
C1012 C1011 1.366 . S
C1012 C1013 1.414 . S
C1012 C1015 1.499 . S
C1013 H987 0.950 . S
C1013 C1012 1.414 . S
C1013 C1014 1.374 . S
C1014 H988 0.950 . S
C1014 C1010 1.385 . S
C1014 C1013 1.374 . S
C1015 C1012 1.499 . S
C1015 C1016 1.373 . S
C1015 C1017 1.389 . S
C1016 H989 0.950 . S
C1016 C1002 1.377 . S
C1016 C1015 1.373 . S
C1017 C1001 1.377 . S
C1017 C1015 1.389 . S
C1017 C1018 1.524 . S
C1018 C1017 1.524 . S
C1018 C1019 1.397 . S
C1018 C1023 1.363 . S
C1019 H990 0.950 . S
C1019 C1018 1.397 . S
C1019 C1020 1.334 . S
C1020 H991 0.950 . S
C1020 C1019 1.334 . S
C1020 C1021 1.287 . S
C1021 C1020 1.287 . S
C1021 C1022 1.524 . S
C1021 H1024 0.999 . S
C1022 H992 0.950 . S
C1022 C1021 1.524 . S
C1022 C1023 1.415 . S
C1023 H993 0.950 . S
C1023 C1018 1.363 . S
C1023 C1022 1.415 . S
H1024 C1021 0.999 . S
H1025 C1006 0.913 . S
H1026 C1044 0.951 . S
H1027 C1046 0.951 . S
H1028 C1048 0.950 . S
H1029 C1049 0.950 . S
H1030 C1051 0.950 . S
H1031 C1054 0.950 . S
H1032 C1055 0.950 . S
H1033 C1057 0.950 . S
H1034 C1058 0.950 . S
H1035 C1059 0.951 . S
H1036 C1061 0.951 . S
H1037 C1063 0.950 . S
H1038 C1064 0.950 . S
H1039 C1066 0.950 . S
H1040 C1069 0.950 . S
H1041 C1070 0.950 . S
H1042 C1072 0.950 . S
H1043 C1073 0.950 1_655 S
C1044 H1026 0.951 . S
C1044 C1045 1.366 . S
C1044 C1046 1.388 . S
C1045 C1044 1.366 . S
C1045 C1049 1.385 . S
C1046 H1027 0.951 . S
C1046 C1044 1.388 . S
C1046 C1047 1.366 . S
C1047 C1046 1.366 . S
C1047 C1048 1.414 . S
C1047 C1050 1.499 . S
C1048 H1028 0.950 . S
C1048 C1047 1.414 . S
C1048 C1049 1.374 . S
C1049 H1029 0.950 . S
C1049 C1045 1.385 . S
C1049 C1048 1.374 . S
C1050 C1047 1.499 . S
C1050 C1051 1.373 . S
C1050 C1052 1.389 . S
C1051 H1030 0.950 . S
C1051 C1050 1.373 . S
C1051 C1067 1.377 . S
C1052 C1050 1.389 . S
C1052 C1053 1.524 . S
C1052 C1066 1.377 . S
C1053 C1052 1.524 . S
C1053 C1054 1.397 . S
C1053 C1058 1.363 . S
C1054 H1031 0.950 . S
C1054 C1053 1.397 . S
C1054 C1055 1.334 . S
C1055 H1032 0.950 . S
C1055 C1054 1.334 . S
C1055 C1056 1.287 . S
C1056 C1055 1.287 . S
C1056 C1057 1.524 . S
C1056 H1075 0.913 . S
C1057 H1033 0.950 . S
C1057 C1056 1.524 . S
C1057 C1058 1.415 . S
C1058 H1034 0.950 . S
C1058 C1053 1.363 . S
C1058 C1057 1.415 . S
C1059 H1035 0.951 . S
C1059 C1060 1.366 . S
C1059 C1061 1.388 . S
C1060 C1059 1.366 . S
C1060 C1064 1.385 . S
C1061 H1036 0.951 . S
C1061 C1059 1.388 . S
C1061 C1062 1.366 . S
C1062 C1061 1.366 . S
C1062 C1063 1.414 . S
C1062 C1065 1.499 . S
C1063 H1037 0.950 . S
C1063 C1062 1.414 . S
C1063 C1064 1.374 . S
C1064 H1038 0.950 . S
C1064 C1060 1.385 . S
C1064 C1063 1.374 . S
C1065 C1062 1.499 . S
C1065 C1066 1.373 . S
C1065 C1067 1.389 . S
C1066 H1039 0.950 . S
C1066 C1052 1.377 . S
C1066 C1065 1.373 . S
C1067 C1051 1.377 . S
C1067 C1065 1.389 . S
C1067 C1068 1.524 . S
C1068 C1067 1.524 . S
C1068 C1069 1.397 . S
C1068 C1073 1.363 . S
C1069 H1040 0.950 . S
C1069 C1068 1.397 . S
C1069 C1070 1.334 . S
C1070 H1041 0.950 . S
C1070 C1069 1.334 . S
C1070 C1071 1.287 . S
C1071 C1070 1.287 . S
C1071 C1072 1.524 1_455 S
C1071 H1074 1.001 . S
C1072 H1042 0.950 . S
C1072 C1071 1.524 1_655 S
C1072 C1073 1.415 1_655 S
C1073 H1043 0.950 1_455 S
C1073 C1068 1.363 . S
C1073 C1072 1.415 1_455 S
H1074 C1071 1.001 . S
H1075 C1056 0.913 . S
H1076 C1094 0.951 . S
H1077 C1096 0.951 . S
H1078 C1098 0.950 . S
H1079 C1099 0.950 . S
H1080 C1101 0.950 . S
H1081 C1104 0.950 . S
H1082 C1105 0.950 . S
H1083 C1107 0.950 . S
H1084 C1108 0.950 . S
H1085 C1109 0.951 . S
H1086 C1111 0.951 . S
H1087 C1113 0.950 . S
H1088 C1114 0.950 . S
H1089 C1116 0.950 . S
H1090 C1119 0.950 . S
H1091 C1120 0.950 . S
H1092 C1122 0.950 . S
H1093 C1123 0.950 . S
C1094 H1076 0.951 . S
C1094 C1095 1.366 . S
C1094 C1096 1.388 . S
C1095 C1094 1.366 . S
C1095 C1099 1.385 . S
C1096 H1077 0.951 . S
C1096 C1094 1.388 . S
C1096 C1097 1.366 . S
C1097 C1096 1.366 . S
C1097 C1098 1.414 . S
C1097 C1100 1.499 . S
C1098 H1078 0.950 . S
C1098 C1097 1.414 . S
C1098 C1099 1.374 . S
C1099 H1079 0.950 . S
C1099 C1095 1.385 . S
C1099 C1098 1.374 . S
C1100 C1097 1.499 . S
C1100 C1101 1.373 . S
C1100 C1102 1.389 . S
C1101 H1080 0.950 . S
C1101 C1100 1.373 . S
C1101 C1117 1.377 . S
C1102 C1100 1.389 . S
C1102 C1103 1.524 . S
C1102 C1116 1.377 . S
C1103 C1102 1.524 . S
C1103 C1104 1.397 . S
C1103 C1108 1.363 . S
C1104 H1081 0.950 . S
C1104 C1103 1.397 . S
C1104 C1105 1.334 . S
C1105 H1082 0.950 . S
C1105 C1104 1.334 . S
C1105 C1106 1.287 . S
C1106 C1105 1.287 . S
C1106 C1107 1.524 . S
C1106 H1125 0.913 . S
C1107 H1083 0.950 . S
C1107 C1106 1.524 . S
C1107 C1108 1.415 . S
C1108 H1084 0.950 . S
C1108 C1103 1.363 . S
C1108 C1107 1.415 . S
C1109 H1085 0.951 . S
C1109 C1110 1.366 . S
C1109 C1111 1.388 . S
C1110 C1109 1.366 . S
C1110 C1114 1.385 . S
C1111 H1086 0.951 . S
C1111 C1109 1.388 . S
C1111 C1112 1.366 . S
C1112 C1111 1.366 . S
C1112 C1113 1.414 . S
C1112 C1115 1.499 . S
C1113 H1087 0.950 . S
C1113 C1112 1.414 . S
C1113 C1114 1.374 . S
C1114 H1088 0.950 . S
C1114 C1110 1.385 . S
C1114 C1113 1.374 . S
C1115 C1112 1.499 . S
C1115 C1116 1.373 . S
C1115 C1117 1.389 . S
C1116 H1089 0.950 . S
C1116 C1102 1.377 . S
C1116 C1115 1.373 . S
C1117 C1101 1.377 . S
C1117 C1115 1.389 . S
C1117 C1118 1.524 . S
C1118 C1117 1.524 . S
C1118 C1119 1.397 . S
C1118 C1123 1.363 . S
C1119 H1090 0.950 . S
C1119 C1118 1.397 . S
C1119 C1120 1.334 . S
C1120 H1091 0.950 . S
C1120 C1119 1.334 . S
C1120 C1121 1.287 . S
C1121 C1120 1.287 . S
C1121 C1122 1.524 . S
C1121 H1124 0.999 . S
C1122 H1092 0.950 . S
C1122 C1121 1.524 . S
C1122 C1123 1.415 . S
C1123 H1093 0.950 . S
C1123 C1118 1.363 . S
C1123 C1122 1.415 . S
H1124 C1121 0.999 . S
H1125 C1106 0.913 . S
H1126 C1144 0.951 . S
H1127 C1146 0.951 . S
H1128 C1148 0.950 . S
H1129 C1149 0.950 . S
H1130 C1151 0.950 . S
H1131 C1154 0.950 . S
H1132 C1155 0.950 . S
H1133 C1157 0.950 . S
H1134 C1158 0.950 . S
H1135 C1159 0.951 . S
H1136 C1161 0.951 . S
H1137 C1163 0.950 . S
H1138 C1164 0.950 . S
H1139 C1166 0.950 . S
H1140 C1169 0.950 . S
H1141 C1170 0.950 . S
H1142 C1172 0.950 . S
H1143 C1173 0.950 . S
C1144 H1126 0.951 . S
C1144 C1145 1.366 . S
C1144 C1146 1.388 . S
C1145 C1144 1.366 . S
C1145 C1149 1.385 . S
C1146 H1127 0.951 . S
C1146 C1144 1.388 . S
C1146 C1147 1.366 . S
C1147 C1146 1.366 . S
C1147 C1148 1.414 . S
C1147 C1150 1.499 . S
C1148 H1128 0.950 . S
C1148 C1147 1.414 . S
C1148 C1149 1.374 . S
C1149 H1129 0.950 . S
C1149 C1145 1.385 . S
C1149 C1148 1.374 . S
C1150 C1147 1.499 . S
C1150 C1151 1.373 . S
C1150 C1152 1.389 . S
C1151 H1130 0.950 . S
C1151 C1150 1.373 . S
C1151 C1167 1.377 . S
C1152 C1150 1.389 . S
C1152 C1153 1.524 . S
C1152 C1166 1.377 . S
C1153 C1152 1.524 . S
C1153 C1154 1.397 . S
C1153 C1158 1.363 . S
C1154 H1131 0.950 . S
C1154 C1153 1.397 . S
C1154 C1155 1.334 . S
C1155 H1132 0.950 . S
C1155 C1154 1.334 . S
C1155 C1156 1.287 . S
C1156 C1155 1.287 . S
C1156 C1157 1.524 . S
C1156 H1175 0.913 . S
C1157 H1133 0.950 . S
C1157 C1156 1.524 . S
C1157 C1158 1.415 . S
C1158 H1134 0.950 . S
C1158 C1153 1.363 . S
C1158 C1157 1.415 . S
C1159 H1135 0.951 . S
C1159 C1160 1.366 1_655 S
C1159 C1161 1.388 . S
C1160 C1159 1.366 1_455 S
C1160 C1164 1.385 . S
C1161 H1136 0.951 . S
C1161 C1159 1.388 . S
C1161 C1162 1.366 . S
C1162 C1161 1.366 . S
C1162 C1163 1.414 1_655 S
C1162 C1165 1.499 . S
C1163 H1137 0.950 . S
C1163 C1162 1.414 1_455 S
C1163 C1164 1.374 . S
C1164 H1138 0.950 . S
C1164 C1160 1.385 . S
C1164 C1163 1.374 . S
C1165 C1162 1.499 . S
C1165 C1166 1.373 . S
C1165 C1167 1.389 . S
C1166 H1139 0.950 . S
C1166 C1152 1.377 . S
C1166 C1165 1.373 . S
C1167 C1151 1.377 . S
C1167 C1165 1.389 . S
C1167 C1168 1.524 . S
C1168 C1167 1.524 . S
C1168 C1169 1.397 1_655 S
C1168 C1173 1.363 . S
C1169 H1140 0.950 . S
C1169 C1168 1.397 1_455 S
C1169 C1170 1.334 . S
C1170 H1141 0.950 . S
C1170 C1169 1.334 . S
C1170 C1171 1.287 . S
C1171 C1170 1.287 . S
C1171 C1172 1.524 1_455 S
C1171 H1174 0.999 . S
C1172 H1142 0.950 . S
C1172 C1171 1.524 1_655 S
C1172 C1173 1.415 . S
C1173 H1143 0.950 . S
C1173 C1168 1.363 . S
C1173 C1172 1.415 . S
H1174 C1171 0.999 . S
H1175 C1156 0.913 . S
H1176 C1194 0.951 . S
H1177 C1196 0.951 . S
H1178 C1198 0.950 . S
H1179 C1199 0.950 . S
H1180 C1201 0.950 . S
H1181 C1204 0.950 . S
H1182 C1205 0.950 . S
H1183 C1207 0.950 . S
H1184 C1208 0.950 . S
H1185 C1209 0.951 . S
H1186 C1211 0.951 . S
H1187 C1213 0.950 . S
H1188 C1214 0.950 . S
H1189 C1216 0.950 . S
H1190 C1219 0.950 . S
H1191 C1220 0.950 . S
H1192 C1222 0.950 . S
H1193 C1223 0.950 . S
C1194 H1176 0.951 . S
C1194 C1195 1.366 . S
C1194 C1196 1.388 . S
C1195 C1194 1.366 . S
C1195 C1199 1.385 . S
C1196 H1177 0.951 . S
C1196 C1194 1.388 . S
C1196 C1197 1.366 . S
C1197 C1196 1.366 . S
C1197 C1198 1.414 . S
C1197 C1200 1.499 . S
C1198 H1178 0.950 . S
C1198 C1197 1.414 . S
C1198 C1199 1.374 . S
C1199 H1179 0.950 . S
C1199 C1195 1.385 . S
C1199 C1198 1.374 . S
C1200 C1197 1.499 . S
C1200 C1201 1.373 . S
C1200 C1202 1.389 . S
C1201 H1180 0.950 . S
C1201 C1200 1.373 . S
C1201 C1217 1.377 . S
C1202 C1200 1.389 . S
C1202 C1203 1.524 . S
C1202 C1216 1.377 . S
C1203 C1202 1.524 . S
C1203 C1204 1.397 . S
C1203 C1208 1.363 . S
C1204 H1181 0.950 . S
C1204 C1203 1.397 . S
C1204 C1205 1.334 . S
C1205 H1182 0.950 . S
C1205 C1204 1.334 . S
C1205 C1206 1.287 . S
C1206 C1205 1.287 . S
C1206 C1207 1.524 . S
C1206 H1225 0.913 . S
C1207 H1183 0.950 . S
C1207 C1206 1.524 . S
C1207 C1208 1.415 . S
C1208 H1184 0.950 . S
C1208 C1203 1.363 . S
C1208 C1207 1.415 . S
C1209 H1185 0.951 . S
C1209 C1210 1.366 . S
C1209 C1211 1.388 . S
C1210 C1209 1.366 . S
C1210 C1214 1.385 . S
C1211 H1186 0.951 . S
C1211 C1209 1.388 . S
C1211 C1212 1.366 . S
C1212 C1211 1.366 . S
C1212 C1213 1.414 . S
C1212 C1215 1.499 . S
C1213 H1187 0.950 . S
C1213 C1212 1.414 . S
C1213 C1214 1.374 . S
C1214 H1188 0.950 . S
C1214 C1210 1.385 . S
C1214 C1213 1.374 . S
C1215 C1212 1.499 . S
C1215 C1216 1.373 . S
C1215 C1217 1.389 . S
C1216 H1189 0.950 . S
C1216 C1202 1.377 . S
C1216 C1215 1.373 . S
C1217 C1201 1.377 . S
C1217 C1215 1.389 . S
C1217 C1218 1.524 . S
C1218 C1217 1.524 . S
C1218 C1219 1.397 . S
C1218 C1223 1.363 . S
C1219 H1190 0.950 . S
C1219 C1218 1.397 . S
C1219 C1220 1.334 . S
C1220 H1191 0.950 . S
C1220 C1219 1.334 . S
C1220 C1221 1.287 . S
C1221 C1220 1.287 . S
C1221 C1222 1.524 . S
C1221 H1224 0.999 . S
C1222 H1192 0.950 . S
C1222 C1221 1.524 . S
C1222 C1223 1.415 . S
C1223 H1193 0.950 . S
C1223 C1218 1.363 . S
C1223 C1222 1.415 . S
H1224 C1221 0.999 . S
H1225 C1206 0.913 . S
H1226 C1244 0.951 . S
H1227 C1246 0.951 . S
H1228 C1248 0.950 . S
H1229 C1249 0.950 . S
H1230 C1251 0.950 . S
H1231 C1254 0.950 . S
H1232 C1255 0.950 . S
H1233 C1257 0.950 . S
H1234 C1258 0.950 . S
H1235 C1259 0.951 . S
H1236 C1261 0.951 . S
H1237 C1263 0.950 . S
H1238 C1264 0.950 . S
H1239 C1266 0.950 . S
H1240 C1269 0.950 . S
H1241 C1270 0.950 . S
H1242 C1272 0.950 . S
H1243 C1273 0.950 . S
C1244 H1226 0.951 . S
C1244 C1245 1.366 . S
C1244 C1246 1.388 . S
C1245 C1244 1.366 . S
C1245 C1249 1.385 . S
C1246 H1227 0.951 . S
C1246 C1244 1.388 . S
C1246 C1247 1.366 . S
C1247 C1246 1.366 . S
C1247 C1248 1.414 . S
C1247 C1250 1.499 . S
C1248 H1228 0.950 . S
C1248 C1247 1.414 . S
C1248 C1249 1.374 . S
C1249 H1229 0.950 . S
C1249 C1245 1.385 . S
C1249 C1248 1.374 . S
C1250 C1247 1.499 . S
C1250 C1251 1.373 . S
C1250 C1252 1.389 . S
C1251 H1230 0.950 . S
C1251 C1250 1.373 . S
C1251 C1267 1.377 . S
C1252 C1250 1.389 . S
C1252 C1253 1.524 . S
C1252 C1266 1.377 . S
C1253 C1252 1.524 . S
C1253 C1254 1.397 . S
C1253 C1258 1.363 . S
C1254 H1231 0.950 . S
C1254 C1253 1.397 . S
C1254 C1255 1.334 . S
C1255 H1232 0.950 . S
C1255 C1254 1.334 . S
C1255 C1256 1.287 . S
C1256 C1255 1.287 . S
C1256 C1257 1.524 . S
C1256 H1275 0.913 . S
C1257 H1233 0.950 . S
C1257 C1256 1.524 . S
C1257 C1258 1.415 . S
C1258 H1234 0.950 . S
C1258 C1253 1.363 . S
C1258 C1257 1.415 . S
C1259 H1235 0.951 . S
C1259 C1260 1.366 . S
C1259 C1261 1.388 . S
C1260 C1259 1.366 . S
C1260 C1264 1.385 . S
C1261 H1236 0.951 . S
C1261 C1259 1.388 . S
C1261 C1262 1.366 . S
C1262 C1261 1.366 . S
C1262 C1263 1.414 . S
C1262 C1265 1.499 . S
C1263 H1237 0.950 . S
C1263 C1262 1.414 . S
C1263 C1264 1.374 . S
C1264 H1238 0.950 . S
C1264 C1260 1.385 . S
C1264 C1263 1.374 . S
C1265 C1262 1.499 . S
C1265 C1266 1.373 . S
C1265 C1267 1.389 . S
C1266 H1239 0.950 . S
C1266 C1252 1.377 . S
C1266 C1265 1.373 . S
C1267 C1251 1.377 . S
C1267 C1265 1.389 . S
C1267 C1268 1.524 . S
C1268 C1267 1.524 . S
C1268 C1269 1.397 . S
C1268 C1273 1.363 . S
C1269 H1240 0.950 . S
C1269 C1268 1.397 . S
C1269 C1270 1.334 . S
C1270 H1241 0.950 . S
C1270 C1269 1.334 . S
C1270 C1271 1.287 . S
C1271 C1270 1.287 . S
C1271 C1272 1.524 . S
C1271 H1274 0.999 . S
C1272 H1242 0.950 . S
C1272 C1271 1.524 . S
C1272 C1273 1.415 . S
C1273 H1243 0.950 . S
C1273 C1268 1.363 . S
C1273 C1272 1.415 . S
H1274 C1271 0.999 . S
H1275 C1256 0.913 . S
H1276 C1294 0.951 . S
H1277 C1296 0.951 . S
H1278 C1298 0.950 . S
H1279 C1299 0.950 . S
H1280 C1301 0.950 . S
H1281 C1304 0.927 1_554 S
H1282 C1305 0.950 . S
H1283 C1307 0.950 . S
H1284 C1308 0.950 . S
H1285 C1309 0.951 . S
H1286 C1311 0.951 . S
H1287 C1313 0.950 . S
H1288 C1314 0.950 . S
H1289 C1316 0.950 . S
H1290 C1319 0.950 1_556 S
H1291 C1320 0.950 . S
H1292 C1322 0.950 . S
H1293 C1323 0.950 . S
C1294 H1276 0.951 . S
C1294 C1295 1.366 . S
C1294 C1296 1.388 1_545 S
C1295 C1294 1.366 . S
C1295 C1299 1.385 1_556 S
C1296 H1277 0.951 . S
C1296 C1294 1.388 1_565 S
C1296 C1297 1.366 . S
C1297 C1296 1.366 . S
C1297 C1298 1.414 1_556 S
C1297 C1300 1.499 . S
C1298 H1278 0.950 . S
C1298 C1297 1.414 1_554 S
C1298 C1299 1.374 1_565 S
C1299 H1279 0.950 . S
C1299 C1295 1.385 1_554 S
C1299 C1298 1.374 1_545 S
C1300 C1297 1.499 . S
C1300 C1301 1.373 1_556 S
C1300 C1302 1.389 . S
C1301 H1280 0.950 . S
C1301 C1300 1.373 1_554 S
C1301 C1317 1.377 . S
C1302 C1300 1.389 . S
C1302 C1303 1.524 . S
C1302 C1316 1.377 . S
C1303 C1302 1.524 . S
C1303 C1304 1.397 1_565 S
C1303 C1308 1.363 . S
C1304 H1281 0.927 1_556 S
C1304 C1303 1.397 1_545 S
C1304 C1305 1.334 . S
C1305 H1282 0.950 . S
C1305 C1304 1.334 . S
C1305 C1306 1.287 . S
C1306 C1305 1.287 . S
C1306 C1307 1.524 . S
C1306 H1325 0.913 . S
C1307 H1283 0.950 . S
C1307 C1306 1.524 . S
C1307 C1308 1.415 1_545 S
C1308 H1284 0.950 . S
C1308 C1303 1.363 . S
C1308 C1307 1.415 1_565 S
C1309 H1285 0.951 . S
C1309 C1310 1.366 . S
C1309 C1311 1.388 . S
C1310 C1309 1.366 . S
C1310 C1314 1.385 1_554 S
C1311 H1286 0.951 . S
C1311 C1309 1.388 . S
C1311 C1312 1.420 . S
C1312 C1311 1.420 . S
C1312 C1313 1.374 1_554 S
C1312 C1315 1.485 1_554 S
C1313 H1287 0.950 . S
C1313 C1312 1.374 1_556 S
C1313 C1314 1.374 . S
C1314 H1288 0.950 . S
C1314 C1310 1.385 1_556 S
C1314 C1313 1.374 . S
C1315 C1312 1.485 1_556 S
C1315 C1316 1.373 . S
C1315 C1317 1.389 1_556 S
C1316 H1289 0.950 . S
C1316 C1302 1.377 . S
C1316 C1315 1.373 . S
C1317 C1301 1.377 . S
C1317 C1315 1.389 1_554 S
C1317 C1318 1.524 . S
C1318 C1317 1.524 . S
C1318 C1319 1.397 . S
C1318 C1323 1.363 . S
C1319 H1290 0.950 1_554 S
C1319 C1318 1.397 . S
C1319 C1320 1.334 . S
C1320 H1291 0.950 . S
C1320 C1319 1.334 . S
C1320 C1321 1.287 . S
C1321 C1320 1.287 . S
C1321 C1322 1.524 . S
C1321 H1324 0.999 . S
C1322 H1292 0.950 . S
C1322 C1321 1.524 . S
C1322 C1323 1.415 . S
C1323 H1293 0.950 . S
C1323 C1318 1.363 . S
C1323 C1322 1.415 . S
H1324 C1321 0.999 . S
H1325 C1306 0.913 . S
H1326 C1344 0.951 . S
H1327 C1346 0.951 . S
H1328 C1348 0.950 . S
H1329 C1349 0.950 . S
H1330 C1351 0.950 . S
H1331 C1354 0.950 . S
H1332 C1355 0.950 . S
H1333 C1357 0.950 . S
H1334 C1358 0.950 . S
H1335 C1359 0.951 . S
H1336 C1361 0.951 . S
H1337 C1363 0.950 . S
H1338 C1364 0.950 . S
H1339 C1366 0.950 . S
H1340 C1369 0.950 . S
H1341 C1370 0.950 . S
H1342 C1372 0.950 . S
H1343 C1373 0.950 . S
C1344 H1326 0.951 . S
C1344 C1345 1.366 . S
C1344 C1346 1.388 . S
C1345 C1344 1.366 . S
C1345 C1349 1.385 . S
C1346 H1327 0.951 . S
C1346 C1344 1.388 . S
C1346 C1347 1.366 . S
C1347 C1346 1.366 . S
C1347 C1348 1.414 . S
C1347 C1350 1.499 . S
C1348 H1328 0.950 . S
C1348 C1347 1.414 . S
C1348 C1349 1.374 . S
C1349 H1329 0.950 . S
C1349 C1345 1.385 . S
C1349 C1348 1.374 . S
C1350 C1347 1.499 . S
C1350 C1351 1.373 . S
C1350 C1352 1.389 . S
C1351 H1330 0.950 . S
C1351 C1350 1.373 . S
C1351 C1367 1.377 . S
C1352 C1350 1.389 . S
C1352 C1353 1.524 . S
C1352 C1366 1.377 . S
C1353 C1352 1.524 . S
C1353 C1354 1.397 . S
C1353 C1358 1.363 . S
C1354 H1331 0.950 . S
C1354 C1353 1.397 . S
C1354 C1355 1.334 . S
C1355 H1332 0.950 . S
C1355 C1354 1.334 . S
C1355 C1356 1.287 . S
C1356 C1355 1.287 . S
C1356 C1357 1.524 . S
C1356 H1375 0.913 . S
C1357 H1333 0.950 . S
C1357 C1356 1.524 . S
C1357 C1358 1.415 . S
C1358 H1334 0.950 . S
C1358 C1353 1.363 . S
C1358 C1357 1.415 . S
C1359 H1335 0.951 . S
C1359 C1360 1.366 . S
C1359 C1361 1.388 . S
C1360 C1359 1.366 . S
C1360 C1364 1.385 . S
C1361 H1336 0.951 . S
C1361 C1359 1.388 . S
C1361 C1362 1.366 . S
C1362 C1361 1.366 . S
C1362 C1363 1.414 . S
C1362 C1365 1.499 . S
C1363 H1337 0.950 . S
C1363 C1362 1.414 . S
C1363 C1364 1.374 . S
C1364 H1338 0.950 . S
C1364 C1360 1.385 . S
C1364 C1363 1.374 . S
C1365 C1362 1.499 . S
C1365 C1366 1.373 . S
C1365 C1367 1.389 . S
C1366 H1339 0.950 . S
C1366 C1352 1.377 . S
C1366 C1365 1.373 . S
C1367 C1351 1.377 . S
C1367 C1365 1.389 . S
C1367 C1368 1.524 . S
C1368 C1367 1.524 . S
C1368 C1369 1.397 . S
C1368 C1373 1.363 . S
C1369 H1340 0.950 . S
C1369 C1368 1.397 . S
C1369 C1370 1.334 . S
C1370 H1341 0.950 . S
C1370 C1369 1.334 . S
C1370 C1371 1.287 . S
C1371 C1370 1.287 . S
C1371 C1372 1.524 . S
C1371 H1374 0.999 . S
C1372 H1342 0.950 . S
C1372 C1371 1.524 . S
C1372 C1373 1.415 . S
C1373 H1343 0.950 . S
C1373 C1368 1.363 . S
C1373 C1372 1.415 . S
H1374 C1371 0.999 . S
H1375 C1356 0.913 . S
H1376 C1394 0.951 . S
H1377 C1396 0.951 . S
H1378 C1398 0.949 . S
H1379 C1399 0.950 . S
H1380 C1401 0.950 . S
H1381 C1404 0.950 . S
H1382 C1405 0.950 . S
H1383 C1407 0.950 . S
H1384 C1408 0.950 . S
H1385 C1409 0.951 . S
H1386 C1411 0.951 . S
H1387 C1413 0.950 . S
H1388 C1414 0.950 . S
H1389 C1416 0.950 . S
H1390 C1419 0.950 . S
H1391 C1420 0.950 . S
H1392 C1422 0.975 . S
H1393 C1423 0.950 . S
C1394 H1376 0.951 . S
C1394 C1395 1.366 . S
C1394 C1396 1.388 . S
C1395 C1394 1.366 . S
C1395 C1399 1.385 1_545 S
C1396 H1377 0.951 . S
C1396 C1394 1.388 . S
C1396 C1397 1.366 . S
C1397 C1396 1.366 . S
C1397 C1398 1.414 . S
C1397 C1400 1.499 . S
C1398 H1378 0.949 . S
C1398 C1397 1.414 . S
C1398 C1399 1.374 1_545 S
C1399 H1379 0.950 . S
C1399 C1395 1.385 1_565 S
C1399 C1398 1.374 1_565 S
C1400 C1397 1.499 . S
C1400 C1401 1.373 . S
C1400 C1402 1.389 . S
C1401 H1380 0.950 . S
C1401 C1400 1.373 . S
C1401 C1417 1.377 . S
C1402 C1400 1.389 . S
C1402 C1403 1.524 . S
C1402 C1416 1.377 . S
C1403 C1402 1.524 . S
C1403 C1404 1.397 . S
C1403 C1408 1.363 . S
C1404 H1381 0.950 . S
C1404 C1403 1.397 . S
C1404 C1405 1.334 . S
C1405 H1382 0.950 . S
C1405 C1404 1.334 . S
C1405 C1406 1.287 . S
C1406 C1405 1.287 . S
C1406 C1407 1.524 . S
C1406 H1425 0.913 . S
C1407 H1383 0.950 . S
C1407 C1406 1.524 . S
C1407 C1408 1.415 . S
C1408 H1384 0.950 . S
C1408 C1403 1.363 . S
C1408 C1407 1.415 . S
C1409 H1385 0.951 . S
C1409 C1410 1.366 . S
C1409 C1411 1.388 . S
C1410 C1409 1.366 . S
C1410 C1414 1.385 . S
C1411 H1386 0.951 . S
C1411 C1409 1.388 . S
C1411 C1412 1.366 . S
C1412 C1411 1.366 . S
C1412 C1413 1.414 . S
C1412 C1415 1.499 . S
C1413 H1387 0.950 . S
C1413 C1412 1.414 . S
C1413 C1414 1.374 . S
C1414 H1388 0.950 . S
C1414 C1410 1.385 . S
C1414 C1413 1.374 . S
C1415 C1412 1.499 . S
C1415 C1416 1.373 . S
C1415 C1417 1.389 . S
C1416 H1389 0.950 . S
C1416 C1402 1.377 . S
C1416 C1415 1.373 . S
C1417 C1401 1.377 . S
C1417 C1415 1.389 . S
C1417 C1418 1.524 . S
C1418 C1417 1.524 . S
C1418 C1419 1.397 . S
C1418 C1423 1.363 . S
C1419 H1390 0.950 . S
C1419 C1418 1.397 . S
C1419 C1420 1.334 . S
C1420 H1391 0.950 . S
C1420 C1419 1.334 . S
C1420 C1421 1.287 . S
C1421 C1420 1.287 . S
C1421 C1422 1.513 1_545 S
C1421 H1424 0.999 . S
C1422 H1392 0.975 . S
C1422 C1421 1.513 1_565 S
C1422 C1423 1.397 1_565 S
C1423 H1393 0.950 . S
C1423 C1418 1.363 . S
C1423 C1422 1.397 1_545 S
H1424 C1421 0.999 . S
H1425 C1406 0.913 . S
H1426 C1444 0.951 . S
H1427 C1446 0.951 . S
H1428 C1448 0.950 . S
H1429 C1449 0.950 . S
H1430 C1451 0.950 . S
H1431 C1454 0.950 . S
H1432 C1455 0.950 . S
H1433 C1457 0.950 . S
H1434 C1458 0.950 . S
H1435 C1459 0.951 . S
H1436 C1461 0.951 . S
H1437 C1463 0.950 . S
H1438 C1464 0.950 . S
H1439 C1466 0.950 . S
H1440 C1469 0.950 . S
H1441 C1470 0.950 . S
H1442 C1472 0.950 . S
H1443 C1473 0.950 . S
C1444 H1426 0.951 . S
C1444 C1445 1.366 . S
C1444 C1446 1.388 . S
C1445 C1444 1.366 . S
C1445 C1449 1.385 . S
C1446 H1427 0.951 . S
C1446 C1444 1.388 . S
C1446 C1447 1.366 . S
C1447 C1446 1.366 . S
C1447 C1448 1.414 . S
C1447 C1450 1.499 . S
C1448 H1428 0.950 . S
C1448 C1447 1.414 . S
C1448 C1449 1.374 . S
C1449 H1429 0.950 . S
C1449 C1445 1.385 . S
C1449 C1448 1.374 . S
C1450 C1447 1.499 . S
C1450 C1451 1.373 . S
C1450 C1452 1.389 . S
C1451 H1430 0.950 . S
C1451 C1450 1.373 . S
C1451 C1467 1.377 . S
C1452 C1450 1.389 . S
C1452 C1453 1.524 . S
C1452 C1466 1.377 . S
C1453 C1452 1.524 . S
C1453 C1454 1.397 . S
C1453 C1458 1.363 . S
C1454 H1431 0.950 . S
C1454 C1453 1.397 . S
C1454 C1455 1.334 . S
C1455 H1432 0.950 . S
C1455 C1454 1.334 . S
C1455 C1456 1.287 . S
C1456 C1455 1.287 . S
C1456 C1457 1.524 . S
C1456 H1475 0.913 . S
C1457 H1433 0.950 . S
C1457 C1456 1.524 . S
C1457 C1458 1.415 . S
C1458 H1434 0.950 . S
C1458 C1453 1.363 . S
C1458 C1457 1.415 . S
C1459 H1435 0.951 . S
C1459 C1460 1.366 . S
C1459 C1461 1.388 . S
C1460 C1459 1.366 . S
C1460 C1464 1.385 . S
C1461 H1436 0.951 . S
C1461 C1459 1.388 . S
C1461 C1462 1.366 . S
C1462 C1461 1.366 . S
C1462 C1463 1.414 . S
C1462 C1465 1.499 . S
C1463 H1437 0.950 . S
C1463 C1462 1.414 . S
C1463 C1464 1.374 . S
C1464 H1438 0.950 . S
C1464 C1460 1.385 . S
C1464 C1463 1.374 . S
C1465 C1462 1.499 . S
C1465 C1466 1.373 . S
C1465 C1467 1.389 . S
C1466 H1439 0.950 . S
C1466 C1452 1.377 . S
C1466 C1465 1.373 . S
C1467 C1451 1.377 . S
C1467 C1465 1.389 . S
C1467 C1468 1.524 . S
C1468 C1467 1.524 . S
C1468 C1469 1.397 . S
C1468 C1473 1.363 . S
C1469 H1440 0.950 . S
C1469 C1468 1.397 . S
C1469 C1470 1.334 . S
C1470 H1441 0.950 . S
C1470 C1469 1.334 . S
C1470 C1471 1.287 . S
C1471 C1470 1.287 . S
C1471 C1472 1.524 . S
C1471 H1474 0.999 . S
C1472 H1442 0.950 . S
C1472 C1471 1.524 . S
C1472 C1473 1.415 . S
C1473 H1443 0.950 . S
C1473 C1468 1.363 . S
C1473 C1472 1.415 . S
H1474 C1471 0.999 . S
H1475 C1456 0.913 . S
H1476 C1494 0.951 . S
H1477 C1496 0.951 . S
H1478 C1498 0.950 . S
H1479 C1499 0.950 . S
H1480 C1501 0.950 . S
H1481 C1504 0.950 . S
H1482 C1505 0.950 . S
H1483 C1507 0.950 . S
H1484 C1508 0.950 . S
H1485 C1509 0.951 . S
H1486 C1511 0.951 . S
H1487 C1513 0.950 . S
H1488 C1514 0.950 . S
H1489 C1516 0.950 . S
H1490 C1519 0.950 . S
H1491 C1520 0.950 . S
H1492 C1522 0.950 . S
H1493 C1523 0.950 . S
C1494 H1476 0.951 . S
C1494 C1495 1.366 . S
C1494 C1496 1.388 . S
C1495 C1494 1.366 . S
C1495 C1499 1.385 1_565 S
C1496 H1477 0.951 . S
C1496 C1494 1.388 . S
C1496 C1497 1.366 1_565 S
C1497 C1496 1.366 1_545 S
C1497 C1498 1.414 . S
C1497 C1500 1.499 . S
C1498 H1478 0.950 . S
C1498 C1497 1.414 . S
C1498 C1499 1.374 . S
C1499 H1479 0.950 . S
C1499 C1495 1.385 1_545 S
C1499 C1498 1.374 . S
C1500 C1497 1.499 . S
C1500 C1501 1.373 . S
C1500 C1502 1.389 . S
C1501 H1480 0.950 . S
C1501 C1500 1.373 . S
C1501 C1517 1.377 . S
C1502 C1500 1.389 . S
C1502 C1503 1.524 . S
C1502 C1516 1.377 . S
C1503 C1502 1.524 . S
C1503 C1504 1.397 . S
C1503 C1508 1.363 . S
C1504 H1481 0.950 . S
C1504 C1503 1.397 . S
C1504 C1505 1.334 . S
C1505 H1482 0.950 . S
C1505 C1504 1.334 . S
C1505 C1506 1.287 1_545 S
C1506 C1505 1.287 1_565 S
C1506 C1507 1.524 . S
C1506 H1525 0.913 . S
C1507 H1483 0.950 . S
C1507 C1506 1.524 . S
C1507 C1508 1.415 1_565 S
C1508 H1484 0.950 . S
C1508 C1503 1.363 . S
C1508 C1507 1.415 1_545 S
C1509 H1485 0.951 . S
C1509 C1510 1.366 . S
C1509 C1511 1.388 . S
C1510 C1509 1.366 . S
C1510 C1514 1.385 . S
C1511 H1486 0.951 . S
C1511 C1509 1.388 . S
C1511 C1512 1.366 . S
C1512 C1511 1.366 . S
C1512 C1513 1.414 . S
C1512 C1515 1.499 . S
C1513 H1487 0.950 . S
C1513 C1512 1.414 . S
C1513 C1514 1.374 . S
C1514 H1488 0.950 . S
C1514 C1510 1.385 . S
C1514 C1513 1.374 . S
C1515 C1512 1.499 . S
C1515 C1516 1.373 . S
C1515 C1517 1.389 . S
C1516 H1489 0.950 . S
C1516 C1502 1.377 . S
C1516 C1515 1.373 . S
C1517 C1501 1.377 . S
C1517 C1515 1.389 . S
C1517 C1518 1.524 . S
C1518 C1517 1.524 . S
C1518 C1519 1.397 . S
C1518 C1523 1.363 . S
C1519 H1490 0.950 . S
C1519 C1518 1.397 . S
C1519 C1520 1.334 . S
C1520 H1491 0.950 . S
C1520 C1519 1.334 . S
C1520 C1521 1.287 . S
C1521 C1520 1.287 . S
C1521 C1522 1.524 . S
C1521 H1524 0.999 . S
C1522 H1492 0.950 . S
C1522 C1521 1.524 . S
C1522 C1523 1.415 . S
C1523 H1493 0.950 . S
C1523 C1518 1.363 . S
C1523 C1522 1.415 . S
H1524 C1521 0.999 . S
H1525 C1506 0.913 . S
H1526 C1544 0.951 . S
H1527 C1546 0.951 . S
H1528 C1548 0.950 . S
H1529 C1549 0.950 . S
H1530 C1551 0.950 . S
H1531 C1554 0.950 . S
H1532 C1555 0.950 . S
H1533 C1557 0.950 . S
H1534 C1558 0.950 . S
H1535 C1559 0.951 . S
H1536 C1561 0.951 . S
H1537 C1563 0.950 . S
H1538 C1564 0.950 . S
H1539 C1566 0.950 . S
H1540 C1569 0.950 . S
H1541 C1570 0.950 . S
H1542 C1572 0.950 . S
H1543 C1573 0.950 . S
C1544 H1526 0.951 . S
C1544 C1545 1.366 . S
C1544 C1546 1.388 . S
C1545 C1544 1.366 . S
C1545 C1549 1.385 . S
C1546 H1527 0.951 . S
C1546 C1544 1.388 . S
C1546 C1547 1.366 . S
C1547 C1546 1.366 . S
C1547 C1548 1.414 . S
C1547 C1550 1.499 . S
C1548 H1528 0.950 . S
C1548 C1547 1.414 . S
C1548 C1549 1.374 . S
C1549 H1529 0.950 . S
C1549 C1545 1.385 . S
C1549 C1548 1.374 . S
C1550 C1547 1.499 . S
C1550 C1551 1.373 . S
C1550 C1552 1.389 . S
C1551 H1530 0.950 . S
C1551 C1550 1.373 . S
C1551 C1567 1.377 . S
C1552 C1550 1.389 . S
C1552 C1553 1.524 . S
C1552 C1566 1.377 . S
C1553 C1552 1.524 . S
C1553 C1554 1.397 . S
C1553 C1558 1.363 . S
C1554 H1531 0.950 . S
C1554 C1553 1.397 . S
C1554 C1555 1.334 . S
C1555 H1532 0.950 . S
C1555 C1554 1.334 . S
C1555 C1556 1.287 . S
C1556 C1555 1.287 . S
C1556 C1557 1.524 . S
C1556 H1575 0.913 . S
C1557 H1533 0.950 . S
C1557 C1556 1.524 . S
C1557 C1558 1.415 . S
C1558 H1534 0.950 . S
C1558 C1553 1.363 . S
C1558 C1557 1.415 . S
C1559 H1535 0.951 . S
C1559 C1560 1.366 . S
C1559 C1561 1.388 . S
C1560 C1559 1.366 . S
C1560 C1564 1.385 . S
C1561 H1536 0.951 . S
C1561 C1559 1.388 . S
C1561 C1562 1.366 . S
C1562 C1561 1.366 . S
C1562 C1563 1.414 . S
C1562 C1565 1.499 . S
C1563 H1537 0.950 . S
C1563 C1562 1.414 . S
C1563 C1564 1.374 . S
C1564 H1538 0.950 . S
C1564 C1560 1.385 . S
C1564 C1563 1.374 . S
C1565 C1562 1.499 . S
C1565 C1566 1.373 . S
C1565 C1567 1.389 . S
C1566 H1539 0.950 . S
C1566 C1552 1.377 . S
C1566 C1565 1.373 . S
C1567 C1551 1.377 . S
C1567 C1565 1.389 . S
C1567 C1568 1.524 . S
C1568 C1567 1.524 . S
C1568 C1569 1.397 . S
C1568 C1573 1.363 . S
C1569 H1540 0.950 . S
C1569 C1568 1.397 . S
C1569 C1570 1.334 . S
C1570 H1541 0.950 . S
C1570 C1569 1.334 . S
C1570 C1571 1.287 . S
C1571 C1570 1.287 . S
C1571 C1572 1.524 . S
C1571 H1574 0.999 . S
C1572 H1542 0.950 . S
C1572 C1571 1.524 . S
C1572 C1573 1.415 . S
C1573 H1543 0.950 . S
C1573 C1568 1.363 . S
C1573 C1572 1.415 . S
H1574 C1571 0.999 . S
H1575 C1556 0.913 . S
H1576 C1594 0.951 . S
H1577 C1596 0.951 . S
H1578 C1598 0.950 . S
H1579 C1599 0.950 . S
H1580 C1601 0.950 . S
H1581 C1604 0.950 . S
H1582 C1605 0.950 . S
H1583 C1607 0.950 . S
H1584 C1608 0.950 . S
H1585 C1609 0.951 . S
H1586 C1611 0.951 . S
H1587 C1613 0.950 . S
H1588 C1614 0.950 . S
H1589 C1616 0.950 . S
H1590 C1619 0.950 . S
H1591 C1620 0.950 . S
H1592 C1622 0.950 . S
H1593 C1623 0.950 . S
C1594 H1576 0.951 . S
C1594 C1595 1.366 . S
C1594 C1596 1.388 . S
C1595 C1594 1.366 . S
C1595 C1599 1.385 . S
C1596 H1577 0.951 . S
C1596 C1594 1.388 . S
C1596 C1597 1.366 . S
C1597 C1596 1.366 . S
C1597 C1598 1.414 . S
C1597 C1600 1.499 . S
C1598 H1578 0.950 . S
C1598 C1597 1.414 . S
C1598 C1599 1.374 . S
C1599 H1579 0.950 . S
C1599 C1595 1.385 . S
C1599 C1598 1.374 . S
C1600 C1597 1.499 . S
C1600 C1601 1.373 . S
C1600 C1602 1.389 . S
C1601 H1580 0.950 . S
C1601 C1600 1.373 . S
C1601 C1617 1.377 . S
C1602 C1600 1.389 . S
C1602 C1603 1.524 . S
C1602 C1616 1.377 . S
C1603 C1602 1.524 . S
C1603 C1604 1.397 . S
C1603 C1608 1.363 . S
C1604 H1581 0.950 . S
C1604 C1603 1.397 . S
C1604 C1605 1.334 . S
C1605 H1582 0.950 . S
C1605 C1604 1.334 . S
C1605 C1606 1.287 . S
C1606 C1605 1.287 . S
C1606 C1607 1.524 . S
C1606 H1625 0.913 . S
C1607 H1583 0.950 . S
C1607 C1606 1.524 . S
C1607 C1608 1.415 . S
C1608 H1584 0.950 . S
C1608 C1603 1.363 . S
C1608 C1607 1.415 . S
C1609 H1585 0.951 . S
C1609 C1610 1.366 . S
C1609 C1611 1.388 . S
C1610 C1609 1.366 . S
C1610 C1614 1.385 . S
C1611 H1586 0.951 . S
C1611 C1609 1.388 . S
C1611 C1612 1.366 . S
C1612 C1611 1.366 . S
C1612 C1613 1.414 . S
C1612 C1615 1.499 . S
C1613 H1587 0.950 . S
C1613 C1612 1.414 . S
C1613 C1614 1.374 . S
C1614 H1588 0.950 . S
C1614 C1610 1.385 . S
C1614 C1613 1.374 . S
C1615 C1612 1.499 . S
C1615 C1616 1.373 . S
C1615 C1617 1.389 . S
C1616 H1589 0.950 . S
C1616 C1602 1.377 . S
C1616 C1615 1.373 . S
C1617 C1601 1.377 . S
C1617 C1615 1.389 . S
C1617 C1618 1.524 . S
C1618 C1617 1.524 . S
C1618 C1619 1.397 . S
C1618 C1623 1.363 . S
C1619 H1590 0.950 . S
C1619 C1618 1.397 . S
C1619 C1620 1.334 . S
C1620 H1591 0.950 . S
C1620 C1619 1.334 . S
C1620 C1621 1.287 . S
C1621 C1620 1.287 . S
C1621 C1622 1.524 . S
C1621 H1624 0.999 . S
C1622 H1592 0.950 . S
C1622 C1621 1.524 . S
C1622 C1623 1.415 . S
C1623 H1593 0.950 . S
C1623 C1618 1.363 . S
C1623 C1622 1.415 . S
H1624 C1621 0.999 . S
H1625 C1606 0.913 . S
H1626 C1644 0.951 . S
H1627 C1646 0.951 . S
H1628 C1648 0.950 . S
H1629 C1649 0.950 . S
H1630 C1651 0.950 . S
H1631 C1654 0.950 . S
H1632 C1655 0.950 . S
H1633 C1657 0.950 . S
H1634 C1658 0.950 1_545 S
H1635 C1659 0.951 . S
H1636 C1661 0.951 . S
H1637 C1663 0.950 . S
H1638 C1664 0.950 . S
H1639 C1666 0.950 . S
H1640 C1669 0.950 . S
H1641 C1670 0.950 . S
H1642 C1672 0.950 . S
H1643 C1673 0.950 . S
C1644 H1626 0.951 . S
C1644 C1645 1.366 . S
C1644 C1646 1.388 . S
C1645 C1644 1.366 . S
C1645 C1649 1.385 . S
C1646 H1627 0.951 . S
C1646 C1644 1.388 . S
C1646 C1647 1.366 . S
C1647 C1646 1.366 . S
C1647 C1648 1.414 . S
C1647 C1650 1.499 . S
C1648 H1628 0.950 . S
C1648 C1647 1.414 . S
C1648 C1649 1.374 . S
C1649 H1629 0.950 . S
C1649 C1645 1.385 . S
C1649 C1648 1.374 . S
C1650 C1647 1.499 . S
C1650 C1651 1.373 . S
C1650 C1652 1.389 . S
C1651 H1630 0.950 . S
C1651 C1650 1.373 . S
C1651 C1667 1.377 . S
C1652 C1650 1.389 . S
C1652 C1653 1.524 1_545 S
C1652 C1666 1.377 . S
C1653 C1652 1.524 1_565 S
C1653 C1654 1.397 . S
C1653 C1658 1.363 . S
C1654 H1631 0.950 . S
C1654 C1653 1.397 . S
C1654 C1655 1.334 . S
C1655 H1632 0.950 . S
C1655 C1654 1.334 . S
C1655 C1656 1.287 . S
C1656 C1655 1.287 . S
C1656 C1657 1.524 . S
C1656 H1675 0.913 . S
C1657 H1633 0.950 . S
C1657 C1656 1.524 . S
C1657 C1658 1.415 . S
C1658 H1634 0.950 1_565 S
C1658 C1653 1.363 . S
C1658 C1657 1.415 . S
C1659 H1635 0.951 . S
C1659 C1660 1.366 . S
C1659 C1661 1.388 . S
C1660 C1659 1.366 . S
C1660 C1664 1.385 . S
C1661 H1636 0.951 . S
C1661 C1659 1.388 . S
C1661 C1662 1.366 . S
C1662 C1661 1.366 . S
C1662 C1663 1.414 . S
C1662 C1665 1.499 . S
C1663 H1637 0.950 . S
C1663 C1662 1.414 . S
C1663 C1664 1.374 . S
C1664 H1638 0.950 . S
C1664 C1660 1.385 . S
C1664 C1663 1.374 . S
C1665 C1662 1.499 . S
C1665 C1666 1.373 . S
C1665 C1667 1.389 . S
C1666 H1639 0.950 . S
C1666 C1652 1.377 . S
C1666 C1665 1.373 . S
C1667 C1651 1.377 . S
C1667 C1665 1.389 . S
C1667 C1668 1.524 . S
C1668 C1667 1.524 . S
C1668 C1669 1.397 . S
C1668 C1673 1.363 . S
C1669 H1640 0.950 . S
C1669 C1668 1.397 . S
C1669 C1670 1.334 . S
C1670 H1641 0.950 . S
C1670 C1669 1.334 . S
C1670 C1671 1.287 . S
C1671 C1670 1.287 . S
C1671 C1672 1.524 . S
C1671 H1674 0.999 . S
C1672 H1642 0.950 . S
C1672 C1671 1.524 . S
C1672 C1673 1.415 . S
C1673 H1643 0.950 . S
C1673 C1668 1.363 . S
C1673 C1672 1.415 . S
H1674 C1671 0.999 . S
H1675 C1656 0.913 . S
H1676 C1694 0.951 . S
H1677 C1696 0.951 . S
H1678 C1698 0.950 . S
H1679 C1699 0.950 . S
H1680 C1701 0.950 . S
H1681 C1704 0.950 . S
H1682 C1705 0.950 . S
H1683 C1707 0.950 . S
H1684 C1708 0.950 . S
H1685 C1709 0.951 . S
H1686 C1711 0.951 . S
H1687 C1713 0.950 . S
H1688 C1714 0.950 . S
H1689 C1716 0.950 . S
H1690 C1719 0.950 . S
H1691 C1720 0.950 . S
H1692 C1722 0.950 . S
H1693 C1723 0.950 . S
C1694 H1676 0.951 . S
C1694 C1695 1.366 . S
C1694 C1696 1.388 . S
C1695 C1694 1.366 . S
C1695 C1699 1.385 . S
C1696 H1677 0.951 . S
C1696 C1694 1.388 . S
C1696 C1697 1.366 . S
C1697 C1696 1.366 . S
C1697 C1698 1.414 . S
C1697 C1700 1.499 . S
C1698 H1678 0.950 . S
C1698 C1697 1.414 . S
C1698 C1699 1.374 . S
C1699 H1679 0.950 . S
C1699 C1695 1.385 . S
C1699 C1698 1.374 . S
C1700 C1697 1.499 . S
C1700 C1701 1.373 . S
C1700 C1702 1.389 . S
C1701 H1680 0.950 . S
C1701 C1700 1.373 . S
C1701 C1717 1.377 . S
C1702 C1700 1.389 . S
C1702 C1703 1.524 . S
C1702 C1716 1.377 . S
C1703 C1702 1.524 . S
C1703 C1704 1.397 . S
C1703 C1708 1.363 . S
C1704 H1681 0.950 . S
C1704 C1703 1.397 . S
C1704 C1705 1.334 . S
C1705 H1682 0.950 . S
C1705 C1704 1.334 . S
C1705 C1706 1.287 . S
C1706 C1705 1.287 . S
C1706 C1707 1.524 . S
C1706 H1725 0.913 . S
C1707 H1683 0.950 . S
C1707 C1706 1.524 . S
C1707 C1708 1.415 . S
C1708 H1684 0.950 . S
C1708 C1703 1.363 . S
C1708 C1707 1.415 . S
C1709 H1685 0.951 . S
C1709 C1710 1.366 . S
C1709 C1711 1.388 . S
C1710 C1709 1.366 . S
C1710 C1714 1.385 . S
C1711 H1686 0.951 . S
C1711 C1709 1.388 . S
C1711 C1712 1.366 . S
C1712 C1711 1.366 . S
C1712 C1713 1.414 . S
C1712 C1715 1.499 . S
C1713 H1687 0.950 . S
C1713 C1712 1.414 . S
C1713 C1714 1.374 . S
C1714 H1688 0.950 . S
C1714 C1710 1.385 . S
C1714 C1713 1.374 . S
C1715 C1712 1.499 . S
C1715 C1716 1.373 . S
C1715 C1717 1.389 . S
C1716 H1689 0.950 . S
C1716 C1702 1.377 . S
C1716 C1715 1.373 . S
C1717 C1701 1.377 . S
C1717 C1715 1.389 . S
C1717 C1718 1.524 . S
C1718 C1717 1.524 . S
C1718 C1719 1.397 . S
C1718 C1723 1.363 . S
C1719 H1690 0.950 . S
C1719 C1718 1.397 . S
C1719 C1720 1.334 . S
C1720 H1691 0.950 . S
C1720 C1719 1.334 . S
C1720 C1721 1.287 . S
C1721 C1720 1.287 . S
C1721 C1722 1.524 . S
C1721 H1724 0.999 . S
C1722 H1692 0.950 . S
C1722 C1721 1.524 . S
C1722 C1723 1.415 . S
C1723 H1693 0.950 . S
C1723 C1718 1.363 . S
C1723 C1722 1.415 . S
H1724 C1721 0.999 . S
H1725 C1706 0.913 . S
H1726 C1744 0.951 . S
H1727 C1746 0.951 . S
H1728 C1748 0.950 . S
H1729 C1749 0.950 . S
H1730 C1751 0.950 . S
H1731 C1754 0.950 . S
H1732 C1755 0.950 . S
H1733 C1757 0.950 . S
H1734 C1758 0.950 . S
H1735 C1759 0.951 . S
H1736 C1761 0.951 . S
H1737 C1763 0.950 . S
H1738 C1764 0.950 . S
H1739 C1766 0.950 . S
H1740 C1769 0.950 . S
H1741 C1770 0.950 . S
H1742 C1772 0.950 . S
H1743 C1773 0.950 . S
C1744 H1726 0.951 . S
C1744 C1745 1.366 . S
C1744 C1746 1.388 . S
C1745 C1744 1.366 . S
C1745 C1749 1.385 . S
C1746 H1727 0.951 . S
C1746 C1744 1.388 . S
C1746 C1747 1.366 . S
C1747 C1746 1.366 . S
C1747 C1748 1.414 . S
C1747 C1750 1.499 . S
C1748 H1728 0.950 . S
C1748 C1747 1.414 . S
C1748 C1749 1.374 . S
C1749 H1729 0.950 . S
C1749 C1745 1.385 . S
C1749 C1748 1.374 . S
C1750 C1747 1.499 . S
C1750 C1751 1.373 . S
C1750 C1752 1.389 . S
C1751 H1730 0.950 . S
C1751 C1750 1.373 . S
C1751 C1767 1.377 . S
C1752 C1750 1.389 . S
C1752 C1753 1.524 . S
C1752 C1766 1.377 . S
C1753 C1752 1.524 . S
C1753 C1754 1.397 . S
C1753 C1758 1.363 . S
C1754 H1731 0.950 . S
C1754 C1753 1.397 . S
C1754 C1755 1.334 . S
C1755 H1732 0.950 . S
C1755 C1754 1.334 . S
C1755 C1756 1.287 . S
C1756 C1755 1.287 . S
C1756 C1757 1.524 . S
C1756 H1775 0.913 . S
C1757 H1733 0.950 . S
C1757 C1756 1.524 . S
C1757 C1758 1.415 . S
C1758 H1734 0.950 . S
C1758 C1753 1.363 . S
C1758 C1757 1.415 . S
C1759 H1735 0.951 . S
C1759 C1760 1.366 . S
C1759 C1761 1.388 . S
C1760 C1759 1.366 . S
C1760 C1764 1.385 . S
C1761 H1736 0.951 . S
C1761 C1759 1.388 . S
C1761 C1762 1.366 . S
C1762 C1761 1.366 . S
C1762 C1763 1.414 . S
C1762 C1765 1.499 . S
C1763 H1737 0.950 . S
C1763 C1762 1.414 . S
C1763 C1764 1.374 . S
C1764 H1738 0.950 . S
C1764 C1760 1.385 . S
C1764 C1763 1.374 . S
C1765 C1762 1.499 . S
C1765 C1766 1.373 . S
C1765 C1767 1.389 . S
C1766 H1739 0.950 . S
C1766 C1752 1.377 . S
C1766 C1765 1.373 . S
C1767 C1751 1.377 . S
C1767 C1765 1.389 . S
C1767 C1768 1.524 . S
C1768 C1767 1.524 . S
C1768 C1769 1.397 . S
C1768 C1773 1.363 . S
C1769 H1740 0.950 . S
C1769 C1768 1.397 . S
C1769 C1770 1.334 . S
C1770 H1741 0.950 . S
C1770 C1769 1.334 . S
C1770 C1771 1.287 . S
C1771 C1770 1.287 . S
C1771 C1772 1.524 . S
C1771 H1774 0.999 . S
C1772 H1742 0.950 . S
C1772 C1771 1.524 . S
C1772 C1773 1.415 . S
C1773 H1743 0.950 . S
C1773 C1768 1.363 . S
C1773 C1772 1.415 . S
H1774 C1771 0.999 . S
H1775 C1756 0.913 . S
H1776 C1794 0.951 . S
H1777 C1796 0.951 . S
H1778 C1798 0.950 . S
H1779 C1799 0.950 . S
H1780 C1801 0.950 . S
H1781 C1804 0.950 . S
H1782 C1805 0.950 . S
H1783 C1807 0.950 . S
H1784 C1808 0.950 . S
H1785 C1809 0.951 . S
H1786 C1811 0.951 . S
H1787 C1813 0.950 . S
H1788 C1814 0.950 . S
H1789 C1816 0.950 . S
H1790 C1819 0.950 . S
H1791 C1820 0.950 . S
H1792 C1822 0.950 . S
H1793 C1823 0.950 . S
C1794 H1776 0.951 . S
C1794 C1795 1.366 . S
C1794 C1796 1.388 . S
C1795 C1794 1.366 . S
C1795 C1799 1.385 . S
C1796 H1777 0.951 . S
C1796 C1794 1.388 . S
C1796 C1797 1.366 . S
C1797 C1796 1.366 . S
C1797 C1798 1.414 . S
C1797 C1800 1.499 . S
C1798 H1778 0.950 . S
C1798 C1797 1.414 . S
C1798 C1799 1.374 . S
C1799 H1779 0.950 . S
C1799 C1795 1.385 . S
C1799 C1798 1.374 . S
C1800 C1797 1.499 . S
C1800 C1801 1.373 . S
C1800 C1802 1.389 . S
C1801 H1780 0.950 . S
C1801 C1800 1.373 . S
C1801 C1817 1.377 . S
C1802 C1800 1.389 . S
C1802 C1803 1.524 . S
C1802 C1816 1.377 . S
C1803 C1802 1.524 . S
C1803 C1804 1.397 . S
C1803 C1808 1.363 . S
C1804 H1781 0.950 . S
C1804 C1803 1.397 . S
C1804 C1805 1.334 . S
C1805 H1782 0.950 . S
C1805 C1804 1.334 . S
C1805 C1806 1.287 . S
C1806 C1805 1.287 . S
C1806 C1807 1.524 . S
C1806 H1825 0.913 . S
C1807 H1783 0.950 . S
C1807 C1806 1.524 . S
C1807 C1808 1.415 . S
C1808 H1784 0.950 . S
C1808 C1803 1.363 . S
C1808 C1807 1.415 . S
C1809 H1785 0.951 . S
C1809 C1810 1.366 . S
C1809 C1811 1.388 . S
C1810 C1809 1.366 . S
C1810 C1814 1.385 . S
C1811 H1786 0.951 . S
C1811 C1809 1.388 . S
C1811 C1812 1.366 . S
C1812 C1811 1.366 . S
C1812 C1813 1.414 . S
C1812 C1815 1.499 . S
C1813 H1787 0.950 . S
C1813 C1812 1.414 . S
C1813 C1814 1.374 . S
C1814 H1788 0.950 . S
C1814 C1810 1.385 . S
C1814 C1813 1.374 . S
C1815 C1812 1.499 . S
C1815 C1816 1.373 . S
C1815 C1817 1.389 . S
C1816 H1789 0.950 . S
C1816 C1802 1.377 . S
C1816 C1815 1.373 . S
C1817 C1801 1.377 . S
C1817 C1815 1.389 . S
C1817 C1818 1.524 . S
C1818 C1817 1.524 . S
C1818 C1819 1.397 . S
C1818 C1823 1.363 . S
C1819 H1790 0.950 . S
C1819 C1818 1.397 . S
C1819 C1820 1.334 . S
C1820 H1791 0.950 . S
C1820 C1819 1.334 . S
C1820 C1821 1.287 . S
C1821 C1820 1.287 . S
C1821 C1822 1.524 . S
C1821 H1824 0.999 . S
C1822 H1792 0.950 . S
C1822 C1821 1.524 . S
C1822 C1823 1.415 . S
C1823 H1793 0.950 . S
C1823 C1818 1.363 . S
C1823 C1822 1.415 . S
H1824 C1821 0.999 . S
H1825 C1806 0.913 . S
H1826 C1844 0.953 . S
H1827 C1846 0.950 1_565 S
H1828 C1848 0.950 . S
H1829 C1849 0.950 1_455 S
H1830 C1851 0.950 . S
H1831 C1854 0.950 . S
H1832 C1855 0.950 . S
H1833 C1857 0.950 . S
H1834 C1858 0.950 . S
H1835 C1859 0.951 . S
H1836 C1861 0.951 . S
H1837 C1863 0.951 1_565 S
H1838 C1864 0.950 . S
H1839 C1866 0.950 . S
H1840 C1869 0.950 . S
H1841 C1870 0.950 . S
H1842 C1872 0.950 . S
H1843 C1873 0.950 . S
C1844 H1826 0.953 . S
C1844 C1845 1.365 1_565 S
C1844 C1846 1.389 1_565 S
C1845 C1844 1.365 1_545 S
C1845 C1849 1.385 . S
C1846 H1827 0.950 1_545 S
C1846 C1844 1.389 1_545 S
C1846 C1847 1.367 . S
C1847 C1846 1.367 . S
C1847 C1848 1.414 . S
C1847 C1850 1.499 . S
C1848 H1828 0.950 . S
C1848 C1847 1.414 . S
C1848 C1849 1.374 . S
C1849 H1829 0.950 1_655 S
C1849 C1845 1.385 . S
C1849 C1848 1.374 . S
C1850 C1847 1.499 . S
C1850 C1851 1.373 1_545 S
C1850 C1852 1.389 . S
C1851 H1830 0.950 . S
C1851 C1850 1.373 1_565 S
C1851 C1867 1.377 . S
C1852 C1850 1.389 . S
C1852 C1853 1.524 . S
C1852 C1866 1.377 . S
C1853 C1852 1.524 . S
C1853 C1854 1.397 . S
C1853 C1858 1.363 . S
C1854 H1831 0.950 . S
C1854 C1853 1.397 . S
C1854 C1855 1.334 . S
C1855 H1832 0.950 . S
C1855 C1854 1.334 . S
C1855 C1856 1.287 . S
C1856 C1855 1.287 . S
C1856 C1857 1.524 . S
C1856 H1875 0.913 . S
C1857 H1833 0.950 . S
C1857 C1856 1.524 . S
C1857 C1858 1.415 . S
C1858 H1834 0.950 . S
C1858 C1853 1.363 . S
C1858 C1857 1.415 . S
C1859 H1835 0.951 . S
C1859 C1860 1.366 . S
C1859 C1861 1.388 . S
C1860 C1859 1.366 . S
C1860 C1864 1.385 . S
C1861 H1836 0.951 . S
C1861 C1859 1.388 . S
C1861 C1862 1.366 . S
C1862 C1861 1.366 . S
C1862 C1863 1.414 . S
C1862 C1865 1.499 . S
C1863 H1837 0.951 1_545 S
C1863 C1862 1.414 . S
C1863 C1864 1.374 . S
C1864 H1838 0.950 . S
C1864 C1860 1.385 . S
C1864 C1863 1.374 . S
C1865 C1862 1.499 . S
C1865 C1866 1.373 . S
C1865 C1867 1.389 1_545 S
C1866 H1839 0.950 . S
C1866 C1852 1.377 . S
C1866 C1865 1.373 . S
C1867 C1851 1.377 . S
C1867 C1865 1.389 1_565 S
C1867 C1868 1.524 . S
C1868 C1867 1.524 . S
C1868 C1869 1.397 . S
C1868 C1873 1.363 . S
C1869 H1840 0.950 . S
C1869 C1868 1.397 . S
C1869 C1870 1.334 . S
C1870 H1841 0.950 . S
C1870 C1869 1.334 . S
C1870 C1871 1.287 . S
C1871 C1870 1.287 . S
C1871 C1872 1.524 . S
C1871 H1874 0.999 . S
C1872 H1842 0.950 . S
C1872 C1871 1.524 . S
C1872 C1873 1.415 . S
C1873 H1843 0.950 . S
C1873 C1868 1.363 . S
C1873 C1872 1.415 . S
H1874 C1871 0.999 . S
H1875 C1856 0.913 . S
H1876 C1894 0.951 . S
H1877 C1896 0.951 . S
H1878 C1898 0.950 . S
H1879 C1899 0.950 . S
H1880 C1901 0.950 . S
H1881 C1904 0.950 . S
H1882 C1905 0.950 . S
H1883 C1907 0.950 . S
H1884 C1908 0.950 . S
H1885 C1909 0.951 . S
H1886 C1911 0.951 . S
H1887 C1913 0.950 . S
H1888 C1914 0.950 . S
H1889 C1916 0.950 . S
H1890 C1919 0.950 . S
H1891 C1920 0.950 . S
H1892 C1922 0.950 . S
H1893 C1923 0.950 . S
C1894 H1876 0.951 . S
C1894 C1895 1.366 . S
C1894 C1896 1.388 . S
C1895 C1894 1.366 . S
C1895 C1899 1.385 . S
C1896 H1877 0.951 . S
C1896 C1894 1.388 . S
C1896 C1897 1.366 . S
C1897 C1896 1.366 . S
C1897 C1898 1.414 . S
C1897 C1900 1.499 . S
C1898 H1878 0.950 . S
C1898 C1897 1.414 . S
C1898 C1899 1.374 . S
C1899 H1879 0.950 . S
C1899 C1895 1.385 . S
C1899 C1898 1.374 . S
C1900 C1897 1.499 . S
C1900 C1901 1.373 . S
C1900 C1902 1.389 . S
C1901 H1880 0.950 . S
C1901 C1900 1.373 . S
C1901 C1917 1.377 . S
C1902 C1900 1.389 . S
C1902 C1903 1.524 . S
C1902 C1916 1.377 . S
C1903 C1902 1.524 . S
C1903 C1904 1.397 . S
C1903 C1908 1.363 . S
C1904 H1881 0.950 . S
C1904 C1903 1.397 . S
C1904 C1905 1.334 . S
C1905 H1882 0.950 . S
C1905 C1904 1.334 . S
C1905 C1906 1.287 . S
C1906 C1905 1.287 . S
C1906 C1907 1.524 . S
C1906 H1925 0.913 . S
C1907 H1883 0.950 . S
C1907 C1906 1.524 . S
C1907 C1908 1.415 . S
C1908 H1884 0.950 . S
C1908 C1903 1.363 . S
C1908 C1907 1.415 . S
C1909 H1885 0.951 . S
C1909 C1910 1.366 . S
C1909 C1911 1.388 . S
C1910 C1909 1.366 . S
C1910 C1914 1.385 . S
C1911 H1886 0.951 . S
C1911 C1909 1.388 . S
C1911 C1912 1.366 . S
C1912 C1911 1.366 . S
C1912 C1913 1.414 . S
C1912 C1915 1.499 . S
C1913 H1887 0.950 . S
C1913 C1912 1.414 . S
C1913 C1914 1.374 . S
C1914 H1888 0.950 . S
C1914 C1910 1.385 . S
C1914 C1913 1.374 . S
C1915 C1912 1.499 . S
C1915 C1916 1.373 . S
C1915 C1917 1.389 . S
C1916 H1889 0.950 . S
C1916 C1902 1.377 . S
C1916 C1915 1.373 . S
C1917 C1901 1.377 . S
C1917 C1915 1.389 . S
C1917 C1918 1.524 . S
C1918 C1917 1.524 . S
C1918 C1919 1.397 . S
C1918 C1923 1.363 . S
C1919 H1890 0.950 . S
C1919 C1918 1.397 . S
C1919 C1920 1.334 . S
C1920 H1891 0.950 . S
C1920 C1919 1.334 . S
C1920 C1921 1.287 . S
C1921 C1920 1.287 . S
C1921 C1922 1.524 . S
C1921 H1924 0.999 . S
C1922 H1892 0.950 . S
C1922 C1921 1.524 . S
C1922 C1923 1.415 . S
C1923 H1893 0.950 . S
C1923 C1918 1.363 . S
C1923 C1922 1.415 . S
H1924 C1921 0.999 . S
H1925 C1906 0.913 . S
H1926 C1944 0.951 . S
H1927 C1946 0.951 . S
H1928 C1948 0.950 . S
H1929 C1949 0.950 . S
H1930 C1951 0.950 . S
H1931 C1954 0.950 . S
H1932 C1955 0.950 . S
H1933 C1957 0.950 . S
H1934 C1958 0.950 . S
H1935 C1959 0.951 . S
H1936 C1961 0.951 . S
H1937 C1963 0.950 . S
H1938 C1964 0.950 . S
H1939 C1966 0.950 . S
H1940 C1969 0.950 . S
H1941 C1970 0.950 . S
H1942 C1972 0.950 . S
H1943 C1973 0.950 . S
C1944 H1926 0.951 . S
C1944 C1945 1.366 1_655 S
C1944 C1946 1.388 1_655 S
C1945 C1944 1.366 1_455 S
C1945 C1949 1.385 . S
C1946 H1927 0.951 . S
C1946 C1944 1.388 1_455 S
C1946 C1947 1.366 . S
C1947 C1946 1.366 . S
C1947 C1948 1.414 . S
C1947 C1950 1.499 . S
C1948 H1928 0.950 . S
C1948 C1947 1.414 . S
C1948 C1949 1.374 . S
C1949 H1929 0.950 . S
C1949 C1945 1.385 . S
C1949 C1948 1.374 . S
C1950 C1947 1.499 . S
C1950 C1951 1.373 . S
C1950 C1952 1.389 . S
C1951 H1930 0.950 . S
C1951 C1950 1.373 . S
C1951 C1967 1.377 . S
C1952 C1950 1.389 . S
C1952 C1953 1.524 . S
C1952 C1966 1.377 . S
C1953 C1952 1.524 . S
C1953 C1954 1.397 . S
C1953 C1958 1.363 . S
C1954 H1931 0.950 . S
C1954 C1953 1.397 . S
C1954 C1955 1.334 . S
C1955 H1932 0.950 . S
C1955 C1954 1.334 . S
C1955 C1956 1.287 1_455 S
C1956 C1955 1.287 1_655 S
C1956 C1957 1.524 . S
C1956 H1975 0.913 . S
C1957 H1933 0.950 . S
C1957 C1956 1.524 . S
C1957 C1958 1.415 1_655 S
C1958 H1934 0.950 . S
C1958 C1953 1.363 . S
C1958 C1957 1.415 1_455 S
C1959 H1935 0.951 . S
C1959 C1960 1.366 . S
C1959 C1961 1.388 . S
C1960 C1959 1.366 . S
C1960 C1964 1.385 . S
C1961 H1936 0.951 . S
C1961 C1959 1.388 . S
C1961 C1962 1.366 . S
C1962 C1961 1.366 . S
C1962 C1963 1.414 . S
C1962 C1965 1.499 . S
C1963 H1937 0.950 . S
C1963 C1962 1.414 . S
C1963 C1964 1.374 . S
C1964 H1938 0.950 . S
C1964 C1960 1.385 . S
C1964 C1963 1.374 . S
C1965 C1962 1.499 . S
C1965 C1966 1.373 . S
C1965 C1967 1.389 . S
C1966 H1939 0.950 . S
C1966 C1952 1.377 . S
C1966 C1965 1.373 . S
C1967 C1951 1.377 . S
C1967 C1965 1.389 . S
C1967 C1968 1.524 . S
C1968 C1967 1.524 . S
C1968 C1969 1.397 . S
C1968 C1973 1.363 . S
C1969 H1940 0.950 . S
C1969 C1968 1.397 . S
C1969 C1970 1.334 . S
C1970 H1941 0.950 . S
C1970 C1969 1.334 . S
C1970 C1971 1.287 . S
C1971 C1970 1.287 . S
C1971 C1972 1.524 . S
C1971 H1974 0.999 . S
C1972 H1942 0.950 . S
C1972 C1971 1.524 . S
C1972 C1973 1.415 . S
C1973 H1943 0.950 . S
C1973 C1968 1.363 . S
C1973 C1972 1.415 . S
H1974 C1971 0.999 . S
H1975 C1956 0.913 . S
H1976 C1994 0.951 . S
H1977 C1996 0.951 . S
H1978 C1998 0.950 . S
H1979 C1999 0.950 . S
H1980 C2001 0.950 . S
H1981 C2004 0.950 . S
H1982 C2005 0.950 . S
H1983 C2007 0.950 . S
H1984 C2008 0.950 . S
H1985 C2009 0.951 . S
H1986 C2011 0.951 . S
H1987 C2013 0.950 . S
H1988 C2014 0.950 . S
H1989 C2016 0.950 . S
H1990 C2019 0.950 . S
H1991 C2020 0.950 . S
H1992 C2022 0.950 . S
H1993 C2023 0.950 . S
C1994 H1976 0.951 . S
C1994 C1995 1.366 . S
C1994 C1996 1.388 . S
C1995 C1994 1.366 . S
C1995 C1999 1.385 . S
C1996 H1977 0.951 . S
C1996 C1994 1.388 . S
C1996 C1997 1.366 . S
C1997 C1996 1.366 . S
C1997 C1998 1.414 . S
C1997 C2000 1.499 . S
C1998 H1978 0.950 . S
C1998 C1997 1.414 . S
C1998 C1999 1.374 . S
C1999 H1979 0.950 . S
C1999 C1995 1.385 . S
C1999 C1998 1.374 . S
C2000 C1997 1.499 . S
C2000 C2001 1.373 . S
C2000 C2002 1.389 . S
C2001 H1980 0.950 . S
C2001 C2000 1.373 . S
C2001 C2017 1.377 . S
C2002 C2000 1.389 . S
C2002 C2003 1.524 . S
C2002 C2016 1.377 . S
C2003 C2002 1.524 . S
C2003 C2004 1.397 . S
C2003 C2008 1.363 . S
C2004 H1981 0.950 . S
C2004 C2003 1.397 . S
C2004 C2005 1.334 . S
C2005 H1982 0.950 . S
C2005 C2004 1.334 . S
C2005 C2006 1.287 . S
C2006 C2005 1.287 . S
C2006 C2007 1.524 . S
C2006 H2025 0.913 . S
C2007 H1983 0.950 . S
C2007 C2006 1.524 . S
C2007 C2008 1.415 . S
C2008 H1984 0.950 . S
C2008 C2003 1.363 . S
C2008 C2007 1.415 . S
C2009 H1985 0.951 . S
C2009 C2010 1.366 . S
C2009 C2011 1.388 . S
C2010 C2009 1.366 . S
C2010 C2014 1.385 . S
C2011 H1986 0.951 . S
C2011 C2009 1.388 . S
C2011 C2012 1.366 . S
C2012 C2011 1.366 . S
C2012 C2013 1.414 . S
C2012 C2015 1.499 . S
C2013 H1987 0.950 . S
C2013 C2012 1.414 . S
C2013 C2014 1.374 . S
C2014 H1988 0.950 . S
C2014 C2010 1.385 . S
C2014 C2013 1.374 . S
C2015 C2012 1.499 . S
C2015 C2016 1.373 . S
C2015 C2017 1.389 . S
C2016 H1989 0.950 . S
C2016 C2002 1.377 . S
C2016 C2015 1.373 . S
C2017 C2001 1.377 . S
C2017 C2015 1.389 . S
C2017 C2018 1.524 . S
C2018 C2017 1.524 . S
C2018 C2019 1.397 . S
C2018 C2023 1.363 . S
C2019 H1990 0.950 . S
C2019 C2018 1.397 . S
C2019 C2020 1.334 . S
C2020 H1991 0.950 . S
C2020 C2019 1.334 . S
C2020 C2021 1.287 . S
C2021 C2020 1.287 . S
C2021 C2022 1.524 . S
C2021 H2024 0.999 . S
C2022 H1992 0.950 . S
C2022 C2021 1.524 . S
C2022 C2023 1.415 . S
C2023 H1993 0.950 . S
C2023 C2018 1.363 . S
C2023 C2022 1.415 . S
H2024 C2021 0.999 . S
H2025 C2006 0.913 . S
H2026 C2044 0.951 . S
H2027 C2046 0.951 . S
H2028 C2048 0.950 . S
H2029 C2049 0.950 . S
H2030 C2051 0.950 . S
H2031 C2054 0.950 1_455 S
H2032 C2055 0.950 1_455 S
H2033 C2057 0.950 . S
H2034 C2058 0.950 . S
H2035 C2059 0.951 . S
H2036 C2061 0.951 . S
H2037 C2063 0.950 . S
H2038 C2064 0.950 . S
H2039 C2066 0.950 . S
H2040 C2069 0.950 . S
H2041 C2070 0.950 . S
H2042 C2072 0.950 . S
H2043 C2073 0.950 . S
C2044 H2026 0.951 . S
C2044 C2045 1.366 . S
C2044 C2046 1.388 . S
C2045 C2044 1.366 . S
C2045 C2049 1.385 1_655 S
C2046 H2027 0.951 . S
C2046 C2044 1.388 . S
C2046 C2047 1.366 . S
C2047 C2046 1.366 . S
C2047 C2048 1.414 1_655 S
C2047 C2050 1.499 . S
C2048 H2028 0.950 . S
C2048 C2047 1.414 1_455 S
C2048 C2049 1.374 . S
C2049 H2029 0.950 . S
C2049 C2045 1.385 1_455 S
C2049 C2048 1.374 . S
C2050 C2047 1.499 . S
C2050 C2051 1.373 1_654 S
C2050 C2052 1.389 . S
C2051 H2030 0.950 . S
C2051 C2050 1.373 1_456 S
C2051 C2067 1.377 . S
C2052 C2050 1.389 . S
C2052 C2053 1.524 . S
C2052 C2066 1.377 . S
C2053 C2052 1.524 . S
C2053 C2054 1.397 . S
C2053 C2058 1.363 . S
C2054 H2031 0.950 1_655 S
C2054 C2053 1.397 . S
C2054 C2055 1.334 . S
C2055 H2032 0.950 1_655 S
C2055 C2054 1.334 . S
C2055 C2056 1.287 . S
C2056 C2055 1.287 . S
C2056 C2057 1.524 . S
C2056 H2075 0.913 . S
C2057 H2033 0.950 . S
C2057 C2056 1.524 . S
C2057 C2058 1.415 . S
C2058 H2034 0.950 . S
C2058 C2053 1.363 . S
C2058 C2057 1.415 . S
C2059 H2035 0.951 . S
C2059 C2060 1.366 . S
C2059 C2061 1.388 . S
C2060 C2059 1.366 . S
C2060 C2064 1.385 1_455 S
C2061 H2036 0.951 . S
C2061 C2059 1.388 . S
C2061 C2062 1.366 . S
C2062 C2061 1.366 . S
C2062 C2063 1.414 1_455 S
C2062 C2065 1.499 1_455 S
C2063 H2037 0.950 . S
C2063 C2062 1.414 1_655 S
C2063 C2064 1.374 . S
C2064 H2038 0.950 . S
C2064 C2060 1.385 1_655 S
C2064 C2063 1.374 . S
C2065 C2062 1.499 1_655 S
C2065 C2066 1.373 1_556 S
C2065 C2067 1.389 1_655 S
C2066 H2039 0.950 . S
C2066 C2052 1.377 . S
C2066 C2065 1.373 1_554 S
C2067 C2051 1.377 . S
C2067 C2065 1.389 1_455 S
C2067 C2068 1.524 . S
C2068 C2067 1.524 . S
C2068 C2069 1.397 1_455 S
C2068 C2073 1.363 . S
C2069 H2040 0.950 . S
C2069 C2068 1.397 1_655 S
C2069 C2070 1.334 . S
C2070 H2041 0.950 . S
C2070 C2069 1.334 . S
C2070 C2071 1.287 1_655 S
C2071 C2070 1.287 1_455 S
C2071 C2072 1.524 . S
C2071 H2074 0.999 . S
C2072 H2042 0.950 . S
C2072 C2071 1.524 . S
C2072 C2073 1.415 . S
C2073 H2043 0.950 . S
C2073 C2068 1.363 . S
C2073 C2072 1.415 . S
H2074 C2071 0.999 . S
H2075 C2056 0.913 . S
H2076 C2094 0.951 . S
H2077 C2096 0.951 . S
H2078 C2098 0.950 . S
H2079 C2099 0.950 . S
H2080 C2101 0.950 . S
H2081 C2104 0.950 . S
H2082 C2105 0.950 . S
H2083 C2107 0.950 . S
H2084 C2108 0.950 . S
H2085 C2109 0.951 . S
H2086 C2111 0.951 . S
H2087 C2113 0.950 . S
H2088 C2114 0.950 . S
H2089 C2116 0.950 . S
H2090 C2119 0.950 . S
H2091 C2120 0.950 . S
H2092 C2122 0.950 . S
H2093 C2123 0.950 . S
C2094 H2076 0.951 . S
C2094 C2095 1.366 . S
C2094 C2096 1.388 . S
C2095 C2094 1.366 . S
C2095 C2099 1.385 . S
C2096 H2077 0.951 . S
C2096 C2094 1.388 . S
C2096 C2097 1.366 . S
C2097 C2096 1.366 . S
C2097 C2098 1.414 . S
C2097 C2100 1.499 . S
C2098 H2078 0.950 . S
C2098 C2097 1.414 . S
C2098 C2099 1.374 . S
C2099 H2079 0.950 . S
C2099 C2095 1.385 . S
C2099 C2098 1.374 . S
C2100 C2097 1.499 . S
C2100 C2101 1.373 . S
C2100 C2102 1.389 . S
C2101 H2080 0.950 . S
C2101 C2100 1.373 . S
C2101 C2117 1.377 . S
C2102 C2100 1.389 . S
C2102 C2103 1.524 . S
C2102 C2116 1.377 . S
C2103 C2102 1.524 . S
C2103 C2104 1.397 . S
C2103 C2108 1.363 . S
C2104 H2081 0.950 . S
C2104 C2103 1.397 . S
C2104 C2105 1.334 . S
C2105 H2082 0.950 . S
C2105 C2104 1.334 . S
C2105 C2106 1.287 . S
C2106 C2105 1.287 . S
C2106 C2107 1.524 . S
C2106 H2125 0.913 . S
C2107 H2083 0.950 . S
C2107 C2106 1.524 . S
C2107 C2108 1.415 . S
C2108 H2084 0.950 . S
C2108 C2103 1.363 . S
C2108 C2107 1.415 . S
C2109 H2085 0.951 . S
C2109 C2110 1.366 . S
C2109 C2111 1.388 . S
C2110 C2109 1.366 . S
C2110 C2114 1.385 . S
C2111 H2086 0.951 . S
C2111 C2109 1.388 . S
C2111 C2112 1.366 . S
C2112 C2111 1.366 . S
C2112 C2113 1.414 . S
C2112 C2115 1.499 . S
C2113 H2087 0.950 . S
C2113 C2112 1.414 . S
C2113 C2114 1.374 . S
C2114 H2088 0.950 . S
C2114 C2110 1.385 . S
C2114 C2113 1.374 . S
C2115 C2112 1.499 . S
C2115 C2116 1.373 . S
C2115 C2117 1.389 . S
C2116 H2089 0.950 . S
C2116 C2102 1.377 . S
C2116 C2115 1.373 . S
C2117 C2101 1.377 . S
C2117 C2115 1.389 . S
C2117 C2118 1.524 . S
C2118 C2117 1.524 . S
C2118 C2119 1.397 . S
C2118 C2123 1.363 . S
C2119 H2090 0.950 . S
C2119 C2118 1.397 . S
C2119 C2120 1.334 . S
C2120 H2091 0.950 . S
C2120 C2119 1.334 . S
C2120 C2121 1.287 . S
C2121 C2120 1.287 . S
C2121 C2122 1.524 . S
C2121 H2124 0.999 . S
C2122 H2092 0.950 . S
C2122 C2121 1.524 . S
C2122 C2123 1.415 . S
C2123 H2093 0.950 . S
C2123 C2118 1.363 . S
C2123 C2122 1.415 . S
H2124 C2121 0.999 . S
H2125 C2106 0.913 . S
H2126 C2144 0.951 . S
H2127 C2146 0.951 . S
H2128 C2148 0.950 . S
H2129 C2149 0.950 . S
H2130 C2151 0.950 1_554 S
H2131 C2154 0.950 1_455 S
H2132 C2155 0.950 . S
H2133 C2157 0.950 . S
H2134 C2158 0.950 . S
H2135 C2159 0.951 . S
H2136 C2161 0.951 . S
H2137 C2163 0.950 . S
H2138 C2164 0.950 . S
H2139 C2166 0.950 . S
H2140 C2169 0.947 1_556 S
H2141 C2170 0.950 . S
H2142 C2172 0.950 . S
H2143 C2173 0.950 . S
C2144 H2126 0.951 . S
C2144 C2145 1.366 1_655 S
C2144 C2146 1.388 . S
C2145 C2144 1.366 1_455 S
C2145 C2149 1.385 . S
C2146 H2127 0.951 . S
C2146 C2144 1.388 . S
C2146 C2147 1.366 1_655 S
C2147 C2146 1.366 1_455 S
C2147 C2148 1.414 . S
C2147 C2150 1.499 1_554 S
C2148 H2128 0.950 . S
C2148 C2147 1.414 . S
C2148 C2149 1.374 . S
C2149 H2129 0.950 . S
C2149 C2145 1.385 . S
C2149 C2148 1.374 . S
C2150 C2147 1.499 1_556 S
C2150 C2151 1.373 . S
C2150 C2152 1.368 1_455 S
C2151 H2130 0.950 1_556 S
C2151 C2150 1.373 . S
C2151 C2167 1.377 . S
C2152 C2150 1.368 1_655 S
C2152 C2153 1.542 . S
C2152 C2166 1.380 . S
C2153 C2152 1.542 . S
C2153 C2154 1.397 . S
C2153 C2158 1.363 . S
C2154 H2131 0.950 1_655 S
C2154 C2153 1.397 . S
C2154 C2155 1.334 . S
C2155 H2132 0.950 . S
C2155 C2154 1.334 . S
C2155 C2156 1.287 . S
C2156 C2155 1.287 . S
C2156 C2157 1.524 . S
C2156 H2175 0.913 . S
C2157 H2133 0.950 . S
C2157 C2156 1.524 . S
C2157 C2158 1.415 . S
C2158 H2134 0.950 . S
C2158 C2153 1.363 . S
C2158 C2157 1.415 . S
C2159 H2135 0.951 . S
C2159 C2160 1.366 . S
C2159 C2161 1.388 . S
C2160 C2159 1.366 . S
C2160 C2164 1.385 1_455 S
C2161 H2136 0.951 . S
C2161 C2159 1.388 . S
C2161 C2162 1.366 . S
C2162 C2161 1.366 . S
C2162 C2163 1.414 1_455 S
C2162 C2165 1.499 . S
C2163 H2137 0.950 . S
C2163 C2162 1.414 1_655 S
C2163 C2164 1.374 . S
C2164 H2138 0.950 . S
C2164 C2160 1.385 1_655 S
C2164 C2163 1.374 . S
C2165 C2162 1.499 . S
C2165 C2166 1.373 1_455 S
C2165 C2167 1.389 . S
C2166 H2139 0.950 . S
C2166 C2152 1.380 . S
C2166 C2165 1.373 1_655 S
C2167 C2151 1.377 . S
C2167 C2165 1.389 . S
C2167 C2168 1.524 . S
C2168 C2167 1.524 . S
C2168 C2169 1.397 1_556 S
C2168 C2173 1.363 . S
C2169 H2140 0.947 1_554 S
C2169 C2168 1.397 1_554 S
C2169 C2170 1.334 . S
C2170 H2141 0.950 . S
C2170 C2169 1.334 . S
C2170 C2171 1.287 . S
C2171 C2170 1.287 . S
C2171 C2172 1.524 . S
C2171 H2174 0.999 . S
C2172 H2142 0.950 . S
C2172 C2171 1.524 . S
C2172 C2173 1.415 1_554 S
C2173 H2143 0.950 . S
C2173 C2168 1.363 . S
C2173 C2172 1.415 1_556 S
H2174 C2171 0.999 . S
H2175 C2156 0.913 . S
H2176 C2194 0.951 . S
H2177 C2196 0.951 . S
H2178 C2198 0.950 . S
H2179 C2199 0.950 . S
H2180 C2201 0.950 . S
H2181 C2204 0.950 . S
H2182 C2205 0.950 . S
H2183 C2207 0.950 . S
H2184 C2208 0.950 . S
H2185 C2209 0.951 . S
H2186 C2211 0.951 . S
H2187 C2213 0.950 . S
H2188 C2214 0.950 . S
H2189 C2216 0.950 . S
H2190 C2219 0.950 . S
H2191 C2220 0.950 . S
H2192 C2222 0.950 . S
H2193 C2223 0.950 . S
C2194 H2176 0.951 . S
C2194 C2195 1.366 . S
C2194 C2196 1.388 . S
C2195 C2194 1.366 . S
C2195 C2199 1.385 . S
C2196 H2177 0.951 . S
C2196 C2194 1.388 . S
C2196 C2197 1.366 . S
C2197 C2196 1.366 . S
C2197 C2198 1.414 . S
C2197 C2200 1.499 . S
C2198 H2178 0.950 . S
C2198 C2197 1.414 . S
C2198 C2199 1.374 . S
C2199 H2179 0.950 . S
C2199 C2195 1.385 . S
C2199 C2198 1.374 . S
C2200 C2197 1.499 . S
C2200 C2201 1.373 . S
C2200 C2202 1.389 . S
C2201 H2180 0.950 . S
C2201 C2200 1.373 . S
C2201 C2217 1.377 . S
C2202 C2200 1.389 . S
C2202 C2203 1.524 . S
C2202 C2216 1.377 . S
C2203 C2202 1.524 . S
C2203 C2204 1.397 . S
C2203 C2208 1.363 . S
C2204 H2181 0.950 . S
C2204 C2203 1.397 . S
C2204 C2205 1.334 . S
C2205 H2182 0.950 . S
C2205 C2204 1.334 . S
C2205 C2206 1.287 . S
C2206 C2205 1.287 . S
C2206 C2207 1.524 . S
C2206 H2225 0.913 . S
C2207 H2183 0.950 . S
C2207 C2206 1.524 . S
C2207 C2208 1.415 . S
C2208 H2184 0.950 . S
C2208 C2203 1.363 . S
C2208 C2207 1.415 . S
C2209 H2185 0.951 . S
C2209 C2210 1.366 . S
C2209 C2211 1.388 . S
C2210 C2209 1.366 . S
C2210 C2214 1.385 . S
C2211 H2186 0.951 . S
C2211 C2209 1.388 . S
C2211 C2212 1.366 . S
C2212 C2211 1.366 . S
C2212 C2213 1.414 . S
C2212 C2215 1.499 . S
C2213 H2187 0.950 . S
C2213 C2212 1.414 . S
C2213 C2214 1.374 . S
C2214 H2188 0.950 . S
C2214 C2210 1.385 . S
C2214 C2213 1.374 . S
C2215 C2212 1.499 . S
C2215 C2216 1.373 . S
C2215 C2217 1.389 . S
C2216 H2189 0.950 . S
C2216 C2202 1.377 . S
C2216 C2215 1.373 . S
C2217 C2201 1.377 . S
C2217 C2215 1.389 . S
C2217 C2218 1.524 . S
C2218 C2217 1.524 . S
C2218 C2219 1.397 . S
C2218 C2223 1.363 . S
C2219 H2190 0.950 . S
C2219 C2218 1.397 . S
C2219 C2220 1.334 . S
C2220 H2191 0.950 . S
C2220 C2219 1.334 . S
C2220 C2221 1.287 . S
C2221 C2220 1.287 . S
C2221 C2222 1.524 . S
C2221 H2224 0.999 . S
C2222 H2192 0.950 . S
C2222 C2221 1.524 . S
C2222 C2223 1.415 . S
C2223 H2193 0.950 . S
C2223 C2218 1.363 . S
C2223 C2222 1.415 . S
H2224 C2221 0.999 . S
H2225 C2206 0.913 . S
H2226 C2244 0.951 . S
H2227 C2246 0.951 . S
H2228 C2248 0.950 . S
H2229 C2249 0.950 . S
H2230 C2251 0.950 . S
H2231 C2254 0.950 . S
H2232 C2255 0.950 . S
H2233 C2257 0.950 . S
H2234 C2258 0.950 . S
H2235 C2259 0.951 . S
H2236 C2261 0.951 . S
H2237 C2263 0.950 . S
H2238 C2264 0.950 . S
H2239 C2266 0.950 . S
H2240 C2269 0.950 . S
H2241 C2270 0.950 . S
H2242 C2272 0.950 . S
H2243 C2273 0.950 . S
C2244 H2226 0.951 . S
C2244 C2245 1.366 1_554 S
C2244 C2246 1.388 . S
C2245 C2244 1.366 1_556 S
C2245 C2249 1.385 . S
C2246 H2227 0.951 . S
C2246 C2244 1.388 . S
C2246 C2247 1.366 . S
C2247 C2246 1.366 . S
C2247 C2248 1.414 1_554 S
C2247 C2250 1.499 . S
C2248 H2228 0.950 . S
C2248 C2247 1.414 1_556 S
C2248 C2249 1.374 . S
C2249 H2229 0.950 . S
C2249 C2245 1.385 . S
C2249 C2248 1.374 . S
C2250 C2247 1.499 . S
C2250 C2251 1.373 . S
C2250 C2252 1.389 . S
C2251 H2230 0.950 . S
C2251 C2250 1.373 . S
C2251 C2267 1.377 . S
C2252 C2250 1.389 . S
C2252 C2253 1.524 . S
C2252 C2266 1.377 . S
C2253 C2252 1.524 . S
C2253 C2254 1.397 . S
C2253 C2258 1.363 . S
C2254 H2231 0.950 . S
C2254 C2253 1.397 . S
C2254 C2255 1.334 . S
C2255 H2232 0.950 . S
C2255 C2254 1.334 . S
C2255 C2256 1.287 . S
C2256 C2255 1.287 . S
C2256 C2257 1.524 . S
C2256 H2275 0.913 . S
C2257 H2233 0.950 . S
C2257 C2256 1.524 . S
C2257 C2258 1.415 . S
C2258 H2234 0.950 . S
C2258 C2253 1.363 . S
C2258 C2257 1.415 . S
C2259 H2235 0.951 . S
C2259 C2260 1.366 . S
C2259 C2261 1.388 . S
C2260 C2259 1.366 . S
C2260 C2264 1.385 . S
C2261 H2236 0.951 . S
C2261 C2259 1.388 . S
C2261 C2262 1.366 . S
C2262 C2261 1.366 . S
C2262 C2263 1.414 . S
C2262 C2265 1.499 . S
C2263 H2237 0.950 . S
C2263 C2262 1.414 . S
C2263 C2264 1.374 . S
C2264 H2238 0.950 . S
C2264 C2260 1.385 . S
C2264 C2263 1.374 . S
C2265 C2262 1.499 . S
C2265 C2266 1.373 . S
C2265 C2267 1.389 . S
C2266 H2239 0.950 . S
C2266 C2252 1.377 . S
C2266 C2265 1.373 . S
C2267 C2251 1.377 . S
C2267 C2265 1.389 . S
C2267 C2268 1.524 . S
C2268 C2267 1.524 . S
C2268 C2269 1.397 . S
C2268 C2273 1.363 . S
C2269 H2240 0.950 . S
C2269 C2268 1.397 . S
C2269 C2270 1.334 . S
C2270 H2241 0.950 . S
C2270 C2269 1.334 . S
C2270 C2271 1.287 . S
C2271 C2270 1.287 . S
C2271 C2272 1.524 . S
C2271 H2274 0.999 . S
C2272 H2242 0.950 . S
C2272 C2271 1.524 . S
C2272 C2273 1.415 . S
C2273 H2243 0.950 . S
C2273 C2268 1.363 . S
C2273 C2272 1.415 . S
H2274 C2271 0.999 . S
H2275 C2256 0.913 . S
H2276 C2294 0.951 . S
H2277 C2296 0.951 . S
H2278 C2298 0.950 . S
H2279 C2299 0.950 . S
H2280 C2301 0.950 . S
H2281 C2304 0.950 . S
H2282 C2305 0.950 . S
H2283 C2307 0.950 . S
H2284 C2308 0.950 . S
H2285 C2309 0.951 . S
H2286 C2311 0.951 . S
H2287 C2313 0.950 . S
H2288 C2314 0.950 . S
H2289 C2316 0.950 . S
H2290 C2319 0.950 . S
H2291 C2320 0.950 . S
H2292 C2322 0.950 . S
H2293 C2323 0.950 . S
C2294 H2276 0.951 . S
C2294 C2295 1.366 . S
C2294 C2296 1.388 . S
C2295 C2294 1.366 . S
C2295 C2299 1.385 . S
C2296 H2277 0.951 . S
C2296 C2294 1.388 . S
C2296 C2297 1.366 . S
C2297 C2296 1.366 . S
C2297 C2298 1.414 . S
C2297 C2300 1.499 . S
C2298 H2278 0.950 . S
C2298 C2297 1.414 . S
C2298 C2299 1.374 . S
C2299 H2279 0.950 . S
C2299 C2295 1.385 . S
C2299 C2298 1.374 . S
C2300 C2297 1.499 . S
C2300 C2301 1.373 . S
C2300 C2302 1.389 . S
C2301 H2280 0.950 . S
C2301 C2300 1.373 . S
C2301 C2317 1.377 . S
C2302 C2300 1.389 . S
C2302 C2303 1.524 . S
C2302 C2316 1.377 . S
C2303 C2302 1.524 . S
C2303 C2304 1.397 . S
C2303 C2308 1.363 . S
C2304 H2281 0.950 . S
C2304 C2303 1.397 . S
C2304 C2305 1.334 . S
C2305 H2282 0.950 . S
C2305 C2304 1.334 . S
C2305 C2306 1.287 . S
C2306 C2305 1.287 . S
C2306 C2307 1.524 . S
C2306 H2325 0.913 . S
C2307 H2283 0.950 . S
C2307 C2306 1.524 . S
C2307 C2308 1.415 . S
C2308 H2284 0.950 . S
C2308 C2303 1.363 . S
C2308 C2307 1.415 . S
C2309 H2285 0.951 . S
C2309 C2310 1.366 . S
C2309 C2311 1.388 . S
C2310 C2309 1.366 . S
C2310 C2314 1.385 . S
C2311 H2286 0.951 . S
C2311 C2309 1.388 . S
C2311 C2312 1.366 . S
C2312 C2311 1.366 . S
C2312 C2313 1.414 . S
C2312 C2315 1.499 . S
C2313 H2287 0.950 . S
C2313 C2312 1.414 . S
C2313 C2314 1.374 . S
C2314 H2288 0.950 . S
C2314 C2310 1.385 . S
C2314 C2313 1.374 . S
C2315 C2312 1.499 . S
C2315 C2316 1.373 . S
C2315 C2317 1.389 . S
C2316 H2289 0.950 . S
C2316 C2302 1.377 . S
C2316 C2315 1.373 . S
C2317 C2301 1.377 . S
C2317 C2315 1.389 . S
C2317 C2318 1.524 . S
C2318 C2317 1.524 . S
C2318 C2319 1.397 . S
C2318 C2323 1.363 . S
C2319 H2290 0.950 . S
C2319 C2318 1.397 . S
C2319 C2320 1.334 . S
C2320 H2291 0.950 . S
C2320 C2319 1.334 . S
C2320 C2321 1.287 . S
C2321 C2320 1.287 . S
C2321 C2322 1.524 . S
C2321 H2324 0.999 . S
C2322 H2292 0.950 . S
C2322 C2321 1.524 . S
C2322 C2323 1.415 . S
C2323 H2293 0.950 . S
C2323 C2318 1.363 . S
C2323 C2322 1.415 . S
H2324 C2321 0.999 . S
H2325 C2306 0.913 . S
H2326 C2344 0.951 . S
H2327 C2346 0.951 . S
H2328 C2348 0.950 . S
H2329 C2349 0.950 . S
H2330 C2351 0.950 . S
H2331 C2354 0.950 . S
H2332 C2355 0.950 . S
H2333 C2357 0.950 . S
H2334 C2358 0.950 . S
H2335 C2359 0.951 . S
H2336 C2361 0.951 . S
H2337 C2363 0.950 . S
H2338 C2364 0.950 . S
H2339 C2366 0.950 . S
H2340 C2369 0.950 . S
H2341 C2370 0.950 . S
H2342 C2372 0.962 . S
H2343 C2373 0.950 . S
C2344 H2326 0.951 . S
C2344 C2345 1.366 1_554 S
C2344 C2346 1.388 . S
C2345 C2344 1.366 1_556 S
C2345 C2349 1.385 . S
C2346 H2327 0.951 . S
C2346 C2344 1.388 . S
C2346 C2347 1.366 . S
C2347 C2346 1.366 . S
C2347 C2348 1.414 . S
C2347 C2350 1.499 . S
C2348 H2328 0.950 . S
C2348 C2347 1.414 . S
C2348 C2349 1.374 1_554 S
C2349 H2329 0.950 . S
C2349 C2345 1.385 . S
C2349 C2348 1.374 1_556 S
C2350 C2347 1.499 . S
C2350 C2351 1.373 . S
C2350 C2352 1.389 . S
C2351 H2330 0.950 . S
C2351 C2350 1.373 . S
C2351 C2367 1.377 . S
C2352 C2350 1.389 . S
C2352 C2353 1.524 . S
C2352 C2366 1.377 . S
C2353 C2352 1.524 . S
C2353 C2354 1.397 . S
C2353 C2358 1.363 . S
C2354 H2331 0.950 . S
C2354 C2353 1.397 . S
C2354 C2355 1.334 . S
C2355 H2332 0.950 . S
C2355 C2354 1.334 . S
C2355 C2356 1.287 . S
C2356 C2355 1.287 . S
C2356 C2357 1.524 . S
C2356 H2375 0.913 . S
C2357 H2333 0.950 . S
C2357 C2356 1.524 . S
C2357 C2358 1.415 . S
C2358 H2334 0.950 . S
C2358 C2353 1.363 . S
C2358 C2357 1.415 . S
C2359 H2335 0.951 . S
C2359 C2360 1.366 . S
C2359 C2361 1.388 . S
C2360 C2359 1.366 . S
C2360 C2364 1.385 . S
C2361 H2336 0.951 . S
C2361 C2359 1.388 . S
C2361 C2362 1.366 . S
C2362 C2361 1.366 . S
C2362 C2363 1.414 . S
C2362 C2365 1.499 . S
C2363 H2337 0.950 . S
C2363 C2362 1.414 . S
C2363 C2364 1.374 . S
C2364 H2338 0.950 . S
C2364 C2360 1.385 . S
C2364 C2363 1.374 . S
C2365 C2362 1.499 . S
C2365 C2366 1.373 . S
C2365 C2367 1.389 . S
C2366 H2339 0.950 . S
C2366 C2352 1.377 . S
C2366 C2365 1.373 . S
C2367 C2351 1.377 . S
C2367 C2365 1.389 . S
C2367 C2368 1.524 . S
C2368 C2367 1.524 . S
C2368 C2369 1.397 . S
C2368 C2373 1.363 . S
C2369 H2340 0.950 . S
C2369 C2368 1.397 . S
C2369 C2370 1.334 . S
C2370 H2341 0.950 . S
C2370 C2369 1.334 . S
C2370 C2371 1.287 . S
C2371 C2370 1.287 . S
C2371 C2372 1.524 . S
C2371 H2374 1.002 . S
C2372 H2342 0.962 . S
C2372 C2371 1.524 . S
C2372 C2373 1.415 . S
C2373 H2343 0.950 . S
C2373 C2368 1.363 . S
C2373 C2372 1.415 . S
H2374 C2371 1.002 . S
H2375 C2356 0.913 . S
H2376 C2394 0.951 . S
H2377 C2396 0.951 . S
H2378 C2398 0.950 . S
H2379 C2399 0.950 . S
H2380 C2401 0.950 . S
H2381 C2404 0.950 . S
H2382 C2405 0.950 . S
H2383 C2407 0.950 . S
H2384 C2408 0.950 . S
H2385 C2409 0.951 . S
H2386 C2411 0.951 . S
H2387 C2413 0.950 . S
H2388 C2414 0.950 . S
H2389 C2416 0.950 . S
H2390 C2419 0.950 . S
H2391 C2420 0.950 . S
H2392 C2422 0.950 . S
H2393 C2423 0.950 . S
C2394 H2376 0.951 . S
C2394 C2395 1.366 . S
C2394 C2396 1.388 . S
C2395 C2394 1.366 . S
C2395 C2399 1.385 . S
C2396 H2377 0.951 . S
C2396 C2394 1.388 . S
C2396 C2397 1.366 . S
C2397 C2396 1.366 . S
C2397 C2398 1.414 . S
C2397 C2400 1.499 . S
C2398 H2378 0.950 . S
C2398 C2397 1.414 . S
C2398 C2399 1.374 . S
C2399 H2379 0.950 . S
C2399 C2395 1.385 . S
C2399 C2398 1.374 . S
C2400 C2397 1.499 . S
C2400 C2401 1.373 . S
C2400 C2402 1.389 . S
C2401 H2380 0.950 . S
C2401 C2400 1.373 . S
C2401 C2417 1.377 . S
C2402 C2400 1.389 . S
C2402 C2403 1.524 . S
C2402 C2416 1.377 . S
C2403 C2402 1.524 . S
C2403 C2404 1.397 . S
C2403 C2408 1.363 . S
C2404 H2381 0.950 . S
C2404 C2403 1.397 . S
C2404 C2405 1.334 . S
C2405 H2382 0.950 . S
C2405 C2404 1.334 . S
C2405 C2406 1.287 . S
C2406 C2405 1.287 . S
C2406 C2407 1.524 . S
C2406 H2425 0.913 . S
C2407 H2383 0.950 . S
C2407 C2406 1.524 . S
C2407 C2408 1.415 . S
C2408 H2384 0.950 . S
C2408 C2403 1.363 . S
C2408 C2407 1.415 . S
C2409 H2385 0.951 . S
C2409 C2410 1.366 . S
C2409 C2411 1.388 . S
C2410 C2409 1.366 . S
C2410 C2414 1.385 . S
C2411 H2386 0.951 . S
C2411 C2409 1.388 . S
C2411 C2412 1.366 . S
C2412 C2411 1.366 . S
C2412 C2413 1.414 . S
C2412 C2415 1.499 . S
C2413 H2387 0.950 . S
C2413 C2412 1.414 . S
C2413 C2414 1.374 . S
C2414 H2388 0.950 . S
C2414 C2410 1.385 . S
C2414 C2413 1.374 . S
C2415 C2412 1.499 . S
C2415 C2416 1.373 . S
C2415 C2417 1.389 . S
C2416 H2389 0.950 . S
C2416 C2402 1.377 . S
C2416 C2415 1.373 . S
C2417 C2401 1.377 . S
C2417 C2415 1.389 . S
C2417 C2418 1.524 . S
C2418 C2417 1.524 . S
C2418 C2419 1.397 . S
C2418 C2423 1.363 . S
C2419 H2390 0.950 . S
C2419 C2418 1.397 . S
C2419 C2420 1.334 . S
C2420 H2391 0.950 . S
C2420 C2419 1.334 . S
C2420 C2421 1.287 . S
C2421 C2420 1.287 . S
C2421 C2422 1.524 . S
C2421 H2424 0.999 . S
C2422 H2392 0.950 . S
C2422 C2421 1.524 . S
C2422 C2423 1.415 . S
C2423 H2393 0.950 . S
C2423 C2418 1.363 . S
C2423 C2422 1.415 . S
H2424 C2421 0.999 . S
H2425 C2406 0.913 . S
H2426 C2444 0.951 . S
H2427 C2446 0.951 . S
H2428 C2448 0.950 . S
H2429 C2449 0.950 . S
H2430 C2451 0.950 . S
H2431 C2454 0.950 . S
H2432 C2455 0.950 . S
H2433 C2457 0.950 . S
H2434 C2458 0.950 . S
H2435 C2459 0.951 . S
H2436 C2461 0.951 . S
H2437 C2463 0.950 . S
H2438 C2464 0.950 . S
H2439 C2466 0.950 . S
H2440 C2469 0.950 . S
H2441 C2470 0.950 . S
H2442 C2472 0.950 . S
H2443 C2473 0.950 . S
C2444 H2426 0.951 . S
C2444 C2445 1.366 . S
C2444 C2446 1.388 . S
C2445 C2444 1.366 . S
C2445 C2449 1.385 . S
C2446 H2427 0.951 . S
C2446 C2444 1.388 . S
C2446 C2447 1.366 . S
C2447 C2446 1.366 . S
C2447 C2448 1.414 . S
C2447 C2450 1.499 . S
C2448 H2428 0.950 . S
C2448 C2447 1.414 . S
C2448 C2449 1.374 . S
C2449 H2429 0.950 . S
C2449 C2445 1.385 . S
C2449 C2448 1.374 . S
C2450 C2447 1.499 . S
C2450 C2451 1.373 . S
C2450 C2452 1.389 . S
C2451 H2430 0.950 . S
C2451 C2450 1.373 . S
C2451 C2467 1.377 . S
C2452 C2450 1.389 . S
C2452 C2453 1.524 . S
C2452 C2466 1.377 . S
C2453 C2452 1.524 . S
C2453 C2454 1.397 . S
C2453 C2458 1.363 . S
C2454 H2431 0.950 . S
C2454 C2453 1.397 . S
C2454 C2455 1.334 . S
C2455 H2432 0.950 . S
C2455 C2454 1.334 . S
C2455 C2456 1.287 . S
C2456 C2455 1.287 . S
C2456 C2457 1.524 . S
C2456 H2475 0.913 . S
C2457 H2433 0.950 . S
C2457 C2456 1.524 . S
C2457 C2458 1.415 . S
C2458 H2434 0.950 . S
C2458 C2453 1.363 . S
C2458 C2457 1.415 . S
C2459 H2435 0.951 . S
C2459 C2460 1.366 . S
C2459 C2461 1.388 . S
C2460 C2459 1.366 . S
C2460 C2464 1.385 . S
C2461 H2436 0.951 . S
C2461 C2459 1.388 . S
C2461 C2462 1.366 . S
C2462 C2461 1.366 . S
C2462 C2463 1.414 . S
C2462 C2465 1.499 . S
C2463 H2437 0.950 . S
C2463 C2462 1.414 . S
C2463 C2464 1.374 . S
C2464 H2438 0.950 . S
C2464 C2460 1.385 . S
C2464 C2463 1.374 . S
C2465 C2462 1.499 . S
C2465 C2466 1.373 . S
C2465 C2467 1.389 . S
C2466 H2439 0.950 . S
C2466 C2452 1.377 . S
C2466 C2465 1.373 . S
C2467 C2451 1.377 . S
C2467 C2465 1.389 . S
C2467 C2468 1.524 . S
C2468 C2467 1.524 . S
C2468 C2469 1.397 . S
C2468 C2473 1.363 . S
C2469 H2440 0.950 . S
C2469 C2468 1.397 . S
C2469 C2470 1.334 . S
C2470 H2441 0.950 . S
C2470 C2469 1.334 . S
C2470 C2471 1.287 . S
C2471 C2470 1.287 . S
C2471 C2472 1.524 . S
C2471 H2474 0.999 . S
C2472 H2442 0.950 . S
C2472 C2471 1.524 . S
C2472 C2473 1.415 . S
C2473 H2443 0.950 . S
C2473 C2468 1.363 . S
C2473 C2472 1.415 . S
H2474 C2471 0.999 . S
H2475 C2456 0.913 . S
H2476 C2494 0.951 . S
H2477 C2496 0.951 . S
H2478 C2498 0.950 . S
H2479 C2499 0.950 . S
H2480 C2501 0.950 . S
H2481 C2504 0.950 . S
H2482 C2505 0.950 . S
H2483 C2507 0.950 . S
H2484 C2508 0.950 . S
H2485 C2509 0.951 . S
H2486 C2511 0.951 . S
H2487 C2513 0.950 . S
H2488 C2514 0.950 . S
H2489 C2516 0.950 . S
H2490 C2519 0.950 . S
H2491 C2520 0.950 . S
H2492 C2522 0.950 . S
H2493 C2523 0.950 . S
C2494 H2476 0.951 . S
C2494 C2495 1.366 . S
C2494 C2496 1.388 . S
C2495 C2494 1.366 . S
C2495 C2499 1.385 . S
C2496 H2477 0.951 . S
C2496 C2494 1.388 . S
C2496 C2497 1.366 . S
C2497 C2496 1.366 . S
C2497 C2498 1.414 . S
C2497 C2500 1.499 . S
C2498 H2478 0.950 . S
C2498 C2497 1.414 . S
C2498 C2499 1.374 . S
C2499 H2479 0.950 . S
C2499 C2495 1.385 . S
C2499 C2498 1.374 . S
C2500 C2497 1.499 . S
C2500 C2501 1.373 . S
C2500 C2502 1.389 . S
C2501 H2480 0.950 . S
C2501 C2500 1.373 . S
C2501 C2517 1.377 . S
C2502 C2500 1.389 . S
C2502 C2503 1.524 . S
C2502 C2516 1.377 . S
C2503 C2502 1.524 . S
C2503 C2504 1.397 . S
C2503 C2508 1.363 . S
C2504 H2481 0.950 . S
C2504 C2503 1.397 . S
C2504 C2505 1.334 . S
C2505 H2482 0.950 . S
C2505 C2504 1.334 . S
C2505 C2506 1.287 . S
C2506 C2505 1.287 . S
C2506 C2507 1.524 . S
C2506 H2525 0.913 . S
C2507 H2483 0.950 . S
C2507 C2506 1.524 . S
C2507 C2508 1.415 . S
C2508 H2484 0.950 . S
C2508 C2503 1.363 . S
C2508 C2507 1.415 . S
C2509 H2485 0.951 . S
C2509 C2510 1.366 . S
C2509 C2511 1.388 . S
C2510 C2509 1.366 . S
C2510 C2514 1.385 . S
C2511 H2486 0.951 . S
C2511 C2509 1.388 . S
C2511 C2512 1.366 . S
C2512 C2511 1.366 . S
C2512 C2513 1.414 . S
C2512 C2515 1.499 . S
C2513 H2487 0.950 . S
C2513 C2512 1.414 . S
C2513 C2514 1.374 . S
C2514 H2488 0.950 . S
C2514 C2510 1.385 . S
C2514 C2513 1.374 . S
C2515 C2512 1.499 . S
C2515 C2516 1.373 . S
C2515 C2517 1.389 . S
C2516 H2489 0.950 . S
C2516 C2502 1.377 . S
C2516 C2515 1.373 . S
C2517 C2501 1.377 . S
C2517 C2515 1.389 . S
C2517 C2518 1.524 . S
C2518 C2517 1.524 . S
C2518 C2519 1.397 . S
C2518 C2523 1.363 . S
C2519 H2490 0.950 . S
C2519 C2518 1.397 . S
C2519 C2520 1.334 . S
C2520 H2491 0.950 . S
C2520 C2519 1.334 . S
C2520 C2521 1.287 . S
C2521 C2520 1.287 . S
C2521 C2522 1.524 . S
C2521 H2524 0.999 . S
C2522 H2492 0.950 . S
C2522 C2521 1.524 . S
C2522 C2523 1.415 . S
C2523 H2493 0.950 . S
C2523 C2518 1.363 . S
C2523 C2522 1.415 . S
H2524 C2521 0.999 . S
H2525 C2506 0.913 . S
H2526 C2544 0.951 . S
H2527 C2546 0.951 . S
H2528 C2548 0.950 . S
H2529 C2549 0.950 . S
H2530 C2551 0.950 . S
H2531 C2554 0.950 . S
H2532 C2555 0.950 . S
H2533 C2557 0.950 . S
H2534 C2558 0.950 . S
H2535 C2559 0.951 . S
H2536 C2561 0.951 . S
H2537 C2563 0.950 . S
H2538 C2564 0.950 . S
H2539 C2566 0.950 . S
H2540 C2569 0.950 . S
H2541 C2570 0.950 . S
H2542 C2572 0.950 . S
H2543 C2573 0.950 . S
C2544 H2526 0.951 . S
C2544 C2545 1.366 . S
C2544 C2546 1.388 . S
C2545 C2544 1.366 . S
C2545 C2549 1.385 . S
C2546 H2527 0.951 . S
C2546 C2544 1.388 . S
C2546 C2547 1.366 . S
C2547 C2546 1.366 . S
C2547 C2548 1.414 . S
C2547 C2550 1.499 . S
C2548 H2528 0.950 . S
C2548 C2547 1.414 . S
C2548 C2549 1.374 . S
C2549 H2529 0.950 . S
C2549 C2545 1.385 . S
C2549 C2548 1.374 . S
C2550 C2547 1.499 . S
C2550 C2551 1.373 . S
C2550 C2552 1.389 . S
C2551 H2530 0.950 . S
C2551 C2550 1.373 . S
C2551 C2567 1.377 . S
C2552 C2550 1.389 . S
C2552 C2553 1.524 . S
C2552 C2566 1.377 . S
C2553 C2552 1.524 . S
C2553 C2554 1.397 . S
C2553 C2558 1.363 . S
C2554 H2531 0.950 . S
C2554 C2553 1.397 . S
C2554 C2555 1.334 . S
C2555 H2532 0.950 . S
C2555 C2554 1.334 . S
C2555 C2556 1.287 . S
C2556 C2555 1.287 . S
C2556 C2557 1.524 . S
C2556 H2575 0.913 . S
C2557 H2533 0.950 . S
C2557 C2556 1.524 . S
C2557 C2558 1.415 . S
C2558 H2534 0.950 . S
C2558 C2553 1.363 . S
C2558 C2557 1.415 . S
C2559 H2535 0.951 . S
C2559 C2560 1.366 . S
C2559 C2561 1.388 . S
C2560 C2559 1.366 . S
C2560 C2564 1.385 . S
C2561 H2536 0.951 . S
C2561 C2559 1.388 . S
C2561 C2562 1.366 . S
C2562 C2561 1.366 . S
C2562 C2563 1.414 . S
C2562 C2565 1.499 . S
C2563 H2537 0.950 . S
C2563 C2562 1.414 . S
C2563 C2564 1.374 . S
C2564 H2538 0.950 . S
C2564 C2560 1.385 . S
C2564 C2563 1.374 . S
C2565 C2562 1.499 . S
C2565 C2566 1.373 . S
C2565 C2567 1.389 . S
C2566 H2539 0.950 . S
C2566 C2552 1.377 . S
C2566 C2565 1.373 . S
C2567 C2551 1.377 . S
C2567 C2565 1.389 . S
C2567 C2568 1.524 . S
C2568 C2567 1.524 . S
C2568 C2569 1.397 . S
C2568 C2573 1.363 . S
C2569 H2540 0.950 . S
C2569 C2568 1.397 . S
C2569 C2570 1.334 . S
C2570 H2541 0.950 . S
C2570 C2569 1.334 . S
C2570 C2571 1.287 . S
C2571 C2570 1.287 . S
C2571 C2572 1.524 . S
C2571 H2574 0.999 . S
C2572 H2542 0.950 . S
C2572 C2571 1.524 . S
C2572 C2573 1.415 . S
C2573 H2543 0.950 . S
C2573 C2568 1.363 . S
C2573 C2572 1.415 . S
H2574 C2571 0.999 . S
H2575 C2556 0.913 . S
H2576 C2594 0.951 . S
H2577 C2596 0.951 . S
H2578 C2598 0.950 . S
H2579 C2599 0.950 . S
H2580 C2601 0.950 . S
H2581 C2604 0.950 . S
H2582 C2605 0.950 . S
H2583 C2607 0.950 . S
H2584 C2608 0.950 . S
H2585 C2609 0.951 . S
H2586 C2611 0.951 . S
H2587 C2613 0.950 . S
H2588 C2614 0.950 . S
H2589 C2616 0.950 . S
H2590 C2619 0.950 . S
H2591 C2620 0.950 . S
H2592 C2622 0.950 . S
H2593 C2623 0.950 1_556 S
C2594 H2576 0.951 . S
C2594 C2595 1.366 . S
C2594 C2596 1.388 . S
C2595 C2594 1.366 . S
C2595 C2599 1.385 . S
C2596 H2577 0.951 . S
C2596 C2594 1.388 . S
C2596 C2597 1.366 . S
C2597 C2596 1.366 . S
C2597 C2598 1.414 . S
C2597 C2600 1.499 . S
C2598 H2578 0.950 . S
C2598 C2597 1.414 . S
C2598 C2599 1.374 . S
C2599 H2579 0.950 . S
C2599 C2595 1.385 . S
C2599 C2598 1.374 . S
C2600 C2597 1.499 . S
C2600 C2601 1.373 . S
C2600 C2602 1.389 . S
C2601 H2580 0.950 . S
C2601 C2600 1.373 . S
C2601 C2617 1.377 . S
C2602 C2600 1.389 . S
C2602 C2603 1.524 . S
C2602 C2616 1.377 . S
C2603 C2602 1.524 . S
C2603 C2604 1.397 . S
C2603 C2608 1.363 . S
C2604 H2581 0.950 . S
C2604 C2603 1.397 . S
C2604 C2605 1.334 . S
C2605 H2582 0.950 . S
C2605 C2604 1.334 . S
C2605 C2606 1.287 . S
C2606 C2605 1.287 . S
C2606 C2607 1.524 . S
C2606 H2625 0.913 . S
C2607 H2583 0.950 . S
C2607 C2606 1.524 . S
C2607 C2608 1.415 . S
C2608 H2584 0.950 . S
C2608 C2603 1.363 . S
C2608 C2607 1.415 . S
C2609 H2585 0.951 . S
C2609 C2610 1.366 . S
C2609 C2611 1.388 . S
C2610 C2609 1.366 . S
C2610 C2614 1.384 1_556 S
C2611 H2586 0.951 . S
C2611 C2609 1.388 . S
C2611 C2612 1.366 . S
C2612 C2611 1.366 . S
C2612 C2613 1.414 1_556 S
C2612 C2615 1.499 . S
C2613 H2587 0.950 . S
C2613 C2612 1.414 1_554 S
C2613 C2614 1.374 . S
C2614 H2588 0.950 . S
C2614 C2610 1.384 1_554 S
C2614 C2613 1.374 . S
C2615 C2612 1.499 . S
C2615 C2616 1.373 . S
C2615 C2617 1.389 . S
C2616 H2589 0.950 . S
C2616 C2602 1.377 . S
C2616 C2615 1.373 . S
C2617 C2601 1.377 . S
C2617 C2615 1.389 . S
C2617 C2618 1.524 1_556 S
C2618 C2617 1.524 1_554 S
C2618 C2619 1.397 . S
C2618 C2623 1.363 . S
C2619 H2590 0.950 . S
C2619 C2618 1.397 . S
C2619 C2620 1.334 . S
C2620 H2591 0.950 . S
C2620 C2619 1.334 . S
C2620 C2621 1.287 . S
C2621 C2620 1.287 . S
C2621 C2622 1.524 . S
C2621 H2624 0.999 . S
C2622 H2592 0.950 . S
C2622 C2621 1.524 . S
C2622 C2623 1.415 . S
C2623 H2593 0.950 1_554 S
C2623 C2618 1.363 . S
C2623 C2622 1.415 . S
H2624 C2621 0.999 . S
H2625 C2606 0.913 . S
H2626 C2644 0.951 . S
H2627 C2646 0.951 . S
H2628 C2648 0.950 . S
H2629 C2649 0.950 . S
H2630 C2651 0.950 . S
H2631 C2654 0.950 . S
H2632 C2655 0.950 . S
H2633 C2657 0.950 . S
H2634 C2658 0.950 . S
H2635 C2659 0.951 . S
H2636 C2661 0.951 . S
H2637 C2663 0.950 . S
H2638 C2664 0.950 . S
H2639 C2666 0.950 . S
H2640 C2669 0.950 . S
H2641 C2670 0.950 . S
H2642 C2672 0.950 . S
H2643 C2673 0.950 . S
C2644 H2626 0.951 . S
C2644 C2645 1.366 . S
C2644 C2646 1.388 . S
C2645 C2644 1.366 . S
C2645 C2649 1.385 . S
C2646 H2627 0.951 . S
C2646 C2644 1.388 . S
C2646 C2647 1.366 . S
C2647 C2646 1.366 . S
C2647 C2648 1.414 . S
C2647 C2650 1.499 . S
C2648 H2628 0.950 . S
C2648 C2647 1.414 . S
C2648 C2649 1.374 . S
C2649 H2629 0.950 . S
C2649 C2645 1.385 . S
C2649 C2648 1.374 . S
C2650 C2647 1.499 . S
C2650 C2651 1.373 . S
C2650 C2652 1.389 . S
C2651 H2630 0.950 . S
C2651 C2650 1.373 . S
C2651 C2667 1.377 . S
C2652 C2650 1.389 . S
C2652 C2653 1.524 . S
C2652 C2666 1.377 . S
C2653 C2652 1.524 . S
C2653 C2654 1.397 . S
C2653 C2658 1.363 . S
C2654 H2631 0.950 . S
C2654 C2653 1.397 . S
C2654 C2655 1.334 . S
C2655 H2632 0.950 . S
C2655 C2654 1.334 . S
C2655 C2656 1.287 . S
C2656 C2655 1.287 . S
C2656 C2657 1.524 . S
C2656 H2675 0.913 . S
C2657 H2633 0.950 . S
C2657 C2656 1.524 . S
C2657 C2658 1.415 . S
C2658 H2634 0.950 . S
C2658 C2653 1.363 . S
C2658 C2657 1.415 . S
C2659 H2635 0.951 . S
C2659 C2660 1.366 . S
C2659 C2661 1.388 . S
C2660 C2659 1.366 . S
C2660 C2664 1.385 . S
C2661 H2636 0.951 . S
C2661 C2659 1.388 . S
C2661 C2662 1.366 . S
C2662 C2661 1.366 . S
C2662 C2663 1.414 . S
C2662 C2665 1.499 . S
C2663 H2637 0.950 . S
C2663 C2662 1.414 . S
C2663 C2664 1.374 . S
C2664 H2638 0.950 . S
C2664 C2660 1.385 . S
C2664 C2663 1.374 . S
C2665 C2662 1.499 . S
C2665 C2666 1.373 . S
C2665 C2667 1.389 . S
C2666 H2639 0.950 . S
C2666 C2652 1.377 . S
C2666 C2665 1.373 . S
C2667 C2651 1.377 . S
C2667 C2665 1.389 . S
C2667 C2668 1.524 . S
C2668 C2667 1.524 . S
C2668 C2669 1.397 . S
C2668 C2673 1.363 . S
C2669 H2640 0.950 . S
C2669 C2668 1.397 . S
C2669 C2670 1.334 . S
C2670 H2641 0.950 . S
C2670 C2669 1.334 . S
C2670 C2671 1.287 . S
C2671 C2670 1.287 . S
C2671 C2672 1.524 . S
C2671 H2674 0.999 . S
C2672 H2642 0.950 . S
C2672 C2671 1.524 . S
C2672 C2673 1.415 . S
C2673 H2643 0.950 . S
C2673 C2668 1.363 . S
C2673 C2672 1.415 . S
H2674 C2671 0.999 . S
H2675 C2656 0.913 . S
H2676 C2694 0.951 . S
H2677 C2696 0.951 . S
H2678 C2698 0.950 . S
H2679 C2699 0.950 . S
H2680 C2701 0.950 . S
H2681 C2704 0.950 . S
H2682 C2705 0.950 . S
H2683 C2707 0.950 . S
H2684 C2708 0.950 . S
H2685 C2709 0.951 . S
H2686 C2711 0.951 . S
H2687 C2713 0.950 . S
H2688 C2714 0.950 . S
H2689 C2716 0.950 . S
H2690 C2719 0.950 . S
H2691 C2720 0.950 . S
H2692 C2722 0.950 . S
H2693 C2723 0.950 . S
C2694 H2676 0.951 . S
C2694 C2695 1.366 . S
C2694 C2696 1.388 . S
C2695 C2694 1.366 . S
C2695 C2699 1.385 . S
C2696 H2677 0.951 . S
C2696 C2694 1.388 . S
C2696 C2697 1.366 . S
C2697 C2696 1.366 . S
C2697 C2698 1.414 . S
C2697 C2700 1.499 . S
C2698 H2678 0.950 . S
C2698 C2697 1.414 . S
C2698 C2699 1.374 . S
C2699 H2679 0.950 . S
C2699 C2695 1.385 . S
C2699 C2698 1.374 . S
C2700 C2697 1.499 . S
C2700 C2701 1.373 . S
C2700 C2702 1.389 . S
C2701 H2680 0.950 . S
C2701 C2700 1.373 . S
C2701 C2717 1.377 . S
C2702 C2700 1.389 . S
C2702 C2703 1.524 . S
C2702 C2716 1.377 . S
C2703 C2702 1.524 . S
C2703 C2704 1.397 . S
C2703 C2708 1.363 . S
C2704 H2681 0.950 . S
C2704 C2703 1.397 . S
C2704 C2705 1.334 1_554 S
C2705 H2682 0.950 . S
C2705 C2704 1.334 1_556 S
C2705 C2706 1.287 . S
C2706 C2705 1.287 . S
C2706 C2707 1.524 1_556 S
C2706 H2725 0.913 . S
C2707 H2683 0.950 . S
C2707 C2706 1.524 1_554 S
C2707 C2708 1.415 . S
C2708 H2684 0.950 . S
C2708 C2703 1.363 . S
C2708 C2707 1.415 . S
C2709 H2685 0.951 . S
C2709 C2710 1.366 . S
C2709 C2711 1.388 . S
C2710 C2709 1.366 . S
C2710 C2714 1.385 . S
C2711 H2686 0.951 . S
C2711 C2709 1.388 . S
C2711 C2712 1.366 . S
C2712 C2711 1.366 . S
C2712 C2713 1.414 . S
C2712 C2715 1.499 . S
C2713 H2687 0.950 . S
C2713 C2712 1.414 . S
C2713 C2714 1.374 . S
C2714 H2688 0.950 . S
C2714 C2710 1.385 . S
C2714 C2713 1.374 . S
C2715 C2712 1.499 . S
C2715 C2716 1.373 . S
C2715 C2717 1.389 . S
C2716 H2689 0.950 . S
C2716 C2702 1.377 . S
C2716 C2715 1.373 . S
C2717 C2701 1.377 . S
C2717 C2715 1.389 . S
C2717 C2718 1.524 . S
C2718 C2717 1.524 . S
C2718 C2719 1.397 . S
C2718 C2723 1.363 . S
C2719 H2690 0.950 . S
C2719 C2718 1.397 . S
C2719 C2720 1.334 . S
C2720 H2691 0.950 . S
C2720 C2719 1.334 . S
C2720 C2721 1.287 . S
C2721 C2720 1.287 . S
C2721 C2722 1.524 . S
C2721 H2724 0.999 . S
C2722 H2692 0.950 . S
C2722 C2721 1.524 . S
C2722 C2723 1.415 . S
C2723 H2693 0.950 . S
C2723 C2718 1.363 . S
C2723 C2722 1.415 . S
H2724 C2721 0.999 . S
H2725 C2706 0.913 . S
H2726 C2744 0.951 1_545 S
H2727 C2746 0.951 . S
H2728 C2748 0.950 . S
H2729 C2749 0.950 . S
H2730 C2751 0.950 . S
H2731 C2754 0.950 . S
H2732 C2755 0.950 . S
H2733 C2757 0.950 . S
H2734 C2758 0.954 . S
H2735 C2759 0.951 . S
H2736 C2761 0.951 . S
H2737 C2763 0.950 . S
H2738 C2764 0.950 . S
H2739 C2766 0.950 . S
H2740 C2769 0.950 . S
H2741 C2770 0.950 . S
H2742 C2772 0.950 . S
H2743 C2773 0.950 . S
C2744 H2726 0.951 1_565 S
C2744 C2745 1.366 . S
C2744 C2746 1.388 . S
C2745 C2744 1.366 . S
C2745 C2749 1.385 . S
C2746 H2727 0.951 . S
C2746 C2744 1.388 . S
C2746 C2747 1.366 . S
C2747 C2746 1.366 . S
C2747 C2748 1.414 . S
C2747 C2750 1.499 . S
C2748 H2728 0.950 . S
C2748 C2747 1.414 . S
C2748 C2749 1.374 . S
C2749 H2729 0.950 . S
C2749 C2745 1.385 . S
C2749 C2748 1.374 . S
C2750 C2747 1.499 . S
C2750 C2751 1.373 . S
C2750 C2752 1.389 . S
C2751 H2730 0.950 . S
C2751 C2750 1.373 . S
C2751 C2767 1.377 . S
C2752 C2750 1.389 . S
C2752 C2753 1.524 . S
C2752 C2766 1.377 . S
C2753 C2752 1.524 . S
C2753 C2754 1.397 1_554 S
C2753 C2758 1.364 . S
C2754 H2731 0.950 . S
C2754 C2753 1.397 1_556 S
C2754 C2755 1.334 . S
C2755 H2732 0.950 . S
C2755 C2754 1.334 . S
C2755 C2756 1.287 1_565 S
C2756 C2755 1.287 1_545 S
C2756 C2757 1.524 . S
C2756 H2775 0.913 . S
C2757 H2733 0.950 . S
C2757 C2756 1.524 . S
C2757 C2758 1.410 1_546 S
C2758 H2734 0.954 . S
C2758 C2753 1.364 . S
C2758 C2757 1.410 1_564 S
C2759 H2735 0.951 . S
C2759 C2760 1.366 . S
C2759 C2761 1.388 . S
C2760 C2759 1.366 . S
C2760 C2764 1.385 . S
C2761 H2736 0.951 . S
C2761 C2759 1.388 . S
C2761 C2762 1.366 . S
C2762 C2761 1.366 . S
C2762 C2763 1.414 . S
C2762 C2765 1.499 . S
C2763 H2737 0.950 . S
C2763 C2762 1.414 . S
C2763 C2764 1.374 . S
C2764 H2738 0.950 . S
C2764 C2760 1.385 . S
C2764 C2763 1.374 . S
C2765 C2762 1.499 . S
C2765 C2766 1.373 . S
C2765 C2767 1.389 . S
C2766 H2739 0.950 . S
C2766 C2752 1.377 . S
C2766 C2765 1.373 . S
C2767 C2751 1.377 . S
C2767 C2765 1.389 . S
C2767 C2768 1.524 . S
C2768 C2767 1.524 . S
C2768 C2769 1.397 . S
C2768 C2773 1.363 . S
C2769 H2740 0.950 . S
C2769 C2768 1.397 . S
C2769 C2770 1.334 . S
C2770 H2741 0.950 . S
C2770 C2769 1.334 . S
C2770 C2771 1.287 . S
C2771 C2770 1.287 . S
C2771 C2772 1.524 . S
C2771 H2774 0.999 . S
C2772 H2742 0.950 . S
C2772 C2771 1.524 . S
C2772 C2773 1.415 . S
C2773 H2743 0.950 . S
C2773 C2768 1.363 . S
C2773 C2772 1.415 . S
H2774 C2771 0.999 . S
H2775 C2756 0.913 . S
C410 C219 1.182 . S
C395 N66 1.175 . S
C460 C227 1.398 . S
C445 N79 1.594 . S
C495 N92 1.757 . S
C510 C247 1.750 . S
C560 C261 1.279 . S
C545 N54 1.317 . S
C610 C276 1.540 . S
C595 N131 1.528 . S
C660 C290 1.138 . S
C645 N158 1.132 . S
C695 N145 1.605 . S
C710 C304 1.608 . S
C760 C310 1.793 1_565 S
C745 N118 1.802 . S
C795 N148 2.055 . S
C810 C324 2.017 . S
C860 C345 1.624 . S
C845 N122 1.619 . S
C895 N132 1.158 . S
C910 C325 0.997 . S
C960 C346 1.514 . S
C945 N161 1.482 . S
C995 N96 1.916 . S
C1010 C353 1.626 . S
C1045 N53 1.756 . S
C1060 C359 1.765 . S
C1095 N67 0.925 . S
C1110 C352 0.912 . S
C1145 N83 1.299 . S
C1160 C360 1.312 . S
C1195 N44 1.434 . S
C1210 C254 1.406 . S
C1245 N187 1.477 . S
C1260 C255 1.247 . S
C1310 C212 1.109 . S
C1295 N197 1.147 . S
C1360 C233 1.190 . S
C1345 N106 1.213 . S
C1395 N57 1.841 1_545 S
C1410 C268 1.803 . S
C1460 C318 1.419 . S
C1445 N144 1.400 . S
C1510 C269 1.095 . S
C1495 N119 1.303 . S
C1560 C297 1.562 . S
C1545 N157 1.864 . S
C1610 C303 1.182 . S
C1595 N183 1.176 . S
C1645 N196 1.594 . S
C1660 C311 1.399 . S
C1695 N105 1.757 . S
C1710 C275 1.751 . S
C1760 C289 1.278 . S
C1745 N171 1.317 . S
C1795 N40 1.527 . S
C1810 C248 1.540 . S
C1860 C262 1.138 . S
C1845 N2 1.133 . S
C1910 C220 1.608 . S
C1895 N15 1.606 . S
C1960 C226 1.793 . S
C1945 N27 1.802 1_455 S
C1995 N18 2.055 . S
C2010 C338 2.017 . S
C2045 N31 1.618 . S
C2060 C331 1.624 . S
C2095 N41 1.158 . S
C2110 C339 0.997 . S
C2145 N5 1.482 . S
C2160 C332 1.515 . S
C2210 C367 1.626 . S
C2195 N109 1.916 . S
C2260 C373 1.765 . S
C2245 N170 1.756 . S
C2310 C366 0.913 . S
C2295 N184 0.925 . S
C2345 N200 1.298 . S
C2360 C374 1.312 . S
C2395 N135 1.434 . S
C2410 C282 1.406 . S
C2460 C283 1.247 . S
C2445 N70 1.478 . S
C2510 C296 1.108 . S
C2495 N80 1.147 . S
C2560 C317 1.192 . S
C2545 N93 1.213 . S
C2595 N174 1.841 . S
C2610 C240 1.802 1_556 S
C2660 C234 1.418 . S
C2645 N14 1.400 . S
C2695 N28 1.304 . S
C2710 C241 1.097 . S
C2760 C213 1.562 . S
C2745 N1 1.865 . S
