# Generated by pormake.
# Topology pyr, (3,6)-cn, num edge types: 1
# Building blocks:
#     Node 0, Type 0, BuildingBlock: MIDCAF_clean_linker_0, # of connection points: 3
#     Node 1, Type 0, BuildingBlock: MIDCAF_clean_linker_0, # of connection points: 3
#     Node 2, Type 0, BuildingBlock: MIDCAF_clean_linker_0, # of connection points: 3
#     Node 3, Type 0, BuildingBlock: MIDCAF_clean_linker_0, # of connection points: 3
#     Node 4, Type 0, BuildingBlock: MIDCAF_clean_linker_0, # of connection points: 3
#     Node 5, Type 0, BuildingBlock: MIDCAF_clean_linker_0, # of connection points: 3
#     Node 6, Type 0, BuildingBlock: MIDCAF_clean_linker_0, # of connection points: 3
#     Node 7, Type 0, BuildingBlock: MIDCAF_clean_linker_0, # of connection points: 3
#     Node 8, Type 1, BuildingBlock: CIFDUS_clean_sbu_1, # of connection points: 6
#     Node 9, Type 1, BuildingBlock: CIFDUS_clean_sbu_1, # of connection points: 6
#     Node 10, Type 1, BuildingBlock: CIFDUS_clean_sbu_1, # of connection points: 6
#     Node 11, Type 1, BuildingBlock: CIFDUS_clean_sbu_1, # of connection points: 6
#     Edge 12, Type (0, 1), BuildingBlock: AJUNOK_clean_linker_0, # of connection points: 2
#     Edge 13, Type (0, 1), BuildingBlock: AJUNOK_clean_linker_0, # of connection points: 2
#     Edge 14, Type (0, 1), BuildingBlock: AJUNOK_clean_linker_0, # of connection points: 2
#     Edge 15, Type (0, 1), BuildingBlock: AJUNOK_clean_linker_0, # of connection points: 2
#     Edge 16, Type (0, 1), BuildingBlock: AJUNOK_clean_linker_0, # of connection points: 2
#     Edge 17, Type (0, 1), BuildingBlock: AJUNOK_clean_linker_0, # of connection points: 2
#     Edge 18, Type (0, 1), BuildingBlock: AJUNOK_clean_linker_0, # of connection points: 2
#     Edge 19, Type (0, 1), BuildingBlock: AJUNOK_clean_linker_0, # of connection points: 2
#     Edge 20, Type (0, 1), BuildingBlock: AJUNOK_clean_linker_0, # of connection points: 2
#     Edge 21, Type (0, 1), BuildingBlock: AJUNOK_clean_linker_0, # of connection points: 2
#     Edge 22, Type (0, 1), BuildingBlock: AJUNOK_clean_linker_0, # of connection points: 2
#     Edge 23, Type (0, 1), BuildingBlock: AJUNOK_clean_linker_0, # of connection points: 2
#     Edge 24, Type (0, 1), BuildingBlock: AJUNOK_clean_linker_0, # of connection points: 2
#     Edge 25, Type (0, 1), BuildingBlock: AJUNOK_clean_linker_0, # of connection points: 2
#     Edge 26, Type (0, 1), BuildingBlock: AJUNOK_clean_linker_0, # of connection points: 2
#     Edge 27, Type (0, 1), BuildingBlock: AJUNOK_clean_linker_0, # of connection points: 2
#     Edge 28, Type (0, 1), BuildingBlock: AJUNOK_clean_linker_0, # of connection points: 2
#     Edge 29, Type (0, 1), BuildingBlock: AJUNOK_clean_linker_0, # of connection points: 2
#     Edge 30, Type (0, 1), BuildingBlock: AJUNOK_clean_linker_0, # of connection points: 2
#     Edge 31, Type (0, 1), BuildingBlock: AJUNOK_clean_linker_0, # of connection points: 2
#     Edge 32, Type (0, 1), BuildingBlock: AJUNOK_clean_linker_0, # of connection points: 2
#     Edge 33, Type (0, 1), BuildingBlock: AJUNOK_clean_linker_0, # of connection points: 2
#     Edge 34, Type (0, 1), BuildingBlock: AJUNOK_clean_linker_0, # of connection points: 2
#     Edge 35, Type (0, 1), BuildingBlock: AJUNOK_clean_linker_0, # of connection points: 2
# Relax obj value: 0.036
# Max RMSD: 0.111
# Mean RMSD: 0.047
data_MOF--net-pry--node1-CIFDUS_clean_sbu_1--node2-MIDCAF_clean_linker_0--edge1-AJUNOK_clean_linker_0
_symmetry_space_group_name_H-M    P1
_symmetry_Int_Tables_number       1
_symmetry_cell_setting            triclinic
loop_
_symmetry_equiv_pos_as_xyz
'x, y, z'
_cell_length_a     35.574814
_cell_length_b     34.319038
_cell_length_c     33.900591
_cell_angle_alpha  92.64024
_cell_angle_beta   91.106866
_cell_angle_gamma 92.784639
loop_
_atom_site_label
_atom_site_type_symbol
_atom_site_fract_x
_atom_site_fract_y
_atom_site_fract_z
_atom_type_partial_charge
C0 C 0.08399 0.12881 0.27761 0.0
C1 C 0.10239 0.09837 0.29515 0.0
C2 C 0.13429 0.084 0.2767 0.0
C3 C 0.14665 0.0985 0.24099 0.0
H4 H 0.21361 0.06896 0.14881 0.0
H5 H 0.26948 0.03993 0.1221 0.0
H6 H 0.2865 0.1376 0.04754 0.0
H7 H 0.22982 0.16604 0.07321 0.0
H8 H 0.16536 0.23809 0.08015 0.0
H9 H 0.13456 0.29336 0.05292 0.0
H10 H 0.02994 0.25417 0.10428 0.0
H11 H 0.06151 0.20102 0.13383 0.0
H12 H 0.08108 0.16632 0.22867 0.0
H13 H 0.05926 0.14044 0.29102 0.0
H14 H 0.14949 0.061 0.28968 0.0
H15 H 0.17104 0.08603 0.2277 0.0
N16 N 0.17073 0.12613 0.16619 0.0
N17 N 0.16633 0.16768 0.11338 0.0
N18 N 0.12293 0.17078 0.16495 0.0
C19 C 0.18382 0.13846 0.13124 0.0
C20 C 0.13562 0.18379 0.12984 0.0
C21 C 0.14059 0.14212 0.18356 0.0
C22 C 0.21707 0.12004 0.1133 0.0
C23 C 0.229 0.08417 0.12642 0.0
C24 C 0.26112 0.06741 0.11108 0.0
C25 C 0.28244 0.08604 0.08227 0.0
C26 C 0.27028 0.1217 0.06879 0.0
C27 C 0.23788 0.1383 0.08385 0.0
C28 C 0.11613 0.21541 0.10984 0.0
C29 C 0.13569 0.24121 0.08539 0.0
C30 C 0.11778 0.27274 0.06922 0.0
C31 C 0.07946 0.27874 0.07614 0.0
C32 C 0.05957 0.25135 0.09875 0.0
C33 C 0.0777 0.22064 0.11578 0.0
C34 C 0.12761 0.12804 0.2225 0.0
C35 C 0.09637 0.14342 0.24167 0.0
C36 C 0.24028 0.93464 0.60345 0.0
C37 C 0.22935 0.92164 0.56478 0.0
C38 C 0.25483 0.90159 0.54141 0.0
C39 C 0.29045 0.89414 0.55661 0.0
H40 H 0.35826 0.79657 0.56339 0.0
H41 H 0.38692 0.73686 0.54042 0.0
H42 H 0.49572 0.78485 0.58223 0.0
H43 H 0.46658 0.84367 0.60759 0.0
H44 H 0.44867 0.88274 0.70195 0.0
H45 H 0.4762 0.91149 0.76294 0.0
H46 H 0.39654 1.0024 0.76225 0.0
H47 H 0.36764 0.97257 0.70104 0.0
H48 H 0.28374 0.93796 0.64846 0.0
H49 H 0.22112 0.95056 0.62186 0.0
H50 H 0.24704 0.89141 0.51151 0.0
H51 H 0.30929 0.87826 0.53779 0.0
N52 N 0.35768 0.86838 0.59319 0.0
N53 N 0.40694 0.87712 0.63992 0.0
N54 N 0.35465 0.9163 0.64467 0.0
C55 C 0.39156 0.85808 0.60703 0.0
C56 C 0.3888 0.90624 0.65906 0.0
C57 C 0.33907 0.89748 0.61145 0.0
C58 C 0.41004 0.82447 0.58815 0.0
C59 C 0.38838 0.79457 0.56736 0.0
C60 C 0.40487 0.76042 0.55385 0.0
C61 C 0.44348 0.75564 0.56028 0.0
C62 C 0.46566 0.78702 0.57802 0.0
C63 C 0.44902 0.82078 0.59244 0.0
C64 C 0.40592 0.92535 0.69611 0.0
C65 C 0.43701 0.90907 0.71431 0.0
C66 C 0.45319 0.92588 0.74932 0.0
C67 C 0.43934 0.95995 0.76711 0.0
C68 C 0.40811 0.97631 0.74919 0.0
C69 C 0.39157 0.95921 0.71408 0.0
C70 C 0.30162 0.90707 0.59537 0.0
C71 C 0.27619 0.92771 0.61853 0.0
C72 C 0.63774 0.23246 0.89415 0.0
C73 C 0.59906 0.2227 0.89691 0.0
C74 C 0.57315 0.25041 0.88615 0.0
C75 C 0.58574 0.28764 0.87522 0.0
H76 H 0.57861 0.38137 0.78446 0.0
H77 H 0.564 0.41038 0.72209 0.0
H78 H 0.67148 0.47488 0.72835 0.0
H79 H 0.68509 0.44753 0.79194 0.0
H80 H 0.69772 0.46961 0.90693 0.0
H81 H 0.75132 0.49708 0.94697 0.0
H82 H 0.78289 0.38044 0.97156 0.0
H83 H 0.72818 0.35346 0.93421 0.0
H84 H 0.68019 0.27725 0.88473 0.0
H85 H 0.65853 0.21148 0.90047 0.0
H86 H 0.54314 0.24408 0.88801 0.0
H87 H 0.56532 0.3089 0.86838 0.0
N88 N 0.62691 0.3575 0.83771 0.0
N89 N 0.66825 0.41089 0.85697 0.0
N90 N 0.66441 0.35567 0.8952 0.0
C91 C 0.64219 0.39366 0.83084 0.0
C92 C 0.67913 0.39211 0.88952 0.0
C93 C 0.63814 0.3384 0.86977 0.0
C94 C 0.63284 0.41241 0.79347 0.0
C95 C 0.59904 0.40194 0.77266 0.0
C96 C 0.59086 0.41827 0.7366 0.0
C97 C 0.61651 0.44509 0.71995 0.0
C98 C 0.65063 0.45507 0.74053 0.0
C99 C 0.65848 0.43931 0.77704 0.0
C100 C 0.70908 0.40939 0.91688 0.0
C101 C 0.71572 0.44999 0.92167 0.0
C102 C 0.74638 0.46566 0.94473 0.0
C103 C 0.77172 0.44106 0.96256 0.0
C104 C 0.76372 0.4005 0.95937 0.0
C105 C 0.73253 0.38492 0.93726 0.0
C106 C 0.62434 0.29805 0.87588 0.0
C107 C 0.6502 0.27 0.88474 0.0
C108 C 0.75643 0.59937 0.48782 0.0
C109 C 0.738 0.56718 0.46731 0.0
C110 C 0.7571 0.5477 0.43693 0.0
C111 C 0.79257 0.56163 0.42534 0.0
H112 H 0.88145 0.54965 0.33298 0.0
H113 H 0.89991 0.53402 0.26501 0.0
H114 H 0.92189 0.65694 0.24778 0.0
H115 H 0.90661 0.6719 0.31626 0.0
H116 H 0.95067 0.70999 0.40129 0.0
H117 H 0.97705 0.77161 0.42943 0.0
H118 H 0.90842 0.75899 0.53216 0.0
H119 H 0.88072 0.6973 0.50321 0.0
H120 H 0.80477 0.63937 0.4914 0.0
H121 H 0.74232 0.61514 0.51116 0.0
H122 H 0.74377 0.52254 0.42086 0.0
H123 H 0.80558 0.54664 0.40073 0.0
N124 N 0.8551 0.60262 0.3897 0.0
N125 N 0.90268 0.65242 0.39191 0.0
N126 N 0.86376 0.64455 0.44637 0.0
C127 C 0.88401 0.62187 0.37199 0.0
C128 C 0.89319 0.66373 0.42927 0.0
C129 C 0.84461 0.61386 0.42686 0.0
C130 C 0.89332 0.61193 0.33025 0.0
C131 C 0.89049 0.57321 0.31461 0.0
C132 C 0.90077 0.56434 0.27549 0.0
C133 C 0.91327 0.5941 0.25076 0.0
C134 C 0.91404 0.63298 0.26609 0.0
C135 C 0.90496 0.64166 0.30541 0.0
C136 C 0.91298 0.69869 0.44956 0.0
C137 C 0.94147 0.71979 0.43019 0.0
C138 C 0.95719 0.7551 0.44673 0.0
C139 C 0.94531 0.77029 0.48342 0.0
C140 C 0.91827 0.7482 0.50386 0.0
C141 C 0.90232 0.71282 0.48717 0.0
C142 C 0.81004 0.59548 0.44385 0.0
C143 C 0.79216 0.61334 0.47626 0.0
C144 C 0.76741 0.97745 0.9248 0.0
C145 C 0.74663 0.96193 0.95565 0.0
C146 C 0.76024 0.92957 0.97447 0.0
C147 C 0.79315 0.91217 0.96175 0.0
H148 H 0.85952 0.81332 0.97593 0.0
H149 H 0.88153 0.75266 1.00198 0.0
H150 H 0.97346 0.75486 0.92126 0.0
H151 H 0.95155 0.81496 0.89456 0.0
H152 H 0.9338 0.85536 0.81023 0.0
H153 H 0.95652 0.87336 0.74577 0.0
H154 H 0.89763 0.98025 0.7558 0.0
H155 H 0.87398 0.96188 0.81974 0.0
H156 H 0.81468 0.97208 0.8871 0.0
H157 H 0.7572 1.00187 0.90928 0.0
H158 H 0.74437 0.9166 0.99791 0.0
H159 H 0.802 0.88654 0.97618 0.0
N160 N 0.85967 0.87405 0.93038 0.0
N161 N 0.90174 0.8652 0.87842 0.0
N162 N 0.85972 0.91573 0.87725 0.0
C163 C 0.88814 0.85402 0.91373 0.0
C164 C 0.88772 0.89594 0.8599 0.0
C165 C 0.84541 0.9052 0.91241 0.0
C166 C 0.90343 0.8192 0.93275 0.0
C167 C 0.88478 0.80135 0.96406 0.0
C168 C 0.89748 0.76668 0.97922 0.0
C169 C 0.92957 0.74941 0.96411 0.0
C170 C 0.94908 0.76791 0.93399 0.0
C171 C 0.93618 0.80223 0.91846 0.0
C172 C 0.90194 0.90708 0.82049 0.0
C173 C 0.92548 0.88265 0.79873 0.0
C174 C 0.93852 0.89296 0.76163 0.0
C175 C 0.92854 0.92803 0.74514 0.0
C176 C 0.90506 0.9525 0.7669 0.0
C177 C 0.8918 0.94209 0.80391 0.0
C178 C 0.81305 0.92638 0.92944 0.0
C179 C 0.80019 0.95996 0.91187 0.0
C180 C 0.62463 0.05992 0.27327 0.0
C181 C 0.59288 0.07395 0.25452 0.0
C182 C 0.57205 0.10201 0.27462 0.0
C183 C 0.58344 0.11691 0.3123 0.0
H184 H 0.5665 0.20921 0.38907 0.0
H185 H 0.53729 0.26703 0.41553 0.0
H186 H 0.60914 0.26792 0.51976 0.0
H187 H 0.63969 0.21076 0.49245 0.0
H188 H 0.71217 0.15551 0.4902 0.0
H189 H 0.77544 0.14136 0.51405 0.0
H190 H 0.79332 0.07475 0.40564 0.0
H191 H 0.73059 0.08829 0.38182 0.0
H192 H 0.66149 0.06431 0.32422 0.0
H193 H 0.64138 0.03866 0.25804 0.0
H194 H 0.54768 0.11356 0.26044 0.0
H195 H 0.56719 0.13933 0.32632 0.0
N196 N 0.6118 0.15278 0.38672 0.0
N197 N 0.65909 0.16155 0.43602 0.0
N198 N 0.66408 0.11385 0.38472 0.0
C199 C 0.62568 0.17187 0.4204 0.0
C200 C 0.6785 0.13258 0.41835 0.0
C201 C 0.63065 0.12353 0.36877 0.0
C202 C 0.6058 0.20535 0.43836 0.0
C203 C 0.57607 0.22148 0.41774 0.0
C204 C 0.55909 0.25465 0.43308 0.0
C205 C 0.57102 0.27253 0.46968 0.0
C206 C 0.59981 0.25557 0.49106 0.0
C207 C 0.61716 0.22257 0.47548 0.0
C208 C 0.71616 0.12309 0.43401 0.0
C209 C 0.72954 0.13773 0.47149 0.0
C210 C 0.76567 0.12963 0.48525 0.0
C211 C 0.78923 0.10724 0.46154 0.0
C212 C 0.77581 0.09244 0.42433 0.0
C213 C 0.73972 0.10005 0.41082 0.0
C214 C 0.61625 0.10435 0.33067 0.0
C215 C 0.63619 0.07491 0.31104 0.0
C216 C 0.26031 0.57509 0.10704 0.0
C217 C 0.24262 0.59494 0.077 0.0
C218 C 0.26044 0.62884 0.06332 0.0
C219 C 0.29354 0.64468 0.08204 0.0
H220 H 0.33572 0.7541 0.1095 0.0
H221 H 0.35812 0.81493 0.08184 0.0
H222 H 0.46273 0.81109 0.14766 0.0
H223 H 0.44007 0.75001 0.17629 0.0
H224 H 0.40814 0.69596 0.26427 0.0
H225 H 0.42595 0.67058 0.3278 0.0
H226 H 0.3899 0.55423 0.28439 0.0
H227 H 0.37071 0.57964 0.22175 0.0
H228 H 0.30477 0.57609 0.15054 0.0
H229 H 0.24691 0.54886 0.11811 0.0
H230 H 0.24715 0.64481 0.04048 0.0
H231 H 0.30528 0.67223 0.07232 0.0
N232 N 0.35059 0.68499 0.1314 0.0
N233 N 0.38737 0.69208 0.18967 0.0
N234 N 0.35129 0.6338 0.17459 0.0
C235 C 0.3748 0.70697 0.15562 0.0
C236 C 0.37564 0.65543 0.19946 0.0
C237 C 0.33876 0.64842 0.14032 0.0
C238 C 0.38649 0.74685 0.14446 0.0
C239 C 0.36324 0.76649 0.11877 0.0
C240 C 0.37586 0.80148 0.10315 0.0
C241 C 0.41217 0.81737 0.11243 0.0
C242 C 0.43447 0.79946 0.14036 0.0
C243 C 0.42162 0.76444 0.15646 0.0
C244 C 0.38768 0.63992 0.23782 0.0
C245 C 0.40377 0.66497 0.26835 0.0
C246 C 0.41392 0.65046 0.30488 0.0
C247 C 0.40844 0.6105 0.3118 0.0
C248 C 0.39307 0.58541 0.28092 0.0
C249 C 0.3825 0.59995 0.24464 0.0
C250 C 0.30918 0.62701 0.11499 0.0
C251 C 0.29329 0.5909 0.12583 0.0
C252 C 0.07468 0.27382 0.54843 0.0
C253 C 0.04319 0.25927 0.56856 0.0
C254 C 0.02724 0.28373 0.5975 0.0
C255 C 0.04455 0.32011 0.60885 0.0
H256 H 0.05863 0.38874 0.7122 0.0
H257 H 0.04827 0.41141 0.78018 0.0
H258 H 0.14548 0.49125 0.77618 0.0
H259 H 0.15544 0.46941 0.70786 0.0
H260 H 0.18958 0.48392 0.61606 0.0
H261 H 0.25231 0.50315 0.59424 0.0
H262 H 0.25978 0.39117 0.53231 0.0
H263 H 0.19607 0.37229 0.55302 0.0
H264 H 0.11737 0.31961 0.54495 0.0
H265 H 0.08801 0.25563 0.52637 0.0
H266 H 1.00278 0.27352 0.61333 0.0
H267 H 0.03263 0.33708 0.63283 0.0
N268 N 0.09262 0.38315 0.64511 0.0
N269 N 0.14483 0.42727 0.64286 0.0
N270 N 0.13107 0.38242 0.58952 0.0
C271 C 0.11472 0.41279 0.66265 0.0
C272 C 0.15315 0.41238 0.6063 0.0
C273 C 0.1004 0.36794 0.60846 0.0
C274 C 0.10778 0.42729 0.70409 0.0
C275 C 0.0778 0.41124 0.72562 0.0
C276 C 0.07205 0.42399 0.76487 0.0
C277 C 0.09601 0.45321 0.78386 0.0
C278 C 0.12613 0.4691 0.76247 0.0
C279 C 0.13187 0.45642 0.72317 0.0
C280 C 0.18813 0.42629 0.58699 0.0
C281 C 0.20417 0.46368 0.59705 0.0
C282 C 0.24008 0.47474 0.58441 0.0
C283 C 0.26123 0.44848 0.56199 0.0
C284 C 0.24413 0.41217 0.54927 0.0
C285 C 0.20773 0.40128 0.56143 0.0
C286 C 0.07808 0.33313 0.59129 0.0
C287 C 0.09183 0.31043 0.55953 0.0
O288 O 0.9584 0.04338 0.51084 0.0
Mn289 Mn 0.00774 0.01237 0.51725 0.0
O290 O 0.92861 0.01688 0.45596 0.0
Mn291 Mn 0.96409 0.98135 0.44278 0.0
O292 O 0.05646 0.97899 0.52125 0.0
O293 O 0.02991 0.06167 0.54942 0.0
Mn294 Mn 0.05931 0.03749 0.58276 0.0
O295 O 0.98607 0.98935 0.56961 0.0
O296 O 0.09824 0.01553 0.55748 0.0
O297 O 0.03066 0.03557 0.46454 0.0
O298 O 1.00346 0.99986 0.41371 0.0
O299 O 0.06772 0.08736 0.59836 0.0
O300 O 0.03115 0.006 0.61514 0.0
C301 C 0.96928 0.93048 0.47498 0.0
C302 C 0.93084 0.04124 0.48546 0.0
C303 C 0.09037 0.98689 0.53382 0.0
C304 C 0.04399 0.0928 0.56983 0.0
C305 C 0.9998 0.98866 0.60506 0.0
C306 C 0.0282 0.0251 0.42732 0.0
O307 O 0.98309 0.96484 0.48717 0.0
O308 O 0.95168 0.9291 0.44112 0.0
O309 O 0.49134 0.01571 0.95153 0.0
Mn310 Mn 0.51102 0.02236 0.00997 0.0
O311 O 0.52506 0.9659 0.93196 0.0
Mn312 Mn 0.53395 0.95055 0.98332 0.0
O313 O 0.53147 0.02938 0.06932 0.0
O314 O 0.51732 0.08066 1.00218 0.0
Mn315 Mn 0.49786 0.10453 0.04378 0.0
O316 O 0.45426 0.02805 0.0277 0.0
O317 O 0.5271 0.09311 0.08654 0.0
O318 O 0.56916 0.01899 0.99129 0.0
O319 O 0.58002 0.95993 1.00666 0.0
O320 O 0.51374 0.14405 0.01349 0.0
O321 O 0.44747 0.09103 0.04592 0.0
C322 C 0.49523 0.92399 0.01632 0.0
C323 C 0.50303 0.99271 0.92415 0.0
C324 C 0.53788 0.05927 0.09353 0.0
C325 C 0.52514 0.11574 0.99085 0.0
C326 C 0.43404 0.0564 0.03952 0.0
C327 C 0.59296 0.9927 0.99782 0.0
O328 O 0.49865 0.96261 0.01773 0.0
O329 O 0.51545 0.90368 0.99234 0.0
O330 O 0.55803 0.52508 0.50881 0.0
Mn331 Mn 0.50069 0.51117 0.51883 0.0
O332 O 0.5673 0.50016 0.44732 0.0
Mn333 Mn 0.51861 0.48034 0.43667 0.0
O334 O 0.44227 0.49597 0.52856 0.0
O335 O 0.51214 0.50883 0.57794 0.0
Mn336 Mn 0.47527 0.53267 0.60173 0.0
O337 O 0.49151 0.5713 0.52304 0.0
O338 O 0.43619 0.49666 0.59438 0.0
O339 O 0.5117 0.45104 0.51559 0.0
O340 O 0.50727 0.43068 0.45224 0.0
O341 O 0.51398 0.53489 0.63761 0.0
O342 O 0.46685 0.58077 0.58267 0.0
C343 C 0.47741 0.51974 0.42347 0.0
C344 C 0.57926 0.51861 0.47901 0.0
C345 C 0.42292 0.48854 0.55969 0.0
C346 C 0.53283 0.51975 0.60894 0.0
C347 C 0.47771 0.59339 0.55008 0.0
C348 C 0.51038 0.4236 0.48841 0.0
O349 O 0.48842 0.51356 0.45957 0.0
O350 O 0.49249 0.49892 0.39574 0.0
O351 O 0.9492 0.49798 0.0158 0.0
Mn352 Mn 0.00725 0.51675 0.0209 0.0
O353 O 0.94217 0.47647 0.9545 0.0
Mn354 Mn 0.97487 0.51721 0.94556 0.0
O355 O 0.06431 0.53756 0.02898 0.0
O356 O 0.99419 0.5268 0.08102 0.0
Mn357 Mn 0.03309 0.50222 0.10021 0.0
O358 O 0.02104 0.45645 0.02655 0.0
O359 O 0.07761 0.52875 0.09236 0.0
O360 O 0.99262 0.57539 0.01291 0.0
O361 O 0.95881 0.56671 0.95719 0.0
O362 O 0.01086 0.51562 0.14428 0.0
O363 O 0.03177 0.44991 0.09049 0.0
C364 C 0.02406 0.50602 0.9211 0.0
C365 C 0.92944 0.47914 0.98861 0.0
C366 C 0.08669 0.54161 0.05935 0.0
C367 C 0.98837 0.53109 0.11954 0.0
C368 C 0.02802 0.43505 0.05596 0.0
C369 C 0.97091 0.58861 0.98626 0.0
O370 O 0.02211 0.50845 0.96038 0.0
O371 O 0.99506 0.51274 0.89914 0.0
C372 C 0.07827 0.10147 0.36532 0.0
C373 C 0.08687 0.07941 0.33076 0.0
C374 C 0.06196 0.08358 0.39811 0.0
C375 C 0.05296 0.04314 0.39724 0.0
H376 H 0.08377 0.13283 0.36683 0.0
H377 H 0.05475 0.10169 0.42344 0.0
S378 S 0.0711 0.97214 0.31445 0.0
N379 N 0.0861 0.01472 0.29848 0.0
N380 N 0.05591 0.98141 0.35943 0.0
C381 C 0.06269 0.02076 0.36332 0.0
C382 C 0.07939 0.03878 0.33029 0.0
C383 C 0.43351 0.98624 0.83749 0.0
C384 C 0.45647 0.97648 0.80539 0.0
C385 C 0.44904 0.99484 0.87564 0.0
C386 C 0.48802 0.9936 0.88307 0.0
H387 H 0.40317 0.98491 0.83369 0.0
H388 H 0.43019 0.99976 0.89989 0.0
S389 S 0.56097 0.97801 0.80815 0.0
N390 N 0.52079 0.97294 0.78278 0.0
N391 N 0.54956 0.98743 0.85448 0.0
C392 C 0.51143 0.98702 0.8508 0.0
C393 C 0.49577 0.97891 0.812 0.0
C394 C 0.58638 0.44225 0.65175 0.0
C395 C 0.60599 0.46411 0.68268 0.0
C396 C 0.56754 0.46069 0.62141 0.0
C397 C 0.56767 0.50161 0.62111 0.0
H398 H 0.5831 0.41077 0.65264 0.0
H399 H 0.54904 0.44298 0.60127 0.0
S400 S 0.6208 0.57213 0.68977 0.0
N401 N 0.62874 0.52903 0.70706 0.0
N402 N 0.59441 0.5631 0.64952 0.0
C403 C 0.59158 0.5234 0.64829 0.0
C404 C 0.61024 0.50486 0.67948 0.0
C405 C 0.9102 0.55396 0.1858 0.0
C406 C 0.92762 0.58441 0.21018 0.0
C407 C 0.92691 0.54028 0.15071 0.0
C408 C 0.96129 0.557 0.13818 0.0
H409 H 0.88454 0.53905 0.19501 0.0
H410 H 0.91479 0.51404 0.13548 0.0
S411 S 0.0179 0.63812 0.18951 0.0
N412 N 0.98129 0.63116 0.21793 0.0
N413 N 0.01082 0.60699 0.15125 0.0
C414 C 0.97706 0.58963 0.16023 0.0
C415 C 0.96091 0.60279 0.19648 0.0
C416 C 0.34489 0.05736 0.09675 0.0
C417 C 0.31879 0.07002 0.06879 0.0
C418 C 0.38154 0.04813 0.08603 0.0
C419 C 0.3934 0.05058 0.04687 0.0
H420 H 0.3379 0.05715 0.1277 0.0
H421 H 0.40159 0.0419 0.1091 0.0
S422 S 0.33513 0.07706 0.96143 0.0
N423 N 0.30661 0.08019 0.99922 0.0
N424 N 0.37564 0.06351 0.97958 0.0
C425 C 0.36699 0.06048 0.01822 0.0
C426 C 0.3297 0.07001 0.02902 0.0
C427 C 0.15905 0.91747 0.56793 0.0
C428 C 0.19175 0.93031 0.54872 0.0
C429 C 0.1238 0.93143 0.55802 0.0
C430 C 0.12028 0.95913 0.52903 0.0
H431 H 0.16109 0.89832 0.59234 0.0
H432 H 0.09994 0.92365 0.57596 0.0
S433 S 0.19658 0.9988 0.46742 0.0
N434 N 0.21775 0.96903 0.49663 0.0
N435 N 0.15165 0.99622 0.479 0.0
C436 C 0.1522 0.96972 0.50754 0.0
C437 C 0.18798 0.9551 0.5172 0.0
C438 C 0.82901 0.48443 0.95497 0.0
C439 C 0.80953 0.45682 0.97736 0.0
C440 C 0.86728 0.49355 0.96158 0.0
C441 C 0.88804 0.47531 0.99059 0.0
H442 H 0.81548 0.49712 0.93007 0.0
H443 H 0.88131 0.51343 0.94201 0.0
S444 S 0.84944 0.40741 0.06289 0.0
N445 N 0.81282 0.41632 0.03449 0.0
N446 N 0.88573 0.43291 0.04581 0.0
C447 C 0.86865 0.45049 0.01571 0.0
C448 C 0.8292 0.44127 1.00924 0.0
C449 C 0.67303 0.55438 0.43983 0.0
C450 C 0.69732 0.55692 0.47311 0.0
C451 C 0.63495 0.54322 0.44276 0.0
C452 C 0.61909 0.53406 0.47915 0.0
H453 H 0.68362 0.56092 0.41099 0.0
H454 H 0.61781 0.54143 0.41591 0.0
S455 S 0.67024 0.53691 0.5757 0.0
N456 N 0.70274 0.55024 0.5441 0.0
N457 N 0.63062 0.52913 0.54962 0.0
C458 C 0.64268 0.53757 0.51308 0.0
C459 C 0.68188 0.54902 0.51006 0.0
C460 C 0.03744 0.3338 0.09192 0.0
C461 C 0.06135 0.3157 0.06484 0.0
C462 C 0.02358 0.37051 0.08581 0.0
C463 C 0.03344 0.39204 0.05277 0.0
H464 H 0.03088 0.32068 0.11955 0.0
H465 H 0.00685 0.38338 0.10892 0.0
S466 S 0.08959 0.35581 0.96901 0.0
N467 N 0.08956 0.32003 1.00007 0.0
N468 N 0.06493 0.39047 0.98988 0.0
C469 C 0.05498 0.37348 0.02377 0.0
C470 C 0.0688 0.33526 0.02966 0.0
C471 C 0.55238 0.16533 0.90094 0.0
C472 C 0.58575 0.18574 0.91496 0.0
C473 C 0.53477 0.13616 0.92294 0.0
C474 C 0.55048 0.12585 0.95907 0.0
H475 H 0.53834 0.17386 0.87429 0.0
H476 H 0.50695 0.12458 0.91368 0.0
S477 S 0.63862 0.16678 1.00733 0.0
N478 N 0.6345 0.19123 0.96682 0.0
N479 N 0.60257 0.13465 1.00593 0.0
C480 C 0.58573 0.14261 0.97102 0.0
C481 C 0.60304 0.17318 0.94966 0.0
C482 C 0.92825 0.83718 0.50737 0.0
C483 C 0.95647 0.81158 0.49652 0.0
C484 C 0.9349 0.87782 0.50746 0.0
C485 C 0.96994 0.89443 0.49683 0.0
H486 H 0.8997 0.82599 0.51168 0.0
H487 H 0.91114 0.89617 0.51116 0.0
S488 S 0.05586 0.84098 0.47653 0.0
N489 N 0.02312 0.80624 0.48336 0.0
N490 N 0.03498 0.88276 0.48245 0.0
C491 C 0.99967 0.86953 0.49125 0.0
C492 C 0.99305 0.82804 0.49124 0.0
C493 C 0.44902 0.69268 0.51934 0.0
C494 C 0.45906 0.71637 0.55352 0.0
C495 C 0.45799 0.65309 0.5161 0.0
C496 C 0.47718 0.63614 0.54704 0.0
H497 H 0.43271 0.70437 0.49572 0.0
H498 H 0.44773 0.63519 0.49062 0.0
S499 S 0.51223 0.68551 0.64123 0.0
N500 N 0.49082 0.7196 0.61794 0.0
N501 N 0.50877 0.64635 0.61108 0.0
C502 C 0.48956 0.66011 0.57996 0.0
C503 C 0.48021 0.69993 0.58345 0.0
C504 C 0.98343 0.93686 0.70025 0.0
C505 C 0.94473 0.94012 0.70675 0.0
C506 C 1.00031 0.95084 0.66625 0.0
C507 C 0.97931 0.96836 0.63679 0.0
H508 H 1.00126 0.92479 0.7224 0.0
H509 H 0.03046 0.94882 0.66352 0.0
S510 S 0.87652 0.98139 0.63767 0.0
N511 N 0.88535 0.96019 0.67939 0.0
N512 N 0.91729 0.98649 0.61547 0.0
C513 C 0.94032 0.97032 0.6419 0.0
C514 C 0.92306 0.95637 0.67688 0.0
C515 C 0.59445 0.09266 0.18492 0.0
C516 C 0.58447 0.06455 0.21207 0.0
C517 C 0.58172 0.08861 0.14561 0.0
C518 C 0.55828 0.05635 0.13178 0.0
H519 H 0.6108 0.11894 0.19465 0.0
H520 H 0.58871 0.11209 0.12631 0.0
S521 S 0.52739 0.97256 0.19034 0.0
N522 N 0.55258 1.00169 0.22208 0.0
N523 N 0.52832 0.9941 0.14771 0.0
C524 C 0.55025 0.02661 0.15794 0.0
C525 C 0.56331 0.03079 0.19829 0.0
C526 C 0.45711 0.60547 0.36612 0.0
C527 C 0.42123 0.5943 0.34982 0.0
C528 C 0.47325 0.58452 0.39629 0.0
C529 C 0.45421 0.55168 0.4113 0.0
H530 H 0.47424 0.62831 0.35322 0.0
H531 H 0.50244 0.59142 0.40475 0.0
S532 S 0.35686 0.51552 0.38487 0.0
N533 N 0.36461 0.55265 0.35632 0.0
N534 N 0.39584 0.51241 0.41159 0.0
C535 C 0.41699 0.54288 0.3983 0.0
C536 C 0.40032 0.56434 0.36787 0.0
C537 C 0.07774 0.44207 0.85442 0.0
C538 C 0.08803 0.46818 0.82502 0.0
C539 C 0.06281 0.45537 0.89058 0.0
C540 C 0.05761 0.49527 0.89876 0.0
H541 H 0.079 0.41089 0.84844 0.0
H542 H 0.05146 0.43394 0.91023 0.0
S543 S 0.08328 0.57604 0.83393 0.0
N544 N 0.09466 0.53633 0.80847 0.0
N545 N 0.06725 0.56093 0.87627 0.0
C546 C 0.07125 0.52182 0.87136 0.0
C547 C 0.0861 0.50841 0.83448 0.0
C548 C 0.69943 0.00812 0.98545 0.0
C549 C 0.70748 0.97402 0.9628 0.0
C550 C 0.66181 0.01679 0.99448 0.0
C551 C 0.63125 0.99196 0.9804 0.0
H552 H 0.72232 0.0272 0.9976 0.0
H553 H 0.65682 0.04167 0.01417 0.0
S554 S 0.63782 0.90129 0.91678 0.0
N555 N 0.68197 0.91697 0.925 0.0
N556 N 0.61217 0.93366 0.93978 0.0
C557 C 0.63938 0.95932 0.95556 0.0
C558 C 0.67719 0.95019 0.9474 0.0
C559 C 0.85826 0.10714 0.45005 0.0
C560 C 0.8279 0.09874 0.47473 0.0
C561 C 0.89353 0.09198 0.45681 0.0
C562 C 0.89978 0.06797 0.48853 0.0
H563 H 0.85406 0.12358 0.42392 0.0
H564 H 0.91526 0.09659 0.43529 0.0
S565 S 0.83059 0.03998 0.56363 0.0
N566 N 0.80716 0.06744 0.5339 0.0
N567 N 0.87369 0.03868 0.54641 0.0
C568 C 0.87061 0.06176 0.51515 0.0
C569 C 0.83455 0.07727 0.5083 0.0
C570 C 0.17721 0.59035 0.09913 0.0
C571 C 0.20219 0.58581 0.06803 0.0
C572 C 0.1393 0.57885 0.09441 0.0
C573 C 0.12455 0.56165 0.05847 0.0
H574 H 0.18733 0.60197 0.12789 0.0
H575 H 0.12167 0.58191 0.11999 0.0
S576 S 0.17718 0.54933 0.96578 0.0
N577 N 0.20912 0.568 0.99838 0.0
N578 N 0.13713 0.5452 0.98958 0.0
C579 C 0.14854 0.55975 0.026 0.0
C580 C 0.1876 0.572 0.0308 0.0
C581 C 0.32308 0.4685 0.59323 0.0
C582 C 0.30256 0.45673 0.55867 0.0
C583 C 0.36163 0.47746 0.59269 0.0
C584 C 0.38217 0.47534 0.55745 0.0
H585 H 0.30917 0.47081 0.62135 0.0
H586 H 0.37513 0.48686 0.62065 0.0
S587 S 0.34216 0.44244 0.45891 0.0
N588 N 0.30558 0.44079 0.48822 0.0
N589 N 0.37887 0.45799 0.48701 0.0
C590 C 0.36226 0.46243 0.52254 0.0
C591 C 0.32242 0.45291 0.52322 0.0
C592 C 0.91818 0.67725 0.9569 0.0
C593 C 0.93905 0.70921 0.97477 0.0
C594 C 0.92798 0.6388 0.96262 0.0
C595 C 0.95923 0.63014 0.98659 0.0
H596 H 0.89461 0.68206 0.93728 0.0
H597 H 0.91116 0.61556 0.9471 0.0
S598 S 0.02113 0.70382 0.04316 0.0
N599 N 0.99101 0.73018 0.01952 0.0
N600 N 0.00941 0.65762 0.03066 0.0
C601 C 0.97939 0.66194 1.00621 0.0
C602 C 0.96943 0.70146 1.00006 0.0
C603 C 0.44476 0.88339 0.10406 0.0
C604 C 0.42893 0.84772 0.08759 0.0
C605 C 0.46371 0.91033 0.08029 0.0
C606 C 0.46775 0.90183 0.03966 0.0
H607 H 0.44331 0.88997 0.13553 0.0
H608 H 0.47716 0.93663 0.0941 0.0
S609 S 0.43027 0.81297 0.98244 0.0
N610 N 0.41778 0.80598 0.02828 0.0
N611 N 0.45255 0.85632 0.98378 0.0
C612 C 0.45056 0.86699 0.02283 0.0
C613 C 0.43147 0.8399 0.04678 0.0
C614 C 0.03155 0.19697 0.60172 0.0
C615 C 0.03281 0.21656 0.56627 0.0
C616 C 0.03085 0.15633 0.60175 0.0
C617 C 0.03166 0.13316 0.56642 0.0
H618 H 0.03407 0.2131 0.62996 0.0
H619 H 0.0325 0.14303 0.63009 0.0
S620 S 0.02566 0.1695 0.46549 0.0
N621 N 0.02792 0.20958 0.49459 0.0
N622 N 0.02706 0.13239 0.49485 0.0
C623 C 0.02886 0.15189 0.53062 0.0
C624 C 0.02958 0.19378 0.53052 0.0
C625 C 0.51551 0.31459 0.4789 0.0
C626 C 0.55446 0.30978 0.48389 0.0
C627 C 0.50018 0.35134 0.48459 0.0
C628 C 0.52298 0.38445 0.49664 0.0
H629 H 0.49698 0.29017 0.46843 0.0
H630 H 0.47073 0.35432 0.47717 0.0
S631 S 0.62595 0.38802 0.51588 0.0
N632 N 0.61515 0.34179 0.50292 0.0
N633 N 0.5858 0.4102 0.51523 0.0
C634 C 0.56132 0.37969 0.50459 0.0
C635 C 0.5772 0.34251 0.49792 0.0
loop_
_geom_bond_atom_site_label_1
_geom_bond_atom_site_label_2
_geom_bond_distance
_geom_bond_site_symmetry_2
_ccdc_geom_bond_type
C0 C1 1.384 . S
C0 H13 0.947 . S
C0 C35 1.382 . S
C1 C0 1.384 . S
C1 C2 1.378 . S
C2 C1 1.378 . S
C2 C3 1.378 . S
C2 H14 0.952 . S
C3 C2 1.378 . S
C3 H15 0.950 . S
C3 C34 1.383 . S
H4 C23 0.947 . S
H5 C24 0.946 . S
H6 C26 0.953 . S
H7 C27 0.945 . S
H8 C29 0.952 . S
H9 C30 0.949 . S
H10 C32 0.950 . S
H11 C33 0.948 . S
H12 C35 0.951 . S
H13 C0 0.947 . S
H14 C2 0.952 . S
H15 C3 0.950 . S
N16 C19 1.382 . S
N16 C21 1.363 . S
N17 C19 1.371 . S
N17 C20 1.372 . S
N18 C20 1.361 . S
N18 C21 1.377 . S
C19 N16 1.382 . S
C19 N17 1.371 . S
C19 C22 1.480 . S
C20 N17 1.372 . S
C20 N18 1.361 . S
C20 C28 1.457 . S
C21 N16 1.363 . S
C21 N18 1.377 . S
C21 C34 1.479 . S
C22 C19 1.480 . S
C22 C23 1.383 . S
C22 C27 1.385 . S
C23 H4 0.947 . S
C23 C22 1.383 . S
C23 C24 1.388 . S
C24 H5 0.946 . S
C24 C23 1.388 . S
C24 C25 1.384 . S
C25 C24 1.384 . S
C25 C26 1.377 . S
C26 H6 0.953 . S
C26 C25 1.377 . S
C26 C27 1.369 . S
C27 H7 0.945 . S
C27 C22 1.385 . S
C27 C26 1.369 . S
C28 C20 1.457 . S
C28 C29 1.372 . S
C28 C33 1.364 . S
C29 H8 0.952 . S
C29 C28 1.372 . S
C29 C30 1.389 . S
C30 H9 0.949 . S
C30 C29 1.389 . S
C30 C31 1.387 . S
C31 C30 1.387 . S
C31 C32 1.372 . S
C32 H10 0.950 . S
C32 C31 1.372 . S
C32 C33 1.379 . S
C33 H11 0.948 . S
C33 C28 1.364 . S
C33 C32 1.379 . S
C34 C3 1.383 . S
C34 C21 1.479 . S
C34 C35 1.398 . S
C35 C0 1.382 . S
C35 H12 0.951 . S
C35 C34 1.398 . S
C36 C37 1.384 . S
C36 H49 0.947 . S
C36 C71 1.382 . S
C37 C36 1.384 . S
C37 C38 1.378 . S
C38 C37 1.378 . S
C38 C39 1.378 . S
C38 H50 0.952 . S
C39 C38 1.378 . S
C39 H51 0.950 . S
C39 C70 1.383 . S
H40 C59 0.947 . S
H41 C60 0.946 . S
H42 C62 0.953 . S
H43 C63 0.945 . S
H44 C65 0.952 . S
H45 C66 0.949 . S
H46 C68 0.950 . S
H47 C69 0.948 . S
H48 C71 0.951 . S
H49 C36 0.947 . S
H50 C38 0.952 . S
H51 C39 0.950 . S
N52 C55 1.382 . S
N52 C57 1.363 . S
N53 C55 1.371 . S
N53 C56 1.372 . S
N54 C56 1.361 . S
N54 C57 1.377 . S
C55 N52 1.382 . S
C55 N53 1.371 . S
C55 C58 1.480 . S
C56 N53 1.372 . S
C56 N54 1.361 . S
C56 C64 1.457 . S
C57 N52 1.363 . S
C57 N54 1.377 . S
C57 C70 1.479 . S
C58 C55 1.480 . S
C58 C59 1.383 . S
C58 C63 1.385 . S
C59 H40 0.947 . S
C59 C58 1.383 . S
C59 C60 1.388 . S
C60 H41 0.946 . S
C60 C59 1.388 . S
C60 C61 1.384 . S
C61 C60 1.384 . S
C61 C62 1.377 . S
C62 H42 0.953 . S
C62 C61 1.377 . S
C62 C63 1.369 . S
C63 H43 0.945 . S
C63 C58 1.385 . S
C63 C62 1.369 . S
C64 C56 1.457 . S
C64 C65 1.372 . S
C64 C69 1.364 . S
C65 H44 0.952 . S
C65 C64 1.372 . S
C65 C66 1.389 . S
C66 H45 0.949 . S
C66 C65 1.389 . S
C66 C67 1.387 . S
C67 C66 1.387 . S
C67 C68 1.372 . S
C68 H46 0.950 . S
C68 C67 1.372 . S
C68 C69 1.379 . S
C69 H47 0.948 . S
C69 C64 1.364 . S
C69 C68 1.379 . S
C70 C39 1.383 . S
C70 C57 1.479 . S
C70 C71 1.398 . S
C71 C36 1.382 . S
C71 H48 0.951 . S
C71 C70 1.398 . S
C72 C73 1.384 . S
C72 H85 0.947 . S
C72 C107 1.382 . S
C73 C72 1.384 . S
C73 C74 1.378 . S
C74 C73 1.378 . S
C74 C75 1.378 . S
C74 H86 0.952 . S
C75 C74 1.378 . S
C75 H87 0.950 . S
C75 C106 1.383 . S
H76 C95 0.947 . S
H77 C96 0.946 . S
H78 C98 0.953 . S
H79 C99 0.945 . S
H80 C101 0.952 . S
H81 C102 0.949 . S
H82 C104 0.950 . S
H83 C105 0.948 . S
H84 C107 0.951 . S
H85 C72 0.947 . S
H86 C74 0.952 . S
H87 C75 0.950 . S
N88 C91 1.382 . S
N88 C93 1.363 . S
N89 C91 1.371 . S
N89 C92 1.372 . S
N90 C92 1.361 . S
N90 C93 1.377 . S
C91 N88 1.382 . S
C91 N89 1.371 . S
C91 C94 1.480 . S
C92 N89 1.372 . S
C92 N90 1.361 . S
C92 C100 1.457 . S
C93 N88 1.363 . S
C93 N90 1.377 . S
C93 C106 1.479 . S
C94 C91 1.480 . S
C94 C95 1.383 . S
C94 C99 1.385 . S
C95 H76 0.947 . S
C95 C94 1.383 . S
C95 C96 1.388 . S
C96 H77 0.946 . S
C96 C95 1.388 . S
C96 C97 1.384 . S
C97 C96 1.384 . S
C97 C98 1.377 . S
C98 H78 0.953 . S
C98 C97 1.377 . S
C98 C99 1.369 . S
C99 H79 0.945 . S
C99 C94 1.385 . S
C99 C98 1.369 . S
C100 C92 1.457 . S
C100 C101 1.372 . S
C100 C105 1.364 . S
C101 H80 0.952 . S
C101 C100 1.372 . S
C101 C102 1.389 . S
C102 H81 0.949 . S
C102 C101 1.389 . S
C102 C103 1.387 . S
C103 C102 1.387 . S
C103 C104 1.372 . S
C104 H82 0.950 . S
C104 C103 1.372 . S
C104 C105 1.379 . S
C105 H83 0.948 . S
C105 C100 1.364 . S
C105 C104 1.379 . S
C106 C75 1.383 . S
C106 C93 1.479 . S
C106 C107 1.398 . S
C107 C72 1.382 . S
C107 H84 0.951 . S
C107 C106 1.398 . S
C108 C109 1.384 . S
C108 H121 0.947 . S
C108 C143 1.382 . S
C109 C108 1.384 . S
C109 C110 1.378 . S
C110 C109 1.378 . S
C110 C111 1.378 . S
C110 H122 0.952 . S
C111 C110 1.378 . S
C111 H123 0.950 . S
C111 C142 1.383 . S
H112 C131 0.947 . S
H113 C132 0.946 . S
H114 C134 0.953 . S
H115 C135 0.945 . S
H116 C137 0.952 . S
H117 C138 0.949 . S
H118 C140 0.950 . S
H119 C141 0.948 . S
H120 C143 0.951 . S
H121 C108 0.947 . S
H122 C110 0.952 . S
H123 C111 0.950 . S
N124 C127 1.382 . S
N124 C129 1.363 . S
N125 C127 1.371 . S
N125 C128 1.372 . S
N126 C128 1.361 . S
N126 C129 1.377 . S
C127 N124 1.382 . S
C127 N125 1.371 . S
C127 C130 1.480 . S
C128 N125 1.372 . S
C128 N126 1.361 . S
C128 C136 1.457 . S
C129 N124 1.363 . S
C129 N126 1.377 . S
C129 C142 1.479 . S
C130 C127 1.480 . S
C130 C131 1.383 . S
C130 C135 1.385 . S
C131 H112 0.947 . S
C131 C130 1.383 . S
C131 C132 1.388 . S
C132 H113 0.946 . S
C132 C131 1.388 . S
C132 C133 1.384 . S
C133 C132 1.384 . S
C133 C134 1.377 . S
C134 H114 0.953 . S
C134 C133 1.377 . S
C134 C135 1.369 . S
C135 H115 0.945 . S
C135 C130 1.385 . S
C135 C134 1.369 . S
C136 C128 1.457 . S
C136 C137 1.372 . S
C136 C141 1.364 . S
C137 H116 0.952 . S
C137 C136 1.372 . S
C137 C138 1.389 . S
C138 H117 0.949 . S
C138 C137 1.389 . S
C138 C139 1.387 . S
C139 C138 1.387 . S
C139 C140 1.372 . S
C140 H118 0.950 . S
C140 C139 1.372 . S
C140 C141 1.379 . S
C141 H119 0.948 . S
C141 C136 1.364 . S
C141 C140 1.379 . S
C142 C111 1.383 . S
C142 C129 1.479 . S
C142 C143 1.398 . S
C143 C108 1.382 . S
C143 H120 0.951 . S
C143 C142 1.398 . S
C144 C145 1.384 . S
C144 H157 0.947 . S
C144 C179 1.382 . S
C145 C144 1.384 . S
C145 C146 1.378 . S
C146 C145 1.378 . S
C146 C147 1.378 . S
C146 H158 0.952 . S
C147 C146 1.378 . S
C147 H159 0.950 . S
C147 C178 1.383 . S
H148 C167 0.947 . S
H149 C168 0.946 . S
H150 C170 0.953 . S
H151 C171 0.945 . S
H152 C173 0.952 . S
H153 C174 0.949 . S
H154 C176 0.950 . S
H155 C177 0.948 . S
H156 C179 0.951 . S
H157 C144 0.947 . S
H158 C146 0.952 . S
H159 C147 0.950 . S
N160 C163 1.382 . S
N160 C165 1.363 . S
N161 C163 1.371 . S
N161 C164 1.372 . S
N162 C164 1.361 . S
N162 C165 1.377 . S
C163 N160 1.382 . S
C163 N161 1.371 . S
C163 C166 1.480 . S
C164 N161 1.372 . S
C164 N162 1.361 . S
C164 C172 1.457 . S
C165 N160 1.363 . S
C165 N162 1.377 . S
C165 C178 1.479 . S
C166 C163 1.480 . S
C166 C167 1.383 . S
C166 C171 1.385 . S
C167 H148 0.947 . S
C167 C166 1.383 . S
C167 C168 1.388 . S
C168 H149 0.946 . S
C168 C167 1.388 . S
C168 C169 1.384 . S
C169 C168 1.384 . S
C169 C170 1.377 . S
C170 H150 0.953 . S
C170 C169 1.377 . S
C170 C171 1.369 . S
C171 H151 0.945 . S
C171 C166 1.385 . S
C171 C170 1.369 . S
C172 C164 1.457 . S
C172 C173 1.372 . S
C172 C177 1.364 . S
C173 H152 0.952 . S
C173 C172 1.372 . S
C173 C174 1.389 . S
C174 H153 0.949 . S
C174 C173 1.389 . S
C174 C175 1.387 . S
C175 C174 1.387 . S
C175 C176 1.372 . S
C176 H154 0.950 . S
C176 C175 1.372 . S
C176 C177 1.379 . S
C177 H155 0.948 . S
C177 C172 1.364 . S
C177 C176 1.379 . S
C178 C147 1.383 . S
C178 C165 1.479 . S
C178 C179 1.398 . S
C179 C144 1.382 . S
C179 H156 0.951 . S
C179 C178 1.398 . S
C180 C181 1.384 . S
C180 H193 0.947 . S
C180 C215 1.382 . S
C181 C180 1.384 . S
C181 C182 1.378 . S
C182 C181 1.378 . S
C182 C183 1.378 . S
C182 H194 0.952 . S
C183 C182 1.378 . S
C183 H195 0.950 . S
C183 C214 1.383 . S
H184 C203 0.947 . S
H185 C204 0.946 . S
H186 C206 0.953 . S
H187 C207 0.945 . S
H188 C209 0.952 . S
H189 C210 0.949 . S
H190 C212 0.950 . S
H191 C213 0.948 . S
H192 C215 0.951 . S
H193 C180 0.947 . S
H194 C182 0.952 . S
H195 C183 0.950 . S
N196 C199 1.382 . S
N196 C201 1.363 . S
N197 C199 1.371 . S
N197 C200 1.372 . S
N198 C200 1.361 . S
N198 C201 1.377 . S
C199 N196 1.382 . S
C199 N197 1.371 . S
C199 C202 1.480 . S
C200 N197 1.372 . S
C200 N198 1.361 . S
C200 C208 1.457 . S
C201 N196 1.363 . S
C201 N198 1.377 . S
C201 C214 1.479 . S
C202 C199 1.480 . S
C202 C203 1.383 . S
C202 C207 1.385 . S
C203 H184 0.947 . S
C203 C202 1.383 . S
C203 C204 1.388 . S
C204 H185 0.946 . S
C204 C203 1.388 . S
C204 C205 1.384 . S
C205 C204 1.384 . S
C205 C206 1.377 . S
C206 H186 0.953 . S
C206 C205 1.377 . S
C206 C207 1.369 . S
C207 H187 0.945 . S
C207 C202 1.385 . S
C207 C206 1.369 . S
C208 C200 1.457 . S
C208 C209 1.372 . S
C208 C213 1.364 . S
C209 H188 0.952 . S
C209 C208 1.372 . S
C209 C210 1.389 . S
C210 H189 0.949 . S
C210 C209 1.389 . S
C210 C211 1.387 . S
C211 C210 1.387 . S
C211 C212 1.372 . S
C212 H190 0.950 . S
C212 C211 1.372 . S
C212 C213 1.379 . S
C213 H191 0.948 . S
C213 C208 1.364 . S
C213 C212 1.379 . S
C214 C183 1.383 . S
C214 C201 1.479 . S
C214 C215 1.398 . S
C215 C180 1.382 . S
C215 H192 0.951 . S
C215 C214 1.398 . S
C216 C217 1.384 . S
C216 H229 0.947 . S
C216 C251 1.382 . S
C217 C216 1.384 . S
C217 C218 1.378 . S
C218 C217 1.378 . S
C218 C219 1.378 . S
C218 H230 0.952 . S
C219 C218 1.378 . S
C219 H231 0.950 . S
C219 C250 1.383 . S
H220 C239 0.947 . S
H221 C240 0.946 . S
H222 C242 0.953 . S
H223 C243 0.945 . S
H224 C245 0.952 . S
H225 C246 0.949 . S
H226 C248 0.950 . S
H227 C249 0.948 . S
H228 C251 0.951 . S
H229 C216 0.947 . S
H230 C218 0.952 . S
H231 C219 0.950 . S
N232 C235 1.382 . S
N232 C237 1.363 . S
N233 C235 1.371 . S
N233 C236 1.372 . S
N234 C236 1.361 . S
N234 C237 1.377 . S
C235 N232 1.382 . S
C235 N233 1.371 . S
C235 C238 1.480 . S
C236 N233 1.372 . S
C236 N234 1.361 . S
C236 C244 1.457 . S
C237 N232 1.363 . S
C237 N234 1.377 . S
C237 C250 1.479 . S
C238 C235 1.480 . S
C238 C239 1.383 . S
C238 C243 1.385 . S
C239 H220 0.947 . S
C239 C238 1.383 . S
C239 C240 1.388 . S
C240 H221 0.946 . S
C240 C239 1.388 . S
C240 C241 1.384 . S
C241 C240 1.384 . S
C241 C242 1.377 . S
C242 H222 0.953 . S
C242 C241 1.377 . S
C242 C243 1.369 . S
C243 H223 0.945 . S
C243 C238 1.385 . S
C243 C242 1.369 . S
C244 C236 1.457 . S
C244 C245 1.372 . S
C244 C249 1.364 . S
C245 H224 0.952 . S
C245 C244 1.372 . S
C245 C246 1.389 . S
C246 H225 0.949 . S
C246 C245 1.389 . S
C246 C247 1.387 . S
C247 C246 1.387 . S
C247 C248 1.372 . S
C248 H226 0.950 . S
C248 C247 1.372 . S
C248 C249 1.379 . S
C249 H227 0.948 . S
C249 C244 1.364 . S
C249 C248 1.379 . S
C250 C219 1.383 . S
C250 C237 1.479 . S
C250 C251 1.398 . S
C251 C216 1.382 . S
C251 H228 0.951 . S
C251 C250 1.398 . S
C252 C253 1.384 . S
C252 H265 0.947 . S
C252 C287 1.382 . S
C253 C252 1.384 . S
C253 C254 1.378 . S
C254 C253 1.378 . S
C254 C255 1.378 . S
C254 H266 0.952 . S
C255 C254 1.378 . S
C255 H267 0.950 . S
C255 C286 1.383 . S
H256 C275 0.947 . S
H257 C276 0.946 . S
H258 C278 0.953 . S
H259 C279 0.945 . S
H260 C281 0.952 . S
H261 C282 0.949 . S
H262 C284 0.950 . S
H263 C285 0.948 . S
H264 C287 0.951 . S
H265 C252 0.947 . S
H266 C254 0.952 . S
H267 C255 0.950 . S
N268 C271 1.382 . S
N268 C273 1.363 . S
N269 C271 1.371 . S
N269 C272 1.372 . S
N270 C272 1.361 . S
N270 C273 1.377 . S
C271 N268 1.382 . S
C271 N269 1.371 . S
C271 C274 1.480 . S
C272 N269 1.372 . S
C272 N270 1.361 . S
C272 C280 1.457 . S
C273 N268 1.363 . S
C273 N270 1.377 . S
C273 C286 1.479 . S
C274 C271 1.480 . S
C274 C275 1.383 . S
C274 C279 1.385 . S
C275 H256 0.947 . S
C275 C274 1.383 . S
C275 C276 1.388 . S
C276 H257 0.946 . S
C276 C275 1.388 . S
C276 C277 1.384 . S
C277 C276 1.384 . S
C277 C278 1.377 . S
C278 H258 0.953 . S
C278 C277 1.377 . S
C278 C279 1.369 . S
C279 H259 0.945 . S
C279 C274 1.385 . S
C279 C278 1.369 . S
C280 C272 1.457 . S
C280 C281 1.372 . S
C280 C285 1.364 . S
C281 H260 0.952 . S
C281 C280 1.372 . S
C281 C282 1.389 . S
C282 H261 0.949 . S
C282 C281 1.389 . S
C282 C283 1.387 . S
C283 C282 1.387 . S
C283 C284 1.372 . S
C284 H262 0.950 . S
C284 C283 1.372 . S
C284 C285 1.379 . S
C285 H263 0.948 . S
C285 C280 1.364 . S
C285 C284 1.379 . S
C286 C255 1.383 . S
C286 C273 1.479 . S
C286 C287 1.398 . S
C287 C252 1.382 . S
C287 H264 0.951 . S
C287 C286 1.398 . S
O288 Mn289 2.163 1_655 S
O288 C302 1.244 . S
Mn289 O288 2.163 1_455 S
Mn289 O292 2.160 1_545 S
Mn289 O293 2.221 . S
Mn289 O295 2.163 1_445 S
Mn289 O297 2.160 . S
Mn289 O307 2.221 1_445 S
O290 Mn291 2.087 1_545 S
O290 C302 1.256 . S
Mn291 O290 2.087 1_565 S
Mn291 O298 2.089 1_565 S
Mn291 O307 2.290 . S
Mn291 O308 2.251 . S
O292 Mn289 2.160 1_565 S
O292 C303 1.239 . S
O293 Mn289 2.221 . S
O293 Mn294 2.290 . S
O293 C304 1.278 . S
Mn294 O293 2.290 . S
Mn294 O296 2.089 1_545 S
Mn294 O299 2.251 . S
Mn294 O300 2.087 . S
O295 Mn289 2.163 1_665 S
O295 C305 1.244 . S
O296 Mn294 2.089 1_565 S
O296 C303 1.256 . S
O297 Mn289 2.160 . S
O297 C306 1.239 . S
O298 Mn291 2.089 1_545 S
O298 C306 1.256 1_655 S
O299 Mn294 2.251 . S
O299 C304 1.241 . S
O300 Mn294 2.087 . S
O300 C305 1.256 1_445 S
C301 O307 1.278 . S
C301 O308 1.241 . S
C302 O288 1.244 . S
C302 O290 1.256 . S
C303 O292 1.239 . S
C303 O296 1.256 . S
C304 O293 1.278 . S
C304 O299 1.241 . S
C305 O295 1.244 . S
C305 O300 1.256 1_665 S
C306 O297 1.239 . S
C306 O298 1.256 1_455 S
O307 Mn289 2.221 1_665 S
O307 Mn291 2.290 . S
O307 C301 1.278 . S
O308 Mn291 2.251 . S
O308 C301 1.241 . S
O309 Mn310 2.163 1_556 S
O309 C323 1.244 1_545 S
Mn310 O309 2.163 1_554 S
Mn310 O313 2.160 . S
Mn310 O314 2.221 1_554 S
Mn310 O316 2.163 . S
Mn310 O318 2.160 1_554 S
Mn310 O328 2.221 1_545 S
O311 Mn312 2.087 . S
O311 C323 1.256 . S
Mn312 O311 2.087 . S
Mn312 O319 2.089 . S
Mn312 O328 2.290 1_556 S
Mn312 O329 2.251 1_556 S
O313 Mn310 2.160 . S
O313 C324 1.239 . S
O314 Mn310 2.221 1_556 S
O314 Mn315 2.290 1_556 S
O314 C325 1.278 . S
Mn315 O314 2.290 1_554 S
Mn315 O317 2.089 . S
Mn315 O320 2.251 1_554 S
Mn315 O321 2.087 . S
O316 Mn310 2.163 . S
O316 C326 1.244 . S
O317 Mn315 2.089 . S
O317 C324 1.256 . S
O318 Mn310 2.160 1_556 S
O318 C327 1.239 1_545 S
O319 Mn312 2.089 . S
O319 C327 1.256 . S
O320 Mn315 2.251 1_556 S
O320 C325 1.241 . S
O321 Mn315 2.087 . S
O321 C326 1.256 . S
C322 O328 1.278 . S
C322 O329 1.241 . S
C323 O309 1.244 1_565 S
C323 O311 1.256 . S
C324 O313 1.239 . S
C324 O317 1.256 . S
C325 O314 1.278 . S
C325 O320 1.241 . S
C326 O316 1.244 . S
C326 O321 1.256 . S
C327 O318 1.239 1_565 S
C327 O319 1.256 . S
O328 Mn310 2.221 1_565 S
O328 Mn312 2.290 1_554 S
O328 C322 1.278 . S
O329 Mn312 2.251 1_554 S
O329 C322 1.241 . S
O330 Mn331 2.163 . S
O330 C344 1.244 . S
Mn331 O330 2.163 . S
Mn331 O334 2.160 . S
Mn331 O335 2.221 . S
Mn331 O337 2.163 . S
Mn331 O339 2.160 . S
Mn331 O349 2.221 . S
O332 Mn333 2.087 . S
O332 C344 1.256 . S
Mn333 O332 2.087 . S
Mn333 O340 2.089 . S
Mn333 O349 2.290 . S
Mn333 O350 2.251 . S
O334 Mn331 2.160 . S
O334 C345 1.239 . S
O335 Mn331 2.221 . S
O335 Mn336 2.290 . S
O335 C346 1.278 . S
Mn336 O335 2.290 . S
Mn336 O338 2.089 . S
Mn336 O341 2.251 . S
Mn336 O342 2.087 . S
O337 Mn331 2.163 . S
O337 C347 1.244 . S
O338 Mn336 2.089 . S
O338 C345 1.256 . S
O339 Mn331 2.160 . S
O339 C348 1.239 . S
O340 Mn333 2.089 . S
O340 C348 1.256 . S
O341 Mn336 2.251 . S
O341 C346 1.241 . S
O342 Mn336 2.087 . S
O342 C347 1.256 . S
C343 O349 1.278 . S
C343 O350 1.241 . S
C344 O330 1.244 . S
C344 O332 1.256 . S
C345 O334 1.239 . S
C345 O338 1.256 . S
C346 O335 1.278 . S
C346 O341 1.241 . S
C347 O337 1.244 . S
C347 O342 1.256 . S
C348 O339 1.239 . S
C348 O340 1.256 . S
O349 Mn331 2.221 . S
O349 Mn333 2.290 . S
O349 C343 1.278 . S
O350 Mn333 2.251 . S
O350 C343 1.241 . S
O351 Mn352 2.163 1_655 S
O351 C365 1.244 1_554 S
Mn352 O351 2.163 1_455 S
Mn352 O355 2.160 . S
Mn352 O356 2.221 1_455 S
Mn352 O358 2.163 . S
Mn352 O360 2.160 1_454 S
Mn352 O370 2.221 1_554 S
O353 Mn354 2.087 . S
O353 C365 1.256 . S
Mn354 O353 2.087 . S
Mn354 O361 2.089 . S
Mn354 O370 2.290 1_655 S
Mn354 O371 2.251 . S
O355 Mn352 2.160 . S
O355 C366 1.239 . S
O356 Mn352 2.221 1_655 S
O356 Mn357 2.290 1_655 S
O356 C367 1.278 . S
Mn357 O356 2.290 1_455 S
Mn357 O359 2.089 . S
Mn357 O362 2.251 1_455 S
Mn357 O363 2.087 . S
O358 Mn352 2.163 . S
O358 C368 1.244 . S
O359 Mn357 2.089 . S
O359 C366 1.256 . S
O360 Mn352 2.160 1_656 S
O360 C369 1.239 . S
O361 Mn354 2.089 . S
O361 C369 1.256 . S
O362 Mn357 2.251 1_655 S
O362 C367 1.241 . S
O363 Mn357 2.087 . S
O363 C368 1.256 . S
C364 O370 1.278 . S
C364 O371 1.241 1_455 S
C365 O351 1.244 1_556 S
C365 O353 1.256 . S
C366 O355 1.239 . S
C366 O359 1.256 . S
C367 O356 1.278 . S
C367 O362 1.241 . S
C368 O358 1.244 . S
C368 O363 1.256 . S
C369 O360 1.239 . S
C369 O361 1.256 . S
O370 Mn352 2.221 1_556 S
O370 Mn354 2.290 1_455 S
O370 C364 1.278 . S
O371 Mn354 2.251 . S
O371 C364 1.241 1_655 S
C372 C373 1.369 . S
C372 C374 1.419 . S
C372 H376 0.930 . S
C373 C372 1.369 . S
C373 C382 1.429 . S
C374 C372 1.419 . S
C374 C375 1.363 . S
C374 H377 0.929 . S
C375 C374 1.363 . S
C375 C381 1.428 . S
H376 C372 0.930 . S
H377 C374 0.929 . S
S378 N379 1.613 1_565 S
S378 N380 1.610 . S
N379 S378 1.613 1_545 S
N379 C382 1.350 . S
N380 S378 1.610 . S
N380 C381 1.351 1_565 S
C381 C375 1.428 . S
C381 N380 1.351 1_545 S
C381 C382 1.434 . S
C382 C373 1.429 . S
C382 N379 1.350 . S
C382 C381 1.434 . S
C383 C384 1.369 . S
C383 C385 1.419 . S
C383 H387 0.930 . S
C384 C383 1.369 . S
C384 C393 1.429 . S
C385 C383 1.419 . S
C385 C386 1.363 . S
C385 H388 0.929 . S
C386 C385 1.363 . S
C386 C392 1.428 . S
H387 C383 0.930 . S
H388 C385 0.929 . S
S389 N390 1.613 . S
S389 N391 1.610 . S
N390 S389 1.613 . S
N390 C393 1.350 . S
N391 S389 1.610 . S
N391 C392 1.351 . S
C392 C386 1.428 . S
C392 N391 1.351 . S
C392 C393 1.434 . S
C393 C384 1.429 . S
C393 N390 1.350 . S
C393 C392 1.434 . S
C394 C395 1.369 . S
C394 C396 1.419 . S
C394 H398 0.930 . S
C395 C394 1.369 . S
C395 C404 1.429 . S
C396 C394 1.419 . S
C396 C397 1.363 . S
C396 H399 0.929 . S
C397 C396 1.363 . S
C397 C403 1.428 . S
H398 C394 0.930 . S
H399 C396 0.929 . S
S400 N401 1.613 . S
S400 N402 1.610 . S
N401 S400 1.613 . S
N401 C404 1.350 . S
N402 S400 1.610 . S
N402 C403 1.351 . S
C403 C397 1.428 . S
C403 N402 1.351 . S
C403 C404 1.434 . S
C404 C395 1.429 . S
C404 N401 1.350 . S
C404 C403 1.434 . S
C405 C406 1.369 . S
C405 C407 1.419 . S
C405 H409 0.930 . S
C406 C405 1.369 . S
C406 C415 1.429 . S
C407 C405 1.419 . S
C407 C408 1.363 . S
C407 H410 0.929 . S
C408 C407 1.363 . S
C408 C414 1.428 . S
H409 C405 0.930 . S
H410 C407 0.929 . S
S411 N412 1.613 . S
S411 N413 1.610 . S
N412 S411 1.613 . S
N412 C415 1.350 1_455 S
N413 S411 1.610 . S
N413 C414 1.351 1_455 S
C414 C408 1.428 . S
C414 N413 1.351 1_655 S
C414 C415 1.434 . S
C415 C406 1.429 . S
C415 N412 1.350 1_655 S
C415 C414 1.434 . S
C416 C417 1.369 . S
C416 C418 1.419 . S
C416 H420 0.930 . S
C417 C416 1.369 . S
C417 C426 1.429 . S
C418 C416 1.419 . S
C418 C419 1.363 . S
C418 H421 0.929 . S
C419 C418 1.363 . S
C419 C425 1.428 . S
H420 C416 0.930 . S
H421 C418 0.929 . S
S422 N423 1.613 . S
S422 N424 1.610 . S
N423 S422 1.613 . S
N423 C426 1.350 1_556 S
N424 S422 1.610 . S
N424 C425 1.351 1_556 S
C425 C419 1.428 . S
C425 N424 1.351 1_554 S
C425 C426 1.434 . S
C426 C417 1.429 . S
C426 N423 1.350 1_554 S
C426 C425 1.434 . S
C427 C428 1.369 . S
C427 C429 1.419 . S
C427 H431 0.930 . S
C428 C427 1.369 . S
C428 C437 1.429 . S
C429 C427 1.419 . S
C429 C430 1.363 . S
C429 H432 0.929 . S
C430 C429 1.363 . S
C430 C436 1.428 . S
H431 C427 0.930 . S
H432 C429 0.929 . S
S433 N434 1.613 1_545 S
S433 N435 1.610 1_545 S
N434 S433 1.613 1_565 S
N434 C437 1.350 . S
N435 S433 1.610 1_565 S
N435 C436 1.351 . S
C436 C430 1.428 . S
C436 N435 1.351 . S
C436 C437 1.434 . S
C437 C428 1.429 . S
C437 N434 1.350 . S
C437 C436 1.434 . S
C438 C439 1.369 . S
C438 C440 1.419 . S
C438 H442 0.930 . S
C439 C438 1.369 . S
C439 C448 1.429 . S
C440 C438 1.419 . S
C440 C441 1.363 . S
C440 H443 0.929 . S
C441 C440 1.363 . S
C441 C447 1.428 . S
H442 C438 0.930 . S
H443 C440 0.929 . S
S444 N445 1.613 1_554 S
S444 N446 1.610 . S
N445 S444 1.613 1_556 S
N445 C448 1.350 . S
N446 S444 1.610 . S
N446 C447 1.351 1_554 S
C447 C441 1.428 . S
C447 N446 1.351 1_556 S
C447 C448 1.434 . S
C448 C439 1.429 . S
C448 N445 1.350 . S
C448 C447 1.434 . S
C449 C450 1.369 . S
C449 C451 1.419 . S
C449 H453 0.930 . S
C450 C449 1.369 . S
C450 C459 1.429 . S
C451 C449 1.419 . S
C451 C452 1.363 . S
C451 H454 0.929 . S
C452 C451 1.363 . S
C452 C458 1.428 . S
H453 C449 0.930 . S
H454 C451 0.929 . S
S455 N456 1.613 . S
S455 N457 1.610 . S
N456 S455 1.613 . S
N456 C459 1.350 . S
N457 S455 1.610 . S
N457 C458 1.351 . S
C458 C452 1.428 . S
C458 N457 1.351 . S
C458 C459 1.434 . S
C459 C450 1.429 . S
C459 N456 1.350 . S
C459 C458 1.434 . S
C460 C461 1.369 . S
C460 C462 1.419 . S
C460 H464 0.930 . S
C461 C460 1.369 . S
C461 C470 1.429 . S
C462 C460 1.419 . S
C462 C463 1.363 . S
C462 H465 0.929 . S
C463 C462 1.363 . S
C463 C469 1.428 . S
H464 C460 0.930 . S
H465 C462 0.929 . S
S466 N467 1.613 . S
S466 N468 1.610 . S
N467 S466 1.613 . S
N467 C470 1.350 1_556 S
N468 S466 1.610 . S
N468 C469 1.351 1_556 S
C469 C463 1.428 . S
C469 N468 1.351 1_554 S
C469 C470 1.434 . S
C470 C461 1.429 . S
C470 N467 1.350 1_554 S
C470 C469 1.434 . S
C471 C472 1.369 . S
C471 C473 1.419 . S
C471 H475 0.930 . S
C472 C471 1.369 . S
C472 C481 1.429 . S
C473 C471 1.419 . S
C473 C474 1.363 . S
C473 H476 0.929 . S
C474 C473 1.363 . S
C474 C480 1.428 . S
H475 C471 0.930 . S
H476 C473 0.929 . S
S477 N478 1.613 . S
S477 N479 1.610 . S
N478 S477 1.613 . S
N478 C481 1.350 1_554 S
N479 S477 1.610 . S
N479 C480 1.351 1_554 S
C480 C474 1.428 . S
C480 N479 1.351 1_556 S
C480 C481 1.434 . S
C481 C472 1.429 . S
C481 N478 1.350 1_556 S
C481 C480 1.434 . S
C482 C483 1.369 . S
C482 C484 1.419 . S
C482 H486 0.930 . S
C483 C482 1.369 . S
C483 C492 1.429 . S
C484 C482 1.419 . S
C484 C485 1.363 . S
C484 H487 0.929 . S
C485 C484 1.363 . S
C485 C491 1.428 . S
H486 C482 0.930 . S
H487 C484 0.929 . S
S488 N489 1.613 . S
S488 N490 1.610 . S
N489 S488 1.613 . S
N489 C492 1.350 1_455 S
N490 S488 1.610 . S
N490 C491 1.351 1_455 S
C491 C485 1.428 . S
C491 N490 1.351 1_655 S
C491 C492 1.434 . S
C492 C483 1.429 . S
C492 N489 1.350 1_655 S
C492 C491 1.434 . S
C493 C494 1.369 . S
C493 C495 1.419 . S
C493 H497 0.930 . S
C494 C493 1.369 . S
C494 C503 1.429 . S
C495 C493 1.419 . S
C495 C496 1.363 . S
C495 H498 0.929 . S
C496 C495 1.363 . S
C496 C502 1.428 . S
H497 C493 0.930 . S
H498 C495 0.929 . S
S499 N500 1.613 . S
S499 N501 1.610 . S
N500 S499 1.613 . S
N500 C503 1.350 . S
N501 S499 1.610 . S
N501 C502 1.351 . S
C502 C496 1.428 . S
C502 N501 1.351 . S
C502 C503 1.434 . S
C503 C494 1.429 . S
C503 N500 1.350 . S
C503 C502 1.434 . S
C504 C505 1.369 . S
C504 C506 1.419 . S
C504 H508 0.930 . S
C505 C504 1.369 . S
C505 C514 1.429 . S
C506 C504 1.419 . S
C506 C507 1.363 . S
C506 H509 0.929 1_655 S
C507 C506 1.363 . S
C507 C513 1.428 . S
H508 C504 0.930 . S
H509 C506 0.929 1_455 S
S510 N511 1.613 1_545 S
S510 N512 1.610 . S
N511 S510 1.613 1_565 S
N511 C514 1.350 . S
N512 S510 1.610 . S
N512 C513 1.351 1_545 S
C513 C507 1.428 . S
C513 N512 1.351 1_565 S
C513 C514 1.434 . S
C514 C505 1.429 . S
C514 N511 1.350 . S
C514 C513 1.434 . S
C515 C516 1.369 . S
C515 C517 1.419 . S
C515 H519 0.930 . S
C516 C515 1.369 . S
C516 C525 1.429 . S
C517 C515 1.419 . S
C517 C518 1.363 . S
C517 H520 0.929 . S
C518 C517 1.363 . S
C518 C524 1.428 . S
H519 C515 0.930 . S
H520 C517 0.929 . S
S521 N522 1.613 . S
S521 N523 1.610 . S
N522 S521 1.613 . S
N522 C525 1.350 1_565 S
N523 S521 1.610 . S
N523 C524 1.351 1_565 S
C524 C518 1.428 . S
C524 N523 1.351 1_545 S
C524 C525 1.434 . S
C525 C516 1.429 . S
C525 N522 1.350 1_545 S
C525 C524 1.434 . S
C526 C527 1.369 . S
C526 C528 1.419 . S
C526 H530 0.930 . S
C527 C526 1.369 . S
C527 C536 1.429 . S
C528 C526 1.419 . S
C528 C529 1.363 . S
C528 H531 0.929 . S
C529 C528 1.363 . S
C529 C535 1.428 . S
H530 C526 0.930 . S
H531 C528 0.929 . S
S532 N533 1.613 . S
S532 N534 1.610 . S
N533 S532 1.613 . S
N533 C536 1.350 . S
N534 S532 1.610 . S
N534 C535 1.351 . S
C535 C529 1.428 . S
C535 N534 1.351 . S
C535 C536 1.434 . S
C536 C527 1.429 . S
C536 N533 1.350 . S
C536 C535 1.434 . S
C537 C538 1.369 . S
C537 C539 1.419 . S
C537 H541 0.930 . S
C538 C537 1.369 . S
C538 C547 1.429 . S
C539 C537 1.419 . S
C539 C540 1.363 . S
C539 H542 0.929 . S
C540 C539 1.363 . S
C540 C546 1.428 . S
H541 C537 0.930 . S
H542 C539 0.929 . S
S543 N544 1.602 1_655 S
S543 N545 1.610 . S
N544 S543 1.602 1_455 S
N544 C547 1.364 . S
N545 S543 1.610 . S
N545 C546 1.351 1_655 S
C546 C540 1.428 . S
C546 N545 1.351 1_455 S
C546 C547 1.434 . S
C547 C538 1.429 . S
C547 N544 1.364 . S
C547 C546 1.434 . S
C548 C549 1.369 . S
C548 C550 1.419 1_565 S
C548 H552 0.930 1_565 S
C549 C548 1.369 . S
C549 C558 1.429 . S
C550 C548 1.419 1_545 S
C550 C551 1.363 1_545 S
C550 H553 0.929 . S
C551 C550 1.363 1_565 S
C551 C557 1.428 . S
H552 C548 0.930 1_545 S
H553 C550 0.929 . S
S554 N555 1.613 . S
S554 N556 1.610 . S
N555 S554 1.613 . S
N555 C558 1.350 . S
N556 S554 1.610 . S
N556 C557 1.351 . S
C557 C551 1.428 . S
C557 N556 1.351 . S
C557 C558 1.434 . S
C558 C549 1.429 . S
C558 N555 1.350 . S
C558 C557 1.434 . S
C559 C560 1.369 . S
C559 C561 1.419 . S
C559 H563 0.930 . S
C560 C559 1.369 . S
C560 C569 1.429 . S
C561 C559 1.419 . S
C561 C562 1.363 . S
C561 H564 0.929 . S
C562 C561 1.363 . S
C562 C568 1.428 . S
H563 C559 0.930 . S
H564 C561 0.929 . S
S565 N566 1.613 . S
S565 N567 1.610 . S
N566 S565 1.613 . S
N566 C569 1.350 . S
N567 S565 1.610 . S
N567 C568 1.351 . S
C568 C562 1.428 . S
C568 N567 1.351 . S
C568 C569 1.434 . S
C569 C560 1.429 . S
C569 N566 1.350 . S
C569 C568 1.434 . S
C570 C571 1.369 . S
C570 C572 1.419 . S
C570 H574 0.930 . S
C571 C570 1.369 . S
C571 C580 1.429 . S
C572 C570 1.419 . S
C572 C573 1.363 . S
C572 H575 0.929 . S
C573 C572 1.363 . S
C573 C579 1.428 . S
H574 C570 0.930 . S
H575 C572 0.929 . S
S576 N577 1.613 1_556 S
S576 N578 1.610 . S
N577 S576 1.613 1_554 S
N577 C580 1.350 . S
N578 S576 1.610 . S
N578 C579 1.351 1_556 S
C579 C573 1.428 . S
C579 N578 1.351 1_554 S
C579 C580 1.434 . S
C580 C571 1.429 . S
C580 N577 1.350 . S
C580 C579 1.434 . S
C581 C582 1.369 . S
C581 C583 1.419 . S
C581 H585 0.930 . S
C582 C581 1.369 . S
C582 C591 1.429 . S
C583 C581 1.419 . S
C583 C584 1.363 . S
C583 H586 0.929 . S
C584 C583 1.363 . S
C584 C590 1.428 . S
H585 C581 0.930 . S
H586 C583 0.929 . S
S587 N588 1.613 . S
S587 N589 1.610 . S
N588 S587 1.613 . S
N588 C591 1.350 . S
N589 S587 1.610 . S
N589 C590 1.351 . S
C590 C584 1.428 . S
C590 N589 1.351 . S
C590 C591 1.434 . S
C591 C582 1.429 . S
C591 N588 1.350 . S
C591 C590 1.434 . S
C592 C593 1.369 . S
C592 C594 1.419 . S
C592 H596 0.930 . S
C593 C592 1.369 . S
C593 C602 1.429 . S
C594 C592 1.419 . S
C594 C595 1.363 . S
C594 H597 0.929 . S
C595 C594 1.363 . S
C595 C601 1.428 . S
H596 C592 0.930 . S
H597 C594 0.929 . S
S598 N599 1.613 1_455 S
S598 N600 1.610 . S
N599 S598 1.613 1_655 S
N599 C602 1.350 1_554 S
N600 S598 1.610 . S
N600 C601 1.351 1_454 S
C601 C595 1.428 . S
C601 N600 1.351 1_656 S
C601 C602 1.434 . S
C602 C593 1.429 . S
C602 N599 1.350 1_556 S
C602 C601 1.434 . S
C603 C604 1.369 . S
C603 C605 1.419 . S
C603 H607 0.930 . S
C604 C603 1.369 . S
C604 C613 1.429 . S
C605 C603 1.419 . S
C605 C606 1.363 . S
C605 H608 0.929 . S
C606 C605 1.363 . S
C606 C612 1.428 . S
H607 C603 0.930 . S
H608 C605 0.929 . S
S609 N610 1.613 1_556 S
S609 N611 1.610 . S
N610 S609 1.613 1_554 S
N610 C613 1.350 . S
N611 S609 1.610 . S
N611 C612 1.351 1_556 S
C612 C606 1.428 . S
C612 N611 1.351 1_554 S
C612 C613 1.434 . S
C613 C604 1.429 . S
C613 N610 1.350 . S
C613 C612 1.434 . S
C614 C615 1.369 . S
C614 C616 1.419 . S
C614 H618 0.930 . S
C615 C614 1.369 . S
C615 C624 1.429 . S
C616 C614 1.419 . S
C616 C617 1.363 . S
C616 H619 0.929 . S
C617 C616 1.363 . S
C617 C623 1.428 . S
H618 C614 0.930 . S
H619 C616 0.929 . S
S620 N621 1.602 1_655 S
S620 N622 1.610 . S
N621 S620 1.602 1_455 S
N621 C624 1.362 . S
N622 S620 1.610 . S
N622 C623 1.351 1_655 S
C623 C617 1.428 . S
C623 N622 1.351 1_455 S
C623 C624 1.434 . S
C624 C615 1.429 . S
C624 N621 1.362 . S
C624 C623 1.434 . S
C625 C626 1.369 . S
C625 C627 1.419 . S
C625 H629 0.930 . S
C626 C625 1.369 . S
C626 C635 1.429 . S
C627 C625 1.419 . S
C627 C628 1.363 . S
C627 H630 0.929 . S
C628 C627 1.363 . S
C628 C634 1.428 . S
H629 C625 0.930 . S
H630 C627 0.929 . S
S631 N632 1.613 . S
S631 N633 1.610 . S
N632 S631 1.613 . S
N632 C635 1.350 . S
N633 S631 1.610 . S
N633 C634 1.351 . S
C634 C628 1.428 . S
C634 N633 1.351 . S
C634 C635 1.434 . S
C635 C626 1.429 . S
C635 N632 1.350 . S
C635 C634 1.434 . S
C373 C1 1.583 . S
C375 C306 1.536 . S
C384 C67 1.510 . S
C386 C323 1.501 . S
C397 C346 1.186 . S
C395 C97 1.464 . S
C406 C133 1.867 . S
C408 C367 1.445 . S
C419 C326 1.739 . S
C417 C25 1.752 . S
C430 C303 1.670 . S
C428 C37 1.689 . S
C441 C365 1.377 . S
C439 C103 1.405 . S
C452 C344 1.532 . S
C450 C109 1.559 . S
C461 C31 1.701 . S
C463 C368 1.701 . S
C474 C325 1.282 . S
C472 C73 1.620 . S
C483 C139 1.732 . S
C485 C301 1.616 . S
C494 C61 1.518 . S
C496 C347 1.573 . S
C507 C305 1.563 . S
C505 C175 1.658 . S
C516 C181 1.347 . S
C518 C324 1.346 . S
C527 C247 1.557 . S
C529 C343 1.272 . S
C538 C277 1.805 . S
C540 C364 1.369 . S
C549 C145 1.729 . S
C551 C327 1.710 . S
C562 C302 1.730 . S
C560 C211 1.753 . S
C573 C366 1.255 . S
C571 C217 1.304 . S
C584 C345 1.602 . S
C582 C283 1.643 . S
C593 C169 1.583 . S
C595 C369 1.563 . S
C606 C322 1.238 . S
C604 C241 1.549 . S
C617 C304 1.442 . S
C615 C253 1.546 . S
C626 C205 1.494 . S
C628 C348 1.525 . S
