# Generated by pormake.
# Topology ptr, (4,4)-cn, num edge types: 1
# Building blocks:
#     Node 0, Type 0, BuildingBlock: NAHDIM_clean_sbu_0, # of connection points: 4
#     Node 1, Type 0, BuildingBlock: NAHDIM_clean_sbu_0, # of connection points: 4
#     Node 2, Type 0, BuildingBlock: NAHDIM_clean_sbu_0, # of connection points: 4
#     Node 3, Type 0, BuildingBlock: NAHDIM_clean_sbu_0, # of connection points: 4
#     Node 4, Type 0, BuildingBlock: NAHDIM_clean_sbu_0, # of connection points: 4
#     Node 5, Type 0, BuildingBlock: NAHDIM_clean_sbu_0, # of connection points: 4
#     Node 6, Type 0, BuildingBlock: NAHDIM_clean_sbu_0, # of connection points: 4
#     Node 7, Type 0, BuildingBlock: NAHDIM_clean_sbu_0, # of connection points: 4
#     Node 8, Type 0, BuildingBlock: NAHDIM_clean_sbu_0, # of connection points: 4
#     Node 9, Type 0, BuildingBlock: NAHDIM_clean_sbu_0, # of connection points: 4
#     Node 10, Type 0, BuildingBlock: NAHDIM_clean_sbu_0, # of connection points: 4
#     Node 11, Type 0, BuildingBlock: NAHDIM_clean_sbu_0, # of connection points: 4
#     Node 12, Type 0, BuildingBlock: NAHDIM_clean_sbu_0, # of connection points: 4
#     Node 13, Type 0, BuildingBlock: NAHDIM_clean_sbu_0, # of connection points: 4
#     Node 14, Type 0, BuildingBlock: NAHDIM_clean_sbu_0, # of connection points: 4
#     Node 15, Type 0, BuildingBlock: NAHDIM_clean_sbu_0, # of connection points: 4
#     Node 16, Type 0, BuildingBlock: NAHDIM_clean_sbu_0, # of connection points: 4
#     Node 17, Type 0, BuildingBlock: NAHDIM_clean_sbu_0, # of connection points: 4
#     Node 18, Type 1, BuildingBlock: MIFKUJ_clean_linker_1, # of connection points: 4
#     Node 19, Type 1, BuildingBlock: MIFKUJ_clean_linker_1, # of connection points: 4
#     Node 20, Type 1, BuildingBlock: MIFKUJ_clean_linker_1, # of connection points: 4
#     Node 21, Type 1, BuildingBlock: MIFKUJ_clean_linker_1, # of connection points: 4
#     Node 22, Type 1, BuildingBlock: MIFKUJ_clean_linker_1, # of connection points: 4
#     Node 23, Type 1, BuildingBlock: MIFKUJ_clean_linker_1, # of connection points: 4
#     Node 24, Type 1, BuildingBlock: MIFKUJ_clean_linker_1, # of connection points: 4
#     Node 25, Type 1, BuildingBlock: MIFKUJ_clean_linker_1, # of connection points: 4
#     Node 26, Type 1, BuildingBlock: MIFKUJ_clean_linker_1, # of connection points: 4
#     Node 27, Type 1, BuildingBlock: MIFKUJ_clean_linker_1, # of connection points: 4
#     Node 28, Type 1, BuildingBlock: MIFKUJ_clean_linker_1, # of connection points: 4
#     Node 29, Type 1, BuildingBlock: MIFKUJ_clean_linker_1, # of connection points: 4
#     Node 30, Type 1, BuildingBlock: MIFKUJ_clean_linker_1, # of connection points: 4
#     Node 31, Type 1, BuildingBlock: MIFKUJ_clean_linker_1, # of connection points: 4
#     Node 32, Type 1, BuildingBlock: MIFKUJ_clean_linker_1, # of connection points: 4
#     Node 33, Type 1, BuildingBlock: MIFKUJ_clean_linker_1, # of connection points: 4
#     Node 34, Type 1, BuildingBlock: MIFKUJ_clean_linker_1, # of connection points: 4
#     Node 35, Type 1, BuildingBlock: MIFKUJ_clean_linker_1, # of connection points: 4
#     Edge 36, Type (0, 1), BuildingBlock: CIFDUS_clean_linker_0, # of connection points: 2
#     Edge 37, Type (0, 1), BuildingBlock: CIFDUS_clean_linker_0, # of connection points: 2
#     Edge 38, Type (0, 1), BuildingBlock: CIFDUS_clean_linker_0, # of connection points: 2
#     Edge 39, Type (0, 1), BuildingBlock: CIFDUS_clean_linker_0, # of connection points: 2
#     Edge 40, Type (0, 1), BuildingBlock: CIFDUS_clean_linker_0, # of connection points: 2
#     Edge 41, Type (0, 1), BuildingBlock: CIFDUS_clean_linker_0, # of connection points: 2
#     Edge 42, Type (0, 1), BuildingBlock: CIFDUS_clean_linker_0, # of connection points: 2
#     Edge 43, Type (0, 1), BuildingBlock: CIFDUS_clean_linker_0, # of connection points: 2
#     Edge 44, Type (0, 1), BuildingBlock: CIFDUS_clean_linker_0, # of connection points: 2
#     Edge 45, Type (0, 1), BuildingBlock: CIFDUS_clean_linker_0, # of connection points: 2
#     Edge 46, Type (0, 1), BuildingBlock: CIFDUS_clean_linker_0, # of connection points: 2
#     Edge 47, Type (0, 1), BuildingBlock: CIFDUS_clean_linker_0, # of connection points: 2
#     Edge 48, Type (0, 1), BuildingBlock: CIFDUS_clean_linker_0, # of connection points: 2
#     Edge 49, Type (0, 1), BuildingBlock: CIFDUS_clean_linker_0, # of connection points: 2
#     Edge 50, Type (0, 1), BuildingBlock: CIFDUS_clean_linker_0, # of connection points: 2
#     Edge 51, Type (0, 1), BuildingBlock: CIFDUS_clean_linker_0, # of connection points: 2
#     Edge 52, Type (0, 1), BuildingBlock: CIFDUS_clean_linker_0, # of connection points: 2
#     Edge 53, Type (0, 1), BuildingBlock: CIFDUS_clean_linker_0, # of connection points: 2
#     Edge 54, Type (0, 1), BuildingBlock: CIFDUS_clean_linker_0, # of connection points: 2
#     Edge 55, Type (0, 1), BuildingBlock: CIFDUS_clean_linker_0, # of connection points: 2
#     Edge 56, Type (0, 1), BuildingBlock: CIFDUS_clean_linker_0, # of connection points: 2
#     Edge 57, Type (0, 1), BuildingBlock: CIFDUS_clean_linker_0, # of connection points: 2
#     Edge 58, Type (0, 1), BuildingBlock: CIFDUS_clean_linker_0, # of connection points: 2
#     Edge 59, Type (0, 1), BuildingBlock: CIFDUS_clean_linker_0, # of connection points: 2
#     Edge 60, Type (0, 1), BuildingBlock: CIFDUS_clean_linker_0, # of connection points: 2
#     Edge 61, Type (0, 1), BuildingBlock: CIFDUS_clean_linker_0, # of connection points: 2
#     Edge 62, Type (0, 1), BuildingBlock: CIFDUS_clean_linker_0, # of connection points: 2
#     Edge 63, Type (0, 1), BuildingBlock: CIFDUS_clean_linker_0, # of connection points: 2
#     Edge 64, Type (0, 1), BuildingBlock: CIFDUS_clean_linker_0, # of connection points: 2
#     Edge 65, Type (0, 1), BuildingBlock: CIFDUS_clean_linker_0, # of connection points: 2
#     Edge 66, Type (0, 1), BuildingBlock: CIFDUS_clean_linker_0, # of connection points: 2
#     Edge 67, Type (0, 1), BuildingBlock: CIFDUS_clean_linker_0, # of connection points: 2
#     Edge 68, Type (0, 1), BuildingBlock: CIFDUS_clean_linker_0, # of connection points: 2
#     Edge 69, Type (0, 1), BuildingBlock: CIFDUS_clean_linker_0, # of connection points: 2
#     Edge 70, Type (0, 1), BuildingBlock: CIFDUS_clean_linker_0, # of connection points: 2
#     Edge 71, Type (0, 1), BuildingBlock: CIFDUS_clean_linker_0, # of connection points: 2
#     Edge 72, Type (0, 1), BuildingBlock: CIFDUS_clean_linker_0, # of connection points: 2
#     Edge 73, Type (0, 1), BuildingBlock: CIFDUS_clean_linker_0, # of connection points: 2
#     Edge 74, Type (0, 1), BuildingBlock: CIFDUS_clean_linker_0, # of connection points: 2
#     Edge 75, Type (0, 1), BuildingBlock: CIFDUS_clean_linker_0, # of connection points: 2
#     Edge 76, Type (0, 1), BuildingBlock: CIFDUS_clean_linker_0, # of connection points: 2
#     Edge 77, Type (0, 1), BuildingBlock: CIFDUS_clean_linker_0, # of connection points: 2
#     Edge 78, Type (0, 1), BuildingBlock: CIFDUS_clean_linker_0, # of connection points: 2
#     Edge 79, Type (0, 1), BuildingBlock: CIFDUS_clean_linker_0, # of connection points: 2
#     Edge 80, Type (0, 1), BuildingBlock: CIFDUS_clean_linker_0, # of connection points: 2
#     Edge 81, Type (0, 1), BuildingBlock: CIFDUS_clean_linker_0, # of connection points: 2
#     Edge 82, Type (0, 1), BuildingBlock: CIFDUS_clean_linker_0, # of connection points: 2
#     Edge 83, Type (0, 1), BuildingBlock: CIFDUS_clean_linker_0, # of connection points: 2
#     Edge 84, Type (0, 1), BuildingBlock: CIFDUS_clean_linker_0, # of connection points: 2
#     Edge 85, Type (0, 1), BuildingBlock: CIFDUS_clean_linker_0, # of connection points: 2
#     Edge 86, Type (0, 1), BuildingBlock: CIFDUS_clean_linker_0, # of connection points: 2
#     Edge 87, Type (0, 1), BuildingBlock: CIFDUS_clean_linker_0, # of connection points: 2
#     Edge 88, Type (0, 1), BuildingBlock: CIFDUS_clean_linker_0, # of connection points: 2
#     Edge 89, Type (0, 1), BuildingBlock: CIFDUS_clean_linker_0, # of connection points: 2
#     Edge 90, Type (0, 1), BuildingBlock: CIFDUS_clean_linker_0, # of connection points: 2
#     Edge 91, Type (0, 1), BuildingBlock: CIFDUS_clean_linker_0, # of connection points: 2
#     Edge 92, Type (0, 1), BuildingBlock: CIFDUS_clean_linker_0, # of connection points: 2
#     Edge 93, Type (0, 1), BuildingBlock: CIFDUS_clean_linker_0, # of connection points: 2
#     Edge 94, Type (0, 1), BuildingBlock: CIFDUS_clean_linker_0, # of connection points: 2
#     Edge 95, Type (0, 1), BuildingBlock: CIFDUS_clean_linker_0, # of connection points: 2
#     Edge 96, Type (0, 1), BuildingBlock: CIFDUS_clean_linker_0, # of connection points: 2
#     Edge 97, Type (0, 1), BuildingBlock: CIFDUS_clean_linker_0, # of connection points: 2
#     Edge 98, Type (0, 1), BuildingBlock: CIFDUS_clean_linker_0, # of connection points: 2
#     Edge 99, Type (0, 1), BuildingBlock: CIFDUS_clean_linker_0, # of connection points: 2
#     Edge 100, Type (0, 1), BuildingBlock: CIFDUS_clean_linker_0, # of connection points: 2
#     Edge 101, Type (0, 1), BuildingBlock: CIFDUS_clean_linker_0, # of connection points: 2
#     Edge 102, Type (0, 1), BuildingBlock: CIFDUS_clean_linker_0, # of connection points: 2
#     Edge 103, Type (0, 1), BuildingBlock: CIFDUS_clean_linker_0, # of connection points: 2
#     Edge 104, Type (0, 1), BuildingBlock: CIFDUS_clean_linker_0, # of connection points: 2
#     Edge 105, Type (0, 1), BuildingBlock: CIFDUS_clean_linker_0, # of connection points: 2
#     Edge 106, Type (0, 1), BuildingBlock: CIFDUS_clean_linker_0, # of connection points: 2
#     Edge 107, Type (0, 1), BuildingBlock: CIFDUS_clean_linker_0, # of connection points: 2
# Relax obj value: 0.073
# Max RMSD: 0.246
# Mean RMSD: 0.109
data_MOF--net-ptr--node1-NAHDIM_clean_sbu_0--node2-MIFKUJ_clean_linker_1--edge1-CIFDUS_clean_linker_0
_symmetry_space_group_name_H-M    P1
_symmetry_Int_Tables_number       1
_symmetry_cell_setting            triclinic
loop_
_symmetry_equiv_pos_as_xyz
'x, y, z'
_cell_length_a     82.063751
_cell_length_b     80.496485
_cell_length_c     54.355446
_cell_angle_alpha  91.777678
_cell_angle_beta   89.120591
_cell_angle_gamma 121.85582
loop_
_atom_site_label
_atom_site_type_symbol
_atom_site_fract_x
_atom_site_fract_y
_atom_site_fract_z
_atom_type_partial_charge
C0 C 0.02529 0.34997 0.04297 0.0
O1 O 0.00732 0.33755 0.04887 0.0
O2 O 0.987 0.33361 0.0027 0.0
Zn3 Zn 0.00544 0.36151 0.01394 0.0
O4 O 0.99427 0.36991 0.04146 0.0
C5 C 0.99792 0.37351 0.96904 0.0
O6 O 0.98188 0.35656 0.97166 0.0
O7 O 0.02894 0.3629 0.02728 0.0
C8 C 0.9813 0.3737 0.03791 0.0
O9 O 0.97423 0.37141 0.01569 0.0
C10 C 0.97141 0.32147 0.01327 0.0
O11 O 0.96635 0.32683 0.0336 0.0
O12 O 0.01123 0.37909 0.98485 0.0
C13 C 0.68441 0.65761 0.97409 0.0
O14 O 0.67259 0.6621 0.96478 0.0
O15 O 0.65976 0.66806 0.02609 0.0
Zn16 Zn 0.65522 0.64338 0.00935 0.0
O17 O 0.63613 0.63445 0.98159 0.0
C18 C 0.64995 0.62715 0.05722 0.0
O19 O 0.66295 0.64542 0.06305 0.0
O20 O 0.68025 0.649 0.99454 0.0
C21 C 0.61825 0.62745 0.98392 0.0
O22 O 0.611 0.62605 0.00602 0.0
C23 C 0.65684 0.68061 0.01704 0.0
O24 O 0.64991 0.67776 0.99463 0.0
O25 O 0.64496 0.62246 0.0348 0.0
C26 C 0.3321 0.02292 0.97563 0.0
O27 O 0.32488 0.00497 0.96694 0.0
O28 O 0.3202 0.98858 0.0266 0.0
Zn29 Zn 0.34497 0.00719 0.00975 0.0
O30 O 0.35111 0.99448 0.98149 0.0
C31 C 0.36474 0.00578 0.05112 0.0
O32 O 0.34893 0.98842 0.05162 0.0
O33 O 0.34207 0.0282 0.99525 0.0
C34 C 0.35671 0.98261 0.98383 0.0
O35 O 0.35759 0.97692 0.00588 0.0
C36 C 0.30677 0.97222 0.01803 0.0
O37 O 0.30845 0.96622 0.99593 0.0
O38 O 0.36653 0.01764 0.0348 0.0
C39 C 0.96389 0.65032 0.98529 0.0
O40 O 0.9794 0.65421 0.97308 0.0
O41 O 0.00382 0.66461 0.03095 0.0
Zn42 Zn 0.98155 0.63872 0.01896 0.0
O43 O 0.98922 0.62691 0.99129 0.0
C44 C 0.97343 0.62521 0.06931 0.0
O45 O 0.97995 0.64368 0.07491 0.0
O46 O 0.96113 0.64311 0.00654 0.0
C47 C 0.00491 0.63554 0.9794 0.0
O48 O 0.01789 0.65384 0.98506 0.0
C49 C 0.01786 0.66584 0.04227 0.0
O50 O 0.01824 0.6499 0.0452 0.0
O51 O 0.97208 0.61983 0.0468 0.0
C52 C 0.30404 0.33467 0.03417 0.0
O53 O 0.30802 0.32093 0.03574 0.0
O54 O 0.33856 0.32906 0.00718 0.0
Zn55 Zn 0.34268 0.35539 0.01759 0.0
O56 O 0.35974 0.36785 0.0475 0.0
C57 C 0.36722 0.37173 0.9765 0.0
O58 O 0.37024 0.35778 0.98187 0.0
O59 O 0.31682 0.3513 0.02622 0.0
C60 C 0.37699 0.37211 0.04889 0.0
O61 O 0.38471 0.36793 0.03028 0.0
C62 C 0.34641 0.32036 0.01547 0.0
O63 O 0.35895 0.32839 0.03344 0.0
O64 O 0.35511 0.37365 0.98913 0.0
C65 C 0.67148 0.97773 0.00185 0.0
O66 O 0.684 0.99 0.98603 0.0
O67 O 0.67905 0.02181 0.98162 0.0
Zn68 Zn 0.65376 0.00027 0.99476 0.0
O69 O 0.64435 0.01011 0.02271 0.0
C70 C 0.63565 0.9904 0.94541 0.0
O71 O 0.65282 0.99646 0.9365 0.0
O72 O 0.65702 0.97889 0.00759 0.0
C73 C 0.6281 0.99721 0.03118 0.0
O74 O 0.61973 0.97929 0.02188 0.0
C75 C 0.68122 0.03647 0.97044 0.0
O76 O 0.66639 0.03835 0.9677 0.0
O77 O 0.63329 0.99023 0.96859 0.0
C78 C 0.69902 0.68383 0.36451 0.0
O79 O 0.68128 0.67359 0.37256 0.0
O80 O 0.65835 0.67261 0.32729 0.0
Zn81 Zn 0.68087 0.69892 0.33827 0.0
O82 O 0.67421 0.70887 0.36892 0.0
C83 C 0.67239 0.7167 0.30109 0.0
O84 O 0.65532 0.70344 0.30911 0.0
O85 O 0.7031 0.69634 0.34802 0.0
C86 C 0.65808 0.70679 0.37403 0.0
O87 O 0.64372 0.69726 0.35852 0.0
C88 C 0.66045 0.65929 0.31758 0.0
O89 O 0.67776 0.66228 0.31531 0.0
O90 O 0.68706 0.71795 0.31072 0.0
C91 C 0.34585 0.9888 0.29974 0.0
O92 O 0.33283 0.99049 0.2883 0.0
O93 O 0.32121 -0.00056 0.3565 0.0
Zn94 Zn 0.31745 0.97574 0.33758 0.0
O95 O 0.29688 0.96563 0.31147 0.0
C96 C 0.31125 0.9571 0.38456 0.0
O97 O 0.32155 0.97524 0.39304 0.0
O98 O 0.34248 0.98245 0.32153 0.0
C99 C 0.28719 0.97278 0.30446 0.0
O100 O 0.29013 0.98911 0.31478 0.0
C101 C 0.32835 0.01638 0.34783 0.0
O102 O 0.33283 0.01906 0.32438 0.0
O103 O 0.30854 0.9539 0.36149 0.0
C104 C 0.00155 0.36465 0.34363 0.0
O105 O 0.98631 0.35051 0.3545 0.0
O106 O 0.99414 0.32267 0.37299 0.0
Zn107 Zn 0.01962 0.344 0.35987 0.0
O108 O 0.02975 0.333 0.33412 0.0
C109 C 0.03609 0.35553 0.41007 0.0
O110 O 0.01842 0.34806 0.418 0.0
O111 O 0.01716 0.3649 0.34408 0.0
C112 C 0.0412 0.32775 0.34047 0.0
O113 O 0.04532 0.32854 0.3639 0.0
C114 C 0.9926 0.30834 0.38435 0.0
O115 O 0.0079 0.30734 0.38733 0.0
O116 O 0.03924 0.35586 0.38706 0.0
C117 C 0.63768 0.98964 0.30794 0.0
O118 O 0.65229 0.99293 0.29406 0.0
O119 O 0.67949 0.00358 0.35206 0.0
Zn120 Zn 0.65669 0.97805 0.33969 0.0
O121 O 0.66269 0.96593 0.31077 0.0
C122 C 0.65243 0.96243 0.38867 0.0
O123 O 0.66394 0.98087 0.3954 0.0
O124 O 0.63615 0.98291 0.32926 0.0
C125 C 0.67868 0.96808 0.30465 0.0
O126 O 0.69414 0.98002 0.31757 0.0
C127 C 0.69212 0.01721 0.3389 0.0
O128 O 0.69133 0.01492 0.31483 0.0
O129 O 0.64705 0.95816 0.36635 0.0
C130 C 0.97668 0.66857 0.37009 0.0
O131 O 0.9807 0.65479 0.3684 0.0
O132 O 0.01047 0.66586 0.33375 0.0
Zn133 Zn 0.0139 0.69099 0.34781 0.0
O134 O 0.03454 0.70269 0.37402 0.0
C135 C 0.01639 0.70505 0.29852 0.0
O136 O 0.00367 0.68657 0.29331 0.0
O137 O 0.98886 0.68553 0.36243 0.0
C138 C 0.052 0.71367 0.36772 0.0
O139 O 0.0562 0.71685 0.34426 0.0
C140 C 0.02272 0.66544 0.31958 0.0
O141 O 0.03858 0.68191 0.31429 0.0
O142 O 0.02212 0.71025 0.3206 0.0
C143 C 0.32738 0.30642 0.36632 0.0
O144 O 0.33527 0.32357 0.37775 0.0
O145 O 0.33809 0.34474 0.31861 0.0
Zn146 Zn 0.31432 0.32546 0.33705 0.0
O147 O 0.3101 0.33772 0.36749 0.0
C148 C 0.29121 0.31699 0.29245 0.0
O149 O 0.30744 0.32327 0.28063 0.0
O150 O 0.31712 0.30325 0.34738 0.0
C151 C 0.3032 0.34849 0.36524 0.0
O152 O 0.30052 0.35262 0.34302 0.0
C153 C 0.35227 0.35983 0.32866 0.0
O154 O 0.35149 0.3636 0.35219 0.0
O155 O 0.29093 0.31594 0.31576 0.0
C156 C 0.36054 0.02232 0.71892 0.0
O157 O 0.34616 0.02205 0.73028 0.0
O158 O 0.32129 0.00102 0.66644 0.0
Zn159 Zn 0.34235 0.02775 0.67836 0.0
O160 O 0.33266 0.04033 0.7022 0.0
C161 C 0.34948 0.03908 0.62704 0.0
O162 O 0.33965 0.02009 0.62267 0.0
O163 O 0.36239 0.02492 0.69581 0.0
C164 C 0.3154 0.03539 0.70631 0.0
O165 O 0.30141 0.02044 0.69406 0.0
C166 C 0.30989 0.987 0.68008 0.0
O167 O 0.311 0.98968 0.7041 0.0
O168 O 0.35315 0.04553 0.64921 0.0
C169 C 0.01777 0.32801 0.63785 0.0
O170 O 0.00653 0.3326 0.62699 0.0
O171 O 0.99419 0.34387 0.68451 0.0
Zn172 Zn 0.98869 0.31744 0.67266 0.0
O173 O 0.96939 0.30627 0.64477 0.0
C174 C 0.96754 0.30139 0.71647 0.0
O175 O 0.96474 0.31581 0.71332 0.0
O176 O 0.0133 0.32085 0.6592 0.0
C177 C 0.95148 0.29936 0.64673 0.0
O178 O 0.94425 0.29955 0.66837 0.0
C179 C 0.98992 0.35463 0.67315 0.0
O180 O 0.98145 0.34872 0.65158 0.0
O181 O 0.97814 0.299 0.70128 0.0
C182 C 0.67234 0.69327 0.65223 0.0
O183 O 0.66307 0.67468 0.64544 0.0
O184 O 0.65783 0.65889 0.70109 0.0
Zn185 Zn 0.68389 0.67668 0.68631 0.0
O186 O 0.69031 0.66359 0.65857 0.0
C187 C 0.69997 0.67321 0.73008 0.0
O188 O 0.68373 0.65622 0.72862 0.0
O189 O 0.68324 0.69878 0.67101 0.0
C190 C 0.70162 0.65746 0.66111 0.0
O191 O 0.70836 0.65805 0.68308 0.0
C192 C 0.64563 0.64145 0.69412 0.0
O193 O 0.64941 0.63372 0.67492 0.0
O194 O 0.70373 0.68567 0.71363 0.0
C195 C 0.31272 0.33309 0.6474 0.0
O196 O 0.33126 0.34591 0.64854 0.0
O197 O 0.34615 0.33579 0.68841 0.0
Zn198 Zn 0.32468 0.31097 0.67279 0.0
O199 O 0.33438 0.30011 0.64672 0.0
C200 C 0.31293 0.29346 0.72129 0.0
O201 O 0.32147 0.31163 0.72972 0.0
O202 O 0.30604 0.31651 0.65703 0.0
C203 C 0.35026 0.30884 0.63528 0.0
O204 O 0.3626 0.3275 0.64 0.0
C205 C 0.36008 0.33676 0.6997 0.0
O206 O 0.36097 0.32098 0.701 0.0
O207 O 0.31193 0.29012 0.69817 0.0
C208 C 0.65292 0.01802 0.72086 0.0
O209 O 0.6643 0.0136 0.73167 0.0
O210 O 0.67506 0.00227 0.67001 0.0
Zn211 Zn 0.68103 0.02822 0.6842 0.0
O212 O 0.70062 0.03696 0.71114 0.0
C213 C 0.68878 0.04536 0.6355 0.0
O214 O 0.67743 0.02724 0.62744 0.0
O215 O 0.657 0.02481 0.69932 0.0
C216 C 0.71859 0.04676 0.70739 0.0
O217 O 0.72505 0.05129 0.6848 0.0
C218 C 0.68733 0.00031 0.65793 0.0
O219 O 0.7045 0.01573 0.65431 0.0
O220 O 0.69168 0.04889 0.65849 0.0
C221 C -9e-05 0.64239 0.67933 0.0
O222 O 0.0138 0.65577 0.66583 0.0
O223 O 0.00649 0.68451 0.65326 0.0
Zn224 Zn 0.98123 0.66306 0.66673 0.0
O225 O 0.97159 0.67426 0.6929 0.0
C226 C 0.96419 0.65119 0.61689 0.0
O227 O 0.98156 0.65703 0.60893 0.0
O228 O 0.98446 0.64235 0.68186 0.0
C229 C 0.96122 0.68076 0.68625 0.0
O230 O 0.95778 0.68062 0.66271 0.0
C231 C 0.00804 0.69837 0.6408 0.0
O232 O 0.9927 0.69905 0.63656 0.0
O233 O 0.96127 0.65158 0.63987 0.0
H234 H 0.14477 0.34085 0.21582 0.0
H235 H 0.12156 0.34025 0.24494 0.0
H236 H 0.07518 0.29427 0.20145 0.0
H237 H 0.09854 0.29443 0.17257 0.0
H238 H 0.15283 0.31445 0.20466 0.0
H239 H 0.13115 0.34986 0.15516 0.0
H240 H 0.10656 0.35321 0.13476 0.0
H241 H 0.08598 0.29789 0.0963 0.0
H242 H 0.11071 0.29474 0.11647 0.0
H243 H 0.16729 0.30107 0.10314 0.0
H244 H 0.19466 0.30785 0.07707 0.0
H245 H 0.23224 0.35718 0.12475 0.0
H246 H 0.20482 0.35055 0.15041 0.0
H247 H 0.15228 0.32351 0.11492 0.0
H248 H 0.18165 0.29475 0.15659 0.0
H249 H 0.20727 0.29288 0.17625 0.0
H250 H 0.21349 0.3356 0.23143 0.0
H251 H 0.18837 0.33796 0.21137 0.0
C252 C 0.12345 0.31778 0.19189 0.0
C253 C 0.12962 0.33055 0.21254 0.0
C254 C 0.11636 0.3302 0.22918 0.0
C255 C 0.09661 0.31716 0.22546 0.0
C256 C 0.09034 0.30455 0.20461 0.0
C257 C 0.10368 0.30471 0.18808 0.0
C258 C 0.13794 0.31798 0.17496 0.0
C259 C 0.15285 0.31665 0.18507 0.0
C260 C 0.13755 0.32003 0.14927 0.0
C261 C 0.1226 0.32199 0.13739 0.0
C262 C 0.12131 0.33848 0.14235 0.0
C263 C 0.10738 0.34042 0.13062 0.0
C264 C 0.09442 0.32579 0.11402 0.0
C265 C 0.09574 0.30929 0.10915 0.0
C266 C 0.10984 0.30751 0.12057 0.0
C267 C 0.1841 0.32514 0.12885 0.0
C268 C 0.18142 0.31339 0.10785 0.0
C269 C 0.19705 0.31723 0.09306 0.0
C270 C 0.21557 0.33302 0.09891 0.0
C271 C 0.21811 0.34503 0.11965 0.0
C272 C 0.20251 0.34114 0.13446 0.0
C273 C 0.16765 0.32092 0.14483 0.0
C274 C 0.15228 0.32125 0.1345 0.0
C275 C 0.16774 0.31809 0.17039 0.0
C276 C 0.18316 0.31667 0.18231 0.0
C277 C 0.18869 0.30393 0.17272 0.0
C278 C 0.20327 0.30279 0.184 0.0
C279 C 0.2123 0.31405 0.20539 0.0
C280 C 0.20661 0.32659 0.21512 0.0
C281 C 0.19226 0.32794 0.20365 0.0
H282 H 0.7248 0.89165 0.17848 0.0
H283 H 0.72578 0.91602 0.20726 0.0
H284 H 0.67038 0.90206 0.18075 0.0
H285 H 0.66875 0.87659 0.15384 0.0
H286 H 0.70176 0.8544 0.17968 0.0
H287 H 0.7141 0.90141 0.11566 0.0
H288 H 0.70762 0.92335 0.09327 0.0
H289 H 0.6498 0.87527 0.07871 0.0
H290 H 0.65629 0.85352 0.10114 0.0
H291 H 0.65603 0.80668 0.09739 0.0
H292 H 0.64898 0.77779 0.07268 0.0
H293 H 0.70416 0.78721 0.09206 0.0
H294 H 0.71126 0.8163 0.11669 0.0
H295 H 0.68192 0.84301 0.0921 0.0
H296 H 0.66636 0.79638 0.15339 0.0
H297 H 0.66657 0.77285 0.18029 0.0
H298 H 0.72361 0.81698 0.20506 0.0
H299 H 0.72375 0.84013 0.17691 0.0
C300 C 0.6968 0.88236 0.16371 0.0
C301 C 0.7129 0.89391 0.17882 0.0
C302 C 0.71352 0.90802 0.19512 0.0
C303 C 0.69811 0.91101 0.19652 0.0
C304 C 0.68236 0.89995 0.18061 0.0
C305 C 0.68158 0.88558 0.16474 0.0
C306 C 0.69518 0.86583 0.14862 0.0
C307 C 0.69794 0.85216 0.16032 0.0
C308 C 0.68929 0.86241 0.12368 0.0
C309 C 0.68566 0.87586 0.11012 0.0
C310 C 0.70004 0.89565 0.10768 0.0
C311 C 0.69635 0.90811 0.09479 0.0
C312 C 0.67818 0.901 0.08431 0.0
C313 C 0.66386 0.88119 0.0868 0.0
C314 C 0.6676 0.86873 0.09945 0.0
C315 C 0.68415 0.81364 0.10897 0.0
C316 C 0.66666 0.80258 0.09627 0.0
C317 C 0.66266 0.78611 0.0821 0.0
C318 C 0.67605 0.7803 0.08037 0.0
C319 C 0.6935 0.79125 0.09326 0.0
C320 C 0.69756 0.80785 0.10735 0.0
C321 C 0.68842 0.83153 0.1232 0.0
C322 C 0.68621 0.84545 0.11131 0.0
C323 C 0.69434 0.83488 0.14815 0.0
C324 C 0.69513 0.82002 0.16283 0.0
C325 C 0.67915 0.80086 0.16404 0.0
C326 C 0.67917 0.78748 0.17979 0.0
C327 C 0.69503 0.79304 0.19511 0.0
C328 C 0.71123 0.81209 0.19339 0.0
C329 C 0.71127 0.82541 0.17742 0.0
H330 H 0.10795 0.838 0.19107 0.0
H331 H 0.08356 0.81564 0.22004 0.0
H332 H 0.09304 0.76987 0.19546 0.0
H333 H 0.11759 0.79231 0.1669 0.0
H334 H 0.14547 0.85011 0.19117 0.0
H335 H 0.09208 0.81192 0.13326 0.0
H336 H 0.06749 0.78109 0.11345 0.0
H337 H 0.11158 0.77079 0.08763 0.0
H338 H 0.13586 0.80104 0.10824 0.0
H339 H 0.18223 0.84655 0.10162 0.0
H340 H 0.20917 0.8675 0.07496 0.0
H341 H 0.20697 0.91762 0.10069 0.0
H342 H 0.17998 0.89654 0.12749 0.0
H343 H 0.14713 0.83758 0.10161 0.0
H344 H 0.19846 0.86752 0.15663 0.0
H345 H 0.22561 0.89027 0.18242 0.0
H346 H 0.19089 0.90966 0.21832 0.0
H347 H 0.16409 0.88773 0.1912 0.0
C348 C 0.11442 0.81677 0.17657 0.0
C349 C 0.10466 0.8231 0.1918 0.0
C350 C 0.09076 0.81035 0.20833 0.0
C351 C 0.08636 0.79101 0.2099 0.0
C352 C 0.0959 0.78459 0.19434 0.0
C353 C 0.10992 0.7974 0.17799 0.0
C354 C 0.13018 0.83079 0.16045 0.0
C355 C 0.14566 0.8477 0.17145 0.0
C356 C 0.13088 0.82694 0.13501 0.0
C357 C 0.11579 0.8087 0.12242 0.0
C358 C 0.09639 0.80293 0.12347 0.0
C359 C 0.08239 0.78541 0.11196 0.0
C360 C 0.08758 0.77343 0.09908 0.0
C361 C 0.10705 0.77947 0.09775 0.0
C362 C 0.12098 0.79689 0.10931 0.0
C363 C 0.17912 0.86998 0.1166 0.0
C364 C 0.18749 0.86204 0.10145 0.0
C365 C 0.20285 0.87402 0.08615 0.0
C366 C 0.21014 0.8942 0.08564 0.0
C367 C 0.20179 0.90216 0.10088 0.0
C368 C 0.18638 0.89014 0.11619 0.0
C369 C 0.1625 0.85697 0.13231 0.0
C370 C 0.14682 0.84032 0.12124 0.0
C371 C 0.1621 0.86056 0.15791 0.0
C372 C 0.17922 0.87603 0.17168 0.0
C373 C 0.19683 0.87712 0.16943 0.0
C374 C 0.2123 0.88994 0.18455 0.0
C375 C 0.21041 0.90166 0.20272 0.0
C376 C 0.19296 0.90102 0.20441 0.0
C377 C 0.17755 0.88835 0.18902 0.0
H378 H 0.27488 0.1712 0.83357 0.0
H379 H 0.27516 0.19715 0.81091 0.0
H380 H 0.33147 0.23892 0.84022 0.0
H381 H 0.33091 0.21296 0.8631 0.0
H382 H 0.30094 0.15915 0.82895 0.0
H383 H 0.28283 0.19118 0.89012 0.0
H384 H 0.28771 0.21893 0.91522 0.0
H385 H 0.33432 0.21997 0.95308 0.0
H386 H 0.33113 0.19428 0.92559 0.0
H387 H 0.33701 0.15424 0.91417 0.0
H388 H 0.34314 0.13192 0.93562 0.0
H389 H 0.2902 0.08276 0.90659 0.0
H390 H 0.28439 0.10529 0.88465 0.0
H391 H 0.30785 0.15988 0.91943 0.0
H392 H 0.33408 0.13842 0.85743 0.0
H393 H 0.3383 0.11719 0.82874 0.0
H394 H 0.28489 0.10073 0.79305 0.0
H395 H 0.2801 0.12101 0.82304 0.0
C396 C 0.30279 0.1902 0.85015 0.0
C397 C 0.28722 0.18599 0.83519 0.0
C398 C 0.28743 0.20082 0.82221 0.0
C399 C 0.30333 0.22013 0.82376 0.0
C400 C 0.31886 0.2243 0.83894 0.0
C401 C 0.31861 0.20946 0.85195 0.0
C402 C 0.30282 0.17429 0.86312 0.0
C403 C 0.3021 0.1591 0.8488 0.0
C404 C 0.30507 0.17475 0.88898 0.0
C405 C 0.3069 0.19083 0.90536 0.0
C406 C 0.29446 0.19775 0.90335 0.0
C407 C 0.29702 0.21345 0.91823 0.0
C408 C 0.31158 0.22205 0.93627 0.0
C409 C 0.32338 0.21439 0.93897 0.0
C410 C 0.32131 0.19928 0.92346 0.0
C411 C 0.31026 0.13141 0.8978 0.0
C412 C 0.3267 0.13864 0.91246 0.0
C413 C 0.33014 0.12587 0.92482 0.0
C414 C 0.31711 0.10555 0.92295 0.0
C415 C 0.30064 0.09832 0.90818 0.0
C416 C 0.29725 0.11115 0.89569 0.0
C417 C 0.30678 0.14531 0.8852 0.0
C418 C 0.30652 0.1599 0.89961 0.0
C419 C 0.30457 0.14487 0.85939 0.0
C420 C 0.30658 0.13106 0.84275 0.0
C421 C 0.32298 0.12981 0.84391 0.0
C422 C 0.32555 0.1179 0.82715 0.0
C423 C 0.31201 0.10731 0.8084 0.0
C424 C 0.29549 0.10843 0.80741 0.0
C425 C 0.2928 0.12017 0.82444 0.0
H426 H 0.84774 0.11607 0.82655 0.0
H427 H 0.82445 0.09453 0.79509 0.0
H428 H 0.78576 0.11259 0.82018 0.0
H429 H 0.80906 0.13412 0.85135 0.0
H430 H 0.86434 0.1553 0.8282 0.0
H431 H 0.82368 0.10253 0.88357 0.0
H432 H 0.79267 0.07924 0.90196 0.0
H433 H 0.78786 0.1273 0.93001 0.0
H434 H 0.81846 0.15043 0.91091 0.0
H435 H 0.8655 0.19614 0.91671 0.0
H436 H 0.88813 0.22519 0.94081 0.0
H437 H 0.93415 0.21686 0.91825 0.0
H438 H 0.91135 0.18784 0.89376 0.0
H439 H 0.85357 0.15904 0.91763 0.0
H440 H 0.8872 0.21064 0.86379 0.0
H441 H 0.91102 0.23684 0.8386 0.0
H442 H 0.92329 0.19626 0.80169 0.0
H443 H 0.90063 0.17048 0.82866 0.0
C444 C 0.83004 0.12651 0.8415 0.0
C445 C 0.83411 0.11514 0.82548 0.0
C446 C 0.82085 0.10293 0.80748 0.0
C447 C 0.8033 0.10188 0.8052 0.0
C448 C 0.79903 0.11283 0.82175 0.0
C449 C 0.81232 0.12513 0.83962 0.0
C450 C 0.84504 0.1413 0.85836 0.0
C451 C 0.86232 0.15584 0.84792 0.0
C452 C 0.84175 0.14252 0.88379 0.0
C453 C 0.82335 0.12823 0.89572 0.0
C454 C 0.81589 0.10803 0.89359 0.0
C455 C 0.79824 0.09474 0.90427 0.0
C456 C 0.78775 0.10142 0.91737 0.0
C457 C 0.79541 0.12166 0.91973 0.0
C458 C 0.81302 0.13491 0.90905 0.0
C459 C 0.88676 0.18989 0.90333 0.0
C460 C 0.88042 0.20041 0.91721 0.0
C461 C 0.89338 0.217 0.93105 0.0
C462 C 0.91296 0.22335 0.93146 0.0
C463 C 0.91921 0.21249 0.91804 0.0
C464 C 0.90621 0.19589 0.90412 0.0
C465 C 0.87301 0.17308 0.88746 0.0
C466 C 0.85596 0.15821 0.89806 0.0
C467 C 0.87614 0.17205 0.8619 0.0
C468 C 0.89225 0.18855 0.84851 0.0
C469 C 0.89553 0.2075 0.851 0.0
C470 C 0.90894 0.22244 0.83611 0.0
C471 C 0.91893 0.21868 0.81771 0.0
C472 C 0.91607 0.19984 0.81576 0.0
C473 C 0.90295 0.18498 0.83107 0.0
H474 H 0.81322 0.67371 0.812 0.0
H475 H 0.78774 0.67426 0.79009 0.0
H476 H 0.79814 0.72443 0.83428 0.0
H477 H 0.82363 0.72363 0.85668 0.0
H478 H 0.85167 0.7023 0.81619 0.0
H479 H 0.79634 0.66619 0.86506 0.0
H480 H 0.76831 0.65943 0.88931 0.0
H481 H 0.80517 0.70379 0.94301 0.0
H482 H 0.83332 0.711 0.91819 0.0
H483 H 0.88421 0.70834 0.91341 0.0
H484 H 0.9053 0.69966 0.93315 0.0
H485 H 0.8911 0.65513 0.87671 0.0
H486 H 0.86956 0.66332 0.85753 0.0
H487 H 0.84662 0.68773 0.90491 0.0
H488 H 0.90358 0.7167 0.85228 0.0
H489 H 0.92727 0.71596 0.82477 0.0
H490 H 0.88157 0.67525 0.77593 0.0
H491 H 0.85807 0.67557 0.8035 0.0
C492 C 0.82026 0.6986 0.83597 0.0
C493 C 0.81008 0.68487 0.81696 0.0
C494 C 0.7955 0.68514 0.80456 0.0
C495 C 0.79101 0.69935 0.81062 0.0
C496 C 0.80142 0.71338 0.82931 0.0
C497 C 0.81587 0.71289 0.84209 0.0
C498 C 0.8353 0.69755 0.84927 0.0
C499 C 0.85066 0.69918 0.83562 0.0
C500 C 0.83388 0.69353 0.87462 0.0
C501 C 0.81691 0.68952 0.88943 0.0
C502 C 0.79842 0.67479 0.88176 0.0
C503 C 0.78242 0.67082 0.89571 0.0
C504 C 0.78461 0.68119 0.91791 0.0
C505 C 0.80313 0.69557 0.92597 0.0
C506 C 0.81916 0.69973 0.91179 0.0
C507 C 0.87564 0.6868 0.88366 0.0
C508 C 0.88557 0.69665 0.90536 0.0
C509 C 0.89756 0.69168 0.91664 0.0
C510 C 0.89991 0.67686 0.90629 0.0
C511 C 0.88975 0.66681 0.88482 0.0
C512 C 0.87753 0.67156 0.8738 0.0
C513 C 0.86292 0.69209 0.87169 0.0
C514 C 0.84802 0.6914 0.88564 0.0
C515 C 0.86431 0.69615 0.8463 0.0
C516 C 0.87902 0.69619 0.82997 0.0
C517 C 0.89868 0.70751 0.83574 0.0
C518 C 0.91218 0.7071 0.82005 0.0
C519 C 0.90622 0.69568 0.79817 0.0
C520 C 0.88658 0.68442 0.79249 0.0
C521 C 0.87314 0.68462 0.80823 0.0
H522 H 0.81469 0.67754 0.54201 0.0
H523 H 0.79277 0.67606 0.5739 0.0
H524 H 0.74561 0.62573 0.53687 0.0
H525 H 0.76782 0.62695 0.50497 0.0
H526 H 0.82181 0.64926 0.53586 0.0
H527 H 0.8015 0.68275 0.48063 0.0
H528 H 0.77772 0.68595 0.45784 0.0
H529 H 0.75519 0.62822 0.4254 0.0
H530 H 0.77921 0.62524 0.4479 0.0
H531 H 0.83809 0.63118 0.43753 0.0
H532 H 0.86633 0.63759 0.41349 0.0
H533 H 0.90175 0.68989 0.45791 0.0
H534 H 0.87356 0.68354 0.48156 0.0
H535 H 0.82168 0.65385 0.44515 0.0
H536 H 0.85099 0.62741 0.4932 0.0
H537 H 0.87465 0.6252 0.51766 0.0
H538 H 0.88038 0.67131 0.56652 0.0
H539 H 0.85725 0.67386 0.54185 0.0
C540 C 0.79295 0.65229 0.52116 0.0
C541 C 0.7996 0.66632 0.5405 0.0
C542 C 0.78709 0.66545 0.55873 0.0
C543 C 0.76761 0.65062 0.55796 0.0
C544 C 0.76061 0.63729 0.53781 0.0
C545 C 0.77325 0.63804 0.51957 0.0
C546 C 0.80717 0.65146 0.50483 0.0
C547 C 0.82193 0.6505 0.51602 0.0
C548 C 0.80678 0.6521 0.47891 0.0
C549 C 0.79197 0.65372 0.46601 0.0
C550 C 0.79139 0.67079 0.46866 0.0
C551 C 0.77793 0.67264 0.45555 0.0
C552 C 0.76469 0.65734 0.43987 0.0
C553 C 0.7652 0.64018 0.43746 0.0
C554 C 0.77888 0.63848 0.45024 0.0
C555 C 0.8538 0.65677 0.46145 0.0
C556 C 0.85194 0.64405 0.44196 0.0
C557 C 0.86807 0.64767 0.42837 0.0
C558 C 0.88623 0.66423 0.43386 0.0
C559 C 0.88793 0.67712 0.4531 0.0
C560 C 0.87187 0.67342 0.46675 0.0
C561 C 0.83697 0.65285 0.47643 0.0
C562 C 0.82157 0.65255 0.46497 0.0
C563 C 0.83691 0.65133 0.50228 0.0
C564 C 0.85229 0.65079 0.51568 0.0
C565 C 0.85762 0.63731 0.50888 0.0
C566 C 0.87108 0.636 0.52288 0.0
C567 C 0.87914 0.64793 0.5441 0.0
C568 C 0.87415 0.66172 0.55047 0.0
C569 C 0.86094 0.66319 0.53637 0.0
H570 H 0.38961 0.22175 0.52697 0.0
H571 H 0.38492 0.24325 0.55532 0.0
H572 H 0.32827 0.22 0.52516 0.0
H573 H 0.33279 0.19833 0.49754 0.0
H574 H 0.36883 0.1818 0.52475 0.0
H575 H 0.38565 0.23258 0.46777 0.0
H576 H 0.38116 0.25715 0.44925 0.0
H577 H 0.32539 0.21138 0.42251 0.0
H578 H 0.33028 0.18688 0.44053 0.0
H579 H 0.33121 0.14082 0.43452 0.0
H580 H 0.3262 0.11387 0.40718 0.0
H581 H 0.37759 0.11905 0.43533 0.0
H582 H 0.38333 0.1469 0.46182 0.0
H583 H 0.35655 0.1765 0.43498 0.0
H584 H 0.3381 0.126 0.49584 0.0
H585 H 0.33925 0.103 0.52311 0.0
H586 H 0.39656 0.14802 0.5457 0.0
H587 H 0.39524 0.17094 0.51859 0.0
C588 C 0.36162 0.20858 0.51 0.0
C589 C 0.37625 0.22142 0.52642 0.0
C590 C 0.37361 0.23376 0.54245 0.0
C591 C 0.3562 0.23324 0.54249 0.0
C592 C 0.34175 0.22059 0.52573 0.0
C593 C 0.3444 0.20833 0.50976 0.0
C594 C 0.36368 0.19456 0.49397 0.0
C595 C 0.36659 0.18083 0.505 0.0
C596 C 0.36048 0.19321 0.46833 0.0
C597 C 0.35826 0.20794 0.45564 0.0
C598 C 0.37252 0.22786 0.45777 0.0
C599 C 0.36986 0.24189 0.4473 0.0
C600 C 0.35283 0.23627 0.43457 0.0
C601 C 0.33878 0.21623 0.43192 0.0
C602 C 0.34152 0.20219 0.44226 0.0
C603 C 0.35761 0.14592 0.45042 0.0
C604 C 0.34154 0.13633 0.43476 0.0
C605 C 0.33864 0.12092 0.41918 0.0
C606 C 0.35154 0.11452 0.41925 0.0
C607 C 0.36743 0.12376 0.43514 0.0
C608 C 0.3706 0.13954 0.45038 0.0
C609 C 0.36085 0.16298 0.46588 0.0
C610 C 0.35911 0.17749 0.45464 0.0
C611 C 0.36508 0.16494 0.49139 0.0
C612 C 0.36662 0.15017 0.50511 0.0
C613 C 0.35107 0.13077 0.50624 0.0
C614 C 0.35176 0.11764 0.52184 0.0
C615 C 0.36796 0.12373 0.53672 0.0
C616 C 0.38377 0.14295 0.53477 0.0
C617 C 0.38308 0.15604 0.5192 0.0
H618 H 0.77218 0.16614 0.51785 0.0
H619 H 0.74606 0.13988 0.54137 0.0
H620 H 0.76229 0.09974 0.51361 0.0
H621 H 0.78839 0.126 0.49031 0.0
H622 H 0.80981 0.18109 0.52309 0.0
H623 H 0.764 0.149 0.45832 0.0
H624 H 0.74033 0.11944 0.43555 0.0
H625 H 0.78527 0.11044 0.4101 0.0
H626 H 0.8089 0.13978 0.4334 0.0
H627 H 0.85815 0.18807 0.44151 0.0
H628 H 0.88824 0.21259 0.42247 0.0
H629 H 0.87922 0.25821 0.4494 0.0
H630 H 0.84878 0.23352 0.4677 0.0
H631 H 0.82205 0.17716 0.43409 0.0
H632 H 0.86569 0.20358 0.50257 0.0
H633 H 0.88808 0.22628 0.53385 0.0
H634 H 0.84801 0.24389 0.55361 0.0
H635 H 0.82555 0.22084 0.52255 0.0
C636 C 0.78213 0.148 0.50216 0.0
C637 C 0.77001 0.15164 0.51671 0.0
C638 C 0.75512 0.13665 0.53014 0.0
C639 C 0.75212 0.11775 0.52931 0.0
C640 C 0.76404 0.11406 0.51433 0.0
C641 C 0.77898 0.12907 0.50102 0.0
C642 C 0.79877 0.16424 0.48933 0.0
C643 C 0.81227 0.18047 0.5035 0.0
C644 C 0.80222 0.16309 0.46391 0.0
C645 C 0.78819 0.14643 0.44794 0.0
C646 C 0.76878 0.14068 0.44786 0.0
C647 C 0.75527 0.12381 0.43484 0.0
C648 C 0.76097 0.11259 0.42127 0.0
C649 C 0.78052 0.11888 0.42034 0.0
C650 C 0.79401 0.13564 0.43362 0.0
C651 C 0.85128 0.20896 0.4562 0.0
C652 C 0.86259 0.20334 0.44316 0.0
C653 C 0.87987 0.21739 0.43249 0.0
C654 C 0.88618 0.23736 0.43456 0.0
C655 C 0.87469 0.24294 0.44732 0.0
C656 C 0.85739 0.22886 0.45799 0.0
C657 C 0.83319 0.19395 0.46798 0.0
C658 C 0.81941 0.17797 0.45358 0.0
C659 C 0.82953 0.1952 0.49328 0.0
C660 C 0.844 0.2106 0.51015 0.0
C661 C 0.8619 0.21261 0.51331 0.0
C662 C 0.8747 0.22563 0.5312 0.0
C663 C 0.86981 0.23687 0.54634 0.0
C664 C 0.8521 0.23525 0.54255 0.0
C665 C 0.8393 0.22218 0.52472 0.0
H666 H 0.93659 0.49369 0.1732 0.0
H667 H 0.93391 0.51575 0.14591 0.0
H668 H 0.9911 0.56226 0.16655 0.0
H669 H 0.99383 0.54009 0.19354 0.0
H670 H 0.96152 0.48187 0.16955 0.0
H671 H 0.9484 0.51875 0.23144 0.0
H672 H 0.95517 0.54917 0.25226 0.0
H673 H 0.01161 0.56197 0.27173 0.0
H674 H 0.00498 0.53191 0.2503 0.0
H675 H 0.00203 0.48215 0.25696 0.0
H676 H 0.00467 0.4591 0.28227 0.0
H677 H 0.94955 0.41224 0.25533 0.0
H678 H 0.94666 0.43548 0.23085 0.0
H679 H 0.97845 0.49432 0.25819 0.0
H680 H 0.99688 0.46464 0.19723 0.0
H681 H 0.99848 0.44088 0.17004 0.0
H682 H 0.94015 0.41825 0.14656 0.0
H683 H 0.93888 0.4425 0.17343 0.0
C684 C 0.96532 0.51527 0.18562 0.0
C685 C 0.94851 0.50868 0.17197 0.0
C686 C 0.947 0.52127 0.15636 0.0
C687 C 0.96228 0.54073 0.15414 0.0
C688 C 0.97898 0.54743 0.16818 0.0
C689 C 0.98054 0.53477 0.18363 0.0
C690 C 0.96729 0.50137 0.20073 0.0
C691 C 0.9648 0.48437 0.18907 0.0
C692 C 0.97264 0.50517 0.22587 0.0
C693 C 0.97626 0.52317 0.23912 0.0
C694 C 0.96225 0.52817 0.2401 0.0
C695 C 0.96608 0.54546 0.25217 0.0
C696 C 0.98396 0.55801 0.26354 0.0
C697 C 0.99782 0.55277 0.26283 0.0
C698 C 0.99398 0.53551 0.25079 0.0
C699 C 0.97422 0.46054 0.24186 0.0
C700 C 0.99049 0.46692 0.25658 0.0
C701 C 0.99205 0.4537 0.27088 0.0
C702 C 0.97733 0.43382 0.2708 0.0
C703 C 0.96105 0.42748 0.25603 0.0
C704 C 0.95948 0.44072 0.24178 0.0
C705 C 0.97238 0.47467 0.22707 0.0
C706 C 0.97489 0.49166 0.23875 0.0
C707 C 0.96772 0.47124 0.20174 0.0
C708 C 0.96774 0.45529 0.1874 0.0
C709 C 0.98432 0.45432 0.18657 0.0
C710 C 0.98518 0.44066 0.17104 0.0
C711 C 0.96946 0.42767 0.15601 0.0
C712 C 0.95262 0.42824 0.15757 0.0
C713 C 0.95182 0.44201 0.173 0.0
H714 H 0.50309 0.44716 0.16558 0.0
H715 H 0.47761 0.42298 0.13902 0.0
H716 H 0.4378 0.43585 0.17461 0.0
H717 H 0.46399 0.46156 0.19933 0.0
H718 H 0.51805 0.48385 0.16484 0.0
H719 H 0.48366 0.43614 0.22822 0.0
H720 H 0.45534 0.4148 0.25303 0.0
H721 H 0.45429 0.46518 0.28037 0.0
H722 H 0.48234 0.48639 0.2553 0.0
H723 H 0.53251 0.53089 0.25466 0.0
H724 H 0.55907 0.55876 0.27624 0.0
H725 H 0.59888 0.547 0.23844 0.0
H726 H 0.57205 0.51809 0.21866 0.0
H727 H 0.51766 0.49449 0.25504 0.0
H728 H 0.54864 0.54166 0.19189 0.0
H729 H 0.57276 0.56393 0.16267 0.0
H730 H 0.57801 0.51657 0.13299 0.0
H731 H 0.55412 0.49441 0.16248 0.0
C732 C 0.48554 0.45619 0.18461 0.0
C733 C 0.48886 0.44478 0.16769 0.0
C734 C 0.4741 0.43067 0.15268 0.0
C735 C 0.45545 0.42727 0.15451 0.0
C736 C 0.45198 0.43821 0.17222 0.0
C737 C 0.46693 0.45273 0.18679 0.0
C738 C 0.50197 0.47267 0.1983 0.0
C739 C 0.51811 0.48594 0.18467 0.0
C740 C 0.50171 0.47593 0.22402 0.0
C741 C 0.48501 0.46286 0.23967 0.0
C742 C 0.47726 0.44257 0.23944 0.0
C743 C 0.4611 0.4304 0.25361 0.0
C744 C 0.4526 0.43834 0.26858 0.0
C745 C 0.46064 0.45868 0.26919 0.0
C746 C 0.47666 0.4708 0.25486 0.0
C747 C 0.55023 0.52249 0.23469 0.0
C748 C 0.54694 0.53415 0.25125 0.0
C749 C 0.56223 0.5503 0.26336 0.0
C750 C 0.58125 0.5554 0.25892 0.0
C751 C 0.58447 0.5435 0.24258 0.0
C752 C 0.56912 0.52709 0.23088 0.0
C753 C 0.53383 0.50555 0.22156 0.0
C754 C 0.5177 0.49225 0.23526 0.0
C755 C 0.53393 0.5024 0.19579 0.0
C756 C 0.54966 0.51638 0.17953 0.0
C757 C 0.55528 0.53616 0.17946 0.0
C758 C 0.56905 0.54887 0.16274 0.0
C759 C 0.57723 0.54196 0.14553 0.0
C760 C 0.57182 0.52225 0.14589 0.0
C761 C 0.5582 0.5096 0.16275 0.0
H762 H 0.54528 0.03949 0.13853 0.0
H763 H 0.56528 0.0331 0.11069 0.0
H764 H 0.54849 0.9803 0.1494 0.0
H765 H 0.5281 0.98638 0.17645 0.0
H766 H 0.50634 0.01664 0.14474 0.0
H767 H 0.56218 0.04168 0.19738 0.0
H768 H 0.58736 0.0388 0.21645 0.0
H769 H 0.54407 0.9869 0.25319 0.0
H770 H 0.51905 0.99009 0.23442 0.0
H771 H 0.47379 0.99053 0.23974 0.0
H772 H 0.44687 0.98651 0.26426 0.0
H773 H 0.45232 0.03725 0.2309 0.0
H774 H 0.47942 0.04126 0.20636 0.0
H775 H 0.51007 0.01752 0.23581 0.0
H776 H 0.45484 0.98964 0.18516 0.0
H777 H 0.42753 0.98592 0.16318 0.0
H778 H 0.46597 0.03502 0.11832 0.0
H779 H 0.49316 0.03977 0.14211 0.0
C780 C 0.53535 0.01353 0.15972 0.0
C781 C 0.54601 0.0266 0.14103 0.0
C782 C 0.55753 0.02301 0.12528 0.0
C783 C 0.55846 0.00618 0.12783 0.0
C784 C 0.54794 0.99328 0.14678 0.0
C785 C 0.53643 0.99685 0.16244 0.0
C786 C 0.52236 0.01671 0.17572 0.0
C787 C 0.5074 0.0174 0.16467 0.0
C788 C 0.52341 0.01695 0.20169 0.0
C789 C 0.53876 0.01604 0.21438 0.0
C790 C 0.55816 0.02975 0.20965 0.0
C791 C 0.57251 0.02803 0.22048 0.0
C792 C 0.56773 0.01256 0.23626 0.0
C793 C 0.54827 0.99914 0.24141 0.0
C794 C 0.53395 0.00091 0.23065 0.0
C795 C 0.47853 0.01609 0.22104 0.0
C796 C 0.46941 0.00099 0.23797 0.0
C797 C 0.45402 0.99872 0.25201 0.0
C798 C 0.44742 0.01152 0.24945 0.0
C799 C 0.45693 0.02701 0.23303 0.0
C800 C 0.47242 0.02934 0.21905 0.0
C801 C 0.49382 0.01726 0.20487 0.0
C802 C 0.50923 0.01737 0.21589 0.0
C803 C 0.49286 0.01726 0.17883 0.0
C804 C 0.4761 0.01527 0.16573 0.0
C805 C 0.45739 -1e-05 0.17111 0.0
C806 C 0.44174 0.99765 0.15812 0.0
C807 C 0.44443 0.01007 0.13873 0.0
C808 C 0.46322 0.02536 0.13335 0.0
C809 C 0.47885 0.02797 0.14677 0.0
H810 H 0.47546 0.00171 0.8843 0.0
H811 H 0.45022 0.99612 0.91334 0.0
H812 H 0.40733 0.95473 0.86205 0.0
H813 H 0.4328 0.95968 0.8331 0.0
H814 H 0.48479 0.97748 0.87076 0.0
H815 H 0.46295 0.01364 0.8278 0.0
H816 H 0.44185 0.02063 0.80506 0.0
H817 H 0.4321 0.97601 0.75062 0.0
H818 H 0.45323 0.96911 0.77343 0.0
H819 H 0.50544 0.97201 0.7695 0.0
H820 H 0.53413 0.97937 0.74598 0.0
H821 H 0.5697 0.02368 0.80051 0.0
H822 H 0.54105 0.01666 0.82362 0.0
H823 H 0.49062 0.99348 0.78256 0.0
H824 H 0.51855 0.96255 0.82646 0.0
H825 H 0.54299 0.96086 0.84985 0.0
H826 H 0.54365 0.00132 0.90447 0.0
H827 H 0.51975 0.00337 0.88095 0.0
C828 C 0.45609 0.98107 0.85651 0.0
C829 C 0.46065 0.9914 0.87919 0.0
C830 C 0.44626 0.98822 0.89578 0.0
C831 C 0.42696 0.97486 0.88993 0.0
C832 C 0.42218 0.96508 0.86687 0.0
C833 C 0.43669 0.96801 0.85033 0.0
C834 C 0.47187 0.98314 0.84054 0.0
C835 C 0.48615 0.98121 0.85152 0.0
C836 C 0.47334 0.98733 0.81522 0.0
C837 C 0.45949 0.99068 0.80248 0.0
C838 C 0.45601 0.00513 0.8112 0.0
C839 C 0.44398 0.00915 0.79814 0.0
C840 C 0.43534 0.99891 0.77599 0.0
C841 C 0.43874 0.98434 0.76743 0.0
C842 C 0.45071 0.9803 0.78053 0.0
C843 C 0.52114 0.9935 0.79857 0.0
C844 C 0.51942 0.98342 0.77627 0.0
C845 C 0.53576 0.98765 0.76284 0.0
C846 C 0.55408 0.00196 0.77159 0.0
C847 C 0.55575 0.01237 0.79358 0.0
C848 C 0.53941 0.00832 0.80682 0.0
C849 C 0.50385 0.98864 0.81313 0.0
C850 C 0.48916 0.98969 0.80179 0.0
C851 C 0.50225 0.98418 0.83836 0.0
C852 C 0.51729 0.98312 0.8519 0.0
C853 C 0.52413 0.97123 0.84332 0.0
C854 C 0.53805 0.97024 0.85668 0.0
C855 C 0.54507 0.98083 0.87906 0.0
C856 C 0.53828 0.99276 0.88748 0.0
C857 C 0.52461 0.99394 0.87404 0.0
H858 H 0.0396 0.55185 0.85969 0.0
H859 H 0.03512 0.57293 0.88872 0.0
H860 H 0.97874 0.55104 0.85837 0.0
H861 H 0.98303 0.52949 0.83007 0.0
H862 H 0.01889 0.51284 0.85856 0.0
H863 H 0.03341 0.56257 0.79933 0.0
H864 H 0.02772 0.58481 0.77648 0.0
H865 H 0.97398 0.5356 0.74968 0.0
H866 H 0.97966 0.51346 0.77272 0.0
H867 H 0.98532 0.46803 0.76948 0.0
H868 H 0.98364 0.44085 0.74596 0.0
H869 H 0.04 0.4581 0.77238 0.0
H870 H 0.04152 0.48525 0.79608 0.0
H871 H 0.00834 0.50637 0.76833 0.0
H872 H 0.99326 0.45642 0.82435 0.0
H873 H 0.99499 0.43294 0.84942 0.0
H874 H 0.04489 0.48034 0.88672 0.0
H875 H 0.04414 0.50358 0.85982 0.0
C876 C 0.01172 0.53919 0.84258 0.0
C877 C 0.02636 0.55175 0.85914 0.0
C878 C 0.02383 0.56389 0.87561 0.0
C879 C 0.00655 0.56362 0.87591 0.0
C880 C 0.99213 0.55143 0.8588 0.0
C881 C 0.99466 0.53928 0.84238 0.0
C882 C 0.01359 0.52481 0.82702 0.0
C883 C 0.01712 0.51171 0.83872 0.0
C884 C 0.01038 0.52284 0.80133 0.0
C885 C 0.00692 0.53639 0.78778 0.0
C886 C 0.02036 0.5566 0.78864 0.0
C887 C 0.01716 0.56926 0.77547 0.0
C888 C 0.00041 0.56192 0.76131 0.0
C889 C 0.98692 0.54168 0.76061 0.0
C890 C 0.99021 0.52902 0.77361 0.0
C891 C 0.01347 0.47857 0.7847 0.0
C892 C 0.99741 0.46608 0.77001 0.0
C893 C 0.99649 0.45058 0.75651 0.0
C894 C 0.01168 0.44729 0.75731 0.0
C895 C 0.02796 0.46008 0.77164 0.0
C896 C 0.02886 0.47562 0.78515 0.0
C897 C 0.01383 0.49442 0.79983 0.0
C898 C 0.01059 0.50772 0.78809 0.0
C899 C 0.01703 0.49635 0.8256 0.0
C900 C 0.01876 0.48183 0.83982 0.0
C901 C 0.00498 0.46174 0.83731 0.0
C902 C 0.00577 0.44831 0.85211 0.0
C903 C 0.01995 0.45466 0.87044 0.0
C904 C 0.03391 0.47477 0.87265 0.0
C905 C 0.03337 0.48816 0.85742 0.0
H906 H 0.44053 0.50075 0.86029 0.0
H907 H 0.41714 0.47609 0.88799 0.0
H908 H 0.42987 0.43408 0.85688 0.0
H909 H 0.45427 0.45914 0.83099 0.0
H910 H 0.47711 0.51638 0.86075 0.0
H911 H 0.4291 0.47932 0.79831 0.0
H912 H 0.40592 0.44925 0.7759 0.0
H913 H 0.45181 0.44093 0.75269 0.0
H914 H 0.47472 0.47048 0.77587 0.0
H915 H 0.52257 0.5164 0.78118 0.0
H916 H 0.55078 0.53753 0.7565 0.0
H917 H 0.5433 0.58604 0.77264 0.0
H918 H 0.51519 0.56478 0.79784 0.0
H919 H 0.4866 0.50688 0.77238 0.0
H920 H 0.53231 0.53696 0.83771 0.0
H921 H 0.55506 0.55965 0.86863 0.0
H922 H 0.51592 0.57842 0.8885 0.0
H923 H 0.49312 0.55551 0.8576 0.0
C924 C 0.44907 0.48182 0.8433 0.0
C925 C 0.43821 0.48619 0.85941 0.0
C926 C 0.42468 0.47199 0.87508 0.0
C927 C 0.42165 0.45307 0.87485 0.0
C928 C 0.43204 0.44857 0.85798 0.0
C929 C 0.44581 0.46284 0.84274 0.0
C930 C 0.46497 0.49744 0.8287 0.0
C931 C 0.4789 0.51457 0.84122 0.0
C932 C 0.4677 0.49476 0.80344 0.0
C933 C 0.45363 0.47708 0.78894 0.0
C934 C 0.43413 0.47096 0.78847 0.0
C935 C 0.42093 0.45386 0.77549 0.0
C936 C 0.42702 0.44265 0.7626 0.0
C937 C 0.4466 0.44904 0.76274 0.0
C938 C 0.45976 0.46607 0.77576 0.0
C939 C 0.51679 0.53902 0.79132 0.0
C940 C 0.52707 0.53162 0.77951 0.0
C941 C 0.54312 0.54369 0.76527 0.0
C942 C 0.54917 0.56343 0.76233 0.0
C943 C 0.53911 0.57095 0.77467 0.0
C944 C 0.52304 0.55883 0.78906 0.0
C945 C 0.49887 0.52553 0.80462 0.0
C946 C 0.48452 0.50893 0.79175 0.0
C947 C 0.49595 0.52852 0.82966 0.0
C948 C 0.51106 0.54463 0.8452 0.0
C949 C 0.52886 0.54637 0.84819 0.0
C950 C 0.54185 0.55935 0.86595 0.0
C951 C 0.53725 0.57077 0.88117 0.0
C952 C 0.51978 0.56963 0.87733 0.0
C953 C 0.50679 0.55665 0.85957 0.0
H954 H 0.62097 0.84383 0.50591 0.0
H955 H 0.62018 0.86925 0.48318 0.0
H956 H 0.6807 0.90885 0.49742 0.0
H957 H 0.68137 0.88351 0.52001 0.0
H958 H 0.64202 0.82654 0.49762 0.0
H959 H 0.63594 0.86491 0.5622 0.0
H960 H 0.64497 0.89622 0.58216 0.0
H961 H 0.70152 0.90713 0.59664 0.0
H962 H 0.69262 0.87614 0.57571 0.0
H963 H 0.69047 0.82658 0.57274 0.0
H964 H 0.69606 0.80418 0.59516 0.0
H965 H 0.63702 0.75793 0.58279 0.0
H966 H 0.63165 0.78035 0.56009 0.0
H967 H 0.66668 0.83895 0.58325 0.0
H968 H 0.67763 0.80898 0.51189 0.0
H969 H 0.67449 0.78412 0.48233 0.0
H970 H 0.61309 0.75895 0.47996 0.0
H971 H 0.61667 0.78474 0.50858 0.0
C972 C 0.65116 0.86187 0.51493 0.0
C973 C 0.63404 0.85801 0.5041 0.0
C974 C 0.63361 0.87252 0.49113 0.0
C975 C 0.65034 0.89112 0.48871 0.0
C976 C 0.66748 0.89484 0.49941 0.0
C977 C 0.6679 0.88034 0.51226 0.0
C978 C 0.65176 0.84663 0.52881 0.0
C979 C 0.64694 0.82903 0.51656 0.0
C980 C 0.65877 0.85015 0.55324 0.0
C981 C 0.66368 0.86831 0.56723 0.0
C982 C 0.65029 0.87406 0.56966 0.0
C983 C 0.65542 0.89188 0.58126 0.0
C984 C 0.674 0.9042 0.5909 0.0
C985 C 0.6872 0.89811 0.58908 0.0
C986 C 0.68207 0.88032 0.57737 0.0
C987 C 0.66069 0.8051 0.5646 0.0
C988 C 0.67876 0.81159 0.57481 0.0
C989 C 0.6819 0.7988 0.58773 0.0
C990 C 0.66699 0.77927 0.59082 0.0
C991 C 0.64891 0.77279 0.58043 0.0
C992 C 0.6458 0.78558 0.56745 0.0
C993 C 0.65724 0.819 0.5519 0.0
C994 C 0.66139 0.83628 0.56448 0.0
C995 C 0.64989 0.81533 0.52767 0.0
C996 C 0.64738 0.79863 0.5124 0.0
C997 C 0.66347 0.79792 0.50523 0.0
C998 C 0.6616 0.78356 0.48839 0.0
C999 C 0.6435 0.76942 0.4786 0.0
C1000 C 0.62729 0.76977 0.48668 0.0
C1001 C 0.62925 0.78438 0.50321 0.0
H1002 H 0.16879 0.78371 0.49566 0.0
H1003 H 0.14276 0.76082 0.46794 0.0
H1004 H 0.10624 0.77945 0.49987 0.0
H1005 H 0.13229 0.80236 0.5273 0.0
H1006 H 0.18673 0.82282 0.49815 0.0
H1007 H 0.15042 0.77089 0.55522 0.0
H1008 H 0.12036 0.74668 0.57484 0.0
H1009 H 0.11402 0.79325 0.60508 0.0
H1010 H 0.14385 0.81734 0.58502 0.0
H1011 H 0.19325 0.8642 0.58925 0.0
H1012 H 0.21777 0.8932 0.61205 0.0
H1013 H 0.26153 0.88406 0.58194 0.0
H1014 H 0.23689 0.85472 0.55959 0.0
H1015 H 0.18026 0.82702 0.58866 0.0
H1016 H 0.21215 0.87796 0.53045 0.0
H1017 H 0.23834 0.90348 0.50644 0.0
H1018 H 0.25119 0.86122 0.47674 0.0
H1019 H 0.22488 0.8357 0.50087 0.0
C1020 C 0.15244 0.79458 0.51377 0.0
C1021 C 0.15513 0.78276 0.49677 0.0
C1022 C 0.14027 0.76973 0.48094 0.0
C1023 C 0.12244 0.7683 0.48178 0.0
C1024 C 0.11969 0.77996 0.49906 0.0
C1025 C 0.13458 0.79307 0.51476 0.0
C1026 C 0.16857 0.80932 0.5295 0.0
C1027 C 0.18552 0.82348 0.51801 0.0
C1028 C 0.16675 0.81053 0.55532 0.0
C1029 C 0.14927 0.79589 0.5685 0.0
C1030 C 0.14256 0.77586 0.56612 0.0
C1031 C 0.12546 0.76207 0.57746 0.0
C1032 C 0.1148 0.76808 0.59138 0.0
C1033 C 0.1218 0.78818 0.5942 0.0
C1034 C 0.13892 0.80195 0.58294 0.0
C1035 C 0.21324 0.85741 0.57242 0.0
C1036 C 0.20808 0.86823 0.58785 0.0
C1037 C 0.22209 0.8848 0.60088 0.0
C1038 C 0.24154 0.89092 0.59862 0.0
C1039 C 0.24665 0.87978 0.58375 0.0
C1040 C 0.2326 0.86306 0.57096 0.0
C1041 C 0.19837 0.8407 0.55727 0.0
C1042 C 0.18168 0.82615 0.56886 0.0
C1043 C 0.20029 0.83933 0.53146 0.0
C1044 C 0.2167 0.85497 0.51766 0.0
C1045 C 0.2208 0.87425 0.51907 0.0
C1046 C 0.23581 0.88883 0.50536 0.0
C1047 C 0.2469 0.88438 0.48975 0.0
C1048 C 0.24281 0.86507 0.48845 0.0
C1049 C 0.22783 0.8505 0.50225 0.0
H1050 H 0.14879 0.34153 0.47569 0.0
H1051 H 0.12587 0.34555 0.45275 0.0
H1052 H 0.12868 0.38618 0.50876 0.0
H1053 H 0.15239 0.38274 0.53148 0.0
H1054 H 0.1837 0.36543 0.48511 0.0
H1055 H 0.12821 0.32838 0.53345 0.0
H1056 H 0.10007 0.32213 0.55716 0.0
H1057 H 0.13692 0.36552 0.61179 0.0
H1058 H 0.16515 0.37209 0.58767 0.0
H1059 H 0.2189 0.37457 0.57856 0.0
H1060 H 0.24014 0.36688 0.59978 0.0
H1061 H 0.22281 0.3177 0.5495 0.0
H1062 H 0.20142 0.32536 0.52852 0.0
H1063 H 0.17906 0.34991 0.57339 0.0
H1064 H 0.23579 0.37978 0.5195 0.0
H1065 H 0.25929 0.38172 0.48917 0.0
H1066 H 0.21302 0.34111 0.44107 0.0
H1067 H 0.1897 0.33854 0.47146 0.0
C1068 C 0.15241 0.36187 0.50532 0.0
C1069 C 0.14465 0.35144 0.48304 0.0
C1070 C 0.13153 0.3537 0.46995 0.0
C1071 C 0.12568 0.36628 0.47894 0.0
C1072 C 0.13299 0.37638 0.50152 0.0
C1073 C 0.14645 0.37436 0.5145 0.0
C1074 C 0.16712 0.35987 0.51823 0.0
C1075 C 0.18256 0.3618 0.50438 0.0
C1076 C 0.16576 0.3554 0.54345 0.0
C1077 C 0.14878 0.35105 0.55848 0.0
C1078 C 0.13026 0.3367 0.5504 0.0
C1079 C 0.1142 0.33309 0.56399 0.0
C1080 C 0.11634 0.34347 0.58618 0.0
C1081 C 0.13489 0.35728 0.59478 0.0
C1082 C 0.15099 0.36106 0.581 0.0
C1083 C 0.20876 0.35065 0.55186 0.0
C1084 C 0.21978 0.3622 0.57206 0.0
C1085 C 0.23194 0.35785 0.58406 0.0
C1086 C 0.23313 0.34171 0.57626 0.0
C1087 C 0.22207 0.33015 0.55601 0.0
C1088 C 0.21 0.3346 0.54389 0.0
C1089 C 0.19527 0.35483 0.53995 0.0
C1090 C 0.1802 0.35357 0.55414 0.0
C1091 C 0.19632 0.35875 0.5146 0.0
C1092 C 0.21093 0.35902 0.49778 0.0
C1093 C 0.23071 0.37096 0.50268 0.0
C1094 C 0.24411 0.37216 0.48535 0.0
C1095 C 0.23787 0.36175 0.46277 0.0
C1096 C 0.21815 0.34947 0.45823 0.0
C1097 C 0.20484 0.34802 0.4756 0.0
H1098 H 0.99069 0.37754 0.08647 0.0
H1099 H 0.9587 0.38904 0.03462 0.0
H1100 H 0.95128 0.4057 0.06697 0.0
H1101 H 0.95588 0.41912 0.10904 0.0
H1102 H 0.98722 0.40713 0.16134 0.0
H1103 H 0.99303 0.38869 0.12962 0.0
C1104 C 0.98198 0.38357 0.08228 0.0
C1105 C 0.97542 0.38219 0.05809 0.0
C1106 C 0.97778 0.39319 0.10097 0.0
C1107 C 0.964 0.38993 0.05304 0.0
C1108 C 0.95977 0.39951 0.07153 0.0
C1109 C 0.96362 0.41213 0.11372 0.0
C1110 C 0.9712 0.41466 0.13755 0.0
C1111 C 0.96684 0.4015 0.09545 0.0
C1112 C 0.98149 0.40573 0.14306 0.0
C1113 C 0.98475 0.39511 0.12495 0.0
H1114 H 0.62262 0.58843 0.05163 0.0
H1115 H 0.65392 0.63384 0.10696 0.0
H1116 H 0.63466 0.61132 0.13924 0.0
H1117 H 0.60772 0.57921 0.15168 0.0
H1118 H 0.57645 0.5339 0.09636 0.0
H1119 H 0.597 0.55583 0.06425 0.0
C1120 C 0.62536 0.59337 0.07076 0.0
C1121 C 0.63961 0.61285 0.0768 0.0
C1122 C 0.61417 0.58037 0.08927 0.0
C1123 C 0.64302 0.61894 0.10172 0.0
C1124 C 0.63197 0.60609 0.12023 0.0
C1125 C 0.60545 0.57417 0.13258 0.0
C1126 C 0.59055 0.55501 0.12639 0.0
C1127 C 0.61729 0.58687 0.11419 0.0
C1128 C 0.58793 0.54855 0.10162 0.0
C1129 C 0.5996 0.5611 0.08323 0.0
H1130 H 0.36955 0.98001 0.07549 0.0
H1131 H 0.39609 0.04179 0.0637 0.0
H1132 H 0.42281 0.04872 0.09061 0.0
H1133 H 0.43861 0.037 0.11719 0.0
H1134 H 0.41279 0.97475 0.12537 0.0
H1135 H 0.38561 0.96835 0.10062 0.0
C1136 C 0.3811 0.99504 0.07892 0.0
C1137 C 0.38078 0.01038 0.06776 0.0
C1138 C 0.39651 0.99883 0.09388 0.0
C1139 C 0.39601 0.02972 0.0721 0.0
C1140 C 0.41127 0.03368 0.08748 0.0
C1141 C 0.42716 0.02201 0.11339 0.0
C1142 C 0.42781 0.00643 0.12352 0.0
C1143 C 0.41172 0.01831 0.09837 0.0
C1144 C 0.4126 0.98713 0.11852 0.0
C1145 C 0.39706 0.98339 0.1041 0.0
H1146 H 0.37906 0.96709 0.98449 0.0
H1147 H 0.35361 0.98818 0.93518 0.0
H1148 H 0.3715 0.98527 0.90071 0.0
H1149 H 0.39722 0.98031 0.88558 0.0
H1150 H 0.42411 0.96156 0.93581 0.0
H1151 H 0.40275 0.95978 0.96887 0.0
C1152 C 0.37715 0.97072 0.96614 0.0
C1153 C 0.36515 0.97799 0.96246 0.0
C1154 C 0.38789 0.96958 0.94658 0.0
C1155 C 0.36289 0.98268 0.93854 0.0
C1156 C 0.37314 0.98107 0.91882 0.0
C1157 C 0.39805 0.97547 0.90366 0.0
C1158 C 0.41213 0.9711 0.90843 0.0
C1159 C 0.38611 0.97507 0.92276 0.0
C1160 C 0.41335 0.96504 0.9319 0.0
C1161 C 0.40119 0.96407 0.95077 0.0
H1162 H 0.03031 0.40478 0.94994 0.0
H1163 H 0.96853 0.37148 0.9442 0.0
H1164 H 0.96996 0.39341 0.91327 0.0
H1165 H 0.98841 0.42264 0.88922 0.0
H1166 H 0.05034 0.45495 0.89196 0.0
H1167 H 0.04912 0.43304 0.923 0.0
C1168 C 0.0172 0.40233 0.94182 0.0
C1169 C -0.00065 0.38657 0.94945 0.0
C1170 C 0.0181 0.41489 0.92366 0.0
C1171 C 0.98247 0.38345 0.93863 0.0
C1172 C 0.98325 0.39603 0.92097 0.0
C1173 C 0.00173 0.42473 0.89606 0.0
C1174 C 0.01943 0.44057 0.88814 0.0
C1175 C 0.00096 0.41184 0.91345 0.0
C1176 C 0.03645 0.44315 0.89793 0.0
C1177 C 0.03579 0.43053 0.91561 0.0
H1178 H 0.57929 0.60936 0.98214 0.0
H1179 H 0.62905 0.62813 0.93603 0.0
H1180 H 0.60848 0.61334 0.89999 0.0
H1181 H 0.57632 0.5936 0.88178 0.0
H1182 H 0.52655 0.57406 0.92802 0.0
H1183 H 0.54715 0.59093 0.96355 0.0
C1184 C 0.58565 0.61035 0.96419 0.0
C1185 C 0.60569 0.61971 0.9619 0.0
C1186 C 0.57373 0.60168 0.94348 0.0
C1187 C 0.61367 0.62092 0.93843 0.0
C1188 C 0.60192 0.61245 0.91775 0.0
C1189 C 0.56999 0.59305 0.89963 0.0
C1190 C 0.54991 0.58253 0.90218 0.0
C1191 C 0.58192 0.60253 0.92012 0.0
C1192 C 0.54195 0.58224 0.9254 0.0
C1193 C 0.55372 0.59175 0.94582 0.0
H1194 H 0.97987 0.59899 0.96112 0.0
H1195 H 0.03749 0.64843 0.95191 0.0
H1196 H 0.04297 0.63077 0.91867 0.0
H1197 H 0.03144 0.60109 0.89248 0.0
H1198 H 0.97391 0.55168 0.90247 0.0
H1199 H 0.9683 0.56969 0.93487 0.0
C1200 C 0.99365 0.60594 0.95188 0.0
C1201 C 0.00827 0.62499 0.95909 0.0
C1202 C 0.99669 0.59575 0.9328 0.0
C1203 C 0.02599 0.63378 0.94678 0.0
C1204 C 0.02914 0.62369 0.92775 0.0
C1205 C 0.01771 0.59425 0.90182 0.0
C1206 C 0.00311 0.57508 0.89497 0.0
C1207 C 0.01461 0.60463 0.92067 0.0
C1208 C 0.9853 0.56652 0.90706 0.0
C1209 C 0.98212 0.57675 0.92575 0.0
H1210 H 0.36065 0.39741 0.95347 0.0
H1211 H 0.39998 0.3772 0.95606 0.0
H1212 H 0.42006 0.40047 0.92507 0.0
H1213 H 0.42708 0.42704 0.89826 0.0
H1214 H 0.38721 0.44639 0.89306 0.0
H1215 H 0.36696 0.42325 0.92442 0.0
C1216 C 0.3736 0.39811 0.94719 0.0
C1217 C 0.37881 0.38562 0.95712 0.0
C1218 C 0.38507 0.41144 0.92904 0.0
C1219 C 0.39556 0.38658 0.94869 0.0
C1220 C 0.40712 0.39993 0.93099 0.0
C1221 C 0.41377 0.42599 0.9035 0.0
C1222 C 0.40872 0.43846 0.89314 0.0
C1223 C 0.40204 0.41243 0.92111 0.0
C1224 C 0.39164 0.43717 0.90088 0.0
C1225 C 0.37997 0.42384 0.91873 0.0
H1226 H 0.59967 0.98045 0.95871 0.0
H1227 H 0.63561 0.99118 0.89496 0.0
H1228 H 0.61012 0.98769 0.86839 0.0
H1229 H 0.57844 0.98408 0.86373 0.0
H1230 H 0.54338 0.9745 0.92804 0.0
H1231 H 0.56772 0.97506 0.9539 0.0
C1232 C 0.60192 0.98185 0.93897 0.0
C1233 C 0.61961 0.9862 0.9289 0.0
C1234 C 0.58738 0.98018 0.9239 0.0
C1235 C 0.62217 0.98789 0.90325 0.0
C1236 C 0.60762 0.98595 0.88804 0.0
C1237 C 0.57607 0.98184 0.88335 0.0
C1238 C 0.55924 0.97942 0.89402 0.0
C1239 C 0.59028 0.98245 0.89821 0.0
C1240 C 0.55636 0.97666 0.91948 0.0
C1241 C 0.57023 0.97693 0.93426 0.0
H1242 H 0.59349 0.9727 0.05169 0.0
H1243 H 0.64032 0.03299 0.05346 0.0
H1244 H 0.62304 0.04113 0.08374 0.0
H1245 H 0.59428 0.03107 0.1093 0.0
H1246 H 0.54748 0.97075 0.10641 0.0
H1247 H 0.56521 0.96268 0.07714 0.0
C1248 C 0.59999 0.98763 0.05871 0.0
C1249 C 0.61817 0.00221 0.05026 0.0
C1250 C 0.58997 0.9922 0.07597 0.0
C1251 C 0.62635 0.02147 0.05964 0.0
C1252 C 0.61645 0.02614 0.07693 0.0
C1253 C 0.58794 0.01619 0.10215 0.0
C1254 C 0.5696 0.00154 0.11015 0.0
C1255 C 0.59819 0.01164 0.08512 0.0
C1256 C 0.56168 0.98227 0.1009 0.0
C1257 C 0.57176 0.97765 0.08403 0.0
H1258 H 0.95841 0.58606 0.06409 0.0
H1259 H 0.98126 0.63324 0.11847 0.0
H1260 H 0.97913 0.61109 0.14982 0.0
H1261 H 0.97253 0.5787 0.16124 0.0
H1262 H 0.94987 0.53173 0.10664 0.0
H1263 H 0.95003 0.55337 0.07602 0.0
C1264 C 0.96277 0.59148 0.08284 0.0
C1265 C 0.97012 0.61133 0.08885 0.0
C1266 C 0.96161 0.5787 0.10075 0.0
C1267 C 0.97557 0.61805 0.1133 0.0
C1268 C 0.97443 0.6054 0.13124 0.0
C1269 C 0.96761 0.57324 0.14263 0.0
C1270 C 0.96127 0.55368 0.13619 0.0
C1271 C 0.96779 0.58579 0.12507 0.0
C1272 C 0.95467 0.54668 0.11212 0.0
C1273 C 0.95485 0.55907 0.09456 0.0
H1274 H 0.40315 0.36679 0.07084 0.0
H1275 H 0.37681 0.40105 0.07569 0.0
H1276 H 0.39833 0.42081 0.10957 0.0
H1277 H 0.42611 0.42976 0.13539 0.0
H1278 H 0.4501 0.3931 0.13372 0.0
H1279 H 0.42812 0.37301 0.10078 0.0
C1280 C 0.40209 0.37851 0.0795 0.0
C1281 C 0.38867 0.38269 0.07073 0.0
C1282 C 0.41416 0.38947 0.0993 0.0
C1283 C 0.3871 0.39763 0.08223 0.0
C1284 C 0.39942 0.40895 0.1015 0.0
C1285 C 0.42631 0.41711 0.12842 0.0
C1286 C 0.44019 0.41336 0.13688 0.0
C1287 C 0.4132 0.40517 0.10995 0.0
C1288 C 0.44012 0.39689 0.12713 0.0
C1289 C 0.42742 0.38523 0.10837 0.0
H1290 H 0.63236 0.71777 0.38288 0.0
H1291 H 0.67941 0.71697 0.41589 0.0
H1292 H 0.67775 0.73458 0.45228 0.0
H1293 H 0.66414 0.75171 0.47367 0.0
H1294 H 0.61927 0.75542 0.43871 0.0
H1295 H 0.61845 0.73464 0.40465 0.0
C1296 C 0.64209 0.72127 0.39817 0.0
C1297 C 0.65601 0.71613 0.39669 0.0
C1298 C 0.64141 0.73187 0.41876 0.0
C1299 C 0.66865 0.72089 0.41653 0.0
C1300 C 0.6677 0.73094 0.43736 0.0
C1301 C 0.65425 0.74813 0.45857 0.0
C1302 C 0.64187 0.7553 0.45889 0.0
C1303 C 0.65437 0.73682 0.43847 0.0
C1304 C 0.62881 0.74996 0.43933 0.0
C1305 C 0.62845 0.73821 0.41962 0.0
H1306 H 0.3091 0.95958 0.43442 0.0
H1307 H 0.28927 0.91798 0.37323 0.0
H1308 H 0.26861 0.89157 0.4008 0.0
H1309 H 0.25411 0.88079 0.44153 0.0
H1310 H 0.27348 0.92241 0.5026 0.0
H1311 H 0.29629 0.94834 0.47575 0.0
C1312 C 0.30046 0.9447 0.42713 0.0
C1313 C 0.30065 0.94082 0.40174 0.0
C1314 C 0.28834 0.92962 0.44301 0.0
C1315 C 0.28934 0.92143 0.39266 0.0
C1316 C 0.27747 0.90631 0.40841 0.0
C1317 C 0.26357 0.89545 0.44908 0.0
C1318 C 0.262 0.89968 0.474 0.0
C1319 C 0.27655 0.9103 0.43351 0.0
C1320 C 0.2742 0.91883 0.4834 0.0
C1321 C 0.28729 0.93364 0.46808 0.0
H1322 H 0.07325 0.3692 0.39877 0.0
H1323 H 0.03443 0.35304 0.46041 0.0
H1324 H 0.05962 0.35702 0.48798 0.0
H1325 H 0.09172 0.36175 0.49366 0.0
H1326 H 0.12944 0.3762 0.43118 0.0
H1327 H 0.10567 0.37631 0.40486 0.0
C1328 C 0.07031 0.36677 0.41829 0.0
C1329 C 0.0519 0.36064 0.42744 0.0
C1330 C 0.08465 0.36863 0.43386 0.0
C1331 C 0.04844 0.35769 0.45283 0.0
C1332 C 0.06282 0.35989 0.4686 0.0
C1333 C 0.09478 0.36526 0.47438 0.0
C1334 C 0.11218 0.36882 0.46425 0.0
C1335 C 0.08084 0.36487 0.45921 0.0
C1336 C 0.11603 0.37323 0.43924 0.0
C1337 C 0.10247 0.37329 0.42421 0.0
H1338 H 0.03614 0.32429 0.29057 0.0
H1339 H 0.06945 0.32039 0.34834 0.0
H1340 H 0.08877 0.31572 0.31779 0.0
H1341 H 0.09766 0.31486 0.27479 0.0
H1342 H 0.06464 0.31854 0.21669 0.0
H1343 H 0.0436 0.32093 0.24721 0.0
C1344 C 0.04751 0.32224 0.29647 0.0
C1345 C 0.05144 0.3229 0.32173 0.0
C1346 C 0.05867 0.31959 0.27875 0.0
C1347 C 0.06614 0.32005 0.32905 0.0
C1348 C 0.07726 0.31742 0.31159 0.0
C1349 C 0.0858 0.31612 0.26885 0.0
C1350 C 0.08278 0.31676 0.24363 0.0
C1351 C 0.07388 0.31753 0.28643 0.0
C1352 C 0.06719 0.31801 0.23606 0.0
C1353 C 0.05525 0.31948 0.25349 0.0
H1354 H 0.704 0.74154 0.27362 0.0
H1355 H 0.64432 0.72188 0.28499 0.0
H1356 H 0.64612 0.74349 0.25341 0.0
H1357 H 0.66446 0.76827 0.2231 0.0
H1358 H 0.72376 0.78746 0.20974 0.0
H1359 H 0.72233 0.766 0.24174 0.0
C1360 C 0.69142 0.74203 0.26917 0.0
C1361 C 0.67407 0.73008 0.28172 0.0
C1362 C 0.69246 0.75445 0.25067 0.0
C1363 C 0.65787 0.73082 0.27563 0.0
C1364 C 0.65886 0.74322 0.25755 0.0
C1365 C 0.67702 0.76756 0.22679 0.0
C1366 C 0.69416 0.77945 0.21386 0.0
C1367 C 0.67604 0.75506 0.24495 0.0
C1368 C 0.7104 0.77863 0.21952 0.0
C1369 C 0.70958 0.76629 0.23776 0.0
H1370 H 0.27641 0.93784 0.28229 0.0
H1371 H 0.26503 0.98442 0.28257 0.0
H1372 H 0.24069 0.96689 0.25054 0.0
H1373 H 0.22245 0.93808 0.2227 0.0
H1374 H 0.23336 0.89117 0.22432 0.0
H1375 H 0.25832 0.90932 0.25499 0.0
C1376 C 0.26867 0.94424 0.27536 0.0
C1377 C 0.27255 0.96243 0.28487 0.0
C1378 C 0.25467 0.93406 0.25712 0.0
C1379 C 0.26231 0.97042 0.27563 0.0
C1380 C 0.2484 0.96041 0.25729 0.0
C1381 C 0.23021 0.93178 0.22985 0.0
C1382 C 0.22606 0.9133 0.22095 0.0
C1383 C 0.24439 0.94216 0.24796 0.0
C1384 C 0.23646 0.90551 0.23031 0.0
C1385 C 0.25066 0.9158 0.24808 0.0
H1386 H 0.71002 0.97423 0.27856 0.0
H1387 H 0.64871 0.93484 0.28443 0.0
H1388 H 0.6494 0.91399 0.25156 0.0
H1389 H 0.66733 0.90621 0.22239 0.0
H1390 H 0.72832 0.94636 0.21392 0.0
H1391 H 0.72784 0.96741 0.24691 0.0
C1392 C 0.69684 0.9611 0.27258 0.0
C1393 C 0.67937 0.95606 0.28402 0.0
C1394 C 0.69726 0.94923 0.25335 0.0
C1395 C 0.66235 0.9391 0.27592 0.0
C1396 C 0.66272 0.92712 0.25715 0.0
C1397 C 0.68051 0.91976 0.22726 0.0
C1398 C 0.69783 0.9246 0.21555 0.0
C1399 C 0.68008 0.93199 0.24583 0.0
C1400 C 0.71479 0.94204 0.22279 0.0
C1401 C 0.71453 0.95418 0.24158 0.0
H1402 H 0.04078 0.74438 0.30334 0.0
H1403 H 0.01342 0.69743 0.24889 0.0
H1404 H 0.03194 0.72016 0.21638 0.0
H1405 H 0.05756 0.75294 0.20378 0.0
H1406 H 0.0849 0.79972 0.25837 0.0
H1407 H 0.06458 0.77753 0.29041 0.0
C1408 C 0.03872 0.73914 0.28434 0.0
C1409 C 0.02586 0.7192 0.2786 0.0
C1410 C 0.04947 0.75225 0.26576 0.0
C1411 C 0.02325 0.71269 0.25385 0.0
C1412 C 0.03389 0.72567 0.23524 0.0
C1413 C 0.05898 0.75825 0.22269 0.0
C1414 C 0.07276 0.77789 0.22874 0.0
C1415 C 0.04731 0.74539 0.24104 0.0
C1416 C 0.07429 0.78469 0.25323 0.0
C1417 C 0.06276 0.77199 0.27158 0.0
H1418 H 0.28615 0.31674 0.24289 0.0
H1419 H 0.25746 0.30974 0.31255 0.0
H1420 H 0.2303 0.30748 0.29163 0.0
H1421 H 0.21539 0.30936 0.25388 0.0
H1422 H 0.24364 0.31607 0.18412 0.0
H1423 H 0.27016 0.3164 0.20469 0.0
C1424 C 0.27389 0.31455 0.25347 0.0
C1425 C 0.27396 0.31356 0.27928 0.0
C1426 C 0.25825 0.3133 0.24132 0.0
C1427 C 0.25786 0.31058 0.29268 0.0
C1428 C 0.24231 0.30936 0.28074 0.0
C1429 C 0.22737 0.31087 0.24322 0.0
C1430 C 0.22769 0.31288 0.21759 0.0
C1431 C 0.24249 0.31103 0.25514 0.0
C1432 C 0.24308 0.31446 0.20388 0.0
C1433 C 0.25827 0.31473 0.21564 0.0
H1434 H 0.28123 0.36445 0.36549 0.0
H1435 H 0.30756 0.34374 0.41391 0.0
H1436 H 0.29117 0.34809 0.44917 0.0
H1437 H 0.26674 0.35465 0.46557 0.0
H1438 H 0.23921 0.37334 0.41627 0.0
H1439 H 0.25876 0.37307 0.38208 0.0
C1440 C 0.28364 0.36116 0.38378 0.0
C1441 C 0.29549 0.35364 0.387 0.0
C1442 C 0.27381 0.3632 0.40383 0.0
C1443 C 0.29841 0.34944 0.41088 0.0
C1444 C 0.28901 0.35188 0.43106 0.0
C1445 C 0.26534 0.35898 0.4474 0.0
C1446 C 0.25158 0.36394 0.44329 0.0
C1447 C 0.27629 0.35828 0.42767 0.0
C1448 C 0.24968 0.36937 0.4197 0.0
C1449 C 0.26082 0.3692 0.40019 0.0
H1450 H 0.66449 0.96636 0.43604 0.0
H1451 H 0.62986 0.92295 0.38013 0.0
H1452 H 0.62506 0.89696 0.40689 0.0
H1453 H 0.6329 0.88672 0.44472 0.0
H1454 H 0.66771 0.9301 0.50049 0.0
H1455 H 0.6703 0.95591 0.47515 0.0
C1456 C 0.65571 0.95121 0.42979 0.0
C1457 C 0.64771 0.94666 0.40601 0.0
C1458 C 0.6532 0.93632 0.44514 0.0
C1459 C 0.6363 0.92691 0.39828 0.0
C1460 C 0.63357 0.91201 0.41356 0.0
C1461 C 0.64076 0.90178 0.45153 0.0
C1462 C 0.65024 0.90648 0.47436 0.0
C1463 C 0.64227 0.91657 0.43682 0.0
C1464 C 0.66055 0.92612 0.48279 0.0
C1465 C 0.66197 0.94088 0.46836 0.0
H1466 H 0.04812 0.71444 0.41764 0.0
H1467 H 0.09056 0.73531 0.35981 0.0
H1468 H 0.11605 0.75319 0.39009 0.0
H1469 H 0.12626 0.76422 0.43268 0.0
H1470 H 0.08406 0.74395 0.49065 0.0
H1471 H 0.05852 0.72459 0.46062 0.0
C1472 C 0.06295 0.72278 0.41168 0.0
C1473 C 0.06738 0.72357 0.38646 0.0
C1474 C 0.07759 0.73324 0.4292 0.0
C1475 C 0.08669 0.7345 0.37907 0.0
C1476 C 0.10132 0.74475 0.39638 0.0
C1477 C 0.11151 0.75533 0.4388 0.0
C1478 C 0.10707 0.75552 0.46385 0.0
C1479 C 0.09692 0.74438 0.42144 0.0
C1480 C 0.08783 0.74419 0.47143 0.0
C1481 C 0.07323 0.73308 0.45428 0.0
H1482 H 0.34096 0.07003 0.72859 0.0
H1483 H 0.28062 0.02559 0.72616 0.0
H1484 H 0.27423 0.04371 0.7578 0.0
H1485 H 0.28594 0.07201 0.78655 0.0
H1486 H 0.34619 0.11707 0.78698 0.0
H1487 H 0.35244 0.09862 0.75607 0.0
C1488 C 0.32639 0.06426 0.73496 0.0
C1489 C 0.31131 0.04645 0.72506 0.0
C1490 C 0.32281 0.0748 0.75296 0.0
C1491 C 0.29251 0.03929 0.73343 0.0
C1492 C 0.28884 0.04963 0.75156 0.0
C1493 C 0.30041 0.07791 0.77973 0.0
C1494 C 0.31557 0.09587 0.78937 0.0
C1495 C 0.3039 0.0674 0.76149 0.0
C1496 C 0.33427 0.10311 0.78042 0.0
C1497 C 0.33787 0.09265 0.76254 0.0
H1498 H 0.97544 0.27549 0.73617 0.0
H1499 H 0.93629 0.29596 0.74136 0.0
H1500 H 0.91814 0.27248 0.77309 0.0
H1501 H 0.91256 0.24548 0.79818 0.0
H1502 H 0.95252 0.22597 0.79567 0.0
H1503 H 0.97093 0.24949 0.7638 0.0
C1504 C 0.96296 0.27481 0.74432 0.0
C1505 C 0.95721 0.28742 0.73633 0.0
C1506 C 0.95264 0.26138 0.76292 0.0
C1507 C 0.9411 0.28649 0.74719 0.0
C1508 C 0.93065 0.27302 0.76532 0.0
C1509 C 0.92553 0.24659 0.79118 0.0
C1510 C 0.93106 0.23388 0.79948 0.0
C1511 C 0.93624 0.26036 0.77325 0.0
C1512 C 0.94768 0.23532 0.78948 0.0
C1513 C 0.95831 0.24886 0.77131 0.0
H1514 H 0.73497 0.70647 0.7397 0.0
H1515 H 0.69731 0.64697 0.76259 0.0
H1516 H 0.72171 0.65036 0.79064 0.0
H1517 H 0.7545 0.6692 0.80657 0.0
H1518 H 0.79243 0.72878 0.785 0.0
H1519 H 0.76717 0.72652 0.75882 0.0
C1520 C 0.73206 0.69433 0.751 0.0
C1521 C 0.71439 0.67643 0.74877 0.0
C1522 C 0.74622 0.69637 0.7673 0.0
C1523 C 0.7108 0.66089 0.76374 0.0
C1524 C 0.72476 0.66278 0.77982 0.0
C1525 C 0.75712 0.68173 0.79629 0.0
C1526 C 0.77523 0.69904 0.79742 0.0
C1527 C 0.74262 0.68028 0.78139 0.0
C1528 C 0.77851 0.71531 0.78435 0.0
C1529 C 0.76413 0.71396 0.76931 0.0
H1530 H 0.73042 0.65036 0.65988 0.0
H1531 H 0.69066 0.65417 0.61289 0.0
H1532 H 0.70653 0.65056 0.57647 0.0
H1533 H 0.73368 0.64932 0.55795 0.0
H1534 H 0.77411 0.64733 0.60558 0.0
H1535 H 0.756 0.64714 0.64171 0.0
C1536 C 0.72503 0.65014 0.6417 0.0
C1537 C 0.70946 0.65267 0.63916 0.0
C1538 C 0.73448 0.64855 0.6209 0.0
C1539 C 0.70269 0.65234 0.6154 0.0
C1540 C 0.71179 0.65034 0.59454 0.0
C1541 C 0.73829 0.64857 0.57626 0.0
C1542 C 0.75524 0.64851 0.57921 0.0
C1543 C 0.72799 0.64889 0.59705 0.0
C1544 C 0.7612 0.64762 0.60297 0.0
C1545 C 0.75085 0.64748 0.6236 0.0
H1546 H 0.36757 0.07879 0.63007 0.0
H1547 H 0.34128 0.02995 0.5781 0.0
H1548 H 0.34548 0.0519 0.54527 0.0
H1549 H 0.35489 0.08475 0.53179 0.0
H1550 H 0.38048 0.13329 0.5842 0.0
H1551 H 0.37848 0.11173 0.61618 0.0
C1552 C 0.36292 0.07294 0.61152 0.0
C1553 C 0.354 0.05271 0.60666 0.0
C1554 C 0.3652 0.08561 0.59275 0.0
C1555 C 0.34814 0.04544 0.58245 0.0
C1556 C 0.35048 0.05798 0.56364 0.0
C1557 C 0.36004 0.09059 0.55021 0.0
C1558 C 0.3678 0.11061 0.55554 0.0
C1559 C 0.35867 0.07804 0.56867 0.0
C1560 C 0.37465 0.118 0.57945 0.0
C1561 C 0.3734 0.10565 0.59784 0.0
H1562 H 0.91251 0.28001 0.64538 0.0
H1563 H 0.96205 0.29789 0.59917 0.0
H1564 H 0.9412 0.28101 0.56379 0.0
H1565 H 0.9089 0.26011 0.54628 0.0
H1566 H 0.85944 0.24126 0.59296 0.0
H1567 H 0.88027 0.25989 0.62763 0.0
C1568 C 0.91877 0.28034 0.62755 0.0
C1569 C 0.93882 0.29013 0.62501 0.0
C1570 C 0.90671 0.27045 0.60729 0.0
C1571 C 0.94666 0.2904 0.60172 0.0
C1572 C 0.93475 0.28074 0.58145 0.0
C1573 C 0.90268 0.26003 0.56405 0.0
C1574 C 0.88261 0.24926 0.56694 0.0
C1575 C 0.91475 0.27051 0.58409 0.0
C1576 C 0.8748 0.24961 0.59004 0.0
C1577 C 0.88672 0.26015 0.60998 0.0
H1578 H 0.32727 0.27076 0.62143 0.0
H1579 H 0.38316 0.32183 0.60816 0.0
H1580 H 0.39013 0.30292 0.57841 0.0
H1581 H 0.38011 0.27173 0.55599 0.0
H1582 H 0.32413 0.22105 0.57002 0.0
H1583 H 0.31743 0.24004 0.59959 0.0
C1584 C 0.34101 0.27783 0.61207 0.0
C1585 C 0.35467 0.2977 0.61705 0.0
C1586 C 0.34488 0.26693 0.59507 0.0
C1587 C 0.37236 0.30656 0.60467 0.0
C1588 C 0.37637 0.29575 0.58767 0.0
C1589 C 0.36652 0.26486 0.56566 0.0
C1590 C 0.35259 0.24505 0.5607 0.0
C1591 C 0.36272 0.2759 0.58273 0.0
C1592 C 0.33497 0.23635 0.57321 0.0
C1593 C 0.33115 0.24717 0.59022 0.0
H1594 H 0.69169 0.0422 0.58579 0.0
H1595 H 0.7105 0.08452 0.6461 0.0
H1596 H 0.73075 0.11075 0.61817 0.0
H1597 H 0.74483 0.1214 0.57733 0.0
H1598 H 0.72677 0.07922 0.51704 0.0
H1599 H 0.70457 0.05319 0.54429 0.0
C1600 C 0.70005 0.05718 0.59278 0.0
C1601 C 0.69962 0.06135 0.61803 0.0
C1602 C 0.71192 0.07221 0.57667 0.0
C1603 C 0.71061 0.08086 0.62678 0.0
C1604 C 0.72222 0.09589 0.61083 0.0
C1605 C 0.73578 0.10657 0.57004 0.0
C1606 C 0.73746 0.10224 0.54522 0.0
C1607 C 0.72323 0.09169 0.58583 0.0
C1608 C 0.72588 0.08289 0.53615 0.0
C1609 C 0.71316 0.06802 0.5517 0.0
H1610 H 0.92908 0.64477 0.62816 0.0
H1611 H 0.96486 0.64953 0.56637 0.0
H1612 H 0.94091 0.64743 0.53802 0.0
H1613 H 0.9109 0.64697 0.53111 0.0
H1614 H 0.87637 0.6438 0.59353 0.0
H1615 H 0.89877 0.6426 0.62131 0.0
C1616 C 0.93161 0.64511 0.60848 0.0
C1617 C 0.94881 0.6474 0.59944 0.0
C1618 C 0.91805 0.64439 0.59239 0.0
C1619 C 0.95176 0.64782 0.57386 0.0
C1620 C 0.9381 0.64669 0.55763 0.0
C1621 C 0.90822 0.64577 0.55077 0.0
C1622 C 0.89214 0.64566 0.56032 0.0
C1623 C 0.92137 0.64539 0.56672 0.0
C1624 C 0.88882 0.6442 0.58582 0.0
C1625 C 0.90157 0.64344 0.60169 0.0
H1626 H 0.96418 0.68219 0.73646 0.0
H1627 H 0.93658 0.69277 0.67717 0.0
H1628 H 0.91825 0.69969 0.70674 0.0
H1629 H 0.90831 0.70054 0.74913 0.0
H1630 H 0.93532 0.68989 0.80881 0.0
H1631 H 0.95585 0.68553 0.77946 0.0
C1632 C 0.95428 0.68618 0.73003 0.0
C1633 C 0.95163 0.68674 0.7046 0.0
C1634 C 0.94365 0.69011 0.74719 0.0
C1635 C 0.93885 0.69209 0.6966 0.0
C1636 C 0.92831 0.69604 0.7135 0.0
C1637 C 0.91878 0.69736 0.75568 0.0
C1638 C 0.9202 0.69531 0.78098 0.0
C1639 C 0.93032 0.69473 0.73877 0.0
C1640 C 0.93402 0.69156 0.78937 0.0
C1641 C 0.94566 0.68894 0.7726 0.0
H1642 H 0.31889 0.29593 0.77081 0.0
H1643 H 0.29396 0.25438 0.70985 0.0
H1644 H 0.28779 0.22791 0.73659 0.0
H1645 H 0.29189 0.21698 0.77626 0.0
H1646 H 0.31688 0.25833 0.83734 0.0
H1647 H 0.32077 0.28447 0.81146 0.0
C1648 C 0.31187 0.28105 0.76343 0.0
C1649 C 0.30703 0.27721 0.73829 0.0
C1650 C 0.3086 0.26588 0.77884 0.0
C1651 C 0.29794 0.25781 0.72908 0.0
C1652 C 0.29444 0.24264 0.74435 0.0
C1653 C 0.29785 0.23162 0.78409 0.0
C1654 C 0.30419 0.23568 0.80869 0.0
C1655 C 0.30006 0.24657 0.76912 0.0
C1656 C 0.31216 0.25484 0.81836 0.0
C1657 C 0.31431 0.26979 0.80361 0.0
H1658 H 0.75755 0.06618 0.706 0.0
H1659 H 0.70968 0.04365 0.75628 0.0
H1660 H 0.73171 0.05767 0.79111 0.0
H1661 H 0.76453 0.07787 0.80718 0.0
H1662 H 0.81237 0.10078 0.75696 0.0
H1663 H 0.7904 0.08477 0.72229 0.0
C1664 C 0.75193 0.06424 0.72458 0.0
C1665 C 0.73201 0.05405 0.72848 0.0
C1666 C 0.76467 0.07238 0.74456 0.0
C1667 C 0.72496 0.05151 0.75271 0.0
C1668 C 0.73754 0.05954 0.77267 0.0
C1669 C 0.77012 0.0793 0.78864 0.0
C1670 C 0.79001 0.09055 0.78462 0.0
C1671 C 0.75741 0.07026 0.76878 0.0
C1672 C 0.79711 0.09204 0.76056 0.0
C1673 C 0.78455 0.08302 0.74071 0.0
H1674 H 0.02134 0.31972 0.06836 0.0
H1675 H 0.06391 0.37722 0.04352 0.0
H1676 H 0.08912 0.37501 0.06384 0.0
H1677 H 0.09895 0.35663 0.08888 0.0
H1678 H 0.05624 0.29871 0.11213 0.0
H1679 H 0.03112 0.30118 0.0922 0.0
C1680 C 0.03613 0.33181 0.06739 0.0
C1681 C 0.04074 0.34866 0.05457 0.0
C1682 C 0.05049 0.33034 0.07885 0.0
C1683 C 0.06 0.36408 0.05327 0.0
C1684 C 0.0744 0.36284 0.06493 0.0
C1685 C 0.08411 0.34463 0.08963 0.0
C1686 C 0.07937 0.32754 0.10197 0.0
C1687 C 0.06979 0.34606 0.07783 0.0
C1688 C 0.06018 0.31195 0.1026 0.0
C1689 C 0.04584 0.31338 0.09128 0.0
H1690 H 0.65185 0.71013 0.00428 0.0
H1691 H 0.67249 0.69102 0.06304 0.0
H1692 H 0.68054 0.72025 0.08749 0.0
H1693 H 0.68146 0.75111 0.09254 0.0
H1694 H 0.6608 0.77031 0.03407 0.0
H1695 H 0.65292 0.74115 0.00928 0.0
C1696 C 0.65811 0.71236 0.02243 0.0
C1697 C 0.66155 0.69838 0.03175 0.0
C1698 C 0.66268 0.72921 0.0365 0.0
C1699 C 0.66966 0.70151 0.05535 0.0
C1700 C 0.6743 0.71825 0.06939 0.0
C1701 C 0.67541 0.74898 0.07427 0.0
C1702 C 0.67172 0.76283 0.06515 0.0
C1703 C 0.67088 0.73219 0.06016 0.0
C1704 C 0.66359 0.75975 0.0416 0.0
C1705 C 0.65916 0.74313 0.02738 0.0
H1706 H 0.27504 0.9369 0.00574 0.0
H1707 H 0.30005 0.98023 0.06486 0.0
H1708 H 0.27226 0.96016 0.09064 0.0
H1709 H 0.24124 0.93 0.09693 0.0
H1710 H 0.21591 0.8867 0.03794 0.0
H1711 H 0.2435 0.90699 0.01172 0.0
C1712 C 0.27439 0.94197 0.02424 0.0
C1713 C 0.28964 0.96003 0.03331 0.0
C1714 C 0.25835 0.93033 0.03907 0.0
C1715 C 0.28854 0.96639 0.05735 0.0
C1716 C 0.27265 0.95492 0.07216 0.0
C1717 C 0.24165 0.92512 0.07823 0.0
C1718 C 0.22657 0.90687 0.06943 0.0
C1719 C 0.25751 0.93685 0.06325 0.0
C1720 C 0.22746 0.90059 0.04527 0.0
C1721 C 0.24318 0.91222 0.03023 0.0
H1722 H 0.33854 0.05819 0.9923 0.0
H1723 H 0.31736 0.01803 0.92965 0.0
H1724 H 0.31085 0.03995 0.90791 0.0
H1725 H 0.31136 0.07058 0.90645 0.0
H1726 H 0.33127 0.11023 0.96962 0.0
H1727 H 0.33828 0.08858 0.9912 0.0
C1728 C 0.33255 0.05428 0.97387 0.0
C1729 C 0.32848 0.03652 0.96262 0.0
C1730 C 0.32865 0.06687 0.96151 0.0
C1731 C 0.3206 0.03159 0.93878 0.0
C1732 C 0.31687 0.04412 0.9263 0.0
C1733 C 0.31701 0.07439 0.92505 0.0
C1734 C 0.32082 0.09205 0.93632 0.0
C1735 C 0.3208 0.06177 0.93749 0.0
C1736 C 0.32846 0.09688 0.96032 0.0
C1737 C 0.33238 0.08445 0.97275 0.0
H1738 H 0.97763 0.30678 0.97104 0.0
H1739 H 0.93708 0.2917 0.03052 0.0
H1740 H 0.9159 0.25955 0.0111 0.0
H1741 H 0.90846 0.2362 0.97655 0.0
H1742 H 0.9486 0.25198 0.91646 0.0
H1743 H 0.97058 0.28324 0.93715 0.0
C1744 C 0.9642 0.29645 0.97986 0.0
C1745 C 0.95891 0.30169 0.00215 0.0
C1746 C 0.95206 0.27808 0.96854 0.0
C1747 C 0.94148 0.28809 0.01332 0.0
C1748 C 0.92936 0.26969 0.00223 0.0
C1749 C 0.92199 0.2465 0.96794 0.0
C1750 C 0.92684 0.24175 0.94495 0.0
C1751 C 0.93442 0.26463 0.97971 0.0
C1752 C 0.9446 0.25513 0.93428 0.0
C1753 C 0.95711 0.2731 0.94599 0.0
H1754 H 0.71657 0.66011 0.99191 0.0
H1755 H 0.69169 0.66576 0.92569 0.0
H1756 H 0.72047 0.67358 0.90262 0.0
H1757 H 0.75264 0.67878 0.90106 0.0
H1758 H 0.77837 0.67439 0.96713 0.0
H1759 H 0.74944 0.66633 0.99055 0.0
C1760 C 0.71747 0.663 0.97243 0.0
C1761 C 0.702 0.66227 0.96052 0.0
C1762 C 0.73422 0.66781 0.95928 0.0
C1763 C 0.70341 0.66626 0.93532 0.0
C1764 C 0.71985 0.67072 0.92208 0.0
C1765 C 0.75185 0.67598 0.92057 0.0
C1766 C 0.76748 0.67703 0.93236 0.0
C1767 C 0.73532 0.67152 0.93385 0.0
C1768 C 0.76649 0.67373 0.95772 0.0
C1769 C 0.74995 0.66904 0.97106 0.0
H1770 H 0.96194 0.65806 0.93773 0.0
H1771 H 0.9349 0.65204 0.00837 0.0
H1772 H 0.91285 0.66006 0.99024 0.0
H1773 H 0.90143 0.66902 0.95419 0.0
H1774 H 0.92796 0.67387 0.8835 0.0
H1775 H 0.95007 0.66605 0.90176 0.0
C1776 C 0.95124 0.65851 0.94919 0.0
C1777 C 0.95012 0.65455 0.97438 0.0
C1778 C 0.93854 0.66293 0.93862 0.0
C1779 C 0.93603 0.655 0.98891 0.0
C1780 C 0.92346 0.65964 0.97858 0.0
C1781 C 0.91213 0.66843 0.94288 0.0
C1782 C 0.91316 0.67205 0.91759 0.0
C1783 C 0.92463 0.66369 0.95346 0.0
C1784 C 0.92687 0.67101 0.90299 0.0
C1785 C 0.93953 0.6666 0.91342 0.0
H1786 H 0.31255 0.29092 0.99741 0.0
H1787 H 0.37199 0.30938 0.00574 0.0
H1788 H 0.36654 0.28078 0.98142 0.0
H1789 H 0.34538 0.25188 0.95605 0.0
H1790 H 0.28487 0.23096 0.95216 0.0
H1791 H 0.29043 0.25963 0.97585 0.0
C1792 C 0.32423 0.28852 0.99403 0.0
C1793 C 0.34264 0.30216 0.00313 0.0
C1794 C 0.32089 0.27187 0.98053 0.0
C1795 C 0.35768 0.29894 0.99896 0.0
C1796 C 0.35459 0.28269 0.98496 0.0
C1797 C 0.3332 0.25313 0.96081 0.0
C1798 C 0.31471 0.2391 0.95191 0.0
C1799 C 0.33629 0.26918 0.97546 0.0
C1800 C 0.29938 0.24163 0.95797 0.0
C1801 C 0.30248 0.25795 0.97183 0.0
H1802 H 0.71365 0.03514 0.97039 0.0
H1803 H 0.69117 0.06976 0.94603 0.0
H1804 H 0.72208 0.09279 0.92743 0.0
H1805 H 0.75533 0.10286 0.91761 0.0
H1806 H 0.77781 0.06837 0.9423 0.0
H1807 H 0.74691 0.04535 0.96092 0.0
C1808 C 0.71549 0.04775 0.96109 0.0
C1809 C 0.70009 0.05071 0.95966 0.0
C1810 C 0.73326 0.06089 0.95033 0.0
C1811 C 0.70276 0.06711 0.94744 0.0
C1812 C 0.72044 0.08029 0.93677 0.0
C1813 C 0.75353 0.09041 0.92727 0.0
C1814 C 0.76889 0.08737 0.92856 0.0
C1815 C 0.73577 0.0773 0.93807 0.0
C1816 C 0.76618 0.07095 0.94076 0.0
C1817 C 0.74855 0.05784 0.95156 0.0
H1818 H 0.6489 0.95089 0.03579 0.0
H1819 H 0.70218 0.9734 0.99608 0.0
H1820 H 0.70904 0.95187 0.01824 0.0
H1821 H 0.70018 0.92694 0.04936 0.0
H1822 H 0.64688 0.90431 0.08884 0.0
H1823 H 0.63976 0.92556 0.06629 0.0
C1824 C 0.66198 0.95103 0.03188 0.0
C1825 C 0.675 0.96379 0.01431 0.0
C1826 C 0.66588 0.93863 0.04472 0.0
C1827 C 0.69187 0.96374 0.00949 0.0
C1828 C 0.69585 0.95146 0.0222 0.0
C1829 C 0.68708 0.92678 0.05311 0.0
C1830 C 0.6741 0.91413 0.07077 0.0
C1831 C 0.68303 0.93896 0.03998 0.0
C1832 C 0.65703 0.91384 0.0752 0.0
C1833 C 0.65298 0.92601 0.06237 0.0
H1834 H 0.01966 0.70056 0.04225 0.0
H1835 H 0.04968 0.67355 0.06769 0.0
H1836 H 0.07371 0.70438 0.08764 0.0
H1837 H 0.08584 0.73875 0.09855 0.0
H1838 H 0.05613 0.76593 0.0727 0.0
H1839 H 0.0321 0.73511 0.05261 0.0
C1840 C 0.0315 0.70141 0.05206 0.0
C1841 C 0.03286 0.68475 0.05344 0.0
C1842 C 0.04522 0.71915 0.06361 0.0
C1843 C 0.04828 0.68613 0.0663 0.0
C1844 C 0.06202 0.70375 0.07777 0.0
C1845 C 0.07422 0.738 0.0883 0.0
C1846 C 0.07282 0.75465 0.08711 0.0
C1847 C 0.06058 0.72032 0.07661 0.0
C1848 C 0.05744 0.7533 0.07417 0.0
C1849 C 0.04377 0.73572 0.06252 0.0
H1850 H 0.29402 0.36152 0.04411 0.0
H1851 H 0.27235 0.29963 0.0452 0.0
H1852 H 0.24258 0.29358 0.06389 0.0
H1853 H 0.2236 0.30602 0.0825 0.0
H1854 H 0.24532 0.36788 0.08258 0.0
H1855 H 0.27421 0.3738 0.06096 0.0
C1856 C 0.28269 0.34669 0.04819 0.0
C1857 C 0.28545 0.33107 0.04339 0.0
C1858 C 0.26569 0.34332 0.05934 0.0
C1859 C 0.27066 0.31195 0.04886 0.0
C1860 C 0.25362 0.30845 0.05956 0.0
C1861 C 0.23451 0.32075 0.07741 0.0
C1862 C 0.23237 0.33649 0.08415 0.0
C1863 C 0.25111 0.32405 0.06525 0.0
C1864 C 0.24676 0.35555 0.0778 0.0
C1865 C 0.26324 0.35893 0.06539 0.0
H1866 H 0.69345 0.65347 0.39129 0.0
H1867 H 0.73805 0.70847 0.36238 0.0
H1868 H 0.76239 0.70516 0.38323 0.0
H1869 H 0.77085 0.68702 0.41084 0.0
H1870 H 0.72615 0.63157 0.43842 0.0
H1871 H 0.70195 0.63464 0.41692 0.0
C1872 C 0.7085 0.66472 0.38947 0.0
C1873 C 0.71393 0.68127 0.37546 0.0
C1874 C 0.72237 0.66266 0.40135 0.0
C1875 C 0.7335 0.69559 0.37304 0.0
C1876 C 0.74741 0.69374 0.38504 0.0
C1877 C 0.75579 0.67566 0.41211 0.0
C1878 C 0.75022 0.65915 0.42627 0.0
C1879 C 0.74199 0.67743 0.39945 0.0
C1880 C 0.73073 0.64436 0.42755 0.0
C1881 C 0.71691 0.64615 0.41533 0.0
H1882 H 0.33558 0.05205 0.33508 0.0
H1883 H 0.33044 0.0181 0.39791 0.0
H1884 H 0.33813 0.04581 0.42548 0.0
H1885 H 0.34611 0.07973 0.43187 0.0
H1886 H 0.34932 0.11299 0.36942 0.0
H1887 H 0.34274 0.08564 0.34152 0.0
C1888 C 0.33616 0.05074 0.3548 0.0
C1889 C 0.33248 0.03307 0.3644 0.0
C1890 C 0.34032 0.06664 0.3706 0.0
C1891 C 0.33313 0.03152 0.39003 0.0
C1892 C 0.3376 0.04738 0.40583 0.0
C1893 C 0.34549 0.08094 0.41213 0.0
C1894 C 0.34831 0.09825 0.40256 0.0
C1895 C 0.34123 0.06501 0.39633 0.0
C1896 C 0.34721 0.09971 0.37704 0.0
C1897 C 0.34344 0.08411 0.36115 0.0
H1898 H 0.95875 0.30697 0.38302 0.0
H1899 H 0.98451 0.27588 0.40917 0.0
H1900 H 0.95392 0.25126 0.42691 0.0
H1901 H 0.92 0.23877 0.4355 0.0
H1902 H 0.89408 0.26958 0.40907 0.0
H1903 H 0.92468 0.29424 0.39122 0.0
C1904 C 0.95768 0.29479 0.39255 0.0
C1905 C 0.97392 0.29329 0.39473 0.0
C1906 C 0.94005 0.28069 0.40278 0.0
C1907 C 0.97226 0.27742 0.4072 0.0
C1908 C 0.95476 0.26332 0.41737 0.0
C1909 C 0.92099 0.25077 0.42562 0.0
C1910 C 0.90476 0.2523 0.42361 0.0
C1911 C 0.93858 0.26482 0.4153 0.0
C1912 C 0.9064 0.26816 0.41113 0.0
C1913 C 0.92386 0.28221 0.40079 0.0
H1914 H 0.97037 0.36774 0.33808 0.0
H1915 H 0.03013 0.39515 0.31822 0.0
H1916 H 0.02794 0.41902 0.29423 0.0
H1917 H 0.00887 0.43156 0.2779 0.0
H1918 H 0.94925 0.40445 0.29818 0.0
H1919 H 0.95155 0.38087 0.32271 0.0
C1920 C 0.98295 0.37897 0.32859 0.0
C1921 C 0.00037 0.3796 0.32994 0.0
C1922 C 0.98159 0.39263 0.31473 0.0
C1923 C 0.01652 0.39429 0.31751 0.0
C1924 C 0.01529 0.40795 0.30374 0.0
C1925 C 0.99643 0.42064 0.28791 0.0
C1926 C 0.97891 0.41975 0.28611 0.0
C1927 C 0.99787 0.40719 0.30211 0.0
C1928 C 0.96285 0.40529 0.29892 0.0
C1929 C 0.96417 0.39187 0.31309 0.0
H1930 H 0.65766 0.6246 0.30774 0.0
H1931 H 0.62563 0.65316 0.30509 0.0
H1932 H 0.59843 0.62363 0.28659 0.0
H1933 H 0.58428 0.59028 0.26983 0.0
H1934 H 0.61528 0.56073 0.27531 0.0
H1935 H 0.64251 0.59027 0.2935 0.0
C1936 C 0.6447 0.62432 0.30315 0.0
C1937 C 0.64369 0.64105 0.30765 0.0
C1938 C 0.62901 0.60722 0.29281 0.0
C1939 C 0.62674 0.64044 0.30188 0.0
C1940 C 0.61121 0.62359 0.29121 0.0
C1941 C 0.59679 0.59008 0.27539 0.0
C1942 C 0.59763 0.5732 0.27097 0.0
C1943 C 0.61223 0.60694 0.28648 0.0
C1944 C 0.61427 0.57355 0.27792 0.0
C1945 C 0.62984 0.59041 0.28855 0.0
H1946 H 0.37667 0.98934 0.31881 0.0
H1947 H 0.35616 0.00077 0.25263 0.0
H1948 H 0.38602 0.00955 0.23166 0.0
H1949 H 0.41754 0.01304 0.23159 0.0
H1950 H 0.4383 0.00185 0.29766 0.0
H1951 H 0.40873 0.99387 0.31913 0.0
C1952 C 0.37873 0.99377 0.29981 0.0
C1953 C 0.36414 0.99431 0.28732 0.0
C1954 C 0.39598 0.99883 0.28781 0.0
C1955 C 0.36711 0.00017 0.26271 0.0
C1956 C 0.3842 0.00522 0.25067 0.0
C1957 C 0.41573 0.00915 0.2508 0.0
C1958 C 0.43009 0.00804 0.263 0.0
C1959 C 0.39869 0.00453 0.263 0.0
C1960 C 0.42737 0.00263 0.28778 0.0
C1961 C 0.41049 0.99811 0.30008 0.0
H1962 H 0.63652 0.00241 0.26281 0.0
H1963 H 0.60636 0.98573 0.33212 0.0
H1964 H 0.58237 0.99191 0.3163 0.0
H1965 H 0.56984 0.00177 0.28263 0.0
H1966 H 0.59962 0.01738 0.213 0.0
H1967 H 0.62408 0.01224 0.22933 0.0
C1968 C 0.62473 0.00014 0.27452 0.0
C1969 C 0.62323 0.99358 0.29861 0.0
C1970 C 0.61097 0.00364 0.2653 0.0
C1971 C 0.60784 0.99073 0.31349 0.0
C1972 C 0.59412 0.99428 0.30446 0.0
C1973 C 0.58162 0.00393 0.27097 0.0
C1974 C 0.58288 0.00999 0.24663 0.0
C1975 C 0.5955 0.00065 0.28036 0.0
C1976 C 0.59842 0.01302 0.23191 0.0
C1977 C 0.61235 0.00993 0.24117 0.0
H1978 H 0.98995 0.62969 0.323 0.0
H1979 H 0.04628 0.65921 0.28999 0.0
H1980 H 0.03923 0.62859 0.26984 0.0
H1981 H 0.0169 0.59362 0.26096 0.0
H1982 H 0.96062 0.56404 0.29397 0.0
H1983 H 0.96775 0.59462 0.31448 0.0
C1984 C 0.00073 0.62943 0.31148 0.0
C1985 C 0.01863 0.64673 0.30805 0.0
C1986 C 0.99654 0.61181 0.2998 0.0
C1987 C 0.03239 0.64612 0.29297 0.0
C1988 C 0.02837 0.62862 0.28141 0.0
C1989 C 0.00626 0.59382 0.27284 0.0
C1990 C 0.98827 0.57658 0.27596 0.0
C1991 C 0.01048 0.6114 0.28463 0.0
C1992 C 0.97451 0.57716 0.29105 0.0
C1993 C 0.97861 0.5946 0.30289 0.0
H1994 H 0.38448 0.39367 0.34386 0.0
H1995 H 0.35925 0.35469 0.2806 0.0
H1996 H 0.38814 0.37528 0.25668 0.0
H1997 H 0.42056 0.40445 0.25358 0.0
H1998 H 0.44569 0.44359 0.3166 0.0
H1999 H 0.41684 0.4229 0.3407 0.0
C2000 C 0.38528 0.38967 0.32484 0.0
C2001 C 0.36971 0.37263 0.31409 0.0
C2002 C 0.40193 0.40161 0.31112 0.0
C2003 C 0.371 0.36772 0.28938 0.0
C2004 C 0.38754 0.37948 0.27566 0.0
C2005 C 0.41977 0.40833 0.27266 0.0
C2006 C 0.43524 0.42548 0.28331 0.0
C2007 C 0.4031 0.39643 0.28635 0.0
C2008 C 0.4339 0.43052 0.30793 0.0
C2009 C 0.41744 0.41867 0.32174 0.0
H2010 H 0.34471 0.30755 0.40889 0.0
H2011 H 0.31706 0.27107 0.3444 0.0
H2012 H 0.32269 0.24625 0.35964 0.0
H2013 H 0.33579 0.23511 0.39114 0.0
H2014 H 0.36222 0.27129 0.45629 0.0
H2015 H 0.35702 0.29616 0.44065 0.0
C2016 C 0.33991 0.29418 0.39811 0.0
C2017 C 0.33051 0.29121 0.37551 0.0
C2018 C 0.34309 0.27996 0.40702 0.0
C2019 C 0.32431 0.27374 0.36188 0.0
C2020 C 0.32755 0.25954 0.37056 0.0
C2021 C 0.34025 0.24834 0.40204 0.0
C2022 C 0.34952 0.25133 0.4248 0.0
C2023 C 0.33693 0.26251 0.39312 0.0
C2024 C 0.35541 0.26872 0.43849 0.0
C2025 C 0.35231 0.28291 0.42966 0.0
H2026 H 0.6925 0.02977 0.38584 0.0
H2027 H 0.72522 0.04652 0.31845 0.0
H2028 H 0.74962 0.07747 0.33805 0.0
H2029 H 0.76146 0.09994 0.37437 0.0
H2030 H 0.72798 0.08332 0.44109 0.0
H2031 H 0.70398 0.05218 0.42166 0.0
C2032 C 0.70501 0.04014 0.37544 0.0
C2033 C 0.70708 0.03581 0.35075 0.0
C2034 C 0.71878 0.05797 0.38668 0.0
C2035 C 0.72328 0.0495 0.33748 0.0
C2036 C 0.73723 0.0672 0.34868 0.0
C2037 C 0.74893 0.08943 0.38461 0.0
C2038 C 0.74644 0.0939 0.40907 0.0
C2039 C 0.73511 0.07161 0.37325 0.0
C2040 C 0.73007 0.08028 0.42213 0.0
C2041 C 0.71641 0.06245 0.41109 0.0
H2042 H 0.96504 0.69419 0.37925 0.0
H2043 H 0.94711 0.63355 0.38598 0.0
H2044 H 0.91723 0.6267 0.4053 0.0
H2045 H 0.89662 0.63812 0.42159 0.0
H2046 H 0.91468 0.69879 0.41536 0.0
H2047 H 0.94409 0.70544 0.3946 0.0
C2048 C 0.95457 0.67946 0.38485 0.0
C2049 C 0.95836 0.66444 0.38121 0.0
C2050 C 0.93745 0.67563 0.39611 0.0
C2051 C 0.94462 0.64542 0.38861 0.0
C2052 C 0.9275 0.64147 0.39966 0.0
C2053 C 0.90689 0.65273 0.41539 0.0
C2054 C 0.90351 0.66794 0.42002 0.0
C2055 C 0.92382 0.65648 0.40364 0.0
C2056 C 0.91706 0.68688 0.41222 0.0
C2057 C 0.93384 0.69068 0.4003 0.0
H2058 H 0.38873 0.01691 0.70095 0.0
H2059 H 0.36205 0.01999 0.7686 0.0
H2060 H 0.38288 0.01328 0.79211 0.0
H2061 H 0.40813 0.00573 0.79357 0.0
H2062 H 0.43492 0.00255 0.72617 0.0
H2063 H 0.41447 0.00986 0.70251 0.0
C2064 C 0.38754 0.01621 0.72083 0.0
C2065 C 0.37382 0.01894 0.73294 0.0
C2066 C 0.3995 0.01217 0.73432 0.0
C2067 C 0.37244 0.0179 0.75874 0.0
C2068 C 0.38435 0.01405 0.77225 0.0
C2069 C 0.40963 0.00683 0.77373 0.0
C2070 C 0.42301 0.00356 0.76168 0.0
C2071 C 0.39786 0.01107 0.76025 0.0
C2072 C 0.42455 0.00474 0.7359 0.0
C2073 C 0.41295 0.00904 0.72235 0.0
H2074 H 0.00677 0.37033 0.71745 0.0
H2075 H 0.98169 0.38076 0.6551 0.0
H2076 H 0.98688 0.41075 0.67525 0.0
H2077 H 0.99779 0.43353 0.71105 0.0
H2078 H 0.02209 0.42246 0.77367 0.0
H2079 H 0.01825 0.39335 0.75269 0.0
C2080 C 0.00249 0.37918 0.70817 0.0
C2081 C 0.99378 0.37324 0.68482 0.0
C2082 C 0.00544 0.39633 0.71988 0.0
C2083 C 0.98839 0.38495 0.67309 0.0
C2084 C 0.99134 0.4021 0.68461 0.0
C2085 C 0.00217 0.4247 0.72014 0.0
C2086 C 0.01019 0.43017 0.74392 0.0
C2087 C -0.0003 0.40783 0.7081 0.0
C2088 C 0.0161 0.41874 0.75527 0.0
C2089 C 0.01378 0.40201 0.74336 0.0
H2090 H 0.61605 0.60417 0.68441 0.0
H2091 H 0.63554 0.65235 0.7369 0.0
H2092 H 0.60734 0.63269 0.76228 0.0
H2093 H 0.57774 0.60144 0.77048 0.0
H2094 H 0.55782 0.55346 0.71764 0.0
H2095 H 0.58567 0.57334 0.69174 0.0
C2096 C 0.61409 0.6104 0.70134 0.0
C2097 C 0.62795 0.62969 0.70872 0.0
C2098 C 0.59783 0.599 0.71594 0.0
C2099 C 0.62513 0.63754 0.73071 0.0
C2100 C 0.60901 0.6263 0.74531 0.0
C2101 C 0.57935 0.5954 0.75315 0.0
C2102 C 0.56577 0.57592 0.74617 0.0
C2103 C 0.59534 0.60697 0.73821 0.0
C2104 C 0.56824 0.56829 0.72375 0.0
C2105 C 0.58411 0.57969 0.70881 0.0
H2106 H 0.68676 0.732 0.66282 0.0
H2107 H 0.6526 0.68587 0.60946 0.0
H2108 H 0.64823 0.70838 0.58572 0.0
H2109 H 0.65398 0.74106 0.57995 0.0
H2110 H 0.68725 0.78714 0.63367 0.0
H2111 H 0.69233 0.76485 0.65712 0.0
C2112 C 0.67839 0.72689 0.64598 0.0
C2113 C 0.67001 0.70726 0.63799 0.0
C2114 C 0.67582 0.73992 0.63238 0.0
C2115 C 0.65918 0.70088 0.61613 0.0
C2116 C 0.65666 0.71375 0.60248 0.0
C2117 C 0.66219 0.7462 0.59691 0.0
C2118 C 0.6702 0.76575 0.605 0.0
C2119 C 0.66486 0.73327 0.61046 0.0
C2120 C 0.68111 0.77223 0.62681 0.0
C2121 C 0.68393 0.75946 0.64034 0.0
H2122 H 0.30966 0.97422 0.6333 0.0
H2123 H 0.27816 0.95669 0.70158 0.0
H2124 H 0.25432 0.92523 0.68251 0.0
H2125 H 0.2422 0.9029 0.64615 0.0
H2126 H 0.27427 0.92036 0.57833 0.0
H2127 H 0.29825 0.9516 0.5976 0.0
C2128 C 0.29756 0.96353 0.64402 0.0
C2129 C 0.29561 0.96783 0.66877 0.0
C2130 C 0.28407 0.94544 0.63305 0.0
C2131 C 0.27999 0.95374 0.68249 0.0
C2132 C 0.26634 0.93576 0.6716 0.0
C2133 C 0.25445 0.91359 0.63564 0.0
C2134 C 0.25648 0.90938 0.61088 0.0
C2135 C 0.26821 0.93149 0.64686 0.0
C2136 C 0.27251 0.9232 0.5975 0.0
C2137 C 0.28615 0.9411 0.60845 0.0
H2138 H 0.0484 0.32832 0.65744 0.0
H2139 H 0.026 0.33446 0.58925 0.0
H2140 H 0.05434 0.33956 0.5674 0.0
H2141 H 0.08557 0.34253 0.56749 0.0
H2142 H 0.10886 0.33749 0.63542 0.0
H2143 H 0.08021 0.33189 0.6576 0.0
C2144 C 0.04973 0.33072 0.63779 0.0
C2145 C 0.03508 0.33096 0.625 0.0
C2146 C 0.06625 0.33391 0.62531 0.0
C2147 C 0.03707 0.33425 0.59958 0.0
C2148 C 0.05327 0.33715 0.58702 0.0
C2149 C 0.08429 0.34006 0.58712 0.0
C2150 C 0.09918 0.34027 0.5998 0.0
C2151 C 0.06793 0.33702 0.59969 0.0
C2152 C 0.09756 0.33745 0.62532 0.0
C2153 C 0.08118 0.33418 0.63795 0.0
H2154 H 0.27565 0.30805 0.63319 0.0
H2155 H 0.32134 0.36882 0.63242 0.0
H2156 H 0.30076 0.37683 0.61045 0.0
H2157 H 0.26992 0.36658 0.59107 0.0
H2158 H 0.22438 0.3058 0.59107 0.0
H2159 H 0.24483 0.29775 0.61348 0.0
C2160 C 0.28107 0.32305 0.62831 0.0
C2161 C 0.29998 0.33781 0.63451 0.0
C2162 C 0.26923 0.32754 0.6154 0.0
C2163 C 0.30685 0.35716 0.62785 0.0
C2164 C 0.29509 0.36177 0.61529 0.0
C2165 C 0.26445 0.3516 0.59612 0.0
C2166 C 0.24568 0.33682 0.58948 0.0
C2167 C 0.27629 0.34708 0.60893 0.0
C2168 C 0.23886 0.31741 0.59579 0.0
C2169 C 0.2505 0.31282 0.60871 0.0
H2170 H 0.70915 0.99154 0.62878 0.0
H2171 H 0.65382 0.96539 0.66419 0.0
H2172 H 0.64503 0.93336 0.64705 0.0
H2173 H 0.65294 0.91278 0.62186 0.0
H2174 H 0.70786 0.93902 0.58544 0.0
H2175 H 0.71703 0.97095 0.6035 0.0
C2176 C 0.69518 0.97884 0.6328 0.0
C2177 C 0.68217 0.98089 0.64773 0.0
C2178 C 0.69017 0.96045 0.6228 0.0
C2179 C 0.66411 0.96426 0.65271 0.0
C2180 C 0.65906 0.94591 0.64293 0.0
C2181 C 0.66686 0.92551 0.61772 0.0
C2182 C 0.67968 0.9235 0.60234 0.0
C2183 C 0.67195 0.94386 0.62789 0.0
C2184 C 0.6978 0.9401 0.5975 0.0
C2185 C 0.70302 0.95839 0.60767 0.0
H2186 H 0.04152 0.69907 0.64229 0.0
H2187 H 0.01679 0.73119 0.61635 0.0
H2188 H 0.04767 0.75566 0.5991 0.0
H2189 H 0.08155 0.76768 0.59084 0.0
H2190 H 0.1063 0.73555 0.61648 0.0
H2191 H 0.07547 0.7112 0.63421 0.0
C2192 C 0.04288 0.71144 0.63293 0.0
C2193 C 0.02685 0.7133 0.63066 0.0
C2194 C 0.06065 0.72541 0.62292 0.0
C2195 C 0.02887 0.72939 0.61836 0.0
C2196 C 0.04653 0.7434 0.60849 0.0
C2197 C 0.08024 0.75546 0.60053 0.0
C2198 C 0.09618 0.75345 0.60242 0.0
C2199 C 0.0625 0.74153 0.61062 0.0
C2200 C 0.09418 0.73733 0.61462 0.0
C2201 C 0.07659 0.72346 0.62484 0.0
H2202 H 0.97398 0.61233 0.70756 0.0
H2203 H 0.03224 0.64072 0.68083 0.0
H2204 H 0.03751 0.61844 0.70386 0.0
H2205 H 0.02576 0.59113 0.732 0.0
H2206 H 0.96754 0.56253 0.75856 0.0
H2207 H 0.96204 0.58457 0.73509 0.0
C2208 C 0.98782 0.61362 0.70671 0.0
C2209 C 0.0027 0.62824 0.69253 0.0
C2210 C 0.99077 0.60073 0.72 0.0
C2211 C 0.02052 0.62963 0.69158 0.0
C2212 C 0.02357 0.61691 0.70479 0.0
C2213 C 0.01192 0.58984 0.73276 0.0
C2214 C 0.99711 0.5753 0.74706 0.0
C2215 C 0.00885 0.60249 0.71917 0.0
C2216 C 0.97913 0.57354 0.74755 0.0
C2217 C 0.976 0.58617 0.73421 0.0
H2218 H 0.36172 0.37137 0.70068 0.0
H2219 H 0.39089 0.34375 0.72703 0.0
H2220 H 0.41412 0.37406 0.74878 0.0
H2221 H 0.42573 0.40816 0.76097 0.0
H2222 H 0.3968 0.43584 0.73411 0.0
H2223 H 0.37367 0.40558 0.71221 0.0
C2224 C 0.37318 0.37196 0.71112 0.0
C2225 C 0.37454 0.35528 0.71223 0.0
C2226 C 0.38644 0.38939 0.72363 0.0
C2227 C 0.3895 0.35635 0.72585 0.0
C2228 C 0.40278 0.37368 0.73832 0.0
C2229 C 0.4145 0.40765 0.7501 0.0
C2230 C 0.41301 0.42426 0.74919 0.0
C2231 C 0.40134 0.39026 0.7374 0.0
C2232 C 0.39814 0.42321 0.73539 0.0
C2233 C 0.38498 0.40595 0.72273 0.0
H2234 H 0.62237 0.01756 0.70118 0.0
H2235 H 0.64481 0.01189 0.76962 0.0
H2236 H 0.61639 0.00685 0.79133 0.0
H2237 H 0.58502 0.00364 0.79089 0.0
H2238 H 0.56183 0.00813 0.72253 0.0
H2239 H 0.59065 0.01394 0.70068 0.0
C2240 C 0.62105 0.01529 0.72085 0.0
C2241 C 0.63569 0.01514 0.73377 0.0
C2242 C 0.60454 0.01214 0.7332 0.0
C2243 C 0.63372 0.01201 0.75922 0.0
C2244 C 0.61749 0.00916 0.77168 0.0
C2245 C 0.58638 0.00606 0.77124 0.0
C2246 C 0.57147 0.0056 0.75831 0.0
C2247 C 0.60282 0.00916 0.75885 0.0
C2248 C 0.57316 0.00837 0.7328 0.0
C2249 C 0.58963 0.01174 0.72035 0.0
loop_
_geom_bond_atom_site_label_1
_geom_bond_atom_site_label_2
_geom_bond_distance
_geom_bond_site_symmetry_2
_ccdc_geom_bond_type
C0 O1 1.160 . S
C0 O7 1.185 . S
O1 C0 1.160 . S
O2 Zn3 1.899 1_656 S
O2 C10 1.284 . S
Zn3 O2 1.899 1_454 S
Zn3 O4 2.032 . S
Zn3 O7 2.086 . S
Zn3 O12 1.977 1_554 S
O4 Zn3 2.032 . S
O4 C8 1.278 1_455 S
C5 O6 1.203 1_455 S
C5 O12 1.267 . S
O6 C5 1.203 1_655 S
O7 C0 1.185 . S
O7 Zn3 2.086 . S
C8 O4 1.278 1_655 S
C8 O9 1.211 . S
O9 C8 1.211 . S
C10 O2 1.284 . S
C10 O11 1.273 1_556 S
O11 C10 1.273 1_554 S
O12 Zn3 1.977 1_556 S
O12 C5 1.267 . S
C13 O14 1.160 . S
C13 O20 1.185 1_556 S
O14 C13 1.160 . S
O15 Zn16 1.899 . S
O15 C23 1.284 . S
Zn16 O15 1.899 . S
Zn16 O17 2.032 1_554 S
Zn16 O20 2.086 . S
Zn16 O25 1.977 . S
O17 Zn16 2.032 1_556 S
O17 C21 1.278 . S
C18 O19 1.203 . S
C18 O25 1.267 . S
O19 C18 1.203 . S
O20 C13 1.185 1_554 S
O20 Zn16 2.086 . S
C21 O17 1.278 . S
C21 O22 1.211 . S
O22 C21 1.211 . S
C23 O15 1.284 . S
C23 O24 1.273 . S
O24 C23 1.273 . S
O25 Zn16 1.977 . S
O25 C18 1.267 . S
C26 O27 1.160 . S
C26 O33 1.185 1_556 S
O27 C26 1.160 . S
O28 Zn29 1.899 1_565 S
O28 C36 1.284 . S
Zn29 O28 1.899 1_545 S
Zn29 O30 2.032 1_554 S
Zn29 O33 2.086 . S
Zn29 O38 1.977 . S
O30 Zn29 2.032 1_556 S
O30 C34 1.278 1_545 S
C31 O32 1.203 1_545 S
C31 O38 1.267 . S
O32 C31 1.203 1_565 S
O33 C26 1.185 1_554 S
O33 Zn29 2.086 . S
C34 O30 1.278 1_565 S
C34 O35 1.211 . S
O35 C34 1.211 . S
C36 O28 1.284 . S
C36 O37 1.273 . S
O37 C36 1.273 . S
O38 Zn29 1.977 . S
O38 C31 1.267 . S
C39 O40 1.160 . S
C39 O46 1.185 1_556 S
O40 C39 1.160 . S
O41 Zn42 1.899 1_455 S
O41 C49 1.284 . S
Zn42 O41 1.899 1_655 S
Zn42 O43 2.033 1_654 S
Zn42 O46 2.086 . S
Zn42 O51 1.977 . S
O43 Zn42 2.033 1_456 S
O43 C47 1.274 . S
C44 O45 1.203 1_655 S
C44 O51 1.267 . S
O45 C44 1.203 1_455 S
O46 C39 1.185 1_554 S
O46 Zn42 2.086 . S
C47 O43 1.274 . S
C47 O48 1.211 . S
O48 C47 1.211 . S
C49 O41 1.284 . S
C49 O50 1.273 . S
O50 C49 1.273 . S
O51 Zn42 1.977 . S
O51 C44 1.267 . S
C52 O53 1.160 . S
C52 O59 1.185 . S
O53 C52 1.160 . S
O54 Zn55 1.899 1_556 S
O54 C62 1.284 . S
Zn55 O54 1.899 1_554 S
Zn55 O56 2.032 . S
Zn55 O59 2.086 . S
Zn55 O64 1.977 1_554 S
O56 Zn55 2.032 . S
O56 C60 1.278 . S
C57 O58 1.203 . S
C57 O64 1.267 . S
O58 C57 1.203 . S
O59 C52 1.185 . S
O59 Zn55 2.086 . S
C60 O56 1.278 . S
C60 O61 1.211 . S
O61 C60 1.211 . S
C62 O54 1.284 . S
C62 O63 1.273 1_556 S
O63 C62 1.273 1_554 S
O64 Zn55 1.977 1_556 S
O64 C57 1.267 . S
C65 O66 1.160 . S
C65 O72 1.185 . S
O66 C65 1.160 . S
O67 Zn68 1.899 1_546 S
O67 C75 1.284 . S
Zn68 O67 1.899 1_564 S
Zn68 O69 2.021 1_565 S
Zn68 O72 2.086 . S
Zn68 O77 1.977 1_554 S
O69 Zn68 2.021 1_545 S
O69 C73 1.309 . S
C70 O71 1.203 1_565 S
C70 O77 1.267 . S
O71 C70 1.203 1_545 S
O72 C65 1.185 . S
O72 Zn68 2.086 . S
C73 O69 1.309 . S
C73 O74 1.211 . S
O74 C73 1.211 . S
C75 O67 1.284 . S
C75 O76 1.273 1_556 S
O76 C75 1.273 1_554 S
O77 Zn68 1.977 1_556 S
O77 C70 1.267 . S
C78 O79 1.160 . S
C78 O85 1.185 . S
O79 C78 1.160 . S
O80 Zn81 1.899 . S
O80 C88 1.284 . S
Zn81 O80 1.899 . S
Zn81 O82 2.032 . S
Zn81 O85 2.086 . S
Zn81 O90 1.977 . S
O82 Zn81 2.032 . S
O82 C86 1.278 . S
C83 O84 1.203 . S
C83 O90 1.267 . S
O84 C83 1.203 . S
O85 C78 1.185 . S
O85 Zn81 2.086 . S
C86 O82 1.278 . S
C86 O87 1.211 . S
O87 C86 1.211 . S
C88 O80 1.284 . S
C88 O89 1.273 . S
O89 C88 1.273 . S
O90 Zn81 1.977 . S
O90 C83 1.267 . S
C91 O92 1.160 1_565 S
C91 O98 1.185 . S
O92 C91 1.160 1_545 S
O93 Zn94 1.899 1_545 S
O93 C101 1.284 . S
Zn94 O93 1.899 1_565 S
Zn94 O95 2.032 . S
Zn94 O98 2.086 . S
Zn94 O103 1.977 . S
O95 Zn94 2.032 . S
O95 C99 1.278 . S
C96 O97 1.203 . S
C96 O103 1.267 . S
O97 C96 1.203 . S
O98 C91 1.185 . S
O98 Zn94 2.086 . S
C99 O95 1.278 . S
C99 O100 1.211 . S
O100 C99 1.211 . S
C101 O93 1.284 . S
C101 O102 1.273 . S
O102 C101 1.273 . S
O103 Zn94 1.977 . S
O103 C96 1.267 . S
C104 O105 1.160 . S
C104 O111 1.185 . S
O105 C104 1.160 . S
O106 Zn107 1.893 1_655 S
O106 C114 1.284 . S
Zn107 O106 1.893 1_455 S
Zn107 O108 2.032 . S
Zn107 O111 2.086 . S
Zn107 O116 1.977 . S
O108 Zn107 2.032 . S
O108 C112 1.278 . S
C109 O110 1.203 . S
C109 O116 1.267 . S
O110 C109 1.203 . S
O111 C104 1.185 . S
O111 Zn107 2.086 . S
C112 O108 1.278 . S
C112 O113 1.211 . S
O113 C112 1.211 . S
C114 O106 1.284 . S
C114 O115 1.320 . S
O115 C114 1.320 . S
O116 Zn107 1.977 . S
O116 C109 1.267 . S
C117 O118 1.160 1_565 S
C117 O124 1.185 . S
O118 C117 1.160 1_545 S
O119 Zn120 1.899 1_545 S
O119 C127 1.284 . S
Zn120 O119 1.899 1_565 S
Zn120 O121 2.032 . S
Zn120 O124 2.086 . S
Zn120 O129 1.977 . S
O121 Zn120 2.032 . S
O121 C125 1.278 . S
C122 O123 1.203 . S
C122 O129 1.267 . S
O123 C122 1.203 . S
O124 C117 1.185 . S
O124 Zn120 2.086 . S
C125 O121 1.278 . S
C125 O126 1.211 . S
O126 C125 1.211 . S
C127 O119 1.284 . S
C127 O128 1.273 . S
O128 C127 1.273 . S
O129 Zn120 1.977 . S
O129 C122 1.267 . S
C130 O131 1.160 . S
C130 O137 1.185 . S
O131 C130 1.160 . S
O132 Zn133 1.899 . S
O132 C140 1.284 . S
Zn133 O132 1.899 . S
Zn133 O134 2.032 . S
Zn133 O137 2.086 1_455 S
Zn133 O142 1.977 . S
O134 Zn133 2.032 . S
O134 C138 1.278 . S
C135 O136 1.203 . S
C135 O142 1.267 . S
O136 C135 1.203 . S
O137 C130 1.185 . S
O137 Zn133 2.086 1_655 S
C138 O134 1.278 . S
C138 O139 1.211 . S
O139 C138 1.211 . S
C140 O132 1.284 . S
C140 O141 1.273 . S
O141 C140 1.273 . S
O142 Zn133 1.977 . S
O142 C135 1.267 . S
C143 O144 1.160 . S
C143 O150 1.185 . S
O144 C143 1.160 . S
O145 Zn146 1.899 . S
O145 C153 1.284 . S
Zn146 O145 1.899 . S
Zn146 O147 2.032 . S
Zn146 O150 2.086 . S
Zn146 O155 1.977 . S
O147 Zn146 2.032 . S
O147 C151 1.278 . S
C148 O149 1.203 . S
C148 O155 1.267 . S
O149 C148 1.203 . S
O150 C143 1.185 . S
O150 Zn146 2.086 . S
C151 O147 1.278 . S
C151 O152 1.211 . S
O152 C151 1.211 . S
C153 O145 1.284 . S
C153 O154 1.273 . S
O154 C153 1.273 . S
O155 Zn146 1.977 . S
O155 C148 1.267 . S
C156 O157 1.160 1_545 S
C156 O163 1.185 . S
O157 C156 1.160 1_565 S
O158 Zn159 1.899 1_565 S
O158 C166 1.284 . S
Zn159 O158 1.899 1_545 S
Zn159 O160 2.032 . S
Zn159 O163 2.086 . S
Zn159 O168 1.977 . S
O160 Zn159 2.032 . S
O160 C164 1.278 . S
C161 O162 1.203 . S
C161 O168 1.267 . S
O162 C161 1.203 . S
O163 C156 1.185 . S
O163 Zn159 2.086 . S
C164 O160 1.278 . S
C164 O165 1.211 . S
O165 C164 1.211 . S
C166 O158 1.284 . S
C166 O167 1.273 . S
O167 C166 1.273 . S
O168 Zn159 1.977 . S
O168 C161 1.267 . S
C169 O170 1.160 . S
C169 O176 1.185 . S
O170 C169 1.160 . S
O171 Zn172 1.899 . S
O171 C179 1.284 . S
Zn172 O171 1.899 . S
Zn172 O173 2.032 . S
Zn172 O176 2.086 1_655 S
Zn172 O181 1.977 . S
O173 Zn172 2.032 . S
O173 C177 1.278 . S
C174 O175 1.203 . S
C174 O181 1.267 . S
O175 C174 1.203 . S
O176 C169 1.185 . S
O176 Zn172 2.086 1_455 S
C177 O173 1.278 . S
C177 O178 1.211 . S
O178 C177 1.211 . S
C179 O171 1.284 . S
C179 O180 1.273 . S
O180 C179 1.273 . S
O181 Zn172 1.977 . S
O181 C174 1.267 . S
C182 O183 1.160 . S
C182 O189 1.185 . S
O183 C182 1.160 . S
O184 Zn185 1.899 . S
O184 C192 1.284 . S
Zn185 O184 1.899 . S
Zn185 O186 2.032 . S
Zn185 O189 2.086 . S
Zn185 O194 1.977 . S
O186 Zn185 2.032 . S
O186 C190 1.278 . S
C187 O188 1.203 . S
C187 O194 1.267 . S
O188 C187 1.203 . S
O189 C182 1.185 . S
O189 Zn185 2.086 . S
C190 O186 1.278 . S
C190 O191 1.211 . S
O191 C190 1.211 . S
C192 O184 1.284 . S
C192 O193 1.273 . S
O193 C192 1.273 . S
O194 Zn185 1.977 . S
O194 C187 1.267 . S
C195 O196 1.160 . S
C195 O202 1.185 . S
O196 C195 1.160 . S
O197 Zn198 1.899 . S
O197 C205 1.284 . S
Zn198 O197 1.899 . S
Zn198 O199 2.032 . S
Zn198 O202 2.086 . S
Zn198 O207 1.977 . S
O199 Zn198 2.032 . S
O199 C203 1.278 . S
C200 O201 1.203 . S
C200 O207 1.267 . S
O201 C200 1.203 . S
O202 C195 1.185 . S
O202 Zn198 2.086 . S
C203 O199 1.278 . S
C203 O204 1.211 . S
O204 C203 1.211 . S
C205 O197 1.284 . S
C205 O206 1.273 . S
O206 C205 1.273 . S
O207 Zn198 1.977 . S
O207 C200 1.267 . S
C208 O209 1.160 1_545 S
C208 O215 1.185 . S
O209 C208 1.160 1_565 S
O210 Zn211 1.899 1_565 S
O210 C218 1.284 . S
Zn211 O210 1.899 1_545 S
Zn211 O212 2.032 . S
Zn211 O215 2.086 . S
Zn211 O220 1.977 . S
O212 Zn211 2.032 . S
O212 C216 1.278 . S
C213 O214 1.203 . S
C213 O220 1.267 . S
O214 C213 1.203 . S
O215 C208 1.185 . S
O215 Zn211 2.086 . S
C216 O212 1.278 . S
C216 O217 1.211 . S
O217 C216 1.211 . S
C218 O210 1.284 . S
C218 O219 1.273 . S
O219 C218 1.273 . S
O220 Zn211 1.977 . S
O220 C213 1.267 . S
C221 O222 1.167 . S
C221 O228 1.185 . S
O222 C221 1.167 . S
O223 Zn224 1.899 1_455 S
O223 C231 1.284 . S
Zn224 O223 1.899 1_655 S
Zn224 O225 2.032 . S
Zn224 O228 2.086 . S
Zn224 O233 1.977 . S
O225 Zn224 2.032 . S
O225 C229 1.278 . S
C226 O227 1.203 . S
C226 O233 1.267 . S
O227 C226 1.203 . S
O228 C221 1.185 . S
O228 Zn224 2.086 . S
C229 O225 1.278 . S
C229 O230 1.211 . S
O230 C229 1.211 . S
C231 O223 1.284 . S
C231 O232 1.273 . S
O232 C231 1.273 . S
O233 Zn224 1.977 . S
O233 C226 1.267 . S
H234 C253 0.949 . S
H235 C254 0.950 . S
H236 C256 0.950 . S
H237 C257 0.950 . S
H238 C259 0.950 . S
H239 C262 0.950 . S
H240 C263 0.950 . S
H241 C265 0.951 . S
H242 C266 0.949 . S
H243 C268 0.949 . S
H244 C269 0.950 . S
H245 C271 0.950 . S
H246 C272 0.950 . S
H247 C274 0.950 . S
H248 C277 0.950 . S
H249 C278 0.950 . S
H250 C280 0.951 . S
H251 C281 0.949 . S
C252 C253 1.376 . S
C252 C257 1.386 . S
C252 C258 1.483 . S
C253 H234 0.949 . S
C253 C252 1.376 . S
C253 C254 1.397 . S
C254 H235 0.950 . S
C254 C253 1.397 . S
C254 C255 1.391 . S
C255 C254 1.391 . S
C255 C256 1.405 . S
C256 H236 0.950 . S
C256 C255 1.405 . S
C256 C257 1.367 . S
C257 H237 0.950 . S
C257 C252 1.386 . S
C257 C256 1.367 . S
C258 C252 1.483 . S
C258 C259 1.382 . S
C258 C260 1.403 . S
C259 H238 0.950 . S
C259 C258 1.382 . S
C259 C275 1.411 . S
C260 C258 1.403 . S
C260 C261 1.489 . S
C260 C274 1.411 . S
C261 C260 1.489 . S
C261 C262 1.383 . S
C261 C266 1.382 . S
C262 H239 0.950 . S
C262 C261 1.383 . S
C262 C263 1.395 . S
C263 H240 0.950 . S
C263 C262 1.395 . S
C263 C264 1.288 . S
C264 C263 1.288 . S
C264 C265 1.392 . S
C265 H241 0.951 . S
C265 C264 1.392 . S
C265 C266 1.392 . S
C266 H242 0.949 . S
C266 C261 1.382 . S
C266 C265 1.392 . S
C267 C268 1.376 . S
C267 C272 1.386 . S
C267 C273 1.483 . S
C268 H243 0.949 . S
C268 C267 1.376 . S
C268 C269 1.397 . S
C269 H244 0.950 . S
C269 C268 1.397 . S
C269 C270 1.391 . S
C270 C269 1.391 . S
C270 C271 1.405 . S
C271 H245 0.950 . S
C271 C270 1.405 . S
C271 C272 1.367 . S
C272 H246 0.950 . S
C272 C267 1.386 . S
C272 C271 1.367 . S
C273 C267 1.483 . S
C273 C274 1.382 . S
C273 C275 1.403 . S
C274 H247 0.950 . S
C274 C260 1.411 . S
C274 C273 1.382 . S
C275 C259 1.411 . S
C275 C273 1.403 . S
C275 C276 1.489 . S
C276 C275 1.489 . S
C276 C277 1.383 . S
C276 C281 1.382 . S
C277 H248 0.950 . S
C277 C276 1.383 . S
C277 C278 1.395 . S
C278 H249 0.950 . S
C278 C277 1.395 . S
C278 C279 1.288 . S
C279 C278 1.288 . S
C279 C280 1.392 . S
C280 H250 0.951 . S
C280 C279 1.392 . S
C280 C281 1.392 . S
C281 H251 0.949 . S
C281 C276 1.382 . S
C281 C280 1.392 . S
H282 C301 0.949 . S
H283 C302 0.950 . S
H284 C304 0.950 . S
H285 C305 0.950 . S
H286 C307 0.950 . S
H287 C310 0.950 . S
H288 C311 0.950 . S
H289 C313 0.951 . S
H290 C314 0.949 . S
H291 C316 0.949 . S
H292 C317 0.950 . S
H293 C319 0.950 . S
H294 C320 0.950 . S
H295 C322 0.950 . S
H296 C325 0.950 . S
H297 C326 0.950 . S
H298 C328 0.951 . S
H299 C329 0.949 . S
C300 C301 1.376 . S
C300 C305 1.386 . S
C300 C306 1.483 . S
C301 H282 0.949 . S
C301 C300 1.376 . S
C301 C302 1.397 . S
C302 H283 0.950 . S
C302 C301 1.397 . S
C302 C303 1.391 . S
C303 C302 1.391 . S
C303 C304 1.405 . S
C304 H284 0.950 . S
C304 C303 1.405 . S
C304 C305 1.367 . S
C305 H285 0.950 . S
C305 C300 1.386 . S
C305 C304 1.367 . S
C306 C300 1.483 . S
C306 C307 1.382 . S
C306 C308 1.403 . S
C307 H286 0.950 . S
C307 C306 1.382 . S
C307 C323 1.411 . S
C308 C306 1.403 . S
C308 C309 1.489 . S
C308 C322 1.411 . S
C309 C308 1.489 . S
C309 C310 1.383 . S
C309 C314 1.382 . S
C310 H287 0.950 . S
C310 C309 1.383 . S
C310 C311 1.395 . S
C311 H288 0.950 . S
C311 C310 1.395 . S
C311 C312 1.288 . S
C312 C311 1.288 . S
C312 C313 1.392 . S
C313 H289 0.951 . S
C313 C312 1.392 . S
C313 C314 1.392 . S
C314 H290 0.949 . S
C314 C309 1.382 . S
C314 C313 1.392 . S
C315 C316 1.376 . S
C315 C320 1.386 . S
C315 C321 1.483 . S
C316 H291 0.949 . S
C316 C315 1.376 . S
C316 C317 1.397 . S
C317 H292 0.950 . S
C317 C316 1.397 . S
C317 C318 1.391 . S
C318 C317 1.391 . S
C318 C319 1.405 . S
C319 H293 0.950 . S
C319 C318 1.405 . S
C319 C320 1.367 . S
C320 H294 0.950 . S
C320 C315 1.386 . S
C320 C319 1.367 . S
C321 C315 1.483 . S
C321 C322 1.382 . S
C321 C323 1.403 . S
C322 H295 0.950 . S
C322 C308 1.411 . S
C322 C321 1.382 . S
C323 C307 1.411 . S
C323 C321 1.403 . S
C323 C324 1.489 . S
C324 C323 1.489 . S
C324 C325 1.383 . S
C324 C329 1.382 . S
C325 H296 0.950 . S
C325 C324 1.383 . S
C325 C326 1.395 . S
C326 H297 0.950 . S
C326 C325 1.395 . S
C326 C327 1.288 . S
C327 C326 1.288 . S
C327 C328 1.392 . S
C328 H298 0.951 . S
C328 C327 1.392 . S
C328 C329 1.392 . S
C329 H299 0.949 . S
C329 C324 1.382 . S
C329 C328 1.392 . S
H330 C349 0.949 . S
H331 C350 0.950 . S
H332 C352 0.950 . S
H333 C353 0.950 . S
H334 C355 0.950 . S
H335 C358 0.950 . S
H336 C359 0.950 . S
H337 C361 0.951 . S
H338 C362 0.949 . S
H339 C364 0.949 . S
H340 C365 0.950 . S
H341 C367 0.950 . S
H342 C368 0.950 . S
H343 C370 0.950 . S
H344 C373 0.950 . S
H345 C374 0.950 . S
H346 C376 0.951 . S
H347 C377 0.949 . S
C348 C349 1.376 . S
C348 C353 1.386 . S
C348 C354 1.483 . S
C349 H330 0.949 . S
C349 C348 1.376 . S
C349 C350 1.397 . S
C350 H331 0.950 . S
C350 C349 1.397 . S
C350 C351 1.391 . S
C351 C350 1.391 . S
C351 C352 1.405 . S
C352 H332 0.950 . S
C352 C351 1.405 . S
C352 C353 1.367 . S
C353 H333 0.950 . S
C353 C348 1.386 . S
C353 C352 1.367 . S
C354 C348 1.483 . S
C354 C355 1.382 . S
C354 C356 1.403 . S
C355 H334 0.950 . S
C355 C354 1.382 . S
C355 C371 1.411 . S
C356 C354 1.403 . S
C356 C357 1.489 . S
C356 C370 1.411 . S
C357 C356 1.489 . S
C357 C358 1.383 . S
C357 C362 1.382 . S
C358 H335 0.950 . S
C358 C357 1.383 . S
C358 C359 1.395 . S
C359 H336 0.950 . S
C359 C358 1.395 . S
C359 C360 1.288 . S
C360 C359 1.288 . S
C360 C361 1.392 . S
C361 H337 0.951 . S
C361 C360 1.392 . S
C361 C362 1.392 . S
C362 H338 0.949 . S
C362 C357 1.382 . S
C362 C361 1.392 . S
C363 C364 1.376 . S
C363 C368 1.386 . S
C363 C369 1.483 . S
C364 H339 0.949 . S
C364 C363 1.376 . S
C364 C365 1.397 . S
C365 H340 0.950 . S
C365 C364 1.397 . S
C365 C366 1.391 . S
C366 C365 1.391 . S
C366 C367 1.405 . S
C367 H341 0.950 . S
C367 C366 1.405 . S
C367 C368 1.367 . S
C368 H342 0.950 . S
C368 C363 1.386 . S
C368 C367 1.367 . S
C369 C363 1.483 . S
C369 C370 1.382 . S
C369 C371 1.403 . S
C370 H343 0.950 . S
C370 C356 1.411 . S
C370 C369 1.382 . S
C371 C355 1.411 . S
C371 C369 1.403 . S
C371 C372 1.489 . S
C372 C371 1.489 . S
C372 C373 1.383 . S
C372 C377 1.382 . S
C373 H344 0.950 . S
C373 C372 1.383 . S
C373 C374 1.395 . S
C374 H345 0.950 . S
C374 C373 1.395 . S
C374 C375 1.288 . S
C375 C374 1.288 . S
C375 C376 1.392 . S
C376 H346 0.951 . S
C376 C375 1.392 . S
C376 C377 1.392 . S
C377 H347 0.949 . S
C377 C372 1.382 . S
C377 C376 1.392 . S
H378 C397 0.949 . S
H379 C398 0.950 . S
H380 C400 0.950 . S
H381 C401 0.950 . S
H382 C403 0.950 . S
H383 C406 0.950 . S
H384 C407 0.950 . S
H385 C409 0.951 . S
H386 C410 0.949 . S
H387 C412 0.949 . S
H388 C413 0.950 . S
H389 C415 0.950 . S
H390 C416 0.950 . S
H391 C418 0.950 . S
H392 C421 0.950 . S
H393 C422 0.950 . S
H394 C424 0.951 . S
H395 C425 0.949 . S
C396 C397 1.376 . S
C396 C401 1.386 . S
C396 C402 1.483 . S
C397 H378 0.949 . S
C397 C396 1.376 . S
C397 C398 1.397 . S
C398 H379 0.950 . S
C398 C397 1.397 . S
C398 C399 1.391 . S
C399 C398 1.391 . S
C399 C400 1.405 . S
C400 H380 0.950 . S
C400 C399 1.405 . S
C400 C401 1.367 . S
C401 H381 0.950 . S
C401 C396 1.386 . S
C401 C400 1.367 . S
C402 C396 1.483 . S
C402 C403 1.382 . S
C402 C404 1.403 . S
C403 H382 0.950 . S
C403 C402 1.382 . S
C403 C419 1.411 . S
C404 C402 1.403 . S
C404 C405 1.489 . S
C404 C418 1.411 . S
C405 C404 1.489 . S
C405 C406 1.383 . S
C405 C410 1.382 . S
C406 H383 0.950 . S
C406 C405 1.383 . S
C406 C407 1.395 . S
C407 H384 0.950 . S
C407 C406 1.395 . S
C407 C408 1.288 . S
C408 C407 1.288 . S
C408 C409 1.392 . S
C409 H385 0.951 . S
C409 C408 1.392 . S
C409 C410 1.392 . S
C410 H386 0.949 . S
C410 C405 1.382 . S
C410 C409 1.392 . S
C411 C412 1.376 . S
C411 C416 1.386 . S
C411 C417 1.483 . S
C412 H387 0.949 . S
C412 C411 1.376 . S
C412 C413 1.397 . S
C413 H388 0.950 . S
C413 C412 1.397 . S
C413 C414 1.391 . S
C414 C413 1.391 . S
C414 C415 1.405 . S
C415 H389 0.950 . S
C415 C414 1.405 . S
C415 C416 1.367 . S
C416 H390 0.950 . S
C416 C411 1.386 . S
C416 C415 1.367 . S
C417 C411 1.483 . S
C417 C418 1.382 . S
C417 C419 1.403 . S
C418 H391 0.950 . S
C418 C404 1.411 . S
C418 C417 1.382 . S
C419 C403 1.411 . S
C419 C417 1.403 . S
C419 C420 1.489 . S
C420 C419 1.489 . S
C420 C421 1.383 . S
C420 C425 1.382 . S
C421 H392 0.950 . S
C421 C420 1.383 . S
C421 C422 1.395 . S
C422 H393 0.950 . S
C422 C421 1.395 . S
C422 C423 1.288 . S
C423 C422 1.288 . S
C423 C424 1.392 . S
C424 H394 0.951 . S
C424 C423 1.392 . S
C424 C425 1.392 . S
C425 H395 0.949 . S
C425 C420 1.382 . S
C425 C424 1.392 . S
H426 C445 0.949 . S
H427 C446 0.950 . S
H428 C448 0.950 . S
H429 C449 0.950 . S
H430 C451 0.950 . S
H431 C454 0.950 . S
H432 C455 0.950 . S
H433 C457 0.951 . S
H434 C458 0.949 . S
H435 C460 0.949 . S
H436 C461 0.950 . S
H437 C463 0.950 . S
H438 C464 0.950 . S
H439 C466 0.950 . S
H440 C469 0.950 . S
H441 C470 0.950 . S
H442 C472 0.951 . S
H443 C473 0.949 . S
C444 C445 1.376 . S
C444 C449 1.386 . S
C444 C450 1.483 . S
C445 H426 0.949 . S
C445 C444 1.376 . S
C445 C446 1.397 . S
C446 H427 0.950 . S
C446 C445 1.397 . S
C446 C447 1.391 . S
C447 C446 1.391 . S
C447 C448 1.405 . S
C448 H428 0.950 . S
C448 C447 1.405 . S
C448 C449 1.367 . S
C449 H429 0.950 . S
C449 C444 1.386 . S
C449 C448 1.367 . S
C450 C444 1.483 . S
C450 C451 1.382 . S
C450 C452 1.403 . S
C451 H430 0.950 . S
C451 C450 1.382 . S
C451 C467 1.411 . S
C452 C450 1.403 . S
C452 C453 1.489 . S
C452 C466 1.411 . S
C453 C452 1.489 . S
C453 C454 1.383 . S
C453 C458 1.382 . S
C454 H431 0.950 . S
C454 C453 1.383 . S
C454 C455 1.395 . S
C455 H432 0.950 . S
C455 C454 1.395 . S
C455 C456 1.288 . S
C456 C455 1.288 . S
C456 C457 1.392 . S
C457 H433 0.951 . S
C457 C456 1.392 . S
C457 C458 1.392 . S
C458 H434 0.949 . S
C458 C453 1.382 . S
C458 C457 1.392 . S
C459 C460 1.376 . S
C459 C464 1.386 . S
C459 C465 1.483 . S
C460 H435 0.949 . S
C460 C459 1.376 . S
C460 C461 1.397 . S
C461 H436 0.950 . S
C461 C460 1.397 . S
C461 C462 1.391 . S
C462 C461 1.391 . S
C462 C463 1.405 . S
C463 H437 0.950 . S
C463 C462 1.405 . S
C463 C464 1.367 . S
C464 H438 0.950 . S
C464 C459 1.386 . S
C464 C463 1.367 . S
C465 C459 1.483 . S
C465 C466 1.382 . S
C465 C467 1.403 . S
C466 H439 0.950 . S
C466 C452 1.411 . S
C466 C465 1.382 . S
C467 C451 1.411 . S
C467 C465 1.403 . S
C467 C468 1.489 . S
C468 C467 1.489 . S
C468 C469 1.383 . S
C468 C473 1.382 . S
C469 H440 0.950 . S
C469 C468 1.383 . S
C469 C470 1.395 . S
C470 H441 0.950 . S
C470 C469 1.395 . S
C470 C471 1.288 . S
C471 C470 1.288 . S
C471 C472 1.392 . S
C472 H442 0.951 . S
C472 C471 1.392 . S
C472 C473 1.392 . S
C473 H443 0.949 . S
C473 C468 1.382 . S
C473 C472 1.392 . S
H474 C493 0.949 . S
H475 C494 0.950 . S
H476 C496 0.950 . S
H477 C497 0.950 . S
H478 C499 0.950 . S
H479 C502 0.950 . S
H480 C503 0.950 . S
H481 C505 0.951 . S
H482 C506 0.949 . S
H483 C508 0.949 . S
H484 C509 0.950 . S
H485 C511 0.950 . S
H486 C512 0.950 . S
H487 C514 0.950 . S
H488 C517 0.950 . S
H489 C518 0.950 . S
H490 C520 0.951 . S
H491 C521 0.949 . S
C492 C493 1.376 . S
C492 C497 1.386 . S
C492 C498 1.483 . S
C493 H474 0.949 . S
C493 C492 1.376 . S
C493 C494 1.397 . S
C494 H475 0.950 . S
C494 C493 1.397 . S
C494 C495 1.391 . S
C495 C494 1.391 . S
C495 C496 1.405 . S
C496 H476 0.950 . S
C496 C495 1.405 . S
C496 C497 1.367 . S
C497 H477 0.950 . S
C497 C492 1.386 . S
C497 C496 1.367 . S
C498 C492 1.483 . S
C498 C499 1.382 . S
C498 C500 1.403 . S
C499 H478 0.950 . S
C499 C498 1.382 . S
C499 C515 1.411 . S
C500 C498 1.403 . S
C500 C501 1.489 . S
C500 C514 1.411 . S
C501 C500 1.489 . S
C501 C502 1.383 . S
C501 C506 1.382 . S
C502 H479 0.950 . S
C502 C501 1.383 . S
C502 C503 1.395 . S
C503 H480 0.950 . S
C503 C502 1.395 . S
C503 C504 1.288 . S
C504 C503 1.288 . S
C504 C505 1.392 . S
C505 H481 0.951 . S
C505 C504 1.392 . S
C505 C506 1.392 . S
C506 H482 0.949 . S
C506 C501 1.382 . S
C506 C505 1.392 . S
C507 C508 1.376 . S
C507 C512 1.386 . S
C507 C513 1.483 . S
C508 H483 0.949 . S
C508 C507 1.376 . S
C508 C509 1.397 . S
C509 H484 0.950 . S
C509 C508 1.397 . S
C509 C510 1.391 . S
C510 C509 1.391 . S
C510 C511 1.405 . S
C511 H485 0.950 . S
C511 C510 1.405 . S
C511 C512 1.367 . S
C512 H486 0.950 . S
C512 C507 1.386 . S
C512 C511 1.367 . S
C513 C507 1.483 . S
C513 C514 1.382 . S
C513 C515 1.403 . S
C514 H487 0.950 . S
C514 C500 1.411 . S
C514 C513 1.382 . S
C515 C499 1.411 . S
C515 C513 1.403 . S
C515 C516 1.489 . S
C516 C515 1.489 . S
C516 C517 1.383 . S
C516 C521 1.382 . S
C517 H488 0.950 . S
C517 C516 1.383 . S
C517 C518 1.395 . S
C518 H489 0.950 . S
C518 C517 1.395 . S
C518 C519 1.288 . S
C519 C518 1.288 . S
C519 C520 1.392 . S
C520 H490 0.951 . S
C520 C519 1.392 . S
C520 C521 1.392 . S
C521 H491 0.949 . S
C521 C516 1.382 . S
C521 C520 1.392 . S
H522 C541 0.949 . S
H523 C542 0.950 . S
H524 C544 0.950 . S
H525 C545 0.950 . S
H526 C547 0.950 . S
H527 C550 0.950 . S
H528 C551 0.950 . S
H529 C553 0.951 . S
H530 C554 0.949 . S
H531 C556 0.949 . S
H532 C557 0.950 . S
H533 C559 0.950 . S
H534 C560 0.950 . S
H535 C562 0.950 . S
H536 C565 0.950 . S
H537 C566 0.950 . S
H538 C568 0.951 . S
H539 C569 0.949 . S
C540 C541 1.376 . S
C540 C545 1.386 . S
C540 C546 1.483 . S
C541 H522 0.949 . S
C541 C540 1.376 . S
C541 C542 1.397 . S
C542 H523 0.950 . S
C542 C541 1.397 . S
C542 C543 1.391 . S
C543 C542 1.391 . S
C543 C544 1.405 . S
C544 H524 0.950 . S
C544 C543 1.405 . S
C544 C545 1.367 . S
C545 H525 0.950 . S
C545 C540 1.386 . S
C545 C544 1.367 . S
C546 C540 1.483 . S
C546 C547 1.382 . S
C546 C548 1.403 . S
C547 H526 0.950 . S
C547 C546 1.382 . S
C547 C563 1.411 . S
C548 C546 1.403 . S
C548 C549 1.489 . S
C548 C562 1.411 . S
C549 C548 1.489 . S
C549 C550 1.383 . S
C549 C554 1.382 . S
C550 H527 0.950 . S
C550 C549 1.383 . S
C550 C551 1.395 . S
C551 H528 0.950 . S
C551 C550 1.395 . S
C551 C552 1.288 . S
C552 C551 1.288 . S
C552 C553 1.392 . S
C553 H529 0.951 . S
C553 C552 1.392 . S
C553 C554 1.392 . S
C554 H530 0.949 . S
C554 C549 1.382 . S
C554 C553 1.392 . S
C555 C556 1.376 . S
C555 C560 1.386 . S
C555 C561 1.483 . S
C556 H531 0.949 . S
C556 C555 1.376 . S
C556 C557 1.397 . S
C557 H532 0.950 . S
C557 C556 1.397 . S
C557 C558 1.391 . S
C558 C557 1.391 . S
C558 C559 1.405 . S
C559 H533 0.950 . S
C559 C558 1.405 . S
C559 C560 1.367 . S
C560 H534 0.950 . S
C560 C555 1.386 . S
C560 C559 1.367 . S
C561 C555 1.483 . S
C561 C562 1.382 . S
C561 C563 1.403 . S
C562 H535 0.950 . S
C562 C548 1.411 . S
C562 C561 1.382 . S
C563 C547 1.411 . S
C563 C561 1.403 . S
C563 C564 1.489 . S
C564 C563 1.489 . S
C564 C565 1.383 . S
C564 C569 1.382 . S
C565 H536 0.950 . S
C565 C564 1.383 . S
C565 C566 1.395 . S
C566 H537 0.950 . S
C566 C565 1.395 . S
C566 C567 1.288 . S
C567 C566 1.288 . S
C567 C568 1.392 . S
C568 H538 0.951 . S
C568 C567 1.392 . S
C568 C569 1.392 . S
C569 H539 0.949 . S
C569 C564 1.382 . S
C569 C568 1.392 . S
H570 C589 0.949 . S
H571 C590 0.950 . S
H572 C592 0.950 . S
H573 C593 0.950 . S
H574 C595 0.950 . S
H575 C598 0.950 . S
H576 C599 0.950 . S
H577 C601 0.951 . S
H578 C602 0.949 . S
H579 C604 0.949 . S
H580 C605 0.950 . S
H581 C607 0.950 . S
H582 C608 0.950 . S
H583 C610 0.950 . S
H584 C613 0.950 . S
H585 C614 0.950 . S
H586 C616 0.951 . S
H587 C617 0.949 . S
C588 C589 1.376 . S
C588 C593 1.386 . S
C588 C594 1.483 . S
C589 H570 0.949 . S
C589 C588 1.376 . S
C589 C590 1.397 . S
C590 H571 0.950 . S
C590 C589 1.397 . S
C590 C591 1.391 . S
C591 C590 1.391 . S
C591 C592 1.405 . S
C592 H572 0.950 . S
C592 C591 1.405 . S
C592 C593 1.367 . S
C593 H573 0.950 . S
C593 C588 1.386 . S
C593 C592 1.367 . S
C594 C588 1.483 . S
C594 C595 1.382 . S
C594 C596 1.403 . S
C595 H574 0.950 . S
C595 C594 1.382 . S
C595 C611 1.411 . S
C596 C594 1.403 . S
C596 C597 1.489 . S
C596 C610 1.411 . S
C597 C596 1.489 . S
C597 C598 1.383 . S
C597 C602 1.382 . S
C598 H575 0.950 . S
C598 C597 1.383 . S
C598 C599 1.395 . S
C599 H576 0.950 . S
C599 C598 1.395 . S
C599 C600 1.288 . S
C600 C599 1.288 . S
C600 C601 1.392 . S
C601 H577 0.951 . S
C601 C600 1.392 . S
C601 C602 1.392 . S
C602 H578 0.949 . S
C602 C597 1.382 . S
C602 C601 1.392 . S
C603 C604 1.376 . S
C603 C608 1.386 . S
C603 C609 1.483 . S
C604 H579 0.949 . S
C604 C603 1.376 . S
C604 C605 1.397 . S
C605 H580 0.950 . S
C605 C604 1.397 . S
C605 C606 1.391 . S
C606 C605 1.391 . S
C606 C607 1.405 . S
C607 H581 0.950 . S
C607 C606 1.405 . S
C607 C608 1.367 . S
C608 H582 0.950 . S
C608 C603 1.386 . S
C608 C607 1.367 . S
C609 C603 1.483 . S
C609 C610 1.382 . S
C609 C611 1.403 . S
C610 H583 0.950 . S
C610 C596 1.411 . S
C610 C609 1.382 . S
C611 C595 1.411 . S
C611 C609 1.403 . S
C611 C612 1.489 . S
C612 C611 1.489 . S
C612 C613 1.383 . S
C612 C617 1.382 . S
C613 H584 0.950 . S
C613 C612 1.383 . S
C613 C614 1.395 . S
C614 H585 0.950 . S
C614 C613 1.395 . S
C614 C615 1.288 . S
C615 C614 1.288 . S
C615 C616 1.392 . S
C616 H586 0.951 . S
C616 C615 1.392 . S
C616 C617 1.392 . S
C617 H587 0.949 . S
C617 C612 1.382 . S
C617 C616 1.392 . S
H618 C637 0.949 . S
H619 C638 0.950 . S
H620 C640 0.950 . S
H621 C641 0.950 . S
H622 C643 0.950 . S
H623 C646 0.950 . S
H624 C647 0.950 . S
H625 C649 0.951 . S
H626 C650 0.949 . S
H627 C652 0.949 . S
H628 C653 0.950 . S
H629 C655 0.950 . S
H630 C656 0.950 . S
H631 C658 0.950 . S
H632 C661 0.950 . S
H633 C662 0.950 . S
H634 C664 0.951 . S
H635 C665 0.949 . S
C636 C637 1.376 . S
C636 C641 1.386 . S
C636 C642 1.483 . S
C637 H618 0.949 . S
C637 C636 1.376 . S
C637 C638 1.397 . S
C638 H619 0.950 . S
C638 C637 1.397 . S
C638 C639 1.391 . S
C639 C638 1.391 . S
C639 C640 1.405 . S
C640 H620 0.950 . S
C640 C639 1.405 . S
C640 C641 1.367 . S
C641 H621 0.950 . S
C641 C636 1.386 . S
C641 C640 1.367 . S
C642 C636 1.483 . S
C642 C643 1.382 . S
C642 C644 1.403 . S
C643 H622 0.950 . S
C643 C642 1.382 . S
C643 C659 1.411 . S
C644 C642 1.403 . S
C644 C645 1.489 . S
C644 C658 1.411 . S
C645 C644 1.489 . S
C645 C646 1.383 . S
C645 C650 1.382 . S
C646 H623 0.950 . S
C646 C645 1.383 . S
C646 C647 1.395 . S
C647 H624 0.950 . S
C647 C646 1.395 . S
C647 C648 1.288 . S
C648 C647 1.288 . S
C648 C649 1.392 . S
C649 H625 0.951 . S
C649 C648 1.392 . S
C649 C650 1.392 . S
C650 H626 0.949 . S
C650 C645 1.382 . S
C650 C649 1.392 . S
C651 C652 1.376 . S
C651 C656 1.386 . S
C651 C657 1.483 . S
C652 H627 0.949 . S
C652 C651 1.376 . S
C652 C653 1.397 . S
C653 H628 0.950 . S
C653 C652 1.397 . S
C653 C654 1.391 . S
C654 C653 1.391 . S
C654 C655 1.405 . S
C655 H629 0.950 . S
C655 C654 1.405 . S
C655 C656 1.367 . S
C656 H630 0.950 . S
C656 C651 1.386 . S
C656 C655 1.367 . S
C657 C651 1.483 . S
C657 C658 1.382 . S
C657 C659 1.403 . S
C658 H631 0.950 . S
C658 C644 1.411 . S
C658 C657 1.382 . S
C659 C643 1.411 . S
C659 C657 1.403 . S
C659 C660 1.489 . S
C660 C659 1.489 . S
C660 C661 1.383 . S
C660 C665 1.382 . S
C661 H632 0.950 . S
C661 C660 1.383 . S
C661 C662 1.395 . S
C662 H633 0.950 . S
C662 C661 1.395 . S
C662 C663 1.288 . S
C663 C662 1.288 . S
C663 C664 1.392 . S
C664 H634 0.951 . S
C664 C663 1.392 . S
C664 C665 1.392 . S
C665 H635 0.949 . S
C665 C660 1.382 . S
C665 C664 1.392 . S
H666 C685 0.949 . S
H667 C686 0.950 . S
H668 C688 0.950 . S
H669 C689 0.950 . S
H670 C691 0.950 . S
H671 C694 0.950 . S
H672 C695 0.950 . S
H673 C697 0.951 . S
H674 C698 0.949 . S
H675 C700 0.949 . S
H676 C701 0.950 . S
H677 C703 0.950 . S
H678 C704 0.950 . S
H679 C706 0.950 . S
H680 C709 0.950 . S
H681 C710 0.950 . S
H682 C712 0.951 . S
H683 C713 0.949 . S
C684 C685 1.376 . S
C684 C689 1.386 1_655 S
C684 C690 1.483 . S
C685 H666 0.949 . S
C685 C684 1.376 . S
C685 C686 1.397 . S
C686 H667 0.950 . S
C686 C685 1.397 . S
C686 C687 1.391 . S
C687 C686 1.391 . S
C687 C688 1.405 1_655 S
C688 H668 0.950 . S
C688 C687 1.405 1_455 S
C688 C689 1.367 . S
C689 H669 0.950 . S
C689 C684 1.386 1_455 S
C689 C688 1.367 . S
C690 C684 1.483 . S
C690 C691 1.382 . S
C690 C692 1.403 1_655 S
C691 H670 0.950 . S
C691 C690 1.382 . S
C691 C707 1.411 . S
C692 C690 1.403 1_455 S
C692 C693 1.489 . S
C692 C706 1.411 . S
C693 C692 1.489 . S
C693 C694 1.383 1_455 S
C693 C698 1.382 . S
C694 H671 0.950 . S
C694 C693 1.383 1_655 S
C694 C695 1.395 . S
C695 H672 0.950 . S
C695 C694 1.395 . S
C695 C696 1.288 1_655 S
C696 C695 1.288 1_455 S
C696 C697 1.392 . S
C697 H673 0.951 . S
C697 C696 1.392 . S
C697 C698 1.392 . S
C698 H674 0.949 . S
C698 C693 1.382 . S
C698 C697 1.392 . S
C699 C700 1.376 . S
C699 C704 1.386 1_455 S
C699 C705 1.483 . S
C700 H675 0.949 . S
C700 C699 1.376 . S
C700 C701 1.397 . S
C701 H676 0.950 . S
C701 C700 1.397 . S
C701 C702 1.391 . S
C702 C701 1.391 . S
C702 C703 1.405 1_455 S
C703 H677 0.950 . S
C703 C702 1.405 1_655 S
C703 C704 1.367 . S
C704 H678 0.950 . S
C704 C699 1.386 1_655 S
C704 C703 1.367 . S
C705 C699 1.483 . S
C705 C706 1.382 . S
C705 C707 1.403 1_455 S
C706 H679 0.950 . S
C706 C692 1.411 . S
C706 C705 1.382 . S
C707 C691 1.411 . S
C707 C705 1.403 1_655 S
C707 C708 1.489 . S
C708 C707 1.489 . S
C708 C709 1.383 1_655 S
C708 C713 1.382 . S
C709 H680 0.950 . S
C709 C708 1.383 1_455 S
C709 C710 1.395 . S
C710 H681 0.950 . S
C710 C709 1.395 . S
C710 C711 1.288 1_455 S
C711 C710 1.288 1_655 S
C711 C712 1.392 . S
C712 H682 0.951 . S
C712 C711 1.392 . S
C712 C713 1.392 . S
C713 H683 0.949 . S
C713 C708 1.382 . S
C713 C712 1.392 . S
H714 C733 0.949 . S
H715 C734 0.950 . S
H716 C736 0.950 . S
H717 C737 0.950 . S
H718 C739 0.950 . S
H719 C742 0.950 . S
H720 C743 0.950 . S
H721 C745 0.951 . S
H722 C746 0.949 . S
H723 C748 0.949 . S
H724 C749 0.950 . S
H725 C751 0.950 . S
H726 C752 0.950 . S
H727 C754 0.950 . S
H728 C757 0.950 . S
H729 C758 0.950 . S
H730 C760 0.951 . S
H731 C761 0.949 . S
C732 C733 1.376 . S
C732 C737 1.386 . S
C732 C738 1.483 . S
C733 H714 0.949 . S
C733 C732 1.376 . S
C733 C734 1.397 . S
C734 H715 0.950 . S
C734 C733 1.397 . S
C734 C735 1.391 . S
C735 C734 1.391 . S
C735 C736 1.405 . S
C736 H716 0.950 . S
C736 C735 1.405 . S
C736 C737 1.367 . S
C737 H717 0.950 . S
C737 C732 1.386 . S
C737 C736 1.367 . S
C738 C732 1.483 . S
C738 C739 1.382 . S
C738 C740 1.403 . S
C739 H718 0.950 . S
C739 C738 1.382 . S
C739 C755 1.411 . S
C740 C738 1.403 . S
C740 C741 1.489 . S
C740 C754 1.411 . S
C741 C740 1.489 . S
C741 C742 1.383 . S
C741 C746 1.382 . S
C742 H719 0.950 . S
C742 C741 1.383 . S
C742 C743 1.395 . S
C743 H720 0.950 . S
C743 C742 1.395 . S
C743 C744 1.288 . S
C744 C743 1.288 . S
C744 C745 1.392 . S
C745 H721 0.951 . S
C745 C744 1.392 . S
C745 C746 1.392 . S
C746 H722 0.949 . S
C746 C741 1.382 . S
C746 C745 1.392 . S
C747 C748 1.376 . S
C747 C752 1.386 . S
C747 C753 1.483 . S
C748 H723 0.949 . S
C748 C747 1.376 . S
C748 C749 1.397 . S
C749 H724 0.950 . S
C749 C748 1.397 . S
C749 C750 1.391 . S
C750 C749 1.391 . S
C750 C751 1.405 . S
C751 H725 0.950 . S
C751 C750 1.405 . S
C751 C752 1.367 . S
C752 H726 0.950 . S
C752 C747 1.386 . S
C752 C751 1.367 . S
C753 C747 1.483 . S
C753 C754 1.382 . S
C753 C755 1.403 . S
C754 H727 0.950 . S
C754 C740 1.411 . S
C754 C753 1.382 . S
C755 C739 1.411 . S
C755 C753 1.403 . S
C755 C756 1.489 . S
C756 C755 1.489 . S
C756 C757 1.383 . S
C756 C761 1.382 . S
C757 H728 0.950 . S
C757 C756 1.383 . S
C757 C758 1.395 . S
C758 H729 0.950 . S
C758 C757 1.395 . S
C758 C759 1.288 . S
C759 C758 1.288 . S
C759 C760 1.392 . S
C760 H730 0.951 . S
C760 C759 1.392 . S
C760 C761 1.392 . S
C761 H731 0.949 . S
C761 C756 1.382 . S
C761 C760 1.392 . S
H762 C781 0.949 . S
H763 C782 0.950 . S
H764 C784 0.950 . S
H765 C785 0.950 . S
H766 C787 0.950 . S
H767 C790 0.950 . S
H768 C791 0.950 . S
H769 C793 0.951 . S
H770 C794 0.949 . S
H771 C796 0.949 . S
H772 C797 0.950 . S
H773 C799 0.950 . S
H774 C800 0.950 . S
H775 C802 0.950 . S
H776 C805 0.950 . S
H777 C806 0.950 . S
H778 C808 0.951 . S
H779 C809 0.949 . S
C780 C781 1.376 . S
C780 C785 1.386 1_545 S
C780 C786 1.483 . S
C781 H762 0.949 . S
C781 C780 1.376 . S
C781 C782 1.397 . S
C782 H763 0.950 . S
C782 C781 1.397 . S
C782 C783 1.391 . S
C783 C782 1.391 . S
C783 C784 1.405 1_545 S
C784 H764 0.950 . S
C784 C783 1.405 1_565 S
C784 C785 1.367 . S
C785 H765 0.950 . S
C785 C780 1.386 1_565 S
C785 C784 1.367 . S
C786 C780 1.483 . S
C786 C787 1.382 . S
C786 C788 1.403 1_545 S
C787 H766 0.950 . S
C787 C786 1.382 . S
C787 C803 1.411 . S
C788 C786 1.403 1_565 S
C788 C789 1.489 . S
C788 C802 1.411 . S
C789 C788 1.489 . S
C789 C790 1.383 1_565 S
C789 C794 1.382 . S
C790 H767 0.950 . S
C790 C789 1.383 1_545 S
C790 C791 1.395 . S
C791 H768 0.950 . S
C791 C790 1.395 . S
C791 C792 1.288 1_545 S
C792 C791 1.288 1_565 S
C792 C793 1.392 . S
C793 H769 0.951 . S
C793 C792 1.392 . S
C793 C794 1.392 . S
C794 H770 0.949 . S
C794 C789 1.382 . S
C794 C793 1.392 . S
C795 C796 1.376 . S
C795 C800 1.386 1_565 S
C795 C801 1.483 . S
C796 H771 0.949 . S
C796 C795 1.376 . S
C796 C797 1.397 . S
C797 H772 0.950 . S
C797 C796 1.397 . S
C797 C798 1.391 . S
C798 C797 1.391 . S
C798 C799 1.405 1_565 S
C799 H773 0.950 . S
C799 C798 1.405 1_545 S
C799 C800 1.367 . S
C800 H774 0.950 . S
C800 C795 1.386 1_545 S
C800 C799 1.367 . S
C801 C795 1.483 . S
C801 C802 1.382 . S
C801 C803 1.403 1_565 S
C802 H775 0.950 . S
C802 C788 1.411 . S
C802 C801 1.382 . S
C803 C787 1.411 . S
C803 C801 1.403 1_545 S
C803 C804 1.489 . S
C804 C803 1.489 . S
C804 C805 1.383 1_545 S
C804 C809 1.382 . S
C805 H776 0.950 . S
C805 C804 1.383 1_565 S
C805 C806 1.395 . S
C806 H777 0.950 . S
C806 C805 1.395 . S
C806 C807 1.288 1_565 S
C807 C806 1.288 1_545 S
C807 C808 1.392 . S
C808 H778 0.951 . S
C808 C807 1.392 . S
C808 C809 1.392 . S
C809 H779 0.949 . S
C809 C804 1.382 . S
C809 C808 1.392 . S
H810 C829 0.949 . S
H811 C830 0.950 . S
H812 C832 0.950 . S
H813 C833 0.950 . S
H814 C835 0.950 . S
H815 C838 0.950 . S
H816 C839 0.950 . S
H817 C841 0.951 . S
H818 C842 0.949 . S
H819 C844 0.949 . S
H820 C845 0.950 . S
H821 C847 0.950 . S
H822 C848 0.950 . S
H823 C850 0.950 . S
H824 C853 0.950 . S
H825 C854 0.950 . S
H826 C856 0.951 . S
H827 C857 0.949 . S
C828 C829 1.402 . S
C828 C833 1.375 1_545 S
C828 C834 1.468 . S
C829 H810 0.949 . S
C829 C828 1.402 . S
C829 C830 1.397 . S
C830 H811 0.950 . S
C830 C829 1.397 . S
C830 C831 1.391 1_545 S
C831 C830 1.391 1_565 S
C831 C832 1.405 . S
C832 H812 0.950 . S
C832 C831 1.405 . S
C832 C833 1.367 . S
C833 H813 0.950 . S
C833 C828 1.375 1_565 S
C833 C832 1.367 . S
C834 C828 1.468 . S
C834 C835 1.382 . S
C834 C836 1.402 1_545 S
C835 H814 0.950 . S
C835 C834 1.382 . S
C835 C851 1.438 . S
C836 C834 1.402 1_565 S
C836 C837 1.476 . S
C836 C850 1.430 . S
C837 C836 1.476 . S
C837 C838 1.375 1_565 S
C837 C842 1.386 . S
C838 H815 0.950 . S
C838 C837 1.375 1_545 S
C838 C839 1.395 . S
C839 H816 0.950 . S
C839 C838 1.395 . S
C839 C840 1.288 . S
C840 C839 1.288 . S
C840 C841 1.392 1_545 S
C841 H817 0.951 . S
C841 C840 1.392 1_565 S
C841 C842 1.392 . S
C842 H818 0.949 . S
C842 C837 1.386 . S
C842 C841 1.392 . S
C843 C844 1.390 . S
C843 C848 1.380 1_565 S
C843 C849 1.500 . S
C844 H819 0.949 . S
C844 C843 1.390 . S
C844 C845 1.397 . S
C845 H820 0.950 . S
C845 C844 1.397 . S
C845 C846 1.391 1_565 S
C846 C845 1.391 1_545 S
C846 C847 1.405 . S
C847 H821 0.950 . S
C847 C846 1.405 . S
C847 C848 1.367 . S
C848 H822 0.950 . S
C848 C843 1.380 1_545 S
C848 C847 1.367 . S
C849 C843 1.500 . S
C849 C850 1.356 . S
C849 C851 1.402 1_565 S
C850 H823 0.950 . S
C850 C836 1.430 . S
C850 C849 1.356 . S
C851 C835 1.438 . S
C851 C849 1.402 1_545 S
C851 C852 1.476 . S
C852 C851 1.476 . S
C852 C853 1.360 1_545 S
C852 C857 1.393 . S
C853 H824 0.950 . S
C853 C852 1.360 1_565 S
C853 C854 1.395 . S
C854 H825 0.950 . S
C854 C853 1.395 . S
C854 C855 1.288 . S
C855 C854 1.288 . S
C855 C856 1.392 1_565 S
C856 H826 0.951 . S
C856 C855 1.392 1_545 S
C856 C857 1.392 . S
C857 H827 0.949 . S
C857 C852 1.393 . S
C857 C856 1.392 . S
H858 C877 0.949 . S
H859 C878 0.950 . S
H860 C880 0.950 . S
H861 C881 0.950 . S
H862 C883 0.950 . S
H863 C886 0.950 . S
H864 C887 0.950 . S
H865 C889 0.951 . S
H866 C890 0.949 . S
H867 C892 0.949 . S
H868 C893 0.950 . S
H869 C895 0.950 . S
H870 C896 0.950 . S
H871 C898 0.950 . S
H872 C901 0.950 . S
H873 C902 0.950 . S
H874 C904 0.951 . S
H875 C905 0.949 . S
C876 C877 1.376 . S
C876 C881 1.386 1_455 S
C876 C882 1.483 . S
C877 H858 0.949 . S
C877 C876 1.376 . S
C877 C878 1.397 . S
C878 H859 0.950 . S
C878 C877 1.397 . S
C878 C879 1.391 . S
C879 C878 1.391 . S
C879 C880 1.405 1_455 S
C880 H860 0.950 . S
C880 C879 1.405 1_655 S
C880 C881 1.367 . S
C881 H861 0.950 . S
C881 C876 1.386 1_655 S
C881 C880 1.367 . S
C882 C876 1.483 . S
C882 C883 1.382 . S
C882 C884 1.403 1_455 S
C883 H862 0.950 . S
C883 C882 1.382 . S
C883 C899 1.411 . S
C884 C882 1.403 1_655 S
C884 C885 1.489 . S
C884 C898 1.411 . S
C885 C884 1.489 . S
C885 C886 1.383 1_655 S
C885 C890 1.382 . S
C886 H863 0.950 . S
C886 C885 1.383 1_455 S
C886 C887 1.395 . S
C887 H864 0.950 . S
C887 C886 1.395 . S
C887 C888 1.288 1_455 S
C888 C887 1.288 1_655 S
C888 C889 1.392 . S
C889 H865 0.951 . S
C889 C888 1.392 . S
C889 C890 1.392 . S
C890 H866 0.949 . S
C890 C885 1.382 . S
C890 C889 1.392 . S
C891 C892 1.376 . S
C891 C896 1.386 1_655 S
C891 C897 1.483 . S
C892 H867 0.949 . S
C892 C891 1.376 . S
C892 C893 1.397 . S
C893 H868 0.950 . S
C893 C892 1.397 . S
C893 C894 1.391 . S
C894 C893 1.391 . S
C894 C895 1.405 1_655 S
C895 H869 0.950 . S
C895 C894 1.405 1_455 S
C895 C896 1.367 . S
C896 H870 0.950 . S
C896 C891 1.386 1_455 S
C896 C895 1.367 . S
C897 C891 1.483 . S
C897 C898 1.382 . S
C897 C899 1.403 1_655 S
C898 H871 0.950 . S
C898 C884 1.411 . S
C898 C897 1.382 . S
C899 C883 1.411 . S
C899 C897 1.403 1_455 S
C899 C900 1.489 . S
C900 C899 1.489 . S
C900 C901 1.383 1_455 S
C900 C905 1.382 . S
C901 H872 0.950 . S
C901 C900 1.383 1_655 S
C901 C902 1.395 . S
C902 H873 0.950 . S
C902 C901 1.395 . S
C902 C903 1.288 1_655 S
C903 C902 1.288 1_455 S
C903 C904 1.392 . S
C904 H874 0.951 . S
C904 C903 1.392 . S
C904 C905 1.392 . S
C905 H875 0.949 . S
C905 C900 1.382 . S
C905 C904 1.392 . S
H906 C925 0.949 . S
H907 C926 0.950 . S
H908 C928 0.950 . S
H909 C929 0.950 . S
H910 C931 0.950 . S
H911 C934 0.950 . S
H912 C935 0.950 . S
H913 C937 0.951 . S
H914 C938 0.949 . S
H915 C940 0.949 . S
H916 C941 0.950 . S
H917 C943 0.950 . S
H918 C944 0.950 . S
H919 C946 0.950 . S
H920 C949 0.950 . S
H921 C950 0.950 . S
H922 C952 0.951 . S
H923 C953 0.949 . S
C924 C925 1.376 . S
C924 C929 1.386 . S
C924 C930 1.483 . S
C925 H906 0.949 . S
C925 C924 1.376 . S
C925 C926 1.397 . S
C926 H907 0.950 . S
C926 C925 1.397 . S
C926 C927 1.391 . S
C927 C926 1.391 . S
C927 C928 1.405 . S
C928 H908 0.950 . S
C928 C927 1.405 . S
C928 C929 1.367 . S
C929 H909 0.950 . S
C929 C924 1.386 . S
C929 C928 1.367 . S
C930 C924 1.483 . S
C930 C931 1.382 . S
C930 C932 1.403 . S
C931 H910 0.950 . S
C931 C930 1.382 . S
C931 C947 1.411 . S
C932 C930 1.403 . S
C932 C933 1.489 . S
C932 C946 1.411 . S
C933 C932 1.489 . S
C933 C934 1.383 . S
C933 C938 1.382 . S
C934 H911 0.950 . S
C934 C933 1.383 . S
C934 C935 1.395 . S
C935 H912 0.950 . S
C935 C934 1.395 . S
C935 C936 1.288 . S
C936 C935 1.288 . S
C936 C937 1.392 . S
C937 H913 0.951 . S
C937 C936 1.392 . S
C937 C938 1.392 . S
C938 H914 0.949 . S
C938 C933 1.382 . S
C938 C937 1.392 . S
C939 C940 1.376 . S
C939 C944 1.386 . S
C939 C945 1.483 . S
C940 H915 0.949 . S
C940 C939 1.376 . S
C940 C941 1.397 . S
C941 H916 0.950 . S
C941 C940 1.397 . S
C941 C942 1.391 . S
C942 C941 1.391 . S
C942 C943 1.405 . S
C943 H917 0.950 . S
C943 C942 1.405 . S
C943 C944 1.367 . S
C944 H918 0.950 . S
C944 C939 1.386 . S
C944 C943 1.367 . S
C945 C939 1.483 . S
C945 C946 1.382 . S
C945 C947 1.403 . S
C946 H919 0.950 . S
C946 C932 1.411 . S
C946 C945 1.382 . S
C947 C931 1.411 . S
C947 C945 1.403 . S
C947 C948 1.489 . S
C948 C947 1.489 . S
C948 C949 1.383 . S
C948 C953 1.382 . S
C949 H920 0.950 . S
C949 C948 1.383 . S
C949 C950 1.395 . S
C950 H921 0.950 . S
C950 C949 1.395 . S
C950 C951 1.288 . S
C951 C950 1.288 . S
C951 C952 1.392 . S
C952 H922 0.951 . S
C952 C951 1.392 . S
C952 C953 1.392 . S
C953 H923 0.949 . S
C953 C948 1.382 . S
C953 C952 1.392 . S
H954 C973 0.949 . S
H955 C974 0.950 . S
H956 C976 0.950 . S
H957 C977 0.950 . S
H958 C979 0.950 . S
H959 C982 0.950 . S
H960 C983 0.950 . S
H961 C985 0.951 . S
H962 C986 0.949 . S
H963 C988 0.949 . S
H964 C989 0.950 . S
H965 C991 0.950 . S
H966 C992 0.950 . S
H967 C994 0.950 . S
H968 C997 0.950 . S
H969 C998 0.950 . S
H970 C1000 0.951 . S
H971 C1001 0.949 . S
C972 C973 1.376 . S
C972 C977 1.386 . S
C972 C978 1.483 . S
C973 H954 0.949 . S
C973 C972 1.376 . S
C973 C974 1.397 . S
C974 H955 0.950 . S
C974 C973 1.397 . S
C974 C975 1.391 . S
C975 C974 1.391 . S
C975 C976 1.405 . S
C976 H956 0.950 . S
C976 C975 1.405 . S
C976 C977 1.367 . S
C977 H957 0.950 . S
C977 C972 1.386 . S
C977 C976 1.367 . S
C978 C972 1.483 . S
C978 C979 1.382 . S
C978 C980 1.403 . S
C979 H958 0.950 . S
C979 C978 1.382 . S
C979 C995 1.411 . S
C980 C978 1.403 . S
C980 C981 1.489 . S
C980 C994 1.411 . S
C981 C980 1.489 . S
C981 C982 1.383 . S
C981 C986 1.382 . S
C982 H959 0.950 . S
C982 C981 1.383 . S
C982 C983 1.395 . S
C983 H960 0.950 . S
C983 C982 1.395 . S
C983 C984 1.288 . S
C984 C983 1.288 . S
C984 C985 1.392 . S
C985 H961 0.951 . S
C985 C984 1.392 . S
C985 C986 1.392 . S
C986 H962 0.949 . S
C986 C981 1.382 . S
C986 C985 1.392 . S
C987 C988 1.376 . S
C987 C992 1.386 . S
C987 C993 1.483 . S
C988 H963 0.949 . S
C988 C987 1.376 . S
C988 C989 1.397 . S
C989 H964 0.950 . S
C989 C988 1.397 . S
C989 C990 1.391 . S
C990 C989 1.391 . S
C990 C991 1.405 . S
C991 H965 0.950 . S
C991 C990 1.405 . S
C991 C992 1.367 . S
C992 H966 0.950 . S
C992 C987 1.386 . S
C992 C991 1.367 . S
C993 C987 1.483 . S
C993 C994 1.382 . S
C993 C995 1.403 . S
C994 H967 0.950 . S
C994 C980 1.411 . S
C994 C993 1.382 . S
C995 C979 1.411 . S
C995 C993 1.403 . S
C995 C996 1.489 . S
C996 C995 1.489 . S
C996 C997 1.383 . S
C996 C1001 1.382 . S
C997 H968 0.950 . S
C997 C996 1.383 . S
C997 C998 1.395 . S
C998 H969 0.950 . S
C998 C997 1.395 . S
C998 C999 1.288 . S
C999 C998 1.288 . S
C999 C1000 1.392 . S
C1000 H970 0.951 . S
C1000 C999 1.392 . S
C1000 C1001 1.392 . S
C1001 H971 0.949 . S
C1001 C996 1.382 . S
C1001 C1000 1.392 . S
H1002 C1021 0.949 . S
H1003 C1022 0.950 . S
H1004 C1024 0.950 . S
H1005 C1025 0.950 . S
H1006 C1027 0.950 . S
H1007 C1030 0.950 . S
H1008 C1031 0.950 . S
H1009 C1033 0.951 . S
H1010 C1034 0.949 . S
H1011 C1036 0.949 . S
H1012 C1037 0.950 . S
H1013 C1039 0.950 . S
H1014 C1040 0.950 . S
H1015 C1042 0.950 . S
H1016 C1045 0.950 . S
H1017 C1046 0.950 . S
H1018 C1048 0.951 . S
H1019 C1049 0.949 . S
C1020 C1021 1.376 . S
C1020 C1025 1.386 . S
C1020 C1026 1.483 . S
C1021 H1002 0.949 . S
C1021 C1020 1.376 . S
C1021 C1022 1.397 . S
C1022 H1003 0.950 . S
C1022 C1021 1.397 . S
C1022 C1023 1.391 . S
C1023 C1022 1.391 . S
C1023 C1024 1.405 . S
C1024 H1004 0.950 . S
C1024 C1023 1.405 . S
C1024 C1025 1.367 . S
C1025 H1005 0.950 . S
C1025 C1020 1.386 . S
C1025 C1024 1.367 . S
C1026 C1020 1.483 . S
C1026 C1027 1.382 . S
C1026 C1028 1.403 . S
C1027 H1006 0.950 . S
C1027 C1026 1.382 . S
C1027 C1043 1.411 . S
C1028 C1026 1.403 . S
C1028 C1029 1.489 . S
C1028 C1042 1.411 . S
C1029 C1028 1.489 . S
C1029 C1030 1.383 . S
C1029 C1034 1.382 . S
C1030 H1007 0.950 . S
C1030 C1029 1.383 . S
C1030 C1031 1.395 . S
C1031 H1008 0.950 . S
C1031 C1030 1.395 . S
C1031 C1032 1.288 . S
C1032 C1031 1.288 . S
C1032 C1033 1.392 . S
C1033 H1009 0.951 . S
C1033 C1032 1.392 . S
C1033 C1034 1.392 . S
C1034 H1010 0.949 . S
C1034 C1029 1.382 . S
C1034 C1033 1.392 . S
C1035 C1036 1.376 . S
C1035 C1040 1.386 . S
C1035 C1041 1.483 . S
C1036 H1011 0.949 . S
C1036 C1035 1.376 . S
C1036 C1037 1.397 . S
C1037 H1012 0.950 . S
C1037 C1036 1.397 . S
C1037 C1038 1.391 . S
C1038 C1037 1.391 . S
C1038 C1039 1.405 . S
C1039 H1013 0.950 . S
C1039 C1038 1.405 . S
C1039 C1040 1.367 . S
C1040 H1014 0.950 . S
C1040 C1035 1.386 . S
C1040 C1039 1.367 . S
C1041 C1035 1.483 . S
C1041 C1042 1.382 . S
C1041 C1043 1.403 . S
C1042 H1015 0.950 . S
C1042 C1028 1.411 . S
C1042 C1041 1.382 . S
C1043 C1027 1.411 . S
C1043 C1041 1.403 . S
C1043 C1044 1.489 . S
C1044 C1043 1.489 . S
C1044 C1045 1.383 . S
C1044 C1049 1.382 . S
C1045 H1016 0.950 . S
C1045 C1044 1.383 . S
C1045 C1046 1.395 . S
C1046 H1017 0.950 . S
C1046 C1045 1.395 . S
C1046 C1047 1.288 . S
C1047 C1046 1.288 . S
C1047 C1048 1.392 . S
C1048 H1018 0.951 . S
C1048 C1047 1.392 . S
C1048 C1049 1.392 . S
C1049 H1019 0.949 . S
C1049 C1044 1.382 . S
C1049 C1048 1.392 . S
H1050 C1069 0.949 . S
H1051 C1070 0.950 . S
H1052 C1072 0.950 . S
H1053 C1073 0.950 . S
H1054 C1075 0.950 . S
H1055 C1078 0.950 . S
H1056 C1079 0.950 . S
H1057 C1081 0.951 . S
H1058 C1082 0.949 . S
H1059 C1084 0.949 . S
H1060 C1085 0.950 . S
H1061 C1087 0.950 . S
H1062 C1088 0.950 . S
H1063 C1090 0.950 . S
H1064 C1093 0.950 . S
H1065 C1094 0.950 . S
H1066 C1096 0.951 . S
H1067 C1097 0.949 . S
C1068 C1069 1.376 . S
C1068 C1073 1.386 . S
C1068 C1074 1.483 . S
C1069 H1050 0.949 . S
C1069 C1068 1.376 . S
C1069 C1070 1.397 . S
C1070 H1051 0.950 . S
C1070 C1069 1.397 . S
C1070 C1071 1.391 . S
C1071 C1070 1.391 . S
C1071 C1072 1.405 . S
C1072 H1052 0.950 . S
C1072 C1071 1.405 . S
C1072 C1073 1.367 . S
C1073 H1053 0.950 . S
C1073 C1068 1.386 . S
C1073 C1072 1.367 . S
C1074 C1068 1.483 . S
C1074 C1075 1.382 . S
C1074 C1076 1.403 . S
C1075 H1054 0.950 . S
C1075 C1074 1.382 . S
C1075 C1091 1.411 . S
C1076 C1074 1.403 . S
C1076 C1077 1.489 . S
C1076 C1090 1.411 . S
C1077 C1076 1.489 . S
C1077 C1078 1.383 . S
C1077 C1082 1.382 . S
C1078 H1055 0.950 . S
C1078 C1077 1.383 . S
C1078 C1079 1.395 . S
C1079 H1056 0.950 . S
C1079 C1078 1.395 . S
C1079 C1080 1.288 . S
C1080 C1079 1.288 . S
C1080 C1081 1.392 . S
C1081 H1057 0.951 . S
C1081 C1080 1.392 . S
C1081 C1082 1.392 . S
C1082 H1058 0.949 . S
C1082 C1077 1.382 . S
C1082 C1081 1.392 . S
C1083 C1084 1.376 . S
C1083 C1088 1.386 . S
C1083 C1089 1.483 . S
C1084 H1059 0.949 . S
C1084 C1083 1.376 . S
C1084 C1085 1.397 . S
C1085 H1060 0.950 . S
C1085 C1084 1.397 . S
C1085 C1086 1.391 . S
C1086 C1085 1.391 . S
C1086 C1087 1.405 . S
C1087 H1061 0.950 . S
C1087 C1086 1.405 . S
C1087 C1088 1.367 . S
C1088 H1062 0.950 . S
C1088 C1083 1.386 . S
C1088 C1087 1.367 . S
C1089 C1083 1.483 . S
C1089 C1090 1.382 . S
C1089 C1091 1.403 . S
C1090 H1063 0.950 . S
C1090 C1076 1.411 . S
C1090 C1089 1.382 . S
C1091 C1075 1.411 . S
C1091 C1089 1.403 . S
C1091 C1092 1.489 . S
C1092 C1091 1.489 . S
C1092 C1093 1.383 . S
C1092 C1097 1.382 . S
C1093 H1064 0.950 . S
C1093 C1092 1.383 . S
C1093 C1094 1.395 . S
C1094 H1065 0.950 . S
C1094 C1093 1.395 . S
C1094 C1095 1.288 . S
C1095 C1094 1.288 . S
C1095 C1096 1.392 . S
C1096 H1066 0.951 . S
C1096 C1095 1.392 . S
C1096 C1097 1.392 . S
C1097 H1067 0.949 . S
C1097 C1092 1.382 . S
C1097 C1096 1.392 . S
H1098 C1104 0.930 . S
H1099 C1107 0.930 . S
H1100 C1108 0.930 . S
H1101 C1109 0.930 . S
H1102 C1112 0.930 . S
H1103 C1113 0.930 . S
C1104 H1098 0.930 . S
C1104 C1105 1.355 1_455 S
C1104 C1106 1.415 . S
C1105 C1104 1.355 1_655 S
C1105 C1107 1.419 . S
C1106 C1104 1.415 . S
C1106 C1111 1.425 1_455 S
C1106 C1113 1.409 . S
C1107 H1099 0.930 . S
C1107 C1105 1.419 . S
C1107 C1108 1.362 . S
C1108 H1100 0.930 . S
C1108 C1107 1.362 . S
C1108 C1111 1.409 . S
C1109 H1101 0.930 . S
C1109 C1110 1.355 . S
C1109 C1111 1.415 . S
C1110 C1109 1.355 . S
C1110 C1112 1.419 1_655 S
C1111 C1106 1.425 1_655 S
C1111 C1108 1.409 . S
C1111 C1109 1.415 . S
C1112 H1102 0.930 . S
C1112 C1110 1.419 1_455 S
C1112 C1113 1.362 . S
C1113 H1103 0.930 . S
C1113 C1106 1.409 . S
C1113 C1112 1.362 . S
H1114 C1120 0.930 . S
H1115 C1123 0.930 . S
H1116 C1124 0.930 . S
H1117 C1125 0.930 . S
H1118 C1128 0.930 . S
H1119 C1129 0.930 . S
C1120 H1114 0.930 . S
C1120 C1121 1.355 . S
C1120 C1122 1.415 . S
C1121 C1120 1.355 . S
C1121 C1123 1.419 . S
C1122 C1120 1.415 . S
C1122 C1127 1.425 . S
C1122 C1129 1.409 . S
C1123 H1115 0.930 . S
C1123 C1121 1.419 . S
C1123 C1124 1.362 . S
C1124 H1116 0.930 . S
C1124 C1123 1.362 . S
C1124 C1127 1.409 . S
C1125 H1117 0.930 . S
C1125 C1126 1.355 . S
C1125 C1127 1.415 . S
C1126 C1125 1.355 . S
C1126 C1128 1.419 . S
C1127 C1122 1.425 . S
C1127 C1124 1.409 . S
C1127 C1125 1.415 . S
C1128 H1118 0.930 . S
C1128 C1126 1.419 . S
C1128 C1129 1.362 . S
C1129 H1119 0.930 . S
C1129 C1122 1.409 . S
C1129 C1128 1.362 . S
H1130 C1136 0.930 . S
H1131 C1139 0.930 . S
H1132 C1140 0.930 . S
H1133 C1141 0.930 . S
H1134 C1144 0.912 1_565 S
H1135 C1145 0.930 1_565 S
C1136 H1130 0.930 . S
C1136 C1137 1.355 . S
C1136 C1138 1.415 . S
C1137 C1136 1.355 . S
C1137 C1139 1.419 . S
C1138 C1136 1.415 . S
C1138 C1143 1.425 . S
C1138 C1145 1.409 . S
C1139 H1131 0.930 . S
C1139 C1137 1.419 . S
C1139 C1140 1.362 . S
C1140 H1132 0.930 . S
C1140 C1139 1.362 . S
C1140 C1143 1.409 . S
C1141 H1133 0.930 . S
C1141 C1142 1.355 . S
C1141 C1143 1.415 . S
C1142 C1141 1.355 . S
C1142 C1144 1.427 . S
C1143 C1138 1.425 . S
C1143 C1140 1.409 . S
C1143 C1141 1.415 . S
C1144 H1134 0.912 1_545 S
C1144 C1142 1.427 . S
C1144 C1145 1.372 . S
C1145 H1135 0.930 1_545 S
C1145 C1138 1.409 . S
C1145 C1144 1.372 . S
H1146 C1152 0.930 . S
H1147 C1155 0.930 . S
H1148 C1156 0.930 . S
H1149 C1157 0.909 1_545 S
H1150 C1160 0.930 . S
H1151 C1161 0.930 . S
C1152 H1146 0.930 . S
C1152 C1153 1.355 . S
C1152 C1154 1.415 . S
C1153 C1152 1.355 . S
C1153 C1155 1.419 1_565 S
C1154 C1152 1.415 . S
C1154 C1159 1.425 . S
C1154 C1161 1.409 . S
C1155 H1147 0.930 . S
C1155 C1153 1.419 1_545 S
C1155 C1156 1.362 . S
C1156 H1148 0.930 . S
C1156 C1155 1.362 . S
C1156 C1159 1.409 1_545 S
C1157 H1149 0.909 1_565 S
C1157 C1158 1.397 . S
C1157 C1159 1.397 . S
C1158 C1157 1.397 . S
C1158 C1160 1.419 . S
C1159 C1154 1.425 . S
C1159 C1156 1.409 1_565 S
C1159 C1157 1.397 . S
C1160 H1150 0.930 . S
C1160 C1158 1.419 . S
C1160 C1161 1.362 . S
C1161 H1151 0.930 . S
C1161 C1154 1.409 . S
C1161 C1160 1.362 . S
H1162 C1168 0.930 . S
H1163 C1171 0.930 . S
H1164 C1172 0.930 . S
H1165 C1173 0.930 . S
H1166 C1176 0.930 . S
H1167 C1177 0.930 . S
C1168 H1162 0.930 . S
C1168 C1169 1.355 . S
C1168 C1170 1.415 . S
C1169 C1168 1.355 . S
C1169 C1171 1.419 1_455 S
C1170 C1168 1.415 . S
C1170 C1175 1.425 1_455 S
C1170 C1177 1.409 . S
C1171 H1163 0.930 . S
C1171 C1169 1.419 1_655 S
C1171 C1172 1.362 . S
C1172 H1164 0.930 . S
C1172 C1171 1.362 . S
C1172 C1175 1.409 . S
C1173 H1165 0.930 . S
C1173 C1174 1.355 1_655 S
C1173 C1175 1.415 . S
C1174 C1173 1.355 1_455 S
C1174 C1176 1.419 . S
C1175 C1170 1.425 1_655 S
C1175 C1172 1.409 . S
C1175 C1173 1.415 . S
C1176 H1166 0.930 . S
C1176 C1174 1.419 . S
C1176 C1177 1.362 . S
C1177 H1167 0.930 . S
C1177 C1170 1.409 . S
C1177 C1176 1.362 . S
H1178 C1184 0.930 . S
H1179 C1187 0.930 . S
H1180 C1188 0.930 . S
H1181 C1189 0.930 . S
H1182 C1192 0.930 . S
H1183 C1193 0.930 . S
C1184 H1178 0.930 . S
C1184 C1185 1.355 . S
C1184 C1186 1.415 . S
C1185 C1184 1.355 . S
C1185 C1187 1.419 . S
C1186 C1184 1.415 . S
C1186 C1191 1.425 . S
C1186 C1193 1.409 . S
C1187 H1179 0.930 . S
C1187 C1185 1.419 . S
C1187 C1188 1.362 . S
C1188 H1180 0.930 . S
C1188 C1187 1.362 . S
C1188 C1191 1.409 . S
C1189 H1181 0.930 . S
C1189 C1190 1.355 . S
C1189 C1191 1.415 . S
C1190 C1189 1.355 . S
C1190 C1192 1.419 . S
C1191 C1186 1.425 . S
C1191 C1188 1.409 . S
C1191 C1189 1.415 . S
C1192 H1182 0.930 . S
C1192 C1190 1.419 . S
C1192 C1193 1.362 . S
C1193 H1183 0.930 . S
C1193 C1186 1.409 . S
C1193 C1192 1.362 . S
H1194 C1200 0.930 . S
H1195 C1203 0.930 . S
H1196 C1204 0.930 . S
H1197 C1205 0.930 . S
H1198 C1208 0.930 . S
H1199 C1209 0.930 . S
C1200 H1194 0.930 . S
C1200 C1201 1.355 1_655 S
C1200 C1202 1.415 . S
C1201 C1200 1.355 1_455 S
C1201 C1203 1.419 . S
C1202 C1200 1.415 . S
C1202 C1207 1.425 1_655 S
C1202 C1209 1.409 . S
C1203 H1195 0.930 . S
C1203 C1201 1.419 . S
C1203 C1204 1.362 . S
C1204 H1196 0.930 . S
C1204 C1203 1.362 . S
C1204 C1207 1.409 . S
C1205 H1197 0.930 . S
C1205 C1206 1.355 . S
C1205 C1207 1.415 . S
C1206 C1205 1.355 . S
C1206 C1208 1.419 1_455 S
C1207 C1202 1.425 1_455 S
C1207 C1204 1.409 . S
C1207 C1205 1.415 . S
C1208 H1198 0.930 . S
C1208 C1206 1.419 1_655 S
C1208 C1209 1.362 . S
C1209 H1199 0.930 . S
C1209 C1202 1.409 . S
C1209 C1208 1.362 . S
H1210 C1216 0.930 . S
H1211 C1219 0.930 . S
H1212 C1220 0.930 . S
H1213 C1221 0.930 . S
H1214 C1224 0.930 . S
H1215 C1225 0.930 . S
C1216 H1210 0.930 . S
C1216 C1217 1.355 . S
C1216 C1218 1.415 . S
C1217 C1216 1.355 . S
C1217 C1219 1.419 . S
C1218 C1216 1.415 . S
C1218 C1223 1.425 . S
C1218 C1225 1.409 . S
C1219 H1211 0.930 . S
C1219 C1217 1.419 . S
C1219 C1220 1.362 . S
C1220 H1212 0.930 . S
C1220 C1219 1.362 . S
C1220 C1223 1.409 . S
C1221 H1213 0.930 . S
C1221 C1222 1.355 . S
C1221 C1223 1.415 . S
C1222 C1221 1.355 . S
C1222 C1224 1.419 . S
C1223 C1218 1.425 . S
C1223 C1220 1.409 . S
C1223 C1221 1.415 . S
C1224 H1214 0.930 . S
C1224 C1222 1.419 . S
C1224 C1225 1.362 . S
C1225 H1215 0.930 . S
C1225 C1218 1.409 . S
C1225 C1224 1.362 . S
H1226 C1232 0.930 . S
H1227 C1235 0.930 . S
H1228 C1236 0.930 . S
H1229 C1237 0.930 . S
H1230 C1240 0.930 . S
H1231 C1241 0.930 . S
C1232 H1226 0.930 . S
C1232 C1233 1.355 . S
C1232 C1234 1.415 . S
C1233 C1232 1.355 . S
C1233 C1235 1.419 . S
C1234 C1232 1.415 . S
C1234 C1239 1.425 . S
C1234 C1241 1.409 1_565 S
C1235 H1227 0.930 . S
C1235 C1233 1.419 . S
C1235 C1236 1.362 . S
C1236 H1228 0.930 . S
C1236 C1235 1.362 . S
C1236 C1239 1.409 . S
C1237 H1229 0.930 . S
C1237 C1238 1.355 . S
C1237 C1239 1.415 . S
C1238 C1237 1.355 . S
C1238 C1240 1.419 1_565 S
C1239 C1234 1.425 . S
C1239 C1236 1.409 . S
C1239 C1237 1.415 . S
C1240 H1230 0.930 . S
C1240 C1238 1.419 1_545 S
C1240 C1241 1.362 . S
C1241 H1231 0.930 . S
C1241 C1234 1.409 1_545 S
C1241 C1240 1.362 . S
H1242 C1248 0.930 1_565 S
H1243 C1251 0.930 . S
H1244 C1252 0.930 . S
H1245 C1253 0.930 . S
H1246 C1256 0.930 . S
H1247 C1257 0.930 . S
C1248 H1242 0.930 1_545 S
C1248 C1249 1.355 . S
C1248 C1250 1.415 . S
C1249 C1248 1.355 . S
C1249 C1251 1.419 . S
C1250 C1248 1.415 . S
C1250 C1255 1.425 . S
C1250 C1257 1.409 1_545 S
C1251 H1243 0.930 . S
C1251 C1249 1.419 . S
C1251 C1252 1.362 . S
C1252 H1244 0.930 . S
C1252 C1251 1.362 . S
C1252 C1255 1.409 . S
C1253 H1245 0.930 . S
C1253 C1254 1.355 . S
C1253 C1255 1.415 . S
C1254 C1253 1.355 . S
C1254 C1256 1.419 1_545 S
C1255 C1250 1.425 . S
C1255 C1252 1.409 . S
C1255 C1253 1.415 . S
C1256 H1246 0.930 . S
C1256 C1254 1.419 1_565 S
C1256 C1257 1.362 . S
C1257 H1247 0.930 . S
C1257 C1250 1.409 1_565 S
C1257 C1256 1.362 . S
H1258 C1264 0.930 . S
H1259 C1267 0.930 . S
H1260 C1268 0.930 . S
H1261 C1269 0.930 . S
H1262 C1272 0.930 . S
H1263 C1273 0.930 . S
C1264 H1258 0.930 . S
C1264 C1265 1.355 . S
C1264 C1266 1.415 . S
C1265 C1264 1.355 . S
C1265 C1267 1.419 1_655 S
C1266 C1264 1.415 . S
C1266 C1271 1.425 1_655 S
C1266 C1273 1.409 . S
C1267 H1259 0.930 . S
C1267 C1265 1.419 1_455 S
C1267 C1268 1.362 . S
C1268 H1260 0.930 . S
C1268 C1267 1.362 . S
C1268 C1271 1.409 . S
C1269 H1261 0.930 . S
C1269 C1270 1.355 1_455 S
C1269 C1271 1.415 . S
C1270 C1269 1.355 1_655 S
C1270 C1272 1.419 . S
C1271 C1266 1.425 1_455 S
C1271 C1268 1.409 . S
C1271 C1269 1.415 . S
C1272 H1262 0.930 . S
C1272 C1270 1.419 . S
C1272 C1273 1.362 . S
C1273 H1263 0.930 . S
C1273 C1266 1.409 . S
C1273 C1272 1.362 . S
H1274 C1280 0.930 . S
H1275 C1283 0.930 . S
H1276 C1284 0.930 . S
H1277 C1285 0.930 . S
H1278 C1288 0.930 . S
H1279 C1289 0.930 . S
C1280 H1274 0.930 . S
C1280 C1281 1.355 . S
C1280 C1282 1.415 . S
C1281 C1280 1.355 . S
C1281 C1283 1.419 . S
C1282 C1280 1.415 . S
C1282 C1287 1.425 . S
C1282 C1289 1.409 . S
C1283 H1275 0.930 . S
C1283 C1281 1.419 . S
C1283 C1284 1.362 . S
C1284 H1276 0.930 . S
C1284 C1283 1.362 . S
C1284 C1287 1.409 . S
C1285 H1277 0.930 . S
C1285 C1286 1.355 . S
C1285 C1287 1.415 . S
C1286 C1285 1.355 . S
C1286 C1288 1.419 . S
C1287 C1282 1.425 . S
C1287 C1284 1.409 . S
C1287 C1285 1.415 . S
C1288 H1278 0.930 . S
C1288 C1286 1.419 . S
C1288 C1289 1.362 . S
C1289 H1279 0.930 . S
C1289 C1282 1.409 . S
C1289 C1288 1.362 . S
H1290 C1296 0.930 . S
H1291 C1299 0.930 . S
H1292 C1300 0.930 . S
H1293 C1301 0.930 . S
H1294 C1304 0.930 . S
H1295 C1305 0.930 . S
C1296 H1290 0.930 . S
C1296 C1297 1.355 . S
C1296 C1298 1.415 . S
C1297 C1296 1.355 . S
C1297 C1299 1.419 . S
C1298 C1296 1.415 . S
C1298 C1303 1.425 . S
C1298 C1305 1.409 . S
C1299 H1291 0.930 . S
C1299 C1297 1.419 . S
C1299 C1300 1.362 . S
C1300 H1292 0.930 . S
C1300 C1299 1.362 . S
C1300 C1303 1.409 . S
C1301 H1293 0.930 . S
C1301 C1302 1.355 . S
C1301 C1303 1.415 . S
C1302 C1301 1.355 . S
C1302 C1304 1.419 . S
C1303 C1298 1.425 . S
C1303 C1300 1.409 . S
C1303 C1301 1.415 . S
C1304 H1294 0.930 . S
C1304 C1302 1.419 . S
C1304 C1305 1.362 . S
C1305 H1295 0.930 . S
C1305 C1298 1.409 . S
C1305 C1304 1.362 . S
H1306 C1312 0.930 . S
H1307 C1315 0.930 . S
H1308 C1316 0.930 . S
H1309 C1317 0.930 . S
H1310 C1320 0.930 . S
H1311 C1321 0.930 . S
C1312 H1306 0.930 . S
C1312 C1313 1.355 . S
C1312 C1314 1.415 . S
C1313 C1312 1.355 . S
C1313 C1315 1.419 . S
C1314 C1312 1.415 . S
C1314 C1319 1.425 . S
C1314 C1321 1.409 . S
C1315 H1307 0.930 . S
C1315 C1313 1.419 . S
C1315 C1316 1.362 . S
C1316 H1308 0.930 . S
C1316 C1315 1.362 . S
C1316 C1319 1.409 . S
C1317 H1309 0.930 . S
C1317 C1318 1.355 . S
C1317 C1319 1.415 . S
C1318 C1317 1.355 . S
C1318 C1320 1.419 . S
C1319 C1314 1.425 . S
C1319 C1316 1.409 . S
C1319 C1317 1.415 . S
C1320 H1310 0.930 . S
C1320 C1318 1.419 . S
C1320 C1321 1.362 . S
C1321 H1311 0.930 . S
C1321 C1314 1.409 . S
C1321 C1320 1.362 . S
H1322 C1328 0.930 . S
H1323 C1331 0.930 . S
H1324 C1332 0.930 . S
H1325 C1333 0.930 . S
H1326 C1336 0.930 . S
H1327 C1337 0.930 . S
C1328 H1322 0.930 . S
C1328 C1329 1.355 . S
C1328 C1330 1.415 . S
C1329 C1328 1.355 . S
C1329 C1331 1.419 . S
C1330 C1328 1.415 . S
C1330 C1335 1.425 . S
C1330 C1337 1.409 . S
C1331 H1323 0.930 . S
C1331 C1329 1.419 . S
C1331 C1332 1.362 . S
C1332 H1324 0.930 . S
C1332 C1331 1.362 . S
C1332 C1335 1.409 . S
C1333 H1325 0.930 . S
C1333 C1334 1.355 . S
C1333 C1335 1.415 . S
C1334 C1333 1.355 . S
C1334 C1336 1.419 . S
C1335 C1330 1.425 . S
C1335 C1332 1.409 . S
C1335 C1333 1.415 . S
C1336 H1326 0.930 . S
C1336 C1334 1.419 . S
C1336 C1337 1.362 . S
C1337 H1327 0.930 . S
C1337 C1330 1.409 . S
C1337 C1336 1.362 . S
H1338 C1344 0.930 . S
H1339 C1347 0.930 . S
H1340 C1348 0.930 . S
H1341 C1349 0.930 . S
H1342 C1352 0.930 . S
H1343 C1353 0.930 . S
C1344 H1338 0.930 . S
C1344 C1345 1.355 . S
C1344 C1346 1.415 . S
C1345 C1344 1.355 . S
C1345 C1347 1.419 . S
C1346 C1344 1.415 . S
C1346 C1351 1.425 . S
C1346 C1353 1.409 . S
C1347 H1339 0.930 . S
C1347 C1345 1.419 . S
C1347 C1348 1.362 . S
C1348 H1340 0.930 . S
C1348 C1347 1.362 . S
C1348 C1351 1.409 . S
C1349 H1341 0.930 . S
C1349 C1350 1.355 . S
C1349 C1351 1.415 . S
C1350 C1349 1.355 . S
C1350 C1352 1.419 . S
C1351 C1346 1.425 . S
C1351 C1348 1.409 . S
C1351 C1349 1.415 . S
C1352 H1342 0.930 . S
C1352 C1350 1.419 . S
C1352 C1353 1.362 . S
C1353 H1343 0.930 . S
C1353 C1346 1.409 . S
C1353 C1352 1.362 . S
H1354 C1360 0.930 . S
H1355 C1363 0.930 . S
H1356 C1364 0.930 . S
H1357 C1365 0.930 . S
H1358 C1368 0.930 . S
H1359 C1369 0.930 . S
C1360 H1354 0.930 . S
C1360 C1361 1.355 . S
C1360 C1362 1.415 . S
C1361 C1360 1.355 . S
C1361 C1363 1.419 . S
C1362 C1360 1.415 . S
C1362 C1367 1.425 . S
C1362 C1369 1.409 . S
C1363 H1355 0.930 . S
C1363 C1361 1.419 . S
C1363 C1364 1.362 . S
C1364 H1356 0.930 . S
C1364 C1363 1.362 . S
C1364 C1367 1.409 . S
C1365 H1357 0.930 . S
C1365 C1366 1.355 . S
C1365 C1367 1.415 . S
C1366 C1365 1.355 . S
C1366 C1368 1.419 . S
C1367 C1362 1.425 . S
C1367 C1364 1.409 . S
C1367 C1365 1.415 . S
C1368 H1358 0.930 . S
C1368 C1366 1.419 . S
C1368 C1369 1.362 . S
C1369 H1359 0.930 . S
C1369 C1362 1.409 . S
C1369 C1368 1.362 . S
H1370 C1376 0.930 . S
H1371 C1379 0.930 . S
H1372 C1380 0.930 . S
H1373 C1381 0.930 . S
H1374 C1384 0.930 . S
H1375 C1385 0.930 . S
C1376 H1370 0.930 . S
C1376 C1377 1.355 . S
C1376 C1378 1.415 . S
C1377 C1376 1.355 . S
C1377 C1379 1.419 . S
C1378 C1376 1.415 . S
C1378 C1383 1.425 . S
C1378 C1385 1.409 . S
C1379 H1371 0.930 . S
C1379 C1377 1.419 . S
C1379 C1380 1.362 . S
C1380 H1372 0.930 . S
C1380 C1379 1.362 . S
C1380 C1383 1.409 . S
C1381 H1373 0.930 . S
C1381 C1382 1.355 . S
C1381 C1383 1.415 . S
C1382 C1381 1.355 . S
C1382 C1384 1.419 . S
C1383 C1378 1.425 . S
C1383 C1380 1.409 . S
C1383 C1381 1.415 . S
C1384 H1374 0.930 . S
C1384 C1382 1.419 . S
C1384 C1385 1.362 . S
C1385 H1375 0.930 . S
C1385 C1378 1.409 . S
C1385 C1384 1.362 . S
H1386 C1392 0.930 . S
H1387 C1395 0.930 . S
H1388 C1396 0.930 . S
H1389 C1397 0.930 . S
H1390 C1400 0.930 . S
H1391 C1401 0.930 . S
C1392 H1386 0.930 . S
C1392 C1393 1.355 . S
C1392 C1394 1.415 . S
C1393 C1392 1.355 . S
C1393 C1395 1.419 . S
C1394 C1392 1.415 . S
C1394 C1399 1.425 . S
C1394 C1401 1.409 . S
C1395 H1387 0.930 . S
C1395 C1393 1.419 . S
C1395 C1396 1.362 . S
C1396 H1388 0.930 . S
C1396 C1395 1.362 . S
C1396 C1399 1.409 . S
C1397 H1389 0.930 . S
C1397 C1398 1.355 . S
C1397 C1399 1.415 . S
C1398 C1397 1.355 . S
C1398 C1400 1.419 . S
C1399 C1394 1.425 . S
C1399 C1396 1.409 . S
C1399 C1397 1.415 . S
C1400 H1390 0.930 . S
C1400 C1398 1.419 . S
C1400 C1401 1.362 . S
C1401 H1391 0.930 . S
C1401 C1394 1.409 . S
C1401 C1400 1.362 . S
H1402 C1408 0.930 . S
H1403 C1411 0.930 . S
H1404 C1412 0.930 . S
H1405 C1413 0.930 . S
H1406 C1416 0.930 . S
H1407 C1417 0.930 . S
C1408 H1402 0.930 . S
C1408 C1409 1.355 . S
C1408 C1410 1.415 . S
C1409 C1408 1.355 . S
C1409 C1411 1.419 . S
C1410 C1408 1.415 . S
C1410 C1415 1.425 . S
C1410 C1417 1.409 . S
C1411 H1403 0.930 . S
C1411 C1409 1.419 . S
C1411 C1412 1.362 . S
C1412 H1404 0.930 . S
C1412 C1411 1.362 . S
C1412 C1415 1.409 . S
C1413 H1405 0.930 . S
C1413 C1414 1.355 . S
C1413 C1415 1.415 . S
C1414 C1413 1.355 . S
C1414 C1416 1.419 . S
C1415 C1410 1.425 . S
C1415 C1412 1.409 . S
C1415 C1413 1.415 . S
C1416 H1406 0.930 . S
C1416 C1414 1.419 . S
C1416 C1417 1.362 . S
C1417 H1407 0.930 . S
C1417 C1410 1.409 . S
C1417 C1416 1.362 . S
H1418 C1424 0.930 . S
H1419 C1427 0.930 . S
H1420 C1428 0.930 . S
H1421 C1429 0.930 . S
H1422 C1432 0.930 . S
H1423 C1433 0.930 . S
C1424 H1418 0.930 . S
C1424 C1425 1.355 . S
C1424 C1426 1.415 . S
C1425 C1424 1.355 . S
C1425 C1427 1.419 . S
C1426 C1424 1.415 . S
C1426 C1431 1.425 . S
C1426 C1433 1.409 . S
C1427 H1419 0.930 . S
C1427 C1425 1.419 . S
C1427 C1428 1.362 . S
C1428 H1420 0.930 . S
C1428 C1427 1.362 . S
C1428 C1431 1.409 . S
C1429 H1421 0.930 . S
C1429 C1430 1.355 . S
C1429 C1431 1.415 . S
C1430 C1429 1.355 . S
C1430 C1432 1.419 . S
C1431 C1426 1.425 . S
C1431 C1428 1.409 . S
C1431 C1429 1.415 . S
C1432 H1422 0.930 . S
C1432 C1430 1.419 . S
C1432 C1433 1.362 . S
C1433 H1423 0.930 . S
C1433 C1426 1.409 . S
C1433 C1432 1.362 . S
H1434 C1440 0.930 . S
H1435 C1443 0.930 . S
H1436 C1444 0.930 . S
H1437 C1445 0.930 . S
H1438 C1448 0.930 . S
H1439 C1449 0.930 . S
C1440 H1434 0.930 . S
C1440 C1441 1.355 . S
C1440 C1442 1.415 . S
C1441 C1440 1.355 . S
C1441 C1443 1.419 . S
C1442 C1440 1.415 . S
C1442 C1447 1.425 . S
C1442 C1449 1.409 . S
C1443 H1435 0.930 . S
C1443 C1441 1.419 . S
C1443 C1444 1.362 . S
C1444 H1436 0.930 . S
C1444 C1443 1.362 . S
C1444 C1447 1.409 . S
C1445 H1437 0.930 . S
C1445 C1446 1.355 . S
C1445 C1447 1.415 . S
C1446 C1445 1.355 . S
C1446 C1448 1.419 . S
C1447 C1442 1.425 . S
C1447 C1444 1.409 . S
C1447 C1445 1.415 . S
C1448 H1438 0.930 . S
C1448 C1446 1.419 . S
C1448 C1449 1.362 . S
C1449 H1439 0.930 . S
C1449 C1442 1.409 . S
C1449 C1448 1.362 . S
H1450 C1456 0.930 . S
H1451 C1459 0.930 . S
H1452 C1460 0.930 . S
H1453 C1461 0.930 . S
H1454 C1464 0.930 . S
H1455 C1465 0.930 . S
C1456 H1450 0.930 . S
C1456 C1457 1.355 . S
C1456 C1458 1.415 . S
C1457 C1456 1.355 . S
C1457 C1459 1.419 . S
C1458 C1456 1.415 . S
C1458 C1463 1.425 . S
C1458 C1465 1.409 . S
C1459 H1451 0.930 . S
C1459 C1457 1.419 . S
C1459 C1460 1.362 . S
C1460 H1452 0.930 . S
C1460 C1459 1.362 . S
C1460 C1463 1.409 . S
C1461 H1453 0.930 . S
C1461 C1462 1.355 . S
C1461 C1463 1.415 . S
C1462 C1461 1.355 . S
C1462 C1464 1.419 . S
C1463 C1458 1.425 . S
C1463 C1460 1.409 . S
C1463 C1461 1.415 . S
C1464 H1454 0.930 . S
C1464 C1462 1.419 . S
C1464 C1465 1.362 . S
C1465 H1455 0.930 . S
C1465 C1458 1.409 . S
C1465 C1464 1.362 . S
H1466 C1472 0.930 . S
H1467 C1475 0.930 . S
H1468 C1476 0.930 . S
H1469 C1477 0.930 . S
H1470 C1480 0.930 . S
H1471 C1481 0.930 . S
C1472 H1466 0.930 . S
C1472 C1473 1.355 . S
C1472 C1474 1.415 . S
C1473 C1472 1.355 . S
C1473 C1475 1.419 . S
C1474 C1472 1.415 . S
C1474 C1479 1.425 . S
C1474 C1481 1.409 . S
C1475 H1467 0.930 . S
C1475 C1473 1.419 . S
C1475 C1476 1.362 . S
C1476 H1468 0.930 . S
C1476 C1475 1.362 . S
C1476 C1479 1.409 . S
C1477 H1469 0.930 . S
C1477 C1478 1.355 . S
C1477 C1479 1.415 . S
C1478 C1477 1.355 . S
C1478 C1480 1.419 . S
C1479 C1474 1.425 . S
C1479 C1476 1.409 . S
C1479 C1477 1.415 . S
C1480 H1470 0.930 . S
C1480 C1478 1.419 . S
C1480 C1481 1.362 . S
C1481 H1471 0.930 . S
C1481 C1474 1.409 . S
C1481 C1480 1.362 . S
H1482 C1488 0.930 . S
H1483 C1491 0.930 . S
H1484 C1492 0.930 . S
H1485 C1493 0.930 . S
H1486 C1496 0.930 . S
H1487 C1497 0.930 . S
C1488 H1482 0.930 . S
C1488 C1489 1.355 . S
C1488 C1490 1.415 . S
C1489 C1488 1.355 . S
C1489 C1491 1.419 . S
C1490 C1488 1.415 . S
C1490 C1495 1.425 . S
C1490 C1497 1.409 . S
C1491 H1483 0.930 . S
C1491 C1489 1.419 . S
C1491 C1492 1.362 . S
C1492 H1484 0.930 . S
C1492 C1491 1.362 . S
C1492 C1495 1.409 . S
C1493 H1485 0.930 . S
C1493 C1494 1.355 . S
C1493 C1495 1.415 . S
C1494 C1493 1.355 . S
C1494 C1496 1.419 . S
C1495 C1490 1.425 . S
C1495 C1492 1.409 . S
C1495 C1493 1.415 . S
C1496 H1486 0.930 . S
C1496 C1494 1.419 . S
C1496 C1497 1.362 . S
C1497 H1487 0.930 . S
C1497 C1490 1.409 . S
C1497 C1496 1.362 . S
H1498 C1504 0.930 . S
H1499 C1507 0.930 . S
H1500 C1508 0.930 . S
H1501 C1509 0.930 . S
H1502 C1512 0.930 . S
H1503 C1513 0.930 . S
C1504 H1498 0.930 . S
C1504 C1505 1.355 . S
C1504 C1506 1.415 . S
C1505 C1504 1.355 . S
C1505 C1507 1.419 . S
C1506 C1504 1.415 . S
C1506 C1511 1.425 . S
C1506 C1513 1.409 . S
C1507 H1499 0.930 . S
C1507 C1505 1.419 . S
C1507 C1508 1.362 . S
C1508 H1500 0.930 . S
C1508 C1507 1.362 . S
C1508 C1511 1.409 . S
C1509 H1501 0.930 . S
C1509 C1510 1.355 . S
C1509 C1511 1.415 . S
C1510 C1509 1.355 . S
C1510 C1512 1.419 . S
C1511 C1506 1.425 . S
C1511 C1508 1.409 . S
C1511 C1509 1.415 . S
C1512 H1502 0.930 . S
C1512 C1510 1.419 . S
C1512 C1513 1.362 . S
C1513 H1503 0.930 . S
C1513 C1506 1.409 . S
C1513 C1512 1.362 . S
H1514 C1520 0.930 . S
H1515 C1523 0.930 . S
H1516 C1524 0.930 . S
H1517 C1525 0.930 . S
H1518 C1528 0.930 . S
H1519 C1529 0.930 . S
C1520 H1514 0.930 . S
C1520 C1521 1.355 . S
C1520 C1522 1.415 . S
C1521 C1520 1.355 . S
C1521 C1523 1.419 . S
C1522 C1520 1.415 . S
C1522 C1527 1.425 . S
C1522 C1529 1.409 . S
C1523 H1515 0.930 . S
C1523 C1521 1.419 . S
C1523 C1524 1.362 . S
C1524 H1516 0.930 . S
C1524 C1523 1.362 . S
C1524 C1527 1.409 . S
C1525 H1517 0.930 . S
C1525 C1526 1.355 . S
C1525 C1527 1.415 . S
C1526 C1525 1.355 . S
C1526 C1528 1.419 . S
C1527 C1522 1.425 . S
C1527 C1524 1.409 . S
C1527 C1525 1.415 . S
C1528 H1518 0.930 . S
C1528 C1526 1.419 . S
C1528 C1529 1.362 . S
C1529 H1519 0.930 . S
C1529 C1522 1.409 . S
C1529 C1528 1.362 . S
H1530 C1536 0.930 . S
H1531 C1539 0.930 . S
H1532 C1540 0.930 . S
H1533 C1541 0.930 . S
H1534 C1544 0.930 . S
H1535 C1545 0.930 . S
C1536 H1530 0.930 . S
C1536 C1537 1.355 . S
C1536 C1538 1.415 . S
C1537 C1536 1.355 . S
C1537 C1539 1.419 . S
C1538 C1536 1.415 . S
C1538 C1543 1.425 . S
C1538 C1545 1.409 . S
C1539 H1531 0.930 . S
C1539 C1537 1.419 . S
C1539 C1540 1.362 . S
C1540 H1532 0.930 . S
C1540 C1539 1.362 . S
C1540 C1543 1.409 . S
C1541 H1533 0.930 . S
C1541 C1542 1.355 . S
C1541 C1543 1.415 . S
C1542 C1541 1.355 . S
C1542 C1544 1.419 . S
C1543 C1538 1.425 . S
C1543 C1540 1.409 . S
C1543 C1541 1.415 . S
C1544 H1534 0.930 . S
C1544 C1542 1.419 . S
C1544 C1545 1.362 . S
C1545 H1535 0.930 . S
C1545 C1538 1.409 . S
C1545 C1544 1.362 . S
H1546 C1552 0.930 . S
H1547 C1555 0.930 . S
H1548 C1556 0.930 . S
H1549 C1557 0.930 . S
H1550 C1560 0.930 . S
H1551 C1561 0.930 . S
C1552 H1546 0.930 . S
C1552 C1553 1.355 . S
C1552 C1554 1.415 . S
C1553 C1552 1.355 . S
C1553 C1555 1.419 . S
C1554 C1552 1.415 . S
C1554 C1559 1.425 . S
C1554 C1561 1.409 . S
C1555 H1547 0.930 . S
C1555 C1553 1.419 . S
C1555 C1556 1.362 . S
C1556 H1548 0.930 . S
C1556 C1555 1.362 . S
C1556 C1559 1.409 . S
C1557 H1549 0.930 . S
C1557 C1558 1.355 . S
C1557 C1559 1.415 . S
C1558 C1557 1.355 . S
C1558 C1560 1.419 . S
C1559 C1554 1.425 . S
C1559 C1556 1.409 . S
C1559 C1557 1.415 . S
C1560 H1550 0.930 . S
C1560 C1558 1.419 . S
C1560 C1561 1.362 . S
C1561 H1551 0.930 . S
C1561 C1554 1.409 . S
C1561 C1560 1.362 . S
H1562 C1568 0.930 . S
H1563 C1571 0.930 . S
H1564 C1572 0.930 . S
H1565 C1573 0.930 . S
H1566 C1576 0.930 . S
H1567 C1577 0.930 . S
C1568 H1562 0.930 . S
C1568 C1569 1.355 . S
C1568 C1570 1.415 . S
C1569 C1568 1.355 . S
C1569 C1571 1.419 . S
C1570 C1568 1.415 . S
C1570 C1575 1.425 . S
C1570 C1577 1.409 . S
C1571 H1563 0.930 . S
C1571 C1569 1.419 . S
C1571 C1572 1.362 . S
C1572 H1564 0.930 . S
C1572 C1571 1.362 . S
C1572 C1575 1.409 . S
C1573 H1565 0.930 . S
C1573 C1574 1.355 . S
C1573 C1575 1.415 . S
C1574 C1573 1.355 . S
C1574 C1576 1.419 . S
C1575 C1570 1.425 . S
C1575 C1572 1.409 . S
C1575 C1573 1.415 . S
C1576 H1566 0.930 . S
C1576 C1574 1.419 . S
C1576 C1577 1.362 . S
C1577 H1567 0.930 . S
C1577 C1570 1.409 . S
C1577 C1576 1.362 . S
H1578 C1584 0.930 . S
H1579 C1587 0.930 . S
H1580 C1588 0.930 . S
H1581 C1589 0.930 . S
H1582 C1592 0.930 . S
H1583 C1593 0.930 . S
C1584 H1578 0.930 . S
C1584 C1585 1.355 . S
C1584 C1586 1.415 . S
C1585 C1584 1.355 . S
C1585 C1587 1.419 . S
C1586 C1584 1.415 . S
C1586 C1591 1.425 . S
C1586 C1593 1.409 . S
C1587 H1579 0.930 . S
C1587 C1585 1.419 . S
C1587 C1588 1.362 . S
C1588 H1580 0.930 . S
C1588 C1587 1.362 . S
C1588 C1591 1.409 . S
C1589 H1581 0.930 . S
C1589 C1590 1.355 . S
C1589 C1591 1.415 . S
C1590 C1589 1.355 . S
C1590 C1592 1.419 . S
C1591 C1586 1.425 . S
C1591 C1588 1.409 . S
C1591 C1589 1.415 . S
C1592 H1582 0.930 . S
C1592 C1590 1.419 . S
C1592 C1593 1.362 . S
C1593 H1583 0.930 . S
C1593 C1586 1.409 . S
C1593 C1592 1.362 . S
H1594 C1600 0.930 . S
H1595 C1603 0.930 . S
H1596 C1604 0.930 . S
H1597 C1605 0.930 . S
H1598 C1608 0.930 . S
H1599 C1609 0.930 . S
C1600 H1594 0.930 . S
C1600 C1601 1.355 . S
C1600 C1602 1.415 . S
C1601 C1600 1.355 . S
C1601 C1603 1.419 . S
C1602 C1600 1.415 . S
C1602 C1607 1.425 . S
C1602 C1609 1.409 . S
C1603 H1595 0.930 . S
C1603 C1601 1.419 . S
C1603 C1604 1.362 . S
C1604 H1596 0.930 . S
C1604 C1603 1.362 . S
C1604 C1607 1.409 . S
C1605 H1597 0.930 . S
C1605 C1606 1.355 . S
C1605 C1607 1.415 . S
C1606 C1605 1.355 . S
C1606 C1608 1.419 . S
C1607 C1602 1.425 . S
C1607 C1604 1.409 . S
C1607 C1605 1.415 . S
C1608 H1598 0.930 . S
C1608 C1606 1.419 . S
C1608 C1609 1.362 . S
C1609 H1599 0.930 . S
C1609 C1602 1.409 . S
C1609 C1608 1.362 . S
H1610 C1616 0.930 . S
H1611 C1619 0.930 . S
H1612 C1620 0.930 . S
H1613 C1621 0.930 . S
H1614 C1624 0.930 . S
H1615 C1625 0.930 . S
C1616 H1610 0.930 . S
C1616 C1617 1.355 . S
C1616 C1618 1.415 . S
C1617 C1616 1.355 . S
C1617 C1619 1.419 . S
C1618 C1616 1.415 . S
C1618 C1623 1.425 . S
C1618 C1625 1.409 . S
C1619 H1611 0.930 . S
C1619 C1617 1.419 . S
C1619 C1620 1.362 . S
C1620 H1612 0.930 . S
C1620 C1619 1.362 . S
C1620 C1623 1.409 . S
C1621 H1613 0.930 . S
C1621 C1622 1.355 . S
C1621 C1623 1.415 . S
C1622 C1621 1.355 . S
C1622 C1624 1.419 . S
C1623 C1618 1.425 . S
C1623 C1620 1.409 . S
C1623 C1621 1.415 . S
C1624 H1614 0.930 . S
C1624 C1622 1.419 . S
C1624 C1625 1.362 . S
C1625 H1615 0.930 . S
C1625 C1618 1.409 . S
C1625 C1624 1.362 . S
H1626 C1632 0.930 . S
H1627 C1635 0.930 . S
H1628 C1636 0.930 . S
H1629 C1637 0.930 . S
H1630 C1640 0.930 . S
H1631 C1641 0.930 . S
C1632 H1626 0.930 . S
C1632 C1633 1.355 . S
C1632 C1634 1.415 . S
C1633 C1632 1.355 . S
C1633 C1635 1.419 . S
C1634 C1632 1.415 . S
C1634 C1639 1.425 . S
C1634 C1641 1.409 . S
C1635 H1627 0.930 . S
C1635 C1633 1.419 . S
C1635 C1636 1.362 . S
C1636 H1628 0.930 . S
C1636 C1635 1.362 . S
C1636 C1639 1.409 . S
C1637 H1629 0.930 . S
C1637 C1638 1.355 . S
C1637 C1639 1.415 . S
C1638 C1637 1.355 . S
C1638 C1640 1.419 . S
C1639 C1634 1.425 . S
C1639 C1636 1.409 . S
C1639 C1637 1.415 . S
C1640 H1630 0.930 . S
C1640 C1638 1.419 . S
C1640 C1641 1.362 . S
C1641 H1631 0.930 . S
C1641 C1634 1.409 . S
C1641 C1640 1.362 . S
H1642 C1648 0.930 . S
H1643 C1651 0.930 . S
H1644 C1652 0.930 . S
H1645 C1653 0.930 . S
H1646 C1656 0.930 . S
H1647 C1657 0.930 . S
C1648 H1642 0.930 . S
C1648 C1649 1.355 . S
C1648 C1650 1.415 . S
C1649 C1648 1.355 . S
C1649 C1651 1.419 . S
C1650 C1648 1.415 . S
C1650 C1655 1.425 . S
C1650 C1657 1.409 . S
C1651 H1643 0.930 . S
C1651 C1649 1.419 . S
C1651 C1652 1.362 . S
C1652 H1644 0.930 . S
C1652 C1651 1.362 . S
C1652 C1655 1.409 . S
C1653 H1645 0.930 . S
C1653 C1654 1.355 . S
C1653 C1655 1.415 . S
C1654 C1653 1.355 . S
C1654 C1656 1.419 . S
C1655 C1650 1.425 . S
C1655 C1652 1.409 . S
C1655 C1653 1.415 . S
C1656 H1646 0.930 . S
C1656 C1654 1.419 . S
C1656 C1657 1.362 . S
C1657 H1647 0.930 . S
C1657 C1650 1.409 . S
C1657 C1656 1.362 . S
H1658 C1664 0.930 . S
H1659 C1667 0.930 . S
H1660 C1668 0.930 . S
H1661 C1669 0.930 . S
H1662 C1672 0.930 . S
H1663 C1673 0.930 . S
C1664 H1658 0.930 . S
C1664 C1665 1.355 . S
C1664 C1666 1.415 . S
C1665 C1664 1.355 . S
C1665 C1667 1.419 . S
C1666 C1664 1.415 . S
C1666 C1671 1.425 . S
C1666 C1673 1.409 . S
C1667 H1659 0.930 . S
C1667 C1665 1.419 . S
C1667 C1668 1.362 . S
C1668 H1660 0.930 . S
C1668 C1667 1.362 . S
C1668 C1671 1.409 . S
C1669 H1661 0.930 . S
C1669 C1670 1.355 . S
C1669 C1671 1.415 . S
C1670 C1669 1.355 . S
C1670 C1672 1.419 . S
C1671 C1666 1.425 . S
C1671 C1668 1.409 . S
C1671 C1669 1.415 . S
C1672 H1662 0.930 . S
C1672 C1670 1.419 . S
C1672 C1673 1.362 . S
C1673 H1663 0.930 . S
C1673 C1666 1.409 . S
C1673 C1672 1.362 . S
H1674 C1680 0.930 . S
H1675 C1683 0.930 . S
H1676 C1684 0.930 . S
H1677 C1685 0.930 . S
H1678 C1688 0.930 . S
H1679 C1689 0.930 . S
C1680 H1674 0.930 . S
C1680 C1681 1.355 . S
C1680 C1682 1.415 . S
C1681 C1680 1.355 . S
C1681 C1683 1.419 . S
C1682 C1680 1.415 . S
C1682 C1687 1.425 . S
C1682 C1689 1.409 . S
C1683 H1675 0.930 . S
C1683 C1681 1.419 . S
C1683 C1684 1.362 . S
C1684 H1676 0.930 . S
C1684 C1683 1.362 . S
C1684 C1687 1.409 . S
C1685 H1677 0.930 . S
C1685 C1686 1.355 . S
C1685 C1687 1.415 . S
C1686 C1685 1.355 . S
C1686 C1688 1.419 . S
C1687 C1682 1.425 . S
C1687 C1684 1.409 . S
C1687 C1685 1.415 . S
C1688 H1678 0.930 . S
C1688 C1686 1.419 . S
C1688 C1689 1.362 . S
C1689 H1679 0.930 . S
C1689 C1682 1.409 . S
C1689 C1688 1.362 . S
H1690 C1696 0.930 . S
H1691 C1699 0.930 . S
H1692 C1700 0.930 . S
H1693 C1701 0.930 . S
H1694 C1704 0.930 . S
H1695 C1705 0.930 . S
C1696 H1690 0.930 . S
C1696 C1697 1.355 . S
C1696 C1698 1.415 . S
C1697 C1696 1.355 . S
C1697 C1699 1.419 . S
C1698 C1696 1.415 . S
C1698 C1703 1.425 . S
C1698 C1705 1.409 . S
C1699 H1691 0.930 . S
C1699 C1697 1.419 . S
C1699 C1700 1.362 . S
C1700 H1692 0.930 . S
C1700 C1699 1.362 . S
C1700 C1703 1.409 . S
C1701 H1693 0.930 . S
C1701 C1702 1.355 . S
C1701 C1703 1.415 . S
C1702 C1701 1.355 . S
C1702 C1704 1.419 . S
C1703 C1698 1.425 . S
C1703 C1700 1.409 . S
C1703 C1701 1.415 . S
C1704 H1694 0.930 . S
C1704 C1702 1.419 . S
C1704 C1705 1.362 . S
C1705 H1695 0.930 . S
C1705 C1698 1.409 . S
C1705 C1704 1.362 . S
H1706 C1712 0.930 . S
H1707 C1715 0.930 . S
H1708 C1716 0.930 . S
H1709 C1717 0.930 . S
H1710 C1720 0.930 . S
H1711 C1721 0.930 . S
C1712 H1706 0.930 . S
C1712 C1713 1.355 . S
C1712 C1714 1.415 . S
C1713 C1712 1.355 . S
C1713 C1715 1.419 . S
C1714 C1712 1.415 . S
C1714 C1719 1.425 . S
C1714 C1721 1.409 . S
C1715 H1707 0.930 . S
C1715 C1713 1.419 . S
C1715 C1716 1.362 . S
C1716 H1708 0.930 . S
C1716 C1715 1.362 . S
C1716 C1719 1.409 . S
C1717 H1709 0.930 . S
C1717 C1718 1.355 . S
C1717 C1719 1.415 . S
C1718 C1717 1.355 . S
C1718 C1720 1.419 . S
C1719 C1714 1.425 . S
C1719 C1716 1.409 . S
C1719 C1717 1.415 . S
C1720 H1710 0.930 . S
C1720 C1718 1.419 . S
C1720 C1721 1.362 . S
C1721 H1711 0.930 . S
C1721 C1714 1.409 . S
C1721 C1720 1.362 . S
H1722 C1728 0.930 1_554 S
H1723 C1731 0.930 . S
H1724 C1732 0.930 . S
H1725 C1733 0.930 . S
H1726 C1736 0.930 . S
H1727 C1737 0.930 1_554 S
C1728 H1722 0.930 1_556 S
C1728 C1729 1.355 . S
C1728 C1730 1.415 . S
C1729 C1728 1.355 . S
C1729 C1731 1.419 . S
C1730 C1728 1.415 . S
C1730 C1735 1.425 . S
C1730 C1737 1.409 . S
C1731 H1723 0.930 . S
C1731 C1729 1.419 . S
C1731 C1732 1.362 . S
C1732 H1724 0.930 . S
C1732 C1731 1.362 . S
C1732 C1735 1.409 . S
C1733 H1725 0.930 . S
C1733 C1734 1.355 . S
C1733 C1735 1.415 . S
C1734 C1733 1.355 . S
C1734 C1736 1.419 . S
C1735 C1730 1.425 . S
C1735 C1732 1.409 . S
C1735 C1733 1.415 . S
C1736 H1726 0.930 . S
C1736 C1734 1.419 . S
C1736 C1737 1.362 . S
C1737 H1727 0.930 1_556 S
C1737 C1730 1.409 . S
C1737 C1736 1.362 . S
H1738 C1744 0.930 . S
H1739 C1747 0.930 1_554 S
H1740 C1748 0.930 . S
H1741 C1749 0.930 . S
H1742 C1752 0.930 . S
H1743 C1753 0.930 . S
C1744 H1738 0.930 . S
C1744 C1745 1.355 . S
C1744 C1746 1.415 . S
C1745 C1744 1.355 . S
C1745 C1747 1.419 . S
C1746 C1744 1.415 . S
C1746 C1751 1.425 . S
C1746 C1753 1.409 . S
C1747 H1739 0.930 1_556 S
C1747 C1745 1.419 . S
C1747 C1748 1.362 . S
C1748 H1740 0.930 . S
C1748 C1747 1.362 . S
C1748 C1751 1.409 . S
C1749 H1741 0.930 . S
C1749 C1750 1.355 . S
C1749 C1751 1.415 . S
C1750 C1749 1.355 . S
C1750 C1752 1.419 . S
C1751 C1746 1.425 . S
C1751 C1748 1.409 . S
C1751 C1749 1.415 . S
C1752 H1742 0.930 . S
C1752 C1750 1.419 . S
C1752 C1753 1.362 . S
C1753 H1743 0.930 . S
C1753 C1746 1.409 . S
C1753 C1752 1.362 . S
H1754 C1760 0.930 . S
H1755 C1763 0.930 . S
H1756 C1764 0.930 . S
H1757 C1765 0.930 . S
H1758 C1768 0.930 . S
H1759 C1769 0.930 . S
C1760 H1754 0.930 . S
C1760 C1761 1.355 . S
C1760 C1762 1.415 . S
C1761 C1760 1.355 . S
C1761 C1763 1.419 . S
C1762 C1760 1.415 . S
C1762 C1767 1.425 . S
C1762 C1769 1.409 . S
C1763 H1755 0.930 . S
C1763 C1761 1.419 . S
C1763 C1764 1.362 . S
C1764 H1756 0.930 . S
C1764 C1763 1.362 . S
C1764 C1767 1.409 . S
C1765 H1757 0.930 . S
C1765 C1766 1.355 . S
C1765 C1767 1.415 . S
C1766 C1765 1.355 . S
C1766 C1768 1.419 . S
C1767 C1762 1.425 . S
C1767 C1764 1.409 . S
C1767 C1765 1.415 . S
C1768 H1758 0.930 . S
C1768 C1766 1.419 . S
C1768 C1769 1.362 . S
C1769 H1759 0.930 . S
C1769 C1762 1.409 . S
C1769 C1768 1.362 . S
H1770 C1776 0.930 . S
H1771 C1779 0.911 1_554 S
H1772 C1780 0.930 1_554 S
H1773 C1781 0.930 . S
H1774 C1784 0.930 . S
H1775 C1785 0.930 . S
C1776 H1770 0.930 . S
C1776 C1777 1.355 . S
C1776 C1778 1.415 . S
C1777 C1776 1.355 . S
C1777 C1779 1.432 . S
C1778 C1776 1.415 . S
C1778 C1783 1.425 . S
C1778 C1785 1.409 . S
C1779 H1771 0.911 1_556 S
C1779 C1777 1.432 . S
C1779 C1780 1.368 . S
C1780 H1772 0.930 1_556 S
C1780 C1779 1.368 . S
C1780 C1783 1.409 . S
C1781 H1773 0.930 . S
C1781 C1782 1.355 . S
C1781 C1783 1.415 . S
C1782 C1781 1.355 . S
C1782 C1784 1.419 . S
C1783 C1778 1.425 . S
C1783 C1780 1.409 . S
C1783 C1781 1.415 . S
C1784 H1774 0.930 . S
C1784 C1782 1.419 . S
C1784 C1785 1.362 . S
C1785 H1775 0.930 . S
C1785 C1778 1.409 . S
C1785 C1784 1.362 . S
H1786 C1792 0.930 . S
H1787 C1795 0.930 . S
H1788 C1796 0.930 . S
H1789 C1797 0.930 . S
H1790 C1800 0.930 . S
H1791 C1801 0.930 . S
C1792 H1786 0.930 . S
C1792 C1793 1.355 . S
C1792 C1794 1.415 . S
C1793 C1792 1.355 . S
C1793 C1795 1.419 . S
C1794 C1792 1.415 . S
C1794 C1799 1.425 . S
C1794 C1801 1.409 . S
C1795 H1787 0.930 . S
C1795 C1793 1.419 . S
C1795 C1796 1.362 . S
C1796 H1788 0.930 . S
C1796 C1795 1.362 . S
C1796 C1799 1.409 . S
C1797 H1789 0.930 . S
C1797 C1798 1.355 . S
C1797 C1799 1.415 . S
C1798 C1797 1.355 . S
C1798 C1800 1.419 . S
C1799 C1794 1.425 . S
C1799 C1796 1.409 . S
C1799 C1797 1.415 . S
C1800 H1790 0.930 . S
C1800 C1798 1.419 . S
C1800 C1801 1.362 . S
C1801 H1791 0.930 . S
C1801 C1794 1.409 . S
C1801 C1800 1.362 . S
H1802 C1808 0.894 1_554 S
H1803 C1811 0.930 . S
H1804 C1812 0.930 . S
H1805 C1813 0.930 . S
H1806 C1816 0.930 . S
H1807 C1817 0.930 . S
C1808 H1802 0.894 1_556 S
C1808 C1809 1.355 . S
C1808 C1810 1.415 . S
C1809 C1808 1.355 . S
C1809 C1811 1.419 . S
C1810 C1808 1.415 . S
C1810 C1815 1.425 . S
C1810 C1817 1.409 . S
C1811 H1803 0.930 . S
C1811 C1809 1.419 . S
C1811 C1812 1.362 . S
C1812 H1804 0.930 . S
C1812 C1811 1.362 . S
C1812 C1815 1.409 . S
C1813 H1805 0.930 . S
C1813 C1814 1.355 . S
C1813 C1815 1.415 . S
C1814 C1813 1.355 . S
C1814 C1816 1.419 . S
C1815 C1810 1.425 . S
C1815 C1812 1.409 . S
C1815 C1813 1.415 . S
C1816 H1806 0.930 . S
C1816 C1814 1.419 . S
C1816 C1817 1.362 . S
C1817 H1807 0.930 . S
C1817 C1810 1.409 . S
C1817 C1816 1.362 . S
H1818 C1824 0.930 . S
H1819 C1827 0.930 . S
H1820 C1828 0.930 . S
H1821 C1829 0.930 . S
H1822 C1832 0.930 . S
H1823 C1833 0.930 . S
C1824 H1818 0.930 . S
C1824 C1825 1.355 . S
C1824 C1826 1.415 . S
C1825 C1824 1.355 . S
C1825 C1827 1.419 . S
C1826 C1824 1.415 . S
C1826 C1831 1.425 . S
C1826 C1833 1.409 . S
C1827 H1819 0.930 . S
C1827 C1825 1.419 . S
C1827 C1828 1.362 . S
C1828 H1820 0.930 . S
C1828 C1827 1.362 . S
C1828 C1831 1.409 . S
C1829 H1821 0.930 . S
C1829 C1830 1.355 . S
C1829 C1831 1.415 . S
C1830 C1829 1.355 . S
C1830 C1832 1.419 . S
C1831 C1826 1.425 . S
C1831 C1828 1.409 . S
C1831 C1829 1.415 . S
C1832 H1822 0.930 . S
C1832 C1830 1.419 . S
C1832 C1833 1.362 . S
C1833 H1823 0.930 . S
C1833 C1826 1.409 . S
C1833 C1832 1.362 . S
H1834 C1840 0.930 . S
H1835 C1843 0.930 . S
H1836 C1844 0.930 . S
H1837 C1845 0.930 . S
H1838 C1848 0.930 . S
H1839 C1849 0.930 . S
C1840 H1834 0.930 . S
C1840 C1841 1.355 . S
C1840 C1842 1.415 . S
C1841 C1840 1.355 . S
C1841 C1843 1.419 . S
C1842 C1840 1.415 . S
C1842 C1847 1.425 . S
C1842 C1849 1.409 . S
C1843 H1835 0.930 . S
C1843 C1841 1.419 . S
C1843 C1844 1.362 . S
C1844 H1836 0.930 . S
C1844 C1843 1.362 . S
C1844 C1847 1.409 . S
C1845 H1837 0.930 . S
C1845 C1846 1.355 . S
C1845 C1847 1.415 . S
C1846 C1845 1.355 . S
C1846 C1848 1.419 . S
C1847 C1842 1.425 . S
C1847 C1844 1.409 . S
C1847 C1845 1.415 . S
C1848 H1838 0.930 . S
C1848 C1846 1.419 . S
C1848 C1849 1.362 . S
C1849 H1839 0.930 . S
C1849 C1842 1.409 . S
C1849 C1848 1.362 . S
H1850 C1856 0.930 . S
H1851 C1859 0.930 . S
H1852 C1860 0.930 . S
H1853 C1861 0.930 . S
H1854 C1864 0.930 . S
H1855 C1865 0.930 . S
C1856 H1850 0.930 . S
C1856 C1857 1.355 . S
C1856 C1858 1.415 . S
C1857 C1856 1.355 . S
C1857 C1859 1.419 . S
C1858 C1856 1.415 . S
C1858 C1863 1.425 . S
C1858 C1865 1.409 . S
C1859 H1851 0.930 . S
C1859 C1857 1.419 . S
C1859 C1860 1.362 . S
C1860 H1852 0.930 . S
C1860 C1859 1.362 . S
C1860 C1863 1.409 . S
C1861 H1853 0.930 . S
C1861 C1862 1.355 . S
C1861 C1863 1.415 . S
C1862 C1861 1.355 . S
C1862 C1864 1.419 . S
C1863 C1858 1.425 . S
C1863 C1860 1.409 . S
C1863 C1861 1.415 . S
C1864 H1854 0.930 . S
C1864 C1862 1.419 . S
C1864 C1865 1.362 . S
C1865 H1855 0.930 . S
C1865 C1858 1.409 . S
C1865 C1864 1.362 . S
H1866 C1872 0.930 . S
H1867 C1875 0.930 . S
H1868 C1876 0.930 . S
H1869 C1877 0.930 . S
H1870 C1880 0.930 . S
H1871 C1881 0.930 . S
C1872 H1866 0.930 . S
C1872 C1873 1.355 . S
C1872 C1874 1.415 . S
C1873 C1872 1.355 . S
C1873 C1875 1.419 . S
C1874 C1872 1.415 . S
C1874 C1879 1.425 . S
C1874 C1881 1.409 . S
C1875 H1867 0.930 . S
C1875 C1873 1.419 . S
C1875 C1876 1.362 . S
C1876 H1868 0.930 . S
C1876 C1875 1.362 . S
C1876 C1879 1.409 . S
C1877 H1869 0.930 . S
C1877 C1878 1.355 . S
C1877 C1879 1.415 . S
C1878 C1877 1.355 . S
C1878 C1880 1.419 . S
C1879 C1874 1.425 . S
C1879 C1876 1.409 . S
C1879 C1877 1.415 . S
C1880 H1870 0.930 . S
C1880 C1878 1.419 . S
C1880 C1881 1.362 . S
C1881 H1871 0.930 . S
C1881 C1874 1.409 . S
C1881 C1880 1.362 . S
H1882 C1888 0.930 . S
H1883 C1891 0.930 . S
H1884 C1892 0.930 . S
H1885 C1893 0.930 . S
H1886 C1896 0.930 . S
H1887 C1897 0.930 . S
C1888 H1882 0.930 . S
C1888 C1889 1.355 . S
C1888 C1890 1.415 . S
C1889 C1888 1.355 . S
C1889 C1891 1.419 . S
C1890 C1888 1.415 . S
C1890 C1895 1.425 . S
C1890 C1897 1.409 . S
C1891 H1883 0.930 . S
C1891 C1889 1.419 . S
C1891 C1892 1.362 . S
C1892 H1884 0.930 . S
C1892 C1891 1.362 . S
C1892 C1895 1.409 . S
C1893 H1885 0.930 . S
C1893 C1894 1.355 . S
C1893 C1895 1.415 . S
C1894 C1893 1.355 . S
C1894 C1896 1.419 . S
C1895 C1890 1.425 . S
C1895 C1892 1.409 . S
C1895 C1893 1.415 . S
C1896 H1886 0.930 . S
C1896 C1894 1.419 . S
C1896 C1897 1.362 . S
C1897 H1887 0.930 . S
C1897 C1890 1.409 . S
C1897 C1896 1.362 . S
H1898 C1904 0.930 . S
H1899 C1907 0.930 . S
H1900 C1908 0.930 . S
H1901 C1909 0.930 . S
H1902 C1912 0.930 . S
H1903 C1913 0.930 . S
C1904 H1898 0.930 . S
C1904 C1905 1.355 . S
C1904 C1906 1.415 . S
C1905 C1904 1.355 . S
C1905 C1907 1.419 . S
C1906 C1904 1.415 . S
C1906 C1911 1.425 . S
C1906 C1913 1.409 . S
C1907 H1899 0.930 . S
C1907 C1905 1.419 . S
C1907 C1908 1.362 . S
C1908 H1900 0.930 . S
C1908 C1907 1.362 . S
C1908 C1911 1.409 . S
C1909 H1901 0.930 . S
C1909 C1910 1.355 . S
C1909 C1911 1.415 . S
C1910 C1909 1.355 . S
C1910 C1912 1.419 . S
C1911 C1906 1.425 . S
C1911 C1908 1.409 . S
C1911 C1909 1.415 . S
C1912 H1902 0.930 . S
C1912 C1910 1.419 . S
C1912 C1913 1.362 . S
C1913 H1903 0.930 . S
C1913 C1906 1.409 . S
C1913 C1912 1.362 . S
H1914 C1920 0.930 1_655 S
H1915 C1923 0.930 . S
H1916 C1924 0.930 . S
H1917 C1925 0.930 . S
H1918 C1928 0.930 . S
H1919 C1929 0.930 . S
C1920 H1914 0.930 1_455 S
C1920 C1921 1.355 . S
C1920 C1922 1.415 . S
C1921 C1920 1.355 . S
C1921 C1923 1.419 . S
C1922 C1920 1.415 . S
C1922 C1927 1.425 . S
C1922 C1929 1.409 1_455 S
C1923 H1915 0.930 . S
C1923 C1921 1.419 . S
C1923 C1924 1.362 . S
C1924 H1916 0.930 . S
C1924 C1923 1.362 . S
C1924 C1927 1.409 . S
C1925 H1917 0.930 . S
C1925 C1926 1.355 . S
C1925 C1927 1.415 . S
C1926 C1925 1.355 . S
C1926 C1928 1.419 1_455 S
C1927 C1922 1.425 . S
C1927 C1924 1.409 . S
C1927 C1925 1.415 . S
C1928 H1918 0.930 . S
C1928 C1926 1.419 1_655 S
C1928 C1929 1.362 . S
C1929 H1919 0.930 . S
C1929 C1922 1.409 1_655 S
C1929 C1928 1.362 . S
H1930 C1936 0.930 . S
H1931 C1939 0.930 . S
H1932 C1940 0.930 . S
H1933 C1941 0.930 . S
H1934 C1944 0.930 . S
H1935 C1945 0.930 . S
C1936 H1930 0.930 . S
C1936 C1937 1.355 . S
C1936 C1938 1.415 . S
C1937 C1936 1.355 . S
C1937 C1939 1.419 . S
C1938 C1936 1.415 . S
C1938 C1943 1.425 . S
C1938 C1945 1.409 . S
C1939 H1931 0.930 . S
C1939 C1937 1.419 . S
C1939 C1940 1.362 . S
C1940 H1932 0.930 . S
C1940 C1939 1.362 . S
C1940 C1943 1.409 . S
C1941 H1933 0.930 . S
C1941 C1942 1.355 . S
C1941 C1943 1.415 . S
C1942 C1941 1.355 . S
C1942 C1944 1.419 . S
C1943 C1938 1.425 . S
C1943 C1940 1.409 . S
C1943 C1941 1.415 . S
C1944 H1934 0.930 . S
C1944 C1942 1.419 . S
C1944 C1945 1.362 . S
C1945 H1935 0.930 . S
C1945 C1938 1.409 . S
C1945 C1944 1.362 . S
H1946 C1952 0.930 . S
H1947 C1955 0.930 . S
H1948 C1956 0.930 . S
H1949 C1957 0.930 . S
H1950 C1960 0.930 . S
H1951 C1961 0.930 . S
C1952 H1946 0.930 . S
C1952 C1953 1.355 . S
C1952 C1954 1.415 . S
C1953 C1952 1.355 . S
C1953 C1955 1.419 1_565 S
C1954 C1952 1.415 . S
C1954 C1959 1.395 1_565 S
C1954 C1961 1.409 . S
C1955 H1947 0.930 . S
C1955 C1953 1.419 1_545 S
C1955 C1956 1.362 . S
C1956 H1948 0.930 . S
C1956 C1955 1.362 . S
C1956 C1959 1.450 . S
C1957 H1949 0.930 . S
C1957 C1958 1.355 1_545 S
C1957 C1959 1.404 . S
C1958 C1957 1.355 1_565 S
C1958 C1960 1.419 . S
C1959 C1954 1.395 1_545 S
C1959 C1956 1.450 . S
C1959 C1957 1.404 . S
C1960 H1950 0.930 . S
C1960 C1958 1.419 . S
C1960 C1961 1.362 . S
C1961 H1951 0.930 . S
C1961 C1954 1.409 . S
C1961 C1960 1.362 . S
H1962 C1968 0.930 1_545 S
H1963 C1971 0.930 . S
H1964 C1972 0.930 . S
H1965 C1973 0.930 . S
H1966 C1976 0.930 . S
H1967 C1977 0.930 . S
C1968 H1962 0.930 1_565 S
C1968 C1969 1.355 . S
C1968 C1970 1.415 . S
C1969 C1968 1.355 . S
C1969 C1971 1.419 . S
C1970 C1968 1.415 . S
C1970 C1975 1.425 . S
C1970 C1977 1.409 1_565 S
C1971 H1963 0.930 . S
C1971 C1969 1.419 . S
C1971 C1972 1.362 . S
C1972 H1964 0.930 . S
C1972 C1971 1.362 . S
C1972 C1975 1.409 . S
C1973 H1965 0.930 . S
C1973 C1974 1.355 . S
C1973 C1975 1.415 . S
C1974 C1973 1.355 . S
C1974 C1976 1.419 1_565 S
C1975 C1970 1.425 . S
C1975 C1972 1.409 . S
C1975 C1973 1.415 . S
C1976 H1966 0.930 . S
C1976 C1974 1.419 1_545 S
C1976 C1977 1.362 . S
C1977 H1967 0.930 . S
C1977 C1970 1.409 1_545 S
C1977 C1976 1.362 . S
H1978 C1984 0.930 . S
H1979 C1987 0.930 . S
H1980 C1988 0.930 . S
H1981 C1989 0.930 . S
H1982 C1992 0.930 . S
H1983 C1993 0.930 . S
C1984 H1978 0.930 . S
C1984 C1985 1.355 1_655 S
C1984 C1986 1.415 . S
C1985 C1984 1.355 1_455 S
C1985 C1987 1.419 . S
C1986 C1984 1.415 . S
C1986 C1991 1.425 1_655 S
C1986 C1993 1.409 . S
C1987 H1979 0.930 . S
C1987 C1985 1.419 . S
C1987 C1988 1.362 . S
C1988 H1980 0.930 . S
C1988 C1987 1.362 . S
C1988 C1991 1.409 . S
C1989 H1981 0.930 . S
C1989 C1990 1.355 . S
C1989 C1991 1.415 . S
C1990 C1989 1.355 . S
C1990 C1992 1.419 1_455 S
C1991 C1986 1.425 1_455 S
C1991 C1988 1.409 . S
C1991 C1989 1.415 . S
C1992 H1982 0.930 . S
C1992 C1990 1.419 1_655 S
C1992 C1993 1.362 . S
C1993 H1983 0.930 . S
C1993 C1986 1.409 . S
C1993 C1992 1.362 . S
H1994 C2000 0.930 . S
H1995 C2003 0.930 . S
H1996 C2004 0.930 . S
H1997 C2005 0.930 . S
H1998 C2008 0.930 . S
H1999 C2009 0.930 . S
C2000 H1994 0.930 . S
C2000 C2001 1.355 . S
C2000 C2002 1.415 . S
C2001 C2000 1.355 . S
C2001 C2003 1.419 . S
C2002 C2000 1.415 . S
C2002 C2007 1.425 . S
C2002 C2009 1.409 . S
C2003 H1995 0.930 . S
C2003 C2001 1.419 . S
C2003 C2004 1.362 . S
C2004 H1996 0.930 . S
C2004 C2003 1.362 . S
C2004 C2007 1.409 . S
C2005 H1997 0.930 . S
C2005 C2006 1.355 . S
C2005 C2007 1.415 . S
C2006 C2005 1.355 . S
C2006 C2008 1.419 . S
C2007 C2002 1.425 . S
C2007 C2004 1.409 . S
C2007 C2005 1.415 . S
C2008 H1998 0.930 . S
C2008 C2006 1.419 . S
C2008 C2009 1.362 . S
C2009 H1999 0.930 . S
C2009 C2002 1.409 . S
C2009 C2008 1.362 . S
H2010 C2016 0.930 . S
H2011 C2019 0.930 . S
H2012 C2020 0.930 . S
H2013 C2021 0.930 . S
H2014 C2024 0.930 . S
H2015 C2025 0.930 . S
C2016 H2010 0.930 . S
C2016 C2017 1.355 . S
C2016 C2018 1.415 . S
C2017 C2016 1.355 . S
C2017 C2019 1.419 . S
C2018 C2016 1.415 . S
C2018 C2023 1.425 . S
C2018 C2025 1.409 . S
C2019 H2011 0.930 . S
C2019 C2017 1.419 . S
C2019 C2020 1.362 . S
C2020 H2012 0.930 . S
C2020 C2019 1.362 . S
C2020 C2023 1.409 . S
C2021 H2013 0.930 . S
C2021 C2022 1.355 . S
C2021 C2023 1.415 . S
C2022 C2021 1.355 . S
C2022 C2024 1.419 . S
C2023 C2018 1.425 . S
C2023 C2020 1.409 . S
C2023 C2021 1.415 . S
C2024 H2014 0.930 . S
C2024 C2022 1.419 . S
C2024 C2025 1.362 . S
C2025 H2015 0.930 . S
C2025 C2018 1.409 . S
C2025 C2024 1.362 . S
H2026 C2032 0.930 . S
H2027 C2035 0.930 . S
H2028 C2036 0.930 . S
H2029 C2037 0.930 . S
H2030 C2040 0.930 . S
H2031 C2041 0.930 . S
C2032 H2026 0.930 . S
C2032 C2033 1.355 . S
C2032 C2034 1.415 . S
C2033 C2032 1.355 . S
C2033 C2035 1.419 . S
C2034 C2032 1.415 . S
C2034 C2039 1.425 . S
C2034 C2041 1.409 . S
C2035 H2027 0.930 . S
C2035 C2033 1.419 . S
C2035 C2036 1.362 . S
C2036 H2028 0.930 . S
C2036 C2035 1.362 . S
C2036 C2039 1.409 . S
C2037 H2029 0.930 . S
C2037 C2038 1.355 . S
C2037 C2039 1.415 . S
C2038 C2037 1.355 . S
C2038 C2040 1.419 . S
C2039 C2034 1.425 . S
C2039 C2036 1.409 . S
C2039 C2037 1.415 . S
C2040 H2030 0.930 . S
C2040 C2038 1.419 . S
C2040 C2041 1.362 . S
C2041 H2031 0.930 . S
C2041 C2034 1.409 . S
C2041 C2040 1.362 . S
H2042 C2048 0.930 . S
H2043 C2051 0.930 . S
H2044 C2052 0.930 . S
H2045 C2053 0.930 . S
H2046 C2056 0.930 . S
H2047 C2057 0.930 . S
C2048 H2042 0.930 . S
C2048 C2049 1.355 . S
C2048 C2050 1.415 . S
C2049 C2048 1.355 . S
C2049 C2051 1.419 . S
C2050 C2048 1.415 . S
C2050 C2055 1.425 . S
C2050 C2057 1.409 . S
C2051 H2043 0.930 . S
C2051 C2049 1.419 . S
C2051 C2052 1.362 . S
C2052 H2044 0.930 . S
C2052 C2051 1.362 . S
C2052 C2055 1.409 . S
C2053 H2045 0.930 . S
C2053 C2054 1.355 . S
C2053 C2055 1.415 . S
C2054 C2053 1.355 . S
C2054 C2056 1.419 . S
C2055 C2050 1.425 . S
C2055 C2052 1.409 . S
C2055 C2053 1.415 . S
C2056 H2046 0.930 . S
C2056 C2054 1.419 . S
C2056 C2057 1.362 . S
C2057 H2047 0.930 . S
C2057 C2050 1.409 . S
C2057 C2056 1.362 . S
H2058 C2064 0.930 . S
H2059 C2067 0.930 . S
H2060 C2068 0.930 . S
H2061 C2069 0.930 . S
H2062 C2072 0.930 . S
H2063 C2073 0.930 . S
C2064 H2058 0.930 . S
C2064 C2065 1.355 . S
C2064 C2066 1.415 . S
C2065 C2064 1.355 . S
C2065 C2067 1.419 . S
C2066 C2064 1.415 . S
C2066 C2071 1.425 . S
C2066 C2073 1.409 . S
C2067 H2059 0.930 . S
C2067 C2065 1.419 . S
C2067 C2068 1.362 . S
C2068 H2060 0.930 . S
C2068 C2067 1.362 . S
C2068 C2071 1.409 . S
C2069 H2061 0.930 . S
C2069 C2070 1.355 . S
C2069 C2071 1.415 . S
C2070 C2069 1.355 . S
C2070 C2072 1.419 . S
C2071 C2066 1.425 . S
C2071 C2068 1.409 . S
C2071 C2069 1.415 . S
C2072 H2062 0.930 . S
C2072 C2070 1.419 . S
C2072 C2073 1.362 . S
C2073 H2063 0.930 . S
C2073 C2066 1.409 . S
C2073 C2072 1.362 . S
H2074 C2080 0.930 . S
H2075 C2083 0.930 . S
H2076 C2084 0.930 . S
H2077 C2085 0.930 . S
H2078 C2088 0.930 . S
H2079 C2089 0.902 1_455 S
C2080 H2074 0.930 . S
C2080 C2081 1.355 . S
C2080 C2082 1.415 . S
C2081 C2080 1.355 . S
C2081 C2083 1.419 . S
C2082 C2080 1.415 . S
C2082 C2087 1.425 . S
C2082 C2089 1.412 . S
C2083 H2075 0.930 . S
C2083 C2081 1.419 . S
C2083 C2084 1.362 . S
C2084 H2076 0.930 . S
C2084 C2083 1.362 . S
C2084 C2087 1.409 . S
C2085 H2077 0.930 . S
C2085 C2086 1.355 . S
C2085 C2087 1.415 . S
C2086 C2085 1.355 . S
C2086 C2088 1.413 1_655 S
C2087 C2082 1.425 . S
C2087 C2084 1.409 . S
C2087 C2085 1.415 . S
C2088 H2078 0.930 . S
C2088 C2086 1.413 1_455 S
C2088 C2089 1.397 1_455 S
C2089 H2079 0.902 1_655 S
C2089 C2082 1.412 . S
C2089 C2088 1.397 1_655 S
H2090 C2096 0.930 . S
H2091 C2099 0.930 . S
H2092 C2100 0.930 . S
H2093 C2101 0.930 . S
H2094 C2104 0.930 . S
H2095 C2105 0.930 . S
C2096 H2090 0.930 . S
C2096 C2097 1.355 . S
C2096 C2098 1.415 . S
C2097 C2096 1.355 . S
C2097 C2099 1.419 . S
C2098 C2096 1.415 . S
C2098 C2103 1.425 . S
C2098 C2105 1.409 . S
C2099 H2091 0.930 . S
C2099 C2097 1.419 . S
C2099 C2100 1.362 . S
C2100 H2092 0.930 . S
C2100 C2099 1.362 . S
C2100 C2103 1.409 . S
C2101 H2093 0.930 . S
C2101 C2102 1.355 . S
C2101 C2103 1.415 . S
C2102 C2101 1.355 . S
C2102 C2104 1.419 . S
C2103 C2098 1.425 . S
C2103 C2100 1.409 . S
C2103 C2101 1.415 . S
C2104 H2094 0.930 . S
C2104 C2102 1.419 . S
C2104 C2105 1.362 . S
C2105 H2095 0.930 . S
C2105 C2098 1.409 . S
C2105 C2104 1.362 . S
H2106 C2112 0.930 . S
H2107 C2115 0.930 . S
H2108 C2116 0.930 . S
H2109 C2117 0.930 . S
H2110 C2120 0.930 . S
H2111 C2121 0.930 . S
C2112 H2106 0.930 . S
C2112 C2113 1.355 . S
C2112 C2114 1.415 . S
C2113 C2112 1.355 . S
C2113 C2115 1.419 . S
C2114 C2112 1.415 . S
C2114 C2119 1.425 . S
C2114 C2121 1.409 . S
C2115 H2107 0.930 . S
C2115 C2113 1.419 . S
C2115 C2116 1.362 . S
C2116 H2108 0.930 . S
C2116 C2115 1.362 . S
C2116 C2119 1.409 . S
C2117 H2109 0.930 . S
C2117 C2118 1.355 . S
C2117 C2119 1.415 . S
C2118 C2117 1.355 . S
C2118 C2120 1.419 . S
C2119 C2114 1.425 . S
C2119 C2116 1.409 . S
C2119 C2117 1.415 . S
C2120 H2110 0.930 . S
C2120 C2118 1.419 . S
C2120 C2121 1.362 . S
C2121 H2111 0.930 . S
C2121 C2114 1.409 . S
C2121 C2120 1.362 . S
H2122 C2128 0.930 . S
H2123 C2131 0.930 . S
H2124 C2132 0.930 . S
H2125 C2133 0.930 . S
H2126 C2136 0.930 . S
H2127 C2137 0.930 . S
C2128 H2122 0.930 . S
C2128 C2129 1.355 . S
C2128 C2130 1.415 . S
C2129 C2128 1.355 . S
C2129 C2131 1.419 . S
C2130 C2128 1.415 . S
C2130 C2135 1.425 . S
C2130 C2137 1.409 . S
C2131 H2123 0.930 . S
C2131 C2129 1.419 . S
C2131 C2132 1.362 . S
C2132 H2124 0.930 . S
C2132 C2131 1.362 . S
C2132 C2135 1.409 . S
C2133 H2125 0.930 . S
C2133 C2134 1.355 . S
C2133 C2135 1.415 . S
C2134 C2133 1.355 . S
C2134 C2136 1.419 . S
C2135 C2130 1.425 . S
C2135 C2132 1.409 . S
C2135 C2133 1.415 . S
C2136 H2126 0.930 . S
C2136 C2134 1.419 . S
C2136 C2137 1.362 . S
C2137 H2127 0.930 . S
C2137 C2130 1.409 . S
C2137 C2136 1.362 . S
H2138 C2144 0.930 . S
H2139 C2147 0.930 . S
H2140 C2148 0.930 . S
H2141 C2149 0.930 . S
H2142 C2152 0.930 . S
H2143 C2153 0.930 . S
C2144 H2138 0.930 . S
C2144 C2145 1.355 . S
C2144 C2146 1.415 . S
C2145 C2144 1.355 . S
C2145 C2147 1.419 . S
C2146 C2144 1.415 . S
C2146 C2151 1.425 . S
C2146 C2153 1.409 . S
C2147 H2139 0.930 . S
C2147 C2145 1.419 . S
C2147 C2148 1.362 . S
C2148 H2140 0.930 . S
C2148 C2147 1.362 . S
C2148 C2151 1.409 . S
C2149 H2141 0.930 . S
C2149 C2150 1.355 . S
C2149 C2151 1.415 . S
C2150 C2149 1.355 . S
C2150 C2152 1.419 . S
C2151 C2146 1.425 . S
C2151 C2148 1.409 . S
C2151 C2149 1.415 . S
C2152 H2142 0.930 . S
C2152 C2150 1.419 . S
C2152 C2153 1.362 . S
C2153 H2143 0.930 . S
C2153 C2146 1.409 . S
C2153 C2152 1.362 . S
H2154 C2160 0.930 . S
H2155 C2163 0.930 . S
H2156 C2164 0.930 . S
H2157 C2165 0.930 . S
H2158 C2168 0.930 . S
H2159 C2169 0.930 . S
C2160 H2154 0.930 . S
C2160 C2161 1.355 . S
C2160 C2162 1.415 . S
C2161 C2160 1.355 . S
C2161 C2163 1.419 . S
C2162 C2160 1.415 . S
C2162 C2167 1.425 . S
C2162 C2169 1.409 . S
C2163 H2155 0.930 . S
C2163 C2161 1.419 . S
C2163 C2164 1.362 . S
C2164 H2156 0.930 . S
C2164 C2163 1.362 . S
C2164 C2167 1.409 . S
C2165 H2157 0.930 . S
C2165 C2166 1.355 . S
C2165 C2167 1.415 . S
C2166 C2165 1.355 . S
C2166 C2168 1.419 . S
C2167 C2162 1.425 . S
C2167 C2164 1.409 . S
C2167 C2165 1.415 . S
C2168 H2158 0.930 . S
C2168 C2166 1.419 . S
C2168 C2169 1.362 . S
C2169 H2159 0.930 . S
C2169 C2162 1.409 . S
C2169 C2168 1.362 . S
H2170 C2176 0.930 . S
H2171 C2179 0.930 . S
H2172 C2180 0.930 . S
H2173 C2181 0.930 . S
H2174 C2184 0.930 . S
H2175 C2185 0.930 . S
C2176 H2170 0.930 . S
C2176 C2177 1.355 . S
C2176 C2178 1.415 . S
C2177 C2176 1.355 . S
C2177 C2179 1.419 . S
C2178 C2176 1.415 . S
C2178 C2183 1.425 . S
C2178 C2185 1.409 . S
C2179 H2171 0.930 . S
C2179 C2177 1.419 . S
C2179 C2180 1.362 . S
C2180 H2172 0.930 . S
C2180 C2179 1.362 . S
C2180 C2183 1.409 . S
C2181 H2173 0.930 . S
C2181 C2182 1.355 . S
C2181 C2183 1.415 . S
C2182 C2181 1.355 . S
C2182 C2184 1.419 . S
C2183 C2178 1.425 . S
C2183 C2180 1.409 . S
C2183 C2181 1.415 . S
C2184 H2174 0.930 . S
C2184 C2182 1.419 . S
C2184 C2185 1.362 . S
C2185 H2175 0.930 . S
C2185 C2178 1.409 . S
C2185 C2184 1.362 . S
H2186 C2192 0.930 . S
H2187 C2195 0.930 . S
H2188 C2196 0.930 . S
H2189 C2197 0.930 . S
H2190 C2200 0.930 . S
H2191 C2201 0.930 . S
C2192 H2186 0.930 . S
C2192 C2193 1.355 . S
C2192 C2194 1.415 . S
C2193 C2192 1.355 . S
C2193 C2195 1.419 . S
C2194 C2192 1.415 . S
C2194 C2199 1.425 . S
C2194 C2201 1.409 . S
C2195 H2187 0.930 . S
C2195 C2193 1.419 . S
C2195 C2196 1.362 . S
C2196 H2188 0.930 . S
C2196 C2195 1.362 . S
C2196 C2199 1.409 . S
C2197 H2189 0.930 . S
C2197 C2198 1.355 . S
C2197 C2199 1.415 . S
C2198 C2197 1.355 . S
C2198 C2200 1.419 . S
C2199 C2194 1.425 . S
C2199 C2196 1.409 . S
C2199 C2197 1.415 . S
C2200 H2190 0.930 . S
C2200 C2198 1.419 . S
C2200 C2201 1.362 . S
C2201 H2191 0.930 . S
C2201 C2194 1.409 . S
C2201 C2200 1.362 . S
H2202 C2208 0.930 . S
H2203 C2211 0.932 . S
H2204 C2212 0.940 . S
H2205 C2213 0.930 1_455 S
H2206 C2216 0.930 . S
H2207 C2217 0.930 . S
C2208 H2202 0.930 . S
C2208 C2209 1.355 . S
C2208 C2210 1.415 . S
C2209 C2208 1.355 . S
C2209 C2211 1.419 . S
C2210 C2208 1.415 . S
C2210 C2215 1.425 . S
C2210 C2217 1.409 . S
C2211 H2203 0.932 . S
C2211 C2209 1.419 . S
C2211 C2212 1.353 1_655 S
C2212 H2204 0.940 . S
C2212 C2211 1.353 1_455 S
C2212 C2215 1.408 1_455 S
C2213 H2205 0.930 1_655 S
C2213 C2214 1.355 . S
C2213 C2215 1.415 . S
C2214 C2213 1.355 . S
C2214 C2216 1.419 . S
C2215 C2210 1.425 . S
C2215 C2212 1.408 1_655 S
C2215 C2213 1.415 . S
C2216 H2206 0.930 . S
C2216 C2214 1.419 . S
C2216 C2217 1.362 . S
C2217 H2207 0.930 . S
C2217 C2210 1.409 . S
C2217 C2216 1.362 . S
H2218 C2224 0.930 . S
H2219 C2227 0.930 . S
H2220 C2228 0.930 . S
H2221 C2229 0.930 . S
H2222 C2232 0.930 . S
H2223 C2233 0.930 . S
C2224 H2218 0.930 . S
C2224 C2225 1.355 . S
C2224 C2226 1.415 . S
C2225 C2224 1.355 . S
C2225 C2227 1.419 . S
C2226 C2224 1.415 . S
C2226 C2231 1.425 . S
C2226 C2233 1.409 . S
C2227 H2219 0.930 . S
C2227 C2225 1.419 . S
C2227 C2228 1.362 . S
C2228 H2220 0.930 . S
C2228 C2227 1.362 . S
C2228 C2231 1.409 . S
C2229 H2221 0.930 . S
C2229 C2230 1.355 . S
C2229 C2231 1.415 . S
C2230 C2229 1.355 . S
C2230 C2232 1.419 . S
C2231 C2226 1.425 . S
C2231 C2228 1.409 . S
C2231 C2229 1.415 . S
C2232 H2222 0.930 . S
C2232 C2230 1.419 . S
C2232 C2233 1.362 . S
C2233 H2223 0.930 . S
C2233 C2226 1.409 . S
C2233 C2232 1.362 . S
H2234 C2240 0.930 . S
H2235 C2243 0.930 . S
H2236 C2244 0.930 1_565 S
H2237 C2245 0.916 1_565 S
H2238 C2248 0.930 . S
H2239 C2249 0.930 . S
C2240 H2234 0.930 . S
C2240 C2241 1.355 . S
C2240 C2242 1.415 . S
C2241 C2240 1.355 . S
C2241 C2243 1.419 . S
C2242 C2240 1.415 . S
C2242 C2247 1.425 . S
C2242 C2249 1.409 . S
C2243 H2235 0.930 . S
C2243 C2241 1.419 . S
C2243 C2244 1.362 . S
C2244 H2236 0.930 1_545 S
C2244 C2243 1.362 . S
C2244 C2247 1.409 . S
C2245 H2237 0.916 1_545 S
C2245 C2246 1.375 . S
C2245 C2247 1.409 . S
C2246 C2245 1.375 . S
C2246 C2248 1.419 . S
C2247 C2242 1.425 . S
C2247 C2244 1.409 . S
C2247 C2245 1.409 . S
C2248 H2238 0.930 . S
C2248 C2246 1.419 . S
C2248 C2249 1.362 . S
C2249 H2239 0.930 . S
C2249 C2242 1.409 . S
C2249 C2248 1.362 . S
C1105 C8 1.434 . S
C1110 C711 1.506 . S
C1121 C18 1.494 . S
C1126 C759 1.521 . S
C1142 C807 1.510 . S
C1137 C31 1.453 . S
C1153 C34 1.472 . S
C1158 C831 1.515 . S
C1169 C5 1.401 . S
C1174 C903 1.505 . S
C1185 C21 1.520 . S
C1190 C951 1.546 . S
C1201 C47 1.426 . S
C1206 C879 1.505 . S
C1222 C927 1.542 . S
C1217 C57 1.466 . S
C1238 C855 1.515 . S
C1233 C70 1.493 . S
C1249 C73 1.461 . S
C1254 C783 1.500 . S
C1270 C687 1.526 . S
C1265 C44 1.437 . S
C1281 C60 1.493 . S
C1286 C735 1.564 . S
C1297 C86 1.595 . S
C1302 C999 1.604 . S
C1313 C96 1.557 . S
C1318 C1047 1.585 . S
C1334 C1071 1.633 . S
C1329 C109 1.584 . S
C1345 C112 1.563 . S
C1350 C255 1.621 . S
C1361 C83 1.570 . S
C1366 C327 1.628 . S
C1377 C99 1.586 . S
C1382 C375 1.584 . S
C1393 C125 1.525 . S
C1398 C303 1.564 . S
C1409 C135 1.567 . S
C1414 C351 1.570 . S
C1430 C279 1.620 . S
C1425 C148 1.571 . S
C1446 C1095 1.611 . S
C1441 C151 1.659 . S
C1462 C975 1.617 . S
C1457 C122 1.575 . S
C1478 C1023 1.622 . S
C1473 C138 1.570 . S
C1489 C164 1.519 . S
C1494 C423 1.557 . S
C1505 C174 1.516 . S
C1510 C471 1.580 . S
C1521 C187 1.570 . S
C1526 C495 1.631 . S
C1537 C190 1.675 . S
C1542 C543 1.663 . S
C1558 C615 1.615 . S
C1553 C161 1.584 . S
C1574 C663 1.611 . S
C1569 C177 1.612 . S
C1590 C591 1.618 . S
C1585 C203 1.586 . S
C1606 C639 1.599 . S
C1601 C213 1.554 . S
C1617 C226 1.593 . S
C1622 C567 1.579 . S
C1638 C519 1.587 . S
C1633 C229 1.552 . S
C1649 C200 1.600 . S
C1654 C399 1.625 . S
C1670 C447 1.596 . S
C1665 C216 1.601 . S
C1686 C264 1.524 . S
C1681 C0 1.476 . S
C1697 C23 1.454 . S
C1702 C318 1.424 . S
C1718 C366 1.473 . S
C1713 C36 1.512 . S
C1734 C414 1.513 . S
C1729 C26 1.439 . S
C1750 C462 1.469 . S
C1745 C10 1.499 . S
C1766 C504 1.460 . S
C1761 C13 1.365 . S
C1777 C39 1.408 . S
C1782 C510 1.486 . S
C1793 C62 1.443 . S
C1798 C408 1.425 . S
C1809 C75 1.497 . S
C1814 C456 1.473 . S
C1825 C65 1.439 . S
C1830 C312 1.489 . S
C1846 C360 1.478 . S
C1841 C49 1.505 . S
C1857 C52 1.383 . S
C1862 C270 1.457 . S
C1878 C552 1.487 . S
C1873 C78 1.447 . S
C1889 C101 1.534 . S
C1894 C606 1.491 . S
C1905 C114 1.537 . S
C1910 C654 1.527 . S
C1926 C702 1.346 . S
C1921 C104 1.335 . S
C1937 C88 1.449 . S
C1942 C750 1.431 . S
C1953 C91 1.207 . S
C1958 C798 1.248 . S
C1969 C117 1.272 . S
C1974 C792 1.273 . S
C1985 C140 1.273 . S
C1990 C696 1.302 . S
C2006 C744 1.434 . S
C2001 C153 1.460 . S
C2017 C143 1.409 . S
C2022 C600 1.430 . S
C2033 C127 1.526 . S
C2038 C648 1.454 . S
C2054 C558 1.503 . S
C2049 C130 1.445 . S
C2070 C840 1.310 . S
C2065 C156 1.259 . S
C2081 C179 1.263 . S
C2086 C894 1.266 . S
C2097 C192 1.452 . S
C2102 C942 1.414 . S
C2118 C990 1.437 . S
C2113 C182 1.384 . S
C2134 C1038 1.506 . S
C2129 C166 1.530 . S
C2145 C169 1.453 . S
C2150 C1080 1.532 . S
C2161 C195 1.403 . S
C2166 C1086 1.477 . S
C2177 C218 1.521 . S
C2182 C984 1.444 . S
C2198 C1032 1.498 . S
C2193 C231 1.509 . S
C2214 C888 1.285 . S
C2209 C221 1.259 . S
C2230 C936 1.439 . S
C2225 C205 1.451 . S
C2241 C208 1.250 . S
C2246 C846 1.290 . S
