# Generated by pormake.
# Topology pyr, (3,6)-cn, num edge types: 1
# Building blocks:
#     Node 0, Type 0, BuildingBlock: BETDAH_clean_linker_0, # of connection points: 3
#     Node 1, Type 0, BuildingBlock: BETDAH_clean_linker_0, # of connection points: 3
#     Node 2, Type 0, BuildingBlock: BETDAH_clean_linker_0, # of connection points: 3
#     Node 3, Type 0, BuildingBlock: BETDAH_clean_linker_0, # of connection points: 3
#     Node 4, Type 0, BuildingBlock: BETDAH_clean_linker_0, # of connection points: 3
#     Node 5, Type 0, BuildingBlock: BETDAH_clean_linker_0, # of connection points: 3
#     Node 6, Type 0, BuildingBlock: BETDAH_clean_linker_0, # of connection points: 3
#     Node 7, Type 0, BuildingBlock: BETDAH_clean_linker_0, # of connection points: 3
#     Node 8, Type 1, BuildingBlock: JUFBIX_clean_sbu_0, # of connection points: 6
#     Node 9, Type 1, BuildingBlock: JUFBIX_clean_sbu_0, # of connection points: 6
#     Node 10, Type 1, BuildingBlock: JUFBIX_clean_sbu_0, # of connection points: 6
#     Node 11, Type 1, BuildingBlock: JUFBIX_clean_sbu_0, # of connection points: 6
#     Edge 12, Type (0, 1), BuildingBlock: UVAHIK_clean_linker_0, # of connection points: 2
#     Edge 13, Type (0, 1), BuildingBlock: UVAHIK_clean_linker_0, # of connection points: 2
#     Edge 14, Type (0, 1), BuildingBlock: UVAHIK_clean_linker_0, # of connection points: 2
#     Edge 15, Type (0, 1), BuildingBlock: UVAHIK_clean_linker_0, # of connection points: 2
#     Edge 16, Type (0, 1), BuildingBlock: UVAHIK_clean_linker_0, # of connection points: 2
#     Edge 17, Type (0, 1), BuildingBlock: UVAHIK_clean_linker_0, # of connection points: 2
#     Edge 18, Type (0, 1), BuildingBlock: UVAHIK_clean_linker_0, # of connection points: 2
#     Edge 19, Type (0, 1), BuildingBlock: UVAHIK_clean_linker_0, # of connection points: 2
#     Edge 20, Type (0, 1), BuildingBlock: UVAHIK_clean_linker_0, # of connection points: 2
#     Edge 21, Type (0, 1), BuildingBlock: UVAHIK_clean_linker_0, # of connection points: 2
#     Edge 22, Type (0, 1), BuildingBlock: UVAHIK_clean_linker_0, # of connection points: 2
#     Edge 23, Type (0, 1), BuildingBlock: UVAHIK_clean_linker_0, # of connection points: 2
#     Edge 24, Type (0, 1), BuildingBlock: UVAHIK_clean_linker_0, # of connection points: 2
#     Edge 25, Type (0, 1), BuildingBlock: UVAHIK_clean_linker_0, # of connection points: 2
#     Edge 26, Type (0, 1), BuildingBlock: UVAHIK_clean_linker_0, # of connection points: 2
#     Edge 27, Type (0, 1), BuildingBlock: UVAHIK_clean_linker_0, # of connection points: 2
#     Edge 28, Type (0, 1), BuildingBlock: UVAHIK_clean_linker_0, # of connection points: 2
#     Edge 29, Type (0, 1), BuildingBlock: UVAHIK_clean_linker_0, # of connection points: 2
#     Edge 30, Type (0, 1), BuildingBlock: UVAHIK_clean_linker_0, # of connection points: 2
#     Edge 31, Type (0, 1), BuildingBlock: UVAHIK_clean_linker_0, # of connection points: 2
#     Edge 32, Type (0, 1), BuildingBlock: UVAHIK_clean_linker_0, # of connection points: 2
#     Edge 33, Type (0, 1), BuildingBlock: UVAHIK_clean_linker_0, # of connection points: 2
#     Edge 34, Type (0, 1), BuildingBlock: UVAHIK_clean_linker_0, # of connection points: 2
#     Edge 35, Type (0, 1), BuildingBlock: UVAHIK_clean_linker_0, # of connection points: 2
# Relax obj value: 0.105
# Max RMSD: 0.197
# Mean RMSD: 0.127
data_MOF--net-pyr--node1-JUFBIX_clean_sbu_0--node2-BETDAH_clean_linker_0--edge1-UVAHIK_clean_linker_0
_symmetry_space_group_name_H-M    P1
_symmetry_Int_Tables_number       1
_symmetry_cell_setting            triclinic
loop_
_symmetry_equiv_pos_as_xyz
'x, y, z'
_cell_length_a     47.022249
_cell_length_b     45.352767
_cell_length_c     49.053729
_cell_angle_alpha  83.950779
_cell_angle_beta   88.858396
_cell_angle_gamma 95.982448
loop_
_atom_site_label
_atom_site_type_symbol
_atom_site_fract_x
_atom_site_fract_y
_atom_site_fract_z
_atom_type_partial_charge
H0 H 0.22129 0.15259 0.2228 0.0
H1 H 0.23668 0.21318 0.14938 0.0
H2 H 0.16599 0.22187 0.20359 0.0
C3 C 0.21542 0.17137 0.20937 0.0
C4 C 0.19157 0.18595 0.21645 0.0
C5 C 0.23207 0.18107 0.18532 0.0
C6 C 0.22431 0.20547 0.16813 0.0
C7 C 0.20051 0.22002 0.17426 0.0
C8 C 0.18397 0.21019 0.19843 0.0
N9 N 0.19513 0.24502 0.15575 0.0
C10 C 0.17111 0.26065 0.15465 0.0
H11 H 0.46247 0.86827 0.70919 0.0
H12 H 0.43226 0.95204 0.67948 0.0
H13 H 0.44696 0.88864 0.62339 0.0
C14 C 0.45597 0.88347 0.69248 0.0
C15 C 0.45568 0.87503 0.66573 0.0
C16 C 0.44791 0.91143 0.69768 0.0
C17 C 0.4386 0.93044 0.67591 0.0
C18 C 0.43851 0.92218 0.64918 0.0
C19 C 0.44759 0.89492 0.64411 0.0
N20 N 0.42893 0.94085 0.62712 0.0
C21 C 0.4027 0.95205 0.62871 0.0
H22 H 0.68178 0.37611 0.96022 0.0
H23 H 0.67364 0.46426 0.92121 0.0
H24 H 0.60271 0.39649 0.92326 0.0
C25 C 0.66901 0.39179 0.94929 0.0
C26 C 0.64083 0.38236 0.9425 0.0
C27 C 0.68109 0.42123 0.94166 0.0
C28 C 0.66484 0.44132 0.92683 0.0
C29 C 0.6367 0.43226 0.9202 0.0
C30 C 0.62473 0.40296 0.92805 0.0
N31 N 0.61974 0.45315 0.90717 0.0
C32 C 0.62106 0.45988 0.87892 0.0
H33 H 0.92934 0.70092 0.4851 0.0
H34 H 1.00889 0.69886 0.44072 0.0
H35 H 0.93582 0.63837 0.42583 0.0
C36 C 0.94194 0.69149 0.47013 0.0
C37 C 0.92912 0.66825 0.45625 0.0
C38 C 0.97055 0.70317 0.46444 0.0
C39 C 0.98694 0.68993 0.44584 0.0
C40 C 0.97448 0.66676 0.43183 0.0
C41 C 0.94557 0.65592 0.43706 0.0
N42 N 0.99108 0.65582 0.41151 0.0
C43 C 0.97981 0.64881 0.38677 0.0
H44 H 0.91627 0.87445 0.8528 0.0
H45 H 0.84203 0.87594 0.90581 0.0
H46 H 0.85525 0.93683 0.83234 0.0
C47 C 0.89668 0.88376 0.85758 0.0
C48 C 0.88794 0.90719 0.83968 0.0
C49 C 0.88041 0.8723 0.88164 0.0
C50 C 0.85471 0.88444 0.88745 0.0
C51 C 0.84582 0.90797 0.86962 0.0
C52 C 0.86252 0.919 0.84606 0.0
N53 N 0.82039 0.92155 0.87403 0.0
C54 C 0.80068 0.91553 0.89602 0.0
H55 H 0.66816 0.13862 0.40106 0.0
H56 H 0.68268 0.23026 0.41766 0.0
H57 H 0.61831 0.20415 0.36155 0.0
C58 C 0.66257 0.16131 0.39821 0.0
C59 C 0.64084 0.16841 0.38024 0.0
C60 C 0.67797 0.18351 0.41161 0.0
C61 C 0.6708 0.21294 0.40759 0.0
C62 C 0.64896 0.22017 0.38974 0.0
C63 C 0.63443 0.19803 0.37596 0.0
N64 N 0.64202 0.24977 0.38416 0.0
C65 C 0.64237 0.26955 0.40388 0.0
H66 H 0.33921 0.68912 0.14638 0.0
H67 H 0.3222 0.60487 0.19566 0.0
H68 H 0.39545 0.6649 0.21146 0.0
C69 C 0.34528 0.67317 0.16269 0.0
C70 C 0.36986 0.68013 0.17766 0.0
C71 C 0.32783 0.64628 0.16916 0.0
C72 C 0.33526 0.62598 0.19069 0.0
C73 C 0.35925 0.63267 0.20622 0.0
C74 C 0.37652 0.65992 0.19985 0.0
N75 N 0.3656 0.61097 0.22754 0.0
C76 C 0.38117 0.61705 0.25042 0.0
H77 H 0.12852 0.39965 0.5916 0.0
H78 H 0.1259 0.46246 0.65127 0.0
H79 H 0.04895 0.40971 0.63272 0.0
C80 C 0.11649 0.41059 0.6059 0.0
C81 C 0.08705 0.40188 0.6104 0.0
C82 C 0.1307 0.4326 0.62038 0.0
C83 C 0.11507 0.44594 0.63955 0.0
C84 C 0.08557 0.43763 0.64395 0.0
C85 C 0.07167 0.4161 0.62903 0.0
N86 N 0.06946 0.44987 0.66386 0.0
C87 C 0.08133 0.4598 0.68737 0.0
Co88 Co 0.01315 0.05478 0.52129 0.0
C89 C 0.03951 0.00198 0.51838 0.0
Co90 Co 0.05717 0.05539 0.53615 0.0
C91 C 0.95793 0.07122 0.50244 0.0
C92 C 0.95817 0.0243 0.51326 0.0
N93 N 0.97533 0.05027 0.51066 0.0
N94 N 0.93062 0.05928 0.50015 0.0
C95 C 0.93086 0.02972 0.5067 0.0
H96 H 0.96481 0.09489 0.4996 0.0
H97 H 0.96469 0.00282 0.52071 0.0
C98 C 0.03102 0.10819 0.53919 0.0
N99 N 0.0946 0.06026 0.5471 0.0
C100 C 0.10979 0.04172 0.56286 0.0
C101 C 0.11257 0.08539 0.54093 0.0
N102 N 0.13636 0.05461 0.56698 0.0
C103 C 0.13813 0.08203 0.55317 0.0
C104 C 0.05306 0.07486 0.47976 0.0
O105 O 1.00942 0.0943 0.5294 0.0
O106 O 0.05323 0.09496 0.5436 0.0
O107 O 0.06984 0.06971 0.49934 0.0
O108 O 0.02615 0.06992 0.48456 0.0
O109 O 0.0609 0.01564 0.52878 0.0
H110 H 0.10736 0.10501 0.52831 0.0
H111 H 0.10142 0.01946 0.57143 0.0
O112 O 0.01752 0.01544 0.51329 0.0
O113 O 1.00044 0.03952 0.55801 0.0
O114 O 0.04416 0.04093 0.57281 0.0
C115 C 0.01736 0.03489 0.57757 0.0
H116 H 0.91248 0.01315 0.50736 0.0
H117 H 0.15682 0.0983 0.55161 0.0
Co118 Co 0.50209 0.02328 0.03814 0.0
C119 C 0.49629 0.97464 0.07863 0.0
Co120 Co 0.52725 0.02969 0.07489 0.0
C121 C 0.48729 0.01574 0.98206 0.0
C122 C 0.45068 0.00971 1.00947 0.0
N123 N 0.4793 0.01673 1.00851 0.0
N124 N 0.4648 0.00829 0.96653 0.0
C125 C 0.44171 0.00463 0.98373 0.0
H126 H 0.50925 0.01993 0.97443 0.0
H127 H 0.43724 0.0074 0.02788 0.0
C128 C 0.53303 0.07845 0.03454 0.0
N129 N 0.55 0.03595 0.10438 0.0
C130 C 0.54254 0.03311 0.1313 0.0
C131 C 0.57828 0.04499 0.10313 0.0
N132 N 0.56512 0.03995 0.1469 0.0
C133 C 0.58764 0.0474 0.12921 0.0
C134 C 0.55627 0.00481 0.03368 0.0
O135 O 0.51577 0.0621 0.02143 0.0
O136 O 0.54073 0.06831 0.05808 0.0
O137 O 0.55799 0.0134 0.05748 0.0
O138 O 0.53314 0.00699 0.02097 0.0
O139 O 0.51356 0.99107 0.0916 0.0
H140 H 0.59118 0.05001 0.08439 0.0
H141 H 0.52097 0.02625 0.13927 0.0
O142 O 0.48861 0.98457 0.05501 0.0
O143 O 0.47134 0.03969 0.0557 0.0
O144 O 0.49638 0.04596 0.09215 0.0
C145 C 0.47322 0.04826 0.07953 0.0
H146 H 0.42005 0.99744 0.97838 0.0
H147 H 0.60915 0.05507 0.13462 0.0
Co148 Co 0.55314 0.56679 0.54857 0.0
C149 C 0.50952 0.56598 0.51048 0.0
Co150 Co 0.51308 0.53935 0.56305 0.0
C151 C 0.61283 0.58646 0.53443 0.0
C152 C 0.58488 0.61975 0.52305 0.0
N153 N 0.58513 0.59179 0.5354 0.0
N154 N 0.62989 0.61006 0.52192 0.0
C155 C 0.61226 0.63101 0.51479 0.0
H156 H 0.62023 0.56559 0.54259 0.0
H157 H 0.56587 0.63099 0.51969 0.0
C158 C 0.55662 0.54007 0.6011 0.0
N159 N 0.48103 0.51421 0.57599 0.0
C160 C 0.45303 0.51819 0.57415 0.0
C161 C 0.48141 0.4867 0.58931 0.0
N162 N 0.43594 0.49409 0.58569 0.0
C163 C 0.45382 0.47432 0.59529 0.0
C164 C 0.55295 0.50919 0.53681 0.0
O165 O 0.57093 0.55758 0.58261 0.0
O166 O 0.5312 0.52989 0.59644 0.0
O167 O 0.52821 0.5068 0.54827 0.0
O168 O 0.56806 0.53424 0.53452 0.0
O169 O 0.49519 0.54912 0.52937 0.0
H170 H 0.50058 0.47626 0.59429 0.0
H171 H 0.44539 0.53814 0.56412 0.0
O172 O 0.53518 0.57577 0.51473 0.0
O173 O 0.538 0.59912 0.56273 0.0
O174 O 0.49832 0.57211 0.57786 0.0
C175 C 0.51369 0.59709 0.5749 0.0
H176 H 0.61849 0.65264 0.50356 0.0
H177 H 0.44747 0.45253 0.60617 0.0
Co178 Co 0.01742 0.55962 1.01248 0.0
C179 C 0.95994 0.53639 0.02256 0.0
Co180 Co 1.00011 0.56271 0.05413 0.0
C181 C 0.05094 0.54937 0.9641 0.0
C182 C 0.01375 0.57164 0.95484 0.0
N183 N 0.02834 0.55978 0.97596 0.0
N184 N 0.0511 0.55484 0.93647 0.0
C185 C 0.02772 0.5688 0.93066 0.0
H186 H 0.06695 0.53814 0.97544 0.0
H187 H 0.99392 0.58147 0.95684 0.0
C188 C 0.05767 0.58547 0.04445 0.0
N189 N 0.98945 0.56257 0.09081 0.0
C190 C 0.9678 0.57404 0.10325 0.0
C191 C 1.00392 0.54976 0.11157 0.0
N192 N 0.96805 0.5681 0.13084 0.0
C193 C 0.99075 0.55289 0.13602 0.0
C194 C 0.02635 0.50999 0.04633 0.0
O195 O 0.05421 0.57782 0.02043 0.0
O196 O 0.03661 0.58136 0.06154 0.0
O197 O 0.01352 0.52438 0.06277 0.0
O198 O 0.03035 0.5211 0.02147 0.0
O199 O 0.96378 0.54388 0.04657 0.0
H200 H 0.02335 0.53934 0.10921 0.0
H201 H 0.95234 0.58657 0.0924 0.0
O202 O 0.98052 0.5413 1.0049 0.0
O203 O 1.00457 0.59811 1.00388 0.0
O204 O 0.98666 0.60109 0.04488 0.0
C205 C 0.99128 0.61237 0.0201 0.0
H206 H 0.02074 0.57563 0.91027 0.0
H207 H 0.99801 0.54567 0.15621 0.0
C208 C 0.19025 0.16811 0.26691 0.0
C209 C 0.17543 0.17611 0.24306 0.0
C210 C 0.17551 0.15747 0.29164 0.0
C211 C 0.10524 0.15341 0.32897 0.0
H212 H 0.1355 0.08894 0.3737 0.0
C213 C 0.04757 0.09331 0.42975 0.0
C214 C 0.06522 0.08645 0.45188 0.0
C215 C 0.05954 0.10412 0.40364 0.0
C216 C 0.12686 0.10714 0.36165 0.0
H217 H 0.1332 0.17973 0.22697 0.0
H218 H 0.10736 0.16106 0.27023 0.0
H219 H 0.15879 0.1082 0.3298 0.0
H220 H 0.10941 0.08599 0.46373 0.0
H221 H 0.13004 0.10479 0.41868 0.0
H222 H 0.07325 0.15222 0.36106 0.0
C223 C 0.13052 0.16321 0.26976 0.0
C224 C 0.14028 0.11825 0.33638 0.0
C225 C 0.14535 0.17392 0.24491 0.0
C226 C 0.09506 0.09082 0.44723 0.0
C227 C 0.10696 0.10148 0.42124 0.0
C228 C 0.09173 0.14222 0.35433 0.0
C229 C 0.14541 0.15445 0.29341 0.0
C230 C 0.12996 0.14184 0.31979 0.0
C231 C 0.08944 0.10818 0.39899 0.0
C232 C 0.10261 0.11918 0.37121 0.0
H233 H 0.21341 0.17018 0.26654 0.0
H234 H 0.18782 0.15175 0.30949 0.0
H235 H 0.09674 0.17169 0.31691 0.0
H236 H 0.02451 0.09026 0.43256 0.0
H237 H 0.04536 0.10884 0.38699 0.0
C238 C 0.42807 0.93578 0.73648 0.0
C239 C 0.44991 0.92118 0.72557 0.0
C240 C 0.43059 0.94609 0.76226 0.0
C241 C 0.4698 0.93684 0.82676 0.0
H242 H 0.44423 0.01348 0.83759 0.0
C243 C 0.48916 0.99102 0.92695 0.0
C244 C 0.46535 0.00224 0.9383 0.0
C245 C 0.4886 0.98271 0.90031 0.0
C246 C 0.45131 0.99197 0.83491 0.0
H247 H 0.49158 0.90608 0.73307 0.0
H248 H 0.4961 0.92421 0.77799 0.0
H249 H 0.44026 0.99512 0.79269 0.0
H250 H 0.42284 0.01475 0.93022 0.0
H251 H 0.42178 1.00011 0.88379 0.0
H252 H 0.48087 0.93374 0.869 0.0
C253 C 0.47679 0.92726 0.76685 0.0
C254 C 0.44895 0.98139 0.80923 0.0
C255 C 0.4742 0.91685 0.74111 0.0
C256 C 0.44137 0.00588 0.92213 0.0
C257 C 0.44088 0.99775 0.89546 0.0
C258 C 0.47227 0.94748 0.85241 0.0
C259 C 0.45508 0.94214 0.77768 0.0
C260 C 0.45801 0.95361 0.80489 0.0
C261 C 0.46431 0.98565 0.88441 0.0
C262 C 0.4629 0.97507 0.85681 0.0
H263 H 0.40893 0.93909 0.72512 0.0
H264 H 0.41323 0.95695 0.77021 0.0
H265 H 0.47661 0.91517 0.82425 0.0
H266 H 0.50785 0.98771 0.93896 0.0
H267 H 0.5071 0.97374 0.89223 0.0
C268 C 0.59983 0.45095 0.83492 0.0
C269 C 0.62048 0.46655 0.84962 0.0
C270 C 0.59804 0.45822 0.80668 0.0
C271 C 0.61574 0.52007 0.75222 0.0
H272 H 0.59474 0.4585 0.70491 0.0
C273 C 0.59471 0.54588 0.63606 0.0
C274 C 0.56898 0.53121 0.62784 0.0
C275 C 0.60547 0.53769 0.6619 0.0
C276 C 0.60062 0.47595 0.71787 0.0
H277 H 0.65574 0.50146 0.84707 0.0
H278 H 0.65292 0.51419 0.79736 0.0
H279 H 0.60577 0.44444 0.75256 0.0
H280 H 0.53471 0.4961 0.64002 0.0
H281 H 0.55344 0.48192 0.68469 0.0
H282 H 0.61004 0.55155 0.7175 0.0
C283 C 0.63791 0.49655 0.80757 0.0
C284 C 0.60687 0.4679 0.74517 0.0
C285 C 0.63966 0.48922 0.83589 0.0
C286 C 0.55456 0.50793 0.6457 0.0
C287 C 0.56541 0.4996 0.67126 0.0
C288 C 0.6096 0.52812 0.72481 0.0
C289 C 0.61693 0.48124 0.79266 0.0
C290 C 0.61376 0.48985 0.76287 0.0
C291 C 0.59088 0.51445 0.67973 0.0
C292 C 0.60124 0.50612 0.70758 0.0
H293 H 0.58476 0.43347 0.84534 0.0
H294 H 0.58132 0.44632 0.79598 0.0
H295 H 0.62076 0.53754 0.76534 0.0
H296 H 0.6063 0.56391 0.62273 0.0
H297 H 0.62521 0.54944 0.66789 0.0
C298 C 0.98953 0.64578 0.33803 0.0
C299 C 0.96974 0.64401 0.35994 0.0
C300 C 0.98016 0.64221 0.31166 0.0
C301 C 0.92059 0.60836 0.27456 0.0
H302 H 0.96323 0.65308 0.21243 0.0
C303 C 0.94337 0.55987 0.17579 0.0
C304 C 0.95087 0.57857 0.15154 0.0
C305 C 0.93436 0.5716 0.19921 0.0
C306 C 0.95046 0.64083 0.22935 0.0
H307 H 0.92489 0.6375 0.37216 0.0
H308 H 0.90822 0.63105 0.32576 0.0
H309 H 0.97085 0.66771 0.25812 0.0
H310 H 0.95193 0.62356 0.13168 0.0
H311 H 0.93571 0.64437 0.17273 0.0
H312 H 0.90068 0.58103 0.24578 0.0
C313 C 0.93097 0.63504 0.3289 0.0
C314 C 0.95521 0.64895 0.25567 0.0
C315 C 0.94043 0.6387 0.35536 0.0
C316 C 0.94624 0.60874 0.1502 0.0
C317 C 0.93726 0.62062 0.17376 0.0
C318 C 0.91571 0.6003 0.24817 0.0
C319 C 0.95077 0.63689 0.30673 0.0
C320 C 0.94137 0.63195 0.27868 0.0
C321 C 0.93271 0.60241 0.19891 0.0
C322 C 0.93161 0.61557 0.2254 0.0
H323 H 0.01226 0.64993 0.34129 0.0
H324 H 0.99603 0.6431 0.2952 0.0
H325 H 0.90945 0.59488 0.29184 0.0
H326 H 0.94662 0.53647 0.17714 0.0
H327 H 0.93125 0.55683 0.2181 0.0
C328 C 0.25692 0.13486 0.18066 0.0
C329 C 0.25767 0.16614 0.17794 0.0
C330 C 0.28044 0.12107 0.17208 0.0
C331 C 0.35856 0.13549 0.15407 0.0
H332 H 0.34429 0.06621 0.11435 0.0
C333 C 0.45056 0.07068 0.11847 0.0
C334 C 0.44869 0.06075 0.09226 0.0
C335 C 0.42743 0.08255 0.13026 0.0
C336 C 0.34872 0.08564 0.12527 0.0
H337 H 0.28441 0.20733 0.16497 0.0
H338 H 0.32503 0.18343 0.14976 0.0
H339 H 0.3041 0.08876 0.13258 0.0
H340 H 0.42079 0.05558 0.05801 0.0
H341 H 0.38075 0.07644 0.07838 0.0
H342 H 0.40315 0.13285 0.14615 0.0
C343 C 0.30635 0.16945 0.1586 0.0
C344 C 0.3256 0.09838 0.13606 0.0
C345 C 0.28286 0.1832 0.16707 0.0
C346 C 0.42304 0.06292 0.07824 0.0
C347 C 0.39993 0.07472 0.09004 0.0
C348 C 0.38168 0.12271 0.14335 0.0
C349 C 0.30543 0.13818 0.16072 0.0
C350 C 0.33016 0.12366 0.15042 0.0
C351 C 0.40176 0.08476 0.11622 0.0
C352 C 0.37711 0.09774 0.12857 0.0
H353 H 0.23786 0.12099 0.1888 0.0
H354 H 0.27902 0.09694 0.17436 0.0
H355 H 0.36299 0.15472 0.16526 0.0
H356 H 0.46992 0.06928 0.12992 0.0
H357 H 0.42957 0.0897 0.15057 0.0
C358 C 0.35156 0.94233 0.62058 0.0
C359 C 0.37436 0.96114 0.62916 0.0
C360 C 0.32412 0.95146 0.6195 0.0
C361 C 0.28841 0.01966 0.61165 0.0
H362 H 0.21955 0.96551 0.6294 0.0
C363 C 0.17849 0.06023 0.59558 0.0
C364 C 0.15902 0.04193 0.58177 0.0
C365 C 0.20285 0.04933 0.60671 0.0
C366 C 0.2386 0.98084 0.62427 0.0
H367 H 0.38702 0.00355 0.64415 0.0
H368 H 0.33884 0.01975 0.64245 0.0
H369 H 0.26635 0.94856 0.63917 0.0
H370 H 0.14884 0.99747 0.57002 0.0
H371 H 0.19186 0.97834 0.58907 0.0
H372 H 0.26098 0.05167 0.59606 0.0
C373 C 0.34208 0.99808 0.63626 0.0
C374 C 0.26537 0.97116 0.62987 0.0
C375 C 0.36954 0.98888 0.63733 0.0
C376 C 0.1635 0.01196 0.58067 0.0
C377 C 0.1881 1.00105 0.59162 0.0
C378 C 0.26173 0.0293 0.60603 0.0
C379 C 0.31914 0.97962 0.62697 0.0
C380 C 0.29058 0.99039 0.62332 0.0
C381 C 0.20846 0.01992 0.60404 0.0
C382 C 0.23651 0.00994 0.61202 0.0
H383 H 0.35506 0.92079 0.61419 0.0
H384 H 0.30704 0.9369 0.61191 0.0
H385 H 0.3074 0.03485 0.60586 0.0
H386 H 0.17517 0.08326 0.59717 0.0
H387 H 0.21772 0.06421 0.61676 0.0
C388 C 0.71813 0.42515 0.9774 0.0
C389 C 0.71029 0.43126 0.95006 0.0
C390 C 0.74535 0.43535 0.98562 0.0
C391 C 0.81872 0.45829 0.9604 0.0
H392 H 0.82527 0.50192 0.02425 0.0
C393 C 0.92547 0.52143 0.98712 0.0
C394 C 0.93174 0.52272 0.01488 0.0
C395 C 0.89863 0.50925 0.97965 0.0
C396 C 0.82394 0.48934 1.00666 0.0
H397 H 0.72479 0.4523 0.90978 0.0
H398 H 0.77268 0.46981 0.9241 0.0
H399 H 0.77821 0.48205 1.01045 0.0
H400 H 0.915 0.51173 0.05661 0.0
H401 H 0.86844 0.4895 0.04366 0.0
H402 H 0.86436 0.46488 0.95681 0.0
C403 C 0.75767 0.45724 0.93914 0.0
C404 C 0.79693 0.47809 0.99871 0.0
C405 C 0.73029 0.44742 0.931 0.0
C406 C 0.91072 0.51122 0.03504 0.0
C407 C 0.88396 0.49865 0.02757 0.0
C408 C 0.84577 0.46916 0.96856 0.0
C409 C 0.76536 0.45149 0.96657 0.0
C410 C 0.79407 0.46267 0.97539 0.0
C411 C 0.87749 0.49766 0.99976 0.0
C412 C 0.84874 0.48507 0.99167 0.0
H413 H 0.70301 0.41293 0.99254 0.0
H414 H 0.75081 0.43048 1.00685 0.0
H415 H 0.81709 0.44614 0.94253 0.0
H416 H 0.94115 0.53035 0.97108 0.0
H417 H 0.89432 0.50945 0.95803 0.0
C418 C 0.88759 0.62816 0.46393 0.0
C419 C 0.8981 0.65854 0.46062 0.0
C420 C 0.8583 0.61946 0.46878 0.0
C421 C 0.78779 0.64847 0.46175 0.0
H422 H 0.76239 0.58696 0.52074 0.0
C423 C 0.67619 0.64047 0.51146 0.0
C424 C 0.66024 0.61232 0.5159 0.0
C425 C 0.70508 0.64312 0.50368 0.0
C426 C 0.76917 0.60389 0.50397 0.0
H427 H 0.8861 0.70358 0.45884 0.0
H428 H 0.83541 0.68854 0.46767 0.0
H429 H 0.81337 0.59684 0.5079 0.0
H430 H 0.66256 0.56473 0.51634 0.0
H431 H 0.71342 0.56942 0.50308 0.0
H432 H 0.74386 0.65612 0.45825 0.0
C433 C 0.8496 0.67136 0.46642 0.0
C434 C 0.79831 0.6095 0.49658 0.0
C435 C 0.87873 0.67999 0.46171 0.0
C436 C 0.67422 0.58674 0.51328 0.0
C437 C 0.70331 0.5894 0.50561 0.0
C438 C 0.75881 0.64295 0.46918 0.0
C439 C 0.83901 0.64103 0.47008 0.0
C440 C 0.80797 0.63238 0.47583 0.0
C441 C 0.71886 0.61768 0.50026 0.0
C442 C 0.74927 0.62113 0.49079 0.0
H443 H 0.90207 0.61115 0.46325 0.0
H444 H 0.85073 0.59592 0.47136 0.0
H445 H 0.79447 0.66576 0.44525 0.0
H446 H 0.66637 0.66059 0.51395 0.0
H447 H 0.71669 0.66517 0.50034 0.0
C448 C 0.14591 0.28633 0.11748 0.0
C449 C 0.15062 0.28111 0.14561 0.0
C450 C 0.12983 0.30913 0.10733 0.0
C451 C 0.10526 0.38013 0.12598 0.0
H452 H 0.06105 0.3747 0.06044 0.0
C453 C 0.03577 0.47214 0.08529 0.0
C454 C 0.03781 0.4817 0.05698 0.0
C455 C 0.04798 0.44676 0.09607 0.0
C456 C 0.07349 0.37664 0.07863 0.0
H457 H 0.14198 0.29505 0.18546 0.0
H458 H 0.11286 0.33441 0.16802 0.0
H459 H 0.08338 0.33149 0.08026 0.0
H460 H 0.0539 0.47135 0.01778 0.0
H461 H 0.07495 0.42657 0.03665 0.0
H462 H 0.09497 0.4252 0.12447 0.0
C463 C 0.12198 0.32129 0.15355 0.0
C464 C 0.08638 0.35184 0.09005 0.0
C465 C 0.13833 0.29851 0.16367 0.0
C466 C 0.05186 0.46466 0.03964 0.0
C467 C 0.06387 0.43895 0.05046 0.0
C468 C 0.09212 0.40479 0.11473 0.0
C469 C 0.11793 0.32733 0.12512 0.0
C470 C 0.10268 0.35323 0.11381 0.0
C471 C 0.06239 0.42992 0.07889 0.0
C472 C 0.0762 0.40345 0.09082 0.0
H473 H 0.15563 0.27347 0.10311 0.0
H474 H 0.12779 0.31321 0.08535 0.0
H475 H 0.11805 0.38249 0.14389 0.0
H476 H 0.02507 0.48455 0.09935 0.0
H477 H 0.04607 0.44026 0.11798 0.0
C478 C 0.6331 0.33716 0.97707 0.0
C479 C 0.62813 0.35125 0.95095 0.0
C480 C 0.62141 0.30787 0.98503 0.0
C481 C 0.59186 0.23876 0.95747 0.0
H482 H 0.56283 0.21727 0.03224 0.0
C483 C 0.53544 0.12131 0.99726 0.0
C484 C 0.54352 0.10932 0.02322 0.0
C485 C 0.54472 0.15091 0.98732 0.0
C486 C 0.57105 0.22287 1.01135 0.0
H487 H 0.60703 0.34551 0.91265 0.0
H488 H 0.58613 0.29447 0.92678 0.0
H489 H 0.58051 0.26889 0.01709 0.0
H490 H 0.56809 0.11891 0.05886 0.0
H491 H 0.58424 0.17021 0.04151 0.0
H492 H 0.58237 0.19256 0.95186 0.0
C493 C 0.59935 0.30602 0.94098 0.0
C494 C 0.58122 0.25245 1.00267 0.0
C495 C 0.61106 0.33537 0.93301 0.0
C496 C 0.56133 0.12742 0.03883 0.0
C497 C 0.57046 0.15693 0.02897 0.0
C498 C 0.58159 0.20911 0.96616 0.0
C499 C 0.60437 0.29194 0.96711 0.0
C500 C 0.59211 0.26071 0.97574 0.0
C501 C 0.56209 0.16911 1.00322 0.0
C502 C 0.57145 0.20079 0.99332 0.0
H503 H 0.64586 0.34885 0.99151 0.0
H504 H 0.62602 0.29759 1.00516 0.0
H505 H 0.60035 0.24432 0.93667 0.0
H506 H 0.52173 0.10793 0.98474 0.0
H507 H 0.53782 0.15973 0.96745 0.0
C508 C 0.96452 0.75411 0.47724 0.0
C509 C 0.9821 0.73108 0.47563 0.0
C510 C 0.97514 0.781 0.48638 0.0
C511 C 0.04039 0.83065 0.49106 0.0
H512 H 0.99062 0.87012 0.53603 0.0
C513 C 0.06177 0.95355 0.52096 0.0
C514 C 0.03873 0.9701 0.51408 0.0
C515 C 0.0593 0.92271 0.51916 0.0
C516 C 1.00486 0.85927 0.52366 0.0
H517 H 0.02485 0.71843 0.48249 0.0
H518 H 0.04365 0.76606 0.4982 0.0
H519 H 0.978 0.81797 0.52924 0.0
H520 H 0.99555 0.96743 0.49885 0.0
H521 H 0.99128 0.9141 0.49615 0.0
H522 H 0.06677 0.87261 0.48491 0.0
C523 C 0.02152 0.76294 0.49241 0.0
C524 C 0.99763 0.82949 0.51971 0.0
C525 C 0.01076 0.73575 0.48339 0.0
C526 C 0.01365 0.95543 0.50457 0.0
C527 C 0.0111 0.92482 0.50311 0.0
C528 C 0.04774 0.86058 0.49517 0.0
C529 C 1.00373 0.78579 0.49403 0.0
C530 C 0.01466 0.81522 0.50246 0.0
C531 C 0.03363 0.90808 0.51084 0.0
C532 C 0.0294 0.87536 0.51063 0.0
H533 H 0.94263 0.75177 0.47065 0.0
H534 H 0.96108 0.79843 0.4867 0.0
H535 H 0.05388 0.82021 0.47762 0.0
H536 H 0.08139 0.96425 0.52831 0.0
H537 H 0.077 0.91019 0.52509 0.0
C538 C 0.48055 0.842 0.63775 0.0
C539 C 0.46249 0.84508 0.66015 0.0
C540 C 0.48429 0.81382 0.63026 0.0
C541 C 0.47463 0.73307 0.65373 0.0
H542 H 0.47649 0.72694 0.57544 0.0
C543 C 0.48162 0.62181 0.60502 0.0
C544 C 0.5039 0.62388 0.58516 0.0
C545 C 0.47365 0.64759 0.61522 0.0
C546 C 0.47597 0.72832 0.59736 0.0
H547 H 0.43491 0.82118 0.69289 0.0
H548 H 0.44123 0.77169 0.67964 0.0
H549 H 0.46921 0.77436 0.59209 0.0
H550 H 0.53487 0.65447 0.55999 0.0
H551 H 0.52073 0.6991 0.5774 0.0
H552 H 0.48149 0.68677 0.65874 0.0
C553 C 0.45273 0.79107 0.66804 0.0
C554 C 0.47201 0.75551 0.60691 0.0
C555 C 0.44914 0.81936 0.67565 0.0
C556 C 0.51766 0.6521 0.57535 0.0
C557 C 0.50947 0.67771 0.58519 0.0
C558 C 0.47842 0.70571 0.64412 0.0
C559 C 0.46984 0.78806 0.64486 0.0
C560 C 0.472 0.75842 0.63516 0.0
C561 C 0.4875 0.67576 0.60527 0.0
C562 C 0.47977 0.70333 0.61581 0.0
H563 H 0.49141 0.86148 0.6257 0.0
H564 H 0.49825 0.81225 0.61276 0.0
H565 H 0.47477 0.73461 0.67561 0.0
H566 H 0.47072 0.60031 0.61299 0.0
H567 H 0.45658 0.64558 0.63068 0.0
C568 C 0.91531 0.90041 0.7963 0.0
C569 C 0.90494 0.91944 0.81415 0.0
C570 C 0.9294 0.91208 0.77138 0.0
C571 C 0.96753 0.9813 0.73461 0.0
H572 H 0.94577 0.9449 0.66899 0.0
C573 C 0.02374 0.01898 0.62779 0.0
C574 C 1.00582 0.02174 0.60522 0.0
C575 C 0.01273 0.00604 0.65362 0.0
C576 C 0.95206 0.9554 0.6871 0.0
H577 H 0.90229 0.96576 0.82016 0.0
H578 H 0.92684 0.98605 0.7769 0.0
H579 H 0.92482 0.92317 0.71349 0.0
H580 H 0.96218 0.01286 0.5923 0.0
H581 H 0.94313 0.99032 0.63714 0.0
H582 H 0.99448 0.01377 0.70813 0.0
C583 C 0.92407 0.9621 0.78207 0.0
C584 C 0.94026 0.94274 0.71268 0.0
C585 C 0.90976 0.95044 0.8068 0.0
C586 C 0.97665 0.01118 0.60917 0.0
C587 C 0.96573 0.99802 0.63489 0.0
C588 C 0.97954 0.99381 0.70904 0.0
C589 C 0.93379 0.9431 0.76384 0.0
C590 C 0.94761 0.95567 0.73677 0.0
C591 C 0.98359 0.99523 0.65748 0.0
C592 C 0.97174 0.98121 0.68489 0.0
H593 H 0.91182 0.87644 0.80124 0.0
H594 H 0.93682 0.8968 0.75797 0.0
H595 H 0.97388 0.99173 0.75273 0.0
H596 H 0.04631 0.02679 0.62551 0.0
H597 H 0.02716 0.00406 0.67049 0.0
C598 C 0.59669 0.14444 0.3602 0.0
C599 C 0.62626 0.14556 0.36432 0.0
C600 C 0.5836 0.12532 0.34252 0.0
C601 C 0.59521 0.06202 0.30247 0.0
H602 H 0.54987 0.10318 0.24858 0.0
C603 C 0.59004 0.03773 0.19064 0.0
C604 C 0.56512 0.04174 0.17601 0.0
C605 C 0.59146 0.04321 0.21804 0.0
C606 C 0.56185 0.09098 0.26376 0.0
H607 H 0.66508 0.12669 0.35398 0.0
H608 H 0.64238 0.09353 0.32308 0.0
H609 H 0.56344 0.12613 0.2896 0.0
H610 H 0.52157 0.05302 0.17904 0.0
H611 H 0.52397 0.06244 0.22712 0.0
H612 H 0.59472 0.02751 0.2758 0.0
C613 C 0.62914 0.10702 0.33381 0.0
C614 C 0.56966 0.10417 0.28733 0.0
C615 C 0.6422 0.12611 0.35149 0.0
C616 C 0.54105 0.04968 0.1898 0.0
C617 C 0.54249 0.05529 0.21725 0.0
C618 C 0.5874 0.04882 0.27885 0.0
C619 C 0.59984 0.10696 0.32859 0.0
C620 C 0.58725 0.09031 0.30648 0.0
C621 C 0.56799 0.05288 0.23143 0.0
C622 C 0.57147 0.06366 0.25881 0.0
H623 H 0.58378 0.15885 0.37018 0.0
H624 H 0.56091 0.12546 0.33921 0.0
H625 H 0.60834 0.05056 0.31711 0.0
H626 H 0.60875 0.03116 0.18066 0.0
H627 H 0.61151 0.0414 0.22826 0.0
C628 C 0.37842 0.60768 0.30045 0.0
C629 C 0.39443 0.61862 0.2765 0.0
C630 C 0.39144 0.60595 0.3258 0.0
C631 C 0.46215 0.60077 0.35598 0.0
H632 H 0.42138 0.61266 0.4228 0.0
C633 C 0.51351 0.59068 0.46224 0.0
C634 C 0.49667 0.57431 0.48383 0.0
C635 C 0.50156 0.59853 0.43699 0.0
C636 C 0.43295 0.60908 0.40432 0.0
H637 H 0.43613 0.63702 0.25967 0.0
H638 H 0.45912 0.63462 0.30425 0.0
H639 H 0.39989 0.62377 0.37854 0.0
H640 H 0.45398 0.55358 0.49589 0.0
H641 H 0.43312 0.56732 0.45175 0.0
H642 H 0.49517 0.586 0.38185 0.0
C643 C 0.43658 0.62697 0.30353 0.0
C644 C 0.42066 0.61545 0.37895 0.0
C645 C 0.42347 0.6286 0.27809 0.0
C646 C 0.46754 0.56616 0.47967 0.0
C647 C 0.45555 0.5742 0.45445 0.0
C648 C 0.47451 0.59458 0.38135 0.0
C649 C 0.42078 0.61519 0.32766 0.0
C650 C 0.43492 0.61097 0.35447 0.0
C651 C 0.47246 0.59038 0.43281 0.0
C652 C 0.45988 0.5983 0.40582 0.0
H653 H 0.35597 0.59961 0.29947 0.0
H654 H 0.37869 0.59632 0.3438 0.0
H655 H 0.47356 0.59659 0.33763 0.0
H656 H 0.53601 0.59739 0.46476 0.0
H657 H 0.51507 0.61124 0.42081 0.0
C658 C 0.09835 0.44624 0.73352 0.0
C659 C 0.09187 0.46823 0.71306 0.0
C660 C 0.10533 0.45381 0.75965 0.0
C661 C 0.12409 0.51793 0.79986 0.0
H662 H 0.07769 0.46917 0.85733 0.0
C663 C 0.07665 0.56408 0.89181 0.0
C664 C 0.07019 0.54577 0.91648 0.0
C665 C 0.09002 0.55329 0.86988 0.0
C666 C 0.09148 0.48265 0.84181 0.0
H667 H 0.08847 0.51522 0.7028 0.0
H668 H 0.10038 0.52867 0.74853 0.0
H669 H 0.08106 0.45231 0.81214 0.0
H670 H 0.07465 0.50267 0.93849 0.0
H671 H 0.09825 0.48353 0.89997 0.0
H672 H 0.13333 0.54898 0.82932 0.0
C673 C 0.10057 0.50566 0.74453 0.0
C674 C 0.09335 0.473 0.8158 0.0
C675 C 0.09356 0.49802 0.71844 0.0
C676 C 0.07944 0.51719 0.91964 0.0
C677 C 0.09271 0.50622 0.89755 0.0
C678 C 0.12227 0.52757 0.82593 0.0
C679 C 0.10587 0.48353 0.76563 0.0
C680 C 0.10873 0.49108 0.79425 0.0
C681 C 0.09715 0.52381 0.87209 0.0
C682 C 0.10497 0.51061 0.84687 0.0
H683 H 0.09713 0.42308 0.72958 0.0
H684 H 0.10954 0.43632 0.77537 0.0
H685 H 0.13657 0.53207 0.7838 0.0
H686 H 0.07 0.58632 0.88904 0.0
H687 H 0.09284 0.56741 0.85059 0.0
C688 C 0.77971 0.92726 0.93985 0.0
C689 C 0.77627 0.91614 0.9144 0.0
C690 C 0.75582 0.93347 0.95502 0.0
C691 C 0.67541 0.92276 0.95915 0.0
H692 H 0.68468 0.99565 0.99431 0.0
C693 C 0.57897 0.98089 0.9957 0.0
C694 C 0.58109 0.99275 0.02105 0.0
C695 C 0.60257 0.96978 0.98392 0.0
C696 C 0.68173 0.97505 0.98488 0.0
H697 H 0.74552 0.90237 0.88482 0.0
H698 H 0.70389 0.91329 0.91093 0.0
H699 H 0.72598 0.97835 0.9727 0.0
H700 H 0.60986 0.00209 0.05385 0.0
H701 H 0.65081 0.98286 0.03334 0.0
H702 H 0.63092 0.91998 0.97088 0.0
C703 C 0.72474 0.9167 0.91974 0.0
C704 C 0.70553 0.96499 0.97253 0.0
C705 C 0.74861 0.91039 0.90471 0.0
C706 C 0.60739 0.99317 0.03429 0.0
C707 C 0.63098 0.98227 0.02245 0.0
C708 C 0.65156 0.93295 0.97136 0.0
C709 C 0.728 0.929 0.94485 0.0
C710 C 0.70276 0.93874 0.95936 0.0
C711 C 0.62895 0.97046 0.99708 0.0
C712 C 0.65437 0.95929 0.98432 0.0
H713 H 0.80093 0.93226 0.94753 0.0
H714 H 0.75924 0.94241 0.97445 0.0
H715 H 0.67237 0.90223 0.94963 0.0
H716 H 0.55909 0.98023 0.98489 0.0
H717 H 0.60028 0.96113 0.96424 0.0
C718 C 0.7298 0.19279 0.42208 0.0
C719 C 0.70309 0.17602 0.42764 0.0
C720 C 0.75452 0.18277 0.43355 0.0
C721 C 0.78095 0.11204 0.45965 0.0
H722 H 0.84684 0.16252 0.48061 0.0
C723 C 0.87867 0.06211 0.50507 0.0
C724 C 0.90575 0.07477 0.49455 0.0
C725 C 0.85433 0.07633 0.49904 0.0
C726 C 0.82865 0.14822 0.47463 0.0
H727 H 0.68086 0.13702 0.45115 0.0
H728 H 0.72383 0.11984 0.47171 0.0
H729 H 0.80297 0.18455 0.46784 0.0
H730 H 0.92852 0.1128 0.47 0.0
H731 H 0.88573 0.13778 0.45934 0.0
H732 H 0.80648 0.07581 0.46618 0.0
C733 C 0.72589 0.14025 0.45788 0.0
C734 C 0.80354 0.1608 0.46736 0.0
C735 C 0.70126 0.15013 0.44626 0.0
C736 C 0.90799 0.10252 0.47847 0.0
C737 C 0.88352 0.11683 0.47242 0.0
C738 C 0.80591 0.09953 0.46697 0.0
C739 C 0.75293 0.15587 0.4509 0.0
C740 C 0.77938 0.14281 0.45981 0.0
C741 C 0.85638 0.10362 0.48234 0.0
C742 C 0.83003 0.11742 0.47457 0.0
H743 H 0.73183 0.2127 0.40759 0.0
H744 H 0.77499 0.19525 0.4276 0.0
H745 H 0.76307 0.09762 0.45325 0.0
H746 H 0.87621 0.0412 0.51815 0.0
H747 H 0.83382 0.0659 0.50748 0.0
C748 C 0.27552 0.62958 0.16842 0.0
C749 C 0.30133 0.63985 0.15401 0.0
C750 C 0.25031 0.62419 0.1544 0.0
C751 C 0.21695 0.64127 0.08742 0.0
H752 H 0.16148 0.5758 0.11682 0.0
C753 C 0.11049 0.60019 0.03586 0.0
C754 C 0.08629 0.59621 0.05373 0.0
C755 C 0.13784 0.60692 0.0459 0.0
C756 C 0.17677 0.5942 0.10842 0.0
H757 H 0.32114 0.65227 0.11361 0.0
H758 H 0.27713 0.64214 0.08893 0.0
H759 H 0.20746 0.58339 0.13831 0.0
H760 H 0.07178 0.59742 0.09591 0.0
H761 H 0.11927 0.60874 0.11321 0.0
H762 H 0.18597 0.65157 0.0572 0.0
C763 C 0.27623 0.63884 0.11113 0.0
C764 C 0.20307 0.59868 0.1208 0.0
C765 C 0.30145 0.64453 0.12522 0.0
C766 C 0.08991 0.6002 0.08154 0.0
C767 C 0.11712 0.60654 0.09155 0.0
C768 C 0.19066 0.63651 0.07478 0.0
C769 C 0.25033 0.6286 0.12556 0.0
C770 C 0.22328 0.62265 0.11086 0.0
C771 C 0.14137 0.60935 0.07398 0.0
C772 C 0.17015 0.6133 0.08557 0.0
H773 H 0.2747 0.6263 0.19064 0.0
H774 H 0.23069 0.61702 0.16627 0.0
H775 H 0.2319 0.66009 0.07932 0.0
H776 H 0.10838 0.59728 0.01433 0.0
H777 H 0.15629 0.60903 0.03197 0.0
C778 C 0.18038 0.41828 0.61468 0.0
C779 C 0.16207 0.44064 0.61639 0.0
C780 C 0.2099 0.42563 0.61128 0.0
C781 C 0.26524 0.48735 0.588 0.0
H782 H 0.31496 0.43759 0.62955 0.0
C783 C 0.38904 0.51425 0.58829 0.0
C784 C 0.40511 0.48986 0.58751 0.0
C785 C 0.35919 0.50971 0.59155 0.0
C786 C 0.30139 0.45155 0.61759 0.0
H787 H 0.16037 0.48831 0.61559 0.0
H788 H 0.21212 0.50117 0.60998 0.0
H789 H 0.26333 0.42698 0.63602 0.0
H790 H 0.40225 0.44176 0.5881 0.0
H791 H 0.3505 0.43388 0.59372 0.0
H792 H 0.30348 0.51183 0.56948 0.0
C793 C 0.20355 0.47795 0.61106 0.0
C794 C 0.27179 0.44546 0.6213 0.0
C795 C 0.17396 0.47057 0.61454 0.0
C796 C 0.39063 0.46098 0.58929 0.0
C797 C 0.36092 0.45646 0.59252 0.0
C798 C 0.29494 0.49345 0.58426 0.0
C799 C 0.22185 0.45552 0.60953 0.0
C800 C 0.25334 0.46305 0.60633 0.0
C801 C 0.34485 0.48069 0.59407 0.0
C802 C 0.31333 0.47536 0.59878 0.0
H803 H 0.17195 0.39498 0.61636 0.0
H804 H 0.22336 0.40784 0.60984 0.0
H805 H 0.25158 0.50117 0.57599 0.0
H806 H 0.39956 0.53675 0.58717 0.0
H807 H 0.34741 0.52883 0.59282 0.0
C808 C 0.91965 0.84919 0.90748 0.0
C809 C 0.89074 0.8478 0.90043 0.0
C810 C 0.93014 0.82542 0.92334 0.0
C811 C 0.90824 0.75405 0.96819 0.0
H812 H 0.98417 0.73673 0.94741 0.0
C813 C 0.96441 0.65722 0.02568 0.0
C814 C 0.98043 0.64095 1.00922 0.0
C815 C 0.95349 0.68344 0.01442 0.0
C816 C 0.96284 0.74101 0.95345 0.0
H817 H 0.85 0.82046 0.90522 0.0
H818 H 0.86836 0.77857 0.93242 0.0
H819 H 0.96453 0.7795 0.92415 0.0
H820 H 0.9973 0.6397 0.96787 0.0
H821 H 0.97814 0.68448 0.94846 0.0
H822 H 0.9063 0.71459 0.99679 0.0
C823 C 0.88293 0.7983 0.92609 0.0
C824 C 0.95166 0.76598 0.94031 0.0
C825 C 0.87236 0.82231 0.91041 0.0
C826 C 0.98528 0.65163 0.98134 0.0
C827 C 0.97438 0.6776 0.97015 0.0
C828 C 0.91943 0.72888 0.9813 0.0
C829 C 0.91212 0.79929 0.93243 0.0
C830 C 0.92412 0.7729 0.94733 0.0
C831 C 0.95835 0.69402 0.98644 0.0
C832 C 0.94681 0.7218 0.9739 0.0
H833 H 0.93429 0.86872 0.90058 0.0
H834 H 0.95253 0.82755 0.92833 0.0
H835 H 0.88711 0.75873 0.97447 0.0
H836 H 0.96017 0.64963 0.04719 0.0
H837 H 0.94145 0.69556 0.0277 0.0
C838 C 0.39851 0.72693 0.18965 0.0
C839 C 0.38802 0.70871 0.16979 0.0
C840 C 0.41258 0.75543 0.18167 0.0
C841 C 0.41306 0.81473 0.12571 0.0
H842 H 0.48555 0.84746 0.15213 0.0
C843 C 0.47075 0.92436 0.07425 0.0
C844 C 0.48525 0.94423 0.09065 0.0
C845 C 0.45998 0.89572 0.08539 0.0
C846 C 0.46507 0.83882 0.14486 0.0
H847 H 0.38616 0.70512 0.12607 0.0
H848 H 0.41009 0.75481 0.1123 0.0
H849 H 0.46545 0.79678 0.16954 0.0
H850 H 0.49997 0.9496 0.13164 0.0
H851 H 0.48042 0.8997 0.15135 0.0
H852 H 0.41206 0.85651 0.1015 0.0
C853 C 0.40704 0.74731 0.13398 0.0
C854 C 0.45367 0.8098 0.15478 0.0
C855 C 0.39329 0.7189 0.14189 0.0
C856 C 0.48892 0.93475 0.11846 0.0
C857 C 0.47786 0.90609 0.12971 0.0
C858 C 0.42421 0.84372 0.11608 0.0
C859 C 0.41618 0.76613 0.15374 0.0
C860 C 0.42781 0.79735 0.14487 0.0
C861 C 0.46309 0.88628 0.11332 0.0
C862 C 0.45062 0.85598 0.1251 0.0
H863 H 0.39473 0.71974 0.2113 0.0
H864 H 0.41947 0.76957 0.19729 0.0
H865 H 0.39278 0.80587 0.11816 0.0
H866 H 0.46783 0.93085 0.05268 0.0
H867 H 0.44936 0.88088 0.07196 0.0
C868 C 0.05553 0.35356 0.61365 0.0
C869 C 0.07312 0.37608 0.59761 0.0
C870 C 0.04545 0.3273 0.60284 0.0
C871 C 0.06695 0.28099 0.55108 0.0
H872 H 0.99588 0.23271 0.57426 0.0
C873 C 1.00789 0.15591 0.53825 0.0
C874 C 0.03142 0.13981 0.54418 0.0
C875 C 1.00949 0.18634 0.54164 0.0
C876 C 0.01563 0.24609 0.56729 0.0
H877 H 0.09228 0.38966 0.55709 0.0
H878 H 0.07449 0.34382 0.53807 0.0
H879 H 1.00326 0.2846 0.58439 0.0
H880 H 0.07478 0.14287 0.55892 0.0
H881 H 0.0774 0.19543 0.56491 0.0
H882 H 0.07954 0.24251 0.53437 0.0
C883 C 0.06895 0.34624 0.5592 0.0
C884 C 0.01996 0.2757 0.57328 0.0
C885 C 0.07913 0.37247 0.57006 0.0
C886 C 0.05629 0.15457 0.554 0.0
C887 C 0.05791 0.18481 0.55724 0.0
C888 C 0.06263 0.2515 0.54514 0.0
C889 C 0.05269 0.32299 0.57571 0.0
C890 C 0.046 0.29324 0.56586 0.0
C891 C 0.03471 0.20114 0.55079 0.0
C892 C 0.0373 0.23348 0.55388 0.0
H893 H 0.0508 0.35549 0.63505 0.0
H894 H 0.03334 0.30974 0.61627 0.0
H895 H 0.08736 0.29368 0.54526 0.0
H896 H 0.98844 0.14514 0.53064 0.0
H897 H 0.99128 0.19842 0.53655 0.0
C898 C 0.61721 0.28377 0.44382 0.0
C899 C 0.63865 0.29055 0.42327 0.0
C900 C 0.6103 0.30561 0.4601 0.0
C901 C 0.6344 0.37985 0.48112 0.0
H902 H 0.55313 0.38777 0.4851 0.0
C903 C 0.58982 0.48629 0.51092 0.0
C904 C 0.56409 0.48304 0.52653 0.0
C905 C 0.60017 0.46158 0.50097 0.0
C906 C 0.57585 0.38562 0.48466 0.0
H907 H 0.67053 0.32442 0.4038 0.0
H908 H 0.65856 0.36291 0.43235 0.0
H909 H 0.56984 0.34619 0.46423 0.0
H910 H 0.5294 0.45123 0.54456 0.0
H911 H 0.5477 0.40807 0.52763 0.0
H912 H 0.6404 0.41948 0.50141 0.0
C913 C 0.64724 0.34075 0.43616 0.0
C914 C 0.58543 0.36177 0.47267 0.0
C915 C 0.65406 0.31886 0.41981 0.0
C916 C 0.54915 0.45452 0.53235 0.0
C917 C 0.5596 0.42979 0.52256 0.0
C918 C 0.6248 0.40367 0.4933 0.0
C919 C 0.62475 0.33455 0.45596 0.0
C920 C 0.6148 0.35876 0.47054 0.0
C921 C 0.5851 0.43305 0.50656 0.0
C922 C 0.59541 0.40699 0.49495 0.0
H923 H 0.60507 0.26195 0.44659 0.0
H924 H 0.59312 0.30012 0.47542 0.0
H925 H 0.65715 0.37792 0.47996 0.0
H926 H 0.60183 0.508 0.50608 0.0
H927 H 0.61966 0.46498 0.48838 0.0
loop_
_geom_bond_atom_site_label_1
_geom_bond_atom_site_label_2
_geom_bond_distance
_geom_bond_site_symmetry_2
_ccdc_geom_bond_type
H0 C3 0.929 . S
H1 C6 0.929 . S
H2 C8 0.930 . S
C3 H0 0.929 . S
C3 C4 1.398 . S
C3 C5 1.396 . S
C4 C3 1.398 . S
C4 C8 1.407 . S
C5 C3 1.396 . S
C5 C6 1.394 . S
C6 H1 0.929 . S
C6 C5 1.394 . S
C6 C7 1.382 . S
C7 C6 1.382 . S
C7 C8 1.392 . S
C7 N9 1.420 . S
C8 H2 0.930 . S
C8 C4 1.407 . S
C8 C7 1.392 . S
N9 C7 1.420 . S
N9 C10 1.244 . S
C10 N9 1.244 . S
H11 C14 0.929 . S
H12 C17 0.929 . S
H13 C19 0.930 . S
C14 H11 0.929 . S
C14 C15 1.398 . S
C14 C16 1.396 . S
C15 C14 1.398 . S
C15 C19 1.407 . S
C16 C14 1.396 . S
C16 C17 1.394 . S
C17 H12 0.929 . S
C17 C16 1.394 . S
C17 C18 1.382 . S
C18 C17 1.382 . S
C18 C19 1.392 . S
C18 N20 1.420 . S
C19 H13 0.930 . S
C19 C15 1.407 . S
C19 C18 1.392 . S
N20 C18 1.420 . S
N20 C21 1.244 . S
C21 N20 1.244 . S
H22 C25 0.929 . S
H23 C28 0.929 . S
H24 C30 0.930 . S
C25 H22 0.929 . S
C25 C26 1.398 . S
C25 C27 1.396 . S
C26 C25 1.398 . S
C26 C30 1.407 . S
C27 C25 1.396 . S
C27 C28 1.394 . S
C28 H23 0.929 . S
C28 C27 1.394 . S
C28 C29 1.382 . S
C29 C28 1.382 . S
C29 C30 1.392 . S
C29 N31 1.420 . S
C30 H24 0.930 . S
C30 C26 1.407 . S
C30 C29 1.392 . S
N31 C29 1.420 . S
N31 C32 1.244 . S
C32 N31 1.244 . S
H33 C36 0.929 . S
H34 C39 0.929 . S
H35 C41 0.930 . S
C36 H33 0.929 . S
C36 C37 1.398 . S
C36 C38 1.396 . S
C37 C36 1.398 . S
C37 C41 1.407 . S
C38 C36 1.396 . S
C38 C39 1.394 . S
C39 H34 0.929 . S
C39 C38 1.394 . S
C39 C40 1.382 . S
C40 C39 1.382 . S
C40 C41 1.392 . S
C40 N42 1.420 . S
C41 H35 0.930 . S
C41 C37 1.407 . S
C41 C40 1.392 . S
N42 C40 1.420 . S
N42 C43 1.244 . S
C43 N42 1.244 . S
H44 C47 0.929 . S
H45 C50 0.929 . S
H46 C52 0.930 . S
C47 H44 0.929 . S
C47 C48 1.398 . S
C47 C49 1.396 . S
C48 C47 1.398 . S
C48 C52 1.407 . S
C49 C47 1.396 . S
C49 C50 1.394 . S
C50 H45 0.929 . S
C50 C49 1.394 . S
C50 C51 1.382 . S
C51 C50 1.382 . S
C51 C52 1.392 . S
C51 N53 1.420 . S
C52 H46 0.930 . S
C52 C48 1.407 . S
C52 C51 1.392 . S
N53 C51 1.420 . S
N53 C54 1.244 . S
C54 N53 1.244 . S
H55 C58 0.929 . S
H56 C61 0.929 . S
H57 C63 0.930 . S
C58 H55 0.929 . S
C58 C59 1.398 . S
C58 C60 1.396 . S
C59 C58 1.398 . S
C59 C63 1.407 . S
C60 C58 1.396 . S
C60 C61 1.394 . S
C61 H56 0.929 . S
C61 C60 1.394 . S
C61 C62 1.382 . S
C62 C61 1.382 . S
C62 C63 1.392 . S
C62 N64 1.420 . S
C63 H57 0.930 . S
C63 C59 1.407 . S
C63 C62 1.392 . S
N64 C62 1.420 . S
N64 C65 1.244 . S
C65 N64 1.244 . S
H66 C69 0.929 . S
H67 C72 0.929 . S
H68 C74 0.930 . S
C69 H66 0.929 . S
C69 C70 1.398 . S
C69 C71 1.396 . S
C70 C69 1.398 . S
C70 C74 1.407 . S
C71 C69 1.396 . S
C71 C72 1.394 . S
C72 H67 0.929 . S
C72 C71 1.394 . S
C72 C73 1.382 . S
C73 C72 1.382 . S
C73 C74 1.392 . S
C73 N75 1.420 . S
C74 H68 0.930 . S
C74 C70 1.407 . S
C74 C73 1.392 . S
N75 C73 1.420 . S
N75 C76 1.244 . S
C76 N75 1.244 . S
H77 C80 0.929 . S
H78 C83 0.929 . S
H79 C85 0.930 . S
C80 H77 0.929 . S
C80 C81 1.398 . S
C80 C82 1.396 . S
C81 C80 1.398 . S
C81 C85 1.407 . S
C82 C80 1.396 . S
C82 C83 1.394 . S
C83 H78 0.929 . S
C83 C82 1.394 . S
C83 C84 1.382 . S
C84 C83 1.382 . S
C84 C85 1.392 . S
C84 N86 1.420 . S
C85 H79 0.930 . S
C85 C81 1.407 . S
C85 C84 1.392 . S
N86 C84 1.420 . S
N86 C87 1.244 . S
C87 N86 1.244 . S
Co88 N93 2.057 . S
Co88 O105 2.021 . S
Co88 O108 2.062 . S
Co88 O112 2.117 . S
Co88 O113 2.020 . S
C89 O109 1.259 1_655 S
C89 O112 1.258 1_565 S
Co90 N99 2.057 . S
Co90 O106 2.117 . S
Co90 O107 2.020 . S
Co90 O109 2.021 1_545 S
Co90 O114 2.062 . S
C91 N93 1.316 . S
C91 N94 1.347 . S
C91 H96 0.931 . S
C92 N93 1.375 . S
C92 C95 1.350 . S
C92 H97 0.930 . S
N93 Co88 2.057 . S
N93 C91 1.316 . S
N93 C92 1.375 . S
N94 C91 1.347 . S
N94 C95 1.373 . S
C95 C92 1.350 . S
C95 N94 1.373 . S
C95 H116 0.931 . S
H96 C91 0.931 . S
H97 C92 0.930 . S
C98 O105 1.259 1_455 S
C98 O106 1.258 . S
N99 Co90 2.057 . S
N99 C100 1.348 . S
N99 C101 1.375 . S
C100 N99 1.348 . S
C100 N102 1.350 . S
C100 H111 0.900 1_545 S
C101 N99 1.375 . S
C101 C103 1.350 . S
C101 H110 0.930 . S
N102 C100 1.350 . S
N102 C103 1.373 . S
C103 C101 1.350 . S
C103 N102 1.373 . S
C103 H117 0.931 . S
C104 O107 1.256 . S
C104 O108 1.253 1_455 S
O105 Co88 2.021 . S
O105 C98 1.259 1_655 S
O106 Co90 2.117 . S
O106 C98 1.258 . S
O107 Co90 2.020 . S
O107 C104 1.256 . S
O108 Co88 2.062 . S
O108 C104 1.253 1_655 S
O109 C89 1.259 1_455 S
O109 Co90 2.021 1_565 S
H110 C101 0.930 . S
H111 C100 0.900 1_565 S
O112 Co88 2.117 . S
O112 C89 1.258 1_545 S
O113 Co88 2.020 . S
O113 C115 1.256 . S
O114 Co90 2.062 . S
O114 C115 1.255 1_455 S
C115 O113 1.256 . S
C115 O114 1.255 1_655 S
H116 C95 0.931 . S
H117 C103 0.931 . S
Co118 N123 2.057 1_554 S
Co118 O135 2.021 . S
Co118 O138 2.062 . S
Co118 O142 2.117 1_545 S
Co118 O143 2.020 . S
C119 O139 1.259 . S
C119 O142 1.258 . S
Co120 N129 2.057 . S
Co120 O136 2.117 . S
Co120 O137 2.020 . S
Co120 O139 2.021 1_545 S
Co120 O144 2.062 . S
C121 N123 1.316 . S
C121 N124 1.347 1_545 S
C121 H126 0.931 . S
C122 N123 1.375 1_565 S
C122 C125 1.350 . S
C122 H127 0.930 . S
N123 Co118 2.057 1_556 S
N123 C121 1.316 . S
N123 C122 1.375 1_545 S
N124 C121 1.347 1_565 S
N124 C125 1.373 . S
C125 C122 1.350 . S
C125 N124 1.373 . S
C125 H146 0.931 . S
H126 C121 0.931 . S
H127 C122 0.930 . S
C128 O135 1.259 . S
C128 O136 1.258 . S
N129 Co120 2.057 . S
N129 C130 1.316 . S
N129 C131 1.375 . S
C130 N129 1.316 . S
C130 N132 1.347 . S
C130 H141 0.931 . S
C131 N129 1.375 . S
C131 C133 1.350 . S
C131 H140 0.930 . S
N132 C130 1.347 . S
N132 C133 1.373 . S
C133 C131 1.350 . S
C133 N132 1.373 . S
C133 H147 0.931 . S
C134 O137 1.256 . S
C134 O138 1.255 . S
O135 Co118 2.021 . S
O135 C128 1.259 . S
O136 Co120 2.117 . S
O136 C128 1.258 . S
O137 Co120 2.020 . S
O137 C134 1.256 . S
O138 Co118 2.062 . S
O138 C134 1.255 . S
O139 C119 1.259 . S
O139 Co120 2.021 1_565 S
H140 C131 0.930 . S
H141 C130 0.931 . S
O142 Co118 2.117 1_565 S
O142 C119 1.258 . S
O143 Co118 2.020 . S
O143 C145 1.256 . S
O144 Co120 2.062 . S
O144 C145 1.255 . S
C145 O143 1.256 . S
C145 O144 1.255 . S
H146 C125 0.931 . S
H147 C133 0.931 . S
Co148 N153 2.057 . S
Co148 O165 2.021 . S
Co148 O168 2.062 . S
Co148 O172 2.117 . S
Co148 O173 2.020 . S
C149 O169 1.259 . S
C149 O172 1.258 . S
Co150 N159 2.057 . S
Co150 O166 2.117 . S
Co150 O167 2.020 . S
Co150 O169 2.021 . S
Co150 O174 2.062 . S
C151 N153 1.316 . S
C151 N154 1.347 . S
C151 H156 0.931 . S
C152 N153 1.375 . S
C152 C155 1.350 . S
C152 H157 0.930 . S
N153 Co148 2.057 . S
N153 C151 1.316 . S
N153 C152 1.375 . S
N154 C151 1.347 . S
N154 C155 1.373 . S
C155 C152 1.350 . S
C155 N154 1.373 . S
C155 H176 0.931 . S
H156 C151 0.931 . S
H157 C152 0.930 . S
C158 O165 1.259 . S
C158 O166 1.258 . S
N159 Co150 2.057 . S
N159 C160 1.316 . S
N159 C161 1.375 . S
C160 N159 1.316 . S
C160 N162 1.347 . S
C160 H171 0.931 . S
C161 N159 1.375 . S
C161 C163 1.350 . S
C161 H170 0.930 . S
N162 C160 1.347 . S
N162 C163 1.373 . S
C163 C161 1.350 . S
C163 N162 1.373 . S
C163 H177 0.931 . S
C164 O167 1.256 . S
C164 O168 1.255 . S
O165 Co148 2.021 . S
O165 C158 1.259 . S
O166 Co150 2.117 . S
O166 C158 1.258 . S
O167 Co150 2.020 . S
O167 C164 1.256 . S
O168 Co148 2.062 . S
O168 C164 1.255 . S
O169 C149 1.259 . S
O169 Co150 2.021 . S
H170 C161 0.930 . S
H171 C160 0.931 . S
O172 Co148 2.117 . S
O172 C149 1.258 . S
O173 Co148 2.020 . S
O173 C175 1.256 . S
O174 Co150 2.062 . S
O174 C175 1.255 . S
C175 O173 1.256 . S
C175 O174 1.255 . S
H176 C155 0.931 . S
H177 C163 0.931 . S
Co178 N183 2.057 . S
Co178 O195 2.021 1_556 S
Co178 O198 2.062 1_556 S
Co178 O202 2.117 1_455 S
Co178 O203 2.020 . S
C179 O199 1.259 . S
C179 O202 1.258 1_554 S
Co180 N189 2.057 . S
Co180 O196 2.117 . S
Co180 O197 2.020 . S
Co180 O199 2.021 1_455 S
Co180 O204 2.062 . S
C181 N183 1.316 . S
C181 N184 1.347 . S
C181 H186 0.931 . S
C182 N183 1.375 . S
C182 C185 1.350 . S
C182 H187 0.930 1_455 S
N183 Co178 2.057 . S
N183 C181 1.316 . S
N183 C182 1.375 . S
N184 C181 1.347 . S
N184 C185 1.373 . S
C185 C182 1.350 . S
C185 N184 1.373 . S
C185 H206 0.931 . S
H186 C181 0.931 . S
H187 C182 0.930 1_655 S
C188 O195 1.259 . S
C188 O196 1.258 . S
N189 Co180 2.057 . S
N189 C190 1.316 1_455 S
N189 C191 1.375 . S
C190 N189 1.316 1_655 S
C190 N192 1.347 . S
C190 H201 0.931 . S
C191 N189 1.375 . S
C191 C193 1.350 . S
C191 H200 0.930 . S
N192 C190 1.347 . S
N192 C193 1.373 1_655 S
C193 C191 1.350 . S
C193 N192 1.373 1_455 S
C193 H207 0.931 . S
C194 O197 1.256 . S
C194 O198 1.255 . S
O195 Co178 2.021 1_554 S
O195 C188 1.259 . S
O196 Co180 2.117 . S
O196 C188 1.258 . S
O197 Co180 2.020 . S
O197 C194 1.256 . S
O198 Co178 2.062 1_554 S
O198 C194 1.255 . S
O199 C179 1.259 . S
O199 Co180 2.021 1_655 S
H200 C191 0.930 . S
H201 C190 0.931 . S
O202 Co178 2.117 1_655 S
O202 C179 1.258 1_556 S
O203 Co178 2.020 . S
O203 C205 1.256 1_556 S
O204 Co180 2.062 . S
O204 C205 1.255 . S
C205 O203 1.256 1_554 S
C205 O204 1.255 . S
H206 C185 0.931 . S
H207 C193 0.931 . S
C208 C209 1.349 . S
C208 C210 1.327 . S
C208 H233 0.950 . S
C209 C208 1.349 . S
C209 C225 1.349 . S
C210 C208 1.327 . S
C210 C229 1.429 . S
C210 H234 0.950 . S
C211 C228 1.574 . S
C211 C230 1.368 . S
C211 H235 0.949 . S
H212 C216 0.949 . S
C213 C214 1.349 . S
C213 C215 1.327 . S
C213 H236 0.950 . S
C214 C213 1.349 . S
C214 C226 1.349 . S
C215 C213 1.327 . S
C215 C231 1.429 . S
C215 H237 0.950 . S
C216 H212 0.949 . S
C216 C224 1.574 . S
C216 C232 1.368 . S
H217 C225 0.950 . S
H218 C223 0.950 . S
H219 C224 0.949 . S
H220 C226 0.950 . S
H221 C227 0.950 . S
H222 C228 0.949 . S
C223 H218 0.950 . S
C223 C225 1.327 . S
C223 C229 1.429 . S
C224 C216 1.574 . S
C224 H219 0.949 . S
C224 C230 1.368 . S
C225 C209 1.349 . S
C225 H217 0.950 . S
C225 C223 1.327 . S
C226 C214 1.349 . S
C226 H220 0.950 . S
C226 C227 1.327 . S
C227 H221 0.950 . S
C227 C226 1.327 . S
C227 C231 1.429 . S
C228 C211 1.574 . S
C228 H222 0.949 . S
C228 C232 1.368 . S
C229 C210 1.429 . S
C229 C223 1.429 . S
C229 C230 1.523 . S
C230 C211 1.368 . S
C230 C224 1.368 . S
C230 C229 1.523 . S
C231 C215 1.429 . S
C231 C227 1.429 . S
C231 C232 1.523 . S
C232 C216 1.368 . S
C232 C228 1.368 . S
C232 C231 1.523 . S
H233 C208 0.950 . S
H234 C210 0.950 . S
H235 C211 0.949 . S
H236 C213 0.950 . S
H237 C215 0.950 . S
C238 C239 1.349 . S
C238 C240 1.327 . S
C238 H263 0.950 . S
C239 C238 1.349 . S
C239 C255 1.349 . S
C240 C238 1.327 . S
C240 C259 1.429 . S
C240 H264 0.950 . S
C241 C258 1.574 . S
C241 C260 1.368 . S
C241 H265 0.949 . S
H242 C246 0.949 . S
C243 C244 1.349 . S
C243 C245 1.327 . S
C243 H266 0.950 . S
C244 C243 1.349 . S
C244 C256 1.349 1_565 S
C245 C243 1.327 . S
C245 C261 1.429 . S
C245 H267 0.950 . S
C246 H242 0.949 . S
C246 C254 1.574 . S
C246 C262 1.368 . S
H247 C255 0.950 . S
H248 C253 0.950 . S
H249 C254 0.949 . S
H250 C256 0.950 . S
H251 C257 0.950 1_545 S
H252 C258 0.949 . S
C253 H248 0.950 . S
C253 C255 1.327 . S
C253 C259 1.429 . S
C254 C246 1.574 . S
C254 H249 0.949 . S
C254 C260 1.368 . S
C255 C239 1.349 . S
C255 H247 0.950 . S
C255 C253 1.327 . S
C256 C244 1.349 1_545 S
C256 H250 0.950 . S
C256 C257 1.327 1_545 S
C257 H251 0.950 1_565 S
C257 C256 1.327 1_565 S
C257 C261 1.429 . S
C258 C241 1.574 . S
C258 H252 0.949 . S
C258 C262 1.368 . S
C259 C240 1.429 . S
C259 C253 1.429 . S
C259 C260 1.523 . S
C260 C241 1.368 . S
C260 C254 1.368 . S
C260 C259 1.523 . S
C261 C245 1.429 . S
C261 C257 1.429 . S
C261 C262 1.523 . S
C262 C246 1.368 . S
C262 C258 1.368 . S
C262 C261 1.523 . S
H263 C238 0.950 . S
H264 C240 0.950 . S
H265 C241 0.949 . S
H266 C243 0.950 . S
H267 C245 0.950 . S
C268 C269 1.349 . S
C268 C270 1.327 . S
C268 H293 0.950 . S
C269 C268 1.349 . S
C269 C285 1.349 . S
C270 C268 1.327 . S
C270 C289 1.429 . S
C270 H294 0.950 . S
C271 C288 1.574 . S
C271 C290 1.368 . S
C271 H295 0.949 . S
H272 C276 0.949 . S
C273 C274 1.349 . S
C273 C275 1.327 . S
C273 H296 0.950 . S
C274 C273 1.349 . S
C274 C286 1.349 . S
C275 C273 1.327 . S
C275 C291 1.429 . S
C275 H297 0.950 . S
C276 H272 0.949 . S
C276 C284 1.574 . S
C276 C292 1.368 . S
H277 C285 0.950 . S
H278 C283 0.950 . S
H279 C284 0.949 . S
H280 C286 0.950 . S
H281 C287 0.950 . S
H282 C288 0.949 . S
C283 H278 0.950 . S
C283 C285 1.327 . S
C283 C289 1.429 . S
C284 C276 1.574 . S
C284 H279 0.949 . S
C284 C290 1.368 . S
C285 C269 1.349 . S
C285 H277 0.950 . S
C285 C283 1.327 . S
C286 C274 1.349 . S
C286 H280 0.950 . S
C286 C287 1.327 . S
C287 H281 0.950 . S
C287 C286 1.327 . S
C287 C291 1.429 . S
C288 C271 1.574 . S
C288 H282 0.949 . S
C288 C292 1.368 . S
C289 C270 1.429 . S
C289 C283 1.429 . S
C289 C290 1.523 . S
C290 C271 1.368 . S
C290 C284 1.368 . S
C290 C289 1.523 . S
C291 C275 1.429 . S
C291 C287 1.429 . S
C291 C292 1.523 . S
C292 C276 1.368 . S
C292 C288 1.368 . S
C292 C291 1.523 . S
H293 C268 0.950 . S
H294 C270 0.950 . S
H295 C271 0.949 . S
H296 C273 0.950 . S
H297 C275 0.950 . S
C298 C299 1.349 . S
C298 C300 1.327 . S
C298 H323 0.950 . S
C299 C298 1.349 . S
C299 C315 1.349 . S
C300 C298 1.327 . S
C300 C319 1.429 . S
C300 H324 0.950 . S
C301 C318 1.574 . S
C301 C320 1.368 . S
C301 H325 0.949 . S
H302 C306 0.949 . S
C303 C304 1.349 . S
C303 C305 1.327 . S
C303 H326 0.950 . S
C304 C303 1.349 . S
C304 C316 1.349 . S
C305 C303 1.327 . S
C305 C321 1.429 . S
C305 H327 0.950 . S
C306 H302 0.949 . S
C306 C314 1.574 . S
C306 C322 1.368 . S
H307 C315 0.950 . S
H308 C313 0.950 . S
H309 C314 0.949 . S
H310 C316 0.959 . S
H311 C317 0.950 . S
H312 C318 0.949 . S
C313 H308 0.950 . S
C313 C315 1.327 . S
C313 C319 1.429 . S
C314 C306 1.574 . S
C314 H309 0.949 . S
C314 C320 1.368 . S
C315 C299 1.349 . S
C315 H307 0.950 . S
C315 C313 1.327 . S
C316 C304 1.349 . S
C316 H310 0.959 . S
C316 C317 1.327 . S
C317 H311 0.950 . S
C317 C316 1.327 . S
C317 C321 1.429 . S
C318 C301 1.574 . S
C318 H312 0.949 . S
C318 C322 1.368 . S
C319 C300 1.429 . S
C319 C313 1.429 . S
C319 C320 1.523 . S
C320 C301 1.368 . S
C320 C314 1.368 . S
C320 C319 1.523 . S
C321 C305 1.429 . S
C321 C317 1.429 . S
C321 C322 1.523 . S
C322 C306 1.368 . S
C322 C318 1.368 . S
C322 C321 1.523 . S
H323 C298 0.950 . S
H324 C300 0.950 . S
H325 C301 0.949 . S
H326 C303 0.950 . S
H327 C305 0.950 . S
C328 C329 1.349 . S
C328 C330 1.327 . S
C328 H353 0.950 . S
C329 C328 1.349 . S
C329 C345 1.349 . S
C330 C328 1.327 . S
C330 C349 1.429 . S
C330 H354 0.950 . S
C331 C348 1.574 . S
C331 C350 1.368 . S
C331 H355 0.949 . S
H332 C336 0.949 . S
C333 C334 1.349 . S
C333 C335 1.327 . S
C333 H356 0.950 . S
C334 C333 1.349 . S
C334 C346 1.349 . S
C335 C333 1.327 . S
C335 C351 1.429 . S
C335 H357 0.950 . S
C336 H332 0.949 . S
C336 C344 1.574 . S
C336 C352 1.368 . S
H337 C345 0.950 . S
H338 C343 0.950 . S
H339 C344 0.949 . S
H340 C346 0.950 . S
H341 C347 0.950 . S
H342 C348 0.949 . S
C343 H338 0.950 . S
C343 C345 1.327 . S
C343 C349 1.429 . S
C344 C336 1.574 . S
C344 H339 0.949 . S
C344 C350 1.368 . S
C345 C329 1.349 . S
C345 H337 0.950 . S
C345 C343 1.327 . S
C346 C334 1.349 . S
C346 H340 0.950 . S
C346 C347 1.327 . S
C347 H341 0.950 . S
C347 C346 1.327 . S
C347 C351 1.429 . S
C348 C331 1.574 . S
C348 H342 0.949 . S
C348 C352 1.368 . S
C349 C330 1.429 . S
C349 C343 1.429 . S
C349 C350 1.523 . S
C350 C331 1.368 . S
C350 C344 1.368 . S
C350 C349 1.523 . S
C351 C335 1.429 . S
C351 C347 1.429 . S
C351 C352 1.523 . S
C352 C336 1.368 . S
C352 C348 1.368 . S
C352 C351 1.523 . S
H353 C328 0.950 . S
H354 C330 0.950 . S
H355 C331 0.949 . S
H356 C333 0.950 . S
H357 C335 0.950 . S
C358 C359 1.349 . S
C358 C360 1.327 . S
C358 H383 0.950 . S
C359 C358 1.349 . S
C359 C375 1.349 . S
C360 C358 1.327 . S
C360 C379 1.429 . S
C360 H384 0.950 . S
C361 C378 1.574 . S
C361 C380 1.368 . S
C361 H385 0.930 1_565 S
H362 C366 0.949 . S
C363 C364 1.349 1_545 S
C363 C365 1.327 . S
C363 H386 0.950 . S
C364 C363 1.349 1_565 S
C364 C376 1.349 . S
C365 C363 1.327 . S
C365 C381 1.429 1_545 S
C365 H387 0.950 . S
C366 H362 0.949 . S
C366 C374 1.574 . S
C366 C382 1.368 . S
H367 C375 0.950 . S
H368 C373 0.950 . S
H369 C374 0.949 . S
H370 C376 0.950 . S
H371 C377 0.950 . S
H372 C378 0.949 1_545 S
C373 H368 0.950 . S
C373 C375 1.327 . S
C373 C379 1.429 . S
C374 C366 1.574 . S
C374 H369 0.949 . S
C374 C380 1.368 . S
C375 C359 1.349 . S
C375 H367 0.950 . S
C375 C373 1.327 . S
C376 C364 1.349 . S
C376 H370 0.950 . S
C376 C377 1.327 . S
C377 H371 0.950 . S
C377 C376 1.327 . S
C377 C381 1.429 . S
C378 C361 1.574 . S
C378 H372 0.949 1_565 S
C378 C382 1.368 . S
C379 C360 1.429 . S
C379 C373 1.429 . S
C379 C380 1.523 . S
C380 C361 1.368 . S
C380 C374 1.368 . S
C380 C379 1.523 . S
C381 C365 1.429 1_565 S
C381 C377 1.429 . S
C381 C382 1.523 . S
C382 C366 1.368 . S
C382 C378 1.368 . S
C382 C381 1.523 . S
H383 C358 0.950 . S
H384 C360 0.950 . S
H385 C361 0.930 1_545 S
H386 C363 0.950 . S
H387 C365 0.950 . S
C388 C389 1.349 . S
C388 C390 1.327 . S
C388 H413 0.950 . S
C389 C388 1.349 . S
C389 C405 1.349 . S
C390 C388 1.327 . S
C390 C409 1.429 . S
C390 H414 0.950 . S
C391 C408 1.574 . S
C391 C410 1.368 . S
C391 H415 0.949 . S
H392 C396 0.949 . S
C393 C394 1.349 . S
C393 C395 1.327 . S
C393 H416 0.950 . S
C394 C393 1.349 . S
C394 C406 1.349 1_556 S
C395 C393 1.327 . S
C395 C411 1.429 . S
C395 H417 0.950 . S
C396 H392 0.949 . S
C396 C404 1.574 . S
C396 C412 1.368 . S
H397 C405 0.950 . S
H398 C403 0.950 . S
H399 C404 0.949 . S
H400 C406 0.950 . S
H401 C407 0.959 . S
H402 C408 0.949 . S
C403 H398 0.950 . S
C403 C405 1.327 . S
C403 C409 1.429 . S
C404 C396 1.574 . S
C404 H399 0.949 . S
C404 C410 1.368 . S
C405 C389 1.349 . S
C405 H397 0.950 . S
C405 C403 1.327 . S
C406 C394 1.349 1_554 S
C406 H400 0.950 . S
C406 C407 1.327 1_554 S
C407 H401 0.959 . S
C407 C406 1.327 1_556 S
C407 C411 1.429 . S
C408 C391 1.574 . S
C408 H402 0.949 . S
C408 C412 1.368 . S
C409 C390 1.429 . S
C409 C403 1.429 . S
C409 C410 1.523 . S
C410 C391 1.368 . S
C410 C404 1.368 . S
C410 C409 1.523 . S
C411 C395 1.429 . S
C411 C407 1.429 . S
C411 C412 1.523 . S
C412 C396 1.368 . S
C412 C408 1.368 . S
C412 C411 1.523 . S
H413 C388 0.950 . S
H414 C390 0.950 . S
H415 C391 0.949 . S
H416 C393 0.950 . S
H417 C395 0.950 . S
C418 C419 1.349 . S
C418 C420 1.327 . S
C418 H443 0.950 . S
C419 C418 1.349 . S
C419 C435 1.349 . S
C420 C418 1.327 . S
C420 C439 1.429 . S
C420 H444 0.950 . S
C421 C438 1.574 . S
C421 C440 1.368 . S
C421 H445 0.949 . S
H422 C426 0.949 . S
C423 C424 1.349 . S
C423 C425 1.327 . S
C423 H446 0.950 . S
C424 C423 1.349 . S
C424 C436 1.349 . S
C425 C423 1.327 . S
C425 C441 1.429 . S
C425 H447 0.950 . S
C426 H422 0.949 . S
C426 C434 1.574 . S
C426 C442 1.368 . S
H427 C435 0.950 . S
H428 C433 0.950 . S
H429 C434 0.949 . S
H430 C436 0.950 . S
H431 C437 0.950 . S
H432 C438 0.949 . S
C433 H428 0.950 . S
C433 C435 1.327 . S
C433 C439 1.429 . S
C434 C426 1.574 . S
C434 H429 0.949 . S
C434 C440 1.368 . S
C435 C419 1.349 . S
C435 H427 0.950 . S
C435 C433 1.327 . S
C436 C424 1.349 . S
C436 H430 0.950 . S
C436 C437 1.327 . S
C437 H431 0.950 . S
C437 C436 1.327 . S
C437 C441 1.429 . S
C438 C421 1.574 . S
C438 H432 0.949 . S
C438 C442 1.368 . S
C439 C420 1.429 . S
C439 C433 1.429 . S
C439 C440 1.523 . S
C440 C421 1.368 . S
C440 C434 1.368 . S
C440 C439 1.523 . S
C441 C425 1.429 . S
C441 C437 1.429 . S
C441 C442 1.523 . S
C442 C426 1.368 . S
C442 C438 1.368 . S
C442 C441 1.523 . S
H443 C418 0.950 . S
H444 C420 0.950 . S
H445 C421 0.949 . S
H446 C423 0.950 . S
H447 C425 0.950 . S
C448 C449 1.349 . S
C448 C450 1.327 . S
C448 H473 0.950 . S
C449 C448 1.349 . S
C449 C465 1.349 . S
C450 C448 1.327 . S
C450 C469 1.429 . S
C450 H474 0.950 . S
C451 C468 1.574 . S
C451 C470 1.368 . S
C451 H475 0.949 . S
H452 C456 0.949 . S
C453 C454 1.349 . S
C453 C455 1.327 . S
C453 H476 0.950 . S
C454 C453 1.349 . S
C454 C466 1.349 . S
C455 C453 1.327 . S
C455 C471 1.429 . S
C455 H477 0.950 . S
C456 H452 0.949 . S
C456 C464 1.574 . S
C456 C472 1.368 . S
H457 C465 0.950 . S
H458 C463 0.950 . S
H459 C464 0.949 . S
H460 C466 0.950 . S
H461 C467 0.950 . S
H462 C468 0.949 . S
C463 H458 0.950 . S
C463 C465 1.327 . S
C463 C469 1.429 . S
C464 C456 1.574 . S
C464 H459 0.949 . S
C464 C470 1.368 . S
C465 C449 1.349 . S
C465 H457 0.950 . S
C465 C463 1.327 . S
C466 C454 1.349 . S
C466 H460 0.950 . S
C466 C467 1.327 . S
C467 H461 0.950 . S
C467 C466 1.327 . S
C467 C471 1.429 . S
C468 C451 1.574 . S
C468 H462 0.949 . S
C468 C472 1.368 . S
C469 C450 1.429 . S
C469 C463 1.429 . S
C469 C470 1.523 . S
C470 C451 1.368 . S
C470 C464 1.368 . S
C470 C469 1.523 . S
C471 C455 1.429 . S
C471 C467 1.429 . S
C471 C472 1.523 . S
C472 C456 1.368 . S
C472 C468 1.368 . S
C472 C471 1.523 . S
H473 C448 0.950 . S
H474 C450 0.950 . S
H475 C451 0.949 . S
H476 C453 0.950 . S
H477 C455 0.950 . S
C478 C479 1.349 . S
C478 C480 1.327 . S
C478 H503 0.950 . S
C479 C478 1.349 . S
C479 C495 1.349 . S
C480 C478 1.327 . S
C480 C499 1.429 . S
C480 H504 0.950 . S
C481 C498 1.574 . S
C481 C500 1.368 . S
C481 H505 0.949 . S
H482 C486 0.949 1_554 S
C483 C484 1.349 1_556 S
C483 C485 1.327 . S
C483 H506 0.950 . S
C484 C483 1.349 1_554 S
C484 C496 1.349 . S
C485 C483 1.327 . S
C485 C501 1.429 . S
C485 H507 0.950 . S
C486 H482 0.949 1_556 S
C486 C494 1.574 . S
C486 C502 1.368 . S
H487 C495 0.950 . S
H488 C493 0.950 . S
H489 C494 0.949 . S
H490 C496 0.950 . S
H491 C497 0.950 . S
H492 C498 0.949 . S
C493 H488 0.950 . S
C493 C495 1.327 . S
C493 C499 1.429 . S
C494 C486 1.574 . S
C494 H489 0.949 . S
C494 C500 1.368 . S
C495 C479 1.349 . S
C495 H487 0.950 . S
C495 C493 1.327 . S
C496 C484 1.349 . S
C496 H490 0.950 . S
C496 C497 1.327 . S
C497 H491 0.950 . S
C497 C496 1.327 . S
C497 C501 1.429 1_554 S
C498 C481 1.574 . S
C498 H492 0.949 . S
C498 C502 1.368 . S
C499 C480 1.429 . S
C499 C493 1.429 . S
C499 C500 1.523 . S
C500 C481 1.368 . S
C500 C494 1.368 . S
C500 C499 1.523 . S
C501 C485 1.429 . S
C501 C497 1.429 1_556 S
C501 C502 1.523 . S
C502 C486 1.368 . S
C502 C498 1.368 . S
C502 C501 1.523 . S
H503 C478 0.950 . S
H504 C480 0.950 . S
H505 C481 0.949 . S
H506 C483 0.950 . S
H507 C485 0.950 . S
C508 C509 1.349 . S
C508 C510 1.327 . S
C508 H533 0.950 . S
C509 C508 1.349 . S
C509 C525 1.349 . S
C510 C508 1.327 . S
C510 C529 1.429 . S
C510 H534 0.950 . S
C511 C528 1.574 . S
C511 C530 1.368 . S
C511 H535 0.949 . S
H512 C516 0.949 . S
C513 C514 1.365 . S
C513 C515 1.329 . S
C513 H536 0.932 1_655 S
C514 C513 1.365 . S
C514 C526 1.349 . S
C515 C513 1.329 . S
C515 C531 1.429 . S
C515 H537 0.950 1_655 S
C516 H512 0.949 . S
C516 C524 1.574 . S
C516 C532 1.368 . S
H517 C525 0.950 . S
H518 C523 0.950 . S
H519 C524 0.949 . S
H520 C526 0.950 . S
H521 C527 0.950 . S
H522 C528 0.949 . S
C523 H518 0.950 . S
C523 C525 1.327 . S
C523 C529 1.429 . S
C524 C516 1.574 . S
C524 H519 0.949 . S
C524 C530 1.368 . S
C525 C509 1.349 . S
C525 H517 0.950 . S
C525 C523 1.327 . S
C526 C514 1.349 . S
C526 H520 0.950 . S
C526 C527 1.327 . S
C527 H521 0.950 . S
C527 C526 1.327 . S
C527 C531 1.429 . S
C528 C511 1.574 . S
C528 H522 0.949 . S
C528 C532 1.368 . S
C529 C510 1.429 . S
C529 C523 1.429 . S
C529 C530 1.523 . S
C530 C511 1.368 . S
C530 C524 1.368 . S
C530 C529 1.523 . S
C531 C515 1.429 . S
C531 C527 1.429 . S
C531 C532 1.523 . S
C532 C516 1.368 . S
C532 C528 1.368 . S
C532 C531 1.523 . S
H533 C508 0.950 . S
H534 C510 0.950 . S
H535 C511 0.949 . S
H536 C513 0.932 1_455 S
H537 C515 0.950 1_455 S
C538 C539 1.349 . S
C538 C540 1.327 . S
C538 H563 0.950 . S
C539 C538 1.349 . S
C539 C555 1.349 . S
C540 C538 1.327 . S
C540 C559 1.429 . S
C540 H564 0.950 . S
C541 C558 1.574 . S
C541 C560 1.368 . S
C541 H565 0.949 . S
H542 C546 0.949 . S
C543 C544 1.349 . S
C543 C545 1.327 . S
C543 H566 0.950 . S
C544 C543 1.349 . S
C544 C556 1.349 . S
C545 C543 1.327 . S
C545 C561 1.429 . S
C545 H567 0.950 . S
C546 H542 0.949 . S
C546 C554 1.574 . S
C546 C562 1.368 . S
H547 C555 0.950 . S
H548 C553 0.950 . S
H549 C554 0.949 . S
H550 C556 0.950 . S
H551 C557 0.950 . S
H552 C558 0.949 . S
C553 H548 0.950 . S
C553 C555 1.327 . S
C553 C559 1.429 . S
C554 C546 1.574 . S
C554 H549 0.949 . S
C554 C560 1.368 . S
C555 C539 1.349 . S
C555 H547 0.950 . S
C555 C553 1.327 . S
C556 C544 1.349 . S
C556 H550 0.950 . S
C556 C557 1.327 . S
C557 H551 0.950 . S
C557 C556 1.327 . S
C557 C561 1.429 . S
C558 C541 1.574 . S
C558 H552 0.949 . S
C558 C562 1.368 . S
C559 C540 1.429 . S
C559 C553 1.429 . S
C559 C560 1.523 . S
C560 C541 1.368 . S
C560 C554 1.368 . S
C560 C559 1.523 . S
C561 C545 1.429 . S
C561 C557 1.429 . S
C561 C562 1.523 . S
C562 C546 1.368 . S
C562 C558 1.368 . S
C562 C561 1.523 . S
H563 C538 0.950 . S
H564 C540 0.950 . S
H565 C541 0.949 . S
H566 C543 0.950 . S
H567 C545 0.950 . S
C568 C569 1.349 . S
C568 C570 1.327 . S
C568 H593 0.950 . S
C569 C568 1.349 . S
C569 C585 1.349 . S
C570 C568 1.327 . S
C570 C589 1.429 . S
C570 H594 0.950 . S
C571 C588 1.574 1_565 S
C571 C590 1.368 . S
C571 H595 0.949 1_565 S
H572 C576 0.949 . S
C573 C574 1.349 . S
C573 C575 1.327 . S
C573 H596 0.950 1_655 S
C574 C573 1.349 . S
C574 C586 1.349 1_545 S
C575 C573 1.327 . S
C575 C591 1.429 1_545 S
C575 H597 0.950 . S
C576 H572 0.949 . S
C576 C584 1.574 . S
C576 C592 1.368 . S
H577 C585 0.950 . S
H578 C583 0.927 1_545 S
H579 C584 0.949 . S
H580 C586 0.950 . S
H581 C587 0.950 . S
H582 C588 0.949 . S
C583 H578 0.927 1_565 S
C583 C585 1.327 . S
C583 C589 1.429 . S
C584 C576 1.574 . S
C584 H579 0.949 . S
C584 C590 1.368 . S
C585 C569 1.349 . S
C585 H577 0.950 . S
C585 C583 1.327 . S
C586 C574 1.349 1_565 S
C586 H580 0.950 . S
C586 C587 1.327 . S
C587 H581 0.950 . S
C587 C586 1.327 . S
C587 C591 1.429 . S
C588 C571 1.574 1_545 S
C588 H582 0.949 . S
C588 C592 1.368 1_545 S
C589 C570 1.429 . S
C589 C583 1.429 . S
C589 C590 1.523 . S
C590 C571 1.368 . S
C590 C584 1.368 . S
C590 C589 1.523 . S
C591 C575 1.429 1_565 S
C591 C587 1.429 . S
C591 C592 1.523 . S
C592 C576 1.368 . S
C592 C588 1.368 1_565 S
C592 C591 1.523 . S
H593 C568 0.950 . S
H594 C570 0.950 . S
H595 C571 0.949 1_545 S
H596 C573 0.950 1_455 S
H597 C575 0.950 . S
C598 C599 1.349 . S
C598 C600 1.327 . S
C598 H623 0.950 . S
C599 C598 1.349 . S
C599 C615 1.349 . S
C600 C598 1.327 . S
C600 C619 1.429 . S
C600 H624 0.950 . S
C601 C618 1.574 . S
C601 C620 1.368 . S
C601 H625 0.949 . S
H602 C606 0.949 . S
C603 C604 1.349 . S
C603 C605 1.327 . S
C603 H626 0.950 . S
C604 C603 1.349 . S
C604 C616 1.349 . S
C605 C603 1.327 . S
C605 C621 1.429 . S
C605 H627 0.950 . S
C606 H602 0.949 . S
C606 C614 1.574 . S
C606 C622 1.368 . S
H607 C615 0.950 . S
H608 C613 0.950 . S
H609 C614 0.949 . S
H610 C616 0.950 . S
H611 C617 0.950 . S
H612 C618 0.949 . S
C613 H608 0.950 . S
C613 C615 1.327 . S
C613 C619 1.429 . S
C614 C606 1.574 . S
C614 H609 0.949 . S
C614 C620 1.368 . S
C615 C599 1.349 . S
C615 H607 0.950 . S
C615 C613 1.327 . S
C616 C604 1.349 . S
C616 H610 0.950 . S
C616 C617 1.327 . S
C617 H611 0.950 . S
C617 C616 1.327 . S
C617 C621 1.429 . S
C618 C601 1.574 . S
C618 H612 0.949 . S
C618 C622 1.368 . S
C619 C600 1.429 . S
C619 C613 1.429 . S
C619 C620 1.523 . S
C620 C601 1.368 . S
C620 C614 1.368 . S
C620 C619 1.523 . S
C621 C605 1.429 . S
C621 C617 1.429 . S
C621 C622 1.523 . S
C622 C606 1.368 . S
C622 C618 1.368 . S
C622 C621 1.523 . S
H623 C598 0.950 . S
H624 C600 0.950 . S
H625 C601 0.949 . S
H626 C603 0.950 . S
H627 C605 0.950 . S
C628 C629 1.349 . S
C628 C630 1.327 . S
C628 H653 0.950 . S
C629 C628 1.349 . S
C629 C645 1.349 . S
C630 C628 1.327 . S
C630 C649 1.429 . S
C630 H654 0.950 . S
C631 C648 1.574 . S
C631 C650 1.368 . S
C631 H655 0.949 . S
H632 C636 0.949 . S
C633 C634 1.349 . S
C633 C635 1.327 . S
C633 H656 0.950 . S
C634 C633 1.349 . S
C634 C646 1.349 . S
C635 C633 1.327 . S
C635 C651 1.429 . S
C635 H657 0.950 . S
C636 H632 0.949 . S
C636 C644 1.574 . S
C636 C652 1.368 . S
H637 C645 0.950 . S
H638 C643 0.950 . S
H639 C644 0.949 . S
H640 C646 0.950 . S
H641 C647 0.950 . S
H642 C648 0.949 . S
C643 H638 0.950 . S
C643 C645 1.327 . S
C643 C649 1.429 . S
C644 C636 1.574 . S
C644 H639 0.949 . S
C644 C650 1.368 . S
C645 C629 1.349 . S
C645 H637 0.950 . S
C645 C643 1.327 . S
C646 C634 1.349 . S
C646 H640 0.950 . S
C646 C647 1.327 . S
C647 H641 0.950 . S
C647 C646 1.327 . S
C647 C651 1.429 . S
C648 C631 1.574 . S
C648 H642 0.949 . S
C648 C652 1.368 . S
C649 C630 1.429 . S
C649 C643 1.429 . S
C649 C650 1.523 . S
C650 C631 1.368 . S
C650 C644 1.368 . S
C650 C649 1.523 . S
C651 C635 1.429 . S
C651 C647 1.429 . S
C651 C652 1.523 . S
C652 C636 1.368 . S
C652 C648 1.368 . S
C652 C651 1.523 . S
H653 C628 0.950 . S
H654 C630 0.950 . S
H655 C631 0.949 . S
H656 C633 0.950 . S
H657 C635 0.950 . S
C658 C659 1.349 . S
C658 C660 1.327 . S
C658 H683 0.950 . S
C659 C658 1.349 . S
C659 C675 1.349 . S
C660 C658 1.327 . S
C660 C679 1.429 . S
C660 H684 0.950 . S
C661 C678 1.574 . S
C661 C680 1.368 . S
C661 H685 0.949 . S
H662 C666 0.949 . S
C663 C664 1.349 . S
C663 C665 1.327 . S
C663 H686 0.950 . S
C664 C663 1.349 . S
C664 C676 1.349 . S
C665 C663 1.327 . S
C665 C681 1.429 . S
C665 H687 0.950 . S
C666 H662 0.949 . S
C666 C674 1.574 . S
C666 C682 1.368 . S
H667 C675 0.950 . S
H668 C673 0.950 . S
H669 C674 0.949 . S
H670 C676 0.950 . S
H671 C677 0.950 . S
H672 C678 0.949 . S
C673 H668 0.950 . S
C673 C675 1.327 . S
C673 C679 1.429 . S
C674 C666 1.574 . S
C674 H669 0.949 . S
C674 C680 1.368 . S
C675 C659 1.349 . S
C675 H667 0.950 . S
C675 C673 1.327 . S
C676 C664 1.349 . S
C676 H670 0.950 . S
C676 C677 1.327 . S
C677 H671 0.950 . S
C677 C676 1.327 . S
C677 C681 1.429 . S
C678 C661 1.574 . S
C678 H672 0.949 . S
C678 C682 1.368 . S
C679 C660 1.429 . S
C679 C673 1.429 . S
C679 C680 1.523 . S
C680 C661 1.368 . S
C680 C674 1.368 . S
C680 C679 1.523 . S
C681 C665 1.429 . S
C681 C677 1.429 . S
C681 C682 1.523 . S
C682 C666 1.368 . S
C682 C678 1.368 . S
C682 C681 1.523 . S
H683 C658 0.950 . S
H684 C660 0.950 . S
H685 C661 0.949 . S
H686 C663 0.950 . S
H687 C665 0.950 . S
C688 C689 1.349 . S
C688 C690 1.327 . S
C688 H713 0.950 . S
C689 C688 1.349 . S
C689 C705 1.349 . S
C690 C688 1.327 . S
C690 C709 1.429 . S
C690 H714 0.950 1_565 S
C691 C708 1.574 . S
C691 C710 1.368 . S
C691 H715 0.949 . S
H692 C696 0.949 1_554 S
C693 C694 1.349 1_565 S
C693 C695 1.327 1_554 S
C693 H716 0.950 1_554 S
C694 C693 1.349 1_545 S
C694 C706 1.349 . S
C695 C693 1.327 1_556 S
C695 C711 1.429 . S
C695 H717 0.950 . S
C696 H692 0.949 1_556 S
C696 C704 1.574 . S
C696 C712 1.368 1_545 S
H697 C705 0.950 . S
H698 C703 0.950 . S
H699 C704 0.949 . S
H700 C706 0.950 . S
H701 C707 0.950 . S
H702 C708 0.949 . S
C703 H698 0.950 . S
C703 C705 1.327 . S
C703 C709 1.429 . S
C704 C696 1.574 . S
C704 H699 0.949 . S
C704 C710 1.368 1_545 S
C705 C689 1.349 . S
C705 H697 0.950 . S
C705 C703 1.327 . S
C706 C694 1.349 . S
C706 H700 0.950 . S
C706 C707 1.327 . S
C707 H701 0.950 . S
C707 C706 1.327 . S
C707 C711 1.429 1_544 S
C708 C691 1.574 . S
C708 H702 0.949 . S
C708 C712 1.368 . S
C709 C690 1.429 . S
C709 C703 1.429 . S
C709 C710 1.523 . S
C710 C691 1.368 . S
C710 C704 1.368 1_565 S
C710 C709 1.523 . S
C711 C695 1.429 . S
C711 C707 1.429 1_566 S
C711 C712 1.523 . S
C712 C696 1.368 1_565 S
C712 C708 1.368 . S
C712 C711 1.523 . S
H713 C688 0.950 . S
H714 C690 0.950 1_545 S
H715 C691 0.949 . S
H716 C693 0.950 1_556 S
H717 C695 0.950 . S
C718 C719 1.349 . S
C718 C720 1.327 . S
C718 H743 0.950 . S
C719 C718 1.349 . S
C719 C735 1.349 . S
C720 C718 1.327 . S
C720 C739 1.429 . S
C720 H744 0.950 . S
C721 C738 1.574 . S
C721 C740 1.368 . S
C721 H745 0.949 . S
H722 C726 0.949 . S
C723 C724 1.349 . S
C723 C725 1.327 . S
C723 H746 0.950 . S
C724 C723 1.349 . S
C724 C736 1.349 . S
C725 C723 1.327 . S
C725 C741 1.429 . S
C725 H747 0.950 . S
C726 H722 0.949 . S
C726 C734 1.574 . S
C726 C742 1.368 . S
H727 C735 0.950 . S
H728 C733 0.950 . S
H729 C734 0.949 . S
H730 C736 0.950 . S
H731 C737 0.950 . S
H732 C738 0.949 . S
C733 H728 0.950 . S
C733 C735 1.327 . S
C733 C739 1.429 . S
C734 C726 1.574 . S
C734 H729 0.949 . S
C734 C740 1.368 . S
C735 C719 1.349 . S
C735 H727 0.950 . S
C735 C733 1.327 . S
C736 C724 1.349 . S
C736 H730 0.950 . S
C736 C737 1.327 . S
C737 H731 0.950 . S
C737 C736 1.327 . S
C737 C741 1.429 . S
C738 C721 1.574 . S
C738 H732 0.949 . S
C738 C742 1.368 . S
C739 C720 1.429 . S
C739 C733 1.429 . S
C739 C740 1.523 . S
C740 C721 1.368 . S
C740 C734 1.368 . S
C740 C739 1.523 . S
C741 C725 1.429 . S
C741 C737 1.429 . S
C741 C742 1.523 . S
C742 C726 1.368 . S
C742 C738 1.368 . S
C742 C741 1.523 . S
H743 C718 0.950 . S
H744 C720 0.950 . S
H745 C721 0.949 . S
H746 C723 0.950 . S
H747 C725 0.950 . S
C748 C749 1.349 . S
C748 C750 1.327 . S
C748 H773 0.950 . S
C749 C748 1.349 . S
C749 C765 1.349 . S
C750 C748 1.327 . S
C750 C769 1.429 . S
C750 H774 0.950 . S
C751 C768 1.574 . S
C751 C770 1.368 . S
C751 H775 0.949 . S
H752 C756 0.949 . S
C753 C754 1.349 . S
C753 C755 1.327 . S
C753 H776 0.950 . S
C754 C753 1.349 . S
C754 C766 1.349 . S
C755 C753 1.327 . S
C755 C771 1.429 . S
C755 H777 0.950 . S
C756 H752 0.949 . S
C756 C764 1.574 . S
C756 C772 1.368 . S
H757 C765 0.950 . S
H758 C763 0.950 . S
H759 C764 0.949 . S
H760 C766 0.950 . S
H761 C767 0.950 . S
H762 C768 0.949 . S
C763 H758 0.950 . S
C763 C765 1.327 . S
C763 C769 1.429 . S
C764 C756 1.574 . S
C764 H759 0.949 . S
C764 C770 1.368 . S
C765 C749 1.349 . S
C765 H757 0.950 . S
C765 C763 1.327 . S
C766 C754 1.349 . S
C766 H760 0.950 . S
C766 C767 1.327 . S
C767 H761 0.950 . S
C767 C766 1.327 . S
C767 C771 1.429 . S
C768 C751 1.574 . S
C768 H762 0.949 . S
C768 C772 1.368 . S
C769 C750 1.429 . S
C769 C763 1.429 . S
C769 C770 1.523 . S
C770 C751 1.368 . S
C770 C764 1.368 . S
C770 C769 1.523 . S
C771 C755 1.429 . S
C771 C767 1.429 . S
C771 C772 1.523 . S
C772 C756 1.368 . S
C772 C768 1.368 . S
C772 C771 1.523 . S
H773 C748 0.950 . S
H774 C750 0.950 . S
H775 C751 0.949 . S
H776 C753 0.950 . S
H777 C755 0.950 . S
C778 C779 1.349 . S
C778 C780 1.327 . S
C778 H803 0.950 . S
C779 C778 1.349 . S
C779 C795 1.349 . S
C780 C778 1.327 . S
C780 C799 1.429 . S
C780 H804 0.950 . S
C781 C798 1.574 . S
C781 C800 1.368 . S
C781 H805 0.949 . S
H782 C786 0.949 . S
C783 C784 1.349 . S
C783 C785 1.327 . S
C783 H806 0.950 . S
C784 C783 1.349 . S
C784 C796 1.349 . S
C785 C783 1.327 . S
C785 C801 1.429 . S
C785 H807 0.950 . S
C786 H782 0.949 . S
C786 C794 1.574 . S
C786 C802 1.368 . S
H787 C795 0.950 . S
H788 C793 0.950 . S
H789 C794 0.949 . S
H790 C796 0.950 . S
H791 C797 0.950 . S
H792 C798 0.949 . S
C793 H788 0.950 . S
C793 C795 1.327 . S
C793 C799 1.429 . S
C794 C786 1.574 . S
C794 H789 0.949 . S
C794 C800 1.368 . S
C795 C779 1.349 . S
C795 H787 0.950 . S
C795 C793 1.327 . S
C796 C784 1.349 . S
C796 H790 0.950 . S
C796 C797 1.327 . S
C797 H791 0.950 . S
C797 C796 1.327 . S
C797 C801 1.429 . S
C798 C781 1.574 . S
C798 H792 0.949 . S
C798 C802 1.368 . S
C799 C780 1.429 . S
C799 C793 1.429 . S
C799 C800 1.523 . S
C800 C781 1.368 . S
C800 C794 1.368 . S
C800 C799 1.523 . S
C801 C785 1.429 . S
C801 C797 1.429 . S
C801 C802 1.523 . S
C802 C786 1.368 . S
C802 C798 1.368 . S
C802 C801 1.523 . S
H803 C778 0.950 . S
H804 C780 0.950 . S
H805 C781 0.949 . S
H806 C783 0.950 . S
H807 C785 0.950 . S
C808 C809 1.349 . S
C808 C810 1.327 . S
C808 H833 0.950 . S
C809 C808 1.349 . S
C809 C825 1.349 . S
C810 C808 1.327 . S
C810 C829 1.429 . S
C810 H834 0.950 . S
C811 C828 1.574 . S
C811 C830 1.368 . S
C811 H835 0.949 . S
H812 C816 0.949 . S
C813 C814 1.375 1_554 S
C813 C815 1.327 1_554 S
C813 H836 0.950 . S
C814 C813 1.375 1_556 S
C814 C826 1.340 1_655 S
C815 C813 1.327 1_556 S
C815 C831 1.429 . S
C815 H837 0.950 1_556 S
C816 H812 0.949 . S
C816 C824 1.574 . S
C816 C832 1.368 . S
H817 C825 0.950 . S
H818 C823 0.950 . S
H819 C824 0.949 . S
H820 C826 0.950 . S
H821 C827 0.939 1_455 S
H822 C828 0.952 . S
C823 H818 0.950 . S
C823 C825 1.327 . S
C823 C829 1.429 . S
C824 C816 1.574 . S
C824 H819 0.949 . S
C824 C830 1.368 . S
C825 C809 1.349 . S
C825 H817 0.950 . S
C825 C823 1.327 . S
C826 C814 1.340 1_455 S
C826 H820 0.950 . S
C826 C827 1.310 1_455 S
C827 H821 0.939 1_655 S
C827 C826 1.310 1_655 S
C827 C831 1.458 . S
C828 C811 1.574 . S
C828 H822 0.952 . S
C828 C832 1.368 . S
C829 C810 1.429 . S
C829 C823 1.429 . S
C829 C830 1.523 . S
C830 C811 1.368 . S
C830 C824 1.368 . S
C830 C829 1.523 . S
C831 C815 1.429 . S
C831 C827 1.458 . S
C831 C832 1.523 . S
C832 C816 1.368 . S
C832 C828 1.368 . S
C832 C831 1.523 . S
H833 C808 0.950 . S
H834 C810 0.950 . S
H835 C811 0.949 . S
H836 C813 0.950 . S
H837 C815 0.950 1_554 S
C838 C839 1.349 . S
C838 C840 1.327 . S
C838 H863 0.950 . S
C839 C838 1.349 . S
C839 C855 1.349 . S
C840 C838 1.327 . S
C840 C859 1.429 . S
C840 H864 0.950 . S
C841 C858 1.574 . S
C841 C860 1.368 . S
C841 H865 0.949 . S
H842 C846 0.949 . S
C843 C844 1.349 . S
C843 C845 1.327 . S
C843 H866 0.950 . S
C844 C843 1.349 . S
C844 C856 1.349 . S
C845 C843 1.327 . S
C845 C861 1.429 . S
C845 H867 0.950 . S
C846 H842 0.949 . S
C846 C854 1.574 . S
C846 C862 1.368 . S
H847 C855 0.950 . S
H848 C853 0.950 . S
H849 C854 0.949 . S
H850 C856 0.950 . S
H851 C857 0.950 . S
H852 C858 0.949 . S
C853 H848 0.950 . S
C853 C855 1.327 . S
C853 C859 1.429 . S
C854 C846 1.574 . S
C854 H849 0.949 . S
C854 C860 1.368 . S
C855 C839 1.349 . S
C855 H847 0.950 . S
C855 C853 1.327 . S
C856 C844 1.349 . S
C856 H850 0.950 . S
C856 C857 1.327 . S
C857 H851 0.950 . S
C857 C856 1.327 . S
C857 C861 1.429 . S
C858 C841 1.574 . S
C858 H852 0.949 . S
C858 C862 1.368 . S
C859 C840 1.429 . S
C859 C853 1.429 . S
C859 C860 1.523 . S
C860 C841 1.368 . S
C860 C854 1.368 . S
C860 C859 1.523 . S
C861 C845 1.429 . S
C861 C857 1.429 . S
C861 C862 1.523 . S
C862 C846 1.368 . S
C862 C858 1.368 . S
C862 C861 1.523 . S
H863 C838 0.950 . S
H864 C840 0.950 . S
H865 C841 0.949 . S
H866 C843 0.950 . S
H867 C845 0.950 . S
C868 C869 1.349 . S
C868 C870 1.327 . S
C868 H893 0.950 . S
C869 C868 1.349 . S
C869 C885 1.349 . S
C870 C868 1.327 . S
C870 C889 1.429 . S
C870 H894 0.950 . S
C871 C888 1.574 . S
C871 C890 1.368 . S
C871 H895 0.949 . S
H872 C876 0.949 . S
C873 C874 1.349 . S
C873 C875 1.327 . S
C873 H896 0.950 . S
C874 C873 1.349 . S
C874 C886 1.349 . S
C875 C873 1.327 . S
C875 C891 1.429 . S
C875 H897 0.950 . S
C876 H872 0.949 . S
C876 C884 1.574 . S
C876 C892 1.368 . S
H877 C885 0.950 . S
H878 C883 0.950 . S
H879 C884 0.949 . S
H880 C886 0.950 . S
H881 C887 0.950 . S
H882 C888 0.949 . S
C883 H878 0.950 . S
C883 C885 1.327 . S
C883 C889 1.429 . S
C884 C876 1.574 . S
C884 H879 0.949 . S
C884 C890 1.368 . S
C885 C869 1.349 . S
C885 H877 0.950 . S
C885 C883 1.327 . S
C886 C874 1.349 . S
C886 H880 0.950 . S
C886 C887 1.327 . S
C887 H881 0.950 . S
C887 C886 1.327 . S
C887 C891 1.429 . S
C888 C871 1.574 . S
C888 H882 0.949 . S
C888 C892 1.368 . S
C889 C870 1.429 . S
C889 C883 1.429 . S
C889 C890 1.523 . S
C890 C871 1.368 . S
C890 C884 1.368 . S
C890 C889 1.523 . S
C891 C875 1.429 . S
C891 C887 1.429 . S
C891 C892 1.523 . S
C892 C876 1.368 . S
C892 C888 1.368 . S
C892 C891 1.523 . S
H893 C868 0.950 . S
H894 C870 0.950 . S
H895 C871 0.949 . S
H896 C873 0.950 . S
H897 C875 0.950 . S
C898 C899 1.349 . S
C898 C900 1.327 . S
C898 H923 0.950 . S
C899 C898 1.349 . S
C899 C915 1.349 . S
C900 C898 1.327 . S
C900 C919 1.429 . S
C900 H924 0.950 . S
C901 C918 1.574 . S
C901 C920 1.368 . S
C901 H925 0.949 . S
H902 C906 0.949 . S
C903 C904 1.349 . S
C903 C905 1.327 . S
C903 H926 0.950 . S
C904 C903 1.349 . S
C904 C916 1.349 . S
C905 C903 1.327 . S
C905 C921 1.429 . S
C905 H927 0.950 . S
C906 H902 0.949 . S
C906 C914 1.574 . S
C906 C922 1.368 . S
H907 C915 0.950 . S
H908 C913 0.950 . S
H909 C914 0.949 . S
H910 C916 0.950 . S
H911 C917 0.950 . S
H912 C918 0.949 . S
C913 H908 0.950 . S
C913 C915 1.327 . S
C913 C919 1.429 . S
C914 C906 1.574 . S
C914 H909 0.949 . S
C914 C920 1.368 . S
C915 C899 1.349 . S
C915 H907 0.950 . S
C915 C913 1.327 . S
C916 C904 1.349 . S
C916 H910 0.950 . S
C916 C917 1.327 . S
C917 H911 0.950 . S
C917 C916 1.327 . S
C917 C921 1.429 . S
C918 C901 1.574 . S
C918 H912 0.949 . S
C918 C922 1.368 . S
C919 C900 1.429 . S
C919 C913 1.429 . S
C919 C920 1.523 . S
C920 C901 1.368 . S
C920 C914 1.368 . S
C920 C919 1.523 . S
C921 C905 1.429 . S
C921 C917 1.429 . S
C921 C922 1.523 . S
C922 C906 1.368 . S
C922 C918 1.368 . S
C922 C921 1.523 . S
H923 C898 0.950 . S
H924 C900 0.950 . S
H925 C901 0.949 . S
H926 C903 0.950 . S
H927 C905 0.950 . S
C209 C4 2.339 . S
C214 C104 2.347 . S
C239 C16 1.425 . S
C244 N124 1.406 . S
C274 C158 1.482 . S
C269 C32 1.475 . S
C299 C43 1.092 . S
C304 N192 1.059 . S
C334 C145 2.878 . S
C329 C5 2.863 . S
C364 N102 0.922 1_565 S
C359 C21 0.934 . S
C394 C179 1.727 1_556 S
C389 C27 1.714 . S
C424 N154 0.871 . S
C419 C37 0.881 . S
C449 C10 1.831 . S
C454 C194 1.844 . S
C484 C128 1.763 . S
C479 C26 1.747 . S
C509 C38 1.099 . S
C514 C89 1.108 . S
C539 C15 1.622 . S
C544 C175 1.628 . S
C574 C115 2.521 . S
C569 C48 2.516 . S
C599 C59 1.185 . S
C604 N132 1.169 . S
C629 C76 1.813 . S
C634 C149 1.821 . S
C659 C87 0.920 . S
C664 N184 0.903 . S
C689 C54 2.144 . S
C694 C134 2.161 . S
C724 N94 1.579 . S
C719 C60 1.593 . S
C754 C188 1.785 . S
C749 C71 1.764 . S
C784 N162 0.837 . S
C779 C82 0.840 . S
C809 C49 2.108 . S
C814 C205 2.103 1_656 S
C844 C119 1.329 . S
C839 C70 1.325 . S
C874 C98 1.499 . S
C869 C81 1.497 . S
C899 C65 1.427 . S
C904 C164 1.435 . S
