# Generated by pormake.
# Topology zzz, (3,6)-cn, num edge types: 1
# Building blocks:
#     Node 0, Type 0, BuildingBlock: BETDIP_clean_linker_0, # of connection points: 3
#     Node 1, Type 0, BuildingBlock: BETDIP_clean_linker_0, # of connection points: 3
#     Node 2, Type 0, BuildingBlock: BETDIP_clean_linker_0, # of connection points: 3
#     Node 3, Type 0, BuildingBlock: BETDIP_clean_linker_0, # of connection points: 3
#     Node 4, Type 0, BuildingBlock: BETDIP_clean_linker_0, # of connection points: 3
#     Node 5, Type 0, BuildingBlock: BETDIP_clean_linker_0, # of connection points: 3
#     Node 6, Type 0, BuildingBlock: BETDIP_clean_linker_0, # of connection points: 3
#     Node 7, Type 0, BuildingBlock: BETDIP_clean_linker_0, # of connection points: 3
#     Node 8, Type 1, BuildingBlock: KUMJIN_clean_sbu_1, # of connection points: 6
#     Node 9, Type 1, BuildingBlock: KUMJIN_clean_sbu_1, # of connection points: 6
#     Node 10, Type 1, BuildingBlock: KUMJIN_clean_sbu_1, # of connection points: 6
#     Node 11, Type 1, BuildingBlock: KUMJIN_clean_sbu_1, # of connection points: 6
#     Edge 12, Type (0, 1), BuildingBlock: KIFKEQ_clean_linker_1, # of connection points: 2
#     Edge 13, Type (0, 1), BuildingBlock: KIFKEQ_clean_linker_1, # of connection points: 2
#     Edge 14, Type (0, 1), BuildingBlock: KIFKEQ_clean_linker_1, # of connection points: 2
#     Edge 15, Type (0, 1), BuildingBlock: KIFKEQ_clean_linker_1, # of connection points: 2
#     Edge 16, Type (0, 1), BuildingBlock: KIFKEQ_clean_linker_1, # of connection points: 2
#     Edge 17, Type (0, 1), BuildingBlock: KIFKEQ_clean_linker_1, # of connection points: 2
#     Edge 18, Type (0, 1), BuildingBlock: KIFKEQ_clean_linker_1, # of connection points: 2
#     Edge 19, Type (0, 1), BuildingBlock: KIFKEQ_clean_linker_1, # of connection points: 2
#     Edge 20, Type (0, 1), BuildingBlock: KIFKEQ_clean_linker_1, # of connection points: 2
#     Edge 21, Type (0, 1), BuildingBlock: KIFKEQ_clean_linker_1, # of connection points: 2
#     Edge 22, Type (0, 1), BuildingBlock: KIFKEQ_clean_linker_1, # of connection points: 2
#     Edge 23, Type (0, 1), BuildingBlock: KIFKEQ_clean_linker_1, # of connection points: 2
#     Edge 24, Type (0, 1), BuildingBlock: KIFKEQ_clean_linker_1, # of connection points: 2
#     Edge 25, Type (0, 1), BuildingBlock: KIFKEQ_clean_linker_1, # of connection points: 2
#     Edge 26, Type (0, 1), BuildingBlock: KIFKEQ_clean_linker_1, # of connection points: 2
#     Edge 27, Type (0, 1), BuildingBlock: KIFKEQ_clean_linker_1, # of connection points: 2
#     Edge 28, Type (0, 1), BuildingBlock: KIFKEQ_clean_linker_1, # of connection points: 2
#     Edge 29, Type (0, 1), BuildingBlock: KIFKEQ_clean_linker_1, # of connection points: 2
#     Edge 30, Type (0, 1), BuildingBlock: KIFKEQ_clean_linker_1, # of connection points: 2
#     Edge 31, Type (0, 1), BuildingBlock: KIFKEQ_clean_linker_1, # of connection points: 2
#     Edge 32, Type (0, 1), BuildingBlock: KIFKEQ_clean_linker_1, # of connection points: 2
#     Edge 33, Type (0, 1), BuildingBlock: KIFKEQ_clean_linker_1, # of connection points: 2
#     Edge 34, Type (0, 1), BuildingBlock: KIFKEQ_clean_linker_1, # of connection points: 2
#     Edge 35, Type (0, 1), BuildingBlock: KIFKEQ_clean_linker_1, # of connection points: 2
# Relax obj value: 0.178
# Max RMSD: 0.102
# Mean RMSD: 0.079
data_MOF--net-zzz--node1-KUMJIN_clean_sbu_1--node2-BETDIP_clean_linker_0--edge1-KIFKEQ_clean_linker_1
_symmetry_space_group_name_H-M    P1
_symmetry_Int_Tables_number       1
_symmetry_cell_setting            triclinic
loop_
_symmetry_equiv_pos_as_xyz
'x, y, z'
_cell_length_a     51.155258
_cell_length_b     51.081683
_cell_length_c     15.952759
_cell_angle_alpha  89.997545
_cell_angle_beta   89.738995
_cell_angle_gamma 90.415856
loop_
_atom_site_label
_atom_site_type_symbol
_atom_site_fract_x
_atom_site_fract_y
_atom_site_fract_z
_atom_type_partial_charge
H0 H 0.7686 0.52818 0.37917 0.0
H1 H 0.75809 0.56192 0.13394 0.0
H2 H 0.83461 0.55955 0.24307 0.0
H3 H 0.7163 0.57562 0.22586 0.0
C4 C 0.71301 0.55469 0.21877 0.0
C5 C 0.77653 0.53823 0.32489 0.0
C6 C 0.80379 0.54476 0.32172 0.0
C7 C 0.75963 0.54502 0.25698 0.0
C8 C 0.77054 0.55749 0.18678 0.0
C9 C 0.7975 0.56196 0.17987 0.0
C10 C 0.81368 0.55641 0.24845 0.0
N11 N 0.73239 0.53757 0.25391 0.0
H12 H 0.02332 0.76947 0.3627 0.0
H13 H 0.96681 0.75411 0.16806 0.0
H14 H 0.96976 0.8293 0.28722 0.0
H15 H 0.96823 0.71246 0.24007 0.0
C16 C 0.98881 0.71094 0.22349 0.0
C17 C 1.00687 0.77562 0.32528 0.0
C18 C 0.99662 0.8014 0.33541 0.0
C19 C 0.99545 0.75784 0.26616 0.0
C20 C 0.97471 0.76673 0.21639 0.0
C21 C 0.96575 0.7925 0.22163 0.0
C22 C 0.9761 0.80912 0.28355 0.0
N23 N 1.00567 0.73199 0.25061 0.0
H24 H 0.77873 0.036 0.34712 0.0
H25 H 0.79227 0.97434 0.16743 0.0
H26 H 0.72161 0.97492 0.31348 0.0
H27 H 0.83799 0.98254 0.25012 0.0
C28 C 0.83667 1.00117 0.21747 0.0
C29 C 0.77286 0.01767 0.31852 0.0
C30 C 0.74849 1.00593 0.34072 0.0
C31 C 0.7896 1.0054 0.25874 0.0
C32 C 0.7808 0.98254 0.21818 0.0
C33 C 0.7562 0.97169 0.2366 0.0
C34 C 0.741 0.98277 0.30062 0.0
N35 N 0.81406 1.01693 0.23318 0.0
H36 H 0.51687 0.77953 0.32881 0.0
H37 H 0.58136 0.79444 0.15907 0.0
H38 H 0.57873 0.72357 0.30276 0.0
H39 H 0.57354 0.83736 0.21256 0.0
C40 C 0.55346 0.83709 0.19041 0.0
C41 C 0.53554 0.77399 0.30225 0.0
C42 C 0.54709 0.74972 0.32571 0.0
C43 C 0.54847 0.79104 0.24396 0.0
C44 C 0.57215 0.78273 0.20764 0.0
C45 C 0.58308 0.75848 0.22776 0.0
C46 C 0.57086 0.74273 0.28867 0.0
N47 N 0.53721 0.81543 0.21668 0.0
H48 H 0.28289 0.5186 0.98099 0.0
H49 H 0.29643 0.47708 0.21186 0.0
H50 H 0.21963 0.47784 0.10351 0.0
H51 H 0.31408 0.53197 0.21567 0.0
C52 C 0.32825 0.52044 0.18098 0.0
C53 C 0.27583 0.50598 0.03079 0.0
C54 C 0.24904 0.49759 0.03171 0.0
C55 C 0.29306 0.49863 0.09734 0.0
C56 C 0.28341 0.48262 0.16158 0.0
C57 C 0.25698 0.4756 0.1661 0.0
C58 C 0.24032 0.48245 0.09965 0.0
N59 N 0.31955 0.50807 0.10474 0.0
H60 H 0.03658 0.28495 0.96888 0.0
H61 H 0.05909 0.29393 0.2273 0.0
H62 H 0.05892 0.21763 0.11431 0.0
H63 H 1.0084 0.317 0.18522 0.0
C64 C 0.0239 0.33016 0.16417 0.0
C65 C 0.0437 0.27656 0.02667 0.0
C66 C 0.04836 0.24902 0.03178 0.0
C67 C 0.04738 0.29288 0.0986 0.0
C68 C 0.05619 0.28155 0.17285 0.0
C69 C 0.06017 0.25461 0.17943 0.0
C70 C 0.05663 0.23865 0.10862 0.0
N71 N 0.04117 0.32028 0.10042 0.0
H72 H 0.26465 0.0379 0.98096 0.0
H73 H 0.26424 0.07008 0.2318 0.0
H74 H 0.3336 0.07505 0.08109 0.0
H75 H 0.23777 0.02643 0.2378 0.0
C76 C 0.22413 0.03651 0.19719 0.0
C77 C 0.27435 0.0485 0.03083 0.0
C78 C 0.30101 0.05624 0.02117 0.0
C79 C 0.26061 0.05387 0.10698 0.0
C80 C 0.274 0.06655 0.17247 0.0
C81 C 0.3 0.07459 0.16235 0.0
C82 C 0.31304 0.06985 0.08667 0.0
N83 N 0.23365 0.04659 0.11872 0.0
H84 H 0.51451 0.2705 0.9934 0.0
H85 H 0.48829 0.26371 0.24979 0.0
H86 H 0.4871 0.33842 0.12706 0.0
H87 H 0.53735 0.24327 0.22907 0.0
C88 C 0.5249 0.22843 0.20044 0.0
C89 C 0.50613 0.27923 0.04911 0.0
C90 C 0.49997 0.30651 0.04986 0.0
C91 C 0.50207 0.26363 0.12259 0.0
C92 C 0.49149 0.27546 0.19403 0.0
C93 C 0.48659 0.30231 0.19693 0.0
C94 C 0.49026 0.31746 0.12436 0.0
N95 N 0.50989 0.23668 0.12919 0.0
Eu96 Eu 0.99745 0.0383 0.59268 0.0
C97 C 0.09461 0.05143 0.82537 0.0
N98 N 0.09035 0.03362 0.76352 0.0
C99 C 0.13456 0.03905 0.71538 0.0
C100 C 0.11888 0.06451 0.83261 0.0
C101 C 0.11028 0.02637 0.71149 0.0
C102 C 0.13876 0.05851 0.77536 0.0
C103 C 0.07933 0.07278 0.95227 0.0
C104 C 0.07511 0.05558 0.88446 0.0
C105 C 0.10307 0.08664 0.95774 0.0
C106 C 0.12279 0.08254 0.89797 0.0
Eu107 Eu 0.04794 1.01474 0.75863 0.0
N108 N 0.05222 0.04221 0.87691 0.0
C109 C 0.05975 0.0751 0.01344 0.0
C110 C 0.03377 0.04305 0.93903 0.0
C111 C 0.03705 0.05985 1.00746 0.0
H112 H 0.10771 1.01046 0.6679 0.0
H113 H 0.02212 0.06097 0.0556 0.0
H114 H 0.9451 1.00618 0.6651 0.0
H115 H 0.03794 0.03959 0.27369 0.0
H116 H 0.01631 0.03113 0.93466 0.0
H117 H 0.06227 0.08809 0.06656 0.0
H118 H 0.02997 0.05672 0.41562 0.0
H119 H 0.15013 0.03353 0.67289 0.0
H120 H 0.10658 0.10016 1.00887 0.0
H121 H 0.14122 0.09294 0.90404 0.0
H122 H 0.91506 0.97061 0.61995 0.0
H123 H 0.15768 0.06813 0.77876 0.0
H124 H 0.01468 0.99977 0.22558 0.0
N125 N 0.96866 1.004 0.55541 0.0
C126 C 0.97168 0.99369 0.47751 0.0
C127 C 0.93104 0.97675 0.57967 0.0
C128 C 0.95515 0.97334 0.44928 0.0
C129 C 0.94804 0.99676 0.60516 0.0
C130 C 0.93484 0.96471 0.5019 0.0
N131 N 1.00496 0.02516 0.45194 0.0
C132 C 0.02082 0.03852 0.39739 0.0
C133 C 0.99384 0.99436 0.34287 0.0
C134 C 0.99074 1.00421 0.42496 0.0
C135 C 1.01173 1.00674 0.28906 0.0
C136 C 0.02494 0.02919 0.31603 0.0
H137 H 0.92169 0.94918 0.48237 0.0
H138 H 0.94669 0.94689 0.34656 0.0
H139 H 0.98063 0.96522 0.25344 0.0
O140 O 0.97736 0.06317 0.5025 0.0
O141 O 1.00081 0.99425 0.62606 0.0
O142 O 0.04436 0.98889 0.64246 0.0
O143 O 0.96282 0.06022 0.6293 0.0
O144 O 0.04022 0.04899 0.55962 0.0
O145 O 0.06291 1.01581 0.62346 0.0
O146 O 0.03483 0.98081 0.82647 0.0
O147 O 0.03207 0.05651 0.77389 0.0
O148 O 0.02451 0.07094 0.6403 0.0
O149 O 0.07681 0.99008 0.82489 0.0
O150 O 1.00489 1.00684 0.79056 0.0
O151 O 0.98346 0.0407 0.72806 0.0
C152 C 0.02181 0.97974 0.61611 0.0
C153 C 0.96169 0.1014 0.5677 0.0
C154 C 0.98575 0.14272 0.56423 0.0
C155 C 0.96348 0.15553 0.59553 0.0
C156 C 0.93961 0.11436 0.59858 0.0
C157 C 0.94061 0.14134 0.61289 0.0
C158 C 0.98474 0.11555 0.55233 0.0
C159 C 0.06102 0.03387 0.56473 0.0
C160 C 0.96162 0.07286 0.55881 0.0
C161 C 0.95899 0.96274 0.369 0.0
C162 C 0.97835 0.97316 0.31602 0.0
C163 C 0.03022 0.07572 0.71932 0.0
C164 C 0.06201 0.95091 0.90149 0.0
C165 C 0.04263 0.91256 0.96755 0.0
C166 C 0.06648 0.90746 1.00748 0.0
C167 C 0.08594 0.94557 0.94034 0.0
C168 C 0.04067 0.93407 0.91433 0.0
C169 C 0.08813 0.9238 0.99305 0.0
C170 C 0.9849 0.02286 0.78691 0.0
C171 C 0.05821 0.9744 0.85043 0.0
H172 H 0.96343 0.17655 0.60425 0.0
H173 H 0.9218 0.10358 0.61256 0.0
H174 H 0.92352 0.15133 0.63666 0.0
H175 H 1.00204 0.1053 0.53134 0.0
H176 H 0.06833 0.8909 0.04939 0.0
H177 H 0.10268 0.95837 0.93113 0.0
H178 H 0.02203 0.93811 0.88504 0.0
H179 H 0.10651 0.91979 0.02362 0.0
Eu180 Eu 0.53297 0.04814 0.7727 0.0
C181 C 0.51032 0.94266 0.63385 0.0
N182 N 0.52734 0.96085 0.60336 0.0
C183 C 0.56092 0.92855 0.59258 0.0
C184 C 0.51846 0.9168 0.64925 0.0
C185 C 0.55201 0.95402 0.5791 0.0
C186 C 0.54421 0.90996 0.62904 0.0
C187 C 0.46628 0.93123 0.67756 0.0
C188 C 0.48458 0.94987 0.64783 0.0
C189 C 0.47459 0.9058 0.69719 0.0
C190 C 0.50061 0.89859 0.6829 0.0
Eu191 Eu 0.51122 1.00364 0.58544 0.0
N192 N 0.47709 0.97455 0.62727 0.0
C193 C 0.44 0.93841 0.68372 0.0
C194 C 0.45114 0.98073 0.62562 0.0
C195 C 0.43234 0.96308 0.65594 0.0
H196 H 0.56493 0.96849 0.55138 0.0
H197 H 0.41189 0.9684 0.65669 0.0
H198 H 0.47971 0.05769 0.89649 0.0
H199 H 0.60239 0.12274 0.66734 0.0
H200 H 0.4447 0.99914 0.60011 0.0
H201 H 0.42535 0.92468 0.70636 0.0
H202 H 0.58768 0.07822 0.70877 0.0
H203 H 0.58068 0.92331 0.57526 0.0
H204 H 0.46086 0.89134 0.72107 0.0
H205 H 0.50658 0.87872 0.69632 0.0
H206 H 0.44806 0.09273 0.92563 0.0
H207 H 0.5512 0.89028 0.63986 0.0
H208 H 0.57169 0.15989 0.67673 0.0
N209 N 0.5033 0.08117 0.81536 0.0
C210 C 0.50871 0.10582 0.78828 0.0
C211 C 0.46483 0.09661 0.88581 0.0
C212 C 0.49165 0.12672 0.80572 0.0
C213 C 0.48259 0.07666 0.8679 0.0
C214 C 0.46909 0.12165 0.85313 0.0
N215 N 0.54912 0.09027 0.73911 0.0
C216 C 0.57431 0.09445 0.7134 0.0
C217 C 0.53995 0.13623 0.72672 0.0
C218 C 0.53251 0.11057 0.74954 0.0
C219 C 0.56521 0.14047 0.69499 0.0
C220 C 0.58263 0.11956 0.68984 0.0
H221 H 0.45547 0.13715 0.86791 0.0
H222 H 0.48522 0.16835 0.79047 0.0
H223 H 0.52756 0.17667 0.72107 0.0
O224 O 0.56437 0.03041 0.8424 0.0
O225 O 0.53554 0.06507 0.63918 0.0
O226 O 0.50018 0.04681 0.57501 0.0
O227 O 0.54196 0.06204 0.90076 0.0
O228 O 0.56781 0.03085 0.69987 0.0
O229 O 0.55269 0.01928 0.56812 0.0
O230 O 0.49081 0.9873 0.47744 0.0
O231 O 0.53396 0.98762 0.6991 0.0
O232 O 0.51399 1.00901 0.80399 0.0
O233 O 0.52785 1.0069 0.45957 0.0
O234 O 0.47831 0.02893 0.64177 0.0
O235 O 0.49164 0.03061 0.77834 0.0
C236 C 0.51724 0.06606 0.5815 0.0
C237 C 0.57619 0.04119 0.98434 0.0
C238 C 0.60727 1.0149 0.06325 0.0
C239 C 0.60623 0.03347 0.12851 0.0
C240 C 0.57529 0.05937 0.0501 0.0
C241 C 0.59022 0.05542 0.12198 0.0
C242 C 0.59187 0.01887 0.99188 0.0
C243 C 0.5719 0.02487 0.62014 0.0
C244 C 0.56025 0.04462 0.9088 0.0
C245 C 0.49823 0.15211 0.77858 0.0
C246 C 0.52235 0.15686 0.73914 0.0
C247 C 0.52429 0.98742 0.77559 0.0
C248 C 0.49632 1.01269 0.3562 0.0
C249 C 0.46514 0.04578 0.31135 0.0
C250 C 0.47369 0.04195 0.22793 0.0
C251 C 0.50467 1.00933 0.27335 0.0
C252 C 0.47729 0.03141 0.37522 0.0
C253 C 0.49353 0.02414 0.20953 0.0
C254 C 0.47288 0.03164 0.72225 0.0
C255 C 0.50744 0.99682 0.42333 0.0
H256 H 0.61823 0.03144 0.18384 0.0
H257 H 0.5631 0.07657 0.04595 0.0
H258 H 0.58961 0.06957 0.17244 0.0
H259 H 0.59195 1.00442 0.94214 0.0
H260 H 0.46456 0.05193 0.17605 0.0
H261 H 0.51963 0.99518 0.25807 0.0
H262 H 0.4717 0.03424 0.44005 0.0
H263 H 0.49981 0.02134 0.14527 0.0
Eu264 Eu 0.54827 0.52282 0.60583 0.0
C265 C 0.43673 0.52282 0.8243 0.0
N266 N 0.44945 0.5407 0.7761 0.0
C267 C 0.40856 0.55669 0.72501 0.0
C268 C 0.40923 0.52075 0.82356 0.0
C269 C 0.43585 0.55819 0.72903 0.0
C270 C 0.39519 0.53766 0.77174 0.0
C271 C 0.43869 0.49047 0.93498 0.0
C272 C 0.45121 0.50785 0.87874 0.0
C273 C 0.41139 0.48743 0.93213 0.0
C274 C 0.39668 0.50252 0.87638 0.0
Eu275 Eu 0.49563 0.54046 0.77869 0.0
N276 N 0.47745 0.51159 0.88045 0.0
C277 C 0.4539 0.47739 0.99424 0.0
C278 C 0.49215 0.50018 0.94166 0.0
C279 C 0.48071 0.48258 0.99837 0.0
H280 H 0.44615 0.57321 0.69408 0.0
H281 H 0.49256 0.47307 0.04526 0.0
H282 H 0.60241 0.55511 0.66589 0.0
H283 H 0.49762 0.52962 0.30353 0.0
H284 H 0.51287 0.50408 0.9455 0.0
H285 H 0.44505 0.46387 0.03855 0.0
H286 H 0.51255 0.50774 0.43204 0.0
H287 H 0.39787 0.57028 0.68632 0.0
H288 H 0.40143 0.47401 0.9743 0.0
H289 H 0.37558 0.50049 0.87631 0.0
H290 H 0.62812 0.59405 0.62419 0.0
H291 H 0.37404 0.53669 0.76918 0.0
H292 H 0.5156 0.57311 0.26517 0.0
N293 N 0.57466 0.55921 0.5678 0.0
C294 C 0.56801 0.57226 0.49699 0.0
C295 C 0.61115 0.58825 0.5882 0.0
C296 C 0.58217 0.59465 0.47085 0.0
C297 C 0.59646 0.56625 0.61185 0.0
C298 C 0.60379 0.60272 0.518 0.0
N299 N 0.5353 0.54017 0.4738 0.0
C300 C 0.51906 0.52745 0.41936 0.0
C301 C 0.54047 0.57551 0.37438 0.0
C302 C 0.54736 0.56279 0.44964 0.0
C303 C 0.52144 0.56397 0.3234 0.0
C304 C 0.51118 0.53949 0.34497 0.0
H305 H 0.61514 0.61982 0.50005 0.0
H306 H 0.58477 0.62563 0.37827 0.0
H307 H 0.54825 0.60883 0.29363 0.0
O308 O 0.56593 0.50183 0.50071 0.0
O309 O 0.54294 0.56474 0.65565 0.0
O310 O 0.49914 0.56803 0.66632 0.0
O311 O 0.58528 0.50238 0.62017 0.0
O312 O 0.50578 0.50831 0.58073 0.0
O313 O 0.4815 0.54046 0.64316 0.0
O314 O 0.52008 0.57125 0.83191 0.0
O315 O 0.5016 0.49653 0.7732 0.0
O316 O 0.53445 0.48604 0.6781 0.0
O317 O 0.47878 0.56722 0.87084 0.0
O318 O 0.53547 0.52882 0.83383 0.0
O319 O 0.56781 0.52847 0.7316 0.0
C320 C 0.52156 0.57823 0.64249 0.0
C321 C 0.58528 0.4629 0.5481 0.0
C322 C 0.56249 0.42086 0.54745 0.0
C323 C 0.58616 0.40837 0.56638 0.0
C324 C 0.60877 0.45023 0.56639 0.0
C325 C 0.60914 0.42304 0.5758 0.0
C326 C 0.56222 0.44817 0.53967 0.0
C327 C 0.48404 0.52222 0.58545 0.0
C328 C 0.58412 0.49155 0.54675 0.0
C329 C 0.57443 0.60813 0.39853 0.0
C330 C 0.55356 0.59863 0.35054 0.0
C331 C 0.51716 0.47952 0.73674 0.0
C332 C 0.50442 0.60172 0.93721 0.0
C333 C 0.53336 0.63132 0.01268 0.0
C334 C 0.51175 0.64077 0.05808 0.0
C335 C 0.483 0.61145 0.98262 0.0
C336 C 0.52953 0.61196 0.9518 0.0
C337 C 0.48671 0.63096 0.04264 0.0
C338 C 0.56032 0.52831 0.81047 0.0
C339 C 0.50106 0.57953 0.87989 0.0
H340 H 0.58708 0.38725 0.57149 0.0
H341 H 0.62666 0.4614 0.57473 0.0
H342 H 0.62731 0.41329 0.58996 0.0
H343 H 0.5439 0.45801 0.52768 0.0
H344 H 0.5142 0.65602 0.10466 0.0
H345 H 0.46348 0.60374 0.97264 0.0
H346 H 0.54623 0.60441 0.91768 0.0
H347 H 0.47017 0.63838 0.07763 0.0
Eu348 Eu 0.0347 0.54985 0.60711 0.0
C349 C 0.04853 0.47643 0.91702 0.0
N350 N 0.04213 0.47073 0.83675 0.0
C351 C 0.07105 0.43398 0.83792 0.0
C352 C 0.06764 0.46193 0.9598 0.0
C353 C 0.05204 0.44906 0.79812 0.0
C354 C 0.07934 0.44082 0.91844 0.0
C355 C 0.03854 0.50016 0.04433 0.0
C356 C 0.0341 0.49515 0.95858 0.0
C357 C 0.05892 0.48723 0.08575 0.0
C358 C 0.07343 0.46808 0.04355 0.0
Eu359 Eu 1.01073 0.4976 0.77162 0.0
N360 N 1.01393 0.50639 0.91743 0.0
C361 C 0.02145 0.51688 0.08686 0.0
C362 C 0.99583 0.52063 0.96054 0.0
C363 C 0.99967 0.52671 0.04515 0.0
H364 H 0.04574 0.44393 0.73562 0.0
H365 H 0.98564 0.53866 0.07839 0.0
H366 H 0.03194 0.6081 0.7109 0.0
H367 H 0.99029 0.52911 0.30392 0.0
H368 H 0.97835 0.5273 0.92961 0.0
H369 H 0.02416 0.52126 0.15273 0.0
H370 H 0.02299 0.52504 0.41705 0.0
H371 H 0.07939 0.41724 0.80633 0.0
H372 H 0.06283 0.49103 0.15136 0.0
H373 H 0.08831 0.45742 0.07722 0.0
H374 H 1.00087 0.64427 0.72963 0.0
H375 H 0.09405 0.42911 0.94919 0.0
H376 H 0.9547 0.56148 0.3169 0.0
N377 N 1.00861 0.58807 0.62101 0.0
C378 C 0.98859 0.59046 0.5659 0.0
C379 C 0.99684 0.62896 0.68447 0.0
C380 C 0.97084 0.6114 0.57154 0.0
C381 C 1.01409 0.60803 0.67523 0.0
C382 C 0.9747 0.6303 0.63384 0.0
N383 N 1.00569 0.5544 0.49306 0.0
C384 C 1.00758 0.53927 0.42273 0.0
C385 C 0.96819 0.57629 0.43651 0.0
C386 C 0.98734 0.57332 0.49901 0.0
C387 C 0.96903 0.55981 0.36637 0.0
C388 C 0.9891 0.54153 0.35877 0.0
H389 H 0.96154 0.64671 0.6403 0.0
H390 H 0.93662 0.62924 0.51652 0.0
H391 H 0.93422 0.59833 0.39835 0.0
O392 O 0.07032 0.54444 0.53855 0.0
O393 O 0.9972 0.52555 0.58771 0.0
O394 O 0.98042 0.5258 0.71817 0.0
O395 O 0.05382 0.58391 0.54441 0.0
O396 O 0.04226 0.50853 0.55578 0.0
O397 O 0.02111 0.47943 0.64545 0.0
O398 O 0.98406 0.47265 0.84403 0.0
O399 O 0.05521 0.49972 0.74431 0.0
O400 O 0.06232 0.54308 0.71802 0.0
O401 O 0.98637 0.46838 0.70964 0.0
O402 O 1.00066 0.54064 0.7992 0.0
O403 O 0.036 0.56243 0.74538 0.0
C404 C 0.97665 0.5269 0.63698 0.0
C405 C 0.09576 0.57786 0.47129 0.0
C406 C 0.13894 0.56754 0.4181 0.0
C407 C 0.13954 0.59129 0.37386 0.0
C408 C 0.09652 0.60187 0.42863 0.0
C409 C 0.11851 0.60859 0.38035 0.0
C410 C 0.11728 0.56124 0.4674 0.0
C411 C 0.0335 0.48481 0.57472 0.0
C412 C 0.07276 0.56903 0.5186 0.0
C413 C 0.95067 0.61352 0.51243 0.0
C414 C 0.94935 0.59598 0.44498 0.0
C415 C 0.07082 0.52039 0.74572 0.0
C416 C 0.94524 0.46373 0.76998 0.0
C417 C 0.90536 0.48932 0.78163 0.0
C418 C 0.89125 0.46822 0.74675 0.0
C419 C 0.93098 0.44291 0.73545 0.0
C420 C 0.93249 0.48697 0.79139 0.0
C421 C 0.90407 0.44524 0.72354 0.0
C422 C 0.01729 0.56043 0.80206 0.0
C423 C 0.97368 0.4621 0.7775 0.0
H424 H 0.15606 0.59626 0.33405 0.0
H425 H 0.08008 0.6151 0.43143 0.0
H426 H 0.119 0.62696 0.34651 0.0
H427 H 0.11677 0.54257 0.49985 0.0
H428 H 0.87024 0.46911 0.73967 0.0
H429 H 0.94069 0.42501 0.71707 0.0
H430 H 0.94381 0.50325 0.81586 0.0
H431 H 0.89306 0.42909 0.69709 0.0
H432 H 0.19137 0.99555 0.22653 0.0
H433 H 0.19503 0.07956 0.24117 0.0
H434 H 0.15 0.99544 0.30223 0.0
H435 H 0.15434 0.07977 0.32294 0.0
H436 H 0.07387 0.07397 0.45257 0.0
H437 H 0.10981 0.07519 0.3503 0.0
H438 H 0.13394 0.99852 0.433 0.0
H439 H 0.09732 0.99662 0.52828 0.0
C440 C 0.18299 1.01412 0.24487 0.0
C441 C 0.19627 0.03755 0.22617 0.0
C442 C 0.15937 1.01413 0.29028 0.0
C443 C 0.1486 0.03757 0.32197 0.0
C444 C 0.16149 0.06122 0.29997 0.0
C445 C 0.18492 0.06119 0.25251 0.0
C446 C 0.08664 0.05722 0.44769 0.0
C447 C 0.08253 0.03527 0.49981 0.0
C448 C 0.1076 0.058 0.38939 0.0
C449 C 0.12527 0.03692 0.38165 0.0
C450 C 0.12085 1.01504 0.43401 0.0
C451 C 0.09984 1.01413 0.49078 0.0
H452 H 0.49482 0.1828 0.16736 0.0
H453 H 0.54834 0.21674 0.34538 0.0
H454 H 0.49226 0.14272 0.25395 0.0
H455 H 0.54523 0.17802 0.4319 0.0
H456 H 0.55792 0.09859 0.53953 0.0
H457 H 0.55887 0.13534 0.44351 0.0
H458 H 0.4778 0.12129 0.38256 0.0
H459 H 0.47713 0.08387 0.47941 0.0
C460 C 0.50602 0.18178 0.22467 0.0
C461 C 0.52204 0.20307 0.24856 0.0
C462 C 0.50446 0.15881 0.27494 0.0
C463 C 0.51886 0.15653 0.35037 0.0
C464 C 0.53439 0.17819 0.37379 0.0
C465 C 0.53603 0.20075 0.32395 0.0
C466 C 0.54014 0.10341 0.50671 0.0
C467 C 0.51734 0.08833 0.51927 0.0
C468 C 0.54063 0.12472 0.45094 0.0
C469 C 0.51825 0.13212 0.40529 0.0
C470 C 0.49553 0.1165 0.41581 0.0
C471 C 0.4951 0.09496 0.47185 0.0
H472 H 0.35795 0.47691 0.2231 0.0
H473 H 0.35857 0.56104 0.23119 0.0
H474 H 0.39607 0.47602 0.31636 0.0
H475 H 0.39729 0.56063 0.31842 0.0
H476 H 0.44568 0.55757 0.55049 0.0
H477 H 0.41082 0.55558 0.45005 0.0
H478 H 0.43923 0.48108 0.36109 0.0
H479 H 0.47338 0.48227 0.46882 0.0
C480 C 0.36686 0.49527 0.24205 0.0
C481 C 0.35529 0.51909 0.21826 0.0
C482 C 0.38879 0.49483 0.29642 0.0
C483 C 0.40002 0.51825 0.32838 0.0
C484 C 0.38915 0.54197 0.29944 0.0
C485 C 0.36704 0.54232 0.24718 0.0
C486 C 0.44449 0.54044 0.51086 0.0
C487 C 0.46274 0.52008 0.51941 0.0
C488 C 0.42447 0.53952 0.45075 0.0
C489 C 0.42184 0.5184 0.39409 0.0
C490 C 0.44007 0.49779 0.40266 0.0
C491 C 0.46002 0.49855 0.46443 0.0
H492 H 0.06499 0.36753 0.16583 0.0
H493 H 0.99005 0.34949 0.2768 0.0
H494 H 0.0694 0.40552 0.26109 0.0
H495 H 0.99412 0.38686 0.3696 0.0
H496 H 0.0186 0.43342 0.59345 0.0
H497 H 0.01835 0.39836 0.49137 0.0
H498 H 0.05266 0.45001 0.3067 0.0
H499 H 0.05333 0.48559 0.41078 0.0
C500 C 0.04934 0.37178 0.20956 0.0
C501 C 0.02718 0.35521 0.21358 0.0
C502 C 0.05184 0.39361 0.26439 0.0
C503 C 0.03235 0.39927 0.32504 0.0
C504 C 1.00996 0.38306 0.32609 0.0
C505 C 1.00749 0.36157 0.27188 0.0
C506 C 0.0263 0.43758 0.53149 0.0
C507 C 0.03578 0.46281 0.51132 0.0
C508 C 0.02597 0.41727 0.47207 0.0
C509 C 0.03504 0.42111 0.38931 0.0
C510 C 0.04547 0.44607 0.36942 0.0
C511 C 0.04577 0.4666 0.42937 0.0
H512 H 0.88617 0.9833 0.22296 0.0
H513 H 0.83699 0.03398 0.07783 0.0
H514 H 0.92181 0.98989 0.12408 0.0
H515 H 0.87221 0.03951 0.97446 0.0
H516 H 0.94646 0.05868 0.8236 0.0
H517 H 0.91183 0.0558 0.92871 0.0
H518 H 0.93873 0.97875 0.99799 0.0
H519 H 0.97407 0.98247 0.89626 0.0
C520 C 0.883 0.99597 0.16952 0.0
C521 C 0.85871 1.00822 0.15893 0.0
C522 C 0.90346 0.99949 0.1115 0.0
C523 C 0.90027 1.0149 0.03886 0.0
C524 C 0.87595 0.02768 0.02928 0.0
C525 C 0.85555 0.02453 0.08873 0.0
C526 C 0.94504 0.04114 0.86154 0.0
C527 C 0.96331 0.02085 0.85109 0.0
C528 C 0.92489 0.03936 0.92198 0.0
C529 C 0.922 1.01705 0.97363 0.0
C530 C 0.94025 0.99665 0.96204 0.0
C531 C 0.96061 0.99863 0.9026 0.0
H532 H 0.50478 0.85111 0.12197 0.0
H533 H 0.58688 0.87063 0.11542 0.0
H534 H 0.49637 0.88637 0.01958 0.0
H535 H 0.57871 0.90512 0.01404 0.0
H536 H 0.56112 0.94838 0.77128 0.0
H537 H 0.56596 0.91118 0.86653 0.0
H538 H 0.49815 0.93626 1.00585 0.0
H539 H 0.49332 0.97348 0.90995 0.0
C540 C 0.52101 0.86275 0.09863 0.0
C541 C 0.54655 0.85786 0.12715 0.0
C542 C 0.51623 0.88307 0.04007 0.0
C543 C 0.53689 0.89867 1.00736 0.0
C544 C 0.56229 0.89347 0.03607 0.0
C545 C 0.56695 0.87366 0.09497 0.0
C546 C 0.54706 0.94584 0.82157 0.0
C547 C 0.52681 0.96403 0.8324 0.0
C548 C 0.54992 0.92453 0.87688 0.0
C549 C 0.5325 0.9205 0.94473 0.0
C550 C 0.51186 0.93841 0.95434 0.0
C551 C 0.50922 0.95995 0.89957 0.0
H552 H 0.70241 0.50841 0.12936 0.0
H553 H 0.6698 0.58349 0.19133 0.0
H554 H 0.66512 0.49977 0.03538 0.0
H555 H 0.63277 0.57494 0.09945 0.0
H556 H 0.55769 0.54521 0.97532 0.0
H557 H 0.59303 0.54873 0.07801 0.0
H558 H 0.64686 0.51559 0.89905 0.0
H559 H 0.61163 0.51234 0.7962 0.0
C560 C 0.6871 0.52285 0.12442 0.0
C561 C 0.68914 0.54658 0.16905 0.0
C562 C 0.66575 0.51804 0.06973 0.0
C563 C 0.64555 0.5366 0.05912 0.0
C564 C 0.64745 0.55991 0.10596 0.0
C565 C 0.66887 0.56486 0.15897 0.0
C566 C 0.57696 0.53837 0.95794 0.0
C567 C 0.5815 0.52846 0.87667 0.0
C568 C 0.59742 0.54056 0.01696 0.0
C569 C 0.62317 0.5325 0.9977 0.0
C570 C 0.62747 0.52183 0.91728 0.0
C571 C 0.60713 0.52009 0.85776 0.0
H572 H 0.95488 0.68416 0.1276 0.0
H573 H 0.0374 0.68931 0.17749 0.0
H574 H 0.9622 0.64919 0.02853 0.0
H575 H 0.04502 0.65258 0.08081 0.0
H576 H 0.05341 0.59778 0.85129 0.0
H577 H 0.04802 0.63392 0.9496 0.0
H578 H 0.9695 0.6068 1.0038 0.0
H579 H 0.97431 0.5724 0.90023 0.0
C580 C 0.97476 0.67758 0.11785 0.0
C581 C 0.99548 0.68975 0.16106 0.0
C582 C 0.97901 0.65702 0.06113 0.0
C583 C 1.00425 0.64704 0.04606 0.0
C584 C 0.02522 0.65945 0.08902 0.0
C585 C 0.02093 0.6806 0.14518 0.0
C586 C 0.03489 0.59965 0.8838 0.0
C587 C 1.01433 0.58183 0.86704 0.0
C588 C 0.03184 0.62042 0.94148 0.0
C589 C 1.00818 0.62407 0.98591 0.0
C590 C 0.9879 0.60566 0.97043 0.0
C591 C 0.99081 0.58527 0.9116 0.0
H592 H 0.0923 0.21402 0.22399 0.0
H593 H 0.03541 0.26791 0.32438 0.0
H594 H 0.08758 0.18698 0.34963 0.0
H595 H 0.0307 0.24123 0.44793 0.0
H596 H 0.01598 0.13309 0.42704 0.0
H597 H 0.04802 0.16139 0.36399 0.0
H598 H 0.04081 0.21544 0.57123 0.0
H599 H 1.00852 0.18626 0.63673 0.0
C600 C 0.07943 0.2205 0.27385 0.0
C601 C 0.06365 0.24262 0.26318 0.0
C602 C 0.07688 0.20517 0.34597 0.0
C603 C 0.05823 0.21158 0.40762 0.0
C604 C 0.04528 0.23565 0.40198 0.0
C605 C 0.04788 0.25097 0.33031 0.0
C606 C 0.02189 0.15037 0.46161 0.0
C607 C 1.00914 0.15769 0.53615 0.0
C608 C 0.04058 0.16667 0.42532 0.0
C609 C 0.04675 0.19093 0.46189 0.0
C610 C 0.03612 0.19702 0.54097 0.0
C611 C 0.01742 0.1805 0.57789 0.0
H612 H 0.32606 0.12103 0.18201 0.0
H613 H 0.31083 0.04668 0.30053 0.0
H614 H 0.36603 0.12602 0.26333 0.0
H615 H 0.35123 0.0502 0.37651 0.0
H616 H 0.42909 0.04051 0.44064 0.0
H617 H 0.38694 0.06075 0.45128 0.0
H618 H 0.40463 0.10717 0.23099 0.0
H619 H 0.44815 0.08971 0.22769 0.0
C620 C 0.33079 0.10629 0.22826 0.0
C621 C 0.31585 0.08324 0.23416 0.0
C622 C 0.35393 0.10885 0.27386 0.0
C623 C 0.36291 0.08787 0.32311 0.0
C624 C 0.34556 0.0668 0.33884 0.0
C625 C 0.32212 0.06464 0.29506 0.0
C626 C 0.42469 0.05589 0.39645 0.0
C627 C 0.4419 0.06238 0.3302 0.0
C628 C 0.40003 0.06729 0.40194 0.0
C629 C 0.39145 0.0845 0.33921 0.0
C630 C 0.40994 0.09362 0.28001 0.0
C631 C 0.43497 0.08298 0.27651 0.0
H632 H 0.51126 0.29127 0.34306 0.0
H633 H 0.45373 0.34302 0.23685 0.0
H634 H 0.51643 0.32004 0.46058 0.0
H635 H 0.45867 0.3722 0.35721 0.0
H636 H 0.54282 0.37756 0.62926 0.0
H637 H 0.50938 0.34745 0.57674 0.0
H638 H 0.49578 0.39959 0.36793 0.0
H639 H 0.52827 0.42942 0.42095 0.0
C640 C 0.49869 0.30821 0.34668 0.0
C641 C 0.4827 0.31531 0.2791 0.0
C642 C 0.50158 0.32483 0.41504 0.0
C643 C 0.48865 0.34901 0.41713 0.0
C644 C 0.46958 0.35411 0.35598 0.0
C645 C 0.4668 0.33748 0.28695 0.0
C646 C 0.53212 0.38276 0.57334 0.0
C647 C 0.53868 0.40544 0.52791 0.0
C648 C 0.51288 0.36563 0.54349 0.0
C649 C 0.50034 0.37068 0.46681 0.0
C650 C 0.5048 0.39492 0.42728 0.0
C651 C 0.52377 0.41207 0.45744 0.0
H652 H 0.27215 0.49126 0.32343 0.0
H653 H 0.21492 0.44259 0.19795 0.0
H654 H 0.24013 0.50309 0.42669 0.0
H655 H 0.18234 0.45574 0.30101 0.0
H656 H 0.15307 0.54549 0.27173 0.0
H657 H 0.18041 0.50714 0.25195 0.0
H658 H 0.19544 0.50427 0.51809 0.0
H659 H 0.16745 0.54278 0.53801 0.0
C660 C 0.25326 0.48164 0.3202 0.0
C661 C 0.24532 0.46783 0.24803 0.0
C662 C 0.23478 0.48848 0.38046 0.0
C663 C 0.20854 0.48175 0.36768 0.0
C664 C 0.20244 0.46196 0.30972 0.0
C665 C 0.22106 0.4547 0.25012 0.0
C666 C 0.16243 0.53681 0.32574 0.0
C667 C 0.15874 0.54723 0.40589 0.0
C668 C 0.1774 0.51446 0.31501 0.0
C669 C 0.18915 0.50224 0.38421 0.0
C670 C 0.18593 0.51296 0.46443 0.0
C671 C 0.17049 0.53516 0.47536 0.0
H672 H 0.97148 0.78181 0.05401 0.0
H673 H 0.92762 0.83075 0.22399 0.0
H674 H 0.97465 0.81728 0.95598 0.0
H675 H 0.93192 0.86696 0.12568 0.0
H676 H 0.02125 0.90117 0.11863 0.0
H677 H 0.98261 0.87462 0.14733 0.0
H678 H 0.97169 0.8622 0.88167 0.0
H679 H 1.01059 0.88927 0.8531 0.0
C680 C 0.96095 0.79954 0.06876 0.0
C681 C 0.95144 0.80437 0.15024 0.0
C682 C 0.96276 0.82009 1.01161 0.0
C683 C 0.9554 0.8453 0.03681 0.0
C684 C 0.93886 0.84784 0.10686 0.0
C685 C 0.93662 0.8271 0.16355 0.0
C686 C 1.01043 0.89295 0.06652 0.0
C687 C 0.01908 0.89663 0.98406 0.0
C688 C 0.98792 0.87833 0.08254 0.0
C689 C 0.97377 0.8668 0.01637 0.0
C690 C 0.98193 0.87129 0.93348 0.0
C691 C 1.00431 0.88635 0.91741 0.0
H692 H 0.7533 0.97831 0.06848 0.0
H693 H 0.72706 0.92705 0.26687 0.0
H694 H 0.7123 0.97271 0.99806 0.0
H695 H 0.68563 0.92065 0.19475 0.0
H696 H 0.62039 0.98554 0.20045 0.0
H697 H 0.65717 0.95646 0.21318 0.0
H698 H 0.67116 0.96198 0.9461 0.0
H699 H 0.63553 0.99283 0.93461 0.0
C700 C 0.73947 0.96428 0.09427 0.0
C701 C 0.7426 0.95449 0.17576 0.0
C702 C 0.71558 0.96109 0.05371 0.0
C703 C 0.69486 0.94778 0.09413 0.0
C704 C 0.70074 0.93227 0.16442 0.0
C705 C 0.72464 0.93564 0.20532 0.0
C706 C 0.63116 0.98042 0.14425 0.0
C707 C 0.62558 0.99241 0.06729 0.0
C708 C 0.65201 0.96312 0.15104 0.0
C709 C 0.6677 0.9572 0.08074 0.0
C710 C 0.65994 0.96655 1.00187 0.0
C711 C 0.63932 0.98421 0.99531 0.0
H712 H 0.5854 0.76024 0.05694 0.0
H713 H 0.62569 0.72839 0.2706 0.0
H714 H 0.59555 0.72186 0.97727 0.0
H715 H 0.63585 0.6893 0.18984 0.0
H716 H 0.55766 0.63735 0.16216 0.0
H717 H 0.5941 0.66617 0.19131 0.0
H718 H 0.60547 0.67894 0.92536 0.0
H719 H 0.56832 0.64996 0.89683 0.0
C720 C 0.59795 0.74582 0.0856 0.0
C721 C 0.60293 0.7463 0.17211 0.0
C722 C 0.60391 0.7235 0.0393 0.0
C723 C 0.61437 0.70152 0.08009 0.0
C724 C 0.6263 0.70541 0.15846 0.0
C725 C 0.62038 0.72781 0.20496 0.0
C726 C 0.56849 0.64568 0.10995 0.0
C727 C 0.55965 0.64239 0.0277 0.0
C728 C 0.58981 0.66194 0.12628 0.0
C729 C 0.60237 0.67564 0.06053 0.0
C730 C 0.59592 0.6691 0.9774 0.0
C731 C 0.57457 0.65264 0.96107 0.0
H732 H 0.78251 0.54149 0.02984 0.0
H733 H 0.83978 0.59356 0.14025 0.0
H734 H 0.80923 0.53729 0.9068 0.0
H735 H 0.86706 0.58915 0.01501 0.0
H736 H 0.91704 0.51713 0.92286 0.0
H737 H 0.8905 0.5492 0.99224 0.0
H738 H 0.83567 0.54713 0.78687 0.0
H739 H 0.86259 0.51451 0.71636 0.0
C740 C 0.80024 0.55315 0.02644 0.0
C741 C 0.80939 0.5672 0.09635 0.0
C742 C 0.81569 0.55076 0.95497 0.0
C743 C 0.84073 0.5622 0.95206 0.0
C744 C 0.84814 0.57949 0.01654 0.0
C745 C 0.8326 0.58191 0.08839 0.0
C746 C 0.8999 0.5241 0.89044 0.0
C747 C 0.89166 0.51269 0.81475 0.0
C748 C 0.88464 0.54282 0.93033 0.0
C749 C 0.86065 0.55048 0.89588 0.0
C750 C 0.8538 0.54121 0.81584 0.0
C751 C 0.86907 0.52233 0.77592 0.0
H752 H 0.0832 0.22947 0.91682 0.0
H753 H 1.00324 0.22184 0.99787 0.0
H754 H 0.07861 0.18978 0.832 0.0
H755 H 0.99853 0.18172 0.91544 0.0
H756 H 0.99199 0.11322 0.7318 0.0
H757 H 0.99524 0.15743 0.79089 0.0
H758 H 0.07686 0.14438 0.844 0.0
H759 H 0.07362 0.10114 0.7799 0.0
C760 C 0.06432 0.21978 0.9143 0.0
C761 C 0.04337 0.22954 0.9623 0.0
C762 C 0.06175 0.19652 0.86684 0.0
C763 C 0.03821 0.18178 0.86652 0.0
C764 C 0.01694 0.19226 0.91215 0.0
C765 C 0.01953 0.21557 0.95938 0.0
C766 C 1.01075 0.12011 0.75425 0.0
C767 C 0.03258 0.10351 0.7504 0.0
C768 C 1.0126 0.14545 0.78974 0.0
C769 C 0.03635 0.1551 0.82341 0.0
C770 C 0.05823 0.13837 0.81823 0.0
C771 C 0.05634 0.11316 0.78235 0.0
H772 H 0.324 1.00896 0.99348 0.0
H773 H 0.32068 0.08739 0.8959 0.0
H774 H 0.36382 1.00103 0.91163 0.0
H775 H 0.36042 0.0796 0.81342 0.0
H776 H 0.4532 1.01388 0.87136 0.0
H777 H 0.40893 0.01724 0.92703 0.0
H778 H 0.38445 0.05544 0.69961 0.0
H779 H 0.4292 0.0519 0.64333 0.0
C780 C 0.33106 0.02411 0.95141 0.0
C781 C 0.31858 0.04856 0.94966 0.0
C782 C 0.35427 0.01978 0.90556 0.0
C783 C 0.36577 0.03975 0.85612 0.0
C784 C 0.35224 0.06362 0.84987 0.0
C785 C 0.3292 0.06803 0.8966 0.0
C786 C 0.43842 0.02293 0.83275 0.0
C787 C 0.44501 0.03278 0.75283 0.0
C788 C 0.41282 0.02465 0.86457 0.0
C789 C 0.39276 0.03655 0.81816 0.0
C790 C 0.39926 0.04623 0.73765 0.0
C791 C 0.42493 0.04412 0.7051 0.0
H792 H 0.46361 0.32804 0.94641 0.0
H793 H 0.54597 0.33023 0.999 0.0
H794 H 0.46809 0.36735 0.86026 0.0
H795 H 0.55066 0.37013 0.91435 0.0
H796 H 0.5535 0.43918 0.72598 0.0
H797 H 0.55046 0.39495 0.78581 0.0
H798 H 0.4733 0.4124 0.88015 0.0
H799 H 0.47605 0.45571 0.81841 0.0
C800 C 0.48292 0.33643 0.93718 0.0
C801 C 0.50452 0.32532 0.97804 0.0
C802 C 0.48548 0.35946 0.88892 0.0
C803 C 0.50973 0.37269 0.88049 0.0
C804 C 0.53165 0.36076 0.91798 0.0
C805 C 0.52904 0.33758 0.96626 0.0
C806 C 0.53569 0.4334 0.7581 0.0
C807 C 0.51505 0.4514 0.76673 0.0
C808 C 0.53403 0.40797 0.79358 0.0
C809 C 0.51156 0.3995 0.83843 0.0
C810 C 0.49082 0.41749 0.84532 0.0
C811 C 0.49253 0.44275 0.8103 0.0
H812 H 0.21773 0.54107 0.03487 0.0
H813 H 0.2303 0.47007 0.89639 0.0
H814 H 0.17592 0.54716 0.9639 0.0
H815 H 0.1889 0.47624 0.82301 0.0
H816 H 0.10032 0.47612 0.77605 0.0
H817 H 0.1438 0.47258 0.83654 0.0
H818 H 0.1492 0.55686 0.84945 0.0
H819 H 0.10502 0.56009 0.79267 0.0
C820 C 0.21216 0.52735 0.98625 0.0
C821 C 0.22818 0.50558 0.96954 0.0
C822 C 0.18781 0.53066 0.94564 0.0
C823 C 0.17821 0.51216 0.88704 0.0
C824 C 0.19484 0.49088 0.86824 0.0
C825 C 0.21913 0.48757 0.90909 0.0
C826 C 0.11049 0.49391 0.79307 0.0
C827 C 0.09844 0.51833 0.78043 0.0
C828 C 0.13596 0.49195 0.82674 0.0
C829 C 0.15081 0.5144 0.84883 0.0
C830 C 0.13879 0.53891 0.83508 0.0
C831 C 0.11325 0.54082 0.80153 0.0
H832 H 0.97733 0.81644 0.48809 0.0
H833 H 0.03671 0.83638 0.30701 0.0
H834 H 0.98447 0.85825 0.55945 0.0
H835 H 0.04368 0.87856 0.37662 0.0
H836 H 0.06093 0.94952 0.54699 0.0
H837 H 0.05814 0.9052 0.4893 0.0
H838 H 0.97553 0.90311 0.54556 0.0
H839 H 0.97878 0.94686 0.60617 0.0
C840 C 0.9927 0.82934 0.46537 0.0
C841 C 1.00714 0.82233 0.39343 0.0
C842 C 0.99641 0.8538 0.50521 0.0
C843 C 0.01452 0.87251 0.47411 0.0
C844 C 0.02977 0.86495 0.40405 0.0
C845 C 0.02602 0.84044 0.36426 0.0
C846 C 0.04215 0.93957 0.54743 0.0
C847 C 0.01998 0.95226 0.5806 0.0
C848 C 0.04048 0.91402 0.51351 0.0
C849 C 0.01657 0.89995 0.51192 0.0
C850 C 0.99446 0.91269 0.54594 0.0
C851 C 0.99618 0.93822 0.57974 0.0
H852 H 0.73692 0.99324 0.50339 0.0
H853 H 0.71187 0.04226 0.30015 0.0
H854 H 0.69517 1.00024 0.57555 0.0
H855 H 0.67007 0.0494 0.37165 0.0
H856 H 0.5876 0.02201 0.45532 0.0
H857 H 0.63166 0.02229 0.39728 0.0
H858 H 0.66347 0.02911 0.64641 0.0
H859 H 0.61904 0.02882 0.70502 0.0
C860 C 0.72299 1.00659 0.47603 0.0
C861 C 0.72823 0.01788 0.39708 0.0
C862 C 0.6988 1.01039 0.517 0.0
C863 C 0.6788 0.02516 0.47945 0.0
C864 C 0.68467 0.0376 0.40249 0.0
C865 C 0.70894 0.03401 0.36207 0.0
C866 C 0.60387 0.02364 0.49822 0.0
C867 C 0.59941 0.02532 0.58539 0.0
C868 C 0.62935 0.02404 0.46456 0.0
C869 C 0.65149 0.02591 0.51662 0.0
C870 C 0.64709 0.02754 0.60394 0.0
C871 C 0.62149 0.02744 0.63771 0.0
H872 H 0.55685 0.7417 0.49222 0.0
H873 H 0.51363 0.70965 0.28518 0.0
H874 H 0.54904 0.70156 0.57255 0.0
H875 H 0.50622 0.66913 0.36389 0.0
H876 H 0.48462 0.60191 0.54373 0.0
H877 H 0.48672 0.64469 0.4746 0.0
H878 H 0.56338 0.65783 0.57944 0.0
H879 H 0.56073 0.61543 0.65005 0.0
C880 C 0.54475 0.72645 0.46504 0.0
C881 C 0.53501 0.72952 0.3832 0.0
C882 C 0.54075 0.70301 0.51043 0.0
C883 C 0.52714 0.68149 0.4753 0.0
C884 C 0.51646 0.68506 0.39453 0.0
C885 C 0.52045 0.70855 0.34927 0.0
C886 C 0.50182 0.61407 0.55264 0.0
C887 C 0.52259 0.60497 0.60229 0.0
C888 C 0.50318 0.63865 0.51216 0.0
C889 C 0.52524 0.65526 0.52061 0.0
C890 C 0.5458 0.64619 0.5717 0.0
C891 C 0.54445 0.62157 0.61181 0.0
H892 H 0.82271 0.57708 0.44527 0.0
H893 H 0.83243 0.49998 0.34213 0.0
H894 H 0.86307 0.5721 0.5258 0.0
H895 H 0.87264 0.49462 0.42299 0.0
H896 H 0.95984 0.50658 0.48725 0.0
H897 H 0.91686 0.50932 0.42226 0.0
H898 H 0.88844 0.55274 0.63552 0.0
H899 H 0.93167 0.5496 0.70099 0.0
C900 C 0.83289 0.55857 0.44247 0.0
C901 C 0.82359 0.5386 0.38902 0.0
C902 C 0.85634 0.55575 0.48832 0.0
C903 C 0.87177 0.53299 0.48129 0.0
C904 C 0.86187 0.51265 0.42993 0.0
C905 C 0.83835 0.51546 0.38454 0.0
C906 C 0.9444 0.51656 0.5208 0.0
C907 C 0.94949 0.52778 0.59984 0.0
C908 C 0.91946 0.51797 0.4836 0.0
C909 C 0.89849 0.53097 0.52333 0.0
C910 C 0.90371 0.54242 0.60237 0.0
C911 C 0.92861 0.54054 0.6404 0.0
loop_
_geom_bond_atom_site_label_1
_geom_bond_atom_site_label_2
_geom_bond_distance
_geom_bond_site_symmetry_2
_ccdc_geom_bond_type
H0 C5 0.930 . S
H1 C8 0.930 . S
H2 C10 0.930 . S
H3 C4 1.016 . S
C4 H3 1.016 . S
C4 N11 1.286 . S
C5 H0 0.930 . S
C5 C6 1.397 . S
C5 C7 1.361 . S
C6 C5 1.397 . S
C6 C10 1.390 . S
C7 C5 1.361 . S
C7 C8 1.393 . S
C7 N11 1.413 . S
C8 H1 0.930 . S
C8 C7 1.393 . S
C8 C9 1.399 . S
C9 C8 1.399 . S
C9 C10 1.381 . S
C10 H2 0.930 . S
C10 C6 1.390 . S
C10 C9 1.381 . S
N11 C4 1.286 . S
N11 C7 1.413 . S
H12 C17 0.930 . S
H13 C20 0.930 . S
H14 C22 0.930 . S
H15 C16 1.016 . S
C16 H15 1.016 . S
C16 N23 1.286 . S
C17 H12 0.930 . S
C17 C18 1.397 . S
C17 C19 1.361 . S
C18 C17 1.397 . S
C18 C22 1.390 . S
C19 C17 1.361 . S
C19 C20 1.393 . S
C19 N23 1.413 . S
C20 H13 0.930 . S
C20 C19 1.393 . S
C20 C21 1.399 . S
C21 C20 1.399 . S
C21 C22 1.381 . S
C22 H14 0.930 . S
C22 C18 1.390 . S
C22 C21 1.381 . S
N23 C16 1.286 . S
N23 C19 1.413 . S
H24 C29 0.930 . S
H25 C32 0.930 . S
H26 C34 0.930 . S
H27 C28 1.016 . S
C28 H27 1.016 . S
C28 N35 1.286 . S
C29 H24 0.930 . S
C29 C30 1.397 . S
C29 C31 1.361 . S
C30 C29 1.397 . S
C30 C34 1.390 . S
C31 C29 1.361 . S
C31 C32 1.393 . S
C31 N35 1.413 . S
C32 H25 0.930 . S
C32 C31 1.393 . S
C32 C33 1.399 . S
C33 C32 1.399 . S
C33 C34 1.381 . S
C34 H26 0.930 . S
C34 C30 1.390 . S
C34 C33 1.381 . S
N35 C28 1.286 . S
N35 C31 1.413 . S
H36 C41 0.930 . S
H37 C44 0.930 . S
H38 C46 0.930 . S
H39 C40 1.016 . S
C40 H39 1.016 . S
C40 N47 1.286 . S
C41 H36 0.930 . S
C41 C42 1.397 . S
C41 C43 1.361 . S
C42 C41 1.397 . S
C42 C46 1.390 . S
C43 C41 1.361 . S
C43 C44 1.393 . S
C43 N47 1.413 . S
C44 H37 0.930 . S
C44 C43 1.393 . S
C44 C45 1.399 . S
C45 C44 1.399 . S
C45 C46 1.381 . S
C46 H38 0.930 . S
C46 C42 1.390 . S
C46 C45 1.381 . S
N47 C40 1.286 . S
N47 C43 1.413 . S
H48 C53 0.930 . S
H49 C56 0.930 . S
H50 C58 0.930 . S
H51 C52 1.016 . S
C52 H51 1.016 . S
C52 N59 1.286 . S
C53 H48 0.930 . S
C53 C54 1.397 . S
C53 C55 1.361 1_556 S
C54 C53 1.397 . S
C54 C58 1.390 1_556 S
C55 C53 1.361 1_554 S
C55 C56 1.393 . S
C55 N59 1.413 . S
C56 H49 0.930 . S
C56 C55 1.393 . S
C56 C57 1.399 . S
C57 C56 1.399 . S
C57 C58 1.381 . S
C58 H50 0.930 . S
C58 C54 1.390 1_554 S
C58 C57 1.381 . S
N59 C52 1.286 . S
N59 C55 1.413 . S
H60 C65 0.930 . S
H61 C68 0.930 . S
H62 C70 0.930 . S
H63 C64 1.016 . S
C64 H63 1.016 . S
C64 N71 1.286 . S
C65 H60 0.930 . S
C65 C66 1.397 . S
C65 C67 1.361 1_556 S
C66 C65 1.397 . S
C66 C70 1.390 1_556 S
C67 C65 1.361 1_554 S
C67 C68 1.393 . S
C67 N71 1.413 . S
C68 H61 0.930 . S
C68 C67 1.393 . S
C68 C69 1.399 . S
C69 C68 1.399 . S
C69 C70 1.381 . S
C70 H62 0.930 . S
C70 C66 1.390 1_554 S
C70 C69 1.381 . S
N71 C64 1.286 . S
N71 C67 1.413 . S
H72 C77 0.930 . S
H73 C80 0.930 . S
H74 C82 0.930 . S
H75 C76 1.016 . S
C76 H75 1.016 . S
C76 N83 1.286 . S
C77 H72 0.930 . S
C77 C78 1.397 . S
C77 C79 1.361 1_556 S
C78 C77 1.397 . S
C78 C82 1.390 1_556 S
C79 C77 1.361 1_554 S
C79 C80 1.393 . S
C79 N83 1.413 . S
C80 H73 0.930 . S
C80 C79 1.393 . S
C80 C81 1.399 . S
C81 C80 1.399 . S
C81 C82 1.381 . S
C82 H74 0.930 . S
C82 C78 1.390 1_554 S
C82 C81 1.381 . S
N83 C76 1.286 . S
N83 C79 1.413 . S
H84 C89 0.930 . S
H85 C92 0.930 . S
H86 C94 0.930 . S
H87 C88 1.016 . S
C88 H87 1.016 . S
C88 N95 1.286 . S
C89 H84 0.930 . S
C89 C90 1.397 . S
C89 C91 1.361 1_556 S
C90 C89 1.397 . S
C90 C94 1.390 1_556 S
C91 C89 1.361 1_554 S
C91 C92 1.393 . S
C91 N95 1.413 . S
C92 H85 0.930 . S
C92 C91 1.393 . S
C92 C93 1.399 . S
C93 C92 1.399 . S
C93 C94 1.381 . S
C94 H86 0.930 . S
C94 C90 1.390 1_554 S
C94 C93 1.381 . S
N95 C88 1.286 . S
N95 C91 1.413 . S
Eu96 N125 2.600 . S
Eu96 N131 2.562 . S
Eu96 O140 2.462 1_655 S
Eu96 O141 2.373 1_545 S
Eu96 O143 2.432 . S
Eu96 O144 2.291 1_655 S
Eu96 O148 2.335 1_655 S
Eu96 O151 2.372 . S
Eu96 C160 2.787 . S
C97 N98 1.365 . S
C97 C100 1.405 . S
C97 C104 1.448 . S
N98 C97 1.365 . S
N98 C101 1.319 . S
N98 Eu107 2.600 1_545 S
C99 C101 1.397 . S
C99 C102 1.367 . S
C99 H119 0.931 . S
C100 C97 1.405 . S
C100 C102 1.403 . S
C100 C106 1.439 1_556 S
C101 N98 1.319 . S
C101 C99 1.397 . S
C101 H112 0.930 1_545 S
C102 C99 1.367 . S
C102 C100 1.403 . S
C102 H123 0.929 . S
C103 C104 1.430 1_554 S
C103 C105 1.387 . S
C103 C109 1.404 . S
C104 C97 1.448 . S
C104 C103 1.430 1_556 S
C104 N108 1.351 . S
C105 C103 1.387 . S
C105 C106 1.374 . S
C105 H120 0.931 . S
C106 C100 1.439 1_554 S
C106 C105 1.374 . S
C106 H121 0.931 . S
Eu107 N98 2.600 1_565 S
Eu107 N108 2.562 1_565 S
Eu107 O142 2.335 . S
Eu107 O145 2.372 . S
Eu107 O146 2.462 . S
Eu107 O147 2.373 1_565 S
Eu107 O149 2.432 . S
Eu107 O150 2.291 1_465 S
Eu107 C171 2.787 . S
N108 C104 1.351 . S
N108 Eu107 2.562 1_545 S
N108 C110 1.325 . S
C109 C103 1.404 . S
C109 C111 1.366 . S
C109 H117 0.930 . S
C110 N108 1.325 . S
C110 C111 1.416 1_556 S
C110 H116 0.929 1_455 S
C111 C109 1.366 . S
C111 C110 1.416 1_554 S
C111 H113 0.930 1_455 S
H112 C101 0.930 1_565 S
H113 C111 0.930 1_655 S
H114 C129 0.930 . S
H115 C136 0.930 . S
H116 C110 0.929 1_655 S
H117 C109 0.930 . S
H118 C132 0.929 . S
H119 C99 0.931 . S
H120 C105 0.931 . S
H121 C106 0.931 . S
H122 C127 0.931 . S
H123 C102 0.929 . S
H124 C135 0.930 . S
N125 Eu96 2.600 . S
N125 C126 1.365 . S
N125 C129 1.319 . S
C126 N125 1.365 . S
C126 C128 1.405 1_545 S
C126 C134 1.448 . S
C127 H122 0.931 . S
C127 C129 1.397 . S
C127 C130 1.367 1_545 S
C128 C126 1.405 1_565 S
C128 C130 1.403 . S
C128 C161 1.439 . S
C129 H114 0.930 . S
C129 N125 1.319 . S
C129 C127 1.397 . S
C130 C127 1.367 1_565 S
C130 C128 1.403 . S
C130 H137 0.929 . S
N131 Eu96 2.562 . S
N131 C132 1.325 1_655 S
N131 C134 1.351 . S
C132 H118 0.929 . S
C132 N131 1.325 1_455 S
C132 C136 1.416 1_545 S
C133 C134 1.430 1_565 S
C133 C135 1.404 . S
C133 C162 1.387 . S
C134 C126 1.448 . S
C134 N131 1.351 . S
C134 C133 1.430 1_545 S
C135 H124 0.930 . S
C135 C133 1.404 . S
C135 C136 1.366 1_655 S
C136 H115 0.930 . S
C136 C132 1.416 1_565 S
C136 C135 1.366 1_455 S
H137 C130 0.929 . S
H138 C161 0.931 . S
H139 C162 0.931 . S
O140 Eu96 2.462 1_455 S
O140 C160 1.252 1_455 S
O141 Eu96 2.373 1_565 S
O141 C152 1.249 . S
O142 Eu107 2.335 . S
O142 C152 1.264 1_455 S
O143 Eu96 2.432 . S
O143 C160 1.268 . S
O144 Eu96 2.291 1_455 S
O144 C159 1.255 . S
O145 Eu107 2.372 . S
O145 C159 1.257 1_565 S
O146 Eu107 2.462 . S
O146 C171 1.252 . S
O147 Eu107 2.373 1_545 S
O147 C163 1.249 . S
O148 Eu96 2.335 1_455 S
O148 C163 1.264 . S
O149 Eu107 2.432 . S
O149 C171 1.268 . S
O150 Eu107 2.291 1_645 S
O150 C170 1.255 . S
O151 Eu96 2.372 . S
O151 C170 1.257 . S
C152 O141 1.249 . S
C152 O142 1.264 1_655 S
C153 C156 1.382 . S
C153 C158 1.417 . S
C153 C160 1.506 . S
C154 C155 1.398 . S
C154 C158 1.397 . S
C155 C154 1.398 . S
C155 C157 1.372 . S
C155 H172 0.931 . S
C156 C153 1.382 . S
C156 C157 1.390 . S
C156 H173 0.931 . S
C157 C155 1.372 . S
C157 C156 1.390 . S
C157 H174 0.929 . S
C158 C153 1.417 . S
C158 C154 1.397 . S
C158 H175 0.898 1_655 S
C159 O144 1.255 . S
C159 O145 1.257 1_545 S
C160 Eu96 2.787 . S
C160 O140 1.252 1_655 S
C160 O143 1.268 . S
C160 C153 1.506 . S
C161 C128 1.439 . S
C161 H138 0.931 . S
C161 C162 1.374 . S
C162 C133 1.387 . S
C162 H139 0.931 . S
C162 C161 1.374 . S
C163 O147 1.249 . S
C163 O148 1.264 . S
C164 C167 1.382 . S
C164 C168 1.390 . S
C164 C171 1.506 . S
C165 C166 1.398 . S
C165 C168 1.392 . S
C166 C165 1.398 . S
C166 C169 1.372 . S
C166 H176 0.931 1_556 S
C167 C164 1.382 . S
C167 C169 1.390 . S
C167 H177 0.931 . S
C168 C164 1.390 . S
C168 C165 1.392 . S
C168 H178 0.930 . S
C169 C166 1.372 . S
C169 C167 1.390 . S
C169 H179 0.929 . S
C170 O150 1.255 . S
C170 O151 1.257 . S
C171 Eu107 2.787 . S
C171 O146 1.252 . S
C171 O149 1.268 . S
C171 C164 1.506 . S
H172 C155 0.931 . S
H173 C156 0.931 . S
H174 C157 0.929 . S
H175 C158 0.898 1_455 S
H176 C166 0.931 1_554 S
H177 C167 0.931 . S
H178 C168 0.930 . S
H179 C169 0.929 . S
Eu180 N209 2.600 . S
Eu180 N215 2.562 . S
Eu180 O224 2.462 . S
Eu180 O225 2.373 . S
Eu180 O227 2.432 . S
Eu180 O228 2.291 . S
Eu180 O232 2.335 1_545 S
Eu180 O235 2.372 . S
Eu180 C244 2.787 . S
C181 N182 1.365 . S
C181 C184 1.405 . S
C181 C188 1.448 . S
N182 C181 1.365 . S
N182 C185 1.319 . S
N182 Eu191 2.600 . S
C183 C185 1.397 . S
C183 C186 1.367 . S
C183 H203 0.931 . S
C184 C181 1.405 . S
C184 C186 1.403 . S
C184 C190 1.439 . S
C185 N182 1.319 . S
C185 C183 1.397 . S
C185 H196 0.930 . S
C186 C183 1.367 . S
C186 C184 1.403 . S
C186 H207 0.929 . S
C187 C188 1.430 . S
C187 C189 1.387 . S
C187 C193 1.404 . S
C188 C181 1.448 . S
C188 C187 1.430 . S
C188 N192 1.351 . S
C189 C187 1.387 . S
C189 C190 1.374 . S
C189 H204 0.931 . S
C190 C184 1.439 . S
C190 C189 1.374 . S
C190 H205 0.931 . S
Eu191 N182 2.600 . S
Eu191 N192 2.562 . S
Eu191 O226 2.335 1_565 S
Eu191 O229 2.372 . S
Eu191 O230 2.462 . S
Eu191 O231 2.373 . S
Eu191 O233 2.432 . S
Eu191 O234 2.291 1_565 S
Eu191 C255 2.787 . S
N192 C188 1.351 . S
N192 Eu191 2.562 . S
N192 C194 1.325 . S
C193 C187 1.404 . S
C193 C195 1.366 . S
C193 H201 0.930 . S
C194 N192 1.325 . S
C194 C195 1.416 . S
C194 H200 0.929 . S
C195 C193 1.366 . S
C195 C194 1.416 . S
C195 H197 0.930 . S
H196 C185 0.930 . S
H197 C195 0.930 . S
H198 C213 0.930 . S
H199 C220 0.930 . S
H200 C194 0.929 . S
H201 C193 0.930 . S
H202 C216 0.929 . S
H203 C183 0.931 . S
H204 C189 0.931 . S
H205 C190 0.931 . S
H206 C211 0.931 . S
H207 C186 0.929 . S
H208 C219 0.930 . S
N209 Eu180 2.600 . S
N209 C210 1.365 . S
N209 C213 1.319 . S
C210 N209 1.365 . S
C210 C212 1.405 . S
C210 C218 1.448 . S
C211 H206 0.931 . S
C211 C213 1.397 . S
C211 C214 1.367 . S
C212 C210 1.405 . S
C212 C214 1.403 . S
C212 C245 1.439 . S
C213 H198 0.930 . S
C213 N209 1.319 . S
C213 C211 1.397 . S
C214 C211 1.367 . S
C214 C212 1.403 . S
C214 H221 0.929 . S
N215 Eu180 2.562 . S
N215 C216 1.325 . S
N215 C218 1.351 . S
C216 H202 0.929 . S
C216 N215 1.325 . S
C216 C220 1.416 . S
C217 C218 1.430 . S
C217 C219 1.404 . S
C217 C246 1.387 . S
C218 C210 1.448 . S
C218 N215 1.351 . S
C218 C217 1.430 . S
C219 H208 0.930 . S
C219 C217 1.404 . S
C219 C220 1.366 . S
C220 H199 0.930 . S
C220 C216 1.416 . S
C220 C219 1.366 . S
H221 C214 0.929 . S
H222 C245 0.931 . S
H223 C246 0.931 . S
O224 Eu180 2.462 . S
O224 C244 1.252 . S
O225 Eu180 2.373 . S
O225 C236 1.249 . S
O226 Eu191 2.335 1_545 S
O226 C236 1.264 . S
O227 Eu180 2.432 . S
O227 C244 1.268 . S
O228 Eu180 2.291 . S
O228 C243 1.255 . S
O229 Eu191 2.372 . S
O229 C243 1.257 1_565 S
O230 Eu191 2.462 . S
O230 C255 1.252 . S
O231 Eu191 2.373 . S
O231 C247 1.249 . S
O232 Eu180 2.335 1_565 S
O232 C247 1.264 . S
O233 Eu191 2.432 . S
O233 C255 1.268 . S
O234 Eu191 2.291 1_545 S
O234 C254 1.255 . S
O235 Eu180 2.372 . S
O235 C254 1.257 . S
C236 O225 1.249 . S
C236 O226 1.264 . S
C237 C240 1.382 1_556 S
C237 C242 1.390 . S
C237 C244 1.506 . S
C238 C239 1.398 . S
C238 C242 1.392 1_554 S
C239 C238 1.398 . S
C239 C241 1.372 . S
C239 H256 0.931 . S
C240 C237 1.382 1_554 S
C240 C241 1.390 . S
C240 H257 0.931 . S
C241 C239 1.372 . S
C241 C240 1.390 . S
C241 H258 0.929 . S
C242 C237 1.390 . S
C242 C238 1.392 1_556 S
C242 H259 0.930 . S
C243 O228 1.255 . S
C243 O229 1.257 1_545 S
C244 Eu180 2.787 . S
C244 O224 1.252 . S
C244 O227 1.268 . S
C244 C237 1.506 . S
C245 C212 1.439 . S
C245 H222 0.931 . S
C245 C246 1.374 . S
C246 C217 1.387 . S
C246 H223 0.931 . S
C246 C245 1.374 . S
C247 O231 1.249 . S
C247 O232 1.264 . S
C248 C251 1.382 . S
C248 C252 1.390 1_565 S
C248 C255 1.506 . S
C249 C250 1.398 1_545 S
C249 C252 1.392 . S
C250 C249 1.398 1_565 S
C250 C253 1.372 . S
C250 H260 0.931 . S
C251 C248 1.382 . S
C251 C253 1.390 . S
C251 H261 0.931 . S
C252 C248 1.390 1_545 S
C252 C249 1.392 . S
C252 H262 0.930 . S
C253 C250 1.372 . S
C253 C251 1.390 . S
C253 H263 0.929 . S
C254 O234 1.255 . S
C254 O235 1.257 . S
C255 Eu191 2.787 . S
C255 O230 1.252 . S
C255 O233 1.268 . S
C255 C248 1.506 . S
H256 C239 0.931 . S
H257 C240 0.931 . S
H258 C241 0.929 . S
H259 C242 0.930 . S
H260 C250 0.931 . S
H261 C251 0.931 . S
H262 C252 0.930 . S
H263 C253 0.929 . S
Eu264 N293 2.600 . S
Eu264 N299 2.562 . S
Eu264 O308 2.462 . S
Eu264 O309 2.373 . S
Eu264 O311 2.432 . S
Eu264 O312 2.291 . S
Eu264 O316 2.335 . S
Eu264 O319 2.372 . S
Eu264 C328 2.787 . S
C265 N266 1.365 . S
C265 C268 1.405 . S
C265 C272 1.448 . S
N266 C265 1.365 . S
N266 C269 1.319 . S
N266 Eu275 2.600 . S
C267 C269 1.397 . S
C267 C270 1.367 . S
C267 H287 0.931 . S
C268 C265 1.405 . S
C268 C270 1.403 . S
C268 C274 1.439 1_556 S
C269 N266 1.319 . S
C269 C267 1.397 . S
C269 H280 0.930 . S
C270 C267 1.367 . S
C270 C268 1.403 . S
C270 H291 0.929 . S
C271 C272 1.430 1_554 S
C271 C273 1.387 . S
C271 C277 1.404 . S
C272 C265 1.448 . S
C272 C271 1.430 1_556 S
C272 N276 1.351 . S
C273 C271 1.387 . S
C273 C274 1.374 . S
C273 H288 0.931 . S
C274 C268 1.439 1_554 S
C274 C273 1.374 . S
C274 H289 0.931 . S
Eu275 N266 2.600 . S
Eu275 N276 2.562 . S
Eu275 O310 2.335 . S
Eu275 O313 2.372 . S
Eu275 O314 2.462 . S
Eu275 O315 2.373 . S
Eu275 O317 2.432 . S
Eu275 O318 2.291 . S
Eu275 C339 2.787 . S
N276 C272 1.351 . S
N276 Eu275 2.562 . S
N276 C278 1.325 . S
C277 C271 1.404 . S
C277 C279 1.366 . S
C277 H285 0.930 . S
C278 N276 1.325 . S
C278 C279 1.416 1_556 S
C278 H284 0.929 . S
C279 C277 1.366 . S
C279 C278 1.416 1_554 S
C279 H281 0.930 . S
H280 C269 0.930 . S
H281 C279 0.930 . S
H282 C297 0.930 . S
H283 C304 0.930 . S
H284 C278 0.929 . S
H285 C277 0.930 . S
H286 C300 0.929 . S
H287 C267 0.931 . S
H288 C273 0.931 . S
H289 C274 0.931 . S
H290 C295 0.931 . S
H291 C270 0.929 . S
H292 C303 0.930 . S
N293 Eu264 2.600 . S
N293 C294 1.365 . S
N293 C297 1.319 . S
C294 N293 1.365 . S
C294 C296 1.405 . S
C294 C302 1.448 . S
C295 H290 0.931 . S
C295 C297 1.397 . S
C295 C298 1.367 . S
C296 C294 1.405 . S
C296 C298 1.403 . S
C296 C329 1.439 . S
C297 H282 0.930 . S
C297 N293 1.319 . S
C297 C295 1.397 . S
C298 C295 1.367 . S
C298 C296 1.403 . S
C298 H305 0.929 . S
N299 Eu264 2.562 . S
N299 C300 1.325 . S
N299 C302 1.351 . S
C300 H286 0.929 . S
C300 N299 1.325 . S
C300 C304 1.416 . S
C301 C302 1.430 . S
C301 C303 1.404 . S
C301 C330 1.387 . S
C302 C294 1.448 . S
C302 N299 1.351 . S
C302 C301 1.430 . S
C303 H292 0.930 . S
C303 C301 1.404 . S
C303 C304 1.366 . S
C304 H283 0.930 . S
C304 C300 1.416 . S
C304 C303 1.366 . S
H305 C298 0.929 . S
H306 C329 0.931 . S
H307 C330 0.931 . S
O308 Eu264 2.462 . S
O308 C328 1.252 . S
O309 Eu264 2.373 . S
O309 C320 1.249 . S
O310 Eu275 2.335 . S
O310 C320 1.264 . S
O311 Eu264 2.432 . S
O311 C328 1.268 . S
O312 Eu264 2.291 . S
O312 C327 1.255 . S
O313 Eu275 2.372 . S
O313 C327 1.257 . S
O314 Eu275 2.462 . S
O314 C339 1.252 . S
O315 Eu275 2.373 . S
O315 C331 1.249 . S
O316 Eu264 2.335 . S
O316 C331 1.264 . S
O317 Eu275 2.432 . S
O317 C339 1.268 . S
O318 Eu275 2.291 . S
O318 C338 1.255 . S
O319 Eu264 2.372 . S
O319 C338 1.257 . S
C320 O309 1.249 . S
C320 O310 1.264 . S
C321 C324 1.382 . S
C321 C326 1.390 . S
C321 C328 1.506 . S
C322 C323 1.398 . S
C322 C326 1.392 . S
C323 C322 1.398 . S
C323 C325 1.372 . S
C323 H340 0.931 . S
C324 C321 1.382 . S
C324 C325 1.390 . S
C324 H341 0.931 . S
C325 C323 1.372 . S
C325 C324 1.390 . S
C325 H342 0.929 . S
C326 C321 1.390 . S
C326 C322 1.392 . S
C326 H343 0.930 . S
C327 O312 1.255 . S
C327 O313 1.257 . S
C328 Eu264 2.787 . S
C328 O308 1.252 . S
C328 O311 1.268 . S
C328 C321 1.506 . S
C329 C296 1.439 . S
C329 H306 0.931 . S
C329 C330 1.374 . S
C330 C301 1.387 . S
C330 H307 0.931 . S
C330 C329 1.374 . S
C331 O315 1.249 . S
C331 O316 1.264 . S
C332 C335 1.382 . S
C332 C336 1.390 . S
C332 C339 1.506 . S
C333 C334 1.398 . S
C333 C336 1.392 . S
C334 C333 1.398 . S
C334 C337 1.372 . S
C334 H344 0.931 1_556 S
C335 C332 1.382 . S
C335 C337 1.390 . S
C335 H345 0.931 . S
C336 C332 1.390 . S
C336 C333 1.392 . S
C336 H346 0.930 . S
C337 C334 1.372 . S
C337 C335 1.390 . S
C337 H347 0.929 . S
C338 O318 1.255 . S
C338 O319 1.257 . S
C339 Eu275 2.787 . S
C339 O314 1.252 . S
C339 O317 1.268 . S
C339 C332 1.506 . S
H340 C323 0.931 . S
H341 C324 0.931 . S
H342 C325 0.929 . S
H343 C326 0.930 . S
H344 C334 0.931 1_554 S
H345 C335 0.931 . S
H346 C336 0.930 . S
H347 C337 0.929 . S
Eu348 N377 2.600 . S
Eu348 N383 2.562 . S
Eu348 O392 2.462 . S
Eu348 O393 2.373 1_455 S
Eu348 O395 2.432 . S
Eu348 O396 2.291 . S
Eu348 O400 2.335 . S
Eu348 O403 2.372 . S
Eu348 C412 2.787 . S
C349 N350 1.365 . S
C349 C352 1.405 . S
C349 C356 1.448 . S
N350 C349 1.365 . S
N350 C353 1.315 1_455 S
N350 Eu359 2.600 1_455 S
C351 C353 1.387 1_455 S
C351 C354 1.367 . S
C351 H371 0.931 . S
C352 C349 1.405 . S
C352 C354 1.403 . S
C352 C358 1.439 1_556 S
C353 N350 1.315 1_655 S
C353 C351 1.387 1_655 S
C353 H364 0.945 . S
C354 C351 1.367 . S
C354 C352 1.403 . S
C354 H375 0.929 . S
C355 C356 1.430 1_554 S
C355 C357 1.387 . S
C355 C361 1.404 . S
C356 C349 1.448 . S
C356 C355 1.430 1_556 S
C356 N360 1.351 . S
C357 C355 1.387 . S
C357 C358 1.374 . S
C357 H372 0.931 . S
C358 C352 1.439 1_554 S
C358 C357 1.374 . S
C358 H373 0.931 . S
Eu359 N350 2.600 1_655 S
Eu359 N360 2.562 1_655 S
Eu359 O394 2.335 . S
Eu359 O397 2.372 . S
Eu359 O398 2.462 . S
Eu359 O399 2.373 1_655 S
Eu359 O401 2.432 . S
Eu359 O402 2.291 1_655 S
Eu359 C423 2.787 . S
N360 C356 1.351 . S
N360 Eu359 2.562 1_455 S
N360 C362 1.325 . S
C361 C355 1.404 . S
C361 C363 1.366 . S
C361 H369 0.930 . S
C362 N360 1.325 . S
C362 C363 1.416 1_556 S
C362 H368 0.929 . S
C363 C361 1.366 . S
C363 C362 1.416 1_554 S
C363 H365 0.930 . S
H364 C353 0.945 . S
H365 C363 0.930 . S
H366 C381 0.930 . S
H367 C388 0.930 . S
H368 C362 0.929 . S
H369 C361 0.930 . S
H370 C384 0.929 . S
H371 C351 0.931 . S
H372 C357 0.931 . S
H373 C358 0.931 . S
H374 C379 0.931 . S
H375 C354 0.929 . S
H376 C387 0.930 . S
N377 Eu348 2.600 . S
N377 C378 1.365 . S
N377 C381 1.319 . S
C378 N377 1.365 . S
C378 C380 1.405 1_455 S
C378 C386 1.449 . S
C379 H374 0.931 . S
C379 C381 1.397 . S
C379 C382 1.367 1_455 S
C380 C378 1.405 1_655 S
C380 C382 1.403 . S
C380 C413 1.439 . S
C381 H366 0.930 . S
C381 N377 1.319 . S
C381 C379 1.397 . S
C382 C379 1.367 1_655 S
C382 C380 1.403 . S
C382 H389 0.929 . S
N383 Eu348 2.562 . S
N383 C384 1.325 . S
N383 C386 1.356 . S
C384 H370 0.929 . S
C384 N383 1.325 . S
C384 C388 1.416 1_455 S
C385 C386 1.424 1_655 S
C385 C387 1.404 . S
C385 C414 1.387 . S
C386 C378 1.449 . S
C386 N383 1.356 . S
C386 C385 1.424 1_455 S
C387 H376 0.930 . S
C387 C385 1.404 . S
C387 C388 1.366 . S
C388 H367 0.930 . S
C388 C384 1.416 1_655 S
C388 C387 1.366 . S
H389 C382 0.929 . S
H390 C413 0.931 . S
H391 C414 0.931 . S
O392 Eu348 2.462 . S
O392 C412 1.252 . S
O393 Eu348 2.373 1_655 S
O393 C404 1.249 . S
O394 Eu359 2.335 . S
O394 C404 1.264 . S
O395 Eu348 2.432 . S
O395 C412 1.268 . S
O396 Eu348 2.291 . S
O396 C411 1.255 . S
O397 Eu359 2.372 . S
O397 C411 1.257 1_655 S
O398 Eu359 2.462 . S
O398 C423 1.252 . S
O399 Eu359 2.373 1_455 S
O399 C415 1.249 . S
O400 Eu348 2.335 . S
O400 C415 1.264 . S
O401 Eu359 2.432 . S
O401 C423 1.268 . S
O402 Eu359 2.291 1_455 S
O402 C422 1.255 . S
O403 Eu348 2.372 . S
O403 C422 1.257 . S
C404 O393 1.249 . S
C404 O394 1.264 . S
C405 C408 1.382 . S
C405 C410 1.390 . S
C405 C412 1.506 . S
C406 C407 1.398 . S
C406 C410 1.392 . S
C407 C406 1.398 . S
C407 C409 1.372 . S
C407 H424 0.931 . S
C408 C405 1.382 . S
C408 C409 1.390 . S
C408 H425 0.931 . S
C409 C407 1.372 . S
C409 C408 1.390 . S
C409 H426 0.929 . S
C410 C405 1.390 . S
C410 C406 1.392 . S
C410 H427 0.930 . S
C411 O396 1.255 . S
C411 O397 1.257 1_455 S
C412 Eu348 2.787 . S
C412 O392 1.252 . S
C412 O395 1.268 . S
C412 C405 1.506 . S
C413 C380 1.439 . S
C413 H390 0.931 . S
C413 C414 1.374 . S
C414 C385 1.387 . S
C414 H391 0.931 . S
C414 C413 1.374 . S
C415 O399 1.249 . S
C415 O400 1.264 . S
C416 C419 1.382 . S
C416 C420 1.390 . S
C416 C423 1.506 . S
C417 C418 1.398 . S
C417 C420 1.392 . S
C418 C417 1.398 . S
C418 C421 1.372 . S
C418 H428 0.931 1_556 S
C419 C416 1.382 . S
C419 C421 1.390 . S
C419 H429 0.931 . S
C420 C416 1.390 . S
C420 C417 1.392 . S
C420 H430 0.930 . S
C421 C418 1.372 . S
C421 C419 1.390 . S
C421 H431 0.929 . S
C422 O402 1.255 . S
C422 O403 1.257 . S
C423 Eu359 2.787 . S
C423 O398 1.252 . S
C423 O401 1.268 . S
C423 C416 1.506 . S
H424 C407 0.931 . S
H425 C408 0.931 . S
H426 C409 0.929 . S
H427 C410 0.930 . S
H428 C418 0.931 1_554 S
H429 C419 0.931 . S
H430 C420 0.930 . S
H431 C421 0.929 . S
H432 C440 0.950 . S
H433 C445 0.950 . S
H434 C442 0.950 . S
H435 C444 0.950 . S
H436 C446 0.950 . S
H437 C448 0.950 . S
H438 C450 0.950 1_565 S
H439 C451 0.950 1_565 S
C440 H432 0.950 . S
C440 C441 1.386 . S
C440 C442 1.391 . S
C441 C440 1.386 . S
C441 C445 1.393 . S
C442 H434 0.950 . S
C442 C440 1.391 . S
C442 C443 1.400 . S
C443 C442 1.400 . S
C443 C444 1.398 . S
C443 C449 1.491 . S
C444 H435 0.950 . S
C444 C443 1.398 . S
C444 C445 1.391 . S
C445 H433 0.950 . S
C445 C441 1.393 . S
C445 C444 1.391 . S
C446 H436 0.950 . S
C446 C447 1.386 . S
C446 C448 1.391 . S
C447 C446 1.386 . S
C447 C451 1.393 . S
C448 H437 0.950 . S
C448 C446 1.391 . S
C448 C449 1.400 . S
C449 C443 1.491 . S
C449 C448 1.400 . S
C449 C450 1.398 . S
C450 H438 0.950 1_545 S
C450 C449 1.398 . S
C450 C451 1.391 . S
C451 H439 0.950 1_545 S
C451 C447 1.393 . S
C451 C450 1.391 . S
H452 C460 0.950 . S
H453 C465 0.950 . S
H454 C462 0.950 . S
H455 C464 0.950 . S
H456 C466 0.950 . S
H457 C468 0.950 . S
H458 C470 0.950 . S
H459 C471 0.950 . S
C460 H452 0.950 . S
C460 C461 1.386 . S
C460 C462 1.391 . S
C461 C460 1.386 . S
C461 C465 1.393 . S
C462 H454 0.950 . S
C462 C460 1.391 . S
C462 C463 1.400 . S
C463 C462 1.400 . S
C463 C464 1.398 . S
C463 C469 1.491 . S
C464 H455 0.950 . S
C464 C463 1.398 . S
C464 C465 1.391 . S
C465 H453 0.950 . S
C465 C461 1.393 . S
C465 C464 1.391 . S
C466 H456 0.950 . S
C466 C467 1.386 . S
C466 C468 1.391 . S
C467 C466 1.386 . S
C467 C471 1.393 . S
C468 H457 0.950 . S
C468 C466 1.391 . S
C468 C469 1.400 . S
C469 C463 1.491 . S
C469 C468 1.400 . S
C469 C470 1.398 . S
C470 H458 0.950 . S
C470 C469 1.398 . S
C470 C471 1.391 . S
C471 H459 0.950 . S
C471 C467 1.393 . S
C471 C470 1.391 . S
H472 C480 0.950 . S
H473 C485 0.950 . S
H474 C482 0.950 . S
H475 C484 0.950 . S
H476 C486 0.950 . S
H477 C488 0.950 . S
H478 C490 0.950 . S
H479 C491 0.950 . S
C480 H472 0.950 . S
C480 C481 1.386 . S
C480 C482 1.391 . S
C481 C480 1.386 . S
C481 C485 1.393 . S
C482 H474 0.950 . S
C482 C480 1.391 . S
C482 C483 1.400 . S
C483 C482 1.400 . S
C483 C484 1.398 . S
C483 C489 1.491 . S
C484 H475 0.950 . S
C484 C483 1.398 . S
C484 C485 1.391 . S
C485 H473 0.950 . S
C485 C481 1.393 . S
C485 C484 1.391 . S
C486 H476 0.950 . S
C486 C487 1.386 . S
C486 C488 1.391 . S
C487 C486 1.386 . S
C487 C491 1.393 . S
C488 H477 0.950 . S
C488 C486 1.391 . S
C488 C489 1.400 . S
C489 C483 1.491 . S
C489 C488 1.400 . S
C489 C490 1.398 . S
C490 H478 0.950 . S
C490 C489 1.398 . S
C490 C491 1.391 . S
C491 H479 0.950 . S
C491 C487 1.393 . S
C491 C490 1.391 . S
H492 C500 0.950 . S
H493 C505 0.950 . S
H494 C502 0.950 . S
H495 C504 0.937 1_655 S
H496 C506 0.950 1_655 S
H497 C508 0.950 1_655 S
H498 C510 0.950 . S
H499 C511 0.950 . S
C500 H492 0.950 . S
C500 C501 1.386 . S
C500 C502 1.391 . S
C501 C500 1.386 . S
C501 C505 1.393 . S
C502 H494 0.950 . S
C502 C500 1.391 . S
C502 C503 1.400 . S
C503 C502 1.400 . S
C503 C504 1.398 . S
C503 C509 1.491 . S
C504 H495 0.937 1_455 S
C504 C503 1.398 . S
C504 C505 1.391 . S
C505 H493 0.950 . S
C505 C501 1.393 . S
C505 C504 1.391 . S
C506 H496 0.950 1_455 S
C506 C507 1.386 . S
C506 C508 1.391 . S
C507 C506 1.386 . S
C507 C511 1.393 . S
C508 H497 0.950 1_455 S
C508 C506 1.391 . S
C508 C509 1.400 . S
C509 C503 1.491 . S
C509 C508 1.400 . S
C509 C510 1.398 . S
C510 H498 0.950 . S
C510 C509 1.398 . S
C510 C511 1.391 . S
C511 H499 0.950 . S
C511 C507 1.393 . S
C511 C510 1.391 . S
H512 C520 0.950 . S
H513 C525 0.959 . S
H514 C522 0.950 . S
H515 C524 0.950 . S
H516 C526 0.950 . S
H517 C528 0.950 . S
H518 C530 0.950 1_554 S
H519 C531 0.950 . S
C520 H512 0.950 . S
C520 C521 1.386 . S
C520 C522 1.391 . S
C521 C520 1.386 . S
C521 C525 1.382 1_565 S
C522 H514 0.950 . S
C522 C520 1.391 . S
C522 C523 1.400 . S
C523 C522 1.400 . S
C523 C524 1.398 1_565 S
C523 C529 1.491 1_554 S
C524 H515 0.950 . S
C524 C523 1.398 1_545 S
C524 C525 1.393 . S
C525 H513 0.959 . S
C525 C521 1.382 1_545 S
C525 C524 1.393 . S
C526 H516 0.950 . S
C526 C527 1.408 . S
C526 C528 1.391 . S
C527 C526 1.408 . S
C527 C531 1.366 1_545 S
C528 H517 0.950 . S
C528 C526 1.391 . S
C528 C529 1.400 1_545 S
C529 C523 1.491 1_556 S
C529 C528 1.400 1_565 S
C529 C530 1.398 . S
C530 H518 0.950 1_556 S
C530 C529 1.398 . S
C530 C531 1.391 . S
C531 H519 0.950 . S
C531 C527 1.366 1_565 S
C531 C530 1.391 . S
H532 C540 0.950 . S
H533 C545 0.950 . S
H534 C542 0.950 . S
H535 C544 0.950 . S
H536 C546 0.950 . S
H537 C548 0.950 . S
H538 C550 0.950 1_554 S
H539 C551 0.950 . S
C540 H532 0.950 . S
C540 C541 1.386 . S
C540 C542 1.391 . S
C541 C540 1.386 . S
C541 C545 1.393 . S
C542 H534 0.950 . S
C542 C540 1.391 . S
C542 C543 1.400 . S
C543 C542 1.400 . S
C543 C544 1.398 . S
C543 C549 1.491 1_554 S
C544 H535 0.950 . S
C544 C543 1.398 . S
C544 C545 1.391 . S
C545 H533 0.950 . S
C545 C541 1.393 . S
C545 C544 1.391 . S
C546 H536 0.950 . S
C546 C547 1.386 . S
C546 C548 1.391 . S
C547 C546 1.386 . S
C547 C551 1.393 . S
C548 H537 0.950 . S
C548 C546 1.391 . S
C548 C549 1.400 . S
C549 C543 1.491 1_556 S
C549 C548 1.400 . S
C549 C550 1.398 . S
C550 H538 0.950 1_556 S
C550 C549 1.398 . S
C550 C551 1.391 . S
C551 H539 0.950 . S
C551 C547 1.393 . S
C551 C550 1.391 . S
H552 C560 0.950 . S
H553 C565 0.950 . S
H554 C562 0.950 . S
H555 C564 0.950 . S
H556 C566 0.950 . S
H557 C568 0.950 1_554 S
H558 C570 0.950 . S
H559 C571 0.950 . S
C560 H552 0.950 . S
C560 C561 1.386 . S
C560 C562 1.391 . S
C561 C560 1.386 . S
C561 C565 1.393 . S
C562 H554 0.950 . S
C562 C560 1.391 . S
C562 C563 1.400 . S
C563 C562 1.400 . S
C563 C564 1.398 . S
C563 C569 1.491 1_554 S
C564 H555 0.950 . S
C564 C563 1.398 . S
C564 C565 1.391 . S
C565 H553 0.950 . S
C565 C561 1.393 . S
C565 C564 1.391 . S
C566 H556 0.950 . S
C566 C567 1.386 . S
C566 C568 1.391 . S
C567 C566 1.386 . S
C567 C571 1.393 . S
C568 H557 0.950 1_556 S
C568 C566 1.391 . S
C568 C569 1.400 . S
C569 C563 1.491 1_556 S
C569 C568 1.400 . S
C569 C570 1.398 . S
C570 H558 0.950 . S
C570 C569 1.398 . S
C570 C571 1.391 . S
C571 H559 0.950 . S
C571 C567 1.393 . S
C571 C570 1.391 . S
H572 C580 0.950 . S
H573 C585 0.950 . S
H574 C582 0.950 . S
H575 C584 0.950 . S
H576 C586 0.950 . S
H577 C588 0.950 . S
H578 C590 0.950 . S
H579 C591 0.950 . S
C580 H572 0.950 . S
C580 C581 1.386 . S
C580 C582 1.391 . S
C581 C580 1.386 . S
C581 C585 1.393 1_655 S
C582 H574 0.950 . S
C582 C580 1.391 . S
C582 C583 1.400 . S
C583 C582 1.400 . S
C583 C584 1.398 1_655 S
C583 C589 1.491 1_554 S
C584 H575 0.950 . S
C584 C583 1.398 1_455 S
C584 C585 1.391 . S
C585 H573 0.950 . S
C585 C581 1.393 1_455 S
C585 C584 1.391 . S
C586 H576 0.950 . S
C586 C587 1.386 1_455 S
C586 C588 1.391 . S
C587 C586 1.386 1_655 S
C587 C591 1.393 . S
C588 H577 0.950 . S
C588 C586 1.391 . S
C588 C589 1.400 1_455 S
C589 C583 1.491 1_556 S
C589 C588 1.400 1_655 S
C589 C590 1.398 . S
C590 H578 0.950 . S
C590 C589 1.398 . S
C590 C591 1.391 . S
C591 H579 0.950 . S
C591 C587 1.393 . S
C591 C590 1.391 . S
H592 C600 0.950 . S
H593 C605 0.950 . S
H594 C602 0.950 . S
H595 C604 0.950 1_655 S
H596 C606 0.950 . S
H597 C608 0.950 . S
H598 C610 0.950 . S
H599 C611 0.950 . S
C600 H592 0.950 . S
C600 C601 1.386 . S
C600 C602 1.391 . S
C601 C600 1.386 . S
C601 C605 1.393 . S
C602 H594 0.950 . S
C602 C600 1.391 . S
C602 C603 1.400 . S
C603 C602 1.400 . S
C603 C604 1.398 . S
C603 C609 1.491 . S
C604 H595 0.950 1_455 S
C604 C603 1.398 . S
C604 C605 1.391 . S
C605 H593 0.950 . S
C605 C601 1.393 . S
C605 C604 1.391 . S
C606 H596 0.950 . S
C606 C607 1.386 1_655 S
C606 C608 1.391 . S
C607 C606 1.386 1_455 S
C607 C611 1.393 . S
C608 H597 0.950 . S
C608 C606 1.391 . S
C608 C609 1.400 1_655 S
C609 C603 1.491 . S
C609 C608 1.400 1_455 S
C609 C610 1.398 . S
C610 H598 0.950 . S
C610 C609 1.398 . S
C610 C611 1.391 . S
C611 H599 0.950 . S
C611 C607 1.393 . S
C611 C610 1.391 . S
H612 C620 0.950 . S
H613 C625 0.950 . S
H614 C622 0.950 . S
H615 C624 0.950 . S
H616 C626 0.950 1_565 S
H617 C628 0.950 . S
H618 C630 0.950 . S
H619 C631 0.950 . S
C620 H612 0.950 . S
C620 C621 1.386 . S
C620 C622 1.391 . S
C621 C620 1.386 . S
C621 C625 1.393 . S
C622 H614 0.950 . S
C622 C620 1.391 . S
C622 C623 1.400 . S
C623 C622 1.400 . S
C623 C624 1.398 . S
C623 C629 1.491 . S
C624 H615 0.950 . S
C624 C623 1.398 . S
C624 C625 1.391 . S
C625 H613 0.950 . S
C625 C621 1.393 . S
C625 C624 1.391 . S
C626 H616 0.950 1_545 S
C626 C627 1.386 . S
C626 C628 1.391 . S
C627 C626 1.386 . S
C627 C631 1.393 . S
C628 H617 0.950 . S
C628 C626 1.391 . S
C628 C629 1.400 . S
C629 C623 1.491 . S
C629 C628 1.400 . S
C629 C630 1.398 . S
C630 H618 0.950 . S
C630 C629 1.398 . S
C630 C631 1.391 . S
C631 H619 0.950 . S
C631 C627 1.393 . S
C631 C630 1.391 . S
H632 C640 0.950 . S
H633 C645 0.950 . S
H634 C642 0.950 . S
H635 C644 0.950 . S
H636 C646 0.950 . S
H637 C648 0.950 . S
H638 C650 0.950 . S
H639 C651 0.950 . S
C640 H632 0.950 . S
C640 C641 1.386 . S
C640 C642 1.391 . S
C641 C640 1.386 . S
C641 C645 1.393 . S
C642 H634 0.950 . S
C642 C640 1.391 . S
C642 C643 1.400 . S
C643 C642 1.400 . S
C643 C644 1.398 . S
C643 C649 1.491 . S
C644 H635 0.950 . S
C644 C643 1.398 . S
C644 C645 1.391 . S
C645 H633 0.950 . S
C645 C641 1.393 . S
C645 C644 1.391 . S
C646 H636 0.950 . S
C646 C647 1.386 . S
C646 C648 1.391 . S
C647 C646 1.386 . S
C647 C651 1.393 . S
C648 H637 0.950 . S
C648 C646 1.391 . S
C648 C649 1.400 . S
C649 C643 1.491 . S
C649 C648 1.400 . S
C649 C650 1.398 . S
C650 H638 0.950 . S
C650 C649 1.398 . S
C650 C651 1.391 . S
C651 H639 0.950 . S
C651 C647 1.393 . S
C651 C650 1.391 . S
H652 C660 0.950 . S
H653 C665 0.950 . S
H654 C662 0.950 . S
H655 C664 0.950 . S
H656 C666 0.950 . S
H657 C668 0.950 . S
H658 C670 0.950 . S
H659 C671 0.950 . S
C660 H652 0.950 . S
C660 C661 1.386 . S
C660 C662 1.391 . S
C661 C660 1.386 . S
C661 C665 1.393 . S
C662 H654 0.950 . S
C662 C660 1.391 . S
C662 C663 1.400 . S
C663 C662 1.400 . S
C663 C664 1.398 . S
C663 C669 1.491 . S
C664 H655 0.950 . S
C664 C663 1.398 . S
C664 C665 1.391 . S
C665 H653 0.950 . S
C665 C661 1.393 . S
C665 C664 1.391 . S
C666 H656 0.950 . S
C666 C667 1.386 . S
C666 C668 1.391 . S
C667 C666 1.386 . S
C667 C671 1.393 . S
C668 H657 0.950 . S
C668 C666 1.391 . S
C668 C669 1.400 . S
C669 C663 1.491 . S
C669 C668 1.400 . S
C669 C670 1.398 . S
C670 H658 0.950 . S
C670 C669 1.398 . S
C670 C671 1.391 . S
C671 H659 0.950 . S
C671 C667 1.393 . S
C671 C670 1.391 . S
H672 C680 0.950 1_455 S
H673 C685 0.950 . S
H674 C682 0.950 . S
H675 C684 0.950 . S
H676 C686 0.950 . S
H677 C688 0.950 . S
H678 C690 0.950 . S
H679 C691 0.950 . S
C680 H672 0.950 1_655 S
C680 C681 1.386 . S
C680 C682 1.391 1_655 S
C681 C680 1.386 . S
C681 C685 1.393 . S
C682 H674 0.950 . S
C682 C680 1.391 1_455 S
C682 C683 1.400 1_455 S
C683 C682 1.400 1_655 S
C683 C684 1.398 . S
C683 C689 1.491 . S
C684 H675 0.950 . S
C684 C683 1.398 . S
C684 C685 1.391 . S
C685 H673 0.950 . S
C685 C681 1.393 . S
C685 C684 1.391 . S
C686 H676 0.950 . S
C686 C687 1.382 1_654 S
C686 C688 1.391 . S
C687 C686 1.382 1_456 S
C687 C691 1.393 . S
C688 H677 0.950 . S
C688 C686 1.391 . S
C688 C689 1.400 . S
C689 C683 1.491 . S
C689 C688 1.400 . S
C689 C690 1.398 1_655 S
C690 H678 0.950 . S
C690 C689 1.398 1_455 S
C690 C691 1.391 1_554 S
C691 H679 0.950 . S
C691 C687 1.393 . S
C691 C690 1.391 1_556 S
H692 C700 0.950 . S
H693 C705 0.950 . S
H694 C702 0.950 . S
H695 C704 0.950 . S
H696 C706 0.950 . S
H697 C708 0.950 . S
H698 C710 0.950 . S
H699 C711 0.950 . S
C700 H692 0.950 . S
C700 C701 1.386 1_545 S
C700 C702 1.391 . S
C701 C700 1.386 1_565 S
C701 C705 1.393 . S
C702 H694 0.950 . S
C702 C700 1.391 . S
C702 C703 1.400 1_545 S
C703 C702 1.400 1_565 S
C703 C704 1.398 . S
C703 C709 1.500 . S
C704 H695 0.950 . S
C704 C703 1.398 . S
C704 C705 1.391 . S
C705 H693 0.950 . S
C705 C701 1.393 . S
C705 C704 1.391 . S
C706 H696 0.950 . S
C706 C707 1.386 1_566 S
C706 C708 1.391 1_556 S
C707 C706 1.386 1_544 S
C707 C711 1.393 . S
C708 H697 0.950 . S
C708 C706 1.391 1_554 S
C708 C709 1.421 . S
C709 C703 1.500 . S
C709 C708 1.421 . S
C709 C710 1.369 1_565 S
C710 H698 0.950 . S
C710 C709 1.369 1_545 S
C710 C711 1.391 . S
C711 H699 0.950 . S
C711 C707 1.393 . S
C711 C710 1.391 . S
H712 C720 0.950 . S
H713 C725 0.950 . S
H714 C722 0.950 . S
H715 C724 0.950 . S
H716 C726 0.950 . S
H717 C728 0.950 . S
H718 C730 0.950 1_556 S
H719 C731 0.950 . S
C720 H712 0.950 . S
C720 C721 1.386 . S
C720 C722 1.391 . S
C721 C720 1.386 . S
C721 C725 1.393 . S
C722 H714 0.950 . S
C722 C720 1.391 . S
C722 C723 1.400 . S
C723 C722 1.400 . S
C723 C724 1.398 . S
C723 C729 1.491 . S
C724 H715 0.950 . S
C724 C723 1.398 . S
C724 C725 1.391 . S
C725 H713 0.950 . S
C725 C721 1.393 . S
C725 C724 1.391 . S
C726 H716 0.950 . S
C726 C727 1.391 . S
C726 C728 1.391 . S
C727 C726 1.391 . S
C727 C731 1.391 1_554 S
C728 H717 0.950 . S
C728 C726 1.391 . S
C728 C729 1.400 . S
C729 C723 1.491 . S
C729 C728 1.400 . S
C729 C730 1.398 . S
C730 H718 0.950 1_554 S
C730 C729 1.398 . S
C730 C731 1.391 1_554 S
C731 H719 0.950 . S
C731 C727 1.391 1_556 S
C731 C730 1.391 1_556 S
H732 C740 0.950 . S
H733 C745 0.950 . S
H734 C742 0.950 . S
H735 C744 0.950 . S
H736 C746 0.950 . S
H737 C748 0.950 . S
H738 C750 0.950 1_556 S
H739 C751 0.950 . S
C740 H732 0.950 . S
C740 C741 1.386 . S
C740 C742 1.391 . S
C741 C740 1.386 . S
C741 C745 1.393 . S
C742 H734 0.950 . S
C742 C740 1.391 . S
C742 C743 1.400 . S
C743 C742 1.400 . S
C743 C744 1.398 . S
C743 C749 1.491 . S
C744 H735 0.950 . S
C744 C743 1.398 . S
C744 C745 1.391 . S
C745 H733 0.950 . S
C745 C741 1.393 . S
C745 C744 1.391 . S
C746 H736 0.950 . S
C746 C747 1.373 1_554 S
C746 C748 1.391 . S
C747 C746 1.373 1_556 S
C747 C751 1.398 . S
C748 H737 0.950 . S
C748 C746 1.391 . S
C748 C749 1.400 . S
C749 C743 1.491 . S
C749 C748 1.400 . S
C749 C750 1.398 . S
C750 H738 0.950 1_554 S
C750 C749 1.398 . S
C750 C751 1.391 1_554 S
C751 H739 0.950 . S
C751 C747 1.398 . S
C751 C750 1.391 1_556 S
H752 C760 0.950 1_554 S
H753 C765 0.950 . S
H754 C762 0.950 . S
H755 C764 0.950 . S
H756 C766 0.950 . S
H757 C768 0.950 . S
H758 C770 0.950 . S
H759 C771 0.950 . S
C760 H752 0.950 1_556 S
C760 C761 1.386 . S
C760 C762 1.391 . S
C761 C760 1.386 . S
C761 C765 1.393 . S
C762 H754 0.950 . S
C762 C760 1.391 . S
C762 C763 1.400 . S
C763 C762 1.400 . S
C763 C764 1.398 . S
C763 C769 1.491 . S
C764 H755 0.950 . S
C764 C763 1.398 . S
C764 C765 1.391 . S
C765 H753 0.950 . S
C765 C761 1.393 . S
C765 C764 1.391 . S
C766 H756 0.950 . S
C766 C767 1.386 . S
C766 C768 1.391 . S
C767 C766 1.386 . S
C767 C771 1.393 . S
C768 H757 0.950 . S
C768 C766 1.391 . S
C768 C769 1.400 . S
C769 C763 1.491 . S
C769 C768 1.400 . S
C769 C770 1.398 . S
C770 H758 0.950 . S
C770 C769 1.398 . S
C770 C771 1.391 . S
C771 H759 0.950 . S
C771 C767 1.393 . S
C771 C770 1.391 . S
H772 C780 0.985 . S
H773 C785 0.950 . S
H774 C782 0.950 1_565 S
H775 C784 0.950 . S
H776 C786 0.950 . S
H777 C788 0.950 . S
H778 C790 0.950 1_565 S
H779 C791 0.950 1_565 S
C780 H772 0.985 . S
C780 C781 1.386 . S
C780 C782 1.391 . S
C781 C780 1.386 . S
C781 C785 1.393 . S
C782 H774 0.950 1_545 S
C782 C780 1.391 . S
C782 C783 1.400 . S
C783 C782 1.400 . S
C783 C784 1.398 . S
C783 C789 1.491 . S
C784 H775 0.950 . S
C784 C783 1.398 . S
C784 C785 1.391 . S
C785 H773 0.950 . S
C785 C781 1.393 . S
C785 C784 1.391 . S
C786 H776 0.950 . S
C786 C787 1.386 . S
C786 C788 1.391 . S
C787 C786 1.386 . S
C787 C791 1.393 . S
C788 H777 0.950 . S
C788 C786 1.391 . S
C788 C789 1.400 . S
C789 C783 1.491 . S
C789 C788 1.400 . S
C789 C790 1.398 . S
C790 H778 0.950 1_545 S
C790 C789 1.398 . S
C790 C791 1.391 . S
C791 H779 0.950 1_545 S
C791 C787 1.393 . S
C791 C790 1.391 . S
H792 C800 0.950 . S
H793 C805 0.950 . S
H794 C802 0.950 . S
H795 C804 0.950 . S
H796 C806 0.950 . S
H797 C808 0.950 . S
H798 C810 0.950 . S
H799 C811 0.950 . S
C800 H792 0.950 . S
C800 C801 1.386 . S
C800 C802 1.391 . S
C801 C800 1.386 . S
C801 C805 1.393 . S
C802 H794 0.950 . S
C802 C800 1.391 . S
C802 C803 1.400 . S
C803 C802 1.400 . S
C803 C804 1.398 . S
C803 C809 1.491 . S
C804 H795 0.950 . S
C804 C803 1.398 . S
C804 C805 1.391 . S
C805 H793 0.950 . S
C805 C801 1.393 . S
C805 C804 1.391 . S
C806 H796 0.950 . S
C806 C807 1.386 . S
C806 C808 1.391 . S
C807 C806 1.386 . S
C807 C811 1.393 . S
C808 H797 0.950 . S
C808 C806 1.391 . S
C808 C809 1.400 . S
C809 C803 1.491 . S
C809 C808 1.400 . S
C809 C810 1.398 . S
C810 H798 0.950 . S
C810 C809 1.398 . S
C810 C811 1.391 . S
C811 H799 0.950 . S
C811 C807 1.393 . S
C811 C810 1.391 . S
H812 C820 0.950 . S
H813 C825 0.950 . S
H814 C822 0.950 . S
H815 C824 0.950 . S
H816 C826 0.950 . S
H817 C828 0.950 . S
H818 C830 0.950 . S
H819 C831 0.950 . S
C820 H812 0.950 . S
C820 C821 1.386 . S
C820 C822 1.391 . S
C821 C820 1.386 . S
C821 C825 1.393 . S
C822 H814 0.950 . S
C822 C820 1.391 . S
C822 C823 1.400 . S
C823 C822 1.400 . S
C823 C824 1.398 . S
C823 C829 1.491 . S
C824 H815 0.950 . S
C824 C823 1.398 . S
C824 C825 1.391 . S
C825 H813 0.950 . S
C825 C821 1.393 . S
C825 C824 1.391 . S
C826 H816 0.950 . S
C826 C827 1.386 . S
C826 C828 1.391 . S
C827 C826 1.386 . S
C827 C831 1.393 . S
C828 H817 0.950 . S
C828 C826 1.391 . S
C828 C829 1.400 . S
C829 C823 1.491 . S
C829 C828 1.400 . S
C829 C830 1.398 . S
C830 H818 0.950 . S
C830 C829 1.398 . S
C830 C831 1.391 . S
C831 H819 0.950 . S
C831 C827 1.393 . S
C831 C830 1.391 . S
H832 C840 0.950 . S
H833 C845 0.950 . S
H834 C842 0.950 . S
H835 C844 0.950 . S
H836 C846 0.956 . S
H837 C848 0.950 1_455 S
H838 C850 0.950 . S
H839 C851 0.950 . S
C840 H832 0.950 . S
C840 C841 1.386 . S
C840 C842 1.391 . S
C841 C840 1.386 . S
C841 C845 1.393 . S
C842 H834 0.950 . S
C842 C840 1.391 . S
C842 C843 1.400 . S
C843 C842 1.400 . S
C843 C844 1.398 . S
C843 C849 1.491 . S
C844 H835 0.950 . S
C844 C843 1.398 . S
C844 C845 1.391 . S
C845 H833 0.950 . S
C845 C841 1.393 . S
C845 C844 1.391 . S
C846 H836 0.956 . S
C846 C847 1.381 1_455 S
C846 C848 1.389 1_455 S
C847 C846 1.381 1_655 S
C847 C851 1.393 . S
C848 H837 0.950 1_655 S
C848 C846 1.389 1_655 S
C848 C849 1.400 . S
C849 C843 1.491 . S
C849 C848 1.400 . S
C849 C850 1.398 . S
C850 H838 0.950 . S
C850 C849 1.398 . S
C850 C851 1.391 . S
C851 H839 0.950 . S
C851 C847 1.393 . S
C851 C850 1.391 . S
H852 C860 0.950 . S
H853 C865 0.950 . S
H854 C862 0.950 . S
H855 C864 0.950 . S
H856 C866 0.950 . S
H857 C868 0.950 . S
H858 C870 0.950 . S
H859 C871 0.950 . S
C860 H852 0.950 . S
C860 C861 1.386 . S
C860 C862 1.391 . S
C861 C860 1.386 . S
C861 C865 1.393 1_565 S
C862 H854 0.950 . S
C862 C860 1.391 . S
C862 C863 1.400 . S
C863 C862 1.400 . S
C863 C864 1.398 1_565 S
C863 C869 1.491 . S
C864 H855 0.950 . S
C864 C863 1.398 1_545 S
C864 C865 1.391 . S
C865 H853 0.950 . S
C865 C861 1.393 1_545 S
C865 C864 1.391 . S
C866 H856 0.950 . S
C866 C867 1.386 1_545 S
C866 C868 1.391 . S
C867 C866 1.386 1_565 S
C867 C871 1.393 . S
C868 H857 0.950 . S
C868 C866 1.391 . S
C868 C869 1.400 1_545 S
C869 C863 1.491 . S
C869 C868 1.400 1_565 S
C869 C870 1.398 . S
C870 H858 0.950 . S
C870 C869 1.398 . S
C870 C871 1.391 . S
C871 H859 0.950 . S
C871 C867 1.393 . S
C871 C870 1.391 . S
H872 C880 0.950 . S
H873 C885 0.950 . S
H874 C882 0.950 . S
H875 C884 0.950 . S
H876 C886 0.950 . S
H877 C888 0.950 . S
H878 C890 0.950 . S
H879 C891 0.950 . S
C880 H872 0.950 . S
C880 C881 1.386 . S
C880 C882 1.391 . S
C881 C880 1.386 . S
C881 C885 1.393 . S
C882 H874 0.950 . S
C882 C880 1.391 . S
C882 C883 1.400 . S
C883 C882 1.400 . S
C883 C884 1.398 . S
C883 C889 1.491 . S
C884 H875 0.950 . S
C884 C883 1.398 . S
C884 C885 1.391 . S
C885 H873 0.950 . S
C885 C881 1.393 . S
C885 C884 1.391 . S
C886 H876 0.950 . S
C886 C887 1.386 . S
C886 C888 1.391 . S
C887 C886 1.386 . S
C887 C891 1.393 . S
C888 H877 0.950 . S
C888 C886 1.391 . S
C888 C889 1.400 . S
C889 C883 1.491 . S
C889 C888 1.400 . S
C889 C890 1.398 . S
C890 H878 0.950 . S
C890 C889 1.398 . S
C890 C891 1.391 . S
C891 H879 0.950 . S
C891 C887 1.393 . S
C891 C890 1.391 . S
H892 C900 0.950 . S
H893 C905 0.950 . S
H894 C902 0.950 . S
H895 C904 0.950 . S
H896 C906 0.950 . S
H897 C908 0.950 . S
H898 C910 0.950 . S
H899 C911 0.950 . S
C900 H892 0.950 . S
C900 C901 1.386 . S
C900 C902 1.391 . S
C901 C900 1.386 . S
C901 C905 1.393 . S
C902 H894 0.950 . S
C902 C900 1.391 . S
C902 C903 1.400 . S
C903 C902 1.400 . S
C903 C904 1.398 . S
C903 C909 1.491 . S
C904 H895 0.950 . S
C904 C903 1.398 . S
C904 C905 1.391 . S
C905 H893 0.950 . S
C905 C901 1.393 . S
C905 C904 1.391 . S
C906 H896 0.950 . S
C906 C907 1.386 . S
C906 C908 1.391 . S
C907 C906 1.386 . S
C907 C911 1.393 . S
C908 H897 0.950 . S
C908 C906 1.391 . S
C908 C909 1.400 . S
C909 C903 1.491 . S
C909 C908 1.400 . S
C909 C910 1.398 . S
C910 H898 0.950 . S
C910 C909 1.398 . S
C910 C911 1.391 . S
C911 H899 0.950 . S
C911 C907 1.393 . S
C911 C910 1.391 . S
C441 C76 1.863 . S
C447 C159 2.022 . S
C467 C236 2.030 . S
C461 C88 1.871 . S
C487 C327 2.022 . S
C481 C52 1.883 . S
C507 C411 2.008 . S
C501 C64 1.878 . S
C527 C170 2.025 . S
C521 C28 1.872 . S
C541 C40 1.896 . S
C547 C247 2.038 . S
C561 C4 1.888 . S
C567 C338 2.022 . S
C581 C16 1.857 . S
C587 C422 2.006 1_655 S
C607 C154 0.642 1_455 S
C601 C69 0.584 . S
C627 C249 0.596 . S
C621 C81 0.549 . S
C647 C322 0.570 . S
C641 C93 0.574 . S
C661 C57 0.546 . S
C667 C406 0.629 . S
C681 C21 0.607 . S
C687 C165 0.598 . S
C707 C238 0.568 . S
C701 C33 0.574 . S
C727 C333 0.570 1_554 S
C721 C45 0.598 . S
C741 C9 0.586 . S
C747 C417 0.572 . S
C761 C66 1.936 . S
C767 C163 2.115 . S
C781 C78 1.953 . S
C787 C254 2.128 . S
C807 C331 2.125 . S
C801 C90 1.932 . S
C827 C415 2.139 . S
C821 C54 1.967 . S
C841 C18 1.934 . S
C847 C152 2.118 . S
C867 C243 2.130 1_565 S
C861 C30 1.946 . S
C887 C320 2.134 . S
C881 C42 1.952 . S
C901 C6 1.940 . S
C907 C404 2.134 . S
