# Generated by pormake.
# Topology tbo, (3,4)-cn, num edge types: 1
# Building blocks:
#     Node 0, Type 0, BuildingBlock: WUSLED_clean_sbu_0, # of connection points: 3
#     Node 1, Type 0, BuildingBlock: WUSLED_clean_sbu_0, # of connection points: 3
#     Node 2, Type 0, BuildingBlock: WUSLED_clean_sbu_0, # of connection points: 3
#     Node 3, Type 0, BuildingBlock: WUSLED_clean_sbu_0, # of connection points: 3
#     Node 4, Type 0, BuildingBlock: WUSLED_clean_sbu_0, # of connection points: 3
#     Node 5, Type 0, BuildingBlock: WUSLED_clean_sbu_0, # of connection points: 3
#     Node 6, Type 0, BuildingBlock: WUSLED_clean_sbu_0, # of connection points: 3
#     Node 7, Type 0, BuildingBlock: WUSLED_clean_sbu_0, # of connection points: 3
#     Node 8, Type 0, BuildingBlock: WUSLED_clean_sbu_0, # of connection points: 3
#     Node 9, Type 0, BuildingBlock: WUSLED_clean_sbu_0, # of connection points: 3
#     Node 10, Type 0, BuildingBlock: WUSLED_clean_sbu_0, # of connection points: 3
#     Node 11, Type 0, BuildingBlock: WUSLED_clean_sbu_0, # of connection points: 3
#     Node 12, Type 0, BuildingBlock: WUSLED_clean_sbu_0, # of connection points: 3
#     Node 13, Type 0, BuildingBlock: WUSLED_clean_sbu_0, # of connection points: 3
#     Node 14, Type 0, BuildingBlock: WUSLED_clean_sbu_0, # of connection points: 3
#     Node 15, Type 0, BuildingBlock: WUSLED_clean_sbu_0, # of connection points: 3
#     Node 16, Type 0, BuildingBlock: WUSLED_clean_sbu_0, # of connection points: 3
#     Node 17, Type 0, BuildingBlock: WUSLED_clean_sbu_0, # of connection points: 3
#     Node 18, Type 0, BuildingBlock: WUSLED_clean_sbu_0, # of connection points: 3
#     Node 19, Type 0, BuildingBlock: WUSLED_clean_sbu_0, # of connection points: 3
#     Node 20, Type 0, BuildingBlock: WUSLED_clean_sbu_0, # of connection points: 3
#     Node 21, Type 0, BuildingBlock: WUSLED_clean_sbu_0, # of connection points: 3
#     Node 22, Type 0, BuildingBlock: WUSLED_clean_sbu_0, # of connection points: 3
#     Node 23, Type 0, BuildingBlock: WUSLED_clean_sbu_0, # of connection points: 3
#     Node 24, Type 0, BuildingBlock: WUSLED_clean_sbu_0, # of connection points: 3
#     Node 25, Type 0, BuildingBlock: WUSLED_clean_sbu_0, # of connection points: 3
#     Node 26, Type 0, BuildingBlock: WUSLED_clean_sbu_0, # of connection points: 3
#     Node 27, Type 0, BuildingBlock: WUSLED_clean_sbu_0, # of connection points: 3
#     Node 28, Type 0, BuildingBlock: WUSLED_clean_sbu_0, # of connection points: 3
#     Node 29, Type 0, BuildingBlock: WUSLED_clean_sbu_0, # of connection points: 3
#     Node 30, Type 0, BuildingBlock: WUSLED_clean_sbu_0, # of connection points: 3
#     Node 31, Type 0, BuildingBlock: WUSLED_clean_sbu_0, # of connection points: 3
#     Node 32, Type 1, BuildingBlock: KUFVIS_clean_linker_0, # of connection points: 4
#     Node 33, Type 1, BuildingBlock: KUFVIS_clean_linker_0, # of connection points: 4
#     Node 34, Type 1, BuildingBlock: KUFVIS_clean_linker_0, # of connection points: 4
#     Node 35, Type 1, BuildingBlock: KUFVIS_clean_linker_0, # of connection points: 4
#     Node 36, Type 1, BuildingBlock: KUFVIS_clean_linker_0, # of connection points: 4
#     Node 37, Type 1, BuildingBlock: KUFVIS_clean_linker_0, # of connection points: 4
#     Node 38, Type 1, BuildingBlock: KUFVIS_clean_linker_0, # of connection points: 4
#     Node 39, Type 1, BuildingBlock: KUFVIS_clean_linker_0, # of connection points: 4
#     Node 40, Type 1, BuildingBlock: KUFVIS_clean_linker_0, # of connection points: 4
#     Node 41, Type 1, BuildingBlock: KUFVIS_clean_linker_0, # of connection points: 4
#     Node 42, Type 1, BuildingBlock: KUFVIS_clean_linker_0, # of connection points: 4
#     Node 43, Type 1, BuildingBlock: KUFVIS_clean_linker_0, # of connection points: 4
#     Node 44, Type 1, BuildingBlock: KUFVIS_clean_linker_0, # of connection points: 4
#     Node 45, Type 1, BuildingBlock: KUFVIS_clean_linker_0, # of connection points: 4
#     Node 46, Type 1, BuildingBlock: KUFVIS_clean_linker_0, # of connection points: 4
#     Node 47, Type 1, BuildingBlock: KUFVIS_clean_linker_0, # of connection points: 4
#     Node 48, Type 1, BuildingBlock: KUFVIS_clean_linker_0, # of connection points: 4
#     Node 49, Type 1, BuildingBlock: KUFVIS_clean_linker_0, # of connection points: 4
#     Node 50, Type 1, BuildingBlock: KUFVIS_clean_linker_0, # of connection points: 4
#     Node 51, Type 1, BuildingBlock: KUFVIS_clean_linker_0, # of connection points: 4
#     Node 52, Type 1, BuildingBlock: KUFVIS_clean_linker_0, # of connection points: 4
#     Node 53, Type 1, BuildingBlock: KUFVIS_clean_linker_0, # of connection points: 4
#     Node 54, Type 1, BuildingBlock: KUFVIS_clean_linker_0, # of connection points: 4
#     Node 55, Type 1, BuildingBlock: KUFVIS_clean_linker_0, # of connection points: 4
#     Edge 56, Type (0, 1), None
#     Edge 57, Type (0, 1), None
#     Edge 58, Type (0, 1), None
#     Edge 59, Type (0, 1), None
#     Edge 60, Type (0, 1), None
#     Edge 61, Type (0, 1), None
#     Edge 62, Type (0, 1), None
#     Edge 63, Type (0, 1), None
#     Edge 64, Type (0, 1), None
#     Edge 65, Type (0, 1), None
#     Edge 66, Type (0, 1), None
#     Edge 67, Type (0, 1), None
#     Edge 68, Type (0, 1), None
#     Edge 69, Type (0, 1), None
#     Edge 70, Type (0, 1), None
#     Edge 71, Type (0, 1), None
#     Edge 72, Type (0, 1), None
#     Edge 73, Type (0, 1), None
#     Edge 74, Type (0, 1), None
#     Edge 75, Type (0, 1), None
#     Edge 76, Type (0, 1), None
#     Edge 77, Type (0, 1), None
#     Edge 78, Type (0, 1), None
#     Edge 79, Type (0, 1), None
#     Edge 80, Type (0, 1), None
#     Edge 81, Type (0, 1), None
#     Edge 82, Type (0, 1), None
#     Edge 83, Type (0, 1), None
#     Edge 84, Type (0, 1), None
#     Edge 85, Type (0, 1), None
#     Edge 86, Type (0, 1), None
#     Edge 87, Type (0, 1), None
#     Edge 88, Type (0, 1), None
#     Edge 89, Type (0, 1), None
#     Edge 90, Type (0, 1), None
#     Edge 91, Type (0, 1), None
#     Edge 92, Type (0, 1), None
#     Edge 93, Type (0, 1), None
#     Edge 94, Type (0, 1), None
#     Edge 95, Type (0, 1), None
#     Edge 96, Type (0, 1), None
#     Edge 97, Type (0, 1), None
#     Edge 98, Type (0, 1), None
#     Edge 99, Type (0, 1), None
#     Edge 100, Type (0, 1), None
#     Edge 101, Type (0, 1), None
#     Edge 102, Type (0, 1), None
#     Edge 103, Type (0, 1), None
#     Edge 104, Type (0, 1), None
#     Edge 105, Type (0, 1), None
#     Edge 106, Type (0, 1), None
#     Edge 107, Type (0, 1), None
#     Edge 108, Type (0, 1), None
#     Edge 109, Type (0, 1), None
#     Edge 110, Type (0, 1), None
#     Edge 111, Type (0, 1), None
#     Edge 112, Type (0, 1), None
#     Edge 113, Type (0, 1), None
#     Edge 114, Type (0, 1), None
#     Edge 115, Type (0, 1), None
#     Edge 116, Type (0, 1), None
#     Edge 117, Type (0, 1), None
#     Edge 118, Type (0, 1), None
#     Edge 119, Type (0, 1), None
#     Edge 120, Type (0, 1), None
#     Edge 121, Type (0, 1), None
#     Edge 122, Type (0, 1), None
#     Edge 123, Type (0, 1), None
#     Edge 124, Type (0, 1), None
#     Edge 125, Type (0, 1), None
#     Edge 126, Type (0, 1), None
#     Edge 127, Type (0, 1), None
#     Edge 128, Type (0, 1), None
#     Edge 129, Type (0, 1), None
#     Edge 130, Type (0, 1), None
#     Edge 131, Type (0, 1), None
#     Edge 132, Type (0, 1), None
#     Edge 133, Type (0, 1), None
#     Edge 134, Type (0, 1), None
#     Edge 135, Type (0, 1), None
#     Edge 136, Type (0, 1), None
#     Edge 137, Type (0, 1), None
#     Edge 138, Type (0, 1), None
#     Edge 139, Type (0, 1), None
#     Edge 140, Type (0, 1), None
#     Edge 141, Type (0, 1), None
#     Edge 142, Type (0, 1), None
#     Edge 143, Type (0, 1), None
#     Edge 144, Type (0, 1), None
#     Edge 145, Type (0, 1), None
#     Edge 146, Type (0, 1), None
#     Edge 147, Type (0, 1), None
#     Edge 148, Type (0, 1), None
#     Edge 149, Type (0, 1), None
#     Edge 150, Type (0, 1), None
#     Edge 151, Type (0, 1), None
# Relax obj value: 0.000
# Max RMSD: 0.056
# Mean RMSD: 0.025
data_MOF--net-tbo--node1-WUSLED_clean_sbu_0--node2-KUFVIS_clean_linker_0--edge1-none
_symmetry_space_group_name_H-M    P1
_symmetry_Int_Tables_number       1
_symmetry_cell_setting            triclinic
loop_
_symmetry_equiv_pos_as_xyz
'x, y, z'
_cell_length_a     53.663868
_cell_length_b     53.820753
_cell_length_c     53.719999
_cell_angle_alpha  89.682762
_cell_angle_beta   90.268306
_cell_angle_gamma 90.741186
loop_
_atom_site_label
_atom_site_type_symbol
_atom_site_fract_x
_atom_site_fract_y
_atom_site_fract_z
_atom_type_partial_charge
C0 C 0.20657 0.12741 0.2245 0.0
C1 C 0.2324 0.13166 0.22278 0.0
C2 C 0.24048 0.09351 0.24613 0.0
C3 C 0.24916 0.11494 0.23356 0.0
C4 C 0.21472 0.08837 0.2462 0.0
C5 C 0.19793 0.10523 0.23559 0.0
U6 U 0.18385 0.18264 0.18421 0.0
O7 O 0.14535 0.19409 0.17508 0.0
O8 O 0.17016 0.21887 0.19625 0.0
C9 C 0.14755 0.21502 0.18748 0.0
C10 C 0.18853 0.14699 0.21763 0.0
C11 C 0.12699 0.22157 0.20447 0.0
C12 C 0.11113 0.2264 0.24649 0.0
C13 C 0.12843 0.21632 0.23005 0.0
C14 C 0.08956 0.24575 0.21195 0.0
C15 C 0.09195 0.24188 0.23773 0.0
C16 C 0.10701 0.23576 0.19548 0.0
C17 C 0.22435 0.2052 0.1288 0.0
C18 C 0.22912 0.24769 0.1138 0.0
C19 C 0.24912 0.21432 0.09179 0.0
C20 C 0.23897 0.19715 0.10884 0.0
C21 C 0.24498 0.23987 0.09462 0.0
C22 C 0.21885 0.23054 0.13067 0.0
C23 C 0.21755 0.18754 0.14894 0.0
O24 O 0.19623 0.17 0.22108 0.0
O25 O 0.1759 0.14408 0.19679 0.0
O26 O 0.19687 0.17446 0.1461 0.0
O27 O 0.22051 0.19599 0.17168 0.0
H28 H 0.23962 0.14851 0.21419 0.0
H29 H 0.26891 0.11935 0.23308 0.0
H30 H 0.20745 0.07217 0.25592 0.0
H31 H 0.17811 0.10155 0.23718 0.0
H32 H 0.11335 0.22294 0.26626 0.0
H33 H 0.14359 0.20538 0.23746 0.0
H34 H 0.07514 0.2577 0.20467 0.0
H35 H 0.10558 0.24011 0.17582 0.0
H36 H 0.22547 0.26727 0.11632 0.0
H37 H 0.26136 0.20778 0.07733 0.0
H38 H 0.2435 0.17768 0.1071 0.0
H39 H 0.20755 0.23722 0.14584 0.0
C40 C 0.81816 0.20377 0.13069 0.0
C41 C 0.82413 0.2291 0.13329 0.0
C42 C 0.79782 0.2392 0.09759 0.0
C43 C 0.81398 0.24663 0.11696 0.0
C44 C 0.79313 0.21371 0.09406 0.0
C45 C 0.80313 0.19615 0.11059 0.0
U46 U 0.85967 0.18067 0.1847 0.0
O47 O 0.84834 0.16744 0.22166 0.0
O48 O 0.86758 0.1421 0.19656 0.0
C49 C 0.85563 0.14459 0.21771 0.0
C50 C 0.82507 0.18563 0.1502 0.0
C51 C 0.8374 0.12485 0.22445 0.0
C52 C 0.79458 0.11182 0.23253 0.0
C53 C 0.81165 0.12862 0.22189 0.0
C54 C 0.82861 0.08615 0.24666 0.0
C55 C 0.80291 0.09082 0.24574 0.0
C56 C 0.8457 0.1031 0.2362 0.0
C57 C 0.91706 0.21969 0.20533 0.0
C58 C 0.93235 0.22584 0.24759 0.0
C59 C 0.9559 0.24252 0.21286 0.0
C60 C 0.93816 0.23251 0.19632 0.0
C61 C 0.95265 0.24007 0.2387 0.0
C62 C 0.91478 0.21565 0.23108 0.0
C63 C 0.89632 0.21348 0.1881 0.0
O64 O 0.84553 0.17293 0.14671 0.0
O65 O 0.82273 0.19346 0.17318 0.0
O66 O 0.87384 0.21701 0.19689 0.0
O67 O 0.89807 0.19285 0.17523 0.0
H68 H 0.83577 0.23543 0.14859 0.0
H69 H 0.81809 0.26615 0.11997 0.0
H70 H 0.78066 0.20748 0.07938 0.0
H71 H 0.79824 0.1767 0.10829 0.0
H72 H 0.77488 0.11583 0.23141 0.0
H73 H 0.80474 0.14517 0.21276 0.0
H74 H 0.83559 0.07027 0.25689 0.0
H75 H 0.86548 0.09983 0.23841 0.0
H76 H 0.92944 0.22359 0.26742 0.0
H77 H 0.97123 0.25357 0.2055 0.0
H78 H 0.94027 0.23589 0.17654 0.0
H79 H 0.89875 0.20573 0.23852 0.0
C80 C 0.82181 0.84675 0.13083 0.0
C81 C 0.8275 0.82138 0.13174 0.0
C82 C 0.80127 0.81358 0.09522 0.0
C83 C 0.81728 0.80498 0.11418 0.0
C84 C 0.79693 0.83921 0.09334 0.0
C85 C 0.80703 0.85563 0.11108 0.0
U86 U 0.86196 0.8662 0.18783 0.0
O87 O 0.87074 0.90395 0.2019 0.0
O88 O 0.84956 0.87746 0.2249 0.0
C89 C 0.85811 0.90035 0.22256 0.0
C90 C 0.82862 0.86347 0.15168 0.0
C91 C 0.84075 0.92008 0.23014 0.0
C92 C 0.79841 0.93446 0.23612 0.0
C93 C 0.81508 0.91793 0.2253 0.0
C94 C 0.83282 0.95667 0.25547 0.0
C95 C 0.80701 0.95359 0.25191 0.0
C96 C 0.84952 0.93996 0.24477 0.0
C97 C 0.91776 0.82566 0.20825 0.0
C98 C 0.93262 0.81831 0.25051 0.0
C99 C 0.95543 0.80172 0.21573 0.0
C100 C 0.93823 0.81246 0.19923 0.0
C101 C 0.95232 0.80381 0.2416 0.0
C102 C 0.91556 0.82917 0.23403 0.0
C103 C 0.89758 0.83303 0.19089 0.0
O104 O 0.8252 0.85414 0.17408 0.0
O105 O 0.84956 0.87629 0.14974 0.0
O106 O 0.9003 0.85434 0.17904 0.0
O107 O 0.87477 0.8292 0.19898 0.0
H108 H 0.83889 0.81405 0.14671 0.0
H109 H 0.82104 0.78533 0.11603 0.0
H110 H 0.78453 0.84633 0.0791 0.0
H111 H 0.80234 0.87513 0.11005 0.0
H112 H 0.77863 0.93176 0.23284 0.0
H113 H 0.80782 0.90284 0.21401 0.0
H114 H 0.83998 0.97112 0.26761 0.0
H115 H 0.86925 0.94194 0.24881 0.0
H116 H 0.92982 0.82042 0.27034 0.0
H117 H 0.97026 0.79053 0.20829 0.0
H118 H 0.94027 0.80946 0.17942 0.0
H119 H 0.90001 0.83935 0.24148 0.0
C120 C 0.12593 0.82575 0.20841 0.0
C121 C 0.12886 0.82896 0.2342 0.0
C122 C 0.09109 0.80444 0.24195 0.0
C123 C 0.11168 0.81832 0.25079 0.0
C124 C 0.08722 0.80278 0.21611 0.0
C125 C 0.10458 0.81325 0.1995 0.0
U126 U 0.18188 0.86656 0.18784 0.0
O127 O 0.21893 0.85516 0.17552 0.0
O128 O 0.19508 0.87609 0.14992 0.0
C129 C 0.21597 0.86386 0.1528 0.0
C130 C 0.14615 0.83273 0.19093 0.0
C131 C 0.22314 0.84678 0.13261 0.0
C132 C 0.22788 0.80474 0.11712 0.0
C133 C 0.21752 0.82128 0.13409 0.0
C134 C 0.24833 0.83901 0.09577 0.0
C135 C 0.24399 0.81331 0.0982 0.0
C136 C 0.23809 0.85559 0.11293 0.0
C137 C 0.20231 0.92164 0.22955 0.0
C138 C 0.24462 0.9373 0.23523 0.0
C139 C 0.21044 0.95811 0.25526 0.0
C140 C 0.19366 0.94101 0.24452 0.0
C141 C 0.23619 0.95589 0.25137 0.0
C142 C 0.22786 0.92039 0.22436 0.0
C143 C 0.185 0.90144 0.22195 0.0
O144 O 0.14367 0.85361 0.17838 0.0
O145 O 0.16891 0.82945 0.19934 0.0
O146 O 0.19346 0.87883 0.22504 0.0
O147 O 0.17287 0.90435 0.20083 0.0
H148 H 0.14508 0.83866 0.24158 0.0
H149 H 0.11508 0.81997 0.27061 0.0
H150 H 0.07169 0.79202 0.20876 0.0
H151 H 0.10195 0.81052 0.17968 0.0
H152 H 0.22403 0.78504 0.11932 0.0
H153 H 0.20598 0.81402 0.14902 0.0
H154 H 0.26075 0.84614 0.08151 0.0
H155 H 0.24272 0.87519 0.11147 0.0
H156 H 0.26436 0.93529 0.23173 0.0
H157 H 0.20344 0.97214 0.2677 0.0
H158 H 0.17401 0.94227 0.24881 0.0
H159 H 0.23498 0.90567 0.21281 0.0
C160 C 0.12449 0.8196 0.84587 0.0
C161 C 0.12737 0.82456 0.82036 0.0
C162 C 0.09155 0.79789 0.81078 0.0
C163 C 0.11113 0.81372 0.80299 0.0
C164 C 0.08777 0.79417 0.8364 0.0
C165 C 0.10422 0.80486 0.8538 0.0
U166 U 0.17821 0.86239 0.86821 0.0
O167 O 0.18968 0.8718 0.9067 0.0
O168 O 0.21513 0.85202 0.88212 0.0
C169 C 0.21088 0.85998 0.90477 0.0
C170 C 0.14382 0.82735 0.864 0.0
C171 C 0.21732 0.84243 0.92502 0.0
C172 C 0.2246 0.80009 0.93915 0.0
C173 C 0.21425 0.81666 0.92192 0.0
C174 C 0.23942 0.83471 0.96398 0.0
C175 C 0.23802 0.80894 0.95993 0.0
C176 C 0.22925 0.8513 0.94658 0.0
C177 C 0.19913 0.91824 0.8276 0.0
C178 C 0.24152 0.93424 0.82373 0.0
C179 C 0.20784 0.95533 0.80262 0.0
C180 C 0.19082 0.93792 0.81253 0.0
C181 C 0.23347 0.95313 0.80746 0.0
C182 C 0.22453 0.91703 0.83378 0.0
C183 C 0.18178 0.8977 0.83421 0.0
O184 O 0.16691 0.82497 0.85643 0.0
O185 O 0.14016 0.84817 0.87607 0.0
O186 O 0.16876 0.90009 0.85473 0.0
O187 O 0.1907 0.87526 0.83148 0.0
H188 H 0.1428 0.83597 0.81379 0.0
H189 H 0.11432 0.81709 0.78336 0.0
H190 H 0.07293 0.78198 0.84291 0.0
H191 H 0.1017 0.80077 0.87341 0.0
H192 H 0.22316 0.78033 0.93561 0.0
H193 H 0.20496 0.80933 0.90553 0.0
H194 H 0.24984 0.84206 0.97967 0.0
H195 H 0.23185 0.8711 0.94934 0.0
H196 H 0.26117 0.93219 0.82787 0.0
H197 H 0.20115 0.96957 0.79003 0.0
H198 H 0.17131 0.93916 0.80747 0.0
H199 H 0.23139 0.90209 0.84543 0.0
C200 C 0.1253 0.20448 0.82741 0.0
C201 C 0.12823 0.2302 0.83086 0.0
C202 C 0.09083 0.23798 0.80602 0.0
C203 C 0.11123 0.24675 0.82023 0.0
C204 C 0.087 0.21217 0.80404 0.0
C205 C 0.10415 0.1956 0.81455 0.0
U206 U 0.18158 0.18317 0.86744 0.0
O207 O 0.19346 0.14491 0.87664 0.0
O208 O 0.21781 0.16969 0.85489 0.0
C209 C 0.21417 0.14714 0.86377 0.0
C210 C 0.14534 0.18703 0.8344 0.0
C211 C 0.22044 0.1266 0.8467 0.0
C212 C 0.2259 0.11114 0.80461 0.0
C213 C 0.21588 0.12849 0.82101 0.0
C214 C 0.24368 0.08862 0.83938 0.0
C215 C 0.24059 0.09145 0.81353 0.0
C216 C 0.23378 0.10612 0.8558 0.0
C217 C 0.20448 0.22424 0.92249 0.0
C218 C 0.24703 0.23137 0.93692 0.0
C219 C 0.2127 0.24832 0.96011 0.0
C220 C 0.19585 0.23761 0.94307 0.0
C221 C 0.23853 0.24603 0.95673 0.0
C222 C 0.2302 0.22054 0.92002 0.0
C223 C 0.18677 0.21699 0.90246 0.0
O224 O 0.16822 0.19518 0.83068 0.0
O225 O 0.14284 0.17471 0.85547 0.0
O226 O 0.17379 0.19632 0.9056 0.0
O227 O 0.19498 0.21984 0.8796 0.0
H228 H 0.1443 0.23756 0.84079 0.0
H229 H 0.11459 0.26653 0.82223 0.0
H230 H 0.07163 0.20484 0.79306 0.0
H231 H 0.10153 0.17584 0.8116 0.0
H232 H 0.22308 0.11374 0.78479 0.0
H233 H 0.20559 0.14403 0.8135 0.0
H234 H 0.25505 0.07382 0.8468 0.0
H235 H 0.23759 0.10432 0.87554 0.0
H236 H 0.26682 0.22909 0.93393 0.0
H237 H 0.20557 0.25962 0.97503 0.0
H238 H 0.17609 0.24077 0.94532 0.0
H239 H 0.23737 0.21023 0.9044 0.0
C240 C 0.82148 0.12921 0.84985 0.0
C241 C 0.82655 0.13158 0.82432 0.0
C242 C 0.80151 0.0944 0.81559 0.0
C243 C 0.81659 0.1144 0.80738 0.0
C244 C 0.79787 0.09112 0.8413 0.0
C245 C 0.80768 0.10847 0.85826 0.0
U246 U 0.86122 0.18565 0.87127 0.0
O247 O 0.84881 0.22226 0.88349 0.0
O248 O 0.86965 0.1987 0.90946 0.0
C249 C 0.85708 0.21932 0.90637 0.0
C250 C 0.82791 0.14947 0.86738 0.0
C251 C 0.83954 0.22624 0.92629 0.0
C252 C 0.79709 0.23245 0.94046 0.0
C253 C 0.81379 0.22196 0.92368 0.0
C254 C 0.8316 0.25018 0.96381 0.0
C255 C 0.80575 0.24731 0.96028 0.0
C256 C 0.84833 0.23982 0.94687 0.0
C257 C 0.91736 0.20734 0.8311 0.0
C258 C 0.93175 0.24958 0.82247 0.0
C259 C 0.95591 0.21481 0.80821 0.0
C260 C 0.93858 0.19834 0.81907 0.0
C261 C 0.95218 0.2406 0.80899 0.0
C262 C 0.91456 0.23313 0.83348 0.0
C263 C 0.89708 0.18978 0.83816 0.0
O264 O 0.84866 0.1473 0.88029 0.0
O265 O 0.82453 0.1721 0.85881 0.0
O266 O 0.87431 0.19777 0.8345 0.0
O267 O 0.89964 0.17744 0.8592 0.0
H268 H 0.83723 0.14734 0.81735 0.0
H269 H 0.81982 0.11732 0.78768 0.0
H270 H 0.78618 0.07604 0.84815 0.0
H271 H 0.8035 0.1063 0.87787 0.0
H272 H 0.77727 0.22976 0.93738 0.0
H273 H 0.80653 0.21146 0.90804 0.0
H274 H 0.83883 0.26166 0.97876 0.0
H275 H 0.86811 0.24341 0.94921 0.0
H276 H 0.92847 0.26936 0.82353 0.0
H277 H 0.9713 0.20732 0.79779 0.0
H278 H 0.9411 0.17852 0.81696 0.0
H279 H 0.89844 0.24058 0.84277 0.0
C280 C 0.84456 0.92172 0.8259 0.0
C281 C 0.81922 0.91977 0.83207 0.0
C282 C 0.8101 0.9565 0.80686 0.0
C283 C 0.80219 0.93694 0.82259 0.0
C284 C 0.8357 0.95941 0.80208 0.0
C285 C 0.85276 0.94207 0.81145 0.0
U286 U 0.86665 0.86487 0.86438 0.0
O287 O 0.8783 0.82845 0.8509 0.0
O288 O 0.90508 0.85186 0.87131 0.0
C289 C 0.90146 0.83136 0.8585 0.0
C290 C 0.86196 0.90132 0.83176 0.0
C291 C 0.92091 0.82443 0.8404 0.0
C292 C 0.93343 0.81618 0.79777 0.0
C293 C 0.91702 0.827 0.81464 0.0
C294 C 0.95896 0.80164 0.83199 0.0
C295 C 0.95416 0.80269 0.80626 0.0
C296 C 0.94241 0.81232 0.84889 0.0
C297 C 0.82842 0.84235 0.92157 0.0
C298 C 0.81999 0.79994 0.93548 0.0
C299 C 0.80691 0.8344 0.9608 0.0
C300 C 0.81727 0.85108 0.94341 0.0
C301 C 0.8073 0.80865 0.95654 0.0
C302 C 0.8305 0.81659 0.91821 0.0
C303 C 0.8348 0.86016 0.90134 0.0
O304 O 0.87546 0.90337 0.85217 0.0
O305 O 0.85299 0.87874 0.82841 0.0
O306 O 0.8303 0.8524 0.87859 0.0
O307 O 0.85595 0.87263 0.90333 0.0
H308 H 0.81242 0.90431 0.84324 0.0
H309 H 0.78257 0.9343 0.82667 0.0
H310 H 0.84231 0.97414 0.78989 0.0
H311 H 0.87222 0.9439 0.80639 0.0
H312 H 0.92936 0.8175 0.77804 0.0
H313 H 0.90068 0.83635 0.80756 0.0
H314 H 0.97463 0.79126 0.83911 0.0
H315 H 0.94576 0.81004 0.86867 0.0
H316 H 0.82073 0.7802 0.93175 0.0
H317 H 0.79709 0.84171 0.97668 0.0
H318 H 0.8154 0.87086 0.94639 0.0
H319 H 0.83912 0.80934 0.90161 0.0
C320 C 0.20654 0.62753 0.72445 0.0
C321 C 0.23238 0.63176 0.72271 0.0
C322 C 0.24043 0.59361 0.74608 0.0
C323 C 0.24912 0.61503 0.7335 0.0
C324 C 0.21467 0.5885 0.74617 0.0
C325 C 0.19789 0.60537 0.73556 0.0
U326 U 0.18387 0.68277 0.68415 0.0
O327 O 0.14538 0.69426 0.67502 0.0
O328 O 0.17022 0.71902 0.69618 0.0
C329 C 0.1476 0.71519 0.68741 0.0
C330 C 0.18852 0.64713 0.71758 0.0
C331 C 0.12705 0.72175 0.70441 0.0
C332 C 0.11119 0.72656 0.74643 0.0
C333 C 0.12848 0.71648 0.72999 0.0
C334 C 0.08964 0.74597 0.71191 0.0
C335 C 0.09202 0.74207 0.73769 0.0
C336 C 0.10709 0.73598 0.69544 0.0
C337 C 0.22438 0.70528 0.62873 0.0
C338 C 0.22916 0.74776 0.6137 0.0
C339 C 0.24917 0.71438 0.59173 0.0
C340 C 0.23901 0.69722 0.60878 0.0
C341 C 0.24502 0.73993 0.59454 0.0
C342 C 0.21888 0.73063 0.63058 0.0
C343 C 0.21757 0.68764 0.64887 0.0
O344 O 0.19624 0.67013 0.72102 0.0
O345 O 0.17588 0.64422 0.69673 0.0
O346 O 0.19688 0.67457 0.64603 0.0
O347 O 0.22054 0.69609 0.67161 0.0
H348 H 0.23961 0.6486 0.7141 0.0
H349 H 0.26887 0.61942 0.733 0.0
H350 H 0.20738 0.57231 0.7559 0.0
H351 H 0.17806 0.60171 0.73716 0.0
H352 H 0.1134 0.72308 0.7662 0.0
H353 H 0.14363 0.70551 0.73739 0.0
H354 H 0.07523 0.75794 0.70464 0.0
H355 H 0.10566 0.74035 0.67577 0.0
H356 H 0.2255 0.76734 0.61621 0.0
H357 H 0.26142 0.70783 0.57727 0.0
H358 H 0.24354 0.67774 0.60705 0.0
H359 H 0.20757 0.73731 0.64573 0.0
C360 C 0.81826 0.70381 0.63073 0.0
C361 C 0.82423 0.72914 0.63332 0.0
C362 C 0.79793 0.73922 0.59761 0.0
C363 C 0.81408 0.74666 0.61698 0.0
C364 C 0.79323 0.71374 0.59409 0.0
C365 C 0.80323 0.69618 0.61063 0.0
U366 U 0.85977 0.68073 0.68474 0.0
O367 O 0.84844 0.66752 0.72171 0.0
O368 O 0.86769 0.64217 0.69662 0.0
C369 C 0.85573 0.64466 0.71776 0.0
C370 C 0.82517 0.68568 0.65024 0.0
C371 C 0.83749 0.62493 0.72451 0.0
C372 C 0.79467 0.6119 0.73253 0.0
C373 C 0.81175 0.62869 0.72191 0.0
C374 C 0.82869 0.58624 0.74672 0.0
C375 C 0.80298 0.59092 0.74577 0.0
C376 C 0.84579 0.60319 0.73628 0.0
C377 C 0.91715 0.71978 0.70537 0.0
C378 C 0.93243 0.72598 0.74763 0.0
C379 C 0.956 0.7426 0.71288 0.0
C380 C 0.93826 0.73257 0.69635 0.0
C381 C 0.95274 0.7402 0.73872 0.0
C382 C 0.91486 0.71578 0.73113 0.0
C383 C 0.89641 0.71355 0.68814 0.0
O384 O 0.84564 0.67298 0.64676 0.0
O385 O 0.82283 0.69351 0.67322 0.0
O386 O 0.87393 0.71709 0.69693 0.0
O387 O 0.89817 0.69292 0.67528 0.0
H388 H 0.83587 0.73547 0.64861 0.0
H389 H 0.81818 0.76618 0.61998 0.0
H390 H 0.78077 0.7075 0.57941 0.0
H391 H 0.79835 0.67673 0.60834 0.0
H392 H 0.77496 0.6159 0.73138 0.0
H393 H 0.80485 0.64524 0.71275 0.0
H394 H 0.83565 0.57038 0.75698 0.0
H395 H 0.86556 0.59993 0.73852 0.0
H396 H 0.92951 0.72376 0.76746 0.0
H397 H 0.97133 0.75363 0.70552 0.0
H398 H 0.94038 0.73593 0.67656 0.0
H399 H 0.89882 0.70587 0.73857 0.0
C400 C 0.82172 0.34676 0.63085 0.0
C401 C 0.82739 0.32139 0.63178 0.0
C402 C 0.80116 0.31358 0.59527 0.0
C403 C 0.81717 0.30499 0.61423 0.0
C404 C 0.79684 0.33921 0.59336 0.0
C405 C 0.80695 0.35564 0.61109 0.0
U406 U 0.8619 0.36625 0.68782 0.0
O407 O 0.87068 0.40401 0.70186 0.0
O408 O 0.84951 0.37754 0.72489 0.0
C409 C 0.85806 0.40042 0.72253 0.0
C410 C 0.82854 0.3635 0.65169 0.0
C411 C 0.8407 0.42016 0.73012 0.0
C412 C 0.79838 0.43455 0.73612 0.0
C413 C 0.81504 0.41801 0.7253 0.0
C414 C 0.8328 0.45676 0.75545 0.0
C415 C 0.80699 0.45368 0.7519 0.0
C416 C 0.8495 0.44004 0.74474 0.0
C417 C 0.91769 0.32572 0.70825 0.0
C418 C 0.93255 0.31839 0.75051 0.0
C419 C 0.95537 0.30179 0.71573 0.0
C420 C 0.93816 0.31252 0.69923 0.0
C421 C 0.95226 0.30389 0.7416 0.0
C422 C 0.91549 0.32924 0.73403 0.0
C423 C 0.89751 0.33308 0.69089 0.0
O424 O 0.82513 0.35418 0.6741 0.0
O425 O 0.84947 0.37632 0.64973 0.0
O426 O 0.90022 0.35439 0.67903 0.0
O427 O 0.8747 0.32926 0.69898 0.0
H428 H 0.83877 0.31407 0.64676 0.0
H429 H 0.82091 0.28533 0.6161 0.0
H430 H 0.78445 0.34633 0.57911 0.0
H431 H 0.80228 0.37514 0.61004 0.0
H432 H 0.77859 0.43186 0.73285 0.0
H433 H 0.80777 0.40293 0.71402 0.0
H434 H 0.83997 0.47121 0.76758 0.0
H435 H 0.86922 0.44201 0.74877 0.0
H436 H 0.92976 0.3205 0.77034 0.0
H437 H 0.97019 0.29059 0.70829 0.0
H438 H 0.94021 0.30951 0.67942 0.0
H439 H 0.89995 0.33942 0.74148 0.0
C440 C 0.12585 0.32583 0.70841 0.0
C441 C 0.12879 0.32904 0.7342 0.0
C442 C 0.09102 0.30451 0.74196 0.0
C443 C 0.11162 0.31838 0.75079 0.0
C444 C 0.08715 0.30286 0.71611 0.0
C445 C 0.1045 0.31333 0.6995 0.0
U446 U 0.18178 0.36666 0.68781 0.0
O447 O 0.21883 0.35528 0.67548 0.0
O448 O 0.19496 0.37619 0.64988 0.0
C449 C 0.21585 0.36397 0.65276 0.0
C450 C 0.14606 0.33282 0.69092 0.0
C451 C 0.22302 0.34689 0.63256 0.0
C452 C 0.22773 0.30484 0.61707 0.0
C453 C 0.21737 0.32139 0.63404 0.0
C454 C 0.24822 0.3391 0.59574 0.0
C455 C 0.24385 0.31341 0.59816 0.0
C456 C 0.23798 0.35568 0.6129 0.0
C457 C 0.20221 0.42174 0.72952 0.0
C458 C 0.24453 0.43739 0.73521 0.0
C459 C 0.21034 0.45821 0.75523 0.0
C460 C 0.19355 0.44112 0.74448 0.0
C461 C 0.23608 0.456 0.75135 0.0
C462 C 0.22777 0.42048 0.72434 0.0
C463 C 0.18491 0.40154 0.72193 0.0
O464 O 0.14357 0.3537 0.67837 0.0
O465 O 0.16883 0.32955 0.69932 0.0
O466 O 0.19337 0.37893 0.72501 0.0
O467 O 0.17277 0.40444 0.70081 0.0
H468 H 0.14501 0.33873 0.74157 0.0
H469 H 0.11502 0.32004 0.77061 0.0
H470 H 0.07161 0.29209 0.70877 0.0
H471 H 0.10186 0.3106 0.67969 0.0
H472 H 0.22386 0.28515 0.61928 0.0
H473 H 0.20582 0.31414 0.64896 0.0
H474 H 0.26065 0.34622 0.58148 0.0
H475 H 0.24263 0.37528 0.61144 0.0
H476 H 0.26426 0.43538 0.73172 0.0
H477 H 0.20333 0.47225 0.76766 0.0
H478 H 0.1739 0.44238 0.74876 0.0
H479 H 0.23489 0.40576 0.7128 0.0
C480 C 0.12442 0.31957 0.3458 0.0
C481 C 0.12731 0.32448 0.32028 0.0
C482 C 0.09148 0.29781 0.31073 0.0
C483 C 0.11106 0.31362 0.30293 0.0
C484 C 0.08769 0.29415 0.33636 0.0
C485 C 0.10413 0.30485 0.35375 0.0
U486 U 0.17815 0.36236 0.36812 0.0
O487 O 0.18961 0.37178 0.40661 0.0
O488 O 0.21506 0.35198 0.38205 0.0
C489 C 0.21081 0.35996 0.40469 0.0
C490 C 0.14375 0.32733 0.36392 0.0
C491 C 0.21724 0.34241 0.42496 0.0
C492 C 0.22451 0.30008 0.43911 0.0
C493 C 0.21416 0.31664 0.42187 0.0
C494 C 0.23932 0.33471 0.46393 0.0
C495 C 0.23792 0.30894 0.4599 0.0
C496 C 0.22916 0.3513 0.44652 0.0
C497 C 0.19912 0.41819 0.32751 0.0
C498 C 0.24152 0.43417 0.32369 0.0
C499 C 0.20787 0.45526 0.30253 0.0
C500 C 0.19084 0.43786 0.31242 0.0
C501 C 0.23349 0.45305 0.3074 0.0
C502 C 0.22451 0.41697 0.33373 0.0
C503 C 0.18175 0.39765 0.33412 0.0
O504 O 0.16684 0.32494 0.35635 0.0
O505 O 0.14009 0.34816 0.37598 0.0
O506 O 0.16872 0.40005 0.35462 0.0
O507 O 0.19066 0.37521 0.33139 0.0
H508 H 0.14275 0.33587 0.31369 0.0
H509 H 0.11427 0.31695 0.28328 0.0
H510 H 0.07284 0.28198 0.34288 0.0
H511 H 0.10161 0.3008 0.37336 0.0
H512 H 0.22307 0.28031 0.43559 0.0
H513 H 0.20489 0.30931 0.40548 0.0
H514 H 0.24973 0.34206 0.47962 0.0
H515 H 0.23176 0.37109 0.44926 0.0
H516 H 0.26116 0.43212 0.32786 0.0
H517 H 0.20121 0.4695 0.28992 0.0
H518 H 0.17133 0.43911 0.30733 0.0
H519 H 0.23135 0.40203 0.34539 0.0
C520 C 0.12537 0.7044 0.32737 0.0
C521 C 0.1283 0.73012 0.33084 0.0
C522 C 0.0909 0.73789 0.30599 0.0
C523 C 0.11129 0.74666 0.32021 0.0
C524 C 0.08708 0.71208 0.30399 0.0
C525 C 0.10424 0.69551 0.3145 0.0
U526 U 0.18168 0.6831 0.36737 0.0
O527 O 0.19358 0.64485 0.37658 0.0
O528 O 0.21791 0.66963 0.35481 0.0
C529 C 0.21428 0.64708 0.3637 0.0
C530 C 0.14542 0.68695 0.33435 0.0
C531 C 0.22055 0.62654 0.34664 0.0
C532 C 0.22601 0.61107 0.30456 0.0
C533 C 0.216 0.62842 0.32094 0.0
C534 C 0.24377 0.58855 0.33933 0.0
C535 C 0.24069 0.59137 0.31348 0.0
C536 C 0.23387 0.60606 0.35574 0.0
C537 C 0.20458 0.7242 0.42241 0.0
C538 C 0.24713 0.73134 0.43684 0.0
C539 C 0.2128 0.7483 0.46002 0.0
C540 C 0.19596 0.73758 0.44298 0.0
C541 C 0.23863 0.74601 0.45664 0.0
C542 C 0.23031 0.7205 0.41994 0.0
C543 C 0.18688 0.71693 0.40239 0.0
O544 O 0.1683 0.69511 0.33062 0.0
O545 O 0.14294 0.67464 0.35543 0.0
O546 O 0.17391 0.69626 0.40553 0.0
O547 O 0.19508 0.71978 0.37952 0.0
H548 H 0.14436 0.73748 0.34077 0.0
H549 H 0.11465 0.76645 0.32222 0.0
H550 H 0.07172 0.70475 0.29301 0.0
H551 H 0.10162 0.67575 0.31153 0.0
H552 H 0.2232 0.61366 0.28473 0.0
H553 H 0.20571 0.64397 0.31343 0.0
H554 H 0.25514 0.57374 0.34676 0.0
H555 H 0.23768 0.60425 0.37549 0.0
H556 H 0.26692 0.72906 0.43386 0.0
H557 H 0.20567 0.75961 0.47493 0.0
H558 H 0.1762 0.74074 0.44523 0.0
H559 H 0.23747 0.71019 0.40433 0.0
C560 C 0.82156 0.62913 0.34987 0.0
C561 C 0.82666 0.63149 0.32435 0.0
C562 C 0.80161 0.59432 0.31561 0.0
C563 C 0.81671 0.61431 0.3074 0.0
C564 C 0.79795 0.59105 0.34131 0.0
C565 C 0.80775 0.6084 0.35828 0.0
U566 U 0.8613 0.68557 0.37129 0.0
O567 O 0.84889 0.72219 0.38351 0.0
O568 O 0.86973 0.69863 0.40948 0.0
C569 C 0.85717 0.71925 0.40638 0.0
C570 C 0.82799 0.64939 0.3674 0.0
C571 C 0.83962 0.72617 0.4263 0.0
C572 C 0.79718 0.73239 0.44048 0.0
C573 C 0.81388 0.72189 0.42371 0.0
C574 C 0.83169 0.75013 0.46381 0.0
C575 C 0.80584 0.74726 0.4603 0.0
C576 C 0.84841 0.73976 0.44688 0.0
C577 C 0.91744 0.70727 0.33111 0.0
C578 C 0.93182 0.74951 0.32247 0.0
C579 C 0.95598 0.71474 0.30821 0.0
C580 C 0.93866 0.69827 0.31908 0.0
C581 C 0.95225 0.74053 0.30899 0.0
C582 C 0.91463 0.73306 0.33348 0.0
C583 C 0.89716 0.68971 0.33817 0.0
O584 O 0.84874 0.64722 0.38031 0.0
O585 O 0.82461 0.67202 0.35883 0.0
O586 O 0.87439 0.6977 0.33452 0.0
O587 O 0.89972 0.67737 0.35921 0.0
H588 H 0.83735 0.64724 0.31739 0.0
H589 H 0.81995 0.61723 0.2877 0.0
H590 H 0.78625 0.57597 0.34816 0.0
H591 H 0.80355 0.60624 0.37789 0.0
H592 H 0.77736 0.72969 0.4374 0.0
H593 H 0.80661 0.71138 0.40807 0.0
H594 H 0.83892 0.76161 0.47876 0.0
H595 H 0.8682 0.74335 0.44921 0.0
H596 H 0.92854 0.76929 0.32353 0.0
H597 H 0.97138 0.70724 0.2978 0.0
H598 H 0.94118 0.67845 0.31697 0.0
H599 H 0.89851 0.7405 0.34277 0.0
C600 C 0.84458 0.42159 0.32595 0.0
C601 C 0.81925 0.41969 0.33214 0.0
C602 C 0.81016 0.45641 0.30691 0.0
C603 C 0.80223 0.43686 0.32266 0.0
C604 C 0.83575 0.45928 0.30212 0.0
C605 C 0.8528 0.44193 0.31148 0.0
U606 U 0.86661 0.36472 0.36443 0.0
O607 O 0.87822 0.32829 0.35095 0.0
O608 O 0.90502 0.35168 0.37136 0.0
C609 C 0.90138 0.33118 0.35855 0.0
C610 C 0.86196 0.40118 0.33181 0.0
C611 C 0.92083 0.32423 0.34046 0.0
C612 C 0.93335 0.316 0.29782 0.0
C613 C 0.91695 0.32682 0.3147 0.0
C614 C 0.95885 0.30141 0.33204 0.0
C615 C 0.95407 0.30248 0.30631 0.0
C616 C 0.94231 0.31209 0.34895 0.0
C617 C 0.82835 0.34225 0.42162 0.0
C618 C 0.81991 0.29984 0.43554 0.0
C619 C 0.80682 0.33431 0.46084 0.0
C620 C 0.8172 0.35098 0.44345 0.0
C621 C 0.80721 0.30857 0.45659 0.0
C622 C 0.83043 0.31649 0.41827 0.0
C623 C 0.83475 0.36006 0.40139 0.0
O624 O 0.87546 0.40321 0.35222 0.0
O625 O 0.85297 0.37861 0.32846 0.0
O626 O 0.83024 0.3523 0.37864 0.0
O627 O 0.85591 0.3725 0.40338 0.0
H628 H 0.81243 0.40424 0.34332 0.0
H629 H 0.78261 0.43425 0.32675 0.0
H630 H 0.84237 0.474 0.28991 0.0
H631 H 0.87226 0.44373 0.30641 0.0
H632 H 0.92929 0.31734 0.27809 0.0
H633 H 0.90061 0.33619 0.30762 0.0
H634 H 0.97452 0.29101 0.33916 0.0
H635 H 0.94565 0.3098 0.36873 0.0
H636 H 0.82065 0.2801 0.43181 0.0
H637 H 0.797 0.34163 0.47671 0.0
H638 H 0.81533 0.37077 0.44642 0.0
H639 H 0.83905 0.30923 0.40168 0.0
C640 C 0.70647 0.12753 0.72451 0.0
C641 C 0.7323 0.13178 0.72278 0.0
C642 C 0.74039 0.09363 0.74614 0.0
C643 C 0.74906 0.11506 0.73356 0.0
C644 C 0.71462 0.0885 0.74622 0.0
C645 C 0.69783 0.10536 0.73562 0.0
U646 U 0.68377 0.18275 0.68421 0.0
O647 O 0.64527 0.19422 0.67508 0.0
O648 O 0.6701 0.219 0.69623 0.0
C649 C 0.64748 0.21515 0.68747 0.0
C650 C 0.68844 0.14711 0.71764 0.0
C651 C 0.62693 0.22171 0.70446 0.0
C652 C 0.61107 0.22654 0.74648 0.0
C653 C 0.62836 0.21645 0.73004 0.0
C654 C 0.58951 0.24592 0.71195 0.0
C655 C 0.5919 0.24203 0.73773 0.0
C656 C 0.60696 0.23592 0.69548 0.0
C657 C 0.72427 0.20526 0.62879 0.0
C658 C 0.72906 0.24774 0.61376 0.0
C659 C 0.74906 0.21435 0.59178 0.0
C660 C 0.7389 0.19719 0.60884 0.0
C661 C 0.74492 0.23991 0.5946 0.0
C662 C 0.71878 0.23061 0.63063 0.0
C663 C 0.71746 0.18762 0.64893 0.0
O664 O 0.69614 0.17012 0.72108 0.0
O665 O 0.6758 0.1442 0.6968 0.0
O666 O 0.69678 0.17455 0.6461 0.0
O667 O 0.72043 0.19608 0.67167 0.0
H668 H 0.73952 0.14863 0.71418 0.0
H669 H 0.76881 0.11946 0.73307 0.0
H670 H 0.70735 0.0723 0.75595 0.0
H671 H 0.67801 0.10168 0.73722 0.0
H672 H 0.61329 0.22307 0.76625 0.0
H673 H 0.64352 0.2055 0.73744 0.0
H674 H 0.5751 0.25788 0.70467 0.0
H675 H 0.60553 0.24028 0.67581 0.0
H676 H 0.72541 0.26732 0.61627 0.0
H677 H 0.76131 0.2078 0.57733 0.0
H678 H 0.74343 0.17772 0.60711 0.0
H679 H 0.70748 0.2373 0.64579 0.0
C680 C 0.31814 0.20388 0.63067 0.0
C681 C 0.32411 0.2292 0.63326 0.0
C682 C 0.29781 0.23928 0.59754 0.0
C683 C 0.31396 0.24672 0.61691 0.0
C684 C 0.29312 0.21379 0.59403 0.0
C685 C 0.30312 0.19624 0.61057 0.0
U686 U 0.35965 0.18081 0.6847 0.0
O687 O 0.34832 0.1676 0.72167 0.0
O688 O 0.36757 0.14225 0.69658 0.0
C689 C 0.35561 0.14474 0.71772 0.0
C690 C 0.32506 0.18574 0.65019 0.0
C691 C 0.33738 0.12501 0.72447 0.0
C692 C 0.29456 0.11198 0.73253 0.0
C693 C 0.31163 0.12878 0.7219 0.0
C694 C 0.32859 0.08631 0.74667 0.0
C695 C 0.30288 0.09098 0.74575 0.0
C696 C 0.34568 0.10325 0.73622 0.0
C697 C 0.41703 0.21985 0.70533 0.0
C698 C 0.43231 0.22601 0.74759 0.0
C699 C 0.45587 0.24269 0.71286 0.0
C700 C 0.43813 0.23267 0.69632 0.0
C701 C 0.45261 0.24025 0.7387 0.0
C702 C 0.41474 0.21582 0.73108 0.0
C703 C 0.39629 0.21363 0.68809 0.0
O704 O 0.34552 0.17305 0.64671 0.0
O705 O 0.32271 0.19358 0.67316 0.0
O706 O 0.37381 0.21716 0.69688 0.0
O707 O 0.39805 0.193 0.67524 0.0
H708 H 0.33575 0.23554 0.64855 0.0
H709 H 0.31806 0.26624 0.61991 0.0
H710 H 0.28066 0.20755 0.57936 0.0
H711 H 0.29824 0.17679 0.60829 0.0
H712 H 0.27485 0.11598 0.7314 0.0
H713 H 0.30472 0.14533 0.71276 0.0
H714 H 0.33556 0.07043 0.7569 0.0
H715 H 0.36545 0.09999 0.73843 0.0
H716 H 0.4294 0.22376 0.76742 0.0
H717 H 0.47119 0.25373 0.70551 0.0
H718 H 0.44024 0.23605 0.67654 0.0
H719 H 0.39871 0.2059 0.73852 0.0
C720 C 0.32176 0.84682 0.6308 0.0
C721 C 0.32745 0.82146 0.63173 0.0
C722 C 0.30123 0.81363 0.59521 0.0
C723 C 0.31723 0.80505 0.61418 0.0
C724 C 0.29689 0.83926 0.59331 0.0
C725 C 0.30699 0.85569 0.61104 0.0
U726 U 0.3619 0.86633 0.68779 0.0
O727 O 0.37066 0.90409 0.70183 0.0
O728 O 0.3495 0.87761 0.72486 0.0
C729 C 0.35804 0.9005 0.7225 0.0
C730 C 0.32856 0.86356 0.65164 0.0
C731 C 0.34067 0.92023 0.73008 0.0
C732 C 0.29834 0.9346 0.73609 0.0
C733 C 0.31501 0.91807 0.72526 0.0
C734 C 0.33276 0.95683 0.7554 0.0
C735 C 0.30694 0.95374 0.75186 0.0
C736 C 0.34946 0.94012 0.74469 0.0
C737 C 0.41772 0.82582 0.70824 0.0
C738 C 0.43256 0.81845 0.7505 0.0
C739 C 0.45542 0.80192 0.71571 0.0
C740 C 0.43821 0.81266 0.69921 0.0
C741 C 0.45229 0.80398 0.74158 0.0
C742 C 0.4155 0.8293 0.73402 0.0
C743 C 0.39754 0.83318 0.69088 0.0
O744 O 0.32515 0.85424 0.67405 0.0
O745 O 0.34949 0.87639 0.64969 0.0
O746 O 0.40024 0.85448 0.67902 0.0
O747 O 0.37473 0.82934 0.69896 0.0
H748 H 0.33883 0.81414 0.64671 0.0
H749 H 0.32099 0.78539 0.61605 0.0
H750 H 0.2845 0.84637 0.57906 0.0
H751 H 0.3023 0.87519 0.60999 0.0
H752 H 0.27856 0.9319 0.73282 0.0
H753 H 0.30775 0.90298 0.71399 0.0
H754 H 0.33993 0.97129 0.76753 0.0
H755 H 0.36919 0.94211 0.74872 0.0
H756 H 0.42975 0.82053 0.77033 0.0
H757 H 0.47026 0.79076 0.70827 0.0
H758 H 0.44027 0.80969 0.6794 0.0
H759 H 0.39993 0.83945 0.74148 0.0
C760 C 0.62591 0.82584 0.70834 0.0
C761 C 0.62881 0.82908 0.73413 0.0
C762 C 0.59106 0.80452 0.74188 0.0
C763 C 0.61162 0.81843 0.75072 0.0
C764 C 0.58722 0.80283 0.71603 0.0
C765 C 0.60458 0.8133 0.69942 0.0
U766 U 0.68186 0.86666 0.6878 0.0
O767 O 0.71892 0.85527 0.67551 0.0
O768 O 0.69508 0.87618 0.64989 0.0
C769 C 0.71596 0.86395 0.65279 0.0
C770 C 0.64613 0.83282 0.69088 0.0
C771 C 0.72315 0.84687 0.6326 0.0
C772 C 0.72787 0.80481 0.61714 0.0
C773 C 0.7175 0.82137 0.63409 0.0
C774 C 0.74835 0.83906 0.59579 0.0
C775 C 0.74399 0.81337 0.59822 0.0
C776 C 0.73811 0.85565 0.61293 0.0
C777 C 0.70226 0.92175 0.72951 0.0
C778 C 0.74457 0.93741 0.73521 0.0
C779 C 0.71037 0.95822 0.75523 0.0
C780 C 0.69359 0.94113 0.74448 0.0
C781 C 0.73612 0.95601 0.75135 0.0
C782 C 0.72781 0.9205 0.72434 0.0
C783 C 0.68496 0.90155 0.72191 0.0
O784 O 0.64366 0.85371 0.67833 0.0
O785 O 0.66889 0.82955 0.6993 0.0
O786 O 0.69341 0.87894 0.72501 0.0
O787 O 0.67284 0.90445 0.70078 0.0
H788 H 0.64501 0.8388 0.74152 0.0
H789 H 0.615 0.82012 0.77054 0.0
H790 H 0.5717 0.79204 0.70868 0.0
H791 H 0.60197 0.81055 0.67961 0.0
H792 H 0.724 0.78512 0.61935 0.0
H793 H 0.70595 0.81412 0.64902 0.0
H794 H 0.76078 0.84618 0.58153 0.0
H795 H 0.74276 0.87525 0.61146 0.0
H796 H 0.76431 0.93541 0.73172 0.0
H797 H 0.70336 0.97225 0.76767 0.0
H798 H 0.67394 0.94238 0.74876 0.0
H799 H 0.73494 0.90579 0.71279 0.0
C800 C 0.6245 0.81945 0.34584 0.0
C801 C 0.6274 0.8244 0.32033 0.0
C802 C 0.59158 0.79772 0.31074 0.0
C803 C 0.61116 0.81356 0.30296 0.0
C804 C 0.58779 0.79402 0.33636 0.0
C805 C 0.60423 0.80471 0.35376 0.0
U806 U 0.67821 0.86225 0.36819 0.0
O807 O 0.68966 0.87167 0.40668 0.0
O808 O 0.71512 0.85189 0.38212 0.0
C809 C 0.71086 0.85986 0.40476 0.0
C810 C 0.64383 0.8272 0.36397 0.0
C811 C 0.71729 0.84232 0.42503 0.0
C812 C 0.72459 0.79999 0.43919 0.0
C813 C 0.71424 0.81655 0.42194 0.0
C814 C 0.73938 0.83462 0.464 0.0
C815 C 0.738 0.80885 0.45997 0.0
C816 C 0.72922 0.85121 0.44659 0.0
C817 C 0.69915 0.91809 0.32758 0.0
C818 C 0.74154 0.93409 0.32374 0.0
C819 C 0.70787 0.95518 0.3026 0.0
C820 C 0.69085 0.93777 0.3125 0.0
C821 C 0.73349 0.95297 0.30746 0.0
C822 C 0.72454 0.91688 0.33378 0.0
C823 C 0.68179 0.89754 0.33418 0.0
O824 O 0.66692 0.82482 0.35641 0.0
O825 O 0.64015 0.84802 0.37603 0.0
O826 O 0.66876 0.89994 0.35469 0.0
O827 O 0.69072 0.87511 0.33146 0.0
H828 H 0.64283 0.83581 0.31376 0.0
H829 H 0.61436 0.81692 0.28332 0.0
H830 H 0.57295 0.78183 0.34286 0.0
H831 H 0.6017 0.80062 0.37337 0.0
H832 H 0.72316 0.78022 0.43566 0.0
H833 H 0.70496 0.8092 0.40555 0.0
H834 H 0.74979 0.84199 0.47969 0.0
H835 H 0.7318 0.871 0.44934 0.0
H836 H 0.76118 0.93205 0.3279 0.0
H837 H 0.70119 0.96942 0.29 0.0
H838 H 0.67134 0.939 0.30742 0.0
H839 H 0.7314 0.90194 0.34544 0.0
C840 C 0.62533 0.20433 0.32741 0.0
C841 C 0.62826 0.23005 0.33089 0.0
C842 C 0.59087 0.23783 0.30603 0.0
C843 C 0.61125 0.2466 0.32027 0.0
C844 C 0.58705 0.21203 0.30401 0.0
C845 C 0.6042 0.19545 0.31452 0.0
U846 U 0.68163 0.18303 0.36742 0.0
O847 O 0.69351 0.14478 0.37664 0.0
O848 O 0.71785 0.16955 0.35488 0.0
C849 C 0.71422 0.147 0.36377 0.0
C850 C 0.64537 0.18688 0.33439 0.0
C851 C 0.72049 0.12646 0.34671 0.0
C852 C 0.72593 0.11098 0.30462 0.0
C853 C 0.71592 0.12834 0.32101 0.0
C854 C 0.74372 0.08848 0.33939 0.0
C855 C 0.74063 0.0913 0.31354 0.0
C856 C 0.73382 0.10599 0.3558 0.0
C857 C 0.70452 0.22414 0.42246 0.0
C858 C 0.74706 0.2313 0.43688 0.0
C859 C 0.71273 0.24824 0.46007 0.0
C860 C 0.69589 0.23751 0.44303 0.0
C861 C 0.73856 0.24596 0.45669 0.0
C862 C 0.73025 0.22046 0.41999 0.0
C863 C 0.68682 0.21687 0.40243 0.0
O864 O 0.66825 0.19503 0.33067 0.0
O865 O 0.64288 0.17457 0.35547 0.0
O866 O 0.67384 0.1962 0.40558 0.0
O867 O 0.69503 0.21971 0.37957 0.0
H868 H 0.64431 0.2374 0.34084 0.0
H869 H 0.6146 0.26638 0.32229 0.0
H870 H 0.57169 0.2047 0.29302 0.0
H871 H 0.60159 0.1757 0.31154 0.0
H872 H 0.72311 0.11357 0.2848 0.0
H873 H 0.70562 0.14388 0.3135 0.0
H874 H 0.7551 0.07368 0.34681 0.0
H875 H 0.73764 0.10419 0.37555 0.0
H876 H 0.76686 0.22903 0.4339 0.0
H877 H 0.70559 0.25954 0.47499 0.0
H878 H 0.67613 0.24066 0.44528 0.0
H879 H 0.73742 0.21015 0.40437 0.0
C880 C 0.32152 0.12911 0.34986 0.0
C881 C 0.32662 0.13146 0.32434 0.0
C882 C 0.30159 0.09428 0.3156 0.0
C883 C 0.31668 0.11427 0.30739 0.0
C884 C 0.29792 0.09101 0.34131 0.0
C885 C 0.30772 0.10836 0.35827 0.0
U886 U 0.36123 0.18556 0.37129 0.0
O887 O 0.34881 0.22218 0.38348 0.0
O888 O 0.36964 0.19864 0.40947 0.0
C889 C 0.35707 0.21925 0.40636 0.0
C890 C 0.32794 0.14938 0.36739 0.0
C891 C 0.33952 0.22619 0.42627 0.0
C892 C 0.29707 0.23245 0.44041 0.0
C893 C 0.31377 0.22194 0.42365 0.0
C894 C 0.33157 0.25015 0.46378 0.0
C895 C 0.30573 0.2473 0.46024 0.0
C896 C 0.3483 0.23977 0.44685 0.0
C897 C 0.4174 0.20725 0.33114 0.0
C898 C 0.43178 0.24949 0.32251 0.0
C899 C 0.45596 0.21473 0.30827 0.0
C900 C 0.43863 0.19826 0.31913 0.0
C901 C 0.45222 0.24051 0.30905 0.0
C902 C 0.41459 0.23304 0.33351 0.0
C903 C 0.39712 0.18969 0.3382 0.0
O904 O 0.34868 0.14721 0.38031 0.0
O905 O 0.32456 0.172 0.3588 0.0
O906 O 0.37435 0.19767 0.33452 0.0
O907 O 0.39966 0.17736 0.35924 0.0
H908 H 0.3373 0.14721 0.31737 0.0
H909 H 0.31992 0.11719 0.28769 0.0
H910 H 0.28623 0.07593 0.34816 0.0
H911 H 0.30352 0.10621 0.37788 0.0
H912 H 0.27725 0.22977 0.43732 0.0
H913 H 0.3065 0.21144 0.408 0.0
H914 H 0.33881 0.26162 0.47873 0.0
H915 H 0.36809 0.24334 0.4492 0.0
H916 H 0.4285 0.26928 0.32357 0.0
H917 H 0.47136 0.20723 0.29787 0.0
H918 H 0.44115 0.17844 0.31702 0.0
H919 H 0.39846 0.24049 0.3428 0.0
C920 C 0.34464 0.92157 0.32587 0.0
C921 C 0.31931 0.91965 0.33206 0.0
C922 C 0.31019 0.95637 0.30685 0.0
C923 C 0.30227 0.93682 0.32259 0.0
C924 C 0.33578 0.95926 0.30205 0.0
C925 C 0.35284 0.94191 0.3114 0.0
U926 U 0.36671 0.86471 0.36435 0.0
O927 O 0.37833 0.82829 0.35086 0.0
O928 O 0.40513 0.85168 0.37127 0.0
C929 C 0.4015 0.83119 0.35846 0.0
C930 C 0.36203 0.90117 0.33173 0.0
C931 C 0.42094 0.82424 0.34036 0.0
C932 C 0.43346 0.816 0.29773 0.0
C933 C 0.41705 0.82681 0.3146 0.0
C934 C 0.45898 0.80145 0.33194 0.0
C935 C 0.45418 0.8025 0.30621 0.0
C936 C 0.44243 0.81212 0.34885 0.0
C937 C 0.32847 0.84224 0.42155 0.0
C938 C 0.32001 0.79984 0.43548 0.0
C939 C 0.30695 0.83432 0.46078 0.0
C940 C 0.31732 0.85098 0.44338 0.0
C941 C 0.30732 0.80857 0.45653 0.0
C942 C 0.33053 0.81648 0.4182 0.0
C943 C 0.33486 0.86004 0.40131 0.0
O944 O 0.37553 0.9032 0.35213 0.0
O945 O 0.35305 0.87859 0.32837 0.0
O946 O 0.33035 0.85227 0.37856 0.0
O947 O 0.35602 0.87249 0.4033 0.0
H948 H 0.3125 0.90419 0.34324 0.0
H949 H 0.28266 0.9342 0.32669 0.0
H950 H 0.34239 0.97399 0.28985 0.0
H951 H 0.3723 0.94373 0.30633 0.0
H952 H 0.42939 0.81733 0.278 0.0
H953 H 0.40071 0.83618 0.30752 0.0
H954 H 0.47465 0.79105 0.33906 0.0
H955 H 0.44578 0.80984 0.36863 0.0
H956 H 0.32074 0.7801 0.43176 0.0
H957 H 0.29713 0.84165 0.47665 0.0
H958 H 0.31546 0.87076 0.44635 0.0
H959 H 0.33915 0.80921 0.40161 0.0
C960 C 0.70665 0.62745 0.22443 0.0
C961 C 0.73249 0.6317 0.22273 0.0
C962 C 0.74054 0.59355 0.2461 0.0
C963 C 0.74923 0.61498 0.23353 0.0
C964 C 0.71478 0.58842 0.24615 0.0
C965 C 0.69801 0.60529 0.23553 0.0
U966 U 0.68396 0.68267 0.18411 0.0
O967 O 0.64546 0.69413 0.17498 0.0
O968 O 0.67028 0.71892 0.19614 0.0
C969 C 0.64766 0.71507 0.18737 0.0
C970 C 0.68863 0.64704 0.21755 0.0
C971 C 0.6271 0.72161 0.20437 0.0
C972 C 0.61123 0.72641 0.24639 0.0
C973 C 0.62853 0.71634 0.22994 0.0
C974 C 0.58969 0.74581 0.21186 0.0
C975 C 0.59207 0.74191 0.23765 0.0
C976 C 0.60714 0.73583 0.19539 0.0
C977 C 0.72445 0.70521 0.1287 0.0
C978 C 0.7292 0.7477 0.11368 0.0
C979 C 0.74923 0.71433 0.0917 0.0
C980 C 0.73909 0.69716 0.10875 0.0
C981 C 0.74507 0.73988 0.09451 0.0
C982 C 0.71893 0.73055 0.13055 0.0
C983 C 0.71765 0.68756 0.14884 0.0
O984 O 0.69634 0.67005 0.22099 0.0
O985 O 0.676 0.64412 0.19671 0.0
O986 O 0.69697 0.67448 0.146 0.0
O987 O 0.72062 0.69601 0.17158 0.0
H988 H 0.73972 0.64855 0.21414 0.0
H989 H 0.76898 0.61938 0.23306 0.0
H990 H 0.70749 0.57222 0.25587 0.0
H991 H 0.67818 0.60161 0.2371 0.0
H992 H 0.61344 0.72292 0.26615 0.0
H993 H 0.64368 0.70537 0.23734 0.0
H994 H 0.57528 0.75779 0.20459 0.0
H995 H 0.60572 0.74021 0.17573 0.0
H996 H 0.72553 0.76727 0.11619 0.0
H997 H 0.76149 0.70779 0.07724 0.0
H998 H 0.74363 0.67769 0.10701 0.0
H999 H 0.70762 0.73723 0.1457 0.0
C1000 C 0.31828 0.70376 0.13062 0.0
C1001 C 0.32426 0.72909 0.13322 0.0
C1002 C 0.29795 0.73919 0.09752 0.0
C1003 C 0.31411 0.74662 0.11689 0.0
C1004 C 0.29325 0.7137 0.09399 0.0
C1005 C 0.30325 0.69614 0.11052 0.0
U1006 U 0.35979 0.68066 0.18463 0.0
O1007 O 0.34846 0.66745 0.2216 0.0
O1008 O 0.36769 0.64209 0.19651 0.0
C1009 C 0.35574 0.64459 0.21765 0.0
C1010 C 0.3252 0.68562 0.15013 0.0
C1011 C 0.3375 0.62486 0.2244 0.0
C1012 C 0.29468 0.61185 0.23247 0.0
C1013 C 0.31175 0.62864 0.22183 0.0
C1014 C 0.32869 0.58617 0.24661 0.0
C1015 C 0.30299 0.59086 0.2457 0.0
C1016 C 0.34579 0.60311 0.23615 0.0
C1017 C 0.41719 0.71967 0.20526 0.0
C1018 C 0.43247 0.72583 0.24752 0.0
C1019 C 0.45604 0.74249 0.21279 0.0
C1020 C 0.4383 0.73248 0.19625 0.0
C1021 C 0.45278 0.74005 0.23863 0.0
C1022 C 0.4149 0.71564 0.23101 0.0
C1023 C 0.39645 0.71346 0.18802 0.0
O1024 O 0.34565 0.67292 0.14664 0.0
O1025 O 0.32286 0.69345 0.17311 0.0
O1026 O 0.37397 0.717 0.19681 0.0
O1027 O 0.39819 0.69283 0.17516 0.0
H1028 H 0.3359 0.73541 0.14851 0.0
H1029 H 0.31822 0.76614 0.11989 0.0
H1030 H 0.28079 0.70747 0.07932 0.0
H1031 H 0.29837 0.67669 0.10822 0.0
H1032 H 0.27497 0.61587 0.23135 0.0
H1033 H 0.30486 0.6452 0.21269 0.0
H1034 H 0.33566 0.5703 0.25685 0.0
H1035 H 0.36556 0.59984 0.23837 0.0
H1036 H 0.42955 0.72359 0.26736 0.0
H1037 H 0.47137 0.75353 0.20544 0.0
H1038 H 0.44041 0.73585 0.17647 0.0
H1039 H 0.39887 0.70573 0.23845 0.0
C1040 C 0.32177 0.34673 0.1309 0.0
C1041 C 0.32744 0.32135 0.13182 0.0
C1042 C 0.3012 0.31355 0.09531 0.0
C1043 C 0.31721 0.30496 0.11427 0.0
C1044 C 0.29688 0.33919 0.09342 0.0
C1045 C 0.307 0.35561 0.11115 0.0
U1046 U 0.36196 0.36619 0.18787 0.0
O1047 O 0.37076 0.40394 0.20192 0.0
O1048 O 0.34958 0.37748 0.22494 0.0
C1049 C 0.35813 0.40036 0.22258 0.0
C1050 C 0.3286 0.36345 0.15174 0.0
C1051 C 0.34078 0.4201 0.23016 0.0
C1052 C 0.29845 0.4345 0.23611 0.0
C1053 C 0.31512 0.41797 0.2253 0.0
C1054 C 0.33285 0.4567 0.25548 0.0
C1055 C 0.30704 0.45363 0.2519 0.0
C1056 C 0.34956 0.43998 0.24479 0.0
C1057 C 0.41774 0.32563 0.20829 0.0
C1058 C 0.43261 0.3183 0.25054 0.0
C1059 C 0.45541 0.30168 0.21577 0.0
C1060 C 0.43821 0.31242 0.19927 0.0
C1061 C 0.45231 0.30378 0.24164 0.0
C1062 C 0.41555 0.32915 0.23407 0.0
C1063 C 0.39756 0.33301 0.19094 0.0
O1064 O 0.32519 0.35414 0.17415 0.0
O1065 O 0.34954 0.37626 0.14978 0.0
O1066 O 0.40028 0.35431 0.17908 0.0
O1067 O 0.37476 0.32919 0.19903 0.0
H1068 H 0.33883 0.31403 0.14679 0.0
H1069 H 0.32096 0.2853 0.11613 0.0
H1070 H 0.28448 0.34631 0.07918 0.0
H1071 H 0.30232 0.37511 0.11011 0.0
H1072 H 0.27867 0.43182 0.23281 0.0
H1073 H 0.30786 0.40288 0.21401 0.0
H1074 H 0.34002 0.47114 0.26762 0.0
H1075 H 0.36928 0.44194 0.24885 0.0
H1076 H 0.42983 0.32042 0.27038 0.0
H1077 H 0.47022 0.29048 0.20833 0.0
H1078 H 0.44024 0.30941 0.17946 0.0
H1079 H 0.40002 0.33934 0.24152 0.0
C1080 C 0.6259 0.32578 0.20851 0.0
C1081 C 0.62885 0.32895 0.23431 0.0
C1082 C 0.59107 0.30444 0.24205 0.0
C1083 C 0.61167 0.3183 0.25089 0.0
C1084 C 0.58719 0.30282 0.21621 0.0
C1085 C 0.60454 0.3133 0.19959 0.0
U1086 U 0.68184 0.3666 0.18791 0.0
O1087 O 0.71888 0.35521 0.17557 0.0
O1088 O 0.69501 0.37613 0.14998 0.0
C1089 C 0.7159 0.3639 0.15286 0.0
C1090 C 0.64611 0.33276 0.19103 0.0
C1091 C 0.72307 0.34682 0.13266 0.0
C1092 C 0.72778 0.30478 0.11717 0.0
C1093 C 0.71742 0.32133 0.13414 0.0
C1094 C 0.74825 0.33904 0.09583 0.0
C1095 C 0.74389 0.31334 0.09825 0.0
C1096 C 0.73802 0.35562 0.11299 0.0
C1097 C 0.70228 0.42169 0.2296 0.0
C1098 C 0.7446 0.43734 0.23528 0.0
C1099 C 0.71042 0.45816 0.25531 0.0
C1100 C 0.69363 0.44107 0.24457 0.0
C1101 C 0.73617 0.45594 0.25142 0.0
C1102 C 0.72783 0.42043 0.22442 0.0
C1103 C 0.68497 0.40149 0.22202 0.0
O1104 O 0.64363 0.35365 0.17848 0.0
O1105 O 0.66888 0.32949 0.19943 0.0
O1106 O 0.69343 0.37887 0.22511 0.0
O1107 O 0.67283 0.40439 0.2009 0.0
H1108 H 0.64508 0.33863 0.24169 0.0
H1109 H 0.61509 0.31993 0.27071 0.0
H1110 H 0.57164 0.29208 0.20885 0.0
H1111 H 0.60189 0.3106 0.17978 0.0
H1112 H 0.72391 0.28508 0.11937 0.0
H1113 H 0.70588 0.31407 0.14906 0.0
H1114 H 0.76068 0.34616 0.08157 0.0
H1115 H 0.74267 0.37522 0.11153 0.0
H1116 H 0.76433 0.43533 0.23178 0.0
H1117 H 0.70342 0.47219 0.26775 0.0
H1118 H 0.67398 0.44232 0.24886 0.0
H1119 H 0.73495 0.40571 0.21286 0.0
C1120 C 0.6244 0.31963 0.84585 0.0
C1121 C 0.6273 0.32456 0.82034 0.0
C1122 C 0.59145 0.29792 0.81077 0.0
C1123 C 0.61104 0.31373 0.80297 0.0
C1124 C 0.58765 0.29424 0.83639 0.0
C1125 C 0.6041 0.30492 0.85379 0.0
U1126 U 0.67815 0.36238 0.8682 0.0
O1127 O 0.68961 0.37178 0.9067 0.0
O1128 O 0.71505 0.35197 0.88213 0.0
C1129 C 0.71081 0.35995 0.90478 0.0
C1130 C 0.64373 0.32737 0.86398 0.0
C1131 C 0.71723 0.34239 0.92504 0.0
C1132 C 0.72451 0.30006 0.93919 0.0
C1133 C 0.71416 0.31663 0.92195 0.0
C1134 C 0.7393 0.33468 0.96402 0.0
C1135 C 0.73792 0.30892 0.95998 0.0
C1136 C 0.72915 0.35128 0.94661 0.0
C1137 C 0.69913 0.41822 0.82761 0.0
C1138 C 0.74153 0.43419 0.82375 0.0
C1139 C 0.70787 0.45531 0.80265 0.0
C1140 C 0.69084 0.43791 0.81254 0.0
C1141 C 0.73349 0.45309 0.80748 0.0
C1142 C 0.72453 0.41699 0.83379 0.0
C1143 C 0.68176 0.39768 0.83421 0.0
O1144 O 0.66682 0.32497 0.85642 0.0
O1145 O 0.64008 0.34819 0.87605 0.0
O1146 O 0.66873 0.40008 0.85472 0.0
O1147 O 0.69067 0.37524 0.83148 0.0
H1148 H 0.64274 0.33594 0.81376 0.0
H1149 H 0.61425 0.31707 0.78334 0.0
H1150 H 0.5728 0.28207 0.8429 0.0
H1151 H 0.60157 0.30085 0.8734 0.0
H1152 H 0.72308 0.2803 0.93565 0.0
H1153 H 0.7049 0.30929 0.90555 0.0
H1154 H 0.74971 0.34204 0.97972 0.0
H1155 H 0.73173 0.37107 0.94936 0.0
H1156 H 0.76118 0.43213 0.82789 0.0
H1157 H 0.70119 0.46957 0.79006 0.0
H1158 H 0.67133 0.43917 0.80749 0.0
H1159 H 0.73139 0.40204 0.84543 0.0
C1160 C 0.62533 0.70454 0.82736 0.0
C1161 C 0.62829 0.73026 0.8308 0.0
C1162 C 0.59086 0.73804 0.80598 0.0
C1163 C 0.61127 0.74681 0.82017 0.0
C1164 C 0.58701 0.71224 0.80402 0.0
C1165 C 0.60417 0.69566 0.81452 0.0
U1166 U 0.68163 0.6832 0.86735 0.0
O1167 O 0.6935 0.64494 0.87656 0.0
O1168 O 0.71785 0.6697 0.85479 0.0
C1169 C 0.7142 0.64716 0.86369 0.0
C1170 C 0.64537 0.68708 0.83434 0.0
C1171 C 0.72047 0.62661 0.84664 0.0
C1172 C 0.72595 0.61112 0.80456 0.0
C1173 C 0.71593 0.62848 0.82094 0.0
C1174 C 0.74369 0.58861 0.83935 0.0
C1175 C 0.74062 0.59142 0.81349 0.0
C1176 C 0.73378 0.60612 0.85575 0.0
C1177 C 0.70457 0.72428 0.92239 0.0
C1178 C 0.74712 0.73142 0.9368 0.0
C1179 C 0.7128 0.74836 0.96001 0.0
C1180 C 0.69595 0.73765 0.94297 0.0
C1181 C 0.73863 0.74607 0.95662 0.0
C1182 C 0.73029 0.7206 0.91991 0.0
C1183 C 0.68685 0.71703 0.90236 0.0
O1184 O 0.66825 0.69522 0.83061 0.0
O1185 O 0.64288 0.67476 0.85541 0.0
O1186 O 0.67387 0.69637 0.90551 0.0
O1187 O 0.69506 0.71988 0.8795 0.0
H1188 H 0.64437 0.73761 0.8407 0.0
H1189 H 0.61466 0.76659 0.82215 0.0
H1190 H 0.57163 0.7049 0.79306 0.0
H1191 H 0.60153 0.6759 0.81158 0.0
H1192 H 0.72315 0.61371 0.78473 0.0
H1193 H 0.70565 0.64403 0.81341 0.0
H1194 H 0.75505 0.5738 0.84679 0.0
H1195 H 0.73758 0.60433 0.8755 0.0
H1196 H 0.76691 0.72914 0.93381 0.0
H1197 H 0.70567 0.75965 0.97494 0.0
H1198 H 0.67619 0.7408 0.94523 0.0
H1199 H 0.73745 0.71029 0.90428 0.0
C1200 C 0.32152 0.62919 0.84979 0.0
C1201 C 0.3266 0.63154 0.82426 0.0
C1202 C 0.30155 0.59437 0.81554 0.0
C1203 C 0.31664 0.61436 0.80733 0.0
C1204 C 0.29789 0.59111 0.84125 0.0
C1205 C 0.30771 0.60846 0.85821 0.0
U1206 U 0.36126 0.68564 0.87118 0.0
O1207 O 0.34886 0.72225 0.8834 0.0
O1208 O 0.36971 0.6987 0.90936 0.0
C1209 C 0.35714 0.71931 0.90627 0.0
C1210 C 0.32795 0.64946 0.86731 0.0
C1211 C 0.33961 0.72624 0.9262 0.0
C1212 C 0.29717 0.73246 0.94038 0.0
C1213 C 0.31386 0.72197 0.9236 0.0
C1214 C 0.33169 0.75018 0.96372 0.0
C1215 C 0.30584 0.74732 0.96021 0.0
C1216 C 0.3484 0.73981 0.94678 0.0
C1217 C 0.41739 0.70732 0.83098 0.0
C1218 C 0.43179 0.74956 0.82239 0.0
C1219 C 0.45591 0.7148 0.80805 0.0
C1220 C 0.43859 0.69832 0.81891 0.0
C1221 C 0.4522 0.74059 0.80887 0.0
C1222 C 0.4146 0.73311 0.83339 0.0
C1223 C 0.39711 0.68976 0.83805 0.0
O1224 O 0.34871 0.64729 0.88021 0.0
O1225 O 0.32457 0.67209 0.85874 0.0
O1226 O 0.37434 0.69775 0.8344 0.0
O1227 O 0.39968 0.67742 0.85909 0.0
H1228 H 0.33729 0.64729 0.81729 0.0
H1229 H 0.31987 0.61727 0.78762 0.0
H1230 H 0.2862 0.57604 0.84811 0.0
H1231 H 0.30352 0.60631 0.87782 0.0
H1232 H 0.27735 0.72977 0.93731 0.0
H1233 H 0.30658 0.71148 0.90796 0.0
H1234 H 0.33892 0.76165 0.97867 0.0
H1235 H 0.36819 0.7434 0.94911 0.0
H1236 H 0.42852 0.76934 0.82348 0.0
H1237 H 0.47129 0.70731 0.79761 0.0
H1238 H 0.4411 0.67851 0.81677 0.0
H1239 H 0.39849 0.74055 0.84271 0.0
C1240 C 0.34448 0.42166 0.82595 0.0
C1241 C 0.31913 0.41973 0.83211 0.0
C1242 C 0.31005 0.45646 0.80689 0.0
C1243 C 0.30211 0.4369 0.82262 0.0
C1244 C 0.33564 0.45935 0.80213 0.0
C1245 C 0.35269 0.44201 0.8115 0.0
U1246 U 0.36653 0.36481 0.86446 0.0
O1247 O 0.37817 0.32839 0.85098 0.0
O1248 O 0.40496 0.3518 0.87139 0.0
C1249 C 0.40134 0.3313 0.85858 0.0
C1250 C 0.36186 0.40126 0.83183 0.0
C1251 C 0.42078 0.32436 0.84049 0.0
C1252 C 0.43332 0.31616 0.79785 0.0
C1253 C 0.41691 0.32697 0.81473 0.0
C1254 C 0.45882 0.30156 0.83206 0.0
C1255 C 0.45403 0.30264 0.80633 0.0
C1256 C 0.44226 0.31222 0.84897 0.0
C1257 C 0.3283 0.34232 0.92165 0.0
C1258 C 0.31988 0.2999 0.93557 0.0
C1259 C 0.30679 0.33437 0.96088 0.0
C1260 C 0.31716 0.35104 0.94349 0.0
C1261 C 0.30719 0.30862 0.95663 0.0
C1262 C 0.33039 0.31656 0.9183 0.0
C1263 C 0.33468 0.36012 0.90142 0.0
O1264 O 0.37535 0.4033 0.85224 0.0
O1265 O 0.35288 0.37869 0.82848 0.0
O1266 O 0.33018 0.35236 0.87867 0.0
O1267 O 0.35584 0.37259 0.90341 0.0
H1268 H 0.31231 0.40428 0.84328 0.0
H1269 H 0.28249 0.43428 0.82669 0.0
H1270 H 0.34227 0.47408 0.78993 0.0
H1271 H 0.37216 0.44383 0.80646 0.0
H1272 H 0.42926 0.31751 0.77811 0.0
H1273 H 0.40057 0.33634 0.80765 0.0
H1274 H 0.47448 0.29115 0.83917 0.0
H1275 H 0.44561 0.30992 0.86875 0.0
H1276 H 0.32063 0.28017 0.93184 0.0
H1277 H 0.29697 0.34168 0.97676 0.0
H1278 H 0.31528 0.37083 0.94646 0.0
H1279 H 0.33901 0.3093 0.9017 0.0
H1280 H 0.27419 0.2758 0.93865 0.0
H1281 H 0.30449 0.30318 1.00701 0.0
H1282 H 0.24107 0.25212 1.00697 0.0
H1283 H 0.25083 0.24313 0.04445 0.0
H1284 H 0.27289 0.27672 0.11299 0.0
H1285 H 0.29543 0.31123 0.0448 0.0
C1286 C 0.27431 0.27575 0.95884 0.0
C1287 C 0.25662 0.2613 0.97157 0.0
C1288 C 0.29101 0.2914 0.97153 0.0
C1289 C 0.29069 0.29171 0.99778 0.0
C1290 C 0.27313 0.27721 1.01158 0.0
C1291 C 0.25566 0.2626 0.99776 0.0
C1292 C 0.27299 0.27728 0.04001 0.0
C1293 C 0.26027 0.25832 0.05373 0.0
C1294 C 0.25941 0.25865 0.07992 0.0
C1295 C 0.2729 0.2769 0.09279 0.0
C1296 C 0.28653 0.29531 0.08019 0.0
C1297 C 0.28577 0.29604 0.05394 0.0
H1298 H 0.77099 0.27607 0.11613 0.0
H1299 H 0.79229 0.24305 0.04752 0.0
H1300 H 0.7501 0.31147 0.04792 0.0
H1301 H 0.74029 0.30306 1.01019 0.0
H1302 H 0.77039 0.27664 0.94196 0.0
H1303 H 0.80323 0.25306 1.01051 0.0
C1304 C 0.77108 0.27647 0.09593 0.0
C1305 C 0.75816 0.29513 0.08331 0.0
C1306 C 0.78403 0.25825 0.08305 0.0
C1307 C 0.78332 0.25821 0.05687 0.0
C1308 C 0.77137 0.2774 0.04321 0.0
C1309 C 0.75915 0.29612 0.05709 0.0
C1310 C 0.77138 0.27757 1.01486 0.0
C1311 C 0.75403 0.29189 1.00102 0.0
C1312 C 0.75379 0.29177 0.97481 0.0
C1313 C 0.77029 0.27646 0.96215 0.0
C1314 C 0.78781 0.2622 0.97499 0.0
C1315 C 0.78876 0.26334 1.00118 0.0
H1316 H 0.7743 0.77584 0.93855 0.0
H1317 H 0.74117 0.75215 1.00686 0.0
H1318 H 0.8046 0.8032 1.00692 0.0
H1319 H 0.79551 0.81126 0.04471 0.0
H1320 H 0.77297 0.77673 0.11289 0.0
H1321 H 0.75093 0.74315 0.04434 0.0
C1322 C 0.77441 0.77579 0.95874 0.0
C1323 C 0.79112 0.79143 0.97143 0.0
C1324 C 0.75672 0.76133 0.97147 0.0
C1325 C 0.75576 0.76263 0.99766 0.0
C1326 C 0.77323 0.77724 1.01148 0.0
C1327 C 0.79079 0.79174 0.99768 0.0
C1328 C 0.77309 0.7773 0.03991 0.0
C1329 C 0.78586 0.79607 0.05384 0.0
C1330 C 0.78661 0.79533 0.08009 0.0
C1331 C 0.77299 0.77692 0.09268 0.0
C1332 C 0.7595 0.75866 0.07982 0.0
C1333 C 0.76037 0.75834 0.05362 0.0
H1334 H 0.27111 0.77605 0.11607 0.0
H1335 H 0.29241 0.74305 0.04745 0.0
H1336 H 0.2502 0.81146 0.04787 0.0
H1337 H 0.24041 0.80307 1.01014 0.0
H1338 H 0.27049 0.77666 0.9419 0.0
H1339 H 0.30333 0.75305 1.01044 0.0
C1340 C 0.2712 0.77646 0.09587 0.0
C1341 C 0.25827 0.79511 0.08325 0.0
C1342 C 0.28415 0.75824 0.08298 0.0
C1343 C 0.28344 0.7582 0.0568 0.0
C1344 C 0.27148 0.7774 0.04315 0.0
C1345 C 0.25926 0.79611 0.05704 0.0
C1346 C 0.27149 0.77757 1.0148 0.0
C1347 C 0.25413 0.7919 1.00096 0.0
C1348 C 0.25389 0.79179 0.97475 0.0
C1349 C 0.27039 0.77647 0.96209 0.0
C1350 C 0.28791 0.7622 0.97492 0.0
C1351 C 0.28886 0.76334 1.00111 0.0
H1352 H 0.10988 0.26982 0.27457 0.0
H1353 H 0.04161 0.24762 0.23968 0.0
H1354 H 0.04164 0.29255 0.30683 0.0
H1355 H 1.00397 0.2997 0.30083 0.0
H1356 H 0.93515 0.27126 0.27244 0.0
H1357 H 1.00287 0.24225 0.24408 0.0
C1358 C 0.08967 0.26987 0.27415 0.0
C1359 C 0.07686 0.2834 0.292 0.0
C1360 C 0.07695 0.25638 0.2558 0.0
C1361 C 0.05069 0.25732 0.25477 0.0
C1362 C 0.03678 0.27029 0.27307 0.0
C1363 C 0.05065 0.28284 0.29196 0.0
C1364 C 1.00827 0.27074 0.27265 0.0
C1365 C 0.99469 0.28674 0.28858 0.0
C1366 C 0.96844 0.28688 0.28868 0.0
C1367 C 0.95536 0.27121 0.27246 0.0
C1368 C 0.96781 0.25544 0.25625 0.0
C1369 C 0.99406 0.25516 0.25643 0.0
H1370 H 0.77015 0.93518 0.27987 0.0
H1371 H 0.80482 1.00366 0.25812 0.0
H1372 H 0.73681 1.0032 0.30187 0.0
H1373 H 0.7459 0.04092 0.31145 0.0
H1374 H 0.77042 0.10914 0.27809 0.0
H1375 H 0.79641 0.04091 0.24841 0.0
C1376 C 0.77037 0.95534 0.27991 0.0
C1377 C 0.7522 0.96793 0.29326 0.0
C1378 C 0.78879 0.9682 0.26656 0.0
C1379 C 0.78957 0.99437 0.26749 0.0
C1380 C 0.77083 1.008 0.28001 0.0
C1381 C 0.7519 0.99409 0.29252 0.0
C1382 C 0.77081 0.03634 0.27971 0.0
C1383 C 0.75643 0.05014 0.29694 0.0
C1384 C 0.75548 0.07631 0.29575 0.0
C1385 C 0.77004 0.08898 0.27813 0.0
C1386 C 0.78537 0.07623 0.26172 0.0
C1387 C 0.78525 0.05009 0.26216 0.0
H1388 H 0.10909 0.77249 0.27524 0.0
H1389 H 0.04072 0.74099 0.30123 0.0
H1390 H 0.04106 0.80139 0.24693 0.0
H1391 H 1.00239 0.79824 0.24396 0.0
H1392 H 0.93426 0.77372 0.27683 0.0
H1393 H 1.00232 0.74484 0.30515 0.0
C1394 C 0.08888 0.77259 0.27545 0.0
C1395 C 0.0762 0.78863 0.25942 0.0
C1396 C 0.07606 0.75557 0.29056 0.0
C1397 C 0.04978 0.75481 0.28973 0.0
C1398 C 0.03592 0.77156 0.2745 0.0
C1399 C 0.04995 0.78824 0.25915 0.0
C1400 C 1.00733 0.77182 0.27479 0.0
C1401 C 0.99342 0.78706 0.25807 0.0
C1402 C 0.96721 0.78834 0.25925 0.0
C1403 C 0.95447 0.77364 0.27667 0.0
C1404 C 0.96715 0.75765 0.29276 0.0
C1405 C 0.99337 0.75698 0.29196 0.0
H1406 H 0.27232 0.112 0.27977 0.0
H1407 H 0.24699 0.04349 0.24829 0.0
H1408 H 0.29663 0.04391 0.31246 0.0
H1409 H 0.3067 1.0068 0.3019 0.0
H1410 H 0.27332 0.9381 0.27898 0.0
H1411 H 0.23835 1.0059 0.25807 0.0
C1412 C 0.27273 0.09186 0.27945 0.0
C1413 C 0.28705 0.07928 0.29719 0.0
C1414 C 0.25768 0.07899 0.26241 0.0
C1415 C 0.2579 0.05281 0.26243 0.0
C1416 C 0.27224 0.0392 0.28009 0.0
C1417 C 0.28626 0.05309 0.29787 0.0
C1418 C 0.27247 1.01087 0.28003 0.0
C1419 C 0.29157 0.99734 0.29242 0.0
C1420 C 0.29135 0.97113 0.29287 0.0
C1421 C 0.27308 0.95825 0.27931 0.0
C1422 C 0.25454 0.97079 0.26612 0.0
C1423 C 0.25369 0.99689 0.26733 0.0
H1424 H 0.10996 0.76995 0.77458 0.0
H1425 H 0.04169 0.74785 0.73961 0.0
H1426 H 0.04171 0.79262 0.80687 0.0
H1427 H 1.00407 0.79992 0.80076 0.0
H1428 H 0.93523 0.77143 0.77242 0.0
H1429 H 1.00296 0.74236 0.74413 0.0
C1430 C 0.08974 0.77 0.77415 0.0
C1431 C 0.07694 0.7835 0.79203 0.0
C1432 C 0.07703 0.75655 0.75577 0.0
C1433 C 0.05077 0.75751 0.75473 0.0
C1434 C 0.03686 0.77044 0.77306 0.0
C1435 C 0.05073 0.78294 0.79198 0.0
C1436 C 1.00835 0.7709 0.77263 0.0
C1437 C 0.99478 0.78694 0.78854 0.0
C1438 C 0.96853 0.78707 0.78864 0.0
C1439 C 0.95545 0.77138 0.77244 0.0
C1440 C 0.9679 0.75558 0.75625 0.0
C1441 C 0.99415 0.75529 0.75644 0.0
H1442 H 0.2701 0.93533 0.77984 0.0
H1443 H 0.30476 1.00381 0.75808 0.0
H1444 H 0.23678 1.00335 0.80187 0.0
H1445 H 0.24586 0.04107 0.81143 0.0
H1446 H 0.27039 0.10929 0.77809 0.0
H1447 H 0.29638 0.04107 0.7484 0.0
C1448 C 0.27033 0.95549 0.77988 0.0
C1449 C 0.25216 0.96808 0.79325 0.0
C1450 C 0.28873 0.96836 0.76653 0.0
C1451 C 0.28952 0.99452 0.76745 0.0
C1452 C 0.27079 1.00815 0.77999 0.0
C1453 C 0.25187 0.99424 0.79251 0.0
C1454 C 0.27077 0.03649 0.7797 0.0
C1455 C 0.25639 0.05029 0.79692 0.0
C1456 C 0.25544 0.07647 0.79574 0.0
C1457 C 0.27 0.08913 0.77813 0.0
C1458 C 0.28534 0.07638 0.76171 0.0
C1459 C 0.28522 0.05024 0.76215 0.0
H1460 H 0.10903 0.27257 0.77525 0.0
H1461 H 0.04066 0.24108 0.80126 0.0
H1462 H 0.041 0.30146 0.74693 0.0
H1463 H 1.00233 0.29832 0.74397 0.0
H1464 H 0.93419 0.2738 0.77684 0.0
H1465 H 1.00225 0.24491 0.80515 0.0
C1466 C 0.08882 0.27267 0.77546 0.0
C1467 C 0.07614 0.2887 0.75943 0.0
C1468 C 0.076 0.25566 0.79058 0.0
C1469 C 0.04972 0.2549 0.78975 0.0
C1470 C 0.03585 0.27164 0.77452 0.0
C1471 C 0.04988 0.28832 0.75916 0.0
C1472 C 1.00727 0.2719 0.7748 0.0
C1473 C 0.99336 0.28714 0.75808 0.0
C1474 C 0.96715 0.28841 0.75926 0.0
C1475 C 0.9544 0.27372 0.77667 0.0
C1476 C 0.96708 0.25772 0.79276 0.0
C1477 C 0.99331 0.25705 0.79196 0.0
H1478 H 0.77223 0.11212 0.77977 0.0
H1479 H 0.74688 0.04361 0.74829 0.0
H1480 H 0.79655 0.04404 0.81245 0.0
H1481 H 0.8066 1.00692 0.80191 0.0
H1482 H 0.77325 0.93822 0.77898 0.0
H1483 H 0.73827 1.00601 0.75805 0.0
C1484 C 0.77264 0.09198 0.77945 0.0
C1485 C 0.78697 0.0794 0.79718 0.0
C1486 C 0.75759 0.07911 0.76241 0.0
C1487 C 0.75781 0.05293 0.76243 0.0
C1488 C 0.77215 0.03932 0.78009 0.0
C1489 C 0.78618 0.05321 0.79787 0.0
C1490 C 0.77238 1.01099 0.78002 0.0
C1491 C 0.79148 0.99747 0.79243 0.0
C1492 C 0.79126 0.97126 0.79287 0.0
C1493 C 0.773 0.95837 0.7793 0.0
C1494 C 0.75447 0.97091 0.76611 0.0
C1495 C 0.75361 0.99701 0.76732 0.0
H1496 H 0.27432 0.77575 0.43856 0.0
H1497 H 0.24115 0.75213 0.50688 0.0
H1498 H 0.3046 0.80317 0.50692 0.0
H1499 H 0.29549 0.81127 0.5447 0.0
H1500 H 0.27291 0.7768 0.61289 0.0
H1501 H 0.2509 0.74316 0.54437 0.0
C1502 C 0.27443 0.77572 0.45875 0.0
C1503 C 0.29113 0.79136 0.47143 0.0
C1504 C 0.25672 0.76128 0.47149 0.0
C1505 C 0.25575 0.7626 0.49767 0.0
C1506 C 0.27322 0.77721 0.51149 0.0
C1507 C 0.29079 0.7917 0.49768 0.0
C1508 C 0.27307 0.77731 0.53992 0.0
C1509 C 0.28583 0.79608 0.55384 0.0
C1510 C 0.28658 0.79537 0.58009 0.0
C1511 C 0.27294 0.77697 0.59269 0.0
C1512 C 0.25945 0.75871 0.57984 0.0
C1513 C 0.26034 0.75835 0.55364 0.0
H1514 H 0.7711 0.77611 0.61613 0.0
H1515 H 0.79239 0.74305 0.54754 0.0
H1516 H 0.7502 0.81147 0.54789 0.0
H1517 H 0.74039 0.80302 0.51018 0.0
H1518 H 0.77048 0.77657 0.44196 0.0
H1519 H 0.80333 0.75303 0.51052 0.0
C1520 C 0.77119 0.7765 0.59593 0.0
C1521 C 0.75826 0.79515 0.58329 0.0
C1522 C 0.78413 0.75827 0.58306 0.0
C1523 C 0.78342 0.75821 0.55688 0.0
C1524 C 0.77147 0.7774 0.54321 0.0
C1525 C 0.75926 0.79612 0.55708 0.0
C1526 C 0.77148 0.77754 0.51486 0.0
C1527 C 0.75412 0.79185 0.50101 0.0
C1528 C 0.75388 0.79172 0.4748 0.0
C1529 C 0.77038 0.7764 0.46216 0.0
C1530 C 0.7879 0.76215 0.475 0.0
C1531 C 0.78886 0.76331 0.50119 0.0
H1532 H 0.77423 0.27573 0.43861 0.0
H1533 H 0.74107 0.25208 0.50693 0.0
H1534 H 0.80449 0.30316 0.50697 0.0
H1535 H 0.79542 0.31122 0.54475 0.0
H1536 H 0.77283 0.27676 0.61295 0.0
H1537 H 0.7508 0.24314 0.54443 0.0
C1538 C 0.77434 0.27569 0.4588 0.0
C1539 C 0.79103 0.29135 0.47149 0.0
C1540 C 0.75664 0.26124 0.47154 0.0
C1541 C 0.75567 0.26256 0.49772 0.0
C1542 C 0.77313 0.27718 0.51154 0.0
C1543 C 0.79069 0.29168 0.49774 0.0
C1544 C 0.77298 0.27728 0.53997 0.0
C1545 C 0.78575 0.29604 0.55389 0.0
C1546 C 0.7865 0.29533 0.58014 0.0
C1547 C 0.77286 0.27693 0.59275 0.0
C1548 C 0.75936 0.25868 0.57989 0.0
C1549 C 0.76024 0.25833 0.5537 0.0
H1550 H 0.27096 0.27615 0.61606 0.0
H1551 H 0.25007 0.31152 0.54783 0.0
H1552 H 0.29228 0.24311 0.54748 0.0
H1553 H 0.30321 0.25307 0.51046 0.0
H1554 H 0.27039 0.27664 0.44189 0.0
H1555 H 0.24029 0.3031 0.51011 0.0
C1556 C 0.27106 0.27654 0.59587 0.0
C1557 C 0.28401 0.25832 0.58299 0.0
C1558 C 0.25813 0.29519 0.58323 0.0
C1559 C 0.25913 0.29617 0.55702 0.0
C1560 C 0.27135 0.27745 0.54315 0.0
C1561 C 0.28331 0.25826 0.55681 0.0
C1562 C 0.27137 0.2776 0.5148 0.0
C1563 C 0.28874 0.26336 0.50112 0.0
C1564 C 0.2878 0.2622 0.47493 0.0
C1565 C 0.27028 0.27647 0.46209 0.0
C1566 C 0.25378 0.29179 0.47473 0.0
C1567 C 0.25402 0.29192 0.50094 0.0
H1568 H 0.77013 0.43528 0.77988 0.0
H1569 H 0.73683 0.50331 0.80189 0.0
H1570 H 0.80482 0.50375 0.75812 0.0
H1571 H 0.79647 0.54101 0.74844 0.0
H1572 H 0.77046 0.60925 0.77808 0.0
H1573 H 0.74588 0.54104 0.81142 0.0
C1574 C 0.77037 0.45545 0.77992 0.0
C1575 C 0.78878 0.4683 0.76656 0.0
C1576 C 0.7522 0.46804 0.79328 0.0
C1577 C 0.75191 0.4942 0.79253 0.0
C1578 C 0.77084 0.50811 0.78002 0.0
C1579 C 0.78957 0.49446 0.76749 0.0
C1580 C 0.77083 0.53645 0.77972 0.0
C1581 C 0.7853 0.55019 0.76218 0.0
C1582 C 0.78542 0.57633 0.76173 0.0
C1583 C 0.77007 0.58909 0.77813 0.0
C1584 C 0.75549 0.57643 0.79573 0.0
C1585 C 0.75643 0.55025 0.79692 0.0
H1586 H 0.27228 0.6121 0.77971 0.0
H1587 H 0.2469 0.54359 0.74826 0.0
H1588 H 0.29655 0.54401 0.81242 0.0
H1589 H 0.30658 0.50688 0.80191 0.0
H1590 H 0.27319 0.43819 0.779 0.0
H1591 H 0.23826 0.506 0.75803 0.0
C1592 C 0.27268 0.59196 0.7794 0.0
C1593 C 0.287 0.57938 0.79714 0.0
C1594 C 0.25762 0.57909 0.76236 0.0
C1595 C 0.25783 0.55291 0.7624 0.0
C1596 C 0.27216 0.53929 0.78006 0.0
C1597 C 0.28619 0.55319 0.79783 0.0
C1598 C 0.27237 0.51097 0.78001 0.0
C1599 C 0.29145 0.49743 0.79243 0.0
C1600 C 0.29122 0.47122 0.79288 0.0
C1601 C 0.27295 0.45835 0.77932 0.0
C1602 C 0.25443 0.47089 0.76611 0.0
C1603 C 0.2536 0.49699 0.76731 0.0
H1604 H 0.27015 0.43524 0.27984 0.0
H1605 H 0.23683 0.50327 0.30181 0.0
H1606 H 0.30488 0.5037 0.25811 0.0
H1607 H 0.29647 0.54095 0.24837 0.0
H1608 H 0.2705 0.6092 0.27804 0.0
H1609 H 0.24595 0.54099 0.3114 0.0
C1610 C 0.27039 0.4554 0.27988 0.0
C1611 C 0.28882 0.46825 0.26654 0.0
C1612 C 0.25221 0.468 0.29322 0.0
C1613 C 0.25193 0.49416 0.29247 0.0
C1614 C 0.27087 0.50806 0.27997 0.0
C1615 C 0.28961 0.49442 0.26747 0.0
C1616 C 0.27086 0.5364 0.27967 0.0
C1617 C 0.28531 0.55013 0.26211 0.0
C1618 C 0.28544 0.57628 0.26167 0.0
C1619 C 0.27011 0.58904 0.27808 0.0
C1620 C 0.25554 0.57638 0.29569 0.0
C1621 C 0.25648 0.5502 0.29689 0.0
H1622 H 0.77237 0.61204 0.27975 0.0
H1623 H 0.74702 0.54353 0.24828 0.0
H1624 H 0.79663 0.54396 0.31248 0.0
H1625 H 0.80669 0.50683 0.30194 0.0
H1626 H 0.77328 0.43814 0.27904 0.0
H1627 H 0.73835 0.50595 0.25809 0.0
C1628 C 0.77277 0.5919 0.27944 0.0
C1629 C 0.78708 0.57932 0.29719 0.0
C1630 C 0.75773 0.57903 0.26239 0.0
C1631 C 0.75793 0.55285 0.26243 0.0
C1632 C 0.77226 0.53924 0.2801 0.0
C1633 C 0.78628 0.55313 0.29789 0.0
C1634 C 0.77247 0.51091 0.28005 0.0
C1635 C 0.79156 0.49738 0.29246 0.0
C1636 C 0.79132 0.47117 0.29291 0.0
C1637 C 0.77305 0.45829 0.27936 0.0
C1638 C 0.75452 0.47083 0.26616 0.0
C1639 C 0.75369 0.49694 0.26736 0.0
H1640 H 0.43511 0.27144 0.77244 0.0
H1641 H 0.50394 0.29986 0.80085 0.0
H1642 H 0.50283 0.24242 0.74409 0.0
H1643 H 0.54157 0.2478 0.73967 0.0
H1644 H 0.60984 0.26995 0.77459 0.0
H1645 H 0.5416 0.29268 0.80685 0.0
C1646 C 0.45532 0.27138 0.77246 0.0
C1647 C 0.46777 0.25561 0.75625 0.0
C1648 C 0.46841 0.28704 0.78869 0.0
C1649 C 0.49466 0.2869 0.78859 0.0
C1650 C 0.50823 0.2709 0.77266 0.0
C1651 C 0.49402 0.25532 0.75643 0.0
C1652 C 0.53674 0.27045 0.77308 0.0
C1653 C 0.55064 0.25748 0.75477 0.0
C1654 C 0.57691 0.25653 0.7558 0.0
C1655 C 0.58963 0.27 0.77417 0.0
C1656 C 0.57682 0.28352 0.79202 0.0
C1657 C 0.55062 0.28297 0.79198 0.0
H1658 H 0.60906 0.77261 0.7752 0.0
H1659 H 0.54069 0.74118 0.80126 0.0
H1660 H 0.54104 0.80144 0.7468 0.0
H1661 H 0.50236 0.79846 0.74399 0.0
H1662 H 0.43421 0.77384 0.77677 0.0
H1663 H 0.50226 0.74486 0.80501 0.0
C1664 C 0.58885 0.77271 0.7754 0.0
C1665 C 0.57617 0.78872 0.75935 0.0
C1666 C 0.57603 0.75571 0.79054 0.0
C1667 C 0.54974 0.75496 0.78972 0.0
C1668 C 0.53588 0.77168 0.77446 0.0
C1669 C 0.54991 0.78833 0.75907 0.0
C1670 C 0.5073 0.77194 0.77474 0.0
C1671 C 0.49339 0.78723 0.75806 0.0
C1672 C 0.46717 0.78849 0.75922 0.0
C1673 C 0.45443 0.77376 0.77661 0.0
C1674 C 0.4671 0.75773 0.79267 0.0
C1675 C 0.49333 0.75705 0.79186 0.0
H1676 H 0.43527 0.77126 0.27235 0.0
H1677 H 0.50409 0.79972 0.30073 0.0
H1678 H 0.50299 0.74221 0.24404 0.0
H1679 H 0.54173 0.74767 0.23957 0.0
H1680 H 0.60999 0.76979 0.27454 0.0
H1681 H 0.54174 0.79245 0.30682 0.0
C1682 C 0.45548 0.77121 0.27237 0.0
C1683 C 0.46793 0.75542 0.25618 0.0
C1684 C 0.46856 0.78689 0.28859 0.0
C1685 C 0.49481 0.78675 0.28849 0.0
C1686 C 0.50839 0.77073 0.27258 0.0
C1687 C 0.49418 0.75513 0.25637 0.0
C1688 C 0.53689 0.77027 0.27301 0.0
C1689 C 0.5508 0.75734 0.25468 0.0
C1690 C 0.57707 0.75639 0.25573 0.0
C1691 C 0.58978 0.76984 0.27411 0.0
C1692 C 0.57697 0.78333 0.29198 0.0
C1693 C 0.55076 0.78278 0.29193 0.0
H1694 H 0.60907 0.27246 0.27531 0.0
H1695 H 0.54104 0.30141 0.24704 0.0
H1696 H 0.54069 0.24093 0.30124 0.0
H1697 H 0.50229 0.24484 0.30523 0.0
H1698 H 0.43423 0.27371 0.27688 0.0
H1699 H 0.50238 0.29819 0.24399 0.0
C1700 C 0.58885 0.27256 0.27551 0.0
C1701 C 0.57603 0.25553 0.29061 0.0
C1702 C 0.57618 0.28862 0.2595 0.0
C1703 C 0.54992 0.28824 0.25924 0.0
C1704 C 0.53589 0.27154 0.27457 0.0
C1705 C 0.54975 0.25477 0.28977 0.0
C1706 C 0.50731 0.2718 0.27485 0.0
C1707 C 0.49335 0.25697 0.29202 0.0
C1708 C 0.46712 0.25763 0.29282 0.0
C1709 C 0.45445 0.27362 0.27672 0.0
C1710 C 0.46719 0.28831 0.25929 0.0
C1711 C 0.4934 0.28703 0.25812 0.0
loop_
_geom_bond_atom_site_label_1
_geom_bond_atom_site_label_2
_geom_bond_distance
_geom_bond_site_symmetry_2
_ccdc_geom_bond_type
C0 C1 1.264 . S
C0 C5 1.479 . S
C0 C10 1.465 . S
C1 C0 1.264 . S
C1 C3 1.339 . S
C1 H28 0.931 . S
C2 C3 1.395 . S
C2 C4 1.320 . S
C3 C1 1.339 . S
C3 C2 1.395 . S
C3 H29 0.929 . S
C4 C2 1.320 . S
C4 C5 1.405 . S
C4 H30 0.930 . S
C5 C0 1.479 . S
C5 C4 1.405 . S
C5 H31 0.931 . S
U6 O7 2.454 . S
U6 O8 2.458 . S
U6 C9 2.984 . S
U6 C10 2.847 . S
U6 C23 2.882 . S
U6 O24 2.441 . S
U6 O25 2.420 . S
U6 O26 2.455 . S
U6 O27 2.449 . S
O7 U6 2.454 . S
O7 C9 1.353 . S
O8 U6 2.458 . S
O8 C9 1.286 . S
C9 U6 2.984 . S
C9 O7 1.353 . S
C9 O8 1.286 . S
C9 C11 1.363 . S
C10 C0 1.465 . S
C10 U6 2.847 . S
C10 O24 1.249 . S
C10 O25 1.202 . S
C11 C9 1.363 . S
C11 C13 1.408 . S
C11 C16 1.342 . S
C12 C13 1.310 . S
C12 C15 1.461 . S
C12 H32 0.932 . S
C13 C11 1.408 . S
C13 C12 1.310 . S
C13 H33 0.930 . S
C14 C15 1.474 . S
C14 C16 1.285 . S
C14 H34 0.929 . S
C15 C12 1.461 . S
C15 C14 1.474 . S
C16 C11 1.342 . S
C16 C14 1.285 . S
C16 H35 0.930 . S
C17 C20 1.424 . S
C17 C22 1.245 . S
C17 C23 1.428 . S
C18 C21 1.260 . S
C18 C22 1.477 . S
C18 H36 0.932 . S
C19 C20 1.384 . S
C19 C21 1.479 . S
C19 H37 0.929 . S
C20 C17 1.424 . S
C20 C19 1.384 . S
C20 H38 0.928 . S
C21 C18 1.260 . S
C21 C19 1.479 . S
C22 C17 1.245 . S
C22 C18 1.477 . S
C22 H39 0.932 . S
C23 U6 2.882 . S
C23 C17 1.428 . S
C23 O26 1.301 . S
C23 O27 1.282 . S
O24 U6 2.441 . S
O24 C10 1.249 . S
O25 U6 2.420 . S
O25 C10 1.202 . S
O26 U6 2.455 . S
O26 C23 1.301 . S
O27 U6 2.449 . S
O27 C23 1.282 . S
H28 C1 0.931 . S
H29 C3 0.929 . S
H30 C4 0.930 . S
H31 C5 0.931 . S
H32 C12 0.932 . S
H33 C13 0.930 . S
H34 C14 0.929 . S
H35 C16 0.930 . S
H36 C18 0.932 . S
H37 C19 0.929 . S
H38 C20 0.928 . S
H39 C22 0.932 . S
C40 C41 1.264 . S
C40 C45 1.479 . S
C40 C50 1.465 . S
C41 C40 1.264 . S
C41 C43 1.339 . S
C41 H68 0.931 . S
C42 C43 1.395 . S
C42 C44 1.320 . S
C43 C41 1.339 . S
C43 C42 1.395 . S
C43 H69 0.929 . S
C44 C42 1.320 . S
C44 C45 1.405 . S
C44 H70 0.930 . S
C45 C40 1.479 . S
C45 C44 1.405 . S
C45 H71 0.931 . S
U46 O47 2.454 . S
U46 O48 2.458 . S
U46 C49 2.984 . S
U46 C50 2.847 . S
U46 C63 2.882 . S
U46 O64 2.441 . S
U46 O65 2.420 . S
U46 O66 2.455 . S
U46 O67 2.449 . S
O47 U46 2.454 . S
O47 C49 1.353 . S
O48 U46 2.458 . S
O48 C49 1.286 . S
C49 U46 2.984 . S
C49 O47 1.353 . S
C49 O48 1.286 . S
C49 C51 1.363 . S
C50 C40 1.465 . S
C50 U46 2.847 . S
C50 O64 1.249 . S
C50 O65 1.202 . S
C51 C49 1.363 . S
C51 C53 1.408 . S
C51 C56 1.342 . S
C52 C53 1.310 . S
C52 C55 1.461 . S
C52 H72 0.932 . S
C53 C51 1.408 . S
C53 C52 1.310 . S
C53 H73 0.930 . S
C54 C55 1.474 . S
C54 C56 1.285 . S
C54 H74 0.929 . S
C55 C52 1.461 . S
C55 C54 1.474 . S
C56 C51 1.342 . S
C56 C54 1.285 . S
C56 H75 0.930 . S
C57 C60 1.424 . S
C57 C62 1.245 . S
C57 C63 1.428 . S
C58 C61 1.260 . S
C58 C62 1.477 . S
C58 H76 0.932 . S
C59 C60 1.384 . S
C59 C61 1.479 . S
C59 H77 0.929 . S
C60 C57 1.424 . S
C60 C59 1.384 . S
C60 H78 0.928 . S
C61 C58 1.260 . S
C61 C59 1.479 . S
C62 C57 1.245 . S
C62 C58 1.477 . S
C62 H79 0.932 . S
C63 U46 2.882 . S
C63 C57 1.428 . S
C63 O66 1.301 . S
C63 O67 1.282 . S
O64 U46 2.441 . S
O64 C50 1.249 . S
O65 U46 2.420 . S
O65 C50 1.202 . S
O66 U46 2.455 . S
O66 C63 1.301 . S
O67 U46 2.449 . S
O67 C63 1.282 . S
H68 C41 0.931 . S
H69 C43 0.929 . S
H70 C44 0.930 . S
H71 C45 0.931 . S
H72 C52 0.932 . S
H73 C53 0.930 . S
H74 C54 0.929 . S
H75 C56 0.930 . S
H76 C58 0.932 . S
H77 C59 0.929 . S
H78 C60 0.928 . S
H79 C62 0.932 . S
C80 C81 1.264 . S
C80 C85 1.479 . S
C80 C90 1.465 . S
C81 C80 1.264 . S
C81 C83 1.339 . S
C81 H108 0.931 . S
C82 C83 1.395 . S
C82 C84 1.320 . S
C83 C81 1.339 . S
C83 C82 1.395 . S
C83 H109 0.929 . S
C84 C82 1.320 . S
C84 C85 1.405 . S
C84 H110 0.930 . S
C85 C80 1.479 . S
C85 C84 1.405 . S
C85 H111 0.931 . S
U86 O87 2.454 . S
U86 O88 2.458 . S
U86 C89 2.984 . S
U86 C90 2.847 . S
U86 C103 2.882 . S
U86 O104 2.441 . S
U86 O105 2.420 . S
U86 O106 2.455 . S
U86 O107 2.449 . S
O87 U86 2.454 . S
O87 C89 1.353 . S
O88 U86 2.458 . S
O88 C89 1.286 . S
C89 U86 2.984 . S
C89 O87 1.353 . S
C89 O88 1.286 . S
C89 C91 1.363 . S
C90 C80 1.465 . S
C90 U86 2.847 . S
C90 O104 1.249 . S
C90 O105 1.202 . S
C91 C89 1.363 . S
C91 C93 1.408 . S
C91 C96 1.342 . S
C92 C93 1.310 . S
C92 C95 1.461 . S
C92 H112 0.932 . S
C93 C91 1.408 . S
C93 C92 1.310 . S
C93 H113 0.930 . S
C94 C95 1.474 . S
C94 C96 1.285 . S
C94 H114 0.929 . S
C95 C92 1.461 . S
C95 C94 1.474 . S
C96 C91 1.342 . S
C96 C94 1.285 . S
C96 H115 0.930 . S
C97 C100 1.424 . S
C97 C102 1.245 . S
C97 C103 1.428 . S
C98 C101 1.260 . S
C98 C102 1.477 . S
C98 H116 0.932 . S
C99 C100 1.384 . S
C99 C101 1.479 . S
C99 H117 0.929 . S
C100 C97 1.424 . S
C100 C99 1.384 . S
C100 H118 0.928 . S
C101 C98 1.260 . S
C101 C99 1.479 . S
C102 C97 1.245 . S
C102 C98 1.477 . S
C102 H119 0.932 . S
C103 U86 2.882 . S
C103 C97 1.428 . S
C103 O106 1.301 . S
C103 O107 1.282 . S
O104 U86 2.441 . S
O104 C90 1.249 . S
O105 U86 2.420 . S
O105 C90 1.202 . S
O106 U86 2.455 . S
O106 C103 1.301 . S
O107 U86 2.449 . S
O107 C103 1.282 . S
H108 C81 0.931 . S
H109 C83 0.929 . S
H110 C84 0.930 . S
H111 C85 0.931 . S
H112 C92 0.932 . S
H113 C93 0.930 . S
H114 C94 0.929 . S
H115 C96 0.930 . S
H116 C98 0.932 . S
H117 C99 0.929 . S
H118 C100 0.928 . S
H119 C102 0.932 . S
C120 C121 1.264 . S
C120 C125 1.479 . S
C120 C130 1.465 . S
C121 C120 1.264 . S
C121 C123 1.339 . S
C121 H148 0.931 . S
C122 C123 1.395 . S
C122 C124 1.320 . S
C123 C121 1.339 . S
C123 C122 1.395 . S
C123 H149 0.929 . S
C124 C122 1.320 . S
C124 C125 1.405 . S
C124 H150 0.930 . S
C125 C120 1.479 . S
C125 C124 1.405 . S
C125 H151 0.931 . S
U126 O127 2.454 . S
U126 O128 2.458 . S
U126 C129 2.984 . S
U126 C130 2.847 . S
U126 C143 2.882 . S
U126 O144 2.441 . S
U126 O145 2.420 . S
U126 O146 2.455 . S
U126 O147 2.449 . S
O127 U126 2.454 . S
O127 C129 1.353 . S
O128 U126 2.458 . S
O128 C129 1.286 . S
C129 U126 2.984 . S
C129 O127 1.353 . S
C129 O128 1.286 . S
C129 C131 1.363 . S
C130 C120 1.465 . S
C130 U126 2.847 . S
C130 O144 1.249 . S
C130 O145 1.202 . S
C131 C129 1.363 . S
C131 C133 1.408 . S
C131 C136 1.342 . S
C132 C133 1.310 . S
C132 C135 1.461 . S
C132 H152 0.932 . S
C133 C131 1.408 . S
C133 C132 1.310 . S
C133 H153 0.930 . S
C134 C135 1.474 . S
C134 C136 1.285 . S
C134 H154 0.929 . S
C135 C132 1.461 . S
C135 C134 1.474 . S
C136 C131 1.342 . S
C136 C134 1.285 . S
C136 H155 0.930 . S
C137 C140 1.424 . S
C137 C142 1.245 . S
C137 C143 1.428 . S
C138 C141 1.260 . S
C138 C142 1.477 . S
C138 H156 0.932 . S
C139 C140 1.384 . S
C139 C141 1.479 . S
C139 H157 0.929 . S
C140 C137 1.424 . S
C140 C139 1.384 . S
C140 H158 0.928 . S
C141 C138 1.260 . S
C141 C139 1.479 . S
C142 C137 1.245 . S
C142 C138 1.477 . S
C142 H159 0.932 . S
C143 U126 2.882 . S
C143 C137 1.428 . S
C143 O146 1.301 . S
C143 O147 1.282 . S
O144 U126 2.441 . S
O144 C130 1.249 . S
O145 U126 2.420 . S
O145 C130 1.202 . S
O146 U126 2.455 . S
O146 C143 1.301 . S
O147 U126 2.449 . S
O147 C143 1.282 . S
H148 C121 0.931 . S
H149 C123 0.929 . S
H150 C124 0.930 . S
H151 C125 0.931 . S
H152 C132 0.932 . S
H153 C133 0.930 . S
H154 C134 0.929 . S
H155 C136 0.930 . S
H156 C138 0.932 . S
H157 C139 0.929 . S
H158 C140 0.928 . S
H159 C142 0.932 . S
C160 C161 1.264 . S
C160 C165 1.479 . S
C160 C170 1.465 . S
C161 C160 1.264 . S
C161 C163 1.339 . S
C161 H188 0.931 . S
C162 C163 1.395 . S
C162 C164 1.320 . S
C163 C161 1.339 . S
C163 C162 1.395 . S
C163 H189 0.929 . S
C164 C162 1.320 . S
C164 C165 1.405 . S
C164 H190 0.930 . S
C165 C160 1.479 . S
C165 C164 1.405 . S
C165 H191 0.931 . S
U166 O167 2.454 . S
U166 O168 2.458 . S
U166 C169 2.984 . S
U166 C170 2.847 . S
U166 C183 2.882 . S
U166 O184 2.441 . S
U166 O185 2.420 . S
U166 O186 2.455 . S
U166 O187 2.449 . S
O167 U166 2.454 . S
O167 C169 1.353 . S
O168 U166 2.458 . S
O168 C169 1.286 . S
C169 U166 2.984 . S
C169 O167 1.353 . S
C169 O168 1.286 . S
C169 C171 1.363 . S
C170 C160 1.465 . S
C170 U166 2.847 . S
C170 O184 1.249 . S
C170 O185 1.202 . S
C171 C169 1.363 . S
C171 C173 1.408 . S
C171 C176 1.342 . S
C172 C173 1.310 . S
C172 C175 1.461 . S
C172 H192 0.932 . S
C173 C171 1.408 . S
C173 C172 1.310 . S
C173 H193 0.930 . S
C174 C175 1.474 . S
C174 C176 1.285 . S
C174 H194 0.929 . S
C175 C172 1.461 . S
C175 C174 1.474 . S
C176 C171 1.342 . S
C176 C174 1.285 . S
C176 H195 0.930 . S
C177 C180 1.424 . S
C177 C182 1.245 . S
C177 C183 1.428 . S
C178 C181 1.260 . S
C178 C182 1.477 . S
C178 H196 0.932 . S
C179 C180 1.384 . S
C179 C181 1.479 . S
C179 H197 0.929 . S
C180 C177 1.424 . S
C180 C179 1.384 . S
C180 H198 0.928 . S
C181 C178 1.260 . S
C181 C179 1.479 . S
C182 C177 1.245 . S
C182 C178 1.477 . S
C182 H199 0.932 . S
C183 U166 2.882 . S
C183 C177 1.428 . S
C183 O186 1.301 . S
C183 O187 1.282 . S
O184 U166 2.441 . S
O184 C170 1.249 . S
O185 U166 2.420 . S
O185 C170 1.202 . S
O186 U166 2.455 . S
O186 C183 1.301 . S
O187 U166 2.449 . S
O187 C183 1.282 . S
H188 C161 0.931 . S
H189 C163 0.929 . S
H190 C164 0.930 . S
H191 C165 0.931 . S
H192 C172 0.932 . S
H193 C173 0.930 . S
H194 C174 0.929 . S
H195 C176 0.930 . S
H196 C178 0.932 . S
H197 C179 0.929 . S
H198 C180 0.928 . S
H199 C182 0.932 . S
C200 C201 1.264 . S
C200 C205 1.479 . S
C200 C210 1.465 . S
C201 C200 1.264 . S
C201 C203 1.339 . S
C201 H228 0.931 . S
C202 C203 1.395 . S
C202 C204 1.320 . S
C203 C201 1.339 . S
C203 C202 1.395 . S
C203 H229 0.929 . S
C204 C202 1.320 . S
C204 C205 1.405 . S
C204 H230 0.930 . S
C205 C200 1.479 . S
C205 C204 1.405 . S
C205 H231 0.931 . S
U206 O207 2.454 . S
U206 O208 2.458 . S
U206 C209 2.984 . S
U206 C210 2.847 . S
U206 C223 2.882 . S
U206 O224 2.441 . S
U206 O225 2.420 . S
U206 O226 2.455 . S
U206 O227 2.449 . S
O207 U206 2.454 . S
O207 C209 1.353 . S
O208 U206 2.458 . S
O208 C209 1.286 . S
C209 U206 2.984 . S
C209 O207 1.353 . S
C209 O208 1.286 . S
C209 C211 1.363 . S
C210 C200 1.465 . S
C210 U206 2.847 . S
C210 O224 1.249 . S
C210 O225 1.202 . S
C211 C209 1.363 . S
C211 C213 1.408 . S
C211 C216 1.342 . S
C212 C213 1.310 . S
C212 C215 1.461 . S
C212 H232 0.932 . S
C213 C211 1.408 . S
C213 C212 1.310 . S
C213 H233 0.930 . S
C214 C215 1.474 . S
C214 C216 1.285 . S
C214 H234 0.929 . S
C215 C212 1.461 . S
C215 C214 1.474 . S
C216 C211 1.342 . S
C216 C214 1.285 . S
C216 H235 0.930 . S
C217 C220 1.424 . S
C217 C222 1.245 . S
C217 C223 1.428 . S
C218 C221 1.260 . S
C218 C222 1.477 . S
C218 H236 0.932 . S
C219 C220 1.384 . S
C219 C221 1.479 . S
C219 H237 0.929 . S
C220 C217 1.424 . S
C220 C219 1.384 . S
C220 H238 0.928 . S
C221 C218 1.260 . S
C221 C219 1.479 . S
C222 C217 1.245 . S
C222 C218 1.477 . S
C222 H239 0.932 . S
C223 U206 2.882 . S
C223 C217 1.428 . S
C223 O226 1.301 . S
C223 O227 1.282 . S
O224 U206 2.441 . S
O224 C210 1.249 . S
O225 U206 2.420 . S
O225 C210 1.202 . S
O226 U206 2.455 . S
O226 C223 1.301 . S
O227 U206 2.449 . S
O227 C223 1.282 . S
H228 C201 0.931 . S
H229 C203 0.929 . S
H230 C204 0.930 . S
H231 C205 0.931 . S
H232 C212 0.932 . S
H233 C213 0.930 . S
H234 C214 0.929 . S
H235 C216 0.930 . S
H236 C218 0.932 . S
H237 C219 0.929 . S
H238 C220 0.928 . S
H239 C222 0.932 . S
C240 C241 1.264 . S
C240 C245 1.479 . S
C240 C250 1.465 . S
C241 C240 1.264 . S
C241 C243 1.339 . S
C241 H268 0.931 . S
C242 C243 1.395 . S
C242 C244 1.320 . S
C243 C241 1.339 . S
C243 C242 1.395 . S
C243 H269 0.929 . S
C244 C242 1.320 . S
C244 C245 1.405 . S
C244 H270 0.930 . S
C245 C240 1.479 . S
C245 C244 1.405 . S
C245 H271 0.931 . S
U246 O247 2.454 . S
U246 O248 2.458 . S
U246 C249 2.984 . S
U246 C250 2.847 . S
U246 C263 2.882 . S
U246 O264 2.441 . S
U246 O265 2.420 . S
U246 O266 2.455 . S
U246 O267 2.449 . S
O247 U246 2.454 . S
O247 C249 1.353 . S
O248 U246 2.458 . S
O248 C249 1.286 . S
C249 U246 2.984 . S
C249 O247 1.353 . S
C249 O248 1.286 . S
C249 C251 1.363 . S
C250 C240 1.465 . S
C250 U246 2.847 . S
C250 O264 1.249 . S
C250 O265 1.202 . S
C251 C249 1.363 . S
C251 C253 1.408 . S
C251 C256 1.342 . S
C252 C253 1.310 . S
C252 C255 1.461 . S
C252 H272 0.932 . S
C253 C251 1.408 . S
C253 C252 1.310 . S
C253 H273 0.930 . S
C254 C255 1.474 . S
C254 C256 1.285 . S
C254 H274 0.929 . S
C255 C252 1.461 . S
C255 C254 1.474 . S
C256 C251 1.342 . S
C256 C254 1.285 . S
C256 H275 0.930 . S
C257 C260 1.424 . S
C257 C262 1.245 . S
C257 C263 1.428 . S
C258 C261 1.260 . S
C258 C262 1.477 . S
C258 H276 0.932 . S
C259 C260 1.384 . S
C259 C261 1.479 . S
C259 H277 0.929 . S
C260 C257 1.424 . S
C260 C259 1.384 . S
C260 H278 0.928 . S
C261 C258 1.260 . S
C261 C259 1.479 . S
C262 C257 1.245 . S
C262 C258 1.477 . S
C262 H279 0.932 . S
C263 U246 2.882 . S
C263 C257 1.428 . S
C263 O266 1.301 . S
C263 O267 1.282 . S
O264 U246 2.441 . S
O264 C250 1.249 . S
O265 U246 2.420 . S
O265 C250 1.202 . S
O266 U246 2.455 . S
O266 C263 1.301 . S
O267 U246 2.449 . S
O267 C263 1.282 . S
H268 C241 0.931 . S
H269 C243 0.929 . S
H270 C244 0.930 . S
H271 C245 0.931 . S
H272 C252 0.932 . S
H273 C253 0.930 . S
H274 C254 0.929 . S
H275 C256 0.930 . S
H276 C258 0.932 . S
H277 C259 0.929 . S
H278 C260 0.928 . S
H279 C262 0.932 . S
C280 C281 1.264 . S
C280 C285 1.479 . S
C280 C290 1.465 . S
C281 C280 1.264 . S
C281 C283 1.339 . S
C281 H308 0.931 . S
C282 C283 1.395 . S
C282 C284 1.320 . S
C283 C281 1.339 . S
C283 C282 1.395 . S
C283 H309 0.929 . S
C284 C282 1.320 . S
C284 C285 1.405 . S
C284 H310 0.930 . S
C285 C280 1.479 . S
C285 C284 1.405 . S
C285 H311 0.931 . S
U286 O287 2.454 . S
U286 O288 2.458 . S
U286 C289 2.984 . S
U286 C290 2.847 . S
U286 C303 2.882 . S
U286 O304 2.441 . S
U286 O305 2.420 . S
U286 O306 2.455 . S
U286 O307 2.449 . S
O287 U286 2.454 . S
O287 C289 1.353 . S
O288 U286 2.458 . S
O288 C289 1.286 . S
C289 U286 2.984 . S
C289 O287 1.353 . S
C289 O288 1.286 . S
C289 C291 1.363 . S
C290 C280 1.465 . S
C290 U286 2.847 . S
C290 O304 1.249 . S
C290 O305 1.202 . S
C291 C289 1.363 . S
C291 C293 1.408 . S
C291 C296 1.342 . S
C292 C293 1.310 . S
C292 C295 1.461 . S
C292 H312 0.932 . S
C293 C291 1.408 . S
C293 C292 1.310 . S
C293 H313 0.930 . S
C294 C295 1.474 . S
C294 C296 1.285 . S
C294 H314 0.929 . S
C295 C292 1.461 . S
C295 C294 1.474 . S
C296 C291 1.342 . S
C296 C294 1.285 . S
C296 H315 0.930 . S
C297 C300 1.424 . S
C297 C302 1.245 . S
C297 C303 1.428 . S
C298 C301 1.260 . S
C298 C302 1.477 . S
C298 H316 0.932 . S
C299 C300 1.384 . S
C299 C301 1.479 . S
C299 H317 0.929 . S
C300 C297 1.424 . S
C300 C299 1.384 . S
C300 H318 0.928 . S
C301 C298 1.260 . S
C301 C299 1.479 . S
C302 C297 1.245 . S
C302 C298 1.477 . S
C302 H319 0.932 . S
C303 U286 2.882 . S
C303 C297 1.428 . S
C303 O306 1.301 . S
C303 O307 1.282 . S
O304 U286 2.441 . S
O304 C290 1.249 . S
O305 U286 2.420 . S
O305 C290 1.202 . S
O306 U286 2.455 . S
O306 C303 1.301 . S
O307 U286 2.449 . S
O307 C303 1.282 . S
H308 C281 0.931 . S
H309 C283 0.929 . S
H310 C284 0.930 . S
H311 C285 0.931 . S
H312 C292 0.932 . S
H313 C293 0.930 . S
H314 C294 0.929 . S
H315 C296 0.930 . S
H316 C298 0.932 . S
H317 C299 0.929 . S
H318 C300 0.928 . S
H319 C302 0.932 . S
C320 C321 1.264 . S
C320 C325 1.479 . S
C320 C330 1.465 . S
C321 C320 1.264 . S
C321 C323 1.339 . S
C321 H348 0.931 . S
C322 C323 1.395 . S
C322 C324 1.320 . S
C323 C321 1.339 . S
C323 C322 1.395 . S
C323 H349 0.929 . S
C324 C322 1.320 . S
C324 C325 1.405 . S
C324 H350 0.930 . S
C325 C320 1.479 . S
C325 C324 1.405 . S
C325 H351 0.931 . S
U326 O327 2.454 . S
U326 O328 2.458 . S
U326 C329 2.984 . S
U326 C330 2.847 . S
U326 C343 2.882 . S
U326 O344 2.441 . S
U326 O345 2.420 . S
U326 O346 2.455 . S
U326 O347 2.449 . S
O327 U326 2.454 . S
O327 C329 1.353 . S
O328 U326 2.458 . S
O328 C329 1.286 . S
C329 U326 2.984 . S
C329 O327 1.353 . S
C329 O328 1.286 . S
C329 C331 1.363 . S
C330 C320 1.465 . S
C330 U326 2.847 . S
C330 O344 1.249 . S
C330 O345 1.202 . S
C331 C329 1.363 . S
C331 C333 1.408 . S
C331 C336 1.342 . S
C332 C333 1.310 . S
C332 C335 1.461 . S
C332 H352 0.932 . S
C333 C331 1.408 . S
C333 C332 1.310 . S
C333 H353 0.930 . S
C334 C335 1.474 . S
C334 C336 1.285 . S
C334 H354 0.929 . S
C335 C332 1.461 . S
C335 C334 1.474 . S
C336 C331 1.342 . S
C336 C334 1.285 . S
C336 H355 0.930 . S
C337 C340 1.424 . S
C337 C342 1.245 . S
C337 C343 1.428 . S
C338 C341 1.260 . S
C338 C342 1.477 . S
C338 H356 0.932 . S
C339 C340 1.384 . S
C339 C341 1.479 . S
C339 H357 0.929 . S
C340 C337 1.424 . S
C340 C339 1.384 . S
C340 H358 0.928 . S
C341 C338 1.260 . S
C341 C339 1.479 . S
C342 C337 1.245 . S
C342 C338 1.477 . S
C342 H359 0.932 . S
C343 U326 2.882 . S
C343 C337 1.428 . S
C343 O346 1.301 . S
C343 O347 1.282 . S
O344 U326 2.441 . S
O344 C330 1.249 . S
O345 U326 2.420 . S
O345 C330 1.202 . S
O346 U326 2.455 . S
O346 C343 1.301 . S
O347 U326 2.449 . S
O347 C343 1.282 . S
H348 C321 0.931 . S
H349 C323 0.929 . S
H350 C324 0.930 . S
H351 C325 0.931 . S
H352 C332 0.932 . S
H353 C333 0.930 . S
H354 C334 0.929 . S
H355 C336 0.930 . S
H356 C338 0.932 . S
H357 C339 0.929 . S
H358 C340 0.928 . S
H359 C342 0.932 . S
C360 C361 1.264 . S
C360 C365 1.479 . S
C360 C370 1.465 . S
C361 C360 1.264 . S
C361 C363 1.339 . S
C361 H388 0.931 . S
C362 C363 1.395 . S
C362 C364 1.320 . S
C363 C361 1.339 . S
C363 C362 1.395 . S
C363 H389 0.929 . S
C364 C362 1.320 . S
C364 C365 1.405 . S
C364 H390 0.930 . S
C365 C360 1.479 . S
C365 C364 1.405 . S
C365 H391 0.931 . S
U366 O367 2.454 . S
U366 O368 2.458 . S
U366 C369 2.984 . S
U366 C370 2.847 . S
U366 C383 2.882 . S
U366 O384 2.441 . S
U366 O385 2.420 . S
U366 O386 2.455 . S
U366 O387 2.449 . S
O367 U366 2.454 . S
O367 C369 1.353 . S
O368 U366 2.458 . S
O368 C369 1.286 . S
C369 U366 2.984 . S
C369 O367 1.353 . S
C369 O368 1.286 . S
C369 C371 1.363 . S
C370 C360 1.465 . S
C370 U366 2.847 . S
C370 O384 1.249 . S
C370 O385 1.202 . S
C371 C369 1.363 . S
C371 C373 1.408 . S
C371 C376 1.342 . S
C372 C373 1.310 . S
C372 C375 1.461 . S
C372 H392 0.932 . S
C373 C371 1.408 . S
C373 C372 1.310 . S
C373 H393 0.930 . S
C374 C375 1.474 . S
C374 C376 1.285 . S
C374 H394 0.929 . S
C375 C372 1.461 . S
C375 C374 1.474 . S
C376 C371 1.342 . S
C376 C374 1.285 . S
C376 H395 0.930 . S
C377 C380 1.424 . S
C377 C382 1.245 . S
C377 C383 1.428 . S
C378 C381 1.260 . S
C378 C382 1.477 . S
C378 H396 0.932 . S
C379 C380 1.384 . S
C379 C381 1.479 . S
C379 H397 0.929 . S
C380 C377 1.424 . S
C380 C379 1.384 . S
C380 H398 0.928 . S
C381 C378 1.260 . S
C381 C379 1.479 . S
C382 C377 1.245 . S
C382 C378 1.477 . S
C382 H399 0.932 . S
C383 U366 2.882 . S
C383 C377 1.428 . S
C383 O386 1.301 . S
C383 O387 1.282 . S
O384 U366 2.441 . S
O384 C370 1.249 . S
O385 U366 2.420 . S
O385 C370 1.202 . S
O386 U366 2.455 . S
O386 C383 1.301 . S
O387 U366 2.449 . S
O387 C383 1.282 . S
H388 C361 0.931 . S
H389 C363 0.929 . S
H390 C364 0.930 . S
H391 C365 0.931 . S
H392 C372 0.932 . S
H393 C373 0.930 . S
H394 C374 0.929 . S
H395 C376 0.930 . S
H396 C378 0.932 . S
H397 C379 0.929 . S
H398 C380 0.928 . S
H399 C382 0.932 . S
C400 C401 1.264 . S
C400 C405 1.479 . S
C400 C410 1.465 . S
C401 C400 1.264 . S
C401 C403 1.339 . S
C401 H428 0.931 . S
C402 C403 1.395 . S
C402 C404 1.320 . S
C403 C401 1.339 . S
C403 C402 1.395 . S
C403 H429 0.929 . S
C404 C402 1.320 . S
C404 C405 1.405 . S
C404 H430 0.930 . S
C405 C400 1.479 . S
C405 C404 1.405 . S
C405 H431 0.931 . S
U406 O407 2.454 . S
U406 O408 2.458 . S
U406 C409 2.984 . S
U406 C410 2.847 . S
U406 C423 2.882 . S
U406 O424 2.441 . S
U406 O425 2.420 . S
U406 O426 2.455 . S
U406 O427 2.449 . S
O407 U406 2.454 . S
O407 C409 1.353 . S
O408 U406 2.458 . S
O408 C409 1.286 . S
C409 U406 2.984 . S
C409 O407 1.353 . S
C409 O408 1.286 . S
C409 C411 1.363 . S
C410 C400 1.465 . S
C410 U406 2.847 . S
C410 O424 1.249 . S
C410 O425 1.202 . S
C411 C409 1.363 . S
C411 C413 1.408 . S
C411 C416 1.342 . S
C412 C413 1.310 . S
C412 C415 1.461 . S
C412 H432 0.932 . S
C413 C411 1.408 . S
C413 C412 1.310 . S
C413 H433 0.930 . S
C414 C415 1.474 . S
C414 C416 1.285 . S
C414 H434 0.929 . S
C415 C412 1.461 . S
C415 C414 1.474 . S
C416 C411 1.342 . S
C416 C414 1.285 . S
C416 H435 0.930 . S
C417 C420 1.424 . S
C417 C422 1.245 . S
C417 C423 1.428 . S
C418 C421 1.260 . S
C418 C422 1.477 . S
C418 H436 0.932 . S
C419 C420 1.384 . S
C419 C421 1.479 . S
C419 H437 0.929 . S
C420 C417 1.424 . S
C420 C419 1.384 . S
C420 H438 0.928 . S
C421 C418 1.260 . S
C421 C419 1.479 . S
C422 C417 1.245 . S
C422 C418 1.477 . S
C422 H439 0.932 . S
C423 U406 2.882 . S
C423 C417 1.428 . S
C423 O426 1.301 . S
C423 O427 1.282 . S
O424 U406 2.441 . S
O424 C410 1.249 . S
O425 U406 2.420 . S
O425 C410 1.202 . S
O426 U406 2.455 . S
O426 C423 1.301 . S
O427 U406 2.449 . S
O427 C423 1.282 . S
H428 C401 0.931 . S
H429 C403 0.929 . S
H430 C404 0.930 . S
H431 C405 0.931 . S
H432 C412 0.932 . S
H433 C413 0.930 . S
H434 C414 0.929 . S
H435 C416 0.930 . S
H436 C418 0.932 . S
H437 C419 0.929 . S
H438 C420 0.928 . S
H439 C422 0.932 . S
C440 C441 1.264 . S
C440 C445 1.479 . S
C440 C450 1.465 . S
C441 C440 1.264 . S
C441 C443 1.339 . S
C441 H468 0.931 . S
C442 C443 1.395 . S
C442 C444 1.320 . S
C443 C441 1.339 . S
C443 C442 1.395 . S
C443 H469 0.929 . S
C444 C442 1.320 . S
C444 C445 1.405 . S
C444 H470 0.930 . S
C445 C440 1.479 . S
C445 C444 1.405 . S
C445 H471 0.931 . S
U446 O447 2.454 . S
U446 O448 2.458 . S
U446 C449 2.984 . S
U446 C450 2.847 . S
U446 C463 2.882 . S
U446 O464 2.441 . S
U446 O465 2.420 . S
U446 O466 2.455 . S
U446 O467 2.449 . S
O447 U446 2.454 . S
O447 C449 1.353 . S
O448 U446 2.458 . S
O448 C449 1.286 . S
C449 U446 2.984 . S
C449 O447 1.353 . S
C449 O448 1.286 . S
C449 C451 1.363 . S
C450 C440 1.465 . S
C450 U446 2.847 . S
C450 O464 1.249 . S
C450 O465 1.202 . S
C451 C449 1.363 . S
C451 C453 1.408 . S
C451 C456 1.342 . S
C452 C453 1.310 . S
C452 C455 1.461 . S
C452 H472 0.932 . S
C453 C451 1.408 . S
C453 C452 1.310 . S
C453 H473 0.930 . S
C454 C455 1.474 . S
C454 C456 1.285 . S
C454 H474 0.929 . S
C455 C452 1.461 . S
C455 C454 1.474 . S
C456 C451 1.342 . S
C456 C454 1.285 . S
C456 H475 0.930 . S
C457 C460 1.424 . S
C457 C462 1.245 . S
C457 C463 1.428 . S
C458 C461 1.260 . S
C458 C462 1.477 . S
C458 H476 0.932 . S
C459 C460 1.384 . S
C459 C461 1.479 . S
C459 H477 0.929 . S
C460 C457 1.424 . S
C460 C459 1.384 . S
C460 H478 0.928 . S
C461 C458 1.260 . S
C461 C459 1.479 . S
C462 C457 1.245 . S
C462 C458 1.477 . S
C462 H479 0.932 . S
C463 U446 2.882 . S
C463 C457 1.428 . S
C463 O466 1.301 . S
C463 O467 1.282 . S
O464 U446 2.441 . S
O464 C450 1.249 . S
O465 U446 2.420 . S
O465 C450 1.202 . S
O466 U446 2.455 . S
O466 C463 1.301 . S
O467 U446 2.449 . S
O467 C463 1.282 . S
H468 C441 0.931 . S
H469 C443 0.929 . S
H470 C444 0.930 . S
H471 C445 0.931 . S
H472 C452 0.932 . S
H473 C453 0.930 . S
H474 C454 0.929 . S
H475 C456 0.930 . S
H476 C458 0.932 . S
H477 C459 0.929 . S
H478 C460 0.928 . S
H479 C462 0.932 . S
C480 C481 1.264 . S
C480 C485 1.479 . S
C480 C490 1.465 . S
C481 C480 1.264 . S
C481 C483 1.339 . S
C481 H508 0.931 . S
C482 C483 1.395 . S
C482 C484 1.320 . S
C483 C481 1.339 . S
C483 C482 1.395 . S
C483 H509 0.929 . S
C484 C482 1.320 . S
C484 C485 1.405 . S
C484 H510 0.930 . S
C485 C480 1.479 . S
C485 C484 1.405 . S
C485 H511 0.931 . S
U486 O487 2.454 . S
U486 O488 2.458 . S
U486 C489 2.984 . S
U486 C490 2.847 . S
U486 C503 2.882 . S
U486 O504 2.441 . S
U486 O505 2.420 . S
U486 O506 2.455 . S
U486 O507 2.449 . S
O487 U486 2.454 . S
O487 C489 1.353 . S
O488 U486 2.458 . S
O488 C489 1.286 . S
C489 U486 2.984 . S
C489 O487 1.353 . S
C489 O488 1.286 . S
C489 C491 1.363 . S
C490 C480 1.465 . S
C490 U486 2.847 . S
C490 O504 1.249 . S
C490 O505 1.202 . S
C491 C489 1.363 . S
C491 C493 1.408 . S
C491 C496 1.342 . S
C492 C493 1.310 . S
C492 C495 1.461 . S
C492 H512 0.932 . S
C493 C491 1.408 . S
C493 C492 1.310 . S
C493 H513 0.930 . S
C494 C495 1.474 . S
C494 C496 1.285 . S
C494 H514 0.929 . S
C495 C492 1.461 . S
C495 C494 1.474 . S
C496 C491 1.342 . S
C496 C494 1.285 . S
C496 H515 0.930 . S
C497 C500 1.424 . S
C497 C502 1.245 . S
C497 C503 1.428 . S
C498 C501 1.260 . S
C498 C502 1.477 . S
C498 H516 0.932 . S
C499 C500 1.384 . S
C499 C501 1.479 . S
C499 H517 0.929 . S
C500 C497 1.424 . S
C500 C499 1.384 . S
C500 H518 0.928 . S
C501 C498 1.260 . S
C501 C499 1.479 . S
C502 C497 1.245 . S
C502 C498 1.477 . S
C502 H519 0.932 . S
C503 U486 2.882 . S
C503 C497 1.428 . S
C503 O506 1.301 . S
C503 O507 1.282 . S
O504 U486 2.441 . S
O504 C490 1.249 . S
O505 U486 2.420 . S
O505 C490 1.202 . S
O506 U486 2.455 . S
O506 C503 1.301 . S
O507 U486 2.449 . S
O507 C503 1.282 . S
H508 C481 0.931 . S
H509 C483 0.929 . S
H510 C484 0.930 . S
H511 C485 0.931 . S
H512 C492 0.932 . S
H513 C493 0.930 . S
H514 C494 0.929 . S
H515 C496 0.930 . S
H516 C498 0.932 . S
H517 C499 0.929 . S
H518 C500 0.928 . S
H519 C502 0.932 . S
C520 C521 1.264 . S
C520 C525 1.479 . S
C520 C530 1.465 . S
C521 C520 1.264 . S
C521 C523 1.339 . S
C521 H548 0.931 . S
C522 C523 1.395 . S
C522 C524 1.320 . S
C523 C521 1.339 . S
C523 C522 1.395 . S
C523 H549 0.929 . S
C524 C522 1.320 . S
C524 C525 1.405 . S
C524 H550 0.930 . S
C525 C520 1.479 . S
C525 C524 1.405 . S
C525 H551 0.931 . S
U526 O527 2.454 . S
U526 O528 2.458 . S
U526 C529 2.984 . S
U526 C530 2.847 . S
U526 C543 2.882 . S
U526 O544 2.441 . S
U526 O545 2.420 . S
U526 O546 2.455 . S
U526 O547 2.449 . S
O527 U526 2.454 . S
O527 C529 1.353 . S
O528 U526 2.458 . S
O528 C529 1.286 . S
C529 U526 2.984 . S
C529 O527 1.353 . S
C529 O528 1.286 . S
C529 C531 1.363 . S
C530 C520 1.465 . S
C530 U526 2.847 . S
C530 O544 1.249 . S
C530 O545 1.202 . S
C531 C529 1.363 . S
C531 C533 1.408 . S
C531 C536 1.342 . S
C532 C533 1.310 . S
C532 C535 1.461 . S
C532 H552 0.932 . S
C533 C531 1.408 . S
C533 C532 1.310 . S
C533 H553 0.930 . S
C534 C535 1.474 . S
C534 C536 1.285 . S
C534 H554 0.929 . S
C535 C532 1.461 . S
C535 C534 1.474 . S
C536 C531 1.342 . S
C536 C534 1.285 . S
C536 H555 0.930 . S
C537 C540 1.424 . S
C537 C542 1.245 . S
C537 C543 1.428 . S
C538 C541 1.260 . S
C538 C542 1.477 . S
C538 H556 0.932 . S
C539 C540 1.384 . S
C539 C541 1.479 . S
C539 H557 0.929 . S
C540 C537 1.424 . S
C540 C539 1.384 . S
C540 H558 0.928 . S
C541 C538 1.260 . S
C541 C539 1.479 . S
C542 C537 1.245 . S
C542 C538 1.477 . S
C542 H559 0.932 . S
C543 U526 2.882 . S
C543 C537 1.428 . S
C543 O546 1.301 . S
C543 O547 1.282 . S
O544 U526 2.441 . S
O544 C530 1.249 . S
O545 U526 2.420 . S
O545 C530 1.202 . S
O546 U526 2.455 . S
O546 C543 1.301 . S
O547 U526 2.449 . S
O547 C543 1.282 . S
H548 C521 0.931 . S
H549 C523 0.929 . S
H550 C524 0.930 . S
H551 C525 0.931 . S
H552 C532 0.932 . S
H553 C533 0.930 . S
H554 C534 0.929 . S
H555 C536 0.930 . S
H556 C538 0.932 . S
H557 C539 0.929 . S
H558 C540 0.928 . S
H559 C542 0.932 . S
C560 C561 1.264 . S
C560 C565 1.479 . S
C560 C570 1.465 . S
C561 C560 1.264 . S
C561 C563 1.339 . S
C561 H588 0.931 . S
C562 C563 1.395 . S
C562 C564 1.320 . S
C563 C561 1.339 . S
C563 C562 1.395 . S
C563 H589 0.929 . S
C564 C562 1.320 . S
C564 C565 1.405 . S
C564 H590 0.930 . S
C565 C560 1.479 . S
C565 C564 1.405 . S
C565 H591 0.931 . S
U566 O567 2.454 . S
U566 O568 2.458 . S
U566 C569 2.984 . S
U566 C570 2.847 . S
U566 C583 2.882 . S
U566 O584 2.441 . S
U566 O585 2.420 . S
U566 O586 2.455 . S
U566 O587 2.449 . S
O567 U566 2.454 . S
O567 C569 1.353 . S
O568 U566 2.458 . S
O568 C569 1.286 . S
C569 U566 2.984 . S
C569 O567 1.353 . S
C569 O568 1.286 . S
C569 C571 1.363 . S
C570 C560 1.465 . S
C570 U566 2.847 . S
C570 O584 1.249 . S
C570 O585 1.202 . S
C571 C569 1.363 . S
C571 C573 1.408 . S
C571 C576 1.342 . S
C572 C573 1.310 . S
C572 C575 1.461 . S
C572 H592 0.932 . S
C573 C571 1.408 . S
C573 C572 1.310 . S
C573 H593 0.930 . S
C574 C575 1.474 . S
C574 C576 1.285 . S
C574 H594 0.929 . S
C575 C572 1.461 . S
C575 C574 1.474 . S
C576 C571 1.342 . S
C576 C574 1.285 . S
C576 H595 0.930 . S
C577 C580 1.424 . S
C577 C582 1.245 . S
C577 C583 1.428 . S
C578 C581 1.260 . S
C578 C582 1.477 . S
C578 H596 0.932 . S
C579 C580 1.384 . S
C579 C581 1.479 . S
C579 H597 0.929 . S
C580 C577 1.424 . S
C580 C579 1.384 . S
C580 H598 0.928 . S
C581 C578 1.260 . S
C581 C579 1.479 . S
C582 C577 1.245 . S
C582 C578 1.477 . S
C582 H599 0.932 . S
C583 U566 2.882 . S
C583 C577 1.428 . S
C583 O586 1.301 . S
C583 O587 1.282 . S
O584 U566 2.441 . S
O584 C570 1.249 . S
O585 U566 2.420 . S
O585 C570 1.202 . S
O586 U566 2.455 . S
O586 C583 1.301 . S
O587 U566 2.449 . S
O587 C583 1.282 . S
H588 C561 0.931 . S
H589 C563 0.929 . S
H590 C564 0.930 . S
H591 C565 0.931 . S
H592 C572 0.932 . S
H593 C573 0.930 . S
H594 C574 0.929 . S
H595 C576 0.930 . S
H596 C578 0.932 . S
H597 C579 0.929 . S
H598 C580 0.928 . S
H599 C582 0.932 . S
C600 C601 1.264 . S
C600 C605 1.479 . S
C600 C610 1.465 . S
C601 C600 1.264 . S
C601 C603 1.339 . S
C601 H628 0.931 . S
C602 C603 1.395 . S
C602 C604 1.320 . S
C603 C601 1.339 . S
C603 C602 1.395 . S
C603 H629 0.929 . S
C604 C602 1.320 . S
C604 C605 1.405 . S
C604 H630 0.930 . S
C605 C600 1.479 . S
C605 C604 1.405 . S
C605 H631 0.931 . S
U606 O607 2.454 . S
U606 O608 2.458 . S
U606 C609 2.984 . S
U606 C610 2.847 . S
U606 C623 2.882 . S
U606 O624 2.441 . S
U606 O625 2.420 . S
U606 O626 2.455 . S
U606 O627 2.449 . S
O607 U606 2.454 . S
O607 C609 1.353 . S
O608 U606 2.458 . S
O608 C609 1.286 . S
C609 U606 2.984 . S
C609 O607 1.353 . S
C609 O608 1.286 . S
C609 C611 1.363 . S
C610 C600 1.465 . S
C610 U606 2.847 . S
C610 O624 1.249 . S
C610 O625 1.202 . S
C611 C609 1.363 . S
C611 C613 1.408 . S
C611 C616 1.342 . S
C612 C613 1.310 . S
C612 C615 1.461 . S
C612 H632 0.932 . S
C613 C611 1.408 . S
C613 C612 1.310 . S
C613 H633 0.930 . S
C614 C615 1.474 . S
C614 C616 1.285 . S
C614 H634 0.929 . S
C615 C612 1.461 . S
C615 C614 1.474 . S
C616 C611 1.342 . S
C616 C614 1.285 . S
C616 H635 0.930 . S
C617 C620 1.424 . S
C617 C622 1.245 . S
C617 C623 1.428 . S
C618 C621 1.260 . S
C618 C622 1.477 . S
C618 H636 0.932 . S
C619 C620 1.384 . S
C619 C621 1.479 . S
C619 H637 0.929 . S
C620 C617 1.424 . S
C620 C619 1.384 . S
C620 H638 0.928 . S
C621 C618 1.260 . S
C621 C619 1.479 . S
C622 C617 1.245 . S
C622 C618 1.477 . S
C622 H639 0.932 . S
C623 U606 2.882 . S
C623 C617 1.428 . S
C623 O626 1.301 . S
C623 O627 1.282 . S
O624 U606 2.441 . S
O624 C610 1.249 . S
O625 U606 2.420 . S
O625 C610 1.202 . S
O626 U606 2.455 . S
O626 C623 1.301 . S
O627 U606 2.449 . S
O627 C623 1.282 . S
H628 C601 0.931 . S
H629 C603 0.929 . S
H630 C604 0.930 . S
H631 C605 0.931 . S
H632 C612 0.932 . S
H633 C613 0.930 . S
H634 C614 0.929 . S
H635 C616 0.930 . S
H636 C618 0.932 . S
H637 C619 0.929 . S
H638 C620 0.928 . S
H639 C622 0.932 . S
C640 C641 1.264 . S
C640 C645 1.479 . S
C640 C650 1.465 . S
C641 C640 1.264 . S
C641 C643 1.339 . S
C641 H668 0.931 . S
C642 C643 1.395 . S
C642 C644 1.320 . S
C643 C641 1.339 . S
C643 C642 1.395 . S
C643 H669 0.929 . S
C644 C642 1.320 . S
C644 C645 1.405 . S
C644 H670 0.930 . S
C645 C640 1.479 . S
C645 C644 1.405 . S
C645 H671 0.931 . S
U646 O647 2.454 . S
U646 O648 2.458 . S
U646 C649 2.984 . S
U646 C650 2.847 . S
U646 C663 2.882 . S
U646 O664 2.441 . S
U646 O665 2.420 . S
U646 O666 2.455 . S
U646 O667 2.449 . S
O647 U646 2.454 . S
O647 C649 1.353 . S
O648 U646 2.458 . S
O648 C649 1.286 . S
C649 U646 2.984 . S
C649 O647 1.353 . S
C649 O648 1.286 . S
C649 C651 1.363 . S
C650 C640 1.465 . S
C650 U646 2.847 . S
C650 O664 1.249 . S
C650 O665 1.202 . S
C651 C649 1.363 . S
C651 C653 1.408 . S
C651 C656 1.342 . S
C652 C653 1.310 . S
C652 C655 1.461 . S
C652 H672 0.932 . S
C653 C651 1.408 . S
C653 C652 1.310 . S
C653 H673 0.930 . S
C654 C655 1.474 . S
C654 C656 1.285 . S
C654 H674 0.929 . S
C655 C652 1.461 . S
C655 C654 1.474 . S
C656 C651 1.342 . S
C656 C654 1.285 . S
C656 H675 0.930 . S
C657 C660 1.424 . S
C657 C662 1.245 . S
C657 C663 1.428 . S
C658 C661 1.260 . S
C658 C662 1.477 . S
C658 H676 0.932 . S
C659 C660 1.384 . S
C659 C661 1.479 . S
C659 H677 0.929 . S
C660 C657 1.424 . S
C660 C659 1.384 . S
C660 H678 0.928 . S
C661 C658 1.260 . S
C661 C659 1.479 . S
C662 C657 1.245 . S
C662 C658 1.477 . S
C662 H679 0.932 . S
C663 U646 2.882 . S
C663 C657 1.428 . S
C663 O666 1.301 . S
C663 O667 1.282 . S
O664 U646 2.441 . S
O664 C650 1.249 . S
O665 U646 2.420 . S
O665 C650 1.202 . S
O666 U646 2.455 . S
O666 C663 1.301 . S
O667 U646 2.449 . S
O667 C663 1.282 . S
H668 C641 0.931 . S
H669 C643 0.929 . S
H670 C644 0.930 . S
H671 C645 0.931 . S
H672 C652 0.932 . S
H673 C653 0.930 . S
H674 C654 0.929 . S
H675 C656 0.930 . S
H676 C658 0.932 . S
H677 C659 0.929 . S
H678 C660 0.928 . S
H679 C662 0.932 . S
C680 C681 1.264 . S
C680 C685 1.479 . S
C680 C690 1.465 . S
C681 C680 1.264 . S
C681 C683 1.339 . S
C681 H708 0.931 . S
C682 C683 1.395 . S
C682 C684 1.320 . S
C683 C681 1.339 . S
C683 C682 1.395 . S
C683 H709 0.929 . S
C684 C682 1.320 . S
C684 C685 1.405 . S
C684 H710 0.930 . S
C685 C680 1.479 . S
C685 C684 1.405 . S
C685 H711 0.931 . S
U686 O687 2.454 . S
U686 O688 2.458 . S
U686 C689 2.984 . S
U686 C690 2.847 . S
U686 C703 2.882 . S
U686 O704 2.441 . S
U686 O705 2.420 . S
U686 O706 2.455 . S
U686 O707 2.449 . S
O687 U686 2.454 . S
O687 C689 1.353 . S
O688 U686 2.458 . S
O688 C689 1.286 . S
C689 U686 2.984 . S
C689 O687 1.353 . S
C689 O688 1.286 . S
C689 C691 1.363 . S
C690 C680 1.465 . S
C690 U686 2.847 . S
C690 O704 1.249 . S
C690 O705 1.202 . S
C691 C689 1.363 . S
C691 C693 1.408 . S
C691 C696 1.342 . S
C692 C693 1.310 . S
C692 C695 1.461 . S
C692 H712 0.932 . S
C693 C691 1.408 . S
C693 C692 1.310 . S
C693 H713 0.930 . S
C694 C695 1.474 . S
C694 C696 1.285 . S
C694 H714 0.929 . S
C695 C692 1.461 . S
C695 C694 1.474 . S
C696 C691 1.342 . S
C696 C694 1.285 . S
C696 H715 0.930 . S
C697 C700 1.424 . S
C697 C702 1.245 . S
C697 C703 1.428 . S
C698 C701 1.260 . S
C698 C702 1.477 . S
C698 H716 0.932 . S
C699 C700 1.384 . S
C699 C701 1.479 . S
C699 H717 0.929 . S
C700 C697 1.424 . S
C700 C699 1.384 . S
C700 H718 0.928 . S
C701 C698 1.260 . S
C701 C699 1.479 . S
C702 C697 1.245 . S
C702 C698 1.477 . S
C702 H719 0.932 . S
C703 U686 2.882 . S
C703 C697 1.428 . S
C703 O706 1.301 . S
C703 O707 1.282 . S
O704 U686 2.441 . S
O704 C690 1.249 . S
O705 U686 2.420 . S
O705 C690 1.202 . S
O706 U686 2.455 . S
O706 C703 1.301 . S
O707 U686 2.449 . S
O707 C703 1.282 . S
H708 C681 0.931 . S
H709 C683 0.929 . S
H710 C684 0.930 . S
H711 C685 0.931 . S
H712 C692 0.932 . S
H713 C693 0.930 . S
H714 C694 0.929 . S
H715 C696 0.930 . S
H716 C698 0.932 . S
H717 C699 0.929 . S
H718 C700 0.928 . S
H719 C702 0.932 . S
C720 C721 1.264 . S
C720 C725 1.479 . S
C720 C730 1.465 . S
C721 C720 1.264 . S
C721 C723 1.339 . S
C721 H748 0.931 . S
C722 C723 1.395 . S
C722 C724 1.320 . S
C723 C721 1.339 . S
C723 C722 1.395 . S
C723 H749 0.929 . S
C724 C722 1.320 . S
C724 C725 1.405 . S
C724 H750 0.930 . S
C725 C720 1.479 . S
C725 C724 1.405 . S
C725 H751 0.931 . S
U726 O727 2.454 . S
U726 O728 2.458 . S
U726 C729 2.984 . S
U726 C730 2.847 . S
U726 C743 2.882 . S
U726 O744 2.441 . S
U726 O745 2.420 . S
U726 O746 2.455 . S
U726 O747 2.449 . S
O727 U726 2.454 . S
O727 C729 1.353 . S
O728 U726 2.458 . S
O728 C729 1.286 . S
C729 U726 2.984 . S
C729 O727 1.353 . S
C729 O728 1.286 . S
C729 C731 1.363 . S
C730 C720 1.465 . S
C730 U726 2.847 . S
C730 O744 1.249 . S
C730 O745 1.202 . S
C731 C729 1.363 . S
C731 C733 1.408 . S
C731 C736 1.342 . S
C732 C733 1.310 . S
C732 C735 1.461 . S
C732 H752 0.932 . S
C733 C731 1.408 . S
C733 C732 1.310 . S
C733 H753 0.930 . S
C734 C735 1.474 . S
C734 C736 1.285 . S
C734 H754 0.929 . S
C735 C732 1.461 . S
C735 C734 1.474 . S
C736 C731 1.342 . S
C736 C734 1.285 . S
C736 H755 0.930 . S
C737 C740 1.424 . S
C737 C742 1.245 . S
C737 C743 1.428 . S
C738 C741 1.260 . S
C738 C742 1.477 . S
C738 H756 0.932 . S
C739 C740 1.384 . S
C739 C741 1.479 . S
C739 H757 0.929 . S
C740 C737 1.424 . S
C740 C739 1.384 . S
C740 H758 0.928 . S
C741 C738 1.260 . S
C741 C739 1.479 . S
C742 C737 1.245 . S
C742 C738 1.477 . S
C742 H759 0.932 . S
C743 U726 2.882 . S
C743 C737 1.428 . S
C743 O746 1.301 . S
C743 O747 1.282 . S
O744 U726 2.441 . S
O744 C730 1.249 . S
O745 U726 2.420 . S
O745 C730 1.202 . S
O746 U726 2.455 . S
O746 C743 1.301 . S
O747 U726 2.449 . S
O747 C743 1.282 . S
H748 C721 0.931 . S
H749 C723 0.929 . S
H750 C724 0.930 . S
H751 C725 0.931 . S
H752 C732 0.932 . S
H753 C733 0.930 . S
H754 C734 0.929 . S
H755 C736 0.930 . S
H756 C738 0.932 . S
H757 C739 0.929 . S
H758 C740 0.928 . S
H759 C742 0.932 . S
C760 C761 1.264 . S
C760 C765 1.479 . S
C760 C770 1.465 . S
C761 C760 1.264 . S
C761 C763 1.339 . S
C761 H788 0.931 . S
C762 C763 1.395 . S
C762 C764 1.320 . S
C763 C761 1.339 . S
C763 C762 1.395 . S
C763 H789 0.929 . S
C764 C762 1.320 . S
C764 C765 1.405 . S
C764 H790 0.930 . S
C765 C760 1.479 . S
C765 C764 1.405 . S
C765 H791 0.931 . S
U766 O767 2.454 . S
U766 O768 2.458 . S
U766 C769 2.984 . S
U766 C770 2.847 . S
U766 C783 2.882 . S
U766 O784 2.441 . S
U766 O785 2.420 . S
U766 O786 2.455 . S
U766 O787 2.449 . S
O767 U766 2.454 . S
O767 C769 1.353 . S
O768 U766 2.458 . S
O768 C769 1.286 . S
C769 U766 2.984 . S
C769 O767 1.353 . S
C769 O768 1.286 . S
C769 C771 1.363 . S
C770 C760 1.465 . S
C770 U766 2.847 . S
C770 O784 1.249 . S
C770 O785 1.202 . S
C771 C769 1.363 . S
C771 C773 1.408 . S
C771 C776 1.342 . S
C772 C773 1.310 . S
C772 C775 1.461 . S
C772 H792 0.932 . S
C773 C771 1.408 . S
C773 C772 1.310 . S
C773 H793 0.930 . S
C774 C775 1.474 . S
C774 C776 1.285 . S
C774 H794 0.929 . S
C775 C772 1.461 . S
C775 C774 1.474 . S
C776 C771 1.342 . S
C776 C774 1.285 . S
C776 H795 0.930 . S
C777 C780 1.424 . S
C777 C782 1.245 . S
C777 C783 1.428 . S
C778 C781 1.260 . S
C778 C782 1.477 . S
C778 H796 0.932 . S
C779 C780 1.384 . S
C779 C781 1.479 . S
C779 H797 0.929 . S
C780 C777 1.424 . S
C780 C779 1.384 . S
C780 H798 0.928 . S
C781 C778 1.260 . S
C781 C779 1.479 . S
C782 C777 1.245 . S
C782 C778 1.477 . S
C782 H799 0.932 . S
C783 U766 2.882 . S
C783 C777 1.428 . S
C783 O786 1.301 . S
C783 O787 1.282 . S
O784 U766 2.441 . S
O784 C770 1.249 . S
O785 U766 2.420 . S
O785 C770 1.202 . S
O786 U766 2.455 . S
O786 C783 1.301 . S
O787 U766 2.449 . S
O787 C783 1.282 . S
H788 C761 0.931 . S
H789 C763 0.929 . S
H790 C764 0.930 . S
H791 C765 0.931 . S
H792 C772 0.932 . S
H793 C773 0.930 . S
H794 C774 0.929 . S
H795 C776 0.930 . S
H796 C778 0.932 . S
H797 C779 0.929 . S
H798 C780 0.928 . S
H799 C782 0.932 . S
C800 C801 1.264 . S
C800 C805 1.479 . S
C800 C810 1.465 . S
C801 C800 1.264 . S
C801 C803 1.339 . S
C801 H828 0.931 . S
C802 C803 1.395 . S
C802 C804 1.320 . S
C803 C801 1.339 . S
C803 C802 1.395 . S
C803 H829 0.929 . S
C804 C802 1.320 . S
C804 C805 1.405 . S
C804 H830 0.930 . S
C805 C800 1.479 . S
C805 C804 1.405 . S
C805 H831 0.931 . S
U806 O807 2.454 . S
U806 O808 2.458 . S
U806 C809 2.984 . S
U806 C810 2.847 . S
U806 C823 2.882 . S
U806 O824 2.441 . S
U806 O825 2.420 . S
U806 O826 2.455 . S
U806 O827 2.449 . S
O807 U806 2.454 . S
O807 C809 1.353 . S
O808 U806 2.458 . S
O808 C809 1.286 . S
C809 U806 2.984 . S
C809 O807 1.353 . S
C809 O808 1.286 . S
C809 C811 1.363 . S
C810 C800 1.465 . S
C810 U806 2.847 . S
C810 O824 1.249 . S
C810 O825 1.202 . S
C811 C809 1.363 . S
C811 C813 1.408 . S
C811 C816 1.342 . S
C812 C813 1.310 . S
C812 C815 1.461 . S
C812 H832 0.932 . S
C813 C811 1.408 . S
C813 C812 1.310 . S
C813 H833 0.930 . S
C814 C815 1.474 . S
C814 C816 1.285 . S
C814 H834 0.929 . S
C815 C812 1.461 . S
C815 C814 1.474 . S
C816 C811 1.342 . S
C816 C814 1.285 . S
C816 H835 0.930 . S
C817 C820 1.424 . S
C817 C822 1.245 . S
C817 C823 1.428 . S
C818 C821 1.260 . S
C818 C822 1.477 . S
C818 H836 0.932 . S
C819 C820 1.384 . S
C819 C821 1.479 . S
C819 H837 0.929 . S
C820 C817 1.424 . S
C820 C819 1.384 . S
C820 H838 0.928 . S
C821 C818 1.260 . S
C821 C819 1.479 . S
C822 C817 1.245 . S
C822 C818 1.477 . S
C822 H839 0.932 . S
C823 U806 2.882 . S
C823 C817 1.428 . S
C823 O826 1.301 . S
C823 O827 1.282 . S
O824 U806 2.441 . S
O824 C810 1.249 . S
O825 U806 2.420 . S
O825 C810 1.202 . S
O826 U806 2.455 . S
O826 C823 1.301 . S
O827 U806 2.449 . S
O827 C823 1.282 . S
H828 C801 0.931 . S
H829 C803 0.929 . S
H830 C804 0.930 . S
H831 C805 0.931 . S
H832 C812 0.932 . S
H833 C813 0.930 . S
H834 C814 0.929 . S
H835 C816 0.930 . S
H836 C818 0.932 . S
H837 C819 0.929 . S
H838 C820 0.928 . S
H839 C822 0.932 . S
C840 C841 1.264 . S
C840 C845 1.479 . S
C840 C850 1.465 . S
C841 C840 1.264 . S
C841 C843 1.339 . S
C841 H868 0.931 . S
C842 C843 1.395 . S
C842 C844 1.320 . S
C843 C841 1.339 . S
C843 C842 1.395 . S
C843 H869 0.929 . S
C844 C842 1.320 . S
C844 C845 1.405 . S
C844 H870 0.930 . S
C845 C840 1.479 . S
C845 C844 1.405 . S
C845 H871 0.931 . S
U846 O847 2.454 . S
U846 O848 2.458 . S
U846 C849 2.984 . S
U846 C850 2.847 . S
U846 C863 2.882 . S
U846 O864 2.441 . S
U846 O865 2.420 . S
U846 O866 2.455 . S
U846 O867 2.449 . S
O847 U846 2.454 . S
O847 C849 1.353 . S
O848 U846 2.458 . S
O848 C849 1.286 . S
C849 U846 2.984 . S
C849 O847 1.353 . S
C849 O848 1.286 . S
C849 C851 1.363 . S
C850 C840 1.465 . S
C850 U846 2.847 . S
C850 O864 1.249 . S
C850 O865 1.202 . S
C851 C849 1.363 . S
C851 C853 1.408 . S
C851 C856 1.342 . S
C852 C853 1.310 . S
C852 C855 1.461 . S
C852 H872 0.932 . S
C853 C851 1.408 . S
C853 C852 1.310 . S
C853 H873 0.930 . S
C854 C855 1.474 . S
C854 C856 1.285 . S
C854 H874 0.929 . S
C855 C852 1.461 . S
C855 C854 1.474 . S
C856 C851 1.342 . S
C856 C854 1.285 . S
C856 H875 0.930 . S
C857 C860 1.424 . S
C857 C862 1.245 . S
C857 C863 1.428 . S
C858 C861 1.260 . S
C858 C862 1.477 . S
C858 H876 0.932 . S
C859 C860 1.384 . S
C859 C861 1.479 . S
C859 H877 0.929 . S
C860 C857 1.424 . S
C860 C859 1.384 . S
C860 H878 0.928 . S
C861 C858 1.260 . S
C861 C859 1.479 . S
C862 C857 1.245 . S
C862 C858 1.477 . S
C862 H879 0.932 . S
C863 U846 2.882 . S
C863 C857 1.428 . S
C863 O866 1.301 . S
C863 O867 1.282 . S
O864 U846 2.441 . S
O864 C850 1.249 . S
O865 U846 2.420 . S
O865 C850 1.202 . S
O866 U846 2.455 . S
O866 C863 1.301 . S
O867 U846 2.449 . S
O867 C863 1.282 . S
H868 C841 0.931 . S
H869 C843 0.929 . S
H870 C844 0.930 . S
H871 C845 0.931 . S
H872 C852 0.932 . S
H873 C853 0.930 . S
H874 C854 0.929 . S
H875 C856 0.930 . S
H876 C858 0.932 . S
H877 C859 0.929 . S
H878 C860 0.928 . S
H879 C862 0.932 . S
C880 C881 1.264 . S
C880 C885 1.479 . S
C880 C890 1.465 . S
C881 C880 1.264 . S
C881 C883 1.339 . S
C881 H908 0.931 . S
C882 C883 1.395 . S
C882 C884 1.320 . S
C883 C881 1.339 . S
C883 C882 1.395 . S
C883 H909 0.929 . S
C884 C882 1.320 . S
C884 C885 1.405 . S
C884 H910 0.930 . S
C885 C880 1.479 . S
C885 C884 1.405 . S
C885 H911 0.931 . S
U886 O887 2.454 . S
U886 O888 2.458 . S
U886 C889 2.984 . S
U886 C890 2.847 . S
U886 C903 2.882 . S
U886 O904 2.441 . S
U886 O905 2.420 . S
U886 O906 2.455 . S
U886 O907 2.449 . S
O887 U886 2.454 . S
O887 C889 1.353 . S
O888 U886 2.458 . S
O888 C889 1.286 . S
C889 U886 2.984 . S
C889 O887 1.353 . S
C889 O888 1.286 . S
C889 C891 1.363 . S
C890 C880 1.465 . S
C890 U886 2.847 . S
C890 O904 1.249 . S
C890 O905 1.202 . S
C891 C889 1.363 . S
C891 C893 1.408 . S
C891 C896 1.342 . S
C892 C893 1.310 . S
C892 C895 1.461 . S
C892 H912 0.932 . S
C893 C891 1.408 . S
C893 C892 1.310 . S
C893 H913 0.930 . S
C894 C895 1.474 . S
C894 C896 1.285 . S
C894 H914 0.929 . S
C895 C892 1.461 . S
C895 C894 1.474 . S
C896 C891 1.342 . S
C896 C894 1.285 . S
C896 H915 0.930 . S
C897 C900 1.424 . S
C897 C902 1.245 . S
C897 C903 1.428 . S
C898 C901 1.260 . S
C898 C902 1.477 . S
C898 H916 0.932 . S
C899 C900 1.384 . S
C899 C901 1.479 . S
C899 H917 0.929 . S
C900 C897 1.424 . S
C900 C899 1.384 . S
C900 H918 0.928 . S
C901 C898 1.260 . S
C901 C899 1.479 . S
C902 C897 1.245 . S
C902 C898 1.477 . S
C902 H919 0.932 . S
C903 U886 2.882 . S
C903 C897 1.428 . S
C903 O906 1.301 . S
C903 O907 1.282 . S
O904 U886 2.441 . S
O904 C890 1.249 . S
O905 U886 2.420 . S
O905 C890 1.202 . S
O906 U886 2.455 . S
O906 C903 1.301 . S
O907 U886 2.449 . S
O907 C903 1.282 . S
H908 C881 0.931 . S
H909 C883 0.929 . S
H910 C884 0.930 . S
H911 C885 0.931 . S
H912 C892 0.932 . S
H913 C893 0.930 . S
H914 C894 0.929 . S
H915 C896 0.930 . S
H916 C898 0.932 . S
H917 C899 0.929 . S
H918 C900 0.928 . S
H919 C902 0.932 . S
C920 C921 1.264 . S
C920 C925 1.479 . S
C920 C930 1.465 . S
C921 C920 1.264 . S
C921 C923 1.339 . S
C921 H948 0.931 . S
C922 C923 1.395 . S
C922 C924 1.320 . S
C923 C921 1.339 . S
C923 C922 1.395 . S
C923 H949 0.929 . S
C924 C922 1.320 . S
C924 C925 1.405 . S
C924 H950 0.930 . S
C925 C920 1.479 . S
C925 C924 1.405 . S
C925 H951 0.931 . S
U926 O927 2.454 . S
U926 O928 2.458 . S
U926 C929 2.984 . S
U926 C930 2.847 . S
U926 C943 2.882 . S
U926 O944 2.441 . S
U926 O945 2.420 . S
U926 O946 2.455 . S
U926 O947 2.449 . S
O927 U926 2.454 . S
O927 C929 1.353 . S
O928 U926 2.458 . S
O928 C929 1.286 . S
C929 U926 2.984 . S
C929 O927 1.353 . S
C929 O928 1.286 . S
C929 C931 1.363 . S
C930 C920 1.465 . S
C930 U926 2.847 . S
C930 O944 1.249 . S
C930 O945 1.202 . S
C931 C929 1.363 . S
C931 C933 1.408 . S
C931 C936 1.342 . S
C932 C933 1.310 . S
C932 C935 1.461 . S
C932 H952 0.932 . S
C933 C931 1.408 . S
C933 C932 1.310 . S
C933 H953 0.930 . S
C934 C935 1.474 . S
C934 C936 1.285 . S
C934 H954 0.929 . S
C935 C932 1.461 . S
C935 C934 1.474 . S
C936 C931 1.342 . S
C936 C934 1.285 . S
C936 H955 0.930 . S
C937 C940 1.424 . S
C937 C942 1.245 . S
C937 C943 1.428 . S
C938 C941 1.260 . S
C938 C942 1.477 . S
C938 H956 0.932 . S
C939 C940 1.384 . S
C939 C941 1.479 . S
C939 H957 0.929 . S
C940 C937 1.424 . S
C940 C939 1.384 . S
C940 H958 0.928 . S
C941 C938 1.260 . S
C941 C939 1.479 . S
C942 C937 1.245 . S
C942 C938 1.477 . S
C942 H959 0.932 . S
C943 U926 2.882 . S
C943 C937 1.428 . S
C943 O946 1.301 . S
C943 O947 1.282 . S
O944 U926 2.441 . S
O944 C930 1.249 . S
O945 U926 2.420 . S
O945 C930 1.202 . S
O946 U926 2.455 . S
O946 C943 1.301 . S
O947 U926 2.449 . S
O947 C943 1.282 . S
H948 C921 0.931 . S
H949 C923 0.929 . S
H950 C924 0.930 . S
H951 C925 0.931 . S
H952 C932 0.932 . S
H953 C933 0.930 . S
H954 C934 0.929 . S
H955 C936 0.930 . S
H956 C938 0.932 . S
H957 C939 0.929 . S
H958 C940 0.928 . S
H959 C942 0.932 . S
C960 C961 1.264 . S
C960 C965 1.479 . S
C960 C970 1.465 . S
C961 C960 1.264 . S
C961 C963 1.339 . S
C961 H988 0.931 . S
C962 C963 1.395 . S
C962 C964 1.320 . S
C963 C961 1.339 . S
C963 C962 1.395 . S
C963 H989 0.929 . S
C964 C962 1.320 . S
C964 C965 1.405 . S
C964 H990 0.930 . S
C965 C960 1.479 . S
C965 C964 1.405 . S
C965 H991 0.931 . S
U966 O967 2.454 . S
U966 O968 2.458 . S
U966 C969 2.984 . S
U966 C970 2.847 . S
U966 C983 2.882 . S
U966 O984 2.441 . S
U966 O985 2.420 . S
U966 O986 2.455 . S
U966 O987 2.449 . S
O967 U966 2.454 . S
O967 C969 1.353 . S
O968 U966 2.458 . S
O968 C969 1.286 . S
C969 U966 2.984 . S
C969 O967 1.353 . S
C969 O968 1.286 . S
C969 C971 1.363 . S
C970 C960 1.465 . S
C970 U966 2.847 . S
C970 O984 1.249 . S
C970 O985 1.202 . S
C971 C969 1.363 . S
C971 C973 1.408 . S
C971 C976 1.342 . S
C972 C973 1.310 . S
C972 C975 1.461 . S
C972 H992 0.932 . S
C973 C971 1.408 . S
C973 C972 1.310 . S
C973 H993 0.930 . S
C974 C975 1.474 . S
C974 C976 1.285 . S
C974 H994 0.929 . S
C975 C972 1.461 . S
C975 C974 1.474 . S
C976 C971 1.342 . S
C976 C974 1.285 . S
C976 H995 0.930 . S
C977 C980 1.424 . S
C977 C982 1.245 . S
C977 C983 1.428 . S
C978 C981 1.260 . S
C978 C982 1.477 . S
C978 H996 0.932 . S
C979 C980 1.384 . S
C979 C981 1.479 . S
C979 H997 0.929 . S
C980 C977 1.424 . S
C980 C979 1.384 . S
C980 H998 0.928 . S
C981 C978 1.260 . S
C981 C979 1.479 . S
C982 C977 1.245 . S
C982 C978 1.477 . S
C982 H999 0.932 . S
C983 U966 2.882 . S
C983 C977 1.428 . S
C983 O986 1.301 . S
C983 O987 1.282 . S
O984 U966 2.441 . S
O984 C970 1.249 . S
O985 U966 2.420 . S
O985 C970 1.202 . S
O986 U966 2.455 . S
O986 C983 1.301 . S
O987 U966 2.449 . S
O987 C983 1.282 . S
H988 C961 0.931 . S
H989 C963 0.929 . S
H990 C964 0.930 . S
H991 C965 0.931 . S
H992 C972 0.932 . S
H993 C973 0.930 . S
H994 C974 0.929 . S
H995 C976 0.930 . S
H996 C978 0.932 . S
H997 C979 0.929 . S
H998 C980 0.928 . S
H999 C982 0.932 . S
C1000 C1001 1.264 . S
C1000 C1005 1.479 . S
C1000 C1010 1.465 . S
C1001 C1000 1.264 . S
C1001 C1003 1.339 . S
C1001 H1028 0.931 . S
C1002 C1003 1.395 . S
C1002 C1004 1.320 . S
C1003 C1001 1.339 . S
C1003 C1002 1.395 . S
C1003 H1029 0.929 . S
C1004 C1002 1.320 . S
C1004 C1005 1.405 . S
C1004 H1030 0.930 . S
C1005 C1000 1.479 . S
C1005 C1004 1.405 . S
C1005 H1031 0.931 . S
U1006 O1007 2.454 . S
U1006 O1008 2.458 . S
U1006 C1009 2.984 . S
U1006 C1010 2.847 . S
U1006 C1023 2.882 . S
U1006 O1024 2.441 . S
U1006 O1025 2.420 . S
U1006 O1026 2.455 . S
U1006 O1027 2.449 . S
O1007 U1006 2.454 . S
O1007 C1009 1.353 . S
O1008 U1006 2.458 . S
O1008 C1009 1.286 . S
C1009 U1006 2.984 . S
C1009 O1007 1.353 . S
C1009 O1008 1.286 . S
C1009 C1011 1.363 . S
C1010 C1000 1.465 . S
C1010 U1006 2.847 . S
C1010 O1024 1.249 . S
C1010 O1025 1.202 . S
C1011 C1009 1.363 . S
C1011 C1013 1.408 . S
C1011 C1016 1.342 . S
C1012 C1013 1.310 . S
C1012 C1015 1.461 . S
C1012 H1032 0.932 . S
C1013 C1011 1.408 . S
C1013 C1012 1.310 . S
C1013 H1033 0.930 . S
C1014 C1015 1.474 . S
C1014 C1016 1.285 . S
C1014 H1034 0.929 . S
C1015 C1012 1.461 . S
C1015 C1014 1.474 . S
C1016 C1011 1.342 . S
C1016 C1014 1.285 . S
C1016 H1035 0.930 . S
C1017 C1020 1.424 . S
C1017 C1022 1.245 . S
C1017 C1023 1.428 . S
C1018 C1021 1.260 . S
C1018 C1022 1.477 . S
C1018 H1036 0.932 . S
C1019 C1020 1.384 . S
C1019 C1021 1.479 . S
C1019 H1037 0.929 . S
C1020 C1017 1.424 . S
C1020 C1019 1.384 . S
C1020 H1038 0.928 . S
C1021 C1018 1.260 . S
C1021 C1019 1.479 . S
C1022 C1017 1.245 . S
C1022 C1018 1.477 . S
C1022 H1039 0.932 . S
C1023 U1006 2.882 . S
C1023 C1017 1.428 . S
C1023 O1026 1.301 . S
C1023 O1027 1.282 . S
O1024 U1006 2.441 . S
O1024 C1010 1.249 . S
O1025 U1006 2.420 . S
O1025 C1010 1.202 . S
O1026 U1006 2.455 . S
O1026 C1023 1.301 . S
O1027 U1006 2.449 . S
O1027 C1023 1.282 . S
H1028 C1001 0.931 . S
H1029 C1003 0.929 . S
H1030 C1004 0.930 . S
H1031 C1005 0.931 . S
H1032 C1012 0.932 . S
H1033 C1013 0.930 . S
H1034 C1014 0.929 . S
H1035 C1016 0.930 . S
H1036 C1018 0.932 . S
H1037 C1019 0.929 . S
H1038 C1020 0.928 . S
H1039 C1022 0.932 . S
C1040 C1041 1.264 . S
C1040 C1045 1.479 . S
C1040 C1050 1.465 . S
C1041 C1040 1.264 . S
C1041 C1043 1.339 . S
C1041 H1068 0.931 . S
C1042 C1043 1.395 . S
C1042 C1044 1.320 . S
C1043 C1041 1.339 . S
C1043 C1042 1.395 . S
C1043 H1069 0.929 . S
C1044 C1042 1.320 . S
C1044 C1045 1.405 . S
C1044 H1070 0.930 . S
C1045 C1040 1.479 . S
C1045 C1044 1.405 . S
C1045 H1071 0.931 . S
U1046 O1047 2.454 . S
U1046 O1048 2.458 . S
U1046 C1049 2.984 . S
U1046 C1050 2.847 . S
U1046 C1063 2.882 . S
U1046 O1064 2.441 . S
U1046 O1065 2.420 . S
U1046 O1066 2.455 . S
U1046 O1067 2.449 . S
O1047 U1046 2.454 . S
O1047 C1049 1.353 . S
O1048 U1046 2.458 . S
O1048 C1049 1.286 . S
C1049 U1046 2.984 . S
C1049 O1047 1.353 . S
C1049 O1048 1.286 . S
C1049 C1051 1.363 . S
C1050 C1040 1.465 . S
C1050 U1046 2.847 . S
C1050 O1064 1.249 . S
C1050 O1065 1.202 . S
C1051 C1049 1.363 . S
C1051 C1053 1.408 . S
C1051 C1056 1.342 . S
C1052 C1053 1.310 . S
C1052 C1055 1.461 . S
C1052 H1072 0.932 . S
C1053 C1051 1.408 . S
C1053 C1052 1.310 . S
C1053 H1073 0.930 . S
C1054 C1055 1.474 . S
C1054 C1056 1.285 . S
C1054 H1074 0.929 . S
C1055 C1052 1.461 . S
C1055 C1054 1.474 . S
C1056 C1051 1.342 . S
C1056 C1054 1.285 . S
C1056 H1075 0.930 . S
C1057 C1060 1.424 . S
C1057 C1062 1.245 . S
C1057 C1063 1.428 . S
C1058 C1061 1.260 . S
C1058 C1062 1.477 . S
C1058 H1076 0.932 . S
C1059 C1060 1.384 . S
C1059 C1061 1.479 . S
C1059 H1077 0.929 . S
C1060 C1057 1.424 . S
C1060 C1059 1.384 . S
C1060 H1078 0.928 . S
C1061 C1058 1.260 . S
C1061 C1059 1.479 . S
C1062 C1057 1.245 . S
C1062 C1058 1.477 . S
C1062 H1079 0.932 . S
C1063 U1046 2.882 . S
C1063 C1057 1.428 . S
C1063 O1066 1.301 . S
C1063 O1067 1.282 . S
O1064 U1046 2.441 . S
O1064 C1050 1.249 . S
O1065 U1046 2.420 . S
O1065 C1050 1.202 . S
O1066 U1046 2.455 . S
O1066 C1063 1.301 . S
O1067 U1046 2.449 . S
O1067 C1063 1.282 . S
H1068 C1041 0.931 . S
H1069 C1043 0.929 . S
H1070 C1044 0.930 . S
H1071 C1045 0.931 . S
H1072 C1052 0.932 . S
H1073 C1053 0.930 . S
H1074 C1054 0.929 . S
H1075 C1056 0.930 . S
H1076 C1058 0.932 . S
H1077 C1059 0.929 . S
H1078 C1060 0.928 . S
H1079 C1062 0.932 . S
C1080 C1081 1.264 . S
C1080 C1085 1.479 . S
C1080 C1090 1.465 . S
C1081 C1080 1.264 . S
C1081 C1083 1.339 . S
C1081 H1108 0.931 . S
C1082 C1083 1.395 . S
C1082 C1084 1.320 . S
C1083 C1081 1.339 . S
C1083 C1082 1.395 . S
C1083 H1109 0.929 . S
C1084 C1082 1.320 . S
C1084 C1085 1.405 . S
C1084 H1110 0.930 . S
C1085 C1080 1.479 . S
C1085 C1084 1.405 . S
C1085 H1111 0.931 . S
U1086 O1087 2.454 . S
U1086 O1088 2.458 . S
U1086 C1089 2.984 . S
U1086 C1090 2.847 . S
U1086 C1103 2.882 . S
U1086 O1104 2.441 . S
U1086 O1105 2.420 . S
U1086 O1106 2.455 . S
U1086 O1107 2.449 . S
O1087 U1086 2.454 . S
O1087 C1089 1.353 . S
O1088 U1086 2.458 . S
O1088 C1089 1.286 . S
C1089 U1086 2.984 . S
C1089 O1087 1.353 . S
C1089 O1088 1.286 . S
C1089 C1091 1.363 . S
C1090 C1080 1.465 . S
C1090 U1086 2.847 . S
C1090 O1104 1.249 . S
C1090 O1105 1.202 . S
C1091 C1089 1.363 . S
C1091 C1093 1.408 . S
C1091 C1096 1.342 . S
C1092 C1093 1.310 . S
C1092 C1095 1.461 . S
C1092 H1112 0.932 . S
C1093 C1091 1.408 . S
C1093 C1092 1.310 . S
C1093 H1113 0.930 . S
C1094 C1095 1.474 . S
C1094 C1096 1.285 . S
C1094 H1114 0.929 . S
C1095 C1092 1.461 . S
C1095 C1094 1.474 . S
C1096 C1091 1.342 . S
C1096 C1094 1.285 . S
C1096 H1115 0.930 . S
C1097 C1100 1.424 . S
C1097 C1102 1.245 . S
C1097 C1103 1.428 . S
C1098 C1101 1.260 . S
C1098 C1102 1.477 . S
C1098 H1116 0.932 . S
C1099 C1100 1.384 . S
C1099 C1101 1.479 . S
C1099 H1117 0.929 . S
C1100 C1097 1.424 . S
C1100 C1099 1.384 . S
C1100 H1118 0.928 . S
C1101 C1098 1.260 . S
C1101 C1099 1.479 . S
C1102 C1097 1.245 . S
C1102 C1098 1.477 . S
C1102 H1119 0.932 . S
C1103 U1086 2.882 . S
C1103 C1097 1.428 . S
C1103 O1106 1.301 . S
C1103 O1107 1.282 . S
O1104 U1086 2.441 . S
O1104 C1090 1.249 . S
O1105 U1086 2.420 . S
O1105 C1090 1.202 . S
O1106 U1086 2.455 . S
O1106 C1103 1.301 . S
O1107 U1086 2.449 . S
O1107 C1103 1.282 . S
H1108 C1081 0.931 . S
H1109 C1083 0.929 . S
H1110 C1084 0.930 . S
H1111 C1085 0.931 . S
H1112 C1092 0.932 . S
H1113 C1093 0.930 . S
H1114 C1094 0.929 . S
H1115 C1096 0.930 . S
H1116 C1098 0.932 . S
H1117 C1099 0.929 . S
H1118 C1100 0.928 . S
H1119 C1102 0.932 . S
C1120 C1121 1.264 . S
C1120 C1125 1.479 . S
C1120 C1130 1.465 . S
C1121 C1120 1.264 . S
C1121 C1123 1.339 . S
C1121 H1148 0.931 . S
C1122 C1123 1.395 . S
C1122 C1124 1.320 . S
C1123 C1121 1.339 . S
C1123 C1122 1.395 . S
C1123 H1149 0.929 . S
C1124 C1122 1.320 . S
C1124 C1125 1.405 . S
C1124 H1150 0.930 . S
C1125 C1120 1.479 . S
C1125 C1124 1.405 . S
C1125 H1151 0.931 . S
U1126 O1127 2.454 . S
U1126 O1128 2.458 . S
U1126 C1129 2.984 . S
U1126 C1130 2.847 . S
U1126 C1143 2.882 . S
U1126 O1144 2.441 . S
U1126 O1145 2.420 . S
U1126 O1146 2.455 . S
U1126 O1147 2.449 . S
O1127 U1126 2.454 . S
O1127 C1129 1.353 . S
O1128 U1126 2.458 . S
O1128 C1129 1.286 . S
C1129 U1126 2.984 . S
C1129 O1127 1.353 . S
C1129 O1128 1.286 . S
C1129 C1131 1.363 . S
C1130 C1120 1.465 . S
C1130 U1126 2.847 . S
C1130 O1144 1.249 . S
C1130 O1145 1.202 . S
C1131 C1129 1.363 . S
C1131 C1133 1.408 . S
C1131 C1136 1.342 . S
C1132 C1133 1.310 . S
C1132 C1135 1.461 . S
C1132 H1152 0.932 . S
C1133 C1131 1.408 . S
C1133 C1132 1.310 . S
C1133 H1153 0.930 . S
C1134 C1135 1.474 . S
C1134 C1136 1.285 . S
C1134 H1154 0.929 . S
C1135 C1132 1.461 . S
C1135 C1134 1.474 . S
C1136 C1131 1.342 . S
C1136 C1134 1.285 . S
C1136 H1155 0.930 . S
C1137 C1140 1.424 . S
C1137 C1142 1.245 . S
C1137 C1143 1.428 . S
C1138 C1141 1.260 . S
C1138 C1142 1.477 . S
C1138 H1156 0.932 . S
C1139 C1140 1.384 . S
C1139 C1141 1.479 . S
C1139 H1157 0.929 . S
C1140 C1137 1.424 . S
C1140 C1139 1.384 . S
C1140 H1158 0.928 . S
C1141 C1138 1.260 . S
C1141 C1139 1.479 . S
C1142 C1137 1.245 . S
C1142 C1138 1.477 . S
C1142 H1159 0.932 . S
C1143 U1126 2.882 . S
C1143 C1137 1.428 . S
C1143 O1146 1.301 . S
C1143 O1147 1.282 . S
O1144 U1126 2.441 . S
O1144 C1130 1.249 . S
O1145 U1126 2.420 . S
O1145 C1130 1.202 . S
O1146 U1126 2.455 . S
O1146 C1143 1.301 . S
O1147 U1126 2.449 . S
O1147 C1143 1.282 . S
H1148 C1121 0.931 . S
H1149 C1123 0.929 . S
H1150 C1124 0.930 . S
H1151 C1125 0.931 . S
H1152 C1132 0.932 . S
H1153 C1133 0.930 . S
H1154 C1134 0.929 . S
H1155 C1136 0.930 . S
H1156 C1138 0.932 . S
H1157 C1139 0.929 . S
H1158 C1140 0.928 . S
H1159 C1142 0.932 . S
C1160 C1161 1.264 . S
C1160 C1165 1.479 . S
C1160 C1170 1.465 . S
C1161 C1160 1.264 . S
C1161 C1163 1.339 . S
C1161 H1188 0.931 . S
C1162 C1163 1.395 . S
C1162 C1164 1.320 . S
C1163 C1161 1.339 . S
C1163 C1162 1.395 . S
C1163 H1189 0.929 . S
C1164 C1162 1.320 . S
C1164 C1165 1.405 . S
C1164 H1190 0.930 . S
C1165 C1160 1.479 . S
C1165 C1164 1.405 . S
C1165 H1191 0.931 . S
U1166 O1167 2.454 . S
U1166 O1168 2.458 . S
U1166 C1169 2.984 . S
U1166 C1170 2.847 . S
U1166 C1183 2.882 . S
U1166 O1184 2.441 . S
U1166 O1185 2.420 . S
U1166 O1186 2.455 . S
U1166 O1187 2.449 . S
O1167 U1166 2.454 . S
O1167 C1169 1.353 . S
O1168 U1166 2.458 . S
O1168 C1169 1.286 . S
C1169 U1166 2.984 . S
C1169 O1167 1.353 . S
C1169 O1168 1.286 . S
C1169 C1171 1.363 . S
C1170 C1160 1.465 . S
C1170 U1166 2.847 . S
C1170 O1184 1.249 . S
C1170 O1185 1.202 . S
C1171 C1169 1.363 . S
C1171 C1173 1.408 . S
C1171 C1176 1.342 . S
C1172 C1173 1.310 . S
C1172 C1175 1.461 . S
C1172 H1192 0.932 . S
C1173 C1171 1.408 . S
C1173 C1172 1.310 . S
C1173 H1193 0.930 . S
C1174 C1175 1.474 . S
C1174 C1176 1.285 . S
C1174 H1194 0.929 . S
C1175 C1172 1.461 . S
C1175 C1174 1.474 . S
C1176 C1171 1.342 . S
C1176 C1174 1.285 . S
C1176 H1195 0.930 . S
C1177 C1180 1.424 . S
C1177 C1182 1.245 . S
C1177 C1183 1.428 . S
C1178 C1181 1.260 . S
C1178 C1182 1.477 . S
C1178 H1196 0.932 . S
C1179 C1180 1.384 . S
C1179 C1181 1.479 . S
C1179 H1197 0.929 . S
C1180 C1177 1.424 . S
C1180 C1179 1.384 . S
C1180 H1198 0.928 . S
C1181 C1178 1.260 . S
C1181 C1179 1.479 . S
C1182 C1177 1.245 . S
C1182 C1178 1.477 . S
C1182 H1199 0.932 . S
C1183 U1166 2.882 . S
C1183 C1177 1.428 . S
C1183 O1186 1.301 . S
C1183 O1187 1.282 . S
O1184 U1166 2.441 . S
O1184 C1170 1.249 . S
O1185 U1166 2.420 . S
O1185 C1170 1.202 . S
O1186 U1166 2.455 . S
O1186 C1183 1.301 . S
O1187 U1166 2.449 . S
O1187 C1183 1.282 . S
H1188 C1161 0.931 . S
H1189 C1163 0.929 . S
H1190 C1164 0.930 . S
H1191 C1165 0.931 . S
H1192 C1172 0.932 . S
H1193 C1173 0.930 . S
H1194 C1174 0.929 . S
H1195 C1176 0.930 . S
H1196 C1178 0.932 . S
H1197 C1179 0.929 . S
H1198 C1180 0.928 . S
H1199 C1182 0.932 . S
C1200 C1201 1.264 . S
C1200 C1205 1.479 . S
C1200 C1210 1.465 . S
C1201 C1200 1.264 . S
C1201 C1203 1.339 . S
C1201 H1228 0.931 . S
C1202 C1203 1.395 . S
C1202 C1204 1.320 . S
C1203 C1201 1.339 . S
C1203 C1202 1.395 . S
C1203 H1229 0.929 . S
C1204 C1202 1.320 . S
C1204 C1205 1.405 . S
C1204 H1230 0.930 . S
C1205 C1200 1.479 . S
C1205 C1204 1.405 . S
C1205 H1231 0.931 . S
U1206 O1207 2.454 . S
U1206 O1208 2.458 . S
U1206 C1209 2.984 . S
U1206 C1210 2.847 . S
U1206 C1223 2.882 . S
U1206 O1224 2.441 . S
U1206 O1225 2.420 . S
U1206 O1226 2.455 . S
U1206 O1227 2.449 . S
O1207 U1206 2.454 . S
O1207 C1209 1.353 . S
O1208 U1206 2.458 . S
O1208 C1209 1.286 . S
C1209 U1206 2.984 . S
C1209 O1207 1.353 . S
C1209 O1208 1.286 . S
C1209 C1211 1.363 . S
C1210 C1200 1.465 . S
C1210 U1206 2.847 . S
C1210 O1224 1.249 . S
C1210 O1225 1.202 . S
C1211 C1209 1.363 . S
C1211 C1213 1.408 . S
C1211 C1216 1.342 . S
C1212 C1213 1.310 . S
C1212 C1215 1.461 . S
C1212 H1232 0.932 . S
C1213 C1211 1.408 . S
C1213 C1212 1.310 . S
C1213 H1233 0.930 . S
C1214 C1215 1.474 . S
C1214 C1216 1.285 . S
C1214 H1234 0.929 . S
C1215 C1212 1.461 . S
C1215 C1214 1.474 . S
C1216 C1211 1.342 . S
C1216 C1214 1.285 . S
C1216 H1235 0.930 . S
C1217 C1220 1.424 . S
C1217 C1222 1.245 . S
C1217 C1223 1.428 . S
C1218 C1221 1.260 . S
C1218 C1222 1.477 . S
C1218 H1236 0.932 . S
C1219 C1220 1.384 . S
C1219 C1221 1.479 . S
C1219 H1237 0.929 . S
C1220 C1217 1.424 . S
C1220 C1219 1.384 . S
C1220 H1238 0.928 . S
C1221 C1218 1.260 . S
C1221 C1219 1.479 . S
C1222 C1217 1.245 . S
C1222 C1218 1.477 . S
C1222 H1239 0.932 . S
C1223 U1206 2.882 . S
C1223 C1217 1.428 . S
C1223 O1226 1.301 . S
C1223 O1227 1.282 . S
O1224 U1206 2.441 . S
O1224 C1210 1.249 . S
O1225 U1206 2.420 . S
O1225 C1210 1.202 . S
O1226 U1206 2.455 . S
O1226 C1223 1.301 . S
O1227 U1206 2.449 . S
O1227 C1223 1.282 . S
H1228 C1201 0.931 . S
H1229 C1203 0.929 . S
H1230 C1204 0.930 . S
H1231 C1205 0.931 . S
H1232 C1212 0.932 . S
H1233 C1213 0.930 . S
H1234 C1214 0.929 . S
H1235 C1216 0.930 . S
H1236 C1218 0.932 . S
H1237 C1219 0.929 . S
H1238 C1220 0.928 . S
H1239 C1222 0.932 . S
C1240 C1241 1.264 . S
C1240 C1245 1.479 . S
C1240 C1250 1.465 . S
C1241 C1240 1.264 . S
C1241 C1243 1.339 . S
C1241 H1268 0.931 . S
C1242 C1243 1.395 . S
C1242 C1244 1.320 . S
C1243 C1241 1.339 . S
C1243 C1242 1.395 . S
C1243 H1269 0.929 . S
C1244 C1242 1.320 . S
C1244 C1245 1.405 . S
C1244 H1270 0.930 . S
C1245 C1240 1.479 . S
C1245 C1244 1.405 . S
C1245 H1271 0.931 . S
U1246 O1247 2.454 . S
U1246 O1248 2.458 . S
U1246 C1249 2.984 . S
U1246 C1250 2.847 . S
U1246 C1263 2.882 . S
U1246 O1264 2.441 . S
U1246 O1265 2.420 . S
U1246 O1266 2.455 . S
U1246 O1267 2.449 . S
O1247 U1246 2.454 . S
O1247 C1249 1.353 . S
O1248 U1246 2.458 . S
O1248 C1249 1.286 . S
C1249 U1246 2.984 . S
C1249 O1247 1.353 . S
C1249 O1248 1.286 . S
C1249 C1251 1.363 . S
C1250 C1240 1.465 . S
C1250 U1246 2.847 . S
C1250 O1264 1.249 . S
C1250 O1265 1.202 . S
C1251 C1249 1.363 . S
C1251 C1253 1.408 . S
C1251 C1256 1.342 . S
C1252 C1253 1.310 . S
C1252 C1255 1.461 . S
C1252 H1272 0.932 . S
C1253 C1251 1.408 . S
C1253 C1252 1.310 . S
C1253 H1273 0.930 . S
C1254 C1255 1.474 . S
C1254 C1256 1.285 . S
C1254 H1274 0.929 . S
C1255 C1252 1.461 . S
C1255 C1254 1.474 . S
C1256 C1251 1.342 . S
C1256 C1254 1.285 . S
C1256 H1275 0.930 . S
C1257 C1260 1.424 . S
C1257 C1262 1.245 . S
C1257 C1263 1.428 . S
C1258 C1261 1.260 . S
C1258 C1262 1.477 . S
C1258 H1276 0.932 . S
C1259 C1260 1.384 . S
C1259 C1261 1.479 . S
C1259 H1277 0.929 . S
C1260 C1257 1.424 . S
C1260 C1259 1.384 . S
C1260 H1278 0.928 . S
C1261 C1258 1.260 . S
C1261 C1259 1.479 . S
C1262 C1257 1.245 . S
C1262 C1258 1.477 . S
C1262 H1279 0.932 . S
C1263 U1246 2.882 . S
C1263 C1257 1.428 . S
C1263 O1266 1.301 . S
C1263 O1267 1.282 . S
O1264 U1246 2.441 . S
O1264 C1250 1.249 . S
O1265 U1246 2.420 . S
O1265 C1250 1.202 . S
O1266 U1246 2.455 . S
O1266 C1263 1.301 . S
O1267 U1246 2.449 . S
O1267 C1263 1.282 . S
H1268 C1241 0.931 . S
H1269 C1243 0.929 . S
H1270 C1244 0.930 . S
H1271 C1245 0.931 . S
H1272 C1252 0.932 . S
H1273 C1253 0.930 . S
H1274 C1254 0.929 . S
H1275 C1256 0.930 . S
H1276 C1258 0.932 . S
H1277 C1259 0.929 . S
H1278 C1260 0.928 . S
H1279 C1262 0.932 . S
H1280 C1286 0.930 . S
H1281 C1289 0.931 . S
H1282 C1291 0.931 . S
H1283 C1293 0.930 . S
H1284 C1295 0.930 . S
H1285 C1297 0.931 . S
C1286 H1280 0.930 . S
C1286 C1287 1.380 . S
C1286 C1288 1.394 . S
C1287 C1286 1.380 . S
C1287 C1291 1.382 . S
C1288 C1286 1.394 . S
C1288 C1289 1.400 . S
C1289 H1281 0.931 . S
C1289 C1288 1.400 . S
C1289 C1290 1.375 . S
C1290 C1289 1.375 . S
C1290 C1291 1.415 . S
C1290 C1292 1.501 1_556 S
C1291 H1282 0.931 . S
C1291 C1287 1.382 . S
C1291 C1290 1.415 . S
C1292 C1290 1.501 1_554 S
C1292 C1293 1.384 . S
C1292 C1297 1.408 . S
C1293 H1283 0.930 . S
C1293 C1292 1.384 . S
C1293 C1294 1.389 . S
C1294 C1293 1.389 . S
C1294 C1295 1.405 . S
C1295 H1284 0.930 . S
C1295 C1294 1.405 . S
C1295 C1296 1.364 . S
C1296 C1295 1.364 . S
C1296 C1297 1.400 . S
C1297 H1285 0.931 . S
C1297 C1292 1.408 . S
C1297 C1296 1.400 . S
H1298 C1304 0.930 . S
H1299 C1307 0.931 . S
H1300 C1309 0.931 . S
H1301 C1311 0.930 . S
H1302 C1313 0.930 . S
H1303 C1315 0.931 . S
C1304 H1298 0.930 . S
C1304 C1305 1.380 . S
C1304 C1306 1.394 . S
C1305 C1304 1.380 . S
C1305 C1309 1.382 . S
C1306 C1304 1.394 . S
C1306 C1307 1.400 . S
C1307 H1299 0.931 . S
C1307 C1306 1.400 . S
C1307 C1308 1.375 . S
C1308 C1307 1.375 . S
C1308 C1309 1.415 . S
C1308 C1310 1.501 1_554 S
C1309 H1300 0.931 . S
C1309 C1305 1.382 . S
C1309 C1308 1.415 . S
C1310 C1308 1.501 1_556 S
C1310 C1311 1.384 . S
C1310 C1315 1.408 . S
C1311 H1301 0.930 . S
C1311 C1310 1.384 . S
C1311 C1312 1.389 . S
C1312 C1311 1.389 . S
C1312 C1313 1.405 . S
C1313 H1302 0.930 . S
C1313 C1312 1.405 . S
C1313 C1314 1.364 . S
C1314 C1313 1.364 . S
C1314 C1315 1.400 . S
C1315 H1303 0.931 . S
C1315 C1310 1.408 . S
C1315 C1314 1.400 . S
H1316 C1322 0.930 . S
H1317 C1325 0.931 . S
H1318 C1327 0.931 . S
H1319 C1329 0.930 . S
H1320 C1331 0.930 . S
H1321 C1333 0.931 . S
C1322 H1316 0.930 . S
C1322 C1323 1.380 . S
C1322 C1324 1.394 . S
C1323 C1322 1.380 . S
C1323 C1327 1.382 . S
C1324 C1322 1.394 . S
C1324 C1325 1.400 . S
C1325 H1317 0.931 . S
C1325 C1324 1.400 . S
C1325 C1326 1.375 . S
C1326 C1325 1.375 . S
C1326 C1327 1.415 . S
C1326 C1328 1.501 1_556 S
C1327 H1318 0.931 . S
C1327 C1323 1.382 . S
C1327 C1326 1.415 . S
C1328 C1326 1.501 1_554 S
C1328 C1329 1.384 . S
C1328 C1333 1.408 . S
C1329 H1319 0.930 . S
C1329 C1328 1.384 . S
C1329 C1330 1.389 . S
C1330 C1329 1.389 . S
C1330 C1331 1.405 . S
C1331 H1320 0.930 . S
C1331 C1330 1.405 . S
C1331 C1332 1.364 . S
C1332 C1331 1.364 . S
C1332 C1333 1.400 . S
C1333 H1321 0.931 . S
C1333 C1328 1.408 . S
C1333 C1332 1.400 . S
H1334 C1340 0.930 . S
H1335 C1343 0.931 . S
H1336 C1345 0.931 . S
H1337 C1347 0.930 . S
H1338 C1349 0.930 . S
H1339 C1351 0.931 . S
C1340 H1334 0.930 . S
C1340 C1341 1.380 . S
C1340 C1342 1.394 . S
C1341 C1340 1.380 . S
C1341 C1345 1.382 . S
C1342 C1340 1.394 . S
C1342 C1343 1.400 . S
C1343 H1335 0.931 . S
C1343 C1342 1.400 . S
C1343 C1344 1.375 . S
C1344 C1343 1.375 . S
C1344 C1345 1.415 . S
C1344 C1346 1.501 1_554 S
C1345 H1336 0.931 . S
C1345 C1341 1.382 . S
C1345 C1344 1.415 . S
C1346 C1344 1.501 1_556 S
C1346 C1347 1.384 . S
C1346 C1351 1.408 . S
C1347 H1337 0.930 . S
C1347 C1346 1.384 . S
C1347 C1348 1.389 . S
C1348 C1347 1.389 . S
C1348 C1349 1.405 . S
C1349 H1338 0.930 . S
C1349 C1348 1.405 . S
C1349 C1350 1.364 . S
C1350 C1349 1.364 . S
C1350 C1351 1.400 . S
C1351 H1339 0.931 . S
C1351 C1346 1.408 . S
C1351 C1350 1.400 . S
H1352 C1358 0.930 . S
H1353 C1361 0.931 . S
H1354 C1363 0.931 . S
H1355 C1365 0.930 . S
H1356 C1367 0.930 . S
H1357 C1369 0.931 . S
C1358 H1352 0.930 . S
C1358 C1359 1.380 . S
C1358 C1360 1.394 . S
C1359 C1358 1.380 . S
C1359 C1363 1.382 . S
C1360 C1358 1.394 . S
C1360 C1361 1.400 . S
C1361 H1353 0.931 . S
C1361 C1360 1.400 . S
C1361 C1362 1.375 . S
C1362 C1361 1.375 . S
C1362 C1363 1.415 . S
C1362 C1364 1.501 1_455 S
C1363 H1354 0.931 . S
C1363 C1359 1.382 . S
C1363 C1362 1.415 . S
C1364 C1362 1.501 1_655 S
C1364 C1365 1.384 . S
C1364 C1369 1.408 . S
C1365 H1355 0.930 . S
C1365 C1364 1.384 . S
C1365 C1366 1.389 . S
C1366 C1365 1.389 . S
C1366 C1367 1.405 . S
C1367 H1356 0.930 . S
C1367 C1366 1.405 . S
C1367 C1368 1.364 . S
C1368 C1367 1.364 . S
C1368 C1369 1.400 . S
C1369 H1357 0.931 . S
C1369 C1364 1.408 . S
C1369 C1368 1.400 . S
H1370 C1376 0.930 . S
H1371 C1379 0.931 . S
H1372 C1381 0.931 . S
H1373 C1383 0.930 . S
H1374 C1385 0.930 . S
H1375 C1387 0.931 . S
C1376 H1370 0.930 . S
C1376 C1377 1.380 . S
C1376 C1378 1.394 . S
C1377 C1376 1.380 . S
C1377 C1381 1.382 . S
C1378 C1376 1.394 . S
C1378 C1379 1.400 . S
C1379 H1371 0.931 . S
C1379 C1378 1.400 . S
C1379 C1380 1.375 . S
C1380 C1379 1.375 . S
C1380 C1381 1.415 . S
C1380 C1382 1.501 1_565 S
C1381 H1372 0.931 . S
C1381 C1377 1.382 . S
C1381 C1380 1.415 . S
C1382 C1380 1.501 1_545 S
C1382 C1383 1.384 . S
C1382 C1387 1.408 . S
C1383 H1373 0.930 . S
C1383 C1382 1.384 . S
C1383 C1384 1.389 . S
C1384 C1383 1.389 . S
C1384 C1385 1.405 . S
C1385 H1374 0.930 . S
C1385 C1384 1.405 . S
C1385 C1386 1.364 . S
C1386 C1385 1.364 . S
C1386 C1387 1.400 . S
C1387 H1375 0.931 . S
C1387 C1382 1.408 . S
C1387 C1386 1.400 . S
H1388 C1394 0.930 . S
H1389 C1397 0.931 . S
H1390 C1399 0.931 . S
H1391 C1401 0.930 . S
H1392 C1403 0.930 . S
H1393 C1405 0.931 . S
C1394 H1388 0.930 . S
C1394 C1395 1.380 . S
C1394 C1396 1.394 . S
C1395 C1394 1.380 . S
C1395 C1399 1.382 . S
C1396 C1394 1.394 . S
C1396 C1397 1.400 . S
C1397 H1389 0.931 . S
C1397 C1396 1.400 . S
C1397 C1398 1.375 . S
C1398 C1397 1.375 . S
C1398 C1399 1.415 . S
C1398 C1400 1.501 1_455 S
C1399 H1390 0.931 . S
C1399 C1395 1.382 . S
C1399 C1398 1.415 . S
C1400 C1398 1.501 1_655 S
C1400 C1401 1.384 . S
C1400 C1405 1.408 . S
C1401 H1391 0.930 . S
C1401 C1400 1.384 . S
C1401 C1402 1.389 . S
C1402 C1401 1.389 . S
C1402 C1403 1.405 . S
C1403 H1392 0.930 . S
C1403 C1402 1.405 . S
C1403 C1404 1.364 . S
C1404 C1403 1.364 . S
C1404 C1405 1.400 . S
C1405 H1393 0.931 . S
C1405 C1400 1.408 . S
C1405 C1404 1.400 . S
H1406 C1412 0.930 . S
H1407 C1415 0.931 . S
H1408 C1417 0.931 . S
H1409 C1419 0.930 . S
H1410 C1421 0.930 . S
H1411 C1423 0.931 . S
C1412 H1406 0.930 . S
C1412 C1413 1.380 . S
C1412 C1414 1.394 . S
C1413 C1412 1.380 . S
C1413 C1417 1.382 . S
C1414 C1412 1.394 . S
C1414 C1415 1.400 . S
C1415 H1407 0.931 . S
C1415 C1414 1.400 . S
C1415 C1416 1.375 . S
C1416 C1415 1.375 . S
C1416 C1417 1.415 . S
C1416 C1418 1.501 1_545 S
C1417 H1408 0.931 . S
C1417 C1413 1.382 . S
C1417 C1416 1.415 . S
C1418 C1416 1.501 1_565 S
C1418 C1419 1.384 . S
C1418 C1423 1.408 . S
C1419 H1409 0.930 . S
C1419 C1418 1.384 . S
C1419 C1420 1.389 . S
C1420 C1419 1.389 . S
C1420 C1421 1.405 . S
C1421 H1410 0.930 . S
C1421 C1420 1.405 . S
C1421 C1422 1.364 . S
C1422 C1421 1.364 . S
C1422 C1423 1.400 . S
C1423 H1411 0.931 . S
C1423 C1418 1.408 . S
C1423 C1422 1.400 . S
H1424 C1430 0.930 . S
H1425 C1433 0.931 . S
H1426 C1435 0.931 . S
H1427 C1437 0.930 . S
H1428 C1439 0.930 . S
H1429 C1441 0.931 . S
C1430 H1424 0.930 . S
C1430 C1431 1.380 . S
C1430 C1432 1.394 . S
C1431 C1430 1.380 . S
C1431 C1435 1.382 . S
C1432 C1430 1.394 . S
C1432 C1433 1.400 . S
C1433 H1425 0.931 . S
C1433 C1432 1.400 . S
C1433 C1434 1.375 . S
C1434 C1433 1.375 . S
C1434 C1435 1.415 . S
C1434 C1436 1.501 1_455 S
C1435 H1426 0.931 . S
C1435 C1431 1.382 . S
C1435 C1434 1.415 . S
C1436 C1434 1.501 1_655 S
C1436 C1437 1.384 . S
C1436 C1441 1.408 . S
C1437 H1427 0.930 . S
C1437 C1436 1.384 . S
C1437 C1438 1.389 . S
C1438 C1437 1.389 . S
C1438 C1439 1.405 . S
C1439 H1428 0.930 . S
C1439 C1438 1.405 . S
C1439 C1440 1.364 . S
C1440 C1439 1.364 . S
C1440 C1441 1.400 . S
C1441 H1429 0.931 . S
C1441 C1436 1.408 . S
C1441 C1440 1.400 . S
H1442 C1448 0.930 . S
H1443 C1451 0.931 . S
H1444 C1453 0.931 . S
H1445 C1455 0.930 . S
H1446 C1457 0.930 . S
H1447 C1459 0.931 . S
C1448 H1442 0.930 . S
C1448 C1449 1.380 . S
C1448 C1450 1.394 . S
C1449 C1448 1.380 . S
C1449 C1453 1.382 . S
C1450 C1448 1.394 . S
C1450 C1451 1.400 . S
C1451 H1443 0.931 . S
C1451 C1450 1.400 . S
C1451 C1452 1.375 . S
C1452 C1451 1.375 . S
C1452 C1453 1.415 . S
C1452 C1454 1.501 1_565 S
C1453 H1444 0.931 . S
C1453 C1449 1.382 . S
C1453 C1452 1.415 . S
C1454 C1452 1.501 1_545 S
C1454 C1455 1.384 . S
C1454 C1459 1.408 . S
C1455 H1445 0.930 . S
C1455 C1454 1.384 . S
C1455 C1456 1.389 . S
C1456 C1455 1.389 . S
C1456 C1457 1.405 . S
C1457 H1446 0.930 . S
C1457 C1456 1.405 . S
C1457 C1458 1.364 . S
C1458 C1457 1.364 . S
C1458 C1459 1.400 . S
C1459 H1447 0.931 . S
C1459 C1454 1.408 . S
C1459 C1458 1.400 . S
H1460 C1466 0.930 . S
H1461 C1469 0.931 . S
H1462 C1471 0.931 . S
H1463 C1473 0.930 . S
H1464 C1475 0.930 . S
H1465 C1477 0.931 . S
C1466 H1460 0.930 . S
C1466 C1467 1.380 . S
C1466 C1468 1.394 . S
C1467 C1466 1.380 . S
C1467 C1471 1.382 . S
C1468 C1466 1.394 . S
C1468 C1469 1.400 . S
C1469 H1461 0.931 . S
C1469 C1468 1.400 . S
C1469 C1470 1.375 . S
C1470 C1469 1.375 . S
C1470 C1471 1.415 . S
C1470 C1472 1.501 1_455 S
C1471 H1462 0.931 . S
C1471 C1467 1.382 . S
C1471 C1470 1.415 . S
C1472 C1470 1.501 1_655 S
C1472 C1473 1.384 . S
C1472 C1477 1.408 . S
C1473 H1463 0.930 . S
C1473 C1472 1.384 . S
C1473 C1474 1.389 . S
C1474 C1473 1.389 . S
C1474 C1475 1.405 . S
C1475 H1464 0.930 . S
C1475 C1474 1.405 . S
C1475 C1476 1.364 . S
C1476 C1475 1.364 . S
C1476 C1477 1.400 . S
C1477 H1465 0.931 . S
C1477 C1472 1.408 . S
C1477 C1476 1.400 . S
H1478 C1484 0.930 . S
H1479 C1487 0.931 . S
H1480 C1489 0.931 . S
H1481 C1491 0.930 . S
H1482 C1493 0.930 . S
H1483 C1495 0.931 . S
C1484 H1478 0.930 . S
C1484 C1485 1.380 . S
C1484 C1486 1.394 . S
C1485 C1484 1.380 . S
C1485 C1489 1.382 . S
C1486 C1484 1.394 . S
C1486 C1487 1.400 . S
C1487 H1479 0.931 . S
C1487 C1486 1.400 . S
C1487 C1488 1.375 . S
C1488 C1487 1.375 . S
C1488 C1489 1.415 . S
C1488 C1490 1.501 1_545 S
C1489 H1480 0.931 . S
C1489 C1485 1.382 . S
C1489 C1488 1.415 . S
C1490 C1488 1.501 1_565 S
C1490 C1491 1.384 . S
C1490 C1495 1.408 . S
C1491 H1481 0.930 . S
C1491 C1490 1.384 . S
C1491 C1492 1.389 . S
C1492 C1491 1.389 . S
C1492 C1493 1.405 . S
C1493 H1482 0.930 . S
C1493 C1492 1.405 . S
C1493 C1494 1.364 . S
C1494 C1493 1.364 . S
C1494 C1495 1.400 . S
C1495 H1483 0.931 . S
C1495 C1490 1.408 . S
C1495 C1494 1.400 . S
H1496 C1502 0.930 . S
H1497 C1505 0.931 . S
H1498 C1507 0.931 . S
H1499 C1509 0.930 . S
H1500 C1511 0.930 . S
H1501 C1513 0.931 . S
C1502 H1496 0.930 . S
C1502 C1503 1.380 . S
C1502 C1504 1.394 . S
C1503 C1502 1.380 . S
C1503 C1507 1.382 . S
C1504 C1502 1.394 . S
C1504 C1505 1.400 . S
C1505 H1497 0.931 . S
C1505 C1504 1.400 . S
C1505 C1506 1.375 . S
C1506 C1505 1.375 . S
C1506 C1507 1.415 . S
C1506 C1508 1.501 . S
C1507 H1498 0.931 . S
C1507 C1503 1.382 . S
C1507 C1506 1.415 . S
C1508 C1506 1.501 . S
C1508 C1509 1.384 . S
C1508 C1513 1.408 . S
C1509 H1499 0.930 . S
C1509 C1508 1.384 . S
C1509 C1510 1.389 . S
C1510 C1509 1.389 . S
C1510 C1511 1.405 . S
C1511 H1500 0.930 . S
C1511 C1510 1.405 . S
C1511 C1512 1.364 . S
C1512 C1511 1.364 . S
C1512 C1513 1.400 . S
C1513 H1501 0.931 . S
C1513 C1508 1.408 . S
C1513 C1512 1.400 . S
H1514 C1520 0.930 . S
H1515 C1523 0.931 . S
H1516 C1525 0.931 . S
H1517 C1527 0.930 . S
H1518 C1529 0.930 . S
H1519 C1531 0.931 . S
C1520 H1514 0.930 . S
C1520 C1521 1.380 . S
C1520 C1522 1.394 . S
C1521 C1520 1.380 . S
C1521 C1525 1.382 . S
C1522 C1520 1.394 . S
C1522 C1523 1.400 . S
C1523 H1515 0.931 . S
C1523 C1522 1.400 . S
C1523 C1524 1.375 . S
C1524 C1523 1.375 . S
C1524 C1525 1.415 . S
C1524 C1526 1.501 . S
C1525 H1516 0.931 . S
C1525 C1521 1.382 . S
C1525 C1524 1.415 . S
C1526 C1524 1.501 . S
C1526 C1527 1.384 . S
C1526 C1531 1.408 . S
C1527 H1517 0.930 . S
C1527 C1526 1.384 . S
C1527 C1528 1.389 . S
C1528 C1527 1.389 . S
C1528 C1529 1.405 . S
C1529 H1518 0.930 . S
C1529 C1528 1.405 . S
C1529 C1530 1.364 . S
C1530 C1529 1.364 . S
C1530 C1531 1.400 . S
C1531 H1519 0.931 . S
C1531 C1526 1.408 . S
C1531 C1530 1.400 . S
H1532 C1538 0.930 . S
H1533 C1541 0.931 . S
H1534 C1543 0.931 . S
H1535 C1545 0.930 . S
H1536 C1547 0.930 . S
H1537 C1549 0.931 . S
C1538 H1532 0.930 . S
C1538 C1539 1.380 . S
C1538 C1540 1.394 . S
C1539 C1538 1.380 . S
C1539 C1543 1.382 . S
C1540 C1538 1.394 . S
C1540 C1541 1.400 . S
C1541 H1533 0.931 . S
C1541 C1540 1.400 . S
C1541 C1542 1.375 . S
C1542 C1541 1.375 . S
C1542 C1543 1.415 . S
C1542 C1544 1.501 . S
C1543 H1534 0.931 . S
C1543 C1539 1.382 . S
C1543 C1542 1.415 . S
C1544 C1542 1.501 . S
C1544 C1545 1.384 . S
C1544 C1549 1.408 . S
C1545 H1535 0.930 . S
C1545 C1544 1.384 . S
C1545 C1546 1.389 . S
C1546 C1545 1.389 . S
C1546 C1547 1.405 . S
C1547 H1536 0.930 . S
C1547 C1546 1.405 . S
C1547 C1548 1.364 . S
C1548 C1547 1.364 . S
C1548 C1549 1.400 . S
C1549 H1537 0.931 . S
C1549 C1544 1.408 . S
C1549 C1548 1.400 . S
H1550 C1556 0.930 . S
H1551 C1559 0.931 . S
H1552 C1561 0.931 . S
H1553 C1563 0.930 . S
H1554 C1565 0.930 . S
H1555 C1567 0.931 . S
C1556 H1550 0.930 . S
C1556 C1557 1.380 . S
C1556 C1558 1.394 . S
C1557 C1556 1.380 . S
C1557 C1561 1.382 . S
C1558 C1556 1.394 . S
C1558 C1559 1.400 . S
C1559 H1551 0.931 . S
C1559 C1558 1.400 . S
C1559 C1560 1.375 . S
C1560 C1559 1.375 . S
C1560 C1561 1.415 . S
C1560 C1562 1.501 . S
C1561 H1552 0.931 . S
C1561 C1557 1.382 . S
C1561 C1560 1.415 . S
C1562 C1560 1.501 . S
C1562 C1563 1.384 . S
C1562 C1567 1.408 . S
C1563 H1553 0.930 . S
C1563 C1562 1.384 . S
C1563 C1564 1.389 . S
C1564 C1563 1.389 . S
C1564 C1565 1.405 . S
C1565 H1554 0.930 . S
C1565 C1564 1.405 . S
C1565 C1566 1.364 . S
C1566 C1565 1.364 . S
C1566 C1567 1.400 . S
C1567 H1555 0.931 . S
C1567 C1562 1.408 . S
C1567 C1566 1.400 . S
H1568 C1574 0.930 . S
H1569 C1577 0.931 . S
H1570 C1579 0.931 . S
H1571 C1581 0.930 . S
H1572 C1583 0.930 . S
H1573 C1585 0.931 . S
C1574 H1568 0.930 . S
C1574 C1575 1.380 . S
C1574 C1576 1.394 . S
C1575 C1574 1.380 . S
C1575 C1579 1.382 . S
C1576 C1574 1.394 . S
C1576 C1577 1.400 . S
C1577 H1569 0.931 . S
C1577 C1576 1.400 . S
C1577 C1578 1.375 . S
C1578 C1577 1.375 . S
C1578 C1579 1.415 . S
C1578 C1580 1.501 . S
C1579 H1570 0.931 . S
C1579 C1575 1.382 . S
C1579 C1578 1.415 . S
C1580 C1578 1.501 . S
C1580 C1581 1.384 . S
C1580 C1585 1.408 . S
C1581 H1571 0.930 . S
C1581 C1580 1.384 . S
C1581 C1582 1.389 . S
C1582 C1581 1.389 . S
C1582 C1583 1.405 . S
C1583 H1572 0.930 . S
C1583 C1582 1.405 . S
C1583 C1584 1.364 . S
C1584 C1583 1.364 . S
C1584 C1585 1.400 . S
C1585 H1573 0.931 . S
C1585 C1580 1.408 . S
C1585 C1584 1.400 . S
H1586 C1592 0.930 . S
H1587 C1595 0.931 . S
H1588 C1597 0.931 . S
H1589 C1599 0.930 . S
H1590 C1601 0.930 . S
H1591 C1603 0.931 . S
C1592 H1586 0.930 . S
C1592 C1593 1.380 . S
C1592 C1594 1.394 . S
C1593 C1592 1.380 . S
C1593 C1597 1.382 . S
C1594 C1592 1.394 . S
C1594 C1595 1.400 . S
C1595 H1587 0.931 . S
C1595 C1594 1.400 . S
C1595 C1596 1.375 . S
C1596 C1595 1.375 . S
C1596 C1597 1.415 . S
C1596 C1598 1.501 . S
C1597 H1588 0.931 . S
C1597 C1593 1.382 . S
C1597 C1596 1.415 . S
C1598 C1596 1.501 . S
C1598 C1599 1.384 . S
C1598 C1603 1.408 . S
C1599 H1589 0.930 . S
C1599 C1598 1.384 . S
C1599 C1600 1.389 . S
C1600 C1599 1.389 . S
C1600 C1601 1.405 . S
C1601 H1590 0.930 . S
C1601 C1600 1.405 . S
C1601 C1602 1.364 . S
C1602 C1601 1.364 . S
C1602 C1603 1.400 . S
C1603 H1591 0.931 . S
C1603 C1598 1.408 . S
C1603 C1602 1.400 . S
H1604 C1610 0.930 . S
H1605 C1613 0.931 . S
H1606 C1615 0.931 . S
H1607 C1617 0.930 . S
H1608 C1619 0.930 . S
H1609 C1621 0.931 . S
C1610 H1604 0.930 . S
C1610 C1611 1.380 . S
C1610 C1612 1.394 . S
C1611 C1610 1.380 . S
C1611 C1615 1.382 . S
C1612 C1610 1.394 . S
C1612 C1613 1.400 . S
C1613 H1605 0.931 . S
C1613 C1612 1.400 . S
C1613 C1614 1.375 . S
C1614 C1613 1.375 . S
C1614 C1615 1.415 . S
C1614 C1616 1.501 . S
C1615 H1606 0.931 . S
C1615 C1611 1.382 . S
C1615 C1614 1.415 . S
C1616 C1614 1.501 . S
C1616 C1617 1.384 . S
C1616 C1621 1.408 . S
C1617 H1607 0.930 . S
C1617 C1616 1.384 . S
C1617 C1618 1.389 . S
C1618 C1617 1.389 . S
C1618 C1619 1.405 . S
C1619 H1608 0.930 . S
C1619 C1618 1.405 . S
C1619 C1620 1.364 . S
C1620 C1619 1.364 . S
C1620 C1621 1.400 . S
C1621 H1609 0.931 . S
C1621 C1616 1.408 . S
C1621 C1620 1.400 . S
H1622 C1628 0.930 . S
H1623 C1631 0.931 . S
H1624 C1633 0.931 . S
H1625 C1635 0.930 . S
H1626 C1637 0.930 . S
H1627 C1639 0.931 . S
C1628 H1622 0.930 . S
C1628 C1629 1.380 . S
C1628 C1630 1.394 . S
C1629 C1628 1.380 . S
C1629 C1633 1.382 . S
C1630 C1628 1.394 . S
C1630 C1631 1.400 . S
C1631 H1623 0.931 . S
C1631 C1630 1.400 . S
C1631 C1632 1.375 . S
C1632 C1631 1.375 . S
C1632 C1633 1.415 . S
C1632 C1634 1.501 . S
C1633 H1624 0.931 . S
C1633 C1629 1.382 . S
C1633 C1632 1.415 . S
C1634 C1632 1.501 . S
C1634 C1635 1.384 . S
C1634 C1639 1.408 . S
C1635 H1625 0.930 . S
C1635 C1634 1.384 . S
C1635 C1636 1.389 . S
C1636 C1635 1.389 . S
C1636 C1637 1.405 . S
C1637 H1626 0.930 . S
C1637 C1636 1.405 . S
C1637 C1638 1.364 . S
C1638 C1637 1.364 . S
C1638 C1639 1.400 . S
C1639 H1627 0.931 . S
C1639 C1634 1.408 . S
C1639 C1638 1.400 . S
H1640 C1646 0.930 . S
H1641 C1649 0.931 . S
H1642 C1651 0.931 . S
H1643 C1653 0.930 . S
H1644 C1655 0.930 . S
H1645 C1657 0.931 . S
C1646 H1640 0.930 . S
C1646 C1647 1.380 . S
C1646 C1648 1.394 . S
C1647 C1646 1.380 . S
C1647 C1651 1.382 . S
C1648 C1646 1.394 . S
C1648 C1649 1.400 . S
C1649 H1641 0.931 . S
C1649 C1648 1.400 . S
C1649 C1650 1.375 . S
C1650 C1649 1.375 . S
C1650 C1651 1.415 . S
C1650 C1652 1.501 . S
C1651 H1642 0.931 . S
C1651 C1647 1.382 . S
C1651 C1650 1.415 . S
C1652 C1650 1.501 . S
C1652 C1653 1.384 . S
C1652 C1657 1.408 . S
C1653 H1643 0.930 . S
C1653 C1652 1.384 . S
C1653 C1654 1.389 . S
C1654 C1653 1.389 . S
C1654 C1655 1.405 . S
C1655 H1644 0.930 . S
C1655 C1654 1.405 . S
C1655 C1656 1.364 . S
C1656 C1655 1.364 . S
C1656 C1657 1.400 . S
C1657 H1645 0.931 . S
C1657 C1652 1.408 . S
C1657 C1656 1.400 . S
H1658 C1664 0.930 . S
H1659 C1667 0.931 . S
H1660 C1669 0.931 . S
H1661 C1671 0.930 . S
H1662 C1673 0.930 . S
H1663 C1675 0.931 . S
C1664 H1658 0.930 . S
C1664 C1665 1.380 . S
C1664 C1666 1.394 . S
C1665 C1664 1.380 . S
C1665 C1669 1.382 . S
C1666 C1664 1.394 . S
C1666 C1667 1.400 . S
C1667 H1659 0.931 . S
C1667 C1666 1.400 . S
C1667 C1668 1.375 . S
C1668 C1667 1.375 . S
C1668 C1669 1.415 . S
C1668 C1670 1.501 . S
C1669 H1660 0.931 . S
C1669 C1665 1.382 . S
C1669 C1668 1.415 . S
C1670 C1668 1.501 . S
C1670 C1671 1.384 . S
C1670 C1675 1.408 . S
C1671 H1661 0.930 . S
C1671 C1670 1.384 . S
C1671 C1672 1.389 . S
C1672 C1671 1.389 . S
C1672 C1673 1.405 . S
C1673 H1662 0.930 . S
C1673 C1672 1.405 . S
C1673 C1674 1.364 . S
C1674 C1673 1.364 . S
C1674 C1675 1.400 . S
C1675 H1663 0.931 . S
C1675 C1670 1.408 . S
C1675 C1674 1.400 . S
H1676 C1682 0.930 . S
H1677 C1685 0.931 . S
H1678 C1687 0.931 . S
H1679 C1689 0.930 . S
H1680 C1691 0.930 . S
H1681 C1693 0.931 . S
C1682 H1676 0.930 . S
C1682 C1683 1.380 . S
C1682 C1684 1.394 . S
C1683 C1682 1.380 . S
C1683 C1687 1.382 . S
C1684 C1682 1.394 . S
C1684 C1685 1.400 . S
C1685 H1677 0.931 . S
C1685 C1684 1.400 . S
C1685 C1686 1.375 . S
C1686 C1685 1.375 . S
C1686 C1687 1.415 . S
C1686 C1688 1.501 . S
C1687 H1678 0.931 . S
C1687 C1683 1.382 . S
C1687 C1686 1.415 . S
C1688 C1686 1.501 . S
C1688 C1689 1.384 . S
C1688 C1693 1.408 . S
C1689 H1679 0.930 . S
C1689 C1688 1.384 . S
C1689 C1690 1.389 . S
C1690 C1689 1.389 . S
C1690 C1691 1.405 . S
C1691 H1680 0.930 . S
C1691 C1690 1.405 . S
C1691 C1692 1.364 . S
C1692 C1691 1.364 . S
C1692 C1693 1.400 . S
C1693 H1681 0.931 . S
C1693 C1688 1.408 . S
C1693 C1692 1.400 . S
H1694 C1700 0.930 . S
H1695 C1703 0.931 . S
H1696 C1705 0.931 . S
H1697 C1707 0.930 . S
H1698 C1709 0.930 . S
H1699 C1711 0.931 . S
C1700 H1694 0.930 . S
C1700 C1701 1.380 . S
C1700 C1702 1.394 . S
C1701 C1700 1.380 . S
C1701 C1705 1.382 . S
C1702 C1700 1.394 . S
C1702 C1703 1.400 . S
C1703 H1695 0.931 . S
C1703 C1702 1.400 . S
C1703 C1704 1.375 . S
C1704 C1703 1.375 . S
C1704 C1705 1.415 . S
C1704 C1706 1.501 . S
C1705 H1696 0.931 . S
C1705 C1701 1.382 . S
C1705 C1704 1.415 . S
C1706 C1704 1.501 . S
C1706 C1707 1.384 . S
C1706 C1711 1.408 . S
C1707 H1697 0.930 . S
C1707 C1706 1.384 . S
C1707 C1708 1.389 . S
C1708 C1707 1.389 . S
C1708 C1709 1.405 . S
C1709 H1698 0.930 . S
C1709 C1708 1.405 . S
C1709 C1710 1.364 . S
C1710 C1709 1.364 . S
C1710 C1711 1.400 . S
C1711 H1699 0.931 . S
C1711 C1706 1.408 . S
C1711 C1710 1.400 . S
C1294 C21 1.463 . S
C1306 C42 1.506 . S
C82 C1330 1.439 . S
C1341 C135 1.475 . S
C175 C1348 1.430 . S
C221 C1287 1.457 . S
C255 C1314 1.463 . S
C1323 C301 1.533 . S
C1360 C15 1.470 . S
C55 C1386 1.456 . S
C101 C1402 1.480 . S
C1422 C141 1.509 . S
C162 C1431 1.403 . S
C1456 C215 1.467 . S
C261 C1476 1.508 . S
C1492 C282 1.502 . S
C2 C1414 1.428 . S
C181 C1449 1.376 . S
C1468 C202 1.470 . S
C242 C1485 1.508 . S
C1438 C295 1.460 . S
C1378 C95 1.475 . S
C122 C1395 1.495 . S
C1368 C61 1.529 . S
C1512 C341 1.446 . S
C362 C1522 1.502 . S
C402 C1546 1.446 . S
C1558 C455 1.488 . S
C495 C1566 1.426 . S
C541 C1504 1.468 . S
C575 C1530 1.467 . S
C621 C1539 1.533 . S
C1432 C335 1.472 . S
C375 C1582 1.467 . S
C1474 C421 1.486 . S
C461 C1602 1.508 . S
C482 C1359 1.403 . S
C1620 C535 1.453 . S
C581 C1404 1.507 . S
C1636 C602 1.502 . S
C322 C1594 1.425 . S
C1612 C501 1.392 . S
C522 C1396 1.467 . S
C1629 C562 1.506 . S
C615 C1366 1.459 . S
C415 C1575 1.460 . S
C442 C1467 1.496 . S
C381 C1440 1.526 . S
C661 C1548 1.451 . S
C1557 C682 1.489 . S
C722 C1510 1.441 . S
C775 C1521 1.472 . S
C815 C1528 1.433 . S
C861 C1540 1.478 . S
C1564 C895 1.487 . S
C941 C1503 1.531 . S
C1654 C655 1.473 . S
C695 C1458 1.452 . S
C1672 C741 1.478 . S
C781 C1494 1.508 . S
C802 C1692 1.398 . S
C855 C1384 1.463 . S
C1708 C901 1.513 . S
C922 C1420 1.501 . S
C1486 C642 1.431 . S
C1377 C821 1.374 . S
C842 C1701 1.456 . S
C882 C1413 1.503 . S
C1684 C935 1.461 . S
C1450 C735 1.476 . S
C1665 C762 1.494 . S
C1647 C701 1.526 . S
C981 C1332 1.451 . S
C1002 C1342 1.494 . S
C1296 C1042 1.423 . S
C1305 C1095 1.467 . S
C1312 C1135 1.433 . S
C1324 C1181 1.469 . S
C1350 C1215 1.467 . S
C1261 C1288 1.539 . S
C975 C1690 1.476 . S
C1618 C1015 1.460 . S
C1710 C1061 1.462 . S
C1638 C1101 1.508 . S
C1122 C1656 1.399 . S
C1584 C1175 1.450 . S
C1674 C1221 1.510 . S
C1242 C1600 1.497 . S
C1630 C962 1.431 . S
C1576 C1141 1.391 . S
C1666 C1162 1.466 . S
C1202 C1593 1.507 . S
C1255 C1648 1.457 . S
C1055 C1611 1.463 . S
C1082 C1702 1.507 . S
C1683 C1021 1.521 . S
