# Generated by pormake.
# Topology ctn, (3,4)-cn, num edge types: 1
# Building blocks:
#     Node 0, Type 0, BuildingBlock: PAMTOO_clean_linker_0, # of connection points: 3
#     Node 1, Type 0, BuildingBlock: PAMTOO_clean_linker_0, # of connection points: 3
#     Node 2, Type 0, BuildingBlock: PAMTOO_clean_linker_0, # of connection points: 3
#     Node 3, Type 0, BuildingBlock: PAMTOO_clean_linker_0, # of connection points: 3
#     Node 4, Type 0, BuildingBlock: PAMTOO_clean_linker_0, # of connection points: 3
#     Node 5, Type 0, BuildingBlock: PAMTOO_clean_linker_0, # of connection points: 3
#     Node 6, Type 0, BuildingBlock: PAMTOO_clean_linker_0, # of connection points: 3
#     Node 7, Type 0, BuildingBlock: PAMTOO_clean_linker_0, # of connection points: 3
#     Node 8, Type 0, BuildingBlock: PAMTOO_clean_linker_0, # of connection points: 3
#     Node 9, Type 0, BuildingBlock: PAMTOO_clean_linker_0, # of connection points: 3
#     Node 10, Type 0, BuildingBlock: PAMTOO_clean_linker_0, # of connection points: 3
#     Node 11, Type 0, BuildingBlock: PAMTOO_clean_linker_0, # of connection points: 3
#     Node 12, Type 0, BuildingBlock: PAMTOO_clean_linker_0, # of connection points: 3
#     Node 13, Type 0, BuildingBlock: PAMTOO_clean_linker_0, # of connection points: 3
#     Node 14, Type 0, BuildingBlock: PAMTOO_clean_linker_0, # of connection points: 3
#     Node 15, Type 0, BuildingBlock: PAMTOO_clean_linker_0, # of connection points: 3
#     Node 16, Type 1, BuildingBlock: TATPOV_clean_sbu_0, # of connection points: 4
#     Node 17, Type 1, BuildingBlock: TATPOV_clean_sbu_0, # of connection points: 4
#     Node 18, Type 1, BuildingBlock: TATPOV_clean_sbu_0, # of connection points: 4
#     Node 19, Type 1, BuildingBlock: TATPOV_clean_sbu_0, # of connection points: 4
#     Node 20, Type 1, BuildingBlock: TATPOV_clean_sbu_0, # of connection points: 4
#     Node 21, Type 1, BuildingBlock: TATPOV_clean_sbu_0, # of connection points: 4
#     Node 22, Type 1, BuildingBlock: TATPOV_clean_sbu_0, # of connection points: 4
#     Node 23, Type 1, BuildingBlock: TATPOV_clean_sbu_0, # of connection points: 4
#     Node 24, Type 1, BuildingBlock: TATPOV_clean_sbu_0, # of connection points: 4
#     Node 25, Type 1, BuildingBlock: TATPOV_clean_sbu_0, # of connection points: 4
#     Node 26, Type 1, BuildingBlock: TATPOV_clean_sbu_0, # of connection points: 4
#     Node 27, Type 1, BuildingBlock: TATPOV_clean_sbu_0, # of connection points: 4
#     Edge 28, Type (0, 1), BuildingBlock: XUDNAN_clean_linker_2, # of connection points: 2
#     Edge 29, Type (0, 1), BuildingBlock: XUDNAN_clean_linker_2, # of connection points: 2
#     Edge 30, Type (0, 1), BuildingBlock: XUDNAN_clean_linker_2, # of connection points: 2
#     Edge 31, Type (0, 1), BuildingBlock: XUDNAN_clean_linker_2, # of connection points: 2
#     Edge 32, Type (0, 1), BuildingBlock: XUDNAN_clean_linker_2, # of connection points: 2
#     Edge 33, Type (0, 1), BuildingBlock: XUDNAN_clean_linker_2, # of connection points: 2
#     Edge 34, Type (0, 1), BuildingBlock: XUDNAN_clean_linker_2, # of connection points: 2
#     Edge 35, Type (0, 1), BuildingBlock: XUDNAN_clean_linker_2, # of connection points: 2
#     Edge 36, Type (0, 1), BuildingBlock: XUDNAN_clean_linker_2, # of connection points: 2
#     Edge 37, Type (0, 1), BuildingBlock: XUDNAN_clean_linker_2, # of connection points: 2
#     Edge 38, Type (0, 1), BuildingBlock: XUDNAN_clean_linker_2, # of connection points: 2
#     Edge 39, Type (0, 1), BuildingBlock: XUDNAN_clean_linker_2, # of connection points: 2
#     Edge 40, Type (0, 1), BuildingBlock: XUDNAN_clean_linker_2, # of connection points: 2
#     Edge 41, Type (0, 1), BuildingBlock: XUDNAN_clean_linker_2, # of connection points: 2
#     Edge 42, Type (0, 1), BuildingBlock: XUDNAN_clean_linker_2, # of connection points: 2
#     Edge 43, Type (0, 1), BuildingBlock: XUDNAN_clean_linker_2, # of connection points: 2
#     Edge 44, Type (0, 1), BuildingBlock: XUDNAN_clean_linker_2, # of connection points: 2
#     Edge 45, Type (0, 1), BuildingBlock: XUDNAN_clean_linker_2, # of connection points: 2
#     Edge 46, Type (0, 1), BuildingBlock: XUDNAN_clean_linker_2, # of connection points: 2
#     Edge 47, Type (0, 1), BuildingBlock: XUDNAN_clean_linker_2, # of connection points: 2
#     Edge 48, Type (0, 1), BuildingBlock: XUDNAN_clean_linker_2, # of connection points: 2
#     Edge 49, Type (0, 1), BuildingBlock: XUDNAN_clean_linker_2, # of connection points: 2
#     Edge 50, Type (0, 1), BuildingBlock: XUDNAN_clean_linker_2, # of connection points: 2
#     Edge 51, Type (0, 1), BuildingBlock: XUDNAN_clean_linker_2, # of connection points: 2
#     Edge 52, Type (0, 1), BuildingBlock: XUDNAN_clean_linker_2, # of connection points: 2
#     Edge 53, Type (0, 1), BuildingBlock: XUDNAN_clean_linker_2, # of connection points: 2
#     Edge 54, Type (0, 1), BuildingBlock: XUDNAN_clean_linker_2, # of connection points: 2
#     Edge 55, Type (0, 1), BuildingBlock: XUDNAN_clean_linker_2, # of connection points: 2
#     Edge 56, Type (0, 1), BuildingBlock: XUDNAN_clean_linker_2, # of connection points: 2
#     Edge 57, Type (0, 1), BuildingBlock: XUDNAN_clean_linker_2, # of connection points: 2
#     Edge 58, Type (0, 1), BuildingBlock: XUDNAN_clean_linker_2, # of connection points: 2
#     Edge 59, Type (0, 1), BuildingBlock: XUDNAN_clean_linker_2, # of connection points: 2
#     Edge 60, Type (0, 1), BuildingBlock: XUDNAN_clean_linker_2, # of connection points: 2
#     Edge 61, Type (0, 1), BuildingBlock: XUDNAN_clean_linker_2, # of connection points: 2
#     Edge 62, Type (0, 1), BuildingBlock: XUDNAN_clean_linker_2, # of connection points: 2
#     Edge 63, Type (0, 1), BuildingBlock: XUDNAN_clean_linker_2, # of connection points: 2
#     Edge 64, Type (0, 1), BuildingBlock: XUDNAN_clean_linker_2, # of connection points: 2
#     Edge 65, Type (0, 1), BuildingBlock: XUDNAN_clean_linker_2, # of connection points: 2
#     Edge 66, Type (0, 1), BuildingBlock: XUDNAN_clean_linker_2, # of connection points: 2
#     Edge 67, Type (0, 1), BuildingBlock: XUDNAN_clean_linker_2, # of connection points: 2
#     Edge 68, Type (0, 1), BuildingBlock: XUDNAN_clean_linker_2, # of connection points: 2
#     Edge 69, Type (0, 1), BuildingBlock: XUDNAN_clean_linker_2, # of connection points: 2
#     Edge 70, Type (0, 1), BuildingBlock: XUDNAN_clean_linker_2, # of connection points: 2
#     Edge 71, Type (0, 1), BuildingBlock: XUDNAN_clean_linker_2, # of connection points: 2
#     Edge 72, Type (0, 1), BuildingBlock: XUDNAN_clean_linker_2, # of connection points: 2
#     Edge 73, Type (0, 1), BuildingBlock: XUDNAN_clean_linker_2, # of connection points: 2
#     Edge 74, Type (0, 1), BuildingBlock: XUDNAN_clean_linker_2, # of connection points: 2
#     Edge 75, Type (0, 1), BuildingBlock: XUDNAN_clean_linker_2, # of connection points: 2
# Relax obj value: 0.069
# Max RMSD: 0.184
# Mean RMSD: 0.117
data_MOF--net-ctn--node1-TATPOV_clean_sbu_0--node2-PAMTOO_clean_linker_0--edge1-XUDNAN_clean_linker_2
_symmetry_space_group_name_H-M    P1
_symmetry_Int_Tables_number       1
_symmetry_cell_setting            triclinic
loop_
_symmetry_equiv_pos_as_xyz
'x, y, z'
_cell_length_a     53.362832
_cell_length_b     53.715184
_cell_length_c     54.521955
_cell_angle_alpha  86.189248
_cell_angle_beta   93.646621
_cell_angle_gamma 98.776638
loop_
_atom_site_label
_atom_site_type_symbol
_atom_site_fract_x
_atom_site_fract_y
_atom_site_fract_z
_atom_type_partial_charge
H0 H 0.0084 0.09502 0.05963 0.0
H1 H 0.03815 0.02618 0.08125 0.0
H2 H 0.06167 0.06869 0.01511 0.0
H3 H 0.0545 0.01487 0.00974 0.0
C4 C 0.05887 0.008 0.02902 0.0
O5 O 0.06642 0.02828 0.04339 0.0
H6 H 0.04127 0.99658 0.03596 0.0
C7 C 0.02055 0.08128 0.0564 0.0
C8 C 0.03495 0.08464 0.03538 0.0
C9 C 0.02161 0.06044 0.0733 0.0
C10 C 0.03668 0.04221 0.06838 0.0
C11 C 0.05086 0.04514 0.04728 0.0
C12 C 0.05003 0.06631 0.03092 0.0
H13 H 0.32128 0.67421 0.27326 0.0
H14 H 0.2566 0.68728 0.2252 0.0
H15 H 0.32363 0.742 0.22583 0.0
H16 H 0.27742 0.76262 0.22234 0.0
C17 C 0.26547 0.74927 0.21008 0.0
O18 O 0.27846 0.7299 0.20539 0.0
H19 H 0.24786 0.74122 0.21944 0.0
C20 C 0.31213 0.68613 0.25981 0.0
C21 C 0.32569 0.70924 0.25102 0.0
C22 C 0.28716 0.67785 0.25061 0.0
C23 C 0.27584 0.69305 0.23245 0.0
C24 C 0.28915 0.71594 0.22354 0.0
C25 C 0.31387 0.724 0.2328 0.0
H26 H 0.98961 0.48521 0.11423 0.0
H27 H 0.96357 0.46036 0.04207 0.0
H28 H 0.02925 0.43482 0.07871 0.0
H29 H 0.0281 0.45887 0.02425 0.0
C30 C 0.0115 0.44503 0.01812 0.0
O31 O 0.99961 0.43311 0.03844 0.0
H32 H 0.99802 0.4556 0.00693 0.0
C33 C 0.99104 0.47384 0.09882 0.0
C34 C 0.01094 0.45941 0.09924 0.0
C35 C 0.97403 0.47486 0.07809 0.0
C36 C 0.97661 0.46025 0.05812 0.0
C37 C 0.99654 0.44596 0.05832 0.0
C38 C 0.01377 0.44574 0.07877 0.0
H39 H 0.73084 0.81773 0.26982 0.0
H40 H 0.71339 0.74163 0.24662 0.0
H41 H 0.77514 0.79182 0.21591 0.0
H42 H 0.74055 0.7612 0.18089 0.0
C43 C 0.73722 0.74321 0.19238 0.0
O44 O 0.74923 0.74658 0.21538 0.0
H45 H 0.71641 0.73799 0.19421 0.0
C46 C 0.73483 0.80298 0.2587 0.0
C47 C 0.75494 0.80802 0.24268 0.0
C48 C 0.71975 0.77908 0.26053 0.0
C49 C 0.72493 0.76007 0.24588 0.0
C50 C 0.74464 0.7649 0.22963 0.0
C51 C 0.75966 0.78867 0.2282 0.0
H52 H 0.08926 0.96767 0.49591 0.0
H53 H 0.05074 0.91809 0.44248 0.0
H54 H 0.10479 0.98132 0.41901 0.0
H55 H 0.03923 0.92049 0.40075 0.0
C56 C 0.05199 0.93556 0.3908 0.0
O57 O 0.07457 0.94168 0.40455 0.0
H58 H 0.05653 0.92695 0.37397 0.0
C59 C 0.08569 0.96288 0.47688 0.0
C60 C 0.09965 0.977 0.45828 0.0
C61 C 0.06745 0.94213 0.47109 0.0
C62 C 0.06389 0.93486 0.44675 0.0
C63 C 0.07682 0.9494 0.42786 0.0
C64 C 0.09435 0.97063 0.43364 0.0
H65 H 0.17709 0.77577 0.79411 0.0
H66 H 0.21036 0.72181 0.75669 0.0
H67 H 0.24454 0.74754 0.8252 0.0
H68 H 0.22338 0.68424 0.79337 0.0
C69 C 0.24273 0.69337 0.79942 0.0
O70 O 0.24714 0.71797 0.78969 0.0
H71 H 0.24386 0.69358 0.81987 0.0
C72 C 0.1919 0.76421 0.79316 0.0
C73 C 0.21114 0.76425 0.81217 0.0
C74 C 0.1911 0.74863 0.77328 0.0
C75 C 0.21047 0.73383 0.77191 0.0
C76 C 0.22965 0.73364 0.79054 0.0
C77 C 0.22998 0.74872 0.81058 0.0
H78 H 0.92734 0.58392 0.5172 0.0
H79 H 0.95135 0.52499 0.47845 0.0
H80 H 0.0044 0.58961 0.49547 0.0
H81 H 0.99839 0.57878 0.44312 0.0
C82 C 0.99571 0.55779 0.44522 0.0
O83 O 0.99564 0.55003 0.46987 0.0
H84 H 0.97705 0.55071 0.4359 0.0
C85 C 0.94211 0.57582 0.50935 0.0
C86 C 0.96688 0.58952 0.50905 0.0
C87 C 0.93606 0.55201 0.49919 0.0
C88 C 0.95491 0.54304 0.48669 0.0
C89 C 0.97888 0.55737 0.48446 0.0
C90 C 0.98517 0.57986 0.49641 0.0
H91 H 0.80405 0.83908 0.8936 0.0
H92 H 0.86519 0.80825 0.86411 0.0
H93 H 0.83301 0.8675 0.8235 0.0
H94 H 0.83918 0.82491 0.79474 0.0
C95 C 0.85572 0.81823 0.80522 0.0
O96 O 0.86482 0.83514 0.82287 0.0
H97 H 0.84923 0.7993 0.81415 0.0
C98 C 0.81748 0.83905 0.87952 0.0
C99 C 0.81703 0.85618 0.8588 0.0
C100 C 0.83469 0.82144 0.8817 0.0
C101 C 0.85168 0.82148 0.86299 0.0
C102 C 0.85073 0.83776 0.84201 0.0
C103 C 0.83379 0.85531 0.8401 0.0
H104 H 0.2897 0.30108 0.37018 0.0
H105 H 0.36665 0.30922 0.34804 0.0
H106 H 0.325 0.37107 0.33523 0.0
H107 H 0.37537 0.37996 0.2995 0.0
C108 C 0.36744 0.35983 0.30323 0.0
O109 O 0.36731 0.35495 0.32846 0.0
H110 H 0.34771 0.35726 0.29476 0.0
C111 C 0.30592 0.31272 0.3623 0.0
C112 C 0.30394 0.33738 0.35256 0.0
C113 C 0.3286 0.3025 0.36132 0.0
C114 C 0.34906 0.31671 0.34927 0.0
C115 C 0.34741 0.34119 0.33965 0.0
C116 C 0.32535 0.35173 0.34206 0.0
H117 H 0.48199 0.98312 0.62721 0.0
H118 H 0.46125 0.95966 0.55334 0.0
H119 H 0.5106 0.91986 0.6003 0.0
H120 H 0.52631 0.93165 0.55039 0.0
C121 C 0.50748 0.92818 0.54021 0.0
O122 O 0.48839 0.92321 0.55657 0.0
H123 H 0.50481 0.94546 0.5285 0.0
C124 C 0.48314 0.9708 0.61251 0.0
C125 C 0.49759 0.9509 0.61673 0.0
C126 C 0.46978 0.97439 0.58964 0.0
C127 C 0.4717 0.95798 0.57091 0.0
C128 C 0.48663 0.9387 0.57475 0.0
C129 C 0.4993 0.93507 0.59759 0.0
H130 H 0.22179 0.31536 0.74808 0.0
H131 H 0.20511 0.23962 0.72395 0.0
H132 H 0.26748 0.29045 0.69484 0.0
H133 H 0.23503 0.26058 0.65879 0.0
C134 C 0.23108 0.24235 0.66983 0.0
O135 O 0.24181 0.24517 0.6934 0.0
H136 H 0.21015 0.23706 0.67052 0.0
C137 C 0.22605 0.3008 0.73685 0.0
C138 C 0.24658 0.30609 0.72138 0.0
C139 C 0.21099 0.2769 0.73818 0.0
C140 C 0.21654 0.25812 0.72346 0.0
C141 C 0.23663 0.26326 0.70761 0.0
C142 C 0.25166 0.28706 0.70674 0.0
H143 H 0.80542 0.17436 0.77863 0.0
H144 H 0.74622 0.20227 0.73166 0.0
H145 H 0.81968 0.24639 0.73824 0.0
H146 H 0.77879 0.27672 0.73259 0.0
C147 C 0.76462 0.26423 0.72137 0.0
O148 O 0.77465 0.24312 0.71614 0.0
H149 H 0.74737 0.25841 0.73203 0.0
C150 C 0.79857 0.1891 0.76668 0.0
C151 C 0.81538 0.21112 0.76031 0.0
C152 C 0.77355 0.18538 0.75603 0.0
C153 C 0.76535 0.20452 0.73998 0.0
C154 C 0.78195 0.22634 0.73367 0.0
C155 C 0.80683 0.2296 0.74376 0.0
H156 H 0.49688 0.58182 0.54476 0.0
H157 H 0.52944 0.51929 0.58098 0.0
H158 H 0.55268 0.54834 0.50974 0.0
H159 H 0.54667 0.49579 0.51328 0.0
C160 C 0.54978 0.49166 0.53343 0.0
O161 O 0.55771 0.5139 0.54486 0.0
H162 H 0.53135 0.48236 0.54053 0.0
C163 C 0.50999 0.56823 0.54522 0.0
C164 C 0.5246 0.56737 0.52474 0.0
C165 C 0.5114 0.55094 0.56576 0.0
C166 C 0.52776 0.53271 0.56545 0.0
C167 C 0.54242 0.53178 0.54521 0.0
C168 C 0.54103 0.54922 0.52515 0.0
H169 H 0.61485 0.47327 0.01294 0.0
H170 H 0.54007 0.44965 0.97953 0.0
H171 H 0.59054 0.50862 0.94424 0.0
H172 H 0.54013 0.51896 0.94639 0.0
C173 C 0.52916 0.50013 0.94263 0.0
O174 O 0.54537 0.4825 0.94215 0.0
H175 H 0.51595 0.49455 0.9577 0.0
C176 C 0.60038 0.4749 0.99833 0.0
C177 C 0.60575 0.49256 0.97844 0.0
C178 C 0.57678 0.45898 0.99907 0.0
C179 C 0.55825 0.46177 0.97987 0.0
C180 C 0.56325 0.47983 0.96041 0.0
C181 C 0.58695 0.49491 0.95959 0.0
H182 H 0.68799 0.26906 0.30108 0.0
H183 H 0.72193 0.21395 0.2661 0.0
H184 H 0.75515 0.242 0.33417 0.0
H185 H 0.79453 0.22872 0.30357 0.0
C186 C 0.78125 0.21845 0.28985 0.0
O187 O 0.75805 0.21085 0.30003 0.0
H188 H 0.77901 0.23154 0.27338 0.0
C189 C 0.70267 0.25725 0.30092 0.0
C190 C 0.72138 0.25769 0.32041 0.0
C191 C 0.70281 0.24193 0.28098 0.0
C192 C 0.72165 0.22629 0.28098 0.0
C193 C 0.74024 0.22626 0.30024 0.0
C194 C 0.74019 0.24194 0.31979 0.0
H195 H 0.42726 0.08059 0.03261 0.0
H196 H 0.45355 0.03652 0.97885 0.0
H197 H 0.50403 0.09764 0.00951 0.0
H198 H 0.5155 0.08779 0.95529 0.0
C199 C 0.50366 0.06886 0.95573 0.0
O200 O 0.49971 0.06079 0.97995 0.0
H201 H 0.48529 0.07037 0.94527 0.0
C202 C 0.44188 0.0771 0.02091 0.0
C203 C 0.46604 0.09181 0.02276 0.0
C204 C 0.43707 0.05689 0.00526 0.0
C205 C 0.45669 0.05195 0.99105 0.0
C206 C 0.48063 0.06676 0.9925 0.0
C207 C 0.48527 0.0866 0.00828 0.0
Zn208 Zn 0.28353 0.86242 0.00569 0.0
Zn209 Zn 0.24224 0.88471 0.01002 0.0
O210 O 0.24436 0.861 0.04129 0.0
O211 O 0.27785 0.84234 0.03808 0.0
O212 O 0.21099 0.90028 0.01606 0.0
O213 O 0.30506 0.89657 0.00535 0.0
O214 O 0.27134 0.9151 0.00806 0.0
C215 C 0.25912 0.84562 0.04999 0.0
C216 C 0.24597 0.85322 0.9655 0.0
O217 O 0.23352 0.86639 0.97752 0.0
O218 O 0.26777 0.84897 0.97363 0.0
C219 C 0.20391 0.91964 0.00456 0.0
O220 O 0.21721 0.931 0.98647 0.0
C221 C 0.29528 0.9165 0.00643 0.0
Zn222 Zn 0.10246 0.43498 0.31194 0.0
Zn223 Zn 0.14022 0.47481 0.30321 0.0
O224 O 0.11891 0.48616 0.32943 0.0
O225 O 0.08787 0.45494 0.33633 0.0
O226 O 0.16772 0.50506 0.29951 0.0
O227 O 0.13032 0.41411 0.32395 0.0
O228 O 0.16003 0.44602 0.31464 0.0
C229 C 0.09906 0.47687 0.34065 0.0
C230 C 0.10292 0.45556 0.26105 0.0
O231 O 0.12211 0.47052 0.26906 0.0
O232 O 0.09124 0.43888 0.2755 0.0
C233 C 0.17365 0.51757 0.27954 0.0
O234 O 0.16169 0.51063 0.25873 0.0
C235 C 0.15358 0.42329 0.32268 0.0
Zn236 Zn 0.82789 0.61396 0.98922 0.0
Zn237 Zn 0.81136 0.62671 0.03057 0.0
O238 O 0.84013 0.60578 0.04286 0.0
O239 O 0.85445 0.59669 0.00804 0.0
O240 O 0.80009 0.64042 0.06113 0.0
O241 O 0.83559 0.64962 0.97567 0.0
O242 O 0.82113 0.66029 0.0097 0.0
C243 C 0.8554 0.59522 0.03134 0.0
C244 C 0.7755 0.59326 0.99625 0.0
O245 O 0.77927 0.60448 0.01636 0.0
O246 O 0.79328 0.59458 0.98169 0.0
C247 C 0.79402 0.62804 0.08111 0.0
O248 O 0.79489 0.60367 0.08318 0.0
C249 C 0.83012 0.66647 0.98865 0.0
Zn250 Zn 0.86373 0.01529 0.30383 0.0
Zn251 Zn 0.88967 0.0252 0.26275 0.0
O252 O 0.87066 0.056 0.265 0.0
O253 O 0.84855 0.04746 0.29804 0.0
O254 O 0.91043 0.03531 0.23274 0.0
O255 O 0.89659 0.01556 0.32433 0.0
O256 O 0.91742 0.02069 0.29033 0.0
C257 C 0.85518 0.06211 0.27968 0.0
C258 C 0.85096 0.97699 0.26797 0.0
O259 O 0.86667 0.99172 0.25499 0.0
O260 O 0.84665 0.98275 0.28932 0.0
C261 C 0.91755 0.02055 0.21812 0.0
O262 O 0.9108 0.99608 0.22166 0.0
C263 C 0.91729 0.01755 0.31373 0.0
Zn264 Zn 0.31746 0.09099 0.47704 0.0
Zn265 Zn 0.30751 0.1189 0.51328 0.0
O266 O 0.33569 0.09902 0.52906 0.0
O267 O 0.34458 0.07715 0.49882 0.0
O268 O 0.29926 0.13927 0.54093 0.0
O269 O 0.32663 0.12262 0.45567 0.0
O270 O 0.31804 0.14573 0.48508 0.0
C271 C 0.34853 0.08348 0.52084 0.0
C272 C 0.26557 0.07993 0.49047 0.0
O273 O 0.27313 0.09699 0.50555 0.0
O274 O 0.28103 0.07348 0.47625 0.0
C275 C 0.29237 0.12765 0.56105 0.0
O276 O 0.29157 0.10304 0.56335 0.0
C277 C 0.32504 0.14402 0.46336 0.0
Zn278 Zn 0.35041 0.50926 0.79245 0.0
Zn279 Zn 0.3768 0.52409 0.75347 0.0
O280 O 0.35619 0.55366 0.75735 0.0
O281 O 0.33488 0.54099 0.7903 0.0
O282 O 0.39739 0.53602 0.72352 0.0
O283 O 0.38197 0.50725 0.81362 0.0
O284 O 0.40462 0.52008 0.78157 0.0
C285 C 0.34067 0.5575 0.77313 0.0
C286 C 0.33908 0.47414 0.75504 0.0
O287 O 0.35527 0.49001 0.74365 0.0
O288 O 0.33332 0.47832 0.77638 0.0
C289 C 0.40696 0.52102 0.71096 0.0
O290 O 0.4034 0.49678 0.71736 0.0
C291 C 0.40338 0.51306 0.80437 0.0
Zn292 Zn 0.78039 0.3633 0.5111 0.0
Zn293 Zn 0.73847 0.38537 0.51333 0.0
O294 O 0.74049 0.36371 0.54596 0.0
O295 O 0.77635 0.34825 0.54588 0.0
O296 O 0.7067 0.40159 0.51617 0.0
O297 O 0.8006 0.39806 0.50491 0.0
O298 O 0.76713 0.4157 0.51164 0.0
C299 C 0.75662 0.35081 0.55662 0.0
C300 C 0.74336 0.34961 0.47219 0.0
O301 O 0.73196 0.36582 0.48129 0.0
O302 O 0.76388 0.34401 0.48245 0.0
C303 C 0.68797 0.38965 0.52747 0.0
O304 O 0.689 0.3664 0.53614 0.0
C305 C 0.79056 0.4176 0.50733 0.0
Zn306 Zn 0.61134 0.9333 0.82651 0.0
Zn307 Zn 0.63148 0.97979 0.81049 0.0
O308 O 0.61099 0.98752 0.83927 0.0
O309 O 0.59449 0.94922 0.8524 0.0
O310 O 0.6487 0.01369 0.79731 0.0
O311 O 0.64597 0.92299 0.83381 0.0
O312 O 0.66222 0.96114 0.82026 0.0
C313 C 0.59709 0.97291 0.85404 0.0
C314 C 0.5947 0.94573 0.77653 0.0
O315 O 0.60855 0.96676 0.78053 0.0
O316 O 0.59315 0.928 0.79314 0.0
C317 C 0.66607 0.02755 0.80934 0.0
O318 O 0.67266 0.02029 0.832 0.0
C319 C 0.66519 0.93914 0.82915 0.0
Zn320 Zn 0.02492 0.3085 0.84557 0.0
Zn321 Zn 0.02468 0.26939 0.87814 0.0
O322 O 0.05681 0.268 0.85849 0.0
O323 O 0.05738 0.30144 0.83278 0.0
O324 O 0.02595 0.24216 0.90551 0.0
O325 O 0.02646 0.33333 0.87195 0.0
O326 O 0.0257 0.30082 0.89886 0.0
C327 C 0.06713 0.28232 0.8411 0.0
C328 C 0.98132 0.26963 0.83877 0.0
O329 O 0.99105 0.25865 0.8577 0.0
O330 O 0.99201 0.29088 0.83033 0.0
C331 C 0.02731 0.21891 0.90376 0.0
O332 O 0.02765 0.21009 0.8819 0.0
C333 C 0.02648 0.32448 0.89403 0.0
Zn334 Zn 0.52769 0.80498 0.3615 0.0
Zn335 Zn 0.5228 0.76045 0.38705 0.0
O336 O 0.55746 0.76279 0.37088 0.0
O337 O 0.56251 0.80057 0.35197 0.0
O338 O 0.52048 0.72753 0.4079 0.0
O339 O 0.52295 0.82304 0.39181 0.0
O340 O 0.52044 0.7865 0.41293 0.0
C341 C 0.57063 0.77989 0.35771 0.0
C342 C 0.4854 0.76934 0.34349 0.0
O343 O 0.492 0.7552 0.36174 0.0
O344 O 0.49774 0.79116 0.3394 0.0
C345 C 0.51993 0.70665 0.39803 0.0
O346 O 0.52056 0.70666 0.37398 0.0
C347 C 0.52044 0.8103 0.41211 0.0
Zn348 Zn 0.95472 0.7798 0.617 0.0
Zn349 Zn 1.00222 0.78418 0.63722 0.0
O350 O 0.0066 0.81597 0.61399 0.0
O351 O 0.96798 0.81136 0.59624 0.0
O352 O 0.03618 0.7816 0.65538 0.0
O353 O 0.94013 0.78333 0.64932 0.0
O354 O 0.97903 0.78627 0.66596 0.0
C355 C 0.99029 0.82351 0.59822 0.0
C356 C 0.9784 0.73902 0.60602 0.0
O357 O 0.99695 0.75253 0.61689 0.0
O358 O 0.95647 0.74538 0.60484 0.0
C359 C 0.03757 0.75995 0.66589 0.0
O360 O 0.01766 0.74231 0.66426 0.0
C361 C 0.95532 0.78603 0.66806 0.0
Zn362 Zn 0.46522 0.28668 0.13024 0.0
Zn363 Zn 0.50865 0.27934 0.15728 0.0
O364 O 0.52066 0.30955 0.1339 0.0
O365 O 0.48589 0.31695 0.11245 0.0
O366 O 0.54069 0.27279 0.1766 0.0
O367 O 0.44945 0.29132 0.16241 0.0
O368 O 0.48512 0.2865 0.18353 0.0
C369 C 0.50958 0.32244 0.11728 0.0
C370 C 0.48056 0.23834 0.12423 0.0
O371 O 0.49828 0.2467 0.13963 0.0
O372 O 0.46352 0.25166 0.11707 0.0
C373 C 0.5592 0.2682 0.16492 0.0
O374 O 0.55687 0.26827 0.14077 0.0
C375 C 0.46222 0.29075 0.18281 0.0
H376 H 0.25217 0.78769 0.83975 0.0
H377 H 0.16965 0.77488 0.83521 0.0
H378 H 0.16947 0.79896 0.87206 0.0
H379 H 0.25819 0.77759 0.90475 0.0
H380 H 0.28604 0.80097 0.90834 0.0
H381 H 0.27961 0.78497 0.88014 0.0
H382 H 0.28142 0.82806 0.8554 0.0
H383 H 0.28779 0.8442 0.88356 0.0
H384 H 0.26122 0.8501 0.86305 0.0
H385 H 0.17841 0.82374 0.91063 0.0
H386 H 0.19585 0.84438 0.94869 0.0
H387 H 0.27206 0.83767 0.92932 0.0
C388 C 0.23398 0.7898 0.84642 0.0
C389 C 0.21094 0.77947 0.83416 0.0
C390 C 0.18765 0.78308 0.84366 0.0
C391 C 0.18731 0.79662 0.86478 0.0
C392 C 0.21039 0.8063 0.87644 0.0
C393 C 0.23328 0.80287 0.86767 0.0
C394 C 0.25542 0.81378 0.88437 0.0
C395 C 0.2707 0.79309 0.89503 0.0
C396 C 0.27246 0.83532 0.87078 0.0
C397 C 0.24141 0.82362 0.90407 0.0
C398 C 0.21546 0.81951 0.89904 0.0
C399 C 0.19871 0.82704 0.91474 0.0
C400 C 0.20876 0.8388 0.93627 0.0
C401 C 0.23527 0.8425 0.94205 0.0
C402 C 0.25168 0.83496 0.92554 0.0
H403 H 0.99356 0.51267 0.42378 0.0
H404 H 0.04453 0.58126 0.43948 0.0
H405 H 0.07768 0.56706 0.41622 0.0
H406 H 0.04243 0.47065 0.42725 0.0
H407 H 0.02709 0.45245 0.40242 0.0
H408 H 0.0084 0.46717 0.42201 0.0
H409 H 0.989 0.49001 0.38368 0.0
H410 H 0.00772 0.47553 0.36401 0.0
H411 H 0.00979 0.50939 0.36287 0.0
H412 H 0.10361 0.54704 0.38812 0.0
H413 H 0.12132 0.52176 0.35911 0.0
H414 H 0.05341 0.46591 0.36238 0.0
C415 C 0.01186 0.52446 0.42256 0.0
C416 C 0.01656 0.54812 0.4331 0.0
C417 C 0.04065 0.56313 0.43131 0.0
C418 C 0.05952 0.55522 0.41818 0.0
C419 C 0.05404 0.53211 0.4073 0.0
C420 C 0.03089 0.51682 0.40958 0.0
C421 C 0.02941 0.49333 0.39536 0.0
C422 C 0.02668 0.46949 0.41281 0.0
C423 C 0.0077 0.49201 0.37529 0.0
C424 C 0.05512 0.49803 0.38427 0.0
C425 C 0.06909 0.52044 0.39143 0.0
C426 C 0.09297 0.5293 0.38262 0.0
C427 C 0.10283 0.51485 0.36608 0.0
C428 C 0.08883 0.49178 0.35854 0.0
C429 C 0.06473 0.48331 0.36795 0.0
H430 H 0.84029 0.77185 0.87947 0.0
H431 H 0.8269 0.82626 0.93075 0.0
H432 H 0.82538 0.79295 0.96454 0.0
H433 H 0.80041 0.71928 0.9048 0.0
H434 H 0.82133 0.69709 0.89941 0.0
H435 H 0.82135 0.72533 0.87971 0.0
H436 H 0.86978 0.73733 0.88917 0.0
H437 H 0.86991 0.70912 0.90893 0.0
H438 H 0.88192 0.73948 0.9207 0.0
H439 H 0.82428 0.75242 0.99258 0.0
H440 H 0.82377 0.70917 0.01171 0.0
H441 H 0.84038 0.68334 0.94158 0.0
C442 C 0.83751 0.77705 0.89784 0.0
C443 C 0.83394 0.80183 0.90241 0.0
C444 C 0.82952 0.8074 0.9267 0.0
C445 C 0.8288 0.78864 0.94604 0.0
C446 C 0.83266 0.76447 0.94081 0.0
C447 C 0.83701 0.75876 0.91726 0.0
C448 C 0.84037 0.73146 0.91613 0.0
C449 C 0.81963 0.71748 0.89901 0.0
C450 C 0.86709 0.72923 0.90828 0.0
C451 C 0.83708 0.7225 0.94273 0.0
C452 C 0.83259 0.74168 0.95679 0.0
C453 C 0.828 0.73735 0.98175 0.0
C454 C 0.82777 0.71274 0.99247 0.0
C455 C 0.83224 0.69287 0.97823 0.0
C456 C 0.83721 0.69809 0.95313 0.0
H457 H 0.0414 0.95595 0.34452 0.0
H458 H 0.02851 0.96268 0.42131 0.0
H459 H 0.99779 0.99166 0.40922 0.0
H460 H 0.02929 0.02182 0.32099 0.0
H461 H 0.01306 0.00958 0.29332 0.0
H462 H 0.03884 0.99497 0.30796 0.0
H463 H 0.0094 0.95193 0.3101 0.0
H464 H 0.98353 0.96636 0.29581 0.0
H465 H 0.97992 0.94916 0.32522 0.0
H466 H 0.96275 0.01236 0.38923 0.0
H467 H 0.92643 0.02367 0.36292 0.0
H468 H 0.96074 0.00304 0.29862 0.0
C469 C 0.03299 0.96451 0.35878 0.0
C470 C 0.03802 0.9577 0.3839 0.0
C471 C 0.02577 0.96833 0.40204 0.0
C472 C 0.00812 0.98474 0.3953 0.0
C473 C 0.00283 0.99028 0.37033 0.0
C474 C 0.01508 0.98067 0.35231 0.0
C475 C 0.00332 0.98642 0.32689 0.0
C476 C 0.02226 0.00427 0.31138 0.0
C477 C 0.99346 0.96202 0.31376 0.0
C478 C 0.98169 0.99954 0.33352 0.0
C479 C 0.98208 0.00202 0.35864 0.0
C480 C 0.96259 0.01109 0.36949 0.0
C481 C 0.94195 0.01734 0.3544 0.0
C482 C 0.94086 0.01442 0.3287 0.0
C483 C 0.96134 0.00602 0.31811 0.0
H484 H 0.25236 0.2447 0.62472 0.0
H485 H 0.23219 0.19363 0.68769 0.0
H486 H 0.24726 0.15911 0.66746 0.0
H487 H 0.23238 0.20044 0.57908 0.0
H488 H 0.25778 0.21217 0.55916 0.0
H489 H 0.24675 0.23308 0.57915 0.0
H490 H 0.29246 0.24447 0.59824 0.0
H491 H 0.30365 0.22361 0.57826 0.0
H492 H 0.30939 0.21964 0.61112 0.0
H493 H 0.26317 0.13 0.63977 0.0
H494 H 0.27827 0.10802 0.60656 0.0
H495 H 0.28786 0.1781 0.56129 0.0
C496 C 0.25144 0.22632 0.63435 0.0
C497 C 0.24152 0.22183 0.65794 0.0
C498 C 0.2401 0.19744 0.66978 0.0
C499 C 0.24857 0.17778 0.65842 0.0
C500 C 0.25828 0.18282 0.63516 0.0
C501 C 0.25975 0.20649 0.62324 0.0
C502 C 0.27016 0.20669 0.59797 0.0
C503 C 0.25059 0.21349 0.57765 0.0
C504 C 0.29542 0.22467 0.59631 0.0
C505 C 0.27412 0.17939 0.59744 0.0
C506 C 0.26724 0.16599 0.61911 0.0
C507 C 0.26872 0.14033 0.62277 0.0
C508 C 0.27731 0.12801 0.60375 0.0
C509 C 0.28432 0.1413 0.58129 0.0
C510 C 0.2828 0.1674 0.57826 0.0
H511 H 0.48721 0.51089 0.59396 0.0
H512 H 0.49997 0.59279 0.58672 0.0
H513 H 0.47404 0.59411 0.6224 0.0
H514 H 0.42293 0.50343 0.61221 0.0
H515 H 0.42647 0.4772 0.63388 0.0
H516 H 0.44552 0.4827 0.6074 0.0
H517 H 0.48644 0.48415 0.63586 0.0
H518 H 0.46751 0.4786 0.66243 0.0
H519 H 0.49178 0.50582 0.66018 0.0
H520 H 0.44683 0.58644 0.65934 0.0
H521 H 0.42109 0.57039 0.69473 0.0
H522 H 0.42734 0.4936 0.67851 0.0
C523 C 0.48479 0.52916 0.59995 0.0
C524 C 0.49568 0.55175 0.58735 0.0
C525 C 0.49157 0.57518 0.59571 0.0
C526 C 0.47698 0.57614 0.61609 0.0
C527 C 0.46662 0.55352 0.62806 0.0
C528 C 0.4704 0.53047 0.62031 0.0
C529 C 0.45744 0.50891 0.63653 0.0
C530 C 0.43687 0.49207 0.62161 0.0
C531 C 0.47696 0.49347 0.64952 0.0
C532 C 0.44583 0.52342 0.65466 0.0
C533 C 0.45126 0.54913 0.64942 0.0
C534 C 0.44249 0.56634 0.6636 0.0
C535 C 0.42785 0.55703 0.68368 0.0
C536 C 0.42217 0.53073 0.68949 0.0
C537 C 0.43134 0.51381 0.67466 0.0
H538 H 0.7952 0.27866 0.68283 0.0
H539 H 0.72002 0.2823 0.70681 0.0
H540 H 0.70973 0.3054 0.6675 0.0
H541 H 0.805 0.34004 0.65081 0.0
H542 H 0.82131 0.3296 0.62633 0.0
H543 H 0.82278 0.31408 0.6566 0.0
H544 H 0.80567 0.27112 0.63815 0.0
H545 H 0.80412 0.28651 0.60784 0.0
H546 H 0.77615 0.26769 0.6198 0.0
H547 H 0.70779 0.32788 0.6252 0.0
H548 H 0.71409 0.34745 0.58327 0.0
H549 H 0.79026 0.32778 0.5869 0.0
C550 C 0.77658 0.28433 0.67973 0.0
C551 C 0.75827 0.27852 0.69764 0.0
C552 C 0.73419 0.28642 0.69317 0.0
C553 C 0.72821 0.29954 0.67095 0.0
C554 C 0.74658 0.30462 0.65347 0.0
C555 C 0.77026 0.29722 0.65763 0.0
C556 C 0.78646 0.30455 0.63575 0.0
C557 C 0.81029 0.32318 0.6428 0.0
C558 C 0.7935 0.28107 0.62474 0.0
C559 C 0.7682 0.31718 0.61858 0.0
C560 C 0.74533 0.31717 0.62914 0.0
C561 C 0.72561 0.32796 0.61674 0.0
C562 C 0.72937 0.33904 0.59294 0.0
C563 C 0.75263 0.33909 0.58173 0.0
C564 C 0.7722 0.32796 0.59484 0.0
H565 H 0.52722 0.98465 0.64666 0.0
H566 H 0.49631 0.90542 0.64216 0.0
H567 H 0.51825 0.89576 0.68203 0.0
H568 H 0.58849 0.97498 0.67368 0.0
H569 H 0.59142 1.00089 0.69356 0.0
H570 H 0.5729 0.00197 0.66481 0.0
H571 H 0.53384 0.00902 0.68788 0.0
H572 H 0.55228 0.00813 0.71669 0.0
H573 H 0.52284 0.98699 0.71268 0.0
H574 H 0.54324 0.89437 0.72191 0.0
H575 H 0.56975 0.90127 0.76014 0.0
H576 H 0.58541 0.9814 0.7394 0.0
C577 C 0.52493 0.96533 0.65422 0.0
C578 C 0.51015 0.94574 0.64126 0.0
C579 C 0.50779 0.92065 0.65162 0.0
C580 C 0.5201 0.91499 0.67429 0.0
C581 C 0.53477 0.93461 0.68643 0.0
C582 C 0.53727 0.95928 0.67686 0.0
C583 C 0.55448 0.97668 0.69372 0.0
C584 C 0.57823 0.98938 0.68066 0.0
C585 C 0.53999 0.99637 0.70331 0.0
C586 C 0.56119 0.95788 0.71421 0.0
C587 C 0.54954 0.93376 0.70956 0.0
C588 C 0.5525 0.91317 0.72578 0.0
C589 C 0.56762 0.91731 0.74748 0.0
C590 C 0.57974 0.94187 0.75283 0.0
C591 C 0.57656 0.96238 0.7358 0.0
H592 H 0.83626 0.21178 0.80798 0.0
H593 H 0.85553 0.21867 0.73151 0.0
H594 H 0.90077 0.22999 0.74421 0.0
H595 H 0.87804 0.26404 0.82667 0.0
H596 H 0.88726 0.25077 0.85652 0.0
H597 H 0.85673 0.23952 0.84208 0.0
H598 H 0.8671 0.19384 0.84584 0.0
H599 H 0.89766 0.20492 0.86049 0.0
H600 H 0.89568 0.18713 0.83336 0.0
H601 H 0.94206 0.24619 0.76385 0.0
H602 H 0.97865 0.26458 0.79 0.0
H603 H 0.93468 0.24643 0.85473 0.0
C604 C 0.85019 0.21496 0.79407 0.0
C605 C 0.84255 0.21428 0.76877 0.0
C606 C 0.8611 0.21911 0.75096 0.0
C607 C 0.88681 0.22547 0.758 0.0
C608 C 0.89374 0.22678 0.78298 0.0
C609 C 0.87613 0.22144 0.80084 0.0
C610 C 0.88872 0.22622 0.82627 0.0
C611 C 0.87699 0.24633 0.8386 0.0
C612 C 0.8872 0.20155 0.84245 0.0
C613 C 0.91588 0.23591 0.81971 0.0
C614 C 0.91822 0.23585 0.7946 0.0
C615 C 0.94066 0.24585 0.78358 0.0
C616 C 0.96128 0.25636 0.79855 0.0
C617 C 0.95949 0.25662 0.8243 0.0
C618 C 0.93663 0.24591 0.83513 0.0
H619 H 0.50871 0.92842 0.48982 0.0
H620 H 0.50709 0.87841 0.5556 0.0
H621 H 0.50918 0.84227 0.53013 0.0
H622 H 0.4707 0.88452 0.44939 0.0
H623 H 0.48921 0.89528 0.42317 0.0
H624 H 0.48643 0.91668 0.44659 0.0
H625 H 0.53548 0.92599 0.45243 0.0
H626 H 0.53842 0.90455 0.42912 0.0
H627 H 0.55327 0.90019 0.45941 0.0
H628 H 0.51242 0.81183 0.49713 0.0
H629 H 0.517 0.78975 0.45962 0.0
H630 H 0.51714 0.86032 0.41584 0.0
C631 C 0.50845 0.90979 0.4988 0.0
C632 C 0.50723 0.90601 0.52459 0.0
C633 C 0.50755 0.8815 0.53579 0.0
C634 C 0.50879 0.86095 0.52149 0.0
C635 C 0.50991 0.86531 0.49605 0.0
C636 C 0.50977 0.88915 0.48483 0.0
C637 C 0.51192 0.88901 0.45729 0.0
C638 C 0.48815 0.89683 0.44329 0.0
C639 C 0.53622 0.90594 0.4491 0.0
C640 C 0.51344 0.8614 0.45474 0.0
C641 C 0.51216 0.84798 0.47725 0.0
C642 C 0.51339 0.82216 0.4794 0.0
C643 C 0.516 0.80978 0.45799 0.0
C644 C 0.51746 0.82325 0.43474 0.0
C645 C 0.51611 0.8494 0.43328 0.0
H646 H 0.17627 0.30786 0.74579 0.0
H647 H 0.19747 0.23472 0.76881 0.0
H648 H 0.16335 0.22781 0.7984 0.0
H649 H 0.16316 0.32483 0.80543 0.0
H650 H 0.13682 0.34056 0.79422 0.0
H651 H 0.16239 0.33914 0.77458 0.0
H652 H 0.13029 0.31852 0.74142 0.0
H653 H 0.10461 0.32001 0.76088 0.0
H654 H 0.10897 0.29024 0.74967 0.0
H655 H 0.12688 0.22985 0.82657 0.0
H656 H 0.09065 0.23975 0.8486 0.0
H657 H 0.0949 0.31178 0.80679 0.0
C658 C 0.17387 0.29041 0.75711 0.0
C659 C 0.18965 0.27188 0.75504 0.0
C660 C 0.18548 0.24911 0.76991 0.0
C661 C 0.16626 0.2451 0.78689 0.0
C662 C 0.15133 0.26402 0.78872 0.0
C663 C 0.15489 0.28615 0.77407 0.0
C664 C 0.13644 0.30358 0.77937 0.0
C665 C 0.15055 0.32849 0.78897 0.0
C666 C 0.11905 0.30835 0.75647 0.0
C667 C 0.12187 0.28788 0.79932 0.0
C668 C 0.13067 0.26514 0.80462 0.0
C669 C 0.11986 0.24762 0.8225 0.0
C670 C 0.09935 0.25343 0.835 0.0
C671 C 0.08986 0.27652 0.82947 0.0
C672 C 0.10157 0.29392 0.81152 0.0
H673 H 0.52291 0.6186 0.5226 0.0
H674 H 0.52092 0.55534 0.4766 0.0
H675 H 0.5186 0.5839 0.43947 0.0
H676 H 0.47912 0.65163 0.48336 0.0
H677 H 0.49624 0.68247 0.48913 0.0
H678 H 0.49699 0.65694 0.51221 0.0
H679 H 0.54615 0.66412 0.51314 0.0
H680 H 0.54555 0.68961 0.49003 0.0
H681 H 0.56191 0.66358 0.48493 0.0
H682 H 0.51753 0.61922 0.40732 0.0
H683 H 0.51787 0.65912 0.38215 0.0
H684 H 0.52036 0.69984 0.44869 0.0
C685 C 0.52168 0.61074 0.50471 0.0
C686 C 0.52221 0.58472 0.50253 0.0
C687 C 0.5209 0.57523 0.47875 0.0
C688 C 0.51942 0.59129 0.45754 0.0
C689 C 0.51922 0.61683 0.46032 0.0
C690 C 0.52028 0.62655 0.48327 0.0
C691 C 0.52038 0.65488 0.48102 0.0
C692 C 0.49677 0.66189 0.49208 0.0
C693 C 0.54496 0.66886 0.49299 0.0
C694 C 0.51939 0.65954 0.45324 0.0
C695 C 0.51864 0.6373 0.44169 0.0
C696 C 0.51802 0.63676 0.41615 0.0
C697 C 0.51824 0.65956 0.402 0.0
C698 C 0.51912 0.68267 0.41337 0.0
C699 C 0.5196 0.68252 0.43939 0.0
H700 H 0.85005 0.81329 0.75558 0.0
H701 H 0.9063 0.81478 0.8166 0.0
H702 H 0.93844 0.8067 0.78834 0.0
H703 H 0.86958 0.76286 0.72625 0.0
H704 H 0.8633 0.77575 0.69549 0.0
H705 H 0.84536 0.78285 0.72033 0.0
H706 H 0.85855 0.83075 0.71031 0.0
H707 H 0.87635 0.8238 0.6853 0.0
H708 H 0.89176 0.84344 0.70906 0.0
H709 H 0.96422 0.79804 0.75278 0.0
H710 H 0.98114 0.78939 0.71344 0.0
H711 H 0.90695 0.79249 0.67673 0.0
C712 C 0.86926 0.81236 0.76289 0.0
C713 C 0.87599 0.81543 0.78805 0.0
C714 C 0.90104 0.81319 0.79719 0.0
C715 C 0.91932 0.80847 0.78132 0.0
C716 C 0.91207 0.80569 0.7565 0.0
C717 C 0.88759 0.80753 0.74739 0.0
C718 C 0.88427 0.8031 0.72022 0.0
C719 C 0.86446 0.77975 0.7153 0.0
C720 C 0.87733 0.82668 0.70535 0.0
C721 C 0.91071 0.7985 0.71536 0.0
C722 C 0.92655 0.80009 0.73642 0.0
C723 C 0.95195 0.79673 0.73619 0.0
C724 C 0.96138 0.79179 0.71378 0.0
C725 C 0.94538 0.79017 0.69199 0.0
C726 C 0.91971 0.79345 0.69302 0.0
H727 H 0.08348 0.9182 0.51398 0.0
H728 H 0.01609 0.93407 0.47081 0.0
H729 H 0.98907 0.90905 0.50155 0.0
H730 H 0.06008 0.85472 0.52955 0.0
H731 H 0.07485 0.85415 0.56021 0.0
H732 H 0.08892 0.87582 0.53656 0.0
H733 H 0.0875 0.9132 0.56389 0.0
H734 H 0.07336 0.8916 0.58764 0.0
H735 H 0.05773 0.91765 0.57557 0.0
H736 H 0.96957 0.88047 0.53484 0.0
H737 H 0.95828 0.8476 0.56748 0.0
H738 H 0.0382 0.84862 0.58904 0.0
C739 C 0.06303 0.91673 0.51137 0.0
C740 C 0.05171 0.92812 0.49027 0.0
C741 C 0.02496 0.92544 0.48696 0.0
C742 C 0.00953 0.91143 0.50435 0.0
C743 C 0.0212 0.90015 0.52485 0.0
C744 C 0.04731 0.90248 0.52843 0.0
C745 C 0.05487 0.88656 0.55093 0.0
C746 C 0.0706 0.86663 0.54388 0.0
C747 C 0.06921 0.90325 0.57068 0.0
C748 C 0.02893 0.8745 0.55907 0.0
C749 C 0.00983 0.88297 0.54396 0.0
C750 C 0.98432 0.87382 0.54694 0.0
C751 C 0.97812 0.85508 0.56554 0.0
C752 C 0.99735 0.8455 0.58086 0.0
C753 C 0.02307 0.85575 0.57784 0.0
H754 H 0.16635 0.7862 0.75024 0.0
H755 H 0.16533 0.70503 0.75587 0.0
H756 H 0.12753 0.69973 0.72732 0.0
H757 H 0.09937 0.78456 0.74937 0.0
H758 H 0.09854 0.8111 0.72745 0.0
H759 H 0.12655 0.8089 0.74721 0.0
H760 H 0.15372 0.81256 0.70906 0.0
H761 H 0.12577 0.81478 0.68915 0.0
H762 H 0.1451 0.79077 0.6851 0.0
H763 H 0.08858 0.70257 0.7008 0.0
H764 H 0.05095 0.71352 0.67642 0.0
H765 H 0.07675 0.79298 0.68672 0.0
C766 C 0.15822 0.76734 0.74534 0.0
C767 C 0.16899 0.74604 0.75513 0.0
C768 C 0.15778 0.72167 0.74826 0.0
C769 C 0.1362 0.71844 0.73215 0.0
C770 C 0.12603 0.73975 0.72294 0.0
C771 C 0.13667 0.76375 0.72912 0.0
C772 C 0.12144 0.78335 0.71698 0.0
C773 C 0.11085 0.79782 0.73642 0.0
C774 C 0.13747 0.80143 0.699 0.0
C775 C 0.10038 0.76651 0.70338 0.0
C776 C 0.1035 0.74144 0.70713 0.0
C777 C 0.08603 0.72214 0.6975 0.0
C778 C 0.06467 0.72856 0.68375 0.0
C779 C 0.06099 0.7541 0.67958 0.0
C780 C 0.07925 0.77333 0.68934 0.0
H781 H 0.94484 0.60453 0.54939 0.0
H782 H 0.00383 0.63039 0.49795 0.0
H783 H 0.01579 0.66892 0.52027 0.0
H784 H 0.92463 0.66514 0.54937 0.0
H785 H 0.9165 0.66115 0.58113 0.0
H786 H 0.91463 0.634 0.56306 0.0
H787 H 0.94462 0.61431 0.5955 0.0
H788 H 0.94684 0.64155 0.61354 0.0
H789 H 0.97527 0.63178 0.60369 0.0
H790 H 0.022 0.70466 0.54867 0.0
H791 H 0.01701 0.73814 0.57628 0.0
H792 H 0.94973 0.69227 0.60428 0.0
C793 C 0.96008 0.61823 0.54236 0.0
C794 C 0.97357 0.61368 0.52191 0.0
C795 C 0.99363 0.63249 0.51401 0.0
C796 C 1.00052 0.65472 0.52649 0.0
C797 C 0.98683 0.65836 0.5465 0.0
C798 C 0.96663 0.64093 0.55399 0.0
C799 C 0.95342 0.65048 0.57449 0.0
C800 C 0.92566 0.65284 0.56653 0.0
C801 C 0.95515 0.63351 0.59821 0.0
C802 C 0.96932 0.6761 0.57726 0.0
C803 C 0.98894 0.67996 0.56141 0.0
C804 C 0.00659 0.70194 0.56103 0.0
C805 C 0.00372 0.72074 0.57683 0.0
C806 C 0.98297 0.71768 0.59222 0.0
C807 C 0.96569 0.69501 0.59257 0.0
H808 H 0.7707 0.83947 0.28036 0.0
H809 H 0.77524 0.83447 0.20163 0.0
H810 H 0.80111 0.87672 0.19935 0.0
H811 H 0.76296 0.90476 0.27733 0.0
H812 H 0.78128 0.91111 0.30575 0.0
H813 H 0.76423 0.88002 0.30119 0.0
H814 H 0.80591 0.86102 0.31028 0.0
H815 H 0.8231 0.89206 0.31485 0.0
H816 H 0.83312 0.87275 0.29261 0.0
H817 H 0.82671 0.92018 0.20596 0.0
H818 H 0.84844 0.96101 0.22074 0.0
H819 H 0.82449 0.93773 0.29444 0.0
C820 C 0.77685 0.84724 0.26253 0.0
C821 C 0.77086 0.83344 0.24118 0.0
C822 C 0.77986 0.84436 0.21837 0.0
C823 C 0.79445 0.86847 0.21684 0.0
C824 C 0.79979 0.88156 0.23825 0.0
C825 C 0.79114 0.87131 0.26063 0.0
C826 C 0.79889 0.88935 0.28086 0.0
C827 C 0.77544 0.89675 0.29193 0.0
C828 C 0.81629 0.87812 0.30082 0.0
C829 C 0.81325 0.91142 0.26639 0.0
C830 C 0.81376 0.90658 0.24188 0.0
C831 C 0.82633 0.92418 0.22511 0.0
C832 C 0.83862 0.94731 0.23366 0.0
C833 C 0.83805 0.95268 0.2587 0.0
C834 C 0.82513 0.93438 0.27514 0.0
H835 H 0.78473 0.17393 0.31718 0.0
H836 H 0.804 0.2128 0.24713 0.0
H837 H 0.82446 0.17692 0.23635 0.0
H838 H 0.84173 0.14717 0.32866 0.0
H839 H 0.82635 0.11776 0.3423 0.0
H840 H 0.81267 0.14617 0.34409 0.0
H841 H 0.77033 0.12464 0.32381 0.0
H842 H 0.78387 0.09612 0.32203 0.0
H843 H 0.77048 0.1108 0.2946 0.0
H844 H 0.84411 0.1371 0.23394 0.0
H845 H 0.8605 0.09629 0.23975 0.0
H846 H 0.82742 0.08333 0.31105 0.0
C847 C 0.79296 0.17468 0.29944 0.0
C848 C 0.79238 0.19589 0.28277 0.0
C849 C 0.80388 0.19652 0.25998 0.0
C850 C 0.81558 0.17627 0.25373 0.0
C851 C 0.81568 0.15554 0.27052 0.0
C852 C 0.80457 0.15457 0.29287 0.0
C853 C 0.80755 0.13029 0.30778 0.0
C854 C 0.823 0.13568 0.33215 0.0
C855 C 0.78151 0.11453 0.31231 0.0
C856 C 0.82221 0.11782 0.29043 0.0
C857 C 0.82678 0.13266 0.26905 0.0
C858 C 0.84051 0.12525 0.25056 0.0
C859 C 0.84978 0.10206 0.25403 0.0
C860 C 0.84519 0.0865 0.27579 0.0
C861 C 0.83114 0.09462 0.29411 0.0
H862 H 0.42873 0.00539 0.00423 0.0
H863 H 0.38916 0.07005 0.0058 0.0
H864 H 0.34811 0.04146 0.00614 0.0
H865 H 0.38282 0.96963 0.96373 0.0
H866 H 0.387 0.93983 0.97944 0.0
H867 H 0.41291 0.96558 0.97922 0.0
H868 H 0.41679 0.9621 0.02693 0.0
H869 H 0.39083 0.93641 0.02731 0.0
H870 H 0.38937 0.96394 0.04404 0.0
H871 H 0.31112 0.00493 0.00666 0.0
H872 H 0.28208 0.96421 0.00724 0.0
H873 H 0.34688 0.92461 0.00456 0.0
C874 C 0.41146 0.01366 0.00427 0.0
C875 C 0.4122 0.04001 0.00485 0.0
C876 C 0.3891 0.0499 0.00552 0.0
C877 C 0.36569 0.03382 0.0056 0.0
C878 C 0.36571 0.00791 0.005 0.0
C879 C 0.38805 0.99796 0.00431 0.0
C880 C 0.38317 0.96953 0.00401 0.0
C881 C 0.39199 0.96063 0.98018 0.0
C882 C 0.39578 0.95728 0.02694 0.0
C883 C 0.35456 0.96492 0.00468 0.0
C884 C 0.34472 0.9872 0.00525 0.0
C885 C 0.31865 0.98739 0.00616 0.0
C886 C 0.30231 0.96418 0.0065 0.0
C887 C 0.31214 0.94117 0.00592 0.0
C888 C 0.33864 0.94178 0.00497 0.0
H889 H 0.28516 0.37154 0.31871 0.0
H890 H 0.26696 0.32747 0.38682 0.0
H891 H 0.22602 0.34341 0.3857 0.0
H892 H 0.25992 0.42643 0.33573 0.0
H893 H 0.24888 0.43423 0.30465 0.0
H894 H 0.27616 0.41819 0.31011 0.0
H895 H 0.2544 0.38252 0.28281 0.0
H896 H 0.22697 0.39833 0.2774 0.0
H897 H 0.22342 0.36616 0.28993 0.0
H898 H 0.18593 0.36286 0.37604 0.0
H899 H 0.15222 0.38806 0.36119 0.0
H900 H 0.19926 0.42325 0.30274 0.0
C901 C 0.27296 0.36545 0.33374 0.0
C902 C 0.27953 0.34789 0.35273 0.0
C903 C 0.26236 0.34028 0.37162 0.0
C904 C 0.23904 0.34942 0.3713 0.0
C905 C 0.23329 0.36657 0.35226 0.0
C906 C 0.24997 0.37486 0.33409 0.0
C907 C 0.23978 0.3942 0.31623 0.0
C908 C 0.25722 0.41978 0.31672 0.0
C909 C 0.23591 0.38473 0.29005 0.0
C910 C 0.21464 0.39542 0.32712 0.0
C911 C 0.21105 0.37903 0.34767 0.0
C912 C 0.18868 0.37598 0.36016 0.0
C913 C 0.16963 0.39025 0.35156 0.0
C914 C 0.17333 0.4077 0.33102 0.0
C915 C 0.19614 0.41029 0.31871 0.0
H916 H 0.147 0.98485 0.44027 0.0
H917 H 0.10117 0.0134 0.49182 0.0
H918 H 0.13847 0.04361 0.50537 0.0
H919 H 0.20268 0.98717 0.4785 0.0
H920 H 0.224 0.99676 0.45413 0.0
H921 H 0.19337 0.97862 0.44745 0.0
H922 H 0.18263 0.01309 0.41459 0.0
H923 H 0.21336 0.03125 0.42097 0.0
H924 H 0.18502 0.04528 0.42306 0.0
H925 H 0.18166 0.06941 0.51449 0.0
H926 H 0.22665 0.08923 0.51767 0.0
H927 H 0.24346 0.04345 0.45983 0.0
C928 C 0.1446 0.99785 0.45399 0.0
C929 C 0.12113 0.99687 0.46488 0.0
C930 C 0.11902 0.01375 0.4833 0.0
C931 C 0.14006 0.03101 0.49104 0.0
C932 C 0.16304 0.03116 0.48017 0.0
C933 C 0.16535 0.0151 0.46194 0.0
C934 C 0.19227 0.01832 0.45376 0.0
C935 C 0.20375 0.99376 0.45877 0.0
C936 C 0.19338 0.02754 0.42648 0.0
C937 C 0.20486 0.03856 0.47039 0.0
C938 C 0.18773 0.04581 0.48546 0.0
C939 C 0.19519 0.06397 0.50267 0.0
C940 C 0.2208 0.07508 0.50438 0.0
C941 C 0.23863 0.06794 0.489 0.0
C942 C 0.23038 0.0494 0.47185 0.0
H943 H 0.76559 0.15545 0.79907 0.0
H944 H 0.74313 0.15965 0.72109 0.0
H945 H 0.71302 0.12052 0.72664 0.0
H946 H 0.76265 0.08706 0.80456 0.0
H947 H 0.75053 0.08393 0.8349 0.0
H948 H 0.77049 0.1125 0.82497 0.0
H949 H 0.7357 0.1386 0.83467 0.0
H950 H 0.71557 0.11011 0.84448 0.0
H951 H 0.70412 0.13117 0.8207 0.0
H952 H 0.68453 0.08188 0.74031 0.0
H953 H 0.66087 0.04425 0.76111 0.0
H954 H 0.70231 0.06343 0.83014 0.0
C955 C 0.75448 0.148 0.78315 0.0
C956 C 0.75644 0.16095 0.75972 0.0
C957 C 0.74153 0.15053 0.73936 0.0
C958 C 0.72446 0.12818 0.74226 0.0
C959 C 0.72261 0.11619 0.76561 0.0
C960 C 0.73732 0.12552 0.78569 0.0
C961 C 0.73158 0.10863 0.8087 0.0
C962 C 0.75522 0.09736 0.81888 0.0
C963 C 0.72112 0.12299 0.82829 0.0
C964 C 0.71129 0.08851 0.79835 0.0
C965 C 0.70639 0.09336 0.77346 0.0
C966 C 0.68825 0.07777 0.75979 0.0
C967 C 0.67485 0.05646 0.77181 0.0
C968 C 0.67971 0.05081 0.79726 0.0
C969 C 0.69816 0.06717 0.81067 0.0
H970 H 0.46058 0.00214 0.54651 0.0
H971 H 0.4404 0.99186 0.62285 0.0
H972 H 0.41048 0.02257 0.61469 0.0
H973 H 0.45352 0.06868 0.53625 0.0
H974 H 0.43957 0.06441 0.50554 0.0
H975 H 0.46206 0.04455 0.5183 0.0
H976 H 0.42925 0.0048 0.5099 0.0
H977 H 0.40673 0.02449 0.4971 0.0
H978 H 0.39826 0.00176 0.52216 0.0
H979 H 0.38015 0.05257 0.59713 0.0
H980 H 0.35088 0.07646 0.57136 0.0
H981 H 0.38893 0.06374 0.50637 0.0
C982 C 0.44999 0.00627 0.56164 0.0
C983 C 0.45311 0.99446 0.5854 0.0
C984 C 0.43893 1.00091 0.60459 0.0
C985 C 0.42171 0.01829 0.6001 0.0
C986 C 0.41873 0.02904 0.57631 0.0
C987 C 0.43246 0.02315 0.5574 0.0
C988 C 0.42429 0.03542 0.53302 0.0
C989 C 0.44617 0.05439 0.52268 0.0
C990 C 0.41402 0.01543 0.51447 0.0
C991 C 0.40339 0.04869 0.54101 0.0
C992 C 0.40074 0.04528 0.5661 0.0
C993 C 0.38219 0.05545 0.57748 0.0
C994 C 0.36569 0.06904 0.56274 0.0
C995 C 0.36759 0.07188 0.53688 0.0
C996 C 0.38696 0.06184 0.52608 0.0
H997 H 0.59503 0.4945 0.51103 0.0
H998 H 0.54875 0.44977 0.56526 0.0
H999 H 0.57948 0.41941 0.57012 0.0
H1000 H 0.61307 0.44333 0.48174 0.0
H1001 H 0.64509 0.45832 0.47681 0.0
H1002 H 0.62022 0.47726 0.47844 0.0
H1003 H 0.64593 0.50164 0.51354 0.0
H1004 H 0.67098 0.48289 0.5119 0.0
H1005 H 0.65663 0.4844 0.54071 0.0
H1006 H 0.61353 0.39263 0.56708 0.0
H1007 H 0.65021 0.37235 0.55853 0.0
H1008 H 0.67544 0.43484 0.50687 0.0
C1009 C 0.5916 0.47841 0.52408 0.0
C1010 C 0.56948 0.47426 0.53764 0.0
C1011 C 0.56553 0.45313 0.55462 0.0
C1012 C 0.58285 0.43582 0.55747 0.0
C1013 C 0.60417 0.44009 0.5434 0.0
C1014 C 0.60879 0.46099 0.52722 0.0
C1015 C 0.63302 0.4609 0.5141 0.0
C1016 C 0.62751 0.45989 0.48612 0.0
C1017 C 0.65281 0.48382 0.52045 0.0
C1018 C 0.64111 0.43652 0.52518 0.0
C1019 C 0.62415 0.42483 0.54201 0.0
C1020 C 0.62706 0.40171 0.55411 0.0
C1021 C 0.64793 0.39028 0.54903 0.0
C1022 C 0.66578 0.40199 0.53207 0.0
C1023 C 0.66225 0.42547 0.52004 0.0
H1024 H 0.7371 0.24999 0.36942 0.0
H1025 H 0.70606 0.30472 0.3185 0.0
H1026 H 0.70419 0.3319 0.35261 0.0
H1027 H 0.70373 0.25901 0.42269 0.0
H1028 H 0.73075 0.25682 0.44388 0.0
H1029 H 0.72746 0.24027 0.4159 0.0
H1030 H 0.77186 0.26255 0.4037 0.0
H1031 H 0.7754 0.27893 0.43175 0.0
H1032 H 0.7786 0.29653 0.40251 0.0
H1033 H 0.70573 0.35354 0.39257 0.0
H1034 H 0.71608 0.37024 0.43387 0.0
H1035 H 0.75015 0.30366 0.45737 0.0
C1036 C 0.73005 0.26772 0.36523 0.0
C1037 C 0.72121 0.27469 0.34107 0.0
C1038 C 0.71209 0.29822 0.33681 0.0
C1039 C 0.71111 0.314 0.35611 0.0
C1040 C 0.71973 0.30636 0.37962 0.0
C1041 C 0.72946 0.284 0.38415 0.0
C1042 C 0.73934 0.28107 0.41068 0.0
C1043 C 0.72442 0.25792 0.42407 0.0
C1044 C 0.768 0.2797 0.41224 0.0
C1045 C 0.73382 0.30538 0.42029 0.0
C1046 C 0.72203 0.3195 0.40224 0.0
C1047 C 0.71502 0.34267 0.40685 0.0
C1048 C 0.72082 0.35195 0.43037 0.0
C1049 C 0.73395 0.33828 0.44874 0.0
C1050 C 0.74015 0.31455 0.44364 0.0
H1051 H 0.54018 0.07858 0.92134 0.0
H1052 H 0.495 0.01712 0.96162 0.0
H1053 H 0.51557 0.98639 0.94141 0.0
H1054 H 0.53669 0.04747 0.8647 0.0
H1055 H 0.56857 0.06031 0.85682 0.0
H1056 H 0.55128 0.07763 0.87536 0.0
H1057 H 0.58773 0.07946 0.90923 0.0
H1058 H 0.6051 0.06208 0.89082 0.0
H1059 H 0.59802 0.05056 0.92179 0.0
H1060 H 0.5406 0.96244 0.91706 0.0
H1061 H 0.56657 0.94618 0.88793 0.0
H1062 H 0.595 0.02291 0.86193 0.0
C1063 C 0.53491 0.05865 0.92608 0.0
C1064 C 0.51663 0.05021 0.94364 0.0
C1065 C 0.50949 0.02398 0.94877 0.0
C1066 C 0.52103 0.0064 0.93734 0.0
C1067 C 0.53933 0.01534 0.9205 0.0
C1068 C 0.5461 0.0408 0.91466 0.0
C1069 C 0.56547 0.04522 0.89502 0.0
C1070 C 0.55486 0.05843 0.87159 0.0
C1071 C 0.59057 0.06022 0.90481 0.0
C1072 C 0.56851 0.01825 0.89077 0.0
C1073 C 0.55334 1.00138 0.9058 0.0
C1074 C 0.55256 0.97544 0.90518 0.0
C1075 C 0.56744 0.9664 0.88852 0.0
C1076 C 0.58287 0.98323 0.87255 0.0
C1077 C 0.58351 0.00954 0.87391 0.0
H1078 H 0.31234 0.28296 0.40641 0.0
H1079 H 0.35045 0.26491 0.3433 0.0
H1080 H 0.3555 0.22338 0.36366 0.0
H1081 H 0.35032 0.25256 0.45293 0.0
H1082 H 0.32403 0.24115 0.47188 0.0
H1083 H 0.32376 0.26971 0.45263 0.0
H1084 H 0.28056 0.25107 0.43185 0.0
H1085 H 0.28061 0.22255 0.45116 0.0
H1086 H 0.27752 0.22104 0.41816 0.0
H1087 H 0.35549 0.18365 0.39017 0.0
H1088 H 0.34973 0.14768 0.42073 0.0
H1089 H 0.31164 0.19126 0.46699 0.0
C1090 C 0.32158 0.27019 0.39678 0.0
C1091 C 0.33104 0.27721 0.37325 0.0
C1092 C 0.34332 0.26008 0.36143 0.0
C1093 C 0.34621 0.23643 0.37282 0.0
C1094 C 0.3368 0.23021 0.39605 0.0
C1095 C 0.32469 0.24653 0.40791 0.0
C1096 C 0.31601 0.23503 0.43268 0.0
C1097 C 0.32933 0.25054 0.45377 0.0
C1098 C 0.28695 0.23226 0.4335 0.0
C1099 C 0.32494 0.20956 0.4328 0.0
C1100 C 0.33694 0.20725 0.4115 0.0
C1101 C 0.34622 0.18526 0.40696 0.0
C1102 C 0.34283 0.16492 0.42446 0.0
C1103 C 0.33029 0.16664 0.44632 0.0
C1104 C 0.32155 0.18945 0.45063 0.0
H1105 H 0.47795 0.48714 0.93221 0.0
H1106 H 0.54805 0.51803 0.89821 0.0
H1107 H 0.52413 0.5233 0.85809 0.0
H1108 H 0.44777 0.45305 0.88004 0.0
H1109 H 0.4167 0.46002 0.88558 0.0
H1110 H 0.43973 0.45752 0.9109 0.0
H1111 H 0.43487 0.50233 0.92308 0.0
H1112 H 0.4119 0.50498 0.89779 0.0
H1113 H 0.43973 0.52849 0.90055 0.0
H1114 H 0.49155 0.52665 0.82195 0.0
H1115 H 0.45355 0.52796 0.79348 0.0
H1116 H 0.40559 0.49506 0.85225 0.0
C1117 C 0.48826 0.4948 0.91625 0.0
C1118 C 0.51477 0.5022 0.91813 0.0
C1119 C 0.52768 0.51226 0.89695 0.0
C1120 C 0.51427 0.51528 0.87418 0.0
C1121 C 0.488 0.50807 0.87298 0.0
C1122 C 0.47519 0.49798 0.89349 0.0
C1123 C 0.4469 0.49249 0.88769 0.0
C1124 C 0.43722 0.46408 0.89126 0.0
C1125 C 0.43252 0.508 0.90319 0.0
C1126 C 0.44568 0.50134 0.86081 0.0
C1127 C 0.46951 0.51013 0.85249 0.0
C1128 C 0.47281 0.51969 0.82827 0.0
C1129 C 0.45115 0.52037 0.81222 0.0
C1130 C 0.42657 0.51167 0.82058 0.0
C1131 C 0.42405 0.50191 0.84518 0.0
H1132 H 0.75768 0.74515 0.147 0.0
H1133 H 0.7373 0.69417 0.20994 0.0
H1134 H 0.75064 0.65911 0.189 0.0
H1135 H 0.73538 0.70175 0.1012 0.0
H1136 H 0.76061 0.71295 0.08093 0.0
H1137 H 0.75071 0.73407 0.10142 0.0
H1138 H 0.79687 0.74398 0.11988 0.0
H1139 H 0.80693 0.72294 0.09936 0.0
H1140 H 0.81315 0.71844 0.13211 0.0
H1141 H 0.76506 0.62941 0.1603 0.0
H1142 H 0.77935 0.60752 0.12644 0.0
H1143 H 0.78988 0.67826 0.08229 0.0
C1144 C 0.75634 0.72667 0.15648 0.0
C1145 C 0.74681 0.72233 0.18021 0.0
C1146 C 0.74488 0.69783 0.19188 0.0
C1147 C 0.75235 0.67786 0.18011 0.0
C1148 C 0.76161 0.68274 0.15664 0.0
C1149 C 0.76365 0.70657 0.14498 0.0
C1150 C 0.77349 0.70673 0.11951 0.0
C1151 C 0.75388 0.71432 0.0996 0.0
C1152 C 0.79913 0.72405 0.11762 0.0
C1153 C 0.77654 0.67925 0.11856 0.0
C1154 C 0.76967 0.6657 0.14015 0.0
C1155 C 0.77057 0.63987 0.14336 0.0
C1156 C 0.77871 0.62759 0.124 0.0
C1157 C 0.78578 0.64112 0.10168 0.0
C1158 C 0.78468 0.66732 0.0991 0.0
H1159 H 0.99452 0.01828 0.0966 0.0
H1160 H 0.01787 0.09879 0.10276 0.0
H1161 H 0.99381 0.09713 0.14002 0.0
H1162 H 0.93154 0.0157 0.11652 0.0
H1163 H 0.93113 0.98588 0.13384 0.0
H1164 H 0.95049 0.99305 0.10767 0.0
H1165 H 0.99026 0.9848 0.13494 0.0
H1166 H 0.97099 0.97747 0.16118 0.0
H1167 H 0.9984 0.00164 0.16255 0.0
H1168 H 0.96649 0.08737 0.17582 0.0
H1169 H 0.93872 0.06969 0.20908 0.0
H1170 H 0.9336 0.99515 0.18101 0.0
C1171 C 0.99477 0.0355 0.10593 0.0
C1172 C 0.00788 0.05873 0.09649 0.0
C1173 C 0.00756 0.08085 0.10924 0.0
C1174 C 0.99407 0.0801 0.13055 0.0
C1175 C 0.98107 0.05704 0.13912 0.0
C1176 C 0.9814 0.03509 0.12737 0.0
C1177 C 0.96566 0.01284 0.14054 0.0
C1178 C 0.94338 1.00119 0.12363 0.0
C1179 C 0.98233 0.99302 0.15039 0.0
C1180 C 0.95638 0.0258 0.1614 0.0
C1181 C 0.9655 0.05131 0.16015 0.0
C1182 C 0.95931 0.06739 0.17708 0.0
C1183 C 0.94345 0.05715 0.19589 0.0
C1184 C 0.93396 0.03101 0.19776 0.0
C1185 C 0.94058 0.01519 0.18019 0.0
H1186 H 0.29546 0.76317 0.17062 0.0
H1187 H 0.22166 0.76889 0.19685 0.0
H1188 H 0.21164 0.79401 0.15871 0.0
H1189 H 0.30739 0.82529 0.14201 0.0
H1190 H 0.32266 0.81581 0.11633 0.0
H1191 H 0.3238 0.7982 0.14556 0.0
H1192 H 0.30435 0.75722 0.12458 0.0
H1193 H 0.30321 0.77469 0.09527 0.0
H1194 H 0.27471 0.75632 0.1066 0.0
H1195 H 0.21022 0.81928 0.11791 0.0
H1196 H 0.2171 0.84195 0.07736 0.0
H1197 H 0.29143 0.81841 0.07756 0.0
C1198 C 0.27707 0.76945 0.16817 0.0
C1199 C 0.25905 0.76363 0.18637 0.0
C1200 C 0.23548 0.77276 0.18286 0.0
C1201 C 0.22968 0.78707 0.16132 0.0
C1202 C 0.24773 0.79215 0.14355 0.0
C1203 C 0.27091 0.78355 0.14672 0.0
C1204 C 0.28702 0.79164 0.1249 0.0
C1205 C 0.31167 0.80876 0.13267 0.0
C1206 C 0.29265 0.76859 0.11208 0.0
C1207 C 0.26932 0.80621 0.10895 0.0
C1208 C 0.24679 0.8064 0.12005 0.0
C1209 C 0.22774 0.81914 0.10899 0.0
C1210 C 0.23184 0.832 0.08597 0.0
C1211 C 0.25474 0.83187 0.07419 0.0
C1212 C 0.27362 0.81872 0.08594 0.0
H1213 H 1.0007 0.44627 0.14722 0.0
H1214 H 0.06236 0.47289 0.09958 0.0
H1215 H 0.09293 0.475 0.13585 0.0
H1216 H 0.02343 0.48343 0.1982 0.0
H1217 H 0.01346 0.45888 0.22122 0.0
H1218 H 0.99661 0.45964 0.19157 0.0
H1219 H 0.00406 0.41392 0.18557 0.0
H1220 H 0.02087 0.41299 0.21526 0.0
H1221 H 0.03596 0.40643 0.18824 0.0
H1222 H 0.11619 0.47661 0.1778 0.0
H1223 H 0.13109 0.47353 0.22169 0.0
H1224 H 0.05456 0.44281 0.24138 0.0
C1225 C 0.02067 0.45248 0.14452 0.0
C1226 C 0.0293 0.45952 0.12076 0.0
C1227 C 0.05552 0.46734 0.11772 0.0
C1228 C 0.07293 0.46869 0.13818 0.0
C1229 C 0.06381 0.46175 0.16145 0.0
C1230 C 0.03833 0.45344 0.16466 0.0
C1231 C 0.03351 0.44646 0.1915 0.0
C1232 C 0.0157 0.4631 0.20119 0.0
C1233 C 0.02298 0.41827 0.19536 0.0
C1234 C 0.06019 0.45239 0.20294 0.0
C1235 C 0.07736 0.46146 0.18535 0.0
C1236 C 0.10296 0.46924 0.19169 0.0
C1237 C 0.11123 0.46751 0.21664 0.0
C1238 C 0.09403 0.45769 0.23485 0.0
C1239 C 0.06821 0.45003 0.22781 0.0
H1240 H 0.34636 0.70443 0.29868 0.0
H1241 H 0.36532 0.73363 0.22483 0.0
H1242 H 0.40829 0.75067 0.24058 0.0
H1243 H 0.38025 0.75494 0.33084 0.0
H1244 H 0.39137 0.73563 0.35633 0.0
H1245 H 0.36212 0.7248 0.33935 0.0
H1246 H 0.37915 0.6838 0.33061 0.0
H1247 H 0.40843 0.69445 0.34768 0.0
H1248 H 0.40901 0.68586 0.31634 0.0
H1249 H 0.44768 0.76742 0.26428 0.0
H1250 H 0.48278 0.78062 0.29442 0.0
H1251 H 0.44043 0.73808 0.3528 0.0
C1252 C 0.35966 0.714 0.28571 0.0
C1253 C 0.35221 0.71792 0.2605 0.0
C1254 C 0.37023 0.73086 0.24429 0.0
C1255 C 0.39482 0.74044 0.25302 0.0
C1256 C 0.40134 0.73662 0.27795 0.0
C1257 C 0.38447 0.72346 0.29407 0.0
C1258 C 0.39642 0.72236 0.32009 0.0
C1259 C 0.38166 0.7352 0.33768 0.0
C1260 C 0.39837 0.69499 0.32921 0.0
C1261 C 0.42247 0.73739 0.31609 0.0
C1262 C 0.42475 0.74547 0.29161 0.0
C1263 C 0.4463 0.76093 0.28343 0.0
C1264 C 0.46606 0.76841 0.30071 0.0
C1265 C 0.46436 0.76022 0.32586 0.0
C1266 C 0.44236 0.74426 0.3336 0.0
H1267 H 0.98513 0.39949 0.00304 0.0
H1268 H 0.05637 0.44967 0.99565 0.0
H1269 H 0.06897 0.42247 0.96531 0.0
H1270 H 0.01109 0.33996 0.99621 0.0
H1271 H 0.98313 0.3261 0.97886 0.0
H1272 H 0.98052 0.3483 1.00161 0.0
H1273 H 0.95862 0.37589 0.9686 0.0
H1274 H 0.9613 0.35389 0.94574 0.0
H1275 H 0.97437 0.38668 0.94071 0.0
H1276 H 0.07187 0.3931 0.93268 0.0
H1277 H 0.06608 0.3613 0.90125 0.0
H1278 H 0.99428 0.32801 0.93076 0.0
C1279 C 0.00366 0.40429 0.9955 0.0
C1280 C 0.02008 0.42637 0.00213 0.0
C1281 C 0.04378 0.43257 0.99124 0.0
C1282 C 0.05106 0.41727 0.97395 0.0
C1283 C 0.03446 0.39574 0.96772 0.0
C1284 C 0.01136 0.38902 0.97831 0.0
C1285 C 0.99666 0.36544 0.96744 0.0
C1286 C 0.99262 0.34366 0.98721 0.0
C1287 C 0.97124 0.37081 0.95488 0.0
C1288 C 0.01487 0.36034 0.94871 0.0
C1289 C 0.03652 0.37815 0.94921 0.0
C1290 C 0.05527 0.37874 0.93244 0.0
C1291 C 0.05181 0.3607 0.91464 0.0
C1292 C 0.03001 0.34211 0.91396 0.0
C1293 C 0.0114 0.34173 0.93135 0.0
H1294 H 0.68581 0.81069 0.26931 0.0
H1295 H 0.70546 0.73642 0.29026 0.0
H1296 H 0.6703 0.72868 0.31857 0.0
H1297 H 0.66997 0.82492 0.32981 0.0
H1298 H 0.64427 0.84133 0.31809 0.0
H1299 H 0.67101 0.84084 0.29965 0.0
H1300 H 0.64066 0.82232 0.26416 0.0
H1301 H 0.61385 0.82282 0.28245 0.0
H1302 H 0.61883 0.79377 0.2701 0.0
H1303 H 0.63211 0.7291 0.34443 0.0
H1304 H 0.59406 0.73737 0.36447 0.0
H1305 H 0.60103 0.81182 0.32706 0.0
C1306 C 0.68299 0.79289 0.28005 0.0
C1307 C 0.69852 0.7742 0.27756 0.0
C1308 C 0.69369 0.75096 0.29162 0.0
C1309 C 0.67388 0.74645 0.3079 0.0
C1310 C 0.65907 0.76539 0.30998 0.0
C1311 C 0.66343 0.78814 0.2964 0.0
C1312 C 0.64466 0.80531 0.30162 0.0
C1313 C 0.6583 0.82953 0.31297 0.0
C1314 C 0.62855 0.8114 0.27819 0.0
C1315 C 0.6289 0.78865 0.32016 0.0
C1316 C 0.63746 0.76571 0.32485 0.0
C1317 C 0.62535 0.74707 0.34096 0.0
C1318 C 0.60377 0.75195 0.3523 0.0
C1319 C 0.59454 0.77527 0.34747 0.0
C1320 C 0.60759 0.79384 0.33135 0.0
H1321 H 0.03328 0.08917 0.98448 0.0
H1322 H 0.03688 0.13292 0.04912 0.0
H1323 H 0.03535 0.17157 0.02247 0.0
H1324 H 0.07296 0.13667 0.94755 0.0
H1325 H 0.05474 0.12968 0.91921 0.0
H1326 H 0.05636 0.10528 0.94333 0.0
H1327 H 0.00724 0.09715 0.94324 0.0
H1328 H 0.00547 0.12158 0.91919 0.0
H1329 H 0.99026 0.12294 0.94756 0.0
H1330 H 0.0326 0.20529 0.98929 0.0
H1331 H 0.02967 0.23246 0.95137 0.0
H1332 H 0.02861 0.16753 0.90763 0.0
C1333 C 0.03399 0.10692 0.99301 0.0
C1334 C 0.03496 0.10793 0.01894 0.0
C1335 C 0.03566 0.13154 0.02934 0.0
C1336 C 0.03496 0.15366 0.01436 0.0
C1337 C 0.03369 0.15197 0.98894 0.0
C1338 C 0.03332 0.12928 0.97827 0.0
C1339 C 0.03172 0.13283 0.95039 0.0
C1340 C 0.05536 0.12569 0.93948 0.0
C1341 C 0.00721 0.11773 0.93946 0.0
C1342 C 0.03114 0.16102 0.94712 0.0
C1343 C 0.0323 0.17162 0.96964 0.0
C1344 C 0.03176 0.19725 0.97153 0.0
C1345 C 0.03006 0.21252 0.94983 0.0
C1346 C 0.02893 0.2022 0.92644 0.0
C1347 C 0.02949 0.17605 0.92518 0.0
H1348 H 0.35869 0.34002 0.25812 0.0
H1349 H 0.41344 0.34586 0.32041 0.0
H1350 H 0.4423 0.32482 0.29772 0.0
H1351 H 0.37143 0.27862 0.23792 0.0
H1352 H 0.36753 0.28854 0.20585 0.0
H1353 H 0.35002 0.30076 0.22835 0.0
H1354 H 0.36823 0.34637 0.21342 0.0
H1355 H 0.38591 0.33433 0.19105 0.0
H1356 H 0.40216 0.35552 0.21316 0.0
H1357 H 0.46672 0.30683 0.26648 0.0
H1358 H 0.4848 0.29403 0.22948 0.0
H1359 H 0.41394 0.30074 0.1876 0.0
C1360 C 0.37642 0.33612 0.26725 0.0
C1361 C 0.38355 0.34382 0.29128 0.0
C1362 C 0.40735 0.33942 0.30228 0.0
C1363 C 0.42385 0.32755 0.2895 0.0
C1364 C 0.4163 0.32038 0.2657 0.0
C1365 C 0.39307 0.32442 0.25474 0.0
C1366 C 0.39025 0.31694 0.22831 0.0
C1367 C 0.36852 0.2949 0.22492 0.0
C1368 C 0.38643 0.33964 0.21045 0.0
C1369 C 0.41581 0.30871 0.22583 0.0
C1370 C 0.43047 0.31052 0.24765 0.0
C1371 C 0.45527 0.30507 0.24939 0.0
C1372 C 0.4654 0.29784 0.22825 0.0
C1373 C 0.45081 0.29632 0.20559 0.0
C1374 C 0.42558 0.30154 0.20462 0.0
H1375 H 0.53137 0.44069 0.02036 0.0
H1376 H 0.61091 0.43088 0.02322 0.0
H1377 H 0.60282 0.39728 0.05584 0.0
H1378 H 0.52037 0.427 0.08498 0.0
H1379 H 0.48915 0.40956 0.0792 0.0
H1380 H 0.50154 0.43462 0.05766 0.0
H1381 H 0.49411 0.40373 0.02247 0.0
H1382 H 0.48163 0.37861 0.04387 0.0
H1383 H 0.50782 0.37494 0.02578 0.0
H1384 H 0.58603 0.36384 0.08749 0.0
H1385 H 0.56112 0.33113 0.11373 0.0
H1386 H 0.49202 0.3603 0.08781 0.0
C1387 C 0.54716 0.43151 0.02769 0.0
C1388 C 0.57191 0.4389 0.01924 0.0
C1389 C 0.59192 0.4263 0.02971 0.0
C1390 C 0.5875 0.40696 0.04819 0.0
C1391 C 0.5629 0.40013 0.0559 0.0
C1392 C 0.54302 0.41186 0.04584 0.0
C1393 C 0.51808 0.39987 0.05628 0.0
C1394 C 0.50662 0.4189 0.07037 0.0
C1395 C 0.49931 0.38862 0.03589 0.0
C1396 C 0.52703 0.3794 0.07361 0.0
C1397 C 0.55301 0.38012 0.07338 0.0
C1398 C 0.56567 0.36308 0.08784 0.0
C1399 C 0.55136 0.34461 0.10273 0.0
C1400 C 0.52461 0.34311 0.10279 0.0
C1401 C 0.51241 0.3609 0.08812 0.0
H1402 H 0.65197 0.24571 0.28232 0.0
H1403 H 0.7106 0.24117 0.23177 0.0
H1404 H 0.67975 0.24552 0.19666 0.0
H1405 H 0.59904 0.21249 0.24658 0.0
H1406 H 0.57716 0.2328 0.25439 0.0
H1407 H 0.60336 0.22736 0.27555 0.0
H1408 H 0.61825 0.27558 0.27602 0.0
H1409 H 0.59216 0.28116 0.25483 0.0
H1410 H 0.62425 0.29364 0.24738 0.0
H1411 H 0.64305 0.25238 0.167 0.0
H1412 H 0.6032 0.26113 0.14498 0.0
H1413 H 0.56908 0.26291 0.21494 0.0
C1414 C 0.6584 0.24563 0.2639 0.0
C1415 C 0.68378 0.24301 0.25989 0.0
C1416 C 0.6912 0.24269 0.2354 0.0
C1417 C 0.67384 0.24533 0.21531 0.0
C1418 C 0.64913 0.2483 0.21996 0.0
C1419 C 0.6414 0.24843 0.24365 0.0
C1420 C 0.61404 0.25287 0.24364 0.0
C1421 C 0.59742 0.23002 0.25575 0.0
C1422 C 0.61208 0.27727 0.25621 0.0
C1423 C 0.60768 0.25553 0.21623 0.0
C1424 C 0.62812 0.25265 0.20289 0.0
C1425 C 0.62689 0.25458 0.17725 0.0
C1426 C 0.60416 0.25958 0.16491 0.0
C1427 C 0.583 0.26274 0.17821 0.0
C1428 C 0.58489 0.26063 0.20423 0.0
H1429 H 0.43811 0.12921 0.03064 0.0
H1430 H 0.50671 0.09887 0.05579 0.0
H1431 H 0.51654 0.13169 0.08605 0.0
H1432 H 0.46462 0.19402 0.03457 0.0
H1433 H 0.43623 0.20349 0.04486 0.0
H1434 H 0.43391 0.17684 0.02606 0.0
H1435 H 0.40848 0.14874 0.05924 0.0
H1436 H 0.41079 0.17532 0.07819 0.0
H1437 H 0.42181 0.14665 0.0904 0.0
H1438 H 0.51935 0.16799 0.11296 0.0
H1439 H 0.51634 0.20694 0.13331 0.0
H1440 H 0.4462 0.21441 0.09032 0.0
C1441 C 0.45506 0.12939 0.04269 0.0
C1442 C 0.47168 0.11156 0.0409 0.0
C1443 C 0.49387 0.11253 0.05672 0.0
C1444 C 0.49951 0.13097 0.07407 0.0
C1445 C 0.4828 0.14833 0.07532 0.0
C1446 C 0.4611 0.14782 0.05999 0.0
C1447 C 0.44695 0.16939 0.06441 0.0
C1448 C 0.44535 0.18697 0.04109 0.0
C1449 C 0.42044 0.15942 0.07361 0.0
C1450 C 0.46422 0.18221 0.08447 0.0
C1451 C 0.48464 0.16959 0.09064 0.0
C1452 C 0.50341 0.17802 0.10835 0.0
C1453 C 0.50149 0.20017 0.11984 0.0
C1454 C 0.48102 0.21379 0.11347 0.0
C1455 C 0.46202 0.20442 0.09571 0.0
H1456 H 0.26185 0.33557 0.76037 0.0
H1457 H 0.26792 0.33401 0.68148 0.0
H1458 H 0.29364 0.37645 0.68115 0.0
H1459 H 0.25316 0.40001 0.75985 0.0
H1460 H 0.27082 0.40537 0.78879 0.0
H1461 H 0.25444 0.37436 0.78274 0.0
H1462 H 0.2965 0.35592 0.79157 0.0
H1463 H 0.31302 0.38688 0.79764 0.0
H1464 H 0.32393 0.36898 0.77473 0.0
H1465 H 0.3185 0.4202 0.68995 0.0
H1466 H 0.33871 0.46069 0.70688 0.0
H1467 H 0.31337 0.43307 0.77913 0.0
C1468 C 0.26834 0.34412 0.74292 0.0
C1469 C 0.26272 0.33135 0.72094 0.0
C1470 C 0.27219 0.3432 0.69865 0.0
C1471 C 0.28671 0.36739 0.69825 0.0
C1472 C 0.29153 0.37953 0.72026 0.0
C1473 C 0.28251 0.36822 0.74214 0.0
C1474 C 0.28947 0.3853 0.7632 0.0
C1475 C 0.26555 0.39163 0.77429 0.0
C1476 C 0.30676 0.37357 0.78294 0.0
C1477 C 0.30371 0.40812 0.74981 0.0
C1478 C 0.30498 0.40452 0.7251 0.0
C1479 C 0.31753 0.4232 0.70928 0.0
C1480 C 0.32896 0.44611 0.71902 0.0
C1481 C 0.32746 0.45016 0.74427 0.0
C1482 C 0.31468 0.43077 0.75969 0.0
H1483 H 0.2607 0.65389 0.82495 0.0
H1484 H 0.26522 0.6963 0.75455 0.0
H1485 H 0.29286 0.66756 0.74041 0.0
H1486 H 0.32532 0.6385 0.8296 0.0
H1487 H 0.31542 0.60735 0.84326 0.0
H1488 H 0.29804 0.63266 0.84818 0.0
H1489 H 0.25658 0.60609 0.8314 0.0
H1490 H 0.27383 0.58078 0.82629 0.0
H1491 H 0.25545 0.594 0.80121 0.0
H1492 H 0.31915 0.63248 0.73379 0.0
H1493 H 0.33975 0.59396 0.73491 0.0
H1494 H 0.31602 0.57464 0.80933 0.0
C1495 C 0.26803 0.65748 0.80677 0.0
C1496 C 0.2616 0.67782 0.79117 0.0
C1497 C 0.27062 0.6813 0.76709 0.0
C1498 C 0.28623 0.66501 0.75889 0.0
C1499 C 0.29232 0.64515 0.77486 0.0
C1500 C 0.2834 0.64136 0.7983 0.0
C1501 C 0.29124 0.61788 0.81146 0.0
C1502 C 0.30854 0.62451 0.83448 0.0
C1503 C 0.26788 0.59855 0.81796 0.0
C1504 C 0.30575 0.60881 0.79174 0.0
C1505 C 0.30647 0.6248 0.77081 0.0
C1506 C 0.31872 0.61988 0.75014 0.0
C1507 C 0.33038 0.59798 0.75093 0.0
C1508 C 0.32941 0.58119 0.77213 0.0
C1509 C 0.31702 0.58694 0.79274 0.0
H1510 H 0.91053 0.5152 0.46918 0.0
H1511 H 0.90306 0.55228 0.53642 0.0
H1512 H 0.86188 0.52597 0.54187 0.0
H1513 H 0.84374 0.50137 0.44928 0.0
H1514 H 0.84669 0.47037 0.4401 0.0
H1515 H 0.8734 0.49529 0.43859 0.0
H1516 H 0.90099 0.46761 0.4661 0.0
H1517 H 0.87447 0.44259 0.46754 0.0
H1518 H 0.89008 0.45463 0.49555 0.0
H1519 H 0.82205 0.4941 0.54137 0.0
H1520 H 0.79048 0.45535 0.53827 0.0
H1521 H 0.82765 0.43506 0.47567 0.0
C1522 C 0.90055 0.51799 0.48517 0.0
C1523 C 0.9104 0.5365 0.50204 0.0
C1524 C 0.89595 0.53917 0.5225 0.0
C1525 C 0.87243 0.52409 0.52595 0.0
C1526 C 0.86366 0.50592 0.50916 0.0
C1527 C 0.87751 0.5025 0.48944 0.0
C1528 C 0.86556 0.47954 0.47589 0.0
C1529 C 0.85683 0.48711 0.4494 0.0
C1530 C 0.88386 0.45994 0.47632 0.0
C1531 C 0.84311 0.47028 0.49142 0.0
C1532 C 0.84187 0.48621 0.51006 0.0
C1533 C 0.82281 0.48149 0.52685 0.0
C1534 C 0.80493 0.45955 0.5249 0.0
C1535 C 0.80679 0.44237 0.50679 0.0
C1536 C 0.8259 0.44799 0.48968 0.0
H1537 H 0.76604 0.84582 0.86622 0.0
H1538 H 0.82503 0.90622 0.84353 0.0
H1539 H 0.79289 0.93479 0.83506 0.0
H1540 H 0.71964 0.85969 0.82067 0.0
H1541 H 0.69325 0.85191 0.84025 0.0
H1542 H 0.7211 0.83686 0.84631 0.0
H1543 H 0.72589 0.85198 0.89076 0.0
H1544 H 0.69793 0.86695 0.88489 0.0
H1545 H 0.7274 0.88508 0.89553 0.0
H1546 H 0.75383 0.95614 0.82717 0.0
H1547 H 0.71103 0.96849 0.82047 0.0
H1548 H 0.67782 0.89385 0.84817 0.0
C1549 C 0.77227 0.86521 0.85999 0.0
C1550 C 0.79805 0.87387 0.85568 0.0
C1551 C 0.80535 0.8992 0.84689 0.0
C1552 C 0.78726 0.91558 0.84211 0.0
C1553 C 0.76193 0.90633 0.84621 0.0
C1554 C 0.75445 0.88175 0.85502 0.0
C1555 C 0.72593 0.87611 0.85675 0.0
C1556 C 0.71431 0.85489 0.83999 0.0
C1557 C 0.71888 0.86965 0.88358 0.0
C1558 C 0.71848 0.90125 0.8473 0.0
C1559 C 0.7395 0.9185 0.84145 0.0
C1560 C 0.73724 0.94282 0.83183 0.0
C1561 C 0.71284 0.94966 0.82806 0.0
C1562 C 0.69101 0.93218 0.83379 0.0
C1563 C 0.69406 0.90772 0.84364 0.0
H1564 H 0.63555 0.5179 0.01487 0.0
H1565 H 0.63386 0.50108 0.93792 0.0
H1566 H 0.67641 0.52587 0.93427 0.0
H1567 H 0.66844 0.5819 0.00771 0.0
H1568 H 0.68712 0.58002 0.03633 0.0
H1569 H 0.65621 0.56127 0.03303 0.0
H1570 H 0.67594 0.52074 0.0453 0.0
H1571 H 0.7069 0.53937 0.04867 0.0
H1572 H 0.70171 0.51369 0.02839 0.0
H1573 H 0.719 0.55106 0.93886 0.0
H1574 H 0.75975 0.57607 0.9512 0.0
H1575 H 0.73471 0.5774 0.02535 0.0
C1576 C 0.6442 0.5194 0.99729 0.0
C1577 C 0.63132 0.50769 0.97661 0.0
C1578 C 0.64319 0.51022 0.95388 0.0
C1579 C 0.6674 0.52415 0.95165 0.0
C1580 C 0.67952 0.53548 0.97231 0.0
C1581 C 0.66841 0.53336 0.9947 0.0
C1582 C 0.68581 0.54741 0.01399 0.0
C1583 C 0.67367 0.56893 0.02331 0.0
C1584 C 0.69302 0.52921 0.03534 0.0
C1585 C 0.70848 0.55756 0.99892 0.0
C1586 C 0.70433 0.55037 0.97495 0.0
C1587 C 0.72249 0.55689 0.95755 0.0
C1588 C 0.74562 0.57109 0.9648 0.0
C1589 C 0.75048 0.57874 0.98926 0.0
C1590 C 0.73152 0.57198 0.0065 0.0
H1591 H 0.25593 0.64276 0.22379 0.0
H1592 H 0.28603 0.65745 0.29816 0.0
H1593 H 0.2617 0.61716 0.3134 0.0
H1594 H 0.19321 0.61672 0.24005 0.0
H1595 H 0.18891 0.59355 0.21712 0.0
H1596 H 0.20975 0.62285 0.21195 0.0
H1597 H 0.24661 0.5982 0.20507 0.0
H1598 H 0.22588 0.56879 0.21025 0.0
H1599 H 0.25528 0.57525 0.22846 0.0
H1600 H 0.23287 0.57595 0.32071 0.0
H1601 H 0.20159 0.53709 0.31964 0.0
H1602 H 0.1897 0.54988 0.24054 0.0
C1603 C 0.25736 0.6376 0.24331 0.0
C1604 C 0.27296 0.65331 0.25977 0.0
C1605 C 0.27452 0.6456 0.28513 0.0
C1606 C 0.26067 0.6228 0.29398 0.0
C1607 C 0.24535 0.6079 0.27726 0.0
C1608 C 0.24363 0.61499 0.25246 0.0
C1609 C 0.22533 0.5959 0.23842 0.0
C1610 C 0.20298 0.60798 0.22617 0.0
C1611 C 0.23911 0.58382 0.21943 0.0
C1612 C 0.21681 0.57707 0.25924 0.0
C1613 C 0.22867 0.58427 0.28148 0.0
C1614 C 0.22354 0.57008 0.30339 0.0
C1615 C 0.20572 0.54802 0.30258 0.0
C1616 C 0.19316 0.54037 0.28 0.0
C1617 C 0.19899 0.55511 0.25808 0.0
H1618 H 0.9605 0.50462 0.03815 0.0
H1619 H 0.94438 0.48531 0.11468 0.0
H1620 H 0.91392 0.51594 0.11217 0.0
H1621 H 0.9569 0.57062 0.0385 0.0
H1622 H 0.94197 0.57227 0.00796 0.0
H1623 H 0.96281 0.54928 0.01611 0.0
H1624 H 0.92714 0.51334 0.00333 0.0
H1625 H 0.90629 0.53624 0.9949 0.0
H1626 H 0.89672 0.51038 0.01674 0.0
H1627 H 0.88434 0.54881 0.10058 0.0
H1628 H 0.85737 0.57887 0.08047 0.0
H1629 H 0.89332 0.57544 0.0118 0.0
C1630 C 0.95038 0.50653 0.05435 0.0
C1631 C 0.95483 0.49244 0.07659 0.0
C1632 C 0.94149 0.49603 0.09747 0.0
C1633 C 0.9241 0.51336 0.09621 0.0
C1634 C 0.92029 0.52701 0.07397 0.0
C1635 C 0.93303 0.52365 0.05342 0.0
C1636 C 0.92536 0.54017 0.03155 0.0
C1637 C 0.94812 0.55921 0.02304 0.0
C1638 C 0.91314 0.52407 0.01039 0.0
C1639 C 0.9061 0.55321 0.04287 0.0
C1640 C 0.90348 0.5456 0.06739 0.0
C1641 C 0.88632 0.55493 0.0814 0.0
C1642 C 0.87116 0.57208 0.06986 0.0
C1643 C 0.87319 0.57956 0.04456 0.0
C1644 C 0.89123 0.57019 0.03117 0.0
H1645 H 0.09772 0.011 0.99745 0.0
H1646 H 0.06715 0.96928 0.06237 0.0
H1647 H 0.10092 0.9422 0.0633 0.0
H1648 H 0.11473 0.95817 0.96863 0.0
H1649 H 0.14355 0.97543 0.95683 0.0
H1650 H 0.11728 0.9917 0.96154 0.0
H1651 H 0.14653 0.02239 0.98944 0.0
H1652 H 0.1729 0.00625 0.98477 0.0
H1653 H 0.16405 0.00985 0.01555 0.0
H1654 H 0.13729 0.91912 0.05645 0.0
H1655 H 0.17456 0.90241 0.04336 0.0
H1656 H 0.18188 0.95945 0.9829 0.0
C1657 C 0.0982 0.99611 0.0118 0.0
C1658 C 0.07968 0.99184 0.02963 0.0
C1659 C 0.08102 0.97252 0.04839 0.0
C1660 C 0.10011 0.95712 0.04905 0.0
C1661 C 0.11783 0.96148 0.03094 0.0
C1662 C 0.11714 0.98058 0.01273 0.0
C1663 C 0.13847 0.98128 0.99547 0.0
C1664 C 0.12787 0.97635 0.96905 0.0
C1665 C 0.15656 0.00644 0.99637 0.0
C1666 C 0.1512 0.95953 0.00675 0.0
C1667 C 0.13897 0.94836 0.02717 0.0
C1668 C 0.14706 0.92776 0.04053 0.0
C1669 C 0.16826 0.91837 0.0329 0.0
C1670 C 0.18124 0.92959 0.0121 0.0
C1671 C 0.17247 0.95045 0.9989 0.0
loop_
_geom_bond_atom_site_label_1
_geom_bond_atom_site_label_2
_geom_bond_distance
_geom_bond_site_symmetry_2
_ccdc_geom_bond_type
H0 C7 0.929 1_655 S
H1 C10 0.930 . S
H2 C12 0.929 . S
H3 C4 0.969 . S
C4 H3 0.969 . S
C4 O5 1.550 1_565 S
C4 H6 0.973 . S
O5 C4 1.550 1_545 S
O5 C11 1.412 . S
H6 C4 0.973 . S
C7 H0 0.929 1_455 S
C7 C8 1.400 . S
C7 C9 1.364 . S
C8 C7 1.400 . S
C8 C12 1.377 . S
C9 C7 1.364 . S
C9 C10 1.374 . S
C10 H1 0.930 . S
C10 C9 1.374 . S
C10 C11 1.383 . S
C11 O5 1.412 . S
C11 C10 1.383 . S
C11 C12 1.394 . S
C12 H2 0.929 . S
C12 C8 1.377 . S
C12 C11 1.394 . S
H13 C20 0.929 . S
H14 C23 0.930 . S
H15 C25 0.929 . S
H16 C17 0.969 . S
C17 H16 0.969 . S
C17 O18 1.550 . S
C17 H19 0.973 . S
O18 C17 1.550 . S
O18 C24 1.412 . S
H19 C17 0.973 . S
C20 H13 0.929 . S
C20 C21 1.400 . S
C20 C22 1.364 . S
C21 C20 1.400 . S
C21 C25 1.377 . S
C22 C20 1.364 . S
C22 C23 1.374 . S
C23 H14 0.930 . S
C23 C22 1.374 . S
C23 C24 1.383 . S
C24 O18 1.412 . S
C24 C23 1.383 . S
C24 C25 1.394 . S
C25 H15 0.929 . S
C25 C21 1.377 . S
C25 C24 1.394 . S
H26 C33 0.929 . S
H27 C36 0.930 . S
H28 C38 0.929 . S
H29 C30 0.969 . S
C30 H29 0.969 . S
C30 O31 1.550 . S
C30 H32 0.973 . S
O31 C30 1.550 . S
O31 C37 1.412 . S
H32 C30 0.973 . S
C33 H26 0.929 . S
C33 C34 1.400 . S
C33 C35 1.364 . S
C34 C33 1.400 . S
C34 C38 1.377 . S
C35 C33 1.364 . S
C35 C36 1.374 . S
C36 H27 0.930 . S
C36 C35 1.374 . S
C36 C37 1.383 . S
C37 O31 1.412 . S
C37 C36 1.383 . S
C37 C38 1.394 . S
C38 H28 0.929 . S
C38 C34 1.377 . S
C38 C37 1.394 . S
H39 C46 0.929 . S
H40 C49 0.930 . S
H41 C51 0.929 . S
H42 C43 0.969 . S
C43 H42 0.969 . S
C43 O44 1.550 . S
C43 H45 0.973 . S
O44 C43 1.550 . S
O44 C50 1.412 . S
H45 C43 0.973 . S
C46 H39 0.929 . S
C46 C47 1.400 . S
C46 C48 1.364 . S
C47 C46 1.400 . S
C47 C51 1.377 . S
C48 C46 1.364 . S
C48 C49 1.374 . S
C49 H40 0.930 . S
C49 C48 1.374 . S
C49 C50 1.383 . S
C50 O44 1.412 . S
C50 C49 1.383 . S
C50 C51 1.394 . S
C51 H41 0.929 . S
C51 C47 1.377 . S
C51 C50 1.394 . S
H52 C59 0.929 . S
H53 C62 0.930 . S
H54 C64 0.929 . S
H55 C56 0.969 . S
C56 H55 0.969 . S
C56 O57 1.550 . S
C56 H58 0.973 . S
O57 C56 1.550 . S
O57 C63 1.412 . S
H58 C56 0.973 . S
C59 H52 0.929 . S
C59 C60 1.400 . S
C59 C61 1.364 . S
C60 C59 1.400 . S
C60 C64 1.377 . S
C61 C59 1.364 . S
C61 C62 1.374 . S
C62 H53 0.930 . S
C62 C61 1.374 . S
C62 C63 1.383 . S
C63 O57 1.412 . S
C63 C62 1.383 . S
C63 C64 1.394 . S
C64 H54 0.929 . S
C64 C60 1.377 . S
C64 C63 1.394 . S
H65 C72 0.929 . S
H66 C75 0.930 . S
H67 C77 0.929 . S
H68 C69 0.969 . S
C69 H68 0.969 . S
C69 O70 1.550 . S
C69 H71 0.973 . S
O70 C69 1.550 . S
O70 C76 1.412 . S
H71 C69 0.973 . S
C72 H65 0.929 . S
C72 C73 1.400 . S
C72 C74 1.364 . S
C73 C72 1.400 . S
C73 C77 1.377 . S
C74 C72 1.364 . S
C74 C75 1.374 . S
C75 H66 0.930 . S
C75 C74 1.374 . S
C75 C76 1.383 . S
C76 O70 1.412 . S
C76 C75 1.383 . S
C76 C77 1.394 . S
C77 H67 0.929 . S
C77 C73 1.377 . S
C77 C76 1.394 . S
H78 C85 0.929 . S
H79 C88 0.930 . S
H80 C90 0.929 1_455 S
H81 C82 0.969 1_655 S
C82 H81 0.969 1_455 S
C82 O83 1.550 . S
C82 H84 0.973 1_455 S
O83 C82 1.550 . S
O83 C89 1.412 1_455 S
H84 C82 0.973 1_655 S
C85 H78 0.929 . S
C85 C86 1.400 . S
C85 C87 1.364 . S
C86 C85 1.400 . S
C86 C90 1.377 . S
C87 C85 1.364 . S
C87 C88 1.374 . S
C88 H79 0.930 . S
C88 C87 1.374 . S
C88 C89 1.383 . S
C89 O83 1.412 1_655 S
C89 C88 1.383 . S
C89 C90 1.394 . S
C90 H80 0.929 1_655 S
C90 C86 1.377 . S
C90 C89 1.394 . S
H91 C98 0.929 . S
H92 C101 0.930 . S
H93 C103 0.929 . S
H94 C95 0.969 . S
C95 H94 0.969 . S
C95 O96 1.550 . S
C95 H97 0.973 . S
O96 C95 1.550 . S
O96 C102 1.412 . S
H97 C95 0.973 . S
C98 H91 0.929 . S
C98 C99 1.400 . S
C98 C100 1.364 . S
C99 C98 1.400 . S
C99 C103 1.377 . S
C100 C98 1.364 . S
C100 C101 1.374 . S
C101 H92 0.930 . S
C101 C100 1.374 . S
C101 C102 1.383 . S
C102 O96 1.412 . S
C102 C101 1.383 . S
C102 C103 1.394 . S
C103 H93 0.929 . S
C103 C99 1.377 . S
C103 C102 1.394 . S
H104 C111 0.929 . S
H105 C114 0.930 . S
H106 C116 0.929 . S
H107 C108 0.969 . S
C108 H107 0.969 . S
C108 O109 1.550 . S
C108 H110 0.973 . S
O109 C108 1.550 . S
O109 C115 1.412 . S
H110 C108 0.973 . S
C111 H104 0.929 . S
C111 C112 1.400 . S
C111 C113 1.364 . S
C112 C111 1.400 . S
C112 C116 1.377 . S
C113 C111 1.364 . S
C113 C114 1.374 . S
C114 H105 0.930 . S
C114 C113 1.374 . S
C114 C115 1.383 . S
C115 O109 1.412 . S
C115 C114 1.383 . S
C115 C116 1.394 . S
C116 H106 0.929 . S
C116 C112 1.377 . S
C116 C115 1.394 . S
H117 C124 0.929 . S
H118 C127 0.930 . S
H119 C129 0.929 . S
H120 C121 0.969 . S
C121 H120 0.969 . S
C121 O122 1.550 . S
C121 H123 0.973 . S
O122 C121 1.550 . S
O122 C128 1.412 . S
H123 C121 0.973 . S
C124 H117 0.929 . S
C124 C125 1.400 . S
C124 C126 1.364 . S
C125 C124 1.400 . S
C125 C129 1.377 . S
C126 C124 1.364 . S
C126 C127 1.374 . S
C127 H118 0.930 . S
C127 C126 1.374 . S
C127 C128 1.383 . S
C128 O122 1.412 . S
C128 C127 1.383 . S
C128 C129 1.394 . S
C129 H119 0.929 . S
C129 C125 1.377 . S
C129 C128 1.394 . S
H130 C137 0.929 . S
H131 C140 0.930 . S
H132 C142 0.929 . S
H133 C134 0.969 . S
C134 H133 0.969 . S
C134 O135 1.550 . S
C134 H136 0.973 . S
O135 C134 1.550 . S
O135 C141 1.412 . S
H136 C134 0.973 . S
C137 H130 0.929 . S
C137 C138 1.400 . S
C137 C139 1.364 . S
C138 C137 1.400 . S
C138 C142 1.377 . S
C139 C137 1.364 . S
C139 C140 1.374 . S
C140 H131 0.930 . S
C140 C139 1.374 . S
C140 C141 1.383 . S
C141 O135 1.412 . S
C141 C140 1.383 . S
C141 C142 1.394 . S
C142 H132 0.929 . S
C142 C138 1.377 . S
C142 C141 1.394 . S
H143 C150 0.929 . S
H144 C153 0.930 . S
H145 C155 0.929 . S
H146 C147 0.969 . S
C147 H146 0.969 . S
C147 O148 1.550 . S
C147 H149 0.973 . S
O148 C147 1.550 . S
O148 C154 1.412 . S
H149 C147 0.973 . S
C150 H143 0.929 . S
C150 C151 1.400 . S
C150 C152 1.364 . S
C151 C150 1.400 . S
C151 C155 1.377 . S
C152 C150 1.364 . S
C152 C153 1.374 . S
C153 H144 0.930 . S
C153 C152 1.374 . S
C153 C154 1.383 . S
C154 O148 1.412 . S
C154 C153 1.383 . S
C154 C155 1.394 . S
C155 H145 0.929 . S
C155 C151 1.377 . S
C155 C154 1.394 . S
H156 C163 0.929 . S
H157 C166 0.930 . S
H158 C168 0.929 . S
H159 C160 0.969 . S
C160 H159 0.969 . S
C160 O161 1.550 . S
C160 H162 0.973 . S
O161 C160 1.550 . S
O161 C167 1.412 . S
H162 C160 0.973 . S
C163 H156 0.929 . S
C163 C164 1.400 . S
C163 C165 1.364 . S
C164 C163 1.400 . S
C164 C168 1.377 . S
C165 C163 1.364 . S
C165 C166 1.374 . S
C166 H157 0.930 . S
C166 C165 1.374 . S
C166 C167 1.383 . S
C167 O161 1.412 . S
C167 C166 1.383 . S
C167 C168 1.394 . S
C168 H158 0.929 . S
C168 C164 1.377 . S
C168 C167 1.394 . S
H169 C176 0.929 1_554 S
H170 C179 0.930 . S
H171 C181 0.929 . S
H172 C173 0.969 . S
C173 H172 0.969 . S
C173 O174 1.550 . S
C173 H175 0.973 . S
O174 C173 1.550 . S
O174 C180 1.412 . S
H175 C173 0.973 . S
C176 H169 0.929 1_556 S
C176 C177 1.400 . S
C176 C178 1.364 . S
C177 C176 1.400 . S
C177 C181 1.377 . S
C178 C176 1.364 . S
C178 C179 1.374 . S
C179 H170 0.930 . S
C179 C178 1.374 . S
C179 C180 1.383 . S
C180 O174 1.412 . S
C180 C179 1.383 . S
C180 C181 1.394 . S
C181 H171 0.929 . S
C181 C177 1.377 . S
C181 C180 1.394 . S
H182 C189 0.929 . S
H183 C192 0.930 . S
H184 C194 0.929 . S
H185 C186 0.969 . S
C186 H185 0.969 . S
C186 O187 1.550 . S
C186 H188 0.973 . S
O187 C186 1.550 . S
O187 C193 1.412 . S
H188 C186 0.973 . S
C189 H182 0.929 . S
C189 C190 1.400 . S
C189 C191 1.364 . S
C190 C189 1.400 . S
C190 C194 1.377 . S
C191 C189 1.364 . S
C191 C192 1.374 . S
C192 H183 0.930 . S
C192 C191 1.374 . S
C192 C193 1.383 . S
C193 O187 1.412 . S
C193 C192 1.383 . S
C193 C194 1.394 . S
C194 H184 0.929 . S
C194 C190 1.377 . S
C194 C193 1.394 . S
H195 C202 0.929 1_554 S
H196 C205 0.930 . S
H197 C207 0.929 . S
H198 C199 0.969 . S
C199 H198 0.969 . S
C199 O200 1.550 . S
C199 H201 0.973 . S
O200 C199 1.550 . S
O200 C206 1.412 . S
H201 C199 0.973 . S
C202 H195 0.929 1_556 S
C202 C203 1.400 . S
C202 C204 1.364 . S
C203 C202 1.400 . S
C203 C207 1.377 . S
C204 C202 1.364 . S
C204 C205 1.374 . S
C205 H196 0.930 . S
C205 C204 1.374 . S
C205 C206 1.383 . S
C206 O200 1.412 . S
C206 C205 1.383 . S
C206 C207 1.394 . S
C207 H197 0.929 . S
C207 C203 1.377 . S
C207 C206 1.394 . S
Zn208 O211 2.046 . S
Zn208 O213 2.040 1_554 S
Zn208 O218 2.045 1_554 S
Zn209 O210 1.962 . S
Zn209 O212 1.986 . S
Zn209 O214 1.996 . S
Zn209 O217 1.943 1_554 S
O210 Zn209 1.962 . S
O210 C215 1.254 . S
O211 Zn208 2.046 . S
O211 C215 1.269 . S
O212 Zn209 1.986 . S
O212 C219 1.262 . S
O213 Zn208 2.040 1_556 S
O213 C221 1.260 . S
O214 Zn209 1.996 . S
O214 C221 1.257 1_554 S
C215 O210 1.254 . S
C215 O211 1.269 . S
C216 O217 1.249 . S
C216 O218 1.270 . S
O217 Zn209 1.943 1_556 S
O217 C216 1.249 . S
O218 Zn208 2.045 1_556 S
O218 C216 1.270 . S
C219 O212 1.262 . S
C219 O220 1.232 . S
O220 C219 1.232 . S
C221 O213 1.260 . S
C221 O214 1.257 1_556 S
Zn222 O225 2.031 . S
Zn222 O227 2.049 . S
Zn222 O232 2.067 . S
Zn223 O224 1.962 . S
Zn223 O226 1.986 . S
Zn223 O228 1.996 . S
Zn223 O231 1.943 . S
O224 Zn223 1.962 . S
O224 C229 1.254 . S
O225 Zn222 2.031 . S
O225 C229 1.269 . S
O226 Zn223 1.986 . S
O226 C233 1.262 . S
O227 Zn222 2.049 . S
O227 C235 1.260 . S
O228 Zn223 1.996 . S
O228 C235 1.257 . S
C229 O224 1.254 . S
C229 O225 1.269 . S
C230 O231 1.249 . S
C230 O232 1.270 . S
O231 Zn223 1.943 . S
O231 C230 1.249 . S
O232 Zn222 2.067 . S
O232 C230 1.270 . S
C233 O226 1.262 . S
C233 O234 1.232 . S
O234 C233 1.232 . S
C235 O227 1.260 . S
C235 O228 1.257 . S
Zn236 O239 2.033 . S
Zn236 O241 2.048 1_554 S
Zn236 O246 2.068 . S
Zn237 O238 1.962 . S
Zn237 O240 1.986 . S
Zn237 O242 1.996 . S
Zn237 O245 1.943 . S
O238 Zn237 1.962 . S
O238 C243 1.254 . S
O239 Zn236 2.033 . S
O239 C243 1.269 . S
O240 Zn237 1.986 . S
O240 C247 1.262 . S
O241 Zn236 2.048 1_556 S
O241 C249 1.260 . S
O242 Zn237 1.996 . S
O242 C249 1.257 1_554 S
C243 O238 1.254 . S
C243 O239 1.269 . S
C244 O245 1.249 . S
C244 O246 1.270 . S
O245 Zn237 1.943 . S
O245 C244 1.249 . S
O246 Zn236 2.068 . S
O246 C244 1.270 . S
C247 O240 1.262 . S
C247 O248 1.232 . S
O248 C247 1.232 . S
C249 O241 1.260 . S
C249 O242 1.257 1_556 S
Zn250 O253 2.031 . S
Zn250 O255 2.030 1_545 S
Zn250 O260 2.067 1_545 S
Zn251 O252 1.962 . S
Zn251 O254 1.986 . S
Zn251 O256 1.996 . S
Zn251 O259 1.943 1_545 S
O252 Zn251 1.962 . S
O252 C257 1.254 . S
O253 Zn250 2.031 . S
O253 C257 1.269 . S
O254 Zn251 1.986 . S
O254 C261 1.262 . S
O255 Zn250 2.030 1_565 S
O255 C263 1.254 1_565 S
O256 Zn251 1.996 . S
O256 C263 1.257 . S
C257 O252 1.254 . S
C257 O253 1.269 . S
C258 O259 1.249 . S
C258 O260 1.270 . S
O259 Zn251 1.943 1_565 S
O259 C258 1.249 . S
O260 Zn250 2.067 1_565 S
O260 C258 1.270 . S
C261 O254 1.262 . S
C261 O262 1.232 . S
O262 C261 1.232 . S
C263 O255 1.254 1_545 S
C263 O256 1.257 . S
Zn264 O267 2.031 . S
Zn264 O269 2.049 . S
Zn264 O274 2.067 . S
Zn265 O266 1.962 . S
Zn265 O268 1.986 . S
Zn265 O270 1.996 . S
Zn265 O273 1.943 . S
O266 Zn265 1.962 . S
O266 C271 1.254 . S
O267 Zn264 2.031 . S
O267 C271 1.269 . S
O268 Zn265 1.986 . S
O268 C275 1.262 . S
O269 Zn264 2.049 . S
O269 C277 1.260 . S
O270 Zn265 1.996 . S
O270 C277 1.257 . S
C271 O266 1.254 . S
C271 O267 1.269 . S
C272 O273 1.249 . S
C272 O274 1.270 . S
O273 Zn265 1.943 . S
O273 C272 1.249 . S
O274 Zn264 2.067 . S
O274 C272 1.270 . S
C275 O268 1.262 . S
C275 O276 1.232 . S
O276 C275 1.232 . S
C277 O269 1.260 . S
C277 O270 1.257 . S
Zn278 O281 2.031 . S
Zn278 O283 2.049 . S
Zn278 O288 2.067 . S
Zn279 O280 1.962 . S
Zn279 O282 1.986 . S
Zn279 O284 1.996 . S
Zn279 O287 1.943 . S
O280 Zn279 1.962 . S
O280 C285 1.254 . S
O281 Zn278 2.031 . S
O281 C285 1.269 . S
O282 Zn279 1.986 . S
O282 C289 1.262 . S
O283 Zn278 2.049 . S
O283 C291 1.260 . S
O284 Zn279 1.996 . S
O284 C291 1.257 . S
C285 O280 1.254 . S
C285 O281 1.269 . S
C286 O287 1.249 . S
C286 O288 1.270 . S
O287 Zn279 1.943 . S
O287 C286 1.249 . S
O288 Zn278 2.067 . S
O288 C286 1.270 . S
C289 O282 1.262 . S
C289 O290 1.232 . S
O290 C289 1.232 . S
C291 O283 1.260 . S
C291 O284 1.257 . S
Zn292 O295 2.031 . S
Zn292 O297 2.049 . S
Zn292 O302 2.067 . S
Zn293 O294 1.962 . S
Zn293 O296 1.986 . S
Zn293 O298 1.996 . S
Zn293 O301 1.943 . S
O294 Zn293 1.962 . S
O294 C299 1.254 . S
O295 Zn292 2.031 . S
O295 C299 1.269 . S
O296 Zn293 1.986 . S
O296 C303 1.262 . S
O297 Zn292 2.049 . S
O297 C305 1.260 . S
O298 Zn293 1.996 . S
O298 C305 1.257 . S
C299 O294 1.254 . S
C299 O295 1.269 . S
C300 O301 1.249 . S
C300 O302 1.270 . S
O301 Zn293 1.943 . S
O301 C300 1.249 . S
O302 Zn292 2.067 . S
O302 C300 1.270 . S
C303 O296 1.262 . S
C303 O304 1.232 . S
O304 C303 1.232 . S
C305 O297 1.260 . S
C305 O298 1.257 . S
Zn306 O309 2.031 . S
Zn306 O311 2.049 . S
Zn306 O316 2.067 . S
Zn307 O308 1.962 . S
Zn307 O310 1.986 . S
Zn307 O312 1.996 1_545 S
Zn307 O315 1.943 . S
O308 Zn307 1.962 . S
O308 C313 1.254 . S
O309 Zn306 2.031 . S
O309 C313 1.269 1_565 S
O310 Zn307 1.986 . S
O310 C317 1.262 . S
O311 Zn306 2.049 . S
O311 C319 1.260 . S
O312 Zn307 1.996 1_565 S
O312 C319 1.257 . S
C313 O308 1.254 . S
C313 O309 1.269 1_545 S
C314 O315 1.249 1_565 S
C314 O316 1.270 . S
O315 Zn307 1.943 . S
O315 C314 1.249 1_545 S
O316 Zn306 2.067 . S
O316 C314 1.270 . S
C317 O310 1.262 . S
C317 O318 1.232 . S
O318 C317 1.232 . S
C319 O311 1.260 . S
C319 O312 1.257 . S
Zn320 O323 2.031 . S
Zn320 O325 2.049 1_455 S
Zn320 O330 2.067 1_455 S
Zn321 O322 1.962 . S
Zn321 O324 1.986 . S
Zn321 O326 1.996 . S
Zn321 O329 1.943 1_455 S
O322 Zn321 1.962 . S
O322 C327 1.254 . S
O323 Zn320 2.031 . S
O323 C327 1.269 . S
O324 Zn321 1.986 . S
O324 C331 1.262 . S
O325 Zn320 2.049 1_655 S
O325 C333 1.260 . S
O326 Zn321 1.996 . S
O326 C333 1.257 1_455 S
C327 O322 1.254 . S
C327 O323 1.269 . S
C328 O329 1.249 . S
C328 O330 1.270 . S
O329 Zn321 1.943 1_655 S
O329 C328 1.249 . S
O330 Zn320 2.067 1_655 S
O330 C328 1.270 . S
C331 O324 1.262 . S
C331 O332 1.232 . S
O332 C331 1.232 . S
C333 O325 1.260 . S
C333 O326 1.257 1_655 S
Zn334 O337 2.031 . S
Zn334 O339 2.049 . S
Zn334 O344 2.067 . S
Zn335 O336 1.962 . S
Zn335 O338 1.986 . S
Zn335 O340 1.996 . S
Zn335 O343 1.943 . S
O336 Zn335 1.962 . S
O336 C341 1.254 . S
O337 Zn334 2.031 . S
O337 C341 1.269 . S
O338 Zn335 1.986 . S
O338 C345 1.262 . S
O339 Zn334 2.049 . S
O339 C347 1.260 . S
O340 Zn335 1.996 . S
O340 C347 1.257 . S
C341 O336 1.254 . S
C341 O337 1.269 . S
C342 O343 1.249 . S
C342 O344 1.270 . S
O343 Zn335 1.943 . S
O343 C342 1.249 . S
O344 Zn334 2.067 . S
O344 C342 1.270 . S
C345 O338 1.262 . S
C345 O346 1.232 . S
O346 C345 1.232 . S
C347 O339 1.260 . S
C347 O340 1.257 . S
Zn348 O351 2.031 1_655 S
Zn348 O353 2.049 . S
Zn348 O358 2.067 . S
Zn349 O350 1.962 . S
Zn349 O352 1.986 . S
Zn349 O354 1.996 1_455 S
Zn349 O357 1.943 . S
O350 Zn349 1.962 . S
O350 C355 1.254 . S
O351 Zn348 2.031 1_455 S
O351 C355 1.269 . S
O352 Zn349 1.986 . S
O352 C359 1.262 . S
O353 Zn348 2.049 . S
O353 C361 1.260 . S
O354 Zn349 1.996 1_655 S
O354 C361 1.257 . S
C355 O350 1.254 . S
C355 O351 1.269 . S
C356 O357 1.249 . S
C356 O358 1.270 1_455 S
O357 Zn349 1.943 . S
O357 C356 1.249 . S
O358 Zn348 2.067 . S
O358 C356 1.270 1_655 S
C359 O352 1.262 . S
C359 O360 1.232 . S
O360 C359 1.232 . S
C361 O353 1.260 . S
C361 O354 1.257 . S
Zn362 O365 2.031 . S
Zn362 O367 2.049 . S
Zn362 O372 2.067 . S
Zn363 O364 1.962 . S
Zn363 O366 1.986 . S
Zn363 O368 1.996 . S
Zn363 O371 1.943 . S
O364 Zn363 1.962 . S
O364 C369 1.254 . S
O365 Zn362 2.031 . S
O365 C369 1.269 . S
O366 Zn363 1.986 . S
O366 C373 1.262 . S
O367 Zn362 2.049 . S
O367 C375 1.260 . S
O368 Zn363 1.996 . S
O368 C375 1.257 . S
C369 O364 1.254 . S
C369 O365 1.269 . S
C370 O371 1.249 . S
C370 O372 1.270 . S
O371 Zn363 1.943 . S
O371 C370 1.249 . S
O372 Zn362 2.067 . S
O372 C370 1.270 . S
C373 O366 1.262 . S
C373 O374 1.232 . S
O374 C373 1.232 . S
C375 O367 1.260 . S
C375 O368 1.257 . S
H376 C388 0.930 . S
H377 C390 0.930 . S
H378 C391 0.930 . S
H379 C395 0.959 . S
H380 C395 0.959 . S
H381 C395 0.961 . S
H382 C396 0.960 . S
H383 C396 0.961 . S
H384 C396 0.959 . S
H385 C399 0.929 . S
H386 C400 0.931 . S
H387 C402 0.930 . S
C388 H376 0.930 . S
C388 C389 1.399 . S
C388 C393 1.399 . S
C389 C388 1.399 . S
C389 C390 1.376 . S
C390 H377 0.930 . S
C390 C389 1.376 . S
C390 C391 1.388 . S
C391 H378 0.930 . S
C391 C390 1.388 . S
C391 C392 1.390 . S
C392 C391 1.390 . S
C392 C393 1.394 . S
C392 C398 1.465 . S
C393 C388 1.399 . S
C393 C392 1.394 . S
C393 C394 1.516 . S
C394 C393 1.516 . S
C394 C395 1.502 . S
C394 C396 1.561 . S
C394 C397 1.526 . S
C395 H379 0.959 . S
C395 H380 0.959 . S
C395 H381 0.961 . S
C395 C394 1.502 . S
C396 H382 0.960 . S
C396 H383 0.961 . S
C396 H384 0.959 . S
C396 C394 1.561 . S
C397 C394 1.526 . S
C397 C398 1.396 . S
C397 C402 1.390 . S
C398 C392 1.465 . S
C398 C397 1.396 . S
C398 C399 1.399 . S
C399 H385 0.929 . S
C399 C398 1.399 . S
C399 C400 1.385 . S
C400 H386 0.931 . S
C400 C399 1.385 . S
C400 C401 1.389 . S
C401 C400 1.389 . S
C401 C402 1.387 . S
C402 H387 0.930 . S
C402 C397 1.390 . S
C402 C401 1.387 . S
H403 C415 0.930 . S
H404 C417 0.930 . S
H405 C418 0.930 . S
H406 C422 0.959 . S
H407 C422 0.959 . S
H408 C422 0.961 . S
H409 C423 0.960 . S
H410 C423 0.961 . S
H411 C423 0.959 . S
H412 C426 0.929 . S
H413 C427 0.931 . S
H414 C429 0.930 . S
C415 H403 0.930 . S
C415 C416 1.399 . S
C415 C420 1.399 . S
C416 C415 1.399 . S
C416 C417 1.376 . S
C417 H404 0.930 . S
C417 C416 1.376 . S
C417 C418 1.388 . S
C418 H405 0.930 . S
C418 C417 1.388 . S
C418 C419 1.390 . S
C419 C418 1.390 . S
C419 C420 1.394 . S
C419 C425 1.465 . S
C420 C415 1.399 . S
C420 C419 1.394 . S
C420 C421 1.516 . S
C421 C420 1.516 . S
C421 C422 1.502 . S
C421 C423 1.561 . S
C421 C424 1.526 . S
C422 H406 0.959 . S
C422 H407 0.959 . S
C422 H408 0.961 . S
C422 C421 1.502 . S
C423 H409 0.960 . S
C423 H410 0.961 . S
C423 H411 0.959 . S
C423 C421 1.561 . S
C424 C421 1.526 . S
C424 C425 1.396 . S
C424 C429 1.390 . S
C425 C419 1.465 . S
C425 C424 1.396 . S
C425 C426 1.399 . S
C426 H412 0.929 . S
C426 C425 1.399 . S
C426 C427 1.385 . S
C427 H413 0.931 . S
C427 C426 1.385 . S
C427 C428 1.389 . S
C428 C427 1.389 . S
C428 C429 1.387 . S
C429 H414 0.930 . S
C429 C424 1.390 . S
C429 C428 1.387 . S
H430 C442 0.930 . S
H431 C444 0.930 . S
H432 C445 0.930 . S
H433 C449 0.959 . S
H434 C449 0.959 . S
H435 C449 0.961 . S
H436 C450 0.960 . S
H437 C450 0.961 . S
H438 C450 0.959 . S
H439 C453 0.929 . S
H440 C454 0.931 . S
H441 C456 0.930 . S
C442 H430 0.930 . S
C442 C443 1.399 . S
C442 C447 1.399 . S
C443 C442 1.399 . S
C443 C444 1.376 . S
C444 H431 0.930 . S
C444 C443 1.376 . S
C444 C445 1.388 . S
C445 H432 0.930 . S
C445 C444 1.388 . S
C445 C446 1.390 . S
C446 C445 1.390 . S
C446 C447 1.394 . S
C446 C452 1.465 . S
C447 C442 1.399 . S
C447 C446 1.394 . S
C447 C448 1.516 . S
C448 C447 1.516 . S
C448 C449 1.502 . S
C448 C450 1.561 . S
C448 C451 1.526 . S
C449 H433 0.959 . S
C449 H434 0.959 . S
C449 H435 0.961 . S
C449 C448 1.502 . S
C450 H436 0.960 . S
C450 H437 0.961 . S
C450 H438 0.959 . S
C450 C448 1.561 . S
C451 C448 1.526 . S
C451 C452 1.396 . S
C451 C456 1.390 . S
C452 C446 1.465 . S
C452 C451 1.396 . S
C452 C453 1.399 . S
C453 H439 0.929 . S
C453 C452 1.399 . S
C453 C454 1.385 . S
C454 H440 0.931 . S
C454 C453 1.385 . S
C454 C455 1.389 . S
C455 C454 1.389 . S
C455 C456 1.387 . S
C456 H441 0.930 . S
C456 C451 1.390 . S
C456 C455 1.387 . S
H457 C469 0.930 . S
H458 C471 0.930 . S
H459 C472 0.908 1_545 S
H460 C476 0.959 1_455 S
H461 C476 0.959 . S
H462 C476 0.961 1_455 S
H463 C477 0.960 . S
H464 C477 0.961 . S
H465 C477 0.959 . S
H466 C480 0.929 . S
H467 C481 0.931 . S
H468 C483 0.930 . S
C469 H457 0.930 . S
C469 C470 1.399 . S
C469 C474 1.399 1_455 S
C470 C469 1.399 . S
C470 C471 1.376 . S
C471 H458 0.930 . S
C471 C470 1.376 . S
C471 C472 1.400 1_455 S
C472 H459 0.908 1_565 S
C472 C471 1.400 1_655 S
C472 C473 1.400 . S
C473 C472 1.400 . S
C473 C474 1.394 . S
C473 C479 1.465 . S
C474 C469 1.399 1_655 S
C474 C473 1.394 . S
C474 C475 1.516 . S
C475 C474 1.516 . S
C475 C476 1.502 . S
C475 C477 1.561 . S
C475 C478 1.526 . S
C476 H460 0.959 1_655 S
C476 H461 0.959 . S
C476 H462 0.961 1_655 S
C476 C475 1.502 . S
C477 H463 0.960 . S
C477 H464 0.961 . S
C477 H465 0.959 . S
C477 C475 1.561 . S
C478 C475 1.526 . S
C478 C479 1.396 . S
C478 C483 1.390 . S
C479 C473 1.465 . S
C479 C478 1.396 . S
C479 C480 1.399 1_565 S
C480 H466 0.929 . S
C480 C479 1.399 1_545 S
C480 C481 1.385 . S
C481 H467 0.931 . S
C481 C480 1.385 . S
C481 C482 1.389 . S
C482 C481 1.389 . S
C482 C483 1.387 1_545 S
C483 H468 0.930 . S
C483 C478 1.390 . S
C483 C482 1.387 1_565 S
H484 C496 0.930 . S
H485 C498 0.930 . S
H486 C499 0.930 . S
H487 C503 0.959 . S
H488 C503 0.959 . S
H489 C503 0.961 . S
H490 C504 0.960 . S
H491 C504 0.961 . S
H492 C504 0.959 . S
H493 C507 0.929 . S
H494 C508 0.931 . S
H495 C510 0.930 . S
C496 H484 0.930 . S
C496 C497 1.399 . S
C496 C501 1.399 . S
C497 C496 1.399 . S
C497 C498 1.376 . S
C498 H485 0.930 . S
C498 C497 1.376 . S
C498 C499 1.388 . S
C499 H486 0.930 . S
C499 C498 1.388 . S
C499 C500 1.390 . S
C500 C499 1.390 . S
C500 C501 1.394 . S
C500 C506 1.465 . S
C501 C496 1.399 . S
C501 C500 1.394 . S
C501 C502 1.516 . S
C502 C501 1.516 . S
C502 C503 1.502 . S
C502 C504 1.561 . S
C502 C505 1.526 . S
C503 H487 0.959 . S
C503 H488 0.959 . S
C503 H489 0.961 . S
C503 C502 1.502 . S
C504 H490 0.960 . S
C504 H491 0.961 . S
C504 H492 0.959 . S
C504 C502 1.561 . S
C505 C502 1.526 . S
C505 C506 1.396 . S
C505 C510 1.390 . S
C506 C500 1.465 . S
C506 C505 1.396 . S
C506 C507 1.399 . S
C507 H493 0.929 . S
C507 C506 1.399 . S
C507 C508 1.385 . S
C508 H494 0.931 . S
C508 C507 1.385 . S
C508 C509 1.389 . S
C509 C508 1.389 . S
C509 C510 1.387 . S
C510 H495 0.930 . S
C510 C505 1.390 . S
C510 C509 1.387 . S
H511 C523 0.930 . S
H512 C525 0.930 . S
H513 C526 0.930 . S
H514 C530 0.959 . S
H515 C530 0.959 . S
H516 C530 0.961 . S
H517 C531 0.960 . S
H518 C531 0.961 . S
H519 C531 0.959 . S
H520 C534 0.929 . S
H521 C535 0.931 . S
H522 C537 0.930 . S
C523 H511 0.930 . S
C523 C524 1.399 . S
C523 C528 1.399 . S
C524 C523 1.399 . S
C524 C525 1.376 . S
C525 H512 0.930 . S
C525 C524 1.376 . S
C525 C526 1.388 . S
C526 H513 0.930 . S
C526 C525 1.388 . S
C526 C527 1.390 . S
C527 C526 1.390 . S
C527 C528 1.394 . S
C527 C533 1.465 . S
C528 C523 1.399 . S
C528 C527 1.394 . S
C528 C529 1.516 . S
C529 C528 1.516 . S
C529 C530 1.502 . S
C529 C531 1.561 . S
C529 C532 1.526 . S
C530 H514 0.959 . S
C530 H515 0.959 . S
C530 H516 0.961 . S
C530 C529 1.502 . S
C531 H517 0.960 . S
C531 H518 0.961 . S
C531 H519 0.959 . S
C531 C529 1.561 . S
C532 C529 1.526 . S
C532 C533 1.396 . S
C532 C537 1.390 . S
C533 C527 1.465 . S
C533 C532 1.396 . S
C533 C534 1.399 . S
C534 H520 0.929 . S
C534 C533 1.399 . S
C534 C535 1.385 . S
C535 H521 0.931 . S
C535 C534 1.385 . S
C535 C536 1.389 . S
C536 C535 1.389 . S
C536 C537 1.387 . S
C537 H522 0.930 . S
C537 C532 1.390 . S
C537 C536 1.387 . S
H538 C550 0.930 . S
H539 C552 0.930 . S
H540 C553 0.930 . S
H541 C557 0.959 . S
H542 C557 0.959 . S
H543 C557 0.961 . S
H544 C558 0.960 . S
H545 C558 0.961 . S
H546 C558 0.959 . S
H547 C561 0.929 . S
H548 C562 0.931 . S
H549 C564 0.930 . S
C550 H538 0.930 . S
C550 C551 1.399 . S
C550 C555 1.399 . S
C551 C550 1.399 . S
C551 C552 1.376 . S
C552 H539 0.930 . S
C552 C551 1.376 . S
C552 C553 1.388 . S
C553 H540 0.930 . S
C553 C552 1.388 . S
C553 C554 1.390 . S
C554 C553 1.390 . S
C554 C555 1.394 . S
C554 C560 1.465 . S
C555 C550 1.399 . S
C555 C554 1.394 . S
C555 C556 1.516 . S
C556 C555 1.516 . S
C556 C557 1.502 . S
C556 C558 1.561 . S
C556 C559 1.526 . S
C557 H541 0.959 . S
C557 H542 0.959 . S
C557 H543 0.961 . S
C557 C556 1.502 . S
C558 H544 0.960 . S
C558 H545 0.961 . S
C558 H546 0.959 . S
C558 C556 1.561 . S
C559 C556 1.526 . S
C559 C560 1.396 . S
C559 C564 1.390 . S
C560 C554 1.465 . S
C560 C559 1.396 . S
C560 C561 1.399 . S
C561 H547 0.929 . S
C561 C560 1.399 . S
C561 C562 1.385 . S
C562 H548 0.931 . S
C562 C561 1.385 . S
C562 C563 1.389 . S
C563 C562 1.389 . S
C563 C564 1.387 . S
C564 H549 0.930 . S
C564 C559 1.390 . S
C564 C563 1.387 . S
H565 C577 0.930 . S
H566 C579 0.930 . S
H567 C580 0.952 . S
H568 C584 0.959 . S
H569 C584 0.959 . S
H570 C584 0.961 . S
H571 C585 0.960 . S
H572 C585 0.961 . S
H573 C585 0.959 . S
H574 C588 0.929 1_545 S
H575 C589 0.931 1_545 S
H576 C591 0.930 . S
C577 H565 0.930 . S
C577 C578 1.399 . S
C577 C582 1.399 . S
C578 C577 1.399 . S
C578 C579 1.376 . S
C579 H566 0.930 . S
C579 C578 1.376 . S
C579 C580 1.388 . S
C580 H567 0.952 . S
C580 C579 1.388 . S
C580 C581 1.390 . S
C581 C580 1.390 . S
C581 C582 1.394 . S
C581 C587 1.465 . S
C582 C577 1.399 . S
C582 C581 1.394 . S
C582 C583 1.516 . S
C583 C582 1.516 . S
C583 C584 1.502 . S
C583 C585 1.561 . S
C583 C586 1.526 . S
C584 H568 0.959 . S
C584 H569 0.959 . S
C584 H570 0.961 . S
C584 C583 1.502 . S
C585 H571 0.960 . S
C585 H572 0.961 . S
C585 H573 0.959 . S
C585 C583 1.561 . S
C586 C583 1.526 . S
C586 C587 1.396 . S
C586 C591 1.390 . S
C587 C581 1.465 . S
C587 C586 1.396 . S
C587 C588 1.399 . S
C588 H574 0.929 1_565 S
C588 C587 1.399 . S
C588 C589 1.385 . S
C589 H575 0.931 1_565 S
C589 C588 1.385 . S
C589 C590 1.389 . S
C590 C589 1.389 . S
C590 C591 1.387 . S
C591 H576 0.930 . S
C591 C586 1.390 . S
C591 C590 1.387 . S
H592 C604 0.930 . S
H593 C606 0.930 . S
H594 C607 0.930 . S
H595 C611 0.959 . S
H596 C611 0.959 . S
H597 C611 0.961 . S
H598 C612 0.960 . S
H599 C612 0.961 . S
H600 C612 0.959 . S
H601 C615 0.929 . S
H602 C616 0.931 . S
H603 C618 0.930 . S
C604 H592 0.930 . S
C604 C605 1.399 . S
C604 C609 1.399 . S
C605 C604 1.399 . S
C605 C606 1.376 . S
C606 H593 0.930 . S
C606 C605 1.376 . S
C606 C607 1.388 . S
C607 H594 0.930 . S
C607 C606 1.388 . S
C607 C608 1.390 . S
C608 C607 1.390 . S
C608 C609 1.394 . S
C608 C614 1.465 . S
C609 C604 1.399 . S
C609 C608 1.394 . S
C609 C610 1.516 . S
C610 C609 1.516 . S
C610 C611 1.502 . S
C610 C612 1.561 . S
C610 C613 1.526 . S
C611 H595 0.959 . S
C611 H596 0.959 . S
C611 H597 0.961 . S
C611 C610 1.502 . S
C612 H598 0.960 . S
C612 H599 0.961 . S
C612 H600 0.959 . S
C612 C610 1.561 . S
C613 C610 1.526 . S
C613 C614 1.396 . S
C613 C618 1.390 . S
C614 C608 1.465 . S
C614 C613 1.396 . S
C614 C615 1.399 . S
C615 H601 0.929 . S
C615 C614 1.399 . S
C615 C616 1.385 . S
C616 H602 0.931 . S
C616 C615 1.385 . S
C616 C617 1.389 . S
C617 C616 1.389 . S
C617 C618 1.387 . S
C618 H603 0.930 . S
C618 C613 1.390 . S
C618 C617 1.387 . S
H619 C631 0.930 . S
H620 C633 0.930 . S
H621 C634 0.930 . S
H622 C638 0.959 . S
H623 C638 0.959 . S
H624 C638 0.961 . S
H625 C639 0.960 . S
H626 C639 0.961 . S
H627 C639 0.959 . S
H628 C642 0.929 . S
H629 C643 0.931 . S
H630 C645 0.930 . S
C631 H619 0.930 . S
C631 C632 1.399 . S
C631 C636 1.399 . S
C632 C631 1.399 . S
C632 C633 1.376 . S
C633 H620 0.930 . S
C633 C632 1.376 . S
C633 C634 1.388 . S
C634 H621 0.930 . S
C634 C633 1.388 . S
C634 C635 1.390 . S
C635 C634 1.390 . S
C635 C636 1.394 . S
C635 C641 1.465 . S
C636 C631 1.399 . S
C636 C635 1.394 . S
C636 C637 1.516 . S
C637 C636 1.516 . S
C637 C638 1.502 . S
C637 C639 1.561 . S
C637 C640 1.526 . S
C638 H622 0.959 . S
C638 H623 0.959 . S
C638 H624 0.961 . S
C638 C637 1.502 . S
C639 H625 0.960 . S
C639 H626 0.961 . S
C639 H627 0.959 . S
C639 C637 1.561 . S
C640 C637 1.526 . S
C640 C641 1.396 . S
C640 C645 1.390 . S
C641 C635 1.465 . S
C641 C640 1.396 . S
C641 C642 1.399 . S
C642 H628 0.929 . S
C642 C641 1.399 . S
C642 C643 1.385 . S
C643 H629 0.931 . S
C643 C642 1.385 . S
C643 C644 1.389 . S
C644 C643 1.389 . S
C644 C645 1.387 . S
C645 H630 0.930 . S
C645 C640 1.390 . S
C645 C644 1.387 . S
H646 C658 0.930 . S
H647 C660 0.930 . S
H648 C661 0.930 . S
H649 C665 0.959 . S
H650 C665 0.959 . S
H651 C665 0.961 . S
H652 C666 0.960 . S
H653 C666 0.961 . S
H654 C666 0.959 . S
H655 C669 0.929 . S
H656 C670 0.931 . S
H657 C672 0.930 . S
C658 H646 0.930 . S
C658 C659 1.399 . S
C658 C663 1.399 . S
C659 C658 1.399 . S
C659 C660 1.376 . S
C660 H647 0.930 . S
C660 C659 1.376 . S
C660 C661 1.388 . S
C661 H648 0.930 . S
C661 C660 1.388 . S
C661 C662 1.390 . S
C662 C661 1.390 . S
C662 C663 1.394 . S
C662 C668 1.465 . S
C663 C658 1.399 . S
C663 C662 1.394 . S
C663 C664 1.516 . S
C664 C663 1.516 . S
C664 C665 1.502 . S
C664 C666 1.561 . S
C664 C667 1.526 . S
C665 H649 0.959 . S
C665 H650 0.959 . S
C665 H651 0.961 . S
C665 C664 1.502 . S
C666 H652 0.960 . S
C666 H653 0.961 . S
C666 H654 0.959 . S
C666 C664 1.561 . S
C667 C664 1.526 . S
C667 C668 1.396 . S
C667 C672 1.390 . S
C668 C662 1.465 . S
C668 C667 1.396 . S
C668 C669 1.399 . S
C669 H655 0.929 . S
C669 C668 1.399 . S
C669 C670 1.385 . S
C670 H656 0.931 . S
C670 C669 1.385 . S
C670 C671 1.389 . S
C671 C670 1.389 . S
C671 C672 1.387 . S
C672 H657 0.930 . S
C672 C667 1.390 . S
C672 C671 1.387 . S
H673 C685 0.930 . S
H674 C687 0.930 . S
H675 C688 0.930 . S
H676 C692 0.959 . S
H677 C692 0.959 . S
H678 C692 0.961 . S
H679 C693 0.960 . S
H680 C693 0.961 . S
H681 C693 0.959 . S
H682 C696 0.929 . S
H683 C697 0.931 . S
H684 C699 0.930 . S
C685 H673 0.930 . S
C685 C686 1.399 . S
C685 C690 1.399 . S
C686 C685 1.399 . S
C686 C687 1.376 . S
C687 H674 0.930 . S
C687 C686 1.376 . S
C687 C688 1.388 . S
C688 H675 0.930 . S
C688 C687 1.388 . S
C688 C689 1.390 . S
C689 C688 1.390 . S
C689 C690 1.394 . S
C689 C695 1.465 . S
C690 C685 1.399 . S
C690 C689 1.394 . S
C690 C691 1.516 . S
C691 C690 1.516 . S
C691 C692 1.502 . S
C691 C693 1.561 . S
C691 C694 1.526 . S
C692 H676 0.959 . S
C692 H677 0.959 . S
C692 H678 0.961 . S
C692 C691 1.502 . S
C693 H679 0.960 . S
C693 H680 0.961 . S
C693 H681 0.959 . S
C693 C691 1.561 . S
C694 C691 1.526 . S
C694 C695 1.396 . S
C694 C699 1.390 . S
C695 C689 1.465 . S
C695 C694 1.396 . S
C695 C696 1.399 . S
C696 H682 0.929 . S
C696 C695 1.399 . S
C696 C697 1.385 . S
C697 H683 0.931 . S
C697 C696 1.385 . S
C697 C698 1.389 . S
C698 C697 1.389 . S
C698 C699 1.387 . S
C699 H684 0.930 . S
C699 C694 1.390 . S
C699 C698 1.387 . S
H700 C712 0.930 . S
H701 C714 0.930 . S
H702 C715 0.930 . S
H703 C719 0.959 . S
H704 C719 0.959 . S
H705 C719 0.961 . S
H706 C720 0.960 . S
H707 C720 0.961 . S
H708 C720 0.959 . S
H709 C723 0.929 . S
H710 C724 0.931 . S
H711 C726 0.930 . S
C712 H700 0.930 . S
C712 C713 1.399 . S
C712 C717 1.399 . S
C713 C712 1.399 . S
C713 C714 1.376 . S
C714 H701 0.930 . S
C714 C713 1.376 . S
C714 C715 1.388 . S
C715 H702 0.930 . S
C715 C714 1.388 . S
C715 C716 1.390 . S
C716 C715 1.390 . S
C716 C717 1.394 . S
C716 C722 1.465 . S
C717 C712 1.399 . S
C717 C716 1.394 . S
C717 C718 1.516 . S
C718 C717 1.516 . S
C718 C719 1.502 . S
C718 C720 1.561 . S
C718 C721 1.526 . S
C719 H703 0.959 . S
C719 H704 0.959 . S
C719 H705 0.961 . S
C719 C718 1.502 . S
C720 H706 0.960 . S
C720 H707 0.961 . S
C720 H708 0.959 . S
C720 C718 1.561 . S
C721 C718 1.526 . S
C721 C722 1.396 . S
C721 C726 1.390 . S
C722 C716 1.465 . S
C722 C721 1.396 . S
C722 C723 1.399 . S
C723 H709 0.929 . S
C723 C722 1.399 . S
C723 C724 1.385 . S
C724 H710 0.931 . S
C724 C723 1.385 . S
C724 C725 1.389 . S
C725 C724 1.389 . S
C725 C726 1.387 . S
C726 H711 0.930 . S
C726 C721 1.390 . S
C726 C725 1.387 . S
H727 C739 0.930 . S
H728 C741 0.930 . S
H729 C742 0.930 . S
H730 C746 0.959 . S
H731 C746 0.959 . S
H732 C746 0.961 . S
H733 C747 0.960 . S
H734 C747 0.961 . S
H735 C747 0.959 . S
H736 C750 0.929 . S
H737 C751 0.931 . S
H738 C753 0.930 . S
C739 H727 0.930 . S
C739 C740 1.399 . S
C739 C744 1.399 . S
C740 C739 1.399 . S
C740 C741 1.376 . S
C741 H728 0.930 . S
C741 C740 1.376 . S
C741 C742 1.388 . S
C742 H729 0.930 . S
C742 C741 1.388 . S
C742 C743 1.390 . S
C743 C742 1.390 . S
C743 C744 1.394 . S
C743 C749 1.465 . S
C744 C739 1.399 . S
C744 C743 1.394 . S
C744 C745 1.516 . S
C745 C744 1.516 . S
C745 C746 1.502 . S
C745 C747 1.561 . S
C745 C748 1.526 . S
C746 H730 0.959 . S
C746 H731 0.959 . S
C746 H732 0.961 . S
C746 C745 1.502 . S
C747 H733 0.960 . S
C747 H734 0.961 . S
C747 H735 0.959 . S
C747 C745 1.561 . S
C748 C745 1.526 . S
C748 C749 1.396 . S
C748 C753 1.390 . S
C749 C743 1.465 . S
C749 C748 1.396 . S
C749 C750 1.399 . S
C750 H736 0.929 . S
C750 C749 1.399 . S
C750 C751 1.385 . S
C751 H737 0.931 . S
C751 C750 1.385 . S
C751 C752 1.389 . S
C752 C751 1.389 . S
C752 C753 1.387 . S
C753 H738 0.930 . S
C753 C748 1.390 . S
C753 C752 1.387 . S
H754 C766 0.930 . S
H755 C768 0.930 . S
H756 C769 0.930 . S
H757 C773 0.959 . S
H758 C773 0.959 . S
H759 C773 0.961 . S
H760 C774 0.960 . S
H761 C774 0.961 . S
H762 C774 0.959 . S
H763 C777 0.929 . S
H764 C778 0.931 . S
H765 C780 0.930 . S
C766 H754 0.930 . S
C766 C767 1.399 . S
C766 C771 1.399 . S
C767 C766 1.399 . S
C767 C768 1.376 . S
C768 H755 0.930 . S
C768 C767 1.376 . S
C768 C769 1.388 . S
C769 H756 0.930 . S
C769 C768 1.388 . S
C769 C770 1.390 . S
C770 C769 1.390 . S
C770 C771 1.394 . S
C770 C776 1.465 . S
C771 C766 1.399 . S
C771 C770 1.394 . S
C771 C772 1.516 . S
C772 C771 1.516 . S
C772 C773 1.502 . S
C772 C774 1.561 . S
C772 C775 1.526 . S
C773 H757 0.959 . S
C773 H758 0.959 . S
C773 H759 0.961 . S
C773 C772 1.502 . S
C774 H760 0.960 . S
C774 H761 0.961 . S
C774 H762 0.959 . S
C774 C772 1.561 . S
C775 C772 1.526 . S
C775 C776 1.396 . S
C775 C780 1.390 . S
C776 C770 1.465 . S
C776 C775 1.396 . S
C776 C777 1.399 . S
C777 H763 0.929 . S
C777 C776 1.399 . S
C777 C778 1.385 . S
C778 H764 0.931 . S
C778 C777 1.385 . S
C778 C779 1.389 . S
C779 C778 1.389 . S
C779 C780 1.387 . S
C780 H765 0.930 . S
C780 C775 1.390 . S
C780 C779 1.387 . S
H781 C793 0.930 . S
H782 C795 0.930 . S
H783 C796 0.930 . S
H784 C800 0.959 . S
H785 C800 0.959 . S
H786 C800 0.961 . S
H787 C801 0.960 1_655 S
H788 C801 0.961 . S
H789 C801 0.959 . S
H790 C804 0.929 . S
H791 C805 0.931 . S
H792 C807 0.930 . S
C793 H781 0.930 . S
C793 C794 1.399 . S
C793 C798 1.399 . S
C794 C793 1.399 . S
C794 C795 1.376 . S
C795 H782 0.930 . S
C795 C794 1.376 . S
C795 C796 1.388 1_655 S
C796 H783 0.930 . S
C796 C795 1.388 1_455 S
C796 C797 1.390 1_455 S
C797 C796 1.390 1_655 S
C797 C798 1.394 . S
C797 C803 1.465 1_655 S
C798 C793 1.399 . S
C798 C797 1.394 . S
C798 C799 1.516 . S
C799 C798 1.516 . S
C799 C800 1.502 . S
C799 C801 1.561 1_655 S
C799 C802 1.526 . S
C800 H784 0.959 . S
C800 H785 0.959 . S
C800 H786 0.961 . S
C800 C799 1.502 . S
C801 H787 0.960 1_455 S
C801 H788 0.961 . S
C801 H789 0.959 . S
C801 C799 1.561 1_455 S
C802 C799 1.526 . S
C802 C803 1.396 1_655 S
C802 C807 1.390 . S
C803 C797 1.465 1_455 S
C803 C802 1.396 1_455 S
C803 C804 1.399 . S
C804 H790 0.929 . S
C804 C803 1.399 . S
C804 C805 1.385 . S
C805 H791 0.931 . S
C805 C804 1.385 . S
C805 C806 1.389 . S
C806 C805 1.389 . S
C806 C807 1.387 1_455 S
C807 H792 0.930 . S
C807 C802 1.390 . S
C807 C806 1.387 1_655 S
H808 C820 0.930 . S
H809 C822 0.930 . S
H810 C823 0.930 . S
H811 C827 0.959 . S
H812 C827 0.959 . S
H813 C827 0.961 . S
H814 C828 0.960 . S
H815 C828 0.961 . S
H816 C828 0.959 . S
H817 C831 0.929 . S
H818 C832 0.931 . S
H819 C834 0.930 . S
C820 H808 0.930 . S
C820 C821 1.399 . S
C820 C825 1.399 . S
C821 C820 1.399 . S
C821 C822 1.376 . S
C822 H809 0.930 . S
C822 C821 1.376 . S
C822 C823 1.388 . S
C823 H810 0.930 . S
C823 C822 1.388 . S
C823 C824 1.390 . S
C824 C823 1.390 . S
C824 C825 1.394 . S
C824 C830 1.465 . S
C825 C820 1.399 . S
C825 C824 1.394 . S
C825 C826 1.516 . S
C826 C825 1.516 . S
C826 C827 1.502 . S
C826 C828 1.561 . S
C826 C829 1.526 . S
C827 H811 0.959 . S
C827 H812 0.959 . S
C827 H813 0.961 . S
C827 C826 1.502 . S
C828 H814 0.960 . S
C828 H815 0.961 . S
C828 H816 0.959 . S
C828 C826 1.561 . S
C829 C826 1.526 . S
C829 C830 1.396 . S
C829 C834 1.390 . S
C830 C824 1.465 . S
C830 C829 1.396 . S
C830 C831 1.399 . S
C831 H817 0.929 . S
C831 C830 1.399 . S
C831 C832 1.385 . S
C832 H818 0.931 . S
C832 C831 1.385 . S
C832 C833 1.389 . S
C833 C832 1.389 . S
C833 C834 1.387 . S
C834 H819 0.930 . S
C834 C829 1.390 . S
C834 C833 1.387 . S
H835 C847 0.930 . S
H836 C849 0.930 . S
H837 C850 0.930 . S
H838 C854 0.959 . S
H839 C854 0.959 . S
H840 C854 0.961 . S
H841 C855 0.960 . S
H842 C855 0.961 . S
H843 C855 0.959 . S
H844 C858 0.929 . S
H845 C859 0.931 . S
H846 C861 0.930 . S
C847 H835 0.930 . S
C847 C848 1.399 . S
C847 C852 1.399 . S
C848 C847 1.399 . S
C848 C849 1.376 . S
C849 H836 0.930 . S
C849 C848 1.376 . S
C849 C850 1.388 . S
C850 H837 0.930 . S
C850 C849 1.388 . S
C850 C851 1.390 . S
C851 C850 1.390 . S
C851 C852 1.394 . S
C851 C857 1.465 . S
C852 C847 1.399 . S
C852 C851 1.394 . S
C852 C853 1.516 . S
C853 C852 1.516 . S
C853 C854 1.502 . S
C853 C855 1.561 . S
C853 C856 1.526 . S
C854 H838 0.959 . S
C854 H839 0.959 . S
C854 H840 0.961 . S
C854 C853 1.502 . S
C855 H841 0.960 . S
C855 H842 0.961 . S
C855 H843 0.959 . S
C855 C853 1.561 . S
C856 C853 1.526 . S
C856 C857 1.396 . S
C856 C861 1.390 . S
C857 C851 1.465 . S
C857 C856 1.396 . S
C857 C858 1.399 . S
C858 H844 0.929 . S
C858 C857 1.399 . S
C858 C859 1.385 . S
C859 H845 0.931 . S
C859 C858 1.385 . S
C859 C860 1.389 . S
C860 C859 1.389 . S
C860 C861 1.387 . S
C861 H846 0.930 . S
C861 C856 1.390 . S
C861 C860 1.387 . S
H862 C874 0.930 1_554 S
H863 C876 0.930 . S
H864 C877 0.930 . S
H865 C881 0.959 . S
H866 C881 0.959 . S
H867 C881 0.961 . S
H868 C882 0.960 . S
H869 C882 0.961 1_565 S
H870 C882 0.959 . S
H871 C885 0.929 . S
H872 C886 0.931 . S
H873 C888 0.930 . S
C874 H862 0.930 1_556 S
C874 C875 1.399 . S
C874 C879 1.399 . S
C875 C874 1.399 . S
C875 C876 1.376 . S
C876 H863 0.930 . S
C876 C875 1.376 . S
C876 C877 1.388 . S
C877 H864 0.930 . S
C877 C876 1.388 . S
C877 C878 1.390 . S
C878 C877 1.390 . S
C878 C879 1.394 . S
C878 C884 1.465 1_545 S
C879 C874 1.399 . S
C879 C878 1.394 . S
C879 C880 1.516 1_546 S
C880 C879 1.516 1_564 S
C880 C881 1.502 . S
C880 C882 1.561 1_565 S
C880 C883 1.526 1_554 S
C881 H865 0.959 . S
C881 H866 0.959 . S
C881 H867 0.961 . S
C881 C880 1.502 . S
C882 H868 0.960 . S
C882 H869 0.961 1_545 S
C882 H870 0.959 . S
C882 C880 1.561 1_545 S
C883 C880 1.526 1_556 S
C883 C884 1.396 . S
C883 C888 1.390 1_556 S
C884 C878 1.465 1_565 S
C884 C883 1.396 . S
C884 C885 1.399 . S
C885 H871 0.929 . S
C885 C884 1.399 . S
C885 C886 1.385 . S
C886 H872 0.931 . S
C886 C885 1.385 . S
C886 C887 1.389 . S
C887 C886 1.389 . S
C887 C888 1.387 1_556 S
C888 H873 0.930 . S
C888 C883 1.390 1_554 S
C888 C887 1.387 1_554 S
H889 C901 0.930 . S
H890 C903 0.930 . S
H891 C904 0.930 . S
H892 C908 0.959 . S
H893 C908 0.959 . S
H894 C908 0.961 . S
H895 C909 0.960 . S
H896 C909 0.961 . S
H897 C909 0.959 . S
H898 C912 0.929 . S
H899 C913 0.931 . S
H900 C915 0.930 . S
C901 H889 0.930 . S
C901 C902 1.399 . S
C901 C906 1.399 . S
C902 C901 1.399 . S
C902 C903 1.376 . S
C903 H890 0.930 . S
C903 C902 1.376 . S
C903 C904 1.388 . S
C904 H891 0.930 . S
C904 C903 1.388 . S
C904 C905 1.390 . S
C905 C904 1.390 . S
C905 C906 1.394 . S
C905 C911 1.465 . S
C906 C901 1.399 . S
C906 C905 1.394 . S
C906 C907 1.516 . S
C907 C906 1.516 . S
C907 C908 1.502 . S
C907 C909 1.561 . S
C907 C910 1.526 . S
C908 H892 0.959 . S
C908 H893 0.959 . S
C908 H894 0.961 . S
C908 C907 1.502 . S
C909 H895 0.960 . S
C909 H896 0.961 . S
C909 H897 0.959 . S
C909 C907 1.561 . S
C910 C907 1.526 . S
C910 C911 1.396 . S
C910 C915 1.390 . S
C911 C905 1.465 . S
C911 C910 1.396 . S
C911 C912 1.399 . S
C912 H898 0.929 . S
C912 C911 1.399 . S
C912 C913 1.385 . S
C913 H899 0.931 . S
C913 C912 1.385 . S
C913 C914 1.389 . S
C914 C913 1.389 . S
C914 C915 1.387 . S
C915 H900 0.930 . S
C915 C910 1.390 . S
C915 C914 1.387 . S
H916 C928 0.930 . S
H917 C930 0.930 . S
H918 C931 0.930 . S
H919 C935 0.959 . S
H920 C935 0.959 . S
H921 C935 0.961 . S
H922 C936 0.960 . S
H923 C936 0.961 . S
H924 C936 0.959 . S
H925 C939 0.929 . S
H926 C940 0.931 . S
H927 C942 0.930 . S
C928 H916 0.930 . S
C928 C929 1.399 1_545 S
C928 C933 1.399 . S
C929 C928 1.399 1_565 S
C929 C930 1.376 . S
C930 H917 0.930 . S
C930 C929 1.376 . S
C930 C931 1.388 1_565 S
C931 H918 0.930 . S
C931 C930 1.388 1_545 S
C931 C932 1.390 . S
C932 C931 1.390 . S
C932 C933 1.394 . S
C932 C938 1.465 . S
C933 C928 1.399 . S
C933 C932 1.394 . S
C933 C934 1.516 . S
C934 C933 1.516 . S
C934 C935 1.502 . S
C934 C936 1.561 . S
C934 C937 1.526 . S
C935 H919 0.959 . S
C935 H920 0.959 . S
C935 H921 0.961 . S
C935 C934 1.502 . S
C936 H922 0.960 . S
C936 H923 0.961 . S
C936 H924 0.959 . S
C936 C934 1.561 . S
C937 C934 1.526 . S
C937 C938 1.396 . S
C937 C942 1.390 . S
C938 C932 1.465 . S
C938 C937 1.396 . S
C938 C939 1.399 . S
C939 H925 0.929 . S
C939 C938 1.399 . S
C939 C940 1.385 . S
C940 H926 0.931 . S
C940 C939 1.385 . S
C940 C941 1.389 . S
C941 C940 1.389 . S
C941 C942 1.387 . S
C942 H927 0.930 . S
C942 C937 1.390 . S
C942 C941 1.387 . S
H943 C955 0.930 . S
H944 C957 0.930 . S
H945 C958 0.930 . S
H946 C962 0.959 . S
H947 C962 0.959 . S
H948 C962 0.961 . S
H949 C963 0.960 . S
H950 C963 0.961 . S
H951 C963 0.959 . S
H952 C966 0.929 . S
H953 C967 0.931 . S
H954 C969 0.930 . S
C955 H943 0.930 . S
C955 C956 1.399 . S
C955 C960 1.399 . S
C956 C955 1.399 . S
C956 C957 1.376 . S
C957 H944 0.930 . S
C957 C956 1.376 . S
C957 C958 1.388 . S
C958 H945 0.930 . S
C958 C957 1.388 . S
C958 C959 1.390 . S
C959 C958 1.390 . S
C959 C960 1.394 . S
C959 C965 1.465 . S
C960 C955 1.399 . S
C960 C959 1.394 . S
C960 C961 1.516 . S
C961 C960 1.516 . S
C961 C962 1.502 . S
C961 C963 1.561 . S
C961 C964 1.526 . S
C962 H946 0.959 . S
C962 H947 0.959 . S
C962 H948 0.961 . S
C962 C961 1.502 . S
C963 H949 0.960 . S
C963 H950 0.961 . S
C963 H951 0.959 . S
C963 C961 1.561 . S
C964 C961 1.526 . S
C964 C965 1.396 . S
C964 C969 1.390 . S
C965 C959 1.465 . S
C965 C964 1.396 . S
C965 C966 1.399 . S
C966 H952 0.929 . S
C966 C965 1.399 . S
C966 C967 1.385 . S
C967 H953 0.931 . S
C967 C966 1.385 . S
C967 C968 1.389 . S
C968 C967 1.389 . S
C968 C969 1.387 . S
C969 H954 0.930 . S
C969 C964 1.390 . S
C969 C968 1.387 . S
H970 C982 0.930 . S
H971 C984 0.930 . S
H972 C985 0.930 . S
H973 C989 0.959 . S
H974 C989 0.959 . S
H975 C989 0.961 . S
H976 C990 0.960 1_565 S
H977 C990 0.961 . S
H978 C990 0.959 1_565 S
H979 C993 0.929 . S
H980 C994 0.931 . S
H981 C996 0.930 . S
C982 H970 0.930 . S
C982 C983 1.399 . S
C982 C987 1.399 1_565 S
C983 C982 1.399 . S
C983 C984 1.376 . S
C984 H971 0.930 . S
C984 C983 1.376 . S
C984 C985 1.388 1_565 S
C985 H972 0.930 . S
C985 C984 1.388 1_545 S
C985 C986 1.390 . S
C986 C985 1.390 . S
C986 C987 1.394 . S
C986 C992 1.465 . S
C987 C982 1.399 1_545 S
C987 C986 1.394 . S
C987 C988 1.516 . S
C988 C987 1.516 . S
C988 C989 1.502 . S
C988 C990 1.561 . S
C988 C991 1.526 . S
C989 H973 0.959 . S
C989 H974 0.959 . S
C989 H975 0.961 . S
C989 C988 1.502 . S
C990 H976 0.960 1_545 S
C990 H977 0.961 . S
C990 H978 0.959 1_545 S
C990 C988 1.561 . S
C991 C988 1.526 . S
C991 C992 1.396 . S
C991 C996 1.390 . S
C992 C986 1.465 . S
C992 C991 1.396 . S
C992 C993 1.399 . S
C993 H979 0.929 . S
C993 C992 1.399 . S
C993 C994 1.385 . S
C994 H980 0.931 . S
C994 C993 1.385 . S
C994 C995 1.389 . S
C995 C994 1.389 . S
C995 C996 1.387 . S
C996 H981 0.930 . S
C996 C991 1.390 . S
C996 C995 1.387 . S
H997 C1009 0.930 . S
H998 C1011 0.930 . S
H999 C1012 0.930 . S
H1000 C1016 0.959 . S
H1001 C1016 0.959 . S
H1002 C1016 0.961 . S
H1003 C1017 0.960 . S
H1004 C1017 0.961 . S
H1005 C1017 0.959 . S
H1006 C1020 0.929 . S
H1007 C1021 0.931 . S
H1008 C1023 0.930 . S
C1009 H997 0.930 . S
C1009 C1010 1.399 . S
C1009 C1014 1.399 . S
C1010 C1009 1.399 . S
C1010 C1011 1.376 . S
C1011 H998 0.930 . S
C1011 C1010 1.376 . S
C1011 C1012 1.388 . S
C1012 H999 0.930 . S
C1012 C1011 1.388 . S
C1012 C1013 1.390 . S
C1013 C1012 1.390 . S
C1013 C1014 1.394 . S
C1013 C1019 1.465 . S
C1014 C1009 1.399 . S
C1014 C1013 1.394 . S
C1014 C1015 1.516 . S
C1015 C1014 1.516 . S
C1015 C1016 1.502 . S
C1015 C1017 1.561 . S
C1015 C1018 1.526 . S
C1016 H1000 0.959 . S
C1016 H1001 0.959 . S
C1016 H1002 0.961 . S
C1016 C1015 1.502 . S
C1017 H1003 0.960 . S
C1017 H1004 0.961 . S
C1017 H1005 0.959 . S
C1017 C1015 1.561 . S
C1018 C1015 1.526 . S
C1018 C1019 1.396 . S
C1018 C1023 1.390 . S
C1019 C1013 1.465 . S
C1019 C1018 1.396 . S
C1019 C1020 1.399 . S
C1020 H1006 0.929 . S
C1020 C1019 1.399 . S
C1020 C1021 1.385 . S
C1021 H1007 0.931 . S
C1021 C1020 1.385 . S
C1021 C1022 1.389 . S
C1022 C1021 1.389 . S
C1022 C1023 1.387 . S
C1023 H1008 0.930 . S
C1023 C1018 1.390 . S
C1023 C1022 1.387 . S
H1024 C1036 0.930 . S
H1025 C1038 0.930 . S
H1026 C1039 0.930 . S
H1027 C1043 0.959 . S
H1028 C1043 0.959 . S
H1029 C1043 0.961 . S
H1030 C1044 0.960 . S
H1031 C1044 0.961 . S
H1032 C1044 0.959 . S
H1033 C1047 0.929 . S
H1034 C1048 0.931 . S
H1035 C1050 0.930 . S
C1036 H1024 0.930 . S
C1036 C1037 1.399 . S
C1036 C1041 1.399 . S
C1037 C1036 1.399 . S
C1037 C1038 1.376 . S
C1038 H1025 0.930 . S
C1038 C1037 1.376 . S
C1038 C1039 1.388 . S
C1039 H1026 0.930 . S
C1039 C1038 1.388 . S
C1039 C1040 1.390 . S
C1040 C1039 1.390 . S
C1040 C1041 1.394 . S
C1040 C1046 1.465 . S
C1041 C1036 1.399 . S
C1041 C1040 1.394 . S
C1041 C1042 1.516 . S
C1042 C1041 1.516 . S
C1042 C1043 1.502 . S
C1042 C1044 1.561 . S
C1042 C1045 1.526 . S
C1043 H1027 0.959 . S
C1043 H1028 0.959 . S
C1043 H1029 0.961 . S
C1043 C1042 1.502 . S
C1044 H1030 0.960 . S
C1044 H1031 0.961 . S
C1044 H1032 0.959 . S
C1044 C1042 1.561 . S
C1045 C1042 1.526 . S
C1045 C1046 1.396 . S
C1045 C1050 1.390 . S
C1046 C1040 1.465 . S
C1046 C1045 1.396 . S
C1046 C1047 1.399 . S
C1047 H1033 0.929 . S
C1047 C1046 1.399 . S
C1047 C1048 1.385 . S
C1048 H1034 0.931 . S
C1048 C1047 1.385 . S
C1048 C1049 1.389 . S
C1049 C1048 1.389 . S
C1049 C1050 1.387 . S
C1050 H1035 0.930 . S
C1050 C1045 1.390 . S
C1050 C1049 1.387 . S
H1051 C1063 0.930 . S
H1052 C1065 0.930 . S
H1053 C1066 0.930 . S
H1054 C1070 0.959 . S
H1055 C1070 0.959 . S
H1056 C1070 0.961 . S
H1057 C1071 0.960 . S
H1058 C1071 0.961 . S
H1059 C1071 0.959 . S
H1060 C1074 0.929 . S
H1061 C1075 0.927 1_565 S
H1062 C1077 0.930 . S
C1063 H1051 0.930 . S
C1063 C1064 1.399 . S
C1063 C1068 1.399 . S
C1064 C1063 1.399 . S
C1064 C1065 1.376 . S
C1065 H1052 0.930 . S
C1065 C1064 1.376 . S
C1065 C1066 1.388 . S
C1066 H1053 0.930 . S
C1066 C1065 1.388 . S
C1066 C1067 1.390 . S
C1067 C1066 1.390 . S
C1067 C1068 1.394 . S
C1067 C1073 1.465 . S
C1068 C1063 1.399 . S
C1068 C1067 1.394 . S
C1068 C1069 1.516 . S
C1069 C1068 1.516 . S
C1069 C1070 1.502 . S
C1069 C1071 1.561 . S
C1069 C1072 1.526 . S
C1070 H1054 0.959 . S
C1070 H1055 0.959 . S
C1070 H1056 0.961 . S
C1070 C1069 1.502 . S
C1071 H1057 0.960 . S
C1071 H1058 0.961 . S
C1071 H1059 0.959 . S
C1071 C1069 1.561 . S
C1072 C1069 1.526 . S
C1072 C1073 1.396 . S
C1072 C1077 1.390 . S
C1073 C1067 1.465 . S
C1073 C1072 1.396 . S
C1073 C1074 1.399 . S
C1074 H1060 0.929 . S
C1074 C1073 1.399 . S
C1074 C1075 1.385 . S
C1075 H1061 0.927 1_545 S
C1075 C1074 1.385 . S
C1075 C1076 1.389 . S
C1076 C1075 1.389 . S
C1076 C1077 1.387 . S
C1077 H1062 0.930 . S
C1077 C1072 1.390 . S
C1077 C1076 1.387 . S
H1078 C1090 0.930 . S
H1079 C1092 0.930 . S
H1080 C1093 0.930 . S
H1081 C1097 0.959 . S
H1082 C1097 0.959 . S
H1083 C1097 0.961 . S
H1084 C1098 0.960 . S
H1085 C1098 0.961 . S
H1086 C1098 0.959 . S
H1087 C1101 0.929 . S
H1088 C1102 0.931 . S
H1089 C1104 0.930 . S
C1090 H1078 0.930 . S
C1090 C1091 1.399 . S
C1090 C1095 1.399 . S
C1091 C1090 1.399 . S
C1091 C1092 1.376 . S
C1092 H1079 0.930 . S
C1092 C1091 1.376 . S
C1092 C1093 1.388 . S
C1093 H1080 0.930 . S
C1093 C1092 1.388 . S
C1093 C1094 1.390 . S
C1094 C1093 1.390 . S
C1094 C1095 1.394 . S
C1094 C1100 1.465 . S
C1095 C1090 1.399 . S
C1095 C1094 1.394 . S
C1095 C1096 1.516 . S
C1096 C1095 1.516 . S
C1096 C1097 1.502 . S
C1096 C1098 1.561 . S
C1096 C1099 1.526 . S
C1097 H1081 0.959 . S
C1097 H1082 0.959 . S
C1097 H1083 0.961 . S
C1097 C1096 1.502 . S
C1098 H1084 0.960 . S
C1098 H1085 0.961 . S
C1098 H1086 0.959 . S
C1098 C1096 1.561 . S
C1099 C1096 1.526 . S
C1099 C1100 1.396 . S
C1099 C1104 1.390 . S
C1100 C1094 1.465 . S
C1100 C1099 1.396 . S
C1100 C1101 1.399 . S
C1101 H1087 0.929 . S
C1101 C1100 1.399 . S
C1101 C1102 1.385 . S
C1102 H1088 0.931 . S
C1102 C1101 1.385 . S
C1102 C1103 1.389 . S
C1103 C1102 1.389 . S
C1103 C1104 1.387 . S
C1104 H1089 0.930 . S
C1104 C1099 1.390 . S
C1104 C1103 1.387 . S
H1105 C1117 0.930 . S
H1106 C1119 0.930 . S
H1107 C1120 0.930 . S
H1108 C1124 0.959 . S
H1109 C1124 0.959 . S
H1110 C1124 0.961 . S
H1111 C1125 0.960 . S
H1112 C1125 0.961 . S
H1113 C1125 0.959 . S
H1114 C1128 0.929 . S
H1115 C1129 0.931 . S
H1116 C1131 0.930 . S
C1117 H1105 0.930 . S
C1117 C1118 1.399 . S
C1117 C1122 1.399 . S
C1118 C1117 1.399 . S
C1118 C1119 1.376 . S
C1119 H1106 0.930 . S
C1119 C1118 1.376 . S
C1119 C1120 1.388 . S
C1120 H1107 0.930 . S
C1120 C1119 1.388 . S
C1120 C1121 1.390 . S
C1121 C1120 1.390 . S
C1121 C1122 1.394 . S
C1121 C1127 1.465 . S
C1122 C1117 1.399 . S
C1122 C1121 1.394 . S
C1122 C1123 1.516 . S
C1123 C1122 1.516 . S
C1123 C1124 1.502 . S
C1123 C1125 1.561 . S
C1123 C1126 1.526 . S
C1124 H1108 0.959 . S
C1124 H1109 0.959 . S
C1124 H1110 0.961 . S
C1124 C1123 1.502 . S
C1125 H1111 0.960 . S
C1125 H1112 0.961 . S
C1125 H1113 0.959 . S
C1125 C1123 1.561 . S
C1126 C1123 1.526 . S
C1126 C1127 1.396 . S
C1126 C1131 1.390 . S
C1127 C1121 1.465 . S
C1127 C1126 1.396 . S
C1127 C1128 1.399 . S
C1128 H1114 0.929 . S
C1128 C1127 1.399 . S
C1128 C1129 1.385 . S
C1129 H1115 0.931 . S
C1129 C1128 1.385 . S
C1129 C1130 1.389 . S
C1130 C1129 1.389 . S
C1130 C1131 1.387 . S
C1131 H1116 0.930 . S
C1131 C1126 1.390 . S
C1131 C1130 1.387 . S
H1132 C1144 0.930 . S
H1133 C1146 0.930 . S
H1134 C1147 0.930 . S
H1135 C1151 0.959 . S
H1136 C1151 0.959 . S
H1137 C1151 0.961 . S
H1138 C1152 0.960 . S
H1139 C1152 0.961 . S
H1140 C1152 0.959 . S
H1141 C1155 0.929 . S
H1142 C1156 0.931 . S
H1143 C1158 0.930 . S
C1144 H1132 0.930 . S
C1144 C1145 1.399 . S
C1144 C1149 1.399 . S
C1145 C1144 1.399 . S
C1145 C1146 1.376 . S
C1146 H1133 0.930 . S
C1146 C1145 1.376 . S
C1146 C1147 1.388 . S
C1147 H1134 0.930 . S
C1147 C1146 1.388 . S
C1147 C1148 1.390 . S
C1148 C1147 1.390 . S
C1148 C1149 1.394 . S
C1148 C1154 1.465 . S
C1149 C1144 1.399 . S
C1149 C1148 1.394 . S
C1149 C1150 1.516 . S
C1150 C1149 1.516 . S
C1150 C1151 1.502 . S
C1150 C1152 1.561 . S
C1150 C1153 1.526 . S
C1151 H1135 0.959 . S
C1151 H1136 0.959 . S
C1151 H1137 0.961 . S
C1151 C1150 1.502 . S
C1152 H1138 0.960 . S
C1152 H1139 0.961 . S
C1152 H1140 0.959 . S
C1152 C1150 1.561 . S
C1153 C1150 1.526 . S
C1153 C1154 1.396 . S
C1153 C1158 1.390 . S
C1154 C1148 1.465 . S
C1154 C1153 1.396 . S
C1154 C1155 1.399 . S
C1155 H1141 0.929 . S
C1155 C1154 1.399 . S
C1155 C1156 1.385 . S
C1156 H1142 0.931 . S
C1156 C1155 1.385 . S
C1156 C1157 1.389 . S
C1157 C1156 1.389 . S
C1157 C1158 1.387 . S
C1158 H1143 0.930 . S
C1158 C1153 1.390 . S
C1158 C1157 1.387 . S
H1159 C1171 0.930 1_565 S
H1160 C1173 0.930 . S
H1161 C1174 0.930 . S
H1162 C1178 0.959 . S
H1163 C1178 0.959 . S
H1164 C1178 0.961 . S
H1165 C1179 0.960 . S
H1166 C1179 0.961 . S
H1167 C1179 0.959 . S
H1168 C1182 0.929 . S
H1169 C1183 0.931 . S
H1170 C1185 0.930 1_565 S
C1171 H1159 0.930 1_545 S
C1171 C1172 1.400 . S
C1171 C1176 1.399 . S
C1172 C1171 1.400 . S
C1172 C1173 1.376 1_655 S
C1173 H1160 0.930 . S
C1173 C1172 1.376 1_455 S
C1173 C1174 1.388 1_455 S
C1174 H1161 0.930 . S
C1174 C1173 1.388 1_655 S
C1174 C1175 1.390 . S
C1175 C1174 1.390 . S
C1175 C1176 1.394 . S
C1175 C1181 1.465 . S
C1176 C1171 1.399 . S
C1176 C1175 1.394 . S
C1176 C1177 1.521 . S
C1177 C1176 1.521 . S
C1177 C1178 1.498 1_545 S
C1177 C1179 1.555 1_545 S
C1177 C1180 1.532 . S
C1178 H1162 0.959 . S
C1178 H1163 0.959 . S
C1178 H1164 0.961 . S
C1178 C1177 1.498 1_565 S
C1179 H1165 0.960 . S
C1179 H1166 0.961 . S
C1179 H1167 0.959 . S
C1179 C1177 1.555 1_565 S
C1180 C1177 1.532 . S
C1180 C1181 1.396 . S
C1180 C1185 1.390 . S
C1181 C1175 1.465 . S
C1181 C1180 1.396 . S
C1181 C1182 1.399 . S
C1182 H1168 0.929 . S
C1182 C1181 1.399 . S
C1182 C1183 1.385 . S
C1183 H1169 0.931 . S
C1183 C1182 1.385 . S
C1183 C1184 1.389 . S
C1184 C1183 1.389 . S
C1184 C1185 1.387 . S
C1185 H1170 0.930 1_545 S
C1185 C1180 1.390 . S
C1185 C1184 1.387 . S
H1186 C1198 0.930 . S
H1187 C1200 0.930 . S
H1188 C1201 0.930 . S
H1189 C1205 0.959 . S
H1190 C1205 0.959 . S
H1191 C1205 0.961 . S
H1192 C1206 0.960 . S
H1193 C1206 0.961 . S
H1194 C1206 0.959 . S
H1195 C1209 0.929 . S
H1196 C1210 0.931 . S
H1197 C1212 0.930 . S
C1198 H1186 0.930 . S
C1198 C1199 1.399 . S
C1198 C1203 1.399 . S
C1199 C1198 1.399 . S
C1199 C1200 1.376 . S
C1200 H1187 0.930 . S
C1200 C1199 1.376 . S
C1200 C1201 1.388 . S
C1201 H1188 0.930 . S
C1201 C1200 1.388 . S
C1201 C1202 1.390 . S
C1202 C1201 1.390 . S
C1202 C1203 1.394 . S
C1202 C1208 1.465 . S
C1203 C1198 1.399 . S
C1203 C1202 1.394 . S
C1203 C1204 1.516 . S
C1204 C1203 1.516 . S
C1204 C1205 1.502 . S
C1204 C1206 1.561 . S
C1204 C1207 1.526 . S
C1205 H1189 0.959 . S
C1205 H1190 0.959 . S
C1205 H1191 0.961 . S
C1205 C1204 1.502 . S
C1206 H1192 0.960 . S
C1206 H1193 0.961 . S
C1206 H1194 0.959 . S
C1206 C1204 1.561 . S
C1207 C1204 1.526 . S
C1207 C1208 1.396 . S
C1207 C1212 1.390 . S
C1208 C1202 1.465 . S
C1208 C1207 1.396 . S
C1208 C1209 1.399 . S
C1209 H1195 0.929 . S
C1209 C1208 1.399 . S
C1209 C1210 1.385 . S
C1210 H1196 0.931 . S
C1210 C1209 1.385 . S
C1210 C1211 1.389 . S
C1211 C1210 1.389 . S
C1211 C1212 1.387 . S
C1212 H1197 0.930 . S
C1212 C1207 1.390 . S
C1212 C1211 1.387 . S
H1213 C1225 0.930 1_655 S
H1214 C1227 0.930 . S
H1215 C1228 0.930 . S
H1216 C1232 0.959 . S
H1217 C1232 0.959 . S
H1218 C1232 0.961 1_655 S
H1219 C1233 0.960 . S
H1220 C1233 0.961 . S
H1221 C1233 0.959 . S
H1222 C1236 0.929 . S
H1223 C1237 0.931 . S
H1224 C1239 0.930 . S
C1225 H1213 0.930 1_455 S
C1225 C1226 1.399 . S
C1225 C1230 1.399 . S
C1226 C1225 1.399 . S
C1226 C1227 1.376 . S
C1227 H1214 0.930 . S
C1227 C1226 1.376 . S
C1227 C1228 1.388 . S
C1228 H1215 0.930 . S
C1228 C1227 1.388 . S
C1228 C1229 1.390 . S
C1229 C1228 1.390 . S
C1229 C1230 1.394 . S
C1229 C1235 1.465 . S
C1230 C1225 1.399 . S
C1230 C1229 1.394 . S
C1230 C1231 1.516 . S
C1231 C1230 1.516 . S
C1231 C1232 1.502 . S
C1231 C1233 1.561 . S
C1231 C1234 1.526 . S
C1232 H1216 0.959 . S
C1232 H1217 0.959 . S
C1232 H1218 0.961 1_455 S
C1232 C1231 1.502 . S
C1233 H1219 0.960 . S
C1233 H1220 0.961 . S
C1233 H1221 0.959 . S
C1233 C1231 1.561 . S
C1234 C1231 1.526 . S
C1234 C1235 1.396 . S
C1234 C1239 1.390 . S
C1235 C1229 1.465 . S
C1235 C1234 1.396 . S
C1235 C1236 1.399 . S
C1236 H1222 0.929 . S
C1236 C1235 1.399 . S
C1236 C1237 1.385 . S
C1237 H1223 0.931 . S
C1237 C1236 1.385 . S
C1237 C1238 1.389 . S
C1238 C1237 1.389 . S
C1238 C1239 1.387 . S
C1239 H1224 0.930 . S
C1239 C1234 1.390 . S
C1239 C1238 1.387 . S
H1240 C1252 0.930 . S
H1241 C1254 0.930 . S
H1242 C1255 0.930 . S
H1243 C1259 0.959 . S
H1244 C1259 0.959 . S
H1245 C1259 0.961 . S
H1246 C1260 0.960 . S
H1247 C1260 0.961 . S
H1248 C1260 0.959 . S
H1249 C1263 0.929 . S
H1250 C1264 0.931 . S
H1251 C1266 0.930 . S
C1252 H1240 0.930 . S
C1252 C1253 1.399 . S
C1252 C1257 1.399 . S
C1253 C1252 1.399 . S
C1253 C1254 1.376 . S
C1254 H1241 0.930 . S
C1254 C1253 1.376 . S
C1254 C1255 1.388 . S
C1255 H1242 0.930 . S
C1255 C1254 1.388 . S
C1255 C1256 1.390 . S
C1256 C1255 1.390 . S
C1256 C1257 1.394 . S
C1256 C1262 1.465 . S
C1257 C1252 1.399 . S
C1257 C1256 1.394 . S
C1257 C1258 1.516 . S
C1258 C1257 1.516 . S
C1258 C1259 1.502 . S
C1258 C1260 1.561 . S
C1258 C1261 1.526 . S
C1259 H1243 0.959 . S
C1259 H1244 0.959 . S
C1259 H1245 0.961 . S
C1259 C1258 1.502 . S
C1260 H1246 0.960 . S
C1260 H1247 0.961 . S
C1260 H1248 0.959 . S
C1260 C1258 1.561 . S
C1261 C1258 1.526 . S
C1261 C1262 1.396 . S
C1261 C1266 1.390 . S
C1262 C1256 1.465 . S
C1262 C1261 1.396 . S
C1262 C1263 1.399 . S
C1263 H1249 0.929 . S
C1263 C1262 1.399 . S
C1263 C1264 1.385 . S
C1264 H1250 0.931 . S
C1264 C1263 1.385 . S
C1264 C1265 1.389 . S
C1265 C1264 1.389 . S
C1265 C1266 1.387 . S
C1266 H1251 0.930 . S
C1266 C1261 1.390 . S
C1266 C1265 1.387 . S
H1267 C1279 0.930 . S
H1268 C1281 0.930 . S
H1269 C1282 0.930 . S
H1270 C1286 0.959 1_455 S
H1271 C1286 0.959 . S
H1272 C1286 0.961 . S
H1273 C1287 0.960 . S
H1274 C1287 0.961 . S
H1275 C1287 0.959 . S
H1276 C1290 0.929 . S
H1277 C1291 0.931 . S
H1278 C1293 0.930 . S
C1279 H1267 0.930 . S
C1279 C1280 1.399 . S
C1279 C1284 1.399 . S
C1280 C1279 1.399 . S
C1280 C1281 1.376 . S
C1281 H1268 0.930 . S
C1281 C1280 1.376 . S
C1281 C1282 1.388 1_554 S
C1282 H1269 0.930 . S
C1282 C1281 1.388 1_556 S
C1282 C1283 1.390 . S
C1283 C1282 1.390 . S
C1283 C1284 1.394 1_556 S
C1283 C1289 1.465 . S
C1284 C1279 1.399 . S
C1284 C1283 1.394 1_554 S
C1284 C1285 1.516 . S
C1285 C1284 1.516 . S
C1285 C1286 1.502 . S
C1285 C1287 1.561 . S
C1285 C1288 1.526 1_554 S
C1286 H1270 0.959 1_655 S
C1286 H1271 0.959 . S
C1286 H1272 0.961 . S
C1286 C1285 1.502 . S
C1287 H1273 0.960 . S
C1287 H1274 0.961 . S
C1287 H1275 0.959 . S
C1287 C1285 1.561 . S
C1288 C1285 1.526 1_556 S
C1288 C1289 1.396 . S
C1288 C1293 1.390 . S
C1289 C1283 1.465 . S
C1289 C1288 1.396 . S
C1289 C1290 1.399 . S
C1290 H1276 0.929 . S
C1290 C1289 1.399 . S
C1290 C1291 1.385 . S
C1291 H1277 0.931 . S
C1291 C1290 1.385 . S
C1291 C1292 1.389 . S
C1292 C1291 1.389 . S
C1292 C1293 1.387 . S
C1293 H1278 0.930 . S
C1293 C1288 1.390 . S
C1293 C1292 1.387 . S
H1294 C1306 0.930 . S
H1295 C1308 0.930 . S
H1296 C1309 0.930 . S
H1297 C1313 0.959 . S
H1298 C1313 0.959 . S
H1299 C1313 0.961 . S
H1300 C1314 0.960 . S
H1301 C1314 0.961 . S
H1302 C1314 0.959 . S
H1303 C1317 0.929 . S
H1304 C1318 0.931 . S
H1305 C1320 0.930 . S
C1306 H1294 0.930 . S
C1306 C1307 1.399 . S
C1306 C1311 1.399 . S
C1307 C1306 1.399 . S
C1307 C1308 1.376 . S
C1308 H1295 0.930 . S
C1308 C1307 1.376 . S
C1308 C1309 1.388 . S
C1309 H1296 0.930 . S
C1309 C1308 1.388 . S
C1309 C1310 1.390 . S
C1310 C1309 1.390 . S
C1310 C1311 1.394 . S
C1310 C1316 1.465 . S
C1311 C1306 1.399 . S
C1311 C1310 1.394 . S
C1311 C1312 1.516 . S
C1312 C1311 1.516 . S
C1312 C1313 1.502 . S
C1312 C1314 1.561 . S
C1312 C1315 1.526 . S
C1313 H1297 0.959 . S
C1313 H1298 0.959 . S
C1313 H1299 0.961 . S
C1313 C1312 1.502 . S
C1314 H1300 0.960 . S
C1314 H1301 0.961 . S
C1314 H1302 0.959 . S
C1314 C1312 1.561 . S
C1315 C1312 1.526 . S
C1315 C1316 1.396 . S
C1315 C1320 1.390 . S
C1316 C1310 1.465 . S
C1316 C1315 1.396 . S
C1316 C1317 1.399 . S
C1317 H1303 0.929 . S
C1317 C1316 1.399 . S
C1317 C1318 1.385 . S
C1318 H1304 0.931 . S
C1318 C1317 1.385 . S
C1318 C1319 1.389 . S
C1319 C1318 1.389 . S
C1319 C1320 1.387 . S
C1320 H1305 0.930 . S
C1320 C1315 1.390 . S
C1320 C1319 1.387 . S
H1321 C1333 0.930 . S
H1322 C1335 0.930 . S
H1323 C1336 0.930 1_655 S
H1324 C1340 0.959 . S
H1325 C1340 0.959 . S
H1326 C1340 0.961 . S
H1327 C1341 0.960 . S
H1328 C1341 0.961 . S
H1329 C1341 0.959 1_655 S
H1330 C1344 0.929 . S
H1331 C1345 0.946 . S
H1332 C1347 0.930 . S
C1333 H1321 0.930 . S
C1333 C1334 1.399 1_556 S
C1333 C1338 1.399 . S
C1334 C1333 1.399 1_554 S
C1334 C1335 1.376 . S
C1335 H1322 0.930 . S
C1335 C1334 1.376 . S
C1335 C1336 1.388 . S
C1336 H1323 0.930 1_455 S
C1336 C1335 1.388 . S
C1336 C1337 1.390 1_554 S
C1337 C1336 1.390 1_556 S
C1337 C1338 1.394 . S
C1337 C1343 1.465 . S
C1338 C1333 1.399 . S
C1338 C1337 1.394 . S
C1338 C1339 1.516 . S
C1339 C1338 1.516 . S
C1339 C1340 1.502 . S
C1339 C1341 1.561 . S
C1339 C1342 1.526 . S
C1340 H1324 0.959 . S
C1340 H1325 0.959 . S
C1340 H1326 0.961 . S
C1340 C1339 1.502 . S
C1341 H1327 0.960 . S
C1341 H1328 0.961 . S
C1341 H1329 0.959 1_455 S
C1341 C1339 1.561 . S
C1342 C1339 1.526 . S
C1342 C1343 1.396 . S
C1342 C1347 1.390 . S
C1343 C1337 1.465 . S
C1343 C1342 1.396 . S
C1343 C1344 1.399 1_455 S
C1344 H1330 0.929 . S
C1344 C1343 1.399 1_655 S
C1344 C1345 1.385 . S
C1345 H1331 0.946 . S
C1345 C1344 1.385 . S
C1345 C1346 1.376 1_655 S
C1346 C1345 1.376 1_455 S
C1346 C1347 1.387 . S
C1347 H1332 0.930 . S
C1347 C1342 1.390 . S
C1347 C1346 1.387 . S
H1348 C1360 0.930 . S
H1349 C1362 0.930 . S
H1350 C1363 0.930 . S
H1351 C1367 0.959 . S
H1352 C1367 0.959 . S
H1353 C1367 0.961 . S
H1354 C1368 0.960 . S
H1355 C1368 0.961 . S
H1356 C1368 0.959 . S
H1357 C1371 0.929 . S
H1358 C1372 0.931 . S
H1359 C1374 0.930 . S
C1360 H1348 0.930 . S
C1360 C1361 1.399 . S
C1360 C1365 1.399 . S
C1361 C1360 1.399 . S
C1361 C1362 1.376 . S
C1362 H1349 0.930 . S
C1362 C1361 1.376 . S
C1362 C1363 1.388 . S
C1363 H1350 0.930 . S
C1363 C1362 1.388 . S
C1363 C1364 1.390 . S
C1364 C1363 1.390 . S
C1364 C1365 1.394 . S
C1364 C1370 1.465 . S
C1365 C1360 1.399 . S
C1365 C1364 1.394 . S
C1365 C1366 1.516 . S
C1366 C1365 1.516 . S
C1366 C1367 1.502 . S
C1366 C1368 1.561 . S
C1366 C1369 1.526 . S
C1367 H1351 0.959 . S
C1367 H1352 0.959 . S
C1367 H1353 0.961 . S
C1367 C1366 1.502 . S
C1368 H1354 0.960 . S
C1368 H1355 0.961 . S
C1368 H1356 0.959 . S
C1368 C1366 1.561 . S
C1369 C1366 1.526 . S
C1369 C1370 1.396 . S
C1369 C1374 1.390 . S
C1370 C1364 1.465 . S
C1370 C1369 1.396 . S
C1370 C1371 1.399 . S
C1371 H1357 0.929 . S
C1371 C1370 1.399 . S
C1371 C1372 1.385 . S
C1372 H1358 0.931 . S
C1372 C1371 1.385 . S
C1372 C1373 1.389 . S
C1373 C1372 1.389 . S
C1373 C1374 1.387 . S
C1374 H1359 0.930 . S
C1374 C1369 1.390 . S
C1374 C1373 1.387 . S
H1375 C1387 0.930 . S
H1376 C1389 0.930 . S
H1377 C1390 0.930 . S
H1378 C1394 0.959 . S
H1379 C1394 0.959 . S
H1380 C1394 0.961 . S
H1381 C1395 0.960 . S
H1382 C1395 0.961 . S
H1383 C1395 0.959 . S
H1384 C1398 0.929 . S
H1385 C1399 0.931 . S
H1386 C1401 0.930 . S
C1387 H1375 0.930 . S
C1387 C1388 1.399 . S
C1387 C1392 1.399 . S
C1388 C1387 1.399 . S
C1388 C1389 1.376 . S
C1389 H1376 0.930 . S
C1389 C1388 1.376 . S
C1389 C1390 1.388 . S
C1390 H1377 0.930 . S
C1390 C1389 1.388 . S
C1390 C1391 1.390 . S
C1391 C1390 1.390 . S
C1391 C1392 1.394 . S
C1391 C1397 1.465 . S
C1392 C1387 1.399 . S
C1392 C1391 1.394 . S
C1392 C1393 1.516 . S
C1393 C1392 1.516 . S
C1393 C1394 1.502 . S
C1393 C1395 1.561 . S
C1393 C1396 1.526 . S
C1394 H1378 0.959 . S
C1394 H1379 0.959 . S
C1394 H1380 0.961 . S
C1394 C1393 1.502 . S
C1395 H1381 0.960 . S
C1395 H1382 0.961 . S
C1395 H1383 0.959 . S
C1395 C1393 1.561 . S
C1396 C1393 1.526 . S
C1396 C1397 1.396 . S
C1396 C1401 1.390 . S
C1397 C1391 1.465 . S
C1397 C1396 1.396 . S
C1397 C1398 1.399 . S
C1398 H1384 0.929 . S
C1398 C1397 1.399 . S
C1398 C1399 1.385 . S
C1399 H1385 0.931 . S
C1399 C1398 1.385 . S
C1399 C1400 1.389 . S
C1400 C1399 1.389 . S
C1400 C1401 1.387 . S
C1401 H1386 0.930 . S
C1401 C1396 1.390 . S
C1401 C1400 1.387 . S
H1402 C1414 0.930 . S
H1403 C1416 0.930 . S
H1404 C1417 0.930 . S
H1405 C1421 0.959 . S
H1406 C1421 0.959 . S
H1407 C1421 0.961 . S
H1408 C1422 0.960 . S
H1409 C1422 0.961 . S
H1410 C1422 0.959 . S
H1411 C1425 0.929 . S
H1412 C1426 0.931 . S
H1413 C1428 0.930 . S
C1414 H1402 0.930 . S
C1414 C1415 1.399 . S
C1414 C1419 1.399 . S
C1415 C1414 1.399 . S
C1415 C1416 1.376 . S
C1416 H1403 0.930 . S
C1416 C1415 1.376 . S
C1416 C1417 1.388 . S
C1417 H1404 0.930 . S
C1417 C1416 1.388 . S
C1417 C1418 1.390 . S
C1418 C1417 1.390 . S
C1418 C1419 1.394 . S
C1418 C1424 1.465 . S
C1419 C1414 1.399 . S
C1419 C1418 1.394 . S
C1419 C1420 1.516 . S
C1420 C1419 1.516 . S
C1420 C1421 1.502 . S
C1420 C1422 1.561 . S
C1420 C1423 1.526 . S
C1421 H1405 0.959 . S
C1421 H1406 0.959 . S
C1421 H1407 0.961 . S
C1421 C1420 1.502 . S
C1422 H1408 0.960 . S
C1422 H1409 0.961 . S
C1422 H1410 0.959 . S
C1422 C1420 1.561 . S
C1423 C1420 1.526 . S
C1423 C1424 1.396 . S
C1423 C1428 1.390 . S
C1424 C1418 1.465 . S
C1424 C1423 1.396 . S
C1424 C1425 1.399 . S
C1425 H1411 0.929 . S
C1425 C1424 1.399 . S
C1425 C1426 1.385 . S
C1426 H1412 0.931 . S
C1426 C1425 1.385 . S
C1426 C1427 1.389 . S
C1427 C1426 1.389 . S
C1427 C1428 1.387 . S
C1428 H1413 0.930 . S
C1428 C1423 1.390 . S
C1428 C1427 1.387 . S
H1429 C1441 0.930 . S
H1430 C1443 0.930 . S
H1431 C1444 0.930 . S
H1432 C1448 0.959 . S
H1433 C1448 0.959 . S
H1434 C1448 0.961 . S
H1435 C1449 0.960 . S
H1436 C1449 0.961 . S
H1437 C1449 0.959 . S
H1438 C1452 0.929 . S
H1439 C1453 0.931 . S
H1440 C1455 0.930 . S
C1441 H1429 0.930 . S
C1441 C1442 1.399 . S
C1441 C1446 1.399 . S
C1442 C1441 1.399 . S
C1442 C1443 1.376 . S
C1443 H1430 0.930 . S
C1443 C1442 1.376 . S
C1443 C1444 1.388 . S
C1444 H1431 0.930 . S
C1444 C1443 1.388 . S
C1444 C1445 1.390 . S
C1445 C1444 1.390 . S
C1445 C1446 1.394 . S
C1445 C1451 1.465 . S
C1446 C1441 1.399 . S
C1446 C1445 1.394 . S
C1446 C1447 1.516 . S
C1447 C1446 1.516 . S
C1447 C1448 1.502 . S
C1447 C1449 1.561 . S
C1447 C1450 1.526 . S
C1448 H1432 0.959 . S
C1448 H1433 0.959 . S
C1448 H1434 0.961 . S
C1448 C1447 1.502 . S
C1449 H1435 0.960 . S
C1449 H1436 0.961 . S
C1449 H1437 0.959 . S
C1449 C1447 1.561 . S
C1450 C1447 1.526 . S
C1450 C1451 1.396 . S
C1450 C1455 1.390 . S
C1451 C1445 1.465 . S
C1451 C1450 1.396 . S
C1451 C1452 1.399 . S
C1452 H1438 0.929 . S
C1452 C1451 1.399 . S
C1452 C1453 1.385 . S
C1453 H1439 0.931 . S
C1453 C1452 1.385 . S
C1453 C1454 1.389 . S
C1454 C1453 1.389 . S
C1454 C1455 1.387 . S
C1455 H1440 0.930 . S
C1455 C1450 1.390 . S
C1455 C1454 1.387 . S
H1456 C1468 0.930 . S
H1457 C1470 0.930 . S
H1458 C1471 0.930 . S
H1459 C1475 0.959 . S
H1460 C1475 0.959 . S
H1461 C1475 0.961 . S
H1462 C1476 0.960 . S
H1463 C1476 0.961 . S
H1464 C1476 0.959 . S
H1465 C1479 0.929 . S
H1466 C1480 0.931 . S
H1467 C1482 0.930 . S
C1468 H1456 0.930 . S
C1468 C1469 1.399 . S
C1468 C1473 1.399 . S
C1469 C1468 1.399 . S
C1469 C1470 1.376 . S
C1470 H1457 0.930 . S
C1470 C1469 1.376 . S
C1470 C1471 1.388 . S
C1471 H1458 0.930 . S
C1471 C1470 1.388 . S
C1471 C1472 1.390 . S
C1472 C1471 1.390 . S
C1472 C1473 1.394 . S
C1472 C1478 1.465 . S
C1473 C1468 1.399 . S
C1473 C1472 1.394 . S
C1473 C1474 1.516 . S
C1474 C1473 1.516 . S
C1474 C1475 1.502 . S
C1474 C1476 1.561 . S
C1474 C1477 1.526 . S
C1475 H1459 0.959 . S
C1475 H1460 0.959 . S
C1475 H1461 0.961 . S
C1475 C1474 1.502 . S
C1476 H1462 0.960 . S
C1476 H1463 0.961 . S
C1476 H1464 0.959 . S
C1476 C1474 1.561 . S
C1477 C1474 1.526 . S
C1477 C1478 1.396 . S
C1477 C1482 1.390 . S
C1478 C1472 1.465 . S
C1478 C1477 1.396 . S
C1478 C1479 1.399 . S
C1479 H1465 0.929 . S
C1479 C1478 1.399 . S
C1479 C1480 1.385 . S
C1480 H1466 0.931 . S
C1480 C1479 1.385 . S
C1480 C1481 1.389 . S
C1481 C1480 1.389 . S
C1481 C1482 1.387 . S
C1482 H1467 0.930 . S
C1482 C1477 1.390 . S
C1482 C1481 1.387 . S
H1483 C1495 0.930 . S
H1484 C1497 0.930 . S
H1485 C1498 0.930 . S
H1486 C1502 0.959 . S
H1487 C1502 0.959 . S
H1488 C1502 0.961 . S
H1489 C1503 0.960 . S
H1490 C1503 0.961 . S
H1491 C1503 0.959 . S
H1492 C1506 0.929 . S
H1493 C1507 0.931 . S
H1494 C1509 0.930 . S
C1495 H1483 0.930 . S
C1495 C1496 1.399 . S
C1495 C1500 1.399 . S
C1496 C1495 1.399 . S
C1496 C1497 1.376 . S
C1497 H1484 0.930 . S
C1497 C1496 1.376 . S
C1497 C1498 1.388 . S
C1498 H1485 0.930 . S
C1498 C1497 1.388 . S
C1498 C1499 1.390 . S
C1499 C1498 1.390 . S
C1499 C1500 1.394 . S
C1499 C1505 1.465 . S
C1500 C1495 1.399 . S
C1500 C1499 1.394 . S
C1500 C1501 1.516 . S
C1501 C1500 1.516 . S
C1501 C1502 1.502 . S
C1501 C1503 1.561 . S
C1501 C1504 1.526 . S
C1502 H1486 0.959 . S
C1502 H1487 0.959 . S
C1502 H1488 0.961 . S
C1502 C1501 1.502 . S
C1503 H1489 0.960 . S
C1503 H1490 0.961 . S
C1503 H1491 0.959 . S
C1503 C1501 1.561 . S
C1504 C1501 1.526 . S
C1504 C1505 1.396 . S
C1504 C1509 1.390 . S
C1505 C1499 1.465 . S
C1505 C1504 1.396 . S
C1505 C1506 1.399 . S
C1506 H1492 0.929 . S
C1506 C1505 1.399 . S
C1506 C1507 1.385 . S
C1507 H1493 0.931 . S
C1507 C1506 1.385 . S
C1507 C1508 1.389 . S
C1508 C1507 1.389 . S
C1508 C1509 1.387 . S
C1509 H1494 0.930 . S
C1509 C1504 1.390 . S
C1509 C1508 1.387 . S
H1510 C1522 0.930 . S
H1511 C1524 0.930 . S
H1512 C1525 0.930 . S
H1513 C1529 0.959 . S
H1514 C1529 0.959 . S
H1515 C1529 0.961 . S
H1516 C1530 0.960 . S
H1517 C1530 0.961 . S
H1518 C1530 0.959 . S
H1519 C1533 0.929 . S
H1520 C1534 0.931 . S
H1521 C1536 0.930 . S
C1522 H1510 0.930 . S
C1522 C1523 1.399 . S
C1522 C1527 1.399 . S
C1523 C1522 1.399 . S
C1523 C1524 1.376 . S
C1524 H1511 0.930 . S
C1524 C1523 1.376 . S
C1524 C1525 1.388 . S
C1525 H1512 0.930 . S
C1525 C1524 1.388 . S
C1525 C1526 1.390 . S
C1526 C1525 1.390 . S
C1526 C1527 1.394 . S
C1526 C1532 1.465 . S
C1527 C1522 1.399 . S
C1527 C1526 1.394 . S
C1527 C1528 1.516 . S
C1528 C1527 1.516 . S
C1528 C1529 1.502 . S
C1528 C1530 1.561 . S
C1528 C1531 1.526 . S
C1529 H1513 0.959 . S
C1529 H1514 0.959 . S
C1529 H1515 0.961 . S
C1529 C1528 1.502 . S
C1530 H1516 0.960 . S
C1530 H1517 0.961 . S
C1530 H1518 0.959 . S
C1530 C1528 1.561 . S
C1531 C1528 1.526 . S
C1531 C1532 1.396 . S
C1531 C1536 1.390 . S
C1532 C1526 1.465 . S
C1532 C1531 1.396 . S
C1532 C1533 1.399 . S
C1533 H1519 0.929 . S
C1533 C1532 1.399 . S
C1533 C1534 1.385 . S
C1534 H1520 0.931 . S
C1534 C1533 1.385 . S
C1534 C1535 1.389 . S
C1535 C1534 1.389 . S
C1535 C1536 1.387 . S
C1536 H1521 0.930 . S
C1536 C1531 1.390 . S
C1536 C1535 1.387 . S
H1537 C1549 0.930 . S
H1538 C1551 0.930 . S
H1539 C1552 0.930 . S
H1540 C1556 0.959 . S
H1541 C1556 0.959 . S
H1542 C1556 0.961 . S
H1543 C1557 0.960 . S
H1544 C1557 0.961 . S
H1545 C1557 0.959 . S
H1546 C1560 0.929 . S
H1547 C1561 0.931 . S
H1548 C1563 0.930 . S
C1549 H1537 0.930 . S
C1549 C1550 1.399 . S
C1549 C1554 1.399 . S
C1550 C1549 1.399 . S
C1550 C1551 1.376 . S
C1551 H1538 0.930 . S
C1551 C1550 1.376 . S
C1551 C1552 1.388 . S
C1552 H1539 0.930 . S
C1552 C1551 1.388 . S
C1552 C1553 1.390 . S
C1553 C1552 1.390 . S
C1553 C1554 1.394 . S
C1553 C1559 1.465 . S
C1554 C1549 1.399 . S
C1554 C1553 1.394 . S
C1554 C1555 1.516 . S
C1555 C1554 1.516 . S
C1555 C1556 1.502 . S
C1555 C1557 1.561 . S
C1555 C1558 1.526 . S
C1556 H1540 0.959 . S
C1556 H1541 0.959 . S
C1556 H1542 0.961 . S
C1556 C1555 1.502 . S
C1557 H1543 0.960 . S
C1557 H1544 0.961 . S
C1557 H1545 0.959 . S
C1557 C1555 1.561 . S
C1558 C1555 1.526 . S
C1558 C1559 1.396 . S
C1558 C1563 1.390 . S
C1559 C1553 1.465 . S
C1559 C1558 1.396 . S
C1559 C1560 1.399 . S
C1560 H1546 0.929 . S
C1560 C1559 1.399 . S
C1560 C1561 1.385 . S
C1561 H1547 0.931 . S
C1561 C1560 1.385 . S
C1561 C1562 1.389 . S
C1562 C1561 1.389 . S
C1562 C1563 1.387 . S
C1563 H1548 0.930 . S
C1563 C1558 1.390 . S
C1563 C1562 1.387 . S
H1564 C1576 0.930 . S
H1565 C1578 0.930 . S
H1566 C1579 0.930 . S
H1567 C1583 0.959 . S
H1568 C1583 0.959 . S
H1569 C1583 0.961 . S
H1570 C1584 0.960 . S
H1571 C1584 0.961 . S
H1572 C1584 0.959 . S
H1573 C1587 0.929 . S
H1574 C1588 0.931 . S
H1575 C1590 0.930 . S
C1576 H1564 0.930 . S
C1576 C1577 1.399 1_554 S
C1576 C1581 1.399 . S
C1577 C1576 1.399 1_556 S
C1577 C1578 1.376 . S
C1578 H1565 0.930 . S
C1578 C1577 1.376 . S
C1578 C1579 1.388 . S
C1579 H1566 0.930 . S
C1579 C1578 1.388 . S
C1579 C1580 1.390 . S
C1580 C1579 1.390 . S
C1580 C1581 1.394 1_556 S
C1580 C1586 1.465 . S
C1581 C1576 1.399 . S
C1581 C1580 1.394 1_554 S
C1581 C1582 1.516 . S
C1582 C1581 1.516 . S
C1582 C1583 1.502 . S
C1582 C1584 1.561 . S
C1582 C1585 1.526 . S
C1583 H1567 0.959 . S
C1583 H1568 0.959 . S
C1583 H1569 0.961 . S
C1583 C1582 1.502 . S
C1584 H1570 0.960 . S
C1584 H1571 0.961 . S
C1584 H1572 0.959 . S
C1584 C1582 1.561 . S
C1585 C1582 1.526 . S
C1585 C1586 1.396 1_554 S
C1585 C1590 1.390 . S
C1586 C1580 1.465 . S
C1586 C1585 1.396 1_556 S
C1586 C1587 1.399 . S
C1587 H1573 0.929 . S
C1587 C1586 1.399 . S
C1587 C1588 1.385 . S
C1588 H1574 0.931 . S
C1588 C1587 1.385 . S
C1588 C1589 1.389 1_556 S
C1589 C1588 1.389 1_554 S
C1589 C1590 1.387 . S
C1590 H1575 0.930 . S
C1590 C1585 1.390 . S
C1590 C1589 1.387 . S
H1591 C1603 0.930 . S
H1592 C1605 0.930 . S
H1593 C1606 0.930 . S
H1594 C1610 0.959 . S
H1595 C1610 0.959 . S
H1596 C1610 0.961 . S
H1597 C1611 0.960 . S
H1598 C1611 0.961 . S
H1599 C1611 0.959 . S
H1600 C1614 0.929 . S
H1601 C1615 0.931 . S
H1602 C1617 0.930 . S
C1603 H1591 0.930 . S
C1603 C1604 1.399 . S
C1603 C1608 1.399 . S
C1604 C1603 1.399 . S
C1604 C1605 1.376 . S
C1605 H1592 0.930 . S
C1605 C1604 1.376 . S
C1605 C1606 1.388 . S
C1606 H1593 0.930 . S
C1606 C1605 1.388 . S
C1606 C1607 1.390 . S
C1607 C1606 1.390 . S
C1607 C1608 1.394 . S
C1607 C1613 1.465 . S
C1608 C1603 1.399 . S
C1608 C1607 1.394 . S
C1608 C1609 1.516 . S
C1609 C1608 1.516 . S
C1609 C1610 1.502 . S
C1609 C1611 1.561 . S
C1609 C1612 1.526 . S
C1610 H1594 0.959 . S
C1610 H1595 0.959 . S
C1610 H1596 0.961 . S
C1610 C1609 1.502 . S
C1611 H1597 0.960 . S
C1611 H1598 0.961 . S
C1611 H1599 0.959 . S
C1611 C1609 1.561 . S
C1612 C1609 1.526 . S
C1612 C1613 1.396 . S
C1612 C1617 1.390 . S
C1613 C1607 1.465 . S
C1613 C1612 1.396 . S
C1613 C1614 1.399 . S
C1614 H1600 0.929 . S
C1614 C1613 1.399 . S
C1614 C1615 1.385 . S
C1615 H1601 0.931 . S
C1615 C1614 1.385 . S
C1615 C1616 1.389 . S
C1616 C1615 1.389 . S
C1616 C1617 1.387 . S
C1617 H1602 0.930 . S
C1617 C1612 1.390 . S
C1617 C1616 1.387 . S
H1618 C1630 0.930 . S
H1619 C1632 0.930 . S
H1620 C1633 0.930 . S
H1621 C1637 0.959 . S
H1622 C1637 0.959 . S
H1623 C1637 0.961 . S
H1624 C1638 0.960 . S
H1625 C1638 0.961 . S
H1626 C1638 0.959 . S
H1627 C1641 0.929 . S
H1628 C1642 0.931 . S
H1629 C1644 0.930 . S
C1630 H1618 0.930 . S
C1630 C1631 1.399 . S
C1630 C1635 1.399 . S
C1631 C1630 1.399 . S
C1631 C1632 1.376 . S
C1632 H1619 0.930 . S
C1632 C1631 1.376 . S
C1632 C1633 1.388 . S
C1633 H1620 0.930 . S
C1633 C1632 1.388 . S
C1633 C1634 1.390 . S
C1634 C1633 1.390 . S
C1634 C1635 1.394 . S
C1634 C1640 1.465 . S
C1635 C1630 1.399 . S
C1635 C1634 1.394 . S
C1635 C1636 1.516 . S
C1636 C1635 1.516 . S
C1636 C1637 1.502 . S
C1636 C1638 1.561 . S
C1636 C1639 1.526 . S
C1637 H1621 0.959 . S
C1637 H1622 0.959 . S
C1637 H1623 0.961 . S
C1637 C1636 1.502 . S
C1638 H1624 0.960 . S
C1638 H1625 0.961 . S
C1638 H1626 0.959 . S
C1638 C1636 1.561 . S
C1639 C1636 1.526 . S
C1639 C1640 1.396 . S
C1639 C1644 1.390 . S
C1640 C1634 1.465 . S
C1640 C1639 1.396 . S
C1640 C1641 1.399 . S
C1641 H1627 0.929 . S
C1641 C1640 1.399 . S
C1641 C1642 1.385 . S
C1642 H1628 0.931 . S
C1642 C1641 1.385 . S
C1642 C1643 1.389 . S
C1643 C1642 1.389 . S
C1643 C1644 1.387 . S
C1644 H1629 0.930 . S
C1644 C1639 1.390 . S
C1644 C1643 1.387 . S
H1645 C1657 0.930 . S
H1646 C1659 0.897 1_545 S
H1647 C1660 0.930 . S
H1648 C1664 0.959 1_554 S
H1649 C1664 0.959 . S
H1650 C1664 0.961 . S
H1651 C1665 0.960 . S
H1652 C1665 0.961 . S
H1653 C1665 0.959 . S
H1654 C1668 0.929 . S
H1655 C1669 0.931 . S
H1656 C1671 0.930 . S
C1657 H1645 0.930 . S
C1657 C1658 1.399 . S
C1657 C1662 1.399 . S
C1658 C1657 1.399 . S
C1658 C1659 1.388 . S
C1659 H1646 0.897 1_565 S
C1659 C1658 1.388 . S
C1659 C1660 1.411 . S
C1660 H1647 0.930 . S
C1660 C1659 1.411 . S
C1660 C1661 1.390 . S
C1661 C1660 1.390 . S
C1661 C1662 1.394 . S
C1661 C1667 1.465 . S
C1662 C1657 1.399 . S
C1662 C1661 1.394 . S
C1662 C1663 1.516 1_554 S
C1663 C1662 1.516 1_556 S
C1663 C1664 1.502 . S
C1663 C1665 1.561 . S
C1663 C1666 1.526 1_556 S
C1664 H1648 0.959 1_556 S
C1664 H1649 0.959 . S
C1664 H1650 0.961 . S
C1664 C1663 1.502 . S
C1665 H1651 0.960 . S
C1665 H1652 0.961 . S
C1665 H1653 0.959 . S
C1665 C1663 1.561 . S
C1666 C1663 1.526 1_554 S
C1666 C1667 1.396 . S
C1666 C1671 1.390 1_554 S
C1667 C1661 1.465 . S
C1667 C1666 1.396 . S
C1667 C1668 1.399 . S
C1668 H1654 0.929 . S
C1668 C1667 1.399 . S
C1668 C1669 1.385 . S
C1669 H1655 0.931 . S
C1669 C1668 1.385 . S
C1669 C1670 1.389 . S
C1670 C1669 1.389 . S
C1670 C1671 1.387 1_554 S
C1671 H1656 0.930 . S
C1671 C1666 1.390 1_556 S
C1671 C1670 1.387 1_556 S
C401 C216 1.712 . S
C389 C73 1.729 . S
C428 C229 1.287 . S
C416 C82 1.277 . S
C443 C100 1.911 . S
C455 C249 1.843 . S
C482 C263 1.213 . S
C470 C56 1.231 . S
C509 C275 1.412 . S
C497 C134 1.409 . S
C536 C289 1.666 . S
C524 C165 1.635 . S
C551 C147 1.154 . S
C563 C299 1.200 . S
C590 C314 1.846 . S
C578 C125 1.856 . S
C605 C151 1.390 . S
C617 C328 1.365 . S
C644 C347 1.414 . S
C632 C121 1.418 . S
C659 C139 1.740 . S
C671 C327 1.749 . S
C698 C345 1.244 . S
C686 C164 1.255 . S
C713 C95 1.383 . S
C725 C361 1.375 . S
C740 C61 1.449 . S
C752 C355 1.458 . S
C767 C74 1.468 . S
C779 C359 1.456 . S
C794 C86 1.779 . S
C806 C356 1.761 . S
C821 C47 1.413 . S
C833 C258 1.417 . S
C848 C186 1.225 . S
C860 C257 1.319 . S
C887 C221 1.361 . S
C875 C204 1.428 . S
C914 C235 1.787 . S
C902 C112 1.925 . S
C929 C60 1.387 . S
C941 C272 1.395 . S
C968 C317 1.451 . S
C956 C152 1.467 . S
C995 C271 1.874 . S
C983 C126 1.872 . S
C1022 C303 1.214 . S
C1010 C160 1.213 . S
C1049 C300 1.669 . S
C1037 C190 1.733 . S
C1064 C199 1.274 . S
C1076 C313 1.286 . S
C1091 C113 1.923 . S
C1103 C277 1.772 . S
C1130 C291 1.261 . S
C1118 C173 1.281 . S
C1145 C43 1.418 . S
C1157 C247 1.415 . S
C1184 C261 1.666 . S
C1172 C9 1.635 1_655 S
C1211 C215 1.226 . S
C1199 C17 1.130 . S
C1238 C230 1.836 . S
C1226 C34 1.839 1_455 S
C1253 C21 1.389 . S
C1265 C342 1.361 . S
C1280 C30 1.337 . S
C1292 C333 1.329 . S
C1307 C48 1.757 . S
C1319 C341 1.757 . S
C1334 C8 1.268 . S
C1346 C331 1.275 . S
C1373 C375 1.352 . S
C1361 C108 1.456 . S
C1400 C369 1.479 . S
C1388 C178 1.465 1_554 S
C1427 C373 1.447 . S
C1415 C191 1.463 . S
C1442 C203 1.776 1_554 S
C1454 C370 1.767 . S
C1469 C138 1.414 . S
C1481 C286 1.409 . S
C1508 C285 1.331 . S
C1496 C69 1.217 . S
C1535 C305 1.281 . S
C1523 C87 1.424 . S
C1562 C319 1.851 . S
C1550 C99 1.916 . S
C1577 C177 1.406 . S
C1589 C244 1.320 . S
C1616 C233 1.458 . S
C1604 C22 1.435 . S
C1631 C35 1.878 . S
C1643 C243 1.841 . S
C1670 C219 1.231 . S
C1658 C4 1.247 . S
