# Generated by pormake.
# Topology eea, (3,6)-cn, num edge types: 1
# Building blocks:
#     Node 0, Type 0, BuildingBlock: CUQRIR_clean_linker_1, # of connection points: 3
#     Node 1, Type 0, BuildingBlock: CUQRIR_clean_linker_1, # of connection points: 3
#     Node 2, Type 0, BuildingBlock: CUQRIR_clean_linker_1, # of connection points: 3
#     Node 3, Type 0, BuildingBlock: CUQRIR_clean_linker_1, # of connection points: 3
#     Node 4, Type 0, BuildingBlock: CUQRIR_clean_linker_1, # of connection points: 3
#     Node 5, Type 0, BuildingBlock: CUQRIR_clean_linker_1, # of connection points: 3
#     Node 6, Type 0, BuildingBlock: CUQRIR_clean_linker_1, # of connection points: 3
#     Node 7, Type 0, BuildingBlock: CUQRIR_clean_linker_1, # of connection points: 3
#     Node 8, Type 0, BuildingBlock: CUQRIR_clean_linker_1, # of connection points: 3
#     Node 9, Type 0, BuildingBlock: CUQRIR_clean_linker_1, # of connection points: 3
#     Node 10, Type 0, BuildingBlock: CUQRIR_clean_linker_1, # of connection points: 3
#     Node 11, Type 0, BuildingBlock: CUQRIR_clean_linker_1, # of connection points: 3
#     Node 12, Type 0, BuildingBlock: CUQRIR_clean_linker_1, # of connection points: 3
#     Node 13, Type 0, BuildingBlock: CUQRIR_clean_linker_1, # of connection points: 3
#     Node 14, Type 0, BuildingBlock: CUQRIR_clean_linker_1, # of connection points: 3
#     Node 15, Type 0, BuildingBlock: CUQRIR_clean_linker_1, # of connection points: 3
#     Node 16, Type 0, BuildingBlock: CUQRIR_clean_linker_1, # of connection points: 3
#     Node 17, Type 0, BuildingBlock: CUQRIR_clean_linker_1, # of connection points: 3
#     Node 18, Type 1, BuildingBlock: CUKXOW_clean_sbu_0, # of connection points: 6
#     Node 19, Type 1, BuildingBlock: CUKXOW_clean_sbu_0, # of connection points: 6
#     Node 20, Type 1, BuildingBlock: CUKXOW_clean_sbu_0, # of connection points: 6
#     Node 21, Type 1, BuildingBlock: CUKXOW_clean_sbu_0, # of connection points: 6
#     Node 22, Type 1, BuildingBlock: CUKXOW_clean_sbu_0, # of connection points: 6
#     Node 23, Type 1, BuildingBlock: CUKXOW_clean_sbu_0, # of connection points: 6
#     Node 24, Type 1, BuildingBlock: CUKXOW_clean_sbu_0, # of connection points: 6
#     Node 25, Type 1, BuildingBlock: CUKXOW_clean_sbu_0, # of connection points: 6
#     Node 26, Type 1, BuildingBlock: CUKXOW_clean_sbu_0, # of connection points: 6
#     Edge 27, Type (0, 1), BuildingBlock: KIFKEQ_clean_linker_1, # of connection points: 2
#     Edge 28, Type (0, 1), BuildingBlock: KIFKEQ_clean_linker_1, # of connection points: 2
#     Edge 29, Type (0, 1), BuildingBlock: KIFKEQ_clean_linker_1, # of connection points: 2
#     Edge 30, Type (0, 1), BuildingBlock: KIFKEQ_clean_linker_1, # of connection points: 2
#     Edge 31, Type (0, 1), BuildingBlock: KIFKEQ_clean_linker_1, # of connection points: 2
#     Edge 32, Type (0, 1), BuildingBlock: KIFKEQ_clean_linker_1, # of connection points: 2
#     Edge 33, Type (0, 1), BuildingBlock: KIFKEQ_clean_linker_1, # of connection points: 2
#     Edge 34, Type (0, 1), BuildingBlock: KIFKEQ_clean_linker_1, # of connection points: 2
#     Edge 35, Type (0, 1), BuildingBlock: KIFKEQ_clean_linker_1, # of connection points: 2
#     Edge 36, Type (0, 1), BuildingBlock: KIFKEQ_clean_linker_1, # of connection points: 2
#     Edge 37, Type (0, 1), BuildingBlock: KIFKEQ_clean_linker_1, # of connection points: 2
#     Edge 38, Type (0, 1), BuildingBlock: KIFKEQ_clean_linker_1, # of connection points: 2
#     Edge 39, Type (0, 1), BuildingBlock: KIFKEQ_clean_linker_1, # of connection points: 2
#     Edge 40, Type (0, 1), BuildingBlock: KIFKEQ_clean_linker_1, # of connection points: 2
#     Edge 41, Type (0, 1), BuildingBlock: KIFKEQ_clean_linker_1, # of connection points: 2
#     Edge 42, Type (0, 1), BuildingBlock: KIFKEQ_clean_linker_1, # of connection points: 2
#     Edge 43, Type (0, 1), BuildingBlock: KIFKEQ_clean_linker_1, # of connection points: 2
#     Edge 44, Type (0, 1), BuildingBlock: KIFKEQ_clean_linker_1, # of connection points: 2
#     Edge 45, Type (0, 1), BuildingBlock: KIFKEQ_clean_linker_1, # of connection points: 2
#     Edge 46, Type (0, 1), BuildingBlock: KIFKEQ_clean_linker_1, # of connection points: 2
#     Edge 47, Type (0, 1), BuildingBlock: KIFKEQ_clean_linker_1, # of connection points: 2
#     Edge 48, Type (0, 1), BuildingBlock: KIFKEQ_clean_linker_1, # of connection points: 2
#     Edge 49, Type (0, 1), BuildingBlock: KIFKEQ_clean_linker_1, # of connection points: 2
#     Edge 50, Type (0, 1), BuildingBlock: KIFKEQ_clean_linker_1, # of connection points: 2
#     Edge 51, Type (0, 1), BuildingBlock: KIFKEQ_clean_linker_1, # of connection points: 2
#     Edge 52, Type (0, 1), BuildingBlock: KIFKEQ_clean_linker_1, # of connection points: 2
#     Edge 53, Type (0, 1), BuildingBlock: KIFKEQ_clean_linker_1, # of connection points: 2
#     Edge 54, Type (0, 1), BuildingBlock: KIFKEQ_clean_linker_1, # of connection points: 2
#     Edge 55, Type (0, 1), BuildingBlock: KIFKEQ_clean_linker_1, # of connection points: 2
#     Edge 56, Type (0, 1), BuildingBlock: KIFKEQ_clean_linker_1, # of connection points: 2
#     Edge 57, Type (0, 1), BuildingBlock: KIFKEQ_clean_linker_1, # of connection points: 2
#     Edge 58, Type (0, 1), BuildingBlock: KIFKEQ_clean_linker_1, # of connection points: 2
#     Edge 59, Type (0, 1), BuildingBlock: KIFKEQ_clean_linker_1, # of connection points: 2
#     Edge 60, Type (0, 1), BuildingBlock: KIFKEQ_clean_linker_1, # of connection points: 2
#     Edge 61, Type (0, 1), BuildingBlock: KIFKEQ_clean_linker_1, # of connection points: 2
#     Edge 62, Type (0, 1), BuildingBlock: KIFKEQ_clean_linker_1, # of connection points: 2
#     Edge 63, Type (0, 1), BuildingBlock: KIFKEQ_clean_linker_1, # of connection points: 2
#     Edge 64, Type (0, 1), BuildingBlock: KIFKEQ_clean_linker_1, # of connection points: 2
#     Edge 65, Type (0, 1), BuildingBlock: KIFKEQ_clean_linker_1, # of connection points: 2
#     Edge 66, Type (0, 1), BuildingBlock: KIFKEQ_clean_linker_1, # of connection points: 2
#     Edge 67, Type (0, 1), BuildingBlock: KIFKEQ_clean_linker_1, # of connection points: 2
#     Edge 68, Type (0, 1), BuildingBlock: KIFKEQ_clean_linker_1, # of connection points: 2
#     Edge 69, Type (0, 1), BuildingBlock: KIFKEQ_clean_linker_1, # of connection points: 2
#     Edge 70, Type (0, 1), BuildingBlock: KIFKEQ_clean_linker_1, # of connection points: 2
#     Edge 71, Type (0, 1), BuildingBlock: KIFKEQ_clean_linker_1, # of connection points: 2
#     Edge 72, Type (0, 1), BuildingBlock: KIFKEQ_clean_linker_1, # of connection points: 2
#     Edge 73, Type (0, 1), BuildingBlock: KIFKEQ_clean_linker_1, # of connection points: 2
#     Edge 74, Type (0, 1), BuildingBlock: KIFKEQ_clean_linker_1, # of connection points: 2
#     Edge 75, Type (0, 1), BuildingBlock: KIFKEQ_clean_linker_1, # of connection points: 2
#     Edge 76, Type (0, 1), BuildingBlock: KIFKEQ_clean_linker_1, # of connection points: 2
#     Edge 77, Type (0, 1), BuildingBlock: KIFKEQ_clean_linker_1, # of connection points: 2
#     Edge 78, Type (0, 1), BuildingBlock: KIFKEQ_clean_linker_1, # of connection points: 2
#     Edge 79, Type (0, 1), BuildingBlock: KIFKEQ_clean_linker_1, # of connection points: 2
#     Edge 80, Type (0, 1), BuildingBlock: KIFKEQ_clean_linker_1, # of connection points: 2
# Relax obj value: 0.068
# Max RMSD: 0.209
# Mean RMSD: 0.143
data_MOF--net-eea--node1-CUKXOW_clean_sbu_0--node2-CUQRIR_clean_linker_1--edge1-KIFKEQ_clean_linker_1
_symmetry_space_group_name_H-M    P1
_symmetry_Int_Tables_number       1
_symmetry_cell_setting            triclinic
loop_
_symmetry_equiv_pos_as_xyz
'x, y, z'
_cell_length_a     55.114147
_cell_length_b     52.278379
_cell_length_c     48.158105
_cell_angle_alpha  87.212929
_cell_angle_beta   93.289242
_cell_angle_gamma 119.297
loop_
_atom_site_label
_atom_site_type_symbol
_atom_site_fract_x
_atom_site_fract_y
_atom_site_fract_z
_atom_type_partial_charge
C0 C 0.22 0.12873 0.42572 0.0
N1 N 0.22947 0.15163 0.44318 0.0
N2 N 0.22203 0.10602 0.4383 0.0
C3 C 0.20898 0.12855 0.39638 0.0
C4 C 0.2327 0.11574 0.46409 0.0
N5 N 0.23694 0.14325 0.46717 0.0
C6 C 0.2399 0.09884 0.48613 0.0
H7 H 0.19752 0.14111 0.39466 0.0
H8 H 0.19502 0.10593 0.38926 0.0
H9 H 0.22673 0.13907 0.38234 0.0
H10 H 0.23336 0.0762 0.47983 0.0
H11 H 0.22959 0.0976 0.50563 0.0
H12 H 0.26272 0.11067 0.49067 0.0
C13 C 0.8988 0.13829 0.44019 0.0
N14 N 0.91217 0.16016 0.45876 0.0
N15 N 0.87504 0.11634 0.45067 0.0
C16 C 0.90987 0.13724 0.41267 0.0
C17 C 0.87448 0.12543 0.47632 0.0
N18 N 0.8971 0.15187 0.4814 0.0
C19 C 0.8511 0.10904 0.49597 0.0
H20 H 0.90342 0.14892 0.39663 0.0
H21 H 0.90149 0.11428 0.40615 0.0
H22 H 0.93295 0.14817 0.41381 0.0
H23 H 0.85622 0.09479 0.51007 0.0
H24 H 0.83121 0.095 0.48445 0.0
H25 H 0.8483 0.12429 0.50895 0.0
C26 C 0.92142 0.82814 0.45878 0.0
N27 N 0.92981 0.81189 0.47515 0.0
N28 N 0.8956 0.82223 0.46521 0.0
C29 C 0.93667 0.84625 0.43386 0.0
C30 C 0.88861 0.80184 0.48597 0.0
N31 N 0.90916 0.79519 0.49171 0.0
C32 C 0.86088 0.78717 0.49949 0.0
H33 H 0.92437 0.8545 0.42124 0.0
H34 H 0.9419 0.83297 0.42061 0.0
H35 H 0.95653 0.86527 0.44101 0.0
H36 H 0.84666 0.76661 0.48853 0.0
H37 H 0.85136 0.80164 0.49821 0.0
H38 H 0.86327 0.78146 0.5216 0.0
C39 C 0.09861 0.20446 0.60114 0.0
N40 N 0.11957 0.21959 0.58354 0.0
N41 N 0.07678 0.20883 0.59417 0.0
C42 C 0.10139 0.18983 0.62793 0.0
C43 C 0.08519 0.22706 0.57167 0.0
N44 N 0.11135 0.23407 0.56547 0.0
C45 C 0.06833 0.23968 0.55718 0.0
H46 H 0.10721 0.17296 0.62345 0.0
H47 H 0.08176 0.17917 0.63931 0.0
H48 H 0.1183 0.20638 0.64137 0.0
H49 H 0.07257 0.25994 0.56771 0.0
H50 H 0.04576 0.22385 0.55841 0.0
H51 H 0.07384 0.24519 0.53506 0.0
C52 C 0.7981 0.91159 0.62734 0.0
N53 N 0.79029 0.89071 0.60781 0.0
N54 N 0.79644 0.93521 0.61666 0.0
C55 C 0.80961 0.91011 0.65609 0.0
C56 C 0.78746 0.92807 0.58996 0.0
N57 N 0.78409 0.90131 0.58441 0.0
C58 C 0.7801 0.94641 0.5698 0.0
H59 H 0.79211 0.89866 0.67034 0.0
H60 H 0.82368 0.9324 0.66403 0.0
H61 H 0.8212 0.89772 0.65622 0.0
H62 H 0.79822 0.96017 0.55681 0.0
H63 H 0.7748 0.96102 0.5809 0.0
H64 H 0.7622 0.93231 0.55581 0.0
C65 C 0.12872 0.93326 0.62362 0.0
N66 N 0.11704 0.90864 0.60822 0.0
N67 N 0.15625 0.94971 0.61898 0.0
C68 C 0.11383 0.94036 0.6446 0.0
C69 C 0.16099 0.9343 0.60032 0.0
N70 N 0.13729 0.90922 0.59398 0.0
C71 C 0.18839 0.94472 0.5869 0.0
H72 H 0.10289 0.95122 0.63371 0.0
H73 H 0.12869 0.95546 0.66045 0.0
H74 H 0.09814 0.92005 0.65512 0.0
H75 H 0.20171 0.96885 0.58823 0.0
H76 H 0.18506 0.93855 0.56473 0.0
H77 H 0.19951 0.93405 0.5978 0.0
C78 C 0.89103 0.46246 0.75939 0.0
N79 N 0.90091 0.4859 0.7763 0.0
N80 N 0.89469 0.44062 0.77181 0.0
C81 C 0.87845 0.46114 0.73059 0.0
C82 C 0.90679 0.45148 0.79691 0.0
N83 N 0.91035 0.47874 0.79976 0.0
C84 C 0.91607 0.4358 0.81836 0.0
H85 H 0.86465 0.43824 0.72415 0.0
H86 H 0.89542 0.47172 0.71566 0.0
H87 H 0.86643 0.47312 0.72944 0.0
H88 H 0.93833 0.44285 0.81553 0.0
H89 H 0.90376 0.41167 0.81611 0.0
H90 H 0.91406 0.4414 0.83971 0.0
C91 C 0.56909 0.46892 0.77547 0.0
N92 N 0.58123 0.49129 0.79364 0.0
N93 N 0.54135 0.45292 0.7791 0.0
C94 C 0.58395 0.46358 0.75311 0.0
C95 C 0.53693 0.46626 0.80004 0.0
N96 N 0.56102 0.48981 0.8087 0.0
C97 C 0.50936 0.45502 0.81342 0.0
H98 H 0.56917 0.45013 0.73632 0.0
H99 H 0.59458 0.45167 0.76241 0.0
H100 H 0.59996 0.48468 0.74403 0.0
H101 H 0.51232 0.45701 0.83636 0.0
H102 H 0.49484 0.43178 0.80843 0.0
H103 H 0.49979 0.46853 0.80573 0.0
C104 C 0.57049 0.12285 0.7632 0.0
N105 N 0.58082 0.11399 0.78547 0.0
N106 N 0.5497 0.12727 0.77078 0.0
C107 C 0.58172 0.12878 0.73447 0.0
C108 C 0.54768 0.12096 0.79833 0.0
N109 N 0.56704 0.11338 0.80745 0.0
C110 C 0.52548 0.12021 0.81575 0.0
H111 H 0.57355 0.141 0.72115 0.0
H112 H 0.5756 0.10758 0.7247 0.0
H113 H 0.60481 0.14148 0.73568 0.0
H114 H 0.50782 0.11918 0.80264 0.0
H115 H 0.53461 0.14041 0.82812 0.0
H116 H 0.51752 0.10101 0.83038 0.0
C117 C 0.779 0.56427 0.94775 0.0
N118 N 0.79875 0.57742 0.92872 0.0
N119 N 0.75629 0.56672 0.93988 0.0
C120 C 0.78221 0.54954 0.97423 0.0
C121 C 0.76297 0.58189 0.91535 0.0
N122 N 0.78878 0.5882 0.90846 0.0
C123 C 0.74578 0.59373 0.90001 0.0
H124 H 0.76163 0.53363 0.98245 0.0
H125 H 0.79411 0.56649 0.99 0.0
H126 H 0.79411 0.53804 0.97066 0.0
H127 H 0.73373 0.59849 0.91461 0.0
H128 H 0.73088 0.57703 0.88528 0.0
H129 H 0.75903 0.61412 0.88802 0.0
C130 C 0.46805 0.2469 0.95975 0.0
N131 N 0.45944 0.22574 0.94044 0.0
N132 N 0.46683 0.2707 0.949 0.0
C133 C 0.47976 0.24536 0.9884 0.0
C134 C 0.45731 0.26339 0.92244 0.0
N135 N 0.4532 0.2363 0.91705 0.0
C136 C 0.44992 0.2818 0.9024 0.0
H137 H 0.4624 0.23426 1.00286 0.0
H138 H 0.49424 0.26762 0.99617 0.0
H139 H 0.49097 0.23258 0.9884 0.0
H140 H 0.46786 0.29523 0.88909 0.0
H141 H 0.4451 0.29673 0.91359 0.0
H142 H 0.4317 0.26777 0.88871 0.0
C143 C 0.79853 0.26734 0.95857 0.0
N144 N 0.78578 0.24284 0.94302 0.0
N145 N 0.82518 0.28488 0.95091 0.0
C146 C 0.78584 0.27295 0.98279 0.0
C147 C 0.82812 0.27012 0.93018 0.0
N148 N 0.80438 0.24455 0.92561 0.0
C149 C 0.85365 0.28138 0.91321 0.0
H150 H 0.77464 0.28485 0.97515 0.0
H151 H 0.80212 0.28659 0.99845 0.0
H152 H 0.77071 0.25202 0.99289 0.0
H153 H 0.86741 0.27319 0.9228 0.0
H154 H 0.86532 0.30571 0.91252 0.0
H155 H 0.848 0.27335 0.89162 0.0
C156 C 0.55171 0.7927 0.09274 0.0
N157 N 0.56225 0.81599 0.10985 0.0
N158 N 0.55353 0.76987 0.10531 0.0
C159 C 0.54007 0.79237 0.06365 0.0
C160 C 0.56523 0.77996 0.13074 0.0
N161 N 0.57024 0.80778 0.13364 0.0
C162 C 0.57296 0.76314 0.15238 0.0
H163 H 0.5255 0.76975 0.05692 0.0
H164 H 0.55746 0.80225 0.04914 0.0
H165 H 0.52912 0.80545 0.06216 0.0
H166 H 0.59592 0.7726 0.15339 0.0
H167 H 0.56309 0.73952 0.1476 0.0
H168 H 0.56655 0.76525 0.17316 0.0
C169 C 0.2356 0.80664 0.10772 0.0
N170 N 0.24874 0.8275 0.1273 0.0
N171 N 0.21181 0.78401 0.11742 0.0
C172 C 0.24703 0.8072 0.07992 0.0
C173 C 0.21094 0.79167 0.14362 0.0
N174 N 0.23349 0.81785 0.14984 0.0
C175 C 0.18705 0.77445 0.16253 0.0
H176 H 0.24064 0.81959 0.06466 0.0
H177 H 0.23886 0.78468 0.07224 0.0
H178 H 0.27011 0.81825 0.08125 0.0
H179 H 0.19215 0.76029 0.1768 0.0
H180 H 0.16756 0.76031 0.15048 0.0
H181 H 0.18351 0.78933 0.17532 0.0
C182 C 0.2244 0.42856 0.09036 0.0
N183 N 0.23331 0.41484 0.10939 0.0
N184 N 0.19899 0.42401 0.09653 0.0
C185 C 0.24078 0.44686 0.06609 0.0
C186 C 0.1928 0.40721 0.12009 0.0
N187 N 0.21358 0.40124 0.12777 0.0
C188 C 0.16818 0.3999 0.13742 0.0
H189 H 0.22689 0.44854 0.04935 0.0
H190 H 0.25292 0.43746 0.05759 0.0
H191 H 0.2557 0.46924 0.07333 0.0
H192 H 0.151 0.37781 0.13194 0.0
H193 H 0.16062 0.41594 0.13354 0.0
H194 H 0.17361 0.39968 0.15994 0.0
C195 C 0.43438 0.8796 0.2713 0.0
N196 N 0.45582 0.89334 0.25399 0.0
N197 N 0.41335 0.88484 0.26291 0.0
C198 C 0.43589 0.8651 0.29866 0.0
C199 C 0.42277 0.90222 0.23996 0.0
N200 N 0.44874 0.90781 0.23478 0.0
C201 C 0.40691 0.91484 0.22345 0.0
H202 H 0.43697 0.84497 0.29464 0.0
H203 H 0.41763 0.85898 0.31139 0.0
H204 H 0.45517 0.88001 0.31064 0.0
H205 H 0.38415 0.90007 0.22492 0.0
H206 H 0.41255 0.91826 0.20129 0.0
H207 H 0.41214 0.93634 0.232 0.0
C208 C 0.12702 0.57796 0.29672 0.0
N209 N 0.11962 0.55716 0.27724 0.0
N210 N 0.1255 0.60155 0.28578 0.0
C211 C 0.13805 0.57644 0.32571 0.0
C212 C 0.11706 0.59448 0.25896 0.0
N213 N 0.11386 0.56777 0.25361 0.0
C214 C 0.11016 0.61289 0.23843 0.0
H215 H 0.15183 0.59871 0.33385 0.0
H216 H 0.14982 0.56423 0.32616 0.0
H217 H 0.12028 0.56476 0.33962 0.0
H218 H 0.12858 0.62663 0.2258 0.0
H219 H 0.10465 0.62751 0.24921 0.0
H220 H 0.09255 0.59883 0.22412 0.0
C221 C 0.4634 0.59896 0.29261 0.0
N222 N 0.45093 0.57434 0.27722 0.0
N223 N 0.49079 0.61497 0.28721 0.0
C224 C 0.44943 0.60658 0.31416 0.0
C225 C 0.49462 0.59929 0.26812 0.0
N226 N 0.47052 0.57448 0.26225 0.0
C227 C 0.52153 0.60898 0.254 0.0
H228 H 0.43869 0.61788 0.30376 0.0
H229 H 0.46487 0.6215 0.32977 0.0
H230 H 0.43371 0.58648 0.32492 0.0
H231 H 0.53209 0.59731 0.26403 0.0
H232 H 0.53563 0.63295 0.2557 0.0
H233 H 0.51753 0.60324 0.2317 0.0
Tb234 Tb 0.54895 0.04896 0.02391 0.0
C235 C 0.53297 0.98595 0.0489 0.0
Tb236 Tb 0.4867 1.00618 0.03773 0.0
O237 O 0.56201 0.05287 0.06761 0.0
O238 O 0.52152 0.04319 0.0556 0.0
O239 O 0.55159 1.00912 0.03449 0.0
C240 C 0.43789 0.97065 0.06159 0.0
O241 O 0.50781 0.98197 0.05407 0.0
C242 C 0.50039 1.00954 0.98566 0.0
C243 C 0.50169 0.06755 0.01074 0.0
O244 O 0.44527 0.96689 0.03765 0.0
O245 O 0.45806 0.99447 0.07214 0.0
O246 O 0.47575 1.00352 0.99291 0.0
O247 O 0.51483 1.01121 1.00726 0.0
O248 O 0.48405 0.04573 0.02695 0.0
O249 O 0.52639 0.07081 1.00478 0.0
C250 C 0.5972 0.08732 1.00128 0.0
O251 O 0.58513 0.09278 0.02071 0.0
O252 O 0.58209 0.05997 0.9945 0.0
C253 C 0.53738 0.04488 0.07631 0.0
Tb254 Tb 1.00058 0.55152 0.02247 0.0
C255 C 0.06372 0.59458 0.03479 0.0
Tb256 Tb 0.0405 0.52679 0.02365 0.0
O257 O 0.00845 0.56111 0.06695 0.0
O258 O 0.01209 0.52694 0.0511 0.0
O259 O 0.03988 0.59254 0.02481 0.0
C260 C 0.07682 0.50858 0.03785 0.0
O261 O 0.06729 0.57128 0.03855 0.0
C262 C 0.0239 0.53479 0.97344 0.0
C263 C 0.97754 0.4836 0.01194 0.0
O264 O 0.07981 0.52739 0.01792 0.0
O265 O 0.0535 0.50013 0.04976 0.0
O266 O 0.03279 0.51627 0.97955 0.0
O267 O 0.02807 0.55035 0.99436 0.0
O268 O 1.00127 0.48582 0.0224 0.0
O269 O 0.9742 0.50694 1.00698 0.0
C270 C 0.96244 0.56724 1.00744 0.0
O271 O 0.95823 0.54459 0.02299 0.0
O272 O 0.98837 0.58156 1.00096 0.0
C273 C 0.01639 0.5417 0.07248 0.0
Tb274 Tb 0.47507 0.50168 0.03773 0.0
C275 C 0.50031 0.46071 0.0278 0.0
Tb276 Tb 0.53866 0.52857 0.04035 0.0
O277 O 0.47135 0.49217 0.99321 0.0
O278 O 0.50807 0.52568 0.01036 0.0
O279 O 0.47826 0.46192 0.03574 0.0
C280 C 0.59163 0.54706 0.03093 0.0
O281 O 0.52511 0.48445 0.02556 0.0
C282 C 0.51659 0.52121 0.08869 0.0
C283 C 0.51365 0.57051 0.04562 0.0
O284 O 0.5767 0.52587 0.04805 0.0
O285 O 0.57684 0.55808 0.01939 0.0
O286 O 0.54238 0.53983 0.08402 0.0
O287 O 0.50585 0.50502 0.06787 0.0
O288 O 0.53548 0.5685 0.03811 0.0
O289 O 0.48878 0.54706 0.04932 0.0
C290 C 0.4229 0.47707 0.05378 0.0
O291 O 0.43291 0.4961 0.03332 0.0
O292 O 0.44212 0.472 0.06488 0.0
C293 C 0.49739 0.51058 0.9889 0.0
Tb294 Tb 0.21377 0.38413 0.35962 0.0
C295 C 0.1987 0.32115 0.38486 0.0
Tb296 Tb 0.1511 0.33877 0.37115 0.0
O297 O 0.22527 0.38844 0.40372 0.0
O298 O 0.18458 0.37633 0.39 0.0
O299 O 0.21738 0.34491 0.37113 0.0
C300 C 0.10218 0.30269 0.39442 0.0
O301 O 0.17297 0.31603 0.38903 0.0
C302 C 0.167 0.34247 0.32009 0.0
C303 C 0.16486 0.40012 0.3445 0.0
O304 O 0.12141 0.32737 0.40442 0.0
O305 O 0.11055 0.29832 0.37133 0.0
O306 O 0.14121 0.33285 0.32603 0.0
O307 O 0.18121 0.34604 0.34222 0.0
O308 O 0.14666 0.37697 0.359 0.0
O309 O 0.19061 0.4053 0.34043 0.0
C310 C 0.26215 0.42198 0.33698 0.0
O311 O 0.24996 0.42796 0.35593 0.0
O312 O 0.24712 0.39447 0.33078 0.0
C313 C 0.19994 0.37873 0.4114 0.0
Tb314 Tb 0.66307 0.88262 0.35694 0.0
C315 C 0.72589 0.92727 0.36852 0.0
Tb316 Tb 0.70482 0.86025 0.35529 0.0
O317 O 0.67231 0.89209 0.40135 0.0
O318 O 0.67687 0.85895 0.38423 0.0
O319 O 0.70147 0.92455 0.35974 0.0
C320 C 0.74453 0.8467 0.36842 0.0
O321 O 0.73041 0.90455 0.3709 0.0
C322 C 0.68613 0.86782 0.30618 0.0
C323 C 0.64202 0.81482 0.34591 0.0
O324 O 0.74637 0.86637 0.34991 0.0
O325 O 0.72024 0.83438 0.37923 0.0
O326 O 0.69678 0.85064 0.31103 0.0
O327 O 0.69017 0.88284 0.3275 0.0
O328 O 0.66689 0.8182 0.3537 0.0
O329 O 0.63692 0.83723 0.34327 0.0
C330 C 0.62427 0.89769 0.34275 0.0
O331 O 0.62138 0.87696 0.36048 0.0
O332 O 0.64928 0.91041 0.33357 0.0
C333 C 0.68136 0.87343 0.4059 0.0
Tb334 Tb 0.14181 0.83846 0.3703 0.0
C335 C 0.16302 0.7943 0.36113 0.0
Tb336 Tb 0.20428 0.86215 0.37159 0.0
O337 O 0.1379 0.82799 0.32596 0.0
O338 O 0.17429 0.86212 0.3425 0.0
O339 O 0.14205 0.797 0.36989 0.0
C340 C 0.25554 0.87601 0.35931 0.0
O341 O 0.18802 0.81729 0.35752 0.0
C342 C 0.18412 0.85584 0.42083 0.0
C343 C 0.18329 0.90658 0.37994 0.0
O344 O 0.24136 0.85756 0.37878 0.0
O345 O 0.24102 0.88698 0.34699 0.0
O346 O 0.20979 0.87399 0.41508 0.0
O347 O 0.17203 0.83953 0.40024 0.0
O348 O 0.20413 0.90368 0.37098 0.0
O349 O 0.15834 0.8836 0.38436 0.0
C350 C 0.08998 0.82163 0.38431 0.0
O351 O 0.10499 0.84422 0.36852 0.0
O352 O 0.10391 0.80822 0.39154 0.0
C353 C 0.16358 0.84714 0.32112 0.0
Tb354 Tb 0.88027 0.71415 0.68766 0.0
C355 C 0.86694 0.65369 0.71704 0.0
Tb356 Tb 0.81825 0.66949 0.7015 0.0
O357 O 0.89271 0.72144 0.73152 0.0
O358 O 0.85181 0.70841 0.71819 0.0
O359 O 0.88457 0.67582 0.70093 0.0
C360 C 0.76998 0.63364 0.72619 0.0
O361 O 0.8418 0.64967 0.7225 0.0
C362 C 0.83289 0.66974 0.65041 0.0
C363 C 0.83116 0.72891 0.67051 0.0
O364 O 0.78239 0.62568 0.70916 0.0
O365 O 0.78468 0.6618 0.7291 0.0
O366 O 0.80752 0.66202 0.65667 0.0
O367 O 0.84741 0.67445 0.67247 0.0
O368 O 0.81358 0.70706 0.68675 0.0
O369 O 0.85641 0.73308 0.66558 0.0
C370 C 0.9283 0.75297 0.66479 0.0
O371 O 0.91475 0.75888 0.68224 0.0
O372 O 0.91489 0.72497 0.66028 0.0
C373 C 0.86764 0.7125 0.73948 0.0
Tb374 Tb 0.32734 0.21636 0.69226 0.0
C375 C 0.3904 0.2617 0.70248 0.0
Tb376 Tb 0.36966 0.19485 0.68897 0.0
O377 O 0.33692 0.22547 0.73666 0.0
O378 O 0.34219 0.19306 0.71882 0.0
O379 O 0.36548 0.25843 0.69506 0.0
C380 C 0.40892 0.1799 0.6987 0.0
O381 O 0.39563 0.23941 0.70409 0.0
C382 C 0.34968 0.20243 0.6406 0.0
C383 C 0.30665 0.14887 0.68059 0.0
O384 O 0.4106 0.20037 0.68129 0.0
O385 O 0.38526 0.16798 0.71076 0.0
O386 O 0.36057 0.18541 0.64474 0.0
O387 O 0.35408 0.21723 0.6621 0.0
O388 O 0.33178 0.15258 0.68766 0.0
O389 O 0.30121 0.17104 0.67862 0.0
C390 C 0.28836 0.23116 0.67787 0.0
O391 O 0.2855 0.21044 0.69563 0.0
O392 O 0.31345 0.24407 0.66893 0.0
C393 C 0.34677 0.20742 0.74061 0.0
Tb394 Tb 0.81372 0.17202 0.70694 0.0
C395 C 0.8343 0.12778 0.69437 0.0
Tb396 Tb 0.87628 0.19389 0.70988 0.0
O397 O 0.80945 0.16586 0.6617 0.0
O398 O 0.84732 0.19558 0.68018 0.0
O399 O 0.81351 0.1304 0.70383 0.0
C400 C 0.92795 0.20567 0.70154 0.0
O401 O 0.85953 0.15066 0.69171 0.0
C402 C 0.85428 0.18549 0.75857 0.0
C403 C 0.85629 0.23935 0.71828 0.0
O404 O 0.90958 0.1828 0.71479 0.0
O405 O 0.91738 0.22227 0.69331 0.0
O406 O 0.8804 0.20286 0.75416 0.0
O407 O 0.84277 0.17085 0.73698 0.0
O408 O 0.87683 0.23591 0.7092 0.0
O409 O 0.83107 0.21672 0.72243 0.0
C410 C 0.76175 0.15358 0.72158 0.0
O411 O 0.7775 0.17852 0.70918 0.0
O412 O 0.77506 0.13896 0.72519 0.0
C413 C 0.83591 0.18248 0.6579 0.0
H414 H 0.26097 0.87009 0.08836 0.0
H415 H 0.29643 0.84359 0.15828 0.0
H416 H 0.30758 0.90702 0.07457 0.0
H417 H 0.34347 0.8811 0.14488 0.0
H418 H 0.42309 0.96928 0.11541 0.0
H419 H 0.37726 0.93781 0.13532 0.0
H420 H 0.34519 0.89791 0.05556 0.0
H421 H 0.39081 0.92873 0.03597 0.0
C422 C 0.27882 0.87287 0.10123 0.0
C423 C 0.27517 0.85397 0.12427 0.0
C424 C 0.3055 0.89379 0.09324 0.0
C425 C 0.32928 0.89664 0.10832 0.0
C426 C 0.32558 0.87942 0.1328 0.0
C427 C 0.29871 0.85814 0.14063 0.0
C428 C 0.4062 0.95371 0.10222 0.0
C429 C 0.4105 0.95152 0.07409 0.0
C430 C 0.38003 0.93568 0.11363 0.0
C431 C 0.35749 0.91558 0.09695 0.0
C432 C 0.36197 0.91344 0.06888 0.0
C433 C 0.38816 0.93099 0.05767 0.0
H434 H 0.21627 0.48141 0.08724 0.0
H435 H 0.14629 0.39471 0.07688 0.0
H436 H 0.18727 0.50298 0.07026 0.0
H437 H 0.11704 0.41598 0.06013 0.0
H438 H 0.06932 0.46541 0.07537 0.0
H439 H 0.10027 0.44503 0.08632 0.0
H440 H 0.15854 0.50584 0.02734 0.0
H441 H 0.12738 0.5263 0.01628 0.0
C442 C 0.19482 0.4671 0.08065 0.0
C443 C 0.18325 0.43656 0.08322 0.0
C444 C 0.17828 0.47933 0.07105 0.0
C445 C 0.14995 0.46106 0.06419 0.0
C446 C 0.13877 0.43047 0.06566 0.0
C447 C 0.15536 0.41833 0.07506 0.0
C448 C 0.08874 0.47441 0.06477 0.0
C449 C 0.09604 0.49727 0.04496 0.0
C450 C 0.10631 0.46264 0.07088 0.0
C451 C 0.13156 0.47371 0.05741 0.0
C452 C 0.13914 0.49699 0.03795 0.0
C453 C 0.12138 0.50861 0.03164 0.0
H454 H 0.50282 0.72599 0.08978 0.0
H455 H 0.58986 0.75138 0.09572 0.0
H456 H 0.49183 0.67799 0.07245 0.0
H457 H 0.57925 0.70321 0.07973 0.0
H458 H 0.55636 0.62377 0.02959 0.0
H459 H 0.56494 0.6723 0.04131 0.0
H460 H 0.48952 0.63293 0.0874 0.0
H461 H 0.48047 0.58434 0.07476 0.0
C462 C 0.51956 0.72121 0.0871 0.0
C463 C 0.54716 0.74227 0.0937 0.0
C464 C 0.51333 0.69367 0.07753 0.0
C465 C 0.53462 0.68652 0.07462 0.0
C466 C 0.5623 0.70792 0.08114 0.0
C467 C 0.56846 0.73546 0.09048 0.0
C468 C 0.54147 0.62544 0.04205 0.0
C469 C 0.51774 0.6001 0.05126 0.0
C470 C 0.5465 0.65336 0.04896 0.0
C471 C 0.52811 0.65675 0.06558 0.0
C472 C 0.50401 0.63135 0.07428 0.0
C473 C 0.49884 0.60339 0.06711 0.0
H474 H 0.81937 0.33243 0.95882 0.0
H475 H 0.87776 0.3 0.96834 0.0
H476 H 0.85508 0.38013 0.97593 0.0
H477 H 0.91415 0.34798 0.98351 0.0
H478 H 0.96947 0.43 0.0312 0.0
H479 H 0.93151 0.38175 0.01894 0.0
H480 H 0.89557 0.42247 0.96285 0.0
H481 H 0.93286 0.47066 0.97622 0.0
C482 C 0.83989 0.33559 0.96468 0.0
C483 C 0.84588 0.31264 0.96218 0.0
C484 C 0.86053 0.36303 0.97411 0.0
C485 C 0.88778 0.36825 0.981 0.0
C486 C 0.89347 0.34494 0.97884 0.0
C487 C 0.87273 0.31747 0.96978 0.0
C488 C 0.95338 0.42862 0.01633 0.0
C489 C 0.95421 0.4542 1.00472 0.0
C490 C 0.93163 0.40088 0.00912 0.0
C491 C 0.91031 0.39793 0.98973 0.0
C492 C 0.91118 0.42366 0.97822 0.0
C493 C 0.93272 0.4514 0.98576 0.0
H494 H 0.70242 0.53632 0.92375 0.0
H495 H 0.75815 0.58393 0.99202 0.0
H496 H 0.66299 0.53222 0.94861 0.0
H497 H 0.71866 0.57884 0.01743 0.0
H498 H 0.6269 0.52977 0.05587 0.0
H499 H 0.66822 0.53294 0.0357 0.0
H500 H 0.65675 0.57879 0.96356 0.0
H501 H 0.61598 0.57625 0.9838 0.0
C502 C 0.70598 0.54529 0.94432 0.0
C503 C 0.733 0.56035 0.95614 0.0
C504 C 0.68365 0.54304 0.95842 0.0
C505 C 0.68814 0.55542 0.98469 0.0
C506 C 0.71492 0.56906 0.99721 0.0
C507 C 0.73732 0.57176 0.98286 0.0
C508 C 0.63364 0.54103 0.03598 0.0
C509 C 0.61851 0.55282 0.0213 0.0
C510 C 0.65707 0.54274 0.0245 0.0
C511 C 0.6651 0.55571 0.99807 0.0
C512 C 0.65055 0.5684 0.98388 0.0
C513 C 0.6275 0.56719 0.99554 0.0
H514 H 0.48696 0.20553 0.9115 0.0
H515 H 0.43235 0.18429 0.97943 0.0
H516 H 0.49478 0.16424 0.9253 0.0
H517 H 0.44086 0.14409 0.99429 0.0
H518 H 0.45019 0.06386 0.00982 0.0
H519 H 0.43615 0.09789 0.98813 0.0
H520 H 0.51991 0.15327 0.96073 0.0
H521 H 0.53359 0.11863 0.98145 0.0
C522 C 0.47613 0.19151 0.92899 0.0
C523 C 0.45912 0.19802 0.94446 0.0
C524 C 0.48094 0.16817 0.93728 0.0
C525 C 0.46889 0.15091 0.96131 0.0
C526 C 0.45043 0.1565 0.97561 0.0
C527 C 0.44555 0.17963 0.96719 0.0
C528 C 0.46564 0.08329 0.99916 0.0
C529 C 0.49313 0.08855 0.99772 0.0
C530 C 0.45758 0.10293 0.9867 0.0
C531 C 0.47683 0.12862 0.97263 0.0
C532 C 0.50426 0.13361 0.9709 0.0
C533 C 0.51224 0.11382 0.98313 0.0
H534 H 0.73886 0.24679 0.94019 0.0
H535 H 0.76949 0.18528 0.95185 0.0
H536 H 0.69195 0.20797 0.95092 0.0
H537 H 0.72249 0.14609 0.96257 0.0
H538 H 0.62787 0.07867 0.96346 0.0
H539 H 0.67292 0.11536 0.94515 0.0
H540 H 0.67157 0.18155 0.99432 0.0
H541 H 0.62696 0.14521 0.01234 0.0
C542 C 0.73535 0.22479 0.94477 0.0
C543 C 0.75768 0.21899 0.94545 0.0
C544 C 0.70859 0.20258 0.95099 0.0
C545 C 0.70351 0.17397 0.95799 0.0
C546 C 0.72564 0.16782 0.95714 0.0
C547 C 0.75251 0.19017 0.95097 0.0
C548 C 0.63726 0.10112 0.9702 0.0
C549 C 0.62396 0.1091 0.98935 0.0
C550 C 0.66305 0.12208 0.95982 0.0
C551 C 0.6758 0.15145 0.96815 0.0
C552 C 0.66219 0.15929 0.98709 0.0
C553 C 0.63667 0.13839 0.99758 0.0
H554 H 0.81709 0.54291 0.90985 0.0
H555 H 0.84108 0.62009 0.95699 0.0
H556 H 0.8602 0.54281 0.9261 0.0
H557 H 0.88455 0.6208 0.97267 0.0
H558 H 0.96808 0.61587 0.97854 0.0
H559 H 0.93094 0.62184 0.95351 0.0
H560 H 0.87048 0.53465 0.98056 0.0
H561 H 0.9072 0.52894 1.00601 0.0
C562 C 0.8323 0.56052 0.92269 0.0
C563 C 0.82645 0.58182 0.9319 0.0
C564 C 0.85667 0.5604 0.93211 0.0
C565 C 0.87549 0.58182 0.95057 0.0
C566 C 0.87047 0.60432 0.95817 0.0
C567 C 0.84586 0.60404 0.94917 0.0
C568 C 0.94678 0.59817 0.97928 0.0
C569 C 0.94032 0.57207 0.99432 0.0
C570 C 0.92571 0.60151 0.96489 0.0
C571 C 0.89813 0.57849 0.96485 0.0
C572 C 0.89174 0.55247 0.97995 0.0
C573 C 0.91264 0.54938 0.99476 0.0
H574 H 0.50202 0.32582 0.9315 0.0
H575 H 0.44671 0.27599 0.99691 0.0
H576 H 0.51107 0.37152 0.95242 0.0
H577 H 0.45631 0.32159 0.01868 0.0
H578 H 0.45267 0.40724 0.02751 0.0
H579 H 0.44595 0.36117 0.01015 0.0
H580 H 0.53305 0.40281 0.99157 0.0
H581 H 0.53969 0.44911 1.00836 0.0
C582 C 0.49203 0.32479 0.95055 0.0
C583 C 0.47362 0.29753 0.96258 0.0
C584 C 0.49736 0.3509 0.96272 0.0
C585 C 0.4844 0.35033 0.98728 0.0
C586 C 0.46639 0.32291 0.9996 0.0
C587 C 0.46108 0.2968 0.98737 0.0
C588 C 0.47048 0.40659 0.01993 0.0
C589 C 0.49671 0.43203 0.01929 0.0
C590 C 0.46664 0.38005 0.01009 0.0
C591 C 0.48893 0.3782 0.99934 0.0
C592 C 0.51531 0.40349 0.9993 0.0
C593 C 0.51915 0.43004 0.00914 0.0
H594 H 0.195 0.72867 0.13577 0.0
H595 H 0.18414 0.77957 0.06815 0.0
H596 H 0.15967 0.68342 0.1141 0.0
H597 H 0.14912 0.73426 0.04574 0.0
H598 H 0.06476 0.64781 0.03393 0.0
H599 H 0.10158 0.69415 0.05242 0.0
H600 H 0.15184 0.65319 0.07464 0.0
H601 H 0.11509 0.60695 0.05671 0.0
C602 C 0.18508 0.73001 0.1161 0.0
C603 C 0.19214 0.75744 0.10359 0.0
C604 C 0.16502 0.70417 0.10354 0.0
C605 C 0.15152 0.70513 0.0781 0.0
C606 C 0.15888 0.7327 0.06544 0.0
C607 C 0.17906 0.75859 0.07805 0.0
C608 C 0.08375 0.64874 0.04255 0.0
C609 C 0.08681 0.62351 0.04388 0.0
C610 C 0.10493 0.67538 0.05306 0.0
C611 C 0.12965 0.67741 0.06522 0.0
C612 C 0.13293 0.65235 0.06588 0.0
C613 C 0.11184 0.62581 0.05538 0.0
H614 H 0.24589 0.37878 0.08395 0.0
H615 H 0.28043 0.45652 0.13276 0.0
H616 H 0.2931 0.39048 0.07188 0.0
H617 H 0.32763 0.46767 0.12187 0.0
H618 H 0.40589 0.4519 0.10453 0.0
H619 H 0.35919 0.43155 0.12277 0.0
H620 H 0.32976 0.45219 0.04455 0.0
H621 H 0.37668 0.47339 0.02643 0.0
C622 C 0.26375 0.39744 0.09324 0.0
C623 C 0.25994 0.41637 0.10986 0.0
C624 C 0.29052 0.40427 0.08619 0.0
C625 C 0.31366 0.42983 0.09615 0.0
C626 C 0.30996 0.44764 0.11434 0.0
C627 C 0.28318 0.44115 0.12083 0.0
C628 C 0.38937 0.45189 0.09119 0.0
C629 C 0.39468 0.46414 0.06411 0.0
C630 C 0.36281 0.44026 0.10162 0.0
C631 C 0.34117 0.44012 0.08483 0.0
C632 C 0.34629 0.45186 0.05761 0.0
C633 C 0.373 0.46408 0.04737 0.0
H634 H 0.58463 0.85287 0.06579 0.0
H635 H 0.5418 0.84188 0.14116 0.0
H636 H 0.57973 0.89587 0.0526 0.0
H637 H 0.53808 0.88587 0.12902 0.0
H638 H 0.50102 0.93684 0.08028 0.0
H639 H 0.51139 0.89865 0.097 0.0
H640 H 0.59204 0.94543 0.06047 0.0
H641 H 0.58123 0.98348 0.04284 0.0
C642 C 0.57447 0.85999 0.07968 0.0
C643 C 0.56313 0.84383 0.10422 0.0
C644 C 0.57191 0.88484 0.07233 0.0
C645 C 0.55815 0.8943 0.08952 0.0
C646 C 0.54824 0.87895 0.11491 0.0
C647 C 0.55067 0.85398 0.12212 0.0
C648 C 0.52101 0.93911 0.07571 0.0
C649 C 0.54014 0.96322 0.05985 0.0
C650 C 0.5271 0.91723 0.08564 0.0
C651 C 0.55261 0.91878 0.0802 0.0
C652 C 0.57202 0.9432 0.06479 0.0
C653 C 0.56587 0.96513 0.05474 0.0
H654 H 0.92479 0.20016 0.41703 0.0
H655 H 0.95939 0.17851 0.49094 0.0
H656 H 0.97155 0.23676 0.4033 0.0
H657 H 1.00651 0.21577 0.47763 0.0
H658 H 0.08557 0.30351 0.44685 0.0
H659 H 0.03934 0.27213 0.46591 0.0
H660 H 0.01053 0.22761 0.38784 0.0
H661 H 0.05658 0.2584 0.36911 0.0
C662 C 0.94246 0.20387 0.43068 0.0
C663 C 0.93858 0.18642 0.45489 0.0
C664 C 0.96921 0.22463 0.42277 0.0
C665 C 0.99277 0.22878 0.43911 0.0
C666 C 0.98877 0.21305 0.46458 0.0
C667 C 0.96186 0.19191 0.47233 0.0
C668 C 0.06931 0.28693 0.43386 0.0
C669 C 0.07463 0.28344 0.40645 0.0
C670 C 0.04292 0.26896 0.44479 0.0
C671 C 0.0212 0.24761 0.42829 0.0
C672 C 0.02669 0.24413 0.40095 0.0
C673 C 0.05312 0.26165 0.39026 0.0
H674 H 0.85364 0.78144 0.43497 0.0
H675 H 0.89452 0.87279 0.45564 0.0
H676 H 0.81772 0.78711 0.40754 0.0
H677 H 0.85861 0.87887 0.42793 0.0
H678 H 0.7991 0.8796 0.35627 0.0
H679 H 0.83812 0.8743 0.377 0.0
H680 H 0.7805 0.79807 0.42405 0.0
H681 H 0.74167 0.80346 0.40358 0.0
C682 C 0.85483 0.80276 0.43335 0.0
C683 C 0.87623 0.82665 0.44746 0.0
C684 C 0.83448 0.80603 0.41775 0.0
C685 C 0.83543 0.83335 0.41588 0.0
C686 C 0.85762 0.85764 0.42901 0.0
C687 C 0.87794 0.85424 0.44485 0.0
C688 C 0.79486 0.86152 0.37077 0.0
C689 C 0.76755 0.84186 0.37839 0.0
C690 C 0.81711 0.85864 0.3827 0.0
C691 C 0.81217 0.83582 0.40202 0.0
C692 C 0.78474 0.81568 0.40896 0.0
C693 C 0.7626 0.81877 0.39733 0.0
H694 H 0.17186 0.0617 0.42227 0.0
H695 H 0.25922 0.08858 0.429 0.0
H696 H 0.16176 1.01383 0.40546 0.0
H697 H 0.24949 0.04049 0.41357 0.0
H698 H 0.22705 0.95968 0.3648 0.0
H699 H 0.23574 1.00844 0.37607 0.0
H700 H 0.15999 0.96962 0.42163 0.0
H701 H 0.15083 0.92097 0.40944 0.0
C702 C 0.18887 0.05727 0.41986 0.0
C703 C 0.21628 0.07867 0.42661 0.0
C704 C 0.18315 0.0298 0.4106 0.0
C705 C 0.20477 0.02304 0.4082 0.0
C706 C 0.2323 0.04486 0.41465 0.0
C707 C 0.23795 0.07236 0.42365 0.0
C708 C 0.21218 0.96155 0.37711 0.0
C709 C 0.18825 0.93635 0.3862 0.0
C710 C 0.21724 0.98958 0.38374 0.0
C711 C 0.19866 0.99318 0.3999 0.0
C712 C 0.17458 0.9679 0.40876 0.0
C713 C 0.16939 0.93989 0.4019 0.0
H714 H 0.49058 0.6661 0.27943 0.0
H715 H 0.53664 0.62663 0.31881 0.0
H716 H 0.52692 0.71452 0.29435 0.0
H717 H 0.57253 0.67456 0.33531 0.0
H718 H 0.64645 0.76685 0.33348 0.0
H719 H 0.60937 0.7186 0.32028 0.0
H720 H 0.54857 0.74664 0.33079 0.0
H721 H 0.58594 0.79539 0.34258 0.0
C722 C 0.50838 0.66794 0.2918 0.0
C723 C 0.51104 0.64297 0.29806 0.0
C724 C 0.52918 0.69558 0.30051 0.0
C725 C 0.55293 0.69874 0.31607 0.0
C726 C 0.55499 0.67331 0.3229 0.0
C727 C 0.53438 0.64579 0.31377 0.0
C728 C 0.62515 0.76268 0.33307 0.0
C729 C 0.6192 0.78501 0.33908 0.0
C730 C 0.60376 0.73485 0.32565 0.0
C731 C 0.57573 0.7284 0.32448 0.0
C732 C 0.56982 0.75074 0.33092 0.0
C733 C 0.59128 0.77873 0.3379 0.0
H734 H 0.36648 0.83669 0.27816 0.0
H735 H 0.41423 0.93044 0.28638 0.0
H736 H 0.32971 0.83558 0.30577 0.0
H737 H 0.37778 0.9297 0.31369 0.0
H738 H 0.28746 0.91495 0.32002 0.0
H739 H 0.32796 0.91736 0.29937 0.0
H740 H 0.3225 0.84768 0.35524 0.0
H741 H 0.28196 0.84536 0.37607 0.0
C742 C 0.36898 0.85689 0.28613 0.0
C743 C 0.39255 0.88365 0.28009 0.0
C744 C 0.34826 0.85633 0.30193 0.0
C745 C 0.35104 0.88262 0.31161 0.0
C746 C 0.37512 0.90924 0.30616 0.0
C747 C 0.39579 0.90971 0.29061 0.0
C748 C 0.29526 0.90055 0.32818 0.0
C749 C 0.2818 0.88002 0.34955 0.0
C750 C 0.31836 0.90193 0.31644 0.0
C751 C 0.32811 0.8826 0.32574 0.0
C752 C 0.31512 0.86261 0.34766 0.0
C753 C 0.29217 0.86146 0.35964 0.0
H754 H 0.14926 0.53928 0.24873 0.0
H755 H 0.09275 0.51462 0.31547 0.0
H756 H 0.15803 0.4985 0.26186 0.0
H757 H 0.10209 0.47474 0.32958 0.0
H758 H 0.11258 0.39464 0.34183 0.0
H759 H 0.09828 0.42888 0.32115 0.0
H760 H 0.18295 0.48767 0.29819 0.0
H761 H 0.19702 0.45302 0.31802 0.0
C762 C 0.13825 0.52464 0.26581 0.0
C763 C 0.12039 0.53001 0.28115 0.0
C764 C 0.14358 0.50158 0.2737 0.0
C765 C 0.13115 0.48342 0.29714 0.0
C766 C 0.11196 0.48792 0.31134 0.0
C767 C 0.10662 0.51085 0.30337 0.0
C768 C 0.12817 0.41484 0.33232 0.0
C769 C 0.15603 0.42105 0.33184 0.0
C770 C 0.11995 0.43459 0.32048 0.0
C771 C 0.13939 0.46124 0.30793 0.0
C772 C 0.1672 0.46724 0.30717 0.0
C773 C 0.17537 0.44741 0.31886 0.0
H774 H 0.40411 0.57874 0.27158 0.0
H775 H 0.43401 0.51701 0.28748 0.0
H776 H 0.35698 0.54065 0.28271 0.0
H777 H 0.38685 0.47858 0.29848 0.0
H778 H 0.29266 0.4118 0.30038 0.0
H779 H 0.33749 0.44763 0.28121 0.0
H780 H 0.33637 0.51605 0.32698 0.0
H781 H 0.29187 0.48045 0.34593 0.0
C782 C 0.40041 0.55684 0.27714 0.0
C783 C 0.42262 0.5508 0.27903 0.0
C784 C 0.37352 0.53506 0.28358 0.0
C785 C 0.36821 0.50666 0.29191 0.0
C786 C 0.39017 0.50017 0.29204 0.0
C787 C 0.41714 0.52208 0.28569 0.0
C788 C 0.30203 0.43454 0.3062 0.0
C789 C 0.28884 0.44336 0.32468 0.0
C790 C 0.3277 0.45502 0.29531 0.0
C791 C 0.34047 0.48475 0.30243 0.0
C792 C 0.32696 0.49346 0.32068 0.0
C793 C 0.30153 0.47301 0.33172 0.0
H794 H 0.46986 0.85109 0.2556 0.0
H795 H 0.50245 0.9436 0.26664 0.0
H796 H 0.51302 0.85463 0.27629 0.0
H797 H 0.54598 0.94752 0.28706 0.0
H798 H 0.62719 0.93813 0.30323 0.0
H799 H 0.588 0.93924 0.27743 0.0
H800 H 0.53052 0.86571 0.32734 0.0
H801 H 0.56947 0.86472 0.35314 0.0
C802 C 0.48672 0.8723 0.26176 0.0
C803 C 0.48317 0.89706 0.2596 0.0
C804 C 0.51119 0.87433 0.27375 0.0
C805 C 0.53253 0.90126 0.28364 0.0
C806 C 0.52981 0.92654 0.27954 0.0
C807 C 0.50513 0.92439 0.26772 0.0
C808 C 0.60615 0.92258 0.30894 0.0
C809 C 0.60123 0.90134 0.33012 0.0
C810 C 0.58383 0.92316 0.29415 0.0
C811 C 0.55637 0.90225 0.30015 0.0
C812 C 0.55155 0.88173 0.32201 0.0
C813 C 0.57379 0.88135 0.33694 0.0
H814 H 0.10438 0.60765 0.33269 0.0
H815 H 0.16175 0.65619 0.26839 0.0
H816 H 0.11425 0.6538 0.35368 0.0
H817 H 0.1711 0.70231 0.28847 0.0
H818 H 0.20116 0.7801 0.34352 0.0
H819 H 0.19303 0.73298 0.32776 0.0
H820 H 0.10571 0.69487 0.3442 0.0
H821 H 0.11393 0.742 0.36063 0.0
C822 C 0.11922 0.62829 0.32323 0.0
C823 C 0.13231 0.62854 0.29898 0.0
C824 C 0.12469 0.65468 0.335 0.0
C825 C 0.14345 0.68185 0.32276 0.0
C826 C 0.15683 0.68189 0.29871 0.0
C827 C 0.15135 0.65555 0.28702 0.0
C828 C 0.18023 0.76167 0.34403 0.0
C829 C 0.15819 0.76496 0.35331 0.0
C830 C 0.17554 0.73462 0.33479 0.0
C831 C 0.14867 0.7101 0.33447 0.0
C832 C 0.12672 0.71318 0.34441 0.0
C833 C 0.13143 0.74028 0.35371 0.0
H834 H 0.8471 0.11174 0.40165 0.0
H835 H 0.85687 0.06111 0.4702 0.0
H836 H 0.81124 0.06645 0.3799 0.0
H837 H 0.82077 1.01583 0.44907 0.0
H838 H 0.72632 0.98023 0.36853 0.0
H839 H 0.76303 0.02653 0.38741 0.0
H840 H 0.81359 0.98579 0.40903 0.0
H841 H 0.77713 0.93974 0.39063 0.0
C842 C 0.84156 0.09081 0.41191 0.0
C843 C 0.85464 0.08971 0.43748 0.0
C844 C 0.82092 0.06496 0.39967 0.0
C845 C 0.81312 0.03749 0.41272 0.0
C846 C 0.82648 0.03655 0.43827 0.0
C847 C 0.84698 0.06239 0.4505 0.0
C848 C 0.74535 0.98121 0.37713 0.0
C849 C 0.74864 0.95615 0.37807 0.0
C850 C 0.76643 1.00779 0.38787 0.0
C851 C 0.79119 1.00983 0.39992 0.0
C852 C 0.79463 0.98491 0.40032 0.0
C853 C 0.77371 0.95848 0.38954 0.0
H854 H 0.92922 0.76403 0.45634 0.0
H855 H 0.98312 0.85298 0.48148 0.0
H856 H 0.96853 0.7634 0.43544 0.0
H857 H 0.02244 0.85276 0.46046 0.0
H858 H 0.0656 0.85593 0.38059 0.0
H859 H 0.0272 0.85066 0.40763 0.0
H860 H 0.01871 0.77006 0.44504 0.0
H861 H 0.05742 0.77545 0.41806 0.0
C862 C 0.9498 0.78295 0.45836 0.0
C863 C 0.9535 0.80854 0.47044 0.0
C864 C 0.97214 0.78273 0.44625 0.0
C865 C 0.99825 0.80824 0.44593 0.0
C866 C 1.00235 0.83299 0.46006 0.0
C867 C 0.9801 0.83308 0.4723 0.0
C868 C 0.05528 0.8369 0.39429 0.0
C869 C 0.06435 0.81609 0.3973 0.0
C870 C 0.03357 0.83405 0.40997 0.0
C871 C 0.02043 0.81022 0.42872 0.0
C872 C 0.02865 0.78867 0.4308 0.0
C873 C 0.05064 0.79171 0.41532 0.0
H874 H 0.25181 0.1894 0.39964 0.0
H875 H 0.20779 0.17613 0.47466 0.0
H876 H 0.24668 0.23244 0.38734 0.0
H877 H 0.20397 0.22018 0.46353 0.0
H878 H 0.16706 0.27178 0.41598 0.0
H879 H 0.17763 0.2336 0.43202 0.0
H880 H 0.2586 0.28165 0.39627 0.0
H881 H 0.24755 0.31972 0.37924 0.0
C882 C 0.24128 0.19597 0.41361 0.0
C883 C 0.22971 0.17918 0.4378 0.0
C884 C 0.23863 0.22087 0.40681 0.0
C885 C 0.22458 0.22976 0.42423 0.0
C886 C 0.21437 0.21373 0.44924 0.0
C887 C 0.21684 0.1887 0.45587 0.0
C888 C 0.18717 0.27436 0.41145 0.0
C889 C 0.2063 0.29879 0.39593 0.0
C890 C 0.19338 0.25247 0.421 0.0
C891 C 0.21901 0.25434 0.4155 0.0
C892 C 0.23848 0.27916 0.40057 0.0
C893 C 0.2322 0.30112 0.39091 0.0
H894 H 0.60002 0.54896 0.78313 0.0
H895 H 0.62688 0.48522 0.80195 0.0
H896 H 0.64735 0.58511 0.76993 0.0
H897 H 0.67423 0.52105 0.7891 0.0
H898 H 0.73883 0.57411 0.72296 0.0
H899 H 0.69473 0.54157 0.7446 0.0
H900 H 0.69703 0.61591 0.78262 0.0
H901 H 0.74121 0.64851 0.76065 0.0
C902 C 0.61638 0.54312 0.78541 0.0
C903 C 0.6099 0.51439 0.79351 0.0
C904 C 0.64347 0.5637 0.77769 0.0
C905 C 0.66461 0.55588 0.77787 0.0
C906 C 0.65842 0.5277 0.78803 0.0
C907 C 0.63142 0.50726 0.79575 0.0
C908 C 0.72998 0.58349 0.73602 0.0
C909 C 0.74346 0.61388 0.73998 0.0
C910 C 0.70476 0.56481 0.74865 0.0
C911 C 0.69223 0.576 0.76556 0.0
C912 C 0.70588 0.60648 0.76962 0.0
C913 C 0.73125 0.62517 0.75709 0.0
H914 H 0.55366 0.18027 0.76911 0.0
H915 H 0.50807 0.09376 0.73545 0.0
H916 H 0.52046 0.19353 0.74568 0.0
H917 H 0.47437 0.10654 0.7122 0.0
H918 H 0.40367 0.13125 0.72633 0.0
H919 H 0.44032 0.11862 0.73788 0.0
H920 H 0.49969 0.19779 0.69572 0.0
H921 H 0.4628 0.21025 0.68369 0.0
C922 C 0.5368 0.16449 0.75604 0.0
C923 C 0.53306 0.13621 0.75372 0.0
C924 C 0.51797 0.17196 0.74267 0.0
C925 C 0.49499 0.15097 0.72726 0.0
C926 C 0.49199 0.123 0.72402 0.0
C927 C 0.5111 0.11573 0.73709 0.0
C928 C 0.42448 0.14574 0.71928 0.0
C929 C 0.43061 0.17171 0.70429 0.0
C930 C 0.44532 0.13842 0.72566 0.0
C931 C 0.47263 0.15722 0.71749 0.0
C932 C 0.47869 0.18301 0.70212 0.0
C933 C 0.4577 0.19008 0.6953 0.0
H934 H 0.84457 0.39534 0.75674 0.0
H935 H 0.93217 0.42332 0.76309 0.0
H936 H 0.83485 0.34711 0.74143 0.0
H937 H 0.9228 0.37485 0.74934 0.0
H938 H 0.90061 0.29223 0.70323 0.0
H939 H 0.90933 0.34128 0.7134 0.0
H940 H 0.83334 0.30349 0.75849 0.0
H941 H 0.82417 0.25458 0.74736 0.0
C942 C 0.86173 0.39113 0.75451 0.0
C943 C 0.88911 0.41302 0.76069 0.0
C944 C 0.85623 0.36339 0.74617 0.0
C945 C 0.87799 0.35677 0.74419 0.0
C946 C 0.90547 0.37904 0.75011 0.0
C947 C 0.91092 0.4068 0.75817 0.0
C948 C 0.88572 0.29439 0.71525 0.0
C949 C 0.86167 0.26937 0.72442 0.0
C950 C 0.89079 0.32261 0.72124 0.0
C951 C 0.8721 0.32663 0.73685 0.0
C952 C 0.84801 0.3015 0.74598 0.0
C953 C 0.84281 0.27332 0.73974 0.0
H954 H 0.15578 1.00084 0.61225 0.0
H955 H 0.20159 0.96092 0.65128 0.0
H956 H 0.19185 0.04901 0.62814 0.0
H957 H 0.23719 1.00855 0.66864 0.0
H958 H 0.3112 0.101 0.66782 0.0
H959 H 0.27419 0.05286 0.65417 0.0
H960 H 0.21324 0.08058 0.66512 0.0
H961 H 0.25051 0.12919 0.67743 0.0
C962 C 0.17344 1.0025 0.62477 0.0
C963 C 0.17611 0.97747 0.63062 0.0
C964 C 0.19409 0.03 0.63402 0.0
C965 C 0.21773 0.03297 0.64968 0.0
C966 C 0.21975 1.00746 0.65616 0.0
C967 C 0.19929 0.9801 0.64653 0.0
C968 C 0.28989 0.09678 0.66744 0.0
C969 C 0.28387 0.11901 0.67371 0.0
C970 C 0.26853 0.06901 0.65975 0.0
C971 C 0.24047 0.06251 0.65852 0.0
C972 C 0.23451 0.08472 0.66528 0.0
C973 C 0.25592 0.11263 0.67256 0.0
H974 H 0.02661 0.16309 0.60528 0.0
H975 H 0.08429 0.25268 0.62573 0.0
H976 H 0.99271 0.16311 0.63637 0.0
H977 H 0.05089 0.25303 0.65694 0.0
H978 H 0.96634 0.25043 0.67058 0.0
H979 H 1.00494 0.25106 0.64758 0.0
H980 H 0.98595 0.16767 0.68708 0.0
H981 H 0.94723 0.16701 0.71004 0.0
C982 C 0.03192 0.18257 0.61675 0.0
C983 C 0.05751 0.20794 0.61327 0.0
C984 C 0.01283 0.18262 0.63456 0.0
C985 C 0.01929 0.20814 0.64893 0.0
C986 C 0.04536 0.23322 0.64589 0.0
C987 C 0.06435 0.23307 0.62821 0.0
C988 C 0.97085 0.2326 0.67481 0.0
C989 C 0.95392 0.20865 0.69192 0.0
C990 C 0.9929 0.23295 0.6617 0.0
C991 C 0.99817 0.20927 0.66545 0.0
C992 C 0.98203 0.18599 0.68365 0.0
C993 C 0.9601 0.18575 0.69691 0.0
H994 H 0.76477 0.84886 0.64714 0.0
H995 H 0.81752 0.87117 0.57742 0.0
H996 H 0.77286 0.80786 0.65973 0.0
H997 H 0.82487 0.82917 0.58897 0.0
H998 H 0.86296 0.78 0.64112 0.0
H999 H 0.85001 0.81595 0.62259 0.0
H1000 H 0.76653 0.76127 0.65093 0.0
H1001 H 0.77983 0.72579 0.67035 0.0
C1002 C 0.77761 0.84444 0.63413 0.0
C1003 C 0.79069 0.86327 0.61147 0.0
C1004 C 0.78218 0.82079 0.6412 0.0
C1005 C 0.79983 0.81511 0.62562 0.0
C1006 C 0.81161 0.83307 0.60187 0.0
C1007 C 0.80709 0.85688 0.59491 0.0
C1008 C 0.84177 0.77551 0.64333 0.0
C1009 C 0.82257 0.74998 0.65756 0.0
C1010 C 0.83423 0.79613 0.63242 0.0
C1011 C 0.80716 0.79182 0.63522 0.0
C1012 C 0.78772 0.76581 0.64874 0.0
C1013 C 0.79533 0.74528 0.65982 0.0
H1014 H 0.06963 0.91167 0.60066 0.0
H1015 H 0.10108 0.85163 0.6193 0.0
H1016 H 0.02246 0.87276 0.61053 0.0
H1017 H 0.05394 0.81244 0.62923 0.0
H1018 H 0.96073 0.74354 0.62999 0.0
H1019 H 1.00556 0.78015 0.61137 0.0
H1020 H 1.00029 0.84815 0.65371 0.0
H1021 H 0.95577 0.81179 0.67199 0.0
C1022 C 0.06627 0.88997 0.60658 0.0
C1023 C 0.08889 0.88464 0.60956 0.0
C1024 C 0.03936 0.86771 0.61232 0.0
C1025 C 0.03444 0.83955 0.6211 0.0
C1026 C 0.05691 0.83379 0.6224 0.0
C1027 C 0.08389 0.85616 0.6167 0.0
C1028 C 0.96919 0.76636 0.63516 0.0
C1029 C 0.95486 0.77482 0.65254 0.0
C1030 C 0.99486 0.7873 0.62458 0.0
C1031 C 1.00653 0.81714 0.63096 0.0
C1032 C 0.99179 0.82549 0.64798 0.0
C1033 C 0.96634 0.8046 0.65866 0.0
H1034 H 0.1634 0.27083 0.59916 0.0
H1035 H 0.13796 0.18094 0.58198 0.0
H1036 H 0.20733 0.27696 0.62082 0.0
H1037 H 0.18148 0.18662 0.60401 0.0
H1038 H 0.2332 0.19556 0.68511 0.0
H1039 H 0.19467 0.19536 0.65728 0.0
H1040 H 0.25265 0.27262 0.6118 0.0
H1041 H 0.29146 0.27263 0.63949 0.0
C1042 C 0.16783 0.25281 0.59909 0.0
C1043 C 0.14766 0.22546 0.58897 0.0
C1044 C 0.19271 0.25619 0.61164 0.0
C1045 C 0.1974 0.23208 0.61446 0.0
C1046 C 0.17808 0.20539 0.60241 0.0
C1047 C 0.15344 0.20217 0.58963 0.0
C1048 C 0.2377 0.21277 0.66949 0.0
C1049 C 0.26522 0.23413 0.66442 0.0
C1050 C 0.21573 0.21246 0.65338 0.0
C1051 C 0.22086 0.2337 0.63216 0.0
C1052 C 0.24827 0.25597 0.62798 0.0
C1053 C 0.27035 0.25603 0.64387 0.0
H1054 H 0.7759 0.94134 0.66405 0.0
H1055 H 0.83227 0.98999 0.59905 0.0
H1056 H 0.78559 0.98748 0.68499 0.0
H1057 H 0.84149 0.03607 0.61913 0.0
H1058 H 0.7851 0.07541 0.69334 0.0
H1059 H 0.77675 0.02847 0.67614 0.0
H1060 H 0.86374 0.06711 0.65807 0.0
H1061 H 0.87198 0.114 0.67464 0.0
C1062 C 0.79051 0.96199 0.65443 0.0
C1063 C 0.80335 0.96224 0.63 0.0
C1064 C 0.79587 0.9884 0.66617 0.0
C1065 C 0.8143 1.01562 0.65375 0.0
C1066 C 0.82746 1.01565 0.62952 0.0
C1067 C 0.82207 0.9893 0.61784 0.0
C1068 C 0.80248 0.07387 0.68581 0.0
C1069 C 0.8292 0.09864 0.6853 0.0
C1070 C 0.79771 0.04686 0.67608 0.0
C1071 C 0.81952 0.04392 0.66555 0.0
C1072 C 0.84632 0.06859 0.66556 0.0
C1073 C 0.85108 0.09553 0.67525 0.0
H1074 H 0.49689 0.44591 0.74733 0.0
H1075 H 0.54039 0.401 0.78031 0.0
H1076 H 0.461 0.40065 0.72594 0.0
H1077 H 0.50408 0.35515 0.76037 0.0
H1078 H 0.44636 0.28121 0.70468 0.0
H1079 H 0.48368 0.32832 0.72041 0.0
H1080 H 0.42305 0.35508 0.73651 0.0
H1081 H 0.38592 0.30843 0.71943 0.0
C1082 C 0.49862 0.42616 0.74986 0.0
C1083 C 0.52125 0.4267 0.7652 0.0
C1084 C 0.478 0.40015 0.73791 0.0
C1085 C 0.47936 0.37394 0.74144 0.0
C1086 C 0.5024 0.37483 0.75666 0.0
C1087 C 0.52319 0.40098 0.76823 0.0
C1088 C 0.44103 0.29726 0.71137 0.0
C1089 C 0.41314 0.29104 0.71076 0.0
C1090 C 0.46246 0.32429 0.72064 0.0
C1091 C 0.45658 0.3457 0.73002 0.0
C1092 C 0.42861 0.33951 0.72906 0.0
C1093 C 0.40721 0.31262 0.71937 0.0
H1094 H 0.62904 0.15116 0.81077 0.0
H1095 H 0.58934 0.07488 0.75979 0.0
H1096 H 0.6749 0.15876 0.79909 0.0
H1097 H 0.635 0.08207 0.74805 0.0
H1098 H 0.72569 0.10035 0.74374 0.0
H1099 H 0.68207 0.0867 0.76621 0.0
H1100 H 0.69456 0.17423 0.74997 0.0
H1101 H 0.73793 0.18774 0.72731 0.0
C1102 C 0.6303 0.13535 0.79807 0.0
C1103 C 0.60609 0.11252 0.78607 0.0
C1104 C 0.65635 0.13983 0.79111 0.0
C1105 C 0.65835 0.12125 0.77233 0.0
C1106 C 0.63399 0.09665 0.76261 0.0
C1107 C 0.60798 0.09243 0.76934 0.0
C1108 C 0.71897 0.11656 0.7449 0.0
C1109 C 0.7349 0.14499 0.73365 0.0
C1110 C 0.69417 0.1088 0.75783 0.0
C1111 C 0.68525 0.12954 0.76011 0.0
C1112 C 0.7013 0.158 0.74892 0.0
C1113 C 0.72585 0.16563 0.73565 0.0
H1114 H 0.87955 0.51051 0.80816 0.0
H1115 H 0.921 0.52262 0.73163 0.0
H1116 H 0.87445 0.55381 0.79671 0.0
H1117 H 0.91471 0.5649 0.71914 0.0
H1118 H 0.91541 0.65188 0.71049 0.0
H1119 H 0.92681 0.61412 0.72746 0.0
H1120 H 0.84728 0.56725 0.76614 0.0
H1121 H 0.83635 0.6053 0.75005 0.0
C1122 C 0.88779 0.52268 0.78899 0.0
C1123 C 0.90039 0.51307 0.77065 0.0
C1124 C 0.88456 0.54727 0.78217 0.0
C1125 C 0.8938 0.56284 0.75674 0.0
C1126 C 0.90744 0.55377 0.73896 0.0
C1127 C 0.91078 0.52929 0.74591 0.0
C1128 C 0.90045 0.63365 0.72282 0.0
C1129 C 0.87485 0.63167 0.72866 0.0
C1130 C 0.90692 0.61182 0.73244 0.0
C1131 C 0.88796 0.58735 0.74812 0.0
C1132 C 0.86266 0.58583 0.7545 0.0
C1133 C 0.85625 0.60766 0.745 0.0
H1134 H 0.46423 0.96499 0.23438 0.0
H1135 H 0.47405 0.89984 0.19259 0.0
H1136 H 0.48868 1.00114 0.19755 0.0
H1137 H 0.49892 0.93601 0.15556 0.0
H1138 H 0.56051 1.0165 0.10604 0.0
H1139 H 0.54246 0.98472 0.14704 0.0
H1140 H 0.47482 1.00428 0.1469 0.0
H1141 H 0.4932 0.03649 0.1058 0.0
C1142 C 0.47197 0.95868 0.2173 0.0
C1143 C 0.46703 0.9298 0.21571 0.0
C1144 C 0.48582 0.97919 0.19631 0.0
C1145 C 0.49523 0.97117 0.17359 0.0
C1146 C 0.49184 0.9427 0.17293 0.0
C1147 C 0.47776 0.92209 0.19395 0.0
C1148 C 0.54199 1.01433 0.11501 0.0
C1149 C 0.52788 0.02851 0.10267 0.0
C1150 C 0.53159 0.99597 0.1383 0.0
C1151 C 0.50722 0.99195 0.14996 0.0
C1152 C 0.49376 1.00715 0.13832 0.0
C1153 C 0.50405 0.02532 0.11478 0.0
H1154 H 0.14047 0.58539 0.20587 0.0
H1155 H 0.06441 0.52004 0.24192 0.0
H1156 H 0.11778 0.57454 0.15942 0.0
H1157 H 0.04156 0.50853 0.19524 0.0
H1158 H 0.02082 0.49508 0.0958 0.0
H1159 H 0.04676 0.49457 0.13915 0.0
H1160 H 0.07411 0.5864 0.14916 0.0
H1161 H 0.04779 0.58671 0.10669 0.0
C1162 C 0.11929 0.56759 0.20357 0.0
C1163 C 0.10415 0.55348 0.22729 0.0
C1164 C 0.10624 0.56158 0.17711 0.0
C1165 C 0.07787 0.54093 0.17384 0.0
C1166 C 0.0635 0.52443 0.19723 0.0
C1167 C 0.07657 0.53079 0.22385 0.0
C1168 C 0.03247 0.51509 0.10733 0.0
C1169 C 0.03226 0.54091 0.09804 0.0
C1170 C 0.04719 0.51477 0.13206 0.0
C1171 C 0.06254 0.54049 0.14732 0.0
C1172 C 0.06263 0.56633 0.13765 0.0
C1173 C 0.04744 0.56647 0.11347 0.0
H1174 H 0.48759 0.5345 0.26155 0.0
H1175 H 0.44602 0.57341 0.21235 0.0
H1176 H 0.49251 0.51254 0.21996 0.0
H1177 H 0.45195 0.55301 0.17029 0.0
H1178 H 0.46417 0.51271 0.09674 0.0
H1179 H 0.44518 0.51537 0.14037 0.0
H1180 H 0.52297 0.53381 0.18326 0.0
H1181 H 0.54073 0.52892 0.14001 0.0
C1182 C 0.47874 0.53747 0.2418 0.0
C1183 C 0.46627 0.55529 0.23991 0.0
C1184 C 0.48189 0.52537 0.21791 0.0
C1185 C 0.47321 0.53149 0.19152 0.0
C1186 C 0.45873 0.54753 0.19012 0.0
C1187 C 0.45523 0.55922 0.21416 0.0
C1188 C 0.47646 0.51556 0.11573 0.0
C1189 C 0.50345 0.51938 0.11513 0.0
C1190 C 0.46591 0.51791 0.14074 0.0
C1191 C 0.48239 0.52465 0.1656 0.0
C1192 C 0.50926 0.52785 0.16488 0.0
C1193 C 0.51962 0.52532 0.13998 0.0
H1194 H 0.89234 0.48004 0.85002 0.0
H1195 H 0.96456 0.5185 0.80002 0.0
H1196 H 0.92195 0.50125 0.89181 0.0
H1197 H 0.99454 0.54006 0.84157 0.0
H1198 H 0.03201 0.51913 0.92369 0.0
H1199 H 1.00547 0.51371 0.88006 0.0
H1200 H 0.95636 0.54488 0.91881 0.0
H1201 H 0.98302 0.54993 0.96258 0.0
C1202 C 0.91452 0.49418 0.84797 0.0
C1203 C 0.92632 0.498 0.82203 0.0
C1204 C 0.93151 0.50624 0.8718 0.0
C1205 C 0.96067 0.52206 0.87007 0.0
C1206 C 0.9722 0.5277 0.84365 0.0
C1207 C 0.95513 0.51575 0.81985 0.0
C1208 C 0.01592 0.52539 0.92273 0.0
C1209 C 0.00985 0.53542 0.94649 0.0
C1210 C 1.0008 0.52248 0.89766 0.0
C1211 C 0.97889 0.52909 0.89582 0.0
C1212 C 0.97318 0.53972 0.91948 0.0
C1213 C 0.98865 0.543 0.94451 0.0
H1214 H 0.58465 0.48601 0.85798 0.0
H1215 H 0.54111 0.52664 0.81541 0.0
H1216 H 0.57282 0.49626 0.9029 0.0
H1217 H 0.52939 0.53741 0.86006 0.0
H1218 H 0.47385 0.50047 0.93665 0.0
H1219 H 0.49569 0.50334 0.89306 0.0
H1220 H 0.57421 0.52979 0.93786 0.0
H1221 H 0.55179 0.52587 0.98141 0.0
C1222 C 0.57384 0.49858 0.85837 0.0
C1223 C 0.56398 0.50579 0.83336 0.0
C1224 C 0.56675 0.50419 0.88405 0.0
C1225 C 0.54956 0.51708 0.88514 0.0
C1226 C 0.54212 0.52689 0.86003 0.0
C1227 C 0.54927 0.5213 0.83446 0.0
C1228 C 0.49584 0.50723 0.93712 0.0
C1229 C 0.51134 0.51382 0.96245 0.0
C1230 C 0.50848 0.50914 0.9121 0.0
C1231 C 0.53692 0.5173 0.91177 0.0
C1232 C 0.55237 0.5237 0.93721 0.0
C1233 C 0.53969 0.522 0.96221 0.0
H1234 H 0.57383 0.13909 0.85641 0.0
H1235 H 0.56233 0.06043 0.81925 0.0
H1236 H 0.56056 0.11305 0.90143 0.0
H1237 H 0.5499 0.03445 0.86451 0.0
H1238 H 0.54472 1.01059 0.96276 0.0
H1239 H 0.56816 0.03777 0.92052 0.0
H1240 H 0.50734 0.06694 0.90725 0.0
H1241 H 0.48367 0.0394 0.94893 0.0
C1242 C 0.56944 0.11651 0.85825 0.0
C1243 C 0.56855 0.10146 0.83456 0.0
C1244 C 0.56179 0.10165 0.88382 0.0
C1245 C 0.55377 0.07172 0.88609 0.0
C1246 C 0.55598 0.05754 0.86312 0.0
C1247 C 0.56325 0.07237 0.83739 0.0
C1248 C 0.53627 0.02257 0.95051 0.0
C1249 C 0.51245 0.02295 0.95886 0.0
C1250 C 0.54967 0.03809 0.92656 0.0
C1251 C 0.53968 0.05464 0.91107 0.0
C1252 C 0.51557 0.05457 0.91918 0.0
C1253 C 0.50187 0.03859 0.94274 0.0
H1254 H 0.13818 0.22946 0.52274 0.0
H1255 H 0.12379 0.29049 0.56638 0.0
H1256 H 0.16257 0.26742 0.48689 0.0
H1257 H 0.14761 0.32833 0.53062 0.0
H1258 H 0.15418 0.3674 0.43989 0.0
H1259 H 0.13522 0.33324 0.47967 0.0
H1260 H 0.20528 0.31752 0.48088 0.0
H1261 H 0.22393 0.35126 0.44124 0.0
C1262 C 0.14066 0.25116 0.52471 0.0
C1263 C 0.12879 0.25714 0.54668 0.0
C1264 C 0.15448 0.2728 0.50436 0.0
C1265 C 0.15651 0.30061 0.50586 0.0
C1266 C 0.1458 0.3069 0.52871 0.0
C1267 C 0.13226 0.28539 0.54907 0.0
C1268 C 0.16541 0.35661 0.44879 0.0
C1269 C 0.19007 0.36139 0.43728 0.0
C1270 C 0.15478 0.33733 0.4716 0.0
C1271 C 0.16873 0.32259 0.48311 0.0
C1272 C 0.19398 0.32832 0.47218 0.0
C1273 C 0.20471 0.3478 0.44967 0.0
H1274 H 0.80927 0.919 0.53586 0.0
H1275 H 0.73448 0.85333 0.57369 0.0
H1276 H 0.78534 0.90783 0.48997 0.0
H1277 H 0.71043 0.84146 0.52755 0.0
H1278 H 0.68872 0.8279 0.42742 0.0
H1279 H 0.71593 0.82792 0.46998 0.0
H1280 H 0.73965 0.9185 0.48221 0.0
H1281 H 0.71204 0.91825 0.44057 0.0
C1282 C 0.7881 0.90108 0.53406 0.0
C1283 C 0.77368 0.88696 0.55815 0.0
C1284 C 0.77436 0.89486 0.50791 0.0
C1285 C 0.74601 0.87397 0.50531 0.0
C1286 C 0.73235 0.85753 0.52902 0.0
C1287 C 0.7461 0.8641 0.55533 0.0
C1288 C 0.69983 0.84775 0.43927 0.0
C1289 C 0.69819 0.87303 0.43085 0.0
C1290 C 0.71528 0.84773 0.46355 0.0
C1291 C 0.72993 0.87324 0.47923 0.0
C1292 C 0.72867 0.89859 0.47039 0.0
C1293 C 0.71276 0.8984 0.44667 0.0
H1294 H 0.10744 0.89992 0.5457 0.0
H1295 H 0.16169 0.87572 0.59367 0.0
H1296 H 0.11403 0.87896 0.50412 0.0
H1297 H 0.16815 0.85432 0.55253 0.0
H1298 H 0.21287 0.87848 0.46877 0.0
H1299 H 0.19539 0.88272 0.51246 0.0
H1300 H 0.11116 0.83665 0.47807 0.0
H1301 H 0.12906 0.83246 0.43404 0.0
C1302 C 0.11978 0.88891 0.54749 0.0
C1303 C 0.13421 0.88944 0.5726 0.0
C1304 C 0.12365 0.87699 0.52377 0.0
C1305 C 0.14206 0.86549 0.52492 0.0
C1306 C 0.15425 0.86351 0.55084 0.0
C1307 C 0.15041 0.87545 0.57442 0.0
C1308 C 0.19057 0.8688 0.47061 0.0
C1309 C 0.17228 0.855 0.44791 0.0
C1310 C 0.1805 0.87104 0.49577 0.0
C1311 C 0.15182 0.8598 0.4989 0.0
C1312 C 0.13337 0.84548 0.47635 0.0
C1313 C 0.14355 0.8429 0.45116 0.0
H1314 H 0.55257 0.8044 0.18517 0.0
H1315 H 0.62318 0.85145 0.13369 0.0
H1316 H 0.58209 0.82631 0.22672 0.0
H1317 H 0.65307 0.87413 0.17505 0.0
H1318 H 0.69768 0.85945 0.25481 0.0
H1319 H 0.66992 0.85249 0.21177 0.0
H1320 H 0.61224 0.86854 0.25495 0.0
H1321 H 0.63973 0.87434 0.29815 0.0
C1322 C 0.57432 0.82034 0.18284 0.0
C1323 C 0.58578 0.82632 0.15651 0.0
C1324 C 0.59127 0.83295 0.20654 0.0
C1325 C 0.6201 0.85173 0.20431 0.0
C1326 C 0.63106 0.85941 0.17756 0.0
C1327 C 0.61401 0.84679 0.15388 0.0
C1328 C 0.67939 0.86213 0.25494 0.0
C1329 C 0.67124 0.86821 0.27975 0.0
C1330 C 0.66355 0.85835 0.23021 0.0
C1331 C 0.63889 0.86017 0.22974 0.0
C1332 C 0.63114 0.86707 0.25449 0.0
C1333 C 0.64718 0.87101 0.27922 0.0
H1334 H 0.22951 0.86636 0.15773 0.0
H1335 H 0.244 0.80042 0.20003 0.0
H1336 H 0.21743 0.87819 0.202 0.0
H1337 H 0.23135 0.81152 0.24404 0.0
H1338 H 0.15126 0.80149 0.28795 0.0
H1339 H 0.17684 0.80076 0.2484 0.0
H1340 H 0.23609 0.8923 0.25942 0.0
H1341 H 0.21077 0.89286 0.29976 0.0
C1342 C 0.23158 0.85558 0.17677 0.0
C1343 C 0.23787 0.83267 0.17563 0.0
C1344 C 0.22436 0.86205 0.20201 0.0
C1345 C 0.22309 0.84544 0.22632 0.0
C1346 C 0.23205 0.82455 0.2256 0.0
C1347 C 0.23963 0.81846 0.20055 0.0
C1348 C 0.16972 0.82147 0.28195 0.0
C1349 C 0.179 0.84724 0.29685 0.0
C1350 C 0.18447 0.821 0.25947 0.0
C1351 C 0.2085 0.84645 0.25095 0.0
C1352 C 0.21767 0.8724 0.2656 0.0
C1353 C 0.20323 0.87268 0.28863 0.0
H1354 H 0.25328 0.42131 0.16918 0.0
H1355 H 0.17578 0.34691 0.14345 0.0
H1356 H 0.2476 0.40155 0.21648 0.0
H1357 H 0.16782 0.32872 0.1911 0.0
H1358 H 0.15268 0.3023 0.27997 0.0
H1359 H 0.17109 0.3106 0.23348 0.0
H1360 H 0.22275 0.40296 0.25103 0.0
H1361 H 0.20612 0.39365 0.29759 0.0
C1362 C 0.23545 0.4002 0.1735 0.0
C1363 C 0.21481 0.38573 0.15282 0.0
C1364 C 0.23165 0.38918 0.20087 0.0
C1365 C 0.20653 0.36418 0.20826 0.0
C1366 C 0.18742 0.34805 0.18675 0.0
C1367 C 0.19183 0.35851 0.15927 0.0
C1368 C 0.16821 0.32423 0.27367 0.0
C1369 C 0.17789 0.34741 0.29211 0.0
C1370 C 0.17876 0.32912 0.24701 0.0
C1371 C 0.19849 0.35758 0.23797 0.0
C1372 C 0.20827 0.38056 0.25698 0.0
C1373 C 0.19837 0.37539 0.28379 0.0
H1374 H 0.7718 0.57662 0.85516 0.0
H1375 H 0.83739 0.63908 0.90868 0.0
H1376 H 0.79221 0.60958 0.81489 0.0
H1377 H 0.85863 0.67145 0.86837 0.0
H1378 H 0.89653 0.69702 0.77764 0.0
H1379 H 0.87892 0.66688 0.81978 0.0
H1380 H 0.80012 0.66501 0.8046 0.0
H1381 H 0.81846 0.69682 0.76318 0.0
C1382 C 0.79096 0.59712 0.85805 0.0
C1383 C 0.80335 0.60529 0.88472 0.0
C1384 C 0.80244 0.61595 0.83525 0.0
C1385 C 0.82676 0.64298 0.83881 0.0
C1386 C 0.83989 0.6506 0.86527 0.0
C1387 C 0.82804 0.63197 0.88818 0.0
C1388 C 0.87564 0.69068 0.7836 0.0
C1389 C 0.85836 0.69832 0.76679 0.0
C1390 C 0.86561 0.67338 0.80759 0.0
C1391 C 0.83811 0.66331 0.81491 0.0
C1392 C 0.82125 0.6721 0.79888 0.0
C1393 C 0.83152 0.68992 0.77516 0.0
H1394 H 0.40272 0.18893 0.90815 0.0
H1395 H 0.47673 0.25238 0.86757 0.0
H1396 H 0.37712 0.17646 0.86279 0.0
H1397 H 0.45126 0.24055 0.82244 0.0
H1398 H 0.37401 0.25045 0.7779 0.0
H1399 H 0.40186 0.25055 0.81931 0.0
H1400 H 0.38498 0.16311 0.80185 0.0
H1401 H 0.35739 0.16321 0.75963 0.0
C1402 C 0.41381 0.19902 0.88936 0.0
C1403 C 0.44167 0.22144 0.89118 0.0
C1404 C 0.39918 0.19212 0.86349 0.0
C1405 C 0.41226 0.2077 0.83923 0.0
C1406 C 0.44077 0.22816 0.84083 0.0
C1407 C 0.45538 0.23475 0.86654 0.0
C1408 C 0.37621 0.23123 0.78282 0.0
C1409 C 0.36353 0.20682 0.76557 0.0
C1410 C 0.39223 0.23135 0.80644 0.0
C1411 C 0.39552 0.20685 0.81368 0.0
C1412 C 0.3827 0.18224 0.79664 0.0
C1413 C 0.36706 0.18236 0.77254 0.0
H1414 H 0.8245 0.20723 0.92824 0.0
H1415 H 0.77741 0.23749 0.87586 0.0
H1416 H 0.83089 0.18395 0.8885 0.0
H1417 H 0.78417 0.21492 0.83558 0.0
H1418 H 0.79902 0.16633 0.76781 0.0
H1419 H 0.7795 0.17171 0.81023 0.0
H1420 H 0.86148 0.21041 0.85031 0.0
H1421 H 0.8805 0.20485 0.80824 0.0
C1422 C 0.81461 0.20779 0.90831 0.0
C1423 C 0.80036 0.22381 0.9049 0.0
C1424 C 0.81849 0.19485 0.88551 0.0
C1425 C 0.8085 0.19807 0.85876 0.0
C1426 C 0.79201 0.21188 0.8559 0.0
C1427 C 0.78803 0.22471 0.87886 0.0
C1428 C 0.81257 0.17528 0.78587 0.0
C1429 C 0.84117 0.18499 0.78469 0.0
C1430 C 0.8015 0.1786 0.81013 0.0
C1431 C 0.81888 0.19129 0.83378 0.0
C1432 C 0.84733 0.20001 0.83274 0.0
C1433 C 0.85831 0.19702 0.80851 0.0
H1434 H 0.21829 0.13672 0.51877 0.0
H1435 H 0.28837 0.18982 0.46815 0.0
H1436 H 0.24676 0.15901 0.56077 0.0
H1437 H 0.31713 0.2129 0.50999 0.0
H1438 H 0.36306 0.19799 0.58882 0.0
H1439 H 0.33558 0.19158 0.5457 0.0
H1440 H 0.27473 0.20132 0.59009 0.0
H1441 H 0.30207 0.20671 0.63337 0.0
C1442 C 0.23964 0.15395 0.51676 0.0
C1443 C 0.25138 0.16152 0.49053 0.0
C1444 C 0.25595 0.16683 0.5407 0.0
C1445 C 0.28438 0.18749 0.5388 0.0
C1446 C 0.29543 0.19674 0.51221 0.0
C1447 C 0.27902 0.18384 0.48828 0.0
C1448 C 0.34414 0.19948 0.5892 0.0
C1449 C 0.33501 0.20358 0.61435 0.0
C1450 C 0.32846 0.19601 0.56445 0.0
C1451 C 0.30299 0.19614 0.56431 0.0
C1452 C 0.29429 0.20121 0.58942 0.0
C1453 C 0.31018 0.20488 0.61419 0.0
H1454 H 0.91802 0.14684 0.53173 0.0
H1455 H 0.88118 0.19236 0.48532 0.0
H1456 H 0.90742 0.16078 0.57546 0.0
H1457 H 0.87002 0.20612 0.52888 0.0
H1458 H 0.89095 0.20083 0.65035 0.0
H1459 H 0.91296 0.20178 0.60729 0.0
H1460 H 0.83369 0.17033 0.56275 0.0
H1461 H 0.81186 0.16915 0.60593 0.0
C1462 C 0.90898 0.16118 0.53104 0.0
C1463 C 0.90087 0.16906 0.50533 0.0
C1464 C 0.90261 0.16891 0.55599 0.0
C1465 C 0.88752 0.18421 0.55561 0.0
C1466 C 0.88145 0.19412 0.52984 0.0
C1467 C 0.88824 0.18675 0.50494 0.0
C1468 C 0.87843 0.19468 0.63133 0.0
C1469 C 0.8498 0.18517 0.63156 0.0
C1470 C 0.89096 0.19504 0.60666 0.0
C1471 C 0.87514 0.18641 0.58152 0.0
C1472 C 0.84658 0.1776 0.58166 0.0
C1473 C 0.83403 0.17672 0.60642 0.0
H1474 H 0.93621 0.79831 0.54066 0.0
H1475 H 0.87504 0.73838 0.4823 0.0
H1476 H 0.91943 0.75952 0.57698 0.0
H1477 H 0.85767 0.69967 0.51849 0.0
H1478 H 0.80944 0.68229 0.60415 0.0
H1479 H 0.83287 0.70663 0.56132 0.0
H1480 H 0.90665 0.70382 0.59223 0.0
H1481 H 0.88253 0.6779 0.63446 0.0
C1482 C 0.9201 0.77639 0.53539 0.0
C1483 C 0.90666 0.77106 0.50908 0.0
C1484 C 0.91039 0.75429 0.55605 0.0
C1485 C 0.887 0.72686 0.55047 0.0
C1486 C 0.8756 0.72072 0.52325 0.0
C1487 C 0.88557 0.74266 0.50261 0.0
C1488 C 0.83031 0.68605 0.60138 0.0
C1489 C 0.84458 0.6791 0.62275 0.0
C1490 C 0.84371 0.69993 0.57694 0.0
C1491 C 0.8716 0.70721 0.57372 0.0
C1492 C 0.88523 0.69858 0.5944 0.0
C1493 C 0.87158 0.68412 0.61855 0.0
loop_
_geom_bond_atom_site_label_1
_geom_bond_atom_site_label_2
_geom_bond_distance
_geom_bond_site_symmetry_2
_ccdc_geom_bond_type
C0 N1 1.317 . S
C0 N2 1.348 . S
C0 C3 1.485 . S
N1 C0 1.317 . S
N1 N5 1.370 . S
N2 C0 1.348 . S
N2 C4 1.346 . S
C3 C0 1.485 . S
C3 H7 0.960 . S
C3 H8 0.961 . S
C3 H9 0.960 . S
C4 N2 1.346 . S
C4 N5 1.307 . S
C4 C6 1.486 . S
N5 N1 1.370 . S
N5 C4 1.307 . S
C6 C4 1.486 . S
C6 H10 0.960 . S
C6 H11 0.960 . S
C6 H12 0.959 . S
H7 C3 0.960 . S
H8 C3 0.961 . S
H9 C3 0.960 . S
H10 C6 0.960 . S
H11 C6 0.960 . S
H12 C6 0.959 . S
C13 N14 1.317 . S
C13 N15 1.348 . S
C13 C16 1.485 . S
N14 C13 1.317 . S
N14 N18 1.370 . S
N15 C13 1.348 . S
N15 C17 1.346 . S
C16 C13 1.485 . S
C16 H20 0.960 . S
C16 H21 0.961 . S
C16 H22 0.960 . S
C17 N15 1.346 . S
C17 N18 1.307 . S
C17 C19 1.486 . S
N18 N14 1.370 . S
N18 C17 1.307 . S
C19 C17 1.486 . S
C19 H23 0.960 . S
C19 H24 0.960 . S
C19 H25 0.959 . S
H20 C16 0.960 . S
H21 C16 0.961 . S
H22 C16 0.960 . S
H23 C19 0.960 . S
H24 C19 0.960 . S
H25 C19 0.959 . S
C26 N27 1.317 . S
C26 N28 1.348 . S
C26 C29 1.485 . S
N27 C26 1.317 . S
N27 N31 1.370 . S
N28 C26 1.348 . S
N28 C30 1.346 . S
C29 C26 1.485 . S
C29 H33 0.960 . S
C29 H34 0.961 . S
C29 H35 0.960 . S
C30 N28 1.346 . S
C30 N31 1.307 . S
C30 C32 1.486 . S
N31 N27 1.370 . S
N31 C30 1.307 . S
C32 C30 1.486 . S
C32 H36 0.960 . S
C32 H37 0.960 . S
C32 H38 0.959 . S
H33 C29 0.960 . S
H34 C29 0.961 . S
H35 C29 0.960 . S
H36 C32 0.960 . S
H37 C32 0.960 . S
H38 C32 0.959 . S
C39 N40 1.317 . S
C39 N41 1.348 . S
C39 C42 1.485 . S
N40 C39 1.317 . S
N40 N44 1.370 . S
N41 C39 1.348 . S
N41 C43 1.346 . S
C42 C39 1.485 . S
C42 H46 0.960 . S
C42 H47 0.961 . S
C42 H48 0.960 . S
C43 N41 1.346 . S
C43 N44 1.307 . S
C43 C45 1.486 . S
N44 N40 1.370 . S
N44 C43 1.307 . S
C45 C43 1.486 . S
C45 H49 0.960 . S
C45 H50 0.960 . S
C45 H51 0.959 . S
H46 C42 0.960 . S
H47 C42 0.961 . S
H48 C42 0.960 . S
H49 C45 0.960 . S
H50 C45 0.960 . S
H51 C45 0.959 . S
C52 N53 1.317 . S
C52 N54 1.348 . S
C52 C55 1.485 . S
N53 C52 1.317 . S
N53 N57 1.370 . S
N54 C52 1.348 . S
N54 C56 1.346 . S
C55 C52 1.485 . S
C55 H59 0.960 . S
C55 H60 0.961 . S
C55 H61 0.960 . S
C56 N54 1.346 . S
C56 N57 1.307 . S
C56 C58 1.486 . S
N57 N53 1.370 . S
N57 C56 1.307 . S
C58 C56 1.486 . S
C58 H62 0.960 . S
C58 H63 0.960 . S
C58 H64 0.959 . S
H59 C55 0.960 . S
H60 C55 0.961 . S
H61 C55 0.960 . S
H62 C58 0.960 . S
H63 C58 0.960 . S
H64 C58 0.959 . S
C65 N66 1.317 . S
C65 N67 1.348 . S
C65 C68 1.485 . S
N66 C65 1.317 . S
N66 N70 1.370 . S
N67 C65 1.348 . S
N67 C69 1.346 . S
C68 C65 1.485 . S
C68 H72 0.960 . S
C68 H73 0.961 . S
C68 H74 0.960 . S
C69 N67 1.346 . S
C69 N70 1.307 . S
C69 C71 1.486 . S
N70 N66 1.370 . S
N70 C69 1.307 . S
C71 C69 1.486 . S
C71 H75 0.960 . S
C71 H76 0.960 . S
C71 H77 0.959 . S
H72 C68 0.960 . S
H73 C68 0.961 . S
H74 C68 0.960 . S
H75 C71 0.960 . S
H76 C71 0.960 . S
H77 C71 0.959 . S
C78 N79 1.317 . S
C78 N80 1.348 . S
C78 C81 1.485 . S
N79 C78 1.317 . S
N79 N83 1.370 . S
N80 C78 1.348 . S
N80 C82 1.346 . S
C81 C78 1.485 . S
C81 H85 0.960 . S
C81 H86 0.961 . S
C81 H87 0.960 . S
C82 N80 1.346 . S
C82 N83 1.307 . S
C82 C84 1.486 . S
N83 N79 1.370 . S
N83 C82 1.307 . S
C84 C82 1.486 . S
C84 H88 0.960 . S
C84 H89 0.960 . S
C84 H90 0.959 . S
H85 C81 0.960 . S
H86 C81 0.961 . S
H87 C81 0.960 . S
H88 C84 0.960 . S
H89 C84 0.960 . S
H90 C84 0.959 . S
C91 N92 1.317 . S
C91 N93 1.348 . S
C91 C94 1.485 . S
N92 C91 1.317 . S
N92 N96 1.370 . S
N93 C91 1.348 . S
N93 C95 1.346 . S
C94 C91 1.485 . S
C94 H98 0.960 . S
C94 H99 0.961 . S
C94 H100 0.960 . S
C95 N93 1.346 . S
C95 N96 1.307 . S
C95 C97 1.486 . S
N96 N92 1.370 . S
N96 C95 1.307 . S
C97 C95 1.486 . S
C97 H101 0.960 . S
C97 H102 0.960 . S
C97 H103 0.959 . S
H98 C94 0.960 . S
H99 C94 0.961 . S
H100 C94 0.960 . S
H101 C97 0.960 . S
H102 C97 0.960 . S
H103 C97 0.959 . S
C104 N105 1.317 . S
C104 N106 1.348 . S
C104 C107 1.485 . S
N105 C104 1.317 . S
N105 N109 1.370 . S
N106 C104 1.348 . S
N106 C108 1.346 . S
C107 C104 1.485 . S
C107 H111 0.960 . S
C107 H112 0.961 . S
C107 H113 0.960 . S
C108 N106 1.346 . S
C108 N109 1.307 . S
C108 C110 1.486 . S
N109 N105 1.370 . S
N109 C108 1.307 . S
C110 C108 1.486 . S
C110 H114 0.960 . S
C110 H115 0.960 . S
C110 H116 0.959 . S
H111 C107 0.960 . S
H112 C107 0.961 . S
H113 C107 0.960 . S
H114 C110 0.960 . S
H115 C110 0.960 . S
H116 C110 0.959 . S
C117 N118 1.317 . S
C117 N119 1.348 . S
C117 C120 1.485 . S
N118 C117 1.317 . S
N118 N122 1.370 . S
N119 C117 1.348 . S
N119 C121 1.346 . S
C120 C117 1.485 . S
C120 H124 0.960 . S
C120 H125 0.961 . S
C120 H126 0.960 . S
C121 N119 1.346 . S
C121 N122 1.307 . S
C121 C123 1.486 . S
N122 N118 1.370 . S
N122 C121 1.307 . S
C123 C121 1.486 . S
C123 H127 0.960 . S
C123 H128 0.960 . S
C123 H129 0.959 . S
H124 C120 0.960 . S
H125 C120 0.961 . S
H126 C120 0.960 . S
H127 C123 0.960 . S
H128 C123 0.960 . S
H129 C123 0.959 . S
C130 N131 1.317 . S
C130 N132 1.348 . S
C130 C133 1.485 1_556 S
N131 C130 1.317 . S
N131 N135 1.370 . S
N132 C130 1.348 . S
N132 C134 1.346 . S
C133 C130 1.485 1_554 S
C133 H137 0.960 . S
C133 H138 0.961 . S
C133 H139 0.960 . S
C134 N132 1.346 . S
C134 N135 1.307 . S
C134 C136 1.486 . S
N135 N131 1.370 . S
N135 C134 1.307 . S
C136 C134 1.486 . S
C136 H140 0.960 . S
C136 H141 0.960 . S
C136 H142 0.959 . S
H137 C133 0.960 . S
H138 C133 0.961 . S
H139 C133 0.960 . S
H140 C136 0.960 . S
H141 C136 0.960 . S
H142 C136 0.959 . S
C143 N144 1.317 . S
C143 N145 1.348 . S
C143 C146 1.485 1_556 S
N144 C143 1.317 . S
N144 N148 1.370 . S
N145 C143 1.348 . S
N145 C147 1.346 . S
C146 C143 1.485 1_554 S
C146 H150 0.960 . S
C146 H151 0.961 . S
C146 H152 0.960 . S
C147 N145 1.346 . S
C147 N148 1.307 . S
C147 C149 1.486 . S
N148 N144 1.370 . S
N148 C147 1.307 . S
C149 C147 1.486 . S
C149 H153 0.960 . S
C149 H154 0.960 . S
C149 H155 0.959 . S
H150 C146 0.960 . S
H151 C146 0.961 . S
H152 C146 0.960 . S
H153 C149 0.960 . S
H154 C149 0.960 . S
H155 C149 0.959 . S
C156 N157 1.317 . S
C156 N158 1.348 . S
C156 C159 1.485 . S
N157 C156 1.317 . S
N157 N161 1.370 . S
N158 C156 1.348 . S
N158 C160 1.346 . S
C159 C156 1.485 . S
C159 H163 0.960 . S
C159 H164 0.961 . S
C159 H165 0.960 . S
C160 N158 1.346 . S
C160 N161 1.307 . S
C160 C162 1.486 . S
N161 N157 1.370 . S
N161 C160 1.307 . S
C162 C160 1.486 . S
C162 H166 0.960 . S
C162 H167 0.960 . S
C162 H168 0.959 . S
H163 C159 0.960 . S
H164 C159 0.961 . S
H165 C159 0.960 . S
H166 C162 0.960 . S
H167 C162 0.960 . S
H168 C162 0.959 . S
C169 N170 1.317 . S
C169 N171 1.348 . S
C169 C172 1.485 . S
N170 C169 1.317 . S
N170 N174 1.370 . S
N171 C169 1.348 . S
N171 C173 1.346 . S
C172 C169 1.485 . S
C172 H176 0.960 . S
C172 H177 0.961 . S
C172 H178 0.960 . S
C173 N171 1.346 . S
C173 N174 1.307 . S
C173 C175 1.486 . S
N174 N170 1.370 . S
N174 C173 1.307 . S
C175 C173 1.486 . S
C175 H179 0.960 . S
C175 H180 0.960 . S
C175 H181 0.959 . S
H176 C172 0.960 . S
H177 C172 0.961 . S
H178 C172 0.960 . S
H179 C175 0.960 . S
H180 C175 0.960 . S
H181 C175 0.959 . S
C182 N183 1.317 . S
C182 N184 1.348 . S
C182 C185 1.485 . S
N183 C182 1.317 . S
N183 N187 1.370 . S
N184 C182 1.348 . S
N184 C186 1.346 . S
C185 C182 1.485 . S
C185 H189 0.960 . S
C185 H190 0.961 . S
C185 H191 0.960 . S
C186 N184 1.346 . S
C186 N187 1.307 . S
C186 C188 1.486 . S
N187 N183 1.370 . S
N187 C186 1.307 . S
C188 C186 1.486 . S
C188 H192 0.960 . S
C188 H193 0.960 . S
C188 H194 0.959 . S
H189 C185 0.960 . S
H190 C185 0.961 . S
H191 C185 0.960 . S
H192 C188 0.960 . S
H193 C188 0.960 . S
H194 C188 0.959 . S
C195 N196 1.317 . S
C195 N197 1.348 . S
C195 C198 1.485 . S
N196 C195 1.317 . S
N196 N200 1.370 . S
N197 C195 1.348 . S
N197 C199 1.346 . S
C198 C195 1.485 . S
C198 H202 0.960 . S
C198 H203 0.961 . S
C198 H204 0.960 . S
C199 N197 1.346 . S
C199 N200 1.307 . S
C199 C201 1.486 . S
N200 N196 1.370 . S
N200 C199 1.307 . S
C201 C199 1.486 . S
C201 H205 0.960 . S
C201 H206 0.960 . S
C201 H207 0.959 . S
H202 C198 0.960 . S
H203 C198 0.961 . S
H204 C198 0.960 . S
H205 C201 0.960 . S
H206 C201 0.960 . S
H207 C201 0.959 . S
C208 N209 1.317 . S
C208 N210 1.348 . S
C208 C211 1.485 . S
N209 C208 1.317 . S
N209 N213 1.370 . S
N210 C208 1.348 . S
N210 C212 1.346 . S
C211 C208 1.485 . S
C211 H215 0.960 . S
C211 H216 0.961 . S
C211 H217 0.960 . S
C212 N210 1.346 . S
C212 N213 1.307 . S
C212 C214 1.486 . S
N213 N209 1.370 . S
N213 C212 1.307 . S
C214 C212 1.486 . S
C214 H218 0.960 . S
C214 H219 0.960 . S
C214 H220 0.959 . S
H215 C211 0.960 . S
H216 C211 0.961 . S
H217 C211 0.960 . S
H218 C214 0.960 . S
H219 C214 0.960 . S
H220 C214 0.959 . S
C221 N222 1.317 . S
C221 N223 1.348 . S
C221 C224 1.485 . S
N222 C221 1.317 . S
N222 N226 1.370 . S
N223 C221 1.348 . S
N223 C225 1.346 . S
C224 C221 1.485 . S
C224 H228 0.960 . S
C224 H229 0.961 . S
C224 H230 0.960 . S
C225 N223 1.346 . S
C225 N226 1.307 . S
C225 C227 1.486 . S
N226 N222 1.370 . S
N226 C225 1.307 . S
C227 C225 1.486 . S
C227 H231 0.960 . S
C227 H232 0.960 . S
C227 H233 0.959 . S
H228 C224 0.960 . S
H229 C224 0.961 . S
H230 C224 0.960 . S
H231 C227 0.960 . S
H232 C227 0.960 . S
H233 C227 0.959 . S
Tb234 O237 2.453 . S
Tb234 O238 2.596 1_545 S
Tb234 O239 2.374 1_545 S
Tb234 O247 2.343 1_554 S
Tb234 O249 2.353 . S
Tb234 O251 2.427 . S
Tb234 O252 2.513 . S
C235 O239 1.251 . S
C235 O241 1.263 . S
Tb236 O238 2.343 . S
Tb236 O241 2.353 . S
Tb236 O244 2.427 . S
Tb236 O245 2.513 . S
Tb236 O246 2.458 1_554 S
Tb236 O247 2.596 1_564 S
Tb236 O248 2.374 1_565 S
O237 Tb234 2.453 . S
O237 C253 1.245 1_545 S
O238 Tb234 2.596 1_565 S
O238 Tb236 2.343 . S
O238 C253 1.259 . S
O239 Tb234 2.374 1_565 S
O239 C235 1.251 . S
C240 O244 1.275 . S
C240 O245 1.246 . S
O241 C235 1.263 . S
O241 Tb236 2.353 . S
C242 O246 1.229 1_545 S
C242 O247 1.259 . S
C243 O248 1.250 . S
C243 O249 1.263 . S
O244 Tb236 2.427 . S
O244 C240 1.275 . S
O245 Tb236 2.513 . S
O245 C240 1.246 . S
O246 Tb236 2.458 1_556 S
O246 C242 1.229 1_565 S
O247 Tb234 2.343 1_556 S
O247 Tb236 2.596 1_546 S
O247 C242 1.259 . S
O248 Tb236 2.374 1_545 S
O248 C243 1.250 . S
O249 Tb234 2.353 . S
O249 C243 1.263 . S
C250 O251 1.275 . S
C250 O252 1.246 . S
O251 Tb234 2.427 . S
O251 C250 1.275 . S
O252 Tb234 2.513 . S
O252 C250 1.246 . S
C253 O237 1.245 1_565 S
C253 O238 1.259 . S
Tb254 O257 2.453 . S
Tb254 O258 2.596 1_655 S
Tb254 O259 2.374 1_655 S
Tb254 O267 2.343 1_554 S
Tb254 O269 2.353 . S
Tb254 O271 2.427 1_554 S
Tb254 O272 2.513 1_554 S
C255 O259 1.251 . S
C255 O261 1.263 . S
Tb256 O258 2.343 1_556 S
Tb256 O261 2.353 1_556 S
Tb256 O264 2.427 1_556 S
Tb256 O265 2.513 1_556 S
Tb256 O266 2.453 . S
Tb256 O267 2.596 1_455 S
Tb256 O268 2.374 1_456 S
O257 Tb254 2.453 . S
O257 C273 1.245 1_655 S
O258 Tb254 2.596 1_455 S
O258 Tb256 2.343 1_554 S
O258 C273 1.259 . S
O259 Tb254 2.374 1_455 S
O259 C255 1.251 . S
C260 O264 1.275 . S
C260 O265 1.246 . S
O261 C255 1.263 . S
O261 Tb256 2.353 1_554 S
C262 O266 1.245 . S
C262 O267 1.259 1_455 S
C263 O268 1.250 . S
C263 O269 1.263 . S
O264 Tb256 2.427 1_554 S
O264 C260 1.275 . S
O265 Tb256 2.513 1_554 S
O265 C260 1.246 . S
O266 Tb256 2.453 . S
O266 C262 1.245 . S
O267 Tb254 2.343 1_556 S
O267 Tb256 2.596 1_655 S
O267 C262 1.259 1_655 S
O268 Tb256 2.374 1_654 S
O268 C263 1.250 . S
O269 Tb254 2.353 . S
O269 C263 1.263 . S
C270 O271 1.275 . S
C270 O272 1.246 . S
O271 Tb254 2.427 1_556 S
O271 C270 1.275 . S
O272 Tb254 2.513 1_556 S
O272 C270 1.246 . S
C273 O257 1.245 1_455 S
C273 O258 1.259 . S
Tb274 O277 2.453 1_554 S
Tb274 O278 2.596 . S
Tb274 O279 2.374 . S
Tb274 O287 2.343 . S
Tb274 O289 2.353 . S
Tb274 O291 2.427 . S
Tb274 O292 2.513 . S
C275 O279 1.251 . S
C275 O281 1.263 . S
Tb276 O278 2.343 . S
Tb276 O281 2.353 . S
Tb276 O284 2.427 . S
Tb276 O285 2.513 . S
Tb276 O286 2.453 . S
Tb276 O287 2.596 . S
Tb276 O288 2.374 . S
O277 Tb274 2.453 1_556 S
O277 C293 1.245 . S
O278 Tb274 2.596 . S
O278 Tb276 2.343 . S
O278 C293 1.259 1_554 S
O279 Tb274 2.374 . S
O279 C275 1.251 . S
C280 O284 1.275 . S
C280 O285 1.246 . S
O281 C275 1.263 . S
O281 Tb276 2.353 . S
C282 O286 1.245 . S
C282 O287 1.259 . S
C283 O288 1.250 . S
C283 O289 1.263 . S
O284 Tb276 2.427 . S
O284 C280 1.275 . S
O285 Tb276 2.513 . S
O285 C280 1.246 . S
O286 Tb276 2.453 . S
O286 C282 1.245 . S
O287 Tb274 2.343 . S
O287 Tb276 2.596 . S
O287 C282 1.259 . S
O288 Tb276 2.374 . S
O288 C283 1.250 . S
O289 Tb274 2.353 . S
O289 C283 1.263 . S
C290 O291 1.275 . S
C290 O292 1.246 . S
O291 Tb274 2.427 . S
O291 C290 1.275 . S
O292 Tb274 2.513 . S
O292 C290 1.246 . S
C293 O277 1.245 . S
C293 O278 1.259 1_556 S
Tb294 O297 2.453 . S
Tb294 O298 2.596 . S
Tb294 O299 2.374 . S
Tb294 O307 2.343 . S
Tb294 O309 2.353 . S
Tb294 O311 2.427 . S
Tb294 O312 2.513 . S
C295 O299 1.251 . S
C295 O301 1.263 . S
Tb296 O298 2.343 . S
Tb296 O301 2.353 . S
Tb296 O304 2.427 . S
Tb296 O305 2.513 . S
Tb296 O306 2.453 . S
Tb296 O307 2.596 . S
Tb296 O308 2.374 . S
O297 Tb294 2.453 . S
O297 C313 1.245 . S
O298 Tb294 2.596 . S
O298 Tb296 2.343 . S
O298 C313 1.259 . S
O299 Tb294 2.374 . S
O299 C295 1.251 . S
C300 O304 1.275 . S
C300 O305 1.246 . S
O301 C295 1.263 . S
O301 Tb296 2.353 . S
C302 O306 1.245 . S
C302 O307 1.259 . S
C303 O308 1.250 . S
C303 O309 1.263 . S
O304 Tb296 2.427 . S
O304 C300 1.275 . S
O305 Tb296 2.513 . S
O305 C300 1.246 . S
O306 Tb296 2.453 . S
O306 C302 1.245 . S
O307 Tb294 2.343 . S
O307 Tb296 2.596 . S
O307 C302 1.259 . S
O308 Tb296 2.374 . S
O308 C303 1.250 . S
O309 Tb294 2.353 . S
O309 C303 1.263 . S
C310 O311 1.275 . S
C310 O312 1.246 . S
O311 Tb294 2.427 . S
O311 C310 1.275 . S
O312 Tb294 2.513 . S
O312 C310 1.246 . S
C313 O297 1.245 . S
C313 O298 1.259 . S
Tb314 O317 2.453 . S
Tb314 O318 2.596 . S
Tb314 O319 2.374 . S
Tb314 O327 2.343 . S
Tb314 O329 2.353 . S
Tb314 O331 2.427 . S
Tb314 O332 2.513 . S
C315 O319 1.251 . S
C315 O321 1.263 . S
Tb316 O318 2.343 . S
Tb316 O321 2.353 . S
Tb316 O324 2.427 . S
Tb316 O325 2.513 . S
Tb316 O326 2.453 . S
Tb316 O327 2.596 . S
Tb316 O328 2.374 . S
O317 Tb314 2.453 . S
O317 C333 1.245 . S
O318 Tb314 2.596 . S
O318 Tb316 2.343 . S
O318 C333 1.259 . S
O319 Tb314 2.374 . S
O319 C315 1.251 . S
C320 O324 1.275 . S
C320 O325 1.246 . S
O321 C315 1.263 . S
O321 Tb316 2.353 . S
C322 O326 1.245 . S
C322 O327 1.259 . S
C323 O328 1.250 . S
C323 O329 1.263 . S
O324 Tb316 2.427 . S
O324 C320 1.275 . S
O325 Tb316 2.513 . S
O325 C320 1.246 . S
O326 Tb316 2.453 . S
O326 C322 1.245 . S
O327 Tb314 2.343 . S
O327 Tb316 2.596 . S
O327 C322 1.259 . S
O328 Tb316 2.374 . S
O328 C323 1.250 . S
O329 Tb314 2.353 . S
O329 C323 1.263 . S
C330 O331 1.275 . S
C330 O332 1.246 . S
O331 Tb314 2.427 . S
O331 C330 1.275 . S
O332 Tb314 2.513 . S
O332 C330 1.246 . S
C333 O317 1.245 . S
C333 O318 1.259 . S
Tb334 O337 2.453 . S
Tb334 O338 2.596 . S
Tb334 O339 2.374 . S
Tb334 O347 2.343 . S
Tb334 O349 2.353 . S
Tb334 O351 2.427 . S
Tb334 O352 2.513 . S
C335 O339 1.251 . S
C335 O341 1.263 . S
Tb336 O338 2.343 . S
Tb336 O341 2.353 . S
Tb336 O344 2.427 . S
Tb336 O345 2.513 . S
Tb336 O346 2.453 . S
Tb336 O347 2.596 . S
Tb336 O348 2.374 . S
O337 Tb334 2.453 . S
O337 C353 1.245 . S
O338 Tb334 2.596 . S
O338 Tb336 2.343 . S
O338 C353 1.259 . S
O339 Tb334 2.374 . S
O339 C335 1.251 . S
C340 O344 1.275 . S
C340 O345 1.246 . S
O341 C335 1.263 . S
O341 Tb336 2.353 . S
C342 O346 1.245 . S
C342 O347 1.259 . S
C343 O348 1.250 . S
C343 O349 1.263 . S
O344 Tb336 2.427 . S
O344 C340 1.275 . S
O345 Tb336 2.513 . S
O345 C340 1.246 . S
O346 Tb336 2.453 . S
O346 C342 1.245 . S
O347 Tb334 2.343 . S
O347 Tb336 2.596 . S
O347 C342 1.259 . S
O348 Tb336 2.374 . S
O348 C343 1.250 . S
O349 Tb334 2.353 . S
O349 C343 1.263 . S
C350 O351 1.275 . S
C350 O352 1.246 . S
O351 Tb334 2.427 . S
O351 C350 1.275 . S
O352 Tb334 2.513 . S
O352 C350 1.246 . S
C353 O337 1.245 . S
C353 O338 1.259 . S
Tb354 O357 2.453 . S
Tb354 O358 2.596 . S
Tb354 O359 2.374 . S
Tb354 O367 2.343 . S
Tb354 O369 2.353 . S
Tb354 O371 2.427 . S
Tb354 O372 2.513 . S
C355 O359 1.251 . S
C355 O361 1.263 . S
Tb356 O358 2.343 . S
Tb356 O361 2.353 . S
Tb356 O364 2.427 . S
Tb356 O365 2.513 . S
Tb356 O366 2.453 . S
Tb356 O367 2.596 . S
Tb356 O368 2.374 . S
O357 Tb354 2.453 . S
O357 C373 1.245 . S
O358 Tb354 2.596 . S
O358 Tb356 2.343 . S
O358 C373 1.259 . S
O359 Tb354 2.374 . S
O359 C355 1.251 . S
C360 O364 1.275 . S
C360 O365 1.246 . S
O361 C355 1.263 . S
O361 Tb356 2.353 . S
C362 O366 1.245 . S
C362 O367 1.259 . S
C363 O368 1.250 . S
C363 O369 1.263 . S
O364 Tb356 2.427 . S
O364 C360 1.275 . S
O365 Tb356 2.513 . S
O365 C360 1.246 . S
O366 Tb356 2.453 . S
O366 C362 1.245 . S
O367 Tb354 2.343 . S
O367 Tb356 2.596 . S
O367 C362 1.259 . S
O368 Tb356 2.374 . S
O368 C363 1.250 . S
O369 Tb354 2.353 . S
O369 C363 1.263 . S
C370 O371 1.275 . S
C370 O372 1.246 . S
O371 Tb354 2.427 . S
O371 C370 1.275 . S
O372 Tb354 2.513 . S
O372 C370 1.246 . S
C373 O357 1.245 . S
C373 O358 1.259 . S
Tb374 O377 2.453 . S
Tb374 O378 2.596 . S
Tb374 O379 2.374 . S
Tb374 O387 2.343 . S
Tb374 O389 2.353 . S
Tb374 O391 2.427 . S
Tb374 O392 2.513 . S
C375 O379 1.251 . S
C375 O381 1.263 . S
Tb376 O378 2.343 . S
Tb376 O381 2.353 . S
Tb376 O384 2.427 . S
Tb376 O385 2.513 . S
Tb376 O386 2.453 . S
Tb376 O387 2.596 . S
Tb376 O388 2.374 . S
O377 Tb374 2.453 . S
O377 C393 1.245 . S
O378 Tb374 2.596 . S
O378 Tb376 2.343 . S
O378 C393 1.259 . S
O379 Tb374 2.374 . S
O379 C375 1.251 . S
C380 O384 1.275 . S
C380 O385 1.246 . S
O381 C375 1.263 . S
O381 Tb376 2.353 . S
C382 O386 1.245 . S
C382 O387 1.259 . S
C383 O388 1.250 . S
C383 O389 1.263 . S
O384 Tb376 2.427 . S
O384 C380 1.275 . S
O385 Tb376 2.513 . S
O385 C380 1.246 . S
O386 Tb376 2.453 . S
O386 C382 1.245 . S
O387 Tb374 2.343 . S
O387 Tb376 2.596 . S
O387 C382 1.259 . S
O388 Tb376 2.374 . S
O388 C383 1.250 . S
O389 Tb374 2.353 . S
O389 C383 1.263 . S
C390 O391 1.275 . S
C390 O392 1.246 . S
O391 Tb374 2.427 . S
O391 C390 1.275 . S
O392 Tb374 2.513 . S
O392 C390 1.246 . S
C393 O377 1.245 . S
C393 O378 1.259 . S
Tb394 O397 2.453 . S
Tb394 O398 2.596 . S
Tb394 O399 2.374 . S
Tb394 O407 2.343 . S
Tb394 O409 2.353 . S
Tb394 O411 2.427 . S
Tb394 O412 2.513 . S
C395 O399 1.251 . S
C395 O401 1.263 . S
Tb396 O398 2.343 . S
Tb396 O401 2.353 . S
Tb396 O404 2.427 . S
Tb396 O405 2.513 . S
Tb396 O406 2.453 . S
Tb396 O407 2.596 . S
Tb396 O408 2.374 . S
O397 Tb394 2.453 . S
O397 C413 1.245 . S
O398 Tb394 2.596 . S
O398 Tb396 2.343 . S
O398 C413 1.259 . S
O399 Tb394 2.374 . S
O399 C395 1.251 . S
C400 O404 1.275 . S
C400 O405 1.246 . S
O401 C395 1.263 . S
O401 Tb396 2.353 . S
C402 O406 1.245 . S
C402 O407 1.259 . S
C403 O408 1.250 . S
C403 O409 1.263 . S
O404 Tb396 2.427 . S
O404 C400 1.275 . S
O405 Tb396 2.513 . S
O405 C400 1.246 . S
O406 Tb396 2.453 . S
O406 C402 1.245 . S
O407 Tb394 2.343 . S
O407 Tb396 2.596 . S
O407 C402 1.259 . S
O408 Tb396 2.374 . S
O408 C403 1.250 . S
O409 Tb394 2.353 . S
O409 C403 1.263 . S
C410 O411 1.275 . S
C410 O412 1.246 . S
O411 Tb394 2.427 . S
O411 C410 1.275 . S
O412 Tb394 2.513 . S
O412 C410 1.246 . S
C413 O397 1.245 . S
C413 O398 1.259 . S
H414 C422 0.950 . S
H415 C427 0.950 . S
H416 C424 0.950 . S
H417 C426 0.950 . S
H418 C428 0.950 . S
H419 C430 0.950 . S
H420 C432 0.950 . S
H421 C433 0.950 . S
C422 H414 0.950 . S
C422 C423 1.386 . S
C422 C424 1.391 . S
C423 C422 1.386 . S
C423 C427 1.393 . S
C424 H416 0.950 . S
C424 C422 1.391 . S
C424 C425 1.400 . S
C425 C424 1.400 . S
C425 C426 1.398 . S
C425 C431 1.491 . S
C426 H417 0.950 . S
C426 C425 1.398 . S
C426 C427 1.391 . S
C427 H415 0.950 . S
C427 C423 1.393 . S
C427 C426 1.391 . S
C428 H418 0.950 . S
C428 C429 1.386 . S
C428 C430 1.391 . S
C429 C428 1.386 . S
C429 C433 1.393 . S
C430 H419 0.950 . S
C430 C428 1.391 . S
C430 C431 1.400 . S
C431 C425 1.491 . S
C431 C430 1.400 . S
C431 C432 1.398 . S
C432 H420 0.950 . S
C432 C431 1.398 . S
C432 C433 1.391 . S
C433 H421 0.950 . S
C433 C429 1.393 . S
C433 C432 1.391 . S
H434 C442 0.950 . S
H435 C447 0.950 . S
H436 C444 0.950 . S
H437 C446 0.950 . S
H438 C448 0.950 . S
H439 C450 0.950 . S
H440 C452 0.950 . S
H441 C453 0.950 . S
C442 H434 0.950 . S
C442 C443 1.386 . S
C442 C444 1.391 . S
C443 C442 1.386 . S
C443 C447 1.393 . S
C444 H436 0.950 . S
C444 C442 1.391 . S
C444 C445 1.400 . S
C445 C444 1.400 . S
C445 C446 1.398 . S
C445 C451 1.491 . S
C446 H437 0.950 . S
C446 C445 1.398 . S
C446 C447 1.391 . S
C447 H435 0.950 . S
C447 C443 1.393 . S
C447 C446 1.391 . S
C448 H438 0.950 . S
C448 C449 1.386 . S
C448 C450 1.391 . S
C449 C448 1.386 . S
C449 C453 1.393 . S
C450 H439 0.950 . S
C450 C448 1.391 . S
C450 C451 1.400 . S
C451 C445 1.491 . S
C451 C450 1.400 . S
C451 C452 1.398 . S
C452 H440 0.950 . S
C452 C451 1.398 . S
C452 C453 1.391 . S
C453 H441 0.950 . S
C453 C449 1.393 . S
C453 C452 1.391 . S
H454 C462 0.950 . S
H455 C467 0.950 . S
H456 C464 0.950 . S
H457 C466 0.950 . S
H458 C468 0.950 . S
H459 C470 0.950 . S
H460 C472 0.950 . S
H461 C473 0.950 . S
C462 H454 0.950 . S
C462 C463 1.386 . S
C462 C464 1.391 . S
C463 C462 1.386 . S
C463 C467 1.393 . S
C464 H456 0.950 . S
C464 C462 1.391 . S
C464 C465 1.400 . S
C465 C464 1.400 . S
C465 C466 1.398 . S
C465 C471 1.491 . S
C466 H457 0.950 . S
C466 C465 1.398 . S
C466 C467 1.391 . S
C467 H455 0.950 . S
C467 C463 1.393 . S
C467 C466 1.391 . S
C468 H458 0.950 . S
C468 C469 1.386 . S
C468 C470 1.391 . S
C469 C468 1.386 . S
C469 C473 1.393 . S
C470 H459 0.950 . S
C470 C468 1.391 . S
C470 C471 1.400 . S
C471 C465 1.491 . S
C471 C470 1.400 . S
C471 C472 1.398 . S
C472 H460 0.950 . S
C472 C471 1.398 . S
C472 C473 1.391 . S
C473 H461 0.950 . S
C473 C469 1.393 . S
C473 C472 1.391 . S
H474 C482 0.950 . S
H475 C487 0.950 . S
H476 C484 0.950 . S
H477 C486 0.950 . S
H478 C488 0.950 . S
H479 C490 0.950 . S
H480 C492 0.950 . S
H481 C493 0.950 . S
C482 H474 0.950 . S
C482 C483 1.386 . S
C482 C484 1.391 . S
C483 C482 1.386 . S
C483 C487 1.393 1_556 S
C484 H476 0.950 . S
C484 C482 1.391 . S
C484 C485 1.400 . S
C485 C484 1.400 . S
C485 C486 1.398 1_556 S
C485 C491 1.491 . S
C486 H477 0.950 . S
C486 C485 1.398 1_554 S
C486 C487 1.391 . S
C487 H475 0.950 . S
C487 C483 1.393 1_554 S
C487 C486 1.391 . S
C488 H478 0.950 . S
C488 C489 1.386 1_554 S
C488 C490 1.391 . S
C489 C488 1.386 1_556 S
C489 C493 1.393 . S
C490 H479 0.950 . S
C490 C488 1.391 . S
C490 C491 1.400 1_554 S
C491 C485 1.491 . S
C491 C490 1.400 1_556 S
C491 C492 1.398 . S
C492 H480 0.950 . S
C492 C491 1.398 . S
C492 C493 1.391 . S
C493 H481 0.950 . S
C493 C489 1.393 . S
C493 C492 1.391 . S
H494 C502 0.950 . S
H495 C507 0.950 . S
H496 C504 0.950 . S
H497 C506 0.950 . S
H498 C508 0.950 . S
H499 C510 0.950 1_554 S
H500 C512 0.950 . S
H501 C513 0.950 . S
C502 H494 0.950 . S
C502 C503 1.386 . S
C502 C504 1.391 . S
C503 C502 1.386 . S
C503 C507 1.393 . S
C504 H496 0.950 . S
C504 C502 1.391 . S
C504 C505 1.400 . S
C505 C504 1.400 . S
C505 C506 1.398 . S
C505 C511 1.491 . S
C506 H497 0.950 . S
C506 C505 1.398 . S
C506 C507 1.391 . S
C507 H495 0.950 . S
C507 C503 1.393 . S
C507 C506 1.391 . S
C508 H498 0.950 . S
C508 C509 1.386 1_554 S
C508 C510 1.391 1_554 S
C509 C508 1.386 1_556 S
C509 C513 1.393 . S
C510 H499 0.950 1_556 S
C510 C508 1.391 1_556 S
C510 C511 1.400 . S
C511 C505 1.491 . S
C511 C510 1.400 . S
C511 C512 1.398 . S
C512 H500 0.950 . S
C512 C511 1.398 . S
C512 C513 1.391 . S
C513 H501 0.950 . S
C513 C509 1.393 . S
C513 C512 1.391 . S
H514 C522 0.950 . S
H515 C527 0.929 1_554 S
H516 C524 0.950 . S
H517 C526 0.950 . S
H518 C528 0.950 . S
H519 C530 0.950 . S
H520 C532 0.950 . S
H521 C533 0.950 . S
C522 H514 0.950 . S
C522 C523 1.386 . S
C522 C524 1.391 . S
C523 C522 1.386 . S
C523 C527 1.419 . S
C524 H516 0.950 . S
C524 C522 1.391 . S
C524 C525 1.400 . S
C525 C524 1.400 . S
C525 C526 1.398 1_556 S
C525 C531 1.491 . S
C526 H517 0.950 . S
C526 C525 1.398 1_554 S
C526 C527 1.386 1_554 S
C527 H515 0.929 1_556 S
C527 C523 1.419 . S
C527 C526 1.386 1_556 S
C528 H518 0.950 . S
C528 C529 1.386 . S
C528 C530 1.391 . S
C529 C528 1.386 . S
C529 C533 1.393 1_554 S
C530 H519 0.950 . S
C530 C528 1.391 . S
C530 C531 1.400 1_554 S
C531 C525 1.491 . S
C531 C530 1.400 1_556 S
C531 C532 1.398 . S
C532 H520 0.950 . S
C532 C531 1.398 . S
C532 C533 1.391 . S
C533 H521 0.950 . S
C533 C529 1.393 1_556 S
C533 C532 1.391 . S
H534 C542 0.950 . S
H535 C547 0.950 . S
H536 C544 0.950 . S
H537 C546 0.950 . S
H538 C548 0.950 1_554 S
H539 C550 0.950 . S
H540 C552 0.950 . S
H541 C553 0.950 . S
C542 H534 0.950 . S
C542 C543 1.386 . S
C542 C544 1.391 . S
C543 C542 1.386 . S
C543 C547 1.393 . S
C544 H536 0.950 . S
C544 C542 1.391 . S
C544 C545 1.400 . S
C545 C544 1.400 . S
C545 C546 1.398 . S
C545 C551 1.491 . S
C546 H537 0.950 . S
C546 C545 1.398 . S
C546 C547 1.391 . S
C547 H535 0.950 . S
C547 C543 1.393 . S
C547 C546 1.391 . S
C548 H538 0.950 1_556 S
C548 C549 1.386 . S
C548 C550 1.391 . S
C549 C548 1.386 . S
C549 C553 1.393 . S
C550 H539 0.950 . S
C550 C548 1.391 . S
C550 C551 1.400 . S
C551 C545 1.491 . S
C551 C550 1.400 . S
C551 C552 1.398 . S
C552 H540 0.950 . S
C552 C551 1.398 . S
C552 C553 1.391 . S
C553 H541 0.950 . S
C553 C549 1.393 . S
C553 C552 1.391 . S
H554 C562 0.950 . S
H555 C567 0.950 . S
H556 C564 0.950 . S
H557 C566 0.950 . S
H558 C568 0.950 . S
H559 C570 0.950 . S
H560 C572 0.950 . S
H561 C573 0.950 . S
C562 H554 0.950 . S
C562 C563 1.386 . S
C562 C564 1.391 . S
C563 C562 1.386 . S
C563 C567 1.393 . S
C564 H556 0.950 . S
C564 C562 1.391 . S
C564 C565 1.400 . S
C565 C564 1.400 . S
C565 C566 1.398 . S
C565 C571 1.491 . S
C566 H557 0.950 . S
C566 C565 1.398 . S
C566 C567 1.391 . S
C567 H555 0.950 . S
C567 C563 1.393 . S
C567 C566 1.391 . S
C568 H558 0.950 . S
C568 C569 1.386 . S
C568 C570 1.391 . S
C569 C568 1.386 . S
C569 C573 1.393 . S
C570 H559 0.950 . S
C570 C568 1.391 . S
C570 C571 1.400 . S
C571 C565 1.491 . S
C571 C570 1.400 . S
C571 C572 1.398 . S
C572 H560 0.950 . S
C572 C571 1.398 . S
C572 C573 1.391 . S
C573 H561 0.950 . S
C573 C569 1.393 . S
C573 C572 1.391 . S
H574 C582 0.950 . S
H575 C587 0.950 . S
H576 C584 0.950 . S
H577 C586 0.950 . S
H578 C588 0.950 . S
H579 C590 0.950 . S
H580 C592 0.950 . S
H581 C593 0.950 1_556 S
C582 H574 0.950 . S
C582 C583 1.386 . S
C582 C584 1.391 . S
C583 C582 1.386 . S
C583 C587 1.393 1_556 S
C584 H576 0.950 . S
C584 C582 1.391 . S
C584 C585 1.400 . S
C585 C584 1.400 . S
C585 C586 1.398 1_556 S
C585 C591 1.491 1_556 S
C586 H577 0.950 . S
C586 C585 1.398 1_554 S
C586 C587 1.391 . S
C587 H575 0.950 . S
C587 C583 1.393 1_554 S
C587 C586 1.391 . S
C588 H578 0.950 . S
C588 C589 1.386 . S
C588 C590 1.391 . S
C589 C588 1.386 . S
C589 C593 1.393 . S
C590 H579 0.950 . S
C590 C588 1.391 . S
C590 C591 1.400 . S
C591 C585 1.491 1_554 S
C591 C590 1.400 . S
C591 C592 1.398 1_554 S
C592 H580 0.950 . S
C592 C591 1.398 1_556 S
C592 C593 1.391 1_556 S
C593 H581 0.950 1_554 S
C593 C589 1.393 . S
C593 C592 1.391 1_554 S
H594 C602 0.950 . S
H595 C607 0.950 . S
H596 C604 0.950 . S
H597 C606 0.950 . S
H598 C608 0.950 1_556 S
H599 C610 0.957 . S
H600 C612 0.950 . S
H601 C613 0.950 . S
C602 H594 0.950 . S
C602 C603 1.386 . S
C602 C604 1.391 . S
C603 C602 1.386 . S
C603 C607 1.393 . S
C604 H596 0.950 . S
C604 C602 1.391 . S
C604 C605 1.400 . S
C605 C604 1.400 . S
C605 C606 1.398 . S
C605 C611 1.491 . S
C606 H597 0.950 . S
C606 C605 1.398 . S
C606 C607 1.391 . S
C607 H595 0.950 . S
C607 C603 1.393 . S
C607 C606 1.391 . S
C608 H598 0.950 1_554 S
C608 C609 1.386 . S
C608 C610 1.391 . S
C609 C608 1.386 . S
C609 C613 1.393 . S
C610 H599 0.957 . S
C610 C608 1.391 . S
C610 C611 1.400 . S
C611 C605 1.491 . S
C611 C610 1.400 . S
C611 C612 1.398 . S
C612 H600 0.950 . S
C612 C611 1.398 . S
C612 C613 1.391 . S
C613 H601 0.950 . S
C613 C609 1.393 . S
C613 C612 1.391 . S
H614 C622 0.950 . S
H615 C627 0.950 . S
H616 C624 0.950 . S
H617 C626 0.950 . S
H618 C628 0.950 . S
H619 C630 0.950 . S
H620 C632 0.950 . S
H621 C633 0.950 . S
C622 H614 0.950 . S
C622 C623 1.386 . S
C622 C624 1.391 . S
C623 C622 1.386 . S
C623 C627 1.393 . S
C624 H616 0.950 . S
C624 C622 1.391 . S
C624 C625 1.400 . S
C625 C624 1.400 . S
C625 C626 1.398 . S
C625 C631 1.491 . S
C626 H617 0.950 . S
C626 C625 1.398 . S
C626 C627 1.391 . S
C627 H615 0.950 . S
C627 C623 1.393 . S
C627 C626 1.391 . S
C628 H618 0.950 . S
C628 C629 1.386 . S
C628 C630 1.391 . S
C629 C628 1.386 . S
C629 C633 1.393 . S
C630 H619 0.950 . S
C630 C628 1.391 . S
C630 C631 1.400 . S
C631 C625 1.491 . S
C631 C630 1.400 . S
C631 C632 1.398 . S
C632 H620 0.950 . S
C632 C631 1.398 . S
C632 C633 1.391 . S
C633 H621 0.950 . S
C633 C629 1.393 . S
C633 C632 1.391 . S
H634 C642 0.950 . S
H635 C647 0.950 . S
H636 C644 0.950 . S
H637 C646 0.950 . S
H638 C648 0.950 . S
H639 C650 0.950 . S
H640 C652 0.950 . S
H641 C653 0.950 . S
C642 H634 0.950 . S
C642 C643 1.386 . S
C642 C644 1.391 . S
C643 C642 1.386 . S
C643 C647 1.393 . S
C644 H636 0.950 . S
C644 C642 1.391 . S
C644 C645 1.400 . S
C645 C644 1.400 . S
C645 C646 1.398 . S
C645 C651 1.491 . S
C646 H637 0.950 . S
C646 C645 1.398 . S
C646 C647 1.391 . S
C647 H635 0.950 . S
C647 C643 1.393 . S
C647 C646 1.391 . S
C648 H638 0.950 . S
C648 C649 1.386 . S
C648 C650 1.391 . S
C649 C648 1.386 . S
C649 C653 1.393 . S
C650 H639 0.950 . S
C650 C648 1.391 . S
C650 C651 1.400 . S
C651 C645 1.491 . S
C651 C650 1.400 . S
C651 C652 1.398 . S
C652 H640 0.950 . S
C652 C651 1.398 . S
C652 C653 1.391 . S
C653 H641 0.950 . S
C653 C649 1.393 . S
C653 C652 1.391 . S
H654 C662 0.950 . S
H655 C667 0.950 . S
H656 C664 0.950 . S
H657 C666 0.950 . S
H658 C668 0.950 . S
H659 C670 0.950 . S
H660 C672 0.950 . S
H661 C673 0.950 . S
C662 H654 0.950 . S
C662 C663 1.386 . S
C662 C664 1.391 . S
C663 C662 1.386 . S
C663 C667 1.393 . S
C664 H656 0.950 . S
C664 C662 1.391 . S
C664 C665 1.400 . S
C665 C664 1.400 . S
C665 C666 1.398 . S
C665 C671 1.491 1_655 S
C666 H657 0.950 . S
C666 C665 1.398 . S
C666 C667 1.391 . S
C667 H655 0.950 . S
C667 C663 1.393 . S
C667 C666 1.391 . S
C668 H658 0.950 . S
C668 C669 1.386 . S
C668 C670 1.391 . S
C669 C668 1.386 . S
C669 C673 1.393 . S
C670 H659 0.950 . S
C670 C668 1.391 . S
C670 C671 1.400 . S
C671 C665 1.491 1_455 S
C671 C670 1.400 . S
C671 C672 1.398 . S
C672 H660 0.950 . S
C672 C671 1.398 . S
C672 C673 1.391 . S
C673 H661 0.950 . S
C673 C669 1.393 . S
C673 C672 1.391 . S
H674 C682 0.950 . S
H675 C687 0.950 . S
H676 C684 0.950 . S
H677 C686 0.950 . S
H678 C688 0.950 . S
H679 C690 0.950 . S
H680 C692 0.950 . S
H681 C693 0.950 . S
C682 H674 0.950 . S
C682 C683 1.386 . S
C682 C684 1.391 . S
C683 C682 1.386 . S
C683 C687 1.393 . S
C684 H676 0.950 . S
C684 C682 1.391 . S
C684 C685 1.400 . S
C685 C684 1.400 . S
C685 C686 1.398 . S
C685 C691 1.491 . S
C686 H677 0.950 . S
C686 C685 1.398 . S
C686 C687 1.391 . S
C687 H675 0.950 . S
C687 C683 1.393 . S
C687 C686 1.391 . S
C688 H678 0.950 . S
C688 C689 1.386 . S
C688 C690 1.391 . S
C689 C688 1.386 . S
C689 C693 1.393 . S
C690 H679 0.950 . S
C690 C688 1.391 . S
C690 C691 1.400 . S
C691 C685 1.491 . S
C691 C690 1.400 . S
C691 C692 1.398 . S
C692 H680 0.950 . S
C692 C691 1.398 . S
C692 C693 1.391 . S
C693 H681 0.950 . S
C693 C689 1.393 . S
C693 C692 1.391 . S
H694 C702 0.950 . S
H695 C707 0.950 . S
H696 C704 0.950 . S
H697 C706 0.950 . S
H698 C708 0.950 . S
H699 C710 0.950 . S
H700 C712 0.950 . S
H701 C713 0.950 . S
C702 H694 0.950 . S
C702 C703 1.386 . S
C702 C704 1.391 . S
C703 C702 1.386 . S
C703 C707 1.393 . S
C704 H696 0.950 . S
C704 C702 1.391 . S
C704 C705 1.400 . S
C705 C704 1.400 . S
C705 C706 1.398 . S
C705 C711 1.491 1_545 S
C706 H697 0.950 . S
C706 C705 1.398 . S
C706 C707 1.391 . S
C707 H695 0.950 . S
C707 C703 1.393 . S
C707 C706 1.391 . S
C708 H698 0.950 . S
C708 C709 1.386 . S
C708 C710 1.391 . S
C709 C708 1.386 . S
C709 C713 1.393 . S
C710 H699 0.950 . S
C710 C708 1.391 . S
C710 C711 1.400 . S
C711 C705 1.491 1_565 S
C711 C710 1.400 . S
C711 C712 1.398 . S
C712 H700 0.950 . S
C712 C711 1.398 . S
C712 C713 1.391 . S
C713 H701 0.950 . S
C713 C709 1.393 . S
C713 C712 1.391 . S
H714 C722 0.950 . S
H715 C727 0.950 . S
H716 C724 0.950 . S
H717 C726 0.950 . S
H718 C728 0.950 . S
H719 C730 0.950 . S
H720 C732 0.950 . S
H721 C733 0.950 . S
C722 H714 0.950 . S
C722 C723 1.386 . S
C722 C724 1.391 . S
C723 C722 1.386 . S
C723 C727 1.393 . S
C724 H716 0.950 . S
C724 C722 1.391 . S
C724 C725 1.400 . S
C725 C724 1.400 . S
C725 C726 1.398 . S
C725 C731 1.491 . S
C726 H717 0.950 . S
C726 C725 1.398 . S
C726 C727 1.391 . S
C727 H715 0.950 . S
C727 C723 1.393 . S
C727 C726 1.391 . S
C728 H718 0.950 . S
C728 C729 1.386 . S
C728 C730 1.391 . S
C729 C728 1.386 . S
C729 C733 1.393 . S
C730 H719 0.950 . S
C730 C728 1.391 . S
C730 C731 1.400 . S
C731 C725 1.491 . S
C731 C730 1.400 . S
C731 C732 1.398 . S
C732 H720 0.950 . S
C732 C731 1.398 . S
C732 C733 1.391 . S
C733 H721 0.950 . S
C733 C729 1.393 . S
C733 C732 1.391 . S
H734 C742 0.950 . S
H735 C747 0.950 . S
H736 C744 0.950 . S
H737 C746 0.950 . S
H738 C748 0.950 . S
H739 C750 0.950 . S
H740 C752 0.950 . S
H741 C753 0.950 . S
C742 H734 0.950 . S
C742 C743 1.386 . S
C742 C744 1.391 . S
C743 C742 1.386 . S
C743 C747 1.393 . S
C744 H736 0.950 . S
C744 C742 1.391 . S
C744 C745 1.400 . S
C745 C744 1.400 . S
C745 C746 1.398 . S
C745 C751 1.491 . S
C746 H737 0.950 . S
C746 C745 1.398 . S
C746 C747 1.391 . S
C747 H735 0.950 . S
C747 C743 1.393 . S
C747 C746 1.391 . S
C748 H738 0.950 . S
C748 C749 1.386 . S
C748 C750 1.391 . S
C749 C748 1.386 . S
C749 C753 1.393 . S
C750 H739 0.950 . S
C750 C748 1.391 . S
C750 C751 1.400 . S
C751 C745 1.491 . S
C751 C750 1.400 . S
C751 C752 1.398 . S
C752 H740 0.950 . S
C752 C751 1.398 . S
C752 C753 1.391 . S
C753 H741 0.950 . S
C753 C749 1.393 . S
C753 C752 1.391 . S
H754 C762 0.950 . S
H755 C767 0.950 . S
H756 C764 0.950 . S
H757 C766 0.950 . S
H758 C768 0.950 . S
H759 C770 0.950 . S
H760 C772 0.950 . S
H761 C773 0.950 . S
C762 H754 0.950 . S
C762 C763 1.386 . S
C762 C764 1.391 . S
C763 C762 1.386 . S
C763 C767 1.393 . S
C764 H756 0.950 . S
C764 C762 1.391 . S
C764 C765 1.400 . S
C765 C764 1.400 . S
C765 C766 1.398 . S
C765 C771 1.491 . S
C766 H757 0.950 . S
C766 C765 1.398 . S
C766 C767 1.391 . S
C767 H755 0.950 . S
C767 C763 1.393 . S
C767 C766 1.391 . S
C768 H758 0.950 . S
C768 C769 1.386 . S
C768 C770 1.391 . S
C769 C768 1.386 . S
C769 C773 1.393 . S
C770 H759 0.950 . S
C770 C768 1.391 . S
C770 C771 1.400 . S
C771 C765 1.491 . S
C771 C770 1.400 . S
C771 C772 1.398 . S
C772 H760 0.950 . S
C772 C771 1.398 . S
C772 C773 1.391 . S
C773 H761 0.950 . S
C773 C769 1.393 . S
C773 C772 1.391 . S
H774 C782 0.950 . S
H775 C787 0.950 . S
H776 C784 0.950 . S
H777 C786 0.950 . S
H778 C788 0.950 . S
H779 C790 0.950 . S
H780 C792 0.950 . S
H781 C793 0.950 . S
C782 H774 0.950 . S
C782 C783 1.386 . S
C782 C784 1.391 . S
C783 C782 1.386 . S
C783 C787 1.393 . S
C784 H776 0.950 . S
C784 C782 1.391 . S
C784 C785 1.400 . S
C785 C784 1.400 . S
C785 C786 1.398 . S
C785 C791 1.491 . S
C786 H777 0.950 . S
C786 C785 1.398 . S
C786 C787 1.391 . S
C787 H775 0.950 . S
C787 C783 1.393 . S
C787 C786 1.391 . S
C788 H778 0.950 . S
C788 C789 1.386 . S
C788 C790 1.391 . S
C789 C788 1.386 . S
C789 C793 1.393 . S
C790 H779 0.950 . S
C790 C788 1.391 . S
C790 C791 1.400 . S
C791 C785 1.491 . S
C791 C790 1.400 . S
C791 C792 1.398 . S
C792 H780 0.950 . S
C792 C791 1.398 . S
C792 C793 1.391 . S
C793 H781 0.950 . S
C793 C789 1.393 . S
C793 C792 1.391 . S
H794 C802 0.950 . S
H795 C807 0.950 . S
H796 C804 0.950 . S
H797 C806 0.950 . S
H798 C808 0.950 . S
H799 C810 0.950 . S
H800 C812 0.950 . S
H801 C813 0.950 . S
C802 H794 0.950 . S
C802 C803 1.386 . S
C802 C804 1.391 . S
C803 C802 1.386 . S
C803 C807 1.393 . S
C804 H796 0.950 . S
C804 C802 1.391 . S
C804 C805 1.400 . S
C805 C804 1.400 . S
C805 C806 1.398 . S
C805 C811 1.491 . S
C806 H797 0.950 . S
C806 C805 1.398 . S
C806 C807 1.391 . S
C807 H795 0.950 . S
C807 C803 1.393 . S
C807 C806 1.391 . S
C808 H798 0.950 . S
C808 C809 1.386 . S
C808 C810 1.391 . S
C809 C808 1.386 . S
C809 C813 1.393 . S
C810 H799 0.950 . S
C810 C808 1.391 . S
C810 C811 1.400 . S
C811 C805 1.491 . S
C811 C810 1.400 . S
C811 C812 1.398 . S
C812 H800 0.950 . S
C812 C811 1.398 . S
C812 C813 1.391 . S
C813 H801 0.950 . S
C813 C809 1.393 . S
C813 C812 1.391 . S
H814 C822 0.950 . S
H815 C827 0.950 . S
H816 C824 0.950 . S
H817 C826 0.950 . S
H818 C828 0.950 . S
H819 C830 0.950 . S
H820 C832 0.950 . S
H821 C833 0.950 . S
C822 H814 0.950 . S
C822 C823 1.386 . S
C822 C824 1.391 . S
C823 C822 1.386 . S
C823 C827 1.393 . S
C824 H816 0.950 . S
C824 C822 1.391 . S
C824 C825 1.400 . S
C825 C824 1.400 . S
C825 C826 1.398 . S
C825 C831 1.491 . S
C826 H817 0.950 . S
C826 C825 1.398 . S
C826 C827 1.391 . S
C827 H815 0.950 . S
C827 C823 1.393 . S
C827 C826 1.391 . S
C828 H818 0.950 . S
C828 C829 1.386 . S
C828 C830 1.391 . S
C829 C828 1.386 . S
C829 C833 1.393 . S
C830 H819 0.950 . S
C830 C828 1.391 . S
C830 C831 1.400 . S
C831 C825 1.491 . S
C831 C830 1.400 . S
C831 C832 1.398 . S
C832 H820 0.950 . S
C832 C831 1.398 . S
C832 C833 1.391 . S
C833 H821 0.950 . S
C833 C829 1.393 . S
C833 C832 1.391 . S
H834 C842 0.950 . S
H835 C847 0.950 . S
H836 C844 0.950 . S
H837 C846 0.950 . S
H838 C848 0.950 . S
H839 C850 0.950 . S
H840 C852 0.950 . S
H841 C853 0.950 . S
C842 H834 0.950 . S
C842 C843 1.386 . S
C842 C844 1.391 . S
C843 C842 1.386 . S
C843 C847 1.393 . S
C844 H836 0.950 . S
C844 C842 1.391 . S
C844 C845 1.400 . S
C845 C844 1.400 . S
C845 C846 1.398 . S
C845 C851 1.491 1_545 S
C846 H837 0.950 . S
C846 C845 1.398 . S
C846 C847 1.391 . S
C847 H835 0.950 . S
C847 C843 1.393 . S
C847 C846 1.391 . S
C848 H838 0.950 . S
C848 C849 1.386 . S
C848 C850 1.391 . S
C849 C848 1.386 . S
C849 C853 1.393 . S
C850 H839 0.950 . S
C850 C848 1.391 . S
C850 C851 1.400 . S
C851 C845 1.491 1_565 S
C851 C850 1.400 . S
C851 C852 1.398 . S
C852 H840 0.950 . S
C852 C851 1.398 . S
C852 C853 1.391 . S
C853 H841 0.950 . S
C853 C849 1.393 . S
C853 C852 1.391 . S
H854 C862 0.950 . S
H855 C867 0.950 . S
H856 C864 0.950 . S
H857 C866 0.950 1_455 S
H858 C868 0.950 . S
H859 C870 0.950 . S
H860 C872 0.950 . S
H861 C873 0.950 . S
C862 H854 0.950 . S
C862 C863 1.386 . S
C862 C864 1.391 . S
C863 C862 1.386 . S
C863 C867 1.393 . S
C864 H856 0.950 . S
C864 C862 1.391 . S
C864 C865 1.400 . S
C865 C864 1.400 . S
C865 C866 1.398 . S
C865 C871 1.491 1_655 S
C866 H857 0.950 1_655 S
C866 C865 1.398 . S
C866 C867 1.391 . S
C867 H855 0.950 . S
C867 C863 1.393 . S
C867 C866 1.391 . S
C868 H858 0.950 . S
C868 C869 1.386 . S
C868 C870 1.391 . S
C869 C868 1.386 . S
C869 C873 1.393 . S
C870 H859 0.950 . S
C870 C868 1.391 . S
C870 C871 1.400 . S
C871 C865 1.491 1_455 S
C871 C870 1.400 . S
C871 C872 1.398 . S
C872 H860 0.950 . S
C872 C871 1.398 . S
C872 C873 1.391 . S
C873 H861 0.950 . S
C873 C869 1.393 . S
C873 C872 1.391 . S
H874 C882 0.950 . S
H875 C887 0.950 . S
H876 C884 0.950 . S
H877 C886 0.950 . S
H878 C888 0.950 . S
H879 C890 0.950 . S
H880 C892 0.950 . S
H881 C893 0.950 . S
C882 H874 0.950 . S
C882 C883 1.386 . S
C882 C884 1.391 . S
C883 C882 1.386 . S
C883 C887 1.393 . S
C884 H876 0.950 . S
C884 C882 1.391 . S
C884 C885 1.400 . S
C885 C884 1.400 . S
C885 C886 1.398 . S
C885 C891 1.491 . S
C886 H877 0.950 . S
C886 C885 1.398 . S
C886 C887 1.391 . S
C887 H875 0.950 . S
C887 C883 1.393 . S
C887 C886 1.391 . S
C888 H878 0.950 . S
C888 C889 1.386 . S
C888 C890 1.391 . S
C889 C888 1.386 . S
C889 C893 1.393 . S
C890 H879 0.950 . S
C890 C888 1.391 . S
C890 C891 1.400 . S
C891 C885 1.491 . S
C891 C890 1.400 . S
C891 C892 1.398 . S
C892 H880 0.950 . S
C892 C891 1.398 . S
C892 C893 1.391 . S
C893 H881 0.950 . S
C893 C889 1.393 . S
C893 C892 1.391 . S
H894 C902 0.950 . S
H895 C907 0.950 . S
H896 C904 0.950 . S
H897 C906 0.950 . S
H898 C908 0.950 . S
H899 C910 0.950 . S
H900 C912 0.950 . S
H901 C913 0.950 . S
C902 H894 0.950 . S
C902 C903 1.386 . S
C902 C904 1.391 . S
C903 C902 1.386 . S
C903 C907 1.393 . S
C904 H896 0.950 . S
C904 C902 1.391 . S
C904 C905 1.400 . S
C905 C904 1.400 . S
C905 C906 1.398 . S
C905 C911 1.491 . S
C906 H897 0.950 . S
C906 C905 1.398 . S
C906 C907 1.391 . S
C907 H895 0.950 . S
C907 C903 1.393 . S
C907 C906 1.391 . S
C908 H898 0.950 . S
C908 C909 1.386 . S
C908 C910 1.391 . S
C909 C908 1.386 . S
C909 C913 1.393 . S
C910 H899 0.950 . S
C910 C908 1.391 . S
C910 C911 1.400 . S
C911 C905 1.491 . S
C911 C910 1.400 . S
C911 C912 1.398 . S
C912 H900 0.950 . S
C912 C911 1.398 . S
C912 C913 1.391 . S
C913 H901 0.950 . S
C913 C909 1.393 . S
C913 C912 1.391 . S
H914 C922 0.950 . S
H915 C927 0.950 . S
H916 C924 0.950 . S
H917 C926 0.950 . S
H918 C928 0.950 . S
H919 C930 0.950 . S
H920 C932 0.950 . S
H921 C933 0.950 . S
C922 H914 0.950 . S
C922 C923 1.386 . S
C922 C924 1.391 . S
C923 C922 1.386 . S
C923 C927 1.393 . S
C924 H916 0.950 . S
C924 C922 1.391 . S
C924 C925 1.400 . S
C925 C924 1.400 . S
C925 C926 1.398 . S
C925 C931 1.491 . S
C926 H917 0.950 . S
C926 C925 1.398 . S
C926 C927 1.391 . S
C927 H915 0.950 . S
C927 C923 1.393 . S
C927 C926 1.391 . S
C928 H918 0.950 . S
C928 C929 1.386 . S
C928 C930 1.391 . S
C929 C928 1.386 . S
C929 C933 1.393 . S
C930 H919 0.950 . S
C930 C928 1.391 . S
C930 C931 1.400 . S
C931 C925 1.491 . S
C931 C930 1.400 . S
C931 C932 1.398 . S
C932 H920 0.950 . S
C932 C931 1.398 . S
C932 C933 1.391 . S
C933 H921 0.950 . S
C933 C929 1.393 . S
C933 C932 1.391 . S
H934 C942 0.950 . S
H935 C947 0.950 . S
H936 C944 0.950 . S
H937 C946 0.950 . S
H938 C948 0.950 . S
H939 C950 0.950 . S
H940 C952 0.950 . S
H941 C953 0.950 . S
C942 H934 0.950 . S
C942 C943 1.386 . S
C942 C944 1.391 . S
C943 C942 1.386 . S
C943 C947 1.393 . S
C944 H936 0.950 . S
C944 C942 1.391 . S
C944 C945 1.400 . S
C945 C944 1.400 . S
C945 C946 1.398 . S
C945 C951 1.491 . S
C946 H937 0.950 . S
C946 C945 1.398 . S
C946 C947 1.391 . S
C947 H935 0.950 . S
C947 C943 1.393 . S
C947 C946 1.391 . S
C948 H938 0.950 . S
C948 C949 1.386 . S
C948 C950 1.391 . S
C949 C948 1.386 . S
C949 C953 1.393 . S
C950 H939 0.950 . S
C950 C948 1.391 . S
C950 C951 1.400 . S
C951 C945 1.491 . S
C951 C950 1.400 . S
C951 C952 1.398 . S
C952 H940 0.950 . S
C952 C951 1.398 . S
C952 C953 1.391 . S
C953 H941 0.950 . S
C953 C949 1.393 . S
C953 C952 1.391 . S
H954 C962 0.950 . S
H955 C967 0.950 . S
H956 C964 0.985 . S
H957 C966 0.950 . S
H958 C968 0.950 . S
H959 C970 0.950 . S
H960 C972 0.950 . S
H961 C973 0.950 . S
C962 H954 0.950 . S
C962 C963 1.386 . S
C962 C964 1.362 1_565 S
C963 C962 1.386 . S
C963 C967 1.393 . S
C964 H956 0.985 . S
C964 C962 1.362 1_545 S
C964 C965 1.395 . S
C965 C964 1.395 . S
C965 C966 1.398 1_545 S
C965 C971 1.491 . S
C966 H957 0.950 . S
C966 C965 1.398 1_565 S
C966 C967 1.391 . S
C967 H955 0.950 . S
C967 C963 1.393 . S
C967 C966 1.391 . S
C968 H958 0.950 . S
C968 C969 1.386 . S
C968 C970 1.391 . S
C969 C968 1.386 . S
C969 C973 1.393 . S
C970 H959 0.950 . S
C970 C968 1.391 . S
C970 C971 1.400 . S
C971 C965 1.491 . S
C971 C970 1.400 . S
C971 C972 1.398 . S
C972 H960 0.950 . S
C972 C971 1.398 . S
C972 C973 1.391 . S
C973 H961 0.950 . S
C973 C969 1.393 . S
C973 C972 1.391 . S
H974 C982 0.950 . S
H975 C987 0.950 . S
H976 C984 0.950 1_655 S
H977 C986 0.950 . S
H978 C988 0.950 . S
H979 C990 0.950 . S
H980 C992 0.950 . S
H981 C993 0.950 . S
C982 H974 0.950 . S
C982 C983 1.386 . S
C982 C984 1.391 . S
C983 C982 1.386 . S
C983 C987 1.393 . S
C984 H976 0.950 1_455 S
C984 C982 1.391 . S
C984 C985 1.400 . S
C985 C984 1.400 . S
C985 C986 1.398 . S
C985 C991 1.491 1_455 S
C986 H977 0.950 . S
C986 C985 1.398 . S
C986 C987 1.391 . S
C987 H975 0.950 . S
C987 C983 1.393 . S
C987 C986 1.391 . S
C988 H978 0.950 . S
C988 C989 1.386 . S
C988 C990 1.391 . S
C989 C988 1.386 . S
C989 C993 1.393 . S
C990 H979 0.950 . S
C990 C988 1.391 . S
C990 C991 1.400 . S
C991 C985 1.491 1_655 S
C991 C990 1.400 . S
C991 C992 1.398 . S
C992 H980 0.950 . S
C992 C991 1.398 . S
C992 C993 1.391 . S
C993 H981 0.950 . S
C993 C989 1.393 . S
C993 C992 1.391 . S
H994 C1002 0.950 . S
H995 C1007 0.950 . S
H996 C1004 0.950 . S
H997 C1006 0.950 . S
H998 C1008 0.950 . S
H999 C1010 0.950 . S
H1000 C1012 0.950 . S
H1001 C1013 0.950 . S
C1002 H994 0.950 . S
C1002 C1003 1.386 . S
C1002 C1004 1.391 . S
C1003 C1002 1.386 . S
C1003 C1007 1.393 . S
C1004 H996 0.950 . S
C1004 C1002 1.391 . S
C1004 C1005 1.400 . S
C1005 C1004 1.400 . S
C1005 C1006 1.398 . S
C1005 C1011 1.491 . S
C1006 H997 0.950 . S
C1006 C1005 1.398 . S
C1006 C1007 1.391 . S
C1007 H995 0.950 . S
C1007 C1003 1.393 . S
C1007 C1006 1.391 . S
C1008 H998 0.950 . S
C1008 C1009 1.386 . S
C1008 C1010 1.391 . S
C1009 C1008 1.386 . S
C1009 C1013 1.393 . S
C1010 H999 0.950 . S
C1010 C1008 1.391 . S
C1010 C1011 1.400 . S
C1011 C1005 1.491 . S
C1011 C1010 1.400 . S
C1011 C1012 1.398 . S
C1012 H1000 0.950 . S
C1012 C1011 1.398 . S
C1012 C1013 1.391 . S
C1013 H1001 0.950 . S
C1013 C1009 1.393 . S
C1013 C1012 1.391 . S
H1014 C1022 0.950 . S
H1015 C1027 0.950 . S
H1016 C1024 0.950 . S
H1017 C1026 0.950 . S
H1018 C1028 0.950 . S
H1019 C1030 0.950 . S
H1020 C1032 0.951 1_455 S
H1021 C1033 0.950 . S
C1022 H1014 0.950 . S
C1022 C1023 1.386 . S
C1022 C1024 1.391 . S
C1023 C1022 1.386 . S
C1023 C1027 1.393 . S
C1024 H1016 0.950 . S
C1024 C1022 1.391 . S
C1024 C1025 1.400 . S
C1025 C1024 1.400 . S
C1025 C1026 1.398 . S
C1025 C1031 1.491 . S
C1026 H1017 0.950 . S
C1026 C1025 1.398 . S
C1026 C1027 1.391 . S
C1027 H1015 0.950 . S
C1027 C1023 1.393 . S
C1027 C1026 1.391 . S
C1028 H1018 0.950 . S
C1028 C1029 1.386 . S
C1028 C1030 1.391 1_655 S
C1029 C1028 1.386 . S
C1029 C1033 1.393 . S
C1030 H1019 0.950 . S
C1030 C1028 1.391 1_455 S
C1030 C1031 1.400 . S
C1031 C1025 1.491 . S
C1031 C1030 1.400 . S
C1031 C1032 1.387 1_455 S
C1032 H1020 0.951 1_655 S
C1032 C1031 1.387 1_655 S
C1032 C1033 1.401 . S
C1033 H1021 0.950 . S
C1033 C1029 1.393 . S
C1033 C1032 1.401 . S
H1034 C1042 0.950 . S
H1035 C1047 0.950 . S
H1036 C1044 0.950 . S
H1037 C1046 0.950 . S
H1038 C1048 0.950 . S
H1039 C1050 0.950 . S
H1040 C1052 0.950 . S
H1041 C1053 0.950 . S
C1042 H1034 0.950 . S
C1042 C1043 1.386 . S
C1042 C1044 1.391 . S
C1043 C1042 1.386 . S
C1043 C1047 1.393 . S
C1044 H1036 0.950 . S
C1044 C1042 1.391 . S
C1044 C1045 1.400 . S
C1045 C1044 1.400 . S
C1045 C1046 1.398 . S
C1045 C1051 1.491 . S
C1046 H1037 0.950 . S
C1046 C1045 1.398 . S
C1046 C1047 1.391 . S
C1047 H1035 0.950 . S
C1047 C1043 1.393 . S
C1047 C1046 1.391 . S
C1048 H1038 0.950 . S
C1048 C1049 1.386 . S
C1048 C1050 1.391 . S
C1049 C1048 1.386 . S
C1049 C1053 1.393 . S
C1050 H1039 0.950 . S
C1050 C1048 1.391 . S
C1050 C1051 1.400 . S
C1051 C1045 1.491 . S
C1051 C1050 1.400 . S
C1051 C1052 1.398 . S
C1052 H1040 0.950 . S
C1052 C1051 1.398 . S
C1052 C1053 1.391 . S
C1053 H1041 0.950 . S
C1053 C1049 1.393 . S
C1053 C1052 1.391 . S
H1054 C1062 0.950 . S
H1055 C1067 0.950 . S
H1056 C1064 0.950 . S
H1057 C1066 0.950 . S
H1058 C1068 0.950 . S
H1059 C1070 0.950 . S
H1060 C1072 0.950 . S
H1061 C1073 0.950 . S
C1062 H1054 0.950 . S
C1062 C1063 1.386 . S
C1062 C1064 1.391 . S
C1063 C1062 1.386 . S
C1063 C1067 1.393 . S
C1064 H1056 0.950 . S
C1064 C1062 1.391 . S
C1064 C1065 1.400 . S
C1065 C1064 1.400 . S
C1065 C1066 1.398 . S
C1065 C1071 1.491 1_565 S
C1066 H1057 0.950 . S
C1066 C1065 1.398 . S
C1066 C1067 1.391 . S
C1067 H1055 0.950 . S
C1067 C1063 1.393 . S
C1067 C1066 1.391 . S
C1068 H1058 0.950 . S
C1068 C1069 1.386 . S
C1068 C1070 1.391 . S
C1069 C1068 1.386 . S
C1069 C1073 1.393 . S
C1070 H1059 0.950 . S
C1070 C1068 1.391 . S
C1070 C1071 1.400 . S
C1071 C1065 1.491 1_545 S
C1071 C1070 1.400 . S
C1071 C1072 1.398 . S
C1072 H1060 0.950 . S
C1072 C1071 1.398 . S
C1072 C1073 1.391 . S
C1073 H1061 0.950 . S
C1073 C1069 1.393 . S
C1073 C1072 1.391 . S
H1074 C1082 0.950 . S
H1075 C1087 0.950 . S
H1076 C1084 0.950 . S
H1077 C1086 0.950 . S
H1078 C1088 0.950 . S
H1079 C1090 0.950 . S
H1080 C1092 0.950 . S
H1081 C1093 0.950 . S
C1082 H1074 0.950 . S
C1082 C1083 1.386 . S
C1082 C1084 1.391 . S
C1083 C1082 1.386 . S
C1083 C1087 1.393 . S
C1084 H1076 0.950 . S
C1084 C1082 1.391 . S
C1084 C1085 1.400 . S
C1085 C1084 1.400 . S
C1085 C1086 1.398 . S
C1085 C1091 1.491 . S
C1086 H1077 0.950 . S
C1086 C1085 1.398 . S
C1086 C1087 1.391 . S
C1087 H1075 0.950 . S
C1087 C1083 1.393 . S
C1087 C1086 1.391 . S
C1088 H1078 0.950 . S
C1088 C1089 1.386 . S
C1088 C1090 1.391 . S
C1089 C1088 1.386 . S
C1089 C1093 1.393 . S
C1090 H1079 0.950 . S
C1090 C1088 1.391 . S
C1090 C1091 1.400 . S
C1091 C1085 1.491 . S
C1091 C1090 1.400 . S
C1091 C1092 1.398 . S
C1092 H1080 0.950 . S
C1092 C1091 1.398 . S
C1092 C1093 1.391 . S
C1093 H1081 0.950 . S
C1093 C1089 1.393 . S
C1093 C1092 1.391 . S
H1094 C1102 0.950 . S
H1095 C1107 0.950 . S
H1096 C1104 0.950 . S
H1097 C1106 0.950 . S
H1098 C1108 0.950 . S
H1099 C1110 0.950 . S
H1100 C1112 0.950 . S
H1101 C1113 0.950 . S
C1102 H1094 0.950 . S
C1102 C1103 1.386 . S
C1102 C1104 1.391 . S
C1103 C1102 1.386 . S
C1103 C1107 1.393 . S
C1104 H1096 0.950 . S
C1104 C1102 1.391 . S
C1104 C1105 1.400 . S
C1105 C1104 1.400 . S
C1105 C1106 1.398 . S
C1105 C1111 1.491 . S
C1106 H1097 0.950 . S
C1106 C1105 1.398 . S
C1106 C1107 1.391 . S
C1107 H1095 0.950 . S
C1107 C1103 1.393 . S
C1107 C1106 1.391 . S
C1108 H1098 0.950 . S
C1108 C1109 1.386 . S
C1108 C1110 1.391 . S
C1109 C1108 1.386 . S
C1109 C1113 1.393 . S
C1110 H1099 0.950 . S
C1110 C1108 1.391 . S
C1110 C1111 1.400 . S
C1111 C1105 1.491 . S
C1111 C1110 1.400 . S
C1111 C1112 1.398 . S
C1112 H1100 0.950 . S
C1112 C1111 1.398 . S
C1112 C1113 1.391 . S
C1113 H1101 0.950 . S
C1113 C1109 1.393 . S
C1113 C1112 1.391 . S
H1114 C1122 0.950 . S
H1115 C1127 0.950 . S
H1116 C1124 0.950 . S
H1117 C1126 0.950 . S
H1118 C1128 0.950 . S
H1119 C1130 0.950 . S
H1120 C1132 0.950 . S
H1121 C1133 0.950 . S
C1122 H1114 0.950 . S
C1122 C1123 1.386 . S
C1122 C1124 1.391 . S
C1123 C1122 1.386 . S
C1123 C1127 1.393 . S
C1124 H1116 0.950 . S
C1124 C1122 1.391 . S
C1124 C1125 1.400 . S
C1125 C1124 1.400 . S
C1125 C1126 1.398 . S
C1125 C1131 1.491 . S
C1126 H1117 0.950 . S
C1126 C1125 1.398 . S
C1126 C1127 1.391 . S
C1127 H1115 0.950 . S
C1127 C1123 1.393 . S
C1127 C1126 1.391 . S
C1128 H1118 0.950 . S
C1128 C1129 1.386 . S
C1128 C1130 1.391 . S
C1129 C1128 1.386 . S
C1129 C1133 1.393 . S
C1130 H1119 0.950 . S
C1130 C1128 1.391 . S
C1130 C1131 1.400 . S
C1131 C1125 1.491 . S
C1131 C1130 1.400 . S
C1131 C1132 1.398 . S
C1132 H1120 0.950 . S
C1132 C1131 1.398 . S
C1132 C1133 1.391 . S
C1133 H1121 0.950 . S
C1133 C1129 1.393 . S
C1133 C1132 1.391 . S
H1134 C1142 0.950 . S
H1135 C1147 0.950 . S
H1136 C1144 0.950 . S
H1137 C1146 0.950 . S
H1138 C1148 0.950 . S
H1139 C1150 0.950 . S
H1140 C1152 0.950 . S
H1141 C1153 0.950 1_545 S
C1142 H1134 0.950 . S
C1142 C1143 1.386 . S
C1142 C1144 1.391 . S
C1143 C1142 1.386 . S
C1143 C1147 1.393 . S
C1144 H1136 0.950 . S
C1144 C1142 1.391 . S
C1144 C1145 1.400 . S
C1145 C1144 1.400 . S
C1145 C1146 1.398 . S
C1145 C1151 1.491 . S
C1146 H1137 0.950 . S
C1146 C1145 1.398 . S
C1146 C1147 1.391 . S
C1147 H1135 0.950 . S
C1147 C1143 1.393 . S
C1147 C1146 1.391 . S
C1148 H1138 0.950 . S
C1148 C1149 1.386 . S
C1148 C1150 1.391 . S
C1149 C1148 1.386 . S
C1149 C1153 1.393 . S
C1150 H1139 0.950 . S
C1150 C1148 1.391 . S
C1150 C1151 1.400 . S
C1151 C1145 1.491 . S
C1151 C1150 1.400 . S
C1151 C1152 1.398 . S
C1152 H1140 0.950 . S
C1152 C1151 1.398 . S
C1152 C1153 1.391 . S
C1153 H1141 0.950 1_565 S
C1153 C1149 1.393 . S
C1153 C1152 1.391 . S
H1154 C1162 0.950 . S
H1155 C1167 0.950 . S
H1156 C1164 0.950 . S
H1157 C1166 0.950 . S
H1158 C1168 0.950 . S
H1159 C1170 0.950 . S
H1160 C1172 0.950 . S
H1161 C1173 0.950 . S
C1162 H1154 0.950 . S
C1162 C1163 1.386 . S
C1162 C1164 1.391 . S
C1163 C1162 1.386 . S
C1163 C1167 1.393 . S
C1164 H1156 0.950 . S
C1164 C1162 1.391 . S
C1164 C1165 1.400 . S
C1165 C1164 1.400 . S
C1165 C1166 1.398 . S
C1165 C1171 1.491 . S
C1166 H1157 0.950 . S
C1166 C1165 1.398 . S
C1166 C1167 1.391 . S
C1167 H1155 0.950 . S
C1167 C1163 1.393 . S
C1167 C1166 1.391 . S
C1168 H1158 0.950 . S
C1168 C1169 1.386 . S
C1168 C1170 1.391 . S
C1169 C1168 1.386 . S
C1169 C1173 1.393 . S
C1170 H1159 0.950 . S
C1170 C1168 1.391 . S
C1170 C1171 1.400 . S
C1171 C1165 1.491 . S
C1171 C1170 1.400 . S
C1171 C1172 1.398 . S
C1172 H1160 0.950 . S
C1172 C1171 1.398 . S
C1172 C1173 1.391 . S
C1173 H1161 0.950 . S
C1173 C1169 1.393 . S
C1173 C1172 1.391 . S
H1174 C1182 0.950 . S
H1175 C1187 0.950 . S
H1176 C1184 0.950 . S
H1177 C1186 0.950 . S
H1178 C1188 0.950 . S
H1179 C1190 0.950 . S
H1180 C1192 0.950 . S
H1181 C1193 0.950 . S
C1182 H1174 0.950 . S
C1182 C1183 1.386 . S
C1182 C1184 1.391 . S
C1183 C1182 1.386 . S
C1183 C1187 1.393 . S
C1184 H1176 0.950 . S
C1184 C1182 1.391 . S
C1184 C1185 1.400 . S
C1185 C1184 1.400 . S
C1185 C1186 1.398 . S
C1185 C1191 1.491 . S
C1186 H1177 0.950 . S
C1186 C1185 1.398 . S
C1186 C1187 1.391 . S
C1187 H1175 0.950 . S
C1187 C1183 1.393 . S
C1187 C1186 1.391 . S
C1188 H1178 0.950 . S
C1188 C1189 1.386 . S
C1188 C1190 1.391 . S
C1189 C1188 1.386 . S
C1189 C1193 1.393 . S
C1190 H1179 0.950 . S
C1190 C1188 1.391 . S
C1190 C1191 1.400 . S
C1191 C1185 1.491 . S
C1191 C1190 1.400 . S
C1191 C1192 1.398 . S
C1192 H1180 0.950 . S
C1192 C1191 1.398 . S
C1192 C1193 1.391 . S
C1193 H1181 0.950 . S
C1193 C1189 1.393 . S
C1193 C1192 1.391 . S
H1194 C1202 0.950 . S
H1195 C1207 0.950 . S
H1196 C1204 0.950 . S
H1197 C1206 0.950 . S
H1198 C1208 0.926 1_455 S
H1199 C1210 0.950 . S
H1200 C1212 0.950 . S
H1201 C1213 0.950 . S
C1202 H1194 0.950 . S
C1202 C1203 1.386 . S
C1202 C1204 1.391 . S
C1203 C1202 1.386 . S
C1203 C1207 1.393 . S
C1204 H1196 0.950 . S
C1204 C1202 1.391 . S
C1204 C1205 1.400 . S
C1205 C1204 1.400 . S
C1205 C1206 1.398 . S
C1205 C1211 1.491 . S
C1206 H1197 0.950 . S
C1206 C1205 1.398 . S
C1206 C1207 1.391 . S
C1207 H1195 0.950 . S
C1207 C1203 1.393 . S
C1207 C1206 1.391 . S
C1208 H1198 0.926 1_655 S
C1208 C1209 1.386 . S
C1208 C1210 1.391 . S
C1209 C1208 1.386 . S
C1209 C1213 1.393 . S
C1210 H1199 0.950 . S
C1210 C1208 1.391 . S
C1210 C1211 1.400 . S
C1211 C1205 1.491 . S
C1211 C1210 1.400 . S
C1211 C1212 1.398 . S
C1212 H1200 0.950 . S
C1212 C1211 1.398 . S
C1212 C1213 1.391 . S
C1213 H1201 0.950 . S
C1213 C1209 1.393 . S
C1213 C1212 1.391 . S
H1214 C1222 0.950 . S
H1215 C1227 0.950 . S
H1216 C1224 0.950 . S
H1217 C1226 0.950 . S
H1218 C1228 0.950 . S
H1219 C1230 0.950 . S
H1220 C1232 0.950 . S
H1221 C1233 0.950 . S
C1222 H1214 0.950 . S
C1222 C1223 1.386 . S
C1222 C1224 1.391 . S
C1223 C1222 1.386 . S
C1223 C1227 1.393 . S
C1224 H1216 0.950 . S
C1224 C1222 1.391 . S
C1224 C1225 1.400 . S
C1225 C1224 1.400 . S
C1225 C1226 1.398 . S
C1225 C1231 1.491 . S
C1226 H1217 0.950 . S
C1226 C1225 1.398 . S
C1226 C1227 1.391 . S
C1227 H1215 0.950 . S
C1227 C1223 1.393 . S
C1227 C1226 1.391 . S
C1228 H1218 0.950 . S
C1228 C1229 1.386 . S
C1228 C1230 1.391 . S
C1229 C1228 1.386 . S
C1229 C1233 1.393 . S
C1230 H1219 0.950 . S
C1230 C1228 1.391 . S
C1230 C1231 1.400 . S
C1231 C1225 1.491 . S
C1231 C1230 1.400 . S
C1231 C1232 1.398 . S
C1232 H1220 0.950 . S
C1232 C1231 1.398 . S
C1232 C1233 1.391 . S
C1233 H1221 0.950 . S
C1233 C1229 1.393 . S
C1233 C1232 1.391 . S
H1234 C1242 0.950 . S
H1235 C1247 0.950 . S
H1236 C1244 0.950 . S
H1237 C1246 0.950 . S
H1238 C1248 0.950 . S
H1239 C1250 0.950 . S
H1240 C1252 0.950 . S
H1241 C1253 0.950 . S
C1242 H1234 0.950 . S
C1242 C1243 1.386 . S
C1242 C1244 1.391 . S
C1243 C1242 1.386 . S
C1243 C1247 1.393 . S
C1244 H1236 0.950 . S
C1244 C1242 1.391 . S
C1244 C1245 1.400 . S
C1245 C1244 1.400 . S
C1245 C1246 1.398 . S
C1245 C1251 1.491 . S
C1246 H1237 0.950 . S
C1246 C1245 1.398 . S
C1246 C1247 1.391 . S
C1247 H1235 0.950 . S
C1247 C1243 1.393 . S
C1247 C1246 1.391 . S
C1248 H1238 0.950 . S
C1248 C1249 1.386 . S
C1248 C1250 1.391 . S
C1249 C1248 1.386 . S
C1249 C1253 1.393 . S
C1250 H1239 0.950 . S
C1250 C1248 1.391 . S
C1250 C1251 1.400 . S
C1251 C1245 1.491 . S
C1251 C1250 1.400 . S
C1251 C1252 1.398 . S
C1252 H1240 0.950 . S
C1252 C1251 1.398 . S
C1252 C1253 1.391 . S
C1253 H1241 0.950 . S
C1253 C1249 1.393 . S
C1253 C1252 1.391 . S
H1254 C1262 0.950 . S
H1255 C1267 0.950 . S
H1256 C1264 0.950 . S
H1257 C1266 0.950 . S
H1258 C1268 0.950 . S
H1259 C1270 0.950 . S
H1260 C1272 0.950 . S
H1261 C1273 0.950 . S
C1262 H1254 0.950 . S
C1262 C1263 1.386 . S
C1262 C1264 1.391 . S
C1263 C1262 1.386 . S
C1263 C1267 1.393 . S
C1264 H1256 0.950 . S
C1264 C1262 1.391 . S
C1264 C1265 1.400 . S
C1265 C1264 1.400 . S
C1265 C1266 1.398 . S
C1265 C1271 1.491 . S
C1266 H1257 0.950 . S
C1266 C1265 1.398 . S
C1266 C1267 1.391 . S
C1267 H1255 0.950 . S
C1267 C1263 1.393 . S
C1267 C1266 1.391 . S
C1268 H1258 0.950 . S
C1268 C1269 1.386 . S
C1268 C1270 1.391 . S
C1269 C1268 1.386 . S
C1269 C1273 1.393 . S
C1270 H1259 0.950 . S
C1270 C1268 1.391 . S
C1270 C1271 1.400 . S
C1271 C1265 1.491 . S
C1271 C1270 1.400 . S
C1271 C1272 1.398 . S
C1272 H1260 0.950 . S
C1272 C1271 1.398 . S
C1272 C1273 1.391 . S
C1273 H1261 0.950 . S
C1273 C1269 1.393 . S
C1273 C1272 1.391 . S
H1274 C1282 0.950 . S
H1275 C1287 0.950 . S
H1276 C1284 0.950 . S
H1277 C1286 0.950 . S
H1278 C1288 0.950 . S
H1279 C1290 0.950 . S
H1280 C1292 0.950 . S
H1281 C1293 0.950 . S
C1282 H1274 0.950 . S
C1282 C1283 1.386 . S
C1282 C1284 1.391 . S
C1283 C1282 1.386 . S
C1283 C1287 1.393 . S
C1284 H1276 0.950 . S
C1284 C1282 1.391 . S
C1284 C1285 1.400 . S
C1285 C1284 1.400 . S
C1285 C1286 1.398 . S
C1285 C1291 1.491 . S
C1286 H1277 0.950 . S
C1286 C1285 1.398 . S
C1286 C1287 1.391 . S
C1287 H1275 0.950 . S
C1287 C1283 1.393 . S
C1287 C1286 1.391 . S
C1288 H1278 0.950 . S
C1288 C1289 1.386 . S
C1288 C1290 1.391 . S
C1289 C1288 1.386 . S
C1289 C1293 1.393 . S
C1290 H1279 0.950 . S
C1290 C1288 1.391 . S
C1290 C1291 1.400 . S
C1291 C1285 1.491 . S
C1291 C1290 1.400 . S
C1291 C1292 1.398 . S
C1292 H1280 0.950 . S
C1292 C1291 1.398 . S
C1292 C1293 1.391 . S
C1293 H1281 0.950 . S
C1293 C1289 1.393 . S
C1293 C1292 1.391 . S
H1294 C1302 0.950 . S
H1295 C1307 0.950 . S
H1296 C1304 0.950 . S
H1297 C1306 0.950 . S
H1298 C1308 0.950 . S
H1299 C1310 0.950 . S
H1300 C1312 0.950 . S
H1301 C1313 0.950 . S
C1302 H1294 0.950 . S
C1302 C1303 1.386 . S
C1302 C1304 1.391 . S
C1303 C1302 1.386 . S
C1303 C1307 1.393 . S
C1304 H1296 0.950 . S
C1304 C1302 1.391 . S
C1304 C1305 1.400 . S
C1305 C1304 1.400 . S
C1305 C1306 1.398 . S
C1305 C1311 1.491 . S
C1306 H1297 0.950 . S
C1306 C1305 1.398 . S
C1306 C1307 1.391 . S
C1307 H1295 0.950 . S
C1307 C1303 1.393 . S
C1307 C1306 1.391 . S
C1308 H1298 0.950 . S
C1308 C1309 1.386 . S
C1308 C1310 1.391 . S
C1309 C1308 1.386 . S
C1309 C1313 1.393 . S
C1310 H1299 0.950 . S
C1310 C1308 1.391 . S
C1310 C1311 1.400 . S
C1311 C1305 1.491 . S
C1311 C1310 1.400 . S
C1311 C1312 1.398 . S
C1312 H1300 0.950 . S
C1312 C1311 1.398 . S
C1312 C1313 1.391 . S
C1313 H1301 0.950 . S
C1313 C1309 1.393 . S
C1313 C1312 1.391 . S
H1314 C1322 0.950 . S
H1315 C1327 0.950 . S
H1316 C1324 0.950 . S
H1317 C1326 0.950 . S
H1318 C1328 0.950 . S
H1319 C1330 0.950 . S
H1320 C1332 0.950 . S
H1321 C1333 0.950 . S
C1322 H1314 0.950 . S
C1322 C1323 1.386 . S
C1322 C1324 1.391 . S
C1323 C1322 1.386 . S
C1323 C1327 1.393 . S
C1324 H1316 0.950 . S
C1324 C1322 1.391 . S
C1324 C1325 1.400 . S
C1325 C1324 1.400 . S
C1325 C1326 1.398 . S
C1325 C1331 1.491 . S
C1326 H1317 0.950 . S
C1326 C1325 1.398 . S
C1326 C1327 1.391 . S
C1327 H1315 0.950 . S
C1327 C1323 1.393 . S
C1327 C1326 1.391 . S
C1328 H1318 0.950 . S
C1328 C1329 1.386 . S
C1328 C1330 1.391 . S
C1329 C1328 1.386 . S
C1329 C1333 1.393 . S
C1330 H1319 0.950 . S
C1330 C1328 1.391 . S
C1330 C1331 1.400 . S
C1331 C1325 1.491 . S
C1331 C1330 1.400 . S
C1331 C1332 1.398 . S
C1332 H1320 0.950 . S
C1332 C1331 1.398 . S
C1332 C1333 1.391 . S
C1333 H1321 0.950 . S
C1333 C1329 1.393 . S
C1333 C1332 1.391 . S
H1334 C1342 0.950 . S
H1335 C1347 0.950 . S
H1336 C1344 0.950 . S
H1337 C1346 0.950 . S
H1338 C1348 0.950 . S
H1339 C1350 0.950 . S
H1340 C1352 0.950 . S
H1341 C1353 0.950 . S
C1342 H1334 0.950 . S
C1342 C1343 1.386 . S
C1342 C1344 1.391 . S
C1343 C1342 1.386 . S
C1343 C1347 1.393 . S
C1344 H1336 0.950 . S
C1344 C1342 1.391 . S
C1344 C1345 1.400 . S
C1345 C1344 1.400 . S
C1345 C1346 1.398 . S
C1345 C1351 1.491 . S
C1346 H1337 0.950 . S
C1346 C1345 1.398 . S
C1346 C1347 1.391 . S
C1347 H1335 0.950 . S
C1347 C1343 1.393 . S
C1347 C1346 1.391 . S
C1348 H1338 0.950 . S
C1348 C1349 1.386 . S
C1348 C1350 1.391 . S
C1349 C1348 1.386 . S
C1349 C1353 1.393 . S
C1350 H1339 0.950 . S
C1350 C1348 1.391 . S
C1350 C1351 1.400 . S
C1351 C1345 1.491 . S
C1351 C1350 1.400 . S
C1351 C1352 1.398 . S
C1352 H1340 0.950 . S
C1352 C1351 1.398 . S
C1352 C1353 1.391 . S
C1353 H1341 0.950 . S
C1353 C1349 1.393 . S
C1353 C1352 1.391 . S
H1354 C1362 0.950 . S
H1355 C1367 0.950 . S
H1356 C1364 0.950 . S
H1357 C1366 0.950 . S
H1358 C1368 0.950 . S
H1359 C1370 0.950 . S
H1360 C1372 0.950 . S
H1361 C1373 0.950 . S
C1362 H1354 0.950 . S
C1362 C1363 1.386 . S
C1362 C1364 1.391 . S
C1363 C1362 1.386 . S
C1363 C1367 1.393 . S
C1364 H1356 0.950 . S
C1364 C1362 1.391 . S
C1364 C1365 1.400 . S
C1365 C1364 1.400 . S
C1365 C1366 1.398 . S
C1365 C1371 1.491 . S
C1366 H1357 0.950 . S
C1366 C1365 1.398 . S
C1366 C1367 1.391 . S
C1367 H1355 0.950 . S
C1367 C1363 1.393 . S
C1367 C1366 1.391 . S
C1368 H1358 0.950 . S
C1368 C1369 1.386 . S
C1368 C1370 1.391 . S
C1369 C1368 1.386 . S
C1369 C1373 1.393 . S
C1370 H1359 0.950 . S
C1370 C1368 1.391 . S
C1370 C1371 1.400 . S
C1371 C1365 1.491 . S
C1371 C1370 1.400 . S
C1371 C1372 1.398 . S
C1372 H1360 0.950 . S
C1372 C1371 1.398 . S
C1372 C1373 1.391 . S
C1373 H1361 0.950 . S
C1373 C1369 1.393 . S
C1373 C1372 1.391 . S
H1374 C1382 0.950 . S
H1375 C1387 0.950 . S
H1376 C1384 0.950 . S
H1377 C1386 0.950 . S
H1378 C1388 0.950 . S
H1379 C1390 0.950 . S
H1380 C1392 0.950 . S
H1381 C1393 0.950 . S
C1382 H1374 0.950 . S
C1382 C1383 1.386 . S
C1382 C1384 1.391 . S
C1383 C1382 1.386 . S
C1383 C1387 1.393 . S
C1384 H1376 0.950 . S
C1384 C1382 1.391 . S
C1384 C1385 1.400 . S
C1385 C1384 1.400 . S
C1385 C1386 1.398 . S
C1385 C1391 1.491 . S
C1386 H1377 0.950 . S
C1386 C1385 1.398 . S
C1386 C1387 1.391 . S
C1387 H1375 0.950 . S
C1387 C1383 1.393 . S
C1387 C1386 1.391 . S
C1388 H1378 0.950 . S
C1388 C1389 1.386 . S
C1388 C1390 1.391 . S
C1389 C1388 1.386 . S
C1389 C1393 1.393 . S
C1390 H1379 0.950 . S
C1390 C1388 1.391 . S
C1390 C1391 1.400 . S
C1391 C1385 1.491 . S
C1391 C1390 1.400 . S
C1391 C1392 1.398 . S
C1392 H1380 0.950 . S
C1392 C1391 1.398 . S
C1392 C1393 1.391 . S
C1393 H1381 0.950 . S
C1393 C1389 1.393 . S
C1393 C1392 1.391 . S
H1394 C1402 0.950 . S
H1395 C1407 0.950 . S
H1396 C1404 0.950 . S
H1397 C1406 0.950 . S
H1398 C1408 0.950 . S
H1399 C1410 0.950 . S
H1400 C1412 0.950 . S
H1401 C1413 0.950 . S
C1402 H1394 0.950 . S
C1402 C1403 1.386 . S
C1402 C1404 1.391 . S
C1403 C1402 1.386 . S
C1403 C1407 1.393 . S
C1404 H1396 0.950 . S
C1404 C1402 1.391 . S
C1404 C1405 1.400 . S
C1405 C1404 1.400 . S
C1405 C1406 1.398 . S
C1405 C1411 1.491 . S
C1406 H1397 0.950 . S
C1406 C1405 1.398 . S
C1406 C1407 1.391 . S
C1407 H1395 0.950 . S
C1407 C1403 1.393 . S
C1407 C1406 1.391 . S
C1408 H1398 0.950 . S
C1408 C1409 1.386 . S
C1408 C1410 1.391 . S
C1409 C1408 1.386 . S
C1409 C1413 1.393 . S
C1410 H1399 0.950 . S
C1410 C1408 1.391 . S
C1410 C1411 1.400 . S
C1411 C1405 1.491 . S
C1411 C1410 1.400 . S
C1411 C1412 1.398 . S
C1412 H1400 0.950 . S
C1412 C1411 1.398 . S
C1412 C1413 1.391 . S
C1413 H1401 0.950 . S
C1413 C1409 1.393 . S
C1413 C1412 1.391 . S
H1414 C1422 0.950 . S
H1415 C1427 0.950 . S
H1416 C1424 0.950 . S
H1417 C1426 0.950 . S
H1418 C1428 0.950 . S
H1419 C1430 0.950 . S
H1420 C1432 0.950 . S
H1421 C1433 0.950 . S
C1422 H1414 0.950 . S
C1422 C1423 1.386 . S
C1422 C1424 1.391 . S
C1423 C1422 1.386 . S
C1423 C1427 1.393 . S
C1424 H1416 0.950 . S
C1424 C1422 1.391 . S
C1424 C1425 1.400 . S
C1425 C1424 1.400 . S
C1425 C1426 1.398 . S
C1425 C1431 1.491 . S
C1426 H1417 0.950 . S
C1426 C1425 1.398 . S
C1426 C1427 1.391 . S
C1427 H1415 0.950 . S
C1427 C1423 1.393 . S
C1427 C1426 1.391 . S
C1428 H1418 0.950 . S
C1428 C1429 1.386 . S
C1428 C1430 1.391 . S
C1429 C1428 1.386 . S
C1429 C1433 1.393 . S
C1430 H1419 0.950 . S
C1430 C1428 1.391 . S
C1430 C1431 1.400 . S
C1431 C1425 1.491 . S
C1431 C1430 1.400 . S
C1431 C1432 1.398 . S
C1432 H1420 0.950 . S
C1432 C1431 1.398 . S
C1432 C1433 1.391 . S
C1433 H1421 0.950 . S
C1433 C1429 1.393 . S
C1433 C1432 1.391 . S
H1434 C1442 0.950 . S
H1435 C1447 0.950 . S
H1436 C1444 0.950 . S
H1437 C1446 0.950 . S
H1438 C1448 0.950 . S
H1439 C1450 0.950 . S
H1440 C1452 0.950 . S
H1441 C1453 0.950 . S
C1442 H1434 0.950 . S
C1442 C1443 1.386 . S
C1442 C1444 1.391 . S
C1443 C1442 1.386 . S
C1443 C1447 1.393 . S
C1444 H1436 0.950 . S
C1444 C1442 1.391 . S
C1444 C1445 1.400 . S
C1445 C1444 1.400 . S
C1445 C1446 1.398 . S
C1445 C1451 1.491 . S
C1446 H1437 0.950 . S
C1446 C1445 1.398 . S
C1446 C1447 1.391 . S
C1447 H1435 0.950 . S
C1447 C1443 1.393 . S
C1447 C1446 1.391 . S
C1448 H1438 0.950 . S
C1448 C1449 1.386 . S
C1448 C1450 1.391 . S
C1449 C1448 1.386 . S
C1449 C1453 1.393 . S
C1450 H1439 0.950 . S
C1450 C1448 1.391 . S
C1450 C1451 1.400 . S
C1451 C1445 1.491 . S
C1451 C1450 1.400 . S
C1451 C1452 1.398 . S
C1452 H1440 0.950 . S
C1452 C1451 1.398 . S
C1452 C1453 1.391 . S
C1453 H1441 0.950 . S
C1453 C1449 1.393 . S
C1453 C1452 1.391 . S
H1454 C1462 0.950 . S
H1455 C1467 0.950 . S
H1456 C1464 0.950 . S
H1457 C1466 0.950 . S
H1458 C1468 0.950 . S
H1459 C1470 0.950 . S
H1460 C1472 0.950 . S
H1461 C1473 0.950 . S
C1462 H1454 0.950 . S
C1462 C1463 1.386 . S
C1462 C1464 1.391 . S
C1463 C1462 1.386 . S
C1463 C1467 1.393 . S
C1464 H1456 0.950 . S
C1464 C1462 1.391 . S
C1464 C1465 1.400 . S
C1465 C1464 1.400 . S
C1465 C1466 1.398 . S
C1465 C1471 1.491 . S
C1466 H1457 0.950 . S
C1466 C1465 1.398 . S
C1466 C1467 1.391 . S
C1467 H1455 0.950 . S
C1467 C1463 1.393 . S
C1467 C1466 1.391 . S
C1468 H1458 0.950 . S
C1468 C1469 1.386 . S
C1468 C1470 1.391 . S
C1469 C1468 1.386 . S
C1469 C1473 1.393 . S
C1470 H1459 0.950 . S
C1470 C1468 1.391 . S
C1470 C1471 1.400 . S
C1471 C1465 1.491 . S
C1471 C1470 1.400 . S
C1471 C1472 1.398 . S
C1472 H1460 0.950 . S
C1472 C1471 1.398 . S
C1472 C1473 1.391 . S
C1473 H1461 0.950 . S
C1473 C1469 1.393 . S
C1473 C1472 1.391 . S
H1474 C1482 0.950 . S
H1475 C1487 0.950 . S
H1476 C1484 0.950 . S
H1477 C1486 0.950 . S
H1478 C1488 0.950 . S
H1479 C1490 0.950 . S
H1480 C1492 0.950 . S
H1481 C1493 0.950 . S
C1482 H1474 0.950 . S
C1482 C1483 1.386 . S
C1482 C1484 1.391 . S
C1483 C1482 1.386 . S
C1483 C1487 1.393 . S
C1484 H1476 0.950 . S
C1484 C1482 1.391 . S
C1484 C1485 1.400 . S
C1485 C1484 1.400 . S
C1485 C1486 1.398 . S
C1485 C1491 1.491 . S
C1486 H1477 0.950 . S
C1486 C1485 1.398 . S
C1486 C1487 1.391 . S
C1487 H1475 0.950 . S
C1487 C1483 1.393 . S
C1487 C1486 1.391 . S
C1488 H1478 0.950 . S
C1488 C1489 1.386 . S
C1488 C1490 1.391 . S
C1489 C1488 1.386 . S
C1489 C1493 1.393 . S
C1490 H1479 0.950 . S
C1490 C1488 1.391 . S
C1490 C1491 1.400 . S
C1491 C1485 1.491 . S
C1491 C1490 1.400 . S
C1491 C1492 1.398 . S
C1492 H1480 0.950 . S
C1492 C1491 1.398 . S
C1492 C1493 1.391 . S
C1493 H1481 0.950 . S
C1493 C1489 1.393 . S
C1493 C1492 1.391 . S
C423 N170 1.924 . S
C429 C240 1.916 . S
C443 N184 1.078 . S
C449 C260 1.070 . S
C463 N158 1.579 . S
C469 C283 1.576 . S
C483 N145 1.496 . S
C489 C263 1.491 1_556 S
C509 C280 0.989 1_556 S
C503 N119 1.007 . S
C523 N131 1.871 . S
C529 C243 1.890 . S
C549 C250 1.620 1_556 S
C543 N144 1.653 . S
C569 C270 1.384 . S
C563 N118 1.430 . S
C583 N132 1.516 . S
C589 C275 1.528 . S
C603 N171 1.455 . S
C609 C255 1.463 . S
C623 N183 1.322 . S
C629 C290 1.299 . S
C649 C235 1.575 . S
C643 N157 1.576 . S
C669 C300 1.913 . S
C663 N14 1.922 . S
C683 N28 1.076 . S
C689 C320 1.050 . S
C703 N2 1.579 . S
C709 C343 1.576 . S
C723 N223 1.499 . S
C729 C323 1.498 . S
C743 N197 1.006 . S
C749 C340 1.005 . S
C763 N209 1.881 . S
C769 C303 1.900 . S
C783 N222 1.655 . S
C789 C310 1.625 . S
C803 N196 1.431 . S
C809 C330 1.382 . S
C829 C335 1.529 . S
C823 N210 1.521 . S
C843 N15 1.447 . S
C849 C315 1.460 . S
C869 C350 1.313 . S
C863 N27 1.314 . S
C883 N1 1.571 . S
C889 C295 1.571 . S
C909 C360 1.908 . S
C903 N92 1.918 . S
C923 N106 1.084 . S
C929 C380 1.077 . S
C949 C403 1.581 . S
C943 N80 1.582 . S
C969 C383 1.498 . S
C963 N67 1.501 . S
C989 C400 1.006 . S
C983 N41 1.006 . S
C1003 N53 1.885 . S
C1009 C363 1.898 . S
C1023 N66 1.651 . S
C1029 C370 1.619 . S
C1043 N40 1.422 . S
C1049 C390 1.404 . S
C1069 C395 1.525 . S
C1063 N54 1.513 . S
C1083 N93 1.459 . S
C1089 C375 1.465 . S
C1103 N105 1.327 . S
C1109 C410 1.294 . S
C1123 N79 1.574 . S
C1129 C355 1.564 . S
C1143 N200 0.978 . S
C1149 C253 0.956 . S
C1169 C273 1.883 . S
C1163 N213 1.920 . S
C1183 N226 1.512 . S
C1189 C282 1.467 . S
C1203 N83 1.597 . S
C1209 C262 1.557 1_655 S
C1223 N96 1.839 . S
C1229 C293 1.826 . S
C1249 C242 1.021 . S
C1243 N109 1.012 . S
C1263 N44 0.966 . S
C1269 C313 0.938 . S
C1283 N57 1.920 . S
C1289 C333 1.883 . S
C1303 N70 1.500 . S
C1309 C342 1.487 . S
C1323 N161 1.597 . S
C1329 C322 1.557 . S
C1349 C353 1.827 . S
C1343 N174 1.833 . S
C1363 N187 1.003 . S
C1369 C302 1.013 . S
C1383 N122 0.958 . S
C1389 C373 0.956 . S
C1403 N135 1.919 . S
C1409 C393 1.903 . S
C1429 C402 1.474 . S
C1423 N148 1.513 . S
C1443 N5 1.596 . S
C1449 C382 1.569 . S
C1463 N18 1.832 . S
C1469 C413 1.807 . S
C1483 N31 1.015 . S
C1489 C362 0.991 . S
