# Generated by pormake.
# Topology pts, (4,4)-cn, num edge types: 1
# Building blocks:
#     Node 0, Type 0, BuildingBlock: AZAVOO_clean_linker_0, # of connection points: 4
#     Node 1, Type 0, BuildingBlock: AZAVOO_clean_linker_0, # of connection points: 4
#     Node 2, Type 1, BuildingBlock: QUQFOY_clean_sbu_1, # of connection points: 4
#     Node 3, Type 1, BuildingBlock: QUQFOY_clean_sbu_1, # of connection points: 4
#     Edge 4, Type (0, 1), BuildingBlock: ZUJKAS_clean_linker_0, # of connection points: 2
#     Edge 5, Type (0, 1), BuildingBlock: ZUJKAS_clean_linker_0, # of connection points: 2
#     Edge 6, Type (0, 1), BuildingBlock: ZUJKAS_clean_linker_0, # of connection points: 2
#     Edge 7, Type (0, 1), BuildingBlock: ZUJKAS_clean_linker_0, # of connection points: 2
#     Edge 8, Type (0, 1), BuildingBlock: ZUJKAS_clean_linker_0, # of connection points: 2
#     Edge 9, Type (0, 1), BuildingBlock: ZUJKAS_clean_linker_0, # of connection points: 2
#     Edge 10, Type (0, 1), BuildingBlock: ZUJKAS_clean_linker_0, # of connection points: 2
#     Edge 11, Type (0, 1), BuildingBlock: ZUJKAS_clean_linker_0, # of connection points: 2
# Relax obj value: 0.189
# Max RMSD: 0.245
# Mean RMSD: 0.235
data_MOF--net-pts--node1-QUQFOY_clean_sbu_1--node2-AZAVOO_clean_linker_0--edge1-ZUJKAS_clean_linker_0
_symmetry_space_group_name_H-M    P1
_symmetry_Int_Tables_number       1
_symmetry_cell_setting            triclinic
loop_
_symmetry_equiv_pos_as_xyz
'x, y, z'
_cell_length_a     31.148306
_cell_length_b     34.772392
_cell_length_c     61.191717
_cell_angle_alpha  90.69671
_cell_angle_beta   92.40784
_cell_angle_gamma 90.195176
loop_
_atom_site_label
_atom_site_type_symbol
_atom_site_fract_x
_atom_site_fract_y
_atom_site_fract_z
_atom_type_partial_charge
H0 H 0.46393 0.13558 0.86739 0.0
H1 H 0.81788 0.97881 0.02831 0.0
H2 H 0.47893 0.14919 0.98598 0.0
H3 H 0.41331 0.1607 0.96372 0.0
H4 H 0.37639 0.04175 0.97112 0.0
H5 H 0.44159 0.0309 0.99372 0.0
H6 H 0.55143 0.13527 0.95394 0.0
H7 H 0.52156 0.1455 0.91681 0.0
H8 H 0.46064 0.0336 0.91767 0.0
H9 H 0.49114 0.02362 0.95466 0.0
H10 H 0.64521 0.11484 0.97567 0.0
H11 H 0.68959 0.1143 0.94359 0.0
H12 H 0.62905 0.00789 0.92146 0.0
H13 H 0.58577 0.00818 0.95394 0.0
H14 H 0.65757 0.10577 0.02718 0.0
H15 H 0.73215 0.08943 0.0371 0.0
H16 H 0.71244 0.97635 0.00811 0.0
H17 H 0.63775 0.99292 -0.00147 0.0
H18 H 0.57921 0.12105 0.05463 0.0
H19 H 0.61599 0.11589 0.09053 0.0
H20 H 0.62761 0.99309 0.08065 0.0
H21 H 0.59128 0.99874 0.04456 0.0
H22 H 0.49103 0.14124 0.03407 0.0
H23 H 0.44063 0.14955 0.06349 0.0
H24 H 0.4396 0.02658 0.07297 0.0
H25 H 0.48968 0.01859 0.04343 0.0
O26 O 0.4763 0.13061 0.88187 0.0
O27 O 0.44688 0.07233 0.88289 0.0
O28 O 0.79701 0.04455 0.03921 0.0
O29 O 0.78861 0.9861 0.02447 0.0
C30 C 0.51007 0.07913 -0.00295 0.0
C31 C 0.53884 0.07382 0.98004 0.0
C32 C 0.58212 0.06453 0.985 0.0
C33 C 0.59658 0.05997 0.00697 0.0
C34 C 0.56748 0.06461 0.02396 0.0
C35 C 0.52426 0.07439 0.01898 0.0
C36 C 0.46498 0.08917 0.99124 0.0
C37 C 0.45558 0.12619 0.98365 0.0
C38 C 0.41841 0.13254 0.97072 0.0
C39 C 0.39027 0.10189 0.96523 0.0
C40 C 0.39735 0.06598 0.97508 0.0
C41 C 0.43452 0.0597 0.98807 0.0
C42 C 0.52337 0.07875 0.95693 0.0
C43 C 0.53202 0.11287 0.94595 0.0
C44 C 0.51474 0.11868 0.92481 0.0
C45 C 0.48855 0.09042 0.9143 0.0
C46 C 0.48062 0.05596 0.92528 0.0
C47 C 0.49802 0.05016 0.94639 0.0
C48 C 0.6124 0.06155 0.96706 0.0
C49 C 0.6422 0.09109 0.96408 0.0
C50 C 0.66708 0.09094 0.94564 0.0
C51 C 0.66244 0.06127 0.92987 0.0
C52 C 0.63358 0.03099 0.93337 0.0
C53 C 0.60878 0.03114 0.95184 0.0
C54 C 0.64228 0.05048 0.01221 0.0
C55 C 0.66944 0.07748 0.02301 0.0
C56 C 0.71202 0.06808 0.02863 0.0
C57 C 0.72825 0.03153 0.02343 0.0
C58 C 0.70098 0.00472 0.01238 0.0
C59 C 0.65836 0.01413 0.00682 0.0
C60 C 0.58296 0.06032 0.04701 0.0
C61 C 0.58878 0.09295 0.06048 0.0
C62 C 0.60965 0.08989 0.08101 0.0
C63 C 0.62501 0.0541 0.08835 0.0
C64 C 0.61668 0.02111 0.0753 0.0
C65 C 0.59582 0.02422 0.05477 0.0
C66 C 0.49378 0.07934 0.03667 0.0
C67 C 0.47977 0.11617 0.04251 0.0
C68 C 0.45129 0.12085 0.05936 0.0
C69 C 0.43621 0.0887 0.07049 0.0
C70 C 0.45034 0.05182 0.06452 0.0
C71 C 0.47902 0.0472 0.04777 0.0
C72 C 0.4693 0.09708 0.89208 0.0
C73 C 0.77336 0.02128 0.02954 0.0
H74 H 0.9847 0.52939 0.36133 0.0
H75 H 0.10079 0.81468 0.546 0.0
H76 H 0.97474 0.49492 0.4791 0.0
H77 H 0.97292 0.43041 0.46265 0.0
H78 H 0.10885 0.41838 0.47845 0.0
H79 H 0.10982 0.48238 0.49546 0.0
H80 H 0.97439 0.57659 0.45304 0.0
H81 H 0.96658 0.56119 0.41394 0.0
H82 H 0.09514 0.51439 0.41594 0.0
H83 H 0.10269 0.53038 0.45498 0.0
H84 H 0.98498 0.65678 0.47994 0.0
H85 H 0.98724 0.71018 0.45422 0.0
H86 H 0.11124 0.67151 0.43386 0.0
H87 H 0.10885 0.61845 0.45971 0.0
H88 H 0.98819 0.65232 0.53028 0.0
H89 H 0.99324 0.71831 0.54451 0.0
H90 H 0.12221 0.72704 0.52141 0.0
H91 H 0.11697 0.66073 0.50761 0.0
H92 H 0.98845 0.57988 0.55518 0.0
H93 H 0.98942 0.61504 0.59015 0.0
H94 H 0.12357 0.64241 0.58315 0.0
H95 H 0.12238 0.60671 0.54853 0.0
H96 H 0.98257 0.49548 0.52881 0.0
H97 H 0.98575 0.43895 0.55223 0.0
H98 H 0.1202 0.46195 0.56763 0.0
H99 H 0.11683 0.518 0.54371 0.0
O100 O 0.98853 0.53535 0.37678 0.0
O101 O 0.05469 0.51144 0.37872 0.0
O102 O 0.03173 0.78235 0.55232 0.0
O103 O 0.09786 0.78859 0.54043 0.0
C104 C 0.04451 0.53375 0.49602 0.0
C105 C 0.04344 0.56367 0.48058 0.0
C106 C 0.04623 0.60235 0.48777 0.0
C107 C 0.04977 0.61105 0.51036 0.0
C108 C 0.05127 0.58102 0.52577 0.0
C109 C 0.04838 0.54239 0.51862 0.0
C110 C 0.04244 0.49323 0.4883 0.0
C111 C 0.00388 0.47798 0.4793 0.0
C112 C 0.00301 0.44127 0.46982 0.0
C113 C 0.04085 0.41936 0.46903 0.0
C114 C 0.07904 0.43422 0.47899 0.0
C115 C 0.07976 0.47084 0.48861 0.0
C116 C 0.03903 0.55449 0.45682 0.0
C117 C 0.00085 0.56313 0.44497 0.0
C118 C 0.99647 0.55423 0.42266 0.0
C119 C 0.03022 0.53649 0.41182 0.0
C120 C 0.0685 0.52798 0.42379 0.0
C121 C 0.07287 0.53699 0.44608 0.0
C122 C 0.04674 0.63381 0.47165 0.0
C123 C 0.0126 0.65993 0.46991 0.0
C124 C 0.01401 0.6904 0.45531 0.0
C125 C 0.04945 0.69498 0.44207 0.0
C126 C 0.08334 0.66844 0.44368 0.0
C127 C 0.08206 0.63819 0.45842 0.0
C128 C 0.05226 0.65177 0.51799 0.0
C129 C 0.0175 0.66855 0.52834 0.0
C130 C 0.02046 0.70624 0.53642 0.0
C131 C 0.05818 0.72795 0.53413 0.0
C132 C 0.09273 0.71114 0.52347 0.0
C133 C 0.0898 0.67334 0.5155 0.0
C134 C 0.05528 0.59102 0.54935 0.0
C135 C 0.01843 0.59209 0.56171 0.0
C136 C 0.01894 0.61256 0.5815 0.0
C137 C 0.05637 0.63205 0.58918 0.0
C138 C 0.09431 0.62757 0.57776 0.0
C139 C 0.09374 0.60715 0.55799 0.0
C140 C 0.04945 0.51076 0.53463 0.0
C141 C 0.01256 0.48846 0.53743 0.0
C142 C 0.01444 0.45629 0.55085 0.0
C143 C 0.05329 0.44588 0.56172 0.0
C144 C 0.08997 0.46891 0.55925 0.0
C145 C 0.08802 0.50113 0.54581 0.0
C146 C 0.02539 0.52695 0.38813 0.0
C147 C 0.06161 0.7679 0.54286 0.0
O148 O 0.0013 0.04872 0.24406 0.0
Cd149 Cd 0.0617 0.0439 0.25884 0.0
Cd150 Cd 0.05477 0.12027 0.26227 0.0
O151 O 0.99478 0.11155 0.24764 0.0
O152 O 0.06801 0.98856 0.2661 0.0
O153 O 0.06681 0.03495 0.29115 0.0
C154 C 0.06915 0.99874 0.28645 0.0
C155 C 0.05983 0.15142 0.29603 0.0
C156 C 0.97942 0.0792 0.24134 0.0
C157 C 0.12679 0.09115 0.23607 0.0
O158 O 0.10695 0.12066 0.2427 0.0
O159 O 0.11441 0.05769 0.24116 0.0
O160 O 0.05405 0.17039 0.27815 0.0
O161 O 0.06295 0.11445 0.29467 0.0
O162 O 0.97665 0.0919 0.75523 0.0
Cd163 Cd 0.03761 0.09924 0.74411 0.0
Cd164 Cd 0.04169 0.02041 0.75001 0.0
O165 O 0.98086 0.02947 0.76078 0.0
O166 O 0.03787 0.15325 0.73398 0.0
O167 O 0.04837 0.10368 0.71193 0.0
C168 C 0.04547 0.14046 0.7147 0.0
C169 C 0.05054 0.96561 0.72827 0.0
C170 C 0.96009 0.06078 0.76163 0.0
C171 C 0.1051 0.0695 0.7762 0.0
O172 O 0.09216 0.03577 0.7711 0.0
O173 O 0.08762 0.09859 0.76723 0.0
O174 O 0.04574 0.96341 0.74901 0.0
O175 O 0.05063 -0.00063 0.71969 0.0
H176 H 0.36363 0.04691 0.07685 0.0
H177 H 0.31368 0.05417 0.10643 0.0
H178 H 0.38944 0.14859 0.13358 0.0
H179 H 0.43997 0.14121 0.10414 0.0
H180 H 0.366 0.08952 0.16423 0.0
H181 H 0.2268 0.14404 0.11422 0.0
H182 H 0.25112 0.10138 0.10348 0.0
H183 H 0.28122 0.14557 0.10511 0.0
C184 C 0.36971 0.06914 0.08916 0.0
C185 C 0.40564 0.09352 0.08821 0.0
C186 C 0.34099 0.07346 0.10591 0.0
C187 C 0.34771 0.10219 0.12198 0.0
C188 C 0.38365 0.12645 0.12119 0.0
H189 H 0.15525 0.15714 0.21736 0.0
H190 H 0.21206 0.16331 0.19116 0.0
C191 C 0.41228 0.12231 0.10435 0.0
C192 C 0.31773 0.10598 0.13994 0.0
H193 H 0.21273 0.12334 0.15022 0.0
C194 C 0.33258 0.0973 0.16126 0.0
C195 C 0.27438 0.11659 0.13597 0.0
C196 C 0.25737 0.12778 0.1135 0.0
C197 C 0.30462 0.09741 0.17864 0.0
C198 C 0.26078 0.10615 0.17446 0.0
C199 C 0.24635 0.11639 0.15331 0.0
C200 C 0.22884 0.10301 0.19154 0.0
C201 C 0.32205 0.0879 0.2013 0.0
C202 C 0.21962 0.06706 0.20039 0.0
C203 C 0.18713 0.06336 0.21526 0.0
C204 C 0.1632 0.0956 0.22153 0.0
C205 C 0.17314 0.13176 0.21293 0.0
C206 C 0.20552 0.13536 0.19795 0.0
H207 H 0.35746 0.09187 0.20286 0.0
H208 H 0.30686 0.10608 0.21384 0.0
H209 H 0.31474 0.05737 0.20475 0.0
H210 H 0.23681 0.04164 0.19534 0.0
H211 H 0.18028 0.0351 0.22154 0.0
H212 H 0.11698 0.39177 0.56351 0.0
H213 H 0.12039 0.3336 0.58568 0.0
H214 H -0.00149 0.36227 0.61245 0.0
H215 H 0.99495 0.42049 0.59049 0.0
H216 H 0.12091 0.32797 0.63057 0.0
H217 H 0.98054 0.25046 0.59278 0.0
H218 H 0.00513 0.29113 0.58005 0.0
H219 H 0.96769 0.29848 0.60131 0.0
C220 C 0.091 0.38576 0.5742 0.0
C221 C 0.05563 0.4107 0.57522 0.0
C222 C 0.09286 0.3524 0.58672 0.0
C223 C 0.05931 0.34326 0.60036 0.0
C224 C 0.02418 0.36824 0.60156 0.0
H225 H 0.04645 0.21855 0.71723 0.0
H226 H 0.0543 0.26402 0.6877 0.0
C227 C 0.02226 0.40156 0.58906 0.0
C228 C 0.0619 0.30873 0.61428 0.0
H229 H 0.00584 0.22876 0.6282 0.0
C230 C 0.0961 0.30597 0.62984 0.0
C231 C 0.02995 0.27967 0.61304 0.0
C232 C 0.994 0.27979 0.59574 0.0
C233 C 0.09785 0.27609 0.64504 0.0
C234 C 0.06421 0.24866 0.64482 0.0
C235 C 0.03135 0.25011 0.62847 0.0
C236 C 0.06064 0.2204 0.66255 0.0
C237 C 0.13529 0.27454 0.66146 0.0
C238 C 0.06064 0.18069 0.65809 0.0
C239 C 0.05602 0.15442 0.67502 0.0
C240 C 0.05082 0.16758 0.69657 0.0
C241 C 0.05052 0.2074 0.70084 0.0
C242 C 0.0553 0.23349 0.68401 0.0
H243 H 0.16391 0.28962 0.65543 0.0
H244 H 0.12627 0.28903 0.67685 0.0
H245 H 0.14414 0.24437 0.66526 0.0
H246 H 0.06433 0.17009 0.64156 0.0
H247 H 0.05624 0.12392 0.67122 0.0
H248 H 0.69918 0.01343 0.09339 0.0
H249 H 0.75185 0.01648 0.12397 0.0
H250 H 0.67068 0.09489 0.15829 0.0
H251 H 0.61692 0.09125 0.12785 0.0
H252 H 0.78958 0.08939 0.13687 0.0
H253 H 0.71313 0.01503 0.20543 0.0
H254 H 0.69667 0.00631 0.17712 0.0
H255 H 0.68138 0.04998 0.19055 0.0
C256 C 0.69178 0.03037 0.1077 0.0
C257 C 0.6538 0.05205 0.10822 0.0
C258 C 0.72208 0.03228 0.1251 0.0
C259 C 0.71498 0.05574 0.14336 0.0
C260 C 0.67643 0.07627 0.14441 0.0
H261 H 0.92609 0.13877 0.2299 0.0
H262 H 0.85827 0.13513 0.20828 0.0
C263 C 0.64599 0.07441 0.12695 0.0
C264 C 0.75004 0.06166 0.16006 0.0
H265 H 0.78146 0.04319 0.21299 0.0
C266 C 0.78777 0.07951 0.15356 0.0
C267 C 0.74735 0.04862 0.18173 0.0
C268 C 0.70762 0.02867 0.18924 0.0
C269 C 0.82336 0.08418 0.16809 0.0
C270 C 0.82086 0.07103 0.18976 0.0
C271 C 0.78296 0.0535 0.19639 0.0
C272 C 0.85854 0.07311 0.20518 0.0
C273 C 0.86387 0.10205 0.15997 0.0
C274 C 0.88024 0.03932 0.21107 0.0
C275 C 0.919 0.04125 0.22335 0.0
C276 C 0.93658 0.07705 0.23 0.0
C277 C 0.91362 0.11076 0.2249 0.0
C278 C 0.87488 0.10878 0.21257 0.0
H279 H 0.86294 0.10444 0.14187 0.0
H280 H 0.86794 0.13138 0.16713 0.0
H281 H 0.89243 0.08488 0.16517 0.0
H282 H 0.86802 0.01154 0.20547 0.0
H283 H 0.93566 0.01471 0.22714 0.0
H284 H 0.11544 0.64548 0.623 0.0
H285 H 0.11613 0.69913 0.64941 0.0
H286 H 0.9951 0.7387 0.62137 0.0
H287 H 0.99424 0.68555 0.595 0.0
H288 H 0.11645 0.77655 0.63887 0.0
H289 H 0.97479 0.7414 0.68681 0.0
H290 H 1e-05 0.70654 0.66945 0.0
H291 H 0.96319 0.74122 0.65783 0.0
C292 C 0.08871 0.66533 0.6227 0.0
C293 C 0.05457 0.66105 0.60708 0.0
C294 C 0.08915 0.6959 0.63777 0.0
C295 C 0.0554 0.72256 0.63751 0.0
C296 C 0.02093 0.71792 0.62221 0.0
H297 H 0.05392 0.95892 0.68366 0.0
H298 H 0.05764 0.89941 0.66195 0.0
C299 C 0.02043 0.68741 0.60719 0.0
C300 C 0.05746 0.75677 0.65214 0.0
H301 H 0.00186 0.80565 0.69041 0.0
C302 C 0.09165 0.78278 0.65031 0.0
C303 C 0.02523 0.76462 0.66715 0.0
C304 C 0.98895 0.7368 0.67063 0.0
C305 C 0.09387 0.81702 0.66269 0.0
C306 C 0.06062 0.82568 0.67697 0.0
C307 C 0.02706 0.79916 0.67924 0.0
C308 C 0.06011 0.86188 0.68995 0.0
C309 C 0.13194 0.84343 0.66049 0.0
C310 C 0.05961 0.86044 0.71282 0.0
C311 C 0.05711 0.89424 0.7252 0.0
C312 C 0.05494 0.93021 0.71495 0.0
C313 C 0.05581 0.93167 0.69203 0.0
C314 C 0.05817 0.89773 0.67962 0.0
H315 H 0.15967 0.82807 0.65364 0.0
H316 H 0.12281 0.86709 0.64923 0.0
H317 H 0.14228 0.85635 0.67655 0.0
H318 H 0.06095 0.83307 0.72109 0.0
H319 H 0.05654 0.89208 0.74283 0.0
H320 H 0.30789 0.07342 0.96203 0.0
H321 H 0.25994 0.07118 0.92922 0.0
H322 H 0.35251 0.13581 0.89401 0.0
H323 H 0.40104 0.13707 0.92632 0.0
H324 H 0.22316 0.12876 0.90274 0.0
H325 H 0.33578 0.03736 0.85728 0.0
H326 H 0.34232 0.04635 0.88634 0.0
H327 H 0.35874 0.08195 0.86729 0.0
C328 C 0.31782 0.08738 0.94734 0.0
C329 C 0.3582 0.10543 0.94679 0.0
C330 C 0.29041 0.08618 0.92866 0.0
C331 C 0.30309 0.10277 0.90915 0.0
C332 C 0.34246 0.12233 0.90884 0.0
H333 H 0.13911 0.13737 0.79228 0.0
H334 H 0.18848 0.14642 0.82408 0.0
C335 C 0.36987 0.1235 0.92744 0.0
C336 C 0.27586 0.09843 0.8889 0.0
H337 H 0.2745 0.06036 0.83719 0.0
C338 C 0.2343 0.11384 0.88839 0.0
C339 C 0.29045 0.07848 0.87035 0.0
C340 C 0.3341 0.05974 0.87033 0.0
C341 C 0.20695 0.11015 0.86967 0.0
C342 C 0.22194 0.09106 0.85093 0.0
C343 C 0.26336 0.07535 0.85153 0.0
C344 C 0.19445 0.08571 0.83084 0.0
C345 C 0.16193 0.12593 0.87027 0.0
C346 C 0.18298 0.04851 0.82363 0.0
C347 C 0.15511 0.04317 0.80538 0.0
C348 C 0.13828 0.07502 0.79398 0.0
C349 C 0.15126 0.11224 0.80076 0.0
C350 C 0.17921 0.11751 0.81901 0.0
H351 H 0.15224 0.13151 0.88729 0.0
H352 H 0.16035 0.15353 0.86137 0.0
H353 H 0.1384 0.10574 0.86218 0.0
H354 H 0.19472 0.0236 0.83248 0.0
H355 H 0.1459 0.01412 0.80058 0.0
H356 H 0.0844 0.35261 0.47887 0.0
H357 H 0.09108 0.29553 0.45529 0.0
H358 H 0.00534 0.34658 0.4068 0.0
H359 H -0.00069 0.40381 0.42977 0.0
H360 H 0.9912 0.26381 0.41637 0.0
H361 H 0.15894 0.30357 0.39699 0.0
H362 H 0.14537 0.30103 0.42526 0.0
H363 H 0.12256 0.33807 0.40833 0.0
C364 C 0.06686 0.3516 0.46321 0.0
C365 C 0.0414 0.38285 0.45619 0.0
C366 C 0.07059 0.31894 0.44985 0.0
C367 C 0.04884 0.31709 0.42933 0.0
C368 C 0.02215 0.34748 0.42267 0.0
H369 H 0.06211 0.22873 0.30341 0.0
H370 H 0.06294 0.26268 0.33855 0.0
C371 C 0.01857 0.3801 0.4359 0.0
C372 C 0.05576 0.285 0.41387 0.0
H373 H 0.12598 0.25368 0.37628 0.0
C374 C 0.02094 0.26086 0.40791 0.0
C375 C 0.09458 0.28166 0.40286 0.0
C376 C 0.1326 0.30746 0.40851 0.0
C377 C 0.02329 0.23455 0.39043 0.0
C378 C 0.06142 0.23253 0.37876 0.0
C379 C 0.09693 0.25532 0.38542 0.0
C380 C 0.06299 0.21102 0.35787 0.0
C381 C 0.98423 0.21081 0.38365 0.0
C382 C 0.06324 0.1707 0.35722 0.0
C383 C 0.06287 0.1511 0.33709 0.0
C384 C 0.06208 0.17166 0.31741 0.0
C385 C 0.06254 0.21205 0.31825 0.0
C386 C 0.06313 0.23151 0.3383 0.0
H387 H 0.95602 0.218 0.39343 0.0
H388 H 0.97557 0.21532 0.36608 0.0
H389 H 0.99161 0.17985 0.38577 0.0
H390 H 0.0634 0.15448 0.37222 0.0
H391 H 0.06261 0.11995 0.33695 0.0
H392 H 0.67682 0.12366 0.90445 0.0
H393 H 0.71777 0.12616 0.87125 0.0
H394 H 0.74303 0.00461 0.87595 0.0
H395 H 0.70251 0.00189 0.90929 0.0
H396 H 0.80425 0.10649 0.86848 0.0
H397 H 0.70125 0.01708 0.81172 0.0
H398 H 0.68211 0.03746 0.8368 0.0
H399 H 0.71431 0.99464 0.83743 0.0
C400 C 0.69121 0.09747 0.89846 0.0
C401 C 0.6866 0.06258 0.90953 0.0
C402 C 0.71424 0.09891 0.8794 0.0
C403 C 0.73274 0.06546 0.87099 0.0
C404 C 0.72804 0.03055 0.8819 0.0
H405 H 0.91906 0.00099 0.78057 0.0
H406 H 0.85853 0.00492 0.8045 0.0
C407 C 0.70504 0.02907 0.90098 0.0
C408 C 0.75976 0.0676 0.85176 0.0
H409 H 0.77255 0.03014 0.80064 0.0
C410 C 0.79707 0.09028 0.8535 0.0
C411 C 0.75018 0.04633 0.83233 0.0
C412 C 0.70957 0.02276 0.8293 0.0
C413 C 0.82618 0.09095 0.83668 0.0
C414 C 0.81714 0.06896 0.8174 0.0
C415 C 0.77922 0.04707 0.81541 0.0
C416 C 0.84862 0.06592 0.80006 0.0
C417 C 0.86735 0.11371 0.84013 0.0
C418 C 0.86173 0.09861 0.78886 0.0
C419 C 0.89659 0.09657 0.77526 0.0
C420 C 0.91862 0.06169 0.77254 0.0
C421 C 0.9031 0.02839 0.78244 0.0
C422 C 0.86842 0.03053 0.7961 0.0
H423 H 0.87332 0.12236 0.85754 0.0
H424 H 0.89528 0.0968 0.83478 0.0
H425 H 0.86529 0.14024 0.83026 0.0
H426 H 0.84618 0.12603 0.79138 0.0
H427 H 0.90741 0.12266 0.76768 0.0
H428 H 0.03036 0.7704 0.44993 0.0
H429 H 0.03386 0.8241 0.42443 0.0
H430 H 0.07687 0.7467 0.37436 0.0
H431 H 0.07296 0.69283 0.39962 0.0
H432 H 0.10994 0.84833 0.40062 0.0
H433 H 0.97011 0.80416 0.34651 0.0
H434 H 0.97823 0.78678 0.37408 0.0
H435 H 0.00898 0.7672 0.35244 0.0
C436 C 0.04017 0.76482 0.43341 0.0
C437 C 0.05125 0.72745 0.4267 0.0
C438 C 0.0424 0.79549 0.41896 0.0
C439 C 0.05526 0.78916 0.39754 0.0
C440 C 0.06647 0.75198 0.3908 0.0
H441 H 0.08268 0.92185 0.2815 0.0
H442 H 0.08144 0.87263 0.30957 0.0
C443 C 0.06451 0.72135 0.40527 0.0
C444 C 0.0574 0.82146 0.38219 0.0
H445 H 0.01314 0.85518 0.3343 0.0
C446 C 0.08867 0.8501 0.38617 0.0
C447 C 0.02955 0.82344 0.36343 0.0
C448 C 0.99454 0.79397 0.35885 0.0
C449 C 0.09371 0.88024 0.37142 0.0
C450 C 0.06609 0.88203 0.35251 0.0
C451 C 0.03437 0.85364 0.34878 0.0
C452 C 0.06986 0.91255 0.33606 0.0
C453 C 0.12936 0.90914 0.37585 0.0
C454 C 0.06404 0.95138 0.34169 0.0
C455 C 0.06505 0.97969 0.32568 0.0
C456 C 0.07134 0.96949 0.30375 0.0
C457 C 0.07769 0.93063 0.29824 0.0
C458 C 0.07696 0.90246 0.31425 0.0
H459 H 0.15419 0.89819 0.38775 0.0
H460 H 0.14509 0.91673 0.36053 0.0
H461 H 0.11572 0.93578 0.38286 0.0
H462 H 0.05763 0.9597 0.35835 0.0
H463 H 0.05976 0.00937 0.33039 0.0
loop_
_geom_bond_atom_site_label_1
_geom_bond_atom_site_label_2
_geom_bond_distance
_geom_bond_site_symmetry_2
_ccdc_geom_bond_type
H0 O26 0.856 . S
H1 O29 0.854 . S
H2 C37 0.930 . S
H3 C38 0.930 . S
H4 C40 0.930 . S
H5 C41 0.930 . S
H6 C43 0.931 . S
H7 C44 0.930 . S
H8 C46 0.930 . S
H9 C47 0.929 . S
H10 C49 0.930 . S
H11 C50 0.931 . S
H12 C52 0.919 1_565 S
H13 C53 0.929 . S
H14 C55 0.931 . S
H15 C56 0.930 . S
H16 C58 0.930 . S
H17 C59 0.932 . S
H18 C61 0.930 . S
H19 C62 0.929 . S
H20 C64 0.931 . S
H21 C65 0.930 . S
H22 C67 0.929 . S
H23 C68 0.931 . S
H24 C70 0.930 . S
H25 C71 0.929 . S
O26 H0 0.856 . S
O26 C72 1.300 . S
O27 C72 1.209 . S
O28 C73 1.199 . S
O29 H1 0.854 . S
O29 C73 1.297 . S
C30 C31 1.404 . S
C30 C35 1.397 1_556 S
C30 C36 1.492 . S
C31 C30 1.404 . S
C31 C32 1.396 . S
C31 C42 1.492 . S
C32 C31 1.396 . S
C32 C33 1.397 1_556 S
C32 C48 1.509 . S
C33 C32 1.397 1_554 S
C33 C34 1.412 . S
C33 C54 1.485 . S
C34 C33 1.412 . S
C34 C35 1.388 . S
C34 C60 1.490 . S
C35 C30 1.397 1_554 S
C35 C34 1.388 . S
C35 C66 1.519 . S
C36 C30 1.492 . S
C36 C37 1.363 . S
C36 C41 1.390 . S
C37 H2 0.930 . S
C37 C36 1.363 . S
C37 C38 1.372 . S
C38 H3 0.930 . S
C38 C37 1.372 . S
C38 C39 1.383 . S
C39 C38 1.383 . S
C39 C40 1.395 . S
C40 H4 0.930 . S
C40 C39 1.395 . S
C40 C41 1.362 . S
C41 H5 0.930 . S
C41 C36 1.390 . S
C41 C40 1.362 . S
C42 C31 1.492 . S
C42 C43 1.377 . S
C42 C47 1.397 . S
C43 H6 0.931 . S
C43 C42 1.377 . S
C43 C44 1.376 . S
C44 H7 0.930 . S
C44 C43 1.376 . S
C44 C45 1.376 . S
C45 C44 1.376 . S
C45 C46 1.378 . S
C45 C72 1.486 . S
C46 H8 0.930 . S
C46 C45 1.378 . S
C46 C47 1.376 . S
C47 H9 0.929 . S
C47 C42 1.397 . S
C47 C46 1.376 . S
C48 C32 1.509 . S
C48 C49 1.391 . S
C48 C53 1.386 . S
C49 H10 0.930 . S
C49 C48 1.391 . S
C49 C50 1.375 . S
C50 H11 0.931 . S
C50 C49 1.375 . S
C50 C51 1.375 . S
C51 C50 1.375 . S
C51 C52 1.361 . S
C52 H12 0.919 1_545 S
C52 C51 1.361 . S
C52 C53 1.399 . S
C53 H13 0.929 . S
C53 C48 1.386 . S
C53 C52 1.399 . S
C54 C33 1.485 . S
C54 C55 1.394 . S
C54 C59 1.360 . S
C55 H14 0.931 . S
C55 C54 1.394 . S
C55 C56 1.372 . S
C56 H15 0.930 . S
C56 C55 1.372 . S
C56 C57 1.397 . S
C57 C56 1.397 . S
C57 C58 1.390 . S
C57 C73 1.476 . S
C58 H16 0.930 . S
C58 C57 1.390 . S
C58 C59 1.366 . S
C59 H17 0.932 . S
C59 C54 1.360 . S
C59 C58 1.366 . S
C60 C34 1.490 . S
C60 C61 1.380 . S
C60 C65 1.386 . S
C61 H18 0.930 . S
C61 C60 1.380 . S
C61 C62 1.381 . S
C62 H19 0.929 . S
C62 C61 1.381 . S
C62 C63 1.371 . S
C63 C62 1.371 . S
C63 C64 1.380 . S
C64 H20 0.931 . S
C64 C63 1.380 . S
C64 C65 1.387 . S
C65 H21 0.930 . S
C65 C60 1.386 . S
C65 C64 1.387 . S
C66 C35 1.519 . S
C66 C67 1.377 . S
C66 C71 1.361 . S
C67 H22 0.929 . S
C67 C66 1.377 . S
C67 C68 1.386 . S
C68 H23 0.931 . S
C68 C67 1.386 . S
C68 C69 1.363 . S
C69 C68 1.363 . S
C69 C70 1.385 . S
C70 H24 0.930 . S
C70 C69 1.385 . S
C70 C71 1.396 . S
C71 H25 0.929 . S
C71 C66 1.361 . S
C71 C70 1.396 . S
C72 O26 1.300 . S
C72 O27 1.209 . S
C72 C45 1.486 . S
C73 O28 1.199 . S
C73 O29 1.297 . S
C73 C57 1.476 . S
H74 O100 0.856 . S
H75 O103 0.854 . S
H76 C111 0.930 1_655 S
H77 C112 0.930 1_655 S
H78 C114 0.930 . S
H79 C115 0.930 . S
H80 C117 0.931 . S
H81 C118 0.930 . S
H82 C120 0.930 . S
H83 C121 0.929 . S
H84 C123 0.932 1_655 S
H85 C124 0.931 . S
H86 C126 0.930 . S
H87 C127 0.929 . S
H88 C129 0.931 1_655 S
H89 C130 0.930 . S
H90 C132 0.930 . S
H91 C133 0.932 . S
H92 C135 0.930 1_655 S
H93 C136 0.929 1_655 S
H94 C138 0.931 . S
H95 C139 0.930 . S
H96 C141 0.929 1_655 S
H97 C142 0.932 1_655 S
H98 C144 0.930 . S
H99 C145 0.929 . S
O100 H74 0.856 . S
O100 C146 1.300 . S
O101 C146 1.209 . S
O102 C147 1.199 . S
O103 H75 0.854 . S
O103 C147 1.297 . S
C104 C105 1.404 . S
C104 C109 1.397 . S
C104 C110 1.492 . S
C105 C104 1.404 . S
C105 C106 1.396 . S
C105 C116 1.492 . S
C106 C105 1.396 . S
C106 C107 1.397 . S
C106 C122 1.509 . S
C107 C106 1.397 . S
C107 C108 1.412 . S
C107 C128 1.485 . S
C108 C107 1.412 . S
C108 C109 1.388 . S
C108 C134 1.490 . S
C109 C104 1.397 . S
C109 C108 1.388 . S
C109 C140 1.519 . S
C110 C104 1.492 . S
C110 C111 1.363 . S
C110 C115 1.390 . S
C111 H76 0.930 1_455 S
C111 C110 1.363 . S
C111 C112 1.372 . S
C112 H77 0.930 1_455 S
C112 C111 1.372 . S
C112 C113 1.383 . S
C113 C112 1.383 . S
C113 C114 1.395 . S
C114 H78 0.930 . S
C114 C113 1.395 . S
C114 C115 1.362 . S
C115 H79 0.930 . S
C115 C110 1.390 . S
C115 C114 1.362 . S
C116 C105 1.492 . S
C116 C117 1.377 . S
C116 C121 1.397 . S
C117 H80 0.931 . S
C117 C116 1.377 . S
C117 C118 1.376 . S
C118 H81 0.930 . S
C118 C117 1.376 . S
C118 C119 1.376 . S
C119 C118 1.376 . S
C119 C120 1.378 . S
C119 C146 1.486 . S
C120 H82 0.930 . S
C120 C119 1.378 . S
C120 C121 1.376 . S
C121 H83 0.929 . S
C121 C116 1.397 . S
C121 C120 1.376 . S
C122 C106 1.509 . S
C122 C123 1.391 . S
C122 C127 1.386 . S
C123 H84 0.932 1_455 S
C123 C122 1.391 . S
C123 C124 1.375 . S
C124 H85 0.931 . S
C124 C123 1.375 . S
C124 C125 1.375 . S
C125 C124 1.375 . S
C125 C126 1.361 . S
C126 H86 0.930 . S
C126 C125 1.361 . S
C126 C127 1.399 . S
C127 H87 0.929 . S
C127 C122 1.386 . S
C127 C126 1.399 . S
C128 C107 1.485 . S
C128 C129 1.394 . S
C128 C133 1.360 . S
C129 H88 0.931 1_455 S
C129 C128 1.394 . S
C129 C130 1.372 . S
C130 H89 0.930 . S
C130 C129 1.372 . S
C130 C131 1.397 . S
C131 C130 1.397 . S
C131 C132 1.390 . S
C131 C147 1.476 . S
C132 H90 0.930 . S
C132 C131 1.390 . S
C132 C133 1.366 . S
C133 H91 0.932 . S
C133 C128 1.360 . S
C133 C132 1.366 . S
C134 C108 1.490 . S
C134 C135 1.380 . S
C134 C139 1.386 . S
C135 H92 0.930 1_455 S
C135 C134 1.380 . S
C135 C136 1.381 . S
C136 H93 0.929 1_455 S
C136 C135 1.381 . S
C136 C137 1.371 . S
C137 C136 1.371 . S
C137 C138 1.380 . S
C138 H94 0.931 . S
C138 C137 1.380 . S
C138 C139 1.387 . S
C139 H95 0.930 . S
C139 C134 1.386 . S
C139 C138 1.387 . S
C140 C109 1.519 . S
C140 C141 1.377 . S
C140 C145 1.361 . S
C141 H96 0.929 1_455 S
C141 C140 1.377 . S
C141 C142 1.386 . S
C142 H97 0.932 1_455 S
C142 C141 1.386 . S
C142 C143 1.363 . S
C143 C142 1.363 . S
C143 C144 1.385 . S
C144 H98 0.930 . S
C144 C143 1.385 . S
C144 C145 1.396 . S
C145 H99 0.929 . S
C145 C140 1.361 . S
C145 C144 1.396 . S
C146 O100 1.300 . S
C146 O101 1.209 . S
C146 C119 1.486 . S
C147 O102 1.199 . S
C147 O103 1.297 . S
C147 C131 1.476 . S
O148 Cd149 2.223 . S
O148 C156 1.315 1_455 S
Cd149 O148 2.223 . S
Cd149 O152 2.297 1_545 S
Cd149 O153 2.439 . S
Cd149 O159 2.240 . S
Cd150 O151 2.240 1_455 S
Cd150 O158 2.223 . S
Cd150 O160 2.297 . S
Cd150 O161 2.439 . S
O151 Cd150 2.240 1_655 S
O151 C156 1.279 . S
O152 Cd149 2.297 1_565 S
O152 C154 1.247 . S
O153 Cd149 2.439 . S
O153 C154 1.208 1_545 S
C154 O152 1.247 . S
C154 O153 1.208 1_565 S
C155 O160 1.247 . S
C155 O161 1.208 . S
C156 O148 1.315 1_655 S
C156 O151 1.279 . S
C157 O158 1.315 . S
C157 O159 1.279 . S
O158 Cd150 2.223 . S
O158 C157 1.315 . S
O159 Cd149 2.240 . S
O159 C157 1.279 . S
O160 Cd150 2.297 . S
O160 C155 1.247 . S
O161 Cd150 2.439 . S
O161 C155 1.208 . S
O162 Cd163 2.223 . S
O162 C170 1.315 1_455 S
Cd163 O162 2.223 . S
Cd163 O166 2.297 . S
Cd163 O167 2.439 . S
Cd163 O173 2.240 . S
Cd164 O165 2.240 1_465 S
Cd164 O172 2.223 . S
Cd164 O174 2.297 . S
Cd164 O175 2.439 . S
O165 Cd164 2.240 1_645 S
O165 C170 1.279 . S
O166 Cd163 2.297 . S
O166 C168 1.247 . S
O167 Cd163 2.439 . S
O167 C168 1.208 . S
C168 O166 1.247 . S
C168 O167 1.208 . S
C169 O174 1.247 . S
C169 O175 1.208 . S
C170 O162 1.315 1_655 S
C170 O165 1.279 . S
C171 O172 1.315 1_545 S
C171 O173 1.279 . S
O172 Cd164 2.223 . S
O172 C171 1.315 1_565 S
O173 Cd163 2.240 . S
O173 C171 1.279 . S
O174 Cd164 2.297 . S
O174 C169 1.247 . S
O175 Cd164 2.439 . S
O175 C169 1.208 . S
H176 C184 0.929 . S
H177 C186 0.930 . S
H178 C188 0.930 . S
H179 C191 0.929 . S
H180 C194 0.930 . S
H181 C196 0.960 . S
H182 C196 0.960 . S
H183 C196 0.960 . S
C184 H176 0.929 . S
C184 C185 1.377 . S
C184 C186 1.384 . S
C185 C184 1.377 . S
C185 C191 1.390 . S
C186 H177 0.930 . S
C186 C184 1.384 . S
C186 C187 1.372 . S
C187 C186 1.372 . S
C187 C188 1.400 . S
C187 C192 1.490 . S
C188 H178 0.930 . S
C188 C187 1.400 . S
C188 C191 1.386 . S
H189 C205 0.930 . S
H190 C206 0.931 . S
C191 H179 0.929 . S
C191 C185 1.390 . S
C191 C188 1.386 . S
C192 C187 1.490 . S
C192 C194 1.395 . S
C192 C195 1.403 . S
H193 C199 0.930 . S
C194 H180 0.930 . S
C194 C192 1.395 . S
C194 C197 1.403 . S
C195 C192 1.403 . S
C195 C196 1.524 . S
C195 C199 1.400 . S
C196 H181 0.960 . S
C196 H182 0.960 . S
C196 H183 0.960 . S
C196 C195 1.524 . S
C197 C194 1.403 . S
C197 C198 1.392 . S
C197 C201 1.495 . S
C198 C197 1.392 . S
C198 C199 1.385 . S
C198 C200 1.478 . S
C199 H193 0.930 . S
C199 C195 1.400 . S
C199 C198 1.385 . S
C200 C198 1.478 . S
C200 C202 1.381 . S
C200 C206 1.383 . S
C201 C197 1.495 . S
C201 H207 0.959 . S
C201 H208 0.961 . S
C201 H209 0.960 . S
C202 C200 1.381 . S
C202 C203 1.394 . S
C202 H210 0.930 . S
C203 C202 1.394 . S
C203 C204 1.383 . S
C203 H211 0.929 . S
C204 C203 1.383 . S
C204 C205 1.377 . S
C205 H189 0.930 . S
C205 C204 1.377 . S
C205 C206 1.379 . S
C206 H190 0.931 . S
C206 C200 1.383 . S
C206 C205 1.379 . S
H207 C201 0.959 . S
H208 C201 0.961 . S
H209 C201 0.960 . S
H210 C202 0.930 . S
H211 C203 0.929 . S
H212 C220 0.929 . S
H213 C222 0.930 . S
H214 C224 0.930 1_655 S
H215 C227 0.929 . S
H216 C230 0.930 . S
H217 C232 0.960 . S
H218 C232 0.960 . S
H219 C232 0.960 . S
C220 H212 0.929 . S
C220 C221 1.377 . S
C220 C222 1.384 . S
C221 C220 1.377 . S
C221 C227 1.390 . S
C222 H213 0.930 . S
C222 C220 1.384 . S
C222 C223 1.372 . S
C223 C222 1.372 . S
C223 C224 1.400 . S
C223 C228 1.490 . S
C224 H214 0.930 1_455 S
C224 C223 1.400 . S
C224 C227 1.386 . S
H225 C241 0.930 . S
H226 C242 0.931 1_655 S
C227 H215 0.929 . S
C227 C221 1.390 . S
C227 C224 1.386 . S
C228 C223 1.490 . S
C228 C230 1.395 . S
C228 C231 1.403 . S
H229 C235 0.930 1_655 S
C230 H216 0.930 . S
C230 C228 1.395 . S
C230 C233 1.403 . S
C231 C228 1.403 . S
C231 C232 1.524 1_455 S
C231 C235 1.400 . S
C232 H217 0.960 . S
C232 H218 0.960 . S
C232 H219 0.960 . S
C232 C231 1.524 1_655 S
C233 C230 1.403 . S
C233 C234 1.392 . S
C233 C237 1.495 . S
C234 C233 1.392 . S
C234 C235 1.385 . S
C234 C236 1.478 . S
C235 H229 0.930 1_455 S
C235 C231 1.400 . S
C235 C234 1.385 . S
C236 C234 1.478 . S
C236 C238 1.381 . S
C236 C242 1.383 . S
C237 C233 1.495 . S
C237 H243 0.959 . S
C237 H244 0.961 . S
C237 H245 0.960 . S
C238 C236 1.381 . S
C238 C239 1.394 . S
C238 H246 0.930 . S
C239 C238 1.394 . S
C239 C240 1.383 . S
C239 H247 0.929 . S
C240 C239 1.383 . S
C240 C241 1.377 1_455 S
C241 H225 0.930 . S
C241 C240 1.377 1_655 S
C241 C242 1.379 1_655 S
C242 H226 0.931 1_455 S
C242 C236 1.383 . S
C242 C241 1.379 1_455 S
H243 C237 0.959 . S
H244 C237 0.961 . S
H245 C237 0.960 . S
H246 C238 0.930 . S
H247 C239 0.929 . S
H248 C256 0.929 . S
H249 C258 0.930 . S
H250 C260 0.930 . S
H251 C263 0.929 . S
H252 C266 0.930 . S
H253 C268 0.960 . S
H254 C268 0.960 . S
H255 C268 0.960 . S
C256 H248 0.929 . S
C256 C257 1.377 . S
C256 C258 1.384 . S
C257 C256 1.377 . S
C257 C263 1.390 . S
C258 H249 0.930 . S
C258 C256 1.384 . S
C258 C259 1.372 . S
C259 C258 1.372 . S
C259 C260 1.400 . S
C259 C264 1.490 . S
C260 H250 0.930 . S
C260 C259 1.400 . S
C260 C263 1.386 . S
H261 C277 0.930 . S
H262 C278 0.931 . S
C263 H251 0.929 . S
C263 C257 1.390 . S
C263 C260 1.386 . S
C264 C259 1.490 . S
C264 C266 1.395 . S
C264 C267 1.403 . S
H265 C271 0.930 . S
C266 H252 0.930 . S
C266 C264 1.395 . S
C266 C269 1.403 . S
C267 C264 1.403 . S
C267 C268 1.524 . S
C267 C271 1.400 . S
C268 H253 0.960 . S
C268 H254 0.960 . S
C268 H255 0.960 . S
C268 C267 1.524 . S
C269 C266 1.403 . S
C269 C270 1.392 . S
C269 C273 1.495 . S
C270 C269 1.392 . S
C270 C271 1.385 . S
C270 C272 1.478 . S
C271 H265 0.930 . S
C271 C267 1.400 . S
C271 C270 1.385 . S
C272 C270 1.478 . S
C272 C274 1.381 . S
C272 C278 1.383 . S
C273 C269 1.495 . S
C273 H279 0.959 . S
C273 H280 0.961 . S
C273 H281 0.960 . S
C274 C272 1.381 . S
C274 C275 1.394 . S
C274 H282 0.930 . S
C275 C274 1.394 . S
C275 C276 1.383 . S
C275 H283 0.929 . S
C276 C275 1.383 . S
C276 C277 1.377 . S
C277 H261 0.930 . S
C277 C276 1.377 . S
C277 C278 1.379 . S
C278 H262 0.931 . S
C278 C272 1.383 . S
C278 C277 1.379 . S
H279 C273 0.959 . S
H280 C273 0.961 . S
H281 C273 0.960 . S
H282 C274 0.930 . S
H283 C275 0.929 . S
H284 C292 0.929 . S
H285 C294 0.930 . S
H286 C296 0.930 . S
H287 C299 0.930 . S
H288 C302 0.930 . S
H289 C304 0.960 . S
H290 C304 0.960 . S
H291 C304 0.960 . S
C292 H284 0.929 . S
C292 C293 1.377 . S
C292 C294 1.384 . S
C293 C292 1.377 . S
C293 C299 1.390 . S
C294 H285 0.930 . S
C294 C292 1.384 . S
C294 C295 1.372 . S
C295 C294 1.372 . S
C295 C296 1.400 . S
C295 C300 1.490 . S
C296 H286 0.930 . S
C296 C295 1.400 . S
C296 C299 1.386 . S
H297 C313 0.930 . S
H298 C314 0.931 . S
C299 H287 0.930 . S
C299 C293 1.390 . S
C299 C296 1.386 . S
C300 C295 1.490 . S
C300 C302 1.395 . S
C300 C303 1.403 . S
H301 C307 0.926 1_655 S
C302 H288 0.930 . S
C302 C300 1.395 . S
C302 C305 1.403 . S
C303 C300 1.403 . S
C303 C304 1.524 1_455 S
C303 C307 1.400 . S
C304 H289 0.960 . S
C304 H290 0.960 . S
C304 H291 0.960 . S
C304 C303 1.524 1_655 S
C305 C302 1.403 . S
C305 C306 1.392 . S
C305 C309 1.495 . S
C306 C305 1.392 . S
C306 C307 1.385 . S
C306 C308 1.478 . S
C307 H301 0.926 1_455 S
C307 C303 1.400 . S
C307 C306 1.385 . S
C308 C306 1.478 . S
C308 C310 1.381 . S
C308 C314 1.383 . S
C309 C305 1.495 . S
C309 H315 0.959 . S
C309 H316 0.961 . S
C309 H317 0.960 . S
C310 C308 1.381 . S
C310 C311 1.394 . S
C310 H318 0.930 . S
C311 C310 1.394 . S
C311 C312 1.383 . S
C311 H319 0.929 . S
C312 C311 1.383 . S
C312 C313 1.377 . S
C313 H297 0.930 . S
C313 C312 1.377 . S
C313 C314 1.379 . S
C314 H298 0.931 . S
C314 C308 1.383 . S
C314 C313 1.379 . S
H315 C309 0.959 . S
H316 C309 0.961 . S
H317 C309 0.960 . S
H318 C310 0.930 . S
H319 C311 0.929 . S
H320 C328 0.929 . S
H321 C330 0.930 . S
H322 C332 0.930 . S
H323 C335 0.929 . S
H324 C338 0.930 . S
H325 C340 0.960 1_565 S
H326 C340 0.960 1_565 S
H327 C340 0.960 . S
C328 H320 0.929 . S
C328 C329 1.377 . S
C328 C330 1.384 . S
C329 C328 1.377 . S
C329 C335 1.390 . S
C330 H321 0.930 . S
C330 C328 1.384 . S
C330 C331 1.372 . S
C331 C330 1.372 . S
C331 C332 1.400 . S
C331 C336 1.490 . S
C332 H322 0.930 . S
C332 C331 1.400 . S
C332 C335 1.386 . S
H333 C349 0.930 . S
H334 C350 0.931 . S
C335 H323 0.929 . S
C335 C329 1.390 . S
C335 C332 1.386 . S
C336 C331 1.490 . S
C336 C338 1.395 . S
C336 C339 1.403 . S
H337 C343 0.930 . S
C338 H324 0.930 . S
C338 C336 1.395 . S
C338 C341 1.403 . S
C339 C336 1.403 . S
C339 C340 1.524 . S
C339 C343 1.400 . S
C340 H325 0.960 1_545 S
C340 H326 0.960 1_545 S
C340 H327 0.960 . S
C340 C339 1.524 . S
C341 C338 1.403 . S
C341 C342 1.392 . S
C341 C345 1.495 . S
C342 C341 1.392 . S
C342 C343 1.385 . S
C342 C344 1.478 . S
C343 H337 0.930 . S
C343 C339 1.400 . S
C343 C342 1.385 . S
C344 C342 1.478 . S
C344 C346 1.381 . S
C344 C350 1.383 . S
C345 C341 1.495 . S
C345 H351 0.959 . S
C345 H352 0.961 . S
C345 H353 0.960 . S
C346 C344 1.381 . S
C346 C347 1.394 . S
C346 H354 0.930 . S
C347 C346 1.394 . S
C347 C348 1.383 . S
C347 H355 0.929 . S
C348 C347 1.383 . S
C348 C349 1.377 . S
C349 H333 0.930 . S
C349 C348 1.377 . S
C349 C350 1.379 . S
C350 H334 0.931 . S
C350 C344 1.383 . S
C350 C349 1.379 . S
H351 C345 0.959 . S
H352 C345 0.961 . S
H353 C345 0.960 . S
H354 C346 0.930 . S
H355 C347 0.929 . S
H356 C364 0.929 . S
H357 C366 0.930 . S
H358 C368 0.930 1_655 S
H359 C371 0.923 1_655 S
H360 C374 0.930 . S
H361 C376 0.960 . S
H362 C376 0.960 . S
H363 C376 0.960 . S
C364 H356 0.929 . S
C364 C365 1.377 . S
C364 C366 1.384 . S
C365 C364 1.377 . S
C365 C371 1.395 . S
C366 H357 0.930 . S
C366 C364 1.384 . S
C366 C367 1.372 . S
C367 C366 1.372 . S
C367 C368 1.400 . S
C367 C372 1.490 . S
C368 H358 0.930 1_455 S
C368 C367 1.400 . S
C368 C371 1.387 . S
H369 C385 0.930 . S
H370 C386 0.931 1_655 S
C371 H359 0.923 1_455 S
C371 C365 1.395 . S
C371 C368 1.387 . S
C372 C367 1.490 . S
C372 C374 1.395 . S
C372 C375 1.403 . S
H373 C379 0.930 . S
C374 H360 0.930 . S
C374 C372 1.395 . S
C374 C377 1.403 . S
C375 C372 1.403 . S
C375 C376 1.524 . S
C375 C379 1.400 . S
C376 H361 0.960 . S
C376 H362 0.960 . S
C376 H363 0.960 . S
C376 C375 1.524 . S
C377 C374 1.403 . S
C377 C378 1.392 . S
C377 C381 1.495 . S
C378 C377 1.392 . S
C378 C379 1.385 . S
C378 C380 1.478 . S
C379 H373 0.930 . S
C379 C375 1.400 . S
C379 C378 1.385 . S
C380 C378 1.478 . S
C380 C382 1.381 . S
C380 C386 1.383 . S
C381 C377 1.495 . S
C381 H387 0.959 . S
C381 H388 0.961 . S
C381 H389 0.960 . S
C382 C380 1.381 . S
C382 C383 1.394 . S
C382 H390 0.930 . S
C383 C382 1.394 . S
C383 C384 1.383 . S
C383 H391 0.929 . S
C384 C383 1.383 . S
C384 C385 1.377 . S
C385 H369 0.930 . S
C385 C384 1.377 . S
C385 C386 1.379 . S
C386 H370 0.931 1_455 S
C386 C380 1.383 . S
C386 C385 1.379 . S
H387 C381 0.959 . S
H388 C381 0.961 . S
H389 C381 0.960 . S
H390 C382 0.930 . S
H391 C383 0.929 . S
H392 C400 0.929 . S
H393 C402 0.930 . S
H394 C404 0.930 . S
H395 C407 0.929 . S
H396 C410 0.930 . S
H397 C412 0.960 . S
H398 C412 0.960 1_545 S
H399 C412 0.960 . S
C400 H392 0.929 . S
C400 C401 1.377 . S
C400 C402 1.384 . S
C401 C400 1.377 . S
C401 C407 1.390 . S
C402 H393 0.930 . S
C402 C400 1.384 . S
C402 C403 1.372 . S
C403 C402 1.372 . S
C403 C404 1.400 . S
C403 C408 1.490 . S
C404 H394 0.930 . S
C404 C403 1.400 . S
C404 C407 1.386 . S
H405 C421 0.945 . S
H406 C422 0.931 . S
C407 H395 0.929 . S
C407 C401 1.390 . S
C407 C404 1.386 . S
C408 C403 1.490 . S
C408 C410 1.395 . S
C408 C411 1.403 . S
H409 C415 0.930 . S
C410 H396 0.930 . S
C410 C408 1.395 . S
C410 C413 1.403 . S
C411 C408 1.403 . S
C411 C412 1.524 1_545 S
C411 C415 1.400 . S
C412 H397 0.960 . S
C412 H398 0.960 1_565 S
C412 H399 0.960 . S
C412 C411 1.524 1_565 S
C413 C410 1.403 . S
C413 C414 1.392 . S
C413 C417 1.495 . S
C414 C413 1.392 . S
C414 C415 1.385 . S
C414 C416 1.478 . S
C415 H409 0.930 . S
C415 C411 1.400 . S
C415 C414 1.385 . S
C416 C414 1.478 . S
C416 C418 1.381 . S
C416 C422 1.383 . S
C417 C413 1.495 . S
C417 H423 0.959 . S
C417 H424 0.961 . S
C417 H425 0.960 . S
C418 C416 1.381 . S
C418 C419 1.394 . S
C418 H426 0.930 . S
C419 C418 1.394 . S
C419 C420 1.383 . S
C419 H427 0.929 . S
C420 C419 1.383 . S
C420 C421 1.377 . S
C421 H405 0.945 . S
C421 C420 1.377 . S
C421 C422 1.379 . S
C422 H406 0.931 . S
C422 C416 1.383 . S
C422 C421 1.379 . S
H423 C417 0.959 . S
H424 C417 0.961 . S
H425 C417 0.960 . S
H426 C418 0.930 . S
H427 C419 0.929 . S
H428 C436 0.929 . S
H429 C438 0.930 . S
H430 C440 0.930 . S
H431 C443 0.929 . S
H432 C446 0.930 . S
H433 C448 0.965 . S
H434 C448 0.960 1_655 S
H435 C448 0.960 . S
C436 H428 0.929 . S
C436 C437 1.377 . S
C436 C438 1.384 . S
C437 C436 1.377 . S
C437 C443 1.390 . S
C438 H429 0.930 . S
C438 C436 1.384 . S
C438 C439 1.372 . S
C439 C438 1.372 . S
C439 C440 1.400 . S
C439 C444 1.490 . S
C440 H430 0.930 . S
C440 C439 1.400 . S
C440 C443 1.386 . S
H441 C457 0.930 . S
H442 C458 0.931 . S
C443 H431 0.929 . S
C443 C437 1.390 . S
C443 C440 1.386 . S
C444 C439 1.490 . S
C444 C446 1.395 . S
C444 C447 1.403 . S
H445 C451 0.930 . S
C446 H432 0.930 . S
C446 C444 1.395 . S
C446 C449 1.403 . S
C447 C444 1.403 . S
C447 C448 1.524 . S
C447 C451 1.400 . S
C448 H433 0.965 . S
C448 H434 0.960 1_455 S
C448 H435 0.960 . S
C448 C447 1.524 . S
C449 C446 1.403 . S
C449 C450 1.392 . S
C449 C453 1.495 . S
C450 C449 1.392 . S
C450 C451 1.385 . S
C450 C452 1.478 . S
C451 H445 0.930 . S
C451 C447 1.400 . S
C451 C450 1.385 . S
C452 C450 1.478 . S
C452 C454 1.381 1_455 S
C452 C458 1.383 . S
C453 C449 1.495 . S
C453 H459 0.959 . S
C453 H460 0.961 . S
C453 H461 0.960 . S
C454 C452 1.381 1_655 S
C454 C455 1.394 . S
C454 H462 0.930 . S
C455 C454 1.394 . S
C455 C456 1.383 1_655 S
C455 H463 0.929 . S
C456 C455 1.383 1_455 S
C456 C457 1.377 . S
C457 H441 0.930 . S
C457 C456 1.377 . S
C457 C458 1.379 . S
C458 H442 0.931 . S
C458 C452 1.383 . S
C458 C457 1.379 . S
H459 C453 0.959 . S
H460 C453 0.961 . S
H461 C453 0.960 . S
H462 C454 0.930 . S
H463 C455 0.929 . S
C204 C157 2.291 . S
C185 C69 2.290 . S
C240 C168 2.291 . S
C221 C143 2.382 . S
C276 C156 1.529 . S
C257 C63 1.436 . S
C312 C169 1.523 . S
C293 C137 1.476 . S
C348 C171 1.571 . S
C329 C39 1.485 . S
C384 C155 1.425 . S
C365 C113 1.394 . S
C420 C170 0.744 . S
C401 C51 0.751 . S
C437 C125 0.790 . S
C456 C154 0.790 . S
